# Generated by pormake.
# Topology gar, (4,6)-cn, num edge types: 1
# Building blocks:
#     Node 0, Type 0, BuildingBlock: UXUYUI_clean_sbu_0, # of connection points: 4
#     Node 1, Type 0, BuildingBlock: UXUYUI_clean_sbu_0, # of connection points: 4
#     Node 2, Type 0, BuildingBlock: UXUYUI_clean_sbu_0, # of connection points: 4
#     Node 3, Type 0, BuildingBlock: UXUYUI_clean_sbu_0, # of connection points: 4
#     Node 4, Type 0, BuildingBlock: UXUYUI_clean_sbu_0, # of connection points: 4
#     Node 5, Type 0, BuildingBlock: UXUYUI_clean_sbu_0, # of connection points: 4
#     Node 6, Type 0, BuildingBlock: UXUYUI_clean_sbu_0, # of connection points: 4
#     Node 7, Type 0, BuildingBlock: UXUYUI_clean_sbu_0, # of connection points: 4
#     Node 8, Type 0, BuildingBlock: UXUYUI_clean_sbu_0, # of connection points: 4
#     Node 9, Type 0, BuildingBlock: UXUYUI_clean_sbu_0, # of connection points: 4
#     Node 10, Type 0, BuildingBlock: UXUYUI_clean_sbu_0, # of connection points: 4
#     Node 11, Type 0, BuildingBlock: UXUYUI_clean_sbu_0, # of connection points: 4
#     Node 12, Type 0, BuildingBlock: UXUYUI_clean_sbu_0, # of connection points: 4
#     Node 13, Type 0, BuildingBlock: UXUYUI_clean_sbu_0, # of connection points: 4
#     Node 14, Type 0, BuildingBlock: UXUYUI_clean_sbu_0, # of connection points: 4
#     Node 15, Type 0, BuildingBlock: UXUYUI_clean_sbu_0, # of connection points: 4
#     Node 16, Type 0, BuildingBlock: UXUYUI_clean_sbu_0, # of connection points: 4
#     Node 17, Type 0, BuildingBlock: UXUYUI_clean_sbu_0, # of connection points: 4
#     Node 18, Type 0, BuildingBlock: UXUYUI_clean_sbu_0, # of connection points: 4
#     Node 19, Type 0, BuildingBlock: UXUYUI_clean_sbu_0, # of connection points: 4
#     Node 20, Type 0, BuildingBlock: UXUYUI_clean_sbu_0, # of connection points: 4
#     Node 21, Type 0, BuildingBlock: UXUYUI_clean_sbu_0, # of connection points: 4
#     Node 22, Type 0, BuildingBlock: UXUYUI_clean_sbu_0, # of connection points: 4
#     Node 23, Type 0, BuildingBlock: UXUYUI_clean_sbu_0, # of connection points: 4
#     Node 24, Type 1, BuildingBlock: BETDEL_clean_sbu_0, # of connection points: 6
#     Node 25, Type 1, BuildingBlock: BETDEL_clean_sbu_0, # of connection points: 6
#     Node 26, Type 1, BuildingBlock: BETDEL_clean_sbu_0, # of connection points: 6
#     Node 27, Type 1, BuildingBlock: BETDEL_clean_sbu_0, # of connection points: 6
#     Node 28, Type 1, BuildingBlock: BETDEL_clean_sbu_0, # of connection points: 6
#     Node 29, Type 1, BuildingBlock: BETDEL_clean_sbu_0, # of connection points: 6
#     Node 30, Type 1, BuildingBlock: BETDEL_clean_sbu_0, # of connection points: 6
#     Node 31, Type 1, BuildingBlock: BETDEL_clean_sbu_0, # of connection points: 6
#     Node 32, Type 1, BuildingBlock: BETDEL_clean_sbu_0, # of connection points: 6
#     Node 33, Type 1, BuildingBlock: BETDEL_clean_sbu_0, # of connection points: 6
#     Node 34, Type 1, BuildingBlock: BETDEL_clean_sbu_0, # of connection points: 6
#     Node 35, Type 1, BuildingBlock: BETDEL_clean_sbu_0, # of connection points: 6
#     Node 36, Type 1, BuildingBlock: BETDEL_clean_sbu_0, # of connection points: 6
#     Node 37, Type 1, BuildingBlock: BETDEL_clean_sbu_0, # of connection points: 6
#     Node 38, Type 1, BuildingBlock: BETDEL_clean_sbu_0, # of connection points: 6
#     Node 39, Type 1, BuildingBlock: BETDEL_clean_sbu_0, # of connection points: 6
#     Edge 40, Type (0, 1), BuildingBlock: AJUNOK_clean_linker_0, # of connection points: 2
#     Edge 41, Type (0, 1), BuildingBlock: AJUNOK_clean_linker_0, # of connection points: 2
#     Edge 42, Type (0, 1), BuildingBlock: AJUNOK_clean_linker_0, # of connection points: 2
#     Edge 43, Type (0, 1), BuildingBlock: AJUNOK_clean_linker_0, # of connection points: 2
#     Edge 44, Type (0, 1), BuildingBlock: AJUNOK_clean_linker_0, # of connection points: 2
#     Edge 45, Type (0, 1), BuildingBlock: AJUNOK_clean_linker_0, # of connection points: 2
#     Edge 46, Type (0, 1), BuildingBlock: AJUNOK_clean_linker_0, # of connection points: 2
#     Edge 47, Type (0, 1), BuildingBlock: AJUNOK_clean_linker_0, # of connection points: 2
#     Edge 48, Type (0, 1), BuildingBlock: AJUNOK_clean_linker_0, # of connection points: 2
#     Edge 49, Type (0, 1), BuildingBlock: AJUNOK_clean_linker_0, # of connection points: 2
#     Edge 50, Type (0, 1), BuildingBlock: AJUNOK_clean_linker_0, # of connection points: 2
#     Edge 51, Type (0, 1), BuildingBlock: AJUNOK_clean_linker_0, # of connection points: 2
#     Edge 52, Type (0, 1), BuildingBlock: AJUNOK_clean_linker_0, # of connection points: 2
#     Edge 53, Type (0, 1), BuildingBlock: AJUNOK_clean_linker_0, # of connection points: 2
#     Edge 54, Type (0, 1), BuildingBlock: AJUNOK_clean_linker_0, # of connection points: 2
#     Edge 55, Type (0, 1), BuildingBlock: AJUNOK_clean_linker_0, # of connection points: 2
#     Edge 56, Type (0, 1), BuildingBlock: AJUNOK_clean_linker_0, # of connection points: 2
#     Edge 57, Type (0, 1), BuildingBlock: AJUNOK_clean_linker_0, # of connection points: 2
#     Edge 58, Type (0, 1), BuildingBlock: AJUNOK_clean_linker_0, # of connection points: 2
#     Edge 59, Type (0, 1), BuildingBlock: AJUNOK_clean_linker_0, # of connection points: 2
#     Edge 60, Type (0, 1), BuildingBlock: AJUNOK_clean_linker_0, # of connection points: 2
#     Edge 61, Type (0, 1), BuildingBlock: AJUNOK_clean_linker_0, # of connection points: 2
#     Edge 62, Type (0, 1), BuildingBlock: AJUNOK_clean_linker_0, # of connection points: 2
#     Edge 63, Type (0, 1), BuildingBlock: AJUNOK_clean_linker_0, # of connection points: 2
#     Edge 64, Type (0, 1), BuildingBlock: AJUNOK_clean_linker_0, # of connection points: 2
#     Edge 65, Type (0, 1), BuildingBlock: AJUNOK_clean_linker_0, # of connection points: 2
#     Edge 66, Type (0, 1), BuildingBlock: AJUNOK_clean_linker_0, # of connection points: 2
#     Edge 67, Type (0, 1), BuildingBlock: AJUNOK_clean_linker_0, # of connection points: 2
#     Edge 68, Type (0, 1), BuildingBlock: AJUNOK_clean_linker_0, # of connection points: 2
#     Edge 69, Type (0, 1), BuildingBlock: AJUNOK_clean_linker_0, # of connection points: 2
#     Edge 70, Type (0, 1), BuildingBlock: AJUNOK_clean_linker_0, # of connection points: 2
#     Edge 71, Type (0, 1), BuildingBlock: AJUNOK_clean_linker_0, # of connection points: 2
#     Edge 72, Type (0, 1), BuildingBlock: AJUNOK_clean_linker_0, # of connection points: 2
#     Edge 73, Type (0, 1), BuildingBlock: AJUNOK_clean_linker_0, # of connection points: 2
#     Edge 74, Type (0, 1), BuildingBlock: AJUNOK_clean_linker_0, # of connection points: 2
#     Edge 75, Type (0, 1), BuildingBlock: AJUNOK_clean_linker_0, # of connection points: 2
#     Edge 76, Type (0, 1), BuildingBlock: AJUNOK_clean_linker_0, # of connection points: 2
#     Edge 77, Type (0, 1), BuildingBlock: AJUNOK_clean_linker_0, # of connection points: 2
#     Edge 78, Type (0, 1), BuildingBlock: AJUNOK_clean_linker_0, # of connection points: 2
#     Edge 79, Type (0, 1), BuildingBlock: AJUNOK_clean_linker_0, # of connection points: 2
#     Edge 80, Type (0, 1), BuildingBlock: AJUNOK_clean_linker_0, # of connection points: 2
#     Edge 81, Type (0, 1), BuildingBlock: AJUNOK_clean_linker_0, # of connection points: 2
#     Edge 82, Type (0, 1), BuildingBlock: AJUNOK_clean_linker_0, # of connection points: 2
#     Edge 83, Type (0, 1), BuildingBlock: AJUNOK_clean_linker_0, # of connection points: 2
#     Edge 84, Type (0, 1), BuildingBlock: AJUNOK_clean_linker_0, # of connection points: 2
#     Edge 85, Type (0, 1), BuildingBlock: AJUNOK_clean_linker_0, # of connection points: 2
#     Edge 86, Type (0, 1), BuildingBlock: AJUNOK_clean_linker_0, # of connection points: 2
#     Edge 87, Type (0, 1), BuildingBlock: AJUNOK_clean_linker_0, # of connection points: 2
#     Edge 88, Type (0, 1), BuildingBlock: AJUNOK_clean_linker_0, # of connection points: 2
#     Edge 89, Type (0, 1), BuildingBlock: AJUNOK_clean_linker_0, # of connection points: 2
#     Edge 90, Type (0, 1), BuildingBlock: AJUNOK_clean_linker_0, # of connection points: 2
#     Edge 91, Type (0, 1), BuildingBlock: AJUNOK_clean_linker_0, # of connection points: 2
#     Edge 92, Type (0, 1), BuildingBlock: AJUNOK_clean_linker_0, # of connection points: 2
#     Edge 93, Type (0, 1), BuildingBlock: AJUNOK_clean_linker_0, # of connection points: 2
#     Edge 94, Type (0, 1), BuildingBlock: AJUNOK_clean_linker_0, # of connection points: 2
#     Edge 95, Type (0, 1), BuildingBlock: AJUNOK_clean_linker_0, # of connection points: 2
#     Edge 96, Type (0, 1), BuildingBlock: AJUNOK_clean_linker_0, # of connection points: 2
#     Edge 97, Type (0, 1), BuildingBlock: AJUNOK_clean_linker_0, # of connection points: 2
#     Edge 98, Type (0, 1), BuildingBlock: AJUNOK_clean_linker_0, # of connection points: 2
#     Edge 99, Type (0, 1), BuildingBlock: AJUNOK_clean_linker_0, # of connection points: 2
#     Edge 100, Type (0, 1), BuildingBlock: AJUNOK_clean_linker_0, # of connection points: 2
#     Edge 101, Type (0, 1), BuildingBlock: AJUNOK_clean_linker_0, # of connection points: 2
#     Edge 102, Type (0, 1), BuildingBlock: AJUNOK_clean_linker_0, # of connection points: 2
#     Edge 103, Type (0, 1), BuildingBlock: AJUNOK_clean_linker_0, # of connection points: 2
#     Edge 104, Type (0, 1), BuildingBlock: AJUNOK_clean_linker_0, # of connection points: 2
#     Edge 105, Type (0, 1), BuildingBlock: AJUNOK_clean_linker_0, # of connection points: 2
#     Edge 106, Type (0, 1), BuildingBlock: AJUNOK_clean_linker_0, # of connection points: 2
#     Edge 107, Type (0, 1), BuildingBlock: AJUNOK_clean_linker_0, # of connection points: 2
#     Edge 108, Type (0, 1), BuildingBlock: AJUNOK_clean_linker_0, # of connection points: 2
#     Edge 109, Type (0, 1), BuildingBlock: AJUNOK_clean_linker_0, # of connection points: 2
#     Edge 110, Type (0, 1), BuildingBlock: AJUNOK_clean_linker_0, # of connection points: 2
#     Edge 111, Type (0, 1), BuildingBlock: AJUNOK_clean_linker_0, # of connection points: 2
#     Edge 112, Type (0, 1), BuildingBlock: AJUNOK_clean_linker_0, # of connection points: 2
#     Edge 113, Type (0, 1), BuildingBlock: AJUNOK_clean_linker_0, # of connection points: 2
#     Edge 114, Type (0, 1), BuildingBlock: AJUNOK_clean_linker_0, # of connection points: 2
#     Edge 115, Type (0, 1), BuildingBlock: AJUNOK_clean_linker_0, # of connection points: 2
#     Edge 116, Type (0, 1), BuildingBlock: AJUNOK_clean_linker_0, # of connection points: 2
#     Edge 117, Type (0, 1), BuildingBlock: AJUNOK_clean_linker_0, # of connection points: 2
#     Edge 118, Type (0, 1), BuildingBlock: AJUNOK_clean_linker_0, # of connection points: 2
#     Edge 119, Type (0, 1), BuildingBlock: AJUNOK_clean_linker_0, # of connection points: 2
#     Edge 120, Type (0, 1), BuildingBlock: AJUNOK_clean_linker_0, # of connection points: 2
#     Edge 121, Type (0, 1), BuildingBlock: AJUNOK_clean_linker_0, # of connection points: 2
#     Edge 122, Type (0, 1), BuildingBlock: AJUNOK_clean_linker_0, # of connection points: 2
#     Edge 123, Type (0, 1), BuildingBlock: AJUNOK_clean_linker_0, # of connection points: 2
#     Edge 124, Type (0, 1), BuildingBlock: AJUNOK_clean_linker_0, # of connection points: 2
#     Edge 125, Type (0, 1), BuildingBlock: AJUNOK_clean_linker_0, # of connection points: 2
#     Edge 126, Type (0, 1), BuildingBlock: AJUNOK_clean_linker_0, # of connection points: 2
#     Edge 127, Type (0, 1), BuildingBlock: AJUNOK_clean_linker_0, # of connection points: 2
#     Edge 128, Type (0, 1), BuildingBlock: AJUNOK_clean_linker_0, # of connection points: 2
#     Edge 129, Type (0, 1), BuildingBlock: AJUNOK_clean_linker_0, # of connection points: 2
#     Edge 130, Type (0, 1), BuildingBlock: AJUNOK_clean_linker_0, # of connection points: 2
#     Edge 131, Type (0, 1), BuildingBlock: AJUNOK_clean_linker_0, # of connection points: 2
#     Edge 132, Type (0, 1), BuildingBlock: AJUNOK_clean_linker_0, # of connection points: 2
#     Edge 133, Type (0, 1), BuildingBlock: AJUNOK_clean_linker_0, # of connection points: 2
#     Edge 134, Type (0, 1), BuildingBlock: AJUNOK_clean_linker_0, # of connection points: 2
#     Edge 135, Type (0, 1), BuildingBlock: AJUNOK_clean_linker_0, # of connection points: 2
# Relax obj value: 0.176
# Max RMSD: 0.265
# Mean RMSD: 0.195
data_MOF--net-gar--node1-UXUYUI_clean_sbu_0--node2-BETDEL_clean_sbu_0--edge1-AJUNOK_clean_linker_0
_symmetry_space_group_name_H-M    P1
_symmetry_Int_Tables_number       1
_symmetry_cell_setting            triclinic
loop_
_symmetry_equiv_pos_as_xyz
'x, y, z'
_cell_length_a     54.359596
_cell_length_b     51.872843
_cell_length_c     53.149843
_cell_angle_alpha  95.365301
_cell_angle_beta   92.324588
_cell_angle_gamma 100.3182
loop_
_atom_site_label
_atom_site_type_symbol
_atom_site_fract_x
_atom_site_fract_y
_atom_site_fract_z
_atom_type_partial_charge
Li0 Li 0.01269 0.27413 0.38047 0.0
Li1 Li 0.03721 0.30163 0.41426 0.0
Li2 Li 0.05802 0.27649 0.37991 0.0
Li3 Li 0.0322 0.25283 0.41249 0.0
C4 C 0.03265 0.32694 0.36841 0.0
N5 N 0.01946 0.37077 0.34967 0.0
C6 C 0.01207 0.33689 0.37741 0.0
C7 C 0.04638 0.33911 0.34971 0.0
C8 C 0.00575 0.35914 0.36776 0.0
C9 C 0.03945 0.36128 0.3405 0.0
C10 C 0.9986 0.27517 0.44095 0.0
C11 C 0.00802 0.27607 0.48577 0.0
N12 N 0.98347 0.27588 0.48994 0.0
C13 C 0.97346 0.2749 0.44566 0.0
C14 C 0.01602 0.27573 0.46113 0.0
C15 C 0.96619 0.27532 0.47057 0.0
C16 C 0.96047 0.26465 0.36961 0.0
N17 N 0.98275 0.27402 0.36005 0.0
C18 C 0.96206 0.29309 0.32792 0.0
C19 C 0.98382 0.28706 0.33898 0.0
C20 C 0.93879 0.28467 0.33801 0.0
C21 C 0.93816 0.26953 0.35869 0.0
H22 H 0.96013 0.25427 0.38634 0.0
H23 H 1.00174 0.29423 0.33164 0.0
C24 C 0.06087 0.35211 0.43979 0.0
N25 N 0.0391 0.33444 0.43477 0.0
C26 C 0.06079 0.37675 0.45308 0.0
C27 C 0.01604 0.36437 0.45572 0.0
C28 C 0.01697 0.34023 0.44238 0.0
C29 C 0.03808 0.38309 0.46114 0.0
H30 H 0.07817 0.34731 0.43301 0.0
H31 H 0.99975 0.32643 0.43742 0.0
C32 C 0.01582 0.23038 0.35576 0.0
N33 N 0.98322 0.20399 0.31672 0.0
C34 C 0.99511 0.21186 0.36092 0.0
C35 C 0.01998 0.23553 0.3308 0.0
C36 C 0.97884 0.1987 0.34089 0.0
C37 C 1.00326 0.22198 0.31131 0.0
C38 C 0.08473 0.28108 0.43256 0.0
C39 C 0.10338 0.26771 0.42383 0.0
C40 C 0.08814 0.29552 0.4564 0.0
C41 C 0.12497 0.26864 0.4393 0.0
C42 C 0.11001 0.29597 0.4713 0.0
N43 N 0.12781 0.28261 0.46252 0.0
C44 C 0.10162 0.29982 0.35665 0.0
C45 C 0.09262 0.25318 0.3513 0.0
C46 C 0.12302 0.30006 0.34288 0.0
N47 N 0.08695 0.27661 0.36057 0.0
C48 C 0.11414 0.25248 0.33787 0.0
C49 C 0.12986 0.27615 0.33368 0.0
H50 H 0.09677 0.31818 0.36433 0.0
H51 H 0.08063 0.23499 0.35476 0.0
C52 C 0.00727 0.21053 0.43847 0.0
N53 N 0.03004 0.22347 0.43255 0.0
C54 C 0.00555 0.18886 0.45261 0.0
C55 C 0.05067 0.19445 0.45461 0.0
C56 C 0.05151 0.21588 0.44041 0.0
C57 C 0.02745 0.18034 0.46052 0.0
H58 H 0.99041 0.21682 0.43193 0.0
H59 H 0.06935 0.22618 0.43537 0.0
O60 O 0.03911 0.30507 0.3774 0.0
O61 O 0.00592 0.27485 0.41662 0.0
O62 O 0.0317 0.24383 0.37509 0.0
O63 O 0.06353 0.28052 0.41759 0.0
H64 H 1.00078 0.32719 0.39127 0.0
H65 H 0.0621 0.33138 0.3422 0.0
H66 H 0.98985 0.36704 0.37454 0.0
H67 H 0.04991 0.37089 0.32601 0.0
H68 H 0.02131 0.27644 0.50156 0.0
H69 H 0.95974 0.27458 0.43025 0.0
H70 H 0.03543 0.2756 0.45781 0.0
H71 H 0.9468 0.2752 0.4745 0.0
H72 H 0.96375 0.3053 0.31243 0.0
H73 H 0.92066 0.26214 0.36683 0.0
H74 H 0.07814 0.39088 0.4564 0.0
H75 H 0.99814 0.36842 0.46158 0.0
H76 H 0.99159 0.20782 0.3802 0.0
H77 H 0.03585 0.24998 0.32658 0.0
H78 H 0.96271 0.18432 0.34457 0.0
H79 H 0.00619 0.22579 0.29189 0.0
H80 H 0.10104 0.25642 0.40547 0.0
H81 H 0.07409 0.3063 0.46336 0.0
H82 H 0.13946 0.25822 0.43285 0.0
H83 H 0.11284 0.30697 0.48983 0.0
H84 H 0.13404 0.31882 0.33947 0.0
H85 H 0.11865 0.23359 0.33125 0.0
H86 H 0.98727 0.17838 0.45662 0.0
H87 H 0.06802 0.18874 0.46061 0.0
Li88 Li 0.0043 0.79982 0.61078 0.0
Li89 Li 0.02432 0.77758 0.64198 0.0
Li90 Li 0.99663 0.75127 0.60858 0.0
Li91 Li 0.97939 0.77679 0.64502 0.0
C92 C 0.04392 0.78449 0.58771 0.0
N93 N 0.07584 0.80254 0.55149 0.0
C94 C 0.06795 0.79857 0.59496 0.0
C95 C 0.03616 0.77943 0.56207 0.0
C96 C 0.0838 0.80758 0.57636 0.0
C97 C 0.05257 0.78877 0.54404 0.0
C98 C 0.02132 0.82471 0.66709 0.0
C99 C 0.02789 0.84418 0.71038 0.0
N100 N 0.05016 0.85841 0.70474 0.0
C101 C 0.04423 0.83956 0.66168 0.0
C102 C 0.01302 0.82703 0.69159 0.0
C103 C 0.05856 0.85647 0.681 0.0
C104 C 0.98506 0.83555 0.58099 0.0
N105 N 0.0065 0.82981 0.59135 0.0
C106 C 0.03065 0.8677 0.57583 0.0
C107 C 0.02902 0.84551 0.5891 0.0
C108 C 0.00883 0.87441 0.5652 0.0
C109 C 0.98576 0.8579 0.56792 0.0
H110 H 0.96727 0.82311 0.5834 0.0
H111 H 0.04577 0.84116 0.59797 0.0
C112 C 0.06966 0.76061 0.64684 0.0
N113 N 0.05523 0.7752 0.66022 0.0
C114 C 0.09155 0.7551 0.65799 0.0
C115 C 0.08346 0.77946 0.6968 0.0
C116 C 0.06165 0.78455 0.68485 0.0
C117 C 0.09863 0.76441 0.68333 0.0
H118 H 0.06382 0.75267 0.62756 0.0
H119 H 0.0496 0.7953 0.69551 0.0
C120 C 0.95343 0.76251 0.58949 0.0
N121 N 0.91745 0.73651 0.55324 0.0
C122 C 0.93095 0.74836 0.59679 0.0
C123 C 0.95757 0.76362 0.56382 0.0
C124 C 0.91299 0.7353 0.57815 0.0
C125 C 0.93917 0.75028 0.54577 0.0
C126 C 0.00806 0.73386 0.66223 0.0
C127 C 0.01931 0.71267 0.65388 0.0
C128 C 0.00917 0.74244 0.68803 0.0
C129 C 0.03164 0.70042 0.67157 0.0
C130 C 0.02166 0.72965 0.70513 0.0
N131 N 0.03257 0.70911 0.69661 0.0
C132 C 0.0155 0.71354 0.57871 0.0
C133 C 0.97207 0.70017 0.58349 0.0
C134 C 0.0167 0.68927 0.56565 0.0
N135 N 0.99348 0.71858 0.58742 0.0
C136 C 0.97243 0.67549 0.57038 0.0
C137 C 0.99511 0.66968 0.56177 0.0
H138 H 0.03243 0.72807 0.58268 0.0
H139 H 0.95494 0.70421 0.59125 0.0
C140 C 0.93901 0.7979 0.66481 0.0
N141 N 0.95193 0.7779 0.66622 0.0
C142 C 0.91864 0.79946 0.67977 0.0
C143 C 0.92543 0.75996 0.69759 0.0
C144 C 0.94546 0.75898 0.68204 0.0
C145 C 0.91171 0.78044 0.69664 0.0
H146 H 0.9444 0.81251 0.65184 0.0
H147 H 0.95575 0.74302 0.68254 0.0
O148 O 0.02818 0.77537 0.6056 0.0
O149 O 0.00683 0.80833 0.64843 0.0
O150 O 0.97122 0.7754 0.60741 0.0
O151 O 0.99654 0.74657 0.64515 0.0
H152 H 0.07418 0.80281 0.61476 0.0
H153 H 0.01771 0.76832 0.55618 0.0
H154 H 0.1024 0.81863 0.58168 0.0
H155 H 0.04681 0.78502 0.52411 0.0
H156 H 0.02173 0.84616 0.72945 0.0
H157 H 0.05095 0.83788 0.64283 0.0
H158 H 0.99529 0.81567 0.69603 0.0
H159 H 0.07637 0.86804 0.67713 0.0
H160 H 0.04887 0.87975 0.57427 0.0
H161 H 0.96834 0.86263 0.56081 0.0
H162 H 0.10261 0.74325 0.64701 0.0
H163 H 0.08841 0.78725 0.71632 0.0
H164 H 0.92749 0.74738 0.61663 0.0
H165 H 0.97478 0.77472 0.55793 0.0
H166 H 0.89553 0.72419 0.58348 0.0
H167 H 0.94213 0.75092 0.52581 0.0
H168 H 0.01871 0.7059 0.63394 0.0
H169 H 1.00091 0.75913 0.69472 0.0
H170 H 0.04055 0.68407 0.66539 0.0
H171 H 0.02284 0.73619 0.72514 0.0
H172 H 0.0345 0.68569 0.55904 0.0
H173 H 0.95542 0.66078 0.56785 0.0
H174 H 0.90815 0.81509 0.67772 0.0
H175 H 0.92073 0.74483 0.71022 0.0
Li176 Li 0.51082 0.77282 0.88033 0.0
Li177 Li 0.53962 0.79875 0.91437 0.0
Li178 Li 0.55686 0.77164 0.87967 0.0
Li179 Li 0.53401 0.75102 0.91343 0.0
C180 C 0.54178 0.81596 0.85705 0.0
N181 N 0.54752 0.84427 0.81548 0.0
C182 C 0.55222 0.84281 0.86017 0.0
C183 C 0.53462 0.80347 0.83277 0.0
C184 C 0.55485 0.8568 0.83893 0.0
C185 C 0.53759 0.81811 0.812 0.0
C186 C 0.49688 0.78719 0.93581 0.0
C187 C 0.49183 0.80113 0.97955 0.0
N188 N 0.47609 0.81697 0.9721 0.0
C189 C 0.48048 0.80341 0.92859 0.0
C190 C 0.50248 0.78587 0.96149 0.0
C191 C 0.47023 0.81839 0.94721 0.0
C192 C 0.46175 0.75356 0.85591 0.0
N193 N 0.48029 0.7749 0.86179 0.0
C194 C 0.45455 0.80323 0.84559 0.0
C195 C 0.47711 0.79938 0.85673 0.0
C196 C 0.43485 0.78175 0.83989 0.0
C197 C 0.43876 0.75655 0.84478 0.0
H198 H 0.46461 0.73435 0.86037 0.0
H199 H 0.49176 0.81619 0.8623 0.0
C200 C 0.55264 0.83834 0.95776 0.0
N201 N 0.54214 0.83218 0.9338 0.0
C202 C 0.55078 0.86233 0.97133 0.0
C203 C 0.52856 0.87358 0.93484 0.0
C204 C 0.5303 0.84926 0.92229 0.0
C205 C 0.53818 0.88012 0.95998 0.0
H206 H 0.56174 0.82437 0.96665 0.0
H207 H 0.52152 0.84363 0.9035 0.0
C208 C 0.52828 0.72343 0.85556 0.0
N209 N 0.52873 0.68641 0.81471 0.0
C210 C 0.54025 0.70203 0.85802 0.0
C211 C 0.51592 0.72556 0.83248 0.0
C212 C 0.54048 0.68367 0.83711 0.0
C213 C 0.51651 0.70677 0.81201 0.0
C214 C 0.58061 0.76877 0.93463 0.0
C215 C 0.60186 0.75868 0.92786 0.0
C216 C 0.57408 0.76985 0.9598 0.0
C217 C 0.616 0.74939 0.94637 0.0
C218 C 0.58868 0.76035 0.97776 0.0
N219 N 0.60915 0.75038 0.97072 0.0
C220 C 0.59507 0.79144 0.8471 0.0
C221 C 0.59518 0.74779 0.8565 0.0
C222 C 0.61614 0.79122 0.83303 0.0
N223 N 0.58486 0.76991 0.85846 0.0
C224 C 0.6166 0.74685 0.8429 0.0
C225 C 0.6276 0.76898 0.83129 0.0
H226 H 0.58745 0.80921 0.84945 0.0
H227 H 0.58747 0.73122 0.8664 0.0
C228 C 0.5135 0.71524 0.94913 0.0
N229 N 0.53226 0.72133 0.93325 0.0
C230 C 0.51226 0.69309 0.96261 0.0
C231 C 0.54959 0.68393 0.94321 0.0
C232 C 0.55027 0.70632 0.93037 0.0
C233 C 0.53024 0.67692 0.95934 0.0
H234 H 0.4992 0.72722 0.95095 0.0
H235 H 0.56506 0.71153 0.91778 0.0
O236 O 0.53885 0.80198 0.87766 0.0
O237 O 0.50778 0.77309 0.91783 0.0
O238 O 0.52758 0.74143 0.87596 0.0
O239 O 0.56633 0.77757 0.91669 0.0
H240 H 0.55849 0.85273 0.87873 0.0
H241 H 0.52689 0.78272 0.82999 0.0
H242 H 0.56281 0.87761 0.84108 0.0
H243 H 0.53203 0.80867 0.79311 0.0
H244 H 0.49611 0.8004 0.9995 0.0
H245 H 0.47595 0.80472 0.90885 0.0
H246 H 0.51496 0.7733 0.96746 0.0
H247 H 0.45767 0.8312 0.94187 0.0
H248 H 0.45219 0.82299 0.84238 0.0
H249 H 0.42409 0.73942 0.84033 0.0
H250 H 0.55842 0.86656 0.99072 0.0
H251 H 0.51938 0.88693 0.92501 0.0
H252 H 0.54941 0.69965 0.87583 0.0
H253 H 0.50562 0.74127 0.83042 0.0
H254 H 0.54994 0.66718 0.83873 0.0
H255 H 0.5071 0.70827 0.79402 0.0
H256 H 0.60737 0.758 0.90855 0.0
H257 H 0.55778 0.77765 0.96536 0.0
H258 H 0.63241 0.7414 0.94136 0.0
H259 H 0.58372 0.76088 0.99728 0.0
H260 H 0.62369 0.80857 0.82401 0.0
H261 H 0.62499 0.72939 0.84227 0.0
H262 H 0.4969 0.68807 0.97469 0.0
H263 H 0.56379 0.67191 0.94023 0.0
Li264 Li 0.50529 0.29751 0.1103 0.0
Li265 Li 0.52616 0.27701 0.14247 0.0
Li266 Li 0.49917 0.24866 0.10996 0.0
Li267 Li 0.48092 0.27505 0.14531 0.0
C268 C 0.54805 0.28142 0.09008 0.0
N269 N 0.58509 0.29662 0.05761 0.0
C270 C 0.57095 0.29675 0.09957 0.0
C271 C 0.54398 0.27383 0.0641 0.0
C272 C 0.58945 0.30422 0.08283 0.0
C273 C 0.56295 0.28172 0.04799 0.0
C274 C 0.52289 0.32691 0.16284 0.0
C275 C 0.5332 0.35297 0.20311 0.0
N276 N 0.55343 0.3671 0.19324 0.0
C277 C 0.54367 0.34176 0.15303 0.0
C278 C 0.51749 0.33258 0.18802 0.0
C279 C 0.55893 0.36197 0.16874 0.0
C280 C 0.48454 0.33665 0.08831 0.0
N281 N 0.506 0.32669 0.08999 0.0
C282 C 0.52653 0.35937 0.06496 0.0
C283 C 0.52681 0.33768 0.07864 0.0
C284 C 0.50478 0.37025 0.06331 0.0
C285 C 0.48357 0.35863 0.07517 0.0
H286 H 0.4683 0.32779 0.09765 0.0
H287 H 0.54393 0.33024 0.08062 0.0
C288 C 0.57062 0.25906 0.14886 0.0
N289 N 0.55754 0.27634 0.1605 0.0
C290 C 0.593 0.25482 0.16004 0.0
C291 C 0.58834 0.28631 0.19515 0.0
C292 C 0.56592 0.28991 0.18329 0.0
C293 C 0.60205 0.26835 0.18359 0.0
H294 H 0.56334 0.24814 0.13097 0.0
H295 H 0.55508 0.30307 0.19258 0.0
C296 C 0.45791 0.26092 0.08661 0.0
N297 N 0.42781 0.23866 0.04425 0.0
C298 C 0.43409 0.24637 0.08927 0.0
C299 C 0.46642 0.26429 0.06248 0.0
C300 C 0.41915 0.23524 0.0676 0.0
C301 C 0.45092 0.25284 0.04128 0.0
C302 C 0.51101 0.23492 0.1653 0.0
C303 C 0.52175 0.2128 0.15913 0.0
C304 C 0.51305 0.24656 0.19027 0.0
C305 C 0.53454 0.20271 0.17815 0.0
C306 C 0.52599 0.23588 0.20873 0.0
N307 N 0.53639 0.21438 0.20234 0.0
C308 C 0.51926 0.21061 0.08159 0.0
C309 C 0.47557 0.1974 0.08487 0.0
C310 C 0.5206 0.18673 0.06781 0.0
N311 N 0.49699 0.21567 0.0896 0.0
C312 C 0.47611 0.173 0.07132 0.0
C313 C 0.49891 0.16748 0.06268 0.0
H314 H 0.5362 0.22494 0.08639 0.0
H315 H 0.45819 0.20153 0.09198 0.0
C316 C 0.43844 0.29436 0.1631 0.0
N317 N 0.45294 0.27593 0.16614 0.0
C318 C 0.41748 0.29516 0.17744 0.0
C319 C 0.42706 0.2584 0.19821 0.0
C320 C 0.44766 0.25813 0.18329 0.0
C321 C 0.41136 0.27682 0.19513 0.0
H322 H 0.443 0.30827 0.14928 0.0
H323 H 0.45933 0.24355 0.18532 0.0
O324 O 0.52975 0.27371 0.10612 0.0
O325 O 0.50768 0.3071 0.14782 0.0
O326 O 0.47291 0.2717 0.10755 0.0
O327 O 0.49913 0.24557 0.14684 0.0
H328 H 0.57433 0.30309 0.11957 0.0
H329 H 0.52637 0.26194 0.05648 0.0
H330 H 0.60723 0.31615 0.08987 0.0
H331 H 0.56007 0.27599 0.02784 0.0
H332 H 0.52933 0.35754 0.22266 0.0
H333 H 0.54797 0.33769 0.13353 0.0
H334 H 0.50141 0.32124 0.19582 0.0
H335 H 0.57513 0.37359 0.16146 0.0
H336 H 0.54346 0.36821 0.05662 0.0
H337 H 0.46652 0.3667 0.07452 0.0
H338 H 0.60287 0.24067 0.15058 0.0
H339 H 0.59487 0.29746 0.21317 0.0
H340 H 0.4273 0.24361 0.10789 0.0
H341 H 0.4848 0.27559 0.06018 0.0
H342 H 0.40068 0.22384 0.06933 0.0
H343 H 0.45726 0.25522 0.02246 0.0
H344 H 0.52043 0.2037 0.13983 0.0
H345 H 0.50513 0.26395 0.19521 0.0
H346 H 0.54308 0.18567 0.17367 0.0
H347 H 0.52789 0.24479 0.22811 0.0
H348 H 0.53857 0.18306 0.06178 0.0
H349 H 0.45896 0.15862 0.06763 0.0
H350 H 0.40588 0.30963 0.17432 0.0
H351 H 0.4235 0.2443 0.21202 0.0
Li352 Li 0.03219 0.81235 0.12771 0.0
Li353 Li 0.05695 0.79573 0.16051 0.0
Li354 Li 0.02971 0.76493 0.12681 0.0
Li355 Li 0.01052 0.78819 0.16175 0.0
C356 C 0.07383 0.80437 0.10573 0.0
N357 N 0.10194 0.82961 0.07008 0.0
C358 C 0.09574 0.82246 0.11331 0.0
C359 C 0.06631 0.79891 0.08006 0.0
C360 C 0.10968 0.83507 0.09498 0.0
C361 C 0.08074 0.81194 0.06232 0.0
C362 C 0.04403 0.83928 0.18588 0.0
C363 C 0.04916 0.84919 0.23121 0.0
N364 N 0.06295 0.87318 0.22816 0.0
C365 C 0.05804 0.86411 0.18316 0.0
C366 C 0.03936 0.83181 0.21006 0.0
C367 C 0.06752 0.88094 0.20479 0.0
C368 C 0.00766 0.83977 0.09424 0.0
N369 N 0.02984 0.84057 0.10738 0.0
C370 C 0.04657 0.88196 0.09266 0.0
C371 C 0.0491 0.86123 0.10701 0.0
C372 C 0.02395 0.88146 0.07867 0.0
C373 C 0.0043 0.86007 0.07969 0.0
H374 H 0.99239 0.8235 0.09527 0.0
H375 H 0.06632 0.86184 0.11813 0.0
C376 C 0.09405 0.77481 0.18434 0.0
N377 N 0.0881 0.79843 0.17996 0.0
C378 C 0.11631 0.77358 0.1978 0.0
C379 C 0.12665 0.82108 0.20139 0.0
C380 C 0.104 0.82139 0.18793 0.0
C381 C 0.13293 0.7969 0.20666 0.0
H382 H 0.08147 0.75678 0.17725 0.0
H383 H 0.09942 0.83992 0.18351 0.0
C384 C 0.98407 0.76909 0.10788 0.0
N385 N 0.94902 0.73765 0.07376 0.0
C386 C 0.96208 0.7551 0.11636 0.0
C387 C 0.98814 0.76728 0.08203 0.0
C388 C 0.9446 0.73926 0.09881 0.0
C389 C 0.97022 0.75122 0.06508 0.0
C390 C 0.02735 0.74634 0.18224 0.0
C391 C 0.0139 0.72077 0.17615 0.0
C392 C 0.03522 0.75521 0.2074 0.0
C393 C 0.00815 0.70459 0.19548 0.0
C394 C 0.02912 0.73843 0.22618 0.0
N395 N 0.01581 0.71368 0.21988 0.0
C396 C 0.05125 0.72868 0.09664 0.0
C397 C 0.00858 0.71303 0.1034 0.0
C398 C 0.05306 0.70474 0.08309 0.0
N399 N 0.02926 0.73238 0.10647 0.0
C400 C 0.00951 0.68886 0.08986 0.0
C401 C 0.03202 0.68442 0.0797 0.0
H402 H 0.06755 0.74421 0.09969 0.0
H403 H 0.99152 0.71604 0.11197 0.0
C404 C 0.97559 0.81105 0.18917 0.0
N405 N 0.9825 0.78748 0.18271 0.0
C406 C 0.95427 0.81234 0.20271 0.0
C407 C 0.94743 0.76504 0.20281 0.0
C408 C 0.96892 0.76467 0.18928 0.0
C409 C 0.93979 0.78911 0.20961 0.0
H410 H 0.98641 0.82886 0.18334 0.0
H411 H 0.97416 0.74607 0.18323 0.0
O412 O 0.05989 0.79189 0.12334 0.0
O413 O 0.03469 0.82251 0.16494 0.0
O414 O 1.00139 0.78473 0.12476 0.0
O415 O 0.03328 0.76238 0.16356 0.0
H416 H 0.10181 0.82685 0.13313 0.0
H417 H 0.04955 0.78472 0.07391 0.0
H418 H 0.12663 0.84922 0.10055 0.0
H419 H 0.07511 0.80798 0.04237 0.0
H420 H 0.04575 0.84363 0.25005 0.0
H421 H 0.06172 0.87024 0.16456 0.0
H422 H 0.02816 0.81287 0.21247 0.0
H423 H 0.07854 0.90016 0.20299 0.0
H424 H 0.06197 0.89845 0.09293 0.0
H425 H 0.98653 0.85903 0.06929 0.0
H426 H 0.12038 0.75452 0.20138 0.0
H427 H 0.13926 0.8395 0.20722 0.0
H428 H 0.95855 0.75638 0.13625 0.0
H429 H 0.00495 0.77817 0.07514 0.0
H430 H 0.92754 0.72825 0.10511 0.0
H431 H 0.97317 0.74956 0.04504 0.0
H432 H 0.0078 0.71356 0.15677 0.0
H433 H 0.04612 0.77473 0.21235 0.0
H434 H 0.99761 0.6848 0.19107 0.0
H435 H 0.03507 0.74504 0.24575 0.0
H436 H 0.07068 0.70216 0.07534 0.0
H437 H 0.99294 0.67355 0.08787 0.0
H438 H 0.949 0.83129 0.20749 0.0
H439 H 0.93641 0.74659 0.20706 0.0
Li440 Li 0.50041 0.78522 0.39948 0.0
Li441 Li 0.47388 0.75561 0.36508 0.0
Li442 Li 0.49829 0.73828 0.39881 0.0
Li443 Li 0.52029 0.76119 0.36531 0.0
C444 C 0.45551 0.74376 0.41788 0.0
N445 N 0.42644 0.713 0.4492 0.0
C446 C 0.43438 0.72573 0.40781 0.0
C447 C 0.46184 0.74623 0.44384 0.0
C448 C 0.41991 0.71035 0.42398 0.0
C449 C 0.44692 0.73046 0.45936 0.0
C450 C 0.49439 0.80237 0.34364 0.0
C451 C 0.4876 0.80623 0.29919 0.0
N452 N 0.48308 0.831 0.30493 0.0
C453 C 0.48976 0.82786 0.34914 0.0
C454 C 0.49335 0.79143 0.31851 0.0
C455 C 0.48403 0.84202 0.32929 0.0
C456 C 0.52013 0.83881 0.41769 0.0
N457 N 0.50121 0.81812 0.41939 0.0
C458 C 0.48036 0.8448 0.44741 0.0
C459 C 0.48151 0.82067 0.43383 0.0
C460 C 0.4997 0.86644 0.44612 0.0
C461 C 0.51989 0.8632 0.4312 0.0
H462 H 0.53522 0.83651 0.40553 0.0
H463 H 0.46648 0.80405 0.43452 0.0
C464 C 0.43066 0.73141 0.33081 0.0
N465 N 0.44331 0.75351 0.34478 0.0
C466 C 0.40825 0.73211 0.31698 0.0
C467 C 0.413 0.77834 0.33142 0.0
C468 C 0.43466 0.77654 0.34554 0.0
C469 C 0.399 0.75583 0.31733 0.0
H470 H 0.43777 0.71321 0.33065 0.0
H471 H 0.44468 0.79368 0.35718 0.0
C472 C 0.5456 0.78337 0.41805 0.0
N473 N 0.57895 0.81991 0.44967 0.0
C474 C 0.5669 0.79754 0.40846 0.0
C475 C 0.54131 0.78768 0.44372 0.0
C476 C 0.58354 0.81595 0.42477 0.0
C477 C 0.55837 0.80628 0.45939 0.0
C478 C 0.50095 0.71016 0.34376 0.0
C479 C 0.5137 0.69073 0.35111 0.0
C480 C 0.4948 0.71117 0.31815 0.0
C481 C 0.52056 0.67287 0.33258 0.0
C482 C 0.50199 0.69297 0.30018 0.0
N483 N 0.51463 0.67436 0.30771 0.0
C484 C 0.48237 0.68758 0.41672 0.0
C485 C 0.52001 0.71296 0.43631 0.0
C486 C 0.48456 0.66701 0.43145 0.0
N487 N 0.49991 0.71007 0.4195 0.0
C488 C 0.52298 0.6929 0.45134 0.0
C489 C 0.50508 0.66957 0.44909 0.0
H490 H 0.46685 0.68548 0.40283 0.0
H491 H 0.53398 0.73075 0.43787 0.0
C492 C 0.55568 0.78381 0.33157 0.0
N493 N 0.54885 0.76282 0.34495 0.0
C494 C 0.57747 0.78617 0.31823 0.0
C495 C 0.58499 0.74534 0.3327 0.0
C496 C 0.56306 0.7438 0.34579 0.0
C497 C 0.59263 0.76696 0.31899 0.0
H498 H 0.54463 0.79916 0.33177 0.0
H499 H 0.55778 0.7278 0.35727 0.0
O500 O 0.47002 0.75884 0.40239 0.0
O501 O 0.49965 0.78813 0.36287 0.0
O502 O 0.529 0.76536 0.4024 0.0
O503 O 0.494 0.72768 0.36164 0.0
H504 H 0.42929 0.72355 0.38773 0.0
H505 H 0.47819 0.76009 0.45186 0.0
H506 H 0.40351 0.69626 0.41648 0.0
H507 H 0.45164 0.73209 0.47949 0.0
H508 H 0.48673 0.79803 0.27963 0.0
H509 H 0.49038 0.83653 0.36854 0.0
H510 H 0.49706 0.77179 0.314 0.0
H511 H 0.48032 0.86175 0.33324 0.0
H512 H 0.46459 0.8465 0.45889 0.0
H513 H 0.53505 0.87952 0.42959 0.0
H514 H 0.39812 0.71423 0.30643 0.0
H515 H 0.40741 0.79735 0.33158 0.0
H516 H 0.57051 0.79446 0.38865 0.0
H517 H 0.52487 0.77692 0.45141 0.0
H518 H 0.60007 0.82711 0.41761 0.0
H519 H 0.55523 0.80991 0.47927 0.0
H520 H 0.51841 0.68959 0.37092 0.0
H521 H 0.48447 0.72575 0.31221 0.0
H522 H 0.53058 0.65781 0.33796 0.0
H523 H 0.49745 0.69356 0.28027 0.0
H524 H 0.47065 0.64907 0.42866 0.0
H525 H 0.53911 0.69564 0.46462 0.0
H526 H 0.58259 0.80304 0.30772 0.0
H527 H 0.59633 0.73029 0.33402 0.0
Li528 Li 0.53429 0.31408 0.62708 0.0
Li529 Li 0.5576 0.29501 0.66146 0.0
Li530 Li 0.53261 0.26673 0.62734 0.0
Li531 Li 0.51207 0.28797 0.66026 0.0
C532 C 0.57569 0.28225 0.6078 0.0
N533 N 0.60105 0.2547 0.57387 0.0
C534 C 0.5934 0.26824 0.61659 0.0
C535 C 0.57085 0.28227 0.58179 0.0
C536 C 0.60602 0.25441 0.59913 0.0
C537 C 0.58389 0.26823 0.56493 0.0
C538 C 0.54989 0.3418 0.68136 0.0
C539 C 0.56726 0.35845 0.72343 0.0
N540 N 0.57918 0.38069 0.71427 0.0
C541 C 0.56227 0.36482 0.67234 0.0
C542 C 0.55232 0.33858 0.7071 0.0
C543 C 0.57699 0.38426 0.68931 0.0
C544 C 0.51342 0.356 0.61189 0.0
N545 N 0.53249 0.34277 0.60744 0.0
C546 C 0.5454 0.36889 0.57389 0.0
C547 C 0.5486 0.34901 0.5891 0.0
C548 C 0.5256 0.38268 0.57777 0.0
C549 C 0.50974 0.37625 0.59739 0.0
H550 H 0.50096 0.35069 0.6267 0.0
H551 H 0.56382 0.33844 0.58612 0.0
C552 C 0.59136 0.27523 0.69198 0.0
N553 N 0.58803 0.29787 0.6824 0.0
C554 C 0.61329 0.2742 0.70613 0.0
C555 C 0.62827 0.31991 0.70059 0.0
C556 C 0.60608 0.31997 0.6862 0.0
C557 C 0.63208 0.29673 0.71065 0.0
H558 H 0.57715 0.25769 0.68817 0.0
H559 H 0.60351 0.33751 0.67774 0.0
C560 C 0.49004 0.27234 0.60246 0.0
N561 N 0.46131 0.24576 0.56071 0.0
C562 C 0.47598 0.24722 0.60388 0.0
C563 C 0.48946 0.28395 0.57979 0.0
C564 C 0.46159 0.23409 0.58257 0.0
C565 C 0.47483 0.27019 0.5589 0.0
C566 C 0.52156 0.247 0.68035 0.0
C567 C 0.50474 0.22385 0.67186 0.0
C568 C 0.52514 0.25516 0.70624 0.0
C569 C 0.49163 0.20929 0.6895 0.0
C570 C 0.51167 0.24007 0.72327 0.0
N571 N 0.49532 0.21765 0.71462 0.0
C572 C 0.54197 0.2154 0.61844 0.0
C573 C 0.52687 0.23058 0.58118 0.0
C574 C 0.54363 0.19129 0.60522 0.0
N575 N 0.53328 0.23432 0.60646 0.0
C576 C 0.52823 0.20673 0.56721 0.0
C577 C 0.53662 0.18667 0.57927 0.0
H578 H 0.54762 0.21902 0.63837 0.0
H579 H 0.52094 0.24615 0.57173 0.0
C580 C 0.48215 0.3058 0.69882 0.0
N581 N 0.48321 0.28609 0.68033 0.0
C582 C 0.46096 0.30518 0.71302 0.0
C583 C 0.44226 0.26414 0.68879 0.0
C584 C 0.46374 0.26558 0.67508 0.0
C585 C 0.44071 0.28404 0.70815 0.0
H586 H 0.49764 0.32217 0.70239 0.0
H587 H 0.46472 0.25036 0.6601 0.0
O588 O 0.5628 0.29543 0.62461 0.0
O589 O 0.5354 0.32254 0.66508 0.0
O590 O 0.50403 0.28571 0.62317 0.0
O591 O 0.53431 0.26176 0.6634 0.0
H592 H 0.59723 0.26788 0.63667 0.0
H593 H 0.55675 0.29249 0.57468 0.0
H594 H 0.61972 0.24339 0.60565 0.0
H595 H 0.58023 0.26793 0.54474 0.0
H596 H 0.5694 0.35618 0.74339 0.0
H597 H 0.5606 0.3676 0.65246 0.0
H598 H 0.54289 0.32087 0.71436 0.0
H599 H 0.58672 0.40217 0.68261 0.0
H600 H 0.55817 0.37326 0.55909 0.0
H601 H 0.49479 0.38693 0.60172 0.0
H602 H 0.61556 0.25592 0.71346 0.0
H603 H 0.64256 0.33755 0.70326 0.0
H604 H 0.47656 0.23768 0.62104 0.0
H605 H 0.50023 0.30335 0.5783 0.0
H606 H 0.45074 0.21458 0.58337 0.0
H607 H 0.47424 0.27893 0.54124 0.0
H608 H 0.5016 0.21734 0.65187 0.0
H609 H 0.53813 0.27301 0.71308 0.0
H610 H 0.47845 0.19141 0.6832 0.0
H611 H 0.51419 0.24619 0.74337 0.0
H612 H 0.54981 0.17622 0.61537 0.0
H613 H 0.52285 0.20402 0.54715 0.0
H614 H 0.46042 0.32101 0.72769 0.0
H615 H 0.42682 0.24786 0.68391 0.0
Li616 Li 1.00178 0.28591 0.89875 0.0
Li617 Li 0.97564 0.25594 0.86422 0.0
Li618 Li 1.00027 0.23805 0.89758 0.0
Li619 Li 0.0219 0.25942 0.86446 0.0
C620 C 0.95547 0.25998 0.91894 0.0
N621 N 0.92084 0.26547 0.95472 0.0
C622 C 0.9299 0.25478 0.91181 0.0
C623 C 0.96344 0.26809 0.94421 0.0
C624 C 0.91268 0.25764 0.93019 0.0
C625 C 0.94565 0.2707 0.96203 0.0
C626 C 0.99979 0.30453 0.84372 0.0
C627 C 1.00208 0.31535 0.80064 0.0
N628 N 0.99564 0.33899 0.80785 0.0
C629 C 0.99355 0.32908 0.85076 0.0
C630 C 0.00438 0.29771 0.81851 0.0
C631 C 0.99139 0.34616 0.83233 0.0
C632 C 0.02284 0.334 0.92948 0.0
N633 N 1.00154 0.31851 0.91857 0.0
C634 C 0.97692 0.34957 0.9346 0.0
C635 C 0.97889 0.32589 0.92077 0.0
C636 C 0.99858 0.36629 0.94574 0.0
C637 C 0.02178 0.35814 0.94318 0.0
H638 H 0.04065 0.32776 0.92728 0.0
H639 H 0.96228 0.31344 0.91155 0.0
C640 C 0.92976 0.23181 0.83455 0.0
N641 N 0.94451 0.25445 0.84538 0.0
C642 C 0.90677 0.23263 0.82197 0.0
C643 C 0.91495 0.27991 0.83163 0.0
C644 C 0.93734 0.27812 0.84442 0.0
C645 C 0.89901 0.25695 0.82057 0.0
H646 H 0.93566 0.21313 0.83593 0.0
H647 H 0.9489 0.29568 0.85389 0.0
C648 C 0.04428 0.2601 0.92102 0.0
N649 N 0.07154 0.24509 0.96027 0.0
C650 C 0.06226 0.24447 0.91589 0.0
C651 C 0.04043 0.26847 0.94606 0.0
C652 C 0.07577 0.23698 0.936 0.0
C653 C 0.05433 0.26058 0.96566 0.0
C654 C 0.99529 0.21295 0.8373 0.0
C655 C 1.00247 0.18832 0.83533 0.0
C656 C 0.98781 0.22319 0.81545 0.0
C657 C 1.00261 0.17462 0.81145 0.0
C658 C 0.98813 0.20887 0.79191 0.0
N659 N 0.99552 0.1851 0.7904 0.0
C660 C 0.98968 0.20709 0.93947 0.0
C661 C 0.017 0.1926 0.90989 0.0
C662 C 0.99205 0.18641 0.95391 0.0
N663 N 1.00198 0.20971 0.91783 0.0
C664 C 0.01983 0.17159 0.92367 0.0
C665 C 0.00703 0.16812 0.94585 0.0
H666 H 0.97807 0.22099 0.94561 0.0
H667 H 0.02697 0.19545 0.8929 0.0
C668 C 0.06177 0.28033 0.83408 0.0
N669 N 0.05012 0.25866 0.84434 0.0
C670 C 0.08287 0.27915 0.8201 0.0
C671 C 0.07978 0.23354 0.82784 0.0
C672 C 0.05879 0.23561 0.84162 0.0
C673 C 0.09211 0.25549 0.81686 0.0
H674 H 0.05498 0.29866 0.83713 0.0
H675 H 0.04967 0.21891 0.8506 0.0
O676 O 0.97255 0.25777 0.90106 0.0
O677 O 1.00194 0.2876 0.86159 0.0
O678 O 0.03056 0.26723 0.9016 0.0
O679 O 0.99534 0.22676 0.86054 0.0
H680 H 0.92341 0.24858 0.8923 0.0
H681 H 0.98315 0.27236 0.94998 0.0
H682 H 0.89282 0.25366 0.92496 0.0
H683 H 0.95156 0.27693 0.98167 0.0
H684 H 0.00553 0.3103 0.78106 0.0
H685 H 0.99021 0.33483 0.87022 0.0
H686 H 0.01004 0.27921 0.81281 0.0
H687 H 0.98637 0.36514 0.83749 0.0
H688 H 0.95858 0.35466 0.93654 0.0
H689 H 0.03899 0.37049 0.95131 0.0
H690 H 0.89503 0.21442 0.81378 0.0
H691 H 0.91025 0.2992 0.83045 0.0
H692 H 0.06555 0.23798 0.89659 0.0
H693 H 0.02691 0.28096 0.95031 0.0
H694 H 0.0896 0.22469 0.93232 0.0
H695 H 0.05147 0.2668 0.98515 0.0
H696 H 0.00799 0.17988 0.85204 0.0
H697 H 0.9816 0.24186 0.81665 0.0
H698 H 0.00832 0.15563 0.80965 0.0
H699 H 0.98244 0.21663 0.77485 0.0
H700 H 0.98228 0.18475 0.97121 0.0
H701 H 0.03155 0.15793 0.9168 0.0
H702 H 0.09228 0.29675 0.81258 0.0
H703 H 0.08643 0.21502 0.82597 0.0
Li704 Li 0.41891 0.05481 0.30881 0.0
Li705 Li 0.38553 0.0227 0.28409 0.0
Li706 Li 0.41842 0.05005 0.26264 0.0
Li707 Li 0.38547 0.06787 0.28243 0.0
C708 C 0.43688 0.00579 0.28076 0.0
N709 N 0.46743 0.96952 0.26953 0.0
C710 C 0.42673 0.9808 0.26867 0.0
C711 C 0.46255 0.01216 0.2874 0.0
C712 C 0.44249 0.9628 0.26306 0.0
C713 C 0.47768 0.9936 0.2815 0.0
C714 C 0.36651 0.03355 0.32747 0.0
C715 C 0.32638 0.00701 0.33347 0.0
N716 N 0.33542 1.00148 0.35619 0.0
C717 C 0.37533 0.02777 0.35096 0.0
C718 C 0.34176 0.02328 0.31873 0.0
C719 C 0.35935 0.01146 0.36517 0.0
C720 C 0.44927 0.08183 0.35253 0.0
N721 N 0.43946 0.05869 0.33855 0.0
C722 C 0.45807 0.03422 0.3672 0.0
C723 C 0.44355 0.03522 0.34543 0.0
C724 C 0.46814 0.05759 0.38237 0.0
C725 C 0.46382 0.08173 0.37484 0.0
H726 H 0.44552 0.10019 0.34656 0.0
H727 H 0.43508 0.01715 0.33419 0.0
C728 C 0.34782 0.98097 0.26453 0.0
N729 N 0.36608 0.98869 0.28328 0.0
C730 C 0.33326 0.95589 0.26285 0.0
C731 C 0.35677 0.94702 0.29971 0.0
C732 C 0.37071 0.97249 0.30087 0.0
C733 C 0.33806 0.93841 0.28024 0.0
H734 H 0.34476 0.99416 0.25068 0.0
H735 H 0.3855 0.97926 0.31549 0.0
C736 C 0.44415 0.10025 0.2846 0.0
N737 N 0.48913 0.1343 0.28216 0.0
C738 C 0.44445 0.12546 0.27721 0.0
C739 C 0.46669 0.09245 0.29092 0.0
C740 C 0.46738 0.14236 0.27602 0.0
C741 C 0.48925 0.10991 0.28956 0.0
C742 C 0.36748 0.04932 0.23624 0.0
C743 C 0.3782 0.06276 0.21662 0.0
C744 C 0.34158 0.04585 0.23851 0.0
C745 C 0.36285 0.07268 0.19968 0.0
C746 C 0.32687 0.05612 0.22123 0.0
N747 N 0.33773 0.06922 0.20234 0.0
C748 C 0.43581 0.0239 0.2225 0.0
C749 C 0.45205 0.06969 0.22518 0.0
C750 C 0.4482 0.01946 0.2007 0.0
N751 N 0.43819 0.04854 0.23447 0.0
C752 C 0.46404 0.06629 0.20268 0.0
C753 C 0.46175 0.04091 0.18999 0.0
H754 H 0.42356 0.00774 0.22942 0.0
H755 H 0.45299 0.08925 0.23451 0.0
C756 C 0.34182 0.08767 0.29097 0.0
N757 N 0.36369 0.09173 0.27924 0.0
C758 C 0.3231 0.10162 0.28525 0.0
C759 C 0.35055 0.125 0.25681 0.0
C760 C 0.36857 0.1102 0.26274 0.0
C761 C 0.32722 0.12023 0.26765 0.0
H762 H 0.33854 0.07295 0.30407 0.0
H763 H 0.38605 0.11267 0.25346 0.0
O764 O 0.42163 0.02356 0.28675 0.0
O765 O 0.38199 0.04933 0.31323 0.0
O766 O 0.42182 0.08342 0.28554 0.0
O767 O 0.3823 0.03993 0.2533 0.0
H768 H 0.40699 0.97549 0.26317 0.0
H769 H 0.47076 0.03105 0.29727 0.0
H770 H 0.43489 0.9435 0.25352 0.0
H771 H 0.49757 0.99832 0.28654 0.0
H772 H 0.30729 0.99868 0.32679 0.0
H773 H 0.39425 0.03588 0.35824 0.0
H774 H 0.33467 0.02725 0.30045 0.0
H775 H 0.36596 0.00677 0.38336 0.0
H776 H 0.46111 0.01524 0.3723 0.0
H777 H 0.47101 0.1001 0.38634 0.0
H778 H 0.31865 0.95008 0.24787 0.0
H779 H 0.36102 0.93399 0.31339 0.0
H780 H 0.42717 0.1319 0.27236 0.0
H781 H 0.46675 0.07315 0.2968 0.0
H782 H 0.46789 0.16188 0.27023 0.0
H783 H 0.50684 0.10408 0.29437 0.0
H784 H 0.39817 0.06574 0.21458 0.0
H785 H 0.33296 0.03588 0.2538 0.0
H786 H 0.37093 0.08323 0.18449 0.0
H787 H 0.30686 0.05384 0.22294 0.0
H788 H 0.44651 0.99947 0.19193 0.0
H789 H 0.47417 0.08336 0.19486 0.0
H790 H 0.30542 0.09752 0.29413 0.0
H791 H 0.35479 0.13985 0.24382 0.0
Li792 Li 0.26975 0.17509 0.51986 0.0
Li793 Li 0.28812 0.14123 0.49585 0.0
Li794 Li 0.27046 0.17593 0.47263 0.0
Li795 Li 0.24153 0.13955 0.49346 0.0
C796 C 0.3176 0.20135 0.50674 0.0
N797 N 0.35433 0.24413 0.52401 0.0
C798 C 0.33932 0.19766 0.51988 0.0
C799 C 0.3148 0.22673 0.50198 0.0
C800 C 0.35761 0.21956 0.52856 0.0
C801 C 0.33351 0.24812 0.51099 0.0
C802 C 0.27401 0.12937 0.54427 0.0
C803 C 0.27213 0.10069 0.57756 0.0
N804 N 0.29466 0.1143 0.58762 0.0
C805 C 0.29717 0.14298 0.55484 0.0
C806 C 0.26139 0.10799 0.55561 0.0
C807 C 0.30729 0.13511 0.5768 0.0
C808 C 0.2476 0.19087 0.56491 0.0
N809 N 0.26982 0.19463 0.55359 0.0
C810 C 0.28979 0.22 0.5915 0.0
C811 C 0.29078 0.20892 0.5665 0.0
C812 C 0.26689 0.21706 0.60344 0.0
C813 C 0.24561 0.20225 0.58954 0.0
H814 H 0.23133 0.17856 0.55493 0.0
H815 H 0.30853 0.21102 0.55787 0.0
C816 C 0.33721 0.13046 0.48728 0.0
N817 N 0.31473 0.12049 0.49623 0.0
C818 C 0.3573 0.11692 0.48862 0.0
C819 C 0.33069 0.08263 0.50765 0.0
C820 C 0.31118 0.09691 0.50615 0.0
C821 C 0.35433 0.09275 0.49919 0.0
H822 H 0.3397 0.1492 0.47946 0.0
H823 H 0.29325 0.08919 0.51315 0.0
C824 C 0.22856 0.19553 0.50555 0.0
N825 N 0.20186 0.2308 0.52851 0.0
C826 C 0.20362 0.18714 0.51092 0.0
C827 C 0.23988 0.22186 0.5117 0.0
C828 C 0.19044 0.20527 0.52257 0.0
C829 C 0.22609 0.23939 0.52336 0.0
C830 C 0.25874 0.11115 0.45252 0.0
C831 C 0.25563 0.10739 0.42613 0.0
C832 C 0.25515 0.0894 0.46649 0.0
C833 C 0.24928 0.08178 0.41409 0.0
C834 C 0.24884 0.06411 0.45375 0.0
N835 N 0.24607 0.06086 0.42803 0.0
C836 C 0.2824 0.18545 0.42146 0.0
C837 C 0.26561 0.21959 0.44324 0.0
C838 C 0.284 0.1987 0.3995 0.0
N839 N 0.27331 0.19597 0.44283 0.0
C840 C 0.26711 0.2336 0.42179 0.0
C841 C 0.27649 0.22327 0.39946 0.0
H842 H 0.28842 0.16668 0.42141 0.0
H843 H 0.25815 0.22758 0.46018 0.0
C844 C 0.20001 0.11287 0.51598 0.0
N845 N 0.20883 0.11734 0.4929 0.0
C846 C 0.1762 0.09791 0.51801 0.0
C847 C 0.17073 0.09225 0.47242 0.0
C848 C 0.19479 0.10727 0.47125 0.0
C849 C 0.16098 0.08767 0.49607 0.0
H850 H 0.21138 0.12131 0.53292 0.0
H851 H 0.2021 0.11117 0.45308 0.0
O852 O 0.29951 0.18014 0.49801 0.0
O853 O 0.26382 0.13668 0.52273 0.0
O854 O 0.24177 0.17795 0.49443 0.0
O855 O 0.26431 0.13608 0.46464 0.0
H856 H 0.34202 0.17814 0.52343 0.0
H857 H 0.29845 0.22988 0.49131 0.0
H858 H 0.37442 0.21701 0.5389 0.0
H859 H 0.33153 0.26789 0.50754 0.0
H860 H 0.26257 0.08417 0.58656 0.0
H861 H 0.30718 0.15944 0.54618 0.0
H862 H 0.24358 0.09704 0.54748 0.0
H863 H 0.32519 0.14553 0.58523 0.0
H864 H 0.30706 0.23006 0.60153 0.0
H865 H 0.22749 0.19922 0.59764 0.0
H866 H 0.37515 0.1256 0.4819 0.0
H867 H 0.32719 0.06378 0.5153 0.0
H868 H 0.19454 0.16684 0.50618 0.0
H869 H 0.2592 0.22862 0.50787 0.0
H870 H 0.17114 0.19904 0.5269 0.0
H871 H 0.23467 0.25981 0.52837 0.0
H872 H 0.25794 0.12406 0.41508 0.0
H873 H 0.25682 0.09205 0.48694 0.0
H874 H 0.24683 0.07856 0.39367 0.0
H875 H 0.246 0.04708 0.46431 0.0
H876 H 0.29138 0.18995 0.38281 0.0
H877 H 0.26061 0.25219 0.42258 0.0
H878 H 0.16979 0.09446 0.53664 0.0
H879 H 0.15964 0.08483 0.45501 0.0
Li880 Li 0.1657 0.0383 0.79131 0.0
Li881 Li 0.12874 0.00982 0.81016 0.0
Li882 Li 0.16133 0.98951 0.78422 0.0
Li883 Li 0.13159 0.01215 0.76397 0.0
C884 C 0.18426 0.02445 0.83534 0.0
N885 N 0.22095 0.04912 0.8715 0.0
C886 C 0.17761 0.03598 0.85829 0.0
C887 C 0.20952 0.02532 0.83081 0.0
C888 C 0.19646 0.04837 0.87634 0.0
C889 C 0.2278 0.03796 0.84931 0.0
C890 C 0.11191 0.05249 0.78082 0.0
C891 C 0.06848 0.05445 0.77213 0.0
N892 N 0.0755 0.07438 0.7575 0.0
C893 C 0.11874 0.07305 0.76583 0.0
C894 C 0.08663 0.04311 0.78408 0.0
C895 C 0.10002 0.08382 0.75414 0.0
C896 C 0.19339 0.08058 0.77037 0.0
N897 N 0.18721 0.0725 0.7933 0.0
C898 C 0.2064 0.11492 0.81388 0.0
C899 C 0.19349 0.08907 0.81493 0.0
C900 C 0.21241 0.12388 0.79033 0.0
C901 C 0.20614 0.10613 0.76846 0.0
H902 H 0.1877 0.06738 0.75336 0.0
H903 H 0.1878 0.08263 0.8329 0.0
C904 C 0.09929 0.98445 0.84827 0.0
N905 N 0.10795 0.00785 0.83914 0.0
C906 C 0.0842 0.98342 0.86912 0.0
C907 C 0.08739 0.03056 0.87102 0.0
C908 C 0.10234 0.03068 0.85015 0.0
C909 C 0.07805 0.00671 0.88087 0.0
H910 H 0.10391 0.96651 0.83921 0.0
H911 H 0.10951 0.04908 0.84269 0.0
C912 C 0.18596 0.01001 0.74509 0.0
N913 N 0.22332 0.99758 0.71511 0.0
C914 C 0.17981 0.99557 0.72144 0.0
C915 C 0.21107 0.01833 0.75341 0.0
C916 C 0.19897 0.98942 0.70659 0.0
C917 C 0.2297 0.0118 0.738 0.0
C918 C 0.10317 0.9654 0.76841 0.0
C919 C 0.10614 0.95217 0.7449 0.0
C920 C 0.07927 0.96376 0.77761 0.0
C921 C 0.0851 0.93747 0.73095 0.0
C922 C 0.0587 0.94885 0.76309 0.0
N923 N 0.06201 0.93612 0.74026 0.0
C924 C 0.19401 0.9551 0.80063 0.0
C925 C 0.17813 0.94542 0.75808 0.0
C926 C 0.20732 0.93424 0.79808 0.0
N927 N 0.17979 0.9604 0.78073 0.0
C928 C 0.19135 0.92469 0.75459 0.0
C929 C 0.20626 0.91873 0.77472 0.0
H930 H 0.19482 0.96687 0.81864 0.0
H931 H 0.16649 0.94949 0.74257 0.0
C932 C 0.12912 0.0296 0.71598 0.0
N933 N 0.11415 0.01613 0.73214 0.0
C934 C 0.11926 0.03548 0.69299 0.0
C935 C 0.07834 0.0143 0.70364 0.0
C936 C 0.08906 0.00864 0.72648 0.0
C937 C 0.09355 0.02793 0.68657 0.0
H938 H 0.14879 0.03637 0.72116 0.0
H939 H 0.07722 0.99879 0.73981 0.0
O940 O 0.1661 0.01213 0.81751 0.0
O941 O 0.12986 0.04105 0.79166 0.0
O942 O 0.16746 0.01623 0.75987 0.0
O943 O 0.12355 0.97956 0.78254 0.0
H944 H 0.15813 0.03539 0.86209 0.0
H945 H 0.21493 0.01624 0.81325 0.0
H946 H 0.19161 0.05741 0.89419 0.0
H947 H 0.24743 0.03882 0.84605 0.0
H948 H 0.04882 0.04731 0.77435 0.0
H949 H 0.13825 0.08037 0.76301 0.0
H950 H 0.08109 0.02701 0.79544 0.0
H951 H 0.10499 0.09963 0.74233 0.0
H952 H 0.21084 0.12803 0.83119 0.0
H953 H 0.21077 0.11203 0.74996 0.0
H954 H 0.07703 0.9645 0.87563 0.0
H955 H 0.08329 0.04902 0.87948 0.0
H956 H 0.16042 0.98891 0.71477 0.0
H957 H 0.21612 0.02984 0.77151 0.0
H958 H 0.19449 0.97811 0.68831 0.0
H959 H 0.24923 0.01808 0.7442 0.0
H960 H 0.12445 0.95343 0.73739 0.0
H961 H 0.07663 0.97394 0.79573 0.0
H962 H 0.08711 0.92717 0.7127 0.0
H963 H 0.04009 0.94742 0.76996 0.0
H964 H 0.21783 0.92999 0.81443 0.0
H965 H 0.18988 0.91341 0.73621 0.0
H966 H 0.13159 0.04632 0.68054 0.0
H967 H 0.0584 0.00796 0.69935 0.0
Li968 Li 0.2309 0.92061 1.00266 0.0
Li969 Li 0.24596 0.88741 0.02549 0.0
Li970 Li 0.27408 0.9203 0.00596 0.0
Li971 Li 0.24593 0.88393 0.97896 0.0
C972 C 0.26789 0.94495 0.05011 0.0
N973 N 0.30019 0.98299 0.0814 0.0
C974 C 0.27477 0.94005 0.07458 0.0
C975 C 0.277 0.96949 0.04181 0.0
C976 C 0.29123 0.95945 0.09005 0.0
C977 C 0.29343 0.98838 0.05782 0.0
C978 C 0.19414 0.8716 0.00775 0.0
C979 C 0.15854 0.83619 0.00621 0.0
N980 N 0.14828 0.85021 0.02459 0.0
C981 C 0.1833 0.88567 0.02663 0.0
C982 C 0.1817 0.84669 0.99741 0.0
C983 C 0.16006 0.87451 0.03487 0.0
C984 C 0.18727 0.93895 0.9851 0.0
N985 N 0.20725 0.94352 1.00218 0.0
C986 C 0.1954 0.98303 0.02027 0.0
C987 C 0.21144 0.96493 0.01963 0.0
C988 C 0.17468 0.97896 0.00289 0.0
C989 C 0.17062 0.9566 0.98508 0.0
H990 H 0.1842 0.92156 0.97164 0.0
H991 H 0.22712 0.96791 0.03328 0.0
C992 C 0.26654 0.86922 0.0671 0.0
N993 N 0.24461 0.8664 0.05301 0.0
C994 C 0.26827 0.85464 0.08758 0.0
C995 C 0.22504 0.83364 0.07817 0.0
C996 C 0.22413 0.84874 0.0579 0.0
C997 C 0.24723 0.83682 0.09348 0.0
H998 H 0.28273 0.88294 0.06239 0.0
H999 H 0.20712 0.84609 0.04611 0.0
C1000 C 0.24346 0.93706 0.9591 0.0
N1001 N 0.22055 0.96718 0.92862 0.0
C1002 C 0.22717 0.92494 0.9387 0.0
C1003 C 0.24829 0.9645 0.96389 0.0
C1004 C 0.21574 0.94051 0.92351 0.0
C1005 C 0.23644 0.97938 0.94832 0.0
C1006 C 0.28018 0.85875 0.00724 0.0
C1007 C 0.30467 0.85787 0.01557 0.0
C1008 C 0.26246 0.83548 1.00278 0.0
C1009 C 0.3111 0.83357 0.01928 0.0
C1010 C 0.26963 0.81157 0.00672 0.0
N1011 N 0.2936 0.81111 0.01481 0.0
C1012 C 0.32304 0.93777 0.02743 0.0
C1013 C 0.3143 0.95417 0.98844 0.0
C1014 C 0.34769 0.9513 0.02847 0.0
N1015 N 0.30699 0.9396 0.00768 0.0
C1016 C 0.33887 0.96774 0.98854 0.0
C1017 C 0.35578 0.96633 0.00875 0.0
H1018 H 0.31671 0.92562 0.04221 0.0
H1019 H 0.30117 0.95488 0.97281 0.0
C1020 C 0.22362 0.84881 0.93588 0.0
N1021 N 0.24505 0.86017 0.9497 0.0
C1022 C 0.22473 0.83223 0.91381 0.0
C1023 C 0.26966 0.83842 0.92161 0.0
C1024 C 0.26775 0.85521 0.94311 0.0
C1025 C 0.24808 0.82731 0.90625 0.0
H1026 H 0.20582 0.85316 0.94163 0.0
H1027 H 0.28446 0.86456 0.95449 0.0
O1028 O 0.25191 0.92605 0.0346 0.0
O1029 O 0.21692 0.88193 0.9995 0.0
O1030 O 0.25449 0.92212 0.97441 0.0
O1031 O 0.27349 0.8824 0.00397 0.0
H1032 H 0.26729 0.9216 0.08172 0.0
H1033 H 0.27173 0.97377 0.02303 0.0
H1034 H 0.2968 0.95583 0.10898 0.0
H1035 H 0.30084 0.0073 0.05148 0.0
H1036 H 0.14874 0.81688 0.99846 0.0
H1037 H 0.19283 0.90487 0.03499 0.0
H1038 H 0.18999 0.83549 0.98291 0.0
H1039 H 0.15143 0.88512 0.04949 0.0
H1040 H 0.19903 0.99993 0.03439 0.0
H1041 H 0.15443 0.95243 0.9718 0.0
H1042 H 0.28572 0.85762 0.09896 0.0
H1043 H 0.20861 0.81958 0.08178 0.0
H1044 H 0.2232 0.90374 0.93476 0.0
H1045 H 0.2609 0.9742 0.97956 0.0
H1046 H 0.20299 0.93139 0.90772 0.0
H1047 H 0.23987 1.00062 0.9519 0.0
H1048 H 0.31851 0.87579 0.01921 0.0
H1049 H 0.24333 0.83592 0.99657 0.0
H1050 H 0.33 0.83256 0.02574 0.0
H1051 H 0.25613 0.79338 0.0034 0.0
H1052 H 0.36048 0.94944 0.04409 0.0
H1053 H 0.34467 0.97903 0.97296 0.0
H1054 H 0.20769 0.82408 0.90236 0.0
H1055 H 0.28793 0.83461 0.91677 0.0
Li1056 Li 0.24307 0.41068 0.0281 0.0
Li1057 Li 0.26072 0.37791 0.05061 0.0
Li1058 Li 0.28927 0.41454 0.03028 0.0
Li1059 Li 0.26387 0.37654 1.00279 0.0
C1060 C 0.25818 0.43571 0.07433 0.0
N1061 N 0.24015 0.47311 0.10516 0.0
C1062 C 0.24135 0.42796 0.09257 0.0
C1063 C 0.26611 0.46247 0.07198 0.0
C1064 C 0.23237 0.44716 0.10792 0.0
C1065 C 0.25671 0.48108 0.08769 0.0
C1066 C 0.21679 0.34827 0.02474 0.0
C1067 C 0.20551 0.30102 0.01655 0.0
N1068 N 0.18371 0.30178 0.02804 0.0
C1069 C 0.19411 0.34863 0.03611 0.0
C1070 C 0.22242 0.32433 0.01458 0.0
C1071 C 0.17771 0.32491 0.03775 0.0
C1072 C 0.21444 0.44635 0.00841 0.0
N1073 N 0.21563 0.43014 0.02696 0.0
C1074 C 0.17736 0.44035 0.04274 0.0
C1075 C 0.19757 0.427 0.04401 0.0
C1076 C 0.17554 0.45703 0.02362 0.0
C1077 C 0.19468 0.46019 0.00655 0.0
H1078 H 0.22867 0.44838 0.99479 0.0
H1079 H 0.19864 0.41385 0.05847 0.0
C1080 C 0.2784 0.35095 0.09105 0.0
N1081 N 0.2576 0.35778 0.08034 0.0
C1082 C 0.27703 0.33783 0.11306 0.0
C1083 C 0.23299 0.33928 0.11313 0.0
C1084 C 0.23517 0.35227 0.09109 0.0
C1085 C 0.25407 0.33171 0.12446 0.0
H1086 H 0.29621 0.35594 0.08269 0.0
H1087 H 0.219 0.35858 0.08298 0.0
C1088 C 0.27731 0.43412 0.98631 0.0
N1089 N 0.30054 0.47303 0.95864 0.0
C1090 C 0.28542 0.42747 0.96236 0.0
C1091 C 0.28078 0.46055 0.9961 0.0
C1092 C 0.29718 0.44743 0.94869 0.0
C1093 C 0.29263 0.47993 0.98185 0.0
C1094 C 0.30353 0.35631 0.0263 0.0
C1095 C 0.32841 0.36146 0.01968 0.0
C1096 C 0.29217 0.33061 0.02971 0.0
C1097 C 0.34141 0.34063 0.01607 0.0
C1098 C 0.30581 0.31032 0.02597 0.0
N1099 N 0.32993 0.3157 0.01924 0.0
C1100 C 0.33184 0.45364 0.05226 0.0
C1101 C 0.33483 0.4358 0.01012 0.0
C1102 C 0.35573 0.46933 0.05212 0.0
N1103 N 0.32185 0.43732 0.03139 0.0
C1104 C 0.35846 0.45142 0.00899 0.0
C1105 C 0.36941 0.4685 0.03018 0.0
H1106 H 0.32145 0.45419 0.06917 0.0
H1107 H 0.32689 0.42221 0.99397 0.0
C1108 C 0.2433 0.34847 0.95495 0.0
N1109 N 0.26477 0.3565 0.96987 0.0
C1110 C 0.244 0.33672 0.93015 0.0
C1111 C 0.28881 0.34146 0.93637 0.0
C1112 C 0.28729 0.3533 0.96095 0.0
C1113 C 0.267 0.33296 0.92046 0.0
H1114 H 0.22566 0.35186 0.96205 0.0
H1115 H 0.30426 0.36069 0.97259 0.0
O1116 O 0.26702 0.41717 0.05904 0.0
O1117 O 0.23302 0.37134 0.0229 0.0
O1118 O 0.26613 0.41481 1.00013 0.0
O1119 O 0.29055 0.37646 0.02985 0.0
H1120 H 0.23511 0.40735 0.0947 0.0
H1121 H 0.27948 0.46882 0.05829 0.0
H1122 H 0.2192 0.44144 0.12201 0.0
H1123 H 0.26263 0.50187 0.08602 0.0
H1124 H 0.20968 0.28233 0.00886 0.0
H1125 H 0.18932 0.36702 0.04378 0.0
H1126 H 0.23957 0.32374 0.0051 0.0
H1127 H 0.16019 0.32488 0.04671 0.0
H1128 H 0.16301 0.43718 0.05625 0.0
H1129 H 0.19444 0.47325 0.99183 0.0
H1130 H 0.29384 0.33248 0.12104 0.0
H1131 H 0.21504 0.33583 0.12155 0.0
H1132 H 0.28276 0.40713 0.95445 0.0
H1133 H 0.27438 0.46601 0.01447 0.0
H1134 H 0.30366 0.44256 0.93017 0.0
H1135 H 0.29552 0.50047 0.98923 0.0
H1136 H 0.33752 0.3813 0.01721 0.0
H1137 H 0.27316 0.32643 0.03548 0.0
H1138 H 0.36063 0.34429 0.01077 0.0
H1139 H 0.29725 0.29031 0.02851 0.0
H1140 H 0.36361 0.48143 0.06925 0.0
H1141 H 0.36812 0.44999 0.99163 0.0
H1142 H 0.22673 0.33139 0.91846 0.0
H1143 H 0.30699 0.33918 0.92983 0.0
Li1144 Li 0.78107 0.16301 0.04853 0.0
Li1145 Li 0.79589 0.12757 0.02092 0.0
Li1146 Li 0.7808 0.16314 1.00211 0.0
Li1147 Li 0.75289 0.13017 0.01971 0.0
C1148 C 0.82739 0.18267 0.01553 0.0
N1149 N 0.86016 0.21663 0.99008 0.0
C1150 C 0.84227 0.17269 0.9976 0.0
C1151 C 0.82917 0.20989 0.02059 0.0
C1152 C 0.85874 0.1902 0.98492 0.0
C1153 C 0.84585 0.22674 0.0075 0.0
C1154 C 0.78351 0.10878 0.0642 0.0
C1155 C 0.78956 0.06581 0.07391 0.0
N1156 N 0.80599 0.07726 0.09347 0.0
C1157 C 0.80038 0.12015 0.08443 0.0
C1158 C 0.77793 0.08141 0.05894 0.0
C1159 C 0.81155 0.10387 0.09901 0.0
C1160 C 0.7626 0.17932 0.09407 0.0
N1161 N 0.78316 0.18313 0.08018 0.0
C1162 C 0.80521 0.21486 0.11243 0.0
C1163 C 0.80427 0.20046 0.08877 0.0
C1164 C 0.78421 0.21131 0.12715 0.0
C1165 C 0.76262 0.1935 0.11771 0.0
H1166 H 0.7463 0.16498 0.08686 0.0
H1167 H 0.82041 0.20285 0.0774 0.0
C1168 C 0.8161 0.08417 1.00056 0.0
N1169 N 0.81951 0.10451 0.01918 0.0
C1170 C 0.83257 0.06642 0.99918 0.0
C1171 C 0.85634 0.09135 0.03572 0.0
C1172 C 0.83929 0.10856 0.03647 0.0
C1173 C 0.85293 0.06981 0.01698 0.0
H1174 H 0.8007 0.08175 0.98661 0.0
H1175 H 0.84186 0.12522 0.05076 0.0
C1176 C 0.73135 0.17331 0.01768 0.0
N1177 N 0.68424 0.18189 0.00363 0.0
C1178 C 0.72386 0.17227 0.99208 0.0
C1179 C 0.7149 0.17876 0.03613 0.0
C1180 C 0.69998 0.17667 0.98536 0.0
C1181 C 0.69115 0.183 0.02865 0.0
C1182 C 0.75777 0.10678 0.97444 0.0
C1183 C 0.74838 0.1133 0.95146 0.0
C1184 C 0.75066 0.08121 0.98122 0.0
C1185 C 0.73195 0.09414 0.9357 0.0
C1186 C 0.73418 0.06262 0.96495 0.0
N1187 N 0.72525 0.06941 0.94272 0.0
C1188 C 0.79218 0.17723 0.95356 0.0
C1189 C 0.77849 0.21028 0.98051 0.0
C1190 C 0.79166 0.19218 0.93315 0.0
N1191 N 0.78491 0.18615 0.97639 0.0
C1192 C 0.77788 0.22599 0.96067 0.0
C1193 C 0.78377 0.21657 0.93645 0.0
H1194 H 0.79739 0.15803 0.95098 0.0
H1195 H 0.77299 0.21687 0.999 0.0
C1196 C 0.71214 0.09949 0.03971 0.0
N1197 N 0.71957 0.11081 0.01854 0.0
C1198 C 0.68759 0.08614 0.04076 0.0
C1199 C 0.67887 0.09631 0.99819 0.0
C1200 C 0.70346 0.10956 0.99803 0.0
C1201 C 0.67075 0.0844 0.01973 0.0
H1202 H 0.7252 0.10113 0.05592 0.0
H1203 H 0.70952 0.11909 0.98161 0.0
O1204 O 0.81066 0.16582 0.02754 0.0
O1205 O 0.77266 0.12436 0.04944 0.0
O1206 O 0.75467 0.16909 0.02469 0.0
O1207 O 0.77397 0.12528 0.9901 0.0
H1208 H 0.84093 0.15165 0.99336 0.0
H1209 H 0.81751 0.21789 0.03418 0.0
H1210 H 0.87032 0.18278 0.97092 0.0
H1211 H 0.84734 0.24785 0.0111 0.0
H1212 H 0.78552 0.04459 0.06999 0.0
H1213 H 0.80504 0.1413 0.08867 0.0
H1214 H 0.76483 0.07232 0.04341 0.0
H1215 H 0.82473 0.11239 0.11467 0.0
H1216 H 0.82217 0.2285 0.11925 0.0
H1217 H 0.74626 0.1901 0.12877 0.0
H1218 H 0.82942 0.05023 0.9843 0.0
H1219 H 0.87228 0.09519 0.0493 0.0
H1220 H 0.73608 0.16753 0.9775 0.0
H1221 H 0.72039 0.17973 0.05602 0.0
H1222 H 0.69389 0.17577 0.96561 0.0
H1223 H 0.67822 0.18721 0.04274 0.0
H1224 H 0.75343 0.13299 0.94593 0.0
H1225 H 0.75756 0.07585 0.999 0.0
H1226 H 0.72446 0.09896 0.91792 0.0
H1227 H 0.72844 0.04281 0.97004 0.0
H1228 H 0.79636 0.18424 0.91476 0.0
H1229 H 0.77234 0.24499 0.9641 0.0
H1230 H 0.68182 0.07728 0.05774 0.0
H1231 H 0.66617 0.09584 0.98184 0.0
Li1232 Li 0.14162 0.53147 0.24955 0.0
Li1233 Li 0.11059 0.5019 0.2678 0.0
Li1234 Li 0.14516 0.48621 0.24874 0.0
Li1235 Li 0.11089 0.49877 0.22211 0.0
C1236 C 0.1645 0.52787 0.29405 0.0
N1237 N 0.20156 0.56124 0.32456 0.0
C1238 C 0.15937 0.53784 0.31825 0.0
C1239 C 0.18858 0.53469 0.28552 0.0
C1240 C 0.17833 0.55473 0.33335 0.0
C1241 C 0.20703 0.55163 0.30118 0.0
C1242 C 0.09756 0.55065 0.25663 0.0
C1243 C 0.07686 0.58778 0.25397 0.0
N1244 N 0.08297 0.59533 0.27897 0.0
C1245 C 0.10351 0.5587 0.2823 0.0
C1246 C 0.08402 0.56522 0.24234 0.0
C1247 C 0.09602 0.58136 0.29326 0.0
C1248 C 0.17229 0.57206 0.2287 0.0
N1249 N 0.16055 0.56611 0.25009 0.0
C1250 C 0.17829 0.60843 0.27108 0.0
C1251 C 0.16296 0.58385 0.27096 0.0
C1252 C 0.19116 0.61478 0.2495 0.0
C1253 C 0.18777 0.59647 0.22796 0.0
H1254 H 0.16984 0.55773 0.21226 0.0
H1255 H 0.15347 0.57885 0.28774 0.0
C1256 C 0.098 0.48963 0.3161 0.0
N1257 N 0.08902 0.49778 0.29459 0.0
C1258 C 0.08383 0.48861 0.33732 0.0
C1259 C 0.05113 0.50363 0.31353 0.0
C1260 C 0.06588 0.50416 0.29268 0.0
C1261 C 0.06028 0.49607 0.33622 0.0
H1262 H 0.11648 0.48464 0.31691 0.0
H1263 H 0.05923 0.5104 0.2752 0.0
C1264 C 0.16307 0.49814 0.20378 0.0
N1265 N 0.19423 0.47703 0.17114 0.0
C1266 C 0.15292 0.47977 0.18343 0.0
C1267 C 0.18904 0.50591 0.20745 0.0
C1268 C 0.169 0.4693 0.16715 0.0
C1269 C 0.20448 0.49495 0.19078 0.0
C1270 C 0.09152 0.45267 0.25431 0.0
C1271 C 0.09876 0.43732 0.27253 0.0
C1272 C 0.06611 0.45166 0.24815 0.0
C1273 C 0.08033 0.4213 0.28451 0.0
C1274 C 0.04826 0.43539 0.26057 0.0
N1275 N 0.05568 0.42069 0.27835 0.0
C1276 C 0.18422 0.46751 0.27226 0.0
C1277 C 0.16969 0.44387 0.23256 0.0
C1278 C 0.20293 0.45271 0.27476 0.0
N1279 N 0.16846 0.46333 0.25118 0.0
C1280 C 0.18788 0.42816 0.23451 0.0
C1281 C 0.20482 0.43259 0.25585 0.0
H1282 H 0.18233 0.4823 0.28728 0.0
H1283 H 0.15654 0.44051 0.21628 0.0
C1284 C 0.09153 0.51867 0.18225 0.0
N1285 N 0.09166 0.49517 0.19143 0.0
C1286 C 0.07733 0.52002 0.16028 0.0
C1287 C 0.06431 0.47265 0.15687 0.0
C1288 C 0.07849 0.47228 0.17938 0.0
C1289 C 0.06348 0.49684 0.14721 0.0
H1290 H 0.10243 0.53643 0.19224 0.0
H1291 H 0.0791 0.45385 0.18715 0.0
O1292 O 0.14616 0.51122 0.27898 0.0
O1293 O 0.10461 0.52847 0.2455 0.0
O1294 O 0.14767 0.50872 0.21985 0.0
O1295 O 0.10925 0.46906 0.24298 0.0
H1296 H 0.14094 0.53268 0.32531 0.0
H1297 H 0.19292 0.52704 0.26693 0.0
H1298 H 0.17458 0.56267 0.35206 0.0
H1299 H 0.22568 0.55717 0.29473 0.0
H1300 H 0.0664 0.59927 0.24311 0.0
H1301 H 0.1139 0.54765 0.29365 0.0
H1302 H 0.07902 0.55916 0.22249 0.0
H1303 H 0.10061 0.58783 0.3131 0.0
H1304 H 0.18 0.62235 0.28785 0.0
H1305 H 0.19728 0.60085 0.21093 0.0
H1306 H 0.09163 0.48313 0.35469 0.0
H1307 H 0.03303 0.50954 0.31215 0.0
H1308 H 0.13289 0.47348 0.18035 0.0
H1309 H 0.19719 0.52031 0.22293 0.0
H1310 H 0.16142 0.455 0.15136 0.0
H1311 H 0.22462 0.50074 0.19342 0.0
H1312 H 0.11839 0.43804 0.27753 0.0
H1313 H 0.06026 0.4636 0.23419 0.0
H1314 H 0.08562 0.40942 0.29877 0.0
H1315 H 0.02851 0.43452 0.25614 0.0
H1316 H 0.2158 0.45708 0.29133 0.0
H1317 H 0.18848 0.41252 0.21966 0.0
H1318 H 0.07709 0.53912 0.15368 0.0
H1319 H 0.05441 0.45426 0.14706 0.0
Li1320 Li 0.74335 0.90873 0.52901 0.0
Li1321 Li 0.76023 0.87522 0.55153 0.0
Li1322 Li 0.78874 0.91077 0.53139 0.0
Li1323 Li 0.76358 0.874 0.50387 0.0
C1324 C 0.75657 0.93155 0.57567 0.0
N1325 N 0.73503 0.96606 0.60656 0.0
C1326 C 0.74329 0.92275 0.59614 0.0
C1327 C 0.75911 0.95795 0.57105 0.0
C1328 C 0.7325 0.94049 0.61151 0.0
C1329 C 0.74801 0.97507 0.58683 0.0
C1330 C 0.71333 0.84879 0.52425 0.0
C1331 C 0.69361 0.80384 0.51085 0.0
N1332 N 0.6735 0.80734 0.5243 0.0
C1333 C 0.6923 0.85202 0.53761 0.0
C1334 C 0.71386 0.82458 0.51048 0.0
C1335 C 0.67243 0.8308 0.53755 0.0
C1336 C 0.71489 0.94392 0.50825 0.0
N1337 N 0.71632 0.92887 0.52771 0.0
C1338 C 0.67929 0.94161 0.54419 0.0
C1339 C 0.69906 0.92768 0.54565 0.0
C1340 C 0.67716 0.95708 0.52413 0.0
C1341 C 0.69565 0.95846 0.50627 0.0
H1342 H 0.72862 0.94457 0.49409 0.0
H1343 H 0.70049 0.91578 0.56107 0.0
C1344 C 0.77853 0.85029 0.59239 0.0
N1345 N 0.75705 0.85502 0.58115 0.0
C1346 C 0.77798 0.83754 0.61454 0.0
C1347 C 0.73322 0.83471 0.61357 0.0
C1348 C 0.73459 0.84734 0.59128 0.0
C1349 C 0.75516 0.82995 0.62579 0.0
H1350 H 0.79626 0.85671 0.58432 0.0
H1351 H 0.71776 0.85175 0.58261 0.0
C1352 C 0.78182 0.9309 0.48925 0.0
N1353 N 0.8141 0.96808 0.46668 0.0
C1354 C 0.79676 0.923 0.47029 0.0
C1355 C 0.78318 0.95771 0.49663 0.0
C1356 C 0.81299 0.94209 0.45913 0.0
C1357 C 0.79965 0.97621 0.48503 0.0
C1358 C 0.79728 0.84846 0.52934 0.0
C1359 C 0.82242 0.84668 0.52675 0.0
C1360 C 0.77965 0.82565 0.53108 0.0
C1361 C 0.82939 0.82198 0.52539 0.0
C1362 C 0.78735 0.80131 0.5297 0.0
N1363 N 0.81185 0.79998 0.52686 0.0
C1364 C 0.82763 0.95698 0.54557 0.0
C1365 C 0.83892 0.92248 0.51877 0.0
C1366 C 0.85168 0.97209 0.54492 0.0
N1367 N 0.82172 0.93262 0.53258 0.0
C1368 C 0.86327 0.93664 0.518 0.0
C1369 C 0.87 0.96197 0.53104 0.0
H1370 H 0.81368 0.96481 0.55629 0.0
H1371 H 0.83364 0.90332 0.50817 0.0
C1372 C 0.7433 0.85 0.45496 0.0
N1373 N 0.76397 0.854 0.47116 0.0
C1374 C 0.74403 0.83867 0.43007 0.0
C1375 C 0.78727 0.83567 0.43882 0.0
C1376 C 0.78571 0.84702 0.46356 0.0
C1377 C 0.76627 0.83139 0.42162 0.0
H1378 H 0.72642 0.85634 0.46115 0.0
H1379 H 0.80218 0.85117 0.47637 0.0
O1380 O 0.76698 0.91439 0.56023 0.0
O1381 O 0.73283 0.86949 0.52381 0.0
O1382 O 0.76642 0.91246 0.50095 0.0
O1383 O 0.79013 0.8725 0.53058 0.0
H1384 H 0.74125 0.90245 0.60007 0.0
H1385 H 0.76931 0.96509 0.55531 0.0
H1386 H 0.72207 0.93392 0.62736 0.0
H1387 H 0.74968 0.99551 0.58337 0.0
H1388 H 0.69385 0.78497 0.50038 0.0
H1389 H 0.69143 0.87061 0.54819 0.0
H1390 H 0.72969 0.82179 0.49954 0.0
H1391 H 0.65616 0.833 0.54803 0.0
H1392 H 0.66552 0.93985 0.5584 0.0
H1393 H 0.69534 0.97068 0.49088 0.0
H1394 H 0.79535 0.83372 0.62277 0.0
H1395 H 0.71521 0.82937 0.62154 0.0
H1396 H 0.79605 0.90236 0.46442 0.0
H1397 H 0.77179 0.96419 0.51129 0.0
H1398 H 0.82476 0.93624 0.44452 0.0
H1399 H 0.80098 0.99702 0.49065 0.0
H1400 H 0.83644 0.86414 0.52582 0.0
H1401 H 0.76032 0.82676 0.5339 0.0
H1402 H 0.84876 0.8203 0.52324 0.0
H1403 H 0.77386 0.78349 0.53101 0.0
H1404 H 0.85586 0.99155 0.55517 0.0
H1405 H 0.87673 0.92753 0.50763 0.0
H1406 H 0.72756 0.83642 0.41733 0.0
H1407 H 0.80483 0.83052 0.43313 0.0
Li1408 Li 0.90593 0.04282 0.26123 0.0
Li1409 Li 0.86982 0.01495 0.23514 0.0
Li1410 Li 0.90441 0.04348 0.21532 0.0
Li1411 Li 0.87381 0.06434 0.24016 0.0
C1412 C 0.92011 0.99979 0.22043 0.0
N1413 N 0.9489 0.97485 0.18805 0.0
C1414 C 0.9086 0.98069 0.20124 0.0
C1415 C 0.94621 0.00617 0.22327 0.0
C1416 C 0.92351 0.96829 0.18504 0.0
C1417 C 0.96045 0.99336 0.20667 0.0
C1418 C 0.84947 0.03188 0.27969 0.0
C1419 C 0.80475 0.02276 0.28296 0.0
N1420 N 0.80817 0.0153 0.30652 0.0
C1421 C 0.8526 0.02419 0.30393 0.0
C1422 C 0.82541 0.03122 0.26908 0.0
C1423 C 0.83146 0.01584 0.31719 0.0
C1424 C 0.92554 0.05878 0.31281 0.0
N1425 N 0.92473 0.04074 0.29234 0.0
C1426 C 0.94501 0.0134 0.31707 0.0
C1427 C 0.93427 0.01841 0.29409 0.0
C1428 C 0.9461 0.03158 0.33858 0.0
C1429 C 0.93635 0.05466 0.33615 0.0
H1430 H 0.91712 0.07597 0.31125 0.0
H1431 H 0.93264 0.00388 0.27787 0.0
C1432 C 0.83477 0.96785 0.21401 0.0
N1433 N 0.84872 0.98073 0.23476 0.0
C1434 C 0.82126 0.94222 0.21483 0.0
C1435 C 0.83651 0.94377 0.25832 0.0
C1436 C 0.85003 0.96904 0.25652 0.0
C1437 C 0.82181 0.92985 0.23733 0.0
H1438 H 0.83455 0.9772 0.19667 0.0
H1439 H 0.86188 0.9793 0.2725 0.0
C1440 C 0.92794 0.09159 0.25793 0.0
N1441 N 0.96126 0.12527 0.29209 0.0
C1442 C 0.92038 0.11297 0.27149 0.0
C1443 C 0.95245 0.08739 0.2617 0.0
C1444 C 0.93752 0.12977 0.28867 0.0
C1445 C 0.969 0.10461 0.27908 0.0
C1446 C 0.85122 0.04602 0.19144 0.0
C1447 C 0.86049 0.06248 0.17329 0.0
C1448 C 0.82545 0.03696 0.19181 0.0
C1449 C 0.84373 0.06989 0.15595 0.0
C1450 C 0.8093 0.04485 0.17417 0.0
N1451 N 0.81869 0.06102 0.15676 0.0
C1452 C 0.91371 0.03182 0.16293 0.0
C1453 C 0.94834 0.05751 0.18754 0.0
C1454 C 0.92793 0.03125 0.14151 0.0
N1455 N 0.92407 0.04474 0.18543 0.0
C1456 C 0.96329 0.05717 0.16669 0.0
C1457 C 0.95314 0.0438 0.14332 0.0
H1458 H 0.89448 0.02153 0.16171 0.0
H1459 H 0.95627 0.06756 0.20555 0.0
C1460 C 0.84483 0.09857 0.26633 0.0
N1461 N 0.85521 0.09337 0.24393 0.0
C1462 C 0.83186 0.11955 0.26994 0.0
C1463 C 0.84072 0.12999 0.22759 0.0
C1464 C 0.85366 0.1089 0.22485 0.0
C1465 C 0.82945 0.1355 0.25034 0.0
H1466 H 0.84688 0.08664 0.28162 0.0
H1467 H 0.86285 0.10529 0.2076 0.0
O1468 O 0.90588 0.0129 0.23578 0.0
O1469 O 0.86991 0.03985 0.26637 0.0
O1470 O 0.91143 0.07487 0.24107 0.0
O1471 O 0.86734 0.0383 0.20835 0.0
H1472 H 0.8884 0.97577 0.19867 0.0
H1473 H 0.95534 0.02112 0.23791 0.0
H1474 H 0.91489 0.95355 0.17 0.0
H1475 H 0.98069 0.99821 0.2085 0.0
H1476 H 0.78599 0.02214 0.27501 0.0
H1477 H 0.87116 0.02456 0.31232 0.0
H1478 H 0.82277 0.03727 0.25039 0.0
H1479 H 0.83357 0.00977 0.33596 0.0
H1480 H 0.95152 0.99496 0.31814 0.0
H1481 H 0.93671 0.0692 0.35223 0.0
H1482 H 0.81096 0.93205 0.19784 0.0
H1483 H 0.83759 0.93523 0.27607 0.0
H1484 H 0.9015 0.11654 0.26879 0.0
H1485 H 0.95853 0.0708 0.25154 0.0
H1486 H 0.93194 0.14638 0.29931 0.0
H1487 H 0.98799 0.10151 0.28228 0.0
H1488 H 0.8804 0.06969 0.17278 0.0
H1489 H 0.81802 0.02386 0.20548 0.0
H1490 H 0.85063 0.08273 0.14187 0.0
H1491 H 0.7893 0.03805 0.17427 0.0
H1492 H 0.91954 0.02043 0.12394 0.0
H1493 H 0.98265 0.06717 0.16883 0.0
H1494 H 0.82369 0.12321 0.28788 0.0
H1495 H 0.84006 0.14225 0.21225 0.0
Li1496 Li 0.28297 0.66809 0.54571 0.0
Li1497 Li 0.29852 0.63224 0.51978 0.0
Li1498 Li 0.28232 0.66698 0.49943 0.0
Li1499 Li 0.25486 0.63233 0.51771 0.0
C1500 C 0.33337 0.68635 0.5185 0.0
N1501 N 0.377 0.71748 0.50602 0.0
C1502 C 0.35021 0.67534 0.50358 0.0
C1503 C 0.33884 0.7131 0.52732 0.0
C1504 C 0.37215 0.69144 0.49743 0.0
C1505 C 0.36096 0.72854 0.52072 0.0
C1506 C 0.28292 0.61285 0.56414 0.0
C1507 C 0.28733 0.56919 0.57324 0.0
N1508 N 0.29606 0.57893 0.59723 0.0
C1509 C 0.292 0.62246 0.58883 0.0
C1510 C 0.28047 0.58601 0.55627 0.0
C1511 C 0.29849 0.60498 0.60531 0.0
C1512 C 0.26188 0.69461 0.58387 0.0
N1513 N 0.28441 0.69037 0.57603 0.0
C1514 C 0.30567 0.71742 0.61202 0.0
C1515 C 0.30619 0.70157 0.58934 0.0
C1516 C 0.28254 0.72173 0.62075 0.0
C1517 C 0.26053 0.71066 0.60602 0.0
H1518 H 0.24488 0.6853 0.57297 0.0
H1519 H 0.32384 0.69777 0.58259 0.0
C1520 C 0.32179 0.59426 0.49553 0.0
N1521 N 0.32254 0.60997 0.51759 0.0
C1522 C 0.339 0.57759 0.4919 0.0
C1523 C 0.35777 0.59372 0.53375 0.0
C1524 C 0.33999 0.61001 0.53665 0.0
C1525 C 0.35751 0.57746 0.511 0.0
H1526 H 0.30796 0.59483 0.48055 0.0
H1527 H 0.34022 0.62287 0.55393 0.0
C1528 C 0.24596 0.69314 0.52153 0.0
N1529 N 0.2278 0.73945 0.52087 0.0
C1530 C 0.22025 0.69246 0.51805 0.0
C1531 C 0.26248 0.7173 0.52472 0.0
C1532 C 0.21143 0.7161 0.51777 0.0
C1533 C 0.25292 0.74052 0.52432 0.0
C1534 C 0.26077 0.6107 0.47223 0.0
C1535 C 0.25101 0.61818 0.44987 0.0
C1536 C 0.25437 0.58457 0.4777 0.0
C1537 C 0.23459 0.59953 0.43361 0.0
C1538 C 0.23787 0.5665 0.46097 0.0
N1539 N 0.22838 0.5743 0.43947 0.0
C1540 C 0.3048 0.70153 0.46394 0.0
C1541 C 0.26046 0.69069 0.46226 0.0
C1542 C 0.3039 0.71677 0.4438 0.0
N1543 N 0.28325 0.68887 0.47273 0.0
C1544 C 0.25868 0.70566 0.44211 0.0
C1545 C 0.28061 0.71884 0.43264 0.0
H1546 H 0.3227 0.69953 0.47208 0.0
H1547 H 0.24363 0.67986 0.46914 0.0
C1548 C 0.21529 0.59562 0.53318 0.0
N1549 N 0.22229 0.61224 0.5154 0.0
C1550 C 0.19068 0.58205 0.5327 0.0
C1551 C 0.1812 0.60271 0.49538 0.0
C1552 C 0.2059 0.61608 0.49675 0.0
C1553 C 0.17338 0.58563 0.51364 0.0
H1554 H 0.22866 0.59334 0.54803 0.0
H1555 H 0.21194 0.62995 0.48326 0.0
O1556 O 0.31185 0.67091 0.52479 0.0
O1557 O 0.27527 0.62946 0.54823 0.0
O1558 O 0.25485 0.67014 0.52158 0.0
O1559 O 0.27673 0.62876 0.48852 0.0
H1560 H 0.34627 0.65466 0.49662 0.0
H1561 H 0.32617 0.72188 0.53914 0.0
H1562 H 0.38529 0.68324 0.48577 0.0
H1563 H 0.36539 0.7493 0.52731 0.0
H1564 H 0.28558 0.54838 0.56738 0.0
H1565 H 0.29368 0.64313 0.59533 0.0
H1566 H 0.27327 0.57823 0.53732 0.0
H1567 H 0.30536 0.61209 0.62455 0.0
H1568 H 0.32303 0.72555 0.62297 0.0
H1569 H 0.24238 0.71399 0.6118 0.0
H1570 H 0.33789 0.565 0.47429 0.0
H1571 H 0.37188 0.59423 0.54886 0.0
H1572 H 0.20728 0.67384 0.51556 0.0
H1573 H 0.28242 0.71806 0.52732 0.0
H1574 H 0.19156 0.7159 0.51506 0.0
H1575 H 0.26546 0.75939 0.5267 0.0
H1576 H 0.2561 0.63813 0.44505 0.0
H1577 H 0.26191 0.57836 0.49476 0.0
H1578 H 0.22682 0.6051 0.4163 0.0
H1579 H 0.23262 0.54628 0.46509 0.0
H1580 H 0.3212 0.7265 0.43676 0.0
H1581 H 0.2404 0.70613 0.43344 0.0
H1582 H 0.18512 0.56913 0.54717 0.0
H1583 H 0.16814 0.60631 0.48074 0.0
Li1584 Li 0.36427 0.5079 0.73491 0.0
Li1585 Li 0.39932 0.53647 0.76215 0.0
Li1586 Li 0.36673 0.55672 0.73915 0.0
Li1587 Li 0.39901 0.53945 0.71525 0.0
C1588 C 0.34501 0.52604 0.78214 0.0
N1589 N 0.30888 0.51354 0.81625 0.0
C1590 C 0.35127 0.53063 0.80812 0.0
C1591 C 0.32042 0.51507 0.77347 0.0
C1592 C 0.33272 0.52419 0.82507 0.0
C1593 C 0.30241 0.50888 0.79102 0.0
C1594 C 0.4199 0.49492 0.73812 0.0
C1595 C 0.46375 0.4923 0.73853 0.0
N1596 N 0.45827 0.46757 0.74583 0.0
C1597 C 0.41466 0.46933 0.74521 0.0
C1598 C 0.4446 0.50638 0.73443 0.0
C1599 C 0.43432 0.45589 0.74919 0.0
C1600 C 0.33069 0.45929 0.71463 0.0
N1601 N 0.34468 0.47311 0.73496 0.0
C1602 C 0.33351 0.4372 0.76003 0.0
C1603 C 0.34628 0.46254 0.75733 0.0
C1604 C 0.31898 0.42252 0.73947 0.0
C1605 C 0.31751 0.43373 0.71653 0.0
H1606 H 0.32974 0.46807 0.69702 0.0
H1607 H 0.35762 0.47386 0.77316 0.0
C1608 C 0.42998 0.55465 0.80907 0.0
N1609 N 0.41659 0.53377 0.79399 0.0
C1610 C 0.44013 0.55101 0.83288 0.0
C1611 C 0.42248 0.50465 0.82525 0.0
C1612 C 0.4126 0.50918 0.80175 0.0
C1613 C 0.43622 0.52574 0.8413 0.0
H1614 H 0.43239 0.57417 0.80287 0.0
H1615 H 0.40106 0.49312 0.78995 0.0
C1616 C 0.34453 0.54179 0.69389 0.0
N1617 N 0.30997 0.56378 0.6677 0.0
C1618 C 0.35252 0.56033 0.6771 0.0
C1619 C 0.31899 0.53426 0.69724 0.0
C1620 C 0.33474 0.57125 0.66405 0.0
C1621 C 0.3018 0.54568 0.68388 0.0
C1622 C 0.42676 0.58519 0.74213 0.0
C1623 C 0.42792 0.60933 0.73213 0.0
C1624 C 0.44883 0.57795 0.75102 0.0
C1625 C 0.45117 0.62555 0.73068 0.0
C1626 C 0.47173 0.59471 0.74928 0.0
N1627 N 0.47243 0.61796 0.73919 0.0
C1628 C 0.32758 0.58408 0.75783 0.0
C1629 C 0.35354 0.60581 0.72869 0.0
C1630 C 0.31474 0.60524 0.761 0.0
N1631 N 0.34686 0.5848 0.74211 0.0
C1632 C 0.34145 0.62751 0.73155 0.0
C1633 C 0.32202 0.62756 0.74818 0.0
H1634 H 0.32241 0.5674 0.7684 0.0
H1635 H 0.36852 0.60591 0.71596 0.0
C1636 C 0.42697 0.52013 0.67564 0.0
N1637 N 0.41966 0.54233 0.68606 0.0
C1638 C 0.44188 0.52091 0.65474 0.0
C1639 C 0.44079 0.56717 0.65477 0.0
C1640 C 0.42609 0.56556 0.67586 0.0
C1641 C 0.44918 0.54469 0.64401 0.0
H1642 H 0.42122 0.5017 0.68355 0.0
H1643 H 0.41949 0.58283 0.68381 0.0
O1644 O 0.36303 0.53191 0.76533 0.0
O1645 O 0.40087 0.5084 0.73425 0.0
O1646 O 0.36167 0.5312 0.70708 0.0
O1647 O 0.4041 0.56909 0.74377 0.0
H1648 H 0.37023 0.53916 0.81513 0.0
H1649 H 0.31532 0.51134 0.75342 0.0
H1650 H 0.33727 0.52766 0.84525 0.0
H1651 H 0.2833 0.50035 0.78459 0.0
H1652 H 0.48295 0.50097 0.7358 0.0
H1653 H 0.39564 0.45996 0.74773 0.0
H1654 H 0.44893 0.52578 0.72808 0.0
H1655 H 0.43054 0.43616 0.7549 0.0
H1656 H 0.33481 0.4292 0.77805 0.0
H1657 H 0.30619 0.4229 0.70039 0.0
H1658 H 0.45079 0.5678 0.84465 0.0
H1659 H 0.41872 0.48496 0.83115 0.0
H1660 H 0.37223 0.56634 0.67433 0.0
H1661 H 0.31253 0.51979 0.71004 0.0
H1662 H 0.34065 0.5857 0.65106 0.0
H1663 H 0.28197 0.54013 0.68636 0.0
H1664 H 0.41109 0.61547 0.72541 0.0
H1665 H 0.4483 0.55969 0.75938 0.0
H1666 H 0.45231 0.64419 0.72281 0.0
H1667 H 0.48895 0.58928 0.75604 0.0
H1668 H 0.29992 0.60459 0.77407 0.0
H1669 H 0.34746 0.64428 0.72113 0.0
H1670 H 0.44779 0.50303 0.64717 0.0
H1671 H 0.44512 0.58575 0.64672 0.0
Li1672 Li 0.61098 0.00341 0.76806 0.0
Li1673 Li 0.6437 0.03126 0.74871 0.0
Li1674 Li 0.61123 1.00138 0.72215 0.0
Li1675 Li 0.64495 0.98531 0.74665 0.0
C1676 C 0.59431 0.05046 0.7527 0.0
N1677 N 0.56713 0.08945 0.76562 0.0
C1678 C 0.60539 0.07308 0.76837 0.0
C1679 C 0.56945 0.04782 0.74344 0.0
C1680 C 0.59132 0.09252 0.77474 0.0
C1681 C 0.55601 0.0677 0.75023 0.0
C1682 C 0.66029 0.02343 0.79824 0.0
C1683 C 0.69665 0.03176 0.82741 0.0
N1684 N 0.68686 0.05069 0.84092 0.0
C1685 C 0.65057 0.0429 0.81243 0.0
C1686 C 0.68349 0.01772 0.8058 0.0
C1687 C 0.66429 0.05649 0.83393 0.0
C1688 C 0.58447 0.97551 0.80436 0.0
N1689 N 0.59028 0.99968 0.7959 0.0
C1690 C 0.56832 0.01846 0.82871 0.0
C1691 C 0.5823 0.0209 0.80748 0.0
C1692 C 0.56238 0.9939 0.83813 0.0
C1693 C 0.57022 0.97208 0.82546 0.0
H1694 H 0.59119 0.95896 0.79491 0.0
H1695 H 0.58736 0.03996 0.80087 0.0
C1696 C 0.65684 0.08281 0.73618 0.0
N1697 N 0.66479 0.06468 0.74984 0.0
C1698 C 0.67181 0.10748 0.73556 0.0
C1699 C 0.70333 0.09393 0.76219 0.0
C1700 C 0.68772 0.06956 0.76234 0.0
C1701 C 0.69532 0.11323 0.74879 0.0
H1702 H 0.63881 0.07806 0.72581 0.0
H1703 H 0.69418 0.05441 0.77193 0.0
C1704 C 0.58402 0.95658 0.7403 0.0
N1705 N 0.53592 0.92767 0.73399 0.0
C1706 C 0.58014 0.92915 0.73571 0.0
C1707 C 0.56348 0.9693 0.74169 0.0
C1708 C 0.55566 0.91487 0.73258 0.0
C1709 C 0.5393 0.95436 0.73844 0.0
C1710 C 0.66593 0.02266 0.70662 0.0
C1711 C 0.65943 0.03636 0.68671 0.0
C1712 C 0.69104 0.02553 0.71511 0.0
C1713 C 0.6782 0.05293 0.6757 0.0
C1714 C 0.70926 0.04229 0.70361 0.0
N1715 N 0.70252 0.05554 0.68432 0.0
C1716 C 0.58721 0.02159 0.68473 0.0
C1717 C 0.58179 0.97499 0.6781 0.0
C1718 C 0.57308 0.02226 0.66254 0.0
N1719 N 0.59125 0.99826 0.69203 0.0
C1720 C 0.56758 0.97474 0.65553 0.0
C1721 C 0.56323 0.99867 0.64755 0.0
H1722 H 0.59528 0.03977 0.69607 0.0
H1723 H 0.58557 0.95674 0.68432 0.0
C1724 C 0.67124 0.95153 0.76933 0.0
N1725 N 0.66732 0.96214 0.74746 0.0
C1726 C 0.69014 0.93682 0.77149 0.0
C1727 C 0.70038 0.94431 0.72853 0.0
C1728 C 0.68112 0.95863 0.72712 0.0
C1729 C 0.70518 0.93342 0.75101 0.0
H1730 H 0.65995 0.95492 0.78518 0.0
H1731 H 0.67752 0.96742 0.71002 0.0
O1732 O 0.60789 0.03138 0.74584 0.0
O1733 O 0.64723 0.00987 0.77709 0.0
O1734 O 0.60788 0.9708 0.74335 0.0
O1735 O 0.64776 0.00688 0.71807 0.0
H1736 H 0.62455 0.07554 0.77581 0.0
H1737 H 0.56061 0.03068 0.731 0.0
H1738 H 0.59964 0.11003 0.78696 0.0
H1739 H 0.53676 0.06588 0.74321 0.0
H1740 H 0.71467 0.02762 0.83342 0.0
H1741 H 0.6327 0.04754 0.80689 0.0
H1742 H 0.6914 0.00283 0.79493 0.0
H1743 H 0.65699 0.07166 0.84507 0.0
H1744 H 0.56295 0.03586 0.83818 0.0
H1745 H 0.56571 0.95272 0.83199 0.0
H1746 H 0.66488 0.12203 0.72529 0.0
H1747 H 0.72151 0.09763 0.77233 0.0
H1748 H 0.59589 0.91902 0.73459 0.0
H1749 H 0.5662 0.99046 0.7454 0.0
H1750 H 0.55236 0.89363 0.72903 0.0
H1751 H 0.52322 0.96397 0.7395 0.0
H1752 H 0.64009 0.03437 0.67993 0.0
H1753 H 0.69635 0.01536 0.73077 0.0
H1754 H 0.67343 0.06376 0.66034 0.0
H1755 H 0.72874 0.04488 0.71013 0.0
H1756 H 0.57006 0.04109 0.65704 0.0
H1757 H 0.56063 0.95622 0.64419 0.0
H1758 H 0.69273 0.92796 0.78883 0.0
H1759 H 0.71147 0.94188 0.71229 0.0
Li1760 Li 0.76759 0.67681 0.02099 0.0
Li1761 Li 0.78764 0.64319 0.99862 0.0
Li1762 Li 0.76948 0.67684 0.97417 0.0
Li1763 Li 0.74065 0.64036 0.99473 0.0
C1764 C 0.81567 0.70122 0.0139 0.0
N1765 N 0.85122 0.73921 0.04148 0.0
C1766 C 0.82908 0.69478 0.03466 0.0
C1767 C 0.82038 0.72696 0.00709 0.0
C1768 C 0.84695 0.71427 0.0484 0.0
C1769 C 0.83844 0.74589 0.02128 0.0
C1770 C 0.76475 0.62399 0.04369 0.0
C1771 C 0.75324 0.5834 0.06259 0.0
N1772 N 0.76855 0.59383 0.08331 0.0
C1773 C 0.78022 0.63438 0.06523 0.0
C1774 C 0.751 0.59837 0.04239 0.0
C1775 C 0.78196 0.61879 0.08503 0.0
C1776 C 0.74954 0.68435 0.06946 0.0
N1777 N 0.76599 0.6969 0.05395 0.0
C1778 C 0.77775 0.73322 0.08619 0.0
C1779 C 0.77964 0.72123 0.06172 0.0
C1780 C 0.76141 0.72029 0.10283 0.0
C1781 C 0.74711 0.69554 0.09402 0.0
H1782 H 0.73844 0.66529 0.06286 0.0
H1783 H 0.79203 0.73145 0.04909 0.0
C1784 C 0.82235 0.61283 0.97687 0.0
N1785 N 0.81461 0.62278 0.9992 0.0
C1786 C 0.84181 0.59836 0.97654 0.0
C1787 C 0.84552 0.60491 0.02213 0.0
C1788 C 0.82586 0.61904 0.0216 0.0
C1789 C 0.85392 0.59445 0.99939 0.0
H1790 H 0.81349 0.61619 0.9592 0.0
H1791 H 0.81994 0.62736 0.03915 0.0
C1792 C 0.73294 0.7012 0.00547 0.0
N1793 N 0.71997 0.7464 0.02846 0.0
C1794 C 0.71286 0.69945 0.02118 0.0
C1795 C 0.74639 0.72587 1.00134 0.0
C1796 C 0.70661 0.72255 0.03267 0.0
C1797 C 0.73954 0.74851 0.01315 0.0
C1798 C 0.76066 0.61261 0.95407 0.0
C1799 C 0.75751 0.60964 0.92769 0.0
C1800 C 0.75985 0.59041 0.96723 0.0
C1801 C 0.75357 0.58436 0.91484 0.0
C1802 C 0.75587 0.56548 0.9537 0.0
N1803 N 0.75284 0.56299 0.928 0.0
C1804 C 0.79545 0.70765 0.93747 0.0
C1805 C 0.75147 0.69672 0.92968 0.0
C1806 C 0.79777 0.72109 0.91571 0.0
N1807 N 0.77252 0.69597 0.94418 0.0
C1808 C 0.75296 0.70981 0.90767 0.0
C1809 C 0.77633 0.72247 0.9005 0.0
H1810 H 0.81201 0.70643 0.94894 0.0
H1811 H 0.73344 0.68711 0.9352 0.0
C1812 C 0.69479 0.62062 0.01454 0.0
N1813 N 0.70794 0.6181 0.99349 0.0
C1814 C 0.67036 0.60654 0.01527 0.0
C1815 C 0.67363 0.58667 0.97293 0.0
C1816 C 0.69785 0.60152 0.97285 0.0
C1817 C 0.65938 0.58916 0.99428 0.0
H1818 H 0.70318 0.63397 0.0307 0.0
H1819 H 0.70838 0.59995 0.95615 0.0
O1820 O 0.79821 0.68239 1.00013 0.0
O1821 O 0.76237 0.63909 0.02432 0.0
O1822 O 0.74001 0.67888 0.99484 0.0
O1823 O 0.76459 0.63718 0.96692 0.0
H1824 H 0.82564 0.67499 0.04018 0.0
H1825 H 0.8101 0.73232 0.99113 0.0
H1826 H 0.85742 0.70958 0.06456 0.0
H1827 H 0.84223 0.7659 0.01628 0.0
H1828 H 0.74274 0.56353 0.06183 0.0
H1829 H 0.79089 0.65424 0.06658 0.0
H1830 H 0.73864 0.59018 0.02601 0.0
H1831 H 0.79395 0.62653 0.10176 0.0
H1832 H 0.78896 0.75246 0.09204 0.0
H1833 H 0.7346 0.68453 0.10618 0.0
H1834 H 0.84722 0.59026 0.95852 0.0
H1835 H 0.8544 0.60267 0.04021 0.0
H1836 H 0.70237 0.68047 0.02466 0.0
H1837 H 0.7621 0.72748 0.98935 0.0
H1838 H 0.69119 0.72152 0.045 0.0
H1839 H 0.74984 0.76775 0.01022 0.0
H1840 H 0.75811 0.62669 0.91728 0.0
H1841 H 0.76241 0.59245 0.98764 0.0
H1842 H 0.75111 0.58173 0.89441 0.0
H1843 H 0.75522 0.54811 0.96363 0.0
H1844 H 0.81623 0.73008 0.91069 0.0
H1845 H 0.73594 0.71036 0.89657 0.0
H1846 H 0.66003 0.60984 0.03188 0.0
H1847 H 0.6661 0.57346 0.95634 0.0
Li1848 Li 0.89003 0.51745 0.77971 0.0
Li1849 Li 0.92484 0.55096 0.80333 0.0
Li1850 Li 0.89066 0.56424 0.77531 0.0
Li1851 Li 0.92171 0.54316 0.75889 0.0
C1852 C 0.87435 0.5443 0.8278 0.0
N1853 N 0.84781 0.54097 0.87102 0.0
C1854 C 0.88437 0.53537 0.84929 0.0
C1855 C 0.85082 0.55161 0.82838 0.0
C1856 C 0.87068 0.53382 0.87094 0.0
C1857 C 0.83769 0.54974 0.85037 0.0
C1858 C 0.94263 0.50428 0.77123 0.0
C1859 C 0.9848 0.49722 0.76571 0.0
N1860 N 0.97612 0.47824 0.7464 0.0
C1861 C 0.93411 0.48467 0.75142 0.0
C1862 C 0.96816 0.5106 0.77851 0.0
C1863 C 0.95134 0.47175 0.73906 0.0
C1864 C 0.86223 0.46882 0.75917 0.0
N1865 N 0.8688 0.48445 0.78126 0.0
C1866 C 0.84318 0.45347 0.80411 0.0
C1867 C 0.85985 0.47716 0.80354 0.0
C1868 C 0.83585 0.43712 0.78154 0.0
C1869 C 0.84578 0.44489 0.75889 0.0
H1870 H 0.86967 0.47503 0.74171 0.0
H1871 H 0.86555 0.48967 0.82087 0.0
C1872 C 0.95117 0.57964 0.84887 0.0
N1873 N 0.94503 0.55655 0.83367 0.0
C1874 C 0.96421 0.58033 0.87229 0.0
C1875 C 0.96486 0.53387 0.86313 0.0
C1876 C 0.95186 0.53405 0.84022 0.0
C1877 C 0.97058 0.55699 0.87969 0.0
H1878 H 0.94529 0.5972 0.84318 0.0
H1879 H 0.94624 0.51587 0.82809 0.0
C1880 C 0.86067 0.52785 0.7403 0.0
N1881 N 0.8104 0.51557 0.72461 0.0
C1882 C 0.85333 0.52336 0.71448 0.0
C1883 C 0.84233 0.52598 0.75805 0.0
C1884 C 0.82786 0.51724 0.70694 0.0
C1885 C 0.81707 0.51976 0.74979 0.0
C1886 C 0.94329 0.59389 0.7661 0.0
C1887 C 0.93507 0.60123 0.74303 0.0
C1888 C 0.9681 0.60274 0.7753 0.0
C1889 C 0.95202 0.61696 0.72923 0.0
C1890 C 0.98446 0.61853 0.76097 0.0
N1891 N 0.97616 0.62521 0.73841 0.0
C1892 C 0.86324 0.60425 0.79023 0.0
C1893 C 0.86162 0.59011 0.74635 0.0
C1894 C 0.84608 0.62063 0.78597 0.0
N1895 N 0.8702 0.58909 0.77053 0.0
C1896 C 0.84398 0.60553 0.74132 0.0
C1897 C 0.83608 0.62114 0.76125 0.0
H1898 H 0.87075 0.60333 0.80921 0.0
H1899 H 0.86813 0.57854 0.73093 0.0
C1900 C 0.92955 0.53619 0.70774 0.0
N1901 N 0.94208 0.54252 0.73072 0.0
C1902 C 0.94252 0.53704 0.68579 0.0
C1903 C 0.98134 0.55002 0.71149 0.0
C1904 C 0.96751 0.54919 0.73303 0.0
C1905 C 0.96864 0.54432 0.68764 0.0
H1906 H 0.90945 0.53087 0.70647 0.0
H1907 H 0.97703 0.55435 0.75154 0.0
O1908 O 0.88777 0.54648 0.80658 0.0
O1909 O 0.92606 0.51727 0.7834 0.0
O1910 O 0.88566 0.53412 0.74793 0.0
O1911 O 0.92707 0.57827 0.77973 0.0
H1912 H 0.9023 0.52924 0.84919 0.0
H1913 H 0.84267 0.55868 0.81208 0.0
H1914 H 0.87821 0.52685 0.88764 0.0
H1915 H 0.81945 0.5553 0.85102 0.0
H1916 H 0.00463 0.50203 0.77102 0.0
H1917 H 0.91446 0.47967 0.74545 0.0
H1918 H 0.97516 0.52602 0.79355 0.0
H1919 H 0.94503 0.4566 0.72361 0.0
H1920 H 0.83605 0.44803 0.82199 0.0
H1921 H 0.8412 0.43245 0.74119 0.0
H1922 H 0.96836 0.59844 0.88484 0.0
H1923 H 0.96962 0.51556 0.86829 0.0
H1924 H 0.86706 0.52475 0.7003 0.0
H1925 H 0.84751 0.52896 0.77798 0.0
H1926 H 0.82198 0.51383 0.68704 0.0
H1927 H 0.80276 0.5182 0.76342 0.0
H1928 H 0.91591 0.59449 0.73569 0.0
H1929 H 0.97467 0.59727 0.7932 0.0
H1930 H 0.94601 0.62256 0.7112 0.0
H1931 H 0.00377 0.62542 0.76776 0.0
H1932 H 0.84071 0.63272 0.8018 0.0
H1933 H 0.83643 0.60492 0.72207 0.0
H1934 H 0.93229 0.53222 0.66753 0.0
H1935 H 1.00155 0.55567 0.71337 0.0
Li1936 Li 0.74849 0.38109 0.52684 0.0
Li1937 Li 0.72918 0.413 0.50842 0.0
Li1938 Li 0.74591 0.37664 0.4816 0.0
Li1939 Li 0.77447 0.41444 0.50754 0.0
C1940 C 0.69921 0.3588 0.51555 0.0
N1941 N 0.66232 0.32785 0.53927 0.0
C1942 C 0.6909 0.36847 0.53846 0.0
C1943 C 0.68869 0.33348 0.50457 0.0
C1944 C 0.67226 0.35249 0.5502 0.0
C1945 C 0.67007 0.31812 0.51689 0.0
C1946 C 0.75827 0.44494 0.54763 0.0
C1947 C 0.76275 0.49121 0.54235 0.0
N1948 N 0.76471 0.4969 0.56794 0.0
C1949 C 0.76024 0.45126 0.57388 0.0
C1950 C 0.75945 0.46507 0.53175 0.0
C1951 C 0.76354 0.47764 0.58377 0.0
C1952 C 0.76209 0.37366 0.57587 0.0
N1953 N 0.74865 0.36094 0.55481 0.0
C1954 C 0.7399 0.32106 0.57453 0.0
C1955 C 0.73779 0.33507 0.55364 0.0
C1956 C 0.75386 0.33375 0.59636 0.0
C1957 C 0.76497 0.36036 0.597 0.0
H1958 H 0.77112 0.39398 0.57596 0.0
H1959 H 0.72807 0.32512 0.53634 0.0
C1960 C 0.69233 0.44098 0.49053 0.0
N1961 N 0.70402 0.43405 0.51125 0.0
C1962 C 0.67498 0.45781 0.4934 0.0
C1963 C 0.68288 0.4607 0.53874 0.0
C1964 C 0.69919 0.44308 0.53503 0.0
C1965 C 0.67011 0.46798 0.51783 0.0
H1966 H 0.69654 0.43351 0.47181 0.0
H1967 H 0.70841 0.43703 0.55125 0.0
C1968 C 0.78822 0.36132 0.51667 0.0
N1969 N 0.81286 0.32989 0.54392 0.0
C1970 C 0.80746 0.37278 0.53466 0.0
C1971 C 0.78157 0.33392 0.5124 0.0
C1972 C 0.81967 0.35653 0.54828 0.0
C1973 C 0.79425 0.31836 0.5264 0.0
C1974 C 0.76011 0.42983 0.45984 0.0
C1975 C 0.77478 0.41885 0.44233 0.0
C1976 C 0.75527 0.45514 0.45771 0.0
C1977 C 0.78497 0.43364 0.42336 0.0
C1978 C 0.7658 0.46931 0.43848 0.0
N1979 N 0.78034 0.45838 0.42187 0.0
C1980 C 0.7231 0.34604 0.43563 0.0
C1981 C 0.7655 0.3445 0.44664 0.0
C1982 C 0.72392 0.33005 0.41303 0.0
N1983 N 0.7439 0.35324 0.4516 0.0
C1984 C 0.76712 0.32855 0.42446 0.0
C1985 C 0.74637 0.32168 0.40708 0.0
H1986 H 0.70615 0.35325 0.4401 0.0
H1987 H 0.7818 0.35063 0.45957 0.0
C1988 C 0.81726 0.45386 0.52684 0.0
N1989 N 0.80749 0.43502 0.50773 0.0
C1990 C 0.84206 0.46675 0.52708 0.0
C1991 C 0.8469 0.44002 0.48855 0.0
C1992 C 0.82186 0.42784 0.48889 0.0
C1993 C 0.85732 0.45952 0.50802 0.0
H1994 H 0.80634 0.45848 0.54249 0.0
H1995 H 0.81414 0.41193 0.47462 0.0
O1996 O 0.71746 0.37407 0.50379 0.0
O1997 O 0.75432 0.41912 0.53773 0.0
O1998 O 0.77558 0.37688 0.50369 0.0
O1999 O 0.74977 0.41555 0.47839 0.0
H2000 H 0.699 0.38797 0.54723 0.0
H2001 H 0.69496 0.32578 0.48679 0.0
H2002 H 0.66573 0.35965 0.56802 0.0
H2003 H 0.66179 0.29844 0.50869 0.0
H2004 H 0.76376 0.50696 0.53025 0.0
H2005 H 0.75901 0.43594 0.58651 0.0
H2006 H 0.75801 0.46052 0.5115 0.0
H2007 H 0.76506 0.48279 0.60405 0.0
H2008 H 0.73128 0.30044 0.57348 0.0
H2009 H 0.77575 0.37072 0.61368 0.0
H2010 H 0.66544 0.46269 0.47671 0.0
H2011 H 0.68057 0.46869 0.55787 0.0
H2012 H 0.81267 0.39398 0.53831 0.0
H2013 H 0.76652 0.3248 0.4987 0.0
H2014 H 0.8345 0.3651 0.56239 0.0
H2015 H 0.7892 0.29712 0.52344 0.0
H2016 H 0.77843 0.39918 0.44346 0.0
H2017 H 0.74334 0.46371 0.47059 0.0
H2018 H 0.79653 0.42543 0.40981 0.0
H2019 H 0.76231 0.48897 0.43669 0.0
H2020 H 0.70762 0.32522 0.39989 0.0
H2021 H 0.7847 0.32235 0.42052 0.0
H2022 H 0.84933 0.48189 0.54232 0.0
H2023 H 0.85821 0.43361 0.47372 0.0
Li2024 Li 0.63335 0.51149 0.31054 0.0
Li2025 Li 0.6677 0.54184 0.28982 0.0
Li2026 Li 0.63323 0.51302 0.26405 0.0
Li2027 Li 0.66612 0.49279 0.28379 0.0
C2028 C 0.61156 0.55223 0.28332 0.0
N2029 N 0.5713 0.57256 0.26588 0.0
C2030 C 0.61547 0.5768 0.27392 0.0
C2031 C 0.58726 0.53801 0.284 0.0
C2032 C 0.59484 0.58673 0.26515 0.0
C2033 C 0.56713 0.54863 0.27505 0.0
C2034 C 0.69428 0.52538 0.32877 0.0
C2035 C 0.73932 0.53316 0.32855 0.0
N2036 N 0.74082 0.54263 0.35342 0.0
C2037 C 0.69621 0.53523 0.35429 0.0
C2038 C 0.71594 0.52436 0.31574 0.0
C2039 C 0.71994 0.54384 0.36643 0.0
C2040 C 0.60739 0.48588 0.35054 0.0
N2041 N 0.61327 0.50891 0.3399 0.0
C2042 C 0.59021 0.53023 0.37045 0.0
C2043 C 0.60508 0.5309 0.34952 0.0
C2044 C 0.58364 0.50672 0.38183 0.0
C2045 C 0.59266 0.48438 0.37164 0.0
H2046 H 0.61419 0.46865 0.34268 0.0
H2047 H 0.61001 0.54902 0.34084 0.0
C2048 C 0.6913 0.58512 0.26728 0.0
N2049 N 0.6877 0.57653 0.29048 0.0
C2050 C 0.70369 0.6107 0.26494 0.0
C2051 C 0.70843 0.61858 0.31052 0.0
C2052 C 0.69607 0.59261 0.31199 0.0
C2053 C 0.71202 0.62807 0.28672 0.0
H2054 H 0.68409 0.5722 0.25046 0.0
H2055 H 0.69264 0.58554 0.33026 0.0
C2056 C 0.61124 0.46159 0.27076 0.0
N2057 N 0.57594 0.42179 0.24525 0.0
C2058 C 0.61783 0.44613 0.25004 0.0
C2059 C 0.58675 0.45676 0.2786 0.0
C2060 C 0.59969 0.42612 0.23736 0.0
C2061 C 0.56916 0.43655 0.26542 0.0
C2062 C 0.68263 0.51532 0.23822 0.0
C2063 C 0.67101 0.50113 0.21593 0.0
C2064 C 0.70813 0.5262 0.23917 0.0
C2065 C 0.6852 0.49795 0.19493 0.0
C2066 C 0.72166 0.52259 0.21775 0.0
N2067 N 0.71002 0.50865 0.19626 0.0
C2068 C 0.62261 0.53761 0.2218 0.0
C2069 C 0.59383 0.49762 0.22245 0.0
C2070 C 0.6114 0.54235 0.19897 0.0
N2071 N 0.61385 0.51551 0.23308 0.0
C2072 C 0.58238 0.50132 0.19929 0.0
C2073 C 0.59127 0.52387 0.18727 0.0
H2074 H 0.6386 0.55151 0.2305 0.0
H2075 H 0.5868 0.48037 0.23163 0.0
C2076 C 0.69591 0.45621 0.30114 0.0
N2077 N 0.68635 0.46508 0.28018 0.0
C2078 C 0.71001 0.43599 0.29881 0.0
C2079 C 0.7045 0.43448 0.25344 0.0
C2080 C 0.69042 0.45452 0.25663 0.0
C2081 C 0.71449 0.42477 0.27466 0.0
H2082 H 0.6923 0.46458 0.31973 0.0
H2083 H 0.68244 0.46128 0.24016 0.0
O2084 O 0.63149 0.54193 0.2915 0.0
O2085 O 0.67124 0.51699 0.31655 0.0
O2086 O 0.62876 0.48104 0.28363 0.0
O2087 O 0.669 0.51901 0.25886 0.0
H2088 H 0.63423 0.58795 0.27324 0.0
H2089 H 0.58404 0.5189 0.29115 0.0
H2090 H 0.59753 0.60569 0.25771 0.0
H2091 H 0.5482 0.53782 0.27536 0.0
H2092 H 0.75626 0.53246 0.31872 0.0
H2093 H 0.67955 0.53621 0.36456 0.0
H2094 H 0.7147 0.5168 0.29598 0.0
H2095 H 0.72176 0.55149 0.38619 0.0
H2096 H 0.58367 0.54793 0.37749 0.0
H2097 H 0.58866 0.46598 0.38007 0.0
H2098 H 0.70662 0.6168 0.24619 0.0
H2099 H 0.71453 0.6313 0.3278 0.0
H2100 H 0.63667 0.44968 0.24371 0.0
H2101 H 0.58142 0.4685 0.29468 0.0
H2102 H 0.60447 0.41405 0.22123 0.0
H2103 H 0.55012 0.43261 0.27123 0.0
H2104 H 0.65134 0.49235 0.21494 0.0
H2105 H 0.71733 0.53744 0.25621 0.0
H2106 H 0.6765 0.48692 0.17758 0.0
H2107 H 0.74142 0.53091 0.2182 0.0
H2108 H 0.61886 0.55987 0.19015 0.0
H2109 H 0.5668 0.48667 0.19078 0.0
H2110 H 0.71669 0.42874 0.31578 0.0
H2111 H 0.70737 0.42652 0.23444 0.0
Dy2112 Dy 0.98536 0.01672 0.006 0.0
C2113 C 0.09256 0.03452 0.01162 0.0
C2114 C 0.93492 0.01335 0.00876 0.0
Dy2115 Dy 0.04231 0.03035 0.01595 0.0
O2116 O 0.94658 0.01212 0.98797 0.0
O2117 O 0.95076 0.01448 0.02795 0.0
O2118 O 0.99057 0.0155 0.96401 0.0
O2119 O 0.01735 0.00433 0.98795 0.0
C2120 C 0.01235 0.00863 0.96555 0.0
C2121 C 0.01586 0.03773 0.05679 0.0
O2122 O 0.03571 0.06607 0.99756 0.0
O2123 O 0.99309 0.05986 0.00282 0.0
O2124 O 0.08165 0.03674 0.0328 0.0
O2125 O 0.07601 0.03164 0.99281 0.0
O2126 O 0.0381 0.03188 0.05788 0.0
O2127 O 0.01032 0.04229 0.03452 0.0
O2128 O 0.99169 0.98096 0.02445 0.0
O2129 O 0.03471 0.98739 0.02059 0.0
C2130 C 0.01388 0.07402 0.99574 0.0
C2131 C 0.01353 0.97304 0.02671 0.0
Dy2132 Dy 0.26783 0.77529 0.23299 0.0
C2133 C 0.27027 0.76287 0.33797 0.0
C2134 C 0.25808 0.7882 0.18578 0.0
Dy2135 Dy 0.26303 0.77607 0.29049 0.0
O2136 O 0.27636 0.77638 0.19188 0.0
O2137 O 0.24545 0.79265 0.20534 0.0
O2138 O 0.30226 0.75656 0.23574 0.0
O2139 O 0.29385 0.78183 0.26594 0.0
C2140 C 0.30811 0.76618 0.25922 0.0
C2141 C 0.2231 0.78577 0.26466 0.0
O2142 O 0.28405 0.8171 0.28981 0.0
O2143 O 0.27758 0.81841 0.24655 0.0
O2144 O 0.25652 0.77979 0.33213 0.0
O2145 O 0.27982 0.7534 0.318 0.0
O2146 O 0.22899 0.79501 0.28817 0.0
O2147 O 0.23695 0.76973 0.25771 0.0
O2148 O 0.24821 0.73385 0.23317 0.0
O2149 O 0.25325 0.73294 0.2767 0.0
C2150 C 0.28517 0.83016 0.26949 0.0
C2151 C 0.24698 0.72096 0.25356 0.0
Dy2152 Dy 0.54544 0.02566 0.51281 0.0
C2153 C 0.44127 0.04088 0.50749 0.0
C2154 C 0.59114 0.01031 0.51653 0.0
Dy2155 Dy 0.48687 0.02575 0.51431 0.0
O2156 O 0.57922 0.01332 0.49564 0.0
O2157 O 0.57848 0.01676 0.53565 0.0
O2158 O 0.54658 0.04926 0.47929 0.0
O2159 O 0.514 0.02271 0.48602 0.0
C2160 C 0.52307 0.04025 0.47252 0.0
C2161 C 0.5093 0.01181 0.55507 0.0
O2162 O 0.48544 0.98545 0.49433 0.0
O2163 O 0.52639 0.98297 0.50715 0.0
O2164 O 0.44798 0.02888 0.52635 0.0
O2165 O 0.45922 0.04378 0.49201 0.0
O2166 O 0.48565 0.00318 0.54868 0.0
O2167 O 0.51831 0.02885 0.54107 0.0
O2168 O 0.54797 0.06671 0.53116 0.0
O2169 O 0.50562 0.06835 0.52349 0.0
C2170 C 0.50384 0.97188 0.49673 0.0
C2171 C 0.52903 0.0798 0.53109 0.0
Dy2172 Dy 0.2365 0.27107 0.761 0.0
C2173 C 0.34527 0.27833 0.75467 0.0
C2174 C 0.18764 0.25675 0.7715 0.0
Dy2175 Dy 0.29573 0.27296 0.76433 0.0
O2176 O 0.19527 0.26882 0.752 0.0
O2177 O 0.20668 0.25169 0.78446 0.0
O2178 O 0.23765 0.31388 0.75414 0.0
O2179 O 0.27014 0.29919 0.75882 0.0
C2180 C 0.26198 0.31969 0.7549 0.0
C2181 C 0.26632 0.22936 0.77764 0.0
O2182 O 0.29165 0.29385 0.80251 0.0
O2183 O 0.24829 0.28032 0.80251 0.0
O2184 O 0.33011 0.25619 0.75598 0.0
O2185 O 0.33346 0.29783 0.75922 0.0
O2186 O 0.28876 0.23855 0.78777 0.0
O2187 O 0.26173 0.24285 0.76009 0.0
O2188 O 0.24131 0.25299 0.72178 0.0
O2189 O 0.2849 0.26604 0.72237 0.0
C2190 C 0.2703 0.29115 0.81424 0.0
C2191 C 0.2628 0.25615 0.71024 0.0
Dy2192 Dy 0.00815 0.01776 0.48561 0.0
C2193 C 0.05136 0.04617 0.58855 0.0
C2194 C 0.98478 0.01327 0.43826 0.0
Dy2195 Dy 0.02352 0.0387 0.5436 0.0
O2196 O 0.00498 0.0042 0.44371 0.0
O2197 O 0.97694 0.02371 0.45886 0.0
O2198 O 0.04813 0.01291 0.48018 0.0
O2199 O 0.04067 0.04165 0.50726 0.0
C2200 C 0.05789 0.0309 0.49834 0.0
C2201 C 0.97378 0.01863 0.53708 0.0
O2202 O 0.02399 0.07787 0.52832 0.0
O2203 O 0.00853 0.06131 0.48701 0.0
O2204 O 0.03154 0.05636 0.58419 0.0
O2205 O 0.0566 0.03323 0.5679 0.0
O2206 O 0.98478 0.02959 0.55859 0.0
O2207 O 0.99009 0.02044 0.52086 0.0
O2208 O 1.002 0.97952 0.50302 0.0
O2209 O 0.02764 0.9962 0.53911 0.0
C2210 C 0.01623 0.08113 0.50492 0.0
C2211 C 0.01446 0.9761 0.52413 0.0
Dy2212 Dy 0.29322 0.78808 0.77098 0.0
C2213 C 0.19293 0.74982 0.73039 0.0
C2214 C 0.3381 0.79622 0.79823 0.0
Dy2215 Dy 0.2383 0.75976 0.75693 0.0
O2216 O 0.33458 0.80535 0.77659 0.0
O2217 O 0.31691 0.78406 0.80525 0.0
O2218 O 0.2991 0.79524 0.73028 0.0
O2219 O 0.27371 0.76267 0.73919 0.0
C2220 C 0.28169 0.77544 0.72134 0.0
C2221 C 0.25015 0.77232 0.80656 0.0
O2222 O 0.25591 0.72338 0.75492 0.0
O2223 O 0.29404 0.7451 0.7741 0.0
O2224 O 0.19688 0.74283 0.7529 0.0
O2225 O 0.21394 0.76104 0.72217 0.0
O2226 O 0.23289 0.75236 0.79767 0.0
O2227 O 0.25783 0.78518 0.78866 0.0
O2228 O 0.27564 0.8243 0.77328 0.0
O2229 O 0.23744 0.80294 0.75375 0.0
C2230 C 0.27876 0.72305 0.76478 0.0
C2231 C 0.25298 0.8249 0.76314 0.0
Dy2232 Dy 0.51452 0.01993 0.04384 0.0
C2233 C 0.52194 0.00326 0.93614 0.0
C2234 C 0.50333 0.0239 0.09285 0.0
Dy2235 Dy 0.51339 0.02086 0.98386 0.0
O2236 O 0.51861 0.04178 0.08275 0.0
O2237 O 0.49506 0.00379 0.07644 0.0
O2238 O 0.53457 0.9855 0.03938 0.0
O2239 O 0.50899 0.99135 0.01073 0.0
C2240 C 0.52475 0.9776 0.01663 0.0
C2241 C 0.50991 0.06823 0.00771 0.0
O2242 O 0.47355 0.00402 0.98846 0.0
O2243 O 0.47393 0.01683 0.03177 0.0
O2244 O 0.50546 0.01799 0.94182 0.0
O2245 O 0.53341 0.99826 0.95651 0.0
O2246 O 0.51036 0.06415 0.98316 0.0
O2247 O 0.51203 0.04722 0.01667 0.0
O2248 O 0.55323 0.04119 0.03989 0.0
O2249 O 0.55405 0.0302 0.99635 0.0
C2250 C 0.46191 0.00761 0.00959 0.0
C2251 C 0.56529 0.03965 0.01878 0.0
Dy2252 Dy 0.27574 0.30751 0.26803 0.0
C2253 C 0.26399 0.19438 0.24966 0.0
C2254 C 0.26861 0.35651 0.26092 0.0
Dy2255 Dy 0.26146 0.24636 0.2524 0.0
O2256 O 0.28437 0.35136 0.27811 0.0
O2257 O 0.25734 0.33507 0.24775 0.0
O2258 O 0.28652 0.30672 0.30962 0.0
O2259 O 0.27397 0.27209 0.2864 0.0
C2260 C 0.28075 0.28113 0.30903 0.0
C2261 C 0.25136 0.27725 0.21679 0.0
O2262 O 0.227 0.25147 0.27214 0.0
O2263 O 0.23524 0.29743 0.2768 0.0
O2264 O 0.26849 0.2091 0.23131 0.0
O2265 O 0.25684 0.20791 0.26884 0.0
O2266 O 0.23809 0.25398 0.21873 0.0
O2267 O 0.26973 0.2814 0.23287 0.0
O2268 O 0.31202 0.30187 0.25215 0.0
O2269 O 0.30344 0.25593 0.24969 0.0
C2270 C 0.22078 0.27446 0.27934 0.0
C2271 C 0.31876 0.27858 0.24728 0.0
Dy2272 Dy 0.50557 0.51417 0.98444 0.0
C2273 C 0.54909 0.53762 0.08785 0.0
C2274 C 0.47595 0.50909 0.94092 0.0
Dy2275 Dy 0.52308 0.53546 0.0422 0.0
O2276 O 0.49421 0.49626 0.94433 0.0
O2277 O 0.47311 0.52313 0.9618 0.0
O2278 O 0.54384 0.52266 0.96818 0.0
O2279 O 0.53986 0.53102 0.00633 0.0
C2280 C 0.55565 0.53266 0.98962 0.0
C2281 C 0.47311 0.52422 0.03069 0.0
O2282 O 0.53107 0.57309 0.02366 0.0
O2283 O 0.50291 0.55697 0.98929 0.0
O2284 O 0.53236 0.55202 0.08332 0.0
O2285 O 0.55196 0.52324 0.06732 0.0
O2286 O 0.4836 0.5417 0.04903 0.0
O2287 O 0.48972 0.51284 0.02143 0.0
O2288 O 0.50427 0.47493 0.99974 0.0
O2289 O 0.52026 0.49146 0.04092 0.0
C2290 C 0.51827 0.57658 1.00278 0.0
C2291 C 0.51205 0.47159 0.02314 0.0
Dy2292 Dy 0.79894 0.29179 0.27388 0.0
C2293 C 0.69691 0.25616 0.23128 0.0
C2294 C 0.84376 0.3069 0.30051 0.0
Dy2295 Dy 0.74383 0.26613 0.25492 0.0
O2296 O 0.83818 0.31492 0.27881 0.0
O2297 O 0.82422 0.29211 0.30831 0.0
O2298 O 0.81465 0.27497 0.23939 0.0
O2299 O 0.77801 0.28208 0.2372 0.0
C2300 C 0.79391 0.27122 0.22564 0.0
C2301 C 0.75409 0.27325 0.30551 0.0
O2302 O 0.76205 0.23084 0.25012 0.0
O2303 O 0.79479 0.24851 0.27956 0.0
O2304 O 0.70188 0.2594 0.25554 0.0
O2305 O 0.71769 0.25738 0.21979 0.0
O2306 O 0.73783 0.25358 0.29433 0.0
O2307 O 0.76256 0.2878 0.28919 0.0
O2308 O 0.78309 0.32914 0.27277 0.0
O2309 O 0.74363 0.30938 0.25421 0.0
C2310 C 0.78203 0.2284 0.26421 0.0
C2311 C 0.76027 0.33058 0.26339 0.0
Dy2312 Dy 0.01745 0.52596 0.54096 0.0
C2313 C 0.01949 0.51217 0.43342 0.0
C2314 C 0.00997 0.5388 0.59027 0.0
Dy2315 Dy 0.01312 0.52452 0.48323 0.0
O2316 O 0.02232 0.5207 0.58222 0.0
O2317 O 1.0019 0.54972 0.57141 0.0
O2318 O 0.03666 0.49111 0.53856 0.0
O2319 O 0.01016 0.49502 0.50986 0.0
C2320 C 0.02642 0.48194 0.51622 0.0
C2321 C 0.00496 0.56883 0.50892 0.0
O2322 O 0.97387 0.50548 0.48804 0.0
O2323 O 0.9759 0.51384 0.5319 0.0
O2324 O 0.01569 0.53494 0.44318 0.0
O2325 O 0.01958 0.49632 0.45083 0.0
O2326 O 0.99354 0.55938 0.4871 0.0
O2327 O 0.02116 0.55541 0.51447 0.0
O2328 O 0.05619 0.54595 0.53525 0.0
O2329 O 0.05472 0.53258 0.49227 0.0
C2330 C 0.96314 0.5054 0.50995 0.0
C2331 C 0.06739 0.54277 0.51383 0.0
Dy2332 Dy 0.73788 0.77988 0.26101 0.0
C2333 C 0.8429 0.7877 0.25271 0.0
C2334 C 0.689 0.77687 0.27315 0.0
Dy2335 Dy 0.79341 0.77921 0.26341 0.0
O2336 O 0.70595 0.79807 0.27519 0.0
O2337 O 0.6985 0.75717 0.26347 0.0
O2338 O 0.74419 0.81437 0.23829 0.0
O2339 O 0.7717 0.81067 0.26599 0.0
C2340 C 0.76646 0.82405 0.24846 0.0
C2341 C 0.7649 0.7344 0.27496 0.0
O2342 O 0.79061 0.79927 0.30223 0.0
O2343 O 0.74856 0.7818 0.30255 0.0
O2344 O 0.83286 0.77168 0.26842 0.0
O2345 O 0.82599 0.79948 0.24343 0.0
O2346 O 0.78755 0.74321 0.28457 0.0
O2347 O 0.75981 0.74859 0.25818 0.0
O2348 O 0.73905 0.7622 0.22105 0.0
O2349 O 0.78247 0.76902 0.22166 0.0
C2350 C 0.76994 0.7937 0.31463 0.0
C2351 C 0.76013 0.76182 0.20935 0.0
Dy2352 Dy 0.76735 0.27711 0.73887 0.0
C2353 C 0.76906 0.26289 0.84354 0.0
C2354 C 0.76362 0.28787 0.68999 0.0
Dy2355 Dy 0.76113 0.27578 0.79592 0.0
O2356 O 0.78444 0.28733 0.70259 0.0
O2357 O 0.74482 0.28223 0.70403 0.0
O2358 O 0.80073 0.25725 0.74232 0.0
O2359 O 0.7927 0.28313 0.77236 0.0
C2360 C 0.80679 0.26727 0.7656 0.0
C2361 C 0.72175 0.28603 0.7695 0.0
O2362 O 0.78067 0.31724 0.7962 0.0
O2363 O 0.77176 0.31991 0.75355 0.0
O2364 O 0.75149 0.27533 0.83675 0.0
O2365 O 0.78193 0.25756 0.8244 0.0
O2366 O 0.72722 0.29499 0.79317 0.0
O2367 O 0.7358 0.27021 0.76256 0.0
O2368 O 0.74993 0.23487 0.73755 0.0
O2369 O 0.75212 0.23293 0.78107 0.0
C2370 C 0.77966 0.3311 0.77663 0.0
C2371 C 0.74741 0.22144 0.75755 0.0
Dy2372 Dy 0.77518 0.80733 0.77034 0.0
C2373 C 0.77046 0.69515 0.74979 0.0
C2374 C 0.76426 0.85406 0.7606 0.0
Dy2375 Dy 0.7638 0.74587 0.75443 0.0
O2376 O 0.7823 0.85167 0.77678 0.0
O2377 O 0.75279 0.83127 0.75019 0.0
O2378 O 0.7851 0.80684 0.81217 0.0
O2379 O 0.77443 0.77215 0.78835 0.0
C2380 C 0.78043 0.78112 0.81109 0.0
C2381 C 0.75381 0.77665 0.71867 0.0
O2382 O 0.72856 0.74867 0.77369 0.0
O2383 O 0.73465 0.79459 0.77793 0.0
O2384 O 0.76956 0.70952 0.73119 0.0
O2385 O 0.76625 0.70813 0.77075 0.0
O2386 O 0.74083 0.75314 0.72017 0.0
O2387 O 0.77156 0.78119 0.73542 0.0
O2388 O 0.81227 0.80371 0.75543 0.0
O2389 O 0.8057 0.7577 0.7517 0.0
C2390 C 0.72108 0.77113 0.78055 0.0
C2391 C 0.8202 0.78111 0.75031 0.0
Dy2392 Dy 0.48846 0.5174 0.50413 0.0
C2393 C 0.59315 0.53177 0.52522 0.0
C2394 C 0.43889 0.52005 0.50104 0.0
Dy2395 Dy 0.54366 0.53478 0.52114 0.0
O2396 O 0.45281 0.51874 0.48183 0.0
O2397 O 0.45178 0.51818 0.52161 0.0
O2398 O 0.49847 0.49314 0.46993 0.0
O2399 O 0.52269 0.52791 0.48479 0.0
C2400 C 0.52029 0.50813 0.46854 0.0
C2401 C 0.51178 0.54406 0.55669 0.0
O2402 O 0.53901 0.57186 0.50487 0.0
O2403 O 0.49566 0.56147 0.50366 0.0
O2404 O 0.57924 0.53497 0.54414 0.0
O2405 O 0.58032 0.53201 0.50418 0.0
O2406 O 0.53354 0.55914 0.55523 0.0
O2407 O 0.50951 0.52429 0.54045 0.0
O2408 O 0.49282 0.48025 0.52016 0.0
O2409 O 0.53619 0.49071 0.52263 0.0
C2410 C 0.51669 0.57826 0.50122 0.0
C2411 C 0.51502 0.47393 0.5247 0.0
Dy2412 Dy 0.04267 0.52378 0.01286 0.0
C2413 C 0.94043 0.5421 0.00622 0.0
C2414 C 0.0884 0.5084 0.01609 0.0
Dy2415 Dy 0.98453 0.52486 0.01526 0.0
O2416 O 0.07615 0.51105 0.99528 0.0
O2417 O 0.07603 0.51513 0.03531 0.0
O2418 O 0.04334 0.54699 0.97901 0.0
O2419 O 0.01079 0.52082 0.98627 0.0
C2420 C 0.01976 0.53811 0.97245 0.0
C2421 C 0.00699 0.5118 0.0565 0.0
O2422 O 0.98296 0.48473 0.99491 0.0
O2423 O 0.02341 0.48112 0.00834 0.0
O2424 O 0.9433 0.52415 0.02114 0.0
O2425 O 0.96145 0.55005 0.99618 0.0
O2426 O 0.98303 0.50434 0.051 0.0
O2427 O 0.01619 0.52787 0.04167 0.0
O2428 O 0.04609 0.56513 0.03106 0.0
O2429 O 0.00363 0.56715 0.02489 0.0
C2430 C 1.00087 0.47063 0.99764 0.0
C2431 C 0.02726 0.57839 0.03161 0.0
C2432 C 0.03195 0.138 0.96553 0.0
C2433 C 0.00861 0.14498 0.95991 0.0
C2434 C 0.03364 0.11545 0.97773 0.0
C2435 C 0.01204 0.099 0.98476 0.0
H2436 H 0.04905 0.15002 0.96034 0.0
H2437 H 0.052 0.11073 0.98133 0.0
S2438 S 0.94627 0.10828 0.97342 0.0
N2439 N 0.96345 0.13335 0.96164 0.0
N2440 N 0.96639 0.09141 0.98482 0.0
C2441 C 0.98856 0.10599 0.9794 0.0
C2442 C 0.98691 0.12885 0.96694 0.0
C2443 C 0.17144 0.77719 0.21264 0.0
C2444 C 0.15668 0.79562 0.22113 0.0
C2445 C 0.19303 0.77434 0.22666 0.0
C2446 C 0.20079 0.78987 0.24971 0.0
H2447 H 0.16621 0.76476 0.19502 0.0
H2448 H 0.20352 0.75959 0.21952 0.0
S2449 S 0.16902 0.8411 0.28029 0.0
N2450 N 0.15145 0.8296 0.25419 0.0
N2451 N 0.19233 0.82462 0.28021 0.0
C2452 C 0.1865 0.80865 0.25823 0.0
C2453 C 0.16443 0.81149 0.244 0.0
C2454 C 0.51994 0.90512 0.47598 0.0
C2455 C 0.49911 0.89236 0.46029 0.0
C2456 C 0.52066 0.93025 0.48844 0.0
C2457 C 0.50066 0.94395 0.48555 0.0
H2458 H 0.53598 0.89566 0.47849 0.0
H2459 H 0.53744 0.93917 0.49998 0.0
S2460 S 0.44145 0.91868 0.44657 0.0
N2461 N 0.45772 0.89473 0.44273 0.0
N2462 N 0.45899 0.94219 0.46597 0.0
C2463 C 0.47937 0.93107 0.4703 0.0
C2464 C 0.47862 0.90526 0.45772 0.0
C2465 C 0.40599 0.30524 0.72551 0.0
C2466 C 0.41766 0.28308 0.72247 0.0
C2467 C 0.383 0.30395 0.73694 0.0
C2468 C 0.37089 0.28045 0.74569 0.0
H2469 H 0.41421 0.32343 0.71818 0.0
H2470 H 0.37424 0.32118 0.73808 0.0
S2471 S 0.39509 0.21792 0.74507 0.0
N2472 N 0.41651 0.23777 0.73136 0.0
N2473 N 0.37322 0.23522 0.75241 0.0
C2474 C 0.38288 0.25854 0.74374 0.0
C2475 C 0.40627 0.25988 0.73223 0.0
C2476 C 0.02592 0.92251 0.56485 0.0
C2477 C 0.01023 0.89959 0.55327 0.0
C2478 C 0.02747 0.94668 0.55482 0.0
C2479 C 0.01327 0.94933 0.53271 0.0
H2480 H 0.03681 0.922 0.58226 0.0
H2481 H 0.03976 0.96353 0.56492 0.0
S2482 S 0.96984 0.89511 0.49437 0.0
N2483 N 0.98085 0.88078 0.51775 0.0
N2484 N 0.9832 0.92651 0.49919 0.0
C2485 C 0.99764 0.92652 0.52066 0.0
C2486 C 0.99619 0.90168 0.53089 0.0
C2487 C 0.40835 0.80067 0.80914 0.0
C2488 C 0.41007 0.78599 0.82993 0.0
C2489 C 0.38506 0.80474 0.79943 0.0
C2490 C 0.36271 0.79454 0.81036 0.0
H2491 H 0.42509 0.80862 0.79998 0.0
H2492 H 0.38454 0.81549 0.78295 0.0
S2493 S 0.35729 0.75652 0.86637 0.0
N2494 N 0.38759 0.76255 0.86198 0.0
N2495 N 0.34395 0.77016 0.8439 0.0
C2496 C 0.3643 0.7805 0.83162 0.0
C2497 C 0.38792 0.77619 0.84134 0.0
C2498 C 0.51175 0.14106 0.02527 0.0
C2499 C 0.50051 0.14176 0.04866 0.0
C2500 C 0.51449 0.11711 0.01209 0.0
C2501 C 0.50662 0.09306 0.02208 0.0
H2502 H 0.5184 0.15919 0.01706 0.0
H2503 H 0.52319 0.11748 0.99411 0.0
S2504 S 0.47549 0.08403 0.08231 0.0
N2505 N 0.48099 0.11624 0.08102 0.0
N2506 N 0.48637 0.07127 0.05634 0.0
C2507 C 0.49524 0.09343 0.04537 0.0
C2508 C 0.49209 0.11778 0.05861 0.0
C2509 C 0.1535 0.25793 0.29835 0.0
C2510 C 0.15331 0.27584 0.32001 0.0
C2511 C 0.17538 0.25733 0.28524 0.0
C2512 C 0.19772 0.27495 0.29304 0.0
H2513 H 0.13655 0.24444 0.29126 0.0
H2514 H 0.17471 0.24331 0.26867 0.0
S2515 S 0.20828 0.32351 0.35 0.0
N2516 N 0.17841 0.30985 0.34987 0.0
N2517 N 0.219 0.30941 0.32465 0.0
C2518 C 0.19797 0.29261 0.31481 0.0
C2519 C 0.17591 0.29292 0.32842 0.0
C2520 C 0.96234 0.05054 0.09796 0.0
C2521 C 0.96911 0.04207 0.12127 0.0
C2522 C 0.97753 0.04929 0.07717 0.0
C2523 C 0.99987 0.03918 0.07882 0.0
H2524 H 0.9454 0.0586 0.09594 0.0
H2525 H 0.97183 0.0565 0.05978 0.0
S2526 S 0.02504 0.013 0.13524 0.0
N2527 N 0.99914 0.02248 0.14448 0.0
N2528 N 0.02743 0.01975 0.1056 0.0
C2529 C 0.00659 0.03034 0.10196 0.0
C2530 C 0.99128 0.03186 0.12311 0.0
C2531 C 0.29338 0.72632 0.38922 0.0
C2532 C 0.27923 0.73254 0.40969 0.0
C2533 C 0.29075 0.73693 0.36632 0.0
C2534 C 0.27391 0.75415 0.3631 0.0
H2535 H 0.30596 0.71243 0.39061 0.0
H2536 H 0.30165 0.7311 0.35086 0.0
S2537 S 0.23406 0.77833 0.41159 0.0
N2538 N 0.24899 0.75825 0.42596 0.0
N2539 N 0.24391 0.77819 0.38259 0.0
C2540 C 0.26029 0.76132 0.38365 0.0
C2541 C 0.26294 0.75045 0.40704 0.0
C2542 C 0.55993 0.01808 0.60688 0.0
C2543 C 0.54961 0.99971 0.62315 0.0
C2544 C 0.54679 0.02144 0.58474 0.0
C2545 C 0.52294 0.00633 0.57781 0.0
H2546 H 0.57819 0.03032 0.61151 0.0
H2547 H 0.55521 0.03651 0.57332 0.0
S2548 S 0.4879 0.95495 0.61338 0.0
N2549 N 0.51427 0.96587 0.63072 0.0
N2550 N 0.48972 0.97178 0.58842 0.0
C2551 C 0.51262 0.98735 0.59345 0.0
C2552 C 0.52597 0.98404 0.61625 0.0
C2553 C 0.28731 0.33205 0.87834 0.0
C2554 C 0.26836 0.32112 0.89373 0.0
C2555 C 0.28837 0.32189 0.85292 0.0
C2556 C 0.2704 0.3005 0.84172 0.0
H2557 H 0.30114 0.34906 0.88579 0.0
H2558 H 0.30294 0.33139 0.84178 0.0
S2559 S 0.21869 0.26265 0.87432 0.0
N2560 N 0.23259 0.28599 0.89618 0.0
N2561 N 0.23422 0.26741 0.84861 0.0
C2562 C 0.25183 0.28889 0.85707 0.0
C2563 C 0.25087 0.29906 0.88294 0.0
C2564 C 0.94307 0.0303 0.38558 0.0
C2565 C 0.95614 0.02592 0.36369 0.0
C2566 C 0.95209 0.02532 0.40944 0.0
C2567 C 0.97451 0.01564 0.41244 0.0
H2568 H 0.92564 0.03758 0.38429 0.0
H2569 H 0.94153 0.02939 0.42573 0.0
S2570 S 0.01625 1.00143 0.36146 0.0
N2571 N 0.99306 0.01181 0.34681 0.0
N2572 N 0.00969 1.00201 0.39154 0.0
C2573 C 0.98764 0.01085 0.39075 0.0
C2574 C 0.97854 0.01609 0.36644 0.0
C2575 C 0.29692 0.76056 0.65311 0.0
C2576 C 0.28109 0.73619 0.64586 0.0
C2577 C 0.29623 0.77388 0.67724 0.0
C2578 C 0.27979 0.76317 0.69492 0.0
H2579 H 0.31003 0.7693 0.64012 0.0
H2580 H 0.30915 0.79229 0.68228 0.0
S2581 S 0.23453 0.69977 0.68507 0.0
N2582 N 0.24872 0.70177 0.6583 0.0
N2583 N 0.2469 0.72697 0.70314 0.0
C2584 C 0.2635 0.73908 0.68761 0.0
C2585 C 0.26431 0.72552 0.66322 0.0
C2586 C 0.52894 0.0045 0.86601 0.0
C2587 C 0.54959 0.99197 0.86207 0.0
C2588 C 0.51908 0.00683 0.88984 0.0
C2589 C 0.52955 0.99667 0.91048 0.0
H2590 H 0.52093 0.01341 0.85076 0.0
H2591 H 0.5039 0.01763 0.89232 0.0
S2592 S 0.58241 0.96024 0.90972 0.0
N2593 N 0.57931 0.96808 0.88051 0.0
N2594 N 0.56033 0.97182 0.92516 0.0
C2595 C 0.54921 0.98273 0.90649 0.0
C2596 C 0.55935 0.9805 0.88228 0.0
C2597 C 0.27083 0.32585 0.16826 0.0
C2598 C 0.25236 0.31805 0.14826 0.0
C2599 C 0.26998 0.31305 0.19053 0.0
C2600 C 0.25063 0.2918 0.19385 0.0
H2601 H 0.28613 0.34206 0.16675 0.0
H2602 H 0.28487 0.31966 0.20511 0.0
S2603 S 0.19776 0.26335 0.14732 0.0
N2604 N 0.2142 0.28734 0.13335 0.0
N2605 N 0.21245 0.26366 0.17518 0.0
C2606 C 0.23189 0.28397 0.17418 0.0
C2607 C 0.23277 0.29698 0.15147 0.0
C2608 C 0.14716 0.00309 0.02867 0.0
C2609 C 0.15629 0.99678 0.00492 0.0
C2610 C 0.12785 0.01751 0.03096 0.0
C2611 C 0.11686 0.02598 0.00957 0.0
H2612 H 0.15413 0.99574 0.04546 0.0
H2613 H 0.12048 0.02056 0.04942 0.0
S2614 S 0.13698 0.01855 0.94387 0.0
N2615 N 0.15525 0.00305 0.96016 0.0
N2616 N 0.11847 0.02988 0.9644 0.0
C2617 C 0.12692 0.02137 0.98599 0.0
C2618 C 0.1467 0.00674 0.98366 0.0
C2619 C 0.61699 0.5723 0.97203 0.0
C2620 C 0.6329 0.5746 0.99404 0.0
C2621 C 0.59215 0.55873 0.97102 0.0
C2622 C 0.58192 0.54715 0.99206 0.0
H2623 H 0.62366 0.5813 0.9554 0.0
H2624 H 0.58076 0.55758 0.9536 0.0
S2625 S 0.61558 0.54592 0.05382 0.0
N2626 N 0.63664 0.56274 0.03713 0.0
N2627 N 0.58969 0.53805 0.03526 0.0
C2628 C 0.5974 0.54927 0.01421 0.0
C2629 C 0.62291 0.56278 0.0152 0.0
C2630 C 0.7181 0.38033 0.25353 0.0
C2631 C 0.72793 0.40194 0.27132 0.0
C2632 C 0.72942 0.35808 0.25047 0.0
C2633 C 0.75121 0.35622 0.26499 0.0
H2634 H 0.70101 0.38021 0.24229 0.0
H2635 H 0.72056 0.3419 0.23685 0.0
S2636 S 0.78547 0.408 0.31324 0.0
N2637 N 0.76164 0.42065 0.30283 0.0
N2638 N 0.78274 0.37861 0.29734 0.0
C2639 C 0.76174 0.37797 0.28239 0.0
C2640 C 0.75011 0.40076 0.28555 0.0
C2641 C 0.89521 0.48066 0.48727 0.0
C2642 C 0.88426 0.47148 0.50903 0.0
C2643 C 0.92071 0.49175 0.48777 0.0
C2644 C 0.93616 0.49416 0.51008 0.0
H2645 H 0.88394 0.47942 0.46976 0.0
H2646 H 0.9283 0.49862 0.47055 0.0
S2647 S 0.91686 0.47139 0.57175 0.0
N2648 N 0.89101 0.46421 0.55313 0.0
N2649 N 0.93879 0.48544 0.55426 0.0
C2650 C 0.92544 0.4849 0.53195 0.0
C2651 C 0.89953 0.47347 0.53138 0.0
C2652 C 0.29508 0.14634 0.28139 0.0
C2653 C 0.30769 0.13551 0.26163 0.0
C2654 C 0.27882 0.16356 0.2768 0.0
C2655 C 0.27491 0.17085 0.25235 0.0
H2656 H 0.29881 0.14267 0.30078 0.0
H2657 H 0.27071 0.17261 0.29287 0.0
S2658 S 0.29995 0.14444 0.1935 0.0
N2659 N 0.31226 0.13015 0.21616 0.0
N2660 N 0.28242 0.16364 0.2077 0.0
C2661 C 0.28593 0.15875 0.23214 0.0
C2662 C 0.30224 0.14087 0.23676 0.0
C2663 C 0.39171 0.07632 0.48129 0.0
C2664 C 0.37584 0.0784 0.50144 0.0
C2665 C 0.41244 0.06365 0.48321 0.0
C2666 C 0.41816 0.0524 0.50532 0.0
H2667 H 0.38809 0.08454 0.46381 0.0
H2668 H 0.4242 0.06288 0.46728 0.0
S2669 S 0.38342 0.05325 0.56397 0.0
N2670 N 0.36806 0.06876 0.54464 0.0
N2671 N 0.40653 0.04452 0.54795 0.0
C2672 C 0.40243 0.05412 0.52554 0.0
C2673 C 0.38142 0.06719 0.52367 0.0
C2674 C 0.74655 0.66716 0.299 0.0
C2675 C 0.72436 0.65586 0.28445 0.0
C2676 C 0.75924 0.6927 0.29607 0.0
C2677 C 0.7503 0.708 0.27845 0.0
H2678 H 0.75455 0.65594 0.31234 0.0
H2679 H 0.77642 0.70036 0.30747 0.0
S2680 S 0.69199 0.68845 0.23705 0.0
N2681 N 0.69302 0.66285 0.25306 0.0
N2682 N 0.71734 0.71026 0.24686 0.0
C2683 C 0.72785 0.6972 0.26418 0.0
C2684 C 0.7148 0.6713 0.26733 0.0
C2685 C 0.82392 0.39433 0.79972 0.0
C2686 C 0.81907 0.41135 0.78179 0.0
C2687 C 0.81008 0.36875 0.79875 0.0
C2688 C 0.79103 0.35927 0.7797 0.0
H2689 H 0.83922 0.40039 0.81395 0.0
H2690 H 0.81524 0.35597 0.81227 0.0
S2691 S 0.76856 0.3973 0.73065 0.0
N2692 N 0.79202 0.418 0.74629 0.0
N2693 N 0.76627 0.36965 0.74418 0.0
C2694 C 0.7851 0.37652 0.76251 0.0
C2695 C 0.79908 0.40263 0.7636 0.0
C2696 C 0.99928 0.91523 0.06601 0.0
C2697 C 0.02062 0.90347 0.06362 0.0
C2698 C 0.99652 0.93706 0.05312 0.0
C2699 C 0.01499 0.94791 0.03737 0.0
H2700 H 0.98499 0.90805 0.07858 0.0
H2701 H 0.98026 0.94607 0.05631 0.0
S2702 S 0.07285 0.92223 0.02226 0.0
N2703 N 0.05935 0.90274 0.04254 0.0
N2704 N 0.05432 0.94369 0.01841 0.0
C2705 C 0.03588 0.93557 0.03399 0.0
C2706 C 0.03867 0.91341 0.04711 0.0
C2707 C 0.86689 0.24409 0.784 0.0
C2708 C 0.87458 0.25861 0.80761 0.0
C2709 C 0.84476 0.24675 0.77072 0.0
C2710 C 0.82958 0.26417 0.78043 0.0
H2711 H 0.87835 0.23102 0.77539 0.0
H2712 H 0.83972 0.23534 0.75253 0.0
S2713 S 0.84052 0.30561 0.84216 0.0
N2714 N 0.86409 0.28953 0.84099 0.0
N2715 N 0.82369 0.29596 0.8153 0.0
C2716 C 0.83689 0.27858 0.80414 0.0
C2717 C 0.85906 0.27543 0.8179 0.0
C2718 C 0.51509 0.14778 0.55035 0.0
C2719 C 0.53653 0.16049 0.56523 0.0
C2720 C 0.51338 0.12214 0.53874 0.0
C2721 C 0.53304 0.10799 0.54148 0.0
H2722 H 0.49908 0.15738 0.54834 0.0
H2723 H 0.49612 0.11319 0.52798 0.0
S2724 S 0.59441 0.13369 0.57647 0.0
N2725 N 0.57873 0.1581 0.58046 0.0
N2726 N 0.57549 0.10962 0.55895 0.0
C2727 C 0.55509 0.12094 0.55547 0.0
C2728 C 0.5568 0.14718 0.56732 0.0
C2729 C 0.62321 0.74898 0.29106 0.0
C2730 C 0.6169 0.77007 0.3066 0.0
C2731 C 0.64637 0.75142 0.2798 0.0
C2732 C 0.664 0.77504 0.28368 0.0
H2733 H 0.61014 0.73046 0.28758 0.0
H2734 H 0.65055 0.73463 0.26817 0.0
S2735 S 0.65732 0.83545 0.32414 0.0
N2736 N 0.63074 0.81484 0.32624 0.0
N2737 N 0.67393 0.81958 0.30489 0.0
C2738 C 0.65794 0.79622 0.29922 0.0
C2739 C 0.63448 0.7937 0.31072 0.0
C2740 C 0.01134 0.15154 0.49428 0.0
C2741 C 0.02606 0.1558 0.47326 0.0
C2742 C 0.00905 0.12778 0.50563 0.0
C2743 C 0.02112 0.10752 0.49599 0.0
H2744 H 1.00138 0.16657 0.50184 0.0
H2745 H 0.9971 0.12489 0.52133 0.0
S2746 S 0.06199 0.10875 0.44177 0.0
N2747 N 0.053 0.1376 0.44365 0.0
N2748 N 0.0488 0.09335 0.46497 0.0
C2749 C 0.03623 0.11175 0.47541 0.0
C2750 C 0.03867 0.13578 0.46402 0.0
C2751 C 0.64714 0.26372 0.18182 0.0
C2752 C 0.62571 0.26369 0.19587 0.0
C2753 C 0.6699 0.26017 0.19317 0.0
C2754 C 0.67206 0.25643 0.21897 0.0
H2755 H 0.6465 0.26719 0.16205 0.0
H2756 H 0.68607 0.26114 0.1818 0.0
S2757 S 0.62092 0.25204 0.26345 0.0
N2758 N 0.60765 0.2575 0.23645 0.0
N2759 N 0.65045 0.25125 0.25787 0.0
C2760 C 0.65059 0.25548 0.23302 0.0
C2761 C 0.62743 0.25905 0.22147 0.0
C2762 C 0.55415 0.92076 0.98989 0.0
C2763 C 0.53442 0.905 0.97439 0.0
C2764 C 0.5509 0.94431 0.00354 0.0
C2765 C 0.52798 0.9531 1.00182 0.0
H2766 H 0.5723 0.91499 0.99135 0.0
H2767 H 0.56652 0.95586 0.01528 0.0
S2768 S 0.46983 0.91829 0.96572 0.0
N2769 N 0.4905 0.89909 0.95985 0.0
N2770 N 0.48493 0.94393 0.98439 0.0
C2771 C 0.5081 0.93761 0.9865 0.0
C2772 C 0.51119 0.9134 0.97308 0.0
C2773 C 0.87232 0.75777 0.71412 0.0
C2774 C 0.88957 0.78112 0.71224 0.0
C2775 C 0.85061 0.75791 0.72741 0.0
C2776 C 0.84501 0.78144 0.73932 0.0
H2777 H 0.87517 0.73924 0.70457 0.0
H2778 H 0.83773 0.73941 0.72755 0.0
S2779 S 0.88537 0.84765 0.74225 0.0
N2780 N 0.90069 0.82813 0.72527 0.0
N2781 N 0.85953 0.82859 0.74967 0.0
C2782 C 0.86251 0.80486 0.73829 0.0
C2783 C 0.88479 0.80466 0.72488 0.0
C2784 C 0.04177 0.02082 0.90296 0.0
C2785 C 0.06139 0.00633 0.90271 0.0
C2786 C 0.02593 0.02116 0.9232 0.0
C2787 C 0.02919 0.00734 0.94427 0.0
H2788 H 0.03844 0.03184 0.88723 0.0
H2789 H 0.01116 0.03264 0.92245 0.0
S2790 S 0.07743 0.96614 0.95318 0.0
N2791 N 0.08288 0.97749 0.92553 0.0
N2792 N 0.05328 0.97842 0.96357 0.0
C2793 C 0.04864 0.99273 0.94435 0.0
C2794 C 0.06463 0.9921 0.92358 0.0
C2795 C 0.7355 0.30802 0.63047 0.0
C2796 C 0.75677 0.31952 0.61863 0.0
C2797 C 0.73792 0.29695 0.65325 0.0
C2798 C 0.76168 0.29684 0.66469 0.0
H2799 H 0.71691 0.30851 0.62257 0.0
H2800 H 0.72106 0.28909 0.66227 0.0
S2801 S 0.82308 0.32226 0.63965 0.0
N2802 N 0.80218 0.32858 0.61879 0.0
N2803 N 0.80684 0.3076 0.6616 0.0
C2804 C 0.78307 0.30721 0.65238 0.0
C2805 C 0.78058 0.31864 0.62933 0.0
C2806 C 0.47169 0.03688 0.42218 0.0
C2807 C 0.4819 0.05592 0.40651 0.0
C2808 C 0.4852 0.03226 0.44357 0.0
C2809 C 0.50921 0.04692 0.4505 0.0
H2810 H 0.45328 0.02495 0.41755 0.0
H2811 H 0.47685 0.01663 0.45443 0.0
S2812 S 0.54396 0.09995 0.4166 0.0
N2813 N 0.51727 0.08998 0.39955 0.0
N2814 N 0.54243 0.08192 0.44071 0.0
C2815 C 0.51938 0.06669 0.4356 0.0
C2816 C 0.5057 0.07117 0.41344 0.0
C2817 C 0.78243 0.74263 0.14419 0.0
C2818 C 0.76019 0.73195 0.12954 0.0
C2819 C 0.78205 0.75242 0.16969 0.0
C2820 C 0.75939 0.75209 0.18184 0.0
H2821 H 0.80043 0.74289 0.13608 0.0
H2822 H 0.79987 0.76007 0.17997 0.0
S2823 S 0.69567 0.7278 0.15134 0.0
N2824 N 0.71469 0.72293 0.12864 0.0
N2825 N 0.71391 0.74093 0.17659 0.0
C2826 C 0.73692 0.74194 0.16723 0.0
C2827 C 0.73734 0.73196 0.14117 0.0
C2828 C 0.09424 0.02775 0.63937 0.0
C2829 C 0.08298 0.03405 0.66197 0.0
C2830 C 0.08439 0.03268 0.61584 0.0
C2831 C 0.06306 0.04441 0.61394 0.0
H2832 H 0.11047 0.01831 0.63981 0.0
H2833 H 0.09332 0.02674 0.59894 0.0
S2834 S 0.02757 0.06636 0.66759 0.0
N2835 N 0.05005 0.05386 0.68108 0.0
N2836 N 0.03155 0.06318 0.63689 0.0
C2837 C 0.05204 0.05155 0.63644 0.0
C2838 C 0.06196 0.0463 0.66042 0.0
C2839 C 0.73311 0.28478 0.37234 0.0
C2840 C 0.74921 0.30834 0.3818 0.0
C2841 C 0.73556 0.27258 0.34803 0.0
C2842 C 0.75392 0.28382 0.33234 0.0
H2843 H 0.71851 0.27584 0.38375 0.0
H2844 H 0.72248 0.25475 0.3412 0.0
S2845 S 0.8002 0.34588 0.3484 0.0
N2846 N 0.78389 0.34253 0.37377 0.0
N2847 N 0.7883 0.32011 0.32821 0.0
C2848 C 0.77019 0.30733 0.34183 0.0
C2849 C 0.76786 0.31949 0.36651 0.0
C2850 C 0.49648 0.04952 0.16057 0.0
C2851 C 0.47217 0.03676 0.16499 0.0
C2852 C 0.50668 0.04526 0.13709 0.0
C2853 C 0.49302 0.02775 0.11761 0.0
H2854 H 0.50779 0.06264 0.17541 0.0
H2855 H 0.5254 0.05548 0.13425 0.0
S2856 S 0.42772 0.9917 0.11856 0.0
N2857 N 0.43386 0.00798 0.14694 0.0
N2858 N 0.45357 0.9989 0.10344 0.0
C2859 C 0.46862 0.0152 0.1216 0.0
C2860 C 0.45803 0.01998 0.14516 0.0
C2861 C 0.76595 0.72589 0.85417 0.0
C2862 C 0.77826 0.73731 0.87753 0.0
C2863 C 0.76726 0.73979 0.83253 0.0
C2864 C 0.7807 0.76576 0.83343 0.0
H2865 H 0.75523 0.70603 0.8526 0.0
H2866 H 0.7571 0.73038 0.81521 0.0
S2867 S 0.81558 0.80498 0.88998 0.0
N2868 N 0.80394 0.77643 0.90013 0.0
N2869 N 0.80634 0.80237 0.85973 0.0
C2870 C 0.79301 0.77737 0.85663 0.0
C2871 C 0.79185 0.76321 0.87856 0.0
C2872 C 0.88082 0.04575 0.99131 0.0
C2873 C 0.8714 0.05196 0.01494 0.0
C2874 C 0.90013 0.03123 0.98917 0.0
C2875 C 0.91083 0.02252 0.01061 0.0
H2876 H 0.87408 0.05322 0.97448 0.0
H2877 H 0.90767 0.02819 0.97079 0.0
S2878 S 0.89042 0.03033 0.07618 0.0
N2879 N 0.87217 0.04565 0.05969 0.0
N2880 N 0.90899 0.01889 0.0558 0.0
C2881 C 0.90061 0.02723 0.0341 0.0
C2882 C 0.88082 0.0419 0.03625 0.0
C2883 C 0.41405 0.47217 0.01785 0.0
C2884 C 0.39546 0.484 0.02959 0.0
C2885 C 0.43878 0.48571 0.01746 0.0
C2886 C 0.44621 0.51162 0.02909 0.0
H2887 H 0.40967 0.45195 0.00938 0.0
H2888 H 0.45234 0.4754 0.0086 0.0
S2889 S 0.40482 0.55262 0.06049 0.0
N2890 N 0.38612 0.52419 0.05148 0.0
N2891 N 0.43286 0.54919 0.05145 0.0
C2892 C 0.42787 0.52398 0.04039 0.0
C2893 C 0.40251 0.5103 0.04054 0.0
C2894 C 0.28492 0.65086 0.74896 0.0
C2895 C 0.31077 0.65157 0.75342 0.0
C2896 C 0.27449 0.67384 0.75307 0.0
C2897 C 0.28944 0.69828 0.76231 0.0
H2898 H 0.27279 0.63254 0.7417 0.0
H2899 H 0.25463 0.67245 0.74871 0.0
S2900 S 0.3582 0.70985 0.77857 0.0
N2901 N 0.35087 0.67823 0.76842 0.0
N2902 N 0.33172 0.72106 0.77668 0.0
C2903 C 0.31531 0.69886 0.7675 0.0
C2904 C 0.32584 0.67564 0.76293 0.0
C2905 C 0.13351 0.57678 0.53538 0.0
C2906 C 0.14686 0.57295 0.5137 0.0
C2907 C 0.10788 0.56661 0.53536 0.0
C2908 C 0.09473 0.55212 0.51367 0.0
H2909 H 0.1428 0.58836 0.55226 0.0
H2910 H 0.0983 0.5706 0.55237 0.0
S2911 S 0.12207 0.53464 0.45281 0.0
N2912 N 0.14581 0.5525 0.4706 0.0
N2913 N 0.09762 0.53305 0.4704 0.0
C2914 C 0.10817 0.54746 0.4921 0.0
C2915 C 0.13425 0.55798 0.49214 0.0
C2916 C 0.72438 0.89665 0.73249 0.0
C2917 C 0.72426 0.91656 0.75225 0.0
C2918 C 0.73933 0.87773 0.73465 0.0
C2919 C 0.75466 0.87803 0.75663 0.0
H2920 H 0.71172 0.89469 0.71585 0.0
H2921 H 0.73778 0.86185 0.71954 0.0
S2922 S 0.76391 0.92816 0.81214 0.0
N2923 N 0.74301 0.93742 0.79318 0.0
N2924 N 0.77094 0.90117 0.79741 0.0
C2925 C 0.75624 0.89887 0.77573 0.0
C2926 C 0.74095 0.91827 0.77355 0.0
C2927 C 0.64726 0.98461 0.54318 0.0
C2928 C 0.65561 0.97131 0.52169 0.0
C2929 C 0.62669 0.99756 0.54136 0.0
C2930 C 0.61377 0.99796 0.51797 0.0
H2931 H 0.65672 0.98508 0.56159 0.0
H2932 H 0.62083 0.00725 0.55844 0.0
S2933 S 0.62683 0.96489 0.45625 0.0
N2934 N 0.64816 0.95829 0.47645 0.0
N2935 N 0.61027 0.98325 0.47298 0.0
C2936 C 0.62188 0.98482 0.49636 0.0
C2937 C 0.64258 0.97139 0.49823 0.0
C2938 C 0.31483 0.37344 0.7388 0.0
C2939 C 0.30428 0.39626 0.74271 0.0
C2940 C 0.30124 0.34859 0.74303 0.0
C2941 C 0.27671 0.34587 0.7513 0.0
H2942 H 0.33368 0.37485 0.73249 0.0
H2943 H 0.30977 0.33142 0.73938 0.0
S2944 S 0.24139 0.39996 0.76534 0.0
N2945 N 0.26845 0.41478 0.75598 0.0
N2946 N 0.24286 0.36833 0.76386 0.0
C2947 C 0.26616 0.36866 0.75539 0.0
C2948 C 0.27998 0.39381 0.75115 0.0
C2949 C 0.20441 0.65659 0.22993 0.0
C2950 C 0.20759 0.64071 0.24941 0.0
C2951 C 0.21813 0.68224 0.23076 0.0
C2952 C 0.23543 0.69282 0.25113 0.0
H2953 H 0.19052 0.64951 0.21447 0.0
H2954 H 0.21433 0.69419 0.21591 0.0
S2955 S 0.25324 0.65774 0.30482 0.0
N2956 N 0.23115 0.63621 0.2881 0.0
N2957 N 0.2569 0.68449 0.28979 0.0
C2958 C 0.23973 0.67661 0.26999 0.0
C2959 C 0.22579 0.65053 0.26912 0.0
C2960 C 0.53147 0.6392 0.46603 0.0
C2961 C 0.5083 0.64772 0.46448 0.0
C2962 C 0.53448 0.61754 0.47908 0.0
C2963 C 0.51445 0.60358 0.49113 0.0
H2964 H 0.54717 0.64878 0.45632 0.0
H2965 H 0.55236 0.61108 0.4788 0.0
S2966 S 0.45085 0.62014 0.49543 0.0
N2967 N 0.46572 0.64209 0.4781 0.0
N2968 N 0.4712 0.60146 0.50253 0.0
C2969 C 0.49152 0.61273 0.49071 0.0
C2970 C 0.48848 0.63472 0.47739 0.0
C2971 C 0.66907 0.27525 0.71838 0.0
C2972 C 0.65572 0.29548 0.7252 0.0
C2973 C 0.69072 0.2727 0.7325 0.0
C2974 C 0.69965 0.29006 0.7542 0.0
H2975 H 0.66267 0.26121 0.70202 0.0
H2976 H 0.70019 0.25664 0.72665 0.0
S2977 S 0.67197 0.3467 0.77975 0.0
N2978 N 0.65336 0.33352 0.75475 0.0
N2979 N 0.69397 0.3286 0.78139 0.0
C2980 C 0.68674 0.3106 0.761 0.0
C2981 C 0.66483 0.31337 0.74646 0.0
C2982 C 0.01122 0.40064 0.9827 0.0
C2983 C 0.99713 0.39224 0.95966 0.0
C2984 C 0.01138 0.4256 0.99543 0.0
C2985 C 0.99725 0.44309 0.98581 0.0
H2986 H 0.02247 0.38794 0.99087 0.0
H2987 H 0.02305 0.43141 0.01276 0.0
S2988 S 0.95753 0.431 0.92592 0.0
N2989 N 0.96901 0.40378 0.92748 0.0
N2990 N 0.96873 0.45029 0.95183 0.0
C2991 C 0.98252 0.43473 0.96315 0.0
C2992 C 0.98262 0.40943 0.94998 0.0
C2993 C 0.89869 0.80433 0.21283 0.0
C2994 C 0.91598 0.78988 0.22229 0.0
C2995 C 0.87545 0.80416 0.22338 0.0
C2996 C 0.86854 0.78952 0.24378 0.0
H2997 H 0.90284 0.81527 0.19665 0.0
H2998 H 0.86254 0.81506 0.215 0.0
S2999 S 0.90787 0.75026 0.27698 0.0
N3000 N 0.92525 0.76202 0.25441 0.0
N3001 N 0.88139 0.76142 0.27401 0.0
C3002 C 0.8859 0.77563 0.25394 0.0
C3003 C 0.90962 0.77583 0.24322 0.0
C3004 C 0.49954 0.41712 0.06613 0.0
C3005 C 0.50508 0.39513 0.05155 0.0
C3006 C 0.50153 0.44153 0.05645 0.0
C3007 C 0.50876 0.44488 0.03163 0.0
H3008 H 0.49432 0.41565 0.08548 0.0
H3009 H 0.49747 0.45801 0.06864 0.0
S3010 S 0.52413 0.39308 0.98528 0.0
N3011 N 0.51749 0.37791 0.01084 0.0
N3012 N 0.52063 0.42388 0.99235 0.0
C3013 C 0.51358 0.42287 0.01651 0.0
C3014 C 0.51199 0.398 0.02658 0.0
C3015 C 0.8977 0.29953 0.3447 0.0
C3016 C 0.91542 0.29247 0.32791 0.0
C3017 C 0.87498 0.30559 0.33578 0.0
C3018 C 0.86942 0.30567 0.30979 0.0
H3019 H 0.90122 0.30003 0.36496 0.0
H3020 H 0.86143 0.30972 0.34929 0.0
S3021 S 0.90862 0.28796 0.25771 0.0
N3022 N 0.92504 0.28505 0.28377 0.0
N3023 N 0.88303 0.29791 0.26724 0.0
C3024 C 0.88714 0.29948 0.29278 0.0
C3025 C 0.90998 0.29258 0.30178 0.0
C3026 C 0.98052 0.63155 0.5286 0.0
C3027 C 0.99672 0.64313 0.54952 0.0
C3028 C 0.98314 0.60734 0.51573 0.0
C3029 C 1.00197 0.59383 0.5234 0.0
H3030 H 0.96615 0.64159 0.52173 0.0
H3031 H 0.97051 0.59933 0.49948 0.0
S3032 S 0.04781 0.61488 0.57848 0.0
N3033 N 0.03101 0.63841 0.57847 0.0
N3034 N 0.03644 0.59348 0.55402 0.0
C3035 C 0.01785 0.60492 0.54474 0.0
C3036 C 0.01508 0.62942 0.55786 0.0
C3037 C 0.65516 0.74817 0.80154 0.0
C3038 C 0.65158 0.7695 0.81858 0.0
C3039 C 0.67765 0.74867 0.78923 0.0
C3040 C 0.69728 0.77061 0.79339 0.0
H3041 H 0.64035 0.73111 0.79745 0.0
H3042 H 0.67953 0.73192 0.77616 0.0
S3043 S 0.69846 0.83013 0.8385 0.0
N3044 N 0.67051 0.81209 0.84062 0.0
N3045 N 0.71232 0.81331 0.8173 0.0
C3046 C 0.69411 0.79177 0.81084 0.0
C3047 C 0.6714 0.79116 0.82346 0.0
C3048 C 0.46014 0.52517 0.60158 0.0
C3049 C 0.465 0.54567 0.6215 0.0
C3050 C 0.47511 0.52505 0.58064 0.0
C3051 C 0.49554 0.54552 0.57852 0.0
H3052 H 0.44458 0.50898 0.60212 0.0
H3053 H 0.4708 0.50851 0.56618 0.0
S3054 S 0.51681 0.6036 0.62554 0.0
N3055 N 0.49234 0.58675 0.63788 0.0
N3056 N 0.51993 0.58685 0.59824 0.0
C3057 C 0.50054 0.56627 0.59812 0.0
C3058 C 0.4854 0.5663 0.6196 0.0
C3059 C 0.79924 0.23408 0.89668 0.0
C3060 C 0.78059 0.23124 0.9143 0.0
C3061 C 0.79558 0.24524 0.87421 0.0
C3062 C 0.77321 0.25411 0.86861 0.0
H3063 H 0.81661 0.22715 0.90007 0.0
H3064 H 0.81022 0.24644 0.86089 0.0
S3065 S 0.71867 0.25159 0.90847 0.0
N3066 N 0.73894 0.23839 0.92466 0.0
N3067 N 0.73241 0.26004 0.88256 0.0
C3068 C 0.75475 0.25229 0.88636 0.0
C3069 C 0.75836 0.24069 0.9092 0.0
C3070 C 0.05948 0.51549 0.10601 0.0
C3071 C 0.04887 0.49846 0.12338 0.0
C3072 C 0.04568 0.51955 0.08453 0.0
C3073 C 0.02094 0.50618 0.07905 0.0
H3074 H 0.07856 0.52618 0.10923 0.0
H3075 H 0.05439 0.53379 0.07244 0.0
S3076 S 0.98431 0.45925 0.118 0.0
N3077 N 0.0118 0.46832 0.13375 0.0
N3078 N 0.98628 0.475 0.09235 0.0
C3079 C 0.01016 0.48862 0.09579 0.0
C3080 C 0.02408 0.48485 0.11811 0.0
C3081 C 0.78804 0.8302 0.38051 0.0
C3082 C 0.76778 0.8203 0.39481 0.0
C3083 C 0.78908 0.82104 0.35483 0.0
C3084 C 0.76989 0.8016 0.34239 0.0
H3085 H 0.80289 0.84569 0.38904 0.0
H3086 H 0.80469 0.82981 0.34453 0.0
S3087 S 0.7142 0.76708 0.37207 0.0
N3088 N 0.72921 0.7884 0.39505 0.0
N3089 N 0.73096 0.77133 0.3471 0.0
C3090 C 0.75 0.7909 0.35676 0.0
C3091 C 0.74898 0.80021 0.38283 0.0
C3092 C 0.45931 0.50102 0.87 0.0
C3093 C 0.44567 0.52132 0.86695 0.0
C3094 C 0.4685 0.49663 0.89406 0.0
C3095 C 0.46403 0.5121 0.91599 0.0
H3096 H 0.46333 0.48876 0.8536 0.0
H3097 H 0.47945 0.48126 0.89542 0.0
S3098 S 0.42817 0.56681 0.91838 0.0
N3099 N 0.42737 0.55632 0.88801 0.0
N3100 N 0.44441 0.5481 0.93308 0.0
C3101 C 0.44992 0.53205 0.91322 0.0
C3102 C 0.44083 0.53668 0.88875 0.0
C3103 C 0.76836 0.24172 0.15958 0.0
C3104 C 0.78545 0.22517 0.15285 0.0
C3105 C 0.77058 0.25625 0.18353 0.0
C3106 C 0.78993 0.25453 0.20129 0.0
H3107 H 0.75367 0.24397 0.14602 0.0
H3108 H 0.75761 0.26942 0.18784 0.0
S3109 S 0.83688 0.21076 0.19399 0.0
N3110 N 0.82045 0.20573 0.16661 0.0
N3111 N 0.82477 0.23283 0.21141 0.0
C3112 C 0.80631 0.23703 0.19508 0.0
C3113 C 0.80404 0.22238 0.17088 0.0
C3114 C 0.0396 0.52245 0.36751 0.0
C3115 C 0.04652 0.49832 0.3594 0.0
C3116 C 0.02973 0.52641 0.39116 0.0
C3117 C 0.02644 0.50634 0.40736 0.0
H3118 H 0.04292 0.53879 0.35602 0.0
H3119 H 0.02558 0.54564 0.39714 0.0
S3120 S 0.03889 0.43851 0.39352 0.0
N3121 N 0.0474 0.45337 0.36824 0.0
N3122 N 0.02884 0.46072 0.41282 0.0
C3123 C 0.03205 0.48165 0.3989 0.0
C3124 C 0.04215 0.47767 0.37486 0.0
C3125 C 0.73598 0.79513 0.65323 0.0
C3126 C 0.75432 0.81741 0.65018 0.0
C3127 C 0.73554 0.78245 0.67559 0.0
C3128 C 0.75338 0.79152 0.69591 0.0
H3129 H 0.72216 0.78701 0.63796 0.0
H3130 H 0.72135 0.76512 0.67676 0.0
S3131 S 0.8042 0.85028 0.69846 0.0
N3132 N 0.7897 0.84903 0.67036 0.0
N3133 N 0.78942 0.82487 0.71173 0.0
C3134 C 0.77146 0.81412 0.69332 0.0
C3135 C 0.77181 0.8271 0.67068 0.0
C3136 C 0.65022 0.50524 0.50487 0.0
C3137 C 0.65168 0.48585 0.52148 0.0
C3138 C 0.63204 0.52124 0.50705 0.0
C3139 C 0.61518 0.51901 0.52639 0.0
H3140 H 0.66294 0.50781 0.48976 0.0
H3141 H 0.63075 0.53502 0.49314 0.0
S3142 S 0.61037 0.47108 0.57437 0.0
N3143 N 0.63367 0.46473 0.55731 0.0
N3144 N 0.60082 0.49607 0.56241 0.0
C3145 C 0.61688 0.5004 0.54365 0.0
C3146 C 0.63481 0.48352 0.54096 0.0
C3147 C 0.12618 0.04906 0.4824 0.0
C3148 C 0.13493 0.07278 0.49786 0.0
C3149 C 0.10158 0.0351 0.4834 0.0
C3150 C 0.08464 0.04434 0.49982 0.0
H3151 H 0.13844 0.04119 0.46937 0.0
H3152 H 0.09566 0.01721 0.4708 0.0
S3153 S 0.09803 0.10562 0.54407 0.0
N3154 N 0.12441 0.10505 0.52987 0.0
N3155 N 0.07859 0.07867 0.53215 0.0
C3156 C 0.09327 0.06782 0.51566 0.0
C3157 C 0.11825 0.08206 0.51458 0.0
C3158 C 0.20701 0.87191 0.75794 0.0
C3159 C 0.21941 0.89564 0.77143 0.0
C3160 C 0.21839 0.8497 0.75478 0.0
C3161 C 0.24279 0.84994 0.76503 0.0
H3162 H 0.188 0.87019 0.75014 0.0
H3163 H 0.20758 0.83199 0.74452 0.0
S3164 S 0.28411 0.90757 0.80096 0.0
N3165 N 0.25812 0.91843 0.79412 0.0
N3166 N 0.27933 0.87651 0.78874 0.0
C3167 C 0.25567 0.87367 0.77825 0.0
C3168 C 0.24403 0.89646 0.78137 0.0
C3169 C 0.39623 0.9727 0.98791 0.0
C3170 C 0.38224 0.97903 0.00848 0.0
C3171 C 0.4219 0.98271 0.98809 0.0
C3172 C 0.43441 0.99947 0.00883 0.0
H3173 H 0.38743 0.95922 0.97194 0.0
H3174 H 0.43206 0.97655 0.97217 0.0
S3175 S 0.40515 0.02462 0.0658 0.0
N3176 N 0.38193 0.00467 0.04904 0.0
N3177 N 0.4302 0.02388 0.04942 0.0
C3178 C 0.42029 0.00686 0.02903 0.0
C3179 C 0.39419 0.99652 0.02885 0.0
C3180 C 0.79807 0.63955 0.7725 0.0
C3181 C 0.81768 0.63811 0.75624 0.0
C3182 C 0.78155 0.65692 0.76924 0.0
C3183 C 0.78379 0.67297 0.74932 0.0
H3184 H 0.79582 0.62761 0.78821 0.0
H3185 H 0.7675 0.65847 0.78292 0.0
S3186 S 0.83187 0.67677 0.70154 0.0
N3187 N 0.83856 0.65456 0.71971 0.0
N3188 N 0.80668 0.68616 0.71281 0.0
C3189 C 0.80259 0.67093 0.73225 0.0
C3190 C 0.81978 0.65375 0.73592 0.0
C3191 C 0.877 0.56143 0.01719 0.0
C3192 C 0.87547 0.58005 0.99973 0.0
C3193 C 0.89764 0.54856 0.01868 0.0
C3194 C 0.91767 0.5539 0.00288 0.0
H3195 H 0.86214 0.55681 0.02992 0.0
H3196 H 0.89813 0.53476 0.0327 0.0
S3197 S 0.92297 0.60061 0.95368 0.0
N3198 N 0.89606 0.60297 0.96621 0.0
N3199 N 0.93444 0.57857 0.96875 0.0
C3200 C 0.91622 0.57206 0.98502 0.0
C3201 C 0.89525 0.58516 0.9835 0.0
C3202 C 0.24669 0.16303 0.80322 0.0
C3203 C 0.22478 0.15165 0.78829 0.0
C3204 C 0.25963 0.18845 0.80009 0.0
C3205 C 0.25112 0.20351 0.78199 0.0
H3206 H 0.25432 0.15191 0.81691 0.0
H3207 H 0.27675 0.19611 0.8116 0.0
S3208 S 0.19317 0.1838 0.74003 0.0
N3209 N 0.19398 0.15829 0.75624 0.0
N3210 N 0.21841 0.20569 0.75006 0.0
C3211 C 0.2287 0.19273 0.76762 0.0
C3212 C 0.21554 0.16691 0.77083 0.0
C3213 C 0.31359 0.89935 0.29803 0.0
C3214 C 0.32439 0.91091 0.27723 0.0
C3215 C 0.30065 0.87324 0.29537 0.0
C3216 C 0.29799 0.85793 0.2718 0.0
H3217 H 0.31501 0.91062 0.31642 0.0
H3218 H 0.29261 0.86506 0.31186 0.0
S3219 S 0.32482 0.87855 0.21203 0.0
N3220 N 0.33305 0.90471 0.23279 0.0
N3221 N 0.30845 0.85591 0.22757 0.0
C3222 C 0.30898 0.86926 0.25092 0.0
C3223 C 0.32225 0.89569 0.2537 0.0
C3224 C 0.54323 0.42283 0.55696 0.0
C3225 C 0.52224 0.40442 0.5622 0.0
C3226 C 0.54064 0.44442 0.5438 0.0
C3227 C 0.51692 0.44879 0.53542 0.0
H3228 H 0.56184 0.42106 0.56378 0.0
H3229 H 0.55749 0.45822 0.54091 0.0
S3230 S 0.45614 0.40468 0.54179 0.0
N3231 N 0.47706 0.39051 0.55584 0.0
N3232 N 0.47208 0.43159 0.53177 0.0
C3233 C 0.49579 0.42997 0.53967 0.0
C3234 C 0.49848 0.40776 0.55293 0.0
C3235 C 0.36901 0.74457 0.27858 0.0
C3236 C 0.37496 0.75734 0.30326 0.0
C3237 C 0.34723 0.74722 0.26457 0.0
C3238 C 0.33069 0.76301 0.27453 0.0
H3239 H 0.38155 0.73288 0.26977 0.0
H3240 H 0.34354 0.73714 0.24564 0.0
S3241 S 0.33675 0.79941 0.33878 0.0
N3242 N 0.36112 0.78454 0.33775 0.0
N3243 N 0.32177 0.79144 0.31075 0.0
C3244 C 0.33632 0.77571 0.29922 0.0
C3245 C 0.35801 0.77238 0.31373 0.0
C3246 C 0.01467 0.64733 0.04688 0.0
C3247 C 0.03327 0.65853 0.06583 0.0
C3248 C 0.01382 0.62192 0.03509 0.0
C3249 C 0.03149 0.60653 0.04179 0.0
H3250 H 1.00034 0.65815 0.04144 0.0
H3251 H 0.99873 0.61403 0.021 0.0
S3252 S 0.08443 0.62709 0.08996 0.0
N3253 N 0.07022 0.65272 0.09041 0.0
N3254 N 0.06868 0.60477 0.06816 0.0
C3255 C 0.05081 0.61785 0.06004 0.0
C3256 C 0.05167 0.64387 0.0721 0.0
C3257 C 0.13456 0.24336 0.81507 0.0
C3258 C 0.11545 0.25407 0.80359 0.0
C3259 C 0.15743 0.24327 0.80388 0.0
C3260 C 0.16209 0.25384 0.78074 0.0
H3261 H 0.13216 0.23576 0.83329 0.0
H3262 H 0.17184 0.23558 0.81389 0.0
S3263 S 0.11739 0.28206 0.74182 0.0
N3264 N 0.10201 0.27381 0.76691 0.0
N3265 N 0.14517 0.2739 0.74595 0.0
C3266 C 0.14284 0.26373 0.76856 0.0
C3267 C 0.11951 0.26385 0.78 0.0
C3268 C 0.52834 0.65063 0.99712 0.0
C3269 C 0.52765 0.65153 0.97068 0.0
C3270 C 0.526 0.62641 0.00773 0.0
C3271 C 0.52227 0.60239 0.99216 0.0
H3272 H 0.53087 0.66874 0.00963 0.0
H3273 H 0.52654 0.62647 0.02812 0.0
S3274 S 0.51931 0.59434 0.92179 0.0
N3275 N 0.5233 0.62647 0.92935 0.0
N3276 N 0.51871 0.58126 0.94894 0.0
C3277 C 0.5217 0.60322 0.96571 0.0
C3278 C 0.5244 0.6277 0.95505 0.0
C3279 C 0.14447 0.76346 0.68271 0.0
C3280 C 0.12206 0.75882 0.69528 0.0
C3281 C 0.16707 0.75938 0.69385 0.0
C3282 C 0.16817 0.7503 0.71793 0.0
H3283 H 0.14468 0.77103 0.66439 0.0
H3284 H 0.18394 0.76401 0.68373 0.0
S3285 S 0.11441 0.73311 0.75787 0.0
N3286 N 0.10205 0.74308 0.73243 0.0
N3287 N 0.14462 0.73553 0.75349 0.0
C3288 C 0.14578 0.74471 0.73037 0.0
C3289 C 0.12272 0.749 0.71905 0.0
C3290 C 0.0178 0.42269 0.46721 0.0
C3291 C 0.03677 0.4092 0.47458 0.0
C3292 C 0.01472 0.44631 0.48066 0.0
C3293 C 0.03066 0.45751 0.50184 0.0
H3294 H 0.00502 0.41479 0.45102 0.0
H3295 H 0.99943 0.45556 0.47464 0.0
S3296 S 0.08347 0.43042 0.52876 0.0
N3297 N 0.07174 0.40888 0.50449 0.0
N3298 N 0.06641 0.45376 0.52932 0.0
C3299 C 0.05002 0.44459 0.50914 0.0
C3300 C 0.05304 0.42038 0.49555 0.0
C3301 C 0.38248 0.30039 0.22069 0.0
C3302 C 0.38844 0.27663 0.20979 0.0
C3303 C 0.36044 0.30079 0.23355 0.0
C3304 C 0.34338 0.27742 0.23613 0.0
H3305 H 0.39491 0.31892 0.21916 0.0
H3306 H 0.35659 0.31968 0.24113 0.0
S3307 S 0.35006 0.20985 0.21064 0.0
N3308 N 0.37522 0.22912 0.20209 0.0
N3309 N 0.33429 0.22964 0.2266 0.0
C3310 C 0.34938 0.25342 0.22567 0.0
C3311 C 0.37174 0.25308 0.21245 0.0
C3312 C 0.57227 0.52667 0.4239 0.0
C3313 C 0.56772 0.50587 0.40426 0.0
C3314 C 0.55712 0.52697 0.4447 0.0
C3315 C 0.53675 0.50645 0.4469 0.0
H3316 H 0.5877 0.54296 0.42322 0.0
H3317 H 0.56125 0.54369 0.459 0.0
S3318 S 0.51642 0.44751 0.40069 0.0
N3319 N 0.5409 0.46433 0.38833 0.0
N3320 N 0.51287 0.46467 0.42763 0.0
C3321 C 0.5321 0.48539 0.4276 0.0
C3322 C 0.54747 0.48513 0.40631 0.0
C3323 C 0.26883 0.80973 0.12053 0.0
C3324 C 0.24842 0.82231 0.11602 0.0
C3325 C 0.27139 0.79771 0.14277 0.0
C3326 C 0.25368 0.79804 0.16125 0.0
H3327 H 0.28311 0.80949 0.10691 0.0
H3328 H 0.28769 0.78882 0.14583 0.0
S3329 S 0.19645 0.82771 0.15822 0.0
N3330 N 0.20999 0.83395 0.13166 0.0
N3331 N 0.21455 0.81104 0.17326 0.0
C3332 C 0.2328 0.80986 0.15665 0.0
C3333 C 0.23022 0.82208 0.13405 0.0
C3334 C 0.00555 0.56935 0.91311 0.0
C3335 C 0.98145 0.55549 0.90519 0.0
C3336 C 0.01765 0.56417 0.93542 0.0
C3337 C 0.006 0.54492 0.95026 0.0
H3338 H 0.01547 0.58335 0.90144 0.0
H3339 H 0.03649 0.57471 0.94064 0.0
S3340 S 0.94183 0.50515 0.93831 0.0
N3341 N 0.94547 0.52368 0.91467 0.0
N3342 N 0.96835 0.51301 0.95583 0.0
C3343 C 0.98145 0.53177 0.94288 0.0
C3344 C 0.96911 0.53734 0.92052 0.0
C3345 C 0.24937 0.21393 0.64681 0.0
C3346 C 0.26526 0.22819 0.63045 0.0
C3347 C 0.24793 0.22347 0.67231 0.0
C3348 C 0.2627 0.24743 0.68276 0.0
H3349 H 0.23832 0.19484 0.64011 0.0
H3350 H 0.23581 0.21152 0.68415 0.0
S3351 S 0.30544 0.29391 0.64825 0.0
N3352 N 0.29432 0.26909 0.62667 0.0
N3353 N 0.29255 0.28604 0.67473 0.0
C3354 C 0.27829 0.26215 0.66674 0.0
C3355 C 0.27937 0.25279 0.64064 0.0
C3356 C 0.56935 0.54929 0.1582 0.0
C3357 C 0.58062 0.52741 0.16193 0.0
C3358 C 0.55924 0.55272 0.13417 0.0
C3359 C 0.56062 0.53471 0.11299 0.0
H3360 H 0.56805 0.56362 0.17405 0.0
H3361 H 0.55032 0.56955 0.13217 0.0
S3362 S 0.58926 0.47477 0.11279 0.0
N3363 N 0.593 0.48787 0.14253 0.0
N3364 N 0.57471 0.49444 0.09744 0.0
C3365 C 0.57231 0.51304 0.11651 0.0
C3366 C 0.58212 0.50935 0.14096 0.0
C3367 C 0.23402 0.7881 0.87428 0.0
C3368 C 0.25019 0.81224 0.8816 0.0
C3369 C 0.23497 0.77445 0.85036 0.0
C3370 C 0.252 0.78462 0.83295 0.0
H3371 H 0.22035 0.77986 0.887 0.0
H3372 H 0.22171 0.75631 0.84521 0.0
S3373 S 0.29868 0.84695 0.84323 0.0
N3374 N 0.2838 0.84566 0.86964 0.0
N3375 N 0.28602 0.81986 0.82515 0.0
C3376 C 0.26875 0.80837 0.8404 0.0
C3377 C 0.26771 0.82225 0.8646 0.0
C3378 C 0.9988 0.52883 0.65852 0.0
C3379 C 0.98225 0.54609 0.66444 0.0
C3380 C 0.00885 0.52747 0.6347 0.0
C3381 C 1.00269 0.54346 0.61634 0.0
H3382 H 1.00298 0.51545 0.67189 0.0
H3383 H 0.02063 0.51306 0.63032 0.0
S3384 S 0.96275 0.59431 0.62424 0.0
N3385 N 0.96193 0.58108 0.65135 0.0
N3386 N 0.98103 0.57888 0.60662 0.0
C3387 C 0.98741 0.56196 0.62273 0.0
C3388 C 0.97708 0.56317 0.64682 0.0
C3389 C 0.26924 0.22535 0.35228 0.0
C3390 C 0.27844 0.23802 0.37635 0.0
C3391 C 0.27024 0.23917 0.33055 0.0
C3392 C 0.28081 0.26614 0.33182 0.0
H3393 H 0.26064 0.20469 0.35029 0.0
H3394 H 0.26222 0.22874 0.31279 0.0
S3395 S 0.30906 0.30819 0.38993 0.0
N3396 N 0.29948 0.27901 0.39978 0.0
N3397 N 0.30146 0.30474 0.35926 0.0
C3398 C 0.29048 0.27889 0.3557 0.0
C3399 C 0.2893 0.26492 0.37781 0.0
C3400 C 0.38283 0.54542 0.52584 0.0
C3401 C 0.37682 0.56089 0.50695 0.0
C3402 C 0.40202 0.5308 0.52301 0.0
C3403 C 0.41572 0.53099 0.50114 0.0
H3404 H 0.3729 0.54495 0.5431 0.0
H3405 H 0.4067 0.51996 0.53844 0.0
S3406 S 0.4077 0.56879 0.44641 0.0
N3407 N 0.38637 0.5759 0.46583 0.0
N3408 N 0.42203 0.54794 0.46028 0.0
C3409 C 0.40946 0.5458 0.4818 0.0
C3410 C 0.39011 0.5609 0.48478 0.0
C3411 C 0.90781 0.99095 0.55401 0.0
C3412 C 0.89621 0.97721 0.53127 0.0
C3413 C 0.93263 0.00456 0.55527 0.0
C3414 C 0.94717 0.00495 0.53395 0.0
H3415 H 0.89785 0.99076 0.57125 0.0
H3416 H 0.9406 0.01453 0.57337 0.0
S3417 S 0.92575 0.97304 0.46951 0.0
N3418 N 0.90104 0.96607 0.48642 0.0
N3419 N 0.94811 0.9905 0.4893 0.0
C3420 C 0.93591 0.99148 0.51103 0.0
C3421 C 0.9104 0.97789 0.50959 0.0
C3422 C 0.82144 0.17628 0.27587 0.0
C3423 C 0.81603 0.15825 0.25399 0.0
C3424 C 0.80986 0.19842 0.27931 0.0
C3425 C 0.79204 0.20333 0.26123 0.0
H3426 H 0.83527 0.17364 0.2902 0.0
H3427 H 0.81521 0.21197 0.29621 0.0
S3428 S 0.77055 0.16156 0.2009 0.0
N3429 N 0.79116 0.14643 0.21422 0.0
N3430 N 0.76925 0.18774 0.22066 0.0
C3431 C 0.786 0.18507 0.2395 0.0
C3432 C 0.79806 0.1627 0.23587 0.0
C3433 C 0.62983 0.07839 0.04007 0.0
C3434 C 0.64449 0.07104 0.02041 0.0
C3435 C 0.60427 0.06763 0.03983 0.0
C3436 C 0.5926 0.04919 0.01988 0.0
H3437 H 0.63799 0.0932 0.05529 0.0
H3438 H 0.59348 0.07443 0.05494 0.0
S3439 S 0.62379 0.02102 0.96567 0.0
N3440 N 0.64626 0.04261 0.98178 0.0
N3441 N 0.5983 0.0222 0.98124 0.0
C3442 C 0.60741 0.04084 1.0007 0.0
C3443 C 0.63335 0.05183 1.00097 0.0
C3444 C 0.23739 0.40906 0.23769 0.0
C3445 C 0.22395 0.41585 0.25862 0.0
C3446 C 0.25377 0.39123 0.23915 0.0
C3447 C 0.2578 0.38031 0.26177 0.0
H3448 H 0.23464 0.41691 0.21981 0.0
H3449 H 0.26252 0.38507 0.2222 0.0
S3450 S 0.22684 0.39074 0.32167 0.0
N3451 N 0.21532 0.40943 0.30247 0.0
N3452 N 0.2471 0.3769 0.30535 0.0
C3453 C 0.24532 0.38761 0.2831 0.0
C3454 C 0.22816 0.40521 0.2815 0.0
C3455 C 0.14471 0.48315 0.04282 0.0
C3456 C 0.15361 0.47063 0.02125 0.0
C3457 C 0.12391 0.49573 0.04099 0.0
C3458 C 0.11123 0.49641 0.0175 0.0
H3459 H 0.15395 0.48332 0.06129 0.0
H3460 H 0.11764 0.50488 0.05814 0.0
S3461 S 0.12583 0.4652 0.95552 0.0
N3462 N 0.14709 0.45863 0.9758 0.0
N3463 N 0.10857 0.4827 0.97233 0.0
C3464 C 0.11986 0.48395 0.99582 0.0
C3465 C 0.14088 0.47099 0.99769 0.0
C3466 C 0.81847 0.88452 0.25214 0.0
C3467 C 0.80756 0.90255 0.23909 0.0
C3468 C 0.80519 0.85917 0.25499 0.0
C3469 C 0.78055 0.85061 0.2446 0.0
H3470 H 0.8375 0.88998 0.26026 0.0
H3471 H 0.81431 0.84623 0.26546 0.0
S3472 S 0.74287 0.89013 0.20952 0.0
N3473 N 0.77003 0.91004 0.21658 0.0
N3474 N 0.74559 0.86224 0.22101 0.0
C3475 C 0.76947 0.86824 0.23131 0.0
C3476 C 0.78283 0.89418 0.22874 0.0
C3477 C 0.71989 0.15315 0.77359 0.0
C3478 C 0.71077 0.1398 0.74994 0.0
C3479 C 0.73255 0.17921 0.77564 0.0
C3480 C 0.73657 0.19298 0.75411 0.0
H3481 H 0.71643 0.1437 0.79077 0.0
H3482 H 0.73856 0.18876 0.79443 0.0
S3483 S 0.71884 0.1654 0.68743 0.0
N3484 N 0.70846 0.14102 0.70436 0.0
N3485 N 0.73208 0.19032 0.70803 0.0
C3486 C 0.72852 0.17937 0.73016 0.0
C3487 C 0.71561 0.15272 0.72813 0.0
loop_
_geom_bond_atom_site_label_1
_geom_bond_atom_site_label_2
_geom_bond_distance
_geom_bond_site_symmetry_2
_ccdc_geom_bond_type
Li0 N17 1.990 . S
Li0 O60 1.956 1_655 S
Li0 O61 1.970 . S
Li0 O62 1.961 1_655 S
Li1 N25 1.990 . S
Li1 O60 1.970 . S
Li1 O61 1.956 1_455 S
Li1 O63 1.961 . S
Li2 N47 1.990 . S
Li2 O60 1.961 . S
Li2 O62 1.956 . S
Li2 O63 1.970 . S
Li3 N53 1.990 . S
Li3 O61 1.961 1_455 S
Li3 O62 1.970 . S
Li3 O63 1.956 . S
C4 C6 1.348 . S
C4 C7 1.356 . S
C4 O60 1.325 . S
N5 C8 1.314 . S
N5 C9 1.279 . S
C6 C4 1.348 . S
C6 C8 1.353 . S
C6 H64 0.929 . S
C7 C4 1.356 . S
C7 C9 1.358 . S
C7 H65 0.930 . S
C8 N5 1.314 . S
C8 C6 1.353 . S
C8 H66 0.930 . S
C9 N5 1.279 . S
C9 C7 1.358 . S
C9 H67 0.930 . S
C10 C13 1.348 . S
C10 C14 1.356 . S
C10 O61 1.325 . S
C11 N12 1.279 . S
C11 C14 1.358 . S
C11 H68 0.930 . S
N12 C11 1.279 . S
N12 C15 1.314 . S
C13 C10 1.348 . S
C13 C15 1.353 . S
C13 H69 0.929 . S
C14 C10 1.356 . S
C14 C11 1.358 . S
C14 H70 0.930 . S
C15 N12 1.314 . S
C15 C13 1.353 . S
C15 H71 0.930 . S
C16 N17 1.314 . S
C16 C21 1.353 . S
C16 H22 0.930 . S
N17 Li0 1.990 . S
N17 C16 1.314 . S
N17 C19 1.279 . S
C18 C19 1.358 . S
C18 C20 1.356 . S
C18 H72 0.930 . S
C19 N17 1.279 . S
C19 C18 1.358 . S
C19 H23 0.930 . S
C20 C18 1.356 . S
C20 C21 1.348 . S
C21 C16 1.353 . S
C21 C20 1.348 . S
C21 H73 0.929 . S
H22 C16 0.930 . S
H23 C19 0.930 . S
C24 N25 1.314 . S
C24 C26 1.353 . S
C24 H30 0.930 . S
N25 Li1 1.990 . S
N25 C24 1.314 . S
N25 C28 1.279 . S
C26 C24 1.353 . S
C26 C29 1.348 . S
C26 H74 0.929 . S
C27 C28 1.358 . S
C27 C29 1.356 . S
C27 H75 0.930 1_455 S
C28 N25 1.279 . S
C28 C27 1.358 . S
C28 H31 0.930 1_455 S
C29 C26 1.348 . S
C29 C27 1.356 . S
H30 C24 0.930 . S
H31 C28 0.930 1_655 S
C32 C34 1.348 . S
C32 C35 1.356 . S
C32 O62 1.325 . S
N33 C36 1.314 . S
N33 C37 1.279 . S
C34 C32 1.348 . S
C34 C36 1.353 . S
C34 H76 0.929 . S
C35 C32 1.356 . S
C35 C37 1.358 . S
C35 H77 0.930 . S
C36 N33 1.314 . S
C36 C34 1.353 . S
C36 H78 0.930 . S
C37 N33 1.279 . S
C37 C35 1.358 . S
C37 H79 0.930 . S
C38 C39 1.348 . S
C38 C40 1.356 . S
C38 O63 1.325 . S
C39 C38 1.348 . S
C39 C41 1.353 . S
C39 H80 0.929 . S
C40 C38 1.356 . S
C40 C42 1.358 . S
C40 H81 0.930 . S
C41 C39 1.353 . S
C41 N43 1.314 . S
C41 H82 0.930 . S
C42 C40 1.358 . S
C42 N43 1.279 . S
C42 H83 0.930 . S
N43 C41 1.314 . S
N43 C42 1.279 . S
C44 C46 1.353 . S
C44 N47 1.314 . S
C44 H50 0.930 . S
C45 N47 1.279 . S
C45 C48 1.358 . S
C45 H51 0.930 . S
C46 C44 1.353 . S
C46 C49 1.348 . S
C46 H84 0.929 . S
N47 Li2 1.990 . S
N47 C44 1.314 . S
N47 C45 1.279 . S
C48 C45 1.358 . S
C48 C49 1.356 . S
C48 H85 0.930 . S
C49 C46 1.348 . S
C49 C48 1.356 . S
H50 C44 0.930 . S
H51 C45 0.930 . S
C52 N53 1.314 1_655 S
C52 C54 1.353 . S
C52 H58 0.930 . S
N53 Li3 1.990 . S
N53 C52 1.314 1_455 S
N53 C56 1.279 . S
C54 C52 1.353 . S
C54 C57 1.348 1_655 S
C54 H86 0.929 . S
C55 C56 1.358 . S
C55 C57 1.356 . S
C55 H87 0.930 . S
C56 N53 1.279 . S
C56 C55 1.358 . S
C56 H59 0.930 . S
C57 C54 1.348 1_455 S
C57 C55 1.356 . S
H58 C52 0.930 . S
H59 C56 0.930 . S
O60 Li0 1.956 1_455 S
O60 Li1 1.970 . S
O60 Li2 1.961 . S
O60 C4 1.325 . S
O61 Li0 1.970 . S
O61 Li1 1.956 1_655 S
O61 Li3 1.961 1_655 S
O61 C10 1.325 . S
O62 Li0 1.961 1_455 S
O62 Li2 1.956 . S
O62 Li3 1.970 . S
O62 C32 1.325 . S
O63 Li1 1.961 . S
O63 Li2 1.970 . S
O63 Li3 1.956 . S
O63 C38 1.325 . S
H64 C6 0.929 . S
H65 C7 0.930 . S
H66 C8 0.930 . S
H67 C9 0.930 . S
H68 C11 0.930 . S
H69 C13 0.929 . S
H70 C14 0.930 . S
H71 C15 0.930 . S
H72 C18 0.930 . S
H73 C21 0.929 . S
H74 C26 0.929 . S
H75 C27 0.930 1_655 S
H76 C34 0.929 . S
H77 C35 0.930 . S
H78 C36 0.930 . S
H79 C37 0.930 . S
H80 C39 0.929 . S
H81 C40 0.930 . S
H82 C41 0.930 . S
H83 C42 0.930 . S
H84 C46 0.929 . S
H85 C48 0.930 . S
H86 C54 0.929 . S
H87 C55 0.930 . S
Li88 N105 1.990 . S
Li88 O148 1.956 . S
Li88 O149 1.970 . S
Li88 O150 1.961 1_455 S
Li89 N113 1.990 . S
Li89 O148 1.970 . S
Li89 O149 1.956 . S
Li89 O151 1.961 . S
Li90 N135 1.990 1_455 S
Li90 O148 1.961 . S
Li90 O150 1.956 1_455 S
Li90 O151 1.970 . S
Li91 N141 1.990 . S
Li91 O149 1.961 1_655 S
Li91 O150 1.970 . S
Li91 O151 1.956 1_655 S
C92 C94 1.348 . S
C92 C95 1.356 . S
C92 O148 1.325 . S
N93 C96 1.314 . S
N93 C97 1.279 . S
C94 C92 1.348 . S
C94 C96 1.353 . S
C94 H152 0.929 . S
C95 C92 1.356 . S
C95 C97 1.358 . S
C95 H153 0.930 . S
C96 N93 1.314 . S
C96 C94 1.353 . S
C96 H154 0.930 . S
C97 N93 1.279 . S
C97 C95 1.358 . S
C97 H155 0.930 . S
C98 C101 1.348 . S
C98 C102 1.356 . S
C98 O149 1.325 . S
C99 N100 1.279 . S
C99 C102 1.358 . S
C99 H156 0.930 . S
N100 C99 1.279 . S
N100 C103 1.314 . S
C101 C98 1.348 . S
C101 C103 1.353 . S
C101 H157 0.929 . S
C102 C98 1.356 . S
C102 C99 1.358 . S
C102 H158 0.930 . S
C103 N100 1.314 . S
C103 C101 1.353 . S
C103 H159 0.930 . S
C104 N105 1.314 1_655 S
C104 C109 1.353 . S
C104 H110 0.930 . S
N105 Li88 1.990 . S
N105 C104 1.314 1_455 S
N105 C107 1.279 . S
C106 C107 1.358 . S
C106 C108 1.356 . S
C106 H160 0.930 . S
C107 N105 1.279 . S
C107 C106 1.358 . S
C107 H111 0.930 . S
C108 C106 1.356 . S
C108 C109 1.348 1_455 S
C109 C104 1.353 . S
C109 C108 1.348 1_655 S
C109 H161 0.929 . S
H110 C104 0.930 . S
H111 C107 0.930 . S
C112 N113 1.314 . S
C112 C114 1.353 . S
C112 H118 0.930 . S
N113 Li89 1.990 . S
N113 C112 1.314 . S
N113 C116 1.279 . S
C114 C112 1.353 . S
C114 C117 1.348 . S
C114 H162 0.929 . S
C115 C116 1.358 . S
C115 C117 1.356 . S
C115 H163 0.930 . S
C116 N113 1.279 . S
C116 C115 1.358 . S
C116 H119 0.930 . S
C117 C114 1.348 . S
C117 C115 1.356 . S
H118 C112 0.930 . S
H119 C116 0.930 . S
C120 C122 1.348 . S
C120 C123 1.356 . S
C120 O150 1.325 . S
N121 C124 1.314 . S
N121 C125 1.279 . S
C122 C120 1.348 . S
C122 C124 1.353 . S
C122 H164 0.929 . S
C123 C120 1.356 . S
C123 C125 1.358 . S
C123 H165 0.930 . S
C124 N121 1.314 . S
C124 C122 1.353 . S
C124 H166 0.930 . S
C125 N121 1.279 . S
C125 C123 1.358 . S
C125 H167 0.930 . S
C126 C127 1.348 1_455 S
C126 C128 1.356 . S
C126 O151 1.325 . S
C127 C126 1.348 1_655 S
C127 C129 1.353 . S
C127 H168 0.929 . S
C128 C126 1.356 . S
C128 C130 1.358 . S
C128 H169 0.930 . S
C129 C127 1.353 . S
C129 N131 1.314 . S
C129 H170 0.930 . S
C130 C128 1.358 . S
C130 N131 1.279 1_455 S
C130 H171 0.930 . S
N131 C129 1.314 . S
N131 C130 1.279 1_655 S
C132 C134 1.353 . S
C132 N135 1.314 1_455 S
C132 H138 0.930 . S
C133 N135 1.279 . S
C133 C136 1.358 . S
C133 H139 0.930 . S
C134 C132 1.353 . S
C134 C137 1.348 1_455 S
C134 H172 0.929 . S
N135 Li90 1.990 1_655 S
N135 C132 1.314 1_655 S
N135 C133 1.279 . S
C136 C133 1.358 . S
C136 C137 1.356 . S
C136 H173 0.930 . S
C137 C134 1.348 1_655 S
C137 C136 1.356 . S
H138 C132 0.930 . S
H139 C133 0.930 . S
C140 N141 1.314 . S
C140 C142 1.353 . S
C140 H146 0.930 . S
N141 Li91 1.990 . S
N141 C140 1.314 . S
N141 C144 1.279 . S
C142 C140 1.353 . S
C142 C145 1.348 . S
C142 H174 0.929 . S
C143 C144 1.358 . S
C143 C145 1.356 . S
C143 H175 0.930 . S
C144 N141 1.279 . S
C144 C143 1.358 . S
C144 H147 0.930 . S
C145 C142 1.348 . S
C145 C143 1.356 . S
H146 C140 0.930 . S
H147 C144 0.930 . S
O148 Li88 1.956 . S
O148 Li89 1.970 . S
O148 Li90 1.961 . S
O148 C92 1.325 . S
O149 Li88 1.970 . S
O149 Li89 1.956 . S
O149 Li91 1.961 1_455 S
O149 C98 1.325 . S
O150 Li88 1.961 1_655 S
O150 Li90 1.956 1_655 S
O150 Li91 1.970 . S
O150 C120 1.325 . S
O151 Li89 1.961 . S
O151 Li90 1.970 . S
O151 Li91 1.956 1_455 S
O151 C126 1.325 . S
H152 C94 0.929 . S
H153 C95 0.930 . S
H154 C96 0.930 . S
H155 C97 0.930 . S
H156 C99 0.930 . S
H157 C101 0.929 . S
H158 C102 0.930 . S
H159 C103 0.930 . S
H160 C106 0.930 . S
H161 C109 0.929 . S
H162 C114 0.929 . S
H163 C115 0.930 . S
H164 C122 0.929 . S
H165 C123 0.930 . S
H166 C124 0.930 . S
H167 C125 0.930 . S
H168 C127 0.929 . S
H169 C128 0.930 . S
H170 C129 0.930 . S
H171 C130 0.930 . S
H172 C134 0.929 . S
H173 C136 0.930 . S
H174 C142 0.929 . S
H175 C143 0.930 . S
Li176 N193 1.990 . S
Li176 O236 1.956 . S
Li176 O237 1.970 . S
Li176 O238 1.961 . S
Li177 N201 1.990 . S
Li177 O236 1.970 . S
Li177 O237 1.956 . S
Li177 O239 1.961 . S
Li178 N223 1.990 . S
Li178 O236 1.961 . S
Li178 O238 1.956 . S
Li178 O239 1.970 . S
Li179 N229 1.990 . S
Li179 O237 1.961 . S
Li179 O238 1.970 . S
Li179 O239 1.956 . S
C180 C182 1.348 . S
C180 C183 1.356 . S
C180 O236 1.325 . S
N181 C184 1.314 . S
N181 C185 1.279 . S
C182 C180 1.348 . S
C182 C184 1.353 . S
C182 H240 0.929 . S
C183 C180 1.356 . S
C183 C185 1.358 . S
C183 H241 0.930 . S
C184 N181 1.314 . S
C184 C182 1.353 . S
C184 H242 0.930 . S
C185 N181 1.279 . S
C185 C183 1.358 . S
C185 H243 0.930 . S
C186 C189 1.348 . S
C186 C190 1.356 . S
C186 O237 1.325 . S
C187 N188 1.279 . S
C187 C190 1.358 . S
C187 H244 0.930 . S
N188 C187 1.279 . S
N188 C191 1.314 . S
C189 C186 1.348 . S
C189 C191 1.353 . S
C189 H245 0.929 . S
C190 C186 1.356 . S
C190 C187 1.358 . S
C190 H246 0.930 . S
C191 N188 1.314 . S
C191 C189 1.353 . S
C191 H247 0.930 . S
C192 N193 1.314 . S
C192 C197 1.353 . S
C192 H198 0.930 . S
N193 Li176 1.990 . S
N193 C192 1.314 . S
N193 C195 1.279 . S
C194 C195 1.358 . S
C194 C196 1.356 . S
C194 H248 0.930 . S
C195 N193 1.279 . S
C195 C194 1.358 . S
C195 H199 0.930 . S
C196 C194 1.356 . S
C196 C197 1.348 . S
C197 C192 1.353 . S
C197 C196 1.348 . S
C197 H249 0.929 . S
H198 C192 0.930 . S
H199 C195 0.930 . S
C200 N201 1.314 . S
C200 C202 1.353 . S
C200 H206 0.930 . S
N201 Li177 1.990 . S
N201 C200 1.314 . S
N201 C204 1.279 . S
C202 C200 1.353 . S
C202 C205 1.348 . S
C202 H250 0.929 . S
C203 C204 1.358 . S
C203 C205 1.356 . S
C203 H251 0.930 . S
C204 N201 1.279 . S
C204 C203 1.358 . S
C204 H207 0.930 . S
C205 C202 1.348 . S
C205 C203 1.356 . S
H206 C200 0.930 . S
H207 C204 0.930 . S
C208 C210 1.348 . S
C208 C211 1.356 . S
C208 O238 1.325 . S
N209 C212 1.314 . S
N209 C213 1.279 . S
C210 C208 1.348 . S
C210 C212 1.353 . S
C210 H252 0.929 . S
C211 C208 1.356 . S
C211 C213 1.358 . S
C211 H253 0.930 . S
C212 N209 1.314 . S
C212 C210 1.353 . S
C212 H254 0.930 . S
C213 N209 1.279 . S
C213 C211 1.358 . S
C213 H255 0.930 . S
C214 C215 1.348 . S
C214 C216 1.356 . S
C214 O239 1.325 . S
C215 C214 1.348 . S
C215 C217 1.353 . S
C215 H256 0.929 . S
C216 C214 1.356 . S
C216 C218 1.358 . S
C216 H257 0.930 . S
C217 C215 1.353 . S
C217 N219 1.314 . S
C217 H258 0.930 . S
C218 C216 1.358 . S
C218 N219 1.279 . S
C218 H259 0.930 . S
N219 C217 1.314 . S
N219 C218 1.279 . S
C220 C222 1.353 . S
C220 N223 1.314 . S
C220 H226 0.930 . S
C221 N223 1.279 . S
C221 C224 1.358 . S
C221 H227 0.930 . S
C222 C220 1.353 . S
C222 C225 1.348 . S
C222 H260 0.929 . S
N223 Li178 1.990 . S
N223 C220 1.314 . S
N223 C221 1.279 . S
C224 C221 1.358 . S
C224 C225 1.356 . S
C224 H261 0.930 . S
C225 C222 1.348 . S
C225 C224 1.356 . S
H226 C220 0.930 . S
H227 C221 0.930 . S
C228 N229 1.314 . S
C228 C230 1.353 . S
C228 H234 0.930 . S
N229 Li179 1.990 . S
N229 C228 1.314 . S
N229 C232 1.279 . S
C230 C228 1.353 . S
C230 C233 1.348 . S
C230 H262 0.929 . S
C231 C232 1.358 . S
C231 C233 1.356 . S
C231 H263 0.930 . S
C232 N229 1.279 . S
C232 C231 1.358 . S
C232 H235 0.930 . S
C233 C230 1.348 . S
C233 C231 1.356 . S
H234 C228 0.930 . S
H235 C232 0.930 . S
O236 Li176 1.956 . S
O236 Li177 1.970 . S
O236 Li178 1.961 . S
O236 C180 1.325 . S
O237 Li176 1.970 . S
O237 Li177 1.956 . S
O237 Li179 1.961 . S
O237 C186 1.325 . S
O238 Li176 1.961 . S
O238 Li178 1.956 . S
O238 Li179 1.970 . S
O238 C208 1.325 . S
O239 Li177 1.961 . S
O239 Li178 1.970 . S
O239 Li179 1.956 . S
O239 C214 1.325 . S
H240 C182 0.929 . S
H241 C183 0.930 . S
H242 C184 0.930 . S
H243 C185 0.930 . S
H244 C187 0.930 . S
H245 C189 0.929 . S
H246 C190 0.930 . S
H247 C191 0.930 . S
H248 C194 0.930 . S
H249 C197 0.929 . S
H250 C202 0.929 . S
H251 C203 0.930 . S
H252 C210 0.929 . S
H253 C211 0.930 . S
H254 C212 0.930 . S
H255 C213 0.930 . S
H256 C215 0.929 . S
H257 C216 0.930 . S
H258 C217 0.930 . S
H259 C218 0.930 . S
H260 C222 0.929 . S
H261 C224 0.930 . S
H262 C230 0.929 . S
H263 C231 0.930 . S
Li264 N281 1.990 . S
Li264 O324 1.956 . S
Li264 O325 1.970 . S
Li264 O326 1.961 . S
Li265 N289 1.990 . S
Li265 O324 1.970 . S
Li265 O325 1.956 . S
Li265 O327 1.961 . S
Li266 N311 1.990 . S
Li266 O324 1.961 . S
Li266 O326 1.956 . S
Li266 O327 1.970 . S
Li267 N317 1.990 . S
Li267 O325 1.961 . S
Li267 O326 1.970 . S
Li267 O327 1.956 . S
C268 C270 1.348 . S
C268 C271 1.356 . S
C268 O324 1.325 . S
N269 C272 1.314 . S
N269 C273 1.279 . S
C270 C268 1.348 . S
C270 C272 1.353 . S
C270 H328 0.929 . S
C271 C268 1.356 . S
C271 C273 1.358 . S
C271 H329 0.930 . S
C272 N269 1.314 . S
C272 C270 1.353 . S
C272 H330 0.930 . S
C273 N269 1.279 . S
C273 C271 1.358 . S
C273 H331 0.930 . S
C274 C277 1.348 . S
C274 C278 1.356 . S
C274 O325 1.325 . S
C275 N276 1.279 . S
C275 C278 1.358 . S
C275 H332 0.930 . S
N276 C275 1.279 . S
N276 C279 1.314 . S
C277 C274 1.348 . S
C277 C279 1.353 . S
C277 H333 0.929 . S
C278 C274 1.356 . S
C278 C275 1.358 . S
C278 H334 0.930 . S
C279 N276 1.314 . S
C279 C277 1.353 . S
C279 H335 0.930 . S
C280 N281 1.314 . S
C280 C285 1.353 . S
C280 H286 0.930 . S
N281 Li264 1.990 . S
N281 C280 1.314 . S
N281 C283 1.279 . S
C282 C283 1.358 . S
C282 C284 1.356 . S
C282 H336 0.930 . S
C283 N281 1.279 . S
C283 C282 1.358 . S
C283 H287 0.930 . S
C284 C282 1.356 . S
C284 C285 1.348 . S
C285 C280 1.353 . S
C285 C284 1.348 . S
C285 H337 0.929 . S
H286 C280 0.930 . S
H287 C283 0.930 . S
C288 N289 1.314 . S
C288 C290 1.353 . S
C288 H294 0.930 . S
N289 Li265 1.990 . S
N289 C288 1.314 . S
N289 C292 1.279 . S
C290 C288 1.353 . S
C290 C293 1.348 . S
C290 H338 0.929 . S
C291 C292 1.358 . S
C291 C293 1.356 . S
C291 H339 0.930 . S
C292 N289 1.279 . S
C292 C291 1.358 . S
C292 H295 0.930 . S
C293 C290 1.348 . S
C293 C291 1.356 . S
H294 C288 0.930 . S
H295 C292 0.930 . S
C296 C298 1.348 . S
C296 C299 1.356 . S
C296 O326 1.325 . S
N297 C300 1.314 . S
N297 C301 1.279 . S
C298 C296 1.348 . S
C298 C300 1.353 . S
C298 H340 0.929 . S
C299 C296 1.356 . S
C299 C301 1.358 . S
C299 H341 0.930 . S
C300 N297 1.314 . S
C300 C298 1.353 . S
C300 H342 0.930 . S
C301 N297 1.279 . S
C301 C299 1.358 . S
C301 H343 0.930 . S
C302 C303 1.348 . S
C302 C304 1.356 . S
C302 O327 1.325 . S
C303 C302 1.348 . S
C303 C305 1.353 . S
C303 H344 0.929 . S
C304 C302 1.356 . S
C304 C306 1.358 . S
C304 H345 0.930 . S
C305 C303 1.353 . S
C305 N307 1.314 . S
C305 H346 0.930 . S
C306 C304 1.358 . S
C306 N307 1.279 . S
C306 H347 0.930 . S
N307 C305 1.314 . S
N307 C306 1.279 . S
C308 C310 1.353 . S
C308 N311 1.314 . S
C308 H314 0.930 . S
C309 N311 1.279 . S
C309 C312 1.358 . S
C309 H315 0.930 . S
C310 C308 1.353 . S
C310 C313 1.348 . S
C310 H348 0.929 . S
N311 Li266 1.990 . S
N311 C308 1.314 . S
N311 C309 1.279 . S
C312 C309 1.358 . S
C312 C313 1.356 . S
C312 H349 0.930 . S
C313 C310 1.348 . S
C313 C312 1.356 . S
H314 C308 0.930 . S
H315 C309 0.930 . S
C316 N317 1.314 . S
C316 C318 1.353 . S
C316 H322 0.930 . S
N317 Li267 1.990 . S
N317 C316 1.314 . S
N317 C320 1.279 . S
C318 C316 1.353 . S
C318 C321 1.348 . S
C318 H350 0.929 . S
C319 C320 1.358 . S
C319 C321 1.356 . S
C319 H351 0.930 . S
C320 N317 1.279 . S
C320 C319 1.358 . S
C320 H323 0.930 . S
C321 C318 1.348 . S
C321 C319 1.356 . S
H322 C316 0.930 . S
H323 C320 0.930 . S
O324 Li264 1.956 . S
O324 Li265 1.970 . S
O324 Li266 1.961 . S
O324 C268 1.325 . S
O325 Li264 1.970 . S
O325 Li265 1.956 . S
O325 Li267 1.961 . S
O325 C274 1.325 . S
O326 Li264 1.961 . S
O326 Li266 1.956 . S
O326 Li267 1.970 . S
O326 C296 1.325 . S
O327 Li265 1.961 . S
O327 Li266 1.970 . S
O327 Li267 1.956 . S
O327 C302 1.325 . S
H328 C270 0.929 . S
H329 C271 0.930 . S
H330 C272 0.930 . S
H331 C273 0.930 . S
H332 C275 0.930 . S
H333 C277 0.929 . S
H334 C278 0.930 . S
H335 C279 0.930 . S
H336 C282 0.930 . S
H337 C285 0.929 . S
H338 C290 0.929 . S
H339 C291 0.930 . S
H340 C298 0.929 . S
H341 C299 0.930 . S
H342 C300 0.930 . S
H343 C301 0.930 . S
H344 C303 0.929 . S
H345 C304 0.930 . S
H346 C305 0.930 . S
H347 C306 0.930 . S
H348 C310 0.929 . S
H349 C312 0.930 . S
H350 C318 0.929 . S
H351 C319 0.930 . S
Li352 N369 1.990 . S
Li352 O412 1.956 . S
Li352 O413 1.970 . S
Li352 O414 1.961 1_455 S
Li353 N377 1.990 . S
Li353 O412 1.970 . S
Li353 O413 1.956 . S
Li353 O415 1.961 . S
Li354 N399 1.990 . S
Li354 O412 1.961 . S
Li354 O414 1.956 1_455 S
Li354 O415 1.970 . S
Li355 N405 1.990 1_455 S
Li355 O413 1.961 . S
Li355 O414 1.970 1_455 S
Li355 O415 1.956 . S
C356 C358 1.348 . S
C356 C359 1.356 . S
C356 O412 1.325 . S
N357 C360 1.314 . S
N357 C361 1.279 . S
C358 C356 1.348 . S
C358 C360 1.353 . S
C358 H416 0.929 . S
C359 C356 1.356 . S
C359 C361 1.358 . S
C359 H417 0.930 . S
C360 N357 1.314 . S
C360 C358 1.353 . S
C360 H418 0.930 . S
C361 N357 1.279 . S
C361 C359 1.358 . S
C361 H419 0.930 . S
C362 C365 1.348 . S
C362 C366 1.356 . S
C362 O413 1.325 . S
C363 N364 1.279 . S
C363 C366 1.358 . S
C363 H420 0.930 . S
N364 C363 1.279 . S
N364 C367 1.314 . S
C365 C362 1.348 . S
C365 C367 1.353 . S
C365 H421 0.929 . S
C366 C362 1.356 . S
C366 C363 1.358 . S
C366 H422 0.930 . S
C367 N364 1.314 . S
C367 C365 1.353 . S
C367 H423 0.930 . S
C368 N369 1.314 . S
C368 C373 1.353 . S
C368 H374 0.930 1_455 S
N369 Li352 1.990 . S
N369 C368 1.314 . S
N369 C371 1.279 . S
C370 C371 1.358 . S
C370 C372 1.356 . S
C370 H424 0.930 . S
C371 N369 1.279 . S
C371 C370 1.358 . S
C371 H375 0.930 . S
C372 C370 1.356 . S
C372 C373 1.348 . S
C373 C368 1.353 . S
C373 C372 1.348 . S
C373 H425 0.929 1_455 S
H374 C368 0.930 1_655 S
H375 C371 0.930 . S
C376 N377 1.314 . S
C376 C378 1.353 . S
C376 H382 0.930 . S
N377 Li353 1.990 . S
N377 C376 1.314 . S
N377 C380 1.279 . S
C378 C376 1.353 . S
C378 C381 1.348 . S
C378 H426 0.929 . S
C379 C380 1.358 . S
C379 C381 1.356 . S
C379 H427 0.930 . S
C380 N377 1.279 . S
C380 C379 1.358 . S
C380 H383 0.930 . S
C381 C378 1.348 . S
C381 C379 1.356 . S
H382 C376 0.930 . S
H383 C380 0.930 . S
C384 C386 1.348 . S
C384 C387 1.356 . S
C384 O414 1.325 . S
N385 C388 1.314 . S
N385 C389 1.279 . S
C386 C384 1.348 . S
C386 C388 1.353 . S
C386 H428 0.929 . S
C387 C384 1.356 . S
C387 C389 1.358 . S
C387 H429 0.930 . S
C388 N385 1.314 . S
C388 C386 1.353 . S
C388 H430 0.930 . S
C389 N385 1.279 . S
C389 C387 1.358 . S
C389 H431 0.930 . S
C390 C391 1.348 . S
C390 C392 1.356 . S
C390 O415 1.325 . S
C391 C390 1.348 . S
C391 C393 1.353 . S
C391 H432 0.929 . S
C392 C390 1.356 . S
C392 C394 1.358 . S
C392 H433 0.930 . S
C393 C391 1.353 . S
C393 N395 1.314 . S
C393 H434 0.930 . S
C394 C392 1.358 . S
C394 N395 1.279 . S
C394 H435 0.930 . S
N395 C393 1.314 . S
N395 C394 1.279 . S
C396 C398 1.353 . S
C396 N399 1.314 . S
C396 H402 0.930 . S
C397 N399 1.279 1_655 S
C397 C400 1.358 . S
C397 H403 0.930 . S
C398 C396 1.353 . S
C398 C401 1.348 . S
C398 H436 0.929 . S
N399 Li354 1.990 . S
N399 C396 1.314 . S
N399 C397 1.279 1_455 S
C400 C397 1.358 . S
C400 C401 1.356 1_655 S
C400 H437 0.930 . S
C401 C398 1.348 . S
C401 C400 1.356 1_455 S
H402 C396 0.930 . S
H403 C397 0.930 . S
C404 N405 1.314 . S
C404 C406 1.353 . S
C404 H410 0.930 . S
N405 Li355 1.990 1_655 S
N405 C404 1.314 . S
N405 C408 1.279 . S
C406 C404 1.353 . S
C406 C409 1.348 . S
C406 H438 0.929 . S
C407 C408 1.358 . S
C407 C409 1.356 . S
C407 H439 0.930 . S
C408 N405 1.279 . S
C408 C407 1.358 . S
C408 H411 0.930 . S
C409 C406 1.348 . S
C409 C407 1.356 . S
H410 C404 0.930 . S
H411 C408 0.930 . S
O412 Li352 1.956 . S
O412 Li353 1.970 . S
O412 Li354 1.961 . S
O412 C356 1.325 . S
O413 Li352 1.970 . S
O413 Li353 1.956 . S
O413 Li355 1.961 . S
O413 C362 1.325 . S
O414 Li352 1.961 1_655 S
O414 Li354 1.956 1_655 S
O414 Li355 1.970 1_655 S
O414 C384 1.325 . S
O415 Li353 1.961 . S
O415 Li354 1.970 . S
O415 Li355 1.956 . S
O415 C390 1.325 . S
H416 C358 0.929 . S
H417 C359 0.930 . S
H418 C360 0.930 . S
H419 C361 0.930 . S
H420 C363 0.930 . S
H421 C365 0.929 . S
H422 C366 0.930 . S
H423 C367 0.930 . S
H424 C370 0.930 . S
H425 C373 0.929 1_655 S
H426 C378 0.929 . S
H427 C379 0.930 . S
H428 C386 0.929 . S
H429 C387 0.930 . S
H430 C388 0.930 . S
H431 C389 0.930 . S
H432 C391 0.929 . S
H433 C392 0.930 . S
H434 C393 0.930 . S
H435 C394 0.930 . S
H436 C398 0.929 . S
H437 C400 0.930 . S
H438 C406 0.929 . S
H439 C407 0.930 . S
Li440 N457 1.990 . S
Li440 O500 1.956 . S
Li440 O501 1.970 . S
Li440 O502 1.961 . S
Li441 N465 1.990 . S
Li441 O500 1.970 . S
Li441 O501 1.956 . S
Li441 O503 1.961 . S
Li442 N487 1.990 . S
Li442 O500 1.961 . S
Li442 O502 1.956 . S
Li442 O503 1.970 . S
Li443 N493 1.990 . S
Li443 O501 1.961 . S
Li443 O502 1.970 . S
Li443 O503 1.956 . S
C444 C446 1.348 . S
C444 C447 1.356 . S
C444 O500 1.325 . S
N445 C448 1.314 . S
N445 C449 1.279 . S
C446 C444 1.348 . S
C446 C448 1.353 . S
C446 H504 0.929 . S
C447 C444 1.356 . S
C447 C449 1.358 . S
C447 H505 0.930 . S
C448 N445 1.314 . S
C448 C446 1.353 . S
C448 H506 0.930 . S
C449 N445 1.279 . S
C449 C447 1.358 . S
C449 H507 0.930 . S
C450 C453 1.348 . S
C450 C454 1.356 . S
C450 O501 1.325 . S
C451 N452 1.279 . S
C451 C454 1.358 . S
C451 H508 0.930 . S
N452 C451 1.279 . S
N452 C455 1.314 . S
C453 C450 1.348 . S
C453 C455 1.353 . S
C453 H509 0.929 . S
C454 C450 1.356 . S
C454 C451 1.358 . S
C454 H510 0.930 . S
C455 N452 1.314 . S
C455 C453 1.353 . S
C455 H511 0.930 . S
C456 N457 1.314 . S
C456 C461 1.353 . S
C456 H462 0.930 . S
N457 Li440 1.990 . S
N457 C456 1.314 . S
N457 C459 1.279 . S
C458 C459 1.358 . S
C458 C460 1.356 . S
C458 H512 0.930 . S
C459 N457 1.279 . S
C459 C458 1.358 . S
C459 H463 0.930 . S
C460 C458 1.356 . S
C460 C461 1.348 . S
C461 C456 1.353 . S
C461 C460 1.348 . S
C461 H513 0.929 . S
H462 C456 0.930 . S
H463 C459 0.930 . S
C464 N465 1.314 . S
C464 C466 1.353 . S
C464 H470 0.930 . S
N465 Li441 1.990 . S
N465 C464 1.314 . S
N465 C468 1.279 . S
C466 C464 1.353 . S
C466 C469 1.348 . S
C466 H514 0.929 . S
C467 C468 1.358 . S
C467 C469 1.356 . S
C467 H515 0.930 . S
C468 N465 1.279 . S
C468 C467 1.358 . S
C468 H471 0.930 . S
C469 C466 1.348 . S
C469 C467 1.356 . S
H470 C464 0.930 . S
H471 C468 0.930 . S
C472 C474 1.348 . S
C472 C475 1.356 . S
C472 O502 1.325 . S
N473 C476 1.314 . S
N473 C477 1.279 . S
C474 C472 1.348 . S
C474 C476 1.353 . S
C474 H516 0.929 . S
C475 C472 1.356 . S
C475 C477 1.358 . S
C475 H517 0.930 . S
C476 N473 1.314 . S
C476 C474 1.353 . S
C476 H518 0.930 . S
C477 N473 1.279 . S
C477 C475 1.358 . S
C477 H519 0.930 . S
C478 C479 1.348 . S
C478 C480 1.356 . S
C478 O503 1.325 . S
C479 C478 1.348 . S
C479 C481 1.353 . S
C479 H520 0.929 . S
C480 C478 1.356 . S
C480 C482 1.358 . S
C480 H521 0.930 . S
C481 C479 1.353 . S
C481 N483 1.314 . S
C481 H522 0.930 . S
C482 C480 1.358 . S
C482 N483 1.279 . S
C482 H523 0.930 . S
N483 C481 1.314 . S
N483 C482 1.279 . S
C484 C486 1.353 . S
C484 N487 1.314 . S
C484 H490 0.930 . S
C485 N487 1.279 . S
C485 C488 1.358 . S
C485 H491 0.930 . S
C486 C484 1.353 . S
C486 C489 1.348 . S
C486 H524 0.929 . S
N487 Li442 1.990 . S
N487 C484 1.314 . S
N487 C485 1.279 . S
C488 C485 1.358 . S
C488 C489 1.356 . S
C488 H525 0.930 . S
C489 C486 1.348 . S
C489 C488 1.356 . S
H490 C484 0.930 . S
H491 C485 0.930 . S
C492 N493 1.314 . S
C492 C494 1.353 . S
C492 H498 0.930 . S
N493 Li443 1.990 . S
N493 C492 1.314 . S
N493 C496 1.279 . S
C494 C492 1.353 . S
C494 C497 1.348 . S
C494 H526 0.929 . S
C495 C496 1.358 . S
C495 C497 1.356 . S
C495 H527 0.930 . S
C496 N493 1.279 . S
C496 C495 1.358 . S
C496 H499 0.930 . S
C497 C494 1.348 . S
C497 C495 1.356 . S
H498 C492 0.930 . S
H499 C496 0.930 . S
O500 Li440 1.956 . S
O500 Li441 1.970 . S
O500 Li442 1.961 . S
O500 C444 1.325 . S
O501 Li440 1.970 . S
O501 Li441 1.956 . S
O501 Li443 1.961 . S
O501 C450 1.325 . S
O502 Li440 1.961 . S
O502 Li442 1.956 . S
O502 Li443 1.970 . S
O502 C472 1.325 . S
O503 Li441 1.961 . S
O503 Li442 1.970 . S
O503 Li443 1.956 . S
O503 C478 1.325 . S
H504 C446 0.929 . S
H505 C447 0.930 . S
H506 C448 0.930 . S
H507 C449 0.930 . S
H508 C451 0.930 . S
H509 C453 0.929 . S
H510 C454 0.930 . S
H511 C455 0.930 . S
H512 C458 0.930 . S
H513 C461 0.929 . S
H514 C466 0.929 . S
H515 C467 0.930 . S
H516 C474 0.929 . S
H517 C475 0.930 . S
H518 C476 0.930 . S
H519 C477 0.930 . S
H520 C479 0.929 . S
H521 C480 0.930 . S
H522 C481 0.930 . S
H523 C482 0.930 . S
H524 C486 0.929 . S
H525 C488 0.930 . S
H526 C494 0.929 . S
H527 C495 0.930 . S
Li528 N545 1.990 . S
Li528 O588 1.956 . S
Li528 O589 1.970 . S
Li528 O590 1.961 . S
Li529 N553 1.990 . S
Li529 O588 1.970 . S
Li529 O589 1.956 . S
Li529 O591 1.961 . S
Li530 N575 1.990 . S
Li530 O588 1.961 . S
Li530 O590 1.956 . S
Li530 O591 1.970 . S
Li531 N581 1.990 . S
Li531 O589 1.961 . S
Li531 O590 1.970 . S
Li531 O591 1.956 . S
C532 C534 1.348 . S
C532 C535 1.356 . S
C532 O588 1.325 . S
N533 C536 1.314 . S
N533 C537 1.279 . S
C534 C532 1.348 . S
C534 C536 1.353 . S
C534 H592 0.929 . S
C535 C532 1.356 . S
C535 C537 1.358 . S
C535 H593 0.930 . S
C536 N533 1.314 . S
C536 C534 1.353 . S
C536 H594 0.930 . S
C537 N533 1.279 . S
C537 C535 1.358 . S
C537 H595 0.930 . S
C538 C541 1.348 . S
C538 C542 1.356 . S
C538 O589 1.325 . S
C539 N540 1.279 . S
C539 C542 1.358 . S
C539 H596 0.930 . S
N540 C539 1.279 . S
N540 C543 1.314 . S
C541 C538 1.348 . S
C541 C543 1.353 . S
C541 H597 0.929 . S
C542 C538 1.356 . S
C542 C539 1.358 . S
C542 H598 0.930 . S
C543 N540 1.314 . S
C543 C541 1.353 . S
C543 H599 0.930 . S
C544 N545 1.314 . S
C544 C549 1.353 . S
C544 H550 0.930 . S
N545 Li528 1.990 . S
N545 C544 1.314 . S
N545 C547 1.279 . S
C546 C547 1.358 . S
C546 C548 1.356 . S
C546 H600 0.930 . S
C547 N545 1.279 . S
C547 C546 1.358 . S
C547 H551 0.930 . S
C548 C546 1.356 . S
C548 C549 1.348 . S
C549 C544 1.353 . S
C549 C548 1.348 . S
C549 H601 0.929 . S
H550 C544 0.930 . S
H551 C547 0.930 . S
C552 N553 1.314 . S
C552 C554 1.353 . S
C552 H558 0.930 . S
N553 Li529 1.990 . S
N553 C552 1.314 . S
N553 C556 1.279 . S
C554 C552 1.353 . S
C554 C557 1.348 . S
C554 H602 0.929 . S
C555 C556 1.358 . S
C555 C557 1.356 . S
C555 H603 0.930 . S
C556 N553 1.279 . S
C556 C555 1.358 . S
C556 H559 0.930 . S
C557 C554 1.348 . S
C557 C555 1.356 . S
H558 C552 0.930 . S
H559 C556 0.930 . S
C560 C562 1.348 . S
C560 C563 1.356 . S
C560 O590 1.325 . S
N561 C564 1.314 . S
N561 C565 1.279 . S
C562 C560 1.348 . S
C562 C564 1.353 . S
C562 H604 0.929 . S
C563 C560 1.356 . S
C563 C565 1.358 . S
C563 H605 0.930 . S
C564 N561 1.314 . S
C564 C562 1.353 . S
C564 H606 0.930 . S
C565 N561 1.279 . S
C565 C563 1.358 . S
C565 H607 0.930 . S
C566 C567 1.348 . S
C566 C568 1.356 . S
C566 O591 1.325 . S
C567 C566 1.348 . S
C567 C569 1.353 . S
C567 H608 0.929 . S
C568 C566 1.356 . S
C568 C570 1.358 . S
C568 H609 0.930 . S
C569 C567 1.353 . S
C569 N571 1.314 . S
C569 H610 0.930 . S
C570 C568 1.358 . S
C570 N571 1.279 . S
C570 H611 0.930 . S
N571 C569 1.314 . S
N571 C570 1.279 . S
C572 C574 1.353 . S
C572 N575 1.314 . S
C572 H578 0.930 . S
C573 N575 1.279 . S
C573 C576 1.358 . S
C573 H579 0.930 . S
C574 C572 1.353 . S
C574 C577 1.348 . S
C574 H612 0.929 . S
N575 Li530 1.990 . S
N575 C572 1.314 . S
N575 C573 1.279 . S
C576 C573 1.358 . S
C576 C577 1.356 . S
C576 H613 0.930 . S
C577 C574 1.348 . S
C577 C576 1.356 . S
H578 C572 0.930 . S
H579 C573 0.930 . S
C580 N581 1.314 . S
C580 C582 1.353 . S
C580 H586 0.930 . S
N581 Li531 1.990 . S
N581 C580 1.314 . S
N581 C584 1.279 . S
C582 C580 1.353 . S
C582 C585 1.348 . S
C582 H614 0.929 . S
C583 C584 1.358 . S
C583 C585 1.356 . S
C583 H615 0.930 . S
C584 N581 1.279 . S
C584 C583 1.358 . S
C584 H587 0.930 . S
C585 C582 1.348 . S
C585 C583 1.356 . S
H586 C580 0.930 . S
H587 C584 0.930 . S
O588 Li528 1.956 . S
O588 Li529 1.970 . S
O588 Li530 1.961 . S
O588 C532 1.325 . S
O589 Li528 1.970 . S
O589 Li529 1.956 . S
O589 Li531 1.961 . S
O589 C538 1.325 . S
O590 Li528 1.961 . S
O590 Li530 1.956 . S
O590 Li531 1.970 . S
O590 C560 1.325 . S
O591 Li529 1.961 . S
O591 Li530 1.970 . S
O591 Li531 1.956 . S
O591 C566 1.325 . S
H592 C534 0.929 . S
H593 C535 0.930 . S
H594 C536 0.930 . S
H595 C537 0.930 . S
H596 C539 0.930 . S
H597 C541 0.929 . S
H598 C542 0.930 . S
H599 C543 0.930 . S
H600 C546 0.930 . S
H601 C549 0.929 . S
H602 C554 0.929 . S
H603 C555 0.930 . S
H604 C562 0.929 . S
H605 C563 0.930 . S
H606 C564 0.930 . S
H607 C565 0.930 . S
H608 C567 0.929 . S
H609 C568 0.930 . S
H610 C569 0.930 . S
H611 C570 0.930 . S
H612 C574 0.929 . S
H613 C576 0.930 . S
H614 C582 0.929 . S
H615 C583 0.930 . S
Li616 N633 1.990 . S
Li616 O676 1.956 1_455 S
Li616 O677 1.970 . S
Li616 O678 1.961 . S
Li617 N641 1.990 . S
Li617 O676 1.970 . S
Li617 O677 1.956 1_655 S
Li617 O679 1.961 . S
Li618 N663 1.990 . S
Li618 O676 1.969 . S
Li618 O678 1.950 1_655 S
Li618 O679 1.971 . S
Li619 N669 1.990 . S
Li619 O677 1.961 . S
Li619 O678 1.970 . S
Li619 O679 1.956 1_455 S
C620 C622 1.348 . S
C620 C623 1.356 . S
C620 O676 1.325 . S
N621 C624 1.314 . S
N621 C625 1.279 . S
C622 C620 1.348 . S
C622 C624 1.353 . S
C622 H680 0.929 . S
C623 C620 1.356 . S
C623 C625 1.358 . S
C623 H681 0.930 . S
C624 N621 1.314 . S
C624 C622 1.353 . S
C624 H682 0.930 . S
C625 N621 1.279 . S
C625 C623 1.358 . S
C625 H683 0.930 . S
C626 C629 1.336 1_455 S
C626 C630 1.356 . S
C626 O677 1.325 . S
C627 N628 1.279 . S
C627 C630 1.358 . S
C627 H684 0.930 . S
N628 C627 1.279 . S
N628 C631 1.321 . S
C629 C626 1.336 1_655 S
C629 C631 1.358 1_655 S
C629 H685 0.940 . S
C630 C626 1.356 . S
C630 C627 1.358 . S
C630 H686 0.930 . S
C631 N628 1.321 . S
C631 C629 1.358 1_455 S
C631 H687 0.921 1_455 S
C632 N633 1.314 . S
C632 C637 1.353 . S
C632 H638 0.930 . S
N633 Li616 1.990 . S
N633 C632 1.314 . S
N633 C635 1.279 1_455 S
C634 C635 1.358 . S
C634 C636 1.356 1_655 S
C634 H688 0.930 . S
C635 N633 1.279 1_655 S
C635 C634 1.358 . S
C635 H639 0.930 . S
C636 C634 1.356 1_455 S
C636 C637 1.348 . S
C637 C632 1.353 . S
C637 C636 1.348 . S
C637 H689 0.929 . S
H638 C632 0.930 . S
H639 C635 0.930 . S
C640 N641 1.314 . S
C640 C642 1.353 . S
C640 H646 0.930 . S
N641 Li617 1.990 . S
N641 C640 1.314 . S
N641 C644 1.279 . S
C642 C640 1.353 . S
C642 C645 1.348 . S
C642 H690 0.929 . S
C643 C644 1.358 . S
C643 C645 1.356 . S
C643 H691 0.930 . S
C644 N641 1.279 . S
C644 C643 1.358 . S
C644 H647 0.930 . S
C645 C642 1.348 . S
C645 C643 1.356 . S
H646 C640 0.930 . S
H647 C644 0.930 . S
C648 C650 1.348 . S
C648 C651 1.356 . S
C648 O678 1.325 . S
N649 C652 1.314 . S
N649 C653 1.279 . S
C650 C648 1.348 . S
C650 C652 1.353 . S
C650 H692 0.929 . S
C651 C648 1.356 . S
C651 C653 1.358 . S
C651 H693 0.930 . S
C652 N649 1.314 . S
C652 C650 1.353 . S
C652 H694 0.930 . S
C653 N649 1.279 . S
C653 C651 1.358 . S
C653 H695 0.930 . S
C654 C655 1.344 1_655 S
C654 C656 1.356 . S
C654 O679 1.325 . S
C655 C654 1.344 1_455 S
C655 C657 1.354 1_455 S
C655 H696 0.932 . S
C656 C654 1.356 . S
C656 C658 1.358 . S
C656 H697 0.930 . S
C657 C655 1.354 1_655 S
C657 N659 1.314 . S
C657 H698 0.918 1_655 S
C658 C656 1.358 . S
C658 N659 1.279 . S
C658 H699 0.930 . S
N659 C657 1.314 . S
N659 C658 1.279 . S
C660 C662 1.353 . S
C660 N663 1.314 . S
C660 H666 0.930 . S
C661 N663 1.279 1_455 S
C661 C664 1.358 . S
C661 H667 0.930 . S
C662 C660 1.353 . S
C662 C665 1.348 . S
C662 H700 0.929 . S
N663 Li618 1.990 . S
N663 C660 1.314 . S
N663 C661 1.279 1_655 S
C664 C661 1.358 . S
C664 C665 1.356 1_455 S
C664 H701 0.930 . S
C665 C662 1.348 . S
C665 C664 1.356 1_655 S
H666 C660 0.930 . S
H667 C661 0.930 . S
C668 N669 1.314 . S
C668 C670 1.353 . S
C668 H674 0.930 . S
N669 Li619 1.990 . S
N669 C668 1.314 . S
N669 C672 1.279 . S
C670 C668 1.353 . S
C670 C673 1.348 . S
C670 H702 0.929 . S
C671 C672 1.358 . S
C671 C673 1.356 . S
C671 H703 0.930 . S
C672 N669 1.279 . S
C672 C671 1.358 . S
C672 H675 0.930 . S
C673 C670 1.348 . S
C673 C671 1.356 . S
H674 C668 0.930 . S
H675 C672 0.930 . S
O676 Li616 1.956 1_655 S
O676 Li617 1.970 . S
O676 Li618 1.969 . S
O676 C620 1.325 . S
O677 Li616 1.970 . S
O677 Li617 1.956 1_455 S
O677 Li619 1.961 . S
O677 C626 1.325 . S
O678 Li616 1.961 . S
O678 Li618 1.950 1_455 S
O678 Li619 1.970 . S
O678 C648 1.325 . S
O679 Li617 1.961 . S
O679 Li618 1.971 . S
O679 Li619 1.956 1_655 S
O679 C654 1.325 . S
H680 C622 0.929 . S
H681 C623 0.930 . S
H682 C624 0.930 . S
H683 C625 0.930 . S
H684 C627 0.930 . S
H685 C629 0.940 . S
H686 C630 0.930 . S
H687 C631 0.921 1_655 S
H688 C634 0.930 . S
H689 C637 0.929 . S
H690 C642 0.929 . S
H691 C643 0.930 . S
H692 C650 0.929 . S
H693 C651 0.930 . S
H694 C652 0.930 . S
H695 C653 0.930 . S
H696 C655 0.932 . S
H697 C656 0.930 . S
H698 C657 0.918 1_455 S
H699 C658 0.930 . S
H700 C662 0.929 . S
H701 C664 0.930 . S
H702 C670 0.929 . S
H703 C671 0.930 . S
Li704 N721 1.990 . S
Li704 O764 1.956 1_545 S
Li704 O765 1.970 . S
Li704 O766 1.961 . S
Li705 N729 1.990 . S
Li705 O764 1.970 . S
Li705 O765 1.956 1_565 S
Li705 O767 1.961 1_565 S
Li706 N751 1.990 . S
Li706 O764 1.961 1_545 S
Li706 O766 1.956 . S
Li706 O767 1.970 . S
Li707 N757 1.990 . S
Li707 O765 1.961 . S
Li707 O766 1.970 . S
Li707 O767 1.956 . S
C708 C710 1.348 . S
C708 C711 1.356 . S
C708 O764 1.325 . S
N709 C712 1.314 . S
N709 C713 1.279 . S
C710 C708 1.348 . S
C710 C712 1.353 . S
C710 H768 0.929 . S
C711 C708 1.356 . S
C711 C713 1.358 . S
C711 H769 0.930 . S
C712 N709 1.314 . S
C712 C710 1.353 . S
C712 H770 0.930 . S
C713 N709 1.279 . S
C713 C711 1.358 . S
C713 H771 0.930 . S
C714 C717 1.348 . S
C714 C718 1.356 . S
C714 O765 1.325 . S
C715 N716 1.279 . S
C715 C718 1.358 . S
C715 H772 0.930 . S
N716 C715 1.279 . S
N716 C719 1.314 . S
C717 C714 1.348 . S
C717 C719 1.353 . S
C717 H773 0.929 . S
C718 C714 1.356 . S
C718 C715 1.358 . S
C718 H774 0.930 . S
C719 N716 1.314 . S
C719 C717 1.353 . S
C719 H775 0.930 . S
C720 N721 1.314 . S
C720 C725 1.353 . S
C720 H726 0.930 . S
N721 Li704 1.990 . S
N721 C720 1.314 . S
N721 C723 1.279 . S
C722 C723 1.358 . S
C722 C724 1.356 . S
C722 H776 0.930 1_545 S
C723 N721 1.279 . S
C723 C722 1.358 . S
C723 H727 0.930 1_545 S
C724 C722 1.356 . S
C724 C725 1.348 . S
C725 C720 1.353 . S
C725 C724 1.348 . S
C725 H777 0.929 . S
H726 C720 0.930 . S
H727 C723 0.930 1_565 S
C728 N729 1.314 . S
C728 C730 1.353 . S
C728 H734 0.930 . S
N729 Li705 1.990 . S
N729 C728 1.314 . S
N729 C732 1.279 . S
C730 C728 1.353 . S
C730 C733 1.348 . S
C730 H778 0.929 . S
C731 C732 1.358 . S
C731 C733 1.356 . S
C731 H779 0.930 . S
C732 N729 1.279 . S
C732 C731 1.358 . S
C732 H735 0.930 . S
C733 C730 1.348 . S
C733 C731 1.356 . S
H734 C728 0.930 . S
H735 C732 0.930 . S
C736 C738 1.348 . S
C736 C739 1.356 . S
C736 O766 1.325 . S
N737 C740 1.314 . S
N737 C741 1.279 . S
C738 C736 1.348 . S
C738 C740 1.353 . S
C738 H780 0.929 . S
C739 C736 1.356 . S
C739 C741 1.358 . S
C739 H781 0.930 . S
C740 N737 1.314 . S
C740 C738 1.353 . S
C740 H782 0.930 . S
C741 N737 1.279 . S
C741 C739 1.358 . S
C741 H783 0.930 . S
C742 C743 1.348 . S
C742 C744 1.356 . S
C742 O767 1.325 . S
C743 C742 1.348 . S
C743 C745 1.353 . S
C743 H784 0.929 . S
C744 C742 1.356 . S
C744 C746 1.358 . S
C744 H785 0.930 . S
C745 C743 1.353 . S
C745 N747 1.314 . S
C745 H786 0.930 . S
C746 C744 1.358 . S
C746 N747 1.279 . S
C746 H787 0.930 1_545 S
N747 C745 1.314 . S
N747 C746 1.279 . S
C748 C750 1.353 . S
C748 N751 1.314 . S
C748 H754 0.930 1_545 S
C749 N751 1.279 . S
C749 C752 1.358 . S
C749 H755 0.930 . S
C750 C748 1.353 . S
C750 C753 1.348 . S
C750 H788 0.929 1_545 S
N751 Li706 1.990 . S
N751 C748 1.314 . S
N751 C749 1.279 . S
C752 C749 1.358 . S
C752 C753 1.356 . S
C752 H789 0.930 . S
C753 C750 1.348 . S
C753 C752 1.356 . S
H754 C748 0.930 1_565 S
H755 C749 0.930 . S
C756 N757 1.314 . S
C756 C758 1.353 . S
C756 H762 0.930 . S
N757 Li707 1.990 . S
N757 C756 1.314 . S
N757 C760 1.279 . S
C758 C756 1.353 . S
C758 C761 1.348 . S
C758 H790 0.929 . S
C759 C760 1.358 . S
C759 C761 1.356 . S
C759 H791 0.930 . S
C760 N757 1.279 . S
C760 C759 1.358 . S
C760 H763 0.930 . S
C761 C758 1.348 . S
C761 C759 1.356 . S
H762 C756 0.930 . S
H763 C760 0.930 . S
O764 Li704 1.956 1_565 S
O764 Li705 1.970 . S
O764 Li706 1.961 1_565 S
O764 C708 1.325 . S
O765 Li704 1.970 . S
O765 Li705 1.956 1_545 S
O765 Li707 1.961 . S
O765 C714 1.325 . S
O766 Li704 1.961 . S
O766 Li706 1.956 . S
O766 Li707 1.970 . S
O766 C736 1.325 . S
O767 Li705 1.961 1_545 S
O767 Li706 1.970 . S
O767 Li707 1.956 . S
O767 C742 1.325 . S
H768 C710 0.929 . S
H769 C711 0.930 . S
H770 C712 0.930 . S
H771 C713 0.930 . S
H772 C715 0.930 . S
H773 C717 0.929 . S
H774 C718 0.930 . S
H775 C719 0.930 . S
H776 C722 0.930 1_565 S
H777 C725 0.929 . S
H778 C730 0.929 . S
H779 C731 0.930 . S
H780 C738 0.929 . S
H781 C739 0.930 . S
H782 C740 0.930 . S
H783 C741 0.930 . S
H784 C743 0.929 . S
H785 C744 0.930 . S
H786 C745 0.930 . S
H787 C746 0.930 1_565 S
H788 C750 0.929 1_565 S
H789 C752 0.930 . S
H790 C758 0.929 . S
H791 C759 0.930 . S
Li792 N809 1.990 . S
Li792 O852 1.956 . S
Li792 O853 1.970 . S
Li792 O854 1.961 . S
Li793 N817 1.990 . S
Li793 O852 1.970 . S
Li793 O853 1.956 . S
Li793 O855 1.961 . S
Li794 N839 1.990 . S
Li794 O852 1.961 . S
Li794 O854 1.956 . S
Li794 O855 1.970 . S
Li795 N845 1.990 . S
Li795 O853 1.961 . S
Li795 O854 1.970 . S
Li795 O855 1.956 . S
C796 C798 1.348 . S
C796 C799 1.356 . S
C796 O852 1.325 . S
N797 C800 1.314 . S
N797 C801 1.279 . S
C798 C796 1.348 . S
C798 C800 1.353 . S
C798 H856 0.929 . S
C799 C796 1.356 . S
C799 C801 1.358 . S
C799 H857 0.930 . S
C800 N797 1.314 . S
C800 C798 1.353 . S
C800 H858 0.930 . S
C801 N797 1.279 . S
C801 C799 1.358 . S
C801 H859 0.930 . S
C802 C805 1.348 . S
C802 C806 1.356 . S
C802 O853 1.325 . S
C803 N804 1.279 . S
C803 C806 1.358 . S
C803 H860 0.930 . S
N804 C803 1.279 . S
N804 C807 1.314 . S
C805 C802 1.348 . S
C805 C807 1.353 . S
C805 H861 0.929 . S
C806 C802 1.356 . S
C806 C803 1.358 . S
C806 H862 0.930 . S
C807 N804 1.314 . S
C807 C805 1.353 . S
C807 H863 0.930 . S
C808 N809 1.314 . S
C808 C813 1.353 . S
C808 H814 0.930 . S
N809 Li792 1.990 . S
N809 C808 1.314 . S
N809 C811 1.279 . S
C810 C811 1.358 . S
C810 C812 1.356 . S
C810 H864 0.930 . S
C811 N809 1.279 . S
C811 C810 1.358 . S
C811 H815 0.930 . S
C812 C810 1.356 . S
C812 C813 1.348 . S
C813 C808 1.353 . S
C813 C812 1.348 . S
C813 H865 0.929 . S
H814 C808 0.930 . S
H815 C811 0.930 . S
C816 N817 1.314 . S
C816 C818 1.353 . S
C816 H822 0.930 . S
N817 Li793 1.990 . S
N817 C816 1.314 . S
N817 C820 1.279 . S
C818 C816 1.353 . S
C818 C821 1.348 . S
C818 H866 0.929 . S
C819 C820 1.358 . S
C819 C821 1.356 . S
C819 H867 0.930 . S
C820 N817 1.279 . S
C820 C819 1.358 . S
C820 H823 0.930 . S
C821 C818 1.348 . S
C821 C819 1.356 . S
H822 C816 0.930 . S
H823 C820 0.930 . S
C824 C826 1.348 . S
C824 C827 1.356 . S
C824 O854 1.325 . S
N825 C828 1.314 . S
N825 C829 1.279 . S
C826 C824 1.348 . S
C826 C828 1.353 . S
C826 H868 0.929 . S
C827 C824 1.356 . S
C827 C829 1.358 . S
C827 H869 0.930 . S
C828 N825 1.314 . S
C828 C826 1.353 . S
C828 H870 0.930 . S
C829 N825 1.279 . S
C829 C827 1.358 . S
C829 H871 0.930 . S
C830 C831 1.348 . S
C830 C832 1.356 . S
C830 O855 1.325 . S
C831 C830 1.348 . S
C831 C833 1.353 . S
C831 H872 0.929 . S
C832 C830 1.356 . S
C832 C834 1.358 . S
C832 H873 0.930 . S
C833 C831 1.353 . S
C833 N835 1.314 . S
C833 H874 0.930 . S
C834 C832 1.358 . S
C834 N835 1.279 . S
C834 H875 0.930 . S
N835 C833 1.314 . S
N835 C834 1.279 . S
C836 C838 1.353 . S
C836 N839 1.314 . S
C836 H842 0.930 . S
C837 N839 1.279 . S
C837 C840 1.358 . S
C837 H843 0.930 . S
C838 C836 1.353 . S
C838 C841 1.348 . S
C838 H876 0.929 . S
N839 Li794 1.990 . S
N839 C836 1.314 . S
N839 C837 1.279 . S
C840 C837 1.358 . S
C840 C841 1.356 . S
C840 H877 0.930 . S
C841 C838 1.348 . S
C841 C840 1.356 . S
H842 C836 0.930 . S
H843 C837 0.930 . S
C844 N845 1.314 . S
C844 C846 1.353 . S
C844 H850 0.930 . S
N845 Li795 1.990 . S
N845 C844 1.314 . S
N845 C848 1.279 . S
C846 C844 1.353 . S
C846 C849 1.348 . S
C846 H878 0.929 . S
C847 C848 1.358 . S
C847 C849 1.356 . S
C847 H879 0.930 . S
C848 N845 1.279 . S
C848 C847 1.358 . S
C848 H851 0.930 . S
C849 C846 1.348 . S
C849 C847 1.356 . S
H850 C844 0.930 . S
H851 C848 0.930 . S
O852 Li792 1.956 . S
O852 Li793 1.970 . S
O852 Li794 1.961 . S
O852 C796 1.325 . S
O853 Li792 1.970 . S
O853 Li793 1.956 . S
O853 Li795 1.961 . S
O853 C802 1.325 . S
O854 Li792 1.961 . S
O854 Li794 1.956 . S
O854 Li795 1.970 . S
O854 C824 1.325 . S
O855 Li793 1.961 . S
O855 Li794 1.970 . S
O855 Li795 1.956 . S
O855 C830 1.325 . S
H856 C798 0.929 . S
H857 C799 0.930 . S
H858 C800 0.930 . S
H859 C801 0.930 . S
H860 C803 0.930 . S
H861 C805 0.929 . S
H862 C806 0.930 . S
H863 C807 0.930 . S
H864 C810 0.930 . S
H865 C813 0.929 . S
H866 C818 0.929 . S
H867 C819 0.930 . S
H868 C826 0.929 . S
H869 C827 0.930 . S
H870 C828 0.930 . S
H871 C829 0.930 . S
H872 C831 0.929 . S
H873 C832 0.930 . S
H874 C833 0.930 . S
H875 C834 0.930 . S
H876 C838 0.929 . S
H877 C840 0.930 . S
H878 C846 0.929 . S
H879 C847 0.930 . S
Li880 N897 1.990 . S
Li880 O940 1.956 . S
Li880 O941 1.970 . S
Li880 O942 1.961 . S
Li881 N905 1.991 . S
Li881 O940 1.971 1_565 S
Li881 O941 1.955 1_565 S
Li881 O943 1.962 . S
Li882 N927 1.990 . S
Li882 O940 1.961 1_565 S
Li882 O942 1.956 1_565 S
Li882 O943 1.970 . S
Li883 N933 1.990 . S
Li883 O941 1.961 1_565 S
Li883 O942 1.970 1_565 S
Li883 O943 1.956 . S
C884 C886 1.348 . S
C884 C887 1.356 . S
C884 O940 1.325 . S
N885 C888 1.314 . S
N885 C889 1.279 . S
C886 C884 1.348 . S
C886 C888 1.353 . S
C886 H944 0.929 . S
C887 C884 1.356 . S
C887 C889 1.358 . S
C887 H945 0.930 . S
C888 N885 1.314 . S
C888 C886 1.353 . S
C888 H946 0.930 . S
C889 N885 1.279 . S
C889 C887 1.358 . S
C889 H947 0.930 . S
C890 C893 1.348 . S
C890 C894 1.356 . S
C890 O941 1.325 . S
C891 N892 1.279 . S
C891 C894 1.358 . S
C891 H948 0.930 . S
N892 C891 1.279 . S
N892 C895 1.314 . S
C893 C890 1.348 . S
C893 C895 1.353 . S
C893 H949 0.929 . S
C894 C890 1.356 . S
C894 C891 1.358 . S
C894 H950 0.930 . S
C895 N892 1.314 . S
C895 C893 1.353 . S
C895 H951 0.930 . S
C896 N897 1.314 . S
C896 C901 1.353 . S
C896 H902 0.930 . S
N897 Li880 1.990 . S
N897 C896 1.314 . S
N897 C899 1.279 . S
C898 C899 1.358 . S
C898 C900 1.356 . S
C898 H952 0.930 . S
C899 N897 1.279 . S
C899 C898 1.358 . S
C899 H903 0.930 . S
C900 C898 1.356 . S
C900 C901 1.348 . S
C901 C896 1.353 . S
C901 C900 1.348 . S
C901 H953 0.929 . S
H902 C896 0.930 . S
H903 C899 0.930 . S
C904 N905 1.353 . S
C904 C906 1.353 . S
C904 H910 0.930 . S
N905 Li881 1.991 . S
N905 C904 1.353 . S
N905 C908 1.242 1_565 S
C906 C904 1.353 . S
C906 C909 1.348 . S
C906 H954 0.929 . S
C907 C908 1.358 . S
C907 C909 1.356 1_545 S
C907 H955 0.930 . S
C908 N905 1.242 1_545 S
C908 C907 1.358 . S
C908 H911 0.930 . S
C909 C906 1.348 . S
C909 C907 1.356 1_565 S
H910 C904 0.930 . S
H911 C908 0.930 . S
C912 C914 1.348 1_545 S
C912 C915 1.356 . S
C912 O942 1.325 . S
N913 C916 1.314 1_545 S
N913 C917 1.279 . S
C914 C912 1.348 1_565 S
C914 C916 1.353 . S
C914 H956 0.929 . S
C915 C912 1.356 . S
C915 C917 1.358 . S
C915 H957 0.930 . S
C916 N913 1.314 1_565 S
C916 C914 1.353 . S
C916 H958 0.930 . S
C917 N913 1.279 . S
C917 C915 1.358 . S
C917 H959 0.930 . S
C918 C919 1.348 . S
C918 C920 1.356 . S
C918 O943 1.325 . S
C919 C918 1.348 . S
C919 C921 1.353 . S
C919 H960 0.929 . S
C920 C918 1.356 . S
C920 C922 1.358 . S
C920 H961 0.930 . S
C921 C919 1.353 . S
C921 N923 1.314 . S
C921 H962 0.930 . S
C922 C920 1.358 . S
C922 N923 1.279 . S
C922 H963 0.930 . S
N923 C921 1.314 . S
N923 C922 1.279 . S
C924 C926 1.353 . S
C924 N927 1.314 . S
C924 H930 0.930 . S
C925 N927 1.279 . S
C925 C928 1.358 . S
C925 H931 0.930 . S
C926 C924 1.353 . S
C926 C929 1.348 . S
C926 H964 0.929 . S
N927 Li882 1.990 . S
N927 C924 1.314 . S
N927 C925 1.279 . S
C928 C925 1.358 . S
C928 C929 1.356 . S
C928 H965 0.930 . S
C929 C926 1.348 . S
C929 C928 1.356 . S
H930 C924 0.930 . S
H931 C925 0.930 . S
C932 N933 1.314 1_545 S
C932 C934 1.353 . S
C932 H938 0.930 . S
N933 Li883 1.990 . S
N933 C932 1.314 1_565 S
N933 C936 1.279 . S
C934 C932 1.353 . S
C934 C937 1.348 1_545 S
C934 H966 0.929 . S
C935 C936 1.358 . S
C935 C937 1.356 . S
C935 H967 0.930 . S
C936 N933 1.279 . S
C936 C935 1.358 . S
C936 H939 0.930 . S
C937 C934 1.348 1_565 S
C937 C935 1.356 . S
H938 C932 0.930 . S
H939 C936 0.930 . S
O940 Li880 1.956 . S
O940 Li881 1.971 1_545 S
O940 Li882 1.961 1_545 S
O940 C884 1.325 . S
O941 Li880 1.970 . S
O941 Li881 1.955 1_545 S
O941 Li883 1.961 1_545 S
O941 C890 1.325 . S
O942 Li880 1.961 . S
O942 Li882 1.956 1_545 S
O942 Li883 1.970 1_545 S
O942 C912 1.325 . S
O943 Li881 1.962 . S
O943 Li882 1.970 . S
O943 Li883 1.956 . S
O943 C918 1.325 . S
H944 C886 0.929 . S
H945 C887 0.930 . S
H946 C888 0.930 . S
H947 C889 0.930 . S
H948 C891 0.930 . S
H949 C893 0.929 . S
H950 C894 0.930 . S
H951 C895 0.930 . S
H952 C898 0.930 . S
H953 C901 0.929 . S
H954 C906 0.929 . S
H955 C907 0.930 . S
H956 C914 0.929 . S
H957 C915 0.930 . S
H958 C916 0.930 . S
H959 C917 0.930 . S
H960 C919 0.929 . S
H961 C920 0.930 . S
H962 C921 0.930 . S
H963 C922 0.930 . S
H964 C926 0.929 . S
H965 C928 0.930 . S
H966 C934 0.929 . S
H967 C935 0.930 . S
Li968 N985 1.990 . S
Li968 O1028 1.956 . S
Li968 O1029 1.970 . S
Li968 O1030 1.961 1_554 S
Li969 N993 1.990 . S
Li969 O1028 1.970 . S
Li969 O1029 1.956 . S
Li969 O1031 1.961 . S
Li970 N1015 1.990 . S
Li970 O1028 1.961 . S
Li970 O1030 1.956 1_554 S
Li970 O1031 1.970 . S
Li971 N1021 1.990 . S
Li971 O1029 1.961 1_556 S
Li971 O1030 1.970 . S
Li971 O1031 1.956 1_556 S
C972 C974 1.348 . S
C972 C975 1.356 . S
C972 O1028 1.325 . S
N973 C976 1.314 . S
N973 C977 1.279 . S
C974 C972 1.348 . S
C974 C976 1.353 . S
C974 H1032 0.929 . S
C975 C972 1.356 . S
C975 C977 1.358 . S
C975 H1033 0.930 . S
C976 N973 1.314 . S
C976 C974 1.353 . S
C976 H1034 0.930 . S
C977 N973 1.279 . S
C977 C975 1.358 . S
C977 H1035 0.930 1_565 S
C978 C981 1.348 . S
C978 C982 1.356 . S
C978 O1029 1.325 . S
C979 N980 1.279 . S
C979 C982 1.358 . S
C979 H1036 0.930 . S
N980 C979 1.279 . S
N980 C983 1.314 . S
C981 C978 1.348 . S
C981 C983 1.353 . S
C981 H1037 0.929 . S
C982 C978 1.356 . S
C982 C979 1.358 . S
C982 H1038 0.930 . S
C983 N980 1.314 . S
C983 C981 1.353 . S
C983 H1039 0.930 . S
C984 N985 1.314 . S
C984 C989 1.353 . S
C984 H990 0.930 1_554 S
N985 Li968 1.990 . S
N985 C984 1.314 . S
N985 C987 1.279 . S
C986 C987 1.358 . S
C986 C988 1.356 . S
C986 H1040 0.930 . S
C987 N985 1.279 . S
C987 C986 1.358 . S
C987 H991 0.930 . S
C988 C986 1.356 . S
C988 C989 1.348 . S
C989 C984 1.353 . S
C989 C988 1.348 . S
C989 H1041 0.929 1_554 S
H990 C984 0.930 1_556 S
H991 C987 0.930 . S
C992 N993 1.314 . S
C992 C994 1.353 . S
C992 H998 0.930 . S
N993 Li969 1.990 . S
N993 C992 1.314 . S
N993 C996 1.279 . S
C994 C992 1.353 . S
C994 C997 1.348 . S
C994 H1042 0.929 . S
C995 C996 1.358 . S
C995 C997 1.356 . S
C995 H1043 0.930 . S
C996 N993 1.279 . S
C996 C995 1.358 . S
C996 H999 0.930 . S
C997 C994 1.348 . S
C997 C995 1.356 . S
H998 C992 0.930 . S
H999 C996 0.930 . S
C1000 C1002 1.348 . S
C1000 C1003 1.356 . S
C1000 O1030 1.325 . S
N1001 C1004 1.314 . S
N1001 C1005 1.279 . S
C1002 C1000 1.348 . S
C1002 C1004 1.353 . S
C1002 H1044 0.929 . S
C1003 C1000 1.356 . S
C1003 C1005 1.358 . S
C1003 H1045 0.930 . S
C1004 N1001 1.314 . S
C1004 C1002 1.353 . S
C1004 H1046 0.930 . S
C1005 N1001 1.279 . S
C1005 C1003 1.358 . S
C1005 H1047 0.930 . S
C1006 C1007 1.348 . S
C1006 C1008 1.356 . S
C1006 O1031 1.325 . S
C1007 C1006 1.348 . S
C1007 C1009 1.353 . S
C1007 H1048 0.929 . S
C1008 C1006 1.356 . S
C1008 C1010 1.358 . S
C1008 H1049 0.930 . S
C1009 C1007 1.353 . S
C1009 N1011 1.314 . S
C1009 H1050 0.930 . S
C1010 C1008 1.358 . S
C1010 N1011 1.279 . S
C1010 H1051 0.930 . S
N1011 C1009 1.314 . S
N1011 C1010 1.279 . S
C1012 C1014 1.353 . S
C1012 N1015 1.314 . S
C1012 H1018 0.930 . S
C1013 N1015 1.279 . S
C1013 C1016 1.358 . S
C1013 H1019 0.930 1_554 S
C1014 C1012 1.353 . S
C1014 C1017 1.348 . S
C1014 H1052 0.929 . S
N1015 Li970 1.990 . S
N1015 C1012 1.314 . S
N1015 C1013 1.279 . S
C1016 C1013 1.358 . S
C1016 C1017 1.356 . S
C1016 H1053 0.930 1_554 S
C1017 C1014 1.348 . S
C1017 C1016 1.356 . S
H1018 C1012 0.930 . S
H1019 C1013 0.930 1_556 S
C1020 N1021 1.314 . S
C1020 C1022 1.353 . S
C1020 H1026 0.930 . S
N1021 Li971 1.990 . S
N1021 C1020 1.314 . S
N1021 C1024 1.279 . S
C1022 C1020 1.353 . S
C1022 C1025 1.348 . S
C1022 H1054 0.929 . S
C1023 C1024 1.358 . S
C1023 C1025 1.356 . S
C1023 H1055 0.930 . S
C1024 N1021 1.279 . S
C1024 C1023 1.358 . S
C1024 H1027 0.930 . S
C1025 C1022 1.348 . S
C1025 C1023 1.356 . S
H1026 C1020 0.930 . S
H1027 C1024 0.930 . S
O1028 Li968 1.956 . S
O1028 Li969 1.970 . S
O1028 Li970 1.961 . S
O1028 C972 1.325 . S
O1029 Li968 1.970 . S
O1029 Li969 1.956 . S
O1029 Li971 1.961 1_554 S
O1029 C978 1.325 . S
O1030 Li968 1.961 1_556 S
O1030 Li970 1.956 1_556 S
O1030 Li971 1.970 . S
O1030 C1000 1.325 . S
O1031 Li969 1.961 . S
O1031 Li970 1.970 . S
O1031 Li971 1.956 1_554 S
O1031 C1006 1.325 . S
H1032 C974 0.929 . S
H1033 C975 0.930 . S
H1034 C976 0.930 . S
H1035 C977 0.930 1_545 S
H1036 C979 0.930 . S
H1037 C981 0.929 . S
H1038 C982 0.930 . S
H1039 C983 0.930 . S
H1040 C986 0.930 . S
H1041 C989 0.929 1_556 S
H1042 C994 0.929 . S
H1043 C995 0.930 . S
H1044 C1002 0.929 . S
H1045 C1003 0.930 . S
H1046 C1004 0.930 . S
H1047 C1005 0.930 . S
H1048 C1007 0.929 . S
H1049 C1008 0.930 . S
H1050 C1009 0.930 . S
H1051 C1010 0.930 . S
H1052 C1014 0.929 . S
H1053 C1016 0.930 1_556 S
H1054 C1022 0.929 . S
H1055 C1023 0.930 . S
Li1056 N1073 1.990 . S
Li1056 O1116 1.956 . S
Li1056 O1117 1.970 . S
Li1056 O1118 1.961 1_554 S
Li1057 N1081 1.990 . S
Li1057 O1116 1.970 . S
Li1057 O1117 1.956 . S
Li1057 O1119 1.961 . S
Li1058 N1103 1.990 . S
Li1058 O1116 1.961 . S
Li1058 O1118 1.956 1_554 S
Li1058 O1119 1.970 . S
Li1059 N1109 1.990 . S
Li1059 O1117 1.961 1_556 S
Li1059 O1118 1.970 . S
Li1059 O1119 1.956 1_556 S
C1060 C1062 1.348 . S
C1060 C1063 1.356 . S
C1060 O1116 1.325 . S
N1061 C1064 1.314 . S
N1061 C1065 1.279 . S
C1062 C1060 1.348 . S
C1062 C1064 1.353 . S
C1062 H1120 0.929 . S
C1063 C1060 1.356 . S
C1063 C1065 1.358 . S
C1063 H1121 0.930 . S
C1064 N1061 1.314 . S
C1064 C1062 1.353 . S
C1064 H1122 0.930 . S
C1065 N1061 1.279 . S
C1065 C1063 1.358 . S
C1065 H1123 0.930 . S
C1066 C1069 1.348 . S
C1066 C1070 1.356 . S
C1066 O1117 1.325 . S
C1067 N1068 1.279 . S
C1067 C1070 1.358 . S
C1067 H1124 0.930 1_554 S
N1068 C1067 1.279 . S
N1068 C1071 1.314 . S
C1069 C1066 1.348 . S
C1069 C1071 1.353 . S
C1069 H1125 0.929 . S
C1070 C1066 1.356 . S
C1070 C1067 1.358 . S
C1070 H1126 0.930 1_554 S
C1071 N1068 1.314 . S
C1071 C1069 1.353 . S
C1071 H1127 0.930 . S
C1072 N1073 1.314 1_556 S
C1072 C1077 1.353 . S
C1072 H1078 0.930 . S
N1073 Li1056 1.990 . S
N1073 C1072 1.314 1_554 S
N1073 C1075 1.279 . S
C1074 C1075 1.358 . S
C1074 C1076 1.356 . S
C1074 H1128 0.930 . S
C1075 N1073 1.279 . S
C1075 C1074 1.358 . S
C1075 H1079 0.930 . S
C1076 C1074 1.356 . S
C1076 C1077 1.348 1_554 S
C1077 C1072 1.353 . S
C1077 C1076 1.348 1_556 S
C1077 H1129 0.929 . S
H1078 C1072 0.930 . S
H1079 C1075 0.930 . S
C1080 N1081 1.314 . S
C1080 C1082 1.353 . S
C1080 H1086 0.930 . S
N1081 Li1057 1.990 . S
N1081 C1080 1.314 . S
N1081 C1084 1.279 . S
C1082 C1080 1.353 . S
C1082 C1085 1.348 . S
C1082 H1130 0.929 . S
C1083 C1084 1.358 . S
C1083 C1085 1.356 . S
C1083 H1131 0.930 . S
C1084 N1081 1.279 . S
C1084 C1083 1.358 . S
C1084 H1087 0.930 . S
C1085 C1082 1.348 . S
C1085 C1083 1.356 . S
H1086 C1080 0.930 . S
H1087 C1084 0.930 . S
C1088 C1090 1.348 . S
C1088 C1091 1.356 . S
C1088 O1118 1.325 . S
N1089 C1092 1.314 . S
N1089 C1093 1.279 . S
C1090 C1088 1.348 . S
C1090 C1092 1.353 . S
C1090 H1132 0.929 . S
C1091 C1088 1.356 . S
C1091 C1093 1.358 . S
C1091 H1133 0.930 . S
C1092 N1089 1.314 . S
C1092 C1090 1.353 . S
C1092 H1134 0.930 . S
C1093 N1089 1.279 . S
C1093 C1091 1.358 . S
C1093 H1135 0.930 . S
C1094 C1095 1.348 . S
C1094 C1096 1.356 . S
C1094 O1119 1.325 . S
C1095 C1094 1.348 . S
C1095 C1097 1.353 . S
C1095 H1136 0.945 . S
C1096 C1094 1.356 . S
C1096 C1098 1.358 . S
C1096 H1137 0.930 . S
C1097 C1095 1.353 . S
C1097 N1099 1.314 . S
C1097 H1138 0.940 . S
C1098 C1096 1.358 . S
C1098 N1099 1.279 . S
C1098 H1139 0.930 . S
N1099 C1097 1.314 . S
N1099 C1098 1.279 . S
C1100 C1102 1.353 . S
C1100 N1103 1.314 . S
C1100 H1106 0.930 . S
C1101 N1103 1.279 1_556 S
C1101 C1104 1.358 . S
C1101 H1107 0.930 . S
C1102 C1100 1.353 . S
C1102 C1105 1.348 . S
C1102 H1140 0.929 . S
N1103 Li1058 1.990 . S
N1103 C1100 1.314 . S
N1103 C1101 1.279 1_554 S
C1104 C1101 1.358 . S
C1104 C1105 1.356 1_556 S
C1104 H1141 0.930 . S
C1105 C1102 1.348 . S
C1105 C1104 1.356 1_554 S
H1106 C1100 0.930 . S
H1107 C1101 0.930 . S
C1108 N1109 1.314 . S
C1108 C1110 1.353 . S
C1108 H1114 0.930 . S
N1109 Li1059 1.990 . S
N1109 C1108 1.314 . S
N1109 C1112 1.279 . S
C1110 C1108 1.353 . S
C1110 C1113 1.348 . S
C1110 H1142 0.929 . S
C1111 C1112 1.358 . S
C1111 C1113 1.356 . S
C1111 H1143 0.930 . S
C1112 N1109 1.279 . S
C1112 C1111 1.358 . S
C1112 H1115 0.930 . S
C1113 C1110 1.348 . S
C1113 C1111 1.356 . S
H1114 C1108 0.930 . S
H1115 C1112 0.930 . S
O1116 Li1056 1.956 . S
O1116 Li1057 1.970 . S
O1116 Li1058 1.961 . S
O1116 C1060 1.325 . S
O1117 Li1056 1.970 . S
O1117 Li1057 1.956 . S
O1117 Li1059 1.961 1_554 S
O1117 C1066 1.325 . S
O1118 Li1056 1.961 1_556 S
O1118 Li1058 1.956 1_556 S
O1118 Li1059 1.970 . S
O1118 C1088 1.325 . S
O1119 Li1057 1.961 . S
O1119 Li1058 1.970 . S
O1119 Li1059 1.956 1_554 S
O1119 C1094 1.325 . S
H1120 C1062 0.929 . S
H1121 C1063 0.930 . S
H1122 C1064 0.930 . S
H1123 C1065 0.930 . S
H1124 C1067 0.930 1_556 S
H1125 C1069 0.929 . S
H1126 C1070 0.930 1_556 S
H1127 C1071 0.930 . S
H1128 C1074 0.930 . S
H1129 C1077 0.929 . S
H1130 C1082 0.929 . S
H1131 C1083 0.930 . S
H1132 C1090 0.929 . S
H1133 C1091 0.930 . S
H1134 C1092 0.930 . S
H1135 C1093 0.930 . S
H1136 C1095 0.945 . S
H1137 C1096 0.930 . S
H1138 C1097 0.940 . S
H1139 C1098 0.930 . S
H1140 C1102 0.929 . S
H1141 C1104 0.930 . S
H1142 C1110 0.929 . S
H1143 C1111 0.930 . S
Li1144 N1161 1.990 . S
Li1144 O1204 1.956 . S
Li1144 O1205 1.970 . S
Li1144 O1206 1.961 . S
Li1145 N1169 1.990 1_554 S
Li1145 O1204 1.970 . S
Li1145 O1205 1.961 . S
Li1145 O1207 1.956 1_554 S
Li1146 N1191 1.990 . S
Li1146 O1204 1.961 1_556 S
Li1146 O1206 1.956 1_556 S
Li1146 O1207 1.970 . S
Li1147 N1197 1.990 . S
Li1147 O1205 1.961 1_556 S
Li1147 O1206 1.970 1_556 S
Li1147 O1207 1.956 . S
C1148 C1150 1.348 . S
C1148 C1151 1.364 . S
C1148 O1204 1.325 . S
N1149 C1152 1.314 . S
N1149 C1153 1.279 . S
C1150 C1148 1.348 . S
C1150 C1152 1.353 . S
C1150 H1208 0.929 . S
C1151 C1148 1.364 . S
C1151 C1153 1.359 . S
C1151 H1209 0.923 1_554 S
C1152 N1149 1.314 . S
C1152 C1150 1.353 . S
C1152 H1210 0.930 . S
C1153 N1149 1.279 . S
C1153 C1151 1.359 . S
C1153 H1211 0.930 . S
C1154 C1157 1.348 . S
C1154 C1158 1.356 . S
C1154 O1205 1.325 . S
C1155 N1156 1.279 . S
C1155 C1158 1.358 . S
C1155 H1212 0.930 . S
N1156 C1155 1.279 . S
N1156 C1159 1.314 . S
C1157 C1154 1.348 . S
C1157 C1159 1.353 . S
C1157 H1213 0.929 . S
C1158 C1154 1.356 . S
C1158 C1155 1.358 . S
C1158 H1214 0.930 . S
C1159 N1156 1.314 . S
C1159 C1157 1.353 . S
C1159 H1215 0.930 . S
C1160 N1161 1.314 . S
C1160 C1165 1.353 . S
C1160 H1166 0.930 . S
N1161 Li1144 1.990 . S
N1161 C1160 1.314 . S
N1161 C1163 1.279 . S
C1162 C1163 1.358 . S
C1162 C1164 1.356 . S
C1162 H1216 0.930 . S
C1163 N1161 1.279 . S
C1163 C1162 1.358 . S
C1163 H1167 0.930 . S
C1164 C1162 1.356 . S
C1164 C1165 1.348 . S
C1165 C1160 1.353 . S
C1165 C1164 1.348 . S
C1165 H1217 0.929 . S
H1166 C1160 0.930 . S
H1167 C1163 0.930 . S
C1168 N1169 1.315 . S
C1168 C1170 1.353 . S
C1168 H1174 0.930 . S
N1169 Li1145 1.990 1_556 S
N1169 C1168 1.315 . S
N1169 C1172 1.279 1_556 S
C1170 C1168 1.353 . S
C1170 C1173 1.348 . S
C1170 H1218 0.929 . S
C1171 C1172 1.358 . S
C1171 C1173 1.356 1_554 S
C1171 H1219 0.930 . S
C1172 N1169 1.279 1_554 S
C1172 C1171 1.358 . S
C1172 H1175 0.930 . S
C1173 C1170 1.348 . S
C1173 C1171 1.356 1_556 S
H1174 C1168 0.930 . S
H1175 C1172 0.930 . S
C1176 C1178 1.348 1_554 S
C1176 C1179 1.356 . S
C1176 O1206 1.325 . S
N1177 C1180 1.313 1_554 S
N1177 C1181 1.281 . S
C1178 C1176 1.348 1_556 S
C1178 C1180 1.353 . S
C1178 H1220 0.929 . S
C1179 C1176 1.356 . S
C1179 C1181 1.358 . S
C1179 H1221 0.930 . S
C1180 N1177 1.313 1_556 S
C1180 C1178 1.353 . S
C1180 H1222 0.930 . S
C1181 N1177 1.281 . S
C1181 C1179 1.358 . S
C1181 H1223 0.930 . S
C1182 C1183 1.348 . S
C1182 C1184 1.356 . S
C1182 O1207 1.325 . S
C1183 C1182 1.348 . S
C1183 C1185 1.353 . S
C1183 H1224 0.929 . S
C1184 C1182 1.356 . S
C1184 C1186 1.358 . S
C1184 H1225 0.930 . S
C1185 C1183 1.353 . S
C1185 N1187 1.314 . S
C1185 H1226 0.930 . S
C1186 C1184 1.358 . S
C1186 N1187 1.279 . S
C1186 H1227 0.930 . S
N1187 C1185 1.314 . S
N1187 C1186 1.279 . S
C1188 C1190 1.353 . S
C1188 N1191 1.314 . S
C1188 H1194 0.930 . S
C1189 N1191 1.279 . S
C1189 C1192 1.358 . S
C1189 H1195 0.930 . S
C1190 C1188 1.353 . S
C1190 C1193 1.348 . S
C1190 H1228 0.929 . S
N1191 Li1146 1.990 . S
N1191 C1188 1.314 . S
N1191 C1189 1.279 . S
C1192 C1189 1.358 . S
C1192 C1193 1.356 . S
C1192 H1229 0.930 . S
C1193 C1190 1.348 . S
C1193 C1192 1.356 . S
H1194 C1188 0.930 . S
H1195 C1189 0.930 . S
C1196 N1197 1.314 1_554 S
C1196 C1198 1.353 . S
C1196 H1202 0.930 . S
N1197 Li1147 1.990 . S
N1197 C1196 1.314 1_556 S
N1197 C1200 1.279 . S
C1198 C1196 1.353 . S
C1198 C1201 1.348 1_554 S
C1198 H1230 0.929 . S
C1199 C1200 1.358 . S
C1199 C1201 1.356 . S
C1199 H1231 0.930 . S
C1200 N1197 1.279 . S
C1200 C1199 1.358 . S
C1200 H1203 0.930 . S
C1201 C1198 1.348 1_556 S
C1201 C1199 1.356 . S
H1202 C1196 0.930 . S
H1203 C1200 0.930 . S
O1204 Li1144 1.956 . S
O1204 Li1145 1.970 . S
O1204 Li1146 1.961 1_554 S
O1204 C1148 1.325 . S
O1205 Li1144 1.970 . S
O1205 Li1145 1.961 . S
O1205 Li1147 1.961 1_554 S
O1205 C1154 1.325 . S
O1206 Li1144 1.961 . S
O1206 Li1146 1.956 1_554 S
O1206 Li1147 1.970 1_554 S
O1206 C1176 1.325 . S
O1207 Li1145 1.956 1_556 S
O1207 Li1146 1.970 . S
O1207 Li1147 1.956 . S
O1207 C1182 1.325 . S
H1208 C1150 0.929 . S
H1209 C1151 0.923 1_556 S
H1210 C1152 0.930 . S
H1211 C1153 0.930 . S
H1212 C1155 0.930 . S
H1213 C1157 0.929 . S
H1214 C1158 0.930 . S
H1215 C1159 0.930 . S
H1216 C1162 0.930 . S
H1217 C1165 0.929 . S
H1218 C1170 0.929 . S
H1219 C1171 0.930 . S
H1220 C1178 0.929 . S
H1221 C1179 0.930 . S
H1222 C1180 0.930 . S
H1223 C1181 0.930 . S
H1224 C1183 0.929 . S
H1225 C1184 0.930 . S
H1226 C1185 0.930 . S
H1227 C1186 0.930 . S
H1228 C1190 0.929 . S
H1229 C1192 0.930 . S
H1230 C1198 0.929 . S
H1231 C1199 0.930 . S
Li1232 N1249 1.990 . S
Li1232 O1292 1.956 . S
Li1232 O1293 1.970 . S
Li1232 O1294 1.961 . S
Li1233 N1257 1.990 . S
Li1233 O1292 1.970 . S
Li1233 O1293 1.956 . S
Li1233 O1295 1.961 . S
Li1234 N1279 1.990 . S
Li1234 O1292 1.961 . S
Li1234 O1294 1.956 . S
Li1234 O1295 1.970 . S
Li1235 N1285 1.990 . S
Li1235 O1293 1.961 . S
Li1235 O1294 1.970 . S
Li1235 O1295 1.956 . S
C1236 C1238 1.348 . S
C1236 C1239 1.356 . S
C1236 O1292 1.325 . S
N1237 C1240 1.314 . S
N1237 C1241 1.279 . S
C1238 C1236 1.348 . S
C1238 C1240 1.353 . S
C1238 H1296 0.929 . S
C1239 C1236 1.356 . S
C1239 C1241 1.358 . S
C1239 H1297 0.930 . S
C1240 N1237 1.314 . S
C1240 C1238 1.353 . S
C1240 H1298 0.930 . S
C1241 N1237 1.279 . S
C1241 C1239 1.358 . S
C1241 H1299 0.930 . S
C1242 C1245 1.348 . S
C1242 C1246 1.356 . S
C1242 O1293 1.325 . S
C1243 N1244 1.279 . S
C1243 C1246 1.358 . S
C1243 H1300 0.930 . S
N1244 C1243 1.279 . S
N1244 C1247 1.314 . S
C1245 C1242 1.348 . S
C1245 C1247 1.353 . S
C1245 H1301 0.929 . S
C1246 C1242 1.356 . S
C1246 C1243 1.358 . S
C1246 H1302 0.930 . S
C1247 N1244 1.314 . S
C1247 C1245 1.353 . S
C1247 H1303 0.930 . S
C1248 N1249 1.314 . S
C1248 C1253 1.353 . S
C1248 H1254 0.930 . S
N1249 Li1232 1.990 . S
N1249 C1248 1.314 . S
N1249 C1251 1.279 . S
C1250 C1251 1.358 . S
C1250 C1252 1.356 . S
C1250 H1304 0.930 . S
C1251 N1249 1.279 . S
C1251 C1250 1.358 . S
C1251 H1255 0.930 . S
C1252 C1250 1.356 . S
C1252 C1253 1.348 . S
C1253 C1248 1.353 . S
C1253 C1252 1.348 . S
C1253 H1305 0.929 . S
H1254 C1248 0.930 . S
H1255 C1251 0.930 . S
C1256 N1257 1.314 . S
C1256 C1258 1.353 . S
C1256 H1262 0.930 . S
N1257 Li1233 1.990 . S
N1257 C1256 1.314 . S
N1257 C1260 1.279 . S
C1258 C1256 1.353 . S
C1258 C1261 1.348 . S
C1258 H1306 0.929 . S
C1259 C1260 1.358 . S
C1259 C1261 1.356 . S
C1259 H1307 0.930 . S
C1260 N1257 1.279 . S
C1260 C1259 1.358 . S
C1260 H1263 0.930 . S
C1261 C1258 1.348 . S
C1261 C1259 1.356 . S
H1262 C1256 0.930 . S
H1263 C1260 0.930 . S
C1264 C1266 1.348 . S
C1264 C1267 1.356 . S
C1264 O1294 1.325 . S
N1265 C1268 1.314 . S
N1265 C1269 1.279 . S
C1266 C1264 1.348 . S
C1266 C1268 1.353 . S
C1266 H1308 0.929 . S
C1267 C1264 1.356 . S
C1267 C1269 1.358 . S
C1267 H1309 0.930 . S
C1268 N1265 1.314 . S
C1268 C1266 1.353 . S
C1268 H1310 0.930 . S
C1269 N1265 1.279 . S
C1269 C1267 1.358 . S
C1269 H1311 0.930 . S
C1270 C1271 1.348 . S
C1270 C1272 1.356 . S
C1270 O1295 1.325 . S
C1271 C1270 1.348 . S
C1271 C1273 1.353 . S
C1271 H1312 0.929 . S
C1272 C1270 1.356 . S
C1272 C1274 1.358 . S
C1272 H1313 0.930 . S
C1273 C1271 1.353 . S
C1273 N1275 1.314 . S
C1273 H1314 0.930 . S
C1274 C1272 1.358 . S
C1274 N1275 1.279 . S
C1274 H1315 0.930 . S
N1275 C1273 1.314 . S
N1275 C1274 1.279 . S
C1276 C1278 1.353 . S
C1276 N1279 1.314 . S
C1276 H1282 0.930 . S
C1277 N1279 1.279 . S
C1277 C1280 1.358 . S
C1277 H1283 0.930 . S
C1278 C1276 1.353 . S
C1278 C1281 1.348 . S
C1278 H1316 0.929 . S
N1279 Li1234 1.990 . S
N1279 C1276 1.314 . S
N1279 C1277 1.279 . S
C1280 C1277 1.358 . S
C1280 C1281 1.356 . S
C1280 H1317 0.930 . S
C1281 C1278 1.348 . S
C1281 C1280 1.356 . S
H1282 C1276 0.930 . S
H1283 C1277 0.930 . S
C1284 N1285 1.314 . S
C1284 C1286 1.353 . S
C1284 H1290 0.930 . S
N1285 Li1235 1.990 . S
N1285 C1284 1.314 . S
N1285 C1288 1.279 . S
C1286 C1284 1.353 . S
C1286 C1289 1.348 . S
C1286 H1318 0.929 . S
C1287 C1288 1.358 . S
C1287 C1289 1.356 . S
C1287 H1319 0.930 . S
C1288 N1285 1.279 . S
C1288 C1287 1.358 . S
C1288 H1291 0.930 . S
C1289 C1286 1.348 . S
C1289 C1287 1.356 . S
H1290 C1284 0.930 . S
H1291 C1288 0.930 . S
O1292 Li1232 1.956 . S
O1292 Li1233 1.970 . S
O1292 Li1234 1.961 . S
O1292 C1236 1.325 . S
O1293 Li1232 1.970 . S
O1293 Li1233 1.956 . S
O1293 Li1235 1.961 . S
O1293 C1242 1.325 . S
O1294 Li1232 1.961 . S
O1294 Li1234 1.956 . S
O1294 Li1235 1.970 . S
O1294 C1264 1.325 . S
O1295 Li1233 1.961 . S
O1295 Li1234 1.970 . S
O1295 Li1235 1.956 . S
O1295 C1270 1.325 . S
H1296 C1238 0.929 . S
H1297 C1239 0.930 . S
H1298 C1240 0.930 . S
H1299 C1241 0.930 . S
H1300 C1243 0.930 . S
H1301 C1245 0.929 . S
H1302 C1246 0.930 . S
H1303 C1247 0.930 . S
H1304 C1250 0.930 . S
H1305 C1253 0.929 . S
H1306 C1258 0.929 . S
H1307 C1259 0.930 . S
H1308 C1266 0.929 . S
H1309 C1267 0.930 . S
H1310 C1268 0.930 . S
H1311 C1269 0.930 . S
H1312 C1271 0.929 . S
H1313 C1272 0.930 . S
H1314 C1273 0.930 . S
H1315 C1274 0.930 . S
H1316 C1278 0.929 . S
H1317 C1280 0.930 . S
H1318 C1286 0.929 . S
H1319 C1287 0.930 . S
Li1320 N1337 1.990 . S
Li1320 O1380 1.956 . S
Li1320 O1381 1.970 . S
Li1320 O1382 1.961 . S
Li1321 N1345 1.990 . S
Li1321 O1380 1.970 . S
Li1321 O1381 1.956 . S
Li1321 O1383 1.961 . S
Li1322 N1367 1.990 . S
Li1322 O1380 1.961 . S
Li1322 O1382 1.956 . S
Li1322 O1383 1.970 . S
Li1323 N1373 1.990 . S
Li1323 O1381 1.961 . S
Li1323 O1382 1.970 . S
Li1323 O1383 1.956 . S
C1324 C1326 1.348 . S
C1324 C1327 1.356 . S
C1324 O1380 1.325 . S
N1325 C1328 1.314 . S
N1325 C1329 1.279 . S
C1326 C1324 1.348 . S
C1326 C1328 1.353 . S
C1326 H1384 0.929 . S
C1327 C1324 1.356 . S
C1327 C1329 1.358 . S
C1327 H1385 0.930 . S
C1328 N1325 1.314 . S
C1328 C1326 1.353 . S
C1328 H1386 0.930 . S
C1329 N1325 1.279 . S
C1329 C1327 1.358 . S
C1329 H1387 0.930 . S
C1330 C1333 1.348 . S
C1330 C1334 1.356 . S
C1330 O1381 1.325 . S
C1331 N1332 1.279 . S
C1331 C1334 1.358 . S
C1331 H1388 0.930 . S
N1332 C1331 1.279 . S
N1332 C1335 1.314 . S
C1333 C1330 1.348 . S
C1333 C1335 1.353 . S
C1333 H1389 0.929 . S
C1334 C1330 1.356 . S
C1334 C1331 1.358 . S
C1334 H1390 0.930 . S
C1335 N1332 1.314 . S
C1335 C1333 1.353 . S
C1335 H1391 0.930 . S
C1336 N1337 1.314 . S
C1336 C1341 1.353 . S
C1336 H1342 0.930 . S
N1337 Li1320 1.990 . S
N1337 C1336 1.314 . S
N1337 C1339 1.279 . S
C1338 C1339 1.358 . S
C1338 C1340 1.356 . S
C1338 H1392 0.930 . S
C1339 N1337 1.279 . S
C1339 C1338 1.358 . S
C1339 H1343 0.930 . S
C1340 C1338 1.356 . S
C1340 C1341 1.348 . S
C1341 C1336 1.353 . S
C1341 C1340 1.348 . S
C1341 H1393 0.929 . S
H1342 C1336 0.930 . S
H1343 C1339 0.930 . S
C1344 N1345 1.314 . S
C1344 C1346 1.353 . S
C1344 H1350 0.930 . S
N1345 Li1321 1.990 . S
N1345 C1344 1.314 . S
N1345 C1348 1.279 . S
C1346 C1344 1.353 . S
C1346 C1349 1.348 . S
C1346 H1394 0.929 . S
C1347 C1348 1.358 . S
C1347 C1349 1.356 . S
C1347 H1395 0.930 . S
C1348 N1345 1.279 . S
C1348 C1347 1.358 . S
C1348 H1351 0.930 . S
C1349 C1346 1.348 . S
C1349 C1347 1.356 . S
H1350 C1344 0.930 . S
H1351 C1348 0.930 . S
C1352 C1354 1.348 . S
C1352 C1355 1.356 . S
C1352 O1382 1.325 . S
N1353 C1356 1.314 . S
N1353 C1357 1.279 . S
C1354 C1352 1.348 . S
C1354 C1356 1.353 . S
C1354 H1396 0.929 . S
C1355 C1352 1.356 . S
C1355 C1357 1.358 . S
C1355 H1397 0.930 . S
C1356 N1353 1.314 . S
C1356 C1354 1.353 . S
C1356 H1398 0.930 . S
C1357 N1353 1.279 . S
C1357 C1355 1.358 . S
C1357 H1399 0.930 . S
C1358 C1359 1.348 . S
C1358 C1360 1.356 . S
C1358 O1383 1.325 . S
C1359 C1358 1.348 . S
C1359 C1361 1.353 . S
C1359 H1400 0.929 . S
C1360 C1358 1.356 . S
C1360 C1362 1.358 . S
C1360 H1401 0.930 . S
C1361 C1359 1.353 . S
C1361 N1363 1.314 . S
C1361 H1402 0.930 . S
C1362 C1360 1.358 . S
C1362 N1363 1.279 . S
C1362 H1403 0.930 . S
N1363 C1361 1.314 . S
N1363 C1362 1.279 . S
C1364 C1366 1.353 . S
C1364 N1367 1.314 . S
C1364 H1370 0.930 . S
C1365 N1367 1.279 . S
C1365 C1368 1.358 . S
C1365 H1371 0.930 . S
C1366 C1364 1.353 . S
C1366 C1369 1.348 . S
C1366 H1404 0.929 . S
N1367 Li1322 1.990 . S
N1367 C1364 1.314 . S
N1367 C1365 1.279 . S
C1368 C1365 1.358 . S
C1368 C1369 1.356 . S
C1368 H1405 0.930 . S
C1369 C1366 1.348 . S
C1369 C1368 1.356 . S
H1370 C1364 0.930 . S
H1371 C1365 0.930 . S
C1372 N1373 1.314 . S
C1372 C1374 1.353 . S
C1372 H1378 0.930 . S
N1373 Li1323 1.990 . S
N1373 C1372 1.314 . S
N1373 C1376 1.279 . S
C1374 C1372 1.353 . S
C1374 C1377 1.348 . S
C1374 H1406 0.929 . S
C1375 C1376 1.358 . S
C1375 C1377 1.356 . S
C1375 H1407 0.930 . S
C1376 N1373 1.279 . S
C1376 C1375 1.358 . S
C1376 H1379 0.930 . S
C1377 C1374 1.348 . S
C1377 C1375 1.356 . S
H1378 C1372 0.930 . S
H1379 C1376 0.930 . S
O1380 Li1320 1.956 . S
O1380 Li1321 1.970 . S
O1380 Li1322 1.961 . S
O1380 C1324 1.325 . S
O1381 Li1320 1.970 . S
O1381 Li1321 1.956 . S
O1381 Li1323 1.961 . S
O1381 C1330 1.325 . S
O1382 Li1320 1.961 . S
O1382 Li1322 1.956 . S
O1382 Li1323 1.970 . S
O1382 C1352 1.325 . S
O1383 Li1321 1.961 . S
O1383 Li1322 1.970 . S
O1383 Li1323 1.956 . S
O1383 C1358 1.325 . S
H1384 C1326 0.929 . S
H1385 C1327 0.930 . S
H1386 C1328 0.930 . S
H1387 C1329 0.930 . S
H1388 C1331 0.930 . S
H1389 C1333 0.929 . S
H1390 C1334 0.930 . S
H1391 C1335 0.930 . S
H1392 C1338 0.930 . S
H1393 C1341 0.929 . S
H1394 C1346 0.929 . S
H1395 C1347 0.930 . S
H1396 C1354 0.929 . S
H1397 C1355 0.930 . S
H1398 C1356 0.930 . S
H1399 C1357 0.930 . S
H1400 C1359 0.929 . S
H1401 C1360 0.930 . S
H1402 C1361 0.930 . S
H1403 C1362 0.930 . S
H1404 C1366 0.929 . S
H1405 C1368 0.930 . S
H1406 C1374 0.929 . S
H1407 C1375 0.930 . S
Li1408 N1425 1.990 . S
Li1408 O1468 1.956 . S
Li1408 O1469 1.970 . S
Li1408 O1470 1.961 . S
Li1409 N1433 1.990 1_545 S
Li1409 O1468 1.970 . S
Li1409 O1469 1.956 . S
Li1409 O1471 1.961 . S
Li1410 N1455 1.990 . S
Li1410 O1468 1.961 . S
Li1410 O1470 1.956 . S
Li1410 O1471 1.970 . S
Li1411 N1461 1.990 . S
Li1411 O1469 1.961 . S
Li1411 O1470 1.970 . S
Li1411 O1471 1.956 . S
C1412 C1414 1.348 1_545 S
C1412 C1415 1.356 . S
C1412 O1468 1.325 . S
N1413 C1416 1.314 . S
N1413 C1417 1.279 . S
C1414 C1412 1.348 1_565 S
C1414 C1416 1.353 . S
C1414 H1472 0.929 . S
C1415 C1412 1.356 . S
C1415 C1417 1.358 1_545 S
C1415 H1473 0.930 . S
C1416 N1413 1.314 . S
C1416 C1414 1.353 . S
C1416 H1474 0.930 . S
C1417 N1413 1.279 . S
C1417 C1415 1.358 1_565 S
C1417 H1475 0.930 . S
C1418 C1421 1.348 . S
C1418 C1422 1.356 . S
C1418 O1469 1.325 . S
C1419 N1420 1.279 . S
C1419 C1422 1.358 . S
C1419 H1476 0.930 . S
N1420 C1419 1.279 . S
N1420 C1423 1.314 . S
C1421 C1418 1.348 . S
C1421 C1423 1.353 . S
C1421 H1477 0.929 . S
C1422 C1418 1.356 . S
C1422 C1419 1.358 . S
C1422 H1478 0.930 . S
C1423 N1420 1.314 . S
C1423 C1421 1.353 . S
C1423 H1479 0.930 . S
C1424 N1425 1.314 . S
C1424 C1429 1.353 . S
C1424 H1430 0.930 . S
N1425 Li1408 1.990 . S
N1425 C1424 1.314 . S
N1425 C1427 1.279 . S
C1426 C1427 1.358 . S
C1426 C1428 1.356 . S
C1426 H1480 0.930 . S
C1427 N1425 1.279 . S
C1427 C1426 1.358 . S
C1427 H1431 0.930 . S
C1428 C1426 1.356 . S
C1428 C1429 1.348 . S
C1429 C1424 1.353 . S
C1429 C1428 1.348 . S
C1429 H1481 0.929 . S
H1430 C1424 0.930 . S
H1431 C1427 0.930 . S
C1432 N1433 1.314 . S
C1432 C1434 1.353 . S
C1432 H1438 0.930 . S
N1433 Li1409 1.990 1_565 S
N1433 C1432 1.314 . S
N1433 C1436 1.279 . S
C1434 C1432 1.353 . S
C1434 C1437 1.348 . S
C1434 H1482 0.929 . S
C1435 C1436 1.358 . S
C1435 C1437 1.356 . S
C1435 H1483 0.930 . S
C1436 N1433 1.279 . S
C1436 C1435 1.358 . S
C1436 H1439 0.930 . S
C1437 C1434 1.348 . S
C1437 C1435 1.356 . S
H1438 C1432 0.930 . S
H1439 C1436 0.930 . S
C1440 C1442 1.348 . S
C1440 C1443 1.356 . S
C1440 O1470 1.325 . S
N1441 C1444 1.314 . S
N1441 C1445 1.279 . S
C1442 C1440 1.348 . S
C1442 C1444 1.353 . S
C1442 H1484 0.929 . S
C1443 C1440 1.356 . S
C1443 C1445 1.358 . S
C1443 H1485 0.930 . S
C1444 N1441 1.314 . S
C1444 C1442 1.353 . S
C1444 H1486 0.930 . S
C1445 N1441 1.279 . S
C1445 C1443 1.358 . S
C1445 H1487 0.930 . S
C1446 C1447 1.348 . S
C1446 C1448 1.356 . S
C1446 O1471 1.325 . S
C1447 C1446 1.348 . S
C1447 C1449 1.353 . S
C1447 H1488 0.929 . S
C1448 C1446 1.356 . S
C1448 C1450 1.358 . S
C1448 H1489 0.930 . S
C1449 C1447 1.353 . S
C1449 N1451 1.314 . S
C1449 H1490 0.930 . S
C1450 C1448 1.358 . S
C1450 N1451 1.279 . S
C1450 H1491 0.930 . S
N1451 C1449 1.314 . S
N1451 C1450 1.279 . S
C1452 C1454 1.353 . S
C1452 N1455 1.314 . S
C1452 H1458 0.930 . S
C1453 N1455 1.279 . S
C1453 C1456 1.358 . S
C1453 H1459 0.930 . S
C1454 C1452 1.353 . S
C1454 C1457 1.348 . S
C1454 H1492 0.929 . S
N1455 Li1410 1.990 . S
N1455 C1452 1.314 . S
N1455 C1453 1.279 . S
C1456 C1453 1.358 . S
C1456 C1457 1.356 . S
C1456 H1493 0.930 . S
C1457 C1454 1.348 . S
C1457 C1456 1.356 . S
H1458 C1452 0.930 . S
H1459 C1453 0.930 . S
C1460 N1461 1.314 . S
C1460 C1462 1.353 . S
C1460 H1466 0.930 . S
N1461 Li1411 1.990 . S
N1461 C1460 1.314 . S
N1461 C1464 1.279 . S
C1462 C1460 1.353 . S
C1462 C1465 1.348 . S
C1462 H1494 0.929 . S
C1463 C1464 1.358 . S
C1463 C1465 1.356 . S
C1463 H1495 0.930 . S
C1464 N1461 1.279 . S
C1464 C1463 1.358 . S
C1464 H1467 0.930 . S
C1465 C1462 1.348 . S
C1465 C1463 1.356 . S
H1466 C1460 0.930 . S
H1467 C1464 0.930 . S
O1468 Li1408 1.956 . S
O1468 Li1409 1.970 . S
O1468 Li1410 1.961 . S
O1468 C1412 1.325 . S
O1469 Li1408 1.970 . S
O1469 Li1409 1.956 . S
O1469 Li1411 1.961 . S
O1469 C1418 1.325 . S
O1470 Li1408 1.961 . S
O1470 Li1410 1.956 . S
O1470 Li1411 1.970 . S
O1470 C1440 1.325 . S
O1471 Li1409 1.961 . S
O1471 Li1410 1.970 . S
O1471 Li1411 1.956 . S
O1471 C1446 1.325 . S
H1472 C1414 0.929 . S
H1473 C1415 0.930 . S
H1474 C1416 0.930 . S
H1475 C1417 0.930 . S
H1476 C1419 0.930 . S
H1477 C1421 0.929 . S
H1478 C1422 0.930 . S
H1479 C1423 0.930 . S
H1480 C1426 0.930 . S
H1481 C1429 0.929 . S
H1482 C1434 0.929 . S
H1483 C1435 0.930 . S
H1484 C1442 0.929 . S
H1485 C1443 0.930 . S
H1486 C1444 0.930 . S
H1487 C1445 0.930 . S
H1488 C1447 0.929 . S
H1489 C1448 0.930 . S
H1490 C1449 0.930 . S
H1491 C1450 0.930 . S
H1492 C1454 0.929 . S
H1493 C1456 0.930 . S
H1494 C1462 0.929 . S
H1495 C1463 0.930 . S
Li1496 N1513 1.990 . S
Li1496 O1556 1.956 . S
Li1496 O1557 1.970 . S
Li1496 O1558 1.961 . S
Li1497 N1521 1.990 . S
Li1497 O1556 1.970 . S
Li1497 O1557 1.956 . S
Li1497 O1559 1.961 . S
Li1498 N1543 1.990 . S
Li1498 O1556 1.961 . S
Li1498 O1558 1.956 . S
Li1498 O1559 1.970 . S
Li1499 N1549 1.990 . S
Li1499 O1557 1.961 . S
Li1499 O1558 1.970 . S
Li1499 O1559 1.956 . S
C1500 C1502 1.348 . S
C1500 C1503 1.356 . S
C1500 O1556 1.325 . S
N1501 C1504 1.314 . S
N1501 C1505 1.279 . S
C1502 C1500 1.348 . S
C1502 C1504 1.353 . S
C1502 H1560 0.929 . S
C1503 C1500 1.356 . S
C1503 C1505 1.358 . S
C1503 H1561 0.930 . S
C1504 N1501 1.314 . S
C1504 C1502 1.353 . S
C1504 H1562 0.930 . S
C1505 N1501 1.279 . S
C1505 C1503 1.358 . S
C1505 H1563 0.930 . S
C1506 C1509 1.348 . S
C1506 C1510 1.356 . S
C1506 O1557 1.325 . S
C1507 N1508 1.279 . S
C1507 C1510 1.358 . S
C1507 H1564 0.930 . S
N1508 C1507 1.279 . S
N1508 C1511 1.314 . S
C1509 C1506 1.348 . S
C1509 C1511 1.353 . S
C1509 H1565 0.929 . S
C1510 C1506 1.356 . S
C1510 C1507 1.358 . S
C1510 H1566 0.930 . S
C1511 N1508 1.314 . S
C1511 C1509 1.353 . S
C1511 H1567 0.930 . S
C1512 N1513 1.314 . S
C1512 C1517 1.353 . S
C1512 H1518 0.930 . S
N1513 Li1496 1.990 . S
N1513 C1512 1.314 . S
N1513 C1515 1.279 . S
C1514 C1515 1.358 . S
C1514 C1516 1.356 . S
C1514 H1568 0.930 . S
C1515 N1513 1.279 . S
C1515 C1514 1.358 . S
C1515 H1519 0.930 . S
C1516 C1514 1.356 . S
C1516 C1517 1.348 . S
C1517 C1512 1.353 . S
C1517 C1516 1.348 . S
C1517 H1569 0.929 . S
H1518 C1512 0.930 . S
H1519 C1515 0.930 . S
C1520 N1521 1.314 . S
C1520 C1522 1.353 . S
C1520 H1526 0.930 . S
N1521 Li1497 1.990 . S
N1521 C1520 1.314 . S
N1521 C1524 1.279 . S
C1522 C1520 1.353 . S
C1522 C1525 1.348 . S
C1522 H1570 0.929 . S
C1523 C1524 1.358 . S
C1523 C1525 1.356 . S
C1523 H1571 0.930 . S
C1524 N1521 1.279 . S
C1524 C1523 1.358 . S
C1524 H1527 0.930 . S
C1525 C1522 1.348 . S
C1525 C1523 1.356 . S
H1526 C1520 0.930 . S
H1527 C1524 0.930 . S
C1528 C1530 1.348 . S
C1528 C1531 1.356 . S
C1528 O1558 1.325 . S
N1529 C1532 1.314 . S
N1529 C1533 1.279 . S
C1530 C1528 1.348 . S
C1530 C1532 1.353 . S
C1530 H1572 0.929 . S
C1531 C1528 1.356 . S
C1531 C1533 1.358 . S
C1531 H1573 0.930 . S
C1532 N1529 1.314 . S
C1532 C1530 1.353 . S
C1532 H1574 0.930 . S
C1533 N1529 1.279 . S
C1533 C1531 1.358 . S
C1533 H1575 0.930 . S
C1534 C1535 1.348 . S
C1534 C1536 1.356 . S
C1534 O1559 1.325 . S
C1535 C1534 1.348 . S
C1535 C1537 1.353 . S
C1535 H1576 0.929 . S
C1536 C1534 1.356 . S
C1536 C1538 1.358 . S
C1536 H1577 0.930 . S
C1537 C1535 1.353 . S
C1537 N1539 1.314 . S
C1537 H1578 0.930 . S
C1538 C1536 1.358 . S
C1538 N1539 1.279 . S
C1538 H1579 0.930 . S
N1539 C1537 1.314 . S
N1539 C1538 1.279 . S
C1540 C1542 1.353 . S
C1540 N1543 1.314 . S
C1540 H1546 0.930 . S
C1541 N1543 1.279 . S
C1541 C1544 1.358 . S
C1541 H1547 0.930 . S
C1542 C1540 1.353 . S
C1542 C1545 1.348 . S
C1542 H1580 0.929 . S
N1543 Li1498 1.990 . S
N1543 C1540 1.314 . S
N1543 C1541 1.279 . S
C1544 C1541 1.358 . S
C1544 C1545 1.356 . S
C1544 H1581 0.930 . S
C1545 C1542 1.348 . S
C1545 C1544 1.356 . S
H1546 C1540 0.930 . S
H1547 C1541 0.930 . S
C1548 N1549 1.314 . S
C1548 C1550 1.353 . S
C1548 H1554 0.930 . S
N1549 Li1499 1.990 . S
N1549 C1548 1.314 . S
N1549 C1552 1.279 . S
C1550 C1548 1.353 . S
C1550 C1553 1.348 . S
C1550 H1582 0.929 . S
C1551 C1552 1.358 . S
C1551 C1553 1.356 . S
C1551 H1583 0.930 . S
C1552 N1549 1.279 . S
C1552 C1551 1.358 . S
C1552 H1555 0.930 . S
C1553 C1550 1.348 . S
C1553 C1551 1.356 . S
H1554 C1548 0.930 . S
H1555 C1552 0.930 . S
O1556 Li1496 1.956 . S
O1556 Li1497 1.970 . S
O1556 Li1498 1.961 . S
O1556 C1500 1.325 . S
O1557 Li1496 1.970 . S
O1557 Li1497 1.956 . S
O1557 Li1499 1.961 . S
O1557 C1506 1.325 . S
O1558 Li1496 1.961 . S
O1558 Li1498 1.956 . S
O1558 Li1499 1.970 . S
O1558 C1528 1.325 . S
O1559 Li1497 1.961 . S
O1559 Li1498 1.970 . S
O1559 Li1499 1.956 . S
O1559 C1534 1.325 . S
H1560 C1502 0.929 . S
H1561 C1503 0.930 . S
H1562 C1504 0.930 . S
H1563 C1505 0.930 . S
H1564 C1507 0.930 . S
H1565 C1509 0.929 . S
H1566 C1510 0.930 . S
H1567 C1511 0.930 . S
H1568 C1514 0.930 . S
H1569 C1517 0.929 . S
H1570 C1522 0.929 . S
H1571 C1523 0.930 . S
H1572 C1530 0.929 . S
H1573 C1531 0.930 . S
H1574 C1532 0.930 . S
H1575 C1533 0.930 . S
H1576 C1535 0.929 . S
H1577 C1536 0.930 . S
H1578 C1537 0.930 . S
H1579 C1538 0.930 . S
H1580 C1542 0.929 . S
H1581 C1544 0.930 . S
H1582 C1550 0.929 . S
H1583 C1551 0.930 . S
Li1584 N1601 1.990 . S
Li1584 O1644 1.956 . S
Li1584 O1645 1.970 . S
Li1584 O1646 1.961 . S
Li1585 N1609 1.990 . S
Li1585 O1644 1.970 . S
Li1585 O1645 1.956 . S
Li1585 O1647 1.961 . S
Li1586 N1631 1.990 . S
Li1586 O1644 1.961 . S
Li1586 O1646 1.956 . S
Li1586 O1647 1.970 . S
Li1587 N1637 1.990 . S
Li1587 O1645 1.961 . S
Li1587 O1646 1.970 . S
Li1587 O1647 1.956 . S
C1588 C1590 1.348 . S
C1588 C1591 1.356 . S
C1588 O1644 1.325 . S
N1589 C1592 1.314 . S
N1589 C1593 1.279 . S
C1590 C1588 1.348 . S
C1590 C1592 1.353 . S
C1590 H1648 0.929 . S
C1591 C1588 1.356 . S
C1591 C1593 1.358 . S
C1591 H1649 0.930 . S
C1592 N1589 1.314 . S
C1592 C1590 1.353 . S
C1592 H1650 0.930 . S
C1593 N1589 1.279 . S
C1593 C1591 1.358 . S
C1593 H1651 0.930 . S
C1594 C1597 1.348 . S
C1594 C1598 1.356 . S
C1594 O1645 1.325 . S
C1595 N1596 1.279 . S
C1595 C1598 1.358 . S
C1595 H1652 0.930 . S
N1596 C1595 1.279 . S
N1596 C1599 1.314 . S
C1597 C1594 1.348 . S
C1597 C1599 1.353 . S
C1597 H1653 0.929 . S
C1598 C1594 1.356 . S
C1598 C1595 1.358 . S
C1598 H1654 0.930 . S
C1599 N1596 1.314 . S
C1599 C1597 1.353 . S
C1599 H1655 0.930 . S
C1600 N1601 1.314 . S
C1600 C1605 1.353 . S
C1600 H1606 0.930 . S
N1601 Li1584 1.990 . S
N1601 C1600 1.314 . S
N1601 C1603 1.279 . S
C1602 C1603 1.358 . S
C1602 C1604 1.356 . S
C1602 H1656 0.930 . S
C1603 N1601 1.279 . S
C1603 C1602 1.358 . S
C1603 H1607 0.930 . S
C1604 C1602 1.356 . S
C1604 C1605 1.348 . S
C1605 C1600 1.353 . S
C1605 C1604 1.348 . S
C1605 H1657 0.929 . S
H1606 C1600 0.930 . S
H1607 C1603 0.930 . S
C1608 N1609 1.314 . S
C1608 C1610 1.353 . S
C1608 H1614 0.930 . S
N1609 Li1585 1.990 . S
N1609 C1608 1.314 . S
N1609 C1612 1.279 . S
C1610 C1608 1.353 . S
C1610 C1613 1.348 . S
C1610 H1658 0.929 . S
C1611 C1612 1.358 . S
C1611 C1613 1.356 . S
C1611 H1659 0.930 . S
C1612 N1609 1.279 . S
C1612 C1611 1.358 . S
C1612 H1615 0.930 . S
C1613 C1610 1.348 . S
C1613 C1611 1.356 . S
H1614 C1608 0.930 . S
H1615 C1612 0.930 . S
C1616 C1618 1.348 . S
C1616 C1619 1.356 . S
C1616 O1646 1.325 . S
N1617 C1620 1.314 . S
N1617 C1621 1.279 . S
C1618 C1616 1.348 . S
C1618 C1620 1.353 . S
C1618 H1660 0.929 . S
C1619 C1616 1.356 . S
C1619 C1621 1.358 . S
C1619 H1661 0.930 . S
C1620 N1617 1.314 . S
C1620 C1618 1.353 . S
C1620 H1662 0.930 . S
C1621 N1617 1.279 . S
C1621 C1619 1.358 . S
C1621 H1663 0.930 . S
C1622 C1623 1.348 . S
C1622 C1624 1.356 . S
C1622 O1647 1.325 . S
C1623 C1622 1.348 . S
C1623 C1625 1.353 . S
C1623 H1664 0.929 . S
C1624 C1622 1.356 . S
C1624 C1626 1.358 . S
C1624 H1665 0.930 . S
C1625 C1623 1.353 . S
C1625 N1627 1.314 . S
C1625 H1666 0.930 . S
C1626 C1624 1.358 . S
C1626 N1627 1.279 . S
C1626 H1667 0.930 . S
N1627 C1625 1.314 . S
N1627 C1626 1.279 . S
C1628 C1630 1.353 . S
C1628 N1631 1.314 . S
C1628 H1634 0.930 . S
C1629 N1631 1.279 . S
C1629 C1632 1.358 . S
C1629 H1635 0.930 . S
C1630 C1628 1.353 . S
C1630 C1633 1.348 . S
C1630 H1668 0.929 . S
N1631 Li1586 1.990 . S
N1631 C1628 1.314 . S
N1631 C1629 1.279 . S
C1632 C1629 1.358 . S
C1632 C1633 1.356 . S
C1632 H1669 0.930 . S
C1633 C1630 1.348 . S
C1633 C1632 1.356 . S
H1634 C1628 0.930 . S
H1635 C1629 0.930 . S
C1636 N1637 1.314 . S
C1636 C1638 1.353 . S
C1636 H1642 0.930 . S
N1637 Li1587 1.990 . S
N1637 C1636 1.314 . S
N1637 C1640 1.279 . S
C1638 C1636 1.353 . S
C1638 C1641 1.348 . S
C1638 H1670 0.929 . S
C1639 C1640 1.358 . S
C1639 C1641 1.356 . S
C1639 H1671 0.930 . S
C1640 N1637 1.279 . S
C1640 C1639 1.358 . S
C1640 H1643 0.930 . S
C1641 C1638 1.348 . S
C1641 C1639 1.356 . S
H1642 C1636 0.930 . S
H1643 C1640 0.930 . S
O1644 Li1584 1.956 . S
O1644 Li1585 1.970 . S
O1644 Li1586 1.961 . S
O1644 C1588 1.325 . S
O1645 Li1584 1.970 . S
O1645 Li1585 1.956 . S
O1645 Li1587 1.961 . S
O1645 C1594 1.325 . S
O1646 Li1584 1.961 . S
O1646 Li1586 1.956 . S
O1646 Li1587 1.970 . S
O1646 C1616 1.325 . S
O1647 Li1585 1.961 . S
O1647 Li1586 1.970 . S
O1647 Li1587 1.956 . S
O1647 C1622 1.325 . S
H1648 C1590 0.929 . S
H1649 C1591 0.930 . S
H1650 C1592 0.930 . S
H1651 C1593 0.930 . S
H1652 C1595 0.930 . S
H1653 C1597 0.929 . S
H1654 C1598 0.930 . S
H1655 C1599 0.930 . S
H1656 C1602 0.930 . S
H1657 C1605 0.929 . S
H1658 C1610 0.929 . S
H1659 C1611 0.930 . S
H1660 C1618 0.929 . S
H1661 C1619 0.930 . S
H1662 C1620 0.930 . S
H1663 C1621 0.930 . S
H1664 C1623 0.929 . S
H1665 C1624 0.930 . S
H1666 C1625 0.930 . S
H1667 C1626 0.930 . S
H1668 C1630 0.929 . S
H1669 C1632 0.930 . S
H1670 C1638 0.929 . S
H1671 C1639 0.930 . S
Li1672 N1689 1.990 . S
Li1672 O1732 1.956 . S
Li1672 O1733 1.970 . S
Li1672 O1734 1.961 1_545 S
Li1673 N1697 1.990 . S
Li1673 O1732 1.970 . S
Li1673 O1733 1.956 . S
Li1673 O1735 1.961 . S
Li1674 N1719 1.990 . S
Li1674 O1732 1.961 . S
Li1674 O1734 1.956 1_545 S
Li1674 O1735 1.970 . S
Li1675 N1725 1.990 1_545 S
Li1675 O1733 1.961 . S
Li1675 O1734 1.970 1_545 S
Li1675 O1735 1.956 . S
C1676 C1678 1.348 . S
C1676 C1679 1.356 . S
C1676 O1732 1.325 . S
N1677 C1680 1.314 . S
N1677 C1681 1.279 . S
C1678 C1676 1.348 . S
C1678 C1680 1.353 . S
C1678 H1736 0.929 . S
C1679 C1676 1.356 . S
C1679 C1681 1.358 . S
C1679 H1737 0.930 . S
C1680 N1677 1.314 . S
C1680 C1678 1.353 . S
C1680 H1738 0.930 . S
C1681 N1677 1.279 . S
C1681 C1679 1.358 . S
C1681 H1739 0.930 . S
C1682 C1685 1.348 . S
C1682 C1686 1.356 . S
C1682 O1733 1.325 . S
C1683 N1684 1.279 . S
C1683 C1686 1.358 . S
C1683 H1740 0.930 . S
N1684 C1683 1.279 . S
N1684 C1687 1.314 . S
C1685 C1682 1.348 . S
C1685 C1687 1.353 . S
C1685 H1741 0.929 . S
C1686 C1682 1.356 . S
C1686 C1683 1.358 . S
C1686 H1742 0.930 . S
C1687 N1684 1.314 . S
C1687 C1685 1.353 . S
C1687 H1743 0.930 . S
C1688 N1689 1.314 . S
C1688 C1693 1.353 . S
C1688 H1694 0.930 1_545 S
N1689 Li1672 1.990 . S
N1689 C1688 1.314 . S
N1689 C1691 1.279 . S
C1690 C1691 1.358 . S
C1690 C1692 1.356 . S
C1690 H1744 0.930 . S
C1691 N1689 1.279 . S
C1691 C1690 1.358 . S
C1691 H1695 0.930 . S
C1692 C1690 1.356 . S
C1692 C1693 1.348 . S
C1693 C1688 1.353 . S
C1693 C1692 1.348 . S
C1693 H1745 0.929 1_545 S
H1694 C1688 0.930 1_565 S
H1695 C1691 0.930 . S
C1696 N1697 1.314 . S
C1696 C1698 1.353 . S
C1696 H1702 0.930 . S
N1697 Li1673 1.990 . S
N1697 C1696 1.314 . S
N1697 C1700 1.279 . S
C1698 C1696 1.353 . S
C1698 C1701 1.348 . S
C1698 H1746 0.929 . S
C1699 C1700 1.358 . S
C1699 C1701 1.356 . S
C1699 H1747 0.930 . S
C1700 N1697 1.279 . S
C1700 C1699 1.358 . S
C1700 H1703 0.930 . S
C1701 C1698 1.348 . S
C1701 C1699 1.356 . S
H1702 C1696 0.930 . S
H1703 C1700 0.930 . S
C1704 C1706 1.348 . S
C1704 C1707 1.356 . S
C1704 O1734 1.325 . S
N1705 C1708 1.314 . S
N1705 C1709 1.279 . S
C1706 C1704 1.348 . S
C1706 C1708 1.353 . S
C1706 H1748 0.929 . S
C1707 C1704 1.356 . S
C1707 C1709 1.358 . S
C1707 H1749 0.930 . S
C1708 N1705 1.314 . S
C1708 C1706 1.353 . S
C1708 H1750 0.930 . S
C1709 N1705 1.279 . S
C1709 C1707 1.358 . S
C1709 H1751 0.930 . S
C1710 C1711 1.348 . S
C1710 C1712 1.356 . S
C1710 O1735 1.325 . S
C1711 C1710 1.348 . S
C1711 C1713 1.353 . S
C1711 H1752 0.929 . S
C1712 C1710 1.356 . S
C1712 C1714 1.358 . S
C1712 H1753 0.930 . S
C1713 C1711 1.353 . S
C1713 N1715 1.314 . S
C1713 H1754 0.930 . S
C1714 C1712 1.358 . S
C1714 N1715 1.279 . S
C1714 H1755 0.930 . S
N1715 C1713 1.314 . S
N1715 C1714 1.279 . S
C1716 C1718 1.353 . S
C1716 N1719 1.314 . S
C1716 H1722 0.930 . S
C1717 N1719 1.279 1_565 S
C1717 C1720 1.358 . S
C1717 H1723 0.930 . S
C1718 C1716 1.353 . S
C1718 C1721 1.348 . S
C1718 H1756 0.929 . S
N1719 Li1674 1.990 . S
N1719 C1716 1.314 . S
N1719 C1717 1.279 1_545 S
C1720 C1717 1.358 . S
C1720 C1721 1.356 1_565 S
C1720 H1757 0.930 . S
C1721 C1718 1.348 . S
C1721 C1720 1.356 1_545 S
H1722 C1716 0.930 . S
H1723 C1717 0.930 . S
C1724 N1725 1.314 . S
C1724 C1726 1.353 . S
C1724 H1730 0.930 . S
N1725 Li1675 1.990 1_565 S
N1725 C1724 1.314 . S
N1725 C1728 1.279 . S
C1726 C1724 1.353 . S
C1726 C1729 1.348 . S
C1726 H1758 0.929 . S
C1727 C1728 1.358 . S
C1727 C1729 1.356 . S
C1727 H1759 0.930 . S
C1728 N1725 1.279 . S
C1728 C1727 1.358 . S
C1728 H1731 0.930 . S
C1729 C1726 1.348 . S
C1729 C1727 1.356 . S
H1730 C1724 0.930 . S
H1731 C1728 0.930 . S
O1732 Li1672 1.956 . S
O1732 Li1673 1.970 . S
O1732 Li1674 1.961 . S
O1732 C1676 1.325 . S
O1733 Li1672 1.970 . S
O1733 Li1673 1.956 . S
O1733 Li1675 1.961 . S
O1733 C1682 1.325 . S
O1734 Li1672 1.961 1_565 S
O1734 Li1674 1.956 1_565 S
O1734 Li1675 1.970 1_565 S
O1734 C1704 1.325 . S
O1735 Li1673 1.961 . S
O1735 Li1674 1.970 . S
O1735 Li1675 1.956 . S
O1735 C1710 1.325 . S
H1736 C1678 0.929 . S
H1737 C1679 0.930 . S
H1738 C1680 0.930 . S
H1739 C1681 0.930 . S
H1740 C1683 0.930 . S
H1741 C1685 0.929 . S
H1742 C1686 0.930 . S
H1743 C1687 0.930 . S
H1744 C1690 0.930 . S
H1745 C1693 0.929 1_565 S
H1746 C1698 0.929 . S
H1747 C1699 0.930 . S
H1748 C1706 0.929 . S
H1749 C1707 0.930 . S
H1750 C1708 0.930 . S
H1751 C1709 0.930 . S
H1752 C1711 0.929 . S
H1753 C1712 0.930 . S
H1754 C1713 0.930 . S
H1755 C1714 0.930 . S
H1756 C1718 0.929 . S
H1757 C1720 0.930 . S
H1758 C1726 0.929 . S
H1759 C1727 0.930 . S
Li1760 N1777 1.990 . S
Li1760 O1820 1.956 . S
Li1760 O1821 1.970 . S
Li1760 O1822 1.961 . S
Li1761 N1785 1.990 . S
Li1761 O1820 1.970 . S
Li1761 O1821 1.956 . S
Li1761 O1823 1.961 1_554 S
Li1762 N1807 1.990 . S
Li1762 O1820 1.961 1_556 S
Li1762 O1822 1.956 1_556 S
Li1762 O1823 1.970 . S
Li1763 N1813 1.990 . S
Li1763 O1821 1.961 . S
Li1763 O1822 1.970 . S
Li1763 O1823 1.956 1_554 S
C1764 C1766 1.348 . S
C1764 C1767 1.356 . S
C1764 O1820 1.325 . S
N1765 C1768 1.314 . S
N1765 C1769 1.279 . S
C1766 C1764 1.348 . S
C1766 C1768 1.353 . S
C1766 H1824 0.929 . S
C1767 C1764 1.356 . S
C1767 C1769 1.358 . S
C1767 H1825 0.930 . S
C1768 N1765 1.314 . S
C1768 C1766 1.353 . S
C1768 H1826 0.930 . S
C1769 N1765 1.279 . S
C1769 C1767 1.358 . S
C1769 H1827 0.930 . S
C1770 C1773 1.348 . S
C1770 C1774 1.356 . S
C1770 O1821 1.325 . S
C1771 N1772 1.279 . S
C1771 C1774 1.358 . S
C1771 H1828 0.930 . S
N1772 C1771 1.279 . S
N1772 C1775 1.314 . S
C1773 C1770 1.348 . S
C1773 C1775 1.353 . S
C1773 H1829 0.929 . S
C1774 C1770 1.356 . S
C1774 C1771 1.358 . S
C1774 H1830 0.930 . S
C1775 N1772 1.314 . S
C1775 C1773 1.353 . S
C1775 H1831 0.930 . S
C1776 N1777 1.314 . S
C1776 C1781 1.353 . S
C1776 H1782 0.930 . S
N1777 Li1760 1.990 . S
N1777 C1776 1.314 . S
N1777 C1779 1.279 . S
C1778 C1779 1.358 . S
C1778 C1780 1.356 . S
C1778 H1832 0.930 . S
C1779 N1777 1.279 . S
C1779 C1778 1.358 . S
C1779 H1783 0.930 . S
C1780 C1778 1.356 . S
C1780 C1781 1.348 . S
C1781 C1776 1.353 . S
C1781 C1780 1.348 . S
C1781 H1833 0.929 . S
H1782 C1776 0.930 . S
H1783 C1779 0.930 . S
C1784 N1785 1.314 1_556 S
C1784 C1786 1.353 . S
C1784 H1790 0.930 . S
N1785 Li1761 1.990 . S
N1785 C1784 1.314 1_554 S
N1785 C1788 1.279 . S
C1786 C1784 1.353 . S
C1786 C1789 1.348 1_556 S
C1786 H1834 0.929 . S
C1787 C1788 1.358 . S
C1787 C1789 1.356 . S
C1787 H1835 0.930 . S
C1788 N1785 1.279 . S
C1788 C1787 1.358 . S
C1788 H1791 0.930 . S
C1789 C1786 1.348 1_554 S
C1789 C1787 1.356 . S
H1790 C1784 0.930 . S
H1791 C1788 0.930 . S
C1792 C1794 1.348 . S
C1792 C1795 1.356 . S
C1792 O1822 1.325 . S
N1793 C1796 1.314 . S
N1793 C1797 1.279 . S
C1794 C1792 1.348 . S
C1794 C1796 1.353 . S
C1794 H1836 0.929 1_554 S
C1795 C1792 1.356 . S
C1795 C1797 1.358 . S
C1795 H1837 0.930 . S
C1796 N1793 1.314 . S
C1796 C1794 1.353 . S
C1796 H1838 0.930 1_554 S
C1797 N1793 1.279 . S
C1797 C1795 1.358 . S
C1797 H1839 0.930 . S
C1798 C1799 1.348 . S
C1798 C1800 1.356 . S
C1798 O1823 1.325 . S
C1799 C1798 1.348 . S
C1799 C1801 1.353 . S
C1799 H1840 0.929 . S
C1800 C1798 1.356 . S
C1800 C1802 1.358 . S
C1800 H1841 0.930 . S
C1801 C1799 1.353 . S
C1801 N1803 1.314 . S
C1801 H1842 0.930 . S
C1802 C1800 1.358 . S
C1802 N1803 1.279 . S
C1802 H1843 0.930 . S
N1803 C1801 1.314 . S
N1803 C1802 1.279 . S
C1804 C1806 1.353 . S
C1804 N1807 1.314 . S
C1804 H1810 0.930 . S
C1805 N1807 1.279 . S
C1805 C1808 1.358 . S
C1805 H1811 0.930 . S
C1806 C1804 1.353 . S
C1806 C1809 1.348 . S
C1806 H1844 0.929 . S
N1807 Li1762 1.990 . S
N1807 C1804 1.314 . S
N1807 C1805 1.279 . S
C1808 C1805 1.358 . S
C1808 C1809 1.356 . S
C1808 H1845 0.930 . S
C1809 C1806 1.348 . S
C1809 C1808 1.356 . S
H1810 C1804 0.930 . S
H1811 C1805 0.930 . S
C1812 N1813 1.314 . S
C1812 C1814 1.353 . S
C1812 H1818 0.930 . S
N1813 Li1763 1.990 . S
N1813 C1812 1.314 . S
N1813 C1816 1.279 1_554 S
C1814 C1812 1.353 . S
C1814 C1817 1.348 . S
C1814 H1846 0.929 . S
C1815 C1816 1.358 . S
C1815 C1817 1.356 1_556 S
C1815 H1847 0.930 . S
C1816 N1813 1.279 1_556 S
C1816 C1815 1.358 . S
C1816 H1819 0.930 . S
C1817 C1814 1.348 . S
C1817 C1815 1.356 1_554 S
H1818 C1812 0.930 . S
H1819 C1816 0.930 . S
O1820 Li1760 1.956 . S
O1820 Li1761 1.970 . S
O1820 Li1762 1.961 1_554 S
O1820 C1764 1.325 . S
O1821 Li1760 1.970 . S
O1821 Li1761 1.956 . S
O1821 Li1763 1.961 . S
O1821 C1770 1.325 . S
O1822 Li1760 1.961 . S
O1822 Li1762 1.956 1_554 S
O1822 Li1763 1.970 . S
O1822 C1792 1.325 . S
O1823 Li1761 1.961 1_556 S
O1823 Li1762 1.970 . S
O1823 Li1763 1.956 1_556 S
O1823 C1798 1.325 . S
H1824 C1766 0.929 . S
H1825 C1767 0.930 . S
H1826 C1768 0.930 . S
H1827 C1769 0.930 . S
H1828 C1771 0.930 . S
H1829 C1773 0.929 . S
H1830 C1774 0.930 . S
H1831 C1775 0.930 . S
H1832 C1778 0.930 . S
H1833 C1781 0.929 . S
H1834 C1786 0.929 . S
H1835 C1787 0.930 . S
H1836 C1794 0.929 1_556 S
H1837 C1795 0.930 . S
H1838 C1796 0.930 1_556 S
H1839 C1797 0.930 . S
H1840 C1799 0.929 . S
H1841 C1800 0.930 . S
H1842 C1801 0.930 . S
H1843 C1802 0.930 . S
H1844 C1806 0.929 . S
H1845 C1808 0.930 . S
H1846 C1814 0.929 . S
H1847 C1815 0.930 . S
Li1848 N1865 1.990 . S
Li1848 O1908 1.956 . S
Li1848 O1909 1.970 . S
Li1848 O1910 1.961 . S
Li1849 N1873 1.990 . S
Li1849 O1908 1.970 . S
Li1849 O1909 1.956 . S
Li1849 O1911 1.961 . S
Li1850 N1895 1.990 . S
Li1850 O1908 1.961 . S
Li1850 O1910 1.956 . S
Li1850 O1911 1.970 . S
Li1851 N1901 1.990 . S
Li1851 O1909 1.961 . S
Li1851 O1910 1.970 . S
Li1851 O1911 1.956 . S
C1852 C1854 1.348 . S
C1852 C1855 1.356 . S
C1852 O1908 1.325 . S
N1853 C1856 1.314 . S
N1853 C1857 1.279 . S
C1854 C1852 1.348 . S
C1854 C1856 1.353 . S
C1854 H1912 0.929 . S
C1855 C1852 1.356 . S
C1855 C1857 1.358 . S
C1855 H1913 0.930 . S
C1856 N1853 1.314 . S
C1856 C1854 1.353 . S
C1856 H1914 0.930 . S
C1857 N1853 1.279 . S
C1857 C1855 1.358 . S
C1857 H1915 0.930 . S
C1858 C1861 1.348 . S
C1858 C1862 1.356 . S
C1858 O1909 1.325 . S
C1859 N1860 1.279 . S
C1859 C1862 1.358 . S
C1859 H1916 0.930 . S
N1860 C1859 1.279 . S
N1860 C1863 1.314 . S
C1861 C1858 1.348 . S
C1861 C1863 1.353 . S
C1861 H1917 0.929 . S
C1862 C1858 1.356 . S
C1862 C1859 1.358 . S
C1862 H1918 0.930 . S
C1863 N1860 1.314 . S
C1863 C1861 1.353 . S
C1863 H1919 0.930 . S
C1864 N1865 1.314 . S
C1864 C1869 1.353 . S
C1864 H1870 0.930 . S
N1865 Li1848 1.990 . S
N1865 C1864 1.314 . S
N1865 C1867 1.279 . S
C1866 C1867 1.358 . S
C1866 C1868 1.356 . S
C1866 H1920 0.930 . S
C1867 N1865 1.279 . S
C1867 C1866 1.358 . S
C1867 H1871 0.930 . S
C1868 C1866 1.356 . S
C1868 C1869 1.348 . S
C1869 C1864 1.353 . S
C1869 C1868 1.348 . S
C1869 H1921 0.929 . S
H1870 C1864 0.930 . S
H1871 C1867 0.930 . S
C1872 N1873 1.314 . S
C1872 C1874 1.353 . S
C1872 H1878 0.930 . S
N1873 Li1849 1.990 . S
N1873 C1872 1.314 . S
N1873 C1876 1.279 . S
C1874 C1872 1.353 . S
C1874 C1877 1.348 . S
C1874 H1922 0.929 . S
C1875 C1876 1.358 . S
C1875 C1877 1.356 . S
C1875 H1923 0.930 . S
C1876 N1873 1.279 . S
C1876 C1875 1.358 . S
C1876 H1879 0.930 . S
C1877 C1874 1.348 . S
C1877 C1875 1.356 . S
H1878 C1872 0.930 . S
H1879 C1876 0.930 . S
C1880 C1882 1.348 . S
C1880 C1883 1.356 . S
C1880 O1910 1.325 . S
N1881 C1884 1.314 . S
N1881 C1885 1.279 . S
C1882 C1880 1.348 . S
C1882 C1884 1.353 . S
C1882 H1924 0.929 . S
C1883 C1880 1.356 . S
C1883 C1885 1.358 . S
C1883 H1925 0.930 . S
C1884 N1881 1.314 . S
C1884 C1882 1.353 . S
C1884 H1926 0.930 . S
C1885 N1881 1.279 . S
C1885 C1883 1.358 . S
C1885 H1927 0.930 . S
C1886 C1887 1.348 . S
C1886 C1888 1.356 . S
C1886 O1911 1.325 . S
C1887 C1886 1.348 . S
C1887 C1889 1.353 . S
C1887 H1928 0.929 . S
C1888 C1886 1.356 . S
C1888 C1890 1.358 . S
C1888 H1929 0.930 . S
C1889 C1887 1.353 . S
C1889 N1891 1.314 . S
C1889 H1930 0.930 . S
C1890 C1888 1.358 . S
C1890 N1891 1.279 . S
C1890 H1931 0.930 . S
N1891 C1889 1.314 . S
N1891 C1890 1.279 . S
C1892 C1894 1.353 . S
C1892 N1895 1.314 . S
C1892 H1898 0.930 . S
C1893 N1895 1.279 . S
C1893 C1896 1.358 . S
C1893 H1899 0.930 . S
C1894 C1892 1.353 . S
C1894 C1897 1.348 . S
C1894 H1932 0.929 . S
N1895 Li1850 1.990 . S
N1895 C1892 1.314 . S
N1895 C1893 1.279 . S
C1896 C1893 1.358 . S
C1896 C1897 1.356 . S
C1896 H1933 0.930 . S
C1897 C1894 1.348 . S
C1897 C1896 1.356 . S
H1898 C1892 0.930 . S
H1899 C1893 0.930 . S
C1900 N1901 1.314 . S
C1900 C1902 1.353 . S
C1900 H1906 0.930 . S
N1901 Li1851 1.990 . S
N1901 C1900 1.314 . S
N1901 C1904 1.279 . S
C1902 C1900 1.353 . S
C1902 C1905 1.348 . S
C1902 H1934 0.929 . S
C1903 C1904 1.358 . S
C1903 C1905 1.356 . S
C1903 H1935 0.930 . S
C1904 N1901 1.279 . S
C1904 C1903 1.358 . S
C1904 H1907 0.930 . S
C1905 C1902 1.348 . S
C1905 C1903 1.356 . S
H1906 C1900 0.930 . S
H1907 C1904 0.930 . S
O1908 Li1848 1.956 . S
O1908 Li1849 1.970 . S
O1908 Li1850 1.961 . S
O1908 C1852 1.325 . S
O1909 Li1848 1.970 . S
O1909 Li1849 1.956 . S
O1909 Li1851 1.961 . S
O1909 C1858 1.325 . S
O1910 Li1848 1.961 . S
O1910 Li1850 1.956 . S
O1910 Li1851 1.970 . S
O1910 C1880 1.325 . S
O1911 Li1849 1.961 . S
O1911 Li1850 1.970 . S
O1911 Li1851 1.956 . S
O1911 C1886 1.325 . S
H1912 C1854 0.929 . S
H1913 C1855 0.930 . S
H1914 C1856 0.930 . S
H1915 C1857 0.930 . S
H1916 C1859 0.930 . S
H1917 C1861 0.929 . S
H1918 C1862 0.930 . S
H1919 C1863 0.930 . S
H1920 C1866 0.930 . S
H1921 C1869 0.929 . S
H1922 C1874 0.929 . S
H1923 C1875 0.930 . S
H1924 C1882 0.929 . S
H1925 C1883 0.930 . S
H1926 C1884 0.930 . S
H1927 C1885 0.930 . S
H1928 C1887 0.929 . S
H1929 C1888 0.930 . S
H1930 C1889 0.930 . S
H1931 C1890 0.930 . S
H1932 C1894 0.929 . S
H1933 C1896 0.930 . S
H1934 C1902 0.929 . S
H1935 C1903 0.930 . S
Li1936 N1953 1.990 . S
Li1936 O1996 1.956 . S
Li1936 O1997 1.970 . S
Li1936 O1998 1.961 . S
Li1937 N1961 1.990 . S
Li1937 O1996 1.970 . S
Li1937 O1997 1.956 . S
Li1937 O1999 1.961 . S
Li1938 N1983 1.990 . S
Li1938 O1996 1.961 . S
Li1938 O1998 1.956 . S
Li1938 O1999 1.970 . S
Li1939 N1989 1.990 . S
Li1939 O1997 1.961 . S
Li1939 O1998 1.970 . S
Li1939 O1999 1.956 . S
C1940 C1942 1.348 . S
C1940 C1943 1.356 . S
C1940 O1996 1.325 . S
N1941 C1944 1.314 . S
N1941 C1945 1.279 . S
C1942 C1940 1.348 . S
C1942 C1944 1.353 . S
C1942 H2000 0.929 . S
C1943 C1940 1.356 . S
C1943 C1945 1.358 . S
C1943 H2001 0.930 . S
C1944 N1941 1.314 . S
C1944 C1942 1.353 . S
C1944 H2002 0.930 . S
C1945 N1941 1.279 . S
C1945 C1943 1.358 . S
C1945 H2003 0.930 . S
C1946 C1949 1.348 . S
C1946 C1950 1.356 . S
C1946 O1997 1.325 . S
C1947 N1948 1.279 . S
C1947 C1950 1.358 . S
C1947 H2004 0.930 . S
N1948 C1947 1.279 . S
N1948 C1951 1.314 . S
C1949 C1946 1.348 . S
C1949 C1951 1.353 . S
C1949 H2005 0.929 . S
C1950 C1946 1.356 . S
C1950 C1947 1.358 . S
C1950 H2006 0.930 . S
C1951 N1948 1.314 . S
C1951 C1949 1.353 . S
C1951 H2007 0.930 . S
C1952 N1953 1.314 . S
C1952 C1957 1.353 . S
C1952 H1958 0.930 . S
N1953 Li1936 1.990 . S
N1953 C1952 1.314 . S
N1953 C1955 1.279 . S
C1954 C1955 1.358 . S
C1954 C1956 1.356 . S
C1954 H2008 0.930 . S
C1955 N1953 1.279 . S
C1955 C1954 1.358 . S
C1955 H1959 0.930 . S
C1956 C1954 1.356 . S
C1956 C1957 1.348 . S
C1957 C1952 1.353 . S
C1957 C1956 1.348 . S
C1957 H2009 0.929 . S
H1958 C1952 0.930 . S
H1959 C1955 0.930 . S
C1960 N1961 1.314 . S
C1960 C1962 1.353 . S
C1960 H1966 0.930 . S
N1961 Li1937 1.990 . S
N1961 C1960 1.314 . S
N1961 C1964 1.279 . S
C1962 C1960 1.353 . S
C1962 C1965 1.348 . S
C1962 H2010 0.929 . S
C1963 C1964 1.358 . S
C1963 C1965 1.356 . S
C1963 H2011 0.930 . S
C1964 N1961 1.279 . S
C1964 C1963 1.358 . S
C1964 H1967 0.930 . S
C1965 C1962 1.348 . S
C1965 C1963 1.356 . S
H1966 C1960 0.930 . S
H1967 C1964 0.930 . S
C1968 C1970 1.348 . S
C1968 C1971 1.356 . S
C1968 O1998 1.325 . S
N1969 C1972 1.314 . S
N1969 C1973 1.279 . S
C1970 C1968 1.348 . S
C1970 C1972 1.353 . S
C1970 H2012 0.929 . S
C1971 C1968 1.356 . S
C1971 C1973 1.358 . S
C1971 H2013 0.930 . S
C1972 N1969 1.314 . S
C1972 C1970 1.353 . S
C1972 H2014 0.930 . S
C1973 N1969 1.279 . S
C1973 C1971 1.358 . S
C1973 H2015 0.930 . S
C1974 C1975 1.348 . S
C1974 C1976 1.356 . S
C1974 O1999 1.325 . S
C1975 C1974 1.348 . S
C1975 C1977 1.353 . S
C1975 H2016 0.929 . S
C1976 C1974 1.356 . S
C1976 C1978 1.358 . S
C1976 H2017 0.930 . S
C1977 C1975 1.353 . S
C1977 N1979 1.314 . S
C1977 H2018 0.930 . S
C1978 C1976 1.358 . S
C1978 N1979 1.279 . S
C1978 H2019 0.930 . S
N1979 C1977 1.314 . S
N1979 C1978 1.279 . S
C1980 C1982 1.353 . S
C1980 N1983 1.314 . S
C1980 H1986 0.930 . S
C1981 N1983 1.279 . S
C1981 C1984 1.358 . S
C1981 H1987 0.930 . S
C1982 C1980 1.353 . S
C1982 C1985 1.348 . S
C1982 H2020 0.929 . S
N1983 Li1938 1.990 . S
N1983 C1980 1.314 . S
N1983 C1981 1.279 . S
C1984 C1981 1.358 . S
C1984 C1985 1.356 . S
C1984 H2021 0.930 . S
C1985 C1982 1.348 . S
C1985 C1984 1.356 . S
H1986 C1980 0.930 . S
H1987 C1981 0.930 . S
C1988 N1989 1.314 . S
C1988 C1990 1.353 . S
C1988 H1994 0.930 . S
N1989 Li1939 1.990 . S
N1989 C1988 1.314 . S
N1989 C1992 1.279 . S
C1990 C1988 1.353 . S
C1990 C1993 1.348 . S
C1990 H2022 0.929 . S
C1991 C1992 1.358 . S
C1991 C1993 1.356 . S
C1991 H2023 0.930 . S
C1992 N1989 1.279 . S
C1992 C1991 1.358 . S
C1992 H1995 0.930 . S
C1993 C1990 1.348 . S
C1993 C1991 1.356 . S
H1994 C1988 0.930 . S
H1995 C1992 0.930 . S
O1996 Li1936 1.956 . S
O1996 Li1937 1.970 . S
O1996 Li1938 1.961 . S
O1996 C1940 1.325 . S
O1997 Li1936 1.970 . S
O1997 Li1937 1.956 . S
O1997 Li1939 1.961 . S
O1997 C1946 1.325 . S
O1998 Li1936 1.961 . S
O1998 Li1938 1.956 . S
O1998 Li1939 1.970 . S
O1998 C1968 1.325 . S
O1999 Li1937 1.961 . S
O1999 Li1938 1.970 . S
O1999 Li1939 1.956 . S
O1999 C1974 1.325 . S
H2000 C1942 0.929 . S
H2001 C1943 0.930 . S
H2002 C1944 0.930 . S
H2003 C1945 0.930 . S
H2004 C1947 0.930 . S
H2005 C1949 0.929 . S
H2006 C1950 0.930 . S
H2007 C1951 0.930 . S
H2008 C1954 0.930 . S
H2009 C1957 0.929 . S
H2010 C1962 0.929 . S
H2011 C1963 0.930 . S
H2012 C1970 0.929 . S
H2013 C1971 0.930 . S
H2014 C1972 0.930 . S
H2015 C1973 0.930 . S
H2016 C1975 0.929 . S
H2017 C1976 0.930 . S
H2018 C1977 0.930 . S
H2019 C1978 0.930 . S
H2020 C1982 0.929 . S
H2021 C1984 0.930 . S
H2022 C1990 0.929 . S
H2023 C1991 0.930 . S
Li2024 N2041 1.990 . S
Li2024 O2084 1.956 . S
Li2024 O2085 1.970 . S
Li2024 O2086 1.961 . S
Li2025 N2049 1.990 . S
Li2025 O2084 1.970 . S
Li2025 O2085 1.956 . S
Li2025 O2087 1.961 . S
Li2026 N2071 1.990 . S
Li2026 O2084 1.961 . S
Li2026 O2086 1.956 . S
Li2026 O2087 1.970 . S
Li2027 N2077 1.990 . S
Li2027 O2085 1.961 . S
Li2027 O2086 1.970 . S
Li2027 O2087 1.956 . S
C2028 C2030 1.348 . S
C2028 C2031 1.356 . S
C2028 O2084 1.325 . S
N2029 C2032 1.314 . S
N2029 C2033 1.279 . S
C2030 C2028 1.348 . S
C2030 C2032 1.353 . S
C2030 H2088 0.929 . S
C2031 C2028 1.356 . S
C2031 C2033 1.358 . S
C2031 H2089 0.930 . S
C2032 N2029 1.314 . S
C2032 C2030 1.353 . S
C2032 H2090 0.930 . S
C2033 N2029 1.279 . S
C2033 C2031 1.358 . S
C2033 H2091 0.930 . S
C2034 C2037 1.348 . S
C2034 C2038 1.356 . S
C2034 O2085 1.325 . S
C2035 N2036 1.279 . S
C2035 C2038 1.358 . S
C2035 H2092 0.930 . S
N2036 C2035 1.279 . S
N2036 C2039 1.314 . S
C2037 C2034 1.348 . S
C2037 C2039 1.353 . S
C2037 H2093 0.929 . S
C2038 C2034 1.356 . S
C2038 C2035 1.358 . S
C2038 H2094 0.930 . S
C2039 N2036 1.314 . S
C2039 C2037 1.353 . S
C2039 H2095 0.930 . S
C2040 N2041 1.314 . S
C2040 C2045 1.353 . S
C2040 H2046 0.930 . S
N2041 Li2024 1.990 . S
N2041 C2040 1.314 . S
N2041 C2043 1.279 . S
C2042 C2043 1.358 . S
C2042 C2044 1.356 . S
C2042 H2096 0.930 . S
C2043 N2041 1.279 . S
C2043 C2042 1.358 . S
C2043 H2047 0.930 . S
C2044 C2042 1.356 . S
C2044 C2045 1.348 . S
C2045 C2040 1.353 . S
C2045 C2044 1.348 . S
C2045 H2097 0.929 . S
H2046 C2040 0.930 . S
H2047 C2043 0.930 . S
C2048 N2049 1.314 . S
C2048 C2050 1.353 . S
C2048 H2054 0.930 . S
N2049 Li2025 1.990 . S
N2049 C2048 1.314 . S
N2049 C2052 1.279 . S
C2050 C2048 1.353 . S
C2050 C2053 1.348 . S
C2050 H2098 0.929 . S
C2051 C2052 1.358 . S
C2051 C2053 1.356 . S
C2051 H2099 0.930 . S
C2052 N2049 1.279 . S
C2052 C2051 1.358 . S
C2052 H2055 0.930 . S
C2053 C2050 1.348 . S
C2053 C2051 1.356 . S
H2054 C2048 0.930 . S
H2055 C2052 0.930 . S
C2056 C2058 1.348 . S
C2056 C2059 1.356 . S
C2056 O2086 1.325 . S
N2057 C2060 1.314 . S
N2057 C2061 1.279 . S
C2058 C2056 1.348 . S
C2058 C2060 1.353 . S
C2058 H2100 0.929 . S
C2059 C2056 1.356 . S
C2059 C2061 1.358 . S
C2059 H2101 0.930 . S
C2060 N2057 1.314 . S
C2060 C2058 1.353 . S
C2060 H2102 0.930 . S
C2061 N2057 1.279 . S
C2061 C2059 1.358 . S
C2061 H2103 0.930 . S
C2062 C2063 1.348 . S
C2062 C2064 1.356 . S
C2062 O2087 1.325 . S
C2063 C2062 1.348 . S
C2063 C2065 1.353 . S
C2063 H2104 0.929 . S
C2064 C2062 1.356 . S
C2064 C2066 1.358 . S
C2064 H2105 0.930 . S
C2065 C2063 1.353 . S
C2065 N2067 1.314 . S
C2065 H2106 0.930 . S
C2066 C2064 1.358 . S
C2066 N2067 1.279 . S
C2066 H2107 0.930 . S
N2067 C2065 1.314 . S
N2067 C2066 1.279 . S
C2068 C2070 1.353 . S
C2068 N2071 1.314 . S
C2068 H2074 0.930 . S
C2069 N2071 1.279 . S
C2069 C2072 1.358 . S
C2069 H2075 0.930 . S
C2070 C2068 1.353 . S
C2070 C2073 1.348 . S
C2070 H2108 0.929 . S
N2071 Li2026 1.990 . S
N2071 C2068 1.314 . S
N2071 C2069 1.279 . S
C2072 C2069 1.358 . S
C2072 C2073 1.356 . S
C2072 H2109 0.930 . S
C2073 C2070 1.348 . S
C2073 C2072 1.356 . S
H2074 C2068 0.930 . S
H2075 C2069 0.930 . S
C2076 N2077 1.314 . S
C2076 C2078 1.353 . S
C2076 H2082 0.930 . S
N2077 Li2027 1.990 . S
N2077 C2076 1.314 . S
N2077 C2080 1.279 . S
C2078 C2076 1.353 . S
C2078 C2081 1.348 . S
C2078 H2110 0.929 . S
C2079 C2080 1.358 . S
C2079 C2081 1.356 . S
C2079 H2111 0.930 . S
C2080 N2077 1.279 . S
C2080 C2079 1.358 . S
C2080 H2083 0.930 . S
C2081 C2078 1.348 . S
C2081 C2079 1.356 . S
H2082 C2076 0.930 . S
H2083 C2080 0.930 . S
O2084 Li2024 1.956 . S
O2084 Li2025 1.970 . S
O2084 Li2026 1.961 . S
O2084 C2028 1.325 . S
O2085 Li2024 1.970 . S
O2085 Li2025 1.956 . S
O2085 Li2027 1.961 . S
O2085 C2034 1.325 . S
O2086 Li2024 1.961 . S
O2086 Li2026 1.956 . S
O2086 Li2027 1.970 . S
O2086 C2056 1.325 . S
O2087 Li2025 1.961 . S
O2087 Li2026 1.970 . S
O2087 Li2027 1.956 . S
O2087 C2062 1.325 . S
H2088 C2030 0.929 . S
H2089 C2031 0.930 . S
H2090 C2032 0.930 . S
H2091 C2033 0.930 . S
H2092 C2035 0.930 . S
H2093 C2037 0.929 . S
H2094 C2038 0.930 . S
H2095 C2039 0.930 . S
H2096 C2042 0.930 . S
H2097 C2045 0.929 . S
H2098 C2050 0.929 . S
H2099 C2051 0.930 . S
H2100 C2058 0.929 . S
H2101 C2059 0.930 . S
H2102 C2060 0.930 . S
H2103 C2061 0.930 . S
H2104 C2063 0.929 . S
H2105 C2064 0.930 . S
H2106 C2065 0.930 . S
H2107 C2066 0.930 . S
H2108 C2070 0.929 . S
H2109 C2072 0.930 . S
H2110 C2078 0.929 . S
H2111 C2079 0.930 . S
Dy2112 O2116 2.398 . S
Dy2112 O2117 2.491 1_556 S
Dy2112 O2118 2.403 . S
Dy2112 O2119 2.664 1_655 S
Dy2112 O2123 2.326 . S
Dy2112 O2127 2.296 1_656 S
Dy2112 O2128 2.351 1_546 S
C2113 O2124 1.185 . S
C2113 O2125 1.355 . S
C2114 O2116 1.185 . S
C2114 O2117 1.355 1_556 S
Dy2115 O2119 2.310 1_554 S
Dy2115 O2122 2.351 . S
Dy2115 O2124 2.398 . S
Dy2115 O2125 2.491 . S
Dy2115 O2126 2.403 . S
Dy2115 O2127 2.696 . S
Dy2115 O2129 2.326 1_545 S
O2116 Dy2112 2.398 . S
O2116 C2114 1.185 . S
O2117 Dy2112 2.491 1_554 S
O2117 C2114 1.355 1_554 S
O2118 Dy2112 2.403 . S
O2118 C2120 1.254 1_655 S
O2119 Dy2112 2.664 1_455 S
O2119 Dy2115 2.310 1_556 S
O2119 C2120 1.268 . S
C2120 O2118 1.254 1_455 S
C2120 O2119 1.268 . S
C2121 O2126 1.254 . S
C2121 O2127 1.276 . S
O2122 Dy2115 2.351 . S
O2122 C2130 1.238 1_554 S
O2123 Dy2112 2.326 . S
O2123 C2130 1.277 1_655 S
O2124 C2113 1.185 . S
O2124 Dy2115 2.398 . S
O2125 C2113 1.355 . S
O2125 Dy2115 2.491 . S
O2126 Dy2115 2.403 . S
O2126 C2121 1.254 . S
O2127 Dy2112 2.296 1_454 S
O2127 Dy2115 2.696 . S
O2127 C2121 1.276 . S
O2128 Dy2112 2.351 1_564 S
O2128 C2131 1.249 1_655 S
O2129 Dy2115 2.326 1_565 S
O2129 C2131 1.267 . S
C2130 O2122 1.238 1_556 S
C2130 O2123 1.277 1_455 S
C2131 O2128 1.249 1_455 S
C2131 O2129 1.267 . S
Dy2132 O2136 2.398 . S
Dy2132 O2137 2.491 . S
Dy2132 O2138 2.403 . S
Dy2132 O2139 2.664 . S
Dy2132 O2143 2.326 . S
Dy2132 O2147 2.310 . S
Dy2132 O2148 2.351 . S
C2133 O2144 1.185 . S
C2133 O2145 1.355 . S
C2134 O2136 1.185 . S
C2134 O2137 1.355 . S
Dy2135 O2139 2.310 . S
Dy2135 O2142 2.351 . S
Dy2135 O2144 2.398 . S
Dy2135 O2145 2.491 . S
Dy2135 O2146 2.403 . S
Dy2135 O2147 2.664 . S
Dy2135 O2149 2.326 . S
O2136 Dy2132 2.398 . S
O2136 C2134 1.185 . S
O2137 Dy2132 2.491 . S
O2137 C2134 1.355 . S
O2138 Dy2132 2.403 . S
O2138 C2140 1.254 . S
O2139 Dy2132 2.664 . S
O2139 Dy2135 2.310 . S
O2139 C2140 1.268 . S
C2140 O2138 1.254 . S
C2140 O2139 1.268 . S
C2141 O2146 1.254 . S
C2141 O2147 1.268 . S
O2142 Dy2135 2.351 . S
O2142 C2150 1.249 . S
O2143 Dy2132 2.326 . S
O2143 C2150 1.267 . S
O2144 C2133 1.185 . S
O2144 Dy2135 2.398 . S
O2145 C2133 1.355 . S
O2145 Dy2135 2.491 . S
O2146 Dy2135 2.403 . S
O2146 C2141 1.254 . S
O2147 Dy2132 2.310 . S
O2147 Dy2135 2.664 . S
O2147 C2141 1.268 . S
O2148 Dy2132 2.351 . S
O2148 C2151 1.249 . S
O2149 Dy2135 2.326 . S
O2149 C2151 1.267 . S
C2150 O2142 1.249 . S
C2150 O2143 1.267 . S
C2151 O2148 1.249 . S
C2151 O2149 1.267 . S
Dy2152 O2156 2.398 . S
Dy2152 O2157 2.491 1_545 S
Dy2152 O2158 2.403 . S
Dy2152 O2159 2.664 . S
Dy2152 O2163 2.326 1_545 S
Dy2152 O2167 2.310 . S
Dy2152 O2168 2.351 . S
C2153 O2164 1.185 . S
C2153 O2165 1.355 . S
C2154 O2156 1.185 1_565 S
C2154 O2157 1.355 . S
Dy2155 O2159 2.310 . S
Dy2155 O2162 2.351 1_545 S
Dy2155 O2164 2.398 . S
Dy2155 O2165 2.491 . S
Dy2155 O2166 2.403 . S
Dy2155 O2167 2.664 . S
Dy2155 O2169 2.326 . S
O2156 Dy2152 2.398 . S
O2156 C2154 1.185 1_545 S
O2157 Dy2152 2.491 1_565 S
O2157 C2154 1.355 . S
O2158 Dy2152 2.403 . S
O2158 C2160 1.254 . S
O2159 Dy2152 2.664 . S
O2159 Dy2155 2.310 . S
O2159 C2160 1.268 . S
C2160 O2158 1.254 . S
C2160 O2159 1.268 . S
C2161 O2166 1.254 . S
C2161 O2167 1.268 . S
O2162 Dy2155 2.351 1_565 S
O2162 C2170 1.249 . S
O2163 Dy2152 2.326 1_565 S
O2163 C2170 1.267 . S
O2164 C2153 1.185 . S
O2164 Dy2155 2.398 . S
O2165 C2153 1.355 . S
O2165 Dy2155 2.491 . S
O2166 Dy2155 2.403 . S
O2166 C2161 1.254 . S
O2167 Dy2152 2.310 . S
O2167 Dy2155 2.664 . S
O2167 C2161 1.268 . S
O2168 Dy2152 2.351 . S
O2168 C2171 1.249 . S
O2169 Dy2155 2.326 . S
O2169 C2171 1.267 . S
C2170 O2162 1.249 . S
C2170 O2163 1.267 . S
C2171 O2168 1.249 . S
C2171 O2169 1.267 . S
Dy2172 O2176 2.398 . S
Dy2172 O2177 2.491 . S
Dy2172 O2178 2.403 . S
Dy2172 O2179 2.664 . S
Dy2172 O2183 2.326 . S
Dy2172 O2187 2.310 . S
Dy2172 O2188 2.351 . S
C2173 O2184 1.185 . S
C2173 O2185 1.355 . S
C2174 O2176 1.185 . S
C2174 O2177 1.355 . S
Dy2175 O2179 2.310 . S
Dy2175 O2182 2.351 . S
Dy2175 O2184 2.398 . S
Dy2175 O2185 2.491 . S
Dy2175 O2186 2.403 . S
Dy2175 O2187 2.664 . S
Dy2175 O2189 2.326 . S
O2176 Dy2172 2.398 . S
O2176 C2174 1.185 . S
O2177 Dy2172 2.491 . S
O2177 C2174 1.355 . S
O2178 Dy2172 2.403 . S
O2178 C2180 1.254 . S
O2179 Dy2172 2.664 . S
O2179 Dy2175 2.310 . S
O2179 C2180 1.268 . S
C2180 O2178 1.254 . S
C2180 O2179 1.268 . S
C2181 O2186 1.254 . S
C2181 O2187 1.268 . S
O2182 Dy2175 2.351 . S
O2182 C2190 1.249 . S
O2183 Dy2172 2.326 . S
O2183 C2190 1.267 . S
O2184 C2173 1.185 . S
O2184 Dy2175 2.398 . S
O2185 C2173 1.355 . S
O2185 Dy2175 2.491 . S
O2186 Dy2175 2.403 . S
O2186 C2181 1.254 . S
O2187 Dy2172 2.310 . S
O2187 Dy2175 2.664 . S
O2187 C2181 1.268 . S
O2188 Dy2172 2.351 . S
O2188 C2191 1.249 . S
O2189 Dy2175 2.326 . S
O2189 C2191 1.267 . S
C2190 O2182 1.249 . S
C2190 O2183 1.267 . S
C2191 O2188 1.249 . S
C2191 O2189 1.267 . S
Dy2192 O2196 2.398 . S
Dy2192 O2197 2.491 1_455 S
Dy2192 O2198 2.403 . S
Dy2192 O2199 2.664 . S
Dy2192 O2203 2.326 . S
Dy2192 O2207 2.310 1_455 S
Dy2192 O2208 2.351 1_545 S
C2193 O2204 1.185 . S
C2193 O2205 1.355 . S
C2194 O2196 1.185 1_655 S
C2194 O2197 1.355 . S
Dy2195 O2199 2.310 . S
Dy2195 O2202 2.351 . S
Dy2195 O2204 2.398 . S
Dy2195 O2205 2.491 . S
Dy2195 O2206 2.403 1_455 S
Dy2195 O2207 2.664 1_455 S
Dy2195 O2209 2.326 1_545 S
O2196 Dy2192 2.398 . S
O2196 C2194 1.185 1_455 S
O2197 Dy2192 2.491 1_655 S
O2197 C2194 1.355 . S
O2198 Dy2192 2.403 . S
O2198 C2200 1.254 . S
O2199 Dy2192 2.664 . S
O2199 Dy2195 2.310 . S
O2199 C2200 1.268 . S
C2200 O2198 1.254 . S
C2200 O2199 1.268 . S
C2201 O2206 1.254 . S
C2201 O2207 1.268 . S
O2202 Dy2195 2.351 . S
O2202 C2210 1.249 . S
O2203 Dy2192 2.326 . S
O2203 C2210 1.267 . S
O2204 C2193 1.185 . S
O2204 Dy2195 2.398 . S
O2205 C2193 1.355 . S
O2205 Dy2195 2.491 . S
O2206 Dy2195 2.403 1_655 S
O2206 C2201 1.254 . S
O2207 Dy2192 2.310 1_655 S
O2207 Dy2195 2.664 1_655 S
O2207 C2201 1.268 . S
O2208 Dy2192 2.351 1_565 S
O2208 C2211 1.249 . S
O2209 Dy2195 2.326 1_565 S
O2209 C2211 1.267 . S
C2210 O2202 1.249 . S
C2210 O2203 1.267 . S
C2211 O2208 1.249 . S
C2211 O2209 1.267 . S
Dy2212 O2216 2.398 . S
Dy2212 O2217 2.491 . S
Dy2212 O2218 2.403 . S
Dy2212 O2219 2.664 . S
Dy2212 O2223 2.326 . S
Dy2212 O2227 2.310 . S
Dy2212 O2228 2.351 . S
C2213 O2224 1.185 . S
C2213 O2225 1.355 . S
C2214 O2216 1.185 . S
C2214 O2217 1.355 . S
Dy2215 O2219 2.310 . S
Dy2215 O2222 2.351 . S
Dy2215 O2224 2.398 . S
Dy2215 O2225 2.491 . S
Dy2215 O2226 2.403 . S
Dy2215 O2227 2.664 . S
Dy2215 O2229 2.326 . S
O2216 Dy2212 2.398 . S
O2216 C2214 1.185 . S
O2217 Dy2212 2.491 . S
O2217 C2214 1.355 . S
O2218 Dy2212 2.403 . S
O2218 C2220 1.254 . S
O2219 Dy2212 2.664 . S
O2219 Dy2215 2.310 . S
O2219 C2220 1.268 . S
C2220 O2218 1.254 . S
C2220 O2219 1.268 . S
C2221 O2226 1.254 . S
C2221 O2227 1.268 . S
O2222 Dy2215 2.351 . S
O2222 C2230 1.249 . S
O2223 Dy2212 2.326 . S
O2223 C2230 1.267 . S
O2224 C2213 1.185 . S
O2224 Dy2215 2.398 . S
O2225 C2213 1.355 . S
O2225 Dy2215 2.491 . S
O2226 Dy2215 2.403 . S
O2226 C2221 1.254 . S
O2227 Dy2212 2.310 . S
O2227 Dy2215 2.664 . S
O2227 C2221 1.268 . S
O2228 Dy2212 2.351 . S
O2228 C2231 1.249 . S
O2229 Dy2215 2.326 . S
O2229 C2231 1.267 . S
C2230 O2222 1.249 . S
C2230 O2223 1.267 . S
C2231 O2228 1.249 . S
C2231 O2229 1.267 . S
Dy2232 O2236 2.398 1_545 S
Dy2232 O2237 2.491 . S
Dy2232 O2238 2.403 1_545 S
Dy2232 O2239 2.664 1_544 S
Dy2232 O2243 2.326 1_545 S
Dy2232 O2247 2.310 . S
Dy2232 O2248 2.351 . S
C2233 O2244 1.185 . S
C2233 O2245 1.355 . S
C2234 O2236 1.185 1_545 S
C2234 O2237 1.355 . S
Dy2235 O2239 2.310 1_545 S
Dy2235 O2242 2.351 . S
Dy2235 O2244 2.398 . S
Dy2235 O2245 2.491 . S
Dy2235 O2246 2.403 . S
Dy2235 O2247 2.664 1_556 S
Dy2235 O2249 2.326 . S
O2236 Dy2232 2.398 1_565 S
O2236 C2234 1.185 1_565 S
O2237 Dy2232 2.491 . S
O2237 C2234 1.355 . S
O2238 Dy2232 2.403 1_565 S
O2238 C2240 1.254 . S
O2239 Dy2232 2.664 1_566 S
O2239 Dy2235 2.310 1_565 S
O2239 C2240 1.268 1_556 S
C2240 O2238 1.254 . S
C2240 O2239 1.268 1_554 S
C2241 O2246 1.254 1_554 S
C2241 O2247 1.268 . S
O2242 Dy2235 2.351 . S
O2242 C2250 1.249 1_556 S
O2243 Dy2232 2.326 1_565 S
O2243 C2250 1.267 1_565 S
O2244 C2233 1.185 . S
O2244 Dy2235 2.398 . S
O2245 C2233 1.355 . S
O2245 Dy2235 2.491 . S
O2246 Dy2235 2.403 . S
O2246 C2241 1.254 1_556 S
O2247 Dy2232 2.310 . S
O2247 Dy2235 2.664 1_554 S
O2247 C2241 1.268 . S
O2248 Dy2232 2.351 . S
O2248 C2251 1.249 . S
O2249 Dy2235 2.326 . S
O2249 C2251 1.267 1_556 S
C2250 O2242 1.249 1_554 S
C2250 O2243 1.267 1_545 S
C2251 O2248 1.249 . S
C2251 O2249 1.267 1_554 S
Dy2252 O2256 2.398 . S
Dy2252 O2257 2.491 . S
Dy2252 O2258 2.403 . S
Dy2252 O2259 2.664 . S
Dy2252 O2263 2.326 . S
Dy2252 O2267 2.310 . S
Dy2252 O2268 2.351 . S
C2253 O2264 1.185 . S
C2253 O2265 1.355 . S
C2254 O2256 1.185 . S
C2254 O2257 1.355 . S
Dy2255 O2259 2.310 . S
Dy2255 O2262 2.351 . S
Dy2255 O2264 2.398 . S
Dy2255 O2265 2.491 . S
Dy2255 O2266 2.403 . S
Dy2255 O2267 2.664 . S
Dy2255 O2269 2.326 . S
O2256 Dy2252 2.398 . S
O2256 C2254 1.185 . S
O2257 Dy2252 2.491 . S
O2257 C2254 1.355 . S
O2258 Dy2252 2.403 . S
O2258 C2260 1.254 . S
O2259 Dy2252 2.664 . S
O2259 Dy2255 2.310 . S
O2259 C2260 1.268 . S
C2260 O2258 1.254 . S
C2260 O2259 1.268 . S
C2261 O2266 1.254 . S
C2261 O2267 1.268 . S
O2262 Dy2255 2.351 . S
O2262 C2270 1.249 . S
O2263 Dy2252 2.326 . S
O2263 C2270 1.267 . S
O2264 C2253 1.185 . S
O2264 Dy2255 2.398 . S
O2265 C2253 1.355 . S
O2265 Dy2255 2.491 . S
O2266 Dy2255 2.403 . S
O2266 C2261 1.254 . S
O2267 Dy2252 2.310 . S
O2267 Dy2255 2.664 . S
O2267 C2261 1.268 . S
O2268 Dy2252 2.351 . S
O2268 C2271 1.249 . S
O2269 Dy2255 2.326 . S
O2269 C2271 1.267 . S
C2270 O2262 1.249 . S
C2270 O2263 1.267 . S
C2271 O2268 1.249 . S
C2271 O2269 1.267 . S
Dy2272 O2276 2.398 . S
Dy2272 O2277 2.491 . S
Dy2272 O2278 2.403 . S
Dy2272 O2279 2.664 1_556 S
Dy2272 O2283 2.326 . S
Dy2272 O2287 2.310 1_556 S
Dy2272 O2288 2.351 1_556 S
C2273 O2284 1.185 . S
C2273 O2285 1.355 . S
C2274 O2276 1.185 . S
C2274 O2277 1.355 . S
Dy2275 O2279 2.310 . S
Dy2275 O2282 2.351 . S
Dy2275 O2284 2.398 . S
Dy2275 O2285 2.491 . S
Dy2275 O2286 2.403 . S
Dy2275 O2287 2.664 . S
Dy2275 O2289 2.326 . S
O2276 Dy2272 2.398 . S
O2276 C2274 1.185 . S
O2277 Dy2272 2.491 . S
O2277 C2274 1.355 . S
O2278 Dy2272 2.403 . S
O2278 C2280 1.251 1_556 S
O2279 Dy2272 2.664 1_554 S
O2279 Dy2275 2.310 . S
O2279 C2280 1.270 . S
C2280 O2278 1.251 1_554 S
C2280 O2279 1.270 . S
C2281 O2286 1.254 . S
C2281 O2287 1.268 . S
O2282 Dy2275 2.351 . S
O2282 C2290 1.249 1_554 S
O2283 Dy2272 2.326 . S
O2283 C2290 1.267 . S
O2284 C2273 1.185 . S
O2284 Dy2275 2.398 . S
O2285 C2273 1.355 . S
O2285 Dy2275 2.491 . S
O2286 Dy2275 2.403 . S
O2286 C2281 1.254 . S
O2287 Dy2272 2.310 1_554 S
O2287 Dy2275 2.664 . S
O2287 C2281 1.268 . S
O2288 Dy2272 2.351 1_554 S
O2288 C2291 1.249 . S
O2289 Dy2275 2.326 . S
O2289 C2291 1.267 . S
C2290 O2282 1.249 1_556 S
C2290 O2283 1.267 . S
C2291 O2288 1.249 . S
C2291 O2289 1.267 . S
Dy2292 O2296 2.398 . S
Dy2292 O2297 2.491 . S
Dy2292 O2298 2.403 . S
Dy2292 O2299 2.664 . S
Dy2292 O2303 2.326 . S
Dy2292 O2307 2.310 . S
Dy2292 O2308 2.351 . S
C2293 O2304 1.185 . S
C2293 O2305 1.355 . S
C2294 O2296 1.185 . S
C2294 O2297 1.355 . S
Dy2295 O2299 2.310 . S
Dy2295 O2302 2.351 . S
Dy2295 O2304 2.398 . S
Dy2295 O2305 2.491 . S
Dy2295 O2306 2.403 . S
Dy2295 O2307 2.664 . S
Dy2295 O2309 2.326 . S
O2296 Dy2292 2.398 . S
O2296 C2294 1.185 . S
O2297 Dy2292 2.491 . S
O2297 C2294 1.355 . S
O2298 Dy2292 2.403 . S
O2298 C2300 1.254 . S
O2299 Dy2292 2.664 . S
O2299 Dy2295 2.310 . S
O2299 C2300 1.268 . S
C2300 O2298 1.254 . S
C2300 O2299 1.268 . S
C2301 O2306 1.254 . S
C2301 O2307 1.268 . S
O2302 Dy2295 2.351 . S
O2302 C2310 1.249 . S
O2303 Dy2292 2.326 . S
O2303 C2310 1.267 . S
O2304 C2293 1.185 . S
O2304 Dy2295 2.398 . S
O2305 C2293 1.355 . S
O2305 Dy2295 2.491 . S
O2306 Dy2295 2.403 . S
O2306 C2301 1.254 . S
O2307 Dy2292 2.310 . S
O2307 Dy2295 2.664 . S
O2307 C2301 1.268 . S
O2308 Dy2292 2.351 . S
O2308 C2311 1.249 . S
O2309 Dy2295 2.326 . S
O2309 C2311 1.267 . S
C2310 O2302 1.249 . S
C2310 O2303 1.267 . S
C2311 O2308 1.249 . S
C2311 O2309 1.267 . S
Dy2312 O2316 2.398 1_455 S
Dy2312 O2317 2.491 1_455 S
Dy2312 O2318 2.403 . S
Dy2312 O2319 2.664 . S
Dy2312 O2323 2.326 1_455 S
Dy2312 O2327 2.310 . S
Dy2312 O2328 2.351 . S
C2313 O2324 1.185 . S
C2313 O2325 1.355 . S
C2314 O2316 1.185 . S
C2314 O2317 1.355 . S
Dy2315 O2319 2.310 . S
Dy2315 O2322 2.351 1_455 S
Dy2315 O2324 2.398 . S
Dy2315 O2325 2.491 . S
Dy2315 O2326 2.403 . S
Dy2315 O2327 2.664 . S
Dy2315 O2329 2.326 . S
O2316 Dy2312 2.398 1_655 S
O2316 C2314 1.185 . S
O2317 Dy2312 2.491 1_655 S
O2317 C2314 1.355 . S
O2318 Dy2312 2.403 . S
O2318 C2320 1.254 . S
O2319 Dy2312 2.664 . S
O2319 Dy2315 2.310 . S
O2319 C2320 1.268 . S
C2320 O2318 1.254 . S
C2320 O2319 1.268 . S
C2321 O2326 1.254 . S
C2321 O2327 1.268 . S
O2322 Dy2315 2.351 1_655 S
O2322 C2330 1.249 . S
O2323 Dy2312 2.326 1_655 S
O2323 C2330 1.267 . S
O2324 C2313 1.185 . S
O2324 Dy2315 2.398 . S
O2325 C2313 1.355 . S
O2325 Dy2315 2.491 . S
O2326 Dy2315 2.403 . S
O2326 C2321 1.254 . S
O2327 Dy2312 2.310 . S
O2327 Dy2315 2.664 . S
O2327 C2321 1.268 . S
O2328 Dy2312 2.351 . S
O2328 C2331 1.249 . S
O2329 Dy2315 2.326 . S
O2329 C2331 1.267 . S
C2330 O2322 1.249 . S
C2330 O2323 1.267 . S
C2331 O2328 1.249 . S
C2331 O2329 1.267 . S
Dy2332 O2336 2.398 . S
Dy2332 O2337 2.491 . S
Dy2332 O2338 2.403 . S
Dy2332 O2339 2.664 . S
Dy2332 O2343 2.326 . S
Dy2332 O2347 2.310 . S
Dy2332 O2348 2.351 . S
C2333 O2344 1.185 . S
C2333 O2345 1.355 . S
C2334 O2336 1.185 . S
C2334 O2337 1.355 . S
Dy2335 O2339 2.310 . S
Dy2335 O2342 2.351 . S
Dy2335 O2344 2.398 . S
Dy2335 O2345 2.491 . S
Dy2335 O2346 2.403 . S
Dy2335 O2347 2.664 . S
Dy2335 O2349 2.326 . S
O2336 Dy2332 2.398 . S
O2336 C2334 1.185 . S
O2337 Dy2332 2.491 . S
O2337 C2334 1.355 . S
O2338 Dy2332 2.403 . S
O2338 C2340 1.254 . S
O2339 Dy2332 2.664 . S
O2339 Dy2335 2.310 . S
O2339 C2340 1.268 . S
C2340 O2338 1.254 . S
C2340 O2339 1.268 . S
C2341 O2346 1.254 . S
C2341 O2347 1.268 . S
O2342 Dy2335 2.351 . S
O2342 C2350 1.249 . S
O2343 Dy2332 2.326 . S
O2343 C2350 1.267 . S
O2344 C2333 1.185 . S
O2344 Dy2335 2.398 . S
O2345 C2333 1.355 . S
O2345 Dy2335 2.491 . S
O2346 Dy2335 2.403 . S
O2346 C2341 1.254 . S
O2347 Dy2332 2.310 . S
O2347 Dy2335 2.664 . S
O2347 C2341 1.268 . S
O2348 Dy2332 2.351 . S
O2348 C2351 1.249 . S
O2349 Dy2335 2.326 . S
O2349 C2351 1.267 . S
C2350 O2342 1.249 . S
C2350 O2343 1.267 . S
C2351 O2348 1.249 . S
C2351 O2349 1.267 . S
Dy2352 O2356 2.398 . S
Dy2352 O2357 2.491 . S
Dy2352 O2358 2.403 . S
Dy2352 O2359 2.664 . S
Dy2352 O2363 2.326 . S
Dy2352 O2367 2.310 . S
Dy2352 O2368 2.351 . S
C2353 O2364 1.185 . S
C2353 O2365 1.355 . S
C2354 O2356 1.185 . S
C2354 O2357 1.355 . S
Dy2355 O2359 2.310 . S
Dy2355 O2362 2.351 . S
Dy2355 O2364 2.398 . S
Dy2355 O2365 2.491 . S
Dy2355 O2366 2.403 . S
Dy2355 O2367 2.664 . S
Dy2355 O2369 2.326 . S
O2356 Dy2352 2.398 . S
O2356 C2354 1.185 . S
O2357 Dy2352 2.491 . S
O2357 C2354 1.355 . S
O2358 Dy2352 2.403 . S
O2358 C2360 1.254 . S
O2359 Dy2352 2.664 . S
O2359 Dy2355 2.310 . S
O2359 C2360 1.268 . S
C2360 O2358 1.254 . S
C2360 O2359 1.268 . S
C2361 O2366 1.254 . S
C2361 O2367 1.268 . S
O2362 Dy2355 2.351 . S
O2362 C2370 1.249 . S
O2363 Dy2352 2.326 . S
O2363 C2370 1.267 . S
O2364 C2353 1.185 . S
O2364 Dy2355 2.398 . S
O2365 C2353 1.355 . S
O2365 Dy2355 2.491 . S
O2366 Dy2355 2.403 . S
O2366 C2361 1.254 . S
O2367 Dy2352 2.310 . S
O2367 Dy2355 2.664 . S
O2367 C2361 1.268 . S
O2368 Dy2352 2.351 . S
O2368 C2371 1.249 . S
O2369 Dy2355 2.326 . S
O2369 C2371 1.267 . S
C2370 O2362 1.249 . S
C2370 O2363 1.267 . S
C2371 O2368 1.249 . S
C2371 O2369 1.267 . S
Dy2372 O2376 2.398 . S
Dy2372 O2377 2.491 . S
Dy2372 O2378 2.403 . S
Dy2372 O2379 2.664 . S
Dy2372 O2383 2.326 . S
Dy2372 O2387 2.310 . S
Dy2372 O2388 2.351 . S
C2373 O2384 1.185 . S
C2373 O2385 1.355 . S
C2374 O2376 1.185 . S
C2374 O2377 1.355 . S
Dy2375 O2379 2.310 . S
Dy2375 O2382 2.351 . S
Dy2375 O2384 2.398 . S
Dy2375 O2385 2.491 . S
Dy2375 O2386 2.403 . S
Dy2375 O2387 2.664 . S
Dy2375 O2389 2.326 . S
O2376 Dy2372 2.398 . S
O2376 C2374 1.185 . S
O2377 Dy2372 2.491 . S
O2377 C2374 1.355 . S
O2378 Dy2372 2.403 . S
O2378 C2380 1.254 . S
O2379 Dy2372 2.664 . S
O2379 Dy2375 2.310 . S
O2379 C2380 1.268 . S
C2380 O2378 1.254 . S
C2380 O2379 1.268 . S
C2381 O2386 1.254 . S
C2381 O2387 1.268 . S
O2382 Dy2375 2.351 . S
O2382 C2390 1.249 . S
O2383 Dy2372 2.326 . S
O2383 C2390 1.267 . S
O2384 C2373 1.185 . S
O2384 Dy2375 2.398 . S
O2385 C2373 1.355 . S
O2385 Dy2375 2.491 . S
O2386 Dy2375 2.403 . S
O2386 C2381 1.254 . S
O2387 Dy2372 2.310 . S
O2387 Dy2375 2.664 . S
O2387 C2381 1.268 . S
O2388 Dy2372 2.351 . S
O2388 C2391 1.249 . S
O2389 Dy2375 2.326 . S
O2389 C2391 1.267 . S
C2390 O2382 1.249 . S
C2390 O2383 1.267 . S
C2391 O2388 1.249 . S
C2391 O2389 1.267 . S
Dy2392 O2396 2.398 . S
Dy2392 O2397 2.491 . S
Dy2392 O2398 2.403 . S
Dy2392 O2399 2.664 . S
Dy2392 O2403 2.326 . S
Dy2392 O2407 2.310 . S
Dy2392 O2408 2.351 . S
C2393 O2404 1.185 . S
C2393 O2405 1.355 . S
C2394 O2396 1.185 . S
C2394 O2397 1.355 . S
Dy2395 O2399 2.310 . S
Dy2395 O2402 2.351 . S
Dy2395 O2404 2.398 . S
Dy2395 O2405 2.491 . S
Dy2395 O2406 2.403 . S
Dy2395 O2407 2.664 . S
Dy2395 O2409 2.326 . S
O2396 Dy2392 2.398 . S
O2396 C2394 1.185 . S
O2397 Dy2392 2.491 . S
O2397 C2394 1.355 . S
O2398 Dy2392 2.403 . S
O2398 C2400 1.254 . S
O2399 Dy2392 2.664 . S
O2399 Dy2395 2.310 . S
O2399 C2400 1.268 . S
C2400 O2398 1.254 . S
C2400 O2399 1.268 . S
C2401 O2406 1.254 . S
C2401 O2407 1.268 . S
O2402 Dy2395 2.351 . S
O2402 C2410 1.249 . S
O2403 Dy2392 2.326 . S
O2403 C2410 1.267 . S
O2404 C2393 1.185 . S
O2404 Dy2395 2.398 . S
O2405 C2393 1.355 . S
O2405 Dy2395 2.491 . S
O2406 Dy2395 2.403 . S
O2406 C2401 1.254 . S
O2407 Dy2392 2.310 . S
O2407 Dy2395 2.664 . S
O2407 C2401 1.268 . S
O2408 Dy2392 2.351 . S
O2408 C2411 1.249 . S
O2409 Dy2395 2.326 . S
O2409 C2411 1.267 . S
C2410 O2402 1.249 . S
C2410 O2403 1.267 . S
C2411 O2408 1.249 . S
C2411 O2409 1.267 . S
Dy2412 O2416 2.388 1_554 S
Dy2412 O2417 2.498 . S
Dy2412 O2418 2.386 1_554 S
Dy2412 O2419 2.659 1_554 S
Dy2412 O2423 2.323 1_554 S
Dy2412 O2427 2.326 . S
Dy2412 O2428 2.356 . S
C2413 O2424 1.185 . S
C2413 O2425 1.355 . S
C2414 O2416 1.185 . S
C2414 O2417 1.355 1_556 S
Dy2415 O2419 2.310 1_654 S
Dy2415 O2422 2.351 . S
Dy2415 O2424 2.398 . S
Dy2415 O2425 2.491 . S
Dy2415 O2426 2.403 . S
Dy2415 O2427 2.664 1_655 S
Dy2415 O2429 2.314 1_655 S
O2416 Dy2412 2.388 1_556 S
O2416 C2414 1.185 . S
O2417 Dy2412 2.498 . S
O2417 C2414 1.355 1_554 S
O2418 Dy2412 2.386 1_556 S
O2418 C2420 1.254 . S
O2419 Dy2412 2.659 1_556 S
O2419 Dy2415 2.310 1_456 S
O2419 C2420 1.268 . S
C2420 O2418 1.254 . S
C2420 O2419 1.268 . S
C2421 O2426 1.254 1_455 S
C2421 O2427 1.268 . S
O2422 Dy2415 2.351 . S
O2422 C2430 1.249 1_654 S
O2423 Dy2412 2.323 1_556 S
O2423 C2430 1.267 . S
O2424 C2413 1.185 . S
O2424 Dy2415 2.398 . S
O2425 C2413 1.355 . S
O2425 Dy2415 2.491 . S
O2426 Dy2415 2.403 . S
O2426 C2421 1.254 1_655 S
O2427 Dy2412 2.326 . S
O2427 Dy2415 2.664 1_455 S
O2427 C2421 1.268 . S
O2428 Dy2412 2.356 . S
O2428 C2431 1.249 . S
O2429 Dy2415 2.314 1_455 S
O2429 C2431 1.293 . S
C2430 O2422 1.249 1_456 S
C2430 O2423 1.267 . S
C2431 O2428 1.249 . S
C2431 O2429 1.293 . S
C2432 C2433 1.369 1_455 S
C2432 C2434 1.419 . S
C2432 H2436 0.930 . S
C2433 C2432 1.369 1_655 S
C2433 C2442 1.429 . S
C2434 C2432 1.419 . S
C2434 C2435 1.363 . S
C2434 H2437 0.929 1_556 S
C2435 C2434 1.363 . S
C2435 C2441 1.428 1_455 S
H2436 C2432 0.930 . S
H2437 C2434 0.929 1_554 S
S2438 N2439 1.613 . S
S2438 N2440 1.610 . S
N2439 S2438 1.613 . S
N2439 C2442 1.350 . S
N2440 S2438 1.610 . S
N2440 C2441 1.351 . S
C2441 C2435 1.428 1_655 S
C2441 N2440 1.351 . S
C2441 C2442 1.434 . S
C2442 C2433 1.429 . S
C2442 N2439 1.350 . S
C2442 C2441 1.434 . S
C2443 C2444 1.369 . S
C2443 C2445 1.419 . S
C2443 H2447 0.930 . S
C2444 C2443 1.369 . S
C2444 C2453 1.429 . S
C2445 C2443 1.419 . S
C2445 C2446 1.363 . S
C2445 H2448 0.929 . S
C2446 C2445 1.363 . S
C2446 C2452 1.428 . S
H2447 C2443 0.930 . S
H2448 C2445 0.929 . S
S2449 N2450 1.613 . S
S2449 N2451 1.610 . S
N2450 S2449 1.613 . S
N2450 C2453 1.350 . S
N2451 S2449 1.610 . S
N2451 C2452 1.351 . S
C2452 C2446 1.428 . S
C2452 N2451 1.351 . S
C2452 C2453 1.434 . S
C2453 C2444 1.429 . S
C2453 N2450 1.350 . S
C2453 C2452 1.434 . S
C2454 C2455 1.369 . S
C2454 C2456 1.419 . S
C2454 H2458 0.930 . S
C2455 C2454 1.369 . S
C2455 C2464 1.429 . S
C2456 C2454 1.419 . S
C2456 C2457 1.363 . S
C2456 H2459 0.929 . S
C2457 C2456 1.363 . S
C2457 C2463 1.428 . S
H2458 C2454 0.930 . S
H2459 C2456 0.929 . S
S2460 N2461 1.613 . S
S2460 N2462 1.610 . S
N2461 S2460 1.613 . S
N2461 C2464 1.350 . S
N2462 S2460 1.610 . S
N2462 C2463 1.351 . S
C2463 C2457 1.428 . S
C2463 N2462 1.351 . S
C2463 C2464 1.434 . S
C2464 C2455 1.429 . S
C2464 N2461 1.350 . S
C2464 C2463 1.434 . S
C2465 C2466 1.369 . S
C2465 C2467 1.419 . S
C2465 H2469 0.930 . S
C2466 C2465 1.369 . S
C2466 C2475 1.429 . S
C2467 C2465 1.419 . S
C2467 C2468 1.363 . S
C2467 H2470 0.929 . S
C2468 C2467 1.363 . S
C2468 C2474 1.428 . S
H2469 C2465 0.930 . S
H2470 C2467 0.929 . S
S2471 N2472 1.613 . S
S2471 N2473 1.610 . S
N2472 S2471 1.613 . S
N2472 C2475 1.350 . S
N2473 S2471 1.610 . S
N2473 C2474 1.351 . S
C2474 C2468 1.428 . S
C2474 N2473 1.351 . S
C2474 C2475 1.434 . S
C2475 C2466 1.429 . S
C2475 N2472 1.350 . S
C2475 C2474 1.434 . S
C2476 C2477 1.369 . S
C2476 C2478 1.419 . S
C2476 H2480 0.930 . S
C2477 C2476 1.369 . S
C2477 C2486 1.429 . S
C2478 C2476 1.419 . S
C2478 C2479 1.363 . S
C2478 H2481 0.929 . S
C2479 C2478 1.363 . S
C2479 C2485 1.428 . S
H2480 C2476 0.930 . S
H2481 C2478 0.929 . S
S2482 N2483 1.613 . S
S2482 N2484 1.610 . S
N2483 S2482 1.613 . S
N2483 C2486 1.350 1_655 S
N2484 S2482 1.610 . S
N2484 C2485 1.351 1_655 S
C2485 C2479 1.428 . S
C2485 N2484 1.351 1_455 S
C2485 C2486 1.434 . S
C2486 C2477 1.429 . S
C2486 N2483 1.350 1_455 S
C2486 C2485 1.434 . S
C2487 C2488 1.369 . S
C2487 C2489 1.419 . S
C2487 H2491 0.930 . S
C2488 C2487 1.369 . S
C2488 C2497 1.429 . S
C2489 C2487 1.419 . S
C2489 C2490 1.363 . S
C2489 H2492 0.929 . S
C2490 C2489 1.363 . S
C2490 C2496 1.428 . S
H2491 C2487 0.930 . S
H2492 C2489 0.929 . S
S2493 N2494 1.613 . S
S2493 N2495 1.610 . S
N2494 S2493 1.613 . S
N2494 C2497 1.350 . S
N2495 S2493 1.610 . S
N2495 C2496 1.351 . S
C2496 C2490 1.428 . S
C2496 N2495 1.351 . S
C2496 C2497 1.434 . S
C2497 C2488 1.429 . S
C2497 N2494 1.350 . S
C2497 C2496 1.434 . S
C2498 C2499 1.369 . S
C2498 C2500 1.419 . S
C2498 H2502 0.930 . S
C2499 C2498 1.369 . S
C2499 C2508 1.429 . S
C2500 C2498 1.419 . S
C2500 C2501 1.363 . S
C2500 H2503 0.929 . S
C2501 C2500 1.363 . S
C2501 C2507 1.428 . S
H2502 C2498 0.930 . S
H2503 C2500 0.929 . S
S2504 N2505 1.613 . S
S2504 N2506 1.610 . S
N2505 S2504 1.613 . S
N2505 C2508 1.350 . S
N2506 S2504 1.610 . S
N2506 C2507 1.351 . S
C2507 C2501 1.428 . S
C2507 N2506 1.351 . S
C2507 C2508 1.434 . S
C2508 C2499 1.429 . S
C2508 N2505 1.350 . S
C2508 C2507 1.434 . S
C2509 C2510 1.369 . S
C2509 C2511 1.419 . S
C2509 H2513 0.930 . S
C2510 C2509 1.369 . S
C2510 C2519 1.429 . S
C2511 C2509 1.419 . S
C2511 C2512 1.363 . S
C2511 H2514 0.929 . S
C2512 C2511 1.363 . S
C2512 C2518 1.428 . S
H2513 C2509 0.930 . S
H2514 C2511 0.929 . S
S2515 N2516 1.613 . S
S2515 N2517 1.610 . S
N2516 S2515 1.613 . S
N2516 C2519 1.350 . S
N2517 S2515 1.610 . S
N2517 C2518 1.351 . S
C2518 C2512 1.428 . S
C2518 N2517 1.351 . S
C2518 C2519 1.434 . S
C2519 C2510 1.429 . S
C2519 N2516 1.350 . S
C2519 C2518 1.434 . S
C2520 C2521 1.369 . S
C2520 C2522 1.419 . S
C2520 H2524 0.930 . S
C2521 C2520 1.369 . S
C2521 C2530 1.429 . S
C2522 C2520 1.419 . S
C2522 C2523 1.363 . S
C2522 H2525 0.929 . S
C2523 C2522 1.363 . S
C2523 C2529 1.428 1_655 S
H2524 C2520 0.930 . S
H2525 C2522 0.929 . S
S2526 N2527 1.613 . S
S2526 N2528 1.610 . S
N2527 S2526 1.613 . S
N2527 C2530 1.350 1_455 S
N2528 S2526 1.610 . S
N2528 C2529 1.351 . S
C2529 C2523 1.428 1_455 S
C2529 N2528 1.351 . S
C2529 C2530 1.434 1_455 S
C2530 C2521 1.429 . S
C2530 N2527 1.350 1_655 S
C2530 C2529 1.434 1_655 S
C2531 C2532 1.369 . S
C2531 C2533 1.419 . S
C2531 H2535 0.930 . S
C2532 C2531 1.369 . S
C2532 C2541 1.429 . S
C2533 C2531 1.419 . S
C2533 C2534 1.363 . S
C2533 H2536 0.929 . S
C2534 C2533 1.363 . S
C2534 C2540 1.428 . S
H2535 C2531 0.930 . S
H2536 C2533 0.929 . S
S2537 N2538 1.613 . S
S2537 N2539 1.610 . S
N2538 S2537 1.613 . S
N2538 C2541 1.350 . S
N2539 S2537 1.610 . S
N2539 C2540 1.351 . S
C2540 C2534 1.428 . S
C2540 N2539 1.351 . S
C2540 C2541 1.434 . S
C2541 C2532 1.429 . S
C2541 N2538 1.350 . S
C2541 C2540 1.434 . S
C2542 C2543 1.369 . S
C2542 C2544 1.419 . S
C2542 H2546 0.930 . S
C2543 C2542 1.369 . S
C2543 C2552 1.429 1_545 S
C2544 C2542 1.419 . S
C2544 C2545 1.363 . S
C2544 H2547 0.929 . S
C2545 C2544 1.363 . S
C2545 C2551 1.428 1_545 S
H2546 C2542 0.930 . S
H2547 C2544 0.929 . S
S2548 N2549 1.613 . S
S2548 N2550 1.610 . S
N2549 S2548 1.613 . S
N2549 C2552 1.350 . S
N2550 S2548 1.610 . S
N2550 C2551 1.351 . S
C2551 C2545 1.428 1_565 S
C2551 N2550 1.351 . S
C2551 C2552 1.434 . S
C2552 C2543 1.429 1_565 S
C2552 N2549 1.350 . S
C2552 C2551 1.434 . S
C2553 C2554 1.369 . S
C2553 C2555 1.419 . S
C2553 H2557 0.930 . S
C2554 C2553 1.369 . S
C2554 C2563 1.429 . S
C2555 C2553 1.419 . S
C2555 C2556 1.363 . S
C2555 H2558 0.929 . S
C2556 C2555 1.363 . S
C2556 C2562 1.428 . S
H2557 C2553 0.930 . S
H2558 C2555 0.929 . S
S2559 N2560 1.613 . S
S2559 N2561 1.610 . S
N2560 S2559 1.613 . S
N2560 C2563 1.350 . S
N2561 S2559 1.610 . S
N2561 C2562 1.351 . S
C2562 C2556 1.428 . S
C2562 N2561 1.351 . S
C2562 C2563 1.434 . S
C2563 C2554 1.429 . S
C2563 N2560 1.350 . S
C2563 C2562 1.434 . S
C2564 C2565 1.369 . S
C2564 C2566 1.419 . S
C2564 H2568 0.930 . S
C2565 C2564 1.369 . S
C2565 C2574 1.429 . S
C2566 C2564 1.419 . S
C2566 C2567 1.363 . S
C2566 H2569 0.929 . S
C2567 C2566 1.363 . S
C2567 C2573 1.428 1_655 S
H2568 C2564 0.930 . S
H2569 C2566 0.929 . S
S2570 N2571 1.613 . S
S2570 N2572 1.610 . S
N2571 S2570 1.613 . S
N2571 C2574 1.350 1_455 S
N2572 S2570 1.610 . S
N2572 C2573 1.351 . S
C2573 C2567 1.428 1_455 S
C2573 N2572 1.351 . S
C2573 C2574 1.434 1_455 S
C2574 C2565 1.429 . S
C2574 N2571 1.350 1_655 S
C2574 C2573 1.434 1_655 S
C2575 C2576 1.369 . S
C2575 C2577 1.419 . S
C2575 H2579 0.930 . S
C2576 C2575 1.369 . S
C2576 C2585 1.429 . S
C2577 C2575 1.419 . S
C2577 C2578 1.363 . S
C2577 H2580 0.929 . S
C2578 C2577 1.363 . S
C2578 C2584 1.428 . S
H2579 C2575 0.930 . S
H2580 C2577 0.929 . S
S2581 N2582 1.613 . S
S2581 N2583 1.610 . S
N2582 S2581 1.613 . S
N2582 C2585 1.350 . S
N2583 S2581 1.610 . S
N2583 C2584 1.351 . S
C2584 C2578 1.428 . S
C2584 N2583 1.351 . S
C2584 C2585 1.434 . S
C2585 C2576 1.429 . S
C2585 N2582 1.350 . S
C2585 C2584 1.434 . S
C2586 C2587 1.369 . S
C2586 C2588 1.419 . S
C2586 H2590 0.930 . S
C2587 C2586 1.369 . S
C2587 C2596 1.429 . S
C2588 C2586 1.419 . S
C2588 C2589 1.363 . S
C2588 H2591 0.929 . S
C2589 C2588 1.363 . S
C2589 C2595 1.428 . S
H2590 C2586 0.930 . S
H2591 C2588 0.929 . S
S2592 N2593 1.613 . S
S2592 N2594 1.610 1_565 S
N2593 S2592 1.613 . S
N2593 C2596 1.350 1_565 S
N2594 S2592 1.610 1_545 S
N2594 C2595 1.351 . S
C2595 C2589 1.428 . S
C2595 N2594 1.351 . S
C2595 C2596 1.434 . S
C2596 C2587 1.429 . S
C2596 N2593 1.350 1_545 S
C2596 C2595 1.434 . S
C2597 C2598 1.369 . S
C2597 C2599 1.419 . S
C2597 H2601 0.930 . S
C2598 C2597 1.369 . S
C2598 C2607 1.429 . S
C2599 C2597 1.419 . S
C2599 C2600 1.363 . S
C2599 H2602 0.929 . S
C2600 C2599 1.363 . S
C2600 C2606 1.428 . S
H2601 C2597 0.930 . S
H2602 C2599 0.929 . S
S2603 N2604 1.613 . S
S2603 N2605 1.610 . S
N2604 S2603 1.613 . S
N2604 C2607 1.350 . S
N2605 S2603 1.610 . S
N2605 C2606 1.351 . S
C2606 C2600 1.428 . S
C2606 N2605 1.351 . S
C2606 C2607 1.434 . S
C2607 C2598 1.429 . S
C2607 N2604 1.350 . S
C2607 C2606 1.434 . S
C2608 C2609 1.369 . S
C2608 C2610 1.419 . S
C2608 H2612 0.930 . S
C2609 C2608 1.369 . S
C2609 C2618 1.429 . S
C2610 C2608 1.419 . S
C2610 C2611 1.363 . S
C2610 H2613 0.929 . S
C2611 C2610 1.363 . S
C2611 C2617 1.428 1_565 S
H2612 C2608 0.930 . S
H2613 C2610 0.929 . S
S2614 N2615 1.613 . S
S2614 N2616 1.610 . S
N2615 S2614 1.613 . S
N2615 C2618 1.350 1_546 S
N2616 S2614 1.610 . S
N2616 C2617 1.352 1_556 S
C2617 C2611 1.428 1_545 S
C2617 N2616 1.352 1_554 S
C2617 C2618 1.433 1_545 S
C2618 C2609 1.429 . S
C2618 N2615 1.350 1_564 S
C2618 C2617 1.433 1_565 S
C2619 C2620 1.369 1_556 S
C2619 C2621 1.419 . S
C2619 H2623 0.930 . S
C2620 C2619 1.369 1_554 S
C2620 C2629 1.429 . S
C2621 C2619 1.419 . S
C2621 C2622 1.363 1_556 S
C2621 H2624 0.929 . S
C2622 C2621 1.363 1_554 S
C2622 C2628 1.428 . S
H2623 C2619 0.930 . S
H2624 C2621 0.929 . S
S2625 N2626 1.613 . S
S2625 N2627 1.610 . S
N2626 S2625 1.613 . S
N2626 C2629 1.350 . S
N2627 S2625 1.610 . S
N2627 C2628 1.351 . S
C2628 C2622 1.428 . S
C2628 N2627 1.351 . S
C2628 C2629 1.434 . S
C2629 C2620 1.429 . S
C2629 N2626 1.350 . S
C2629 C2628 1.434 . S
C2630 C2631 1.369 . S
C2630 C2632 1.419 . S
C2630 H2634 0.930 . S
C2631 C2630 1.369 . S
C2631 C2640 1.429 . S
C2632 C2630 1.419 . S
C2632 C2633 1.363 . S
C2632 H2635 0.929 . S
C2633 C2632 1.363 . S
C2633 C2639 1.428 . S
H2634 C2630 0.930 . S
H2635 C2632 0.929 . S
S2636 N2637 1.613 . S
S2636 N2638 1.610 . S
N2637 S2636 1.613 . S
N2637 C2640 1.350 . S
N2638 S2636 1.610 . S
N2638 C2639 1.351 . S
C2639 C2633 1.428 . S
C2639 N2638 1.351 . S
C2639 C2640 1.434 . S
C2640 C2631 1.429 . S
C2640 N2637 1.350 . S
C2640 C2639 1.434 . S
C2641 C2642 1.369 . S
C2641 C2643 1.419 . S
C2641 H2645 0.930 . S
C2642 C2641 1.369 . S
C2642 C2651 1.429 . S
C2643 C2641 1.419 . S
C2643 C2644 1.363 . S
C2643 H2646 0.929 . S
C2644 C2643 1.363 . S
C2644 C2650 1.428 . S
H2645 C2641 0.930 . S
H2646 C2643 0.929 . S
S2647 N2648 1.613 . S
S2647 N2649 1.610 . S
N2648 S2647 1.613 . S
N2648 C2651 1.350 . S
N2649 S2647 1.610 . S
N2649 C2650 1.351 . S
C2650 C2644 1.428 . S
C2650 N2649 1.351 . S
C2650 C2651 1.434 . S
C2651 C2642 1.429 . S
C2651 N2648 1.350 . S
C2651 C2650 1.434 . S
C2652 C2653 1.369 . S
C2652 C2654 1.419 . S
C2652 H2656 0.930 . S
C2653 C2652 1.369 . S
C2653 C2662 1.429 . S
C2654 C2652 1.419 . S
C2654 C2655 1.363 . S
C2654 H2657 0.929 . S
C2655 C2654 1.363 . S
C2655 C2661 1.428 . S
H2656 C2652 0.930 . S
H2657 C2654 0.929 . S
S2658 N2659 1.613 . S
S2658 N2660 1.610 . S
N2659 S2658 1.613 . S
N2659 C2662 1.350 . S
N2660 S2658 1.610 . S
N2660 C2661 1.351 . S
C2661 C2655 1.428 . S
C2661 N2660 1.351 . S
C2661 C2662 1.434 . S
C2662 C2653 1.429 . S
C2662 N2659 1.350 . S
C2662 C2661 1.434 . S
C2663 C2664 1.369 . S
C2663 C2665 1.419 . S
C2663 H2667 0.930 . S
C2664 C2663 1.369 . S
C2664 C2673 1.429 . S
C2665 C2663 1.419 . S
C2665 C2666 1.363 . S
C2665 H2668 0.929 . S
C2666 C2665 1.363 . S
C2666 C2672 1.428 . S
H2667 C2663 0.930 . S
H2668 C2665 0.929 . S
S2669 N2670 1.613 . S
S2669 N2671 1.610 . S
N2670 S2669 1.613 . S
N2670 C2673 1.350 . S
N2671 S2669 1.610 . S
N2671 C2672 1.351 . S
C2672 C2666 1.428 . S
C2672 N2671 1.351 . S
C2672 C2673 1.434 . S
C2673 C2664 1.429 . S
C2673 N2670 1.350 . S
C2673 C2672 1.434 . S
C2674 C2675 1.369 . S
C2674 C2676 1.419 . S
C2674 H2678 0.930 . S
C2675 C2674 1.369 . S
C2675 C2684 1.429 . S
C2676 C2674 1.419 . S
C2676 C2677 1.363 . S
C2676 H2679 0.929 . S
C2677 C2676 1.363 . S
C2677 C2683 1.428 . S
H2678 C2674 0.930 . S
H2679 C2676 0.929 . S
S2680 N2681 1.613 . S
S2680 N2682 1.610 . S
N2681 S2680 1.613 . S
N2681 C2684 1.350 . S
N2682 S2680 1.610 . S
N2682 C2683 1.351 . S
C2683 C2677 1.428 . S
C2683 N2682 1.351 . S
C2683 C2684 1.434 . S
C2684 C2675 1.429 . S
C2684 N2681 1.350 . S
C2684 C2683 1.434 . S
C2685 C2686 1.369 . S
C2685 C2687 1.419 . S
C2685 H2689 0.930 . S
C2686 C2685 1.369 . S
C2686 C2695 1.429 . S
C2687 C2685 1.419 . S
C2687 C2688 1.363 . S
C2687 H2690 0.929 . S
C2688 C2687 1.363 . S
C2688 C2694 1.428 . S
H2689 C2685 0.930 . S
H2690 C2687 0.929 . S
S2691 N2692 1.613 . S
S2691 N2693 1.610 . S
N2692 S2691 1.613 . S
N2692 C2695 1.350 . S
N2693 S2691 1.610 . S
N2693 C2694 1.351 . S
C2694 C2688 1.428 . S
C2694 N2693 1.351 . S
C2694 C2695 1.434 . S
C2695 C2686 1.429 . S
C2695 N2692 1.350 . S
C2695 C2694 1.434 . S
C2696 C2697 1.369 . S
C2696 C2698 1.419 . S
C2696 H2700 0.930 . S
C2697 C2696 1.369 . S
C2697 C2706 1.429 . S
C2698 C2696 1.419 . S
C2698 C2699 1.363 . S
C2698 H2701 0.929 1_455 S
C2699 C2698 1.363 . S
C2699 C2705 1.428 . S
H2700 C2696 0.930 . S
H2701 C2698 0.929 1_655 S
S2702 N2703 1.613 1_556 S
S2702 N2704 1.610 . S
N2703 S2702 1.613 1_554 S
N2703 C2706 1.350 . S
N2704 S2702 1.610 . S
N2704 C2705 1.351 1_556 S
C2705 C2699 1.428 . S
C2705 N2704 1.351 1_554 S
C2705 C2706 1.434 . S
C2706 C2697 1.429 . S
C2706 N2703 1.350 . S
C2706 C2705 1.434 . S
C2707 C2708 1.369 . S
C2707 C2709 1.419 . S
C2707 H2711 0.930 . S
C2708 C2707 1.369 . S
C2708 C2717 1.429 . S
C2709 C2707 1.419 . S
C2709 C2710 1.363 . S
C2709 H2712 0.929 . S
C2710 C2709 1.363 . S
C2710 C2716 1.428 . S
H2711 C2707 0.930 . S
H2712 C2709 0.929 . S
S2713 N2714 1.613 . S
S2713 N2715 1.610 . S
N2714 S2713 1.613 . S
N2714 C2717 1.350 . S
N2715 S2713 1.610 . S
N2715 C2716 1.351 . S
C2716 C2710 1.428 . S
C2716 N2715 1.351 . S
C2716 C2717 1.434 . S
C2717 C2708 1.429 . S
C2717 N2714 1.350 . S
C2717 C2716 1.434 . S
C2718 C2719 1.369 . S
C2718 C2720 1.419 . S
C2718 H2722 0.930 . S
C2719 C2718 1.369 . S
C2719 C2728 1.429 . S
C2720 C2718 1.419 . S
C2720 C2721 1.363 . S
C2720 H2723 0.929 . S
C2721 C2720 1.363 . S
C2721 C2727 1.428 . S
H2722 C2718 0.930 . S
H2723 C2720 0.929 . S
S2724 N2725 1.613 . S
S2724 N2726 1.610 . S
N2725 S2724 1.613 . S
N2725 C2728 1.350 . S
N2726 S2724 1.610 . S
N2726 C2727 1.351 . S
C2727 C2721 1.428 . S
C2727 N2726 1.351 . S
C2727 C2728 1.434 . S
C2728 C2719 1.429 . S
C2728 N2725 1.350 . S
C2728 C2727 1.434 . S
C2729 C2730 1.369 . S
C2729 C2731 1.419 . S
C2729 H2733 0.930 . S
C2730 C2729 1.369 . S
C2730 C2739 1.429 . S
C2731 C2729 1.419 . S
C2731 C2732 1.363 . S
C2731 H2734 0.929 . S
C2732 C2731 1.363 . S
C2732 C2738 1.428 . S
H2733 C2729 0.930 . S
H2734 C2731 0.929 . S
S2735 N2736 1.613 . S
S2735 N2737 1.610 . S
N2736 S2735 1.613 . S
N2736 C2739 1.350 . S
N2737 S2735 1.610 . S
N2737 C2738 1.351 . S
C2738 C2732 1.428 . S
C2738 N2737 1.351 . S
C2738 C2739 1.434 . S
C2739 C2730 1.429 . S
C2739 N2736 1.350 . S
C2739 C2738 1.434 . S
C2740 C2741 1.369 1_655 S
C2740 C2742 1.419 . S
C2740 H2744 0.930 . S
C2741 C2740 1.369 1_455 S
C2741 C2750 1.429 . S
C2742 C2740 1.419 . S
C2742 C2743 1.363 1_655 S
C2742 H2745 0.929 . S
C2743 C2742 1.363 1_455 S
C2743 C2749 1.428 . S
H2744 C2740 0.930 . S
H2745 C2742 0.929 . S
S2746 N2747 1.613 . S
S2746 N2748 1.610 . S
N2747 S2746 1.613 . S
N2747 C2750 1.350 . S
N2748 S2746 1.610 . S
N2748 C2749 1.351 . S
C2749 C2743 1.428 . S
C2749 N2748 1.351 . S
C2749 C2750 1.434 . S
C2750 C2741 1.429 . S
C2750 N2747 1.350 . S
C2750 C2749 1.434 . S
C2751 C2752 1.369 . S
C2751 C2753 1.419 . S
C2751 H2755 0.930 . S
C2752 C2751 1.369 . S
C2752 C2761 1.429 . S
C2753 C2751 1.419 . S
C2753 C2754 1.363 . S
C2753 H2756 0.929 . S
C2754 C2753 1.363 . S
C2754 C2760 1.428 . S
H2755 C2751 0.930 . S
H2756 C2753 0.929 . S
S2757 N2758 1.613 . S
S2757 N2759 1.610 . S
N2758 S2757 1.613 . S
N2758 C2761 1.350 . S
N2759 S2757 1.610 . S
N2759 C2760 1.351 . S
C2760 C2754 1.428 . S
C2760 N2759 1.351 . S
C2760 C2761 1.434 . S
C2761 C2752 1.429 . S
C2761 N2758 1.350 . S
C2761 C2760 1.434 . S
C2762 C2763 1.369 . S
C2762 C2764 1.419 . S
C2762 H2766 0.930 . S
C2763 C2762 1.369 . S
C2763 C2772 1.429 . S
C2764 C2762 1.419 . S
C2764 C2765 1.363 . S
C2764 H2767 0.929 . S
C2765 C2764 1.363 . S
C2765 C2771 1.428 . S
H2766 C2762 0.930 . S
H2767 C2764 0.929 . S
S2768 N2769 1.613 1_554 S
S2768 N2770 1.610 . S
N2769 S2768 1.613 1_556 S
N2769 C2772 1.350 . S
N2770 S2768 1.610 . S
N2770 C2771 1.351 1_554 S
C2771 C2765 1.428 . S
C2771 N2770 1.351 1_556 S
C2771 C2772 1.434 . S
C2772 C2763 1.429 . S
C2772 N2769 1.350 . S
C2772 C2771 1.434 . S
C2773 C2774 1.369 . S
C2773 C2775 1.419 . S
C2773 H2777 0.930 . S
C2774 C2773 1.369 . S
C2774 C2783 1.429 . S
C2775 C2773 1.419 . S
C2775 C2776 1.363 . S
C2775 H2778 0.929 . S
C2776 C2775 1.363 . S
C2776 C2782 1.428 . S
H2777 C2773 0.930 . S
H2778 C2775 0.929 . S
S2779 N2780 1.613 . S
S2779 N2781 1.610 . S
N2780 S2779 1.613 . S
N2780 C2783 1.350 . S
N2781 S2779 1.610 . S
N2781 C2782 1.351 . S
C2782 C2776 1.428 . S
C2782 N2781 1.351 . S
C2782 C2783 1.434 . S
C2783 C2774 1.429 . S
C2783 N2780 1.350 . S
C2783 C2782 1.434 . S
C2784 C2785 1.369 1_545 S
C2784 C2786 1.419 . S
C2784 H2788 0.930 . S
C2785 C2784 1.369 1_565 S
C2785 C2794 1.429 . S
C2786 C2784 1.419 . S
C2786 C2787 1.363 . S
C2786 H2789 0.929 . S
C2787 C2786 1.363 . S
C2787 C2793 1.428 1_545 S
H2788 C2784 0.930 . S
H2789 C2786 0.929 . S
S2790 N2791 1.613 . S
S2790 N2792 1.610 . S
N2791 S2790 1.613 . S
N2791 C2794 1.350 . S
N2792 S2790 1.610 . S
N2792 C2793 1.351 . S
C2793 C2787 1.428 1_565 S
C2793 N2792 1.351 . S
C2793 C2794 1.434 . S
C2794 C2785 1.429 . S
C2794 N2791 1.350 . S
C2794 C2793 1.434 . S
C2795 C2796 1.369 . S
C2795 C2797 1.419 . S
C2795 H2799 0.930 . S
C2796 C2795 1.369 . S
C2796 C2805 1.429 . S
C2797 C2795 1.419 . S
C2797 C2798 1.363 . S
C2797 H2800 0.929 . S
C2798 C2797 1.363 . S
C2798 C2804 1.428 . S
H2799 C2795 0.930 . S
H2800 C2797 0.929 . S
S2801 N2802 1.613 . S
S2801 N2803 1.610 . S
N2802 S2801 1.613 . S
N2802 C2805 1.350 . S
N2803 S2801 1.610 . S
N2803 C2804 1.351 . S
C2804 C2798 1.428 . S
C2804 N2803 1.351 . S
C2804 C2805 1.434 . S
C2805 C2796 1.429 . S
C2805 N2802 1.350 . S
C2805 C2804 1.434 . S
C2806 C2807 1.369 . S
C2806 C2808 1.419 . S
C2806 H2810 0.930 . S
C2807 C2806 1.369 . S
C2807 C2816 1.429 . S
C2808 C2806 1.419 . S
C2808 C2809 1.363 . S
C2808 H2811 0.943 . S
C2809 C2808 1.363 . S
C2809 C2815 1.428 . S
H2810 C2806 0.930 . S
H2811 C2808 0.943 . S
S2812 N2813 1.613 . S
S2812 N2814 1.610 . S
N2813 S2812 1.613 . S
N2813 C2816 1.350 . S
N2814 S2812 1.610 . S
N2814 C2815 1.351 . S
C2815 C2809 1.428 . S
C2815 N2814 1.351 . S
C2815 C2816 1.434 . S
C2816 C2807 1.429 . S
C2816 N2813 1.350 . S
C2816 C2815 1.434 . S
C2817 C2818 1.369 . S
C2817 C2819 1.419 . S
C2817 H2821 0.930 . S
C2818 C2817 1.369 . S
C2818 C2827 1.429 . S
C2819 C2817 1.419 . S
C2819 C2820 1.363 . S
C2819 H2822 0.929 . S
C2820 C2819 1.363 . S
C2820 C2826 1.428 . S
H2821 C2817 0.930 . S
H2822 C2819 0.929 . S
S2823 N2824 1.613 . S
S2823 N2825 1.610 . S
N2824 S2823 1.613 . S
N2824 C2827 1.350 . S
N2825 S2823 1.610 . S
N2825 C2826 1.351 . S
C2826 C2820 1.428 . S
C2826 N2825 1.351 . S
C2826 C2827 1.434 . S
C2827 C2818 1.429 . S
C2827 N2824 1.350 . S
C2827 C2826 1.434 . S
C2828 C2829 1.369 1_545 S
C2828 C2830 1.419 . S
C2828 H2832 0.930 . S
C2829 C2828 1.369 1_565 S
C2829 C2838 1.429 . S
C2830 C2828 1.419 . S
C2830 C2831 1.363 . S
C2830 H2833 0.929 . S
C2831 C2830 1.363 . S
C2831 C2837 1.428 1_545 S
H2832 C2828 0.930 . S
H2833 C2830 0.929 . S
S2834 N2835 1.613 . S
S2834 N2836 1.610 . S
N2835 S2834 1.613 . S
N2835 C2838 1.350 . S
N2836 S2834 1.610 . S
N2836 C2837 1.351 . S
C2837 C2831 1.428 1_565 S
C2837 N2836 1.351 . S
C2837 C2838 1.434 . S
C2838 C2829 1.429 . S
C2838 N2835 1.350 . S
C2838 C2837 1.434 . S
C2839 C2840 1.369 . S
C2839 C2841 1.419 . S
C2839 H2843 0.930 . S
C2840 C2839 1.369 . S
C2840 C2849 1.429 . S
C2841 C2839 1.419 . S
C2841 C2842 1.363 . S
C2841 H2844 0.929 . S
C2842 C2841 1.363 . S
C2842 C2848 1.428 . S
H2843 C2839 0.930 . S
H2844 C2841 0.929 . S
S2845 N2846 1.613 . S
S2845 N2847 1.610 . S
N2846 S2845 1.613 . S
N2846 C2849 1.350 . S
N2847 S2845 1.610 . S
N2847 C2848 1.351 . S
C2848 C2842 1.428 . S
C2848 N2847 1.351 . S
C2848 C2849 1.434 . S
C2849 C2840 1.429 . S
C2849 N2846 1.350 . S
C2849 C2848 1.434 . S
C2850 C2851 1.369 . S
C2850 C2852 1.419 . S
C2850 H2854 0.930 . S
C2851 C2850 1.369 . S
C2851 C2860 1.441 . S
C2852 C2850 1.419 . S
C2852 C2853 1.386 . S
C2852 H2855 0.929 . S
C2853 C2852 1.386 . S
C2853 C2859 1.418 1_545 S
H2854 C2850 0.930 . S
H2855 C2852 0.929 . S
S2856 N2857 1.613 . S
S2856 N2858 1.610 . S
N2857 S2856 1.613 . S
N2857 C2860 1.342 1_565 S
N2858 S2856 1.610 . S
N2858 C2859 1.351 . S
C2859 C2853 1.418 1_565 S
C2859 N2858 1.351 . S
C2859 C2860 1.428 1_565 S
C2860 C2851 1.441 . S
C2860 N2857 1.342 1_545 S
C2860 C2859 1.428 1_545 S
C2861 C2862 1.369 . S
C2861 C2863 1.419 . S
C2861 H2865 0.930 . S
C2862 C2861 1.369 . S
C2862 C2871 1.429 . S
C2863 C2861 1.419 . S
C2863 C2864 1.363 . S
C2863 H2866 0.929 . S
C2864 C2863 1.363 . S
C2864 C2870 1.428 . S
H2865 C2861 0.930 . S
H2866 C2863 0.929 . S
S2867 N2868 1.613 . S
S2867 N2869 1.610 . S
N2868 S2867 1.613 . S
N2868 C2871 1.350 . S
N2869 S2867 1.610 . S
N2869 C2870 1.351 . S
C2870 C2864 1.428 . S
C2870 N2869 1.351 . S
C2870 C2871 1.434 . S
C2871 C2862 1.429 . S
C2871 N2868 1.350 . S
C2871 C2870 1.434 . S
C2872 C2873 1.369 . S
C2872 C2874 1.419 . S
C2872 H2876 0.930 . S
C2873 C2872 1.369 . S
C2873 C2882 1.429 1_556 S
C2874 C2872 1.419 . S
C2874 C2875 1.363 . S
C2874 H2877 0.929 . S
C2875 C2874 1.363 . S
C2875 C2881 1.428 1_556 S
H2876 C2872 0.930 . S
H2877 C2874 0.929 . S
S2878 N2879 1.613 . S
S2878 N2880 1.610 . S
N2879 S2878 1.613 . S
N2879 C2882 1.350 . S
N2880 S2878 1.610 . S
N2880 C2881 1.351 . S
C2881 C2875 1.428 1_554 S
C2881 N2880 1.351 . S
C2881 C2882 1.434 . S
C2882 C2873 1.429 1_554 S
C2882 N2879 1.350 . S
C2882 C2881 1.434 . S
C2883 C2884 1.369 . S
C2883 C2885 1.419 . S
C2883 H2887 0.930 . S
C2884 C2883 1.369 . S
C2884 C2893 1.429 . S
C2885 C2883 1.419 . S
C2885 C2886 1.363 . S
C2885 H2888 0.929 . S
C2886 C2885 1.363 . S
C2886 C2892 1.428 . S
H2887 C2883 0.930 . S
H2888 C2885 0.929 . S
S2889 N2890 1.613 . S
S2889 N2891 1.610 . S
N2890 S2889 1.613 . S
N2890 C2893 1.350 . S
N2891 S2889 1.610 . S
N2891 C2892 1.351 . S
C2892 C2886 1.428 . S
C2892 N2891 1.351 . S
C2892 C2893 1.434 . S
C2893 C2884 1.429 . S
C2893 N2890 1.350 . S
C2893 C2892 1.434 . S
C2894 C2895 1.369 . S
C2894 C2896 1.419 . S
C2894 H2898 0.930 . S
C2895 C2894 1.369 . S
C2895 C2904 1.429 . S
C2896 C2894 1.419 . S
C2896 C2897 1.363 . S
C2896 H2899 0.929 . S
C2897 C2896 1.363 . S
C2897 C2903 1.428 . S
H2898 C2894 0.930 . S
H2899 C2896 0.929 . S
S2900 N2901 1.613 . S
S2900 N2902 1.610 . S
N2901 S2900 1.613 . S
N2901 C2904 1.350 . S
N2902 S2900 1.610 . S
N2902 C2903 1.351 . S
C2903 C2897 1.428 . S
C2903 N2902 1.351 . S
C2903 C2904 1.434 . S
C2904 C2895 1.429 . S
C2904 N2901 1.350 . S
C2904 C2903 1.434 . S
C2905 C2906 1.369 . S
C2905 C2907 1.419 . S
C2905 H2909 0.930 . S
C2906 C2905 1.369 . S
C2906 C2915 1.429 . S
C2907 C2905 1.419 . S
C2907 C2908 1.363 . S
C2907 H2910 0.929 . S
C2908 C2907 1.363 . S
C2908 C2914 1.428 . S
H2909 C2905 0.930 . S
H2910 C2907 0.929 . S
S2911 N2912 1.613 . S
S2911 N2913 1.610 . S
N2912 S2911 1.613 . S
N2912 C2915 1.350 . S
N2913 S2911 1.610 . S
N2913 C2914 1.351 . S
C2914 C2908 1.428 . S
C2914 N2913 1.351 . S
C2914 C2915 1.434 . S
C2915 C2906 1.429 . S
C2915 N2912 1.350 . S
C2915 C2914 1.434 . S
C2916 C2917 1.369 . S
C2916 C2918 1.419 . S
C2916 H2920 0.930 . S
C2917 C2916 1.369 . S
C2917 C2926 1.429 . S
C2918 C2916 1.419 . S
C2918 C2919 1.363 . S
C2918 H2921 0.929 . S
C2919 C2918 1.363 . S
C2919 C2925 1.428 . S
H2920 C2916 0.930 . S
H2921 C2918 0.929 . S
S2922 N2923 1.613 . S
S2922 N2924 1.610 . S
N2923 S2922 1.613 . S
N2923 C2926 1.350 . S
N2924 S2922 1.610 . S
N2924 C2925 1.351 . S
C2925 C2919 1.428 . S
C2925 N2924 1.351 . S
C2925 C2926 1.434 . S
C2926 C2917 1.429 . S
C2926 N2923 1.350 . S
C2926 C2925 1.434 . S
C2927 C2928 1.369 . S
C2927 C2929 1.419 . S
C2927 H2931 0.930 . S
C2928 C2927 1.369 . S
C2928 C2937 1.429 . S
C2929 C2927 1.419 . S
C2929 C2930 1.363 . S
C2929 H2932 0.929 1_565 S
C2930 C2929 1.363 . S
C2930 C2936 1.428 . S
H2931 C2927 0.930 . S
H2932 C2929 0.929 1_545 S
S2933 N2934 1.613 . S
S2933 N2935 1.610 . S
N2934 S2933 1.613 . S
N2934 C2937 1.350 . S
N2935 S2933 1.610 . S
N2935 C2936 1.351 . S
C2936 C2930 1.428 . S
C2936 N2935 1.351 . S
C2936 C2937 1.434 . S
C2937 C2928 1.429 . S
C2937 N2934 1.350 . S
C2937 C2936 1.434 . S
C2938 C2939 1.369 . S
C2938 C2940 1.419 . S
C2938 H2942 0.930 . S
C2939 C2938 1.369 . S
C2939 C2948 1.429 . S
C2940 C2938 1.419 . S
C2940 C2941 1.363 . S
C2940 H2943 0.929 . S
C2941 C2940 1.363 . S
C2941 C2947 1.428 . S
H2942 C2938 0.930 . S
H2943 C2940 0.929 . S
S2944 N2945 1.613 . S
S2944 N2946 1.610 . S
N2945 S2944 1.613 . S
N2945 C2948 1.350 . S
N2946 S2944 1.610 . S
N2946 C2947 1.351 . S
C2947 C2941 1.428 . S
C2947 N2946 1.351 . S
C2947 C2948 1.434 . S
C2948 C2939 1.429 . S
C2948 N2945 1.350 . S
C2948 C2947 1.434 . S
C2949 C2950 1.369 . S
C2949 C2951 1.419 . S
C2949 H2953 0.930 . S
C2950 C2949 1.369 . S
C2950 C2959 1.429 . S
C2951 C2949 1.419 . S
C2951 C2952 1.363 . S
C2951 H2954 0.929 . S
C2952 C2951 1.363 . S
C2952 C2958 1.428 . S
H2953 C2949 0.930 . S
H2954 C2951 0.929 . S
S2955 N2956 1.613 . S
S2955 N2957 1.610 . S
N2956 S2955 1.613 . S
N2956 C2959 1.350 . S
N2957 S2955 1.610 . S
N2957 C2958 1.351 . S
C2958 C2952 1.428 . S
C2958 N2957 1.351 . S
C2958 C2959 1.434 . S
C2959 C2950 1.429 . S
C2959 N2956 1.350 . S
C2959 C2958 1.434 . S
C2960 C2961 1.369 . S
C2960 C2962 1.419 . S
C2960 H2964 0.930 . S
C2961 C2960 1.369 . S
C2961 C2970 1.429 . S
C2962 C2960 1.419 . S
C2962 C2963 1.363 . S
C2962 H2965 0.929 . S
C2963 C2962 1.363 . S
C2963 C2969 1.428 . S
H2964 C2960 0.930 . S
H2965 C2962 0.929 . S
S2966 N2967 1.613 . S
S2966 N2968 1.610 . S
N2967 S2966 1.613 . S
N2967 C2970 1.350 . S
N2968 S2966 1.610 . S
N2968 C2969 1.351 . S
C2969 C2963 1.428 . S
C2969 N2968 1.351 . S
C2969 C2970 1.434 . S
C2970 C2961 1.429 . S
C2970 N2967 1.350 . S
C2970 C2969 1.434 . S
C2971 C2972 1.369 . S
C2971 C2973 1.419 . S
C2971 H2975 0.930 . S
C2972 C2971 1.369 . S
C2972 C2981 1.429 . S
C2973 C2971 1.419 . S
C2973 C2974 1.363 . S
C2973 H2976 0.929 . S
C2974 C2973 1.363 . S
C2974 C2980 1.428 . S
H2975 C2971 0.930 . S
H2976 C2973 0.929 . S
S2977 N2978 1.613 . S
S2977 N2979 1.610 . S
N2978 S2977 1.613 . S
N2978 C2981 1.350 . S
N2979 S2977 1.610 . S
N2979 C2980 1.351 . S
C2980 C2974 1.428 . S
C2980 N2979 1.351 . S
C2980 C2981 1.434 . S
C2981 C2972 1.429 . S
C2981 N2978 1.350 . S
C2981 C2980 1.434 . S
C2982 C2983 1.369 . S
C2982 C2984 1.419 1_556 S
C2982 H2986 0.930 1_556 S
C2983 C2982 1.369 . S
C2983 C2992 1.429 1_455 S
C2984 C2982 1.419 1_554 S
C2984 C2985 1.363 1_554 S
C2984 H2987 0.929 . S
C2985 C2984 1.363 1_556 S
C2985 C2991 1.428 1_455 S
H2986 C2982 0.930 1_554 S
H2987 C2984 0.929 . S
S2988 N2989 1.613 . S
S2988 N2990 1.610 . S
N2989 S2988 1.613 . S
N2989 C2992 1.350 . S
N2990 S2988 1.610 . S
N2990 C2991 1.351 . S
C2991 C2985 1.428 1_655 S
C2991 N2990 1.351 . S
C2991 C2992 1.434 . S
C2992 C2983 1.429 1_655 S
C2992 N2989 1.350 . S
C2992 C2991 1.434 . S
C2993 C2994 1.369 . S
C2993 C2995 1.419 . S
C2993 H2997 0.930 . S
C2994 C2993 1.369 . S
C2994 C3003 1.429 . S
C2995 C2993 1.419 . S
C2995 C2996 1.363 . S
C2995 H2998 0.929 . S
C2996 C2995 1.363 . S
C2996 C3002 1.428 . S
H2997 C2993 0.930 . S
H2998 C2995 0.929 . S
S2999 N3000 1.613 . S
S2999 N3001 1.610 . S
N3000 S2999 1.613 . S
N3000 C3003 1.350 . S
N3001 S2999 1.610 . S
N3001 C3002 1.351 . S
C3002 C2996 1.428 . S
C3002 N3001 1.351 . S
C3002 C3003 1.434 . S
C3003 C2994 1.429 . S
C3003 N3000 1.350 . S
C3003 C3002 1.434 . S
C3004 C3005 1.369 . S
C3004 C3006 1.419 . S
C3004 H3008 0.930 . S
C3005 C3004 1.369 . S
C3005 C3014 1.429 . S
C3006 C3004 1.419 . S
C3006 C3007 1.363 . S
C3006 H3009 0.929 . S
C3007 C3006 1.363 . S
C3007 C3013 1.428 . S
H3008 C3004 0.930 . S
H3009 C3006 0.929 . S
S3010 N3011 1.613 1_556 S
S3010 N3012 1.610 1_556 S
N3011 S3010 1.613 1_554 S
N3011 C3014 1.350 . S
N3012 S3010 1.610 1_554 S
N3012 C3013 1.351 . S
C3013 C3007 1.428 . S
C3013 N3012 1.351 . S
C3013 C3014 1.434 . S
C3014 C3005 1.429 . S
C3014 N3011 1.350 . S
C3014 C3013 1.434 . S
C3015 C3016 1.369 . S
C3015 C3017 1.419 . S
C3015 H3019 0.930 . S
C3016 C3015 1.369 . S
C3016 C3025 1.429 . S
C3017 C3015 1.419 . S
C3017 C3018 1.363 . S
C3017 H3020 0.929 . S
C3018 C3017 1.363 . S
C3018 C3024 1.428 . S
H3019 C3015 0.930 . S
H3020 C3017 0.929 . S
S3021 N3022 1.613 . S
S3021 N3023 1.610 . S
N3022 S3021 1.613 . S
N3022 C3025 1.350 . S
N3023 S3021 1.610 . S
N3023 C3024 1.351 . S
C3024 C3018 1.428 . S
C3024 N3023 1.351 . S
C3024 C3025 1.434 . S
C3025 C3016 1.429 . S
C3025 N3022 1.350 . S
C3025 C3024 1.434 . S
C3026 C3027 1.369 . S
C3026 C3028 1.419 . S
C3026 H3030 0.930 . S
C3027 C3026 1.369 . S
C3027 C3036 1.429 1_655 S
C3028 C3026 1.419 . S
C3028 C3029 1.363 1_655 S
C3028 H3031 0.929 . S
C3029 C3028 1.363 1_455 S
C3029 C3035 1.428 . S
H3030 C3026 0.930 . S
H3031 C3028 0.929 . S
S3032 N3033 1.613 . S
S3032 N3034 1.610 . S
N3033 S3032 1.613 . S
N3033 C3036 1.350 . S
N3034 S3032 1.610 . S
N3034 C3035 1.351 . S
C3035 C3029 1.428 . S
C3035 N3034 1.351 . S
C3035 C3036 1.434 . S
C3036 C3027 1.429 1_455 S
C3036 N3033 1.350 . S
C3036 C3035 1.434 . S
C3037 C3038 1.369 . S
C3037 C3039 1.419 . S
C3037 H3041 0.930 . S
C3038 C3037 1.369 . S
C3038 C3047 1.429 . S
C3039 C3037 1.419 . S
C3039 C3040 1.363 . S
C3039 H3042 0.929 . S
C3040 C3039 1.363 . S
C3040 C3046 1.428 . S
H3041 C3037 0.930 . S
H3042 C3039 0.929 . S
S3043 N3044 1.613 . S
S3043 N3045 1.610 . S
N3044 S3043 1.613 . S
N3044 C3047 1.350 . S
N3045 S3043 1.610 . S
N3045 C3046 1.351 . S
C3046 C3040 1.428 . S
C3046 N3045 1.351 . S
C3046 C3047 1.434 . S
C3047 C3038 1.429 . S
C3047 N3044 1.350 . S
C3047 C3046 1.434 . S
C3048 C3049 1.369 . S
C3048 C3050 1.419 . S
C3048 H3052 0.930 . S
C3049 C3048 1.369 . S
C3049 C3058 1.429 . S
C3050 C3048 1.419 . S
C3050 C3051 1.363 . S
C3050 H3053 0.929 . S
C3051 C3050 1.363 . S
C3051 C3057 1.428 . S
H3052 C3048 0.930 . S
H3053 C3050 0.929 . S
S3054 N3055 1.613 . S
S3054 N3056 1.610 . S
N3055 S3054 1.613 . S
N3055 C3058 1.350 . S
N3056 S3054 1.610 . S
N3056 C3057 1.351 . S
C3057 C3051 1.428 . S
C3057 N3056 1.351 . S
C3057 C3058 1.434 . S
C3058 C3049 1.429 . S
C3058 N3055 1.350 . S
C3058 C3057 1.434 . S
C3059 C3060 1.369 . S
C3059 C3061 1.419 . S
C3059 H3063 0.930 . S
C3060 C3059 1.369 . S
C3060 C3069 1.429 . S
C3061 C3059 1.419 . S
C3061 C3062 1.363 . S
C3061 H3064 0.929 . S
C3062 C3061 1.363 . S
C3062 C3068 1.428 . S
H3063 C3059 0.930 . S
H3064 C3061 0.929 . S
S3065 N3066 1.613 . S
S3065 N3067 1.610 . S
N3066 S3065 1.613 . S
N3066 C3069 1.350 . S
N3067 S3065 1.610 . S
N3067 C3068 1.351 . S
C3068 C3062 1.428 . S
C3068 N3067 1.351 . S
C3068 C3069 1.434 . S
C3069 C3060 1.429 . S
C3069 N3066 1.350 . S
C3069 C3068 1.434 . S
C3070 C3071 1.369 . S
C3070 C3072 1.419 . S
C3070 H3074 0.930 . S
C3071 C3070 1.369 . S
C3071 C3080 1.429 . S
C3072 C3070 1.419 . S
C3072 C3073 1.363 . S
C3072 H3075 0.929 . S
C3073 C3072 1.363 . S
C3073 C3079 1.428 . S
H3074 C3070 0.930 . S
H3075 C3072 0.929 . S
S3076 N3077 1.593 1_655 S
S3076 N3078 1.608 1_655 S
N3077 S3076 1.593 1_455 S
N3077 C3080 1.350 . S
N3078 S3076 1.608 1_455 S
N3078 C3079 1.351 . S
C3079 C3073 1.428 . S
C3079 N3078 1.351 . S
C3079 C3080 1.434 . S
C3080 C3071 1.429 . S
C3080 N3077 1.350 . S
C3080 C3079 1.434 . S
C3081 C3082 1.369 . S
C3081 C3083 1.419 . S
C3081 H3085 0.930 . S
C3082 C3081 1.369 . S
C3082 C3091 1.429 . S
C3083 C3081 1.419 . S
C3083 C3084 1.363 . S
C3083 H3086 0.929 . S
C3084 C3083 1.363 . S
C3084 C3090 1.428 . S
H3085 C3081 0.930 . S
H3086 C3083 0.929 . S
S3087 N3088 1.613 . S
S3087 N3089 1.610 . S
N3088 S3087 1.613 . S
N3088 C3091 1.350 . S
N3089 S3087 1.610 . S
N3089 C3090 1.351 . S
C3090 C3084 1.428 . S
C3090 N3089 1.351 . S
C3090 C3091 1.434 . S
C3091 C3082 1.429 . S
C3091 N3088 1.350 . S
C3091 C3090 1.434 . S
C3092 C3093 1.369 . S
C3092 C3094 1.419 . S
C3092 H3096 0.930 . S
C3093 C3092 1.369 . S
C3093 C3102 1.429 . S
C3094 C3092 1.419 . S
C3094 C3095 1.363 . S
C3094 H3097 0.929 . S
C3095 C3094 1.363 . S
C3095 C3101 1.428 . S
H3096 C3092 0.930 . S
H3097 C3094 0.929 . S
S3098 N3099 1.613 . S
S3098 N3100 1.610 . S
N3099 S3098 1.613 . S
N3099 C3102 1.350 . S
N3100 S3098 1.610 . S
N3100 C3101 1.351 . S
C3101 C3095 1.428 . S
C3101 N3100 1.351 . S
C3101 C3102 1.434 . S
C3102 C3093 1.429 . S
C3102 N3099 1.350 . S
C3102 C3101 1.434 . S
C3103 C3104 1.369 . S
C3103 C3105 1.419 . S
C3103 H3107 0.930 . S
C3104 C3103 1.369 . S
C3104 C3113 1.429 . S
C3105 C3103 1.419 . S
C3105 C3106 1.363 . S
C3105 H3108 0.929 . S
C3106 C3105 1.363 . S
C3106 C3112 1.428 . S
H3107 C3103 0.930 . S
H3108 C3105 0.929 . S
S3109 N3110 1.613 . S
S3109 N3111 1.610 . S
N3110 S3109 1.613 . S
N3110 C3113 1.350 . S
N3111 S3109 1.610 . S
N3111 C3112 1.351 . S
C3112 C3106 1.428 . S
C3112 N3111 1.351 . S
C3112 C3113 1.434 . S
C3113 C3104 1.429 . S
C3113 N3110 1.350 . S
C3113 C3112 1.434 . S
C3114 C3115 1.369 . S
C3114 C3116 1.419 . S
C3114 H3118 0.930 . S
C3115 C3114 1.369 . S
C3115 C3124 1.429 . S
C3116 C3114 1.419 . S
C3116 C3117 1.363 . S
C3116 H3119 0.929 . S
C3117 C3116 1.363 . S
C3117 C3123 1.428 . S
H3118 C3114 0.930 . S
H3119 C3116 0.929 . S
S3120 N3121 1.613 . S
S3120 N3122 1.610 . S
N3121 S3120 1.613 . S
N3121 C3124 1.350 . S
N3122 S3120 1.610 . S
N3122 C3123 1.351 . S
C3123 C3117 1.428 . S
C3123 N3122 1.351 . S
C3123 C3124 1.434 . S
C3124 C3115 1.429 . S
C3124 N3121 1.350 . S
C3124 C3123 1.434 . S
C3125 C3126 1.369 . S
C3125 C3127 1.419 . S
C3125 H3129 0.930 . S
C3126 C3125 1.369 . S
C3126 C3135 1.429 . S
C3127 C3125 1.419 . S
C3127 C3128 1.363 . S
C3127 H3130 0.929 . S
C3128 C3127 1.363 . S
C3128 C3134 1.428 . S
H3129 C3125 0.930 . S
H3130 C3127 0.929 . S
S3131 N3132 1.613 . S
S3131 N3133 1.610 . S
N3132 S3131 1.613 . S
N3132 C3135 1.350 . S
N3133 S3131 1.610 . S
N3133 C3134 1.351 . S
C3134 C3128 1.428 . S
C3134 N3133 1.351 . S
C3134 C3135 1.434 . S
C3135 C3126 1.429 . S
C3135 N3132 1.350 . S
C3135 C3134 1.434 . S
C3136 C3137 1.369 . S
C3136 C3138 1.419 . S
C3136 H3140 0.930 . S
C3137 C3136 1.369 . S
C3137 C3146 1.429 . S
C3138 C3136 1.419 . S
C3138 C3139 1.363 . S
C3138 H3141 0.929 . S
C3139 C3138 1.363 . S
C3139 C3145 1.428 . S
H3140 C3136 0.930 . S
H3141 C3138 0.929 . S
S3142 N3143 1.613 . S
S3142 N3144 1.610 . S
N3143 S3142 1.613 . S
N3143 C3146 1.350 . S
N3144 S3142 1.610 . S
N3144 C3145 1.351 . S
C3145 C3139 1.428 . S
C3145 N3144 1.351 . S
C3145 C3146 1.434 . S
C3146 C3137 1.429 . S
C3146 N3143 1.350 . S
C3146 C3145 1.434 . S
C3147 C3148 1.369 . S
C3147 C3149 1.419 . S
C3147 H3151 0.930 . S
C3148 C3147 1.369 . S
C3148 C3157 1.429 . S
C3149 C3147 1.419 . S
C3149 C3150 1.363 . S
C3149 H3152 0.929 . S
C3150 C3149 1.363 . S
C3150 C3156 1.428 . S
H3151 C3147 0.930 . S
H3152 C3149 0.929 . S
S3153 N3154 1.613 . S
S3153 N3155 1.610 . S
N3154 S3153 1.613 . S
N3154 C3157 1.350 . S
N3155 S3153 1.610 . S
N3155 C3156 1.351 . S
C3156 C3150 1.428 . S
C3156 N3155 1.351 . S
C3156 C3157 1.434 . S
C3157 C3148 1.429 . S
C3157 N3154 1.350 . S
C3157 C3156 1.434 . S
C3158 C3159 1.369 . S
C3158 C3160 1.419 . S
C3158 H3162 0.930 . S
C3159 C3158 1.369 . S
C3159 C3168 1.429 . S
C3160 C3158 1.419 . S
C3160 C3161 1.363 . S
C3160 H3163 0.929 . S
C3161 C3160 1.363 . S
C3161 C3167 1.428 . S
H3162 C3158 0.930 . S
H3163 C3160 0.929 . S
S3164 N3165 1.613 . S
S3164 N3166 1.610 . S
N3165 S3164 1.613 . S
N3165 C3168 1.350 . S
N3166 S3164 1.610 . S
N3166 C3167 1.351 . S
C3167 C3161 1.428 . S
C3167 N3166 1.351 . S
C3167 C3168 1.434 . S
C3168 C3159 1.429 . S
C3168 N3165 1.350 . S
C3168 C3167 1.434 . S
C3169 C3170 1.369 . S
C3169 C3171 1.419 . S
C3169 H3173 0.930 1_554 S
C3170 C3169 1.369 . S
C3170 C3179 1.429 1_565 S
C3171 C3169 1.419 . S
C3171 C3172 1.363 1_565 S
C3171 H3174 0.929 1_554 S
C3172 C3171 1.363 1_545 S
C3172 C3178 1.428 . S
H3173 C3169 0.930 1_556 S
H3174 C3171 0.929 1_556 S
S3175 N3176 1.613 . S
S3175 N3177 1.610 . S
N3176 S3175 1.613 . S
N3176 C3179 1.350 . S
N3177 S3175 1.610 . S
N3177 C3178 1.351 . S
C3178 C3172 1.428 . S
C3178 N3177 1.351 . S
C3178 C3179 1.434 . S
C3179 C3170 1.429 1_545 S
C3179 N3176 1.350 . S
C3179 C3178 1.434 . S
C3180 C3181 1.369 . S
C3180 C3182 1.419 . S
C3180 H3184 0.930 . S
C3181 C3180 1.369 . S
C3181 C3190 1.429 . S
C3182 C3180 1.419 . S
C3182 C3183 1.363 . S
C3182 H3185 0.929 . S
C3183 C3182 1.363 . S
C3183 C3189 1.428 . S
H3184 C3180 0.930 . S
H3185 C3182 0.929 . S
S3186 N3187 1.613 . S
S3186 N3188 1.610 . S
N3187 S3186 1.613 . S
N3187 C3190 1.350 . S
N3188 S3186 1.610 . S
N3188 C3189 1.351 . S
C3189 C3183 1.428 . S
C3189 N3188 1.351 . S
C3189 C3190 1.434 . S
C3190 C3181 1.429 . S
C3190 N3187 1.350 . S
C3190 C3189 1.434 . S
C3191 C3192 1.369 . S
C3191 C3193 1.419 . S
C3191 H3195 0.930 . S
C3192 C3191 1.369 . S
C3192 C3201 1.429 . S
C3193 C3191 1.419 . S
C3193 C3194 1.363 . S
C3193 H3196 0.929 . S
C3194 C3193 1.363 . S
C3194 C3200 1.428 . S
H3195 C3191 0.930 . S
H3196 C3193 0.929 . S
S3197 N3198 1.613 1_554 S
S3197 N3199 1.622 . S
N3198 S3197 1.613 1_556 S
N3198 C3201 1.350 1_556 S
N3199 S3197 1.622 . S
N3199 C3200 1.351 . S
C3200 C3194 1.428 . S
C3200 N3199 1.351 . S
C3200 C3201 1.434 . S
C3201 C3192 1.429 . S
C3201 N3198 1.350 1_554 S
C3201 C3200 1.434 . S
C3202 C3203 1.369 . S
C3202 C3204 1.419 . S
C3202 H3206 0.930 . S
C3203 C3202 1.369 . S
C3203 C3212 1.429 . S
C3204 C3202 1.419 . S
C3204 C3205 1.363 . S
C3204 H3207 0.929 . S
C3205 C3204 1.363 . S
C3205 C3211 1.428 . S
H3206 C3202 0.930 . S
H3207 C3204 0.929 . S
S3208 N3209 1.613 . S
S3208 N3210 1.610 . S
N3209 S3208 1.613 . S
N3209 C3212 1.350 . S
N3210 S3208 1.610 . S
N3210 C3211 1.351 . S
C3211 C3205 1.428 . S
C3211 N3210 1.351 . S
C3211 C3212 1.434 . S
C3212 C3203 1.429 . S
C3212 N3209 1.350 . S
C3212 C3211 1.434 . S
C3213 C3214 1.369 . S
C3213 C3215 1.419 . S
C3213 H3217 0.930 . S
C3214 C3213 1.369 . S
C3214 C3223 1.429 . S
C3215 C3213 1.419 . S
C3215 C3216 1.363 . S
C3215 H3218 0.929 . S
C3216 C3215 1.363 . S
C3216 C3222 1.428 . S
H3217 C3213 0.930 . S
H3218 C3215 0.929 . S
S3219 N3220 1.613 . S
S3219 N3221 1.610 . S
N3220 S3219 1.613 . S
N3220 C3223 1.350 . S
N3221 S3219 1.610 . S
N3221 C3222 1.351 . S
C3222 C3216 1.428 . S
C3222 N3221 1.351 . S
C3222 C3223 1.434 . S
C3223 C3214 1.429 . S
C3223 N3220 1.350 . S
C3223 C3222 1.434 . S
C3224 C3225 1.369 . S
C3224 C3226 1.419 . S
C3224 H3228 0.930 . S
C3225 C3224 1.369 . S
C3225 C3234 1.429 . S
C3226 C3224 1.419 . S
C3226 C3227 1.363 . S
C3226 H3229 0.929 . S
C3227 C3226 1.363 . S
C3227 C3233 1.428 . S
H3228 C3224 0.930 . S
H3229 C3226 0.929 . S
S3230 N3231 1.613 . S
S3230 N3232 1.610 . S
N3231 S3230 1.613 . S
N3231 C3234 1.350 . S
N3232 S3230 1.610 . S
N3232 C3233 1.351 . S
C3233 C3227 1.428 . S
C3233 N3232 1.351 . S
C3233 C3234 1.434 . S
C3234 C3225 1.429 . S
C3234 N3231 1.350 . S
C3234 C3233 1.434 . S
C3235 C3236 1.369 . S
C3235 C3237 1.419 . S
C3235 H3239 0.930 . S
C3236 C3235 1.369 . S
C3236 C3245 1.429 . S
C3237 C3235 1.419 . S
C3237 C3238 1.363 . S
C3237 H3240 0.929 . S
C3238 C3237 1.363 . S
C3238 C3244 1.428 . S
H3239 C3235 0.930 . S
H3240 C3237 0.929 . S
S3241 N3242 1.613 . S
S3241 N3243 1.610 . S
N3242 S3241 1.613 . S
N3242 C3245 1.350 . S
N3243 S3241 1.610 . S
N3243 C3244 1.351 . S
C3244 C3238 1.428 . S
C3244 N3243 1.351 . S
C3244 C3245 1.434 . S
C3245 C3236 1.429 . S
C3245 N3242 1.350 . S
C3245 C3244 1.434 . S
C3246 C3247 1.369 1_655 S
C3246 C3248 1.419 . S
C3246 H3250 0.930 . S
C3247 C3246 1.369 1_455 S
C3247 C3256 1.429 . S
C3248 C3246 1.419 . S
C3248 C3249 1.363 1_655 S
C3248 H3251 0.929 . S
C3249 C3248 1.363 1_455 S
C3249 C3255 1.428 . S
H3250 C3246 0.930 . S
H3251 C3248 0.929 . S
S3252 N3253 1.613 . S
S3252 N3254 1.610 . S
N3253 S3252 1.613 . S
N3253 C3256 1.350 . S
N3254 S3252 1.610 . S
N3254 C3255 1.351 . S
C3255 C3249 1.428 . S
C3255 N3254 1.351 . S
C3255 C3256 1.434 . S
C3256 C3247 1.429 . S
C3256 N3253 1.350 . S
C3256 C3255 1.434 . S
C3257 C3258 1.369 . S
C3257 C3259 1.419 . S
C3257 H3261 0.930 . S
C3258 C3257 1.369 . S
C3258 C3267 1.429 . S
C3259 C3257 1.419 . S
C3259 C3260 1.363 . S
C3259 H3262 0.929 . S
C3260 C3259 1.363 . S
C3260 C3266 1.428 . S
H3261 C3257 0.930 . S
H3262 C3259 0.929 . S
S3263 N3264 1.613 . S
S3263 N3265 1.610 . S
N3264 S3263 1.613 . S
N3264 C3267 1.350 . S
N3265 S3263 1.610 . S
N3265 C3266 1.351 . S
C3266 C3260 1.428 . S
C3266 N3265 1.351 . S
C3266 C3267 1.434 . S
C3267 C3258 1.429 . S
C3267 N3264 1.350 . S
C3267 C3266 1.434 . S
C3268 C3269 1.369 . S
C3268 C3270 1.419 . S
C3268 H3272 0.930 . S
C3269 C3268 1.369 . S
C3269 C3278 1.429 . S
C3270 C3268 1.419 . S
C3270 C3271 1.363 . S
C3270 H3273 0.929 . S
C3271 C3270 1.363 . S
C3271 C3277 1.428 . S
H3272 C3268 0.930 . S
H3273 C3270 0.929 . S
S3274 N3275 1.613 . S
S3274 N3276 1.610 . S
N3275 S3274 1.613 . S
N3275 C3278 1.350 . S
N3276 S3274 1.610 . S
N3276 C3277 1.351 . S
C3277 C3271 1.428 . S
C3277 N3276 1.351 . S
C3277 C3278 1.434 . S
C3278 C3269 1.429 . S
C3278 N3275 1.350 . S
C3278 C3277 1.434 . S
C3279 C3280 1.369 . S
C3279 C3281 1.419 . S
C3279 H3283 0.930 . S
C3280 C3279 1.369 . S
C3280 C3289 1.429 . S
C3281 C3279 1.419 . S
C3281 C3282 1.363 . S
C3281 H3284 0.929 . S
C3282 C3281 1.363 . S
C3282 C3288 1.428 . S
H3283 C3279 0.930 . S
H3284 C3281 0.929 . S
S3285 N3286 1.613 . S
S3285 N3287 1.610 . S
N3286 S3285 1.613 . S
N3286 C3289 1.350 . S
N3287 S3285 1.610 . S
N3287 C3288 1.351 . S
C3288 C3282 1.428 . S
C3288 N3287 1.351 . S
C3288 C3289 1.434 . S
C3289 C3280 1.429 . S
C3289 N3286 1.350 . S
C3289 C3288 1.434 . S
C3290 C3291 1.369 . S
C3290 C3292 1.419 . S
C3290 H3294 0.930 . S
C3291 C3290 1.369 . S
C3291 C3300 1.429 . S
C3292 C3290 1.419 . S
C3292 C3293 1.363 . S
C3292 H3295 0.929 . S
C3293 C3292 1.363 . S
C3293 C3299 1.428 . S
H3294 C3290 0.930 . S
H3295 C3292 0.929 . S
S3296 N3297 1.613 . S
S3296 N3298 1.610 . S
N3297 S3296 1.613 . S
N3297 C3300 1.350 . S
N3298 S3296 1.610 . S
N3298 C3299 1.351 . S
C3299 C3293 1.428 . S
C3299 N3298 1.351 . S
C3299 C3300 1.434 . S
C3300 C3291 1.429 . S
C3300 N3297 1.350 . S
C3300 C3299 1.434 . S
C3301 C3302 1.369 . S
C3301 C3303 1.419 . S
C3301 H3305 0.930 . S
C3302 C3301 1.369 . S
C3302 C3311 1.429 . S
C3303 C3301 1.419 . S
C3303 C3304 1.363 . S
C3303 H3306 0.929 . S
C3304 C3303 1.363 . S
C3304 C3310 1.428 . S
H3305 C3301 0.930 . S
H3306 C3303 0.929 . S
S3307 N3308 1.613 . S
S3307 N3309 1.610 . S
N3308 S3307 1.613 . S
N3308 C3311 1.350 . S
N3309 S3307 1.610 . S
N3309 C3310 1.351 . S
C3310 C3304 1.428 . S
C3310 N3309 1.351 . S
C3310 C3311 1.434 . S
C3311 C3302 1.429 . S
C3311 N3308 1.350 . S
C3311 C3310 1.434 . S
C3312 C3313 1.369 . S
C3312 C3314 1.419 . S
C3312 H3316 0.930 . S
C3313 C3312 1.369 . S
C3313 C3322 1.429 . S
C3314 C3312 1.419 . S
C3314 C3315 1.363 . S
C3314 H3317 0.929 . S
C3315 C3314 1.363 . S
C3315 C3321 1.428 . S
H3316 C3312 0.930 . S
H3317 C3314 0.929 . S
S3318 N3319 1.613 . S
S3318 N3320 1.610 . S
N3319 S3318 1.613 . S
N3319 C3322 1.350 . S
N3320 S3318 1.610 . S
N3320 C3321 1.351 . S
C3321 C3315 1.428 . S
C3321 N3320 1.351 . S
C3321 C3322 1.434 . S
C3322 C3313 1.429 . S
C3322 N3319 1.350 . S
C3322 C3321 1.434 . S
C3323 C3324 1.369 . S
C3323 C3325 1.419 . S
C3323 H3327 0.930 . S
C3324 C3323 1.369 . S
C3324 C3333 1.429 . S
C3325 C3323 1.419 . S
C3325 C3326 1.363 . S
C3325 H3328 0.929 . S
C3326 C3325 1.363 . S
C3326 C3332 1.428 . S
H3327 C3323 0.930 . S
H3328 C3325 0.929 . S
S3329 N3330 1.613 . S
S3329 N3331 1.610 . S
N3330 S3329 1.613 . S
N3330 C3333 1.350 . S
N3331 S3329 1.610 . S
N3331 C3332 1.351 . S
C3332 C3326 1.428 . S
C3332 N3331 1.351 . S
C3332 C3333 1.434 . S
C3333 C3324 1.429 . S
C3333 N3330 1.350 . S
C3333 C3332 1.434 . S
C3334 C3335 1.369 . S
C3334 C3336 1.419 . S
C3334 H3338 0.930 . S
C3335 C3334 1.369 . S
C3335 C3344 1.429 . S
C3336 C3334 1.419 . S
C3336 C3337 1.363 . S
C3336 H3339 0.929 . S
C3337 C3336 1.363 . S
C3337 C3343 1.428 . S
H3338 C3334 0.930 . S
H3339 C3336 0.929 . S
S3340 N3341 1.613 . S
S3340 N3342 1.610 . S
N3341 S3340 1.613 . S
N3341 C3344 1.350 . S
N3342 S3340 1.610 . S
N3342 C3343 1.351 . S
C3343 C3337 1.428 . S
C3343 N3342 1.351 . S
C3343 C3344 1.434 . S
C3344 C3335 1.429 . S
C3344 N3341 1.350 . S
C3344 C3343 1.434 . S
C3345 C3346 1.369 . S
C3345 C3347 1.419 . S
C3345 H3349 0.930 . S
C3346 C3345 1.369 . S
C3346 C3355 1.429 . S
C3347 C3345 1.419 . S
C3347 C3348 1.363 . S
C3347 H3350 0.929 . S
C3348 C3347 1.363 . S
C3348 C3354 1.428 . S
H3349 C3345 0.930 . S
H3350 C3347 0.929 . S
S3351 N3352 1.613 . S
S3351 N3353 1.610 . S
N3352 S3351 1.613 . S
N3352 C3355 1.350 . S
N3353 S3351 1.610 . S
N3353 C3354 1.351 . S
C3354 C3348 1.428 . S
C3354 N3353 1.351 . S
C3354 C3355 1.434 . S
C3355 C3346 1.429 . S
C3355 N3352 1.350 . S
C3355 C3354 1.434 . S
C3356 C3357 1.369 . S
C3356 C3358 1.419 . S
C3356 H3360 0.930 . S
C3357 C3356 1.369 . S
C3357 C3366 1.429 . S
C3358 C3356 1.419 . S
C3358 C3359 1.363 . S
C3358 H3361 0.929 . S
C3359 C3358 1.363 . S
C3359 C3365 1.428 . S
H3360 C3356 0.930 . S
H3361 C3358 0.929 . S
S3362 N3363 1.613 . S
S3362 N3364 1.610 . S
N3363 S3362 1.613 . S
N3363 C3366 1.350 . S
N3364 S3362 1.610 . S
N3364 C3365 1.351 . S
C3365 C3359 1.428 . S
C3365 N3364 1.351 . S
C3365 C3366 1.434 . S
C3366 C3357 1.429 . S
C3366 N3363 1.350 . S
C3366 C3365 1.434 . S
C3367 C3368 1.369 . S
C3367 C3369 1.419 . S
C3367 H3371 0.930 . S
C3368 C3367 1.369 . S
C3368 C3377 1.429 . S
C3369 C3367 1.419 . S
C3369 C3370 1.363 . S
C3369 H3372 0.929 . S
C3370 C3369 1.363 . S
C3370 C3376 1.428 . S
H3371 C3367 0.930 . S
H3372 C3369 0.929 . S
S3373 N3374 1.613 . S
S3373 N3375 1.610 . S
N3374 S3373 1.613 . S
N3374 C3377 1.350 . S
N3375 S3373 1.610 . S
N3375 C3376 1.351 . S
C3376 C3370 1.428 . S
C3376 N3375 1.351 . S
C3376 C3377 1.434 . S
C3377 C3368 1.429 . S
C3377 N3374 1.350 . S
C3377 C3376 1.434 . S
C3378 C3379 1.369 . S
C3378 C3380 1.419 . S
C3378 H3382 0.930 1_655 S
C3379 C3378 1.369 . S
C3379 C3388 1.429 . S
C3380 C3378 1.419 . S
C3380 C3381 1.363 . S
C3380 H3383 0.929 1_655 S
C3381 C3380 1.363 . S
C3381 C3387 1.428 . S
H3382 C3378 0.930 1_455 S
H3383 C3380 0.929 1_455 S
S3384 N3385 1.613 . S
S3384 N3386 1.610 . S
N3385 S3384 1.613 . S
N3385 C3388 1.350 . S
N3386 S3384 1.610 . S
N3386 C3387 1.351 . S
C3387 C3381 1.428 . S
C3387 N3386 1.351 . S
C3387 C3388 1.434 . S
C3388 C3379 1.429 . S
C3388 N3385 1.350 . S
C3388 C3387 1.434 . S
C3389 C3390 1.369 . S
C3389 C3391 1.419 . S
C3389 H3393 0.930 . S
C3390 C3389 1.369 . S
C3390 C3399 1.429 . S
C3391 C3389 1.419 . S
C3391 C3392 1.363 . S
C3391 H3394 0.929 . S
C3392 C3391 1.363 . S
C3392 C3398 1.428 . S
H3393 C3389 0.930 . S
H3394 C3391 0.929 . S
S3395 N3396 1.613 . S
S3395 N3397 1.610 . S
N3396 S3395 1.613 . S
N3396 C3399 1.350 . S
N3397 S3395 1.610 . S
N3397 C3398 1.351 . S
C3398 C3392 1.428 . S
C3398 N3397 1.351 . S
C3398 C3399 1.434 . S
C3399 C3390 1.429 . S
C3399 N3396 1.350 . S
C3399 C3398 1.434 . S
C3400 C3401 1.369 . S
C3400 C3402 1.419 . S
C3400 H3404 0.930 . S
C3401 C3400 1.369 . S
C3401 C3410 1.429 . S
C3402 C3400 1.419 . S
C3402 C3403 1.363 . S
C3402 H3405 0.929 . S
C3403 C3402 1.363 . S
C3403 C3409 1.428 . S
H3404 C3400 0.930 . S
H3405 C3402 0.929 . S
S3406 N3407 1.613 . S
S3406 N3408 1.610 . S
N3407 S3406 1.613 . S
N3407 C3410 1.350 . S
N3408 S3406 1.610 . S
N3408 C3409 1.351 . S
C3409 C3403 1.428 . S
C3409 N3408 1.351 . S
C3409 C3410 1.434 . S
C3410 C3401 1.429 . S
C3410 N3407 1.350 . S
C3410 C3409 1.434 . S
C3411 C3412 1.369 . S
C3411 C3413 1.419 . S
C3411 H3415 0.930 . S
C3412 C3411 1.369 . S
C3412 C3421 1.429 . S
C3413 C3411 1.419 . S
C3413 C3414 1.363 . S
C3413 H3416 0.929 . S
C3414 C3413 1.363 . S
C3414 C3420 1.428 . S
H3415 C3411 0.930 . S
H3416 C3413 0.929 . S
S3417 N3418 1.613 1_545 S
S3417 N3419 1.610 . S
N3418 S3417 1.613 1_565 S
N3418 C3421 1.350 . S
N3419 S3417 1.610 . S
N3419 C3420 1.351 1_545 S
C3420 C3414 1.428 . S
C3420 N3419 1.351 1_565 S
C3420 C3421 1.434 . S
C3421 C3412 1.429 . S
C3421 N3418 1.350 . S
C3421 C3420 1.434 . S
C3422 C3423 1.369 . S
C3422 C3424 1.419 . S
C3422 H3426 0.930 . S
C3423 C3422 1.369 . S
C3423 C3432 1.429 . S
C3424 C3422 1.419 . S
C3424 C3425 1.363 . S
C3424 H3427 0.929 . S
C3425 C3424 1.363 . S
C3425 C3431 1.428 . S
H3426 C3422 0.930 . S
H3427 C3424 0.929 . S
S3428 N3429 1.613 . S
S3428 N3430 1.610 . S
N3429 S3428 1.613 . S
N3429 C3432 1.350 . S
N3430 S3428 1.610 . S
N3430 C3431 1.351 . S
C3431 C3425 1.428 . S
C3431 N3430 1.351 . S
C3431 C3432 1.434 . S
C3432 C3423 1.429 . S
C3432 N3429 1.350 . S
C3432 C3431 1.434 . S
C3433 C3434 1.369 1_554 S
C3433 C3435 1.419 . S
C3433 H3437 0.930 . S
C3434 C3433 1.369 1_556 S
C3434 C3443 1.429 . S
C3435 C3433 1.419 . S
C3435 C3436 1.363 . S
C3435 H3438 0.929 . S
C3436 C3435 1.363 . S
C3436 C3442 1.428 1_554 S
H3437 C3433 0.930 . S
H3438 C3435 0.929 . S
S3439 N3440 1.613 1_565 S
S3439 N3441 1.610 1_565 S
N3440 S3439 1.613 1_545 S
N3440 C3443 1.350 . S
N3441 S3439 1.610 1_545 S
N3441 C3442 1.351 . S
C3442 C3436 1.428 1_556 S
C3442 N3441 1.351 . S
C3442 C3443 1.434 . S
C3443 C3434 1.429 . S
C3443 N3440 1.350 . S
C3443 C3442 1.434 . S
C3444 C3445 1.369 . S
C3444 C3446 1.419 . S
C3444 H3448 0.930 . S
C3445 C3444 1.369 . S
C3445 C3454 1.429 . S
C3446 C3444 1.419 . S
C3446 C3447 1.363 . S
C3446 H3449 0.929 . S
C3447 C3446 1.363 . S
C3447 C3453 1.428 . S
H3448 C3444 0.930 . S
H3449 C3446 0.929 . S
S3450 N3451 1.613 . S
S3450 N3452 1.610 . S
N3451 S3450 1.613 . S
N3451 C3454 1.350 . S
N3452 S3450 1.610 . S
N3452 C3453 1.351 . S
C3453 C3447 1.428 . S
C3453 N3452 1.351 . S
C3453 C3454 1.434 . S
C3454 C3445 1.429 . S
C3454 N3451 1.350 . S
C3454 C3453 1.434 . S
C3455 C3456 1.369 . S
C3455 C3457 1.419 . S
C3455 H3459 0.930 . S
C3456 C3455 1.369 . S
C3456 C3465 1.429 1_554 S
C3457 C3455 1.419 . S
C3457 C3458 1.363 1_554 S
C3457 H3460 0.929 . S
C3458 C3457 1.363 1_556 S
C3458 C3464 1.428 . S
H3459 C3455 0.930 . S
H3460 C3457 0.929 . S
S3461 N3462 1.613 . S
S3461 N3463 1.610 . S
N3462 S3461 1.613 . S
N3462 C3465 1.350 . S
N3463 S3461 1.610 . S
N3463 C3464 1.351 . S
C3464 C3458 1.428 . S
C3464 N3463 1.351 . S
C3464 C3465 1.434 . S
C3465 C3456 1.429 1_556 S
C3465 N3462 1.350 . S
C3465 C3464 1.434 . S
C3466 C3467 1.369 . S
C3466 C3468 1.419 . S
C3466 H3470 0.930 . S
C3467 C3466 1.369 . S
C3467 C3476 1.429 . S
C3468 C3466 1.419 . S
C3468 C3469 1.363 . S
C3468 H3471 0.929 . S
C3469 C3468 1.363 . S
C3469 C3475 1.428 . S
H3470 C3466 0.930 . S
H3471 C3468 0.929 . S
S3472 N3473 1.613 . S
S3472 N3474 1.610 . S
N3473 S3472 1.613 . S
N3473 C3476 1.350 . S
N3474 S3472 1.610 . S
N3474 C3475 1.351 . S
C3475 C3469 1.428 . S
C3475 N3474 1.351 . S
C3475 C3476 1.434 . S
C3476 C3467 1.429 . S
C3476 N3473 1.350 . S
C3476 C3475 1.434 . S
C3477 C3478 1.369 . S
C3477 C3479 1.419 . S
C3477 H3481 0.930 . S
C3478 C3477 1.369 . S
C3478 C3487 1.429 . S
C3479 C3477 1.419 . S
C3479 C3480 1.363 . S
C3479 H3482 0.929 . S
C3480 C3479 1.363 . S
C3480 C3486 1.428 . S
H3481 C3477 0.930 . S
H3482 C3479 0.929 . S
S3483 N3484 1.613 . S
S3483 N3485 1.610 . S
N3484 S3483 1.613 . S
N3484 C3487 1.350 . S
N3485 S3483 1.610 . S
N3485 C3486 1.351 . S
C3486 C3480 1.428 . S
C3486 N3485 1.351 . S
C3486 C3487 1.434 . S
C3487 C3478 1.429 . S
C3487 N3484 1.350 . S
C3487 C3486 1.434 . S
C2433 C665 1.558 . S
C2435 C2130 1.568 . S
C2444 C381 1.573 . S
C2446 C2141 1.568 . S
C2455 C460 1.036 . S
C2457 C2170 1.057 . S
C2468 C2173 1.422 . S
C2466 C585 1.446 . S
C2477 C108 1.584 . S
C2479 C2211 1.516 . S
C2490 C2214 1.070 . S
C2488 C196 1.037 . S
C2501 C2241 1.468 . S
C2499 C313 1.477 . S
C2510 C49 1.620 . S
C2512 C2270 1.581 . S
C2523 C2121 1.508 1_655 S
C2521 C1457 1.524 . S
C2532 C1545 0.937 . S
C2534 C2133 0.927 . S
C2545 C2161 1.575 . S
C2543 C1721 1.594 . S
C2556 C2190 1.360 . S
C2554 C1113 1.292 . S
C2565 C1428 1.132 . S
C2567 C2194 1.185 . S
C2578 C2220 1.618 . S
C2576 C1516 1.630 . S
C2589 C2233 0.828 . S
C2587 C1692 0.844 . S
C2600 C2261 1.622 . S
C2598 C1085 1.642 . S
C2611 C2113 1.481 1_565 S
C2609 C988 1.521 . S
C2620 C1817 1.710 . S
C2622 C2280 1.684 . S
C2633 C2311 1.467 . S
C2631 C2081 1.560 . S
C2644 C2330 1.034 . S
C2642 C1993 1.008 . S
C2653 C761 1.364 . S
C2655 C2253 1.337 . S
C2664 C821 1.472 . S
C2666 C2153 1.453 . S
C2675 C2053 1.616 . S
C2677 C2341 1.598 . S
C2688 C2370 0.893 . S
C2686 C1868 0.898 . S
C2699 C2131 1.560 . S
C2697 C372 1.558 . S
C2710 C2360 1.569 . S
C2708 C645 1.568 . S
C2719 C577 1.042 . S
C2721 C2171 1.054 . S
C2730 C497 1.443 . S
C2732 C2334 1.422 . S
C2743 C2210 1.515 . S
C2741 C57 1.580 . S
C2752 C293 1.043 . S
C2754 C2293 1.066 . S
C2765 C2240 1.463 1_556 S
C2763 C205 1.471 . S
C2776 C2391 1.583 . S
C2774 C145 1.620 . S
C2787 C2120 1.509 . S
C2785 C909 1.519 . S
C2798 C2354 0.919 . S
C2796 C1956 0.941 . S
C2807 C724 1.591 . S
C2809 C2160 1.572 . S
C2818 C1780 1.288 . S
C2820 C2351 1.355 . S
C2829 C937 1.139 . S
C2831 C2193 1.175 . S
C2842 C2301 1.615 . S
C2840 C1985 1.627 . S
C2851 C753 0.831 . S
C2853 C2234 0.839 . S
C2862 C1809 1.640 . S
C2864 C2380 1.617 . S
C2873 C1173 1.519 . S
C2875 C2114 1.479 . S
C2884 C1105 1.707 . S
C2886 C2281 1.680 . S
C2895 C1633 1.558 . S
C2897 C2230 1.468 . S
C2906 C1553 1.010 . S
C2908 C2331 1.029 . S
C2919 C2374 1.330 . S
C2917 C1729 1.368 . S
C2928 C1340 1.472 . S
C2930 C2154 1.451 . S
C2941 C2180 1.593 . S
C2939 C1604 1.613 . S
C2952 C2151 0.886 . S
C2950 C1252 0.894 . S
C2961 C489 1.559 . S
C2963 C2410 1.564 . S
C2974 C2361 1.568 . S
C2972 C557 1.574 . S
C2983 C636 1.036 . S
C2985 C2430 1.056 . S
C2994 C409 1.447 . S
C2996 C2333 1.421 . S
C3005 C284 1.583 . S
C3007 C2291 1.520 . S
C3018 C2294 1.070 . S
C3016 C20 1.043 . S
C3029 C2321 1.469 . S
C3027 C137 1.474 . S
C3040 C2390 1.582 . S
C3038 C225 1.620 . S
C3051 C2401 1.508 . S
C3049 C1641 1.524 . S
C3060 C1193 0.937 . S
C3062 C2353 0.928 . S
C3073 C2421 1.576 . S
C3071 C1289 1.594 . S
C3084 C2350 1.360 . S
C3082 C1377 1.292 . S
C3095 C2274 1.184 . S
C3093 C1613 1.135 . S
C3104 C1164 1.632 . S
C3106 C2300 1.614 . S
C3117 C2313 0.823 . S
C3115 C1261 0.848 . S
C3126 C1349 1.640 . S
C3128 C2381 1.623 . S
C3139 C2393 1.487 . S
C3137 C1965 1.515 . S
C3148 C849 1.708 . S
C3150 C2200 1.684 . S
C3161 C2231 1.467 . S
C3159 C929 1.565 . S
C3172 C2250 1.035 . S
C3170 C1017 1.015 . S
C3183 C2373 1.339 . S
C3181 C1897 1.363 . S
C3192 C1789 1.476 . S
C3194 C2413 1.449 . S
C3205 C2181 1.597 . S
C3203 C900 1.612 . S
C3216 C2150 0.888 . S
C3214 C733 0.896 . S
C3225 C548 1.555 . S
C3227 C2411 1.560 . S
C3238 C2140 1.569 . S
C3236 C469 1.568 . S
C3247 C401 1.036 . S
C3249 C2431 1.053 . S
C3258 C673 1.445 . S
C3260 C2174 1.419 . S
C3269 C233 1.580 . S
C3271 C2290 1.513 . S
C3282 C2213 1.065 . S
C3280 C117 1.043 . S
C3291 C29 1.474 . S
C3293 C2320 1.461 . S
C3302 C321 1.618 . S
C3304 C2271 1.578 . S
C3315 C2400 1.506 . S
C3313 C2044 1.520 . S
C3324 C997 0.942 . S
C3326 C2134 0.917 . S
C3337 C2420 1.575 1_655 S
C3335 C1877 1.586 . S
C3346 C812 1.291 . S
C3348 C2191 1.353 . S
C3357 C2073 1.132 . S
C3359 C2273 1.180 . S
C3370 C2221 1.616 . S
C3368 C1025 1.627 . S
C3379 C1905 0.832 . S
C3381 C2314 0.832 . S
C3392 C2260 1.617 . S
C3390 C841 1.639 . S
C3403 C2394 1.485 . S
C3401 C1525 1.516 . S
C3414 C2201 1.682 1_565 S
C3412 C1369 1.705 . S
C3423 C1465 1.560 . S
C3425 C2310 1.466 . S
C3436 C2251 1.029 . S
C3434 C1201 1.010 . S
C3445 C1281 1.364 . S
C3447 C2254 1.337 . S
C3456 C1076 1.473 . S
C3458 C2414 1.451 . S
C3469 C2340 1.591 . S
C3467 C1437 1.616 . S
C3480 C2371 0.890 . S
C3478 C1701 0.892 . S
