# Generated by pormake.
# Topology gar, (4,6)-cn, num edge types: 1
# Building blocks:
#     Node 0, Type 0, BuildingBlock: QUQFOY_clean_sbu_1, # of connection points: 4
#     Node 1, Type 0, BuildingBlock: QUQFOY_clean_sbu_1, # of connection points: 4
#     Node 2, Type 0, BuildingBlock: QUQFOY_clean_sbu_1, # of connection points: 4
#     Node 3, Type 0, BuildingBlock: QUQFOY_clean_sbu_1, # of connection points: 4
#     Node 4, Type 0, BuildingBlock: QUQFOY_clean_sbu_1, # of connection points: 4
#     Node 5, Type 0, BuildingBlock: QUQFOY_clean_sbu_1, # of connection points: 4
#     Node 6, Type 0, BuildingBlock: QUQFOY_clean_sbu_1, # of connection points: 4
#     Node 7, Type 0, BuildingBlock: QUQFOY_clean_sbu_1, # of connection points: 4
#     Node 8, Type 0, BuildingBlock: QUQFOY_clean_sbu_1, # of connection points: 4
#     Node 9, Type 0, BuildingBlock: QUQFOY_clean_sbu_1, # of connection points: 4
#     Node 10, Type 0, BuildingBlock: QUQFOY_clean_sbu_1, # of connection points: 4
#     Node 11, Type 0, BuildingBlock: QUQFOY_clean_sbu_1, # of connection points: 4
#     Node 12, Type 0, BuildingBlock: QUQFOY_clean_sbu_1, # of connection points: 4
#     Node 13, Type 0, BuildingBlock: QUQFOY_clean_sbu_1, # of connection points: 4
#     Node 14, Type 0, BuildingBlock: QUQFOY_clean_sbu_1, # of connection points: 4
#     Node 15, Type 0, BuildingBlock: QUQFOY_clean_sbu_1, # of connection points: 4
#     Node 16, Type 0, BuildingBlock: QUQFOY_clean_sbu_1, # of connection points: 4
#     Node 17, Type 0, BuildingBlock: QUQFOY_clean_sbu_1, # of connection points: 4
#     Node 18, Type 0, BuildingBlock: QUQFOY_clean_sbu_1, # of connection points: 4
#     Node 19, Type 0, BuildingBlock: QUQFOY_clean_sbu_1, # of connection points: 4
#     Node 20, Type 0, BuildingBlock: QUQFOY_clean_sbu_1, # of connection points: 4
#     Node 21, Type 0, BuildingBlock: QUQFOY_clean_sbu_1, # of connection points: 4
#     Node 22, Type 0, BuildingBlock: QUQFOY_clean_sbu_1, # of connection points: 4
#     Node 23, Type 0, BuildingBlock: QUQFOY_clean_sbu_1, # of connection points: 4
#     Node 24, Type 1, BuildingBlock: KUMBOL_clean_sbu_0, # of connection points: 6
#     Node 25, Type 1, BuildingBlock: KUMBOL_clean_sbu_0, # of connection points: 6
#     Node 26, Type 1, BuildingBlock: KUMBOL_clean_sbu_0, # of connection points: 6
#     Node 27, Type 1, BuildingBlock: KUMBOL_clean_sbu_0, # of connection points: 6
#     Node 28, Type 1, BuildingBlock: KUMBOL_clean_sbu_0, # of connection points: 6
#     Node 29, Type 1, BuildingBlock: KUMBOL_clean_sbu_0, # of connection points: 6
#     Node 30, Type 1, BuildingBlock: KUMBOL_clean_sbu_0, # of connection points: 6
#     Node 31, Type 1, BuildingBlock: KUMBOL_clean_sbu_0, # of connection points: 6
#     Node 32, Type 1, BuildingBlock: KUMBOL_clean_sbu_0, # of connection points: 6
#     Node 33, Type 1, BuildingBlock: KUMBOL_clean_sbu_0, # of connection points: 6
#     Node 34, Type 1, BuildingBlock: KUMBOL_clean_sbu_0, # of connection points: 6
#     Node 35, Type 1, BuildingBlock: KUMBOL_clean_sbu_0, # of connection points: 6
#     Node 36, Type 1, BuildingBlock: KUMBOL_clean_sbu_0, # of connection points: 6
#     Node 37, Type 1, BuildingBlock: KUMBOL_clean_sbu_0, # of connection points: 6
#     Node 38, Type 1, BuildingBlock: KUMBOL_clean_sbu_0, # of connection points: 6
#     Node 39, Type 1, BuildingBlock: KUMBOL_clean_sbu_0, # of connection points: 6
#     Edge 40, Type (0, 1), BuildingBlock: MIFKUJ_clean_linker_0, # of connection points: 2
#     Edge 41, Type (0, 1), BuildingBlock: MIFKUJ_clean_linker_0, # of connection points: 2
#     Edge 42, Type (0, 1), BuildingBlock: MIFKUJ_clean_linker_0, # of connection points: 2
#     Edge 43, Type (0, 1), BuildingBlock: MIFKUJ_clean_linker_0, # of connection points: 2
#     Edge 44, Type (0, 1), BuildingBlock: MIFKUJ_clean_linker_0, # of connection points: 2
#     Edge 45, Type (0, 1), BuildingBlock: MIFKUJ_clean_linker_0, # of connection points: 2
#     Edge 46, Type (0, 1), BuildingBlock: MIFKUJ_clean_linker_0, # of connection points: 2
#     Edge 47, Type (0, 1), BuildingBlock: MIFKUJ_clean_linker_0, # of connection points: 2
#     Edge 48, Type (0, 1), BuildingBlock: MIFKUJ_clean_linker_0, # of connection points: 2
#     Edge 49, Type (0, 1), BuildingBlock: MIFKUJ_clean_linker_0, # of connection points: 2
#     Edge 50, Type (0, 1), BuildingBlock: MIFKUJ_clean_linker_0, # of connection points: 2
#     Edge 51, Type (0, 1), BuildingBlock: MIFKUJ_clean_linker_0, # of connection points: 2
#     Edge 52, Type (0, 1), BuildingBlock: MIFKUJ_clean_linker_0, # of connection points: 2
#     Edge 53, Type (0, 1), BuildingBlock: MIFKUJ_clean_linker_0, # of connection points: 2
#     Edge 54, Type (0, 1), BuildingBlock: MIFKUJ_clean_linker_0, # of connection points: 2
#     Edge 55, Type (0, 1), BuildingBlock: MIFKUJ_clean_linker_0, # of connection points: 2
#     Edge 56, Type (0, 1), BuildingBlock: MIFKUJ_clean_linker_0, # of connection points: 2
#     Edge 57, Type (0, 1), BuildingBlock: MIFKUJ_clean_linker_0, # of connection points: 2
#     Edge 58, Type (0, 1), BuildingBlock: MIFKUJ_clean_linker_0, # of connection points: 2
#     Edge 59, Type (0, 1), BuildingBlock: MIFKUJ_clean_linker_0, # of connection points: 2
#     Edge 60, Type (0, 1), BuildingBlock: MIFKUJ_clean_linker_0, # of connection points: 2
#     Edge 61, Type (0, 1), BuildingBlock: MIFKUJ_clean_linker_0, # of connection points: 2
#     Edge 62, Type (0, 1), BuildingBlock: MIFKUJ_clean_linker_0, # of connection points: 2
#     Edge 63, Type (0, 1), BuildingBlock: MIFKUJ_clean_linker_0, # of connection points: 2
#     Edge 64, Type (0, 1), BuildingBlock: MIFKUJ_clean_linker_0, # of connection points: 2
#     Edge 65, Type (0, 1), BuildingBlock: MIFKUJ_clean_linker_0, # of connection points: 2
#     Edge 66, Type (0, 1), BuildingBlock: MIFKUJ_clean_linker_0, # of connection points: 2
#     Edge 67, Type (0, 1), BuildingBlock: MIFKUJ_clean_linker_0, # of connection points: 2
#     Edge 68, Type (0, 1), BuildingBlock: MIFKUJ_clean_linker_0, # of connection points: 2
#     Edge 69, Type (0, 1), BuildingBlock: MIFKUJ_clean_linker_0, # of connection points: 2
#     Edge 70, Type (0, 1), BuildingBlock: MIFKUJ_clean_linker_0, # of connection points: 2
#     Edge 71, Type (0, 1), BuildingBlock: MIFKUJ_clean_linker_0, # of connection points: 2
#     Edge 72, Type (0, 1), BuildingBlock: MIFKUJ_clean_linker_0, # of connection points: 2
#     Edge 73, Type (0, 1), BuildingBlock: MIFKUJ_clean_linker_0, # of connection points: 2
#     Edge 74, Type (0, 1), BuildingBlock: MIFKUJ_clean_linker_0, # of connection points: 2
#     Edge 75, Type (0, 1), BuildingBlock: MIFKUJ_clean_linker_0, # of connection points: 2
#     Edge 76, Type (0, 1), BuildingBlock: MIFKUJ_clean_linker_0, # of connection points: 2
#     Edge 77, Type (0, 1), BuildingBlock: MIFKUJ_clean_linker_0, # of connection points: 2
#     Edge 78, Type (0, 1), BuildingBlock: MIFKUJ_clean_linker_0, # of connection points: 2
#     Edge 79, Type (0, 1), BuildingBlock: MIFKUJ_clean_linker_0, # of connection points: 2
#     Edge 80, Type (0, 1), BuildingBlock: MIFKUJ_clean_linker_0, # of connection points: 2
#     Edge 81, Type (0, 1), BuildingBlock: MIFKUJ_clean_linker_0, # of connection points: 2
#     Edge 82, Type (0, 1), BuildingBlock: MIFKUJ_clean_linker_0, # of connection points: 2
#     Edge 83, Type (0, 1), BuildingBlock: MIFKUJ_clean_linker_0, # of connection points: 2
#     Edge 84, Type (0, 1), BuildingBlock: MIFKUJ_clean_linker_0, # of connection points: 2
#     Edge 85, Type (0, 1), BuildingBlock: MIFKUJ_clean_linker_0, # of connection points: 2
#     Edge 86, Type (0, 1), BuildingBlock: MIFKUJ_clean_linker_0, # of connection points: 2
#     Edge 87, Type (0, 1), BuildingBlock: MIFKUJ_clean_linker_0, # of connection points: 2
#     Edge 88, Type (0, 1), BuildingBlock: MIFKUJ_clean_linker_0, # of connection points: 2
#     Edge 89, Type (0, 1), BuildingBlock: MIFKUJ_clean_linker_0, # of connection points: 2
#     Edge 90, Type (0, 1), BuildingBlock: MIFKUJ_clean_linker_0, # of connection points: 2
#     Edge 91, Type (0, 1), BuildingBlock: MIFKUJ_clean_linker_0, # of connection points: 2
#     Edge 92, Type (0, 1), BuildingBlock: MIFKUJ_clean_linker_0, # of connection points: 2
#     Edge 93, Type (0, 1), BuildingBlock: MIFKUJ_clean_linker_0, # of connection points: 2
#     Edge 94, Type (0, 1), BuildingBlock: MIFKUJ_clean_linker_0, # of connection points: 2
#     Edge 95, Type (0, 1), BuildingBlock: MIFKUJ_clean_linker_0, # of connection points: 2
#     Edge 96, Type (0, 1), BuildingBlock: MIFKUJ_clean_linker_0, # of connection points: 2
#     Edge 97, Type (0, 1), BuildingBlock: MIFKUJ_clean_linker_0, # of connection points: 2
#     Edge 98, Type (0, 1), BuildingBlock: MIFKUJ_clean_linker_0, # of connection points: 2
#     Edge 99, Type (0, 1), BuildingBlock: MIFKUJ_clean_linker_0, # of connection points: 2
#     Edge 100, Type (0, 1), BuildingBlock: MIFKUJ_clean_linker_0, # of connection points: 2
#     Edge 101, Type (0, 1), BuildingBlock: MIFKUJ_clean_linker_0, # of connection points: 2
#     Edge 102, Type (0, 1), BuildingBlock: MIFKUJ_clean_linker_0, # of connection points: 2
#     Edge 103, Type (0, 1), BuildingBlock: MIFKUJ_clean_linker_0, # of connection points: 2
#     Edge 104, Type (0, 1), BuildingBlock: MIFKUJ_clean_linker_0, # of connection points: 2
#     Edge 105, Type (0, 1), BuildingBlock: MIFKUJ_clean_linker_0, # of connection points: 2
#     Edge 106, Type (0, 1), BuildingBlock: MIFKUJ_clean_linker_0, # of connection points: 2
#     Edge 107, Type (0, 1), BuildingBlock: MIFKUJ_clean_linker_0, # of connection points: 2
#     Edge 108, Type (0, 1), BuildingBlock: MIFKUJ_clean_linker_0, # of connection points: 2
#     Edge 109, Type (0, 1), BuildingBlock: MIFKUJ_clean_linker_0, # of connection points: 2
#     Edge 110, Type (0, 1), BuildingBlock: MIFKUJ_clean_linker_0, # of connection points: 2
#     Edge 111, Type (0, 1), BuildingBlock: MIFKUJ_clean_linker_0, # of connection points: 2
#     Edge 112, Type (0, 1), BuildingBlock: MIFKUJ_clean_linker_0, # of connection points: 2
#     Edge 113, Type (0, 1), BuildingBlock: MIFKUJ_clean_linker_0, # of connection points: 2
#     Edge 114, Type (0, 1), BuildingBlock: MIFKUJ_clean_linker_0, # of connection points: 2
#     Edge 115, Type (0, 1), BuildingBlock: MIFKUJ_clean_linker_0, # of connection points: 2
#     Edge 116, Type (0, 1), BuildingBlock: MIFKUJ_clean_linker_0, # of connection points: 2
#     Edge 117, Type (0, 1), BuildingBlock: MIFKUJ_clean_linker_0, # of connection points: 2
#     Edge 118, Type (0, 1), BuildingBlock: MIFKUJ_clean_linker_0, # of connection points: 2
#     Edge 119, Type (0, 1), BuildingBlock: MIFKUJ_clean_linker_0, # of connection points: 2
#     Edge 120, Type (0, 1), BuildingBlock: MIFKUJ_clean_linker_0, # of connection points: 2
#     Edge 121, Type (0, 1), BuildingBlock: MIFKUJ_clean_linker_0, # of connection points: 2
#     Edge 122, Type (0, 1), BuildingBlock: MIFKUJ_clean_linker_0, # of connection points: 2
#     Edge 123, Type (0, 1), BuildingBlock: MIFKUJ_clean_linker_0, # of connection points: 2
#     Edge 124, Type (0, 1), BuildingBlock: MIFKUJ_clean_linker_0, # of connection points: 2
#     Edge 125, Type (0, 1), BuildingBlock: MIFKUJ_clean_linker_0, # of connection points: 2
#     Edge 126, Type (0, 1), BuildingBlock: MIFKUJ_clean_linker_0, # of connection points: 2
#     Edge 127, Type (0, 1), BuildingBlock: MIFKUJ_clean_linker_0, # of connection points: 2
#     Edge 128, Type (0, 1), BuildingBlock: MIFKUJ_clean_linker_0, # of connection points: 2
#     Edge 129, Type (0, 1), BuildingBlock: MIFKUJ_clean_linker_0, # of connection points: 2
#     Edge 130, Type (0, 1), BuildingBlock: MIFKUJ_clean_linker_0, # of connection points: 2
#     Edge 131, Type (0, 1), BuildingBlock: MIFKUJ_clean_linker_0, # of connection points: 2
#     Edge 132, Type (0, 1), BuildingBlock: MIFKUJ_clean_linker_0, # of connection points: 2
#     Edge 133, Type (0, 1), BuildingBlock: MIFKUJ_clean_linker_0, # of connection points: 2
#     Edge 134, Type (0, 1), BuildingBlock: MIFKUJ_clean_linker_0, # of connection points: 2
#     Edge 135, Type (0, 1), BuildingBlock: MIFKUJ_clean_linker_0, # of connection points: 2
# Relax obj value: 0.126
# Max RMSD: 0.317
# Mean RMSD: 0.177
data_MOF--net-gar--node1-QUQFOY_clean_sbu_1--node2-KUMBOL_clean_sbu_0--edge1-MIFKUJ_clean_linker_0
_symmetry_space_group_name_H-M    P1
_symmetry_Int_Tables_number       1
_symmetry_cell_setting            triclinic
loop_
_symmetry_equiv_pos_as_xyz
'x, y, z'
_cell_length_a     78.226222
_cell_length_b     73.140005
_cell_length_c     73.112808
_cell_angle_alpha  100.21823
_cell_angle_beta   93.372808
_cell_angle_gamma 104.14842
loop_
_atom_site_label
_atom_site_type_symbol
_atom_site_fract_x
_atom_site_fract_y
_atom_site_fract_z
_atom_type_partial_charge
O0 O 0.10564 0.2935 0.39696 0.0
Cd1 Cd 0.10708 0.31507 0.38235 0.0
Cd2 Cd 0.10176 0.3352 0.41288 0.0
O3 O 0.10578 0.31271 0.42381 0.0
O4 O 0.11906 0.30892 0.36007 0.0
O5 O 0.13062 0.33381 0.38339 0.0
C6 C 0.13186 0.32373 0.36738 0.0
C7 C 0.11634 0.36606 0.42738 0.0
C8 C 0.10593 0.29636 0.4146 0.0
C9 C 0.07308 0.32602 0.38219 0.0
O10 O 0.07722 0.33234 0.39959 0.0
O11 O 0.08381 0.31943 0.37229 0.0
O12 O 0.10424 0.35561 0.43508 0.0
O13 O 0.12064 0.35876 0.41148 0.0
O14 O 0.00848 0.74548 0.66897 0.0
Cd15 Cd 0.01276 0.77372 0.68132 0.0
Cd16 Cd 0.01594 0.77781 0.64872 0.0
O17 O 0.9989 0.75099 0.64222 0.0
O18 O 0.99918 0.77531 0.70305 0.0
O19 O 0.99318 0.78568 0.67715 0.0
C20 C 0.98904 0.78245 0.69334 0.0
C21 C 0.01222 0.80102 0.63272 0.0
C22 C 1.00074 0.73925 0.65252 0.0
C23 C 0.04862 0.78633 0.67475 0.0
O24 O 0.04183 0.77987 0.65793 0.0
O25 O 0.03864 0.78863 0.68756 0.0
O26 O 0.01723 0.78633 0.62471 0.0
O27 O 0.00878 0.80227 0.64987 0.0
O28 O 0.633 0.82057 0.88968 0.0
Cd29 Cd 0.61406 0.81858 0.90743 0.0
Cd30 Cd 0.59671 0.82809 0.88134 0.0
O31 O 0.6144 0.81885 0.86532 0.0
O32 O 0.6216 0.80498 0.92583 0.0
O33 O 0.5964 0.79381 0.90697 0.0
C34 C 0.60706 0.79179 0.92022 0.0
C35 C 0.56762 0.82037 0.86877 0.0
C36 C 0.62965 0.81905 0.87226 0.0
C37 C 0.60983 0.85711 0.91588 0.0
O38 O 0.60521 0.8546 0.89852 0.0
O39 O 0.61208 0.84328 0.92306 0.0
O40 O 0.57986 0.83191 0.86229 0.0
O41 O 0.57188 0.81273 0.88242 0.0
O42 O 0.50769 0.23579 0.16442 0.0
Cd43 Cd 0.51296 0.2631 0.17994 0.0
Cd44 Cd 0.51921 0.27004 0.14907 0.0
O45 O 0.5013 0.2446 0.13834 0.0
O46 O 0.49819 0.26047 0.2003 0.0
O47 O 0.49452 0.27718 0.17825 0.0
C48 C 0.48903 0.27002 0.19246 0.0
C49 C 0.52126 0.29534 0.13432 0.0
C50 C 0.50117 0.23139 0.14744 0.0
C51 C 0.54921 0.27349 0.17761 0.0
O52 O 0.54334 0.26877 0.16045 0.0
O53 O 0.53874 0.27585 0.18985 0.0
O54 O 0.52662 0.28061 0.12718 0.0
O55 O 0.51379 0.29532 0.14961 0.0
O56 O 0.08099 0.78761 0.11774 0.0
Cd57 Cd 0.08351 0.81396 0.1348 0.0
Cd58 Cd 0.09928 0.82628 0.10479 0.0
O59 O 0.08972 0.79662 0.09182 0.0
O60 O 0.06834 0.8071 0.15507 0.0
O61 O 0.06227 0.82547 0.13611 0.0
C62 C 0.05788 0.81667 0.14963 0.0
C63 C 0.09219 0.85285 0.09352 0.0
C64 C 0.08386 0.78325 0.10079 0.0
C65 C 0.12308 0.83095 0.14092 0.0
O66 O 0.12226 0.83176 0.12358 0.0
O67 O 0.10886 0.82604 0.14855 0.0
O68 O 0.1031 0.84396 0.08578 0.0
O69 O 0.08483 0.84639 0.1073 0.0
O70 O 0.55759 0.77451 0.42024 0.0
Cd71 Cd 0.54158 0.77389 0.44189 0.0
Cd72 Cd 0.52009 0.78823 0.41015 0.0
O73 O 0.54266 0.78326 0.39782 0.0
O74 O 0.55324 0.76221 0.46101 0.0
O75 O 0.52754 0.74711 0.44487 0.0
C76 C 0.54028 0.7469 0.45684 0.0
C77 C 0.4925 0.78414 0.39181 0.0
C78 C 0.55624 0.77843 0.40399 0.0
C79 C 0.53274 0.81365 0.4498 0.0
O80 O 0.52508 0.8105 0.43326 0.0
O81 O 0.53945 0.80119 0.45574 0.0
O82 O 0.50641 0.79732 0.39049 0.0
O83 O 0.49418 0.77269 0.40295 0.0
O84 O 0.5902 0.28608 0.62008 0.0
Cd85 Cd 0.59276 0.3121 0.63793 0.0
Cd86 Cd 0.60827 0.32527 0.60814 0.0
O87 O 0.59821 0.29607 0.59432 0.0
O88 O 0.577 0.30533 0.65787 0.0
O89 O 0.57153 0.32368 0.63859 0.0
C90 C 0.56674 0.31491 0.65203 0.0
C91 C 0.60086 0.35211 0.59754 0.0
C92 C 0.59258 0.28231 0.60289 0.0
C93 C 0.63234 0.32853 0.64402 0.0
O94 O 0.63133 0.32954 0.62671 0.0
O95 O 0.61821 0.324 0.6519 0.0
O96 O 0.61215 0.34377 0.58982 0.0
O97 O 0.59353 0.34512 0.61108 0.0
O98 O 0.03107 0.24287 0.92638 0.0
Cd99 Cd 0.0316 0.26307 0.90915 0.0
Cd100 Cd 0.01666 0.28013 0.94277 0.0
O101 O 0.02214 0.25626 0.95246 0.0
O102 O 0.04504 0.25465 0.88783 0.0
O103 O 0.05581 0.28133 0.9088 0.0
C104 C 0.05798 0.26961 0.89421 0.0
C105 C 0.02459 0.3121 0.96053 0.0
C106 C 0.02762 0.24264 0.9432 0.0
C107 C 0.99495 0.2716 0.9044 0.0
O108 O 0.99567 0.27575 0.92215 0.0
O109 O 0.008 0.26709 0.89668 0.0
O110 O 0.01131 0.29917 0.96388 0.0
O111 O 0.03417 0.30661 0.9479 0.0
O112 O 0.42725 0.06419 0.27363 0.0
Cd113 Cd 0.41549 0.06582 0.29822 0.0
Cd114 Cd 0.44252 0.05825 0.3092 0.0
O115 O 0.45375 0.07 0.2885 0.0
O116 O 0.39574 0.07684 0.29387 0.0
O117 O 0.41924 0.09158 0.31467 0.0
C118 C 0.40406 0.0914 0.30657 0.0
C119 C 0.45584 0.06582 0.33891 0.0
C120 C 0.44398 0.06829 0.27356 0.0
C121 C 0.41055 0.02757 0.3046 0.0
O122 O 0.42685 0.03082 0.30236 0.0
O123 O 0.40318 0.04124 0.30644 0.0
O124 O 0.46169 0.05552 0.32578 0.0
O125 O 0.44293 0.07306 0.3348 0.0
O126 O 0.31492 0.20064 0.5413 0.0
Cd127 Cd 0.31368 0.18072 0.51735 0.0
Cd128 Cd 0.29977 0.2075 0.50241 0.0
O129 O 0.30666 0.22352 0.5298 0.0
O130 O 0.32573 0.16225 0.5261 0.0
O131 O 0.33611 0.17917 0.50514 0.0
C132 C 0.33772 0.16674 0.51519 0.0
C133 C 0.30563 0.22046 0.47549 0.0
C134 C 0.3117 0.21706 0.54372 0.0
C135 C 0.27542 0.1681 0.50161 0.0
O136 O 0.27709 0.18493 0.49841 0.0
O137 O 0.28859 0.16325 0.50837 0.0
O138 O 0.29369 0.2245 0.48576 0.0
O139 O 0.31512 0.20992 0.48112 0.0
O140 O 0.17244 0.01013 0.73465 0.0
Cd141 Cd 0.19431 0.01022 0.75444 0.0
Cd142 Cd 0.1653 0.03088 0.77973 0.0
O143 O 0.15321 0.02313 0.75082 0.0
O144 O 0.21099 0.99365 0.74187 0.0
O145 O 0.19809 0.98663 0.7661 0.0
C146 C 0.20851 0.98244 0.75384 0.0
C147 C 0.14951 0.0305 0.80876 0.0
C148 C 0.15824 0.01625 0.73506 0.0
C149 C 0.2043 0.05457 0.77429 0.0
O150 O 0.18931 0.05255 0.78109 0.0
O151 O 0.2086 0.04 0.7648 0.0
O152 O 0.14979 0.04325 0.79853 0.0
O153 O 0.15748 0.01751 0.80247 0.0
O154 O 0.31048 0.9384 0.0472 0.0
Cd155 Cd 0.31119 0.95186 0.02485 0.0
Cd156 Cd 0.31703 0.92071 0.00966 0.0
O157 O 0.30478 0.90929 0.03019 0.0
O158 O 0.30181 0.97382 0.03381 0.0
O159 O 0.28859 0.9504 0.00983 0.0
C160 C 0.28879 0.96634 0.02091 0.0
C161 C 0.31278 0.90429 0.97958 0.0
C162 C 0.30596 0.92031 0.0459 0.0
C163 C 0.34687 0.95507 0.0161 0.0
O164 O 0.34254 0.93715 0.01567 0.0
O165 O 0.33522 0.9644 0.01743 0.0
O166 O 0.32101 0.89882 0.99253 0.0
O167 O 0.30549 0.91829 0.98411 0.0
O168 O 0.308 0.3967 0.06601 0.0
Cd169 Cd 0.31145 0.41421 0.04649 0.0
Cd170 Cd 0.32154 0.38208 0.02725 0.0
O171 O 0.31122 0.36981 0.04907 0.0
O172 O 0.29995 0.43507 0.05648 0.0
O173 O 0.28963 0.41418 0.03011 0.0
C174 C 0.28797 0.42853 0.04239 0.0
C175 C 0.31463 0.3662 0.99584 0.0
C176 C 0.30762 0.37898 0.06422 0.0
C177 C 0.34963 0.41993 0.0384 0.0
O178 O 0.3461 0.40175 0.03312 0.0
O179 O 0.33736 0.42804 0.04284 0.0
O180 O 0.32442 0.36061 0.00736 0.0
O181 O 0.30802 0.3803 1.00234 0.0
O182 O 0.80077 0.15969 0.0551 0.0
Cd183 Cd 0.79907 0.13926 0.03172 0.0
Cd184 Cd 0.79428 0.16492 0.01542 0.0
O185 O 0.80602 0.18307 0.03934 0.0
O186 O 0.81356 0.12218 0.03669 0.0
O187 O 0.81947 0.14243 0.01692 0.0
C188 C 0.82371 0.12967 0.02517 0.0
C189 C 0.79766 0.17626 0.98827 0.0
C190 C 0.80488 0.17747 0.05473 0.0
C191 C 0.76332 0.13261 0.0173 0.0
O192 O 0.76873 0.15008 0.0161 0.0
O193 O 0.77432 0.12334 0.02104 0.0
O194 O 0.78909 0.18328 1.00097 0.0
O195 O 0.80531 0.16318 0.99137 0.0
O196 O 0.20034 0.54176 0.2195 0.0
Cd197 Cd 0.21899 0.5444 0.24101 0.0
Cd198 Cd 0.19358 0.54594 0.26166 0.0
O199 O 0.1799 0.53065 0.23693 0.0
O200 O 0.2345 0.52755 0.23477 0.0
O201 O 0.21386 0.5234 0.25469 0.0
C202 C 0.22594 0.51752 0.24583 0.0
C203 C 0.17874 0.54106 0.28722 0.0
C204 C 0.18445 0.53334 0.2211 0.0
C205 C 0.22291 0.58131 0.26305 0.0
O206 O 0.20672 0.57427 0.26469 0.0
O207 O 0.23204 0.57076 0.25517 0.0
O208 O 0.17317 0.54921 0.27476 0.0
O209 O 0.19281 0.53504 0.285 0.0
O210 O 0.81295 0.89909 0.57188 0.0
Cd211 Cd 0.81492 0.91606 0.55213 0.0
Cd212 Cd 0.82448 0.88496 0.53246 0.0
O213 O 0.81581 0.87224 0.55462 0.0
O214 O 0.80207 0.93535 0.56227 0.0
O215 O 0.7932 0.91498 0.53525 0.0
C216 C 0.79058 0.92859 0.54777 0.0
C217 C 0.81688 0.86804 0.50151 0.0
C218 C 0.81285 0.88148 0.57004 0.0
C219 C 0.85212 0.92362 0.54269 0.0
O220 O 0.84864 0.90553 0.53679 0.0
O221 O 0.84002 0.93132 0.5485 0.0
O222 O 0.82837 0.86425 0.51263 0.0
O223 O 0.809 0.88096 0.50823 0.0
O224 O 0.94309 0.07447 0.23918 0.0
Cd225 Cd 0.92196 0.07568 0.25717 0.0
Cd226 Cd 0.95583 0.06071 0.28096 0.0
O227 O 0.96579 0.06798 0.25503 0.0
O228 O 0.90256 0.08776 0.24598 0.0
O229 O 0.91951 0.1028 0.27144 0.0
C230 C 0.90691 0.10288 0.2592 0.0
C231 C 0.97286 0.0629 0.31158 0.0
C232 C 0.9588 0.0717 0.24004 0.0
C233 C 0.91583 0.03459 0.26955 0.0
O234 O 0.93222 0.03841 0.27584 0.0
O235 O 0.9095 0.04731 0.2632 0.0
O236 O 0.97422 0.05122 0.2966 0.0
O237 O 0.96287 0.07418 0.30924 0.0
O238 O 0.29996 0.65275 0.54506 0.0
Cd239 Cd 0.29784 0.63419 0.52022 0.0
Cd240 Cd 0.2973 0.66384 0.50853 0.0
O241 O 0.3129 0.67721 0.53294 0.0
O242 O 0.31005 0.61463 0.52426 0.0
O243 O 0.31929 0.63658 0.50689 0.0
C244 C 0.32187 0.62263 0.51446 0.0
C245 C 0.30252 0.67644 0.48211 0.0
C246 C 0.30847 0.67023 0.54715 0.0
C247 C 0.26335 0.63457 0.50946 0.0
O248 O 0.27105 0.65234 0.51136 0.0
O249 O 0.27249 0.62238 0.50838 0.0
O250 O 0.29699 0.68566 0.49622 0.0
O251 O 0.30547 0.66 0.48303 0.0
O252 O 0.44459 0.57764 0.7429 0.0
Cd253 Cd 0.42241 0.57859 0.75944 0.0
Cd254 Cd 0.45694 0.56264 0.78461 0.0
O255 O 0.46689 0.57043 0.75884 0.0
O256 O 0.40302 0.58986 0.74671 0.0
O257 O 0.41894 0.60585 0.77245 0.0
C258 C 0.40671 0.60532 0.75952 0.0
C259 C 0.47412 0.56279 0.81475 0.0
C260 C 0.46021 0.57457 0.7439 0.0
C261 C 0.41645 0.53736 0.77202 0.0
O262 O 0.43272 0.54126 0.7788 0.0
O263 O 0.41021 0.54999 0.76533 0.0
O264 O 0.47479 0.55143 0.79928 0.0
O265 O 0.46471 0.57483 0.81321 0.0
O266 O 0.69782 0.04577 0.72069 0.0
Cd267 Cd 0.71407 0.04788 0.74425 0.0
Cd268 Cd 0.68623 0.04712 0.75936 0.0
O269 O 0.67604 0.03024 0.73406 0.0
O270 O 0.73284 0.03514 0.73824 0.0
O271 O 0.70994 0.02404 0.75376 0.0
C272 C 0.72404 0.02189 0.74619 0.0
C273 C 0.67371 0.03915 0.78527 0.0
C274 C 0.68231 0.03483 0.71947 0.0
C275 C 0.71273 0.08363 0.76569 0.0
O276 O 0.6962 0.07626 0.76184 0.0
O277 O 0.72342 0.0733 0.76233 0.0
O278 O 0.66527 0.04526 0.773 0.0
O279 O 0.68924 0.0368 0.78245 0.0
O280 O 0.81197 0.70107 0.04591 0.0
Cd281 Cd 0.81154 0.68293 0.02075 0.0
Cd282 Cd 0.80006 0.71165 0.00867 0.0
O283 O 0.80867 0.7269 0.0359 0.0
O284 O 0.82286 0.66318 0.02789 0.0
O285 O 0.83478 0.68289 0.00974 0.0
C286 C 0.83564 0.66913 0.01834 0.0
C287 C 0.80658 0.72455 0.98183 0.0
C288 C 0.81132 0.71854 0.04928 0.0
C289 C 0.7736 0.67308 1.00557 0.0
O290 O 0.77611 0.69095 0.00569 0.0
O291 O 0.78664 0.66631 0.00915 0.0
O292 O 0.79559 0.72995 0.99271 0.0
O293 O 0.81469 0.71245 0.9867 0.0
O294 O 0.92027 0.56364 0.78229 0.0
Cd295 Cd 0.91125 0.56566 0.80815 0.0
Cd296 Cd 0.94141 0.56513 0.81701 0.0
O297 O 0.94725 0.57826 0.79517 0.0
O298 O 0.8896 0.57426 0.80644 0.0
O299 O 0.91476 0.59176 0.82343 0.0
C300 C 0.89849 0.59001 0.81737 0.0
C301 C 0.95465 0.57824 0.8464 0.0
C302 C 0.93616 0.57211 0.78074 0.0
C303 C 0.91429 0.52975 0.81464 0.0
O304 O 0.93003 0.53604 0.81091 0.0
O305 O 0.90466 0.54124 0.81831 0.0
O306 O 0.96321 0.57068 0.83386 0.0
O307 O 0.93855 0.57871 0.84206 0.0
O308 O 0.81565 0.43897 0.5561 0.0
Cd309 Cd 0.81727 0.45257 0.534 0.0
Cd310 Cd 0.82369 0.42213 0.51901 0.0
O311 O 0.80929 0.41033 0.53813 0.0
O312 O 0.80284 0.47086 0.53835 0.0
O313 O 0.79644 0.44518 0.51495 0.0
C314 C 0.79239 0.46006 0.52414 0.0
C315 C 0.82131 0.40468 0.48924 0.0
C316 C 0.81041 0.42085 0.5541 0.0
C317 C 0.85348 0.45729 0.52976 0.0
O318 O 0.84874 0.43915 0.52799 0.0
O319 O 0.8419 0.46669 0.52959 0.0
O320 O 0.82892 0.39997 0.50314 0.0
O321 O 0.81431 0.41904 0.49245 0.0
O322 O 0.67375 0.50906 0.2384 0.0
Cd323 Cd 0.69503 0.50937 0.25922 0.0
Cd324 Cd 0.6646 0.52851 0.28293 0.0
O325 O 0.6529 0.51996 0.25371 0.0
O326 O 0.71346 0.49404 0.24876 0.0
O327 O 0.69736 0.48492 0.27028 0.0
C328 C 0.70947 0.48189 0.25969 0.0
C329 C 0.64925 0.52844 0.31225 0.0
C330 C 0.65891 0.51397 0.2382 0.0
C331 C 0.70342 0.55352 0.27877 0.0
O332 O 0.68792 0.55087 0.28439 0.0
O333 O 0.70877 0.53925 0.27025 0.0
O334 O 0.64898 0.54077 0.30165 0.0
O335 O 0.65733 0.51553 0.30606 0.0
Gd336 Gd 0.08054 0.06608 0.03837 0.0
Gd337 Gd 0.03826 0.03698 0.01651 0.0
C338 C 0.02821 0.97169 1.0023 0.0
C339 C 0.02434 0.96509 0.96835 0.0
C340 C 0.03007 0.99795 0.98578 0.0
C341 C 0.03121 0.99154 1.00243 0.0
C342 C 0.02617 0.98471 0.96858 0.0
C343 C 0.02533 0.95859 0.98518 0.0
C344 C 0.02732 0.9655 0.01934 0.0
C345 C 0.02854 0.97886 0.03586 0.0
N346 N 0.03366 1.0045 0.01875 0.0
C347 C 0.03143 0.99837 0.03527 0.0
H348 H 0.03233 0.00847 0.04817 0.0
C349 C 0.02744 0.02331 0.97064 0.0
N350 N 0.0315 0.01696 0.9865 0.0
C351 C 0.02375 0.01077 0.95327 0.0
C352 C 0.02343 0.99145 0.95217 0.0
H353 H 0.02722 0.03807 0.97123 0.0
H354 H 0.02321 0.94332 0.98482 0.0
H355 H 0.10352 0.08475 1.004 0.0
H356 H 0.02502 0.95038 0.01984 0.0
H357 H 0.02732 0.97418 0.04907 0.0
H358 H 0.02149 0.95474 0.95526 0.0
H359 H 0.08564 0.08013 0.08585 0.0
H360 H 0.10391 0.1437 0.01086 0.0
H361 H 0.1097 0.11461 0.99235 0.0
H362 H 0.09163 0.15864 0.07389 0.0
H363 H 0.02094 0.01598 0.94076 0.0
H364 H 0.02037 0.98173 0.9387 0.0
H365 H 0.09765 0.16001 0.04151 0.0
H366 H 0.08807 0.10936 0.10925 0.0
N367 N 0.09037 0.09501 0.02704 0.0
C368 C 0.10017 0.13019 0.01558 0.0
C369 C 0.10341 0.11381 1.00508 0.0
C370 C 0.09382 0.12933 0.03295 0.0
C371 C 0.08903 0.11133 0.03847 0.0
C372 C 0.0991 0.0965 0.01142 0.0
N373 N 0.08343 0.09351 0.06234 0.0
C374 C 0.08558 0.11057 0.05675 0.0
C375 C 0.08709 0.10989 0.09453 0.0
C376 C 0.08719 0.12709 0.08887 0.0
C377 C 0.08574 0.09333 0.08109 0.0
C378 C 0.08718 0.12778 0.06988 0.0
H379 H 0.08848 0.14 0.09933 0.0
O380 O 0.09547 0.05925 0.06106 0.0
O381 O 0.06139 0.03711 0.03573 0.0
O382 O 0.03571 0.04176 0.04804 0.0
O383 O 0.06035 0.06651 0.06067 0.0
O384 O 0.08653 0.0374 0.02858 0.0
O385 O 0.1093 0.07423 0.04025 0.0
O386 O 0.01765 0.0523 0.017 0.0
O387 O 0.05473 0.0675 0.02571 0.0
O388 O 0.0824 0.05819 0.0064 0.0
O389 O 0.05764 0.0329 0.99436 0.0
O390 O 0.0417 0.05991 0.99899 0.0
O391 O 0.01105 0.02219 0.01832 0.0
C392 C 0.07164 0.02646 0.03108 0.0
C393 C 0.09042 0.14538 0.06397 0.0
C394 C 0.09376 0.14615 0.04553 0.0
C395 C 0.11047 0.06737 0.05545 0.0
C396 C 0.12748 0.06812 0.06519 0.0
C397 C 0.13089 0.07487 0.08453 0.0
C398 C 0.14021 0.0616 0.05516 0.0
C399 C 0.15619 0.06098 0.06448 0.0
C400 C 0.147 0.07498 0.09383 0.0
C401 C 0.15953 0.0679 0.08396 0.0
C402 C 0.04452 0.05527 0.06233 0.0
C403 C 0.05206 0.07382 0.01095 0.0
C404 C 1.00509 0.03694 0.01678 0.0
C405 C 0.98955 0.03359 1.00339 0.0
C406 C 0.98523 0.01829 0.98786 0.0
C407 C 0.97845 0.04578 0.00681 0.0
C408 C 0.96281 0.04264 0.99514 0.0
C409 C 0.96962 0.01514 0.97609 0.0
C410 C 0.95829 0.02715 0.97981 0.0
C411 C 0.07321 0.04436 0.99234 0.0
H412 H 0.12112 0.08007 0.09238 0.0
H413 H 0.13742 0.05661 0.04015 0.0
H414 H 0.14964 0.0802 0.10879 0.0
H415 H 0.17156 0.06734 0.0917 0.0
H416 H 0.99369 0.00865 0.985 0.0
H417 H 0.98175 0.05745 0.01894 0.0
H418 H 0.96621 1.00327 0.96422 0.0
H419 H 0.94612 0.02444 0.97074 0.0
Gd420 Gd 0.29811 0.81634 0.28889 0.0
Gd421 Gd 0.31389 0.79435 0.24595 0.0
C422 C 0.28275 0.73462 0.21312 0.0
C423 C 0.30516 0.7168 0.21229 0.0
C424 C 0.31191 0.74991 0.22947 0.0
C425 C 0.295 0.75089 0.22419 0.0
C426 C 0.3172 0.73283 0.22355 0.0
C427 C 0.28798 0.71772 0.20701 0.0
C428 C 0.26544 0.73562 0.20889 0.0
C429 C 0.26021 0.7517 0.2171 0.0
N430 N 0.29024 0.76734 0.23067 0.0
C431 C 0.27266 0.7672 0.22837 0.0
H432 H 0.26764 0.77843 0.23567 0.0
C433 C 0.34047 0.7655 0.24461 0.0
N434 N 0.32317 0.76556 0.24055 0.0
C435 C 0.34627 0.74894 0.2393 0.0
C436 C 0.33453 0.73243 0.22886 0.0
H437 H 0.35018 0.77842 0.25158 0.0
H438 H 0.27875 0.70517 0.19846 0.0
H439 H 0.34384 0.83174 0.30276 0.0
H440 H 0.25588 0.72383 0.19984 0.0
H441 H 0.2465 0.75209 0.21498 0.0
H442 H 0.30902 0.70362 0.20759 0.0
H443 H 0.26228 0.83277 0.27894 0.0
H444 H 0.35466 0.88807 0.33534 0.0
H445 H 0.3642 0.85887 0.32327 0.0
H446 H 0.30194 0.90761 0.32343 0.0
H447 H 0.35994 0.74909 0.2429 0.0
H448 H 0.33908 0.71963 0.22457 0.0
H449 H 0.33122 0.90586 0.3357 0.0
H450 H 0.25297 0.86236 0.28501 0.0
N451 N 0.32132 0.84356 0.30434 0.0
C452 C 0.34526 0.87576 0.32663 0.0
C453 C 0.35065 0.8593 0.31995 0.0
C454 C 0.3281 0.87653 0.32115 0.0
C455 C 0.31638 0.86015 0.30961 0.0
C456 C 0.33861 0.84345 0.30861 0.0
N457 N 0.28895 0.8453 0.2915 0.0
C458 C 0.29984 0.86112 0.30278 0.0
C459 C 0.26635 0.86242 0.28974 0.0
C460 C 0.27772 0.87896 0.30052 0.0
C461 C 0.272 0.84562 0.28581 0.0
C462 C 0.29452 0.87837 0.30753 0.0
H463 H 0.27319 0.89191 0.30385 0.0
O464 O 0.27093 0.80876 0.29502 0.0
O465 O 0.29427 0.79099 0.26603 0.0
O466 O 0.29173 0.80529 0.23432 0.0
O467 O 0.28115 0.81722 0.26228 0.0
O468 O 0.29263 0.78581 0.29305 0.0
O469 O 0.29234 0.81765 0.31774 0.0
O470 O 0.34152 0.80504 0.24246 0.0
O471 O 0.31786 0.81984 0.26879 0.0
O472 O 0.32032 0.80504 0.29982 0.0
O473 O 0.32959 0.79042 0.27216 0.0
O474 O 0.31753 0.82453 0.24129 0.0
O475 O 0.32201 0.79249 0.21797 0.0
C476 C 0.29178 0.77822 0.27567 0.0
C477 C 0.30591 0.89438 0.31948 0.0
C478 C 0.32255 0.89336 0.3265 0.0
C479 C 0.27524 0.81098 0.31292 0.0
C480 C 0.26533 0.79565 0.3217 0.0
C481 C 0.24676 0.79167 0.32011 0.0
C482 C 0.27387 0.78475 0.33125 0.0
C483 C 0.26388 0.77 0.33919 0.0
C484 C 0.23681 0.777 0.32788 0.0
C485 C 0.24528 0.76623 0.33741 0.0
C486 C 0.28048 0.81338 0.24366 0.0
C487 C 0.31931 0.83234 0.25876 0.0
C488 C 0.33872 0.8004 0.22427 0.0
C489 C 0.34945 0.81366 0.21409 0.0
C490 C 0.36745 0.81418 0.21377 0.0
C491 C 0.3421 0.8252 0.20432 0.0
C492 C 0.35256 0.83666 0.19347 0.0
C493 C 0.37798 0.82579 0.20338 0.0
C494 C 0.37058 0.83679 0.19309 0.0
C495 C 0.3308 0.79551 0.29078 0.0
H496 H 0.23995 0.79992 0.31277 0.0
H497 H 0.2882 0.78762 0.33239 0.0
H498 H 0.2225 0.77406 0.32665 0.0
H499 H 0.23728 0.75522 0.34373 0.0
H500 H 0.37329 0.80536 0.22137 0.0
H501 H 0.32827 0.82502 0.20502 0.0
H502 H 0.39183 0.82596 0.20298 0.0
H503 H 0.37892 0.84496 0.18447 0.0
Gd504 Gd 0.54204 0.04369 0.53715 0.0
Gd505 Gd 0.58689 0.05228 0.52226 0.0
C506 C 0.62175 0.11212 0.52228 0.0
C507 C 0.6234 0.1115 0.48909 0.0
C508 C 0.60657 0.0834 0.49965 0.0
C509 C 0.61094 0.09309 0.51804 0.0
C510 C 0.61301 0.09238 0.48498 0.0
C511 C 0.62772 0.12137 0.5077 0.0
C512 C 0.62656 0.12115 0.54106 0.0
C513 C 0.62109 0.111 0.55505 0.0
N514 N 0.60516 0.08369 0.53182 0.0
C515 C 0.61055 0.09208 0.55015 0.0
H516 H 0.60643 0.0844 0.56112 0.0
C517 C 0.59311 0.0543 0.47831 0.0
N518 N 0.59648 0.06495 0.49613 0.0
C519 C 0.59922 0.0626 0.46333 0.0
C520 C 0.60909 0.08177 0.46665 0.0
H521 H 0.58552 0.03947 0.47556 0.0
H522 H 0.63596 0.13602 0.51067 0.0
H523 H 0.52209 0.01229 0.49824 0.0
H524 H 0.63477 0.1358 0.54489 0.0
H525 H 0.62496 0.11773 0.56962 0.0
H526 H 0.62838 0.11869 0.478 0.0
H527 H 0.54128 0.05696 0.5833 0.0
H528 H 0.49194 0.96139 0.5139 0.0
H529 H 0.50239 0.97975 0.48941 0.0
H530 H 0.4989 0.97757 0.58084 0.0
H531 H 0.59634 0.05419 0.44923 0.0
H532 H 0.61384 0.08815 0.455 0.0
H533 H 0.49096 0.96062 0.54804 0.0
H534 H 0.53067 0.04217 0.6097 0.0
N535 N 0.5234 0.01251 0.52746 0.0
C536 C 0.50078 0.9757 0.51784 0.0
C537 C 0.50659 0.98597 0.504 0.0
C538 C 0.50594 0.98431 0.53667 0.0
C539 C 0.51729 1.00305 0.54108 0.0
C540 C 0.51779 1.00452 0.5091 0.0
N541 N 0.53143 0.03112 0.56296 0.0
C542 C 0.52157 0.01261 0.55945 0.0
C543 C 0.52806 0.03367 0.59565 0.0
C544 C 0.5187 0.01431 0.59239 0.0
C545 C 0.53409 0.042 0.58064 0.0
C546 C 0.51488 1.00368 0.57405 0.0
H547 H 0.51407 1.00787 0.60404 0.0
O548 O 0.52813 0.06511 0.54722 0.0
O549 O 0.56636 0.06569 0.53422 0.0
O550 O 0.58606 0.05232 0.55293 0.0
O551 O 0.55858 0.03296 0.55665 0.0
O552 O 0.55436 0.07144 0.55797 0.0
O553 O 0.51852 0.0454 0.52082 0.0
O554 O 0.59961 0.0295 0.5135 0.0
O555 O 0.56265 0.03 0.52554 0.0
O556 O 0.54321 0.04377 0.50634 0.0
O557 O 0.57059 0.06416 0.50388 0.0
O558 O 0.57426 0.02492 0.50123 0.0
O559 O 0.61246 0.05285 0.53634 0.0
C560 C 0.56721 0.07823 0.54883 0.0
C561 C 0.50416 0.98471 0.56982 0.0
C562 C 0.49964 0.97506 0.55115 0.0
C563 C 0.51567 0.05911 0.5333 0.0
C564 C 0.49753 0.05657 0.53842 0.0
C565 C 0.49074 0.04308 0.54932 0.0
C566 C 0.48714 0.06828 0.53302 0.0
C567 C 0.47001 0.06662 0.53864 0.0
C568 C 0.47387 0.04145 0.55505 0.0
C569 C 0.4636 0.05318 0.54988 0.0
C570 C 0.57558 0.04088 0.56207 0.0
C571 C 0.56168 0.01779 0.51058 0.0
C572 C 0.61372 0.03731 0.52526 0.0
C573 C 0.63056 0.03781 0.51728 0.0
C574 C 0.63442 0.04667 0.50199 0.0
C575 C 0.64208 0.02783 0.52384 0.0
C576 C 0.65717 0.02603 0.51471 0.0
C577 C 0.64918 0.04493 0.49282 0.0
C578 C 0.66029 0.03445 0.49886 0.0
C579 C 0.5538 0.05595 0.49801 0.0
H580 H 0.49852 0.03398 0.55359 0.0
H581 H 0.4924 0.07854 0.52441 0.0
H582 H 0.46879 0.03117 0.56366 0.0
H583 H 0.45069 0.05188 0.55491 0.0
H584 H 0.62581 0.05448 0.49681 0.0
H585 H 0.63913 0.02143 0.53593 0.0
H586 H 0.65184 0.05143 0.48073 0.0
H587 H 0.67119 0.03278 0.49083 0.0
Gd588 Gd 0.33206 0.28996 0.77024 0.0
Gd589 Gd 0.28795 0.29937 0.76575 0.0
C590 C 0.26117 0.29033 0.70634 0.0
C591 C 0.26006 0.32277 0.7041 0.0
C592 C 0.27233 0.3164 0.73291 0.0
C593 C 0.26938 0.29725 0.72482 0.0
C594 C 0.26706 0.32926 0.72293 0.0
C595 C 0.25716 0.30331 0.69579 0.0
C596 C 0.25639 0.27049 0.69937 0.0
C597 C 0.25897 0.25808 0.7111 0.0
N598 N 0.27302 0.28512 0.73561 0.0
C599 C 0.26715 0.26565 0.72933 0.0
H600 H 0.26915 0.25573 0.73799 0.0
C601 C 0.27864 0.3398 0.76087 0.0
N602 N 0.27874 0.32203 0.75119 0.0
C603 C 0.2736 0.35312 0.7516 0.0
C604 C 0.26813 0.34796 0.73244 0.0
H605 H 0.28309 0.3439 0.77566 0.0
H606 H 0.25109 0.29831 0.68149 0.0
H607 H 0.351 0.33076 0.80145 0.0
H608 H 0.25008 0.26458 0.68525 0.0
H609 H 0.25484 0.24266 0.70606 0.0
H610 H 0.25617 0.33249 0.69608 0.0
H611 H 0.33673 0.24552 0.75598 0.0
H612 H 0.36718 0.31575 0.85241 0.0
H613 H 0.36413 0.34047 0.83422 0.0
H614 H 0.35931 0.24765 0.83509 0.0
H615 H 0.27402 0.36736 0.75921 0.0
H616 H 0.26416 0.35826 0.72528 0.0
H617 H 0.36489 0.28088 0.85274 0.0
H618 H 0.34368 0.21936 0.76988 0.0
N619 N 0.34601 0.30072 0.80108 0.0
C620 C 0.36138 0.31138 0.83799 0.0
C621 C 0.35976 0.32538 0.82774 0.0
C622 C 0.3563 0.29197 0.82919 0.0
C623 C 0.34875 0.28708 0.81042 0.0
C624 C 0.35229 0.31977 0.8091 0.0
N625 N 0.33995 0.26488 0.78212 0.0
C626 C 0.34556 0.26846 0.80059 0.0
C627 C 0.34412 0.23305 0.77871 0.0
C628 C 0.34865 0.23606 0.79798 0.0
C629 C 0.34022 0.24786 0.77089 0.0
C630 C 0.34989 0.25411 0.80911 0.0
H631 H 0.3519 0.22466 0.80399 0.0
O632 O 0.34797 0.28254 0.7479 0.0
O633 O 0.31019 0.29246 0.75065 0.0
O634 O 0.28499 0.26765 0.76775 0.0
O635 O 0.31279 0.2628 0.77536 0.0
O636 O 0.32076 0.26909 0.74354 0.0
O637 O 0.35845 0.30809 0.7688 0.0
O638 O 0.27204 0.31018 0.78654 0.0
O639 O 0.30993 0.29725 0.78542 0.0
O640 O 0.3348 0.32221 0.77063 0.0
O641 O 0.30753 0.32594 0.75933 0.0
O642 O 0.29965 0.32096 0.79184 0.0
O643 O 0.26295 0.28112 0.77105 0.0
C644 C 0.30941 0.2777 0.73823 0.0
C645 C 0.35617 0.25854 0.82819 0.0
C646 C 0.35935 0.27746 0.83823 0.0
C647 C 0.36174 0.2968 0.75434 0.0
C648 C 0.37898 0.29186 0.75576 0.0
C649 C 0.38248 0.2817 0.76946 0.0
C650 C 0.39194 0.29699 0.74352 0.0
C651 C 0.40823 0.29184 0.74509 0.0
C652 C 0.39812 0.27598 0.77062 0.0
C653 C 0.4108 0.28082 0.75851 0.0
C654 C 0.29523 0.25663 0.77213 0.0
C655 C 0.31072 0.31222 0.79757 0.0
C656 C 0.25926 0.29447 0.7833 0.0
C657 C 0.24104 0.29681 0.78113 0.0
C658 C 0.23534 0.30298 0.76531 0.0
C659 C 0.22918 0.29276 0.79468 0.0
C660 C 0.21164 0.29464 0.79213 0.0
C661 C 0.21824 0.30525 0.76295 0.0
C662 C 0.20649 0.30113 0.77618 0.0
C663 C 0.32491 0.33283 0.76449 0.0
H664 H 0.37312 0.27814 0.77931 0.0
H665 H 0.38947 0.3052 0.73314 0.0
H666 H 0.40048 0.26779 0.78105 0.0
H667 H 0.42271 0.27589 0.75973 0.0
H668 H 0.2441 0.30598 0.75472 0.0
H669 H 0.23343 0.28778 0.80685 0.0
H670 H 0.21402 0.31015 0.75073 0.0
H671 H 0.19329 0.30308 0.77394 0.0
Gd672 Gd 0.06856 0.02715 0.51612 0.0
Gd673 Gd 0.06213 0.07156 0.53802 0.0
C674 C 0.06415 0.08791 0.60126 0.0
C675 C 0.03432 0.09104 0.60528 0.0
C676 C 0.04294 0.08277 0.57406 0.0
C677 C 0.05965 0.08288 0.58172 0.0
C678 C 0.0303 0.08743 0.58579 0.0
C679 C 0.05122 0.0913 0.61299 0.0
C680 C 0.08177 0.09045 0.60837 0.0
C681 C 0.09457 0.08903 0.59606 0.0
N682 N 0.07202 0.07996 0.57004 0.0
C683 C 0.08948 0.08414 0.5768 0.0
H684 H 0.09953 0.08335 0.56741 0.0
C685 C 0.02447 0.08269 0.54718 0.0
N686 N 0.03955 0.07962 0.55515 0.0
C687 C 0.01156 0.08725 0.55826 0.0
C688 C 0.01431 0.08922 0.57762 0.0
H689 H 0.02223 0.08156 0.53229 0.0
H690 H 0.05437 0.09491 0.62804 0.0
H691 H 0.02735 0.01291 0.49296 0.0
H692 H 0.08575 0.09433 0.62329 0.0
H693 H 0.10834 0.09169 0.60137 0.0
H694 H 0.0247 0.09442 0.6145 0.0
H695 H 0.11159 0.02892 0.51486 0.0
H696 H 0.03104 0.98717 0.43692 0.0
H697 H 0.01307 0.99664 0.4617 0.0
H698 H 0.09324 0.99324 0.43487 0.0
H699 H 0.9995 0.08926 0.55186 0.0
H700 H 1.0043 0.09284 0.58617 0.0
H701 H 0.061 0.98577 0.42711 0.0
H702 H 0.13162 0.02048 0.49182 0.0
N703 N 0.05367 0.01396 0.486 0.0
C704 C 0.03758 0.99492 0.4505 0.0
C705 C 0.02735 1.00008 0.46452 0.0
C706 C 0.05601 0.99932 0.45436 0.0
C707 C 0.06379 0.009 0.47248 0.0
C708 C 0.03561 0.00937 0.48233 0.0
N709 N 0.08873 0.02063 0.49495 0.0
C710 C 0.08189 0.01262 0.47705 0.0
C711 C 0.11767 0.01823 0.48747 0.0
C712 C 0.1109 0.01027 0.4689 0.0
C713 C 0.10629 0.02301 0.50046 0.0
C714 C 0.09277 1.00706 0.46355 0.0
H715 H 0.11969 1.00626 0.45892 0.0
O716 O 0.07961 1.00581 0.52571 0.0
O717 O 0.06963 0.04533 0.54486 0.0
O718 O 0.09089 0.07315 0.53348 0.0
O719 O 0.08801 0.0507 0.50641 0.0
O720 O 0.09115 0.03461 0.53909 0.0
O721 O 0.0512 0.99945 0.51707 0.0
O722 O 0.0655 0.09244 0.51984 0.0
O723 O 0.06066 0.05271 0.50982 0.0
O724 O 0.04042 0.02287 0.52399 0.0
O725 O 0.03759 0.05058 0.54338 0.0
O726 O 0.04007 0.06512 0.51419 0.0
O727 O 0.07464 0.10173 0.54917 0.0
C728 C 0.08432 0.04361 0.55227 0.0
C729 C 0.08513 0.99781 0.44539 0.0
C730 C 0.06678 0.99372 0.44089 0.0
C731 C 0.06427 0.99321 0.5232 0.0
C732 C 0.06407 0.97345 0.51569 0.0
C733 C 0.0706 0.9678 0.49875 0.0
C734 C 0.05796 0.96015 0.52674 0.0
C735 C 0.05893 0.94116 0.52156 0.0
C736 C 0.0711 0.94866 0.49312 0.0
C737 C 0.06539 0.93536 0.50452 0.0
C738 C 0.09703 0.06659 0.5179 0.0
C739 C 0.04618 0.05416 0.50184 0.0
C740 C 0.07199 0.10698 0.53345 0.0
C741 C 0.06423 0.1233 0.53399 0.0
C742 C 0.05191 0.12677 0.54648 0.0
C743 C 0.06922 0.13552 0.5215 0.0
C744 C 0.06175 0.15104 0.52109 0.0
C745 C 0.04411 0.14191 0.54588 0.0
C746 C 0.04891 0.15395 0.5332 0.0
C747 C 0.0314 0.03233 0.53517 0.0
H748 H 0.07545 0.97809 0.49011 0.0
H749 H 0.05263 0.96478 0.53963 0.0
H750 H 0.07619 0.94421 0.48008 0.0
H751 H 0.06635 0.92073 0.5002 0.0
H752 H 0.04838 0.11794 0.55673 0.0
H753 H 0.07925 0.13311 0.51239 0.0
H754 H 0.03443 0.14439 0.55536 0.0
H755 H 0.04264 0.16558 0.53295 0.0
Gd756 Gd 0.28633 0.78005 0.75663 0.0
Gd757 Gd 0.32915 0.80934 0.75681 0.0
C758 C 0.32939 0.86908 0.74676 0.0
C759 C 0.3431 0.8696 0.7178 0.0
C760 C 0.33874 0.84132 0.73189 0.0
C761 C 0.33086 0.85016 0.74618 0.0
C762 C 0.34562 0.85127 0.718 0.0
C763 C 0.33496 0.87847 0.73214 0.0
C764 C 0.32315 0.87831 0.76243 0.0
C765 C 0.31932 0.86899 0.77737 0.0
N766 N 0.32609 0.8409 0.76034 0.0
C767 C 0.32108 0.85025 0.77618 0.0
H768 H 0.31815 0.84317 0.78776 0.0
C769 C 0.35229 0.81632 0.72143 0.0
N770 N 0.34134 0.8238 0.73273 0.0
C771 C 0.35941 0.82564 0.7074 0.0
C772 C 0.35571 0.84296 0.70539 0.0
H773 H 0.3551 0.80288 0.72291 0.0
H774 H 0.33371 0.89291 0.73221 0.0
H775 H 0.28573 0.74357 0.71976 0.0
H776 H 0.32181 0.89284 0.76341 0.0
H777 H 0.31495 0.87618 0.78977 0.0
H778 H 0.34806 0.87736 0.70707 0.0
H779 H 0.2726 0.78652 0.80037 0.0
H780 H 0.29357 0.69573 0.74162 0.0
H781 H 0.28993 0.71121 0.71477 0.0
H782 H 0.28934 0.71361 0.80691 0.0
H783 H 0.36768 0.81942 0.69812 0.0
H784 H 0.3613 0.85019 0.69456 0.0
H785 H 0.29372 0.69693 0.77599 0.0
H786 H 0.27191 0.77145 0.82759 0.0
N787 N 0.28827 0.74775 0.74964 0.0
C788 C 0.29193 0.71022 0.74402 0.0
C789 C 0.28992 0.71892 0.72885 0.0
C790 C 0.29111 0.72004 0.76203 0.0
C791 C 0.28909 0.73898 0.76445 0.0
C792 C 0.2878 0.73761 0.73187 0.0
N793 N 0.28355 0.76603 0.78355 0.0
C794 C 0.28684 0.74847 0.78193 0.0
C795 C 0.27661 0.76506 0.81505 0.0
C796 C 0.28163 0.74796 0.81417 0.0
C797 C 0.27726 0.77369 0.79948 0.0
C798 C 0.28629 0.73913 0.79732 0.0
H799 H 0.28095 0.7412 0.82624 0.0
O800 O 0.26115 0.7823 0.76624 0.0
O801 O 0.30081 0.81136 0.75913 0.0
O802 O 0.32365 0.80504 0.78576 0.0
O803 O 0.29396 0.80252 0.78289 0.0
O804 O 0.27893 0.8009 0.73983 0.0
O805 O 0.26186 0.76405 0.73953 0.0
O806 O 0.35593 0.80624 0.76087 0.0
O807 O 0.31531 0.77935 0.76064 0.0
O808 O 0.29317 0.77659 0.72733 0.0
O809 O 0.31755 0.80192 0.72669 0.0
O810 O 0.33434 0.78169 0.74199 0.0
O811 O 0.34813 0.82884 0.77893 0.0
C812 C 0.29069 0.81645 0.74756 0.0
C813 C 0.28944 0.72083 0.79518 0.0
C814 C 0.29186 0.71131 0.77757 0.0
C815 C 0.25203 0.77052 0.75152 0.0
C816 C 0.23561 0.75723 0.75421 0.0
C817 C 0.23481 0.74467 0.76674 0.0
C818 C 0.22011 0.75815 0.74441 0.0
C819 C 0.20362 0.747 0.74729 0.0
C820 C 0.21834 0.73335 0.7696 0.0
C821 C 0.20274 0.73463 0.76006 0.0
C822 C 0.30921 0.80677 0.79324 0.0
C823 C 0.32405 0.76965 0.75007 0.0
C824 C 0.36102 0.82124 0.7743 0.0
C825 C 0.37811 0.83447 0.77319 0.0
C826 C 0.37976 0.84873 0.76237 0.0
C827 C 0.3932 0.83225 0.78277 0.0
C828 C 0.40996 0.84384 0.78122 0.0
C829 C 0.39649 0.86019 0.76064 0.0
C830 C 0.41161 0.85766 0.76991 0.0
C831 C 0.30421 0.78745 0.71834 0.0
H832 H 0.24675 0.74381 0.7744 0.0
H833 H 0.22085 0.76817 0.73498 0.0
H834 H 0.21764 0.72375 0.77937 0.0
H835 H 0.19006 0.72601 0.7626 0.0
H836 H 0.36825 0.85103 0.75529 0.0
H837 H 0.39196 0.82127 0.7912 0.0
H838 H 0.39773 0.87103 0.75212 0.0
H839 H 0.42453 0.86664 0.76852 0.0
Gd840 Gd 0.54988 0.04756 0.00664 0.0
Gd841 Gd 0.56337 0.04363 0.05611 0.0
C842 C 0.6127 0.08413 0.09156 0.0
C843 C 0.63566 0.06807 0.083 0.0
C844 C 0.60481 0.05294 0.07097 0.0
C845 C 0.59995 0.06871 0.08007 0.0
C846 C 0.62264 0.05205 0.07298 0.0
C847 C 0.63069 0.08412 0.09231 0.0
C848 C 0.60687 0.09862 0.10258 0.0
C849 C 0.58869 0.0969 0.10271 0.0
N850 N 0.58249 0.06814 0.07905 0.0
C851 C 0.57658 0.08126 0.09108 0.0
H852 H 0.56252 0.08019 0.09087 0.0
C853 C 0.59556 0.02038 0.05597 0.0
N854 N 0.59182 0.0378 0.06144 0.0
C855 C 0.61301 0.01877 0.05754 0.0
C856 C 0.62671 0.03484 0.06558 0.0
H857 H 0.58531 1.0074 0.05055 0.0
H858 H 0.64075 0.09604 0.1007 0.0
H859 H 0.53998 1.0056 0.97417 0.0
H860 H 0.61623 0.11074 0.11159 0.0
H861 H 0.58399 0.10771 0.11162 0.0
H862 H 0.64948 0.06785 0.0843 0.0
H863 H 0.54038 0.09088 0.00646 0.0
H864 H 0.48401 0.98865 0.95888 0.0
H865 H 0.51335 0.98168 0.95755 0.0
H866 H 0.4668 0.04641 0.9806 0.0
H867 H 0.61583 1.00506 0.05268 0.0
H868 H 0.64022 0.03356 0.06681 0.0
H869 H 0.46659 0.01285 0.96804 0.0
H870 H 0.51404 0.10303 1.00305 0.0
N871 N 0.52585 0.02523 0.98662 0.0
C872 C 0.49567 0.99908 0.96652 0.0
C873 C 0.51218 0.9951 0.96573 0.0
C874 C 0.49462 0.01706 0.97601 0.0
C875 C 0.51021 0.03007 0.98584 0.0
C876 C 0.52726 0.00866 0.97538 0.0
N877 N 0.52591 0.06124 1.00069 0.0
C878 C 0.51023 0.04876 0.99321 0.0
C879 C 0.51266 0.08768 1.00056 0.0
C880 C 0.49604 0.07482 0.99519 0.0
C881 C 0.52759 0.08062 1.00261 0.0
C882 C 0.49476 0.05512 0.99064 0.0
H883 H 0.4845 0.0803 0.99342 0.0
O884 O 0.56513 0.07314 0.99858 0.0
O885 O 0.57066 0.05297 0.03012 0.0
O886 O 0.56701 0.07486 0.05469 0.0
O887 O 0.54778 0.07263 0.02829 0.0
O888 O 0.57708 0.04225 1.00405 0.0
O889 O 0.55955 0.04517 0.97944 0.0
O890 O 0.55628 0.01605 0.06461 0.0
O891 O 0.54249 0.03797 0.03264 0.0
O892 O 0.54639 0.01659 0.00799 0.0
O893 O 0.56474 0.01789 0.03475 0.0
O894 O 0.53602 0.0484 0.05897 0.0
O895 O 0.54832 0.04063 0.07964 0.0
C896 C 0.58286 0.04871 0.02144 0.0
C897 C 0.47886 0.04185 0.98237 0.0
C898 C 0.47877 0.02277 0.97514 0.0
C899 C 0.56708 0.06361 0.98231 0.0
C900 C 0.56741 0.07305 0.96636 0.0
C901 C 0.56014 0.0887 0.96579 0.0
C902 C 0.57762 0.0676 0.95247 0.0
C903 C 0.58172 0.07836 0.93866 0.0
C904 C 0.5636 0.09907 0.95148 0.0
C905 C 0.57464 0.09416 0.93811 0.0
C906 C 0.5566 0.08191 0.04458 0.0
C907 C 0.53028 0.04202 0.04154 0.0
C908 C 0.54825 0.02261 0.07846 0.0
C909 C 0.55009 0.01625 0.09614 0.0
C910 C 0.56226 1.00585 0.10006 0.0
C911 C 0.53833 0.01999 0.10904 0.0
C912 C 0.53836 0.01337 0.12583 0.0
C913 C 0.56251 0.9993 0.1169 0.0
C914 C 0.55062 1.00301 0.12976 0.0
C915 C 0.55627 0.00914 0.01819 0.0
H916 H 0.55229 0.09322 0.97654 0.0
H917 H 0.58346 0.05568 0.9532 0.0
H918 H 0.55815 0.11126 0.95108 0.0
H919 H 0.57771 0.10267 0.92745 0.0
H920 H 0.57144 1.00272 0.09016 0.0
H921 H 0.52916 0.02832 0.10597 0.0
H922 H 0.57187 0.99124 0.11994 0.0
H923 H 0.55091 0.99768 0.14265 0.0
Gd924 Gd 0.28367 0.26079 0.25053 0.0
Gd925 Gd 0.31198 0.30764 0.27315 0.0
C926 C 0.3696 0.32282 0.25921 0.0
C927 C 0.38605 0.324 0.28868 0.0
C928 C 0.35366 0.31435 0.28521 0.0
C929 C 0.35341 0.31687 0.26689 0.0
C930 C 0.37008 0.31798 0.29628 0.0
C931 C 0.38581 0.32643 0.27019 0.0
C932 C 0.36912 0.32484 0.24062 0.0
C933 C 0.35288 0.32044 0.22993 0.0
N934 N 0.3375 0.31297 0.2564 0.0
C935 C 0.33727 0.31436 0.23794 0.0
H936 H 0.32537 0.31112 0.22892 0.0
C937 C 0.33819 0.3075 0.31087 0.0
N938 N 0.338 0.30823 0.2922 0.0
C939 C 0.35401 0.31076 0.3222 0.0
C940 C 0.37006 0.3158 0.31485 0.0
H941 H 0.32631 0.30561 0.31777 0.0
H942 H 0.39826 0.331 0.26446 0.0
H943 H 0.2694 0.24067 0.28824 0.0
H944 H 0.38123 0.32961 0.23436 0.0
H945 H 0.35231 0.32192 0.21548 0.0
H946 H 0.39868 0.32686 0.29701 0.0
H947 H 0.26811 0.26491 0.20713 0.0
H948 H 0.21532 0.23952 0.29085 0.0
H949 H 0.2431 0.23456 0.3042 0.0
H950 H 0.19834 0.25673 0.23409 0.0
H951 H 0.35376 0.31009 0.33682 0.0
H952 H 0.38234 0.31857 0.32378 0.0
H953 H 0.19894 0.24602 0.26399 0.0
H954 H 0.24123 0.26812 0.19126 0.0
N955 N 0.25845 0.25285 0.26706 0.0
C956 C 0.22728 0.24323 0.28406 0.0
C957 C 0.24293 0.24052 0.29167 0.0
C958 C 0.22706 0.24983 0.2673 0.0
C959 C 0.243 0.25477 0.25906 0.0
C960 C 0.25823 0.24475 0.28266 0.0
N961 N 0.258 0.26415 0.23375 0.0
C962 C 0.24279 0.26064 0.24203 0.0
C963 C 0.24154 0.26664 0.20572 0.0
C964 C 0.22627 0.26501 0.21471 0.0
C965 C 0.25709 0.26543 0.21519 0.0
C966 C 0.22656 0.26123 0.23276 0.0
H967 H 0.21407 0.26545 0.20717 0.0
O968 O 0.28455 0.24504 0.22279 0.0
O969 O 0.31083 0.28053 0.25333 0.0
O970 O 0.30093 0.31318 0.24632 0.0
O971 O 0.29055 0.28136 0.2304 0.0
O972 O 0.30886 0.25231 0.25585 0.0
O973 O 0.27352 0.22973 0.24396 0.0
O974 O 0.31121 0.32498 0.30009 0.0
O975 O 0.28505 0.28749 0.27083 0.0
O976 O 0.29446 0.25617 0.27821 0.0
O977 O 0.30521 0.288 0.29386 0.0
O978 O 0.28608 0.31556 0.2688 0.0
O979 O 0.32247 0.33855 0.27781 0.0
C980 C 0.3197 0.26875 0.25589 0.0
C981 C 0.21089 0.25666 0.24115 0.0
C982 C 0.21118 0.25078 0.25825 0.0
C983 C 0.27803 0.22836 0.22696 0.0
C984 C 0.2874 0.21381 0.2205 0.0
C985 C 0.28648 0.2065 0.20127 0.0
C986 C 0.29805 0.20796 0.23313 0.0
C987 C 0.30801 0.19519 0.22656 0.0
C988 C 0.29634 0.19363 0.19473 0.0
C989 C 0.30722 0.18807 0.20733 0.0
C990 C 0.29367 0.30014 0.23115 0.0
C991 C 0.27567 0.29891 0.26895 0.0
C992 C 0.31836 0.34105 0.295 0.0
C993 C 0.31009 0.35657 0.30101 0.0
C994 C 0.31265 0.36564 0.31993 0.0
C995 C 0.29927 0.36202 0.28828 0.0
C996 C 0.29108 0.37651 0.29446 0.0
C997 C 0.30437 0.38015 0.32606 0.0
C998 C 0.29358 0.38563 0.31334 0.0
C999 C 0.30082 0.2693 0.29356 0.0
H1000 H 0.2783 0.21096 0.19134 0.0
H1001 H 0.29888 0.21353 0.24801 0.0
H1002 H 0.29564 0.18805 0.1799 0.0
H1003 H 0.3148 0.17804 0.20213 0.0
H1004 H 0.32097 0.36142 0.32992 0.0
H1005 H 0.29722 0.35511 0.27363 0.0
H1006 H 0.30636 0.38717 0.34064 0.0
H1007 H 0.28731 0.39703 0.31812 0.0
Gd1008 Gd 0.56854 0.5207 0.01861 0.0
Gd1009 Gd 0.56147 0.56536 0.03923 0.0
C1010 C 0.57636 0.59138 0.10148 0.0
C1011 C 0.54808 0.59462 0.11167 0.0
C1012 C 0.55008 0.58085 0.07929 0.0
C1013 C 0.56794 0.58266 0.08335 0.0
C1014 C 0.54002 0.58723 0.0933 0.0
C1015 C 0.56627 0.59682 0.11574 0.0
C1016 C 0.59481 0.59547 0.1045 0.0
C1017 C 0.60445 0.5909 0.08974 0.0
N1018 N 0.5774 0.57773 0.06917 0.0
C1019 C 0.59552 0.5822 0.07206 0.0
H1020 H 0.60338 0.57902 0.06092 0.0
C1021 C 0.52625 0.57577 0.05603 0.0
N1022 N 0.54296 0.57465 0.06126 0.0
C1023 C 0.51558 0.58145 0.06944 0.0
C1024 C 0.52241 0.58696 0.08823 0.0
H1025 H 0.52104 0.57188 0.04145 0.0
H1026 H 0.57251 0.60334 0.12979 0.0
H1027 H 0.52882 0.50632 0.99242 0.0
H1028 H 0.60177 0.603 0.11792 0.0
H1029 H 0.61878 0.59431 0.0919 0.0
H1030 H 0.54055 0.59947 0.12265 0.0
H1031 H 0.60909 0.51345 0.02093 0.0
H1032 H 0.53751 0.492 0.93513 0.0
H1033 H 0.51711 0.49566 0.95931 0.0
H1034 H 0.59939 0.49459 0.93837 0.0
H1035 H 0.50217 0.58179 0.06525 0.0
H1036 H 0.51424 0.5917 0.09858 0.0
H1037 H 0.56838 0.49202 0.92741 0.0
H1038 H 0.63051 0.50528 0.99947 0.0
N1039 N 0.55586 0.50966 0.98727 0.0
C1040 C 0.54278 0.49682 0.9497 0.0
C1041 C 0.53122 0.49879 0.96331 0.0
C1042 C 0.56091 0.50023 0.95516 0.0
C1043 C 0.56709 0.50655 0.97432 0.0
C1044 C 0.53798 0.5049 0.98214 0.0
N1045 N 0.5895 0.51257 0.9991 0.0
C1046 C 0.5845 0.50805 0.98043 0.0
C1047 C 0.61767 0.50616 0.99392 0.0
C1048 C 0.61316 0.50273 0.97462 0.0
C1049 C 0.6055 0.51078 0.00603 0.0
C1050 C 0.59626 0.50321 0.96765 0.0
H1051 H 0.62258 0.49905 0.96526 0.0
O1052 O 0.57624 0.49955 0.03222 0.0
O1053 O 0.56888 0.53962 0.04682 0.0
O1054 O 0.58931 0.56937 0.03051 0.0
O1055 O 0.59111 0.54192 0.01006 0.0
O1056 O 0.59071 0.52917 0.0424 0.0
O1057 O 0.55091 0.49217 0.0152 0.0
O1058 O 0.55124 0.58671 0.02831 0.0
O1059 O 0.56066 0.54624 0.01128 0.0
O1060 O 0.53988 0.51682 0.02494 0.0
O1061 O 0.5384 0.54361 0.0466 0.0
O1062 O 0.53905 0.5571 0.01586 0.0
O1063 O 0.57926 0.59263 0.03777 0.0
C1064 C 0.58364 0.53881 0.05488 0.0
C1065 C 0.59049 0.49812 0.94844 0.0
C1066 C 0.57284 0.49666 0.9422 0.0
C1067 C 0.56201 0.48619 0.02505 0.0
C1068 C 0.56455 0.46739 0.01771 0.0
C1069 C 0.57237 0.46332 1.0012 0.0
C1070 C 0.55947 0.45334 0.02822 0.0
C1071 C 0.56218 0.43513 0.02256 0.0
C1072 C 0.57534 0.44516 0.99558 0.0
C1073 C 0.57037 0.43106 0.00631 0.0
C1074 C 0.59759 0.5601 0.01829 0.0
C1075 C 0.54596 0.54729 1.00334 0.0
C1076 C 0.56666 0.59911 0.03107 0.0
C1077 C 0.56705 0.61894 0.03865 0.0
C1078 C 0.56534 0.6255 0.05749 0.0
C1079 C 0.56956 0.63164 0.0264 0.0
C1080 C 0.5704 0.65103 0.0327 0.0
C1081 C 0.56623 0.64492 0.06393 0.0
C1082 C 0.56882 0.65773 0.0516 0.0
C1083 C 0.53148 0.52584 0.03727 0.0
H1084 H 0.57622 0.47404 0.99279 0.0
H1085 H 0.55363 0.45673 0.0411 0.0
H1086 H 0.58151 0.44203 0.98293 0.0
H1087 H 0.57269 0.41702 1.00185 0.0
H1088 H 0.56348 0.61574 0.06714 0.0
H1089 H 0.5712 0.62641 0.01192 0.0
H1090 H 0.56494 0.65006 0.07847 0.0
H1091 H 0.56944 0.67272 0.05675 0.0
Gd1092 Gd 0.79128 0.27862 0.26935 0.0
Gd1093 Gd 0.83184 0.31115 0.26465 0.0
C1094 C 0.84119 0.37116 0.25117 0.0
C1095 C 0.85212 0.3667 0.22071 0.0
C1096 C 0.84397 0.33974 0.23655 0.0
C1097 C 0.83925 0.3515 0.25132 0.0
C1098 C 0.85064 0.34727 0.22116 0.0
C1099 C 0.84743 0.37863 0.2357 0.0
C1100 C 0.83713 0.38284 0.26675 0.0
C1101 C 0.83154 0.37493 0.28207 0.0
N1102 N 0.83343 0.3439 0.26616 0.0
C1103 C 0.82982 0.35536 0.28158 0.0
H1104 H 0.82549 0.34957 0.29357 0.0
C1105 C 0.84858 0.30946 0.22397 0.0
N1106 N 0.84275 0.32114 0.23762 0.0
C1107 C 0.85504 0.31621 0.20834 0.0
C1108 C 0.85601 0.33517 0.20687 0.0
H1109 H 0.84798 0.29476 0.22476 0.0
H1110 H 0.84893 0.39367 0.2353 0.0
H1111 H 0.79758 0.2408 0.23964 0.0
H1112 H 0.83846 0.39801 0.26717 0.0
H1113 H 0.82851 0.38386 0.29426 0.0
H1114 H 0.85718 0.37272 0.20898 0.0
H1115 H 0.77352 0.29307 0.30839 0.0
H1116 H 0.79109 0.1933 0.26749 0.0
H1117 H 0.79761 0.20716 0.23939 0.0
H1118 H 0.77245 0.21719 0.32626 0.0
H1119 H 0.85935 0.30678 0.19746 0.0
H1120 H 0.86117 0.34041 0.19481 0.0
H1121 H 0.78187 0.19724 0.29999 0.0
H1122 H 0.76375 0.28079 0.3363 0.0
N1123 N 0.79178 0.24639 0.2679 0.0
C1124 C 0.79117 0.20817 0.26773 0.0
C1125 C 0.79481 0.21592 0.25184 0.0
C1126 C 0.78704 0.2195 0.28352 0.0
C1127 C 0.78732 0.23878 0.28311 0.0
C1128 C 0.79482 0.23507 0.25208 0.0
N1129 N 0.78121 0.26796 0.29631 0.0
C1130 C 0.7818 0.24989 0.29775 0.0
C1131 C 0.76884 0.27196 0.32559 0.0
C1132 C 0.76986 0.2536 0.32754 0.0
C1133 C 0.77438 0.27886 0.3097 0.0
C1134 C 0.77617 0.24221 0.31342 0.0
H1135 H 0.76543 0.24824 0.33981 0.0
O1136 O 0.76358 0.27881 0.26736 0.0
O1137 O 0.80217 0.30853 0.2632 0.0
O1138 O 0.82255 0.31628 0.29304 0.0
O1139 O 0.80773 0.2862 0.29698 0.0
O1140 O 0.78343 0.30578 0.28134 0.0
O1141 O 0.77347 0.26148 0.24525 0.0
O1142 O 0.85815 0.30691 0.26826 0.0
O1143 O 0.82052 0.28131 0.27052 0.0
O1144 O 0.79995 0.27476 0.24051 0.0
O1145 O 0.81536 0.30503 0.23731 0.0
O1146 O 0.83895 0.28359 0.25184 0.0
O1147 O 0.85093 0.32916 0.28757 0.0
C1148 C 0.7926 0.31798 0.27267 0.0
C1149 C 0.77663 0.22331 0.31429 0.0
C1150 C 0.78203 0.21197 0.29936 0.0
C1151 C 0.75969 0.26625 0.25171 0.0
C1152 C 0.7435 0.25083 0.25025 0.0
C1153 C 0.7433 0.23353 0.25607 0.0
C1154 C 0.72779 0.25386 0.24298 0.0
C1155 C 0.7117 0.23988 0.24169 0.0
C1156 C 0.72734 0.2194 0.25464 0.0
C1157 C 0.71156 0.22253 0.24749 0.0
C1158 C 0.8167 0.30401 0.30379 0.0
C1159 C 0.82938 0.27158 0.26039 0.0
C1160 C 0.86349 0.32113 0.28248 0.0
C1161 C 0.88099 0.33381 0.28197 0.0
C1162 C 0.88364 0.3474 0.27038 0.0
C1163 C 0.89555 0.33102 0.29207 0.0
C1164 C 0.91272 0.34135 0.29022 0.0
C1165 C 0.90078 0.35785 0.26865 0.0
C1166 C 0.91533 0.35472 0.27841 0.0
C1167 C 0.80568 0.28758 0.23022 0.0
H1168 H 0.75536 0.23091 0.26167 0.0
H1169 H 0.72815 0.26718 0.23824 0.0
H1170 H 0.72719 0.20607 0.25918 0.0
H1171 H 0.69927 0.21156 0.24678 0.0
H1172 H 0.87259 0.34973 0.26249 0.0
H1173 H 0.89359 0.32036 0.30089 0.0
H1174 H 0.90278 0.3682 0.25956 0.0
H1175 H 0.9286 0.36272 0.27681 0.0
Gd1176 Gd 0.05582 0.56388 0.51352 0.0
Gd1177 Gd 0.0651 0.54778 0.55736 0.0
C1178 C 0.12046 0.56901 0.58949 0.0
C1179 C 0.13014 0.53956 0.58629 0.0
C1180 C 0.10072 0.53894 0.57305 0.0
C1181 C 0.10408 0.55852 0.57931 0.0
C1182 C 0.11352 0.52911 0.57683 0.0
C1183 C 0.13362 0.5595 0.59257 0.0
C1184 C 0.12295 0.58864 0.59662 0.0
C1185 C 0.10905 0.59712 0.59411 0.0
N1186 N 0.09101 0.56715 0.57613 0.0
C1187 C 0.09302 0.58606 0.584 0.0
H1188 H 0.08255 0.59297 0.58212 0.0
C1189 C 0.07977 0.50971 0.5595 0.0
N1190 N 0.08455 0.52935 0.56402 0.0
C1191 C 0.092 0.49928 0.5629 0.0
C1192 C 0.10904 0.50904 0.5714 0.0
H1193 H 0.06667 0.50216 0.55272 0.0
H1194 H 0.14636 0.56734 0.60018 0.0
H1195 H 0.03653 0.51934 0.48865 0.0
H1196 H 0.13536 0.59724 0.60443 0.0
H1197 H 0.1107 0.61221 0.59987 0.0
H1198 H 0.14023 0.53231 0.58917 0.0
H1199 H 0.05517 0.60996 0.52371 0.0
H1200 H 0.99092 0.52183 0.45541 0.0
H1201 H 0.01117 0.5034 0.46516 0.0
H1202 H 0.9881 0.58712 0.47387 0.0
H1203 H 0.0883 0.48375 0.55892 0.0
H1204 H 0.1185 0.50094 0.57405 0.0
H1205 H 0.98185 0.55285 0.45939 0.0
H1206 H 0.03605 0.63052 0.51616 0.0
N1207 N 0.03045 0.54653 0.49305 0.0
C1208 C 1.00167 0.52877 0.46629 0.0
C1209 C 0.01323 0.5184 0.47157 0.0
C1210 C 1.00443 0.54812 0.4747 0.0
C1211 C 0.01923 0.55676 0.4881 0.0
C1212 C 0.0277 0.52759 0.48491 0.0
N1213 N 0.03788 0.58416 0.50787 0.0
C1214 C 0.02295 0.57612 0.49592 0.0
C1215 C 0.03217 0.61524 0.51042 0.0
C1216 C 0.01647 0.60709 0.49855 0.0
C1217 C 0.04295 0.60356 0.51467 0.0
C1218 C 0.01183 0.58737 0.49089 0.0
H1219 H 0.00824 0.6162 0.49508 0.0
O1220 O 0.07223 0.58391 0.49926 0.0
O1221 O 0.07548 0.56479 0.53665 0.0
O1222 O 0.05673 0.57575 0.56165 0.0
O1223 O 0.03934 0.57454 0.5343 0.0
O1224 O 0.07706 0.59036 0.52838 0.0
O1225 O 0.06574 0.55293 0.48809 0.0
O1226 O 0.05002 0.52808 0.57301 0.0
O1227 O 0.04559 0.54614 0.5338 0.0
O1228 O 0.06318 0.53559 0.50817 0.0
O1229 O 0.07943 0.53415 0.53549 0.0
O1230 O 0.04403 0.52095 0.54297 0.0
O1231 O 0.05401 0.55898 0.5819 0.0
C1232 C 0.08437 0.58197 0.53949 0.0
C1233 C 0.99679 0.57872 0.47796 0.0
C1234 C 0.99319 0.55918 0.46975 0.0
C1235 C 0.07264 0.57021 0.48529 0.0
C1236 C 0.06843 0.57324 0.46662 0.0
C1237 C 0.05718 0.5847 0.46283 0.0
C1238 C 0.07645 0.56459 0.45232 0.0
C1239 C 0.07474 0.56856 0.43443 0.0
C1240 C 0.05448 0.58778 0.44469 0.0
C1241 C 0.0634 0.57997 0.43053 0.0
C1242 C 0.04425 0.58088 0.55227 0.0
C1243 C 0.0369 0.52887 0.53125 0.0
C1244 C 0.04774 0.54201 0.58564 0.0
C1245 C 0.05111 0.54066 0.60503 0.0
C1246 C 0.06744 0.5388 0.61236 0.0
C1247 C 0.03795 0.54264 0.61666 0.0
C1248 C 0.041 0.54305 0.63575 0.0
C1249 C 0.0705 0.53906 0.63144 0.0
C1250 C 0.05737 0.54133 0.64318 0.0
C1251 C 0.07453 0.52881 0.51735 0.0
H1252 H 0.05073 0.59143 0.4738 0.0
H1253 H 0.08477 0.55539 0.45544 0.0
H1254 H 0.0459 0.59672 0.44173 0.0
H1255 H 0.06193 0.58341 0.41682 0.0
H1256 H 0.07779 0.53742 0.60344 0.0
H1257 H 0.02549 0.54448 0.61094 0.0
H1258 H 0.08311 0.53771 0.63716 0.0
H1259 H 0.05993 0.54168 0.65798 0.0
Gd1260 Gd 0.82792 0.78949 0.27421 0.0
Gd1261 Gd 0.7841 0.79955 0.27173 0.0
C1262 C 0.75256 0.79205 0.21501 0.0
C1263 C 0.74977 0.82443 0.2151 0.0
C1264 C 0.7661 0.8177 0.24134 0.0
C1265 C 0.76293 0.79869 0.23249 0.0
C1266 C 0.75924 0.83071 0.23293 0.0
C1267 C 0.74628 0.80509 0.20625 0.0
C1268 C 0.74786 0.77234 0.20744 0.0
C1269 C 0.75288 0.75971 0.21754 0.0
N1270 N 0.76828 0.78631 0.24189 0.0
C1271 C 0.76282 0.76692 0.23497 0.0
H1272 H 0.76635 0.75679 0.24252 0.0
C1273 C 0.7751 0.84066 0.26952 0.0
N1274 N 0.77426 0.82296 0.25901 0.0
C1275 C 0.76889 0.85421 0.26167 0.0
C1276 C 0.76114 0.8493 0.24318 0.0
H1277 H 0.78101 0.84447 0.28387 0.0
H1278 H 0.73797 0.80021 0.19307 0.0
H1279 H 0.85023 0.83097 0.30282 0.0
H1280 H 0.73975 0.76662 0.1942 0.0
H1281 H 0.74896 0.74438 0.212 0.0
H1282 H 0.74436 0.83419 0.20842 0.0
H1283 H 0.83314 0.74523 0.26106 0.0
H1284 H 0.86798 0.8182 0.35433 0.0
H1285 H 0.86571 0.84187 0.33459 0.0
H1286 H 0.8568 0.74964 0.34034 0.0
H1287 H 0.76998 0.86836 0.2699 0.0
H1288 H 0.75606 0.85971 0.23721 0.0
H1289 H 0.86382 0.78349 0.35665 0.0
H1290 H 0.84042 0.71962 0.27566 0.0
N1291 N 0.84345 0.80127 0.30437 0.0
C1292 C 0.86118 0.81329 0.34031 0.0
C1293 C 0.86004 0.82667 0.32917 0.0
C1294 C 0.85459 0.79366 0.33275 0.0
C1295 C 0.84598 0.78807 0.31438 0.0
C1296 C 0.85119 0.82038 0.31109 0.0
N1297 N 0.8363 0.76507 0.28685 0.0
C1298 C 0.84217 0.76917 0.30527 0.0
C1299 C 0.84081 0.73344 0.2842 0.0
C1300 C 0.84532 0.73689 0.3035 0.0
C1301 C 0.83676 0.74796 0.27598 0.0
C1302 C 0.84668 0.75517 0.3142 0.0
H1303 H 0.84866 0.72571 0.30982 0.0
O1304 O 0.84326 0.78032 0.25204 0.0
O1305 O 0.80565 0.7925 0.25548 0.0
O1306 O 0.78092 0.76758 0.27286 0.0
O1307 O 0.80871 0.76237 0.27963 0.0
O1308 O 0.81552 0.76879 0.24768 0.0
O1309 O 0.85346 0.80778 0.27036 0.0
O1310 O 0.76824 0.8099 0.29292 0.0
O1311 O 0.80662 0.79718 0.29045 0.0
O1312 O 0.83081 0.82167 0.27419 0.0
O1313 O 0.8033 0.82585 0.26434 0.0
O1314 O 0.79677 0.82098 0.29774 0.0
O1315 O 0.75973 0.78073 0.27769 0.0
C1316 C 0.80436 0.77783 0.24279 0.0
C1317 C 0.85355 0.76026 0.33311 0.0
C1318 C 0.85753 0.77953 0.3424 0.0
C1319 C 0.8567 0.79529 0.25691 0.0
C1320 C 0.8743 0.79137 0.25876 0.0
C1321 C 0.87861 0.78249 0.27322 0.0
C1322 C 0.88681 0.79625 0.24609 0.0
C1323 C 0.9035 0.79203 0.24787 0.0
C1324 C 0.89475 0.77779 0.27473 0.0
C1325 C 0.90702 0.78234 0.26212 0.0
C1326 C 0.79112 0.75631 0.27674 0.0
C1327 C 0.80816 0.81225 0.3027 0.0
C1328 C 0.7557 0.79397 0.28978 0.0
C1329 C 0.73726 0.79576 0.28729 0.0
C1330 C 0.73076 0.79883 0.27012 0.0
C1331 C 0.72602 0.79446 0.30181 0.0
C1332 C 0.70859 0.79669 0.29909 0.0
C1333 C 0.71364 0.80091 0.26737 0.0
C1334 C 0.70267 0.7999 0.28168 0.0
C1335 C 0.82082 0.83245 0.26857 0.0
H1336 H 0.8695 0.77911 0.28336 0.0
H1337 H 0.88367 0.80353 0.23517 0.0
H1338 H 0.89778 0.7706 0.28575 0.0
H1339 H 0.91932 0.77818 0.26357 0.0
H1340 H 0.7389 0.7995 0.25876 0.0
H1341 H 0.73086 0.79203 0.31512 0.0
H1342 H 0.70883 0.80326 0.25402 0.0
H1343 H 0.68936 0.8014 0.27901 0.0
Gd1344 Gd 0.80554 0.31046 0.79331 0.0
Gd1345 Gd 0.82435 0.29388 0.75103 0.0
C1346 C 0.7951 0.23473 0.71565 0.0
C1347 C 0.81785 0.21749 0.71575 0.0
C1348 C 0.82299 0.24957 0.7349 0.0
C1349 C 0.80655 0.25072 0.728 0.0
C1350 C 0.82872 0.23277 0.72892 0.0
C1351 C 0.80099 0.21835 0.70928 0.0
C1352 C 0.77798 0.23552 0.71012 0.0
C1353 C 0.77238 0.25167 0.71737 0.0
N1354 N 0.80145 0.26709 0.7339 0.0
C1355 C 0.78418 0.26717 0.72941 0.0
H1356 H 0.77865 0.27836 0.73578 0.0
C1357 C 0.85048 0.26452 0.75271 0.0
N1358 N 0.83356 0.26491 0.74708 0.0
C1359 C 0.85646 0.24803 0.74774 0.0
C1360 C 0.84549 0.23201 0.73583 0.0
H1361 H 0.86001 0.27719 0.76012 0.0
H1362 H 0.7926 0.20633 0.69929 0.0
H1363 H 0.85026 0.32991 0.8113 0.0
H1364 H 0.7688 0.22349 0.70081 0.0
H1365 H 0.75885 0.25209 0.71397 0.0
H1366 H 0.82248 0.20501 0.71037 0.0
H1367 H 0.76638 0.32043 0.78595 0.0
H1368 H 0.85294 0.3822 0.84791 0.0
H1369 H 0.86679 0.35659 0.8351 0.0
H1370 H 0.79873 0.39701 0.83204 0.0
H1371 H 0.86982 0.24801 0.75249 0.0
H1372 H 0.8503 0.21937 0.73158 0.0
H1373 H 0.82888 0.39857 0.84482 0.0
H1374 H 0.75274 0.34711 0.79414 0.0
N1375 N 0.82596 0.33859 0.8112 0.0
C1376 C 0.84566 0.37059 0.83702 0.0
C1377 C 0.85327 0.35587 0.83019 0.0
C1378 C 0.82877 0.37024 0.82964 0.0
C1379 C 0.81898 0.35377 0.81671 0.0
C1380 C 0.84337 0.34017 0.81695 0.0
N1381 N 0.79249 0.33663 0.79774 0.0
C1382 C 0.80197 0.35292 0.8095 0.0
C1383 C 0.7667 0.34916 0.79827 0.0
C1384 C 0.7767 0.36657 0.80893 0.0
C1385 C 0.77468 0.33414 0.79336 0.0
C1386 C 0.79439 0.36845 0.81517 0.0
H1387 H 0.77044 0.37813 0.813 0.0
O1388 O 0.77858 0.29611 0.79715 0.0
O1389 O 0.80357 0.28642 0.76932 0.0
O1390 O 0.80269 0.30561 0.73951 0.0
O1391 O 0.79048 0.31532 0.76703 0.0
O1392 O 0.80398 0.28007 0.79613 0.0
O1393 O 0.79763 0.31251 0.82124 0.0
O1394 O 0.85193 0.30299 0.74658 0.0
O1395 O 0.8266 0.31756 0.77535 0.0
O1396 O 0.82877 0.30101 0.80496 0.0
O1397 O 0.84144 0.29262 0.77743 0.0
O1398 O 0.82889 0.32529 0.7495 0.0
O1399 O 0.8316 0.29297 0.7228 0.0
C1400 C 0.80313 0.27332 0.77849 0.0
C1401 C 0.80433 0.38499 0.82761 0.0
C1402 C 0.82144 0.38582 0.83496 0.0
C1403 C 0.7812 0.30323 0.81509 0.0
C1404 C 0.77041 0.29327 0.82757 0.0
C1405 C 0.75639 0.30038 0.83416 0.0
C1406 C 0.77471 0.278 0.8341 0.0
C1407 C 0.76553 0.27031 0.8481 0.0
C1408 C 0.74696 0.29259 0.84773 0.0
C1409 C 0.75164 0.27786 0.85491 0.0
C1410 C 0.79086 0.313 0.74851 0.0
C1411 C 0.82885 0.3315 0.76711 0.0
C1412 C 0.84846 0.30039 0.72853 0.0
C1413 C 0.85813 0.3159 0.71997 0.0
C1414 C 0.87662 0.3196 0.72053 0.0
C1415 C 0.84923 0.32697 0.71124 0.0
C1416 C 0.85861 0.34118 0.70234 0.0
C1417 C 0.88611 0.33406 0.71216 0.0
C1418 C 0.87718 0.3447 0.70295 0.0
C1419 C 0.84139 0.29517 0.79596 0.0
H1420 H 0.75305 0.31228 0.82914 0.0
H1421 H 0.78539 0.27252 0.82849 0.0
H1422 H 0.73632 0.29833 0.85307 0.0
H1423 H 0.74464 0.27285 0.86614 0.0
H1424 H 0.8837 0.31121 0.72737 0.0
H1425 H 0.83497 0.32436 0.71118 0.0
H1426 H 0.90037 0.33677 0.71249 0.0
H1427 H 0.88477 0.35526 0.69585 0.0
Gd1428 Gd 0.78689 0.76738 0.75791 0.0
Gd1429 Gd 0.81421 0.81477 0.78114 0.0
C1430 C 0.87014 0.82548 0.76215 0.0
C1431 C 0.88612 0.81377 0.78503 0.0
C1432 C 0.85491 0.81283 0.78696 0.0
C1433 C 0.85456 0.8206 0.77107 0.0
C1434 C 0.87092 0.80992 0.79443 0.0
C1435 C 0.88574 0.82154 0.76892 0.0
C1436 C 0.86978 0.83473 0.74703 0.0
C1437 C 0.85449 0.83989 0.74184 0.0
N1438 N 0.83929 0.82433 0.76487 0.0
C1439 C 0.83953 0.83505 0.75126 0.0
H1440 H 0.82855 0.84072 0.74793 0.0
C1441 C 0.84122 0.80579 0.81359 0.0
N1442 N 0.84 0.80931 0.79581 0.0
C1443 C 0.85661 0.80245 0.82141 0.0
C1444 C 0.87141 0.80402 0.81156 0.0
H1445 H 0.83069 0.80619 0.82237 0.0
H1446 H 0.89773 0.82497 0.76211 0.0
H1447 H 0.77403 0.74286 0.79266 0.0
H1448 H 0.88144 0.83875 0.73986 0.0
H1449 H 0.85432 0.8481 0.73094 0.0
H1450 H 0.89841 0.81136 0.79044 0.0
H1451 H 0.77026 0.7753 0.71646 0.0
H1452 H 0.71944 0.73736 0.79607 0.0
H1453 H 0.74771 0.73274 0.80795 0.0
H1454 H 0.70116 0.76334 0.74533 0.0
H1455 H 0.85718 0.79918 0.83527 0.0
H1456 H 0.88343 0.80169 0.81776 0.0
H1457 H 0.70218 0.74896 0.77292 0.0
H1458 H 0.74323 0.7803 0.70275 0.0
N1459 N 0.76213 0.75723 0.77426 0.0
C1460 C 0.73129 0.7434 0.79019 0.0
C1461 C 0.74726 0.74063 0.79682 0.0
C1462 C 0.73059 0.75265 0.77516 0.0
C1463 C 0.74639 0.75935 0.76722 0.0
C1464 C 0.76246 0.74711 0.78834 0.0
N1465 N 0.76082 0.77177 0.74286 0.0
C1466 C 0.74574 0.76694 0.75119 0.0
C1467 C 0.74382 0.77716 0.71666 0.0
C1468 C 0.72869 0.77417 0.72591 0.0
C1469 C 0.75957 0.77512 0.72501 0.0
C1470 C 0.72932 0.76822 0.74299 0.0
H1471 H 0.71636 0.77529 0.71921 0.0
O1472 O 0.78812 0.75164 0.73009 0.0
O1473 O 0.81346 0.78784 0.76127 0.0
O1474 O 0.80381 0.81852 0.75308 0.0
O1475 O 0.79524 0.78666 0.7371 0.0
O1476 O 0.81263 0.75982 0.76362 0.0
O1477 O 0.77664 0.73649 0.75117 0.0
O1478 O 0.81472 0.83079 0.80924 0.0
O1479 O 0.7876 0.79428 0.77741 0.0
O1480 O 0.79807 0.76412 0.786 0.0
O1481 O 0.80506 0.79591 0.80211 0.0
O1482 O 0.78819 0.82232 0.77593 0.0
O1483 O 0.82348 0.8458 0.78712 0.0
C1484 C 0.82289 0.77648 0.76315 0.0
C1485 C 0.71383 0.76247 0.75145 0.0
C1486 C 0.71444 0.75445 0.76732 0.0
C1487 C 0.78186 0.73499 0.7345 0.0
C1488 C 0.79191 0.72077 0.72951 0.0
C1489 C 0.79157 0.71209 0.71073 0.0
C1490 C 0.80179 0.71564 0.74344 0.0
C1491 C 0.81097 0.70172 0.73868 0.0
C1492 C 0.80085 0.69815 0.70598 0.0
C1493 C 0.81043 0.69283 0.71995 0.0
C1494 C 0.79887 0.80541 0.73753 0.0
C1495 C 0.77797 0.80539 0.77546 0.0
C1496 C 0.81938 0.84736 0.80424 0.0
C1497 C 0.80855 0.86072 0.81007 0.0
C1498 C 0.80524 0.86474 0.82884 0.0
C1499 C 0.80102 0.8691 0.79694 0.0
C1500 C 0.79016 0.88114 0.80247 0.0
C1501 C 0.79433 0.87682 0.83434 0.0
C1502 C 0.78673 0.88497 0.82116 0.0
C1503 C 0.80235 0.77723 0.80162 0.0
H1504 H 0.78402 0.71598 0.69982 0.0
H1505 H 0.80203 0.72207 0.75805 0.0
H1506 H 0.80048 0.69135 0.69151 0.0
H1507 H 0.81735 0.68178 0.7162 0.0
H1508 H 0.81097 0.85841 0.8392 0.0
H1509 H 0.80339 0.8662 0.78236 0.0
H1510 H 0.79177 0.87985 0.8488 0.0
H1511 H 0.77836 0.89442 0.82554 0.0
Gd1512 Gd 0.58488 0.56334 0.54456 0.0
Gd1513 Gd 0.54163 0.53755 0.52259 0.0
C1514 C 0.5283 0.47313 0.52291 0.0
C1515 C 0.52865 0.45933 0.49028 0.0
C1516 C 0.53377 0.49399 0.50036 0.0
C1517 C 0.53219 0.49177 0.51873 0.0
C1518 C 0.53114 0.47763 0.48588 0.0
C1519 C 0.52729 0.45709 0.50877 0.0
C1520 C 0.52468 0.47097 0.541 0.0
C1521 C 0.52396 0.48695 0.55415 0.0
N1522 N 0.53293 0.50752 0.53218 0.0
C1523 C 0.52786 0.50511 0.54945 0.0
H1524 H 0.52684 0.51687 0.56004 0.0
C1525 C 0.53323 0.51382 0.47819 0.0
N1526 N 0.53604 0.51182 0.49639 0.0
C1527 C 0.53069 0.49808 0.46345 0.0
C1528 C 0.53012 0.47998 0.46731 0.0
H1529 H 0.53381 0.52779 0.47493 0.0
H1530 H 0.52463 0.44276 0.51185 0.0
H1531 H 0.5934 0.59196 0.51346 0.0
H1532 H 0.52167 0.45692 0.54473 0.0
H1533 H 0.52047 0.48534 0.56799 0.0
H1534 H 0.52696 0.44669 0.47937 0.0
H1535 H 0.59559 0.56101 0.58967 0.0
H1536 H 0.6036 0.65004 0.54257 0.0
H1537 H 0.60072 0.62634 0.51297 0.0
H1538 H 0.60613 0.64516 0.60666 0.0
H1539 H 0.52922 0.49995 0.44914 0.0
H1540 H 0.52806 0.46776 0.45585 0.0
H1541 H 0.60524 0.65705 0.57728 0.0
H1542 H 0.60355 0.58289 0.62024 0.0
N1543 N 0.59151 0.59591 0.54278 0.0
C1544 C 0.60038 0.63494 0.5427 0.0
C1545 C 0.59879 0.62163 0.52607 0.0
C1546 C 0.59869 0.62865 0.5596 0.0
C1547 C 0.59442 0.60874 0.55923 0.0
C1548 C 0.59462 0.60206 0.52642 0.0
N1549 N 0.5924 0.58283 0.57481 0.0
C1550 C 0.59495 0.60203 0.57576 0.0
C1551 C 0.60091 0.58843 0.60789 0.0
C1552 C 0.60226 0.608 0.60926 0.0
C1553 C 0.59617 0.57601 0.59046 0.0
C1554 C 0.5997 0.61511 0.59305 0.0
H1555 H 0.60602 0.6176 0.62277 0.0
O1556 O 0.60406 0.54612 0.54226 0.0
O1557 O 0.56679 0.53369 0.5352 0.0
O1558 O 0.53914 0.54603 0.55386 0.0
O1559 O 0.56572 0.56789 0.56718 0.0
O1560 O 0.57973 0.54057 0.56196 0.0
O1561 O 0.61279 0.57681 0.54454 0.0
O1562 O 0.52435 0.54571 0.50295 0.0
O1563 O 0.56273 0.56531 0.52533 0.0
O1564 O 0.58706 0.55826 0.51266 0.0
O1565 O 0.56041 0.53687 0.49926 0.0
O1566 O 0.53819 0.56761 0.53163 0.0
O1567 O 0.51362 0.53134 0.5253 0.0
C1568 C 0.56913 0.52704 0.54985 0.0
C1569 C 0.60267 0.63492 0.59351 0.0
C1570 C 0.60216 0.64168 0.57679 0.0
C1571 C 0.61752 0.561 0.54426 0.0
C1572 C 0.63241 0.56176 0.55766 0.0
C1573 C 0.6362 0.57439 0.57513 0.0
C1574 C 0.64338 0.54979 0.55244 0.0
C1575 C 0.65809 0.55027 0.56449 0.0
C1576 C 0.65048 0.57432 0.58752 0.0
C1577 C 0.66142 0.56224 0.58226 0.0
C1578 C 0.54898 0.55851 0.56836 0.0
C1579 C 0.55372 0.57735 0.52967 0.0
C1580 C 0.51044 0.53934 0.51131 0.0
C1581 C 0.49322 0.53181 0.50039 0.0
C1582 C 0.48802 0.51365 0.48862 0.0
C1583 C 0.48126 0.54311 0.50315 0.0
C1584 C 0.46396 0.53652 0.49431 0.0
C1585 C 0.47077 0.507 0.47952 0.0
C1586 C 0.45871 0.51833 0.4824 0.0
C1587 C 0.57698 0.54636 0.4979 0.0
H1588 H 0.62841 0.58447 0.57909 0.0
H1589 H 0.64067 0.54031 0.5388 0.0
H1590 H 0.6533 0.58396 0.60102 0.0
H1591 H 0.6728 0.56274 0.59171 0.0
H1592 H 0.4971 0.5046 0.48669 0.0
H1593 H 0.48533 0.55689 0.51279 0.0
H1594 H 0.46666 0.49298 0.47039 0.0
H1595 H 0.44538 0.51294 0.47533 0.0
Gd1596 Gd 0.03728 0.54372 0.04556 0.0
Gd1597 Gd 0.08152 0.55205 0.02907 0.0
C1598 C 0.11525 0.61295 0.03069 0.0
C1599 C 0.11619 0.61362 0.99763 0.0
C1600 C 0.10059 0.58456 0.00751 0.0
C1601 C 0.10492 0.59373 0.02599 0.0
C1602 C 0.10644 0.59425 0.99309 0.0
C1603 C 0.12056 0.62296 0.01641 0.0
C1604 C 0.12029 0.62138 0.04958 0.0
C1605 C 0.11556 0.61043 0.06317 0.0
N1606 N 0.09972 0.58354 0.03939 0.0
C1607 C 0.10542 0.59137 0.0578 0.0
H1608 H 0.10187 0.58322 0.06855 0.0
C1609 C 0.08814 0.55559 0.98571 0.0
N1610 N 0.09127 0.56586 1.00365 0.0
C1611 C 0.09357 0.56458 0.9709 0.0
C1612 C 0.10262 0.58406 0.97459 0.0
H1613 H 0.08103 0.54057 0.98277 0.0
H1614 H 0.12838 0.63779 0.01973 0.0
H1615 H 0.01657 0.50971 0.00857 0.0
H1616 H 0.12815 0.63614 0.05378 0.0
H1617 H 0.11965 0.61668 0.07781 0.0
H1618 H 0.12069 0.62138 0.98676 0.0
H1619 H 0.03759 0.56021 0.09147 0.0
H1620 H 0.98896 0.46019 0.02834 0.0
H1621 H 0.99795 0.47639 1.00216 0.0
H1622 H 0.99618 0.4819 0.09484 0.0
H1623 H 0.09074 0.55651 0.95667 0.0
H1624 H 0.10685 0.591 0.9631 0.0
H1625 H 0.98847 0.46234 0.063 0.0
H1626 H 0.02684 0.54799 0.11908 0.0
N1627 N 0.0189 0.51218 0.03812 0.0
C1628 C 0.99727 0.47481 0.03125 0.0
C1629 C 1.00227 0.48392 0.01644 0.0
C1630 C 1.00253 0.48491 0.04965 0.0
C1631 C 0.01344 0.50386 0.05266 0.0
C1632 C 0.01287 0.50283 0.02016 0.0
N1633 N 0.02756 0.53326 0.0727 0.0
C1634 C 0.01786 0.51477 0.07054 0.0
C1635 C 0.02431 0.53845 0.10552 0.0
C1636 C 0.01496 0.51922 0.10365 0.0
C1637 C 0.0304 0.54533 0.0898 0.0
C1638 C 0.0114 0.50718 0.08596 0.0
H1639 H 0.01019 0.51395 0.11585 0.0
O1640 O 0.02396 0.56597 0.05467 0.0
O1641 O 0.06105 0.56564 0.04075 0.0
O1642 O 0.08157 0.55226 0.05992 0.0
O1643 O 0.05421 0.53377 0.0652 0.0
O1644 O 0.05037 0.57198 0.06526 0.0
O1645 O 0.01284 0.54407 0.03004 0.0
O1646 O 0.09647 0.53249 0.01659 0.0
O1647 O 0.05772 0.52989 0.03341 0.0
O1648 O 0.03689 0.54183 0.01448 0.0
O1649 O 0.06367 0.56198 0.01021 0.0
O1650 O 0.06875 0.52435 0.00873 0.0
O1651 O 0.10436 0.54844 0.04495 0.0
C1652 C 0.06246 0.57856 0.05517 0.0
C1653 C 1.00115 0.48805 0.08315 0.0
C1654 C 0.99676 0.47692 0.06502 0.0
C1655 C 0.01078 0.55893 0.0416 0.0
C1656 C 0.99311 0.55751 0.04775 0.0
C1657 C 0.98614 0.54416 0.05873 0.0
C1658 C 0.98324 0.56991 0.04289 0.0
C1659 C 0.96631 0.5688 0.0488 0.0
C1660 C 0.96946 0.54319 0.06485 0.0
C1661 C 0.95957 0.5554 0.05992 0.0
C1662 C 0.07133 0.54156 0.06987 0.0
C1663 C 0.05663 0.51741 0.01863 0.0
C1664 C 0.10802 0.53646 0.03126 0.0
C1665 C 0.12671 0.53989 0.02777 0.0
C1666 C 0.13521 0.55657 0.02165 0.0
C1667 C 0.13626 0.52652 0.03092 0.0
C1668 C 0.15437 0.53006 0.02832 0.0
C1669 C 0.15311 0.56001 0.01883 0.0
C1670 C 0.16266 0.54691 0.02221 0.0
C1671 C 0.04666 0.55366 1.00519 0.0
H1672 H 0.99357 0.53455 0.0626 0.0
H1673 H 0.98861 0.58016 0.0343 0.0
H1674 H 0.96417 0.53294 0.07342 0.0
H1675 H 0.94666 0.55443 0.06489 0.0
H1676 H 0.12805 0.56695 0.01914 0.0
H1677 H 0.12971 0.51365 0.03575 0.0
H1678 H 0.15962 0.5729 0.01408 0.0
H1679 H 0.17654 0.54988 0.0199 0.0
H1680 H 0.04898 0.21886 0.9328 0.0
H1681 H 0.05397 0.19233 0.94646 0.0
H1682 H 0.01724 0.20187 0.98662 0.0
H1683 H 0.01313 0.22943 0.97364 0.0
H1684 H 0.04093 0.19214 1.00371 0.0
H1685 H 0.00808 0.16191 0.94403 0.0
H1686 H 1.00155 0.15627 0.90976 0.0
H1687 H 0.05141 0.14258 0.90272 0.0
H1688 H 0.05829 0.14829 0.93695 0.0
H1689 H 0.03894 0.10146 0.03196 0.0
H1690 H 0.03416 0.13046 0.02275 0.0
H1691 H 0.06411 0.12122 0.97569 0.0
H1692 H 0.0665 0.09095 0.98362 0.0
H1693 H 0.04087 0.13067 0.96243 0.0
H1694 H 0.07572 0.17183 0.02396 0.0
H1695 H 0.08101 0.18137 0.05846 0.0
H1696 H 0.02517 0.17342 0.06169 0.0
H1697 H 0.01972 0.16497 0.02723 0.0
C1698 C 0.0419 0.21535 0.94454 0.0
C1699 C 0.03048 0.22632 0.95193 0.0
C1700 C 0.04465 0.19991 0.9523 0.0
C1701 C 0.03558 0.19433 0.96734 0.0
C1702 C 0.02438 0.20552 0.97498 0.0
C1703 C 0.02196 0.22134 0.96748 0.0
C1704 C 0.03799 0.17712 0.97514 0.0
C1705 C 0.04082 0.17867 0.9946 0.0
C1706 C 0.03795 0.1593 0.9636 0.0
C1707 C 0.03374 0.15565 0.94303 0.0
C1708 C 0.01767 0.15776 0.93516 0.0
C1709 C 0.01391 0.15455 0.91575 0.0
C1710 C 0.02607 0.14911 0.90408 0.0
C1711 C 0.042 0.1468 0.91178 0.0
C1712 C 0.04582 0.14998 0.93118 0.0
C1713 C 0.0449 0.10599 0.01996 0.0
C1714 C 0.05361 0.09413 0.00887 0.0
C1715 C 0.04231 0.12289 0.01467 0.0
C1716 C 0.04894 0.12889 0.99848 0.0
C1717 C 0.05846 0.11731 0.98807 0.0
C1718 C 0.06022 0.10002 0.99282 0.0
C1719 C 0.04489 0.14587 0.99116 0.0
C1720 C 0.04141 0.1442 0.97166 0.0
C1721 C 0.04416 0.1635 1.00266 0.0
C1722 C 0.04731 0.16725 0.02321 0.0
C1723 C 0.0646 0.17186 0.03212 0.0
C1724 C 0.06763 0.1772 0.05161 0.0
C1725 C 0.05341 0.1775 0.06227 0.0
C1726 C 0.03615 0.17295 0.05344 0.0
C1727 C 0.03311 0.1681 0.03395 0.0
H1728 H 0.0558 0.18151 0.07735 0.0
H1729 H 0.02314 0.14665 0.88905 0.0
H1730 H 0.15626 0.8364 0.12856 0.0
H1731 H 0.18399 0.83586 0.14558 0.0
H1732 H 0.15729 0.82952 0.19489 0.0
H1733 H 0.12965 0.83038 0.17812 0.0
H1734 H 0.19 0.85275 0.20459 0.0
H1735 H 0.16429 0.79158 0.16414 0.0
H1736 H 0.15233 0.77041 0.1337 0.0
H1737 H 0.20318 0.7862 0.1133 0.0
H1738 H 0.21524 0.80828 0.14338 0.0
H1739 H 0.24702 0.81165 0.25373 0.0
H1740 H 0.22187 0.81708 0.23614 0.0
H1741 H 0.2529 0.82519 0.19002 0.0
H1742 H 0.27847 0.82042 0.20798 0.0
H1743 H 0.21928 0.8025 0.17809 0.0
H1744 H 0.24528 0.8632 0.21814 0.0
H1745 H 0.25745 0.8852 0.24819 0.0
H1746 H 0.20684 0.87004 0.2692 0.0
H1747 H 0.19445 0.84758 0.2394 0.0
C1748 C 0.15632 0.83524 0.14312 0.0
C1749 C 0.14057 0.83338 0.15187 0.0
C1750 C 0.17222 0.83479 0.15284 0.0
C1751 C 0.17279 0.83231 0.17151 0.0
C1752 C 0.1573 0.83139 0.18052 0.0
C1753 C 0.14142 0.83185 0.17084 0.0
C1754 C 0.18916 0.82971 0.18141 0.0
C1755 C 0.19627 0.84165 0.19883 0.0
C1756 C 0.19772 0.81547 0.17385 0.0
C1757 C 0.19061 0.80179 0.15595 0.0
C1758 C 0.17289 0.79069 0.15312 0.0
C1759 C 0.16609 0.77852 0.13591 0.0
C1760 C 0.17701 0.77689 0.12157 0.0
C1761 C 0.19474 0.78749 0.12441 0.0
C1762 C 0.20154 0.79992 0.14151 0.0
C1763 C 0.24877 0.81529 0.24015 0.0
C1764 C 0.26509 0.81649 0.23266 0.0
C1765 C 0.23422 0.81809 0.22993 0.0
C1766 C 0.2355 0.82195 0.21183 0.0
C1767 C 0.25157 0.82242 0.20401 0.0
C1768 C 0.26621 0.81975 0.21432 0.0
C1769 C 0.22004 0.82551 0.20122 0.0
C1770 C 0.21307 0.8137 0.18375 0.0
C1771 C 0.21164 0.83988 0.2087 0.0
C1772 C 0.21896 0.85359 0.22656 0.0
C1773 C 0.23677 0.86445 0.2292 0.0
C1774 C 0.24371 0.87701 0.24619 0.0
C1775 C 0.23291 0.87905 0.26057 0.0
C1776 C 0.21517 0.86847 0.25802 0.0
C1777 C 0.20818 0.85581 0.24108 0.0
H1778 H 0.23831 0.88879 0.27371 0.0
H1779 H 0.17176 0.76743 0.10827 0.0
H1780 H 0.56344 0.8407 0.46466 0.0
H1781 H 0.56678 0.87474 0.47787 0.0
H1782 H 0.50979 0.86433 0.47467 0.0
H1783 H 0.50665 0.83079 0.45995 0.0
H1784 H 0.51951 0.89367 0.46348 0.0
H1785 H 0.54275 0.87642 0.51855 0.0
H1786 H 0.56241 0.86316 0.53705 0.0
H1787 H 0.60799 0.90353 0.52462 0.0
H1788 H 0.58861 0.91688 0.50587 0.0
H1789 H 0.55346 0.99372 0.53609 0.0
H1790 H 0.54569 0.95826 0.52919 0.0
H1791 H 0.5471 0.95874 0.47038 0.0
H1792 H 0.55403 0.99369 0.47717 0.0
H1793 H 0.56347 0.93433 0.51545 0.0
H1794 H 0.52592 0.92392 0.44334 0.0
H1795 H 0.50277 0.93494 0.4273 0.0
H1796 H 0.48027 0.94619 0.47896 0.0
H1797 H 0.50363 0.93572 0.49537 0.0
C1798 C 0.55167 0.84566 0.46722 0.0
C1799 C 0.53478 0.83301 0.46156 0.0
C1800 C 0.55356 0.86521 0.47487 0.0
C1801 C 0.53857 0.87247 0.47767 0.0
C1802 C 0.52168 0.85945 0.47268 0.0
C1803 C 0.51983 0.84012 0.46446 0.0
C1804 C 0.54022 0.89367 0.48433 0.0
C1805 C 0.52909 0.90235 0.47499 0.0
C1806 C 0.55258 0.90549 0.4994 0.0
C1807 C 0.56424 0.89753 0.5107 0.0
C1808 C 0.55697 0.88239 0.51969 0.0
C1809 C 0.56807 0.87487 0.53022 0.0
C1810 C 0.58644 0.88247 0.53198 0.0
C1811 C 0.59376 0.89764 0.52324 0.0
C1812 C 0.58273 0.90521 0.51267 0.0
C1813 C 0.5515 0.98617 0.52168 0.0
C1814 C 0.55403 0.99654 0.50714 0.0
C1815 C 0.54725 0.96587 0.51772 0.0
C1816 C 0.5455 0.95553 0.49916 0.0
C1817 C 0.54776 0.96604 0.48474 0.0
C1818 C 0.55187 0.98615 0.48866 0.0
C1819 C 0.54263 0.934 0.49471 0.0
C1820 C 0.55372 0.9254 0.50421 0.0
C1821 C 0.52992 0.92204 0.48014 0.0
C1822 C 0.51659 0.92935 0.47058 0.0
C1823 C 0.51612 0.92894 0.45127 0.0
C1824 C 0.50302 0.93514 0.44214 0.0
C1825 C 0.49015 0.94142 0.45215 0.0
C1826 C 0.49037 0.94152 0.47129 0.0
C1827 C 0.50363 0.93568 0.48054 0.0
H1828 H 0.47995 0.9461 0.44505 0.0
H1829 H 0.595 0.87662 0.54014 0.0
H1830 H 0.55825 0.30858 0.68638 0.0
H1831 H 0.52979 0.30618 0.69896 0.0
H1832 H 0.50758 0.31749 0.648 0.0
H1833 H 0.53653 0.32101 0.63576 0.0
H1834 H 0.49306 0.33333 0.67427 0.0
H1835 H 0.49919 0.2703 0.65847 0.0
H1836 H 0.51312 0.24329 0.65651 0.0
H1837 H 0.51617 0.24912 0.71618 0.0
H1838 H 0.50246 0.27633 0.71853 0.0
H1839 H 0.40634 0.29388 0.70738 0.0
H1840 H 0.43113 0.29897 0.68801 0.0
H1841 H 0.46813 0.30811 0.73684 0.0
H1842 H 0.44379 0.30366 0.75617 0.0
H1843 H 0.47145 0.27881 0.70602 0.0
H1844 H 0.46452 0.34485 0.71837 0.0
H1845 H 0.44671 0.36806 0.71591 0.0
H1846 H 0.44044 0.35103 0.65607 0.0
H1847 H 0.45797 0.32751 0.65822 0.0
C1848 C 0.54736 0.31073 0.6779 0.0
C1849 C 0.54967 0.31491 0.66003 0.0
C1850 C 0.53097 0.30916 0.68504 0.0
C1851 C 0.51619 0.31105 0.67428 0.0
C1852 C 0.51862 0.31583 0.65661 0.0
C1853 C 0.53521 0.31785 0.64961 0.0
C1854 C 0.49835 0.30775 0.68154 0.0
C1855 C 0.48828 0.32123 0.68096 0.0
C1856 C 0.49162 0.29177 0.68995 0.0
C1857 C 0.49993 0.27545 0.68868 0.0
C1858 C 0.50295 0.2659 0.67119 0.0
C1859 C 0.51078 0.25055 0.67001 0.0
C1860 C 0.51556 0.24452 0.68621 0.0
C1861 C 0.51248 0.25381 0.70364 0.0
C1862 C 0.50465 0.26919 0.7049 0.0
C1863 C 0.41974 0.29723 0.71402 0.0
C1864 C 0.42293 0.29772 0.73331 0.0
C1865 C 0.43392 0.3001 0.70292 0.0
C1866 C 0.4515 0.3036 0.71094 0.0
C1867 C 0.4547 0.30512 0.73027 0.0
C1868 C 0.44068 0.30245 0.74131 0.0
C1869 C 0.46677 0.3048 0.69949 0.0
C1870 C 0.47626 0.2908 0.69918 0.0
C1871 C 0.4725 0.31983 0.68967 0.0
C1872 C 0.46241 0.33433 0.68847 0.0
C1873 C 0.45925 0.34599 0.7047 0.0
C1874 C 0.44921 0.3592 0.70336 0.0
C1875 C 0.44241 0.36099 0.68585 0.0
C1876 C 0.44569 0.34962 0.66963 0.0
C1877 C 0.45569 0.33636 0.6709 0.0
H1878 H 0.43463 0.3712 0.68484 0.0
H1879 H 0.52163 0.23263 0.68527 0.0
H1880 H 0.00681 0.79835 0.59539 0.0
H1881 H 0.01289 0.8249 0.57868 0.0
H1882 H 0.02503 0.86561 0.63121 0.0
H1883 H 0.0182 0.839 0.64802 0.0
H1884 H 0.0098 0.87972 0.6055 0.0
H1885 H 0.05843 0.85243 0.61003 0.0
H1886 H 0.07471 0.82734 0.60813 0.0
H1887 H 0.06011 0.81112 0.54883 0.0
H1888 H 0.04353 0.83594 0.55041 0.0
H1889 H 0.06524 0.94884 0.55965 0.0
H1890 H 0.05462 0.92739 0.58091 0.0
H1891 H 0.03008 0.88199 0.53383 0.0
H1892 H 0.03999 0.90359 0.51237 0.0
H1893 H 0.05402 0.87344 0.56036 0.0
H1894 H 1.00399 0.90279 0.55877 0.0
H1895 H 0.99065 0.93035 0.5634 0.0
H1896 H 0.01282 0.94624 0.62088 0.0
H1897 H 0.02638 0.91887 0.61653 0.0
C1898 C 0.01034 0.81298 0.60333 0.0
C1899 C 0.01225 0.81676 0.62291 0.0
C1900 C 0.0139 0.82809 0.59382 0.0
C1901 C 0.01992 0.84709 0.6038 0.0
C1902 C 0.02053 0.85098 0.62333 0.0
C1903 C 0.01661 0.83582 0.63288 0.0
C1904 C 0.02681 0.86258 0.59376 0.0
C1905 C 0.01962 0.87849 0.59579 0.0
C1906 C 0.03986 0.86107 0.58138 0.0
C1907 C 0.04959 0.84591 0.58038 0.0
C1908 C 0.05855 0.84338 0.59661 0.0
C1909 C 0.06786 0.82924 0.59559 0.0
C1910 C 0.0684 0.81761 0.57838 0.0
C1911 C 0.05965 0.82012 0.56215 0.0
C1912 C 0.05031 0.83423 0.5631 0.0
C1913 C 0.05733 0.93438 0.5538 0.0
C1914 C 0.05335 0.92785 0.53431 0.0
C1915 C 0.0513 0.92222 0.56597 0.0
C1916 C 0.04144 0.90334 0.55882 0.0
C1917 C 0.0376 0.89667 0.53946 0.0
C1918 C 0.04344 0.90889 0.52726 0.0
C1919 C 0.03633 0.88995 0.57139 0.0
C1920 C 0.04417 0.8746 0.57006 0.0
C1921 C 0.02435 0.89238 0.58477 0.0
C1922 C 0.01633 0.90891 0.58727 0.0
C1923 C 1.00615 0.91227 0.57234 0.0
C1924 C 0.99851 0.92783 0.57493 0.0
C1925 C 1.00094 0.94008 0.5924 0.0
C1926 C 0.01096 0.93676 0.60734 0.0
C1927 C 0.01861 0.92122 0.60483 0.0
H1928 H 0.99501 0.9521 0.59438 0.0
H1929 H 0.07564 0.80668 0.57761 0.0
H1930 H 0.53977 0.82404 0.88819 0.0
H1931 H 0.5111 0.82671 0.87511 0.0
H1932 H 0.52583 0.81244 0.81934 0.0
H1933 H 0.5548 0.81103 0.83248 0.0
H1934 H 0.51606 0.8439 0.82329 0.0
H1935 H 0.49189 0.78155 0.8402 0.0
H1936 H 0.48646 0.75973 0.8626 0.0
H1937 H 0.46078 0.79749 0.89573 0.0
H1938 H 0.46623 0.81962 0.87363 0.0
H1939 H 0.43803 0.83383 0.76634 0.0
H1940 H 0.46363 0.8281 0.7831 0.0
H1941 H 0.44267 0.8426 0.83556 0.0
H1942 H 0.4166 0.84732 0.81862 0.0
H1943 H 0.45525 0.81333 0.83616 0.0
H1944 H 0.47754 0.87472 0.82036 0.0
H1945 H 0.48312 0.89836 0.79976 0.0
H1946 H 0.51291 0.86515 0.76697 0.0
H1947 H 0.50731 0.84117 0.78722 0.0
C1948 C 0.53655 0.82091 0.87316 0.0
C1949 C 0.54923 0.81721 0.86124 0.0
C1950 C 0.52022 0.82243 0.86569 0.0
C1951 C 0.5163 0.81969 0.84623 0.0
C1952 C 0.52862 0.8147 0.83439 0.0
C1953 C 0.54506 0.81374 0.84184 0.0
C1954 C 0.50032 0.82393 0.83806 0.0
C1955 C 0.50274 0.83696 0.82588 0.0
C1956 C 0.48304 0.81574 0.84226 0.0
C1957 C 0.4796 0.80229 0.85535 0.0
C1958 C 0.48517 0.78523 0.85231 0.0
C1959 C 0.48207 0.77281 0.86495 0.0
C1960 C 0.47332 0.77724 0.88061 0.0
C1961 C 0.46757 0.79408 0.88362 0.0
C1962 C 0.47064 0.80654 0.87103 0.0
C1963 C 0.43904 0.83587 0.78145 0.0
C1964 C 0.42565 0.84121 0.79132 0.0
C1965 C 0.45361 0.83266 0.79101 0.0
C1966 C 0.45523 0.83534 0.81061 0.0
C1967 C 0.44171 0.84053 0.82045 0.0
C1968 C 0.42694 0.84332 0.81084 0.0
C1969 C 0.471 0.83263 0.82078 0.0
C1970 C 0.46858 0.82018 0.83351 0.0
C1971 C 0.48835 0.84158 0.81733 0.0
C1972 C 0.49189 0.85609 0.80524 0.0
C1973 C 0.4852 0.87241 0.80869 0.0
C1974 C 0.48837 0.88587 0.79709 0.0
C1975 C 0.49834 0.88324 0.78205 0.0
C1976 C 0.50519 0.86717 0.77862 0.0
C1977 C 0.50204 0.85365 0.79017 0.0
H1978 H 0.50077 0.89368 0.77307 0.0
H1979 H 0.47095 0.76762 0.89038 0.0
H1980 H 0.50789 0.20126 0.16088 0.0
H1981 H 0.51307 0.17272 0.14193 0.0
H1982 H 0.49233 0.18761 0.0922 0.0
H1983 H 0.48764 0.21673 0.11101 0.0
H1984 H 0.49674 0.1408 0.11472 0.0
H1985 H 0.51753 0.1884 0.06506 0.0
H1986 H 0.52795 0.22263 0.06296 0.0
H1987 H 0.55789 0.23488 0.11687 0.0
H1988 H 0.5474 0.20074 0.11931 0.0
H1989 H 0.5241 0.08739 0.03958 0.0
H1990 H 0.51253 0.11208 0.05701 0.0
H1991 H 0.56363 0.13765 0.08895 0.0
H1992 H 0.57572 0.11289 0.07075 0.0
H1993 H 0.54442 0.16387 0.07583 0.0
H1994 H 0.53707 0.11187 0.10907 0.0
H1995 H 0.5285 0.07768 0.11142 0.0
H1996 H 0.47452 0.07379 0.09234 0.0
H1997 H 0.48284 0.1079 0.08957 0.0
C1998 C 0.5038 0.19816 0.146 0.0
C1999 C 0.49789 0.21148 0.13731 0.0
C2000 C 0.50676 0.18181 0.13521 0.0
C2001 C 0.50356 0.17855 0.11573 0.0
C2002 C 0.49524 0.19031 0.10725 0.0
C2003 C 0.4925 0.20684 0.11801 0.0
C2004 C 0.51172 0.16507 0.10448 0.0
C2005 C 0.50702 0.14573 0.10605 0.0
C2006 C 0.52548 0.17176 0.09369 0.0
C2007 C 0.53163 0.1922 0.09241 0.0
C2008 C 0.52632 0.19846 0.07644 0.0
C2009 C 0.53219 0.21781 0.07521 0.0
C2010 C 0.54355 0.23093 0.08979 0.0
C2011 C 0.54903 0.22472 0.10563 0.0
C2012 C 0.54307 0.20541 0.10698 0.0
C2013 C 0.53314 0.09861 0.04977 0.0
C2014 C 0.55087 0.09844 0.0537 0.0
C2015 C 0.5264 0.11252 0.0599 0.0
C2016 C 0.53724 0.12634 0.07426 0.0
C2017 C 0.55518 0.12687 0.07783 0.0
C2018 C 0.562 0.11281 0.06758 0.0
C2019 C 0.5293 0.1396 0.08591 0.0
C2020 C 0.53407 0.15889 0.08441 0.0
C2021 C 0.51575 0.13282 0.09689 0.0
C2022 C 0.51061 0.11242 0.099 0.0
C2023 C 0.52339 0.1037 0.10527 0.0
C2024 C 0.51858 0.08433 0.10669 0.0
C2025 C 0.50098 0.07356 0.10201 0.0
C2026 C 0.48815 0.08216 0.09596 0.0
C2027 C 0.4929 0.10152 0.09449 0.0
H2028 H 0.49728 0.05856 0.1031 0.0
H2029 H 0.54813 0.24589 0.08879 0.0
H2030 H 0.16616 0.33121 0.382 0.0
H2031 H 0.1915 0.33013 0.36401 0.0
H2032 H 0.15829 0.32574 0.31324 0.0
H2033 H 0.13286 0.3255 0.33105 0.0
H2034 H 0.17082 0.29681 0.31077 0.0
H2035 H 0.19619 0.36455 0.33097 0.0
H2036 H 0.20735 0.3951 0.3537 0.0
H2037 H 0.24683 0.37254 0.37849 0.0
H2038 H 0.23574 0.34173 0.35606 0.0
H2039 H 0.24761 0.30888 0.25388 0.0
H2040 H 0.2208 0.31203 0.26873 0.0
H2041 H 0.23895 0.29074 0.3156 0.0
H2042 H 0.26561 0.28743 0.30076 0.0
H2043 H 0.23414 0.33272 0.31932 0.0
H2044 H 0.1865 0.2619 0.30884 0.0
H2045 H 0.16623 0.23348 0.28829 0.0
H2046 H 0.16682 0.26509 0.244 0.0
H2047 H 0.187 0.2937 0.26442 0.0
C2048 C 0.16453 0.33063 0.36707 0.0
C2049 C 0.14771 0.32825 0.35774 0.0
C2050 C 0.17899 0.33013 0.35682 0.0
C2051 C 0.17677 0.32778 0.33726 0.0
C2052 C 0.16027 0.32741 0.3283 0.0
C2053 C 0.14577 0.32729 0.33843 0.0
C2054 C 0.19026 0.32205 0.32581 0.0
C2055 C 0.18464 0.30491 0.3125 0.0
C2056 C 0.20833 0.33226 0.32842 0.0
C2057 C 0.21502 0.35076 0.34193 0.0
C2058 C 0.20715 0.36603 0.34137 0.0
C2059 C 0.21349 0.38341 0.35418 0.0
C2060 C 0.22776 0.38574 0.36756 0.0
C2061 C 0.23576 0.37071 0.36813 0.0
C2062 C 0.22947 0.35329 0.35535 0.0
C2063 C 0.24552 0.30433 0.26707 0.0
C2064 C 0.25838 0.29762 0.27609 0.0
C2065 C 0.23019 0.30595 0.27543 0.0
C2066 C 0.22778 0.30123 0.29305 0.0
C2067 C 0.2404 0.29399 0.30179 0.0
C2068 C 0.25561 0.29216 0.29336 0.0
C2069 C 0.21445 0.30778 0.30401 0.0
C2070 C 0.22025 0.32488 0.31753 0.0
C2071 C 0.1964 0.29772 0.3015 0.0
C2072 C 0.18876 0.27966 0.28789 0.0
C2073 C 0.18275 0.26254 0.29451 0.0
C2074 C 0.17098 0.24653 0.28303 0.0
C2075 C 0.16518 0.24748 0.26485 0.0
C2076 C 0.17135 0.26436 0.25806 0.0
C2077 C 0.18308 0.28042 0.26953 0.0
H2078 H 0.15603 0.23512 0.25599 0.0
H2079 H 0.23265 0.39921 0.37746 0.0
H2080 H 0.9492 0.04543 0.20675 0.0
H2081 H 0.96417 0.04315 0.1781 0.0
H2082 H 1.00503 0.09396 0.20351 0.0
H2083 H 0.9903 0.09582 0.23253 0.0
H2084 H 0.99562 0.0952 0.16623 0.0
H2085 H 0.01393 0.05052 0.1972 0.0
H2086 H 0.01106 0.02325 0.21335 0.0
H2087 H 0.98038 0.98492 0.1647 0.0
H2088 H 0.98283 0.01206 0.14833 0.0
H2089 H 0.05331 0.08546 0.09362 0.0
H2090 H 0.04038 0.08859 0.12328 0.0
H2091 H 1.0028 0.03367 0.10356 0.0
H2092 H 0.01627 0.03022 0.07407 0.0
H2093 H 0.01136 0.03527 0.13877 0.0
H2094 H 0.99301 0.08117 0.10806 0.0
H2095 H 0.99728 0.10887 0.09232 0.0
H2096 H 0.0294 0.14541 0.14107 0.0
H2097 H 0.02549 0.11785 0.15702 0.0
C2098 C 0.96141 0.05614 0.20634 0.0
C2099 C 0.96839 0.07079 0.22229 0.0
C2100 C 0.9701 0.0548 0.18979 0.0
C2101 C 0.98604 0.06831 0.18813 0.0
C2102 C 0.99287 0.08321 0.20398 0.0
C2103 C 0.9844 0.08425 0.22077 0.0
C2104 C 0.99542 0.06668 0.17008 0.0
C2105 C 0.99922 0.08211 0.16046 0.0
C2106 C 1.00014 0.04968 0.16182 0.0
C2107 C 0.99836 0.03336 0.17163 0.0
C2108 C 0.00639 0.03632 0.19001 0.0
C2109 C 1.00488 0.02088 0.19919 0.0
C2110 C 0.99549 1.00237 0.19008 0.0
C2111 C 0.98761 0.99927 0.17175 0.0
C2112 C 0.98906 0.01468 0.16252 0.0
C2113 C 0.04254 0.07382 0.09555 0.0
C2114 C 0.03631 0.05743 0.08103 0.0
C2115 C 0.03478 0.07578 0.11269 0.0
C2116 C 0.02014 0.06154 0.11622 0.0
C2117 C 0.01396 0.04507 0.10175 0.0
C2118 C 0.02174 0.04313 0.0846 0.0
C2119 C 0.0114 0.06369 0.1347 0.0
C2120 C 0.00771 0.04834 0.14445 0.0
C2121 C 0.00686 0.08082 0.14311 0.0
C2122 C 0.0091 0.09742 0.13365 0.0
C2123 C 1.00107 0.09509 0.11537 0.0
C2124 C 1.00342 0.11077 0.10642 0.0
C2125 C 0.01365 0.12888 0.11567 0.0
C2126 C 0.0215 0.13136 0.13392 0.0
C2127 C 0.01921 0.11573 0.14292 0.0
H2128 H 0.01546 0.141 0.10871 0.0
H2129 H 0.99436 0.99043 0.1972 0.0
H2130 H 0.28685 0.65849 0.44756 0.0
H2131 H 0.28407 0.67361 0.42069 0.0
H2132 H 0.31914 0.72678 0.45157 0.0
H2133 H 0.32055 0.71202 0.47895 0.0
H2134 H 0.29197 0.73394 0.43753 0.0
H2135 H 0.33048 0.69519 0.41041 0.0
H2136 H 0.33821 0.66423 0.40185 0.0
H2137 H 0.28828 0.64002 0.368 0.0
H2138 H 0.28038 0.67089 0.37617 0.0
H2139 H 0.2931 0.78419 0.36483 0.0
H2140 H 0.30475 0.76707 0.38637 0.0
H2141 H 0.26585 0.71454 0.36049 0.0
H2142 H 0.25459 0.73138 0.33842 0.0
H2143 H 0.29651 0.70732 0.37121 0.0
H2144 H 0.25695 0.74294 0.39785 0.0
H2145 H 0.24563 0.77142 0.40762 0.0
H2146 H 0.29376 0.7992 0.44367 0.0
H2147 H 0.30547 0.77098 0.43388 0.0
C2148 C 0.2943 0.67324 0.44833 0.0
C2149 C 0.30408 0.68413 0.46504 0.0
C2150 C 0.2928 0.68187 0.43297 0.0
C2151 C 0.30169 0.70126 0.43394 0.0
C2152 C 0.3122 0.7118 0.45047 0.0
C2153 C 0.31314 0.70338 0.46602 0.0
C2154 C 0.29865 0.7112 0.41856 0.0
C2155 C 0.29346 0.72836 0.4231 0.0
C2156 C 0.29969 0.70346 0.39962 0.0
C2157 C 0.30486 0.68529 0.39392 0.0
C2158 C 0.32122 0.68327 0.40106 0.0
C2159 C 0.32562 0.66576 0.39626 0.0
C2160 C 0.31375 0.65018 0.38436 0.0
C2161 C 0.29748 0.65211 0.37717 0.0
C2162 C 0.29309 0.66965 0.38176 0.0
C2163 C 0.28736 0.76888 0.36338 0.0
C2164 C 0.27272 0.75916 0.35019 0.0
C2165 C 0.29394 0.75917 0.37577 0.0
C2166 C 0.28586 0.7397 0.37523 0.0
C2167 C 0.27215 0.72963 0.36119 0.0
C2168 C 0.26562 0.7393 0.34874 0.0
C2169 C 0.29044 0.73029 0.39036 0.0
C2170 C 0.29559 0.71314 0.38574 0.0
C2171 C 0.2891 0.73786 0.40925 0.0
C2172 C 0.28219 0.75497 0.41492 0.0
C2173 C 0.2652 0.75521 0.40769 0.0
C2174 C 0.2587 0.77129 0.41327 0.0
C2175 C 0.269 0.78714 0.4262 0.0
C2176 C 0.28582 0.78694 0.43361 0.0
C2177 C 0.2924 0.77091 0.42804 0.0
H2178 H 0.26393 0.79956 0.43053 0.0
H2179 H 0.31716 0.6366 0.38073 0.0
H2180 H 0.64896 0.0111 0.71267 0.0
H2181 H 0.62721 0.00851 0.68644 0.0
H2182 H 0.66706 0.04482 0.66098 0.0
H2183 H 0.68893 0.04774 0.68726 0.0
H2184 H 0.63732 0.05837 0.66721 0.0
H2185 H 0.65189 0.99917 0.64163 0.0
H2186 H 0.65565 0.96676 0.64211 0.0
H2187 H 0.6006 0.94684 0.64952 0.0
H2188 H 0.59659 0.97925 0.64938 0.0
H2189 H 0.60978 0.05515 0.5768 0.0
H2190 H 0.62325 0.05087 0.60569 0.0
H2191 H 0.57313 0.01602 0.61628 0.0
H2192 H 0.55939 0.01952 0.58651 0.0
H2193 H 0.60191 1.00082 0.62189 0.0
H2194 H 0.58713 0.06021 0.64137 0.0
H2195 H 0.58453 0.09249 0.63837 0.0
H2196 H 0.64115 0.11237 0.64063 0.0
H2197 H 0.64409 0.08013 0.64333 0.0
C2198 C 0.65321 0.01819 0.70128 0.0
C2199 C 0.67055 0.02986 0.70206 0.0
C2200 C 0.64079 0.01664 0.68635 0.0
C2201 C 0.64564 0.02661 0.67204 0.0
C2202 C 0.66321 0.03715 0.6721 0.0
C2203 C 0.67565 0.03871 0.68702 0.0
C2204 C 0.63209 0.02766 0.65797 0.0
C2205 C 0.62959 0.04583 0.65723 0.0
C2206 C 0.62158 0.01112 0.64568 0.0
C2207 C 0.624 0.99168 0.64577 0.0
C2208 C 0.64063 0.98793 0.64357 0.0
C2209 C 0.6428 0.96955 0.64373 0.0
C2210 C 0.62839 0.95477 0.64592 0.0
C2211 C 0.61176 0.95832 0.64788 0.0
C2212 C 0.60954 0.97668 0.64776 0.0
C2213 C 0.60147 0.04662 0.58519 0.0
C2214 C 0.58339 0.03799 0.57959 0.0
C2215 C 0.60921 0.0443 0.60177 0.0
C2216 C 0.59898 0.03366 0.61321 0.0
C2217 C 0.58103 0.02459 0.60761 0.0
C2218 C 0.57324 0.0267 0.59076 0.0
C2219 C 0.6077 0.03162 0.63062 0.0
C2220 C 0.60925 0.01329 0.63219 0.0
C2221 C 0.61746 0.04807 0.64362 0.0
C2222 C 0.61581 0.06771 0.6426 0.0
C2223 C 0.59903 0.07145 0.6412 0.0
C2224 C 0.5975 0.08974 0.63953 0.0
C2225 C 0.61267 0.10447 0.63933 0.0
C2226 C 0.62941 0.10095 0.64084 0.0
C2227 C 0.63102 0.08268 0.64249 0.0
H2228 H 0.61145 0.11862 0.638 0.0
H2229 H 0.63009 0.94054 0.64604 0.0
H2230 H 0.31496 0.32971 0.97921 0.0
H2231 H 0.31352 0.31661 0.94577 0.0
H2232 H 0.30947 0.3711 0.93347 0.0
H2233 H 0.30955 0.38364 0.96675 0.0
H2234 H 0.28987 0.34575 0.90863 0.0
H2235 H 0.35056 0.35288 0.93464 0.0
H2236 H 0.37347 0.34664 0.9556 0.0
H2237 H 0.35471 0.28601 0.9333 0.0
H2238 H 0.33161 0.2919 0.91235 0.0
H2239 H 0.32042 0.34583 0.82187 0.0
H2240 H 0.32141 0.3512 0.85586 0.0
H2241 H 0.31069 0.29007 0.85352 0.0
H2242 H 0.30974 0.28461 0.81914 0.0
H2243 H 0.33566 0.31391 0.88494 0.0
H2244 H 0.2771 0.30764 0.8566 0.0
H2245 H 0.25536 0.31444 0.83468 0.0
H2246 H 0.27106 0.37422 0.86099 0.0
H2247 H 0.29308 0.36782 0.8829 0.0
C2248 C 0.31354 0.33877 0.96931 0.0
C2249 C 0.31235 0.3577 0.97559 0.0
C2250 C 0.31293 0.33135 0.95016 0.0
C2251 C 0.3119 0.34296 0.93691 0.0
C2252 C 0.31031 0.36176 0.94326 0.0
C2253 C 0.31035 0.36896 0.96233 0.0
C2254 C 0.31249 0.33579 0.9165 0.0
C2255 C 0.30003 0.33897 0.90358 0.0
C2256 C 0.32531 0.32627 0.9096 0.0
C2257 C 0.33927 0.32281 0.92211 0.0
C2258 C 0.35128 0.33822 0.9343 0.0
C2259 C 0.3643 0.33475 0.94616 0.0
C2260 C 0.36551 0.31594 0.94583 0.0
C2261 C 0.35375 0.30057 0.93358 0.0
C2262 C 0.3407 0.30397 0.9217 0.0
C2263 C 0.31869 0.33356 0.82863 0.0
C2264 C 0.31509 0.31484 0.81794 0.0
C2265 C 0.31919 0.33663 0.84803 0.0
C2266 C 0.3158 0.32103 0.85719 0.0
C2267 C 0.31328 0.3023 0.84669 0.0
C2268 C 0.31281 0.2992 0.82711 0.0
C2269 C 0.31346 0.32451 0.87743 0.0
C2270 C 0.32549 0.32058 0.89018 0.0
C2271 C 0.30032 0.33344 0.88423 0.0
C2272 C 0.2868 0.33726 0.87134 0.0
C2273 C 0.27597 0.32225 0.85766 0.0
C2274 C 0.26359 0.32603 0.84523 0.0
C2275 C 0.26184 0.34475 0.84643 0.0
C2276 C 0.27243 0.35972 0.86009 0.0
C2277 C 0.28484 0.35602 0.87253 0.0
H2278 H 0.25226 0.34765 0.83679 0.0
H2279 H 0.37559 0.31328 0.95503 0.0
H2280 H 0.96065 0.06985 0.34628 0.0
H2281 H 0.97323 0.06714 0.37672 0.0
H2282 H 0.01846 0.0538 0.35176 0.0
H2283 H 1.00473 0.05446 0.32097 0.0
H2284 H 0.01757 0.03681 0.37588 0.0
H2285 H 0.01449 0.10188 0.38661 0.0
H2286 H 1.00151 0.12954 0.38763 0.0
H2287 H 0.96428 0.10677 0.42402 0.0
H2288 H 0.97696 0.0789 0.42309 0.0
H2289 H 0.06511 0.05145 0.46989 0.0
H2290 H 0.05485 0.05249 0.43764 0.0
H2291 H 1.00308 0.05341 0.45429 0.0
H2292 H 0.01341 0.05282 0.48622 0.0
H2293 H 0.0098 0.07826 0.43438 0.0
H2294 H 0.01226 1.00689 0.40945 0.0
H2295 H 0.02838 0.98174 0.40242 0.0
H2296 H 0.07397 0.0239 0.39269 0.0
H2297 H 0.05782 0.04906 0.39888 0.0
C2298 C 0.97335 0.06644 0.34724 0.0
C2299 C 0.9816 0.06261 0.33083 0.0
C2300 C 0.98084 0.06513 0.365 0.0
C2301 C 0.99748 0.06088 0.36754 0.0
C2302 C 1.00573 0.05712 0.35098 0.0
C2303 C 0.99786 0.05766 0.33309 0.0
C2304 C 1.00593 0.05975 0.38697 0.0
C2305 C 0.0159 0.04623 0.38849 0.0
C2306 C 1.00435 0.07169 0.40419 0.0
C2307 C 0.99653 0.08823 0.4046 0.0
C2308 C 1.00345 0.10272 0.39472 0.0
C2309 C 0.99617 0.11844 0.3953 0.0
C2310 C 0.98204 0.11988 0.40583 0.0
C2311 C 0.9752 0.10562 0.41584 0.0
C2312 C 0.98243 0.08988 0.4153 0.0
C2313 C 0.05144 0.05148 0.4666 0.0
C2314 C 0.04016 0.05192 0.48102 0.0
C2315 C 0.04542 0.05197 0.44788 0.0
C2316 C 0.02786 0.05289 0.44276 0.0
C2317 C 0.01665 0.05284 0.45723 0.0
C2318 C 0.02263 0.0524 0.47576 0.0
C2319 C 0.02111 0.05519 0.42317 0.0
C2320 C 0.01139 0.06892 0.42167 0.0
C2321 C 0.02364 0.04414 0.40592 0.0
C2322 C 0.03405 0.02983 0.40508 0.0
C2323 C 0.02582 0.01079 0.40613 0.0
C2324 C 0.03486 0.99651 0.40202 0.0
C2325 C 0.0522 1.00124 0.39718 0.0
C2326 C 0.06057 0.02026 0.39649 0.0
C2327 C 0.05145 0.0345 0.40018 0.0
H2328 H 0.05915 0.99016 0.39394 0.0
H2329 H 0.97642 0.13206 0.40627 0.0
H2330 H 0.3316 0.70538 0.55996 0.0
H2331 H 0.32991 0.72871 0.58799 0.0
H2332 H 0.28473 0.68815 0.60154 0.0
H2333 H 0.28665 0.66459 0.57409 0.0
H2334 H 0.28206 0.72893 0.60015 0.0
H2335 H 0.31303 0.69059 0.62788 0.0
H2336 H 0.33575 0.67288 0.63101 0.0
H2337 H 0.3768 0.72544 0.63766 0.0
H2338 H 0.35426 0.74342 0.63419 0.0
H2339 H 0.27631 0.76133 0.69662 0.0
H2340 H 0.27609 0.7459 0.66435 0.0
H2341 H 0.32622 0.78547 0.66105 0.0
H2342 H 0.32651 0.80106 0.69344 0.0
H2343 H 0.32666 0.74678 0.65577 0.0
H2344 H 0.29074 0.78501 0.63367 0.0
H2345 H 0.26506 0.79894 0.63368 0.0
H2346 H 0.22965 0.74229 0.61991 0.0
H2347 H 0.25511 0.72799 0.62013 0.0
C2348 C 0.32157 0.70136 0.56916 0.0
C2349 C 0.30941 0.68319 0.56508 0.0
C2350 C 0.32054 0.71466 0.58497 0.0
C2351 C 0.3071 0.71 0.59649 0.0
C2352 C 0.29509 0.69185 0.5926 0.0
C2353 C 0.29638 0.6784 0.57711 0.0
C2354 C 0.30572 0.72409 0.6128 0.0
C2355 C 0.29174 0.73292 0.61238 0.0
C2356 C 0.31836 0.72897 0.62855 0.0
C2357 C 0.332 0.71828 0.63041 0.0
C2358 C 0.32691 0.69832 0.62971 0.0
C2359 C 0.33975 0.68825 0.63162 0.0
C2360 C 0.35771 0.69801 0.63443 0.0
C2361 C 0.36287 0.71789 0.6354 0.0
C2362 C 0.35008 0.72803 0.63345 0.0
C2363 C 0.28718 0.76704 0.68899 0.0
C2364 C 0.30198 0.78181 0.69787 0.0
C2365 C 0.28689 0.75832 0.67046 0.0
C2366 C 0.30124 0.76448 0.66053 0.0
C2367 C 0.3151 0.78051 0.66869 0.0
C2368 C 0.31535 0.78928 0.68724 0.0
C2369 C 0.3032 0.75214 0.64311 0.0
C2370 C 0.31721 0.74332 0.64339 0.0
C2371 C 0.29019 0.74685 0.62755 0.0
C2372 C 0.27486 0.75543 0.62699 0.0
C2373 C 0.27748 0.77551 0.63074 0.0
C2374 C 0.26296 0.78348 0.6307 0.0
C2375 C 0.24574 0.77151 0.62681 0.0
C2376 C 0.243 0.75155 0.62291 0.0
C2377 C 0.25748 0.7435 0.62296 0.0
H2378 H 0.23451 0.77771 0.62681 0.0
H2379 H 0.36764 0.69019 0.63595 0.0
H2380 H 0.63912 0.02898 0.79083 0.0
H2381 H 0.627 0.0341 0.82077 0.0
H2382 H 0.67999 0.05228 0.84946 0.0
H2383 H 0.69215 0.04641 0.81951 0.0
H2384 H 0.65746 0.03365 0.86987 0.0
H2385 H 0.66018 0.08581 0.83828 0.0
H2386 H 0.65544 0.10198 0.81226 0.0
H2387 H 0.59907 0.08071 0.81132 0.0
H2388 H 0.60349 0.06423 0.83719 0.0
H2389 H 0.61238 0.1021 0.93234 0.0
H2390 H 0.63381 0.0938 0.91123 0.0
H2391 H 0.60115 0.0355 0.89584 0.0
H2392 H 0.57989 0.04363 0.91705 0.0
H2393 H 0.61825 0.07789 0.87189 0.0
H2394 H 0.62231 0.01653 0.8986 0.0
H2395 H 0.63244 1.00171 0.92362 0.0
H2396 H 0.68106 0.04645 0.93523 0.0
H2397 H 0.67104 0.06165 0.91048 0.0
C2398 C 0.64811 0.03348 0.8036 0.0
C2399 C 0.6665 0.03743 0.80302 0.0
C2400 C 0.64122 0.03656 0.82061 0.0
C2401 C 0.65268 0.04412 0.83715 0.0
C2402 C 0.67099 0.04657 0.83676 0.0
C2403 C 0.67789 0.04313 0.81972 0.0
C2404 C 0.64556 0.05079 0.85451 0.0
C2405 C 0.64895 0.04339 0.87034 0.0
C2406 C 0.6349 0.06393 0.85524 0.0
C2407 C 0.63218 0.07366 0.83955 0.0
C2408 C 0.64678 0.08446 0.83241 0.0
C2409 C 0.64415 0.0937 0.81772 0.0
C2410 C 0.62697 0.09234 0.81011 0.0
C2411 C 0.61238 0.08174 0.81721 0.0
C2412 C 0.61493 0.07247 0.8319 0.0
C2413 C 0.60989 0.08753 0.92446 0.0
C2414 C 0.59442 0.07357 0.92585 0.0
C2415 C 0.62225 0.08272 0.91281 0.0
C2416 C 0.61923 0.06393 0.90251 0.0
C2417 C 0.604 0.04987 0.90427 0.0
C2418 C 0.59172 0.05462 0.916 0.0
C2419 C 0.62958 0.06013 0.88692 0.0
C2420 C 0.62684 0.06822 0.8714 0.0
C2421 C 0.64108 0.04799 0.88662 0.0
C2422 C 0.64578 0.0404 0.90305 0.0
C2423 C 0.63494 0.02344 0.90683 0.0
C2424 C 0.64075 0.01486 0.9208 0.0
C2425 C 0.65746 0.02303 0.93086 0.0
C2426 C 0.66817 0.0401 0.92737 0.0
C2427 C 0.66239 0.04875 0.91347 0.0
H2428 H 0.6621 0.01622 0.94143 0.0
H2429 H 0.62496 0.09952 0.79875 0.0
H2430 H 0.29823 0.39399 0.09796 0.0
H2431 H 0.29435 0.37935 0.12541 0.0
H2432 H 0.30502 0.32787 0.09501 0.0
H2433 H 0.30865 0.34231 0.06725 0.0
H2434 H 0.27838 0.31911 0.11607 0.0
H2435 H 0.33683 0.36151 0.12568 0.0
H2436 H 0.35949 0.39215 0.12803 0.0
H2437 H 0.33548 0.41854 0.17328 0.0
H2438 H 0.31259 0.38813 0.17105 0.0
H2439 H 0.29628 0.28107 0.19618 0.0
H2440 H 0.29697 0.29329 0.16722 0.0
H2441 H 0.28947 0.34685 0.19682 0.0
H2442 H 0.28925 0.33481 0.22601 0.0
H2443 H 0.3147 0.35385 0.17567 0.0
H2444 H 0.25569 0.3116 0.16545 0.0
H2445 H 0.23317 0.28086 0.16311 0.0
H2446 H 0.25872 0.25396 0.11961 0.0
H2447 H 0.28143 0.28455 0.1217 0.0
C2448 C 0.29965 0.3795 0.09701 0.0
C2449 C 0.30391 0.3694 0.08039 0.0
C2450 C 0.2975 0.37118 0.11278 0.0
C2451 C 0.29974 0.35266 0.1124 0.0
C2452 C 0.30334 0.34223 0.09566 0.0
C2453 C 0.30543 0.35053 0.07981 0.0
C2454 C 0.29862 0.34438 0.12959 0.0
C2455 C 0.28647 0.32659 0.12905 0.0
C2456 C 0.30896 0.35429 0.14663 0.0
C2457 C 0.3228 0.3726 0.148 0.0
C2458 C 0.33627 0.37389 0.136 0.0
C2459 C 0.3492 0.39122 0.13735 0.0
C2460 C 0.34888 0.40731 0.15074 0.0
C2461 C 0.33568 0.40609 0.16287 0.0
C2462 C 0.32273 0.38881 0.16157 0.0
C2463 C 0.2944 0.29531 0.19646 0.0
C2464 C 0.29246 0.30691 0.21333 0.0
C2465 C 0.29481 0.30228 0.17986 0.0
C2466 C 0.29298 0.32089 0.17972 0.0
C2467 C 0.29085 0.33242 0.19654 0.0
C2468 C 0.29067 0.32553 0.2132 0.0
C2469 C 0.29423 0.32874 0.16228 0.0
C2470 C 0.30653 0.3464 0.16273 0.0
C2471 C 0.28403 0.3187 0.14519 0.0
C2472 C 0.27034 0.30032 0.14385 0.0
C2473 C 0.25657 0.2991 0.15547 0.0
C2474 C 0.24376 0.2817 0.15417 0.0
C2475 C 0.24457 0.26543 0.1413 0.0
C2476 C 0.25813 0.26656 0.1296 0.0
C2477 C 0.27094 0.28393 0.1308 0.0
H2478 H 0.23466 0.25197 0.14035 0.0
H2479 H 0.3589 0.4207 0.15176 0.0
H2480 H 0.25648 0.95193 0.99993 0.0
H2481 H 0.23112 0.96622 1.0017 0.0
H2482 H 0.26308 0.0155 0.04116 0.0
H2483 H 0.28821 1.00152 0.03955 0.0
H2484 H 0.23139 0.9967 0.05353 0.0
H2485 H 0.25317 0.01972 0.99818 0.0
H2486 H 0.26086 0.01423 0.96578 0.0
H2487 H 0.20748 0.98091 0.94677 0.0
H2488 H 0.19955 0.98599 0.97913 0.0
H2489 H 0.19248 0.07158 0.0701 0.0
H2490 H 0.2126 0.05329 0.0569 0.0
H2491 H 0.16885 0.01221 0.02173 0.0
H2492 H 0.14839 0.02984 0.0353 0.0
H2493 H 0.20152 0.02071 1.00449 0.0
H2494 H 0.17852 0.99914 0.058 0.0
H2495 H 0.16989 1.0023 0.09007 0.0
H2496 H 0.22403 0.02957 0.11213 0.0
H2497 H 0.23295 0.02686 0.08015 0.0
C2498 C 0.25811 0.96595 0.00872 0.0
C2499 C 0.2742 0.97555 0.01975 0.0
C2500 C 0.24368 0.97404 0.0097 0.0
C2501 C 0.24534 0.99178 0.02166 0.0
C2502 C 0.26161 1.00172 0.03197 0.0
C2503 C 0.27593 0.9937 0.03101 0.0
C2504 C 0.23 0.99967 0.02473 0.0
C2505 C 0.22488 1.00201 0.04284 0.0
C2506 C 0.22111 1.00575 0.01051 0.0
C2507 C 0.22582 1.00307 0.99106 0.0
C2508 C 0.24311 0.01112 0.9871 0.0
C2509 C 0.2475 1.0081 0.96875 0.0
C2510 C 0.23468 0.99719 0.95423 0.0
C2511 C 0.21741 0.98934 0.95803 0.0
C2512 C 0.21295 0.9923 0.97637 0.0
C2513 C 0.18708 0.05867 0.05956 0.0
C2514 C 0.16874 0.05189 0.05421 0.0
C2515 C 0.19861 0.04838 0.0519 0.0
C2516 C 0.19201 0.03127 0.03868 0.0
C2517 C 0.17401 0.02532 0.03207 0.0
C2518 C 0.16241 0.03548 0.03986 0.0
C2519 C 0.20367 0.01865 0.03354 0.0
C2520 C 0.20789 0.01519 0.01509 0.0
C2521 C 0.21165 0.01124 0.04739 0.0
C2522 C 0.20637 0.01295 0.06667 0.0
C2523 C 0.18856 1.00598 0.06968 0.0
C2524 C 0.18362 1.00765 0.08784 0.0
C2525 C 0.1964 0.01616 0.10313 0.0
C2526 C 0.21415 0.02299 0.10027 0.0
C2527 C 0.21916 0.02138 0.08213 0.0
H2528 H 0.19255 0.01743 0.11718 0.0
H2529 H 0.23811 0.99485 0.94003 0.0
H2530 H 0.76293 0.63393 1.00295 0.0
H2531 H 0.73274 0.61412 1.00278 0.0
H2532 H 0.71252 0.66402 1.00342 0.0
H2533 H 0.74257 0.6839 1.00352 0.0
H2534 H 0.70002 0.64368 0.03039 0.0
H2535 H 0.70564 0.63054 0.96453 0.0
H2536 H 0.71982 0.62043 0.93661 0.0
H2537 H 0.71409 0.56462 0.95018 0.0
H2538 H 0.7001 0.57451 0.97836 0.0
H2539 H 0.60868 0.59843 0.01833 0.0
H2540 H 0.63806 0.61685 0.01367 0.0
H2541 H 0.65595 0.56494 1.00523 0.0
H2542 H 0.62638 0.54644 0.00928 0.0
H2543 H 0.67002 0.58607 0.98216 0.0
H2544 H 0.66499 0.5986 0.04795 0.0
H2545 H 0.65095 0.60813 0.07619 0.0
H2546 H 0.6564 0.66437 0.06378 0.0
H2547 H 0.6702 0.65507 0.03529 0.0
C2548 C 0.75204 0.64065 1.00278 0.0
C2549 C 0.75522 0.66054 1.00324 0.0
C2550 C 0.73478 0.6293 1.00268 0.0
C2551 C 0.72035 0.63759 1.00309 0.0
C2552 C 0.72344 0.65732 1.00315 0.0
C2553 C 0.74065 0.66865 1.00309 0.0
C2554 C 0.70213 0.62591 1.00423 0.0
C2555 C 0.69336 0.63123 0.01972 0.0
C2556 C 0.69365 0.60933 0.99062 0.0
C2557 C 0.70199 0.60333 0.97365 0.0
C2558 C 0.70754 0.61617 0.96165 0.0
C2559 C 0.71552 0.61047 0.94576 0.0
C2560 C 0.7179 0.59191 0.94165 0.0
C2561 C 0.71226 0.579 0.9534 0.0
C2562 C 0.70429 0.58464 0.96932 0.0
C2563 C 0.61884 0.5909 0.01539 0.0
C2564 C 0.61516 0.5709 0.01421 0.0
C2565 C 0.63569 0.60148 0.0128 0.0
C2566 C 0.64943 0.5924 0.0095 0.0
C2567 C 0.64564 0.57234 0.00779 0.0
C2568 C 0.62866 0.5617 0.01005 0.0
C2569 C 0.6678 0.60388 0.00829 0.0
C2570 C 0.67665 0.59851 0.99285 0.0
C2571 C 0.67646 0.62033 0.02207 0.0
C2572 C 0.66849 0.62608 0.0394 0.0
C2573 C 0.66311 0.61297 0.0512 0.0
C2574 C 0.65519 0.61833 0.06724 0.0
C2575 C 0.65275 0.63683 0.07175 0.0
C2576 C 0.65828 0.65004 0.06026 0.0
C2577 C 0.66616 0.64474 0.04416 0.0
H2578 H 0.6466 0.64094 0.08417 0.0
H2579 H 0.72407 0.58752 0.92934 0.0
H2580 H 0.74281 0.47871 0.24987 0.0
H2581 H 0.75745 0.45305 0.25168 0.0
H2582 H 0.71084 0.42021 0.271 0.0
H2583 H 0.69697 0.4468 0.27084 0.0
H2584 H 0.73306 0.41023 0.28667 0.0
H2585 H 0.73269 0.41282 0.22026 0.0
H2586 H 0.73994 0.42849 0.19341 0.0
H2587 H 0.79527 0.44425 0.21365 0.0
H2588 H 0.7883 0.42877 0.24063 0.0
H2589 H 0.76115 0.32468 0.2821 0.0
H2590 H 0.74695 0.34914 0.2771 0.0
H2591 H 0.79179 0.37633 0.25119 0.0
H2592 H 0.80383 0.34848 0.25192 0.0
H2593 H 0.77158 0.39065 0.23977 0.0
H2594 H 0.77188 0.38903 0.30699 0.0
H2595 H 0.76451 0.37311 0.33369 0.0
H2596 H 0.70941 0.35604 0.3124 0.0
H2597 H 0.71648 0.37179 0.28561 0.0
C2598 C 0.73558 0.46603 0.25449 0.0
C2599 C 0.71843 0.46525 0.26012 0.0
C2600 C 0.744 0.45086 0.25527 0.0
C2601 C 0.73549 0.43354 0.26092 0.0
C2602 C 0.71827 0.43288 0.26652 0.0
C2603 C 0.7101 0.44832 0.26633 0.0
C2604 C 0.74434 0.41659 0.26168 0.0
C2605 C 0.74127 0.40599 0.27611 0.0
C2606 C 0.75584 0.41057 0.24867 0.0
C2607 C 0.75995 0.41983 0.2325 0.0
C2608 C 0.74637 0.41971 0.21899 0.0
C2609 C 0.75044 0.42854 0.20376 0.0
C2610 C 0.76805 0.43741 0.20186 0.0
C2611 C 0.78164 0.43741 0.21515 0.0
C2612 C 0.77764 0.42859 0.23039 0.0
C2613 C 0.76828 0.33578 0.27529 0.0
C2614 C 0.78475 0.33465 0.26867 0.0
C2615 C 0.76014 0.35065 0.27298 0.0
C2616 C 0.76854 0.36666 0.26541 0.0
C2617 C 0.7847 0.36515 0.25789 0.0
C2618 C 0.79218 0.34919 0.25883 0.0
C2619 C 0.76026 0.38413 0.26477 0.0
C2620 C 0.76343 0.39487 0.25039 0.0
C2621 C 0.74892 0.39041 0.27793 0.0
C2622 C 0.74473 0.38147 0.2943 0.0
C2623 C 0.75821 0.38191 0.30807 0.0
C2624 C 0.75408 0.3729 0.32318 0.0
C2625 C 0.73651 0.36354 0.32472 0.0
C2626 C 0.72301 0.36328 0.31121 0.0
C2627 C 0.72706 0.37228 0.29609 0.0
H2628 H 0.73335 0.35651 0.33639 0.0
H2629 H 0.77116 0.44426 0.19007 0.0
H2630 H 0.88095 0.44124 0.5335 0.0
H2631 H 0.9123 0.45658 0.53434 0.0
H2632 H 0.90038 0.51074 0.53183 0.0
H2633 H 0.86869 0.49536 0.53071 0.0
H2634 H 0.92064 0.50052 0.50521 0.0
H2635 H 0.92236 0.50622 0.57095 0.0
H2636 H 0.91608 0.49563 0.60059 0.0
H2637 H 0.94542 0.45327 0.58784 0.0
H2638 H 0.95167 0.46342 0.55798 0.0
H2639 H 0.01288 0.54961 0.52564 0.0
H2640 H 0.981 0.53783 0.52123 0.0
H2641 H 0.98561 0.47989 0.5185 0.0
H2642 H 0.01802 0.49167 0.52214 0.0
H2643 H 0.96908 0.4952 0.54922 0.0
H2644 H 0.9606 0.48425 0.48127 0.0
H2645 H 0.96222 0.49098 0.44942 0.0
H2646 H 0.94501 0.54227 0.46655 0.0
H2647 H 0.94291 0.53554 0.49839 0.0
C2648 C 0.88496 0.45647 0.53333 0.0
C2649 C 0.8724 0.46709 0.53184 0.0
C2650 C 0.90289 0.46524 0.53402 0.0
C2651 C 0.90856 0.48479 0.53337 0.0
C2652 C 0.89614 0.49564 0.53246 0.0
C2653 C 0.87812 0.48684 0.53178 0.0
C2654 C 0.92727 0.49309 0.53147 0.0
C2655 C 0.93129 0.49984 0.51507 0.0
C2656 C 0.94098 0.49158 0.5441 0.0
C2657 C 0.93741 0.48554 0.56216 0.0
C2658 C 0.92738 0.49457 0.5744 0.0
C2659 C 0.92384 0.48865 0.59126 0.0
C2660 C 0.93032 0.47377 0.59609 0.0
C2661 C 0.94041 0.46481 0.58408 0.0
C2662 C 0.94399 0.47066 0.5672 0.0
C2663 C 0.00733 0.53432 0.5232 0.0
C2664 C 0.01804 0.52157 0.5241 0.0
C2665 C 0.98897 0.52758 0.52067 0.0
C2666 C 0.98105 0.50804 0.51956 0.0
C2667 C 0.99162 0.49504 0.51922 0.0
C2668 C 0.01005 0.50178 0.52136 0.0
C2669 C 0.96233 0.50208 0.52269 0.0
C2670 C 0.95841 0.49603 0.53948 0.0
C2671 C 0.94869 0.50428 0.51049 0.0
C2672 C 0.95181 0.50953 0.49216 0.0
C2673 C 0.95739 0.49708 0.47826 0.0
C2674 C 0.95813 0.50074 0.46017 0.0
C2675 C 0.95365 0.517 0.45595 0.0
C2676 C 0.94842 0.52965 0.46982 0.0
C2677 C 0.94738 0.52588 0.48786 0.0
H2678 H 0.95435 0.51987 0.44195 0.0
H2679 H 0.92755 0.4692 0.60914 0.0
H2680 H 0.41983 0.12735 0.30272 0.0
H2681 H 0.40392 0.15076 0.29631 0.0
H2682 H 0.35583 0.11561 0.31114 0.0
H2683 H 0.37157 0.09165 0.31633 0.0
H2684 H 0.3518 0.11966 0.27694 0.0
H2685 H 0.37642 0.16339 0.33509 0.0
H2686 H 0.4009 0.18221 0.35898 0.0
H2687 H 0.4247 0.214 0.31882 0.0
H2688 H 0.4005 0.19517 0.2946 0.0
H2689 H 0.29675 0.17645 0.25403 0.0
H2690 H 0.31461 0.16372 0.2748 0.0
H2691 H 0.36156 0.18794 0.25008 0.0
H2692 H 0.34364 0.20043 0.22903 0.0
H2693 H 0.3658 0.19095 0.2909 0.0
H2694 H 0.3445 0.14639 0.23285 0.0
H2695 H 0.3222 0.12674 0.20715 0.0
H2696 H 0.29433 0.09561 0.24565 0.0
H2697 H 0.31627 0.11541 0.27171 0.0
C2698 C 0.40609 0.12519 0.30547 0.0
C2699 C 0.3968 0.10796 0.31004 0.0
C2700 C 0.39699 0.13853 0.30182 0.0
C2701 C 0.37869 0.13488 0.30326 0.0
C2702 C 0.36994 0.11862 0.30993 0.0
C2703 C 0.37891 0.10506 0.31304 0.0
C2704 C 0.36813 0.14576 0.2945 0.0
C2705 C 0.35456 0.13523 0.28042 0.0
C2706 C 0.3724 0.16608 0.29833 0.0
C2707 C 0.38667 0.17782 0.31302 0.0
C2708 C 0.3869 0.17435 0.33134 0.0
C2709 C 0.40074 0.18501 0.34493 0.0
C2710 C 0.41435 0.19928 0.34042 0.0
C2711 C 0.41413 0.20296 0.3223 0.0
C2712 C 0.40034 0.19232 0.30864 0.0
C2713 C 0.31092 0.17921 0.25326 0.0
C2714 C 0.31894 0.18904 0.23991 0.0
C2715 C 0.32105 0.17207 0.2651 0.0
C2716 C 0.33927 0.17493 0.26378 0.0
C2717 C 0.34749 0.18573 0.2512 0.0
C2718 C 0.3373 0.19262 0.23914 0.0
C2719 C 0.34929 0.16474 0.27397 0.0
C2720 C 0.36285 0.17537 0.28795 0.0
C2721 C 0.34521 0.14447 0.26993 0.0
C2722 C 0.33187 0.13263 0.2543 0.0
C2723 C 0.33347 0.13556 0.2359 0.0
C2724 C 0.32092 0.12436 0.22125 0.0
C2725 C 0.30681 0.10999 0.22478 0.0
C2726 C 0.30523 0.10679 0.24296 0.0
C2727 C 0.31771 0.11803 0.25768 0.0
H2728 H 0.29713 0.10129 0.21341 0.0
H2729 H 0.42507 0.2075 0.35096 0.0
H2730 H 0.33796 0.13163 0.52204 0.0
H2731 H 0.36312 0.11774 0.52399 0.0
H2732 H 0.39723 0.16854 0.51059 0.0
H2733 H 0.3716 0.18207 0.50749 0.0
H2734 H 0.40803 0.13941 0.49546 0.0
H2735 H 0.39613 0.16093 0.55705 0.0
H2736 H 0.37851 0.16551 0.58356 0.0
H2737 H 0.3637 0.10458 0.58144 0.0
H2738 H 0.38108 0.0996 0.55477 0.0
H2739 H 0.48014 0.10494 0.53625 0.0
H2740 H 0.46065 0.12542 0.53021 0.0
H2741 H 0.41515 0.07666 0.52325 0.0
H2742 H 0.43436 0.05603 0.52844 0.0
H2743 H 0.41478 0.1107 0.55121 0.0
H2744 H 0.42758 0.09163 0.48662 0.0
H2745 H 0.44876 0.09049 0.46301 0.0
H2746 H 0.46637 0.15218 0.47492 0.0
H2747 H 0.44547 0.15366 0.49882 0.0
C2748 C 0.35078 0.13978 0.51932 0.0
C2749 C 0.35287 0.15799 0.51477 0.0
C2750 C 0.36522 0.13189 0.52058 0.0
C2751 C 0.38226 0.14235 0.51806 0.0
C2752 C 0.38427 0.16026 0.51277 0.0
C2753 C 0.36964 0.16798 0.51101 0.0
C2754 C 0.3978 0.13456 0.52148 0.0
C2755 C 0.40964 0.13343 0.5078 0.0
C2756 C 0.40026 0.12703 0.53774 0.0
C2757 C 0.38982 0.1299 0.55383 0.0
C2758 C 0.38903 0.1485 0.56217 0.0
C2759 C 0.3791 0.15116 0.57724 0.0
C2760 C 0.36996 0.13534 0.58416 0.0
C2761 C 0.37078 0.11682 0.57606 0.0
C2762 C 0.3807 0.11407 0.56099 0.0
C2763 C 0.46602 0.0985 0.53304 0.0
C2764 C 0.45877 0.07888 0.53317 0.0
C2765 C 0.45493 0.11024 0.52969 0.0
C2766 C 0.4365 0.10252 0.5265 0.0
C2767 C 0.42935 0.08288 0.52589 0.0
C2768 C 0.44035 0.07115 0.52899 0.0
C2769 C 0.42428 0.11482 0.52486 0.0
C2770 C 0.41319 0.11692 0.53899 0.0
C2771 C 0.42295 0.12371 0.50938 0.0
C2772 C 0.43507 0.12275 0.4946 0.0
C2773 C 0.43603 0.10495 0.48427 0.0
C2774 C 0.44798 0.10424 0.47084 0.0
C2775 C 0.45893 0.12125 0.46749 0.0
C2776 C 0.45789 0.13901 0.47753 0.0
C2777 C 0.44598 0.1398 0.49101 0.0
H2778 H 0.46819 0.12067 0.4571 0.0
H2779 H 0.36227 0.13744 0.59582 0.0
H2780 H 0.69422 0.5869 0.29277 0.0
H2781 H 0.70945 0.62014 0.2925 0.0
H2782 H 0.75248 0.60155 0.26778 0.0
H2783 H 0.73711 0.56784 0.26786 0.0
H2784 H 0.76515 0.63555 0.29475 0.0
H2785 H 0.72175 0.61442 0.24111 0.0
H2786 H 0.69182 0.59976 0.22452 0.0
H2787 H 0.67199 0.64294 0.25788 0.0
H2788 H 0.70177 0.65772 0.27486 0.0
H2789 H 0.80438 0.72442 0.26856 0.0
H2790 H 0.7905 0.69093 0.26911 0.0
H2791 H 0.74303 0.7063 0.28545 0.0
H2792 H 0.75704 0.74008 0.28462 0.0
H2793 H 0.73291 0.67354 0.26271 0.0
H2794 H 0.77531 0.6946 0.31677 0.0
H2795 H 0.80496 0.71004 0.33375 0.0
H2796 H 0.82621 0.66767 0.30106 0.0
H2797 H 0.79671 0.65214 0.28367 0.0
C2798 C 0.70701 0.58968 0.2874 0.0
C2799 C 0.71427 0.57424 0.28037 0.0
C2800 C 0.71574 0.60893 0.28716 0.0
C2801 C 0.73218 0.61375 0.2799 0.0
C2802 C 0.73984 0.59851 0.27345 0.0
C2803 C 0.73099 0.57909 0.27353 0.0
C2804 C 0.74088 0.63454 0.2787 0.0
C2805 C 0.75814 0.6437 0.28749 0.0
C2806 C 0.73182 0.64576 0.26972 0.0
C2807 C 0.71396 0.63709 0.25936 0.0
C2808 C 0.71098 0.62073 0.24499 0.0
C2809 C 0.69405 0.6124 0.2355 0.0
C2810 C 0.68 0.62039 0.24017 0.0
C2811 C 0.68288 0.63676 0.25429 0.0
C2812 C 0.69979 0.64513 0.26384 0.0
C2813 C 0.7912 0.72092 0.27277 0.0
C2814 C 0.78226 0.73544 0.27719 0.0
C2815 C 0.78309 0.70148 0.27297 0.0
C2816 C 0.76568 0.69563 0.27787 0.0
C2817 C 0.75649 0.71005 0.28178 0.0
C2818 C 0.76459 0.72955 0.28138 0.0
C2819 C 0.75722 0.67466 0.27881 0.0
C2820 C 0.73997 0.66544 0.26998 0.0
C2821 C 0.76623 0.66346 0.28793 0.0
C2822 C 0.78382 0.67228 0.29883 0.0
C2823 C 0.78631 0.68859 0.31318 0.0
C2824 C 0.80309 0.69738 0.32286 0.0
C2825 C 0.81746 0.68985 0.31847 0.0
C2826 C 0.81506 0.67348 0.30444 0.0
C2827 C 0.79831 0.66466 0.29468 0.0
H2828 H 0.83045 0.6967 0.32595 0.0
H2829 H 0.6669 0.61391 0.23282 0.0
H2830 H 0.92537 0.50099 0.79394 0.0
H2831 H 0.90975 0.46676 0.78653 0.0
H2832 H 0.86924 0.47806 0.82113 0.0
H2833 H 0.88455 0.51229 0.82844 0.0
H2834 H 0.88748 0.44855 0.82792 0.0
H2835 H 0.85661 0.46959 0.77987 0.0
H2836 H 0.85443 0.48505 0.75279 0.0
H2837 H 0.87935 0.44573 0.72077 0.0
H2838 H 0.88193 0.43022 0.74778 0.0
H2839 H 0.81364 0.36123 0.77344 0.0
H2840 H 0.82868 0.3949 0.78732 0.0
H2841 H 0.87859 0.37991 0.79128 0.0
H2842 H 0.86334 0.34613 0.77917 0.0
H2843 H 0.8565 0.41174 0.76645 0.0
H2844 H 0.89387 0.39705 0.81832 0.0
H2845 H 0.90215 0.38896 0.84825 0.0
H2846 H 0.86888 0.4217 0.8755 0.0
H2847 H 0.8594 0.42876 0.84532 0.0
C2848 C 0.91323 0.49612 0.8001 0.0
C2849 C 0.90619 0.50913 0.81189 0.0
C2850 C 0.90425 0.47672 0.79564 0.0
C2851 C 0.88833 0.47024 0.80309 0.0
C2852 C 0.88146 0.48308 0.81514 0.0
C2853 C 0.89026 0.50248 0.8194 0.0
C2854 C 0.87959 0.44975 0.79968 0.0
C2855 C 0.88048 0.44038 0.81456 0.0
C2856 C 0.87103 0.43946 0.78208 0.0
C2857 C 0.86969 0.44893 0.76593 0.0
C2858 C 0.86184 0.4644 0.76714 0.0
C2859 C 0.86047 0.47313 0.75178 0.0
C2860 C 0.86681 0.46643 0.73509 0.0
C2861 C 0.87449 0.45095 0.73372 0.0
C2862 C 0.8759 0.44218 0.74904 0.0
C2863 C 0.8277 0.36516 0.77805 0.0
C2864 C 0.83737 0.35132 0.776 0.0
C2865 C 0.83624 0.38423 0.78609 0.0
C2866 C 0.85463 0.38972 0.79136 0.0
C2867 C 0.8643 0.37585 0.78874 0.0
C2868 C 0.85567 0.35669 0.78131 0.0
C2869 C 0.86396 0.41024 0.79495 0.0
C2870 C 0.86331 0.41975 0.77992 0.0
C2871 C 0.87289 0.42069 0.81251 0.0
C2872 C 0.87505 0.41238 0.82924 0.0
C2873 C 0.8874 0.40144 0.83036 0.0
C2874 C 0.89258 0.39735 0.8475 0.0
C2875 C 0.88594 0.40466 0.86376 0.0
C2876 C 0.87392 0.41591 0.86289 0.0
C2877 C 0.86837 0.41962 0.8457 0.0
H2878 H 0.89017 0.40171 0.87705 0.0
H2879 H 0.86571 0.47319 0.7232 0.0
H2880 H 0.07974 0.88191 0.11303 0.0
H2881 H 0.07561 0.91094 0.1032 0.0
H2882 H 0.09166 0.89181 0.04916 0.0
H2883 H 0.09708 0.86355 0.05957 0.0
H2884 H 0.10468 0.92644 0.05615 0.0
H2885 H 0.0445 0.89229 0.06168 0.0
H2886 H 0.02019 0.876 0.07785 0.0
H2887 H 0.02801 0.92741 0.11967 0.0
H2888 H 0.05246 0.94395 0.10384 0.0
H2889 H 0.07635 0.99353 0.01033 0.0
H2890 H 0.07819 0.96385 0.02066 0.0
H2891 H 0.06942 0.98829 0.07638 0.0
H2892 H 0.06709 0.01779 0.06581 0.0
H2893 H 0.05227 0.95155 0.06889 0.0
H2894 H 0.11297 0.98479 0.06413 0.0
H2895 H 0.13742 1.00112 0.04824 0.0
H2896 H 0.12761 0.9511 1.00434 0.0
H2897 H 0.10321 0.93438 0.02015 0.0
C2898 C 0.0823 0.88383 0.09901 0.0
C2899 C 0.08865 0.87018 0.0871 0.0
C2900 C 0.07975 0.90048 0.09325 0.0
C2901 C 0.08279 0.90374 0.0751 0.0
C2902 C 0.08909 0.88998 0.06321 0.0
C2903 C 0.09213 0.87363 0.06916 0.0
C2904 C 0.08008 0.9216 0.06863 0.0
C2905 C 0.09299 0.93156 0.05873 0.0
C2906 C 0.06519 0.92915 0.07227 0.0
C2907 C 0.05039 0.91928 0.08167 0.0
C2908 C 0.04107 0.90008 0.07437 0.0
C2909 C 0.02727 0.89081 0.08347 0.0
C2910 C 0.02259 0.90065 0.0998 0.0
C2911 C 0.03166 0.9198 0.10703 0.0
C2912 C 0.04547 0.92914 0.09799 0.0
C2913 C 0.07467 0.99247 0.02474 0.0
C2914 C 0.07133 1.0079 0.03715 0.0
C2915 C 0.07587 0.97552 0.03073 0.0
C2916 C 0.07429 0.97369 0.0495 0.0
C2917 C 0.07074 0.98912 0.06187 0.0
C2918 C 0.0694 1.00603 0.05582 0.0
C2919 C 0.07672 0.95598 0.05625 0.0
C2920 C 0.06384 0.94618 0.06625 0.0
C2921 C 0.09155 0.94847 0.05266 0.0
C2922 C 0.10624 0.95842 0.04322 0.0
C2923 C 0.11602 0.97732 0.05106 0.0
C2924 C 0.12987 0.98663 0.04207 0.0
C2925 C 0.134 0.97721 0.0252 0.0
C2926 C 0.12438 0.95839 0.01738 0.0
C2927 C 0.1106 0.94895 0.02639 0.0
H2928 H 0.14466 0.98443 0.01819 0.0
H2929 H 0.01191 0.89344 0.10684 0.0
H2930 H 0.98931 0.26779 0.86603 0.0
H2931 H 0.96351 0.27131 0.84758 0.0
H2932 H 0.93844 0.28211 0.89789 0.0
H2933 H 0.96401 0.27843 0.91634 0.0
H2934 H 0.91454 0.25882 0.87065 0.0
H2935 H 0.95891 0.31906 0.87561 0.0
H2936 H 0.98842 0.33903 0.87207 0.0
H2937 H 0.98048 0.31653 0.81294 0.0
H2938 H 0.95099 0.29626 0.81617 0.0
H2939 H 0.84476 0.29222 0.83305 0.0
H2940 H 0.87063 0.28924 0.85156 0.0
H2941 H 0.8996 0.28945 0.80314 0.0
H2942 H 0.87477 0.29514 0.78559 0.0
H2943 H 0.9218 0.30646 0.82931 0.0
H2944 H 0.87768 0.24633 0.82327 0.0
H2945 H 0.84813 0.22594 0.82609 0.0
H2946 H 0.85595 0.24589 0.88556 0.0
H2947 H 0.88518 0.26686 0.88309 0.0
C2948 C 0.97829 0.27081 0.87319 0.0
C2949 C 0.97891 0.27284 0.89277 0.0
C2950 C 0.96351 0.27295 0.8626 0.0
C2951 C 0.94894 0.27724 0.87127 0.0
C2952 C 0.9494 0.27884 0.89075 0.0
C2953 C 0.96415 0.27677 0.90134 0.0
C2954 C 0.93332 0.28024 0.86021 0.0
C2955 C 0.91614 0.26937 0.86173 0.0
C2956 C 0.93522 0.29364 0.84814 0.0
C2957 C 0.95281 0.30605 0.84616 0.0
C2958 C 0.9635 0.31831 0.86187 0.0
C2959 C 0.98021 0.32969 0.85992 0.0
C2960 C 0.98633 0.32902 0.8423 0.0
C2961 C 0.97572 0.31702 0.82658 0.0
C2962 C 0.959 0.30561 0.82846 0.0
C2963 C 0.85662 0.29159 0.82631 0.0
C2964 C 0.85711 0.2928 0.80732 0.0
C2965 C 0.87147 0.28965 0.83691 0.0
C2966 C 0.88712 0.28819 0.82873 0.0
C2967 C 0.88776 0.29005 0.80993 0.0
C2968 C 0.87317 0.29269 0.79957 0.0
C2969 C 0.90283 0.28493 0.83959 0.0
C2970 C 0.92008 0.29578 0.83808 0.0
C2971 C 0.90101 0.27126 0.85144 0.0
C2972 C 0.88357 0.25828 0.85297 0.0
C2973 C 0.87302 0.24644 0.83695 0.0
C2974 C 0.85628 0.23484 0.83848 0.0
C2975 C 0.85007 0.23473 0.856 0.0
C2976 C 0.86064 0.24613 0.872 0.0
C2977 C 0.8773 0.25788 0.87055 0.0
H2978 H 0.83711 0.22575 0.8572 0.0
H2979 H 0.99929 0.33782 0.84082 0.0
H2980 H 0.58879 0.25163 0.62005 0.0
H2981 H 0.58641 0.21816 0.60649 0.0
H2982 H 0.58813 0.23166 0.55152 0.0
H2983 H 0.59091 0.26579 0.56517 0.0
H2984 H 0.56095 0.19541 0.55494 0.0
H2985 H 0.6228 0.22497 0.56689 0.0
H2986 H 0.65093 0.24503 0.5845 0.0
H2987 H 0.6446 0.20987 0.6261 0.0
H2988 H 0.61618 0.18987 0.60897 0.0
H2989 H 0.57255 0.10051 0.52178 0.0
H2990 H 0.57864 0.13578 0.52683 0.0
H2991 H 0.58328 0.13895 0.58643 0.0
H2992 H 0.57688 0.10386 0.5814 0.0
H2993 H 0.60893 0.1677 0.57573 0.0
H2994 H 0.54543 0.14032 0.56497 0.0
H2995 H 0.51817 0.11913 0.54643 0.0
H2996 H 0.5284 0.14953 0.50145 0.0
H2997 H 0.55589 0.17073 0.51963 0.0
C2998 C 0.58853 0.24764 0.60503 0.0
C2999 C 0.59003 0.26162 0.59376 0.0
C3000 C 0.5872 0.22836 0.59729 0.0
C3001 C 0.58711 0.22227 0.57797 0.0
C3002 C 0.58811 0.23597 0.56647 0.0
C3003 C 0.58976 0.25551 0.5743 0.0
C3004 C 0.58672 0.20172 0.57035 0.0
C3005 C 0.57162 0.18944 0.55913 0.0
C3006 C 0.60046 0.19372 0.57602 0.0
C3007 C 0.61727 0.20602 0.58671 0.0
C3008 C 0.62727 0.22168 0.57993 0.0
C3009 C 0.64328 0.23302 0.5898 0.0
C3010 C 0.64953 0.22875 0.60641 0.0
C3011 C 0.63972 0.21319 0.61325 0.0
C3012 C 0.62365 0.20185 0.60346 0.0
C3013 C 0.57521 0.10877 0.53592 0.0
C3014 C 0.57431 0.09941 0.5512 0.0
C3015 C 0.57858 0.12894 0.53881 0.0
C3016 C 0.58124 0.1401 0.55705 0.0
C3017 C 0.58126 0.13075 0.57225 0.0
C3018 C 0.57763 0.11067 0.56936 0.0
C3019 C 0.5831 0.16135 0.56056 0.0
C3020 C 0.59841 0.17372 0.57121 0.0
C3021 C 0.56958 0.16937 0.55431 0.0
C3022 C 0.55281 0.15699 0.54358 0.0
C3023 C 0.54192 0.14242 0.55109 0.0
C3024 C 0.52642 0.13041 0.54065 0.0
C3025 C 0.52158 0.13295 0.52276 0.0
C3026 C 0.53218 0.14757 0.5153 0.0
C3027 C 0.54772 0.15959 0.52567 0.0
H3028 H 0.50959 0.12363 0.51469 0.0
H3029 H 0.66202 0.23744 0.6139 0.0
H3030 H 0.56803 0.8022 0.37987 0.0
H3031 H 0.59492 0.80502 0.36406 0.0
H3032 H 0.60581 0.75773 0.38641 0.0
H3033 H 0.5796 0.75596 0.40341 0.0
H3034 H 0.63504 0.78085 0.38761 0.0
H3035 H 0.58866 0.75541 0.3373 0.0
H3036 H 0.56112 0.75376 0.31809 0.0
H3037 H 0.5845 0.80914 0.30571 0.0
H3038 H 0.6121 0.81122 0.32504 0.0
H3039 H 0.69899 0.76883 0.32035 0.0
H3040 H 0.67417 0.76473 0.33978 0.0
H3041 H 0.6648 0.81805 0.32997 0.0
H3042 H 0.68938 0.82214 0.31072 0.0
H3043 H 0.63481 0.78934 0.32185 0.0
H3044 H 0.68198 0.81305 0.37303 0.0
H3045 H 0.70915 0.81221 0.3914 0.0
H3046 H 0.68358 0.756 0.40044 0.0
H3047 H 0.65633 0.7564 0.3819 0.0
C3048 C 0.57605 0.79226 0.38122 0.0
C3049 C 0.57152 0.77869 0.39271 0.0
C3050 C 0.59146 0.7938 0.37207 0.0
C3051 C 0.60241 0.78127 0.37351 0.0
C3052 C 0.59775 0.7676 0.38491 0.0
C3053 C 0.58263 0.76647 0.39454 0.0
C3054 C 0.6188 0.78268 0.36344 0.0
C3055 C 0.63483 0.7824 0.37313 0.0
C3056 C 0.61889 0.78485 0.34453 0.0
C3057 C 0.60239 0.78352 0.33271 0.0
C3058 C 0.58789 0.76727 0.33054 0.0
C3059 C 0.57228 0.76626 0.31963 0.0
C3060 C 0.57105 0.78135 0.31071 0.0
C3061 C 0.58546 0.79746 0.31264 0.0
C3062 C 0.60111 0.79855 0.32354 0.0
C3063 C 0.69191 0.77989 0.32276 0.0
C3064 C 0.6961 0.79574 0.31386 0.0
C3065 C 0.67766 0.77751 0.33382 0.0
C3066 C 0.66742 0.79101 0.33627 0.0
C3067 C 0.67228 0.80731 0.32818 0.0
C3068 C 0.68641 0.80967 0.3172 0.0
C3069 C 0.65097 0.7878 0.3461 0.0
C3070 C 0.63492 0.78769 0.33631 0.0
C3071 C 0.65082 0.78483 0.36472 0.0
C3072 C 0.66718 0.78467 0.37592 0.0
C3073 C 0.6822 0.80045 0.37881 0.0
C3074 C 0.69761 0.80006 0.38928 0.0
C3075 C 0.69811 0.78404 0.39704 0.0
C3076 C 0.68318 0.76839 0.39439 0.0
C3077 C 0.66775 0.76869 0.38392 0.0
H3078 H 0.71005 0.78377 0.40514 0.0
H3079 H 0.55894 0.78055 0.30229 0.0
H3080 H 0.10843 0.26004 0.40035 0.0
H3081 H 0.10442 0.23297 0.41654 0.0
H3082 H 0.09653 0.26955 0.46684 0.0
H3083 H 0.10105 0.29664 0.45108 0.0
H3084 H 0.11695 0.24778 0.47465 0.0
H3085 H 0.06125 0.23844 0.43626 0.0
H3086 H 0.04264 0.2337 0.40649 0.0
H3087 H 0.05933 0.18296 0.38531 0.0
H3088 H 0.07817 0.18752 0.41491 0.0
H3089 H 0.0676 0.19003 0.52889 0.0
H3090 H 0.07828 0.21247 0.50869 0.0
H3091 H 0.0821 0.16547 0.46552 0.0
H3092 H 0.07012 0.14267 0.48517 0.0
H3093 H 0.06773 0.18931 0.45125 0.0
H3094 H 0.12022 0.19681 0.49234 0.0
H3095 H 0.13812 0.20199 0.52263 0.0
H3096 H 0.12682 0.25676 0.53935 0.0
H3097 H 0.10875 0.25184 0.50922 0.0
C3098 C 0.10604 0.26231 0.41492 0.0
C3099 C 0.10502 0.2804 0.42445 0.0
C3100 C 0.10366 0.24686 0.42408 0.0
C3101 C 0.09997 0.24929 0.44276 0.0
C3102 C 0.0994 0.26744 0.45241 0.0
C3103 C 0.10197 0.28289 0.44336 0.0
C3104 C 0.09629 0.23299 0.45242 0.0
C3105 C 0.10617 0.23499 0.46959 0.0
C3106 C 0.08256 0.21613 0.44545 0.0
C3107 C 0.07127 0.21345 0.42768 0.0
C3108 C 0.06105 0.22636 0.42519 0.0
C3109 C 0.05044 0.22369 0.40837 0.0
C3110 C 0.04985 0.20808 0.394 0.0
C3111 C 0.05983 0.19507 0.39644 0.0
C3112 C 0.07046 0.19768 0.41323 0.0
C3113 C 0.07041 0.18439 0.51499 0.0
C3114 C 0.06796 0.16457 0.50862 0.0
C3115 C 0.07685 0.19728 0.5036 0.0
C3116 C 0.08139 0.19063 0.48583 0.0
C3117 C 0.07884 0.17085 0.4793 0.0
C3118 C 0.07212 0.15789 0.49059 0.0
C3119 C 0.08804 0.20439 0.47382 0.0
C3120 C 0.07876 0.20189 0.45618 0.0
C3121 C 0.10223 0.2209 0.48042 0.0
C3122 C 0.11308 0.2239 0.49856 0.0
C3123 C 0.12148 0.2099 0.50252 0.0
C3124 C 0.13167 0.21281 0.51965 0.0
C3125 C 0.13359 0.22968 0.53291 0.0
C3126 C 0.12534 0.24371 0.52906 0.0
C3127 C 0.11516 0.24088 0.51195 0.0
H3128 H 0.14148 0.2319 0.54616 0.0
H3129 H 0.04164 0.20603 0.38098 0.0
H3130 H 0.56981 0.29117 0.21051 0.0
H3131 H 0.59905 0.28709 0.22028 0.0
H3132 H 0.59766 0.24937 0.1674 0.0
H3133 H 0.56905 0.25391 0.15723 0.0
H3134 H 0.60293 0.24139 0.21354 0.0
H3135 H 0.62438 0.27105 0.15982 0.0
H3136 H 0.62628 0.29704 0.14206 0.0
H3137 H 0.64862 0.33914 0.19189 0.0
H3138 H 0.64643 0.31332 0.21001 0.0
H3139 H 0.68462 0.21541 0.21717 0.0
H3140 H 0.65756 0.22242 0.20503 0.0
H3141 H 0.67488 0.28023 0.23754 0.0
H3142 H 0.70171 0.2733 0.24997 0.0
H3143 H 0.66167 0.2789 0.20118 0.0
H3144 H 0.6454 0.24826 0.25328 0.0
H3145 H 0.64284 0.22234 0.27122 0.0
H3146 H 0.61009 0.18197 0.225 0.0
H3147 H 0.61269 0.20761 0.20668 0.0
C3148 C 0.57598 0.28237 0.20088 0.0
C3149 C 0.56735 0.27301 0.1831 0.0
C3150 C 0.59255 0.28006 0.20644 0.0
C3151 C 0.60039 0.26819 0.19436 0.0
C3152 C 0.59187 0.25893 0.17663 0.0
C3153 C 0.57557 0.26156 0.1709 0.0
C3154 C 0.61688 0.26419 0.20074 0.0
C3155 C 0.6158 0.24942 0.21075 0.0
C3156 C 0.63345 0.27487 0.19711 0.0
C3157 C 0.63496 0.29034 0.18628 0.0
C3158 C 0.62946 0.28586 0.16701 0.0
C3159 C 0.63063 0.30055 0.15688 0.0
C3160 C 0.63749 0.31974 0.16585 0.0
C3161 C 0.64324 0.32427 0.18497 0.0
C3162 C 0.64201 0.30962 0.19518 0.0
C3163 C 0.68255 0.22953 0.22185 0.0
C3164 C 0.6952 0.24378 0.23454 0.0
C3165 C 0.66721 0.23355 0.21482 0.0
C3166 C 0.66434 0.25181 0.22049 0.0
C3167 C 0.677 0.26611 0.23297 0.0
C3168 C 0.69228 0.2621 0.24003 0.0
C3169 C 0.64782 0.25588 0.21393 0.0
C3170 C 0.64885 0.27075 0.20394 0.0
C3171 C 0.63114 0.24515 0.21749 0.0
C3172 C 0.62939 0.22979 0.22856 0.0
C3173 C 0.63776 0.23382 0.2469 0.0
C3174 C 0.63629 0.21919 0.25714 0.0
C3175 C 0.62635 0.20051 0.24924 0.0
C3176 C 0.61781 0.19644 0.2311 0.0
C3177 C 0.61927 0.21101 0.22078 0.0
H3178 H 0.62523 0.1892 0.25719 0.0
H3179 H 0.63842 0.3311 0.15798 0.0
H3180 H 0.61155 0.8644 0.95368 0.0
H3181 H 0.60707 0.893 0.97335 0.0
H3182 H 0.60615 0.91996 0.92553 0.0
H3183 H 0.61038 0.8912 0.90547 0.0
H3184 H 0.62354 0.94466 0.96341 0.0
H3185 H 0.56991 0.90066 0.93001 0.0
H3186 H 0.5494 0.86863 0.91843 0.0
H3187 H 0.54408 0.86083 0.97486 0.0
H3188 H 0.56486 0.89271 0.98675 0.0
H3189 H 0.56796 1.00568 0.9844 0.0
H3190 H 0.58126 0.98092 0.96954 0.0
H3191 H 0.57344 0.95301 0.01684 0.0
H3192 H 0.55953 0.9778 0.03171 0.0
H3193 H 0.56203 0.92881 0.98104 0.0
H3194 H 0.61295 0.97743 0.01349 0.0
H3195 H 0.63415 0.00935 0.02294 0.0
H3196 H 0.64365 0.0096 0.9658 0.0
H3197 H 0.62233 0.97788 0.95587 0.0
C3198 C 0.61087 0.87658 0.94739 0.0
C3199 C 0.61089 0.87553 0.92802 0.0
C3200 C 0.6084 0.89286 0.95865 0.0
C3201 C 0.60614 0.9082 0.95066 0.0
C3202 C 0.6079 0.90805 0.93172 0.0
C3203 C 0.61015 0.89164 0.92034 0.0
C3204 C 0.59911 0.92282 0.96143 0.0
C3205 C 0.61009 0.94139 0.96722 0.0
C3206 C 0.58162 0.91809 0.96634 0.0
C3207 C 0.56916 0.89891 0.95925 0.0
C3208 C 0.56456 0.892 0.93994 0.0
C3209 C 0.55284 0.8739 0.93331 0.0
C3210 C 0.5455 0.86266 0.9459 0.0
C3211 C 0.54982 0.86953 0.96513 0.0
C3212 C 0.56158 0.88761 0.97182 0.0
C3213 C 0.56842 0.99386 0.99129 0.0
C3214 C 0.56208 0.99297 0.00873 0.0
C3215 C 0.57643 0.98008 0.98304 0.0
C3216 C 0.5784 0.96546 0.9923 0.0
C3217 C 0.57198 0.96438 0.00967 0.0
C3218 C 0.56397 0.97829 0.018 0.0
C3219 C 0.58648 0.95083 0.98322 0.0
C3220 C 0.5756 0.93215 0.97754 0.0
C3221 C 0.60393 0.95565 0.97809 0.0
C3222 C 0.61599 0.97525 0.98393 0.0
C3223 C 0.61936 0.9844 1.00289 0.0
C3224 C 0.63145 1.00245 0.00833 0.0
C3225 C 0.64029 0.01144 0.99496 0.0
C3226 C 0.63683 1.00259 0.9761 0.0
C3227 C 0.62476 0.98458 0.97057 0.0
H3228 H 0.64996 0.02516 0.99919 0.0
H3229 H 0.53641 0.84866 0.94075 0.0
H3230 H 0.96293 0.79292 0.6745 0.0
H3231 H 0.93325 0.79242 0.68364 0.0
H3232 H 0.94736 0.77674 0.73557 0.0
H3233 H 0.97691 0.77701 0.72655 0.0
H3234 H 0.91606 0.75268 0.71567 0.0
H3235 H 0.94489 0.82173 0.73347 0.0
H3236 H 0.96038 0.85284 0.72623 0.0
H3237 H 0.91634 0.84973 0.68681 0.0
H3238 H 0.90073 0.81842 0.69355 0.0
H3239 H 0.85091 0.76422 0.77428 0.0
H3240 H 0.87816 0.76543 0.75913 0.0
H3241 H 0.85756 0.79009 0.71591 0.0
H3242 H 0.83074 0.78964 0.73149 0.0
H3243 H 0.88996 0.80855 0.72609 0.0
H3244 H 0.86054 0.74344 0.70598 0.0
H3245 H 0.84337 0.71074 0.70728 0.0
H3246 H 0.88503 0.70474 0.74486 0.0
H3247 H 0.90257 0.73747 0.74368 0.0
C3248 C 0.9598 0.7897 0.68801 0.0
C3249 C 0.97221 0.78499 0.69983 0.0
C3250 C 0.94286 0.78938 0.69315 0.0
C3251 C 0.93823 0.78451 0.71022 0.0
C3252 C 0.95076 0.78044 0.72229 0.0
C3253 C 0.96764 0.78072 0.71717 0.0
C3254 C 0.92012 0.78286 0.7154 0.0
C3255 C 0.9104 0.76494 0.7182 0.0
C3256 C 0.91245 0.7986 0.71753 0.0
C3257 C 0.92175 0.81761 0.71384 0.0
C3258 C 0.93858 0.8276 0.72314 0.0
C3259 C 0.94738 0.84528 0.71914 0.0
C3260 C 0.93939 0.85322 0.70601 0.0
C3261 C 0.92254 0.84354 0.69693 0.0
C3262 C 0.91372 0.82583 0.70084 0.0
C3263 C 0.85234 0.76991 0.76157 0.0
C3264 C 0.83915 0.77728 0.75424 0.0
C3265 C 0.86773 0.77044 0.75284 0.0
C3266 C 0.86975 0.77767 0.73629 0.0
C3267 C 0.85627 0.78453 0.72869 0.0
C3268 C 0.84102 0.78431 0.7376 0.0
C3269 C 0.88623 0.77861 0.72735 0.0
C3270 C 0.89557 0.79628 0.72361 0.0
C3271 C 0.89333 0.7625 0.72374 0.0
C3272 C 0.88285 0.74291 0.72476 0.0
C3273 C 0.86602 0.73518 0.71459 0.0
C3274 C 0.85624 0.71662 0.71525 0.0
C3275 C 0.86314 0.70562 0.72607 0.0
C3276 C 0.87978 0.71323 0.73635 0.0
C3277 C 0.88968 0.73176 0.73564 0.0
H3278 H 0.85552 0.69125 0.72658 0.0
H3279 H 0.94623 0.8669 0.70292 0.0
H3280 H 0.13948 0.06075 0.83039 0.0
H3281 H 0.12665 0.06229 0.86033 0.0
H3282 H 0.12647 1.00329 0.85952 0.0
H3283 H 0.13973 1.00184 0.82973 0.0
H3284 H 0.09494 0.01036 0.872 0.0
H3285 H 0.15706 0.04024 0.88874 0.0
H3286 H 0.18565 0.06345 0.88794 0.0
H3287 H 0.16268 0.11037 0.90608 0.0
H3288 H 0.13387 0.08742 0.90674 0.0
H3289 H 0.07243 0.01099 0.96661 0.0
H3290 H 0.085 1.00753 0.93664 0.0
H3291 H 0.10185 0.06927 0.94342 0.0
H3292 H 0.09029 0.07252 0.97378 0.0
H3293 H 0.12515 0.05992 0.92724 0.0
H3294 H 0.06284 0.03159 0.90927 0.0
H3295 H 0.03368 0.00927 0.90984 0.0
H3296 H 0.05538 0.96104 0.89342 0.0
H3297 H 0.08471 0.98308 0.89283 0.0
C3298 C 0.13674 0.04801 0.83647 0.0
C3299 C 0.14087 0.03116 0.82721 0.0
C3300 C 0.12935 0.04894 0.85386 0.0
C3301 C 0.12543 0.03296 0.8628 0.0
C3302 C 0.12918 0.01597 0.85335 0.0
C3303 C 0.13691 0.01516 0.83613 0.0
C3304 C 0.11779 0.03411 0.88191 0.0
C3305 C 0.10172 0.02113 0.88408 0.0
C3306 C 0.126 0.04831 0.89803 0.0
C3307 C 0.14327 0.06212 0.8976 0.0
C3308 C 0.15807 0.05551 0.8924 0.0
C3309 C 0.17431 0.06862 0.892 0.0
C3310 C 0.17596 0.08837 0.89691 0.0
C3311 C 0.16137 0.09506 0.90226 0.0
C3312 C 0.14508 0.08201 0.90266 0.0
C3313 C 0.07888 0.02387 0.96178 0.0
C3314 C 0.08051 0.04208 0.97323 0.0
C3315 C 0.08598 0.02191 0.94423 0.0
C3316 C 0.09441 0.03809 0.93676 0.0
C3317 C 0.09577 0.05627 0.94825 0.0
C3318 C 0.08911 0.0582 0.96598 0.0
C3319 C 0.10199 0.03635 0.91749 0.0
C3320 C 0.11816 0.0492 0.91523 0.0
C3321 C 0.09367 0.02224 0.90121 0.0
C3322 C 0.076 0.00898 0.90119 0.0
C3323 C 0.0614 0.01622 0.90584 0.0
C3324 C 0.04485 1.00362 0.90618 0.0
C3325 C 0.0427 0.98375 0.90177 0.0
C3326 C 0.05708 0.97644 0.89687 0.0
C3327 C 0.07366 0.98897 0.8965 0.0
H3328 H 0.02989 0.97403 0.9021 0.0
H3329 H 0.18856 0.0985 0.8966 0.0
H3330 H 0.82459 0.43826 0.58934 0.0
H3331 H 0.82901 0.42241 0.61516 0.0
H3332 H 0.79907 0.36786 0.58206 0.0
H3333 H 0.79495 0.38352 0.55568 0.0
H3334 H 0.79411 0.3861 0.62627 0.0
H3335 H 0.83186 0.36326 0.58174 0.0
H3336 H 0.85385 0.36771 0.55902 0.0
H3337 H 0.89107 0.40899 0.60117 0.0
H3338 H 0.86915 0.40505 0.62407 0.0
H3339 H 0.82696 0.32593 0.68048 0.0
H3340 H 0.81356 0.34069 0.65813 0.0
H3341 H 0.85529 0.39303 0.6753 0.0
H3342 H 0.86841 0.3788 0.69856 0.0
H3343 H 0.85294 0.37342 0.63735 0.0
H3344 H 0.81836 0.39904 0.68081 0.0
H3345 H 0.7965 0.40485 0.70255 0.0
H3346 H 0.75471 0.36494 0.66417 0.0
H3347 H 0.77636 0.35869 0.64225 0.0
C3348 C 0.81859 0.42297 0.58763 0.0
C3349 C 0.80948 0.41205 0.57055 0.0
C3350 C 0.82129 0.41397 0.60229 0.0
C3351 C 0.81463 0.39408 0.60011 0.0
C3352 C 0.80444 0.38325 0.58364 0.0
C3353 C 0.80202 0.39219 0.56876 0.0
C3354 C 0.81872 0.38487 0.61526 0.0
C3355 C 0.8067 0.38264 0.62855 0.0
C3356 C 0.83558 0.38159 0.6183 0.0
C3357 C 0.84876 0.38405 0.60454 0.0
C3358 C 0.84463 0.37349 0.5861 0.0
C3359 C 0.85711 0.37587 0.5732 0.0
C3360 C 0.87382 0.38868 0.57863 0.0
C3361 C 0.8781 0.3991 0.59698 0.0
C3362 C 0.86566 0.3968 0.60992 0.0
C3363 C 0.83294 0.34085 0.68014 0.0
C3364 C 0.84893 0.35113 0.69113 0.0
C3365 C 0.82523 0.34922 0.66732 0.0
C3366 C 0.83353 0.36782 0.66518 0.0
C3367 C 0.84878 0.37861 0.67691 0.0
C3368 C 0.85635 0.37038 0.68997 0.0
C3369 C 0.82821 0.3745 0.64858 0.0
C3370 C 0.8401 0.37629 0.63497 0.0
C3371 C 0.81132 0.37768 0.6454 0.0
C3372 C 0.79901 0.37829 0.65996 0.0
C3373 C 0.8046 0.39104 0.67725 0.0
C3374 C 0.79222 0.39458 0.6895 0.0
C3375 C 0.77422 0.3855 0.68456 0.0
C3376 C 0.76865 0.3721 0.66784 0.0
C3377 C 0.78097 0.36851 0.65554 0.0
H3378 H 0.76455 0.38906 0.69355 0.0
H3379 H 0.88347 0.39048 0.56863 0.0
H3380 H 0.45503 0.09376 0.36893 0.0
H3381 H 0.46773 0.09655 0.40124 0.0
H3382 H 0.48434 0.04453 0.38435 0.0
H3383 H 0.47215 0.04184 0.35236 0.0
H3384 H 0.46876 0.04782 0.4195 0.0
H3385 H 0.51339 0.08285 0.38399 0.0
H3386 H 0.52404 0.10812 0.36595 0.0
H3387 H 0.51697 0.15104 0.41111 0.0
H3388 H 0.50609 0.12593 0.42931 0.0
H3389 H 0.54156 0.03349 0.46447 0.0
H3390 H 0.52192 0.04034 0.44074 0.0
H3391 H 0.52706 0.09676 0.47431 0.0
H3392 H 0.54739 0.09016 0.49758 0.0
H3393 H 0.52618 0.09726 0.43771 0.0
H3394 H 0.49146 0.06116 0.47686 0.0
H3395 H 0.48421 0.03486 0.49434 0.0
H3396 H 0.47359 0.99321 0.44292 0.0
H3397 H 0.48102 0.01924 0.42512 0.0
C3398 C 0.46133 0.08294 0.37225 0.0
C3399 C 0.46293 0.06779 0.35826 0.0
C3400 C 0.46839 0.08446 0.39059 0.0
C3401 C 0.47672 0.07063 0.39496 0.0
C3402 C 0.47773 0.05517 0.38113 0.0
C3403 C 0.47101 0.05384 0.36287 0.0
C3404 C 0.48637 0.07309 0.41329 0.0
C3405 C 0.48116 0.05879 0.42379 0.0
C3406 C 0.50232 0.0876 0.41881 0.0
C3407 C 0.50867 0.10256 0.40782 0.0
C3408 C 0.51394 0.09766 0.38996 0.0
C3409 C 0.52005 0.11194 0.37974 0.0
C3410 C 0.5211 0.13117 0.38734 0.0
C3411 C 0.51608 0.13615 0.40521 0.0
C3412 C 0.50994 0.12191 0.41547 0.0
C3413 C 0.53888 0.04753 0.46632 0.0
C3414 C 0.54585 0.06146 0.4824 0.0
C3415 C 0.52758 0.05134 0.45304 0.0
C3416 C 0.52273 0.0688 0.45625 0.0
C3417 C 0.53062 0.08318 0.47182 0.0
C3418 C 0.54225 0.0795 0.48492 0.0
C3419 C 0.50892 0.0716 0.44355 0.0
C3420 C 0.51337 0.08685 0.43413 0.0
C3421 C 0.49228 0.05792 0.43908 0.0
C3422 C 0.48678 0.0422 0.44963 0.0
C3423 C 0.48755 0.04639 0.46926 0.0
C3424 C 0.48345 0.03153 0.47924 0.0
C3425 C 0.47845 0.01238 0.46975 0.0
C3426 C 0.47743 1.00806 0.45025 0.0
C3427 C 0.48154 0.02287 0.4402 0.0
H3428 H 0.47537 1.00089 0.4775 0.0
H3429 H 0.52584 0.14221 0.37942 0.0
H3430 H 0.82041 0.75743 0.0646 0.0
H3431 H 0.81952 0.77248 0.0974 0.0
H3432 H 0.8012 0.71638 0.11077 0.0
H3433 H 0.80266 0.70132 0.07857 0.0
H3434 H 0.78074 0.75081 0.11982 0.0
H3435 H 0.83425 0.72812 0.12742 0.0
H3436 H 0.86433 0.72651 0.12037 0.0
H3437 H 0.88308 0.78789 0.13742 0.0
H3438 H 0.85294 0.78989 0.14413 0.0
H3439 H 0.79107 0.74528 0.21736 0.0
H3440 H 0.79092 0.741 0.18341 0.0
H3441 H 0.81 0.80234 0.18837 0.0
H3442 H 0.80942 0.80677 0.22258 0.0
H3443 H 0.83143 0.77127 0.16948 0.0
H3444 H 0.77955 0.7952 0.16075 0.0
H3445 H 0.74927 0.79882 0.16351 0.0
H3446 H 0.72838 0.73747 0.14899 0.0
H3447 H 0.75858 0.7336 0.14533 0.0
C3448 C 0.81642 0.74835 0.07462 0.0
C3449 C 0.81177 0.72819 0.06902 0.0
C3450 C 0.81593 0.75695 0.0933 0.0
C3451 C 0.81045 0.74549 0.10648 0.0
C3452 C 0.80566 0.72544 0.10085 0.0
C3453 C 0.80656 0.71688 0.08243 0.0
C3454 C 0.8087 0.75415 0.12597 0.0
C3455 C 0.79185 0.75533 0.13066 0.0
C3456 C 0.82323 0.76038 0.14002 0.0
C3457 C 0.84128 0.75919 0.13589 0.0
C3458 C 0.84471 0.74131 0.12934 0.0
C3459 C 0.86178 0.74031 0.12548 0.0
C3460 C 0.87559 0.7571 0.12834 0.0
C3461 C 0.87235 0.77491 0.13512 0.0
C3462 C 0.85527 0.77598 0.13893 0.0
C3463 C 0.79456 0.75791 0.21114 0.0
C3464 C 0.79995 0.77635 0.22253 0.0
C3465 C 0.79457 0.75545 0.19177 0.0
C3466 C 0.8005 0.77133 0.1834 0.0
C3467 C 0.80526 0.78991 0.1946 0.0
C3468 C 0.80478 0.79244 0.21407 0.0
C3469 C 0.80342 0.76788 0.16333 0.0
C3470 C 0.82043 0.76726 0.15855 0.0
C3471 C 0.78909 0.76221 0.14913 0.0
C3472 C 0.77125 0.76412 0.15299 0.0
C3473 C 0.7685 0.78248 0.15837 0.0
C3474 C 0.75135 0.78459 0.15991 0.0
C3475 C 0.73689 0.76838 0.15654 0.0
C3476 C 0.73958 0.75001 0.15158 0.0
C3477 C 0.75669 0.74786 0.14963 0.0
H3478 H 0.72362 0.77005 0.15784 0.0
H3479 H 0.88882 0.75631 0.12539 0.0
H3480 H 0.16852 0.01046 0.69915 0.0
H3481 H 0.15485 0.01532 0.67001 0.0
H3482 H 0.11225 0.0302 0.69883 0.0
H3483 H 0.126 0.02548 0.7282 0.0
H3484 H 0.09876 0.00851 0.66356 0.0
H3485 H 0.14681 0.065 0.68661 0.0
H3486 H 0.17782 0.08262 0.69792 0.0
H3487 H 0.19479 0.05848 0.6464 0.0
H3488 H 0.16391 0.04052 0.63489 0.0
H3489 H 0.06518 0.04226 0.58426 0.0
H3490 H 0.07578 0.03872 0.61559 0.0
H3491 H 0.12676 0.03729 0.5968 0.0
H3492 H 0.11665 0.04216 0.56644 0.0
H3493 H 0.13496 0.05334 0.62873 0.0
H3494 H 0.0891 0.99507 0.60571 0.0
H3495 H 0.05883 0.97561 0.59337 0.0
H3496 H 0.0386 1.0001 0.64261 0.0
H3497 H 0.06873 0.01983 0.65516 0.0
C3498 C 0.15613 0.01457 0.69943 0.0
C3499 C 0.14854 0.01742 0.71651 0.0
C3500 C 0.14828 0.01753 0.68254 0.0
C3501 C 0.13237 0.02344 0.68173 0.0
C3502 C 0.12445 0.02571 0.69862 0.0
C3503 C 0.13242 0.02296 0.71562 0.0
C3504 C 0.12445 0.02769 0.66358 0.0
C3505 C 0.1067 0.01851 0.65611 0.0
C3506 C 0.13452 0.04037 0.65313 0.0
C3507 C 0.15307 0.05129 0.65996 0.0
C3508 C 0.15717 0.06336 0.67775 0.0
C3509 C 0.17472 0.07342 0.68418 0.0
C3510 C 0.18827 0.07164 0.6729 0.0
C3511 C 0.18429 0.05983 0.65513 0.0
C3512 C 0.16676 0.04972 0.64864 0.0
C3513 C 0.07872 0.04147 0.5869 0.0
C3514 C 0.08999 0.04272 0.57248 0.0
C3515 C 0.08483 0.0391 0.60495 0.0
C3516 C 0.10226 0.03722 0.60916 0.0
C3517 C 0.11336 0.03868 0.59466 0.0
C3518 C 0.10743 0.0414 0.57695 0.0
C3519 C 0.10927 0.03382 0.62823 0.0
C3520 C 0.12692 0.04325 0.63599 0.0
C3521 C 0.0992 0.02103 0.63868 0.0
C3522 C 0.08113 0.00907 0.63128 0.0
C3523 C 0.07817 0.99636 0.61386 0.0
C3524 C 0.06105 0.98528 0.60683 0.0
C3525 C 0.04679 0.98668 0.61717 0.0
C3526 C 0.04965 0.99907 0.6346 0.0
C3527 C 0.06675 0.01019 0.64169 0.0
H3528 H 0.03354 0.97816 0.61168 0.0
H3529 H 0.20185 0.07943 0.67791 0.0
H3530 H 0.80709 0.41116 0.45678 0.0
H3531 H 0.80738 0.39355 0.42511 0.0
H3532 H 0.83597 0.35729 0.44715 0.0
H3533 H 0.83597 0.37489 0.47876 0.0
H3534 H 0.84873 0.36884 0.41512 0.0
H3535 H 0.79271 0.34105 0.43701 0.0
H3536 H 0.76481 0.34268 0.45047 0.0
H3537 H 0.74859 0.36634 0.40467 0.0
H3538 H 0.77652 0.36508 0.39107 0.0
H3539 H 0.82733 0.29173 0.33446 0.0
H3540 H 0.8286 0.30822 0.36722 0.0
H3541 H 0.80516 0.35032 0.34863 0.0
H3542 H 0.80427 0.3343 0.31621 0.0
H3543 H 0.79033 0.33469 0.37927 0.0
H3544 H 0.8453 0.36357 0.35742 0.0
H3545 H 0.87303 0.36327 0.34318 0.0
H3546 H 0.89138 0.33941 0.38779 0.0
H3547 H 0.86354 0.33918 0.4021 0.0
C3548 C 0.81344 0.39946 0.45486 0.0
C3549 C 0.82129 0.3942 0.4702 0.0
C3550 C 0.81365 0.38949 0.43682 0.0
C3551 C 0.82157 0.37411 0.43399 0.0
C3552 C 0.82983 0.36917 0.44919 0.0
C3553 C 0.82965 0.37912 0.4672 0.0
C3554 C 0.82032 0.36237 0.41526 0.0
C3555 C 0.836 0.36114 0.40734 0.0
C3556 C 0.80366 0.35269 0.40515 0.0
C3557 C 0.78674 0.35312 0.41312 0.0
C3558 C 0.78323 0.3467 0.42987 0.0
C3559 C 0.76741 0.34754 0.43751 0.0
C3560 C 0.75495 0.35465 0.42845 0.0
C3561 C 0.75826 0.36086 0.41168 0.0
C3562 C 0.77407 0.36006 0.40399 0.0
C3563 C 0.82234 0.30439 0.33757 0.0
C3564 C 0.81592 0.31204 0.32318 0.0
C3565 C 0.82311 0.31375 0.35607 0.0
C3566 C 0.81709 0.33045 0.36005 0.0
C3567 C 0.80989 0.33747 0.34565 0.0
C3568 C 0.80947 0.32841 0.32727 0.0
C3569 C 0.81869 0.34114 0.37918 0.0
C3570 C 0.80306 0.34222 0.38714 0.0
C3571 C 0.83538 0.35082 0.38918 0.0
C3572 C 0.8522 0.35107 0.38068 0.0
C3573 C 0.85514 0.35803 0.36408 0.0
C3574 C 0.8709 0.358 0.35601 0.0
C3575 C 0.88394 0.35125 0.36453 0.0
C3576 C 0.88125 0.34458 0.38118 0.0
C3577 C 0.86547 0.34451 0.38927 0.0
H3578 H 0.89614 0.35125 0.35827 0.0
H3579 H 0.74272 0.35532 0.4344 0.0
H3580 H 0.47869 0.07198 0.26894 0.0
H3581 H 0.49135 0.06589 0.23981 0.0
H3582 H 0.44049 0.05818 0.2089 0.0
H3583 H 0.42735 0.06345 0.23836 0.0
H3584 H 0.45413 0.02984 0.19647 0.0
H3585 H 0.47561 0.09734 0.20796 0.0
H3586 H 0.48888 0.12978 0.22678 0.0
H3587 H 0.53791 0.11489 0.23685 0.0
H3588 H 0.52486 0.08222 0.21838 0.0
H3589 H 0.5036 0.01291 0.1182 0.0
H3590 H 0.48473 0.02581 0.13959 0.0
H3591 H 0.52584 0.03686 0.18522 0.0
H3592 H 0.54526 0.0252 0.16365 0.0
H3593 H 0.5129 0.06747 0.18453 0.0
H3594 H 0.48798 0.99786 0.17728 0.0
H3595 H 0.47372 0.96553 0.1586 0.0
H3596 H 0.42999 0.98569 0.13961 0.0
H3597 H 0.44412 0.01822 0.15796 0.0
C3598 C 0.4702 0.06939 0.25599 0.0
C3599 C 0.45201 0.06817 0.25592 0.0
C3600 C 0.47751 0.06602 0.23931 0.0
C3601 C 0.46691 0.06192 0.2222 0.0
C3602 C 0.44887 0.06146 0.222 0.0
C3603 C 0.44144 0.06457 0.2388 0.0
C3604 C 0.4746 0.0564 0.20481 0.0
C3605 C 0.46676 0.03829 0.19353 0.0
C3606 C 0.49107 0.06744 0.20107 0.0
C3607 C 0.49923 0.08729 0.21174 0.0
C3608 C 0.48921 0.10095 0.21421 0.0
C3609 C 0.49669 0.11938 0.22485 0.0
C3610 C 0.51423 0.1244 0.233 0.0
C3611 C 0.52433 0.11099 0.2305 0.0
C3612 C 0.51691 0.09252 0.2199 0.0
C3613 C 0.50863 0.01812 0.13279 0.0
C3614 C 0.52598 0.01819 0.13925 0.0
C3615 C 0.49777 0.02532 0.14499 0.0
C3616 C 0.50391 0.03221 0.16394 0.0
C3617 C 0.52094 0.03164 0.17057 0.0
C3618 C 0.53192 0.02472 0.15832 0.0
C3619 C 0.49289 0.04054 0.17694 0.0
C3620 C 0.50008 0.05926 0.18724 0.0
C3621 C 0.47574 0.03016 0.1796 0.0
C3622 C 0.46721 0.01052 0.16881 0.0
C3623 C 0.47539 0.99543 0.16901 0.0
C3624 C 0.46732 0.97707 0.1585 0.0
C3625 C 0.45099 0.97358 0.14787 0.0
C3626 C 0.44266 0.98842 0.14781 0.0
C3627 C 0.45069 1.00682 0.15826 0.0
H3628 H 0.44478 0.95935 0.13974 0.0
H3629 H 0.51998 0.13867 0.24125 0.0
H3630 H 0.82866 0.71613 0.95539 0.0
H3631 H 0.82981 0.72463 0.9244 0.0
H3632 H 0.79025 0.75582 0.93625 0.0
H3633 H 0.78897 0.74737 0.96703 0.0
H3634 H 0.78178 0.73149 0.90294 0.0
H3635 H 0.83434 0.77859 0.93572 0.0
H3636 H 0.86381 0.78914 0.95389 0.0
H3637 H 0.88501 0.75695 0.91001 0.0
H3638 H 0.8556 0.74597 0.89169 0.0
H3639 H 0.7948 0.7945 0.83528 0.0
H3640 H 0.79679 0.78408 0.86527 0.0
H3641 H 0.81419 0.73544 0.83866 0.0
H3642 H 0.81221 0.74564 0.80856 0.0
H3643 H 0.83508 0.76624 0.8778 0.0
H3644 H 0.78393 0.71901 0.84487 0.0
H3645 H 0.75471 0.70619 0.82657 0.0
H3646 H 0.73088 0.73431 0.87091 0.0
H3647 H 0.7602 0.74866 0.88879 0.0
C3648 C 0.82038 0.725 0.95147 0.0
C3649 C 0.80874 0.73107 0.96374 0.0
C3650 C 0.82107 0.72989 0.93376 0.0
C3651 C 0.81016 0.74094 0.92798 0.0
C3652 C 0.7988 0.74728 0.94036 0.0
C3653 C 0.79814 0.74248 0.95802 0.0
C3654 C 0.80974 0.74515 0.90878 0.0
C3655 C 0.79342 0.73928 0.89755 0.0
C3656 C 0.82505 0.75464 0.90141 0.0
C3657 C 0.84271 0.76126 0.91244 0.0
C3658 C 0.84525 0.77361 0.93002 0.0
C3659 C 0.86195 0.7797 0.94033 0.0
C3660 C 0.87626 0.77366 0.93314 0.0
C3661 C 0.87391 0.76158 0.91559 0.0
C3662 C 0.85723 0.75542 0.90523 0.0
C3663 C 0.79911 0.7816 0.83584 0.0
C3664 C 0.80332 0.77082 0.81961 0.0
C3665 C 0.80023 0.77568 0.85295 0.0
C3666 C 0.80582 0.75909 0.85414 0.0
C3667 C 0.81019 0.74845 0.83801 0.0
C3668 C 0.8088 0.75414 0.82083 0.0
C3669 C 0.80706 0.75293 0.87229 0.0
C3670 C 0.82349 0.75843 0.88325 0.0
C3671 C 0.79191 0.74283 0.87934 0.0
C3672 C 0.77442 0.73543 0.86795 0.0
C3673 C 0.77261 0.72316 0.8504 0.0
C3674 C 0.75598 0.71555 0.8401 0.0
C3675 C 0.74096 0.71965 0.84742 0.0
C3676 C 0.74256 0.73143 0.86505 0.0
C3677 C 0.75921 0.73947 0.87519 0.0
H3678 H 0.72806 0.71352 0.83953 0.0
H3679 H 0.88918 0.7784 0.94114 0.0
H3680 H 0.85477 0.15199 0.01778 0.0
H3681 H 0.88311 0.14337 0.01624 0.0
H3682 H 0.85746 0.08623 0.02396 0.0
H3683 H 0.82954 0.09513 0.02651 0.0
H3684 H 0.88708 0.09956 0.04552 0.0
H3685 H 0.8683 0.09816 0.9799 0.0
H3686 H 0.86026 0.11296 0.95395 0.0
H3687 H 0.91047 0.15523 0.96554 0.0
H3688 H 0.91871 0.14078 0.99169 0.0
H3689 H 0.92802 0.03199 1.00023 0.0
H3690 H 0.90904 0.05327 0.01009 0.0
H3691 H 0.95255 0.10288 0.01082 0.0
H3692 H 0.97165 0.08163 1.00108 0.0
H3693 H 0.92052 0.10204 0.99005 0.0
H3694 H 0.94121 0.09746 0.05094 0.0
H3695 H 0.94887 0.08224 0.07669 0.0
H3696 H 0.89457 0.05012 0.07365 0.0
H3697 H 0.88662 0.06493 0.04771 0.0
C3698 C 0.85527 0.13757 0.01896 0.0
C3699 C 0.84015 0.12414 0.02221 0.0
C3700 C 0.87139 0.13269 0.01811 0.0
C3701 C 0.87231 0.11417 0.01993 0.0
C3702 C 0.85704 0.10067 0.02271 0.0
C3703 C 0.84111 0.10568 0.02403 0.0
C3704 C 0.88905 0.10848 0.01899 0.0
C3705 C 0.89438 0.10002 0.03337 0.0
C3706 C 0.89901 0.10998 1.00357 0.0
C3707 C 0.89402 0.11856 0.98785 0.0
C3708 C 0.87756 0.11069 0.97698 0.0
C3709 C 0.87298 0.119 0.96223 0.0
C3710 C 0.88482 0.13507 0.95814 0.0
C3711 C 0.90129 0.14282 0.96875 0.0
C3712 C 0.90593 0.13458 0.98352 0.0
C3713 C 0.93343 0.04743 1.00237 0.0
C3714 C 0.9511 0.05528 0.99973 0.0
C3715 C 0.92274 0.05951 0.00825 0.0
C3716 C 0.92959 0.07954 0.0114 0.0
C3717 C 0.9472 0.08743 0.00861 0.0
C3718 C 0.95797 0.07535 1.00296 0.0
C3719 C 0.91773 0.09198 0.01596 0.0
C3720 C 0.91345 0.10192 1.00239 0.0
C3721 C 0.90857 0.0916 0.032 0.0
C3722 C 0.91335 0.08223 0.04728 0.0
C3723 C 0.93094 0.08699 0.05562 0.0
C3724 C 0.93532 0.07847 0.07029 0.0
C3725 C 0.92222 0.0652 0.07678 0.0
C3726 C 0.90471 0.0604 0.06861 0.0
C3727 C 0.90025 0.06887 0.05393 0.0
H3728 H 0.92564 0.05865 0.08817 0.0
H3729 H 0.88125 0.14149 0.94672 0.0
H3730 H 0.36194 0.45909 0.04157 0.0
H3731 H 0.39276 0.47782 0.04263 0.0
H3732 H 0.41032 0.42594 0.03896 0.0
H3733 H 0.37966 0.40715 0.03775 0.0
H3734 H 0.43152 0.45573 0.06546 0.0
H3735 H 0.40816 0.44431 1.00152 0.0
H3736 H 0.387 0.44418 0.97512 0.0
H3737 H 0.39828 0.50577 0.98941 0.0
H3738 H 0.41931 0.50624 0.01612 0.0
H3739 H 0.51756 0.48728 0.03472 0.0
H3740 H 0.48669 0.47028 0.03652 0.0
H3741 H 0.47246 0.52426 0.04562 0.0
H3742 H 0.50323 0.54125 0.04407 0.0
H3743 H 0.4495 0.49433 0.01712 0.0
H3744 H 0.47415 0.50493 0.08097 0.0
H3745 H 0.49579 0.50384 0.10639 0.0
H3746 H 0.48251 0.4422 0.09102 0.0
H3747 H 0.46098 0.44295 0.06528 0.0
C3748 C 0.37237 0.45167 0.04103 0.0
C3749 C 0.36828 0.43158 0.03946 0.0
C3750 C 0.38998 0.4624 0.0416 0.0
C3751 C 0.40389 0.45328 0.04079 0.0
C3752 C 0.39986 0.43331 0.03963 0.0
C3753 C 0.38227 0.42257 0.03883 0.0
C3754 C 0.4226 0.46445 0.04075 0.0
C3755 C 0.43546 0.46403 0.05479 0.0
C3756 C 0.42777 0.47549 0.02698 0.0
C3757 C 0.41515 0.47529 0.01095 0.0
C3758 C 0.406 0.45782 0.99915 0.0
C3759 C 0.39405 0.45768 0.98411 0.0
C3760 C 0.39126 0.47496 0.98062 0.0
C3761 C 0.40043 0.4924 0.99215 0.0
C3762 C 0.41237 0.49261 0.00724 0.0
C3763 C 0.50789 0.49555 0.03729 0.0
C3764 C 0.51298 0.51572 0.03953 0.0
C3765 C 0.49025 0.48581 0.03831 0.0
C3766 C 0.47725 0.49599 0.04125 0.0
C3767 C 0.48226 0.5161 0.04339 0.0
C3768 C 0.49995 0.52585 0.04272 0.0
C3769 C 0.4584 0.48563 0.04185 0.0
C3770 C 0.44552 0.48615 0.02786 0.0
C3771 C 0.45325 0.47453 0.05556 0.0
C3772 C 0.4661 0.47401 0.07107 0.0
C3773 C 0.47597 0.49115 0.08289 0.0
C3774 C 0.48819 0.4906 0.09738 0.0
C3775 C 0.49056 0.47296 0.10029 0.0
C3776 C 0.48068 0.45585 0.08874 0.0
C3777 C 0.46846 0.45633 0.0742 0.0
H3778 H 0.50003 0.47256 0.11152 0.0
H3779 H 0.38201 0.47483 0.96896 0.0
H3780 H 0.37205 0.60354 0.74598 0.0
H3781 H 0.35702 0.62915 0.74633 0.0
H3782 H 0.40542 0.6711 0.77122 0.0
H3783 H 0.41974 0.64503 0.77278 0.0
H3784 H 0.38538 0.68823 0.7825 0.0
H3785 H 0.37882 0.6576 0.71731 0.0
H3786 H 0.3699 0.631 0.68981 0.0
H3787 H 0.31592 0.61995 0.70271 0.0
H3788 H 0.32455 0.64639 0.73033 0.0
H3789 H 0.3337 0.74424 0.72317 0.0
H3790 H 0.34657 0.71739 0.72565 0.0
H3791 H 0.34124 0.72613 0.78464 0.0
H3792 H 0.32871 0.75356 0.78212 0.0
H3793 H 0.33952 0.68432 0.73133 0.0
H3794 H 0.36677 0.70846 0.80852 0.0
H3795 H 0.37972 0.73848 0.83169 0.0
H3796 H 0.3992 0.76726 0.78781 0.0
H3797 H 0.38622 0.73746 0.76443 0.0
C3798 C 0.37959 0.61821 0.75158 0.0
C3799 C 0.3974 0.62175 0.75927 0.0
C3800 C 0.37092 0.63329 0.75147 0.0
C3801 C 0.37979 0.65307 0.75806 0.0
C3802 C 0.39766 0.65649 0.76586 0.0
C3803 C 0.4061 0.64131 0.76667 0.0
C3804 C 0.37068 0.66989 0.75715 0.0
C3805 C 0.37536 0.68699 0.77115 0.0
C3806 C 0.35754 0.66966 0.74249 0.0
C3807 C 0.35237 0.65379 0.72597 0.0
C3808 C 0.36507 0.64942 0.71431 0.0
C3809 C 0.36006 0.63439 0.6987 0.0
C3810 C 0.34237 0.62375 0.69456 0.0
C3811 C 0.32963 0.62817 0.70596 0.0
C3812 C 0.33456 0.64318 0.72157 0.0
C3813 C 0.33503 0.74039 0.73672 0.0
C3814 C 0.32957 0.7512 0.75229 0.0
C3815 C 0.34254 0.72478 0.73817 0.0
C3816 C 0.34544 0.71915 0.7554 0.0
C3817 C 0.33981 0.72987 0.77107 0.0
C3818 C 0.33222 0.74559 0.76959 0.0
C3819 C 0.35423 0.70232 0.7566 0.0
C3820 C 0.3495 0.68532 0.74265 0.0
C3821 C 0.36778 0.70296 0.77082 0.0
C3822 C 0.37546 0.72083 0.78479 0.0
C3823 C 0.37383 0.72121 0.80387 0.0
C3824 C 0.38113 0.73818 0.81701 0.0
C3825 C 0.39025 0.75477 0.81122 0.0
C3826 C 0.39207 0.75443 0.79227 0.0
C3827 C 0.38468 0.73754 0.77907 0.0
H3828 H 0.39594 0.76788 0.82142 0.0
H3829 H 0.33852 0.61212 0.68248 0.0
H3830 H 0.24421 0.65777 0.52616 0.0
H3831 H 0.21475 0.64806 0.53617 0.0
H3832 H 0.21072 0.58902 0.51093 0.0
H3833 H 0.24065 0.59851 0.50125 0.0
H3834 H 0.18086 0.60804 0.50239 0.0
H3835 H 0.21605 0.59373 0.55135 0.0
H3836 H 0.24097 0.6005 0.57593 0.0
H3837 H 0.22318 0.64727 0.60578 0.0
H3838 H 0.1983 0.64097 0.58119 0.0
H3839 H 0.10714 0.55912 0.53698 0.0
H3840 H 0.13913 0.56938 0.53835 0.0
H3841 H 0.13755 0.62861 0.55344 0.0
H3842 H 0.10504 0.61829 0.55207 0.0
H3843 H 0.17075 0.60954 0.56908 0.0
H3844 H 0.1396 0.62783 0.51709 0.0
H3845 H 0.11475 0.62139 0.49245 0.0
H3846 H 0.12544 0.56767 0.46905 0.0
H3847 H 0.15024 0.57377 0.49363 0.0
C3848 C 0.23701 0.64273 0.52249 0.0
C3849 C 0.24465 0.62887 0.51279 0.0
C3850 C 0.22031 0.63723 0.52843 0.0
C3851 C 0.21088 0.61787 0.5245 0.0
C3852 C 0.21806 0.60403 0.51421 0.0
C3853 C 0.235 0.60946 0.50858 0.0
C3854 C 0.19313 0.6124 0.53051 0.0
C3855 C 0.17867 0.60819 0.51694 0.0
C3856 C 0.19044 0.61311 0.54956 0.0
C3857 C 0.20545 0.61704 0.5643 0.0
C3858 C 0.21758 0.60562 0.56303 0.0
C3859 C 0.23167 0.60933 0.57699 0.0
C3860 C 0.2337 0.62435 0.59237 0.0
C3861 C 0.22162 0.63567 0.59383 0.0
C3862 C 0.20751 0.63203 0.57989 0.0
C3863 C 0.11351 0.57425 0.54138 0.0
C3864 C 0.10362 0.58793 0.54454 0.0
C3865 C 0.13186 0.58009 0.5422 0.0
C3866 C 0.14054 0.59968 0.54604 0.0
C3867 C 0.13093 0.61339 0.55067 0.0
C3868 C 0.11246 0.60753 0.54972 0.0
C3869 C 0.15864 0.60548 0.54096 0.0
C3870 C 0.17307 0.60958 0.5546 0.0
C3871 C 0.16145 0.60492 0.522 0.0
C3872 C 0.14658 0.60115 0.50724 0.0
C3873 C 0.13651 0.61458 0.50676 0.0
C3874 C 0.1225 0.61103 0.49278 0.0
C3875 C 0.11856 0.5942 0.47914 0.0
C3876 C 0.12854 0.58077 0.47953 0.0
C3877 C 0.14258 0.58426 0.49349 0.0
H3878 H 0.10785 0.59169 0.46825 0.0
H3879 H 0.2446 0.62718 0.60319 0.0
H3880 H 0.75746 0.01766 0.74542 0.0
H3881 H 0.76677 0.98834 0.74667 0.0
H3882 H 0.71215 0.95714 0.7465 0.0
H3883 H 0.70296 0.9867 0.74639 0.0
H3884 H 0.73139 0.95218 0.7736 0.0
H3885 H 0.7373 0.949 0.7083 0.0
H3886 H 0.74738 0.96243 0.68098 0.0
H3887 H 0.80162 0.97302 0.70352 0.0
H3888 H 0.79187 0.95989 0.73111 0.0
H3889 H 0.75648 0.87114 0.786 0.0
H3890 H 0.74333 0.88924 0.76643 0.0
H3891 H 0.79445 0.9296 0.76929 0.0
H3892 H 0.80765 0.91108 0.78827 0.0
H3893 H 0.77411 0.92603 0.73623 0.0
H3894 H 0.76916 0.93699 0.80269 0.0
H3895 H 0.76079 0.92853 0.83272 0.0
H3896 H 0.70626 0.90744 0.80954 0.0
H3897 H 0.71438 0.91537 0.77931 0.0
C3898 C 0.74749 1.00447 0.74551 0.0
C3899 C 0.72959 1.00429 0.74604 0.0
C3900 C 0.75276 0.98771 0.74595 0.0
C3901 C 0.74008 0.97053 0.74629 0.0
C3902 C 0.72209 0.97027 0.74613 0.0
C3903 C 0.71689 0.98711 0.74621 0.0
C3904 C 0.74576 0.95353 0.74939 0.0
C3905 C 0.74026 0.94605 0.76502 0.0
C3906 C 0.7579 0.94615 0.73864 0.0
C3907 C 0.76384 0.95347 0.72177 0.0
C3908 C 0.75138 0.95422 0.70744 0.0
C3909 C 0.75703 0.96179 0.69192 0.0
C3910 C 0.77513 0.96857 0.69051 0.0
C3911 C 0.78761 0.96773 0.70461 0.0
C3912 C 0.78202 0.96018 0.72017 0.0
C3913 C 0.76487 0.88361 0.78198 0.0
C3914 C 0.78284 0.89018 0.78876 0.0
C3915 C 0.75746 0.89379 0.77076 0.0
C3916 C 0.76793 0.91083 0.76674 0.0
C3917 C 0.78622 0.91643 0.77224 0.0
C3918 C 0.79368 0.90607 0.78321 0.0
C3919 C 0.75945 0.92465 0.76021 0.0
C3920 C 0.76465 0.93171 0.74423 0.0
C3921 C 0.74717 0.93196 0.77076 0.0
C3922 C 0.7424 0.9265 0.78871 0.0
C3923 C 0.75543 0.93028 0.80395 0.0
C3924 C 0.75073 0.92561 0.82101 0.0
C3925 C 0.73302 0.91741 0.82304 0.0
C3926 C 0.71998 0.9137 0.80797 0.0
C3927 C 0.72462 0.91825 0.79086 0.0
H3928 H 0.72943 0.91413 0.83636 0.0
H3929 H 0.77948 0.97447 0.6785 0.0
H3930 H 0.76791 0.92431 0.51629 0.0
H3931 H 0.74289 0.93874 0.51336 0.0
H3932 H 0.75228 0.96355 0.5723 0.0
H3933 H 0.77753 0.94984 0.5752 0.0
H3934 H 0.71149 0.93691 0.52968 0.0
H3935 H 0.74997 1.00305 0.58037 0.0
H3936 H 0.78089 0.02209 0.59043 0.0
H3937 H 0.7942 0.00869 0.53432 0.0
H3938 H 0.76343 0.98935 0.52407 0.0
H3939 H 0.64998 0.99517 0.53301 0.0
H3940 H 0.67056 0.97773 0.54283 0.0
H3941 H 0.7124 0.01344 0.51909 0.0
H3942 H 0.6929 0.03265 0.51194 0.0
H3943 H 0.72633 1.00811 0.5472 0.0
H3944 H 0.6836 0.96235 0.49746 0.0
H3945 H 0.65342 0.94307 0.48443 0.0
H3946 H 0.64895 0.91575 0.53193 0.0
H3947 H 0.67905 0.93495 0.54527 0.0
C3948 C 0.76458 0.9328 0.52861 0.0
C3949 C 0.77486 0.93622 0.5459 0.0
C3950 C 0.75024 0.94093 0.52694 0.0
C3951 C 0.74591 0.95244 0.54256 0.0
C3952 C 0.75564 0.95506 0.55999 0.0
C3953 C 0.77007 0.94721 0.56161 0.0
C3954 C 0.73206 0.96282 0.54051 0.0
C3955 C 0.71465 0.95248 0.53344 0.0
C3956 C 0.73617 0.98307 0.54545 0.0
C3957 C 0.75453 0.99479 0.55152 0.0
C3958 C 0.75953 1.00425 0.57022 0.0
C3959 C 0.77702 0.015 0.57596 0.0
C3960 C 0.78951 0.01659 0.56302 0.0
C3961 C 0.78454 1.00739 0.54433 0.0
C3962 C 0.76712 0.99647 0.53858 0.0
C3963 C 0.66367 0.9997 0.5303 0.0
C3964 C 0.66954 0.01528 0.52127 0.0
C3965 C 0.67538 0.98935 0.53559 0.0
C3966 C 0.693 0.99378 0.53123 0.0
C3967 C 0.6989 0.00952 0.52258 0.0
C3968 C 0.68749 0.02033 0.51808 0.0
C3969 C 0.70562 0.98239 0.53549 0.0
C3970 C 0.72291 0.99253 0.54333 0.0
C3971 C 0.70138 0.96199 0.5307 0.0
C3972 C 0.68349 0.95018 0.52241 0.0
C3973 C 0.67615 0.95224 0.50512 0.0
C3974 C 0.65907 0.94134 0.49769 0.0
C3975 C 0.64926 0.92823 0.50737 0.0
C3976 C 0.65655 0.92592 0.52445 0.0
C3977 C 0.67362 0.93678 0.53194 0.0
H3978 H 0.63602 0.91984 0.50162 0.0
H3979 H 0.80303 0.02496 0.56747 0.0
H3980 H 0.38084 0.51931 0.75763 0.0
H3981 H 0.36451 0.48544 0.75545 0.0
H3982 H 0.41054 0.47462 0.78228 0.0
H3983 H 0.42673 0.5079 0.78435 0.0
H3984 H 0.39786 0.44569 0.75567 0.0
H3985 H 0.37075 0.47812 0.80403 0.0
H3986 H 0.35461 0.50112 0.81827 0.0
H3987 H 0.31013 0.47458 0.77678 0.0
H3988 H 0.32613 0.45159 0.76212 0.0
H3989 H 0.35925 0.35393 0.77795 0.0
H3990 H 0.37346 0.38778 0.77859 0.0
H3991 H 0.32549 0.39395 0.75121 0.0
H3992 H 0.31122 0.36002 0.75057 0.0
H3993 H 0.33829 0.42508 0.77657 0.0
H3994 H 0.3653 0.39173 0.72898 0.0
H3995 H 0.38165 0.36879 0.71506 0.0
H3996 H 0.42666 0.39716 0.7554 0.0
H3997 H 0.41048 0.42008 0.76976 0.0
C3998 C 0.38747 0.5098 0.76322 0.0
C3999 C 0.40529 0.51684 0.77126 0.0
C4000 C 0.37804 0.49024 0.762 0.0
C4001 C 0.38605 0.47697 0.76878 0.0
C4002 C 0.40378 0.4841 0.77681 0.0
C4003 C 0.41311 0.50348 0.77808 0.0
C4004 C 0.37645 0.45573 0.76744 0.0
C4005 C 0.38491 0.44134 0.76049 0.0
C4006 C 0.35928 0.44941 0.77318 0.0
C4007 C 0.34973 0.46332 0.78184 0.0
C4008 C 0.3576 0.47731 0.79784 0.0
C4009 C 0.34846 0.49032 0.806 0.0
C4010 C 0.33138 0.48936 0.79839 0.0
C4011 C 0.32338 0.47535 0.78262 0.0
C4012 C 0.33248 0.46233 0.77438 0.0
C4013 C 0.35163 0.36236 0.77196 0.0
C4014 C 0.33383 0.35382 0.76429 0.0
C4015 C 0.3599 0.38194 0.77226 0.0
C4016 C 0.35084 0.3939 0.76475 0.0
C4017 C 0.33303 0.38543 0.75718 0.0
C4018 C 0.32476 0.36581 0.75684 0.0
C4019 C 0.35978 0.41508 0.76495 0.0
C4020 C 0.35121 0.42944 0.77169 0.0
C4021 C 0.3769 0.42139 0.75905 0.0
C4022 C 0.3866 0.4075 0.75057 0.0
C4023 C 0.37863 0.39296 0.735 0.0
C4024 C 0.38788 0.37998 0.72701 0.0
C4025 C 0.40517 0.38148 0.73437 0.0
C4026 C 0.41325 0.39599 0.74973 0.0
C4027 C 0.40405 0.40898 0.7578 0.0
H4028 H 0.41232 0.37144 0.72814 0.0
H4029 H 0.32432 0.49943 0.80475 0.0
H4030 H 0.25712 0.60109 0.26246 0.0
H4031 H 0.2683 0.63589 0.26663 0.0
H4032 H 0.21705 0.64298 0.28022 0.0
H4033 H 0.20567 0.60821 0.27607 0.0
H4034 H 0.22888 0.65804 0.24976 0.0
H4035 H 0.25013 0.66042 0.31306 0.0
H4036 H 0.26605 0.65152 0.33887 0.0
H4037 H 0.31503 0.66775 0.31498 0.0
H4038 H 0.2994 0.67651 0.28893 0.0
H4039 H 0.25742 0.76048 0.26792 0.0
H4040 H 0.24431 0.72602 0.26355 0.0
H4041 H 0.29663 0.71623 0.26289 0.0
H4042 H 0.30966 0.75095 0.26996 0.0
H4043 H 0.28186 0.70265 0.2884 0.0
H4044 H 0.2565 0.68601 0.21933 0.0
H4045 H 0.23874 0.69 0.19192 0.0
H4046 H 0.19823 0.70067 0.22637 0.0
H4047 H 0.21534 0.69565 0.2537 0.0
C4048 C 0.24835 0.61008 0.26674 0.0
C4049 C 0.23049 0.60203 0.26866 0.0
C4050 C 0.25477 0.62989 0.26924 0.0
C4051 C 0.24341 0.64174 0.27373 0.0
C4052 C 0.22591 0.63386 0.2768 0.0
C4053 C 0.21948 0.61406 0.27439 0.0
C4054 C 0.24911 0.66195 0.27249 0.0
C4055 C 0.24035 0.66797 0.25834 0.0
C4056 C 0.26421 0.67449 0.28344 0.0
C4057 C 0.27356 0.66895 0.29896 0.0
C4058 C 0.26426 0.6619 0.31322 0.0
C4059 C 0.27325 0.65694 0.32792 0.0
C4060 C 0.29152 0.65901 0.3285 0.0
C4061 C 0.30087 0.66613 0.31447 0.0
C4062 C 0.29196 0.67111 0.29976 0.0
C4063 C 0.26596 0.75078 0.26628 0.0
C4064 C 0.2844 0.75794 0.26865 0.0
C4065 C 0.25848 0.7311 0.2634 0.0
C4066 C 0.26944 0.71846 0.26245 0.0
C4067 C 0.28793 0.72575 0.26346 0.0
C4068 C 0.29539 0.74547 0.26734 0.0
C4069 C 0.26223 0.69866 0.26493 0.0
C4070 C 0.27052 0.69277 0.27959 0.0
C4071 C 0.24677 0.68619 0.25438 0.0
C4072 C 0.23738 0.69103 0.23856 0.0
C4073 C 0.24391 0.68946 0.22105 0.0
C4074 C 0.23384 0.69161 0.2055 0.0
C4075 C 0.2175 0.6959 0.20746 0.0
C4076 C 0.21098 0.69757 0.2249 0.0
C4077 C 0.22075 0.69486 0.24036 0.0
H4078 H 0.20983 0.69776 0.19544 0.0
H4079 H 0.29849 0.6551 0.33977 0.0
H4080 H 0.5264 0.70884 0.44043 0.0
H4081 H 0.52949 0.68044 0.45226 0.0
H4082 H 0.55714 0.71706 0.50375 0.0
H4083 H 0.5555 0.74538 0.49109 0.0
H4084 H 0.57266 0.69301 0.49813 0.0
H4085 H 0.50962 0.68305 0.49485 0.0
H4086 H 0.47917 0.67886 0.48064 0.0
H4087 H 0.48321 0.62941 0.44126 0.0
H4088 H 0.51379 0.63348 0.45506 0.0
H4089 H 0.55408 0.61292 0.54948 0.0
H4090 H 0.55409 0.64233 0.53744 0.0
H4091 H 0.55565 0.61209 0.48161 0.0
H4092 H 0.55632 0.5829 0.49374 0.0
H4093 H 0.52577 0.63194 0.48932 0.0
H4094 H 0.59272 0.65114 0.49003 0.0
H4095 H 0.62413 0.66185 0.50338 0.0
H4096 H 0.61027 0.69669 0.55104 0.0
H4097 H 0.57882 0.68609 0.53792 0.0
C4098 C 0.53301 0.71079 0.45435 0.0
C4099 C 0.54059 0.72945 0.46484 0.0
C4100 C 0.53465 0.69442 0.46126 0.0
C4101 C 0.54324 0.69614 0.47926 0.0
C4102 C 0.55049 0.71492 0.48983 0.0
C4103 C 0.54944 0.73126 0.48263 0.0
C4104 C 0.54566 0.67875 0.48675 0.0
C4105 C 0.5621 0.67989 0.49644 0.0
C4106 C 0.53234 0.66105 0.48434 0.0
C4107 C 0.51407 0.65872 0.47585 0.0
C4108 C 0.50407 0.67139 0.48305 0.0
C4109 C 0.48679 0.66902 0.47509 0.0
C4110 C 0.4793 0.65393 0.46001 0.0
C4111 C 0.48905 0.64113 0.4529 0.0
C4112 C 0.50636 0.64347 0.46079 0.0
C4113 C 0.5548 0.61269 0.5347 0.0
C4114 C 0.55553 0.59568 0.52263 0.0
C4115 C 0.55487 0.62954 0.52782 0.0
C4116 C 0.5551 0.62964 0.50859 0.0
C4117 C 0.55576 0.61258 0.49651 0.0
C4118 C 0.55612 0.59587 0.50345 0.0
C4119 C 0.55251 0.64665 0.5009 0.0
C4120 C 0.53607 0.64529 0.4911 0.0
C4121 C 0.56557 0.66438 0.50368 0.0
C4122 C 0.58346 0.66745 0.51326 0.0
C4123 C 0.59636 0.6607 0.50357 0.0
C4124 C 0.61419 0.66698 0.51096 0.0
C4125 C 0.61923 0.68006 0.52799 0.0
C4126 C 0.60639 0.68663 0.53782 0.0
C4127 C 0.58856 0.68038 0.53049 0.0
H4128 H 0.63303 0.68493 0.53365 0.0
H4129 H 0.46592 0.65215 0.45386 0.0
H4130 H 0.66238 0.32141 0.62996 0.0
H4131 H 0.68963 0.31982 0.64731 0.0
H4132 H 0.66948 0.33748 0.69929 0.0
H4133 H 0.6419 0.33845 0.68203 0.0
H4134 H 0.70693 0.35637 0.69742 0.0
H4135 H 0.66692 0.29467 0.68938 0.0
H4136 H 0.64597 0.26449 0.67292 0.0
H4137 H 0.68679 0.25028 0.64078 0.0
H4138 H 0.70789 0.28069 0.6567 0.0
H4139 H 0.76714 0.33413 0.7596 0.0
H4140 H 0.74021 0.33547 0.74268 0.0
H4141 H 0.75436 0.30427 0.69259 0.0
H4142 H 0.78037 0.30061 0.71053 0.0
H4143 H 0.71998 0.29277 0.69298 0.0
H4144 H 0.76137 0.355 0.70691 0.0
H4145 H 0.78094 0.38312 0.72831 0.0
H4146 H 0.73592 0.39612 0.75327 0.0
H4147 H 0.7161 0.36753 0.73264 0.0
C4148 C 0.66382 0.32527 0.64508 0.0
C4149 C 0.6499 0.3302 0.65454 0.0
C4150 C 0.67942 0.32424 0.655 0.0
C4151 C 0.6817 0.32851 0.67467 0.0
C4152 C 0.66813 0.33418 0.68415 0.0
C4153 C 0.65234 0.33473 0.67424 0.0
C4154 C 0.69787 0.32623 0.68528 0.0
C4155 C 0.70974 0.34246 0.69656 0.0
C4156 C 0.70168 0.30811 0.68412 0.0
C4157 C 0.68891 0.29013 0.67402 0.0
C4158 C 0.67136 0.2853 0.67856 0.0
C4159 C 0.65946 0.26812 0.66937 0.0
C4160 C 0.66502 0.25551 0.65577 0.0
C4161 C 0.68247 0.2601 0.65126 0.0
C4162 C 0.6944 0.27733 0.66034 0.0
C4163 C 0.7643 0.32679 0.74534 0.0
C4164 C 0.77583 0.31659 0.73698 0.0
C4165 C 0.74895 0.32803 0.73534 0.0
C4166 C 0.74513 0.32028 0.7161 0.0
C4167 C 0.75682 0.31044 0.7074 0.0
C4168 C 0.77192 0.30858 0.71769 0.0
C4169 C 0.72929 0.32296 0.70509 0.0
C4170 C 0.7174 0.30677 0.69371 0.0
C4171 C 0.72534 0.34113 0.70647 0.0
C4172 C 0.7372 0.35897 0.71821 0.0
C4173 C 0.7556 0.36373 0.71705 0.0
C4174 C 0.76678 0.37972 0.72913 0.0
C4175 C 0.75968 0.39141 0.74212 0.0
C4176 C 0.7414 0.38707 0.74315 0.0
C4177 C 0.73019 0.37092 0.7313 0.0
H4178 H 0.76834 0.40385 0.75139 0.0
H4179 H 0.65582 0.24214 0.64884 0.0
H4180 H 1.00182 0.32933 0.97975 0.0
H4181 H 1.00575 0.36358 0.99239 0.0
H4182 H 0.05835 0.37619 0.97506 0.0
H4183 H 0.05438 0.34188 0.962 0.0
H4184 H 0.05608 0.39754 0.01164 0.0
H4185 H 0.02797 0.38376 0.94877 0.0
H4186 H 1.0053 0.36636 0.92252 0.0
H4187 H 0.96469 0.38218 0.954 0.0
H4188 H 0.98713 0.39944 0.98058 0.0
H4189 H 0.04777 0.49323 0.98541 0.0
H4190 H 0.04072 0.45825 0.97879 0.0
H4191 H 0.04127 0.45829 0.03787 0.0
H4192 H 0.04923 0.49373 0.04455 0.0
H4193 H 0.01601 0.42987 0.98242 0.0
H4194 H 0.05363 0.42051 0.04748 0.0
H4195 H 0.07789 0.43908 0.07183 0.0
H4196 H 0.10265 0.47105 0.03224 0.0
H4197 H 0.07853 0.45264 0.00768 0.0
C4198 C 0.01434 0.33931 0.97881 0.0
C4199 C 0.0278 0.33276 0.96983 0.0
C4200 C 0.01654 0.35896 0.98603 0.0
C4201 C 0.03234 0.37257 0.9847 0.0
C4202 C 0.04607 0.36601 0.97636 0.0
C4203 C 0.04376 0.34637 0.96883 0.0
C4204 C 0.03408 0.39366 0.99094 0.0
C4205 C 0.04726 0.40458 1.00531 0.0
C4206 C 0.02271 0.40303 0.98267 0.0
C4207 C 0.00919 0.39267 0.96675 0.0
C4208 C 0.01419 0.38336 0.95017 0.0
C4209 C 1.00139 0.37356 0.93521 0.0
C4210 C 0.98356 0.3731 0.93661 0.0
C4211 C 0.9785 0.3825 0.95296 0.0
C4212 C 0.99126 0.3923 0.96797 0.0
C4213 C 0.04615 0.48578 0.99701 0.0
C4214 C 0.04895 0.49626 0.01548 0.0
C4215 C 0.04208 0.4657 0.99321 0.0
C4216 C 0.0407 0.45538 0.00776 0.0
C4217 C 0.04262 0.46579 0.02632 0.0
C4218 C 0.04692 0.48607 0.03016 0.0
C4219 C 0.03807 0.43393 1.00314 0.0
C4220 C 0.0247 0.42286 0.989 0.0
C4221 C 0.04948 0.42453 0.01138 0.0
C4222 C 0.06427 0.43528 0.02583 0.0
C4223 C 0.06431 0.43143 0.04398 0.0
C4224 C 0.078 0.44196 0.05781 0.0
C4225 C 0.09179 0.45625 0.05359 0.0
C4226 C 0.09194 0.46001 0.0355 0.0
C4227 C 0.07826 0.44955 0.02163 0.0
H4228 H 0.10236 0.4644 0.06432 0.0
H4229 H 0.97367 0.36551 0.92502 0.0
H4230 H 0.04832 0.80456 0.18161 0.0
H4231 H 0.02005 0.80194 0.1946 0.0
H4232 H 1.00054 0.82508 0.14971 0.0
H4233 H 0.02922 0.82832 0.13689 0.0
H4234 H 0.98841 0.83873 0.18035 0.0
H4235 H 0.98745 0.77618 0.1498 0.0
H4236 H 0.99784 0.74704 0.14029 0.0
H4237 H 0.99979 0.73862 0.19694 0.0
H4238 H 0.98964 0.76788 0.20686 0.0
H4239 H 0.89965 0.79178 0.20983 0.0
H4240 H 0.92343 0.7979 0.18931 0.0
H4241 H 0.96262 0.81008 0.23677 0.0
H4242 H 0.93932 0.80513 0.25736 0.0
H4243 H 0.96049 0.77698 0.19869 0.0
H4244 H 0.96383 0.8451 0.22716 0.0
H4245 H 0.94927 0.87165 0.23249 0.0
H4246 H 0.93816 0.86601 0.17323 0.0
H4247 H 0.95233 0.83913 0.16759 0.0
C4248 C 0.03809 0.80924 0.17453 0.0
C4249 C 0.04104 0.81656 0.15813 0.0
C4250 C 0.02182 0.8076 0.18192 0.0
C4251 C 0.00789 0.81285 0.17293 0.0
C4252 C 0.01098 0.82079 0.15688 0.0
C4253 C 0.0274 0.82265 0.14956 0.0
C4254 C 0.9902 0.80973 0.18034 0.0
C4255 C 0.98224 0.82512 0.18409 0.0
C4256 C 0.9817 0.79188 0.1849 0.0
C4257 C 0.98792 0.77432 0.17909 0.0
C4258 C 0.99023 0.76821 0.16026 0.0
C4259 C 0.99605 0.75165 0.15479 0.0
C4260 C 0.99951 0.74101 0.16801 0.0
C4261 C 0.99712 0.74689 0.18672 0.0
C4262 C 0.99131 0.76345 0.19227 0.0
C4263 C 0.91332 0.79618 0.21596 0.0
C4264 C 0.91749 0.79758 0.23528 0.0
C4265 C 0.92688 0.79955 0.20419 0.0
C4266 C 0.94476 0.8043 0.21155 0.0
C4267 C 0.94891 0.80631 0.23081 0.0
C4268 C 0.9355 0.80329 0.24254 0.0
C4269 C 0.95938 0.80615 0.19939 0.0
C4270 C 0.96666 0.79047 0.1947 0.0
C4271 C 0.96689 0.82347 0.19349 0.0
C4272 C 0.95891 0.83997 0.19697 0.0
C4273 C 0.95812 0.8494 0.21528 0.0
C4274 C 0.94997 0.86453 0.21836 0.0
C4275 C 0.94273 0.87047 0.20321 0.0
C4276 C 0.94373 0.86136 0.18496 0.0
C4277 C 0.95181 0.84619 0.18181 0.0
H4278 H 0.9364 0.88216 0.20563 0.0
H4279 H 1.00401 0.72818 0.16374 0.0
H4280 H 0.50086 0.3205 0.13304 0.0
H4281 H 0.50646 0.34775 0.11675 0.0
H4282 H 0.5552 0.3352 0.10066 0.0
H4283 H 0.54944 0.30776 0.11625 0.0
H4284 H 0.55564 0.37677 0.11605 0.0
H4285 H 0.52637 0.31857 0.06977 0.0
H4286 H 0.50213 0.28944 0.05756 0.0
H4287 H 0.46459 0.3237 0.05948 0.0
H4288 H 0.48863 0.35302 0.07198 0.0
H4289 H 0.58211 0.41434 0.03691 0.0
H4290 H 0.5737 0.39365 0.05965 0.0
H4291 H 0.52188 0.40458 0.05802 0.0
H4292 H 0.53008 0.42486 0.03508 0.0
H4293 H 0.52032 0.36697 0.05477 0.0
H4294 H 0.5503 0.42601 0.09534 0.0
H4295 H 0.57437 0.45536 0.10728 0.0
H4296 H 0.61009 0.42097 0.1166 0.0
H4297 H 0.58629 0.39137 0.10453 0.0
C4298 C 0.51278 0.32373 0.12611 0.0
C4299 C 0.52465 0.31211 0.12562 0.0
C4300 C 0.51597 0.3392 0.11694 0.0
C4301 C 0.53125 0.3433 0.10772 0.0
C4302 C 0.54342 0.33216 0.10787 0.0
C4303 C 0.54003 0.31648 0.11658 0.0
C4304 C 0.53402 0.35823 0.09657 0.0
C4305 C 0.54797 0.37478 0.10266 0.0
C4306 C 0.52367 0.35551 0.07939 0.0
C4307 C 0.50922 0.3379 0.07211 0.0
C4308 C 0.51291 0.31984 0.06783 0.0
C4309 C 0.49922 0.30332 0.06079 0.0
C4310 C 0.48181 0.3047 0.05783 0.0
C4311 C 0.47807 0.32264 0.06185 0.0
C4312 C 0.49171 0.33921 0.06892 0.0
C4313 C 0.56885 0.41197 0.04119 0.0
C4314 C 0.55666 0.42091 0.03427 0.0
C4315 C 0.56418 0.4005 0.05434 0.0
C4316 C 0.54731 0.39799 0.06062 0.0
C4317 C 0.53499 0.40656 0.05336 0.0
C4318 C 0.53964 0.41799 0.04027 0.0
C4319 C 0.54217 0.38554 0.07405 0.0
C4320 C 0.52779 0.36934 0.06836 0.0
C4321 C 0.5521 0.3887 0.09163 0.0
C4322 C 0.56653 0.40645 0.09883 0.0
C4323 C 0.56333 0.42469 0.09976 0.0
C4324 C 0.57692 0.44137 0.10658 0.0
C4325 C 0.59378 0.44002 0.11255 0.0
C4326 C 0.59705 0.42198 0.11188 0.0
C4327 C 0.5835 0.40524 0.10508 0.0
H4328 H 0.60428 0.45296 0.11779 0.0
H4329 H 0.47124 0.2919 0.05235 0.0
H4330 H 0.04817 0.34216 0.3982 0.0
H4331 H 0.01982 0.34321 0.38306 0.0
H4332 H 0.03061 0.31148 0.33132 0.0
H4333 H 0.05907 0.31068 0.34616 0.0
H4334 H 0.01954 0.34212 0.32611 0.0
H4335 H 1.00091 0.2897 0.35845 0.0
H4336 H 0.99904 0.2747 0.38619 0.0
H4337 H 0.97343 0.31627 0.41306 0.0
H4338 H 0.97535 0.33167 0.38556 0.0
H4339 H 0.93653 0.32355 0.27517 0.0
H4340 H 0.96264 0.31841 0.29159 0.0
H4341 H 0.94925 0.34645 0.3439 0.0
H4342 H 0.92257 0.35059 0.32751 0.0
H4343 H 0.96162 0.31765 0.34932 0.0
H4344 H 0.9806 0.37057 0.31799 0.0
H4345 H 0.98296 0.38664 0.29096 0.0
H4346 H 0.00867 0.34564 0.26313 0.0
H4347 H 0.00624 0.32917 0.2899 0.0
C4348 C 0.04446 0.33535 0.38362 0.0
C4349 C 0.05582 0.32635 0.37335 0.0
C4350 C 0.02826 0.33588 0.37504 0.0
C4351 C 0.02311 0.32723 0.35616 0.0
C4352 C 0.03439 0.3182 0.34592 0.0
C4353 C 0.05062 0.31775 0.35443 0.0
C4354 C 0.00623 0.32813 0.34682 0.0
C4355 C 0.00684 0.33653 0.33101 0.0
C4356 C 0.9898 0.32134 0.35362 0.0
C4357 C 0.98839 0.31191 0.37002 0.0
C4358 C 0.99497 0.2957 0.37032 0.0
C4359 C 0.99389 0.28712 0.38599 0.0
C4360 C 0.98616 0.29455 0.40139 0.0
C4361 C 0.97943 0.31054 0.40113 0.0
C4362 C 0.98048 0.31918 0.3855 0.0
C4363 C 0.93921 0.32847 0.29018 0.0
C4364 C 0.92794 0.33772 0.30018 0.0
C4365 C 0.95407 0.3256 0.29953 0.0
C4366 C 0.95811 0.33253 0.31888 0.0
C4367 C 0.94642 0.34114 0.32895 0.0
C4368 C 0.93132 0.34361 0.31964 0.0
C4369 C 0.97489 0.33151 0.32847 0.0
C4370 C 0.9743 0.32319 0.34437 0.0
C4371 C 0.99141 0.33852 0.32186 0.0
C4372 C 0.99309 0.34855 0.30586 0.0
C4373 C 0.98666 0.36493 0.30606 0.0
C4374 C 0.98802 0.37411 0.29079 0.0
C4375 C 0.99592 0.36714 0.27532 0.0
C4376 C 1.00254 0.35101 0.27511 0.0
C4377 C 1.00119 0.34176 0.29033 0.0
H4378 H 0.99694 0.37426 0.2635 0.0
H4379 H 0.98535 0.2879 0.41351 0.0
H4380 H 0.0205 0.71582 0.66072 0.0
H4381 H 0.02095 0.68505 0.6418 0.0
H4382 H 0.97544 0.68614 0.60608 0.0
H4383 H 0.97557 0.71775 0.62441 0.0
H4384 H 0.99587 0.64931 0.63058 0.0
H4385 H 0.98309 0.68267 0.57411 0.0
H4386 H 0.98943 0.71287 0.56208 0.0
H4387 H 0.04473 0.72379 0.58079 0.0
H4388 H 0.03856 0.69392 0.59338 0.0
H4389 H 0.01396 0.58882 0.54002 0.0
H4390 H 1.0003 0.61305 0.55567 0.0
H4391 H 0.04178 0.62882 0.60155 0.0
H4392 H 0.05552 0.60453 0.58616 0.0
H4393 H 0.01715 0.65413 0.56856 0.0
H4394 H 0.02602 0.63311 0.63735 0.0
H4395 H 0.02838 0.60389 0.64882 0.0
H4396 H 0.98848 0.56905 0.60527 0.0
H4397 H 0.98594 0.59804 0.59357 0.0
C4398 C 0.01029 0.70928 0.64913 0.0
C4399 C 0.998 0.71903 0.64392 0.0
C4400 C 0.01063 0.69179 0.63831 0.0
C4401 C 0.99848 0.68371 0.62239 0.0
C4402 C 0.98523 0.69259 0.61803 0.0
C4403 C 0.98517 0.7104 0.6286 0.0
C4404 C 1.00084 0.66683 0.60975 0.0
C4405 C 1.0 0.65006 0.61681 0.0
C4406 C 0.00679 0.66825 0.59205 0.0
C4407 C 0.0103 0.68641 0.58505 0.0
C4408 C 0.99653 0.69171 0.57591 0.0
C4409 C 1.0001 0.70873 0.56898 0.0
C4410 C 0.01745 0.72031 0.57079 0.0
C4411 C 0.03127 0.7149 0.57955 0.0
C4412 C 0.02773 0.698 0.58668 0.0
C4413 C 0.02019 0.59746 0.55345 0.0
C4414 C 0.03581 0.5949 0.56195 0.0
C4415 C 0.01238 0.61124 0.56227 0.0
C4416 C 0.02004 0.62239 0.57967 0.0
C4417 C 0.03566 0.61999 0.58815 0.0
C4418 C 0.04345 0.60617 0.5794 0.0
C4419 C 0.01166 0.63651 0.58925 0.0
C4420 C 0.01186 0.65285 0.58181 0.0
C4421 C 1.00542 0.63484 0.6067 0.0
C4422 C 1.0056 0.61771 0.6148 0.0
C4423 C 0.0176 0.61923 0.63041 0.0
C4424 C 0.01909 0.60271 0.63682 0.0
C4425 C 0.00861 0.58465 0.62774 0.0
C4426 C 0.99659 0.58305 0.61227 0.0
C4427 C 0.99509 0.5995 0.60578 0.0
H4428 H 0.00971 0.5719 0.63272 0.0
H4429 H 0.0202 0.73342 0.56532 0.0
H4430 H 0.66495 0.83165 0.8828 0.0
H4431 H 0.68873 0.83031 0.86283 0.0
H4432 H 0.65009 0.80432 0.81491 0.0
H4433 H 0.62608 0.80587 0.83472 0.0
H4434 H 0.67809 0.78435 0.82947 0.0
H4435 H 0.67137 0.84212 0.80603 0.0
H4436 H 0.6669 0.87469 0.81485 0.0
H4437 H 0.71379 0.8915 0.85395 0.0
H4438 H 0.71878 0.85924 0.8449 0.0
H4439 H 0.74867 0.8136 0.76105 0.0
H4440 H 0.72084 0.81219 0.7752 0.0
H4441 H 0.7428 0.79426 0.82247 0.0
H4442 H 0.76962 0.7938 0.80757 0.0
H4443 H 0.72119 0.83575 0.80777 0.0
H4444 H 0.72345 0.78141 0.84108 0.0
H4445 H 0.72111 0.74933 0.84761 0.0
H4446 H 0.67906 0.72516 0.80307 0.0
H4447 H 0.68172 0.75737 0.79583 0.0
C4448 C 0.66153 0.82579 0.86799 0.0
C4449 C 0.64378 0.81862 0.86023 0.0
C4450 C 0.67506 0.8253 0.85664 0.0
C4451 C 0.67093 0.8175 0.83755 0.0
C4452 C 0.65329 0.81067 0.82966 0.0
C4453 C 0.63971 0.81142 0.84095 0.0
C4454 C 0.68503 0.81377 0.82658 0.0
C4455 C 0.68737 0.79532 0.82414 0.0
C4456 C 0.69732 0.82854 0.82089 0.0
C4457 C 0.69552 0.84844 0.82468 0.0
C4458 C 0.68087 0.85292 0.81626 0.0
C4459 C 0.67824 0.8713 0.82131 0.0
C4460 C 0.69008 0.88519 0.83492 0.0
C4461 C 0.70473 0.88081 0.84328 0.0
C4462 C 0.70756 0.86256 0.83806 0.0
C4463 C 0.74717 0.80877 0.77418 0.0
C4464 C 0.76093 0.80338 0.78307 0.0
C4465 C 0.73133 0.80783 0.7822 0.0
C4466 C 0.72937 0.80235 0.79963 0.0
C4467 C 0.74333 0.79725 0.80858 0.0
C4468 C 0.75889 0.79747 0.80022 0.0
C4469 C 0.71421 0.80561 0.80961 0.0
C4470 C 0.71173 0.82432 0.81226 0.0
C4471 C 0.70201 0.79104 0.81618 0.0
C4472 C 0.70397 0.7716 0.81675 0.0
C4473 C 0.71468 0.76911 0.83173 0.0
C4474 C 0.71299 0.7509 0.83588 0.0
C4475 C 0.70021 0.73503 0.82555 0.0
C4476 C 0.68916 0.73738 0.8109 0.0
C4477 C 0.69098 0.75558 0.80657 0.0
H4478 H 0.69873 0.72098 0.82901 0.0
H4479 H 0.68794 0.89935 0.83896 0.0
H4480 H 0.4965 0.57894 0.74057 0.0
H4481 H 0.51191 0.57733 0.71209 0.0
H4482 H 0.46221 0.56681 0.67843 0.0
H4483 H 0.4469 0.56905 0.70675 0.0
H4484 H 0.48264 0.5415 0.66342 0.0
H4485 H 0.4918 0.60971 0.68452 0.0
H4486 H 0.50197 0.64063 0.70689 0.0
H4487 H 0.55528 0.63467 0.70939 0.0
H4488 H 0.54536 0.60354 0.68725 0.0
H4489 H 0.51363 0.54703 0.57437 0.0
H4490 H 0.49964 0.55082 0.60321 0.0
H4491 H 0.55057 0.57984 0.63399 0.0
H4492 H 0.56438 0.57721 0.60474 0.0
H4493 H 0.53024 0.59536 0.65159 0.0
H4494 H 0.5232 0.52822 0.63257 0.0
H4495 H 0.51489 0.49658 0.61121 0.0
H4496 H 0.4604 0.4985 0.6069 0.0
H4497 H 0.46844 0.53033 0.62799 0.0
C4498 C 0.48879 0.57646 0.72716 0.0
C4499 C 0.47025 0.57432 0.72639 0.0
C4500 C 0.49771 0.57552 0.71069 0.0
C4501 C 0.48846 0.57193 0.69263 0.0
C4502 C 0.46995 0.56959 0.69187 0.0
C4503 C 0.46111 0.57101 0.70831 0.0
C4504 C 0.49786 0.57046 0.67465 0.0
C4505 C 0.4929 0.55343 0.66083 0.0
C4506 C 0.51183 0.58554 0.67102 0.0
C4507 C 0.51779 0.60418 0.68441 0.0
C4508 C 0.50565 0.61489 0.68999 0.0
C4509 C 0.51138 0.63247 0.7026 0.0
C4510 C 0.52925 0.63958 0.70961 0.0
C4511 C 0.54144 0.62913 0.70399 0.0
C4512 C 0.53577 0.61151 0.69141 0.0
C4513 C 0.52201 0.55426 0.58721 0.0
C4514 C 0.54047 0.56153 0.58676 0.0
C4515 C 0.51388 0.55626 0.60406 0.0
C4516 C 0.52379 0.56507 0.6216 0.0
C4517 C 0.54222 0.57276 0.62111 0.0
C4518 C 0.5503 0.57113 0.60412 0.0
C4519 C 0.51501 0.56634 0.64012 0.0
C4520 C 0.52005 0.58333 0.65409 0.0
C4521 C 0.50141 0.55101 0.64413 0.0
C4522 C 0.49645 0.53174 0.63172 0.0
C4523 C 0.50946 0.52193 0.627 0.0
C4524 C 0.5048 0.50397 0.61493 0.0
C4525 C 0.48714 0.49556 0.60767 0.0
C4526 C 0.47409 0.50506 0.61251 0.0
C4527 C 0.47868 0.52306 0.62452 0.0
H4528 H 0.48356 0.48166 0.59831 0.0
H4529 H 0.53366 0.65321 0.71935 0.0
H4530 H 0.77391 0.19273 0.97443 0.0
H4531 H 0.77246 0.20233 0.94435 0.0
H4532 H 0.81905 0.18309 0.93131 0.0
H4533 H 0.82046 0.17291 0.96161 0.0
H4534 H 0.81587 0.22529 0.93005 0.0
H4535 H 0.7871 0.15687 0.90721 0.0
H4536 H 0.76505 0.12691 0.90911 0.0
H4537 H 0.72307 0.15477 0.90448 0.0
H4538 H 0.74486 0.18495 0.90279 0.0
H4539 H 0.79916 0.26511 0.85291 0.0
H4540 H 0.80844 0.24277 0.86968 0.0
H4541 H 0.75447 0.22141 0.88137 0.0
H4542 H 0.74466 0.24141 0.86225 0.0
H4543 H 0.76751 0.19444 0.87896 0.0
H4544 H 0.7884 0.26048 0.90986 0.0
H4545 H 0.80508 0.2946 0.91545 0.0
H4546 H 0.85417 0.27821 0.91483 0.0
H4547 H 0.83771 0.24398 0.90935 0.0
C4548 C 0.78387 0.1905 0.9652 0.0
C4549 C 0.79738 0.1822 0.97027 0.0
C4550 C 0.78291 0.19583 0.94802 0.0
C4551 C 0.79551 0.19309 0.93577 0.0
C4552 C 0.80915 0.18499 0.94071 0.0
C4553 C 0.80996 0.1793 0.9579 0.0
C4554 C 0.7948 0.2002 0.91844 0.0
C4555 C 0.80572 0.21843 0.91843 0.0
C4556 C 0.78078 0.19147 0.90419 0.0
C4557 C 0.76765 0.17317 0.90487 0.0
C4558 C 0.77318 0.15663 0.90668 0.0
C4559 C 0.76072 0.1396 0.90771 0.0
C4560 C 0.74267 0.13893 0.90692 0.0
C4561 C 0.73705 0.15529 0.90506 0.0
C4562 C 0.74945 0.17234 0.90402 0.0
C4563 C 0.78909 0.25511 0.85833 0.0
C4564 C 0.77112 0.25542 0.85651 0.0
C4565 C 0.79452 0.24257 0.86824 0.0
C4566 C 0.78228 0.23088 0.87729 0.0
C4567 C 0.76425 0.23041 0.87464 0.0
C4568 C 0.75868 0.24221 0.86399 0.0
C4569 C 0.78812 0.22017 0.89066 0.0
C4570 C 0.77817 0.20125 0.89 0.0
C4571 C 0.80207 0.22899 0.90521 0.0
C4572 C 0.81184 0.24963 0.9084 0.0
C4573 C 0.80274 0.26413 0.9106 0.0
C4574 C 0.81215 0.28351 0.91389 0.0
C4575 C 0.83066 0.28857 0.91528 0.0
C4576 C 0.83982 0.27428 0.91357 0.0
C4577 C 0.83046 0.2549 0.91033 0.0
H4578 H 0.83792 0.30358 0.91783 0.0
H4579 H 0.73306 0.12574 0.90774 0.0
H4580 H 0.14935 0.51612 0.22066 0.0
H4581 H 0.12562 0.51553 0.19725 0.0
H4582 H 0.16436 0.54099 0.16318 0.0
H4583 H 0.18824 0.54192 0.18661 0.0
H4584 H 0.13898 0.56117 0.1718 0.0
H4585 H 0.14217 0.4952 0.15047 0.0
H4586 H 0.14097 0.46224 0.15475 0.0
H4587 H 0.08775 0.45532 0.16949 0.0
H4588 H 0.08875 0.48837 0.16557 0.0
H4589 H 0.10626 0.55359 0.08239 0.0
H4590 H 0.12036 0.55054 0.11143 0.0
H4591 H 0.06969 0.52211 0.12692 0.0
H4592 H 0.05534 0.52392 0.09686 0.0
H4593 H 0.09471 0.50454 0.13382 0.0
H4594 H 0.08988 0.56876 0.14826 0.0
H4595 H 0.09131 0.60129 0.14251 0.0
H4596 H 0.14752 0.61185 0.14024 0.0
H4597 H 0.14641 0.57929 0.14564 0.0
C4598 C 0.15286 0.52123 0.20801 0.0
C4599 C 0.17063 0.52927 0.20548 0.0
C4600 C 0.13929 0.52087 0.19471 0.0
C4601 C 0.14339 0.52836 0.17874 0.0
C4602 C 0.1611 0.53529 0.17561 0.0
C4603 C 0.17468 0.53569 0.1889 0.0
C4604 C 0.12929 0.53029 0.16582 0.0
C4605 C 0.12927 0.54885 0.16343 0.0
C4606 C 0.11621 0.51419 0.15579 0.0
C4607 C 0.11562 0.49432 0.15799 0.0
C4608 C 0.13028 0.48671 0.1548 0.0
C4609 C 0.12962 0.468 0.15712 0.0
C4610 C 0.11432 0.45671 0.16246 0.0
C4611 C 0.09961 0.46409 0.16541 0.0
C4612 C 0.10021 0.4828 0.16314 0.0
C4613 C 0.09797 0.5467 0.09187 0.0
C4614 C 0.07957 0.53937 0.08751 0.0
C4615 C 0.10608 0.54517 0.10859 0.0
C4616 C 0.09591 0.5368 0.12152 0.0
C4617 C 0.0776 0.52901 0.11716 0.0
C4618 C 0.06945 0.53017 0.1001 0.0
C4619 C 0.105 0.53537 0.13903 0.0
C4620 C 0.10402 0.51696 0.14253 0.0
C4621 C 0.11719 0.55166 0.15013 0.0
C4622 C 0.11804 0.57154 0.14742 0.0
C4623 C 0.10254 0.578 0.14651 0.0
C4624 C 0.1033 0.59645 0.14328 0.0
C4625 C 0.1195 0.60863 0.14103 0.0
C4626 C 0.13499 0.60241 0.14203 0.0
C4627 C 0.13431 0.58397 0.14522 0.0
H4628 H 0.12005 0.6229 0.13851 0.0
H4629 H 0.11384 0.44223 0.16426 0.0
H4630 H 0.79141 0.86972 0.4748 0.0
H4631 H 0.78862 0.85682 0.44115 0.0
H4632 H 0.83379 0.83392 0.44907 0.0
H4633 H 0.83617 0.84603 0.48259 0.0
H4634 H 0.80914 0.8657 0.41673 0.0
H4635 H 0.83487 0.7995 0.4219 0.0
H4636 H 0.8303 0.7734 0.43988 0.0
H4637 H 0.77708 0.77755 0.44643 0.0
H4638 H 0.78149 0.80385 0.42877 0.0
H4639 H 0.82823 0.84384 0.32606 0.0
H4640 H 0.83192 0.84996 0.36005 0.0
H4641 H 0.79734 0.7936 0.35873 0.0
H4642 H 0.79693 0.78621 0.3247 0.0
H4643 H 0.81378 0.80053 0.38823 0.0
H4644 H 0.78469 0.8427 0.36273 0.0
H4645 H 0.7816 0.86669 0.34376 0.0
H4646 H 0.82757 0.90708 0.37553 0.0
H4647 H 0.83102 0.88327 0.39456 0.0
C4648 C 0.80053 0.86162 0.46938 0.0
C4649 C 0.81397 0.85885 0.4814 0.0
C4650 C 0.79896 0.85429 0.45013 0.0
C4651 C 0.81086 0.84416 0.44248 0.0
C4652 C 0.82411 0.84117 0.45456 0.0
C4653 C 0.82554 0.84826 0.47378 0.0
C4654 C 0.81037 0.83796 0.42185 0.0
C4655 C 0.81 0.8514 0.41046 0.0
C4656 C 0.81104 0.81923 0.41347 0.0
C4657 C 0.80854 0.80362 0.42416 0.0
C4658 C 0.82221 0.7948 0.42719 0.0
C4659 C 0.81967 0.78005 0.43738 0.0
C4660 C 0.80341 0.77384 0.44431 0.0
C4661 C 0.78969 0.78243 0.44114 0.0
C4662 C 0.79224 0.79733 0.43116 0.0
C4663 C 0.82221 0.83245 0.33315 0.0
C4664 C 0.81291 0.81434 0.32286 0.0
C4665 C 0.8238 0.83615 0.35263 0.0
C4666 C 0.81406 0.82276 0.36226 0.0
C4667 C 0.805 0.80438 0.35192 0.0
C4668 C 0.80474 0.80009 0.3324 0.0
C4669 C 0.81253 0.8283 0.38277 0.0
C4670 C 0.81269 0.81479 0.39426 0.0
C4671 C 0.8105 0.84669 0.39106 0.0
C4672 C 0.80816 0.86118 0.37996 0.0
C4673 C 0.79413 0.85671 0.36565 0.0
C4674 C 0.79233 0.87026 0.35488 0.0
C4675 C 0.8044 0.88839 0.35842 0.0
C4676 C 0.81824 0.89304 0.3728 0.0
C4677 C 0.8201 0.87954 0.3836 0.0
H4678 H 0.80301 0.89884 0.35003 0.0
H4679 H 0.80144 0.76236 0.45211 0.0
H4680 H 0.50476 0.55122 0.82247 0.0
H4681 H 0.51888 0.54912 0.85251 0.0
H4682 H 0.47689 0.56718 0.88025 0.0
H4683 H 0.46391 0.57115 0.85039 0.0
H4684 H 0.50079 0.58001 0.90405 0.0
H4685 H 0.4875 0.51459 0.86862 0.0
H4686 H 0.48873 0.48903 0.84207 0.0
H4687 H 0.54558 0.50463 0.85177 0.0
H4688 H 0.54468 0.53037 0.87827 0.0
H4689 H 0.51331 0.5462 0.9877 0.0
H4690 H 0.50324 0.54819 0.95609 0.0
H4691 H 0.5553 0.54909 0.93954 0.0
H4692 H 0.5656 0.54728 0.97173 0.0
H4693 H 0.52879 0.52726 0.91047 0.0
H4694 H 0.54093 0.59055 0.94805 0.0
H4695 H 0.53882 0.61419 0.9758 0.0
H4696 H 0.48237 0.60073 0.96254 0.0
H4697 H 0.48411 0.5767 0.93487 0.0
C4698 C 0.49854 0.55485 0.83497 0.0
C4699 C 0.48303 0.56142 0.8336 0.0
C4700 C 0.50655 0.5533 0.85245 0.0
C4701 C 0.49899 0.55725 0.86944 0.0
C4702 C 0.48346 0.5639 0.86793 0.0
C4703 C 0.47584 0.56614 0.85056 0.0
C4704 C 0.50713 0.55495 0.88861 0.0
C4705 C 0.50656 0.56816 0.90514 0.0
C4706 C 0.5155 0.54003 0.89106 0.0
C4707 C 0.51602 0.5245 0.87527 0.0
C4708 C 0.50025 0.5126 0.86502 0.0
C4709 C 0.50089 0.49808 0.85 0.0
C4710 C 0.51722 0.49525 0.8452 0.0
C4711 C 0.53294 0.50686 0.85548 0.0
C4712 C 0.53238 0.52139 0.87051 0.0
C4713 C 0.52274 0.54671 0.97741 0.0
C4714 C 0.54037 0.54648 0.98267 0.0
C4715 C 0.51689 0.54794 0.95911 0.0
C4716 C 0.52836 0.54915 0.94494 0.0
C4717 C 0.54594 0.54829 0.94989 0.0
C4718 C 0.5519 0.54718 0.96845 0.0
C4719 C 0.52192 0.55198 0.92552 0.0
C4720 C 0.52288 0.53898 0.90911 0.0
C4721 C 0.51368 0.56689 0.92318 0.0
C4722 C 0.51264 0.58175 0.93944 0.0
C4723 C 0.52806 0.59259 0.95108 0.0
C4724 C 0.52693 0.60605 0.96681 0.0
C4725 C 0.51047 0.60898 0.97094 0.0
C4726 C 0.49511 0.59846 0.95932 0.0
C4727 C 0.49616 0.58492 0.9436 0.0
H4728 H 0.50962 0.6194 0.98314 0.0
H4729 H 0.51769 0.48402 0.83355 0.0
H4730 H 0.79254 0.2089 0.05622 0.0
H4731 H 0.78695 0.22929 0.08413 0.0
H4732 H 0.81 0.19742 0.11867 0.0
H4733 H 0.81464 0.17613 0.09059 0.0
H4734 H 0.78052 0.20396 0.13114 0.0
H4735 H 0.8336 0.24199 0.11005 0.0
H4736 H 0.84982 0.25737 0.08648 0.0
H4737 H 0.8117 0.29029 0.08226 0.0
H4738 H 0.79519 0.27495 0.10569 0.0
H4739 H 0.81825 0.25859 0.21482 0.0
H4740 H 0.8132 0.24247 0.18213 0.0
H4741 H 0.78542 0.28359 0.16893 0.0
H4742 H 0.79115 0.30033 0.20197 0.0
H4743 H 0.80838 0.27429 0.14318 0.0
H4744 H 0.76096 0.24116 0.17268 0.0
H4745 H 0.74831 0.22671 0.19852 0.0
H4746 H 0.77825 0.18457 0.18881 0.0
H4747 H 0.79132 0.19895 0.16313 0.0
C4748 C 0.7967 0.20647 0.06979 0.0
C4749 C 0.80433 0.19128 0.07146 0.0
C4750 C 0.79336 0.21801 0.08565 0.0
C4751 C 0.79823 0.2149 0.10333 0.0
C4752 C 0.8061 0.19989 0.10504 0.0
C4753 C 0.80897 0.18798 0.08913 0.0
C4754 C 0.79566 0.22765 0.12016 0.0
C4755 C 0.78653 0.21934 0.13381 0.0
C4756 C 0.80296 0.24776 0.12318 0.0
C4757 C 0.8131 0.25722 0.10943 0.0
C4758 C 0.82867 0.25246 0.10403 0.0
C4759 C 0.83791 0.26116 0.09071 0.0
C4760 C 0.83177 0.27475 0.08284 0.0
C4761 C 0.81643 0.27974 0.08834 0.0
C4762 C 0.80714 0.27107 0.10165 0.0
C4763 C 0.81134 0.26431 0.20482 0.0
C4764 C 0.8049 0.2804 0.21049 0.0
C4765 C 0.80832 0.25507 0.18633 0.0
C4766 C 0.7984 0.26156 0.1735 0.0
C4767 C 0.79283 0.27835 0.17891 0.0
C4768 C 0.79616 0.28787 0.19753 0.0
C4769 C 0.79412 0.25046 0.15447 0.0
C4770 C 0.8018 0.25903 0.14029 0.0
C4771 C 0.7857 0.23055 0.15111 0.0
C4772 C 0.7771 0.22114 0.1659 0.0
C4773 C 0.76484 0.2288 0.17603 0.0
C4774 C 0.75762 0.22064 0.19068 0.0
C4775 C 0.76247 0.20473 0.19529 0.0
C4776 C 0.77447 0.19687 0.18519 0.0
C4777 C 0.78175 0.20499 0.17054 0.0
H4778 H 0.75693 0.19849 0.2067 0.0
H4779 H 0.83892 0.28145 0.0725 0.0
H4780 H 0.14443 0.54004 0.29007 0.0
H4781 H 0.13028 0.54434 0.31867 0.0
H4782 H 0.17866 0.54554 0.35106 0.0
H4783 H 0.19292 0.54077 0.32214 0.0
H4784 H 0.14993 0.52549 0.3639 0.0
H4785 H 0.16877 0.58725 0.35081 0.0
H4786 H 0.17424 0.61358 0.33326 0.0
H4787 H 0.11816 0.60514 0.32111 0.0
H4788 H 0.11234 0.57855 0.33832 0.0
H4789 H 0.10917 0.56805 0.44115 0.0
H4790 H 0.12897 0.55977 0.41876 0.0
H4791 H 0.08684 0.54768 0.37406 0.0
H4792 H 0.06645 0.55521 0.3967 0.0
H4793 H 0.11819 0.57693 0.37227 0.0
H4794 H 0.10163 0.51154 0.38481 0.0
H4795 H 0.09928 0.48668 0.40403 0.0
H4796 H 0.15524 0.50625 0.42115 0.0
H4797 H 0.15789 0.53136 0.4022 0.0
C4798 C 0.15197 0.54093 0.30326 0.0
C4799 C 0.16973 0.5402 0.30405 0.0
C4800 C 0.14396 0.54357 0.31955 0.0
C4801 C 0.15367 0.54585 0.33688 0.0
C4802 C 0.17111 0.54404 0.33772 0.0
C4803 C 0.17915 0.54118 0.32129 0.0
C4804 C 0.14518 0.55 0.35391 0.0
C4805 C 0.14327 0.53697 0.36601 0.0
C4806 C 0.13674 0.56515 0.35665 0.0
C4807 C 0.14013 0.58078 0.34577 0.0
C4808 C 0.1576 0.59085 0.34422 0.0
C4809 C 0.16076 0.60586 0.33437 0.0
C4810 C 0.14656 0.61101 0.32605 0.0
C4811 C 0.12916 0.60113 0.32755 0.0
C4812 C 0.12592 0.58609 0.33737 0.0
C4813 C 0.10386 0.56303 0.42668 0.0
C4814 C 0.0862 0.56225 0.4207 0.0
C4815 C 0.11525 0.55831 0.41392 0.0
C4816 C 0.10922 0.55301 0.39494 0.0
C4817 C 0.09154 0.55166 0.38882 0.0
C4818 C 0.08002 0.55616 0.40167 0.0
C4819 C 0.12197 0.55161 0.38131 0.0
C4820 C 0.12496 0.56553 0.37018 0.0
C4821 C 0.1318 0.53771 0.37992 0.0
C4822 C 0.12994 0.52336 0.39214 0.0
C4823 C 0.11339 0.51069 0.39285 0.0
C4824 C 0.11203 0.49648 0.4036 0.0
C4825 C 0.12714 0.49475 0.41361 0.0
C4826 C 0.14358 0.50747 0.41322 0.0
C4827 C 0.14502 0.5217 0.4025 0.0
H4828 H 0.12609 0.4836 0.42175 0.0
H4829 H 0.14903 0.62267 0.31848 0.0
H4830 H 0.80181 0.84291 0.57055 0.0
H4831 H 0.7979 0.82812 0.59824 0.0
H4832 H 0.81431 0.88434 0.63396 0.0
H4833 H 0.81783 0.89919 0.60658 0.0
H4834 H 0.83226 0.85607 0.64312 0.0
H4835 H 0.77412 0.86527 0.63016 0.0
H4836 H 0.74611 0.86185 0.61097 0.0
H4837 H 0.73475 0.80038 0.60392 0.0
H4838 H 0.76287 0.80344 0.62283 0.0
H4839 H 0.80076 0.84175 0.73152 0.0
H4840 H 0.80267 0.85256 0.70171 0.0
H4841 H 0.79782 0.79452 0.6728 0.0
H4842 H 0.79724 0.78373 0.70255 0.0
H4843 H 0.77398 0.8214 0.65925 0.0
H4844 H 0.8321 0.81169 0.67133 0.0
H4845 H 0.86014 0.81473 0.69031 0.0
H4846 H 0.87152 0.87627 0.69857 0.0
H4847 H 0.84331 0.87359 0.67998 0.0
C4848 C 0.80451 0.85208 0.58431 0.0
C4849 C 0.8101 0.8722 0.5864 0.0
C4850 C 0.80224 0.84364 0.60006 0.0
C4851 C 0.80584 0.8552 0.61806 0.0
C4852 C 0.81148 0.87522 0.62016 0.0
C4853 C 0.81341 0.88366 0.60449 0.0
C4854 C 0.80411 0.84654 0.63485 0.0
C4855 C 0.81951 0.84857 0.6467 0.0
C4856 C 0.7875 0.83646 0.63925 0.0
C4857 C 0.77074 0.83458 0.62765 0.0
C4858 C 0.76578 0.85102 0.6243 0.0
C4859 C 0.74985 0.84914 0.61353 0.0
C4860 C 0.7387 0.8309 0.60616 0.0
C4861 C 0.74343 0.81449 0.60958 0.0
C4862 C 0.75936 0.81629 0.62032 0.0
C4863 C 0.80026 0.83128 0.71887 0.0
C4864 C 0.79889 0.81188 0.71947 0.0
C4865 C 0.80123 0.83747 0.70187 0.0
C4866 C 0.80041 0.82428 0.68521 0.0
C4867 C 0.79845 0.80484 0.6856 0.0
C4868 C 0.79801 0.79873 0.70263 0.0
C4869 C 0.80211 0.831 0.66743 0.0
C4870 C 0.78672 0.82871 0.6555 0.0
C4871 C 0.81873 0.84071 0.66286 0.0
C4872 C 0.83547 0.84244 0.67448 0.0
C4873 C 0.84043 0.82588 0.67745 0.0
C4874 C 0.8564 0.82753 0.68805 0.0
C4875 C 0.86763 0.84568 0.69558 0.0
C4876 C 0.86283 0.86222 0.69267 0.0
C4877 C 0.84684 0.86064 0.68213 0.0
H4878 H 0.88001 0.84692 0.70374 0.0
H4879 H 0.72635 0.82948 0.59785 0.0
H4880 H 0.76246 0.44542 0.53813 0.0
H4881 H 0.73627 0.45793 0.53879 0.0
H4882 H 0.75839 0.49627 0.50254 0.0
H4883 H 0.78503 0.48418 0.50264 0.0
H4884 H 0.75086 0.51544 0.53257 0.0
H4885 H 0.71918 0.4594 0.48911 0.0
H4886 H 0.70832 0.42479 0.47553 0.0
H4887 H 0.68123 0.41563 0.52382 0.0
H4888 H 0.6922 0.45011 0.53789 0.0
H4889 H 0.6741 0.55156 0.53291 0.0
H4890 H 0.69478 0.53315 0.52115 0.0
H4891 H 0.69013 0.50538 0.56867 0.0
H4892 H 0.66958 0.52411 0.58074 0.0
H4893 H 0.68732 0.48096 0.52911 0.0
H4894 H 0.72302 0.53646 0.57368 0.0
H4895 H 0.7339 0.57117 0.58687 0.0
H4896 H 0.75326 0.58102 0.53477 0.0
H4897 H 0.74215 0.54638 0.52115 0.0
C4898 C 0.76132 0.45597 0.52974 0.0
C4899 C 0.77535 0.46374 0.52008 0.0
C4900 C 0.74638 0.46307 0.53006 0.0
C4901 C 0.7453 0.47786 0.5205 0.0
C4902 C 0.75895 0.48476 0.50987 0.0
C4903 C 0.77403 0.47782 0.5098 0.0
C4904 C 0.73141 0.48805 0.52414 0.0
C4905 C 0.73692 0.50792 0.53133 0.0
C4906 C 0.7133 0.47815 0.52303 0.0
C4907 C 0.70663 0.45736 0.51461 0.0
C4908 C 0.71103 0.44999 0.49692 0.0
C4909 C 0.70484 0.43039 0.48912 0.0
C4910 C 0.69411 0.41801 0.49882 0.0
C4911 C 0.68954 0.42522 0.51633 0.0
C4912 C 0.69573 0.44481 0.52421 0.0
C4913 C 0.6775 0.54148 0.5408 0.0
C4914 C 0.67049 0.5392 0.55774 0.0
C4915 C 0.68919 0.53102 0.53407 0.0
C4916 C 0.69381 0.51806 0.54413 0.0
C4917 C 0.68656 0.51539 0.56083 0.0
C4918 C 0.67507 0.52614 0.56776 0.0
C4919 C 0.70696 0.508 0.53757 0.0
C4920 C 0.70127 0.48831 0.52993 0.0
C4921 C 0.72489 0.51803 0.53813 0.0
C4922 C 0.7315 0.53887 0.54631 0.0
C4923 C 0.72937 0.54606 0.56495 0.0
C4924 C 0.73563 0.56571 0.57253 0.0
C4925 C 0.7442 0.5783 0.56164 0.0
C4926 C 0.74657 0.57126 0.54317 0.0
C4927 C 0.74029 0.55162 0.53551 0.0
H4928 H 0.74907 0.59351 0.56754 0.0
H4929 H 0.68932 0.40284 0.49275 0.0
H4930 H 0.24971 0.15649 0.47185 0.0
H4931 H 0.21935 0.13666 0.47112 0.0
H4932 H 0.23025 0.13321 0.5289 0.0
H4933 H 0.26088 0.15121 0.52884 0.0
H4934 H 0.21069 0.10233 0.51487 0.0
H4935 H 0.20608 0.16599 0.51052 0.0
H4936 H 0.21015 0.19516 0.49698 0.0
H4937 H 0.18041 0.16153 0.44566 0.0
H4938 H 0.17634 0.13212 0.45883 0.0
H4939 H 0.12305 0.09267 0.5424 0.0
H4940 H 0.15307 0.10811 0.53638 0.0
H4941 H 0.14176 0.0784 0.47885 0.0
H4942 H 0.11172 0.0625 0.4848 0.0
H4943 H 0.16017 0.12359 0.48961 0.0
H4944 H 0.16366 0.0599 0.49887 0.0
H4945 H 0.15821 0.03398 0.51695 0.0
H4946 H 0.18947 0.07283 0.56498 0.0
H4947 H 0.19488 0.09906 0.54726 0.0
C4948 C 0.24557 0.15113 0.48421 0.0
C4949 C 0.25754 0.15518 0.50035 0.0
C4950 C 0.22816 0.14003 0.48393 0.0
C4951 C 0.22216 0.13373 0.50012 0.0
C4952 C 0.23436 0.13769 0.51615 0.0
C4953 C 0.2519 0.14804 0.51615 0.0
C4954 C 0.20326 0.12324 0.50071 0.0
C4955 C 0.19976 0.10721 0.50941 0.0
C4956 C 0.1887 0.12919 0.49347 0.0
C4957 C 0.19109 0.14685 0.48558 0.0
C4958 C 0.2005 0.16481 0.49631 0.0
C4959 C 0.2028 0.18138 0.4887 0.0
C4960 C 0.19559 0.18019 0.47045 0.0
C4961 C 0.18602 0.16243 0.45978 0.0
C4962 C 0.18371 0.14581 0.46731 0.0
C4963 C 0.12689 0.08946 0.52843 0.0
C4964 C 0.11501 0.07633 0.51407 0.0
C4965 C 0.14404 0.0983 0.52503 0.0
C4966 C 0.14955 0.09441 0.50718 0.0
C4967 C 0.13767 0.08163 0.4927 0.0
C4968 C 0.12058 0.07251 0.49616 0.0
C4969 C 0.16799 0.10324 0.50396 0.0
C4970 C 0.17128 0.11883 0.49482 0.0
C4971 C 0.18238 0.09738 0.51136 0.0
C4972 C 0.17957 0.08145 0.52179 0.0
C4973 C 0.16928 0.06294 0.51332 0.0
C4974 C 0.1662 0.04819 0.5235 0.0
C4975 C 0.17345 0.05177 0.54211 0.0
C4976 C 0.18386 0.07008 0.55057 0.0
C4977 C 0.18695 0.08488 0.54046 0.0
H4978 H 0.17103 0.04034 0.54998 0.0
H4979 H 0.19739 0.19303 0.46458 0.0
H4980 H 0.20833 0.95804 0.77934 0.0
H4981 H 0.22227 0.93135 0.77895 0.0
H4982 H 0.24296 0.94105 0.72725 0.0
H4983 H 0.2289 0.96772 0.72758 0.0
H4984 H 0.23321 0.90348 0.7246 0.0
H4985 H 0.2693 0.95335 0.77408 0.0
H4986 H 0.27455 0.97712 0.80369 0.0
H4987 H 0.25181 0.93245 0.8328 0.0
H4988 H 0.24628 0.90845 0.80333 0.0
H4989 H 0.29009 0.83998 0.72198 0.0
H4990 H 0.27774 0.86788 0.7235 0.0
H4991 H 0.26405 0.86304 0.77899 0.0
H4992 H 0.27733 0.83566 0.77769 0.0
H4993 H 0.26985 0.89812 0.78004 0.0
H4994 H 0.23252 0.84854 0.73327 0.0
H4995 H 0.22473 0.82323 0.70472 0.0
H4996 H 0.2461 0.86478 0.67172 0.0
H4997 H 0.25416 0.89032 0.70013 0.0
C4998 C 0.21586 0.95464 0.76784 0.0
C4999 C 0.2173 0.96557 0.75355 0.0
C5000 C 0.22408 0.9392 0.76768 0.0
C5001 C 0.23426 0.93376 0.75321 0.0
C5002 C 0.23544 0.94449 0.73876 0.0
C5003 C 0.22732 0.96002 0.73899 0.0
C5004 C 0.24341 0.91705 0.75301 0.0
C5005 C 0.24143 0.90264 0.73674 0.0
C5006 C 0.25381 0.91479 0.76879 0.0
C5007 C 0.25725 0.92915 0.78649 0.0
C5008 C 0.26535 0.94863 0.78679 0.0
C5009 C 0.26838 0.96213 0.80354 0.0
C5010 C 0.26348 0.9563 0.82011 0.0
C5011 C 0.25559 0.93694 0.81996 0.0
C5012 C 0.25252 0.92338 0.80325 0.0
C5013 C 0.28475 0.84503 0.73468 0.0
C5014 C 0.28526 0.8355 0.74984 0.0
C5015 C 0.27725 0.86102 0.73547 0.0
C5016 C 0.26912 0.86793 0.75118 0.0
C5017 C 0.26995 0.85854 0.76651 0.0
C5018 C 0.27772 0.84269 0.76582 0.0
C5019 C 0.25977 0.88454 0.75156 0.0
C5020 C 0.26169 0.89893 0.76786 0.0
C5021 C 0.24895 0.88653 0.73593 0.0
C5022 C 0.24409 0.87129 0.71883 0.0
C5023 C 0.23564 0.85225 0.71993 0.0
C5024 C 0.23116 0.83787 0.70378 0.0
C5025 C 0.23496 0.84238 0.68642 0.0
C5026 C 0.24319 0.8613 0.68518 0.0
C5027 C 0.24769 0.87574 0.70129 0.0
H5028 H 0.23149 0.83123 0.67393 0.0
H5029 H 0.26582 0.96678 0.83306 0.0
H5030 H 0.36198 0.99371 0.02351 0.0
H5031 H 0.39333 0.0098 0.02396 0.0
H5032 H 0.40468 0.95476 0.00692 0.0
H5033 H 0.37349 0.93855 0.00679 0.0
H5034 H 0.42613 0.97579 0.03662 0.0
H5035 H 0.40603 0.98482 0.97693 0.0
H5036 H 0.38736 0.9944 0.95396 0.0
H5037 H 0.4046 0.05311 0.9834 0.0
H5038 H 0.42315 0.04383 0.00675 0.0
H5039 H 0.51377 1.00813 0.01953 0.0
H5040 H 0.48188 0.99512 0.01121 0.0
H5041 H 0.47296 0.048 0.04067 0.0
H5042 H 0.50502 0.06097 0.04939 0.0
H5043 H 0.45052 0.02891 1.00397 0.0
H5044 H 0.47013 0.01781 0.06422 0.0
H5045 H 0.49028 1.00732 0.08486 0.0
H5046 H 0.47451 0.95027 0.05131 0.0
H5047 H 0.4546 0.96059 0.03016 0.0
C5048 C 0.37115 0.98507 0.0197 0.0
C5049 C 0.36541 0.96491 0.01528 0.0
C5050 C 0.38898 0.99427 0.01987 0.0
C5051 C 0.40118 0.9834 0.01537 0.0
C5052 C 0.39539 0.96331 0.01047 0.0
C5053 C 0.37761 0.95411 0.01044 0.0
C5054 C 0.42018 0.99287 0.01707 0.0
C5055 C 0.43149 0.98719 0.02923 0.0
C5056 C 0.42702 1.00796 0.00769 0.0
C5057 C 0.41581 0.01359 0.99372 0.0
C5058 C 0.4057 0.99974 0.97862 0.0
C5059 C 0.39516 1.00512 0.96551 0.0
C5060 C 0.39475 0.02434 0.96725 0.0
C5061 C 0.4049 0.03822 0.98209 0.0
C5062 C 0.41543 0.03291 0.99527 0.0
C5063 C 0.50503 0.01717 0.02373 0.0
C5064 C 0.51165 0.03571 0.03453 0.0
C5065 C 0.48691 0.00973 0.01904 0.0
C5066 C 0.4753 0.02075 0.02526 0.0
C5067 C 0.4819 0.03955 0.03553 0.0
C5068 C 0.50008 0.04689 0.04048 0.0
C5069 C 0.4563 0.0116 0.02319 0.0
C5070 C 0.44507 0.0174 0.01114 0.0
C5071 C 0.44952 0.99641 0.03243 0.0
C5072 C 0.46101 0.99002 0.04551 0.0
C5073 C 0.47106 1.00307 0.06117 0.0
C5074 C 0.48243 0.99715 0.07297 0.0
C5075 C 0.48369 0.97814 0.0694 0.0
C5076 C 0.47354 0.965 0.05405 0.0
C5077 C 0.46221 0.97088 0.04215 0.0
H5078 H 0.49252 0.9736 0.07855 0.0
H5079 H 0.38659 0.02849 0.95707 0.0
H5080 H 0.86404 0.58889 0.82029 0.0
H5081 H 0.85002 0.61402 0.81469 0.0
H5082 H 0.90148 0.65244 0.81414 0.0
H5083 H 0.91563 0.62754 0.82049 0.0
H5084 H 0.87666 0.67185 0.82589 0.0
H5085 H 0.88321 0.62422 0.77471 0.0
H5086 H 0.88098 0.59152 0.75711 0.0
H5087 H 0.82429 0.57767 0.75619 0.0
H5088 H 0.82622 0.6102 0.77404 0.0
H5089 H 0.84413 0.7181 0.75625 0.0
H5090 H 0.86047 0.70419 0.77746 0.0
H5091 H 0.81315 0.65866 0.7768 0.0
H5092 H 0.79742 0.67178 0.75455 0.0
H5093 H 0.83907 0.64479 0.76544 0.0
H5094 H 0.83446 0.69297 0.82098 0.0
H5095 H 0.83905 0.72572 0.83964 0.0
H5096 H 0.8937 0.73954 0.82943 0.0
H5097 H 0.88966 0.70659 0.81139 0.0
C5098 C 0.87234 0.60299 0.81982 0.0
C5099 C 0.8908 0.60635 0.82049 0.0
C5100 C 0.86436 0.61726 0.81659 0.0
C5101 C 0.87479 0.63472 0.81347 0.0
C5102 C 0.89331 0.63894 0.81642 0.0
C5103 C 0.90134 0.62475 0.82005 0.0
C5104 C 0.86641 0.64685 0.80405 0.0
C5105 C 0.86847 0.66604 0.81264 0.0
C5106 C 0.85608 0.63921 0.7866 0.0
C5107 C 0.85488 0.61958 0.7759 0.0
C5108 C 0.87029 0.61414 0.77091 0.0
C5109 C 0.86907 0.59565 0.76085 0.0
C5110 C 0.85251 0.58251 0.75558 0.0
C5111 C 0.83712 0.58785 0.76031 0.0
C5112 C 0.83826 0.60632 0.77039 0.0
C5113 C 0.83738 0.70516 0.7608 0.0
C5114 C 0.81993 0.69541 0.75347 0.0
C5115 C 0.84653 0.69747 0.77314 0.0
C5116 C 0.83799 0.68039 0.77865 0.0
C5117 C 0.81998 0.67178 0.77258 0.0
C5118 C 0.81105 0.67914 0.75988 0.0
C5119 C 0.84823 0.66956 0.78787 0.0
C5120 C 0.84698 0.65062 0.77886 0.0
C5121 C 0.8595 0.67756 0.80468 0.0
C5122 C 0.8617 0.69751 0.81467 0.0
C5123 C 0.8474 0.70309 0.82257 0.0
C5124 C 0.8499 0.72164 0.83307 0.0
C5125 C 0.86653 0.73482 0.83544 0.0
C5126 C 0.88079 0.72938 0.8275 0.0
C5127 C 0.87845 0.71073 0.81727 0.0
H5128 H 0.86838 0.74919 0.84356 0.0
H5129 H 0.85159 0.56821 0.74778 0.0
H5130 H 0.83464 0.63177 0.01725 0.0
H5131 H 0.85959 0.61762 0.02007 0.0
H5132 H 0.89606 0.67315 0.02291 0.0
H5133 H 0.87084 0.6871 0.01871 0.0
H5134 H 0.91047 0.64737 0.0064 0.0
H5135 H 0.88519 0.65495 0.06363 0.0
H5136 H 0.86174 0.65294 0.08487 0.0
H5137 H 0.8481 0.59127 0.06992 0.0
H5138 H 0.87135 0.59291 0.04843 0.0
H5139 H 0.97637 0.60775 0.05001 0.0
H5140 H 0.95712 0.62834 0.04348 0.0
H5141 H 0.91263 0.57827 0.02834 0.0
H5142 H 0.93164 0.55783 0.03498 0.0
H5143 H 0.90595 0.6066 0.0543 0.0
H5144 H 0.93595 0.60253 0.99725 0.0
H5145 H 0.96376 0.60871 0.98245 0.0
H5146 H 0.97242 0.6694 1.00225 0.0
H5147 H 0.94527 0.66359 0.01821 0.0
C5148 C 0.84798 0.64088 0.01815 0.0
C5149 C 0.85085 0.66052 0.01789 0.0
C5150 C 0.86226 0.63284 0.01992 0.0
C5151 C 0.87977 0.64443 0.02237 0.0
C5152 C 0.8827 0.66392 0.0212 0.0
C5153 C 0.86831 0.67188 0.01882 0.0
C5154 C 0.89471 0.63622 0.02717 0.0
C5155 C 0.90957 0.63861 0.017 0.0
C5156 C 0.89388 0.62518 0.04135 0.0
C5157 C 0.87992 0.62407 0.05432 0.0
C5158 C 0.87712 0.64096 0.0648 0.0
C5159 C 0.86388 0.63989 0.0769 0.0
C5160 C 0.85342 0.62199 0.07872 0.0
C5161 C 0.85621 0.60512 0.06849 0.0
C5162 C 0.86944 0.60611 0.05638 0.0
C5163 C 0.96253 0.60119 0.04505 0.0
C5164 C 0.9554 0.58124 0.04324 0.0
C5165 C 0.95157 0.61294 0.04135 0.0
C5166 C 0.93344 0.60481 0.03548 0.0
C5167 C 0.92655 0.58484 0.03299 0.0
C5168 C 0.9374 0.57318 0.03683 0.0
C5169 C 0.92112 0.61685 0.03286 0.0
C5170 C 0.90684 0.61536 0.04368 0.0
C5171 C 0.92292 0.62917 0.01978 0.0
C5172 C 0.93861 0.6326 0.00911 0.0
C5173 C 0.94382 0.6172 0.99859 0.0
C5174 C 0.95951 0.62063 0.99002 0.0
C5175 C 0.96977 0.63942 0.99129 0.0
C5176 C 0.96444 0.65484 1.00124 0.0
C5177 C 0.94896 0.65148 0.01016 0.0
H5178 H 0.98187 0.64202 0.98458 0.0
H5179 H 0.84316 0.62119 0.08808 0.0
H5180 H 0.20097 0.08832 0.79581 0.0
H5181 H 0.21687 0.12144 0.79573 0.0
H5182 H 0.24933 0.10123 0.75527 0.0
H5183 H 0.23362 0.06779 0.75563 0.0
H5184 H 0.26955 0.13192 0.77852 0.0
H5185 H 0.21225 0.12056 0.74397 0.0
H5186 H 0.17955 0.11062 0.73946 0.0
H5187 H 0.17757 0.15397 0.78673 0.0
H5188 H 0.21026 0.16404 0.79163 0.0
H5189 H 0.3049 0.22409 0.75639 0.0
H5190 H 0.29024 0.19043 0.75585 0.0
H5191 H 0.25105 0.20802 0.78897 0.0
H5192 H 0.26501 0.24173 0.78802 0.0
H5193 H 0.23435 0.17797 0.76889 0.0
H5194 H 0.29083 0.18898 0.80482 0.0
H5195 H 0.32348 0.19961 0.81018 0.0
H5196 H 0.32715 0.15766 0.76241 0.0
H5197 H 0.29451 0.14688 0.75669 0.0
C5198 C 0.21161 0.09075 0.78699 0.0
C5199 C 0.21583 0.07496 0.77574 0.0
C5200 C 0.22068 0.10994 0.78681 0.0
C5201 C 0.23423 0.11434 0.77514 0.0
C5202 C 0.23895 0.09861 0.76438 0.0
C5203 C 0.22991 0.07931 0.76463 0.0
C5204 C 0.24312 0.13517 0.77402 0.0
C5205 C 0.26178 0.14186 0.77619 0.0
C5206 C 0.23333 0.14873 0.77142 0.0
C5207 C 0.21369 0.14297 0.76823 0.0
C5208 C 0.20483 0.12793 0.75343 0.0
C5209 C 0.1863 0.12227 0.75081 0.0
C5210 C 0.17649 0.13163 0.76282 0.0
C5211 C 0.18519 0.14673 0.77744 0.0
C5212 C 0.20371 0.15244 0.78013 0.0
C5213 C 0.29328 0.22083 0.76377 0.0
C5214 C 0.28647 0.23586 0.77262 0.0
C5215 C 0.28484 0.20135 0.76359 0.0
C5216 C 0.26964 0.19603 0.77301 0.0
C5217 C 0.26272 0.21118 0.78166 0.0
C5218 C 0.27083 0.23065 0.78124 0.0
C5219 C 0.26088 0.17496 0.77366 0.0
C5220 C 0.24221 0.16815 0.77133 0.0
C5221 C 0.27067 0.16136 0.77637 0.0
C5222 C 0.29025 0.16721 0.78027 0.0
C5223 C 0.29862 0.18201 0.79548 0.0
C5224 C 0.31712 0.18809 0.79855 0.0
C5225 C 0.32739 0.17936 0.7866 0.0
C5226 C 0.31918 0.16442 0.77164 0.0
C5227 C 0.30068 0.15829 0.7685 0.0
H5228 H 0.34171 0.18416 0.78895 0.0
H5229 H 0.16215 0.12721 0.76079 0.0
H5230 H 0.37762 0.01619 0.31563 0.0
H5231 H 0.35877 0.9832 0.3104 0.0
H5232 H 0.40043 0.96207 0.28502 0.0
H5233 H 0.41947 0.99477 0.29047 0.0
H5234 H 0.36419 0.95167 0.26333 0.0
H5235 H 0.39688 0.95423 0.32308 0.0
H5236 H 0.40677 0.96714 0.35655 0.0
H5237 H 0.35262 0.95545 0.36889 0.0
H5238 H 0.34241 0.94286 0.33541 0.0
H5239 H 0.35227 0.85089 0.27349 0.0
H5240 H 0.36415 0.88566 0.28414 0.0
H5241 H 0.31302 0.89422 0.26845 0.0
H5242 H 0.30122 0.85928 0.25738 0.0
H5243 H 0.35073 0.91207 0.31162 0.0
H5244 H 0.31964 0.91984 0.24779 0.0
H5245 H 0.31156 0.90446 0.21443 0.0
H5246 H 0.36325 0.89432 0.21141 0.0
H5247 H 0.37138 0.90924 0.24476 0.0
C5248 C 0.3828 1.00445 0.30915 0.0
C5249 C 0.39991 1.00791 0.30335 0.0
C5250 C 0.37206 0.98576 0.3062 0.0
C5251 C 0.37834 0.97055 0.29725 0.0
C5252 C 0.39552 0.97386 0.29188 0.0
C5253 C 0.40634 0.99246 0.29509 0.0
C5254 C 0.36683 0.95109 0.29276 0.0
C5255 C 0.36075 0.94314 0.27395 0.0
C5256 C 0.36268 0.94011 0.30666 0.0
C5257 C 0.36888 0.94792 0.32672 0.0
C5258 C 0.38708 0.95469 0.33289 0.0
C5259 C 0.39275 0.96189 0.35187 0.0
C5260 C 0.38033 0.9622 0.36483 0.0
C5261 C 0.36222 0.95527 0.35884 0.0
C5262 C 0.35649 0.94812 0.33986 0.0
C5263 C 0.34361 0.86029 0.27259 0.0
C5264 C 0.32581 0.85281 0.26542 0.0
C5265 C 0.35033 0.87997 0.27863 0.0
C5266 C 0.33934 0.89223 0.27717 0.0
C5267 C 0.32158 0.88479 0.26962 0.0
C5268 C 0.31489 0.86503 0.26341 0.0
C5269 C 0.34705 0.91293 0.28244 0.0
C5270 C 0.35293 0.92098 0.30125 0.0
C5271 C 0.35081 0.9241 0.26867 0.0
C5272 C 0.34607 0.91559 0.24861 0.0
C5273 C 0.32923 0.9143 0.23993 0.0
C5274 C 0.32462 0.9056 0.22107 0.0
C5275 C 0.33685 0.89835 0.21078 0.0
C5276 C 0.35372 0.89981 0.21934 0.0
C5277 C 0.35833 0.90836 0.23822 0.0
H5278 H 0.33323 0.89167 0.19619 0.0
H5279 H 0.38475 0.96774 0.37953 0.0
H5280 H 0.58206 0.37655 0.6145 0.0
H5281 H 0.57584 0.40472 0.60467 0.0
H5282 H 0.60331 0.39458 0.55594 0.0
H5283 H 0.61035 0.36696 0.56632 0.0
H5284 H 0.61079 0.4302 0.56587 0.0
H5285 H 0.55433 0.38471 0.55627 0.0
H5286 H 0.52862 0.36124 0.56387 0.0
H5287 H 0.51933 0.40473 0.60701 0.0
H5288 H 0.54511 0.42842 0.59981 0.0
H5289 H 0.57483 0.49739 0.52328 0.0
H5290 H 0.57911 0.46638 0.52886 0.0
H5291 H 0.56731 0.48045 0.58568 0.0
H5292 H 0.56345 0.51132 0.58027 0.0
H5293 H 0.55111 0.44191 0.56877 0.0
H5294 H 0.60896 0.48734 0.57636 0.0
H5295 H 0.6331 0.50992 0.5653 0.0
H5296 H 0.6382 0.4645 0.5216 0.0
H5297 H 0.61381 0.44171 0.53217 0.0
C5298 C 0.58677 0.38025 0.60165 0.0
C5299 C 0.59664 0.36922 0.5912 0.0
C5300 C 0.58305 0.3964 0.59589 0.0
C5301 C 0.58864 0.40187 0.57917 0.0
C5302 C 0.59867 0.39092 0.56883 0.0
C5303 C 0.60265 0.37495 0.57476 0.0
C5304 C 0.58427 0.419 0.57267 0.0
C5305 C 0.59761 0.43245 0.56626 0.0
C5306 C 0.56716 0.42248 0.57311 0.0
C5307 C 0.55176 0.40827 0.57763 0.0
C5308 C 0.54688 0.38922 0.56748 0.0
C5309 C 0.53228 0.37589 0.57169 0.0
C5310 C 0.52238 0.38148 0.58595 0.0
C5311 C 0.52703 0.40042 0.596 0.0
C5312 C 0.54163 0.41381 0.59184 0.0
C5313 C 0.57276 0.49363 0.5368 0.0
C5314 C 0.56844 0.50669 0.55124 0.0
C5315 C 0.57538 0.47596 0.54006 0.0
C5316 C 0.57366 0.47097 0.55779 0.0
C5317 C 0.56872 0.48378 0.5719 0.0
C5318 C 0.56645 0.50145 0.56877 0.0
C5319 C 0.57759 0.45292 0.56216 0.0
C5320 C 0.56421 0.43942 0.56825 0.0
C5321 C 0.59452 0.44922 0.56103 0.0
C5322 C 0.60939 0.46287 0.55491 0.0
C5323 C 0.61512 0.4822 0.56429 0.0
C5324 C 0.62886 0.49504 0.55812 0.0
C5325 C 0.63713 0.48867 0.5427 0.0
C5326 C 0.63174 0.46942 0.5335 0.0
C5327 C 0.61795 0.45654 0.53957 0.0
H5328 H 0.64772 0.49862 0.53788 0.0
H5329 H 0.51107 0.37114 0.58918 0.0
H5330 H 0.4831 0.77596 0.35405 0.0
H5331 H 0.45489 0.77555 0.33737 0.0
H5332 H 0.43502 0.79166 0.3901 0.0
H5333 H 0.4627 0.7902 0.40666 0.0
H5334 H 0.40887 0.77093 0.37004 0.0
H5335 H 0.45242 0.82434 0.35666 0.0
H5336 H 0.48031 0.84082 0.34588 0.0
H5337 H 0.46465 0.80541 0.2911 0.0
H5338 H 0.43675 0.78858 0.30161 0.0
H5339 H 0.34265 0.80987 0.32814 0.0
H5340 H 0.36912 0.80677 0.34568 0.0
H5341 H 0.3799 0.77029 0.29709 0.0
H5342 H 0.35305 0.77232 0.28 0.0
H5343 H 0.40996 0.80203 0.31496 0.0
H5344 H 0.36504 0.75013 0.32981 0.0
H5345 H 0.33649 0.73693 0.34131 0.0
H5346 H 0.35455 0.77396 0.39497 0.0
H5347 H 0.38312 0.78764 0.38369 0.0
C5348 C 0.47259 0.77917 0.36203 0.0
C5349 C 0.47508 0.78303 0.38165 0.0
C5350 C 0.45647 0.77923 0.35249 0.0
C5351 C 0.4427 0.78422 0.36228 0.0
C5352 C 0.44521 0.7878 0.38198 0.0
C5353 C 0.4611 0.78702 0.39152 0.0
C5354 C 0.42585 0.78582 0.35212 0.0
C5355 C 0.4093 0.77802 0.35818 0.0
C5356 C 0.42592 0.79485 0.33639 0.0
C5357 C 0.44259 0.80509 0.32998 0.0
C5358 C 0.45497 0.82002 0.34234 0.0
C5359 C 0.47077 0.82942 0.33628 0.0
C5360 C 0.47427 0.82413 0.31783 0.0
C5361 C 0.46193 0.80948 0.30539 0.0
C5362 C 0.44612 0.80002 0.31138 0.0
C5363 C 0.35049 0.801 0.32116 0.0
C5364 C 0.34581 0.79187 0.3022 0.0
C5365 C 0.36573 0.79933 0.33125 0.0
C5366 C 0.37674 0.78856 0.32264 0.0
C5367 C 0.37186 0.779 0.30398 0.0
C5368 C 0.35648 0.78037 0.29405 0.0
C5369 C 0.39336 0.78722 0.33298 0.0
C5370 C 0.40975 0.79505 0.3269 0.0
C5371 C 0.39315 0.77865 0.34889 0.0
C5372 C 0.37619 0.77001 0.35587 0.0
C5373 C 0.3629 0.75554 0.34404 0.0
C5374 C 0.34671 0.74797 0.35051 0.0
C5375 C 0.34369 0.75462 0.36885 0.0
C5376 C 0.3569 0.76882 0.38077 0.0
C5377 C 0.3731 0.77648 0.37435 0.0
H5378 H 0.33115 0.74873 0.37384 0.0
H5379 H 0.48652 0.83141 0.31317 0.0
H5380 H 0.07856 0.75346 0.1193 0.0
H5381 H 0.0768 0.71978 0.1075 0.0
H5382 H 0.08236 0.73096 0.05198 0.0
H5383 H 0.0845 0.76533 0.06386 0.0
H5384 H 0.05434 0.6953 0.0553 0.0
H5385 H 0.11676 0.7252 0.0726 0.0
H5386 H 0.14376 0.74452 0.09277 0.0
H5387 H 0.13129 0.70966 0.13409 0.0
H5388 H 0.10406 0.69028 0.11426 0.0
H5389 H 0.06547 0.59951 0.02688 0.0
H5390 H 0.07057 0.63463 0.03065 0.0
H5391 H 0.07755 0.64029 0.09054 0.0
H5392 H 0.07255 0.60547 0.08677 0.0
H5393 H 0.10083 0.66831 0.08075 0.0
H5394 H 0.0385 0.64032 0.0672 0.0
H5395 H 0.01091 0.61953 0.04904 0.0
H5396 H 0.02094 0.64975 1.00391 0.0
H5397 H 0.04885 0.67048 0.02165 0.0
C5398 C 0.07929 0.74893 0.1045 0.0
C5399 C 0.08166 0.76235 0.09257 0.0
C5400 C 0.07833 0.72952 0.09779 0.0
C5401 C 0.07952 0.7227 0.07885 0.0
C5402 C 0.0814 0.73583 0.06666 0.0
C5403 C 0.08265 0.7555 0.07348 0.0
C5404 C 0.07929 0.70198 0.07233 0.0
C5405 C 0.06471 0.68946 0.06049 0.0
C5406 C 0.09244 0.6941 0.07962 0.0
C5407 C 0.10833 0.70635 0.09196 0.0
C5408 C 0.11965 0.72181 0.08609 0.0
C5409 C 0.13504 0.73274 0.09745 0.0
C5410 C 0.13928 0.72827 0.11468 0.0
C5411 C 0.12801 0.71306 0.12071 0.0
C5412 C 0.11261 0.7021 0.10942 0.0
C5413 C 0.06853 0.60833 0.0408 0.0
C5414 C 0.0688 0.59973 0.05655 0.0
C5415 C 0.07123 0.6284 0.04297 0.0
C5416 C 0.07422 0.64025 0.06092 0.0
C5417 C 0.07525 0.63163 0.07654 0.0
C5418 C 0.07243 0.61168 0.07438 0.0
C5419 C 0.07583 0.66149 0.06382 0.0
C5420 C 0.0906 0.67413 0.07518 0.0
C5421 C 0.06263 0.66932 0.05643 0.0
C5422 C 0.04592 0.65679 0.04565 0.0
C5423 C 0.03495 0.6424 0.05331 0.0
C5424 C 0.01922 0.63064 0.04311 0.0
C5425 C 0.01419 0.63328 0.02531 0.0
C5426 C 0.02488 0.64769 0.01768 0.0
C5427 C 0.04067 0.65943 0.0278 0.0
H5428 H 1.00198 0.62421 0.01746 0.0
H5429 H 0.15134 0.73648 0.12332 0.0
H5430 H 0.06351 0.25326 0.85918 0.0
H5431 H 0.09124 0.25728 0.84489 0.0
H5432 H 0.11889 0.29604 0.89523 0.0
H5433 H 0.09083 0.29287 0.90918 0.0
H5434 H 0.13289 0.30909 0.86873 0.0
H5435 H 0.12095 0.24641 0.88164 0.0
H5436 H 0.10379 0.21344 0.8822 0.0
H5437 H 0.09854 0.19938 0.82222 0.0
H5438 H 0.11547 0.23237 0.82128 0.0
H5439 H 0.21527 0.30523 0.83072 0.0
H5440 H 0.19166 0.30023 0.85158 0.0
H5441 H 0.15411 0.26837 0.80431 0.0
H5442 H 0.17754 0.2729 0.78372 0.0
H5443 H 0.14809 0.25169 0.83368 0.0
H5444 H 0.15969 0.31807 0.82349 0.0
H5445 H 0.17929 0.35063 0.82586 0.0
H5446 H 0.18823 0.35666 0.8854 0.0
H5447 H 0.16885 0.32403 0.88333 0.0
C5448 C 0.07547 0.26273 0.8672 0.0
C5449 C 0.0749 0.2727 0.88537 0.0
C5450 C 0.09145 0.26488 0.85906 0.0
C5451 C 0.10748 0.27658 0.86906 0.0
C5452 C 0.10686 0.28684 0.88713 0.0
C5453 C 0.09076 0.28501 0.89514 0.0
C5454 C 0.12473 0.27816 0.86055 0.0
C5455 C 0.13627 0.29644 0.86135 0.0
C5456 C 0.12952 0.2618 0.85095 0.0
C5457 C 0.11936 0.24191 0.85139 0.0
C5458 C 0.11604 0.23632 0.86856 0.0
C5459 C 0.10637 0.21763 0.86895 0.0
C5460 C 0.10005 0.20434 0.85226 0.0
C5461 C 0.10343 0.2097 0.83514 0.0
C5462 C 0.11308 0.22839 0.83467 0.0
C5463 C 0.20204 0.29687 0.82489 0.0
C5464 C 0.19826 0.28967 0.8055 0.0
C5465 C 0.18849 0.29417 0.83678 0.0
C5466 C 0.17091 0.28421 0.82952 0.0
C5467 C 0.16744 0.2762 0.81033 0.0
C5468 C 0.18088 0.2789 0.79852 0.0
C5469 C 0.15582 0.28257 0.8414 0.0
C5470 C 0.1447 0.26426 0.84125 0.0
C5471 C 0.15171 0.29884 0.85202 0.0
C5472 C 0.16297 0.31858 0.85323 0.0
C5473 C 0.16589 0.32632 0.83707 0.0
C5474 C 0.17696 0.34478 0.83836 0.0
C5475 C 0.18503 0.35569 0.85577 0.0
C5476 C 0.18199 0.34819 0.87193 0.0
C5477 C 0.17096 0.32973 0.8707 0.0
H5478 H 0.19362 0.36996 0.85674 0.0
H5479 H 0.09256 0.18987 0.85259 0.0
H5480 H 0.58202 0.75781 0.90757 0.0
H5481 H 0.57536 0.73003 0.92284 0.0
H5482 H 0.61546 0.76088 0.96837 0.0
H5483 H 0.6226 0.78818 0.95295 0.0
H5484 H 0.61759 0.72548 0.95869 0.0
H5485 H 0.56986 0.75681 0.97084 0.0
H5486 H 0.54455 0.76901 0.96163 0.0
H5487 H 0.51719 0.71263 0.93101 0.0
H5488 H 0.54242 0.70015 0.93991 0.0
H5489 H 0.59411 0.68605 0.0374 0.0
H5490 H 0.60031 0.70643 0.01413 0.0
H5491 H 0.56024 0.66493 0.97436 0.0
H5492 H 0.55356 0.64488 0.99775 0.0
H5493 H 0.55713 0.7008 0.97614 0.0
H5494 H 0.60326 0.66871 0.96851 0.0
H5495 H 0.62855 0.65664 0.97797 0.0
H5496 H 0.65909 0.71447 1.00054 0.0
H5497 H 0.63391 0.72687 0.9914 0.0
C5498 C 0.5894 0.75857 0.9208 0.0
C5499 C 0.60279 0.77507 0.92912 0.0
C5500 C 0.58558 0.74277 0.9295 0.0
C5501 C 0.59483 0.74354 0.94677 0.0
C5502 C 0.60824 0.75999 0.95499 0.0
C5503 C 0.61225 0.7756 0.9462 0.0
C5504 C 0.59053 0.72747 0.95669 0.0
C5505 C 0.6044 0.72012 0.96261 0.0
C5506 C 0.57319 0.72009 0.96118 0.0
C5507 C 0.55808 0.72762 0.95584 0.0
C5508 C 0.55849 0.74706 0.96203 0.0
C5509 C 0.54415 0.75402 0.95689 0.0
C5510 C 0.5293 0.74162 0.94568 0.0
C5511 C 0.52872 0.72223 0.93965 0.0
C5512 C 0.54302 0.71521 0.94474 0.0
C5513 C 0.5865 0.68146 0.02378 0.0
C5514 C 0.57335 0.66401 0.01932 0.0
C5515 C 0.59022 0.69289 0.01045 0.0
C5516 C 0.58092 0.68692 0.99251 0.0
C5517 C 0.56763 0.66962 0.98811 0.0
C5518 C 0.56386 0.65824 1.00143 0.0
C5519 C 0.58434 0.69936 0.97874 0.0
C5520 C 0.57028 0.70593 0.972 0.0
C5521 C 0.60153 0.7061 0.9736 0.0
C5522 C 0.61663 0.69869 0.97939 0.0
C5523 C 0.61531 0.67884 0.97564 0.0
C5524 C 0.62964 0.67194 0.98091 0.0
C5525 C 0.6454 0.68478 0.98989 0.0
C5526 C 0.64687 0.70454 0.9936 0.0
C5527 C 0.63258 0.71151 0.98835 0.0
H5528 H 0.65649 0.67941 0.99394 0.0
H5529 H 0.51821 0.74703 0.94172 0.0
H5530 H 0.06675 0.7968 0.70954 0.0
H5531 H 0.09589 0.79273 0.71827 0.0
H5532 H 0.10221 0.77476 0.66012 0.0
H5533 H 0.07287 0.77851 0.65122 0.0
H5534 H 0.10823 0.74944 0.67989 0.0
H5535 H 0.12858 0.81606 0.68434 0.0
H5536 H 0.1285 0.85019 0.69255 0.0
H5537 H 0.13502 0.84856 0.75092 0.0
H5538 H 0.13482 0.81428 0.74306 0.0
H5539 H 0.19645 0.745 0.71007 0.0
H5540 H 0.1719 0.75393 0.69464 0.0
H5541 H 0.15078 0.76475 0.74752 0.0
H5542 H 0.17531 0.75578 0.76303 0.0
H5543 H 0.15513 0.79534 0.72608 0.0
H5544 H 0.1313 0.72582 0.7186 0.0
H5545 H 0.13251 0.69226 0.708 0.0
H5546 H 0.1348 0.70105 0.65156 0.0
H5547 H 0.13388 0.73477 0.6619 0.0
C5548 C 0.07449 0.79244 0.69857 0.0
C5549 C 0.06748 0.78786 0.67971 0.0
C5550 C 0.09117 0.79016 0.70357 0.0
C5551 C 0.10117 0.78349 0.68981 0.0
C5552 C 0.09463 0.7799 0.67091 0.0
C5553 C 0.07792 0.78216 0.66587 0.0
C5554 C 0.11764 0.7786 0.69544 0.0
C5555 C 0.11869 0.7596 0.68967 0.0
C5556 C 0.1312 0.79185 0.7082 0.0
C5557 C 0.13158 0.81255 0.7131 0.0
C5558 C 0.12988 0.82294 0.69894 0.0
C5559 C 0.12989 0.84232 0.70352 0.0
C5560 C 0.13173 0.85153 0.72225 0.0
C5561 C 0.1336 0.84139 0.73642 0.0
C5562 C 0.13356 0.82198 0.7319 0.0
C5563 C 0.18638 0.74899 0.7183 0.0
C5564 C 0.18757 0.74955 0.73766 0.0
C5565 C 0.17248 0.75413 0.70952 0.0
C5566 C 0.15968 0.76 0.72002 0.0
C5567 C 0.16064 0.76026 0.73928 0.0
C5568 C 0.17445 0.75492 0.74805 0.0
C5569 C 0.14533 0.76611 0.71098 0.0
C5570 C 0.14476 0.78533 0.71609 0.0
C5571 C 0.13245 0.7532 0.69726 0.0
C5572 C 0.13273 0.73286 0.69105 0.0
C5573 C 0.13221 0.72064 0.70396 0.0
C5574 C 0.13282 0.70158 0.69799 0.0
C5575 C 0.13379 0.69454 0.67913 0.0
C5576 C 0.13408 0.70653 0.66617 0.0
C5577 C 0.13351 0.7256 0.67208 0.0
H5578 H 0.13427 0.67979 0.67454 0.0
H5579 H 0.13173 0.86654 0.72577 0.0
H5580 H 0.12596 0.38226 0.46386 0.0
H5581 H 0.12559 0.41497 0.47806 0.0
H5582 H 0.11869 0.42803 0.42324 0.0
H5583 H 0.11994 0.39553 0.40899 0.0
H5584 H 0.13449 0.46109 0.45072 0.0
H5585 H 0.08292 0.40692 0.43913 0.0
H5586 H 0.06589 0.37404 0.4403 0.0
H5587 H 0.07327 0.38781 0.50031 0.0
H5588 H 0.09056 0.4207 0.49946 0.0
H5589 H 0.06058 0.50581 0.48377 0.0
H5590 H 0.07206 0.48067 0.46628 0.0
H5591 H 0.11611 0.49356 0.50896 0.0
H5592 H 0.10452 0.51859 0.52693 0.0
H5593 H 0.08079 0.44872 0.48448 0.0
H5594 H 0.1508 0.49392 0.47627 0.0
H5595 H 0.16477 0.52716 0.47301 0.0
H5596 H 0.11526 0.53151 0.44792 0.0
H5597 H 0.10113 0.49826 0.45071 0.0
C5598 C 0.12537 0.39247 0.45491 0.0
C5599 C 0.12282 0.38653 0.43543 0.0
C5600 C 0.12513 0.41109 0.46299 0.0
C5601 C 0.12164 0.42359 0.45162 0.0
C5602 C 0.12137 0.41849 0.43218 0.0
C5603 C 0.12209 0.39996 0.42407 0.0
C5604 C 0.11435 0.43957 0.45965 0.0
C5605 C 0.12283 0.45844 0.45816 0.0
C5606 C 0.09867 0.43591 0.46867 0.0
C5607 C 0.08821 0.41617 0.46922 0.0
C5608 C 0.08103 0.40288 0.45256 0.0
C5609 C 0.0713 0.38425 0.45317 0.0
C5610 C 0.06854 0.37882 0.47037 0.0
C5611 C 0.07545 0.39202 0.48699 0.0
C5612 C 0.0852 0.41065 0.48646 0.0
C5613 C 0.07271 0.50336 0.48946 0.0
C5614 C 0.08164 0.51403 0.50673 0.0
C5615 C 0.0792 0.48903 0.47946 0.0
C5616 C 0.09489 0.48561 0.4864 0.0
C5617 C 0.10402 0.49632 0.50348 0.0
C5618 C 0.09735 0.51045 0.5137 0.0
C5619 C 0.10132 0.47011 0.47617 0.0
C5620 C 0.09254 0.45133 0.47712 0.0
C5621 C 0.11626 0.47386 0.4662 0.0
C5622 C 0.12487 0.49367 0.46394 0.0
C5623 C 0.14293 0.50195 0.46999 0.0
C5624 C 0.15087 0.52081 0.46824 0.0
C5625 C 0.14089 0.53148 0.46036 0.0
C5626 C 0.12295 0.52332 0.45419 0.0
C5627 C 0.11496 0.50448 0.45591 0.0
H5628 H 0.14709 0.54603 0.45896 0.0
H5629 H 0.06102 0.36439 0.47081 0.0
H5630 H 0.47124 0.29751 0.19006 0.0
H5631 H 0.44147 0.29714 0.19934 0.0
H5632 H 0.43744 0.24202 0.21478 0.0
H5633 H 0.46729 0.24295 0.20677 0.0
H5634 H 0.40959 0.27424 0.18831 0.0
H5635 H 0.41619 0.23708 0.251 0.0
H5636 H 0.43948 0.23521 0.27435 0.0
H5637 H 0.4706 0.29084 0.26914 0.0
H5638 H 0.44739 0.29315 0.24597 0.0
H5639 H 0.32395 0.25672 0.22002 0.0
H5640 H 0.3513 0.25368 0.2073 0.0
H5641 H 0.38018 0.28076 0.26172 0.0
H5642 H 0.35217 0.27763 0.27491 0.0
H5643 H 0.39632 0.26117 0.25085 0.0
H5644 H 0.37644 0.30244 0.20786 0.0
H5645 H 0.35449 0.30677 0.18421 0.0
H5646 H 0.3525 0.25119 0.15173 0.0
H5647 H 0.37436 0.24667 0.17516 0.0
C5648 C 0.464 0.28553 0.19572 0.0
C5649 C 0.4716 0.27055 0.19827 0.0
C5650 C 0.44703 0.28522 0.20082 0.0
C5651 C 0.43748 0.26974 0.20812 0.0
C5652 C 0.44483 0.25439 0.20977 0.0
C5653 C 0.46188 0.25497 0.20524 0.0
C5654 C 0.42 0.26969 0.21454 0.0
C5655 C 0.40668 0.27195 0.2022 0.0
C5656 C 0.41624 0.26632 0.23245 0.0
C5657 C 0.43013 0.26519 0.24665 0.0
C5658 C 0.42797 0.24895 0.25492 0.0
C5659 C 0.44116 0.2478 0.2681 0.0
C5660 C 0.45653 0.26287 0.27318 0.0
C5661 C 0.45871 0.27916 0.26515 0.0
C5662 C 0.44555 0.28038 0.25199 0.0
C5663 C 0.33632 0.26192 0.22908 0.0
C5664 C 0.3364 0.26891 0.2482 0.0
C5665 C 0.35211 0.26074 0.2217 0.0
C5666 C 0.36841 0.26812 0.23301 0.0
C5667 C 0.36811 0.27489 0.2523 0.0
C5668 C 0.35215 0.27397 0.25992 0.0
C5669 C 0.38572 0.26788 0.22551 0.0
C5670 C 0.39908 0.26466 0.23735 0.0
C5671 C 0.38965 0.2713 0.20744 0.0
C5672 C 0.37662 0.27411 0.19345 0.0
C5673 C 0.37107 0.29113 0.19581 0.0
C5674 C 0.35874 0.29362 0.18243 0.0
C5675 C 0.35196 0.27918 0.16663 0.0
C5676 C 0.35767 0.26232 0.16403 0.0
C5677 C 0.37006 0.25983 0.17731 0.0
H5678 H 0.34238 0.28112 0.15633 0.0
H5679 H 0.46674 0.26194 0.28336 0.0
H5680 H 0.64279 0.56005 0.33541 0.0
H5681 H 0.63108 0.56233 0.36603 0.0
H5682 H 0.62498 0.50176 0.3628 0.0
H5683 H 0.63746 0.49958 0.33252 0.0
H5684 H 0.59346 0.51675 0.37561 0.0
H5685 H 0.65592 0.52752 0.39109 0.0
H5686 H 0.68765 0.54305 0.39109 0.0
H5687 H 0.67939 0.59755 0.41599 0.0
H5688 H 0.64751 0.58237 0.41584 0.0
H5689 H 0.56962 0.51438 0.46894 0.0
H5690 H 0.5815 0.51027 0.43878 0.0
H5691 H 0.61263 0.56926 0.45229 0.0
H5692 H 0.60166 0.57278 0.48313 0.0
H5693 H 0.6314 0.55429 0.43324 0.0
H5694 H 0.56877 0.54459 0.4168 0.0
H5695 H 0.53693 0.52946 0.41699 0.0
H5696 H 0.54468 0.47434 0.39348 0.0
H5697 H 0.5766 0.48909 0.39338 0.0
C5698 C 0.63897 0.54712 0.3411 0.0
C5699 C 0.64121 0.52958 0.33104 0.0
C5700 C 0.63222 0.54847 0.35884 0.0
C5701 C 0.62689 0.53225 0.36721 0.0
C5702 C 0.62879 0.51463 0.35702 0.0
C5703 C 0.63604 0.51339 0.33952 0.0
C5704 C 0.61971 0.5338 0.38651 0.0
C5705 C 0.60186 0.52484 0.3882 0.0
C5706 C 0.63019 0.54463 0.4033 0.0
C5707 C 0.64928 0.55385 0.4032 0.0
C5708 C 0.66082 0.54286 0.39634 0.0
C5709 C 0.67885 0.55159 0.39642 0.0
C5710 C 0.68553 0.57129 0.40347 0.0
C5711 C 0.67419 0.58229 0.41048 0.0
C5712 C 0.65614 0.57363 0.4104 0.0
C5713 C 0.57887 0.5266 0.4655 0.0
C5714 C 0.58429 0.54404 0.47879 0.0
C5715 C 0.58568 0.5243 0.44785 0.0
C5716 C 0.59779 0.53958 0.44211 0.0
C5717 C 0.60335 0.55699 0.45561 0.0
C5718 C 0.59693 0.55909 0.47351 0.0
C5719 C 0.60486 0.53747 0.42258 0.0
C5720 C 0.62278 0.54632 0.42075 0.0
C5721 C 0.59433 0.52672 0.4056 0.0
C5722 C 0.57509 0.51792 0.40523 0.0
C5723 C 0.56368 0.52924 0.41171 0.0
C5724 C 0.54562 0.52073 0.41182 0.0
C5725 C 0.5388 0.50095 0.4053 0.0
C5726 C 0.54999 0.48965 0.39856 0.0
C5727 C 0.56806 0.49808 0.39845 0.0
H5728 H 0.52483 0.49438 0.40544 0.0
H5729 H 0.69949 0.57802 0.40355 0.0
H5730 H 0.29411 0.88263 0.0483 0.0
H5731 H 0.29826 0.86881 0.07583 0.0
H5732 H 0.32104 0.92569 0.10878 0.0
H5733 H 0.31668 0.9397 0.08159 0.0
H5734 H 0.33521 0.87833 0.09585 0.0
H5735 H 0.30775 0.92664 0.14033 0.0
H5736 H 0.28312 0.94234 0.14134 0.0
H5737 H 0.24641 0.88832 0.1164 0.0
H5738 H 0.27096 0.87247 0.11497 0.0
H5739 H 0.36801 0.8714 0.1847 0.0
H5740 H 0.3563 0.88669 0.16162 0.0
H5741 H 0.30718 0.84232 0.15272 0.0
H5742 H 0.31893 0.82631 0.1751 0.0
H5743 H 0.3045 0.88244 0.15347 0.0
H5744 H 0.33318 0.83417 0.12444 0.0
H5745 H 0.35807 0.819 0.12186 0.0
H5746 H 0.39257 0.87206 0.11442 0.0
H5747 H 0.3679 0.88761 0.11722 0.0
C5748 C 0.29955 0.8922 0.06153 0.0
C5749 C 0.30509 0.91221 0.06285 0.0
C5750 C 0.30193 0.8843 0.07715 0.0
C5751 C 0.3098 0.89634 0.09415 0.0
C5752 C 0.31461 0.91631 0.09575 0.0
C5753 C 0.31212 0.92424 0.08022 0.0
C5754 C 0.31457 0.888 0.1098 0.0
C5755 C 0.32854 0.87918 0.10846 0.0
C5756 C 0.30582 0.88924 0.12605 0.0
C5757 C 0.29105 0.89844 0.12764 0.0
C5758 C 0.29439 0.91816 0.13517 0.0
C5759 C 0.28048 0.92708 0.13572 0.0
C5760 C 0.2632 0.91633 0.12896 0.0
C5761 C 0.2598 0.89663 0.12162 0.0
C5762 C 0.27369 0.88769 0.12089 0.0
C5763 C 0.3547 0.86487 0.17793 0.0
C5764 C 0.34453 0.84748 0.18165 0.0
C5765 C 0.348 0.87375 0.16492 0.0
C5766 C 0.33099 0.86548 0.15558 0.0
C5767 C 0.32031 0.84889 0.16004 0.0
C5768 C 0.32708 0.83983 0.17288 0.0
C5769 C 0.32525 0.87282 0.1396 0.0
C5770 C 0.31115 0.88149 0.14086 0.0
C5771 C 0.334 0.87149 0.12323 0.0
C5772 C 0.34875 0.86208 0.12121 0.0
C5773 C 0.3461 0.84263 0.12238 0.0
C5774 C 0.36016 0.83396 0.12086 0.0
C5775 C 0.3769 0.84457 0.11803 0.0
C5776 C 0.3796 0.86386 0.11664 0.0
C5777 C 0.36558 0.87261 0.11817 0.0
H5778 H 0.38777 0.83784 0.11686 0.0
H5779 H 0.25245 0.92326 0.1294 0.0
H5780 H 0.93987 0.5664 0.87586 0.0
H5781 H 0.9557 0.56759 0.90588 0.0
H5782 H 1.00272 0.60412 0.89041 0.0
H5783 H 0.98721 0.60127 0.85957 0.0
H5784 H 0.01025 0.57522 0.89948 0.0
H5785 H 0.97721 0.61878 0.92993 0.0
H5786 H 0.94967 0.62835 0.9364 0.0
H5787 H 0.92929 0.57603 0.95591 0.0
H5788 H 0.9567 0.56617 0.94955 0.0
H5789 H 0.06045 0.58063 0.98495 0.0
H5790 H 0.04451 0.5901 0.96 0.0
H5791 H 0.99692 0.54751 0.96528 0.0
H5792 H 0.01257 0.53788 0.99006 0.0
H5793 H 0.99085 0.5825 0.96316 0.0
H5794 H 0.01956 0.53707 0.9315 0.0
H5795 H 0.04526 0.52396 0.92506 0.0
H5796 H 0.07137 0.57544 0.90692 0.0
H5797 H 0.04589 0.589 0.91355 0.0
C5798 C 0.95339 0.57521 0.87921 0.0
C5799 C 0.96245 0.58381 0.8657 0.0
C5800 C 0.96242 0.57603 0.89641 0.0
C5801 C 0.98035 0.58619 0.90051 0.0
C5802 C 0.98888 0.59622 0.8875 0.0
C5803 C 0.98006 0.59471 0.87001 0.0
C5804 C 0.99093 0.58376 0.9168 0.0
C5805 C 0.00625 0.5774 0.9135 0.0
C5806 C 0.9852 0.58554 0.93488 0.0
C5807 C 0.96896 0.59174 0.93918 0.0
C5808 C 0.96683 0.60933 0.93557 0.0
C5809 C 0.95125 0.61479 0.93921 0.0
C5810 C 0.9377 0.60275 0.94645 0.0
C5811 C 0.93975 0.58529 0.95021 0.0
C5812 C 0.95535 0.57981 0.94669 0.0
C5813 C 0.04665 0.57317 0.98067 0.0
C5814 C 0.03776 0.55848 0.98934 0.0
C5815 C 0.03757 0.57869 0.96658 0.0
C5816 C 0.01963 0.56949 0.96105 0.0
C5817 C 0.01076 0.55482 0.96962 0.0
C5818 C 0.01978 0.54927 0.98364 0.0
C5819 C 0.01016 0.57454 0.94572 0.0
C5820 C 0.99502 0.58101 0.94919 0.0
C5821 C 0.01578 0.57245 0.9277 0.0
C5822 C 0.0309 0.56412 0.92318 0.0
C5823 C 0.03082 0.54564 0.92623 0.0
C5824 C 0.04534 0.53813 0.92255 0.0
C5825 C 0.05996 0.54889 0.91564 0.0
C5826 C 0.06004 0.56714 0.91231 0.0
C5827 C 0.04556 0.57474 0.91601 0.0
H5828 H 0.07121 0.54306 0.91282 0.0
H5829 H 0.92566 0.60702 0.94928 0.0
H5830 H 0.30991 0.20182 0.57503 0.0
H5831 H 0.30849 0.21759 0.60696 0.0
H5832 H 0.31326 0.27154 0.58916 0.0
H5833 H 0.31403 0.25561 0.55666 0.0
H5834 H 0.33652 0.25686 0.6286 0.0
H5835 H 0.28445 0.27436 0.59871 0.0
H5836 H 0.25737 0.26469 0.57646 0.0
H5837 H 0.23676 0.21658 0.60217 0.0
H5838 H 0.26395 0.22577 0.62428 0.0
H5839 H 0.31315 0.30565 0.71695 0.0
H5840 H 0.31253 0.30013 0.6826 0.0
H5841 H 0.29506 0.23896 0.67972 0.0
H5842 H 0.29671 0.24432 0.71384 0.0
H5843 H 0.27854 0.26227 0.65 0.0
H5844 H 0.32741 0.23867 0.67431 0.0
H5845 H 0.35287 0.24253 0.69751 0.0
H5846 H 0.37831 0.29642 0.68329 0.0
H5847 H 0.35271 0.29303 0.66024 0.0
C5848 C 0.31076 0.21708 0.5778 0.0
C5849 C 0.3121 0.22746 0.56322 0.0
C5850 C 0.30988 0.22604 0.59611 0.0
C5851 C 0.31054 0.24564 0.60039 0.0
C5852 C 0.3124 0.25629 0.58606 0.0
C5853 C 0.31294 0.24721 0.56754 0.0
C5854 C 0.30914 0.25456 0.61994 0.0
C5855 C 0.32398 0.25867 0.63318 0.0
C5856 C 0.29261 0.25603 0.62608 0.0
C5857 C 0.27631 0.25056 0.61289 0.0
C5858 C 0.27425 0.26157 0.59942 0.0
C5859 C 0.25887 0.25621 0.58688 0.0
C5860 C 0.24538 0.23998 0.58784 0.0
C5861 C 0.24724 0.22911 0.60139 0.0
C5862 C 0.26264 0.23437 0.6139 0.0
C5863 C 0.3087 0.2911 0.70889 0.0
C5864 C 0.30471 0.27539 0.71795 0.0
C5865 C 0.30843 0.28795 0.68933 0.0
C5866 C 0.30379 0.26912 0.67869 0.0
C5867 C 0.29866 0.25357 0.68768 0.0
C5868 C 0.29955 0.25665 0.70714 0.0
C5869 C 0.30606 0.2653 0.65849 0.0
C5870 C 0.29128 0.26151 0.64528 0.0
C5871 C 0.32255 0.26374 0.65237 0.0
C5872 C 0.33807 0.26578 0.66586 0.0
C5873 C 0.33835 0.25145 0.6763 0.0
C5874 C 0.35279 0.25352 0.68938 0.0
C5875 C 0.36714 0.26976 0.69195 0.0
C5876 C 0.36713 0.28391 0.68135 0.0
C5877 C 0.35264 0.28193 0.6683 0.0
H5878 H 0.37826 0.27129 0.70212 0.0
H5879 H 0.23347 0.23587 0.57814 0.0
H5880 H 0.62335 0.51303 0.22829 0.0
H5881 H 0.60929 0.51631 0.19833 0.0
H5882 H 0.65911 0.52163 0.17517 0.0
H5883 H 0.673 0.51752 0.20464 0.0
H5884 H 0.63894 0.55233 0.17064 0.0
H5885 H 0.63246 0.4843 0.15852 0.0
H5886 H 0.62272 0.45099 0.16335 0.0
H5887 H 0.5684 0.45331 0.15763 0.0
H5888 H 0.57784 0.48682 0.15318 0.0
H5889 H 0.61705 0.54993 0.07318 0.0
H5890 H 0.62774 0.54643 0.10417 0.0
H5891 H 0.57401 0.52299 0.11467 0.0
H5892 H 0.56319 0.5272 0.08355 0.0
H5893 H 0.5947 0.50105 0.12632 0.0
H5894 H 0.60018 0.56891 0.14931 0.0
H5895 H 0.60827 0.60399 0.15097 0.0
H5896 H 0.66076 0.6023 0.13793 0.0
H5897 H 0.65322 0.56732 0.13733 0.0
C5898 C 0.63134 0.51459 0.21678 0.0
C5899 C 0.64949 0.51472 0.21929 0.0
C5900 C 0.62319 0.5165 0.19946 0.0
C5901 C 0.6329 0.51921 0.18397 0.0
C5902 C 0.65102 0.51949 0.18651 0.0
C5903 C 0.65903 0.51702 0.20359 0.0
C5904 C 0.62456 0.52257 0.16557 0.0
C5905 C 0.62947 0.54091 0.16092 0.0
C5906 C 0.61157 0.50818 0.15272 0.0
C5907 C 0.60589 0.48823 0.15589 0.0
C5908 C 0.61846 0.47786 0.15866 0.0
C5909 C 0.61299 0.45891 0.16126 0.0
C5910 C 0.59496 0.45009 0.16095 0.0
C5911 C 0.58236 0.4602 0.158 0.0
C5912 C 0.58777 0.47918 0.15545 0.0
C5913 C 0.60735 0.54453 0.08222 0.0
C5914 C 0.5891 0.53941 0.07562 0.0
C5915 C 0.61357 0.54247 0.10019 0.0
C5916 C 0.60193 0.53451 0.11248 0.0
C5917 C 0.58358 0.5293 0.10594 0.0
C5918 C 0.57728 0.53192 0.08802 0.0
C5919 C 0.60917 0.53087 0.13135 0.0
C5920 C 0.60415 0.51246 0.13605 0.0
C5921 C 0.62186 0.54521 0.1445 0.0
C5922 C 0.62604 0.56557 0.14285 0.0
C5923 C 0.61338 0.57603 0.14658 0.0
C5924 C 0.61795 0.5959 0.14762 0.0
C5925 C 0.63494 0.60533 0.14427 0.0
C5926 C 0.64754 0.59495 0.14032 0.0
C5927 C 0.6432 0.57514 0.13985 0.0
H5928 H 0.63837 0.6207 0.14488 0.0
H5929 H 0.59074 0.43538 0.16285 0.0
H5930 H 0.33578 0.88443 0.96599 0.0
H5931 H 0.33753 0.87089 0.93342 0.0
H5932 H 0.29323 0.89172 0.91647 0.0
H5933 H 0.29152 0.90571 0.94919 0.0
H5934 H 0.29044 0.85072 0.9056 0.0
H5935 H 0.3305 0.91253 0.90571 0.0
H5936 H 0.35679 0.93971 0.91687 0.0
H5937 H 0.39075 0.90181 0.90606 0.0
H5938 H 0.36465 0.87432 0.89515 0.0
H5939 H 0.28536 0.82375 0.80951 0.0
H5940 H 0.28808 0.84171 0.84127 0.0
H5941 H 0.3389 0.83039 0.85266 0.0
H5942 H 0.33649 0.81269 0.82043 0.0
H5943 H 0.33981 0.86689 0.86673 0.0
H5944 H 0.30343 0.80573 0.87114 0.0
H5945 H 0.27905 0.77615 0.8623 0.0
H5946 H 0.24094 0.80975 0.86662 0.0
H5947 H 0.26513 0.83955 0.8758 0.0
C5948 C 0.32639 0.88615 0.95534 0.0
C5949 C 0.31331 0.89583 0.96003 0.0
C5950 C 0.3276 0.87866 0.93679 0.0
C5951 C 0.31566 0.88061 0.92276 0.0
C5952 C 0.30265 0.89037 0.92729 0.0
C5953 C 0.3016 0.89816 0.94588 0.0
C5954 C 0.31542 0.87038 0.90365 0.0
C5955 C 0.30105 0.85445 0.89692 0.0
C5956 C 0.32985 0.87477 0.89302 0.0
C5957 C 0.34556 0.8913 0.89981 0.0
C5958 C 0.34355 0.90993 0.90593 0.0
C5959 C 0.35843 0.92541 0.91216 0.0
C5960 C 0.37543 0.92248 0.91223 0.0
C5961 C 0.37758 0.90406 0.90604 0.0
C5962 C 0.36274 0.88852 0.89982 0.0
C5963 C 0.29703 0.82487 0.8188 0.0
C5964 C 0.31061 0.81661 0.81269 0.0
C5965 C 0.29857 0.83515 0.83692 0.0
C5966 C 0.31353 0.83701 0.8493 0.0
C5967 C 0.32723 0.82896 0.84323 0.0
C5968 C 0.32579 0.81881 0.82494 0.0
C5969 C 0.31464 0.84744 0.86858 0.0
C5970 C 0.32918 0.86324 0.8754 0.0
C5971 C 0.30067 0.84264 0.87966 0.0
C5972 C 0.28607 0.82484 0.87401 0.0
C5973 C 0.28984 0.80681 0.87012 0.0
C5974 C 0.27607 0.79001 0.86515 0.0
C5975 C 0.25846 0.79107 0.86379 0.0
C5976 C 0.25459 0.80895 0.86763 0.0
C5977 C 0.26832 0.82579 0.87285 0.0
H5978 H 0.24781 0.77804 0.8598 0.0
H5979 H 0.38693 0.93449 0.91703 0.0
H5980 H 0.9204 0.54812 0.74814 0.0
H5981 H 0.93421 0.54243 0.71922 0.0
H5982 H 0.98055 0.58803 0.74331 0.0
H5983 H 0.96696 0.59376 0.77227 0.0
H5984 H 0.96812 0.58781 0.70593 0.0
H5985 H 0.98234 0.5452 0.74499 0.0
H5986 H 0.97507 0.51955 0.76324 0.0
H5987 H 0.9458 0.48014 0.71445 0.0
H5988 H 0.95271 0.50567 0.69596 0.0
H5989 H 0.04426 0.57068 0.66675 0.0
H5990 H 0.02085 0.57629 0.68617 0.0
H5991 H 0.98316 0.5281 0.65067 0.0
H5992 H 0.00653 0.52256 0.63107 0.0
H5993 H 0.98612 0.52692 0.68949 0.0
H5994 H 0.96654 0.56944 0.65243 0.0
H5995 H 0.9674 0.59637 0.63607 0.0
H5996 H 1.00466 0.63461 0.68023 0.0
H5997 H 1.00359 0.60797 0.69707 0.0
C5998 C 0.93334 0.55725 0.74708 0.0
C5999 C 0.94266 0.57139 0.76236 0.0
C6000 C 0.94123 0.55384 0.73069 0.0
C6001 C 0.95838 0.56467 0.72943 0.0
C6002 C 0.96728 0.57954 0.74422 0.0
C6003 C 0.95951 0.58282 0.76066 0.0
C6004 C 0.96744 0.56031 0.71293 0.0
C6005 C 0.97212 0.57452 0.70234 0.0
C6006 C 0.97204 0.5427 0.70804 0.0
C6007 C 0.96781 0.52741 0.71917 0.0
C6008 C 0.97418 0.53113 0.73821 0.0
C6009 C 0.97017 0.5166 0.74858 0.0
C6010 C 0.95991 0.49825 0.74003 0.0
C6011 C 0.9537 0.49438 0.72107 0.0
C6012 C 0.95766 0.50887 0.71063 0.0
C6013 C 0.03099 0.56129 0.66319 0.0
C6014 C 0.02714 0.54601 0.64774 0.0
C6015 C 0.01761 0.56469 0.67402 0.0
C6016 C 1.00034 0.55272 0.6696 0.0
C6017 C 0.99642 0.53755 0.65408 0.0
C6018 C 0.00974 0.53432 0.64308 0.0
C6019 C 0.98715 0.55466 0.68271 0.0
C6020 C 0.98179 0.54002 0.69281 0.0
C6021 C 0.98184 0.57182 0.6872 0.0
C6022 C 0.98516 0.58677 0.67581 0.0
C6023 C 0.97516 0.58353 0.65844 0.0
C6024 C 0.97545 0.59878 0.64925 0.0
C6025 C 0.98591 0.6172 0.65724 0.0
C6026 C 0.99645 0.62035 0.67417 0.0
C6027 C 0.99598 0.60521 0.68355 0.0
H6028 H 0.98588 0.62902 0.65028 0.0
H6029 H 0.95683 0.48701 0.74808 0.0
H6030 H 0.283 0.23589 0.45714 0.0
H6031 H 0.28394 0.24318 0.42584 0.0
H6032 H 0.33261 0.22593 0.42067 0.0
H6033 H 0.33168 0.21834 0.45208 0.0
H6034 H 0.33308 0.26004 0.40749 0.0
H6035 H 0.29609 0.19557 0.39907 0.0
H6036 H 0.27139 0.16961 0.40466 0.0
H6037 H 0.23401 0.1998 0.38877 0.0
H6038 H 0.25853 0.22607 0.38331 0.0
H6039 H 0.3049 0.23479 0.30041 0.0
H6040 H 0.30806 0.22577 0.33107 0.0
H6041 H 0.30268 0.28112 0.3582 0.0
H6042 H 0.29913 0.29001 0.32789 0.0
H6043 H 0.28281 0.22581 0.3591 0.0
H6044 H 0.32738 0.29605 0.38718 0.0
H6045 H 0.35326 0.32041 0.38097 0.0
H6046 H 0.37641 0.27559 0.35639 0.0
H6047 H 0.35051 0.25102 0.36224 0.0
C6048 C 0.29402 0.2338 0.44947 0.0
C6049 C 0.30727 0.2265 0.45715 0.0
C6050 C 0.29447 0.23789 0.43151 0.0
C6051 C 0.30823 0.23491 0.42083 0.0
C6052 C 0.32183 0.22827 0.42866 0.0
C6053 C 0.32128 0.22394 0.44659 0.0
C6054 C 0.30813 0.23839 0.4014 0.0
C6055 C 0.32211 0.25246 0.39694 0.0
C6056 C 0.2939 0.22849 0.38748 0.0
C6057 C 0.27915 0.21287 0.39099 0.0
C6058 C 0.28261 0.19676 0.39696 0.0
C6059 C 0.26864 0.18197 0.40005 0.0
C6060 C 0.25114 0.18308 0.39713 0.0
C6061 C 0.24757 0.19898 0.39106 0.0
C6062 C 0.2615 0.21381 0.38795 0.0
C6063 C 0.3044 0.24499 0.31293 0.0
C6064 C 0.30216 0.26325 0.31176 0.0
C6065 C 0.3063 0.23989 0.3304 0.0
C6066 C 0.30608 0.253 0.3469 0.0
C6067 C 0.30345 0.27103 0.34569 0.0
C6068 C 0.30143 0.27607 0.32832 0.0
C6069 C 0.30754 0.2476 0.36542 0.0
C6070 C 0.29379 0.23325 0.3697 0.0
C6071 C 0.32192 0.25717 0.37914 0.0
C6072 C 0.3371 0.27181 0.37509 0.0
C6073 C 0.338 0.29145 0.38042 0.0
C6074 C 0.35265 0.30527 0.37697 0.0
C6075 C 0.36653 0.29954 0.36842 0.0
C6076 C 0.36567 0.28 0.36306 0.0
C6077 C 0.35099 0.26613 0.36634 0.0
H6078 H 0.37789 0.31026 0.36582 0.0
H6079 H 0.24035 0.17161 0.39951 0.0
H6080 H 0.32874 0.59051 0.52345 0.0
H6081 H 0.35687 0.58189 0.52359 0.0
H6082 H 0.38103 0.63356 0.504 0.0
H6083 H 0.35261 0.64196 0.50319 0.0
H6084 H 0.39111 0.60584 0.48591 0.0
H6085 H 0.39126 0.6292 0.5495 0.0
H6086 H 0.38044 0.63474 0.58045 0.0
H6087 H 0.37368 0.57521 0.58292 0.0
H6088 H 0.3842 0.56922 0.55183 0.0
H6089 H 0.4703 0.5751 0.49564 0.0
H6090 H 0.45021 0.59548 0.50366 0.0
H6091 H 0.40968 0.54582 0.51006 0.0
H6092 H 0.42988 0.52536 0.50252 0.0
H6093 H 0.41344 0.58038 0.53851 0.0
H6094 H 0.40974 0.5598 0.46955 0.0
H6095 H 0.42436 0.55851 0.44051 0.0
H6096 H 0.44264 0.62016 0.4519 0.0
H6097 H 0.42832 0.62177 0.48114 0.0
C6098 C 0.34002 0.59999 0.51907 0.0
C6099 C 0.33851 0.61685 0.51323 0.0
C6100 C 0.35614 0.59518 0.5194 0.0
C6101 C 0.37114 0.60734 0.51426 0.0
C6102 C 0.36963 0.62407 0.50816 0.0
C6103 C 0.35339 0.62878 0.5076 0.0
C6104 C 0.38803 0.60176 0.51418 0.0
C6105 C 0.39621 0.60073 0.49761 0.0
C6106 C 0.3949 0.59536 0.52953 0.0
C6107 C 0.38844 0.59874 0.54823 0.0
C6108 C 0.38733 0.61724 0.55656 0.0
C6109 C 0.38128 0.62047 0.57415 0.0
C6110 C 0.37635 0.60533 0.58364 0.0
C6111 C 0.3775 0.58693 0.57555 0.0
C6112 C 0.38354 0.58361 0.55794 0.0
C6113 C 0.45714 0.56855 0.4989 0.0
C6114 C 0.45152 0.54862 0.49826 0.0
C6115 C 0.44576 0.58021 0.50352 0.0
C6116 C 0.42856 0.57206 0.50741 0.0
C6117 C 0.423 0.55228 0.50715 0.0
C6118 C 0.43439 0.5406 0.50254 0.0
C6119 C 0.41573 0.58373 0.51004 0.0
C6120 C 0.40844 0.58594 0.52708 0.0
C6121 C 0.4101 0.59191 0.49542 0.0
C6122 C 0.41808 0.59089 0.47753 0.0
C6123 C 0.41692 0.57306 0.46586 0.0
C6124 C 0.42516 0.57228 0.44939 0.0
C6125 C 0.43446 0.58925 0.44439 0.0
C6126 C 0.43546 0.60704 0.45581 0.0
C6127 C 0.42727 0.60789 0.47231 0.0
H6128 H 0.44087 0.58862 0.43165 0.0
H6129 H 0.37168 0.60787 0.59727 0.0
H6130 H 0.8814 0.91154 0.5331 0.0
H6131 H 0.91161 0.93108 0.53361 0.0
H6132 H 0.89493 0.98244 0.55343 0.0
H6133 H 0.86451 0.96295 0.55282 0.0
H6134 H 0.91627 0.9873 0.5259 0.0
H6135 H 0.91791 0.96374 0.58266 0.0
H6136 H 0.9141 0.93976 0.60291 0.0
H6137 H 0.95066 0.91317 0.57385 0.0
H6138 H 0.95439 0.93672 0.55314 0.0
H6139 H 1.00509 0.04697 0.55069 0.0
H6140 H 0.97459 0.02962 0.55299 0.0
H6141 H 0.9858 0.97629 0.52844 0.0
H6142 H 0.01613 0.99356 0.52563 0.0
H6143 H 0.96717 0.97396 0.56003 0.0
H6144 H 0.96394 0.99569 0.5021 0.0
H6145 H 0.96844 0.01971 0.48189 0.0
H6146 H 0.93536 0.04964 0.51329 0.0
H6147 H 0.93094 0.02596 0.53393 0.0
C6148 C 0.8841 0.92699 0.53758 0.0
C6149 C 0.87048 0.93565 0.54295 0.0
C6150 C 0.90144 0.93815 0.53796 0.0
C6151 C 0.90563 0.95823 0.54378 0.0
C6152 C 0.89204 0.96697 0.54894 0.0
C6153 C 0.87466 0.95579 0.54862 0.0
C6154 C 0.92414 0.97003 0.54418 0.0
C6155 C 0.92736 0.98459 0.53364 0.0
C6156 C 0.9387 0.96626 0.55393 0.0
C6157 C 0.93626 0.95188 0.56619 0.0
C6158 C 0.92497 0.95264 0.58043 0.0
C6159 C 0.92285 0.93914 0.59202 0.0
C6160 C 0.93207 0.92491 0.58963 0.0
C6161 C 0.94346 0.92416 0.57565 0.0
C6162 C 0.94558 0.93757 0.56397 0.0
C6163 C 1.00112 0.03161 0.54571 0.0
C6164 C 0.01312 0.02181 0.53776 0.0
C6165 C 0.98364 0.02168 0.54705 0.0
C6166 C 0.97788 1.00167 0.54075 0.0
C6167 C 0.98994 0.99174 0.53334 0.0
C6168 C 0.00731 1.0017 0.53171 0.0
C6169 C 0.95924 0.99104 0.54167 0.0
C6170 C 0.95603 0.97672 0.55243 0.0
C6171 C 0.94471 0.99499 0.5321 0.0
C6172 C 0.9473 0.00921 0.51971 0.0
C6173 C 0.95778 1.00751 0.50482 0.0
C6174 C 0.96028 0.02104 0.49326 0.0
C6175 C 0.95223 0.03623 0.49634 0.0
C6176 C 0.94162 0.03789 0.51095 0.0
C6177 C 0.93911 0.02442 0.52259 0.0
H6178 H 0.95418 0.04669 0.48737 0.0
H6179 H 0.93044 0.9145 0.59864 0.0
H6180 H 0.87311 0.10264 0.24447 0.0
H6181 H 0.85855 0.1288 0.24644 0.0
H6182 H 0.90597 0.16839 0.27685 0.0
H6183 H 0.91983 0.14167 0.2764 0.0
H6184 H 0.88444 0.18373 0.28907 0.0
H6185 H 0.88469 0.16135 0.2229 0.0
H6186 H 0.87841 0.13784 0.19303 0.0
H6187 H 0.82269 0.12527 0.19902 0.0
H6188 H 0.82867 0.14858 0.22898 0.0
H6189 H 0.8422 0.24944 0.23359 0.0
H6190 H 0.85375 0.22154 0.23455 0.0
H6191 H 0.84023 0.22208 0.29087 0.0
H6192 H 0.8289 0.25069 0.28999 0.0
H6193 H 0.84429 0.18701 0.23552 0.0
H6194 H 0.86246 0.20045 0.31431 0.0
H6195 H 0.87275 0.22768 0.34114 0.0
H6196 H 0.89855 0.26342 0.30487 0.0
H6197 H 0.88828 0.23643 0.27785 0.0
C6198 C 0.88053 0.1169 0.25163 0.0
C6199 C 0.89792 0.11961 0.26016 0.0
C6200 C 0.87216 0.13228 0.25253 0.0
C6201 C 0.88096 0.15156 0.26122 0.0
C6202 C 0.89836 0.15415 0.2699 0.0
C6203 C 0.90651 0.13862 0.26955 0.0
C6204 C 0.87226 0.16873 0.26145 0.0
C6205 C 0.87566 0.18411 0.2772 0.0
C6206 C 0.86075 0.17048 0.24623 0.0
C6207 C 0.85715 0.15652 0.22825 0.0
C6208 C 0.87112 0.15349 0.21787 0.0
C6209 C 0.86761 0.14022 0.20093 0.0
C6210 C 0.85017 0.13002 0.19417 0.0
C6211 C 0.83619 0.13314 0.20429 0.0
C6212 C 0.83963 0.14639 0.22124 0.0
C6213 C 0.84146 0.24363 0.24624 0.0
C6214 C 0.83426 0.25262 0.26159 0.0
C6215 C 0.84819 0.22738 0.24677 0.0
C6216 C 0.84839 0.21915 0.26284 0.0
C6217 C 0.84087 0.22791 0.27825 0.0
C6218 C 0.83404 0.24432 0.27769 0.0
C6219 C 0.85647 0.20173 0.26304 0.0
C6220 C 0.85299 0.1864 0.24738 0.0
C6221 C 0.86836 0.20037 0.27799 0.0
C6222 C 0.87455 0.21651 0.29414 0.0
C6223 C 0.87036 0.21412 0.31212 0.0
C6224 C 0.87614 0.22951 0.32732 0.0
C6225 C 0.88628 0.24727 0.32471 0.0
C6226 C 0.89064 0.24968 0.30687 0.0
C6227 C 0.88479 0.23438 0.29161 0.0
H6228 H 0.89077 0.25915 0.3365 0.0
H6229 H 0.84749 0.11974 0.18106 0.0
H6230 H 0.73763 0.15175 0.02024 0.0
H6231 H 0.70669 0.13868 0.02471 0.0
H6232 H 0.71514 0.08192 0.01903 0.0
H6233 H 0.74631 0.09486 0.01485 0.0
H6234 H 0.68338 0.08935 0.9965 0.0
H6235 H 0.71657 0.1036 0.05977 0.0
H6236 H 0.73609 0.12736 0.08545 0.0
H6237 H 0.6983 0.16134 0.0894 0.0
H6238 H 0.6787 0.13797 0.06352 0.0
H6239 H 0.60919 0.03126 0.01557 0.0
H6240 H 0.64103 0.04712 0.02108 0.0
H6241 H 0.62989 0.10051 0.04547 0.0
H6242 H 0.59817 0.08453 0.041 0.0
H6243 H 0.6625 0.0988 0.05958 0.0
H6244 H 0.63236 0.09541 1.00195 0.0
H6245 H 0.6111 0.08174 0.97383 0.0
H6246 H 0.63962 0.03963 0.95659 0.0
H6247 H 0.66151 0.05344 0.98437 0.0
C6248 C 0.73287 0.13643 0.01968 0.0
C6249 C 0.74432 0.12425 0.01724 0.0
C6250 C 0.71529 0.12909 0.0224 0.0
C6251 C 0.70898 0.10953 0.02246 0.0
C6252 C 0.72007 0.09715 0.01917 0.0
C6253 C 0.73774 0.10451 0.01672 0.0
C6254 C 0.69066 0.1018 0.02572 0.0
C6255 C 0.67887 0.09108 0.01031 0.0
C6256 C 0.68468 0.10556 0.04354 0.0
C6257 C 0.69623 0.11909 0.05961 0.0
C6258 C 0.71247 0.11619 0.06604 0.0
C6259 C 0.72355 0.12959 0.08064 0.0
C6260 C 0.71846 0.14587 0.08903 0.0
C6261 C 0.70224 0.14873 0.08289 0.0
C6262 C 0.69113 0.1354 0.06828 0.0
C6263 C 0.61367 0.04619 0.02265 0.0
C6264 C 0.60153 0.05678 0.02788 0.0
C6265 C 0.63169 0.05516 0.02578 0.0
C6266 C 0.63758 0.07496 0.03317 0.0
C6267 C 0.62552 0.08521 0.03975 0.0
C6268 C 0.60747 0.07611 0.03708 0.0
C6269 C 0.65554 0.08528 0.0305 0.0
C6270 C 0.66712 0.09679 0.04584 0.0
C6271 C 0.66113 0.08353 0.01238 0.0
C6272 C 0.64839 0.07526 0.99537 0.0
C6273 C 0.63409 0.08318 0.99216 0.0
C6274 C 0.62199 0.07547 0.97621 0.0
C6275 C 0.62402 0.05977 0.96338 0.0
C6276 C 0.63822 0.05187 0.96644 0.0
C6277 C 0.65052 0.05968 0.98225 0.0
H6278 H 0.61465 0.05372 0.95103 0.0
H6279 H 0.72707 0.15624 0.1003 0.0
H6280 H 0.20266 0.48688 0.25407 0.0
H6281 H 0.20765 0.45536 0.25507 0.0
H6282 H 0.26165 0.47585 0.24301 0.0
H6283 H 0.25641 0.50701 0.24101 0.0
H6284 H 0.24782 0.44147 0.22358 0.0
H6285 H 0.24988 0.47349 0.28813 0.0
H6286 H 0.23809 0.48934 0.3154 0.0
H6287 H 0.19498 0.43892 0.3109 0.0
H6288 H 0.2064 0.42288 0.28344 0.0
H6289 H 0.30325 0.40284 0.27387 0.0
H6290 H 0.28541 0.41808 0.25601 0.0
H6291 H 0.23762 0.37915 0.26696 0.0
H6292 H 0.25564 0.3642 0.28529 0.0
H6293 H 0.23991 0.41558 0.28163 0.0
H6294 H 0.246 0.38169 0.2216 0.0
H6295 H 0.26129 0.3676 0.1964 0.0
H6296 H 0.29375 0.42374 0.1948 0.0
H6297 H 0.27889 0.43817 0.22022 0.0
C6298 C 0.21559 0.48459 0.2517 0.0
C6299 C 0.22924 0.49919 0.24757 0.0
C6300 C 0.21839 0.46665 0.25222 0.0
C6301 C 0.23502 0.46343 0.24922 0.0
C6302 C 0.24867 0.47809 0.24519 0.0
C6303 C 0.24574 0.49585 0.24421 0.0
C6304 C 0.23859 0.44502 0.25085 0.0
C6305 C 0.24612 0.43571 0.23624 0.0
C6306 C 0.23575 0.43734 0.26716 0.0
C6307 C 0.22883 0.4471 0.28357 0.0
C6308 C 0.23779 0.46586 0.29285 0.0
C6309 C 0.2312 0.47487 0.30836 0.0
C6310 C 0.21576 0.46518 0.31483 0.0
C6311 C 0.2069 0.44644 0.30583 0.0
C6312 C 0.21342 0.43739 0.2903 0.0
C6313 C 0.28895 0.39727 0.27192 0.0
C6314 C 0.28057 0.3828 0.28101 0.0
C6315 C 0.27879 0.40572 0.26153 0.0
C6316 C 0.26022 0.39958 0.26009 0.0
C6317 C 0.25194 0.3839 0.26786 0.0
C6318 C 0.26214 0.37554 0.27838 0.0
C6319 C 0.24996 0.41242 0.25469 0.0
C6320 C 0.24108 0.4208 0.26864 0.0
C6321 C 0.25215 0.41959 0.23805 0.0
C6322 C 0.26126 0.411 0.22282 0.0
C6323 C 0.25647 0.39103 0.21597 0.0
C6324 C 0.26506 0.38298 0.20164 0.0
C6325 C 0.27843 0.39477 0.19398 0.0
C6326 C 0.28334 0.41464 0.20071 0.0
C6327 C 0.27481 0.42276 0.21506 0.0
H6328 H 0.28494 0.38849 0.1828 0.0
H6329 H 0.21068 0.47216 0.32685 0.0
H6330 H 0.28381 0.4619 0.06288 0.0
H6331 H 0.25837 0.47545 0.06113 0.0
H6332 H 0.23135 0.42734 0.01745 0.0
H6333 H 0.2572 0.41411 0.01862 0.0
H6334 H 0.22521 0.45705 0.00858 0.0
H6335 H 0.21973 0.43313 0.06442 0.0
H6336 H 0.22819 0.42732 0.09548 0.0
H6337 H 0.23946 0.48779 0.11845 0.0
H6338 H 0.23129 0.49399 0.08745 0.0
H6339 H 0.14655 0.49102 0.01541 0.0
H6340 H 0.16604 0.46972 0.01865 0.0
H6341 H 0.20535 0.51741 0.05275 0.0
H6342 H 0.18602 0.5386 0.04955 0.0
H6343 H 0.20141 0.48327 0.06606 0.0
H6344 H 0.20793 0.50508 0.00659 0.0
H6345 H 0.19614 0.50776 0.97541 0.0
H6346 H 0.17883 0.44619 0.95944 0.0
H6347 H 0.19031 0.44317 0.99064 0.0
C6348 C 0.27248 0.4542 0.05285 0.0
C6349 C 0.27257 0.43691 0.04087 0.0
C6350 C 0.25781 0.46188 0.05199 0.0
C6351 C 0.24266 0.45225 0.03945 0.0
C6352 C 0.24279 0.43506 0.02732 0.0
C6353 C 0.2576 0.42749 0.02799 0.0
C6354 C 0.22701 0.46052 0.03862 0.0
C6355 C 0.21983 0.46241 0.02118 0.0
C6356 C 0.2198 0.46758 0.05496 0.0
C6357 C 0.22506 0.46403 0.07357 0.0
C6358 C 0.22419 0.44521 0.07605 0.0
C6359 C 0.22889 0.44184 0.09366 0.0
C6360 C 0.2344 0.45718 0.10892 0.0
C6361 C 0.23521 0.47592 0.10661 0.0
C6362 C 0.23053 0.47937 0.08903 0.0
C6363 C 0.15924 0.49683 0.02382 0.0
C6364 C 0.16491 0.5165 0.03203 0.0
C6365 C 0.17038 0.4847 0.02559 0.0
C6366 C 0.18725 0.49206 0.03573 0.0
C6367 C 0.19244 0.51145 0.04478 0.0
C6368 C 0.18144 0.52356 0.04287 0.0
C6369 C 0.20008 0.48011 0.03619 0.0
C6370 C 0.20672 0.4776 0.05354 0.0
C6371 C 0.20645 0.47203 0.01976 0.0
C6372 C 0.19981 0.47391 1.00098 0.0
C6373 C 0.20151 0.49213 0.99646 0.0
C6374 C 0.19489 0.4937 0.97879 0.0
C6375 C 0.1867 0.47715 0.96547 0.0
C6376 C 0.18515 0.45899 0.96978 0.0
C6377 C 0.19172 0.45734 0.98744 0.0
H6378 H 0.18158 0.4784 0.95179 0.0
H6379 H 0.23801 0.45454 0.12254 0.0
H6380 H 0.87933 0.01786 0.25871 0.0
H6381 H 0.8624 0.98441 0.25765 0.0
H6382 H 0.90981 0.97132 0.27834 0.0
H6383 H 0.92659 1.00421 0.27931 0.0
H6384 H 0.89382 0.94252 0.25268 0.0
H6385 H 0.8737 0.97699 0.3054 0.0
H6386 H 0.86027 1.0012 0.32251 0.0
H6387 H 0.81164 0.9767 0.28646 0.0
H6388 H 0.82488 0.95252 0.26894 0.0
H6389 H 0.85616 0.8522 0.27822 0.0
H6390 H 0.8709 0.88561 0.27772 0.0
H6391 H 0.82149 0.89403 0.25636 0.0
H6392 H 0.80663 0.86051 0.25691 0.0
H6393 H 0.83752 0.92507 0.28092 0.0
H6394 H 0.85787 0.88934 0.22914 0.0
H6395 H 0.87178 0.86523 0.21269 0.0
H6396 H 0.92068 0.89217 0.24767 0.0
H6397 H 0.90697 0.91626 0.26458 0.0
C6398 C 0.88616 1.00792 0.26314 0.0
C6399 C 0.90452 0.01423 0.26919 0.0
C6400 C 0.87639 0.98862 0.26259 0.0
C6401 C 0.88458 0.97485 0.26804 0.0
C6402 C 0.90288 0.98121 0.27397 0.0
C6403 C 0.91255 1.00036 0.27461 0.0
C6404 C 0.87452 0.9539 0.26748 0.0
C6405 C 0.88161 0.93885 0.25908 0.0
C6406 C 0.85827 0.94849 0.27536 0.0
C6407 C 0.85036 0.96313 0.2857 0.0
C6408 C 0.8602 0.9769 0.301 0.0
C6409 C 0.85261 0.99059 0.3108 0.0
C6410 C 0.83514 0.99053 0.30553 0.0
C6411 C 0.8252 0.97676 0.29048 0.0
C6412 C 0.83274 0.96307 0.28061 0.0
C6413 C 0.8483 0.86102 0.27334 0.0
C6414 C 0.82995 0.85322 0.26769 0.0
C6415 C 0.85689 0.88035 0.27296 0.0
C6416 C 0.84759 0.89281 0.26676 0.0
C6417 C 0.82923 0.88509 0.26124 0.0
C6418 C 0.82063 0.8657 0.26157 0.0
C6419 C 0.85689 0.91371 0.26623 0.0
C6420 C 0.84969 0.92874 0.27443 0.0
C6421 C 0.87312 0.91911 0.25826 0.0
C6422 C 0.88132 0.90449 0.24827 0.0
C6423 C 0.87154 0.89002 0.23346 0.0
C6424 C 0.87939 0.87636 0.22403 0.0
C6425 C 0.89709 0.87713 0.22917 0.0
C6426 C 0.90696 0.89157 0.24374 0.0
C6427 C 0.89915 0.90522 0.25325 0.0
H6428 H 0.90316 0.86658 0.22182 0.0
H6429 H 0.82928 1.00113 0.31315 0.0
H6430 H 0.7432 0.10238 0.78765 0.0
H6431 H 0.75835 0.13649 0.79119 0.0
H6432 H 0.71402 0.14511 0.75899 0.0
H6433 H 0.69844 0.11118 0.75602 0.0
H6434 H 0.75482 0.14809 0.74665 0.0
H6435 H 0.71555 0.1692 0.78957 0.0
H6436 H 0.70067 0.17064 0.81836 0.0
H6437 H 0.75116 0.19178 0.85138 0.0
H6438 H 0.76641 0.18987 0.82287 0.0
H6439 H 0.77153 0.25452 0.75993 0.0
H6440 H 0.75861 0.21989 0.75351 0.0
H6441 H 0.80713 0.21174 0.77778 0.0
H6442 H 0.82066 0.24656 0.78278 0.0
H6443 H 0.76545 0.20811 0.79436 0.0
H6444 H 0.80428 0.18096 0.7535 0.0
H6445 H 0.81976 0.17388 0.72572 0.0
H6446 H 0.77135 0.16378 0.69013 0.0
H6447 H 0.75556 0.17054 0.7178 0.0
C6448 C 0.73643 0.11176 0.782 0.0
C6449 C 0.71978 0.10436 0.77151 0.0
C6450 C 0.74502 0.13114 0.7841 0.0
C6451 C 0.7371 0.14308 0.77549 0.0
C6452 C 0.72003 0.136 0.76601 0.0
C6453 C 0.71123 0.11671 0.7643 0.0
C6454 C 0.74812 0.16144 0.77301 0.0
C6455 C 0.75699 0.16135 0.75693 0.0
C6456 C 0.75127 0.17825 0.78684 0.0
C6457 C 0.74213 0.17896 0.80405 0.0
C6458 C 0.72351 0.17372 0.80298 0.0
C6459 C 0.71501 0.17472 0.81928 0.0
C6460 C 0.72499 0.18118 0.83674 0.0
C6461 C 0.74347 0.18667 0.8379 0.0
C6462 C 0.75205 0.18559 0.82168 0.0
C6463 C 0.77986 0.24519 0.76248 0.0
C6464 C 0.79726 0.25285 0.77095 0.0
C6465 C 0.77247 0.22548 0.75896 0.0
C6466 C 0.78212 0.21339 0.76481 0.0
C6467 C 0.79978 0.2209 0.77263 0.0
C6468 C 0.80738 0.24067 0.77567 0.0
C6469 C 0.77206 0.19481 0.76789 0.0
C6470 C 0.76329 0.19485 0.78409 0.0
C6471 C 0.76907 0.1779 0.75425 0.0
C6472 C 0.77887 0.1766 0.73763 0.0
C6473 C 0.79704 0.17761 0.73973 0.0
C6474 C 0.80579 0.17333 0.72403 0.0
C6475 C 0.79653 0.16834 0.70617 0.0
C6476 C 0.7785 0.16763 0.70397 0.0
C6477 C 0.76965 0.17165 0.71964 0.0
H6478 H 0.80336 0.16512 0.69403 0.0
H6479 H 0.7184 0.18204 0.84935 0.0
loop_
_geom_bond_atom_site_label_1
_geom_bond_atom_site_label_2
_geom_bond_distance
_geom_bond_site_symmetry_2
_ccdc_geom_bond_type
O0 Cd1 2.223 . S
O0 C8 1.315 . S
Cd1 O0 2.223 . S
Cd1 O4 2.297 . S
Cd1 O5 2.439 . S
Cd1 O11 2.240 . S
Cd2 O3 2.240 . S
Cd2 O10 2.223 . S
Cd2 O12 2.297 . S
Cd2 O13 2.439 . S
O3 Cd2 2.240 . S
O3 C8 1.279 . S
O4 Cd1 2.297 . S
O4 C6 1.247 . S
O5 Cd1 2.439 . S
O5 C6 1.208 . S
C6 O4 1.247 . S
C6 O5 1.208 . S
C7 O12 1.247 . S
C7 O13 1.208 . S
C8 O0 1.315 . S
C8 O3 1.279 . S
C9 O10 1.315 . S
C9 O11 1.279 . S
O10 Cd2 2.223 . S
O10 C9 1.315 . S
O11 Cd1 2.240 . S
O11 C9 1.279 . S
O12 Cd2 2.297 . S
O12 C7 1.247 . S
O13 Cd2 2.439 . S
O13 C7 1.208 . S
O14 Cd15 2.238 . S
O14 C22 1.319 . S
Cd15 O14 2.238 . S
Cd15 O18 2.297 . S
Cd15 O19 2.439 . S
Cd15 O25 2.240 1_655 S
Cd16 O17 2.240 1_455 S
Cd16 O24 2.223 . S
Cd16 O26 2.297 . S
Cd16 O27 2.458 . S
O17 Cd16 2.240 1_655 S
O17 C22 1.279 . S
O18 Cd15 2.297 . S
O18 C20 1.247 . S
O19 Cd15 2.439 . S
O19 C20 1.208 . S
C20 O18 1.247 . S
C20 O19 1.208 . S
C21 O26 1.247 . S
C21 O27 1.230 . S
C22 O14 1.319 . S
C22 O17 1.279 . S
C23 O24 1.315 . S
C23 O25 1.279 . S
O24 Cd16 2.223 . S
O24 C23 1.315 . S
O25 Cd15 2.240 1_455 S
O25 C23 1.279 . S
O26 Cd16 2.297 . S
O26 C21 1.247 . S
O27 Cd16 2.458 . S
O27 C21 1.230 . S
O28 Cd29 2.223 . S
O28 C36 1.315 . S
Cd29 O28 2.223 . S
Cd29 O32 2.297 . S
Cd29 O33 2.439 . S
Cd29 O39 2.240 . S
Cd30 O31 2.240 . S
Cd30 O38 2.223 . S
Cd30 O40 2.297 . S
Cd30 O41 2.439 . S
O31 Cd30 2.240 . S
O31 C36 1.279 . S
O32 Cd29 2.297 . S
O32 C34 1.247 . S
O33 Cd29 2.439 . S
O33 C34 1.208 . S
C34 O32 1.247 . S
C34 O33 1.208 . S
C35 O40 1.247 . S
C35 O41 1.208 . S
C36 O28 1.315 . S
C36 O31 1.279 . S
C37 O38 1.315 . S
C37 O39 1.279 . S
O38 Cd30 2.223 . S
O38 C37 1.315 . S
O39 Cd29 2.240 . S
O39 C37 1.279 . S
O40 Cd30 2.297 . S
O40 C35 1.247 . S
O41 Cd30 2.439 . S
O41 C35 1.208 . S
O42 Cd43 2.223 . S
O42 C50 1.315 . S
Cd43 O42 2.223 . S
Cd43 O46 2.297 . S
Cd43 O47 2.439 . S
Cd43 O53 2.240 . S
Cd44 O45 2.240 . S
Cd44 O52 2.223 . S
Cd44 O54 2.297 . S
Cd44 O55 2.439 . S
O45 Cd44 2.240 . S
O45 C50 1.279 . S
O46 Cd43 2.297 . S
O46 C48 1.247 . S
O47 Cd43 2.439 . S
O47 C48 1.208 . S
C48 O46 1.247 . S
C48 O47 1.208 . S
C49 O54 1.247 . S
C49 O55 1.208 . S
C50 O42 1.315 . S
C50 O45 1.279 . S
C51 O52 1.315 . S
C51 O53 1.279 . S
O52 Cd44 2.223 . S
O52 C51 1.315 . S
O53 Cd43 2.240 . S
O53 C51 1.279 . S
O54 Cd44 2.297 . S
O54 C49 1.247 . S
O55 Cd44 2.439 . S
O55 C49 1.208 . S
O56 Cd57 2.223 . S
O56 C64 1.315 . S
Cd57 O56 2.223 . S
Cd57 O60 2.297 . S
Cd57 O61 2.439 . S
Cd57 O67 2.240 . S
Cd58 O59 2.240 . S
Cd58 O66 2.223 . S
Cd58 O68 2.297 . S
Cd58 O69 2.439 . S
O59 Cd58 2.240 . S
O59 C64 1.279 . S
O60 Cd57 2.297 . S
O60 C62 1.247 . S
O61 Cd57 2.439 . S
O61 C62 1.208 . S
C62 O60 1.247 . S
C62 O61 1.208 . S
C63 O68 1.247 . S
C63 O69 1.208 . S
C64 O56 1.315 . S
C64 O59 1.279 . S
C65 O66 1.315 . S
C65 O67 1.279 . S
O66 Cd58 2.223 . S
O66 C65 1.315 . S
O67 Cd57 2.240 . S
O67 C65 1.279 . S
O68 Cd58 2.297 . S
O68 C63 1.247 . S
O69 Cd58 2.439 . S
O69 C63 1.208 . S
O70 Cd71 2.223 . S
O70 C78 1.315 . S
Cd71 O70 2.223 . S
Cd71 O74 2.297 . S
Cd71 O75 2.439 . S
Cd71 O81 2.240 . S
Cd72 O73 2.240 . S
Cd72 O80 2.223 . S
Cd72 O82 2.297 . S
Cd72 O83 2.439 . S
O73 Cd72 2.240 . S
O73 C78 1.279 . S
O74 Cd71 2.297 . S
O74 C76 1.247 . S
O75 Cd71 2.439 . S
O75 C76 1.208 . S
C76 O74 1.247 . S
C76 O75 1.208 . S
C77 O82 1.247 . S
C77 O83 1.208 . S
C78 O70 1.315 . S
C78 O73 1.279 . S
C79 O80 1.315 . S
C79 O81 1.279 . S
O80 Cd72 2.223 . S
O80 C79 1.315 . S
O81 Cd71 2.240 . S
O81 C79 1.279 . S
O82 Cd72 2.297 . S
O82 C77 1.247 . S
O83 Cd72 2.439 . S
O83 C77 1.208 . S
O84 Cd85 2.223 . S
O84 C92 1.315 . S
Cd85 O84 2.223 . S
Cd85 O88 2.297 . S
Cd85 O89 2.439 . S
Cd85 O95 2.240 . S
Cd86 O87 2.240 . S
Cd86 O94 2.223 . S
Cd86 O96 2.297 . S
Cd86 O97 2.439 . S
O87 Cd86 2.240 . S
O87 C92 1.279 . S
O88 Cd85 2.297 . S
O88 C90 1.247 . S
O89 Cd85 2.439 . S
O89 C90 1.208 . S
C90 O88 1.247 . S
C90 O89 1.208 . S
C91 O96 1.247 . S
C91 O97 1.208 . S
C92 O84 1.315 . S
C92 O87 1.279 . S
C93 O94 1.315 . S
C93 O95 1.279 . S
O94 Cd86 2.223 . S
O94 C93 1.315 . S
O95 Cd85 2.240 . S
O95 C93 1.279 . S
O96 Cd86 2.297 . S
O96 C91 1.247 . S
O97 Cd86 2.439 . S
O97 C91 1.208 . S
O98 Cd99 2.223 . S
O98 C106 1.315 . S
Cd99 O98 2.223 . S
Cd99 O102 2.297 . S
Cd99 O103 2.439 . S
Cd99 O109 2.240 . S
Cd100 O101 2.240 . S
Cd100 O108 2.223 1_455 S
Cd100 O110 2.297 . S
Cd100 O111 2.439 . S
O101 Cd100 2.240 . S
O101 C106 1.279 . S
O102 Cd99 2.297 . S
O102 C104 1.247 . S
O103 Cd99 2.439 . S
O103 C104 1.208 . S
C104 O102 1.247 . S
C104 O103 1.208 . S
C105 O110 1.247 . S
C105 O111 1.208 . S
C106 O98 1.315 . S
C106 O101 1.279 . S
C107 O108 1.315 . S
C107 O109 1.279 1_655 S
O108 Cd100 2.223 1_655 S
O108 C107 1.315 . S
O109 Cd99 2.240 . S
O109 C107 1.279 1_455 S
O110 Cd100 2.297 . S
O110 C105 1.247 . S
O111 Cd100 2.439 . S
O111 C105 1.208 . S
O112 Cd113 2.223 . S
O112 C120 1.315 . S
Cd113 O112 2.223 . S
Cd113 O116 2.297 . S
Cd113 O117 2.439 . S
Cd113 O123 2.240 . S
Cd114 O115 2.240 . S
Cd114 O122 2.223 . S
Cd114 O124 2.297 . S
Cd114 O125 2.439 . S
O115 Cd114 2.240 . S
O115 C120 1.279 . S
O116 Cd113 2.297 . S
O116 C118 1.247 . S
O117 Cd113 2.439 . S
O117 C118 1.208 . S
C118 O116 1.247 . S
C118 O117 1.208 . S
C119 O124 1.247 . S
C119 O125 1.208 . S
C120 O112 1.315 . S
C120 O115 1.279 . S
C121 O122 1.315 . S
C121 O123 1.279 . S
O122 Cd114 2.223 . S
O122 C121 1.315 . S
O123 Cd113 2.240 . S
O123 C121 1.279 . S
O124 Cd114 2.297 . S
O124 C119 1.247 . S
O125 Cd114 2.439 . S
O125 C119 1.208 . S
O126 Cd127 2.223 . S
O126 C134 1.315 . S
Cd127 O126 2.223 . S
Cd127 O130 2.297 . S
Cd127 O131 2.439 . S
Cd127 O137 2.240 . S
Cd128 O129 2.240 . S
Cd128 O136 2.223 . S
Cd128 O138 2.297 . S
Cd128 O139 2.439 . S
O129 Cd128 2.240 . S
O129 C134 1.279 . S
O130 Cd127 2.297 . S
O130 C132 1.247 . S
O131 Cd127 2.439 . S
O131 C132 1.208 . S
C132 O130 1.247 . S
C132 O131 1.208 . S
C133 O138 1.247 . S
C133 O139 1.208 . S
C134 O126 1.315 . S
C134 O129 1.279 . S
C135 O136 1.315 . S
C135 O137 1.279 . S
O136 Cd128 2.223 . S
O136 C135 1.315 . S
O137 Cd127 2.240 . S
O137 C135 1.279 . S
O138 Cd128 2.297 . S
O138 C133 1.247 . S
O139 Cd128 2.439 . S
O139 C133 1.208 . S
O140 Cd141 2.223 1_545 S
O140 C148 1.315 1_545 S
Cd141 O140 2.223 1_565 S
Cd141 O144 2.297 . S
Cd141 O145 2.439 . S
Cd141 O151 2.240 1_565 S
Cd142 O143 2.240 1_545 S
Cd142 O150 2.223 . S
Cd142 O152 2.297 . S
Cd142 O153 2.439 1_545 S
O143 Cd142 2.240 1_565 S
O143 C148 1.279 . S
O144 Cd141 2.297 . S
O144 C146 1.247 . S
O145 Cd141 2.439 . S
O145 C146 1.208 . S
C146 O144 1.247 . S
C146 O145 1.208 . S
C147 O152 1.247 . S
C147 O153 1.208 1_545 S
C148 O140 1.315 1_565 S
C148 O143 1.279 . S
C149 O150 1.315 . S
C149 O151 1.279 . S
O150 Cd142 2.223 . S
O150 C149 1.315 . S
O151 Cd141 2.240 1_545 S
O151 C149 1.279 . S
O152 Cd142 2.297 . S
O152 C147 1.247 . S
O153 Cd142 2.439 1_565 S
O153 C147 1.208 1_565 S
O154 Cd155 2.223 . S
O154 C162 1.315 . S
Cd155 O154 2.223 . S
Cd155 O158 2.297 . S
Cd155 O159 2.439 . S
Cd155 O165 2.240 . S
Cd156 O157 2.240 1_556 S
Cd156 O164 2.223 1_556 S
Cd156 O166 2.297 . S
Cd156 O167 2.439 . S
O157 Cd156 2.240 1_554 S
O157 C162 1.279 . S
O158 Cd155 2.297 . S
O158 C160 1.247 . S
O159 Cd155 2.439 . S
O159 C160 1.208 . S
C160 O158 1.247 . S
C160 O159 1.208 . S
C161 O166 1.247 . S
C161 O167 1.208 . S
C162 O154 1.315 . S
C162 O157 1.279 . S
C163 O164 1.315 . S
C163 O165 1.279 . S
O164 Cd156 2.223 1_554 S
O164 C163 1.315 . S
O165 Cd155 2.240 . S
O165 C163 1.279 . S
O166 Cd156 2.297 . S
O166 C161 1.247 . S
O167 Cd156 2.439 . S
O167 C161 1.208 . S
O168 Cd169 2.223 . S
O168 C176 1.315 . S
Cd169 O168 2.223 . S
Cd169 O172 2.297 . S
Cd169 O173 2.439 . S
Cd169 O179 2.240 . S
Cd170 O171 2.240 . S
Cd170 O178 2.223 . S
Cd170 O180 2.297 1_554 S
Cd170 O181 2.439 1_554 S
O171 Cd170 2.240 . S
O171 C176 1.279 . S
O172 Cd169 2.297 . S
O172 C174 1.247 . S
O173 Cd169 2.439 . S
O173 C174 1.208 . S
C174 O172 1.247 . S
C174 O173 1.208 . S
C175 O180 1.247 . S
C175 O181 1.208 . S
C176 O168 1.315 . S
C176 O171 1.279 . S
C177 O178 1.315 . S
C177 O179 1.279 . S
O178 Cd170 2.223 . S
O178 C177 1.315 . S
O179 Cd169 2.240 . S
O179 C177 1.279 . S
O180 Cd170 2.297 1_556 S
O180 C175 1.247 . S
O181 Cd170 2.439 1_556 S
O181 C175 1.208 . S
O182 Cd183 2.223 . S
O182 C190 1.315 . S
Cd183 O182 2.223 . S
Cd183 O186 2.297 . S
Cd183 O187 2.439 . S
Cd183 O193 2.240 . S
Cd184 O185 2.240 . S
Cd184 O192 2.223 . S
Cd184 O194 2.297 1_554 S
Cd184 O195 2.439 1_554 S
O185 Cd184 2.240 . S
O185 C190 1.279 . S
O186 Cd183 2.297 . S
O186 C188 1.247 . S
O187 Cd183 2.439 . S
O187 C188 1.208 . S
C188 O186 1.247 . S
C188 O187 1.208 . S
C189 O194 1.247 . S
C189 O195 1.208 . S
C190 O182 1.315 . S
C190 O185 1.279 . S
C191 O192 1.315 . S
C191 O193 1.279 . S
O192 Cd184 2.223 . S
O192 C191 1.315 . S
O193 Cd183 2.240 . S
O193 C191 1.279 . S
O194 Cd184 2.297 1_556 S
O194 C189 1.247 . S
O195 Cd184 2.439 1_556 S
O195 C189 1.208 . S
O196 Cd197 2.223 . S
O196 C204 1.315 . S
Cd197 O196 2.223 . S
Cd197 O200 2.297 . S
Cd197 O201 2.439 . S
Cd197 O207 2.240 . S
Cd198 O199 2.240 . S
Cd198 O206 2.223 . S
Cd198 O208 2.297 . S
Cd198 O209 2.439 . S
O199 Cd198 2.240 . S
O199 C204 1.279 . S
O200 Cd197 2.297 . S
O200 C202 1.247 . S
O201 Cd197 2.439 . S
O201 C202 1.208 . S
C202 O200 1.247 . S
C202 O201 1.208 . S
C203 O208 1.247 . S
C203 O209 1.208 . S
C204 O196 1.315 . S
C204 O199 1.279 . S
C205 O206 1.315 . S
C205 O207 1.279 . S
O206 Cd198 2.223 . S
O206 C205 1.315 . S
O207 Cd197 2.240 . S
O207 C205 1.279 . S
O208 Cd198 2.297 . S
O208 C203 1.247 . S
O209 Cd198 2.439 . S
O209 C203 1.208 . S
O210 Cd211 2.223 . S
O210 C218 1.315 . S
Cd211 O210 2.223 . S
Cd211 O214 2.297 . S
Cd211 O215 2.439 . S
Cd211 O221 2.240 . S
Cd212 O213 2.240 . S
Cd212 O220 2.223 . S
Cd212 O222 2.297 . S
Cd212 O223 2.439 . S
O213 Cd212 2.240 . S
O213 C218 1.279 . S
O214 Cd211 2.297 . S
O214 C216 1.247 . S
O215 Cd211 2.439 . S
O215 C216 1.208 . S
C216 O214 1.247 . S
C216 O215 1.208 . S
C217 O222 1.247 . S
C217 O223 1.208 . S
C218 O210 1.315 . S
C218 O213 1.279 . S
C219 O220 1.315 . S
C219 O221 1.279 . S
O220 Cd212 2.223 . S
O220 C219 1.315 . S
O221 Cd211 2.240 . S
O221 C219 1.279 . S
O222 Cd212 2.297 . S
O222 C217 1.247 . S
O223 Cd212 2.439 . S
O223 C217 1.208 . S
O224 Cd225 2.223 . S
O224 C232 1.315 . S
Cd225 O224 2.223 . S
Cd225 O228 2.297 . S
Cd225 O229 2.439 . S
Cd225 O235 2.240 . S
Cd226 O227 2.240 . S
Cd226 O234 2.223 . S
Cd226 O236 2.297 . S
Cd226 O237 2.439 . S
O227 Cd226 2.240 . S
O227 C232 1.279 . S
O228 Cd225 2.297 . S
O228 C230 1.247 . S
O229 Cd225 2.439 . S
O229 C230 1.208 . S
C230 O228 1.247 . S
C230 O229 1.208 . S
C231 O236 1.247 . S
C231 O237 1.208 . S
C232 O224 1.315 . S
C232 O227 1.279 . S
C233 O234 1.315 . S
C233 O235 1.279 . S
O234 Cd226 2.223 . S
O234 C233 1.315 . S
O235 Cd225 2.240 . S
O235 C233 1.279 . S
O236 Cd226 2.297 . S
O236 C231 1.247 . S
O237 Cd226 2.439 . S
O237 C231 1.208 . S
O238 Cd239 2.223 . S
O238 C246 1.315 . S
Cd239 O238 2.223 . S
Cd239 O242 2.297 . S
Cd239 O243 2.439 . S
Cd239 O249 2.240 . S
Cd240 O241 2.240 . S
Cd240 O248 2.223 . S
Cd240 O250 2.297 . S
Cd240 O251 2.439 . S
O241 Cd240 2.240 . S
O241 C246 1.279 . S
O242 Cd239 2.297 . S
O242 C244 1.247 . S
O243 Cd239 2.439 . S
O243 C244 1.208 . S
C244 O242 1.247 . S
C244 O243 1.208 . S
C245 O250 1.247 . S
C245 O251 1.208 . S
C246 O238 1.315 . S
C246 O241 1.279 . S
C247 O248 1.315 . S
C247 O249 1.279 . S
O248 Cd240 2.223 . S
O248 C247 1.315 . S
O249 Cd239 2.240 . S
O249 C247 1.279 . S
O250 Cd240 2.297 . S
O250 C245 1.247 . S
O251 Cd240 2.439 . S
O251 C245 1.208 . S
O252 Cd253 2.223 . S
O252 C260 1.315 . S
Cd253 O252 2.223 . S
Cd253 O256 2.297 . S
Cd253 O257 2.439 . S
Cd253 O263 2.240 . S
Cd254 O255 2.240 . S
Cd254 O262 2.223 . S
Cd254 O264 2.297 . S
Cd254 O265 2.439 . S
O255 Cd254 2.240 . S
O255 C260 1.279 . S
O256 Cd253 2.297 . S
O256 C258 1.247 . S
O257 Cd253 2.439 . S
O257 C258 1.208 . S
C258 O256 1.247 . S
C258 O257 1.208 . S
C259 O264 1.247 . S
C259 O265 1.208 . S
C260 O252 1.315 . S
C260 O255 1.279 . S
C261 O262 1.315 . S
C261 O263 1.279 . S
O262 Cd254 2.223 . S
O262 C261 1.315 . S
O263 Cd253 2.240 . S
O263 C261 1.279 . S
O264 Cd254 2.297 . S
O264 C259 1.247 . S
O265 Cd254 2.439 . S
O265 C259 1.208 . S
O266 Cd267 2.223 . S
O266 C274 1.315 . S
Cd267 O266 2.223 . S
Cd267 O270 2.297 . S
Cd267 O271 2.439 . S
Cd267 O277 2.240 . S
Cd268 O269 2.240 . S
Cd268 O276 2.223 . S
Cd268 O278 2.297 . S
Cd268 O279 2.439 . S
O269 Cd268 2.240 . S
O269 C274 1.279 . S
O270 Cd267 2.297 . S
O270 C272 1.247 . S
O271 Cd267 2.439 . S
O271 C272 1.208 . S
C272 O270 1.247 . S
C272 O271 1.208 . S
C273 O278 1.247 . S
C273 O279 1.208 . S
C274 O266 1.315 . S
C274 O269 1.279 . S
C275 O276 1.315 . S
C275 O277 1.279 . S
O276 Cd268 2.223 . S
O276 C275 1.315 . S
O277 Cd267 2.240 . S
O277 C275 1.279 . S
O278 Cd268 2.297 . S
O278 C273 1.247 . S
O279 Cd268 2.439 . S
O279 C273 1.208 . S
O280 Cd281 2.223 . S
O280 C288 1.315 . S
Cd281 O280 2.223 . S
Cd281 O284 2.297 . S
Cd281 O285 2.439 1_554 S
Cd281 O291 2.240 1_554 S
Cd282 O283 2.240 1_556 S
Cd282 O290 2.223 1_556 S
Cd282 O292 2.297 . S
Cd282 O293 2.439 . S
O283 Cd282 2.240 1_554 S
O283 C288 1.279 . S
O284 Cd281 2.297 . S
O284 C286 1.247 . S
O285 Cd281 2.439 1_556 S
O285 C286 1.208 1_556 S
C286 O284 1.247 . S
C286 O285 1.208 1_554 S
C287 O292 1.247 . S
C287 O293 1.208 . S
C288 O280 1.315 . S
C288 O283 1.279 . S
C289 O290 1.315 1_556 S
C289 O291 1.301 . S
O290 Cd282 2.223 1_554 S
O290 C289 1.315 1_554 S
O291 Cd281 2.240 1_556 S
O291 C289 1.301 . S
O292 Cd282 2.297 . S
O292 C287 1.247 . S
O293 Cd282 2.439 . S
O293 C287 1.208 . S
O294 Cd295 2.223 . S
O294 C302 1.315 . S
Cd295 O294 2.223 . S
Cd295 O298 2.297 . S
Cd295 O299 2.439 . S
Cd295 O305 2.240 . S
Cd296 O297 2.240 . S
Cd296 O304 2.223 . S
Cd296 O306 2.297 . S
Cd296 O307 2.439 . S
O297 Cd296 2.240 . S
O297 C302 1.279 . S
O298 Cd295 2.297 . S
O298 C300 1.247 . S
O299 Cd295 2.439 . S
O299 C300 1.208 . S
C300 O298 1.247 . S
C300 O299 1.208 . S
C301 O306 1.247 . S
C301 O307 1.208 . S
C302 O294 1.315 . S
C302 O297 1.279 . S
C303 O304 1.315 . S
C303 O305 1.279 . S
O304 Cd296 2.223 . S
O304 C303 1.315 . S
O305 Cd295 2.240 . S
O305 C303 1.279 . S
O306 Cd296 2.297 . S
O306 C301 1.247 . S
O307 Cd296 2.439 . S
O307 C301 1.208 . S
O308 Cd309 2.223 . S
O308 C316 1.315 . S
Cd309 O308 2.223 . S
Cd309 O312 2.297 . S
Cd309 O313 2.439 . S
Cd309 O319 2.240 . S
Cd310 O311 2.240 . S
Cd310 O318 2.223 . S
Cd310 O320 2.297 . S
Cd310 O321 2.439 . S
O311 Cd310 2.240 . S
O311 C316 1.279 . S
O312 Cd309 2.297 . S
O312 C314 1.247 . S
O313 Cd309 2.439 . S
O313 C314 1.208 . S
C314 O312 1.247 . S
C314 O313 1.208 . S
C315 O320 1.247 . S
C315 O321 1.208 . S
C316 O308 1.315 . S
C316 O311 1.279 . S
C317 O318 1.315 . S
C317 O319 1.279 . S
O318 Cd310 2.223 . S
O318 C317 1.315 . S
O319 Cd309 2.240 . S
O319 C317 1.279 . S
O320 Cd310 2.297 . S
O320 C315 1.247 . S
O321 Cd310 2.439 . S
O321 C315 1.208 . S
O322 Cd323 2.223 . S
O322 C330 1.315 . S
Cd323 O322 2.223 . S
Cd323 O326 2.297 . S
Cd323 O327 2.439 . S
Cd323 O333 2.240 . S
Cd324 O325 2.240 . S
Cd324 O332 2.223 . S
Cd324 O334 2.297 . S
Cd324 O335 2.439 . S
O325 Cd324 2.240 . S
O325 C330 1.279 . S
O326 Cd323 2.297 . S
O326 C328 1.247 . S
O327 Cd323 2.439 . S
O327 C328 1.208 . S
C328 O326 1.247 . S
C328 O327 1.208 . S
C329 O334 1.247 . S
C329 O335 1.208 . S
C330 O322 1.315 . S
C330 O325 1.279 . S
C331 O332 1.315 . S
C331 O333 1.279 . S
O332 Cd324 2.223 . S
O332 C331 1.315 . S
O333 Cd323 2.240 . S
O333 C331 1.279 . S
O334 Cd324 2.297 . S
O334 C329 1.247 . S
O335 Cd324 2.439 . S
O335 C329 1.208 . S
Gd336 N367 2.661 . S
Gd336 N373 2.601 . S
Gd336 O380 2.545 . S
Gd336 O381 2.606 . S
Gd336 O383 2.429 . S
Gd336 O384 2.545 . S
Gd336 O385 2.412 . S
Gd336 O387 2.362 . S
Gd336 O388 2.324 . S
Gd336 C395 2.828 . S
Gd337 N346 2.661 . S
Gd337 N350 2.601 1_554 S
Gd337 O381 2.362 . S
Gd337 O382 2.324 . S
Gd337 O386 2.545 1_554 S
Gd337 O387 2.606 . S
Gd337 O389 2.429 1_554 S
Gd337 O390 2.545 . S
Gd337 O391 2.474 . S
Gd337 C404 2.828 1_455 S
C338 C341 1.410 1_655 S
C338 C343 1.437 . S
C338 C344 1.415 1_655 S
C339 C342 1.437 . S
C339 C343 1.317 1_556 S
C339 H358 0.929 . S
C340 C341 1.426 1_556 S
C340 C342 1.413 1_455 S
C340 N350 1.359 1_565 S
C341 C338 1.410 1_455 S
C341 C340 1.426 1_554 S
C341 N346 1.350 1_565 S
C342 C339 1.437 . S
C342 C340 1.413 1_655 S
C342 C352 1.391 . S
C343 C338 1.437 . S
C343 C339 1.317 1_554 S
C343 H354 0.930 . S
C344 C338 1.415 1_455 S
C344 C345 1.363 . S
C344 H356 0.922 1_455 S
C345 C344 1.363 . S
C345 C347 1.402 1_565 S
C345 H357 0.930 . S
N346 Gd337 2.661 . S
N346 C341 1.350 1_545 S
N346 C347 1.307 . S
C347 C345 1.402 1_545 S
C347 N346 1.307 . S
C347 H348 0.930 . S
H348 C347 0.930 . S
C349 N350 1.334 . S
C349 C351 1.394 1_545 S
C349 H353 0.930 . S
N350 Gd337 2.601 1_556 S
N350 C340 1.359 1_545 S
N350 C349 1.334 . S
C351 C349 1.394 1_565 S
C351 C352 1.359 1_455 S
C351 H363 0.930 . S
C352 C342 1.391 . S
C352 C351 1.359 1_655 S
C352 H364 0.929 . S
H353 C349 0.930 . S
H354 C343 0.930 . S
H355 C372 0.930 1_556 S
H356 C344 0.922 1_655 S
H357 C345 0.930 . S
H358 C339 0.929 . S
H359 C377 0.930 . S
H360 C368 0.955 . S
H361 C369 0.930 . S
H362 C393 0.929 . S
H363 C351 0.930 . S
H364 C352 0.929 . S
H365 C394 0.930 . S
H366 C375 0.930 . S
N367 Gd336 2.661 . S
N367 C371 1.350 . S
N367 C372 1.307 . S
C368 H360 0.955 . S
C368 C369 1.355 1_554 S
C368 C370 1.412 . S
C369 H361 0.930 . S
C369 C368 1.355 1_556 S
C369 C372 1.402 1_556 S
C370 C368 1.412 . S
C370 C371 1.417 . S
C370 C394 1.431 . S
C371 N367 1.350 . S
C371 C370 1.417 . S
C371 C374 1.426 . S
C372 H355 0.930 1_554 S
C372 N367 1.307 . S
C372 C369 1.402 1_554 S
N373 Gd336 2.601 . S
N373 C374 1.359 . S
N373 C377 1.334 . S
C374 C371 1.426 . S
C374 N373 1.359 . S
C374 C378 1.413 . S
C375 H366 0.930 . S
C375 C376 1.359 . S
C375 C377 1.394 . S
C376 C375 1.359 . S
C376 C378 1.391 . S
C376 H379 0.929 . S
C377 H359 0.930 . S
C377 N373 1.334 . S
C377 C375 1.394 . S
C378 C374 1.413 . S
C378 C376 1.391 . S
C378 C393 1.437 . S
H379 C376 0.929 . S
O380 Gd336 2.545 . S
O380 C395 1.258 . S
O381 Gd336 2.606 . S
O381 Gd337 2.362 . S
O381 C392 1.284 . S
O382 Gd337 2.324 . S
O382 C402 1.254 . S
O383 Gd336 2.429 . S
O383 C402 1.268 . S
O384 Gd336 2.545 . S
O384 C392 1.250 . S
O385 Gd336 2.412 . S
O385 C395 1.252 . S
O386 Gd337 2.545 1_556 S
O386 C404 1.258 1_456 S
O387 Gd336 2.362 . S
O387 Gd337 2.606 . S
O387 C403 1.284 . S
O388 Gd336 2.324 . S
O388 C411 1.254 1_554 S
O389 Gd337 2.429 1_556 S
O389 C411 1.268 . S
O390 Gd337 2.545 . S
O390 C403 1.250 . S
O391 Gd337 2.474 . S
O391 C404 1.236 1_455 S
C392 O381 1.284 . S
C392 O384 1.250 . S
C393 H362 0.929 . S
C393 C378 1.437 . S
C393 C394 1.317 . S
C394 H365 0.930 . S
C394 C370 1.431 . S
C394 C393 1.317 . S
C395 Gd336 2.828 . S
C395 O380 1.258 . S
C395 O385 1.252 . S
C395 C396 1.497 . S
C396 C395 1.497 . S
C396 C397 1.395 . S
C396 C398 1.380 . S
C397 C396 1.395 . S
C397 C400 1.398 . S
C397 H412 0.930 . S
C398 C396 1.380 . S
C398 C399 1.391 . S
C398 H413 0.930 . S
C399 C398 1.391 . S
C399 C401 1.387 . S
C400 C397 1.398 . S
C400 C401 1.380 . S
C400 H414 0.930 . S
C401 C399 1.387 . S
C401 C400 1.380 . S
C401 H415 0.930 . S
C402 O382 1.254 . S
C402 O383 1.268 . S
C403 O387 1.284 . S
C403 O390 1.250 . S
C404 Gd337 2.828 1_655 S
C404 O386 1.258 1_654 S
C404 O391 1.236 1_655 S
C404 C405 1.497 1_554 S
C405 C404 1.497 1_556 S
C405 C406 1.395 . S
C405 C407 1.380 1_556 S
C406 C405 1.395 . S
C406 C409 1.398 . S
C406 H416 0.930 . S
C407 C405 1.380 1_554 S
C407 C408 1.391 . S
C407 H417 0.930 . S
C408 C407 1.391 . S
C408 C410 1.387 1_554 S
C409 C406 1.398 . S
C409 C410 1.380 . S
C409 H418 0.930 . S
C410 C408 1.387 1_556 S
C410 C409 1.380 . S
C410 H419 0.930 . S
C411 O388 1.254 1_556 S
C411 O389 1.268 . S
H412 C397 0.930 . S
H413 C398 0.930 . S
H414 C400 0.930 . S
H415 C401 0.930 . S
H416 C406 0.930 . S
H417 C407 0.930 . S
H418 C409 0.930 . S
H419 C410 0.930 . S
Gd420 N451 2.661 . S
Gd420 N457 2.601 . S
Gd420 O464 2.545 . S
Gd420 O465 2.606 . S
Gd420 O467 2.429 . S
Gd420 O468 2.545 . S
Gd420 O469 2.412 . S
Gd420 O471 2.362 . S
Gd420 O472 2.324 . S
Gd420 C479 2.828 . S
Gd421 N430 2.661 . S
Gd421 N434 2.601 . S
Gd421 O465 2.362 . S
Gd421 O466 2.324 . S
Gd421 O470 2.545 . S
Gd421 O471 2.606 . S
Gd421 O473 2.429 . S
Gd421 O474 2.545 . S
Gd421 O475 2.412 . S
Gd421 C488 2.828 . S
C422 C425 1.417 . S
C422 C427 1.431 . S
C422 C428 1.412 . S
C423 C426 1.437 . S
C423 C427 1.317 . S
C423 H442 0.929 . S
C424 C425 1.426 . S
C424 C426 1.413 . S
C424 N434 1.359 . S
C425 C422 1.417 . S
C425 C424 1.426 . S
C425 N430 1.350 . S
C426 C423 1.437 . S
C426 C424 1.413 . S
C426 C436 1.391 . S
C427 C422 1.431 . S
C427 C423 1.317 . S
C427 H438 0.930 . S
C428 C422 1.412 . S
C428 C429 1.355 . S
C428 H440 0.930 . S
C429 C428 1.355 . S
C429 C431 1.402 . S
C429 H441 0.930 . S
N430 Gd421 2.661 . S
N430 C425 1.350 . S
N430 C431 1.307 . S
C431 C429 1.402 . S
C431 N430 1.307 . S
C431 H432 0.930 . S
H432 C431 0.930 . S
C433 N434 1.334 . S
C433 C435 1.394 . S
C433 H437 0.930 . S
N434 Gd421 2.601 . S
N434 C424 1.359 . S
N434 C433 1.334 . S
C435 C433 1.394 . S
C435 C436 1.359 . S
C435 H447 0.930 . S
C436 C426 1.391 . S
C436 C435 1.359 . S
C436 H448 0.929 . S
H437 C433 0.930 . S
H438 C427 0.930 . S
H439 C456 0.930 . S
H440 C428 0.930 . S
H441 C429 0.930 . S
H442 C423 0.929 . S
H443 C461 0.930 . S
H444 C452 0.930 . S
H445 C453 0.930 . S
H446 C477 0.929 . S
H447 C435 0.930 . S
H448 C436 0.929 . S
H449 C478 0.930 . S
H450 C459 0.930 . S
N451 Gd420 2.661 . S
N451 C455 1.350 . S
N451 C456 1.307 . S
C452 H444 0.930 . S
C452 C453 1.355 . S
C452 C454 1.412 . S
C453 H445 0.930 . S
C453 C452 1.355 . S
C453 C456 1.402 . S
C454 C452 1.412 . S
C454 C455 1.417 . S
C454 C478 1.431 . S
C455 N451 1.350 . S
C455 C454 1.417 . S
C455 C458 1.426 . S
C456 H439 0.930 . S
C456 N451 1.307 . S
C456 C453 1.402 . S
N457 Gd420 2.601 . S
N457 C458 1.359 . S
N457 C461 1.334 . S
C458 C455 1.426 . S
C458 N457 1.359 . S
C458 C462 1.413 . S
C459 H450 0.930 . S
C459 C460 1.359 . S
C459 C461 1.394 . S
C460 C459 1.359 . S
C460 C462 1.391 . S
C460 H463 0.929 . S
C461 H443 0.930 . S
C461 N457 1.334 . S
C461 C459 1.394 . S
C462 C458 1.413 . S
C462 C460 1.391 . S
C462 C477 1.437 . S
H463 C460 0.929 . S
O464 Gd420 2.545 . S
O464 C479 1.258 . S
O465 Gd420 2.606 . S
O465 Gd421 2.362 . S
O465 C476 1.284 . S
O466 Gd421 2.324 . S
O466 C486 1.254 . S
O467 Gd420 2.429 . S
O467 C486 1.268 . S
O468 Gd420 2.545 . S
O468 C476 1.250 . S
O469 Gd420 2.412 . S
O469 C479 1.252 . S
O470 Gd421 2.545 . S
O470 C488 1.258 . S
O471 Gd420 2.362 . S
O471 Gd421 2.606 . S
O471 C487 1.284 . S
O472 Gd420 2.324 . S
O472 C495 1.254 . S
O473 Gd421 2.429 . S
O473 C495 1.268 . S
O474 Gd421 2.545 . S
O474 C487 1.250 . S
O475 Gd421 2.412 . S
O475 C488 1.252 . S
C476 O465 1.284 . S
C476 O468 1.250 . S
C477 H446 0.929 . S
C477 C462 1.437 . S
C477 C478 1.317 . S
C478 H449 0.930 . S
C478 C454 1.431 . S
C478 C477 1.317 . S
C479 Gd420 2.828 . S
C479 O464 1.258 . S
C479 O469 1.252 . S
C479 C480 1.497 . S
C480 C479 1.497 . S
C480 C481 1.395 . S
C480 C482 1.380 . S
C481 C480 1.395 . S
C481 C484 1.398 . S
C481 H496 0.930 . S
C482 C480 1.380 . S
C482 C483 1.391 . S
C482 H497 0.930 . S
C483 C482 1.391 . S
C483 C485 1.387 . S
C484 C481 1.398 . S
C484 C485 1.380 . S
C484 H498 0.930 . S
C485 C483 1.387 . S
C485 C484 1.380 . S
C485 H499 0.930 . S
C486 O466 1.254 . S
C486 O467 1.268 . S
C487 O471 1.284 . S
C487 O474 1.250 . S
C488 Gd421 2.828 . S
C488 O470 1.258 . S
C488 O475 1.252 . S
C488 C489 1.497 . S
C489 C488 1.497 . S
C489 C490 1.395 . S
C489 C491 1.380 . S
C490 C489 1.395 . S
C490 C493 1.398 . S
C490 H500 0.930 . S
C491 C489 1.380 . S
C491 C492 1.391 . S
C491 H501 0.930 . S
C492 C491 1.391 . S
C492 C494 1.387 . S
C493 C490 1.398 . S
C493 C494 1.380 . S
C493 H502 0.930 . S
C494 C492 1.387 . S
C494 C493 1.380 . S
C494 H503 0.930 . S
C495 O472 1.254 . S
C495 O473 1.268 . S
H496 C481 0.930 . S
H497 C482 0.930 . S
H498 C484 0.930 . S
H499 C485 0.930 . S
H500 C490 0.930 . S
H501 C491 0.930 . S
H502 C493 0.930 . S
H503 C494 0.930 . S
Gd504 N535 2.661 . S
Gd504 N541 2.601 . S
Gd504 O548 2.545 . S
Gd504 O549 2.606 . S
Gd504 O551 2.429 . S
Gd504 O552 2.545 . S
Gd504 O553 2.412 . S
Gd504 O555 2.362 . S
Gd504 O556 2.324 . S
Gd504 C563 2.828 . S
Gd505 N514 2.661 . S
Gd505 N518 2.601 . S
Gd505 O549 2.362 . S
Gd505 O550 2.324 . S
Gd505 O554 2.545 . S
Gd505 O555 2.606 . S
Gd505 O557 2.429 . S
Gd505 O558 2.545 . S
Gd505 O559 2.412 . S
Gd505 C572 2.828 . S
C506 C509 1.417 . S
C506 C511 1.431 . S
C506 C512 1.412 . S
C507 C510 1.437 . S
C507 C511 1.317 . S
C507 H526 0.929 . S
C508 C509 1.426 . S
C508 C510 1.413 . S
C508 N518 1.359 . S
C509 C506 1.417 . S
C509 C508 1.426 . S
C509 N514 1.350 . S
C510 C507 1.437 . S
C510 C508 1.413 . S
C510 C520 1.391 . S
C511 C506 1.431 . S
C511 C507 1.317 . S
C511 H522 0.930 . S
C512 C506 1.412 . S
C512 C513 1.355 . S
C512 H524 0.930 . S
C513 C512 1.355 . S
C513 C515 1.402 . S
C513 H525 0.930 . S
N514 Gd505 2.661 . S
N514 C509 1.350 . S
N514 C515 1.307 . S
C515 C513 1.402 . S
C515 N514 1.307 . S
C515 H516 0.930 . S
H516 C515 0.930 . S
C517 N518 1.334 . S
C517 C519 1.394 . S
C517 H521 0.930 . S
N518 Gd505 2.601 . S
N518 C508 1.359 . S
N518 C517 1.334 . S
C519 C517 1.394 . S
C519 C520 1.359 . S
C519 H531 0.930 . S
C520 C510 1.391 . S
C520 C519 1.359 . S
C520 H532 0.929 . S
H521 C517 0.930 . S
H522 C511 0.930 . S
H523 C540 0.930 1_545 S
H524 C512 0.930 . S
H525 C513 0.930 . S
H526 C507 0.929 . S
H527 C545 0.930 . S
H528 C536 0.930 . S
H529 C537 0.930 . S
H530 C561 0.929 . S
H531 C519 0.930 . S
H532 C520 0.929 . S
H533 C562 0.930 . S
H534 C543 0.930 . S
N535 Gd504 2.661 . S
N535 C539 1.350 1_545 S
N535 C540 1.307 1_545 S
C536 H528 0.930 . S
C536 C537 1.355 . S
C536 C538 1.412 . S
C537 H529 0.930 . S
C537 C536 1.355 . S
C537 C540 1.402 . S
C538 C536 1.412 . S
C538 C539 1.417 . S
C538 C562 1.431 . S
C539 N535 1.350 1_565 S
C539 C538 1.417 . S
C539 C542 1.426 . S
C540 H523 0.930 1_565 S
C540 N535 1.307 1_565 S
C540 C537 1.402 . S
N541 Gd504 2.601 . S
N541 C542 1.359 1_545 S
N541 C545 1.334 . S
C542 C539 1.426 . S
C542 N541 1.359 1_565 S
C542 C546 1.413 . S
C543 H534 0.930 . S
C543 C544 1.359 1_545 S
C543 C545 1.394 . S
C544 C543 1.359 1_565 S
C544 C546 1.391 . S
C544 H547 0.929 . S
C545 H527 0.930 . S
C545 N541 1.334 . S
C545 C543 1.394 . S
C546 C542 1.413 . S
C546 C544 1.391 . S
C546 C561 1.437 . S
H547 C544 0.929 . S
O548 Gd504 2.545 . S
O548 C563 1.258 . S
O549 Gd504 2.606 . S
O549 Gd505 2.362 . S
O549 C560 1.284 . S
O550 Gd505 2.324 . S
O550 C570 1.254 . S
O551 Gd504 2.429 . S
O551 C570 1.268 . S
O552 Gd504 2.545 . S
O552 C560 1.250 . S
O553 Gd504 2.412 . S
O553 C563 1.252 . S
O554 Gd505 2.545 . S
O554 C572 1.258 . S
O555 Gd504 2.362 . S
O555 Gd505 2.606 . S
O555 C571 1.284 . S
O556 Gd504 2.324 . S
O556 C579 1.254 . S
O557 Gd505 2.429 . S
O557 C579 1.268 . S
O558 Gd505 2.545 . S
O558 C571 1.250 . S
O559 Gd505 2.412 . S
O559 C572 1.252 . S
C560 O549 1.284 . S
C560 O552 1.250 . S
C561 H530 0.929 . S
C561 C546 1.437 . S
C561 C562 1.317 . S
C562 H533 0.930 . S
C562 C538 1.431 . S
C562 C561 1.317 . S
C563 Gd504 2.828 . S
C563 O548 1.258 . S
C563 O553 1.252 . S
C563 C564 1.497 . S
C564 C563 1.497 . S
C564 C565 1.395 . S
C564 C566 1.380 . S
C565 C564 1.395 . S
C565 C568 1.398 . S
C565 H580 0.930 . S
C566 C564 1.380 . S
C566 C567 1.391 . S
C566 H581 0.930 . S
C567 C566 1.391 . S
C567 C569 1.387 . S
C568 C565 1.398 . S
C568 C569 1.380 . S
C568 H582 0.930 . S
C569 C567 1.387 . S
C569 C568 1.380 . S
C569 H583 0.930 . S
C570 O550 1.254 . S
C570 O551 1.268 . S
C571 O555 1.284 . S
C571 O558 1.250 . S
C572 Gd505 2.828 . S
C572 O554 1.258 . S
C572 O559 1.252 . S
C572 C573 1.497 . S
C573 C572 1.497 . S
C573 C574 1.395 . S
C573 C575 1.380 . S
C574 C573 1.395 . S
C574 C577 1.398 . S
C574 H584 0.930 . S
C575 C573 1.380 . S
C575 C576 1.391 . S
C575 H585 0.930 . S
C576 C575 1.391 . S
C576 C578 1.387 . S
C577 C574 1.398 . S
C577 C578 1.380 . S
C577 H586 0.930 . S
C578 C576 1.387 . S
C578 C577 1.380 . S
C578 H587 0.930 1_545 S
C579 O556 1.254 . S
C579 O557 1.268 . S
H580 C565 0.930 . S
H581 C566 0.930 . S
H582 C568 0.930 . S
H583 C569 0.930 . S
H584 C574 0.930 . S
H585 C575 0.930 . S
H586 C577 0.930 . S
H587 C578 0.930 1_565 S
Gd588 N619 2.661 . S
Gd588 N625 2.601 . S
Gd588 O632 2.545 . S
Gd588 O633 2.606 . S
Gd588 O635 2.429 . S
Gd588 O636 2.545 . S
Gd588 O637 2.412 . S
Gd588 O639 2.362 . S
Gd588 O640 2.324 . S
Gd588 C647 2.828 . S
Gd589 N598 2.661 . S
Gd589 N602 2.601 . S
Gd589 O633 2.362 . S
Gd589 O634 2.324 . S
Gd589 O638 2.545 . S
Gd589 O639 2.606 . S
Gd589 O641 2.429 . S
Gd589 O642 2.545 . S
Gd589 O643 2.412 . S
Gd589 C656 2.828 . S
C590 C593 1.417 . S
C590 C595 1.431 . S
C590 C596 1.412 . S
C591 C594 1.437 . S
C591 C595 1.317 . S
C591 H610 0.929 . S
C592 C593 1.426 . S
C592 C594 1.413 . S
C592 N602 1.359 . S
C593 C590 1.417 . S
C593 C592 1.426 . S
C593 N598 1.350 . S
C594 C591 1.437 . S
C594 C592 1.413 . S
C594 C604 1.391 . S
C595 C590 1.431 . S
C595 C591 1.317 . S
C595 H606 0.930 . S
C596 C590 1.412 . S
C596 C597 1.355 . S
C596 H608 0.930 . S
C597 C596 1.355 . S
C597 C599 1.402 . S
C597 H609 0.930 . S
N598 Gd589 2.661 . S
N598 C593 1.350 . S
N598 C599 1.307 . S
C599 C597 1.402 . S
C599 N598 1.307 . S
C599 H600 0.930 . S
H600 C599 0.930 . S
C601 N602 1.334 . S
C601 C603 1.394 . S
C601 H605 0.930 . S
N602 Gd589 2.601 . S
N602 C592 1.359 . S
N602 C601 1.334 . S
C603 C601 1.394 . S
C603 C604 1.359 . S
C603 H615 0.930 . S
C604 C594 1.391 . S
C604 C603 1.359 . S
C604 H616 0.929 . S
H605 C601 0.930 . S
H606 C595 0.930 . S
H607 C624 0.930 . S
H608 C596 0.930 . S
H609 C597 0.930 . S
H610 C591 0.929 . S
H611 C629 0.930 . S
H612 C620 0.930 . S
H613 C621 0.930 . S
H614 C645 0.929 . S
H615 C603 0.930 . S
H616 C604 0.929 . S
H617 C646 0.930 . S
H618 C627 0.930 . S
N619 Gd588 2.661 . S
N619 C623 1.350 . S
N619 C624 1.307 . S
C620 H612 0.930 . S
C620 C621 1.355 . S
C620 C622 1.412 . S
C621 H613 0.930 . S
C621 C620 1.355 . S
C621 C624 1.402 . S
C622 C620 1.412 . S
C622 C623 1.417 . S
C622 C646 1.431 . S
C623 N619 1.350 . S
C623 C622 1.417 . S
C623 C626 1.426 . S
C624 H607 0.930 . S
C624 N619 1.307 . S
C624 C621 1.402 . S
N625 Gd588 2.601 . S
N625 C626 1.359 . S
N625 C629 1.334 . S
C626 C623 1.426 . S
C626 N625 1.359 . S
C626 C630 1.413 . S
C627 H618 0.930 . S
C627 C628 1.359 . S
C627 C629 1.394 . S
C628 C627 1.359 . S
C628 C630 1.391 . S
C628 H631 0.929 . S
C629 H611 0.930 . S
C629 N625 1.334 . S
C629 C627 1.394 . S
C630 C626 1.413 . S
C630 C628 1.391 . S
C630 C645 1.437 . S
H631 C628 0.929 . S
O632 Gd588 2.545 . S
O632 C647 1.258 . S
O633 Gd588 2.606 . S
O633 Gd589 2.362 . S
O633 C644 1.284 . S
O634 Gd589 2.324 . S
O634 C654 1.254 . S
O635 Gd588 2.429 . S
O635 C654 1.268 . S
O636 Gd588 2.545 . S
O636 C644 1.250 . S
O637 Gd588 2.412 . S
O637 C647 1.252 . S
O638 Gd589 2.545 . S
O638 C656 1.258 . S
O639 Gd588 2.362 . S
O639 Gd589 2.606 . S
O639 C655 1.284 . S
O640 Gd588 2.324 . S
O640 C663 1.254 . S
O641 Gd589 2.429 . S
O641 C663 1.268 . S
O642 Gd589 2.545 . S
O642 C655 1.250 . S
O643 Gd589 2.412 . S
O643 C656 1.252 . S
C644 O633 1.284 . S
C644 O636 1.250 . S
C645 H614 0.929 . S
C645 C630 1.437 . S
C645 C646 1.317 . S
C646 H617 0.930 . S
C646 C622 1.431 . S
C646 C645 1.317 . S
C647 Gd588 2.828 . S
C647 O632 1.258 . S
C647 O637 1.252 . S
C647 C648 1.497 . S
C648 C647 1.497 . S
C648 C649 1.395 . S
C648 C650 1.380 . S
C649 C648 1.395 . S
C649 C652 1.398 . S
C649 H664 0.930 . S
C650 C648 1.380 . S
C650 C651 1.391 . S
C650 H665 0.930 . S
C651 C650 1.391 . S
C651 C653 1.387 . S
C652 C649 1.398 . S
C652 C653 1.380 . S
C652 H666 0.930 . S
C653 C651 1.387 . S
C653 C652 1.380 . S
C653 H667 0.930 . S
C654 O634 1.254 . S
C654 O635 1.268 . S
C655 O639 1.284 . S
C655 O642 1.250 . S
C656 Gd589 2.828 . S
C656 O638 1.258 . S
C656 O643 1.252 . S
C656 C657 1.497 . S
C657 C656 1.497 . S
C657 C658 1.395 . S
C657 C659 1.380 . S
C658 C657 1.395 . S
C658 C661 1.398 . S
C658 H668 0.930 . S
C659 C657 1.380 . S
C659 C660 1.391 . S
C659 H669 0.930 . S
C660 C659 1.391 . S
C660 C662 1.387 . S
C661 C658 1.398 . S
C661 C662 1.380 . S
C661 H670 0.930 . S
C662 C660 1.387 . S
C662 C661 1.380 . S
C662 H671 0.930 . S
C663 O640 1.254 . S
C663 O641 1.268 . S
H664 C649 0.930 . S
H665 C650 0.930 . S
H666 C652 0.930 . S
H667 C653 0.930 . S
H668 C658 0.930 . S
H669 C659 0.930 . S
H670 C661 0.930 . S
H671 C662 0.930 . S
Gd672 N703 2.661 1_545 S
Gd672 N709 2.601 . S
Gd672 O716 2.545 1_545 S
Gd672 O717 2.606 . S
Gd672 O719 2.429 . S
Gd672 O720 2.545 . S
Gd672 O721 2.412 1_545 S
Gd672 O723 2.362 . S
Gd672 O724 2.324 . S
Gd672 C731 2.828 1_545 S
Gd673 N682 2.661 . S
Gd673 N686 2.601 . S
Gd673 O717 2.362 . S
Gd673 O718 2.324 . S
Gd673 O722 2.545 . S
Gd673 O723 2.606 . S
Gd673 O725 2.429 . S
Gd673 O726 2.545 . S
Gd673 O727 2.412 . S
Gd673 C740 2.828 . S
C674 C677 1.417 . S
C674 C679 1.431 . S
C674 C680 1.412 . S
C675 C678 1.437 . S
C675 C679 1.317 . S
C675 H694 0.929 . S
C676 C677 1.426 . S
C676 C678 1.413 . S
C676 N686 1.359 . S
C677 C674 1.417 . S
C677 C676 1.426 . S
C677 N682 1.350 . S
C678 C675 1.437 . S
C678 C676 1.413 . S
C678 C688 1.391 . S
C679 C674 1.431 . S
C679 C675 1.317 . S
C679 H690 0.930 . S
C680 C674 1.412 . S
C680 C681 1.355 . S
C680 H692 0.930 . S
C681 C680 1.355 . S
C681 C683 1.402 . S
C681 H693 0.930 . S
N682 Gd673 2.661 . S
N682 C677 1.350 . S
N682 C683 1.307 . S
C683 C681 1.402 . S
C683 N682 1.307 . S
C683 H684 0.930 . S
H684 C683 0.930 . S
C685 N686 1.334 . S
C685 C687 1.394 . S
C685 H689 0.930 . S
N686 Gd673 2.601 . S
N686 C676 1.359 . S
N686 C685 1.334 . S
C687 C685 1.394 . S
C687 C688 1.359 . S
C687 H699 0.930 . S
C688 C678 1.391 . S
C688 C687 1.359 . S
C688 H700 0.929 . S
H689 C685 0.930 . S
H690 C679 0.930 . S
H691 C708 0.930 1_545 S
H692 C680 0.930 . S
H693 C681 0.930 . S
H694 C675 0.929 . S
H695 C713 0.930 . S
H696 C704 0.930 . S
H697 C705 0.875 1_655 S
H698 C729 0.929 . S
H699 C687 0.930 . S
H700 C688 0.929 . S
H701 C730 0.930 . S
H702 C711 0.930 . S
N703 Gd672 2.661 1_565 S
N703 C707 1.350 . S
N703 C708 1.307 . S
C704 H696 0.930 . S
C704 C705 1.355 . S
C704 C706 1.412 . S
C705 H697 0.875 1_455 S
C705 C704 1.355 . S
C705 C708 1.402 . S
C706 C704 1.412 . S
C706 C707 1.417 . S
C706 C730 1.431 . S
C707 N703 1.350 . S
C707 C706 1.417 . S
C707 C710 1.426 . S
C708 H691 0.930 1_565 S
C708 N703 1.307 . S
C708 C705 1.402 . S
N709 Gd672 2.601 . S
N709 C710 1.359 1_545 S
N709 C713 1.334 . S
C710 C707 1.426 . S
C710 N709 1.359 1_565 S
C710 C714 1.413 . S
C711 H702 0.930 . S
C711 C712 1.359 . S
C711 C713 1.394 1_565 S
C712 C711 1.359 . S
C712 C714 1.391 . S
C712 H715 0.929 . S
C713 H695 0.930 . S
C713 N709 1.334 . S
C713 C711 1.394 1_545 S
C714 C710 1.413 . S
C714 C712 1.391 . S
C714 C729 1.437 . S
H715 C712 0.929 . S
O716 Gd672 2.545 1_565 S
O716 C731 1.258 . S
O717 Gd672 2.606 . S
O717 Gd673 2.362 . S
O717 C728 1.284 . S
O718 Gd673 2.324 . S
O718 C738 1.254 . S
O719 Gd672 2.429 . S
O719 C738 1.268 . S
O720 Gd672 2.545 . S
O720 C728 1.250 . S
O721 Gd672 2.412 1_565 S
O721 C731 1.252 . S
O722 Gd673 2.545 . S
O722 C740 1.258 . S
O723 Gd672 2.362 . S
O723 Gd673 2.606 . S
O723 C739 1.284 . S
O724 Gd672 2.324 . S
O724 C747 1.254 . S
O725 Gd673 2.429 . S
O725 C747 1.268 . S
O726 Gd673 2.545 . S
O726 C739 1.250 . S
O727 Gd673 2.412 . S
O727 C740 1.252 . S
C728 O717 1.284 . S
C728 O720 1.250 . S
C729 H698 0.929 . S
C729 C714 1.437 . S
C729 C730 1.317 . S
C730 H701 0.930 . S
C730 C706 1.431 . S
C730 C729 1.317 . S
C731 Gd672 2.828 1_565 S
C731 O716 1.258 . S
C731 O721 1.252 . S
C731 C732 1.497 . S
C732 C731 1.497 . S
C732 C733 1.395 . S
C732 C734 1.380 . S
C733 C732 1.395 . S
C733 C736 1.398 . S
C733 H748 0.930 . S
C734 C732 1.380 . S
C734 C735 1.391 . S
C734 H749 0.930 . S
C735 C734 1.391 . S
C735 C737 1.387 . S
C736 C733 1.398 . S
C736 C737 1.380 . S
C736 H750 0.930 . S
C737 C735 1.387 . S
C737 C736 1.380 . S
C737 H751 0.930 . S
C738 O718 1.254 . S
C738 O719 1.268 . S
C739 O723 1.284 . S
C739 O726 1.250 . S
C740 Gd673 2.828 . S
C740 O722 1.258 . S
C740 O727 1.252 . S
C740 C741 1.497 . S
C741 C740 1.497 . S
C741 C742 1.395 . S
C741 C743 1.380 . S
C742 C741 1.395 . S
C742 C745 1.398 . S
C742 H752 0.930 . S
C743 C741 1.380 . S
C743 C744 1.391 . S
C743 H753 0.930 . S
C744 C743 1.391 . S
C744 C746 1.387 . S
C745 C742 1.398 . S
C745 C746 1.380 . S
C745 H754 0.930 . S
C746 C744 1.387 . S
C746 C745 1.380 . S
C746 H755 0.930 . S
C747 O724 1.254 . S
C747 O725 1.268 . S
H748 C733 0.930 . S
H749 C734 0.930 . S
H750 C736 0.930 . S
H751 C737 0.930 . S
H752 C742 0.930 . S
H753 C743 0.930 . S
H754 C745 0.930 . S
H755 C746 0.930 . S
Gd756 N787 2.661 . S
Gd756 N793 2.601 . S
Gd756 O800 2.545 . S
Gd756 O801 2.606 . S
Gd756 O803 2.429 . S
Gd756 O804 2.545 . S
Gd756 O805 2.412 . S
Gd756 O807 2.362 . S
Gd756 O808 2.324 . S
Gd756 C815 2.828 . S
Gd757 N766 2.661 . S
Gd757 N770 2.601 . S
Gd757 O801 2.362 . S
Gd757 O802 2.324 . S
Gd757 O806 2.545 . S
Gd757 O807 2.606 . S
Gd757 O809 2.429 . S
Gd757 O810 2.545 . S
Gd757 O811 2.412 . S
Gd757 C824 2.828 . S
C758 C761 1.417 . S
C758 C763 1.431 . S
C758 C764 1.412 . S
C759 C762 1.437 . S
C759 C763 1.317 . S
C759 H778 0.929 . S
C760 C761 1.426 . S
C760 C762 1.413 . S
C760 N770 1.359 . S
C761 C758 1.417 . S
C761 C760 1.426 . S
C761 N766 1.350 . S
C762 C759 1.437 . S
C762 C760 1.413 . S
C762 C772 1.391 . S
C763 C758 1.431 . S
C763 C759 1.317 . S
C763 H774 0.930 . S
C764 C758 1.412 . S
C764 C765 1.355 . S
C764 H776 0.930 . S
C765 C764 1.355 . S
C765 C767 1.402 . S
C765 H777 0.930 . S
N766 Gd757 2.661 . S
N766 C761 1.350 . S
N766 C767 1.307 . S
C767 C765 1.402 . S
C767 N766 1.307 . S
C767 H768 0.930 . S
H768 C767 0.930 . S
C769 N770 1.334 . S
C769 C771 1.394 . S
C769 H773 0.930 . S
N770 Gd757 2.601 . S
N770 C760 1.359 . S
N770 C769 1.334 . S
C771 C769 1.394 . S
C771 C772 1.359 . S
C771 H783 0.930 . S
C772 C762 1.391 . S
C772 C771 1.359 . S
C772 H784 0.929 . S
H773 C769 0.930 . S
H774 C763 0.930 . S
H775 C792 0.930 . S
H776 C764 0.930 . S
H777 C765 0.930 . S
H778 C759 0.929 . S
H779 C797 0.930 . S
H780 C788 0.930 . S
H781 C789 0.930 . S
H782 C813 0.929 . S
H783 C771 0.930 . S
H784 C772 0.929 . S
H785 C814 0.930 . S
H786 C795 0.930 . S
N787 Gd756 2.661 . S
N787 C791 1.350 . S
N787 C792 1.307 . S
C788 H780 0.930 . S
C788 C789 1.355 . S
C788 C790 1.412 . S
C789 H781 0.930 . S
C789 C788 1.355 . S
C789 C792 1.402 . S
C790 C788 1.412 . S
C790 C791 1.417 . S
C790 C814 1.431 . S
C791 N787 1.350 . S
C791 C790 1.417 . S
C791 C794 1.426 . S
C792 H775 0.930 . S
C792 N787 1.307 . S
C792 C789 1.402 . S
N793 Gd756 2.601 . S
N793 C794 1.359 . S
N793 C797 1.334 . S
C794 C791 1.426 . S
C794 N793 1.359 . S
C794 C798 1.413 . S
C795 H786 0.930 . S
C795 C796 1.359 . S
C795 C797 1.394 . S
C796 C795 1.359 . S
C796 C798 1.391 . S
C796 H799 0.929 . S
C797 H779 0.930 . S
C797 N793 1.334 . S
C797 C795 1.394 . S
C798 C794 1.413 . S
C798 C796 1.391 . S
C798 C813 1.437 . S
H799 C796 0.929 . S
O800 Gd756 2.545 . S
O800 C815 1.258 . S
O801 Gd756 2.606 . S
O801 Gd757 2.362 . S
O801 C812 1.284 . S
O802 Gd757 2.324 . S
O802 C822 1.254 . S
O803 Gd756 2.429 . S
O803 C822 1.268 . S
O804 Gd756 2.545 . S
O804 C812 1.250 . S
O805 Gd756 2.412 . S
O805 C815 1.252 . S
O806 Gd757 2.545 . S
O806 C824 1.258 . S
O807 Gd756 2.362 . S
O807 Gd757 2.606 . S
O807 C823 1.284 . S
O808 Gd756 2.324 . S
O808 C831 1.254 . S
O809 Gd757 2.429 . S
O809 C831 1.268 . S
O810 Gd757 2.545 . S
O810 C823 1.250 . S
O811 Gd757 2.412 . S
O811 C824 1.252 . S
C812 O801 1.284 . S
C812 O804 1.250 . S
C813 H782 0.929 . S
C813 C798 1.437 . S
C813 C814 1.317 . S
C814 H785 0.930 . S
C814 C790 1.431 . S
C814 C813 1.317 . S
C815 Gd756 2.828 . S
C815 O800 1.258 . S
C815 O805 1.252 . S
C815 C816 1.497 . S
C816 C815 1.497 . S
C816 C817 1.395 . S
C816 C818 1.380 . S
C817 C816 1.395 . S
C817 C820 1.398 . S
C817 H832 0.930 . S
C818 C816 1.380 . S
C818 C819 1.391 . S
C818 H833 0.930 . S
C819 C818 1.391 . S
C819 C821 1.387 . S
C820 C817 1.398 . S
C820 C821 1.380 . S
C820 H834 0.930 . S
C821 C819 1.387 . S
C821 C820 1.380 . S
C821 H835 0.930 . S
C822 O802 1.254 . S
C822 O803 1.268 . S
C823 O807 1.284 . S
C823 O810 1.250 . S
C824 Gd757 2.828 . S
C824 O806 1.258 . S
C824 O811 1.252 . S
C824 C825 1.497 . S
C825 C824 1.497 . S
C825 C826 1.395 . S
C825 C827 1.380 . S
C826 C825 1.395 . S
C826 C829 1.398 . S
C826 H836 0.930 . S
C827 C825 1.380 . S
C827 C828 1.391 . S
C827 H837 0.930 . S
C828 C827 1.391 . S
C828 C830 1.387 . S
C829 C826 1.398 . S
C829 C830 1.380 . S
C829 H838 0.930 . S
C830 C828 1.387 . S
C830 C829 1.380 . S
C830 H839 0.930 . S
C831 O808 1.254 . S
C831 O809 1.268 . S
H832 C817 0.930 . S
H833 C818 0.930 . S
H834 C820 0.930 . S
H835 C821 0.930 . S
H836 C826 0.930 . S
H837 C827 0.930 . S
H838 C829 0.930 . S
H839 C830 0.930 . S
Gd840 N871 2.661 1_554 S
Gd840 N877 2.601 1_554 S
Gd840 O884 2.545 1_554 S
Gd840 O885 2.606 . S
Gd840 O887 2.429 . S
Gd840 O888 2.545 . S
Gd840 O889 2.412 1_554 S
Gd840 O891 2.362 . S
Gd840 O892 2.323 1_554 S
Gd840 C899 2.828 1_554 S
Gd841 N850 2.661 . S
Gd841 N854 2.601 . S
Gd841 O885 2.362 . S
Gd841 O886 2.324 . S
Gd841 O890 2.545 . S
Gd841 O891 2.606 . S
Gd841 O893 2.429 . S
Gd841 O894 2.545 . S
Gd841 O895 2.412 . S
Gd841 C908 2.828 . S
C842 C845 1.417 . S
C842 C847 1.431 . S
C842 C848 1.412 . S
C843 C846 1.437 . S
C843 C847 1.317 . S
C843 H862 0.929 . S
C844 C845 1.426 . S
C844 C846 1.413 . S
C844 N854 1.359 . S
C845 C842 1.417 . S
C845 C844 1.426 . S
C845 N850 1.350 . S
C846 C843 1.437 . S
C846 C844 1.413 . S
C846 C856 1.391 . S
C847 C842 1.431 . S
C847 C843 1.317 . S
C847 H858 0.930 . S
C848 C842 1.412 . S
C848 C849 1.355 . S
C848 H860 0.930 . S
C849 C848 1.355 . S
C849 C851 1.402 . S
C849 H861 0.930 . S
N850 Gd841 2.661 . S
N850 C845 1.350 . S
N850 C851 1.307 . S
C851 C849 1.402 . S
C851 N850 1.307 . S
C851 H852 0.930 . S
H852 C851 0.930 . S
C853 N854 1.334 . S
C853 C855 1.394 1_545 S
C853 H857 0.930 1_545 S
N854 Gd841 2.601 . S
N854 C844 1.359 . S
N854 C853 1.334 . S
C855 C853 1.394 1_565 S
C855 C856 1.359 1_565 S
C855 H867 0.930 . S
C856 C846 1.391 . S
C856 C855 1.359 1_545 S
C856 H868 0.918 1_545 S
H857 C853 0.930 1_565 S
H858 C847 0.930 . S
H859 C876 0.930 . S
H860 C848 0.930 . S
H861 C849 0.930 . S
H862 C843 0.929 . S
H863 C881 0.926 1_554 S
H864 C872 0.930 . S
H865 C873 0.930 . S
H866 C897 0.929 . S
H867 C855 0.930 . S
H868 C856 0.918 1_565 S
H869 C898 0.930 . S
H870 C879 0.930 . S
N871 Gd840 2.661 1_556 S
N871 C875 1.350 . S
N871 C876 1.307 . S
C872 H864 0.930 . S
C872 C873 1.355 . S
C872 C874 1.412 1_565 S
C873 H865 0.930 . S
C873 C872 1.355 . S
C873 C876 1.402 1_565 S
C874 C872 1.412 1_545 S
C874 C875 1.417 . S
C874 C898 1.431 . S
C875 N871 1.350 . S
C875 C874 1.417 . S
C875 C878 1.426 . S
C876 H859 0.930 . S
C876 N871 1.307 . S
C876 C873 1.402 1_545 S
N877 Gd840 2.601 1_556 S
N877 C878 1.359 . S
N877 C881 1.334 . S
C878 C875 1.426 . S
C878 N877 1.359 . S
C878 C882 1.413 . S
C879 H870 0.930 . S
C879 C880 1.359 . S
C879 C881 1.394 . S
C880 C879 1.359 . S
C880 C882 1.391 . S
C880 H883 0.929 . S
C881 H863 0.926 1_556 S
C881 N877 1.334 . S
C881 C879 1.394 . S
C882 C878 1.413 . S
C882 C880 1.391 . S
C882 C897 1.437 . S
H883 C880 0.929 . S
O884 Gd840 2.545 1_556 S
O884 C899 1.258 . S
O885 Gd840 2.606 . S
O885 Gd841 2.362 . S
O885 C896 1.284 . S
O886 Gd841 2.324 . S
O886 C906 1.254 . S
O887 Gd840 2.429 . S
O887 C906 1.268 . S
O888 Gd840 2.545 . S
O888 C896 1.250 . S
O889 Gd840 2.412 1_556 S
O889 C899 1.252 . S
O890 Gd841 2.545 . S
O890 C908 1.258 . S
O891 Gd840 2.362 . S
O891 Gd841 2.606 . S
O891 C907 1.284 . S
O892 Gd840 2.323 1_556 S
O892 C915 1.256 1_556 S
O893 Gd841 2.429 . S
O893 C915 1.268 . S
O894 Gd841 2.545 . S
O894 C907 1.250 . S
O895 Gd841 2.412 . S
O895 C908 1.252 . S
C896 O885 1.284 . S
C896 O888 1.250 . S
C897 H866 0.929 . S
C897 C882 1.437 . S
C897 C898 1.317 . S
C898 H869 0.930 . S
C898 C874 1.431 . S
C898 C897 1.317 . S
C899 Gd840 2.828 1_556 S
C899 O884 1.258 . S
C899 O889 1.252 . S
C899 C900 1.497 . S
C900 C899 1.497 . S
C900 C901 1.395 . S
C900 C902 1.380 . S
C901 C900 1.395 . S
C901 C904 1.398 . S
C901 H916 0.930 . S
C902 C900 1.380 . S
C902 C903 1.391 . S
C902 H917 0.930 . S
C903 C902 1.391 . S
C903 C905 1.387 . S
C904 C901 1.398 . S
C904 C905 1.380 . S
C904 H918 0.930 . S
C905 C903 1.387 . S
C905 C904 1.380 . S
C905 H919 0.930 . S
C906 O886 1.254 . S
C906 O887 1.268 . S
C907 O891 1.284 . S
C907 O894 1.250 . S
C908 Gd841 2.828 . S
C908 O890 1.258 . S
C908 O895 1.252 . S
C908 C909 1.497 . S
C909 C908 1.497 . S
C909 C910 1.395 . S
C909 C911 1.380 . S
C910 C909 1.395 . S
C910 C913 1.408 . S
C910 H920 0.930 1_545 S
C911 C909 1.380 . S
C911 C912 1.391 . S
C911 H921 0.930 . S
C912 C911 1.391 . S
C912 C914 1.387 . S
C913 C910 1.408 . S
C913 C914 1.405 . S
C913 H922 0.896 1_545 S
C914 C912 1.387 . S
C914 C913 1.405 . S
C914 H923 0.930 . S
C915 O892 1.256 1_554 S
C915 O893 1.268 . S
H916 C901 0.930 . S
H917 C902 0.930 . S
H918 C904 0.930 . S
H919 C905 0.930 . S
H920 C910 0.930 1_565 S
H921 C911 0.930 . S
H922 C913 0.896 1_565 S
H923 C914 0.930 . S
Gd924 N955 2.661 . S
Gd924 N961 2.601 . S
Gd924 O968 2.545 . S
Gd924 O969 2.606 . S
Gd924 O971 2.429 . S
Gd924 O972 2.545 . S
Gd924 O973 2.412 . S
Gd924 O975 2.362 . S
Gd924 O976 2.324 . S
Gd924 C983 2.828 . S
Gd925 N934 2.661 . S
Gd925 N938 2.601 . S
Gd925 O969 2.362 . S
Gd925 O970 2.324 . S
Gd925 O974 2.545 . S
Gd925 O975 2.606 . S
Gd925 O977 2.429 . S
Gd925 O978 2.545 . S
Gd925 O979 2.412 . S
Gd925 C992 2.828 . S
C926 C929 1.417 . S
C926 C931 1.431 . S
C926 C932 1.412 . S
C927 C930 1.437 . S
C927 C931 1.317 . S
C927 H946 0.929 . S
C928 C929 1.426 . S
C928 C930 1.413 . S
C928 N938 1.359 . S
C929 C926 1.417 . S
C929 C928 1.426 . S
C929 N934 1.350 . S
C930 C927 1.437 . S
C930 C928 1.413 . S
C930 C940 1.391 . S
C931 C926 1.431 . S
C931 C927 1.317 . S
C931 H942 0.930 . S
C932 C926 1.412 . S
C932 C933 1.355 . S
C932 H944 0.930 . S
C933 C932 1.355 . S
C933 C935 1.402 . S
C933 H945 0.930 . S
N934 Gd925 2.661 . S
N934 C929 1.350 . S
N934 C935 1.307 . S
C935 C933 1.402 . S
C935 N934 1.307 . S
C935 H936 0.930 . S
H936 C935 0.930 . S
C937 N938 1.334 . S
C937 C939 1.394 . S
C937 H941 0.930 . S
N938 Gd925 2.601 . S
N938 C928 1.359 . S
N938 C937 1.334 . S
C939 C937 1.394 . S
C939 C940 1.359 . S
C939 H951 0.930 . S
C940 C930 1.391 . S
C940 C939 1.359 . S
C940 H952 0.929 . S
H941 C937 0.930 . S
H942 C931 0.930 . S
H943 C960 0.930 . S
H944 C932 0.930 . S
H945 C933 0.930 . S
H946 C927 0.929 . S
H947 C965 0.930 . S
H948 C956 0.930 . S
H949 C957 0.930 . S
H950 C981 0.929 . S
H951 C939 0.930 . S
H952 C940 0.929 . S
H953 C982 0.930 . S
H954 C963 0.930 . S
N955 Gd924 2.661 . S
N955 C959 1.350 . S
N955 C960 1.307 . S
C956 H948 0.930 . S
C956 C957 1.355 . S
C956 C958 1.412 . S
C957 H949 0.930 . S
C957 C956 1.355 . S
C957 C960 1.402 . S
C958 C956 1.412 . S
C958 C959 1.417 . S
C958 C982 1.431 . S
C959 N955 1.350 . S
C959 C958 1.417 . S
C959 C962 1.426 . S
C960 H943 0.930 . S
C960 N955 1.307 . S
C960 C957 1.402 . S
N961 Gd924 2.601 . S
N961 C962 1.359 . S
N961 C965 1.334 . S
C962 C959 1.426 . S
C962 N961 1.359 . S
C962 C966 1.413 . S
C963 H954 0.930 . S
C963 C964 1.359 . S
C963 C965 1.394 . S
C964 C963 1.359 . S
C964 C966 1.391 . S
C964 H967 0.929 . S
C965 H947 0.930 . S
C965 N961 1.334 . S
C965 C963 1.394 . S
C966 C962 1.413 . S
C966 C964 1.391 . S
C966 C981 1.437 . S
H967 C964 0.929 . S
O968 Gd924 2.545 . S
O968 C983 1.258 . S
O969 Gd924 2.606 . S
O969 Gd925 2.362 . S
O969 C980 1.284 . S
O970 Gd925 2.324 . S
O970 C990 1.254 . S
O971 Gd924 2.429 . S
O971 C990 1.268 . S
O972 Gd924 2.545 . S
O972 C980 1.250 . S
O973 Gd924 2.412 . S
O973 C983 1.252 . S
O974 Gd925 2.545 . S
O974 C992 1.258 . S
O975 Gd924 2.362 . S
O975 Gd925 2.606 . S
O975 C991 1.284 . S
O976 Gd924 2.324 . S
O976 C999 1.254 . S
O977 Gd925 2.429 . S
O977 C999 1.268 . S
O978 Gd925 2.545 . S
O978 C991 1.250 . S
O979 Gd925 2.412 . S
O979 C992 1.252 . S
C980 O969 1.284 . S
C980 O972 1.250 . S
C981 H950 0.929 . S
C981 C966 1.437 . S
C981 C982 1.317 . S
C982 H953 0.930 . S
C982 C958 1.431 . S
C982 C981 1.317 . S
C983 Gd924 2.828 . S
C983 O968 1.258 . S
C983 O973 1.252 . S
C983 C984 1.497 . S
C984 C983 1.497 . S
C984 C985 1.395 . S
C984 C986 1.380 . S
C985 C984 1.395 . S
C985 C988 1.398 . S
C985 H1000 0.930 . S
C986 C984 1.380 . S
C986 C987 1.391 . S
C986 H1001 0.930 . S
C987 C986 1.391 . S
C987 C989 1.387 . S
C988 C985 1.398 . S
C988 C989 1.380 . S
C988 H1002 0.930 . S
C989 C987 1.387 . S
C989 C988 1.380 . S
C989 H1003 0.930 . S
C990 O970 1.254 . S
C990 O971 1.268 . S
C991 O975 1.284 . S
C991 O978 1.250 . S
C992 Gd925 2.828 . S
C992 O974 1.258 . S
C992 O979 1.252 . S
C992 C993 1.497 . S
C993 C992 1.497 . S
C993 C994 1.395 . S
C993 C995 1.380 . S
C994 C993 1.395 . S
C994 C997 1.398 . S
C994 H1004 0.930 . S
C995 C993 1.380 . S
C995 C996 1.391 . S
C995 H1005 0.930 . S
C996 C995 1.391 . S
C996 C998 1.387 . S
C997 C994 1.398 . S
C997 C998 1.380 . S
C997 H1006 0.930 . S
C998 C996 1.387 . S
C998 C997 1.380 . S
C998 H1007 0.930 . S
C999 O976 1.254 . S
C999 O977 1.268 . S
H1000 C985 0.930 . S
H1001 C986 0.930 . S
H1002 C988 0.930 . S
H1003 C989 0.930 . S
H1004 C994 0.930 . S
H1005 C995 0.930 . S
H1006 C997 0.930 . S
H1007 C998 0.930 . S
Gd1008 N1039 2.661 1_554 S
Gd1008 N1045 2.601 1_554 S
Gd1008 O1052 2.545 . S
Gd1008 O1053 2.606 . S
Gd1008 O1055 2.429 . S
Gd1008 O1056 2.545 . S
Gd1008 O1057 2.412 . S
Gd1008 O1059 2.362 . S
Gd1008 O1060 2.324 . S
Gd1008 C1067 2.828 . S
Gd1009 N1018 2.661 . S
Gd1009 N1022 2.601 . S
Gd1009 O1053 2.362 . S
Gd1009 O1054 2.324 . S
Gd1009 O1058 2.545 . S
Gd1009 O1059 2.606 . S
Gd1009 O1061 2.429 . S
Gd1009 O1062 2.545 1_554 S
Gd1009 O1063 2.412 . S
Gd1009 C1076 2.828 . S
C1010 C1013 1.417 . S
C1010 C1015 1.431 . S
C1010 C1016 1.412 . S
C1011 C1014 1.437 . S
C1011 C1015 1.317 . S
C1011 H1030 0.929 . S
C1012 C1013 1.426 . S
C1012 C1014 1.413 . S
C1012 N1022 1.359 . S
C1013 C1010 1.417 . S
C1013 C1012 1.426 . S
C1013 N1018 1.350 . S
C1014 C1011 1.437 . S
C1014 C1012 1.413 . S
C1014 C1024 1.391 . S
C1015 C1010 1.431 . S
C1015 C1011 1.317 . S
C1015 H1026 0.930 . S
C1016 C1010 1.412 . S
C1016 C1017 1.355 . S
C1016 H1028 0.930 . S
C1017 C1016 1.355 . S
C1017 C1019 1.402 . S
C1017 H1029 0.930 . S
N1018 Gd1009 2.661 . S
N1018 C1013 1.350 . S
N1018 C1019 1.307 . S
C1019 C1017 1.402 . S
C1019 N1018 1.307 . S
C1019 H1020 0.930 . S
H1020 C1019 0.930 . S
C1021 N1022 1.334 . S
C1021 C1023 1.394 . S
C1021 H1025 0.930 . S
N1022 Gd1009 2.601 . S
N1022 C1012 1.359 . S
N1022 C1021 1.334 . S
C1023 C1021 1.394 . S
C1023 C1024 1.359 . S
C1023 H1035 0.930 . S
C1024 C1014 1.391 . S
C1024 C1023 1.359 . S
C1024 H1036 0.929 . S
H1025 C1021 0.930 . S
H1026 C1015 0.930 . S
H1027 C1044 0.930 . S
H1028 C1016 0.930 . S
H1029 C1017 0.930 . S
H1030 C1011 0.929 . S
H1031 C1049 0.930 . S
H1032 C1040 0.930 . S
H1033 C1041 0.930 . S
H1034 C1065 0.929 . S
H1035 C1023 0.930 . S
H1036 C1024 0.929 . S
H1037 C1066 0.930 . S
H1038 C1047 0.930 . S
N1039 Gd1008 2.661 1_556 S
N1039 C1043 1.350 . S
N1039 C1044 1.307 . S
C1040 H1032 0.930 . S
C1040 C1041 1.355 . S
C1040 C1042 1.412 . S
C1041 H1033 0.930 . S
C1041 C1040 1.355 . S
C1041 C1044 1.402 . S
C1042 C1040 1.412 . S
C1042 C1043 1.417 . S
C1042 C1066 1.431 . S
C1043 N1039 1.350 . S
C1043 C1042 1.417 . S
C1043 C1046 1.426 . S
C1044 H1027 0.930 . S
C1044 N1039 1.307 . S
C1044 C1041 1.402 . S
N1045 Gd1008 2.601 1_556 S
N1045 C1046 1.359 . S
N1045 C1049 1.334 . S
C1046 C1043 1.426 . S
C1046 N1045 1.359 . S
C1046 C1050 1.413 . S
C1047 H1038 0.930 . S
C1047 C1048 1.359 . S
C1047 C1049 1.394 . S
C1048 C1047 1.359 . S
C1048 C1050 1.391 . S
C1048 H1051 0.929 . S
C1049 H1031 0.930 . S
C1049 N1045 1.334 . S
C1049 C1047 1.394 . S
C1050 C1046 1.413 . S
C1050 C1048 1.391 . S
C1050 C1065 1.437 . S
H1051 C1048 0.929 . S
O1052 Gd1008 2.545 . S
O1052 C1067 1.258 . S
O1053 Gd1008 2.606 . S
O1053 Gd1009 2.362 . S
O1053 C1064 1.284 . S
O1054 Gd1009 2.324 . S
O1054 C1074 1.254 . S
O1055 Gd1008 2.429 . S
O1055 C1074 1.268 . S
O1056 Gd1008 2.545 . S
O1056 C1064 1.250 . S
O1057 Gd1008 2.412 . S
O1057 C1067 1.252 . S
O1058 Gd1009 2.545 . S
O1058 C1076 1.258 . S
O1059 Gd1008 2.362 . S
O1059 Gd1009 2.606 . S
O1059 C1075 1.284 1_554 S
O1060 Gd1008 2.324 . S
O1060 C1083 1.254 . S
O1061 Gd1009 2.429 . S
O1061 C1083 1.268 . S
O1062 Gd1009 2.545 1_556 S
O1062 C1075 1.250 . S
O1063 Gd1009 2.412 . S
O1063 C1076 1.252 . S
C1064 O1053 1.284 . S
C1064 O1056 1.250 . S
C1065 H1034 0.929 . S
C1065 C1050 1.437 . S
C1065 C1066 1.317 . S
C1066 H1037 0.930 . S
C1066 C1042 1.431 . S
C1066 C1065 1.317 . S
C1067 Gd1008 2.828 . S
C1067 O1052 1.258 . S
C1067 O1057 1.252 . S
C1067 C1068 1.497 . S
C1068 C1067 1.497 . S
C1068 C1069 1.395 . S
C1068 C1070 1.380 . S
C1069 C1068 1.395 . S
C1069 C1072 1.398 . S
C1069 H1084 0.930 . S
C1070 C1068 1.380 . S
C1070 C1071 1.391 . S
C1070 H1085 0.930 . S
C1071 C1070 1.391 . S
C1071 C1073 1.387 . S
C1072 C1069 1.398 . S
C1072 C1073 1.380 . S
C1072 H1086 0.930 . S
C1073 C1071 1.387 . S
C1073 C1072 1.380 . S
C1073 H1087 0.930 . S
C1074 O1054 1.254 . S
C1074 O1055 1.268 . S
C1075 O1059 1.284 1_556 S
C1075 O1062 1.250 . S
C1076 Gd1009 2.828 . S
C1076 O1058 1.258 . S
C1076 O1063 1.252 . S
C1076 C1077 1.497 . S
C1077 C1076 1.497 . S
C1077 C1078 1.395 . S
C1077 C1079 1.380 . S
C1078 C1077 1.395 . S
C1078 C1081 1.398 . S
C1078 H1088 0.930 . S
C1079 C1077 1.380 . S
C1079 C1080 1.391 . S
C1079 H1089 0.930 . S
C1080 C1079 1.391 . S
C1080 C1082 1.387 . S
C1081 C1078 1.398 . S
C1081 C1082 1.380 . S
C1081 H1090 0.930 . S
C1082 C1080 1.387 . S
C1082 C1081 1.380 . S
C1082 H1091 0.930 . S
C1083 O1060 1.254 . S
C1083 O1061 1.268 . S
H1084 C1069 0.930 . S
H1085 C1070 0.930 . S
H1086 C1072 0.930 . S
H1087 C1073 0.930 . S
H1088 C1078 0.930 . S
H1089 C1079 0.930 . S
H1090 C1081 0.930 . S
H1091 C1082 0.930 . S
Gd1092 N1123 2.661 . S
Gd1092 N1129 2.601 . S
Gd1092 O1136 2.545 . S
Gd1092 O1137 2.606 . S
Gd1092 O1139 2.429 . S
Gd1092 O1140 2.545 . S
Gd1092 O1141 2.412 . S
Gd1092 O1143 2.362 . S
Gd1092 O1144 2.324 . S
Gd1092 C1151 2.828 . S
Gd1093 N1102 2.661 . S
Gd1093 N1106 2.601 . S
Gd1093 O1137 2.362 . S
Gd1093 O1138 2.324 . S
Gd1093 O1142 2.545 . S
Gd1093 O1143 2.606 . S
Gd1093 O1145 2.429 . S
Gd1093 O1146 2.545 . S
Gd1093 O1147 2.412 . S
Gd1093 C1160 2.828 . S
C1094 C1097 1.417 . S
C1094 C1099 1.431 . S
C1094 C1100 1.412 . S
C1095 C1098 1.437 . S
C1095 C1099 1.317 . S
C1095 H1114 0.929 . S
C1096 C1097 1.426 . S
C1096 C1098 1.413 . S
C1096 N1106 1.359 . S
C1097 C1094 1.417 . S
C1097 C1096 1.426 . S
C1097 N1102 1.350 . S
C1098 C1095 1.437 . S
C1098 C1096 1.413 . S
C1098 C1108 1.391 . S
C1099 C1094 1.431 . S
C1099 C1095 1.317 . S
C1099 H1110 0.930 . S
C1100 C1094 1.412 . S
C1100 C1101 1.355 . S
C1100 H1112 0.930 . S
C1101 C1100 1.355 . S
C1101 C1103 1.402 . S
C1101 H1113 0.930 . S
N1102 Gd1093 2.661 . S
N1102 C1097 1.350 . S
N1102 C1103 1.307 . S
C1103 C1101 1.402 . S
C1103 N1102 1.307 . S
C1103 H1104 0.930 . S
H1104 C1103 0.930 . S
C1105 N1106 1.334 . S
C1105 C1107 1.394 . S
C1105 H1109 0.930 . S
N1106 Gd1093 2.601 . S
N1106 C1096 1.359 . S
N1106 C1105 1.334 . S
C1107 C1105 1.394 . S
C1107 C1108 1.359 . S
C1107 H1119 0.930 . S
C1108 C1098 1.391 . S
C1108 C1107 1.359 . S
C1108 H1120 0.929 . S
H1109 C1105 0.930 . S
H1110 C1099 0.930 . S
H1111 C1128 0.930 . S
H1112 C1100 0.930 . S
H1113 C1101 0.930 . S
H1114 C1095 0.929 . S
H1115 C1133 0.930 . S
H1116 C1124 0.930 . S
H1117 C1125 0.930 . S
H1118 C1149 0.929 . S
H1119 C1107 0.930 . S
H1120 C1108 0.929 . S
H1121 C1150 0.930 . S
H1122 C1131 0.930 . S
N1123 Gd1092 2.661 . S
N1123 C1127 1.350 . S
N1123 C1128 1.307 . S
C1124 H1116 0.930 . S
C1124 C1125 1.355 . S
C1124 C1126 1.412 . S
C1125 H1117 0.930 . S
C1125 C1124 1.355 . S
C1125 C1128 1.402 . S
C1126 C1124 1.412 . S
C1126 C1127 1.417 . S
C1126 C1150 1.431 . S
C1127 N1123 1.350 . S
C1127 C1126 1.417 . S
C1127 C1130 1.426 . S
C1128 H1111 0.930 . S
C1128 N1123 1.307 . S
C1128 C1125 1.402 . S
N1129 Gd1092 2.601 . S
N1129 C1130 1.359 . S
N1129 C1133 1.334 . S
C1130 C1127 1.426 . S
C1130 N1129 1.359 . S
C1130 C1134 1.413 . S
C1131 H1122 0.930 . S
C1131 C1132 1.359 . S
C1131 C1133 1.394 . S
C1132 C1131 1.359 . S
C1132 C1134 1.391 . S
C1132 H1135 0.929 . S
C1133 H1115 0.930 . S
C1133 N1129 1.334 . S
C1133 C1131 1.394 . S
C1134 C1130 1.413 . S
C1134 C1132 1.391 . S
C1134 C1149 1.437 . S
H1135 C1132 0.929 . S
O1136 Gd1092 2.545 . S
O1136 C1151 1.258 . S
O1137 Gd1092 2.606 . S
O1137 Gd1093 2.362 . S
O1137 C1148 1.284 . S
O1138 Gd1093 2.324 . S
O1138 C1158 1.254 . S
O1139 Gd1092 2.429 . S
O1139 C1158 1.268 . S
O1140 Gd1092 2.545 . S
O1140 C1148 1.250 . S
O1141 Gd1092 2.412 . S
O1141 C1151 1.252 . S
O1142 Gd1093 2.545 . S
O1142 C1160 1.258 . S
O1143 Gd1092 2.362 . S
O1143 Gd1093 2.606 . S
O1143 C1159 1.284 . S
O1144 Gd1092 2.324 . S
O1144 C1167 1.254 . S
O1145 Gd1093 2.429 . S
O1145 C1167 1.268 . S
O1146 Gd1093 2.545 . S
O1146 C1159 1.250 . S
O1147 Gd1093 2.412 . S
O1147 C1160 1.252 . S
C1148 O1137 1.284 . S
C1148 O1140 1.250 . S
C1149 H1118 0.929 . S
C1149 C1134 1.437 . S
C1149 C1150 1.317 . S
C1150 H1121 0.930 . S
C1150 C1126 1.431 . S
C1150 C1149 1.317 . S
C1151 Gd1092 2.828 . S
C1151 O1136 1.258 . S
C1151 O1141 1.252 . S
C1151 C1152 1.497 . S
C1152 C1151 1.497 . S
C1152 C1153 1.395 . S
C1152 C1154 1.380 . S
C1153 C1152 1.395 . S
C1153 C1156 1.398 . S
C1153 H1168 0.930 . S
C1154 C1152 1.380 . S
C1154 C1155 1.391 . S
C1154 H1169 0.930 . S
C1155 C1154 1.391 . S
C1155 C1157 1.387 . S
C1156 C1153 1.398 . S
C1156 C1157 1.380 . S
C1156 H1170 0.930 . S
C1157 C1155 1.387 . S
C1157 C1156 1.380 . S
C1157 H1171 0.930 . S
C1158 O1138 1.254 . S
C1158 O1139 1.268 . S
C1159 O1143 1.284 . S
C1159 O1146 1.250 . S
C1160 Gd1093 2.828 . S
C1160 O1142 1.258 . S
C1160 O1147 1.252 . S
C1160 C1161 1.497 . S
C1161 C1160 1.497 . S
C1161 C1162 1.395 . S
C1161 C1163 1.380 . S
C1162 C1161 1.395 . S
C1162 C1165 1.398 . S
C1162 H1172 0.930 . S
C1163 C1161 1.380 . S
C1163 C1164 1.391 . S
C1163 H1173 0.930 . S
C1164 C1163 1.391 . S
C1164 C1166 1.387 . S
C1165 C1162 1.398 . S
C1165 C1166 1.380 . S
C1165 H1174 0.930 . S
C1166 C1164 1.387 . S
C1166 C1165 1.380 . S
C1166 H1175 0.930 . S
C1167 O1144 1.254 . S
C1167 O1145 1.268 . S
H1168 C1153 0.930 . S
H1169 C1154 0.930 . S
H1170 C1156 0.930 . S
H1171 C1157 0.930 . S
H1172 C1162 0.930 . S
H1173 C1163 0.930 . S
H1174 C1165 0.930 . S
H1175 C1166 0.930 . S
Gd1176 N1207 2.661 . S
Gd1176 N1213 2.601 . S
Gd1176 O1220 2.545 . S
Gd1176 O1221 2.606 . S
Gd1176 O1223 2.429 . S
Gd1176 O1224 2.545 . S
Gd1176 O1225 2.412 . S
Gd1176 O1227 2.362 . S
Gd1176 O1228 2.324 . S
Gd1176 C1235 2.828 . S
Gd1177 N1186 2.661 . S
Gd1177 N1190 2.601 . S
Gd1177 O1221 2.362 . S
Gd1177 O1222 2.324 . S
Gd1177 O1226 2.545 . S
Gd1177 O1227 2.606 . S
Gd1177 O1229 2.429 . S
Gd1177 O1230 2.545 . S
Gd1177 O1231 2.412 . S
Gd1177 C1244 2.828 . S
C1178 C1181 1.417 . S
C1178 C1183 1.431 . S
C1178 C1184 1.412 . S
C1179 C1182 1.437 . S
C1179 C1183 1.317 . S
C1179 H1198 0.929 . S
C1180 C1181 1.426 . S
C1180 C1182 1.413 . S
C1180 N1190 1.359 . S
C1181 C1178 1.417 . S
C1181 C1180 1.426 . S
C1181 N1186 1.350 . S
C1182 C1179 1.437 . S
C1182 C1180 1.413 . S
C1182 C1192 1.391 . S
C1183 C1178 1.431 . S
C1183 C1179 1.317 . S
C1183 H1194 0.930 . S
C1184 C1178 1.412 . S
C1184 C1185 1.355 . S
C1184 H1196 0.930 . S
C1185 C1184 1.355 . S
C1185 C1187 1.402 . S
C1185 H1197 0.930 . S
N1186 Gd1177 2.661 . S
N1186 C1181 1.350 . S
N1186 C1187 1.307 . S
C1187 C1185 1.402 . S
C1187 N1186 1.307 . S
C1187 H1188 0.930 . S
H1188 C1187 0.930 . S
C1189 N1190 1.334 . S
C1189 C1191 1.394 . S
C1189 H1193 0.930 . S
N1190 Gd1177 2.601 . S
N1190 C1180 1.359 . S
N1190 C1189 1.334 . S
C1191 C1189 1.394 . S
C1191 C1192 1.359 . S
C1191 H1203 0.930 . S
C1192 C1182 1.391 . S
C1192 C1191 1.359 . S
C1192 H1204 0.929 . S
H1193 C1189 0.930 . S
H1194 C1183 0.930 . S
H1195 C1212 0.930 . S
H1196 C1184 0.930 . S
H1197 C1185 0.930 . S
H1198 C1179 0.929 . S
H1199 C1217 0.930 . S
H1200 C1208 0.930 . S
H1201 C1209 0.930 . S
H1202 C1233 0.929 . S
H1203 C1191 0.930 . S
H1204 C1192 0.929 . S
H1205 C1234 0.930 . S
H1206 C1215 0.930 . S
N1207 Gd1176 2.661 . S
N1207 C1211 1.350 . S
N1207 C1212 1.307 . S
C1208 H1200 0.930 . S
C1208 C1209 1.355 1_655 S
C1208 C1210 1.412 . S
C1209 H1201 0.930 . S
C1209 C1208 1.355 1_455 S
C1209 C1212 1.402 . S
C1210 C1208 1.412 . S
C1210 C1211 1.417 1_655 S
C1210 C1234 1.431 . S
C1211 N1207 1.350 . S
C1211 C1210 1.417 1_455 S
C1211 C1214 1.426 . S
C1212 H1195 0.930 . S
C1212 N1207 1.307 . S
C1212 C1209 1.402 . S
N1213 Gd1176 2.601 . S
N1213 C1214 1.359 . S
N1213 C1217 1.334 . S
C1214 C1211 1.426 . S
C1214 N1213 1.359 . S
C1214 C1218 1.413 1_455 S
C1215 H1206 0.930 . S
C1215 C1216 1.331 1_455 S
C1215 C1217 1.394 . S
C1216 C1215 1.331 1_655 S
C1216 C1218 1.387 . S
C1216 H1219 0.963 . S
C1217 H1199 0.930 . S
C1217 N1213 1.334 . S
C1217 C1215 1.394 . S
C1218 C1214 1.413 1_655 S
C1218 C1216 1.387 . S
C1218 C1233 1.437 . S
H1219 C1216 0.963 . S
O1220 Gd1176 2.545 . S
O1220 C1235 1.258 . S
O1221 Gd1176 2.606 . S
O1221 Gd1177 2.362 . S
O1221 C1232 1.284 . S
O1222 Gd1177 2.324 . S
O1222 C1242 1.254 . S
O1223 Gd1176 2.429 . S
O1223 C1242 1.268 . S
O1224 Gd1176 2.545 . S
O1224 C1232 1.250 . S
O1225 Gd1176 2.412 . S
O1225 C1235 1.252 . S
O1226 Gd1177 2.545 . S
O1226 C1244 1.258 . S
O1227 Gd1176 2.362 . S
O1227 Gd1177 2.606 . S
O1227 C1243 1.284 . S
O1228 Gd1176 2.324 . S
O1228 C1251 1.254 . S
O1229 Gd1177 2.429 . S
O1229 C1251 1.268 . S
O1230 Gd1177 2.545 . S
O1230 C1243 1.250 . S
O1231 Gd1177 2.412 . S
O1231 C1244 1.252 . S
C1232 O1221 1.284 . S
C1232 O1224 1.250 . S
C1233 H1202 0.929 . S
C1233 C1218 1.437 . S
C1233 C1234 1.317 . S
C1234 H1205 0.930 . S
C1234 C1210 1.431 . S
C1234 C1233 1.317 . S
C1235 Gd1176 2.828 . S
C1235 O1220 1.258 . S
C1235 O1225 1.252 . S
C1235 C1236 1.497 . S
C1236 C1235 1.497 . S
C1236 C1237 1.395 . S
C1236 C1238 1.380 . S
C1237 C1236 1.395 . S
C1237 C1240 1.398 . S
C1237 H1252 0.930 . S
C1238 C1236 1.380 . S
C1238 C1239 1.391 . S
C1238 H1253 0.930 . S
C1239 C1238 1.391 . S
C1239 C1241 1.387 . S
C1240 C1237 1.398 . S
C1240 C1241 1.380 . S
C1240 H1254 0.930 . S
C1241 C1239 1.387 . S
C1241 C1240 1.380 . S
C1241 H1255 0.930 . S
C1242 O1222 1.254 . S
C1242 O1223 1.268 . S
C1243 O1227 1.284 . S
C1243 O1230 1.250 . S
C1244 Gd1177 2.828 . S
C1244 O1226 1.258 . S
C1244 O1231 1.252 . S
C1244 C1245 1.497 . S
C1245 C1244 1.497 . S
C1245 C1246 1.395 . S
C1245 C1247 1.380 . S
C1246 C1245 1.395 . S
C1246 C1249 1.398 . S
C1246 H1256 0.930 . S
C1247 C1245 1.380 . S
C1247 C1248 1.391 . S
C1247 H1257 0.930 . S
C1248 C1247 1.391 . S
C1248 C1250 1.387 . S
C1249 C1246 1.398 . S
C1249 C1250 1.380 . S
C1249 H1258 0.930 . S
C1250 C1248 1.387 . S
C1250 C1249 1.380 . S
C1250 H1259 0.930 . S
C1251 O1228 1.254 . S
C1251 O1229 1.268 . S
H1252 C1237 0.930 . S
H1253 C1238 0.930 . S
H1254 C1240 0.930 . S
H1255 C1241 0.930 . S
H1256 C1246 0.930 . S
H1257 C1247 0.930 . S
H1258 C1249 0.930 . S
H1259 C1250 0.930 . S
Gd1260 N1291 2.661 . S
Gd1260 N1297 2.601 . S
Gd1260 O1304 2.545 . S
Gd1260 O1305 2.606 . S
Gd1260 O1307 2.429 . S
Gd1260 O1308 2.545 . S
Gd1260 O1309 2.412 . S
Gd1260 O1311 2.362 . S
Gd1260 O1312 2.324 . S
Gd1260 C1319 2.828 . S
Gd1261 N1270 2.661 . S
Gd1261 N1274 2.601 . S
Gd1261 O1305 2.362 . S
Gd1261 O1306 2.324 . S
Gd1261 O1310 2.545 . S
Gd1261 O1311 2.606 . S
Gd1261 O1313 2.429 . S
Gd1261 O1314 2.545 . S
Gd1261 O1315 2.412 . S
Gd1261 C1328 2.828 . S
C1262 C1265 1.417 . S
C1262 C1267 1.431 . S
C1262 C1268 1.412 . S
C1263 C1266 1.437 . S
C1263 C1267 1.317 . S
C1263 H1282 0.929 . S
C1264 C1265 1.426 . S
C1264 C1266 1.413 . S
C1264 N1274 1.359 . S
C1265 C1262 1.417 . S
C1265 C1264 1.426 . S
C1265 N1270 1.350 . S
C1266 C1263 1.437 . S
C1266 C1264 1.413 . S
C1266 C1276 1.391 . S
C1267 C1262 1.431 . S
C1267 C1263 1.317 . S
C1267 H1278 0.930 . S
C1268 C1262 1.412 . S
C1268 C1269 1.355 . S
C1268 H1280 0.930 . S
C1269 C1268 1.355 . S
C1269 C1271 1.402 . S
C1269 H1281 0.930 . S
N1270 Gd1261 2.661 . S
N1270 C1265 1.350 . S
N1270 C1271 1.307 . S
C1271 C1269 1.402 . S
C1271 N1270 1.307 . S
C1271 H1272 0.930 . S
H1272 C1271 0.930 . S
C1273 N1274 1.334 . S
C1273 C1275 1.394 . S
C1273 H1277 0.930 . S
N1274 Gd1261 2.601 . S
N1274 C1264 1.359 . S
N1274 C1273 1.334 . S
C1275 C1273 1.394 . S
C1275 C1276 1.359 . S
C1275 H1287 0.930 . S
C1276 C1266 1.391 . S
C1276 C1275 1.359 . S
C1276 H1288 0.929 . S
H1277 C1273 0.930 . S
H1278 C1267 0.930 . S
H1279 C1296 0.930 . S
H1280 C1268 0.930 . S
H1281 C1269 0.930 . S
H1282 C1263 0.929 . S
H1283 C1301 0.930 . S
H1284 C1292 0.930 . S
H1285 C1293 0.930 . S
H1286 C1317 0.929 . S
H1287 C1275 0.930 . S
H1288 C1276 0.929 . S
H1289 C1318 0.930 . S
H1290 C1299 0.930 . S
N1291 Gd1260 2.661 . S
N1291 C1295 1.350 . S
N1291 C1296 1.307 . S
C1292 H1284 0.930 . S
C1292 C1293 1.355 . S
C1292 C1294 1.412 . S
C1293 H1285 0.930 . S
C1293 C1292 1.355 . S
C1293 C1296 1.402 . S
C1294 C1292 1.412 . S
C1294 C1295 1.417 . S
C1294 C1318 1.431 . S
C1295 N1291 1.350 . S
C1295 C1294 1.417 . S
C1295 C1298 1.426 . S
C1296 H1279 0.930 . S
C1296 N1291 1.307 . S
C1296 C1293 1.402 . S
N1297 Gd1260 2.601 . S
N1297 C1298 1.359 . S
N1297 C1301 1.334 . S
C1298 C1295 1.426 . S
C1298 N1297 1.359 . S
C1298 C1302 1.413 . S
C1299 H1290 0.930 . S
C1299 C1300 1.359 . S
C1299 C1301 1.394 . S
C1300 C1299 1.359 . S
C1300 C1302 1.391 . S
C1300 H1303 0.929 . S
C1301 H1283 0.930 . S
C1301 N1297 1.334 . S
C1301 C1299 1.394 . S
C1302 C1298 1.413 . S
C1302 C1300 1.391 . S
C1302 C1317 1.437 . S
H1303 C1300 0.929 . S
O1304 Gd1260 2.545 . S
O1304 C1319 1.258 . S
O1305 Gd1260 2.606 . S
O1305 Gd1261 2.362 . S
O1305 C1316 1.284 . S
O1306 Gd1261 2.324 . S
O1306 C1326 1.254 . S
O1307 Gd1260 2.429 . S
O1307 C1326 1.268 . S
O1308 Gd1260 2.545 . S
O1308 C1316 1.250 . S
O1309 Gd1260 2.412 . S
O1309 C1319 1.252 . S
O1310 Gd1261 2.545 . S
O1310 C1328 1.258 . S
O1311 Gd1260 2.362 . S
O1311 Gd1261 2.606 . S
O1311 C1327 1.284 . S
O1312 Gd1260 2.324 . S
O1312 C1335 1.254 . S
O1313 Gd1261 2.429 . S
O1313 C1335 1.268 . S
O1314 Gd1261 2.545 . S
O1314 C1327 1.250 . S
O1315 Gd1261 2.412 . S
O1315 C1328 1.252 . S
C1316 O1305 1.284 . S
C1316 O1308 1.250 . S
C1317 H1286 0.929 . S
C1317 C1302 1.437 . S
C1317 C1318 1.317 . S
C1318 H1289 0.930 . S
C1318 C1294 1.431 . S
C1318 C1317 1.317 . S
C1319 Gd1260 2.828 . S
C1319 O1304 1.258 . S
C1319 O1309 1.252 . S
C1319 C1320 1.497 . S
C1320 C1319 1.497 . S
C1320 C1321 1.395 . S
C1320 C1322 1.380 . S
C1321 C1320 1.395 . S
C1321 C1324 1.398 . S
C1321 H1336 0.930 . S
C1322 C1320 1.380 . S
C1322 C1323 1.391 . S
C1322 H1337 0.930 . S
C1323 C1322 1.391 . S
C1323 C1325 1.387 . S
C1324 C1321 1.398 . S
C1324 C1325 1.380 . S
C1324 H1338 0.930 . S
C1325 C1323 1.387 . S
C1325 C1324 1.380 . S
C1325 H1339 0.930 . S
C1326 O1306 1.254 . S
C1326 O1307 1.268 . S
C1327 O1311 1.284 . S
C1327 O1314 1.250 . S
C1328 Gd1261 2.828 . S
C1328 O1310 1.258 . S
C1328 O1315 1.252 . S
C1328 C1329 1.497 . S
C1329 C1328 1.497 . S
C1329 C1330 1.395 . S
C1329 C1331 1.380 . S
C1330 C1329 1.395 . S
C1330 C1333 1.398 . S
C1330 H1340 0.930 . S
C1331 C1329 1.380 . S
C1331 C1332 1.391 . S
C1331 H1341 0.930 . S
C1332 C1331 1.391 . S
C1332 C1334 1.387 . S
C1333 C1330 1.398 . S
C1333 C1334 1.380 . S
C1333 H1342 0.930 . S
C1334 C1332 1.387 . S
C1334 C1333 1.380 . S
C1334 H1343 0.930 . S
C1335 O1312 1.254 . S
C1335 O1313 1.268 . S
H1336 C1321 0.930 . S
H1337 C1322 0.930 . S
H1338 C1324 0.930 . S
H1339 C1325 0.930 . S
H1340 C1330 0.930 . S
H1341 C1331 0.930 . S
H1342 C1333 0.930 . S
H1343 C1334 0.930 . S
Gd1344 N1375 2.661 . S
Gd1344 N1381 2.601 . S
Gd1344 O1388 2.545 . S
Gd1344 O1389 2.606 . S
Gd1344 O1391 2.429 . S
Gd1344 O1392 2.545 . S
Gd1344 O1393 2.412 . S
Gd1344 O1395 2.362 . S
Gd1344 O1396 2.324 . S
Gd1344 C1403 2.828 . S
Gd1345 N1354 2.661 . S
Gd1345 N1358 2.601 . S
Gd1345 O1389 2.362 . S
Gd1345 O1390 2.324 . S
Gd1345 O1394 2.545 . S
Gd1345 O1395 2.606 . S
Gd1345 O1397 2.429 . S
Gd1345 O1398 2.545 . S
Gd1345 O1399 2.412 . S
Gd1345 C1412 2.828 . S
C1346 C1349 1.417 . S
C1346 C1351 1.431 . S
C1346 C1352 1.412 . S
C1347 C1350 1.437 . S
C1347 C1351 1.317 . S
C1347 H1366 0.929 . S
C1348 C1349 1.426 . S
C1348 C1350 1.413 . S
C1348 N1358 1.359 . S
C1349 C1346 1.417 . S
C1349 C1348 1.426 . S
C1349 N1354 1.350 . S
C1350 C1347 1.437 . S
C1350 C1348 1.413 . S
C1350 C1360 1.391 . S
C1351 C1346 1.431 . S
C1351 C1347 1.317 . S
C1351 H1362 0.930 . S
C1352 C1346 1.412 . S
C1352 C1353 1.355 . S
C1352 H1364 0.930 . S
C1353 C1352 1.355 . S
C1353 C1355 1.402 . S
C1353 H1365 0.930 . S
N1354 Gd1345 2.661 . S
N1354 C1349 1.350 . S
N1354 C1355 1.307 . S
C1355 C1353 1.402 . S
C1355 N1354 1.307 . S
C1355 H1356 0.930 . S
H1356 C1355 0.930 . S
C1357 N1358 1.334 . S
C1357 C1359 1.394 . S
C1357 H1361 0.930 . S
N1358 Gd1345 2.601 . S
N1358 C1348 1.359 . S
N1358 C1357 1.334 . S
C1359 C1357 1.394 . S
C1359 C1360 1.359 . S
C1359 H1371 0.930 . S
C1360 C1350 1.391 . S
C1360 C1359 1.359 . S
C1360 H1372 0.929 . S
H1361 C1357 0.930 . S
H1362 C1351 0.930 . S
H1363 C1380 0.930 . S
H1364 C1352 0.930 . S
H1365 C1353 0.930 . S
H1366 C1347 0.929 . S
H1367 C1385 0.930 . S
H1368 C1376 0.930 . S
H1369 C1377 0.930 . S
H1370 C1401 0.929 . S
H1371 C1359 0.930 . S
H1372 C1360 0.929 . S
H1373 C1402 0.930 . S
H1374 C1383 0.930 . S
N1375 Gd1344 2.661 . S
N1375 C1379 1.350 . S
N1375 C1380 1.307 . S
C1376 H1368 0.930 . S
C1376 C1377 1.355 . S
C1376 C1378 1.412 . S
C1377 H1369 0.930 . S
C1377 C1376 1.355 . S
C1377 C1380 1.402 . S
C1378 C1376 1.412 . S
C1378 C1379 1.417 . S
C1378 C1402 1.431 . S
C1379 N1375 1.350 . S
C1379 C1378 1.417 . S
C1379 C1382 1.426 . S
C1380 H1363 0.930 . S
C1380 N1375 1.307 . S
C1380 C1377 1.402 . S
N1381 Gd1344 2.601 . S
N1381 C1382 1.359 . S
N1381 C1385 1.334 . S
C1382 C1379 1.426 . S
C1382 N1381 1.359 . S
C1382 C1386 1.413 . S
C1383 H1374 0.930 . S
C1383 C1384 1.359 . S
C1383 C1385 1.394 . S
C1384 C1383 1.359 . S
C1384 C1386 1.391 . S
C1384 H1387 0.929 . S
C1385 H1367 0.930 . S
C1385 N1381 1.334 . S
C1385 C1383 1.394 . S
C1386 C1382 1.413 . S
C1386 C1384 1.391 . S
C1386 C1401 1.437 . S
H1387 C1384 0.929 . S
O1388 Gd1344 2.545 . S
O1388 C1403 1.258 . S
O1389 Gd1344 2.606 . S
O1389 Gd1345 2.362 . S
O1389 C1400 1.284 . S
O1390 Gd1345 2.324 . S
O1390 C1410 1.254 . S
O1391 Gd1344 2.429 . S
O1391 C1410 1.268 . S
O1392 Gd1344 2.545 . S
O1392 C1400 1.250 . S
O1393 Gd1344 2.412 . S
O1393 C1403 1.252 . S
O1394 Gd1345 2.545 . S
O1394 C1412 1.258 . S
O1395 Gd1344 2.362 . S
O1395 Gd1345 2.606 . S
O1395 C1411 1.284 . S
O1396 Gd1344 2.324 . S
O1396 C1419 1.254 . S
O1397 Gd1345 2.429 . S
O1397 C1419 1.268 . S
O1398 Gd1345 2.545 . S
O1398 C1411 1.250 . S
O1399 Gd1345 2.412 . S
O1399 C1412 1.252 . S
C1400 O1389 1.284 . S
C1400 O1392 1.250 . S
C1401 H1370 0.929 . S
C1401 C1386 1.437 . S
C1401 C1402 1.317 . S
C1402 H1373 0.930 . S
C1402 C1378 1.431 . S
C1402 C1401 1.317 . S
C1403 Gd1344 2.828 . S
C1403 O1388 1.258 . S
C1403 O1393 1.252 . S
C1403 C1404 1.497 . S
C1404 C1403 1.497 . S
C1404 C1405 1.395 . S
C1404 C1406 1.380 . S
C1405 C1404 1.395 . S
C1405 C1408 1.398 . S
C1405 H1420 0.930 . S
C1406 C1404 1.380 . S
C1406 C1407 1.391 . S
C1406 H1421 0.930 . S
C1407 C1406 1.391 . S
C1407 C1409 1.387 . S
C1408 C1405 1.398 . S
C1408 C1409 1.380 . S
C1408 H1422 0.930 . S
C1409 C1407 1.387 . S
C1409 C1408 1.380 . S
C1409 H1423 0.930 . S
C1410 O1390 1.254 . S
C1410 O1391 1.268 . S
C1411 O1395 1.284 . S
C1411 O1398 1.250 . S
C1412 Gd1345 2.828 . S
C1412 O1394 1.258 . S
C1412 O1399 1.252 . S
C1412 C1413 1.497 . S
C1413 C1412 1.497 . S
C1413 C1414 1.395 . S
C1413 C1415 1.380 . S
C1414 C1413 1.395 . S
C1414 C1417 1.398 . S
C1414 H1424 0.930 . S
C1415 C1413 1.380 . S
C1415 C1416 1.391 . S
C1415 H1425 0.930 . S
C1416 C1415 1.391 . S
C1416 C1418 1.387 . S
C1417 C1414 1.398 . S
C1417 C1418 1.380 . S
C1417 H1426 0.930 . S
C1418 C1416 1.387 . S
C1418 C1417 1.380 . S
C1418 H1427 0.930 . S
C1419 O1396 1.254 . S
C1419 O1397 1.268 . S
H1420 C1405 0.930 . S
H1421 C1406 0.930 . S
H1422 C1408 0.930 . S
H1423 C1409 0.930 . S
H1424 C1414 0.930 . S
H1425 C1415 0.930 . S
H1426 C1417 0.930 . S
H1427 C1418 0.930 . S
Gd1428 N1459 2.661 . S
Gd1428 N1465 2.601 . S
Gd1428 O1472 2.545 . S
Gd1428 O1473 2.606 . S
Gd1428 O1475 2.429 . S
Gd1428 O1476 2.545 . S
Gd1428 O1477 2.412 . S
Gd1428 O1479 2.362 . S
Gd1428 O1480 2.324 . S
Gd1428 C1487 2.828 . S
Gd1429 N1438 2.661 . S
Gd1429 N1442 2.601 . S
Gd1429 O1473 2.362 . S
Gd1429 O1474 2.324 . S
Gd1429 O1478 2.545 . S
Gd1429 O1479 2.606 . S
Gd1429 O1481 2.429 . S
Gd1429 O1482 2.545 . S
Gd1429 O1483 2.412 . S
Gd1429 C1496 2.828 . S
C1430 C1433 1.417 . S
C1430 C1435 1.431 . S
C1430 C1436 1.412 . S
C1431 C1434 1.437 . S
C1431 C1435 1.317 . S
C1431 H1450 0.929 . S
C1432 C1433 1.426 . S
C1432 C1434 1.413 . S
C1432 N1442 1.359 . S
C1433 C1430 1.417 . S
C1433 C1432 1.426 . S
C1433 N1438 1.350 . S
C1434 C1431 1.437 . S
C1434 C1432 1.413 . S
C1434 C1444 1.391 . S
C1435 C1430 1.431 . S
C1435 C1431 1.317 . S
C1435 H1446 0.930 . S
C1436 C1430 1.412 . S
C1436 C1437 1.355 . S
C1436 H1448 0.930 . S
C1437 C1436 1.355 . S
C1437 C1439 1.402 . S
C1437 H1449 0.930 . S
N1438 Gd1429 2.661 . S
N1438 C1433 1.350 . S
N1438 C1439 1.307 . S
C1439 C1437 1.402 . S
C1439 N1438 1.307 . S
C1439 H1440 0.930 . S
H1440 C1439 0.930 . S
C1441 N1442 1.334 . S
C1441 C1443 1.394 . S
C1441 H1445 0.930 . S
N1442 Gd1429 2.601 . S
N1442 C1432 1.359 . S
N1442 C1441 1.334 . S
C1443 C1441 1.394 . S
C1443 C1444 1.359 . S
C1443 H1455 0.930 . S
C1444 C1434 1.391 . S
C1444 C1443 1.359 . S
C1444 H1456 0.929 . S
H1445 C1441 0.930 . S
H1446 C1435 0.930 . S
H1447 C1464 0.930 . S
H1448 C1436 0.930 . S
H1449 C1437 0.930 . S
H1450 C1431 0.929 . S
H1451 C1469 0.930 . S
H1452 C1460 0.930 . S
H1453 C1461 0.930 . S
H1454 C1485 0.929 . S
H1455 C1443 0.930 . S
H1456 C1444 0.929 . S
H1457 C1486 0.930 . S
H1458 C1467 0.930 . S
N1459 Gd1428 2.661 . S
N1459 C1463 1.350 . S
N1459 C1464 1.307 . S
C1460 H1452 0.930 . S
C1460 C1461 1.355 . S
C1460 C1462 1.412 . S
C1461 H1453 0.930 . S
C1461 C1460 1.355 . S
C1461 C1464 1.402 . S
C1462 C1460 1.412 . S
C1462 C1463 1.417 . S
C1462 C1486 1.431 . S
C1463 N1459 1.350 . S
C1463 C1462 1.417 . S
C1463 C1466 1.426 . S
C1464 H1447 0.930 . S
C1464 N1459 1.307 . S
C1464 C1461 1.402 . S
N1465 Gd1428 2.601 . S
N1465 C1466 1.359 . S
N1465 C1469 1.334 . S
C1466 C1463 1.426 . S
C1466 N1465 1.359 . S
C1466 C1470 1.413 . S
C1467 H1458 0.930 . S
C1467 C1468 1.359 . S
C1467 C1469 1.394 . S
C1468 C1467 1.359 . S
C1468 C1470 1.391 . S
C1468 H1471 0.929 . S
C1469 H1451 0.930 . S
C1469 N1465 1.334 . S
C1469 C1467 1.394 . S
C1470 C1466 1.413 . S
C1470 C1468 1.391 . S
C1470 C1485 1.437 . S
H1471 C1468 0.929 . S
O1472 Gd1428 2.545 . S
O1472 C1487 1.258 . S
O1473 Gd1428 2.606 . S
O1473 Gd1429 2.362 . S
O1473 C1484 1.284 . S
O1474 Gd1429 2.324 . S
O1474 C1494 1.254 . S
O1475 Gd1428 2.429 . S
O1475 C1494 1.268 . S
O1476 Gd1428 2.545 . S
O1476 C1484 1.250 . S
O1477 Gd1428 2.412 . S
O1477 C1487 1.252 . S
O1478 Gd1429 2.545 . S
O1478 C1496 1.258 . S
O1479 Gd1428 2.362 . S
O1479 Gd1429 2.606 . S
O1479 C1495 1.284 . S
O1480 Gd1428 2.324 . S
O1480 C1503 1.254 . S
O1481 Gd1429 2.429 . S
O1481 C1503 1.268 . S
O1482 Gd1429 2.545 . S
O1482 C1495 1.250 . S
O1483 Gd1429 2.412 . S
O1483 C1496 1.252 . S
C1484 O1473 1.284 . S
C1484 O1476 1.250 . S
C1485 H1454 0.929 . S
C1485 C1470 1.437 . S
C1485 C1486 1.317 . S
C1486 H1457 0.930 . S
C1486 C1462 1.431 . S
C1486 C1485 1.317 . S
C1487 Gd1428 2.828 . S
C1487 O1472 1.258 . S
C1487 O1477 1.252 . S
C1487 C1488 1.497 . S
C1488 C1487 1.497 . S
C1488 C1489 1.395 . S
C1488 C1490 1.380 . S
C1489 C1488 1.395 . S
C1489 C1492 1.398 . S
C1489 H1504 0.930 . S
C1490 C1488 1.380 . S
C1490 C1491 1.391 . S
C1490 H1505 0.930 . S
C1491 C1490 1.391 . S
C1491 C1493 1.387 . S
C1492 C1489 1.398 . S
C1492 C1493 1.380 . S
C1492 H1506 0.930 . S
C1493 C1491 1.387 . S
C1493 C1492 1.380 . S
C1493 H1507 0.930 . S
C1494 O1474 1.254 . S
C1494 O1475 1.268 . S
C1495 O1479 1.284 . S
C1495 O1482 1.250 . S
C1496 Gd1429 2.828 . S
C1496 O1478 1.258 . S
C1496 O1483 1.252 . S
C1496 C1497 1.497 . S
C1497 C1496 1.497 . S
C1497 C1498 1.395 . S
C1497 C1499 1.380 . S
C1498 C1497 1.395 . S
C1498 C1501 1.398 . S
C1498 H1508 0.930 . S
C1499 C1497 1.380 . S
C1499 C1500 1.391 . S
C1499 H1509 0.930 . S
C1500 C1499 1.391 . S
C1500 C1502 1.387 . S
C1501 C1498 1.398 . S
C1501 C1502 1.380 . S
C1501 H1510 0.930 . S
C1502 C1500 1.387 . S
C1502 C1501 1.380 . S
C1502 H1511 0.930 . S
C1503 O1480 1.254 . S
C1503 O1481 1.268 . S
H1504 C1489 0.930 . S
H1505 C1490 0.930 . S
H1506 C1492 0.930 . S
H1507 C1493 0.930 . S
H1508 C1498 0.930 . S
H1509 C1499 0.930 . S
H1510 C1501 0.930 . S
H1511 C1502 0.930 . S
Gd1512 N1543 2.661 . S
Gd1512 N1549 2.601 . S
Gd1512 O1556 2.545 . S
Gd1512 O1557 2.606 . S
Gd1512 O1559 2.429 . S
Gd1512 O1560 2.545 . S
Gd1512 O1561 2.412 . S
Gd1512 O1563 2.362 . S
Gd1512 O1564 2.324 . S
Gd1512 C1571 2.828 . S
Gd1513 N1522 2.661 . S
Gd1513 N1526 2.601 . S
Gd1513 O1557 2.362 . S
Gd1513 O1558 2.324 . S
Gd1513 O1562 2.545 . S
Gd1513 O1563 2.606 . S
Gd1513 O1565 2.429 . S
Gd1513 O1566 2.545 . S
Gd1513 O1567 2.412 . S
Gd1513 C1580 2.828 . S
C1514 C1517 1.417 . S
C1514 C1519 1.431 . S
C1514 C1520 1.412 . S
C1515 C1518 1.437 . S
C1515 C1519 1.317 . S
C1515 H1534 0.929 . S
C1516 C1517 1.426 . S
C1516 C1518 1.413 . S
C1516 N1526 1.359 . S
C1517 C1514 1.417 . S
C1517 C1516 1.426 . S
C1517 N1522 1.350 . S
C1518 C1515 1.437 . S
C1518 C1516 1.413 . S
C1518 C1528 1.391 . S
C1519 C1514 1.431 . S
C1519 C1515 1.317 . S
C1519 H1530 0.930 . S
C1520 C1514 1.412 . S
C1520 C1521 1.355 . S
C1520 H1532 0.930 . S
C1521 C1520 1.355 . S
C1521 C1523 1.402 . S
C1521 H1533 0.930 . S
N1522 Gd1513 2.661 . S
N1522 C1517 1.350 . S
N1522 C1523 1.307 . S
C1523 C1521 1.402 . S
C1523 N1522 1.307 . S
C1523 H1524 0.930 . S
H1524 C1523 0.930 . S
C1525 N1526 1.334 . S
C1525 C1527 1.394 . S
C1525 H1529 0.930 . S
N1526 Gd1513 2.601 . S
N1526 C1516 1.359 . S
N1526 C1525 1.334 . S
C1527 C1525 1.394 . S
C1527 C1528 1.359 . S
C1527 H1539 0.930 . S
C1528 C1518 1.391 . S
C1528 C1527 1.359 . S
C1528 H1540 0.929 . S
H1529 C1525 0.930 . S
H1530 C1519 0.930 . S
H1531 C1548 0.930 . S
H1532 C1520 0.930 . S
H1533 C1521 0.930 . S
H1534 C1515 0.929 . S
H1535 C1553 0.930 . S
H1536 C1544 0.930 . S
H1537 C1545 0.930 . S
H1538 C1569 0.929 . S
H1539 C1527 0.930 . S
H1540 C1528 0.929 . S
H1541 C1570 0.930 . S
H1542 C1551 0.930 . S
N1543 Gd1512 2.661 . S
N1543 C1547 1.350 . S
N1543 C1548 1.307 . S
C1544 H1536 0.930 . S
C1544 C1545 1.355 . S
C1544 C1546 1.412 . S
C1545 H1537 0.930 . S
C1545 C1544 1.355 . S
C1545 C1548 1.402 . S
C1546 C1544 1.412 . S
C1546 C1547 1.417 . S
C1546 C1570 1.431 . S
C1547 N1543 1.350 . S
C1547 C1546 1.417 . S
C1547 C1550 1.426 . S
C1548 H1531 0.930 . S
C1548 N1543 1.307 . S
C1548 C1545 1.402 . S
N1549 Gd1512 2.601 . S
N1549 C1550 1.359 . S
N1549 C1553 1.334 . S
C1550 C1547 1.426 . S
C1550 N1549 1.359 . S
C1550 C1554 1.413 . S
C1551 H1542 0.930 . S
C1551 C1552 1.359 . S
C1551 C1553 1.394 . S
C1552 C1551 1.359 . S
C1552 C1554 1.391 . S
C1552 H1555 0.929 . S
C1553 H1535 0.930 . S
C1553 N1549 1.334 . S
C1553 C1551 1.394 . S
C1554 C1550 1.413 . S
C1554 C1552 1.391 . S
C1554 C1569 1.437 . S
H1555 C1552 0.929 . S
O1556 Gd1512 2.545 . S
O1556 C1571 1.258 . S
O1557 Gd1512 2.606 . S
O1557 Gd1513 2.362 . S
O1557 C1568 1.284 . S
O1558 Gd1513 2.324 . S
O1558 C1578 1.254 . S
O1559 Gd1512 2.429 . S
O1559 C1578 1.268 . S
O1560 Gd1512 2.545 . S
O1560 C1568 1.250 . S
O1561 Gd1512 2.412 . S
O1561 C1571 1.252 . S
O1562 Gd1513 2.545 . S
O1562 C1580 1.258 . S
O1563 Gd1512 2.362 . S
O1563 Gd1513 2.606 . S
O1563 C1579 1.284 . S
O1564 Gd1512 2.324 . S
O1564 C1587 1.254 . S
O1565 Gd1513 2.429 . S
O1565 C1587 1.268 . S
O1566 Gd1513 2.545 . S
O1566 C1579 1.250 . S
O1567 Gd1513 2.412 . S
O1567 C1580 1.252 . S
C1568 O1557 1.284 . S
C1568 O1560 1.250 . S
C1569 H1538 0.929 . S
C1569 C1554 1.437 . S
C1569 C1570 1.317 . S
C1570 H1541 0.930 . S
C1570 C1546 1.431 . S
C1570 C1569 1.317 . S
C1571 Gd1512 2.828 . S
C1571 O1556 1.258 . S
C1571 O1561 1.252 . S
C1571 C1572 1.497 . S
C1572 C1571 1.497 . S
C1572 C1573 1.395 . S
C1572 C1574 1.380 . S
C1573 C1572 1.395 . S
C1573 C1576 1.398 . S
C1573 H1588 0.930 . S
C1574 C1572 1.380 . S
C1574 C1575 1.391 . S
C1574 H1589 0.930 . S
C1575 C1574 1.391 . S
C1575 C1577 1.387 . S
C1576 C1573 1.398 . S
C1576 C1577 1.380 . S
C1576 H1590 0.930 . S
C1577 C1575 1.387 . S
C1577 C1576 1.380 . S
C1577 H1591 0.930 . S
C1578 O1558 1.254 . S
C1578 O1559 1.268 . S
C1579 O1563 1.284 . S
C1579 O1566 1.250 . S
C1580 Gd1513 2.828 . S
C1580 O1562 1.258 . S
C1580 O1567 1.252 . S
C1580 C1581 1.497 . S
C1581 C1580 1.497 . S
C1581 C1582 1.395 . S
C1581 C1583 1.380 . S
C1582 C1581 1.395 . S
C1582 C1585 1.398 . S
C1582 H1592 0.930 . S
C1583 C1581 1.380 . S
C1583 C1584 1.391 . S
C1583 H1593 0.930 . S
C1584 C1583 1.391 . S
C1584 C1586 1.387 . S
C1585 C1582 1.398 . S
C1585 C1586 1.380 . S
C1585 H1594 0.930 . S
C1586 C1584 1.387 . S
C1586 C1585 1.380 . S
C1586 H1595 0.930 . S
C1587 O1564 1.254 . S
C1587 O1565 1.268 . S
H1588 C1573 0.930 . S
H1589 C1574 0.930 . S
H1590 C1576 0.930 . S
H1591 C1577 0.930 . S
H1592 C1582 0.930 . S
H1593 C1583 0.930 . S
H1594 C1585 0.930 . S
H1595 C1586 0.930 . S
Gd1596 N1627 2.661 . S
Gd1596 N1633 2.601 . S
Gd1596 O1640 2.545 . S
Gd1596 O1641 2.606 . S
Gd1596 O1643 2.429 . S
Gd1596 O1644 2.545 . S
Gd1596 O1645 2.412 . S
Gd1596 O1647 2.362 . S
Gd1596 O1648 2.324 . S
Gd1596 C1655 2.772 1_455 S
Gd1597 N1606 2.661 . S
Gd1597 N1610 2.601 . S
Gd1597 O1641 2.362 . S
Gd1597 O1642 2.324 . S
Gd1597 O1646 2.545 . S
Gd1597 O1647 2.606 . S
Gd1597 O1649 2.429 . S
Gd1597 O1650 2.545 . S
Gd1597 O1651 2.412 . S
Gd1597 C1664 2.828 . S
C1598 C1601 1.417 . S
C1598 C1603 1.431 . S
C1598 C1604 1.412 . S
C1599 C1602 1.437 . S
C1599 C1603 1.317 . S
C1599 H1618 0.929 . S
C1600 C1601 1.426 . S
C1600 C1602 1.413 . S
C1600 N1610 1.359 . S
C1601 C1598 1.417 . S
C1601 C1600 1.426 . S
C1601 N1606 1.350 . S
C1602 C1599 1.437 . S
C1602 C1600 1.413 . S
C1602 C1612 1.391 1_554 S
C1603 C1598 1.431 . S
C1603 C1599 1.317 . S
C1603 H1614 0.930 . S
C1604 C1598 1.412 . S
C1604 C1605 1.355 . S
C1604 H1616 0.930 . S
C1605 C1604 1.355 . S
C1605 C1607 1.402 . S
C1605 H1617 0.930 . S
N1606 Gd1597 2.661 . S
N1606 C1601 1.350 . S
N1606 C1607 1.307 . S
C1607 C1605 1.402 . S
C1607 N1606 1.307 . S
C1607 H1608 0.930 . S
H1608 C1607 0.930 . S
C1609 N1610 1.334 1_556 S
C1609 C1611 1.394 . S
C1609 H1613 0.930 . S
N1610 Gd1597 2.601 . S
N1610 C1600 1.359 . S
N1610 C1609 1.334 1_554 S
C1611 C1609 1.394 . S
C1611 C1612 1.359 . S
C1611 H1623 0.930 . S
C1612 C1602 1.391 1_556 S
C1612 C1611 1.359 . S
C1612 H1624 0.929 . S
H1613 C1609 0.930 . S
H1614 C1603 0.930 . S
H1615 C1632 0.930 . S
H1616 C1604 0.930 . S
H1617 C1605 0.930 . S
H1618 C1599 0.929 . S
H1619 C1637 0.930 . S
H1620 C1628 0.930 . S
H1621 C1629 0.930 1_556 S
H1622 C1653 0.929 . S
H1623 C1611 0.930 . S
H1624 C1612 0.929 . S
H1625 C1654 0.930 . S
H1626 C1635 0.930 . S
N1627 Gd1596 2.661 . S
N1627 C1631 1.350 1_455 S
N1627 C1632 1.307 . S
C1628 H1620 0.930 . S
C1628 C1629 1.355 . S
C1628 C1630 1.412 . S
C1629 H1621 0.930 1_554 S
C1629 C1628 1.355 . S
C1629 C1632 1.402 1_655 S
C1630 C1628 1.412 . S
C1630 C1631 1.417 . S
C1630 C1654 1.431 . S
C1631 N1627 1.350 1_655 S
C1631 C1630 1.417 . S
C1631 C1634 1.426 1_655 S
C1632 H1615 0.930 . S
C1632 N1627 1.307 . S
C1632 C1629 1.402 1_455 S
N1633 Gd1596 2.601 . S
N1633 C1634 1.359 . S
N1633 C1637 1.334 . S
C1634 C1631 1.426 1_455 S
C1634 N1633 1.359 . S
C1634 C1638 1.413 1_455 S
C1635 H1626 0.930 . S
C1635 C1636 1.359 1_455 S
C1635 C1637 1.394 . S
C1636 C1635 1.359 1_655 S
C1636 C1638 1.391 . S
C1636 H1639 0.929 . S
C1637 H1619 0.930 . S
C1637 N1633 1.334 . S
C1637 C1635 1.394 . S
C1638 C1634 1.413 1_655 S
C1638 C1636 1.391 . S
C1638 C1653 1.437 . S
H1639 C1636 0.929 . S
O1640 Gd1596 2.545 . S
O1640 C1655 1.220 1_455 S
O1641 Gd1596 2.606 . S
O1641 Gd1597 2.362 . S
O1641 C1652 1.284 . S
O1642 Gd1597 2.324 . S
O1642 C1662 1.254 . S
O1643 Gd1596 2.429 . S
O1643 C1662 1.268 . S
O1644 Gd1596 2.545 . S
O1644 C1652 1.250 . S
O1645 Gd1596 2.412 . S
O1645 C1655 1.237 1_455 S
O1646 Gd1597 2.545 . S
O1646 C1664 1.258 . S
O1647 Gd1596 2.362 . S
O1647 Gd1597 2.606 . S
O1647 C1663 1.284 . S
O1648 Gd1596 2.324 . S
O1648 C1671 1.254 . S
O1649 Gd1597 2.429 . S
O1649 C1671 1.268 . S
O1650 Gd1597 2.545 . S
O1650 C1663 1.250 . S
O1651 Gd1597 2.412 . S
O1651 C1664 1.252 . S
C1652 O1641 1.284 . S
C1652 O1644 1.250 . S
C1653 H1622 0.929 . S
C1653 C1638 1.437 . S
C1653 C1654 1.317 . S
C1654 H1625 0.930 . S
C1654 C1630 1.431 . S
C1654 C1653 1.317 . S
C1655 Gd1596 2.772 1_655 S
C1655 O1640 1.220 1_655 S
C1655 O1645 1.237 1_655 S
C1655 C1656 1.553 . S
C1656 C1655 1.553 . S
C1656 C1657 1.395 . S
C1656 C1658 1.380 . S
C1657 C1656 1.395 . S
C1657 C1660 1.398 . S
C1657 H1672 0.930 . S
C1658 C1656 1.380 . S
C1658 C1659 1.391 . S
C1658 H1673 0.930 . S
C1659 C1658 1.391 . S
C1659 C1661 1.387 . S
C1660 C1657 1.398 . S
C1660 C1661 1.380 . S
C1660 H1674 0.930 . S
C1661 C1659 1.387 . S
C1661 C1660 1.380 . S
C1661 H1675 0.930 . S
C1662 O1642 1.254 . S
C1662 O1643 1.268 . S
C1663 O1647 1.284 . S
C1663 O1650 1.250 . S
C1664 Gd1597 2.828 . S
C1664 O1646 1.258 . S
C1664 O1651 1.252 . S
C1664 C1665 1.497 . S
C1665 C1664 1.497 . S
C1665 C1666 1.395 1_554 S
C1665 C1667 1.380 . S
C1666 C1665 1.395 1_556 S
C1666 C1669 1.398 . S
C1666 H1676 0.930 . S
C1667 C1665 1.380 . S
C1667 C1668 1.391 . S
C1667 H1677 0.930 . S
C1668 C1667 1.391 . S
C1668 C1670 1.387 . S
C1669 C1666 1.398 . S
C1669 C1670 1.380 1_556 S
C1669 H1678 0.930 . S
C1670 C1668 1.387 . S
C1670 C1669 1.380 1_554 S
C1670 H1679 0.930 . S
C1671 O1648 1.254 . S
C1671 O1649 1.268 . S
H1672 C1657 0.930 . S
H1673 C1658 0.930 . S
H1674 C1660 0.930 . S
H1675 C1661 0.930 . S
H1676 C1666 0.930 . S
H1677 C1667 0.930 . S
H1678 C1669 0.930 . S
H1679 C1670 0.930 . S
H1680 C1698 0.951 . S
H1681 C1700 0.951 . S
H1682 C1702 0.950 . S
H1683 C1703 0.950 1_655 S
H1684 C1705 0.950 . S
H1685 C1708 0.950 . S
H1686 C1709 0.950 . S
H1687 C1711 0.950 . S
H1688 C1712 0.950 . S
H1689 C1713 0.951 . S
H1690 C1715 0.951 . S
H1691 C1717 0.950 . S
H1692 C1718 0.941 1_556 S
H1693 C1720 0.950 . S
H1694 C1723 0.950 . S
H1695 C1724 0.950 . S
H1696 C1726 0.950 . S
H1697 C1727 0.950 . S
C1698 H1680 0.951 . S
C1698 C1699 1.366 . S
C1698 C1700 1.388 . S
C1699 C1698 1.366 . S
C1699 C1703 1.385 . S
C1700 H1681 0.951 . S
C1700 C1698 1.388 . S
C1700 C1701 1.366 . S
C1701 C1700 1.366 . S
C1701 C1702 1.414 . S
C1701 C1704 1.499 . S
C1702 H1682 0.950 . S
C1702 C1701 1.414 . S
C1702 C1703 1.374 . S
C1703 H1683 0.950 1_455 S
C1703 C1699 1.385 . S
C1703 C1702 1.374 . S
C1704 C1701 1.499 . S
C1704 C1705 1.373 . S
C1704 C1706 1.389 . S
C1705 H1684 0.950 . S
C1705 C1704 1.373 . S
C1705 C1721 1.377 . S
C1706 C1704 1.389 . S
C1706 C1707 1.524 . S
C1706 C1720 1.377 . S
C1707 C1706 1.524 . S
C1707 C1708 1.397 . S
C1707 C1712 1.363 . S
C1708 H1685 0.950 . S
C1708 C1707 1.397 . S
C1708 C1709 1.334 . S
C1709 H1686 0.950 . S
C1709 C1708 1.334 . S
C1709 C1710 1.287 . S
C1710 C1709 1.287 . S
C1710 C1711 1.524 . S
C1710 H1729 0.913 . S
C1711 H1687 0.950 . S
C1711 C1710 1.524 . S
C1711 C1712 1.415 . S
C1712 H1688 0.950 . S
C1712 C1707 1.363 . S
C1712 C1711 1.415 . S
C1713 H1689 0.951 . S
C1713 C1714 1.366 . S
C1713 C1715 1.388 . S
C1714 C1713 1.366 . S
C1714 C1718 1.385 . S
C1715 H1690 0.951 . S
C1715 C1713 1.388 . S
C1715 C1716 1.366 1_554 S
C1716 C1715 1.366 1_556 S
C1716 C1717 1.414 . S
C1716 C1719 1.499 . S
C1717 H1691 0.950 . S
C1717 C1716 1.414 . S
C1717 C1718 1.374 1_556 S
C1718 H1692 0.941 1_554 S
C1718 C1714 1.385 . S
C1718 C1717 1.374 1_554 S
C1719 C1716 1.499 . S
C1719 C1720 1.373 . S
C1719 C1721 1.389 . S
C1720 H1693 0.950 . S
C1720 C1706 1.377 . S
C1720 C1719 1.373 . S
C1721 C1705 1.377 . S
C1721 C1719 1.389 . S
C1721 C1722 1.524 1_556 S
C1722 C1721 1.524 1_554 S
C1722 C1723 1.397 . S
C1722 C1727 1.363 . S
C1723 H1694 0.950 . S
C1723 C1722 1.397 . S
C1723 C1724 1.334 . S
C1724 H1695 0.950 . S
C1724 C1723 1.334 . S
C1724 C1725 1.287 . S
C1725 C1724 1.287 . S
C1725 C1726 1.524 . S
C1725 H1728 0.999 . S
C1726 H1696 0.950 . S
C1726 C1725 1.524 . S
C1726 C1727 1.415 . S
C1727 H1697 0.950 . S
C1727 C1722 1.363 . S
C1727 C1726 1.415 . S
H1728 C1725 0.999 . S
H1729 C1710 0.913 . S
H1730 C1748 0.951 . S
H1731 C1750 0.951 . S
H1732 C1752 0.950 . S
H1733 C1753 0.950 . S
H1734 C1755 0.950 . S
H1735 C1758 0.950 . S
H1736 C1759 0.950 . S
H1737 C1761 0.950 . S
H1738 C1762 0.950 . S
H1739 C1763 0.951 . S
H1740 C1765 0.951 . S
H1741 C1767 0.950 . S
H1742 C1768 0.950 . S
H1743 C1770 0.950 . S
H1744 C1773 0.950 . S
H1745 C1774 0.950 . S
H1746 C1776 0.950 . S
H1747 C1777 0.950 . S
C1748 H1730 0.951 . S
C1748 C1749 1.366 . S
C1748 C1750 1.388 . S
C1749 C1748 1.366 . S
C1749 C1753 1.385 . S
C1750 H1731 0.951 . S
C1750 C1748 1.388 . S
C1750 C1751 1.366 . S
C1751 C1750 1.366 . S
C1751 C1752 1.414 . S
C1751 C1754 1.499 . S
C1752 H1732 0.950 . S
C1752 C1751 1.414 . S
C1752 C1753 1.374 . S
C1753 H1733 0.950 . S
C1753 C1749 1.385 . S
C1753 C1752 1.374 . S
C1754 C1751 1.499 . S
C1754 C1755 1.373 . S
C1754 C1756 1.389 . S
C1755 H1734 0.950 . S
C1755 C1754 1.373 . S
C1755 C1771 1.377 . S
C1756 C1754 1.389 . S
C1756 C1757 1.524 . S
C1756 C1770 1.377 . S
C1757 C1756 1.524 . S
C1757 C1758 1.397 . S
C1757 C1762 1.363 . S
C1758 H1735 0.950 . S
C1758 C1757 1.397 . S
C1758 C1759 1.334 . S
C1759 H1736 0.950 . S
C1759 C1758 1.334 . S
C1759 C1760 1.287 . S
C1760 C1759 1.287 . S
C1760 C1761 1.524 . S
C1760 H1779 0.913 . S
C1761 H1737 0.950 . S
C1761 C1760 1.524 . S
C1761 C1762 1.415 . S
C1762 H1738 0.950 . S
C1762 C1757 1.363 . S
C1762 C1761 1.415 . S
C1763 H1739 0.951 . S
C1763 C1764 1.366 . S
C1763 C1765 1.388 . S
C1764 C1763 1.366 . S
C1764 C1768 1.385 . S
C1765 H1740 0.951 . S
C1765 C1763 1.388 . S
C1765 C1766 1.366 . S
C1766 C1765 1.366 . S
C1766 C1767 1.414 . S
C1766 C1769 1.499 . S
C1767 H1741 0.950 . S
C1767 C1766 1.414 . S
C1767 C1768 1.374 . S
C1768 H1742 0.950 . S
C1768 C1764 1.385 . S
C1768 C1767 1.374 . S
C1769 C1766 1.499 . S
C1769 C1770 1.373 . S
C1769 C1771 1.389 . S
C1770 H1743 0.950 . S
C1770 C1756 1.377 . S
C1770 C1769 1.373 . S
C1771 C1755 1.377 . S
C1771 C1769 1.389 . S
C1771 C1772 1.524 . S
C1772 C1771 1.524 . S
C1772 C1773 1.397 . S
C1772 C1777 1.363 . S
C1773 H1744 0.950 . S
C1773 C1772 1.397 . S
C1773 C1774 1.334 . S
C1774 H1745 0.950 . S
C1774 C1773 1.334 . S
C1774 C1775 1.287 . S
C1775 C1774 1.287 . S
C1775 C1776 1.524 . S
C1775 H1778 0.999 . S
C1776 H1746 0.950 . S
C1776 C1775 1.524 . S
C1776 C1777 1.415 . S
C1777 H1747 0.950 . S
C1777 C1772 1.363 . S
C1777 C1776 1.415 . S
H1778 C1775 0.999 . S
H1779 C1760 0.913 . S
H1780 C1798 0.951 . S
H1781 C1800 0.951 . S
H1782 C1802 0.950 . S
H1783 C1803 0.950 . S
H1784 C1805 0.950 . S
H1785 C1808 0.950 . S
H1786 C1809 0.950 . S
H1787 C1811 0.950 . S
H1788 C1812 0.950 . S
H1789 C1813 0.951 . S
H1790 C1815 0.951 . S
H1791 C1817 0.950 . S
H1792 C1818 0.950 . S
H1793 C1820 0.950 . S
H1794 C1823 0.950 . S
H1795 C1824 0.950 . S
H1796 C1826 0.950 . S
H1797 C1827 0.950 . S
C1798 H1780 0.951 . S
C1798 C1799 1.366 . S
C1798 C1800 1.388 . S
C1799 C1798 1.366 . S
C1799 C1803 1.385 . S
C1800 H1781 0.951 . S
C1800 C1798 1.388 . S
C1800 C1801 1.366 . S
C1801 C1800 1.366 . S
C1801 C1802 1.414 . S
C1801 C1804 1.499 . S
C1802 H1782 0.950 . S
C1802 C1801 1.414 . S
C1802 C1803 1.374 . S
C1803 H1783 0.950 . S
C1803 C1799 1.385 . S
C1803 C1802 1.374 . S
C1804 C1801 1.499 . S
C1804 C1805 1.373 . S
C1804 C1806 1.389 . S
C1805 H1784 0.950 . S
C1805 C1804 1.373 . S
C1805 C1821 1.377 . S
C1806 C1804 1.389 . S
C1806 C1807 1.524 . S
C1806 C1820 1.377 . S
C1807 C1806 1.524 . S
C1807 C1808 1.397 . S
C1807 C1812 1.363 . S
C1808 H1785 0.950 . S
C1808 C1807 1.397 . S
C1808 C1809 1.334 . S
C1809 H1786 0.950 . S
C1809 C1808 1.334 . S
C1809 C1810 1.287 . S
C1810 C1809 1.287 . S
C1810 C1811 1.524 . S
C1810 H1829 0.913 . S
C1811 H1787 0.950 . S
C1811 C1810 1.524 . S
C1811 C1812 1.415 . S
C1812 H1788 0.950 . S
C1812 C1807 1.363 . S
C1812 C1811 1.415 . S
C1813 H1789 0.951 . S
C1813 C1814 1.366 . S
C1813 C1815 1.388 . S
C1814 C1813 1.366 . S
C1814 C1818 1.385 . S
C1815 H1790 0.951 . S
C1815 C1813 1.388 . S
C1815 C1816 1.366 . S
C1816 C1815 1.366 . S
C1816 C1817 1.414 . S
C1816 C1819 1.499 . S
C1817 H1791 0.950 . S
C1817 C1816 1.414 . S
C1817 C1818 1.374 . S
C1818 H1792 0.950 . S
C1818 C1814 1.385 . S
C1818 C1817 1.374 . S
C1819 C1816 1.499 . S
C1819 C1820 1.373 . S
C1819 C1821 1.389 . S
C1820 H1793 0.950 . S
C1820 C1806 1.377 . S
C1820 C1819 1.373 . S
C1821 C1805 1.377 . S
C1821 C1819 1.389 . S
C1821 C1822 1.524 . S
C1822 C1821 1.524 . S
C1822 C1823 1.397 . S
C1822 C1827 1.363 . S
C1823 H1794 0.950 . S
C1823 C1822 1.397 . S
C1823 C1824 1.334 . S
C1824 H1795 0.950 . S
C1824 C1823 1.334 . S
C1824 C1825 1.287 . S
C1825 C1824 1.287 . S
C1825 C1826 1.524 . S
C1825 H1828 0.999 . S
C1826 H1796 0.950 . S
C1826 C1825 1.524 . S
C1826 C1827 1.415 . S
C1827 H1797 0.950 . S
C1827 C1822 1.363 . S
C1827 C1826 1.415 . S
H1828 C1825 0.999 . S
H1829 C1810 0.913 . S
H1830 C1848 0.951 . S
H1831 C1850 0.951 . S
H1832 C1852 0.950 . S
H1833 C1853 0.950 . S
H1834 C1855 0.950 . S
H1835 C1858 0.950 . S
H1836 C1859 0.950 . S
H1837 C1861 0.950 . S
H1838 C1862 0.950 . S
H1839 C1863 0.951 . S
H1840 C1865 0.951 . S
H1841 C1867 0.950 . S
H1842 C1868 0.950 . S
H1843 C1870 0.950 . S
H1844 C1873 0.950 . S
H1845 C1874 0.950 . S
H1846 C1876 0.950 . S
H1847 C1877 0.950 . S
C1848 H1830 0.951 . S
C1848 C1849 1.366 . S
C1848 C1850 1.388 . S
C1849 C1848 1.366 . S
C1849 C1853 1.385 . S
C1850 H1831 0.951 . S
C1850 C1848 1.388 . S
C1850 C1851 1.366 . S
C1851 C1850 1.366 . S
C1851 C1852 1.414 . S
C1851 C1854 1.499 . S
C1852 H1832 0.950 . S
C1852 C1851 1.414 . S
C1852 C1853 1.374 . S
C1853 H1833 0.950 . S
C1853 C1849 1.385 . S
C1853 C1852 1.374 . S
C1854 C1851 1.499 . S
C1854 C1855 1.373 . S
C1854 C1856 1.389 . S
C1855 H1834 0.950 . S
C1855 C1854 1.373 . S
C1855 C1871 1.377 . S
C1856 C1854 1.389 . S
C1856 C1857 1.524 . S
C1856 C1870 1.377 . S
C1857 C1856 1.524 . S
C1857 C1858 1.397 . S
C1857 C1862 1.363 . S
C1858 H1835 0.950 . S
C1858 C1857 1.397 . S
C1858 C1859 1.334 . S
C1859 H1836 0.950 . S
C1859 C1858 1.334 . S
C1859 C1860 1.287 . S
C1860 C1859 1.287 . S
C1860 C1861 1.524 . S
C1860 H1879 0.913 . S
C1861 H1837 0.950 . S
C1861 C1860 1.524 . S
C1861 C1862 1.415 . S
C1862 H1838 0.950 . S
C1862 C1857 1.363 . S
C1862 C1861 1.415 . S
C1863 H1839 0.951 . S
C1863 C1864 1.366 . S
C1863 C1865 1.388 . S
C1864 C1863 1.366 . S
C1864 C1868 1.385 . S
C1865 H1840 0.951 . S
C1865 C1863 1.388 . S
C1865 C1866 1.366 . S
C1866 C1865 1.366 . S
C1866 C1867 1.414 . S
C1866 C1869 1.499 . S
C1867 H1841 0.950 . S
C1867 C1866 1.414 . S
C1867 C1868 1.374 . S
C1868 H1842 0.950 . S
C1868 C1864 1.385 . S
C1868 C1867 1.374 . S
C1869 C1866 1.499 . S
C1869 C1870 1.373 . S
C1869 C1871 1.389 . S
C1870 H1843 0.950 . S
C1870 C1856 1.377 . S
C1870 C1869 1.373 . S
C1871 C1855 1.377 . S
C1871 C1869 1.389 . S
C1871 C1872 1.524 . S
C1872 C1871 1.524 . S
C1872 C1873 1.397 . S
C1872 C1877 1.363 . S
C1873 H1844 0.950 . S
C1873 C1872 1.397 . S
C1873 C1874 1.334 . S
C1874 H1845 0.950 . S
C1874 C1873 1.334 . S
C1874 C1875 1.287 . S
C1875 C1874 1.287 . S
C1875 C1876 1.524 . S
C1875 H1878 0.999 . S
C1876 H1846 0.950 . S
C1876 C1875 1.524 . S
C1876 C1877 1.415 . S
C1877 H1847 0.950 . S
C1877 C1872 1.363 . S
C1877 C1876 1.415 . S
H1878 C1875 0.999 . S
H1879 C1860 0.913 . S
H1880 C1898 0.951 . S
H1881 C1900 0.951 . S
H1882 C1902 0.950 . S
H1883 C1903 0.950 . S
H1884 C1905 0.950 . S
H1885 C1908 0.950 . S
H1886 C1909 0.950 . S
H1887 C1911 0.950 . S
H1888 C1912 0.950 . S
H1889 C1913 0.951 . S
H1890 C1915 0.951 . S
H1891 C1917 0.950 . S
H1892 C1918 0.950 . S
H1893 C1920 0.950 . S
H1894 C1923 0.948 . S
H1895 C1924 0.950 . S
H1896 C1926 0.950 . S
H1897 C1927 0.950 . S
C1898 H1880 0.951 . S
C1898 C1899 1.366 . S
C1898 C1900 1.388 . S
C1899 C1898 1.366 . S
C1899 C1903 1.385 . S
C1900 H1881 0.951 . S
C1900 C1898 1.388 . S
C1900 C1901 1.366 . S
C1901 C1900 1.366 . S
C1901 C1902 1.414 . S
C1901 C1904 1.499 . S
C1902 H1882 0.950 . S
C1902 C1901 1.414 . S
C1902 C1903 1.374 . S
C1903 H1883 0.950 . S
C1903 C1899 1.385 . S
C1903 C1902 1.374 . S
C1904 C1901 1.499 . S
C1904 C1905 1.373 . S
C1904 C1906 1.389 . S
C1905 H1884 0.950 . S
C1905 C1904 1.373 . S
C1905 C1921 1.377 . S
C1906 C1904 1.389 . S
C1906 C1907 1.524 . S
C1906 C1920 1.377 . S
C1907 C1906 1.524 . S
C1907 C1908 1.397 . S
C1907 C1912 1.363 . S
C1908 H1885 0.950 . S
C1908 C1907 1.397 . S
C1908 C1909 1.334 . S
C1909 H1886 0.950 . S
C1909 C1908 1.334 . S
C1909 C1910 1.287 . S
C1910 C1909 1.287 . S
C1910 C1911 1.524 . S
C1910 H1929 0.913 . S
C1911 H1887 0.950 . S
C1911 C1910 1.524 . S
C1911 C1912 1.415 . S
C1912 H1888 0.950 . S
C1912 C1907 1.363 . S
C1912 C1911 1.415 . S
C1913 H1889 0.951 . S
C1913 C1914 1.366 . S
C1913 C1915 1.388 . S
C1914 C1913 1.366 . S
C1914 C1918 1.385 . S
C1915 H1890 0.951 . S
C1915 C1913 1.388 . S
C1915 C1916 1.366 . S
C1916 C1915 1.366 . S
C1916 C1917 1.414 . S
C1916 C1919 1.499 . S
C1917 H1891 0.950 . S
C1917 C1916 1.414 . S
C1917 C1918 1.374 . S
C1918 H1892 0.950 . S
C1918 C1914 1.385 . S
C1918 C1917 1.374 . S
C1919 C1916 1.499 . S
C1919 C1920 1.373 . S
C1919 C1921 1.389 . S
C1920 H1893 0.950 . S
C1920 C1906 1.377 . S
C1920 C1919 1.373 . S
C1921 C1905 1.377 . S
C1921 C1919 1.389 . S
C1921 C1922 1.524 . S
C1922 C1921 1.524 . S
C1922 C1923 1.397 . S
C1922 C1927 1.363 . S
C1923 H1894 0.948 . S
C1923 C1922 1.397 . S
C1923 C1924 1.334 1_455 S
C1924 H1895 0.950 . S
C1924 C1923 1.334 1_655 S
C1924 C1925 1.287 . S
C1925 C1924 1.287 . S
C1925 C1926 1.524 1_655 S
C1925 H1928 0.999 . S
C1926 H1896 0.950 . S
C1926 C1925 1.524 1_455 S
C1926 C1927 1.415 . S
C1927 H1897 0.950 . S
C1927 C1922 1.363 . S
C1927 C1926 1.415 . S
H1928 C1925 0.999 . S
H1929 C1910 0.913 . S
H1930 C1948 0.951 . S
H1931 C1950 0.951 . S
H1932 C1952 0.950 . S
H1933 C1953 0.950 . S
H1934 C1955 0.950 . S
H1935 C1958 0.950 . S
H1936 C1959 0.950 . S
H1937 C1961 0.950 . S
H1938 C1962 0.950 . S
H1939 C1963 0.951 . S
H1940 C1965 0.951 . S
H1941 C1967 0.950 . S
H1942 C1968 0.950 . S
H1943 C1970 0.950 . S
H1944 C1973 0.950 . S
H1945 C1974 0.950 . S
H1946 C1976 0.950 . S
H1947 C1977 0.950 . S
C1948 H1930 0.951 . S
C1948 C1949 1.366 . S
C1948 C1950 1.388 . S
C1949 C1948 1.366 . S
C1949 C1953 1.385 . S
C1950 H1931 0.951 . S
C1950 C1948 1.388 . S
C1950 C1951 1.366 . S
C1951 C1950 1.366 . S
C1951 C1952 1.414 . S
C1951 C1954 1.499 . S
C1952 H1932 0.950 . S
C1952 C1951 1.414 . S
C1952 C1953 1.374 . S
C1953 H1933 0.950 . S
C1953 C1949 1.385 . S
C1953 C1952 1.374 . S
C1954 C1951 1.499 . S
C1954 C1955 1.373 . S
C1954 C1956 1.389 . S
C1955 H1934 0.950 . S
C1955 C1954 1.373 . S
C1955 C1971 1.377 . S
C1956 C1954 1.389 . S
C1956 C1957 1.524 . S
C1956 C1970 1.377 . S
C1957 C1956 1.524 . S
C1957 C1958 1.397 . S
C1957 C1962 1.363 . S
C1958 H1935 0.950 . S
C1958 C1957 1.397 . S
C1958 C1959 1.334 . S
C1959 H1936 0.950 . S
C1959 C1958 1.334 . S
C1959 C1960 1.287 . S
C1960 C1959 1.287 . S
C1960 C1961 1.524 . S
C1960 H1979 0.913 . S
C1961 H1937 0.950 . S
C1961 C1960 1.524 . S
C1961 C1962 1.415 . S
C1962 H1938 0.950 . S
C1962 C1957 1.363 . S
C1962 C1961 1.415 . S
C1963 H1939 0.951 . S
C1963 C1964 1.366 . S
C1963 C1965 1.388 . S
C1964 C1963 1.366 . S
C1964 C1968 1.385 . S
C1965 H1940 0.951 . S
C1965 C1963 1.388 . S
C1965 C1966 1.366 . S
C1966 C1965 1.366 . S
C1966 C1967 1.414 . S
C1966 C1969 1.499 . S
C1967 H1941 0.950 . S
C1967 C1966 1.414 . S
C1967 C1968 1.374 . S
C1968 H1942 0.950 . S
C1968 C1964 1.385 . S
C1968 C1967 1.374 . S
C1969 C1966 1.499 . S
C1969 C1970 1.373 . S
C1969 C1971 1.389 . S
C1970 H1943 0.950 . S
C1970 C1956 1.377 . S
C1970 C1969 1.373 . S
C1971 C1955 1.377 . S
C1971 C1969 1.389 . S
C1971 C1972 1.524 . S
C1972 C1971 1.524 . S
C1972 C1973 1.397 . S
C1972 C1977 1.363 . S
C1973 H1944 0.950 . S
C1973 C1972 1.397 . S
C1973 C1974 1.334 . S
C1974 H1945 0.950 . S
C1974 C1973 1.334 . S
C1974 C1975 1.287 . S
C1975 C1974 1.287 . S
C1975 C1976 1.524 . S
C1975 H1978 0.999 . S
C1976 H1946 0.950 . S
C1976 C1975 1.524 . S
C1976 C1977 1.415 . S
C1977 H1947 0.950 . S
C1977 C1972 1.363 . S
C1977 C1976 1.415 . S
H1978 C1975 0.999 . S
H1979 C1960 0.913 . S
H1980 C1998 0.951 . S
H1981 C2000 0.951 . S
H1982 C2002 0.950 . S
H1983 C2003 0.950 . S
H1984 C2005 0.950 . S
H1985 C2008 0.950 . S
H1986 C2009 0.950 . S
H1987 C2011 0.950 . S
H1988 C2012 0.950 . S
H1989 C2013 0.951 . S
H1990 C2015 0.951 . S
H1991 C2017 0.950 . S
H1992 C2018 0.950 . S
H1993 C2020 0.950 . S
H1994 C2023 0.950 . S
H1995 C2024 0.950 . S
H1996 C2026 0.950 . S
H1997 C2027 0.950 . S
C1998 H1980 0.951 . S
C1998 C1999 1.366 . S
C1998 C2000 1.388 . S
C1999 C1998 1.366 . S
C1999 C2003 1.385 . S
C2000 H1981 0.951 . S
C2000 C1998 1.388 . S
C2000 C2001 1.366 . S
C2001 C2000 1.366 . S
C2001 C2002 1.414 . S
C2001 C2004 1.499 . S
C2002 H1982 0.950 . S
C2002 C2001 1.414 . S
C2002 C2003 1.374 . S
C2003 H1983 0.950 . S
C2003 C1999 1.385 . S
C2003 C2002 1.374 . S
C2004 C2001 1.499 . S
C2004 C2005 1.373 . S
C2004 C2006 1.389 . S
C2005 H1984 0.950 . S
C2005 C2004 1.373 . S
C2005 C2021 1.377 . S
C2006 C2004 1.389 . S
C2006 C2007 1.524 . S
C2006 C2020 1.377 . S
C2007 C2006 1.524 . S
C2007 C2008 1.397 . S
C2007 C2012 1.363 . S
C2008 H1985 0.950 . S
C2008 C2007 1.397 . S
C2008 C2009 1.334 . S
C2009 H1986 0.950 . S
C2009 C2008 1.334 . S
C2009 C2010 1.287 . S
C2010 C2009 1.287 . S
C2010 C2011 1.524 . S
C2010 H2029 0.913 . S
C2011 H1987 0.950 . S
C2011 C2010 1.524 . S
C2011 C2012 1.415 . S
C2012 H1988 0.950 . S
C2012 C2007 1.363 . S
C2012 C2011 1.415 . S
C2013 H1989 0.951 . S
C2013 C2014 1.366 . S
C2013 C2015 1.388 . S
C2014 C2013 1.366 . S
C2014 C2018 1.385 . S
C2015 H1990 0.951 . S
C2015 C2013 1.388 . S
C2015 C2016 1.366 . S
C2016 C2015 1.366 . S
C2016 C2017 1.414 . S
C2016 C2019 1.499 . S
C2017 H1991 0.950 . S
C2017 C2016 1.414 . S
C2017 C2018 1.374 . S
C2018 H1992 0.950 . S
C2018 C2014 1.385 . S
C2018 C2017 1.374 . S
C2019 C2016 1.499 . S
C2019 C2020 1.373 . S
C2019 C2021 1.389 . S
C2020 H1993 0.950 . S
C2020 C2006 1.377 . S
C2020 C2019 1.373 . S
C2021 C2005 1.377 . S
C2021 C2019 1.389 . S
C2021 C2022 1.524 . S
C2022 C2021 1.524 . S
C2022 C2023 1.397 . S
C2022 C2027 1.363 . S
C2023 H1994 0.950 . S
C2023 C2022 1.397 . S
C2023 C2024 1.334 . S
C2024 H1995 0.950 . S
C2024 C2023 1.334 . S
C2024 C2025 1.287 . S
C2025 C2024 1.287 . S
C2025 C2026 1.524 . S
C2025 H2028 0.999 . S
C2026 H1996 0.950 . S
C2026 C2025 1.524 . S
C2026 C2027 1.415 . S
C2027 H1997 0.950 . S
C2027 C2022 1.363 . S
C2027 C2026 1.415 . S
H2028 C2025 0.999 . S
H2029 C2010 0.913 . S
H2030 C2048 0.951 . S
H2031 C2050 0.951 . S
H2032 C2052 0.950 . S
H2033 C2053 0.950 . S
H2034 C2055 0.950 . S
H2035 C2058 0.950 . S
H2036 C2059 0.950 . S
H2037 C2061 0.950 . S
H2038 C2062 0.950 . S
H2039 C2063 0.951 . S
H2040 C2065 0.951 . S
H2041 C2067 0.950 . S
H2042 C2068 0.950 . S
H2043 C2070 0.950 . S
H2044 C2073 0.950 . S
H2045 C2074 0.950 . S
H2046 C2076 0.950 . S
H2047 C2077 0.950 . S
C2048 H2030 0.951 . S
C2048 C2049 1.366 . S
C2048 C2050 1.388 . S
C2049 C2048 1.366 . S
C2049 C2053 1.385 . S
C2050 H2031 0.951 . S
C2050 C2048 1.388 . S
C2050 C2051 1.366 . S
C2051 C2050 1.366 . S
C2051 C2052 1.414 . S
C2051 C2054 1.499 . S
C2052 H2032 0.950 . S
C2052 C2051 1.414 . S
C2052 C2053 1.374 . S
C2053 H2033 0.950 . S
C2053 C2049 1.385 . S
C2053 C2052 1.374 . S
C2054 C2051 1.499 . S
C2054 C2055 1.373 . S
C2054 C2056 1.389 . S
C2055 H2034 0.950 . S
C2055 C2054 1.373 . S
C2055 C2071 1.377 . S
C2056 C2054 1.389 . S
C2056 C2057 1.524 . S
C2056 C2070 1.377 . S
C2057 C2056 1.524 . S
C2057 C2058 1.397 . S
C2057 C2062 1.363 . S
C2058 H2035 0.950 . S
C2058 C2057 1.397 . S
C2058 C2059 1.334 . S
C2059 H2036 0.950 . S
C2059 C2058 1.334 . S
C2059 C2060 1.287 . S
C2060 C2059 1.287 . S
C2060 C2061 1.524 . S
C2060 H2079 0.913 . S
C2061 H2037 0.950 . S
C2061 C2060 1.524 . S
C2061 C2062 1.415 . S
C2062 H2038 0.950 . S
C2062 C2057 1.363 . S
C2062 C2061 1.415 . S
C2063 H2039 0.951 . S
C2063 C2064 1.366 . S
C2063 C2065 1.388 . S
C2064 C2063 1.366 . S
C2064 C2068 1.385 . S
C2065 H2040 0.951 . S
C2065 C2063 1.388 . S
C2065 C2066 1.366 . S
C2066 C2065 1.366 . S
C2066 C2067 1.414 . S
C2066 C2069 1.499 . S
C2067 H2041 0.950 . S
C2067 C2066 1.414 . S
C2067 C2068 1.374 . S
C2068 H2042 0.950 . S
C2068 C2064 1.385 . S
C2068 C2067 1.374 . S
C2069 C2066 1.499 . S
C2069 C2070 1.373 . S
C2069 C2071 1.389 . S
C2070 H2043 0.950 . S
C2070 C2056 1.377 . S
C2070 C2069 1.373 . S
C2071 C2055 1.377 . S
C2071 C2069 1.389 . S
C2071 C2072 1.524 . S
C2072 C2071 1.524 . S
C2072 C2073 1.397 . S
C2072 C2077 1.363 . S
C2073 H2044 0.950 . S
C2073 C2072 1.397 . S
C2073 C2074 1.334 . S
C2074 H2045 0.950 . S
C2074 C2073 1.334 . S
C2074 C2075 1.287 . S
C2075 C2074 1.287 . S
C2075 C2076 1.524 . S
C2075 H2078 0.999 . S
C2076 H2046 0.950 . S
C2076 C2075 1.524 . S
C2076 C2077 1.415 . S
C2077 H2047 0.950 . S
C2077 C2072 1.363 . S
C2077 C2076 1.415 . S
H2078 C2075 0.999 . S
H2079 C2060 0.913 . S
H2080 C2098 0.951 . S
H2081 C2100 0.951 . S
H2082 C2102 0.950 . S
H2083 C2103 0.950 . S
H2084 C2105 0.950 . S
H2085 C2108 0.950 . S
H2086 C2109 0.950 . S
H2087 C2111 0.950 1_565 S
H2088 C2112 0.950 . S
H2089 C2113 0.951 . S
H2090 C2115 0.951 . S
H2091 C2117 0.990 . S
H2092 C2118 0.950 . S
H2093 C2120 0.950 . S
H2094 C2123 0.950 . S
H2095 C2124 0.950 . S
H2096 C2126 0.950 . S
H2097 C2127 0.950 . S
C2098 H2080 0.951 . S
C2098 C2099 1.366 . S
C2098 C2100 1.388 . S
C2099 C2098 1.366 . S
C2099 C2103 1.385 . S
C2100 H2081 0.951 . S
C2100 C2098 1.388 . S
C2100 C2101 1.366 . S
C2101 C2100 1.366 . S
C2101 C2102 1.414 . S
C2101 C2104 1.499 . S
C2102 H2082 0.950 . S
C2102 C2101 1.414 . S
C2102 C2103 1.374 . S
C2103 H2083 0.950 . S
C2103 C2099 1.385 . S
C2103 C2102 1.374 . S
C2104 C2101 1.499 . S
C2104 C2105 1.373 . S
C2104 C2106 1.389 . S
C2105 H2084 0.950 . S
C2105 C2104 1.373 . S
C2105 C2121 1.401 . S
C2106 C2104 1.389 . S
C2106 C2107 1.524 . S
C2106 C2120 1.377 1_655 S
C2107 C2106 1.524 . S
C2107 C2108 1.397 1_655 S
C2107 C2112 1.363 . S
C2108 H2085 0.950 . S
C2108 C2107 1.397 1_455 S
C2108 C2109 1.334 . S
C2109 H2086 0.950 . S
C2109 C2108 1.334 . S
C2109 C2110 1.287 . S
C2110 C2109 1.287 . S
C2110 C2111 1.524 1_455 S
C2110 H2129 0.927 . S
C2111 H2087 0.950 1_545 S
C2111 C2110 1.524 1_655 S
C2111 C2112 1.415 . S
C2112 H2088 0.950 . S
C2112 C2107 1.363 . S
C2112 C2111 1.415 . S
C2113 H2089 0.951 . S
C2113 C2114 1.366 . S
C2113 C2115 1.388 . S
C2114 C2113 1.366 . S
C2114 C2118 1.385 . S
C2115 H2090 0.951 . S
C2115 C2113 1.388 . S
C2115 C2116 1.366 . S
C2116 C2115 1.366 . S
C2116 C2117 1.414 . S
C2116 C2119 1.499 . S
C2117 H2091 0.990 . S
C2117 C2116 1.414 . S
C2117 C2118 1.374 . S
C2118 H2092 0.950 . S
C2118 C2114 1.385 . S
C2118 C2117 1.374 . S
C2119 C2116 1.499 . S
C2119 C2120 1.373 . S
C2119 C2121 1.360 1_455 S
C2120 H2093 0.950 . S
C2120 C2106 1.377 1_455 S
C2120 C2119 1.373 . S
C2121 C2105 1.401 . S
C2121 C2119 1.360 1_655 S
C2121 C2122 1.536 . S
C2122 C2121 1.536 . S
C2122 C2123 1.397 . S
C2122 C2127 1.363 1_655 S
C2123 H2094 0.950 . S
C2123 C2122 1.397 . S
C2123 C2124 1.334 . S
C2124 H2095 0.950 . S
C2124 C2123 1.334 . S
C2124 C2125 1.287 . S
C2125 C2124 1.287 . S
C2125 C2126 1.524 1_655 S
C2125 H2128 0.999 . S
C2126 H2096 0.950 . S
C2126 C2125 1.524 1_455 S
C2126 C2127 1.415 . S
C2127 H2097 0.950 . S
C2127 C2122 1.363 1_455 S
C2127 C2126 1.415 . S
H2128 C2125 0.999 . S
H2129 C2110 0.927 . S
H2130 C2148 0.951 . S
H2131 C2150 0.951 . S
H2132 C2152 0.950 . S
H2133 C2153 0.950 . S
H2134 C2155 0.950 . S
H2135 C2158 0.950 . S
H2136 C2159 0.950 . S
H2137 C2161 0.950 . S
H2138 C2162 0.950 . S
H2139 C2163 0.951 . S
H2140 C2165 0.951 . S
H2141 C2167 0.950 . S
H2142 C2168 0.950 . S
H2143 C2170 0.950 . S
H2144 C2173 0.950 . S
H2145 C2174 0.950 . S
H2146 C2176 0.950 . S
H2147 C2177 0.950 . S
C2148 H2130 0.951 . S
C2148 C2149 1.366 . S
C2148 C2150 1.388 . S
C2149 C2148 1.366 . S
C2149 C2153 1.385 . S
C2150 H2131 0.951 . S
C2150 C2148 1.388 . S
C2150 C2151 1.366 . S
C2151 C2150 1.366 . S
C2151 C2152 1.414 . S
C2151 C2154 1.499 . S
C2152 H2132 0.950 . S
C2152 C2151 1.414 . S
C2152 C2153 1.374 . S
C2153 H2133 0.950 . S
C2153 C2149 1.385 . S
C2153 C2152 1.374 . S
C2154 C2151 1.499 . S
C2154 C2155 1.373 . S
C2154 C2156 1.389 . S
C2155 H2134 0.950 . S
C2155 C2154 1.373 . S
C2155 C2171 1.377 . S
C2156 C2154 1.389 . S
C2156 C2157 1.524 . S
C2156 C2170 1.377 . S
C2157 C2156 1.524 . S
C2157 C2158 1.397 . S
C2157 C2162 1.363 . S
C2158 H2135 0.950 . S
C2158 C2157 1.397 . S
C2158 C2159 1.334 . S
C2159 H2136 0.950 . S
C2159 C2158 1.334 . S
C2159 C2160 1.287 . S
C2160 C2159 1.287 . S
C2160 C2161 1.524 . S
C2160 H2179 0.913 . S
C2161 H2137 0.950 . S
C2161 C2160 1.524 . S
C2161 C2162 1.415 . S
C2162 H2138 0.950 . S
C2162 C2157 1.363 . S
C2162 C2161 1.415 . S
C2163 H2139 0.951 . S
C2163 C2164 1.366 . S
C2163 C2165 1.388 . S
C2164 C2163 1.366 . S
C2164 C2168 1.385 . S
C2165 H2140 0.951 . S
C2165 C2163 1.388 . S
C2165 C2166 1.366 . S
C2166 C2165 1.366 . S
C2166 C2167 1.414 . S
C2166 C2169 1.499 . S
C2167 H2141 0.950 . S
C2167 C2166 1.414 . S
C2167 C2168 1.374 . S
C2168 H2142 0.950 . S
C2168 C2164 1.385 . S
C2168 C2167 1.374 . S
C2169 C2166 1.499 . S
C2169 C2170 1.373 . S
C2169 C2171 1.389 . S
C2170 H2143 0.950 . S
C2170 C2156 1.377 . S
C2170 C2169 1.373 . S
C2171 C2155 1.377 . S
C2171 C2169 1.389 . S
C2171 C2172 1.524 . S
C2172 C2171 1.524 . S
C2172 C2173 1.397 . S
C2172 C2177 1.363 . S
C2173 H2144 0.950 . S
C2173 C2172 1.397 . S
C2173 C2174 1.334 . S
C2174 H2145 0.950 . S
C2174 C2173 1.334 . S
C2174 C2175 1.287 . S
C2175 C2174 1.287 . S
C2175 C2176 1.524 . S
C2175 H2178 0.999 . S
C2176 H2146 0.950 . S
C2176 C2175 1.524 . S
C2176 C2177 1.415 . S
C2177 H2147 0.950 . S
C2177 C2172 1.363 . S
C2177 C2176 1.415 . S
H2178 C2175 0.999 . S
H2179 C2160 0.913 . S
H2180 C2198 0.951 . S
H2181 C2200 0.951 . S
H2182 C2202 0.950 . S
H2183 C2203 0.950 . S
H2184 C2205 0.950 . S
H2185 C2208 0.950 . S
H2186 C2209 0.950 . S
H2187 C2211 0.950 . S
H2188 C2212 0.950 . S
H2189 C2213 0.951 . S
H2190 C2215 0.951 . S
H2191 C2217 0.950 . S
H2192 C2218 0.950 . S
H2193 C2220 0.950 . S
H2194 C2223 0.950 . S
H2195 C2224 0.950 . S
H2196 C2226 0.950 . S
H2197 C2227 0.950 . S
C2198 H2180 0.951 . S
C2198 C2199 1.366 . S
C2198 C2200 1.388 . S
C2199 C2198 1.366 . S
C2199 C2203 1.385 . S
C2200 H2181 0.951 . S
C2200 C2198 1.388 . S
C2200 C2201 1.366 . S
C2201 C2200 1.366 . S
C2201 C2202 1.414 . S
C2201 C2204 1.499 . S
C2202 H2182 0.950 . S
C2202 C2201 1.414 . S
C2202 C2203 1.374 . S
C2203 H2183 0.950 . S
C2203 C2199 1.385 . S
C2203 C2202 1.374 . S
C2204 C2201 1.499 . S
C2204 C2205 1.373 . S
C2204 C2206 1.389 . S
C2205 H2184 0.950 . S
C2205 C2204 1.373 . S
C2205 C2221 1.377 . S
C2206 C2204 1.389 . S
C2206 C2207 1.524 . S
C2206 C2220 1.377 . S
C2207 C2206 1.524 . S
C2207 C2208 1.397 . S
C2207 C2212 1.363 1_545 S
C2208 H2185 0.950 . S
C2208 C2207 1.397 . S
C2208 C2209 1.334 1_545 S
C2209 H2186 0.950 . S
C2209 C2208 1.334 1_565 S
C2209 C2210 1.287 . S
C2210 C2209 1.287 . S
C2210 C2211 1.524 . S
C2210 H2229 0.913 . S
C2211 H2187 0.950 . S
C2211 C2210 1.524 . S
C2211 C2212 1.415 . S
C2212 H2188 0.950 . S
C2212 C2207 1.363 1_565 S
C2212 C2211 1.415 . S
C2213 H2189 0.951 . S
C2213 C2214 1.366 . S
C2213 C2215 1.388 . S
C2214 C2213 1.366 . S
C2214 C2218 1.385 . S
C2215 H2190 0.951 . S
C2215 C2213 1.388 . S
C2215 C2216 1.366 . S
C2216 C2215 1.366 . S
C2216 C2217 1.414 . S
C2216 C2219 1.499 . S
C2217 H2191 0.950 . S
C2217 C2216 1.414 . S
C2217 C2218 1.374 . S
C2218 H2192 0.950 . S
C2218 C2214 1.385 . S
C2218 C2217 1.374 . S
C2219 C2216 1.499 . S
C2219 C2220 1.373 . S
C2219 C2221 1.389 . S
C2220 H2193 0.950 . S
C2220 C2206 1.377 . S
C2220 C2219 1.373 . S
C2221 C2205 1.377 . S
C2221 C2219 1.389 . S
C2221 C2222 1.524 . S
C2222 C2221 1.524 . S
C2222 C2223 1.397 . S
C2222 C2227 1.363 . S
C2223 H2194 0.950 . S
C2223 C2222 1.397 . S
C2223 C2224 1.334 . S
C2224 H2195 0.950 . S
C2224 C2223 1.334 . S
C2224 C2225 1.287 . S
C2225 C2224 1.287 . S
C2225 C2226 1.524 . S
C2225 H2228 0.999 . S
C2226 H2196 0.950 . S
C2226 C2225 1.524 . S
C2226 C2227 1.415 . S
C2227 H2197 0.950 . S
C2227 C2222 1.363 . S
C2227 C2226 1.415 . S
H2228 C2225 0.999 . S
H2229 C2210 0.913 . S
H2230 C2248 0.951 . S
H2231 C2250 0.951 . S
H2232 C2252 0.950 . S
H2233 C2253 0.950 . S
H2234 C2255 0.950 . S
H2235 C2258 0.950 . S
H2236 C2259 0.950 . S
H2237 C2261 0.950 . S
H2238 C2262 0.950 . S
H2239 C2263 0.951 . S
H2240 C2265 0.951 . S
H2241 C2267 0.950 . S
H2242 C2268 0.950 . S
H2243 C2270 0.950 . S
H2244 C2273 0.950 . S
H2245 C2274 0.950 . S
H2246 C2276 0.950 . S
H2247 C2277 0.950 . S
C2248 H2230 0.951 . S
C2248 C2249 1.366 . S
C2248 C2250 1.388 . S
C2249 C2248 1.366 . S
C2249 C2253 1.385 . S
C2250 H2231 0.951 . S
C2250 C2248 1.388 . S
C2250 C2251 1.366 . S
C2251 C2250 1.366 . S
C2251 C2252 1.414 . S
C2251 C2254 1.499 . S
C2252 H2232 0.950 . S
C2252 C2251 1.414 . S
C2252 C2253 1.374 . S
C2253 H2233 0.950 . S
C2253 C2249 1.385 . S
C2253 C2252 1.374 . S
C2254 C2251 1.499 . S
C2254 C2255 1.373 . S
C2254 C2256 1.389 . S
C2255 H2234 0.950 . S
C2255 C2254 1.373 . S
C2255 C2271 1.377 . S
C2256 C2254 1.389 . S
C2256 C2257 1.524 . S
C2256 C2270 1.377 . S
C2257 C2256 1.524 . S
C2257 C2258 1.397 . S
C2257 C2262 1.363 . S
C2258 H2235 0.950 . S
C2258 C2257 1.397 . S
C2258 C2259 1.334 . S
C2259 H2236 0.950 . S
C2259 C2258 1.334 . S
C2259 C2260 1.287 . S
C2260 C2259 1.287 . S
C2260 C2261 1.524 . S
C2260 H2279 0.913 . S
C2261 H2237 0.950 . S
C2261 C2260 1.524 . S
C2261 C2262 1.415 . S
C2262 H2238 0.950 . S
C2262 C2257 1.363 . S
C2262 C2261 1.415 . S
C2263 H2239 0.951 . S
C2263 C2264 1.366 . S
C2263 C2265 1.388 . S
C2264 C2263 1.366 . S
C2264 C2268 1.385 . S
C2265 H2240 0.951 . S
C2265 C2263 1.388 . S
C2265 C2266 1.366 . S
C2266 C2265 1.366 . S
C2266 C2267 1.414 . S
C2266 C2269 1.499 . S
C2267 H2241 0.950 . S
C2267 C2266 1.414 . S
C2267 C2268 1.374 . S
C2268 H2242 0.950 . S
C2268 C2264 1.385 . S
C2268 C2267 1.374 . S
C2269 C2266 1.499 . S
C2269 C2270 1.373 . S
C2269 C2271 1.389 . S
C2270 H2243 0.950 . S
C2270 C2256 1.377 . S
C2270 C2269 1.373 . S
C2271 C2255 1.377 . S
C2271 C2269 1.389 . S
C2271 C2272 1.524 . S
C2272 C2271 1.524 . S
C2272 C2273 1.397 . S
C2272 C2277 1.363 . S
C2273 H2244 0.950 . S
C2273 C2272 1.397 . S
C2273 C2274 1.334 . S
C2274 H2245 0.950 . S
C2274 C2273 1.334 . S
C2274 C2275 1.287 . S
C2275 C2274 1.287 . S
C2275 C2276 1.524 . S
C2275 H2278 0.999 . S
C2276 H2246 0.950 . S
C2276 C2275 1.524 . S
C2276 C2277 1.415 . S
C2277 H2247 0.950 . S
C2277 C2272 1.363 . S
C2277 C2276 1.415 . S
H2278 C2275 0.999 . S
H2279 C2260 0.913 . S
H2280 C2298 0.951 . S
H2281 C2300 0.951 . S
H2282 C2302 0.945 1_455 S
H2283 C2303 0.950 . S
H2284 C2305 0.950 . S
H2285 C2308 0.950 1_455 S
H2286 C2309 0.950 . S
H2287 C2311 0.950 . S
H2288 C2312 0.950 . S
H2289 C2313 0.951 . S
H2290 C2315 0.951 . S
H2291 C2317 0.950 . S
H2292 C2318 0.950 . S
H2293 C2320 0.950 . S
H2294 C2323 0.950 . S
H2295 C2324 0.950 1_565 S
H2296 C2326 0.950 . S
H2297 C2327 0.950 . S
C2298 H2280 0.951 . S
C2298 C2299 1.366 . S
C2298 C2300 1.388 . S
C2299 C2298 1.366 . S
C2299 C2303 1.385 . S
C2300 H2281 0.951 . S
C2300 C2298 1.388 . S
C2300 C2301 1.366 . S
C2301 C2300 1.366 . S
C2301 C2302 1.417 . S
C2301 C2304 1.495 1_655 S
C2302 H2282 0.945 1_655 S
C2302 C2301 1.417 . S
C2302 C2303 1.377 . S
C2303 H2283 0.950 . S
C2303 C2299 1.385 . S
C2303 C2302 1.377 . S
C2304 C2301 1.495 1_455 S
C2304 C2305 1.379 . S
C2304 C2306 1.387 1_455 S
C2305 H2284 0.950 . S
C2305 C2304 1.379 . S
C2305 C2321 1.377 . S
C2306 C2304 1.387 1_655 S
C2306 C2307 1.524 . S
C2306 C2320 1.377 1_655 S
C2307 C2306 1.524 . S
C2307 C2308 1.397 . S
C2307 C2312 1.363 . S
C2308 H2285 0.950 1_655 S
C2308 C2307 1.397 . S
C2308 C2309 1.334 . S
C2309 H2286 0.950 . S
C2309 C2308 1.334 . S
C2309 C2310 1.287 . S
C2310 C2309 1.287 . S
C2310 C2311 1.524 . S
C2310 H2329 0.913 . S
C2311 H2287 0.950 . S
C2311 C2310 1.524 . S
C2311 C2312 1.415 . S
C2312 H2288 0.950 . S
C2312 C2307 1.363 . S
C2312 C2311 1.415 . S
C2313 H2289 0.951 . S
C2313 C2314 1.366 . S
C2313 C2315 1.388 . S
C2314 C2313 1.366 . S
C2314 C2318 1.385 . S
C2315 H2290 0.951 . S
C2315 C2313 1.388 . S
C2315 C2316 1.366 . S
C2316 C2315 1.366 . S
C2316 C2317 1.414 . S
C2316 C2319 1.499 . S
C2317 H2291 0.950 . S
C2317 C2316 1.414 . S
C2317 C2318 1.374 . S
C2318 H2292 0.950 . S
C2318 C2314 1.385 . S
C2318 C2317 1.374 . S
C2319 C2316 1.499 . S
C2319 C2320 1.373 . S
C2319 C2321 1.389 . S
C2320 H2293 0.950 . S
C2320 C2306 1.377 1_455 S
C2320 C2319 1.373 . S
C2321 C2305 1.377 . S
C2321 C2319 1.389 . S
C2321 C2322 1.524 . S
C2322 C2321 1.524 . S
C2322 C2323 1.397 . S
C2322 C2327 1.363 . S
C2323 H2294 0.950 . S
C2323 C2322 1.397 . S
C2323 C2324 1.334 . S
C2324 H2295 0.950 1_545 S
C2324 C2323 1.334 . S
C2324 C2325 1.287 . S
C2325 C2324 1.287 . S
C2325 C2326 1.524 . S
C2325 H2328 0.999 1_545 S
C2326 H2296 0.950 . S
C2326 C2325 1.524 . S
C2326 C2327 1.415 . S
C2327 H2297 0.950 . S
C2327 C2322 1.363 . S
C2327 C2326 1.415 . S
H2328 C2325 0.999 1_565 S
H2329 C2310 0.913 . S
H2330 C2348 0.951 . S
H2331 C2350 0.951 . S
H2332 C2352 0.950 . S
H2333 C2353 0.950 . S
H2334 C2355 0.950 . S
H2335 C2358 0.950 . S
H2336 C2359 0.950 . S
H2337 C2361 0.950 . S
H2338 C2362 0.950 . S
H2339 C2363 0.951 . S
H2340 C2365 0.951 . S
H2341 C2367 0.950 . S
H2342 C2368 0.950 . S
H2343 C2370 0.950 . S
H2344 C2373 0.950 . S
H2345 C2374 0.950 . S
H2346 C2376 0.950 . S
H2347 C2377 0.950 . S
C2348 H2330 0.951 . S
C2348 C2349 1.366 . S
C2348 C2350 1.388 . S
C2349 C2348 1.366 . S
C2349 C2353 1.385 . S
C2350 H2331 0.951 . S
C2350 C2348 1.388 . S
C2350 C2351 1.366 . S
C2351 C2350 1.366 . S
C2351 C2352 1.414 . S
C2351 C2354 1.499 . S
C2352 H2332 0.950 . S
C2352 C2351 1.414 . S
C2352 C2353 1.374 . S
C2353 H2333 0.950 . S
C2353 C2349 1.385 . S
C2353 C2352 1.374 . S
C2354 C2351 1.499 . S
C2354 C2355 1.373 . S
C2354 C2356 1.389 . S
C2355 H2334 0.950 . S
C2355 C2354 1.373 . S
C2355 C2371 1.377 . S
C2356 C2354 1.389 . S
C2356 C2357 1.524 . S
C2356 C2370 1.377 . S
C2357 C2356 1.524 . S
C2357 C2358 1.397 . S
C2357 C2362 1.363 . S
C2358 H2335 0.950 . S
C2358 C2357 1.397 . S
C2358 C2359 1.334 . S
C2359 H2336 0.950 . S
C2359 C2358 1.334 . S
C2359 C2360 1.287 . S
C2360 C2359 1.287 . S
C2360 C2361 1.524 . S
C2360 H2379 0.913 . S
C2361 H2337 0.950 . S
C2361 C2360 1.524 . S
C2361 C2362 1.415 . S
C2362 H2338 0.950 . S
C2362 C2357 1.363 . S
C2362 C2361 1.415 . S
C2363 H2339 0.951 . S
C2363 C2364 1.366 . S
C2363 C2365 1.388 . S
C2364 C2363 1.366 . S
C2364 C2368 1.385 . S
C2365 H2340 0.951 . S
C2365 C2363 1.388 . S
C2365 C2366 1.366 . S
C2366 C2365 1.366 . S
C2366 C2367 1.414 . S
C2366 C2369 1.499 . S
C2367 H2341 0.950 . S
C2367 C2366 1.414 . S
C2367 C2368 1.374 . S
C2368 H2342 0.950 . S
C2368 C2364 1.385 . S
C2368 C2367 1.374 . S
C2369 C2366 1.499 . S
C2369 C2370 1.373 . S
C2369 C2371 1.389 . S
C2370 H2343 0.950 . S
C2370 C2356 1.377 . S
C2370 C2369 1.373 . S
C2371 C2355 1.377 . S
C2371 C2369 1.389 . S
C2371 C2372 1.524 . S
C2372 C2371 1.524 . S
C2372 C2373 1.397 . S
C2372 C2377 1.363 . S
C2373 H2344 0.950 . S
C2373 C2372 1.397 . S
C2373 C2374 1.334 . S
C2374 H2345 0.950 . S
C2374 C2373 1.334 . S
C2374 C2375 1.287 . S
C2375 C2374 1.287 . S
C2375 C2376 1.524 . S
C2375 H2378 0.999 . S
C2376 H2346 0.950 . S
C2376 C2375 1.524 . S
C2376 C2377 1.415 . S
C2377 H2347 0.950 . S
C2377 C2372 1.363 . S
C2377 C2376 1.415 . S
H2378 C2375 0.999 . S
H2379 C2360 0.913 . S
H2380 C2398 0.951 . S
H2381 C2400 0.951 . S
H2382 C2402 0.950 . S
H2383 C2403 0.950 . S
H2384 C2405 0.950 . S
H2385 C2408 0.950 . S
H2386 C2409 0.950 . S
H2387 C2411 0.950 . S
H2388 C2412 0.950 . S
H2389 C2413 0.951 . S
H2390 C2415 0.951 . S
H2391 C2417 0.950 . S
H2392 C2418 0.950 . S
H2393 C2420 0.950 . S
H2394 C2423 0.950 . S
H2395 C2424 0.996 . S
H2396 C2426 0.950 . S
H2397 C2427 0.950 . S
C2398 H2380 0.951 . S
C2398 C2399 1.366 . S
C2398 C2400 1.388 . S
C2399 C2398 1.366 . S
C2399 C2403 1.385 . S
C2400 H2381 0.951 . S
C2400 C2398 1.388 . S
C2400 C2401 1.366 . S
C2401 C2400 1.366 . S
C2401 C2402 1.414 . S
C2401 C2404 1.499 . S
C2402 H2382 0.950 . S
C2402 C2401 1.414 . S
C2402 C2403 1.374 . S
C2403 H2383 0.950 . S
C2403 C2399 1.385 . S
C2403 C2402 1.374 . S
C2404 C2401 1.499 . S
C2404 C2405 1.373 . S
C2404 C2406 1.389 . S
C2405 H2384 0.950 . S
C2405 C2404 1.373 . S
C2405 C2421 1.377 . S
C2406 C2404 1.389 . S
C2406 C2407 1.524 . S
C2406 C2420 1.377 . S
C2407 C2406 1.524 . S
C2407 C2408 1.397 . S
C2407 C2412 1.363 . S
C2408 H2385 0.950 . S
C2408 C2407 1.397 . S
C2408 C2409 1.334 . S
C2409 H2386 0.950 . S
C2409 C2408 1.334 . S
C2409 C2410 1.287 . S
C2410 C2409 1.287 . S
C2410 C2411 1.524 . S
C2410 H2429 0.913 . S
C2411 H2387 0.950 . S
C2411 C2410 1.524 . S
C2411 C2412 1.415 . S
C2412 H2388 0.950 . S
C2412 C2407 1.363 . S
C2412 C2411 1.415 . S
C2413 H2389 0.951 . S
C2413 C2414 1.366 . S
C2413 C2415 1.388 . S
C2414 C2413 1.366 . S
C2414 C2418 1.385 . S
C2415 H2390 0.951 . S
C2415 C2413 1.388 . S
C2415 C2416 1.366 . S
C2416 C2415 1.366 . S
C2416 C2417 1.414 . S
C2416 C2419 1.499 . S
C2417 H2391 0.950 . S
C2417 C2416 1.414 . S
C2417 C2418 1.374 . S
C2418 H2392 0.950 . S
C2418 C2414 1.385 . S
C2418 C2417 1.374 . S
C2419 C2416 1.499 . S
C2419 C2420 1.373 . S
C2419 C2421 1.389 . S
C2420 H2393 0.950 . S
C2420 C2406 1.377 . S
C2420 C2419 1.373 . S
C2421 C2405 1.377 . S
C2421 C2419 1.389 . S
C2421 C2422 1.524 . S
C2422 C2421 1.524 . S
C2422 C2423 1.397 . S
C2422 C2427 1.363 . S
C2423 H2394 0.950 . S
C2423 C2422 1.397 . S
C2423 C2424 1.334 . S
C2424 H2395 0.996 . S
C2424 C2423 1.334 . S
C2424 C2425 1.287 . S
C2425 C2424 1.287 . S
C2425 C2426 1.524 . S
C2425 H2428 0.999 . S
C2426 H2396 0.950 . S
C2426 C2425 1.524 . S
C2426 C2427 1.415 . S
C2427 H2397 0.950 . S
C2427 C2422 1.363 . S
C2427 C2426 1.415 . S
H2428 C2425 0.999 . S
H2429 C2410 0.913 . S
H2430 C2448 0.951 . S
H2431 C2450 0.951 . S
H2432 C2452 0.950 . S
H2433 C2453 0.950 . S
H2434 C2455 0.950 . S
H2435 C2458 0.950 . S
H2436 C2459 0.950 . S
H2437 C2461 0.950 . S
H2438 C2462 0.950 . S
H2439 C2463 0.951 . S
H2440 C2465 0.951 . S
H2441 C2467 0.950 . S
H2442 C2468 0.950 . S
H2443 C2470 0.950 . S
H2444 C2473 0.950 . S
H2445 C2474 0.950 . S
H2446 C2476 0.950 . S
H2447 C2477 0.950 . S
C2448 H2430 0.951 . S
C2448 C2449 1.366 . S
C2448 C2450 1.388 . S
C2449 C2448 1.366 . S
C2449 C2453 1.385 . S
C2450 H2431 0.951 . S
C2450 C2448 1.388 . S
C2450 C2451 1.366 . S
C2451 C2450 1.366 . S
C2451 C2452 1.414 . S
C2451 C2454 1.499 . S
C2452 H2432 0.950 . S
C2452 C2451 1.414 . S
C2452 C2453 1.374 . S
C2453 H2433 0.950 . S
C2453 C2449 1.385 . S
C2453 C2452 1.374 . S
C2454 C2451 1.499 . S
C2454 C2455 1.373 . S
C2454 C2456 1.389 . S
C2455 H2434 0.950 . S
C2455 C2454 1.373 . S
C2455 C2471 1.377 . S
C2456 C2454 1.389 . S
C2456 C2457 1.524 . S
C2456 C2470 1.377 . S
C2457 C2456 1.524 . S
C2457 C2458 1.397 . S
C2457 C2462 1.363 . S
C2458 H2435 0.950 . S
C2458 C2457 1.397 . S
C2458 C2459 1.334 . S
C2459 H2436 0.950 . S
C2459 C2458 1.334 . S
C2459 C2460 1.287 . S
C2460 C2459 1.287 . S
C2460 C2461 1.524 . S
C2460 H2479 0.913 . S
C2461 H2437 0.950 . S
C2461 C2460 1.524 . S
C2461 C2462 1.415 . S
C2462 H2438 0.950 . S
C2462 C2457 1.363 . S
C2462 C2461 1.415 . S
C2463 H2439 0.951 . S
C2463 C2464 1.366 . S
C2463 C2465 1.388 . S
C2464 C2463 1.366 . S
C2464 C2468 1.385 . S
C2465 H2440 0.951 . S
C2465 C2463 1.388 . S
C2465 C2466 1.366 . S
C2466 C2465 1.366 . S
C2466 C2467 1.414 . S
C2466 C2469 1.499 . S
C2467 H2441 0.950 . S
C2467 C2466 1.414 . S
C2467 C2468 1.374 . S
C2468 H2442 0.950 . S
C2468 C2464 1.385 . S
C2468 C2467 1.374 . S
C2469 C2466 1.499 . S
C2469 C2470 1.373 . S
C2469 C2471 1.389 . S
C2470 H2443 0.950 . S
C2470 C2456 1.377 . S
C2470 C2469 1.373 . S
C2471 C2455 1.377 . S
C2471 C2469 1.389 . S
C2471 C2472 1.524 . S
C2472 C2471 1.524 . S
C2472 C2473 1.397 . S
C2472 C2477 1.363 . S
C2473 H2444 0.950 . S
C2473 C2472 1.397 . S
C2473 C2474 1.334 . S
C2474 H2445 0.950 . S
C2474 C2473 1.334 . S
C2474 C2475 1.287 . S
C2475 C2474 1.287 . S
C2475 C2476 1.524 . S
C2475 H2478 0.999 . S
C2476 H2446 0.950 . S
C2476 C2475 1.524 . S
C2476 C2477 1.415 . S
C2477 H2447 0.950 . S
C2477 C2472 1.363 . S
C2477 C2476 1.415 . S
H2478 C2475 0.999 . S
H2479 C2460 0.913 . S
H2480 C2498 0.951 1_556 S
H2481 C2500 0.951 1_556 S
H2482 C2502 0.950 . S
H2483 C2503 0.950 . S
H2484 C2505 0.950 . S
H2485 C2508 0.950 . S
H2486 C2509 0.950 . S
H2487 C2511 0.950 . S
H2488 C2512 0.950 . S
H2489 C2513 0.951 . S
H2490 C2515 0.951 . S
H2491 C2517 0.950 . S
H2492 C2518 0.948 1_565 S
H2493 C2520 0.950 1_556 S
H2494 C2523 0.950 . S
H2495 C2524 0.950 . S
H2496 C2526 0.950 . S
H2497 C2527 0.950 . S
C2498 H2480 0.951 1_554 S
C2498 C2499 1.366 . S
C2498 C2500 1.388 . S
C2499 C2498 1.366 . S
C2499 C2503 1.385 . S
C2500 H2481 0.951 1_554 S
C2500 C2498 1.388 . S
C2500 C2501 1.366 . S
C2501 C2500 1.366 . S
C2501 C2502 1.414 . S
C2501 C2504 1.499 . S
C2502 H2482 0.950 . S
C2502 C2501 1.414 . S
C2502 C2503 1.374 . S
C2503 H2483 0.950 . S
C2503 C2499 1.385 . S
C2503 C2502 1.374 . S
C2504 C2501 1.499 . S
C2504 C2505 1.373 . S
C2504 C2506 1.389 . S
C2505 H2484 0.950 . S
C2505 C2504 1.373 . S
C2505 C2521 1.377 . S
C2506 C2504 1.389 . S
C2506 C2507 1.524 1_554 S
C2506 C2520 1.377 . S
C2507 C2506 1.524 1_556 S
C2507 C2508 1.397 . S
C2507 C2512 1.363 . S
C2508 H2485 0.950 . S
C2508 C2507 1.397 . S
C2508 C2509 1.334 . S
C2509 H2486 0.950 . S
C2509 C2508 1.334 . S
C2509 C2510 1.287 . S
C2510 C2509 1.287 . S
C2510 C2511 1.524 . S
C2510 H2529 0.913 . S
C2511 H2487 0.950 . S
C2511 C2510 1.524 . S
C2511 C2512 1.415 . S
C2512 H2488 0.950 . S
C2512 C2507 1.363 . S
C2512 C2511 1.415 . S
C2513 H2489 0.951 . S
C2513 C2514 1.366 . S
C2513 C2515 1.388 . S
C2514 C2513 1.366 . S
C2514 C2518 1.385 . S
C2515 H2490 0.951 . S
C2515 C2513 1.388 . S
C2515 C2516 1.366 . S
C2516 C2515 1.366 . S
C2516 C2517 1.414 1_545 S
C2516 C2519 1.499 1_545 S
C2517 H2491 0.950 . S
C2517 C2516 1.414 1_565 S
C2517 C2518 1.374 1_565 S
C2518 H2492 0.948 1_545 S
C2518 C2514 1.385 . S
C2518 C2517 1.374 1_545 S
C2519 C2516 1.499 1_565 S
C2519 C2520 1.373 . S
C2519 C2521 1.389 . S
C2520 H2493 0.950 1_554 S
C2520 C2506 1.377 . S
C2520 C2519 1.373 . S
C2521 C2505 1.377 . S
C2521 C2519 1.389 . S
C2521 C2522 1.524 . S
C2522 C2521 1.524 . S
C2522 C2523 1.397 . S
C2522 C2527 1.363 1_565 S
C2523 H2494 0.950 . S
C2523 C2522 1.397 . S
C2523 C2524 1.334 . S
C2524 H2495 0.950 . S
C2524 C2523 1.334 . S
C2524 C2525 1.287 . S
C2525 C2524 1.287 . S
C2525 C2526 1.524 1_565 S
C2525 H2528 0.999 . S
C2526 H2496 0.950 . S
C2526 C2525 1.524 1_545 S
C2526 C2527 1.415 . S
C2527 H2497 0.950 . S
C2527 C2522 1.363 1_545 S
C2527 C2526 1.415 . S
H2528 C2525 0.999 . S
H2529 C2510 0.913 . S
H2530 C2548 0.952 . S
H2531 C2550 0.957 1_556 S
H2532 C2552 0.950 . S
H2533 C2553 0.950 . S
H2534 C2555 0.950 . S
H2535 C2558 0.950 . S
H2536 C2559 0.950 . S
H2537 C2561 0.950 . S
H2538 C2562 0.950 . S
H2539 C2563 0.951 . S
H2540 C2565 0.951 . S
H2541 C2567 0.950 . S
H2542 C2568 0.950 . S
H2543 C2570 0.950 . S
H2544 C2573 0.950 . S
H2545 C2574 0.950 . S
H2546 C2576 0.950 . S
H2547 C2577 0.950 . S
C2548 H2530 0.952 . S
C2548 C2549 1.376 1_556 S
C2548 C2550 1.385 1_556 S
C2549 C2548 1.376 1_554 S
C2549 C2553 1.388 . S
C2550 H2531 0.957 1_554 S
C2550 C2548 1.385 1_554 S
C2550 C2551 1.365 . S
C2551 C2550 1.365 . S
C2551 C2552 1.414 . S
C2551 C2554 1.499 . S
C2552 H2532 0.950 . S
C2552 C2551 1.414 . S
C2552 C2553 1.374 . S
C2553 H2533 0.950 . S
C2553 C2549 1.388 . S
C2553 C2552 1.374 . S
C2554 C2551 1.499 . S
C2554 C2555 1.373 . S
C2554 C2556 1.389 1_554 S
C2555 H2534 0.950 . S
C2555 C2554 1.373 . S
C2555 C2571 1.377 . S
C2556 C2554 1.389 1_556 S
C2556 C2557 1.524 . S
C2556 C2570 1.377 . S
C2557 C2556 1.524 . S
C2557 C2558 1.397 . S
C2557 C2562 1.363 . S
C2558 H2535 0.950 . S
C2558 C2557 1.397 . S
C2558 C2559 1.334 . S
C2559 H2536 0.950 . S
C2559 C2558 1.334 . S
C2559 C2560 1.287 . S
C2560 C2559 1.287 . S
C2560 C2561 1.524 . S
C2560 H2579 0.913 . S
C2561 H2537 0.950 . S
C2561 C2560 1.524 . S
C2561 C2562 1.415 . S
C2562 H2538 0.950 . S
C2562 C2557 1.363 . S
C2562 C2561 1.415 . S
C2563 H2539 0.951 . S
C2563 C2564 1.366 . S
C2563 C2565 1.388 . S
C2564 C2563 1.366 . S
C2564 C2568 1.385 . S
C2565 H2540 0.951 . S
C2565 C2563 1.388 . S
C2565 C2566 1.366 . S
C2566 C2565 1.366 . S
C2566 C2567 1.414 . S
C2566 C2569 1.499 . S
C2567 H2541 0.950 . S
C2567 C2566 1.414 . S
C2567 C2568 1.374 . S
C2568 H2542 0.950 . S
C2568 C2564 1.385 . S
C2568 C2567 1.374 . S
C2569 C2566 1.499 . S
C2569 C2570 1.373 1_554 S
C2569 C2571 1.389 . S
C2570 H2543 0.950 . S
C2570 C2556 1.377 . S
C2570 C2569 1.373 1_556 S
C2571 C2555 1.377 . S
C2571 C2569 1.389 . S
C2571 C2572 1.524 . S
C2572 C2571 1.524 . S
C2572 C2573 1.397 . S
C2572 C2577 1.363 . S
C2573 H2544 0.950 . S
C2573 C2572 1.397 . S
C2573 C2574 1.334 . S
C2574 H2545 0.950 . S
C2574 C2573 1.334 . S
C2574 C2575 1.287 . S
C2575 C2574 1.287 . S
C2575 C2576 1.524 . S
C2575 H2578 0.999 . S
C2576 H2546 0.950 . S
C2576 C2575 1.524 . S
C2576 C2577 1.415 . S
C2577 H2547 0.950 . S
C2577 C2572 1.363 . S
C2577 C2576 1.415 . S
H2578 C2575 0.999 . S
H2579 C2560 0.913 . S
H2580 C2598 0.951 . S
H2581 C2600 0.951 . S
H2582 C2602 0.950 . S
H2583 C2603 0.950 . S
H2584 C2605 0.950 . S
H2585 C2608 0.950 . S
H2586 C2609 0.950 . S
H2587 C2611 0.950 . S
H2588 C2612 0.950 . S
H2589 C2613 0.951 . S
H2590 C2615 0.951 . S
H2591 C2617 0.950 . S
H2592 C2618 0.950 . S
H2593 C2620 0.950 . S
H2594 C2623 0.950 . S
H2595 C2624 0.950 . S
H2596 C2626 0.950 . S
H2597 C2627 0.950 . S
C2598 H2580 0.951 . S
C2598 C2599 1.366 . S
C2598 C2600 1.388 . S
C2599 C2598 1.366 . S
C2599 C2603 1.385 . S
C2600 H2581 0.951 . S
C2600 C2598 1.388 . S
C2600 C2601 1.366 . S
C2601 C2600 1.366 . S
C2601 C2602 1.414 . S
C2601 C2604 1.499 . S
C2602 H2582 0.950 . S
C2602 C2601 1.414 . S
C2602 C2603 1.374 . S
C2603 H2583 0.950 . S
C2603 C2599 1.385 . S
C2603 C2602 1.374 . S
C2604 C2601 1.499 . S
C2604 C2605 1.373 . S
C2604 C2606 1.389 . S
C2605 H2584 0.950 . S
C2605 C2604 1.373 . S
C2605 C2621 1.377 . S
C2606 C2604 1.389 . S
C2606 C2607 1.524 . S
C2606 C2620 1.377 . S
C2607 C2606 1.524 . S
C2607 C2608 1.397 . S
C2607 C2612 1.363 . S
C2608 H2585 0.950 . S
C2608 C2607 1.397 . S
C2608 C2609 1.334 . S
C2609 H2586 0.950 . S
C2609 C2608 1.334 . S
C2609 C2610 1.287 . S
C2610 C2609 1.287 . S
C2610 C2611 1.524 . S
C2610 H2629 0.913 . S
C2611 H2587 0.950 . S
C2611 C2610 1.524 . S
C2611 C2612 1.415 . S
C2612 H2588 0.950 . S
C2612 C2607 1.363 . S
C2612 C2611 1.415 . S
C2613 H2589 0.951 . S
C2613 C2614 1.366 . S
C2613 C2615 1.388 . S
C2614 C2613 1.366 . S
C2614 C2618 1.385 . S
C2615 H2590 0.951 . S
C2615 C2613 1.388 . S
C2615 C2616 1.366 . S
C2616 C2615 1.366 . S
C2616 C2617 1.414 . S
C2616 C2619 1.499 . S
C2617 H2591 0.950 . S
C2617 C2616 1.414 . S
C2617 C2618 1.374 . S
C2618 H2592 0.950 . S
C2618 C2614 1.385 . S
C2618 C2617 1.374 . S
C2619 C2616 1.499 . S
C2619 C2620 1.373 . S
C2619 C2621 1.389 . S
C2620 H2593 0.950 . S
C2620 C2606 1.377 . S
C2620 C2619 1.373 . S
C2621 C2605 1.377 . S
C2621 C2619 1.389 . S
C2621 C2622 1.524 . S
C2622 C2621 1.524 . S
C2622 C2623 1.397 . S
C2622 C2627 1.363 . S
C2623 H2594 0.950 . S
C2623 C2622 1.397 . S
C2623 C2624 1.334 . S
C2624 H2595 0.950 . S
C2624 C2623 1.334 . S
C2624 C2625 1.287 . S
C2625 C2624 1.287 . S
C2625 C2626 1.524 . S
C2625 H2628 0.999 . S
C2626 H2596 0.950 . S
C2626 C2625 1.524 . S
C2626 C2627 1.415 . S
C2627 H2597 0.950 . S
C2627 C2622 1.363 . S
C2627 C2626 1.415 . S
H2628 C2625 0.999 . S
H2629 C2610 0.913 . S
H2630 C2648 0.951 . S
H2631 C2650 0.951 . S
H2632 C2652 0.950 . S
H2633 C2653 0.950 . S
H2634 C2655 0.950 . S
H2635 C2658 0.950 . S
H2636 C2659 0.950 . S
H2637 C2661 0.950 . S
H2638 C2662 0.950 . S
H2639 C2663 0.958 1_455 S
H2640 C2665 0.951 . S
H2641 C2667 0.950 . S
H2642 C2668 0.950 . S
H2643 C2670 0.950 . S
H2644 C2673 0.950 . S
H2645 C2674 0.950 . S
H2646 C2676 0.950 . S
H2647 C2677 0.950 . S
C2648 H2630 0.951 . S
C2648 C2649 1.366 . S
C2648 C2650 1.388 . S
C2649 C2648 1.366 . S
C2649 C2653 1.385 . S
C2650 H2631 0.951 . S
C2650 C2648 1.388 . S
C2650 C2651 1.366 . S
C2651 C2650 1.366 . S
C2651 C2652 1.414 . S
C2651 C2654 1.499 . S
C2652 H2632 0.950 . S
C2652 C2651 1.414 . S
C2652 C2653 1.374 . S
C2653 H2633 0.950 . S
C2653 C2649 1.385 . S
C2653 C2652 1.374 . S
C2654 C2651 1.499 . S
C2654 C2655 1.373 . S
C2654 C2656 1.389 . S
C2655 H2634 0.950 . S
C2655 C2654 1.373 . S
C2655 C2671 1.377 . S
C2656 C2654 1.389 . S
C2656 C2657 1.524 . S
C2656 C2670 1.377 . S
C2657 C2656 1.524 . S
C2657 C2658 1.397 . S
C2657 C2662 1.363 . S
C2658 H2635 0.950 . S
C2658 C2657 1.397 . S
C2658 C2659 1.334 . S
C2659 H2636 0.950 . S
C2659 C2658 1.334 . S
C2659 C2660 1.287 . S
C2660 C2659 1.287 . S
C2660 C2661 1.524 . S
C2660 H2679 0.913 . S
C2661 H2637 0.950 . S
C2661 C2660 1.524 . S
C2661 C2662 1.415 . S
C2662 H2638 0.950 . S
C2662 C2657 1.363 . S
C2662 C2661 1.415 . S
C2663 H2639 0.958 1_655 S
C2663 C2664 1.306 1_655 S
C2663 C2665 1.443 . S
C2664 C2663 1.306 1_455 S
C2664 C2668 1.385 . S
C2665 H2640 0.951 . S
C2665 C2663 1.443 . S
C2665 C2666 1.366 . S
C2666 C2665 1.366 . S
C2666 C2667 1.414 . S
C2666 C2669 1.499 . S
C2667 H2641 0.950 . S
C2667 C2666 1.414 . S
C2667 C2668 1.374 1_655 S
C2668 H2642 0.950 . S
C2668 C2664 1.385 . S
C2668 C2667 1.374 1_455 S
C2669 C2666 1.499 . S
C2669 C2670 1.373 . S
C2669 C2671 1.389 . S
C2670 H2643 0.950 . S
C2670 C2656 1.377 . S
C2670 C2669 1.373 . S
C2671 C2655 1.377 . S
C2671 C2669 1.389 . S
C2671 C2672 1.524 . S
C2672 C2671 1.524 . S
C2672 C2673 1.397 . S
C2672 C2677 1.363 . S
C2673 H2644 0.950 . S
C2673 C2672 1.397 . S
C2673 C2674 1.334 . S
C2674 H2645 0.950 . S
C2674 C2673 1.334 . S
C2674 C2675 1.287 . S
C2675 C2674 1.287 . S
C2675 C2676 1.524 . S
C2675 H2678 0.999 . S
C2676 H2646 0.950 . S
C2676 C2675 1.524 . S
C2676 C2677 1.415 . S
C2677 H2647 0.950 . S
C2677 C2672 1.363 . S
C2677 C2676 1.415 . S
H2678 C2675 0.999 . S
H2679 C2660 0.913 . S
H2680 C2698 0.951 . S
H2681 C2700 0.951 . S
H2682 C2702 0.950 . S
H2683 C2703 0.950 . S
H2684 C2705 0.950 . S
H2685 C2708 0.950 . S
H2686 C2709 0.950 . S
H2687 C2711 0.950 . S
H2688 C2712 0.950 . S
H2689 C2713 0.951 . S
H2690 C2715 0.951 . S
H2691 C2717 0.950 . S
H2692 C2718 0.950 . S
H2693 C2720 0.950 . S
H2694 C2723 0.950 . S
H2695 C2724 0.950 . S
H2696 C2726 0.950 . S
H2697 C2727 0.950 . S
C2698 H2680 0.951 . S
C2698 C2699 1.366 . S
C2698 C2700 1.388 . S
C2699 C2698 1.366 . S
C2699 C2703 1.385 . S
C2700 H2681 0.951 . S
C2700 C2698 1.388 . S
C2700 C2701 1.366 . S
C2701 C2700 1.366 . S
C2701 C2702 1.414 . S
C2701 C2704 1.499 . S
C2702 H2682 0.950 . S
C2702 C2701 1.414 . S
C2702 C2703 1.374 . S
C2703 H2683 0.950 . S
C2703 C2699 1.385 . S
C2703 C2702 1.374 . S
C2704 C2701 1.499 . S
C2704 C2705 1.373 . S
C2704 C2706 1.389 . S
C2705 H2684 0.950 . S
C2705 C2704 1.373 . S
C2705 C2721 1.377 . S
C2706 C2704 1.389 . S
C2706 C2707 1.524 . S
C2706 C2720 1.377 . S
C2707 C2706 1.524 . S
C2707 C2708 1.397 . S
C2707 C2712 1.363 . S
C2708 H2685 0.950 . S
C2708 C2707 1.397 . S
C2708 C2709 1.334 . S
C2709 H2686 0.950 . S
C2709 C2708 1.334 . S
C2709 C2710 1.287 . S
C2710 C2709 1.287 . S
C2710 C2711 1.524 . S
C2710 H2729 0.913 . S
C2711 H2687 0.950 . S
C2711 C2710 1.524 . S
C2711 C2712 1.415 . S
C2712 H2688 0.950 . S
C2712 C2707 1.363 . S
C2712 C2711 1.415 . S
C2713 H2689 0.951 . S
C2713 C2714 1.366 . S
C2713 C2715 1.388 . S
C2714 C2713 1.366 . S
C2714 C2718 1.385 . S
C2715 H2690 0.951 . S
C2715 C2713 1.388 . S
C2715 C2716 1.366 . S
C2716 C2715 1.366 . S
C2716 C2717 1.414 . S
C2716 C2719 1.499 . S
C2717 H2691 0.950 . S
C2717 C2716 1.414 . S
C2717 C2718 1.374 . S
C2718 H2692 0.950 . S
C2718 C2714 1.385 . S
C2718 C2717 1.374 . S
C2719 C2716 1.499 . S
C2719 C2720 1.373 . S
C2719 C2721 1.389 . S
C2720 H2693 0.950 . S
C2720 C2706 1.377 . S
C2720 C2719 1.373 . S
C2721 C2705 1.377 . S
C2721 C2719 1.389 . S
C2721 C2722 1.524 . S
C2722 C2721 1.524 . S
C2722 C2723 1.397 . S
C2722 C2727 1.363 . S
C2723 H2694 0.950 . S
C2723 C2722 1.397 . S
C2723 C2724 1.334 . S
C2724 H2695 0.950 . S
C2724 C2723 1.334 . S
C2724 C2725 1.287 . S
C2725 C2724 1.287 . S
C2725 C2726 1.524 . S
C2725 H2728 0.999 . S
C2726 H2696 0.950 . S
C2726 C2725 1.524 . S
C2726 C2727 1.415 . S
C2727 H2697 0.950 . S
C2727 C2722 1.363 . S
C2727 C2726 1.415 . S
H2728 C2725 0.999 . S
H2729 C2710 0.913 . S
H2730 C2748 0.951 . S
H2731 C2750 0.951 . S
H2732 C2752 0.950 . S
H2733 C2753 0.950 . S
H2734 C2755 0.950 . S
H2735 C2758 0.950 . S
H2736 C2759 0.950 . S
H2737 C2761 0.950 . S
H2738 C2762 0.950 . S
H2739 C2763 0.951 . S
H2740 C2765 0.951 . S
H2741 C2767 0.950 . S
H2742 C2768 0.950 . S
H2743 C2770 0.950 . S
H2744 C2773 0.950 . S
H2745 C2774 0.950 . S
H2746 C2776 0.950 . S
H2747 C2777 0.950 . S
C2748 H2730 0.951 . S
C2748 C2749 1.366 . S
C2748 C2750 1.388 . S
C2749 C2748 1.366 . S
C2749 C2753 1.385 . S
C2750 H2731 0.951 . S
C2750 C2748 1.388 . S
C2750 C2751 1.366 . S
C2751 C2750 1.366 . S
C2751 C2752 1.414 . S
C2751 C2754 1.499 . S
C2752 H2732 0.950 . S
C2752 C2751 1.414 . S
C2752 C2753 1.374 . S
C2753 H2733 0.950 . S
C2753 C2749 1.385 . S
C2753 C2752 1.374 . S
C2754 C2751 1.499 . S
C2754 C2755 1.373 . S
C2754 C2756 1.389 . S
C2755 H2734 0.950 . S
C2755 C2754 1.373 . S
C2755 C2771 1.377 . S
C2756 C2754 1.389 . S
C2756 C2757 1.524 . S
C2756 C2770 1.377 . S
C2757 C2756 1.524 . S
C2757 C2758 1.397 . S
C2757 C2762 1.363 . S
C2758 H2735 0.950 . S
C2758 C2757 1.397 . S
C2758 C2759 1.334 . S
C2759 H2736 0.950 . S
C2759 C2758 1.334 . S
C2759 C2760 1.287 . S
C2760 C2759 1.287 . S
C2760 C2761 1.524 . S
C2760 H2779 0.913 . S
C2761 H2737 0.950 . S
C2761 C2760 1.524 . S
C2761 C2762 1.415 . S
C2762 H2738 0.950 . S
C2762 C2757 1.363 . S
C2762 C2761 1.415 . S
C2763 H2739 0.951 . S
C2763 C2764 1.366 . S
C2763 C2765 1.388 . S
C2764 C2763 1.366 . S
C2764 C2768 1.385 . S
C2765 H2740 0.951 . S
C2765 C2763 1.388 . S
C2765 C2766 1.366 . S
C2766 C2765 1.366 . S
C2766 C2767 1.414 . S
C2766 C2769 1.499 . S
C2767 H2741 0.950 . S
C2767 C2766 1.414 . S
C2767 C2768 1.374 . S
C2768 H2742 0.950 . S
C2768 C2764 1.385 . S
C2768 C2767 1.374 . S
C2769 C2766 1.499 . S
C2769 C2770 1.373 . S
C2769 C2771 1.389 . S
C2770 H2743 0.950 . S
C2770 C2756 1.377 . S
C2770 C2769 1.373 . S
C2771 C2755 1.377 . S
C2771 C2769 1.389 . S
C2771 C2772 1.524 . S
C2772 C2771 1.524 . S
C2772 C2773 1.397 . S
C2772 C2777 1.363 . S
C2773 H2744 0.950 . S
C2773 C2772 1.397 . S
C2773 C2774 1.334 . S
C2774 H2745 0.950 . S
C2774 C2773 1.334 . S
C2774 C2775 1.287 . S
C2775 C2774 1.287 . S
C2775 C2776 1.524 . S
C2775 H2778 0.999 . S
C2776 H2746 0.950 . S
C2776 C2775 1.524 . S
C2776 C2777 1.415 . S
C2777 H2747 0.950 . S
C2777 C2772 1.363 . S
C2777 C2776 1.415 . S
H2778 C2775 0.999 . S
H2779 C2760 0.913 . S
H2780 C2798 0.951 . S
H2781 C2800 0.951 . S
H2782 C2802 0.950 . S
H2783 C2803 0.950 . S
H2784 C2805 0.950 . S
H2785 C2808 0.950 . S
H2786 C2809 0.950 . S
H2787 C2811 0.950 . S
H2788 C2812 0.950 . S
H2789 C2813 0.951 . S
H2790 C2815 0.951 . S
H2791 C2817 0.950 . S
H2792 C2818 0.950 . S
H2793 C2820 0.950 . S
H2794 C2823 0.950 . S
H2795 C2824 0.950 . S
H2796 C2826 0.950 . S
H2797 C2827 0.950 . S
C2798 H2780 0.951 . S
C2798 C2799 1.366 . S
C2798 C2800 1.388 . S
C2799 C2798 1.366 . S
C2799 C2803 1.385 . S
C2800 H2781 0.951 . S
C2800 C2798 1.388 . S
C2800 C2801 1.366 . S
C2801 C2800 1.366 . S
C2801 C2802 1.414 . S
C2801 C2804 1.499 . S
C2802 H2782 0.950 . S
C2802 C2801 1.414 . S
C2802 C2803 1.374 . S
C2803 H2783 0.950 . S
C2803 C2799 1.385 . S
C2803 C2802 1.374 . S
C2804 C2801 1.499 . S
C2804 C2805 1.373 . S
C2804 C2806 1.389 . S
C2805 H2784 0.950 . S
C2805 C2804 1.373 . S
C2805 C2821 1.377 . S
C2806 C2804 1.389 . S
C2806 C2807 1.524 . S
C2806 C2820 1.377 . S
C2807 C2806 1.524 . S
C2807 C2808 1.397 . S
C2807 C2812 1.363 . S
C2808 H2785 0.950 . S
C2808 C2807 1.397 . S
C2808 C2809 1.334 . S
C2809 H2786 0.950 . S
C2809 C2808 1.334 . S
C2809 C2810 1.287 . S
C2810 C2809 1.287 . S
C2810 C2811 1.524 . S
C2810 H2829 0.913 . S
C2811 H2787 0.950 . S
C2811 C2810 1.524 . S
C2811 C2812 1.415 . S
C2812 H2788 0.950 . S
C2812 C2807 1.363 . S
C2812 C2811 1.415 . S
C2813 H2789 0.951 . S
C2813 C2814 1.366 . S
C2813 C2815 1.388 . S
C2814 C2813 1.366 . S
C2814 C2818 1.385 . S
C2815 H2790 0.951 . S
C2815 C2813 1.388 . S
C2815 C2816 1.366 . S
C2816 C2815 1.366 . S
C2816 C2817 1.414 . S
C2816 C2819 1.499 . S
C2817 H2791 0.950 . S
C2817 C2816 1.414 . S
C2817 C2818 1.374 . S
C2818 H2792 0.950 . S
C2818 C2814 1.385 . S
C2818 C2817 1.374 . S
C2819 C2816 1.499 . S
C2819 C2820 1.373 . S
C2819 C2821 1.389 . S
C2820 H2793 0.950 . S
C2820 C2806 1.377 . S
C2820 C2819 1.373 . S
C2821 C2805 1.377 . S
C2821 C2819 1.389 . S
C2821 C2822 1.524 . S
C2822 C2821 1.524 . S
C2822 C2823 1.397 . S
C2822 C2827 1.363 . S
C2823 H2794 0.950 . S
C2823 C2822 1.397 . S
C2823 C2824 1.334 . S
C2824 H2795 0.950 . S
C2824 C2823 1.334 . S
C2824 C2825 1.287 . S
C2825 C2824 1.287 . S
C2825 C2826 1.524 . S
C2825 H2828 0.999 . S
C2826 H2796 0.950 . S
C2826 C2825 1.524 . S
C2826 C2827 1.415 . S
C2827 H2797 0.950 . S
C2827 C2822 1.363 . S
C2827 C2826 1.415 . S
H2828 C2825 0.999 . S
H2829 C2810 0.913 . S
H2830 C2848 0.951 . S
H2831 C2850 0.951 . S
H2832 C2852 0.950 . S
H2833 C2853 0.950 . S
H2834 C2855 0.950 . S
H2835 C2858 0.950 . S
H2836 C2859 0.950 . S
H2837 C2861 0.950 . S
H2838 C2862 0.950 . S
H2839 C2863 0.951 . S
H2840 C2865 0.951 . S
H2841 C2867 0.950 . S
H2842 C2868 0.950 . S
H2843 C2870 0.950 . S
H2844 C2873 0.950 . S
H2845 C2874 0.950 . S
H2846 C2876 0.950 . S
H2847 C2877 0.950 . S
C2848 H2830 0.951 . S
C2848 C2849 1.366 . S
C2848 C2850 1.388 . S
C2849 C2848 1.366 . S
C2849 C2853 1.385 . S
C2850 H2831 0.951 . S
C2850 C2848 1.388 . S
C2850 C2851 1.366 . S
C2851 C2850 1.366 . S
C2851 C2852 1.414 . S
C2851 C2854 1.499 . S
C2852 H2832 0.950 . S
C2852 C2851 1.414 . S
C2852 C2853 1.374 . S
C2853 H2833 0.950 . S
C2853 C2849 1.385 . S
C2853 C2852 1.374 . S
C2854 C2851 1.499 . S
C2854 C2855 1.373 . S
C2854 C2856 1.389 . S
C2855 H2834 0.950 . S
C2855 C2854 1.373 . S
C2855 C2871 1.377 . S
C2856 C2854 1.389 . S
C2856 C2857 1.524 . S
C2856 C2870 1.377 . S
C2857 C2856 1.524 . S
C2857 C2858 1.397 . S
C2857 C2862 1.363 . S
C2858 H2835 0.950 . S
C2858 C2857 1.397 . S
C2858 C2859 1.334 . S
C2859 H2836 0.950 . S
C2859 C2858 1.334 . S
C2859 C2860 1.287 . S
C2860 C2859 1.287 . S
C2860 C2861 1.524 . S
C2860 H2879 0.913 . S
C2861 H2837 0.950 . S
C2861 C2860 1.524 . S
C2861 C2862 1.415 . S
C2862 H2838 0.950 . S
C2862 C2857 1.363 . S
C2862 C2861 1.415 . S
C2863 H2839 0.951 . S
C2863 C2864 1.366 . S
C2863 C2865 1.388 . S
C2864 C2863 1.366 . S
C2864 C2868 1.385 . S
C2865 H2840 0.951 . S
C2865 C2863 1.388 . S
C2865 C2866 1.366 . S
C2866 C2865 1.366 . S
C2866 C2867 1.414 . S
C2866 C2869 1.499 . S
C2867 H2841 0.950 . S
C2867 C2866 1.414 . S
C2867 C2868 1.374 . S
C2868 H2842 0.950 . S
C2868 C2864 1.385 . S
C2868 C2867 1.374 . S
C2869 C2866 1.499 . S
C2869 C2870 1.373 . S
C2869 C2871 1.389 . S
C2870 H2843 0.950 . S
C2870 C2856 1.377 . S
C2870 C2869 1.373 . S
C2871 C2855 1.377 . S
C2871 C2869 1.389 . S
C2871 C2872 1.524 . S
C2872 C2871 1.524 . S
C2872 C2873 1.397 . S
C2872 C2877 1.363 . S
C2873 H2844 0.950 . S
C2873 C2872 1.397 . S
C2873 C2874 1.334 . S
C2874 H2845 0.950 . S
C2874 C2873 1.334 . S
C2874 C2875 1.287 . S
C2875 C2874 1.287 . S
C2875 C2876 1.524 . S
C2875 H2878 0.999 . S
C2876 H2846 0.950 . S
C2876 C2875 1.524 . S
C2876 C2877 1.415 . S
C2877 H2847 0.950 . S
C2877 C2872 1.363 . S
C2877 C2876 1.415 . S
H2878 C2875 0.999 . S
H2879 C2860 0.913 . S
H2880 C2898 0.951 . S
H2881 C2900 0.951 . S
H2882 C2902 0.950 . S
H2883 C2903 0.950 . S
H2884 C2905 0.950 . S
H2885 C2908 0.950 . S
H2886 C2909 0.950 . S
H2887 C2911 0.950 . S
H2888 C2912 0.950 . S
H2889 C2913 0.951 . S
H2890 C2915 0.951 . S
H2891 C2917 0.950 . S
H2892 C2918 0.950 1_545 S
H2893 C2920 0.950 . S
H2894 C2923 0.950 . S
H2895 C2924 0.950 . S
H2896 C2926 0.950 1_556 S
H2897 C2927 0.950 . S
C2898 H2880 0.951 . S
C2898 C2899 1.366 . S
C2898 C2900 1.388 . S
C2899 C2898 1.366 . S
C2899 C2903 1.385 . S
C2900 H2881 0.951 . S
C2900 C2898 1.388 . S
C2900 C2901 1.366 . S
C2901 C2900 1.366 . S
C2901 C2902 1.414 . S
C2901 C2904 1.499 . S
C2902 H2882 0.950 . S
C2902 C2901 1.414 . S
C2902 C2903 1.374 . S
C2903 H2883 0.950 . S
C2903 C2899 1.385 . S
C2903 C2902 1.374 . S
C2904 C2901 1.499 . S
C2904 C2905 1.373 . S
C2904 C2906 1.389 . S
C2905 H2884 0.950 . S
C2905 C2904 1.373 . S
C2905 C2921 1.377 . S
C2906 C2904 1.389 . S
C2906 C2907 1.524 . S
C2906 C2920 1.377 . S
C2907 C2906 1.524 . S
C2907 C2908 1.397 . S
C2907 C2912 1.363 . S
C2908 H2885 0.950 . S
C2908 C2907 1.397 . S
C2908 C2909 1.334 . S
C2909 H2886 0.950 . S
C2909 C2908 1.334 . S
C2909 C2910 1.287 . S
C2910 C2909 1.287 . S
C2910 C2911 1.524 . S
C2910 H2929 0.913 . S
C2911 H2887 0.950 . S
C2911 C2910 1.524 . S
C2911 C2912 1.415 . S
C2912 H2888 0.950 . S
C2912 C2907 1.363 . S
C2912 C2911 1.415 . S
C2913 H2889 0.951 . S
C2913 C2914 1.366 . S
C2913 C2915 1.388 . S
C2914 C2913 1.366 . S
C2914 C2918 1.385 . S
C2915 H2890 0.951 . S
C2915 C2913 1.388 . S
C2915 C2916 1.366 . S
C2916 C2915 1.366 . S
C2916 C2917 1.414 . S
C2916 C2919 1.499 . S
C2917 H2891 0.950 . S
C2917 C2916 1.414 . S
C2917 C2918 1.374 . S
C2918 H2892 0.950 1_565 S
C2918 C2914 1.385 . S
C2918 C2917 1.374 . S
C2919 C2916 1.499 . S
C2919 C2920 1.373 . S
C2919 C2921 1.389 . S
C2920 H2893 0.950 . S
C2920 C2906 1.377 . S
C2920 C2919 1.373 . S
C2921 C2905 1.377 . S
C2921 C2919 1.389 . S
C2921 C2922 1.524 . S
C2922 C2921 1.524 . S
C2922 C2923 1.397 . S
C2922 C2927 1.363 . S
C2923 H2894 0.950 . S
C2923 C2922 1.397 . S
C2923 C2924 1.334 . S
C2924 H2895 0.950 . S
C2924 C2923 1.334 . S
C2924 C2925 1.287 . S
C2925 C2924 1.287 . S
C2925 C2926 1.524 . S
C2925 H2928 0.999 . S
C2926 H2896 0.950 1_554 S
C2926 C2925 1.524 . S
C2926 C2927 1.415 . S
C2927 H2897 0.950 . S
C2927 C2922 1.363 . S
C2927 C2926 1.415 . S
H2928 C2925 0.999 . S
H2929 C2910 0.913 . S
H2930 C2948 0.951 . S
H2931 C2950 0.951 . S
H2932 C2952 0.950 . S
H2933 C2953 0.950 . S
H2934 C2955 0.950 . S
H2935 C2958 0.950 . S
H2936 C2959 0.950 . S
H2937 C2961 0.950 . S
H2938 C2962 0.950 . S
H2939 C2963 0.951 . S
H2940 C2965 0.951 . S
H2941 C2967 0.950 . S
H2942 C2968 0.950 . S
H2943 C2970 0.950 . S
H2944 C2973 0.950 . S
H2945 C2974 0.950 . S
H2946 C2976 0.950 . S
H2947 C2977 0.950 . S
C2948 H2930 0.951 . S
C2948 C2949 1.366 . S
C2948 C2950 1.388 . S
C2949 C2948 1.366 . S
C2949 C2953 1.385 . S
C2950 H2931 0.951 . S
C2950 C2948 1.388 . S
C2950 C2951 1.366 . S
C2951 C2950 1.366 . S
C2951 C2952 1.414 . S
C2951 C2954 1.499 . S
C2952 H2932 0.950 . S
C2952 C2951 1.414 . S
C2952 C2953 1.374 . S
C2953 H2933 0.950 . S
C2953 C2949 1.385 . S
C2953 C2952 1.374 . S
C2954 C2951 1.499 . S
C2954 C2955 1.373 . S
C2954 C2956 1.389 . S
C2955 H2934 0.950 . S
C2955 C2954 1.373 . S
C2955 C2971 1.377 . S
C2956 C2954 1.389 . S
C2956 C2957 1.524 . S
C2956 C2970 1.377 . S
C2957 C2956 1.524 . S
C2957 C2958 1.397 . S
C2957 C2962 1.363 . S
C2958 H2935 0.950 . S
C2958 C2957 1.397 . S
C2958 C2959 1.334 . S
C2959 H2936 0.950 . S
C2959 C2958 1.334 . S
C2959 C2960 1.287 . S
C2960 C2959 1.287 . S
C2960 C2961 1.524 . S
C2960 H2979 0.913 . S
C2961 H2937 0.950 . S
C2961 C2960 1.524 . S
C2961 C2962 1.415 . S
C2962 H2938 0.950 . S
C2962 C2957 1.363 . S
C2962 C2961 1.415 . S
C2963 H2939 0.951 . S
C2963 C2964 1.366 . S
C2963 C2965 1.388 . S
C2964 C2963 1.366 . S
C2964 C2968 1.385 . S
C2965 H2940 0.951 . S
C2965 C2963 1.388 . S
C2965 C2966 1.366 . S
C2966 C2965 1.366 . S
C2966 C2967 1.414 . S
C2966 C2969 1.499 . S
C2967 H2941 0.950 . S
C2967 C2966 1.414 . S
C2967 C2968 1.374 . S
C2968 H2942 0.950 . S
C2968 C2964 1.385 . S
C2968 C2967 1.374 . S
C2969 C2966 1.499 . S
C2969 C2970 1.373 . S
C2969 C2971 1.389 . S
C2970 H2943 0.950 . S
C2970 C2956 1.377 . S
C2970 C2969 1.373 . S
C2971 C2955 1.377 . S
C2971 C2969 1.389 . S
C2971 C2972 1.524 . S
C2972 C2971 1.524 . S
C2972 C2973 1.397 . S
C2972 C2977 1.363 . S
C2973 H2944 0.950 . S
C2973 C2972 1.397 . S
C2973 C2974 1.334 . S
C2974 H2945 0.950 . S
C2974 C2973 1.334 . S
C2974 C2975 1.287 . S
C2975 C2974 1.287 . S
C2975 C2976 1.524 . S
C2975 H2978 0.999 . S
C2976 H2946 0.950 . S
C2976 C2975 1.524 . S
C2976 C2977 1.415 . S
C2977 H2947 0.950 . S
C2977 C2972 1.363 . S
C2977 C2976 1.415 . S
H2978 C2975 0.999 . S
H2979 C2960 0.913 . S
H2980 C2998 0.951 . S
H2981 C3000 0.951 . S
H2982 C3002 0.950 . S
H2983 C3003 0.950 . S
H2984 C3005 0.950 . S
H2985 C3008 0.950 . S
H2986 C3009 0.950 . S
H2987 C3011 0.950 . S
H2988 C3012 0.950 . S
H2989 C3013 0.951 . S
H2990 C3015 0.951 . S
H2991 C3017 0.950 . S
H2992 C3018 0.950 . S
H2993 C3020 0.950 . S
H2994 C3023 0.950 . S
H2995 C3024 0.950 . S
H2996 C3026 0.950 . S
H2997 C3027 0.950 . S
C2998 H2980 0.951 . S
C2998 C2999 1.366 . S
C2998 C3000 1.388 . S
C2999 C2998 1.366 . S
C2999 C3003 1.385 . S
C3000 H2981 0.951 . S
C3000 C2998 1.388 . S
C3000 C3001 1.366 . S
C3001 C3000 1.366 . S
C3001 C3002 1.414 . S
C3001 C3004 1.499 . S
C3002 H2982 0.950 . S
C3002 C3001 1.414 . S
C3002 C3003 1.374 . S
C3003 H2983 0.950 . S
C3003 C2999 1.385 . S
C3003 C3002 1.374 . S
C3004 C3001 1.499 . S
C3004 C3005 1.373 . S
C3004 C3006 1.389 . S
C3005 H2984 0.950 . S
C3005 C3004 1.373 . S
C3005 C3021 1.377 . S
C3006 C3004 1.389 . S
C3006 C3007 1.524 . S
C3006 C3020 1.377 . S
C3007 C3006 1.524 . S
C3007 C3008 1.397 . S
C3007 C3012 1.363 . S
C3008 H2985 0.950 . S
C3008 C3007 1.397 . S
C3008 C3009 1.334 . S
C3009 H2986 0.950 . S
C3009 C3008 1.334 . S
C3009 C3010 1.287 . S
C3010 C3009 1.287 . S
C3010 C3011 1.524 . S
C3010 H3029 0.913 . S
C3011 H2987 0.950 . S
C3011 C3010 1.524 . S
C3011 C3012 1.415 . S
C3012 H2988 0.950 . S
C3012 C3007 1.363 . S
C3012 C3011 1.415 . S
C3013 H2989 0.951 . S
C3013 C3014 1.366 . S
C3013 C3015 1.388 . S
C3014 C3013 1.366 . S
C3014 C3018 1.385 . S
C3015 H2990 0.951 . S
C3015 C3013 1.388 . S
C3015 C3016 1.366 . S
C3016 C3015 1.366 . S
C3016 C3017 1.414 . S
C3016 C3019 1.499 . S
C3017 H2991 0.950 . S
C3017 C3016 1.414 . S
C3017 C3018 1.374 . S
C3018 H2992 0.950 . S
C3018 C3014 1.385 . S
C3018 C3017 1.374 . S
C3019 C3016 1.499 . S
C3019 C3020 1.373 . S
C3019 C3021 1.389 . S
C3020 H2993 0.950 . S
C3020 C3006 1.377 . S
C3020 C3019 1.373 . S
C3021 C3005 1.377 . S
C3021 C3019 1.389 . S
C3021 C3022 1.524 . S
C3022 C3021 1.524 . S
C3022 C3023 1.397 . S
C3022 C3027 1.363 . S
C3023 H2994 0.950 . S
C3023 C3022 1.397 . S
C3023 C3024 1.334 . S
C3024 H2995 0.950 . S
C3024 C3023 1.334 . S
C3024 C3025 1.287 . S
C3025 C3024 1.287 . S
C3025 C3026 1.524 . S
C3025 H3028 0.999 . S
C3026 H2996 0.950 . S
C3026 C3025 1.524 . S
C3026 C3027 1.415 . S
C3027 H2997 0.950 . S
C3027 C3022 1.363 . S
C3027 C3026 1.415 . S
H3028 C3025 0.999 . S
H3029 C3010 0.913 . S
H3030 C3048 0.951 . S
H3031 C3050 0.951 . S
H3032 C3052 0.950 . S
H3033 C3053 0.950 . S
H3034 C3055 0.950 . S
H3035 C3058 0.950 . S
H3036 C3059 0.950 . S
H3037 C3061 0.950 . S
H3038 C3062 0.950 . S
H3039 C3063 0.951 . S
H3040 C3065 0.951 . S
H3041 C3067 0.950 . S
H3042 C3068 0.950 . S
H3043 C3070 0.950 . S
H3044 C3073 0.950 . S
H3045 C3074 0.950 . S
H3046 C3076 0.950 . S
H3047 C3077 0.950 . S
C3048 H3030 0.951 . S
C3048 C3049 1.366 . S
C3048 C3050 1.388 . S
C3049 C3048 1.366 . S
C3049 C3053 1.385 . S
C3050 H3031 0.951 . S
C3050 C3048 1.388 . S
C3050 C3051 1.366 . S
C3051 C3050 1.366 . S
C3051 C3052 1.414 . S
C3051 C3054 1.499 . S
C3052 H3032 0.950 . S
C3052 C3051 1.414 . S
C3052 C3053 1.374 . S
C3053 H3033 0.950 . S
C3053 C3049 1.385 . S
C3053 C3052 1.374 . S
C3054 C3051 1.499 . S
C3054 C3055 1.373 . S
C3054 C3056 1.389 . S
C3055 H3034 0.950 . S
C3055 C3054 1.373 . S
C3055 C3071 1.377 . S
C3056 C3054 1.389 . S
C3056 C3057 1.524 . S
C3056 C3070 1.377 . S
C3057 C3056 1.524 . S
C3057 C3058 1.397 . S
C3057 C3062 1.363 . S
C3058 H3035 0.950 . S
C3058 C3057 1.397 . S
C3058 C3059 1.334 . S
C3059 H3036 0.950 . S
C3059 C3058 1.334 . S
C3059 C3060 1.287 . S
C3060 C3059 1.287 . S
C3060 C3061 1.524 . S
C3060 H3079 0.913 . S
C3061 H3037 0.950 . S
C3061 C3060 1.524 . S
C3061 C3062 1.415 . S
C3062 H3038 0.950 . S
C3062 C3057 1.363 . S
C3062 C3061 1.415 . S
C3063 H3039 0.951 . S
C3063 C3064 1.366 . S
C3063 C3065 1.388 . S
C3064 C3063 1.366 . S
C3064 C3068 1.385 . S
C3065 H3040 0.951 . S
C3065 C3063 1.388 . S
C3065 C3066 1.366 . S
C3066 C3065 1.366 . S
C3066 C3067 1.414 . S
C3066 C3069 1.499 . S
C3067 H3041 0.950 . S
C3067 C3066 1.414 . S
C3067 C3068 1.374 . S
C3068 H3042 0.950 . S
C3068 C3064 1.385 . S
C3068 C3067 1.374 . S
C3069 C3066 1.499 . S
C3069 C3070 1.373 . S
C3069 C3071 1.389 . S
C3070 H3043 0.950 . S
C3070 C3056 1.377 . S
C3070 C3069 1.373 . S
C3071 C3055 1.377 . S
C3071 C3069 1.389 . S
C3071 C3072 1.524 . S
C3072 C3071 1.524 . S
C3072 C3073 1.397 . S
C3072 C3077 1.363 . S
C3073 H3044 0.950 . S
C3073 C3072 1.397 . S
C3073 C3074 1.334 . S
C3074 H3045 0.950 . S
C3074 C3073 1.334 . S
C3074 C3075 1.287 . S
C3075 C3074 1.287 . S
C3075 C3076 1.524 . S
C3075 H3078 0.999 . S
C3076 H3046 0.950 . S
C3076 C3075 1.524 . S
C3076 C3077 1.415 . S
C3077 H3047 0.950 . S
C3077 C3072 1.363 . S
C3077 C3076 1.415 . S
H3078 C3075 0.999 . S
H3079 C3060 0.913 . S
H3080 C3098 0.951 . S
H3081 C3100 0.951 . S
H3082 C3102 0.950 . S
H3083 C3103 0.950 . S
H3084 C3105 0.950 . S
H3085 C3108 0.950 . S
H3086 C3109 0.950 . S
H3087 C3111 0.950 . S
H3088 C3112 0.950 . S
H3089 C3113 0.951 . S
H3090 C3115 0.951 . S
H3091 C3117 0.950 . S
H3092 C3118 0.950 . S
H3093 C3120 0.950 . S
H3094 C3123 0.950 . S
H3095 C3124 0.950 . S
H3096 C3126 0.950 . S
H3097 C3127 0.950 . S
C3098 H3080 0.951 . S
C3098 C3099 1.366 . S
C3098 C3100 1.388 . S
C3099 C3098 1.366 . S
C3099 C3103 1.385 . S
C3100 H3081 0.951 . S
C3100 C3098 1.388 . S
C3100 C3101 1.366 . S
C3101 C3100 1.366 . S
C3101 C3102 1.414 . S
C3101 C3104 1.499 . S
C3102 H3082 0.950 . S
C3102 C3101 1.414 . S
C3102 C3103 1.374 . S
C3103 H3083 0.950 . S
C3103 C3099 1.385 . S
C3103 C3102 1.374 . S
C3104 C3101 1.499 . S
C3104 C3105 1.373 . S
C3104 C3106 1.389 . S
C3105 H3084 0.950 . S
C3105 C3104 1.373 . S
C3105 C3121 1.377 . S
C3106 C3104 1.389 . S
C3106 C3107 1.524 . S
C3106 C3120 1.377 . S
C3107 C3106 1.524 . S
C3107 C3108 1.397 . S
C3107 C3112 1.363 . S
C3108 H3085 0.950 . S
C3108 C3107 1.397 . S
C3108 C3109 1.334 . S
C3109 H3086 0.950 . S
C3109 C3108 1.334 . S
C3109 C3110 1.287 . S
C3110 C3109 1.287 . S
C3110 C3111 1.524 . S
C3110 H3129 0.913 . S
C3111 H3087 0.950 . S
C3111 C3110 1.524 . S
C3111 C3112 1.415 . S
C3112 H3088 0.950 . S
C3112 C3107 1.363 . S
C3112 C3111 1.415 . S
C3113 H3089 0.951 . S
C3113 C3114 1.366 . S
C3113 C3115 1.388 . S
C3114 C3113 1.366 . S
C3114 C3118 1.385 . S
C3115 H3090 0.951 . S
C3115 C3113 1.388 . S
C3115 C3116 1.366 . S
C3116 C3115 1.366 . S
C3116 C3117 1.414 . S
C3116 C3119 1.499 . S
C3117 H3091 0.950 . S
C3117 C3116 1.414 . S
C3117 C3118 1.374 . S
C3118 H3092 0.950 . S
C3118 C3114 1.385 . S
C3118 C3117 1.374 . S
C3119 C3116 1.499 . S
C3119 C3120 1.373 . S
C3119 C3121 1.389 . S
C3120 H3093 0.950 . S
C3120 C3106 1.377 . S
C3120 C3119 1.373 . S
C3121 C3105 1.377 . S
C3121 C3119 1.389 . S
C3121 C3122 1.524 . S
C3122 C3121 1.524 . S
C3122 C3123 1.397 . S
C3122 C3127 1.363 . S
C3123 H3094 0.950 . S
C3123 C3122 1.397 . S
C3123 C3124 1.334 . S
C3124 H3095 0.950 . S
C3124 C3123 1.334 . S
C3124 C3125 1.287 . S
C3125 C3124 1.287 . S
C3125 C3126 1.524 . S
C3125 H3128 0.999 . S
C3126 H3096 0.950 . S
C3126 C3125 1.524 . S
C3126 C3127 1.415 . S
C3127 H3097 0.950 . S
C3127 C3122 1.363 . S
C3127 C3126 1.415 . S
H3128 C3125 0.999 . S
H3129 C3110 0.913 . S
H3130 C3148 0.951 . S
H3131 C3150 0.951 . S
H3132 C3152 0.950 . S
H3133 C3153 0.950 . S
H3134 C3155 0.950 . S
H3135 C3158 0.950 . S
H3136 C3159 0.950 . S
H3137 C3161 0.950 . S
H3138 C3162 0.950 . S
H3139 C3163 0.951 . S
H3140 C3165 0.951 . S
H3141 C3167 0.950 . S
H3142 C3168 0.950 . S
H3143 C3170 0.950 . S
H3144 C3173 0.950 . S
H3145 C3174 0.950 . S
H3146 C3176 0.950 . S
H3147 C3177 0.950 . S
C3148 H3130 0.951 . S
C3148 C3149 1.366 . S
C3148 C3150 1.388 . S
C3149 C3148 1.366 . S
C3149 C3153 1.385 . S
C3150 H3131 0.951 . S
C3150 C3148 1.388 . S
C3150 C3151 1.366 . S
C3151 C3150 1.366 . S
C3151 C3152 1.414 . S
C3151 C3154 1.499 . S
C3152 H3132 0.950 . S
C3152 C3151 1.414 . S
C3152 C3153 1.374 . S
C3153 H3133 0.950 . S
C3153 C3149 1.385 . S
C3153 C3152 1.374 . S
C3154 C3151 1.499 . S
C3154 C3155 1.373 . S
C3154 C3156 1.389 . S
C3155 H3134 0.950 . S
C3155 C3154 1.373 . S
C3155 C3171 1.377 . S
C3156 C3154 1.389 . S
C3156 C3157 1.524 . S
C3156 C3170 1.377 . S
C3157 C3156 1.524 . S
C3157 C3158 1.397 . S
C3157 C3162 1.363 . S
C3158 H3135 0.950 . S
C3158 C3157 1.397 . S
C3158 C3159 1.334 . S
C3159 H3136 0.950 . S
C3159 C3158 1.334 . S
C3159 C3160 1.287 . S
C3160 C3159 1.287 . S
C3160 C3161 1.524 . S
C3160 H3179 0.913 . S
C3161 H3137 0.950 . S
C3161 C3160 1.524 . S
C3161 C3162 1.415 . S
C3162 H3138 0.950 . S
C3162 C3157 1.363 . S
C3162 C3161 1.415 . S
C3163 H3139 0.951 . S
C3163 C3164 1.366 . S
C3163 C3165 1.388 . S
C3164 C3163 1.366 . S
C3164 C3168 1.385 . S
C3165 H3140 0.951 . S
C3165 C3163 1.388 . S
C3165 C3166 1.366 . S
C3166 C3165 1.366 . S
C3166 C3167 1.414 . S
C3166 C3169 1.499 . S
C3167 H3141 0.950 . S
C3167 C3166 1.414 . S
C3167 C3168 1.374 . S
C3168 H3142 0.950 . S
C3168 C3164 1.385 . S
C3168 C3167 1.374 . S
C3169 C3166 1.499 . S
C3169 C3170 1.373 . S
C3169 C3171 1.389 . S
C3170 H3143 0.950 . S
C3170 C3156 1.377 . S
C3170 C3169 1.373 . S
C3171 C3155 1.377 . S
C3171 C3169 1.389 . S
C3171 C3172 1.524 . S
C3172 C3171 1.524 . S
C3172 C3173 1.397 . S
C3172 C3177 1.363 . S
C3173 H3144 0.950 . S
C3173 C3172 1.397 . S
C3173 C3174 1.334 . S
C3174 H3145 0.950 . S
C3174 C3173 1.334 . S
C3174 C3175 1.287 . S
C3175 C3174 1.287 . S
C3175 C3176 1.524 . S
C3175 H3178 0.999 . S
C3176 H3146 0.950 . S
C3176 C3175 1.524 . S
C3176 C3177 1.415 . S
C3177 H3147 0.950 . S
C3177 C3172 1.363 . S
C3177 C3176 1.415 . S
H3178 C3175 0.999 . S
H3179 C3160 0.913 . S
H3180 C3198 0.951 . S
H3181 C3200 0.951 . S
H3182 C3202 0.950 . S
H3183 C3203 0.950 . S
H3184 C3205 0.950 . S
H3185 C3208 0.950 . S
H3186 C3209 0.950 . S
H3187 C3211 0.950 . S
H3188 C3212 0.950 . S
H3189 C3213 0.990 . S
H3190 C3215 0.951 . S
H3191 C3217 0.950 1_554 S
H3192 C3218 0.950 . S
H3193 C3220 0.950 . S
H3194 C3223 0.950 . S
H3195 C3224 0.950 . S
H3196 C3226 0.950 . S
H3197 C3227 0.950 . S
C3198 H3180 0.951 . S
C3198 C3199 1.366 . S
C3198 C3200 1.388 . S
C3199 C3198 1.366 . S
C3199 C3203 1.385 . S
C3200 H3181 0.951 . S
C3200 C3198 1.388 . S
C3200 C3201 1.366 . S
C3201 C3200 1.366 . S
C3201 C3202 1.414 . S
C3201 C3204 1.499 . S
C3202 H3182 0.950 . S
C3202 C3201 1.414 . S
C3202 C3203 1.374 . S
C3203 H3183 0.950 . S
C3203 C3199 1.385 . S
C3203 C3202 1.374 . S
C3204 C3201 1.499 . S
C3204 C3205 1.373 . S
C3204 C3206 1.389 . S
C3205 H3184 0.950 . S
C3205 C3204 1.373 . S
C3205 C3221 1.377 . S
C3206 C3204 1.389 . S
C3206 C3207 1.524 . S
C3206 C3220 1.377 . S
C3207 C3206 1.524 . S
C3207 C3208 1.397 . S
C3207 C3212 1.363 . S
C3208 H3185 0.950 . S
C3208 C3207 1.397 . S
C3208 C3209 1.334 . S
C3209 H3186 0.950 . S
C3209 C3208 1.334 . S
C3209 C3210 1.287 . S
C3210 C3209 1.287 . S
C3210 C3211 1.524 . S
C3210 H3229 0.913 . S
C3211 H3187 0.950 . S
C3211 C3210 1.524 . S
C3211 C3212 1.415 . S
C3212 H3188 0.950 . S
C3212 C3207 1.363 . S
C3212 C3211 1.415 . S
C3213 H3189 0.990 . S
C3213 C3214 1.355 1_546 S
C3213 C3215 1.357 1_545 S
C3214 C3213 1.355 1_564 S
C3214 C3218 1.409 . S
C3215 H3190 0.951 . S
C3215 C3213 1.357 1_565 S
C3215 C3216 1.366 . S
C3216 C3215 1.366 . S
C3216 C3217 1.414 . S
C3216 C3219 1.499 . S
C3217 H3191 0.950 1_556 S
C3217 C3216 1.414 . S
C3217 C3218 1.374 1_556 S
C3218 H3192 0.950 . S
C3218 C3214 1.409 . S
C3218 C3217 1.374 1_554 S
C3219 C3216 1.499 . S
C3219 C3220 1.373 . S
C3219 C3221 1.389 . S
C3220 H3193 0.950 . S
C3220 C3206 1.377 . S
C3220 C3219 1.373 . S
C3221 C3205 1.377 . S
C3221 C3219 1.389 . S
C3221 C3222 1.524 . S
C3222 C3221 1.524 . S
C3222 C3223 1.397 . S
C3222 C3227 1.363 . S
C3223 H3194 0.950 . S
C3223 C3222 1.397 . S
C3223 C3224 1.334 1_565 S
C3224 H3195 0.950 . S
C3224 C3223 1.334 1_545 S
C3224 C3225 1.287 . S
C3225 C3224 1.287 . S
C3225 C3226 1.524 . S
C3225 H3228 0.999 . S
C3226 H3196 0.950 . S
C3226 C3225 1.524 . S
C3226 C3227 1.415 1_545 S
C3227 H3197 0.950 . S
C3227 C3222 1.363 . S
C3227 C3226 1.415 1_565 S
H3228 C3225 0.999 . S
H3229 C3210 0.913 . S
H3230 C3248 0.951 . S
H3231 C3250 0.951 . S
H3232 C3252 0.950 . S
H3233 C3253 0.950 . S
H3234 C3255 0.950 . S
H3235 C3258 0.950 . S
H3236 C3259 0.950 . S
H3237 C3261 0.950 . S
H3238 C3262 0.950 . S
H3239 C3263 0.951 . S
H3240 C3265 0.951 . S
H3241 C3267 0.950 . S
H3242 C3268 0.950 . S
H3243 C3270 0.950 . S
H3244 C3273 0.950 . S
H3245 C3274 0.950 . S
H3246 C3276 0.950 . S
H3247 C3277 0.950 . S
C3248 H3230 0.951 . S
C3248 C3249 1.366 . S
C3248 C3250 1.388 . S
C3249 C3248 1.366 . S
C3249 C3253 1.385 . S
C3250 H3231 0.951 . S
C3250 C3248 1.388 . S
C3250 C3251 1.366 . S
C3251 C3250 1.366 . S
C3251 C3252 1.414 . S
C3251 C3254 1.499 . S
C3252 H3232 0.950 . S
C3252 C3251 1.414 . S
C3252 C3253 1.374 . S
C3253 H3233 0.950 . S
C3253 C3249 1.385 . S
C3253 C3252 1.374 . S
C3254 C3251 1.499 . S
C3254 C3255 1.373 . S
C3254 C3256 1.389 . S
C3255 H3234 0.950 . S
C3255 C3254 1.373 . S
C3255 C3271 1.377 . S
C3256 C3254 1.389 . S
C3256 C3257 1.524 . S
C3256 C3270 1.377 . S
C3257 C3256 1.524 . S
C3257 C3258 1.397 . S
C3257 C3262 1.363 . S
C3258 H3235 0.950 . S
C3258 C3257 1.397 . S
C3258 C3259 1.334 . S
C3259 H3236 0.950 . S
C3259 C3258 1.334 . S
C3259 C3260 1.287 . S
C3260 C3259 1.287 . S
C3260 C3261 1.524 . S
C3260 H3279 0.913 . S
C3261 H3237 0.950 . S
C3261 C3260 1.524 . S
C3261 C3262 1.415 . S
C3262 H3238 0.950 . S
C3262 C3257 1.363 . S
C3262 C3261 1.415 . S
C3263 H3239 0.951 . S
C3263 C3264 1.366 . S
C3263 C3265 1.388 . S
C3264 C3263 1.366 . S
C3264 C3268 1.385 . S
C3265 H3240 0.951 . S
C3265 C3263 1.388 . S
C3265 C3266 1.366 . S
C3266 C3265 1.366 . S
C3266 C3267 1.414 . S
C3266 C3269 1.499 . S
C3267 H3241 0.950 . S
C3267 C3266 1.414 . S
C3267 C3268 1.374 . S
C3268 H3242 0.950 . S
C3268 C3264 1.385 . S
C3268 C3267 1.374 . S
C3269 C3266 1.499 . S
C3269 C3270 1.373 . S
C3269 C3271 1.389 . S
C3270 H3243 0.950 . S
C3270 C3256 1.377 . S
C3270 C3269 1.373 . S
C3271 C3255 1.377 . S
C3271 C3269 1.389 . S
C3271 C3272 1.524 . S
C3272 C3271 1.524 . S
C3272 C3273 1.397 . S
C3272 C3277 1.363 . S
C3273 H3244 0.950 . S
C3273 C3272 1.397 . S
C3273 C3274 1.334 . S
C3274 H3245 0.950 . S
C3274 C3273 1.334 . S
C3274 C3275 1.287 . S
C3275 C3274 1.287 . S
C3275 C3276 1.524 . S
C3275 H3278 0.999 . S
C3276 H3246 0.950 . S
C3276 C3275 1.524 . S
C3276 C3277 1.415 . S
C3277 H3247 0.950 . S
C3277 C3272 1.363 . S
C3277 C3276 1.415 . S
H3278 C3275 0.999 . S
H3279 C3260 0.913 . S
H3280 C3298 0.951 . S
H3281 C3300 0.951 . S
H3282 C3302 0.950 . S
H3283 C3303 0.950 . S
H3284 C3305 0.950 1_565 S
H3285 C3308 0.950 . S
H3286 C3309 0.950 . S
H3287 C3311 0.950 . S
H3288 C3312 0.950 . S
H3289 C3313 0.895 1_565 S
H3290 C3315 0.951 1_565 S
H3291 C3317 0.950 . S
H3292 C3318 0.950 . S
H3293 C3320 0.950 . S
H3294 C3323 0.950 1_545 S
H3295 C3324 0.950 . S
H3296 C3326 0.950 . S
H3297 C3327 0.950 . S
C3298 H3280 0.951 . S
C3298 C3299 1.366 . S
C3298 C3300 1.388 . S
C3299 C3298 1.366 . S
C3299 C3303 1.385 1_545 S
C3300 H3281 0.951 . S
C3300 C3298 1.388 . S
C3300 C3301 1.366 . S
C3301 C3300 1.366 . S
C3301 C3302 1.414 1_545 S
C3301 C3304 1.499 . S
C3302 H3282 0.950 . S
C3302 C3301 1.414 1_565 S
C3302 C3303 1.374 . S
C3303 H3283 0.950 . S
C3303 C3299 1.385 1_565 S
C3303 C3302 1.374 . S
C3304 C3301 1.499 . S
C3304 C3305 1.373 . S
C3304 C3306 1.389 . S
C3305 H3284 0.950 1_545 S
C3305 C3304 1.373 . S
C3305 C3321 1.377 . S
C3306 C3304 1.389 . S
C3306 C3307 1.524 . S
C3306 C3320 1.377 . S
C3307 C3306 1.524 . S
C3307 C3308 1.397 . S
C3307 C3312 1.363 . S
C3308 H3285 0.950 . S
C3308 C3307 1.397 . S
C3308 C3309 1.334 . S
C3309 H3286 0.950 . S
C3309 C3308 1.334 . S
C3309 C3310 1.287 . S
C3310 C3309 1.287 . S
C3310 C3311 1.524 . S
C3310 H3329 0.913 . S
C3311 H3287 0.950 . S
C3311 C3310 1.524 . S
C3311 C3312 1.415 . S
C3312 H3288 0.950 . S
C3312 C3307 1.363 . S
C3312 C3311 1.415 . S
C3313 H3289 0.895 1_545 S
C3313 C3314 1.366 . S
C3313 C3315 1.388 . S
C3314 C3313 1.366 . S
C3314 C3318 1.385 . S
C3315 H3290 0.951 1_545 S
C3315 C3313 1.388 . S
C3315 C3316 1.366 . S
C3316 C3315 1.366 . S
C3316 C3317 1.414 . S
C3316 C3319 1.499 . S
C3317 H3291 0.950 . S
C3317 C3316 1.414 . S
C3317 C3318 1.374 . S
C3318 H3292 0.950 . S
C3318 C3314 1.385 . S
C3318 C3317 1.374 . S
C3319 C3316 1.499 . S
C3319 C3320 1.373 . S
C3319 C3321 1.389 . S
C3320 H3293 0.950 . S
C3320 C3306 1.377 . S
C3320 C3319 1.373 . S
C3321 C3305 1.377 . S
C3321 C3319 1.389 . S
C3321 C3322 1.524 1_545 S
C3322 C3321 1.524 1_565 S
C3322 C3323 1.397 . S
C3322 C3327 1.363 . S
C3323 H3294 0.950 1_565 S
C3323 C3322 1.397 . S
C3323 C3324 1.334 . S
C3324 H3295 0.950 . S
C3324 C3323 1.334 . S
C3324 C3325 1.287 . S
C3325 C3324 1.287 . S
C3325 C3326 1.524 . S
C3325 H3328 0.999 . S
C3326 H3296 0.950 . S
C3326 C3325 1.524 . S
C3326 C3327 1.415 . S
C3327 H3297 0.950 . S
C3327 C3322 1.363 . S
C3327 C3326 1.415 . S
H3328 C3325 0.999 . S
H3329 C3310 0.913 . S
H3330 C3348 0.951 . S
H3331 C3350 0.951 . S
H3332 C3352 0.950 . S
H3333 C3353 0.950 . S
H3334 C3355 0.950 . S
H3335 C3358 0.950 . S
H3336 C3359 0.950 . S
H3337 C3361 0.950 . S
H3338 C3362 0.950 . S
H3339 C3363 0.951 . S
H3340 C3365 0.951 . S
H3341 C3367 0.950 . S
H3342 C3368 0.950 . S
H3343 C3370 0.950 . S
H3344 C3373 0.950 . S
H3345 C3374 0.950 . S
H3346 C3376 0.950 . S
H3347 C3377 0.950 . S
C3348 H3330 0.951 . S
C3348 C3349 1.366 . S
C3348 C3350 1.388 . S
C3349 C3348 1.366 . S
C3349 C3353 1.385 . S
C3350 H3331 0.951 . S
C3350 C3348 1.388 . S
C3350 C3351 1.366 . S
C3351 C3350 1.366 . S
C3351 C3352 1.414 . S
C3351 C3354 1.499 . S
C3352 H3332 0.950 . S
C3352 C3351 1.414 . S
C3352 C3353 1.374 . S
C3353 H3333 0.950 . S
C3353 C3349 1.385 . S
C3353 C3352 1.374 . S
C3354 C3351 1.499 . S
C3354 C3355 1.373 . S
C3354 C3356 1.389 . S
C3355 H3334 0.950 . S
C3355 C3354 1.373 . S
C3355 C3371 1.377 . S
C3356 C3354 1.389 . S
C3356 C3357 1.524 . S
C3356 C3370 1.377 . S
C3357 C3356 1.524 . S
C3357 C3358 1.397 . S
C3357 C3362 1.363 . S
C3358 H3335 0.950 . S
C3358 C3357 1.397 . S
C3358 C3359 1.334 . S
C3359 H3336 0.950 . S
C3359 C3358 1.334 . S
C3359 C3360 1.287 . S
C3360 C3359 1.287 . S
C3360 C3361 1.524 . S
C3360 H3379 0.913 . S
C3361 H3337 0.950 . S
C3361 C3360 1.524 . S
C3361 C3362 1.415 . S
C3362 H3338 0.950 . S
C3362 C3357 1.363 . S
C3362 C3361 1.415 . S
C3363 H3339 0.951 . S
C3363 C3364 1.366 . S
C3363 C3365 1.388 . S
C3364 C3363 1.366 . S
C3364 C3368 1.385 . S
C3365 H3340 0.951 . S
C3365 C3363 1.388 . S
C3365 C3366 1.366 . S
C3366 C3365 1.366 . S
C3366 C3367 1.414 . S
C3366 C3369 1.499 . S
C3367 H3341 0.950 . S
C3367 C3366 1.414 . S
C3367 C3368 1.374 . S
C3368 H3342 0.950 . S
C3368 C3364 1.385 . S
C3368 C3367 1.374 . S
C3369 C3366 1.499 . S
C3369 C3370 1.373 . S
C3369 C3371 1.389 . S
C3370 H3343 0.950 . S
C3370 C3356 1.377 . S
C3370 C3369 1.373 . S
C3371 C3355 1.377 . S
C3371 C3369 1.389 . S
C3371 C3372 1.524 . S
C3372 C3371 1.524 . S
C3372 C3373 1.397 . S
C3372 C3377 1.363 . S
C3373 H3344 0.950 . S
C3373 C3372 1.397 . S
C3373 C3374 1.334 . S
C3374 H3345 0.950 . S
C3374 C3373 1.334 . S
C3374 C3375 1.287 . S
C3375 C3374 1.287 . S
C3375 C3376 1.524 . S
C3375 H3378 0.999 . S
C3376 H3346 0.950 . S
C3376 C3375 1.524 . S
C3376 C3377 1.415 . S
C3377 H3347 0.950 . S
C3377 C3372 1.363 . S
C3377 C3376 1.415 . S
H3378 C3375 0.999 . S
H3379 C3360 0.913 . S
H3380 C3398 0.951 . S
H3381 C3400 0.951 . S
H3382 C3402 0.950 . S
H3383 C3403 0.950 . S
H3384 C3405 0.950 . S
H3385 C3408 0.950 . S
H3386 C3409 0.950 . S
H3387 C3411 0.950 . S
H3388 C3412 0.950 . S
H3389 C3413 0.951 . S
H3390 C3415 0.951 . S
H3391 C3417 0.950 . S
H3392 C3418 0.950 . S
H3393 C3420 0.950 . S
H3394 C3423 0.950 . S
H3395 C3424 0.950 . S
H3396 C3426 0.950 . S
H3397 C3427 0.950 . S
C3398 H3380 0.951 . S
C3398 C3399 1.366 . S
C3398 C3400 1.388 . S
C3399 C3398 1.366 . S
C3399 C3403 1.385 . S
C3400 H3381 0.951 . S
C3400 C3398 1.388 . S
C3400 C3401 1.366 . S
C3401 C3400 1.366 . S
C3401 C3402 1.414 . S
C3401 C3404 1.499 . S
C3402 H3382 0.950 . S
C3402 C3401 1.414 . S
C3402 C3403 1.374 . S
C3403 H3383 0.950 . S
C3403 C3399 1.385 . S
C3403 C3402 1.374 . S
C3404 C3401 1.499 . S
C3404 C3405 1.373 . S
C3404 C3406 1.389 . S
C3405 H3384 0.950 . S
C3405 C3404 1.373 . S
C3405 C3421 1.377 . S
C3406 C3404 1.389 . S
C3406 C3407 1.524 . S
C3406 C3420 1.377 . S
C3407 C3406 1.524 . S
C3407 C3408 1.397 . S
C3407 C3412 1.363 . S
C3408 H3385 0.950 . S
C3408 C3407 1.397 . S
C3408 C3409 1.334 . S
C3409 H3386 0.950 . S
C3409 C3408 1.334 . S
C3409 C3410 1.287 . S
C3410 C3409 1.287 . S
C3410 C3411 1.524 . S
C3410 H3429 0.913 . S
C3411 H3387 0.950 . S
C3411 C3410 1.524 . S
C3411 C3412 1.415 . S
C3412 H3388 0.950 . S
C3412 C3407 1.363 . S
C3412 C3411 1.415 . S
C3413 H3389 0.951 . S
C3413 C3414 1.366 . S
C3413 C3415 1.388 . S
C3414 C3413 1.366 . S
C3414 C3418 1.385 . S
C3415 H3390 0.951 . S
C3415 C3413 1.388 . S
C3415 C3416 1.366 . S
C3416 C3415 1.366 . S
C3416 C3417 1.414 . S
C3416 C3419 1.499 . S
C3417 H3391 0.950 . S
C3417 C3416 1.414 . S
C3417 C3418 1.374 . S
C3418 H3392 0.950 . S
C3418 C3414 1.385 . S
C3418 C3417 1.374 . S
C3419 C3416 1.499 . S
C3419 C3420 1.373 . S
C3419 C3421 1.389 . S
C3420 H3393 0.950 . S
C3420 C3406 1.377 . S
C3420 C3419 1.373 . S
C3421 C3405 1.377 . S
C3421 C3419 1.389 . S
C3421 C3422 1.524 . S
C3422 C3421 1.524 . S
C3422 C3423 1.397 . S
C3422 C3427 1.363 1_545 S
C3423 H3394 0.950 . S
C3423 C3422 1.397 . S
C3423 C3424 1.334 . S
C3424 H3395 0.950 . S
C3424 C3423 1.334 . S
C3424 C3425 1.287 1_545 S
C3425 C3424 1.287 1_565 S
C3425 C3426 1.524 . S
C3425 H3428 0.999 . S
C3426 H3396 0.950 . S
C3426 C3425 1.524 . S
C3426 C3427 1.415 . S
C3427 H3397 0.950 . S
C3427 C3422 1.363 1_565 S
C3427 C3426 1.415 . S
H3428 C3425 0.999 . S
H3429 C3410 0.913 . S
H3430 C3448 0.951 . S
H3431 C3450 0.951 . S
H3432 C3452 0.950 . S
H3433 C3453 0.950 . S
H3434 C3455 0.950 . S
H3435 C3458 0.950 . S
H3436 C3459 0.950 . S
H3437 C3461 0.950 . S
H3438 C3462 0.950 . S
H3439 C3463 0.951 . S
H3440 C3465 0.951 . S
H3441 C3467 0.950 . S
H3442 C3468 0.950 . S
H3443 C3470 0.950 . S
H3444 C3473 0.950 . S
H3445 C3474 0.950 . S
H3446 C3476 0.950 . S
H3447 C3477 0.950 . S
C3448 H3430 0.951 . S
C3448 C3449 1.366 . S
C3448 C3450 1.388 . S
C3449 C3448 1.366 . S
C3449 C3453 1.385 . S
C3450 H3431 0.951 . S
C3450 C3448 1.388 . S
C3450 C3451 1.366 . S
C3451 C3450 1.366 . S
C3451 C3452 1.414 . S
C3451 C3454 1.499 . S
C3452 H3432 0.950 . S
C3452 C3451 1.414 . S
C3452 C3453 1.374 . S
C3453 H3433 0.950 . S
C3453 C3449 1.385 . S
C3453 C3452 1.374 . S
C3454 C3451 1.499 . S
C3454 C3455 1.373 . S
C3454 C3456 1.389 . S
C3455 H3434 0.950 . S
C3455 C3454 1.373 . S
C3455 C3471 1.377 . S
C3456 C3454 1.389 . S
C3456 C3457 1.524 . S
C3456 C3470 1.377 . S
C3457 C3456 1.524 . S
C3457 C3458 1.397 . S
C3457 C3462 1.363 . S
C3458 H3435 0.950 . S
C3458 C3457 1.397 . S
C3458 C3459 1.334 . S
C3459 H3436 0.950 . S
C3459 C3458 1.334 . S
C3459 C3460 1.287 . S
C3460 C3459 1.287 . S
C3460 C3461 1.524 . S
C3460 H3479 0.913 . S
C3461 H3437 0.950 . S
C3461 C3460 1.524 . S
C3461 C3462 1.415 . S
C3462 H3438 0.950 . S
C3462 C3457 1.363 . S
C3462 C3461 1.415 . S
C3463 H3439 0.951 . S
C3463 C3464 1.366 . S
C3463 C3465 1.388 . S
C3464 C3463 1.366 . S
C3464 C3468 1.385 . S
C3465 H3440 0.951 . S
C3465 C3463 1.388 . S
C3465 C3466 1.366 . S
C3466 C3465 1.366 . S
C3466 C3467 1.414 . S
C3466 C3469 1.499 . S
C3467 H3441 0.950 . S
C3467 C3466 1.414 . S
C3467 C3468 1.374 . S
C3468 H3442 0.950 . S
C3468 C3464 1.385 . S
C3468 C3467 1.374 . S
C3469 C3466 1.499 . S
C3469 C3470 1.373 . S
C3469 C3471 1.389 . S
C3470 H3443 0.950 . S
C3470 C3456 1.377 . S
C3470 C3469 1.373 . S
C3471 C3455 1.377 . S
C3471 C3469 1.389 . S
C3471 C3472 1.524 . S
C3472 C3471 1.524 . S
C3472 C3473 1.397 . S
C3472 C3477 1.363 . S
C3473 H3444 0.950 . S
C3473 C3472 1.397 . S
C3473 C3474 1.334 . S
C3474 H3445 0.950 . S
C3474 C3473 1.334 . S
C3474 C3475 1.287 . S
C3475 C3474 1.287 . S
C3475 C3476 1.524 . S
C3475 H3478 0.999 . S
C3476 H3446 0.950 . S
C3476 C3475 1.524 . S
C3476 C3477 1.415 . S
C3477 H3447 0.950 . S
C3477 C3472 1.363 . S
C3477 C3476 1.415 . S
H3478 C3475 0.999 . S
H3479 C3460 0.913 . S
H3480 C3498 0.962 . S
H3481 C3500 0.951 . S
H3482 C3502 0.950 . S
H3483 C3503 0.950 . S
H3484 C3505 0.930 1_565 S
H3485 C3508 0.950 . S
H3486 C3509 0.950 . S
H3487 C3511 0.950 . S
H3488 C3512 0.950 . S
H3489 C3513 0.951 . S
H3490 C3515 0.951 . S
H3491 C3517 0.950 . S
H3492 C3518 0.950 . S
H3493 C3520 0.950 . S
H3494 C3523 0.950 . S
H3495 C3524 0.950 . S
H3496 C3526 0.950 . S
H3497 C3527 0.933 1_545 S
C3498 H3480 0.962 . S
C3498 C3499 1.365 1_565 S
C3498 C3500 1.378 1_565 S
C3499 C3498 1.365 1_545 S
C3499 C3503 1.385 . S
C3500 H3481 0.951 . S
C3500 C3498 1.378 1_545 S
C3500 C3501 1.366 . S
C3501 C3500 1.366 . S
C3501 C3502 1.414 . S
C3501 C3504 1.499 . S
C3502 H3482 0.950 . S
C3502 C3501 1.414 . S
C3502 C3503 1.374 . S
C3503 H3483 0.950 . S
C3503 C3499 1.385 . S
C3503 C3502 1.374 . S
C3504 C3501 1.499 . S
C3504 C3505 1.373 . S
C3504 C3506 1.389 . S
C3505 H3484 0.930 1_545 S
C3505 C3504 1.373 . S
C3505 C3521 1.377 . S
C3506 C3504 1.389 . S
C3506 C3507 1.524 . S
C3506 C3520 1.377 . S
C3507 C3506 1.524 . S
C3507 C3508 1.397 . S
C3507 C3512 1.363 . S
C3508 H3485 0.950 . S
C3508 C3507 1.397 . S
C3508 C3509 1.334 . S
C3509 H3486 0.950 . S
C3509 C3508 1.334 . S
C3509 C3510 1.287 . S
C3510 C3509 1.287 . S
C3510 C3511 1.524 . S
C3510 H3529 0.913 . S
C3511 H3487 0.950 . S
C3511 C3510 1.524 . S
C3511 C3512 1.415 . S
C3512 H3488 0.950 . S
C3512 C3507 1.363 . S
C3512 C3511 1.415 . S
C3513 H3489 0.951 . S
C3513 C3514 1.366 . S
C3513 C3515 1.388 . S
C3514 C3513 1.366 . S
C3514 C3518 1.385 . S
C3515 H3490 0.951 . S
C3515 C3513 1.388 . S
C3515 C3516 1.366 . S
C3516 C3515 1.366 . S
C3516 C3517 1.414 . S
C3516 C3519 1.499 . S
C3517 H3491 0.950 . S
C3517 C3516 1.414 . S
C3517 C3518 1.374 . S
C3518 H3492 0.950 . S
C3518 C3514 1.385 . S
C3518 C3517 1.374 . S
C3519 C3516 1.499 . S
C3519 C3520 1.373 . S
C3519 C3521 1.389 . S
C3520 H3493 0.950 . S
C3520 C3506 1.377 . S
C3520 C3519 1.373 . S
C3521 C3505 1.377 . S
C3521 C3519 1.389 . S
C3521 C3522 1.524 1_545 S
C3522 C3521 1.524 1_565 S
C3522 C3523 1.397 . S
C3522 C3527 1.369 . S
C3523 H3494 0.950 . S
C3523 C3522 1.397 . S
C3523 C3524 1.334 . S
C3524 H3495 0.950 . S
C3524 C3523 1.334 . S
C3524 C3525 1.287 . S
C3525 C3524 1.287 . S
C3525 C3526 1.524 . S
C3525 H3528 0.999 . S
C3526 H3496 0.950 . S
C3526 C3525 1.524 . S
C3526 C3527 1.429 . S
C3527 H3497 0.933 1_565 S
C3527 C3522 1.369 . S
C3527 C3526 1.429 . S
H3528 C3525 0.999 . S
H3529 C3510 0.913 . S
H3530 C3548 0.951 . S
H3531 C3550 0.951 . S
H3532 C3552 0.950 . S
H3533 C3553 0.950 . S
H3534 C3555 0.950 . S
H3535 C3558 0.950 . S
H3536 C3559 0.950 . S
H3537 C3561 0.950 . S
H3538 C3562 0.950 . S
H3539 C3563 0.951 . S
H3540 C3565 0.951 . S
H3541 C3567 0.950 . S
H3542 C3568 0.950 . S
H3543 C3570 0.950 . S
H3544 C3573 0.950 . S
H3545 C3574 0.950 . S
H3546 C3576 0.950 . S
H3547 C3577 0.950 . S
C3548 H3530 0.951 . S
C3548 C3549 1.366 . S
C3548 C3550 1.388 . S
C3549 C3548 1.366 . S
C3549 C3553 1.385 . S
C3550 H3531 0.951 . S
C3550 C3548 1.388 . S
C3550 C3551 1.366 . S
C3551 C3550 1.366 . S
C3551 C3552 1.414 . S
C3551 C3554 1.499 . S
C3552 H3532 0.950 . S
C3552 C3551 1.414 . S
C3552 C3553 1.374 . S
C3553 H3533 0.950 . S
C3553 C3549 1.385 . S
C3553 C3552 1.374 . S
C3554 C3551 1.499 . S
C3554 C3555 1.373 . S
C3554 C3556 1.389 . S
C3555 H3534 0.950 . S
C3555 C3554 1.373 . S
C3555 C3571 1.377 . S
C3556 C3554 1.389 . S
C3556 C3557 1.524 . S
C3556 C3570 1.377 . S
C3557 C3556 1.524 . S
C3557 C3558 1.397 . S
C3557 C3562 1.363 . S
C3558 H3535 0.950 . S
C3558 C3557 1.397 . S
C3558 C3559 1.334 . S
C3559 H3536 0.950 . S
C3559 C3558 1.334 . S
C3559 C3560 1.287 . S
C3560 C3559 1.287 . S
C3560 C3561 1.524 . S
C3560 H3579 0.913 . S
C3561 H3537 0.950 . S
C3561 C3560 1.524 . S
C3561 C3562 1.415 . S
C3562 H3538 0.950 . S
C3562 C3557 1.363 . S
C3562 C3561 1.415 . S
C3563 H3539 0.951 . S
C3563 C3564 1.366 . S
C3563 C3565 1.388 . S
C3564 C3563 1.366 . S
C3564 C3568 1.385 . S
C3565 H3540 0.951 . S
C3565 C3563 1.388 . S
C3565 C3566 1.366 . S
C3566 C3565 1.366 . S
C3566 C3567 1.414 . S
C3566 C3569 1.499 . S
C3567 H3541 0.950 . S
C3567 C3566 1.414 . S
C3567 C3568 1.374 . S
C3568 H3542 0.950 . S
C3568 C3564 1.385 . S
C3568 C3567 1.374 . S
C3569 C3566 1.499 . S
C3569 C3570 1.373 . S
C3569 C3571 1.389 . S
C3570 H3543 0.950 . S
C3570 C3556 1.377 . S
C3570 C3569 1.373 . S
C3571 C3555 1.377 . S
C3571 C3569 1.389 . S
C3571 C3572 1.524 . S
C3572 C3571 1.524 . S
C3572 C3573 1.397 . S
C3572 C3577 1.363 . S
C3573 H3544 0.950 . S
C3573 C3572 1.397 . S
C3573 C3574 1.334 . S
C3574 H3545 0.950 . S
C3574 C3573 1.334 . S
C3574 C3575 1.287 . S
C3575 C3574 1.287 . S
C3575 C3576 1.524 . S
C3575 H3578 0.999 . S
C3576 H3546 0.950 . S
C3576 C3575 1.524 . S
C3576 C3577 1.415 . S
C3577 H3547 0.950 . S
C3577 C3572 1.363 . S
C3577 C3576 1.415 . S
H3578 C3575 0.999 . S
H3579 C3560 0.913 . S
H3580 C3598 0.951 . S
H3581 C3600 0.951 . S
H3582 C3602 0.950 . S
H3583 C3603 0.950 . S
H3584 C3605 0.950 . S
H3585 C3608 0.950 . S
H3586 C3609 0.950 . S
H3587 C3611 0.950 . S
H3588 C3612 0.950 . S
H3589 C3613 0.951 . S
H3590 C3615 0.951 . S
H3591 C3617 0.950 . S
H3592 C3618 0.950 . S
H3593 C3620 0.950 . S
H3594 C3623 0.950 . S
H3595 C3624 0.950 . S
H3596 C3626 0.950 . S
H3597 C3627 0.950 1_545 S
C3598 H3580 0.951 . S
C3598 C3599 1.366 . S
C3598 C3600 1.388 . S
C3599 C3598 1.366 . S
C3599 C3603 1.385 . S
C3600 H3581 0.951 . S
C3600 C3598 1.388 . S
C3600 C3601 1.366 . S
C3601 C3600 1.366 . S
C3601 C3602 1.414 . S
C3601 C3604 1.499 . S
C3602 H3582 0.950 . S
C3602 C3601 1.414 . S
C3602 C3603 1.374 . S
C3603 H3583 0.950 . S
C3603 C3599 1.385 . S
C3603 C3602 1.374 . S
C3604 C3601 1.499 . S
C3604 C3605 1.373 . S
C3604 C3606 1.389 . S
C3605 H3584 0.950 . S
C3605 C3604 1.373 . S
C3605 C3621 1.377 . S
C3606 C3604 1.389 . S
C3606 C3607 1.524 . S
C3606 C3620 1.377 . S
C3607 C3606 1.524 . S
C3607 C3608 1.397 . S
C3607 C3612 1.363 . S
C3608 H3585 0.950 . S
C3608 C3607 1.397 . S
C3608 C3609 1.334 . S
C3609 H3586 0.950 . S
C3609 C3608 1.334 . S
C3609 C3610 1.287 . S
C3610 C3609 1.287 . S
C3610 C3611 1.524 . S
C3610 H3629 0.913 . S
C3611 H3587 0.950 . S
C3611 C3610 1.524 . S
C3611 C3612 1.415 . S
C3612 H3588 0.950 . S
C3612 C3607 1.363 . S
C3612 C3611 1.415 . S
C3613 H3589 0.951 . S
C3613 C3614 1.366 . S
C3613 C3615 1.388 . S
C3614 C3613 1.366 . S
C3614 C3618 1.385 . S
C3615 H3590 0.951 . S
C3615 C3613 1.388 . S
C3615 C3616 1.366 . S
C3616 C3615 1.366 . S
C3616 C3617 1.414 . S
C3616 C3619 1.499 . S
C3617 H3591 0.950 . S
C3617 C3616 1.414 . S
C3617 C3618 1.374 . S
C3618 H3592 0.950 . S
C3618 C3614 1.385 . S
C3618 C3617 1.374 . S
C3619 C3616 1.499 . S
C3619 C3620 1.373 . S
C3619 C3621 1.389 . S
C3620 H3593 0.950 . S
C3620 C3606 1.377 . S
C3620 C3619 1.373 . S
C3621 C3605 1.377 . S
C3621 C3619 1.389 . S
C3621 C3622 1.523 1_545 S
C3622 C3621 1.523 1_565 S
C3622 C3623 1.398 . S
C3622 C3627 1.363 . S
C3623 H3594 0.950 . S
C3623 C3622 1.398 . S
C3623 C3624 1.334 . S
C3624 H3595 0.950 . S
C3624 C3623 1.334 . S
C3624 C3625 1.287 . S
C3625 C3624 1.287 . S
C3625 C3626 1.524 . S
C3625 H3628 0.999 . S
C3626 H3596 0.950 . S
C3626 C3625 1.524 . S
C3626 C3627 1.415 . S
C3627 H3597 0.950 1_565 S
C3627 C3622 1.363 . S
C3627 C3626 1.415 . S
H3628 C3625 0.999 . S
H3629 C3610 0.913 . S
H3630 C3648 0.951 . S
H3631 C3650 0.951 . S
H3632 C3652 0.950 . S
H3633 C3653 0.950 . S
H3634 C3655 0.950 . S
H3635 C3658 0.950 . S
H3636 C3659 0.950 . S
H3637 C3661 0.950 . S
H3638 C3662 0.950 . S
H3639 C3663 0.951 . S
H3640 C3665 0.951 . S
H3641 C3667 0.950 . S
H3642 C3668 0.950 . S
H3643 C3670 0.950 . S
H3644 C3673 0.950 . S
H3645 C3674 0.950 . S
H3646 C3676 0.950 . S
H3647 C3677 0.950 . S
C3648 H3630 0.951 . S
C3648 C3649 1.366 . S
C3648 C3650 1.388 . S
C3649 C3648 1.366 . S
C3649 C3653 1.385 . S
C3650 H3631 0.951 . S
C3650 C3648 1.388 . S
C3650 C3651 1.366 . S
C3651 C3650 1.366 . S
C3651 C3652 1.414 . S
C3651 C3654 1.499 . S
C3652 H3632 0.950 . S
C3652 C3651 1.414 . S
C3652 C3653 1.374 . S
C3653 H3633 0.950 . S
C3653 C3649 1.385 . S
C3653 C3652 1.374 . S
C3654 C3651 1.499 . S
C3654 C3655 1.373 . S
C3654 C3656 1.389 . S
C3655 H3634 0.950 . S
C3655 C3654 1.373 . S
C3655 C3671 1.377 . S
C3656 C3654 1.389 . S
C3656 C3657 1.524 . S
C3656 C3670 1.377 . S
C3657 C3656 1.524 . S
C3657 C3658 1.397 . S
C3657 C3662 1.363 . S
C3658 H3635 0.950 . S
C3658 C3657 1.397 . S
C3658 C3659 1.334 . S
C3659 H3636 0.950 . S
C3659 C3658 1.334 . S
C3659 C3660 1.287 . S
C3660 C3659 1.287 . S
C3660 C3661 1.524 . S
C3660 H3679 0.913 . S
C3661 H3637 0.950 . S
C3661 C3660 1.524 . S
C3661 C3662 1.415 . S
C3662 H3638 0.950 . S
C3662 C3657 1.363 . S
C3662 C3661 1.415 . S
C3663 H3639 0.951 . S
C3663 C3664 1.366 . S
C3663 C3665 1.388 . S
C3664 C3663 1.366 . S
C3664 C3668 1.385 . S
C3665 H3640 0.951 . S
C3665 C3663 1.388 . S
C3665 C3666 1.366 . S
C3666 C3665 1.366 . S
C3666 C3667 1.414 . S
C3666 C3669 1.499 . S
C3667 H3641 0.950 . S
C3667 C3666 1.414 . S
C3667 C3668 1.374 . S
C3668 H3642 0.950 . S
C3668 C3664 1.385 . S
C3668 C3667 1.374 . S
C3669 C3666 1.499 . S
C3669 C3670 1.373 . S
C3669 C3671 1.389 . S
C3670 H3643 0.950 . S
C3670 C3656 1.377 . S
C3670 C3669 1.373 . S
C3671 C3655 1.377 . S
C3671 C3669 1.389 . S
C3671 C3672 1.524 . S
C3672 C3671 1.524 . S
C3672 C3673 1.397 . S
C3672 C3677 1.363 . S
C3673 H3644 0.950 . S
C3673 C3672 1.397 . S
C3673 C3674 1.334 . S
C3674 H3645 0.950 . S
C3674 C3673 1.334 . S
C3674 C3675 1.287 . S
C3675 C3674 1.287 . S
C3675 C3676 1.524 . S
C3675 H3678 0.999 . S
C3676 H3646 0.950 . S
C3676 C3675 1.524 . S
C3676 C3677 1.415 . S
C3677 H3647 0.950 . S
C3677 C3672 1.363 . S
C3677 C3676 1.415 . S
H3678 C3675 0.999 . S
H3679 C3660 0.913 . S
H3680 C3698 0.951 . S
H3681 C3700 0.951 . S
H3682 C3702 0.950 . S
H3683 C3703 0.950 . S
H3684 C3705 0.950 . S
H3685 C3708 0.950 . S
H3686 C3709 0.950 . S
H3687 C3711 0.950 . S
H3688 C3712 0.950 . S
H3689 C3713 0.951 . S
H3690 C3715 0.951 . S
H3691 C3717 0.950 . S
H3692 C3718 0.950 . S
H3693 C3720 0.950 1_556 S
H3694 C3723 0.950 . S
H3695 C3724 0.950 . S
H3696 C3726 0.950 . S
H3697 C3727 0.950 . S
C3698 H3680 0.951 . S
C3698 C3699 1.366 . S
C3698 C3700 1.388 . S
C3699 C3698 1.366 . S
C3699 C3703 1.385 . S
C3700 H3681 0.951 . S
C3700 C3698 1.388 . S
C3700 C3701 1.366 . S
C3701 C3700 1.366 . S
C3701 C3702 1.414 . S
C3701 C3704 1.499 . S
C3702 H3682 0.950 . S
C3702 C3701 1.414 . S
C3702 C3703 1.374 . S
C3703 H3683 0.950 . S
C3703 C3699 1.385 . S
C3703 C3702 1.374 . S
C3704 C3701 1.499 . S
C3704 C3705 1.373 . S
C3704 C3706 1.389 . S
C3705 H3684 0.950 . S
C3705 C3704 1.373 . S
C3705 C3721 1.377 . S
C3706 C3704 1.389 . S
C3706 C3707 1.524 1_554 S
C3706 C3720 1.377 . S
C3707 C3706 1.524 1_556 S
C3707 C3708 1.397 . S
C3707 C3712 1.363 . S
C3708 H3685 0.950 . S
C3708 C3707 1.397 . S
C3708 C3709 1.334 . S
C3709 H3686 0.950 . S
C3709 C3708 1.334 . S
C3709 C3710 1.287 . S
C3710 C3709 1.287 . S
C3710 C3711 1.524 . S
C3710 H3729 0.913 . S
C3711 H3687 0.950 . S
C3711 C3710 1.524 . S
C3711 C3712 1.415 . S
C3712 H3688 0.950 . S
C3712 C3707 1.363 . S
C3712 C3711 1.415 . S
C3713 H3689 0.951 . S
C3713 C3714 1.366 . S
C3713 C3715 1.388 . S
C3714 C3713 1.366 . S
C3714 C3718 1.385 . S
C3715 H3690 0.951 . S
C3715 C3713 1.388 . S
C3715 C3716 1.366 . S
C3716 C3715 1.366 . S
C3716 C3717 1.414 . S
C3716 C3719 1.499 . S
C3717 H3691 0.950 . S
C3717 C3716 1.414 . S
C3717 C3718 1.374 . S
C3718 H3692 0.950 . S
C3718 C3714 1.385 . S
C3718 C3717 1.374 . S
C3719 C3716 1.499 . S
C3719 C3720 1.373 . S
C3719 C3721 1.389 . S
C3720 H3693 0.950 1_554 S
C3720 C3706 1.377 . S
C3720 C3719 1.373 . S
C3721 C3705 1.377 . S
C3721 C3719 1.389 . S
C3721 C3722 1.524 . S
C3722 C3721 1.524 . S
C3722 C3723 1.397 . S
C3722 C3727 1.363 . S
C3723 H3694 0.950 . S
C3723 C3722 1.397 . S
C3723 C3724 1.334 . S
C3724 H3695 0.950 . S
C3724 C3723 1.334 . S
C3724 C3725 1.287 . S
C3725 C3724 1.287 . S
C3725 C3726 1.524 . S
C3725 H3728 0.999 . S
C3726 H3696 0.950 . S
C3726 C3725 1.524 . S
C3726 C3727 1.415 . S
C3727 H3697 0.950 . S
C3727 C3722 1.363 . S
C3727 C3726 1.415 . S
H3728 C3725 0.999 . S
H3729 C3710 0.913 . S
H3730 C3748 0.951 . S
H3731 C3750 0.951 . S
H3732 C3752 0.950 . S
H3733 C3753 0.950 . S
H3734 C3755 0.950 . S
H3735 C3758 0.925 1_554 S
H3736 C3759 0.950 . S
H3737 C3761 0.950 . S
H3738 C3762 0.950 . S
H3739 C3763 0.951 . S
H3740 C3765 0.951 . S
H3741 C3767 0.950 . S
H3742 C3768 0.950 . S
H3743 C3770 0.950 . S
H3744 C3773 0.950 . S
H3745 C3774 0.950 . S
H3746 C3776 0.950 . S
H3747 C3777 0.950 . S
C3748 H3730 0.951 . S
C3748 C3749 1.366 . S
C3748 C3750 1.388 . S
C3749 C3748 1.366 . S
C3749 C3753 1.385 . S
C3750 H3731 0.951 . S
C3750 C3748 1.388 . S
C3750 C3751 1.366 . S
C3751 C3750 1.366 . S
C3751 C3752 1.414 . S
C3751 C3754 1.499 . S
C3752 H3732 0.950 . S
C3752 C3751 1.414 . S
C3752 C3753 1.374 . S
C3753 H3733 0.950 . S
C3753 C3749 1.385 . S
C3753 C3752 1.374 . S
C3754 C3751 1.499 . S
C3754 C3755 1.373 . S
C3754 C3756 1.389 . S
C3755 H3734 0.950 . S
C3755 C3754 1.373 . S
C3755 C3771 1.377 . S
C3756 C3754 1.389 . S
C3756 C3757 1.524 . S
C3756 C3770 1.377 . S
C3757 C3756 1.524 . S
C3757 C3758 1.397 1_554 S
C3757 C3762 1.363 . S
C3758 H3735 0.925 1_556 S
C3758 C3757 1.397 1_556 S
C3758 C3759 1.334 . S
C3759 H3736 0.950 . S
C3759 C3758 1.334 . S
C3759 C3760 1.287 . S
C3760 C3759 1.287 . S
C3760 C3761 1.524 . S
C3760 H3779 0.913 . S
C3761 H3737 0.950 . S
C3761 C3760 1.524 . S
C3761 C3762 1.415 1_556 S
C3762 H3738 0.950 . S
C3762 C3757 1.363 . S
C3762 C3761 1.415 1_554 S
C3763 H3739 0.951 . S
C3763 C3764 1.366 . S
C3763 C3765 1.388 . S
C3764 C3763 1.366 . S
C3764 C3768 1.385 . S
C3765 H3740 0.951 . S
C3765 C3763 1.388 . S
C3765 C3766 1.366 . S
C3766 C3765 1.366 . S
C3766 C3767 1.414 . S
C3766 C3769 1.499 . S
C3767 H3741 0.950 . S
C3767 C3766 1.414 . S
C3767 C3768 1.374 . S
C3768 H3742 0.950 . S
C3768 C3764 1.385 . S
C3768 C3767 1.374 . S
C3769 C3766 1.499 . S
C3769 C3770 1.373 . S
C3769 C3771 1.389 . S
C3770 H3743 0.950 . S
C3770 C3756 1.377 . S
C3770 C3769 1.373 . S
C3771 C3755 1.377 . S
C3771 C3769 1.389 . S
C3771 C3772 1.524 . S
C3772 C3771 1.524 . S
C3772 C3773 1.397 . S
C3772 C3777 1.363 . S
C3773 H3744 0.950 . S
C3773 C3772 1.397 . S
C3773 C3774 1.334 . S
C3774 H3745 0.950 . S
C3774 C3773 1.334 . S
C3774 C3775 1.287 . S
C3775 C3774 1.287 . S
C3775 C3776 1.524 . S
C3775 H3778 0.999 . S
C3776 H3746 0.950 . S
C3776 C3775 1.524 . S
C3776 C3777 1.415 . S
C3777 H3747 0.950 . S
C3777 C3772 1.363 . S
C3777 C3776 1.415 . S
H3778 C3775 0.999 . S
H3779 C3760 0.913 . S
H3780 C3798 0.951 . S
H3781 C3800 0.951 . S
H3782 C3802 0.950 . S
H3783 C3803 0.950 . S
H3784 C3805 0.950 . S
H3785 C3808 0.950 . S
H3786 C3809 0.950 . S
H3787 C3811 0.950 . S
H3788 C3812 0.950 . S
H3789 C3813 0.951 . S
H3790 C3815 0.951 . S
H3791 C3817 0.950 . S
H3792 C3818 0.950 . S
H3793 C3820 0.950 . S
H3794 C3823 0.950 . S
H3795 C3824 0.950 . S
H3796 C3826 0.950 . S
H3797 C3827 0.950 . S
C3798 H3780 0.951 . S
C3798 C3799 1.366 . S
C3798 C3800 1.388 . S
C3799 C3798 1.366 . S
C3799 C3803 1.385 . S
C3800 H3781 0.951 . S
C3800 C3798 1.388 . S
C3800 C3801 1.366 . S
C3801 C3800 1.366 . S
C3801 C3802 1.414 . S
C3801 C3804 1.499 . S
C3802 H3782 0.950 . S
C3802 C3801 1.414 . S
C3802 C3803 1.374 . S
C3803 H3783 0.950 . S
C3803 C3799 1.385 . S
C3803 C3802 1.374 . S
C3804 C3801 1.499 . S
C3804 C3805 1.373 . S
C3804 C3806 1.389 . S
C3805 H3784 0.950 . S
C3805 C3804 1.373 . S
C3805 C3821 1.377 . S
C3806 C3804 1.389 . S
C3806 C3807 1.524 . S
C3806 C3820 1.377 . S
C3807 C3806 1.524 . S
C3807 C3808 1.397 . S
C3807 C3812 1.363 . S
C3808 H3785 0.950 . S
C3808 C3807 1.397 . S
C3808 C3809 1.334 . S
C3809 H3786 0.950 . S
C3809 C3808 1.334 . S
C3809 C3810 1.287 . S
C3810 C3809 1.287 . S
C3810 C3811 1.524 . S
C3810 H3829 0.913 . S
C3811 H3787 0.950 . S
C3811 C3810 1.524 . S
C3811 C3812 1.415 . S
C3812 H3788 0.950 . S
C3812 C3807 1.363 . S
C3812 C3811 1.415 . S
C3813 H3789 0.951 . S
C3813 C3814 1.366 . S
C3813 C3815 1.388 . S
C3814 C3813 1.366 . S
C3814 C3818 1.385 . S
C3815 H3790 0.951 . S
C3815 C3813 1.388 . S
C3815 C3816 1.366 . S
C3816 C3815 1.366 . S
C3816 C3817 1.414 . S
C3816 C3819 1.499 . S
C3817 H3791 0.950 . S
C3817 C3816 1.414 . S
C3817 C3818 1.374 . S
C3818 H3792 0.950 . S
C3818 C3814 1.385 . S
C3818 C3817 1.374 . S
C3819 C3816 1.499 . S
C3819 C3820 1.373 . S
C3819 C3821 1.389 . S
C3820 H3793 0.950 . S
C3820 C3806 1.377 . S
C3820 C3819 1.373 . S
C3821 C3805 1.377 . S
C3821 C3819 1.389 . S
C3821 C3822 1.524 . S
C3822 C3821 1.524 . S
C3822 C3823 1.397 . S
C3822 C3827 1.363 . S
C3823 H3794 0.950 . S
C3823 C3822 1.397 . S
C3823 C3824 1.334 . S
C3824 H3795 0.950 . S
C3824 C3823 1.334 . S
C3824 C3825 1.287 . S
C3825 C3824 1.287 . S
C3825 C3826 1.524 . S
C3825 H3828 0.999 . S
C3826 H3796 0.950 . S
C3826 C3825 1.524 . S
C3826 C3827 1.415 . S
C3827 H3797 0.950 . S
C3827 C3822 1.363 . S
C3827 C3826 1.415 . S
H3828 C3825 0.999 . S
H3829 C3810 0.913 . S
H3830 C3848 0.951 . S
H3831 C3850 0.951 . S
H3832 C3852 0.950 . S
H3833 C3853 0.950 . S
H3834 C3855 0.950 . S
H3835 C3858 0.950 . S
H3836 C3859 0.950 . S
H3837 C3861 0.950 . S
H3838 C3862 0.950 . S
H3839 C3863 0.951 . S
H3840 C3865 0.951 . S
H3841 C3867 0.950 . S
H3842 C3868 0.950 . S
H3843 C3870 0.950 . S
H3844 C3873 0.950 . S
H3845 C3874 0.950 . S
H3846 C3876 0.950 . S
H3847 C3877 0.950 . S
C3848 H3830 0.951 . S
C3848 C3849 1.366 . S
C3848 C3850 1.388 . S
C3849 C3848 1.366 . S
C3849 C3853 1.385 . S
C3850 H3831 0.951 . S
C3850 C3848 1.388 . S
C3850 C3851 1.366 . S
C3851 C3850 1.366 . S
C3851 C3852 1.414 . S
C3851 C3854 1.499 . S
C3852 H3832 0.950 . S
C3852 C3851 1.414 . S
C3852 C3853 1.374 . S
C3853 H3833 0.950 . S
C3853 C3849 1.385 . S
C3853 C3852 1.374 . S
C3854 C3851 1.499 . S
C3854 C3855 1.373 . S
C3854 C3856 1.389 . S
C3855 H3834 0.950 . S
C3855 C3854 1.373 . S
C3855 C3871 1.377 . S
C3856 C3854 1.389 . S
C3856 C3857 1.524 . S
C3856 C3870 1.377 . S
C3857 C3856 1.524 . S
C3857 C3858 1.397 . S
C3857 C3862 1.363 . S
C3858 H3835 0.950 . S
C3858 C3857 1.397 . S
C3858 C3859 1.334 . S
C3859 H3836 0.950 . S
C3859 C3858 1.334 . S
C3859 C3860 1.287 . S
C3860 C3859 1.287 . S
C3860 C3861 1.524 . S
C3860 H3879 0.913 . S
C3861 H3837 0.950 . S
C3861 C3860 1.524 . S
C3861 C3862 1.415 . S
C3862 H3838 0.950 . S
C3862 C3857 1.363 . S
C3862 C3861 1.415 . S
C3863 H3839 0.951 . S
C3863 C3864 1.366 . S
C3863 C3865 1.388 . S
C3864 C3863 1.366 . S
C3864 C3868 1.385 . S
C3865 H3840 0.951 . S
C3865 C3863 1.388 . S
C3865 C3866 1.366 . S
C3866 C3865 1.366 . S
C3866 C3867 1.414 . S
C3866 C3869 1.499 . S
C3867 H3841 0.950 . S
C3867 C3866 1.414 . S
C3867 C3868 1.374 . S
C3868 H3842 0.950 . S
C3868 C3864 1.385 . S
C3868 C3867 1.374 . S
C3869 C3866 1.499 . S
C3869 C3870 1.373 . S
C3869 C3871 1.389 . S
C3870 H3843 0.950 . S
C3870 C3856 1.377 . S
C3870 C3869 1.373 . S
C3871 C3855 1.377 . S
C3871 C3869 1.389 . S
C3871 C3872 1.524 . S
C3872 C3871 1.524 . S
C3872 C3873 1.397 . S
C3872 C3877 1.363 . S
C3873 H3844 0.950 . S
C3873 C3872 1.397 . S
C3873 C3874 1.334 . S
C3874 H3845 0.950 . S
C3874 C3873 1.334 . S
C3874 C3875 1.287 . S
C3875 C3874 1.287 . S
C3875 C3876 1.524 . S
C3875 H3878 0.999 . S
C3876 H3846 0.950 . S
C3876 C3875 1.524 . S
C3876 C3877 1.415 . S
C3877 H3847 0.950 . S
C3877 C3872 1.363 . S
C3877 C3876 1.415 . S
H3878 C3875 0.999 . S
H3879 C3860 0.913 . S
H3880 C3898 0.951 . S
H3881 C3900 0.951 . S
H3882 C3902 0.950 . S
H3883 C3903 0.950 . S
H3884 C3905 0.950 . S
H3885 C3908 0.950 . S
H3886 C3909 0.950 . S
H3887 C3911 0.950 . S
H3888 C3912 0.950 . S
H3889 C3913 0.951 . S
H3890 C3915 0.951 . S
H3891 C3917 0.950 . S
H3892 C3918 0.950 . S
H3893 C3920 0.950 . S
H3894 C3923 0.950 . S
H3895 C3924 0.950 . S
H3896 C3926 0.950 . S
H3897 C3927 0.950 . S
C3898 H3880 0.951 . S
C3898 C3899 1.365 . S
C3898 C3900 1.388 1_545 S
C3899 C3898 1.365 . S
C3899 C3903 1.366 1_545 S
C3900 H3881 0.951 . S
C3900 C3898 1.388 1_565 S
C3900 C3901 1.366 . S
C3901 C3900 1.366 . S
C3901 C3902 1.414 . S
C3901 C3904 1.499 . S
C3902 H3882 0.950 . S
C3902 C3901 1.414 . S
C3902 C3903 1.374 . S
C3903 H3883 0.950 . S
C3903 C3899 1.366 1_565 S
C3903 C3902 1.374 . S
C3904 C3901 1.499 . S
C3904 C3905 1.373 . S
C3904 C3906 1.389 . S
C3905 H3884 0.950 . S
C3905 C3904 1.373 . S
C3905 C3921 1.377 . S
C3906 C3904 1.389 . S
C3906 C3907 1.524 . S
C3906 C3920 1.377 . S
C3907 C3906 1.524 . S
C3907 C3908 1.397 . S
C3907 C3912 1.363 . S
C3908 H3885 0.950 . S
C3908 C3907 1.397 . S
C3908 C3909 1.334 . S
C3909 H3886 0.950 . S
C3909 C3908 1.334 . S
C3909 C3910 1.287 . S
C3910 C3909 1.287 . S
C3910 C3911 1.524 . S
C3910 H3929 0.913 . S
C3911 H3887 0.950 . S
C3911 C3910 1.524 . S
C3911 C3912 1.415 . S
C3912 H3888 0.950 . S
C3912 C3907 1.363 . S
C3912 C3911 1.415 . S
C3913 H3889 0.951 . S
C3913 C3914 1.366 . S
C3913 C3915 1.388 . S
C3914 C3913 1.366 . S
C3914 C3918 1.385 . S
C3915 H3890 0.951 . S
C3915 C3913 1.388 . S
C3915 C3916 1.366 . S
C3916 C3915 1.366 . S
C3916 C3917 1.414 . S
C3916 C3919 1.499 . S
C3917 H3891 0.950 . S
C3917 C3916 1.414 . S
C3917 C3918 1.374 . S
C3918 H3892 0.950 . S
C3918 C3914 1.385 . S
C3918 C3917 1.374 . S
C3919 C3916 1.499 . S
C3919 C3920 1.373 . S
C3919 C3921 1.389 . S
C3920 H3893 0.950 . S
C3920 C3906 1.377 . S
C3920 C3919 1.373 . S
C3921 C3905 1.377 . S
C3921 C3919 1.389 . S
C3921 C3922 1.524 . S
C3922 C3921 1.524 . S
C3922 C3923 1.397 . S
C3922 C3927 1.363 . S
C3923 H3894 0.950 . S
C3923 C3922 1.397 . S
C3923 C3924 1.334 . S
C3924 H3895 0.950 . S
C3924 C3923 1.334 . S
C3924 C3925 1.287 . S
C3925 C3924 1.287 . S
C3925 C3926 1.524 . S
C3925 H3928 0.999 . S
C3926 H3896 0.950 . S
C3926 C3925 1.524 . S
C3926 C3927 1.415 . S
C3927 H3897 0.950 . S
C3927 C3922 1.363 . S
C3927 C3926 1.415 . S
H3928 C3925 0.999 . S
H3929 C3910 0.913 . S
H3930 C3948 0.951 . S
H3931 C3950 0.951 . S
H3932 C3952 0.950 . S
H3933 C3953 0.950 . S
H3934 C3955 0.950 . S
H3935 C3958 0.950 . S
H3936 C3959 0.950 . S
H3937 C3961 0.950 1_545 S
H3938 C3962 0.950 . S
H3939 C3963 0.951 . S
H3940 C3965 0.951 . S
H3941 C3967 0.950 . S
H3942 C3968 0.950 1_545 S
H3943 C3970 0.950 . S
H3944 C3973 0.950 . S
H3945 C3974 0.950 . S
H3946 C3976 0.950 . S
H3947 C3977 0.950 . S
C3948 H3930 0.951 . S
C3948 C3949 1.366 . S
C3948 C3950 1.388 . S
C3949 C3948 1.366 . S
C3949 C3953 1.385 . S
C3950 H3931 0.951 . S
C3950 C3948 1.388 . S
C3950 C3951 1.366 . S
C3951 C3950 1.366 . S
C3951 C3952 1.414 . S
C3951 C3954 1.499 . S
C3952 H3932 0.950 . S
C3952 C3951 1.414 . S
C3952 C3953 1.374 . S
C3953 H3933 0.950 . S
C3953 C3949 1.385 . S
C3953 C3952 1.374 . S
C3954 C3951 1.499 . S
C3954 C3955 1.373 . S
C3954 C3956 1.389 . S
C3955 H3934 0.950 . S
C3955 C3954 1.373 . S
C3955 C3971 1.377 . S
C3956 C3954 1.389 . S
C3956 C3957 1.524 . S
C3956 C3970 1.377 . S
C3957 C3956 1.524 . S
C3957 C3958 1.397 . S
C3957 C3962 1.363 . S
C3958 H3935 0.950 . S
C3958 C3957 1.397 . S
C3958 C3959 1.334 . S
C3959 H3936 0.950 . S
C3959 C3958 1.334 . S
C3959 C3960 1.287 . S
C3960 C3959 1.287 . S
C3960 C3961 1.524 . S
C3960 H3979 0.907 1_565 S
C3961 H3937 0.950 1_565 S
C3961 C3960 1.524 . S
C3961 C3962 1.415 . S
C3962 H3938 0.950 . S
C3962 C3957 1.363 . S
C3962 C3961 1.415 . S
C3963 H3939 0.951 . S
C3963 C3964 1.366 . S
C3963 C3965 1.388 . S
C3964 C3963 1.366 . S
C3964 C3968 1.385 . S
C3965 H3940 0.951 . S
C3965 C3963 1.388 . S
C3965 C3966 1.366 . S
C3966 C3965 1.366 . S
C3966 C3967 1.414 . S
C3966 C3969 1.499 . S
C3967 H3941 0.950 . S
C3967 C3966 1.414 . S
C3967 C3968 1.374 . S
C3968 H3942 0.950 1_565 S
C3968 C3964 1.385 . S
C3968 C3967 1.374 . S
C3969 C3966 1.499 . S
C3969 C3970 1.373 . S
C3969 C3971 1.389 . S
C3970 H3943 0.950 . S
C3970 C3956 1.377 . S
C3970 C3969 1.373 . S
C3971 C3955 1.377 . S
C3971 C3969 1.389 . S
C3971 C3972 1.524 . S
C3972 C3971 1.524 . S
C3972 C3973 1.397 . S
C3972 C3977 1.363 . S
C3973 H3944 0.950 . S
C3973 C3972 1.397 . S
C3973 C3974 1.334 . S
C3974 H3945 0.950 . S
C3974 C3973 1.334 . S
C3974 C3975 1.287 . S
C3975 C3974 1.287 . S
C3975 C3976 1.524 . S
C3975 H3978 0.999 . S
C3976 H3946 0.950 . S
C3976 C3975 1.524 . S
C3976 C3977 1.415 . S
C3977 H3947 0.950 . S
C3977 C3972 1.363 . S
C3977 C3976 1.415 . S
H3978 C3975 0.999 . S
H3979 C3960 0.907 1_545 S
H3980 C3998 0.951 . S
H3981 C4000 0.951 . S
H3982 C4002 0.950 . S
H3983 C4003 0.950 . S
H3984 C4005 0.950 . S
H3985 C4008 0.950 . S
H3986 C4009 0.950 . S
H3987 C4011 0.950 . S
H3988 C4012 0.950 . S
H3989 C4013 0.951 . S
H3990 C4015 0.951 . S
H3991 C4017 0.950 . S
H3992 C4018 0.950 . S
H3993 C4020 0.950 . S
H3994 C4023 0.950 . S
H3995 C4024 0.950 . S
H3996 C4026 0.950 . S
H3997 C4027 0.950 . S
C3998 H3980 0.951 . S
C3998 C3999 1.366 . S
C3998 C4000 1.388 . S
C3999 C3998 1.366 . S
C3999 C4003 1.385 . S
C4000 H3981 0.951 . S
C4000 C3998 1.388 . S
C4000 C4001 1.366 . S
C4001 C4000 1.366 . S
C4001 C4002 1.414 . S
C4001 C4004 1.499 . S
C4002 H3982 0.950 . S
C4002 C4001 1.414 . S
C4002 C4003 1.374 . S
C4003 H3983 0.950 . S
C4003 C3999 1.385 . S
C4003 C4002 1.374 . S
C4004 C4001 1.499 . S
C4004 C4005 1.373 . S
C4004 C4006 1.389 . S
C4005 H3984 0.950 . S
C4005 C4004 1.373 . S
C4005 C4021 1.377 . S
C4006 C4004 1.389 . S
C4006 C4007 1.524 . S
C4006 C4020 1.377 . S
C4007 C4006 1.524 . S
C4007 C4008 1.397 . S
C4007 C4012 1.363 . S
C4008 H3985 0.950 . S
C4008 C4007 1.397 . S
C4008 C4009 1.334 . S
C4009 H3986 0.950 . S
C4009 C4008 1.334 . S
C4009 C4010 1.287 . S
C4010 C4009 1.287 . S
C4010 C4011 1.524 . S
C4010 H4029 0.913 . S
C4011 H3987 0.950 . S
C4011 C4010 1.524 . S
C4011 C4012 1.415 . S
C4012 H3988 0.950 . S
C4012 C4007 1.363 . S
C4012 C4011 1.415 . S
C4013 H3989 0.951 . S
C4013 C4014 1.366 . S
C4013 C4015 1.388 . S
C4014 C4013 1.366 . S
C4014 C4018 1.385 . S
C4015 H3990 0.951 . S
C4015 C4013 1.388 . S
C4015 C4016 1.366 . S
C4016 C4015 1.366 . S
C4016 C4017 1.414 . S
C4016 C4019 1.499 . S
C4017 H3991 0.950 . S
C4017 C4016 1.414 . S
C4017 C4018 1.374 . S
C4018 H3992 0.950 . S
C4018 C4014 1.385 . S
C4018 C4017 1.374 . S
C4019 C4016 1.499 . S
C4019 C4020 1.373 . S
C4019 C4021 1.389 . S
C4020 H3993 0.950 . S
C4020 C4006 1.377 . S
C4020 C4019 1.373 . S
C4021 C4005 1.377 . S
C4021 C4019 1.389 . S
C4021 C4022 1.524 . S
C4022 C4021 1.524 . S
C4022 C4023 1.397 . S
C4022 C4027 1.363 . S
C4023 H3994 0.950 . S
C4023 C4022 1.397 . S
C4023 C4024 1.334 . S
C4024 H3995 0.950 . S
C4024 C4023 1.334 . S
C4024 C4025 1.287 . S
C4025 C4024 1.287 . S
C4025 C4026 1.524 . S
C4025 H4028 0.999 . S
C4026 H3996 0.950 . S
C4026 C4025 1.524 . S
C4026 C4027 1.415 . S
C4027 H3997 0.950 . S
C4027 C4022 1.363 . S
C4027 C4026 1.415 . S
H4028 C4025 0.999 . S
H4029 C4010 0.913 . S
H4030 C4048 0.951 . S
H4031 C4050 0.951 . S
H4032 C4052 0.950 . S
H4033 C4053 0.950 . S
H4034 C4055 0.950 . S
H4035 C4058 0.950 . S
H4036 C4059 0.950 . S
H4037 C4061 0.950 . S
H4038 C4062 0.950 . S
H4039 C4063 0.951 . S
H4040 C4065 0.951 . S
H4041 C4067 0.950 . S
H4042 C4068 0.950 . S
H4043 C4070 0.950 . S
H4044 C4073 0.950 . S
H4045 C4074 0.950 . S
H4046 C4076 0.950 . S
H4047 C4077 0.950 . S
C4048 H4030 0.951 . S
C4048 C4049 1.366 . S
C4048 C4050 1.388 . S
C4049 C4048 1.366 . S
C4049 C4053 1.385 . S
C4050 H4031 0.951 . S
C4050 C4048 1.388 . S
C4050 C4051 1.366 . S
C4051 C4050 1.366 . S
C4051 C4052 1.414 . S
C4051 C4054 1.499 . S
C4052 H4032 0.950 . S
C4052 C4051 1.414 . S
C4052 C4053 1.374 . S
C4053 H4033 0.950 . S
C4053 C4049 1.385 . S
C4053 C4052 1.374 . S
C4054 C4051 1.499 . S
C4054 C4055 1.373 . S
C4054 C4056 1.389 . S
C4055 H4034 0.950 . S
C4055 C4054 1.373 . S
C4055 C4071 1.377 . S
C4056 C4054 1.389 . S
C4056 C4057 1.524 . S
C4056 C4070 1.377 . S
C4057 C4056 1.524 . S
C4057 C4058 1.397 . S
C4057 C4062 1.363 . S
C4058 H4035 0.950 . S
C4058 C4057 1.397 . S
C4058 C4059 1.334 . S
C4059 H4036 0.950 . S
C4059 C4058 1.334 . S
C4059 C4060 1.287 . S
C4060 C4059 1.287 . S
C4060 C4061 1.524 . S
C4060 H4079 0.913 . S
C4061 H4037 0.950 . S
C4061 C4060 1.524 . S
C4061 C4062 1.415 . S
C4062 H4038 0.950 . S
C4062 C4057 1.363 . S
C4062 C4061 1.415 . S
C4063 H4039 0.951 . S
C4063 C4064 1.366 . S
C4063 C4065 1.388 . S
C4064 C4063 1.366 . S
C4064 C4068 1.385 . S
C4065 H4040 0.951 . S
C4065 C4063 1.388 . S
C4065 C4066 1.366 . S
C4066 C4065 1.366 . S
C4066 C4067 1.414 . S
C4066 C4069 1.499 . S
C4067 H4041 0.950 . S
C4067 C4066 1.414 . S
C4067 C4068 1.374 . S
C4068 H4042 0.950 . S
C4068 C4064 1.385 . S
C4068 C4067 1.374 . S
C4069 C4066 1.499 . S
C4069 C4070 1.373 . S
C4069 C4071 1.389 . S
C4070 H4043 0.950 . S
C4070 C4056 1.377 . S
C4070 C4069 1.373 . S
C4071 C4055 1.377 . S
C4071 C4069 1.389 . S
C4071 C4072 1.524 . S
C4072 C4071 1.524 . S
C4072 C4073 1.397 . S
C4072 C4077 1.363 . S
C4073 H4044 0.950 . S
C4073 C4072 1.397 . S
C4073 C4074 1.334 . S
C4074 H4045 0.950 . S
C4074 C4073 1.334 . S
C4074 C4075 1.287 . S
C4075 C4074 1.287 . S
C4075 C4076 1.524 . S
C4075 H4078 0.999 . S
C4076 H4046 0.950 . S
C4076 C4075 1.524 . S
C4076 C4077 1.415 . S
C4077 H4047 0.950 . S
C4077 C4072 1.363 . S
C4077 C4076 1.415 . S
H4078 C4075 0.999 . S
H4079 C4060 0.913 . S
H4080 C4098 0.951 . S
H4081 C4100 0.951 . S
H4082 C4102 0.950 . S
H4083 C4103 0.950 . S
H4084 C4105 0.950 . S
H4085 C4108 0.950 . S
H4086 C4109 0.950 . S
H4087 C4111 0.950 . S
H4088 C4112 0.950 . S
H4089 C4113 0.951 . S
H4090 C4115 0.951 . S
H4091 C4117 0.950 . S
H4092 C4118 0.950 . S
H4093 C4120 0.950 . S
H4094 C4123 0.950 . S
H4095 C4124 0.950 . S
H4096 C4126 0.950 . S
H4097 C4127 0.950 . S
C4098 H4080 0.951 . S
C4098 C4099 1.366 . S
C4098 C4100 1.388 . S
C4099 C4098 1.366 . S
C4099 C4103 1.385 . S
C4100 H4081 0.951 . S
C4100 C4098 1.388 . S
C4100 C4101 1.366 . S
C4101 C4100 1.366 . S
C4101 C4102 1.414 . S
C4101 C4104 1.499 . S
C4102 H4082 0.950 . S
C4102 C4101 1.414 . S
C4102 C4103 1.374 . S
C4103 H4083 0.950 . S
C4103 C4099 1.385 . S
C4103 C4102 1.374 . S
C4104 C4101 1.499 . S
C4104 C4105 1.373 . S
C4104 C4106 1.389 . S
C4105 H4084 0.950 . S
C4105 C4104 1.373 . S
C4105 C4121 1.377 . S
C4106 C4104 1.389 . S
C4106 C4107 1.524 . S
C4106 C4120 1.377 . S
C4107 C4106 1.524 . S
C4107 C4108 1.397 . S
C4107 C4112 1.363 . S
C4108 H4085 0.950 . S
C4108 C4107 1.397 . S
C4108 C4109 1.334 . S
C4109 H4086 0.950 . S
C4109 C4108 1.334 . S
C4109 C4110 1.287 . S
C4110 C4109 1.287 . S
C4110 C4111 1.524 . S
C4110 H4129 0.913 . S
C4111 H4087 0.950 . S
C4111 C4110 1.524 . S
C4111 C4112 1.415 . S
C4112 H4088 0.950 . S
C4112 C4107 1.363 . S
C4112 C4111 1.415 . S
C4113 H4089 0.951 . S
C4113 C4114 1.366 . S
C4113 C4115 1.388 . S
C4114 C4113 1.366 . S
C4114 C4118 1.385 . S
C4115 H4090 0.951 . S
C4115 C4113 1.388 . S
C4115 C4116 1.366 . S
C4116 C4115 1.366 . S
C4116 C4117 1.414 . S
C4116 C4119 1.499 . S
C4117 H4091 0.950 . S
C4117 C4116 1.414 . S
C4117 C4118 1.374 . S
C4118 H4092 0.950 . S
C4118 C4114 1.385 . S
C4118 C4117 1.374 . S
C4119 C4116 1.499 . S
C4119 C4120 1.373 . S
C4119 C4121 1.389 . S
C4120 H4093 0.950 . S
C4120 C4106 1.377 . S
C4120 C4119 1.373 . S
C4121 C4105 1.377 . S
C4121 C4119 1.389 . S
C4121 C4122 1.524 . S
C4122 C4121 1.524 . S
C4122 C4123 1.397 . S
C4122 C4127 1.363 . S
C4123 H4094 0.950 . S
C4123 C4122 1.397 . S
C4123 C4124 1.334 . S
C4124 H4095 0.950 . S
C4124 C4123 1.334 . S
C4124 C4125 1.287 . S
C4125 C4124 1.287 . S
C4125 C4126 1.524 . S
C4125 H4128 0.999 . S
C4126 H4096 0.950 . S
C4126 C4125 1.524 . S
C4126 C4127 1.415 . S
C4127 H4097 0.950 . S
C4127 C4122 1.363 . S
C4127 C4126 1.415 . S
H4128 C4125 0.999 . S
H4129 C4110 0.913 . S
H4130 C4148 0.951 . S
H4131 C4150 0.951 . S
H4132 C4152 0.950 . S
H4133 C4153 0.950 . S
H4134 C4155 0.950 . S
H4135 C4158 0.950 . S
H4136 C4159 0.950 . S
H4137 C4161 0.950 . S
H4138 C4162 0.950 . S
H4139 C4163 0.951 . S
H4140 C4165 0.951 . S
H4141 C4167 0.950 . S
H4142 C4168 0.950 . S
H4143 C4170 0.950 . S
H4144 C4173 0.950 . S
H4145 C4174 0.950 . S
H4146 C4176 0.950 . S
H4147 C4177 0.950 . S
C4148 H4130 0.951 . S
C4148 C4149 1.366 . S
C4148 C4150 1.388 . S
C4149 C4148 1.366 . S
C4149 C4153 1.385 . S
C4150 H4131 0.951 . S
C4150 C4148 1.388 . S
C4150 C4151 1.366 . S
C4151 C4150 1.366 . S
C4151 C4152 1.414 . S
C4151 C4154 1.499 . S
C4152 H4132 0.950 . S
C4152 C4151 1.414 . S
C4152 C4153 1.374 . S
C4153 H4133 0.950 . S
C4153 C4149 1.385 . S
C4153 C4152 1.374 . S
C4154 C4151 1.499 . S
C4154 C4155 1.373 . S
C4154 C4156 1.389 . S
C4155 H4134 0.950 . S
C4155 C4154 1.373 . S
C4155 C4171 1.377 . S
C4156 C4154 1.389 . S
C4156 C4157 1.524 . S
C4156 C4170 1.377 . S
C4157 C4156 1.524 . S
C4157 C4158 1.397 . S
C4157 C4162 1.363 . S
C4158 H4135 0.950 . S
C4158 C4157 1.397 . S
C4158 C4159 1.334 . S
C4159 H4136 0.950 . S
C4159 C4158 1.334 . S
C4159 C4160 1.287 . S
C4160 C4159 1.287 . S
C4160 C4161 1.524 . S
C4160 H4179 0.913 . S
C4161 H4137 0.950 . S
C4161 C4160 1.524 . S
C4161 C4162 1.415 . S
C4162 H4138 0.950 . S
C4162 C4157 1.363 . S
C4162 C4161 1.415 . S
C4163 H4139 0.951 . S
C4163 C4164 1.366 . S
C4163 C4165 1.388 . S
C4164 C4163 1.366 . S
C4164 C4168 1.385 . S
C4165 H4140 0.951 . S
C4165 C4163 1.388 . S
C4165 C4166 1.366 . S
C4166 C4165 1.366 . S
C4166 C4167 1.414 . S
C4166 C4169 1.499 . S
C4167 H4141 0.950 . S
C4167 C4166 1.414 . S
C4167 C4168 1.374 . S
C4168 H4142 0.950 . S
C4168 C4164 1.385 . S
C4168 C4167 1.374 . S
C4169 C4166 1.499 . S
C4169 C4170 1.373 . S
C4169 C4171 1.389 . S
C4170 H4143 0.950 . S
C4170 C4156 1.377 . S
C4170 C4169 1.373 . S
C4171 C4155 1.377 . S
C4171 C4169 1.389 . S
C4171 C4172 1.524 . S
C4172 C4171 1.524 . S
C4172 C4173 1.397 . S
C4172 C4177 1.363 . S
C4173 H4144 0.950 . S
C4173 C4172 1.397 . S
C4173 C4174 1.334 . S
C4174 H4145 0.950 . S
C4174 C4173 1.334 . S
C4174 C4175 1.287 . S
C4175 C4174 1.287 . S
C4175 C4176 1.524 . S
C4175 H4178 0.999 . S
C4176 H4146 0.950 . S
C4176 C4175 1.524 . S
C4176 C4177 1.415 . S
C4177 H4147 0.950 . S
C4177 C4172 1.363 . S
C4177 C4176 1.415 . S
H4178 C4175 0.999 . S
H4179 C4160 0.913 . S
H4180 C4198 0.951 . S
H4181 C4200 0.951 . S
H4182 C4202 0.950 . S
H4183 C4203 0.950 . S
H4184 C4205 0.950 1_554 S
H4185 C4208 0.950 . S
H4186 C4209 0.950 . S
H4187 C4211 0.950 . S
H4188 C4212 0.950 . S
H4189 C4213 0.951 . S
H4190 C4215 0.951 . S
H4191 C4217 0.950 . S
H4192 C4218 0.950 . S
H4193 C4220 0.950 . S
H4194 C4223 0.950 . S
H4195 C4224 0.950 . S
H4196 C4226 0.950 . S
H4197 C4227 0.950 . S
C4198 H4180 0.951 . S
C4198 C4199 1.366 . S
C4198 C4200 1.388 . S
C4199 C4198 1.366 . S
C4199 C4203 1.385 . S
C4200 H4181 0.951 . S
C4200 C4198 1.388 . S
C4200 C4201 1.366 . S
C4201 C4200 1.366 . S
C4201 C4202 1.414 . S
C4201 C4204 1.499 . S
C4202 H4182 0.950 . S
C4202 C4201 1.414 . S
C4202 C4203 1.374 . S
C4203 H4183 0.950 . S
C4203 C4199 1.385 . S
C4203 C4202 1.374 . S
C4204 C4201 1.499 . S
C4204 C4205 1.373 . S
C4204 C4206 1.389 . S
C4205 H4184 0.950 1_556 S
C4205 C4204 1.373 . S
C4205 C4221 1.377 1_556 S
C4206 C4204 1.389 . S
C4206 C4207 1.524 . S
C4206 C4220 1.377 . S
C4207 C4206 1.524 . S
C4207 C4208 1.397 . S
C4207 C4212 1.363 1_455 S
C4208 H4185 0.950 . S
C4208 C4207 1.397 . S
C4208 C4209 1.334 . S
C4209 H4186 0.950 . S
C4209 C4208 1.334 . S
C4209 C4210 1.287 1_455 S
C4210 C4209 1.287 1_655 S
C4210 C4211 1.524 . S
C4210 H4229 0.913 . S
C4211 H4187 0.950 . S
C4211 C4210 1.524 . S
C4211 C4212 1.415 . S
C4212 H4188 0.950 . S
C4212 C4207 1.363 1_655 S
C4212 C4211 1.415 . S
C4213 H4189 0.951 . S
C4213 C4214 1.366 . S
C4213 C4215 1.388 . S
C4214 C4213 1.366 . S
C4214 C4218 1.385 . S
C4215 H4190 0.951 . S
C4215 C4213 1.388 . S
C4215 C4216 1.366 . S
C4216 C4215 1.366 . S
C4216 C4217 1.414 . S
C4216 C4219 1.499 . S
C4217 H4191 0.950 . S
C4217 C4216 1.414 . S
C4217 C4218 1.374 . S
C4218 H4192 0.950 . S
C4218 C4214 1.385 . S
C4218 C4217 1.374 . S
C4219 C4216 1.499 . S
C4219 C4220 1.373 1_554 S
C4219 C4221 1.389 . S
C4220 H4193 0.950 . S
C4220 C4206 1.377 . S
C4220 C4219 1.373 1_556 S
C4221 C4205 1.377 1_554 S
C4221 C4219 1.389 . S
C4221 C4222 1.524 . S
C4222 C4221 1.524 . S
C4222 C4223 1.397 . S
C4222 C4227 1.363 . S
C4223 H4194 0.950 . S
C4223 C4222 1.397 . S
C4223 C4224 1.334 . S
C4224 H4195 0.950 . S
C4224 C4223 1.334 . S
C4224 C4225 1.287 . S
C4225 C4224 1.287 . S
C4225 C4226 1.524 . S
C4225 H4228 0.999 . S
C4226 H4196 0.950 . S
C4226 C4225 1.524 . S
C4226 C4227 1.415 . S
C4227 H4197 0.950 . S
C4227 C4222 1.363 . S
C4227 C4226 1.415 . S
H4228 C4225 0.999 . S
H4229 C4210 0.913 . S
H4230 C4248 0.951 . S
H4231 C4250 0.951 . S
H4232 C4252 0.950 . S
H4233 C4253 0.950 . S
H4234 C4255 0.950 . S
H4235 C4258 0.950 . S
H4236 C4259 0.950 . S
H4237 C4261 0.950 . S
H4238 C4262 0.950 . S
H4239 C4263 0.951 . S
H4240 C4265 0.951 . S
H4241 C4267 0.950 . S
H4242 C4268 0.950 . S
H4243 C4270 0.950 . S
H4244 C4273 0.950 . S
H4245 C4274 0.950 . S
H4246 C4276 0.950 . S
H4247 C4277 0.950 . S
C4248 H4230 0.951 . S
C4248 C4249 1.366 . S
C4248 C4250 1.388 . S
C4249 C4248 1.366 . S
C4249 C4253 1.385 . S
C4250 H4231 0.951 . S
C4250 C4248 1.388 . S
C4250 C4251 1.366 1_455 S
C4251 C4250 1.366 1_655 S
C4251 C4252 1.414 . S
C4251 C4254 1.499 . S
C4252 H4232 0.950 . S
C4252 C4251 1.414 . S
C4252 C4253 1.374 1_655 S
C4253 H4233 0.950 . S
C4253 C4249 1.385 . S
C4253 C4252 1.374 1_455 S
C4254 C4251 1.499 . S
C4254 C4255 1.373 . S
C4254 C4256 1.389 . S
C4255 H4234 0.950 . S
C4255 C4254 1.373 . S
C4255 C4271 1.377 . S
C4256 C4254 1.389 . S
C4256 C4257 1.524 . S
C4256 C4270 1.377 . S
C4257 C4256 1.524 . S
C4257 C4258 1.397 . S
C4257 C4262 1.363 . S
C4258 H4235 0.950 . S
C4258 C4257 1.397 . S
C4258 C4259 1.334 . S
C4259 H4236 0.950 . S
C4259 C4258 1.334 . S
C4259 C4260 1.287 . S
C4260 C4259 1.287 . S
C4260 C4261 1.524 . S
C4260 H4279 0.913 . S
C4261 H4237 0.950 . S
C4261 C4260 1.524 . S
C4261 C4262 1.415 . S
C4262 H4238 0.950 . S
C4262 C4257 1.363 . S
C4262 C4261 1.415 . S
C4263 H4239 0.951 . S
C4263 C4264 1.366 . S
C4263 C4265 1.388 . S
C4264 C4263 1.366 . S
C4264 C4268 1.385 . S
C4265 H4240 0.951 . S
C4265 C4263 1.388 . S
C4265 C4266 1.366 . S
C4266 C4265 1.366 . S
C4266 C4267 1.414 . S
C4266 C4269 1.499 . S
C4267 H4241 0.950 . S
C4267 C4266 1.414 . S
C4267 C4268 1.374 . S
C4268 H4242 0.950 . S
C4268 C4264 1.385 . S
C4268 C4267 1.374 . S
C4269 C4266 1.499 . S
C4269 C4270 1.373 . S
C4269 C4271 1.389 . S
C4270 H4243 0.950 . S
C4270 C4256 1.377 . S
C4270 C4269 1.373 . S
C4271 C4255 1.377 . S
C4271 C4269 1.389 . S
C4271 C4272 1.524 . S
C4272 C4271 1.524 . S
C4272 C4273 1.397 . S
C4272 C4277 1.363 . S
C4273 H4244 0.950 . S
C4273 C4272 1.397 . S
C4273 C4274 1.334 . S
C4274 H4245 0.950 . S
C4274 C4273 1.334 . S
C4274 C4275 1.287 . S
C4275 C4274 1.287 . S
C4275 C4276 1.524 . S
C4275 H4278 0.999 . S
C4276 H4246 0.950 . S
C4276 C4275 1.524 . S
C4276 C4277 1.415 . S
C4277 H4247 0.950 . S
C4277 C4272 1.363 . S
C4277 C4276 1.415 . S
H4278 C4275 0.999 . S
H4279 C4260 0.913 . S
H4280 C4298 0.951 . S
H4281 C4300 0.951 . S
H4282 C4302 0.950 . S
H4283 C4303 0.950 . S
H4284 C4305 0.950 . S
H4285 C4308 0.950 . S
H4286 C4309 0.950 . S
H4287 C4311 0.950 . S
H4288 C4312 0.950 . S
H4289 C4313 0.951 . S
H4290 C4315 0.951 . S
H4291 C4317 0.950 . S
H4292 C4318 0.950 . S
H4293 C4320 0.950 . S
H4294 C4323 0.950 . S
H4295 C4324 0.950 . S
H4296 C4326 0.950 . S
H4297 C4327 0.950 . S
C4298 H4280 0.951 . S
C4298 C4299 1.366 . S
C4298 C4300 1.388 . S
C4299 C4298 1.366 . S
C4299 C4303 1.385 . S
C4300 H4281 0.951 . S
C4300 C4298 1.388 . S
C4300 C4301 1.366 . S
C4301 C4300 1.366 . S
C4301 C4302 1.414 . S
C4301 C4304 1.499 . S
C4302 H4282 0.950 . S
C4302 C4301 1.414 . S
C4302 C4303 1.374 . S
C4303 H4283 0.950 . S
C4303 C4299 1.385 . S
C4303 C4302 1.374 . S
C4304 C4301 1.499 . S
C4304 C4305 1.373 . S
C4304 C4306 1.389 . S
C4305 H4284 0.950 . S
C4305 C4304 1.373 . S
C4305 C4321 1.377 . S
C4306 C4304 1.389 . S
C4306 C4307 1.524 . S
C4306 C4320 1.377 . S
C4307 C4306 1.524 . S
C4307 C4308 1.397 . S
C4307 C4312 1.363 . S
C4308 H4285 0.950 . S
C4308 C4307 1.397 . S
C4308 C4309 1.334 . S
C4309 H4286 0.950 . S
C4309 C4308 1.334 . S
C4309 C4310 1.287 . S
C4310 C4309 1.287 . S
C4310 C4311 1.524 . S
C4310 H4329 0.913 . S
C4311 H4287 0.950 . S
C4311 C4310 1.524 . S
C4311 C4312 1.415 . S
C4312 H4288 0.950 . S
C4312 C4307 1.363 . S
C4312 C4311 1.415 . S
C4313 H4289 0.951 . S
C4313 C4314 1.366 . S
C4313 C4315 1.388 . S
C4314 C4313 1.366 . S
C4314 C4318 1.385 . S
C4315 H4290 0.951 . S
C4315 C4313 1.388 . S
C4315 C4316 1.366 . S
C4316 C4315 1.366 . S
C4316 C4317 1.414 . S
C4316 C4319 1.499 . S
C4317 H4291 0.950 . S
C4317 C4316 1.414 . S
C4317 C4318 1.374 . S
C4318 H4292 0.950 . S
C4318 C4314 1.385 . S
C4318 C4317 1.374 . S
C4319 C4316 1.499 . S
C4319 C4320 1.373 . S
C4319 C4321 1.389 . S
C4320 H4293 0.950 . S
C4320 C4306 1.377 . S
C4320 C4319 1.373 . S
C4321 C4305 1.377 . S
C4321 C4319 1.389 . S
C4321 C4322 1.524 . S
C4322 C4321 1.524 . S
C4322 C4323 1.397 . S
C4322 C4327 1.363 . S
C4323 H4294 0.950 . S
C4323 C4322 1.397 . S
C4323 C4324 1.334 . S
C4324 H4295 0.950 . S
C4324 C4323 1.334 . S
C4324 C4325 1.287 . S
C4325 C4324 1.287 . S
C4325 C4326 1.524 . S
C4325 H4328 0.999 . S
C4326 H4296 0.950 . S
C4326 C4325 1.524 . S
C4326 C4327 1.415 . S
C4327 H4297 0.950 . S
C4327 C4322 1.363 . S
C4327 C4326 1.415 . S
H4328 C4325 0.999 . S
H4329 C4310 0.913 . S
H4330 C4348 0.951 . S
H4331 C4350 0.951 . S
H4332 C4352 0.950 . S
H4333 C4353 0.950 . S
H4334 C4355 0.950 . S
H4335 C4358 0.950 1_455 S
H4336 C4359 0.950 1_455 S
H4337 C4361 0.950 . S
H4338 C4362 0.950 . S
H4339 C4363 0.951 . S
H4340 C4365 0.951 . S
H4341 C4367 0.950 . S
H4342 C4368 0.950 . S
H4343 C4370 0.950 . S
H4344 C4373 0.950 . S
H4345 C4374 0.950 . S
H4346 C4376 0.950 1_455 S
H4347 C4377 0.950 1_455 S
C4348 H4330 0.951 . S
C4348 C4349 1.366 . S
C4348 C4350 1.388 . S
C4349 C4348 1.366 . S
C4349 C4353 1.385 . S
C4350 H4331 0.951 . S
C4350 C4348 1.388 . S
C4350 C4351 1.366 . S
C4351 C4350 1.366 . S
C4351 C4352 1.414 . S
C4351 C4354 1.499 . S
C4352 H4332 0.950 . S
C4352 C4351 1.414 . S
C4352 C4353 1.374 . S
C4353 H4333 0.950 . S
C4353 C4349 1.385 . S
C4353 C4352 1.374 . S
C4354 C4351 1.499 . S
C4354 C4355 1.373 . S
C4354 C4356 1.389 1_455 S
C4355 H4334 0.950 . S
C4355 C4354 1.373 . S
C4355 C4371 1.377 1_455 S
C4356 C4354 1.389 1_655 S
C4356 C4357 1.524 . S
C4356 C4370 1.377 . S
C4357 C4356 1.524 . S
C4357 C4358 1.397 . S
C4357 C4362 1.363 . S
C4358 H4335 0.950 1_655 S
C4358 C4357 1.397 . S
C4358 C4359 1.334 . S
C4359 H4336 0.950 1_655 S
C4359 C4358 1.334 . S
C4359 C4360 1.287 . S
C4360 C4359 1.287 . S
C4360 C4361 1.524 . S
C4360 H4379 0.913 . S
C4361 H4337 0.950 . S
C4361 C4360 1.524 . S
C4361 C4362 1.415 . S
C4362 H4338 0.950 . S
C4362 C4357 1.363 . S
C4362 C4361 1.415 . S
C4363 H4339 0.951 . S
C4363 C4364 1.366 . S
C4363 C4365 1.388 . S
C4364 C4363 1.366 . S
C4364 C4368 1.385 . S
C4365 H4340 0.951 . S
C4365 C4363 1.388 . S
C4365 C4366 1.366 . S
C4366 C4365 1.366 . S
C4366 C4367 1.414 . S
C4366 C4369 1.499 . S
C4367 H4341 0.950 . S
C4367 C4366 1.414 . S
C4367 C4368 1.374 . S
C4368 H4342 0.950 . S
C4368 C4364 1.385 . S
C4368 C4367 1.374 . S
C4369 C4366 1.499 . S
C4369 C4370 1.373 . S
C4369 C4371 1.389 . S
C4370 H4343 0.950 . S
C4370 C4356 1.377 . S
C4370 C4369 1.373 . S
C4371 C4355 1.377 1_655 S
C4371 C4369 1.389 . S
C4371 C4372 1.524 . S
C4372 C4371 1.524 . S
C4372 C4373 1.397 . S
C4372 C4377 1.363 . S
C4373 H4344 0.950 . S
C4373 C4372 1.397 . S
C4373 C4374 1.334 . S
C4374 H4345 0.950 . S
C4374 C4373 1.334 . S
C4374 C4375 1.287 . S
C4375 C4374 1.287 . S
C4375 C4376 1.524 . S
C4375 H4378 0.999 . S
C4376 H4346 0.950 1_655 S
C4376 C4375 1.524 . S
C4376 C4377 1.415 . S
C4377 H4347 0.950 1_655 S
C4377 C4372 1.363 . S
C4377 C4376 1.415 . S
H4378 C4375 0.999 . S
H4379 C4360 0.913 . S
H4380 C4398 0.951 . S
H4381 C4400 0.951 . S
H4382 C4402 0.950 . S
H4383 C4403 0.950 . S
H4384 C4405 0.950 . S
H4385 C4408 0.950 1_655 S
H4386 C4409 0.950 . S
H4387 C4411 0.950 . S
H4388 C4412 0.950 . S
H4389 C4413 0.951 . S
H4390 C4415 0.951 . S
H4391 C4417 0.950 . S
H4392 C4418 0.950 . S
H4393 C4420 0.950 . S
H4394 C4423 0.950 . S
H4395 C4424 0.950 . S
H4396 C4426 0.950 . S
H4397 C4427 0.950 . S
C4398 H4380 0.951 . S
C4398 C4399 1.366 1_455 S
C4398 C4400 1.388 . S
C4399 C4398 1.366 1_655 S
C4399 C4403 1.385 . S
C4400 H4381 0.951 . S
C4400 C4398 1.388 . S
C4400 C4401 1.366 . S
C4401 C4400 1.366 . S
C4401 C4402 1.414 1_455 S
C4401 C4404 1.499 . S
C4402 H4382 0.950 . S
C4402 C4401 1.414 1_655 S
C4402 C4403 1.374 . S
C4403 H4383 0.950 . S
C4403 C4399 1.385 . S
C4403 C4402 1.374 . S
C4404 C4401 1.499 . S
C4404 C4405 1.373 . S
C4404 C4406 1.389 . S
C4405 H4384 0.950 . S
C4405 C4404 1.373 . S
C4405 C4421 1.377 . S
C4406 C4404 1.389 . S
C4406 C4407 1.524 . S
C4406 C4420 1.377 . S
C4407 C4406 1.524 . S
C4407 C4408 1.397 . S
C4407 C4412 1.363 . S
C4408 H4385 0.950 1_455 S
C4408 C4407 1.397 . S
C4408 C4409 1.334 . S
C4409 H4386 0.950 . S
C4409 C4408 1.334 . S
C4409 C4410 1.287 . S
C4410 C4409 1.287 . S
C4410 C4411 1.524 . S
C4410 H4429 0.913 . S
C4411 H4387 0.950 . S
C4411 C4410 1.524 . S
C4411 C4412 1.415 . S
C4412 H4388 0.950 . S
C4412 C4407 1.363 . S
C4412 C4411 1.415 . S
C4413 H4389 0.951 . S
C4413 C4414 1.366 . S
C4413 C4415 1.388 . S
C4414 C4413 1.366 . S
C4414 C4418 1.385 . S
C4415 H4390 0.951 . S
C4415 C4413 1.388 . S
C4415 C4416 1.366 . S
C4416 C4415 1.366 . S
C4416 C4417 1.414 . S
C4416 C4419 1.499 . S
C4417 H4391 0.950 . S
C4417 C4416 1.414 . S
C4417 C4418 1.374 . S
C4418 H4392 0.950 . S
C4418 C4414 1.385 . S
C4418 C4417 1.374 . S
C4419 C4416 1.499 . S
C4419 C4420 1.373 . S
C4419 C4421 1.389 . S
C4420 H4393 0.950 . S
C4420 C4406 1.377 . S
C4420 C4419 1.373 . S
C4421 C4405 1.377 . S
C4421 C4419 1.389 . S
C4421 C4422 1.524 . S
C4422 C4421 1.524 . S
C4422 C4423 1.397 . S
C4422 C4427 1.363 1_455 S
C4423 H4394 0.950 . S
C4423 C4422 1.397 . S
C4423 C4424 1.334 . S
C4424 H4395 0.950 . S
C4424 C4423 1.334 . S
C4424 C4425 1.287 . S
C4425 C4424 1.287 . S
C4425 C4426 1.524 1_455 S
C4425 H4428 0.999 . S
C4426 H4396 0.950 . S
C4426 C4425 1.524 1_655 S
C4426 C4427 1.415 . S
C4427 H4397 0.950 . S
C4427 C4422 1.363 1_655 S
C4427 C4426 1.415 . S
H4428 C4425 0.999 . S
H4429 C4410 0.913 . S
H4430 C4448 0.951 . S
H4431 C4450 0.951 . S
H4432 C4452 0.950 . S
H4433 C4453 0.950 . S
H4434 C4455 0.950 . S
H4435 C4458 0.950 . S
H4436 C4459 0.950 . S
H4437 C4461 0.950 . S
H4438 C4462 0.950 . S
H4439 C4463 0.951 . S
H4440 C4465 0.951 . S
H4441 C4467 0.950 . S
H4442 C4468 0.950 . S
H4443 C4470 0.950 . S
H4444 C4473 0.950 . S
H4445 C4474 0.950 . S
H4446 C4476 0.950 . S
H4447 C4477 0.950 . S
C4448 H4430 0.951 . S
C4448 C4449 1.366 . S
C4448 C4450 1.388 . S
C4449 C4448 1.366 . S
C4449 C4453 1.385 . S
C4450 H4431 0.951 . S
C4450 C4448 1.388 . S
C4450 C4451 1.366 . S
C4451 C4450 1.366 . S
C4451 C4452 1.414 . S
C4451 C4454 1.499 . S
C4452 H4432 0.950 . S
C4452 C4451 1.414 . S
C4452 C4453 1.374 . S
C4453 H4433 0.950 . S
C4453 C4449 1.385 . S
C4453 C4452 1.374 . S
C4454 C4451 1.499 . S
C4454 C4455 1.373 . S
C4454 C4456 1.389 . S
C4455 H4434 0.950 . S
C4455 C4454 1.373 . S
C4455 C4471 1.377 . S
C4456 C4454 1.389 . S
C4456 C4457 1.524 . S
C4456 C4470 1.377 . S
C4457 C4456 1.524 . S
C4457 C4458 1.397 . S
C4457 C4462 1.363 . S
C4458 H4435 0.950 . S
C4458 C4457 1.397 . S
C4458 C4459 1.334 . S
C4459 H4436 0.950 . S
C4459 C4458 1.334 . S
C4459 C4460 1.287 . S
C4460 C4459 1.287 . S
C4460 C4461 1.524 . S
C4460 H4479 0.913 . S
C4461 H4437 0.950 . S
C4461 C4460 1.524 . S
C4461 C4462 1.415 . S
C4462 H4438 0.950 . S
C4462 C4457 1.363 . S
C4462 C4461 1.415 . S
C4463 H4439 0.951 . S
C4463 C4464 1.366 . S
C4463 C4465 1.388 . S
C4464 C4463 1.366 . S
C4464 C4468 1.385 . S
C4465 H4440 0.951 . S
C4465 C4463 1.388 . S
C4465 C4466 1.366 . S
C4466 C4465 1.366 . S
C4466 C4467 1.414 . S
C4466 C4469 1.499 . S
C4467 H4441 0.950 . S
C4467 C4466 1.414 . S
C4467 C4468 1.374 . S
C4468 H4442 0.950 . S
C4468 C4464 1.385 . S
C4468 C4467 1.374 . S
C4469 C4466 1.499 . S
C4469 C4470 1.373 . S
C4469 C4471 1.389 . S
C4470 H4443 0.950 . S
C4470 C4456 1.377 . S
C4470 C4469 1.373 . S
C4471 C4455 1.377 . S
C4471 C4469 1.389 . S
C4471 C4472 1.524 . S
C4472 C4471 1.524 . S
C4472 C4473 1.397 . S
C4472 C4477 1.363 . S
C4473 H4444 0.950 . S
C4473 C4472 1.397 . S
C4473 C4474 1.334 . S
C4474 H4445 0.950 . S
C4474 C4473 1.334 . S
C4474 C4475 1.287 . S
C4475 C4474 1.287 . S
C4475 C4476 1.524 . S
C4475 H4478 0.999 . S
C4476 H4446 0.950 . S
C4476 C4475 1.524 . S
C4476 C4477 1.415 . S
C4477 H4447 0.950 . S
C4477 C4472 1.363 . S
C4477 C4476 1.415 . S
H4478 C4475 0.999 . S
H4479 C4460 0.913 . S
H4480 C4498 0.951 . S
H4481 C4500 0.951 . S
H4482 C4502 0.950 . S
H4483 C4503 0.950 . S
H4484 C4505 0.950 . S
H4485 C4508 0.950 . S
H4486 C4509 0.950 . S
H4487 C4511 0.950 . S
H4488 C4512 0.950 . S
H4489 C4513 0.951 . S
H4490 C4515 0.951 . S
H4491 C4517 0.950 . S
H4492 C4518 0.950 . S
H4493 C4520 0.950 . S
H4494 C4523 0.950 . S
H4495 C4524 0.950 . S
H4496 C4526 0.950 . S
H4497 C4527 0.950 . S
C4498 H4480 0.951 . S
C4498 C4499 1.366 . S
C4498 C4500 1.388 . S
C4499 C4498 1.366 . S
C4499 C4503 1.385 . S
C4500 H4481 0.951 . S
C4500 C4498 1.388 . S
C4500 C4501 1.366 . S
C4501 C4500 1.366 . S
C4501 C4502 1.414 . S
C4501 C4504 1.499 . S
C4502 H4482 0.950 . S
C4502 C4501 1.414 . S
C4502 C4503 1.374 . S
C4503 H4483 0.950 . S
C4503 C4499 1.385 . S
C4503 C4502 1.374 . S
C4504 C4501 1.499 . S
C4504 C4505 1.373 . S
C4504 C4506 1.389 . S
C4505 H4484 0.950 . S
C4505 C4504 1.373 . S
C4505 C4521 1.377 . S
C4506 C4504 1.389 . S
C4506 C4507 1.524 . S
C4506 C4520 1.377 . S
C4507 C4506 1.524 . S
C4507 C4508 1.397 . S
C4507 C4512 1.363 . S
C4508 H4485 0.950 . S
C4508 C4507 1.397 . S
C4508 C4509 1.334 . S
C4509 H4486 0.950 . S
C4509 C4508 1.334 . S
C4509 C4510 1.287 . S
C4510 C4509 1.287 . S
C4510 C4511 1.524 . S
C4510 H4529 0.913 . S
C4511 H4487 0.950 . S
C4511 C4510 1.524 . S
C4511 C4512 1.415 . S
C4512 H4488 0.950 . S
C4512 C4507 1.363 . S
C4512 C4511 1.415 . S
C4513 H4489 0.951 . S
C4513 C4514 1.366 . S
C4513 C4515 1.388 . S
C4514 C4513 1.366 . S
C4514 C4518 1.385 . S
C4515 H4490 0.951 . S
C4515 C4513 1.388 . S
C4515 C4516 1.366 . S
C4516 C4515 1.366 . S
C4516 C4517 1.414 . S
C4516 C4519 1.499 . S
C4517 H4491 0.950 . S
C4517 C4516 1.414 . S
C4517 C4518 1.374 . S
C4518 H4492 0.950 . S
C4518 C4514 1.385 . S
C4518 C4517 1.374 . S
C4519 C4516 1.499 . S
C4519 C4520 1.373 . S
C4519 C4521 1.389 . S
C4520 H4493 0.950 . S
C4520 C4506 1.377 . S
C4520 C4519 1.373 . S
C4521 C4505 1.377 . S
C4521 C4519 1.389 . S
C4521 C4522 1.524 . S
C4522 C4521 1.524 . S
C4522 C4523 1.397 . S
C4522 C4527 1.363 . S
C4523 H4494 0.950 . S
C4523 C4522 1.397 . S
C4523 C4524 1.334 . S
C4524 H4495 0.950 . S
C4524 C4523 1.334 . S
C4524 C4525 1.287 . S
C4525 C4524 1.287 . S
C4525 C4526 1.524 . S
C4525 H4528 0.999 . S
C4526 H4496 0.950 . S
C4526 C4525 1.524 . S
C4526 C4527 1.415 . S
C4527 H4497 0.950 . S
C4527 C4522 1.363 . S
C4527 C4526 1.415 . S
H4528 C4525 0.999 . S
H4529 C4510 0.913 . S
H4530 C4548 0.951 . S
H4531 C4550 0.951 . S
H4532 C4552 0.950 . S
H4533 C4553 0.950 . S
H4534 C4555 0.950 . S
H4535 C4558 0.950 . S
H4536 C4559 0.950 . S
H4537 C4561 0.950 . S
H4538 C4562 0.950 . S
H4539 C4563 0.951 . S
H4540 C4565 0.951 . S
H4541 C4567 0.950 . S
H4542 C4568 0.950 . S
H4543 C4570 0.950 . S
H4544 C4573 0.950 . S
H4545 C4574 0.950 . S
H4546 C4576 0.950 . S
H4547 C4577 0.950 . S
C4548 H4530 0.951 . S
C4548 C4549 1.366 . S
C4548 C4550 1.388 . S
C4549 C4548 1.366 . S
C4549 C4553 1.385 . S
C4550 H4531 0.951 . S
C4550 C4548 1.388 . S
C4550 C4551 1.366 . S
C4551 C4550 1.366 . S
C4551 C4552 1.414 . S
C4551 C4554 1.499 . S
C4552 H4532 0.950 . S
C4552 C4551 1.414 . S
C4552 C4553 1.374 . S
C4553 H4533 0.950 . S
C4553 C4549 1.385 . S
C4553 C4552 1.374 . S
C4554 C4551 1.499 . S
C4554 C4555 1.373 . S
C4554 C4556 1.389 . S
C4555 H4534 0.950 . S
C4555 C4554 1.373 . S
C4555 C4571 1.377 . S
C4556 C4554 1.389 . S
C4556 C4557 1.524 . S
C4556 C4570 1.377 . S
C4557 C4556 1.524 . S
C4557 C4558 1.397 . S
C4557 C4562 1.363 . S
C4558 H4535 0.950 . S
C4558 C4557 1.397 . S
C4558 C4559 1.334 . S
C4559 H4536 0.950 . S
C4559 C4558 1.334 . S
C4559 C4560 1.287 . S
C4560 C4559 1.287 . S
C4560 C4561 1.524 . S
C4560 H4579 0.913 . S
C4561 H4537 0.950 . S
C4561 C4560 1.524 . S
C4561 C4562 1.415 . S
C4562 H4538 0.950 . S
C4562 C4557 1.363 . S
C4562 C4561 1.415 . S
C4563 H4539 0.951 . S
C4563 C4564 1.366 . S
C4563 C4565 1.388 . S
C4564 C4563 1.366 . S
C4564 C4568 1.385 . S
C4565 H4540 0.951 . S
C4565 C4563 1.388 . S
C4565 C4566 1.366 . S
C4566 C4565 1.366 . S
C4566 C4567 1.414 . S
C4566 C4569 1.499 . S
C4567 H4541 0.950 . S
C4567 C4566 1.414 . S
C4567 C4568 1.374 . S
C4568 H4542 0.950 . S
C4568 C4564 1.385 . S
C4568 C4567 1.374 . S
C4569 C4566 1.499 . S
C4569 C4570 1.373 . S
C4569 C4571 1.389 . S
C4570 H4543 0.950 . S
C4570 C4556 1.377 . S
C4570 C4569 1.373 . S
C4571 C4555 1.377 . S
C4571 C4569 1.389 . S
C4571 C4572 1.524 . S
C4572 C4571 1.524 . S
C4572 C4573 1.397 . S
C4572 C4577 1.363 . S
C4573 H4544 0.950 . S
C4573 C4572 1.397 . S
C4573 C4574 1.334 . S
C4574 H4545 0.950 . S
C4574 C4573 1.334 . S
C4574 C4575 1.287 . S
C4575 C4574 1.287 . S
C4575 C4576 1.524 . S
C4575 H4578 0.999 . S
C4576 H4546 0.950 . S
C4576 C4575 1.524 . S
C4576 C4577 1.415 . S
C4577 H4547 0.950 . S
C4577 C4572 1.363 . S
C4577 C4576 1.415 . S
H4578 C4575 0.999 . S
H4579 C4560 0.913 . S
H4580 C4598 0.951 . S
H4581 C4600 0.951 . S
H4582 C4602 0.950 . S
H4583 C4603 0.950 . S
H4584 C4605 0.950 . S
H4585 C4608 0.950 . S
H4586 C4609 0.950 . S
H4587 C4611 0.950 . S
H4588 C4612 0.950 . S
H4589 C4613 0.951 . S
H4590 C4615 0.951 . S
H4591 C4617 0.950 . S
H4592 C4618 0.950 . S
H4593 C4620 0.950 . S
H4594 C4623 0.950 . S
H4595 C4624 0.950 . S
H4596 C4626 0.950 . S
H4597 C4627 0.950 . S
C4598 H4580 0.951 . S
C4598 C4599 1.366 . S
C4598 C4600 1.388 . S
C4599 C4598 1.366 . S
C4599 C4603 1.385 . S
C4600 H4581 0.951 . S
C4600 C4598 1.388 . S
C4600 C4601 1.366 . S
C4601 C4600 1.366 . S
C4601 C4602 1.414 . S
C4601 C4604 1.499 . S
C4602 H4582 0.950 . S
C4602 C4601 1.414 . S
C4602 C4603 1.374 . S
C4603 H4583 0.950 . S
C4603 C4599 1.385 . S
C4603 C4602 1.374 . S
C4604 C4601 1.499 . S
C4604 C4605 1.373 . S
C4604 C4606 1.389 . S
C4605 H4584 0.950 . S
C4605 C4604 1.373 . S
C4605 C4621 1.377 . S
C4606 C4604 1.389 . S
C4606 C4607 1.524 . S
C4606 C4620 1.377 . S
C4607 C4606 1.524 . S
C4607 C4608 1.397 . S
C4607 C4612 1.363 . S
C4608 H4585 0.950 . S
C4608 C4607 1.397 . S
C4608 C4609 1.334 . S
C4609 H4586 0.950 . S
C4609 C4608 1.334 . S
C4609 C4610 1.287 . S
C4610 C4609 1.287 . S
C4610 C4611 1.524 . S
C4610 H4629 0.913 . S
C4611 H4587 0.950 . S
C4611 C4610 1.524 . S
C4611 C4612 1.415 . S
C4612 H4588 0.950 . S
C4612 C4607 1.363 . S
C4612 C4611 1.415 . S
C4613 H4589 0.951 . S
C4613 C4614 1.366 . S
C4613 C4615 1.388 . S
C4614 C4613 1.366 . S
C4614 C4618 1.385 . S
C4615 H4590 0.951 . S
C4615 C4613 1.388 . S
C4615 C4616 1.366 . S
C4616 C4615 1.366 . S
C4616 C4617 1.414 . S
C4616 C4619 1.499 . S
C4617 H4591 0.950 . S
C4617 C4616 1.414 . S
C4617 C4618 1.374 . S
C4618 H4592 0.950 . S
C4618 C4614 1.385 . S
C4618 C4617 1.374 . S
C4619 C4616 1.499 . S
C4619 C4620 1.373 . S
C4619 C4621 1.389 . S
C4620 H4593 0.950 . S
C4620 C4606 1.377 . S
C4620 C4619 1.373 . S
C4621 C4605 1.377 . S
C4621 C4619 1.389 . S
C4621 C4622 1.524 . S
C4622 C4621 1.524 . S
C4622 C4623 1.397 . S
C4622 C4627 1.363 . S
C4623 H4594 0.950 . S
C4623 C4622 1.397 . S
C4623 C4624 1.334 . S
C4624 H4595 0.950 . S
C4624 C4623 1.334 . S
C4624 C4625 1.287 . S
C4625 C4624 1.287 . S
C4625 C4626 1.524 . S
C4625 H4628 0.999 . S
C4626 H4596 0.950 . S
C4626 C4625 1.524 . S
C4626 C4627 1.415 . S
C4627 H4597 0.950 . S
C4627 C4622 1.363 . S
C4627 C4626 1.415 . S
H4628 C4625 0.999 . S
H4629 C4610 0.913 . S
H4630 C4648 0.951 . S
H4631 C4650 0.951 . S
H4632 C4652 0.950 . S
H4633 C4653 0.950 . S
H4634 C4655 0.950 . S
H4635 C4658 0.950 . S
H4636 C4659 0.950 . S
H4637 C4661 0.950 . S
H4638 C4662 0.950 . S
H4639 C4663 0.951 . S
H4640 C4665 0.951 . S
H4641 C4667 0.950 . S
H4642 C4668 0.950 . S
H4643 C4670 0.950 . S
H4644 C4673 0.950 . S
H4645 C4674 0.950 . S
H4646 C4676 0.950 . S
H4647 C4677 0.950 . S
C4648 H4630 0.951 . S
C4648 C4649 1.366 . S
C4648 C4650 1.388 . S
C4649 C4648 1.366 . S
C4649 C4653 1.385 . S
C4650 H4631 0.951 . S
C4650 C4648 1.388 . S
C4650 C4651 1.366 . S
C4651 C4650 1.366 . S
C4651 C4652 1.414 . S
C4651 C4654 1.499 . S
C4652 H4632 0.950 . S
C4652 C4651 1.414 . S
C4652 C4653 1.374 . S
C4653 H4633 0.950 . S
C4653 C4649 1.385 . S
C4653 C4652 1.374 . S
C4654 C4651 1.499 . S
C4654 C4655 1.373 . S
C4654 C4656 1.389 . S
C4655 H4634 0.950 . S
C4655 C4654 1.373 . S
C4655 C4671 1.377 . S
C4656 C4654 1.389 . S
C4656 C4657 1.524 . S
C4656 C4670 1.377 . S
C4657 C4656 1.524 . S
C4657 C4658 1.397 . S
C4657 C4662 1.363 . S
C4658 H4635 0.950 . S
C4658 C4657 1.397 . S
C4658 C4659 1.334 . S
C4659 H4636 0.950 . S
C4659 C4658 1.334 . S
C4659 C4660 1.287 . S
C4660 C4659 1.287 . S
C4660 C4661 1.524 . S
C4660 H4679 0.913 . S
C4661 H4637 0.950 . S
C4661 C4660 1.524 . S
C4661 C4662 1.415 . S
C4662 H4638 0.950 . S
C4662 C4657 1.363 . S
C4662 C4661 1.415 . S
C4663 H4639 0.951 . S
C4663 C4664 1.366 . S
C4663 C4665 1.388 . S
C4664 C4663 1.366 . S
C4664 C4668 1.385 . S
C4665 H4640 0.951 . S
C4665 C4663 1.388 . S
C4665 C4666 1.366 . S
C4666 C4665 1.366 . S
C4666 C4667 1.414 . S
C4666 C4669 1.499 . S
C4667 H4641 0.950 . S
C4667 C4666 1.414 . S
C4667 C4668 1.374 . S
C4668 H4642 0.950 . S
C4668 C4664 1.385 . S
C4668 C4667 1.374 . S
C4669 C4666 1.499 . S
C4669 C4670 1.373 . S
C4669 C4671 1.389 . S
C4670 H4643 0.950 . S
C4670 C4656 1.377 . S
C4670 C4669 1.373 . S
C4671 C4655 1.377 . S
C4671 C4669 1.389 . S
C4671 C4672 1.524 . S
C4672 C4671 1.524 . S
C4672 C4673 1.397 . S
C4672 C4677 1.363 . S
C4673 H4644 0.950 . S
C4673 C4672 1.397 . S
C4673 C4674 1.334 . S
C4674 H4645 0.950 . S
C4674 C4673 1.334 . S
C4674 C4675 1.287 . S
C4675 C4674 1.287 . S
C4675 C4676 1.524 . S
C4675 H4678 0.999 . S
C4676 H4646 0.950 . S
C4676 C4675 1.524 . S
C4676 C4677 1.415 . S
C4677 H4647 0.950 . S
C4677 C4672 1.363 . S
C4677 C4676 1.415 . S
H4678 C4675 0.999 . S
H4679 C4660 0.913 . S
H4680 C4698 0.951 . S
H4681 C4700 0.951 . S
H4682 C4702 0.950 . S
H4683 C4703 0.950 . S
H4684 C4705 0.950 . S
H4685 C4708 0.950 . S
H4686 C4709 0.950 . S
H4687 C4711 0.950 . S
H4688 C4712 0.950 . S
H4689 C4713 0.951 . S
H4690 C4715 0.951 . S
H4691 C4717 0.950 . S
H4692 C4718 0.950 . S
H4693 C4720 0.950 . S
H4694 C4723 0.950 . S
H4695 C4724 0.950 . S
H4696 C4726 0.950 . S
H4697 C4727 0.950 . S
C4698 H4680 0.951 . S
C4698 C4699 1.366 . S
C4698 C4700 1.388 . S
C4699 C4698 1.366 . S
C4699 C4703 1.385 . S
C4700 H4681 0.951 . S
C4700 C4698 1.388 . S
C4700 C4701 1.366 . S
C4701 C4700 1.366 . S
C4701 C4702 1.414 . S
C4701 C4704 1.499 . S
C4702 H4682 0.950 . S
C4702 C4701 1.414 . S
C4702 C4703 1.374 . S
C4703 H4683 0.950 . S
C4703 C4699 1.385 . S
C4703 C4702 1.374 . S
C4704 C4701 1.499 . S
C4704 C4705 1.373 . S
C4704 C4706 1.389 . S
C4705 H4684 0.950 . S
C4705 C4704 1.373 . S
C4705 C4721 1.377 . S
C4706 C4704 1.389 . S
C4706 C4707 1.524 . S
C4706 C4720 1.377 . S
C4707 C4706 1.524 . S
C4707 C4708 1.397 . S
C4707 C4712 1.363 . S
C4708 H4685 0.950 . S
C4708 C4707 1.397 . S
C4708 C4709 1.334 . S
C4709 H4686 0.950 . S
C4709 C4708 1.334 . S
C4709 C4710 1.287 . S
C4710 C4709 1.287 . S
C4710 C4711 1.524 . S
C4710 H4729 0.913 . S
C4711 H4687 0.950 . S
C4711 C4710 1.524 . S
C4711 C4712 1.415 . S
C4712 H4688 0.950 . S
C4712 C4707 1.363 . S
C4712 C4711 1.415 . S
C4713 H4689 0.951 . S
C4713 C4714 1.366 . S
C4713 C4715 1.388 . S
C4714 C4713 1.366 . S
C4714 C4718 1.385 . S
C4715 H4690 0.951 . S
C4715 C4713 1.388 . S
C4715 C4716 1.366 . S
C4716 C4715 1.366 . S
C4716 C4717 1.414 . S
C4716 C4719 1.499 . S
C4717 H4691 0.950 . S
C4717 C4716 1.414 . S
C4717 C4718 1.374 . S
C4718 H4692 0.950 . S
C4718 C4714 1.385 . S
C4718 C4717 1.374 . S
C4719 C4716 1.499 . S
C4719 C4720 1.373 . S
C4719 C4721 1.389 . S
C4720 H4693 0.950 . S
C4720 C4706 1.377 . S
C4720 C4719 1.373 . S
C4721 C4705 1.377 . S
C4721 C4719 1.389 . S
C4721 C4722 1.524 . S
C4722 C4721 1.524 . S
C4722 C4723 1.397 . S
C4722 C4727 1.363 . S
C4723 H4694 0.950 . S
C4723 C4722 1.397 . S
C4723 C4724 1.334 . S
C4724 H4695 0.950 . S
C4724 C4723 1.334 . S
C4724 C4725 1.287 . S
C4725 C4724 1.287 . S
C4725 C4726 1.524 . S
C4725 H4728 0.999 . S
C4726 H4696 0.950 . S
C4726 C4725 1.524 . S
C4726 C4727 1.415 . S
C4727 H4697 0.950 . S
C4727 C4722 1.363 . S
C4727 C4726 1.415 . S
H4728 C4725 0.999 . S
H4729 C4710 0.913 . S
H4730 C4748 0.951 . S
H4731 C4750 0.951 . S
H4732 C4752 0.950 . S
H4733 C4753 0.950 . S
H4734 C4755 0.950 . S
H4735 C4758 0.950 . S
H4736 C4759 0.950 . S
H4737 C4761 0.950 . S
H4738 C4762 0.950 . S
H4739 C4763 0.951 . S
H4740 C4765 0.951 . S
H4741 C4767 0.950 . S
H4742 C4768 0.950 . S
H4743 C4770 0.950 . S
H4744 C4773 0.950 . S
H4745 C4774 0.950 . S
H4746 C4776 0.950 . S
H4747 C4777 0.950 . S
C4748 H4730 0.951 . S
C4748 C4749 1.366 . S
C4748 C4750 1.388 . S
C4749 C4748 1.366 . S
C4749 C4753 1.385 . S
C4750 H4731 0.951 . S
C4750 C4748 1.388 . S
C4750 C4751 1.366 . S
C4751 C4750 1.366 . S
C4751 C4752 1.414 . S
C4751 C4754 1.499 . S
C4752 H4732 0.950 . S
C4752 C4751 1.414 . S
C4752 C4753 1.374 . S
C4753 H4733 0.950 . S
C4753 C4749 1.385 . S
C4753 C4752 1.374 . S
C4754 C4751 1.499 . S
C4754 C4755 1.373 . S
C4754 C4756 1.389 . S
C4755 H4734 0.950 . S
C4755 C4754 1.373 . S
C4755 C4771 1.377 . S
C4756 C4754 1.389 . S
C4756 C4757 1.524 . S
C4756 C4770 1.377 . S
C4757 C4756 1.524 . S
C4757 C4758 1.397 . S
C4757 C4762 1.363 . S
C4758 H4735 0.950 . S
C4758 C4757 1.397 . S
C4758 C4759 1.334 . S
C4759 H4736 0.950 . S
C4759 C4758 1.334 . S
C4759 C4760 1.287 . S
C4760 C4759 1.287 . S
C4760 C4761 1.524 . S
C4760 H4779 0.913 . S
C4761 H4737 0.950 . S
C4761 C4760 1.524 . S
C4761 C4762 1.415 . S
C4762 H4738 0.950 . S
C4762 C4757 1.363 . S
C4762 C4761 1.415 . S
C4763 H4739 0.951 . S
C4763 C4764 1.366 . S
C4763 C4765 1.388 . S
C4764 C4763 1.366 . S
C4764 C4768 1.385 . S
C4765 H4740 0.951 . S
C4765 C4763 1.388 . S
C4765 C4766 1.366 . S
C4766 C4765 1.366 . S
C4766 C4767 1.414 . S
C4766 C4769 1.499 . S
C4767 H4741 0.950 . S
C4767 C4766 1.414 . S
C4767 C4768 1.374 . S
C4768 H4742 0.950 . S
C4768 C4764 1.385 . S
C4768 C4767 1.374 . S
C4769 C4766 1.499 . S
C4769 C4770 1.373 . S
C4769 C4771 1.389 . S
C4770 H4743 0.950 . S
C4770 C4756 1.377 . S
C4770 C4769 1.373 . S
C4771 C4755 1.377 . S
C4771 C4769 1.389 . S
C4771 C4772 1.524 . S
C4772 C4771 1.524 . S
C4772 C4773 1.397 . S
C4772 C4777 1.363 . S
C4773 H4744 0.950 . S
C4773 C4772 1.397 . S
C4773 C4774 1.334 . S
C4774 H4745 0.950 . S
C4774 C4773 1.334 . S
C4774 C4775 1.287 . S
C4775 C4774 1.287 . S
C4775 C4776 1.524 . S
C4775 H4778 0.999 . S
C4776 H4746 0.950 . S
C4776 C4775 1.524 . S
C4776 C4777 1.415 . S
C4777 H4747 0.950 . S
C4777 C4772 1.363 . S
C4777 C4776 1.415 . S
H4778 C4775 0.999 . S
H4779 C4760 0.913 . S
H4780 C4798 0.951 . S
H4781 C4800 0.951 . S
H4782 C4802 0.950 . S
H4783 C4803 0.950 . S
H4784 C4805 0.950 . S
H4785 C4808 0.950 . S
H4786 C4809 0.950 . S
H4787 C4811 0.950 . S
H4788 C4812 0.950 . S
H4789 C4813 0.951 . S
H4790 C4815 0.951 . S
H4791 C4817 0.950 . S
H4792 C4818 0.950 . S
H4793 C4820 0.950 . S
H4794 C4823 0.950 . S
H4795 C4824 0.950 . S
H4796 C4826 0.950 . S
H4797 C4827 0.950 . S
C4798 H4780 0.951 . S
C4798 C4799 1.366 . S
C4798 C4800 1.388 . S
C4799 C4798 1.366 . S
C4799 C4803 1.385 . S
C4800 H4781 0.951 . S
C4800 C4798 1.388 . S
C4800 C4801 1.366 . S
C4801 C4800 1.366 . S
C4801 C4802 1.414 . S
C4801 C4804 1.499 . S
C4802 H4782 0.950 . S
C4802 C4801 1.414 . S
C4802 C4803 1.374 . S
C4803 H4783 0.950 . S
C4803 C4799 1.385 . S
C4803 C4802 1.374 . S
C4804 C4801 1.499 . S
C4804 C4805 1.373 . S
C4804 C4806 1.389 . S
C4805 H4784 0.950 . S
C4805 C4804 1.373 . S
C4805 C4821 1.377 . S
C4806 C4804 1.389 . S
C4806 C4807 1.524 . S
C4806 C4820 1.377 . S
C4807 C4806 1.524 . S
C4807 C4808 1.397 . S
C4807 C4812 1.363 . S
C4808 H4785 0.950 . S
C4808 C4807 1.397 . S
C4808 C4809 1.334 . S
C4809 H4786 0.950 . S
C4809 C4808 1.334 . S
C4809 C4810 1.287 . S
C4810 C4809 1.287 . S
C4810 C4811 1.524 . S
C4810 H4829 0.913 . S
C4811 H4787 0.950 . S
C4811 C4810 1.524 . S
C4811 C4812 1.415 . S
C4812 H4788 0.950 . S
C4812 C4807 1.363 . S
C4812 C4811 1.415 . S
C4813 H4789 0.951 . S
C4813 C4814 1.366 . S
C4813 C4815 1.388 . S
C4814 C4813 1.366 . S
C4814 C4818 1.385 . S
C4815 H4790 0.951 . S
C4815 C4813 1.388 . S
C4815 C4816 1.366 . S
C4816 C4815 1.366 . S
C4816 C4817 1.414 . S
C4816 C4819 1.499 . S
C4817 H4791 0.950 . S
C4817 C4816 1.414 . S
C4817 C4818 1.374 . S
C4818 H4792 0.950 . S
C4818 C4814 1.385 . S
C4818 C4817 1.374 . S
C4819 C4816 1.499 . S
C4819 C4820 1.373 . S
C4819 C4821 1.389 . S
C4820 H4793 0.950 . S
C4820 C4806 1.377 . S
C4820 C4819 1.373 . S
C4821 C4805 1.377 . S
C4821 C4819 1.389 . S
C4821 C4822 1.524 . S
C4822 C4821 1.524 . S
C4822 C4823 1.397 . S
C4822 C4827 1.363 . S
C4823 H4794 0.950 . S
C4823 C4822 1.397 . S
C4823 C4824 1.334 . S
C4824 H4795 0.950 . S
C4824 C4823 1.334 . S
C4824 C4825 1.287 . S
C4825 C4824 1.287 . S
C4825 C4826 1.524 . S
C4825 H4828 0.999 . S
C4826 H4796 0.950 . S
C4826 C4825 1.524 . S
C4826 C4827 1.415 . S
C4827 H4797 0.950 . S
C4827 C4822 1.363 . S
C4827 C4826 1.415 . S
H4828 C4825 0.999 . S
H4829 C4810 0.913 . S
H4830 C4848 0.951 . S
H4831 C4850 0.951 . S
H4832 C4852 0.950 . S
H4833 C4853 0.950 . S
H4834 C4855 0.950 . S
H4835 C4858 0.950 . S
H4836 C4859 0.950 . S
H4837 C4861 0.950 . S
H4838 C4862 0.950 . S
H4839 C4863 0.951 . S
H4840 C4865 0.951 . S
H4841 C4867 0.950 . S
H4842 C4868 0.950 . S
H4843 C4870 0.950 . S
H4844 C4873 0.950 . S
H4845 C4874 0.950 . S
H4846 C4876 0.950 . S
H4847 C4877 0.950 . S
C4848 H4830 0.951 . S
C4848 C4849 1.366 . S
C4848 C4850 1.388 . S
C4849 C4848 1.366 . S
C4849 C4853 1.385 . S
C4850 H4831 0.951 . S
C4850 C4848 1.388 . S
C4850 C4851 1.366 . S
C4851 C4850 1.366 . S
C4851 C4852 1.414 . S
C4851 C4854 1.499 . S
C4852 H4832 0.950 . S
C4852 C4851 1.414 . S
C4852 C4853 1.374 . S
C4853 H4833 0.950 . S
C4853 C4849 1.385 . S
C4853 C4852 1.374 . S
C4854 C4851 1.499 . S
C4854 C4855 1.373 . S
C4854 C4856 1.389 . S
C4855 H4834 0.950 . S
C4855 C4854 1.373 . S
C4855 C4871 1.377 . S
C4856 C4854 1.389 . S
C4856 C4857 1.524 . S
C4856 C4870 1.377 . S
C4857 C4856 1.524 . S
C4857 C4858 1.397 . S
C4857 C4862 1.363 . S
C4858 H4835 0.950 . S
C4858 C4857 1.397 . S
C4858 C4859 1.334 . S
C4859 H4836 0.950 . S
C4859 C4858 1.334 . S
C4859 C4860 1.287 . S
C4860 C4859 1.287 . S
C4860 C4861 1.524 . S
C4860 H4879 0.913 . S
C4861 H4837 0.950 . S
C4861 C4860 1.524 . S
C4861 C4862 1.415 . S
C4862 H4838 0.950 . S
C4862 C4857 1.363 . S
C4862 C4861 1.415 . S
C4863 H4839 0.951 . S
C4863 C4864 1.366 . S
C4863 C4865 1.388 . S
C4864 C4863 1.366 . S
C4864 C4868 1.385 . S
C4865 H4840 0.951 . S
C4865 C4863 1.388 . S
C4865 C4866 1.366 . S
C4866 C4865 1.366 . S
C4866 C4867 1.414 . S
C4866 C4869 1.499 . S
C4867 H4841 0.950 . S
C4867 C4866 1.414 . S
C4867 C4868 1.374 . S
C4868 H4842 0.950 . S
C4868 C4864 1.385 . S
C4868 C4867 1.374 . S
C4869 C4866 1.499 . S
C4869 C4870 1.373 . S
C4869 C4871 1.389 . S
C4870 H4843 0.950 . S
C4870 C4856 1.377 . S
C4870 C4869 1.373 . S
C4871 C4855 1.377 . S
C4871 C4869 1.389 . S
C4871 C4872 1.524 . S
C4872 C4871 1.524 . S
C4872 C4873 1.397 . S
C4872 C4877 1.363 . S
C4873 H4844 0.950 . S
C4873 C4872 1.397 . S
C4873 C4874 1.334 . S
C4874 H4845 0.950 . S
C4874 C4873 1.334 . S
C4874 C4875 1.287 . S
C4875 C4874 1.287 . S
C4875 C4876 1.524 . S
C4875 H4878 0.999 . S
C4876 H4846 0.950 . S
C4876 C4875 1.524 . S
C4876 C4877 1.415 . S
C4877 H4847 0.950 . S
C4877 C4872 1.363 . S
C4877 C4876 1.415 . S
H4878 C4875 0.999 . S
H4879 C4860 0.913 . S
H4880 C4898 0.951 . S
H4881 C4900 0.951 . S
H4882 C4902 0.950 . S
H4883 C4903 0.950 . S
H4884 C4905 0.950 . S
H4885 C4908 0.950 . S
H4886 C4909 0.950 . S
H4887 C4911 0.950 . S
H4888 C4912 0.950 . S
H4889 C4913 0.951 . S
H4890 C4915 0.951 . S
H4891 C4917 0.950 . S
H4892 C4918 0.950 . S
H4893 C4920 0.950 . S
H4894 C4923 0.950 . S
H4895 C4924 0.950 . S
H4896 C4926 0.950 . S
H4897 C4927 0.950 . S
C4898 H4880 0.951 . S
C4898 C4899 1.366 . S
C4898 C4900 1.388 . S
C4899 C4898 1.366 . S
C4899 C4903 1.385 . S
C4900 H4881 0.951 . S
C4900 C4898 1.388 . S
C4900 C4901 1.366 . S
C4901 C4900 1.366 . S
C4901 C4902 1.414 . S
C4901 C4904 1.499 . S
C4902 H4882 0.950 . S
C4902 C4901 1.414 . S
C4902 C4903 1.374 . S
C4903 H4883 0.950 . S
C4903 C4899 1.385 . S
C4903 C4902 1.374 . S
C4904 C4901 1.499 . S
C4904 C4905 1.373 . S
C4904 C4906 1.389 . S
C4905 H4884 0.950 . S
C4905 C4904 1.373 . S
C4905 C4921 1.377 . S
C4906 C4904 1.389 . S
C4906 C4907 1.524 . S
C4906 C4920 1.377 . S
C4907 C4906 1.524 . S
C4907 C4908 1.397 . S
C4907 C4912 1.363 . S
C4908 H4885 0.950 . S
C4908 C4907 1.397 . S
C4908 C4909 1.334 . S
C4909 H4886 0.950 . S
C4909 C4908 1.334 . S
C4909 C4910 1.287 . S
C4910 C4909 1.287 . S
C4910 C4911 1.524 . S
C4910 H4929 0.913 . S
C4911 H4887 0.950 . S
C4911 C4910 1.524 . S
C4911 C4912 1.415 . S
C4912 H4888 0.950 . S
C4912 C4907 1.363 . S
C4912 C4911 1.415 . S
C4913 H4889 0.951 . S
C4913 C4914 1.366 . S
C4913 C4915 1.388 . S
C4914 C4913 1.366 . S
C4914 C4918 1.385 . S
C4915 H4890 0.951 . S
C4915 C4913 1.388 . S
C4915 C4916 1.366 . S
C4916 C4915 1.366 . S
C4916 C4917 1.414 . S
C4916 C4919 1.499 . S
C4917 H4891 0.950 . S
C4917 C4916 1.414 . S
C4917 C4918 1.374 . S
C4918 H4892 0.950 . S
C4918 C4914 1.385 . S
C4918 C4917 1.374 . S
C4919 C4916 1.499 . S
C4919 C4920 1.373 . S
C4919 C4921 1.389 . S
C4920 H4893 0.950 . S
C4920 C4906 1.377 . S
C4920 C4919 1.373 . S
C4921 C4905 1.377 . S
C4921 C4919 1.389 . S
C4921 C4922 1.524 . S
C4922 C4921 1.524 . S
C4922 C4923 1.397 . S
C4922 C4927 1.363 . S
C4923 H4894 0.950 . S
C4923 C4922 1.397 . S
C4923 C4924 1.334 . S
C4924 H4895 0.950 . S
C4924 C4923 1.334 . S
C4924 C4925 1.287 . S
C4925 C4924 1.287 . S
C4925 C4926 1.524 . S
C4925 H4928 0.999 . S
C4926 H4896 0.950 . S
C4926 C4925 1.524 . S
C4926 C4927 1.415 . S
C4927 H4897 0.950 . S
C4927 C4922 1.363 . S
C4927 C4926 1.415 . S
H4928 C4925 0.999 . S
H4929 C4910 0.913 . S
H4930 C4948 0.951 . S
H4931 C4950 0.951 . S
H4932 C4952 0.950 . S
H4933 C4953 0.950 . S
H4934 C4955 0.950 . S
H4935 C4958 0.950 . S
H4936 C4959 0.950 . S
H4937 C4961 0.950 . S
H4938 C4962 0.950 . S
H4939 C4963 0.951 . S
H4940 C4965 0.951 . S
H4941 C4967 0.950 . S
H4942 C4968 0.950 . S
H4943 C4970 0.950 . S
H4944 C4973 0.950 . S
H4945 C4974 0.950 . S
H4946 C4976 0.950 . S
H4947 C4977 0.950 . S
C4948 H4930 0.951 . S
C4948 C4949 1.366 . S
C4948 C4950 1.388 . S
C4949 C4948 1.366 . S
C4949 C4953 1.385 . S
C4950 H4931 0.951 . S
C4950 C4948 1.388 . S
C4950 C4951 1.366 . S
C4951 C4950 1.366 . S
C4951 C4952 1.414 . S
C4951 C4954 1.499 . S
C4952 H4932 0.950 . S
C4952 C4951 1.414 . S
C4952 C4953 1.374 . S
C4953 H4933 0.950 . S
C4953 C4949 1.385 . S
C4953 C4952 1.374 . S
C4954 C4951 1.499 . S
C4954 C4955 1.373 . S
C4954 C4956 1.389 . S
C4955 H4934 0.950 . S
C4955 C4954 1.373 . S
C4955 C4971 1.377 . S
C4956 C4954 1.389 . S
C4956 C4957 1.524 . S
C4956 C4970 1.377 . S
C4957 C4956 1.524 . S
C4957 C4958 1.397 . S
C4957 C4962 1.363 . S
C4958 H4935 0.950 . S
C4958 C4957 1.397 . S
C4958 C4959 1.334 . S
C4959 H4936 0.950 . S
C4959 C4958 1.334 . S
C4959 C4960 1.287 . S
C4960 C4959 1.287 . S
C4960 C4961 1.524 . S
C4960 H4979 0.913 . S
C4961 H4937 0.950 . S
C4961 C4960 1.524 . S
C4961 C4962 1.415 . S
C4962 H4938 0.950 . S
C4962 C4957 1.363 . S
C4962 C4961 1.415 . S
C4963 H4939 0.951 . S
C4963 C4964 1.366 . S
C4963 C4965 1.388 . S
C4964 C4963 1.366 . S
C4964 C4968 1.385 . S
C4965 H4940 0.951 . S
C4965 C4963 1.388 . S
C4965 C4966 1.366 . S
C4966 C4965 1.366 . S
C4966 C4967 1.414 . S
C4966 C4969 1.499 . S
C4967 H4941 0.950 . S
C4967 C4966 1.414 . S
C4967 C4968 1.374 . S
C4968 H4942 0.950 . S
C4968 C4964 1.385 . S
C4968 C4967 1.374 . S
C4969 C4966 1.499 . S
C4969 C4970 1.373 . S
C4969 C4971 1.389 . S
C4970 H4943 0.950 . S
C4970 C4956 1.377 . S
C4970 C4969 1.373 . S
C4971 C4955 1.377 . S
C4971 C4969 1.389 . S
C4971 C4972 1.524 . S
C4972 C4971 1.524 . S
C4972 C4973 1.397 . S
C4972 C4977 1.363 . S
C4973 H4944 0.950 . S
C4973 C4972 1.397 . S
C4973 C4974 1.334 . S
C4974 H4945 0.950 . S
C4974 C4973 1.334 . S
C4974 C4975 1.287 . S
C4975 C4974 1.287 . S
C4975 C4976 1.524 . S
C4975 H4978 0.999 . S
C4976 H4946 0.950 . S
C4976 C4975 1.524 . S
C4976 C4977 1.415 . S
C4977 H4947 0.950 . S
C4977 C4972 1.363 . S
C4977 C4976 1.415 . S
H4978 C4975 0.999 . S
H4979 C4960 0.913 . S
H4980 C4998 0.951 . S
H4981 C5000 0.951 . S
H4982 C5002 0.950 . S
H4983 C5003 0.950 . S
H4984 C5005 0.950 . S
H4985 C5008 0.950 . S
H4986 C5009 0.950 . S
H4987 C5011 0.950 . S
H4988 C5012 0.950 . S
H4989 C5013 0.951 . S
H4990 C5015 0.951 . S
H4991 C5017 0.950 . S
H4992 C5018 0.950 . S
H4993 C5020 0.950 . S
H4994 C5023 0.950 . S
H4995 C5024 0.950 . S
H4996 C5026 0.950 . S
H4997 C5027 0.950 . S
C4998 H4980 0.951 . S
C4998 C4999 1.366 . S
C4998 C5000 1.388 . S
C4999 C4998 1.366 . S
C4999 C5003 1.385 . S
C5000 H4981 0.951 . S
C5000 C4998 1.388 . S
C5000 C5001 1.366 . S
C5001 C5000 1.366 . S
C5001 C5002 1.414 . S
C5001 C5004 1.499 . S
C5002 H4982 0.950 . S
C5002 C5001 1.414 . S
C5002 C5003 1.374 . S
C5003 H4983 0.950 . S
C5003 C4999 1.385 . S
C5003 C5002 1.374 . S
C5004 C5001 1.499 . S
C5004 C5005 1.373 . S
C5004 C5006 1.389 . S
C5005 H4984 0.950 . S
C5005 C5004 1.373 . S
C5005 C5021 1.377 . S
C5006 C5004 1.389 . S
C5006 C5007 1.524 . S
C5006 C5020 1.377 . S
C5007 C5006 1.524 . S
C5007 C5008 1.397 . S
C5007 C5012 1.363 . S
C5008 H4985 0.950 . S
C5008 C5007 1.397 . S
C5008 C5009 1.334 . S
C5009 H4986 0.950 . S
C5009 C5008 1.334 . S
C5009 C5010 1.287 . S
C5010 C5009 1.287 . S
C5010 C5011 1.524 . S
C5010 H5029 0.913 . S
C5011 H4987 0.950 . S
C5011 C5010 1.524 . S
C5011 C5012 1.415 . S
C5012 H4988 0.950 . S
C5012 C5007 1.363 . S
C5012 C5011 1.415 . S
C5013 H4989 0.951 . S
C5013 C5014 1.366 . S
C5013 C5015 1.388 . S
C5014 C5013 1.366 . S
C5014 C5018 1.385 . S
C5015 H4990 0.951 . S
C5015 C5013 1.388 . S
C5015 C5016 1.366 . S
C5016 C5015 1.366 . S
C5016 C5017 1.414 . S
C5016 C5019 1.499 . S
C5017 H4991 0.950 . S
C5017 C5016 1.414 . S
C5017 C5018 1.374 . S
C5018 H4992 0.950 . S
C5018 C5014 1.385 . S
C5018 C5017 1.374 . S
C5019 C5016 1.499 . S
C5019 C5020 1.373 . S
C5019 C5021 1.389 . S
C5020 H4993 0.950 . S
C5020 C5006 1.377 . S
C5020 C5019 1.373 . S
C5021 C5005 1.377 . S
C5021 C5019 1.389 . S
C5021 C5022 1.524 . S
C5022 C5021 1.524 . S
C5022 C5023 1.397 . S
C5022 C5027 1.363 . S
C5023 H4994 0.950 . S
C5023 C5022 1.397 . S
C5023 C5024 1.334 . S
C5024 H4995 0.950 . S
C5024 C5023 1.334 . S
C5024 C5025 1.287 . S
C5025 C5024 1.287 . S
C5025 C5026 1.524 . S
C5025 H5028 0.999 . S
C5026 H4996 0.950 . S
C5026 C5025 1.524 . S
C5026 C5027 1.415 . S
C5027 H4997 0.950 . S
C5027 C5022 1.363 . S
C5027 C5026 1.415 . S
H5028 C5025 0.999 . S
H5029 C5010 0.913 . S
H5030 C5048 0.951 . S
H5031 C5050 0.951 . S
H5032 C5052 0.950 . S
H5033 C5053 0.950 . S
H5034 C5055 0.950 . S
H5035 C5058 0.950 . S
H5036 C5059 0.950 . S
H5037 C5061 0.950 . S
H5038 C5062 0.950 . S
H5039 C5063 0.951 . S
H5040 C5065 0.951 . S
H5041 C5067 0.950 . S
H5042 C5068 0.950 . S
H5043 C5070 0.950 . S
H5044 C5073 0.950 . S
H5045 C5074 0.950 . S
H5046 C5076 0.950 . S
H5047 C5077 0.950 . S
C5048 H5030 0.951 . S
C5048 C5049 1.366 . S
C5048 C5050 1.388 . S
C5049 C5048 1.366 . S
C5049 C5053 1.385 . S
C5050 H5031 0.951 . S
C5050 C5048 1.388 . S
C5050 C5051 1.366 . S
C5051 C5050 1.366 . S
C5051 C5052 1.414 . S
C5051 C5054 1.499 . S
C5052 H5032 0.950 . S
C5052 C5051 1.414 . S
C5052 C5053 1.374 . S
C5053 H5033 0.950 . S
C5053 C5049 1.385 . S
C5053 C5052 1.374 . S
C5054 C5051 1.499 . S
C5054 C5055 1.373 . S
C5054 C5056 1.389 . S
C5055 H5034 0.950 . S
C5055 C5054 1.373 . S
C5055 C5071 1.377 . S
C5056 C5054 1.389 . S
C5056 C5057 1.556 1_554 S
C5056 C5070 1.377 1_565 S
C5057 C5056 1.556 1_556 S
C5057 C5058 1.417 . S
C5057 C5062 1.314 1_566 S
C5058 H5035 0.950 . S
C5058 C5057 1.417 . S
C5058 C5059 1.334 . S
C5059 H5036 0.950 . S
C5059 C5058 1.334 . S
C5059 C5060 1.287 1_565 S
C5060 C5059 1.287 1_545 S
C5060 C5061 1.524 . S
C5060 H5079 0.913 . S
C5061 H5037 0.950 . S
C5061 C5060 1.524 . S
C5061 C5062 1.415 1_556 S
C5062 H5038 0.950 . S
C5062 C5057 1.314 1_544 S
C5062 C5061 1.415 1_554 S
C5063 H5039 0.951 . S
C5063 C5064 1.366 . S
C5063 C5065 1.388 1_545 S
C5064 C5063 1.366 . S
C5064 C5068 1.385 . S
C5065 H5040 0.951 . S
C5065 C5063 1.388 1_565 S
C5065 C5066 1.366 1_565 S
C5066 C5065 1.366 1_545 S
C5066 C5067 1.414 . S
C5066 C5069 1.499 1_545 S
C5067 H5041 0.950 . S
C5067 C5066 1.414 . S
C5067 C5068 1.374 . S
C5068 H5042 0.950 . S
C5068 C5064 1.385 . S
C5068 C5067 1.374 . S
C5069 C5066 1.499 1_565 S
C5069 C5070 1.373 1_565 S
C5069 C5071 1.389 . S
C5070 H5043 0.950 . S
C5070 C5056 1.377 1_545 S
C5070 C5069 1.373 1_545 S
C5071 C5055 1.377 . S
C5071 C5069 1.389 . S
C5071 C5072 1.524 . S
C5072 C5071 1.524 . S
C5072 C5073 1.397 . S
C5072 C5077 1.363 . S
C5073 H5044 0.950 . S
C5073 C5072 1.397 . S
C5073 C5074 1.334 . S
C5074 H5045 0.950 . S
C5074 C5073 1.334 . S
C5074 C5075 1.287 . S
C5075 C5074 1.287 . S
C5075 C5076 1.524 . S
C5075 H5078 0.999 . S
C5076 H5046 0.950 . S
C5076 C5075 1.524 . S
C5076 C5077 1.415 . S
C5077 H5047 0.950 . S
C5077 C5072 1.363 . S
C5077 C5076 1.415 . S
H5078 C5075 0.999 . S
H5079 C5060 0.913 . S
H5080 C5098 0.951 . S
H5081 C5100 0.951 . S
H5082 C5102 0.950 . S
H5083 C5103 0.950 . S
H5084 C5105 0.950 . S
H5085 C5108 0.950 . S
H5086 C5109 0.950 . S
H5087 C5111 0.950 . S
H5088 C5112 0.950 . S
H5089 C5113 0.951 . S
H5090 C5115 0.951 . S
H5091 C5117 0.950 . S
H5092 C5118 0.950 . S
H5093 C5120 0.950 . S
H5094 C5123 0.950 . S
H5095 C5124 0.950 . S
H5096 C5126 0.950 . S
H5097 C5127 0.950 . S
C5098 H5080 0.951 . S
C5098 C5099 1.366 . S
C5098 C5100 1.388 . S
C5099 C5098 1.366 . S
C5099 C5103 1.385 . S
C5100 H5081 0.951 . S
C5100 C5098 1.388 . S
C5100 C5101 1.366 . S
C5101 C5100 1.366 . S
C5101 C5102 1.414 . S
C5101 C5104 1.499 . S
C5102 H5082 0.950 . S
C5102 C5101 1.414 . S
C5102 C5103 1.374 . S
C5103 H5083 0.950 . S
C5103 C5099 1.385 . S
C5103 C5102 1.374 . S
C5104 C5101 1.499 . S
C5104 C5105 1.373 . S
C5104 C5106 1.389 . S
C5105 H5084 0.950 . S
C5105 C5104 1.373 . S
C5105 C5121 1.377 . S
C5106 C5104 1.389 . S
C5106 C5107 1.524 . S
C5106 C5120 1.377 . S
C5107 C5106 1.524 . S
C5107 C5108 1.397 . S
C5107 C5112 1.363 . S
C5108 H5085 0.950 . S
C5108 C5107 1.397 . S
C5108 C5109 1.334 . S
C5109 H5086 0.950 . S
C5109 C5108 1.334 . S
C5109 C5110 1.287 . S
C5110 C5109 1.287 . S
C5110 C5111 1.524 . S
C5110 H5129 0.913 . S
C5111 H5087 0.950 . S
C5111 C5110 1.524 . S
C5111 C5112 1.415 . S
C5112 H5088 0.950 . S
C5112 C5107 1.363 . S
C5112 C5111 1.415 . S
C5113 H5089 0.951 . S
C5113 C5114 1.366 . S
C5113 C5115 1.388 . S
C5114 C5113 1.366 . S
C5114 C5118 1.385 . S
C5115 H5090 0.951 . S
C5115 C5113 1.388 . S
C5115 C5116 1.366 . S
C5116 C5115 1.366 . S
C5116 C5117 1.414 . S
C5116 C5119 1.499 . S
C5117 H5091 0.950 . S
C5117 C5116 1.414 . S
C5117 C5118 1.374 . S
C5118 H5092 0.950 . S
C5118 C5114 1.385 . S
C5118 C5117 1.374 . S
C5119 C5116 1.499 . S
C5119 C5120 1.373 . S
C5119 C5121 1.389 . S
C5120 H5093 0.950 . S
C5120 C5106 1.377 . S
C5120 C5119 1.373 . S
C5121 C5105 1.377 . S
C5121 C5119 1.389 . S
C5121 C5122 1.524 . S
C5122 C5121 1.524 . S
C5122 C5123 1.397 . S
C5122 C5127 1.363 . S
C5123 H5094 0.950 . S
C5123 C5122 1.397 . S
C5123 C5124 1.334 . S
C5124 H5095 0.950 . S
C5124 C5123 1.334 . S
C5124 C5125 1.287 . S
C5125 C5124 1.287 . S
C5125 C5126 1.524 . S
C5125 H5128 0.999 . S
C5126 H5096 0.950 . S
C5126 C5125 1.524 . S
C5126 C5127 1.415 . S
C5127 H5097 0.950 . S
C5127 C5122 1.363 . S
C5127 C5126 1.415 . S
H5128 C5125 0.999 . S
H5129 C5110 0.913 . S
H5130 C5148 0.951 . S
H5131 C5150 0.951 . S
H5132 C5152 0.950 . S
H5133 C5153 0.950 . S
H5134 C5155 0.950 . S
H5135 C5158 0.950 . S
H5136 C5159 0.950 . S
H5137 C5161 0.950 . S
H5138 C5162 0.950 . S
H5139 C5163 0.951 . S
H5140 C5165 0.951 . S
H5141 C5167 0.950 . S
H5142 C5168 0.950 . S
H5143 C5170 0.950 . S
H5144 C5173 0.949 1_556 S
H5145 C5174 0.950 . S
H5146 C5176 0.950 . S
H5147 C5177 0.950 . S
C5148 H5130 0.951 . S
C5148 C5149 1.366 . S
C5148 C5150 1.388 . S
C5149 C5148 1.366 . S
C5149 C5153 1.385 . S
C5150 H5131 0.951 . S
C5150 C5148 1.388 . S
C5150 C5151 1.366 . S
C5151 C5150 1.366 . S
C5151 C5152 1.414 . S
C5151 C5154 1.499 . S
C5152 H5132 0.950 . S
C5152 C5151 1.414 . S
C5152 C5153 1.374 . S
C5153 H5133 0.950 . S
C5153 C5149 1.385 . S
C5153 C5152 1.374 . S
C5154 C5151 1.499 . S
C5154 C5155 1.373 . S
C5154 C5156 1.389 . S
C5155 H5134 0.950 . S
C5155 C5154 1.373 . S
C5155 C5171 1.377 . S
C5156 C5154 1.389 . S
C5156 C5157 1.524 . S
C5156 C5170 1.377 . S
C5157 C5156 1.524 . S
C5157 C5158 1.397 . S
C5157 C5162 1.363 . S
C5158 H5135 0.950 . S
C5158 C5157 1.397 . S
C5158 C5159 1.334 . S
C5159 H5136 0.950 . S
C5159 C5158 1.334 . S
C5159 C5160 1.287 . S
C5160 C5159 1.287 . S
C5160 C5161 1.524 . S
C5160 H5179 0.913 . S
C5161 H5137 0.950 . S
C5161 C5160 1.524 . S
C5161 C5162 1.415 . S
C5162 H5138 0.950 . S
C5162 C5157 1.363 . S
C5162 C5161 1.415 . S
C5163 H5139 0.951 . S
C5163 C5164 1.366 . S
C5163 C5165 1.388 . S
C5164 C5163 1.366 . S
C5164 C5168 1.385 . S
C5165 H5140 0.951 . S
C5165 C5163 1.388 . S
C5165 C5166 1.366 . S
C5166 C5165 1.366 . S
C5166 C5167 1.414 . S
C5166 C5169 1.499 . S
C5167 H5141 0.950 . S
C5167 C5166 1.414 . S
C5167 C5168 1.374 . S
C5168 H5142 0.950 . S
C5168 C5164 1.385 . S
C5168 C5167 1.374 . S
C5169 C5166 1.499 . S
C5169 C5170 1.373 . S
C5169 C5171 1.389 . S
C5170 H5143 0.950 . S
C5170 C5156 1.377 . S
C5170 C5169 1.373 . S
C5171 C5155 1.377 . S
C5171 C5169 1.389 . S
C5171 C5172 1.524 . S
C5172 C5171 1.524 . S
C5172 C5173 1.394 . S
C5172 C5177 1.363 . S
C5173 H5144 0.949 1_554 S
C5173 C5172 1.394 . S
C5173 C5174 1.338 1_554 S
C5174 H5145 0.950 . S
C5174 C5173 1.338 1_556 S
C5174 C5175 1.287 . S
C5175 C5174 1.287 . S
C5175 C5176 1.524 1_556 S
C5175 H5178 0.999 . S
C5176 H5146 0.950 . S
C5176 C5175 1.524 1_554 S
C5176 C5177 1.415 . S
C5177 H5147 0.950 . S
C5177 C5172 1.363 . S
C5177 C5176 1.415 . S
H5178 C5175 0.999 . S
H5179 C5160 0.913 . S
H5180 C5198 0.951 . S
H5181 C5200 0.951 . S
H5182 C5202 0.950 . S
H5183 C5203 0.950 . S
H5184 C5205 0.950 . S
H5185 C5208 0.950 . S
H5186 C5209 0.950 . S
H5187 C5211 0.950 . S
H5188 C5212 0.950 . S
H5189 C5213 0.951 . S
H5190 C5215 0.951 . S
H5191 C5217 0.950 . S
H5192 C5218 0.950 . S
H5193 C5220 0.950 . S
H5194 C5223 0.950 . S
H5195 C5224 0.950 . S
H5196 C5226 0.950 . S
H5197 C5227 0.950 . S
C5198 H5180 0.951 . S
C5198 C5199 1.366 . S
C5198 C5200 1.388 . S
C5199 C5198 1.366 . S
C5199 C5203 1.385 . S
C5200 H5181 0.951 . S
C5200 C5198 1.388 . S
C5200 C5201 1.366 . S
C5201 C5200 1.366 . S
C5201 C5202 1.414 . S
C5201 C5204 1.499 . S
C5202 H5182 0.950 . S
C5202 C5201 1.414 . S
C5202 C5203 1.374 . S
C5203 H5183 0.950 . S
C5203 C5199 1.385 . S
C5203 C5202 1.374 . S
C5204 C5201 1.499 . S
C5204 C5205 1.373 . S
C5204 C5206 1.389 . S
C5205 H5184 0.950 . S
C5205 C5204 1.373 . S
C5205 C5221 1.377 . S
C5206 C5204 1.389 . S
C5206 C5207 1.524 . S
C5206 C5220 1.377 . S
C5207 C5206 1.524 . S
C5207 C5208 1.397 . S
C5207 C5212 1.363 . S
C5208 H5185 0.950 . S
C5208 C5207 1.397 . S
C5208 C5209 1.334 . S
C5209 H5186 0.950 . S
C5209 C5208 1.334 . S
C5209 C5210 1.287 . S
C5210 C5209 1.287 . S
C5210 C5211 1.524 . S
C5210 H5229 0.913 . S
C5211 H5187 0.950 . S
C5211 C5210 1.524 . S
C5211 C5212 1.415 . S
C5212 H5188 0.950 . S
C5212 C5207 1.363 . S
C5212 C5211 1.415 . S
C5213 H5189 0.951 . S
C5213 C5214 1.366 . S
C5213 C5215 1.388 . S
C5214 C5213 1.366 . S
C5214 C5218 1.385 . S
C5215 H5190 0.951 . S
C5215 C5213 1.388 . S
C5215 C5216 1.366 . S
C5216 C5215 1.366 . S
C5216 C5217 1.414 . S
C5216 C5219 1.499 . S
C5217 H5191 0.950 . S
C5217 C5216 1.414 . S
C5217 C5218 1.374 . S
C5218 H5192 0.950 . S
C5218 C5214 1.385 . S
C5218 C5217 1.374 . S
C5219 C5216 1.499 . S
C5219 C5220 1.373 . S
C5219 C5221 1.389 . S
C5220 H5193 0.950 . S
C5220 C5206 1.377 . S
C5220 C5219 1.373 . S
C5221 C5205 1.377 . S
C5221 C5219 1.389 . S
C5221 C5222 1.524 . S
C5222 C5221 1.524 . S
C5222 C5223 1.397 . S
C5222 C5227 1.363 . S
C5223 H5194 0.950 . S
C5223 C5222 1.397 . S
C5223 C5224 1.334 . S
C5224 H5195 0.950 . S
C5224 C5223 1.334 . S
C5224 C5225 1.287 . S
C5225 C5224 1.287 . S
C5225 C5226 1.524 . S
C5225 H5228 0.999 . S
C5226 H5196 0.950 . S
C5226 C5225 1.524 . S
C5226 C5227 1.415 . S
C5227 H5197 0.950 . S
C5227 C5222 1.363 . S
C5227 C5226 1.415 . S
H5228 C5225 0.999 . S
H5229 C5210 0.913 . S
H5230 C5248 0.951 . S
H5231 C5250 0.951 . S
H5232 C5252 0.950 . S
H5233 C5253 0.950 . S
H5234 C5255 0.950 . S
H5235 C5258 0.950 . S
H5236 C5259 0.950 . S
H5237 C5261 0.950 . S
H5238 C5262 0.950 . S
H5239 C5263 0.951 . S
H5240 C5265 0.951 . S
H5241 C5267 0.950 . S
H5242 C5268 0.950 . S
H5243 C5270 0.950 . S
H5244 C5273 0.950 . S
H5245 C5274 0.950 . S
H5246 C5276 0.950 . S
H5247 C5277 0.950 . S
C5248 H5230 0.951 . S
C5248 C5249 1.366 . S
C5248 C5250 1.388 . S
C5249 C5248 1.366 . S
C5249 C5253 1.385 . S
C5250 H5231 0.951 . S
C5250 C5248 1.388 . S
C5250 C5251 1.366 . S
C5251 C5250 1.366 . S
C5251 C5252 1.414 . S
C5251 C5254 1.499 . S
C5252 H5232 0.950 . S
C5252 C5251 1.414 . S
C5252 C5253 1.374 . S
C5253 H5233 0.950 . S
C5253 C5249 1.385 . S
C5253 C5252 1.374 . S
C5254 C5251 1.499 . S
C5254 C5255 1.373 . S
C5254 C5256 1.389 . S
C5255 H5234 0.950 . S
C5255 C5254 1.373 . S
C5255 C5271 1.377 . S
C5256 C5254 1.389 . S
C5256 C5257 1.524 . S
C5256 C5270 1.377 . S
C5257 C5256 1.524 . S
C5257 C5258 1.397 . S
C5257 C5262 1.363 . S
C5258 H5235 0.950 . S
C5258 C5257 1.397 . S
C5258 C5259 1.334 . S
C5259 H5236 0.950 . S
C5259 C5258 1.334 . S
C5259 C5260 1.287 . S
C5260 C5259 1.287 . S
C5260 C5261 1.524 . S
C5260 H5279 0.913 . S
C5261 H5237 0.950 . S
C5261 C5260 1.524 . S
C5261 C5262 1.415 . S
C5262 H5238 0.950 . S
C5262 C5257 1.363 . S
C5262 C5261 1.415 . S
C5263 H5239 0.951 . S
C5263 C5264 1.366 . S
C5263 C5265 1.388 . S
C5264 C5263 1.366 . S
C5264 C5268 1.385 . S
C5265 H5240 0.951 . S
C5265 C5263 1.388 . S
C5265 C5266 1.366 . S
C5266 C5265 1.366 . S
C5266 C5267 1.414 . S
C5266 C5269 1.499 . S
C5267 H5241 0.950 . S
C5267 C5266 1.414 . S
C5267 C5268 1.374 . S
C5268 H5242 0.950 . S
C5268 C5264 1.385 . S
C5268 C5267 1.374 . S
C5269 C5266 1.499 . S
C5269 C5270 1.373 . S
C5269 C5271 1.389 . S
C5270 H5243 0.950 . S
C5270 C5256 1.377 . S
C5270 C5269 1.373 . S
C5271 C5255 1.377 . S
C5271 C5269 1.389 . S
C5271 C5272 1.524 . S
C5272 C5271 1.524 . S
C5272 C5273 1.397 . S
C5272 C5277 1.363 . S
C5273 H5244 0.950 . S
C5273 C5272 1.397 . S
C5273 C5274 1.334 . S
C5274 H5245 0.950 . S
C5274 C5273 1.334 . S
C5274 C5275 1.287 . S
C5275 C5274 1.287 . S
C5275 C5276 1.524 . S
C5275 H5278 0.999 . S
C5276 H5246 0.950 . S
C5276 C5275 1.524 . S
C5276 C5277 1.415 . S
C5277 H5247 0.950 . S
C5277 C5272 1.363 . S
C5277 C5276 1.415 . S
H5278 C5275 0.999 . S
H5279 C5260 0.913 . S
H5280 C5298 0.951 . S
H5281 C5300 0.951 . S
H5282 C5302 0.950 . S
H5283 C5303 0.950 . S
H5284 C5305 0.950 . S
H5285 C5308 0.950 . S
H5286 C5309 0.950 . S
H5287 C5311 0.950 . S
H5288 C5312 0.950 . S
H5289 C5313 0.951 . S
H5290 C5315 0.951 . S
H5291 C5317 0.950 . S
H5292 C5318 0.950 . S
H5293 C5320 0.950 . S
H5294 C5323 0.950 . S
H5295 C5324 0.950 . S
H5296 C5326 0.950 . S
H5297 C5327 0.950 . S
C5298 H5280 0.951 . S
C5298 C5299 1.366 . S
C5298 C5300 1.388 . S
C5299 C5298 1.366 . S
C5299 C5303 1.385 . S
C5300 H5281 0.951 . S
C5300 C5298 1.388 . S
C5300 C5301 1.366 . S
C5301 C5300 1.366 . S
C5301 C5302 1.414 . S
C5301 C5304 1.499 . S
C5302 H5282 0.950 . S
C5302 C5301 1.414 . S
C5302 C5303 1.374 . S
C5303 H5283 0.950 . S
C5303 C5299 1.385 . S
C5303 C5302 1.374 . S
C5304 C5301 1.499 . S
C5304 C5305 1.373 . S
C5304 C5306 1.389 . S
C5305 H5284 0.950 . S
C5305 C5304 1.373 . S
C5305 C5321 1.377 . S
C5306 C5304 1.389 . S
C5306 C5307 1.524 . S
C5306 C5320 1.377 . S
C5307 C5306 1.524 . S
C5307 C5308 1.397 . S
C5307 C5312 1.363 . S
C5308 H5285 0.950 . S
C5308 C5307 1.397 . S
C5308 C5309 1.334 . S
C5309 H5286 0.950 . S
C5309 C5308 1.334 . S
C5309 C5310 1.287 . S
C5310 C5309 1.287 . S
C5310 C5311 1.524 . S
C5310 H5329 0.913 . S
C5311 H5287 0.950 . S
C5311 C5310 1.524 . S
C5311 C5312 1.415 . S
C5312 H5288 0.950 . S
C5312 C5307 1.363 . S
C5312 C5311 1.415 . S
C5313 H5289 0.951 . S
C5313 C5314 1.366 . S
C5313 C5315 1.388 . S
C5314 C5313 1.366 . S
C5314 C5318 1.385 . S
C5315 H5290 0.951 . S
C5315 C5313 1.388 . S
C5315 C5316 1.366 . S
C5316 C5315 1.366 . S
C5316 C5317 1.414 . S
C5316 C5319 1.499 . S
C5317 H5291 0.950 . S
C5317 C5316 1.414 . S
C5317 C5318 1.374 . S
C5318 H5292 0.950 . S
C5318 C5314 1.385 . S
C5318 C5317 1.374 . S
C5319 C5316 1.499 . S
C5319 C5320 1.373 . S
C5319 C5321 1.389 . S
C5320 H5293 0.950 . S
C5320 C5306 1.377 . S
C5320 C5319 1.373 . S
C5321 C5305 1.377 . S
C5321 C5319 1.389 . S
C5321 C5322 1.524 . S
C5322 C5321 1.524 . S
C5322 C5323 1.397 . S
C5322 C5327 1.363 . S
C5323 H5294 0.950 . S
C5323 C5322 1.397 . S
C5323 C5324 1.334 . S
C5324 H5295 0.950 . S
C5324 C5323 1.334 . S
C5324 C5325 1.287 . S
C5325 C5324 1.287 . S
C5325 C5326 1.524 . S
C5325 H5328 0.999 . S
C5326 H5296 0.950 . S
C5326 C5325 1.524 . S
C5326 C5327 1.415 . S
C5327 H5297 0.950 . S
C5327 C5322 1.363 . S
C5327 C5326 1.415 . S
H5328 C5325 0.999 . S
H5329 C5310 0.913 . S
H5330 C5348 0.951 . S
H5331 C5350 0.951 . S
H5332 C5352 0.950 . S
H5333 C5353 0.950 . S
H5334 C5355 0.950 . S
H5335 C5358 0.950 . S
H5336 C5359 0.950 . S
H5337 C5361 0.950 . S
H5338 C5362 0.950 . S
H5339 C5363 0.951 . S
H5340 C5365 0.951 . S
H5341 C5367 0.950 . S
H5342 C5368 0.950 . S
H5343 C5370 0.950 . S
H5344 C5373 0.950 . S
H5345 C5374 0.950 . S
H5346 C5376 0.950 . S
H5347 C5377 0.950 . S
C5348 H5330 0.951 . S
C5348 C5349 1.366 . S
C5348 C5350 1.388 . S
C5349 C5348 1.366 . S
C5349 C5353 1.385 . S
C5350 H5331 0.951 . S
C5350 C5348 1.388 . S
C5350 C5351 1.366 . S
C5351 C5350 1.366 . S
C5351 C5352 1.414 . S
C5351 C5354 1.499 . S
C5352 H5332 0.950 . S
C5352 C5351 1.414 . S
C5352 C5353 1.374 . S
C5353 H5333 0.950 . S
C5353 C5349 1.385 . S
C5353 C5352 1.374 . S
C5354 C5351 1.499 . S
C5354 C5355 1.373 . S
C5354 C5356 1.389 . S
C5355 H5334 0.950 . S
C5355 C5354 1.373 . S
C5355 C5371 1.377 . S
C5356 C5354 1.389 . S
C5356 C5357 1.524 . S
C5356 C5370 1.377 . S
C5357 C5356 1.524 . S
C5357 C5358 1.397 . S
C5357 C5362 1.363 . S
C5358 H5335 0.950 . S
C5358 C5357 1.397 . S
C5358 C5359 1.334 . S
C5359 H5336 0.950 . S
C5359 C5358 1.334 . S
C5359 C5360 1.287 . S
C5360 C5359 1.287 . S
C5360 C5361 1.524 . S
C5360 H5379 0.913 . S
C5361 H5337 0.950 . S
C5361 C5360 1.524 . S
C5361 C5362 1.415 . S
C5362 H5338 0.950 . S
C5362 C5357 1.363 . S
C5362 C5361 1.415 . S
C5363 H5339 0.951 . S
C5363 C5364 1.366 . S
C5363 C5365 1.388 . S
C5364 C5363 1.366 . S
C5364 C5368 1.385 . S
C5365 H5340 0.951 . S
C5365 C5363 1.388 . S
C5365 C5366 1.366 . S
C5366 C5365 1.366 . S
C5366 C5367 1.414 . S
C5366 C5369 1.499 . S
C5367 H5341 0.950 . S
C5367 C5366 1.414 . S
C5367 C5368 1.374 . S
C5368 H5342 0.950 . S
C5368 C5364 1.385 . S
C5368 C5367 1.374 . S
C5369 C5366 1.499 . S
C5369 C5370 1.373 . S
C5369 C5371 1.389 . S
C5370 H5343 0.950 . S
C5370 C5356 1.377 . S
C5370 C5369 1.373 . S
C5371 C5355 1.377 . S
C5371 C5369 1.389 . S
C5371 C5372 1.524 . S
C5372 C5371 1.524 . S
C5372 C5373 1.397 . S
C5372 C5377 1.363 . S
C5373 H5344 0.950 . S
C5373 C5372 1.397 . S
C5373 C5374 1.334 . S
C5374 H5345 0.950 . S
C5374 C5373 1.334 . S
C5374 C5375 1.287 . S
C5375 C5374 1.287 . S
C5375 C5376 1.524 . S
C5375 H5378 0.999 . S
C5376 H5346 0.950 . S
C5376 C5375 1.524 . S
C5376 C5377 1.415 . S
C5377 H5347 0.950 . S
C5377 C5372 1.363 . S
C5377 C5376 1.415 . S
H5378 C5375 0.999 . S
H5379 C5360 0.913 . S
H5380 C5398 0.951 . S
H5381 C5400 0.951 . S
H5382 C5402 0.950 . S
H5383 C5403 0.950 . S
H5384 C5405 0.950 . S
H5385 C5408 0.950 . S
H5386 C5409 0.950 . S
H5387 C5411 0.950 . S
H5388 C5412 0.950 . S
H5389 C5413 0.951 . S
H5390 C5415 0.951 . S
H5391 C5417 0.950 . S
H5392 C5418 0.950 . S
H5393 C5420 0.950 . S
H5394 C5423 0.950 . S
H5395 C5424 0.962 . S
H5396 C5426 0.950 . S
H5397 C5427 0.950 . S
C5398 H5380 0.951 . S
C5398 C5399 1.366 . S
C5398 C5400 1.388 . S
C5399 C5398 1.366 . S
C5399 C5403 1.385 . S
C5400 H5381 0.951 . S
C5400 C5398 1.388 . S
C5400 C5401 1.366 . S
C5401 C5400 1.366 . S
C5401 C5402 1.414 . S
C5401 C5404 1.499 . S
C5402 H5382 0.950 . S
C5402 C5401 1.414 . S
C5402 C5403 1.374 . S
C5403 H5383 0.950 . S
C5403 C5399 1.385 . S
C5403 C5402 1.374 . S
C5404 C5401 1.499 . S
C5404 C5405 1.373 . S
C5404 C5406 1.389 . S
C5405 H5384 0.950 . S
C5405 C5404 1.373 . S
C5405 C5421 1.377 . S
C5406 C5404 1.389 . S
C5406 C5407 1.524 . S
C5406 C5420 1.377 . S
C5407 C5406 1.524 . S
C5407 C5408 1.397 . S
C5407 C5412 1.363 . S
C5408 H5385 0.950 . S
C5408 C5407 1.397 . S
C5408 C5409 1.334 . S
C5409 H5386 0.950 . S
C5409 C5408 1.334 . S
C5409 C5410 1.287 . S
C5410 C5409 1.287 . S
C5410 C5411 1.524 . S
C5410 H5429 0.913 . S
C5411 H5387 0.950 . S
C5411 C5410 1.524 . S
C5411 C5412 1.415 . S
C5412 H5388 0.950 . S
C5412 C5407 1.363 . S
C5412 C5411 1.415 . S
C5413 H5389 0.951 . S
C5413 C5414 1.366 . S
C5413 C5415 1.388 . S
C5414 C5413 1.366 . S
C5414 C5418 1.385 . S
C5415 H5390 0.951 . S
C5415 C5413 1.388 . S
C5415 C5416 1.366 . S
C5416 C5415 1.366 . S
C5416 C5417 1.414 . S
C5416 C5419 1.499 . S
C5417 H5391 0.950 . S
C5417 C5416 1.414 . S
C5417 C5418 1.374 . S
C5418 H5392 0.950 . S
C5418 C5414 1.385 . S
C5418 C5417 1.374 . S
C5419 C5416 1.499 . S
C5419 C5420 1.373 . S
C5419 C5421 1.389 . S
C5420 H5393 0.950 . S
C5420 C5406 1.377 . S
C5420 C5419 1.373 . S
C5421 C5405 1.377 . S
C5421 C5419 1.389 . S
C5421 C5422 1.524 . S
C5422 C5421 1.524 . S
C5422 C5423 1.397 . S
C5422 C5427 1.363 . S
C5423 H5394 0.950 . S
C5423 C5422 1.397 . S
C5423 C5424 1.334 . S
C5424 H5395 0.962 . S
C5424 C5423 1.334 . S
C5424 C5425 1.287 . S
C5425 C5424 1.287 . S
C5425 C5426 1.524 . S
C5425 H5428 0.999 1_455 S
C5426 H5396 0.950 . S
C5426 C5425 1.524 . S
C5426 C5427 1.415 . S
C5427 H5397 0.950 . S
C5427 C5422 1.363 . S
C5427 C5426 1.415 . S
H5428 C5425 0.999 1_655 S
H5429 C5410 0.913 . S
H5430 C5448 0.951 . S
H5431 C5450 0.951 . S
H5432 C5452 0.950 . S
H5433 C5453 0.950 . S
H5434 C5455 0.950 . S
H5435 C5458 0.950 . S
H5436 C5459 0.950 . S
H5437 C5461 0.950 . S
H5438 C5462 0.950 . S
H5439 C5463 0.951 . S
H5440 C5465 0.951 . S
H5441 C5467 0.950 . S
H5442 C5468 0.950 . S
H5443 C5470 0.950 . S
H5444 C5473 0.950 . S
H5445 C5474 0.950 . S
H5446 C5476 0.950 . S
H5447 C5477 0.950 . S
C5448 H5430 0.951 . S
C5448 C5449 1.366 . S
C5448 C5450 1.388 . S
C5449 C5448 1.366 . S
C5449 C5453 1.385 . S
C5450 H5431 0.951 . S
C5450 C5448 1.388 . S
C5450 C5451 1.366 . S
C5451 C5450 1.366 . S
C5451 C5452 1.414 . S
C5451 C5454 1.499 . S
C5452 H5432 0.950 . S
C5452 C5451 1.414 . S
C5452 C5453 1.374 . S
C5453 H5433 0.950 . S
C5453 C5449 1.385 . S
C5453 C5452 1.374 . S
C5454 C5451 1.499 . S
C5454 C5455 1.373 . S
C5454 C5456 1.389 . S
C5455 H5434 0.950 . S
C5455 C5454 1.373 . S
C5455 C5471 1.377 . S
C5456 C5454 1.389 . S
C5456 C5457 1.524 . S
C5456 C5470 1.377 . S
C5457 C5456 1.524 . S
C5457 C5458 1.397 . S
C5457 C5462 1.363 . S
C5458 H5435 0.950 . S
C5458 C5457 1.397 . S
C5458 C5459 1.334 . S
C5459 H5436 0.950 . S
C5459 C5458 1.334 . S
C5459 C5460 1.287 . S
C5460 C5459 1.287 . S
C5460 C5461 1.524 . S
C5460 H5479 0.913 . S
C5461 H5437 0.950 . S
C5461 C5460 1.524 . S
C5461 C5462 1.415 . S
C5462 H5438 0.950 . S
C5462 C5457 1.363 . S
C5462 C5461 1.415 . S
C5463 H5439 0.951 . S
C5463 C5464 1.366 . S
C5463 C5465 1.388 . S
C5464 C5463 1.366 . S
C5464 C5468 1.385 . S
C5465 H5440 0.951 . S
C5465 C5463 1.388 . S
C5465 C5466 1.366 . S
C5466 C5465 1.366 . S
C5466 C5467 1.414 . S
C5466 C5469 1.499 . S
C5467 H5441 0.950 . S
C5467 C5466 1.414 . S
C5467 C5468 1.374 . S
C5468 H5442 0.950 . S
C5468 C5464 1.385 . S
C5468 C5467 1.374 . S
C5469 C5466 1.499 . S
C5469 C5470 1.373 . S
C5469 C5471 1.389 . S
C5470 H5443 0.950 . S
C5470 C5456 1.377 . S
C5470 C5469 1.373 . S
C5471 C5455 1.377 . S
C5471 C5469 1.389 . S
C5471 C5472 1.524 . S
C5472 C5471 1.524 . S
C5472 C5473 1.397 . S
C5472 C5477 1.363 . S
C5473 H5444 0.950 . S
C5473 C5472 1.397 . S
C5473 C5474 1.334 . S
C5474 H5445 0.950 . S
C5474 C5473 1.334 . S
C5474 C5475 1.287 . S
C5475 C5474 1.287 . S
C5475 C5476 1.524 . S
C5475 H5478 0.999 . S
C5476 H5446 0.950 . S
C5476 C5475 1.524 . S
C5476 C5477 1.415 . S
C5477 H5447 0.950 . S
C5477 C5472 1.363 . S
C5477 C5476 1.415 . S
H5478 C5475 0.999 . S
H5479 C5460 0.913 . S
H5480 C5498 0.951 . S
H5481 C5500 0.951 . S
H5482 C5502 0.950 . S
H5483 C5503 0.950 . S
H5484 C5505 0.950 . S
H5485 C5508 0.950 . S
H5486 C5509 0.950 . S
H5487 C5511 0.950 . S
H5488 C5512 0.950 . S
H5489 C5513 0.922 1_554 S
H5490 C5515 0.951 . S
H5491 C5517 0.950 . S
H5492 C5518 0.950 . S
H5493 C5520 0.950 . S
H5494 C5523 0.950 . S
H5495 C5524 0.950 . S
H5496 C5526 0.950 . S
H5497 C5527 0.950 . S
C5498 H5480 0.951 . S
C5498 C5499 1.366 . S
C5498 C5500 1.388 . S
C5499 C5498 1.366 . S
C5499 C5503 1.385 . S
C5500 H5481 0.951 . S
C5500 C5498 1.388 . S
C5500 C5501 1.366 . S
C5501 C5500 1.366 . S
C5501 C5502 1.414 . S
C5501 C5504 1.499 . S
C5502 H5482 0.950 . S
C5502 C5501 1.414 . S
C5502 C5503 1.374 . S
C5503 H5483 0.950 . S
C5503 C5499 1.385 . S
C5503 C5502 1.374 . S
C5504 C5501 1.499 . S
C5504 C5505 1.373 . S
C5504 C5506 1.389 . S
C5505 H5484 0.950 . S
C5505 C5504 1.373 . S
C5505 C5521 1.377 . S
C5506 C5504 1.389 . S
C5506 C5507 1.524 . S
C5506 C5520 1.377 . S
C5507 C5506 1.524 . S
C5507 C5508 1.397 . S
C5507 C5512 1.363 . S
C5508 H5485 0.950 . S
C5508 C5507 1.397 . S
C5508 C5509 1.334 . S
C5509 H5486 0.950 . S
C5509 C5508 1.334 . S
C5509 C5510 1.287 . S
C5510 C5509 1.287 . S
C5510 C5511 1.524 . S
C5510 H5529 0.913 . S
C5511 H5487 0.950 . S
C5511 C5510 1.524 . S
C5511 C5512 1.415 . S
C5512 H5488 0.950 . S
C5512 C5507 1.363 . S
C5512 C5511 1.415 . S
C5513 H5489 0.922 1_556 S
C5513 C5514 1.372 . S
C5513 C5515 1.411 . S
C5514 C5513 1.372 . S
C5514 C5518 1.385 . S
C5515 H5490 0.951 . S
C5515 C5513 1.411 . S
C5515 C5516 1.366 . S
C5516 C5515 1.366 . S
C5516 C5517 1.414 . S
C5516 C5519 1.499 . S
C5517 H5491 0.950 . S
C5517 C5516 1.414 . S
C5517 C5518 1.374 . S
C5518 H5492 0.950 . S
C5518 C5514 1.385 . S
C5518 C5517 1.374 . S
C5519 C5516 1.499 . S
C5519 C5520 1.373 . S
C5519 C5521 1.389 . S
C5520 H5493 0.950 . S
C5520 C5506 1.377 . S
C5520 C5519 1.373 . S
C5521 C5505 1.377 . S
C5521 C5519 1.389 . S
C5521 C5522 1.524 . S
C5522 C5521 1.524 . S
C5522 C5523 1.397 . S
C5522 C5527 1.363 . S
C5523 H5494 0.950 . S
C5523 C5522 1.397 . S
C5523 C5524 1.334 . S
C5524 H5495 0.950 . S
C5524 C5523 1.334 . S
C5524 C5525 1.287 . S
C5525 C5524 1.287 . S
C5525 C5526 1.524 . S
C5525 H5528 0.999 . S
C5526 H5496 0.950 . S
C5526 C5525 1.524 . S
C5526 C5527 1.415 . S
C5527 H5497 0.950 . S
C5527 C5522 1.363 . S
C5527 C5526 1.415 . S
H5528 C5525 0.999 . S
H5529 C5510 0.913 . S
H5530 C5548 0.951 . S
H5531 C5550 0.951 . S
H5532 C5552 0.950 . S
H5533 C5553 0.950 . S
H5534 C5555 0.950 . S
H5535 C5558 0.950 . S
H5536 C5559 0.950 . S
H5537 C5561 0.950 . S
H5538 C5562 0.950 . S
H5539 C5563 0.951 . S
H5540 C5565 0.951 . S
H5541 C5567 0.950 . S
H5542 C5568 0.950 . S
H5543 C5570 0.950 . S
H5544 C5573 0.950 . S
H5545 C5574 0.950 . S
H5546 C5576 0.950 . S
H5547 C5577 0.950 . S
C5548 H5530 0.951 . S
C5548 C5549 1.366 . S
C5548 C5550 1.388 . S
C5549 C5548 1.366 . S
C5549 C5553 1.385 . S
C5550 H5531 0.951 . S
C5550 C5548 1.388 . S
C5550 C5551 1.366 . S
C5551 C5550 1.366 . S
C5551 C5552 1.414 . S
C5551 C5554 1.499 . S
C5552 H5532 0.950 . S
C5552 C5551 1.414 . S
C5552 C5553 1.374 . S
C5553 H5533 0.950 . S
C5553 C5549 1.385 . S
C5553 C5552 1.374 . S
C5554 C5551 1.499 . S
C5554 C5555 1.373 . S
C5554 C5556 1.389 . S
C5555 H5534 0.950 . S
C5555 C5554 1.373 . S
C5555 C5571 1.377 . S
C5556 C5554 1.389 . S
C5556 C5557 1.524 . S
C5556 C5570 1.377 . S
C5557 C5556 1.524 . S
C5557 C5558 1.397 . S
C5557 C5562 1.363 . S
C5558 H5535 0.950 . S
C5558 C5557 1.397 . S
C5558 C5559 1.334 . S
C5559 H5536 0.950 . S
C5559 C5558 1.334 . S
C5559 C5560 1.287 . S
C5560 C5559 1.287 . S
C5560 C5561 1.524 . S
C5560 H5579 0.913 . S
C5561 H5537 0.950 . S
C5561 C5560 1.524 . S
C5561 C5562 1.415 . S
C5562 H5538 0.950 . S
C5562 C5557 1.363 . S
C5562 C5561 1.415 . S
C5563 H5539 0.951 . S
C5563 C5564 1.366 . S
C5563 C5565 1.388 . S
C5564 C5563 1.366 . S
C5564 C5568 1.385 . S
C5565 H5540 0.951 . S
C5565 C5563 1.388 . S
C5565 C5566 1.366 . S
C5566 C5565 1.366 . S
C5566 C5567 1.414 . S
C5566 C5569 1.499 . S
C5567 H5541 0.950 . S
C5567 C5566 1.414 . S
C5567 C5568 1.374 . S
C5568 H5542 0.950 . S
C5568 C5564 1.385 . S
C5568 C5567 1.374 . S
C5569 C5566 1.499 . S
C5569 C5570 1.373 . S
C5569 C5571 1.389 . S
C5570 H5543 0.950 . S
C5570 C5556 1.377 . S
C5570 C5569 1.373 . S
C5571 C5555 1.377 . S
C5571 C5569 1.389 . S
C5571 C5572 1.524 . S
C5572 C5571 1.524 . S
C5572 C5573 1.397 . S
C5572 C5577 1.363 . S
C5573 H5544 0.950 . S
C5573 C5572 1.397 . S
C5573 C5574 1.334 . S
C5574 H5545 0.950 . S
C5574 C5573 1.334 . S
C5574 C5575 1.287 . S
C5575 C5574 1.287 . S
C5575 C5576 1.524 . S
C5575 H5578 0.999 . S
C5576 H5546 0.950 . S
C5576 C5575 1.524 . S
C5576 C5577 1.415 . S
C5577 H5547 0.950 . S
C5577 C5572 1.363 . S
C5577 C5576 1.415 . S
H5578 C5575 0.999 . S
H5579 C5560 0.913 . S
H5580 C5598 0.951 . S
H5581 C5600 0.951 . S
H5582 C5602 0.950 . S
H5583 C5603 0.950 . S
H5584 C5605 0.950 . S
H5585 C5608 0.950 . S
H5586 C5609 0.950 . S
H5587 C5611 0.950 . S
H5588 C5612 0.950 . S
H5589 C5613 0.951 . S
H5590 C5615 0.951 . S
H5591 C5617 0.950 . S
H5592 C5618 0.950 . S
H5593 C5620 0.950 . S
H5594 C5623 0.950 . S
H5595 C5624 0.950 . S
H5596 C5626 0.950 . S
H5597 C5627 0.950 . S
C5598 H5580 0.951 . S
C5598 C5599 1.366 . S
C5598 C5600 1.388 . S
C5599 C5598 1.366 . S
C5599 C5603 1.385 . S
C5600 H5581 0.951 . S
C5600 C5598 1.388 . S
C5600 C5601 1.366 . S
C5601 C5600 1.366 . S
C5601 C5602 1.414 . S
C5601 C5604 1.499 . S
C5602 H5582 0.950 . S
C5602 C5601 1.414 . S
C5602 C5603 1.374 . S
C5603 H5583 0.950 . S
C5603 C5599 1.385 . S
C5603 C5602 1.374 . S
C5604 C5601 1.499 . S
C5604 C5605 1.373 . S
C5604 C5606 1.389 . S
C5605 H5584 0.950 . S
C5605 C5604 1.373 . S
C5605 C5621 1.377 . S
C5606 C5604 1.389 . S
C5606 C5607 1.524 . S
C5606 C5620 1.377 . S
C5607 C5606 1.524 . S
C5607 C5608 1.397 . S
C5607 C5612 1.363 . S
C5608 H5585 0.950 . S
C5608 C5607 1.397 . S
C5608 C5609 1.334 . S
C5609 H5586 0.950 . S
C5609 C5608 1.334 . S
C5609 C5610 1.287 . S
C5610 C5609 1.287 . S
C5610 C5611 1.524 . S
C5610 H5629 0.913 . S
C5611 H5587 0.950 . S
C5611 C5610 1.524 . S
C5611 C5612 1.415 . S
C5612 H5588 0.950 . S
C5612 C5607 1.363 . S
C5612 C5611 1.415 . S
C5613 H5589 0.951 . S
C5613 C5614 1.366 . S
C5613 C5615 1.388 . S
C5614 C5613 1.366 . S
C5614 C5618 1.385 . S
C5615 H5590 0.951 . S
C5615 C5613 1.388 . S
C5615 C5616 1.366 . S
C5616 C5615 1.366 . S
C5616 C5617 1.414 . S
C5616 C5619 1.499 . S
C5617 H5591 0.950 . S
C5617 C5616 1.414 . S
C5617 C5618 1.374 . S
C5618 H5592 0.950 . S
C5618 C5614 1.385 . S
C5618 C5617 1.374 . S
C5619 C5616 1.499 . S
C5619 C5620 1.373 . S
C5619 C5621 1.389 . S
C5620 H5593 0.950 . S
C5620 C5606 1.377 . S
C5620 C5619 1.373 . S
C5621 C5605 1.377 . S
C5621 C5619 1.389 . S
C5621 C5622 1.524 . S
C5622 C5621 1.524 . S
C5622 C5623 1.397 . S
C5622 C5627 1.363 . S
C5623 H5594 0.950 . S
C5623 C5622 1.397 . S
C5623 C5624 1.334 . S
C5624 H5595 0.950 . S
C5624 C5623 1.334 . S
C5624 C5625 1.287 . S
C5625 C5624 1.287 . S
C5625 C5626 1.524 . S
C5625 H5628 0.999 . S
C5626 H5596 0.950 . S
C5626 C5625 1.524 . S
C5626 C5627 1.415 . S
C5627 H5597 0.950 . S
C5627 C5622 1.363 . S
C5627 C5626 1.415 . S
H5628 C5625 0.999 . S
H5629 C5610 0.913 . S
H5630 C5648 0.951 . S
H5631 C5650 0.951 . S
H5632 C5652 0.950 . S
H5633 C5653 0.950 . S
H5634 C5655 0.950 . S
H5635 C5658 0.950 . S
H5636 C5659 0.950 . S
H5637 C5661 0.950 . S
H5638 C5662 0.950 . S
H5639 C5663 0.951 . S
H5640 C5665 0.951 . S
H5641 C5667 0.950 . S
H5642 C5668 0.950 . S
H5643 C5670 0.950 . S
H5644 C5673 0.950 . S
H5645 C5674 0.950 . S
H5646 C5676 0.950 . S
H5647 C5677 0.950 . S
C5648 H5630 0.951 . S
C5648 C5649 1.366 . S
C5648 C5650 1.388 . S
C5649 C5648 1.366 . S
C5649 C5653 1.385 . S
C5650 H5631 0.951 . S
C5650 C5648 1.388 . S
C5650 C5651 1.366 . S
C5651 C5650 1.366 . S
C5651 C5652 1.414 . S
C5651 C5654 1.499 . S
C5652 H5632 0.950 . S
C5652 C5651 1.414 . S
C5652 C5653 1.374 . S
C5653 H5633 0.950 . S
C5653 C5649 1.385 . S
C5653 C5652 1.374 . S
C5654 C5651 1.499 . S
C5654 C5655 1.373 . S
C5654 C5656 1.389 . S
C5655 H5634 0.950 . S
C5655 C5654 1.373 . S
C5655 C5671 1.377 . S
C5656 C5654 1.389 . S
C5656 C5657 1.524 . S
C5656 C5670 1.377 . S
C5657 C5656 1.524 . S
C5657 C5658 1.397 . S
C5657 C5662 1.363 . S
C5658 H5635 0.950 . S
C5658 C5657 1.397 . S
C5658 C5659 1.334 . S
C5659 H5636 0.950 . S
C5659 C5658 1.334 . S
C5659 C5660 1.287 . S
C5660 C5659 1.287 . S
C5660 C5661 1.524 . S
C5660 H5679 0.913 . S
C5661 H5637 0.950 . S
C5661 C5660 1.524 . S
C5661 C5662 1.415 . S
C5662 H5638 0.950 . S
C5662 C5657 1.363 . S
C5662 C5661 1.415 . S
C5663 H5639 0.951 . S
C5663 C5664 1.366 . S
C5663 C5665 1.388 . S
C5664 C5663 1.366 . S
C5664 C5668 1.385 . S
C5665 H5640 0.951 . S
C5665 C5663 1.388 . S
C5665 C5666 1.366 . S
C5666 C5665 1.366 . S
C5666 C5667 1.414 . S
C5666 C5669 1.499 . S
C5667 H5641 0.950 . S
C5667 C5666 1.414 . S
C5667 C5668 1.374 . S
C5668 H5642 0.950 . S
C5668 C5664 1.385 . S
C5668 C5667 1.374 . S
C5669 C5666 1.499 . S
C5669 C5670 1.373 . S
C5669 C5671 1.389 . S
C5670 H5643 0.950 . S
C5670 C5656 1.377 . S
C5670 C5669 1.373 . S
C5671 C5655 1.377 . S
C5671 C5669 1.389 . S
C5671 C5672 1.524 . S
C5672 C5671 1.524 . S
C5672 C5673 1.397 . S
C5672 C5677 1.363 . S
C5673 H5644 0.950 . S
C5673 C5672 1.397 . S
C5673 C5674 1.334 . S
C5674 H5645 0.950 . S
C5674 C5673 1.334 . S
C5674 C5675 1.287 . S
C5675 C5674 1.287 . S
C5675 C5676 1.524 . S
C5675 H5678 0.999 . S
C5676 H5646 0.950 . S
C5676 C5675 1.524 . S
C5676 C5677 1.415 . S
C5677 H5647 0.950 . S
C5677 C5672 1.363 . S
C5677 C5676 1.415 . S
H5678 C5675 0.999 . S
H5679 C5660 0.913 . S
H5680 C5698 0.951 . S
H5681 C5700 0.951 . S
H5682 C5702 0.950 . S
H5683 C5703 0.950 . S
H5684 C5705 0.950 . S
H5685 C5708 0.950 . S
H5686 C5709 0.950 . S
H5687 C5711 0.950 . S
H5688 C5712 0.950 . S
H5689 C5713 0.951 . S
H5690 C5715 0.951 . S
H5691 C5717 0.950 . S
H5692 C5718 0.950 . S
H5693 C5720 0.950 . S
H5694 C5723 0.950 . S
H5695 C5724 0.950 . S
H5696 C5726 0.950 . S
H5697 C5727 0.950 . S
C5698 H5680 0.951 . S
C5698 C5699 1.366 . S
C5698 C5700 1.388 . S
C5699 C5698 1.366 . S
C5699 C5703 1.385 . S
C5700 H5681 0.951 . S
C5700 C5698 1.388 . S
C5700 C5701 1.366 . S
C5701 C5700 1.366 . S
C5701 C5702 1.414 . S
C5701 C5704 1.499 . S
C5702 H5682 0.950 . S
C5702 C5701 1.414 . S
C5702 C5703 1.374 . S
C5703 H5683 0.950 . S
C5703 C5699 1.385 . S
C5703 C5702 1.374 . S
C5704 C5701 1.499 . S
C5704 C5705 1.373 . S
C5704 C5706 1.389 . S
C5705 H5684 0.950 . S
C5705 C5704 1.373 . S
C5705 C5721 1.377 . S
C5706 C5704 1.389 . S
C5706 C5707 1.524 . S
C5706 C5720 1.377 . S
C5707 C5706 1.524 . S
C5707 C5708 1.397 . S
C5707 C5712 1.363 . S
C5708 H5685 0.950 . S
C5708 C5707 1.397 . S
C5708 C5709 1.334 . S
C5709 H5686 0.950 . S
C5709 C5708 1.334 . S
C5709 C5710 1.287 . S
C5710 C5709 1.287 . S
C5710 C5711 1.524 . S
C5710 H5729 0.913 . S
C5711 H5687 0.950 . S
C5711 C5710 1.524 . S
C5711 C5712 1.415 . S
C5712 H5688 0.950 . S
C5712 C5707 1.363 . S
C5712 C5711 1.415 . S
C5713 H5689 0.951 . S
C5713 C5714 1.366 . S
C5713 C5715 1.388 . S
C5714 C5713 1.366 . S
C5714 C5718 1.385 . S
C5715 H5690 0.951 . S
C5715 C5713 1.388 . S
C5715 C5716 1.366 . S
C5716 C5715 1.366 . S
C5716 C5717 1.414 . S
C5716 C5719 1.499 . S
C5717 H5691 0.950 . S
C5717 C5716 1.414 . S
C5717 C5718 1.374 . S
C5718 H5692 0.950 . S
C5718 C5714 1.385 . S
C5718 C5717 1.374 . S
C5719 C5716 1.499 . S
C5719 C5720 1.373 . S
C5719 C5721 1.389 . S
C5720 H5693 0.950 . S
C5720 C5706 1.377 . S
C5720 C5719 1.373 . S
C5721 C5705 1.377 . S
C5721 C5719 1.389 . S
C5721 C5722 1.524 . S
C5722 C5721 1.524 . S
C5722 C5723 1.397 . S
C5722 C5727 1.363 . S
C5723 H5694 0.950 . S
C5723 C5722 1.397 . S
C5723 C5724 1.334 . S
C5724 H5695 0.950 . S
C5724 C5723 1.334 . S
C5724 C5725 1.287 . S
C5725 C5724 1.287 . S
C5725 C5726 1.524 . S
C5725 H5728 0.999 . S
C5726 H5696 0.950 . S
C5726 C5725 1.524 . S
C5726 C5727 1.415 . S
C5727 H5697 0.950 . S
C5727 C5722 1.363 . S
C5727 C5726 1.415 . S
H5728 C5725 0.999 . S
H5729 C5710 0.913 . S
H5730 C5748 0.951 . S
H5731 C5750 0.951 . S
H5732 C5752 0.950 . S
H5733 C5753 0.950 . S
H5734 C5755 0.950 . S
H5735 C5758 0.950 . S
H5736 C5759 0.950 . S
H5737 C5761 0.950 . S
H5738 C5762 0.950 . S
H5739 C5763 0.951 . S
H5740 C5765 0.951 . S
H5741 C5767 0.950 . S
H5742 C5768 0.950 . S
H5743 C5770 0.950 . S
H5744 C5773 0.950 . S
H5745 C5774 0.950 . S
H5746 C5776 0.950 . S
H5747 C5777 0.950 . S
C5748 H5730 0.951 . S
C5748 C5749 1.366 . S
C5748 C5750 1.388 . S
C5749 C5748 1.366 . S
C5749 C5753 1.385 . S
C5750 H5731 0.951 . S
C5750 C5748 1.388 . S
C5750 C5751 1.366 . S
C5751 C5750 1.366 . S
C5751 C5752 1.414 . S
C5751 C5754 1.499 . S
C5752 H5732 0.950 . S
C5752 C5751 1.414 . S
C5752 C5753 1.374 . S
C5753 H5733 0.950 . S
C5753 C5749 1.385 . S
C5753 C5752 1.374 . S
C5754 C5751 1.499 . S
C5754 C5755 1.373 . S
C5754 C5756 1.389 . S
C5755 H5734 0.950 . S
C5755 C5754 1.373 . S
C5755 C5771 1.377 . S
C5756 C5754 1.389 . S
C5756 C5757 1.524 . S
C5756 C5770 1.377 . S
C5757 C5756 1.524 . S
C5757 C5758 1.397 . S
C5757 C5762 1.363 . S
C5758 H5735 0.950 . S
C5758 C5757 1.397 . S
C5758 C5759 1.334 . S
C5759 H5736 0.950 . S
C5759 C5758 1.334 . S
C5759 C5760 1.287 . S
C5760 C5759 1.287 . S
C5760 C5761 1.524 . S
C5760 H5779 0.913 . S
C5761 H5737 0.950 . S
C5761 C5760 1.524 . S
C5761 C5762 1.415 . S
C5762 H5738 0.950 . S
C5762 C5757 1.363 . S
C5762 C5761 1.415 . S
C5763 H5739 0.951 . S
C5763 C5764 1.366 . S
C5763 C5765 1.388 . S
C5764 C5763 1.366 . S
C5764 C5768 1.385 . S
C5765 H5740 0.951 . S
C5765 C5763 1.388 . S
C5765 C5766 1.366 . S
C5766 C5765 1.366 . S
C5766 C5767 1.414 . S
C5766 C5769 1.499 . S
C5767 H5741 0.950 . S
C5767 C5766 1.414 . S
C5767 C5768 1.374 . S
C5768 H5742 0.950 . S
C5768 C5764 1.385 . S
C5768 C5767 1.374 . S
C5769 C5766 1.499 . S
C5769 C5770 1.373 . S
C5769 C5771 1.389 . S
C5770 H5743 0.950 . S
C5770 C5756 1.377 . S
C5770 C5769 1.373 . S
C5771 C5755 1.377 . S
C5771 C5769 1.389 . S
C5771 C5772 1.524 . S
C5772 C5771 1.524 . S
C5772 C5773 1.397 . S
C5772 C5777 1.363 . S
C5773 H5744 0.950 . S
C5773 C5772 1.397 . S
C5773 C5774 1.334 . S
C5774 H5745 0.950 . S
C5774 C5773 1.334 . S
C5774 C5775 1.287 . S
C5775 C5774 1.287 . S
C5775 C5776 1.524 . S
C5775 H5778 0.999 . S
C5776 H5746 0.950 . S
C5776 C5775 1.524 . S
C5776 C5777 1.415 . S
C5777 H5747 0.950 . S
C5777 C5772 1.363 . S
C5777 C5776 1.415 . S
H5778 C5775 0.999 . S
H5779 C5760 0.913 . S
H5780 C5798 0.951 . S
H5781 C5800 0.951 . S
H5782 C5802 0.950 . S
H5783 C5803 0.950 . S
H5784 C5805 0.950 . S
H5785 C5808 0.950 . S
H5786 C5809 0.950 . S
H5787 C5811 0.950 . S
H5788 C5812 0.950 . S
H5789 C5813 0.951 . S
H5790 C5815 0.951 . S
H5791 C5817 0.950 1_655 S
H5792 C5818 0.958 . S
H5793 C5820 0.950 . S
H5794 C5823 0.950 . S
H5795 C5824 0.950 . S
H5796 C5826 0.950 . S
H5797 C5827 0.950 . S
C5798 H5780 0.951 . S
C5798 C5799 1.366 . S
C5798 C5800 1.388 . S
C5799 C5798 1.366 . S
C5799 C5803 1.385 . S
C5800 H5781 0.951 . S
C5800 C5798 1.388 . S
C5800 C5801 1.366 . S
C5801 C5800 1.366 . S
C5801 C5802 1.414 . S
C5801 C5804 1.499 . S
C5802 H5782 0.950 . S
C5802 C5801 1.414 . S
C5802 C5803 1.374 . S
C5803 H5783 0.950 . S
C5803 C5799 1.385 . S
C5803 C5802 1.374 . S
C5804 C5801 1.499 . S
C5804 C5805 1.373 . S
C5804 C5806 1.389 . S
C5805 H5784 0.950 . S
C5805 C5804 1.373 . S
C5805 C5821 1.377 1_655 S
C5806 C5804 1.389 . S
C5806 C5807 1.524 . S
C5806 C5820 1.377 . S
C5807 C5806 1.524 . S
C5807 C5808 1.397 . S
C5807 C5812 1.363 . S
C5808 H5785 0.950 . S
C5808 C5807 1.397 . S
C5808 C5809 1.334 . S
C5809 H5786 0.950 . S
C5809 C5808 1.334 . S
C5809 C5810 1.287 . S
C5810 C5809 1.287 . S
C5810 C5811 1.524 . S
C5810 H5829 0.913 . S
C5811 H5787 0.950 . S
C5811 C5810 1.524 . S
C5811 C5812 1.415 . S
C5812 H5788 0.950 . S
C5812 C5807 1.363 . S
C5812 C5811 1.415 . S
C5813 H5789 0.951 . S
C5813 C5814 1.366 . S
C5813 C5815 1.388 . S
C5814 C5813 1.366 . S
C5814 C5818 1.385 . S
C5815 H5790 0.951 . S
C5815 C5813 1.388 . S
C5815 C5816 1.366 . S
C5816 C5815 1.366 . S
C5816 C5817 1.414 . S
C5816 C5819 1.499 1_455 S
C5817 H5791 0.950 1_455 S
C5817 C5816 1.414 . S
C5817 C5818 1.374 . S
C5818 H5792 0.958 . S
C5818 C5814 1.385 . S
C5818 C5817 1.374 . S
C5819 C5816 1.499 1_655 S
C5819 C5820 1.373 . S
C5819 C5821 1.389 1_655 S
C5820 H5793 0.950 . S
C5820 C5806 1.377 . S
C5820 C5819 1.373 . S
C5821 C5805 1.377 1_455 S
C5821 C5819 1.389 1_455 S
C5821 C5822 1.524 . S
C5822 C5821 1.524 . S
C5822 C5823 1.397 . S
C5822 C5827 1.363 . S
C5823 H5794 0.950 . S
C5823 C5822 1.397 . S
C5823 C5824 1.334 . S
C5824 H5795 0.950 . S
C5824 C5823 1.334 . S
C5824 C5825 1.287 . S
C5825 C5824 1.287 . S
C5825 C5826 1.524 . S
C5825 H5828 0.999 . S
C5826 H5796 0.950 . S
C5826 C5825 1.524 . S
C5826 C5827 1.415 . S
C5827 H5797 0.950 . S
C5827 C5822 1.363 . S
C5827 C5826 1.415 . S
H5828 C5825 0.999 . S
H5829 C5810 0.913 . S
H5830 C5848 0.951 . S
H5831 C5850 0.951 . S
H5832 C5852 0.950 . S
H5833 C5853 0.950 . S
H5834 C5855 0.950 . S
H5835 C5858 0.950 . S
H5836 C5859 0.950 . S
H5837 C5861 0.950 . S
H5838 C5862 0.950 . S
H5839 C5863 0.951 . S
H5840 C5865 0.951 . S
H5841 C5867 0.950 . S
H5842 C5868 0.950 . S
H5843 C5870 0.950 . S
H5844 C5873 0.950 . S
H5845 C5874 0.950 . S
H5846 C5876 0.950 . S
H5847 C5877 0.950 . S
C5848 H5830 0.951 . S
C5848 C5849 1.366 . S
C5848 C5850 1.388 . S
C5849 C5848 1.366 . S
C5849 C5853 1.385 . S
C5850 H5831 0.951 . S
C5850 C5848 1.388 . S
C5850 C5851 1.366 . S
C5851 C5850 1.366 . S
C5851 C5852 1.414 . S
C5851 C5854 1.499 . S
C5852 H5832 0.950 . S
C5852 C5851 1.414 . S
C5852 C5853 1.374 . S
C5853 H5833 0.950 . S
C5853 C5849 1.385 . S
C5853 C5852 1.374 . S
C5854 C5851 1.499 . S
C5854 C5855 1.373 . S
C5854 C5856 1.389 . S
C5855 H5834 0.950 . S
C5855 C5854 1.373 . S
C5855 C5871 1.377 . S
C5856 C5854 1.389 . S
C5856 C5857 1.524 . S
C5856 C5870 1.377 . S
C5857 C5856 1.524 . S
C5857 C5858 1.397 . S
C5857 C5862 1.363 . S
C5858 H5835 0.950 . S
C5858 C5857 1.397 . S
C5858 C5859 1.334 . S
C5859 H5836 0.950 . S
C5859 C5858 1.334 . S
C5859 C5860 1.287 . S
C5860 C5859 1.287 . S
C5860 C5861 1.524 . S
C5860 H5879 0.913 . S
C5861 H5837 0.950 . S
C5861 C5860 1.524 . S
C5861 C5862 1.415 . S
C5862 H5838 0.950 . S
C5862 C5857 1.363 . S
C5862 C5861 1.415 . S
C5863 H5839 0.951 . S
C5863 C5864 1.366 . S
C5863 C5865 1.388 . S
C5864 C5863 1.366 . S
C5864 C5868 1.385 . S
C5865 H5840 0.951 . S
C5865 C5863 1.388 . S
C5865 C5866 1.366 . S
C5866 C5865 1.366 . S
C5866 C5867 1.414 . S
C5866 C5869 1.499 . S
C5867 H5841 0.950 . S
C5867 C5866 1.414 . S
C5867 C5868 1.374 . S
C5868 H5842 0.950 . S
C5868 C5864 1.385 . S
C5868 C5867 1.374 . S
C5869 C5866 1.499 . S
C5869 C5870 1.373 . S
C5869 C5871 1.389 . S
C5870 H5843 0.950 . S
C5870 C5856 1.377 . S
C5870 C5869 1.373 . S
C5871 C5855 1.377 . S
C5871 C5869 1.389 . S
C5871 C5872 1.524 . S
C5872 C5871 1.524 . S
C5872 C5873 1.397 . S
C5872 C5877 1.363 . S
C5873 H5844 0.950 . S
C5873 C5872 1.397 . S
C5873 C5874 1.334 . S
C5874 H5845 0.950 . S
C5874 C5873 1.334 . S
C5874 C5875 1.287 . S
C5875 C5874 1.287 . S
C5875 C5876 1.524 . S
C5875 H5878 0.999 . S
C5876 H5846 0.950 . S
C5876 C5875 1.524 . S
C5876 C5877 1.415 . S
C5877 H5847 0.950 . S
C5877 C5872 1.363 . S
C5877 C5876 1.415 . S
H5878 C5875 0.999 . S
H5879 C5860 0.913 . S
H5880 C5898 0.951 . S
H5881 C5900 0.951 . S
H5882 C5902 0.950 . S
H5883 C5903 0.950 . S
H5884 C5905 0.950 . S
H5885 C5908 0.950 . S
H5886 C5909 0.950 . S
H5887 C5911 0.950 . S
H5888 C5912 0.950 . S
H5889 C5913 0.951 . S
H5890 C5915 0.951 . S
H5891 C5917 0.950 . S
H5892 C5918 0.950 . S
H5893 C5920 0.950 . S
H5894 C5923 0.950 . S
H5895 C5924 0.950 . S
H5896 C5926 0.950 . S
H5897 C5927 0.950 . S
C5898 H5880 0.951 . S
C5898 C5899 1.366 . S
C5898 C5900 1.388 . S
C5899 C5898 1.366 . S
C5899 C5903 1.385 . S
C5900 H5881 0.951 . S
C5900 C5898 1.388 . S
C5900 C5901 1.366 . S
C5901 C5900 1.366 . S
C5901 C5902 1.414 . S
C5901 C5904 1.499 . S
C5902 H5882 0.950 . S
C5902 C5901 1.414 . S
C5902 C5903 1.374 . S
C5903 H5883 0.950 . S
C5903 C5899 1.385 . S
C5903 C5902 1.374 . S
C5904 C5901 1.499 . S
C5904 C5905 1.373 . S
C5904 C5906 1.389 . S
C5905 H5884 0.950 . S
C5905 C5904 1.373 . S
C5905 C5921 1.377 . S
C5906 C5904 1.389 . S
C5906 C5907 1.524 . S
C5906 C5920 1.377 . S
C5907 C5906 1.524 . S
C5907 C5908 1.397 . S
C5907 C5912 1.363 . S
C5908 H5885 0.950 . S
C5908 C5907 1.397 . S
C5908 C5909 1.334 . S
C5909 H5886 0.950 . S
C5909 C5908 1.334 . S
C5909 C5910 1.287 . S
C5910 C5909 1.287 . S
C5910 C5911 1.524 . S
C5910 H5929 0.913 . S
C5911 H5887 0.950 . S
C5911 C5910 1.524 . S
C5911 C5912 1.415 . S
C5912 H5888 0.950 . S
C5912 C5907 1.363 . S
C5912 C5911 1.415 . S
C5913 H5889 0.951 . S
C5913 C5914 1.366 . S
C5913 C5915 1.388 . S
C5914 C5913 1.366 . S
C5914 C5918 1.385 . S
C5915 H5890 0.951 . S
C5915 C5913 1.388 . S
C5915 C5916 1.366 . S
C5916 C5915 1.366 . S
C5916 C5917 1.414 . S
C5916 C5919 1.499 . S
C5917 H5891 0.950 . S
C5917 C5916 1.414 . S
C5917 C5918 1.374 . S
C5918 H5892 0.950 . S
C5918 C5914 1.385 . S
C5918 C5917 1.374 . S
C5919 C5916 1.499 . S
C5919 C5920 1.373 . S
C5919 C5921 1.389 . S
C5920 H5893 0.950 . S
C5920 C5906 1.377 . S
C5920 C5919 1.373 . S
C5921 C5905 1.377 . S
C5921 C5919 1.389 . S
C5921 C5922 1.524 . S
C5922 C5921 1.524 . S
C5922 C5923 1.397 . S
C5922 C5927 1.363 . S
C5923 H5894 0.950 . S
C5923 C5922 1.397 . S
C5923 C5924 1.334 . S
C5924 H5895 0.950 . S
C5924 C5923 1.334 . S
C5924 C5925 1.287 . S
C5925 C5924 1.287 . S
C5925 C5926 1.524 . S
C5925 H5928 0.999 . S
C5926 H5896 0.950 . S
C5926 C5925 1.524 . S
C5926 C5927 1.415 . S
C5927 H5897 0.950 . S
C5927 C5922 1.363 . S
C5927 C5926 1.415 . S
H5928 C5925 0.999 . S
H5929 C5910 0.913 . S
H5930 C5948 0.951 . S
H5931 C5950 0.951 . S
H5932 C5952 0.950 . S
H5933 C5953 0.950 . S
H5934 C5955 0.950 . S
H5935 C5958 0.950 . S
H5936 C5959 0.950 . S
H5937 C5961 0.950 . S
H5938 C5962 0.950 . S
H5939 C5963 0.951 . S
H5940 C5965 0.951 . S
H5941 C5967 0.950 . S
H5942 C5968 0.950 . S
H5943 C5970 0.950 . S
H5944 C5973 0.950 . S
H5945 C5974 0.950 . S
H5946 C5976 0.950 . S
H5947 C5977 0.950 . S
C5948 H5930 0.951 . S
C5948 C5949 1.366 . S
C5948 C5950 1.388 . S
C5949 C5948 1.366 . S
C5949 C5953 1.385 . S
C5950 H5931 0.951 . S
C5950 C5948 1.388 . S
C5950 C5951 1.366 . S
C5951 C5950 1.366 . S
C5951 C5952 1.414 . S
C5951 C5954 1.499 . S
C5952 H5932 0.950 . S
C5952 C5951 1.414 . S
C5952 C5953 1.374 . S
C5953 H5933 0.950 . S
C5953 C5949 1.385 . S
C5953 C5952 1.374 . S
C5954 C5951 1.499 . S
C5954 C5955 1.373 . S
C5954 C5956 1.389 . S
C5955 H5934 0.950 . S
C5955 C5954 1.373 . S
C5955 C5971 1.377 . S
C5956 C5954 1.389 . S
C5956 C5957 1.524 . S
C5956 C5970 1.377 . S
C5957 C5956 1.524 . S
C5957 C5958 1.397 . S
C5957 C5962 1.363 . S
C5958 H5935 0.950 . S
C5958 C5957 1.397 . S
C5958 C5959 1.334 . S
C5959 H5936 0.950 . S
C5959 C5958 1.334 . S
C5959 C5960 1.287 . S
C5960 C5959 1.287 . S
C5960 C5961 1.524 . S
C5960 H5979 0.913 . S
C5961 H5937 0.950 . S
C5961 C5960 1.524 . S
C5961 C5962 1.415 . S
C5962 H5938 0.950 . S
C5962 C5957 1.363 . S
C5962 C5961 1.415 . S
C5963 H5939 0.951 . S
C5963 C5964 1.366 . S
C5963 C5965 1.388 . S
C5964 C5963 1.366 . S
C5964 C5968 1.385 . S
C5965 H5940 0.951 . S
C5965 C5963 1.388 . S
C5965 C5966 1.366 . S
C5966 C5965 1.366 . S
C5966 C5967 1.414 . S
C5966 C5969 1.499 . S
C5967 H5941 0.950 . S
C5967 C5966 1.414 . S
C5967 C5968 1.374 . S
C5968 H5942 0.950 . S
C5968 C5964 1.385 . S
C5968 C5967 1.374 . S
C5969 C5966 1.499 . S
C5969 C5970 1.373 . S
C5969 C5971 1.389 . S
C5970 H5943 0.950 . S
C5970 C5956 1.377 . S
C5970 C5969 1.373 . S
C5971 C5955 1.377 . S
C5971 C5969 1.389 . S
C5971 C5972 1.524 . S
C5972 C5971 1.524 . S
C5972 C5973 1.397 . S
C5972 C5977 1.363 . S
C5973 H5944 0.950 . S
C5973 C5972 1.397 . S
C5973 C5974 1.334 . S
C5974 H5945 0.950 . S
C5974 C5973 1.334 . S
C5974 C5975 1.287 . S
C5975 C5974 1.287 . S
C5975 C5976 1.524 . S
C5975 H5978 0.999 . S
C5976 H5946 0.950 . S
C5976 C5975 1.524 . S
C5976 C5977 1.415 . S
C5977 H5947 0.950 . S
C5977 C5972 1.363 . S
C5977 C5976 1.415 . S
H5978 C5975 0.999 . S
H5979 C5960 0.913 . S
H5980 C5998 0.951 . S
H5981 C6000 0.951 . S
H5982 C6002 0.950 . S
H5983 C6003 0.950 . S
H5984 C6005 0.950 . S
H5985 C6008 0.950 . S
H5986 C6009 0.950 . S
H5987 C6011 0.950 . S
H5988 C6012 0.950 . S
H5989 C6013 0.951 . S
H5990 C6015 0.951 . S
H5991 C6017 0.950 . S
H5992 C6018 0.950 . S
H5993 C6020 0.950 . S
H5994 C6023 0.950 . S
H5995 C6024 0.950 . S
H5996 C6026 0.950 . S
H5997 C6027 0.950 . S
C5998 H5980 0.951 . S
C5998 C5999 1.366 . S
C5998 C6000 1.388 . S
C5999 C5998 1.366 . S
C5999 C6003 1.385 . S
C6000 H5981 0.951 . S
C6000 C5998 1.388 . S
C6000 C6001 1.366 . S
C6001 C6000 1.366 . S
C6001 C6002 1.414 . S
C6001 C6004 1.499 . S
C6002 H5982 0.950 . S
C6002 C6001 1.414 . S
C6002 C6003 1.374 . S
C6003 H5983 0.950 . S
C6003 C5999 1.385 . S
C6003 C6002 1.374 . S
C6004 C6001 1.499 . S
C6004 C6005 1.373 . S
C6004 C6006 1.389 . S
C6005 H5984 0.950 . S
C6005 C6004 1.373 . S
C6005 C6021 1.377 . S
C6006 C6004 1.389 . S
C6006 C6007 1.524 . S
C6006 C6020 1.377 . S
C6007 C6006 1.524 . S
C6007 C6008 1.397 . S
C6007 C6012 1.363 . S
C6008 H5985 0.950 . S
C6008 C6007 1.397 . S
C6008 C6009 1.334 . S
C6009 H5986 0.950 . S
C6009 C6008 1.334 . S
C6009 C6010 1.287 . S
C6010 C6009 1.287 . S
C6010 C6011 1.524 . S
C6010 H6029 0.913 . S
C6011 H5987 0.950 . S
C6011 C6010 1.524 . S
C6011 C6012 1.415 . S
C6012 H5988 0.950 . S
C6012 C6007 1.363 . S
C6012 C6011 1.415 . S
C6013 H5989 0.951 . S
C6013 C6014 1.366 . S
C6013 C6015 1.388 . S
C6014 C6013 1.366 . S
C6014 C6018 1.385 1_455 S
C6015 H5990 0.951 . S
C6015 C6013 1.388 . S
C6015 C6016 1.366 1_455 S
C6016 C6015 1.366 1_655 S
C6016 C6017 1.414 . S
C6016 C6019 1.499 . S
C6017 H5991 0.950 . S
C6017 C6016 1.414 . S
C6017 C6018 1.374 . S
C6018 H5992 0.950 . S
C6018 C6014 1.385 1_655 S
C6018 C6017 1.374 . S
C6019 C6016 1.499 . S
C6019 C6020 1.373 . S
C6019 C6021 1.389 . S
C6020 H5993 0.950 . S
C6020 C6006 1.377 . S
C6020 C6019 1.373 . S
C6021 C6005 1.377 . S
C6021 C6019 1.389 . S
C6021 C6022 1.524 . S
C6022 C6021 1.524 . S
C6022 C6023 1.397 . S
C6022 C6027 1.363 . S
C6023 H5994 0.950 . S
C6023 C6022 1.397 . S
C6023 C6024 1.334 . S
C6024 H5995 0.950 . S
C6024 C6023 1.334 . S
C6024 C6025 1.287 . S
C6025 C6024 1.287 . S
C6025 C6026 1.524 . S
C6025 H6028 0.999 . S
C6026 H5996 0.950 . S
C6026 C6025 1.524 . S
C6026 C6027 1.415 . S
C6027 H5997 0.950 . S
C6027 C6022 1.363 . S
C6027 C6026 1.415 . S
H6028 C6025 0.999 . S
H6029 C6010 0.913 . S
H6030 C6048 0.951 . S
H6031 C6050 0.951 . S
H6032 C6052 0.950 . S
H6033 C6053 0.950 . S
H6034 C6055 0.950 . S
H6035 C6058 0.950 . S
H6036 C6059 0.950 . S
H6037 C6061 0.950 . S
H6038 C6062 0.950 . S
H6039 C6063 0.951 . S
H6040 C6065 0.951 . S
H6041 C6067 0.950 . S
H6042 C6068 0.950 . S
H6043 C6070 0.950 . S
H6044 C6073 0.950 . S
H6045 C6074 0.950 . S
H6046 C6076 0.950 . S
H6047 C6077 0.950 . S
C6048 H6030 0.951 . S
C6048 C6049 1.366 . S
C6048 C6050 1.388 . S
C6049 C6048 1.366 . S
C6049 C6053 1.385 . S
C6050 H6031 0.951 . S
C6050 C6048 1.388 . S
C6050 C6051 1.366 . S
C6051 C6050 1.366 . S
C6051 C6052 1.414 . S
C6051 C6054 1.499 . S
C6052 H6032 0.950 . S
C6052 C6051 1.414 . S
C6052 C6053 1.374 . S
C6053 H6033 0.950 . S
C6053 C6049 1.385 . S
C6053 C6052 1.374 . S
C6054 C6051 1.499 . S
C6054 C6055 1.373 . S
C6054 C6056 1.389 . S
C6055 H6034 0.950 . S
C6055 C6054 1.373 . S
C6055 C6071 1.377 . S
C6056 C6054 1.389 . S
C6056 C6057 1.524 . S
C6056 C6070 1.377 . S
C6057 C6056 1.524 . S
C6057 C6058 1.397 . S
C6057 C6062 1.363 . S
C6058 H6035 0.950 . S
C6058 C6057 1.397 . S
C6058 C6059 1.334 . S
C6059 H6036 0.950 . S
C6059 C6058 1.334 . S
C6059 C6060 1.287 . S
C6060 C6059 1.287 . S
C6060 C6061 1.524 . S
C6060 H6079 0.913 . S
C6061 H6037 0.950 . S
C6061 C6060 1.524 . S
C6061 C6062 1.415 . S
C6062 H6038 0.950 . S
C6062 C6057 1.363 . S
C6062 C6061 1.415 . S
C6063 H6039 0.951 . S
C6063 C6064 1.366 . S
C6063 C6065 1.388 . S
C6064 C6063 1.366 . S
C6064 C6068 1.385 . S
C6065 H6040 0.951 . S
C6065 C6063 1.388 . S
C6065 C6066 1.366 . S
C6066 C6065 1.366 . S
C6066 C6067 1.414 . S
C6066 C6069 1.499 . S
C6067 H6041 0.950 . S
C6067 C6066 1.414 . S
C6067 C6068 1.374 . S
C6068 H6042 0.950 . S
C6068 C6064 1.385 . S
C6068 C6067 1.374 . S
C6069 C6066 1.499 . S
C6069 C6070 1.373 . S
C6069 C6071 1.389 . S
C6070 H6043 0.950 . S
C6070 C6056 1.377 . S
C6070 C6069 1.373 . S
C6071 C6055 1.377 . S
C6071 C6069 1.389 . S
C6071 C6072 1.524 . S
C6072 C6071 1.524 . S
C6072 C6073 1.397 . S
C6072 C6077 1.363 . S
C6073 H6044 0.950 . S
C6073 C6072 1.397 . S
C6073 C6074 1.334 . S
C6074 H6045 0.950 . S
C6074 C6073 1.334 . S
C6074 C6075 1.287 . S
C6075 C6074 1.287 . S
C6075 C6076 1.524 . S
C6075 H6078 0.999 . S
C6076 H6046 0.950 . S
C6076 C6075 1.524 . S
C6076 C6077 1.415 . S
C6077 H6047 0.950 . S
C6077 C6072 1.363 . S
C6077 C6076 1.415 . S
H6078 C6075 0.999 . S
H6079 C6060 0.913 . S
H6080 C6098 0.951 . S
H6081 C6100 0.951 . S
H6082 C6102 0.950 . S
H6083 C6103 0.950 . S
H6084 C6105 0.950 . S
H6085 C6108 0.950 . S
H6086 C6109 0.950 . S
H6087 C6111 0.950 . S
H6088 C6112 0.950 . S
H6089 C6113 0.951 . S
H6090 C6115 0.951 . S
H6091 C6117 0.950 . S
H6092 C6118 0.950 . S
H6093 C6120 0.950 . S
H6094 C6123 0.950 . S
H6095 C6124 0.950 . S
H6096 C6126 0.950 . S
H6097 C6127 0.950 . S
C6098 H6080 0.951 . S
C6098 C6099 1.366 . S
C6098 C6100 1.388 . S
C6099 C6098 1.366 . S
C6099 C6103 1.385 . S
C6100 H6081 0.951 . S
C6100 C6098 1.388 . S
C6100 C6101 1.366 . S
C6101 C6100 1.366 . S
C6101 C6102 1.414 . S
C6101 C6104 1.499 . S
C6102 H6082 0.950 . S
C6102 C6101 1.414 . S
C6102 C6103 1.374 . S
C6103 H6083 0.950 . S
C6103 C6099 1.385 . S
C6103 C6102 1.374 . S
C6104 C6101 1.499 . S
C6104 C6105 1.373 . S
C6104 C6106 1.389 . S
C6105 H6084 0.950 . S
C6105 C6104 1.373 . S
C6105 C6121 1.377 . S
C6106 C6104 1.389 . S
C6106 C6107 1.524 . S
C6106 C6120 1.377 . S
C6107 C6106 1.524 . S
C6107 C6108 1.397 . S
C6107 C6112 1.363 . S
C6108 H6085 0.950 . S
C6108 C6107 1.397 . S
C6108 C6109 1.334 . S
C6109 H6086 0.950 . S
C6109 C6108 1.334 . S
C6109 C6110 1.287 . S
C6110 C6109 1.287 . S
C6110 C6111 1.524 . S
C6110 H6129 0.913 . S
C6111 H6087 0.950 . S
C6111 C6110 1.524 . S
C6111 C6112 1.415 . S
C6112 H6088 0.950 . S
C6112 C6107 1.363 . S
C6112 C6111 1.415 . S
C6113 H6089 0.951 . S
C6113 C6114 1.366 . S
C6113 C6115 1.388 . S
C6114 C6113 1.366 . S
C6114 C6118 1.385 . S
C6115 H6090 0.951 . S
C6115 C6113 1.388 . S
C6115 C6116 1.366 . S
C6116 C6115 1.366 . S
C6116 C6117 1.414 . S
C6116 C6119 1.499 . S
C6117 H6091 0.950 . S
C6117 C6116 1.414 . S
C6117 C6118 1.374 . S
C6118 H6092 0.950 . S
C6118 C6114 1.385 . S
C6118 C6117 1.374 . S
C6119 C6116 1.499 . S
C6119 C6120 1.373 . S
C6119 C6121 1.389 . S
C6120 H6093 0.950 . S
C6120 C6106 1.377 . S
C6120 C6119 1.373 . S
C6121 C6105 1.377 . S
C6121 C6119 1.389 . S
C6121 C6122 1.524 . S
C6122 C6121 1.524 . S
C6122 C6123 1.397 . S
C6122 C6127 1.363 . S
C6123 H6094 0.950 . S
C6123 C6122 1.397 . S
C6123 C6124 1.334 . S
C6124 H6095 0.950 . S
C6124 C6123 1.334 . S
C6124 C6125 1.287 . S
C6125 C6124 1.287 . S
C6125 C6126 1.524 . S
C6125 H6128 0.999 . S
C6126 H6096 0.950 . S
C6126 C6125 1.524 . S
C6126 C6127 1.415 . S
C6127 H6097 0.950 . S
C6127 C6122 1.363 . S
C6127 C6126 1.415 . S
H6128 C6125 0.999 . S
H6129 C6110 0.913 . S
H6130 C6148 0.951 . S
H6131 C6150 0.951 . S
H6132 C6152 0.950 . S
H6133 C6153 0.950 . S
H6134 C6155 0.950 . S
H6135 C6158 0.950 . S
H6136 C6159 0.950 . S
H6137 C6161 0.950 . S
H6138 C6162 0.950 . S
H6139 C6163 0.951 . S
H6140 C6165 0.951 . S
H6141 C6167 0.950 . S
H6142 C6168 0.950 1_455 S
H6143 C6170 0.950 . S
H6144 C6173 0.950 . S
H6145 C6174 0.950 . S
H6146 C6176 0.950 . S
H6147 C6177 0.949 . S
C6148 H6130 0.951 . S
C6148 C6149 1.366 . S
C6148 C6150 1.388 . S
C6149 C6148 1.366 . S
C6149 C6153 1.385 . S
C6150 H6131 0.951 . S
C6150 C6148 1.388 . S
C6150 C6151 1.366 . S
C6151 C6150 1.366 . S
C6151 C6152 1.414 . S
C6151 C6154 1.499 . S
C6152 H6132 0.950 . S
C6152 C6151 1.414 . S
C6152 C6153 1.374 . S
C6153 H6133 0.950 . S
C6153 C6149 1.385 . S
C6153 C6152 1.374 . S
C6154 C6151 1.499 . S
C6154 C6155 1.373 . S
C6154 C6156 1.389 . S
C6155 H6134 0.950 . S
C6155 C6154 1.373 . S
C6155 C6171 1.377 . S
C6156 C6154 1.389 . S
C6156 C6157 1.524 . S
C6156 C6170 1.377 . S
C6157 C6156 1.524 . S
C6157 C6158 1.397 . S
C6157 C6162 1.363 . S
C6158 H6135 0.950 . S
C6158 C6157 1.397 . S
C6158 C6159 1.334 . S
C6159 H6136 0.950 . S
C6159 C6158 1.334 . S
C6159 C6160 1.287 . S
C6160 C6159 1.287 . S
C6160 C6161 1.524 . S
C6160 H6179 0.913 . S
C6161 H6137 0.950 . S
C6161 C6160 1.524 . S
C6161 C6162 1.415 . S
C6162 H6138 0.950 . S
C6162 C6157 1.363 . S
C6162 C6161 1.415 . S
C6163 H6139 0.951 . S
C6163 C6164 1.425 . S
C6163 C6165 1.388 . S
C6164 C6163 1.425 . S
C6164 C6168 1.379 1_545 S
C6165 H6140 0.951 . S
C6165 C6163 1.388 . S
C6165 C6166 1.366 1_545 S
C6166 C6165 1.366 1_565 S
C6166 C6167 1.414 . S
C6166 C6169 1.499 . S
C6167 H6141 0.950 . S
C6167 C6166 1.414 . S
C6167 C6168 1.374 . S
C6168 H6142 0.950 1_655 S
C6168 C6164 1.379 1_565 S
C6168 C6167 1.374 . S
C6169 C6166 1.499 . S
C6169 C6170 1.373 . S
C6169 C6171 1.389 . S
C6170 H6143 0.950 . S
C6170 C6156 1.377 . S
C6170 C6169 1.373 . S
C6171 C6155 1.377 . S
C6171 C6169 1.389 . S
C6171 C6172 1.524 . S
C6172 C6171 1.524 . S
C6172 C6173 1.397 . S
C6172 C6177 1.347 1_565 S
C6173 H6144 0.950 . S
C6173 C6172 1.397 . S
C6173 C6174 1.334 . S
C6174 H6145 0.950 . S
C6174 C6173 1.334 . S
C6174 C6175 1.287 1_565 S
C6175 C6174 1.287 1_545 S
C6175 C6176 1.524 . S
C6175 H6178 0.999 . S
C6176 H6146 0.950 . S
C6176 C6175 1.524 . S
C6176 C6177 1.430 . S
C6177 H6147 0.949 . S
C6177 C6172 1.347 1_545 S
C6177 C6176 1.430 . S
H6178 C6175 0.999 . S
H6179 C6160 0.913 . S
H6180 C6198 0.951 . S
H6181 C6200 0.951 . S
H6182 C6202 0.950 . S
H6183 C6203 0.950 . S
H6184 C6205 0.950 . S
H6185 C6208 0.950 . S
H6186 C6209 0.950 . S
H6187 C6211 0.950 . S
H6188 C6212 0.950 . S
H6189 C6213 0.951 . S
H6190 C6215 0.951 . S
H6191 C6217 0.950 . S
H6192 C6218 0.950 . S
H6193 C6220 0.950 . S
H6194 C6223 0.950 . S
H6195 C6224 0.950 . S
H6196 C6226 0.950 . S
H6197 C6227 0.950 . S
C6198 H6180 0.951 . S
C6198 C6199 1.366 . S
C6198 C6200 1.388 . S
C6199 C6198 1.366 . S
C6199 C6203 1.385 . S
C6200 H6181 0.951 . S
C6200 C6198 1.388 . S
C6200 C6201 1.366 . S
C6201 C6200 1.366 . S
C6201 C6202 1.414 . S
C6201 C6204 1.499 . S
C6202 H6182 0.950 . S
C6202 C6201 1.414 . S
C6202 C6203 1.374 . S
C6203 H6183 0.950 . S
C6203 C6199 1.385 . S
C6203 C6202 1.374 . S
C6204 C6201 1.499 . S
C6204 C6205 1.373 . S
C6204 C6206 1.389 . S
C6205 H6184 0.950 . S
C6205 C6204 1.373 . S
C6205 C6221 1.377 . S
C6206 C6204 1.389 . S
C6206 C6207 1.524 . S
C6206 C6220 1.377 . S
C6207 C6206 1.524 . S
C6207 C6208 1.397 . S
C6207 C6212 1.363 . S
C6208 H6185 0.950 . S
C6208 C6207 1.397 . S
C6208 C6209 1.334 . S
C6209 H6186 0.950 . S
C6209 C6208 1.334 . S
C6209 C6210 1.287 . S
C6210 C6209 1.287 . S
C6210 C6211 1.524 . S
C6210 H6229 0.913 . S
C6211 H6187 0.950 . S
C6211 C6210 1.524 . S
C6211 C6212 1.415 . S
C6212 H6188 0.950 . S
C6212 C6207 1.363 . S
C6212 C6211 1.415 . S
C6213 H6189 0.951 . S
C6213 C6214 1.366 . S
C6213 C6215 1.388 . S
C6214 C6213 1.366 . S
C6214 C6218 1.385 . S
C6215 H6190 0.951 . S
C6215 C6213 1.388 . S
C6215 C6216 1.366 . S
C6216 C6215 1.366 . S
C6216 C6217 1.414 . S
C6216 C6219 1.499 . S
C6217 H6191 0.950 . S
C6217 C6216 1.414 . S
C6217 C6218 1.374 . S
C6218 H6192 0.950 . S
C6218 C6214 1.385 . S
C6218 C6217 1.374 . S
C6219 C6216 1.499 . S
C6219 C6220 1.373 . S
C6219 C6221 1.389 . S
C6220 H6193 0.950 . S
C6220 C6206 1.377 . S
C6220 C6219 1.373 . S
C6221 C6205 1.377 . S
C6221 C6219 1.389 . S
C6221 C6222 1.524 . S
C6222 C6221 1.524 . S
C6222 C6223 1.397 . S
C6222 C6227 1.363 . S
C6223 H6194 0.950 . S
C6223 C6222 1.397 . S
C6223 C6224 1.334 . S
C6224 H6195 0.950 . S
C6224 C6223 1.334 . S
C6224 C6225 1.287 . S
C6225 C6224 1.287 . S
C6225 C6226 1.524 . S
C6225 H6228 0.999 . S
C6226 H6196 0.950 . S
C6226 C6225 1.524 . S
C6226 C6227 1.415 . S
C6227 H6197 0.950 . S
C6227 C6222 1.363 . S
C6227 C6226 1.415 . S
H6228 C6225 0.999 . S
H6229 C6210 0.913 . S
H6230 C6248 0.951 . S
H6231 C6250 0.951 . S
H6232 C6252 0.950 . S
H6233 C6253 0.950 . S
H6234 C6255 0.965 . S
H6235 C6258 0.950 . S
H6236 C6259 0.950 . S
H6237 C6261 0.950 . S
H6238 C6262 0.950 . S
H6239 C6263 0.951 . S
H6240 C6265 0.951 . S
H6241 C6267 0.950 . S
H6242 C6268 0.950 . S
H6243 C6270 0.950 . S
H6244 C6273 0.950 . S
H6245 C6274 0.950 . S
H6246 C6276 0.950 . S
H6247 C6277 0.950 . S
C6248 H6230 0.951 . S
C6248 C6249 1.366 . S
C6248 C6250 1.388 . S
C6249 C6248 1.366 . S
C6249 C6253 1.385 . S
C6250 H6231 0.951 . S
C6250 C6248 1.388 . S
C6250 C6251 1.366 . S
C6251 C6250 1.366 . S
C6251 C6252 1.414 . S
C6251 C6254 1.499 . S
C6252 H6232 0.950 . S
C6252 C6251 1.414 . S
C6252 C6253 1.374 . S
C6253 H6233 0.950 . S
C6253 C6249 1.385 . S
C6253 C6252 1.374 . S
C6254 C6251 1.499 . S
C6254 C6255 1.373 . S
C6254 C6256 1.389 . S
C6255 H6234 0.965 . S
C6255 C6254 1.373 . S
C6255 C6271 1.377 . S
C6256 C6254 1.389 . S
C6256 C6257 1.524 . S
C6256 C6270 1.377 . S
C6257 C6256 1.524 . S
C6257 C6258 1.397 . S
C6257 C6262 1.363 . S
C6258 H6235 0.950 . S
C6258 C6257 1.397 . S
C6258 C6259 1.334 . S
C6259 H6236 0.950 . S
C6259 C6258 1.334 . S
C6259 C6260 1.287 . S
C6260 C6259 1.287 . S
C6260 C6261 1.524 . S
C6260 H6279 0.913 . S
C6261 H6237 0.950 . S
C6261 C6260 1.524 . S
C6261 C6262 1.415 . S
C6262 H6238 0.950 . S
C6262 C6257 1.363 . S
C6262 C6261 1.415 . S
C6263 H6239 0.951 . S
C6263 C6264 1.366 . S
C6263 C6265 1.388 . S
C6264 C6263 1.366 . S
C6264 C6268 1.385 . S
C6265 H6240 0.951 . S
C6265 C6263 1.388 . S
C6265 C6266 1.366 . S
C6266 C6265 1.366 . S
C6266 C6267 1.414 . S
C6266 C6269 1.499 . S
C6267 H6241 0.950 . S
C6267 C6266 1.414 . S
C6267 C6268 1.374 . S
C6268 H6242 0.950 . S
C6268 C6264 1.385 . S
C6268 C6267 1.374 . S
C6269 C6266 1.499 . S
C6269 C6270 1.373 . S
C6269 C6271 1.389 . S
C6270 H6243 0.950 . S
C6270 C6256 1.377 . S
C6270 C6269 1.373 . S
C6271 C6255 1.377 . S
C6271 C6269 1.389 . S
C6271 C6272 1.524 1_554 S
C6272 C6271 1.524 1_556 S
C6272 C6273 1.397 . S
C6272 C6277 1.363 . S
C6273 H6244 0.950 . S
C6273 C6272 1.397 . S
C6273 C6274 1.334 . S
C6274 H6245 0.950 . S
C6274 C6273 1.334 . S
C6274 C6275 1.287 . S
C6275 C6274 1.287 . S
C6275 C6276 1.524 . S
C6275 H6278 0.999 . S
C6276 H6246 0.950 . S
C6276 C6275 1.524 . S
C6276 C6277 1.415 . S
C6277 H6247 0.950 . S
C6277 C6272 1.363 . S
C6277 C6276 1.415 . S
H6278 C6275 0.999 . S
H6279 C6260 0.913 . S
H6280 C6298 0.951 . S
H6281 C6300 0.951 . S
H6282 C6302 0.950 . S
H6283 C6303 0.950 . S
H6284 C6305 0.950 . S
H6285 C6308 0.950 . S
H6286 C6309 0.950 . S
H6287 C6311 0.950 . S
H6288 C6312 0.950 . S
H6289 C6313 0.951 . S
H6290 C6315 0.951 . S
H6291 C6317 0.950 . S
H6292 C6318 0.950 . S
H6293 C6320 0.950 . S
H6294 C6323 0.950 . S
H6295 C6324 0.950 . S
H6296 C6326 0.950 . S
H6297 C6327 0.950 . S
C6298 H6280 0.951 . S
C6298 C6299 1.366 . S
C6298 C6300 1.388 . S
C6299 C6298 1.366 . S
C6299 C6303 1.385 . S
C6300 H6281 0.951 . S
C6300 C6298 1.388 . S
C6300 C6301 1.366 . S
C6301 C6300 1.366 . S
C6301 C6302 1.414 . S
C6301 C6304 1.499 . S
C6302 H6282 0.950 . S
C6302 C6301 1.414 . S
C6302 C6303 1.374 . S
C6303 H6283 0.950 . S
C6303 C6299 1.385 . S
C6303 C6302 1.374 . S
C6304 C6301 1.499 . S
C6304 C6305 1.373 . S
C6304 C6306 1.389 . S
C6305 H6284 0.950 . S
C6305 C6304 1.373 . S
C6305 C6321 1.377 . S
C6306 C6304 1.389 . S
C6306 C6307 1.524 . S
C6306 C6320 1.377 . S
C6307 C6306 1.524 . S
C6307 C6308 1.397 . S
C6307 C6312 1.363 . S
C6308 H6285 0.950 . S
C6308 C6307 1.397 . S
C6308 C6309 1.334 . S
C6309 H6286 0.950 . S
C6309 C6308 1.334 . S
C6309 C6310 1.287 . S
C6310 C6309 1.287 . S
C6310 C6311 1.524 . S
C6310 H6329 0.913 . S
C6311 H6287 0.950 . S
C6311 C6310 1.524 . S
C6311 C6312 1.415 . S
C6312 H6288 0.950 . S
C6312 C6307 1.363 . S
C6312 C6311 1.415 . S
C6313 H6289 0.951 . S
C6313 C6314 1.366 . S
C6313 C6315 1.388 . S
C6314 C6313 1.366 . S
C6314 C6318 1.385 . S
C6315 H6290 0.951 . S
C6315 C6313 1.388 . S
C6315 C6316 1.366 . S
C6316 C6315 1.366 . S
C6316 C6317 1.414 . S
C6316 C6319 1.499 . S
C6317 H6291 0.950 . S
C6317 C6316 1.414 . S
C6317 C6318 1.374 . S
C6318 H6292 0.950 . S
C6318 C6314 1.385 . S
C6318 C6317 1.374 . S
C6319 C6316 1.499 . S
C6319 C6320 1.373 . S
C6319 C6321 1.389 . S
C6320 H6293 0.950 . S
C6320 C6306 1.377 . S
C6320 C6319 1.373 . S
C6321 C6305 1.377 . S
C6321 C6319 1.389 . S
C6321 C6322 1.524 . S
C6322 C6321 1.524 . S
C6322 C6323 1.397 . S
C6322 C6327 1.363 . S
C6323 H6294 0.950 . S
C6323 C6322 1.397 . S
C6323 C6324 1.334 . S
C6324 H6295 0.950 . S
C6324 C6323 1.334 . S
C6324 C6325 1.287 . S
C6325 C6324 1.287 . S
C6325 C6326 1.524 . S
C6325 H6328 0.999 . S
C6326 H6296 0.950 . S
C6326 C6325 1.524 . S
C6326 C6327 1.415 . S
C6327 H6297 0.950 . S
C6327 C6322 1.363 . S
C6327 C6326 1.415 . S
H6328 C6325 0.999 . S
H6329 C6310 0.913 . S
H6330 C6348 0.951 . S
H6331 C6350 0.951 . S
H6332 C6352 0.950 . S
H6333 C6353 0.950 . S
H6334 C6355 0.950 . S
H6335 C6358 0.950 . S
H6336 C6359 0.950 . S
H6337 C6361 0.950 . S
H6338 C6362 0.950 . S
H6339 C6363 0.951 . S
H6340 C6365 0.951 . S
H6341 C6367 0.950 . S
H6342 C6368 0.950 . S
H6343 C6370 0.950 . S
H6344 C6373 0.950 1_554 S
H6345 C6374 0.950 . S
H6346 C6376 0.950 . S
H6347 C6377 0.950 . S
C6348 H6330 0.951 . S
C6348 C6349 1.366 . S
C6348 C6350 1.388 . S
C6349 C6348 1.366 . S
C6349 C6353 1.385 . S
C6350 H6331 0.951 . S
C6350 C6348 1.388 . S
C6350 C6351 1.366 . S
C6351 C6350 1.366 . S
C6351 C6352 1.414 . S
C6351 C6354 1.499 . S
C6352 H6332 0.950 . S
C6352 C6351 1.414 . S
C6352 C6353 1.374 . S
C6353 H6333 0.950 . S
C6353 C6349 1.385 . S
C6353 C6352 1.374 . S
C6354 C6351 1.499 . S
C6354 C6355 1.373 . S
C6354 C6356 1.389 . S
C6355 H6334 0.950 . S
C6355 C6354 1.373 . S
C6355 C6371 1.377 . S
C6356 C6354 1.389 . S
C6356 C6357 1.524 . S
C6356 C6370 1.377 . S
C6357 C6356 1.524 . S
C6357 C6358 1.397 . S
C6357 C6362 1.363 . S
C6358 H6335 0.950 . S
C6358 C6357 1.397 . S
C6358 C6359 1.334 . S
C6359 H6336 0.950 . S
C6359 C6358 1.334 . S
C6359 C6360 1.287 . S
C6360 C6359 1.287 . S
C6360 C6361 1.524 . S
C6360 H6379 0.913 . S
C6361 H6337 0.950 . S
C6361 C6360 1.524 . S
C6361 C6362 1.415 . S
C6362 H6338 0.950 . S
C6362 C6357 1.363 . S
C6362 C6361 1.415 . S
C6363 H6339 0.951 . S
C6363 C6364 1.366 . S
C6363 C6365 1.388 . S
C6364 C6363 1.366 . S
C6364 C6368 1.385 . S
C6365 H6340 0.951 . S
C6365 C6363 1.388 . S
C6365 C6366 1.366 . S
C6366 C6365 1.366 . S
C6366 C6367 1.414 . S
C6366 C6369 1.499 . S
C6367 H6341 0.950 . S
C6367 C6366 1.414 . S
C6367 C6368 1.374 . S
C6368 H6342 0.950 . S
C6368 C6364 1.385 . S
C6368 C6367 1.374 . S
C6369 C6366 1.499 . S
C6369 C6370 1.373 . S
C6369 C6371 1.389 . S
C6370 H6343 0.950 . S
C6370 C6356 1.377 . S
C6370 C6369 1.373 . S
C6371 C6355 1.377 . S
C6371 C6369 1.389 . S
C6371 C6372 1.519 . S
C6372 C6371 1.519 . S
C6372 C6373 1.399 1_554 S
C6372 C6377 1.366 1_554 S
C6373 H6344 0.950 1_556 S
C6373 C6372 1.399 1_556 S
C6373 C6374 1.334 . S
C6374 H6345 0.950 . S
C6374 C6373 1.334 . S
C6374 C6375 1.287 . S
C6375 C6374 1.287 . S
C6375 C6376 1.524 . S
C6375 H6378 0.999 . S
C6376 H6346 0.950 . S
C6376 C6375 1.524 . S
C6376 C6377 1.415 . S
C6377 H6347 0.950 . S
C6377 C6372 1.366 1_556 S
C6377 C6376 1.415 . S
H6378 C6375 0.999 . S
H6379 C6360 0.913 . S
H6380 C6398 0.951 1_545 S
H6381 C6400 0.951 . S
H6382 C6402 0.950 . S
H6383 C6403 0.950 . S
H6384 C6405 0.950 . S
H6385 C6408 0.950 . S
H6386 C6409 0.950 . S
H6387 C6411 0.950 . S
H6388 C6412 0.950 . S
H6389 C6413 0.951 . S
H6390 C6415 0.951 . S
H6391 C6417 0.950 . S
H6392 C6418 0.950 . S
H6393 C6420 0.950 . S
H6394 C6423 0.950 . S
H6395 C6424 0.950 . S
H6396 C6426 0.950 . S
H6397 C6427 0.950 . S
C6398 H6380 0.951 1_565 S
C6398 C6399 1.366 1_565 S
C6398 C6400 1.388 . S
C6399 C6398 1.366 1_545 S
C6399 C6403 1.385 1_545 S
C6400 H6381 0.951 . S
C6400 C6398 1.388 . S
C6400 C6401 1.366 . S
C6401 C6400 1.366 . S
C6401 C6402 1.414 . S
C6401 C6404 1.499 . S
C6402 H6382 0.950 . S
C6402 C6401 1.414 . S
C6402 C6403 1.374 . S
C6403 H6383 0.950 . S
C6403 C6399 1.385 1_565 S
C6403 C6402 1.374 . S
C6404 C6401 1.499 . S
C6404 C6405 1.373 . S
C6404 C6406 1.389 . S
C6405 H6384 0.950 . S
C6405 C6404 1.373 . S
C6405 C6421 1.377 . S
C6406 C6404 1.389 . S
C6406 C6407 1.524 . S
C6406 C6420 1.377 . S
C6407 C6406 1.524 . S
C6407 C6408 1.397 . S
C6407 C6412 1.363 . S
C6408 H6385 0.950 . S
C6408 C6407 1.397 . S
C6408 C6409 1.334 . S
C6409 H6386 0.950 . S
C6409 C6408 1.334 . S
C6409 C6410 1.287 . S
C6410 C6409 1.287 . S
C6410 C6411 1.524 . S
C6410 H6429 0.913 . S
C6411 H6387 0.950 . S
C6411 C6410 1.524 . S
C6411 C6412 1.415 . S
C6412 H6388 0.950 . S
C6412 C6407 1.363 . S
C6412 C6411 1.415 . S
C6413 H6389 0.951 . S
C6413 C6414 1.366 . S
C6413 C6415 1.388 . S
C6414 C6413 1.366 . S
C6414 C6418 1.385 . S
C6415 H6390 0.951 . S
C6415 C6413 1.388 . S
C6415 C6416 1.366 . S
C6416 C6415 1.366 . S
C6416 C6417 1.414 . S
C6416 C6419 1.499 . S
C6417 H6391 0.950 . S
C6417 C6416 1.414 . S
C6417 C6418 1.374 . S
C6418 H6392 0.950 . S
C6418 C6414 1.385 . S
C6418 C6417 1.374 . S
C6419 C6416 1.499 . S
C6419 C6420 1.373 . S
C6419 C6421 1.389 . S
C6420 H6393 0.950 . S
C6420 C6406 1.377 . S
C6420 C6419 1.373 . S
C6421 C6405 1.377 . S
C6421 C6419 1.389 . S
C6421 C6422 1.524 . S
C6422 C6421 1.524 . S
C6422 C6423 1.397 . S
C6422 C6427 1.363 . S
C6423 H6394 0.950 . S
C6423 C6422 1.397 . S
C6423 C6424 1.334 . S
C6424 H6395 0.950 . S
C6424 C6423 1.334 . S
C6424 C6425 1.287 . S
C6425 C6424 1.287 . S
C6425 C6426 1.524 . S
C6425 H6428 0.999 . S
C6426 H6396 0.950 . S
C6426 C6425 1.524 . S
C6426 C6427 1.415 . S
C6427 H6397 0.950 . S
C6427 C6422 1.363 . S
C6427 C6426 1.415 . S
H6428 C6425 0.999 . S
H6429 C6410 0.913 . S
H6430 C6448 0.951 . S
H6431 C6450 0.951 . S
H6432 C6452 0.950 . S
H6433 C6453 0.950 . S
H6434 C6455 0.950 . S
H6435 C6458 0.950 . S
H6436 C6459 0.950 . S
H6437 C6461 0.950 . S
H6438 C6462 0.950 . S
H6439 C6463 0.951 . S
H6440 C6465 0.951 . S
H6441 C6467 0.950 . S
H6442 C6468 0.950 . S
H6443 C6470 0.950 . S
H6444 C6473 0.950 . S
H6445 C6474 0.950 . S
H6446 C6476 0.950 . S
H6447 C6477 0.950 . S
C6448 H6430 0.951 . S
C6448 C6449 1.366 . S
C6448 C6450 1.388 . S
C6449 C6448 1.366 . S
C6449 C6453 1.385 . S
C6450 H6431 0.951 . S
C6450 C6448 1.388 . S
C6450 C6451 1.366 . S
C6451 C6450 1.366 . S
C6451 C6452 1.414 . S
C6451 C6454 1.499 . S
C6452 H6432 0.950 . S
C6452 C6451 1.414 . S
C6452 C6453 1.374 . S
C6453 H6433 0.950 . S
C6453 C6449 1.385 . S
C6453 C6452 1.374 . S
C6454 C6451 1.499 . S
C6454 C6455 1.373 . S
C6454 C6456 1.389 . S
C6455 H6434 0.950 . S
C6455 C6454 1.373 . S
C6455 C6471 1.377 . S
C6456 C6454 1.389 . S
C6456 C6457 1.524 . S
C6456 C6470 1.377 . S
C6457 C6456 1.524 . S
C6457 C6458 1.397 . S
C6457 C6462 1.363 . S
C6458 H6435 0.950 . S
C6458 C6457 1.397 . S
C6458 C6459 1.334 . S
C6459 H6436 0.950 . S
C6459 C6458 1.334 . S
C6459 C6460 1.287 . S
C6460 C6459 1.287 . S
C6460 C6461 1.524 . S
C6460 H6479 0.913 . S
C6461 H6437 0.950 . S
C6461 C6460 1.524 . S
C6461 C6462 1.415 . S
C6462 H6438 0.950 . S
C6462 C6457 1.363 . S
C6462 C6461 1.415 . S
C6463 H6439 0.951 . S
C6463 C6464 1.366 . S
C6463 C6465 1.388 . S
C6464 C6463 1.366 . S
C6464 C6468 1.385 . S
C6465 H6440 0.951 . S
C6465 C6463 1.388 . S
C6465 C6466 1.366 . S
C6466 C6465 1.366 . S
C6466 C6467 1.414 . S
C6466 C6469 1.499 . S
C6467 H6441 0.950 . S
C6467 C6466 1.414 . S
C6467 C6468 1.374 . S
C6468 H6442 0.950 . S
C6468 C6464 1.385 . S
C6468 C6467 1.374 . S
C6469 C6466 1.499 . S
C6469 C6470 1.373 . S
C6469 C6471 1.389 . S
C6470 H6443 0.950 . S
C6470 C6456 1.377 . S
C6470 C6469 1.373 . S
C6471 C6455 1.377 . S
C6471 C6469 1.389 . S
C6471 C6472 1.524 . S
C6472 C6471 1.524 . S
C6472 C6473 1.397 . S
C6472 C6477 1.363 . S
C6473 H6444 0.950 . S
C6473 C6472 1.397 . S
C6473 C6474 1.334 . S
C6474 H6445 0.950 . S
C6474 C6473 1.334 . S
C6474 C6475 1.287 . S
C6475 C6474 1.287 . S
C6475 C6476 1.524 . S
C6475 H6478 0.999 . S
C6476 H6446 0.950 . S
C6476 C6475 1.524 . S
C6476 C6477 1.415 . S
C6477 H6447 0.950 . S
C6477 C6472 1.363 . S
C6477 C6476 1.415 . S
H6478 C6475 0.999 . S
H6479 C6460 0.913 . S
C1699 C106 1.930 . S
C1714 C403 1.801 . S
C1749 C65 2.195 . S
C1764 C486 2.117 . S
C1799 C79 1.772 . S
C1814 C571 1.663 1_565 S
C1864 C651 1.338 . S
C1849 C90 1.422 . S
C1899 C21 1.325 . S
C1914 C735 1.301 . S
C1964 C828 0.873 . S
C1949 C35 0.892 . S
C2014 C906 0.639 . S
C1999 C50 0.631 . S
C2049 C6 1.335 . S
C2064 C991 1.231 . S
C2114 C402 2.130 . S
C2099 C232 2.239 . S
C2149 C245 0.614 . S
C2164 C483 0.633 . S
C2214 C570 1.220 . S
C2199 C274 1.275 . S
C2264 C655 1.463 . S
C2249 C175 1.552 . S
C2299 C231 1.752 . S
C2314 C739 1.665 . S
C2364 C831 0.986 . S
C2349 C246 1.060 . S
C2414 C903 0.659 . S
C2399 C273 0.628 . S
C2464 C990 1.443 . S
C2449 C176 1.553 . S
C2514 C399 1.470 . S
C2499 C160 1.526 . S
C2549 C289 1.981 1_554 S
C2564 C1074 1.926 . S
C2614 C1148 2.192 . S
C2599 C328 2.305 . S
C2664 C1243 0.593 . S
C2649 C317 0.531 . S
C2699 C118 0.803 . S
C2714 C987 0.822 . S
C2749 C132 1.408 . S
C2764 C567 1.416 . S
C2799 C331 2.415 . S
C2814 C1326 2.334 . S
C2864 C1411 0.946 . S
C2849 C303 0.991 . S
C2914 C392 1.419 1_565 S
C2899 C63 1.531 . S
C2964 C1419 2.567 . S
C2949 C107 2.573 . S
C2999 C92 1.588 . S
C3014 C560 1.533 . S
C3049 C78 2.087 . S
C3064 C1332 1.907 . S
C3114 C744 1.812 . S
C3099 C8 1.926 . S
C3149 C51 1.210 . S
C3164 C1155 1.115 . S
C3214 C915 1.103 1_565 S
C3199 C37 1.096 . S
C3264 C1484 1.147 . S
C3249 C20 1.242 . S
C3314 C411 2.000 . S
C3299 C147 2.057 . S
C3364 C1416 0.758 . S
C3349 C316 0.762 . S
C3399 C119 1.142 . S
C3414 C579 1.154 . S
C3449 C288 1.742 . S
C3464 C1316 1.650 . S
C3499 C148 2.262 1_545 S
C3514 C728 2.084 . S
C3564 C1158 1.063 . S
C3549 C315 1.109 . S
C3599 C120 0.938 . S
C3614 C912 0.895 . S
C3649 C287 1.457 . S
C3664 C1503 1.385 . S
C3699 C188 1.392 . S
C3714 C408 1.308 . S
C3749 C177 2.353 . S
C3764 C1083 2.293 . S
C3799 C258 2.454 . S
C3814 C823 2.354 . S
C3849 C247 0.533 . S
C3864 C1232 0.604 . S
C3914 C1500 0.587 . S
C3899 C272 0.593 . S
C3949 C216 1.286 . S
C3964 C576 1.261 1_565 S
C4014 C663 2.582 . S
C3999 C261 2.654 . S
C4064 C476 0.880 . S
C4049 C205 0.916 . S
C4099 C76 1.522 . S
C4114 C1579 1.425 . S
C4164 C1410 2.200 . S
C4149 C93 2.280 . S
C4199 C105 1.371 . S
C4214 C1663 1.275 . S
C4249 C62 1.462 . S
C4264 C1323 1.378 . S
C4299 C49 1.299 . S
C4314 C1071 1.278 . S
C4364 C1164 1.220 . S
C4349 C9 1.294 . S
C4414 C1242 0.574 . S
C4399 C22 0.561 . S
C4464 C1495 1.575 . S
C4449 C36 1.747 . S
C4514 C1578 2.038 . S
C4499 C260 2.140 . S
C4549 C189 0.523 . S
C4564 C1407 0.577 . S
C4614 C1662 1.131 . S
C4599 C204 1.178 . S
C4664 C1327 1.301 . S
C4649 C217 1.377 . S
C4714 C1075 1.934 . S
C4699 C259 2.031 . S
C4749 C190 1.158 . S
C4764 C1167 1.083 . S
C4814 C1239 0.739 . S
C4799 C203 0.739 . S
C4849 C218 1.661 . S
C4864 C1494 1.543 . S
C4914 C1575 1.429 . S
C4899 C314 1.472 . S
C4949 C135 2.106 . S
C4964 C738 2.026 . S
C5014 C812 2.065 . S
C4999 C146 2.194 . S
C5064 C907 0.608 . S
C5049 C163 0.562 . S
C5114 C1491 0.819 . S
C5099 C300 0.808 . S
C5149 C286 1.361 . S
C5164 C1659 1.390 . S
C5214 C654 2.236 . S
C5199 C149 2.310 . S
C5264 C487 0.885 . S
C5249 C121 0.924 1_565 S
C5299 C91 1.505 . S
C5314 C1568 1.401 . S
C5364 C495 2.151 . S
C5349 C77 2.098 . S
C5399 C64 1.556 . S
C5414 C1652 1.517 . S
C5449 C104 1.681 . S
C5464 C660 1.588 . S
C5499 C34 1.493 . S
C5514 C1080 1.452 1_556 S
C5564 C819 1.089 . S
C5549 C23 1.197 . S
C5599 C7 0.784 . S
C5614 C1251 0.790 . S
C5649 C48 1.207 . S
C5664 C980 1.124 . S
C5714 C1587 1.977 . S
C5699 C329 2.036 . S
C5749 C162 0.794 . S
C5764 C492 0.783 . S
C5814 C1671 1.155 1_556 S
C5799 C301 1.144 . S
C5849 C134 1.768 . S
C5864 C644 1.682 . S
C5899 C330 2.233 . S
C5914 C1064 2.065 . S
C5964 C822 1.071 . S
C5949 C161 1.112 . S
C5999 C302 0.972 . S
C6014 C1248 0.919 . S
C6064 C999 1.381 . S
C6049 C133 1.454 . S
C6114 C1584 1.516 . S
C6099 C244 1.616 . S
C6164 C747 2.185 1_655 S
C6149 C219 2.279 . S
C6199 C230 2.096 . S
C6214 C1159 1.989 . S
C6264 C896 0.597 . S
C6249 C191 0.516 . S
C6299 C202 0.757 . S
C6314 C996 0.755 . S
C6349 C174 1.526 . S
C6364 C1668 1.479 . S
C6414 C1335 2.547 . S
C6399 C233 2.609 . S
C6464 C1400 0.869 . S
C6449 C275 0.906 . S
