# Generated by pormake.
# Topology soc, (4,6)-cn, num edge types: 1
# Building blocks:
#     Node 0, Type 0, BuildingBlock: ESEHIV_clean_sbu_0, # of connection points: 4
#     Node 1, Type 0, BuildingBlock: ESEHIV_clean_sbu_0, # of connection points: 4
#     Node 2, Type 0, BuildingBlock: ESEHIV_clean_sbu_0, # of connection points: 4
#     Node 3, Type 0, BuildingBlock: ESEHIV_clean_sbu_0, # of connection points: 4
#     Node 4, Type 0, BuildingBlock: ESEHIV_clean_sbu_0, # of connection points: 4
#     Node 5, Type 0, BuildingBlock: ESEHIV_clean_sbu_0, # of connection points: 4
#     Node 6, Type 0, BuildingBlock: ESEHIV_clean_sbu_0, # of connection points: 4
#     Node 7, Type 0, BuildingBlock: ESEHIV_clean_sbu_0, # of connection points: 4
#     Node 8, Type 0, BuildingBlock: ESEHIV_clean_sbu_0, # of connection points: 4
#     Node 9, Type 0, BuildingBlock: ESEHIV_clean_sbu_0, # of connection points: 4
#     Node 10, Type 0, BuildingBlock: ESEHIV_clean_sbu_0, # of connection points: 4
#     Node 11, Type 0, BuildingBlock: ESEHIV_clean_sbu_0, # of connection points: 4
#     Node 12, Type 1, BuildingBlock: BETDEL_clean_sbu_0, # of connection points: 6
#     Node 13, Type 1, BuildingBlock: BETDEL_clean_sbu_0, # of connection points: 6
#     Node 14, Type 1, BuildingBlock: BETDEL_clean_sbu_0, # of connection points: 6
#     Node 15, Type 1, BuildingBlock: BETDEL_clean_sbu_0, # of connection points: 6
#     Node 16, Type 1, BuildingBlock: BETDEL_clean_sbu_0, # of connection points: 6
#     Node 17, Type 1, BuildingBlock: BETDEL_clean_sbu_0, # of connection points: 6
#     Node 18, Type 1, BuildingBlock: BETDEL_clean_sbu_0, # of connection points: 6
#     Node 19, Type 1, BuildingBlock: BETDEL_clean_sbu_0, # of connection points: 6
#     Edge 20, Type (0, 1), BuildingBlock: OJICUG_clean_linker_0, # of connection points: 2
#     Edge 21, Type (0, 1), BuildingBlock: OJICUG_clean_linker_0, # of connection points: 2
#     Edge 22, Type (0, 1), BuildingBlock: OJICUG_clean_linker_0, # of connection points: 2
#     Edge 23, Type (0, 1), BuildingBlock: OJICUG_clean_linker_0, # of connection points: 2
#     Edge 24, Type (0, 1), BuildingBlock: OJICUG_clean_linker_0, # of connection points: 2
#     Edge 25, Type (0, 1), BuildingBlock: OJICUG_clean_linker_0, # of connection points: 2
#     Edge 26, Type (0, 1), BuildingBlock: OJICUG_clean_linker_0, # of connection points: 2
#     Edge 27, Type (0, 1), BuildingBlock: OJICUG_clean_linker_0, # of connection points: 2
#     Edge 28, Type (0, 1), BuildingBlock: OJICUG_clean_linker_0, # of connection points: 2
#     Edge 29, Type (0, 1), BuildingBlock: OJICUG_clean_linker_0, # of connection points: 2
#     Edge 30, Type (0, 1), BuildingBlock: OJICUG_clean_linker_0, # of connection points: 2
#     Edge 31, Type (0, 1), BuildingBlock: OJICUG_clean_linker_0, # of connection points: 2
#     Edge 32, Type (0, 1), BuildingBlock: OJICUG_clean_linker_0, # of connection points: 2
#     Edge 33, Type (0, 1), BuildingBlock: OJICUG_clean_linker_0, # of connection points: 2
#     Edge 34, Type (0, 1), BuildingBlock: OJICUG_clean_linker_0, # of connection points: 2
#     Edge 35, Type (0, 1), BuildingBlock: OJICUG_clean_linker_0, # of connection points: 2
#     Edge 36, Type (0, 1), BuildingBlock: OJICUG_clean_linker_0, # of connection points: 2
#     Edge 37, Type (0, 1), BuildingBlock: OJICUG_clean_linker_0, # of connection points: 2
#     Edge 38, Type (0, 1), BuildingBlock: OJICUG_clean_linker_0, # of connection points: 2
#     Edge 39, Type (0, 1), BuildingBlock: OJICUG_clean_linker_0, # of connection points: 2
#     Edge 40, Type (0, 1), BuildingBlock: OJICUG_clean_linker_0, # of connection points: 2
#     Edge 41, Type (0, 1), BuildingBlock: OJICUG_clean_linker_0, # of connection points: 2
#     Edge 42, Type (0, 1), BuildingBlock: OJICUG_clean_linker_0, # of connection points: 2
#     Edge 43, Type (0, 1), BuildingBlock: OJICUG_clean_linker_0, # of connection points: 2
#     Edge 44, Type (0, 1), BuildingBlock: OJICUG_clean_linker_0, # of connection points: 2
#     Edge 45, Type (0, 1), BuildingBlock: OJICUG_clean_linker_0, # of connection points: 2
#     Edge 46, Type (0, 1), BuildingBlock: OJICUG_clean_linker_0, # of connection points: 2
#     Edge 47, Type (0, 1), BuildingBlock: OJICUG_clean_linker_0, # of connection points: 2
#     Edge 48, Type (0, 1), BuildingBlock: OJICUG_clean_linker_0, # of connection points: 2
#     Edge 49, Type (0, 1), BuildingBlock: OJICUG_clean_linker_0, # of connection points: 2
#     Edge 50, Type (0, 1), BuildingBlock: OJICUG_clean_linker_0, # of connection points: 2
#     Edge 51, Type (0, 1), BuildingBlock: OJICUG_clean_linker_0, # of connection points: 2
#     Edge 52, Type (0, 1), BuildingBlock: OJICUG_clean_linker_0, # of connection points: 2
#     Edge 53, Type (0, 1), BuildingBlock: OJICUG_clean_linker_0, # of connection points: 2
#     Edge 54, Type (0, 1), BuildingBlock: OJICUG_clean_linker_0, # of connection points: 2
#     Edge 55, Type (0, 1), BuildingBlock: OJICUG_clean_linker_0, # of connection points: 2
#     Edge 56, Type (0, 1), BuildingBlock: OJICUG_clean_linker_0, # of connection points: 2
#     Edge 57, Type (0, 1), BuildingBlock: OJICUG_clean_linker_0, # of connection points: 2
#     Edge 58, Type (0, 1), BuildingBlock: OJICUG_clean_linker_0, # of connection points: 2
#     Edge 59, Type (0, 1), BuildingBlock: OJICUG_clean_linker_0, # of connection points: 2
#     Edge 60, Type (0, 1), BuildingBlock: OJICUG_clean_linker_0, # of connection points: 2
#     Edge 61, Type (0, 1), BuildingBlock: OJICUG_clean_linker_0, # of connection points: 2
#     Edge 62, Type (0, 1), BuildingBlock: OJICUG_clean_linker_0, # of connection points: 2
#     Edge 63, Type (0, 1), BuildingBlock: OJICUG_clean_linker_0, # of connection points: 2
#     Edge 64, Type (0, 1), BuildingBlock: OJICUG_clean_linker_0, # of connection points: 2
#     Edge 65, Type (0, 1), BuildingBlock: OJICUG_clean_linker_0, # of connection points: 2
#     Edge 66, Type (0, 1), BuildingBlock: OJICUG_clean_linker_0, # of connection points: 2
#     Edge 67, Type (0, 1), BuildingBlock: OJICUG_clean_linker_0, # of connection points: 2
# Relax obj value: 0.127
# Max RMSD: 0.179
# Mean RMSD: 0.152
data_MOF--net-soc--node1-ESEHIV_clean_sbu_0--node2-BETDEL_clean_sbu_0--edge1-OJICUG_clean_linker_0
_symmetry_space_group_name_H-M    P1
_symmetry_Int_Tables_number       1
_symmetry_cell_setting            triclinic
loop_
_symmetry_equiv_pos_as_xyz
'x, y, z'
_cell_length_a     34.448749
_cell_length_b     33.547396
_cell_length_c     31.466814
_cell_angle_alpha  89.02164
_cell_angle_beta   89.949982
_cell_angle_gamma 76.741535
loop_
_atom_site_label
_atom_site_type_symbol
_atom_site_fract_x
_atom_site_fract_y
_atom_site_fract_z
_atom_type_partial_charge
Cu0 Cu 0.03214 0.02947 0.32852 0.0
N1 N 0.06122 0.05805 0.36261 0.0
N2 N 0.10105 0.10148 0.37376 0.0
C3 C 0.07196 0.09253 0.34937 0.0
C4 C 0.10821 0.07184 0.40427 0.0
C5 C 0.08396 0.04496 0.39709 0.0
O6 O 0.07266 0.99133 0.29584 0.0
C7 C 0.95553 0.0813 0.30944 0.0
O8 O 0.94294 0.05676 0.33631 0.0
H9 H 0.06073 0.10889 0.32034 0.0
H10 H 0.08536 0.01618 0.41367 0.0
N11 N 1.00605 0.99383 0.35814 0.0
N12 N 0.97254 0.94417 0.36676 0.0
C13 C 0.98503 0.96971 0.33899 0.0
C14 C 1.00708 0.98293 0.39958 0.0
C15 C 0.98654 0.95223 0.40496 0.0
C16 C 0.10571 0.99898 0.28427 0.0
O17 O 0.10896 0.0372 0.28283 0.0
H18 H 0.97992 0.97019 0.30502 0.0
H19 H 1.02228 0.99574 0.42407 0.0
O20 O 0.99236 0.07303 0.2987 0.0
H21 H 0.13161 0.06789 0.42796 0.0
H22 H 0.98229 0.937 0.43463 0.0
Cu23 Cu 0.03706 0.02581 0.74317 0.0
N24 N 1.00881 0.99561 0.71104 0.0
N25 N 0.96739 0.95411 0.70004 0.0
C26 C 0.98322 0.97535 0.72877 0.0
C27 C 0.98373 0.96158 0.66249 0.0
C28 C 1.00944 0.98709 0.66941 0.0
O29 O 0.99506 0.06347 0.77488 0.0
C30 C 0.1077 0.96679 0.75093 0.0
O31 O 0.10948 0.9788 0.71119 0.0
H32 H 0.97636 0.97643 0.76235 0.0
H33 H 1.02764 0.99808 0.64596 0.0
N34 N 0.06396 0.05824 0.71092 0.0
N35 N 0.10546 0.09993 0.70081 0.0
C36 C 0.09595 0.07046 0.72563 0.0
C37 C 0.05285 0.08044 0.67515 0.0
C38 C 0.07847 0.10626 0.66881 0.0
C39 C 0.99283 0.10193 0.77801 0.0
O40 O 1.02473 0.11609 0.77067 0.0
H41 H 0.1098 0.06029 0.75599 0.0
H42 H 1.02662 0.07975 0.65658 0.0
O43 O 0.07775 0.9841 0.77347 0.0
H44 H 0.97826 0.94884 0.63231 0.0
H45 H 0.07633 0.12905 0.64363 0.0
Cu46 Cu 0.35708 0.03541 0.03734 0.0
N47 N 0.39198 0.99927 1.00327 0.0
N48 N 0.40279 0.94989 0.95519 0.0
C49 C 0.38567 0.9627 0.99251 0.0
C50 C 0.42158 0.97911 0.94237 0.0
C51 C 0.41487 1.00959 0.97218 0.0
O52 O 0.33479 1.00308 0.07931 0.0
C53 C 0.30949 0.11072 1.00271 0.0
O54 O 0.31157 0.12484 0.0411 0.0
H55 H 0.36414 0.94872 1.00828 0.0
H56 H 0.4216 0.0394 0.96849 0.0
N57 N 0.38387 0.06563 0.0707 0.0
N58 N 0.39208 0.10444 0.12543 0.0
C59 C 0.36923 0.08141 0.10788 0.0
C60 C 0.41766 0.07847 0.06436 0.0
C61 C 0.42275 0.10264 0.09812 0.0
C62 C 0.31127 0.97907 0.07586 0.0
O63 O 0.29329 0.97694 0.03945 0.0
H64 H 0.3409 0.07793 0.12037 0.0
H65 H 0.43658 0.07175 0.03674 0.0
O66 O 0.32253 0.07252 0.99661 0.0
H67 H 0.43546 0.98044 0.91165 0.0
H68 H 0.44663 0.11842 0.10164 0.0
Cu69 Cu 0.04951 0.32535 0.05681 0.0
N70 N 0.07241 0.35951 0.02265 0.0
N71 N 0.11035 0.37264 0.96883 0.0
C72 C 0.08904 0.34698 0.98512 0.0
C73 C 0.10686 0.40284 0.99747 0.0
C74 C 0.08335 0.39462 0.03076 0.0
O75 O 0.09347 0.29744 0.09547 0.0
C76 C 0.99533 0.28113 0.01849 0.0
O77 O 0.98245 0.27651 0.05707 0.0
H78 H 0.08817 0.31766 0.97182 0.0
H79 H 0.07677 0.41161 0.05981 0.0
N80 N 1.00622 0.35435 0.0883 0.0
N81 N 0.95218 0.36274 0.12962 0.0
C82 C 0.98671 0.33734 0.11809 0.0
C83 C 0.98373 0.39239 0.08147 0.0
C84 C 0.95037 0.39774 0.10717 0.0
C85 C 0.09787 0.31333 0.13146 0.0
O86 O 0.07056 0.34504 0.1438 0.0
H87 H 0.99664 0.30599 0.12942 0.0
H88 H 0.98983 0.41372 0.05762 0.0
O89 O 1.02697 0.29445 0.01372 0.0
H90 H 0.1216 0.42804 0.99551 0.0
H91 H 0.92544 0.42412 0.10709 0.0
Cu92 Cu 0.7684 1.00762 0.02265 0.0
N93 N 0.80376 0.02114 0.98416 0.0
N94 N 0.81906 0.06159 0.93348 0.0
C95 C 0.80513 0.05947 0.97315 0.0
C96 C 0.82818 0.02288 0.91936 0.0
C97 C 0.8188 0.99784 0.95095 0.0
O98 O 0.75043 0.05318 0.06268 0.0
C99 C 0.73004 0.94833 0.98574 0.0
O100 O 0.74104 0.92614 0.02026 0.0
H101 H 0.79123 0.08592 0.99129 0.0
H102 H 0.81808 0.96595 0.94782 0.0
N103 N 0.79681 0.9662 0.0569 0.0
N104 N 0.80995 0.92218 0.11123 0.0
C105 C 0.78274 0.95268 0.09271 0.0
C106 C 0.8345 0.94433 0.05283 0.0
C107 C 0.8427 0.91685 0.08643 0.0
C108 C 0.73489 0.09132 0.05709 0.0
O109 O 0.72128 0.10496 0.01931 0.0
H110 H 0.75277 0.96444 0.10428 0.0
H111 H 0.85427 0.94762 0.02697 0.0
O112 O 0.73246 0.98586 0.98491 0.0
H113 H 0.83707 1.01401 0.88724 0.0
H114 H 0.86991 0.89356 0.09115 0.0
Cu115 Cu 0.04126 0.74063 0.01295 0.0
N116 N 1.01083 0.74646 0.96292 0.0
N117 N 0.96271 0.75552 0.91358 0.0
C118 C 0.97165 0.7612 0.95469 0.0
C119 C 0.99755 0.73704 0.89556 0.0
C120 C 1.02682 0.73141 0.92585 0.0
O121 O 1.02183 0.70846 0.05814 0.0
C122 C 0.1088 0.74983 0.9703 0.0
O123 O 0.08404 0.78551 0.96376 0.0
H124 H 0.95008 0.7743 0.97859 0.0
H125 H 0.05756 0.71555 0.92146 0.0
N126 N 0.03933 0.78948 0.04096 0.0
N127 N 0.06617 0.81949 0.09271 0.0
C128 C 0.07296 0.79594 0.05813 0.0
C129 C 1.00967 0.81019 0.06552 0.0
C130 C 1.0262 0.82882 0.09759 0.0
C131 C 0.98811 0.69861 0.05776 0.0
O132 O 0.96916 0.69929 0.02151 0.0
H133 H 0.10217 0.77795 0.05005 0.0
H134 H 0.97909 0.80719 0.06399 0.0
O135 O 0.09697 0.72262 0.99275 0.0
H136 H 1.00131 0.72587 0.8634 0.0
H137 H 1.01049 0.84432 0.12462 0.0
Cu138 Cu 0.54228 0.51274 0.83681 0.0
N139 N 0.56434 0.54947 0.8672 0.0
N140 N 0.59735 0.59937 0.87267 0.0
C141 C 0.59384 0.56569 0.85157 0.0
C142 C 0.56906 0.60444 0.90308 0.0
C143 C 0.54871 0.57355 0.89964 0.0
O144 O 0.58707 0.47842 0.80641 0.0
C145 C 0.46703 0.56247 0.82429 0.0
O146 O 0.46486 0.5519 0.86443 0.0
H147 H 0.60994 0.5552 0.82279 0.0
H148 H 0.52254 0.57075 0.91737 0.0
N149 N 0.51959 0.47786 0.87069 0.0
N150 N 0.4805 0.43448 0.88429 0.0
C151 C 0.48881 0.4629 0.85728 0.0
C152 C 0.53157 0.45807 0.90763 0.0
C153 C 0.50742 0.43108 0.91611 0.0
C154 C 0.5912 0.43998 0.80147 0.0
O155 O 0.56041 0.42368 0.80757 0.0
H156 H 0.47427 0.47117 0.82687 0.0
H157 H 0.55693 0.46178 0.9261 0.0
O158 O 0.49904 0.54785 0.80369 0.0
H159 H 0.56235 0.62968 0.9249 0.0
H160 H 0.50999 0.41009 0.94301 0.0
Cu161 Cu 0.53251 0.5435 0.22971 0.0
N162 N 0.50091 0.51424 0.20034 0.0
N163 N 0.45694 0.47445 0.19452 0.0
C164 C 0.48611 0.48402 0.21829 0.0
C165 C 0.45349 0.49957 0.16004 0.0
C166 C 0.4804 0.52417 0.16383 0.0
O167 O 0.49276 0.5871 0.258 0.0
C168 C 0.59701 0.47875 0.24398 0.0
O169 O 0.59851 0.48395 0.20262 0.0
H170 H 0.49441 0.47165 0.24985 0.0
H171 H 0.48264 0.5494 0.14292 0.0
N172 N 0.56581 0.56752 0.19494 0.0
N173 N 0.61785 0.59443 0.17805 0.0
C174 C 0.59971 0.57678 0.20878 0.0
C175 C 0.56236 0.57966 0.15385 0.0
C176 C 0.59431 0.59642 0.14341 0.0
C177 C 0.48874 0.62539 0.24988 0.0
O178 O 0.51667 0.6375 0.22825 0.0
H179 H 0.61027 0.57151 0.24123 0.0
H180 H 0.53825 0.57703 0.13299 0.0
O181 O 0.5691 0.50206 0.26491 0.0
H182 H 0.43194 0.50131 0.13468 0.0
H183 H 0.59972 0.60907 0.11269 0.0
Cu184 Cu 0.81201 0.55346 0.56363 0.0
N185 N 0.79374 0.60028 0.53165 0.0
N186 N 0.79896 0.6302 0.46896 0.0
C187 C 0.81863 0.60962 0.50236 0.0
C188 C 0.75988 0.63522 0.47818 0.0
C189 C 0.7567 0.61643 0.51696 0.0
O190 O 0.86198 0.55791 0.59058 0.0
C191 C 0.81757 0.47173 0.52715 0.0
O192 O 0.8164 0.45799 0.56634 0.0
H193 H 0.85033 0.59599 0.50262 0.0
H194 H 0.72965 0.61068 0.53047 0.0
N195 N 0.77778 0.54336 0.60538 0.0
N196 N 0.76291 0.50188 0.65557 0.0
C197 C 0.79173 0.51738 0.63759 0.0
C198 C 0.73835 0.54567 0.60354 0.0
C199 C 0.72902 0.52009 0.63474 0.0
C200 C 0.87414 0.58375 0.61385 0.0
O201 O 0.91238 0.57563 0.62304 0.0
H202 H 0.8233 0.50517 0.64303 0.0
H203 H 0.7188 0.56044 0.57826 0.0
O204 O 0.81826 0.50935 0.52079 0.0
H205 H 0.73551 0.64827 0.45685 0.0
H206 H 0.70058 0.51188 0.63843 0.0
Cu207 Cu 0.55763 0.79559 0.54237 0.0
N208 N 0.60413 0.76521 0.51599 0.0
N209 N 0.65714 0.75091 0.47253 0.0
C210 C 0.62641 0.78019 0.48693 0.0
C211 C 0.65427 0.71635 0.49376 0.0
C212 C 0.62195 0.72531 0.52077 0.0
O213 O 0.57788 0.82567 0.58604 0.0
C214 C 0.52192 0.8099 0.46434 0.0
O215 O 0.54275 0.77216 0.46023 0.0
H216 H 0.61915 0.81156 0.47522 0.0
H217 H 0.61187 0.70406 0.54191 0.0
N218 N 0.52332 0.76515 0.56715 0.0
N219 N 0.46988 0.75351 0.60232 0.0
C220 C 0.49172 0.78111 0.59205 0.0
C221 C 0.52123 0.72613 0.56099 0.0
C222 C 0.48859 0.71882 0.58274 0.0
C223 C 0.58611 0.80881 0.62258 0.0
O224 O 0.57443 0.7751 0.63186 0.0
H225 H 0.48442 0.81284 0.60141 0.0
H226 H 0.54133 0.70474 0.54122 0.0
O227 O 0.52497 0.82865 0.49864 0.0
H228 H 0.67379 0.68647 0.48955 0.0
H229 H 0.47947 0.69004 0.58388 0.0
Cu230 Cu 0.26464 0.51839 0.5193 0.0
N231 N 0.29451 0.5532 0.49429 0.0
N232 N 0.30578 0.60788 0.45787 0.0
C233 C 0.27954 0.58432 0.4667 0.0
C234 C 0.33863 0.59055 0.48095 0.0
C235 C 0.33151 0.55723 0.50346 0.0
O236 O 0.23028 0.55274 0.55958 0.0
C237 C 0.2178 0.47066 0.47694 0.0
O238 O 0.20859 0.45931 0.51505 0.0
H239 H 0.24922 0.59051 0.4549 0.0
H240 H 0.35143 0.53839 0.52615 0.0
N241 N 0.29427 0.47237 0.55028 0.0
N242 N 0.3065 0.42236 0.60023 0.0
C243 C 0.27843 0.45078 0.57958 0.0
C244 C 0.33392 0.45659 0.55232 0.0
C245 C 0.34154 0.42592 0.58328 0.0
C246 C 0.24812 0.55714 0.594 0.0
O247 O 0.28574 0.53836 0.59891 0.0
H248 H 0.24695 0.45692 0.58691 0.0
H249 H 0.35587 0.46695 0.53319 0.0
O250 O 0.23771 0.49811 0.47314 0.0
H251 H 0.36587 0.60133 0.48214 0.0
H252 H 0.3705 0.40746 0.59237 0.0
Cu253 Cu 0.5226 0.22846 0.52635 0.0
N254 N 0.56155 0.20347 0.48781 0.0
N255 N 0.61431 0.19848 0.4451 0.0
C256 C 0.58879 0.2225 0.47166 0.0
C257 C 0.60254 0.16272 0.44453 0.0
C258 C 0.57001 0.16585 0.47106 0.0
O259 O 0.55114 0.25811 0.5649 0.0
C260 C 0.47228 0.26161 0.45386 0.0
O261 O 0.50528 0.25353 0.43154 0.0
H262 H 0.58917 0.25383 0.47882 0.0
H263 H 0.5539 0.14236 0.47759 0.0
N264 N 0.50432 0.19135 0.56154 0.0
N265 N 0.47019 0.17384 0.61665 0.0
C266 C 0.4896 0.20134 0.60051 0.0
C267 C 0.49403 0.1561 0.55244 0.0
C268 C 0.47306 0.14513 0.58649 0.0
C269 C 0.58227 0.23471 0.58168 0.0
O270 O 0.59071 0.19564 0.57246 0.0
H271 H 0.49004 0.23027 0.61497 0.0
H272 H 0.49867 0.14107 0.52216 0.0
O273 O 0.47446 0.25762 0.49443 0.0
H274 H 0.6165 0.13608 0.42654 0.0
H275 H 0.4592 0.11927 0.58786 0.0
Dy276 Dy 0.25769 0.25892 0.31921 0.0
C277 C 0.35436 0.36815 0.24556 0.0
C278 C 0.20288 0.21271 0.33673 0.0
Dy279 Dy 0.30616 0.31706 0.27003 0.0
O280 O 0.22023 0.23081 0.36483 0.0
O281 O 0.21527 0.22021 0.29898 0.0
O282 O 0.30136 0.24039 0.37438 0.0
O283 O 0.31289 0.27801 0.32589 0.0
C284 C 0.32642 0.26142 0.36071 0.0
C285 C 0.2436 0.29916 0.22836 0.0
O286 O 0.3415 0.25573 0.25227 0.0
O287 O 0.29555 0.21718 0.27196 0.0
O288 O 0.31653 0.37403 0.23672 0.0
O289 O 0.36565 0.33452 0.2679 0.0
O290 O 0.27516 0.30616 0.20968 0.0
O291 O 0.24576 0.30534 0.26781 0.0
O292 O 0.22811 0.32044 0.34486 0.0
O293 O 0.27402 0.3576 0.32076 0.0
C294 C 0.32852 0.2215 0.25199 0.0
C295 C 0.24293 0.35377 0.34427 0.0
Dy296 Dy 0.79346 0.31033 0.32305 0.0
C297 C 0.75749 0.2062 0.18758 0.0
C298 C 0.80116 0.36283 0.38808 0.0
Dy299 Dy 0.76702 0.25981 0.25064 0.0
O300 O 0.80998 0.32302 0.39056 0.0
O301 O 0.78769 0.37398 0.35004 0.0
O302 O 0.85631 0.27193 0.31834 0.0
O303 O 0.80836 0.2458 0.30427 0.0
C304 C 0.84591 0.23984 0.30384 0.0
C305 C 0.71389 0.32962 0.27089 0.0
O306 O 0.74231 0.23282 0.30653 0.0
O307 O 0.74406 0.28536 0.35327 0.0
O308 O 0.74592 0.24594 0.18523 0.0
O309 O 0.77499 0.19596 0.22406 0.0
O310 O 0.70416 0.29696 0.25707 0.0
O311 O 0.75141 0.32459 0.26963 0.0
O312 O 0.82039 0.3358 0.26726 0.0
O313 O 0.81705 0.28347 0.2206 0.0
C314 C 0.73188 0.25194 0.34267 0.0
C315 C 0.83049 0.31611 0.23129 0.0
Dy316 Dy 0.79623 0.71625 0.24157 0.0
C317 C 0.88691 0.82137 0.32324 0.0
C318 C 0.75064 0.66747 0.20776 0.0
Dy319 Dy 0.85241 0.76129 0.29279 0.0
O320 O 0.74965 0.705 0.19608 0.0
O321 O 0.77798 0.65584 0.23683 0.0
O322 O 0.76071 0.77855 0.22058 0.0
O323 O 0.82158 0.76901 0.23281 0.0
C324 C 0.79078 0.79568 0.22377 0.0
C325 C 0.85682 0.68285 0.31646 0.0
O326 O 0.79493 0.77563 0.33313 0.0
O327 O 0.7607 0.73167 0.30085 0.0
O328 O 0.89991 0.78222 0.3303 0.0
O329 O 0.85458 0.82765 0.30032 0.0
O330 O 0.88653 0.70085 0.31939 0.0
O331 O 0.82731 0.70883 0.30212 0.0
O332 O 0.85439 0.69502 0.20626 0.0
O333 O 0.88949 0.74066 0.23425 0.0
C334 C 0.76418 0.75729 0.33158 0.0
C335 C 0.88578 0.71212 0.2064 0.0
Dy336 Dy 0.26293 0.79341 0.2564 0.0
C337 C 0.38968 0.83444 0.35121 0.0
C338 C 0.19683 0.79515 0.20855 0.0
Dy339 Dy 0.32575 0.82381 0.30551 0.0
O340 O 0.1963 0.8026 0.24896 0.0
O341 O 0.23336 0.78448 0.1952 0.0
O342 O 0.30152 0.72984 0.25257 0.0
O343 O 0.32836 0.78024 0.25434 0.0
C344 C 0.33492 0.74145 0.25616 0.0
C345 C 0.25402 0.87631 0.30232 0.0
O346 O 0.33336 0.85384 0.24278 0.0
O347 O 0.27423 0.84452 0.21425 0.0
O348 O 0.39151 0.81843 0.31375 0.0
O349 O 0.35288 0.84439 0.36388 0.0
O350 O 0.28756 0.88756 0.30465 0.0
O351 O 0.26027 0.83775 0.30647 0.0
O352 O 0.25877 0.75823 0.31677 0.0
O353 O 0.31693 0.77009 0.34598 0.0
C354 C 0.30539 0.86143 0.21288 0.0
C355 C 0.28747 0.75046 0.34595 0.0
Dy356 Dy 0.30621 0.78683 0.8102 0.0
C357 C 0.23785 0.68143 0.71227 0.0
C358 C 0.33459 0.84052 0.85859 0.0
Dy359 Dy 0.26414 0.73619 0.76127 0.0
O360 O 0.335 0.80299 0.86953 0.0
O361 O 0.31742 0.84925 0.8218 0.0
O362 O 0.36503 0.74398 0.79928 0.0
O363 O 0.3142 0.71987 0.80584 0.0
C364 C 0.35103 0.71147 0.79707 0.0
C365 C 0.21963 0.81221 0.77504 0.0
O366 O 0.24416 0.72047 0.82559 0.0
O367 O 0.25873 0.77705 0.85666 0.0
O368 O 0.23557 0.71948 0.70177 0.0
O369 O 0.25499 0.67332 0.7491 0.0
O370 O 0.20558 0.77961 0.77391 0.0
O371 O 0.25629 0.80339 0.7655 0.0
O372 O 0.33056 0.79762 0.74611 0.0
O373 O 0.31368 0.74184 0.71586 0.0
C374 C 0.241 0.74578 0.85776 0.0
C375 C 0.33413 0.77087 0.71511 0.0
Dy376 Dy 0.26603 0.24351 0.7756 0.0
C377 C 0.36998 0.33701 0.84179 0.0
C378 C 0.2143 0.19685 0.75197 0.0
Dy379 Dy 0.31835 0.29061 0.81773 0.0
O380 O 0.20995 0.23559 0.74344 0.0
O381 O 0.24667 0.18363 0.77409 0.0
O382 O 0.27707 0.26775 0.71119 0.0
O383 O 0.27723 0.30507 0.76397 0.0
C384 C 0.28438 0.30162 0.72452 0.0
C385 C 0.29885 0.23305 0.86892 0.0
O386 O 0.25987 0.32884 0.83837 0.0
O387 O 0.2243 0.28009 0.8232 0.0
O388 O 0.37421 0.29833 0.85067 0.0
O389 O 0.33783 0.35017 0.81936 0.0
O390 O 0.30366 0.26821 0.88141 0.0
O391 O 0.30749 0.22872 0.82976 0.0
O392 O 0.32449 0.20704 0.75238 0.0
O393 O 0.35985 0.2555 0.76934 0.0
C394 C 0.22711 0.31476 0.84125 0.0
C395 C 0.35702 0.2216 0.74986 0.0
Dy396 Dy 0.76481 0.26205 0.75416 0.0
C397 C 0.88189 0.28943 0.87939 0.0
C398 C 0.70399 0.25972 0.69794 0.0
Dy399 Dy 0.82421 0.28996 0.81861 0.0
O400 O 0.69945 0.26717 0.73835 0.0
O401 O 0.74176 0.25276 0.68871 0.0
O402 O 0.80851 0.20252 0.74367 0.0
O403 O 0.82983 0.25406 0.76056 0.0
C404 C 0.83952 0.21557 0.75551 0.0
C405 C 0.74888 0.3346 0.8186 0.0
O406 O 0.82787 0.33345 0.76515 0.0
O407 O 0.7725 0.32207 0.7285 0.0
O408 O 0.88817 0.28853 0.83846 0.0
O409 O 0.84425 0.29192 0.88643 0.0
O410 O 0.77931 0.34878 0.8302 0.0
O411 O 0.7598 0.29643 0.81286 0.0
O412 O 0.75933 0.22076 0.80884 0.0
O413 O 0.81601 0.23033 0.84429 0.0
C414 C 0.79968 0.34351 0.73549 0.0
C415 C 0.78717 0.21082 0.83875 0.0
Dy416 Dy 0.74413 0.75883 0.79485 0.0
C417 C 0.85311 0.85644 0.73536 0.0
C418 C 0.69502 0.70844 0.81802 0.0
Dy419 Dy 0.79656 0.81266 0.75326 0.0
O420 O 0.73309 0.69687 0.81142 0.0
O421 O 0.6834 0.74779 0.81148 0.0
O422 O 0.78284 0.75013 0.85297 0.0
O423 O 0.80768 0.75791 0.79322 0.0
C424 C 0.8141 0.75552 0.83274 0.0
C425 C 0.72543 0.82004 0.71606 0.0
O426 O 0.81951 0.75233 0.72078 0.0
O427 O 0.76366 0.72627 0.73312 0.0
O428 O 0.82789 0.84805 0.70823 0.0
O429 O 0.84743 0.84091 0.77231 0.0
O430 O 0.75645 0.82706 0.69656 0.0
O431 O 0.73254 0.81449 0.75535 0.0
O432 O 0.72549 0.8147 0.83545 0.0
O433 O 0.77142 0.85075 0.80991 0.0
C434 C 0.79776 0.72518 0.71279 0.0
C435 C 0.74321 0.84601 0.83725 0.0
C436 C 0.1307 0.14335 0.32251 0.0
C437 C 0.12466 0.13129 0.36468 0.0
H438 H 0.16021 0.17811 0.28069 0.0
C439 C 0.14372 0.14746 0.3976 0.0
H440 H 0.11711 0.13116 0.29623 0.0
C441 C 0.16838 0.17456 0.38861 0.0
C442 C 0.175 0.18583 0.34643 0.0
H443 H 0.1396 0.13905 0.43038 0.0
H444 H 0.18283 0.18615 0.4147 0.0
C445 C 0.15568 0.1701 0.31352 0.0
C446 C 0.9422 0.15754 0.29591 0.0
C447 C 0.92809 0.12146 0.299 0.0
H448 H 0.92715 0.22341 0.29555 0.0
C449 C 0.88658 0.12482 0.29925 0.0
H450 H 0.97395 0.15607 0.29619 0.0
C451 C 0.85984 0.16325 0.2985 0.0
C452 C 0.87395 0.19933 0.2984 0.0
H453 H 0.87473 0.09761 0.30172 0.0
H454 H 0.82814 0.16465 0.30019 0.0
C455 C 0.91539 0.1961 0.29598 0.0
C456 C 0.92006 0.92186 0.32579 0.0
C457 C 0.95011 0.91385 0.3571 0.0
H458 H 0.87598 0.89933 0.29131 0.0
C459 C 0.95832 0.87548 0.37816 0.0
H460 H 0.91286 0.95121 0.30927 0.0
C461 C 0.93767 0.8455 0.3674 0.0
C462 C 0.90768 0.85356 0.33606 0.0
H463 H 0.98147 0.86831 0.40218 0.0
H464 H 0.94524 0.81594 0.38353 0.0
C465 C 0.8988 0.89225 0.31573 0.0
C466 C 0.14239 0.92464 0.29451 0.0
C467 C 0.14258 0.96536 0.28256 0.0
H468 H 0.17744 0.8643 0.31037 0.0
C469 C 0.17951 0.97496 0.27415 0.0
H470 H 0.11456 0.91609 0.30143 0.0
C471 C 0.21521 0.94555 0.27969 0.0
C472 C 0.21522 0.90549 0.29352 0.0
H473 H 0.18106 1.00578 0.26479 0.0
H474 H 0.24304 0.95456 0.27392 0.0
C475 C 0.17839 0.89495 0.29981 0.0
C476 C 0.12755 0.89834 0.78839 0.0
C477 C 0.13833 0.93058 0.76584 0.0
H478 H 0.14503 0.83523 0.80847 0.0
C479 C 0.1777 0.92494 0.75072 0.0
H480 H 0.09735 0.90159 0.79989 0.0
C481 C 0.20514 0.88725 0.75608 0.0
C482 C 0.19343 0.85404 0.77569 0.0
H483 H 0.18678 0.94927 0.73306 0.0
H484 H 0.2347 0.88343 0.74264 0.0
C485 C 0.15475 0.86029 0.79288 0.0
C486 C 0.16798 0.10622 0.73586 0.0
C487 C 0.13418 0.12363 0.71101 0.0
H488 H 0.21975 0.1157 0.7683 0.0
C489 C 0.12768 0.16517 0.69884 0.0
H490 H 0.17409 0.07422 0.74537 0.0
C491 C 0.15382 0.18891 0.71208 0.0
C492 C 0.18707 0.17158 0.73757 0.0
H493 H 0.10176 0.17969 0.68019 0.0
H494 H 0.14775 0.22097 0.70269 0.0
C495 C 0.19416 0.12992 0.74896 0.0
C496 C 0.91782 0.11736 0.77571 0.0
C497 C 0.9531 0.13137 0.77935 0.0
H498 H 0.85473 0.13297 0.76522 0.0
C499 C 0.95019 0.17407 0.77852 0.0
H500 H 0.9187 0.08487 0.77614 0.0
C501 C 0.91325 0.20183 0.77211 0.0
C502 C 0.8785 0.18749 0.76609 0.0
H503 H 0.97669 0.18608 0.78122 0.0
H504 H 0.91215 0.23433 0.77026 0.0
C505 C 0.8811 0.14503 0.76903 0.0
C506 C 0.93653 0.91175 0.74929 0.0
C507 C 0.93942 0.92861 0.7084 0.0
H508 H 0.90724 0.87574 0.78973 0.0
C509 C 0.91406 0.92058 0.67619 0.0
H510 H 0.95593 0.91651 0.77477 0.0
C511 C 0.88621 0.8969 0.68484 0.0
C512 C 0.88313 0.88064 0.72585 0.0
H513 H 0.91516 0.93322 0.64447 0.0
H514 H 0.86683 0.89163 0.65949 0.0
C515 C 0.90874 0.88809 0.75789 0.0
C516 C 0.39505 0.16666 0.16521 0.0
C517 C 0.38147 0.13046 0.16168 0.0
H518 H 0.38937 0.22355 0.19667 0.0
C519 C 0.35409 0.12214 0.19194 0.0
H520 H 0.41604 0.1742 0.14259 0.0
C521 C 0.33825 0.15078 0.22278 0.0
C522 C 0.34981 0.18821 0.22438 0.0
H523 H 0.3438 0.09402 0.19099 0.0
H524 H 0.31592 0.14414 0.24432 0.0
C525 C 0.3795 0.19514 0.19626 0.0
C526 C 0.91325 0.31254 0.15119 0.0
C527 C 0.92086 0.3518 0.15441 0.0
H528 H 0.87841 0.27082 0.17222 0.0
C529 C 0.89732 0.38001 0.1818 0.0
H530 H 0.93047 0.29039 0.1298 0.0
C531 C 0.86756 0.36869 0.20651 0.0
C532 C 0.86021 0.32923 0.20351 0.0
H533 H 0.90257 0.41045 0.18475 0.0
H534 H 0.85039 0.39079 0.22802 0.0
C535 C 0.8831 0.30149 0.17517 0.0
C536 C 0.76516 0.88831 0.15202 0.0
C537 C 0.80319 0.89619 0.1457 0.0
H538 H 0.73118 0.85008 0.18262 0.0
C539 C 0.83526 0.87524 0.1707 0.0
H540 H 0.73986 0.90393 0.13308 0.0
C541 C 0.83025 0.84448 0.19889 0.0
C542 C 0.79306 0.83421 0.20247 0.0
H543 H 0.86461 0.88136 0.167 0.0
H544 H 0.85618 0.82702 0.21573 0.0
C545 C 0.76013 0.85745 0.18029 0.0
C546 C 0.13558 0.82014 0.10885 0.0
C547 C 0.09679 0.82111 0.12333 0.0
H548 H 0.19744 0.8098 0.12424 0.0
C549 C 0.09053 0.81652 0.16717 0.0
H550 H 0.14119 0.82416 0.07535 0.0
C551 C 0.12296 0.80871 0.19549 0.0
C552 C 0.16194 0.80472 0.18011 0.0
H553 H 0.06106 0.81676 0.17925 0.0
H554 H 0.11775 0.80432 0.22901 0.0
C555 C 0.1678 0.8115 0.13677 0.0
C556 C 0.37811 0.93015 0.88702 0.0
C557 C 0.39048 0.92021 0.92919 0.0
H558 H 0.34978 0.91296 0.83186 0.0
C559 C 0.38532 0.88333 0.94749 0.0
H560 H 0.38098 0.9588 0.87247 0.0
C561 C 0.36745 0.85717 0.92435 0.0
C562 C 0.35385 0.86784 0.88275 0.0
H563 H 0.39436 0.87531 0.98007 0.0
H564 H 0.36352 0.82905 0.93932 0.0
C565 C 0.35971 0.90427 0.86407 0.0
C566 C 0.12909 0.33859 0.90037 0.0
C567 C 0.13674 0.36424 0.93271 0.0
H568 H 0.15136 0.30309 0.84606 0.0
C569 C 0.17249 0.37773 0.93126 0.0
H570 H 0.10147 0.32841 0.89988 0.0
C571 C 0.20103 0.36355 0.89993 0.0
C572 C 0.19447 0.33547 0.86954 0.0
H573 H 0.17946 0.39736 0.95565 0.0
H574 H 0.22909 0.37289 0.90101 0.0
C575 C 0.15765 0.3242 0.86934 0.0
C576 C 0.79463 0.10047 0.86803 0.0
C577 C 0.81214 0.09854 0.90857 0.0
H578 H 0.77142 0.13863 0.81424 0.0
C579 C 0.81829 0.13431 0.9269 0.0
H580 H 0.78872 0.0733 0.85381 0.0
C581 C 0.8078 0.17141 0.90486 0.0
C582 C 0.79069 0.1734 0.8642 0.0
H583 H 0.8313 0.1334 0.95833 0.0
H584 H 0.81379 0.19849 0.91932 0.0
C585 C 0.78377 0.13783 0.84598 0.0
C586 C 0.89036 0.75862 0.91814 0.0
C587 C 0.92408 0.76079 0.89386 0.0
H588 H 0.82906 0.75509 0.9176 0.0
C589 C 0.92041 0.76387 0.84927 0.0
H590 H 0.89216 0.75587 0.95242 0.0
C591 C 0.8846 0.76247 0.82933 0.0
C592 C 0.85146 0.75875 0.85358 0.0
H593 H 0.94557 0.76636 0.82962 0.0
H594 H 0.88313 0.76343 0.79494 0.0
C595 C 0.85436 0.75767 0.89815 0.0
C596 C 0.17291 0.28957 0.13763 0.0
C597 C 0.13538 0.30139 0.15714 0.0
H598 H 0.23649 0.28003 0.14483 0.0
C599 C 0.13416 0.30819 0.20128 0.0
H600 H 0.175 0.28458 0.10371 0.0
C601 C 0.16933 0.30512 0.22495 0.0
C602 C 0.20671 0.29607 0.20493 0.0
H603 H 0.10577 0.31743 0.21735 0.0
H604 H 0.16709 0.3119 0.25852 0.0
C605 C 0.20813 0.2873 0.1612 0.0
C606 C 0.16274 0.70894 0.9241 0.0
C607 C 0.14846 0.74302 0.94969 0.0
H608 H 0.20331 0.68302 0.87467 0.0
C609 C 0.16831 0.77528 0.9487 0.0
H610 H 0.1476 0.68399 0.9237 0.0
C611 C 0.20021 0.77477 0.92098 0.0
C612 C 0.21267 0.74228 0.89284 0.0
H613 H 0.15776 0.80206 0.96795 0.0
H614 H 0.21343 0.80112 0.91987 0.0
C615 C 0.19442 0.70868 0.89574 0.0
C616 C 0.28446 0.18205 0.97389 0.0
C617 C 0.29986 0.1403 0.96608 0.0
H618 H 0.27173 0.24347 0.94925 0.0
C619 C 0.31054 0.12857 0.92398 0.0
H620 H 0.27563 0.19234 1.00565 0.0
C621 C 0.30826 0.15829 0.89124 0.0
C622 C 0.2954 0.20019 0.90011 0.0
H623 H 0.32263 0.09669 0.91676 0.0
H624 H 0.31848 0.14863 0.85968 0.0
C625 C 0.28231 0.21148 0.94145 0.0
C626 C 0.9297 0.27388 0.98885 0.0
C627 C 0.96856 0.27911 0.98147 0.0
H628 H 0.87235 0.27365 0.96293 0.0
C629 C 0.97936 0.28643 0.93926 0.0
H630 H 0.91996 0.2684 0.02072 0.0
C631 C 0.9517 0.28914 0.90567 0.0
C632 C 0.9125 0.28531 0.91368 0.0
H633 H 1.00889 0.29086 0.9323 0.0
H634 H 0.9607 0.29515 0.87365 0.0
C635 C 0.90212 0.27721 0.95561 0.0
C636 C 0.71447 0.88861 0.94734 0.0
C637 C 0.72546 0.92655 0.94561 0.0
H638 H 0.71058 0.83404 0.91463 0.0
C639 C 0.7384 0.93961 0.90641 0.0
H640 H 0.70466 0.87741 0.97702 0.0
C641 C 0.74271 0.91422 0.87075 0.0
C642 C 0.73334 0.87547 0.87304 0.0
H643 H 0.74762 0.96834 0.90393 0.0
H644 H 0.75458 0.92445 0.84171 0.0
C645 C 0.71792 0.86366 0.91147 0.0
C646 C 0.97601 0.71321 0.13584 0.0
C647 C 0.96615 0.69545 0.09829 0.0
H648 H 0.95861 0.73252 0.19913 0.0
C649 C 0.93163 0.67966 0.09834 0.0
H650 H 1.00205 0.72614 0.13695 0.0
C651 C 0.9068 0.68304 0.13417 0.0
C652 C 0.91538 0.7029 0.17089 0.0
H653 H 0.92297 0.66589 0.07003 0.0
H654 H 0.87984 0.67173 0.13224 0.0
C655 C 0.95085 0.71712 0.17152 0.0
C656 C 0.33434 0.94645 0.14698 0.0
C657 C 0.30859 0.94997 0.1116 0.0
H658 H 0.35404 0.91568 0.20612 0.0
C659 C 0.28203 0.92388 0.10987 0.0
H660 H 0.3554 0.96583 0.14942 0.0
C661 C 0.28122 0.89513 0.14257 0.0
C662 C 0.30727 0.89132 0.17771 0.0
H663 H 0.2619 0.92553 0.08314 0.0
H664 H 0.26023 0.87567 0.14011 0.0
C665 C 0.33382 0.91741 0.17946 0.0
C666 C 0.75642 0.10676 0.13079 0.0
C667 C 0.73794 0.12082 0.09164 0.0
H668 H 0.77724 0.12237 0.19127 0.0
C669 C 0.72529 0.1635 0.08484 0.0
H670 H 0.76678 0.07426 0.13734 0.0
C671 C 0.73146 0.19115 0.11591 0.0
C672 C 0.75055 0.17697 0.15462 0.0
H673 H 0.71117 0.17567 0.05515 0.0
H674 H 0.72159 0.22372 0.10941 0.0
C675 C 0.76264 0.13441 0.16176 0.0
C676 C 0.66045 0.61155 0.84406 0.0
C677 C 0.62212 0.62698 0.8605 0.0
H678 H 0.71356 0.62524 0.81817 0.0
C679 C 0.60779 0.66968 0.86285 0.0
H680 H 0.67224 0.57883 0.84198 0.0
C681 C 0.63117 0.69634 0.84848 0.0
C682 C 0.66955 0.68076 0.83223 0.0
H683 H 0.57817 0.68244 0.87484 0.0
H684 H 0.61933 0.72909 0.85033 0.0
C685 C 0.68404 0.63812 0.83045 0.0
C686 C 0.39574 0.60006 0.82242 0.0
C687 C 0.43493 0.59595 0.80727 0.0
H688 H 0.33778 0.63981 0.83023 0.0
C689 C 0.44413 0.62802 0.78308 0.0
H690 H 0.38792 0.57569 0.8412 0.0
C691 C 0.41568 0.66496 0.77768 0.0
C692 C 0.37745 0.67009 0.79566 0.0
H693 H 0.47412 0.62583 0.7714 0.0
H694 H 0.42423 0.69026 0.76122 0.0
C695 C 0.36706 0.63669 0.81625 0.0
C696 C 0.41659 0.42762 0.8536 0.0
C697 C 0.4513 0.41065 0.87716 0.0
H698 H 0.36381 0.41762 0.82398 0.0
C699 C 0.45815 0.36949 0.89076 0.0
H700 H 0.41018 0.4594 0.84323 0.0
C701 C 0.43148 0.34549 0.87966 0.0
C702 C 0.39747 0.36234 0.85503 0.0
H703 H 0.48476 0.3555 0.90863 0.0
H704 H 0.43781 0.31362 0.88977 0.0
C705 C 0.38999 0.40375 0.84266 0.0
C706 C 0.63715 0.3698 0.80045 0.0
C707 C 0.63187 0.41275 0.79905 0.0
H708 H 0.67819 0.31134 0.80842 0.0
C709 C 0.66586 0.42921 0.8009 0.0
H710 H 0.61169 0.35597 0.79922 0.0
C711 C 0.70383 0.40355 0.80625 0.0
C712 C 0.7088 0.36083 0.80968 0.0
H713 H 0.66307 0.46204 0.79992 0.0
H714 H 0.72928 0.4173 0.80858 0.0
C715 C 0.67523 0.34412 0.80573 0.0
C716 C 0.61511 0.40791 0.27481 0.0
C717 C 0.62652 0.44418 0.26341 0.0
H718 H 0.63412 0.343 0.28597 0.0
C719 C 0.66741 0.44337 0.25979 0.0
H720 H 0.58381 0.40744 0.27664 0.0
C721 C 0.6963 0.40663 0.26552 0.0
C722 C 0.68471 0.36972 0.27362 0.0
H723 H 0.67691 0.47077 0.24999 0.0
H724 H 0.72742 0.40666 0.26059 0.0
C725 C 0.64393 0.37098 0.27962 0.0
C726 C 0.68293 0.59292 0.21268 0.0
C727 C 0.65343 0.61009 0.18245 0.0
H728 H 0.73729 0.59704 0.24379 0.0
C729 C 0.65846 0.64401 0.15795 0.0
H730 H 0.68033 0.56642 0.23161 0.0
C731 C 0.69111 0.66146 0.16491 0.0
C732 C 0.71974 0.64519 0.19619 0.0
H733 H 0.63629 0.65817 0.13462 0.0
H734 H 0.69324 0.68856 0.14668 0.0
C735 C 0.7158 0.61018 0.21936 0.0
C736 C 0.41487 0.64226 0.26558 0.0
C737 C 0.45011 0.65549 0.2575 0.0
H738 H 0.3511 0.65898 0.27112 0.0
C739 C 0.44726 0.69789 0.25174 0.0
H740 H 0.41573 0.60997 0.26992 0.0
C741 C 0.41012 0.72605 0.25251 0.0
C742 C 0.37482 0.71251 0.25855 0.0
H743 H 0.47371 0.7093 0.24546 0.0
H744 H 0.40897 0.75826 0.247 0.0
C745 C 0.37772 0.67039 0.26589 0.0
C746 C 0.44554 0.41327 0.2337 0.0
C747 C 0.43148 0.44719 0.20641 0.0
H748 H 0.43237 0.36168 0.26719 0.0
C749 C 0.39173 0.4546 0.19193 0.0
H750 H 0.47599 0.40643 0.24519 0.0
C751 C 0.36668 0.42905 0.20471 0.0
C752 C 0.38081 0.39528 0.23201 0.0
H753 H 0.37962 0.48066 0.17139 0.0
H754 H 0.33619 0.43581 0.19325 0.0
C755 C 0.42056 0.38755 0.2462 0.0
C756 C 0.81264 0.62393 0.65246 0.0
C757 C 0.8488 0.62258 0.63106 0.0
H758 H 0.7681 0.65698 0.69494 0.0
C759 C 0.86567 0.65696 0.63393 0.0
H760 H 0.79935 0.59781 0.65236 0.0
C761 C 0.84829 0.69063 0.65888 0.0
C762 C 0.81332 0.69122 0.68219 0.0
H763 H 0.89367 0.65704 0.61825 0.0
H764 H 0.86324 0.71563 0.66105 0.0
C765 C 0.79505 0.65785 0.67757 0.0
C766 C 0.42529 0.7918 0.65778 0.0
C767 C 0.43416 0.75973 0.62843 0.0
H768 H 0.38696 0.82082 0.70748 0.0
C769 C 0.40778 0.73334 0.62582 0.0
H770 H 0.44479 0.81264 0.66117 0.0
C771 C 0.37442 0.73805 0.65256 0.0
C772 C 0.3663 0.76933 0.68277 0.0
H773 H 0.41294 0.70871 0.60328 0.0
H774 H 0.35555 0.71642 0.6502 0.0
C775 C 0.39192 0.79651 0.68451 0.0
C776 C 0.3242 0.38586 0.66945 0.0
C777 C 0.30001 0.3937 0.6328 0.0
H778 H 0.3373 0.35143 0.72824 0.0
C779 C 0.26952 0.37261 0.62803 0.0
H780 H 0.34781 0.40185 0.67395 0.0
C781 C 0.26415 0.34332 0.65837 0.0
C782 C 0.28823 0.33543 0.69499 0.0
H783 H 0.25063 0.3779 0.60005 0.0
H784 H 0.24121 0.32659 0.65308 0.0
C785 C 0.31796 0.35739 0.70062 0.0
C786 C 0.60101 0.26587 0.64898 0.0
C787 C 0.61128 0.24953 0.60856 0.0
H788 H 0.62238 0.28148 0.70945 0.0
C789 C 0.65178 0.23916 0.5972 0.0
H790 H 0.57012 0.27315 0.65897 0.0
C791 C 0.68149 0.24387 0.62577 0.0
C792 C 0.67162 0.25829 0.66694 0.0
H793 H 0.66062 0.22586 0.56653 0.0
H794 H 0.71239 0.23469 0.61608 0.0
C795 C 0.63096 0.27006 0.67801 0.0
C796 C 0.80594 0.45946 0.44914 0.0
C797 C 0.81524 0.44396 0.49075 0.0
H798 H 0.79368 0.44634 0.38439 0.0
C799 C 0.82033 0.40145 0.4978 0.0
H800 H 0.80153 0.49196 0.44239 0.0
C801 C 0.81613 0.37533 0.46449 0.0
C802 C 0.80617 0.39088 0.42315 0.0
H803 H 0.82746 0.38822 0.52926 0.0
H804 H 0.82024 0.34286 0.4713 0.0
C805 C 0.80123 0.4333 0.41587 0.0
C806 C 0.70188 0.78753 0.43262 0.0
C807 C 0.68381 0.75398 0.4376 0.0
H808 H 0.74236 0.81497 0.39583 0.0
C809 C 0.69215 0.72285 0.4076 0.0
H810 H 0.69602 0.81197 0.45543 0.0
C811 C 0.71753 0.72495 0.37351 0.0
C812 C 0.73633 0.75794 0.36835 0.0
H813 H 0.67849 0.69689 0.41022 0.0
H814 H 0.72279 0.69993 0.35137 0.0
C815 C 0.72843 0.78921 0.39862 0.0
C816 C 0.32416 0.67276 0.43538 0.0
C817 C 0.29961 0.64473 0.43118 0.0
H818 H 0.33935 0.72777 0.41275 0.0
C819 C 0.26925 0.65338 0.40005 0.0
H820 H 0.34738 0.668 0.45927 0.0
C821 C 0.2643 0.68832 0.37342 0.0
C822 C 0.28957 0.71569 0.37703 0.0
H823 H 0.24983 0.63265 0.39541 0.0
H824 H 0.24128 0.69325 0.34922 0.0
C825 C 0.31928 0.70754 0.40875 0.0
C826 C 0.3996 0.25913 0.45176 0.0
C827 C 0.4331 0.26761 0.43112 0.0
H828 H 0.3402 0.25011 0.44553 0.0
C829 C 0.43009 0.27701 0.38715 0.0
H830 H 0.40076 0.25138 0.48536 0.0
C831 C 0.39502 0.27669 0.3643 0.0
C832 C 0.36235 0.26631 0.3847 0.0
H833 H 0.4553 0.2835 0.37006 0.0
H834 H 0.39419 0.28272 0.3304 0.0
C835 C 0.36491 0.2581 0.42878 0.0
C836 C 0.64587 0.83818 0.63111 0.0
C837 C 0.61708 0.81972 0.64949 0.0
H838 H 0.7031 0.85207 0.63783 0.0
C839 C 0.62211 0.80557 0.69194 0.0
H840 H 0.64303 0.84912 0.59841 0.0
C841 C 0.65644 0.80767 0.71471 0.0
C842 C 0.68658 0.82314 0.69509 0.0
H843 H 0.60033 0.79124 0.70693 0.0
H844 H 0.66023 0.79541 0.7468 0.0
C845 C 0.68047 0.8395 0.65358 0.0
C846 C 0.65939 0.19028 0.38294 0.0
C847 C 0.64597 0.2099 0.42106 0.0
H848 H 0.69688 0.18795 0.32853 0.0
C849 C 0.66286 0.24208 0.43444 0.0
H850 H 0.64695 0.16565 0.37144 0.0
C851 C 0.69139 0.25522 0.40957 0.0
C852 C 0.70389 0.23637 0.37083 0.0
H853 H 0.65394 0.25736 0.46406 0.0
H854 H 0.7032 0.28053 0.4205 0.0
C855 C 0.68798 0.20331 0.35817 0.0
C856 C 0.85545 0.64328 0.42731 0.0
C857 C 0.81664 0.63664 0.42882 0.0
H858 H 0.9002 0.66106 0.38926 0.0
C859 C 0.79589 0.63562 0.39065 0.0
H860 H 0.87237 0.64361 0.45622 0.0
C861 C 0.81212 0.64491 0.35216 0.0
C862 C 0.84906 0.656 0.3513 0.0
H863 H 0.7666 0.62897 0.39063 0.0
H864 H 0.79415 0.64707 0.32362 0.0
C865 C 0.87167 0.65264 0.38882 0.0
C866 C 0.49542 0.81174 0.39102 0.0
C867 C 0.49027 0.82569 0.43293 0.0
H868 H 0.46743 0.80415 0.33202 0.0
C869 C 0.45258 0.84782 0.4459 0.0
H870 H 0.52425 0.79463 0.38029 0.0
C871 C 0.41982 0.85269 0.41839 0.0
C872 C 0.42459 0.83595 0.37755 0.0
H873 H 0.4478 0.85852 0.47819 0.0
H874 H 0.39052 0.86766 0.42983 0.0
C875 C 0.4629 0.81704 0.36347 0.0
C876 C 0.22905 0.45455 0.40002 0.0
C877 C 0.2144 0.4451 0.43974 0.0
H878 H 0.2491 0.43315 0.33844 0.0
C879 C 0.20245 0.4079 0.44485 0.0
H880 H 0.23806 0.48311 0.39471 0.0
C881 C 0.20865 0.37917 0.41229 0.0
C882 C 0.22708 0.38711 0.3742 0.0
H883 H 0.19081 0.39975 0.47495 0.0
H884 H 0.20172 0.34966 0.41821 0.0
C885 C 0.23547 0.42581 0.36771 0.0
C886 C 0.45299 0.20396 0.68724 0.0
C887 C 0.44513 0.17948 0.65394 0.0
H888 H 0.43169 0.23602 0.74385 0.0
C889 C 0.4103 0.16431 0.65587 0.0
H890 H 0.47993 0.21539 0.6873 0.0
C891 C 0.38268 0.17583 0.68868 0.0
C892 C 0.38926 0.20285 0.72015 0.0
H893 H 0.40316 0.1455 0.63079 0.0
H894 H 0.35518 0.1654 0.68795 0.0
C895 C 0.42537 0.21563 0.71982 0.0
C896 C 0.80065 0.45378 0.70903 0.0
C897 C 0.77071 0.46315 0.6777 0.0
H898 H 0.83398 0.40815 0.75184 0.0
C899 C 0.75248 0.43238 0.66398 0.0
H900 H 0.81551 0.47705 0.71948 0.0
C901 C 0.76369 0.39306 0.68132 0.0
C902 C 0.7931 0.38358 0.71327 0.0
H903 H 0.73038 0.43834 0.63884 0.0
H904 H 0.74875 0.37021 0.66986 0.0
C905 C 0.81165 0.41431 0.72691 0.0
C906 C 0.23891 0.57826 0.66834 0.0
C907 C 0.23106 0.58803 0.62524 0.0
H908 H 0.2465 0.60073 0.73015 0.0
C909 C 0.21778 0.62914 0.61239 0.0
H910 H 0.24947 0.54665 0.67874 0.0
C911 C 0.21682 0.66026 0.64172 0.0
C912 C 0.22887 0.65029 0.68399 0.0
H913 H 0.21222 0.63725 0.5791 0.0
H914 H 0.20971 0.69185 0.63061 0.0
C915 C 0.23757 0.60919 0.69761 0.0
loop_
_geom_bond_atom_site_label_1
_geom_bond_atom_site_label_2
_geom_bond_distance
_geom_bond_site_symmetry_2
_ccdc_geom_bond_type
Cu0 N1 1.978 1_565 S
Cu0 O6 1.987 . S
Cu0 N11 2.006 1_455 S
Cu0 O20 1.946 1_465 S
N1 Cu0 1.978 1_545 S
N1 C3 1.263 . S
N1 C5 1.389 . S
N2 C3 1.358 . S
N2 C4 1.400 . S
C3 N1 1.263 . S
C3 N2 1.358 . S
C3 H9 0.930 . S
C4 N2 1.400 . S
C4 C5 1.351 . S
C4 H21 0.930 . S
C5 N1 1.389 . S
C5 C4 1.351 . S
C5 H10 0.930 . S
O6 Cu0 1.987 . S
O6 C16 1.282 . S
C7 O8 1.261 . S
C7 O20 1.251 . S
O8 C7 1.261 . S
H9 C3 0.930 . S
H10 C5 0.930 . S
N11 Cu0 2.006 1_655 S
N11 C13 1.335 . S
N11 C14 1.390 1_655 S
N12 C13 1.345 . S
N12 C15 1.336 . S
C13 N11 1.335 . S
C13 N12 1.345 . S
C13 H18 0.930 . S
C14 N11 1.390 1_455 S
C14 C15 1.346 1_455 S
C14 H19 0.930 . S
C15 N12 1.336 . S
C15 C14 1.346 1_655 S
C15 H22 0.929 . S
C16 O6 1.282 . S
C16 O17 1.216 . S
O17 C16 1.216 . S
H18 C13 0.930 . S
H19 C14 0.930 . S
O20 Cu0 1.946 1_645 S
O20 C7 1.251 . S
H21 C4 0.930 . S
H22 C15 0.929 . S
Cu23 N24 1.999 1_445 S
Cu23 O29 1.974 1_455 S
Cu23 N34 1.985 . S
Cu23 O43 1.959 1_545 S
N24 Cu23 1.999 1_665 S
N24 C26 1.263 . S
N24 C28 1.389 . S
N25 C26 1.358 . S
N25 C27 1.400 . S
C26 N24 1.263 . S
C26 N25 1.358 . S
C26 H32 0.930 1_565 S
C27 N25 1.400 . S
C27 C28 1.351 . S
C27 H44 0.930 . S
C28 N24 1.389 . S
C28 C27 1.351 . S
C28 H33 0.930 . S
O29 Cu23 1.974 1_655 S
O29 C39 1.282 . S
C30 O31 1.261 . S
C30 O43 1.251 . S
O31 C30 1.261 . S
H32 C26 0.930 1_545 S
H33 C28 0.930 . S
N34 Cu23 1.985 . S
N34 C36 1.335 . S
N34 C37 1.390 . S
N35 C36 1.345 . S
N35 C38 1.336 . S
C36 N34 1.335 . S
C36 N35 1.345 . S
C36 H41 0.930 . S
C37 N34 1.390 . S
C37 C38 1.346 . S
C37 H42 0.946 . S
C38 N35 1.336 . S
C38 C37 1.346 . S
C38 H45 0.929 . S
C39 O29 1.282 . S
C39 O40 1.216 . S
O40 C39 1.216 . S
H41 C36 0.930 . S
H42 C37 0.946 . S
O43 Cu23 1.959 1_565 S
O43 C30 1.251 . S
H44 C27 0.930 . S
H45 C38 0.929 . S
Cu46 N47 1.999 1_545 S
Cu46 O52 1.974 1_545 S
Cu46 N57 1.985 . S
Cu46 O66 1.959 . S
N47 Cu46 1.999 1_565 S
N47 C49 1.263 . S
N47 C51 1.389 1_554 S
N48 C49 1.358 1_556 S
N48 C50 1.400 . S
C49 N47 1.263 . S
C49 N48 1.358 1_554 S
C49 H55 0.930 . S
C50 N48 1.400 . S
C50 C51 1.351 . S
C50 H67 0.930 . S
C51 N47 1.389 1_556 S
C51 C50 1.351 . S
C51 H56 0.930 . S
O52 Cu46 1.974 1_565 S
O52 C62 1.282 . S
C53 O54 1.261 1_556 S
C53 O66 1.251 1_556 S
O54 C53 1.261 1_554 S
H55 C49 0.930 . S
H56 C51 0.930 . S
N57 Cu46 1.985 . S
N57 C59 1.335 . S
N57 C60 1.390 . S
N58 C59 1.345 . S
N58 C61 1.336 . S
C59 N57 1.335 . S
C59 N58 1.345 . S
C59 H64 0.930 . S
C60 N57 1.390 . S
C60 C61 1.346 . S
C60 H65 0.930 . S
C61 N58 1.336 . S
C61 C60 1.346 . S
C61 H68 0.929 . S
C62 O52 1.282 . S
C62 O63 1.216 . S
O63 C62 1.216 . S
H64 C59 0.930 . S
H65 C60 0.930 . S
O66 Cu46 1.959 . S
O66 C53 1.251 1_554 S
H67 C50 0.930 . S
H68 C61 0.929 . S
Cu69 N70 1.999 1_554 S
Cu69 O75 1.974 . S
Cu69 N80 1.985 1_455 S
Cu69 O89 1.945 1_454 S
N70 Cu69 1.999 1_556 S
N70 C72 1.263 . S
N70 C74 1.389 . S
N71 C72 1.358 . S
N71 C73 1.400 . S
C72 N70 1.263 . S
C72 N71 1.358 . S
C72 H78 0.930 1_556 S
C73 N71 1.400 . S
C73 C74 1.351 . S
C73 H90 0.930 . S
C74 N70 1.389 . S
C74 C73 1.351 . S
C74 H79 0.930 . S
O75 Cu69 1.974 . S
O75 C85 1.282 . S
C76 O77 1.261 . S
C76 O89 1.258 . S
O77 C76 1.261 . S
H78 C72 0.930 1_554 S
H79 C74 0.930 . S
N80 Cu69 1.985 1_655 S
N80 C82 1.335 . S
N80 C83 1.390 . S
N81 C82 1.345 . S
N81 C84 1.336 . S
C82 N80 1.335 . S
C82 N81 1.345 . S
C82 H87 0.930 . S
C83 N80 1.390 . S
C83 C84 1.346 . S
C83 H88 0.930 1_655 S
C84 N81 1.336 . S
C84 C83 1.346 . S
C84 H91 0.929 . S
C85 O75 1.282 . S
C85 O86 1.216 . S
O86 C85 1.216 . S
H87 C82 0.930 . S
H88 C83 0.930 1_455 S
O89 Cu69 1.945 1_656 S
O89 C76 1.258 . S
H90 C73 0.930 . S
H91 C84 0.929 . S
Cu92 N93 1.999 1_554 S
Cu92 O98 1.974 . S
Cu92 N103 1.985 1_545 S
Cu92 O112 1.959 1_544 S
N93 Cu92 1.999 1_556 S
N93 C95 1.263 . S
N93 C97 1.389 . S
N94 C95 1.358 . S
N94 C96 1.400 . S
C95 N93 1.263 . S
C95 N94 1.358 . S
C95 H101 0.930 . S
C96 N94 1.400 . S
C96 C97 1.351 . S
C96 H113 0.930 . S
C97 N93 1.389 . S
C97 C96 1.351 . S
C97 H102 0.930 . S
O98 Cu92 1.974 . S
O98 C108 1.282 . S
C99 O100 1.261 . S
C99 O112 1.251 . S
O100 C99 1.261 . S
H101 C95 0.930 . S
H102 C97 0.930 . S
N103 Cu92 1.985 1_565 S
N103 C105 1.335 . S
N103 C106 1.390 . S
N104 C105 1.345 . S
N104 C107 1.336 . S
C105 N103 1.335 . S
C105 N104 1.345 . S
C105 H110 0.930 . S
C106 N103 1.390 . S
C106 C107 1.346 . S
C106 H111 0.930 1_565 S
C107 N104 1.336 . S
C107 C106 1.346 . S
C107 H114 0.929 . S
C108 O98 1.282 . S
C108 O109 1.216 . S
O109 C108 1.216 . S
H110 C105 0.930 . S
H111 C106 0.930 1_545 S
O112 Cu92 1.959 1_566 S
O112 C99 1.251 . S
H113 C96 0.930 . S
H114 C107 0.929 . S
Cu115 N116 1.999 1_454 S
Cu115 O121 1.974 1_455 S
Cu115 N126 1.985 . S
Cu115 O135 1.959 1_554 S
N116 Cu115 1.999 1_656 S
N116 C118 1.263 . S
N116 C120 1.389 . S
N117 C118 1.358 . S
N117 C119 1.400 . S
C118 N116 1.263 . S
C118 N117 1.358 . S
C118 H124 0.930 . S
C119 N117 1.400 . S
C119 C120 1.351 . S
C119 H136 0.930 . S
C120 N116 1.389 . S
C120 C119 1.351 . S
C120 H125 0.930 1_655 S
O121 Cu115 1.974 1_655 S
O121 C131 1.282 . S
C122 O123 1.261 . S
C122 O135 1.251 . S
O123 C122 1.261 . S
H124 C118 0.930 . S
H125 C120 0.930 1_455 S
N126 Cu115 1.985 . S
N126 C128 1.335 . S
N126 C129 1.390 . S
N127 C128 1.345 . S
N127 C130 1.336 . S
C128 N126 1.335 . S
C128 N127 1.345 . S
C128 H133 0.930 . S
C129 N126 1.390 . S
C129 C130 1.346 . S
C129 H134 0.930 . S
C130 N127 1.336 . S
C130 C129 1.346 . S
C130 H137 0.929 . S
C131 O121 1.282 . S
C131 O132 1.216 . S
O132 C131 1.216 . S
H133 C128 0.930 . S
H134 C129 0.930 . S
O135 Cu115 1.959 1_556 S
O135 C122 1.251 . S
H136 C119 0.930 . S
H137 C130 0.929 . S
Cu138 N139 1.999 . S
Cu138 O144 1.974 . S
Cu138 N149 1.985 . S
Cu138 O158 1.959 . S
N139 Cu138 1.999 . S
N139 C141 1.263 . S
N139 C143 1.389 . S
N140 C141 1.358 . S
N140 C142 1.400 . S
C141 N139 1.263 . S
C141 N140 1.358 . S
C141 H147 0.930 . S
C142 N140 1.400 . S
C142 C143 1.351 . S
C142 H159 0.930 . S
C143 N139 1.389 . S
C143 C142 1.351 . S
C143 H148 0.930 . S
O144 Cu138 1.974 . S
O144 C154 1.282 . S
C145 O146 1.261 . S
C145 O158 1.251 . S
O146 C145 1.261 . S
H147 C141 0.930 . S
H148 C143 0.930 . S
N149 Cu138 1.985 . S
N149 C151 1.335 . S
N149 C152 1.390 . S
N150 C151 1.345 . S
N150 C153 1.336 . S
C151 N149 1.335 . S
C151 N150 1.345 . S
C151 H156 0.930 . S
C152 N149 1.390 . S
C152 C153 1.346 . S
C152 H157 0.930 . S
C153 N150 1.336 . S
C153 C152 1.346 . S
C153 H160 0.929 . S
C154 O144 1.282 . S
C154 O155 1.216 . S
O155 C154 1.216 . S
H156 C151 0.930 . S
H157 C152 0.930 . S
O158 Cu138 1.959 . S
O158 C145 1.251 . S
H159 C142 0.930 . S
H160 C153 0.929 . S
Cu161 N162 1.999 . S
Cu161 O167 1.974 . S
Cu161 N172 1.985 . S
Cu161 O181 1.959 . S
N162 Cu161 1.999 . S
N162 C164 1.263 . S
N162 C166 1.389 . S
N163 C164 1.358 . S
N163 C165 1.400 . S
C164 N162 1.263 . S
C164 N163 1.358 . S
C164 H170 0.930 . S
C165 N163 1.400 . S
C165 C166 1.351 . S
C165 H182 0.930 . S
C166 N162 1.389 . S
C166 C165 1.351 . S
C166 H171 0.930 . S
O167 Cu161 1.974 . S
O167 C177 1.282 . S
C168 O169 1.261 . S
C168 O181 1.251 . S
O169 C168 1.261 . S
H170 C164 0.930 . S
H171 C166 0.930 . S
N172 Cu161 1.985 . S
N172 C174 1.335 . S
N172 C175 1.390 . S
N173 C174 1.345 . S
N173 C176 1.336 . S
C174 N172 1.335 . S
C174 N173 1.345 . S
C174 H179 0.930 . S
C175 N172 1.390 . S
C175 C176 1.346 . S
C175 H180 0.930 . S
C176 N173 1.336 . S
C176 C175 1.346 . S
C176 H183 0.929 . S
C177 O167 1.282 . S
C177 O178 1.216 . S
O178 C177 1.216 . S
H179 C174 0.930 . S
H180 C175 0.930 . S
O181 Cu161 1.959 . S
O181 C168 1.251 . S
H182 C165 0.930 . S
H183 C176 0.929 . S
Cu184 N185 1.999 . S
Cu184 O190 1.974 . S
Cu184 N195 1.985 . S
Cu184 O204 1.959 . S
N185 Cu184 1.999 . S
N185 C187 1.263 . S
N185 C189 1.389 . S
N186 C187 1.358 . S
N186 C188 1.400 . S
C187 N185 1.263 . S
C187 N186 1.358 . S
C187 H193 0.930 . S
C188 N186 1.400 . S
C188 C189 1.351 . S
C188 H205 0.930 . S
C189 N185 1.389 . S
C189 C188 1.351 . S
C189 H194 0.930 . S
O190 Cu184 1.974 . S
O190 C200 1.282 . S
C191 O192 1.261 . S
C191 O204 1.251 . S
O192 C191 1.261 . S
H193 C187 0.930 . S
H194 C189 0.930 . S
N195 Cu184 1.985 . S
N195 C197 1.335 . S
N195 C198 1.390 . S
N196 C197 1.345 . S
N196 C199 1.336 . S
C197 N195 1.335 . S
C197 N196 1.345 . S
C197 H202 0.930 . S
C198 N195 1.390 . S
C198 C199 1.346 . S
C198 H203 0.930 . S
C199 N196 1.336 . S
C199 C198 1.346 . S
C199 H206 0.929 . S
C200 O190 1.282 . S
C200 O201 1.216 . S
O201 C200 1.216 . S
H202 C197 0.930 . S
H203 C198 0.930 . S
O204 Cu184 1.959 . S
O204 C191 1.251 . S
H205 C188 0.930 . S
H206 C199 0.929 . S
Cu207 N208 1.999 . S
Cu207 O213 1.974 . S
Cu207 N218 1.985 . S
Cu207 O227 1.959 . S
N208 Cu207 1.999 . S
N208 C210 1.263 . S
N208 C212 1.389 . S
N209 C210 1.358 . S
N209 C211 1.400 . S
C210 N208 1.263 . S
C210 N209 1.358 . S
C210 H216 0.930 . S
C211 N209 1.400 . S
C211 C212 1.351 . S
C211 H228 0.930 . S
C212 N208 1.389 . S
C212 C211 1.351 . S
C212 H217 0.930 . S
O213 Cu207 1.974 . S
O213 C223 1.282 . S
C214 O215 1.261 . S
C214 O227 1.251 . S
O215 C214 1.261 . S
H216 C210 0.930 . S
H217 C212 0.930 . S
N218 Cu207 1.985 . S
N218 C220 1.335 . S
N218 C221 1.390 . S
N219 C220 1.345 . S
N219 C222 1.336 . S
C220 N218 1.335 . S
C220 N219 1.345 . S
C220 H225 0.930 . S
C221 N218 1.390 . S
C221 C222 1.346 . S
C221 H226 0.930 . S
C222 N219 1.336 . S
C222 C221 1.346 . S
C222 H229 0.929 . S
C223 O213 1.282 . S
C223 O224 1.216 . S
O224 C223 1.216 . S
H225 C220 0.930 . S
H226 C221 0.930 . S
O227 Cu207 1.959 . S
O227 C214 1.251 . S
H228 C211 0.930 . S
H229 C222 0.929 . S
Cu230 N231 1.999 . S
Cu230 O236 1.974 . S
Cu230 N241 1.985 . S
Cu230 O250 1.959 . S
N231 Cu230 1.999 . S
N231 C233 1.263 . S
N231 C235 1.389 . S
N232 C233 1.358 . S
N232 C234 1.400 . S
C233 N231 1.263 . S
C233 N232 1.358 . S
C233 H239 0.930 . S
C234 N232 1.400 . S
C234 C235 1.351 . S
C234 H251 0.930 . S
C235 N231 1.389 . S
C235 C234 1.351 . S
C235 H240 0.930 . S
O236 Cu230 1.974 . S
O236 C246 1.282 . S
C237 O238 1.261 . S
C237 O250 1.251 . S
O238 C237 1.261 . S
H239 C233 0.930 . S
H240 C235 0.930 . S
N241 Cu230 1.985 . S
N241 C243 1.335 . S
N241 C244 1.390 . S
N242 C243 1.345 . S
N242 C245 1.336 . S
C243 N241 1.335 . S
C243 N242 1.345 . S
C243 H248 0.930 . S
C244 N241 1.390 . S
C244 C245 1.346 . S
C244 H249 0.930 . S
C245 N242 1.336 . S
C245 C244 1.346 . S
C245 H252 0.929 . S
C246 O236 1.282 . S
C246 O247 1.216 . S
O247 C246 1.216 . S
H248 C243 0.930 . S
H249 C244 0.930 . S
O250 Cu230 1.959 . S
O250 C237 1.251 . S
H251 C234 0.930 . S
H252 C245 0.929 . S
Cu253 N254 1.999 . S
Cu253 O259 1.974 . S
Cu253 N264 1.985 . S
Cu253 O273 1.959 . S
N254 Cu253 1.999 . S
N254 C256 1.263 . S
N254 C258 1.389 . S
N255 C256 1.358 . S
N255 C257 1.400 . S
C256 N254 1.263 . S
C256 N255 1.358 . S
C256 H262 0.930 . S
C257 N255 1.400 . S
C257 C258 1.351 . S
C257 H274 0.930 . S
C258 N254 1.389 . S
C258 C257 1.351 . S
C258 H263 0.930 . S
O259 Cu253 1.974 . S
O259 C269 1.282 . S
C260 O261 1.261 . S
C260 O273 1.251 . S
O261 C260 1.261 . S
H262 C256 0.930 . S
H263 C258 0.930 . S
N264 Cu253 1.985 . S
N264 C266 1.335 . S
N264 C267 1.390 . S
N265 C266 1.345 . S
N265 C268 1.336 . S
C266 N264 1.335 . S
C266 N265 1.345 . S
C266 H271 0.930 . S
C267 N264 1.390 . S
C267 C268 1.346 . S
C267 H272 0.930 . S
C268 N265 1.336 . S
C268 C267 1.346 . S
C268 H275 0.929 . S
C269 O259 1.282 . S
C269 O270 1.216 . S
O270 C269 1.216 . S
H271 C266 0.930 . S
H272 C267 0.930 . S
O273 Cu253 1.959 . S
O273 C260 1.251 . S
H274 C257 0.930 . S
H275 C268 0.929 . S
Dy276 O280 2.398 . S
Dy276 O281 2.491 . S
Dy276 O282 2.403 . S
Dy276 O283 2.664 . S
Dy276 O287 2.326 . S
Dy276 O291 2.310 . S
Dy276 O292 2.351 . S
C277 O288 1.185 . S
C277 O289 1.355 . S
C278 O280 1.185 . S
C278 O281 1.355 . S
Dy279 O283 2.310 . S
Dy279 O286 2.351 . S
Dy279 O288 2.398 . S
Dy279 O289 2.491 . S
Dy279 O290 2.403 . S
Dy279 O291 2.664 . S
Dy279 O293 2.326 . S
O280 Dy276 2.398 . S
O280 C278 1.185 . S
O281 Dy276 2.491 . S
O281 C278 1.355 . S
O282 Dy276 2.403 . S
O282 C284 1.254 . S
O283 Dy276 2.664 . S
O283 Dy279 2.310 . S
O283 C284 1.268 . S
C284 O282 1.254 . S
C284 O283 1.268 . S
C285 O290 1.254 . S
C285 O291 1.268 . S
O286 Dy279 2.351 . S
O286 C294 1.249 . S
O287 Dy276 2.326 . S
O287 C294 1.267 . S
O288 C277 1.185 . S
O288 Dy279 2.398 . S
O289 C277 1.355 . S
O289 Dy279 2.491 . S
O290 Dy279 2.403 . S
O290 C285 1.254 . S
O291 Dy276 2.310 . S
O291 Dy279 2.664 . S
O291 C285 1.268 . S
O292 Dy276 2.351 . S
O292 C295 1.249 . S
O293 Dy279 2.326 . S
O293 C295 1.267 . S
C294 O286 1.249 . S
C294 O287 1.267 . S
C295 O292 1.249 . S
C295 O293 1.267 . S
Dy296 O300 2.398 . S
Dy296 O301 2.491 . S
Dy296 O302 2.403 . S
Dy296 O303 2.664 . S
Dy296 O307 2.326 . S
Dy296 O311 2.310 . S
Dy296 O312 2.351 . S
C297 O308 1.185 . S
C297 O309 1.355 . S
C298 O300 1.185 . S
C298 O301 1.355 . S
Dy299 O303 2.310 . S
Dy299 O306 2.351 . S
Dy299 O308 2.398 . S
Dy299 O309 2.491 . S
Dy299 O310 2.403 . S
Dy299 O311 2.664 . S
Dy299 O313 2.326 . S
O300 Dy296 2.398 . S
O300 C298 1.185 . S
O301 Dy296 2.491 . S
O301 C298 1.355 . S
O302 Dy296 2.403 . S
O302 C304 1.254 . S
O303 Dy296 2.664 . S
O303 Dy299 2.310 . S
O303 C304 1.268 . S
C304 O302 1.254 . S
C304 O303 1.268 . S
C305 O310 1.254 . S
C305 O311 1.268 . S
O306 Dy299 2.351 . S
O306 C314 1.249 . S
O307 Dy296 2.326 . S
O307 C314 1.267 . S
O308 C297 1.185 . S
O308 Dy299 2.398 . S
O309 C297 1.355 . S
O309 Dy299 2.491 . S
O310 Dy299 2.403 . S
O310 C305 1.254 . S
O311 Dy296 2.310 . S
O311 Dy299 2.664 . S
O311 C305 1.268 . S
O312 Dy296 2.351 . S
O312 C315 1.249 . S
O313 Dy299 2.326 . S
O313 C315 1.267 . S
C314 O306 1.249 . S
C314 O307 1.267 . S
C315 O312 1.249 . S
C315 O313 1.267 . S
Dy316 O320 2.398 . S
Dy316 O321 2.491 . S
Dy316 O322 2.403 . S
Dy316 O323 2.664 . S
Dy316 O327 2.326 . S
Dy316 O331 2.310 . S
Dy316 O332 2.351 . S
C317 O328 1.185 . S
C317 O329 1.355 . S
C318 O320 1.185 . S
C318 O321 1.355 . S
Dy319 O323 2.310 . S
Dy319 O326 2.351 . S
Dy319 O328 2.398 . S
Dy319 O329 2.491 . S
Dy319 O330 2.403 . S
Dy319 O331 2.664 . S
Dy319 O333 2.326 . S
O320 Dy316 2.398 . S
O320 C318 1.185 . S
O321 Dy316 2.491 . S
O321 C318 1.355 . S
O322 Dy316 2.403 . S
O322 C324 1.254 . S
O323 Dy316 2.664 . S
O323 Dy319 2.310 . S
O323 C324 1.268 . S
C324 O322 1.254 . S
C324 O323 1.268 . S
C325 O330 1.254 . S
C325 O331 1.268 . S
O326 Dy319 2.351 . S
O326 C334 1.249 . S
O327 Dy316 2.326 . S
O327 C334 1.267 . S
O328 C317 1.185 . S
O328 Dy319 2.398 . S
O329 C317 1.355 . S
O329 Dy319 2.491 . S
O330 Dy319 2.403 . S
O330 C325 1.254 . S
O331 Dy316 2.310 . S
O331 Dy319 2.664 . S
O331 C325 1.268 . S
O332 Dy316 2.351 . S
O332 C335 1.249 . S
O333 Dy319 2.326 . S
O333 C335 1.267 . S
C334 O326 1.249 . S
C334 O327 1.267 . S
C335 O332 1.249 . S
C335 O333 1.267 . S
Dy336 O340 2.398 . S
Dy336 O341 2.491 . S
Dy336 O342 2.403 . S
Dy336 O343 2.664 . S
Dy336 O347 2.326 . S
Dy336 O351 2.310 . S
Dy336 O352 2.351 . S
C337 O348 1.185 . S
C337 O349 1.355 . S
C338 O340 1.185 . S
C338 O341 1.355 . S
Dy339 O343 2.310 . S
Dy339 O346 2.351 . S
Dy339 O348 2.398 . S
Dy339 O349 2.491 . S
Dy339 O350 2.403 . S
Dy339 O351 2.664 . S
Dy339 O353 2.326 . S
O340 Dy336 2.398 . S
O340 C338 1.185 . S
O341 Dy336 2.491 . S
O341 C338 1.355 . S
O342 Dy336 2.403 . S
O342 C344 1.254 . S
O343 Dy336 2.664 . S
O343 Dy339 2.310 . S
O343 C344 1.268 . S
C344 O342 1.254 . S
C344 O343 1.268 . S
C345 O350 1.254 . S
C345 O351 1.268 . S
O346 Dy339 2.351 . S
O346 C354 1.249 . S
O347 Dy336 2.326 . S
O347 C354 1.267 . S
O348 C337 1.185 . S
O348 Dy339 2.398 . S
O349 C337 1.355 . S
O349 Dy339 2.491 . S
O350 Dy339 2.403 . S
O350 C345 1.254 . S
O351 Dy336 2.310 . S
O351 Dy339 2.664 . S
O351 C345 1.268 . S
O352 Dy336 2.351 . S
O352 C355 1.249 . S
O353 Dy339 2.326 . S
O353 C355 1.267 . S
C354 O346 1.249 . S
C354 O347 1.267 . S
C355 O352 1.249 . S
C355 O353 1.267 . S
Dy356 O360 2.398 . S
Dy356 O361 2.491 . S
Dy356 O362 2.403 . S
Dy356 O363 2.664 . S
Dy356 O367 2.326 . S
Dy356 O371 2.310 . S
Dy356 O372 2.351 . S
C357 O368 1.185 . S
C357 O369 1.355 . S
C358 O360 1.185 . S
C358 O361 1.355 . S
Dy359 O363 2.310 . S
Dy359 O366 2.351 . S
Dy359 O368 2.398 . S
Dy359 O369 2.491 . S
Dy359 O370 2.403 . S
Dy359 O371 2.664 . S
Dy359 O373 2.326 . S
O360 Dy356 2.398 . S
O360 C358 1.185 . S
O361 Dy356 2.491 . S
O361 C358 1.355 . S
O362 Dy356 2.403 . S
O362 C364 1.254 . S
O363 Dy356 2.664 . S
O363 Dy359 2.310 . S
O363 C364 1.268 . S
C364 O362 1.254 . S
C364 O363 1.268 . S
C365 O370 1.254 . S
C365 O371 1.268 . S
O366 Dy359 2.351 . S
O366 C374 1.249 . S
O367 Dy356 2.326 . S
O367 C374 1.267 . S
O368 C357 1.185 . S
O368 Dy359 2.398 . S
O369 C357 1.355 . S
O369 Dy359 2.491 . S
O370 Dy359 2.403 . S
O370 C365 1.254 . S
O371 Dy356 2.310 . S
O371 Dy359 2.664 . S
O371 C365 1.268 . S
O372 Dy356 2.351 . S
O372 C375 1.249 . S
O373 Dy359 2.326 . S
O373 C375 1.267 . S
C374 O366 1.249 . S
C374 O367 1.267 . S
C375 O372 1.249 . S
C375 O373 1.267 . S
Dy376 O380 2.398 . S
Dy376 O381 2.491 . S
Dy376 O382 2.403 . S
Dy376 O383 2.664 . S
Dy376 O387 2.326 . S
Dy376 O391 2.310 . S
Dy376 O392 2.351 . S
C377 O388 1.185 . S
C377 O389 1.355 . S
C378 O380 1.185 . S
C378 O381 1.355 . S
Dy379 O383 2.310 . S
Dy379 O386 2.351 . S
Dy379 O388 2.398 . S
Dy379 O389 2.491 . S
Dy379 O390 2.403 . S
Dy379 O391 2.664 . S
Dy379 O393 2.326 . S
O380 Dy376 2.398 . S
O380 C378 1.185 . S
O381 Dy376 2.491 . S
O381 C378 1.355 . S
O382 Dy376 2.403 . S
O382 C384 1.254 . S
O383 Dy376 2.664 . S
O383 Dy379 2.310 . S
O383 C384 1.268 . S
C384 O382 1.254 . S
C384 O383 1.268 . S
C385 O390 1.254 . S
C385 O391 1.268 . S
O386 Dy379 2.351 . S
O386 C394 1.249 . S
O387 Dy376 2.326 . S
O387 C394 1.267 . S
O388 C377 1.185 . S
O388 Dy379 2.398 . S
O389 C377 1.355 . S
O389 Dy379 2.491 . S
O390 Dy379 2.403 . S
O390 C385 1.254 . S
O391 Dy376 2.310 . S
O391 Dy379 2.664 . S
O391 C385 1.268 . S
O392 Dy376 2.351 . S
O392 C395 1.249 . S
O393 Dy379 2.326 . S
O393 C395 1.267 . S
C394 O386 1.249 . S
C394 O387 1.267 . S
C395 O392 1.249 . S
C395 O393 1.267 . S
Dy396 O400 2.398 . S
Dy396 O401 2.491 . S
Dy396 O402 2.403 . S
Dy396 O403 2.664 . S
Dy396 O407 2.326 . S
Dy396 O411 2.310 . S
Dy396 O412 2.351 . S
C397 O408 1.185 . S
C397 O409 1.355 . S
C398 O400 1.185 . S
C398 O401 1.355 . S
Dy399 O403 2.310 . S
Dy399 O406 2.351 . S
Dy399 O408 2.398 . S
Dy399 O409 2.491 . S
Dy399 O410 2.403 . S
Dy399 O411 2.664 . S
Dy399 O413 2.326 . S
O400 Dy396 2.398 . S
O400 C398 1.185 . S
O401 Dy396 2.491 . S
O401 C398 1.355 . S
O402 Dy396 2.403 . S
O402 C404 1.254 . S
O403 Dy396 2.664 . S
O403 Dy399 2.310 . S
O403 C404 1.268 . S
C404 O402 1.254 . S
C404 O403 1.268 . S
C405 O410 1.254 . S
C405 O411 1.268 . S
O406 Dy399 2.351 . S
O406 C414 1.249 . S
O407 Dy396 2.326 . S
O407 C414 1.267 . S
O408 C397 1.185 . S
O408 Dy399 2.398 . S
O409 C397 1.355 . S
O409 Dy399 2.491 . S
O410 Dy399 2.403 . S
O410 C405 1.254 . S
O411 Dy396 2.310 . S
O411 Dy399 2.664 . S
O411 C405 1.268 . S
O412 Dy396 2.351 . S
O412 C415 1.249 . S
O413 Dy399 2.326 . S
O413 C415 1.267 . S
C414 O406 1.249 . S
C414 O407 1.267 . S
C415 O412 1.249 . S
C415 O413 1.267 . S
Dy416 O420 2.398 . S
Dy416 O421 2.491 . S
Dy416 O422 2.403 . S
Dy416 O423 2.664 . S
Dy416 O427 2.326 . S
Dy416 O431 2.310 . S
Dy416 O432 2.351 . S
C417 O428 1.185 . S
C417 O429 1.355 . S
C418 O420 1.185 . S
C418 O421 1.355 . S
Dy419 O423 2.310 . S
Dy419 O426 2.351 . S
Dy419 O428 2.398 . S
Dy419 O429 2.491 . S
Dy419 O430 2.403 . S
Dy419 O431 2.664 . S
Dy419 O433 2.326 . S
O420 Dy416 2.398 . S
O420 C418 1.185 . S
O421 Dy416 2.491 . S
O421 C418 1.355 . S
O422 Dy416 2.403 . S
O422 C424 1.254 . S
O423 Dy416 2.664 . S
O423 Dy419 2.310 . S
O423 C424 1.268 . S
C424 O422 1.254 . S
C424 O423 1.268 . S
C425 O430 1.254 . S
C425 O431 1.268 . S
O426 Dy419 2.351 . S
O426 C434 1.249 . S
O427 Dy416 2.326 . S
O427 C434 1.267 . S
O428 C417 1.185 . S
O428 Dy419 2.398 . S
O429 C417 1.355 . S
O429 Dy419 2.491 . S
O430 Dy419 2.403 . S
O430 C425 1.254 . S
O431 Dy416 2.310 . S
O431 Dy419 2.664 . S
O431 C425 1.268 . S
O432 Dy416 2.351 . S
O432 C435 1.249 . S
O433 Dy419 2.326 . S
O433 C435 1.267 . S
C434 O426 1.249 . S
C434 O427 1.267 . S
C435 O432 1.249 . S
C435 O433 1.267 . S
C436 C437 1.387 . S
C436 H440 0.950 . S
C436 C445 1.390 . S
C437 C436 1.387 . S
C437 C439 1.387 . S
H438 C445 0.950 . S
C439 C437 1.387 . S
C439 C441 1.390 . S
C439 H443 0.950 . S
H440 C436 0.950 . S
C441 C439 1.390 . S
C441 C442 1.387 . S
C441 H444 0.950 . S
C442 C441 1.387 . S
C442 C445 1.387 . S
H443 C439 0.950 . S
H444 C441 0.950 . S
C445 C436 1.390 . S
C445 H438 0.950 . S
C445 C442 1.387 . S
C446 C447 1.387 . S
C446 H450 0.950 . S
C446 C455 1.390 . S
C447 C446 1.387 . S
C447 C449 1.387 . S
H448 C455 0.950 . S
C449 C447 1.387 . S
C449 C451 1.390 . S
C449 H453 0.950 . S
H450 C446 0.950 . S
C451 C449 1.390 . S
C451 C452 1.387 . S
C451 H454 0.950 . S
C452 C451 1.387 . S
C452 C455 1.387 . S
H453 C449 0.950 . S
H454 C451 0.950 . S
C455 C446 1.390 . S
C455 H448 0.950 . S
C455 C452 1.387 . S
C456 C457 1.387 . S
C456 H460 0.950 . S
C456 C465 1.390 . S
C457 C456 1.387 . S
C457 C459 1.387 . S
H458 C465 0.950 . S
C459 C457 1.387 . S
C459 C461 1.390 . S
C459 H463 0.950 . S
H460 C456 0.950 . S
C461 C459 1.390 . S
C461 C462 1.387 . S
C461 H464 0.950 . S
C462 C461 1.387 . S
C462 C465 1.387 . S
H463 C459 0.950 . S
H464 C461 0.950 . S
C465 C456 1.390 . S
C465 H458 0.950 . S
C465 C462 1.387 . S
C466 C467 1.387 . S
C466 H470 0.950 . S
C466 C475 1.390 . S
C467 C466 1.387 . S
C467 C469 1.387 . S
H468 C475 0.950 . S
C469 C467 1.387 . S
C469 C471 1.390 . S
C469 H473 0.950 . S
H470 C466 0.950 . S
C471 C469 1.390 . S
C471 C472 1.387 . S
C471 H474 0.950 . S
C472 C471 1.387 . S
C472 C475 1.387 . S
H473 C469 0.950 . S
H474 C471 0.950 . S
C475 C466 1.390 . S
C475 H468 0.950 . S
C475 C472 1.387 . S
C476 C477 1.387 . S
C476 H480 0.950 . S
C476 C485 1.390 . S
C477 C476 1.387 . S
C477 C479 1.387 . S
H478 C485 0.950 . S
C479 C477 1.387 . S
C479 C481 1.390 . S
C479 H483 0.950 . S
H480 C476 0.950 . S
C481 C479 1.390 . S
C481 C482 1.387 . S
C481 H484 0.950 . S
C482 C481 1.387 . S
C482 C485 1.387 . S
H483 C479 0.950 . S
H484 C481 0.950 . S
C485 C476 1.390 . S
C485 H478 0.950 . S
C485 C482 1.387 . S
C486 C487 1.387 . S
C486 H490 0.950 . S
C486 C495 1.390 . S
C487 C486 1.387 . S
C487 C489 1.387 . S
H488 C495 0.950 . S
C489 C487 1.387 . S
C489 C491 1.390 . S
C489 H493 0.950 . S
H490 C486 0.950 . S
C491 C489 1.390 . S
C491 C492 1.387 . S
C491 H494 0.950 . S
C492 C491 1.387 . S
C492 C495 1.387 . S
H493 C489 0.950 . S
H494 C491 0.950 . S
C495 C486 1.390 . S
C495 H488 0.950 . S
C495 C492 1.387 . S
C496 C497 1.387 . S
C496 H500 0.950 . S
C496 C505 1.390 . S
C497 C496 1.387 . S
C497 C499 1.387 . S
H498 C505 0.950 . S
C499 C497 1.387 . S
C499 C501 1.390 . S
C499 H503 0.950 . S
H500 C496 0.950 . S
C501 C499 1.390 . S
C501 C502 1.387 . S
C501 H504 0.950 . S
C502 C501 1.387 . S
C502 C505 1.387 . S
H503 C499 0.950 . S
H504 C501 0.950 . S
C505 C496 1.390 . S
C505 H498 0.950 . S
C505 C502 1.387 . S
C506 C507 1.387 . S
C506 H510 0.950 . S
C506 C515 1.390 . S
C507 C506 1.387 . S
C507 C509 1.387 . S
H508 C515 0.950 . S
C509 C507 1.387 . S
C509 C511 1.390 . S
C509 H513 0.950 . S
H510 C506 0.950 . S
C511 C509 1.390 . S
C511 C512 1.387 . S
C511 H514 0.950 . S
C512 C511 1.387 . S
C512 C515 1.387 . S
H513 C509 0.950 . S
H514 C511 0.950 . S
C515 C506 1.390 . S
C515 H508 0.950 . S
C515 C512 1.387 . S
C516 C517 1.387 . S
C516 H520 0.950 . S
C516 C525 1.390 . S
C517 C516 1.387 . S
C517 C519 1.387 . S
H518 C525 0.950 . S
C519 C517 1.387 . S
C519 C521 1.390 . S
C519 H523 0.950 . S
H520 C516 0.950 . S
C521 C519 1.390 . S
C521 C522 1.387 . S
C521 H524 0.950 . S
C522 C521 1.387 . S
C522 C525 1.387 . S
H523 C519 0.950 . S
H524 C521 0.950 . S
C525 C516 1.390 . S
C525 H518 0.950 . S
C525 C522 1.387 . S
C526 C527 1.387 . S
C526 H530 0.950 . S
C526 C535 1.390 . S
C527 C526 1.387 . S
C527 C529 1.387 . S
H528 C535 0.950 . S
C529 C527 1.387 . S
C529 C531 1.390 . S
C529 H533 0.950 . S
H530 C526 0.950 . S
C531 C529 1.390 . S
C531 C532 1.387 . S
C531 H534 0.950 . S
C532 C531 1.387 . S
C532 C535 1.387 . S
H533 C529 0.950 . S
H534 C531 0.950 . S
C535 C526 1.390 . S
C535 H528 0.950 . S
C535 C532 1.387 . S
C536 C537 1.387 . S
C536 H540 0.950 . S
C536 C545 1.390 . S
C537 C536 1.387 . S
C537 C539 1.387 . S
H538 C545 0.950 . S
C539 C537 1.387 . S
C539 C541 1.390 . S
C539 H543 0.950 . S
H540 C536 0.950 . S
C541 C539 1.390 . S
C541 C542 1.387 . S
C541 H544 0.950 . S
C542 C541 1.387 . S
C542 C545 1.387 . S
H543 C539 0.950 . S
H544 C541 0.950 . S
C545 C536 1.390 . S
C545 H538 0.950 . S
C545 C542 1.387 . S
C546 C547 1.387 . S
C546 H550 0.950 . S
C546 C555 1.390 . S
C547 C546 1.387 . S
C547 C549 1.387 . S
H548 C555 0.950 . S
C549 C547 1.387 . S
C549 C551 1.390 . S
C549 H553 0.950 . S
H550 C546 0.950 . S
C551 C549 1.390 . S
C551 C552 1.387 . S
C551 H554 0.950 . S
C552 C551 1.387 . S
C552 C555 1.387 . S
H553 C549 0.950 . S
H554 C551 0.950 . S
C555 C546 1.390 . S
C555 H548 0.950 . S
C555 C552 1.387 . S
C556 C557 1.387 . S
C556 H560 0.950 . S
C556 C565 1.390 . S
C557 C556 1.387 . S
C557 C559 1.387 . S
H558 C565 0.950 . S
C559 C557 1.387 . S
C559 C561 1.390 . S
C559 H563 0.950 . S
H560 C556 0.950 . S
C561 C559 1.390 . S
C561 C562 1.387 . S
C561 H564 0.950 . S
C562 C561 1.387 . S
C562 C565 1.387 . S
H563 C559 0.950 . S
H564 C561 0.950 . S
C565 C556 1.390 . S
C565 H558 0.950 . S
C565 C562 1.387 . S
C566 C567 1.387 . S
C566 H570 0.950 . S
C566 C575 1.390 . S
C567 C566 1.387 . S
C567 C569 1.387 . S
H568 C575 0.950 . S
C569 C567 1.387 . S
C569 C571 1.390 . S
C569 H573 0.950 . S
H570 C566 0.950 . S
C571 C569 1.390 . S
C571 C572 1.387 . S
C571 H574 0.950 . S
C572 C571 1.387 . S
C572 C575 1.387 . S
H573 C569 0.950 . S
H574 C571 0.950 . S
C575 C566 1.390 . S
C575 H568 0.950 . S
C575 C572 1.387 . S
C576 C577 1.387 . S
C576 H580 0.950 . S
C576 C585 1.390 . S
C577 C576 1.387 . S
C577 C579 1.387 . S
H578 C585 0.950 . S
C579 C577 1.387 . S
C579 C581 1.390 . S
C579 H583 0.950 . S
H580 C576 0.950 . S
C581 C579 1.390 . S
C581 C582 1.387 . S
C581 H584 0.950 . S
C582 C581 1.387 . S
C582 C585 1.387 . S
H583 C579 0.950 . S
H584 C581 0.950 . S
C585 C576 1.390 . S
C585 H578 0.950 . S
C585 C582 1.387 . S
C586 C587 1.387 . S
C586 H590 0.950 . S
C586 C595 1.390 . S
C587 C586 1.387 . S
C587 C589 1.387 . S
H588 C595 0.950 . S
C589 C587 1.387 . S
C589 C591 1.390 . S
C589 H593 0.950 . S
H590 C586 0.950 . S
C591 C589 1.390 . S
C591 C592 1.387 . S
C591 H594 0.950 . S
C592 C591 1.387 . S
C592 C595 1.387 . S
H593 C589 0.950 . S
H594 C591 0.950 . S
C595 C586 1.390 . S
C595 H588 0.950 . S
C595 C592 1.387 . S
C596 C597 1.387 . S
C596 H600 0.950 . S
C596 C605 1.390 . S
C597 C596 1.387 . S
C597 C599 1.387 . S
H598 C605 0.950 . S
C599 C597 1.387 . S
C599 C601 1.390 . S
C599 H603 0.950 . S
H600 C596 0.950 . S
C601 C599 1.390 . S
C601 C602 1.387 . S
C601 H604 0.950 . S
C602 C601 1.387 . S
C602 C605 1.387 . S
H603 C599 0.950 . S
H604 C601 0.950 . S
C605 C596 1.390 . S
C605 H598 0.950 . S
C605 C602 1.387 . S
C606 C607 1.387 . S
C606 H610 0.950 . S
C606 C615 1.390 . S
C607 C606 1.387 . S
C607 C609 1.387 . S
H608 C615 0.950 . S
C609 C607 1.387 . S
C609 C611 1.390 . S
C609 H613 0.950 . S
H610 C606 0.950 . S
C611 C609 1.390 . S
C611 C612 1.387 . S
C611 H614 0.950 . S
C612 C611 1.387 . S
C612 C615 1.387 . S
H613 C609 0.950 . S
H614 C611 0.950 . S
C615 C606 1.390 . S
C615 H608 0.950 . S
C615 C612 1.387 . S
C616 C617 1.387 . S
C616 H620 0.950 . S
C616 C625 1.390 . S
C617 C616 1.387 . S
C617 C619 1.387 . S
H618 C625 0.950 . S
C619 C617 1.387 . S
C619 C621 1.390 . S
C619 H623 0.950 . S
H620 C616 0.950 . S
C621 C619 1.390 . S
C621 C622 1.387 . S
C621 H624 0.950 . S
C622 C621 1.387 . S
C622 C625 1.387 . S
H623 C619 0.950 . S
H624 C621 0.950 . S
C625 C616 1.390 . S
C625 H618 0.950 . S
C625 C622 1.387 . S
C626 C627 1.387 . S
C626 H630 0.950 1_556 S
C626 C635 1.390 . S
C627 C626 1.387 . S
C627 C629 1.387 . S
H628 C635 0.950 . S
C629 C627 1.387 . S
C629 C631 1.390 . S
C629 H633 0.950 . S
H630 C626 0.950 1_554 S
C631 C629 1.390 . S
C631 C632 1.387 . S
C631 H634 0.950 . S
C632 C631 1.387 . S
C632 C635 1.387 . S
H633 C629 0.950 . S
H634 C631 0.950 . S
C635 C626 1.390 . S
C635 H628 0.950 . S
C635 C632 1.387 . S
C636 C637 1.387 . S
C636 H640 0.950 . S
C636 C645 1.390 . S
C637 C636 1.387 . S
C637 C639 1.387 . S
H638 C645 0.950 . S
C639 C637 1.387 . S
C639 C641 1.390 . S
C639 H643 0.950 . S
H640 C636 0.950 . S
C641 C639 1.390 . S
C641 C642 1.387 . S
C641 H644 0.950 . S
C642 C641 1.387 . S
C642 C645 1.387 . S
H643 C639 0.950 . S
H644 C641 0.950 . S
C645 C636 1.390 . S
C645 H638 0.950 . S
C645 C642 1.387 . S
C646 C647 1.387 . S
C646 H650 0.950 . S
C646 C655 1.390 . S
C647 C646 1.387 . S
C647 C649 1.387 . S
H648 C655 0.950 . S
C649 C647 1.387 . S
C649 C651 1.390 . S
C649 H653 0.950 . S
H650 C646 0.950 . S
C651 C649 1.390 . S
C651 C652 1.387 . S
C651 H654 0.950 . S
C652 C651 1.387 . S
C652 C655 1.387 . S
H653 C649 0.950 . S
H654 C651 0.950 . S
C655 C646 1.390 . S
C655 H648 0.950 . S
C655 C652 1.387 . S
C656 C657 1.387 . S
C656 H660 0.950 . S
C656 C665 1.390 . S
C657 C656 1.387 . S
C657 C659 1.387 . S
H658 C665 0.950 . S
C659 C657 1.387 . S
C659 C661 1.390 . S
C659 H663 0.950 . S
H660 C656 0.950 . S
C661 C659 1.390 . S
C661 C662 1.387 . S
C661 H664 0.950 . S
C662 C661 1.387 . S
C662 C665 1.387 . S
H663 C659 0.950 . S
H664 C661 0.950 . S
C665 C656 1.390 . S
C665 H658 0.950 . S
C665 C662 1.387 . S
C666 C667 1.387 . S
C666 H670 0.950 . S
C666 C675 1.390 . S
C667 C666 1.387 . S
C667 C669 1.387 . S
H668 C675 0.950 . S
C669 C667 1.387 . S
C669 C671 1.390 . S
C669 H673 0.950 . S
H670 C666 0.950 . S
C671 C669 1.390 . S
C671 C672 1.387 . S
C671 H674 0.950 . S
C672 C671 1.387 . S
C672 C675 1.387 . S
H673 C669 0.950 . S
H674 C671 0.950 . S
C675 C666 1.390 . S
C675 H668 0.950 . S
C675 C672 1.387 . S
C676 C677 1.387 . S
C676 H680 0.950 . S
C676 C685 1.390 . S
C677 C676 1.387 . S
C677 C679 1.387 . S
H678 C685 0.950 . S
C679 C677 1.387 . S
C679 C681 1.390 . S
C679 H683 0.950 . S
H680 C676 0.950 . S
C681 C679 1.390 . S
C681 C682 1.387 . S
C681 H684 0.950 . S
C682 C681 1.387 . S
C682 C685 1.387 . S
H683 C679 0.950 . S
H684 C681 0.950 . S
C685 C676 1.390 . S
C685 H678 0.950 . S
C685 C682 1.387 . S
C686 C687 1.387 . S
C686 H690 0.950 . S
C686 C695 1.390 . S
C687 C686 1.387 . S
C687 C689 1.387 . S
H688 C695 0.950 . S
C689 C687 1.387 . S
C689 C691 1.390 . S
C689 H693 0.950 . S
H690 C686 0.950 . S
C691 C689 1.390 . S
C691 C692 1.387 . S
C691 H694 0.950 . S
C692 C691 1.387 . S
C692 C695 1.387 . S
H693 C689 0.950 . S
H694 C691 0.950 . S
C695 C686 1.390 . S
C695 H688 0.950 . S
C695 C692 1.387 . S
C696 C697 1.387 . S
C696 H700 0.950 . S
C696 C705 1.390 . S
C697 C696 1.387 . S
C697 C699 1.387 . S
H698 C705 0.950 . S
C699 C697 1.387 . S
C699 C701 1.390 . S
C699 H703 0.950 . S
H700 C696 0.950 . S
C701 C699 1.390 . S
C701 C702 1.387 . S
C701 H704 0.950 . S
C702 C701 1.387 . S
C702 C705 1.387 . S
H703 C699 0.950 . S
H704 C701 0.950 . S
C705 C696 1.390 . S
C705 H698 0.950 . S
C705 C702 1.387 . S
C706 C707 1.387 . S
C706 H710 0.950 . S
C706 C715 1.390 . S
C707 C706 1.387 . S
C707 C709 1.387 . S
H708 C715 0.950 . S
C709 C707 1.387 . S
C709 C711 1.390 . S
C709 H713 0.950 . S
H710 C706 0.950 . S
C711 C709 1.390 . S
C711 C712 1.387 . S
C711 H714 0.950 . S
C712 C711 1.387 . S
C712 C715 1.387 . S
H713 C709 0.950 . S
H714 C711 0.950 . S
C715 C706 1.390 . S
C715 H708 0.950 . S
C715 C712 1.387 . S
C716 C717 1.387 . S
C716 H720 0.950 . S
C716 C725 1.390 . S
C717 C716 1.387 . S
C717 C719 1.387 . S
H718 C725 0.950 . S
C719 C717 1.387 . S
C719 C721 1.390 . S
C719 H723 0.950 . S
H720 C716 0.950 . S
C721 C719 1.390 . S
C721 C722 1.387 . S
C721 H724 0.950 . S
C722 C721 1.387 . S
C722 C725 1.387 . S
H723 C719 0.950 . S
H724 C721 0.950 . S
C725 C716 1.390 . S
C725 H718 0.950 . S
C725 C722 1.387 . S
C726 C727 1.387 . S
C726 H730 0.950 . S
C726 C735 1.390 . S
C727 C726 1.387 . S
C727 C729 1.387 . S
H728 C735 0.950 . S
C729 C727 1.387 . S
C729 C731 1.390 . S
C729 H733 0.950 . S
H730 C726 0.950 . S
C731 C729 1.390 . S
C731 C732 1.387 . S
C731 H734 0.950 . S
C732 C731 1.387 . S
C732 C735 1.387 . S
H733 C729 0.950 . S
H734 C731 0.950 . S
C735 C726 1.390 . S
C735 H728 0.950 . S
C735 C732 1.387 . S
C736 C737 1.387 . S
C736 H740 0.950 . S
C736 C745 1.390 . S
C737 C736 1.387 . S
C737 C739 1.387 . S
H738 C745 0.950 . S
C739 C737 1.387 . S
C739 C741 1.390 . S
C739 H743 0.950 . S
H740 C736 0.950 . S
C741 C739 1.390 . S
C741 C742 1.387 . S
C741 H744 0.950 . S
C742 C741 1.387 . S
C742 C745 1.387 . S
H743 C739 0.950 . S
H744 C741 0.950 . S
C745 C736 1.390 . S
C745 H738 0.950 . S
C745 C742 1.387 . S
C746 C747 1.387 . S
C746 H750 0.950 . S
C746 C755 1.390 . S
C747 C746 1.387 . S
C747 C749 1.387 . S
H748 C755 0.950 . S
C749 C747 1.387 . S
C749 C751 1.390 . S
C749 H753 0.950 . S
H750 C746 0.950 . S
C751 C749 1.390 . S
C751 C752 1.387 . S
C751 H754 0.950 . S
C752 C751 1.387 . S
C752 C755 1.387 . S
H753 C749 0.950 . S
H754 C751 0.950 . S
C755 C746 1.390 . S
C755 H748 0.950 . S
C755 C752 1.387 . S
C756 C757 1.387 . S
C756 H760 0.950 . S
C756 C765 1.390 . S
C757 C756 1.387 . S
C757 C759 1.387 . S
H758 C765 0.950 . S
C759 C757 1.387 . S
C759 C761 1.390 . S
C759 H763 0.950 . S
H760 C756 0.950 . S
C761 C759 1.390 . S
C761 C762 1.387 . S
C761 H764 0.950 . S
C762 C761 1.387 . S
C762 C765 1.387 . S
H763 C759 0.950 . S
H764 C761 0.950 . S
C765 C756 1.390 . S
C765 H758 0.950 . S
C765 C762 1.387 . S
C766 C767 1.387 . S
C766 H770 0.950 . S
C766 C775 1.390 . S
C767 C766 1.387 . S
C767 C769 1.387 . S
H768 C775 0.950 . S
C769 C767 1.387 . S
C769 C771 1.390 . S
C769 H773 0.950 . S
H770 C766 0.950 . S
C771 C769 1.390 . S
C771 C772 1.387 . S
C771 H774 0.950 . S
C772 C771 1.387 . S
C772 C775 1.387 . S
H773 C769 0.950 . S
H774 C771 0.950 . S
C775 C766 1.390 . S
C775 H768 0.950 . S
C775 C772 1.387 . S
C776 C777 1.387 . S
C776 H780 0.950 . S
C776 C785 1.390 . S
C777 C776 1.387 . S
C777 C779 1.387 . S
H778 C785 0.950 . S
C779 C777 1.387 . S
C779 C781 1.390 . S
C779 H783 0.950 . S
H780 C776 0.950 . S
C781 C779 1.390 . S
C781 C782 1.387 . S
C781 H784 0.950 . S
C782 C781 1.387 . S
C782 C785 1.387 . S
H783 C779 0.950 . S
H784 C781 0.950 . S
C785 C776 1.390 . S
C785 H778 0.950 . S
C785 C782 1.387 . S
C786 C787 1.387 . S
C786 H790 0.950 . S
C786 C795 1.390 . S
C787 C786 1.387 . S
C787 C789 1.387 . S
H788 C795 0.950 . S
C789 C787 1.387 . S
C789 C791 1.390 . S
C789 H793 0.950 . S
H790 C786 0.950 . S
C791 C789 1.390 . S
C791 C792 1.387 . S
C791 H794 0.950 . S
C792 C791 1.387 . S
C792 C795 1.387 . S
H793 C789 0.950 . S
H794 C791 0.950 . S
C795 C786 1.390 . S
C795 H788 0.950 . S
C795 C792 1.387 . S
C796 C797 1.387 . S
C796 H800 0.950 . S
C796 C805 1.390 . S
C797 C796 1.387 . S
C797 C799 1.387 . S
H798 C805 0.950 . S
C799 C797 1.387 . S
C799 C801 1.390 . S
C799 H803 0.950 . S
H800 C796 0.950 . S
C801 C799 1.390 . S
C801 C802 1.387 . S
C801 H804 0.950 . S
C802 C801 1.387 . S
C802 C805 1.387 . S
H803 C799 0.950 . S
H804 C801 0.950 . S
C805 C796 1.390 . S
C805 H798 0.950 . S
C805 C802 1.387 . S
C806 C807 1.387 . S
C806 H810 0.950 . S
C806 C815 1.390 . S
C807 C806 1.387 . S
C807 C809 1.387 . S
H808 C815 0.950 . S
C809 C807 1.387 . S
C809 C811 1.390 . S
C809 H813 0.950 . S
H810 C806 0.950 . S
C811 C809 1.390 . S
C811 C812 1.387 . S
C811 H814 0.950 . S
C812 C811 1.387 . S
C812 C815 1.387 . S
H813 C809 0.950 . S
H814 C811 0.950 . S
C815 C806 1.390 . S
C815 H808 0.950 . S
C815 C812 1.387 . S
C816 C817 1.387 . S
C816 H820 0.950 . S
C816 C825 1.390 . S
C817 C816 1.387 . S
C817 C819 1.387 . S
H818 C825 0.950 . S
C819 C817 1.387 . S
C819 C821 1.390 . S
C819 H823 0.950 . S
H820 C816 0.950 . S
C821 C819 1.390 . S
C821 C822 1.387 . S
C821 H824 0.950 . S
C822 C821 1.387 . S
C822 C825 1.387 . S
H823 C819 0.950 . S
H824 C821 0.950 . S
C825 C816 1.390 . S
C825 H818 0.950 . S
C825 C822 1.387 . S
C826 C827 1.387 . S
C826 H830 0.950 . S
C826 C835 1.390 . S
C827 C826 1.387 . S
C827 C829 1.387 . S
H828 C835 0.950 . S
C829 C827 1.387 . S
C829 C831 1.390 . S
C829 H833 0.950 . S
H830 C826 0.950 . S
C831 C829 1.390 . S
C831 C832 1.387 . S
C831 H834 0.950 . S
C832 C831 1.387 . S
C832 C835 1.387 . S
H833 C829 0.950 . S
H834 C831 0.950 . S
C835 C826 1.390 . S
C835 H828 0.950 . S
C835 C832 1.387 . S
C836 C837 1.387 . S
C836 H840 0.950 . S
C836 C845 1.390 . S
C837 C836 1.387 . S
C837 C839 1.387 . S
H838 C845 0.950 . S
C839 C837 1.387 . S
C839 C841 1.390 . S
C839 H843 0.950 . S
H840 C836 0.950 . S
C841 C839 1.390 . S
C841 C842 1.387 . S
C841 H844 0.950 . S
C842 C841 1.387 . S
C842 C845 1.387 . S
H843 C839 0.950 . S
H844 C841 0.950 . S
C845 C836 1.390 . S
C845 H838 0.950 . S
C845 C842 1.387 . S
C846 C847 1.387 . S
C846 H850 0.950 . S
C846 C855 1.390 . S
C847 C846 1.387 . S
C847 C849 1.387 . S
H848 C855 0.950 . S
C849 C847 1.387 . S
C849 C851 1.390 . S
C849 H853 0.950 . S
H850 C846 0.950 . S
C851 C849 1.390 . S
C851 C852 1.387 . S
C851 H854 0.950 . S
C852 C851 1.387 . S
C852 C855 1.387 . S
H853 C849 0.950 . S
H854 C851 0.950 . S
C855 C846 1.390 . S
C855 H848 0.950 . S
C855 C852 1.387 . S
C856 C857 1.387 . S
C856 H860 0.950 . S
C856 C865 1.390 . S
C857 C856 1.387 . S
C857 C859 1.387 . S
H858 C865 0.950 . S
C859 C857 1.387 . S
C859 C861 1.390 . S
C859 H863 0.950 . S
H860 C856 0.950 . S
C861 C859 1.390 . S
C861 C862 1.387 . S
C861 H864 0.950 . S
C862 C861 1.387 . S
C862 C865 1.387 . S
H863 C859 0.950 . S
H864 C861 0.950 . S
C865 C856 1.390 . S
C865 H858 0.950 . S
C865 C862 1.387 . S
C866 C867 1.387 . S
C866 H870 0.950 . S
C866 C875 1.390 . S
C867 C866 1.387 . S
C867 C869 1.387 . S
H868 C875 0.950 . S
C869 C867 1.387 . S
C869 C871 1.390 . S
C869 H873 0.950 . S
H870 C866 0.950 . S
C871 C869 1.390 . S
C871 C872 1.387 . S
C871 H874 0.950 . S
C872 C871 1.387 . S
C872 C875 1.387 . S
H873 C869 0.950 . S
H874 C871 0.950 . S
C875 C866 1.390 . S
C875 H868 0.950 . S
C875 C872 1.387 . S
C876 C877 1.387 . S
C876 H880 0.950 . S
C876 C885 1.390 . S
C877 C876 1.387 . S
C877 C879 1.387 . S
H878 C885 0.950 . S
C879 C877 1.387 . S
C879 C881 1.390 . S
C879 H883 0.950 . S
H880 C876 0.950 . S
C881 C879 1.390 . S
C881 C882 1.387 . S
C881 H884 0.950 . S
C882 C881 1.387 . S
C882 C885 1.387 . S
H883 C879 0.950 . S
H884 C881 0.950 . S
C885 C876 1.390 . S
C885 H878 0.950 . S
C885 C882 1.387 . S
C886 C887 1.387 . S
C886 H890 0.950 . S
C886 C895 1.390 . S
C887 C886 1.387 . S
C887 C889 1.387 . S
H888 C895 0.950 . S
C889 C887 1.387 . S
C889 C891 1.390 . S
C889 H893 0.950 . S
H890 C886 0.950 . S
C891 C889 1.390 . S
C891 C892 1.387 . S
C891 H894 0.950 . S
C892 C891 1.387 . S
C892 C895 1.387 . S
H893 C889 0.950 . S
H894 C891 0.950 . S
C895 C886 1.390 . S
C895 H888 0.950 . S
C895 C892 1.387 . S
C896 C897 1.387 . S
C896 H900 0.950 . S
C896 C905 1.390 . S
C897 C896 1.387 . S
C897 C899 1.387 . S
H898 C905 0.950 . S
C899 C897 1.387 . S
C899 C901 1.390 . S
C899 H903 0.950 . S
H900 C896 0.950 . S
C901 C899 1.390 . S
C901 C902 1.387 . S
C901 H904 0.950 . S
C902 C901 1.387 . S
C902 C905 1.387 . S
H903 C899 0.950 . S
H904 C901 0.950 . S
C905 C896 1.390 . S
C905 H898 0.950 . S
C905 C902 1.387 . S
C906 C907 1.387 . S
C906 H910 0.950 . S
C906 C915 1.390 . S
C907 C906 1.387 . S
C907 C909 1.387 . S
H908 C915 0.950 . S
C909 C907 1.387 . S
C909 C911 1.390 . S
C909 H913 0.950 . S
H910 C906 0.950 . S
C911 C909 1.390 . S
C911 C912 1.387 . S
C911 H914 0.950 . S
C912 C911 1.387 . S
C912 C915 1.387 . S
H913 C909 0.950 . S
H914 C911 0.950 . S
C915 C906 1.390 . S
C915 H908 0.950 . S
C915 C912 1.387 . S
C442 C278 1.627 . S
C437 N2 1.656 . S
C452 C304 2.206 . S
C447 C7 2.232 . S
C462 C317 1.699 . S
C457 N12 1.647 . S
C467 C16 1.686 . S
C472 C345 1.714 . S
C482 C365 2.323 . S
C477 C30 2.315 . S
C492 C378 1.512 . S
C487 N35 1.513 . S
C497 C39 1.875 . S
C502 C404 1.826 . S
C512 C417 1.461 . S
C507 N25 1.397 . S
C522 C294 1.308 . S
C517 N58 1.229 . S
C527 N81 1.520 . S
C532 C315 1.531 . S
C542 C324 1.353 . S
C537 N104 1.306 . S
C547 N127 1.362 . S
C552 C338 1.309 . S
C562 C358 1.099 . S
C557 N48 1.210 . S
C572 C394 1.578 . S
C567 N71 1.565 . S
C577 N94 1.265 . S
C582 C415 1.195 . S
C592 C424 1.657 . S
C587 N117 1.675 . S
C597 C85 2.123 . S
C602 C285 2.073 . S
C607 C122 1.907 . S
C612 C374 1.881 . S
C617 C53 1.879 . S
C622 C385 1.813 . S
C632 C397 1.515 . S
C627 C76 1.596 . S
C642 C435 1.760 . S
C637 C99 1.754 . S
C652 C335 1.920 . S
C647 C131 1.887 . S
C662 C354 1.446 . S
C657 C62 1.454 . S
C667 C108 1.364 . S
C672 C297 1.327 . S
C682 C418 1.696 . S
C677 N140 1.754 . S
C687 C145 2.225 . S
C692 C364 2.197 . S
C702 C377 1.615 . S
C697 N150 1.546 . S
C707 C154 1.683 . S
C712 C405 1.708 . S
C722 C305 2.314 . S
C717 C168 2.314 . S
C727 N173 1.405 . S
C732 C318 1.422 . S
C742 C344 1.821 . S
C737 C177 1.877 . S
C752 C277 1.529 . S
C747 N163 1.466 . S
C762 C434 1.741 . S
C757 C200 1.757 . S
C772 C375 1.809 . S
C767 N219 1.791 . S
C777 N242 1.534 . S
C782 C384 1.581 . S
C792 C398 1.538 . S
C787 C269 1.679 . S
C802 C298 1.374 . S
C797 C191 1.473 . S
C807 N209 1.770 . S
C812 C334 1.797 . S
C817 N232 1.554 . S
C822 C355 1.475 . S
C827 C260 2.151 . S
C832 C284 2.126 . S
C837 C223 1.842 . S
C842 C425 1.801 . S
C847 N255 1.442 . S
C852 C314 1.475 . S
C857 N186 1.363 . S
C862 C325 1.356 . S
C872 C337 1.209 . S
C867 C214 1.278 . S
C882 C295 1.473 . S
C877 C237 1.468 . S
C892 C395 1.501 . S
C887 N265 1.418 . S
C902 C414 1.103 . S
C897 N196 1.110 . S
C912 C357 1.017 . S
C907 C246 1.043 . S
