# Generated by pormake.
# Topology gar, (4,6)-cn, num edge types: 1
# Building blocks:
#     Node 0, Type 0, BuildingBlock: QUQFOY_clean_sbu_3, # of connection points: 4
#     Node 1, Type 0, BuildingBlock: QUQFOY_clean_sbu_3, # of connection points: 4
#     Node 2, Type 0, BuildingBlock: QUQFOY_clean_sbu_3, # of connection points: 4
#     Node 3, Type 0, BuildingBlock: QUQFOY_clean_sbu_3, # of connection points: 4
#     Node 4, Type 0, BuildingBlock: QUQFOY_clean_sbu_3, # of connection points: 4
#     Node 5, Type 0, BuildingBlock: QUQFOY_clean_sbu_3, # of connection points: 4
#     Node 6, Type 0, BuildingBlock: QUQFOY_clean_sbu_3, # of connection points: 4
#     Node 7, Type 0, BuildingBlock: QUQFOY_clean_sbu_3, # of connection points: 4
#     Node 8, Type 0, BuildingBlock: QUQFOY_clean_sbu_3, # of connection points: 4
#     Node 9, Type 0, BuildingBlock: QUQFOY_clean_sbu_3, # of connection points: 4
#     Node 10, Type 0, BuildingBlock: QUQFOY_clean_sbu_3, # of connection points: 4
#     Node 11, Type 0, BuildingBlock: QUQFOY_clean_sbu_3, # of connection points: 4
#     Node 12, Type 0, BuildingBlock: QUQFOY_clean_sbu_3, # of connection points: 4
#     Node 13, Type 0, BuildingBlock: QUQFOY_clean_sbu_3, # of connection points: 4
#     Node 14, Type 0, BuildingBlock: QUQFOY_clean_sbu_3, # of connection points: 4
#     Node 15, Type 0, BuildingBlock: QUQFOY_clean_sbu_3, # of connection points: 4
#     Node 16, Type 0, BuildingBlock: QUQFOY_clean_sbu_3, # of connection points: 4
#     Node 17, Type 0, BuildingBlock: QUQFOY_clean_sbu_3, # of connection points: 4
#     Node 18, Type 0, BuildingBlock: QUQFOY_clean_sbu_3, # of connection points: 4
#     Node 19, Type 0, BuildingBlock: QUQFOY_clean_sbu_3, # of connection points: 4
#     Node 20, Type 0, BuildingBlock: QUQFOY_clean_sbu_3, # of connection points: 4
#     Node 21, Type 0, BuildingBlock: QUQFOY_clean_sbu_3, # of connection points: 4
#     Node 22, Type 0, BuildingBlock: QUQFOY_clean_sbu_3, # of connection points: 4
#     Node 23, Type 0, BuildingBlock: QUQFOY_clean_sbu_3, # of connection points: 4
#     Node 24, Type 1, BuildingBlock: BETDIP_clean_sbu_0, # of connection points: 6
#     Node 25, Type 1, BuildingBlock: BETDIP_clean_sbu_0, # of connection points: 6
#     Node 26, Type 1, BuildingBlock: BETDIP_clean_sbu_0, # of connection points: 6
#     Node 27, Type 1, BuildingBlock: BETDIP_clean_sbu_0, # of connection points: 6
#     Node 28, Type 1, BuildingBlock: BETDIP_clean_sbu_0, # of connection points: 6
#     Node 29, Type 1, BuildingBlock: BETDIP_clean_sbu_0, # of connection points: 6
#     Node 30, Type 1, BuildingBlock: BETDIP_clean_sbu_0, # of connection points: 6
#     Node 31, Type 1, BuildingBlock: BETDIP_clean_sbu_0, # of connection points: 6
#     Node 32, Type 1, BuildingBlock: BETDIP_clean_sbu_0, # of connection points: 6
#     Node 33, Type 1, BuildingBlock: BETDIP_clean_sbu_0, # of connection points: 6
#     Node 34, Type 1, BuildingBlock: BETDIP_clean_sbu_0, # of connection points: 6
#     Node 35, Type 1, BuildingBlock: BETDIP_clean_sbu_0, # of connection points: 6
#     Node 36, Type 1, BuildingBlock: BETDIP_clean_sbu_0, # of connection points: 6
#     Node 37, Type 1, BuildingBlock: BETDIP_clean_sbu_0, # of connection points: 6
#     Node 38, Type 1, BuildingBlock: BETDIP_clean_sbu_0, # of connection points: 6
#     Node 39, Type 1, BuildingBlock: BETDIP_clean_sbu_0, # of connection points: 6
#     Edge 40, Type (0, 1), BuildingBlock: ZUJKAS_clean_linker_0, # of connection points: 2
#     Edge 41, Type (0, 1), BuildingBlock: ZUJKAS_clean_linker_0, # of connection points: 2
#     Edge 42, Type (0, 1), BuildingBlock: ZUJKAS_clean_linker_0, # of connection points: 2
#     Edge 43, Type (0, 1), BuildingBlock: ZUJKAS_clean_linker_0, # of connection points: 2
#     Edge 44, Type (0, 1), BuildingBlock: ZUJKAS_clean_linker_0, # of connection points: 2
#     Edge 45, Type (0, 1), BuildingBlock: ZUJKAS_clean_linker_0, # of connection points: 2
#     Edge 46, Type (0, 1), BuildingBlock: ZUJKAS_clean_linker_0, # of connection points: 2
#     Edge 47, Type (0, 1), BuildingBlock: ZUJKAS_clean_linker_0, # of connection points: 2
#     Edge 48, Type (0, 1), BuildingBlock: ZUJKAS_clean_linker_0, # of connection points: 2
#     Edge 49, Type (0, 1), BuildingBlock: ZUJKAS_clean_linker_0, # of connection points: 2
#     Edge 50, Type (0, 1), BuildingBlock: ZUJKAS_clean_linker_0, # of connection points: 2
#     Edge 51, Type (0, 1), BuildingBlock: ZUJKAS_clean_linker_0, # of connection points: 2
#     Edge 52, Type (0, 1), BuildingBlock: ZUJKAS_clean_linker_0, # of connection points: 2
#     Edge 53, Type (0, 1), BuildingBlock: ZUJKAS_clean_linker_0, # of connection points: 2
#     Edge 54, Type (0, 1), BuildingBlock: ZUJKAS_clean_linker_0, # of connection points: 2
#     Edge 55, Type (0, 1), BuildingBlock: ZUJKAS_clean_linker_0, # of connection points: 2
#     Edge 56, Type (0, 1), BuildingBlock: ZUJKAS_clean_linker_0, # of connection points: 2
#     Edge 57, Type (0, 1), BuildingBlock: ZUJKAS_clean_linker_0, # of connection points: 2
#     Edge 58, Type (0, 1), BuildingBlock: ZUJKAS_clean_linker_0, # of connection points: 2
#     Edge 59, Type (0, 1), BuildingBlock: ZUJKAS_clean_linker_0, # of connection points: 2
#     Edge 60, Type (0, 1), BuildingBlock: ZUJKAS_clean_linker_0, # of connection points: 2
#     Edge 61, Type (0, 1), BuildingBlock: ZUJKAS_clean_linker_0, # of connection points: 2
#     Edge 62, Type (0, 1), BuildingBlock: ZUJKAS_clean_linker_0, # of connection points: 2
#     Edge 63, Type (0, 1), BuildingBlock: ZUJKAS_clean_linker_0, # of connection points: 2
#     Edge 64, Type (0, 1), BuildingBlock: ZUJKAS_clean_linker_0, # of connection points: 2
#     Edge 65, Type (0, 1), BuildingBlock: ZUJKAS_clean_linker_0, # of connection points: 2
#     Edge 66, Type (0, 1), BuildingBlock: ZUJKAS_clean_linker_0, # of connection points: 2
#     Edge 67, Type (0, 1), BuildingBlock: ZUJKAS_clean_linker_0, # of connection points: 2
#     Edge 68, Type (0, 1), BuildingBlock: ZUJKAS_clean_linker_0, # of connection points: 2
#     Edge 69, Type (0, 1), BuildingBlock: ZUJKAS_clean_linker_0, # of connection points: 2
#     Edge 70, Type (0, 1), BuildingBlock: ZUJKAS_clean_linker_0, # of connection points: 2
#     Edge 71, Type (0, 1), BuildingBlock: ZUJKAS_clean_linker_0, # of connection points: 2
#     Edge 72, Type (0, 1), BuildingBlock: ZUJKAS_clean_linker_0, # of connection points: 2
#     Edge 73, Type (0, 1), BuildingBlock: ZUJKAS_clean_linker_0, # of connection points: 2
#     Edge 74, Type (0, 1), BuildingBlock: ZUJKAS_clean_linker_0, # of connection points: 2
#     Edge 75, Type (0, 1), BuildingBlock: ZUJKAS_clean_linker_0, # of connection points: 2
#     Edge 76, Type (0, 1), BuildingBlock: ZUJKAS_clean_linker_0, # of connection points: 2
#     Edge 77, Type (0, 1), BuildingBlock: ZUJKAS_clean_linker_0, # of connection points: 2
#     Edge 78, Type (0, 1), BuildingBlock: ZUJKAS_clean_linker_0, # of connection points: 2
#     Edge 79, Type (0, 1), BuildingBlock: ZUJKAS_clean_linker_0, # of connection points: 2
#     Edge 80, Type (0, 1), BuildingBlock: ZUJKAS_clean_linker_0, # of connection points: 2
#     Edge 81, Type (0, 1), BuildingBlock: ZUJKAS_clean_linker_0, # of connection points: 2
#     Edge 82, Type (0, 1), BuildingBlock: ZUJKAS_clean_linker_0, # of connection points: 2
#     Edge 83, Type (0, 1), BuildingBlock: ZUJKAS_clean_linker_0, # of connection points: 2
#     Edge 84, Type (0, 1), BuildingBlock: ZUJKAS_clean_linker_0, # of connection points: 2
#     Edge 85, Type (0, 1), BuildingBlock: ZUJKAS_clean_linker_0, # of connection points: 2
#     Edge 86, Type (0, 1), BuildingBlock: ZUJKAS_clean_linker_0, # of connection points: 2
#     Edge 87, Type (0, 1), BuildingBlock: ZUJKAS_clean_linker_0, # of connection points: 2
#     Edge 88, Type (0, 1), BuildingBlock: ZUJKAS_clean_linker_0, # of connection points: 2
#     Edge 89, Type (0, 1), BuildingBlock: ZUJKAS_clean_linker_0, # of connection points: 2
#     Edge 90, Type (0, 1), BuildingBlock: ZUJKAS_clean_linker_0, # of connection points: 2
#     Edge 91, Type (0, 1), BuildingBlock: ZUJKAS_clean_linker_0, # of connection points: 2
#     Edge 92, Type (0, 1), BuildingBlock: ZUJKAS_clean_linker_0, # of connection points: 2
#     Edge 93, Type (0, 1), BuildingBlock: ZUJKAS_clean_linker_0, # of connection points: 2
#     Edge 94, Type (0, 1), BuildingBlock: ZUJKAS_clean_linker_0, # of connection points: 2
#     Edge 95, Type (0, 1), BuildingBlock: ZUJKAS_clean_linker_0, # of connection points: 2
#     Edge 96, Type (0, 1), BuildingBlock: ZUJKAS_clean_linker_0, # of connection points: 2
#     Edge 97, Type (0, 1), BuildingBlock: ZUJKAS_clean_linker_0, # of connection points: 2
#     Edge 98, Type (0, 1), BuildingBlock: ZUJKAS_clean_linker_0, # of connection points: 2
#     Edge 99, Type (0, 1), BuildingBlock: ZUJKAS_clean_linker_0, # of connection points: 2
#     Edge 100, Type (0, 1), BuildingBlock: ZUJKAS_clean_linker_0, # of connection points: 2
#     Edge 101, Type (0, 1), BuildingBlock: ZUJKAS_clean_linker_0, # of connection points: 2
#     Edge 102, Type (0, 1), BuildingBlock: ZUJKAS_clean_linker_0, # of connection points: 2
#     Edge 103, Type (0, 1), BuildingBlock: ZUJKAS_clean_linker_0, # of connection points: 2
#     Edge 104, Type (0, 1), BuildingBlock: ZUJKAS_clean_linker_0, # of connection points: 2
#     Edge 105, Type (0, 1), BuildingBlock: ZUJKAS_clean_linker_0, # of connection points: 2
#     Edge 106, Type (0, 1), BuildingBlock: ZUJKAS_clean_linker_0, # of connection points: 2
#     Edge 107, Type (0, 1), BuildingBlock: ZUJKAS_clean_linker_0, # of connection points: 2
#     Edge 108, Type (0, 1), BuildingBlock: ZUJKAS_clean_linker_0, # of connection points: 2
#     Edge 109, Type (0, 1), BuildingBlock: ZUJKAS_clean_linker_0, # of connection points: 2
#     Edge 110, Type (0, 1), BuildingBlock: ZUJKAS_clean_linker_0, # of connection points: 2
#     Edge 111, Type (0, 1), BuildingBlock: ZUJKAS_clean_linker_0, # of connection points: 2
#     Edge 112, Type (0, 1), BuildingBlock: ZUJKAS_clean_linker_0, # of connection points: 2
#     Edge 113, Type (0, 1), BuildingBlock: ZUJKAS_clean_linker_0, # of connection points: 2
#     Edge 114, Type (0, 1), BuildingBlock: ZUJKAS_clean_linker_0, # of connection points: 2
#     Edge 115, Type (0, 1), BuildingBlock: ZUJKAS_clean_linker_0, # of connection points: 2
#     Edge 116, Type (0, 1), BuildingBlock: ZUJKAS_clean_linker_0, # of connection points: 2
#     Edge 117, Type (0, 1), BuildingBlock: ZUJKAS_clean_linker_0, # of connection points: 2
#     Edge 118, Type (0, 1), BuildingBlock: ZUJKAS_clean_linker_0, # of connection points: 2
#     Edge 119, Type (0, 1), BuildingBlock: ZUJKAS_clean_linker_0, # of connection points: 2
#     Edge 120, Type (0, 1), BuildingBlock: ZUJKAS_clean_linker_0, # of connection points: 2
#     Edge 121, Type (0, 1), BuildingBlock: ZUJKAS_clean_linker_0, # of connection points: 2
#     Edge 122, Type (0, 1), BuildingBlock: ZUJKAS_clean_linker_0, # of connection points: 2
#     Edge 123, Type (0, 1), BuildingBlock: ZUJKAS_clean_linker_0, # of connection points: 2
#     Edge 124, Type (0, 1), BuildingBlock: ZUJKAS_clean_linker_0, # of connection points: 2
#     Edge 125, Type (0, 1), BuildingBlock: ZUJKAS_clean_linker_0, # of connection points: 2
#     Edge 126, Type (0, 1), BuildingBlock: ZUJKAS_clean_linker_0, # of connection points: 2
#     Edge 127, Type (0, 1), BuildingBlock: ZUJKAS_clean_linker_0, # of connection points: 2
#     Edge 128, Type (0, 1), BuildingBlock: ZUJKAS_clean_linker_0, # of connection points: 2
#     Edge 129, Type (0, 1), BuildingBlock: ZUJKAS_clean_linker_0, # of connection points: 2
#     Edge 130, Type (0, 1), BuildingBlock: ZUJKAS_clean_linker_0, # of connection points: 2
#     Edge 131, Type (0, 1), BuildingBlock: ZUJKAS_clean_linker_0, # of connection points: 2
#     Edge 132, Type (0, 1), BuildingBlock: ZUJKAS_clean_linker_0, # of connection points: 2
#     Edge 133, Type (0, 1), BuildingBlock: ZUJKAS_clean_linker_0, # of connection points: 2
#     Edge 134, Type (0, 1), BuildingBlock: ZUJKAS_clean_linker_0, # of connection points: 2
#     Edge 135, Type (0, 1), BuildingBlock: ZUJKAS_clean_linker_0, # of connection points: 2
# Relax obj value: 0.148
# Max RMSD: 0.267
# Mean RMSD: 0.138
data_MOF--net-gar--node1-QUQFOY_clean_sbu_3--node2-BETDIP_clean_sbu_0--edge1-ZUJKAS_clean_linker_0
_symmetry_space_group_name_H-M    P1
_symmetry_Int_Tables_number       1
_symmetry_cell_setting            triclinic
loop_
_symmetry_equiv_pos_as_xyz
'x, y, z'
_cell_length_a     80.254162
_cell_length_b     74.880535
_cell_length_c     71.976883
_cell_angle_alpha  97.077324
_cell_angle_beta   97.922654
_cell_angle_gamma 100.42782
loop_
_atom_site_label
_atom_site_type_symbol
_atom_site_fract_x
_atom_site_fract_y
_atom_site_fract_z
_atom_type_partial_charge
C0 C 0.98444 0.29094 0.34821 0.0
O1 O 0.99214 0.29968 0.33683 0.0
Cd2 Cd 0.02215 0.30945 0.3441 0.0
O3 O 0.99236 0.2862 0.36256 0.0
Cd4 Cd 0.01963 0.28623 0.37884 0.0
C5 C 0.01994 0.3299 0.38891 0.0
O6 O 0.03259 0.28294 0.35196 0.0
O7 O 0.04968 0.29319 0.37893 0.0
O8 O 0.0065 0.25545 0.37849 0.0
C9 C 0.04763 0.28704 0.36138 0.0
O10 O 0.02224 0.33149 0.37199 0.0
C11 C 0.01275 0.25529 0.39561 0.0
O12 O 0.01832 0.3146 0.39493 0.0
O13 O 0.02241 0.26985 0.40503 0.0
C14 C 0.02342 0.74278 0.69902 0.0
O15 O 0.03493 0.73758 0.70979 0.0
Cd16 Cd 0.06286 0.73625 0.70278 0.0
O17 O 0.02622 0.74857 0.68369 0.0
Cd18 Cd 0.04916 0.75475 0.66623 0.0
C19 C 0.05136 0.71095 0.65836 0.0
O20 O 0.07089 0.76508 0.69275 0.0
O21 O 0.07935 0.76026 0.66571 0.0
O22 O 0.04142 0.78304 0.66137 0.0
C23 C 0.08311 0.76596 0.68335 0.0
O24 O 0.05884 0.71223 0.67542 0.0
C25 C 0.04379 0.78134 0.64423 0.0
O26 O 0.0455 0.72417 0.65233 0.0
O27 O 0.04687 0.76627 0.63681 0.0
C28 C 0.48558 0.78844 0.84595 0.0
O29 O 0.49326 0.79893 0.83587 0.0
Cd30 Cd 0.52319 0.81135 0.8444 0.0
O31 O 0.49325 0.78405 0.86067 0.0
Cd32 Cd 0.51958 0.78631 0.88028 0.0
C33 C 0.51839 0.8307 0.88882 0.0
O34 O 0.53363 0.78593 0.85438 0.0
O35 O 0.55025 0.79027 0.88164 0.0
O36 O 0.50608 0.75535 0.87934 0.0
C37 C 0.54862 0.78867 0.8637 0.0
O38 O 0.52191 0.83267 0.87236 0.0
C39 C 0.51149 0.75521 0.89671 0.0
O40 O 0.51653 0.81521 0.89458 0.0
O41 O 0.52066 0.76986 0.90654 0.0
C42 C 0.52217 0.24182 0.19865 0.0
O43 O 0.53296 0.2351 0.20881 0.0
Cd44 Cd 0.56126 0.23386 0.20332 0.0
O45 O 0.52563 0.24873 0.1841 0.0
Cd46 Cd 0.54798 0.25421 0.16647 0.0
C47 C 0.54976 0.21023 0.15821 0.0
O48 O 0.57066 0.2613 0.19164 0.0
O49 O 0.57661 0.25444 0.16338 0.0
O50 O 0.54857 0.28532 0.16611 0.0
C51 C 0.58176 0.25966 0.18097 0.0
O52 O 0.55661 0.21097 0.17541 0.0
C53 C 0.54685 0.284 0.14819 0.0
O54 O 0.54434 0.22365 0.15198 0.0
O55 O 0.54321 0.26804 0.13838 0.0
C56 C 0.02358 0.77172 0.15638 0.0
O57 O 0.03443 0.7656 0.16709 0.0
Cd58 Cd 0.06189 0.76175 0.16103 0.0
O59 O 0.02793 0.77889 0.14202 0.0
Cd60 Cd 0.05579 0.78635 0.12757 0.0
C61 C 0.04974 0.74036 0.11416 0.0
O62 O 0.07812 0.78999 0.15611 0.0
O63 O 0.08695 0.78347 0.12982 0.0
O64 O 0.05698 0.81962 0.12537 0.0
C65 C 0.09056 0.78715 0.14781 0.0
O66 O 0.05423 0.73997 0.13175 0.0
C67 C 0.05265 0.81778 0.10747 0.0
O68 O 0.04901 0.7555 0.10797 0.0
O69 O 0.04996 0.80148 0.09866 0.0
C70 C 0.47666 0.76075 0.38634 0.0
O71 O 0.48732 0.77066 0.37851 0.0
Cd72 Cd 0.51793 0.7765 0.38662 0.0
O73 O 0.48204 0.75233 0.39975 0.0
Cd74 Cd 0.51268 0.75171 0.41719 0.0
C75 C 0.5198 0.797 0.43222 0.0
O76 O 0.53039 0.7505 0.39132 0.0
O77 O 0.54361 0.76456 0.41863 0.0
O78 O 0.50507 0.71865 0.42161 0.0
C79 C 0.54459 0.75793 0.40186 0.0
O80 O 0.52395 0.79813 0.41589 0.0
C81 C 0.51339 0.72081 0.43834 0.0
O82 O 0.51309 0.78155 0.43649 0.0
O83 O 0.52071 0.73714 0.44555 0.0
C84 C 0.52372 0.27172 0.65624 0.0
O85 O 0.53466 0.26588 0.66712 0.0
Cd86 Cd 0.56304 0.26365 0.66203 0.0
O87 O 0.52811 0.27903 0.64201 0.0
Cd88 Cd 0.55631 0.28705 0.62865 0.0
C89 C 0.55309 0.24184 0.61545 0.0
O90 O 0.57912 0.29199 0.65735 0.0
O91 O 0.58713 0.28342 0.63104 0.0
O92 O 0.55451 0.31956 0.6264 0.0
C93 C 0.59124 0.28837 0.64886 0.0
O94 O 0.55912 0.24206 0.63282 0.0
C95 C 0.5531 0.31829 0.60845 0.0
O96 O 0.54913 0.25612 0.6095 0.0
O97 O 0.55343 0.30258 0.59965 0.0
C98 C 0.97784 0.26117 0.88515 0.0
O99 O 0.98876 0.27001 0.87673 0.0
Cd100 Cd 0.01927 0.27716 0.8841 0.0
O101 O 0.98294 0.25337 0.89924 0.0
Cd102 Cd 0.01362 0.25218 0.91698 0.0
C103 C 0.021 0.29848 0.92992 0.0
O104 O 0.03145 0.25195 0.89124 0.0
O105 O 0.04516 0.26276 0.91929 0.0
O106 O 0.01029 0.21886 0.91953 0.0
C107 C 0.04584 0.25828 0.90188 0.0
O108 O 0.02363 0.29893 0.91292 0.0
C109 C 0.0132 0.22061 0.93754 0.0
O110 O 0.01601 0.28318 0.93561 0.0
O111 O 0.01544 0.23692 0.94626 0.0
C112 C 0.43268 0.02948 0.29671 0.0
O113 O 0.4389 0.01993 0.28466 0.0
Cd114 Cd 0.42915 0.01364 0.25103 0.0
O115 O 0.42047 0.03764 0.29046 0.0
Cd116 Cd 0.40241 0.03871 0.25425 0.0
C117 C 0.38806 0.98974 0.24964 0.0
O118 O 0.42777 0.04001 0.23503 0.0
O119 O 0.40357 0.02808 0.21813 0.0
O120 O 0.3991 0.07376 0.25692 0.0
C121 C 0.41955 0.03378 0.21842 0.0
O122 O 0.40333 0.98955 0.24673 0.0
C123 C 0.38279 0.07186 0.25461 0.0
O124 O 0.38367 0.00534 0.25365 0.0
O125 O 0.3752 0.05503 0.25231 0.0
C126 C 0.29856 0.13278 0.51987 0.0
O127 O 0.28808 0.12282 0.52791 0.0
Cd128 Cd 0.25969 0.12587 0.53185 0.0
O129 O 0.29369 0.14507 0.51072 0.0
Cd130 Cd 0.26586 0.15721 0.5036 0.0
C131 C 0.27332 0.17154 0.55125 0.0
O132 O 0.24347 0.12926 0.50279 0.0
O133 O 0.23422 0.15445 0.50465 0.0
O134 O 0.26935 0.15953 0.47018 0.0
C135 C 0.23082 0.13714 0.50393 0.0
O136 O 0.26786 0.15484 0.55287 0.0
C137 C 0.27009 0.17678 0.47153 0.0
O138 O 0.27415 0.17651 0.53502 0.0
O139 O 0.26866 0.18492 0.48764 0.0
C140 C 0.11059 0.04056 0.82534 0.0
O141 O 0.10494 0.05254 0.81664 0.0
Cd142 Cd 0.11019 0.05745 0.78551 0.0
O143 O 0.12082 0.03145 0.81839 0.0
Cd144 Cd 0.1352 0.03242 0.78997 0.0
C145 C 0.15214 0.07731 0.79088 0.0
O146 O 0.10969 0.02884 0.76608 0.0
O147 O 0.13442 0.03655 0.75729 0.0
O148 O 0.13435 1.00031 0.78019 0.0
C149 C 0.11836 0.0306 0.7527 0.0
O150 O 0.13675 0.0791 0.78627 0.0
C151 C 0.15003 1.00084 0.78615 0.0
O152 O 0.15557 0.06208 0.79471 0.0
O153 O 0.15892 0.01599 0.79511 0.0
C154 C 0.28939 0.87713 0.01344 0.0
O155 O 0.28403 0.88918 0.02355 0.0
Cd156 Cd 0.26362 0.89305 0.99677 0.0
O157 O 0.27873 0.86708 5e-05 0.0
Cd158 Cd 0.24882 0.86725 0.00382 0.0
C159 C 0.25004 0.85307 0.96518 0.0
O160 O 0.23692 0.89498 0.00389 0.0
O161 O 0.22384 0.87046 0.98399 0.0
O162 O 0.24984 0.8678 0.0368 0.0
C163 C 0.22378 0.88639 0.99218 0.0
O164 O 0.25745 0.86996 0.96818 0.0
C165 C 0.24229 0.8511 0.03518 0.0
O166 O 0.24466 0.84516 0.97833 0.0
O167 O 0.23668 0.84234 0.01861 0.0
C168 C 0.33179 0.41233 0.03216 0.0
O169 O 0.32131 0.42068 0.02367 0.0
Cd170 Cd 0.29073 0.41303 0.01597 0.0
O171 O 0.32604 0.39827 0.03977 0.0
Cd172 Cd 0.29504 0.38101 0.04255 0.0
C173 C 0.28871 0.3687 0.99491 0.0
O174 O 0.2783 0.40581 0.04262 0.0
O175 O 0.26349 0.37824 0.03626 0.0
O176 O 0.3027 0.37668 0.0763 0.0
C177 C 0.2636 0.39527 0.03862 0.0
O178 O 0.28704 0.38513 0.99384 0.0
C179 C 0.29505 0.35992 0.07387 0.0
O180 O 0.29243 0.36331 0.01083 0.0
O181 O 0.28831 0.35278 0.05698 0.0
C182 C 0.83139 0.13836 0.0509 0.0
O183 O 0.81787 0.12592 0.04692 0.0
Cd184 Cd 0.79131 0.13597 0.04761 0.0
O185 O 0.83063 0.15493 0.0502 0.0
Cd186 Cd 0.81179 0.17052 0.03422 0.0
C187 C 0.80875 0.17774 0.07673 0.0
O188 O 0.78486 0.15106 0.02139 0.0
O189 O 0.78431 0.1787 0.03426 0.0
O190 O 0.82359 0.17036 0.006 0.0
C191 C 0.77619 0.16326 0.02525 0.0
O192 O 0.79882 0.16195 0.07301 0.0
C193 C 0.82526 0.18767 0.00669 0.0
O194 O 0.81717 0.18455 0.0648 0.0
O195 O 0.82345 0.19693 0.02208 0.0
C196 C 0.13671 0.51316 0.32233 0.0
O197 O 0.1295 0.52213 0.31086 0.0
Cd198 Cd 0.13372 0.52631 0.27916 0.0
O199 O 0.14799 0.50407 0.3168 0.0
Cd200 Cd 0.16283 0.49885 0.2841 0.0
C201 C 0.17673 0.54837 0.28832 0.0
O202 O 0.13485 0.49801 0.26048 0.0
O203 O 0.15685 0.49822 0.24722 0.0
O204 O 0.16799 0.46631 0.29294 0.0
C205 C 0.14093 0.49845 0.24507 0.0
O206 O 0.16076 0.54813 0.28398 0.0
C207 C 0.18177 0.46543 0.2862 0.0
O208 O 0.18183 0.53314 0.29018 0.0
O209 O 0.18707 0.47955 0.27876 0.0
C210 C 0.83243 0.91207 0.53118 0.0
O211 O 0.82169 0.91915 0.52138 0.0
Cd212 Cd 0.79092 0.91026 0.51626 0.0
O213 O 0.82693 0.8992 0.54037 0.0
Cd214 Cd 0.79589 0.88227 0.54223 0.0
C215 C 0.78894 0.86667 0.49583 0.0
O216 O 0.77766 0.90607 0.54352 0.0
O217 O 0.76493 0.87902 0.52974 0.0
O218 O 0.80337 0.87808 0.57607 0.0
C219 C 0.76361 0.89511 0.53625 0.0
O220 O 0.78406 0.88172 0.4941 0.0
C221 C 0.7952 0.86156 0.57391 0.0
O222 O 0.79612 0.86376 0.51179 0.0
O223 O 0.78787 0.8545 0.5572 0.0
C224 C 0.95786 1.00436 0.29104 0.0
O225 O 0.96643 0.99493 0.2817 0.0
Cd226 Cd 0.95485 0.98213 0.24981 0.0
O227 O 0.94422 0.00842 0.28296 0.0
Cd228 Cd 0.92707 0.00646 0.25133 0.0
C229 C 0.91335 0.96196 0.25458 0.0
O230 O 0.95226 0.00922 0.23572 0.0
O231 O 0.92796 1.00198 0.21686 0.0
O232 O 0.92779 0.037 0.2679 0.0
C233 C 0.94419 0.00659 0.21892 0.0
O234 O 0.92867 0.96047 0.25295 0.0
C235 C 0.91353 0.03876 0.25914 0.0
O236 O 0.90879 0.97733 0.25414 0.0
O237 O 0.90547 0.02563 0.24636 0.0
C238 C 0.33343 0.64258 0.55755 0.0
O239 O 0.32006 0.62996 0.55516 0.0
Cd240 Cd 0.29322 0.63907 0.55494 0.0
O241 O 0.3322 0.65929 0.55872 0.0
Cd242 Cd 0.31637 0.67288 0.53465 0.0
C243 C 0.30931 0.68792 0.56979 0.0
O244 O 0.29023 0.64959 0.52552 0.0
O245 O 0.28702 0.67769 0.52626 0.0
O246 O 0.32745 0.66719 0.50605 0.0
C247 C 0.28019 0.66076 0.52375 0.0
O248 O 0.30372 0.67092 0.56461 0.0
C249 C 0.33015 0.68421 0.50461 0.0
O250 O 0.31747 0.69732 0.55926 0.0
O251 O 0.33154 0.69545 0.5197 0.0
C252 C 0.4558 0.49948 0.7893 0.0
O253 O 0.46203 0.48802 0.77924 0.0
Cd254 Cd 0.4523 0.47894 0.74615 0.0
O255 O 0.44407 0.50698 0.78183 0.0
Cd256 Cd 0.4275 0.5063 0.75029 0.0
C257 C 0.41091 0.46118 0.74997 0.0
O258 O 0.45253 0.50773 0.73455 0.0
O259 O 0.42829 0.50227 0.71571 0.0
O260 O 0.42906 0.53824 0.76342 0.0
C261 C 0.44456 0.50619 0.71783 0.0
O262 O 0.42491 0.45793 0.7453 0.0
C263 C 0.41358 0.53852 0.75703 0.0
O264 O 0.40866 0.47754 0.75358 0.0
O265 O 0.40459 0.52385 0.7471 0.0
C266 C 0.63588 0.0123 0.82217 0.0
O267 O 0.62802 0.02089 0.81083 0.0
Cd268 Cd 0.63425 0.02708 0.78029 0.0
O269 O 0.64795 1.00441 0.8167 0.0
Cd270 Cd 0.66271 0.99919 0.78392 0.0
C271 C 0.67752 0.04825 0.78991 0.0
O272 O 0.63474 0.99902 0.7605 0.0
O273 O 0.65677 0.99947 0.74725 0.0
O274 O 0.66818 0.96685 0.79281 0.0
C275 C 0.64086 0.99978 0.74516 0.0
O276 O 0.66166 0.04887 0.7865 0.0
C277 C 0.68168 0.96582 0.78555 0.0
O278 O 0.68213 0.03263 0.7903 0.0
O279 O 0.68666 0.97974 0.77769 0.0
C280 C 0.79809 0.63359 0.0193 0.0
O281 O 0.78716 0.62278 0.02595 0.0
Cd282 Cd 0.75934 0.62762 0.02919 0.0
O283 O 0.79362 0.64667 0.01118 0.0
Cd284 Cd 0.76546 0.6583 0.00347 0.0
C285 C 0.77371 0.67297 0.05013 0.0
O286 O 0.74232 0.63029 -1e-05 0.0
O287 O 0.73531 0.65566 0.00998 0.0
O288 O 0.77136 0.66149 0.97085 0.0
C289 C 0.73056 0.63854 0.00429 0.0
O290 O 0.76793 0.65623 0.05136 0.0
C291 C 0.76817 0.67751 0.97089 0.0
O292 O 0.77473 0.67821 0.03408 0.0
O293 O 0.76351 0.68462 0.98577 0.0
C294 C 0.93286 0.52948 0.79633 0.0
O295 O 0.93931 0.52024 0.78422 0.0
Cd296 Cd 0.92909 0.51222 0.75089 0.0
O297 O 0.9202 0.53709 0.79014 0.0
Cd298 Cd 0.90203 0.53879 0.7539 0.0
C299 C 0.88748 0.48989 0.75119 0.0
O300 O 0.92772 0.53872 0.7353 0.0
O301 O 0.90347 0.53083 0.71748 0.0
O302 O 0.89855 0.5736 0.76246 0.0
C303 C 0.91968 0.53419 0.71838 0.0
O304 O 0.90288 0.48917 0.74926 0.0
C305 C 0.88295 0.57232 0.75485 0.0
O306 O 0.88302 0.50563 0.75349 0.0
O307 O 0.87587 0.55596 0.74708 0.0
C308 C 0.78851 0.37894 0.49957 0.0
O309 O 0.78265 0.39149 0.5082 0.0
Cd310 Cd 0.75917 0.3896 0.48239 0.0
O311 O 0.77835 0.36823 0.48614 0.0
Cd312 Cd 0.74939 0.37205 0.49528 0.0
C313 C 0.74102 0.34452 0.46393 0.0
O314 O 0.73756 0.39992 0.49517 0.0
O315 O 0.72238 0.37533 0.4776 0.0
O316 O 0.75861 0.3771 0.52885 0.0
C317 C 0.72301 0.39111 0.48666 0.0
O318 O 0.7486 0.36002 0.46063 0.0
C319 C 0.74898 0.36236 0.5311 0.0
O320 O 0.73808 0.34257 0.48032 0.0
O321 O 0.73841 0.35338 0.51695 0.0
C322 C 0.61356 0.53971 0.32625 0.0
O323 O 0.60712 0.55117 0.31745 0.0
Cd324 Cd 0.61119 0.55696 0.2863 0.0
O325 O 0.6241 0.53102 0.31922 0.0
Cd326 Cd 0.6376 0.53131 0.28971 0.0
C327 C 0.65318 0.5774 0.29151 0.0
O328 O 0.61076 0.52814 0.26729 0.0
O329 O 0.63466 0.53129 0.25621 0.0
O330 O 0.6385 0.49864 0.28927 0.0
C331 C 0.61845 0.52801 0.25304 0.0
O332 O 0.63761 0.57902 0.28808 0.0
C333 C 0.65386 0.50043 0.28617 0.0
O334 O 0.65698 0.56196 0.29405 0.0
O335 O 0.662 0.51667 0.28638 0.0
Tb336 Tb 0.01499 0.01306 0.01562 0.0
Tb337 Tb 0.05037 0.02815 0.0341 0.0
C338 C 0.9833 0.00886 0.00679 0.0
C339 C 0.97276 0.02273 0.0043 0.0
C340 C 0.97132 0.03528 0.01995 0.0
C341 C 0.96172 0.04868 0.0174 0.0
C342 C 0.95356 0.04978 0.99924 0.0
C343 C 0.95532 0.03775 0.98351 0.0
C344 C 0.96488 0.02421 0.98604 0.0
C345 C 0.0377 0.01058 0.99291 0.0
C346 C 0.03073 0.05652 0.01895 0.0
C347 C 0.08204 0.03273 0.04318 0.0
C348 C 0.09252 0.0188 0.04401 0.0
C349 C 0.0895 1.00387 0.02926 0.0
C350 C 0.09926 0.99045 0.03023 0.0
C351 C 0.11199 0.99175 0.04598 0.0
C352 C 0.11441 0.00602 0.0612 0.0
C353 C 0.1047 0.0196 0.06018 0.0
C354 C 0.02771 0.03071 0.05683 0.0
C355 C 0.03463 0.9846 0.03055 0.0
O356 O 0.99096 0.00914 0.02413 0.0
O357 O 0.99339 0.00689 0.99421 0.0
O358 O 0.03778 0.02388 0.00549 0.0
O359 O 0.0241 0.99803 0.99238 0.0
O360 O 0.01695 0.04303 0.01577 0.0
O361 O 0.0461 0.05373 0.02519 0.0
O362 O 0.07458 0.03402 0.02616 0.0
O363 O 0.0717 0.03283 0.0557 0.0
O364 O 0.02759 0.01739 0.04425 0.0
O365 O 0.04139 0.04314 0.05739 0.0
O366 O 0.04847 0.99798 0.0329 0.0
O367 O 0.0192 0.98766 0.02495 0.0
H368 H 0.97745 0.03471 0.03419 0.0
H369 H 0.96022 0.05787 0.02966 0.0
H370 H 0.9488 0.03842 0.96947 0.0
H371 H 0.96601 0.01481 0.97379 0.0
H372 H 0.07976 1.00262 0.01689 0.0
H373 H 0.09719 0.97931 0.01848 0.0
H374 H 0.12426 0.00706 0.07342 0.0
H375 H 0.10678 0.03078 0.07186 0.0
Tb376 Tb 0.28524 0.76148 0.25308 0.0
Tb377 Tb 0.27816 0.77761 0.2904 0.0
C378 C 0.28852 0.75621 0.21907 0.0
C379 C 0.29616 0.76947 0.20767 0.0
C380 C 0.28666 0.78168 0.20017 0.0
C381 C 0.29436 0.79519 0.19073 0.0
C382 C 0.31167 0.79668 0.18853 0.0
C383 C 0.32122 0.78463 0.19611 0.0
C384 C 0.31352 0.77111 0.20564 0.0
C385 C 0.30879 0.76077 0.28228 0.0
C386 C 0.29601 0.80581 0.26673 0.0
C387 C 0.28062 0.78291 0.32537 0.0
C388 C 0.27093 0.77132 0.3369 0.0
C389 C 0.27506 0.7543 0.33978 0.0
C390 C 0.2657 0.74303 0.35019 0.0
C391 C 0.25209 0.7486 0.35812 0.0
C392 C 0.24734 0.76511 0.35446 0.0
C393 C 0.2567 0.77641 0.3439 0.0
C394 C 0.2496 0.77412 0.26528 0.0
C395 C 0.26567 0.73396 0.27576 0.0
O396 O 0.27411 0.75876 0.22457 0.0
O397 O 0.29927 0.75248 0.2327 0.0
O398 O 0.30107 0.77382 0.2796 0.0
O399 O 0.30323 0.74753 0.26817 0.0
O400 O 0.29533 0.79137 0.25358 0.0
O401 O 0.29009 0.80375 0.2828 0.0
O402 O 0.29141 0.7752 0.31665 0.0
O403 O 0.27173 0.79187 0.31449 0.0
O404 O 0.26368 0.76979 0.26243 0.0
O405 O 0.2516 0.78106 0.283 0.0
O406 O 0.26921 0.7477 0.29016 0.0
O407 O 0.26938 0.73648 0.25882 0.0
H408 H 0.27326 0.7808 0.20151 0.0
H409 H 0.28654 0.80395 0.18441 0.0
H410 H 0.33449 0.7854 0.19425 0.0
H411 H 0.32117 0.76194 0.21141 0.0
H412 H 0.28578 0.74975 0.33434 0.0
H413 H 0.26994 0.73057 0.35315 0.0
H414 H 0.23696 0.76967 0.36061 0.0
H415 H 0.25303 0.78927 0.34153 0.0
Tb416 Tb 0.55196 0.02018 0.51793 0.0
Tb417 Tb 0.51464 0.01692 0.53022 0.0
C418 C 0.58274 0.01693 0.51805 0.0
C419 C 0.5924 1.00188 0.51469 0.0
C420 C 0.59434 0.98966 0.52783 0.0
C421 C 0.60524 0.97713 0.52578 0.0
C422 C 0.61456 0.97646 0.51057 0.0
C423 C 0.61189 0.98799 0.49687 0.0
C424 C 0.601 1.00058 0.49896 0.0
C425 C 0.52699 0.0207 0.48811 0.0
C426 C 0.52696 0.98102 0.51527 0.0
C427 C 0.48376 0.01999 0.52938 0.0
C428 C 0.47405 0.03511 0.53183 0.0
C429 C 0.46796 0.04305 0.51619 0.0
C430 C 0.45734 0.05589 0.51808 0.0
C431 C 0.45245 0.06119 0.53569 0.0
C432 C 0.45907 0.05372 0.55149 0.0
C433 C 0.46964 0.04081 0.54957 0.0
C434 C 0.53931 0.01701 0.5605 0.0
C435 C 0.53949 0.05599 0.53248 0.0
O436 O 0.57549 0.0179 0.53326 0.0
O437 O 0.57305 0.02054 0.50338 0.0
O438 O 0.52604 0.01937 0.50543 0.0
O439 O 0.54322 0.02187 0.48739 0.0
O440 O 0.54243 0.99089 0.51525 0.0
O441 O 0.51376 0.98812 0.51977 0.0
O442 O 0.49106 0.01833 0.51423 0.0
O443 O 0.49346 0.01708 0.54442 0.0
O444 O 0.54068 0.01787 0.5431 0.0
O445 O 0.52302 0.01599 0.56078 0.0
O446 O 0.52391 0.04617 0.53196 0.0
O447 O 0.55297 0.04884 0.52908 0.0
H448 H 0.58785 0.9901 0.54006 0.0
H449 H 0.60668 0.96823 0.53642 0.0
H450 H 0.61886 0.98796 0.48502 0.0
H451 H 0.5998 0.00978 0.48858 0.0
H452 H 0.47097 0.03894 0.50227 0.0
H453 H 0.45239 0.06104 0.50548 0.0
H454 H 0.45591 0.05764 0.56536 0.0
H455 H 0.47403 0.03499 0.56195 0.0
Tb456 Tb 0.26537 0.27454 0.77263 0.0
Tb457 Tb 0.30044 0.2639 0.77395 0.0
C458 C 0.23598 0.27953 0.77835 0.0
C459 C 0.22453 0.28137 0.79292 0.0
C460 C 0.21553 0.26583 0.79908 0.0
C461 C 0.20254 0.2674 0.81007 0.0
C462 C 0.19831 0.28453 0.81535 0.0
C463 C 0.2078 0.30019 0.80999 0.0
C464 C 0.22065 0.29861 0.79879 0.0
C465 C 0.29082 0.3 0.76728 0.0
C466 C 0.28962 0.27607 0.8119 0.0
C467 C 0.33042 0.26127 0.76833 0.0
C468 C 0.34063 0.25641 0.75327 0.0
C469 C 0.34389 0.26762 0.7393 0.0
C470 C 0.35572 0.26442 0.7272 0.0
C471 C 0.36476 0.25008 0.72888 0.0
C472 C 0.36097 0.23844 0.74231 0.0
C473 C 0.34904 0.24153 0.75429 0.0
C474 C 0.27529 0.23834 0.77945 0.0
C475 C 0.27519 0.26039 0.73436 0.0
O476 O 0.23942 0.26337 0.77307 0.0
O477 O 0.24923 0.29284 0.77916 0.0
O478 O 0.29161 0.28888 0.77893 0.0
O479 O 0.27515 0.2977 0.75863 0.0
O480 O 0.27376 0.27279 0.80245 0.0
O481 O 0.30314 0.27635 0.80326 0.0
O482 O 0.32446 0.27646 0.76836 0.0
O483 O 0.31956 0.248 0.77308 0.0
O484 O 0.27428 0.24949 0.76786 0.0
O485 O 0.29112 0.24031 0.78756 0.0
O486 O 0.29086 0.26138 0.7436 0.0
O487 O 0.26214 0.26318 0.74291 0.0
H488 H 0.21803 0.25232 0.79481 0.0
H489 H 0.19547 0.25511 0.81408 0.0
H490 H 0.20473 0.31355 0.81374 0.0
H491 H 0.22709 0.31083 0.79407 0.0
H492 H 0.33779 0.2793 0.73815 0.0
H493 H 0.35843 0.27376 0.71714 0.0
H494 H 0.36756 0.22717 0.74387 0.0
H495 H 0.34691 0.23268 0.76491 0.0
Tb496 Tb 0.031 0.03686 0.52425 0.0
Tb497 Tb 0.03918 1.00133 0.52069 0.0
C498 C 0.03034 0.07018 0.52809 0.0
C499 C 0.02515 0.08105 0.51353 0.0
C500 C 0.03504 0.08438 0.49916 0.0
C501 C 0.02981 0.09436 0.48521 0.0
C502 C 0.01465 0.10111 0.4854 0.0
C503 C 0.00435 0.09711 0.49916 0.0
C504 C 0.00963 0.08719 0.51321 0.0
C505 C 0.00374 0.01008 0.52195 0.0
C506 C 0.02398 0.01555 0.48401 0.0
C507 C 0.04105 0.96828 0.51685 0.0
C508 C 0.04504 0.95719 0.5316 0.0
C509 C 0.03566 0.95618 0.54669 0.0
C510 C 0.04023 0.94645 0.56116 0.0
C511 C 0.05427 0.93775 0.56081 0.0
C512 C 0.064 0.93931 0.54613 0.0
C513 C 0.05936 0.94894 0.53156 0.0
C514 C 0.06632 0.02832 0.52321 0.0
C515 C 0.0441 0.02192 0.56099 0.0
O516 O 0.04437 0.06391 0.52665 0.0
O517 O 0.01803 0.05784 0.53185 0.0
O518 O 0.01846 0.01111 0.53146 0.0
O519 O 0.00388 0.02467 0.51401 0.0
O520 O 0.02717 0.03211 0.4938 0.0
O521 O 0.02652 1.00113 0.49186 0.0
O522 O 0.02646 0.97381 0.5163 0.0
O523 O 0.05373 0.98131 0.51524 0.0
O524 O 0.05167 0.02704 0.51341 0.0
O525 O 0.06606 0.01405 0.53168 0.0
O526 O 0.03978 0.00543 0.55095 0.0
O527 O 0.04376 0.0367 0.55296 0.0
H528 H 0.0469 0.07949 0.49874 0.0
H529 H 0.03784 0.09728 0.47457 0.0
H530 H 0.99268 0.10239 0.49958 0.0
H531 H 1.00168 0.08449 0.52395 0.0
H532 H 0.02483 0.96288 0.54739 0.0
H533 H 0.03266 0.9455 0.5725 0.0
H534 H 0.07481 0.93254 0.54556 0.0
H535 H 0.06695 0.94996 0.52025 0.0
Tb536 Tb 0.28389 0.75001 0.76994 0.0
Tb537 Tb 0.2815 0.79104 0.77156 0.0
C538 C 0.29174 0.71931 0.76253 0.0
C539 C 0.30457 0.70915 0.77014 0.0
C540 C 0.31657 0.70474 0.75882 0.0
C541 C 0.32747 0.69317 0.7643 0.0
C542 C 0.32657 0.68582 0.78119 0.0
C543 C 0.31533 0.69099 0.79317 0.0
C544 C 0.30433 0.70262 0.78766 0.0
C545 C 0.28063 0.76643 0.80262 0.0
C546 C 0.31714 0.78237 0.7793 0.0
C547 C 0.27565 0.82287 0.77288 0.0
C548 C 0.26103 0.83174 0.76851 0.0
C549 C 0.24844 0.83182 0.78021 0.0
C550 C 0.23599 0.84236 0.77708 0.0
C551 C 0.23601 0.85295 0.76227 0.0
C552 C 0.24789 0.85189 0.74983 0.0
C553 C 0.26037 0.84142 0.75299 0.0
C554 C 0.28603 0.7736 0.73982 0.0
C555 C 0.24838 0.75918 0.76383 0.0
O556 O 0.29772 0.73371 0.75504 0.0
O557 O 0.27973 0.72205 0.77255 0.0
O558 O 0.28854 0.77339 0.79076 0.0
O559 O 0.27669 0.74879 0.79801 0.0
O560 O 0.31008 0.7651 0.77194 0.0
O561 O 0.308 0.79465 0.78414 0.0
O562 O 0.27628 0.81416 0.78756 0.0
O563 O 0.2802 0.81403 0.75824 0.0
O564 O 0.27656 0.76754 0.75084 0.0
O565 O 0.29356 0.79037 0.74624 0.0
O566 O 0.25524 0.77645 0.77153 0.0
O567 O 0.25755 0.74736 0.75794 0.0
H568 H 0.31702 0.70962 0.7453 0.0
H569 H 0.33607 0.68924 0.75489 0.0
H570 H 0.31442 0.68527 0.80619 0.0
H571 H 0.29526 0.70588 0.79674 0.0
H572 H 0.24855 0.82434 0.79217 0.0
H573 H 0.22675 0.84281 0.78669 0.0
H574 H 0.24821 0.86002 0.73838 0.0
H575 H 0.26996 0.8415 0.74375 0.0
Tb576 Tb 0.51624 0.01866 0.00846 0.0
Tb577 Tb 0.5482 0.02266 0.0373 0.0
C578 C 0.48726 0.00604 0.98955 0.0
C579 C 0.47057 1.0017 0.99592 0.0
C580 C 0.46539 0.98461 0.00168 0.0
C581 C 0.45033 0.9809 0.00914 0.0
C582 C 0.44003 0.99409 0.01075 0.0
C583 C 0.44501 0.01113 0.00491 0.0
C584 C 0.46026 0.01497 0.99761 0.0
C585 C 0.53024 0.0519 0.02454 0.0
C586 C 0.51332 0.01687 0.05369 0.0
C587 C 0.57758 0.03514 0.05524 0.0
C588 C 0.59397 0.03892 0.04806 0.0
C589 C 0.59882 0.05534 0.04082 0.0
C590 C 0.61393 0.05866 0.03333 0.0
C591 C 0.6246 0.04576 0.03312 0.0
C592 C 0.6197 0.0292 0.03996 0.0
C593 C 0.60444 0.02576 0.04732 0.0
C594 C 0.53415 0.98944 0.021 0.0
C595 C 0.55111 0.02499 0.99217 0.0
O596 O 0.49819 0.99567 0.99445 0.0
O597 O 0.49445 0.02352 0.99194 0.0
O598 O 0.52888 0.03765 0.03201 0.0
O599 O 0.52224 0.04815 0.00714 0.0
O600 O 0.50563 0.01345 0.03544 0.0
O601 O 0.5303 0.02234 0.05802 0.0
O602 O 0.56669 0.04562 0.0506 0.0
O603 O 0.57017 0.01777 0.05352 0.0
O604 O 0.53567 1.00374 0.01361 0.0
O605 O 0.54189 0.99314 0.03851 0.0
O606 O 0.55878 0.028 0.0104 0.0
O607 O 0.53413 0.01971 0.98788 0.0
H608 H 0.47296 0.97405 0.00048 0.0
H609 H 0.4464 0.96741 0.013 0.0
H610 H 0.437 0.02131 0.00577 0.0
H611 H 0.46398 0.02829 0.99332 0.0
H612 H 0.59105 0.06575 0.04109 0.0
H613 H 0.61768 0.07174 0.02853 0.0
H614 H 0.62788 0.01917 0.04003 0.0
H615 H 0.60093 0.0129 0.05261 0.0
Tb616 Tb 0.26503 0.25612 0.26746 0.0
Tb617 Tb 0.29797 0.27999 0.27765 0.0
C618 C 0.23538 0.24049 0.26976 0.0
C619 C 0.22046 0.24814 0.27376 0.0
C620 C 0.22045 0.25796 0.29175 0.0
C621 C 0.20644 0.26558 0.29523 0.0
C622 C 0.19227 0.2634 0.28086 0.0
C623 C 0.19232 0.25391 0.26285 0.0
C624 C 0.20638 0.24634 0.2593 0.0
C625 C 0.27689 0.26783 0.23777 0.0
C626 C 0.26683 0.3005 0.27934 0.0
C627 C 0.32806 0.29605 0.27778 0.0
C628 C 0.343 0.28896 0.27284 0.0
C629 C 0.34479 0.28496 0.25371 0.0
C630 C 0.35896 0.27838 0.249 0.0
C631 C 0.37156 0.27577 0.26332 0.0
C632 C 0.36956 0.27897 0.28238 0.0
C633 C 0.35536 0.28565 0.28714 0.0
C634 C 0.28568 0.2678 0.30684 0.0
C635 C 0.29616 0.23566 0.26495 0.0
O636 O 0.24826 0.24348 0.28379 0.0
O637 O 0.24034 0.24304 0.25354 0.0
O638 O 0.27815 0.27708 0.254 0.0
O639 O 0.26772 0.25161 0.23756 0.0
O640 O 0.25751 0.28336 0.27654 0.0
O641 O 0.2836 0.30275 0.27918 0.0
O642 O 0.31554 0.29485 0.26373 0.0
O643 O 0.32254 0.29132 0.29308 0.0
O644 O 0.28512 0.2588 0.2907 0.0
O645 O 0.2936 0.28456 0.3071 0.0
O646 O 0.30542 0.25287 0.26759 0.0
O647 O 0.27942 0.23343 0.2654 0.0
H648 H 0.23117 0.2597 0.30319 0.0
H649 H 0.20642 0.27263 0.30932 0.0
H650 H 0.18138 0.25215 0.25165 0.0
H651 H 0.20622 0.23902 0.2453 0.0
H652 H 0.33541 0.28713 0.24232 0.0
H653 H 0.36032 0.27574 0.23419 0.0
H654 H 0.37928 0.27702 0.29355 0.0
H655 H 0.35417 0.28846 0.30197 0.0
Tb656 Tb 0.53026 0.5381 0.02804 0.0
Tb657 Tb 0.54021 0.5018 0.01684 0.0
C658 C 0.5322 0.57176 0.03057 0.0
C659 C 0.52649 0.58216 0.01578 0.0
C660 C 0.5362 0.58527 0.00122 0.0
C661 C 0.53071 0.59476 0.98699 0.0
C662 C 0.51552 0.60143 0.98714 0.0
C663 C 0.50535 0.59766 0.00108 0.0
C664 C 0.51084 0.58808 0.01537 0.0
C665 C 0.50248 0.51146 0.02496 0.0
C666 C 0.52295 0.51912 0.98501 0.0
C667 C 0.54601 0.47026 0.0153 0.0
C668 C 0.54907 0.45956 0.03058 0.0
C669 C 0.5366 0.45517 0.0421 0.0
C670 C 0.53989 0.44523 0.05675 0.0
C671 C 0.55572 0.4399 0.06016 0.0
C672 C 0.56853 0.4451 0.04944 0.0
C673 C 0.56518 0.45485 0.03461 0.0
C674 C 0.56309 0.53121 0.01437 0.0
C675 C 0.54333 0.51868 0.06063 0.0
O676 O 0.54504 0.56385 0.02753 0.0
O677 O 0.52008 0.56104 0.03679 0.0
O678 O 0.51748 0.50997 0.02244 0.0
O679 O 0.5028 0.52884 0.02923 0.0
O680 O 0.52597 0.53453 0.99715 0.0
O681 O 0.52562 0.50345 0.99008 0.0
O682 O 0.53047 0.47349 0.01147 0.0
O683 O 0.55804 0.48476 0.01598 0.0
O684 O 0.55419 0.52911 0.02748 0.0
O685 O 0.55904 0.5164 0.00197 0.0
O686 O 0.54377 0.50458 0.04777 0.0
O687 O 0.53895 0.53393 0.05631 0.0
H688 H 0.54817 0.58058 0.00086 0.0
H689 H 0.53862 0.59744 0.9762 0.0
H690 H 0.49364 0.60287 0.00144 0.0
H691 H 0.50299 0.58556 0.02624 0.0
H692 H 0.52422 0.45907 0.03963 0.0
H693 H 0.52987 0.44105 0.06493 0.0
H694 H 0.58072 0.44076 0.05186 0.0
H695 H 0.57506 0.45849 0.0261 0.0
Tb696 Tb 0.78156 0.24779 0.27188 0.0
Tb697 Tb 0.78354 0.28929 0.2782 0.0
C698 C 0.78666 0.2158 0.26445 0.0
C699 C 0.80089 0.20643 0.27 0.0
C700 C 0.80978 0.19972 0.2561 0.0
C701 C 0.82267 0.19002 0.26079 0.0
C702 C 0.82695 0.18674 0.27951 0.0
C703 C 0.81833 0.19382 0.29356 0.0
C704 C 0.80545 0.2036 0.28887 0.0
C705 C 0.78151 0.2635 0.30617 0.0
C706 C 0.81715 0.27645 0.27952 0.0
C707 C 0.77843 0.32115 0.28634 0.0
C708 C 0.76495 0.33102 0.2794 0.0
C709 C 0.75454 0.33714 0.29189 0.0
C710 C 0.74261 0.34763 0.28614 0.0
C711 C 0.74075 0.35227 0.2677 0.0
C712 C 0.75082 0.34567 0.25495 0.0
C713 C 0.76278 0.33512 0.26071 0.0
C714 C 0.78545 0.27538 0.24418 0.0
C715 C 0.74798 0.26082 0.26692 0.0
O716 O 0.78961 0.22829 0.2534 0.0
O717 O 0.77818 0.22083 0.27779 0.0
O718 O 0.7903 0.26946 0.29463 0.0
O719 O 0.77182 0.24778 0.29899 0.0
O720 O 0.80822 0.26003 0.27152 0.0
O721 O 0.80994 0.28917 0.28773 0.0
O722 O 0.77402 0.30796 0.29624 0.0
O723 O 0.78838 0.3168 0.27431 0.0
O724 O 0.77612 0.26787 0.25467 0.0
O725 O 0.79281 0.2919 0.25173 0.0
O726 O 0.7566 0.27662 0.27685 0.0
O727 O 0.75572 0.24789 0.26031 0.0
H728 H 0.80651 0.20167 0.24148 0.0
H729 H 0.82884 0.1845 0.24955 0.0
H730 H 0.82141 0.19165 0.30813 0.0
H731 H 0.79892 0.20868 0.3 0.0
H732 H 0.75594 0.33421 0.30632 0.0
H733 H 0.73532 0.35272 0.29647 0.0
H734 H 0.7496 0.34879 0.24058 0.0
H735 H 0.77051 0.3305 0.25061 0.0
Tb736 Tb 0.01523 0.51766 0.50826 0.0
Tb737 Tb 0.04815 0.52203 0.53675 0.0
C738 C 0.98579 0.50425 0.4907 0.0
C739 C 0.96899 0.50192 0.49712 0.0
C740 C 0.96293 0.48606 0.50475 0.0
C741 C 0.94728 0.48387 0.51121 0.0
C742 C 0.93726 0.4973 0.50988 0.0
C743 C 0.94324 0.51325 0.50249 0.0
C744 C 0.95912 0.51563 0.49628 0.0
C745 C 0.02894 0.55089 0.52447 0.0
C746 C 0.01341 0.51624 0.55389 0.0
C747 C 0.0776 0.53639 0.55381 0.0
C748 C 0.09417 0.54013 0.54694 0.0
C749 C 0.09946 0.55699 0.54071 0.0
C750 C 0.11482 0.56061 0.53373 0.0
C751 C 0.12535 0.5476 0.53314 0.0
C752 C 0.12013 0.53067 0.53918 0.0
C753 C 0.10456 0.5269 0.54593 0.0
C754 C 0.03439 0.48882 0.52048 0.0
C755 C 0.04998 0.52341 0.49125 0.0
O756 O 0.99626 0.49429 0.49774 0.0
O757 O 0.99355 0.52119 0.49042 0.0
O758 O 0.02833 0.53649 0.53165 0.0
O759 O 0.01988 0.54727 0.50756 0.0
O760 O 0.0054 0.51335 0.53578 0.0
O761 O 0.03051 0.52104 0.55786 0.0
O762 O 0.0664 0.54588 0.54747 0.0
O763 O 0.07063 0.51909 0.55373 0.0
O764 O 0.03505 0.50323 0.51332 0.0
O765 O 0.04334 0.49241 0.53749 0.0
O766 O 0.058 0.52562 0.50925 0.0
O767 O 0.0329 0.51904 0.48717 0.0
H768 H 0.97014 0.47519 0.50551 0.0
H769 H 0.94258 0.4712 0.51636 0.0
H770 H 0.93544 0.52354 0.50106 0.0
H771 H 0.96351 0.52802 0.49054 0.0
H772 H 0.09183 0.56752 0.54136 0.0
H773 H 0.11883 0.57395 0.52957 0.0
H774 H 0.12824 0.52057 0.539 0.0
H775 H 0.10077 0.51374 0.55055 0.0
Tb776 Tb 0.76433 0.77517 0.27269 0.0
Tb777 Tb 0.8013 0.76467 0.27397 0.0
C778 C 0.73535 0.7811 0.2784 0.0
C779 C 0.7234 0.78211 0.29233 0.0
C780 C 0.72058 0.76918 0.30473 0.0
C781 C 0.70801 0.76995 0.31648 0.0
C782 C 0.69792 0.78359 0.31604 0.0
C783 C 0.7013 0.79682 0.30402 0.0
C784 C 0.71386 0.79608 0.2924 0.0
C785 C 0.79012 0.80054 0.26766 0.0
C786 C 0.78799 0.77384 0.31198 0.0
C787 C 0.83201 0.76772 0.26873 0.0
C788 C 0.84231 0.76109 0.25448 0.0
C789 C 0.84574 0.77112 0.23964 0.0
C790 C 0.85712 0.76657 0.22757 0.0
C791 C 0.86558 0.75193 0.23001 0.0
C792 C 0.86176 0.74148 0.24446 0.0
C793 C 0.85028 0.74601 0.25654 0.0
C794 C 0.7762 0.73566 0.27253 0.0
C795 C 0.77482 0.7589 0.23513 0.0
O796 O 0.7379 0.76494 0.27135 0.0
O797 O 0.74937 0.79384 0.28151 0.0
O798 O 0.79086 0.78891 0.27881 0.0
O799 O 0.77438 0.79858 0.2593 0.0
O800 O 0.77239 0.77225 0.30214 0.0
O801 O 0.80194 0.7735 0.30402 0.0
O802 O 0.82194 0.77878 0.26339 0.0
O803 O 0.82497 0.75614 0.27916 0.0
O804 O 0.77565 0.75226 0.27296 0.0
O805 O 0.79222 0.73459 0.27282 0.0
O806 O 0.79088 0.76158 0.24398 0.0
O807 O 0.76166 0.76182 0.24357 0.0
H808 H 0.72786 0.75835 0.30511 0.0
H809 H 0.70609 0.75971 0.32578 0.0
H810 H 0.69379 0.8074 0.30298 0.0
H811 H 0.7158 0.80623 0.28297 0.0
H812 H 0.8401 0.78298 0.2377 0.0
H813 H 0.8599 0.77516 0.21688 0.0
H814 H 0.86791 0.73001 0.24667 0.0
H815 H 0.84806 0.73803 0.26784 0.0
Tb816 Tb 0.78368 0.26188 0.7558 0.0
Tb817 Tb 0.77796 0.27769 0.79127 0.0
C818 C 0.78532 0.25488 0.72142 0.0
C819 C 0.79186 0.26728 0.70873 0.0
C820 C 0.78041 0.27553 0.69785 0.0
C821 C 0.78665 0.28908 0.68768 0.0
C822 C 0.80439 0.29441 0.68805 0.0
C823 C 0.81586 0.28595 0.69847 0.0
C824 C 0.80964 0.27248 0.70886 0.0
C825 C 0.80879 0.26163 0.78381 0.0
C826 C 0.79584 0.30571 0.76835 0.0
C827 C 0.77661 0.28336 0.82585 0.0
C828 C 0.76801 0.27119 0.83769 0.0
C829 C 0.77522 0.2566 0.84345 0.0
C830 C 0.7667 0.24463 0.85392 0.0
C831 C 0.75087 0.24705 0.85896 0.0
C832 C 0.74352 0.26142 0.85305 0.0
C833 C 0.75201 0.27339 0.84243 0.0
C834 C 0.75261 0.27817 0.76363 0.0
C835 C 0.76607 0.23363 0.77842 0.0
O836 O 0.7714 0.25803 0.72766 0.0
O837 O 0.79674 0.25193 0.73486 0.0
O838 O 0.80124 0.27473 0.78123 0.0
O839 O 0.80234 0.24805 0.77032 0.0
O840 O 0.79091 0.29187 0.75404 0.0
O841 O 0.79384 0.30276 0.78568 0.0
O842 O 0.78962 0.27818 0.81916 0.0
O843 O 0.7665 0.28912 0.81308 0.0
O844 O 0.76033 0.26502 0.76569 0.0
O845 O 0.75886 0.29136 0.77762 0.0
O846 O 0.76918 0.2478 0.79234 0.0
O847 O 0.76949 0.23618 0.76148 0.0
H848 H 0.76666 0.2717 0.6974 0.0
H849 H 0.77757 0.29505 0.67909 0.0
H850 H 0.82954 0.28967 0.69843 0.0
H851 H 0.81876 0.26633 0.71713 0.0
H852 H 0.78752 0.25448 0.84005 0.0
H853 H 0.77294 0.23399 0.85886 0.0
H854 H 0.73146 0.26365 0.85709 0.0
H855 H 0.74614 0.28446 0.83805 0.0
Tb856 Tb 0.76512 0.75853 0.76875 0.0
Tb857 Tb 0.79915 0.78022 0.7755 0.0
C858 C 0.73642 0.73931 0.7694 0.0
C859 C 0.72099 0.74564 0.7742 0.0
C860 C 0.7216 0.75664 0.79169 0.0
C861 C 0.70725 0.76326 0.79589 0.0
C862 C 0.69202 0.75913 0.78268 0.0
C863 C 0.69154 0.74879 0.7649 0.0
C864 C 0.70594 0.74204 0.76071 0.0
C865 C 0.77344 0.77338 0.73919 0.0
C866 C 0.7677 0.8018 0.77892 0.0
C867 C 0.82754 0.79887 0.77286 0.0
C868 C 0.84292 0.79188 0.76874 0.0
C869 C 0.84671 0.79067 0.75021 0.0
C870 C 0.85983 0.78204 0.74538 0.0
C871 C 0.86953 0.77452 0.75902 0.0
C872 C 0.86586 0.7758 0.7776 0.0
C873 C 0.85266 0.78437 0.78242 0.0
C874 C 0.79086 0.76597 0.80556 0.0
C875 C 0.79681 0.73689 0.76583 0.0
O876 O 0.7494 0.74173 0.78325 0.0
O877 O 0.74123 0.74393 0.75375 0.0
O878 O 0.78311 0.76606 0.75006 0.0
O879 O 0.75856 0.77174 0.74438 0.0
O880 O 0.75798 0.78526 0.77835 0.0
O881 O 0.78419 0.80298 0.77714 0.0
O882 O 0.81453 0.79474 0.75894 0.0
O883 O 0.82277 0.79659 0.78924 0.0
O884 O 0.78106 0.77282 0.79432 0.0
O885 O 0.8059 0.76809 0.80067 0.0
O886 O 0.80678 0.75347 0.76794 0.0
O887 O 0.77999 0.73563 0.76594 0.0
H888 H 0.73315 0.76022 0.80218 0.0
H889 H 0.70802 0.77151 0.80957 0.0
H890 H 0.67989 0.74543 0.75449 0.0
H891 H 0.70532 0.734 0.74696 0.0
H892 H 0.83931 0.79614 0.73931 0.0
H893 H 0.86257 0.78156 0.73103 0.0
H894 H 0.87311 0.77003 0.78836 0.0
H895 H 0.84991 0.78479 0.79677 0.0
Tb896 Tb 0.51552 0.51279 0.51506 0.0
Tb897 Tb 0.55122 0.52718 0.53307 0.0
C898 C 0.48395 0.50958 0.50583 0.0
C899 C 0.47391 0.52407 0.50534 0.0
C900 C 0.47427 0.53641 0.52186 0.0
C901 C 0.46522 0.5505 0.52113 0.0
C902 C 0.45584 0.55258 0.50391 0.0
C903 C 0.45602 0.54084 0.48725 0.0
C904 C 0.46497 0.52656 0.48799 0.0
C905 C 0.53796 0.5098 0.49208 0.0
C906 C 0.53176 0.55597 0.51877 0.0
C907 C 0.58302 0.53157 0.54124 0.0
C908 C 0.59396 0.51814 0.54335 0.0
C909 C 0.59117 0.5022 0.52988 0.0
C910 C 0.60185 0.4897 0.53171 0.0
C911 C 0.61528 0.49288 0.54711 0.0
C912 C 0.61755 0.50825 0.56111 0.0
C913 C 0.60693 0.52092 0.55918 0.0
C914 C 0.52905 0.53027 0.55639 0.0
C915 C 0.53467 0.48386 0.52974 0.0
O916 O 0.49111 0.50741 0.52267 0.0
O917 O 0.49437 0.50931 0.49339 0.0
O918 O 0.53829 0.52317 0.50467 0.0
O919 O 0.52419 0.49754 0.49158 0.0
O920 O 0.51779 0.54299 0.5174 0.0
O921 O 0.54716 0.55246 0.52334 0.0
O922 O 0.57501 0.5311 0.52402 0.0
O923 O 0.57312 0.53302 0.55409 0.0
O924 O 0.52843 0.51691 0.54362 0.0
O925 O 0.54289 0.54243 0.55669 0.0
O926 O 0.54863 0.49715 0.53284 0.0
O927 O 0.51936 0.48689 0.52354 0.0
H928 H 0.48144 0.53518 0.53538 0.0
H929 H 0.46524 0.55958 0.53409 0.0
H930 H 0.44871 0.54226 0.47388 0.0
H931 H 0.46485 0.51742 0.47505 0.0
H932 H 0.58092 0.4995 0.51778 0.0
H933 H 0.59984 0.47771 0.52093 0.0
H934 H 0.6279 0.51078 0.57309 0.0
H935 H 0.60897 0.53298 0.56985 0.0
Tb936 Tb 0.05207 0.51946 0.01781 0.0
Tb937 Tb 0.01511 0.51782 0.03041 0.0
C938 C 0.08304 0.51662 0.01883 0.0
C939 C 0.0932 0.50203 0.0156 0.0
C940 C 0.09879 0.493 0.03058 0.0
C941 C 0.10994 0.48082 0.02829 0.0
C942 C 0.11589 0.47728 0.01095 0.0
C943 C 0.10988 0.48589 0.99576 0.0
C944 C 0.09873 0.49815 0.99808 0.0
C945 C 0.02752 0.52048 0.98781 0.0
C946 C 0.02622 0.48119 0.01481 0.0
C947 C 0.98415 0.5209 0.02863 0.0
C948 C 0.97394 0.53531 0.03241 0.0
C949 C 0.97426 0.55 0.02192 0.0
C950 C 0.96293 0.56207 0.02394 0.0
C951 C 0.95084 0.55973 0.03637 0.0
C952 C 0.95108 0.54546 0.04743 0.0
C953 C 0.96248 0.53345 0.04547 0.0
C954 C 0.03948 0.51656 0.06041 0.0
C955 C 0.04132 0.55608 0.03441 0.0
O956 O 0.07521 0.51678 0.03363 0.0
O957 O 0.07367 0.5205 0.00406 0.0
O958 O 0.02633 0.51989 0.00528 0.0
O959 O 0.04364 0.52053 0.98724 0.0
O960 O 0.04187 0.49022 0.01422 0.0
O961 O 0.01355 0.48892 0.01984 0.0
O962 O 0.99264 0.52183 0.01438 0.0
O963 O 0.99287 0.51599 0.04323 0.0
O964 O 0.04084 0.51735 0.04299 0.0
O965 O 0.02334 0.51651 0.06093 0.0
O966 O 0.02571 0.54699 0.03513 0.0
O967 O 0.05373 0.54842 0.02849 0.0
H968 H 0.095 0.49577 0.04435 0.0
H969 H 0.11444 0.47477 0.04046 0.0
H970 H 0.11395 0.48336 0.98212 0.0
H971 H 0.09478 0.50493 0.98625 0.0
H972 H 0.98297 0.55195 0.01178 0.0
H973 H 0.96353 0.57309 0.01549 0.0
H974 H 0.94196 0.54299 0.05704 0.0
H975 H 0.96188 0.52224 0.0537 0.0
H976 H 0.01547 0.21895 0.97592 0.0
H977 H 0.0194 0.19267 0.9923 0.0
H978 H 0.01899 0.1598 0.93865 0.0
H979 H 0.0149 0.18579 0.92223 0.0
H980 H 0.99812 0.15561 0.98637 0.0
H981 H 0.06425 0.15523 0.97223 0.0
H982 H 0.05438 0.17498 0.97076 0.0
H983 H 0.04906 0.156 0.95165 0.0
C984 C 0.01614 0.2061 0.96759 0.0
C985 C 0.01482 0.20454 0.94769 0.0
C986 C 0.0184 0.19108 0.97699 0.0
C987 C 0.01972 0.17427 0.96676 0.0
C988 C 0.01825 0.17266 0.94692 0.0
H989 H 0.02819 0.06392 0.98301 0.0
H990 H 0.0264 0.09338 0.97193 0.0
C991 C 0.01579 0.18755 0.93752 0.0
C992 C 0.02248 0.1583 0.97661 0.0
H993 H 0.05003 0.12879 0.9832 0.0
C994 C 0.00956 0.14989 0.98588 0.0
C995 C 0.03743 0.1508 0.97608 0.0
C996 C 0.05218 0.15978 0.96731 0.0
C997 C 0.01087 0.13379 0.99387 0.0
C998 C 0.02559 0.12598 0.99279 0.0
C999 C 0.03871 0.13468 0.98397 0.0
C1000 C 0.02717 0.1083 -0.00014 0.0
C1001 C 0.9962 0.12481 0.00275 0.0
C1002 C 0.02851 0.10688 0.01932 0.0
C1003 C 0.02966 0.09004 0.02566 0.0
C1004 C 0.02928 0.07433 0.01263 0.0
C1005 C 0.02819 0.0758 0.99327 0.0
C1006 C 0.02727 0.09263 0.98696 0.0
H1007 H 0.98456 0.13071 0.9996 0.0
H1008 H 0.99284 0.10979 0.9976 0.0
H1009 H 1.00015 0.1268 0.01837 0.0
H1010 H 0.02874 0.11881 0.02959 0.0
H1011 H 0.03075 0.08927 0.0407 0.0
H1012 H 0.10209 0.79549 0.1862 0.0
H1013 H 0.12895 0.79119 0.20407 0.0
H1014 H 0.14323 0.76799 0.15218 0.0
H1015 H 0.11666 0.77289 0.13417 0.0
H1016 H 0.14185 0.76208 0.20996 0.0
H1017 H 0.18654 0.80415 0.17261 0.0
H1018 H 0.16383 0.804 0.16916 0.0
H1019 H 0.17191 0.78566 0.15706 0.0
C1020 C 0.11103 0.78967 0.17852 0.0
C1021 C 0.10723 0.78483 0.15864 0.0
C1022 C 0.12643 0.78712 0.18882 0.0
C1023 C 0.13853 0.77962 0.17958 0.0
C1024 C 0.13456 0.77439 0.15974 0.0
H1025 H 0.24104 0.75948 0.22669 0.0
H1026 H 0.21405 0.75902 0.20531 0.0
C1027 C 0.11922 0.77711 0.1494 0.0
C1028 C 0.15505 0.77708 0.19083 0.0
H1029 H 0.19899 0.78758 0.19479 0.0
C1030 C 0.15431 0.7677 0.20658 0.0
C1031 C 0.17151 0.78422 0.18657 0.0
C1032 C 0.17356 0.79522 0.17055 0.0
C1033 C 0.1693 0.76536 0.21804 0.0
C1034 C 0.18574 0.77278 0.21396 0.0
C1035 C 0.1865 0.78178 0.19798 0.0
C1036 C 0.20218 0.7725 0.22682 0.0
C1037 C 0.16731 0.75473 0.23435 0.0
C1038 C 0.2048 0.78043 0.24598 0.0
C1039 C 0.22013 0.78069 0.25809 0.0
C1040 C 0.23353 0.77323 0.2515 0.0
C1041 C 0.23108 0.76539 0.23227 0.0
C1042 C 0.21559 0.76511 0.22005 0.0
H1043 H 0.15468 0.74509 0.23192 0.0
H1044 H 0.17764 0.7468 0.23666 0.0
H1045 H 0.16799 0.76449 0.24748 0.0
H1046 H 0.19504 0.78671 0.2516 0.0
H1047 H 0.2215 0.78697 0.27275 0.0
H1048 H 0.50164 0.80429 0.46098 0.0
H1049 H 0.50203 0.83464 0.47874 0.0
H1050 H 0.54313 0.85876 0.45123 0.0
H1051 H 0.54262 0.82876 0.43328 0.0
H1052 H 0.5288 0.86334 0.50287 0.0
H1053 H 0.50311 0.88418 0.4349 0.0
H1054 H 0.50321 0.86051 0.4374 0.0
H1055 H 0.52255 0.87558 0.43459 0.0
C1056 C 0.51096 0.81602 0.45902 0.0
C1057 C 0.52189 0.81424 0.44552 0.0
C1058 C 0.51116 0.83331 0.46914 0.0
C1059 C 0.52235 0.84893 0.46595 0.0
C1060 C 0.53416 0.84691 0.45358 0.0
H1061 H 0.54847 0.96361 0.49735 0.0
H1062 H 0.54562 0.93098 0.48715 0.0
C1063 C 0.53385 0.82976 0.44336 0.0
C1064 C 0.52083 0.86754 0.47418 0.0
H1065 H 0.51229 0.90782 0.46155 0.0
C1066 C 0.52493 0.87301 0.49391 0.0
C1067 C 0.5158 0.88008 0.4624 0.0
C1068 C 0.51077 0.87479 0.44116 0.0
C1069 C 0.52476 0.89101 0.50207 0.0
C1070 C 0.52013 0.90358 0.4902 0.0
C1071 C 0.51564 0.89799 0.47057 0.0
C1072 C 0.52175 0.92317 0.49752 0.0
C1073 C 0.53025 0.89686 0.52317 0.0
C1074 C 0.50913 0.92954 0.50671 0.0
C1075 C 0.51062 0.94841 0.51256 0.0
C1076 C 0.52481 0.96101 0.50936 0.0
C1077 C 0.53741 0.95437 0.50023 0.0
C1078 C 0.53585 0.93569 0.49434 0.0
H1079 H 0.53393 0.88556 0.53044 0.0
H1080 H 0.54135 0.90864 0.52592 0.0
H1081 H 0.51961 0.90159 0.5294 0.0
H1082 H 0.4981 0.91995 0.50913 0.0
H1083 H 0.50075 0.95311 0.51957 0.0
H1084 H 0.49313 0.26828 0.63152 0.0
H1085 H 0.46373 0.26219 0.63918 0.0
H1086 H 0.4846 0.26322 0.69783 0.0
H1087 H 0.51362 0.26908 0.6904 0.0
H1088 H 0.44746 0.23114 0.66108 0.0
H1089 H 0.45268 0.30281 0.6958 0.0
H1090 H 0.46575 0.29683 0.6784 0.0
H1091 H 0.4709 0.2927 0.70238 0.0
C1092 C 0.49141 0.26738 0.64606 0.0
C1093 C 0.50578 0.26935 0.66038 0.0
C1094 C 0.47461 0.26371 0.65038 0.0
C1095 C 0.47195 0.26226 0.66911 0.0
C1096 C 0.48629 0.26428 0.68331 0.0
H1097 H 0.39712 0.24566 0.74223 0.0
H1098 H 0.42167 0.24641 0.72533 0.0
C1099 C 0.50292 0.2677 0.67901 0.0
C1100 C 0.45443 0.2594 0.67446 0.0
H1101 H 0.43013 0.28036 0.70231 0.0
C1102 C 0.4435 0.24198 0.66979 0.0
C1103 C 0.44926 0.27348 0.6859 0.0
C1104 C 0.46016 0.29258 0.69084 0.0
C1105 C 0.42788 0.2382 0.67695 0.0
C1106 C 0.42313 0.25215 0.68902 0.0
C1107 C 0.43381 0.26964 0.69314 0.0
C1108 C 0.40755 0.24891 0.69827 0.0
C1109 C 0.41681 0.2192 0.67219 0.0
C1110 C 0.39135 0.24989 0.68865 0.0
C1111 C 0.37727 0.24969 0.69837 0.0
C1112 C 0.37909 0.24833 0.71787 0.0
C1113 C 0.39519 0.24654 0.72721 0.0
C1114 C 0.40926 0.24699 0.71756 0.0
H1115 H 0.42246 0.20967 0.66303 0.0
H1116 H 0.41498 0.2135 0.68547 0.0
H1117 H 0.40392 0.21995 0.66479 0.0
H1118 H 0.38974 0.25149 0.6738 0.0
H1119 H 0.36504 0.25093 0.69071 0.0
H1120 H 0.02219 0.80101 0.62801 0.0
H1121 H 0.03083 0.831 0.61783 0.0
H1122 H 0.08422 0.82883 0.63402 0.0
H1123 H 0.07557 0.79859 0.64336 0.0
H1124 H 0.05081 0.86207 0.6421 0.0
H1125 H 0.08206 0.84185 0.58031 0.0
H1126 H 0.06811 0.82526 0.59034 0.0
H1127 H 0.08951 0.83493 0.6025 0.0
C1128 C 0.0357 0.80684 0.62883 0.0
C1129 C 0.04829 0.79768 0.63585 0.0
C1130 C 0.04063 0.82387 0.62324 0.0
C1131 C 0.05813 0.83183 0.62506 0.0
C1132 C 0.0707 0.8226 0.63214 0.0
H1133 H 0.08508 0.93584 0.58123 0.0
H1134 H 0.09037 0.91253 0.60141 0.0
C1135 C 0.06577 0.80546 0.63738 0.0
C1136 C 0.06306 0.85017 0.62018 0.0
H1137 H 0.07923 0.87259 0.58627 0.0
C1138 C 0.05733 0.86452 0.63013 0.0
C1139 C 0.07183 0.85317 0.6048 0.0
C1140 C 0.07818 0.83801 0.59375 0.0
C1141 C 0.05894 0.88162 0.62409 0.0
C1142 C 0.06644 0.88419 0.6078 0.0
C1143 C 0.07356 0.87038 0.59885 0.0
C1144 C 0.0636 0.89924 0.59754 0.0
C1145 C 0.05156 0.89639 0.63432 0.0
C1146 C 0.04686 0.89912 0.58888 0.0
C1147 C 0.04384 0.91217 0.57749 0.0
C1148 C 0.05757 0.92541 0.57452 0.0
C1149 C 0.07435 0.92569 0.58342 0.0
C1150 C 0.07737 0.91255 0.5949 0.0
H1151 H 0.05091 0.89439 0.64927 0.0
H1152 H 0.05931 0.91024 0.63416 0.0
H1153 H 0.0383 0.89584 0.62707 0.0
H1154 H 0.0362 0.88854 0.59045 0.0
H1155 H 0.03087 0.91144 0.57038 0.0
H1156 H 0.4654 0.75471 0.83564 0.0
H1157 H 0.43378 0.74772 0.83095 0.0
H1158 H 0.43398 0.80498 0.8488 0.0
H1159 H 0.4653 0.81206 0.85248 0.0
H1160 H 0.40264 0.76622 0.85318 0.0
H1161 H 0.42285 0.78359 0.78533 0.0
H1162 H 0.43511 0.77205 0.80108 0.0
H1163 H 0.43591 0.79625 0.80687 0.0
C1164 C 0.4585 0.76565 0.83851 0.0
C1165 C 0.46719 0.78399 0.84316 0.0
C1166 C 0.4407 0.76158 0.83652 0.0
C1167 C 0.43191 0.77589 0.83964 0.0
C1168 C 0.44081 0.79386 0.84654 0.0
H1169 H 0.33491 0.80496 0.81106 0.0
H1170 H 0.36336 0.80236 0.82668 0.0
C1171 C 0.45848 0.79797 0.84797 0.0
C1172 C 0.41469 0.77397 0.82962 0.0
H1173 H 0.39529 0.78704 0.79018 0.0
C1174 C 0.40074 0.77024 0.83919 0.0
C1175 C 0.41265 0.77918 0.8114 0.0
C1176 C 0.42739 0.7829 0.80047 0.0
C1177 C 0.38452 0.77229 0.83098 0.0
C1178 C 0.3829 0.77901 0.81345 0.0
C1179 C 0.39681 0.7821 0.80376 0.0
C1180 C 0.36674 0.78206 0.80405 0.0
C1181 C 0.36938 0.76729 0.84096 0.0
C1182 C 0.3604 0.77279 0.78566 0.0
C1183 C 0.3449 0.77501 0.77645 0.0
C1184 C 0.33535 0.78598 0.78584 0.0
C1185 C 0.34225 0.79649 0.80363 0.0
C1186 C 0.35812 0.7946 0.81273 0.0
H1187 H 0.37204 0.7583 0.85173 0.0
H1188 H 0.36647 0.77999 0.84834 0.0
H1189 H 0.3578 0.76016 0.83063 0.0
H1190 H 0.36718 0.76333 0.7787 0.0
H1191 H 0.33971 0.76693 0.76262 0.0
H1192 H 0.5443 0.17457 0.1639 0.0
H1193 H 0.54278 0.14769 0.13985 0.0
H1194 H 0.55387 0.18354 0.09862 0.0
H1195 H 0.55514 0.21023 0.12227 0.0
H1196 H 0.51851 0.14281 0.10204 0.0
H1197 H 0.58763 0.14547 0.0977 0.0
H1198 H 0.58034 0.15521 0.11861 0.0
H1199 H 0.58063 0.16703 0.0984 0.0
C1200 C 0.54651 0.17657 0.14971 0.0
C1201 C 0.54953 0.1942 0.14463 0.0
C1202 C 0.54569 0.16137 0.13615 0.0
C1203 C 0.54832 0.16395 0.11775 0.0
C1204 C 0.55193 0.18155 0.11289 0.0
H1205 H 0.53153 0.08547 0.01287 0.0
H1206 H 0.53534 0.11512 0.03383 0.0
C1207 C 0.55247 0.19665 0.12628 0.0
C1208 C 0.54593 0.14831 0.10293 0.0
H1209 H 0.56733 0.12536 0.07359 0.0
C1210 C 0.52912 0.13893 0.09575 0.0
C1211 C 0.55993 0.14367 0.09495 0.0
C1212 C 0.5782 0.15325 0.10285 0.0
C1213 C 0.52591 0.12467 0.08054 0.0
C1214 C 0.53991 0.12006 0.07253 0.0
C1215 C 0.5567 0.12954 0.0796 0.0
C1216 C 0.53778 0.10307 0.05965 0.0
C1217 C 0.50778 0.11415 0.07354 0.0
C1218 C 0.53834 0.08712 0.06762 0.0
C1219 C 0.53656 0.07063 0.05598 0.0
C1220 C 0.53391 0.06985 0.03617 0.0
C1221 C 0.53357 0.08591 0.02813 0.0
C1222 C 0.53563 0.10265 0.03995 0.0
H1223 H 0.49815 0.12131 0.07918 0.0
H1224 H 0.50503 0.112 0.05779 0.0
H1225 H 0.50635 0.10041 0.07814 0.0
H1226 H 0.54007 0.08746 0.08288 0.0
H1227 H 0.53684 0.05845 0.06259 0.0
H1228 H 0.07439 0.31507 0.3637 0.0
H1229 H 0.09847 0.31526 0.34607 0.0
H1230 H 0.07718 0.25894 0.32058 0.0
H1231 H 0.05265 0.25918 0.33726 0.0
H1232 H 0.12105 0.29329 0.34966 0.0
H1233 H 0.08787 0.28156 0.27501 0.0
H1234 H 0.07754 0.28827 0.29477 0.0
H1235 H 0.07917 0.26468 0.28857 0.0
C1236 C 0.07495 0.30286 0.35419 0.0
C1237 C 0.06206 0.28709 0.35162 0.0
C1238 C 0.08849 0.30301 0.34411 0.0
C1239 C 0.08923 0.28726 0.33178 0.0
C1240 C 0.0764 0.2714 0.32952 0.0
H1241 H 0.16085 0.24207 0.27664 0.0
H1242 H 0.13568 0.2504 0.28824 0.0
C1243 C 0.06263 0.27144 0.33916 0.0
C1244 C 0.10426 0.28682 0.32264 0.0
H1245 H 0.11668 0.27633 0.28005 0.0
C1246 C 0.12023 0.28994 0.33441 0.0
C1247 C 0.10284 0.28223 0.3028 0.0
C1248 C 0.08593 0.27916 0.28956 0.0
C1249 C 0.13494 0.28782 0.32688 0.0
C1250 C 0.13351 0.28291 0.30706 0.0
C1251 C 0.1176 0.28026 0.29524 0.0
C1252 C 0.14809 0.27876 0.29852 0.0
C1253 C 0.15163 0.28991 0.3403 0.0
C1254 C 0.16307 0.29216 0.30018 0.0
C1255 C 0.17749 0.28736 0.29381 0.0
C1256 C 0.17677 0.26927 0.28538 0.0
C1257 C 0.16148 0.25615 0.28289 0.0
C1258 C 0.14721 0.26087 0.28951 0.0
H1259 H 0.14959 0.28966 0.35524 0.0
H1260 H 0.15852 0.27881 0.33624 0.0
H1261 H 0.16 0.30327 0.33968 0.0
H1262 H 0.16374 0.3061 0.30685 0.0
H1263 H 0.18926 0.29761 0.29577 0.0
H1264 H 0.93306 0.99066 0.18203 0.0
H1265 H 0.9484 0.99388 0.15512 0.0
H1266 H 0.9909 0.0309 0.19201 0.0
H1267 H 0.97602 0.02684 0.21908 0.0
H1268 H 0.95757 0.02218 0.13931 0.0
H1269 H 0.01719 0.99923 0.16535 0.0
H1270 H 0.99878 0.99634 0.17732 0.0
H1271 H 0.01368 0.01809 0.18119 0.0
C1272 C 0.94575 0.99933 0.18439 0.0
C1273 C 0.95339 0.00843 0.20263 0.0
C1274 C 0.95453 1.00116 0.16903 0.0
C1275 C 0.971 0.01236 0.17153 0.0
C1276 C 0.97851 0.02167 0.18975 0.0
H1277 H 0.03481 0.05288 0.09119 0.0
H1278 H 0.0213 0.04825 0.11925 0.0
C1279 C 0.96991 0.01949 0.2052 0.0
C1280 C 0.97975 0.01507 0.15486 0.0
H1281 H 0.01739 0.01407 0.13785 0.0
C1282 C 0.9706 0.02023 0.13899 0.0
C1283 C 0.99681 0.01263 0.15439 0.0
C1284 C 0.00711 0.00609 0.17041 0.0
C1285 C 0.97801 0.02314 0.1228 0.0
C1286 C 0.99505 0.02087 0.12244 0.0
C1287 C 0.00432 0.01585 0.13827 0.0
C1288 C 1.00333 0.02349 0.10558 0.0
C1289 C 0.96766 0.02882 0.10624 0.0
C1290 C 0.99773 0.01102 0.0887 0.0
C1291 C 0.00545 0.01357 0.07272 0.0
C1292 C 0.01881 0.02872 0.07331 0.0
C1293 C 0.02438 0.04121 0.09024 0.0
C1294 C 0.01677 0.03854 0.1063 0.0
H1295 H 0.95598 0.03336 0.1101 0.0
H1296 H 0.97555 0.04014 0.10074 0.0
H1297 H 0.96356 0.01697 0.09461 0.0
H1298 H 0.98748 0.99922 0.08796 0.0
H1299 H 1.00111 1.00356 0.05998 0.0
H1300 H 0.3372 0.71689 0.49174 0.0
H1301 H 0.31685 0.72885 0.47021 0.0
H1302 H 0.2817 0.6765 0.46078 0.0
H1303 H 0.3019 0.66432 0.48151 0.0
H1304 H 0.30362 0.70823 0.43068 0.0
H1305 H 0.25312 0.71893 0.47425 0.0
H1306 H 0.27522 0.71994 0.48452 0.0
H1307 H 0.26129 0.69814 0.47543 0.0
C1308 C 0.32541 0.70782 0.48446 0.0
C1309 C 0.32141 0.68956 0.4877 0.0
C1310 C 0.31366 0.71477 0.47274 0.0
C1311 C 0.29773 0.7036 0.46459 0.0
C1312 C 0.29386 0.68531 0.4674 0.0
H1313 H 0.24159 0.71183 0.35863 0.0
H1314 H 0.24706 0.69796 0.38732 0.0
C1315 C 0.30568 0.67825 0.47872 0.0
C1316 C 0.28618 0.70993 0.45063 0.0
H1317 H 0.24644 0.72003 0.44122 0.0
C1318 C 0.29115 0.71093 0.43293 0.0
C1319 C 0.27 0.71324 0.45393 0.0
C1320 C 0.26454 0.71266 0.4731 0.0
C1321 C 0.28021 0.71504 0.41806 0.0
C1322 C 0.26374 0.71786 0.42106 0.0
C1323 C 0.25887 0.71725 0.43896 0.0
C1324 C 0.25264 0.72385 0.40623 0.0
C1325 C 0.28658 0.71666 0.39942 0.0
C1326 C 0.25217 0.74254 0.40792 0.0
C1327 C 0.24891 0.75042 0.39167 0.0
C1328 C 0.2463 0.73961 0.37374 0.0
C1329 C 0.24373 0.7204 0.37236 0.0
C1330 C 0.24687 0.71249 0.38868 0.0
H1331 H 0.30061 0.71706 0.40069 0.0
H1332 H 0.27986 0.70461 0.38877 0.0
H1333 H 0.28386 0.72926 0.394 0.0
H1334 H 0.25661 0.75143 0.42143 0.0
H1335 H 0.251 0.76527 0.39312 0.0
H1336 H 0.61018 0.01254 0.73804 0.0
H1337 H 0.59438 0.01686 0.70752 0.0
H1338 H 0.63229 0.99704 0.67832 0.0
H1339 H 0.64826 0.99315 0.70871 0.0
H1340 H 0.60444 0.03841 0.67752 0.0
H1341 H 0.58624 0.96428 0.64892 0.0
H1342 H 0.59294 0.97271 0.67394 0.0
H1343 H 0.60866 0.97238 0.65845 0.0
C1344 C 0.61518 0.00899 0.72515 0.0
C1345 C 0.63062 1.00223 0.72623 0.0
C1346 C 0.60608 0.01158 0.70751 0.0
C1347 C 0.61174 0.00709 0.69004 0.0
C1348 C 0.6272 1.00044 0.69118 0.0
H1349 H 0.57109 1.00481 0.56611 0.0
H1350 H 0.58883 1.00319 0.59663 0.0
C1351 C 0.63647 0.99823 0.7088 0.0
C1352 C 0.60166 0.00915 0.67076 0.0
H1353 H 0.58072 0.98469 0.62738 0.0
C1354 C 0.59925 0.02657 0.66667 0.0
C1355 C 0.5946 0.99398 0.6561 0.0
C1356 C 0.59554 0.97472 0.6595 0.0
C1357 C 0.59059 0.02917 0.64872 0.0
C1358 C 0.58365 0.01397 0.63397 0.0
C1359 C 0.58602 0.99657 0.63815 0.0
C1360 C 0.57328 0.01571 0.61468 0.0
C1361 C 0.58937 0.04845 0.64561 0.0
C1362 C 0.55833 0.0232 0.61386 0.0
C1363 C 0.54814 0.02403 0.59636 0.0
C1364 C 0.55232 0.01766 0.57855 0.0
C1365 C 0.56744 0.01035 0.5792 0.0
C1366 C 0.57758 0.00924 0.59689 0.0
H1367 H 0.59931 0.05883 0.65557 0.0
H1368 H 0.5908 0.05047 0.63084 0.0
H1369 H 0.57659 0.05097 0.6481 0.0
H1370 H 0.55412 0.02799 0.6269 0.0
H1371 H 0.5366 0.02954 0.59684 0.0
H1372 H 0.30433 0.37732 0.96568 0.0
H1373 H 0.30328 0.35795 0.93546 0.0
H1374 H 0.26998 0.31365 0.95337 0.0
H1375 H 0.27131 0.33304 0.98412 0.0
H1376 H 0.312 0.31861 0.93411 0.0
H1377 H 0.24831 0.32553 0.89683 0.0
H1378 H 0.26073 0.34287 0.91581 0.0
H1379 H 0.25037 0.32126 0.92111 0.0
C1380 C 0.29677 0.36345 0.96315 0.0
C1381 C 0.28797 0.35654 0.97711 0.0
C1382 C 0.29617 0.35247 0.94595 0.0
C1383 C 0.28649 0.33453 0.9423 0.0
C1384 C 0.27747 0.32755 0.95608 0.0
H1385 H 0.2699 0.26103 0.83564 0.0
H1386 H 0.26986 0.27347 0.86871 0.0
C1387 C 0.27833 0.3385 0.97356 0.0
C1388 C 0.28673 0.32304 0.9243 0.0
H1389 H 0.26481 0.30905 0.87932 0.0
C1390 C 0.30163 0.31627 0.92215 0.0
C1391 C 0.2732 0.32032 0.90885 0.0
C1392 C 0.2572 0.32788 0.91057 0.0
C1393 C 0.30345 0.30689 0.90473 0.0
C1394 C 0.29008 0.30445 0.88913 0.0
C1395 C 0.275 0.31092 0.8914 0.0
C1396 C 0.29161 0.29568 0.87015 0.0
C1397 C 0.31967 0.29973 0.90313 0.0
C1398 C 0.30417 0.30384 0.8603 0.0
C1399 C 0.30441 0.29654 0.84156 0.0
C1400 C 0.29186 0.2813 0.83245 0.0
C1401 C 0.27971 0.27279 0.84252 0.0
C1402 C 0.27962 0.2799 0.86129 0.0
H1403 H 0.32665 0.29867 0.91727 0.0
H1404 H 0.31679 0.28603 0.89416 0.0
H1405 H 0.32832 0.30933 0.89639 0.0
H1406 H 0.31327 0.31628 0.8668 0.0
H1407 H 0.31365 0.30351 0.83385 0.0
H1408 H 0.93807 0.01244 0.31756 0.0
H1409 H 0.94685 0.01827 0.35211 0.0
H1410 H 0.99883 0.01518 0.34511 0.0
H1411 H 0.99016 0.00913 0.31068 0.0
H1412 H 0.9619 0.99121 0.37037 0.0
H1413 H 0.00363 0.06066 0.38695 0.0
H1414 H 0.9876 0.05341 0.36581 0.0
H1415 H 0.00803 0.04658 0.36682 0.0
C1416 C 0.95143 0.01337 0.32341 0.0
C1417 C 0.96344 0.01013 0.31154 0.0
C1418 C 0.9564 0.01673 0.34307 0.0
C1419 C 0.97347 0.01731 0.35098 0.0
C1420 C 0.98564 0.01504 0.33914 0.0
H1421 H 0.03668 0.00667 0.45189 0.0
H1422 H 0.0224 0.0062 0.4192 0.0
C1423 C 0.98065 0.01141 0.31954 0.0
C1424 C 0.97828 0.01764 0.37145 0.0
H1425 H 0.00731 0.04041 0.40982 0.0
C1426 C 0.97157 1.00211 0.37917 0.0
C1427 C 0.99092 0.03188 0.38269 0.0
C1428 C 0.99787 0.04918 0.37522 0.0
C1429 C 0.97792 1.00002 0.39769 0.0
C1430 C 0.99113 0.01386 0.40856 0.0
C1431 C 0.99731 0.02974 0.40117 0.0
C1432 C 0.99888 0.01213 0.42769 0.0
C1433 C 0.97102 0.98279 0.40531 0.0
C1434 C 0.99015 0.01541 0.44289 0.0
C1435 C 0.99831 0.01591 0.46134 0.0
C1436 C 0.01514 0.01297 0.46462 0.0
C1437 C 0.02364 0.0089 0.44941 0.0
C1438 C 0.01555 0.00865 0.43093 0.0
H1439 H 0.96202 0.97249 0.39429 0.0
H1440 H 0.98177 0.9765 0.41103 0.0
H1441 H 0.96412 0.98633 0.41716 0.0
H1442 H 0.9773 0.0182 0.44051 0.0
H1443 H 0.99164 0.01901 0.47308 0.0
H1444 H 0.3014 0.66884 0.59747 0.0
H1445 H 0.29757 0.68104 0.62892 0.0
H1446 H 0.30822 0.7362 0.61551 0.0
H1447 H 0.31198 0.72405 0.58339 0.0
H1448 H 0.32573 0.70851 0.65324 0.0
H1449 H 0.26164 0.72763 0.63906 0.0
H1450 H 0.26866 0.71121 0.62287 0.0
H1451 H 0.27687 0.73534 0.62412 0.0
C1452 C 0.30273 0.68358 0.60107 0.0
C1453 C 0.30697 0.69567 0.58823 0.0
C1454 C 0.30055 0.6904 0.61893 0.0
C1455 C 0.30261 0.70927 0.62398 0.0
C1456 C 0.30657 0.7215 0.6113 0.0
H1457 H 0.31386 0.78176 0.72269 0.0
H1458 H 0.32171 0.76137 0.69748 0.0
C1459 C 0.30881 0.71465 0.59326 0.0
C1460 C 0.30177 0.71614 0.64315 0.0
H1461 H 0.27755 0.737 0.67007 0.0
C1462 C 0.31521 0.71467 0.65714 0.0
C1463 C 0.28775 0.72361 0.64756 0.0
C1464 C 0.27281 0.72445 0.63266 0.0
C1465 C 0.31523 0.7213 0.67598 0.0
C1466 C 0.30159 0.72949 0.68029 0.0
C1467 C 0.28793 0.7305 0.66631 0.0
C1468 C 0.30144 0.73841 0.69899 0.0
C1469 C 0.32966 0.71978 0.6911 0.0
C1470 C 0.28768 0.73178 0.70778 0.0
C1471 C 0.28255 0.74359 0.72097 0.0
C1472 C 0.29182 0.76166 0.72616 0.0
C1473 C 0.30656 0.76783 0.71858 0.0
C1474 C 0.31132 0.75615 0.70475 0.0
H1475 H 0.33786 0.71052 0.68568 0.0
H1476 H 0.3378 0.73361 0.69631 0.0
H1477 H 0.32443 0.71459 0.70336 0.0
H1478 H 0.27988 0.71814 0.70299 0.0
H1479 H 0.27116 0.73864 0.72684 0.0
H1480 H 0.6544 0.01993 0.85965 0.0
H1481 H 0.64265 0.02354 0.8897 0.0
H1482 H 0.59133 0.00858 0.85811 0.0
H1483 H 0.60287 0.00513 0.82851 0.0
H1484 H 0.61935 0.04697 0.90319 0.0
H1485 H 0.58909 0.97368 0.89763 0.0
H1486 H 0.60554 0.98145 0.88404 0.0
H1487 H 0.58366 0.98324 0.87646 0.0
C1488 C 0.64062 0.01691 0.85912 0.0
C1489 C 0.6297 0.01162 0.84133 0.0
C1490 C 0.63383 0.01927 0.87643 0.0
C1491 C 0.61588 0.01619 0.87663 0.0
C1492 C 0.60513 0.01083 0.85885 0.0
H1493 H 0.53965 0.01622 0.95352 0.0
H1494 H 0.55602 0.01548 0.9273 0.0
C1495 C 0.61184 0.00874 0.84172 0.0
C1496 C 0.60807 0.01824 0.89496 0.0
H1497 H 0.57977 0.99454 0.91962 0.0
C1498 C 0.6109 0.03539 0.90686 0.0
C1499 C 0.59682 1.0034 0.90018 0.0
C1500 C 0.59368 0.98435 0.88905 0.0
C1501 C 0.60253 0.03807 0.92302 0.0
C1502 C 0.59099 0.02322 0.92793 0.0
C1503 C 0.58842 0.0061 0.91618 0.0
C1504 C 0.58104 0.02504 0.94464 0.0
C1505 C 0.60553 0.05705 0.93427 0.0
C1506 C 0.58926 0.03076 0.96373 0.0
C1507 C 0.57976 0.03108 0.97906 0.0
C1508 C 0.56163 0.02579 0.97596 0.0
C1509 C 0.55349 0.02043 0.95684 0.0
C1510 C 0.56295 0.01997 0.94162 0.0
H1511 H 0.61165 0.06775 0.92655 0.0
H1512 H 0.59323 0.06038 0.93764 0.0
H1513 H 0.61413 0.05759 0.94788 0.0
H1514 H 0.60313 0.03452 0.96691 0.0
H1515 H 0.58671 0.03525 0.99341 0.0
H1516 H 0.2674 0.33447 0.07811 0.0
H1517 H 0.26321 0.31893 0.10564 0.0
H1518 H 0.31461 0.3452 0.13295 0.0
H1519 H 0.31826 0.36182 0.10606 0.0
H1520 H 0.27624 0.2953 0.12178 0.0
H1521 H 0.29125 0.3578 0.17544 0.0
H1522 H 0.2889 0.35893 0.15038 0.0
H1523 H 0.30899 0.3561 0.16321 0.0
C1524 C 0.27778 0.33697 0.09006 0.0
C1525 C 0.29311 0.34952 0.09003 0.0
C1526 C 0.27537 0.32807 0.10583 0.0
C1527 C 0.28838 0.33122 0.12182 0.0
C1528 C 0.30403 0.34309 0.12131 0.0
H1529 H 0.30482 0.2894 0.22854 0.0
H1530 H 0.30663 0.30408 0.20014 0.0
C1531 C 0.30622 0.35244 0.10581 0.0
C1532 C 0.28566 0.32191 0.1388 0.0
H1533 H 0.29049 0.32942 0.18732 0.0
C1534 C 0.27924 0.30283 0.13608 0.0
C1535 C 0.28933 0.33161 0.1576 0.0
C1536 C 0.29481 0.35226 0.16181 0.0
C1537 C 0.27703 0.29319 0.15149 0.0
C1538 C 0.28131 0.30283 0.17029 0.0
C1539 C 0.28741 0.32192 0.17299 0.0
C1540 C 0.28004 0.29349 0.18742 0.0
C1541 C 0.27059 0.27266 0.14744 0.0
C1542 C 0.26448 0.28272 0.19 0.0
C1543 C 0.26355 0.27409 0.20619 0.0
C1544 C 0.27804 0.27643 0.22037 0.0
C1545 C 0.29345 0.28747 0.21798 0.0
C1546 C 0.29448 0.29583 0.20167 0.0
H1547 H 0.27227 0.26681 0.13302 0.0
H1548 H 0.27735 0.26568 0.15801 0.0
H1549 H 0.25667 0.26954 0.14817 0.0
H1550 H 0.25299 0.28114 0.17963 0.0
H1551 H 0.2514 0.26591 0.20783 0.0
H1552 H 0.20927 0.91214 0.97691 0.0
H1553 H 0.1879 0.92673 0.99103 0.0
H1554 H 0.18333 0.8867 0.02937 0.0
H1555 H 0.2041 0.87183 0.01493 0.0
H1556 H 0.15093 0.90137 0.00647 0.0
H1557 H 0.20617 0.95024 0.05284 0.0
H1558 H 0.20788 0.94206 0.02867 0.0
H1559 H 0.20703 0.92647 0.04565 0.0
C1560 C 0.20296 0.90607 0.98768 0.0
C1561 C 0.20773 0.89094 0.99482 0.0
C1562 C 0.19109 0.91442 0.99582 0.0
C1563 C 0.18454 0.9077 0.01123 0.0
C1564 C 0.1884 0.89179 0.0174 0.0
H1565 H 0.11923 0.96885 0.07121 0.0
H1566 H 0.13814 0.94645 0.06795 0.0
C1567 C 0.19996 0.88328 0.00905 0.0
C1568 C 0.1746 0.91811 0.02182 0.0
H1569 H 0.17847 0.95677 0.05348 0.0
C1570 C 0.1568 0.91322 0.01713 0.0
C1571 C 0.18271 0.93331 0.03567 0.0
C1572 C 0.20201 0.93842 0.04115 0.0
C1573 C 0.14663 0.92417 0.02513 0.0
C1574 C 0.15471 0.94009 0.03806 0.0
C1575 C 0.17252 0.94428 0.04374 0.0
C1576 C 0.14533 0.95451 0.04186 0.0
C1577 C 0.12749 0.91965 0.01842 0.0
C1578 C 0.14369 0.96621 0.02833 0.0
C1579 C 0.13296 0.97858 0.03 0.0
C1580 C 0.12396 0.9794 0.0453 0.0
C1581 C 0.12618 0.96824 0.05935 0.0
C1582 C 0.13688 0.95564 0.05756 0.0
H1583 H 0.12304 0.90524 0.01116 0.0
H1584 H 0.12053 0.92184 0.03054 0.0
H1585 H 0.12412 0.92894 0.00824 0.0
H1586 H 0.15023 0.96527 0.01613 0.0
H1587 H 0.13146 0.98731 0.01919 0.0
H1588 H 0.71658 0.63843 0.03686 0.0
H1589 H 0.68882 0.6208 0.04133 0.0
H1590 H 0.6777 0.59927 0.98156 0.0
H1591 H 0.70593 0.6158 0.97748 0.0
H1592 H 0.65697 0.62032 0.03003 0.0
H1593 H 0.66697 0.55239 0.0003 0.0
H1594 H 0.68404 0.57242 0.00497 0.0
H1595 H 0.66884 0.56769 0.98313 0.0
C1596 C 0.70821 0.62977 0.02473 0.0
C1597 C 0.7135 0.6283 0.00685 0.0
C1598 C 0.69229 0.61971 0.02728 0.0
C1599 C 0.68111 0.60813 0.01192 0.0
C1600 C 0.68621 0.60734 0.99389 0.0
H1601 H 0.57964 0.53991 0.98543 0.0
H1602 H 0.60788 0.55927 0.98681 0.0
C1603 C 0.70232 0.61696 0.99148 0.0
C1604 C 0.6641 0.59713 0.01458 0.0
H1605 H 0.63797 0.55446 0.00283 0.0
C1606 C 0.65291 0.60587 0.02421 0.0
C1607 C 0.65868 0.57811 0.0074 0.0
C1608 C 0.67036 0.56708 0.99858 0.0
C1609 C 0.63632 0.5965 0.02587 0.0
C1610 C 0.6306 0.57775 0.01773 0.0
C1611 C 0.64205 0.56888 0.00878 0.0
C1612 C 0.61265 0.56715 0.01733 0.0
C1613 C 0.62489 0.60701 0.0358 0.0
C1614 C 0.60547 0.56512 0.03398 0.0
C1615 C 0.589 0.5542 0.03313 0.0
C1616 C 0.57948 0.54478 0.01566 0.0
C1617 C 0.58659 0.54701 0.9991 0.0
C1618 C 0.60284 0.55805 -9e-05 0.0
H1619 H 0.62939 0.6221 0.03699 0.0
H1620 H 0.61144 0.60327 0.02823 0.0
H1621 H 0.62503 0.6036 0.05038 0.0
H1622 H 0.61279 0.57149 0.0477 0.0
H1623 H 0.58403 0.55253 0.0462 0.0
H1624 H 0.67985 0.49908 0.26591 0.0
H1625 H 0.69189 0.47245 0.25596 0.0
H1626 H 0.65721 0.43893 0.2846 0.0
H1627 H 0.64455 0.46544 0.29386 0.0
H1628 H 0.7086 0.45432 0.27811 0.0
H1629 H 0.65247 0.4051 0.23568 0.0
H1630 H 0.65223 0.42911 0.24225 0.0
H1631 H 0.64863 0.41326 0.25887 0.0
C1632 C 0.67477 0.48602 0.27007 0.0
C1633 C 0.66142 0.48436 0.28087 0.0
C1634 C 0.68157 0.47078 0.26424 0.0
C1635 C 0.6753 0.4536 0.26926 0.0
C1636 C 0.66193 0.45189 0.28006 0.0
H1637 H 0.70901 0.35329 0.27727 0.0
H1638 H 0.69284 0.37767 0.27422 0.0
C1639 C 0.65488 0.4671 0.2856 0.0
C1640 C 0.68395 0.43805 0.26479 0.0
H1641 H 0.67706 0.39264 0.24608 0.0
C1642 C 0.70174 0.4409 0.27085 0.0
C1643 C 0.67499 0.42056 0.25529 0.0
C1644 C 0.65606 0.41685 0.24747 0.0
C1645 C 0.71071 0.4266 0.26851 0.0
C1646 C 0.70169 0.40894 0.25952 0.0
C1647 C 0.68396 0.40618 0.25294 0.0
C1648 C 0.71015 0.39288 0.25852 0.0
C1649 C 0.72962 0.43043 0.27657 0.0
C1650 C 0.72482 0.39284 0.2499 0.0
C1651 C 0.73435 0.3791 0.252 0.0
C1652 C 0.7292 0.36499 0.26251 0.0
C1653 C 0.71364 0.36423 0.2696 0.0
C1654 C 0.70427 0.37807 0.2677 0.0
H1655 H 0.73358 0.44342 0.28678 0.0
H1656 H 0.73299 0.41905 0.28391 0.0
H1657 H 0.73718 0.43178 0.26484 0.0
H1658 H 0.72932 0.40386 0.24227 0.0
H1659 H 0.74622 0.38012 0.24628 0.0
H1660 H 0.80812 0.37655 0.47201 0.0
H1661 H 0.83721 0.39481 0.47563 0.0
H1662 H 0.83959 0.40394 0.53636 0.0
H1663 H 0.81044 0.38608 0.53277 0.0
H1664 H 0.83394 0.4319 0.49617 0.0
H1665 H 0.89114 0.40597 0.52601 0.0
H1666 H 0.87254 0.39101 0.51128 0.0
H1667 H 0.87156 0.39968 0.53538 0.0
C1668 C 0.81529 0.38144 0.48617 0.0
C1669 C 0.80709 0.38041 0.50211 0.0
C1670 C 0.83185 0.39191 0.48822 0.0
C1671 C 0.8403 0.40084 0.50623 0.0
C1672 C 0.83323 0.39705 0.52238 0.0
H1673 H 0.92575 0.491 0.54272 0.0
H1674 H 0.89847 0.47071 0.54405 0.0
C1675 C 0.81659 0.38686 0.52032 0.0
C1676 C 0.85316 0.4178 0.50781 0.0
H1677 H 0.89483 0.43774 0.52483 0.0
C1678 C 0.84733 0.43323 0.5023 0.0
C1679 C 0.87032 0.41943 0.51633 0.0
C1680 C 0.8769 0.40316 0.52255 0.0
C1681 C 0.85833 0.45042 0.50511 0.0
C1682 C 0.87567 0.45203 0.51323 0.0
C1683 C 0.88144 0.43655 0.51885 0.0
C1684 C 0.88862 0.46893 0.51416 0.0
C1685 C 0.85115 0.46665 0.49959 0.0
C1686 C 0.8914 0.47574 0.4973 0.0
C1687 C 0.90667 0.48771 0.49671 0.0
C1688 C 0.91944 0.49254 0.51283 0.0
C1689 C 0.91591 0.48747 0.5302 0.0
C1690 C 0.90045 0.4758 0.5309 0.0
H1691 H 0.8373 0.46486 0.50072 0.0
H1692 H 0.85813 0.47968 0.50859 0.0
H1693 H 0.85232 0.46773 0.48457 0.0
H1694 H 0.88268 0.47034 0.48414 0.0
H1695 H 0.90934 0.49127 0.48312 0.0
H1696 H 0.34824 0.07309 0.25708 0.0
H1697 H 0.33354 0.0993 0.25761 0.0
H1698 H 0.38057 0.13489 0.25238 0.0
H1699 H 0.39529 0.10882 0.2521 0.0
H1700 H 0.33643 0.13175 0.28107 0.0
H1701 H 0.34906 0.15128 0.21225 0.0
H1702 H 0.3525 0.12974 0.21923 0.0
H1703 H 0.36845 0.15043 0.22758 0.0
C1704 C 0.35557 0.08644 0.25599 0.0
C1705 C 0.37328 0.0883 0.25458 0.0
C1706 C 0.34702 0.10171 0.25633 0.0
C1707 C 0.3555 0.11972 0.25482 0.0
C1708 C 0.37316 0.12151 0.25325 0.0
H1709 H 0.32994 0.2329 0.25973 0.0
H1710 H 0.34319 0.20563 0.25689 0.0
C1711 C 0.38178 0.10634 0.25323 0.0
C1712 C 0.34621 0.13645 0.25539 0.0
H1713 H 0.33888 0.17313 0.23244 0.0
C1714 C 0.33699 0.14062 0.27027 0.0
C1715 C 0.34636 0.14857 0.24149 0.0
C1716 C 0.35444 0.14473 0.22412 0.0
C1717 C 0.32887 0.15625 0.27198 0.0
C1718 C 0.32932 0.16861 0.2583 0.0
C1719 C 0.33834 0.16429 0.24327 0.0
C1720 C 0.32069 0.18583 0.25945 0.0
C1721 C 0.32028 0.15968 0.28906 0.0
C1722 C 0.30319 0.18473 0.26146 0.0
C1723 C 0.29545 0.20052 0.26293 0.0
C1724 C 0.30467 0.21852 0.26253 0.0
C1725 C 0.3221 0.21963 0.26022 0.0
C1726 C 0.32981 0.20376 0.25855 0.0
H1727 H 0.32514 0.15265 0.30079 0.0
H1728 H 0.32234 0.1746 0.2944 0.0
H1729 H 0.30627 0.15422 0.28502 0.0
H1730 H 0.29527 0.17147 0.26176 0.0
H1731 H 0.28206 0.19855 0.26456 0.0
H1732 H 0.32375 0.14091 0.49751 0.0
H1733 H 0.35285 0.13394 0.50206 0.0
H1734 H 0.34377 0.11395 0.55413 0.0
H1735 H 0.31497 0.12042 0.54959 0.0
H1736 H 0.3831 0.14263 0.5366 0.0
H1737 H 0.3508 0.06917 0.51646 0.0
H1738 H 0.34025 0.08765 0.51089 0.0
H1739 H 0.34265 0.08215 0.53459 0.0
C1740 C 0.32806 0.13518 0.50999 0.0
C1741 C 0.31682 0.1307 0.52287 0.0
C1742 C 0.34471 0.13132 0.51264 0.0
C1743 C 0.35039 0.12319 0.52833 0.0
C1744 C 0.33961 0.11999 0.54181 0.0
H1745 H 0.42697 0.05947 0.55779 0.0
H1746 H 0.40424 0.07704 0.55777 0.0
C1747 C 0.32305 0.12357 0.53908 0.0
C1748 C 0.36653 0.11589 0.52972 0.0
H1749 H 0.38049 0.07536 0.52794 0.0
C1750 C 0.3826 0.12794 0.53454 0.0
C1751 C 0.36586 0.09673 0.52729 0.0
C1752 C 0.349 0.08311 0.52189 0.0
C1753 C 0.39798 0.12123 0.53734 0.0
C1754 C 0.39725 0.102 0.53485 0.0
C1755 C 0.38114 0.09008 0.52992 0.0
C1756 C 0.41284 0.09363 0.53702 0.0
C1757 C 0.4148 0.13477 0.54354 0.0
C1758 C 0.42563 0.09732 0.52571 0.0
C1759 C 0.4389 0.08741 0.52589 0.0
C1760 C 0.43961 0.07338 0.53719 0.0
C1761 C 0.42712 0.07024 0.54904 0.0
C1762 C 0.41395 0.08023 0.54895 0.0
H1763 H 0.41287 0.14827 0.55023 0.0
H1764 H 0.42369 0.1295 0.55375 0.0
H1765 H 0.42101 0.13704 0.53094 0.0
H1766 H 0.42498 0.10732 0.51612 0.0
H1767 H 0.4484 0.0905 0.51681 0.0
H1768 H 0.68201 0.57793 0.27524 0.0
H1769 H 0.70246 0.6052 0.27078 0.0
H1770 H 0.67495 0.64015 0.30136 0.0
H1771 H 0.65427 0.61305 0.30541 0.0
H1772 H 0.69091 0.63893 0.25359 0.0
H1773 H 0.72928 0.65328 0.32629 0.0
H1774 H 0.71762 0.63055 0.31562 0.0
H1775 H 0.70623 0.6475 0.32426 0.0
C1776 C 0.68055 0.59143 0.28129 0.0
C1777 C 0.66673 0.59343 0.29089 0.0
C1778 C 0.6921 0.60695 0.27858 0.0
C1779 C 0.6902 0.62462 0.28581 0.0
C1780 C 0.67662 0.62661 0.29573 0.0
H1781 H 0.74684 0.73598 0.28775 0.0
H1782 H 0.72465 0.70919 0.28975 0.0
C1783 C 0.66489 0.61116 0.29809 0.0
C1784 C 0.70224 0.64111 0.28289 0.0
H1785 H 0.73533 0.6753 0.30609 0.0
C1786 C 0.70067 0.64687 0.26501 0.0
C1787 C 0.71487 0.65141 0.29785 0.0
C1788 C 0.71728 0.64542 0.31711 0.0
C1789 C 0.7114 0.66286 0.26181 0.0
C1790 C 0.724 0.6732 0.27682 0.0
C1791 C 0.72554 0.66741 0.29467 0.0
C1792 C 0.73632 0.68957 0.27411 0.0
C1793 C 0.70916 0.66878 0.24251 0.0
C1794 C 0.75012 0.68734 0.26465 0.0
C1795 C 0.76285 0.7025 0.26377 0.0
C1796 C 0.76185 0.72016 0.27208 0.0
C1797 C 0.74773 0.72252 0.281 0.0
C1798 C 0.73514 0.70726 0.28221 0.0
H1799 H 0.69721 0.66088 0.23325 0.0
H1800 H 0.70884 0.68365 0.24392 0.0
H1801 H 0.72028 0.66664 0.2355 0.0
H1802 H 0.75131 0.67378 0.25845 0.0
H1803 H 0.77362 0.70039 0.2568 0.0
H1804 H 0.89558 0.46326 0.771 0.0
H1805 H 0.8788 0.43284 0.7721 0.0
H1806 H 0.83649 0.44408 0.73477 0.0
H1807 H 0.8533 0.4751 0.73399 0.0
H1808 H 0.84423 0.4242 0.78373 0.0
H1809 H 0.84556 0.39191 0.71031 0.0
H1810 H 0.86127 0.41195 0.72209 0.0
H1811 H 0.83978 0.41412 0.71352 0.0
C1812 C 0.88263 0.45943 0.76312 0.0
C1813 C 0.87583 0.47194 0.75261 0.0
C1814 C 0.87302 0.44186 0.76371 0.0
C1815 C 0.85633 0.4358 0.75339 0.0
C1816 C 0.84937 0.44821 0.74279 0.0
H1817 H 0.78936 0.32442 0.73809 0.0
H1818 H 0.80295 0.35574 0.73448 0.0
C1819 C 0.85893 0.46609 0.74252 0.0
C1820 C 0.8463 0.41682 0.7545 0.0
H1821 H 0.8315 0.37327 0.72967 0.0
C1822 C 0.84137 0.4131 0.77185 0.0
C1823 C 0.84241 0.40215 0.73909 0.0
C1824 C 0.84755 0.40504 0.72016 0.0
C1825 C 0.83263 0.39551 0.7742 0.0
C1826 C 0.8292 0.38054 0.75898 0.0
C1827 C 0.834 0.38437 0.7415 0.0
C1828 C 0.82086 0.36098 0.76095 0.0
C1829 C 0.82674 0.39355 0.793 0.0
C1830 C 0.82636 0.35276 0.77671 0.0
C1831 C 0.81815 0.33507 0.77907 0.0
C1832 C 0.80463 0.32447 0.76533 0.0
C1833 C 0.79966 0.33215 0.74903 0.0
C1834 C 0.80752 0.35017 0.74696 0.0
H1835 H 0.82459 0.40682 0.80001 0.0
H1836 H 0.81465 0.38318 0.79133 0.0
H1837 H 0.8369 0.38937 0.80262 0.0
H1838 H 0.83712 0.35998 0.78732 0.0
H1839 H 0.82263 0.32952 0.79161 0.0
H1840 H 0.03074 0.81852 0.07476 0.0
H1841 H 0.02665 0.84536 0.05936 0.0
H1842 H 0.06606 0.88007 0.10197 0.0
H1843 H 0.06982 0.85347 0.11776 0.0
H1844 H 0.02034 0.8829 0.08161 0.0
H1845 H 0.07711 0.8875 0.04475 0.0
H1846 H 0.06641 0.86614 0.05086 0.0
H1847 H 0.07999 0.88321 0.06897 0.0
C1848 C 0.03858 0.83186 0.0808 0.0
C1849 C 0.05061 0.83384 0.09752 0.0
C1850 C 0.03619 0.8472 0.072 0.0
C1851 C 0.04609 0.86475 0.07946 0.0
C1852 C 0.05829 0.86669 0.09595 0.0
H1853 H 0.06267 0.97462 0.04985 0.0
H1854 H 0.06432 0.94526 0.06086 0.0
C1855 C 0.0604 0.85146 0.10498 0.0
C1856 C 0.04354 0.88119 0.07037 0.0
H1857 H 0.06241 0.91201 0.04439 0.0
C1858 C 0.02944 0.88923 0.07334 0.0
C1859 C 0.05543 0.88946 0.05964 0.0
C1860 C 0.07058 0.88116 0.05568 0.0
C1861 C 0.02725 0.90566 0.06645 0.0
C1862 C 0.0393 0.91413 0.05583 0.0
C1863 C 0.05318 0.90574 0.05255 0.0
C1864 C 0.03817 0.93195 0.04857 0.0
C1865 C 0.01242 0.9141 0.0714 0.0
C1866 C 0.02309 0.93437 0.03752 0.0
C1867 C 0.02206 0.9513 0.0314 0.0
C1868 C 0.03621 0.96618 0.03577 0.0
C1869 C 0.05151 0.96352 0.04617 0.0
C1870 C 0.05245 0.94667 0.05251 0.0
H1871 H 0.0077 0.90916 0.08403 0.0
H1872 H 0.01609 0.92932 0.07429 0.0
H1873 H 1.00161 0.91011 0.05933 0.0
H1874 H 0.01205 0.92318 0.0336 0.0
H1875 H 0.01009 0.95272 0.02328 0.0
H1876 H 0.9657 0.28847 0.86994 0.0
H1877 H 0.93658 0.28946 0.85612 0.0
H1878 H 0.91838 0.23629 0.87129 0.0
H1879 H 0.94791 0.23543 0.88576 0.0
H1880 H 0.91762 0.26796 0.82627 0.0
H1881 H 0.88166 0.26302 0.88643 0.0
H1882 H 0.90483 0.26805 0.88971 0.0
H1883 H 0.89314 0.24477 0.8826 0.0
C1884 C 0.95554 0.27697 0.87055 0.0
C1885 C 0.95933 0.26174 0.87882 0.0
C1886 C 0.93878 0.27759 0.8626 0.0
C1887 C 0.92506 0.26299 0.8625 0.0
C1888 C 0.92859 0.24793 0.87134 0.0
H1889 H 0.8207 0.23408 0.79913 0.0
H1890 H 0.84853 0.23532 0.81883 0.0
C1891 C 0.94554 0.24738 0.87958 0.0
C1892 C 0.90755 0.26326 0.85188 0.0
H1893 H 0.86498 0.25988 0.85574 0.0
C1894 C 0.90616 0.26627 0.83284 0.0
C1895 C 0.89246 0.26127 0.86028 0.0
C1896 C 0.89305 0.25929 0.88093 0.0
C1897 C 0.8903 0.26695 0.822 0.0
C1898 C 0.87519 0.26456 0.83027 0.0
C1899 C 0.87651 0.26165 0.84931 0.0
C1900 C 0.85787 0.26431 0.8191 0.0
C1901 C 0.88975 0.2699 0.80159 0.0
C1902 C 0.85359 0.28027 0.81287 0.0
C1903 C 0.83746 0.27965 0.8019 0.0
C1904 C 0.82541 0.26297 0.79662 0.0
C1905 C 0.8297 0.2471 0.80294 0.0
C1906 C 0.84562 0.24781 0.81423 0.0
H1907 H 0.90186 0.26829 0.79634 0.0
H1908 H 0.87888 0.26007 0.79233 0.0
H1909 H 0.88774 0.28401 0.80033 0.0
H1910 H 0.86277 0.29319 0.81642 0.0
H1911 H 0.83461 0.2921 0.79711 0.0
H1912 H 0.57673 0.22093 0.6124 0.0
H1913 H 0.57263 0.18993 0.59501 0.0
H1914 H 0.52031 0.19201 0.57304 0.0
H1915 H 0.52466 0.22357 0.59002 0.0
H1916 H 0.54911 0.16102 0.60187 0.0
H1917 H 0.5369 0.16997 0.52586 0.0
H1918 H 0.54615 0.18909 0.54447 0.0
H1919 H 0.5236 0.17929 0.54109 0.0
C1920 C 0.56449 0.21492 0.60349 0.0
C1921 C 0.55104 0.22456 0.60242 0.0
C1922 C 0.56213 0.19722 0.59363 0.0
C1923 C 0.5462 0.18868 0.58269 0.0
C1924 C 0.53281 0.19848 0.5811 0.0
H1925 H 0.51473 0.07572 0.52644 0.0
H1926 H 0.51594 0.10781 0.53863 0.0
C1927 C 0.53529 0.21645 0.59077 0.0
C1928 C 0.54359 0.16909 0.57433 0.0
H1929 H 0.53655 0.13993 0.53242 0.0
C1930 C 0.54636 0.15641 0.58668 0.0
C1931 C 0.53969 0.16306 0.55455 0.0
C1932 C 0.5365 0.17604 0.54065 0.0
C1933 C 0.54582 0.13796 0.57975 0.0
C1934 C 0.54275 0.13214 0.55994 0.0
C1935 C 0.53927 0.1446 0.5476 0.0
C1936 C 0.54261 0.11301 0.55175 0.0
C1937 C 0.54835 0.12483 0.59369 0.0
C1938 C 0.55741 0.10547 0.55461 0.0
C1939 C 0.55682 0.08704 0.54754 0.0
C1940 C 0.54136 0.076 0.53763 0.0
C1941 C 0.5268 0.08387 0.53418 0.0
C1942 C 0.52744 0.1022 0.54112 0.0
H1943 H 0.54635 0.13038 0.60808 0.0
H1944 H 0.53938 0.11139 0.58888 0.0
H1945 H 0.56167 0.12244 0.59478 0.0
H1946 H 0.56933 0.11376 0.56254 0.0
H1947 H 0.56818 0.08129 0.55047 0.0
H1948 H 0.56009 0.73522 0.38063 0.0
H1949 H 0.58694 0.74328 0.36816 0.0
H1950 H 0.59124 0.80018 0.39151 0.0
H1951 H 0.56512 0.79179 0.40521 0.0
H1952 H 0.59454 0.7628 0.34297 0.0
H1953 H 0.63901 0.79787 0.40865 0.0
H1954 H 0.61764 0.78563 0.40936 0.0
H1955 H 0.62098 0.80833 0.40286 0.0
C1956 C 0.56691 0.7494 0.38323 0.0
C1957 C 0.56063 0.76284 0.39396 0.0
C1958 C 0.58227 0.75405 0.37611 0.0
C1959 C 0.59152 0.77235 0.37912 0.0
C1960 C 0.58493 0.78588 0.38951 0.0
H1961 H 0.68614 0.81306 0.33324 0.0
H1962 H 0.66051 0.81226 0.34837 0.0
C1963 C 0.56984 0.7811 0.39717 0.0
C1964 C 0.60745 0.77703 0.37046 0.0
H1965 H 0.65032 0.79698 0.38002 0.0
C1966 C 0.6067 0.77022 0.3512 0.0
C1967 C 0.62338 0.78725 0.38089 0.0
C1968 C 0.62539 0.79507 0.40161 0.0
C1969 C 0.62132 0.7726 0.34233 0.0
C1970 C 0.63738 0.78186 0.35298 0.0
C1971 C 0.63807 0.78962 0.37193 0.0
C1972 C 0.65361 0.78261 0.34481 0.0
C1973 C 0.61938 0.76513 0.32153 0.0
C1974 C 0.65862 0.76627 0.3382 0.0
C1975 C 0.67314 0.76664 0.32936 0.0
C1976 C 0.68325 0.7834 0.32703 0.0
C1977 C 0.67858 0.79984 0.33439 0.0
C1978 C 0.66396 0.79944 0.34321 0.0
H1979 H 0.60596 0.76363 0.31422 0.0
H1980 H 0.62805 0.77416 0.31426 0.0
H1981 H 0.62269 0.75132 0.32004 0.0
H1982 H 0.65108 0.75311 0.3396 0.0
H1983 H 0.67608 0.75367 0.3238 0.0
H1984 H 0.03311 0.24543 0.42397 0.0
H1985 H 0.02813 0.21647 0.43661 0.0
H1986 H 0.97961 0.19905 0.39871 0.0
H1987 H 0.98483 0.22775 0.38549 0.0
H1988 H 1.00086 0.20345 0.45396 0.0
H1989 H 0.0037 0.15602 0.38888 0.0
H1990 H 0.01141 0.18053 0.39151 0.0
H1991 H 0.98877 0.17111 0.38631 0.0
C1992 C 0.02139 0.23542 0.41843 0.0
C1993 C 0.00933 0.23859 0.40387 0.0
C1994 C 0.01859 0.21896 0.42554 0.0
C1995 C 0.00362 0.20575 0.41831 0.0
C1996 C 0.99138 0.20905 0.40405 0.0
H1997 H 0.9843 0.1013 0.46301 0.0
H1998 H 0.97795 0.12607 0.4453 0.0
C1999 C 0.99431 0.22539 0.39668 0.0
C2000 C 1.00077 0.18873 0.42626 0.0
H2001 H 0.99969 0.14289 0.41637 0.0
C2002 C 1.0003 0.19014 0.44573 0.0
C2003 C 1.00007 0.17155 0.41526 0.0
C2004 C 1.00113 0.16962 0.39435 0.0
C2005 C 1.00002 0.17479 0.45482 0.0
C2006 C 1.00006 0.15778 0.44401 0.0
C2007 C 0.99947 0.15609 0.42436 0.0
C2008 C 0.00365 0.14247 0.45335 0.0
C2009 C 1.0007 0.17706 0.47606 0.0
C2010 C 0.02025 0.14366 0.46301 0.0
C2011 C 0.02389 0.12973 0.47285 0.0
C2012 C 0.01094 0.11447 0.47308 0.0
C2013 C 0.99439 0.11304 0.46293 0.0
C2014 C 0.99078 0.12703 0.45292 0.0
H2015 H 0.9962 0.18962 0.4814 0.0
H2016 H 0.99276 0.16493 0.48026 0.0
H2017 H 0.01418 0.17833 0.48303 0.0
H2018 H 0.03027 0.15558 0.46325 0.0
H2019 H 0.03665 0.13121 0.48086 0.0
H2020 H 0.60475 0.24433 0.16379 0.0
H2021 H 0.63418 0.24423 0.17782 0.0
H2022 H 0.62709 0.2749 0.23004 0.0
H2023 H 0.59755 0.27489 0.2163 0.0
H2024 H 0.65895 0.27825 0.19328 0.0
H2025 H 0.64645 0.22952 0.24467 0.0
H2026 H 0.63088 0.23019 0.22421 0.0
H2027 H 0.634 0.24721 0.24496 0.0
C2028 C 0.60951 0.25107 0.17824 0.0
C2029 C 0.59919 0.25979 0.18906 0.0
C2030 C 0.62613 0.25089 0.18616 0.0
C2031 C 0.63233 0.25945 0.20477 0.0
C2032 C 0.6221 0.26807 0.21565 0.0
H2033 H 0.72592 0.28007 0.28055 0.0
H2034 H 0.69896 0.28405 0.26276 0.0
C2035 C 0.60543 0.26814 0.20782 0.0
C2036 C 0.6499 0.26032 0.21265 0.0
H2037 H 0.67467 0.24701 0.24817 0.0
C2038 C 0.66255 0.27137 0.20519 0.0
C2039 C 0.65404 0.25122 0.22807 0.0
C2040 C 0.64065 0.23873 0.23588 0.0
C2041 C 0.67969 0.27389 0.21331 0.0
C2042 C 0.6837 0.26511 0.22898 0.0
C2043 C 0.67109 0.25388 0.23624 0.0
C2044 C 0.70104 0.26608 0.23759 0.0
C2045 C 0.69333 0.28589 0.20539 0.0
C2046 C 0.71038 0.25437 0.22905 0.0
C2047 C 0.72532 0.25163 0.23924 0.0
C2048 C 0.73089 0.26078 0.25788 0.0
C2049 C 0.72154 0.27269 0.26627 0.0
C2050 C 0.70655 0.27533 0.25609 0.0
H2051 H 0.68773 0.29353 0.19463 0.0
H2052 H 0.70191 0.29587 0.21701 0.0
H2053 H 0.70134 0.2772 0.19863 0.0
H2054 H 0.70578 0.24689 0.21484 0.0
H2055 H 0.73267 0.2428 0.23233 0.0
H2056 H 0.50268 0.83 0.9198 0.0
H2057 H 0.50098 0.85618 0.94266 0.0
H2058 H 0.52723 0.8931 0.90965 0.0
H2059 H 0.5289 0.86694 0.88646 0.0
H2060 H 0.53256 0.88094 0.96165 0.0
H2061 H 0.48568 0.91571 0.92332 0.0
H2062 H 0.48618 0.89175 0.91662 0.0
H2063 H 0.50205 0.90932 0.91065 0.0
C2064 C 0.50797 0.8437 0.9173 0.0
C2065 C 0.51617 0.84653 0.90156 0.0
C2066 C 0.50687 0.85856 0.93028 0.0
C2067 C 0.5139 0.87635 0.92763 0.0
C2068 C 0.52153 0.87934 0.91162 0.0
H2069 H 0.54172 0.98294 0.98608 0.0
H2070 H 0.53538 0.95386 0.96497 0.0
C2071 C 0.52256 0.86445 0.89852 0.0
C2072 C 0.51493 0.89159 0.9427 0.0
H2073 H 0.50202 0.93198 0.95254 0.0
C2074 C 0.5257 0.89201 0.95988 0.0
C2075 C 0.506 0.90585 0.93999 0.0
C2076 C 0.49421 0.90567 0.9217 0.0
C2077 C 0.52836 0.90692 0.97437 0.0
C2078 C 0.51963 0.92133 0.97157 0.0
C2079 C 0.50845 0.92064 0.95458 0.0
C2080 C 0.52369 0.93838 0.98497 0.0
C2081 C 0.54117 0.90771 0.99204 0.0
C2082 C 0.51946 0.93901 0.00328 0.0
C2083 C 0.52332 0.95567 0.01558 0.0
C2084 C 0.53111 0.9716 0.00933 0.0
C2085 C 0.53549 0.97079 0.99108 0.0
C2086 C 0.53189 0.95426 0.97902 0.0
H2087 H 0.54849 0.89649 0.99082 0.0
H2088 H 0.55041 0.92109 0.99503 0.0
H2089 H 0.53431 0.90652 0.00434 0.0
H2090 H 0.513 0.92675 0.0079 0.0
H2091 H 0.51979 0.95624 0.0296 0.0
H2092 H 0.9929 0.7384 0.67608 0.0
H2093 H 0.96565 0.74294 0.68567 0.0
H2094 H 0.99002 0.75489 0.74434 0.0
H2095 H 0.01728 0.75014 0.73492 0.0
H2096 H 0.95027 0.72241 0.71653 0.0
H2097 H 0.96412 0.79893 0.72979 0.0
H2098 H 0.97408 0.78592 0.71321 0.0
H2099 H 0.98097 0.78752 0.73824 0.0
C2100 C 0.99235 0.74185 0.69103 0.0
C2101 C 0.00696 0.74375 0.70487 0.0
C2102 C 0.97691 0.74452 0.69641 0.0
C2103 C 0.97612 0.74938 0.7156 0.0
C2104 C 0.99064 0.75123 0.72945 0.0
H2105 H 0.90145 0.77986 0.77994 0.0
H2106 H 0.9269 0.77104 0.76962 0.0
C2107 C 0.00603 0.7483 0.72411 0.0
C2108 C 0.95985 0.75161 0.72137 0.0
H2109 H 0.93893 0.78368 0.73922 0.0
C2110 C 0.94763 0.73575 0.72144 0.0
C2111 C 0.95678 0.7691 0.72762 0.0
C2112 C 0.9696 0.78642 0.72716 0.0
C2113 C 0.93237 0.73688 0.72835 0.0
C2114 C 0.92931 0.75438 0.7349 0.0
C2115 C 0.94147 0.77028 0.73437 0.0
C2116 C 0.9135 0.75672 0.74218 0.0
C2117 C 0.91997 0.71935 0.72904 0.0
C2118 C 0.89753 0.75101 0.73034 0.0
C2119 C 0.88293 0.7558 0.7363 0.0
C2120 C 0.88419 0.76661 0.75405 0.0
C2121 C 0.90006 0.77141 0.76626 0.0
C2122 C 0.91462 0.76651 0.76035 0.0
H2123 H 0.92645 0.70743 0.7289 0.0
H2124 H 0.91378 0.72048 0.7419 0.0
H2125 H 0.90978 0.71654 0.71635 0.0
H2126 H 0.8965 0.74364 0.71617 0.0
H2127 H 0.87078 0.75169 0.72673 0.0
H2128 H 0.10053 0.06439 0.85109 0.0
H2129 H 0.08936 0.05804 0.88 0.0
H2130 H 0.09476 1.00163 0.86815 0.0
H2131 H 0.10686 0.00824 0.83974 0.0
H2132 H 0.06142 0.03643 0.88409 0.0
H2133 H 0.11614 0.01269 0.92234 0.0
H2134 H 0.11778 0.02331 0.90133 0.0
H2135 H 0.10802 0.99937 0.89938 0.0
C2136 C 0.09956 0.0507 0.85482 0.0
C2137 C 0.10469 0.03685 0.84328 0.0
C2138 C 0.09313 0.04706 0.87131 0.0
C2139 C 0.09142 0.02942 0.87647 0.0
C2140 C 0.09643 0.01549 0.86486 0.0
H2141 H 0.0387 0.98395 0.96379 0.0
H2142 H 0.05156 0.98798 0.93511 0.0
C2143 C 0.10326 0.01925 0.84855 0.0
C2144 C 0.0837 0.02558 0.89356 0.0
H2145 H 0.09029 0.00868 0.9354 0.0
C2146 C 0.0678 0.03043 0.89531 0.0
C2147 C 0.09199 0.01773 0.90826 0.0
C2148 C 0.1095 0.01314 0.90786 0.0
C2149 C 0.06002 0.02768 0.91132 0.0
C2150 C 0.06828 0.01977 0.92587 0.0
C2151 C 0.08401 0.01467 0.92409 0.0
C2152 C 0.06096 0.01722 0.94334 0.0
C2153 C 0.04304 0.03327 0.91266 0.0
C2154 C 0.06229 0.03231 0.95747 0.0
C2155 C 0.05521 0.03001 0.97391 0.0
C2156 C 0.04654 0.0126 0.97638 0.0
C2157 C 0.04538 0.99748 0.96226 0.0
C2158 C 0.05265 0.99976 0.9459 0.0
H2159 H 0.03723 0.03699 0.89912 0.0
H2160 H 0.03389 0.02194 0.91665 0.0
H2161 H 0.04499 0.04532 0.92395 0.0
H2162 H 0.06869 0.04588 0.9557 0.0
H2163 H 0.05617 0.04194 0.98447 0.0
H2164 H 0.73591 0.35671 0.56348 0.0
H2165 H 0.74916 0.34227 0.5892 0.0
H2166 H 0.78779 0.33068 0.5558 0.0
H2167 H 0.77491 0.34534 0.53055 0.0
H2168 H 0.76185 0.30624 0.59055 0.0
H2169 H 0.81161 0.37077 0.60348 0.0
H2170 H 0.79086 0.36855 0.58907 0.0
H2171 H 0.80714 0.35828 0.57976 0.0
C2172 C 0.7471 0.35086 0.56177 0.0
C2173 C 0.75492 0.35246 0.54572 0.0
C2174 C 0.75448 0.34251 0.57617 0.0
C2175 C 0.76949 0.33582 0.57422 0.0
C2176 C 0.77629 0.33599 0.5574 0.0
H2177 H 0.82198 0.28672 0.65991 0.0
H2178 H 0.8187 0.29942 0.63027 0.0
C2179 C 0.76908 0.34445 0.54322 0.0
C2180 C 0.77966 0.33144 0.59069 0.0
H2181 H 0.81576 0.34868 0.6233 0.0
C2182 C 0.77371 0.31533 0.59768 0.0
C2183 C 0.79501 0.34361 0.59973 0.0
C2184 C 0.80153 0.36136 0.59276 0.0
C2185 C 0.78275 0.31115 0.614 0.0
C2186 C 0.79808 0.3234 0.62311 0.0
C2187 C 0.80415 0.33932 0.61591 0.0
C2188 C 0.80651 0.32091 0.64152 0.0
C2189 C 0.77554 0.29413 0.62186 0.0
C2190 C 0.80216 0.33011 0.65772 0.0
C2191 C 0.80405 0.32297 0.67459 0.0
C2192 C 0.81024 0.30667 0.67506 0.0
C2193 C 0.81723 0.29937 0.65972 0.0
C2194 C 0.81528 0.30649 0.64281 0.0
H2195 H 0.76278 0.28695 0.61379 0.0
H2196 H 0.78448 0.28446 0.62129 0.0
H2197 H 0.77424 0.29778 0.63695 0.0
H2198 H 0.7954 0.34134 0.65674 0.0
H2199 H 0.79866 0.32871 0.68642 0.0
H2200 H 0.44772 1.00337 0.31185 0.0
H2201 H 0.46115 1.00243 0.34397 0.0
H2202 H 0.44882 0.05465 0.36261 0.0
H2203 H 0.43459 0.05528 0.33009 0.0
H2204 H 0.48738 0.01927 0.36619 0.0
H2205 H 0.43591 0.03244 0.40631 0.0
H2206 H 0.43238 0.02806 0.38074 0.0
H2207 H 0.44243 0.05065 0.39323 0.0
C2208 C 0.44759 0.01472 0.32269 0.0
C2209 C 0.43974 0.02941 0.31778 0.0
C2210 C 0.4555 0.01416 0.34141 0.0
C2211 C 0.4562 0.0283 0.35659 0.0
C2212 C 0.44831 0.04308 0.35182 0.0
H2213 H 0.50825 0.04741 0.47895 0.0
H2214 H 0.49154 0.04929 0.44802 0.0
C2215 C 0.44012 0.04354 0.33291 0.0
C2216 C 0.46568 0.0275 0.37674 0.0
H2217 H 0.46294 0.03281 0.42463 0.0
C2218 C 0.48182 0.02218 0.37884 0.0
C2219 C 0.45898 0.03118 0.3939 0.0
C2220 C 0.44141 0.03571 0.39349 0.0
C2221 C 0.49122 0.02079 0.39681 0.0
C2222 C 0.48455 0.02451 0.41399 0.0
C2223 C 0.46847 0.02994 0.41195 0.0
C2224 C 0.49396 0.02283 0.43389 0.0
C2225 C 0.50863 0.01581 0.39704 0.0
C2226 C 0.50075 0.00715 0.43739 0.0
C2227 C 0.51044 0.00613 0.45521 0.0
C2228 C 0.51336 0.02041 0.47081 0.0
C2229 C 0.50599 0.0358 0.4677 0.0
C2230 C 0.49646 0.03695 0.44972 0.0
H2231 H 0.51426 0.0193 0.38437 0.0
H2232 H 0.51775 0.02297 0.40993 0.0
H2233 H 0.50725 1.00076 0.39678 0.0
H2234 H 0.4988 0.99557 0.42619 0.0
H2235 H 0.51603 0.99415 0.45665 0.0
H2236 H 0.76955 0.70851 0.0559 0.0
H2237 H 0.77286 0.72804 0.08675 0.0
H2238 H 0.79285 0.68679 0.11469 0.0
H2239 H 0.78924 0.66712 0.08406 0.0
H2240 H 0.7536 0.70993 0.11468 0.0
H2241 H 0.82272 0.73836 0.14281 0.0
H2242 H 0.8145 0.73263 0.11765 0.0
H2243 H 0.81719 0.71475 0.13158 0.0
C2244 C 0.7751 0.70389 0.06858 0.0
C2245 C 0.77887 0.68625 0.06774 0.0
C2246 C 0.77702 0.71503 0.08613 0.0
C2247 C 0.78315 0.70883 0.10289 0.0
C2248 C 0.78827 0.69187 0.10187 0.0
H2249 H 0.78411 0.72798 0.22167 0.0
H2250 H 0.78506 0.71664 0.18859 0.0
C2251 C 0.78605 0.6806 0.08442 0.0
C2252 C 0.78113 0.71817 0.12144 0.0
H2253 H 0.80315 0.73969 0.16467 0.0
C2254 C 0.76439 0.7168 0.12552 0.0
C2255 C 0.7953 0.72664 0.13556 0.0
C2256 C 0.81348 0.72834 0.13175 0.0
C2257 C 0.76143 0.72327 0.14362 0.0
C2258 C 0.77557 0.7317 0.15777 0.0
C2259 C 0.79234 0.73337 0.15362 0.0
C2260 C 0.77332 0.73773 0.17736 0.0
C2261 C 0.74332 0.72019 0.14783 0.0
C2262 C 0.76587 0.75299 0.18182 0.0
C2263 C 0.76512 0.75937 0.20075 0.0
C2264 C 0.77196 0.75057 0.21522 0.0
C2265 C 0.77874 0.73489 0.21061 0.0
C2266 C 0.77939 0.7285 0.19182 0.0
H2267 H 0.73404 0.71124 0.13598 0.0
H2268 H 0.74268 0.71379 0.16091 0.0
H2269 H 0.73933 0.7336 0.15034 0.0
H2270 H 0.76125 0.76032 0.17076 0.0
H2271 H 0.76013 0.77167 0.20414 0.0
H2272 H 0.08519 0.01398 0.73821 0.0
H2273 H 0.07136 0.0092 0.70498 0.0
H2274 H 0.11911 0.03424 0.68919 0.0
H2275 H 0.1331 0.03865 0.72216 0.0
H2276 H 0.06831 0.03726 0.68495 0.0
H2277 H 0.10302 0.98951 0.64856 0.0
H2278 H 0.10389 0.99288 0.67399 0.0
H2279 H 0.11726 0.00904 0.66299 0.0
C2280 C 0.09275 0.01828 0.7276 0.0
C2281 C 0.11014 0.02685 0.73272 0.0
C2282 C 0.08488 0.01546 0.70868 0.0
C2283 C 0.09431 0.02116 0.69471 0.0
C2284 C 0.11175 0.02934 0.69974 0.0
H2285 H 0.07094 0.04643 0.58236 0.0
H2286 H 0.08236 0.04665 0.6159 0.0
C2287 C 0.11966 0.03203 0.7186 0.0
C2288 C 0.08554 0.0205 0.67526 0.0
H2289 H 0.08715 0.00631 0.62882 0.0
C2290 C 0.07226 0.03029 0.67268 0.0
C2291 C 0.09081 0.01142 0.65936 0.0
C2292 C 0.10442 0.99997 0.66134 0.0
C2293 C 0.06444 0.0317 0.65449 0.0
C2294 C 0.07011 0.02312 0.6387 0.0
C2295 C 0.08309 0.01302 0.64117 0.0
C2296 C 0.06247 0.02418 0.61938 0.0
C2297 C 0.0504 0.04255 0.65212 0.0
C2298 C 0.04755 0.01157 0.61068 0.0
C2299 C 0.04123 0.01124 0.59165 0.0
C2300 C 0.04967 0.0237 0.58133 0.0
C2301 C 0.0642 0.03686 0.59026 0.0
C2302 C 0.07072 0.03696 0.60924 0.0
H2303 H 0.04819 0.04933 0.66593 0.0
H2304 H 0.05373 0.05319 0.64304 0.0
H2305 H 0.03826 0.03324 0.64483 0.0
H2306 H 0.04114 1.00166 0.61848 0.0
H2307 H 0.02993 1.00109 0.58489 0.0
H2308 H 0.76145 0.32104 0.46987 0.0
H2309 H 0.77713 0.31221 0.44474 0.0
H2310 H 0.73788 0.32387 0.4032 0.0
H2311 H 0.72296 0.3342 0.42859 0.0
H2312 H 0.77175 0.28945 0.41353 0.0
H2313 H 0.77964 0.35935 0.39511 0.0
H2314 H 0.7726 0.35375 0.41689 0.0
H2315 H 0.75736 0.35063 0.39527 0.0
C2316 C 0.75571 0.3207 0.45524 0.0
C2317 C 0.74143 0.32867 0.45085 0.0
C2318 C 0.76492 0.3162 0.44106 0.0
C2319 C 0.75912 0.31874 0.42256 0.0
C2320 C 0.74293 0.32303 0.41775 0.0
H2321 H 0.75262 0.27023 0.31889 0.0
H2322 H 0.75203 0.29195 0.34727 0.0
C2323 C 0.73408 0.32818 0.43203 0.0
C2324 C 0.76968 0.31663 0.408 0.0
H2325 H 0.77859 0.33448 0.36846 0.0
C2326 C 0.77392 0.29949 0.40402 0.0
C2327 C 0.77293 0.33014 0.39613 0.0
C2328 C 0.77059 0.34958 0.40126 0.0
C2329 C 0.77888 0.29441 0.3868 0.0
C2330 C 0.77953 0.30694 0.37368 0.0
C2331 C 0.77754 0.32493 0.37862 0.0
C2332 C 0.77977 0.30018 0.35416 0.0
C2333 C 0.7816 0.27505 0.38189 0.0
C2334 C 0.7955 0.29843 0.34891 0.0
C2335 C 0.79581 0.28592 0.33327 0.0
C2336 C 0.78041 0.27519 0.32302 0.0
C2337 C 0.76456 0.27789 0.3274 0.0
C2338 C 0.76424 0.29062 0.343 0.0
H2339 H 0.78149 0.26746 0.3942 0.0
H2340 H 0.7713 0.26736 0.37028 0.0
H2341 H 0.79407 0.27534 0.3768 0.0
H2342 H 0.80747 0.30556 0.35775 0.0
H2343 H 0.8081 0.2842 0.32947 0.0
H2344 H 0.44445 0.05786 0.20563 0.0
H2345 H 0.45858 0.05326 0.1778 0.0
H2346 H 0.43078 0.99713 0.16486 0.0
H2347 H 0.41552 1.00243 0.19161 0.0
H2348 H 0.47965 0.03737 0.16653 0.0
H2349 H 0.42364 1.0022 0.11265 0.0
H2350 H 0.42098 0.01204 0.13588 0.0
H2351 H 0.42663 0.98972 0.13207 0.0
C2352 C 0.44111 0.04459 0.19668 0.0
C2353 C 0.42847 0.0307 0.20104 0.0
C2354 C 0.44936 0.04184 0.18057 0.0
C2355 C 0.4458 0.02486 0.16813 0.0
C2356 C 0.43354 0.01074 0.173 0.0
H2357 H 0.49408 0.98769 0.06719 0.0
H2358 H 0.4784 0.98868 0.09442 0.0
C2359 C 0.42482 0.01372 0.18874 0.0
C2360 C 0.45537 0.02211 0.1509 0.0
H2361 H 0.4509 1.00326 0.10356 0.0
C2362 C 0.47306 0.03005 0.1528 0.0
C2363 C 0.44752 0.01222 0.1325 0.0
C2364 C 0.42863 1.0037 0.12807 0.0
C2365 C 0.48269 0.02868 0.13759 0.0
C2366 C 0.47476 0.01916 0.11923 0.0
C2367 C 0.45726 0.01071 0.11733 0.0
C2368 C 0.48427 0.01832 0.10197 0.0
C2369 C 0.50159 0.03717 0.14161 0.0
C2370 C 0.49288 0.03446 0.0963 0.0
C2371 C 0.50202 0.03386 0.08076 0.0
C2372 C 0.50271 0.0171 0.06978 0.0
C2373 C 0.49381 1.00091 0.07504 0.0
C2374 C 0.48478 1.0015 0.09079 0.0
H2375 H 0.50682 0.03896 0.15699 0.0
H2376 H 0.50904 0.02865 0.13368 0.0
H2377 H 0.50355 0.05096 0.13715 0.0
H2378 H 0.49251 0.04775 0.10389 0.0
H2379 H 0.50853 0.04667 0.07723 0.0
H2380 H 0.74301 0.68706 0.94688 0.0
H2381 H 0.74618 0.70248 0.91897 0.0
H2382 H 0.80112 0.70728 0.93127 0.0
H2383 H 0.79776 0.6908 0.95836 0.0
H2384 H 0.76094 0.73478 0.91364 0.0
H2385 H 0.79422 0.68554 0.87746 0.0
H2386 H 0.78479 0.68113 0.89818 0.0
H2387 H 0.80569 0.69576 0.90055 0.0
C2388 C 0.75572 0.69131 0.94346 0.0
C2389 C 0.77011 0.6875 0.95453 0.0
C2390 C 0.75756 0.70016 0.92754 0.0
C2391 C 0.77387 0.70566 0.92252 0.0
C2392 C 0.78832 0.70255 0.9342 0.0
H2393 H 0.81416 0.7603 0.83405 0.0
H2394 H 0.80919 0.74669 0.86235 0.0
C2395 C 0.78643 0.69328 0.94982 0.0
C2396 C 0.7757 0.71475 0.90525 0.0
H2397 H 0.79353 0.71313 0.86467 0.0
C2398 C 0.76797 0.72993 0.90288 0.0
C2399 C 0.78485 0.70853 0.89104 0.0
C2400 C 0.7927 0.69174 0.89182 0.0
C2401 C 0.76949 0.73927 0.88713 0.0
C2402 C 0.77882 0.73318 0.87309 0.0
C2403 C 0.78642 0.71792 0.87538 0.0
C2404 C 0.78149 0.74267 0.85626 0.0
C2405 C 0.76153 0.75594 0.88605 0.0
C2406 C 0.76762 0.74534 0.84331 0.0
C2407 C 0.7705 0.75364 0.82721 0.0
C2408 C 0.78725 0.75885 0.82335 0.0
C2409 C 0.80105 0.75632 0.83642 0.0
C2410 C 0.79822 0.74845 0.85265 0.0
H2411 H 0.75885 0.7616 0.90009 0.0
H2412 H 0.77002 0.76691 0.88072 0.0
H2413 H 0.74914 0.75202 0.87614 0.0
H2414 H 0.75454 0.74068 0.84542 0.0
H2415 H 0.75963 0.75559 0.81763 0.0
H2416 H 0.84064 0.10539 0.05414 0.0
H2417 H 0.86551 0.09619 0.04241 0.0
H2418 H 0.88371 0.15172 0.03306 0.0
H2419 H 0.86013 0.1613 0.04606 0.0
H2420 H 0.86644 0.10004 0.00486 0.0
H2421 H 0.92809 0.1371 0.05003 0.0
H2422 H 0.90785 0.13499 0.05866 0.0
H2423 H 0.91305 0.15086 0.04255 0.0
C2424 C 0.85043 0.11573 0.05048 0.0
C2425 C 0.84827 0.13385 0.05057 0.0
C2426 C 0.8645 0.11051 0.0437 0.0
C2427 C 0.8762 0.12332 0.03675 0.0
C2428 C 0.87499 0.14176 0.03867 0.0
H2429 H 0.95721 0.08243 0.98575 0.0
H2430 H 0.93739 0.10401 0.98753 0.0
C2431 C 0.86133 0.14711 0.04602 0.0
C2432 C 0.88776 0.11681 0.02477 0.0
H2433 H 0.9298 0.11698 0.02289 0.0
C2434 C 0.88032 0.10388 0.00865 0.0
C2435 C 0.90575 0.12265 0.0293 0.0
C2436 C 0.91421 0.13709 0.04612 0.0
C2437 C 0.8905 0.09502 0.99806 0.0
C2438 C 0.90843 0.09926 0.00392 0.0
C2439 C 0.91596 0.1138 0.01859 0.0
C2440 C 0.91877 0.08575 0.99914 0.0
C2441 C 0.88192 0.08008 0.98176 0.0
C2442 C 0.91466 0.06862 0.00514 0.0
C2443 C 0.9258 0.0566 0.00425 0.0
C2444 C 0.94118 0.06161 0.99742 0.0
C2445 C 0.94517 0.07844 0.9908 0.0
C2446 C 0.93396 0.09062 0.99177 0.0
H2447 H 0.86999 0.08339 0.97443 0.0
H2448 H 0.8906 0.07796 0.97131 0.0
H2449 H 0.87819 0.06701 0.98735 0.0
H2450 H 0.90329 0.06496 0.01153 0.0
H2451 H 0.92279 0.0437 0.00964 0.0
H2452 H 0.34604 0.44036 0.01493 0.0
H2453 H 0.37595 0.45245 0.01397 0.0
H2454 H 0.39111 0.41249 0.04751 0.0
H2455 H 0.36061 0.39988 0.04842 0.0
H2456 H 0.40083 0.46806 0.0453 0.0
H2457 H 0.42073 0.40975 0.00442 0.0
H2458 H 0.39842 0.41109 0.004 0.0
H2459 H 0.41035 0.40507 0.02444 0.0
C2460 C 0.35558 0.43394 0.02217 0.0
C2461 C 0.35064 0.41914 0.03199 0.0
C2462 C 0.37284 0.44094 0.02151 0.0
C2463 C 0.38599 0.43346 0.03055 0.0
C2464 C 0.38128 0.41844 0.04016 0.0
H2465 H 0.49833 0.47689 0.03624 0.0
H2466 H 0.47082 0.45664 0.03817 0.0
C2467 C 0.36379 0.41133 0.04084 0.0
C2468 C 0.40441 0.44254 0.03073 0.0
H2469 H 0.44152 0.43718 0.01392 0.0
C2470 C 0.40973 0.4612 0.03855 0.0
C2471 C 0.41622 0.43373 0.02204 0.0
C2472 C 0.41123 0.41383 0.01311 0.0
C2473 C 0.42618 0.47128 0.03772 0.0
C2474 C 0.4378 0.46276 0.0283 0.0
C2475 C 0.43273 0.44389 0.02102 0.0
C2476 C 0.45476 0.47361 0.02525 0.0
C2477 C 0.43088 0.49107 0.04714 0.0
C2478 C 0.45514 0.48949 0.01658 0.0
C2479 C 0.47075 0.5011 0.01578 0.0
C2480 C 0.48657 0.49697 0.02298 0.0
C2481 C 0.48638 0.48039 0.03039 0.0
C2482 C 0.47061 0.46886 0.03158 0.0
H2483 H 0.42345 0.49357 0.0588 0.0
H2484 H 0.44478 0.49517 0.05305 0.0
H2485 H 0.42775 0.50004 0.03653 0.0
H2486 H 0.44328 0.49327 0.01092 0.0
H2487 H 0.47041 0.51368 0.00986 0.0
H2488 H 0.38253 0.54478 0.74168 0.0
H2489 H 0.36979 0.57127 0.75043 0.0
H2490 H 0.4149 0.59538 0.79192 0.0
H2491 H 0.42793 0.56917 0.7829 0.0
H2492 H 0.36217 0.58261 0.78546 0.0
H2493 H 0.40833 0.63801 0.76392 0.0
H2494 H 0.40763 0.61396 0.75632 0.0
H2495 H 0.41775 0.6246 0.77991 0.0
C2496 C 0.38981 0.55581 0.75253 0.0
C2497 C 0.40623 0.55492 0.76158 0.0
C2498 C 0.38251 0.57091 0.75753 0.0
C2499 C 0.39147 0.58535 0.77169 0.0
C2500 C 0.40792 0.58457 0.78068 0.0
H2501 H 0.35423 0.68594 0.80824 0.0
H2502 H 0.37089 0.66134 0.81015 0.0
C2503 C 0.4153 0.56954 0.77557 0.0
C2504 C 0.38317 0.60077 0.77752 0.0
H2505 H 0.38597 0.64692 0.77853 0.0
C2506 C 0.36744 0.59669 0.78408 0.0
C2507 C 0.3902 0.61915 0.77592 0.0
C2508 C 0.40683 0.62425 0.7685 0.0
C2509 C 0.35825 0.61042 0.78848 0.0
C2510 C 0.36491 0.62863 0.78612 0.0
C2511 C 0.381 0.63291 0.78044 0.0
C2512 C 0.35428 0.64276 0.78671 0.0
C2513 C 0.34128 0.60527 0.7952 0.0
C2514 C 0.33951 0.64029 0.77302 0.0
C2515 C 0.33019 0.65416 0.77191 0.0
C2516 C 0.33547 0.67073 0.78445 0.0
C2517 C 0.34994 0.67312 0.79858 0.0
C2518 C 0.35941 0.65919 0.79961 0.0
H2519 H 0.34047 0.59248 0.80168 0.0
H2520 H 0.33921 0.61648 0.80571 0.0
H2521 H 0.33073 0.60281 0.78288 0.0
H2522 H 0.33554 0.62786 0.76273 0.0
H2523 H 0.3191 0.65218 0.76085 0.0
H2524 H 0.25216 0.65363 0.49648 0.0
H2525 H 0.22389 0.63593 0.49896 0.0
H2526 H 0.24079 0.63633 0.55866 0.0
H2527 H 0.26862 0.65476 0.55632 0.0
H2528 H 0.22487 0.60199 0.50812 0.0
H2529 H 0.19087 0.63879 0.5579 0.0
H2530 H 0.20798 0.65065 0.54735 0.0
H2531 H 0.21283 0.6391 0.5673 0.0
C2532 C 0.24947 0.65056 0.51022 0.0
C2533 C 0.2624 0.65504 0.5261 0.0
C2534 C 0.23343 0.6405 0.51165 0.0
C2535 C 0.23037 0.63473 0.52894 0.0
C2536 C 0.24282 0.6408 0.54525 0.0
H2537 H 0.15518 0.54784 0.55578 0.0
H2538 H 0.18313 0.56654 0.55402 0.0
C2539 C 0.25876 0.65108 0.54385 0.0
C2540 C 0.21589 0.61958 0.52897 0.0
H2541 H 0.18076 0.60642 0.54944 0.0
C2542 C 0.21511 0.60303 0.51702 0.0
C2543 C 0.20354 0.62088 0.541 0.0
C2544 C 0.20373 0.63836 0.55401 0.0
C2545 C 0.20207 0.58776 0.51651 0.0
C2546 C 0.18958 0.58918 0.52822 0.0
C2547 C 0.19052 0.60553 0.54053 0.0
C2548 C 0.17461 0.57439 0.52694 0.0
C2549 C 0.20166 0.57022 0.50353 0.0
C2550 C 0.16105 0.57205 0.51179 0.0
C2551 C 0.14512 0.56149 0.51279 0.0
C2552 C 0.14274 0.55317 0.52893 0.0
C2553 C 0.15683 0.554 0.54314 0.0
C2554 C 0.1727 0.56474 0.54223 0.0
H2555 H 0.21385 0.57037 0.49781 0.0
H2556 H 0.19923 0.55824 0.51119 0.0
H2557 H 0.19099 0.56833 0.49144 0.0
H2558 H 0.1624 0.57954 0.49995 0.0
H2559 H 0.13435 0.561 0.50172 0.0
H2560 H 0.69948 0.95046 0.7589 0.0
H2561 H 0.71328 0.92381 0.759 0.0
H2562 H 0.70113 0.91792 0.81467 0.0
H2563 H 0.68584 0.94329 0.81354 0.0
H2564 H 0.73737 0.91235 0.77193 0.0
H2565 H 0.68939 0.86658 0.80165 0.0
H2566 H 0.68531 0.88792 0.79499 0.0
H2567 H 0.69805 0.88743 0.81766 0.0
C2568 C 0.69944 0.94333 0.7711 0.0
C2569 C 0.69097 0.9493 0.78603 0.0
C2570 C 0.70758 0.92782 0.77124 0.0
C2571 C 0.70822 0.91747 0.78655 0.0
C2572 C 0.70039 0.92413 0.8019 0.0
H2573 H 0.76156 0.82339 0.81109 0.0
H2574 H 0.74814 0.85062 0.81321 0.0
C2575 C 0.69169 0.93921 0.80144 0.0
C2576 C 0.71727 0.90044 0.78636 0.0
H2577 H 0.71552 0.85697 0.7993 0.0
C2578 C 0.7322 0.90029 0.77779 0.0
C2579 C 0.7114 0.88403 0.79404 0.0
C2580 C 0.69509 0.88138 0.80243 0.0
C2581 C 0.74095 0.88513 0.77672 0.0
C2582 C 0.73504 0.86887 0.78436 0.0
C2583 C 0.7204 0.86905 0.79328 0.0
C2584 C 0.74368 0.85173 0.78306 0.0
C2585 C 0.75691 0.88694 0.7677 0.0
C2586 C 0.74599 0.84237 0.76549 0.0
C2587 C 0.75376 0.8266 0.76428 0.0
C2588 C 0.75969 0.81917 0.78054 0.0
C2589 C 0.75733 0.8284 0.79812 0.0
C2590 C 0.74951 0.84418 0.79934 0.0
H2591 H 0.76242 0.9015 0.76694 0.0
H2592 H 0.76686 0.88099 0.77571 0.0
H2593 H 0.75366 0.87934 0.75302 0.0
H2594 H 0.74148 0.84708 0.75245 0.0
H2595 H 0.75499 0.82004 0.7504 0.0
H2596 H 0.73916 0.88371 0.50446 0.0
H2597 H 0.71306 0.89558 0.49578 0.0
H2598 H 0.72449 0.93195 0.54926 0.0
H2599 H 0.75113 0.92099 0.55734 0.0
H2600 H 0.68436 0.8965 0.50834 0.0
H2601 H 0.71831 0.96841 0.51532 0.0
H2602 H 0.72965 0.94976 0.51606 0.0
H2603 H 0.72305 0.95992 0.53722 0.0
C2604 C 0.73612 0.89432 0.51432 0.0
C2605 C 0.74733 0.90164 0.5315 0.0
C2606 C 0.72115 0.90107 0.50935 0.0
C2607 C 0.71692 0.91511 0.52157 0.0
C2608 C 0.72773 0.92171 0.53916 0.0
H2609 H 0.6373 0.97134 0.54036 0.0
H2610 H 0.66072 0.95476 0.53985 0.0
C2611 C 0.74292 0.91534 0.54388 0.0
C2612 C 0.70138 0.92301 0.51609 0.0
H2613 H 0.68801 0.9639 0.51673 0.0
C2614 C 0.68522 0.91124 0.50993 0.0
C2615 C 0.70238 0.94224 0.51748 0.0
C2616 C 0.71932 0.95576 0.52164 0.0
C2617 C 0.67005 0.91824 0.50657 0.0
C2618 C 0.67103 0.93745 0.5097 0.0
C2619 C 0.68722 0.94915 0.51474 0.0
C2620 C 0.65553 0.94585 0.50954 0.0
C2621 C 0.65299 0.90513 0.50038 0.0
C2622 C 0.64464 0.9463 0.49261 0.0
C2623 C 0.63107 0.95585 0.49284 0.0
C2624 C 0.6281 0.96506 0.51003 0.0
C2625 C 0.6389 0.96418 0.52691 0.0
C2626 C 0.65242 0.95477 0.52664 0.0
H2627 H 0.6542 0.89056 0.50013 0.0
H2628 H 0.64386 0.90821 0.51001 0.0
H2629 H 0.64743 0.90694 0.4859 0.0
H2630 H 0.64689 0.93968 0.4792 0.0
H2631 H 0.62299 0.95614 0.47957 0.0
H2632 H 0.389 0.43572 0.72328 0.0
H2633 H 0.36897 0.40865 0.72866 0.0
H2634 H 0.38503 0.42422 0.78916 0.0
H2635 H 0.40442 0.45173 0.78371 0.0
H2636 H 0.37644 0.38037 0.74463 0.0
H2637 H 0.33411 0.41324 0.78684 0.0
H2638 H 0.34893 0.42614 0.77432 0.0
H2639 H 0.35649 0.41971 0.79677 0.0
C2640 C 0.38793 0.43347 0.73769 0.0
C2641 C 0.39795 0.44578 0.7531 0.0
C2642 C 0.37659 0.41802 0.74078 0.0
C2643 C 0.37528 0.4145 0.75933 0.0
C2644 C 0.38539 0.42687 0.77476 0.0
H2645 H 0.31869 0.31556 0.79443 0.0
H2646 H 0.34037 0.3432 0.79376 0.0
C2647 C 0.39651 0.44251 0.77165 0.0
C2648 C 0.364 0.39736 0.7623 0.0
H2649 H 0.32988 0.38078 0.78332 0.0
C2650 C 0.36627 0.38051 0.7531 0.0
C2651 C 0.3508 0.39748 0.77351 0.0
C2652 C 0.3473 0.41511 0.7833 0.0
C2653 C 0.35556 0.36387 0.7545 0.0
C2654 C 0.34222 0.36407 0.76535 0.0
C2655 C 0.34019 0.38076 0.77503 0.0
C2656 C 0.32955 0.34717 0.76571 0.0
C2657 C 0.3584 0.34614 0.74426 0.0
C2658 C 0.3164 0.34035 0.75015 0.0
C2659 C 0.30394 0.32481 0.7506 0.0
C2660 C 0.30458 0.31571 0.76651 0.0
C2661 C 0.31799 0.32229 0.78194 0.0
C2662 C 0.33031 0.33806 0.78162 0.0
H2663 H 0.37082 0.34796 0.73885 0.0
H2664 H 0.35813 0.33558 0.75384 0.0
H2665 H 0.34786 0.3409 0.73204 0.0
H2666 H 0.31565 0.34722 0.73776 0.0
H2667 H 0.29377 0.31993 0.73853 0.0
H2668 H 0.21271 0.55818 0.28998 0.0
H2669 H 0.23009 0.58932 0.29135 0.0
H2670 H 0.18473 0.61219 0.29326 0.0
H2671 H 0.16772 0.58187 0.29244 0.0
H2672 H 0.22891 0.61353 0.267 0.0
H2673 H 0.2157 0.64838 0.33375 0.0
H2674 H 0.21017 0.62373 0.32734 0.0
H2675 H 0.19603 0.63794 0.31821 0.0
C2676 C 0.20651 0.56987 0.29104 0.0
C2677 C 0.18863 0.56713 0.291 0.0
C2678 C 0.21647 0.58778 0.29175 0.0
C2679 C 0.20894 0.60353 0.29273 0.0
C2680 C 0.19121 0.60071 0.29306 0.0
H2681 H 0.23289 0.72065 0.28176 0.0
H2682 H 0.22024 0.68926 0.28614 0.0
C2683 C 0.18135 0.58303 0.29235 0.0
C2684 C 0.219 0.62265 0.29196 0.0
H2685 H 0.22559 0.66808 0.3119 0.0
C2686 C 0.22836 0.62538 0.27702 0.0
C2687 C 0.2184 0.63847 0.30487 0.0
C2688 C 0.20968 0.63696 0.32204 0.0
C2689 C 0.23631 0.64312 0.27414 0.0
C2690 C 0.23537 0.65897 0.28678 0.0
C2691 C 0.22634 0.65621 0.30199 0.0
C2692 C 0.24333 0.67842 0.28434 0.0
C2693 C 0.24498 0.64465 0.25694 0.0
C2694 C 0.2607 0.68334 0.28214 0.0
C2695 C 0.26782 0.70124 0.27922 0.0
C2696 C 0.25798 0.71499 0.27895 0.0
C2697 C 0.24082 0.71038 0.28181 0.0
C2698 C 0.23359 0.69236 0.28437 0.0
H2699 H 0.24022 0.63235 0.2459 0.0
H2700 H 0.24291 0.65699 0.25056 0.0
H2701 H 0.25899 0.6457 0.2612 0.0
H2702 H 0.26889 0.67336 0.28278 0.0
H2703 H 0.28116 0.70441 0.27738 0.0
H2704 H 0.48832 0.69404 0.44602 0.0
H2705 H 0.49203 0.66779 0.46239 0.0
H2706 H 0.54706 0.68472 0.46787 0.0
H2707 H 0.54326 0.71172 0.45302 0.0
H2708 H 0.50358 0.63963 0.45352 0.0
H2709 H 0.54693 0.67467 0.51951 0.0
H2710 H 0.53675 0.68731 0.50311 0.0
H2711 H 0.55605 0.67943 0.4989 0.0
C2712 C 0.50118 0.69226 0.45104 0.0
C2713 C 0.51549 0.705 0.44845 0.0
C2714 C 0.50334 0.67722 0.46037 0.0
C2715 C 0.51987 0.67427 0.4669 0.0
C2716 C 0.53417 0.68689 0.46386 0.0
H2717 H 0.55717 0.58262 0.51136 0.0
H2718 H 0.55422 0.61128 0.49945 0.0
C2719 C 0.532 0.70226 0.45513 0.0
C2720 C 0.52199 0.65748 0.47579 0.0
H2721 H 0.54366 0.64214 0.51314 0.0
C2722 C 0.51222 0.64032 0.46669 0.0
C2723 C 0.5334 0.65807 0.49293 0.0
C2724 C 0.54374 0.67589 0.50425 0.0
C2725 C 0.51359 0.62393 0.47396 0.0
C2726 C 0.52496 0.62455 0.49104 0.0
C2727 C 0.53489 0.64161 0.5001 0.0
C2728 C 0.52685 0.60759 0.49951 0.0
C2729 C 0.50314 0.60603 0.46292 0.0
C2730 C 0.51257 0.59608 0.50409 0.0
C2731 C 0.51418 0.57953 0.51075 0.0
C2732 C 0.5302 0.57426 0.51336 0.0
C2733 C 0.54463 0.58621 0.50959 0.0
C2734 C 0.54297 0.60265 0.50273 0.0
H2735 H 0.49888 0.60728 0.44787 0.0
H2736 H 0.51058 0.5949 0.46327 0.0
H2737 H 0.49148 0.60196 0.46933 0.0
H2738 H 0.50008 0.59978 0.50229 0.0
H2739 H 0.50283 0.57078 0.51365 0.0
H2740 H 0.60697 0.30446 0.68484 0.0
H2741 H 0.63386 0.30013 0.70265 0.0
H2742 H 0.63926 0.26092 0.65579 0.0
H2743 H 0.61298 0.26616 0.63755 0.0
H2744 H 0.64377 0.27357 0.7166 0.0
H2745 H 0.68624 0.28901 0.66367 0.0
H2746 H 0.66454 0.29274 0.66071 0.0
H2747 H 0.66874 0.27003 0.6548 0.0
C2748 C 0.61404 0.29513 0.67821 0.0
C2749 C 0.60791 0.28597 0.65958 0.0
C2750 C 0.62945 0.29255 0.68847 0.0
C2751 C 0.63913 0.2805 0.68059 0.0
C2752 C 0.63268 0.2709 0.66213 0.0
H2753 H 0.73667 0.25223 0.73242 0.0
H2754 H 0.70894 0.25096 0.71217 0.0
C2755 C 0.61748 0.27381 0.65168 0.0
C2756 C 0.6556 0.27783 0.69196 0.0
H2757 H 0.69839 0.27837 0.69095 0.0
C2758 C 0.65567 0.27471 0.71089 0.0
C2759 C 0.67134 0.27899 0.68473 0.0
C2760 C 0.6728 0.28304 0.66493 0.0
C2761 C 0.67077 0.27307 0.72266 0.0
C2762 C 0.6865 0.27469 0.71555 0.0
C2763 C 0.6864 0.27715 0.6965 0.0
C2764 C 0.70332 0.27505 0.72799 0.0
C2765 C 0.6697 0.26951 0.74267 0.0
C2766 C 0.70966 0.28908 0.74355 0.0
C2767 C 0.72558 0.28999 0.75491 0.0
C2768 C 0.73567 0.27681 0.75119 0.0
C2769 C 0.72931 0.26264 0.7357 0.0
C2770 C 0.71341 0.26189 0.72411 0.0
H2771 H 0.65638 0.2634 0.74424 0.0
H2772 H 0.6783 0.26017 0.74702 0.0
H2773 H 0.67379 0.28273 0.75247 0.0
H2774 H 0.70237 0.29957 0.74679 0.0
H2775 H 0.72998 0.30108 0.7667 0.0
H2776 H 0.01817 0.30498 0.96799 0.0
H2777 H 0.0191 0.33497 0.98704 0.0
H2778 H 0.0287 0.36195 0.93894 0.0
H2779 H 0.02793 0.33258 0.92 0.0
H2780 H 0.04832 0.37311 0.99022 0.0
H2781 H 0.98085 0.37148 0.95777 0.0
H2782 H 0.9892 0.3508 0.95962 0.0
H2783 H 0.99498 0.36477 0.94205 0.0
C2784 C 0.02064 0.31733 0.96156 0.0
C2785 C 0.02282 0.3163 0.9424 0.0
C2786 C 0.02123 0.3344 0.97247 0.0
C2787 C 0.02391 0.35055 0.96429 0.0
C2788 C 0.02663 0.34961 0.94546 0.0
H2789 H 0.02534 0.46449 0.97941 0.0
H2790 H 0.02427 0.43177 0.96917 0.0
C2791 C 0.02614 0.33272 0.93466 0.0
C2792 C 0.02264 0.36842 0.97465 0.0
H2793 H 0.99686 0.39999 0.9747 0.0
C2794 C 0.03696 0.37888 0.98724 0.0
C2795 C 0.00789 0.37593 0.97036 0.0
C2796 C 0.99227 0.36518 0.95679 0.0
C2797 C 0.03706 0.39703 0.9952 0.0
C2798 C 0.0224 0.40461 0.99058 0.0
C2799 C 0.00797 0.39398 0.97835 0.0
C2800 C 0.02231 0.42409 0.99691 0.0
C2801 C 0.05307 0.40835 0.00769 0.0
C2802 C 0.02112 0.4304 0.01579 0.0
C2803 C 0.02137 0.44901 0.02155 0.0
C2804 C 0.02294 0.46139 0.00848 0.0
C2805 C 0.02387 0.45501 0.98959 0.0
C2806 C 0.02338 0.43644 0.98379 0.0
H2807 H 0.06387 0.40091 0.00866 0.0
H2808 H 0.05715 0.42136 0.0021 0.0
H2809 H 0.05029 0.41206 0.02219 0.0
H2810 H 0.02023 0.42098 0.02606 0.0
H2811 H 0.02102 0.45385 0.03628 0.0
H2812 H 0.99325 0.77299 0.13303 0.0
H2813 H 0.96387 0.76702 0.14076 0.0
H2814 H 0.98422 0.75829 0.19676 0.0
H2815 H 0.01316 0.76427 0.18939 0.0
H2816 H 0.94507 0.73371 0.15681 0.0
H2817 H 0.95656 0.8005 0.20424 0.0
H2818 H 0.96924 0.79625 0.18589 0.0
H2819 H 0.97332 0.78771 0.208 0.0
C2820 C 0.99144 0.76999 0.14704 0.0
C2821 C 0.00567 0.76937 0.16065 0.0
C2822 C 0.97464 0.76637 0.15136 0.0
C2823 C 0.97185 0.76226 0.1694 0.0
C2824 C 0.98602 0.7615 0.18281 0.0
H2825 H 0.89689 0.74379 0.24224 0.0
H2826 H 0.92112 0.74369 0.22504 0.0
C2827 C 1.00263 0.76501 0.17853 0.0
C2828 C 0.95447 0.75967 0.17505 0.0
H2829 H 0.93268 0.77797 0.20775 0.0
C2830 C 0.94219 0.74352 0.16769 0.0
C2831 C 0.95072 0.7724 0.18932 0.0
C2832 C 0.96307 0.79028 0.19725 0.0
C2833 C 0.92658 0.73955 0.17481 0.0
C2834 C 0.92325 0.75201 0.18964 0.0
C2835 C 0.93531 0.76833 0.19652 0.0
C2836 C 0.90754 0.74854 0.19864 0.0
C2837 C 0.91402 0.7218 0.16705 0.0
C2838 C 0.89167 0.75088 0.18942 0.0
C2839 C 0.87774 0.75101 0.19927 0.0
C2840 C 0.87937 0.7488 0.21858 0.0
C2841 C 0.89504 0.74539 0.2274 0.0
C2842 C 0.90897 0.74539 0.21758 0.0
H2843 H 0.91906 0.71287 0.15661 0.0
H2844 H 0.91091 0.71418 0.17884 0.0
H2845 H 0.90187 0.72485 0.16001 0.0
H2846 H 0.89029 0.75348 0.17487 0.0
H2847 H 0.86583 0.75342 0.19191 0.0
H2848 H 0.53652 0.28878 0.11181 0.0
H2849 H 0.54388 0.31714 0.09823 0.0
H2850 H 0.57537 0.34359 0.15142 0.0
H2851 H 0.56796 0.31562 0.16515 0.0
H2852 H 0.53637 0.35154 0.12321 0.0
H2853 H 0.602 0.35716 0.10406 0.0
H2854 H 0.58807 0.33512 0.10336 0.0
H2855 H 0.59768 0.34882 0.12575 0.0
C2856 C 0.54509 0.30063 0.12047 0.0
C2857 C 0.55127 0.30038 0.13958 0.0
C2858 C 0.54945 0.31659 0.1127 0.0
C2859 C 0.56029 0.33207 0.12392 0.0
C2860 C 0.56718 0.33154 0.14265 0.0
H2861 H 0.57804 0.44278 0.09308 0.0
H2862 H 0.58095 0.41782 0.11202 0.0
C2863 C 0.56265 0.31574 0.1505 0.0
C2864 C 0.56167 0.34972 0.11737 0.0
H2865 H 0.58752 0.38132 0.09853 0.0
C2866 C 0.54757 0.35817 0.11792 0.0
C2867 C 0.57655 0.35824 0.11111 0.0
C2868 C 0.592 0.34944 0.11094 0.0
C2869 C 0.54763 0.37489 0.11145 0.0
C2870 C 0.56205 0.38292 0.104 0.0
C2871 C 0.57656 0.37495 0.10436 0.0
C2872 C 0.56099 0.39785 0.09309 0.0
C2873 C 0.53204 0.38346 0.112 0.0
C2874 C 0.54901 0.39443 0.07636 0.0
C2875 C 0.54717 0.40845 0.06598 0.0
C2876 C 0.55751 0.42589 0.07205 0.0
C2877 C 0.56988 0.42931 0.0885 0.0
C2878 C 0.57158 0.41521 0.09913 0.0
H2879 H 0.52479 0.37891 0.12325 0.0
H2880 H 0.53569 0.3987 0.11451 0.0
H2881 H 0.52331 0.37913 0.09818 0.0
H2882 H 0.54105 0.3809 0.07142 0.0
H2883 H 0.53785 0.40563 0.05302 0.0
H2884 H 0.96509 0.31634 0.34647 0.0
H2885 H 0.93375 0.31066 0.34133 0.0
H2886 H 0.93182 0.25259 0.34083 0.0
H2887 H 0.96335 0.25842 0.34714 0.0
H2888 H 0.92593 0.27379 0.30403 0.0
H2889 H 0.88624 0.2819 0.36108 0.0
H2890 H 0.90748 0.29608 0.36478 0.0
H2891 H 0.90507 0.2717 0.36384 0.0
C2892 C 0.95788 0.30247 0.34566 0.0
C2893 C 0.9661 0.28762 0.34619 0.0
C2894 C 0.94017 0.29932 0.34336 0.0
C2895 C 0.93084 0.28126 0.34085 0.0
C2896 C 0.93908 0.26659 0.3431 0.0
H2897 H 0.83577 0.25123 0.26963 0.0
H2898 H 0.86609 0.2538 0.28034 0.0
C2899 C 0.95687 0.26984 0.34611 0.0
C2900 C 0.91425 0.27776 0.32912 0.0
H2901 H 0.87392 0.28481 0.32988 0.0
C2902 C 0.91434 0.27577 0.30951 0.0
C2903 C 0.89968 0.28076 0.33674 0.0
C2904 C 0.89945 0.28265 0.35778 0.0
C2905 C 0.90026 0.27796 0.29716 0.0
C2906 C 0.88586 0.28159 0.30482 0.0
C2907 C 0.88542 0.28256 0.32435 0.0
C2908 C 0.87024 0.2824 0.29276 0.0
C2909 C 0.90105 0.2772 0.27625 0.0
C2910 C 0.86308 0.298 0.29565 0.0
C2911 C 0.84565 0.2965 0.28997 0.0
C2912 C 0.83559 0.27942 0.28142 0.0
C2913 C 0.84328 0.2645 0.27648 0.0
C2914 C 0.86062 0.26598 0.28228 0.0
H2915 H 0.91438 0.27806 0.2733 0.0
H2916 H 0.8931 0.26406 0.2684 0.0
H2917 H 0.89578 0.28858 0.27067 0.0
H2918 H 0.87062 0.31071 0.30386 0.0
H2919 H 0.83993 0.30826 0.29354 0.0
H2920 H 0.0599 0.67833 0.6654 0.0
H2921 H 0.05835 0.65121 0.64178 0.0
H2922 H 0.03913 0.67958 0.59737 0.0
H2923 H 0.04057 0.70647 0.62045 0.0
H2924 H 0.02626 0.63309 0.61595 0.0
H2925 H 0.07997 0.65884 0.57878 0.0
H2926 H 0.07849 0.66861 0.6026 0.0
H2927 H 0.06571 0.6744 0.58255 0.0
C2928 C 0.05541 0.67875 0.65059 0.0
C2929 C 0.0503 0.69443 0.64475 0.0
C2930 C 0.05461 0.66338 0.63721 0.0
C2931 C 0.04894 0.66378 0.61801 0.0
C2932 C 0.04386 0.67934 0.61217 0.0
H2933 H 0.02376 0.58388 0.51481 0.0
H2934 H 0.02777 0.6127 0.53704 0.0
C2935 C 0.04454 0.69458 0.62543 0.0
C2936 C 0.0469 0.64754 0.60392 0.0
H2937 H 0.06003 0.63196 0.56308 0.0
C2938 C 0.0337 0.6327 0.60446 0.0
C2939 C 0.05653 0.64748 0.58895 0.0
C2940 C 0.07108 0.66313 0.5882 0.0
C2941 C 0.02971 0.61763 0.59007 0.0
C2942 C 0.03939 0.61757 0.5751 0.0
C2943 C 0.05254 0.63242 0.57453 0.0
C2944 C 0.03756 0.60111 0.56141 0.0
C2945 C 0.01526 0.60191 0.59096 0.0
C2946 C 0.04226 0.5857 0.56797 0.0
C2947 C 0.0399 0.56955 0.55561 0.0
C2948 C 0.0332 0.56871 0.53638 0.0
C2949 C 0.02912 0.58439 0.52957 0.0
C2950 C 0.03131 0.60067 0.54215 0.0
H2951 H 0.00621 0.60628 0.60013 0.0
H2952 H 0.00799 0.59607 0.57658 0.0
H2953 H 0.02069 0.59088 0.59705 0.0
H2954 H 0.04735 0.58606 0.5828 0.0
H2955 H 0.04274 0.55757 0.56138 0.0
H2956 H 0.58053 0.78438 0.87757 0.0
H2957 H 0.60397 0.78232 0.85946 0.0
H2958 H 0.573 0.79331 0.80985 0.0
H2959 H 0.54948 0.79534 0.82776 0.0
H2960 H 0.59488 0.75486 0.82101 0.0
H2961 H 0.62427 0.82785 0.81864 0.0
H2962 H 0.61339 0.82138 0.83792 0.0
H2963 H 0.6012 0.82053 0.81492 0.0
C2964 C 0.5789 0.78673 0.86293 0.0
C2965 C 0.56332 0.78986 0.85391 0.0
C2966 C 0.59219 0.78553 0.85267 0.0
C2967 C 0.58998 0.78773 0.83351 0.0
C2968 C 0.57476 0.79171 0.82471 0.0
H2969 H 0.66853 0.77459 0.76214 0.0
H2970 H 0.64171 0.78153 0.77138 0.0
C2971 C 0.56142 0.79277 0.8349 0.0
C2972 C 0.60304 0.78406 0.82228 0.0
H2973 H 0.63772 0.80496 0.80521 0.0
C2974 C 0.60415 0.76574 0.81729 0.0
C2975 C 0.61471 0.79841 0.81733 0.0
C2976 C 0.61348 0.81821 0.82245 0.0
C2977 C 0.61739 0.76135 0.80811 0.0
C2978 C 0.62983 0.77573 0.80426 0.0
C2979 C 0.6281 0.79405 0.80827 0.0
C2980 C 0.64584 0.77211 0.79855 0.0
C2981 C 0.61827 0.7414 0.8032 0.0
C2982 C 0.65695 0.76502 0.81106 0.0
C2983 C 0.67206 0.76107 0.8059 0.0
C2984 C 0.67634 0.7643 0.78818 0.0
C2985 C 0.66536 0.77183 0.77579 0.0
C2986 C 0.65017 0.77583 0.78103 0.0
H2987 H 0.60536 0.73236 0.80135 0.0
H2988 H 0.62379 0.73899 0.79001 0.0
H2989 H 0.62658 0.73739 0.81497 0.0
H2990 H 0.65385 0.76239 0.82479 0.0
H2991 H 0.68021 0.75511 0.81562 0.0
H2992 H 0.47731 0.52459 0.71884 0.0
H2993 H 0.49256 0.52894 0.69201 0.0
H2994 H 0.44873 0.49557 0.65387 0.0
H2995 H 0.43312 0.49202 0.68051 0.0
H2996 H 0.50292 0.50664 0.66658 0.0
H2997 H 0.45526 0.54011 0.62878 0.0
H2998 H 0.45475 0.53576 0.65279 0.0
H2999 H 0.44559 0.51781 0.63305 0.0
C3000 C 0.47091 0.51826 0.70469 0.0
C3001 C 0.45393 0.50819 0.70168 0.0
C3002 C 0.47966 0.52071 0.68939 0.0
C3003 C 0.47166 0.51296 0.67082 0.0
C3004 C 0.45496 0.50224 0.66795 0.0
H3005 H 0.5013 0.50459 0.55966 0.0
H3006 H 0.48837 0.50033 0.58815 0.0
C3007 C 0.44607 0.50012 0.68318 0.0
C3008 C 0.48067 0.51619 0.65445 0.0
H3009 H 0.47588 0.53041 0.61105 0.0
C3010 C 0.49705 0.51196 0.65451 0.0
C3011 C 0.47315 0.52338 0.63877 0.0
C3012 C 0.45631 0.52972 0.63841 0.0
C3013 C 0.5058 0.51417 0.63904 0.0
C3014 C 0.49793 0.52069 0.62315 0.0
C3015 C 0.48174 0.52518 0.6232 0.0
C3016 C 0.5062 0.52298 0.60621 0.0
C3017 C 0.52325 0.50924 0.63958 0.0
C3018 C 0.52031 0.5373 0.60692 0.0
C3019 C 0.52748 0.54 0.59057 0.0
C3020 C 0.52072 0.52831 0.5733 0.0
C3021 C 0.50663 0.51393 0.57269 0.0
C3022 C 0.49934 0.5114 0.58897 0.0
H3023 H 0.52646 0.50184 0.65163 0.0
H3024 H 0.52383 0.50054 0.62612 0.0
H3025 H 0.53316 0.52199 0.64107 0.0
H3026 H 0.52567 0.54649 0.62006 0.0
H3027 H 0.53846 0.55108 0.59153 0.0
H3028 H 0.81418 0.16821 0.97145 0.0
H3029 H 0.79461 0.17784 0.9476 0.0
H3030 H 0.80707 0.23302 0.97824 0.0
H3031 H 0.82659 0.2235 0.00258 0.0
H3032 H 0.76526 0.19914 0.96216 0.0
H3033 H 0.81087 0.23023 0.91744 0.0
H3034 H 0.81559 0.2126 0.93116 0.0
H3035 H 0.81634 0.2353 0.94296 0.0
C3036 C 0.81339 0.18259 0.97279 0.0
C3037 C 0.82162 0.19507 0.98908 0.0
C3038 C 0.80189 0.1879 0.95938 0.0
C3039 C 0.79908 0.20583 0.96182 0.0
C3040 C 0.80889 0.21896 0.97664 0.0
H3041 H 0.7427 0.26114 0.89208 0.0
H3042 H 0.74648 0.24723 0.92075 0.0
C3043 C 0.8203 0.21362 0.99021 0.0
C3044 C 0.78604 0.21081 0.94843 0.0
H3045 H 0.78146 0.22911 0.90772 0.0
C3046 C 0.76867 0.20581 0.95028 0.0
C3047 C 0.79081 0.21939 0.93316 0.0
C3048 C 0.8094 0.22471 0.93088 0.0
C3049 C 0.75575 0.20913 0.93672 0.0
C3050 C 0.76057 0.21733 0.92121 0.0
C3051 C 0.77796 0.22261 0.91969 0.0
C3052 C 0.74815 0.22086 0.90599 0.0
C3053 C 0.73714 0.20373 0.93866 0.0
C3054 C 0.74612 0.2099 0.88827 0.0
C3055 C 0.74412 0.21786 0.87184 0.0
C3056 C 0.74409 0.23671 0.87325 0.0
C3057 C 0.74272 0.24657 0.89068 0.0
C3058 C 0.74478 0.23861 0.9071 0.0
H3059 H 0.73549 0.19764 0.95177 0.0
H3060 H 0.73113 0.21599 0.93887 0.0
H3061 H 0.73021 0.19365 0.92614 0.0
H3062 H 0.74881 0.19617 0.88728 0.0
H3063 H 0.74502 0.21001 0.85844 0.0
H3064 H 0.14689 0.48892 0.2084 0.0
H3065 H 0.13089 0.49265 0.17789 0.0
H3066 H 0.09585 0.51767 0.20741 0.0
H3067 H 0.11155 0.51343 0.23797 0.0
H3068 H 0.09503 0.47895 0.16044 0.0
H3069 H 0.11 0.55507 0.1711 0.0
H3070 H 0.12225 0.5419 0.185 0.0
H3071 H 0.10154 0.5448 0.19006 0.0
C3072 C 0.13574 0.49518 0.20852 0.0
C3073 C 0.13067 0.5007 0.22607 0.0
C3074 C 0.12649 0.49733 0.19085 0.0
C3075 C 0.11196 0.50562 0.18977 0.0
C3076 C 0.10696 0.51135 0.20733 0.0
H3077 H 0.03856 0.53094 0.09686 0.0
H3078 H 0.05616 0.52865 0.12673 0.0
C3079 C 0.11598 0.50878 0.22502 0.0
C3080 C 0.10211 0.50796 0.17045 0.0
H3081 H 0.0904 0.54023 0.14352 0.0
C3082 C 0.09419 0.49242 0.15681 0.0
C3083 C 0.1006 0.5254 0.16517 0.0
C3084 C 0.10912 0.54282 0.17846 0.0
C3085 C 0.08482 0.49376 0.13878 0.0
C3086 C 0.08345 0.51119 0.13335 0.0
C3087 C 0.09133 0.52676 0.14706 0.0
C3088 C 0.07326 0.51342 0.11413 0.0
C3089 C 0.07577 0.47629 0.12589 0.0
C3090 C 0.07677 0.50612 0.09619 0.0
C3091 C 0.0667 0.50776 0.07865 0.0
C3092 C 0.05254 0.51663 0.07827 0.0
C3093 C 0.04931 0.52411 0.09619 0.0
C3094 C 0.05948 0.52276 0.11356 0.0
H3095 H 0.07455 0.46426 0.13358 0.0
H3096 H 0.06273 0.47752 0.11937 0.0
H3097 H 0.0832 0.47365 0.11429 0.0
H3098 H 0.08733 0.49899 0.09568 0.0
H3099 H 0.06963 0.50144 0.06547 0.0
H3100 H 0.81226 0.84655 0.48633 0.0
H3101 H 0.81146 0.82782 0.45571 0.0
H3102 H 0.76084 0.8372 0.43648 0.0
H3103 H 0.76208 0.85685 0.4667 0.0
H3104 H 0.79137 0.79729 0.43608 0.0
H3105 H 0.78541 0.85516 0.39577 0.0
H3106 H 0.78961 0.85841 0.42135 0.0
H3107 H 0.76816 0.84935 0.40873 0.0
C3108 C 0.80091 0.84442 0.47561 0.0
C3109 C 0.78731 0.85321 0.47868 0.0
C3110 C 0.80046 0.83378 0.45813 0.0
C3111 C 0.78628 0.83151 0.44364 0.0
C3112 C 0.77216 0.83929 0.44721 0.0
H3113 H 0.76285 0.76606 0.33307 0.0
H3114 H 0.76333 0.7787 0.36609 0.0
C3115 C 0.7728 0.85034 0.4645 0.0
C3116 C 0.78665 0.82154 0.42466 0.0
H3117 H 0.7844 0.82619 0.37781 0.0
C3118 C 0.78988 0.80364 0.42336 0.0
C3119 C 0.78479 0.82989 0.40806 0.0
C3120 C 0.78196 0.84931 0.40852 0.0
C3121 C 0.79124 0.79387 0.40591 0.0
C3122 C 0.78929 0.8022 0.38947 0.0
C3123 C 0.78598 0.81999 0.39063 0.0
C3124 C 0.78999 0.79242 0.37068 0.0
C3125 C 0.7948 0.77474 0.40498 0.0
C3126 C 0.80503 0.7956 0.36269 0.0
C3127 C 0.80487 0.78832 0.3438 0.0
C3128 C 0.78956 0.77804 0.33274 0.0
C3129 C 0.77481 0.77404 0.34123 0.0
C3130 C 0.77503 0.78122 0.36006 0.0
H3131 H 0.79666 0.77041 0.41921 0.0
H3132 H 0.78392 0.76489 0.39576 0.0
H3133 H 0.80648 0.77405 0.39847 0.0
H3134 H 0.81666 0.80431 0.37082 0.0
H3135 H 0.81636 0.79171 0.33757 0.0
H3136 H 0.4772 0.48262 0.81037 0.0
H3137 H 0.48765 0.48967 0.84438 0.0
H3138 H 0.45917 0.53321 0.84894 0.0
H3139 H 0.44838 0.52613 0.81475 0.0
H3140 H 0.50678 0.52476 0.86392 0.0
H3141 H 0.44551 0.50124 0.89025 0.0
H3142 H 0.44846 0.49392 0.86627 0.0
H3143 H 0.44532 0.51678 0.87307 0.0
C3144 C 0.47313 0.4937 0.81855 0.0
C3145 C 0.46203 0.50386 0.80987 0.0
C3146 C 0.47909 0.49768 0.83796 0.0
C3147 C 0.47408 0.51187 0.84902 0.0
C3148 C 0.46298 0.52207 0.84055 0.0
H3149 H 0.50887 0.54585 0.97052 0.0
H3150 H 0.49743 0.54623 0.93731 0.0
C3151 C 0.45692 0.51804 0.82106 0.0
C3152 C 0.48104 0.51609 0.86937 0.0
H3153 H 0.47048 0.51164 0.91307 0.0
C3154 C 0.49885 0.52211 0.87472 0.0
C3155 C 0.47055 0.51255 0.88326 0.0
C3156 C 0.4514 0.50566 0.87804 0.0
C3157 C 0.50657 0.52417 0.89368 0.0
C3158 C 0.49614 0.52009 0.90743 0.0
C3159 C 0.47829 0.51474 0.90227 0.0
C3160 C 0.50367 0.52026 0.92714 0.0
C3161 C 0.5258 0.53023 0.89894 0.0
C3162 C 0.51087 0.50547 0.93208 0.0
C3163 C 0.51725 0.50509 0.95097 0.0
C3164 C 0.51656 0.51958 0.96505 0.0
C3165 C 0.50957 0.53452 0.95993 0.0
C3166 C 0.50304 0.53478 0.94105 0.0
H3167 H 0.53175 0.53546 0.8871 0.0
H3168 H 0.52914 0.54115 0.91154 0.0
H3169 H 0.53142 0.51841 0.90274 0.0
H3170 H 0.51135 0.49416 0.92134 0.0
H3171 H 0.5227 0.49348 0.95453 0.0
H3172 H 0.83485 0.20344 0.09761 0.0
H3173 H 0.83252 0.22547 0.12496 0.0
H3174 H 0.77849 0.20184 0.11915 0.0
H3175 H 0.78075 0.17963 0.09237 0.0
H3176 H 0.79997 0.24903 0.12805 0.0
H3177 H 0.81072 0.19472 0.17239 0.0
H3178 H 0.81999 0.19698 0.15109 0.0
H3179 H 0.79752 0.18763 0.14938 0.0
C3180 C 0.82257 0.20301 0.10238 0.0
C3181 C 0.80807 0.18972 0.09361 0.0
C3182 C 0.82123 0.21566 0.11755 0.0
C3183 C 0.80534 0.21504 0.1235 0.0
C3184 C 0.79075 0.20228 0.11432 0.0
H3185 H 0.76421 0.24651 0.2215 0.0
H3186 H 0.76834 0.23316 0.18999 0.0
C3187 C 0.79215 0.18947 0.09948 0.0
C3188 C 0.80419 0.22552 0.14115 0.0
H3189 H 0.79998 0.21956 0.18626 0.0
C3190 C 0.80026 0.24291 0.14096 0.0
C3191 C 0.80437 0.21694 0.15748 0.0
C3192 C 0.80846 0.19805 0.15775 0.0
C3193 C 0.79596 0.25197 0.15712 0.0
C3194 C 0.79581 0.24318 0.17331 0.0
C3195 C 0.80004 0.22594 0.17351 0.0
C3196 C 0.79239 0.25207 0.19079 0.0
C3197 C 0.79121 0.27053 0.15678 0.0
C3198 C 0.80486 0.26657 0.20122 0.0
C3199 C 0.80256 0.27409 0.21891 0.0
C3200 C 0.78789 0.26692 0.22612 0.0
C3201 C 0.77555 0.25212 0.21586 0.0
C3202 C 0.77778 0.2447 0.19803 0.0
H3203 H 0.78889 0.27382 0.14213 0.0
H3204 H 0.77952 0.27109 0.16332 0.0
H3205 H 0.80183 0.28126 0.16524 0.0
H3206 H 0.81645 0.27179 0.19581 0.0
H3207 H 0.81232 0.28532 0.22701 0.0
H3208 H 0.13606 0.48848 0.34949 0.0
H3209 H 0.12346 0.49075 0.37907 0.0
H3210 H 0.11286 0.54355 0.36986 0.0
H3211 H 0.12505 0.54135 0.34074 0.0
H3212 H 0.12921 0.51745 0.41426 0.0
H3213 H 0.06508 0.516 0.37345 0.0
H3214 H 0.08237 0.50977 0.36215 0.0
H3215 H 0.08189 0.53355 0.36912 0.0
C3216 C 0.13125 0.50067 0.35385 0.0
C3217 C 0.13152 0.51456 0.34215 0.0
C3218 C 0.12391 0.50197 0.37088 0.0
C3219 C 0.11655 0.51715 0.37683 0.0
C3220 C 0.11778 0.53137 0.36569 0.0
H3221 H 0.05104 0.54519 0.4627 0.0
H3222 H 0.0678 0.54452 0.43649 0.0
C3223 C 0.12495 0.53008 0.34884 0.0
C3224 C 0.10709 0.51815 0.39401 0.0
H3225 H 0.06792 0.52226 0.40678 0.0
C3226 C 0.11576 0.51829 0.41251 0.0
C3227 C 0.08955 0.51979 0.39233 0.0
C3228 C 0.07909 0.51964 0.3732 0.0
C3229 C 0.10763 0.52019 0.42891 0.0
C3230 C 0.0899 0.52128 0.42714 0.0
C3231 C 0.08135 0.52132 0.40864 0.0
C3232 C 0.07998 0.52224 0.44401 0.0
C3233 C 0.11851 0.52186 0.44812 0.0
C3234 C 0.08075 0.51003 0.4575 0.0
C3235 C 0.07143 0.51077 0.47286 0.0
C3236 C 0.06048 0.52337 0.47517 0.0
C3237 C 0.05932 0.53531 0.46154 0.0
C3238 C 0.06897 0.53487 0.44639 0.0
H3239 H 0.13228 0.52722 0.44772 0.0
H3240 H 0.11429 0.53112 0.45901 0.0
H3241 H 0.11747 0.50808 0.45253 0.0
H3242 H 0.08834 0.49954 0.45601 0.0
H3243 H 0.07244 0.50105 0.48273 0.0
H3244 H 0.82082 0.8573 0.60115 0.0
H3245 H 0.81809 0.8405 0.62811 0.0
H3246 H 0.76299 0.82766 0.61127 0.0
H3247 H 0.76596 0.84301 0.58345 0.0
H3248 H 0.80544 0.84589 0.65761 0.0
H3249 H 0.76749 0.77874 0.6205 0.0
H3250 H 0.77651 0.79628 0.60765 0.0
H3251 H 0.75642 0.79687 0.6161 0.0
C3252 C 0.80818 0.85061 0.60311 0.0
C3253 C 0.79363 0.85129 0.59015 0.0
C3254 C 0.80658 0.84103 0.61856 0.0
C3255 C 0.79034 0.83233 0.62173 0.0
C3256 C 0.77575 0.83345 0.60891 0.0
H3257 H 0.75178 0.78751 0.71579 0.0
H3258 H 0.757 0.80158 0.68782 0.0
C3259 C 0.77742 0.84244 0.59308 0.0
C3260 C 0.78873 0.82298 0.63889 0.0
H3261 H 0.76908 0.78418 0.65418 0.0
C3262 C 0.79768 0.83226 0.6567 0.0
C3263 C 0.77854 0.80517 0.63801 0.0
C3264 C 0.76935 0.79364 0.6195 0.0
C3265 C 0.79649 0.8245 0.67345 0.0
C3266 C 0.78607 0.80696 0.67252 0.0
C3267 C 0.77714 0.79761 0.65484 0.0
C3268 C 0.78341 0.7985 0.68985 0.0
C3269 C 0.806 0.83531 0.69216 0.0
C3270 C 0.79653 0.7919 0.70033 0.0
C3271 C 0.7935 0.78348 0.71633 0.0
C3272 C 0.77737 0.78183 0.72224 0.0
C3273 C 0.76437 0.78855 0.71169 0.0
C3274 C 0.76732 0.79665 0.69567 0.0
H3275 H 0.8116 0.84972 0.69087 0.0
H3276 H 0.79727 0.83545 0.70286 0.0
H3277 H 0.81659 0.82863 0.69751 0.0
H3278 H 0.80903 0.79303 0.69598 0.0
H3279 H 0.80369 0.77823 0.72395 0.0
H3280 H 0.71929 0.38554 0.52143 0.0
H3281 H 0.69859 0.39617 0.53972 0.0
H3282 H 0.6739 0.41375 0.48993 0.0
H3283 H 0.69492 0.40321 0.4715 0.0
H3284 H 0.69935 0.43712 0.53708 0.0
H3285 H 0.63534 0.38993 0.52229 0.0
H3286 H 0.65522 0.38191 0.52134 0.0
H3287 H 0.64661 0.39294 0.50254 0.0
C3288 C 0.70907 0.39119 0.51433 0.0
C3289 C 0.70852 0.39401 0.49538 0.0
C3290 C 0.69729 0.39703 0.52468 0.0
C3291 C 0.68488 0.4055 0.51599 0.0
C3292 C 0.6834 0.40691 0.49658 0.0
H3293 H 0.63307 0.48467 0.5194 0.0
H3294 H 0.65234 0.46297 0.51856 0.0
C3295 C 0.69532 0.4011 0.48617 0.0
C3296 C 0.67618 0.41647 0.5279 0.0
H3297 H 0.63638 0.42117 0.53552 0.0
C3298 C 0.68567 0.4335 0.53738 0.0
C3299 C 0.6585 0.4114 0.52804 0.0
C3300 C 0.64825 0.39299 0.51812 0.0
C3301 C 0.67742 0.44648 0.54563 0.0
C3302 C 0.65948 0.44195 0.54446 0.0
C3303 C 0.65025 0.4243 0.53652 0.0
C3304 C 0.64972 0.45637 0.5466 0.0
C3305 C 0.68757 0.46546 0.55384 0.0
C3306 C 0.64223 0.45967 0.56277 0.0
C3307 C 0.63128 0.47212 0.56331 0.0
C3308 C 0.62768 0.4809 0.54753 0.0
C3309 C 0.63561 0.47783 0.5316 0.0
C3310 C 0.64663 0.46564 0.53117 0.0
H3311 H 0.70154 0.46565 0.55717 0.0
H3312 H 0.68564 0.47493 0.54338 0.0
H3313 H 0.683 0.47074 0.56693 0.0
H3314 H 0.64454 0.45235 0.57465 0.0
H3315 H 0.62517 0.47442 0.57567 0.0
H3316 H 0.22327 0.10553 0.51953 0.0
H3317 H 0.19503 0.08931 0.52433 0.0
H3318 H 0.1711 0.12971 0.49941 0.0
H3319 H 0.19935 0.14627 0.49506 0.0
H3320 H 0.16717 0.10637 0.54427 0.0
H3321 H 0.14761 0.07502 0.46838 0.0
H3322 H 0.16988 0.08239 0.47928 0.0
H3323 H 0.15735 0.09912 0.47364 0.0
C3324 C 0.21199 0.11095 0.51502 0.0
C3325 C 0.2136 0.12712 0.5067 0.0
C3326 C 0.19584 0.10171 0.51789 0.0
C3327 C 0.18084 0.10817 0.51214 0.0
C3328 C 0.18242 0.12438 0.50394 0.0
H3329 H 0.07094 0.05737 0.50277 0.0
H3330 H 0.09813 0.07807 0.50103 0.0
C3331 C 0.19861 0.13384 0.50144 0.0
C3332 C 0.1635 0.09769 0.51413 0.0
H3333 H 0.12726 0.06901 0.48856 0.0
C3334 C 0.15844 0.0982 0.53209 0.0
C3335 C 0.15199 0.08709 0.49828 0.0
C3336 C 0.15689 0.08568 0.47876 0.0
C3337 C 0.14225 0.08848 0.53457 0.0
C3338 C 0.13081 0.07761 0.51871 0.0
C3339 C 0.13585 0.07732 0.50074 0.0
C3340 C 0.11398 0.06575 0.52053 0.0
C3341 C 0.13742 0.09023 0.55414 0.0
C3342 C 0.11363 0.0518 0.53195 0.0
C3343 C 0.09814 0.04 0.53293 0.0
C3344 C 0.08247 0.04166 0.52242 0.0
C3345 C 0.08273 0.05569 0.51106 0.0
C3346 C 0.09831 0.06753 0.51006 0.0
H3347 H 0.14511 0.10281 0.56341 0.0
H3348 H 0.12358 0.09059 0.55344 0.0
H3349 H 0.13992 0.0782 0.56084 0.0
H3350 H 0.12544 0.04971 0.53984 0.0
H3351 H 0.0985 0.02934 0.54179 0.0
H3352 H 0.17408 0.98822 0.80862 0.0
H3353 H 0.18682 0.96146 0.80002 0.0
H3354 H 0.15638 0.95163 0.74413 0.0
H3355 H 0.14326 0.97796 0.7528 0.0
H3356 H 0.1627 0.92168 0.78028 0.0
H3357 H 0.21272 0.95645 0.74275 0.0
H3358 H 0.20436 0.96906 0.76118 0.0
H3359 H 0.19115 0.96061 0.73852 0.0
C3360 C 0.17017 0.9803 0.79454 0.0
C3361 C 0.15771 0.98494 0.78138 0.0
C3362 C 0.17739 0.96513 0.78966 0.0
C3363 C 0.17253 0.95484 0.77144 0.0
C3364 C 0.16022 0.95953 0.75823 0.0
H3365 H 0.21656 0.86056 0.73091 0.0
H3366 H 0.1995 0.88477 0.73003 0.0
C3367 C 0.15273 0.97444 0.76323 0.0
C3368 C 0.18004 0.93883 0.76644 0.0
H3369 H 0.21272 0.92557 0.74624 0.0
C3370 C 0.1735 0.92241 0.77265 0.0
C3371 C 0.19393 0.93995 0.75627 0.0
C3372 C 0.20108 0.95744 0.74925 0.0
C3373 C 0.18102 0.9071 0.76957 0.0
C3374 C 0.1955 0.90851 0.76032 0.0
C3375 C 0.20155 0.92466 0.75329 0.0
C3376 C 0.20581 0.89425 0.76026 0.0
C3377 C 0.1738 0.8897 0.77672 0.0
C3378 C 0.21504 0.892 0.77748 0.0
C3379 C 0.2246 0.87834 0.77804 0.0
C3380 C 0.22516 0.86677 0.76134 0.0
C3381 C 0.21618 0.86927 0.74397 0.0
C3382 C 0.20652 0.88301 0.74344 0.0
H3383 H 0.1604 0.88931 0.77925 0.0
H3384 H 0.17406 0.87743 0.76645 0.0
H3385 H 0.1818 0.88891 0.79034 0.0
H3386 H 0.21483 0.90086 0.79051 0.0
H3387 H 0.23183 0.87705 0.79151 0.0
H3388 H 0.31637 0.88413 0.04225 0.0
H3389 H 0.34454 0.9024 0.04053 0.0
H3390 H 0.33051 0.89792 0.97986 0.0
H3391 H 0.30272 0.87905 0.98134 0.0
H3392 H 0.37155 0.90175 0.00535 0.0
H3393 H 0.33007 0.95301 0.01775 0.0
H3394 H 0.32613 0.93158 0.02697 0.0
H3395 H 0.32189 0.93164 0.00189 0.0
C3396 C 0.31977 0.88612 0.02848 0.0
C3397 C 0.30754 0.88043 0.01198 0.0
C3398 C 0.33574 0.89653 0.02751 0.0
C3399 C 0.33925 0.90155 0.01012 0.0
C3400 C 0.32791 0.89396 0.99333 0.0
H3401 H 0.40963 0.9949 0.98987 0.0
H3402 H 0.38265 0.97415 0.99098 0.0
C3403 C 0.31211 0.88316 0.99423 0.0
C3404 C 0.35246 0.91774 0.01028 0.0
H3405 H 0.35943 0.96451 0.01841 0.0
C3406 C 0.36898 0.91548 0.00812 0.0
C3407 C 0.3487 0.93548 0.01356 0.0
C3408 C 0.33075 0.93824 0.01517 0.0
C3409 C 0.38222 0.9308 0.00976 0.0
C3410 C 0.3787 0.94856 0.01417 0.0
C3411 C 0.36199 0.95079 0.01554 0.0
C3412 C 0.39237 0.96489 0.01688 0.0
C3413 C 0.39985 0.92791 0.00674 0.0
C3414 C 0.40599 0.9675 0.032 0.0
C3415 C 0.42134 0.97932 0.03143 0.0
C3416 C 0.42299 0.98853 0.01574 0.0
C3417 C 0.40854 0.98791 0.0021 0.0
C3418 C 0.39321 0.97601 0.00264 0.0
H3419 H 0.39942 0.91389 0.9993 0.0
H3420 H 0.40576 0.93811 0.99836 0.0
H3421 H 0.40825 0.92975 0.02072 0.0
H3422 H 0.40531 0.95911 0.04322 0.0
H3423 H 0.43239 0.97978 0.04212 0.0
H3424 H 0.89293 0.60795 0.77556 0.0
H3425 H 0.87808 0.6339 0.77614 0.0
H3426 H 0.83702 0.60148 0.7339 0.0
H3427 H 0.85147 0.57531 0.73406 0.0
H3428 H 0.86949 0.65675 0.75581 0.0
H3429 H 0.80518 0.61969 0.76296 0.0
H3430 H 0.82347 0.60879 0.7648 0.0
H3431 H 0.81232 0.61088 0.74185 0.0
C3432 C 0.88063 0.60613 0.76648 0.0
C3433 C 0.8736 0.58889 0.75498 0.0
C3434 C 0.87197 0.62129 0.76677 0.0
C3435 C 0.85571 0.62031 0.75552 0.0
C3436 C 0.84895 0.60318 0.74357 0.0
H3437 H 0.78355 0.70107 0.74564 0.0
H3438 H 0.79747 0.67436 0.74228 0.0
C3439 C 0.8575 0.58793 0.74348 0.0
C3440 C 0.84644 0.63713 0.75613 0.0
H3441 H 0.80743 0.65051 0.75835 0.0
C3442 C 0.85591 0.65515 0.75651 0.0
C3443 C 0.82847 0.63599 0.75663 0.0
C3444 C 0.81677 0.61784 0.7567 0.0
C3445 C 0.8484 0.67122 0.75714 0.0
C3446 C 0.83056 0.6702 0.75836 0.0
C3447 C 0.82101 0.65213 0.75767 0.0
C3448 C 0.82167 0.68732 0.76032 0.0
C3449 C 0.85991 0.68907 0.75554 0.0
C3450 C 0.82977 0.70434 0.7718 0.0
C3451 C 0.82189 0.72001 0.77318 0.0
C3452 C 0.80502 0.71958 0.76391 0.0
C3453 C 0.7965 0.70242 0.75308 0.0
C3454 C 0.80463 0.68685 0.75119 0.0
H3455 H 0.87048 0.68665 0.74769 0.0
H3456 H 0.85269 0.69815 0.74811 0.0
H3457 H 0.86593 0.69624 0.76997 0.0
H3458 H 0.84232 0.70567 0.78013 0.0
H3459 H 0.82903 0.73255 0.78204 0.0
H3460 H 0.81392 0.6232 0.05052 0.0
H3461 H 0.84247 0.61621 0.05631 0.0
H3462 H 0.85226 0.632 0.00258 0.0
H3463 H 0.82353 0.63963 0.99694 0.0
H3464 H 0.8515 0.58926 0.03467 0.0
H3465 H 0.89841 0.65392 0.03667 0.0
H3466 H 0.87638 0.65352 0.03975 0.0
H3467 H 0.88161 0.64878 0.01637 0.0
C3468 C 0.82219 0.62541 0.03998 0.0
C3469 C 0.81632 0.63161 0.02307 0.0
C3470 C 0.83859 0.62149 0.04338 0.0
C3471 C 0.8496 0.62351 0.02992 0.0
C3472 C 0.84414 0.63057 0.01336 0.0
H3473 H 0.93493 0.57421 0.00704 0.0
H3474 H 0.91189 0.59138 0.00733 0.0
C3475 C 0.82767 0.6348 0.01005 0.0
C3476 C 0.86565 0.61599 0.03234 0.0
H3477 H 0.90924 0.62622 0.03401 0.0
C3478 C 0.86412 0.59744 0.03469 0.0
C3479 C 0.88219 0.62662 0.03253 0.0
C3480 C 0.88485 0.64687 0.03139 0.0
C3481 C 0.87848 0.58913 0.03666 0.0
C3482 C 0.89492 0.59958 0.03628 0.0
C3483 C 0.89659 0.61821 0.03422 0.0
C3484 C 0.91027 0.59096 0.03698 0.0
C3485 C 0.87592 0.56906 0.03869 0.0
C3486 C 0.9173 0.5853 0.0537 0.0
C3487 C 0.93076 0.57567 0.05372 0.0
C3488 C 0.93742 0.57134 0.03694 0.0
C3489 C 0.93051 0.57749 0.02035 0.0
C3490 C 0.9172 0.58726 0.02042 0.0
H3491 H 0.86212 0.56232 0.03622 0.0
H3492 H 0.88253 0.56169 0.02854 0.0
H3493 H 0.88165 0.56768 0.05325 0.0
H3494 H 0.91218 0.5881 0.06668 0.0
H3495 H 0.93585 0.57155 0.06688 0.0
H3496 H 0.16738 0.10582 0.8186 0.0
H3497 H 0.18851 0.13307 0.81548 0.0
H3498 H 0.18859 0.1105 0.75737 0.0
H3499 H 0.16741 0.08334 0.76049 0.0
H3500 H 0.22171 0.13527 0.80513 0.0
H3501 H 0.17767 0.16166 0.75353 0.0
H3502 H 0.17006 0.14406 0.76713 0.0
H3503 H 0.18 0.13842 0.7469 0.0
C3504 C 0.17212 0.10668 0.80529 0.0
C3505 C 0.16604 0.09261 0.78983 0.0
C3506 C 0.18408 0.12219 0.80347 0.0
C3507 C 0.1899 0.12388 0.78612 0.0
C3508 C 0.18405 0.10958 0.77078 0.0
H3509 H 0.25713 0.21348 0.74961 0.0
H3510 H 0.23654 0.18526 0.75094 0.0
C3511 C 0.17214 0.09406 0.77262 0.0
C3512 C 0.20215 0.14063 0.78418 0.0
H3513 H 0.20639 0.1781 0.76128 0.0
C3514 C 0.21839 0.14467 0.79556 0.0
C3515 C 0.19779 0.15272 0.77153 0.0
C3516 C 0.18039 0.14914 0.75915 0.0
C3517 C 0.2305 0.16044 0.79459 0.0
C3518 C 0.22601 0.17288 0.78237 0.0
C3519 C 0.2098 0.16867 0.77076 0.0
C3520 C 0.23794 0.19031 0.78147 0.0
C3521 C 0.24813 0.16329 0.80635 0.0
C3522 C 0.24526 0.20276 0.79808 0.0
C3523 C 0.25738 0.2185 0.79738 0.0
C3524 C 0.2618 0.22243 0.77997 0.0
C3525 C 0.25382 0.21062 0.7632 0.0
C3526 C 0.24209 0.19456 0.76396 0.0
H3527 H 0.25121 0.15008 0.80983 0.0
H3528 H 0.25823 0.1699 0.79889 0.0
H3529 H 0.2485 0.17223 0.81995 0.0
H3530 H 0.24177 0.20021 0.81165 0.0
H3531 H 0.26326 0.22766 0.81041 0.0
H3532 H 0.3948 0.95549 0.24022 0.0
H3533 H 0.3781 0.92545 0.24207 0.0
H3534 H 0.33788 0.95072 0.26053 0.0
H3535 H 0.35477 0.98131 0.25876 0.0
H3536 H 0.36792 0.9118 0.27307 0.0
H3537 H 0.31034 0.90865 0.21953 0.0
H3538 H 0.33011 0.92504 0.22075 0.0
H3539 H 0.31571 0.92889 0.23719 0.0
C3540 C 0.38235 0.95489 0.24457 0.0
C3541 C 0.37635 0.97124 0.24939 0.0
C3542 C 0.37274 0.93747 0.24565 0.0
C3543 C 0.35654 0.93544 0.25136 0.0
C3544 C 0.3502 0.95163 0.2558 0.0
H3545 H 0.29152 0.8394 0.28344 0.0
H3546 H 0.30579 0.87029 0.27947 0.0
C3547 C 0.35994 0.96925 0.25483 0.0
C3548 C 0.34696 0.91649 0.25342 0.0
H3549 H 0.30947 0.88446 0.23786 0.0
C3550 C 0.35513 0.90592 0.26533 0.0
C3551 C 0.33029 0.90837 0.24325 0.0
C3552 C 0.32109 0.91819 0.22931 0.0
C3553 C 0.34713 0.88799 0.26755 0.0
C3554 C 0.33042 0.88003 0.25759 0.0
C3555 C 0.32222 0.89047 0.24563 0.0
C3556 C 0.32135 0.86095 0.25954 0.0
C3557 C 0.35653 0.87761 0.28071 0.0
C3558 C 0.32505 0.84513 0.24953 0.0
C3559 C 0.31665 0.82734 0.25153 0.0
C3560 C 0.30447 0.82479 0.26386 0.0
C3561 C 0.30082 0.84068 0.27387 0.0
C3562 C 0.30899 0.85844 0.27159 0.0
H3563 H 0.36886 0.88612 0.28859 0.0
H3564 H 0.34835 0.8728 0.29108 0.0
H3565 H 0.35925 0.86529 0.27237 0.0
H3566 H 0.33451 0.84654 0.24015 0.0
H3567 H 0.31995 0.81555 0.24366 0.0
H3568 H 0.54391 0.31863 0.57011 0.0
H3569 H 0.54004 0.34516 0.55413 0.0
H3570 H 0.55357 0.38066 0.60805 0.0
H3571 H 0.5573 0.35435 0.62409 0.0
H3572 H 0.51741 0.37184 0.5617 0.0
H3573 H 0.58657 0.40446 0.57364 0.0
H3574 H 0.57913 0.38047 0.57499 0.0
H3575 H 0.57848 0.39779 0.59437 0.0
C3576 C 0.54611 0.3321 0.57857 0.0
C3577 C 0.55099 0.33431 0.59843 0.0
C3578 C 0.54383 0.34725 0.5694 0.0
C3579 C 0.54665 0.36498 0.57985 0.0
C3580 C 0.55148 0.36719 0.59964 0.0
H3581 H 0.55197 0.47757 0.56253 0.0
H3582 H 0.55327 0.44816 0.57342 0.0
C3583 C 0.55357 0.35207 0.60881 0.0
C3584 C 0.54464 0.38128 0.57028 0.0
H3585 H 0.56702 0.4224 0.56283 0.0
C3586 C 0.52824 0.38289 0.5618 0.0
C3587 C 0.55876 0.39567 0.57037 0.0
C3588 C 0.57677 0.39453 0.57867 0.0
C3589 C 0.52545 0.39887 0.55428 0.0
C3590 C 0.5396 0.41352 0.55471 0.0
C3591 C 0.55607 0.41146 0.5626 0.0
C3592 C 0.53783 0.43144 0.54797 0.0
C3593 C 0.50724 0.40007 0.5468 0.0
C3594 C 0.52867 0.43222 0.53 0.0
C3595 C 0.52746 0.44921 0.52404 0.0
C3596 C 0.53605 0.46576 0.53553 0.0
C3597 C 0.54547 0.46502 0.55325 0.0
C3598 C 0.54617 0.44814 0.55948 0.0
H3599 H 0.49778 0.39056 0.55274 0.0
H3600 H 0.50502 0.41423 0.55021 0.0
H3601 H 0.50472 0.39604 0.53116 0.0
H3602 H 0.52262 0.41973 0.52042 0.0
H3603 H 0.52013 0.4494 0.51028 0.0
H3604 H 0.46161 0.79024 0.38577 0.0
H3605 H 0.4324 0.79142 0.37156 0.0
H3606 H 0.42092 0.73239 0.35691 0.0
H3607 H 0.45002 0.73122 0.37207 0.0
H3608 H 0.4176 0.78366 0.33696 0.0
H3609 H 0.37798 0.73813 0.37579 0.0
H3610 H 0.40078 0.74605 0.38342 0.0
H3611 H 0.39269 0.72649 0.36506 0.0
C3612 C 0.45268 0.77746 0.37996 0.0
C3613 C 0.45806 0.76061 0.38034 0.0
C3614 C 0.43596 0.77815 0.37168 0.0
C3615 C 0.42411 0.76201 0.3632 0.0
C3616 C 0.42944 0.74508 0.36379 0.0
H3617 H 0.32734 0.73413 0.28629 0.0
H3618 H 0.35495 0.736 0.30635 0.0
C3619 C 0.44615 0.74437 0.37245 0.0
C3620 C 0.40674 0.76311 0.35276 0.0
H3621 H 0.36365 0.74458 0.3467 0.0
C3622 C 0.40582 0.77524 0.33932 0.0
C3623 C 0.39113 0.75234 0.35575 0.0
C3624 C 0.39065 0.74018 0.37094 0.0
C3625 C 0.39006 0.77635 0.32845 0.0
C3626 C 0.37461 0.76502 0.33093 0.0
C3627 C 0.37544 0.75319 0.34461 0.0
C3628 C 0.35761 0.76436 0.31878 0.0
C3629 C 0.39015 0.78923 0.31392 0.0
C3630 C 0.34958 0.77964 0.31909 0.0
C3631 C 0.33358 0.77857 0.30758 0.0
C3632 C 0.32527 0.76219 0.2955 0.0
C3633 C 0.33329 0.74695 0.29541 0.0
C3634 C 0.34915 0.748 0.3069 0.0
H3635 H 0.40336 0.79479 0.31153 0.0
H3636 H 0.38233 0.78211 0.30019 0.0
H3637 H 0.38437 0.80095 0.31892 0.0
H3638 H 0.35563 0.79237 0.32831 0.0
H3639 H 0.32781 0.79059 0.308 0.0
H3640 H 0.0561 0.73317 0.0777 0.0
H3641 H 0.05309 0.70261 0.05893 0.0
H3642 H 0.0308 0.67742 0.10292 0.0
H3643 H 0.03393 0.70763 0.12166 0.0
H3644 H 0.07 0.67549 0.07476 0.0
H3645 H 0.99986 0.6493 0.05331 0.0
H3646 H 0.00919 0.67352 0.05966 0.0
H3647 H 0.00628 0.65932 0.07783 0.0
C3648 C 0.05018 0.72111 0.08309 0.0
C3649 C 0.04539 0.7227 0.10118 0.0
C3650 C 0.0485 0.70372 0.07241 0.0
C3651 C 0.04162 0.68781 0.07951 0.0
C3652 C 0.03592 0.68951 0.09706 0.0
H3653 H 0.03185 0.57232 0.06556 0.0
H3654 H 0.03332 0.60506 0.07516 0.0
C3655 C 0.03784 0.70678 0.10782 0.0
C3656 C 0.04235 0.66935 0.07 0.0
H3657 H 0.01766 0.62696 0.05257 0.0
C3658 C 0.05857 0.66494 0.0695 0.0
C3659 C 0.02741 0.65561 0.06349 0.0
C3660 C 0.00968 0.65967 0.06343 0.0
C3661 C 0.06027 0.6469 0.06345 0.0
C3662 C 0.04534 0.63309 0.05731 0.0
C3663 C 0.0291 0.63763 0.05723 0.0
C3664 C 0.04616 0.61355 0.05222 0.0
C3665 C 0.07798 0.64254 0.06473 0.0
C3666 C 0.05332 0.60753 0.0364 0.0
C3667 C 0.05274 0.58875 0.03105 0.0
C3668 C 0.04469 0.57589 0.04128 0.0
C3669 C 0.03803 0.58203 0.0574 0.0
C3670 C 0.03881 0.60068 0.06285 0.0
H3671 H 0.08801 0.65408 0.07293 0.0
H3672 H 0.0785 0.63008 0.07154 0.0
H3673 H 0.08105 0.63972 0.05023 0.0
H3674 H 0.05882 0.61725 0.02786 0.0
H3675 H 0.05775 0.58425 0.01844 0.0
H3676 H 0.05099 0.25205 0.86488 0.0
H3677 H 0.07761 0.26069 0.85215 0.0
H3678 H 0.1038 0.28595 0.90815 0.0
H3679 H 0.07737 0.27695 0.92102 0.0
H3680 H 0.09853 0.29382 0.85133 0.0
H3681 H 0.13505 0.25208 0.89363 0.0
H3682 H 0.11213 0.24989 0.89207 0.0
H3683 H 0.12653 0.2688 0.90748 0.0
C3684 C 0.06244 0.25932 0.87452 0.0
C3685 C 0.06204 0.26351 0.89405 0.0
C3686 C 0.07767 0.26437 0.8672 0.0
C3687 C 0.09292 0.27369 0.87919 0.0
C3688 C 0.09241 0.27834 0.89861 0.0
H3689 H 0.19767 0.30273 0.85082 0.0
H3690 H 0.17261 0.3029 0.86717 0.0
C3691 C 0.07722 0.27322 0.90597 0.0
C3692 C 0.1093 0.27816 0.87135 0.0
H3693 H 0.15011 0.26983 0.87414 0.0
C3694 C 0.1098 0.28858 0.85638 0.0
C3695 C 0.12419 0.27157 0.87798 0.0
C3696 C 0.12448 0.25984 0.89356 0.0
C3697 C 0.12455 0.29225 0.84773 0.0
C3698 C 0.13917 0.28512 0.85395 0.0
C3699 C 0.13892 0.27529 0.86933 0.0
C3700 C 0.15428 0.28635 0.84375 0.0
C3701 C 0.12441 0.30377 0.83198 0.0
C3702 C 0.1524 0.27695 0.8252 0.0
C3703 C 0.1667 0.27654 0.81606 0.0
C3704 C 0.18321 0.2857 0.82512 0.0
C3705 C 0.18509 0.29555 0.8435 0.0
C3706 C 0.17079 0.29566 0.85282 0.0
H3707 H 0.11423 0.31203 0.83211 0.0
H3708 H 0.13703 0.31318 0.83315 0.0
H3709 H 0.12193 0.29461 0.81813 0.0
H3710 H 0.13989 0.26948 0.81796 0.0
H3711 H 0.16486 0.26894 0.80186 0.0
H3712 H 0.53189 0.74548 0.92499 0.0
H3713 H 0.52764 0.71624 0.93704 0.0
H3714 H 0.47945 0.69794 0.89868 0.0
H3715 H 0.48405 0.727 0.88592 0.0
H3716 H 0.50109 0.70272 0.95425 0.0
H3717 H 0.50392 0.65535 0.88913 0.0
H3718 H 0.51097 0.67993 0.89146 0.0
H3719 H 0.48845 0.66986 0.88671 0.0
C3720 C 0.52038 0.73523 0.91922 0.0
C3721 C 0.50824 0.7383 0.9047 0.0
C3722 C 0.51801 0.71858 0.92598 0.0
C3723 C 0.50334 0.70504 0.91851 0.0
C3724 C 0.491 0.70818 0.90423 0.0
H3725 H 0.48501 0.60155 0.965 0.0
H3726 H 0.47874 0.62584 0.94654 0.0
C3727 C 0.49356 0.72474 0.89715 0.0
C3728 C 0.50082 0.68798 0.92649 0.0
H3729 H 0.50043 0.64225 0.91678 0.0
C3730 C 0.50064 0.68942 0.94603 0.0
C3731 C 0.5003 0.67081 0.91555 0.0
C3732 C 0.50104 0.66881 0.89457 0.0
C3733 C 0.50084 0.67419 0.95522 0.0
C3734 C 0.50096 0.6572 0.94444 0.0
C3735 C 0.50014 0.65543 0.92475 0.0
C3736 C 0.50461 0.64194 0.95384 0.0
C3737 C 0.50192 0.67657 0.97651 0.0
C3738 C 0.52125 0.64315 0.96338 0.0
C3739 C 0.52481 0.62953 0.97373 0.0
C3740 C 0.51176 0.61455 0.97454 0.0
C3741 C 0.49517 0.61308 0.9645 0.0
C3742 C 0.49162 0.62677 0.95402 0.0
H3743 H 0.49756 0.68918 0.98199 0.0
H3744 H 0.49409 0.66451 0.98092 0.0
H3745 H 0.51548 0.6778 0.9832 0.0
H3746 H 0.53133 0.65489 0.96323 0.0
H3747 H 0.53761 0.63107 0.98166 0.0
H3748 H 0.09378 0.7693 0.72118 0.0
H3749 H 0.12253 0.76844 0.73672 0.0
H3750 H 0.14053 0.76736 0.68288 0.0
H3751 H 0.11177 0.76816 0.66705 0.0
H3752 H 0.13818 0.73625 0.72031 0.0
H3753 H 0.17615 0.80745 0.72559 0.0
H3754 H 0.15312 0.80266 0.72469 0.0
H3755 H 0.16203 0.79745 0.70363 0.0
C3756 C 0.10394 0.76934 0.71272 0.0
C3757 C 0.10068 0.76867 0.69296 0.0
C3758 C 0.12023 0.76884 0.72159 0.0
C3759 C 0.13328 0.76792 0.71076 0.0
C3760 C 0.13038 0.76825 0.69124 0.0
H3761 H 0.23305 0.74604 0.72826 0.0
H3762 H 0.20291 0.74486 0.71561 0.0
C3763 C 0.11406 0.76866 0.68231 0.0
C3764 C 0.14943 0.76454 0.71953 0.0
H3765 H 0.19129 0.78466 0.73439 0.0
C3766 C 0.14983 0.74678 0.72355 0.0
C3767 C 0.16429 0.77846 0.72343 0.0
C3768 C 0.164 0.79765 0.71923 0.0
C3769 C 0.16516 0.74251 0.73142 0.0
C3770 C 0.17997 0.75642 0.73527 0.0
C3771 C 0.17958 0.77419 0.73134 0.0
C3772 C 0.1963 0.75289 0.74315 0.0
C3773 C 0.16564 0.72332 0.73544 0.0
C3774 C 0.20193 0.75748 0.7627 0.0
C3775 C 0.21905 0.75848 0.76986 0.0
C3776 C 0.23024 0.75463 0.75738 0.0
C3777 C 0.2243 0.74873 0.73799 0.0
C3778 C 0.20727 0.74803 0.73081 0.0
H3779 H 0.15282 0.71404 0.73157 0.0
H3780 H 0.17478 0.71756 0.72736 0.0
H3781 H 0.1704 0.72375 0.75076 0.0
H3782 H 0.19337 0.7614 0.77215 0.0
H3783 H 0.22372 0.76307 0.78486 0.0
H3784 H 0.031 0.33598 0.42651 0.0
H3785 H 0.02976 0.36277 0.44888 0.0
H3786 H 0.00518 0.38626 0.40334 0.0
H3787 H 0.00645 0.35932 0.38062 0.0
H3788 H 0.0441 0.40333 0.43604 0.0
H3789 H 0.97939 0.38526 0.45695 0.0
H3790 H 0.9908 0.36747 0.45004 0.0
H3791 H 0.98249 0.38011 0.43261 0.0
C3792 C 0.02523 0.3468 0.4213 0.0
C3793 C 0.01904 0.34592 0.40197 0.0
C3794 C 0.02445 0.36192 0.43403 0.0
C3795 C 0.01731 0.37612 0.42753 0.0
C3796 C 0.01068 0.37518 0.40834 0.0
H3797 H 0.01967 0.48207 0.48383 0.0
H3798 H 0.01513 0.45364 0.46214 0.0
C3799 C 0.01159 0.36004 0.39549 0.0
C3800 C 0.01853 0.39266 0.44082 0.0
H3801 H 0.99819 0.41199 0.47399 0.0
C3802 C 0.03409 0.40538 0.44432 0.0
C3803 C 0.00535 0.39484 0.4514 0.0
C3804 C 0.98849 0.38125 0.44767 0.0
C3805 C 0.03693 0.42045 0.45859 0.0
C3806 C 0.02389 0.42244 0.46946 0.0
C3807 C 0.00821 0.40989 0.46575 0.0
C3808 C 0.0256 0.43873 0.48325 0.0
C3809 C 0.05369 0.43423 0.46194 0.0
C3810 C 0.03272 0.43929 0.50226 0.0
C3811 C 0.03496 0.4555 0.51496 0.0
C3812 C 0.03019 0.47103 0.50847 0.0
C3813 C 0.02292 0.47014 0.48939 0.0
C3814 C 0.0205 0.45403 0.4769 0.0
H3815 H 0.06276 0.43018 0.45263 0.0
H3816 H 0.05119 0.44786 0.45925 0.0
H3817 H 0.05987 0.43575 0.47699 0.0
H3818 H 0.0368 0.42739 0.50709 0.0
H3819 H 0.0409 0.45609 0.52953 0.0
H3820 H 0.50461 0.21941 0.21938 0.0
H3821 H 0.4771 0.22218 0.22944 0.0
H3822 H 0.4758 0.26941 0.20075 0.0
H3823 H 0.50277 0.26642 0.19021 0.0
H3824 H 0.47298 0.25341 0.2518 0.0
H3825 H 0.42775 0.23922 0.18348 0.0
H3826 H 0.44861 0.23307 0.18565 0.0
H3827 H 0.4466 0.25637 0.18388 0.0
C3828 C 0.49827 0.2302 0.21509 0.0
C3829 C 0.50561 0.24269 0.2041 0.0
C3830 C 0.48265 0.2317 0.22071 0.0
C3831 C 0.47449 0.24576 0.21546 0.0
C3832 C 0.48176 0.25815 0.20438 0.0
H3833 H 0.39224 0.29469 0.24312 0.0
H3834 H 0.41824 0.28709 0.23296 0.0
C3835 C 0.49718 0.2565 0.19854 0.0
C3836 C 0.45924 0.24874 0.22314 0.0
H3837 H 0.41808 0.25334 0.21052 0.0
C3838 C 0.46084 0.25311 0.24287 0.0
C3839 C 0.44374 0.24864 0.21121 0.0
C3840 C 0.4415 0.24392 0.18988 0.0
C3841 C 0.44723 0.25784 0.25112 0.0
C3842 C 0.43173 0.25774 0.23921 0.0
C3843 C 0.43008 0.25321 0.21948 0.0
C3844 C 0.41711 0.26292 0.2468 0.0
C3845 C 0.44968 0.26351 0.27233 0.0
C3846 C 0.40825 0.25184 0.25806 0.0
C3847 C 0.39346 0.25618 0.26392 0.0
C3848 C 0.3875 0.27146 0.25829 0.0
C3849 C 0.39663 0.28271 0.24736 0.0
C3850 C 0.41141 0.27846 0.24165 0.0
H3851 H 0.46347 0.26665 0.27885 0.0
H3852 H 0.44409 0.27577 0.27587 0.0
H3853 H 0.44298 0.25214 0.27878 0.0
H3854 H 0.41251 0.23965 0.26185 0.0
H3855 H 0.38644 0.24739 0.27232 0.0
H3856 H 0.60736 0.50663 0.33903 0.0
H3857 H 0.59427 0.49988 0.36693 0.0
H3858 H 0.59426 0.55747 0.38205 0.0
H3859 H 0.60637 0.56403 0.3537 0.0
H3860 H 0.60369 0.50979 0.40375 0.0
H3861 H 0.54527 0.53675 0.38281 0.0
H3862 H 0.56031 0.53356 0.36686 0.0
H3863 H 0.56428 0.55395 0.38432 0.0
C3864 C 0.60465 0.51782 0.34842 0.0
C3865 C 0.60779 0.53583 0.34422 0.0
C3866 C 0.59711 0.51396 0.36429 0.0
C3867 C 0.5928 0.5281 0.37632 0.0
C3868 C 0.59681 0.54622 0.37262 0.0
H3869 H 0.55887 0.54018 0.48476 0.0
H3870 H 0.57217 0.54353 0.45639 0.0
C3871 C 0.60394 0.55 0.35655 0.0
C3872 C 0.5843 0.52402 0.39287 0.0
H3873 H 0.55066 0.5317 0.4151 0.0
C3874 C 0.59199 0.51441 0.4061 0.0
C3875 C 0.5689 0.52988 0.3959 0.0
C3876 C 0.55912 0.53892 0.3816 0.0
C3877 C 0.58506 0.5111 0.42254 0.0
C3878 C 0.57016 0.51765 0.42588 0.0
C3879 C 0.56224 0.5269 0.41255 0.0
C3880 C 0.56271 0.51525 0.44331 0.0
C3881 C 0.59387 0.50097 0.4365 0.0
C3882 C 0.55303 0.49822 0.44529 0.0
C3883 C 0.54531 0.49628 0.46142 0.0
C3884 C 0.54727 0.51134 0.47584 0.0
C3885 C 0.55725 0.52829 0.47395 0.0
C3886 C 0.5648 0.53026 0.45775 0.0
H3887 H 0.60625 0.49829 0.43274 0.0
H3888 H 0.59628 0.50901 0.45098 0.0
H3889 H 0.58533 0.48763 0.43686 0.0
H3890 H 0.5512 0.48653 0.4342 0.0
H3891 H 0.53762 0.4831 0.46249 0.0
H3892 H 0.24861 0.81693 0.03368 0.0
H3893 H 0.26616 0.80695 0.05938 0.0
H3894 H 0.261 0.85373 0.09798 0.0
H3895 H 0.2438 0.86412 0.07223 0.0
H3896 H 0.29892 0.84059 0.08302 0.0
H3897 H 0.25264 0.79965 0.12038 0.0
H3898 H 0.24836 0.80026 0.09516 0.0
H3899 H 0.247 0.81971 0.11166 0.0
C3900 C 0.25049 0.82457 0.04786 0.0
C3901 C 0.24505 0.84133 0.05114 0.0
C3902 C 0.26075 0.81905 0.06234 0.0
C3903 C 0.26504 0.82997 0.08015 0.0
C3904 C 0.25787 0.84542 0.08406 0.0
H3905 H 0.31085 0.83281 0.18811 0.0
H3906 H 0.30725 0.84563 0.15863 0.0
C3907 C 0.24786 0.85114 0.06953 0.0
C3908 C 0.27789 0.82609 0.09454 0.0
H3909 H 0.28145 0.80908 0.13603 0.0
C3910 C 0.29527 0.83349 0.09455 0.0
C3911 C 0.2728 0.81681 0.10922 0.0
C3912 C 0.2542 0.80852 0.10921 0.0
C3913 C 0.30782 0.83239 0.10971 0.0
C3914 C 0.30256 0.82395 0.12489 0.0
C3915 C 0.28525 0.81586 0.12435 0.0
C3916 C 0.31443 0.8231 0.14187 0.0
C3917 C 0.32642 0.84059 0.10987 0.0
C3918 C 0.32143 0.80734 0.14228 0.0
C3919 C 0.32344 0.79996 0.15906 0.0
C3920 C 0.31834 0.8084 0.17527 0.0
C3921 C 0.31463 0.82603 0.17563 0.0
C3922 C 0.31272 0.83343 0.15886 0.0
H3923 H 0.32843 0.8467 0.09685 0.0
H3924 H 0.33119 0.85138 0.12247 0.0
H3925 H 0.33419 0.82981 0.11113 0.0
H3926 H 0.3227 0.79923 0.12919 0.0
H3927 H 0.32637 0.78636 0.1585 0.0
H3928 H 0.9585 0.51259 0.81033 0.0
H3929 H 0.97145 0.51159 0.84248 0.0
H3930 H 0.93884 0.54616 0.86395 0.0
H3931 H 0.92526 0.54692 0.8311 0.0
H3932 H 0.99072 0.53483 0.86937 0.0
H3933 H 0.93295 0.51013 0.9001 0.0
H3934 H 0.93222 0.51021 0.87495 0.0
H3935 H 0.93245 0.53106 0.89046 0.0
C3936 C 0.95381 0.52009 0.82168 0.0
C3937 C 0.94054 0.52993 0.81739 0.0
C3938 C 0.96145 0.51947 0.84046 0.0
C3939 C 0.95635 0.52856 0.85642 0.0
C3940 C 0.94308 0.53852 0.85237 0.0
H3941 H 0.99808 0.53679 0.98193 0.0
H3942 H 0.98087 0.53899 0.95128 0.0
C3943 C 0.9353 0.53914 0.83331 0.0
C3944 C 0.96552 0.52785 0.87671 0.0
H3945 H 0.95934 0.51823 0.92141 0.0
C3946 C 0.98367 0.53116 0.88062 0.0
C3947 C 0.95688 0.52309 0.89202 0.0
C3948 C 0.93756 0.51823 0.88922 0.0
C3949 C 0.99312 0.53018 0.89868 0.0
C3950 C 0.98453 0.52521 0.91399 0.0
C3951 C 0.96634 0.52206 0.91019 0.0
C3952 C 0.9942 0.52285 0.93353 0.0
C3953 C 0.01245 0.53507 0.90113 0.0
C3954 C 0.00726 0.51246 0.93475 0.0
C3955 C 0.01718 0.51133 0.95231 0.0
C3956 C 0.01436 0.51996 0.96991 0.0
C3957 C 1.00069 0.52959 0.96901 0.0
C3958 C 0.99083 0.53098 0.95121 0.0
H3959 H 0.01677 0.54451 0.8912 0.0
H3960 H 0.0182 0.54171 0.91582 0.0
H3961 H 0.01749 0.52238 0.89785 0.0
H3962 H 0.01005 0.50523 0.92195 0.0
H3963 H 0.02743 0.50371 0.95204 0.0
H3964 H 0.27326 0.20846 0.5559 0.0
H3965 H 0.2776 0.22905 0.58626 0.0
H3966 H 0.2899 0.1854 0.61616 0.0
H3967 H 0.28562 0.16492 0.58614 0.0
H3968 H 0.25585 0.21845 0.61232 0.0
H3969 H 0.32415 0.23056 0.64604 0.0
H3970 H 0.31727 0.22359 0.62077 0.0
H3971 H 0.31511 0.20691 0.63671 0.0
C3972 C 0.27733 0.20346 0.56894 0.0
C3973 C 0.27874 0.18502 0.56875 0.0
C3974 C 0.27985 0.21521 0.58621 0.0
C3975 C 0.28416 0.20874 0.60339 0.0
C3976 C 0.28685 0.19075 0.60306 0.0
H3977 H 0.27439 0.22573 0.71939 0.0
H3978 H 0.27577 0.21448 0.68629 0.0
C3979 C 0.28416 0.17899 0.5859 0.0
C3980 C 0.28272 0.21931 0.62159 0.0
H3981 H 0.3037 0.23477 0.66684 0.0
C3982 C 0.26641 0.22248 0.62412 0.0
C3983 C 0.29645 0.2241 0.63702 0.0
C3984 C 0.31428 0.22126 0.63499 0.0
C3985 C 0.26329 0.22966 0.64191 0.0
C3986 C 0.27689 0.23406 0.65736 0.0
C3987 C 0.29333 0.23141 0.6548 0.0
C3988 C 0.2741 0.24042 0.67661 0.0
C3989 C 0.24531 0.2316 0.64439 0.0
C3990 C 0.27218 0.25854 0.68178 0.0
C3991 C 0.27123 0.26491 0.70062 0.0
C3992 C 0.2722 0.25315 0.71424 0.0
C3993 C 0.27341 0.23486 0.70889 0.0
C3994 C 0.27432 0.22851 0.69014 0.0
H3995 H 0.23586 0.22612 0.63124 0.0
H3996 H 0.2413 0.22423 0.65602 0.0
H3997 H 0.24507 0.24632 0.64848 0.0
H3998 H 0.27211 0.26789 0.67144 0.0
H3999 H 0.27068 0.27918 0.70472 0.0
H4000 H 0.62933 0.51381 0.22158 0.0
H4001 H 0.61521 0.51067 0.18862 0.0
H4002 H 0.57308 0.5322 0.2076 0.0
H4003 H 0.58701 0.5351 0.24075 0.0
H4004 H 0.57603 0.49156 0.17237 0.0
H4005 H 0.59863 0.5659 0.16924 0.0
H4006 H 0.60978 0.55374 0.18547 0.0
H4007 H 0.58991 0.55972 0.18989 0.0
C4008 C 0.61698 0.51772 0.21871 0.0
C4009 C 0.60922 0.52478 0.23355 0.0
C4010 C 0.60897 0.51587 0.19997 0.0
C4011 C 0.59326 0.5213 0.19592 0.0
C4012 C 0.58525 0.52796 0.21068 0.0
H4013 H 0.53449 0.53679 0.09177 0.0
H4014 H 0.54643 0.53687 0.12501 0.0
C4015 C 0.59314 0.52955 0.22948 0.0
C4016 C 0.58561 0.52075 0.17616 0.0
H4017 H 0.58065 0.54798 0.14211 0.0
C4018 C 0.57695 0.50384 0.16568 0.0
C4019 C 0.58712 0.53685 0.16771 0.0
C4020 C 0.59693 0.55513 0.17853 0.0
C4021 C 0.56934 0.50265 0.14676 0.0
C4022 C 0.57077 0.51879 0.13828 0.0
C4023 C 0.57954 0.5357 0.1488 0.0
C4024 C 0.56335 0.51836 0.1184 0.0
C4025 C 0.55961 0.48425 0.13612 0.0
C4026 C 0.56901 0.50795 0.1039 0.0
C4027 C 0.56199 0.50756 0.08506 0.0
C4028 C 0.54953 0.51795 0.08051 0.0
C4029 C 0.54403 0.52859 0.09502 0.0
C4030 C 0.55085 0.5287 0.11391 0.0
H4031 H 0.55607 0.47436 0.14591 0.0
H4032 H 0.54773 0.48572 0.12701 0.0
H4033 H 0.56781 0.47833 0.12682 0.0
H4034 H 0.57901 0.50031 0.10715 0.0
H4035 H 0.56671 0.4996 0.07406 0.0
H4036 H 0.24683 0.86533 0.93154 0.0
H4037 H 0.25303 0.84977 0.90212 0.0
H4038 H 0.25803 0.8021 0.92903 0.0
H4039 H 0.25167 0.81738 0.95829 0.0
H4040 H 0.28649 0.84012 0.90718 0.0
H4041 H 0.23306 0.78214 0.8738 0.0
H4042 H 0.23001 0.80204 0.88884 0.0
H4043 H 0.23796 0.78393 0.89919 0.0
C4044 C 0.24871 0.8513 0.93085 0.0
C4045 C 0.24916 0.8425 0.94691 0.0
C4046 C 0.25213 0.84251 0.91419 0.0
C4047 C 0.25596 0.82504 0.91383 0.0
C4048 C 0.2548 0.81556 0.9293 0.0
H4049 H 0.29452 0.75641 0.83516 0.0
H4050 H 0.2986 0.77465 0.86695 0.0
C4051 C 0.25123 0.82427 0.94589 0.0
C4052 C 0.26426 0.81799 0.8989 0.0
H4053 H 0.26046 0.78109 0.86547 0.0
C4054 C 0.28087 0.82727 0.89788 0.0
C4055 C 0.25668 0.8013 0.88724 0.0
C4056 C 0.23838 0.79184 0.88714 0.0
C4057 C 0.29019 0.82009 0.88493 0.0
C4058 C 0.28273 0.80316 0.87362 0.0
C4059 C 0.2663 0.79373 0.87504 0.0
C4060 C 0.28884 0.7973 0.85653 0.0
C4061 C 0.30745 0.83075 0.88275 0.0
C4062 C 0.28203 0.80429 0.8407 0.0
C4063 C 0.27813 0.79324 0.82334 0.0
C4064 C 0.28251 0.77606 0.82138 0.0
C4065 C 0.29081 0.76965 0.8368 0.0
C4066 C 0.29384 0.78029 0.85458 0.0
H4067 H 0.3128 0.8419 0.89491 0.0
H4068 H 0.31666 0.82141 0.88139 0.0
H4069 H 0.30606 0.837 0.86956 0.0
H4070 H 0.27739 0.81705 0.84224 0.0
H4071 H 0.27074 0.79756 0.81174 0.0
H4072 H 0.90554 0.52006 0.68051 0.0
H4073 H 0.92008 0.51475 0.65301 0.0
H4074 H 0.96903 0.53613 0.68871 0.0
H4075 H 0.95458 0.54094 0.71621 0.0
H4076 H 0.93855 0.53442 0.63315 0.0
H4077 H 0.98199 0.49241 0.66295 0.0
H4078 H 0.96477 0.49822 0.67459 0.0
H4079 H 0.98512 0.51411 0.67792 0.0
C4080 C 0.91942 0.52359 0.68263 0.0
C4081 C 0.92868 0.53099 0.70102 0.0
C4082 C 0.92785 0.52052 0.66668 0.0
C4083 C 0.94598 0.52459 0.66826 0.0
C4084 C 0.95518 0.53217 0.68662 0.0
H4085 H 0.02454 0.52799 0.59251 0.0
H4086 H 0.00789 0.52891 0.61857 0.0
C4087 C 0.94678 0.53516 0.70257 0.0
C4088 C 0.95514 0.52157 0.65087 0.0
H4089 H 0.98922 0.50506 0.63551 0.0
C4090 C 0.94954 0.52785 0.63378 0.0
C4091 C 0.96951 0.51276 0.65089 0.0
C4092 C 0.97558 0.5038 0.66748 0.0
C4093 C 0.95808 0.52643 0.61764 0.0
C4094 C 0.97285 0.51828 0.61795 0.0
C4095 C 0.9782 0.5116 0.63486 0.0
C4096 C 0.98315 0.51702 0.60135 0.0
C4097 C 0.95141 0.5344 0.60055 0.0
C4098 C 0.97535 0.50966 0.5824 0.0
C4099 C 0.98498 0.50924 0.5672 0.0
C4100 C 1.00296 0.51586 0.57024 0.0
C4101 C 0.01082 0.52269 0.58925 0.0
C4102 C 1.00118 0.52324 0.60439 0.0
H4103 H 0.94334 0.54448 0.60422 0.0
H4104 H 0.96212 0.54131 0.59407 0.0
H4105 H 0.94331 0.52317 0.58981 0.0
H4106 H 0.96169 0.50406 0.57922 0.0
H4107 H 0.97826 0.50366 0.55299 0.0
H4108 H 0.27465 0.214 0.47102 0.0
H4109 H 0.27798 0.23035 0.4438 0.0
H4110 H 0.27449 0.17891 0.40784 0.0
H4111 H 0.27115 0.16248 0.43489 0.0
H4112 H 0.3032 0.23046 0.41811 0.0
H4113 H 0.23652 0.20221 0.38094 0.0
H4114 H 0.24306 0.20171 0.40588 0.0
H4115 H 0.24834 0.18537 0.38831 0.0
C4116 C 0.27457 0.20615 0.45732 0.0
C4117 C 0.27246 0.18686 0.45514 0.0
C4118 C 0.27654 0.21554 0.44178 0.0
C4119 C 0.27625 0.20584 0.42369 0.0
C4120 C 0.27448 0.18666 0.42157 0.0
H4121 H 0.27766 0.23124 0.30933 0.0
H4122 H 0.27622 0.21693 0.33803 0.0
C4123 C 0.27261 0.17728 0.43709 0.0
C4124 C 0.2775 0.21563 0.40694 0.0
H4125 H 0.25534 0.2189 0.36379 0.0
C4126 C 0.29271 0.22804 0.40627 0.0
C4127 C 0.26384 0.21245 0.39147 0.0
C4128 C 0.24694 0.19983 0.39165 0.0
C4129 C 0.29479 0.23693 0.39032 0.0
C4130 C 0.28111 0.23367 0.37478 0.0
C4131 C 0.26586 0.22139 0.37561 0.0
C4132 C 0.28231 0.24259 0.35741 0.0
C4133 C 0.31184 0.24923 0.39004 0.0
C4134 C 0.28593 0.26183 0.35859 0.0
C4135 C 0.28681 0.27004 0.34216 0.0
C4136 C 0.28387 0.25921 0.32417 0.0
C4137 C 0.27993 0.23998 0.32297 0.0
C4138 C 0.27915 0.23178 0.33939 0.0
H4139 H 0.32228 0.24621 0.40026 0.0
H4140 H 0.31542 0.24773 0.37565 0.0
H4141 H 0.31091 0.26375 0.39414 0.0
H4142 H 0.28794 0.27052 0.37221 0.0
H4143 H 0.28983 0.28489 0.34354 0.0
H4144 H 0.3564 0.66348 0.54088 0.0
H4145 H 0.37823 0.65304 0.5245 0.0
H4146 H 0.36756 0.60098 0.54491 0.0
H4147 H 0.34509 0.61109 0.56089 0.0
H4148 H 0.40727 0.63987 0.53675 0.0
H4149 H 0.35907 0.58681 0.48702 0.0
H4150 H 0.35337 0.60566 0.50134 0.0
H4151 H 0.3571 0.58559 0.51137 0.0
C4152 C 0.35896 0.64995 0.54229 0.0
C4153 C 0.34904 0.63792 0.552 0.0
C4154 C 0.37131 0.64401 0.53278 0.0
C4155 C 0.37394 0.62614 0.53309 0.0
C4156 C 0.36514 0.61466 0.5441 0.0
H4157 H 0.4311 0.55342 0.5252 0.0
H4158 H 0.4114 0.57459 0.52604 0.0
C4159 C 0.35255 0.62046 0.55337 0.0
C4160 C 0.38578 0.61926 0.52173 0.0
H4161 H 0.38838 0.58207 0.49095 0.0
C4162 C 0.4032 0.62756 0.52626 0.0
C4163 C 0.38015 0.60355 0.50774 0.0
C4164 C 0.36137 0.59501 0.50142 0.0
C4165 C 0.41548 0.61914 0.51879 0.0
C4166 C 0.40996 0.60224 0.50657 0.0
C4167 C 0.39243 0.5951 0.50036 0.0
C4168 C 0.42159 0.58951 0.5048 0.0
C4169 C 0.43428 0.62723 0.52553 0.0
C4170 C 0.43369 0.59111 0.49252 0.0
C4171 C 0.44499 0.57897 0.49201 0.0
C4172 C 0.44422 0.56547 0.50395 0.0
C4173 C 0.43198 0.56393 0.51608 0.0
C4174 C 0.42071 0.57586 0.51646 0.0
H4175 H 0.43638 0.64105 0.53415 0.0
H4176 H 0.44009 0.61801 0.53428 0.0
H4177 H 0.44107 0.62833 0.51316 0.0
H4178 H 0.43443 0.60172 0.48353 0.0
H4179 H 0.45444 0.58025 0.4826 0.0
H4180 H 0.84637 0.93133 0.50547 0.0
H4181 H 0.87629 0.94407 0.5047 0.0
H4182 H 0.89167 0.92129 0.55495 0.0
H4183 H 0.86134 0.90795 0.55557 0.0
H4184 H 0.89713 0.9698 0.53085 0.0
H4185 H 0.92719 0.90875 0.5228 0.0
H4186 H 0.90419 0.907 0.51853 0.0
H4187 H 0.91561 0.91055 0.5424 0.0
C4188 C 0.85603 0.92885 0.51639 0.0
C4189 C 0.85123 0.91873 0.53076 0.0
C4190 C 0.87327 0.93617 0.51587 0.0
C4191 C 0.88649 0.93373 0.5297 0.0
C4192 C 0.88188 0.9232 0.54387 0.0
H4193 H 0.99759 0.98554 0.54732 0.0
H4194 H 0.96982 0.96622 0.54975 0.0
C4195 C 0.86446 0.91567 0.54432 0.0
C4196 C 0.90467 0.94361 0.52982 0.0
H4197 H 0.94581 0.93787 0.52696 0.0
C4198 C 0.90772 0.96272 0.53002 0.0
C4199 C 0.91871 0.9346 0.52884 0.0
C4200 C 0.91633 0.91407 0.52796 0.0
C4201 C 0.9241 0.97298 0.52924 0.0
C4202 C 0.9381 0.96399 0.52778 0.0
C4203 C 0.93521 0.94489 0.528 0.0
C4204 C 0.95551 0.97428 0.52548 0.0
C4205 C 0.92621 0.99353 0.53027 0.0
C4206 C 0.95709 0.98482 0.51069 0.0
C4207 C 0.97281 0.99604 0.50951 0.0
C4208 C 0.98762 0.99677 0.52278 0.0
C4209 C 0.9864 0.9854 0.53694 0.0
C4210 C 0.97051 0.97431 0.53831 0.0
H4211 H 0.91623 0.99877 0.53738 0.0
H4212 H 0.93904 1.00077 0.53806 0.0
H4213 H 0.92478 0.997 0.51566 0.0
H4214 H 0.94601 0.98467 0.50018 0.0
H4215 H 0.97331 1.00435 0.49822 0.0
H4216 H 0.90853 0.05321 0.29387 0.0
H4217 H 0.89553 0.07991 0.30166 0.0
H4218 H 0.89165 0.08889 0.24325 0.0
H4219 H 0.90347 0.06148 0.23527 0.0
H4220 H 0.9036 0.11569 0.29994 0.0
H4221 H 0.84305 0.08575 0.25039 0.0
H4222 H 0.85916 0.07252 0.25625 0.0
H4223 H 0.86129 0.08736 0.23844 0.0
C4224 C 0.90477 0.0609 0.28275 0.0
C4225 C 0.90657 0.05523 0.26393 0.0
C4226 C 0.89745 0.07615 0.2872 0.0
C4227 C 0.8922 0.08611 0.27294 0.0
C4228 C 0.89499 0.081 0.25433 0.0
H4229 H 0.85741 0.18623 0.26649 0.0
H4230 H 0.87486 0.16271 0.26885 0.0
C4231 C 0.90178 0.06544 0.24978 0.0
C4232 C 0.88331 0.10146 0.27729 0.0
H4233 H 0.84742 0.11767 0.26248 0.0
C4234 C 0.89127 0.11606 0.29185 0.0
C4235 C 0.86701 0.10176 0.26702 0.0
C4236 C 0.85705 0.08591 0.25231 0.0
C4237 C 0.88365 0.13131 0.29575 0.0
C4238 C 0.86787 0.13192 0.28475 0.0
C4239 C 0.85966 0.11714 0.27071 0.0
C4240 C 0.85974 0.14802 0.28689 0.0
C4241 C 0.89241 0.14675 0.31145 0.0
C4242 C 0.84575 0.14764 0.29661 0.0
C4243 C 0.83568 0.16096 0.29519 0.0
C4244 C 0.83937 0.17473 0.28384 0.0
C4245 C 0.85408 0.17565 0.27509 0.0
C4246 C 0.86415 0.16236 0.27657 0.0
H4247 H 0.90415 0.14372 0.31951 0.0
H4248 H 0.896 0.15955 0.30535 0.0
H4249 H 0.8834 0.14932 0.32141 0.0
H4250 H 0.84209 0.13651 0.30446 0.0
H4251 H 0.82439 0.15976 0.302 0.0
H4252 H 0.74947 0.15236 0.99657 0.0
H4253 H 0.72192 0.1331 0.99879 0.0
H4254 H 0.7367 0.13925 0.05963 0.0
H4255 H 0.76363 0.15946 0.05745 0.0
H4256 H 0.72476 0.10132 0.01087 0.0
H4257 H 0.68616 0.13736 0.05569 0.0
H4258 H 0.70332 0.14962 0.04551 0.0
H4259 H 0.70808 0.13939 0.06645 0.0
C4260 C 0.74631 0.15034 0.01042 0.0
C4261 C 0.75833 0.15724 0.02683 0.0
C4262 C 0.73073 0.13933 0.01171 0.0
C4263 C 0.72738 0.13473 0.02935 0.0
C4264 C 0.73887 0.14293 0.04595 0.0
H4265 H 0.6544 0.04561 0.05555 0.0
H4266 H 0.6823 0.0644 0.05398 0.0
C4267 C 0.75424 0.15439 0.0447 0.0
C4268 C 0.71379 0.11888 0.0298 0.0
H4269 H 0.6777 0.10481 0.04829 0.0
C4270 C 0.71438 0.10213 0.01895 0.0
C4271 C 0.70064 0.11993 0.0408 0.0
C4272 C 0.6994 0.13757 0.05266 0.0
C4273 C 0.70177 0.08646 0.01827 0.0
C4274 C 0.68842 0.08768 0.02879 0.0
C4275 C 0.68811 0.10416 0.04024 0.0
C4276 C 0.67378 0.0725 0.02704 0.0
C4277 C 0.70256 0.06879 0.00622 0.0
C4278 C 0.66027 0.07029 0.01187 0.0
C4279 C 0.64434 0.05968 0.01275 0.0
C4280 C 0.64195 0.05125 0.02881 0.0
C4281 C 0.65605 0.05187 0.04295 0.0
C4282 C 0.67191 0.06264 0.04215 0.0
H4283 H 0.71506 0.06943 0.00107 0.0
H4284 H 0.70048 0.05717 0.0144 0.0
H4285 H 0.69214 0.06592 0.99375 0.0
H4286 H 0.66164 0.07798 0.00017 0.0
H4287 H 0.63358 0.05932 0.00171 0.0
H4288 H 0.18358 0.44067 0.31258 0.0
H4289 H 0.19855 0.41477 0.31311 0.0
H4290 H 0.21453 0.42475 0.25997 0.0
H4291 H 0.20095 0.45144 0.26043 0.0
H4292 H 0.19836 0.38377 0.29861 0.0
H4293 H 0.25867 0.41662 0.27853 0.0
H4294 H 0.24271 0.42963 0.28386 0.0
H4295 H 0.24136 0.41723 0.26027 0.0
C4296 C 0.1905 0.43757 0.30108 0.0
C4297 C 0.19096 0.44881 0.28657 0.0
C4298 C 0.19919 0.42242 0.30133 0.0
C4299 C 0.20864 0.41728 0.28688 0.0
C4300 C 0.20851 0.42824 0.27207 0.0
H4301 H 0.25972 0.32335 0.25283 0.0
H4302 H 0.24626 0.35041 0.25551 0.0
C4303 C 0.20031 0.4437 0.27215 0.0
C4304 C 0.21791 0.40043 0.28694 0.0
H4305 H 0.25331 0.38393 0.27465 0.0
C4306 C 0.21047 0.38415 0.29347 0.0
C4307 C 0.23408 0.39997 0.28068 0.0
C4308 C 0.24475 0.41687 0.27567 0.0
C4309 C 0.21793 0.36803 0.29319 0.0
C4310 C 0.23362 0.36732 0.28603 0.0
C4311 C 0.24122 0.38366 0.27983 0.0
C4312 C 0.2422 0.35006 0.2846 0.0
C4313 C 0.20843 0.3516 0.30022 0.0
C4314 C 0.24514 0.34007 0.29991 0.0
C4315 C 0.25278 0.32417 0.29824 0.0
C4316 C 0.25822 0.31746 0.28127 0.0
C4317 C 0.25573 0.32767 0.26615 0.0
C4318 C 0.24794 0.34344 0.26775 0.0
H4319 H 0.19469 0.35215 0.30014 0.0
H4320 H 0.2092 0.33859 0.29146 0.0
H4321 H 0.21428 0.35144 0.31508 0.0
H4322 H 0.24177 0.34468 0.31347 0.0
H4323 H 0.25466 0.31723 0.31047 0.0
H4324 H 0.2322 0.38367 0.04813 0.0
H4325 H 0.20563 0.39479 0.03924 0.0
H4326 H 0.23211 0.43219 0.00695 0.0
H4327 H 0.25888 0.42156 0.01637 0.0
H4328 H 0.20644 0.43771 0.04653 0.0
H4329 H 0.1824 0.40099 0.97291 0.0
H4330 H 0.19523 0.39143 0.99028 0.0
H4331 H 0.2051 0.41031 0.97986 0.0
C4332 C 0.23233 0.39428 0.03916 0.0
C4333 C 0.24765 0.40206 0.03327 0.0
C4334 C 0.21715 0.40051 0.03398 0.0
C4335 C 0.21688 0.41419 0.02231 0.0
C4336 C 0.23204 0.42156 0.0159 0.0
H4337 H 0.14315 0.48181 0.99125 0.0
H4338 H 0.16659 0.46494 0.99188 0.0
C4339 C 0.24734 0.41566 0.02146 0.0
C4340 C 0.20127 0.42207 0.01853 0.0
H4341 H 0.16679 0.42254 0.98492 0.0
C4342 C 0.19775 0.43436 0.03309 0.0
C4343 C 0.19002 0.41772 0.00093 0.0
C4344 C 0.19321 0.40434 0.98502 0.0
C4345 C 0.18335 0.44254 0.03053 0.0
C4346 C 0.17196 0.43811 0.01303 0.0
C4347 C 0.1755 0.42586 0.99835 0.0
C4348 C 0.15642 0.44627 0.01007 0.0
C4349 C 0.18049 0.45613 0.04649 0.0
C4350 C 0.14263 0.44097 0.01958 0.0
C4351 C 0.12909 0.45045 0.01912 0.0
C4352 C 0.12909 0.46559 0.00926 0.0
C4353 C 0.14255 0.47021 0.99891 0.0
C4354 C 0.15604 0.46061 0.99928 0.0
H4355 H 0.19188 0.46029 0.0579 0.0
H4356 H 0.17745 0.46861 0.04105 0.0
H4357 H 0.16939 0.44983 0.05276 0.0
H4358 H 0.14262 0.42985 0.02789 0.0
H4359 H 0.11881 0.44615 0.02688 0.0
H4360 H 0.9206 0.93152 0.26866 0.0
H4361 H 0.90029 0.90441 0.27325 0.0
H4362 H 0.85795 0.92853 0.25226 0.0
H4363 H 0.87817 0.95588 0.24786 0.0
H4364 H 0.86937 0.90271 0.2948 0.0
H4365 H 0.85443 0.87662 0.21736 0.0
H4366 H 0.87377 0.89307 0.22805 0.0
H4367 H 0.85358 0.90029 0.22455 0.0
C4368 C 0.90696 0.93107 0.265 0.0
C4369 C 0.90099 0.94574 0.25765 0.0
C4370 C 0.8954 0.91563 0.26777 0.0
C4371 C 0.87767 0.91446 0.26296 0.0
C4372 C 0.87162 0.9292 0.25598 0.0
H4373 H 0.78752 0.82905 0.24844 0.0
H4374 H 0.80913 0.85666 0.24902 0.0
C4375 C 0.88318 0.94477 0.25346 0.0
C4376 C 0.86551 0.89743 0.26431 0.0
H4377 H 0.83855 0.86012 0.23706 0.0
C4378 C 0.86261 0.89332 0.28223 0.0
C4379 C 0.85683 0.88526 0.24788 0.0
C4380 C 0.85982 0.88887 0.22832 0.0
C4381 C 0.85077 0.87756 0.28411 0.0
C4382 C 0.84197 0.86537 0.26759 0.0
C4383 C 0.84521 0.86943 0.24972 0.0
C4384 C 0.82881 0.84874 0.2682 0.0
C4385 C 0.84744 0.8745 0.3037 0.0
C4386 C 0.8326 0.83495 0.27874 0.0
C4387 C 0.82007 0.81922 0.2787 0.0
C4388 C 0.80371 0.81677 0.26765 0.0
C4389 C 0.80005 0.83046 0.25696 0.0
C4390 C 0.81241 0.84628 0.2573 0.0
H4391 H 0.85144 0.88741 0.31403 0.0
H4392 H 0.83363 0.86892 0.30361 0.0
H4393 H 0.85497 0.86448 0.30876 0.0
H4394 H 0.84527 0.83625 0.28688 0.0
H4395 H 0.82319 0.80902 0.2873 0.0
H4396 H 0.70888 0.05724 0.77728 0.0
H4397 H 0.7257 0.08835 0.77749 0.0
H4398 H 0.69079 0.11168 0.80887 0.0
H4399 H 0.674 0.08094 0.80851 0.0
H4400 H 0.71226 0.11708 0.76131 0.0
H4401 H 0.73763 0.14051 0.83771 0.0
H4402 H 0.72966 0.11654 0.82809 0.0
H4403 H 0.71492 0.13144 0.83237 0.0
C4404 C 0.70507 0.06895 0.78468 0.0
C4405 C 0.69007 0.0664 0.79299 0.0
C4406 C 0.71463 0.08682 0.78467 0.0
C4407 C 0.70971 0.1026 0.79335 0.0
C4408 C 0.69517 0.09995 0.80232 0.0
H4409 H 0.745 0.22298 0.80416 0.0
H4410 H 0.73119 0.19164 0.8073 0.0
C4411 C 0.6855 0.08223 0.80206 0.0
C4412 C 0.71872 0.1218 0.79171 0.0
H4413 H 0.74017 0.1632 0.81754 0.0
C4414 C 0.71852 0.12709 0.77362 0.0
C4415 C 0.72656 0.13521 0.8077 0.0
C4416 C 0.72737 0.13067 0.82758 0.0
C4417 C 0.72553 0.14521 0.77107 0.0
C4418 C 0.73383 0.15857 0.78704 0.0
C4419 C 0.734 0.15323 0.80517 0.0
C4420 C 0.74244 0.17797 0.78528 0.0
C4421 C 0.72313 0.14988 0.75121 0.0
C4422 C 0.75381 0.18119 0.77223 0.0
C4423 C 0.76134 0.19915 0.7701 0.0
C4424 C 0.75833 0.21459 0.78145 0.0
C4425 C 0.74762 0.21147 0.79514 0.0
C4426 C 0.73969 0.19345 0.79694 0.0
H4427 H 0.71161 0.14081 0.74222 0.0
H4428 H 0.72172 0.16436 0.75119 0.0
H4429 H 0.73442 0.14773 0.74454 0.0
H4430 H 0.75699 0.16979 0.76363 0.0
H4431 H 0.76975 0.20092 0.75963 0.0
loop_
_geom_bond_atom_site_label_1
_geom_bond_atom_site_label_2
_geom_bond_distance
_geom_bond_site_symmetry_2
_ccdc_geom_bond_type
C0 O1 1.306 . S
C0 O3 1.160 . S
O1 C0 1.306 . S
O1 Cd2 2.228 1_655 S
Cd2 O1 2.228 1_455 S
Cd2 O6 2.273 . S
Cd2 O10 2.277 . S
O3 C0 1.160 . S
O3 Cd4 2.203 1_655 S
Cd4 O3 2.203 1_455 S
Cd4 O6 2.411 . S
Cd4 O7 2.333 . S
Cd4 O8 2.352 1_455 S
Cd4 O12 2.277 . S
Cd4 O13 2.356 . S
C5 O10 1.209 . S
C5 O12 1.226 . S
O6 Cd2 2.273 . S
O6 Cd4 2.411 . S
O6 C9 1.320 . S
O7 Cd4 2.333 . S
O7 C9 1.214 . S
O8 Cd4 2.352 1_655 S
O8 C11 1.258 1_655 S
C9 O6 1.320 . S
C9 O7 1.214 . S
O10 Cd2 2.277 . S
O10 C5 1.209 . S
C11 O8 1.258 1_455 S
C11 O13 1.282 . S
O12 Cd4 2.277 . S
O12 C5 1.226 . S
O13 Cd4 2.356 . S
O13 C11 1.282 . S
C14 O15 1.306 . S
C14 O17 1.160 . S
O15 C14 1.306 . S
O15 Cd16 2.228 . S
Cd16 O15 2.228 . S
Cd16 O20 2.273 . S
Cd16 O24 2.277 . S
O17 C14 1.160 . S
O17 Cd18 2.203 . S
Cd18 O17 2.203 . S
Cd18 O20 2.411 . S
Cd18 O21 2.333 . S
Cd18 O22 2.352 . S
Cd18 O26 2.277 . S
Cd18 O27 2.356 . S
C19 O24 1.209 . S
C19 O26 1.226 . S
O20 Cd16 2.273 . S
O20 Cd18 2.411 . S
O20 C23 1.320 . S
O21 Cd18 2.333 . S
O21 C23 1.214 . S
O22 Cd18 2.352 . S
O22 C25 1.258 . S
C23 O20 1.320 . S
C23 O21 1.214 . S
O24 Cd16 2.277 . S
O24 C19 1.209 . S
C25 O22 1.258 . S
C25 O27 1.282 . S
O26 Cd18 2.277 . S
O26 C19 1.226 . S
O27 Cd18 2.356 . S
O27 C25 1.282 . S
C28 O29 1.306 . S
C28 O31 1.160 . S
O29 C28 1.306 . S
O29 Cd30 2.228 . S
Cd30 O29 2.228 . S
Cd30 O34 2.273 . S
Cd30 O38 2.277 . S
O31 C28 1.160 . S
O31 Cd32 2.203 . S
Cd32 O31 2.203 . S
Cd32 O34 2.411 . S
Cd32 O35 2.333 . S
Cd32 O36 2.352 . S
Cd32 O40 2.277 . S
Cd32 O41 2.356 . S
C33 O38 1.209 . S
C33 O40 1.226 . S
O34 Cd30 2.273 . S
O34 Cd32 2.411 . S
O34 C37 1.320 . S
O35 Cd32 2.333 . S
O35 C37 1.214 . S
O36 Cd32 2.352 . S
O36 C39 1.258 . S
C37 O34 1.320 . S
C37 O35 1.214 . S
O38 Cd30 2.277 . S
O38 C33 1.209 . S
C39 O36 1.258 . S
C39 O41 1.282 . S
O40 Cd32 2.277 . S
O40 C33 1.226 . S
O41 Cd32 2.356 . S
O41 C39 1.282 . S
C42 O43 1.306 . S
C42 O45 1.160 . S
O43 C42 1.306 . S
O43 Cd44 2.228 . S
Cd44 O43 2.228 . S
Cd44 O48 2.273 . S
Cd44 O52 2.277 . S
O45 C42 1.160 . S
O45 Cd46 2.203 . S
Cd46 O45 2.203 . S
Cd46 O48 2.411 . S
Cd46 O49 2.333 . S
Cd46 O50 2.352 . S
Cd46 O54 2.277 . S
Cd46 O55 2.356 . S
C47 O52 1.209 . S
C47 O54 1.226 . S
O48 Cd44 2.273 . S
O48 Cd46 2.411 . S
O48 C51 1.320 . S
O49 Cd46 2.333 . S
O49 C51 1.214 . S
O50 Cd46 2.352 . S
O50 C53 1.258 . S
C51 O48 1.320 . S
C51 O49 1.214 . S
O52 Cd44 2.277 . S
O52 C47 1.209 . S
C53 O50 1.258 . S
C53 O55 1.282 . S
O54 Cd46 2.277 . S
O54 C47 1.226 . S
O55 Cd46 2.356 . S
O55 C53 1.282 . S
C56 O57 1.306 . S
C56 O59 1.160 . S
O57 C56 1.306 . S
O57 Cd58 2.228 . S
Cd58 O57 2.228 . S
Cd58 O62 2.273 . S
Cd58 O66 2.277 . S
O59 C56 1.160 . S
O59 Cd60 2.203 . S
Cd60 O59 2.203 . S
Cd60 O62 2.411 . S
Cd60 O63 2.333 . S
Cd60 O64 2.352 . S
Cd60 O68 2.277 . S
Cd60 O69 2.356 . S
C61 O66 1.209 . S
C61 O68 1.226 . S
O62 Cd58 2.273 . S
O62 Cd60 2.411 . S
O62 C65 1.320 . S
O63 Cd60 2.333 . S
O63 C65 1.214 . S
O64 Cd60 2.352 . S
O64 C67 1.258 . S
C65 O62 1.320 . S
C65 O63 1.214 . S
O66 Cd58 2.277 . S
O66 C61 1.209 . S
C67 O64 1.258 . S
C67 O69 1.282 . S
O68 Cd60 2.277 . S
O68 C61 1.226 . S
O69 Cd60 2.356 . S
O69 C67 1.282 . S
C70 O71 1.306 . S
C70 O73 1.160 . S
O71 C70 1.306 . S
O71 Cd72 2.228 . S
Cd72 O71 2.228 . S
Cd72 O76 2.273 . S
Cd72 O80 2.277 . S
O73 C70 1.160 . S
O73 Cd74 2.203 . S
Cd74 O73 2.203 . S
Cd74 O76 2.411 . S
Cd74 O77 2.333 . S
Cd74 O78 2.352 . S
Cd74 O82 2.277 . S
Cd74 O83 2.356 . S
C75 O80 1.209 . S
C75 O82 1.226 . S
O76 Cd72 2.273 . S
O76 Cd74 2.411 . S
O76 C79 1.320 . S
O77 Cd74 2.333 . S
O77 C79 1.214 . S
O78 Cd74 2.352 . S
O78 C81 1.258 . S
C79 O76 1.320 . S
C79 O77 1.214 . S
O80 Cd72 2.277 . S
O80 C75 1.209 . S
C81 O78 1.258 . S
C81 O83 1.282 . S
O82 Cd74 2.277 . S
O82 C75 1.226 . S
O83 Cd74 2.356 . S
O83 C81 1.282 . S
C84 O85 1.306 . S
C84 O87 1.160 . S
O85 C84 1.306 . S
O85 Cd86 2.228 . S
Cd86 O85 2.228 . S
Cd86 O90 2.273 . S
Cd86 O94 2.277 . S
O87 C84 1.160 . S
O87 Cd88 2.203 . S
Cd88 O87 2.203 . S
Cd88 O90 2.411 . S
Cd88 O91 2.333 . S
Cd88 O92 2.352 . S
Cd88 O96 2.277 . S
Cd88 O97 2.356 . S
C89 O94 1.209 . S
C89 O96 1.226 . S
O90 Cd86 2.273 . S
O90 Cd88 2.411 . S
O90 C93 1.320 . S
O91 Cd88 2.333 . S
O91 C93 1.214 . S
O92 Cd88 2.352 . S
O92 C95 1.258 . S
C93 O90 1.320 . S
C93 O91 1.214 . S
O94 Cd86 2.277 . S
O94 C89 1.209 . S
C95 O92 1.258 . S
C95 O97 1.282 . S
O96 Cd88 2.277 . S
O96 C89 1.226 . S
O97 Cd88 2.356 . S
O97 C95 1.282 . S
C98 O99 1.306 . S
C98 O101 1.160 . S
O99 C98 1.306 . S
O99 Cd100 2.228 1_655 S
Cd100 O99 2.228 1_455 S
Cd100 O104 2.273 . S
Cd100 O108 2.277 . S
O101 C98 1.160 . S
O101 Cd102 2.203 1_655 S
Cd102 O101 2.203 1_455 S
Cd102 O104 2.411 . S
Cd102 O105 2.333 . S
Cd102 O106 2.352 . S
Cd102 O110 2.277 . S
Cd102 O111 2.356 . S
C103 O108 1.209 . S
C103 O110 1.226 . S
O104 Cd100 2.273 . S
O104 Cd102 2.411 . S
O104 C107 1.320 . S
O105 Cd102 2.333 . S
O105 C107 1.214 . S
O106 Cd102 2.352 . S
O106 C109 1.258 . S
C107 O104 1.320 . S
C107 O105 1.214 . S
O108 Cd100 2.277 . S
O108 C103 1.209 . S
C109 O106 1.258 . S
C109 O111 1.282 . S
O110 Cd102 2.277 . S
O110 C103 1.226 . S
O111 Cd102 2.356 . S
O111 C109 1.282 . S
C112 O113 1.306 . S
C112 O115 1.160 . S
O113 C112 1.306 . S
O113 Cd114 2.228 1_545 S
Cd114 O113 2.228 1_565 S
Cd114 O118 2.273 1_565 S
Cd114 O122 2.277 . S
O115 C112 1.160 . S
O115 Cd116 2.203 . S
Cd116 O115 2.203 . S
Cd116 O118 2.411 . S
Cd116 O119 2.333 . S
Cd116 O120 2.352 . S
Cd116 O124 2.277 1_545 S
Cd116 O125 2.356 . S
C117 O122 1.209 . S
C117 O124 1.226 . S
O118 Cd114 2.273 1_545 S
O118 Cd116 2.411 . S
O118 C121 1.320 . S
O119 Cd116 2.333 . S
O119 C121 1.214 . S
O120 Cd116 2.352 . S
O120 C123 1.258 . S
C121 O118 1.320 . S
C121 O119 1.214 . S
O122 Cd114 2.277 . S
O122 C117 1.209 . S
C123 O120 1.258 . S
C123 O125 1.282 . S
O124 Cd116 2.277 1_565 S
O124 C117 1.226 . S
O125 Cd116 2.356 . S
O125 C123 1.282 . S
C126 O127 1.306 . S
C126 O129 1.160 . S
O127 C126 1.306 . S
O127 Cd128 2.228 . S
Cd128 O127 2.228 . S
Cd128 O132 2.273 . S
Cd128 O136 2.277 . S
O129 C126 1.160 . S
O129 Cd130 2.203 . S
Cd130 O129 2.203 . S
Cd130 O132 2.411 . S
Cd130 O133 2.333 . S
Cd130 O134 2.352 . S
Cd130 O138 2.277 . S
Cd130 O139 2.356 . S
C131 O136 1.209 . S
C131 O138 1.226 . S
O132 Cd128 2.273 . S
O132 Cd130 2.411 . S
O132 C135 1.320 . S
O133 Cd130 2.333 . S
O133 C135 1.214 . S
O134 Cd130 2.352 . S
O134 C137 1.258 . S
C135 O132 1.320 . S
C135 O133 1.214 . S
O136 Cd128 2.277 . S
O136 C131 1.209 . S
C137 O134 1.258 . S
C137 O139 1.282 . S
O138 Cd130 2.277 . S
O138 C131 1.226 . S
O139 Cd130 2.356 . S
O139 C137 1.282 . S
C140 O141 1.306 . S
C140 O143 1.160 . S
O141 C140 1.306 . S
O141 Cd142 2.228 . S
Cd142 O141 2.228 . S
Cd142 O146 2.273 . S
Cd142 O150 2.277 . S
O143 C140 1.160 . S
O143 Cd144 2.203 . S
Cd144 O143 2.203 . S
Cd144 O146 2.411 . S
Cd144 O147 2.333 . S
Cd144 O148 2.352 1_545 S
Cd144 O152 2.277 . S
Cd144 O153 2.356 . S
C145 O150 1.209 . S
C145 O152 1.226 . S
O146 Cd142 2.273 . S
O146 Cd144 2.411 . S
O146 C149 1.320 . S
O147 Cd144 2.333 . S
O147 C149 1.214 . S
O148 Cd144 2.352 1_565 S
O148 C151 1.258 . S
C149 O146 1.320 . S
C149 O147 1.214 . S
O150 Cd142 2.277 . S
O150 C145 1.209 . S
C151 O148 1.258 . S
C151 O153 1.282 1_565 S
O152 Cd144 2.277 . S
O152 C145 1.226 . S
O153 Cd144 2.356 . S
O153 C151 1.282 1_545 S
C154 O155 1.306 1_554 S
C154 O157 1.160 . S
O155 C154 1.306 1_556 S
O155 Cd156 2.228 . S
Cd156 O155 2.228 . S
Cd156 O160 2.271 . S
Cd156 O164 2.277 . S
O157 C154 1.160 . S
O157 Cd158 2.203 . S
Cd158 O157 2.203 . S
Cd158 O160 2.411 1_554 S
Cd158 O161 2.333 . S
Cd158 O162 2.352 . S
Cd158 O166 2.277 1_554 S
Cd158 O167 2.356 . S
C159 O164 1.209 . S
C159 O166 1.226 . S
O160 Cd156 2.271 . S
O160 Cd158 2.411 1_556 S
O160 C163 1.329 . S
O161 Cd158 2.333 . S
O161 C163 1.206 1_554 S
O162 Cd158 2.352 . S
O162 C165 1.258 . S
C163 O160 1.329 . S
C163 O161 1.206 1_556 S
O164 Cd156 2.277 . S
O164 C159 1.209 . S
C165 O162 1.258 . S
C165 O167 1.282 . S
O166 Cd158 2.277 1_556 S
O166 C159 1.226 . S
O167 Cd158 2.356 . S
O167 C165 1.282 . S
C168 O169 1.306 . S
C168 O171 1.160 . S
O169 C168 1.306 . S
O169 Cd170 2.251 . S
Cd170 O169 2.251 . S
Cd170 O174 2.313 . S
Cd170 O178 2.271 1_554 S
O171 C168 1.160 . S
O171 Cd172 2.203 . S
Cd172 O171 2.203 . S
Cd172 O174 2.411 . S
Cd172 O175 2.333 . S
Cd172 O176 2.352 . S
Cd172 O180 2.311 . S
Cd172 O181 2.356 . S
C173 O178 1.209 . S
C173 O180 1.190 1_556 S
O174 Cd170 2.313 . S
O174 Cd172 2.411 . S
O174 C177 1.320 . S
O175 Cd172 2.333 . S
O175 C177 1.214 . S
O176 Cd172 2.352 . S
O176 C179 1.258 . S
C177 O174 1.320 . S
C177 O175 1.214 . S
O178 Cd170 2.271 1_556 S
O178 C173 1.209 . S
C179 O176 1.258 . S
C179 O181 1.282 . S
O180 Cd172 2.311 . S
O180 C173 1.190 1_554 S
O181 Cd172 2.356 . S
O181 C179 1.282 . S
C182 O183 1.306 . S
C182 O185 1.160 . S
O183 C182 1.306 . S
O183 Cd184 2.228 . S
Cd184 O183 2.228 . S
Cd184 O188 2.273 . S
Cd184 O192 2.277 . S
O185 C182 1.160 . S
O185 Cd186 2.203 . S
Cd186 O185 2.203 . S
Cd186 O188 2.411 . S
Cd186 O189 2.333 . S
Cd186 O190 2.352 . S
Cd186 O194 2.277 . S
Cd186 O195 2.356 . S
C187 O192 1.209 . S
C187 O194 1.226 . S
O188 Cd184 2.273 . S
O188 Cd186 2.411 . S
O188 C191 1.320 . S
O189 Cd186 2.333 . S
O189 C191 1.214 . S
O190 Cd186 2.352 . S
O190 C193 1.258 . S
C191 O188 1.320 . S
C191 O189 1.214 . S
O192 Cd184 2.277 . S
O192 C187 1.209 . S
C193 O190 1.258 . S
C193 O195 1.282 . S
O194 Cd186 2.277 . S
O194 C187 1.226 . S
O195 Cd186 2.356 . S
O195 C193 1.282 . S
C196 O197 1.306 . S
C196 O199 1.160 . S
O197 C196 1.306 . S
O197 Cd198 2.228 . S
Cd198 O197 2.228 . S
Cd198 O202 2.273 . S
Cd198 O206 2.277 . S
O199 C196 1.160 . S
O199 Cd200 2.203 . S
Cd200 O199 2.203 . S
Cd200 O202 2.411 . S
Cd200 O203 2.333 . S
Cd200 O204 2.352 . S
Cd200 O208 2.277 . S
Cd200 O209 2.356 . S
C201 O206 1.209 . S
C201 O208 1.226 . S
O202 Cd198 2.273 . S
O202 Cd200 2.411 . S
O202 C205 1.320 . S
O203 Cd200 2.333 . S
O203 C205 1.214 . S
O204 Cd200 2.352 . S
O204 C207 1.258 . S
C205 O202 1.320 . S
C205 O203 1.214 . S
O206 Cd198 2.277 . S
O206 C201 1.209 . S
C207 O204 1.258 . S
C207 O209 1.282 . S
O208 Cd200 2.277 . S
O208 C201 1.226 . S
O209 Cd200 2.356 . S
O209 C207 1.282 . S
C210 O211 1.306 . S
C210 O213 1.160 . S
O211 C210 1.306 . S
O211 Cd212 2.228 . S
Cd212 O211 2.228 . S
Cd212 O216 2.273 . S
Cd212 O220 2.277 . S
O213 C210 1.160 . S
O213 Cd214 2.203 . S
Cd214 O213 2.203 . S
Cd214 O216 2.411 . S
Cd214 O217 2.333 . S
Cd214 O218 2.352 . S
Cd214 O222 2.277 . S
Cd214 O223 2.356 . S
C215 O220 1.209 . S
C215 O222 1.226 . S
O216 Cd212 2.273 . S
O216 Cd214 2.411 . S
O216 C219 1.320 . S
O217 Cd214 2.333 . S
O217 C219 1.214 . S
O218 Cd214 2.352 . S
O218 C221 1.258 . S
C219 O216 1.320 . S
C219 O217 1.214 . S
O220 Cd212 2.277 . S
O220 C215 1.209 . S
C221 O218 1.258 . S
C221 O223 1.282 . S
O222 Cd214 2.277 . S
O222 C215 1.226 . S
O223 Cd214 2.356 . S
O223 C221 1.282 . S
C224 O225 1.314 . S
C224 O227 1.160 . S
O225 C224 1.314 . S
O225 Cd226 2.220 1_545 S
Cd226 O225 2.220 1_565 S
Cd226 O230 2.273 1_565 S
Cd226 O234 2.277 . S
O227 C224 1.160 . S
O227 Cd228 2.203 . S
Cd228 O227 2.203 . S
Cd228 O230 2.411 . S
Cd228 O231 2.333 . S
Cd228 O232 2.352 . S
Cd228 O236 2.277 1_545 S
Cd228 O237 2.356 . S
C229 O234 1.209 . S
C229 O236 1.226 . S
O230 Cd226 2.273 1_545 S
O230 Cd228 2.411 . S
O230 C233 1.320 . S
O231 Cd228 2.333 . S
O231 C233 1.214 . S
O232 Cd228 2.352 . S
O232 C235 1.258 . S
C233 O230 1.320 . S
C233 O231 1.214 . S
O234 Cd226 2.277 . S
O234 C229 1.209 . S
C235 O232 1.258 . S
C235 O237 1.282 . S
O236 Cd228 2.277 1_565 S
O236 C229 1.226 . S
O237 Cd228 2.356 . S
O237 C235 1.282 . S
C238 O239 1.306 . S
C238 O241 1.160 . S
O239 C238 1.306 . S
O239 Cd240 2.228 . S
Cd240 O239 2.228 . S
Cd240 O244 2.273 . S
Cd240 O248 2.277 . S
O241 C238 1.160 . S
O241 Cd242 2.203 . S
Cd242 O241 2.203 . S
Cd242 O244 2.411 . S
Cd242 O245 2.333 . S
Cd242 O246 2.352 . S
Cd242 O250 2.277 . S
Cd242 O251 2.356 . S
C243 O248 1.209 . S
C243 O250 1.226 . S
O244 Cd240 2.273 . S
O244 Cd242 2.411 . S
O244 C247 1.320 . S
O245 Cd242 2.333 . S
O245 C247 1.214 . S
O246 Cd242 2.352 . S
O246 C249 1.258 . S
C247 O244 1.320 . S
C247 O245 1.214 . S
O248 Cd240 2.277 . S
O248 C243 1.209 . S
C249 O246 1.258 . S
C249 O251 1.282 . S
O250 Cd242 2.277 . S
O250 C243 1.226 . S
O251 Cd242 2.356 . S
O251 C249 1.282 . S
C252 O253 1.306 . S
C252 O255 1.160 . S
O253 C252 1.306 . S
O253 Cd254 2.228 . S
Cd254 O253 2.228 . S
Cd254 O258 2.273 . S
Cd254 O262 2.277 . S
O255 C252 1.160 . S
O255 Cd256 2.203 . S
Cd256 O255 2.203 . S
Cd256 O258 2.411 . S
Cd256 O259 2.333 . S
Cd256 O260 2.352 . S
Cd256 O264 2.277 . S
Cd256 O265 2.356 . S
C257 O262 1.209 . S
C257 O264 1.226 . S
O258 Cd254 2.273 . S
O258 Cd256 2.411 . S
O258 C261 1.320 . S
O259 Cd256 2.333 . S
O259 C261 1.214 . S
O260 Cd256 2.352 . S
O260 C263 1.258 . S
C261 O258 1.320 . S
C261 O259 1.214 . S
O262 Cd254 2.277 . S
O262 C257 1.209 . S
C263 O260 1.258 . S
C263 O265 1.282 . S
O264 Cd256 2.277 . S
O264 C257 1.226 . S
O265 Cd256 2.356 . S
O265 C263 1.282 . S
C266 O267 1.306 . S
C266 O269 1.160 . S
O267 C266 1.306 . S
O267 Cd268 2.228 . S
Cd268 O267 2.228 . S
Cd268 O272 2.273 . S
Cd268 O276 2.277 . S
O269 C266 1.160 . S
O269 Cd270 2.203 . S
Cd270 O269 2.203 . S
Cd270 O272 2.411 . S
Cd270 O273 2.333 . S
Cd270 O274 2.352 1_545 S
Cd270 O278 2.277 . S
Cd270 O279 2.356 1_545 S
C271 O276 1.209 . S
C271 O278 1.226 . S
O272 Cd268 2.273 . S
O272 Cd270 2.411 . S
O272 C275 1.320 . S
O273 Cd270 2.333 . S
O273 C275 1.214 . S
O274 Cd270 2.352 1_565 S
O274 C277 1.258 . S
C275 O272 1.320 . S
C275 O273 1.214 . S
O276 Cd268 2.277 . S
O276 C271 1.209 . S
C277 O274 1.258 . S
C277 O279 1.282 . S
O278 Cd270 2.277 . S
O278 C271 1.226 . S
O279 Cd270 2.356 1_565 S
O279 C277 1.282 . S
C280 O281 1.306 . S
C280 O283 1.160 . S
O281 C280 1.306 . S
O281 Cd282 2.228 . S
Cd282 O281 2.228 . S
Cd282 O286 2.273 . S
Cd282 O290 2.277 . S
O283 C280 1.160 . S
O283 Cd284 2.203 . S
Cd284 O283 2.203 . S
Cd284 O286 2.411 . S
Cd284 O287 2.333 . S
Cd284 O288 2.352 1_554 S
Cd284 O292 2.277 . S
Cd284 O293 2.356 1_554 S
C285 O290 1.209 . S
C285 O292 1.226 . S
O286 Cd282 2.273 . S
O286 Cd284 2.411 . S
O286 C289 1.320 . S
O287 Cd284 2.333 . S
O287 C289 1.214 . S
O288 Cd284 2.352 1_556 S
O288 C291 1.258 . S
C289 O286 1.320 . S
C289 O287 1.214 . S
O290 Cd282 2.277 . S
O290 C285 1.209 . S
C291 O288 1.258 . S
C291 O293 1.282 . S
O292 Cd284 2.277 . S
O292 C285 1.226 . S
O293 Cd284 2.356 1_556 S
O293 C291 1.282 . S
C294 O295 1.306 . S
C294 O297 1.160 . S
O295 C294 1.306 . S
O295 Cd296 2.228 . S
Cd296 O295 2.228 . S
Cd296 O300 2.273 . S
Cd296 O304 2.277 . S
O297 C294 1.160 . S
O297 Cd298 2.203 . S
Cd298 O297 2.203 . S
Cd298 O300 2.411 . S
Cd298 O301 2.333 . S
Cd298 O302 2.352 . S
Cd298 O306 2.277 . S
Cd298 O307 2.356 . S
C299 O304 1.209 . S
C299 O306 1.226 . S
O300 Cd296 2.273 . S
O300 Cd298 2.411 . S
O300 C303 1.320 . S
O301 Cd298 2.333 . S
O301 C303 1.214 . S
O302 Cd298 2.352 . S
O302 C305 1.258 . S
C303 O300 1.320 . S
C303 O301 1.214 . S
O304 Cd296 2.277 . S
O304 C299 1.209 . S
C305 O302 1.258 . S
C305 O307 1.282 . S
O306 Cd298 2.277 . S
O306 C299 1.226 . S
O307 Cd298 2.356 . S
O307 C305 1.282 . S
C308 O309 1.306 . S
C308 O311 1.160 . S
O309 C308 1.306 . S
O309 Cd310 2.228 . S
Cd310 O309 2.228 . S
Cd310 O314 2.273 . S
Cd310 O318 2.277 . S
O311 C308 1.160 . S
O311 Cd312 2.203 . S
Cd312 O311 2.203 . S
Cd312 O314 2.411 . S
Cd312 O315 2.333 . S
Cd312 O316 2.352 . S
Cd312 O320 2.277 . S
Cd312 O321 2.356 . S
C313 O318 1.209 . S
C313 O320 1.226 . S
O314 Cd310 2.273 . S
O314 Cd312 2.411 . S
O314 C317 1.320 . S
O315 Cd312 2.333 . S
O315 C317 1.214 . S
O316 Cd312 2.352 . S
O316 C319 1.258 . S
C317 O314 1.320 . S
C317 O315 1.214 . S
O318 Cd310 2.277 . S
O318 C313 1.209 . S
C319 O316 1.258 . S
C319 O321 1.282 . S
O320 Cd312 2.277 . S
O320 C313 1.226 . S
O321 Cd312 2.356 . S
O321 C319 1.282 . S
C322 O323 1.306 . S
C322 O325 1.160 . S
O323 C322 1.306 . S
O323 Cd324 2.228 . S
Cd324 O323 2.228 . S
Cd324 O328 2.273 . S
Cd324 O332 2.277 . S
O325 C322 1.160 . S
O325 Cd326 2.203 . S
Cd326 O325 2.203 . S
Cd326 O328 2.411 . S
Cd326 O329 2.333 . S
Cd326 O330 2.352 . S
Cd326 O334 2.277 . S
Cd326 O335 2.356 . S
C327 O332 1.209 . S
C327 O334 1.226 . S
O328 Cd324 2.273 . S
O328 Cd326 2.411 . S
O328 C331 1.320 . S
O329 Cd326 2.333 . S
O329 C331 1.214 . S
O330 Cd326 2.352 . S
O330 C333 1.258 . S
C331 O328 1.320 . S
C331 O329 1.214 . S
O332 Cd324 2.277 . S
O332 C327 1.209 . S
C333 O330 1.258 . S
C333 O335 1.282 . S
O334 Cd326 2.277 . S
O334 C327 1.226 . S
O335 Cd326 2.356 . S
O335 C333 1.282 . S
Tb336 C338 2.809 1_455 S
Tb336 O356 2.484 1_455 S
Tb336 O357 2.440 1_454 S
Tb336 O358 2.658 . S
Tb336 O359 2.409 1_554 S
Tb336 O360 2.378 . S
Tb336 O364 2.325 . S
Tb336 O367 2.341 1_545 S
Tb337 C347 2.809 . S
Tb337 O358 2.325 . S
Tb337 O361 2.341 . S
Tb337 O362 2.514 . S
Tb337 O363 2.440 . S
Tb337 O364 2.658 . S
Tb337 O365 2.409 . S
Tb337 O366 2.378 1_545 S
C338 Tb336 2.809 1_655 S
C338 C339 1.514 . S
C338 O356 1.248 . S
C338 O357 1.266 1_554 S
C339 C338 1.514 . S
C339 C340 1.359 . S
C339 C344 1.348 1_554 S
C340 C339 1.359 . S
C340 C341 1.380 . S
C340 H368 0.929 . S
C341 C340 1.380 . S
C341 C342 1.322 1_554 S
C341 H369 0.931 . S
C342 C341 1.322 1_556 S
C342 C343 1.391 . S
C343 C342 1.391 . S
C343 C344 1.408 . S
C343 H370 0.930 . S
C344 C339 1.348 1_556 S
C344 C343 1.408 . S
C344 H371 0.930 . S
C345 O358 1.281 1_556 S
C345 O359 1.254 . S
C346 O360 1.236 . S
C346 O361 1.266 . S
C347 Tb337 2.809 . S
C347 C348 1.514 1_545 S
C347 O362 1.242 . S
C347 O363 1.266 . S
C348 C347 1.514 1_565 S
C348 C349 1.359 . S
C348 C353 1.348 . S
C349 C348 1.359 . S
C349 C350 1.380 . S
C349 H372 0.929 . S
C350 C349 1.380 . S
C350 C351 1.347 . S
C350 H373 0.931 . S
C351 C350 1.347 . S
C351 C352 1.369 . S
C352 C351 1.369 . S
C352 C353 1.408 . S
C352 H374 0.930 . S
C353 C348 1.348 . S
C353 C352 1.408 . S
C353 H375 0.930 . S
C354 O364 1.281 . S
C354 O365 1.254 . S
C355 O366 1.236 . S
C355 O367 1.266 . S
O356 Tb336 2.484 1_655 S
O356 C338 1.248 . S
O357 Tb336 2.440 1_656 S
O357 C338 1.266 1_556 S
O358 Tb336 2.658 . S
O358 Tb337 2.325 . S
O358 C345 1.281 1_554 S
O359 Tb336 2.409 1_556 S
O359 C345 1.254 . S
O360 Tb336 2.378 . S
O360 C346 1.236 . S
O361 Tb337 2.341 . S
O361 C346 1.266 . S
O362 Tb337 2.514 . S
O362 C347 1.242 . S
O363 Tb337 2.440 . S
O363 C347 1.266 . S
O364 Tb336 2.325 . S
O364 Tb337 2.658 . S
O364 C354 1.281 . S
O365 Tb337 2.409 . S
O365 C354 1.254 . S
O366 Tb337 2.378 1_565 S
O366 C355 1.236 . S
O367 Tb336 2.341 1_565 S
O367 C355 1.266 . S
H368 C340 0.929 . S
H369 C341 0.931 . S
H370 C343 0.930 . S
H371 C344 0.930 . S
H372 C349 0.929 . S
H373 C350 0.931 . S
H374 C352 0.930 . S
H375 C353 0.930 . S
Tb376 C378 2.809 . S
Tb376 O396 2.484 . S
Tb376 O397 2.440 . S
Tb376 O398 2.658 . S
Tb376 O399 2.409 . S
Tb376 O400 2.378 . S
Tb376 O404 2.325 . S
Tb376 O407 2.341 . S
Tb377 C387 2.809 . S
Tb377 O398 2.325 . S
Tb377 O401 2.341 . S
Tb377 O402 2.484 . S
Tb377 O403 2.440 . S
Tb377 O404 2.658 . S
Tb377 O405 2.409 . S
Tb377 O406 2.378 . S
C378 Tb376 2.809 . S
C378 C379 1.514 . S
C378 O396 1.248 . S
C378 O397 1.266 . S
C379 C378 1.514 . S
C379 C380 1.359 . S
C379 C384 1.348 . S
C380 C379 1.359 . S
C380 C381 1.380 . S
C380 H408 0.929 . S
C381 C380 1.380 . S
C381 C382 1.347 . S
C381 H409 0.931 . S
C382 C381 1.347 . S
C382 C383 1.369 . S
C383 C382 1.369 . S
C383 C384 1.408 . S
C383 H410 0.930 . S
C384 C379 1.348 . S
C384 C383 1.408 . S
C384 H411 0.930 . S
C385 O398 1.281 . S
C385 O399 1.254 . S
C386 O400 1.236 . S
C386 O401 1.266 . S
C387 Tb377 2.809 . S
C387 C388 1.514 . S
C387 O402 1.248 . S
C387 O403 1.266 . S
C388 C387 1.514 . S
C388 C389 1.359 . S
C388 C393 1.348 . S
C389 C388 1.359 . S
C389 C390 1.380 . S
C389 H412 0.929 . S
C390 C389 1.380 . S
C390 C391 1.347 . S
C390 H413 0.931 . S
C391 C390 1.347 . S
C391 C392 1.369 . S
C392 C391 1.369 . S
C392 C393 1.408 . S
C392 H414 0.930 . S
C393 C388 1.348 . S
C393 C392 1.408 . S
C393 H415 0.930 . S
C394 O404 1.281 . S
C394 O405 1.254 . S
C395 O406 1.236 . S
C395 O407 1.266 . S
O396 Tb376 2.484 . S
O396 C378 1.248 . S
O397 Tb376 2.440 . S
O397 C378 1.266 . S
O398 Tb376 2.658 . S
O398 Tb377 2.325 . S
O398 C385 1.281 . S
O399 Tb376 2.409 . S
O399 C385 1.254 . S
O400 Tb376 2.378 . S
O400 C386 1.236 . S
O401 Tb377 2.341 . S
O401 C386 1.266 . S
O402 Tb377 2.484 . S
O402 C387 1.248 . S
O403 Tb377 2.440 . S
O403 C387 1.266 . S
O404 Tb376 2.325 . S
O404 Tb377 2.658 . S
O404 C394 1.281 . S
O405 Tb377 2.409 . S
O405 C394 1.254 . S
O406 Tb377 2.378 . S
O406 C395 1.236 . S
O407 Tb376 2.341 . S
O407 C395 1.266 . S
H408 C380 0.929 . S
H409 C381 0.931 . S
H410 C383 0.930 . S
H411 C384 0.930 . S
H412 C389 0.929 . S
H413 C390 0.931 . S
H414 C392 0.930 . S
H415 C393 0.930 . S
Tb416 C418 2.809 1_545 S
Tb416 O436 2.484 1_545 S
Tb416 O437 2.440 . S
Tb416 O438 2.658 . S
Tb416 O439 2.409 . S
Tb416 O440 2.378 1_545 S
Tb416 O444 2.325 . S
Tb416 O447 2.341 . S
Tb417 C427 2.809 . S
Tb417 O438 2.325 . S
Tb417 O441 2.341 1_545 S
Tb417 O442 2.484 . S
Tb417 O443 2.440 . S
Tb417 O444 2.658 . S
Tb417 O445 2.409 . S
Tb417 O446 2.378 . S
C418 Tb416 2.809 1_565 S
C418 C419 1.514 . S
C418 O436 1.248 . S
C418 O437 1.266 1_565 S
C419 C418 1.514 . S
C419 C420 1.359 . S
C419 C424 1.348 . S
C420 C419 1.359 . S
C420 C421 1.380 . S
C420 H448 0.929 . S
C421 C420 1.380 . S
C421 C422 1.347 . S
C421 H449 0.931 . S
C422 C421 1.347 . S
C422 C423 1.369 . S
C423 C422 1.369 . S
C423 C424 1.408 . S
C423 H450 0.930 . S
C424 C419 1.348 . S
C424 C423 1.408 . S
C424 H451 0.930 . S
C425 O438 1.281 . S
C425 O439 1.254 . S
C426 O440 1.236 . S
C426 O441 1.266 . S
C427 Tb417 2.809 . S
C427 C428 1.514 . S
C427 O442 1.248 . S
C427 O443 1.266 . S
C428 C427 1.514 . S
C428 C429 1.359 . S
C428 C433 1.348 . S
C429 C428 1.359 . S
C429 C430 1.380 . S
C429 H452 0.929 . S
C430 C429 1.380 . S
C430 C431 1.347 . S
C430 H453 0.931 . S
C431 C430 1.347 . S
C431 C432 1.369 . S
C432 C431 1.369 . S
C432 C433 1.408 . S
C432 H454 0.930 . S
C433 C428 1.348 . S
C433 C432 1.408 . S
C433 H455 0.930 . S
C434 O444 1.281 . S
C434 O445 1.254 . S
C435 O446 1.236 . S
C435 O447 1.266 . S
O436 Tb416 2.484 1_565 S
O436 C418 1.248 . S
O437 Tb416 2.440 . S
O437 C418 1.266 1_545 S
O438 Tb416 2.658 . S
O438 Tb417 2.325 . S
O438 C425 1.281 . S
O439 Tb416 2.409 . S
O439 C425 1.254 . S
O440 Tb416 2.378 1_565 S
O440 C426 1.236 . S
O441 Tb417 2.341 1_565 S
O441 C426 1.266 . S
O442 Tb417 2.484 . S
O442 C427 1.248 . S
O443 Tb417 2.440 . S
O443 C427 1.266 . S
O444 Tb416 2.325 . S
O444 Tb417 2.658 . S
O444 C434 1.281 . S
O445 Tb417 2.409 . S
O445 C434 1.254 . S
O446 Tb417 2.378 . S
O446 C435 1.236 . S
O447 Tb416 2.341 . S
O447 C435 1.266 . S
H448 C420 0.929 . S
H449 C421 0.931 . S
H450 C423 0.930 . S
H451 C424 0.930 . S
H452 C429 0.929 . S
H453 C430 0.931 . S
H454 C432 0.930 . S
H455 C433 0.930 . S
Tb456 C458 2.809 . S
Tb456 O476 2.484 . S
Tb456 O477 2.440 . S
Tb456 O478 2.658 . S
Tb456 O479 2.409 . S
Tb456 O480 2.378 . S
Tb456 O484 2.325 . S
Tb456 O487 2.341 . S
Tb457 C467 2.809 . S
Tb457 O478 2.325 . S
Tb457 O481 2.341 . S
Tb457 O482 2.484 . S
Tb457 O483 2.440 . S
Tb457 O484 2.658 . S
Tb457 O485 2.409 . S
Tb457 O486 2.378 . S
C458 Tb456 2.809 . S
C458 C459 1.514 . S
C458 O476 1.248 . S
C458 O477 1.266 . S
C459 C458 1.514 . S
C459 C460 1.359 . S
C459 C464 1.348 . S
C460 C459 1.359 . S
C460 C461 1.380 . S
C460 H488 0.929 . S
C461 C460 1.380 . S
C461 C462 1.347 . S
C461 H489 0.931 . S
C462 C461 1.347 . S
C462 C463 1.369 . S
C463 C462 1.369 . S
C463 C464 1.408 . S
C463 H490 0.930 . S
C464 C459 1.348 . S
C464 C463 1.408 . S
C464 H491 0.930 . S
C465 O478 1.281 . S
C465 O479 1.254 . S
C466 O480 1.236 . S
C466 O481 1.266 . S
C467 Tb457 2.809 . S
C467 C468 1.514 . S
C467 O482 1.248 . S
C467 O483 1.266 . S
C468 C467 1.514 . S
C468 C469 1.359 . S
C468 C473 1.348 . S
C469 C468 1.359 . S
C469 C470 1.380 . S
C469 H492 0.929 . S
C470 C469 1.380 . S
C470 C471 1.347 . S
C470 H493 0.931 . S
C471 C470 1.347 . S
C471 C472 1.369 . S
C472 C471 1.369 . S
C472 C473 1.408 . S
C472 H494 0.930 . S
C473 C468 1.348 . S
C473 C472 1.408 . S
C473 H495 0.930 . S
C474 O484 1.281 . S
C474 O485 1.254 . S
C475 O486 1.236 . S
C475 O487 1.266 . S
O476 Tb456 2.484 . S
O476 C458 1.248 . S
O477 Tb456 2.440 . S
O477 C458 1.266 . S
O478 Tb456 2.658 . S
O478 Tb457 2.325 . S
O478 C465 1.281 . S
O479 Tb456 2.409 . S
O479 C465 1.254 . S
O480 Tb456 2.378 . S
O480 C466 1.236 . S
O481 Tb457 2.341 . S
O481 C466 1.266 . S
O482 Tb457 2.484 . S
O482 C467 1.248 . S
O483 Tb457 2.440 . S
O483 C467 1.266 . S
O484 Tb456 2.325 . S
O484 Tb457 2.658 . S
O484 C474 1.281 . S
O485 Tb457 2.409 . S
O485 C474 1.254 . S
O486 Tb457 2.378 . S
O486 C475 1.236 . S
O487 Tb456 2.341 . S
O487 C475 1.266 . S
H488 C460 0.929 . S
H489 C461 0.931 . S
H490 C463 0.930 . S
H491 C464 0.930 . S
H492 C469 0.929 . S
H493 C470 0.931 . S
H494 C472 0.930 . S
H495 C473 0.930 . S
Tb496 C498 2.809 . S
Tb496 O516 2.484 . S
Tb496 O517 2.440 . S
Tb496 O518 2.658 . S
Tb496 O519 2.409 1_455 S
Tb496 O520 2.378 . S
Tb496 O524 2.325 . S
Tb496 O527 2.341 . S
Tb497 C507 2.809 . S
Tb497 O518 2.325 1_565 S
Tb497 O521 2.370 . S
Tb497 O522 2.484 . S
Tb497 O523 2.440 . S
Tb497 O524 2.658 1_565 S
Tb497 O525 2.409 1_565 S
Tb497 O526 2.378 1_565 S
C498 Tb496 2.809 . S
C498 C499 1.514 . S
C498 O516 1.248 . S
C498 O517 1.266 . S
C499 C498 1.514 . S
C499 C500 1.359 . S
C499 C504 1.348 1_455 S
C500 C499 1.359 . S
C500 C501 1.380 . S
C500 H528 0.929 . S
C501 C500 1.380 . S
C501 C502 1.347 . S
C501 H529 0.931 . S
C502 C501 1.347 . S
C502 C503 1.369 1_455 S
C503 C502 1.369 1_655 S
C503 C504 1.408 . S
C503 H530 0.930 . S
C504 C499 1.348 1_655 S
C504 C503 1.408 . S
C504 H531 0.930 . S
C505 O518 1.280 . S
C505 O519 1.254 1_455 S
C506 O520 1.236 . S
C506 O521 1.215 1_545 S
C507 Tb497 2.809 . S
C507 C508 1.514 . S
C507 O522 1.248 . S
C507 O523 1.266 . S
C508 C507 1.514 . S
C508 C509 1.359 . S
C508 C513 1.348 . S
C509 C508 1.359 . S
C509 C510 1.380 . S
C509 H532 0.929 . S
C510 C509 1.380 . S
C510 C511 1.347 . S
C510 H533 0.931 . S
C511 C510 1.347 . S
C511 C512 1.369 . S
C512 C511 1.369 . S
C512 C513 1.408 . S
C512 H534 0.930 . S
C513 C508 1.348 . S
C513 C512 1.408 . S
C513 H535 0.930 . S
C514 O524 1.281 . S
C514 O525 1.254 . S
C515 O526 1.236 . S
C515 O527 1.266 . S
O516 Tb496 2.484 . S
O516 C498 1.248 . S
O517 Tb496 2.440 . S
O517 C498 1.266 . S
O518 Tb496 2.658 . S
O518 Tb497 2.325 1_545 S
O518 C505 1.280 . S
O519 Tb496 2.409 1_655 S
O519 C505 1.254 1_655 S
O520 Tb496 2.378 . S
O520 C506 1.236 . S
O521 Tb497 2.370 . S
O521 C506 1.215 1_565 S
O522 Tb497 2.484 . S
O522 C507 1.248 . S
O523 Tb497 2.440 . S
O523 C507 1.266 . S
O524 Tb496 2.325 . S
O524 Tb497 2.658 1_545 S
O524 C514 1.281 . S
O525 Tb497 2.409 1_545 S
O525 C514 1.254 . S
O526 Tb497 2.378 1_545 S
O526 C515 1.236 . S
O527 Tb496 2.341 . S
O527 C515 1.266 . S
H528 C500 0.929 . S
H529 C501 0.931 . S
H530 C503 0.930 . S
H531 C504 0.930 . S
H532 C509 0.929 . S
H533 C510 0.931 . S
H534 C512 0.930 . S
H535 C513 0.930 . S
Tb536 C538 2.809 . S
Tb536 O556 2.484 . S
Tb536 O557 2.440 . S
Tb536 O558 2.658 . S
Tb536 O559 2.409 . S
Tb536 O560 2.378 . S
Tb536 O564 2.325 . S
Tb536 O567 2.341 . S
Tb537 C547 2.809 . S
Tb537 O558 2.325 . S
Tb537 O561 2.341 . S
Tb537 O562 2.484 . S
Tb537 O563 2.440 . S
Tb537 O564 2.658 . S
Tb537 O565 2.409 . S
Tb537 O566 2.378 . S
C538 Tb536 2.809 . S
C538 C539 1.514 . S
C538 O556 1.248 . S
C538 O557 1.266 . S
C539 C538 1.514 . S
C539 C540 1.359 . S
C539 C544 1.348 . S
C540 C539 1.359 . S
C540 C541 1.380 . S
C540 H568 0.929 . S
C541 C540 1.380 . S
C541 C542 1.347 . S
C541 H569 0.931 . S
C542 C541 1.347 . S
C542 C543 1.369 . S
C543 C542 1.369 . S
C543 C544 1.408 . S
C543 H570 0.930 . S
C544 C539 1.348 . S
C544 C543 1.408 . S
C544 H571 0.930 . S
C545 O558 1.281 . S
C545 O559 1.254 . S
C546 O560 1.236 . S
C546 O561 1.266 . S
C547 Tb537 2.809 . S
C547 C548 1.514 . S
C547 O562 1.248 . S
C547 O563 1.266 . S
C548 C547 1.514 . S
C548 C549 1.359 . S
C548 C553 1.348 . S
C549 C548 1.359 . S
C549 C550 1.380 . S
C549 H572 0.929 . S
C550 C549 1.380 . S
C550 C551 1.347 . S
C550 H573 0.931 . S
C551 C550 1.347 . S
C551 C552 1.369 . S
C552 C551 1.369 . S
C552 C553 1.408 . S
C552 H574 0.930 . S
C553 C548 1.348 . S
C553 C552 1.408 . S
C553 H575 0.930 . S
C554 O564 1.281 . S
C554 O565 1.254 . S
C555 O566 1.236 . S
C555 O567 1.266 . S
O556 Tb536 2.484 . S
O556 C538 1.248 . S
O557 Tb536 2.440 . S
O557 C538 1.266 . S
O558 Tb536 2.658 . S
O558 Tb537 2.325 . S
O558 C545 1.281 . S
O559 Tb536 2.409 . S
O559 C545 1.254 . S
O560 Tb536 2.378 . S
O560 C546 1.236 . S
O561 Tb537 2.341 . S
O561 C546 1.266 . S
O562 Tb537 2.484 . S
O562 C547 1.248 . S
O563 Tb537 2.440 . S
O563 C547 1.266 . S
O564 Tb536 2.325 . S
O564 Tb537 2.658 . S
O564 C554 1.281 . S
O565 Tb537 2.409 . S
O565 C554 1.254 . S
O566 Tb537 2.378 . S
O566 C555 1.236 . S
O567 Tb536 2.341 . S
O567 C555 1.266 . S
H568 C540 0.929 . S
H569 C541 0.931 . S
H570 C543 0.930 . S
H571 C544 0.930 . S
H572 C549 0.929 . S
H573 C550 0.931 . S
H574 C552 0.930 . S
H575 C553 0.930 . S
Tb576 C578 2.817 . S
Tb576 O596 2.484 1_545 S
Tb576 O597 2.440 . S
Tb576 O598 2.658 . S
Tb576 O599 2.409 . S
Tb576 O600 2.378 . S
Tb576 O604 2.325 1_545 S
Tb576 O607 2.341 1_554 S
Tb577 C587 2.809 . S
Tb577 O598 2.325 . S
Tb577 O601 2.341 . S
Tb577 O602 2.484 . S
Tb577 O603 2.440 . S
Tb577 O604 2.658 1_545 S
Tb577 O605 2.409 1_545 S
Tb577 O606 2.378 . S
C578 Tb576 2.817 . S
C578 C579 1.507 1_545 S
C578 O596 1.221 1_545 S
C578 O597 1.301 . S
C579 C578 1.507 1_565 S
C579 C580 1.359 . S
C579 C584 1.348 1_565 S
C580 C579 1.359 . S
C580 C581 1.380 . S
C580 H608 0.929 . S
C581 C580 1.380 . S
C581 C582 1.347 . S
C581 H609 0.931 . S
C582 C581 1.347 . S
C582 C583 1.369 . S
C583 C582 1.369 . S
C583 C584 1.408 1_565 S
C583 H610 0.930 1_565 S
C584 C579 1.348 1_545 S
C584 C583 1.408 1_545 S
C584 H611 0.930 . S
C585 O598 1.281 . S
C585 O599 1.254 . S
C586 O600 1.236 . S
C586 O601 1.266 . S
C587 Tb577 2.809 . S
C587 C588 1.514 . S
C587 O602 1.248 . S
C587 O603 1.266 . S
C588 C587 1.514 . S
C588 C589 1.359 . S
C588 C593 1.348 . S
C589 C588 1.359 . S
C589 C590 1.380 . S
C589 H612 0.929 . S
C590 C589 1.380 . S
C590 C591 1.347 . S
C590 H613 0.931 . S
C591 C590 1.347 . S
C591 C592 1.369 . S
C592 C591 1.369 . S
C592 C593 1.408 . S
C592 H614 0.930 . S
C593 C588 1.348 . S
C593 C592 1.408 . S
C593 H615 0.930 . S
C594 O604 1.281 . S
C594 O605 1.254 . S
C595 O606 1.236 1_556 S
C595 O607 1.266 . S
O596 Tb576 2.484 1_565 S
O596 C578 1.221 1_565 S
O597 Tb576 2.440 . S
O597 C578 1.301 . S
O598 Tb576 2.658 . S
O598 Tb577 2.325 . S
O598 C585 1.281 . S
O599 Tb576 2.409 . S
O599 C585 1.254 . S
O600 Tb576 2.378 . S
O600 C586 1.236 . S
O601 Tb577 2.341 . S
O601 C586 1.266 . S
O602 Tb577 2.484 . S
O602 C587 1.248 . S
O603 Tb577 2.440 . S
O603 C587 1.266 . S
O604 Tb576 2.325 1_565 S
O604 Tb577 2.658 1_565 S
O604 C594 1.281 . S
O605 Tb577 2.409 1_565 S
O605 C594 1.254 . S
O606 Tb577 2.378 . S
O606 C595 1.236 1_554 S
O607 Tb576 2.341 1_556 S
O607 C595 1.266 . S
H608 C580 0.929 . S
H609 C581 0.931 . S
H610 C583 0.930 1_545 S
H611 C584 0.930 . S
H612 C589 0.929 . S
H613 C590 0.931 . S
H614 C592 0.930 . S
H615 C593 0.930 . S
Tb616 C618 2.809 . S
Tb616 O636 2.484 . S
Tb616 O637 2.440 . S
Tb616 O638 2.658 . S
Tb616 O639 2.409 . S
Tb616 O640 2.378 . S
Tb616 O644 2.325 . S
Tb616 O647 2.341 . S
Tb617 C627 2.809 . S
Tb617 O638 2.325 . S
Tb617 O641 2.341 . S
Tb617 O642 2.484 . S
Tb617 O643 2.440 . S
Tb617 O644 2.658 . S
Tb617 O645 2.409 . S
Tb617 O646 2.378 . S
C618 Tb616 2.809 . S
C618 C619 1.514 . S
C618 O636 1.248 . S
C618 O637 1.266 . S
C619 C618 1.514 . S
C619 C620 1.359 . S
C619 C624 1.348 . S
C620 C619 1.359 . S
C620 C621 1.380 . S
C620 H648 0.929 . S
C621 C620 1.380 . S
C621 C622 1.347 . S
C621 H649 0.931 . S
C622 C621 1.347 . S
C622 C623 1.369 . S
C623 C622 1.369 . S
C623 C624 1.408 . S
C623 H650 0.930 . S
C624 C619 1.348 . S
C624 C623 1.408 . S
C624 H651 0.930 . S
C625 O638 1.281 . S
C625 O639 1.254 . S
C626 O640 1.236 . S
C626 O641 1.266 . S
C627 Tb617 2.809 . S
C627 C628 1.514 . S
C627 O642 1.248 . S
C627 O643 1.266 . S
C628 C627 1.514 . S
C628 C629 1.359 . S
C628 C633 1.348 . S
C629 C628 1.359 . S
C629 C630 1.380 . S
C629 H652 0.929 . S
C630 C629 1.380 . S
C630 C631 1.347 . S
C630 H653 0.931 . S
C631 C630 1.347 . S
C631 C632 1.369 . S
C632 C631 1.369 . S
C632 C633 1.408 . S
C632 H654 0.930 . S
C633 C628 1.348 . S
C633 C632 1.408 . S
C633 H655 0.930 . S
C634 O644 1.281 . S
C634 O645 1.254 . S
C635 O646 1.236 . S
C635 O647 1.266 . S
O636 Tb616 2.484 . S
O636 C618 1.248 . S
O637 Tb616 2.440 . S
O637 C618 1.266 . S
O638 Tb616 2.658 . S
O638 Tb617 2.325 . S
O638 C625 1.281 . S
O639 Tb616 2.409 . S
O639 C625 1.254 . S
O640 Tb616 2.378 . S
O640 C626 1.236 . S
O641 Tb617 2.341 . S
O641 C626 1.266 . S
O642 Tb617 2.484 . S
O642 C627 1.248 . S
O643 Tb617 2.440 . S
O643 C627 1.266 . S
O644 Tb616 2.325 . S
O644 Tb617 2.658 . S
O644 C634 1.281 . S
O645 Tb617 2.409 . S
O645 C634 1.254 . S
O646 Tb617 2.378 . S
O646 C635 1.236 . S
O647 Tb616 2.341 . S
O647 C635 1.266 . S
H648 C620 0.929 . S
H649 C621 0.931 . S
H650 C623 0.930 . S
H651 C624 0.930 . S
H652 C629 0.929 . S
H653 C630 0.931 . S
H654 C632 0.930 . S
H655 C633 0.930 . S
Tb656 C658 2.809 . S
Tb656 O676 2.484 . S
Tb656 O677 2.440 . S
Tb656 O678 2.658 . S
Tb656 O679 2.409 . S
Tb656 O680 2.378 1_554 S
Tb656 O684 2.325 . S
Tb656 O687 2.341 . S
Tb657 C667 2.809 . S
Tb657 O678 2.325 . S
Tb657 O681 2.341 1_554 S
Tb657 O682 2.484 . S
Tb657 O683 2.440 . S
Tb657 O684 2.658 . S
Tb657 O685 2.409 . S
Tb657 O686 2.378 . S
C658 Tb656 2.809 . S
C658 C659 1.514 1_554 S
C658 O676 1.248 . S
C658 O677 1.266 . S
C659 C658 1.514 1_556 S
C659 C660 1.359 . S
C659 C664 1.348 . S
C660 C659 1.359 . S
C660 C661 1.380 . S
C660 H688 0.929 . S
C661 C660 1.380 . S
C661 C662 1.347 . S
C661 H689 0.931 . S
C662 C661 1.347 . S
C662 C663 1.369 . S
C663 C662 1.369 . S
C663 C664 1.408 . S
C663 H690 0.930 . S
C664 C659 1.348 . S
C664 C663 1.408 . S
C664 H691 0.930 . S
C665 O678 1.281 . S
C665 O679 1.254 . S
C666 O680 1.236 . S
C666 O681 1.266 . S
C667 Tb657 2.809 . S
C667 C668 1.514 . S
C667 O682 1.248 . S
C667 O683 1.266 . S
C668 C667 1.514 . S
C668 C669 1.359 . S
C668 C673 1.348 . S
C669 C668 1.359 . S
C669 C670 1.380 . S
C669 H692 0.929 . S
C670 C669 1.380 . S
C670 C671 1.347 . S
C670 H693 0.931 . S
C671 C670 1.347 . S
C671 C672 1.369 . S
C672 C671 1.369 . S
C672 C673 1.408 . S
C672 H694 0.930 . S
C673 C668 1.348 . S
C673 C672 1.408 . S
C673 H695 0.930 . S
C674 O684 1.281 . S
C674 O685 1.254 . S
C675 O686 1.236 . S
C675 O687 1.266 . S
O676 Tb656 2.484 . S
O676 C658 1.248 . S
O677 Tb656 2.440 . S
O677 C658 1.266 . S
O678 Tb656 2.658 . S
O678 Tb657 2.325 . S
O678 C665 1.281 . S
O679 Tb656 2.409 . S
O679 C665 1.254 . S
O680 Tb656 2.378 1_556 S
O680 C666 1.236 . S
O681 Tb657 2.341 1_556 S
O681 C666 1.266 . S
O682 Tb657 2.484 . S
O682 C667 1.248 . S
O683 Tb657 2.440 . S
O683 C667 1.266 . S
O684 Tb656 2.325 . S
O684 Tb657 2.658 . S
O684 C674 1.281 . S
O685 Tb657 2.409 . S
O685 C674 1.254 . S
O686 Tb657 2.378 . S
O686 C675 1.236 . S
O687 Tb656 2.341 . S
O687 C675 1.266 . S
H688 C660 0.929 . S
H689 C661 0.931 . S
H690 C663 0.930 . S
H691 C664 0.930 . S
H692 C669 0.929 . S
H693 C670 0.931 . S
H694 C672 0.930 . S
H695 C673 0.930 . S
Tb696 C698 2.809 . S
Tb696 O716 2.484 . S
Tb696 O717 2.440 . S
Tb696 O718 2.658 . S
Tb696 O719 2.409 . S
Tb696 O720 2.378 . S
Tb696 O724 2.325 . S
Tb696 O727 2.341 . S
Tb697 C707 2.809 . S
Tb697 O718 2.325 . S
Tb697 O721 2.341 . S
Tb697 O722 2.484 . S
Tb697 O723 2.440 . S
Tb697 O724 2.658 . S
Tb697 O725 2.409 . S
Tb697 O726 2.378 . S
C698 Tb696 2.809 . S
C698 C699 1.514 . S
C698 O716 1.248 . S
C698 O717 1.266 . S
C699 C698 1.514 . S
C699 C700 1.359 . S
C699 C704 1.348 . S
C700 C699 1.359 . S
C700 C701 1.380 . S
C700 H728 0.929 . S
C701 C700 1.380 . S
C701 C702 1.347 . S
C701 H729 0.931 . S
C702 C701 1.347 . S
C702 C703 1.369 . S
C703 C702 1.369 . S
C703 C704 1.408 . S
C703 H730 0.930 . S
C704 C699 1.348 . S
C704 C703 1.408 . S
C704 H731 0.930 . S
C705 O718 1.281 . S
C705 O719 1.254 . S
C706 O720 1.236 . S
C706 O721 1.266 . S
C707 Tb697 2.809 . S
C707 C708 1.514 . S
C707 O722 1.248 . S
C707 O723 1.266 . S
C708 C707 1.514 . S
C708 C709 1.359 . S
C708 C713 1.348 . S
C709 C708 1.359 . S
C709 C710 1.380 . S
C709 H732 0.929 . S
C710 C709 1.380 . S
C710 C711 1.347 . S
C710 H733 0.931 . S
C711 C710 1.347 . S
C711 C712 1.369 . S
C712 C711 1.369 . S
C712 C713 1.408 . S
C712 H734 0.930 . S
C713 C708 1.348 . S
C713 C712 1.408 . S
C713 H735 0.930 . S
C714 O724 1.281 . S
C714 O725 1.254 . S
C715 O726 1.236 . S
C715 O727 1.266 . S
O716 Tb696 2.484 . S
O716 C698 1.248 . S
O717 Tb696 2.440 . S
O717 C698 1.266 . S
O718 Tb696 2.658 . S
O718 Tb697 2.325 . S
O718 C705 1.281 . S
O719 Tb696 2.409 . S
O719 C705 1.254 . S
O720 Tb696 2.378 . S
O720 C706 1.236 . S
O721 Tb697 2.341 . S
O721 C706 1.266 . S
O722 Tb697 2.484 . S
O722 C707 1.248 . S
O723 Tb697 2.440 . S
O723 C707 1.266 . S
O724 Tb696 2.325 . S
O724 Tb697 2.658 . S
O724 C714 1.281 . S
O725 Tb697 2.409 . S
O725 C714 1.254 . S
O726 Tb697 2.378 . S
O726 C715 1.236 . S
O727 Tb696 2.341 . S
O727 C715 1.266 . S
H728 C700 0.929 . S
H729 C701 0.931 . S
H730 C703 0.930 . S
H731 C704 0.930 . S
H732 C709 0.929 . S
H733 C710 0.931 . S
H734 C712 0.930 . S
H735 C713 0.930 . S
Tb736 C738 2.809 1_455 S
Tb736 O756 2.484 1_455 S
Tb736 O757 2.440 1_455 S
Tb736 O758 2.658 . S
Tb736 O759 2.409 . S
Tb736 O760 2.378 . S
Tb736 O764 2.325 . S
Tb736 O767 2.341 . S
Tb737 C747 2.809 . S
Tb737 O758 2.325 . S
Tb737 O761 2.341 . S
Tb737 O762 2.484 . S
Tb737 O763 2.440 . S
Tb737 O764 2.658 . S
Tb737 O765 2.409 . S
Tb737 O766 2.378 . S
C738 Tb736 2.809 1_655 S
C738 C739 1.514 . S
C738 O756 1.248 . S
C738 O757 1.266 . S
C739 C738 1.514 . S
C739 C740 1.359 . S
C739 C744 1.348 . S
C740 C739 1.359 . S
C740 C741 1.380 . S
C740 H768 0.929 . S
C741 C740 1.380 . S
C741 C742 1.347 . S
C741 H769 0.931 . S
C742 C741 1.347 . S
C742 C743 1.369 . S
C743 C742 1.369 . S
C743 C744 1.408 . S
C743 H770 0.930 . S
C744 C739 1.348 . S
C744 C743 1.408 . S
C744 H771 0.930 . S
C745 O758 1.281 . S
C745 O759 1.254 . S
C746 O760 1.236 . S
C746 O761 1.266 . S
C747 Tb737 2.809 . S
C747 C748 1.514 . S
C747 O762 1.248 . S
C747 O763 1.266 . S
C748 C747 1.514 . S
C748 C749 1.359 . S
C748 C753 1.348 . S
C749 C748 1.359 . S
C749 C750 1.380 . S
C749 H772 0.929 . S
C750 C749 1.380 . S
C750 C751 1.347 . S
C750 H773 0.931 . S
C751 C750 1.347 . S
C751 C752 1.369 . S
C752 C751 1.369 . S
C752 C753 1.408 . S
C752 H774 0.930 . S
C753 C748 1.348 . S
C753 C752 1.408 . S
C753 H775 0.930 . S
C754 O764 1.281 . S
C754 O765 1.254 . S
C755 O766 1.236 . S
C755 O767 1.266 . S
O756 Tb736 2.484 1_655 S
O756 C738 1.248 . S
O757 Tb736 2.440 1_655 S
O757 C738 1.266 . S
O758 Tb736 2.658 . S
O758 Tb737 2.325 . S
O758 C745 1.281 . S
O759 Tb736 2.409 . S
O759 C745 1.254 . S
O760 Tb736 2.378 . S
O760 C746 1.236 . S
O761 Tb737 2.341 . S
O761 C746 1.266 . S
O762 Tb737 2.484 . S
O762 C747 1.248 . S
O763 Tb737 2.440 . S
O763 C747 1.266 . S
O764 Tb736 2.325 . S
O764 Tb737 2.658 . S
O764 C754 1.281 . S
O765 Tb737 2.409 . S
O765 C754 1.254 . S
O766 Tb737 2.378 . S
O766 C755 1.236 . S
O767 Tb736 2.341 . S
O767 C755 1.266 . S
H768 C740 0.929 . S
H769 C741 0.931 . S
H770 C743 0.930 . S
H771 C744 0.930 . S
H772 C749 0.929 . S
H773 C750 0.931 . S
H774 C752 0.930 . S
H775 C753 0.930 . S
Tb776 C778 2.809 . S
Tb776 O796 2.484 . S
Tb776 O797 2.440 . S
Tb776 O798 2.658 . S
Tb776 O799 2.409 . S
Tb776 O800 2.378 . S
Tb776 O804 2.325 . S
Tb776 O807 2.341 . S
Tb777 C787 2.809 . S
Tb777 O798 2.325 . S
Tb777 O801 2.341 . S
Tb777 O802 2.484 . S
Tb777 O803 2.440 . S
Tb777 O804 2.658 . S
Tb777 O805 2.409 . S
Tb777 O806 2.378 . S
C778 Tb776 2.809 . S
C778 C779 1.514 . S
C778 O796 1.248 . S
C778 O797 1.266 . S
C779 C778 1.514 . S
C779 C780 1.359 . S
C779 C784 1.348 . S
C780 C779 1.359 . S
C780 C781 1.380 . S
C780 H808 0.929 . S
C781 C780 1.380 . S
C781 C782 1.347 . S
C781 H809 0.931 . S
C782 C781 1.347 . S
C782 C783 1.369 . S
C783 C782 1.369 . S
C783 C784 1.408 . S
C783 H810 0.930 . S
C784 C779 1.348 . S
C784 C783 1.408 . S
C784 H811 0.930 . S
C785 O798 1.281 . S
C785 O799 1.254 . S
C786 O800 1.236 . S
C786 O801 1.266 . S
C787 Tb777 2.809 . S
C787 C788 1.514 . S
C787 O802 1.248 . S
C787 O803 1.266 . S
C788 C787 1.514 . S
C788 C789 1.359 . S
C788 C793 1.348 . S
C789 C788 1.359 . S
C789 C790 1.380 . S
C789 H812 0.929 . S
C790 C789 1.380 . S
C790 C791 1.347 . S
C790 H813 0.931 . S
C791 C790 1.347 . S
C791 C792 1.369 . S
C792 C791 1.369 . S
C792 C793 1.408 . S
C792 H814 0.930 . S
C793 C788 1.348 . S
C793 C792 1.408 . S
C793 H815 0.930 . S
C794 O804 1.281 . S
C794 O805 1.254 . S
C795 O806 1.236 . S
C795 O807 1.266 . S
O796 Tb776 2.484 . S
O796 C778 1.248 . S
O797 Tb776 2.440 . S
O797 C778 1.266 . S
O798 Tb776 2.658 . S
O798 Tb777 2.325 . S
O798 C785 1.281 . S
O799 Tb776 2.409 . S
O799 C785 1.254 . S
O800 Tb776 2.378 . S
O800 C786 1.236 . S
O801 Tb777 2.341 . S
O801 C786 1.266 . S
O802 Tb777 2.484 . S
O802 C787 1.248 . S
O803 Tb777 2.440 . S
O803 C787 1.266 . S
O804 Tb776 2.325 . S
O804 Tb777 2.658 . S
O804 C794 1.281 . S
O805 Tb777 2.409 . S
O805 C794 1.254 . S
O806 Tb777 2.378 . S
O806 C795 1.236 . S
O807 Tb776 2.341 . S
O807 C795 1.266 . S
H808 C780 0.929 . S
H809 C781 0.931 . S
H810 C783 0.930 . S
H811 C784 0.930 . S
H812 C789 0.929 . S
H813 C790 0.931 . S
H814 C792 0.930 . S
H815 C793 0.930 . S
Tb816 C818 2.809 . S
Tb816 O836 2.484 . S
Tb816 O837 2.440 . S
Tb816 O838 2.658 . S
Tb816 O839 2.409 . S
Tb816 O840 2.378 . S
Tb816 O844 2.325 . S
Tb816 O847 2.341 . S
Tb817 C827 2.809 . S
Tb817 O838 2.325 . S
Tb817 O841 2.341 . S
Tb817 O842 2.484 . S
Tb817 O843 2.440 . S
Tb817 O844 2.658 . S
Tb817 O845 2.409 . S
Tb817 O846 2.378 . S
C818 Tb816 2.809 . S
C818 C819 1.514 . S
C818 O836 1.248 . S
C818 O837 1.266 . S
C819 C818 1.514 . S
C819 C820 1.359 . S
C819 C824 1.348 . S
C820 C819 1.359 . S
C820 C821 1.380 . S
C820 H848 0.929 . S
C821 C820 1.380 . S
C821 C822 1.347 . S
C821 H849 0.931 . S
C822 C821 1.347 . S
C822 C823 1.369 . S
C823 C822 1.369 . S
C823 C824 1.408 . S
C823 H850 0.930 . S
C824 C819 1.348 . S
C824 C823 1.408 . S
C824 H851 0.930 . S
C825 O838 1.281 . S
C825 O839 1.254 . S
C826 O840 1.236 . S
C826 O841 1.266 . S
C827 Tb817 2.809 . S
C827 C828 1.514 . S
C827 O842 1.248 . S
C827 O843 1.266 . S
C828 C827 1.514 . S
C828 C829 1.359 . S
C828 C833 1.348 . S
C829 C828 1.359 . S
C829 C830 1.380 . S
C829 H852 0.929 . S
C830 C829 1.380 . S
C830 C831 1.347 . S
C830 H853 0.931 . S
C831 C830 1.347 . S
C831 C832 1.369 . S
C832 C831 1.369 . S
C832 C833 1.408 . S
C832 H854 0.930 . S
C833 C828 1.348 . S
C833 C832 1.408 . S
C833 H855 0.930 . S
C834 O844 1.281 . S
C834 O845 1.254 . S
C835 O846 1.236 . S
C835 O847 1.266 . S
O836 Tb816 2.484 . S
O836 C818 1.248 . S
O837 Tb816 2.440 . S
O837 C818 1.266 . S
O838 Tb816 2.658 . S
O838 Tb817 2.325 . S
O838 C825 1.281 . S
O839 Tb816 2.409 . S
O839 C825 1.254 . S
O840 Tb816 2.378 . S
O840 C826 1.236 . S
O841 Tb817 2.341 . S
O841 C826 1.266 . S
O842 Tb817 2.484 . S
O842 C827 1.248 . S
O843 Tb817 2.440 . S
O843 C827 1.266 . S
O844 Tb816 2.325 . S
O844 Tb817 2.658 . S
O844 C834 1.281 . S
O845 Tb817 2.409 . S
O845 C834 1.254 . S
O846 Tb817 2.378 . S
O846 C835 1.236 . S
O847 Tb816 2.341 . S
O847 C835 1.266 . S
H848 C820 0.929 . S
H849 C821 0.931 . S
H850 C823 0.930 . S
H851 C824 0.930 . S
H852 C829 0.929 . S
H853 C830 0.931 . S
H854 C832 0.930 . S
H855 C833 0.930 . S
Tb856 C858 2.809 . S
Tb856 O876 2.484 . S
Tb856 O877 2.440 . S
Tb856 O878 2.658 . S
Tb856 O879 2.409 . S
Tb856 O880 2.378 . S
Tb856 O884 2.325 . S
Tb856 O887 2.341 . S
Tb857 C867 2.809 . S
Tb857 O878 2.325 . S
Tb857 O881 2.341 . S
Tb857 O882 2.484 . S
Tb857 O883 2.440 . S
Tb857 O884 2.658 . S
Tb857 O885 2.409 . S
Tb857 O886 2.378 . S
C858 Tb856 2.809 . S
C858 C859 1.514 . S
C858 O876 1.248 . S
C858 O877 1.266 . S
C859 C858 1.514 . S
C859 C860 1.359 . S
C859 C864 1.348 . S
C860 C859 1.359 . S
C860 C861 1.380 . S
C860 H888 0.929 . S
C861 C860 1.380 . S
C861 C862 1.347 . S
C861 H889 0.931 . S
C862 C861 1.347 . S
C862 C863 1.369 . S
C863 C862 1.369 . S
C863 C864 1.408 . S
C863 H890 0.930 . S
C864 C859 1.348 . S
C864 C863 1.408 . S
C864 H891 0.930 . S
C865 O878 1.281 . S
C865 O879 1.254 . S
C866 O880 1.236 . S
C866 O881 1.266 . S
C867 Tb857 2.809 . S
C867 C868 1.514 . S
C867 O882 1.248 . S
C867 O883 1.266 . S
C868 C867 1.514 . S
C868 C869 1.359 . S
C868 C873 1.348 . S
C869 C868 1.359 . S
C869 C870 1.380 . S
C869 H892 0.929 . S
C870 C869 1.380 . S
C870 C871 1.347 . S
C870 H893 0.931 . S
C871 C870 1.347 . S
C871 C872 1.369 . S
C872 C871 1.369 . S
C872 C873 1.408 . S
C872 H894 0.930 . S
C873 C868 1.348 . S
C873 C872 1.408 . S
C873 H895 0.930 . S
C874 O884 1.281 . S
C874 O885 1.254 . S
C875 O886 1.236 . S
C875 O887 1.266 . S
O876 Tb856 2.484 . S
O876 C858 1.248 . S
O877 Tb856 2.440 . S
O877 C858 1.266 . S
O878 Tb856 2.658 . S
O878 Tb857 2.325 . S
O878 C865 1.281 . S
O879 Tb856 2.409 . S
O879 C865 1.254 . S
O880 Tb856 2.378 . S
O880 C866 1.236 . S
O881 Tb857 2.341 . S
O881 C866 1.266 . S
O882 Tb857 2.484 . S
O882 C867 1.248 . S
O883 Tb857 2.440 . S
O883 C867 1.266 . S
O884 Tb856 2.325 . S
O884 Tb857 2.658 . S
O884 C874 1.281 . S
O885 Tb857 2.409 . S
O885 C874 1.254 . S
O886 Tb857 2.378 . S
O886 C875 1.236 . S
O887 Tb856 2.341 . S
O887 C875 1.266 . S
H888 C860 0.929 . S
H889 C861 0.931 . S
H890 C863 0.930 . S
H891 C864 0.930 . S
H892 C869 0.929 . S
H893 C870 0.931 . S
H894 C872 0.930 . S
H895 C873 0.930 . S
Tb896 C898 2.809 . S
Tb896 O916 2.484 . S
Tb896 O917 2.440 . S
Tb896 O918 2.658 . S
Tb896 O919 2.409 . S
Tb896 O920 2.378 . S
Tb896 O924 2.325 . S
Tb896 O927 2.341 . S
Tb897 C907 2.809 . S
Tb897 O918 2.325 . S
Tb897 O921 2.341 . S
Tb897 O922 2.484 . S
Tb897 O923 2.440 . S
Tb897 O924 2.658 . S
Tb897 O925 2.409 . S
Tb897 O926 2.378 . S
C898 Tb896 2.809 . S
C898 C899 1.514 . S
C898 O916 1.248 . S
C898 O917 1.266 . S
C899 C898 1.514 . S
C899 C900 1.359 . S
C899 C904 1.348 . S
C900 C899 1.359 . S
C900 C901 1.380 . S
C900 H928 0.929 . S
C901 C900 1.380 . S
C901 C902 1.347 . S
C901 H929 0.931 . S
C902 C901 1.347 . S
C902 C903 1.369 . S
C903 C902 1.369 . S
C903 C904 1.408 . S
C903 H930 0.930 . S
C904 C899 1.348 . S
C904 C903 1.408 . S
C904 H931 0.930 . S
C905 O918 1.281 . S
C905 O919 1.254 . S
C906 O920 1.236 . S
C906 O921 1.266 . S
C907 Tb897 2.809 . S
C907 C908 1.514 . S
C907 O922 1.248 . S
C907 O923 1.266 . S
C908 C907 1.514 . S
C908 C909 1.359 . S
C908 C913 1.348 . S
C909 C908 1.359 . S
C909 C910 1.380 . S
C909 H932 0.929 . S
C910 C909 1.380 . S
C910 C911 1.347 . S
C910 H933 0.931 . S
C911 C910 1.347 . S
C911 C912 1.369 . S
C912 C911 1.369 . S
C912 C913 1.408 . S
C912 H934 0.930 . S
C913 C908 1.348 . S
C913 C912 1.408 . S
C913 H935 0.930 . S
C914 O924 1.281 . S
C914 O925 1.254 . S
C915 O926 1.236 . S
C915 O927 1.266 . S
O916 Tb896 2.484 . S
O916 C898 1.248 . S
O917 Tb896 2.440 . S
O917 C898 1.266 . S
O918 Tb896 2.658 . S
O918 Tb897 2.325 . S
O918 C905 1.281 . S
O919 Tb896 2.409 . S
O919 C905 1.254 . S
O920 Tb896 2.378 . S
O920 C906 1.236 . S
O921 Tb897 2.341 . S
O921 C906 1.266 . S
O922 Tb897 2.484 . S
O922 C907 1.248 . S
O923 Tb897 2.440 . S
O923 C907 1.266 . S
O924 Tb896 2.325 . S
O924 Tb897 2.658 . S
O924 C914 1.281 . S
O925 Tb897 2.409 . S
O925 C914 1.254 . S
O926 Tb897 2.378 . S
O926 C915 1.236 . S
O927 Tb896 2.341 . S
O927 C915 1.266 . S
H928 C900 0.929 . S
H929 C901 0.931 . S
H930 C903 0.930 . S
H931 C904 0.930 . S
H932 C909 0.929 . S
H933 C910 0.931 . S
H934 C912 0.930 . S
H935 C913 0.930 . S
Tb936 C938 2.809 . S
Tb936 O956 2.484 . S
Tb936 O957 2.440 1_554 S
Tb936 O958 2.658 . S
Tb936 O959 2.409 1_554 S
Tb936 O960 2.378 . S
Tb936 O964 2.325 . S
Tb936 O967 2.341 . S
Tb937 C947 2.809 1_455 S
Tb937 O958 2.325 . S
Tb937 O961 2.341 . S
Tb937 O962 2.484 1_455 S
Tb937 O963 2.440 1_455 S
Tb937 O964 2.658 . S
Tb937 O965 2.409 . S
Tb937 O966 2.378 . S
C938 Tb936 2.809 . S
C938 C939 1.514 . S
C938 O956 1.248 . S
C938 O957 1.266 1_554 S
C939 C938 1.514 . S
C939 C940 1.359 . S
C939 C944 1.348 1_554 S
C940 C939 1.359 . S
C940 C941 1.380 . S
C940 H968 0.929 . S
C941 C940 1.380 . S
C941 C942 1.347 . S
C941 H969 0.931 . S
C942 C941 1.347 . S
C942 C943 1.369 1_554 S
C943 C942 1.369 1_556 S
C943 C944 1.408 . S
C943 H970 0.930 . S
C944 C939 1.348 1_556 S
C944 C943 1.408 . S
C944 H971 0.930 . S
C945 O958 1.281 1_556 S
C945 O959 1.254 . S
C946 O960 1.236 . S
C946 O961 1.266 . S
C947 Tb937 2.809 1_655 S
C947 C948 1.514 . S
C947 O962 1.248 . S
C947 O963 1.266 . S
C948 C947 1.514 . S
C948 C949 1.359 . S
C948 C953 1.348 . S
C949 C948 1.359 . S
C949 C950 1.380 . S
C949 H972 0.929 . S
C950 C949 1.380 . S
C950 C951 1.347 . S
C950 H973 0.931 . S
C951 C950 1.347 . S
C951 C952 1.369 . S
C952 C951 1.369 . S
C952 C953 1.408 . S
C952 H974 0.930 . S
C953 C948 1.348 . S
C953 C952 1.408 . S
C953 H975 0.930 . S
C954 O964 1.281 . S
C954 O965 1.254 . S
C955 O966 1.236 . S
C955 O967 1.266 . S
O956 Tb936 2.484 . S
O956 C938 1.248 . S
O957 Tb936 2.440 1_556 S
O957 C938 1.266 1_556 S
O958 Tb936 2.658 . S
O958 Tb937 2.325 . S
O958 C945 1.281 1_554 S
O959 Tb936 2.409 1_556 S
O959 C945 1.254 . S
O960 Tb936 2.378 . S
O960 C946 1.236 . S
O961 Tb937 2.341 . S
O961 C946 1.266 . S
O962 Tb937 2.484 1_655 S
O962 C947 1.248 . S
O963 Tb937 2.440 1_655 S
O963 C947 1.266 . S
O964 Tb936 2.325 . S
O964 Tb937 2.658 . S
O964 C954 1.281 . S
O965 Tb937 2.409 . S
O965 C954 1.254 . S
O966 Tb937 2.378 . S
O966 C955 1.236 . S
O967 Tb936 2.341 . S
O967 C955 1.266 . S
H968 C940 0.929 . S
H969 C941 0.931 . S
H970 C943 0.930 . S
H971 C944 0.930 . S
H972 C949 0.929 . S
H973 C950 0.931 . S
H974 C952 0.930 . S
H975 C953 0.930 . S
H976 C984 0.929 . S
H977 C986 0.930 . S
H978 C988 0.930 . S
H979 C991 0.929 . S
H980 C994 0.930 1_655 S
H981 C996 0.960 . S
H982 C996 0.960 . S
H983 C996 0.960 . S
C984 H976 0.929 . S
C984 C985 1.377 . S
C984 C986 1.384 . S
C985 C984 1.377 . S
C985 C991 1.390 . S
C986 H977 0.930 . S
C986 C984 1.384 . S
C986 C987 1.372 . S
C987 C986 1.372 . S
C987 C988 1.400 . S
C987 C992 1.490 . S
C988 H978 0.930 . S
C988 C987 1.400 . S
C988 C991 1.386 . S
H989 C1005 0.930 . S
H990 C1006 0.931 . S
C991 H979 0.929 . S
C991 C985 1.390 . S
C991 C988 1.386 . S
C992 C987 1.490 . S
C992 C994 1.395 . S
C992 C995 1.403 . S
H993 C999 0.930 . S
C994 H980 0.930 1_455 S
C994 C992 1.395 . S
C994 C997 1.403 . S
C995 C992 1.403 . S
C995 C996 1.524 . S
C995 C999 1.400 . S
C996 H981 0.960 . S
C996 H982 0.960 . S
C996 H983 0.960 . S
C996 C995 1.524 . S
C997 C994 1.403 . S
C997 C998 1.392 . S
C997 C1001 1.493 1_455 S
C998 C997 1.392 . S
C998 C999 1.385 . S
C998 C1000 1.486 . S
C999 H993 0.930 . S
C999 C995 1.400 . S
C999 C998 1.385 . S
C1000 C998 1.486 . S
C1000 C1002 1.363 1_556 S
C1000 C1006 1.392 . S
C1001 C997 1.493 1_655 S
C1001 H1007 0.959 . S
C1001 H1008 0.960 . S
C1001 H1009 0.964 1_556 S
C1002 C1000 1.363 1_554 S
C1002 C1003 1.394 . S
C1002 H1010 0.930 . S
C1003 C1002 1.394 . S
C1003 C1004 1.383 . S
C1003 H1011 0.929 . S
C1004 C1003 1.383 . S
C1004 C1005 1.377 1_554 S
C1005 H989 0.930 . S
C1005 C1004 1.377 1_556 S
C1005 C1006 1.379 . S
C1006 H990 0.931 . S
C1006 C1000 1.392 . S
C1006 C1005 1.379 . S
H1007 C1001 0.959 . S
H1008 C1001 0.960 . S
H1009 C1001 0.964 1_554 S
H1010 C1002 0.930 . S
H1011 C1003 0.929 . S
H1012 C1020 0.929 . S
H1013 C1022 0.930 . S
H1014 C1024 0.930 . S
H1015 C1027 0.929 . S
H1016 C1030 0.930 . S
H1017 C1032 0.960 . S
H1018 C1032 0.960 . S
H1019 C1032 0.960 . S
C1020 H1012 0.929 . S
C1020 C1021 1.377 . S
C1020 C1022 1.384 . S
C1021 C1020 1.377 . S
C1021 C1027 1.390 . S
C1022 H1013 0.930 . S
C1022 C1020 1.384 . S
C1022 C1023 1.372 . S
C1023 C1022 1.372 . S
C1023 C1024 1.400 . S
C1023 C1028 1.490 . S
C1024 H1014 0.930 . S
C1024 C1023 1.400 . S
C1024 C1027 1.386 . S
H1025 C1041 0.930 . S
H1026 C1042 0.931 . S
C1027 H1015 0.929 . S
C1027 C1021 1.390 . S
C1027 C1024 1.386 . S
C1028 C1023 1.490 . S
C1028 C1030 1.395 . S
C1028 C1031 1.403 . S
H1029 C1035 0.930 . S
C1030 H1016 0.930 . S
C1030 C1028 1.395 . S
C1030 C1033 1.403 . S
C1031 C1028 1.403 . S
C1031 C1032 1.524 . S
C1031 C1035 1.400 . S
C1032 H1017 0.960 . S
C1032 H1018 0.960 . S
C1032 H1019 0.960 . S
C1032 C1031 1.524 . S
C1033 C1030 1.403 . S
C1033 C1034 1.392 . S
C1033 C1037 1.495 . S
C1034 C1033 1.392 . S
C1034 C1035 1.385 . S
C1034 C1036 1.478 . S
C1035 H1029 0.930 . S
C1035 C1031 1.400 . S
C1035 C1034 1.385 . S
C1036 C1034 1.478 . S
C1036 C1038 1.381 . S
C1036 C1042 1.383 . S
C1037 C1033 1.495 . S
C1037 H1043 0.959 . S
C1037 H1044 0.961 . S
C1037 H1045 0.960 . S
C1038 C1036 1.381 . S
C1038 C1039 1.394 . S
C1038 H1046 0.930 . S
C1039 C1038 1.394 . S
C1039 C1040 1.383 . S
C1039 H1047 0.929 . S
C1040 C1039 1.383 . S
C1040 C1041 1.377 . S
C1041 H1025 0.930 . S
C1041 C1040 1.377 . S
C1041 C1042 1.379 . S
C1042 H1026 0.931 . S
C1042 C1036 1.383 . S
C1042 C1041 1.379 . S
H1043 C1037 0.959 . S
H1044 C1037 0.961 . S
H1045 C1037 0.960 . S
H1046 C1038 0.930 . S
H1047 C1039 0.929 . S
H1048 C1056 0.929 . S
H1049 C1058 0.930 . S
H1050 C1060 0.930 . S
H1051 C1063 0.929 . S
H1052 C1066 0.930 . S
H1053 C1068 0.960 . S
H1054 C1068 0.960 . S
H1055 C1068 0.960 . S
C1056 H1048 0.929 . S
C1056 C1057 1.377 . S
C1056 C1058 1.384 . S
C1057 C1056 1.377 . S
C1057 C1063 1.390 . S
C1058 H1049 0.930 . S
C1058 C1056 1.384 . S
C1058 C1059 1.372 . S
C1059 C1058 1.372 . S
C1059 C1060 1.400 . S
C1059 C1064 1.490 . S
C1060 H1050 0.930 . S
C1060 C1059 1.400 . S
C1060 C1063 1.386 . S
H1061 C1077 0.930 . S
H1062 C1078 0.931 . S
C1063 H1051 0.929 . S
C1063 C1057 1.390 . S
C1063 C1060 1.386 . S
C1064 C1059 1.490 . S
C1064 C1066 1.395 . S
C1064 C1067 1.403 . S
H1065 C1071 0.930 . S
C1066 H1052 0.930 . S
C1066 C1064 1.395 . S
C1066 C1069 1.403 . S
C1067 C1064 1.403 . S
C1067 C1068 1.524 . S
C1067 C1071 1.400 . S
C1068 H1053 0.960 . S
C1068 H1054 0.960 . S
C1068 H1055 0.960 . S
C1068 C1067 1.524 . S
C1069 C1066 1.403 . S
C1069 C1070 1.392 . S
C1069 C1073 1.495 . S
C1070 C1069 1.392 . S
C1070 C1071 1.385 . S
C1070 C1072 1.478 . S
C1071 H1065 0.930 . S
C1071 C1067 1.400 . S
C1071 C1070 1.385 . S
C1072 C1070 1.478 . S
C1072 C1074 1.381 . S
C1072 C1078 1.383 . S
C1073 C1069 1.495 . S
C1073 H1079 0.959 . S
C1073 H1080 0.961 . S
C1073 H1081 0.960 . S
C1074 C1072 1.381 . S
C1074 C1075 1.394 . S
C1074 H1082 0.930 . S
C1075 C1074 1.394 . S
C1075 C1076 1.383 . S
C1075 H1083 0.929 . S
C1076 C1075 1.383 . S
C1076 C1077 1.377 . S
C1077 H1061 0.930 . S
C1077 C1076 1.377 . S
C1077 C1078 1.379 . S
C1078 H1062 0.931 . S
C1078 C1072 1.383 . S
C1078 C1077 1.379 . S
H1079 C1073 0.959 . S
H1080 C1073 0.961 . S
H1081 C1073 0.960 . S
H1082 C1074 0.930 . S
H1083 C1075 0.929 . S
H1084 C1092 0.929 . S
H1085 C1094 0.930 . S
H1086 C1096 0.930 . S
H1087 C1099 0.929 . S
H1088 C1102 0.930 . S
H1089 C1104 0.960 . S
H1090 C1104 0.960 . S
H1091 C1104 0.960 . S
C1092 H1084 0.929 . S
C1092 C1093 1.377 . S
C1092 C1094 1.384 . S
C1093 C1092 1.377 . S
C1093 C1099 1.390 . S
C1094 H1085 0.930 . S
C1094 C1092 1.384 . S
C1094 C1095 1.372 . S
C1095 C1094 1.372 . S
C1095 C1096 1.400 . S
C1095 C1100 1.490 . S
C1096 H1086 0.930 . S
C1096 C1095 1.400 . S
C1096 C1099 1.386 . S
H1097 C1113 0.930 . S
H1098 C1114 0.931 . S
C1099 H1087 0.929 . S
C1099 C1093 1.390 . S
C1099 C1096 1.386 . S
C1100 C1095 1.490 . S
C1100 C1102 1.395 . S
C1100 C1103 1.403 . S
H1101 C1107 0.930 . S
C1102 H1088 0.930 . S
C1102 C1100 1.395 . S
C1102 C1105 1.403 . S
C1103 C1100 1.403 . S
C1103 C1104 1.524 . S
C1103 C1107 1.400 . S
C1104 H1089 0.960 . S
C1104 H1090 0.960 . S
C1104 H1091 0.960 . S
C1104 C1103 1.524 . S
C1105 C1102 1.403 . S
C1105 C1106 1.392 . S
C1105 C1109 1.495 . S
C1106 C1105 1.392 . S
C1106 C1107 1.385 . S
C1106 C1108 1.478 . S
C1107 H1101 0.930 . S
C1107 C1103 1.400 . S
C1107 C1106 1.385 . S
C1108 C1106 1.478 . S
C1108 C1110 1.381 . S
C1108 C1114 1.383 . S
C1109 C1105 1.495 . S
C1109 H1115 0.959 . S
C1109 H1116 0.961 . S
C1109 H1117 0.960 . S
C1110 C1108 1.381 . S
C1110 C1111 1.394 . S
C1110 H1118 0.930 . S
C1111 C1110 1.394 . S
C1111 C1112 1.383 . S
C1111 H1119 0.929 . S
C1112 C1111 1.383 . S
C1112 C1113 1.377 . S
C1113 H1097 0.930 . S
C1113 C1112 1.377 . S
C1113 C1114 1.379 . S
C1114 H1098 0.931 . S
C1114 C1108 1.383 . S
C1114 C1113 1.379 . S
H1115 C1109 0.959 . S
H1116 C1109 0.961 . S
H1117 C1109 0.960 . S
H1118 C1110 0.930 . S
H1119 C1111 0.929 . S
H1120 C1128 0.929 . S
H1121 C1130 0.930 . S
H1122 C1132 0.930 . S
H1123 C1135 0.929 . S
H1124 C1138 0.930 . S
H1125 C1140 0.960 . S
H1126 C1140 0.960 . S
H1127 C1140 0.960 . S
C1128 H1120 0.929 . S
C1128 C1129 1.377 . S
C1128 C1130 1.384 . S
C1129 C1128 1.377 . S
C1129 C1135 1.390 . S
C1130 H1121 0.930 . S
C1130 C1128 1.384 . S
C1130 C1131 1.372 . S
C1131 C1130 1.372 . S
C1131 C1132 1.400 . S
C1131 C1136 1.490 . S
C1132 H1122 0.930 . S
C1132 C1131 1.400 . S
C1132 C1135 1.386 . S
H1133 C1149 0.930 . S
H1134 C1150 0.931 . S
C1135 H1123 0.929 . S
C1135 C1129 1.390 . S
C1135 C1132 1.386 . S
C1136 C1131 1.490 . S
C1136 C1138 1.395 . S
C1136 C1139 1.403 . S
H1137 C1143 0.930 . S
C1138 H1124 0.930 . S
C1138 C1136 1.395 . S
C1138 C1141 1.403 . S
C1139 C1136 1.403 . S
C1139 C1140 1.524 . S
C1139 C1143 1.400 . S
C1140 H1125 0.960 . S
C1140 H1126 0.960 . S
C1140 H1127 0.960 . S
C1140 C1139 1.524 . S
C1141 C1138 1.403 . S
C1141 C1142 1.392 . S
C1141 C1145 1.495 . S
C1142 C1141 1.392 . S
C1142 C1143 1.385 . S
C1142 C1144 1.478 . S
C1143 H1137 0.930 . S
C1143 C1139 1.400 . S
C1143 C1142 1.385 . S
C1144 C1142 1.478 . S
C1144 C1146 1.381 . S
C1144 C1150 1.383 . S
C1145 C1141 1.495 . S
C1145 H1151 0.959 . S
C1145 H1152 0.961 . S
C1145 H1153 0.960 . S
C1146 C1144 1.381 . S
C1146 C1147 1.394 . S
C1146 H1154 0.930 . S
C1147 C1146 1.394 . S
C1147 C1148 1.383 . S
C1147 H1155 0.929 . S
C1148 C1147 1.383 . S
C1148 C1149 1.377 . S
C1149 H1133 0.930 . S
C1149 C1148 1.377 . S
C1149 C1150 1.379 . S
C1150 H1134 0.931 . S
C1150 C1144 1.383 . S
C1150 C1149 1.379 . S
H1151 C1145 0.959 . S
H1152 C1145 0.961 . S
H1153 C1145 0.960 . S
H1154 C1146 0.930 . S
H1155 C1147 0.929 . S
H1156 C1164 0.929 . S
H1157 C1166 0.930 . S
H1158 C1168 0.930 . S
H1159 C1171 0.929 . S
H1160 C1174 0.930 . S
H1161 C1176 0.960 . S
H1162 C1176 0.960 . S
H1163 C1176 0.960 . S
C1164 H1156 0.929 . S
C1164 C1165 1.377 . S
C1164 C1166 1.384 . S
C1165 C1164 1.377 . S
C1165 C1171 1.390 . S
C1166 H1157 0.930 . S
C1166 C1164 1.384 . S
C1166 C1167 1.372 . S
C1167 C1166 1.372 . S
C1167 C1168 1.400 . S
C1167 C1172 1.490 . S
C1168 H1158 0.930 . S
C1168 C1167 1.400 . S
C1168 C1171 1.386 . S
H1169 C1185 0.930 . S
H1170 C1186 0.931 . S
C1171 H1159 0.929 . S
C1171 C1165 1.390 . S
C1171 C1168 1.386 . S
C1172 C1167 1.490 . S
C1172 C1174 1.395 . S
C1172 C1175 1.403 . S
H1173 C1179 0.930 . S
C1174 H1160 0.930 . S
C1174 C1172 1.395 . S
C1174 C1177 1.403 . S
C1175 C1172 1.403 . S
C1175 C1176 1.524 . S
C1175 C1179 1.400 . S
C1176 H1161 0.960 . S
C1176 H1162 0.960 . S
C1176 H1163 0.960 . S
C1176 C1175 1.524 . S
C1177 C1174 1.403 . S
C1177 C1178 1.392 . S
C1177 C1181 1.495 . S
C1178 C1177 1.392 . S
C1178 C1179 1.385 . S
C1178 C1180 1.478 . S
C1179 H1173 0.930 . S
C1179 C1175 1.400 . S
C1179 C1178 1.385 . S
C1180 C1178 1.478 . S
C1180 C1182 1.381 . S
C1180 C1186 1.383 . S
C1181 C1177 1.495 . S
C1181 H1187 0.959 . S
C1181 H1188 0.961 . S
C1181 H1189 0.960 . S
C1182 C1180 1.381 . S
C1182 C1183 1.394 . S
C1182 H1190 0.930 . S
C1183 C1182 1.394 . S
C1183 C1184 1.383 . S
C1183 H1191 0.929 . S
C1184 C1183 1.383 . S
C1184 C1185 1.377 . S
C1185 H1169 0.930 . S
C1185 C1184 1.377 . S
C1185 C1186 1.379 . S
C1186 H1170 0.931 . S
C1186 C1180 1.383 . S
C1186 C1185 1.379 . S
H1187 C1181 0.959 . S
H1188 C1181 0.961 . S
H1189 C1181 0.960 . S
H1190 C1182 0.930 . S
H1191 C1183 0.929 . S
H1192 C1200 0.929 . S
H1193 C1202 0.930 . S
H1194 C1204 0.930 . S
H1195 C1207 0.929 . S
H1196 C1210 0.930 . S
H1197 C1212 0.960 . S
H1198 C1212 0.960 . S
H1199 C1212 0.960 . S
C1200 H1192 0.929 . S
C1200 C1201 1.377 . S
C1200 C1202 1.384 . S
C1201 C1200 1.377 . S
C1201 C1207 1.390 . S
C1202 H1193 0.930 . S
C1202 C1200 1.384 . S
C1202 C1203 1.372 . S
C1203 C1202 1.372 . S
C1203 C1204 1.400 . S
C1203 C1208 1.490 . S
C1204 H1194 0.930 . S
C1204 C1203 1.400 . S
C1204 C1207 1.386 . S
H1205 C1221 0.930 . S
H1206 C1222 0.931 . S
C1207 H1195 0.929 . S
C1207 C1201 1.390 . S
C1207 C1204 1.386 . S
C1208 C1203 1.490 . S
C1208 C1210 1.395 . S
C1208 C1211 1.403 . S
H1209 C1215 0.930 . S
C1210 H1196 0.930 . S
C1210 C1208 1.395 . S
C1210 C1213 1.403 . S
C1211 C1208 1.403 . S
C1211 C1212 1.524 . S
C1211 C1215 1.400 . S
C1212 H1197 0.960 . S
C1212 H1198 0.960 . S
C1212 H1199 0.960 . S
C1212 C1211 1.524 . S
C1213 C1210 1.403 . S
C1213 C1214 1.392 . S
C1213 C1217 1.495 . S
C1214 C1213 1.392 . S
C1214 C1215 1.385 . S
C1214 C1216 1.478 . S
C1215 H1209 0.930 . S
C1215 C1211 1.400 . S
C1215 C1214 1.385 . S
C1216 C1214 1.478 . S
C1216 C1218 1.381 . S
C1216 C1222 1.383 . S
C1217 C1213 1.495 . S
C1217 H1223 0.959 . S
C1217 H1224 0.961 . S
C1217 H1225 0.960 . S
C1218 C1216 1.381 . S
C1218 C1219 1.394 . S
C1218 H1226 0.930 . S
C1219 C1218 1.394 . S
C1219 C1220 1.383 . S
C1219 H1227 0.929 . S
C1220 C1219 1.383 . S
C1220 C1221 1.377 . S
C1221 H1205 0.930 . S
C1221 C1220 1.377 . S
C1221 C1222 1.379 . S
C1222 H1206 0.931 . S
C1222 C1216 1.383 . S
C1222 C1221 1.379 . S
H1223 C1217 0.959 . S
H1224 C1217 0.961 . S
H1225 C1217 0.960 . S
H1226 C1218 0.930 . S
H1227 C1219 0.929 . S
H1228 C1236 0.929 . S
H1229 C1238 0.930 . S
H1230 C1240 0.930 . S
H1231 C1243 0.929 . S
H1232 C1246 0.930 . S
H1233 C1248 0.960 . S
H1234 C1248 0.960 . S
H1235 C1248 0.960 . S
C1236 H1228 0.929 . S
C1236 C1237 1.377 . S
C1236 C1238 1.384 . S
C1237 C1236 1.377 . S
C1237 C1243 1.390 . S
C1238 H1229 0.930 . S
C1238 C1236 1.384 . S
C1238 C1239 1.372 . S
C1239 C1238 1.372 . S
C1239 C1240 1.400 . S
C1239 C1244 1.490 . S
C1240 H1230 0.930 . S
C1240 C1239 1.400 . S
C1240 C1243 1.386 . S
H1241 C1257 0.930 . S
H1242 C1258 0.931 . S
C1243 H1231 0.929 . S
C1243 C1237 1.390 . S
C1243 C1240 1.386 . S
C1244 C1239 1.490 . S
C1244 C1246 1.395 . S
C1244 C1247 1.403 . S
H1245 C1251 0.930 . S
C1246 H1232 0.930 . S
C1246 C1244 1.395 . S
C1246 C1249 1.403 . S
C1247 C1244 1.403 . S
C1247 C1248 1.524 . S
C1247 C1251 1.400 . S
C1248 H1233 0.960 . S
C1248 H1234 0.960 . S
C1248 H1235 0.960 . S
C1248 C1247 1.524 . S
C1249 C1246 1.403 . S
C1249 C1250 1.392 . S
C1249 C1253 1.495 . S
C1250 C1249 1.392 . S
C1250 C1251 1.385 . S
C1250 C1252 1.478 . S
C1251 H1245 0.930 . S
C1251 C1247 1.400 . S
C1251 C1250 1.385 . S
C1252 C1250 1.478 . S
C1252 C1254 1.381 . S
C1252 C1258 1.383 . S
C1253 C1249 1.495 . S
C1253 H1259 0.959 . S
C1253 H1260 0.961 . S
C1253 H1261 0.960 . S
C1254 C1252 1.381 . S
C1254 C1255 1.394 . S
C1254 H1262 0.930 . S
C1255 C1254 1.394 . S
C1255 C1256 1.383 . S
C1255 H1263 0.929 . S
C1256 C1255 1.383 . S
C1256 C1257 1.377 . S
C1257 H1241 0.930 . S
C1257 C1256 1.377 . S
C1257 C1258 1.379 . S
C1258 H1242 0.931 . S
C1258 C1252 1.383 . S
C1258 C1257 1.379 . S
H1259 C1253 0.959 . S
H1260 C1253 0.961 . S
H1261 C1253 0.960 . S
H1262 C1254 0.930 . S
H1263 C1255 0.929 . S
H1264 C1272 0.929 . S
H1265 C1274 0.930 . S
H1266 C1276 0.930 . S
H1267 C1279 0.929 . S
H1268 C1282 0.930 . S
H1269 C1284 0.965 . S
H1270 C1284 0.960 1_665 S
H1271 C1284 0.960 . S
C1272 H1264 0.929 . S
C1272 C1273 1.377 1_565 S
C1272 C1274 1.384 . S
C1273 C1272 1.377 1_545 S
C1273 C1279 1.390 . S
C1274 H1265 0.930 . S
C1274 C1272 1.384 . S
C1274 C1275 1.372 1_565 S
C1275 C1274 1.372 1_545 S
C1275 C1276 1.400 . S
C1275 C1280 1.490 . S
C1276 H1266 0.930 . S
C1276 C1275 1.400 . S
C1276 C1279 1.386 . S
H1277 C1293 0.930 . S
H1278 C1294 0.931 . S
C1279 H1267 0.929 . S
C1279 C1273 1.390 . S
C1279 C1276 1.386 . S
C1280 C1275 1.490 . S
C1280 C1282 1.395 . S
C1280 C1283 1.403 . S
H1281 C1287 0.930 1_455 S
C1282 H1268 0.930 . S
C1282 C1280 1.395 . S
C1282 C1285 1.403 . S
C1283 C1280 1.403 . S
C1283 C1284 1.524 1_655 S
C1283 C1287 1.400 . S
C1284 H1269 0.965 . S
C1284 H1270 0.960 1_445 S
C1284 H1271 0.960 . S
C1284 C1283 1.524 1_455 S
C1285 C1282 1.403 . S
C1285 C1286 1.392 . S
C1285 C1289 1.495 . S
C1286 C1285 1.392 . S
C1286 C1287 1.385 . S
C1286 C1288 1.478 . S
C1287 H1281 0.930 1_655 S
C1287 C1283 1.400 . S
C1287 C1286 1.385 . S
C1288 C1286 1.478 . S
C1288 C1290 1.381 . S
C1288 C1294 1.383 1_655 S
C1289 C1285 1.495 . S
C1289 H1295 0.959 . S
C1289 H1296 0.961 . S
C1289 H1297 0.960 . S
C1290 C1288 1.381 . S
C1290 C1291 1.369 1_655 S
C1290 H1298 0.930 1_545 S
C1291 C1290 1.369 1_455 S
C1291 C1292 1.412 . S
C1291 H1299 0.927 1_445 S
C1292 C1291 1.412 . S
C1292 C1293 1.377 . S
C1293 H1277 0.930 . S
C1293 C1292 1.377 . S
C1293 C1294 1.379 . S
C1294 H1278 0.931 . S
C1294 C1288 1.383 1_455 S
C1294 C1293 1.379 . S
H1295 C1289 0.959 . S
H1296 C1289 0.961 . S
H1297 C1289 0.960 . S
H1298 C1290 0.930 1_565 S
H1299 C1291 0.927 1_665 S
H1300 C1308 0.929 . S
H1301 C1310 0.930 . S
H1302 C1312 0.930 . S
H1303 C1315 0.929 . S
H1304 C1318 0.930 . S
H1305 C1320 0.960 . S
H1306 C1320 0.960 . S
H1307 C1320 0.960 . S
C1308 H1300 0.929 . S
C1308 C1309 1.377 . S
C1308 C1310 1.384 . S
C1309 C1308 1.377 . S
C1309 C1315 1.390 . S
C1310 H1301 0.930 . S
C1310 C1308 1.384 . S
C1310 C1311 1.372 . S
C1311 C1310 1.372 . S
C1311 C1312 1.400 . S
C1311 C1316 1.490 . S
C1312 H1302 0.930 . S
C1312 C1311 1.400 . S
C1312 C1315 1.386 . S
H1313 C1329 0.930 . S
H1314 C1330 0.931 . S
C1315 H1303 0.929 . S
C1315 C1309 1.390 . S
C1315 C1312 1.386 . S
C1316 C1311 1.490 . S
C1316 C1318 1.395 . S
C1316 C1319 1.403 . S
H1317 C1323 0.930 . S
C1318 H1304 0.930 . S
C1318 C1316 1.395 . S
C1318 C1321 1.403 . S
C1319 C1316 1.403 . S
C1319 C1320 1.524 . S
C1319 C1323 1.400 . S
C1320 H1305 0.960 . S
C1320 H1306 0.960 . S
C1320 H1307 0.960 . S
C1320 C1319 1.524 . S
C1321 C1318 1.403 . S
C1321 C1322 1.392 . S
C1321 C1325 1.495 . S
C1322 C1321 1.392 . S
C1322 C1323 1.385 . S
C1322 C1324 1.478 . S
C1323 H1317 0.930 . S
C1323 C1319 1.400 . S
C1323 C1322 1.385 . S
C1324 C1322 1.478 . S
C1324 C1326 1.381 . S
C1324 C1330 1.383 . S
C1325 C1321 1.495 . S
C1325 H1331 0.959 . S
C1325 H1332 0.961 . S
C1325 H1333 0.960 . S
C1326 C1324 1.381 . S
C1326 C1327 1.394 . S
C1326 H1334 0.930 . S
C1327 C1326 1.394 . S
C1327 C1328 1.383 . S
C1327 H1335 0.929 . S
C1328 C1327 1.383 . S
C1328 C1329 1.377 . S
C1329 H1313 0.930 . S
C1329 C1328 1.377 . S
C1329 C1330 1.379 . S
C1330 H1314 0.931 . S
C1330 C1324 1.383 . S
C1330 C1329 1.379 . S
H1331 C1325 0.959 . S
H1332 C1325 0.961 . S
H1333 C1325 0.960 . S
H1334 C1326 0.930 . S
H1335 C1327 0.929 . S
H1336 C1344 0.929 . S
H1337 C1346 0.930 . S
H1338 C1348 0.945 . S
H1339 C1351 0.929 . S
H1340 C1354 0.930 . S
H1341 C1356 0.960 . S
H1342 C1356 0.960 . S
H1343 C1356 0.960 . S
C1344 H1336 0.929 . S
C1344 C1345 1.377 . S
C1344 C1346 1.384 . S
C1345 C1344 1.377 . S
C1345 C1351 1.390 1_545 S
C1346 H1337 0.930 . S
C1346 C1344 1.384 . S
C1346 C1347 1.372 . S
C1347 C1346 1.372 . S
C1347 C1348 1.375 1_545 S
C1347 C1352 1.490 . S
C1348 H1338 0.945 . S
C1348 C1347 1.375 1_565 S
C1348 C1351 1.397 . S
H1349 C1365 0.930 . S
H1350 C1366 0.931 . S
C1351 H1339 0.929 . S
C1351 C1345 1.390 1_565 S
C1351 C1348 1.397 . S
C1352 C1347 1.490 . S
C1352 C1354 1.395 . S
C1352 C1355 1.403 1_545 S
H1353 C1359 0.930 . S
C1354 H1340 0.930 . S
C1354 C1352 1.395 . S
C1354 C1357 1.403 . S
C1355 C1352 1.403 1_565 S
C1355 C1356 1.524 . S
C1355 C1359 1.400 . S
C1356 H1341 0.960 . S
C1356 H1342 0.960 . S
C1356 H1343 0.960 . S
C1356 C1355 1.524 . S
C1357 C1354 1.403 . S
C1357 C1358 1.392 . S
C1357 C1361 1.495 . S
C1358 C1357 1.392 . S
C1358 C1359 1.385 1_545 S
C1358 C1360 1.478 . S
C1359 H1353 0.930 . S
C1359 C1355 1.400 . S
C1359 C1358 1.385 1_565 S
C1360 C1358 1.478 . S
C1360 C1362 1.381 . S
C1360 C1366 1.383 . S
C1361 C1357 1.495 . S
C1361 H1367 0.959 . S
C1361 H1368 0.961 . S
C1361 H1369 0.960 . S
C1362 C1360 1.381 . S
C1362 C1363 1.394 . S
C1362 H1370 0.930 . S
C1363 C1362 1.394 . S
C1363 C1364 1.383 . S
C1363 H1371 0.929 . S
C1364 C1363 1.383 . S
C1364 C1365 1.377 . S
C1365 H1349 0.930 . S
C1365 C1364 1.377 . S
C1365 C1366 1.379 . S
C1366 H1350 0.931 . S
C1366 C1360 1.383 . S
C1366 C1365 1.379 . S
H1367 C1361 0.959 . S
H1368 C1361 0.961 . S
H1369 C1361 0.960 . S
H1370 C1362 0.930 . S
H1371 C1363 0.929 . S
H1372 C1380 0.929 . S
H1373 C1382 0.930 . S
H1374 C1384 0.930 . S
H1375 C1387 0.929 . S
H1376 C1390 0.930 . S
H1377 C1392 0.960 . S
H1378 C1392 0.960 . S
H1379 C1392 0.960 . S
C1380 H1372 0.929 . S
C1380 C1381 1.377 . S
C1380 C1382 1.384 . S
C1381 C1380 1.377 . S
C1381 C1387 1.390 . S
C1382 H1373 0.930 . S
C1382 C1380 1.384 . S
C1382 C1383 1.372 . S
C1383 C1382 1.372 . S
C1383 C1384 1.400 . S
C1383 C1388 1.490 . S
C1384 H1374 0.930 . S
C1384 C1383 1.400 . S
C1384 C1387 1.386 . S
H1385 C1401 0.930 . S
H1386 C1402 0.931 . S
C1387 H1375 0.929 . S
C1387 C1381 1.390 . S
C1387 C1384 1.386 . S
C1388 C1383 1.490 . S
C1388 C1390 1.395 . S
C1388 C1391 1.403 . S
H1389 C1395 0.930 . S
C1390 H1376 0.930 . S
C1390 C1388 1.395 . S
C1390 C1393 1.403 . S
C1391 C1388 1.403 . S
C1391 C1392 1.524 . S
C1391 C1395 1.400 . S
C1392 H1377 0.960 . S
C1392 H1378 0.960 . S
C1392 H1379 0.960 . S
C1392 C1391 1.524 . S
C1393 C1390 1.403 . S
C1393 C1394 1.392 . S
C1393 C1397 1.495 . S
C1394 C1393 1.392 . S
C1394 C1395 1.385 . S
C1394 C1396 1.478 . S
C1395 H1389 0.930 . S
C1395 C1391 1.400 . S
C1395 C1394 1.385 . S
C1396 C1394 1.478 . S
C1396 C1398 1.381 . S
C1396 C1402 1.383 . S
C1397 C1393 1.495 . S
C1397 H1403 0.959 . S
C1397 H1404 0.961 . S
C1397 H1405 0.960 . S
C1398 C1396 1.381 . S
C1398 C1399 1.394 . S
C1398 H1406 0.930 . S
C1399 C1398 1.394 . S
C1399 C1400 1.383 . S
C1399 H1407 0.929 . S
C1400 C1399 1.383 . S
C1400 C1401 1.377 . S
C1401 H1385 0.930 . S
C1401 C1400 1.377 . S
C1401 C1402 1.379 . S
C1402 H1386 0.931 . S
C1402 C1396 1.383 . S
C1402 C1401 1.379 . S
H1403 C1397 0.959 . S
H1404 C1397 0.961 . S
H1405 C1397 0.960 . S
H1406 C1398 0.930 . S
H1407 C1399 0.929 . S
H1408 C1416 0.929 . S
H1409 C1418 0.930 . S
H1410 C1420 0.930 . S
H1411 C1423 0.929 . S
H1412 C1426 0.930 . S
H1413 C1428 0.960 1_455 S
H1414 C1428 0.960 . S
H1415 C1428 0.987 . S
C1416 H1408 0.929 . S
C1416 C1417 1.377 . S
C1416 C1418 1.384 . S
C1417 C1416 1.377 . S
C1417 C1423 1.390 . S
C1418 H1409 0.930 . S
C1418 C1416 1.384 . S
C1418 C1419 1.372 . S
C1419 C1418 1.372 . S
C1419 C1420 1.400 . S
C1419 C1424 1.490 . S
C1420 H1410 0.930 . S
C1420 C1419 1.400 . S
C1420 C1423 1.386 . S
H1421 C1437 0.930 . S
H1422 C1438 0.931 . S
C1423 H1411 0.929 . S
C1423 C1417 1.390 . S
C1423 C1420 1.386 . S
C1424 C1419 1.490 . S
C1424 C1426 1.395 1_545 S
C1424 C1427 1.403 . S
H1425 C1431 0.930 1_455 S
C1426 H1412 0.930 . S
C1426 C1424 1.395 1_565 S
C1426 C1429 1.403 . S
C1427 C1424 1.403 . S
C1427 C1428 1.524 . S
C1427 C1431 1.400 . S
C1428 H1413 0.960 1_655 S
C1428 H1414 0.960 . S
C1428 H1415 0.987 . S
C1428 C1427 1.524 . S
C1429 C1426 1.403 . S
C1429 C1430 1.392 1_565 S
C1429 C1433 1.495 . S
C1430 C1429 1.392 1_545 S
C1430 C1431 1.385 . S
C1430 C1432 1.478 . S
C1431 H1425 0.930 1_655 S
C1431 C1427 1.400 . S
C1431 C1430 1.385 . S
C1432 C1430 1.478 . S
C1432 C1434 1.381 . S
C1432 C1438 1.383 1_655 S
C1433 C1429 1.495 . S
C1433 H1439 0.959 . S
C1433 H1440 0.961 . S
C1433 H1441 0.960 . S
C1434 C1432 1.381 . S
C1434 C1435 1.394 . S
C1434 H1442 0.930 . S
C1435 C1434 1.394 . S
C1435 C1436 1.383 1_655 S
C1435 H1443 0.929 . S
C1436 C1435 1.383 1_455 S
C1436 C1437 1.377 . S
C1437 H1421 0.930 . S
C1437 C1436 1.377 . S
C1437 C1438 1.379 . S
C1438 H1422 0.931 . S
C1438 C1432 1.383 1_455 S
C1438 C1437 1.379 . S
H1439 C1433 0.959 . S
H1440 C1433 0.961 . S
H1441 C1433 0.960 . S
H1442 C1434 0.930 . S
H1443 C1435 0.929 . S
H1444 C1452 0.929 . S
H1445 C1454 0.930 . S
H1446 C1456 0.930 . S
H1447 C1459 0.929 . S
H1448 C1462 0.930 . S
H1449 C1464 0.960 . S
H1450 C1464 0.960 . S
H1451 C1464 0.960 . S
C1452 H1444 0.929 . S
C1452 C1453 1.377 . S
C1452 C1454 1.384 . S
C1453 C1452 1.377 . S
C1453 C1459 1.390 . S
C1454 H1445 0.930 . S
C1454 C1452 1.384 . S
C1454 C1455 1.372 . S
C1455 C1454 1.372 . S
C1455 C1456 1.400 . S
C1455 C1460 1.490 . S
C1456 H1446 0.930 . S
C1456 C1455 1.400 . S
C1456 C1459 1.386 . S
H1457 C1473 0.930 . S
H1458 C1474 0.931 . S
C1459 H1447 0.929 . S
C1459 C1453 1.390 . S
C1459 C1456 1.386 . S
C1460 C1455 1.490 . S
C1460 C1462 1.395 . S
C1460 C1463 1.403 . S
H1461 C1467 0.930 . S
C1462 H1448 0.930 . S
C1462 C1460 1.395 . S
C1462 C1465 1.403 . S
C1463 C1460 1.403 . S
C1463 C1464 1.524 . S
C1463 C1467 1.400 . S
C1464 H1449 0.960 . S
C1464 H1450 0.960 . S
C1464 H1451 0.960 . S
C1464 C1463 1.524 . S
C1465 C1462 1.403 . S
C1465 C1466 1.392 . S
C1465 C1469 1.495 . S
C1466 C1465 1.392 . S
C1466 C1467 1.385 . S
C1466 C1468 1.478 . S
C1467 H1461 0.930 . S
C1467 C1463 1.400 . S
C1467 C1466 1.385 . S
C1468 C1466 1.478 . S
C1468 C1470 1.381 . S
C1468 C1474 1.383 . S
C1469 C1465 1.495 . S
C1469 H1475 0.959 . S
C1469 H1476 0.961 . S
C1469 H1477 0.960 . S
C1470 C1468 1.381 . S
C1470 C1471 1.394 . S
C1470 H1478 0.930 . S
C1471 C1470 1.394 . S
C1471 C1472 1.383 . S
C1471 H1479 0.929 . S
C1472 C1471 1.383 . S
C1472 C1473 1.377 . S
C1473 H1457 0.930 . S
C1473 C1472 1.377 . S
C1473 C1474 1.379 . S
C1474 H1458 0.931 . S
C1474 C1468 1.383 . S
C1474 C1473 1.379 . S
H1475 C1469 0.959 . S
H1476 C1469 0.961 . S
H1477 C1469 0.960 . S
H1478 C1470 0.930 . S
H1479 C1471 0.929 . S
H1480 C1488 0.929 . S
H1481 C1490 0.930 . S
H1482 C1492 0.930 . S
H1483 C1495 0.929 . S
H1484 C1498 0.930 . S
H1485 C1500 0.960 . S
H1486 C1500 0.960 . S
H1487 C1500 0.960 . S
C1488 H1480 0.929 . S
C1488 C1489 1.377 . S
C1488 C1490 1.384 . S
C1489 C1488 1.377 . S
C1489 C1495 1.390 . S
C1490 H1481 0.930 . S
C1490 C1488 1.384 . S
C1490 C1491 1.372 . S
C1491 C1490 1.372 . S
C1491 C1492 1.400 . S
C1491 C1496 1.490 . S
C1492 H1482 0.930 . S
C1492 C1491 1.400 . S
C1492 C1495 1.386 . S
H1493 C1509 0.930 . S
H1494 C1510 0.931 . S
C1495 H1483 0.929 . S
C1495 C1489 1.390 . S
C1495 C1492 1.386 . S
C1496 C1491 1.490 . S
C1496 C1498 1.395 . S
C1496 C1499 1.403 . S
H1497 C1503 0.930 1_565 S
C1498 H1484 0.930 . S
C1498 C1496 1.395 . S
C1498 C1501 1.403 . S
C1499 C1496 1.403 . S
C1499 C1500 1.524 1_545 S
C1499 C1503 1.400 . S
C1500 H1485 0.960 . S
C1500 H1486 0.960 . S
C1500 H1487 0.960 . S
C1500 C1499 1.524 1_565 S
C1501 C1498 1.403 . S
C1501 C1502 1.392 . S
C1501 C1505 1.495 . S
C1502 C1501 1.392 . S
C1502 C1503 1.385 . S
C1502 C1504 1.478 . S
C1503 H1497 0.930 1_545 S
C1503 C1499 1.400 . S
C1503 C1502 1.385 . S
C1504 C1502 1.478 . S
C1504 C1506 1.381 . S
C1504 C1510 1.383 . S
C1505 C1501 1.495 . S
C1505 H1511 0.959 . S
C1505 H1512 0.961 . S
C1505 H1513 0.960 . S
C1506 C1504 1.381 . S
C1506 C1507 1.394 . S
C1506 H1514 0.930 . S
C1507 C1506 1.394 . S
C1507 C1508 1.383 . S
C1507 H1515 0.929 . S
C1508 C1507 1.383 . S
C1508 C1509 1.377 . S
C1509 H1493 0.930 . S
C1509 C1508 1.377 . S
C1509 C1510 1.379 . S
C1510 H1494 0.931 . S
C1510 C1504 1.383 . S
C1510 C1509 1.379 . S
H1511 C1505 0.959 . S
H1512 C1505 0.961 . S
H1513 C1505 0.960 . S
H1514 C1506 0.930 . S
H1515 C1507 0.929 . S
H1516 C1524 0.929 . S
H1517 C1526 0.930 . S
H1518 C1528 0.930 . S
H1519 C1531 0.929 . S
H1520 C1534 0.930 . S
H1521 C1536 0.960 . S
H1522 C1536 0.960 . S
H1523 C1536 0.960 . S
C1524 H1516 0.929 . S
C1524 C1525 1.377 . S
C1524 C1526 1.384 . S
C1525 C1524 1.377 . S
C1525 C1531 1.390 . S
C1526 H1517 0.930 . S
C1526 C1524 1.384 . S
C1526 C1527 1.372 . S
C1527 C1526 1.372 . S
C1527 C1528 1.400 . S
C1527 C1532 1.490 . S
C1528 H1518 0.930 . S
C1528 C1527 1.400 . S
C1528 C1531 1.386 . S
H1529 C1545 0.930 . S
H1530 C1546 0.931 . S
C1531 H1519 0.929 . S
C1531 C1525 1.390 . S
C1531 C1528 1.386 . S
C1532 C1527 1.490 . S
C1532 C1534 1.395 . S
C1532 C1535 1.403 . S
H1533 C1539 0.930 . S
C1534 H1520 0.930 . S
C1534 C1532 1.395 . S
C1534 C1537 1.403 . S
C1535 C1532 1.403 . S
C1535 C1536 1.524 . S
C1535 C1539 1.400 . S
C1536 H1521 0.960 . S
C1536 H1522 0.960 . S
C1536 H1523 0.960 . S
C1536 C1535 1.524 . S
C1537 C1534 1.403 . S
C1537 C1538 1.392 . S
C1537 C1541 1.495 . S
C1538 C1537 1.392 . S
C1538 C1539 1.385 . S
C1538 C1540 1.478 . S
C1539 H1533 0.930 . S
C1539 C1535 1.400 . S
C1539 C1538 1.385 . S
C1540 C1538 1.478 . S
C1540 C1542 1.381 . S
C1540 C1546 1.383 . S
C1541 C1537 1.495 . S
C1541 H1547 0.959 . S
C1541 H1548 0.961 . S
C1541 H1549 0.960 . S
C1542 C1540 1.381 . S
C1542 C1543 1.394 . S
C1542 H1550 0.930 . S
C1543 C1542 1.394 . S
C1543 C1544 1.383 . S
C1543 H1551 0.929 . S
C1544 C1543 1.383 . S
C1544 C1545 1.377 . S
C1545 H1529 0.930 . S
C1545 C1544 1.377 . S
C1545 C1546 1.379 . S
C1546 H1530 0.931 . S
C1546 C1540 1.383 . S
C1546 C1545 1.379 . S
H1547 C1541 0.959 . S
H1548 C1541 0.961 . S
H1549 C1541 0.960 . S
H1550 C1542 0.930 . S
H1551 C1543 0.929 . S
H1552 C1560 0.929 . S
H1553 C1562 0.930 . S
H1554 C1564 0.930 . S
H1555 C1567 0.929 . S
H1556 C1570 0.913 1_556 S
H1557 C1572 0.960 . S
H1558 C1572 0.960 . S
H1559 C1572 0.960 . S
C1560 H1552 0.929 . S
C1560 C1561 1.386 . S
C1560 C1562 1.384 . S
C1561 C1560 1.386 . S
C1561 C1567 1.376 1_556 S
C1562 H1553 0.930 . S
C1562 C1560 1.384 . S
C1562 C1563 1.372 1_556 S
C1563 C1562 1.372 1_554 S
C1563 C1564 1.400 . S
C1563 C1568 1.490 . S
C1564 H1554 0.930 . S
C1564 C1563 1.400 . S
C1564 C1567 1.386 . S
H1565 C1581 0.930 . S
H1566 C1582 0.931 . S
C1567 H1555 0.929 . S
C1567 C1561 1.376 1_554 S
C1567 C1564 1.386 . S
C1568 C1563 1.490 . S
C1568 C1570 1.395 . S
C1568 C1571 1.403 . S
H1569 C1575 0.930 . S
C1570 H1556 0.913 1_554 S
C1570 C1568 1.395 . S
C1570 C1573 1.403 . S
C1571 C1568 1.403 . S
C1571 C1572 1.524 . S
C1571 C1575 1.400 . S
C1572 H1557 0.960 . S
C1572 H1558 0.960 . S
C1572 H1559 0.960 . S
C1572 C1571 1.524 . S
C1573 C1570 1.403 . S
C1573 C1574 1.392 . S
C1573 C1577 1.495 . S
C1574 C1573 1.392 . S
C1574 C1575 1.385 . S
C1574 C1576 1.478 . S
C1575 H1569 0.930 . S
C1575 C1571 1.400 . S
C1575 C1574 1.385 . S
C1576 C1574 1.478 . S
C1576 C1578 1.381 . S
C1576 C1582 1.383 . S
C1577 C1573 1.495 . S
C1577 H1583 0.959 1_554 S
C1577 H1584 0.961 . S
C1577 H1585 0.960 1_554 S
C1578 C1576 1.381 . S
C1578 C1579 1.394 . S
C1578 H1586 0.930 . S
C1579 C1578 1.394 . S
C1579 C1580 1.383 . S
C1579 H1587 0.929 . S
C1580 C1579 1.383 . S
C1580 C1581 1.377 . S
C1581 H1565 0.930 . S
C1581 C1580 1.377 . S
C1581 C1582 1.379 . S
C1582 H1566 0.931 . S
C1582 C1576 1.383 . S
C1582 C1581 1.379 . S
H1583 C1577 0.959 1_556 S
H1584 C1577 0.961 . S
H1585 C1577 0.960 1_556 S
H1586 C1578 0.930 . S
H1587 C1579 0.929 . S
H1588 C1596 0.929 . S
H1589 C1598 0.930 . S
H1590 C1600 0.914 1_556 S
H1591 C1603 0.944 . S
H1592 C1606 0.930 . S
H1593 C1608 0.959 . S
H1594 C1608 0.962 1_554 S
H1595 C1608 0.956 . S
C1596 H1588 0.929 . S
C1596 C1597 1.377 . S
C1596 C1598 1.384 . S
C1597 C1596 1.377 . S
C1597 C1603 1.378 1_554 S
C1598 H1589 0.930 . S
C1598 C1596 1.384 . S
C1598 C1599 1.372 . S
C1599 C1598 1.372 . S
C1599 C1600 1.421 . S
C1599 C1604 1.490 . S
C1600 H1590 0.914 1_554 S
C1600 C1599 1.421 . S
C1600 C1603 1.377 1_554 S
H1601 C1617 0.930 1_556 S
H1602 C1618 0.931 1_556 S
C1603 H1591 0.944 . S
C1603 C1597 1.378 1_556 S
C1603 C1600 1.377 1_556 S
C1604 C1599 1.490 . S
C1604 C1606 1.395 . S
C1604 C1607 1.403 . S
H1605 C1611 0.930 . S
C1606 H1592 0.930 . S
C1606 C1604 1.395 . S
C1606 C1609 1.403 . S
C1607 C1604 1.403 . S
C1607 C1608 1.526 1_554 S
C1607 C1611 1.400 . S
C1608 H1593 0.959 . S
C1608 H1594 0.962 1_556 S
C1608 H1595 0.956 . S
C1608 C1607 1.526 1_556 S
C1609 C1606 1.403 . S
C1609 C1610 1.392 . S
C1609 C1613 1.495 . S
C1610 C1609 1.392 . S
C1610 C1611 1.385 . S
C1610 C1612 1.478 . S
C1611 H1605 0.930 . S
C1611 C1607 1.400 . S
C1611 C1610 1.385 . S
C1612 C1610 1.478 . S
C1612 C1614 1.381 . S
C1612 C1618 1.383 . S
C1613 C1609 1.495 . S
C1613 H1619 0.959 . S
C1613 H1620 0.961 . S
C1613 H1621 0.960 . S
C1614 C1612 1.381 . S
C1614 C1615 1.394 . S
C1614 H1622 0.930 . S
C1615 C1614 1.394 . S
C1615 C1616 1.383 . S
C1615 H1623 0.929 . S
C1616 C1615 1.383 . S
C1616 C1617 1.377 . S
C1617 H1601 0.930 1_554 S
C1617 C1616 1.377 . S
C1617 C1618 1.379 . S
C1618 H1602 0.931 1_554 S
C1618 C1612 1.383 . S
C1618 C1617 1.379 . S
H1619 C1613 0.959 . S
H1620 C1613 0.961 . S
H1621 C1613 0.960 . S
H1622 C1614 0.930 . S
H1623 C1615 0.929 . S
H1624 C1632 0.929 . S
H1625 C1634 0.930 . S
H1626 C1636 0.930 . S
H1627 C1639 0.929 . S
H1628 C1642 0.930 . S
H1629 C1644 0.960 . S
H1630 C1644 0.960 . S
H1631 C1644 0.960 . S
C1632 H1624 0.929 . S
C1632 C1633 1.377 . S
C1632 C1634 1.384 . S
C1633 C1632 1.377 . S
C1633 C1639 1.390 . S
C1634 H1625 0.930 . S
C1634 C1632 1.384 . S
C1634 C1635 1.372 . S
C1635 C1634 1.372 . S
C1635 C1636 1.400 . S
C1635 C1640 1.490 . S
C1636 H1626 0.930 . S
C1636 C1635 1.400 . S
C1636 C1639 1.386 . S
H1637 C1653 0.930 . S
H1638 C1654 0.931 . S
C1639 H1627 0.929 . S
C1639 C1633 1.390 . S
C1639 C1636 1.386 . S
C1640 C1635 1.490 . S
C1640 C1642 1.395 . S
C1640 C1643 1.403 . S
H1641 C1647 0.930 . S
C1642 H1628 0.930 . S
C1642 C1640 1.395 . S
C1642 C1645 1.403 . S
C1643 C1640 1.403 . S
C1643 C1644 1.524 . S
C1643 C1647 1.400 . S
C1644 H1629 0.960 . S
C1644 H1630 0.960 . S
C1644 H1631 0.960 . S
C1644 C1643 1.524 . S
C1645 C1642 1.403 . S
C1645 C1646 1.392 . S
C1645 C1649 1.495 . S
C1646 C1645 1.392 . S
C1646 C1647 1.385 . S
C1646 C1648 1.478 . S
C1647 H1641 0.930 . S
C1647 C1643 1.400 . S
C1647 C1646 1.385 . S
C1648 C1646 1.478 . S
C1648 C1650 1.381 . S
C1648 C1654 1.383 . S
C1649 C1645 1.495 . S
C1649 H1655 0.959 . S
C1649 H1656 0.961 . S
C1649 H1657 0.960 . S
C1650 C1648 1.381 . S
C1650 C1651 1.394 . S
C1650 H1658 0.930 . S
C1651 C1650 1.394 . S
C1651 C1652 1.383 . S
C1651 H1659 0.929 . S
C1652 C1651 1.383 . S
C1652 C1653 1.377 . S
C1653 H1637 0.930 . S
C1653 C1652 1.377 . S
C1653 C1654 1.379 . S
C1654 H1638 0.931 . S
C1654 C1648 1.383 . S
C1654 C1653 1.379 . S
H1655 C1649 0.959 . S
H1656 C1649 0.961 . S
H1657 C1649 0.960 . S
H1658 C1650 0.930 . S
H1659 C1651 0.929 . S
H1660 C1668 0.929 . S
H1661 C1670 0.930 . S
H1662 C1672 0.930 . S
H1663 C1675 0.929 . S
H1664 C1678 0.930 . S
H1665 C1680 0.960 . S
H1666 C1680 0.960 . S
H1667 C1680 0.960 . S
C1668 H1660 0.929 . S
C1668 C1669 1.377 . S
C1668 C1670 1.384 . S
C1669 C1668 1.377 . S
C1669 C1675 1.390 . S
C1670 H1661 0.930 . S
C1670 C1668 1.384 . S
C1670 C1671 1.372 . S
C1671 C1670 1.372 . S
C1671 C1672 1.400 . S
C1671 C1676 1.490 . S
C1672 H1662 0.930 . S
C1672 C1671 1.400 . S
C1672 C1675 1.386 . S
H1673 C1689 0.930 . S
H1674 C1690 0.931 . S
C1675 H1663 0.929 . S
C1675 C1669 1.390 . S
C1675 C1672 1.386 . S
C1676 C1671 1.490 . S
C1676 C1678 1.395 . S
C1676 C1679 1.403 . S
H1677 C1683 0.930 . S
C1678 H1664 0.930 . S
C1678 C1676 1.395 . S
C1678 C1681 1.403 . S
C1679 C1676 1.403 . S
C1679 C1680 1.524 . S
C1679 C1683 1.400 . S
C1680 H1665 0.960 . S
C1680 H1666 0.960 . S
C1680 H1667 0.960 . S
C1680 C1679 1.524 . S
C1681 C1678 1.403 . S
C1681 C1682 1.392 . S
C1681 C1685 1.495 . S
C1682 C1681 1.392 . S
C1682 C1683 1.385 . S
C1682 C1684 1.478 . S
C1683 H1677 0.930 . S
C1683 C1679 1.400 . S
C1683 C1682 1.385 . S
C1684 C1682 1.478 . S
C1684 C1686 1.381 . S
C1684 C1690 1.383 . S
C1685 C1681 1.495 . S
C1685 H1691 0.959 . S
C1685 H1692 0.961 . S
C1685 H1693 0.960 . S
C1686 C1684 1.381 . S
C1686 C1687 1.394 . S
C1686 H1694 0.930 . S
C1687 C1686 1.394 . S
C1687 C1688 1.383 . S
C1687 H1695 0.929 . S
C1688 C1687 1.383 . S
C1688 C1689 1.377 . S
C1689 H1673 0.930 . S
C1689 C1688 1.377 . S
C1689 C1690 1.379 . S
C1690 H1674 0.931 . S
C1690 C1684 1.383 . S
C1690 C1689 1.379 . S
H1691 C1685 0.959 . S
H1692 C1685 0.961 . S
H1693 C1685 0.960 . S
H1694 C1686 0.930 . S
H1695 C1687 0.929 . S
H1696 C1704 0.929 . S
H1697 C1706 0.930 . S
H1698 C1708 0.930 . S
H1699 C1711 0.929 . S
H1700 C1714 0.930 . S
H1701 C1716 0.960 . S
H1702 C1716 0.960 . S
H1703 C1716 0.960 . S
C1704 H1696 0.929 . S
C1704 C1705 1.377 . S
C1704 C1706 1.384 . S
C1705 C1704 1.377 . S
C1705 C1711 1.390 . S
C1706 H1697 0.930 . S
C1706 C1704 1.384 . S
C1706 C1707 1.372 . S
C1707 C1706 1.372 . S
C1707 C1708 1.400 . S
C1707 C1712 1.490 . S
C1708 H1698 0.930 . S
C1708 C1707 1.400 . S
C1708 C1711 1.386 . S
H1709 C1725 0.930 . S
H1710 C1726 0.931 . S
C1711 H1699 0.929 . S
C1711 C1705 1.390 . S
C1711 C1708 1.386 . S
C1712 C1707 1.490 . S
C1712 C1714 1.395 . S
C1712 C1715 1.403 . S
H1713 C1719 0.930 . S
C1714 H1700 0.930 . S
C1714 C1712 1.395 . S
C1714 C1717 1.403 . S
C1715 C1712 1.403 . S
C1715 C1716 1.524 . S
C1715 C1719 1.400 . S
C1716 H1701 0.960 . S
C1716 H1702 0.960 . S
C1716 H1703 0.960 . S
C1716 C1715 1.524 . S
C1717 C1714 1.403 . S
C1717 C1718 1.392 . S
C1717 C1721 1.495 . S
C1718 C1717 1.392 . S
C1718 C1719 1.385 . S
C1718 C1720 1.478 . S
C1719 H1713 0.930 . S
C1719 C1715 1.400 . S
C1719 C1718 1.385 . S
C1720 C1718 1.478 . S
C1720 C1722 1.381 . S
C1720 C1726 1.383 . S
C1721 C1717 1.495 . S
C1721 H1727 0.959 . S
C1721 H1728 0.961 . S
C1721 H1729 0.960 . S
C1722 C1720 1.381 . S
C1722 C1723 1.394 . S
C1722 H1730 0.930 . S
C1723 C1722 1.394 . S
C1723 C1724 1.383 . S
C1723 H1731 0.929 . S
C1724 C1723 1.383 . S
C1724 C1725 1.377 . S
C1725 H1709 0.930 . S
C1725 C1724 1.377 . S
C1725 C1726 1.379 . S
C1726 H1710 0.931 . S
C1726 C1720 1.383 . S
C1726 C1725 1.379 . S
H1727 C1721 0.959 . S
H1728 C1721 0.961 . S
H1729 C1721 0.960 . S
H1730 C1722 0.930 . S
H1731 C1723 0.929 . S
H1732 C1740 0.929 . S
H1733 C1742 0.930 . S
H1734 C1744 0.930 . S
H1735 C1747 0.929 . S
H1736 C1750 0.930 . S
H1737 C1752 0.960 . S
H1738 C1752 0.960 . S
H1739 C1752 0.960 . S
C1740 H1732 0.929 . S
C1740 C1741 1.377 . S
C1740 C1742 1.384 . S
C1741 C1740 1.377 . S
C1741 C1747 1.390 . S
C1742 H1733 0.930 . S
C1742 C1740 1.384 . S
C1742 C1743 1.372 . S
C1743 C1742 1.372 . S
C1743 C1744 1.400 . S
C1743 C1748 1.490 . S
C1744 H1734 0.930 . S
C1744 C1743 1.400 . S
C1744 C1747 1.386 . S
H1745 C1761 0.930 . S
H1746 C1762 0.931 . S
C1747 H1735 0.929 . S
C1747 C1741 1.390 . S
C1747 C1744 1.386 . S
C1748 C1743 1.490 . S
C1748 C1750 1.395 . S
C1748 C1751 1.403 . S
H1749 C1755 0.930 . S
C1750 H1736 0.930 . S
C1750 C1748 1.395 . S
C1750 C1753 1.403 . S
C1751 C1748 1.403 . S
C1751 C1752 1.524 . S
C1751 C1755 1.400 . S
C1752 H1737 0.960 . S
C1752 H1738 0.960 . S
C1752 H1739 0.960 . S
C1752 C1751 1.524 . S
C1753 C1750 1.403 . S
C1753 C1754 1.392 . S
C1753 C1757 1.495 . S
C1754 C1753 1.392 . S
C1754 C1755 1.385 . S
C1754 C1756 1.478 . S
C1755 H1749 0.930 . S
C1755 C1751 1.400 . S
C1755 C1754 1.385 . S
C1756 C1754 1.478 . S
C1756 C1758 1.381 . S
C1756 C1762 1.383 . S
C1757 C1753 1.495 . S
C1757 H1763 0.959 . S
C1757 H1764 0.961 . S
C1757 H1765 0.960 . S
C1758 C1756 1.381 . S
C1758 C1759 1.394 . S
C1758 H1766 0.930 . S
C1759 C1758 1.394 . S
C1759 C1760 1.383 . S
C1759 H1767 0.929 . S
C1760 C1759 1.383 . S
C1760 C1761 1.377 . S
C1761 H1745 0.930 . S
C1761 C1760 1.377 . S
C1761 C1762 1.379 . S
C1762 H1746 0.931 . S
C1762 C1756 1.383 . S
C1762 C1761 1.379 . S
H1763 C1757 0.959 . S
H1764 C1757 0.961 . S
H1765 C1757 0.960 . S
H1766 C1758 0.930 . S
H1767 C1759 0.929 . S
H1768 C1776 0.929 . S
H1769 C1778 0.930 . S
H1770 C1780 0.930 . S
H1771 C1783 0.929 . S
H1772 C1786 0.930 . S
H1773 C1788 0.960 . S
H1774 C1788 0.960 . S
H1775 C1788 0.960 . S
C1776 H1768 0.929 . S
C1776 C1777 1.377 . S
C1776 C1778 1.384 . S
C1777 C1776 1.377 . S
C1777 C1783 1.390 . S
C1778 H1769 0.930 . S
C1778 C1776 1.384 . S
C1778 C1779 1.372 . S
C1779 C1778 1.372 . S
C1779 C1780 1.400 . S
C1779 C1784 1.490 . S
C1780 H1770 0.930 . S
C1780 C1779 1.400 . S
C1780 C1783 1.386 . S
H1781 C1797 0.930 . S
H1782 C1798 0.931 . S
C1783 H1771 0.929 . S
C1783 C1777 1.390 . S
C1783 C1780 1.386 . S
C1784 C1779 1.490 . S
C1784 C1786 1.395 . S
C1784 C1787 1.403 . S
H1785 C1791 0.930 . S
C1786 H1772 0.930 . S
C1786 C1784 1.395 . S
C1786 C1789 1.403 . S
C1787 C1784 1.403 . S
C1787 C1788 1.524 . S
C1787 C1791 1.400 . S
C1788 H1773 0.960 . S
C1788 H1774 0.960 . S
C1788 H1775 0.960 . S
C1788 C1787 1.524 . S
C1789 C1786 1.403 . S
C1789 C1790 1.392 . S
C1789 C1793 1.495 . S
C1790 C1789 1.392 . S
C1790 C1791 1.385 . S
C1790 C1792 1.478 . S
C1791 H1785 0.930 . S
C1791 C1787 1.400 . S
C1791 C1790 1.385 . S
C1792 C1790 1.478 . S
C1792 C1794 1.381 . S
C1792 C1798 1.383 . S
C1793 C1789 1.495 . S
C1793 H1799 0.959 . S
C1793 H1800 0.961 . S
C1793 H1801 0.960 . S
C1794 C1792 1.381 . S
C1794 C1795 1.394 . S
C1794 H1802 0.930 . S
C1795 C1794 1.394 . S
C1795 C1796 1.383 . S
C1795 H1803 0.929 . S
C1796 C1795 1.383 . S
C1796 C1797 1.377 . S
C1797 H1781 0.930 . S
C1797 C1796 1.377 . S
C1797 C1798 1.379 . S
C1798 H1782 0.931 . S
C1798 C1792 1.383 . S
C1798 C1797 1.379 . S
H1799 C1793 0.959 . S
H1800 C1793 0.961 . S
H1801 C1793 0.960 . S
H1802 C1794 0.930 . S
H1803 C1795 0.929 . S
H1804 C1812 0.929 . S
H1805 C1814 0.930 . S
H1806 C1816 0.930 . S
H1807 C1819 0.929 . S
H1808 C1822 0.930 . S
H1809 C1824 0.960 . S
H1810 C1824 0.960 . S
H1811 C1824 0.960 . S
C1812 H1804 0.929 . S
C1812 C1813 1.377 . S
C1812 C1814 1.384 . S
C1813 C1812 1.377 . S
C1813 C1819 1.390 . S
C1814 H1805 0.930 . S
C1814 C1812 1.384 . S
C1814 C1815 1.372 . S
C1815 C1814 1.372 . S
C1815 C1816 1.400 . S
C1815 C1820 1.490 . S
C1816 H1806 0.930 . S
C1816 C1815 1.400 . S
C1816 C1819 1.386 . S
H1817 C1833 0.930 . S
H1818 C1834 0.931 . S
C1819 H1807 0.929 . S
C1819 C1813 1.390 . S
C1819 C1816 1.386 . S
C1820 C1815 1.490 . S
C1820 C1822 1.395 . S
C1820 C1823 1.403 . S
H1821 C1827 0.930 . S
C1822 H1808 0.930 . S
C1822 C1820 1.395 . S
C1822 C1825 1.403 . S
C1823 C1820 1.403 . S
C1823 C1824 1.524 . S
C1823 C1827 1.400 . S
C1824 H1809 0.960 . S
C1824 H1810 0.960 . S
C1824 H1811 0.960 . S
C1824 C1823 1.524 . S
C1825 C1822 1.403 . S
C1825 C1826 1.392 . S
C1825 C1829 1.495 . S
C1826 C1825 1.392 . S
C1826 C1827 1.385 . S
C1826 C1828 1.478 . S
C1827 H1821 0.930 . S
C1827 C1823 1.400 . S
C1827 C1826 1.385 . S
C1828 C1826 1.478 . S
C1828 C1830 1.381 . S
C1828 C1834 1.383 . S
C1829 C1825 1.495 . S
C1829 H1835 0.959 . S
C1829 H1836 0.961 . S
C1829 H1837 0.960 . S
C1830 C1828 1.381 . S
C1830 C1831 1.394 . S
C1830 H1838 0.930 . S
C1831 C1830 1.394 . S
C1831 C1832 1.383 . S
C1831 H1839 0.929 . S
C1832 C1831 1.383 . S
C1832 C1833 1.377 . S
C1833 H1817 0.930 . S
C1833 C1832 1.377 . S
C1833 C1834 1.379 . S
C1834 H1818 0.931 . S
C1834 C1828 1.383 . S
C1834 C1833 1.379 . S
H1835 C1829 0.959 . S
H1836 C1829 0.961 . S
H1837 C1829 0.960 . S
H1838 C1830 0.930 . S
H1839 C1831 0.929 . S
H1840 C1848 0.929 . S
H1841 C1850 0.930 . S
H1842 C1852 0.930 . S
H1843 C1855 0.929 . S
H1844 C1858 0.930 . S
H1845 C1860 0.960 . S
H1846 C1860 0.960 . S
H1847 C1860 0.960 . S
C1848 H1840 0.929 . S
C1848 C1849 1.377 . S
C1848 C1850 1.384 . S
C1849 C1848 1.377 . S
C1849 C1855 1.390 . S
C1850 H1841 0.930 . S
C1850 C1848 1.384 . S
C1850 C1851 1.372 . S
C1851 C1850 1.372 . S
C1851 C1852 1.400 . S
C1851 C1856 1.490 . S
C1852 H1842 0.930 . S
C1852 C1851 1.400 . S
C1852 C1855 1.386 . S
H1853 C1869 0.930 . S
H1854 C1870 0.931 . S
C1855 H1843 0.929 . S
C1855 C1849 1.390 . S
C1855 C1852 1.386 . S
C1856 C1851 1.490 . S
C1856 C1858 1.395 . S
C1856 C1859 1.403 . S
H1857 C1863 0.930 . S
C1858 H1844 0.930 . S
C1858 C1856 1.395 . S
C1858 C1861 1.403 . S
C1859 C1856 1.403 . S
C1859 C1860 1.524 . S
C1859 C1863 1.400 . S
C1860 H1845 0.960 . S
C1860 H1846 0.960 . S
C1860 H1847 0.960 . S
C1860 C1859 1.524 . S
C1861 C1858 1.403 . S
C1861 C1862 1.392 . S
C1861 C1865 1.495 . S
C1862 C1861 1.392 . S
C1862 C1863 1.385 . S
C1862 C1864 1.478 . S
C1863 H1857 0.930 . S
C1863 C1859 1.400 . S
C1863 C1862 1.385 . S
C1864 C1862 1.478 . S
C1864 C1866 1.381 . S
C1864 C1870 1.383 . S
C1865 C1861 1.495 . S
C1865 H1871 0.959 . S
C1865 H1872 0.961 . S
C1865 H1873 0.960 . S
C1866 C1864 1.381 . S
C1866 C1867 1.394 . S
C1866 H1874 0.930 . S
C1867 C1866 1.394 . S
C1867 C1868 1.383 . S
C1867 H1875 0.929 . S
C1868 C1867 1.383 . S
C1868 C1869 1.377 . S
C1869 H1853 0.930 . S
C1869 C1868 1.377 . S
C1869 C1870 1.379 . S
C1870 H1854 0.931 . S
C1870 C1864 1.383 . S
C1870 C1869 1.379 . S
H1871 C1865 0.959 . S
H1872 C1865 0.961 . S
H1873 C1865 0.960 . S
H1874 C1866 0.930 . S
H1875 C1867 0.929 . S
H1876 C1884 0.929 . S
H1877 C1886 0.930 . S
H1878 C1888 0.930 . S
H1879 C1891 0.929 . S
H1880 C1894 0.930 . S
H1881 C1896 0.960 . S
H1882 C1896 0.960 . S
H1883 C1896 0.960 . S
C1884 H1876 0.929 . S
C1884 C1885 1.377 . S
C1884 C1886 1.384 . S
C1885 C1884 1.377 . S
C1885 C1891 1.390 . S
C1886 H1877 0.930 . S
C1886 C1884 1.384 . S
C1886 C1887 1.372 . S
C1887 C1886 1.372 . S
C1887 C1888 1.400 . S
C1887 C1892 1.490 . S
C1888 H1878 0.930 . S
C1888 C1887 1.400 . S
C1888 C1891 1.386 . S
H1889 C1905 0.930 . S
H1890 C1906 0.931 . S
C1891 H1879 0.929 . S
C1891 C1885 1.390 . S
C1891 C1888 1.386 . S
C1892 C1887 1.490 . S
C1892 C1894 1.395 . S
C1892 C1895 1.403 . S
H1893 C1899 0.930 . S
C1894 H1880 0.930 . S
C1894 C1892 1.395 . S
C1894 C1897 1.403 . S
C1895 C1892 1.403 . S
C1895 C1896 1.524 . S
C1895 C1899 1.400 . S
C1896 H1881 0.960 . S
C1896 H1882 0.960 . S
C1896 H1883 0.960 . S
C1896 C1895 1.524 . S
C1897 C1894 1.403 . S
C1897 C1898 1.392 . S
C1897 C1901 1.495 . S
C1898 C1897 1.392 . S
C1898 C1899 1.385 . S
C1898 C1900 1.478 . S
C1899 H1893 0.930 . S
C1899 C1895 1.400 . S
C1899 C1898 1.385 . S
C1900 C1898 1.478 . S
C1900 C1902 1.381 . S
C1900 C1906 1.383 . S
C1901 C1897 1.495 . S
C1901 H1907 0.959 . S
C1901 H1908 0.961 . S
C1901 H1909 0.960 . S
C1902 C1900 1.381 . S
C1902 C1903 1.394 . S
C1902 H1910 0.930 . S
C1903 C1902 1.394 . S
C1903 C1904 1.383 . S
C1903 H1911 0.929 . S
C1904 C1903 1.383 . S
C1904 C1905 1.377 . S
C1905 H1889 0.930 . S
C1905 C1904 1.377 . S
C1905 C1906 1.379 . S
C1906 H1890 0.931 . S
C1906 C1900 1.383 . S
C1906 C1905 1.379 . S
H1907 C1901 0.959 . S
H1908 C1901 0.961 . S
H1909 C1901 0.960 . S
H1910 C1902 0.930 . S
H1911 C1903 0.929 . S
H1912 C1920 0.929 . S
H1913 C1922 0.930 . S
H1914 C1924 0.930 . S
H1915 C1927 0.929 . S
H1916 C1930 0.930 . S
H1917 C1932 0.960 . S
H1918 C1932 0.960 . S
H1919 C1932 0.960 . S
C1920 H1912 0.929 . S
C1920 C1921 1.377 . S
C1920 C1922 1.384 . S
C1921 C1920 1.377 . S
C1921 C1927 1.390 . S
C1922 H1913 0.930 . S
C1922 C1920 1.384 . S
C1922 C1923 1.372 . S
C1923 C1922 1.372 . S
C1923 C1924 1.400 . S
C1923 C1928 1.490 . S
C1924 H1914 0.930 . S
C1924 C1923 1.400 . S
C1924 C1927 1.386 . S
H1925 C1941 0.930 . S
H1926 C1942 0.931 . S
C1927 H1915 0.929 . S
C1927 C1921 1.390 . S
C1927 C1924 1.386 . S
C1928 C1923 1.490 . S
C1928 C1930 1.395 . S
C1928 C1931 1.403 . S
H1929 C1935 0.930 . S
C1930 H1916 0.930 . S
C1930 C1928 1.395 . S
C1930 C1933 1.403 . S
C1931 C1928 1.403 . S
C1931 C1932 1.524 . S
C1931 C1935 1.400 . S
C1932 H1917 0.960 . S
C1932 H1918 0.960 . S
C1932 H1919 0.960 . S
C1932 C1931 1.524 . S
C1933 C1930 1.403 . S
C1933 C1934 1.392 . S
C1933 C1937 1.495 . S
C1934 C1933 1.392 . S
C1934 C1935 1.385 . S
C1934 C1936 1.478 . S
C1935 H1929 0.930 . S
C1935 C1931 1.400 . S
C1935 C1934 1.385 . S
C1936 C1934 1.478 . S
C1936 C1938 1.381 . S
C1936 C1942 1.383 . S
C1937 C1933 1.495 . S
C1937 H1943 0.959 . S
C1937 H1944 0.961 . S
C1937 H1945 0.960 . S
C1938 C1936 1.381 . S
C1938 C1939 1.394 . S
C1938 H1946 0.930 . S
C1939 C1938 1.394 . S
C1939 C1940 1.383 . S
C1939 H1947 0.929 . S
C1940 C1939 1.383 . S
C1940 C1941 1.377 . S
C1941 H1925 0.930 . S
C1941 C1940 1.377 . S
C1941 C1942 1.379 . S
C1942 H1926 0.931 . S
C1942 C1936 1.383 . S
C1942 C1941 1.379 . S
H1943 C1937 0.959 . S
H1944 C1937 0.961 . S
H1945 C1937 0.960 . S
H1946 C1938 0.930 . S
H1947 C1939 0.929 . S
H1948 C1956 0.929 . S
H1949 C1958 0.930 . S
H1950 C1960 0.930 . S
H1951 C1963 0.929 . S
H1952 C1966 0.930 . S
H1953 C1968 0.960 . S
H1954 C1968 0.960 . S
H1955 C1968 0.960 . S
C1956 H1948 0.929 . S
C1956 C1957 1.377 . S
C1956 C1958 1.384 . S
C1957 C1956 1.377 . S
C1957 C1963 1.390 . S
C1958 H1949 0.930 . S
C1958 C1956 1.384 . S
C1958 C1959 1.372 . S
C1959 C1958 1.372 . S
C1959 C1960 1.400 . S
C1959 C1964 1.490 . S
C1960 H1950 0.930 . S
C1960 C1959 1.400 . S
C1960 C1963 1.386 . S
H1961 C1977 0.930 . S
H1962 C1978 0.931 . S
C1963 H1951 0.929 . S
C1963 C1957 1.390 . S
C1963 C1960 1.386 . S
C1964 C1959 1.490 . S
C1964 C1966 1.395 . S
C1964 C1967 1.403 . S
H1965 C1971 0.930 . S
C1966 H1952 0.930 . S
C1966 C1964 1.395 . S
C1966 C1969 1.403 . S
C1967 C1964 1.403 . S
C1967 C1968 1.524 . S
C1967 C1971 1.400 . S
C1968 H1953 0.960 . S
C1968 H1954 0.960 . S
C1968 H1955 0.960 . S
C1968 C1967 1.524 . S
C1969 C1966 1.403 . S
C1969 C1970 1.392 . S
C1969 C1973 1.495 . S
C1970 C1969 1.392 . S
C1970 C1971 1.385 . S
C1970 C1972 1.478 . S
C1971 H1965 0.930 . S
C1971 C1967 1.400 . S
C1971 C1970 1.385 . S
C1972 C1970 1.478 . S
C1972 C1974 1.381 . S
C1972 C1978 1.383 . S
C1973 C1969 1.495 . S
C1973 H1979 0.959 . S
C1973 H1980 0.961 . S
C1973 H1981 0.960 . S
C1974 C1972 1.381 . S
C1974 C1975 1.394 . S
C1974 H1982 0.930 . S
C1975 C1974 1.394 . S
C1975 C1976 1.383 . S
C1975 H1983 0.929 . S
C1976 C1975 1.383 . S
C1976 C1977 1.377 . S
C1977 H1961 0.930 . S
C1977 C1976 1.377 . S
C1977 C1978 1.379 . S
C1978 H1962 0.931 . S
C1978 C1972 1.383 . S
C1978 C1977 1.379 . S
H1979 C1973 0.959 . S
H1980 C1973 0.961 . S
H1981 C1973 0.960 . S
H1982 C1974 0.930 . S
H1983 C1975 0.929 . S
H1984 C1992 0.929 . S
H1985 C1994 0.930 . S
H1986 C1996 0.930 . S
H1987 C1999 0.929 . S
H1988 C2002 0.930 . S
H1989 C2004 0.954 . S
H1990 C2004 0.960 . S
H1991 C2004 0.960 1_655 S
C1992 H1984 0.929 . S
C1992 C1993 1.428 . S
C1992 C1994 1.384 . S
C1993 C1992 1.428 . S
C1993 C1999 1.350 1_455 S
C1994 H1985 0.930 . S
C1994 C1992 1.384 . S
C1994 C1995 1.372 . S
C1995 C1994 1.372 . S
C1995 C1996 1.400 1_455 S
C1995 C2000 1.490 . S
C1996 H1986 0.930 . S
C1996 C1995 1.400 1_655 S
C1996 C1999 1.386 . S
H1997 C2013 0.930 . S
H1998 C2014 0.931 . S
C1999 H1987 0.929 . S
C1999 C1993 1.350 1_655 S
C1999 C1996 1.386 . S
C2000 C1995 1.490 . S
C2000 C2002 1.395 . S
C2000 C2003 1.403 . S
H2001 C2007 0.930 . S
C2002 H1988 0.930 . S
C2002 C2000 1.395 . S
C2002 C2005 1.403 . S
C2003 C2000 1.403 . S
C2003 C2004 1.524 . S
C2003 C2007 1.400 . S
C2004 H1989 0.954 . S
C2004 H1990 0.960 . S
C2004 H1991 0.960 1_455 S
C2004 C2003 1.524 . S
C2005 C2002 1.403 . S
C2005 C2006 1.392 . S
C2005 C2009 1.495 . S
C2006 C2005 1.392 . S
C2006 C2007 1.385 . S
C2006 C2008 1.478 . S
C2007 H2001 0.930 . S
C2007 C2003 1.400 . S
C2007 C2006 1.385 . S
C2008 C2006 1.478 . S
C2008 C2010 1.381 . S
C2008 C2014 1.383 1_455 S
C2009 C2005 1.495 . S
C2009 H2015 0.959 . S
C2009 H2016 0.961 1_455 S
C2009 H2017 0.960 . S
C2010 C2008 1.381 . S
C2010 C2011 1.394 . S
C2010 H2018 0.930 . S
C2011 C2010 1.394 . S
C2011 C2012 1.383 . S
C2011 H2019 0.929 . S
C2012 C2011 1.383 . S
C2012 C2013 1.377 1_455 S
C2013 H1997 0.930 . S
C2013 C2012 1.377 1_655 S
C2013 C2014 1.379 . S
C2014 H1998 0.931 . S
C2014 C2008 1.383 1_655 S
C2014 C2013 1.379 . S
H2015 C2009 0.959 . S
H2016 C2009 0.961 1_655 S
H2017 C2009 0.960 . S
H2018 C2010 0.930 . S
H2019 C2011 0.929 . S
H2020 C2028 0.929 . S
H2021 C2030 0.930 . S
H2022 C2032 0.930 . S
H2023 C2035 0.929 . S
H2024 C2038 0.930 . S
H2025 C2040 0.960 . S
H2026 C2040 0.960 . S
H2027 C2040 0.960 . S
C2028 H2020 0.929 . S
C2028 C2029 1.377 . S
C2028 C2030 1.384 . S
C2029 C2028 1.377 . S
C2029 C2035 1.390 . S
C2030 H2021 0.930 . S
C2030 C2028 1.384 . S
C2030 C2031 1.372 . S
C2031 C2030 1.372 . S
C2031 C2032 1.400 . S
C2031 C2036 1.490 . S
C2032 H2022 0.930 . S
C2032 C2031 1.400 . S
C2032 C2035 1.386 . S
H2033 C2049 0.930 . S
H2034 C2050 0.931 . S
C2035 H2023 0.929 . S
C2035 C2029 1.390 . S
C2035 C2032 1.386 . S
C2036 C2031 1.490 . S
C2036 C2038 1.395 . S
C2036 C2039 1.403 . S
H2037 C2043 0.930 . S
C2038 H2024 0.930 . S
C2038 C2036 1.395 . S
C2038 C2041 1.403 . S
C2039 C2036 1.403 . S
C2039 C2040 1.524 . S
C2039 C2043 1.400 . S
C2040 H2025 0.960 . S
C2040 H2026 0.960 . S
C2040 H2027 0.960 . S
C2040 C2039 1.524 . S
C2041 C2038 1.403 . S
C2041 C2042 1.392 . S
C2041 C2045 1.495 . S
C2042 C2041 1.392 . S
C2042 C2043 1.385 . S
C2042 C2044 1.478 . S
C2043 H2037 0.930 . S
C2043 C2039 1.400 . S
C2043 C2042 1.385 . S
C2044 C2042 1.478 . S
C2044 C2046 1.381 . S
C2044 C2050 1.383 . S
C2045 C2041 1.495 . S
C2045 H2051 0.959 . S
C2045 H2052 0.961 . S
C2045 H2053 0.960 . S
C2046 C2044 1.381 . S
C2046 C2047 1.394 . S
C2046 H2054 0.930 . S
C2047 C2046 1.394 . S
C2047 C2048 1.383 . S
C2047 H2055 0.929 . S
C2048 C2047 1.383 . S
C2048 C2049 1.377 . S
C2049 H2033 0.930 . S
C2049 C2048 1.377 . S
C2049 C2050 1.379 . S
C2050 H2034 0.931 . S
C2050 C2044 1.383 . S
C2050 C2049 1.379 . S
H2051 C2045 0.959 . S
H2052 C2045 0.961 . S
H2053 C2045 0.960 . S
H2054 C2046 0.930 . S
H2055 C2047 0.929 . S
H2056 C2064 0.929 . S
H2057 C2066 0.930 . S
H2058 C2068 0.930 . S
H2059 C2071 0.929 . S
H2060 C2074 0.930 . S
H2061 C2076 0.960 . S
H2062 C2076 0.960 . S
H2063 C2076 0.960 . S
C2064 H2056 0.929 . S
C2064 C2065 1.377 . S
C2064 C2066 1.384 . S
C2065 C2064 1.377 . S
C2065 C2071 1.390 . S
C2066 H2057 0.930 . S
C2066 C2064 1.384 . S
C2066 C2067 1.372 . S
C2067 C2066 1.372 . S
C2067 C2068 1.400 . S
C2067 C2072 1.490 . S
C2068 H2058 0.930 . S
C2068 C2067 1.400 . S
C2068 C2071 1.386 . S
H2069 C2085 0.930 . S
H2070 C2086 0.931 . S
C2071 H2059 0.929 . S
C2071 C2065 1.390 . S
C2071 C2068 1.386 . S
C2072 C2067 1.490 . S
C2072 C2074 1.395 . S
C2072 C2075 1.403 . S
H2073 C2079 0.930 . S
C2074 H2060 0.930 . S
C2074 C2072 1.395 . S
C2074 C2077 1.403 . S
C2075 C2072 1.403 . S
C2075 C2076 1.524 . S
C2075 C2079 1.400 . S
C2076 H2061 0.960 . S
C2076 H2062 0.960 . S
C2076 H2063 0.960 . S
C2076 C2075 1.524 . S
C2077 C2074 1.403 . S
C2077 C2078 1.392 . S
C2077 C2081 1.495 . S
C2078 C2077 1.392 . S
C2078 C2079 1.385 . S
C2078 C2080 1.478 . S
C2079 H2073 0.930 . S
C2079 C2075 1.400 . S
C2079 C2078 1.385 . S
C2080 C2078 1.478 . S
C2080 C2082 1.381 . S
C2080 C2086 1.383 . S
C2081 C2077 1.495 . S
C2081 H2087 0.959 . S
C2081 H2088 0.961 . S
C2081 H2089 0.942 1_556 S
C2082 C2080 1.381 . S
C2082 C2083 1.394 1_556 S
C2082 H2090 0.934 . S
C2083 C2082 1.394 1_554 S
C2083 C2084 1.383 . S
C2083 H2091 0.929 . S
C2084 C2083 1.383 . S
C2084 C2085 1.377 1_554 S
C2085 H2069 0.930 . S
C2085 C2084 1.377 1_556 S
C2085 C2086 1.379 . S
C2086 H2070 0.931 . S
C2086 C2080 1.383 . S
C2086 C2085 1.379 . S
H2087 C2081 0.959 . S
H2088 C2081 0.961 . S
H2089 C2081 0.942 1_554 S
H2090 C2082 0.934 . S
H2091 C2083 0.929 . S
H2092 C2100 0.929 . S
H2093 C2102 0.930 . S
H2094 C2104 0.929 . S
H2095 C2107 0.929 . S
H2096 C2110 0.930 . S
H2097 C2112 0.960 . S
H2098 C2112 0.960 . S
H2099 C2112 0.960 . S
C2100 H2092 0.929 . S
C2100 C2101 1.377 1_655 S
C2100 C2102 1.384 . S
C2101 C2100 1.377 1_455 S
C2101 C2107 1.390 . S
C2102 H2093 0.930 . S
C2102 C2100 1.384 . S
C2102 C2103 1.372 . S
C2103 C2102 1.372 . S
C2103 C2104 1.394 1_655 S
C2103 C2108 1.490 . S
C2104 H2094 0.929 . S
C2104 C2103 1.394 1_455 S
C2104 C2107 1.392 . S
H2105 C2121 0.930 . S
H2106 C2122 0.931 . S
C2107 H2095 0.929 . S
C2107 C2101 1.390 . S
C2107 C2104 1.392 . S
C2108 C2103 1.490 . S
C2108 C2110 1.395 . S
C2108 C2111 1.403 . S
H2109 C2115 0.930 . S
C2110 H2096 0.930 . S
C2110 C2108 1.395 . S
C2110 C2113 1.403 . S
C2111 C2108 1.403 . S
C2111 C2112 1.524 . S
C2111 C2115 1.400 . S
C2112 H2097 0.960 . S
C2112 H2098 0.960 . S
C2112 H2099 0.960 . S
C2112 C2111 1.524 . S
C2113 C2110 1.403 . S
C2113 C2114 1.392 . S
C2113 C2117 1.495 . S
C2114 C2113 1.392 . S
C2114 C2115 1.385 . S
C2114 C2116 1.478 . S
C2115 H2109 0.930 . S
C2115 C2111 1.400 . S
C2115 C2114 1.385 . S
C2116 C2114 1.478 . S
C2116 C2118 1.381 . S
C2116 C2122 1.383 . S
C2117 C2113 1.495 . S
C2117 H2123 0.959 . S
C2117 H2124 0.961 . S
C2117 H2125 0.960 . S
C2118 C2116 1.381 . S
C2118 C2119 1.394 . S
C2118 H2126 0.930 . S
C2119 C2118 1.394 . S
C2119 C2120 1.383 . S
C2119 H2127 0.929 . S
C2120 C2119 1.383 . S
C2120 C2121 1.377 . S
C2121 H2105 0.930 . S
C2121 C2120 1.377 . S
C2121 C2122 1.379 . S
C2122 H2106 0.931 . S
C2122 C2116 1.383 . S
C2122 C2121 1.379 . S
H2123 C2117 0.959 . S
H2124 C2117 0.961 . S
H2125 C2117 0.960 . S
H2126 C2118 0.930 . S
H2127 C2119 0.929 . S
H2128 C2136 0.929 . S
H2129 C2138 0.930 . S
H2130 C2140 0.930 1_565 S
H2131 C2143 0.929 1_565 S
H2132 C2146 0.930 . S
H2133 C2148 0.960 . S
H2134 C2148 0.960 . S
H2135 C2148 0.960 1_565 S
C2136 H2128 0.929 . S
C2136 C2137 1.377 . S
C2136 C2138 1.384 . S
C2137 C2136 1.377 . S
C2137 C2143 1.390 . S
C2138 H2129 0.930 . S
C2138 C2136 1.384 . S
C2138 C2139 1.372 . S
C2139 C2138 1.372 . S
C2139 C2140 1.400 . S
C2139 C2144 1.490 . S
C2140 H2130 0.930 1_545 S
C2140 C2139 1.400 . S
C2140 C2143 1.386 . S
H2141 C2157 0.930 . S
H2142 C2158 0.931 . S
C2143 H2131 0.929 1_545 S
C2143 C2137 1.390 . S
C2143 C2140 1.386 . S
C2144 C2139 1.490 . S
C2144 C2146 1.395 . S
C2144 C2147 1.403 . S
H2145 C2151 0.930 . S
C2146 H2132 0.930 . S
C2146 C2144 1.395 . S
C2146 C2149 1.403 . S
C2147 C2144 1.403 . S
C2147 C2148 1.524 . S
C2147 C2151 1.400 . S
C2148 H2133 0.960 . S
C2148 H2134 0.960 . S
C2148 H2135 0.960 1_545 S
C2148 C2147 1.524 . S
C2149 C2146 1.403 . S
C2149 C2150 1.392 . S
C2149 C2153 1.495 . S
C2150 C2149 1.392 . S
C2150 C2151 1.385 . S
C2150 C2152 1.478 . S
C2151 H2145 0.930 . S
C2151 C2147 1.400 . S
C2151 C2150 1.385 . S
C2152 C2150 1.478 . S
C2152 C2154 1.381 . S
C2152 C2158 1.383 1_545 S
C2153 C2149 1.495 . S
C2153 H2159 0.959 . S
C2153 H2160 0.961 . S
C2153 H2161 0.960 . S
C2154 C2152 1.381 . S
C2154 C2155 1.394 . S
C2154 H2162 0.930 . S
C2155 C2154 1.394 . S
C2155 C2156 1.383 . S
C2155 H2163 0.929 . S
C2156 C2155 1.383 . S
C2156 C2157 1.377 1_545 S
C2157 H2141 0.930 . S
C2157 C2156 1.377 1_565 S
C2157 C2158 1.379 . S
C2158 H2142 0.931 . S
C2158 C2152 1.383 1_565 S
C2158 C2157 1.379 . S
H2159 C2153 0.959 . S
H2160 C2153 0.961 . S
H2161 C2153 0.960 . S
H2162 C2154 0.930 . S
H2163 C2155 0.929 . S
H2164 C2172 0.929 . S
H2165 C2174 0.930 . S
H2166 C2176 0.930 . S
H2167 C2179 0.929 . S
H2168 C2182 0.930 . S
H2169 C2184 0.960 . S
H2170 C2184 0.960 . S
H2171 C2184 0.960 . S
C2172 H2164 0.929 . S
C2172 C2173 1.377 . S
C2172 C2174 1.384 . S
C2173 C2172 1.377 . S
C2173 C2179 1.390 . S
C2174 H2165 0.930 . S
C2174 C2172 1.384 . S
C2174 C2175 1.372 . S
C2175 C2174 1.372 . S
C2175 C2176 1.400 . S
C2175 C2180 1.490 . S
C2176 H2166 0.930 . S
C2176 C2175 1.400 . S
C2176 C2179 1.386 . S
H2177 C2193 0.930 . S
H2178 C2194 0.931 . S
C2179 H2167 0.929 . S
C2179 C2173 1.390 . S
C2179 C2176 1.386 . S
C2180 C2175 1.490 . S
C2180 C2182 1.395 . S
C2180 C2183 1.403 . S
H2181 C2187 0.930 . S
C2182 H2168 0.930 . S
C2182 C2180 1.395 . S
C2182 C2185 1.403 . S
C2183 C2180 1.403 . S
C2183 C2184 1.524 . S
C2183 C2187 1.400 . S
C2184 H2169 0.960 . S
C2184 H2170 0.960 . S
C2184 H2171 0.960 . S
C2184 C2183 1.524 . S
C2185 C2182 1.403 . S
C2185 C2186 1.392 . S
C2185 C2189 1.495 . S
C2186 C2185 1.392 . S
C2186 C2187 1.385 . S
C2186 C2188 1.478 . S
C2187 H2181 0.930 . S
C2187 C2183 1.400 . S
C2187 C2186 1.385 . S
C2188 C2186 1.478 . S
C2188 C2190 1.381 . S
C2188 C2194 1.383 . S
C2189 C2185 1.495 . S
C2189 H2195 0.959 . S
C2189 H2196 0.961 . S
C2189 H2197 0.960 . S
C2190 C2188 1.381 . S
C2190 C2191 1.394 . S
C2190 H2198 0.930 . S
C2191 C2190 1.394 . S
C2191 C2192 1.383 . S
C2191 H2199 0.929 . S
C2192 C2191 1.383 . S
C2192 C2193 1.377 . S
C2193 H2177 0.930 . S
C2193 C2192 1.377 . S
C2193 C2194 1.379 . S
C2194 H2178 0.931 . S
C2194 C2188 1.383 . S
C2194 C2193 1.379 . S
H2195 C2189 0.959 . S
H2196 C2189 0.961 . S
H2197 C2189 0.960 . S
H2198 C2190 0.930 . S
H2199 C2191 0.929 . S
H2200 C2208 0.929 1_565 S
H2201 C2210 0.930 1_565 S
H2202 C2212 0.930 . S
H2203 C2215 0.929 . S
H2204 C2218 0.930 . S
H2205 C2220 0.960 . S
H2206 C2220 0.960 . S
H2207 C2220 0.960 . S
C2208 H2200 0.929 1_545 S
C2208 C2209 1.377 . S
C2208 C2210 1.384 . S
C2209 C2208 1.377 . S
C2209 C2215 1.390 . S
C2210 H2201 0.930 1_545 S
C2210 C2208 1.384 . S
C2210 C2211 1.372 . S
C2211 C2210 1.372 . S
C2211 C2212 1.400 . S
C2211 C2216 1.490 . S
C2212 H2202 0.930 . S
C2212 C2211 1.400 . S
C2212 C2215 1.386 . S
H2213 C2229 0.930 . S
H2214 C2230 0.931 . S
C2215 H2203 0.929 . S
C2215 C2209 1.390 . S
C2215 C2212 1.386 . S
C2216 C2211 1.490 . S
C2216 C2218 1.395 . S
C2216 C2219 1.403 . S
H2217 C2223 0.930 . S
C2218 H2204 0.930 . S
C2218 C2216 1.395 . S
C2218 C2221 1.403 . S
C2219 C2216 1.403 . S
C2219 C2220 1.524 . S
C2219 C2223 1.400 . S
C2220 H2205 0.960 . S
C2220 H2206 0.960 . S
C2220 H2207 0.960 . S
C2220 C2219 1.524 . S
C2221 C2218 1.403 . S
C2221 C2222 1.392 . S
C2221 C2225 1.495 . S
C2222 C2221 1.392 . S
C2222 C2223 1.385 . S
C2222 C2224 1.478 . S
C2223 H2217 0.930 . S
C2223 C2219 1.400 . S
C2223 C2222 1.385 . S
C2224 C2222 1.478 . S
C2224 C2226 1.414 . S
C2224 C2230 1.383 . S
C2225 C2221 1.495 . S
C2225 H2231 0.959 . S
C2225 H2232 0.961 . S
C2225 H2233 0.960 1_545 S
C2226 C2224 1.414 . S
C2226 C2227 1.388 . S
C2226 H2234 0.905 1_545 S
C2227 C2226 1.388 . S
C2227 C2228 1.388 . S
C2227 H2235 0.923 1_545 S
C2228 C2227 1.388 . S
C2228 C2229 1.377 . S
C2229 H2213 0.930 . S
C2229 C2228 1.377 . S
C2229 C2230 1.379 . S
C2230 H2214 0.931 . S
C2230 C2224 1.383 . S
C2230 C2229 1.379 . S
H2231 C2225 0.959 . S
H2232 C2225 0.961 . S
H2233 C2225 0.960 1_565 S
H2234 C2226 0.905 1_565 S
H2235 C2227 0.923 1_565 S
H2236 C2244 0.929 . S
H2237 C2246 0.930 . S
H2238 C2248 0.930 . S
H2239 C2251 0.929 . S
H2240 C2254 0.930 . S
H2241 C2256 0.960 . S
H2242 C2256 0.960 . S
H2243 C2256 0.960 . S
C2244 H2236 0.929 . S
C2244 C2245 1.377 . S
C2244 C2246 1.384 . S
C2245 C2244 1.377 . S
C2245 C2251 1.390 . S
C2246 H2237 0.930 . S
C2246 C2244 1.384 . S
C2246 C2247 1.372 . S
C2247 C2246 1.372 . S
C2247 C2248 1.400 . S
C2247 C2252 1.490 . S
C2248 H2238 0.930 . S
C2248 C2247 1.400 . S
C2248 C2251 1.386 . S
H2249 C2265 0.930 . S
H2250 C2266 0.931 . S
C2251 H2239 0.929 . S
C2251 C2245 1.390 . S
C2251 C2248 1.386 . S
C2252 C2247 1.490 . S
C2252 C2254 1.395 . S
C2252 C2255 1.403 . S
H2253 C2259 0.930 . S
C2254 H2240 0.930 . S
C2254 C2252 1.395 . S
C2254 C2257 1.403 . S
C2255 C2252 1.403 . S
C2255 C2256 1.524 . S
C2255 C2259 1.400 . S
C2256 H2241 0.960 . S
C2256 H2242 0.960 . S
C2256 H2243 0.960 . S
C2256 C2255 1.524 . S
C2257 C2254 1.403 . S
C2257 C2258 1.392 . S
C2257 C2261 1.495 . S
C2258 C2257 1.392 . S
C2258 C2259 1.385 . S
C2258 C2260 1.478 . S
C2259 H2253 0.930 . S
C2259 C2255 1.400 . S
C2259 C2258 1.385 . S
C2260 C2258 1.478 . S
C2260 C2262 1.381 . S
C2260 C2266 1.383 . S
C2261 C2257 1.495 . S
C2261 H2267 0.959 . S
C2261 H2268 0.961 . S
C2261 H2269 0.960 . S
C2262 C2260 1.381 . S
C2262 C2263 1.394 . S
C2262 H2270 0.930 . S
C2263 C2262 1.394 . S
C2263 C2264 1.383 . S
C2263 H2271 0.929 . S
C2264 C2263 1.383 . S
C2264 C2265 1.377 . S
C2265 H2249 0.930 . S
C2265 C2264 1.377 . S
C2265 C2266 1.379 . S
C2266 H2250 0.931 . S
C2266 C2260 1.383 . S
C2266 C2265 1.379 . S
H2267 C2261 0.959 . S
H2268 C2261 0.961 . S
H2269 C2261 0.960 . S
H2270 C2262 0.930 . S
H2271 C2263 0.929 . S
H2272 C2280 0.929 . S
H2273 C2282 0.930 . S
H2274 C2284 0.930 . S
H2275 C2287 0.929 . S
H2276 C2290 0.930 . S
H2277 C2292 0.960 . S
H2278 C2292 0.960 . S
H2279 C2292 0.960 1_545 S
C2280 H2272 0.929 . S
C2280 C2281 1.377 . S
C2280 C2282 1.384 . S
C2281 C2280 1.377 . S
C2281 C2287 1.390 . S
C2282 H2273 0.930 . S
C2282 C2280 1.384 . S
C2282 C2283 1.372 . S
C2283 C2282 1.372 . S
C2283 C2284 1.400 . S
C2283 C2288 1.490 . S
C2284 H2274 0.930 . S
C2284 C2283 1.400 . S
C2284 C2287 1.386 . S
H2285 C2301 0.930 . S
H2286 C2302 0.931 . S
C2287 H2275 0.929 . S
C2287 C2281 1.390 . S
C2287 C2284 1.386 . S
C2288 C2283 1.490 . S
C2288 C2290 1.395 . S
C2288 C2291 1.403 . S
H2289 C2295 0.930 . S
C2290 H2276 0.930 . S
C2290 C2288 1.395 . S
C2290 C2293 1.403 . S
C2291 C2288 1.403 . S
C2291 C2292 1.524 1_545 S
C2291 C2295 1.400 . S
C2292 H2277 0.960 . S
C2292 H2278 0.960 . S
C2292 H2279 0.960 1_565 S
C2292 C2291 1.524 1_565 S
C2293 C2290 1.403 . S
C2293 C2294 1.392 . S
C2293 C2297 1.495 . S
C2294 C2293 1.392 . S
C2294 C2295 1.385 . S
C2294 C2296 1.478 . S
C2295 H2289 0.930 . S
C2295 C2291 1.400 . S
C2295 C2294 1.385 . S
C2296 C2294 1.478 . S
C2296 C2298 1.381 . S
C2296 C2302 1.383 . S
C2297 C2293 1.495 . S
C2297 H2303 0.959 . S
C2297 H2304 0.961 . S
C2297 H2305 0.960 . S
C2298 C2296 1.381 . S
C2298 C2299 1.394 . S
C2298 H2306 0.930 . S
C2299 C2298 1.394 . S
C2299 C2300 1.383 . S
C2299 H2307 0.928 1_545 S
C2300 C2299 1.383 . S
C2300 C2301 1.377 . S
C2301 H2285 0.930 . S
C2301 C2300 1.377 . S
C2301 C2302 1.379 . S
C2302 H2286 0.931 . S
C2302 C2296 1.383 . S
C2302 C2301 1.379 . S
H2303 C2297 0.959 . S
H2304 C2297 0.961 . S
H2305 C2297 0.960 . S
H2306 C2298 0.930 . S
H2307 C2299 0.928 1_565 S
H2308 C2316 0.929 . S
H2309 C2318 0.930 . S
H2310 C2320 0.930 . S
H2311 C2323 0.929 . S
H2312 C2326 0.930 . S
H2313 C2328 0.960 . S
H2314 C2328 0.960 . S
H2315 C2328 0.960 . S
C2316 H2308 0.929 . S
C2316 C2317 1.377 . S
C2316 C2318 1.384 . S
C2317 C2316 1.377 . S
C2317 C2323 1.390 . S
C2318 H2309 0.930 . S
C2318 C2316 1.384 . S
C2318 C2319 1.372 . S
C2319 C2318 1.372 . S
C2319 C2320 1.400 . S
C2319 C2324 1.490 . S
C2320 H2310 0.930 . S
C2320 C2319 1.400 . S
C2320 C2323 1.386 . S
H2321 C2337 0.930 . S
H2322 C2338 0.931 . S
C2323 H2311 0.929 . S
C2323 C2317 1.390 . S
C2323 C2320 1.386 . S
C2324 C2319 1.490 . S
C2324 C2326 1.395 . S
C2324 C2327 1.403 . S
H2325 C2331 0.930 . S
C2326 H2312 0.930 . S
C2326 C2324 1.395 . S
C2326 C2329 1.403 . S
C2327 C2324 1.403 . S
C2327 C2328 1.524 . S
C2327 C2331 1.400 . S
C2328 H2313 0.960 . S
C2328 H2314 0.960 . S
C2328 H2315 0.960 . S
C2328 C2327 1.524 . S
C2329 C2326 1.403 . S
C2329 C2330 1.392 . S
C2329 C2333 1.495 . S
C2330 C2329 1.392 . S
C2330 C2331 1.385 . S
C2330 C2332 1.478 . S
C2331 H2325 0.930 . S
C2331 C2327 1.400 . S
C2331 C2330 1.385 . S
C2332 C2330 1.478 . S
C2332 C2334 1.381 . S
C2332 C2338 1.383 . S
C2333 C2329 1.495 . S
C2333 H2339 0.959 . S
C2333 H2340 0.961 . S
C2333 H2341 0.960 . S
C2334 C2332 1.381 . S
C2334 C2335 1.394 . S
C2334 H2342 0.930 . S
C2335 C2334 1.394 . S
C2335 C2336 1.383 . S
C2335 H2343 0.929 . S
C2336 C2335 1.383 . S
C2336 C2337 1.377 . S
C2337 H2321 0.930 . S
C2337 C2336 1.377 . S
C2337 C2338 1.379 . S
C2338 H2322 0.931 . S
C2338 C2332 1.383 . S
C2338 C2337 1.379 . S
H2339 C2333 0.959 . S
H2340 C2333 0.961 . S
H2341 C2333 0.960 . S
H2342 C2334 0.930 . S
H2343 C2335 0.929 . S
H2344 C2352 0.929 . S
H2345 C2354 0.930 . S
H2346 C2356 0.930 . S
H2347 C2359 0.929 . S
H2348 C2362 0.930 . S
H2349 C2364 0.960 . S
H2350 C2364 0.960 1_545 S
H2351 C2364 0.960 . S
C2352 H2344 0.929 . S
C2352 C2353 1.377 . S
C2352 C2354 1.384 . S
C2353 C2352 1.377 . S
C2353 C2359 1.390 1_545 S
C2354 H2345 0.930 . S
C2354 C2352 1.384 . S
C2354 C2355 1.372 . S
C2355 C2354 1.372 . S
C2355 C2356 1.400 1_545 S
C2355 C2360 1.490 . S
C2356 H2346 0.930 . S
C2356 C2355 1.400 1_565 S
C2356 C2359 1.386 . S
H2357 C2373 0.930 . S
H2358 C2374 0.931 . S
C2359 H2347 0.929 . S
C2359 C2353 1.390 1_565 S
C2359 C2356 1.386 . S
C2360 C2355 1.490 . S
C2360 C2362 1.395 . S
C2360 C2363 1.403 . S
H2361 C2367 0.930 1_565 S
C2362 H2348 0.930 . S
C2362 C2360 1.395 . S
C2362 C2365 1.403 . S
C2363 C2360 1.403 . S
C2363 C2364 1.524 1_545 S
C2363 C2367 1.400 . S
C2364 H2349 0.960 . S
C2364 H2350 0.960 1_565 S
C2364 H2351 0.960 . S
C2364 C2363 1.524 1_565 S
C2365 C2362 1.403 . S
C2365 C2366 1.392 . S
C2365 C2369 1.495 . S
C2366 C2365 1.392 . S
C2366 C2367 1.385 . S
C2366 C2368 1.478 . S
C2367 H2361 0.930 1_545 S
C2367 C2363 1.400 . S
C2367 C2366 1.385 . S
C2368 C2366 1.478 . S
C2368 C2370 1.381 . S
C2368 C2374 1.383 1_545 S
C2369 C2365 1.495 . S
C2369 H2375 0.959 . S
C2369 H2376 0.961 . S
C2369 H2377 0.960 . S
C2370 C2368 1.381 . S
C2370 C2371 1.394 . S
C2370 H2378 0.930 . S
C2371 C2370 1.394 . S
C2371 C2372 1.383 . S
C2371 H2379 0.929 . S
C2372 C2371 1.383 . S
C2372 C2373 1.377 1_545 S
C2373 H2357 0.930 . S
C2373 C2372 1.377 1_565 S
C2373 C2374 1.379 . S
C2374 H2358 0.931 . S
C2374 C2368 1.383 1_565 S
C2374 C2373 1.379 . S
H2375 C2369 0.959 . S
H2376 C2369 0.961 . S
H2377 C2369 0.960 . S
H2378 C2370 0.930 . S
H2379 C2371 0.929 . S
H2380 C2388 0.929 . S
H2381 C2390 0.930 . S
H2382 C2392 0.930 . S
H2383 C2395 0.929 . S
H2384 C2398 0.930 . S
H2385 C2400 0.960 . S
H2386 C2400 0.960 . S
H2387 C2400 0.960 . S
C2388 H2380 0.929 . S
C2388 C2389 1.377 . S
C2388 C2390 1.384 . S
C2389 C2388 1.377 . S
C2389 C2395 1.390 . S
C2390 H2381 0.930 . S
C2390 C2388 1.384 . S
C2390 C2391 1.372 . S
C2391 C2390 1.372 . S
C2391 C2392 1.400 . S
C2391 C2396 1.490 . S
C2392 H2382 0.930 . S
C2392 C2391 1.400 . S
C2392 C2395 1.386 . S
H2393 C2409 0.930 . S
H2394 C2410 0.931 . S
C2395 H2383 0.929 . S
C2395 C2389 1.390 . S
C2395 C2392 1.386 . S
C2396 C2391 1.490 . S
C2396 C2398 1.395 . S
C2396 C2399 1.403 . S
H2397 C2403 0.930 . S
C2398 H2384 0.930 . S
C2398 C2396 1.395 . S
C2398 C2401 1.403 . S
C2399 C2396 1.403 . S
C2399 C2400 1.524 . S
C2399 C2403 1.400 . S
C2400 H2385 0.960 . S
C2400 H2386 0.960 . S
C2400 H2387 0.960 . S
C2400 C2399 1.524 . S
C2401 C2398 1.403 . S
C2401 C2402 1.392 . S
C2401 C2405 1.495 . S
C2402 C2401 1.392 . S
C2402 C2403 1.385 . S
C2402 C2404 1.478 . S
C2403 H2397 0.930 . S
C2403 C2399 1.400 . S
C2403 C2402 1.385 . S
C2404 C2402 1.478 . S
C2404 C2406 1.381 . S
C2404 C2410 1.383 . S
C2405 C2401 1.495 . S
C2405 H2411 0.959 . S
C2405 H2412 0.961 . S
C2405 H2413 0.960 . S
C2406 C2404 1.381 . S
C2406 C2407 1.394 . S
C2406 H2414 0.930 . S
C2407 C2406 1.394 . S
C2407 C2408 1.383 . S
C2407 H2415 0.929 . S
C2408 C2407 1.383 . S
C2408 C2409 1.377 . S
C2409 H2393 0.930 . S
C2409 C2408 1.377 . S
C2409 C2410 1.379 . S
C2410 H2394 0.931 . S
C2410 C2404 1.383 . S
C2410 C2409 1.379 . S
H2411 C2405 0.959 . S
H2412 C2405 0.961 . S
H2413 C2405 0.960 . S
H2414 C2406 0.930 . S
H2415 C2407 0.929 . S
H2416 C2424 0.929 . S
H2417 C2426 0.930 . S
H2418 C2428 0.930 . S
H2419 C2431 0.929 . S
H2420 C2434 0.930 . S
H2421 C2436 0.960 . S
H2422 C2436 0.960 . S
H2423 C2436 0.960 . S
C2424 H2416 0.929 . S
C2424 C2425 1.377 . S
C2424 C2426 1.384 . S
C2425 C2424 1.377 . S
C2425 C2431 1.390 . S
C2426 H2417 0.930 . S
C2426 C2424 1.384 . S
C2426 C2427 1.372 . S
C2427 C2426 1.372 . S
C2427 C2428 1.400 . S
C2427 C2432 1.490 . S
C2428 H2418 0.930 . S
C2428 C2427 1.400 . S
C2428 C2431 1.386 . S
H2429 C2445 0.930 . S
H2430 C2446 0.931 . S
C2431 H2419 0.929 . S
C2431 C2425 1.390 . S
C2431 C2428 1.386 . S
C2432 C2427 1.490 . S
C2432 C2434 1.395 . S
C2432 C2435 1.403 . S
H2433 C2439 0.930 . S
C2434 H2420 0.930 . S
C2434 C2432 1.395 . S
C2434 C2437 1.403 . S
C2435 C2432 1.403 . S
C2435 C2436 1.524 . S
C2435 C2439 1.400 . S
C2436 H2421 0.960 . S
C2436 H2422 0.960 . S
C2436 H2423 0.960 . S
C2436 C2435 1.524 . S
C2437 C2434 1.403 . S
C2437 C2438 1.392 . S
C2437 C2441 1.495 1_554 S
C2438 C2437 1.392 . S
C2438 C2439 1.385 . S
C2438 C2440 1.478 . S
C2439 H2433 0.930 . S
C2439 C2435 1.400 . S
C2439 C2438 1.385 . S
C2440 C2438 1.478 . S
C2440 C2442 1.381 . S
C2440 C2446 1.383 1_554 S
C2441 C2437 1.495 1_556 S
C2441 H2447 0.959 . S
C2441 H2448 0.961 . S
C2441 H2449 0.960 . S
C2442 C2440 1.381 . S
C2442 C2443 1.394 . S
C2442 H2450 0.930 . S
C2443 C2442 1.394 . S
C2443 C2444 1.383 1_554 S
C2443 H2451 0.929 . S
C2444 C2443 1.383 1_556 S
C2444 C2445 1.377 . S
C2445 H2429 0.930 . S
C2445 C2444 1.377 . S
C2445 C2446 1.379 . S
C2446 H2430 0.931 . S
C2446 C2440 1.383 1_556 S
C2446 C2445 1.379 . S
H2447 C2441 0.959 . S
H2448 C2441 0.961 . S
H2449 C2441 0.960 . S
H2450 C2442 0.930 . S
H2451 C2443 0.929 . S
H2452 C2460 0.929 . S
H2453 C2462 0.930 . S
H2454 C2464 0.930 . S
H2455 C2467 0.929 . S
H2456 C2470 0.930 . S
H2457 C2472 0.960 . S
H2458 C2472 0.960 1_556 S
H2459 C2472 0.960 . S
C2460 H2452 0.929 . S
C2460 C2461 1.377 . S
C2460 C2462 1.384 . S
C2461 C2460 1.377 . S
C2461 C2467 1.390 . S
C2462 H2453 0.930 . S
C2462 C2460 1.384 . S
C2462 C2463 1.372 . S
C2463 C2462 1.372 . S
C2463 C2464 1.400 . S
C2463 C2468 1.490 . S
C2464 H2454 0.930 . S
C2464 C2463 1.400 . S
C2464 C2467 1.386 . S
H2465 C2481 0.930 . S
H2466 C2482 0.931 . S
C2467 H2455 0.929 . S
C2467 C2461 1.390 . S
C2467 C2464 1.386 . S
C2468 C2463 1.490 . S
C2468 C2470 1.395 . S
C2468 C2471 1.403 . S
H2469 C2475 0.930 . S
C2470 H2456 0.930 . S
C2470 C2468 1.395 . S
C2470 C2473 1.403 . S
C2471 C2468 1.403 . S
C2471 C2472 1.524 . S
C2471 C2475 1.400 . S
C2472 H2457 0.960 . S
C2472 H2458 0.960 1_554 S
C2472 H2459 0.960 . S
C2472 C2471 1.524 . S
C2473 C2470 1.403 . S
C2473 C2474 1.392 . S
C2473 C2477 1.495 . S
C2474 C2473 1.392 . S
C2474 C2475 1.385 . S
C2474 C2476 1.478 . S
C2475 H2469 0.930 . S
C2475 C2471 1.400 . S
C2475 C2474 1.385 . S
C2476 C2474 1.478 . S
C2476 C2478 1.381 . S
C2476 C2482 1.383 . S
C2477 C2473 1.495 . S
C2477 H2483 0.959 . S
C2477 H2484 0.961 . S
C2477 H2485 0.960 . S
C2478 C2476 1.381 . S
C2478 C2479 1.394 . S
C2478 H2486 0.930 . S
C2479 C2478 1.394 . S
C2479 C2480 1.383 . S
C2479 H2487 0.929 . S
C2480 C2479 1.383 . S
C2480 C2481 1.377 . S
C2481 H2465 0.930 . S
C2481 C2480 1.377 . S
C2481 C2482 1.379 . S
C2482 H2466 0.931 . S
C2482 C2476 1.383 . S
C2482 C2481 1.379 . S
H2483 C2477 0.959 . S
H2484 C2477 0.961 . S
H2485 C2477 0.960 . S
H2486 C2478 0.930 . S
H2487 C2479 0.929 . S
H2488 C2496 0.929 . S
H2489 C2498 0.930 . S
H2490 C2500 0.930 . S
H2491 C2503 0.929 . S
H2492 C2506 0.930 . S
H2493 C2508 0.960 . S
H2494 C2508 0.960 . S
H2495 C2508 0.960 . S
C2496 H2488 0.929 . S
C2496 C2497 1.377 . S
C2496 C2498 1.384 . S
C2497 C2496 1.377 . S
C2497 C2503 1.390 . S
C2498 H2489 0.930 . S
C2498 C2496 1.384 . S
C2498 C2499 1.372 . S
C2499 C2498 1.372 . S
C2499 C2500 1.400 . S
C2499 C2504 1.490 . S
C2500 H2490 0.930 . S
C2500 C2499 1.400 . S
C2500 C2503 1.386 . S
H2501 C2517 0.930 . S
H2502 C2518 0.931 . S
C2503 H2491 0.929 . S
C2503 C2497 1.390 . S
C2503 C2500 1.386 . S
C2504 C2499 1.490 . S
C2504 C2506 1.395 . S
C2504 C2507 1.403 . S
H2505 C2511 0.930 . S
C2506 H2492 0.930 . S
C2506 C2504 1.395 . S
C2506 C2509 1.403 . S
C2507 C2504 1.403 . S
C2507 C2508 1.524 . S
C2507 C2511 1.400 . S
C2508 H2493 0.960 . S
C2508 H2494 0.960 . S
C2508 H2495 0.960 . S
C2508 C2507 1.524 . S
C2509 C2506 1.403 . S
C2509 C2510 1.392 . S
C2509 C2513 1.495 . S
C2510 C2509 1.392 . S
C2510 C2511 1.385 . S
C2510 C2512 1.478 . S
C2511 H2505 0.930 . S
C2511 C2507 1.400 . S
C2511 C2510 1.385 . S
C2512 C2510 1.478 . S
C2512 C2514 1.381 . S
C2512 C2518 1.383 . S
C2513 C2509 1.495 . S
C2513 H2519 0.959 . S
C2513 H2520 0.961 . S
C2513 H2521 0.960 . S
C2514 C2512 1.381 . S
C2514 C2515 1.394 . S
C2514 H2522 0.930 . S
C2515 C2514 1.394 . S
C2515 C2516 1.383 . S
C2515 H2523 0.929 . S
C2516 C2515 1.383 . S
C2516 C2517 1.377 . S
C2517 H2501 0.930 . S
C2517 C2516 1.377 . S
C2517 C2518 1.379 . S
C2518 H2502 0.931 . S
C2518 C2512 1.383 . S
C2518 C2517 1.379 . S
H2519 C2513 0.959 . S
H2520 C2513 0.961 . S
H2521 C2513 0.960 . S
H2522 C2514 0.930 . S
H2523 C2515 0.929 . S
H2524 C2532 0.929 . S
H2525 C2534 0.930 . S
H2526 C2536 0.930 . S
H2527 C2539 0.929 . S
H2528 C2542 0.930 . S
H2529 C2544 0.960 . S
H2530 C2544 0.960 . S
H2531 C2544 0.960 . S
C2532 H2524 0.929 . S
C2532 C2533 1.377 . S
C2532 C2534 1.384 . S
C2533 C2532 1.377 . S
C2533 C2539 1.390 . S
C2534 H2525 0.930 . S
C2534 C2532 1.384 . S
C2534 C2535 1.372 . S
C2535 C2534 1.372 . S
C2535 C2536 1.400 . S
C2535 C2540 1.490 . S
C2536 H2526 0.930 . S
C2536 C2535 1.400 . S
C2536 C2539 1.386 . S
H2537 C2553 0.930 . S
H2538 C2554 0.931 . S
C2539 H2527 0.929 . S
C2539 C2533 1.390 . S
C2539 C2536 1.386 . S
C2540 C2535 1.490 . S
C2540 C2542 1.395 . S
C2540 C2543 1.403 . S
H2541 C2547 0.930 . S
C2542 H2528 0.930 . S
C2542 C2540 1.395 . S
C2542 C2545 1.403 . S
C2543 C2540 1.403 . S
C2543 C2544 1.524 . S
C2543 C2547 1.400 . S
C2544 H2529 0.960 . S
C2544 H2530 0.960 . S
C2544 H2531 0.960 . S
C2544 C2543 1.524 . S
C2545 C2542 1.403 . S
C2545 C2546 1.392 . S
C2545 C2549 1.495 . S
C2546 C2545 1.392 . S
C2546 C2547 1.385 . S
C2546 C2548 1.478 . S
C2547 H2541 0.930 . S
C2547 C2543 1.400 . S
C2547 C2546 1.385 . S
C2548 C2546 1.478 . S
C2548 C2550 1.381 . S
C2548 C2554 1.383 . S
C2549 C2545 1.495 . S
C2549 H2555 0.959 . S
C2549 H2556 0.961 . S
C2549 H2557 0.960 . S
C2550 C2548 1.381 . S
C2550 C2551 1.394 . S
C2550 H2558 0.930 . S
C2551 C2550 1.394 . S
C2551 C2552 1.383 . S
C2551 H2559 0.929 . S
C2552 C2551 1.383 . S
C2552 C2553 1.377 . S
C2553 H2537 0.930 . S
C2553 C2552 1.377 . S
C2553 C2554 1.379 . S
C2554 H2538 0.931 . S
C2554 C2548 1.383 . S
C2554 C2553 1.379 . S
H2555 C2549 0.959 . S
H2556 C2549 0.961 . S
H2557 C2549 0.960 . S
H2558 C2550 0.930 . S
H2559 C2551 0.929 . S
H2560 C2568 0.929 . S
H2561 C2570 0.930 . S
H2562 C2572 0.930 . S
H2563 C2575 0.929 . S
H2564 C2578 0.930 . S
H2565 C2580 0.960 . S
H2566 C2580 0.960 . S
H2567 C2580 0.960 . S
C2568 H2560 0.929 . S
C2568 C2569 1.377 . S
C2568 C2570 1.384 . S
C2569 C2568 1.377 . S
C2569 C2575 1.390 . S
C2570 H2561 0.930 . S
C2570 C2568 1.384 . S
C2570 C2571 1.372 . S
C2571 C2570 1.372 . S
C2571 C2572 1.400 . S
C2571 C2576 1.490 . S
C2572 H2562 0.930 . S
C2572 C2571 1.400 . S
C2572 C2575 1.386 . S
H2573 C2589 0.930 . S
H2574 C2590 0.931 . S
C2575 H2563 0.929 . S
C2575 C2569 1.390 . S
C2575 C2572 1.386 . S
C2576 C2571 1.490 . S
C2576 C2578 1.395 . S
C2576 C2579 1.403 . S
H2577 C2583 0.930 . S
C2578 H2564 0.930 . S
C2578 C2576 1.395 . S
C2578 C2581 1.403 . S
C2579 C2576 1.403 . S
C2579 C2580 1.524 . S
C2579 C2583 1.400 . S
C2580 H2565 0.960 . S
C2580 H2566 0.960 . S
C2580 H2567 0.960 . S
C2580 C2579 1.524 . S
C2581 C2578 1.403 . S
C2581 C2582 1.392 . S
C2581 C2585 1.495 . S
C2582 C2581 1.392 . S
C2582 C2583 1.385 . S
C2582 C2584 1.478 . S
C2583 H2577 0.930 . S
C2583 C2579 1.400 . S
C2583 C2582 1.385 . S
C2584 C2582 1.478 . S
C2584 C2586 1.381 . S
C2584 C2590 1.383 . S
C2585 C2581 1.495 . S
C2585 H2591 0.959 . S
C2585 H2592 0.961 . S
C2585 H2593 0.960 . S
C2586 C2584 1.381 . S
C2586 C2587 1.394 . S
C2586 H2594 0.930 . S
C2587 C2586 1.394 . S
C2587 C2588 1.383 . S
C2587 H2595 0.929 . S
C2588 C2587 1.383 . S
C2588 C2589 1.377 . S
C2589 H2573 0.930 . S
C2589 C2588 1.377 . S
C2589 C2590 1.379 . S
C2590 H2574 0.931 . S
C2590 C2584 1.383 . S
C2590 C2589 1.379 . S
H2591 C2585 0.959 . S
H2592 C2585 0.961 . S
H2593 C2585 0.960 . S
H2594 C2586 0.930 . S
H2595 C2587 0.929 . S
H2596 C2604 0.929 . S
H2597 C2606 0.930 . S
H2598 C2608 0.930 . S
H2599 C2611 0.929 . S
H2600 C2614 0.930 . S
H2601 C2616 0.960 . S
H2602 C2616 0.960 . S
H2603 C2616 0.960 . S
C2604 H2596 0.929 . S
C2604 C2605 1.377 . S
C2604 C2606 1.384 . S
C2605 C2604 1.377 . S
C2605 C2611 1.390 . S
C2606 H2597 0.930 . S
C2606 C2604 1.384 . S
C2606 C2607 1.372 . S
C2607 C2606 1.372 . S
C2607 C2608 1.400 . S
C2607 C2612 1.490 . S
C2608 H2598 0.930 . S
C2608 C2607 1.400 . S
C2608 C2611 1.386 . S
H2609 C2625 0.930 . S
H2610 C2626 0.931 . S
C2611 H2599 0.929 . S
C2611 C2605 1.390 . S
C2611 C2608 1.386 . S
C2612 C2607 1.490 . S
C2612 C2614 1.395 . S
C2612 C2615 1.403 . S
H2613 C2619 0.930 . S
C2614 H2600 0.930 . S
C2614 C2612 1.395 . S
C2614 C2617 1.403 . S
C2615 C2612 1.403 . S
C2615 C2616 1.524 . S
C2615 C2619 1.400 . S
C2616 H2601 0.960 . S
C2616 H2602 0.960 . S
C2616 H2603 0.960 . S
C2616 C2615 1.524 . S
C2617 C2614 1.403 . S
C2617 C2618 1.392 . S
C2617 C2621 1.495 . S
C2618 C2617 1.392 . S
C2618 C2619 1.385 . S
C2618 C2620 1.478 . S
C2619 H2613 0.930 . S
C2619 C2615 1.400 . S
C2619 C2618 1.385 . S
C2620 C2618 1.478 . S
C2620 C2622 1.381 . S
C2620 C2626 1.383 . S
C2621 C2617 1.495 . S
C2621 H2627 0.959 . S
C2621 H2628 0.961 . S
C2621 H2629 0.960 . S
C2622 C2620 1.381 . S
C2622 C2623 1.394 . S
C2622 H2630 0.930 . S
C2623 C2622 1.394 . S
C2623 C2624 1.383 . S
C2623 H2631 0.929 . S
C2624 C2623 1.383 . S
C2624 C2625 1.377 . S
C2625 H2609 0.930 . S
C2625 C2624 1.377 . S
C2625 C2626 1.379 . S
C2626 H2610 0.931 . S
C2626 C2620 1.383 . S
C2626 C2625 1.379 . S
H2627 C2621 0.959 . S
H2628 C2621 0.961 . S
H2629 C2621 0.960 . S
H2630 C2622 0.930 . S
H2631 C2623 0.929 . S
H2632 C2640 0.929 . S
H2633 C2642 0.930 . S
H2634 C2644 0.930 . S
H2635 C2647 0.929 . S
H2636 C2650 0.930 . S
H2637 C2652 0.960 . S
H2638 C2652 0.960 . S
H2639 C2652 0.960 . S
C2640 H2632 0.929 . S
C2640 C2641 1.377 . S
C2640 C2642 1.384 . S
C2641 C2640 1.377 . S
C2641 C2647 1.390 . S
C2642 H2633 0.930 . S
C2642 C2640 1.384 . S
C2642 C2643 1.372 . S
C2643 C2642 1.372 . S
C2643 C2644 1.400 . S
C2643 C2648 1.490 . S
C2644 H2634 0.930 . S
C2644 C2643 1.400 . S
C2644 C2647 1.386 . S
H2645 C2661 0.930 . S
H2646 C2662 0.931 . S
C2647 H2635 0.929 . S
C2647 C2641 1.390 . S
C2647 C2644 1.386 . S
C2648 C2643 1.490 . S
C2648 C2650 1.395 . S
C2648 C2651 1.403 . S
H2649 C2655 0.930 . S
C2650 H2636 0.930 . S
C2650 C2648 1.395 . S
C2650 C2653 1.403 . S
C2651 C2648 1.403 . S
C2651 C2652 1.524 . S
C2651 C2655 1.400 . S
C2652 H2637 0.960 . S
C2652 H2638 0.960 . S
C2652 H2639 0.960 . S
C2652 C2651 1.524 . S
C2653 C2650 1.403 . S
C2653 C2654 1.392 . S
C2653 C2657 1.495 . S
C2654 C2653 1.392 . S
C2654 C2655 1.385 . S
C2654 C2656 1.478 . S
C2655 H2649 0.930 . S
C2655 C2651 1.400 . S
C2655 C2654 1.385 . S
C2656 C2654 1.478 . S
C2656 C2658 1.381 . S
C2656 C2662 1.383 . S
C2657 C2653 1.495 . S
C2657 H2663 0.959 . S
C2657 H2664 0.961 . S
C2657 H2665 0.960 . S
C2658 C2656 1.381 . S
C2658 C2659 1.394 . S
C2658 H2666 0.930 . S
C2659 C2658 1.394 . S
C2659 C2660 1.383 . S
C2659 H2667 0.929 . S
C2660 C2659 1.383 . S
C2660 C2661 1.377 . S
C2661 H2645 0.930 . S
C2661 C2660 1.377 . S
C2661 C2662 1.379 . S
C2662 H2646 0.931 . S
C2662 C2656 1.383 . S
C2662 C2661 1.379 . S
H2663 C2657 0.959 . S
H2664 C2657 0.961 . S
H2665 C2657 0.960 . S
H2666 C2658 0.930 . S
H2667 C2659 0.929 . S
H2668 C2676 0.929 . S
H2669 C2678 0.930 . S
H2670 C2680 0.930 . S
H2671 C2683 0.929 . S
H2672 C2686 0.930 . S
H2673 C2688 0.960 . S
H2674 C2688 0.960 . S
H2675 C2688 0.960 . S
C2676 H2668 0.929 . S
C2676 C2677 1.377 . S
C2676 C2678 1.384 . S
C2677 C2676 1.377 . S
C2677 C2683 1.390 . S
C2678 H2669 0.930 . S
C2678 C2676 1.384 . S
C2678 C2679 1.372 . S
C2679 C2678 1.372 . S
C2679 C2680 1.400 . S
C2679 C2684 1.490 . S
C2680 H2670 0.930 . S
C2680 C2679 1.400 . S
C2680 C2683 1.386 . S
H2681 C2697 0.930 . S
H2682 C2698 0.931 . S
C2683 H2671 0.929 . S
C2683 C2677 1.390 . S
C2683 C2680 1.386 . S
C2684 C2679 1.490 . S
C2684 C2686 1.395 . S
C2684 C2687 1.403 . S
H2685 C2691 0.930 . S
C2686 H2672 0.930 . S
C2686 C2684 1.395 . S
C2686 C2689 1.403 . S
C2687 C2684 1.403 . S
C2687 C2688 1.524 . S
C2687 C2691 1.400 . S
C2688 H2673 0.960 . S
C2688 H2674 0.960 . S
C2688 H2675 0.960 . S
C2688 C2687 1.524 . S
C2689 C2686 1.403 . S
C2689 C2690 1.392 . S
C2689 C2693 1.495 . S
C2690 C2689 1.392 . S
C2690 C2691 1.385 . S
C2690 C2692 1.478 . S
C2691 H2685 0.930 . S
C2691 C2687 1.400 . S
C2691 C2690 1.385 . S
C2692 C2690 1.478 . S
C2692 C2694 1.381 . S
C2692 C2698 1.383 . S
C2693 C2689 1.495 . S
C2693 H2699 0.959 . S
C2693 H2700 0.961 . S
C2693 H2701 0.960 . S
C2694 C2692 1.381 . S
C2694 C2695 1.394 . S
C2694 H2702 0.930 . S
C2695 C2694 1.394 . S
C2695 C2696 1.383 . S
C2695 H2703 0.929 . S
C2696 C2695 1.383 . S
C2696 C2697 1.377 . S
C2697 H2681 0.930 . S
C2697 C2696 1.377 . S
C2697 C2698 1.379 . S
C2698 H2682 0.931 . S
C2698 C2692 1.383 . S
C2698 C2697 1.379 . S
H2699 C2693 0.959 . S
H2700 C2693 0.961 . S
H2701 C2693 0.960 . S
H2702 C2694 0.930 . S
H2703 C2695 0.929 . S
H2704 C2712 0.929 . S
H2705 C2714 0.930 . S
H2706 C2716 0.930 . S
H2707 C2719 0.929 . S
H2708 C2722 0.930 . S
H2709 C2724 0.960 . S
H2710 C2724 0.960 . S
H2711 C2724 0.960 . S
C2712 H2704 0.929 . S
C2712 C2713 1.377 . S
C2712 C2714 1.384 . S
C2713 C2712 1.377 . S
C2713 C2719 1.390 . S
C2714 H2705 0.930 . S
C2714 C2712 1.384 . S
C2714 C2715 1.372 . S
C2715 C2714 1.372 . S
C2715 C2716 1.400 . S
C2715 C2720 1.490 . S
C2716 H2706 0.930 . S
C2716 C2715 1.400 . S
C2716 C2719 1.386 . S
H2717 C2733 0.930 . S
H2718 C2734 0.931 . S
C2719 H2707 0.929 . S
C2719 C2713 1.390 . S
C2719 C2716 1.386 . S
C2720 C2715 1.490 . S
C2720 C2722 1.395 . S
C2720 C2723 1.403 . S
H2721 C2727 0.930 . S
C2722 H2708 0.930 . S
C2722 C2720 1.395 . S
C2722 C2725 1.403 . S
C2723 C2720 1.403 . S
C2723 C2724 1.524 . S
C2723 C2727 1.400 . S
C2724 H2709 0.960 . S
C2724 H2710 0.960 . S
C2724 H2711 0.960 . S
C2724 C2723 1.524 . S
C2725 C2722 1.403 . S
C2725 C2726 1.392 . S
C2725 C2729 1.495 . S
C2726 C2725 1.392 . S
C2726 C2727 1.385 . S
C2726 C2728 1.478 . S
C2727 H2721 0.930 . S
C2727 C2723 1.400 . S
C2727 C2726 1.385 . S
C2728 C2726 1.478 . S
C2728 C2730 1.381 . S
C2728 C2734 1.383 . S
C2729 C2725 1.495 . S
C2729 H2735 0.959 . S
C2729 H2736 0.961 . S
C2729 H2737 0.960 . S
C2730 C2728 1.381 . S
C2730 C2731 1.394 . S
C2730 H2738 0.930 . S
C2731 C2730 1.394 . S
C2731 C2732 1.383 . S
C2731 H2739 0.929 . S
C2732 C2731 1.383 . S
C2732 C2733 1.377 . S
C2733 H2717 0.930 . S
C2733 C2732 1.377 . S
C2733 C2734 1.379 . S
C2734 H2718 0.931 . S
C2734 C2728 1.383 . S
C2734 C2733 1.379 . S
H2735 C2729 0.959 . S
H2736 C2729 0.961 . S
H2737 C2729 0.960 . S
H2738 C2730 0.930 . S
H2739 C2731 0.929 . S
H2740 C2748 0.929 . S
H2741 C2750 0.930 . S
H2742 C2752 0.930 . S
H2743 C2755 0.929 . S
H2744 C2758 0.930 . S
H2745 C2760 0.960 . S
H2746 C2760 0.960 . S
H2747 C2760 0.960 . S
C2748 H2740 0.929 . S
C2748 C2749 1.377 . S
C2748 C2750 1.384 . S
C2749 C2748 1.377 . S
C2749 C2755 1.390 . S
C2750 H2741 0.930 . S
C2750 C2748 1.384 . S
C2750 C2751 1.372 . S
C2751 C2750 1.372 . S
C2751 C2752 1.400 . S
C2751 C2756 1.490 . S
C2752 H2742 0.930 . S
C2752 C2751 1.400 . S
C2752 C2755 1.386 . S
H2753 C2769 0.930 . S
H2754 C2770 0.931 . S
C2755 H2743 0.929 . S
C2755 C2749 1.390 . S
C2755 C2752 1.386 . S
C2756 C2751 1.490 . S
C2756 C2758 1.395 . S
C2756 C2759 1.403 . S
H2757 C2763 0.930 . S
C2758 H2744 0.930 . S
C2758 C2756 1.395 . S
C2758 C2761 1.403 . S
C2759 C2756 1.403 . S
C2759 C2760 1.524 . S
C2759 C2763 1.400 . S
C2760 H2745 0.960 . S
C2760 H2746 0.960 . S
C2760 H2747 0.960 . S
C2760 C2759 1.524 . S
C2761 C2758 1.403 . S
C2761 C2762 1.392 . S
C2761 C2765 1.495 . S
C2762 C2761 1.392 . S
C2762 C2763 1.385 . S
C2762 C2764 1.478 . S
C2763 H2757 0.930 . S
C2763 C2759 1.400 . S
C2763 C2762 1.385 . S
C2764 C2762 1.478 . S
C2764 C2766 1.381 . S
C2764 C2770 1.383 . S
C2765 C2761 1.495 . S
C2765 H2771 0.959 . S
C2765 H2772 0.961 . S
C2765 H2773 0.960 . S
C2766 C2764 1.381 . S
C2766 C2767 1.394 . S
C2766 H2774 0.930 . S
C2767 C2766 1.394 . S
C2767 C2768 1.383 . S
C2767 H2775 0.929 . S
C2768 C2767 1.383 . S
C2768 C2769 1.377 . S
C2769 H2753 0.930 . S
C2769 C2768 1.377 . S
C2769 C2770 1.379 . S
C2770 H2754 0.931 . S
C2770 C2764 1.383 . S
C2770 C2769 1.379 . S
H2771 C2765 0.959 . S
H2772 C2765 0.961 . S
H2773 C2765 0.960 . S
H2774 C2766 0.930 . S
H2775 C2767 0.929 . S
H2776 C2784 0.929 . S
H2777 C2786 0.930 . S
H2778 C2788 0.930 . S
H2779 C2791 0.929 . S
H2780 C2794 0.930 . S
H2781 C2796 0.960 . S
H2782 C2796 0.960 . S
H2783 C2796 0.960 . S
C2784 H2776 0.929 . S
C2784 C2785 1.377 . S
C2784 C2786 1.384 . S
C2785 C2784 1.377 . S
C2785 C2791 1.390 . S
C2786 H2777 0.930 . S
C2786 C2784 1.384 . S
C2786 C2787 1.372 . S
C2787 C2786 1.372 . S
C2787 C2788 1.400 . S
C2787 C2792 1.490 . S
C2788 H2778 0.930 . S
C2788 C2787 1.400 . S
C2788 C2791 1.386 . S
H2789 C2805 0.930 . S
H2790 C2806 0.931 . S
C2791 H2779 0.929 . S
C2791 C2785 1.390 . S
C2791 C2788 1.386 . S
C2792 C2787 1.490 . S
C2792 C2794 1.395 . S
C2792 C2795 1.403 . S
H2793 C2799 0.930 . S
C2794 H2780 0.930 . S
C2794 C2792 1.395 . S
C2794 C2797 1.403 . S
C2795 C2792 1.403 . S
C2795 C2796 1.524 1_455 S
C2795 C2799 1.400 . S
C2796 H2781 0.960 . S
C2796 H2782 0.960 . S
C2796 H2783 0.960 . S
C2796 C2795 1.524 1_655 S
C2797 C2794 1.403 . S
C2797 C2798 1.392 . S
C2797 C2801 1.495 1_556 S
C2798 C2797 1.392 . S
C2798 C2799 1.385 . S
C2798 C2800 1.478 . S
C2799 H2793 0.930 . S
C2799 C2795 1.400 . S
C2799 C2798 1.385 . S
C2800 C2798 1.478 . S
C2800 C2802 1.381 1_556 S
C2800 C2806 1.383 . S
C2801 C2797 1.495 1_554 S
C2801 H2807 0.959 . S
C2801 H2808 0.961 . S
C2801 H2809 0.960 . S
C2802 C2800 1.381 1_554 S
C2802 C2803 1.394 . S
C2802 H2810 0.930 . S
C2803 C2802 1.394 . S
C2803 C2804 1.383 . S
C2803 H2811 0.929 . S
C2804 C2803 1.383 . S
C2804 C2805 1.377 1_554 S
C2805 H2789 0.930 . S
C2805 C2804 1.377 1_556 S
C2805 C2806 1.379 . S
C2806 H2790 0.931 . S
C2806 C2800 1.383 . S
C2806 C2805 1.379 . S
H2807 C2801 0.959 . S
H2808 C2801 0.961 . S
H2809 C2801 0.960 . S
H2810 C2802 0.930 . S
H2811 C2803 0.929 . S
H2812 C2820 0.929 . S
H2813 C2822 0.930 . S
H2814 C2824 0.930 . S
H2815 C2827 0.958 . S
H2816 C2830 0.930 . S
H2817 C2832 0.960 . S
H2818 C2832 0.960 . S
H2819 C2832 0.960 . S
C2820 H2812 0.929 . S
C2820 C2821 1.409 . S
C2820 C2822 1.384 . S
C2821 C2820 1.409 . S
C2821 C2827 1.396 1_655 S
C2822 H2813 0.930 . S
C2822 C2820 1.384 . S
C2822 C2823 1.372 . S
C2823 C2822 1.372 . S
C2823 C2824 1.400 . S
C2823 C2828 1.490 . S
C2824 H2814 0.930 . S
C2824 C2823 1.400 . S
C2824 C2827 1.355 1_655 S
H2825 C2841 0.930 . S
H2826 C2842 0.931 . S
C2827 H2815 0.958 . S
C2827 C2821 1.396 1_455 S
C2827 C2824 1.355 1_455 S
C2828 C2823 1.490 . S
C2828 C2830 1.395 . S
C2828 C2831 1.403 . S
H2829 C2835 0.930 . S
C2830 H2816 0.930 . S
C2830 C2828 1.395 . S
C2830 C2833 1.403 . S
C2831 C2828 1.403 . S
C2831 C2832 1.524 . S
C2831 C2835 1.400 . S
C2832 H2817 0.960 . S
C2832 H2818 0.960 . S
C2832 H2819 0.960 . S
C2832 C2831 1.524 . S
C2833 C2830 1.403 . S
C2833 C2834 1.392 . S
C2833 C2837 1.495 . S
C2834 C2833 1.392 . S
C2834 C2835 1.385 . S
C2834 C2836 1.478 . S
C2835 H2829 0.930 . S
C2835 C2831 1.400 . S
C2835 C2834 1.385 . S
C2836 C2834 1.478 . S
C2836 C2838 1.381 . S
C2836 C2842 1.383 . S
C2837 C2833 1.495 . S
C2837 H2843 0.959 . S
C2837 H2844 0.961 . S
C2837 H2845 0.960 . S
C2838 C2836 1.381 . S
C2838 C2839 1.394 . S
C2838 H2846 0.930 . S
C2839 C2838 1.394 . S
C2839 C2840 1.383 . S
C2839 H2847 0.929 . S
C2840 C2839 1.383 . S
C2840 C2841 1.377 . S
C2841 H2825 0.930 . S
C2841 C2840 1.377 . S
C2841 C2842 1.379 . S
C2842 H2826 0.931 . S
C2842 C2836 1.383 . S
C2842 C2841 1.379 . S
H2843 C2837 0.959 . S
H2844 C2837 0.961 . S
H2845 C2837 0.960 . S
H2846 C2838 0.930 . S
H2847 C2839 0.929 . S
H2848 C2856 0.929 . S
H2849 C2858 0.930 . S
H2850 C2860 0.930 . S
H2851 C2863 0.929 . S
H2852 C2866 0.930 . S
H2853 C2868 0.960 . S
H2854 C2868 0.960 . S
H2855 C2868 0.960 . S
C2856 H2848 0.929 . S
C2856 C2857 1.377 . S
C2856 C2858 1.384 . S
C2857 C2856 1.377 . S
C2857 C2863 1.390 . S
C2858 H2849 0.930 . S
C2858 C2856 1.384 . S
C2858 C2859 1.372 . S
C2859 C2858 1.372 . S
C2859 C2860 1.400 . S
C2859 C2864 1.490 . S
C2860 H2850 0.930 . S
C2860 C2859 1.400 . S
C2860 C2863 1.386 . S
H2861 C2877 0.930 . S
H2862 C2878 0.931 . S
C2863 H2851 0.929 . S
C2863 C2857 1.390 . S
C2863 C2860 1.386 . S
C2864 C2859 1.490 . S
C2864 C2866 1.395 . S
C2864 C2867 1.403 . S
H2865 C2871 0.930 . S
C2866 H2852 0.930 . S
C2866 C2864 1.395 . S
C2866 C2869 1.403 . S
C2867 C2864 1.403 . S
C2867 C2868 1.524 . S
C2867 C2871 1.400 . S
C2868 H2853 0.960 . S
C2868 H2854 0.960 . S
C2868 H2855 0.960 . S
C2868 C2867 1.524 . S
C2869 C2866 1.403 . S
C2869 C2870 1.392 . S
C2869 C2873 1.495 . S
C2870 C2869 1.392 . S
C2870 C2871 1.385 . S
C2870 C2872 1.478 . S
C2871 H2865 0.930 . S
C2871 C2867 1.400 . S
C2871 C2870 1.385 . S
C2872 C2870 1.478 . S
C2872 C2874 1.381 . S
C2872 C2878 1.383 . S
C2873 C2869 1.495 . S
C2873 H2879 0.959 . S
C2873 H2880 0.961 . S
C2873 H2881 0.960 . S
C2874 C2872 1.381 . S
C2874 C2875 1.394 . S
C2874 H2882 0.930 . S
C2875 C2874 1.394 . S
C2875 C2876 1.383 . S
C2875 H2883 0.929 . S
C2876 C2875 1.383 . S
C2876 C2877 1.377 . S
C2877 H2861 0.930 . S
C2877 C2876 1.377 . S
C2877 C2878 1.379 . S
C2878 H2862 0.931 . S
C2878 C2872 1.383 . S
C2878 C2877 1.379 . S
H2879 C2873 0.959 . S
H2880 C2873 0.961 . S
H2881 C2873 0.960 . S
H2882 C2874 0.930 . S
H2883 C2875 0.929 . S
H2884 C2892 0.929 . S
H2885 C2894 0.930 . S
H2886 C2896 0.930 . S
H2887 C2899 0.929 . S
H2888 C2902 0.930 . S
H2889 C2904 0.960 . S
H2890 C2904 0.960 . S
H2891 C2904 0.960 . S
C2892 H2884 0.929 . S
C2892 C2893 1.377 . S
C2892 C2894 1.384 . S
C2893 C2892 1.377 . S
C2893 C2899 1.390 . S
C2894 H2885 0.930 . S
C2894 C2892 1.384 . S
C2894 C2895 1.372 . S
C2895 C2894 1.372 . S
C2895 C2896 1.400 . S
C2895 C2900 1.490 . S
C2896 H2886 0.930 . S
C2896 C2895 1.400 . S
C2896 C2899 1.386 . S
H2897 C2913 0.930 . S
H2898 C2914 0.931 . S
C2899 H2887 0.929 . S
C2899 C2893 1.390 . S
C2899 C2896 1.386 . S
C2900 C2895 1.490 . S
C2900 C2902 1.395 . S
C2900 C2903 1.403 . S
H2901 C2907 0.930 . S
C2902 H2888 0.930 . S
C2902 C2900 1.395 . S
C2902 C2905 1.403 . S
C2903 C2900 1.403 . S
C2903 C2904 1.524 . S
C2903 C2907 1.400 . S
C2904 H2889 0.960 . S
C2904 H2890 0.960 . S
C2904 H2891 0.960 . S
C2904 C2903 1.524 . S
C2905 C2902 1.403 . S
C2905 C2906 1.392 . S
C2905 C2909 1.495 . S
C2906 C2905 1.392 . S
C2906 C2907 1.385 . S
C2906 C2908 1.478 . S
C2907 H2901 0.930 . S
C2907 C2903 1.400 . S
C2907 C2906 1.385 . S
C2908 C2906 1.478 . S
C2908 C2910 1.381 . S
C2908 C2914 1.383 . S
C2909 C2905 1.495 . S
C2909 H2915 0.959 . S
C2909 H2916 0.961 . S
C2909 H2917 0.960 . S
C2910 C2908 1.381 . S
C2910 C2911 1.394 . S
C2910 H2918 0.930 . S
C2911 C2910 1.394 . S
C2911 C2912 1.383 . S
C2911 H2919 0.929 . S
C2912 C2911 1.383 . S
C2912 C2913 1.377 . S
C2913 H2897 0.930 . S
C2913 C2912 1.377 . S
C2913 C2914 1.379 . S
C2914 H2898 0.931 . S
C2914 C2908 1.383 . S
C2914 C2913 1.379 . S
H2915 C2909 0.959 . S
H2916 C2909 0.961 . S
H2917 C2909 0.960 . S
H2918 C2910 0.930 . S
H2919 C2911 0.929 . S
H2920 C2928 0.929 . S
H2921 C2930 0.930 . S
H2922 C2932 0.930 . S
H2923 C2935 0.929 . S
H2924 C2938 0.930 . S
H2925 C2940 0.960 . S
H2926 C2940 0.960 . S
H2927 C2940 0.960 . S
C2928 H2920 0.929 . S
C2928 C2929 1.377 . S
C2928 C2930 1.384 . S
C2929 C2928 1.377 . S
C2929 C2935 1.390 . S
C2930 H2921 0.930 . S
C2930 C2928 1.384 . S
C2930 C2931 1.372 . S
C2931 C2930 1.372 . S
C2931 C2932 1.400 . S
C2931 C2936 1.490 . S
C2932 H2922 0.930 . S
C2932 C2931 1.400 . S
C2932 C2935 1.386 . S
H2933 C2949 0.930 . S
H2934 C2950 0.931 . S
C2935 H2923 0.929 . S
C2935 C2929 1.390 . S
C2935 C2932 1.386 . S
C2936 C2931 1.490 . S
C2936 C2938 1.395 . S
C2936 C2939 1.403 . S
H2937 C2943 0.930 . S
C2938 H2924 0.930 . S
C2938 C2936 1.395 . S
C2938 C2941 1.403 . S
C2939 C2936 1.403 . S
C2939 C2940 1.524 . S
C2939 C2943 1.400 . S
C2940 H2925 0.960 . S
C2940 H2926 0.960 . S
C2940 H2927 0.960 . S
C2940 C2939 1.524 . S
C2941 C2938 1.403 . S
C2941 C2942 1.392 . S
C2941 C2945 1.495 . S
C2942 C2941 1.392 . S
C2942 C2943 1.385 . S
C2942 C2944 1.478 . S
C2943 H2937 0.930 . S
C2943 C2939 1.400 . S
C2943 C2942 1.385 . S
C2944 C2942 1.478 . S
C2944 C2946 1.381 . S
C2944 C2950 1.383 . S
C2945 C2941 1.495 . S
C2945 H2951 0.959 . S
C2945 H2952 0.961 . S
C2945 H2953 0.960 . S
C2946 C2944 1.381 . S
C2946 C2947 1.394 . S
C2946 H2954 0.930 . S
C2947 C2946 1.394 . S
C2947 C2948 1.383 . S
C2947 H2955 0.929 . S
C2948 C2947 1.383 . S
C2948 C2949 1.377 . S
C2949 H2933 0.930 . S
C2949 C2948 1.377 . S
C2949 C2950 1.379 . S
C2950 H2934 0.931 . S
C2950 C2944 1.383 . S
C2950 C2949 1.379 . S
H2951 C2945 0.959 . S
H2952 C2945 0.961 . S
H2953 C2945 0.960 . S
H2954 C2946 0.930 . S
H2955 C2947 0.929 . S
H2956 C2964 0.929 . S
H2957 C2966 0.930 . S
H2958 C2968 0.930 . S
H2959 C2971 0.929 . S
H2960 C2974 0.930 . S
H2961 C2976 0.960 . S
H2962 C2976 0.960 . S
H2963 C2976 0.960 . S
C2964 H2956 0.929 . S
C2964 C2965 1.377 . S
C2964 C2966 1.384 . S
C2965 C2964 1.377 . S
C2965 C2971 1.390 . S
C2966 H2957 0.930 . S
C2966 C2964 1.384 . S
C2966 C2967 1.372 . S
C2967 C2966 1.372 . S
C2967 C2968 1.400 . S
C2967 C2972 1.490 . S
C2968 H2958 0.930 . S
C2968 C2967 1.400 . S
C2968 C2971 1.386 . S
H2969 C2985 0.930 . S
H2970 C2986 0.931 . S
C2971 H2959 0.929 . S
C2971 C2965 1.390 . S
C2971 C2968 1.386 . S
C2972 C2967 1.490 . S
C2972 C2974 1.395 . S
C2972 C2975 1.403 . S
H2973 C2979 0.930 . S
C2974 H2960 0.930 . S
C2974 C2972 1.395 . S
C2974 C2977 1.403 . S
C2975 C2972 1.403 . S
C2975 C2976 1.524 . S
C2975 C2979 1.400 . S
C2976 H2961 0.960 . S
C2976 H2962 0.960 . S
C2976 H2963 0.960 . S
C2976 C2975 1.524 . S
C2977 C2974 1.403 . S
C2977 C2978 1.392 . S
C2977 C2981 1.495 . S
C2978 C2977 1.392 . S
C2978 C2979 1.385 . S
C2978 C2980 1.478 . S
C2979 H2973 0.930 . S
C2979 C2975 1.400 . S
C2979 C2978 1.385 . S
C2980 C2978 1.478 . S
C2980 C2982 1.381 . S
C2980 C2986 1.383 . S
C2981 C2977 1.495 . S
C2981 H2987 0.959 . S
C2981 H2988 0.961 . S
C2981 H2989 0.960 . S
C2982 C2980 1.381 . S
C2982 C2983 1.394 . S
C2982 H2990 0.930 . S
C2983 C2982 1.394 . S
C2983 C2984 1.383 . S
C2983 H2991 0.929 . S
C2984 C2983 1.383 . S
C2984 C2985 1.377 . S
C2985 H2969 0.930 . S
C2985 C2984 1.377 . S
C2985 C2986 1.379 . S
C2986 H2970 0.931 . S
C2986 C2980 1.383 . S
C2986 C2985 1.379 . S
H2987 C2981 0.959 . S
H2988 C2981 0.961 . S
H2989 C2981 0.960 . S
H2990 C2982 0.930 . S
H2991 C2983 0.929 . S
H2992 C3000 0.929 . S
H2993 C3002 0.930 . S
H2994 C3004 0.930 . S
H2995 C3007 0.929 . S
H2996 C3010 0.930 . S
H2997 C3012 0.960 . S
H2998 C3012 0.960 . S
H2999 C3012 0.960 . S
C3000 H2992 0.929 . S
C3000 C3001 1.377 . S
C3000 C3002 1.384 . S
C3001 C3000 1.377 . S
C3001 C3007 1.390 . S
C3002 H2993 0.930 . S
C3002 C3000 1.384 . S
C3002 C3003 1.372 . S
C3003 C3002 1.372 . S
C3003 C3004 1.400 . S
C3003 C3008 1.490 . S
C3004 H2994 0.930 . S
C3004 C3003 1.400 . S
C3004 C3007 1.386 . S
H3005 C3021 0.930 . S
H3006 C3022 0.931 . S
C3007 H2995 0.929 . S
C3007 C3001 1.390 . S
C3007 C3004 1.386 . S
C3008 C3003 1.490 . S
C3008 C3010 1.395 . S
C3008 C3011 1.403 . S
H3009 C3015 0.930 . S
C3010 H2996 0.930 . S
C3010 C3008 1.395 . S
C3010 C3013 1.403 . S
C3011 C3008 1.403 . S
C3011 C3012 1.524 . S
C3011 C3015 1.400 . S
C3012 H2997 0.960 . S
C3012 H2998 0.960 . S
C3012 H2999 0.960 . S
C3012 C3011 1.524 . S
C3013 C3010 1.403 . S
C3013 C3014 1.392 . S
C3013 C3017 1.495 . S
C3014 C3013 1.392 . S
C3014 C3015 1.385 . S
C3014 C3016 1.478 . S
C3015 H3009 0.930 . S
C3015 C3011 1.400 . S
C3015 C3014 1.385 . S
C3016 C3014 1.478 . S
C3016 C3018 1.381 . S
C3016 C3022 1.383 . S
C3017 C3013 1.495 . S
C3017 H3023 0.959 . S
C3017 H3024 0.961 . S
C3017 H3025 0.960 . S
C3018 C3016 1.381 . S
C3018 C3019 1.394 . S
C3018 H3026 0.930 . S
C3019 C3018 1.394 . S
C3019 C3020 1.383 . S
C3019 H3027 0.929 . S
C3020 C3019 1.383 . S
C3020 C3021 1.377 . S
C3021 H3005 0.930 . S
C3021 C3020 1.377 . S
C3021 C3022 1.379 . S
C3022 H3006 0.931 . S
C3022 C3016 1.383 . S
C3022 C3021 1.379 . S
H3023 C3017 0.959 . S
H3024 C3017 0.961 . S
H3025 C3017 0.960 . S
H3026 C3018 0.930 . S
H3027 C3019 0.929 . S
H3028 C3036 0.929 . S
H3029 C3038 0.930 . S
H3030 C3040 0.930 . S
H3031 C3043 0.929 . S
H3032 C3046 0.930 . S
H3033 C3048 0.960 . S
H3034 C3048 0.960 . S
H3035 C3048 0.960 . S
C3036 H3028 0.929 . S
C3036 C3037 1.377 1_556 S
C3036 C3038 1.384 . S
C3037 C3036 1.377 1_554 S
C3037 C3043 1.390 . S
C3038 H3029 0.930 . S
C3038 C3036 1.384 . S
C3038 C3039 1.372 . S
C3039 C3038 1.372 . S
C3039 C3040 1.400 . S
C3039 C3044 1.490 . S
C3040 H3030 0.930 . S
C3040 C3039 1.400 . S
C3040 C3043 1.386 1_556 S
H3041 C3057 0.930 . S
H3042 C3058 0.931 . S
C3043 H3031 0.929 . S
C3043 C3037 1.390 . S
C3043 C3040 1.386 1_554 S
C3044 C3039 1.490 . S
C3044 C3046 1.395 . S
C3044 C3047 1.403 . S
H3045 C3051 0.930 . S
C3046 H3032 0.930 . S
C3046 C3044 1.395 . S
C3046 C3049 1.403 . S
C3047 C3044 1.403 . S
C3047 C3048 1.524 . S
C3047 C3051 1.400 . S
C3048 H3033 0.960 . S
C3048 H3034 0.960 . S
C3048 H3035 0.960 . S
C3048 C3047 1.524 . S
C3049 C3046 1.403 . S
C3049 C3050 1.392 . S
C3049 C3053 1.495 . S
C3050 C3049 1.392 . S
C3050 C3051 1.385 . S
C3050 C3052 1.478 . S
C3051 H3045 0.930 . S
C3051 C3047 1.400 . S
C3051 C3050 1.385 . S
C3052 C3050 1.478 . S
C3052 C3054 1.381 . S
C3052 C3058 1.383 . S
C3053 C3049 1.495 . S
C3053 H3059 0.959 . S
C3053 H3060 0.961 . S
C3053 H3061 0.960 . S
C3054 C3052 1.381 . S
C3054 C3055 1.394 . S
C3054 H3062 0.930 . S
C3055 C3054 1.394 . S
C3055 C3056 1.383 . S
C3055 H3063 0.929 . S
C3056 C3055 1.383 . S
C3056 C3057 1.377 . S
C3057 H3041 0.930 . S
C3057 C3056 1.377 . S
C3057 C3058 1.379 . S
C3058 H3042 0.931 . S
C3058 C3052 1.383 . S
C3058 C3057 1.379 . S
H3059 C3053 0.959 . S
H3060 C3053 0.961 . S
H3061 C3053 0.960 . S
H3062 C3054 0.930 . S
H3063 C3055 0.929 . S
H3064 C3072 0.929 . S
H3065 C3074 0.930 . S
H3066 C3076 0.930 . S
H3067 C3079 0.929 . S
H3068 C3082 0.930 . S
H3069 C3084 0.960 . S
H3070 C3084 0.960 . S
H3071 C3084 0.960 . S
C3072 H3064 0.929 . S
C3072 C3073 1.377 . S
C3072 C3074 1.384 . S
C3073 C3072 1.377 . S
C3073 C3079 1.390 . S
C3074 H3065 0.930 . S
C3074 C3072 1.384 . S
C3074 C3075 1.372 . S
C3075 C3074 1.372 . S
C3075 C3076 1.400 . S
C3075 C3080 1.490 . S
C3076 H3066 0.930 . S
C3076 C3075 1.400 . S
C3076 C3079 1.386 . S
H3077 C3093 0.930 . S
H3078 C3094 0.931 . S
C3079 H3067 0.929 . S
C3079 C3073 1.390 . S
C3079 C3076 1.386 . S
C3080 C3075 1.490 . S
C3080 C3082 1.395 . S
C3080 C3083 1.403 . S
H3081 C3087 0.930 . S
C3082 H3068 0.930 . S
C3082 C3080 1.395 . S
C3082 C3085 1.403 . S
C3083 C3080 1.403 . S
C3083 C3084 1.524 . S
C3083 C3087 1.400 . S
C3084 H3069 0.960 . S
C3084 H3070 0.960 . S
C3084 H3071 0.960 . S
C3084 C3083 1.524 . S
C3085 C3082 1.403 . S
C3085 C3086 1.392 . S
C3085 C3089 1.495 . S
C3086 C3085 1.392 . S
C3086 C3087 1.385 . S
C3086 C3088 1.478 . S
C3087 H3081 0.930 . S
C3087 C3083 1.400 . S
C3087 C3086 1.385 . S
C3088 C3086 1.478 . S
C3088 C3090 1.381 . S
C3088 C3094 1.383 . S
C3089 C3085 1.495 . S
C3089 H3095 0.959 . S
C3089 H3096 0.961 . S
C3089 H3097 0.960 . S
C3090 C3088 1.381 . S
C3090 C3091 1.394 . S
C3090 H3098 0.930 . S
C3091 C3090 1.394 . S
C3091 C3092 1.383 . S
C3091 H3099 0.929 . S
C3092 C3091 1.383 . S
C3092 C3093 1.377 . S
C3093 H3077 0.930 . S
C3093 C3092 1.377 . S
C3093 C3094 1.379 . S
C3094 H3078 0.931 . S
C3094 C3088 1.383 . S
C3094 C3093 1.379 . S
H3095 C3089 0.959 . S
H3096 C3089 0.961 . S
H3097 C3089 0.960 . S
H3098 C3090 0.930 . S
H3099 C3091 0.929 . S
H3100 C3108 0.929 . S
H3101 C3110 0.930 . S
H3102 C3112 0.930 . S
H3103 C3115 0.929 . S
H3104 C3118 0.930 . S
H3105 C3120 0.960 . S
H3106 C3120 0.960 . S
H3107 C3120 0.960 . S
C3108 H3100 0.929 . S
C3108 C3109 1.377 . S
C3108 C3110 1.384 . S
C3109 C3108 1.377 . S
C3109 C3115 1.390 . S
C3110 H3101 0.930 . S
C3110 C3108 1.384 . S
C3110 C3111 1.372 . S
C3111 C3110 1.372 . S
C3111 C3112 1.400 . S
C3111 C3116 1.490 . S
C3112 H3102 0.930 . S
C3112 C3111 1.400 . S
C3112 C3115 1.386 . S
H3113 C3129 0.930 . S
H3114 C3130 0.931 . S
C3115 H3103 0.929 . S
C3115 C3109 1.390 . S
C3115 C3112 1.386 . S
C3116 C3111 1.490 . S
C3116 C3118 1.395 . S
C3116 C3119 1.403 . S
H3117 C3123 0.930 . S
C3118 H3104 0.930 . S
C3118 C3116 1.395 . S
C3118 C3121 1.403 . S
C3119 C3116 1.403 . S
C3119 C3120 1.524 . S
C3119 C3123 1.400 . S
C3120 H3105 0.960 . S
C3120 H3106 0.960 . S
C3120 H3107 0.960 . S
C3120 C3119 1.524 . S
C3121 C3118 1.403 . S
C3121 C3122 1.392 . S
C3121 C3125 1.495 . S
C3122 C3121 1.392 . S
C3122 C3123 1.385 . S
C3122 C3124 1.478 . S
C3123 H3117 0.930 . S
C3123 C3119 1.400 . S
C3123 C3122 1.385 . S
C3124 C3122 1.478 . S
C3124 C3126 1.381 . S
C3124 C3130 1.383 . S
C3125 C3121 1.495 . S
C3125 H3131 0.959 . S
C3125 H3132 0.961 . S
C3125 H3133 0.960 . S
C3126 C3124 1.381 . S
C3126 C3127 1.394 . S
C3126 H3134 0.930 . S
C3127 C3126 1.394 . S
C3127 C3128 1.383 . S
C3127 H3135 0.929 . S
C3128 C3127 1.383 . S
C3128 C3129 1.377 . S
C3129 H3113 0.930 . S
C3129 C3128 1.377 . S
C3129 C3130 1.379 . S
C3130 H3114 0.931 . S
C3130 C3124 1.383 . S
C3130 C3129 1.379 . S
H3131 C3125 0.959 . S
H3132 C3125 0.961 . S
H3133 C3125 0.960 . S
H3134 C3126 0.930 . S
H3135 C3127 0.929 . S
H3136 C3144 0.929 . S
H3137 C3146 0.930 . S
H3138 C3148 0.930 . S
H3139 C3151 0.929 . S
H3140 C3154 0.930 . S
H3141 C3156 0.960 . S
H3142 C3156 0.960 . S
H3143 C3156 0.960 . S
C3144 H3136 0.929 . S
C3144 C3145 1.377 . S
C3144 C3146 1.384 . S
C3145 C3144 1.377 . S
C3145 C3151 1.390 . S
C3146 H3137 0.930 . S
C3146 C3144 1.384 . S
C3146 C3147 1.372 . S
C3147 C3146 1.372 . S
C3147 C3148 1.400 . S
C3147 C3152 1.490 . S
C3148 H3138 0.930 . S
C3148 C3147 1.400 . S
C3148 C3151 1.386 . S
H3149 C3165 0.930 . S
H3150 C3166 0.931 . S
C3151 H3139 0.929 . S
C3151 C3145 1.390 . S
C3151 C3148 1.386 . S
C3152 C3147 1.490 . S
C3152 C3154 1.395 . S
C3152 C3155 1.403 . S
H3153 C3159 0.930 . S
C3154 H3140 0.930 . S
C3154 C3152 1.395 . S
C3154 C3157 1.403 . S
C3155 C3152 1.403 . S
C3155 C3156 1.524 . S
C3155 C3159 1.400 . S
C3156 H3141 0.960 . S
C3156 H3142 0.960 . S
C3156 H3143 0.960 . S
C3156 C3155 1.524 . S
C3157 C3154 1.403 . S
C3157 C3158 1.392 . S
C3157 C3161 1.495 . S
C3158 C3157 1.392 . S
C3158 C3159 1.385 . S
C3158 C3160 1.478 . S
C3159 H3153 0.930 . S
C3159 C3155 1.400 . S
C3159 C3158 1.385 . S
C3160 C3158 1.478 . S
C3160 C3162 1.381 . S
C3160 C3166 1.383 . S
C3161 C3157 1.495 . S
C3161 H3167 0.959 . S
C3161 H3168 0.961 . S
C3161 H3169 0.960 . S
C3162 C3160 1.381 . S
C3162 C3163 1.394 . S
C3162 H3170 0.930 . S
C3163 C3162 1.394 . S
C3163 C3164 1.383 . S
C3163 H3171 0.929 . S
C3164 C3163 1.383 . S
C3164 C3165 1.377 . S
C3165 H3149 0.930 . S
C3165 C3164 1.377 . S
C3165 C3166 1.379 . S
C3166 H3150 0.931 . S
C3166 C3160 1.383 . S
C3166 C3165 1.379 . S
H3167 C3161 0.959 . S
H3168 C3161 0.961 . S
H3169 C3161 0.960 . S
H3170 C3162 0.930 . S
H3171 C3163 0.929 . S
H3172 C3180 0.929 . S
H3173 C3182 0.930 . S
H3174 C3184 0.930 . S
H3175 C3187 0.929 . S
H3176 C3190 0.930 . S
H3177 C3192 0.960 . S
H3178 C3192 0.960 . S
H3179 C3192 0.960 . S
C3180 H3172 0.929 . S
C3180 C3181 1.377 . S
C3180 C3182 1.384 . S
C3181 C3180 1.377 . S
C3181 C3187 1.390 . S
C3182 H3173 0.930 . S
C3182 C3180 1.384 . S
C3182 C3183 1.372 . S
C3183 C3182 1.372 . S
C3183 C3184 1.400 . S
C3183 C3188 1.490 . S
C3184 H3174 0.930 . S
C3184 C3183 1.400 . S
C3184 C3187 1.386 . S
H3185 C3201 0.930 . S
H3186 C3202 0.931 . S
C3187 H3175 0.929 . S
C3187 C3181 1.390 . S
C3187 C3184 1.386 . S
C3188 C3183 1.490 . S
C3188 C3190 1.395 . S
C3188 C3191 1.403 . S
H3189 C3195 0.930 . S
C3190 H3176 0.930 . S
C3190 C3188 1.395 . S
C3190 C3193 1.403 . S
C3191 C3188 1.403 . S
C3191 C3192 1.524 . S
C3191 C3195 1.400 . S
C3192 H3177 0.960 . S
C3192 H3178 0.960 . S
C3192 H3179 0.960 . S
C3192 C3191 1.524 . S
C3193 C3190 1.403 . S
C3193 C3194 1.392 . S
C3193 C3197 1.495 . S
C3194 C3193 1.392 . S
C3194 C3195 1.385 . S
C3194 C3196 1.478 . S
C3195 H3189 0.930 . S
C3195 C3191 1.400 . S
C3195 C3194 1.385 . S
C3196 C3194 1.478 . S
C3196 C3198 1.381 . S
C3196 C3202 1.383 . S
C3197 C3193 1.495 . S
C3197 H3203 0.959 . S
C3197 H3204 0.961 . S
C3197 H3205 0.960 . S
C3198 C3196 1.381 . S
C3198 C3199 1.394 . S
C3198 H3206 0.930 . S
C3199 C3198 1.394 . S
C3199 C3200 1.383 . S
C3199 H3207 0.929 . S
C3200 C3199 1.383 . S
C3200 C3201 1.377 . S
C3201 H3185 0.930 . S
C3201 C3200 1.377 . S
C3201 C3202 1.379 . S
C3202 H3186 0.931 . S
C3202 C3196 1.383 . S
C3202 C3201 1.379 . S
H3203 C3197 0.959 . S
H3204 C3197 0.961 . S
H3205 C3197 0.960 . S
H3206 C3198 0.930 . S
H3207 C3199 0.929 . S
H3208 C3216 0.929 . S
H3209 C3218 0.930 . S
H3210 C3220 0.930 . S
H3211 C3223 0.929 . S
H3212 C3226 0.930 . S
H3213 C3228 0.960 . S
H3214 C3228 0.960 . S
H3215 C3228 0.960 . S
C3216 H3208 0.929 . S
C3216 C3217 1.377 . S
C3216 C3218 1.384 . S
C3217 C3216 1.377 . S
C3217 C3223 1.390 . S
C3218 H3209 0.930 . S
C3218 C3216 1.384 . S
C3218 C3219 1.372 . S
C3219 C3218 1.372 . S
C3219 C3220 1.400 . S
C3219 C3224 1.490 . S
C3220 H3210 0.930 . S
C3220 C3219 1.400 . S
C3220 C3223 1.386 . S
H3221 C3237 0.930 . S
H3222 C3238 0.931 . S
C3223 H3211 0.929 . S
C3223 C3217 1.390 . S
C3223 C3220 1.386 . S
C3224 C3219 1.490 . S
C3224 C3226 1.395 . S
C3224 C3227 1.403 . S
H3225 C3231 0.930 . S
C3226 H3212 0.930 . S
C3226 C3224 1.395 . S
C3226 C3229 1.403 . S
C3227 C3224 1.403 . S
C3227 C3228 1.524 . S
C3227 C3231 1.400 . S
C3228 H3213 0.960 . S
C3228 H3214 0.960 . S
C3228 H3215 0.960 . S
C3228 C3227 1.524 . S
C3229 C3226 1.403 . S
C3229 C3230 1.392 . S
C3229 C3233 1.495 . S
C3230 C3229 1.392 . S
C3230 C3231 1.385 . S
C3230 C3232 1.478 . S
C3231 H3225 0.930 . S
C3231 C3227 1.400 . S
C3231 C3230 1.385 . S
C3232 C3230 1.478 . S
C3232 C3234 1.381 . S
C3232 C3238 1.383 . S
C3233 C3229 1.495 . S
C3233 H3239 0.959 . S
C3233 H3240 0.961 . S
C3233 H3241 0.960 . S
C3234 C3232 1.381 . S
C3234 C3235 1.394 . S
C3234 H3242 0.930 . S
C3235 C3234 1.394 . S
C3235 C3236 1.383 . S
C3235 H3243 0.929 . S
C3236 C3235 1.383 . S
C3236 C3237 1.377 . S
C3237 H3221 0.930 . S
C3237 C3236 1.377 . S
C3237 C3238 1.379 . S
C3238 H3222 0.931 . S
C3238 C3232 1.383 . S
C3238 C3237 1.379 . S
H3239 C3233 0.959 . S
H3240 C3233 0.961 . S
H3241 C3233 0.960 . S
H3242 C3234 0.930 . S
H3243 C3235 0.929 . S
H3244 C3252 0.929 . S
H3245 C3254 0.930 . S
H3246 C3256 0.930 . S
H3247 C3259 0.929 . S
H3248 C3262 0.930 . S
H3249 C3264 0.960 . S
H3250 C3264 0.960 . S
H3251 C3264 0.960 . S
C3252 H3244 0.929 . S
C3252 C3253 1.377 . S
C3252 C3254 1.384 . S
C3253 C3252 1.377 . S
C3253 C3259 1.390 . S
C3254 H3245 0.930 . S
C3254 C3252 1.384 . S
C3254 C3255 1.372 . S
C3255 C3254 1.372 . S
C3255 C3256 1.400 . S
C3255 C3260 1.490 . S
C3256 H3246 0.930 . S
C3256 C3255 1.400 . S
C3256 C3259 1.386 . S
H3257 C3273 0.930 . S
H3258 C3274 0.931 . S
C3259 H3247 0.929 . S
C3259 C3253 1.390 . S
C3259 C3256 1.386 . S
C3260 C3255 1.490 . S
C3260 C3262 1.395 . S
C3260 C3263 1.403 . S
H3261 C3267 0.930 . S
C3262 H3248 0.930 . S
C3262 C3260 1.395 . S
C3262 C3265 1.403 . S
C3263 C3260 1.403 . S
C3263 C3264 1.524 . S
C3263 C3267 1.400 . S
C3264 H3249 0.960 . S
C3264 H3250 0.960 . S
C3264 H3251 0.960 . S
C3264 C3263 1.524 . S
C3265 C3262 1.403 . S
C3265 C3266 1.392 . S
C3265 C3269 1.495 . S
C3266 C3265 1.392 . S
C3266 C3267 1.385 . S
C3266 C3268 1.478 . S
C3267 H3261 0.930 . S
C3267 C3263 1.400 . S
C3267 C3266 1.385 . S
C3268 C3266 1.478 . S
C3268 C3270 1.381 . S
C3268 C3274 1.383 . S
C3269 C3265 1.495 . S
C3269 H3275 0.959 . S
C3269 H3276 0.961 . S
C3269 H3277 0.960 . S
C3270 C3268 1.381 . S
C3270 C3271 1.394 . S
C3270 H3278 0.930 . S
C3271 C3270 1.394 . S
C3271 C3272 1.383 . S
C3271 H3279 0.929 . S
C3272 C3271 1.383 . S
C3272 C3273 1.377 . S
C3273 H3257 0.930 . S
C3273 C3272 1.377 . S
C3273 C3274 1.379 . S
C3274 H3258 0.931 . S
C3274 C3268 1.383 . S
C3274 C3273 1.379 . S
H3275 C3269 0.959 . S
H3276 C3269 0.961 . S
H3277 C3269 0.960 . S
H3278 C3270 0.930 . S
H3279 C3271 0.929 . S
H3280 C3288 0.929 . S
H3281 C3290 0.930 . S
H3282 C3292 0.930 . S
H3283 C3295 0.929 . S
H3284 C3298 0.930 . S
H3285 C3300 0.960 . S
H3286 C3300 0.960 . S
H3287 C3300 0.960 . S
C3288 H3280 0.929 . S
C3288 C3289 1.377 . S
C3288 C3290 1.384 . S
C3289 C3288 1.377 . S
C3289 C3295 1.390 . S
C3290 H3281 0.930 . S
C3290 C3288 1.384 . S
C3290 C3291 1.372 . S
C3291 C3290 1.372 . S
C3291 C3292 1.400 . S
C3291 C3296 1.490 . S
C3292 H3282 0.930 . S
C3292 C3291 1.400 . S
C3292 C3295 1.386 . S
H3293 C3309 0.930 . S
H3294 C3310 0.931 . S
C3295 H3283 0.929 . S
C3295 C3289 1.390 . S
C3295 C3292 1.386 . S
C3296 C3291 1.490 . S
C3296 C3298 1.395 . S
C3296 C3299 1.403 . S
H3297 C3303 0.930 . S
C3298 H3284 0.930 . S
C3298 C3296 1.395 . S
C3298 C3301 1.403 . S
C3299 C3296 1.403 . S
C3299 C3300 1.524 . S
C3299 C3303 1.400 . S
C3300 H3285 0.960 . S
C3300 H3286 0.960 . S
C3300 H3287 0.960 . S
C3300 C3299 1.524 . S
C3301 C3298 1.403 . S
C3301 C3302 1.392 . S
C3301 C3305 1.495 . S
C3302 C3301 1.392 . S
C3302 C3303 1.385 . S
C3302 C3304 1.478 . S
C3303 H3297 0.930 . S
C3303 C3299 1.400 . S
C3303 C3302 1.385 . S
C3304 C3302 1.478 . S
C3304 C3306 1.381 . S
C3304 C3310 1.383 . S
C3305 C3301 1.495 . S
C3305 H3311 0.959 . S
C3305 H3312 0.961 . S
C3305 H3313 0.960 . S
C3306 C3304 1.381 . S
C3306 C3307 1.394 . S
C3306 H3314 0.930 . S
C3307 C3306 1.394 . S
C3307 C3308 1.383 . S
C3307 H3315 0.929 . S
C3308 C3307 1.383 . S
C3308 C3309 1.377 . S
C3309 H3293 0.930 . S
C3309 C3308 1.377 . S
C3309 C3310 1.379 . S
C3310 H3294 0.931 . S
C3310 C3304 1.383 . S
C3310 C3309 1.379 . S
H3311 C3305 0.959 . S
H3312 C3305 0.961 . S
H3313 C3305 0.960 . S
H3314 C3306 0.930 . S
H3315 C3307 0.929 . S
H3316 C3324 0.929 . S
H3317 C3326 0.930 . S
H3318 C3328 0.930 . S
H3319 C3331 0.929 . S
H3320 C3334 0.930 . S
H3321 C3336 0.960 . S
H3322 C3336 0.960 . S
H3323 C3336 0.960 . S
C3324 H3316 0.929 . S
C3324 C3325 1.377 . S
C3324 C3326 1.384 . S
C3325 C3324 1.377 . S
C3325 C3331 1.390 . S
C3326 H3317 0.930 . S
C3326 C3324 1.384 . S
C3326 C3327 1.372 . S
C3327 C3326 1.372 . S
C3327 C3328 1.400 . S
C3327 C3332 1.490 . S
C3328 H3318 0.930 . S
C3328 C3327 1.400 . S
C3328 C3331 1.386 . S
H3329 C3345 0.930 . S
H3330 C3346 0.931 . S
C3331 H3319 0.929 . S
C3331 C3325 1.390 . S
C3331 C3328 1.386 . S
C3332 C3327 1.490 . S
C3332 C3334 1.395 . S
C3332 C3335 1.403 . S
H3333 C3339 0.930 . S
C3334 H3320 0.930 . S
C3334 C3332 1.395 . S
C3334 C3337 1.403 . S
C3335 C3332 1.403 . S
C3335 C3336 1.524 . S
C3335 C3339 1.400 . S
C3336 H3321 0.960 . S
C3336 H3322 0.960 . S
C3336 H3323 0.960 . S
C3336 C3335 1.524 . S
C3337 C3334 1.403 . S
C3337 C3338 1.392 . S
C3337 C3341 1.495 . S
C3338 C3337 1.392 . S
C3338 C3339 1.385 . S
C3338 C3340 1.478 . S
C3339 H3333 0.930 . S
C3339 C3335 1.400 . S
C3339 C3338 1.385 . S
C3340 C3338 1.478 . S
C3340 C3342 1.381 . S
C3340 C3346 1.383 . S
C3341 C3337 1.495 . S
C3341 H3347 0.959 . S
C3341 H3348 0.961 . S
C3341 H3349 0.960 . S
C3342 C3340 1.381 . S
C3342 C3343 1.394 . S
C3342 H3350 0.930 . S
C3343 C3342 1.394 . S
C3343 C3344 1.383 . S
C3343 H3351 0.929 . S
C3344 C3343 1.383 . S
C3344 C3345 1.377 . S
C3345 H3329 0.930 . S
C3345 C3344 1.377 . S
C3345 C3346 1.379 . S
C3346 H3330 0.931 . S
C3346 C3340 1.383 . S
C3346 C3345 1.379 . S
H3347 C3341 0.959 . S
H3348 C3341 0.961 . S
H3349 C3341 0.960 . S
H3350 C3342 0.930 . S
H3351 C3343 0.929 . S
H3352 C3360 0.929 . S
H3353 C3362 0.930 . S
H3354 C3364 0.930 . S
H3355 C3367 0.929 . S
H3356 C3370 0.930 . S
H3357 C3372 0.960 . S
H3358 C3372 0.960 . S
H3359 C3372 0.960 . S
C3360 H3352 0.929 . S
C3360 C3361 1.377 . S
C3360 C3362 1.384 . S
C3361 C3360 1.377 . S
C3361 C3367 1.390 . S
C3362 H3353 0.930 . S
C3362 C3360 1.384 . S
C3362 C3363 1.372 . S
C3363 C3362 1.372 . S
C3363 C3364 1.400 . S
C3363 C3368 1.490 . S
C3364 H3354 0.930 . S
C3364 C3363 1.400 . S
C3364 C3367 1.386 . S
H3365 C3381 0.930 . S
H3366 C3382 0.931 . S
C3367 H3355 0.929 . S
C3367 C3361 1.390 . S
C3367 C3364 1.386 . S
C3368 C3363 1.490 . S
C3368 C3370 1.395 . S
C3368 C3371 1.403 . S
H3369 C3375 0.930 . S
C3370 H3356 0.930 . S
C3370 C3368 1.395 . S
C3370 C3373 1.403 . S
C3371 C3368 1.403 . S
C3371 C3372 1.524 . S
C3371 C3375 1.400 . S
C3372 H3357 0.960 . S
C3372 H3358 0.960 . S
C3372 H3359 0.960 . S
C3372 C3371 1.524 . S
C3373 C3370 1.403 . S
C3373 C3374 1.392 . S
C3373 C3377 1.495 . S
C3374 C3373 1.392 . S
C3374 C3375 1.385 . S
C3374 C3376 1.478 . S
C3375 H3369 0.930 . S
C3375 C3371 1.400 . S
C3375 C3374 1.385 . S
C3376 C3374 1.478 . S
C3376 C3378 1.381 . S
C3376 C3382 1.383 . S
C3377 C3373 1.495 . S
C3377 H3383 0.959 . S
C3377 H3384 0.961 . S
C3377 H3385 0.960 . S
C3378 C3376 1.381 . S
C3378 C3379 1.394 . S
C3378 H3386 0.930 . S
C3379 C3378 1.394 . S
C3379 C3380 1.383 . S
C3379 H3387 0.929 . S
C3380 C3379 1.383 . S
C3380 C3381 1.377 . S
C3381 H3365 0.930 . S
C3381 C3380 1.377 . S
C3381 C3382 1.379 . S
C3382 H3366 0.931 . S
C3382 C3376 1.383 . S
C3382 C3381 1.379 . S
H3383 C3377 0.959 . S
H3384 C3377 0.961 . S
H3385 C3377 0.960 . S
H3386 C3378 0.930 . S
H3387 C3379 0.929 . S
H3388 C3396 0.929 . S
H3389 C3398 0.930 . S
H3390 C3400 0.930 . S
H3391 C3403 0.929 . S
H3392 C3406 0.930 . S
H3393 C3408 0.960 . S
H3394 C3408 0.960 . S
H3395 C3408 0.960 . S
C3396 H3388 0.929 . S
C3396 C3397 1.377 . S
C3396 C3398 1.384 . S
C3397 C3396 1.377 . S
C3397 C3403 1.390 1_554 S
C3398 H3389 0.930 . S
C3398 C3396 1.384 . S
C3398 C3399 1.372 . S
C3399 C3398 1.372 . S
C3399 C3400 1.400 1_554 S
C3399 C3404 1.490 . S
C3400 H3390 0.930 . S
C3400 C3399 1.400 1_556 S
C3400 C3403 1.386 . S
H3401 C3417 0.976 . S
H3402 C3418 0.931 . S
C3403 H3391 0.929 . S
C3403 C3397 1.390 1_556 S
C3403 C3400 1.386 . S
C3404 C3399 1.490 . S
C3404 C3406 1.395 . S
C3404 C3407 1.403 . S
H3405 C3411 0.930 . S
C3406 H3392 0.930 . S
C3406 C3404 1.395 . S
C3406 C3409 1.403 . S
C3407 C3404 1.403 . S
C3407 C3408 1.524 . S
C3407 C3411 1.400 . S
C3408 H3393 0.960 . S
C3408 H3394 0.960 . S
C3408 H3395 0.960 . S
C3408 C3407 1.524 . S
C3409 C3406 1.403 . S
C3409 C3410 1.392 . S
C3409 C3413 1.495 . S
C3410 C3409 1.392 . S
C3410 C3411 1.385 . S
C3410 C3412 1.478 . S
C3411 H3405 0.930 . S
C3411 C3407 1.400 . S
C3411 C3410 1.385 . S
C3412 C3410 1.478 . S
C3412 C3414 1.381 . S
C3412 C3418 1.383 1_554 S
C3413 C3409 1.495 . S
C3413 H3419 0.959 . S
C3413 H3420 0.961 1_554 S
C3413 H3421 0.960 . S
C3414 C3412 1.381 . S
C3414 C3415 1.394 . S
C3414 H3422 0.930 . S
C3415 C3414 1.394 . S
C3415 C3416 1.383 . S
C3415 H3423 0.929 . S
C3416 C3415 1.383 . S
C3416 C3417 1.340 1_554 S
C3417 H3401 0.976 . S
C3417 C3416 1.340 1_556 S
C3417 C3418 1.373 . S
C3418 H3402 0.931 . S
C3418 C3412 1.383 1_556 S
C3418 C3417 1.373 . S
H3419 C3413 0.959 . S
H3420 C3413 0.961 1_556 S
H3421 C3413 0.960 . S
H3422 C3414 0.930 . S
H3423 C3415 0.929 . S
H3424 C3432 0.929 . S
H3425 C3434 0.930 . S
H3426 C3436 0.930 . S
H3427 C3439 0.929 . S
H3428 C3442 0.930 . S
H3429 C3444 0.960 . S
H3430 C3444 0.960 . S
H3431 C3444 0.960 . S
C3432 H3424 0.929 . S
C3432 C3433 1.377 . S
C3432 C3434 1.384 . S
C3433 C3432 1.377 . S
C3433 C3439 1.390 . S
C3434 H3425 0.930 . S
C3434 C3432 1.384 . S
C3434 C3435 1.372 . S
C3435 C3434 1.372 . S
C3435 C3436 1.400 . S
C3435 C3440 1.490 . S
C3436 H3426 0.930 . S
C3436 C3435 1.400 . S
C3436 C3439 1.386 . S
H3437 C3453 0.930 . S
H3438 C3454 0.931 . S
C3439 H3427 0.929 . S
C3439 C3433 1.390 . S
C3439 C3436 1.386 . S
C3440 C3435 1.490 . S
C3440 C3442 1.395 . S
C3440 C3443 1.403 . S
H3441 C3447 0.930 . S
C3442 H3428 0.930 . S
C3442 C3440 1.395 . S
C3442 C3445 1.403 . S
C3443 C3440 1.403 . S
C3443 C3444 1.524 . S
C3443 C3447 1.400 . S
C3444 H3429 0.960 . S
C3444 H3430 0.960 . S
C3444 H3431 0.960 . S
C3444 C3443 1.524 . S
C3445 C3442 1.403 . S
C3445 C3446 1.392 . S
C3445 C3449 1.495 . S
C3446 C3445 1.392 . S
C3446 C3447 1.385 . S
C3446 C3448 1.478 . S
C3447 H3441 0.930 . S
C3447 C3443 1.400 . S
C3447 C3446 1.385 . S
C3448 C3446 1.478 . S
C3448 C3450 1.381 . S
C3448 C3454 1.383 . S
C3449 C3445 1.495 . S
C3449 H3455 0.959 . S
C3449 H3456 0.961 . S
C3449 H3457 0.960 . S
C3450 C3448 1.381 . S
C3450 C3451 1.394 . S
C3450 H3458 0.930 . S
C3451 C3450 1.394 . S
C3451 C3452 1.383 . S
C3451 H3459 0.929 . S
C3452 C3451 1.383 . S
C3452 C3453 1.377 . S
C3453 H3437 0.930 . S
C3453 C3452 1.377 . S
C3453 C3454 1.379 . S
C3454 H3438 0.931 . S
C3454 C3448 1.383 . S
C3454 C3453 1.379 . S
H3455 C3449 0.959 . S
H3456 C3449 0.961 . S
H3457 C3449 0.960 . S
H3458 C3450 0.930 . S
H3459 C3451 0.929 . S
H3460 C3468 0.929 . S
H3461 C3470 0.930 . S
H3462 C3472 0.930 . S
H3463 C3475 0.929 . S
H3464 C3478 0.930 . S
H3465 C3480 0.960 . S
H3466 C3480 0.960 . S
H3467 C3480 0.960 . S
C3468 H3460 0.929 . S
C3468 C3469 1.377 . S
C3468 C3470 1.384 . S
C3469 C3468 1.377 . S
C3469 C3475 1.390 . S
C3470 H3461 0.930 . S
C3470 C3468 1.384 . S
C3470 C3471 1.372 . S
C3471 C3470 1.372 . S
C3471 C3472 1.400 . S
C3471 C3476 1.490 . S
C3472 H3462 0.930 . S
C3472 C3471 1.400 . S
C3472 C3475 1.386 . S
H3473 C3489 0.930 . S
H3474 C3490 0.931 . S
C3475 H3463 0.929 . S
C3475 C3469 1.390 . S
C3475 C3472 1.386 . S
C3476 C3471 1.490 . S
C3476 C3478 1.395 . S
C3476 C3479 1.403 . S
H3477 C3483 0.930 . S
C3478 H3464 0.930 . S
C3478 C3476 1.395 . S
C3478 C3481 1.403 . S
C3479 C3476 1.403 . S
C3479 C3480 1.524 . S
C3479 C3483 1.400 . S
C3480 H3465 0.960 . S
C3480 H3466 0.960 . S
C3480 H3467 0.960 . S
C3480 C3479 1.524 . S
C3481 C3478 1.403 . S
C3481 C3482 1.392 . S
C3481 C3485 1.495 . S
C3482 C3481 1.392 . S
C3482 C3483 1.385 . S
C3482 C3484 1.478 . S
C3483 H3477 0.930 . S
C3483 C3479 1.400 . S
C3483 C3482 1.385 . S
C3484 C3482 1.478 . S
C3484 C3486 1.381 . S
C3484 C3490 1.383 . S
C3485 C3481 1.495 . S
C3485 H3491 0.959 . S
C3485 H3492 0.961 . S
C3485 H3493 0.960 . S
C3486 C3484 1.381 . S
C3486 C3487 1.394 . S
C3486 H3494 0.930 . S
C3487 C3486 1.394 . S
C3487 C3488 1.383 . S
C3487 H3495 0.929 . S
C3488 C3487 1.383 . S
C3488 C3489 1.377 . S
C3489 H3473 0.930 . S
C3489 C3488 1.377 . S
C3489 C3490 1.379 . S
C3490 H3474 0.931 . S
C3490 C3484 1.383 . S
C3490 C3489 1.379 . S
H3491 C3485 0.959 . S
H3492 C3485 0.961 . S
H3493 C3485 0.960 . S
H3494 C3486 0.930 . S
H3495 C3487 0.929 . S
H3496 C3504 0.929 . S
H3497 C3506 0.930 . S
H3498 C3508 0.930 . S
H3499 C3511 0.929 . S
H3500 C3514 0.930 . S
H3501 C3516 0.960 . S
H3502 C3516 0.960 . S
H3503 C3516 0.960 . S
C3504 H3496 0.929 . S
C3504 C3505 1.377 . S
C3504 C3506 1.384 . S
C3505 C3504 1.377 . S
C3505 C3511 1.390 . S
C3506 H3497 0.930 . S
C3506 C3504 1.384 . S
C3506 C3507 1.372 . S
C3507 C3506 1.372 . S
C3507 C3508 1.400 . S
C3507 C3512 1.490 . S
C3508 H3498 0.930 . S
C3508 C3507 1.400 . S
C3508 C3511 1.386 . S
H3509 C3525 0.930 . S
H3510 C3526 0.931 . S
C3511 H3499 0.929 . S
C3511 C3505 1.390 . S
C3511 C3508 1.386 . S
C3512 C3507 1.490 . S
C3512 C3514 1.395 . S
C3512 C3515 1.403 . S
H3513 C3519 0.930 . S
C3514 H3500 0.930 . S
C3514 C3512 1.395 . S
C3514 C3517 1.403 . S
C3515 C3512 1.403 . S
C3515 C3516 1.524 . S
C3515 C3519 1.400 . S
C3516 H3501 0.960 . S
C3516 H3502 0.960 . S
C3516 H3503 0.960 . S
C3516 C3515 1.524 . S
C3517 C3514 1.403 . S
C3517 C3518 1.392 . S
C3517 C3521 1.495 . S
C3518 C3517 1.392 . S
C3518 C3519 1.385 . S
C3518 C3520 1.478 . S
C3519 H3513 0.930 . S
C3519 C3515 1.400 . S
C3519 C3518 1.385 . S
C3520 C3518 1.478 . S
C3520 C3522 1.381 . S
C3520 C3526 1.383 . S
C3521 C3517 1.495 . S
C3521 H3527 0.959 . S
C3521 H3528 0.961 . S
C3521 H3529 0.960 . S
C3522 C3520 1.381 . S
C3522 C3523 1.394 . S
C3522 H3530 0.930 . S
C3523 C3522 1.394 . S
C3523 C3524 1.383 . S
C3523 H3531 0.929 . S
C3524 C3523 1.383 . S
C3524 C3525 1.377 . S
C3525 H3509 0.930 . S
C3525 C3524 1.377 . S
C3525 C3526 1.379 . S
C3526 H3510 0.931 . S
C3526 C3520 1.383 . S
C3526 C3525 1.379 . S
H3527 C3521 0.959 . S
H3528 C3521 0.961 . S
H3529 C3521 0.960 . S
H3530 C3522 0.930 . S
H3531 C3523 0.929 . S
H3532 C3540 0.929 . S
H3533 C3542 0.930 . S
H3534 C3544 0.930 . S
H3535 C3547 0.929 . S
H3536 C3550 0.930 . S
H3537 C3552 0.960 . S
H3538 C3552 0.960 . S
H3539 C3552 0.960 . S
C3540 H3532 0.929 . S
C3540 C3541 1.377 . S
C3540 C3542 1.384 . S
C3541 C3540 1.377 . S
C3541 C3547 1.390 . S
C3542 H3533 0.930 . S
C3542 C3540 1.384 . S
C3542 C3543 1.372 . S
C3543 C3542 1.372 . S
C3543 C3544 1.400 . S
C3543 C3548 1.490 . S
C3544 H3534 0.930 . S
C3544 C3543 1.400 . S
C3544 C3547 1.386 . S
H3545 C3561 0.930 . S
H3546 C3562 0.931 . S
C3547 H3535 0.929 . S
C3547 C3541 1.390 . S
C3547 C3544 1.386 . S
C3548 C3543 1.490 . S
C3548 C3550 1.395 . S
C3548 C3551 1.403 . S
H3549 C3555 0.930 . S
C3550 H3536 0.930 . S
C3550 C3548 1.395 . S
C3550 C3553 1.403 . S
C3551 C3548 1.403 . S
C3551 C3552 1.524 . S
C3551 C3555 1.400 . S
C3552 H3537 0.960 . S
C3552 H3538 0.960 . S
C3552 H3539 0.960 . S
C3552 C3551 1.524 . S
C3553 C3550 1.403 . S
C3553 C3554 1.392 . S
C3553 C3557 1.495 . S
C3554 C3553 1.392 . S
C3554 C3555 1.385 . S
C3554 C3556 1.478 . S
C3555 H3549 0.930 . S
C3555 C3551 1.400 . S
C3555 C3554 1.385 . S
C3556 C3554 1.478 . S
C3556 C3558 1.381 . S
C3556 C3562 1.383 . S
C3557 C3553 1.495 . S
C3557 H3563 0.959 . S
C3557 H3564 0.961 . S
C3557 H3565 0.960 . S
C3558 C3556 1.381 . S
C3558 C3559 1.394 . S
C3558 H3566 0.930 . S
C3559 C3558 1.394 . S
C3559 C3560 1.383 . S
C3559 H3567 0.929 . S
C3560 C3559 1.383 . S
C3560 C3561 1.377 . S
C3561 H3545 0.930 . S
C3561 C3560 1.377 . S
C3561 C3562 1.379 . S
C3562 H3546 0.931 . S
C3562 C3556 1.383 . S
C3562 C3561 1.379 . S
H3563 C3557 0.959 . S
H3564 C3557 0.961 . S
H3565 C3557 0.960 . S
H3566 C3558 0.930 . S
H3567 C3559 0.929 . S
H3568 C3576 0.929 . S
H3569 C3578 0.930 . S
H3570 C3580 0.930 . S
H3571 C3583 0.929 . S
H3572 C3586 0.930 . S
H3573 C3588 0.960 . S
H3574 C3588 0.960 . S
H3575 C3588 0.960 . S
C3576 H3568 0.929 . S
C3576 C3577 1.377 . S
C3576 C3578 1.384 . S
C3577 C3576 1.377 . S
C3577 C3583 1.390 . S
C3578 H3569 0.930 . S
C3578 C3576 1.384 . S
C3578 C3579 1.372 . S
C3579 C3578 1.372 . S
C3579 C3580 1.400 . S
C3579 C3584 1.490 . S
C3580 H3570 0.930 . S
C3580 C3579 1.400 . S
C3580 C3583 1.386 . S
H3581 C3597 0.930 . S
H3582 C3598 0.931 . S
C3583 H3571 0.929 . S
C3583 C3577 1.390 . S
C3583 C3580 1.386 . S
C3584 C3579 1.490 . S
C3584 C3586 1.395 . S
C3584 C3587 1.403 . S
H3585 C3591 0.930 . S
C3586 H3572 0.930 . S
C3586 C3584 1.395 . S
C3586 C3589 1.403 . S
C3587 C3584 1.403 . S
C3587 C3588 1.524 . S
C3587 C3591 1.400 . S
C3588 H3573 0.960 . S
C3588 H3574 0.960 . S
C3588 H3575 0.960 . S
C3588 C3587 1.524 . S
C3589 C3586 1.403 . S
C3589 C3590 1.392 . S
C3589 C3593 1.495 . S
C3590 C3589 1.392 . S
C3590 C3591 1.385 . S
C3590 C3592 1.478 . S
C3591 H3585 0.930 . S
C3591 C3587 1.400 . S
C3591 C3590 1.385 . S
C3592 C3590 1.478 . S
C3592 C3594 1.381 . S
C3592 C3598 1.383 . S
C3593 C3589 1.495 . S
C3593 H3599 0.959 . S
C3593 H3600 0.961 . S
C3593 H3601 0.960 . S
C3594 C3592 1.381 . S
C3594 C3595 1.394 . S
C3594 H3602 0.930 . S
C3595 C3594 1.394 . S
C3595 C3596 1.383 . S
C3595 H3603 0.929 . S
C3596 C3595 1.383 . S
C3596 C3597 1.377 . S
C3597 H3581 0.930 . S
C3597 C3596 1.377 . S
C3597 C3598 1.379 . S
C3598 H3582 0.931 . S
C3598 C3592 1.383 . S
C3598 C3597 1.379 . S
H3599 C3593 0.959 . S
H3600 C3593 0.961 . S
H3601 C3593 0.960 . S
H3602 C3594 0.930 . S
H3603 C3595 0.929 . S
H3604 C3612 0.929 . S
H3605 C3614 0.930 . S
H3606 C3616 0.930 . S
H3607 C3619 0.929 . S
H3608 C3622 0.930 . S
H3609 C3624 0.960 . S
H3610 C3624 0.960 . S
H3611 C3624 0.960 . S
C3612 H3604 0.929 . S
C3612 C3613 1.377 . S
C3612 C3614 1.384 . S
C3613 C3612 1.377 . S
C3613 C3619 1.390 . S
C3614 H3605 0.930 . S
C3614 C3612 1.384 . S
C3614 C3615 1.372 . S
C3615 C3614 1.372 . S
C3615 C3616 1.400 . S
C3615 C3620 1.490 . S
C3616 H3606 0.930 . S
C3616 C3615 1.400 . S
C3616 C3619 1.386 . S
H3617 C3633 0.930 . S
H3618 C3634 0.931 . S
C3619 H3607 0.929 . S
C3619 C3613 1.390 . S
C3619 C3616 1.386 . S
C3620 C3615 1.490 . S
C3620 C3622 1.395 . S
C3620 C3623 1.403 . S
H3621 C3627 0.930 . S
C3622 H3608 0.930 . S
C3622 C3620 1.395 . S
C3622 C3625 1.403 . S
C3623 C3620 1.403 . S
C3623 C3624 1.524 . S
C3623 C3627 1.400 . S
C3624 H3609 0.960 . S
C3624 H3610 0.960 . S
C3624 H3611 0.960 . S
C3624 C3623 1.524 . S
C3625 C3622 1.403 . S
C3625 C3626 1.392 . S
C3625 C3629 1.495 . S
C3626 C3625 1.392 . S
C3626 C3627 1.385 . S
C3626 C3628 1.478 . S
C3627 H3621 0.930 . S
C3627 C3623 1.400 . S
C3627 C3626 1.385 . S
C3628 C3626 1.478 . S
C3628 C3630 1.381 . S
C3628 C3634 1.383 . S
C3629 C3625 1.495 . S
C3629 H3635 0.959 . S
C3629 H3636 0.961 . S
C3629 H3637 0.960 . S
C3630 C3628 1.381 . S
C3630 C3631 1.394 . S
C3630 H3638 0.930 . S
C3631 C3630 1.394 . S
C3631 C3632 1.383 . S
C3631 H3639 0.929 . S
C3632 C3631 1.383 . S
C3632 C3633 1.377 . S
C3633 H3617 0.930 . S
C3633 C3632 1.377 . S
C3633 C3634 1.379 . S
C3634 H3618 0.931 . S
C3634 C3628 1.383 . S
C3634 C3633 1.379 . S
H3635 C3629 0.959 . S
H3636 C3629 0.961 . S
H3637 C3629 0.960 . S
H3638 C3630 0.930 . S
H3639 C3631 0.929 . S
H3640 C3648 0.929 . S
H3641 C3650 0.930 . S
H3642 C3652 0.930 . S
H3643 C3655 0.929 . S
H3644 C3658 0.930 . S
H3645 C3660 0.960 1_655 S
H3646 C3660 0.960 . S
H3647 C3660 0.960 . S
C3648 H3640 0.929 . S
C3648 C3649 1.377 . S
C3648 C3650 1.384 . S
C3649 C3648 1.377 . S
C3649 C3655 1.390 . S
C3650 H3641 0.930 . S
C3650 C3648 1.384 . S
C3650 C3651 1.372 . S
C3651 C3650 1.372 . S
C3651 C3652 1.400 . S
C3651 C3656 1.490 . S
C3652 H3642 0.930 . S
C3652 C3651 1.400 . S
C3652 C3655 1.386 . S
H3653 C3669 0.930 . S
H3654 C3670 0.931 . S
C3655 H3643 0.929 . S
C3655 C3649 1.390 . S
C3655 C3652 1.386 . S
C3656 C3651 1.490 . S
C3656 C3658 1.395 . S
C3656 C3659 1.403 . S
H3657 C3663 0.930 . S
C3658 H3644 0.930 . S
C3658 C3656 1.395 . S
C3658 C3661 1.403 . S
C3659 C3656 1.403 . S
C3659 C3660 1.524 . S
C3659 C3663 1.400 . S
C3660 H3645 0.960 1_455 S
C3660 H3646 0.960 . S
C3660 H3647 0.960 . S
C3660 C3659 1.524 . S
C3661 C3658 1.403 . S
C3661 C3662 1.392 . S
C3661 C3665 1.495 . S
C3662 C3661 1.392 . S
C3662 C3663 1.385 . S
C3662 C3664 1.478 . S
C3663 H3657 0.930 . S
C3663 C3659 1.400 . S
C3663 C3662 1.385 . S
C3664 C3662 1.478 . S
C3664 C3666 1.381 . S
C3664 C3670 1.383 . S
C3665 C3661 1.495 . S
C3665 H3671 0.959 . S
C3665 H3672 0.961 . S
C3665 H3673 0.960 . S
C3666 C3664 1.381 . S
C3666 C3667 1.394 . S
C3666 H3674 0.930 . S
C3667 C3666 1.394 . S
C3667 C3668 1.383 . S
C3667 H3675 0.929 . S
C3668 C3667 1.383 . S
C3668 C3669 1.377 . S
C3669 H3653 0.930 . S
C3669 C3668 1.377 . S
C3669 C3670 1.379 . S
C3670 H3654 0.931 . S
C3670 C3664 1.383 . S
C3670 C3669 1.379 . S
H3671 C3665 0.959 . S
H3672 C3665 0.961 . S
H3673 C3665 0.960 . S
H3674 C3666 0.930 . S
H3675 C3667 0.929 . S
H3676 C3684 0.929 . S
H3677 C3686 0.930 . S
H3678 C3688 0.930 . S
H3679 C3691 0.929 . S
H3680 C3694 0.930 . S
H3681 C3696 0.960 . S
H3682 C3696 0.960 . S
H3683 C3696 0.960 . S
C3684 H3676 0.929 . S
C3684 C3685 1.377 . S
C3684 C3686 1.384 . S
C3685 C3684 1.377 . S
C3685 C3691 1.390 . S
C3686 H3677 0.930 . S
C3686 C3684 1.384 . S
C3686 C3687 1.372 . S
C3687 C3686 1.372 . S
C3687 C3688 1.400 . S
C3687 C3692 1.490 . S
C3688 H3678 0.930 . S
C3688 C3687 1.400 . S
C3688 C3691 1.386 . S
H3689 C3705 0.930 . S
H3690 C3706 0.931 . S
C3691 H3679 0.929 . S
C3691 C3685 1.390 . S
C3691 C3688 1.386 . S
C3692 C3687 1.490 . S
C3692 C3694 1.395 . S
C3692 C3695 1.403 . S
H3693 C3699 0.930 . S
C3694 H3680 0.930 . S
C3694 C3692 1.395 . S
C3694 C3697 1.403 . S
C3695 C3692 1.403 . S
C3695 C3696 1.524 . S
C3695 C3699 1.400 . S
C3696 H3681 0.960 . S
C3696 H3682 0.960 . S
C3696 H3683 0.960 . S
C3696 C3695 1.524 . S
C3697 C3694 1.403 . S
C3697 C3698 1.392 . S
C3697 C3701 1.495 . S
C3698 C3697 1.392 . S
C3698 C3699 1.385 . S
C3698 C3700 1.478 . S
C3699 H3693 0.930 . S
C3699 C3695 1.400 . S
C3699 C3698 1.385 . S
C3700 C3698 1.478 . S
C3700 C3702 1.381 . S
C3700 C3706 1.383 . S
C3701 C3697 1.495 . S
C3701 H3707 0.959 . S
C3701 H3708 0.961 . S
C3701 H3709 0.960 . S
C3702 C3700 1.381 . S
C3702 C3703 1.394 . S
C3702 H3710 0.930 . S
C3703 C3702 1.394 . S
C3703 C3704 1.383 . S
C3703 H3711 0.929 . S
C3704 C3703 1.383 . S
C3704 C3705 1.377 . S
C3705 H3689 0.930 . S
C3705 C3704 1.377 . S
C3705 C3706 1.379 . S
C3706 H3690 0.931 . S
C3706 C3700 1.383 . S
C3706 C3705 1.379 . S
H3707 C3701 0.959 . S
H3708 C3701 0.961 . S
H3709 C3701 0.960 . S
H3710 C3702 0.930 . S
H3711 C3703 0.929 . S
H3712 C3720 0.929 . S
H3713 C3722 0.930 . S
H3714 C3724 0.930 . S
H3715 C3727 0.929 . S
H3716 C3730 0.930 . S
H3717 C3732 0.960 . S
H3718 C3732 0.960 . S
H3719 C3732 0.960 . S
C3720 H3712 0.929 . S
C3720 C3721 1.377 . S
C3720 C3722 1.384 . S
C3721 C3720 1.377 . S
C3721 C3727 1.390 . S
C3722 H3713 0.930 . S
C3722 C3720 1.384 . S
C3722 C3723 1.372 . S
C3723 C3722 1.372 . S
C3723 C3724 1.400 . S
C3723 C3728 1.490 . S
C3724 H3714 0.930 . S
C3724 C3723 1.400 . S
C3724 C3727 1.386 . S
H3725 C3741 0.930 . S
H3726 C3742 0.931 . S
C3727 H3715 0.929 . S
C3727 C3721 1.390 . S
C3727 C3724 1.386 . S
C3728 C3723 1.490 . S
C3728 C3730 1.395 . S
C3728 C3731 1.403 . S
H3729 C3735 0.930 . S
C3730 H3716 0.930 . S
C3730 C3728 1.395 . S
C3730 C3733 1.403 . S
C3731 C3728 1.403 . S
C3731 C3732 1.524 . S
C3731 C3735 1.400 . S
C3732 H3717 0.960 . S
C3732 H3718 0.960 . S
C3732 H3719 0.960 . S
C3732 C3731 1.524 . S
C3733 C3730 1.403 . S
C3733 C3734 1.392 . S
C3733 C3737 1.495 . S
C3734 C3733 1.392 . S
C3734 C3735 1.385 . S
C3734 C3736 1.478 . S
C3735 H3729 0.930 . S
C3735 C3731 1.400 . S
C3735 C3734 1.385 . S
C3736 C3734 1.478 . S
C3736 C3738 1.381 . S
C3736 C3742 1.383 . S
C3737 C3733 1.495 . S
C3737 H3743 0.959 . S
C3737 H3744 0.961 . S
C3737 H3745 0.960 . S
C3738 C3736 1.381 . S
C3738 C3739 1.394 . S
C3738 H3746 0.930 . S
C3739 C3738 1.394 . S
C3739 C3740 1.383 . S
C3739 H3747 0.929 . S
C3740 C3739 1.383 . S
C3740 C3741 1.377 . S
C3741 H3725 0.930 . S
C3741 C3740 1.377 . S
C3741 C3742 1.379 . S
C3742 H3726 0.931 . S
C3742 C3736 1.383 . S
C3742 C3741 1.379 . S
H3743 C3737 0.959 . S
H3744 C3737 0.961 . S
H3745 C3737 0.960 . S
H3746 C3738 0.930 . S
H3747 C3739 0.929 . S
H3748 C3756 0.929 . S
H3749 C3758 0.930 . S
H3750 C3760 0.930 . S
H3751 C3763 0.929 . S
H3752 C3766 0.930 . S
H3753 C3768 0.960 . S
H3754 C3768 0.960 . S
H3755 C3768 0.960 . S
C3756 H3748 0.929 . S
C3756 C3757 1.377 . S
C3756 C3758 1.384 . S
C3757 C3756 1.377 . S
C3757 C3763 1.390 . S
C3758 H3749 0.930 . S
C3758 C3756 1.384 . S
C3758 C3759 1.372 . S
C3759 C3758 1.372 . S
C3759 C3760 1.400 . S
C3759 C3764 1.490 . S
C3760 H3750 0.930 . S
C3760 C3759 1.400 . S
C3760 C3763 1.386 . S
H3761 C3777 0.930 . S
H3762 C3778 0.931 . S
C3763 H3751 0.929 . S
C3763 C3757 1.390 . S
C3763 C3760 1.386 . S
C3764 C3759 1.490 . S
C3764 C3766 1.395 . S
C3764 C3767 1.403 . S
H3765 C3771 0.930 . S
C3766 H3752 0.930 . S
C3766 C3764 1.395 . S
C3766 C3769 1.403 . S
C3767 C3764 1.403 . S
C3767 C3768 1.524 . S
C3767 C3771 1.400 . S
C3768 H3753 0.960 . S
C3768 H3754 0.960 . S
C3768 H3755 0.960 . S
C3768 C3767 1.524 . S
C3769 C3766 1.403 . S
C3769 C3770 1.392 . S
C3769 C3773 1.495 . S
C3770 C3769 1.392 . S
C3770 C3771 1.385 . S
C3770 C3772 1.478 . S
C3771 H3765 0.930 . S
C3771 C3767 1.400 . S
C3771 C3770 1.385 . S
C3772 C3770 1.478 . S
C3772 C3774 1.381 . S
C3772 C3778 1.383 . S
C3773 C3769 1.495 . S
C3773 H3779 0.959 . S
C3773 H3780 0.961 . S
C3773 H3781 0.960 . S
C3774 C3772 1.381 . S
C3774 C3775 1.394 . S
C3774 H3782 0.930 . S
C3775 C3774 1.394 . S
C3775 C3776 1.383 . S
C3775 H3783 0.929 . S
C3776 C3775 1.383 . S
C3776 C3777 1.377 . S
C3777 H3761 0.930 . S
C3777 C3776 1.377 . S
C3777 C3778 1.379 . S
C3778 H3762 0.931 . S
C3778 C3772 1.383 . S
C3778 C3777 1.379 . S
H3779 C3773 0.959 . S
H3780 C3773 0.961 . S
H3781 C3773 0.960 . S
H3782 C3774 0.930 . S
H3783 C3775 0.929 . S
H3784 C3792 0.929 . S
H3785 C3794 0.930 . S
H3786 C3796 0.900 1_655 S
H3787 C3799 0.929 . S
H3788 C3802 0.930 . S
H3789 C3804 0.960 . S
H3790 C3804 0.960 . S
H3791 C3804 0.960 . S
C3792 H3784 0.929 . S
C3792 C3793 1.377 . S
C3792 C3794 1.384 . S
C3793 C3792 1.377 . S
C3793 C3799 1.390 1_455 S
C3794 H3785 0.930 . S
C3794 C3792 1.384 . S
C3794 C3795 1.372 . S
C3795 C3794 1.372 . S
C3795 C3796 1.425 . S
C3795 C3800 1.490 . S
C3796 H3786 0.900 1_455 S
C3796 C3795 1.425 . S
C3796 C3799 1.391 1_455 S
H3797 C3813 0.930 . S
H3798 C3814 0.931 . S
C3799 H3787 0.929 . S
C3799 C3793 1.390 1_655 S
C3799 C3796 1.391 1_655 S
C3800 C3795 1.490 . S
C3800 C3802 1.395 . S
C3800 C3803 1.403 . S
H3801 C3807 0.930 1_655 S
C3802 H3788 0.930 . S
C3802 C3800 1.395 . S
C3802 C3805 1.403 . S
C3803 C3800 1.403 . S
C3803 C3804 1.524 1_455 S
C3803 C3807 1.400 . S
C3804 H3789 0.960 . S
C3804 H3790 0.960 . S
C3804 H3791 0.960 . S
C3804 C3803 1.524 1_655 S
C3805 C3802 1.403 . S
C3805 C3806 1.392 . S
C3805 C3809 1.495 . S
C3806 C3805 1.392 . S
C3806 C3807 1.385 . S
C3806 C3808 1.478 . S
C3807 H3801 0.930 1_455 S
C3807 C3803 1.400 . S
C3807 C3806 1.385 . S
C3808 C3806 1.478 . S
C3808 C3810 1.381 . S
C3808 C3814 1.383 . S
C3809 C3805 1.495 . S
C3809 H3815 0.959 . S
C3809 H3816 0.961 . S
C3809 H3817 0.960 . S
C3810 C3808 1.381 . S
C3810 C3811 1.394 . S
C3810 H3818 0.930 . S
C3811 C3810 1.394 . S
C3811 C3812 1.383 . S
C3811 H3819 0.929 . S
C3812 C3811 1.383 . S
C3812 C3813 1.377 . S
C3813 H3797 0.930 . S
C3813 C3812 1.377 . S
C3813 C3814 1.379 . S
C3814 H3798 0.931 . S
C3814 C3808 1.383 . S
C3814 C3813 1.379 . S
H3815 C3809 0.959 . S
H3816 C3809 0.961 . S
H3817 C3809 0.960 . S
H3818 C3810 0.930 . S
H3819 C3811 0.929 . S
H3820 C3828 0.929 . S
H3821 C3830 0.930 . S
H3822 C3832 0.930 . S
H3823 C3835 0.929 . S
H3824 C3838 0.930 . S
H3825 C3840 0.960 . S
H3826 C3840 0.960 . S
H3827 C3840 0.960 . S
C3828 H3820 0.929 . S
C3828 C3829 1.377 . S
C3828 C3830 1.384 . S
C3829 C3828 1.377 . S
C3829 C3835 1.390 . S
C3830 H3821 0.930 . S
C3830 C3828 1.384 . S
C3830 C3831 1.372 . S
C3831 C3830 1.372 . S
C3831 C3832 1.400 . S
C3831 C3836 1.490 . S
C3832 H3822 0.930 . S
C3832 C3831 1.400 . S
C3832 C3835 1.386 . S
H3833 C3849 0.930 . S
H3834 C3850 0.931 . S
C3835 H3823 0.929 . S
C3835 C3829 1.390 . S
C3835 C3832 1.386 . S
C3836 C3831 1.490 . S
C3836 C3838 1.395 . S
C3836 C3839 1.403 . S
H3837 C3843 0.930 . S
C3838 H3824 0.930 . S
C3838 C3836 1.395 . S
C3838 C3841 1.403 . S
C3839 C3836 1.403 . S
C3839 C3840 1.524 . S
C3839 C3843 1.400 . S
C3840 H3825 0.960 . S
C3840 H3826 0.960 . S
C3840 H3827 0.960 . S
C3840 C3839 1.524 . S
C3841 C3838 1.403 . S
C3841 C3842 1.392 . S
C3841 C3845 1.495 . S
C3842 C3841 1.392 . S
C3842 C3843 1.385 . S
C3842 C3844 1.478 . S
C3843 H3837 0.930 . S
C3843 C3839 1.400 . S
C3843 C3842 1.385 . S
C3844 C3842 1.478 . S
C3844 C3846 1.381 . S
C3844 C3850 1.383 . S
C3845 C3841 1.495 . S
C3845 H3851 0.959 . S
C3845 H3852 0.961 . S
C3845 H3853 0.960 . S
C3846 C3844 1.381 . S
C3846 C3847 1.394 . S
C3846 H3854 0.930 . S
C3847 C3846 1.394 . S
C3847 C3848 1.383 . S
C3847 H3855 0.929 . S
C3848 C3847 1.383 . S
C3848 C3849 1.377 . S
C3849 H3833 0.930 . S
C3849 C3848 1.377 . S
C3849 C3850 1.379 . S
C3850 H3834 0.931 . S
C3850 C3844 1.383 . S
C3850 C3849 1.379 . S
H3851 C3845 0.959 . S
H3852 C3845 0.961 . S
H3853 C3845 0.960 . S
H3854 C3846 0.930 . S
H3855 C3847 0.929 . S
H3856 C3864 0.929 . S
H3857 C3866 0.930 . S
H3858 C3868 0.930 . S
H3859 C3871 0.929 . S
H3860 C3874 0.930 . S
H3861 C3876 0.960 . S
H3862 C3876 0.960 . S
H3863 C3876 0.960 . S
C3864 H3856 0.929 . S
C3864 C3865 1.377 . S
C3864 C3866 1.384 . S
C3865 C3864 1.377 . S
C3865 C3871 1.390 . S
C3866 H3857 0.930 . S
C3866 C3864 1.384 . S
C3866 C3867 1.372 . S
C3867 C3866 1.372 . S
C3867 C3868 1.400 . S
C3867 C3872 1.490 . S
C3868 H3858 0.930 . S
C3868 C3867 1.400 . S
C3868 C3871 1.386 . S
H3869 C3885 0.930 . S
H3870 C3886 0.931 . S
C3871 H3859 0.929 . S
C3871 C3865 1.390 . S
C3871 C3868 1.386 . S
C3872 C3867 1.490 . S
C3872 C3874 1.395 . S
C3872 C3875 1.403 . S
H3873 C3879 0.930 . S
C3874 H3860 0.930 . S
C3874 C3872 1.395 . S
C3874 C3877 1.403 . S
C3875 C3872 1.403 . S
C3875 C3876 1.524 . S
C3875 C3879 1.400 . S
C3876 H3861 0.960 . S
C3876 H3862 0.960 . S
C3876 H3863 0.960 . S
C3876 C3875 1.524 . S
C3877 C3874 1.403 . S
C3877 C3878 1.392 . S
C3877 C3881 1.495 . S
C3878 C3877 1.392 . S
C3878 C3879 1.385 . S
C3878 C3880 1.478 . S
C3879 H3873 0.930 . S
C3879 C3875 1.400 . S
C3879 C3878 1.385 . S
C3880 C3878 1.478 . S
C3880 C3882 1.381 . S
C3880 C3886 1.383 . S
C3881 C3877 1.495 . S
C3881 H3887 0.959 . S
C3881 H3888 0.961 . S
C3881 H3889 0.960 . S
C3882 C3880 1.381 . S
C3882 C3883 1.394 . S
C3882 H3890 0.930 . S
C3883 C3882 1.394 . S
C3883 C3884 1.383 . S
C3883 H3891 0.929 . S
C3884 C3883 1.383 . S
C3884 C3885 1.377 . S
C3885 H3869 0.930 . S
C3885 C3884 1.377 . S
C3885 C3886 1.379 . S
C3886 H3870 0.931 . S
C3886 C3880 1.383 . S
C3886 C3885 1.379 . S
H3887 C3881 0.959 . S
H3888 C3881 0.961 . S
H3889 C3881 0.960 . S
H3890 C3882 0.930 . S
H3891 C3883 0.929 . S
H3892 C3900 0.929 . S
H3893 C3902 0.930 . S
H3894 C3904 0.930 . S
H3895 C3907 0.929 . S
H3896 C3910 0.930 . S
H3897 C3912 0.960 . S
H3898 C3912 0.960 . S
H3899 C3912 0.960 . S
C3900 H3892 0.929 . S
C3900 C3901 1.377 . S
C3900 C3902 1.384 . S
C3901 C3900 1.377 . S
C3901 C3907 1.390 . S
C3902 H3893 0.930 . S
C3902 C3900 1.384 . S
C3902 C3903 1.372 . S
C3903 C3902 1.372 . S
C3903 C3904 1.400 . S
C3903 C3908 1.490 . S
C3904 H3894 0.930 . S
C3904 C3903 1.400 . S
C3904 C3907 1.386 . S
H3905 C3921 0.930 . S
H3906 C3922 0.931 . S
C3907 H3895 0.929 . S
C3907 C3901 1.390 . S
C3907 C3904 1.386 . S
C3908 C3903 1.490 . S
C3908 C3910 1.395 . S
C3908 C3911 1.403 . S
H3909 C3915 0.930 . S
C3910 H3896 0.930 . S
C3910 C3908 1.395 . S
C3910 C3913 1.403 . S
C3911 C3908 1.403 . S
C3911 C3912 1.524 . S
C3911 C3915 1.400 . S
C3912 H3897 0.960 . S
C3912 H3898 0.960 . S
C3912 H3899 0.960 . S
C3912 C3911 1.524 . S
C3913 C3910 1.403 . S
C3913 C3914 1.392 . S
C3913 C3917 1.495 . S
C3914 C3913 1.392 . S
C3914 C3915 1.385 . S
C3914 C3916 1.478 . S
C3915 H3909 0.930 . S
C3915 C3911 1.400 . S
C3915 C3914 1.385 . S
C3916 C3914 1.478 . S
C3916 C3918 1.381 . S
C3916 C3922 1.383 . S
C3917 C3913 1.495 . S
C3917 H3923 0.959 . S
C3917 H3924 0.961 . S
C3917 H3925 0.960 . S
C3918 C3916 1.381 . S
C3918 C3919 1.394 . S
C3918 H3926 0.930 . S
C3919 C3918 1.394 . S
C3919 C3920 1.383 . S
C3919 H3927 0.929 . S
C3920 C3919 1.383 . S
C3920 C3921 1.377 . S
C3921 H3905 0.930 . S
C3921 C3920 1.377 . S
C3921 C3922 1.379 . S
C3922 H3906 0.931 . S
C3922 C3916 1.383 . S
C3922 C3921 1.379 . S
H3923 C3917 0.959 . S
H3924 C3917 0.961 . S
H3925 C3917 0.960 . S
H3926 C3918 0.930 . S
H3927 C3919 0.929 . S
H3928 C3936 0.929 . S
H3929 C3938 0.930 . S
H3930 C3940 0.930 . S
H3931 C3943 0.929 . S
H3932 C3946 0.930 . S
H3933 C3948 0.960 . S
H3934 C3948 0.960 . S
H3935 C3948 0.960 . S
C3936 H3928 0.929 . S
C3936 C3937 1.377 . S
C3936 C3938 1.384 . S
C3937 C3936 1.377 . S
C3937 C3943 1.390 . S
C3938 H3929 0.930 . S
C3938 C3936 1.384 . S
C3938 C3939 1.372 . S
C3939 C3938 1.372 . S
C3939 C3940 1.400 . S
C3939 C3944 1.490 . S
C3940 H3930 0.930 . S
C3940 C3939 1.400 . S
C3940 C3943 1.386 . S
H3941 C3957 0.930 . S
H3942 C3958 0.931 . S
C3943 H3931 0.929 . S
C3943 C3937 1.390 . S
C3943 C3940 1.386 . S
C3944 C3939 1.490 . S
C3944 C3946 1.395 . S
C3944 C3947 1.403 . S
H3945 C3951 0.930 . S
C3946 H3932 0.930 . S
C3946 C3944 1.395 . S
C3946 C3949 1.403 . S
C3947 C3944 1.403 . S
C3947 C3948 1.524 . S
C3947 C3951 1.400 . S
C3948 H3933 0.960 . S
C3948 H3934 0.960 . S
C3948 H3935 0.960 . S
C3948 C3947 1.524 . S
C3949 C3946 1.403 . S
C3949 C3950 1.392 . S
C3949 C3953 1.495 1_655 S
C3950 C3949 1.392 . S
C3950 C3951 1.385 . S
C3950 C3952 1.478 . S
C3951 H3945 0.930 . S
C3951 C3947 1.400 . S
C3951 C3950 1.385 . S
C3952 C3950 1.478 . S
C3952 C3954 1.406 . S
C3952 C3958 1.383 . S
C3953 C3949 1.495 1_455 S
C3953 H3959 0.959 . S
C3953 H3960 0.961 . S
C3953 H3961 0.960 . S
C3954 C3952 1.406 . S
C3954 C3955 1.383 1_655 S
C3954 H3962 0.901 1_655 S
C3955 C3954 1.383 1_455 S
C3955 C3956 1.383 . S
C3955 H3963 0.929 . S
C3956 C3955 1.383 . S
C3956 C3957 1.377 1_455 S
C3957 H3941 0.930 . S
C3957 C3956 1.377 1_655 S
C3957 C3958 1.379 . S
C3958 H3942 0.931 . S
C3958 C3952 1.383 . S
C3958 C3957 1.379 . S
H3959 C3953 0.959 . S
H3960 C3953 0.961 . S
H3961 C3953 0.960 . S
H3962 C3954 0.901 1_455 S
H3963 C3955 0.929 . S
H3964 C3972 0.929 . S
H3965 C3974 0.930 . S
H3966 C3976 0.930 . S
H3967 C3979 0.929 . S
H3968 C3982 0.930 . S
H3969 C3984 0.960 . S
H3970 C3984 0.960 . S
H3971 C3984 0.960 . S
C3972 H3964 0.929 . S
C3972 C3973 1.377 . S
C3972 C3974 1.384 . S
C3973 C3972 1.377 . S
C3973 C3979 1.390 . S
C3974 H3965 0.930 . S
C3974 C3972 1.384 . S
C3974 C3975 1.372 . S
C3975 C3974 1.372 . S
C3975 C3976 1.400 . S
C3975 C3980 1.490 . S
C3976 H3966 0.930 . S
C3976 C3975 1.400 . S
C3976 C3979 1.386 . S
H3977 C3993 0.930 . S
H3978 C3994 0.931 . S
C3979 H3967 0.929 . S
C3979 C3973 1.390 . S
C3979 C3976 1.386 . S
C3980 C3975 1.490 . S
C3980 C3982 1.395 . S
C3980 C3983 1.403 . S
H3981 C3987 0.930 . S
C3982 H3968 0.930 . S
C3982 C3980 1.395 . S
C3982 C3985 1.403 . S
C3983 C3980 1.403 . S
C3983 C3984 1.524 . S
C3983 C3987 1.400 . S
C3984 H3969 0.960 . S
C3984 H3970 0.960 . S
C3984 H3971 0.960 . S
C3984 C3983 1.524 . S
C3985 C3982 1.403 . S
C3985 C3986 1.392 . S
C3985 C3989 1.495 . S
C3986 C3985 1.392 . S
C3986 C3987 1.385 . S
C3986 C3988 1.478 . S
C3987 H3981 0.930 . S
C3987 C3983 1.400 . S
C3987 C3986 1.385 . S
C3988 C3986 1.478 . S
C3988 C3990 1.381 . S
C3988 C3994 1.383 . S
C3989 C3985 1.495 . S
C3989 H3995 0.959 . S
C3989 H3996 0.961 . S
C3989 H3997 0.960 . S
C3990 C3988 1.381 . S
C3990 C3991 1.394 . S
C3990 H3998 0.930 . S
C3991 C3990 1.394 . S
C3991 C3992 1.383 . S
C3991 H3999 0.929 . S
C3992 C3991 1.383 . S
C3992 C3993 1.377 . S
C3993 H3977 0.930 . S
C3993 C3992 1.377 . S
C3993 C3994 1.379 . S
C3994 H3978 0.931 . S
C3994 C3988 1.383 . S
C3994 C3993 1.379 . S
H3995 C3989 0.959 . S
H3996 C3989 0.961 . S
H3997 C3989 0.960 . S
H3998 C3990 0.930 . S
H3999 C3991 0.929 . S
H4000 C4008 0.929 . S
H4001 C4010 0.930 . S
H4002 C4012 0.930 . S
H4003 C4015 0.929 . S
H4004 C4018 0.930 . S
H4005 C4020 0.960 . S
H4006 C4020 0.960 . S
H4007 C4020 0.960 . S
C4008 H4000 0.929 . S
C4008 C4009 1.377 . S
C4008 C4010 1.384 . S
C4009 C4008 1.377 . S
C4009 C4015 1.390 . S
C4010 H4001 0.930 . S
C4010 C4008 1.384 . S
C4010 C4011 1.372 . S
C4011 C4010 1.372 . S
C4011 C4012 1.400 . S
C4011 C4016 1.490 . S
C4012 H4002 0.930 . S
C4012 C4011 1.400 . S
C4012 C4015 1.386 . S
H4013 C4029 0.930 . S
H4014 C4030 0.931 . S
C4015 H4003 0.929 . S
C4015 C4009 1.390 . S
C4015 C4012 1.386 . S
C4016 C4011 1.490 . S
C4016 C4018 1.395 . S
C4016 C4019 1.403 . S
H4017 C4023 0.930 . S
C4018 H4004 0.930 . S
C4018 C4016 1.395 . S
C4018 C4021 1.403 . S
C4019 C4016 1.403 . S
C4019 C4020 1.524 . S
C4019 C4023 1.400 . S
C4020 H4005 0.960 . S
C4020 H4006 0.960 . S
C4020 H4007 0.960 . S
C4020 C4019 1.524 . S
C4021 C4018 1.403 . S
C4021 C4022 1.392 . S
C4021 C4025 1.495 . S
C4022 C4021 1.392 . S
C4022 C4023 1.385 . S
C4022 C4024 1.478 . S
C4023 H4017 0.930 . S
C4023 C4019 1.400 . S
C4023 C4022 1.385 . S
C4024 C4022 1.478 . S
C4024 C4026 1.381 . S
C4024 C4030 1.383 . S
C4025 C4021 1.495 . S
C4025 H4031 0.959 . S
C4025 H4032 0.961 . S
C4025 H4033 0.960 . S
C4026 C4024 1.381 . S
C4026 C4027 1.394 . S
C4026 H4034 0.930 . S
C4027 C4026 1.394 . S
C4027 C4028 1.383 . S
C4027 H4035 0.929 . S
C4028 C4027 1.383 . S
C4028 C4029 1.377 . S
C4029 H4013 0.930 . S
C4029 C4028 1.377 . S
C4029 C4030 1.379 . S
C4030 H4014 0.931 . S
C4030 C4024 1.383 . S
C4030 C4029 1.379 . S
H4031 C4025 0.959 . S
H4032 C4025 0.961 . S
H4033 C4025 0.960 . S
H4034 C4026 0.930 . S
H4035 C4027 0.929 . S
H4036 C4044 0.929 . S
H4037 C4046 0.930 . S
H4038 C4048 0.930 . S
H4039 C4051 0.929 . S
H4040 C4054 0.930 . S
H4041 C4056 0.960 . S
H4042 C4056 0.960 . S
H4043 C4056 0.960 . S
C4044 H4036 0.929 . S
C4044 C4045 1.377 . S
C4044 C4046 1.384 . S
C4045 C4044 1.377 . S
C4045 C4051 1.390 . S
C4046 H4037 0.930 . S
C4046 C4044 1.384 . S
C4046 C4047 1.372 . S
C4047 C4046 1.372 . S
C4047 C4048 1.400 . S
C4047 C4052 1.490 . S
C4048 H4038 0.930 . S
C4048 C4047 1.400 . S
C4048 C4051 1.386 . S
H4049 C4065 0.930 . S
H4050 C4066 0.931 . S
C4051 H4039 0.929 . S
C4051 C4045 1.390 . S
C4051 C4048 1.386 . S
C4052 C4047 1.490 . S
C4052 C4054 1.395 . S
C4052 C4055 1.403 . S
H4053 C4059 0.930 . S
C4054 H4040 0.930 . S
C4054 C4052 1.395 . S
C4054 C4057 1.403 . S
C4055 C4052 1.403 . S
C4055 C4056 1.524 . S
C4055 C4059 1.400 . S
C4056 H4041 0.960 . S
C4056 H4042 0.960 . S
C4056 H4043 0.960 . S
C4056 C4055 1.524 . S
C4057 C4054 1.403 . S
C4057 C4058 1.392 . S
C4057 C4061 1.495 . S
C4058 C4057 1.392 . S
C4058 C4059 1.385 . S
C4058 C4060 1.478 . S
C4059 H4053 0.930 . S
C4059 C4055 1.400 . S
C4059 C4058 1.385 . S
C4060 C4058 1.478 . S
C4060 C4062 1.381 . S
C4060 C4066 1.383 . S
C4061 C4057 1.495 . S
C4061 H4067 0.959 . S
C4061 H4068 0.961 . S
C4061 H4069 0.960 . S
C4062 C4060 1.381 . S
C4062 C4063 1.394 . S
C4062 H4070 0.930 . S
C4063 C4062 1.394 . S
C4063 C4064 1.383 . S
C4063 H4071 0.929 . S
C4064 C4063 1.383 . S
C4064 C4065 1.377 . S
C4065 H4049 0.930 . S
C4065 C4064 1.377 . S
C4065 C4066 1.379 . S
C4066 H4050 0.931 . S
C4066 C4060 1.383 . S
C4066 C4065 1.379 . S
H4067 C4061 0.959 . S
H4068 C4061 0.961 . S
H4069 C4061 0.960 . S
H4070 C4062 0.930 . S
H4071 C4063 0.929 . S
H4072 C4080 0.929 . S
H4073 C4082 0.930 . S
H4074 C4084 0.930 . S
H4075 C4087 0.929 . S
H4076 C4090 0.930 . S
H4077 C4092 0.960 . S
H4078 C4092 0.960 . S
H4079 C4092 0.960 . S
C4080 H4072 0.929 . S
C4080 C4081 1.377 . S
C4080 C4082 1.384 . S
C4081 C4080 1.377 . S
C4081 C4087 1.390 . S
C4082 H4073 0.930 . S
C4082 C4080 1.384 . S
C4082 C4083 1.372 . S
C4083 C4082 1.372 . S
C4083 C4084 1.400 . S
C4083 C4088 1.490 . S
C4084 H4074 0.930 . S
C4084 C4083 1.400 . S
C4084 C4087 1.386 . S
H4085 C4101 0.930 . S
H4086 C4102 0.931 . S
C4087 H4075 0.929 . S
C4087 C4081 1.390 . S
C4087 C4084 1.386 . S
C4088 C4083 1.490 . S
C4088 C4090 1.395 . S
C4088 C4091 1.403 . S
H4089 C4095 0.930 . S
C4090 H4076 0.930 . S
C4090 C4088 1.395 . S
C4090 C4093 1.403 . S
C4091 C4088 1.403 . S
C4091 C4092 1.524 . S
C4091 C4095 1.400 . S
C4092 H4077 0.960 . S
C4092 H4078 0.960 . S
C4092 H4079 0.960 . S
C4092 C4091 1.524 . S
C4093 C4090 1.403 . S
C4093 C4094 1.392 . S
C4093 C4097 1.495 . S
C4094 C4093 1.392 . S
C4094 C4095 1.385 . S
C4094 C4096 1.478 . S
C4095 H4089 0.930 . S
C4095 C4091 1.400 . S
C4095 C4094 1.385 . S
C4096 C4094 1.478 . S
C4096 C4098 1.381 . S
C4096 C4102 1.383 . S
C4097 C4093 1.495 . S
C4097 H4103 0.959 . S
C4097 H4104 0.961 . S
C4097 H4105 0.960 . S
C4098 C4096 1.381 . S
C4098 C4099 1.394 . S
C4098 H4106 0.930 . S
C4099 C4098 1.394 . S
C4099 C4100 1.383 . S
C4099 H4107 0.929 . S
C4100 C4099 1.383 . S
C4100 C4101 1.377 1_655 S
C4101 H4085 0.930 . S
C4101 C4100 1.377 1_455 S
C4101 C4102 1.379 1_455 S
C4102 H4086 0.931 . S
C4102 C4096 1.383 . S
C4102 C4101 1.379 1_655 S
H4103 C4097 0.959 . S
H4104 C4097 0.961 . S
H4105 C4097 0.960 . S
H4106 C4098 0.930 . S
H4107 C4099 0.929 . S
H4108 C4116 0.929 . S
H4109 C4118 0.930 . S
H4110 C4120 0.930 . S
H4111 C4123 0.929 . S
H4112 C4126 0.930 . S
H4113 C4128 0.960 . S
H4114 C4128 0.960 . S
H4115 C4128 0.960 . S
C4116 H4108 0.929 . S
C4116 C4117 1.377 . S
C4116 C4118 1.384 . S
C4117 C4116 1.377 . S
C4117 C4123 1.390 . S
C4118 H4109 0.930 . S
C4118 C4116 1.384 . S
C4118 C4119 1.372 . S
C4119 C4118 1.372 . S
C4119 C4120 1.400 . S
C4119 C4124 1.490 . S
C4120 H4110 0.930 . S
C4120 C4119 1.400 . S
C4120 C4123 1.386 . S
H4121 C4137 0.930 . S
H4122 C4138 0.931 . S
C4123 H4111 0.929 . S
C4123 C4117 1.390 . S
C4123 C4120 1.386 . S
C4124 C4119 1.490 . S
C4124 C4126 1.395 . S
C4124 C4127 1.403 . S
H4125 C4131 0.930 . S
C4126 H4112 0.930 . S
C4126 C4124 1.395 . S
C4126 C4129 1.403 . S
C4127 C4124 1.403 . S
C4127 C4128 1.524 . S
C4127 C4131 1.400 . S
C4128 H4113 0.960 . S
C4128 H4114 0.960 . S
C4128 H4115 0.960 . S
C4128 C4127 1.524 . S
C4129 C4126 1.403 . S
C4129 C4130 1.392 . S
C4129 C4133 1.495 . S
C4130 C4129 1.392 . S
C4130 C4131 1.385 . S
C4130 C4132 1.478 . S
C4131 H4125 0.930 . S
C4131 C4127 1.400 . S
C4131 C4130 1.385 . S
C4132 C4130 1.478 . S
C4132 C4134 1.381 . S
C4132 C4138 1.383 . S
C4133 C4129 1.495 . S
C4133 H4139 0.959 . S
C4133 H4140 0.961 . S
C4133 H4141 0.960 . S
C4134 C4132 1.381 . S
C4134 C4135 1.394 . S
C4134 H4142 0.930 . S
C4135 C4134 1.394 . S
C4135 C4136 1.383 . S
C4135 H4143 0.929 . S
C4136 C4135 1.383 . S
C4136 C4137 1.377 . S
C4137 H4121 0.930 . S
C4137 C4136 1.377 . S
C4137 C4138 1.379 . S
C4138 H4122 0.931 . S
C4138 C4132 1.383 . S
C4138 C4137 1.379 . S
H4139 C4133 0.959 . S
H4140 C4133 0.961 . S
H4141 C4133 0.960 . S
H4142 C4134 0.930 . S
H4143 C4135 0.929 . S
H4144 C4152 0.929 . S
H4145 C4154 0.930 . S
H4146 C4156 0.930 . S
H4147 C4159 0.929 . S
H4148 C4162 0.930 . S
H4149 C4164 0.960 . S
H4150 C4164 0.960 . S
H4151 C4164 0.960 . S
C4152 H4144 0.929 . S
C4152 C4153 1.377 . S
C4152 C4154 1.384 . S
C4153 C4152 1.377 . S
C4153 C4159 1.390 . S
C4154 H4145 0.930 . S
C4154 C4152 1.384 . S
C4154 C4155 1.372 . S
C4155 C4154 1.372 . S
C4155 C4156 1.400 . S
C4155 C4160 1.490 . S
C4156 H4146 0.930 . S
C4156 C4155 1.400 . S
C4156 C4159 1.386 . S
H4157 C4173 0.930 . S
H4158 C4174 0.931 . S
C4159 H4147 0.929 . S
C4159 C4153 1.390 . S
C4159 C4156 1.386 . S
C4160 C4155 1.490 . S
C4160 C4162 1.395 . S
C4160 C4163 1.403 . S
H4161 C4167 0.930 . S
C4162 H4148 0.930 . S
C4162 C4160 1.395 . S
C4162 C4165 1.403 . S
C4163 C4160 1.403 . S
C4163 C4164 1.524 . S
C4163 C4167 1.400 . S
C4164 H4149 0.960 . S
C4164 H4150 0.960 . S
C4164 H4151 0.960 . S
C4164 C4163 1.524 . S
C4165 C4162 1.403 . S
C4165 C4166 1.392 . S
C4165 C4169 1.495 . S
C4166 C4165 1.392 . S
C4166 C4167 1.385 . S
C4166 C4168 1.478 . S
C4167 H4161 0.930 . S
C4167 C4163 1.400 . S
C4167 C4166 1.385 . S
C4168 C4166 1.478 . S
C4168 C4170 1.381 . S
C4168 C4174 1.383 . S
C4169 C4165 1.495 . S
C4169 H4175 0.959 . S
C4169 H4176 0.961 . S
C4169 H4177 0.960 . S
C4170 C4168 1.381 . S
C4170 C4171 1.394 . S
C4170 H4178 0.930 . S
C4171 C4170 1.394 . S
C4171 C4172 1.383 . S
C4171 H4179 0.929 . S
C4172 C4171 1.383 . S
C4172 C4173 1.377 . S
C4173 H4157 0.930 . S
C4173 C4172 1.377 . S
C4173 C4174 1.379 . S
C4174 H4158 0.931 . S
C4174 C4168 1.383 . S
C4174 C4173 1.379 . S
H4175 C4169 0.959 . S
H4176 C4169 0.961 . S
H4177 C4169 0.960 . S
H4178 C4170 0.930 . S
H4179 C4171 0.929 . S
H4180 C4188 0.929 . S
H4181 C4190 0.930 . S
H4182 C4192 0.930 . S
H4183 C4195 0.929 . S
H4184 C4198 0.930 . S
H4185 C4200 0.960 . S
H4186 C4200 0.960 . S
H4187 C4200 0.960 . S
C4188 H4180 0.929 . S
C4188 C4189 1.377 . S
C4188 C4190 1.384 . S
C4189 C4188 1.377 . S
C4189 C4195 1.390 . S
C4190 H4181 0.930 . S
C4190 C4188 1.384 . S
C4190 C4191 1.372 . S
C4191 C4190 1.372 . S
C4191 C4192 1.400 . S
C4191 C4196 1.490 . S
C4192 H4182 0.930 . S
C4192 C4191 1.400 . S
C4192 C4195 1.386 . S
H4193 C4209 0.930 . S
H4194 C4210 0.931 . S
C4195 H4183 0.929 . S
C4195 C4189 1.390 . S
C4195 C4192 1.386 . S
C4196 C4191 1.490 . S
C4196 C4198 1.395 . S
C4196 C4199 1.403 . S
H4197 C4203 0.930 . S
C4198 H4184 0.930 . S
C4198 C4196 1.395 . S
C4198 C4201 1.403 . S
C4199 C4196 1.403 . S
C4199 C4200 1.524 . S
C4199 C4203 1.400 . S
C4200 H4185 0.960 . S
C4200 H4186 0.960 . S
C4200 H4187 0.960 . S
C4200 C4199 1.524 . S
C4201 C4198 1.403 . S
C4201 C4202 1.392 . S
C4201 C4205 1.495 . S
C4202 C4201 1.392 . S
C4202 C4203 1.385 . S
C4202 C4204 1.478 . S
C4203 H4197 0.930 . S
C4203 C4199 1.400 . S
C4203 C4202 1.385 . S
C4204 C4202 1.478 . S
C4204 C4206 1.381 . S
C4204 C4210 1.383 . S
C4205 C4201 1.495 . S
C4205 H4211 0.959 . S
C4205 H4212 0.961 . S
C4205 H4213 0.960 . S
C4206 C4204 1.381 . S
C4206 C4207 1.394 . S
C4206 H4214 0.930 . S
C4207 C4206 1.394 . S
C4207 C4208 1.383 . S
C4207 H4215 0.929 . S
C4208 C4207 1.383 . S
C4208 C4209 1.377 . S
C4209 H4193 0.930 . S
C4209 C4208 1.377 . S
C4209 C4210 1.379 . S
C4210 H4194 0.931 . S
C4210 C4204 1.383 . S
C4210 C4209 1.379 . S
H4211 C4205 0.959 . S
H4212 C4205 0.961 . S
H4213 C4205 0.960 . S
H4214 C4206 0.930 . S
H4215 C4207 0.929 . S
H4216 C4224 0.929 . S
H4217 C4226 0.930 . S
H4218 C4228 0.930 . S
H4219 C4231 0.929 . S
H4220 C4234 0.930 . S
H4221 C4236 0.960 . S
H4222 C4236 0.960 . S
H4223 C4236 0.960 . S
C4224 H4216 0.929 . S
C4224 C4225 1.377 . S
C4224 C4226 1.384 . S
C4225 C4224 1.377 . S
C4225 C4231 1.390 . S
C4226 H4217 0.930 . S
C4226 C4224 1.384 . S
C4226 C4227 1.372 . S
C4227 C4226 1.372 . S
C4227 C4228 1.400 . S
C4227 C4232 1.490 . S
C4228 H4218 0.930 . S
C4228 C4227 1.400 . S
C4228 C4231 1.386 . S
H4229 C4245 0.930 . S
H4230 C4246 0.931 . S
C4231 H4219 0.929 . S
C4231 C4225 1.390 . S
C4231 C4228 1.386 . S
C4232 C4227 1.490 . S
C4232 C4234 1.395 . S
C4232 C4235 1.403 . S
H4233 C4239 0.930 . S
C4234 H4220 0.930 . S
C4234 C4232 1.395 . S
C4234 C4237 1.403 . S
C4235 C4232 1.403 . S
C4235 C4236 1.524 . S
C4235 C4239 1.400 . S
C4236 H4221 0.960 . S
C4236 H4222 0.960 . S
C4236 H4223 0.960 . S
C4236 C4235 1.524 . S
C4237 C4234 1.403 . S
C4237 C4238 1.392 . S
C4237 C4241 1.495 . S
C4238 C4237 1.392 . S
C4238 C4239 1.385 . S
C4238 C4240 1.478 . S
C4239 H4233 0.930 . S
C4239 C4235 1.400 . S
C4239 C4238 1.385 . S
C4240 C4238 1.478 . S
C4240 C4242 1.381 . S
C4240 C4246 1.383 . S
C4241 C4237 1.495 . S
C4241 H4247 0.959 . S
C4241 H4248 0.961 . S
C4241 H4249 0.960 . S
C4242 C4240 1.381 . S
C4242 C4243 1.394 . S
C4242 H4250 0.930 . S
C4243 C4242 1.394 . S
C4243 C4244 1.383 . S
C4243 H4251 0.929 . S
C4244 C4243 1.383 . S
C4244 C4245 1.377 . S
C4245 H4229 0.930 . S
C4245 C4244 1.377 . S
C4245 C4246 1.379 . S
C4246 H4230 0.931 . S
C4246 C4240 1.383 . S
C4246 C4245 1.379 . S
H4247 C4241 0.959 . S
H4248 C4241 0.961 . S
H4249 C4241 0.960 . S
H4250 C4242 0.930 . S
H4251 C4243 0.929 . S
H4252 C4260 0.929 . S
H4253 C4262 0.930 . S
H4254 C4264 0.930 . S
H4255 C4267 0.929 . S
H4256 C4270 0.930 . S
H4257 C4272 0.960 . S
H4258 C4272 0.960 . S
H4259 C4272 0.960 . S
C4260 H4252 0.929 . S
C4260 C4261 1.377 . S
C4260 C4262 1.384 . S
C4261 C4260 1.377 . S
C4261 C4267 1.390 . S
C4262 H4253 0.930 . S
C4262 C4260 1.384 . S
C4262 C4263 1.372 . S
C4263 C4262 1.372 . S
C4263 C4264 1.400 . S
C4263 C4268 1.490 . S
C4264 H4254 0.930 . S
C4264 C4263 1.400 . S
C4264 C4267 1.386 . S
H4265 C4281 0.930 . S
H4266 C4282 0.931 . S
C4267 H4255 0.929 . S
C4267 C4261 1.390 . S
C4267 C4264 1.386 . S
C4268 C4263 1.490 . S
C4268 C4270 1.395 . S
C4268 C4271 1.403 . S
H4269 C4275 0.930 . S
C4270 H4256 0.930 . S
C4270 C4268 1.395 . S
C4270 C4273 1.403 . S
C4271 C4268 1.403 . S
C4271 C4272 1.524 . S
C4271 C4275 1.400 . S
C4272 H4257 0.960 . S
C4272 H4258 0.960 . S
C4272 H4259 0.960 . S
C4272 C4271 1.524 . S
C4273 C4270 1.403 . S
C4273 C4274 1.392 . S
C4273 C4277 1.495 . S
C4274 C4273 1.392 . S
C4274 C4275 1.385 . S
C4274 C4276 1.478 . S
C4275 H4269 0.930 . S
C4275 C4271 1.400 . S
C4275 C4274 1.385 . S
C4276 C4274 1.478 . S
C4276 C4278 1.381 . S
C4276 C4282 1.383 . S
C4277 C4273 1.495 . S
C4277 H4283 0.959 . S
C4277 H4284 0.961 . S
C4277 H4285 0.960 1_554 S
C4278 C4276 1.381 . S
C4278 C4279 1.394 . S
C4278 H4286 0.930 . S
C4279 C4278 1.394 . S
C4279 C4280 1.383 . S
C4279 H4287 0.925 . S
C4280 C4279 1.383 . S
C4280 C4281 1.377 . S
C4281 H4265 0.930 . S
C4281 C4280 1.377 . S
C4281 C4282 1.379 . S
C4282 H4266 0.931 . S
C4282 C4276 1.383 . S
C4282 C4281 1.379 . S
H4283 C4277 0.959 . S
H4284 C4277 0.961 . S
H4285 C4277 0.960 1_556 S
H4286 C4278 0.930 . S
H4287 C4279 0.925 . S
H4288 C4296 0.929 . S
H4289 C4298 0.930 . S
H4290 C4300 0.930 . S
H4291 C4303 0.929 . S
H4292 C4306 0.930 . S
H4293 C4308 0.960 . S
H4294 C4308 0.960 . S
H4295 C4308 0.960 . S
C4296 H4288 0.929 . S
C4296 C4297 1.377 . S
C4296 C4298 1.384 . S
C4297 C4296 1.377 . S
C4297 C4303 1.390 . S
C4298 H4289 0.930 . S
C4298 C4296 1.384 . S
C4298 C4299 1.372 . S
C4299 C4298 1.372 . S
C4299 C4300 1.400 . S
C4299 C4304 1.490 . S
C4300 H4290 0.930 . S
C4300 C4299 1.400 . S
C4300 C4303 1.386 . S
H4301 C4317 0.930 . S
H4302 C4318 0.931 . S
C4303 H4291 0.929 . S
C4303 C4297 1.390 . S
C4303 C4300 1.386 . S
C4304 C4299 1.490 . S
C4304 C4306 1.395 . S
C4304 C4307 1.403 . S
H4305 C4311 0.930 . S
C4306 H4292 0.930 . S
C4306 C4304 1.395 . S
C4306 C4309 1.403 . S
C4307 C4304 1.403 . S
C4307 C4308 1.524 . S
C4307 C4311 1.400 . S
C4308 H4293 0.960 . S
C4308 H4294 0.960 . S
C4308 H4295 0.960 . S
C4308 C4307 1.524 . S
C4309 C4306 1.403 . S
C4309 C4310 1.392 . S
C4309 C4313 1.495 . S
C4310 C4309 1.392 . S
C4310 C4311 1.385 . S
C4310 C4312 1.478 . S
C4311 H4305 0.930 . S
C4311 C4307 1.400 . S
C4311 C4310 1.385 . S
C4312 C4310 1.478 . S
C4312 C4314 1.381 . S
C4312 C4318 1.383 . S
C4313 C4309 1.495 . S
C4313 H4319 0.959 . S
C4313 H4320 0.961 . S
C4313 H4321 0.960 . S
C4314 C4312 1.381 . S
C4314 C4315 1.394 . S
C4314 H4322 0.930 . S
C4315 C4314 1.394 . S
C4315 C4316 1.383 . S
C4315 H4323 0.929 . S
C4316 C4315 1.383 . S
C4316 C4317 1.377 . S
C4317 H4301 0.930 . S
C4317 C4316 1.377 . S
C4317 C4318 1.379 . S
C4318 H4302 0.931 . S
C4318 C4312 1.383 . S
C4318 C4317 1.379 . S
H4319 C4313 0.959 . S
H4320 C4313 0.961 . S
H4321 C4313 0.960 . S
H4322 C4314 0.930 . S
H4323 C4315 0.929 . S
H4324 C4332 0.929 . S
H4325 C4334 0.930 . S
H4326 C4336 0.930 1_556 S
H4327 C4339 0.920 1_556 S
H4328 C4342 0.930 . S
H4329 C4344 0.960 . S
H4330 C4344 0.960 . S
H4331 C4344 0.960 . S
C4332 H4324 0.929 . S
C4332 C4333 1.377 . S
C4332 C4334 1.384 . S
C4333 C4332 1.377 . S
C4333 C4339 1.390 . S
C4334 H4325 0.930 . S
C4334 C4332 1.384 . S
C4334 C4335 1.372 . S
C4335 C4334 1.372 . S
C4335 C4336 1.400 . S
C4335 C4340 1.490 . S
C4336 H4326 0.930 1_554 S
C4336 C4335 1.400 . S
C4336 C4339 1.386 . S
H4337 C4353 0.930 . S
H4338 C4354 0.931 . S
C4339 H4327 0.920 1_554 S
C4339 C4333 1.390 . S
C4339 C4336 1.386 . S
C4340 C4335 1.490 . S
C4340 C4342 1.395 . S
C4340 C4343 1.403 1_554 S
H4341 C4347 0.930 . S
C4342 H4328 0.930 . S
C4342 C4340 1.395 . S
C4342 C4345 1.403 . S
C4343 C4340 1.403 1_556 S
C4343 C4344 1.524 . S
C4343 C4347 1.400 . S
C4344 H4329 0.960 . S
C4344 H4330 0.960 . S
C4344 H4331 0.960 . S
C4344 C4343 1.524 . S
C4345 C4342 1.403 . S
C4345 C4346 1.392 . S
C4345 C4349 1.495 . S
C4346 C4345 1.392 . S
C4346 C4347 1.385 1_554 S
C4346 C4348 1.478 . S
C4347 H4341 0.930 . S
C4347 C4343 1.400 . S
C4347 C4346 1.385 1_556 S
C4348 C4346 1.478 . S
C4348 C4350 1.381 . S
C4348 C4354 1.383 1_554 S
C4349 C4345 1.495 . S
C4349 H4355 0.959 . S
C4349 H4356 0.961 . S
C4349 H4357 0.960 . S
C4350 C4348 1.381 . S
C4350 C4351 1.394 . S
C4350 H4358 0.930 . S
C4351 C4350 1.394 . S
C4351 C4352 1.383 . S
C4351 H4359 0.929 . S
C4352 C4351 1.383 . S
C4352 C4353 1.377 1_554 S
C4353 H4337 0.930 . S
C4353 C4352 1.377 1_556 S
C4353 C4354 1.379 . S
C4354 H4338 0.931 . S
C4354 C4348 1.383 1_556 S
C4354 C4353 1.379 . S
H4355 C4349 0.959 . S
H4356 C4349 0.961 . S
H4357 C4349 0.960 . S
H4358 C4350 0.930 . S
H4359 C4351 0.929 . S
H4360 C4368 0.929 . S
H4361 C4370 0.930 . S
H4362 C4372 0.930 . S
H4363 C4375 0.929 . S
H4364 C4378 0.930 . S
H4365 C4380 0.960 . S
H4366 C4380 0.960 . S
H4367 C4380 0.960 . S
C4368 H4360 0.929 . S
C4368 C4369 1.377 . S
C4368 C4370 1.384 . S
C4369 C4368 1.377 . S
C4369 C4375 1.390 . S
C4370 H4361 0.930 . S
C4370 C4368 1.384 . S
C4370 C4371 1.372 . S
C4371 C4370 1.372 . S
C4371 C4372 1.400 . S
C4371 C4376 1.490 . S
C4372 H4362 0.930 . S
C4372 C4371 1.400 . S
C4372 C4375 1.386 . S
H4373 C4389 0.930 . S
H4374 C4390 0.931 . S
C4375 H4363 0.929 . S
C4375 C4369 1.390 . S
C4375 C4372 1.386 . S
C4376 C4371 1.490 . S
C4376 C4378 1.395 . S
C4376 C4379 1.403 . S
H4377 C4383 0.930 . S
C4378 H4364 0.930 . S
C4378 C4376 1.395 . S
C4378 C4381 1.403 . S
C4379 C4376 1.403 . S
C4379 C4380 1.524 . S
C4379 C4383 1.400 . S
C4380 H4365 0.960 . S
C4380 H4366 0.960 . S
C4380 H4367 0.960 . S
C4380 C4379 1.524 . S
C4381 C4378 1.403 . S
C4381 C4382 1.392 . S
C4381 C4385 1.495 . S
C4382 C4381 1.392 . S
C4382 C4383 1.385 . S
C4382 C4384 1.478 . S
C4383 H4377 0.930 . S
C4383 C4379 1.400 . S
C4383 C4382 1.385 . S
C4384 C4382 1.478 . S
C4384 C4386 1.381 . S
C4384 C4390 1.383 . S
C4385 C4381 1.495 . S
C4385 H4391 0.959 . S
C4385 H4392 0.961 . S
C4385 H4393 0.960 . S
C4386 C4384 1.381 . S
C4386 C4387 1.394 . S
C4386 H4394 0.930 . S
C4387 C4386 1.394 . S
C4387 C4388 1.383 . S
C4387 H4395 0.929 . S
C4388 C4387 1.383 . S
C4388 C4389 1.377 . S
C4389 H4373 0.930 . S
C4389 C4388 1.377 . S
C4389 C4390 1.379 . S
C4390 H4374 0.931 . S
C4390 C4384 1.383 . S
C4390 C4389 1.379 . S
H4391 C4385 0.959 . S
H4392 C4385 0.961 . S
H4393 C4385 0.960 . S
H4394 C4386 0.930 . S
H4395 C4387 0.929 . S
H4396 C4404 0.929 . S
H4397 C4406 0.930 . S
H4398 C4408 0.930 . S
H4399 C4411 0.929 . S
H4400 C4414 0.930 . S
H4401 C4416 0.960 . S
H4402 C4416 0.960 . S
H4403 C4416 0.960 . S
C4404 H4396 0.929 . S
C4404 C4405 1.377 . S
C4404 C4406 1.384 . S
C4405 C4404 1.377 . S
C4405 C4411 1.390 . S
C4406 H4397 0.930 . S
C4406 C4404 1.384 . S
C4406 C4407 1.372 . S
C4407 C4406 1.372 . S
C4407 C4408 1.400 . S
C4407 C4412 1.490 . S
C4408 H4398 0.930 . S
C4408 C4407 1.400 . S
C4408 C4411 1.386 . S
H4409 C4425 0.930 . S
H4410 C4426 0.931 . S
C4411 H4399 0.929 . S
C4411 C4405 1.390 . S
C4411 C4408 1.386 . S
C4412 C4407 1.490 . S
C4412 C4414 1.395 . S
C4412 C4415 1.403 . S
H4413 C4419 0.930 . S
C4414 H4400 0.930 . S
C4414 C4412 1.395 . S
C4414 C4417 1.403 . S
C4415 C4412 1.403 . S
C4415 C4416 1.524 . S
C4415 C4419 1.400 . S
C4416 H4401 0.960 . S
C4416 H4402 0.960 . S
C4416 H4403 0.960 . S
C4416 C4415 1.524 . S
C4417 C4414 1.403 . S
C4417 C4418 1.392 . S
C4417 C4421 1.495 . S
C4418 C4417 1.392 . S
C4418 C4419 1.385 . S
C4418 C4420 1.478 . S
C4419 H4413 0.930 . S
C4419 C4415 1.400 . S
C4419 C4418 1.385 . S
C4420 C4418 1.478 . S
C4420 C4422 1.381 . S
C4420 C4426 1.383 . S
C4421 C4417 1.495 . S
C4421 H4427 0.959 . S
C4421 H4428 0.961 . S
C4421 H4429 0.960 . S
C4422 C4420 1.381 . S
C4422 C4423 1.394 . S
C4422 H4430 0.930 . S
C4423 C4422 1.394 . S
C4423 C4424 1.383 . S
C4423 H4431 0.929 . S
C4424 C4423 1.383 . S
C4424 C4425 1.377 . S
C4425 H4409 0.930 . S
C4425 C4424 1.377 . S
C4425 C4426 1.379 . S
C4426 H4410 0.931 . S
C4426 C4420 1.383 . S
C4426 C4425 1.379 . S
H4427 C4421 0.959 . S
H4428 C4421 0.961 . S
H4429 C4421 0.960 . S
H4430 C4422 0.930 . S
H4431 C4423 0.929 . S
C985 C109 2.226 . S
C1004 C346 2.168 . S
C1021 C65 2.039 . S
C1040 C394 2.018 . S
C1057 C75 1.146 . S
C1076 C426 1.154 . S
C1112 C471 1.606 . S
C1093 C84 1.608 . S
C1129 C25 0.857 . S
C1148 C511 0.850 . S
C1184 C546 0.742 . S
C1165 C28 0.773 . S
C1220 C585 1.175 . S
C1201 C47 1.208 . S
C1237 C9 1.234 . S
C1256 C622 1.211 . S
C1292 C354 2.063 . S
C1273 C233 2.064 . S
C1309 C249 0.419 . S
C1328 C391 0.473 . S
C1364 C434 2.470 . S
C1345 C275 2.496 . S
C1400 C466 0.961 . S
C1381 C173 0.971 . S
C1417 C224 1.156 . S
C1436 C506 1.120 . S
C1472 C554 0.474 . S
C1453 C243 0.452 . S
C1508 C595 1.840 . S
C1489 C266 1.873 . S
C1544 C625 1.847 . S
C1525 C179 1.871 . S
C1580 C351 1.100 . S
C1561 C163 1.135 . S
C1597 C289 2.196 . S
C1616 C674 2.174 . S
C1652 C711 1.111 . S
C1633 C333 1.113 . S
C1688 C742 0.415 . S
C1669 C308 0.313 . S
C1705 C123 2.817 . S
C1724 C635 2.755 . S
C1741 C126 1.460 . S
C1760 C431 1.457 . S
C1777 C327 1.800 . S
C1796 C794 1.809 . S
C1832 C826 1.806 . S
C1813 C299 1.831 . S
C1868 C355 2.157 . S
C1849 C67 2.239 . S
C1904 C825 2.063 . S
C1885 C98 2.061 . S
C1921 C89 1.182 . S
C1940 C435 1.145 . S
C1957 C79 1.666 . S
C1976 C782 1.628 . S
C2012 C502 0.891 . S
C1993 C11 0.889 . S
C2029 C51 0.824 . S
C2048 C715 0.807 . S
C2084 C594 1.209 . S
C2065 C33 1.236 . S
C2120 C871 1.228 . S
C2101 C14 1.241 . S
C2156 C345 2.031 . S
C2137 C140 2.060 . S
C2192 C822 0.467 . S
C2173 C319 0.346 . S
C2209 C112 2.497 . S
C2228 C425 2.481 . S
C2245 C285 1.006 . S
C2264 C795 0.976 . S
C2281 C149 1.211 . S
C2300 C515 1.204 . S
C2336 C705 0.496 . S
C2317 C313 0.522 . S
C2353 C121 1.986 . S
C2372 C586 1.901 . S
C2389 C291 1.898 . S
C2408 C874 1.875 . S
C2425 C182 1.104 . S
C2444 C342 1.113 . S
C2461 C168 2.214 . S
C2480 C665 2.191 . S
C2497 C263 1.150 . S
C2516 C542 1.157 . S
C2533 C247 0.216 . S
C2552 C751 0.407 . S
C2588 C866 2.773 . S
C2569 C277 2.830 . S
C2605 C219 1.508 . S
C2624 C422 1.491 . S
C2660 C465 1.856 . S
C2641 C257 1.856 . S
C2696 C395 1.820 . S
C2677 C201 1.841 . S
C2713 C81 2.227 . S
C2732 C906 2.147 . S
C2768 C834 2.014 . S
C2749 C93 2.039 . S
C2785 C103 1.148 . S
C2804 C946 1.148 . S
C2821 C56 1.574 1_655 S
C2840 C791 1.605 . S
C2857 C53 0.857 . S
C2876 C671 0.840 . S
C2912 C706 0.801 . S
C2893 C0 0.767 . S
C2948 C745 1.178 . S
C2929 C19 1.207 . S
C2984 C862 1.228 . S
C2965 C37 1.230 . S
C3020 C914 2.045 . S
C3001 C261 2.061 . S
C3037 C193 0.431 . S
C3056 C831 0.609 . S
C3092 C954 2.460 . S
C3073 C205 2.495 . S
C3128 C786 0.983 . S
C3109 C215 0.970 . S
C3164 C666 1.163 . S
C3145 C252 1.150 . S
C3181 C187 0.469 . S
C3200 C714 0.430 . S
C3236 C755 1.817 . S
C3217 C196 1.870 . S
C3253 C221 1.871 . S
C3272 C865 1.860 . S
C3308 C911 1.139 . S
C3289 C317 1.131 . S
C3325 C135 2.196 . S
C3344 C514 2.169 . S
C3380 C551 1.104 . S
C3361 C151 1.114 . S
C3416 C582 0.229 . S
C3397 C154 0.308 . S
C3452 C875 2.770 . S
C3433 C305 2.818 . S
C3469 C280 1.456 . S
C3488 C951 1.452 . S
C3524 C474 1.790 . S
C3505 C145 1.804 . S
C3560 C386 1.790 . S
C3541 C117 1.833 . S
C3577 C95 2.239 . S
C3596 C915 2.169 . S
C3632 C385 2.068 . S
C3613 C70 2.063 . S
C3649 C61 1.183 . S
C3668 C955 1.155 . S
C3685 C107 1.666 . S
C3704 C462 1.647 . S
C3721 C39 0.891 . S
C3740 C662 0.890 . S
C3776 C555 0.818 . S
C3757 C23 0.827 . S
C3793 C5 1.235 . S
C3812 C754 1.204 . S
C3829 C42 1.241 . S
C3848 C631 1.245 . S
C3884 C905 2.050 . S
C3865 C322 2.058 . S
C3901 C165 0.341 . S
C3920 C382 0.587 . S
C3956 C945 2.479 . S
C3937 C294 2.496 . S
C3973 C131 1.006 . S
C3992 C475 0.984 . S
C4009 C331 1.208 . S
C4028 C675 1.211 . S
C4064 C545 0.582 . S
C4045 C159 0.542 . S
C4081 C303 1.986 . S
C4100 C746 1.895 1_655 S
C4136 C634 1.858 . S
C4117 C137 1.897 . S
C4172 C902 1.066 . S
C4153 C238 1.100 . S
C4208 C505 2.191 1_665 S
C4189 C210 2.214 . S
C4225 C235 1.145 . S
C4244 C702 1.158 . S
C4280 C591 0.409 . S
C4261 C191 0.216 . S
C4297 C207 2.829 . S
C4316 C626 2.784 . S
C4333 C177 1.507 . S
C4352 C942 1.473 . S
C4388 C785 1.857 . S
C4369 C229 1.858 . S
C4424 C835 1.810 . S
C4405 C271 1.839 . S
