# Generated by pormake.
# Topology myd, (4,6)-cn, num edge types: 1
# Building blocks:
#     Node 0, Type 0, BuildingBlock: KOZSID_clean_sbu_0, # of connection points: 4
#     Node 1, Type 0, BuildingBlock: KOZSID_clean_sbu_0, # of connection points: 4
#     Node 2, Type 0, BuildingBlock: KOZSID_clean_sbu_0, # of connection points: 4
#     Node 3, Type 0, BuildingBlock: KOZSID_clean_sbu_0, # of connection points: 4
#     Node 4, Type 0, BuildingBlock: KOZSID_clean_sbu_0, # of connection points: 4
#     Node 5, Type 0, BuildingBlock: KOZSID_clean_sbu_0, # of connection points: 4
#     Node 6, Type 0, BuildingBlock: KOZSID_clean_sbu_0, # of connection points: 4
#     Node 7, Type 0, BuildingBlock: KOZSID_clean_sbu_0, # of connection points: 4
#     Node 8, Type 0, BuildingBlock: KOZSID_clean_sbu_0, # of connection points: 4
#     Node 9, Type 0, BuildingBlock: KOZSID_clean_sbu_0, # of connection points: 4
#     Node 10, Type 0, BuildingBlock: KOZSID_clean_sbu_0, # of connection points: 4
#     Node 11, Type 0, BuildingBlock: KOZSID_clean_sbu_0, # of connection points: 4
#     Node 12, Type 1, BuildingBlock: LEVNOQ01_clean_sbu_1, # of connection points: 6
#     Node 13, Type 1, BuildingBlock: LEVNOQ01_clean_sbu_1, # of connection points: 6
#     Node 14, Type 1, BuildingBlock: LEVNOQ01_clean_sbu_1, # of connection points: 6
#     Node 15, Type 1, BuildingBlock: LEVNOQ01_clean_sbu_1, # of connection points: 6
#     Node 16, Type 1, BuildingBlock: LEVNOQ01_clean_sbu_1, # of connection points: 6
#     Node 17, Type 1, BuildingBlock: LEVNOQ01_clean_sbu_1, # of connection points: 6
#     Node 18, Type 1, BuildingBlock: LEVNOQ01_clean_sbu_1, # of connection points: 6
#     Node 19, Type 1, BuildingBlock: LEVNOQ01_clean_sbu_1, # of connection points: 6
#     Edge 20, Type (0, 1), BuildingBlock: ZUJKAS_clean_linker_0, # of connection points: 2
#     Edge 21, Type (0, 1), BuildingBlock: ZUJKAS_clean_linker_0, # of connection points: 2
#     Edge 22, Type (0, 1), BuildingBlock: ZUJKAS_clean_linker_0, # of connection points: 2
#     Edge 23, Type (0, 1), BuildingBlock: ZUJKAS_clean_linker_0, # of connection points: 2
#     Edge 24, Type (0, 1), BuildingBlock: ZUJKAS_clean_linker_0, # of connection points: 2
#     Edge 25, Type (0, 1), BuildingBlock: ZUJKAS_clean_linker_0, # of connection points: 2
#     Edge 26, Type (0, 1), BuildingBlock: ZUJKAS_clean_linker_0, # of connection points: 2
#     Edge 27, Type (0, 1), BuildingBlock: ZUJKAS_clean_linker_0, # of connection points: 2
#     Edge 28, Type (0, 1), BuildingBlock: ZUJKAS_clean_linker_0, # of connection points: 2
#     Edge 29, Type (0, 1), BuildingBlock: ZUJKAS_clean_linker_0, # of connection points: 2
#     Edge 30, Type (0, 1), BuildingBlock: ZUJKAS_clean_linker_0, # of connection points: 2
#     Edge 31, Type (0, 1), BuildingBlock: ZUJKAS_clean_linker_0, # of connection points: 2
#     Edge 32, Type (0, 1), BuildingBlock: ZUJKAS_clean_linker_0, # of connection points: 2
#     Edge 33, Type (0, 1), BuildingBlock: ZUJKAS_clean_linker_0, # of connection points: 2
#     Edge 34, Type (0, 1), BuildingBlock: ZUJKAS_clean_linker_0, # of connection points: 2
#     Edge 35, Type (0, 1), BuildingBlock: ZUJKAS_clean_linker_0, # of connection points: 2
#     Edge 36, Type (0, 1), BuildingBlock: ZUJKAS_clean_linker_0, # of connection points: 2
#     Edge 37, Type (0, 1), BuildingBlock: ZUJKAS_clean_linker_0, # of connection points: 2
#     Edge 38, Type (0, 1), BuildingBlock: ZUJKAS_clean_linker_0, # of connection points: 2
#     Edge 39, Type (0, 1), BuildingBlock: ZUJKAS_clean_linker_0, # of connection points: 2
#     Edge 40, Type (0, 1), BuildingBlock: ZUJKAS_clean_linker_0, # of connection points: 2
#     Edge 41, Type (0, 1), BuildingBlock: ZUJKAS_clean_linker_0, # of connection points: 2
#     Edge 42, Type (0, 1), BuildingBlock: ZUJKAS_clean_linker_0, # of connection points: 2
#     Edge 43, Type (0, 1), BuildingBlock: ZUJKAS_clean_linker_0, # of connection points: 2
#     Edge 44, Type (0, 1), BuildingBlock: ZUJKAS_clean_linker_0, # of connection points: 2
#     Edge 45, Type (0, 1), BuildingBlock: ZUJKAS_clean_linker_0, # of connection points: 2
#     Edge 46, Type (0, 1), BuildingBlock: ZUJKAS_clean_linker_0, # of connection points: 2
#     Edge 47, Type (0, 1), BuildingBlock: ZUJKAS_clean_linker_0, # of connection points: 2
#     Edge 48, Type (0, 1), BuildingBlock: ZUJKAS_clean_linker_0, # of connection points: 2
#     Edge 49, Type (0, 1), BuildingBlock: ZUJKAS_clean_linker_0, # of connection points: 2
#     Edge 50, Type (0, 1), BuildingBlock: ZUJKAS_clean_linker_0, # of connection points: 2
#     Edge 51, Type (0, 1), BuildingBlock: ZUJKAS_clean_linker_0, # of connection points: 2
#     Edge 52, Type (0, 1), BuildingBlock: ZUJKAS_clean_linker_0, # of connection points: 2
#     Edge 53, Type (0, 1), BuildingBlock: ZUJKAS_clean_linker_0, # of connection points: 2
#     Edge 54, Type (0, 1), BuildingBlock: ZUJKAS_clean_linker_0, # of connection points: 2
#     Edge 55, Type (0, 1), BuildingBlock: ZUJKAS_clean_linker_0, # of connection points: 2
#     Edge 56, Type (0, 1), BuildingBlock: ZUJKAS_clean_linker_0, # of connection points: 2
#     Edge 57, Type (0, 1), BuildingBlock: ZUJKAS_clean_linker_0, # of connection points: 2
#     Edge 58, Type (0, 1), BuildingBlock: ZUJKAS_clean_linker_0, # of connection points: 2
#     Edge 59, Type (0, 1), BuildingBlock: ZUJKAS_clean_linker_0, # of connection points: 2
#     Edge 60, Type (0, 1), BuildingBlock: ZUJKAS_clean_linker_0, # of connection points: 2
#     Edge 61, Type (0, 1), BuildingBlock: ZUJKAS_clean_linker_0, # of connection points: 2
#     Edge 62, Type (0, 1), BuildingBlock: ZUJKAS_clean_linker_0, # of connection points: 2
#     Edge 63, Type (0, 1), BuildingBlock: ZUJKAS_clean_linker_0, # of connection points: 2
#     Edge 64, Type (0, 1), BuildingBlock: ZUJKAS_clean_linker_0, # of connection points: 2
#     Edge 65, Type (0, 1), BuildingBlock: ZUJKAS_clean_linker_0, # of connection points: 2
#     Edge 66, Type (0, 1), BuildingBlock: ZUJKAS_clean_linker_0, # of connection points: 2
#     Edge 67, Type (0, 1), BuildingBlock: ZUJKAS_clean_linker_0, # of connection points: 2
# Relax obj value: 0.183
# Max RMSD: 0.193
# Mean RMSD: 0.138
data_MOF--net-myd--node1-KOZSID_clean_sbu_0--node2-LEVNOQ01_clean_sbu_1--edge1-ZUJKAS_clean_linker_0
_symmetry_space_group_name_H-M    P1
_symmetry_Int_Tables_number       1
_symmetry_cell_setting            triclinic
loop_
_symmetry_equiv_pos_as_xyz
'x, y, z'
_cell_length_a     63.690727
_cell_length_b     64.468515
_cell_length_c     63.274197
_cell_angle_alpha  92.021645
_cell_angle_beta   91.957444
_cell_angle_gamma 93.731415
loop_
_atom_site_label
_atom_site_type_symbol
_atom_site_fract_x
_atom_site_fract_y
_atom_site_fract_z
_atom_type_partial_charge
C0 C 0.00142 0.29217 0.32481 0.0
C1 C 0.98026 0.2944 0.32827 0.0
C2 C 0.9694 0.27708 0.31946 0.0
C3 C 0.98439 0.26541 0.31085 0.0
N4 N 0.00426 0.27388 0.31419 0.0
Co5 Co 0.03023 0.26435 0.30071 0.0
N6 N 0.01361 0.24281 0.28249 0.0
C7 C 0.99309 0.23665 0.28436 0.0
C8 C 0.98617 0.22058 0.2706 0.0
C9 C 0.00332 0.2162 0.2593 0.0
C10 C 0.01977 0.23006 0.26671 0.0
N11 N 0.05614 0.25601 0.28633 0.0
C12 C 0.05822 0.24296 0.26933 0.0
C13 C 0.07908 0.2427 0.26369 0.0
C14 C 0.09057 0.25583 0.27778 0.0
C15 C 0.07613 0.26354 0.29103 0.0
N16 N 0.04675 0.28556 0.31944 0.0
C17 C 0.06789 0.28776 0.32217 0.0
C18 C 0.07467 0.30444 0.33531 0.0
C19 C 0.0568 0.31368 0.3408 0.0
C20 C 0.04009 0.30215 0.33056 0.0
N21 N 0.0338 0.2424 0.32215 0.0
C22 C 0.03675 0.2031 0.3404 0.0
C23 C 0.05477 0.21484 0.33474 0.0
C24 C 0.05299 0.23438 0.32598 0.0
C25 C 0.01763 0.21255 0.33919 0.0
C26 C 0.01662 0.23222 0.33061 0.0
N27 N 0.02664 0.28527 0.27914 0.0
C28 C 0.04052 0.31371 0.25883 0.0
C29 C 0.02133 0.31411 0.24742 0.0
C30 C 0.0048 0.30003 0.25249 0.0
C31 C 0.00778 0.28583 0.26823 0.0
C32 C 0.04283 0.29923 0.27455 0.0
H33 H 0.99464 0.27535 0.27136 0.0
H34 H 0.05784 0.29938 0.28276 0.0
H35 H 0.06736 0.24225 0.3218 0.0
H36 H 0.00159 0.23847 0.3305 0.0
C37 C 0.98025 0.24779 0.29746 0.0
C38 C 0.0183 0.30814 0.33079 0.0
C39 C 0.04092 0.23044 0.25832 0.0
C40 C 0.08072 0.27752 0.30826 0.0
H41 H 0.97316 0.3075 0.33558 0.0
H42 H 0.95248 0.27402 0.3183 0.0
H43 H 0.97041 0.21326 0.26864 0.0
H44 H 0.00361 0.20421 0.24693 0.0
H45 H 0.08539 0.2339 0.25077 0.0
H46 H 0.10744 0.25937 0.27827 0.0
H47 H 0.09076 0.31025 0.33901 0.0
H48 H 0.0562 0.32786 0.35037 0.0
H49 H 0.07013 0.20861 0.33604 0.0
H50 H 0.00334 0.20465 0.34451 0.0
H51 H 0.05383 0.3242 0.25539 0.0
H52 H 0.98951 0.29999 0.24445 0.0
C53 C 0.98834 0.72523 0.12738 0.0
C54 C 0.96808 0.72058 0.119 0.0
C55 C 0.95562 0.73438 0.12835 0.0
C56 C 0.96895 0.74649 0.14185 0.0
N57 N 0.98926 0.74158 0.14141 0.0
Co58 Co 0.01368 0.75396 0.15954 0.0
N59 N 0.99511 0.77309 0.17462 0.0
C60 C 0.9744 0.77525 0.17036 0.0
C61 C 0.96643 0.79133 0.1815 0.0
C62 C 0.983 0.80002 0.19362 0.0
C63 C 0.00016 0.78843 0.18945 0.0
N64 N 0.038 0.76597 0.17814 0.0
C65 C 0.03859 0.78072 0.19401 0.0
C66 C 0.05858 0.78372 0.20358 0.0
C67 C 0.07116 0.77085 0.19303 0.0
C68 C 0.05819 0.76053 0.17788 0.0
N69 N 0.03236 0.73536 0.14398 0.0
C70 C 0.0535 0.73478 0.14633 0.0
C71 C 0.06173 0.72009 0.13339 0.0
C72 C 0.04478 0.71052 0.12235 0.0
C73 C 0.02721 0.71998 0.1293 0.0
N74 N 0.01947 0.77575 0.13883 0.0
C75 C 0.02762 0.81188 0.11662 0.0
C76 C 0.04413 0.80128 0.12487 0.0
C77 C 0.03973 0.7831 0.13552 0.0
C78 C 0.0071 0.80333 0.11784 0.0
C79 C 0.00339 0.78523 0.12891 0.0
N80 N 0.00799 0.73226 0.18035 0.0
C81 C 0.02069 0.7062 0.20314 0.0
C82 C 0.00065 0.70227 0.2109 0.0
C83 C 0.98416 0.71319 0.20272 0.0
C84 C 0.98818 0.72814 0.18761 0.0
C85 C 0.02396 0.72102 0.18792 0.0
H86 H 0.97513 0.73635 0.1822 0.0
H87 H 0.03958 0.72321 0.18262 0.0
H88 H 0.05298 0.77582 0.14165 0.0
H89 H 0.98737 0.77976 0.1299 0.0
C90 C 0.96291 0.76235 0.15538 0.0
C91 C 0.00584 0.7127 0.1229 0.0
C92 C 0.02076 0.79242 0.20029 0.0
C93 C 0.0647 0.74637 0.16258 0.0
H94 H 0.96279 0.70817 0.10773 0.0
H95 H 0.93878 0.73516 0.12598 0.0
H96 H 0.95055 0.79637 0.18063 0.0
H97 H 0.98246 0.8135 0.20422 0.0
H98 H 0.0637 0.7942 0.21673 0.0
H99 H 0.08783 0.76936 0.19593 0.0
H100 H 0.07796 0.71614 0.13277 0.0
H101 H 0.04515 0.69757 0.11104 0.0
H102 H 0.06029 0.80743 0.1238 0.0
H103 H 0.99394 0.81118 0.11133 0.0
H104 H 0.03387 0.69787 0.20883 0.0
H105 H 0.96837 0.71066 0.20839 0.0
C106 C 0.33633 0.98455 0.26541 0.0
C107 C 0.34111 0.96408 0.26791 0.0
C108 C 0.33287 0.95305 0.2504 0.0
C109 C 0.32357 0.96738 0.2383 0.0
N110 N 0.32594 0.98701 0.2467 0.0
Co111 Co 0.31205 0.01205 0.23652 0.0
N112 N 0.29526 0.99498 0.21408 0.0
C113 C 0.29734 0.97475 0.20861 0.0
C114 C 0.28483 0.9676 0.19153 0.0
C115 C 0.27416 0.98425 0.18566 0.0
C116 C 0.28061 0.00064 0.19978 0.0
N117 N 0.29741 0.03698 0.22721 0.0
C118 C 0.28152 0.03842 0.21265 0.0
C119 C 0.27502 0.05857 0.21209 0.0
C120 C 0.28754 0.07032 0.2265 0.0
C121 C 0.30073 0.05672 0.2352 0.0
N122 N 0.32933 0.02904 0.25871 0.0
C123 C 0.33062 0.04998 0.26153 0.0
C124 C 0.34256 0.05694 0.27912 0.0
C125 C 0.34876 0.0394 0.28836 0.0
C126 C 0.34028 0.02265 0.27578 0.0
N127 N 0.33411 0.01765 0.21539 0.0
C128 C 0.35421 0.0255 0.1773 0.0
C129 C 0.3486 0.04183 0.19047 0.0
C130 C 0.33918 0.0376 0.20957 0.0
C131 C 0.35189 0.00534 0.1846 0.0
C132 C 0.34201 0.0018 0.2037 0.0
N133 N 0.28985 0.00665 0.2569 0.0
C134 C 0.26798 0.01914 0.28426 0.0
C135 C 0.25699 0.99973 0.28461 0.0
C136 C 0.26303 0.98365 0.27125 0.0
C137 C 0.27942 0.98744 0.25753 0.0
C138 C 0.28429 0.02222 0.27042 0.0
H139 H 0.2833 0.97474 0.24739 0.0
H140 H 0.2921 0.03738 0.2708 0.0
H141 H 0.33545 0.05078 0.21886 0.0
H142 H 0.34031 0.98606 0.2082 0.0
C143 C 0.31039 0.9626 0.22046 0.0
C144 C 0.34102 0.00098 0.28162 0.0
C145 C 0.27235 0.02123 0.19894 0.0
C146 C 0.31664 0.06201 0.25062 0.0
H147 H 0.34903 0.95772 0.28139 0.0
H148 H 0.33261 0.93639 0.24744 0.0
H149 H 0.28353 0.95209 0.18426 0.0
H150 H 0.26294 0.98427 0.17244 0.0
H151 H 0.26257 0.06427 0.20228 0.0
H152 H 0.28706 0.0868 0.2302 0.0
H153 H 0.3449 0.07275 0.28552 0.0
H154 H 0.35745 0.03905 0.30331 0.0
H155 H 0.35106 0.0578 0.18583 0.0
H156 H 0.3567 0.99225 0.17515 0.0
H157 H 0.264 0.03192 0.29462 0.0
H158 H 0.25481 0.96838 0.27098 0.0
C159 C 0.64414 0.47126 0.22054 0.0
C160 C 0.63647 0.45086 0.21617 0.0
C161 C 0.64724 0.43881 0.22946 0.0
C162 C 0.66087 0.4525 0.24099 0.0
N163 N 0.65918 0.47262 0.23621 0.0
Co164 Co 0.67696 0.49753 0.24778 0.0
N165 N 0.69346 0.47973 0.26664 0.0
C166 C 0.69055 0.45892 0.26873 0.0
C167 C 0.7027 0.45143 0.28463 0.0
C168 C 0.71384 0.4685 0.29346 0.0
C169 C 0.70794 0.48545 0.28222 0.0
N170 N 0.69511 0.52236 0.25884 0.0
C171 C 0.71034 0.52379 0.27432 0.0
C172 C 0.71934 0.54396 0.27711 0.0
C173 C 0.70904 0.55578 0.2632 0.0
C174 C 0.69451 0.54221 0.25267 0.0
N175 N 0.65983 0.51542 0.22973 0.0
C176 C 0.66162 0.53638 0.22871 0.0
C177 C 0.64716 0.54408 0.21502 0.0
C178 C 0.63563 0.52697 0.20664 0.0
C179 C 0.64389 0.50984 0.21569 0.0
N180 N 0.6574 0.50149 0.27106 0.0
C181 C 0.63603 0.5074 0.30874 0.0
C182 C 0.64335 0.52437 0.2973 0.0
C183 C 0.65371 0.52108 0.27855 0.0
C184 C 0.63812 0.48743 0.30009 0.0
C185 C 0.64871 0.48485 0.28133 0.0
N186 N 0.69688 0.49366 0.22459 0.0
C187 C 0.71766 0.50788 0.19653 0.0
C188 C 0.7273 0.4892 0.1935 0.0
C189 C 0.72089 0.47254 0.20586 0.0
C190 C 0.70576 0.47507 0.22114 0.0
C191 C 0.70261 0.50973 0.21192 0.0
H192 H 0.70168 0.46184 0.23015 0.0
H193 H 0.69595 0.52441 0.21335 0.0
H194 H 0.6593 0.53465 0.27084 0.0
H195 H 0.65024 0.46924 0.27584 0.0
C196 C 0.6755 0.44696 0.25629 0.0
C197 C 0.63816 0.48862 0.20823 0.0
C198 C 0.71614 0.50672 0.28728 0.0
C199 C 0.67836 0.54809 0.23909 0.0
H200 H 0.62469 0.44516 0.20429 0.0
H201 H 0.64566 0.42205 0.2303 0.0
H202 H 0.70291 0.43557 0.28963 0.0
H203 H 0.72472 0.46848 0.30697 0.0
H204 H 0.73165 0.54966 0.28847 0.0
H205 H 0.71124 0.57244 0.26163 0.0
H206 H 0.64579 0.56011 0.21092 0.0
H207 H 0.62327 0.52694 0.19445 0.0
H208 H 0.64202 0.54018 0.30323 0.0
H209 H 0.63205 0.47378 0.30799 0.0
H210 H 0.72168 0.52112 0.18702 0.0
H211 H 0.72787 0.45772 0.20417 0.0
C212 C 0.28259 0.35692 0.99411 0.0
C213 C 0.28249 0.36636 0.97475 0.0
C214 C 0.26769 0.3552 0.96201 0.0
C215 C 0.259 0.34031 0.97464 0.0
N216 N 0.26675 0.34192 0.99478 0.0
Co217 Co 0.25709 0.3255 0.01931 0.0
N218 N 0.23802 0.30649 0.00044 0.0
C219 C 0.23477 0.30775 0.97924 0.0
C220 C 0.21969 0.29342 0.97083 0.0
C221 C 0.21288 0.2824 0.98758 0.0
C222 C 0.22436 0.29054 0.00541 0.0
N223 N 0.24771 0.30922 0.04405 0.0
C224 C 0.23365 0.29258 0.04484 0.0
C225 C 0.23197 0.2858 0.06535 0.0
C226 C 0.24503 0.29894 0.078 0.0
C227 C 0.25406 0.31286 0.06458 0.0
N228 N 0.27619 0.34462 0.0379 0.0
C229 C 0.27733 0.34583 0.05922 0.0
C230 C 0.28974 0.36266 0.06726 0.0
C231 C 0.29763 0.37213 0.04991 0.0
C232 C 0.29042 0.35979 0.03242 0.0
N233 N 0.23328 0.34402 0.02348 0.0
C234 C 0.19577 0.36471 0.02953 0.0
C235 C 0.2096 0.36135 0.04655 0.0
C236 C 0.228 0.35104 0.04321 0.0
C237 C 0.20171 0.35843 0.00937 0.0
C238 C 0.22034 0.34857 0.00674 0.0
N239 N 0.28023 0.30681 0.01513 0.0
C240 C 0.30675 0.28529 0.02922 0.0
C241 C 0.30957 0.27633 0.00909 0.0
C242 C 0.29832 0.28392 0.99197 0.0
C243 C 0.28395 0.29904 0.99529 0.0
C244 C 0.29217 0.30051 0.03185 0.0
H245 H 0.27575 0.30405 0.9816 0.0
H246 H 0.29045 0.30679 0.04755 0.0
H247 H 0.2373 0.34855 0.057 0.0
H248 H 0.22337 0.34423 0.99095 0.0
C249 C 0.24471 0.32375 0.96797 0.0
C250 C 0.29868 0.3611 0.01115 0.0
C251 C 0.22113 0.28314 0.02677 0.0
C252 C 0.2675 0.33021 0.07093 0.0
H253 H 0.29276 0.37928 0.97001 0.0
H254 H 0.26419 0.35729 0.94539 0.0
H255 H 0.21379 0.29168 0.95458 0.0
H256 H 0.20041 0.27016 0.98675 0.0
H257 H 0.22205 0.27291 0.0707 0.0
H258 H 0.24731 0.29866 0.09501 0.0
H259 H 0.29312 0.36718 0.08372 0.0
H260 H 0.30841 0.38583 0.05018 0.0
H261 H 0.2062 0.36636 0.06251 0.0
H262 H 0.19168 0.36033 0.9955 0.0
H263 H 0.31523 0.28016 0.043 0.0
H264 H 0.30046 0.27815 0.97595 0.0
C265 C 0.21026 0.65663 0.48768 0.0
C266 C 0.20703 0.64978 0.46671 0.0
C267 C 0.22126 0.66104 0.45536 0.0
C268 C 0.23225 0.67408 0.46999 0.0
N269 N 0.22615 0.67161 0.49007 0.0
Co270 Co 0.23668 0.68824 0.5161 0.0
N271 N 0.25688 0.70555 0.49925 0.0
C272 C 0.25959 0.70409 0.47812 0.0
C273 C 0.27539 0.71736 0.47134 0.0
C274 C 0.28356 0.72768 0.48923 0.0
C275 C 0.27224 0.71998 0.50598 0.0
N276 N 0.24704 0.70503 0.54207 0.0
C277 C 0.26314 0.71978 0.54462 0.0
C278 C 0.26578 0.72705 0.56552 0.0
C279 C 0.25089 0.71638 0.57661 0.0
C280 C 0.24011 0.70322 0.56195 0.0
N281 N 0.21697 0.67056 0.53301 0.0
C282 C 0.21455 0.67167 0.55417 0.0
C283 C 0.19986 0.65722 0.5611 0.0
C284 C 0.19215 0.64648 0.54323 0.0
C285 C 0.20263 0.65514 0.52646 0.0
N286 N 0.25904 0.66875 0.521 0.0
C287 C 0.29588 0.64785 0.52921 0.0
C288 C 0.28174 0.65154 0.54519 0.0
C289 C 0.26371 0.66212 0.54084 0.0
C290 C 0.29011 0.65328 0.50867 0.0
C291 C 0.27157 0.66313 0.50492 0.0
N292 N 0.2144 0.70808 0.51117 0.0
C293 C 0.18529 0.72726 0.52334 0.0
C294 C 0.18367 0.73727 0.5041 0.0
C295 C 0.19763 0.73208 0.48846 0.0
C296 C 0.21242 0.71745 0.49217 0.0
C297 C 0.20071 0.71299 0.52657 0.0
H298 H 0.22215 0.71412 0.47935 0.0
H299 H 0.20125 0.70617 0.54166 0.0
H300 H 0.25417 0.66532 0.5539 0.0
H301 H 0.26819 0.66682 0.48896 0.0
C302 C 0.24774 0.68933 0.46523 0.0
C303 C 0.19677 0.64979 0.5045 0.0
C304 C 0.27704 0.72644 0.52801 0.0
C305 C 0.22526 0.68738 0.56681 0.0
H306 H 0.19524 0.63828 0.46017 0.0
H307 H 0.22297 0.66024 0.43839 0.0
H308 H 0.2807 0.71895 0.45537 0.0
H309 H 0.29666 0.73928 0.48988 0.0
H310 H 0.27768 0.73839 0.57218 0.0
H311 H 0.24884 0.71739 0.59352 0.0
H312 H 0.19482 0.65523 0.57712 0.0
H313 H 0.17967 0.63421 0.54245 0.0
H314 H 0.28468 0.64683 0.56121 0.0
H315 H 0.30015 0.65091 0.49548 0.0
H316 H 0.17469 0.73029 0.53593 0.0
H317 H 0.19753 0.73948 0.47337 0.0
C318 C 0.77035 0.8383 0.48509 0.0
C319 C 0.77305 0.84059 0.46358 0.0
C320 C 0.75619 0.83016 0.45326 0.0
C321 C 0.74434 0.82184 0.4689 0.0
N322 N 0.75229 0.82673 0.48868 0.0
Co323 Co 0.74245 0.81442 0.51562 0.0
N324 N 0.71987 0.79625 0.50008 0.0
C325 C 0.71423 0.79673 0.47931 0.0
C326 C 0.69701 0.78371 0.47344 0.0
C327 C 0.69124 0.77441 0.49157 0.0
C328 C 0.70551 0.78219 0.50747 0.0
N329 N 0.73369 0.8013 0.54246 0.0
C330 C 0.71893 0.78573 0.54565 0.0
C331 C 0.71843 0.78075 0.56681 0.0
C332 C 0.73331 0.79378 0.57738 0.0
C333 C 0.74211 0.80579 0.56212 0.0
N334 N 0.76422 0.83349 0.5312 0.0
C335 C 0.76707 0.8362 0.55239 0.0
C336 C 0.78314 0.85061 0.55841 0.0
C337 C 0.79132 0.85715 0.53994 0.0
C338 C 0.77987 0.84609 0.52369 0.0
N339 N 0.72115 0.83567 0.51925 0.0
C340 C 0.68337 0.85609 0.52437 0.0
C341 C 0.69635 0.85186 0.54183 0.0
C342 C 0.715 0.84183 0.53895 0.0
C343 C 0.69097 0.85178 0.50427 0.0
C344 C 0.70989 0.84214 0.50213 0.0
N345 N 0.76315 0.79284 0.51189 0.0
C346 C 0.79417 0.77578 0.52342 0.0
C347 C 0.79236 0.7619 0.50572 0.0
C348 C 0.77539 0.76389 0.4914 0.0
C349 C 0.76144 0.77945 0.49453 0.0
C350 C 0.77937 0.7908 0.52633 0.0
H351 H 0.74933 0.78029 0.48259 0.0
H352 H 0.78136 0.80067 0.54034 0.0
H353 H 0.72379 0.83865 0.55296 0.0
H354 H 0.71459 0.83934 0.48637 0.0
C355 C 0.72644 0.8083 0.46549 0.0
C356 C 0.78569 0.84648 0.5016 0.0
C357 C 0.70495 0.77546 0.52922 0.0
C358 C 0.75705 0.82243 0.56593 0.0
H359 H 0.78611 0.84833 0.45593 0.0
H360 H 0.75341 0.8281 0.43632 0.0
H361 H 0.6897 0.78107 0.4578 0.0
H362 H 0.67809 0.76308 0.49289 0.0
H363 H 0.70821 0.76909 0.57391 0.0
H364 H 0.737 0.79465 0.59422 0.0
H365 H 0.78907 0.85487 0.57432 0.0
H366 H 0.80486 0.868 0.53858 0.0
H367 H 0.69199 0.85582 0.55779 0.0
H368 H 0.682 0.85489 0.49003 0.0
H369 H 0.80703 0.77531 0.53498 0.0
H370 H 0.77255 0.75339 0.47775 0.0
C371 C 0.50504 0.80029 0.83719 0.0
C372 C 0.48473 0.80287 0.84361 0.0
C373 C 0.47251 0.78605 0.83555 0.0
C374 C 0.48594 0.77423 0.8246 0.0
N375 N 0.50616 0.78216 0.82576 0.0
Co376 Co 0.53043 0.77159 0.81004 0.0
N377 N 0.51147 0.75073 0.79303 0.0
C378 C 0.49042 0.74724 0.79476 0.0
C379 C 0.4815 0.73242 0.78057 0.0
C380 C 0.4978 0.726 0.76912 0.0
C381 C 0.51589 0.73721 0.77713 0.0
N382 N 0.55477 0.76121 0.79439 0.0
C383 C 0.55522 0.74643 0.7786 0.0
C384 C 0.57566 0.74366 0.77266 0.0
C385 C 0.58856 0.75719 0.78505 0.0
C386 C 0.57535 0.76739 0.79787 0.0
N387 N 0.54913 0.7929 0.82672 0.0
C388 C 0.57037 0.79533 0.82664 0.0
C389 C 0.57859 0.81265 0.83805 0.0
C390 C 0.56155 0.82219 0.84529 0.0
C391 C 0.54388 0.81011 0.83781 0.0
N392 N 0.53475 0.75017 0.83169 0.0
C393 C 0.54184 0.7129 0.85201 0.0
C394 C 0.55841 0.72768 0.8493 0.0
C395 C 0.5545 0.74623 0.83933 0.0
C396 C 0.52152 0.71793 0.84645 0.0
C397 C 0.51833 0.73668 0.83685 0.0
N398 N 0.52618 0.79225 0.78827 0.0
C399 C 0.54004 0.81726 0.76391 0.0
C400 C 0.51976 0.81993 0.75572 0.0
C401 C 0.50278 0.80907 0.76465 0.0
C402 C 0.50631 0.79541 0.7807 0.0
C403 C 0.54288 0.80342 0.78015 0.0
H404 H 0.49273 0.78743 0.78666 0.0
H405 H 0.55868 0.80174 0.78576 0.0
H406 H 0.5678 0.75673 0.83738 0.0
H407 H 0.50245 0.73943 0.83307 0.0
C408 C 0.47943 0.75832 0.80973 0.0
C409 C 0.52241 0.8162 0.84051 0.0
C410 C 0.53685 0.7343 0.76917 0.0
C411 C 0.5817 0.78319 0.81291 0.0
H412 H 0.47904 0.81605 0.85219 0.0
H413 H 0.45556 0.78365 0.83611 0.0
H414 H 0.46507 0.727 0.77869 0.0
H415 H 0.49647 0.71438 0.7563 0.0
H416 H 0.58074 0.73287 0.76068 0.0
H417 H 0.60554 0.75937 0.78473 0.0
H418 H 0.59493 0.81842 0.8397 0.0
H419 H 0.56199 0.83685 0.85424 0.0
H420 H 0.57438 0.72458 0.85404 0.0
H421 H 0.50816 0.70713 0.84898 0.0
H422 H 0.55368 0.82537 0.75749 0.0
H423 H 0.48674 0.81102 0.75922 0.0
C424 C 0.54381 0.29038 0.64494 0.0
C425 C 0.56439 0.2956 0.63957 0.0
C426 C 0.57658 0.28143 0.64858 0.0
C427 C 0.56288 0.26852 0.65903 0.0
N428 N 0.54258 0.27333 0.65691 0.0
Co429 Co 0.51781 0.2601 0.67132 0.0
N430 N 0.53635 0.24236 0.68842 0.0
C431 C 0.55751 0.24178 0.6875 0.0
C432 C 0.56607 0.2287 0.70151 0.0
C433 C 0.54941 0.22036 0.71205 0.0
C434 C 0.53151 0.22875 0.70372 0.0
N435 N 0.49302 0.24679 0.68572 0.0
C436 C 0.49219 0.23246 0.701 0.0
C437 C 0.47157 0.22696 0.70604 0.0
C438 C 0.45896 0.23831 0.69372 0.0
C439 C 0.47247 0.25002 0.68181 0.0
N440 N 0.49929 0.278 0.65456 0.0
C441 C 0.47802 0.27782 0.65437 0.0
C442 C 0.46989 0.29238 0.6417 0.0
C443 C 0.48704 0.30291 0.63384 0.0
C444 C 0.50466 0.29414 0.6423 0.0
N445 N 0.5145 0.23803 0.64864 0.0
C446 C 0.50749 0.20235 0.62257 0.0
C447 C 0.49144 0.2155 0.62569 0.0
C448 C 0.4953 0.23322 0.63861 0.0
C449 C 0.52764 0.20813 0.63072 0.0
C450 C 0.53086 0.22623 0.64344 0.0
N451 N 0.52103 0.28215 0.69364 0.0
C452 C 0.50597 0.30952 0.71364 0.0
C453 C 0.52565 0.3159 0.72291 0.0
C454 C 0.54301 0.30499 0.71731 0.0
C455 C 0.54038 0.28833 0.70262 0.0
C456 C 0.50397 0.2925 0.69952 0.0
H457 H 0.55417 0.28073 0.69868 0.0
H458 H 0.4885 0.2881 0.69339 0.0
H459 H 0.48212 0.24202 0.64091 0.0
H460 H 0.54645 0.22974 0.64959 0.0
C461 C 0.56895 0.25401 0.67353 0.0
C462 C 0.5261 0.30281 0.63979 0.0
C463 C 0.51035 0.22336 0.71099 0.0
C464 C 0.46632 0.26458 0.6673 0.0
H465 H 0.57028 0.30873 0.63087 0.0
H466 H 0.59358 0.28139 0.64863 0.0
H467 H 0.58249 0.22573 0.70391 0.0
H468 H 0.55041 0.20941 0.72456 0.0
H469 H 0.46619 0.21585 0.71742 0.0
H470 H 0.44195 0.23812 0.69354 0.0
H471 H 0.45352 0.29548 0.63911 0.0
H472 H 0.4867 0.31606 0.62369 0.0
H473 H 0.47561 0.21135 0.61942 0.0
H474 H 0.54046 0.19814 0.62839 0.0
H475 H 0.49206 0.31761 0.71717 0.0
H476 H 0.55852 0.30904 0.72439 0.0
C477 C 0.83275 0.48401 0.77001 0.0
C478 C 0.83408 0.46302 0.77373 0.0
C479 C 0.82348 0.45225 0.75728 0.0
C480 C 0.81599 0.46714 0.74467 0.0
N481 N 0.82158 0.48683 0.75176 0.0
Co482 Co 0.80958 0.51289 0.74163 0.0
N483 N 0.79011 0.49681 0.72055 0.0
C484 C 0.79005 0.47625 0.71545 0.0
C485 C 0.77668 0.46991 0.69874 0.0
C486 C 0.76763 0.48747 0.69279 0.0
C487 C 0.77571 0.50353 0.7066 0.0
N488 N 0.79664 0.53888 0.73268 0.0
C489 C 0.77983 0.54132 0.71943 0.0
C490 C 0.7746 0.5619 0.71952 0.0
C491 C 0.78885 0.57288 0.73289 0.0
C492 C 0.80176 0.55844 0.74047 0.0
N493 N 0.82987 0.529 0.76179 0.0
C494 C 0.83326 0.5499 0.76382 0.0
C495 C 0.84851 0.55628 0.77891 0.0
C496 C 0.85472 0.53838 0.78742 0.0
C497 C 0.84262 0.52211 0.77716 0.0
N498 N 0.83042 0.51572 0.71913 0.0
C499 C 0.85065 0.52092 0.6807 0.0
C500 C 0.84823 0.53789 0.69452 0.0
C501 C 0.83807 0.53498 0.71341 0.0
C502 C 0.8451 0.50104 0.6877 0.0
C503 C 0.83556 0.49882 0.70712 0.0
N504 N 0.78869 0.5101 0.76376 0.0
C505 C 0.77397 0.52284 0.79591 0.0
C506 C 0.75954 0.50554 0.79583 0.0
C507 C 0.76004 0.49056 0.77936 0.0
C508 C 0.77483 0.49296 0.76381 0.0
C509 C 0.78799 0.52502 0.77962 0.0
H510 H 0.77474 0.48074 0.75198 0.0
H511 H 0.79817 0.53887 0.78024 0.0
H512 H 0.83587 0.54869 0.72259 0.0
H513 H 0.83172 0.48332 0.7116 0.0
C514 C 0.80174 0.46313 0.72756 0.0
C515 C 0.84135 0.5009 0.78455 0.0
C516 C 0.76862 0.52466 0.70638 0.0
C517 C 0.81916 0.56284 0.75438 0.0
H518 H 0.84111 0.45599 0.78725 0.0
H519 H 0.82048 0.43555 0.75544 0.0
H520 H 0.77371 0.45435 0.69184 0.0
H521 H 0.75621 0.48823 0.67984 0.0
H522 H 0.76182 0.56841 0.71084 0.0
H523 H 0.7897 0.58943 0.73666 0.0
H524 H 0.85337 0.57206 0.78421 0.0
H525 H 0.86579 0.53746 0.80066 0.0
H526 H 0.85336 0.55355 0.69045 0.0
H527 H 0.84707 0.48724 0.67791 0.0
H528 H 0.77458 0.53475 0.80845 0.0
H529 H 0.74894 0.47709 0.77819 0.0
C530 C 0.14866 0.02484 0.76898 0.0
C531 C 0.14042 0.04423 0.77025 0.0
C532 C 0.15132 0.05649 0.75657 0.0
C533 C 0.16482 0.04363 0.74709 0.0
N534 N 0.16243 0.02378 0.75318 0.0
Co535 Co 0.17677 0.99925 0.74179 0.0
N536 N 0.19504 0.0172 0.72365 0.0
C537 C 0.19397 0.0379 0.72114 0.0
C538 C 0.20758 0.04583 0.70671 0.0
C539 C 0.21785 0.02923 0.69942 0.0
C540 C 0.20999 0.01201 0.70997 0.0
N541 N 0.19159 0.97463 0.7311 0.0
C542 C 0.20733 0.9735 0.71722 0.0
C543 C 0.21323 0.95325 0.71449 0.0
C544 C 0.20057 0.94114 0.72679 0.0
C545 C 0.18779 0.9546 0.73648 0.0
N546 N 0.15807 0.98142 0.75942 0.0
C547 C 0.15567 0.96048 0.75862 0.0
C548 C 0.13924 0.95289 0.77018 0.0
C549 C 0.13135 0.97011 0.77949 0.0
C550 C 0.14426 0.9871 0.77399 0.0
N551 N 0.15564 0.9952 0.71789 0.0
C552 C 0.12865 0.9892 0.68196 0.0
C553 C 0.13554 0.97228 0.6926 0.0
C554 C 0.14895 0.97561 0.71031 0.0
C555 C 0.13437 0.00915 0.69014 0.0
C556 C 0.14775 0.01177 0.708 0.0
N557 N 0.19741 0.00316 0.76549 0.0
C558 C 0.21457 0.98968 0.79604 0.0
C559 C 0.22493 0.00909 0.80082 0.0
C560 C 0.22124 0.02553 0.78769 0.0
C561 C 0.20744 0.02225 0.7702 0.0
C562 C 0.20105 0.98704 0.77832 0.0
H563 H 0.205 0.03531 0.76071 0.0
H564 H 0.19354 0.97188 0.77538 0.0
H565 H 0.15418 0.96197 0.71691 0.0
H566 H 0.15186 0.02739 0.71288 0.0
C567 C 0.17983 0.04944 0.73238 0.0
C568 C 0.1446 0.00814 0.78383 0.0
C569 C 0.21682 0.99101 0.70593 0.0
C570 C 0.17055 0.94866 0.74875 0.0
H571 H 0.12846 0.04925 0.78067 0.0
H572 H 0.14979 0.07285 0.75407 0.0
H573 H 0.20959 0.06174 0.70182 0.0
H574 H 0.22955 0.02974 0.68741 0.0
H575 H 0.22517 0.94772 0.70434 0.0
H576 H 0.20027 0.92442 0.72799 0.0
H577 H 0.13402 0.93679 0.77216 0.0
H578 H 0.11814 0.97004 0.78979 0.0
H579 H 0.13165 0.95649 0.6866 0.0
H580 H 0.12914 0.02272 0.68237 0.0
H581 H 0.2169 0.97655 0.80589 0.0
H582 H 0.2293 0.04074 0.79059 0.0
C583 C 0.72514 0.16814 0.99348 0.0
C584 C 0.72166 0.16072 0.97272 0.0
C585 C 0.73453 0.1728 0.96067 0.0
C586 C 0.74508 0.18676 0.97476 0.0
N587 N 0.73997 0.18408 0.99512 0.0
Co588 Co 0.7512 0.20067 0.02091 0.0
N589 N 0.76908 0.2193 0.00323 0.0
C590 C 0.76951 0.21924 0.98185 0.0
C591 C 0.78372 0.23385 0.97443 0.0
C592 C 0.79323 0.2435 0.9921 0.0
C593 C 0.78433 0.23402 0.00936 0.0
N594 N 0.76295 0.21693 0.04676 0.0
C595 C 0.77944 0.23127 0.04869 0.0
C596 C 0.78417 0.23725 0.06971 0.0
C597 C 0.77023 0.22615 0.08152 0.0
C598 C 0.75797 0.21399 0.06712 0.0
N599 N 0.73314 0.18208 0.03853 0.0
C600 C 0.73163 0.18296 0.05979 0.0
C601 C 0.71716 0.16852 0.06714 0.0
C602 C 0.70857 0.15808 0.04944 0.0
C603 C 0.71844 0.16679 0.03235 0.0
N604 N 0.77462 0.18202 0.02361 0.0
C605 C 0.81266 0.16249 0.02825 0.0
C606 C 0.80013 0.1658 0.04563 0.0
C607 C 0.78114 0.17529 0.04291 0.0
C608 C 0.80486 0.16749 0.00831 0.0
C609 C 0.78605 0.17721 0.00639 0.0
N610 N 0.72787 0.21977 0.01809 0.0
C611 C 0.70332 0.24261 0.03371 0.0
C612 C 0.69678 0.24897 0.01377 0.0
C613 C 0.70568 0.24003 0.99607 0.0
C614 C 0.72103 0.22569 -0.00144 0.0
C615 C 0.71857 0.22793 0.03549 0.0
H616 H 0.72723 0.21982 0.98435 0.0
H617 H 0.72264 0.22351 0.0511 0.0
H618 H 0.77242 0.17777 0.05676 0.0
H619 H 0.78154 0.1814 0.99087 0.0
C620 C 0.75846 0.20362 0.9693 0.0
C621 C 0.7119 0.16163 0.01052 0.0
C622 C 0.79178 0.23857 0.03117 0.0
C623 C 0.74332 0.19809 0.07232 0.0
H624 H 0.71022 0.14852 0.96689 0.0
H625 H 0.73542 0.17209 0.9436 0.0
H626 H 0.78745 0.23649 0.95814 0.0
H627 H 0.80582 0.25562 0.99222 0.0
H628 H 0.79687 0.24794 0.07594 0.0
H629 H 0.76982 0.22614 0.09861 0.0
H630 H 0.71289 0.1663 0.08335 0.0
H631 H 0.69602 0.14592 0.0491 0.0
H632 H 0.80532 0.16199 0.06142 0.0
H633 H 0.81352 0.16448 0.99421 0.0
H634 H 0.69662 0.24881 0.04792 0.0
H635 H 0.70126 0.24447 0.98026 0.0
O636 O 0.06526 0.10247 0.06949 0.0
Mg637 Mg 0.08075 0.08416 0.04641 0.0
O638 O 0.04161 0.07641 0.06925 0.0
Mg639 Mg 0.05461 0.06607 0.03677 0.0
O640 O 0.08807 0.05591 0.05343 0.0
O641 O 0.10945 0.08456 0.06007 0.0
O642 O 0.0687 0.05583 0.00415 0.0
O643 O 0.04592 0.03169 0.04483 0.0
Mg644 Mg 0.01945 0.04294 0.00326 0.0
O645 O 0.02242 0.06973 0.02161 0.0
O646 O 0.04344 0.04284 0.98135 0.0
O647 O 0.01979 0.01775 0.02353 0.0
O648 O 0.9943 0.06165 0.00058 0.0
C649 C 0.07579 0.10799 0.01698 0.0
C650 C 0.04937 0.09357 0.07759 0.0
C651 C 0.10611 0.06471 0.06019 0.0
C652 C 0.06264 0.04801 0.98589 0.0
C653 C 0.0329 0.01651 0.03893 0.0
C654 C 0.00403 0.0741 0.01459 0.0
O655 O 0.08944 0.09486 0.0163 0.0
O656 O 0.05933 0.10281 0.02687 0.0
O657 O 0.96292 0.46542 0.08976 0.0
Mg658 Mg 0.93638 0.45423 0.07009 0.0
O659 O 0.96964 0.4443 0.06404 0.0
Mg660 Mg 0.94853 0.45913 0.03722 0.0
O661 O 0.91581 0.47007 0.05322 0.0
O662 O 0.91205 0.46167 0.0872 0.0
O663 O 0.92944 0.47072 0.00739 0.0
O664 O 0.9623 0.4916 0.04705 0.0
Mg665 Mg 0.97564 0.47531 0.00223 0.0
O666 O 0.97975 0.45068 0.02121 0.0
O667 O 0.9505 0.47101 0.98035 0.0
O668 O 0.97924 0.50405 0.01975 0.0
O669 O 0.00144 0.45968 0.99548 0.0
C670 C 0.92907 0.41489 0.04389 0.0
C671 C 0.97378 0.45122 0.08284 0.0
C672 C 0.905 0.46989 0.0704 0.0
C673 C 0.9324 0.47209 0.98759 0.0
C674 C 0.97258 0.50629 0.03831 0.0
C675 C 0.99668 0.44773 0.01079 0.0
O676 O 0.93097 0.42174 0.06295 0.0
O677 O 0.93398 0.42672 0.02895 0.0
O678 O 0.06511 0.9359 0.3907 0.0
Mg679 Mg 0.04144 0.91956 0.40835 0.0
O680 O 0.06646 0.9601 0.41587 0.0
Mg681 Mg 0.03459 0.9467 0.42556 0.0
O682 O 0.04999 0.91375 0.43797 0.0
O683 O 0.05411 0.89211 0.41021 0.0
O684 O 0.00175 0.93191 0.43575 0.0
O685 O 0.04544 0.95471 0.45959 0.0
Mg686 Mg 0.00848 0.97907 0.44619 0.0
O687 O 0.02388 0.98057 0.41821 0.0
O688 O 0.98255 0.9573 0.44673 0.0
O689 O 0.02992 0.98187 0.47248 0.0
O690 O 0.00357 0.00521 0.43053 0.0
C691 C 0.01201 0.92503 0.38262 0.0
C692 C 0.07396 0.95231 0.39937 0.0
C693 C 0.05687 0.89652 0.43011 0.0
C694 C 0.98454 0.93823 0.44255 0.0
C695 C 0.04327 0.96826 0.47422 0.0
C696 C 0.01623 0.99883 0.41659 0.0
O697 O 0.01063 0.91074 0.39558 0.0
O698 O 0.02305 0.94143 0.38865 0.0
O699 O 0.90596 0.58775 0.42384 0.0
Mg700 Mg 0.92309 0.56984 0.40269 0.0
O701 O 0.93049 0.58399 0.44817 0.0
Mg702 Mg 0.94364 0.55375 0.43127 0.0
O703 O 0.95497 0.57122 0.40014 0.0
O704 O 0.93266 0.5891 0.38051 0.0
O705 O 0.95592 0.52262 0.41281 0.0
O706 O 0.97671 0.56631 0.44289 0.0
Mg707 Mg 0.9617 0.52305 0.45849 0.0
O708 O 0.93516 0.53854 0.46303 0.0
O709 O 0.95832 0.49862 0.43656 0.0
O710 O 0.99038 0.54115 0.46062 0.0
O711 O 0.94794 0.51592 0.48564 0.0
C712 C 0.9005 0.53509 0.40413 0.0
C713 C 0.91392 0.59261 0.44201 0.0
C714 C 0.9513 0.58334 0.38456 0.0
C715 C 0.95845 0.50363 0.41752 0.0
C716 C 0.99198 0.55906 0.45304 0.0
C717 C 0.93368 0.52829 0.48032 0.0
O718 O 0.90767 0.54342 0.38797 0.0
O719 O 0.90934 0.53993 0.42207 0.0
O720 O 0.42398 0.91432 0.57447 0.0
Mg721 Mg 0.40357 0.93217 0.55591 0.0
O722 O 0.4464 0.94077 0.57155 0.0
Mg723 Mg 0.43039 0.94957 0.54003 0.0
O724 O 0.39897 0.96295 0.55732 0.0
O725 O 0.38219 0.939 0.57688 0.0
O726 O 0.41351 0.95905 0.50706 0.0
O727 O 0.44236 0.98336 0.54992 0.0
Mg728 Mg 0.45867 0.96437 0.51156 0.0
O729 O 0.46358 0.938 0.52758 0.0
O730 O 0.43922 0.96367 0.48509 0.0
O731 O 0.46525 0.99324 0.52646 0.0
O732 O 0.48532 0.95205 0.5038 0.0
C733 C 0.40083 0.90735 0.52375 0.0
C734 C 0.44124 0.92389 0.58023 0.0
C735 C 0.38445 0.95774 0.57069 0.0
C736 C 0.41985 0.9629 0.48849 0.0
C737 C 0.45526 0.99706 0.54284 0.0
C738 C 0.48096 0.93781 0.51705 0.0
O739 O 0.38621 0.91761 0.53045 0.0
O740 O 0.41969 0.91418 0.52857 0.0
O741 O 0.54027 0.56185 0.61464 0.0
Mg742 Mg 0.56117 0.57209 0.59128 0.0
O743 O 0.52473 0.57509 0.5879 0.0
Mg744 Mg 0.5411 0.55754 0.55911 0.0
O745 O 0.57561 0.55163 0.57264 0.0
O746 O 0.59065 0.56875 0.60158 0.0
O747 O 0.55483 0.54386 0.52834 0.0
O748 O 0.53249 0.52517 0.5724 0.0
Mg749 Mg 0.50707 0.52945 0.5313 0.0
O750 O 0.50841 0.5598 0.54327 0.0
O751 O 0.53028 0.52528 0.50884 0.0
O752 O 0.50523 0.50796 0.55577 0.0
O753 O 0.48148 0.54548 0.5231 0.0
C754 C 0.55833 0.60501 0.55973 0.0
C755 C 0.52627 0.57307 0.60785 0.0
C756 C 0.59158 0.55567 0.58583 0.0
C757 C 0.54904 0.53289 0.51174 0.0
C758 C 0.51932 0.50943 0.57046 0.0
C759 C 0.48995 0.56111 0.53435 0.0
O760 O 0.56041 0.60249 0.57945 0.0
O761 O 0.55219 0.58967 0.54729 0.0
O762 O 0.59973 0.47019 0.95736 0.0
Mg763 Mg 0.57751 0.44769 0.94269 0.0
O764 O 0.57726 0.48235 0.93595 0.0
Mg765 Mg 0.54823 0.46339 0.95059 0.0
O766 O 0.56039 0.42861 0.9607 0.0
O767 O 0.59089 0.42085 0.94613 0.0
O768 O 0.51689 0.44795 0.96296 0.0
O769 O 0.5621 0.47263 0.9834 0.0
Mg770 Mg 0.52563 0.49437 0.97364 0.0
O771 O 0.53652 0.49701 0.94334 0.0
O772 O 0.50098 0.47252 0.98 0.0
O773 O 0.5493 0.50069 0.9973 0.0
O774 O 0.51644 0.51978 0.95947 0.0
C775 C 0.5504 0.44889 0.90366 0.0
C776 C 0.59596 0.48302 0.94347 0.0
C777 C 0.57559 0.41607 0.95816 0.0
C778 C 0.50155 0.45378 0.97363 0.0
C779 C 0.56227 0.48672 -0.00214 0.0
C780 C 0.52767 0.51477 0.94372 0.0
O781 O 0.56948 0.44836 0.90975 0.0
O782 O 0.5366 0.45232 0.91718 0.0
O783 O 0.43239 0.11958 0.91966 0.0
Mg784 Mg 0.4464 0.10423 0.89513 0.0
O785 O 0.44541 0.09979 0.94413 0.0
Mg786 Mg 0.46115 0.06994 0.92925 0.0
O787 O 0.4703 0.08378 0.89615 0.0
O788 O 0.4768 0.11548 0.90823 0.0
O789 O 0.47499 0.03751 0.91373 0.0
O790 O 0.49325 0.08475 0.94133 0.0
Mg791 Mg 0.4757 0.0446 0.95404 0.0
O792 O 0.44995 0.05908 0.96382 0.0
O793 O 0.46925 0.01614 0.93917 0.0
O794 O 0.50682 0.05756 0.95445 0.0
O795 O 0.47041 0.0406 0.9846 0.0
C796 C 0.41714 0.06382 0.90241 0.0
C797 C 0.43498 0.11525 0.9388 0.0
C798 C 0.4809 0.10138 0.89469 0.0
C799 C 0.47382 0.01876 0.92028 0.0
C800 C 0.50889 0.07627 0.94935 0.0
C801 C 0.45399 0.05096 0.98203 0.0
O802 O 0.42159 0.08028 0.89256 0.0
O803 O 0.42932 0.05718 0.91656 0.0
H804 H 0.06609 0.18606 0.36652 0.0
H805 H 0.06742 0.14957 0.37607 0.0
H806 H 0.01072 0.13372 0.3382 0.0
H807 H 0.00948 0.16995 0.32835 0.0
H808 H 0.03788 0.1249 0.39694 0.0
H809 H 0.0498 0.09022 0.31734 0.0
H810 H 0.05364 0.11783 0.32332 0.0
H811 H 0.02756 0.10594 0.31794 0.0
C812 C 0.05401 0.17477 0.36008 0.0
C813 C 0.03764 0.18101 0.34671 0.0
C814 C 0.05476 0.15391 0.3656 0.0
C815 C 0.03937 0.13876 0.3576 0.0
C816 C 0.02302 0.14497 0.34428 0.0
H817 H 0.99199 0.01708 0.38768 0.0
H818 H 0.00066 0.05036 0.37143 0.0
C819 C 0.02217 0.1658 0.33889 0.0
C820 C 0.03975 0.11664 0.36384 0.0
H821 H 0.03863 0.0665 0.34378 0.0
C822 C 0.03838 0.11217 0.38534 0.0
C823 C 0.04045 0.09994 0.34873 0.0
C824 C 0.04316 0.10369 0.32556 0.0
C825 C 0.0368 0.09153 0.392 0.0
C826 C 0.03676 0.07486 0.37682 0.0
C827 C 0.03868 0.07929 0.35539 0.0
C828 C 0.03309 0.05286 0.38296 0.0
C829 C 0.03434 0.08759 0.41517 0.0
C830 C 0.04876 0.04264 0.39388 0.0
C831 C 0.04395 0.02327 0.40271 0.0
C832 C 0.02334 0.014 0.40094 0.0
C833 C 0.0081 0.02364 0.38884 0.0
C834 C 0.01299 0.04276 0.37975 0.0
H835 H 0.03273 0.10216 0.42472 0.0
H836 H 0.02027 0.07687 0.41732 0.0
H837 H 0.0483 0.07998 0.42138 0.0
H838 H 0.06437 0.05019 0.39658 0.0
H839 H 0.05582 0.0165 0.41247 0.0
H840 H 0.0298 0.34483 0.31258 0.0
H841 H 0.02259 0.38034 0.32441 0.0
H842 H 0.98849 0.35549 0.37664 0.0
H843 H 0.9968 0.32031 0.36554 0.0
H844 H 0.98789 0.39982 0.32811 0.0
H845 H 0.02478 0.39896 0.40816 0.0
H846 H 0.02822 0.37876 0.38838 0.0
H847 H 0.00521 0.37782 0.40427 0.0
C848 C 0.0209 0.34705 0.32668 0.0
C849 C 0.01362 0.32976 0.33797 0.0
C850 C 0.01672 0.36735 0.33342 0.0
C851 C 0.00523 0.37086 0.35169 0.0
C852 C -0.00214 0.35348 0.36285 0.0
H853 H 0.94218 0.46406 0.41703 0.0
H854 H 0.95506 0.43377 0.39876 0.0
C855 C 0.00231 0.33327 0.3563 0.0
C856 C 0.00042 0.39249 0.35882 0.0
H857 H -0.0001 0.42506 0.40273 0.0
C858 C 0.99084 0.40543 0.34436 0.0
C859 C 0.00451 0.4002 0.37995 0.0
C860 C 0.01646 0.38828 0.39598 0.0
C861 C 0.98419 0.42512 0.35073 0.0
C862 C 0.98707 0.43214 0.37212 0.0
C863 C 0.99745 0.41964 0.38635 0.0
C864 C 0.97774 0.45131 0.38068 0.0
C865 C 0.97332 0.43798 0.33478 0.0
C866 C 0.98568 0.47155 0.37614 0.0
C867 C 0.97813 0.48917 0.3866 0.0
C868 C 0.9626 0.48674 0.4018 0.0
C869 C 0.95402 0.46652 0.40532 0.0
C870 C 0.96149 0.44912 0.39498 0.0
H871 H 0.97053 0.42958 0.31921 0.0
H872 H 0.95799 0.44247 0.34075 0.0
H873 H 0.98317 0.45251 0.33248 0.0
H874 H -0.00163 0.47367 0.36531 0.0
H875 H 0.98542 0.50445 0.38389 0.0
H876 H 0.02619 0.82438 0.07606 0.0
H877 H 0.03062 0.86036 0.06443 0.0
H878 H 0.0408 0.88232 0.12947 0.0
H879 H 0.03713 0.8464 0.14092 0.0
H880 H 0.00496 0.89083 0.07629 0.0
H881 H 0.08787 0.91472 0.10095 0.0
H882 H 0.07792 0.88781 0.09902 0.0
H883 H 0.07217 0.90405 0.12148 0.0
C884 C 0.02976 0.83697 0.08769 0.0
C885 C 0.03154 0.83296 0.10924 0.0
C886 C 0.0323 0.85738 0.08113 0.0
C887 C 0.03641 0.8739 0.0961 0.0
C888 C 0.03828 0.86976 0.11766 0.0
H889 H 0.04076 0.00866 0.08066 0.0
H890 H 0.04169 0.9742 0.09619 0.0
C891 C 0.03603 0.84936 0.12417 0.0
C892 C 0.03666 0.89553 0.08931 0.0
H893 H 0.06681 0.94122 0.0887 0.0
C894 C 0.01851 0.90183 0.07892 0.0
C895 C 0.05424 0.90988 0.09321 0.0
C896 C 0.07423 0.90378 0.10413 0.0
C897 C 0.01746 0.92211 0.07208 0.0
C898 C 0.03525 0.93632 0.07532 0.0
C899 C 0.05325 0.93022 0.08621 0.0
C900 C 0.03576 0.9571 0.06627 0.0
C901 C 0.99721 0.92813 0.06156 0.0
C902 C 0.03264 0.95874 0.04439 0.0
C903 C 0.03158 0.97815 0.0357 0.0
C904 C 0.03428 0.99631 0.04865 0.0
C905 C 0.03848 0.9948 0.07045 0.0
C906 C 0.03906 0.97522 0.07927 0.0
H907 H 0.9835 0.91804 0.06633 0.0
H908 H 0.99425 0.94458 0.06549 0.0
H909 H -0.00173 0.9262 0.04414 0.0
H910 H 0.0308 0.94495 0.03403 0.0
H911 H 0.02886 0.97897 0.01876 0.0
H912 H -0.00178 0.69701 0.08289 0.0
H913 H 0.9904 0.66027 0.07193 0.0
H914 H 0.99569 0.6431 0.13714 0.0
H915 H 0.00333 0.67987 0.14807 0.0
H916 H 0.01916 0.62843 0.08216 0.0
H917 H 0.93893 0.61297 0.11308 0.0
H918 H 0.94962 0.63894 0.10814 0.0
H919 H 0.95884 0.62574 0.13078 0.0
C920 C 0.99761 0.68529 0.09474 0.0
C921 C 0.00138 0.69083 0.11617 0.0
C922 C 0.99307 0.66449 0.08858 0.0
C923 C 0.99223 0.64921 0.10383 0.0
C924 C 0.99593 0.65482 0.12528 0.0
H925 H 0.97546 0.51442 0.08092 0.0
H926 H 0.97987 0.54881 0.09912 0.0
C927 C 0.00047 0.67561 0.13144 0.0
C928 C 0.98919 0.62725 0.09697 0.0
H929 H 0.95423 0.58485 0.09584 0.0
C930 C 0.00502 0.61884 0.08521 0.0
C931 C 0.97084 0.6149 0.10136 0.0
C932 C 0.95346 0.62352 0.11394 0.0
C933 C 0.00278 0.59838 0.07717 0.0
C934 C 0.98404 0.58627 0.08069 0.0
C935 C 0.9685 0.59436 0.09316 0.0
C936 C 0.97993 0.56571 0.07018 0.0
C937 C 0.02038 0.58992 0.06476 0.0
C938 C 0.97823 0.56414 0.04805 0.0
C939 C 0.97621 0.54472 0.03769 0.0
C940 C 0.97538 0.52664 0.04938 0.0
C941 C 0.97625 0.52822 0.07162 0.0
C942 C 0.97863 0.54773 0.08199 0.0
H943 H 0.0356 0.599 0.06832 0.0
H944 H 0.02233 0.57337 0.06822 0.0
H945 H 0.01658 0.59086 0.04759 0.0
H946 H 0.97877 0.57797 0.03879 0.0
H947 H 0.97501 0.54385 0.02056 0.0
H948 H 0.33449 0.04618 0.14648 0.0
H949 H 0.34585 0.05186 0.11035 0.0
H950 H 0.40215 0.02022 0.12396 0.0
H951 H 0.39038 0.01383 0.15977 0.0
H952 H 0.37966 0.0726 0.09529 0.0
H953 H 0.38088 0.98966 0.07048 0.0
H954 H 0.36874 0.99801 0.09441 0.0
H955 H 0.39675 0.99547 0.09413 0.0
C956 C 0.34928 0.04045 0.14167 0.0
C957 C 0.36155 0.02947 0.15578 0.0
C958 C 0.35573 0.04367 0.12106 0.0
C959 C 0.37463 0.03608 0.11425 0.0
C960 C 0.38717 0.02563 0.1286 0.0
H961 H 0.46423 0.04553 0.02316 0.0
H962 H 0.44116 0.0437 0.05287 0.0
C963 C 0.38055 0.0221 0.14908 0.0
C964 C 0.38154 0.03936 0.09233 0.0
H965 H 0.40106 0.01399 0.04977 0.0
C966 C 0.38394 0.05975 0.08514 0.0
C967 C 0.38674 0.02258 0.07889 0.0
C968 C 0.38291 0.0002 0.08478 0.0
C969 C 0.39289 0.06387 0.06557 0.0
C970 C 0.39959 0.0472 0.05299 0.0
C971 C 0.39599 0.02676 0.05955 0.0
C972 C 0.41326 0.05066 0.03481 0.0
C973 C 0.39628 0.08602 0.05891 0.0
C974 C 0.40525 0.05569 0.01478 0.0
C975 C 0.41856 0.0568 0.99749 0.0
C976 C 0.43992 0.05271 0.00012 0.0
C977 C 0.44784 0.04852 0.02045 0.0
C978 C 0.43468 0.04749 0.03753 0.0
H979 H 0.39003 0.09728 0.0704 0.0
H980 H 0.41336 0.08998 0.05729 0.0
H981 H 0.3884 0.08769 0.04319 0.0
H982 H 0.38869 0.05811 0.01241 0.0
H983 H 0.41201 0.06002 0.98202 0.0
H984 H 0.66279 0.49746 0.17564 0.0
H985 H 0.65299 0.49423 0.13785 0.0
H986 H 0.59154 0.46752 0.1527 0.0
H987 H 0.60101 0.47182 0.19064 0.0
H988 H 0.63942 0.46099 0.11111 0.0
H989 H 0.5782 0.51814 0.1198 0.0
H990 H 0.59706 0.51378 0.14082 0.0
H991 H 0.57446 0.49584 0.13575 0.0
C992 C 0.64723 0.49087 0.17069 0.0
C993 C 0.63251 0.48495 0.18568 0.0
C994 C 0.64172 0.48891 0.14926 0.0
C995 C 0.62151 0.48089 0.14268 0.0
C996 C 0.6071 0.47407 0.15765 0.0
H997 H 0.56497 0.45276 0.02065 0.0
H998 H 0.58381 0.45039 0.05474 0.0
C999 C 0.61249 0.47638 0.17915 0.0
C1000 C 0.61517 0.48102 0.12021 0.0
H1001 H 0.58069 0.50187 0.08603 0.0
C1002 C 0.62659 0.4699 0.10555 0.0
C1003 C 0.59867 0.493 0.11319 0.0
C1004 C 0.58651 0.50603 0.12817 0.0
C1005 C 0.62161 0.4702 0.08386 0.0
C1006 C 0.60491 0.48187 0.07701 0.0
C1007 C 0.59363 0.49309 0.0916 0.0
C1008 C 0.59779 0.4819 0.05486 0.0
C1009 C 0.63421 0.45833 0.06835 0.0
C1010 C 0.59963 0.50043 0.04391 0.0
C1011 C 0.58848 0.50198 0.02478 0.0
C1012 C 0.57574 0.48491 0.01654 0.0
C1013 C 0.57493 0.46601 0.02687 0.0
C1014 C 0.58576 0.46458 0.04612 0.0
H1015 H 0.64811 0.45181 0.0761 0.0
H1016 H 0.62408 0.44533 0.06072 0.0
H1017 H 0.63963 0.46867 0.05567 0.0
H1018 H 0.6088 0.51393 0.0507 0.0
H1019 H 0.58937 0.51655 0.01672 0.0
H1020 H 0.31419 0.98367 0.30966 0.0
H1021 H 0.32184 0.9762 0.34698 0.0
H1022 H 0.38645 0.99878 0.34064 0.0
H1023 H 0.3789 0.00593 0.30333 0.0
H1024 H 0.35944 0.95066 0.36448 0.0
H1025 H 0.35885 0.03361 0.39174 0.0
H1026 H 0.34454 0.02337 0.36807 0.0
H1027 H 0.3726 0.02805 0.368 0.0
C1028 C 0.33003 0.98688 0.3163 0.0
C1029 C 0.34593 0.99565 0.30387 0.0
C1030 C 0.33437 0.98263 0.33752 0.0
C1031 C 0.35464 0.98716 0.34658 0.0
C1032 C 0.37066 0.99537 0.33397 0.0
H1033 H 0.42957 0.98895 0.45754 0.0
H1034 H 0.40976 0.99441 0.42506 0.0
C1035 C 0.36636 0.99948 0.31275 0.0
C1036 C 0.35917 0.9838 0.36933 0.0
H1037 H 0.3716 0.01014 0.41631 0.0
C1038 C 0.36176 0.96356 0.37597 0.0
C1039 C 0.3622 0.00071 0.38417 0.0
C1040 C 0.35931 0.0227 0.3778 0.0
C1041 C 0.36842 0.95991 0.39689 0.0
C1042 C 0.37205 0.97692 0.41165 0.0
C1043 C 0.36858 0.99707 0.40511 0.0
C1044 C 0.38257 0.97462 0.43275 0.0
C1045 C 0.37282 0.93806 0.40268 0.0
C1046 C 0.37364 0.96212 0.44841 0.0
C1047 C 0.3851 0.95891 0.46734 0.0
C1048 C 0.40564 0.96807 0.47065 0.0
C1049 C 0.41391 0.98138 0.45537 0.0
C1050 C 0.40255 0.98462 0.43675 0.0
H1051 H 0.37228 0.92721 0.38861 0.0
H1052 H 0.38855 0.93788 0.41078 0.0
H1053 H 0.36086 0.93221 0.41375 0.0
H1054 H 0.35805 0.95455 0.44581 0.0
H1055 H 0.37833 0.94865 0.47885 0.0
H1056 H 0.61042 0.53744 0.3224 0.0
H1057 H 0.59888 0.54386 0.35839 0.0
H1058 H 0.63031 0.49051 0.37918 0.0
H1059 H 0.64275 0.48456 0.3436 0.0
H1060 H 0.5743 0.51915 0.38262 0.0
H1061 H 0.65295 0.53508 0.42223 0.0
H1062 H 0.64903 0.53429 0.39381 0.0
H1063 H 0.65037 0.51055 0.40778 0.0
C1064 C 0.61507 0.5272 0.33468 0.0
C1065 C 0.62758 0.51053 0.33012 0.0
C1066 C 0.60839 0.53084 0.3552 0.0
C1067 C 0.61414 0.51793 0.37153 0.0
C1068 C 0.62615 0.50098 0.36693 0.0
H1069 H 0.56078 0.49751 0.49234 0.0
H1070 H 0.57907 0.49486 0.45886 0.0
C1071 C 0.63293 0.49739 0.34647 0.0
C1072 C 0.60689 0.52167 0.39322 0.0
H1073 H 0.62394 0.52929 0.4449 0.0
C1074 C 0.58516 0.52152 0.3962 0.0
C1075 C 0.62113 0.52496 0.4109 0.0
C1076 C 0.64467 0.52645 0.40854 0.0
C1077 C 0.57726 0.52393 0.41647 0.0
C1078 C 0.59146 0.52646 0.43414 0.0
C1079 C 0.61318 0.52713 0.43122 0.0
C1080 C 0.5837 0.52813 0.45575 0.0
C1081 C 0.55378 0.5237 0.41901 0.0
C1082 C 0.58106 0.54771 0.46525 0.0
C1083 C 0.57105 0.54922 0.48451 0.0
C1084 C 0.56336 0.53116 0.49423 0.0
C1085 C 0.56676 0.51158 0.4851 0.0
C1086 C 0.5771 0.51008 0.46606 0.0
H1087 H 0.54485 0.52195 0.40359 0.0
H1088 H 0.54859 0.51068 0.42904 0.0
H1089 H 0.54979 0.53838 0.42719 0.0
H1090 H 0.58588 0.56177 0.45732 0.0
H1091 H 0.56814 0.56447 0.49112 0.0
H1092 H 0.16978 0.36057 0.06338 0.0
H1093 H 0.13438 0.37266 0.06673 0.0
H1094 H 0.13838 0.40024 0.00588 0.0
H1095 H 0.17407 0.38925 0.00269 0.0
H1096 H 0.12093 0.42409 0.04897 0.0
H1097 H 0.08333 0.34746 0.01978 0.0
H1098 H 0.10729 0.34922 0.03605 0.0
H1099 H 0.10793 0.35701 0.00917 0.0
C1100 C 0.16344 0.36961 0.05087 0.0
C1101 C 0.17493 0.37367 0.03263 0.0
C1102 C 0.14308 0.37634 0.05278 0.0
C1103 C 0.13377 0.38713 0.03647 0.0
C1104 C 0.14531 0.39182 0.0186 0.0
H1105 H 0.02076 0.42547 0.98545 0.0
H1106 H 0.05257 0.4086 0.99567 0.0
C1107 C 0.16569 0.3853 0.01674 0.0
C1108 C 0.1117 0.39295 0.03748 0.0
H1109 H 0.06137 0.37535 0.02298 0.0
C1110 C 0.1078 0.41338 0.04371 0.0
C1111 C 0.09474 0.3789 0.03051 0.0
C1112 C 0.09833 0.35686 0.02349 0.0
C1113 C 0.08735 0.42039 0.04235 0.0
C1114 C 0.07042 0.40652 0.03465 0.0
C1115 C 0.0743 0.38587 0.02912 0.0
C1116 C 0.04935 0.41394 0.02931 0.0
C1117 C 0.08419 0.44288 0.04799 0.0
C1118 C 0.0364 0.42172 0.04489 0.0
C1119 C 0.01793 0.4312 0.03904 0.0
C1120 C 0.01233 0.43311 0.01754 0.0
C1121 C 0.02465 0.42414 0.00213 0.0
C1122 C 0.04288 0.41455 0.00795 0.0
H1123 H 0.09935 0.45219 0.05111 0.0
H1124 H 0.0753 0.45 0.03502 0.0
H1125 H 0.07482 0.4438 0.06242 0.0
H1126 H 0.04101 0.42121 0.0615 0.0
H1127 H 0.00896 0.4383 0.05123 0.0
H1128 H 0.18249 0.61142 0.4889 0.0
H1129 H 0.14577 0.59943 0.47977 0.0
H1130 H 0.12551 0.65931 0.50015 0.0
H1131 H 0.16225 0.67142 0.50874 0.0
H1132 H 0.11199 0.59806 0.50745 0.0
H1133 H 0.09819 0.64986 0.44045 0.0
H1134 H 0.12426 0.64562 0.45083 0.0
H1135 H 0.1078 0.66244 0.46501 0.0
C1136 C 0.17011 0.62195 0.49121 0.0
C1137 C 0.17486 0.6423 0.49918 0.0
C1138 C 0.14929 0.61517 0.48607 0.0
C1139 C 0.13312 0.62867 0.48897 0.0
C1140 C 0.13788 0.64889 0.49737 0.0
H1141 H -0.00202 0.60015 0.46444 0.0
H1142 H 0.03199 0.61941 0.4732 0.0
C1143 C 0.1587 0.65571 0.50238 0.0
C1144 C 0.1112 0.62122 0.4838 0.0
H1145 H 0.06958 0.62719 0.44968 0.0
C1146 C 0.10267 0.60446 0.49489 0.0
C1147 C 0.09912 0.62991 0.4676 0.0
C1148 C 0.10779 0.64786 0.45514 0.0
C1149 C 0.08242 0.5957 0.48985 0.0
C1150 C 0.07068 0.60374 0.47301 0.0
C1151 C 0.07882 0.62106 0.46246 0.0
C1152 C 0.05049 0.59336 0.46547 0.0
C1153 C 0.07383 0.57779 0.50245 0.0
C1154 C 0.04994 0.57274 0.4576 0.0
C1155 C 0.03075 0.56171 0.45313 0.0
C1156 C 0.01194 0.5714 0.45587 0.0
C1157 C 0.01245 0.59249 0.4623 0.0
C1158 C 0.03173 0.60343 0.46724 0.0
H1159 H 0.08204 0.57743 0.51819 0.0
H1160 H 0.0567 0.57868 0.50477 0.0
H1161 H 0.07621 0.56293 0.49374 0.0
H1162 H 0.06437 0.56496 0.45565 0.0
H1163 H 0.03058 0.54554 0.4478 0.0
H1164 H 0.79764 0.87928 0.47728 0.0
H1165 H 0.83339 0.89139 0.4685 0.0
H1166 H 0.85855 0.84533 0.50843 0.0
H1167 H 0.82269 0.83196 0.51552 0.0
H1168 H 0.86443 0.9084 0.49087 0.0
H1169 H 0.89139 0.83394 0.45838 0.0
H1170 H 0.86432 0.83688 0.46458 0.0
H1171 H 0.88356 0.83261 0.48524 0.0
C1172 C 0.81083 0.87137 0.48363 0.0
C1173 C 0.80743 0.85421 0.49641 0.0
C1174 C 0.83128 0.87845 0.47885 0.0
C1175 C 0.84882 0.86893 0.48728 0.0
C1176 C 0.8454 0.85241 0.50094 0.0
H1177 H 0.9826 0.90912 0.47265 0.0
H1178 H 0.95039 0.89071 0.4849 0.0
C1179 C 0.82492 0.84493 0.5052 0.0
C1180 C 0.87051 0.8768 0.48207 0.0
H1181 H 0.91672 0.86249 0.46153 0.0
C1182 C 0.87579 0.89829 0.48442 0.0
C1183 C 0.88559 0.86365 0.4739 0.0
C1184 C 0.88089 0.84053 0.47019 0.0
C1185 C 0.89531 0.90702 0.47833 0.0
C1186 C 0.91005 0.89396 0.46966 0.0
C1187 C 0.90529 0.87242 0.46811 0.0
C1188 C 0.92989 0.90273 0.46094 0.0
C1189 C 0.89997 0.93024 0.481 0.0
C1190 C 0.92907 0.91492 0.44303 0.0
C1191 C 0.94729 0.92542 0.43614 0.0
C1192 C 0.96671 0.92353 0.44676 0.0
C1193 C 0.96781 0.91038 0.46394 0.0
C1194 C 0.94946 0.90002 0.47102 0.0
H1195 H 0.88919 0.93745 0.49212 0.0
H1196 H 0.91647 0.93395 0.48687 0.0
H1197 H 0.89797 0.93741 0.46543 0.0
H1198 H 0.91415 0.91697 0.43489 0.0
H1199 H 0.94611 0.93567 0.42301 0.0
H1200 H 0.31963 0.65181 0.56672 0.0
H1201 H 0.35508 0.64108 0.57353 0.0
H1202 H 0.35667 0.61639 0.50954 0.0
H1203 H 0.32064 0.62542 0.50276 0.0
H1204 H 0.37107 0.59265 0.55606 0.0
H1205 H 0.40869 0.66841 0.53258 0.0
H1206 H 0.38311 0.66643 0.54414 0.0
H1207 H 0.38594 0.65736 0.51735 0.0
C1208 C 0.32708 0.6436 0.55412 0.0
C1209 C 0.31695 0.63975 0.53403 0.0
C1210 C 0.34754 0.63774 0.55806 0.0
C1211 C 0.35844 0.62829 0.54194 0.0
C1212 C 0.34844 0.62389 0.5221 0.0
H1213 H 0.46959 0.58202 0.5048 0.0
H1214 H 0.4397 0.6031 0.51088 0.0
C1215 C 0.32784 0.62933 0.51824 0.0
C1216 C 0.38041 0.62311 0.54557 0.0
H1217 H 0.431 0.64081 0.53726 0.0
C1218 C 0.38427 0.60326 0.55242 0.0
C1219 C 0.3974 0.63709 0.5407 0.0
C1220 C 0.39375 0.6586 0.53334 0.0
C1221 C 0.40479 0.59662 0.55359 0.0
C1222 C 0.42178 0.61035 0.54796 0.0
C1223 C 0.41795 0.6305 0.54187 0.0
C1224 C 0.44287 0.60276 0.54501 0.0
C1225 C 0.40806 0.57456 0.55954 0.0
C1226 C 0.45526 0.59678 0.56226 0.0
C1227 C 0.47264 0.58505 0.55877 0.0
C1228 C 0.47744 0.57905 0.53805 0.0
C1229 C 0.46616 0.58664 0.52089 0.0
C1230 C 0.44909 0.59859 0.52435 0.0
H1231 H 0.39294 0.56527 0.56128 0.0
H1232 H 0.41723 0.56667 0.54738 0.0
H1233 H 0.41721 0.57473 0.5748 0.0
H1234 H 0.45064 0.59993 0.57831 0.0
H1235 H 0.48098 0.57904 0.57221 0.0
H1236 H 0.54971 0.7014 0.89249 0.0
H1237 H 0.55119 0.66571 0.90488 0.0
H1238 H 0.54276 0.64158 0.84049 0.0
H1239 H 0.5411 0.67717 0.82818 0.0
H1240 H 0.51694 0.63427 0.8967 0.0
H1241 H 0.59246 0.60967 0.86567 0.0
H1242 H 0.58703 0.63668 0.86956 0.0
H1243 H 0.57536 0.62171 0.84722 0.0
C1244 C 0.5486 0.68844 0.88104 0.0
C1245 C 0.54544 0.69189 0.85943 0.0
C1246 C 0.54939 0.66812 0.88808 0.0
C1247 C 0.5473 0.65099 0.87358 0.0
C1248 C 0.54475 0.65454 0.85191 0.0
H1249 H 0.52451 0.51718 0.89989 0.0
H1250 H 0.53032 0.54933 0.87993 0.0
C1251 C 0.54375 0.67482 0.84491 0.0
C1252 C 0.54588 0.62941 0.88124 0.0
H1253 H 0.57062 0.58382 0.88149 0.0
C1254 C 0.52865 0.62324 0.8933 0.0
C1255 C 0.56108 0.61497 0.87666 0.0
C1256 C 0.58015 0.62102 0.8642 0.0
C1257 C 0.52626 0.6031 0.90102 0.0
C1258 C 0.54163 0.58876 0.8968 0.0
C1259 C 0.55873 0.59476 0.88446 0.0
C1260 C 0.54119 0.56854 0.9074 0.0
C1261 C 0.50747 0.59736 0.91402 0.0
C1262 C 0.54608 0.56863 0.92912 0.0
C1263 C 0.54275 0.55058 0.94033 0.0
C1264 C 0.53458 0.53193 0.93012 0.0
C1265 C 0.53092 0.53135 0.90808 0.0
C1266 C 0.53418 0.54967 0.89674 0.0
H1267 H 0.49491 0.60839 0.9121 0.0
H1268 H 0.50081 0.5814 0.90953 0.0
H1269 H 0.51251 0.59762 0.931 0.0
H1270 H 0.55158 0.58295 0.93762 0.0
H1271 H 0.54579 0.55142 0.95732 0.0
H1272 H 0.50898 0.83197 0.87813 0.0
H1273 H 0.50293 0.86832 0.8877 0.0
H1274 H 0.52227 0.88666 0.82603 0.0
H1275 H 0.52787 0.8502 0.81636 0.0
H1276 H 0.53059 0.90297 0.88992 0.0
H1277 H 0.46664 0.91379 0.83019 0.0
H1278 H 0.47518 0.88846 0.83629 0.0
H1279 H 0.49048 0.90509 0.81958 0.0
C1280 C 0.51168 0.84378 0.86658 0.0
C1281 C 0.51851 0.83828 0.8464 0.0
C1282 C 0.50833 0.86455 0.87206 0.0
C1283 C 0.51176 0.88032 0.85749 0.0
C1284 C 0.51899 0.87483 0.83741 0.0
H1285 H 0.49215 0.01557 0.8807 0.0
H1286 H 0.5037 0.98349 0.86319 0.0
C1287 C 0.52231 0.85403 0.83193 0.0
C1288 C 0.5082 0.90245 0.8636 0.0
H1289 H 0.47819 0.94309 0.85193 0.0
C1290 C 0.51923 0.91175 0.88147 0.0
C1291 C 0.4935 0.91411 0.85257 0.0
C1292 C 0.48061 0.90486 0.83369 0.0
C1293 C 0.51568 0.93205 0.88883 0.0
C1294 C 0.50047 0.94344 0.87824 0.0
C1295 C 0.48998 0.93449 0.85993 0.0
C1296 C 0.49319 0.96315 0.88778 0.0
C1297 C 0.52798 0.94102 0.9082 0.0
C1298 C 0.48294 0.96231 0.90696 0.0
C1299 C 0.47618 0.9803 0.91669 0.0
C1300 C 0.47949 0.99993 0.90769 0.0
C1301 C 0.48928 0.0008 0.88809 0.0
C1302 C 0.49597 0.98249 0.87814 0.0
H1303 H 0.54299 0.93341 0.9106 0.0
H1304 H 0.53154 0.95803 0.90704 0.0
H1305 H 0.51847 0.93842 0.92236 0.0
H1306 H 0.48021 0.94762 0.91455 0.0
H1307 H 0.46858 0.97872 0.93166 0.0
H1308 H 0.51452 0.33645 0.6622 0.0
H1309 H 0.51683 0.3728 0.65206 0.0
H1310 H 0.54866 0.35537 0.59561 0.0
H1311 H 0.54462 0.31876 0.60485 0.0
H1312 H 0.54768 0.40057 0.64573 0.0
H1313 H 0.50225 0.38466 0.56972 0.0
H1314 H 0.50502 0.36496 0.58892 0.0
H1315 H 0.52598 0.37126 0.57134 0.0
C1316 C 0.52197 0.34047 0.64762 0.0
C1317 C 0.52952 0.32495 0.63434 0.0
C1318 C 0.52339 0.3612 0.64189 0.0
C1319 C 0.5326 0.3668 0.62288 0.0
C1320 C 0.54098 0.35137 0.61005 0.0
H1321 H 0.55636 0.49274 0.57913 0.0
H1322 H 0.56135 0.45875 0.59412 0.0
C1323 C 0.53901 0.33053 0.6155 0.0
C1324 C 0.53264 0.38867 0.61631 0.0
H1325 H 0.51598 0.41915 0.57683 0.0
C1326 C 0.54081 0.40461 0.63063 0.0
C1327 C 0.5235 0.39397 0.59664 0.0
C1328 C 0.51352 0.37783 0.58087 0.0
C1329 C 0.5399 0.42566 0.62588 0.0
C1330 C 0.53076 0.43079 0.60631 0.0
C1331 C 0.52294 0.41498 0.59186 0.0
C1332 C 0.52845 0.4525 0.60057 0.0
C1333 C 0.54803 0.44232 0.64196 0.0
C1334 C 0.50834 0.46016 0.59947 0.0
C1335 C 0.50541 0.47935 0.59063 0.0
C1336 C 0.52263 0.4912 0.58311 0.0
C1337 C 0.54293 0.48401 0.58526 0.0
C1338 C 0.5458 0.46465 0.59376 0.0
H1339 H 0.55391 0.43574 0.65687 0.0
H1340 H 0.56105 0.45202 0.63527 0.0
H1341 H 0.5353 0.4527 0.64569 0.0
H1342 H 0.49481 0.45088 0.60463 0.0
H1343 H 0.48965 0.48463 0.58907 0.0
H1344 H 0.5098 0.18582 0.58256 0.0
H1345 H 0.49805 0.15 0.57056 0.0
H1346 H 0.48069 0.13618 0.63418 0.0
H1347 H 0.49227 0.17178 0.64604 0.0
H1348 H 0.51412 0.11307 0.58862 0.0
H1349 H 0.42763 0.11711 0.59639 0.0
H1350 H 0.4453 0.14003 0.59461 0.0
H1351 H 0.44389 0.12657 0.61893 0.0
C1352 C 0.50355 0.17497 0.59382 0.0
C1353 C 0.50196 0.18106 0.6151 0.0
C1354 C 0.49676 0.15476 0.58704 0.0
C1355 C 0.48824 0.1408 0.60152 0.0
C1356 C 0.48685 0.14696 0.6228 0.0
H1357 H 0.44932 0.00838 0.58421 0.0
H1358 H 0.45648 0.04336 0.60084 0.0
C1359 C 0.49363 0.16706 0.62955 0.0
C1360 C 0.48204 0.1193 0.59473 0.0
H1361 H 0.43992 0.08403 0.58789 0.0
C1362 C 0.49792 0.10668 0.58844 0.0
C1363 C 0.46092 0.11116 0.59495 0.0
C1364 C 0.44338 0.12441 0.60144 0.0
C1365 C 0.49318 0.08596 0.58199 0.0
C1366 C 0.47199 0.07797 0.58155 0.0
C1367 C 0.45613 0.09039 0.5884 0.0
C1368 C 0.46598 0.05745 0.57183 0.0
C1369 C 0.5108 0.07283 0.57546 0.0
C1370 C 0.46853 0.05431 0.55013 0.0
C1371 C 0.46479 0.0346 0.54078 0.0
C1372 C 0.4581 0.01782 0.55297 0.0
C1373 C 0.45456 0.02115 0.57458 0.0
C1374 C 0.45858 0.04097 0.58403 0.0
H1375 H 0.52635 0.07946 0.58191 0.0
H1376 H 0.50818 0.05668 0.58085 0.0
H1377 H 0.51137 0.07214 0.55794 0.0
H1378 H 0.47388 0.06706 0.54051 0.0
H1379 H 0.46723 0.0325 0.524 0.0
H1380 H 0.87457 0.49619 0.656 0.0
H1381 H 0.88357 0.50105 0.6191 0.0
H1382 H 0.85148 0.55784 0.61888 0.0
H1383 H 0.84156 0.55284 0.65528 0.0
H1384 H 0.84421 0.51768 0.58237 0.0
H1385 H 0.92295 0.55901 0.59975 0.0
H1386 H 0.91349 0.53837 0.61624 0.0
H1387 H 0.90123 0.56259 0.61687 0.0
C1388 C 0.86928 0.50965 0.64812 0.0
C1389 C 0.85744 0.52417 0.65876 0.0
C1390 C 0.87453 0.51242 0.6271 0.0
C1391 C 0.86814 0.52979 0.6165 0.0
C1392 C 0.85652 0.54437 0.62696 0.0
H1393 H 0.91803 0.56435 0.49489 0.0
H1394 H 0.89668 0.56781 0.52639 0.0
C1395 C 0.85113 0.54157 0.64787 0.0
C1396 C 0.87358 0.53275 0.59438 0.0
H1397 H 0.91309 0.55146 0.56399 0.0
C1398 C 0.85916 0.52523 0.57825 0.0
C1399 C 0.89294 0.54284 0.5893 0.0
C1400 C 0.90866 0.55126 0.60635 0.0
C1401 C 0.86403 0.5269 0.55691 0.0
C1402 C 0.88381 0.53623 0.55179 0.0
C1403 C 0.89783 0.54453 0.56799 0.0
C1404 C 0.89177 0.53462 0.53022 0.0
C1405 C 0.84822 0.51827 0.54005 0.0
C1406 C 0.89539 0.51487 0.5217 0.0
C1407 C 0.90764 0.51294 0.50407 0.0
C1408 C 0.91635 0.5307 0.49461 0.0
C1409 C 0.91125 0.55048 0.5019 0.0
C1410 C 0.89918 0.55244 0.51986 0.0
H1411 H 0.83191 0.51804 0.54579 0.0
H1412 H 0.84909 0.52749 0.52557 0.0
H1413 H 0.8516 0.50202 0.53575 0.0
H1414 H 0.89017 0.50096 0.52967 0.0
H1415 H 0.91147 0.49754 0.49866 0.0
H1416 H 0.13845 0.00937 0.64655 0.0
H1417 H 0.12444 0.00121 0.61065 0.0
H1418 H 0.08234 0.95273 0.63388 0.0
H1419 H 0.09603 0.96112 0.67011 0.0
H1420 H 0.12477 0.96051 0.58912 0.0
H1421 H 0.04504 0.99016 0.59772 0.0
H1422 H 0.06667 0.99754 0.6162 0.0
H1423 H 0.05338 0.97217 0.61692 0.0
C1424 C 0.12584 0.99733 0.64408 0.0
C1425 C 0.11813 0.98597 0.66101 0.0
C1426 C 0.11811 0.99251 0.62361 0.0
C1427 C 0.10253 0.97637 0.61984 0.0
C1428 C 0.09439 0.96527 0.63669 0.0
H1429 H 0.05014 0.93397 0.49593 0.0
H1430 H 0.06784 0.93279 0.5309 0.0
C1431 C 0.10216 0.97007 0.65724 0.0
C1432 C 0.09489 0.97135 0.5981 0.0
H1433 H 0.05313 0.97663 0.56427 0.0
C1434 C 0.10904 0.96376 0.58363 0.0
C1435 C 0.07442 0.97578 0.59127 0.0
C1436 C 0.05896 0.98449 0.60624 0.0
C1437 C 0.10328 0.961 0.56214 0.0
C1438 C 0.08304 0.96603 0.55532 0.0
C1439 C 0.06868 0.97288 0.56986 0.0
C1440 C 0.0766 0.9658 0.53298 0.0
C1441 C 0.11894 0.9536 0.5467 0.0
C1442 C 0.07601 0.98475 0.52289 0.0
C1443 C 0.06548 0.98557 0.50335 0.0
C1444 C 0.05583 0.96734 0.49374 0.0
C1445 C 0.05759 0.94816 0.50325 0.0
C1446 C 0.06775 0.94743 0.52299 0.0
H1447 H 0.13387 0.94964 0.55473 0.0
H1448 H 0.11204 0.93968 0.53749 0.0
H1449 H 0.12255 0.96593 0.53529 0.0
H1450 H 0.08276 0.99903 0.53064 0.0
H1451 H 0.0645 0.0004 0.49597 0.0
H1452 H 0.82613 0.51904 0.81976 0.0
H1453 H 0.83886 0.51689 0.85649 0.0
H1454 H 0.88174 0.47134 0.83684 0.0
H1455 H 0.87109 0.47572 0.79994 0.0
H1456 H 0.83858 0.4903 0.88415 0.0
H1457 H 0.92266 0.50773 0.86934 0.0
H1458 H 0.90257 0.50966 0.84893 0.0
H1459 H 0.91316 0.48494 0.85415 0.0
C1460 C 0.83841 0.50869 0.82336 0.0
C1461 C 0.84747 0.49736 0.80703 0.0
C1462 C 0.84561 0.50739 0.84436 0.0
C1463 C 0.86172 0.49435 0.84956 0.0
C1464 C 0.86995 0.48218 0.83331 0.0
H1465 H 0.91278 0.44368 0.9602 0.0
H1466 H 0.89217 0.45106 0.92821 0.0
C1467 C 0.8634 0.48419 0.81221 0.0
C1468 C 0.86982 0.49342 0.8719 0.0
H1469 H 0.91502 0.49217 0.90245 0.0
C1470 C 0.85531 0.491 0.8881 0.0
C1471 C 0.89169 0.49482 0.87737 0.0
C1472 C 0.90835 0.49968 0.86153 0.0
C1473 C 0.86209 0.48894 0.90927 0.0
C1474 C 0.88379 0.48879 0.91426 0.0
C1475 C 0.89832 0.49197 0.89838 0.0
C1476 C 0.89194 0.48405 0.93557 0.0
C1477 C 0.84614 0.48663 0.92622 0.0
C1478 C 0.89797 0.5001 0.95053 0.0
C1479 C 0.90948 0.49583 0.96896 0.0
C1480 C 0.91512 0.47551 0.97247 0.0
C1481 C 0.90811 0.45935 0.95802 0.0
C1482 C 0.89649 0.46357 0.93974 0.0
H1483 H 0.82981 0.48812 0.91999 0.0
H1484 H 0.84708 0.47122 0.93336 0.0
H1485 H 0.84984 0.49868 0.93903 0.0
H1486 H 0.89483 0.51604 0.94738 0.0
H1487 H 0.9153 0.50859 0.97964 0.0
H1488 H 0.13916 0.98011 0.81731 0.0
H1489 H 0.1294 0.98789 0.85288 0.0
H1490 H 0.14287 0.0531 0.84394 0.0
H1491 H 0.15251 0.04563 0.80815 0.0
H1492 H 0.149 0.00775 0.88758 0.0
H1493 H 0.08111 0.05137 0.86107 0.0
H1494 H 0.09496 0.03512 0.84325 0.0
H1495 H 0.10583 0.06081 0.85101 0.0
C1496 C 0.13865 0.99627 0.82182 0.0
C1497 C 0.1429 0.01239 0.80762 0.0
C1498 C 0.13376 0.00064 0.84285 0.0
C1499 C 0.1339 0.02122 0.85068 0.0
C1500 C 0.14115 0.03716 0.83779 0.0
H1501 H 0.09452 0.07405 0.97178 0.0
H1502 H 0.1153 0.06791 0.94021 0.0
C1503 C 0.14605 0.03276 0.81679 0.0
C1504 C 0.12626 0.02601 0.87214 0.0
H1505 H 0.0887 0.05162 0.89786 0.0
C1506 C 0.1359 0.01743 0.88983 0.0
C1507 C 0.10895 0.03841 0.87506 0.0
C1508 C 0.09694 0.04681 0.85661 0.0
C1509 C 0.12873 0.02107 0.91035 0.0
C1510 C 0.11166 0.03368 0.91319 0.0
C1511 C 0.10211 0.04232 0.89559 0.0
C1512 C 0.102 0.03646 0.93395 0.0
C1513 C 0.13919 0.01128 0.92889 0.0
C1514 C 0.08797 0.02072 0.94089 0.0
C1515 C 0.07595 0.02432 0.9585 0.0
C1516 C 0.07796 0.04362 0.96967 0.0
C1517 C 0.09288 0.05901 0.9635 0.0
C1518 C 0.10466 0.05553 0.94552 0.0
H1519 H 0.154 0.00427 0.92454 0.0
H1520 H 0.14272 0.02306 0.94197 0.0
H1521 H 0.12825 0.99891 0.93488 0.0
H1522 H 0.08559 0.00599 0.93207 0.0
H1523 H 0.06456 0.01221 0.96303 0.0
H1524 H 0.66128 0.88111 0.49802 0.0
H1525 H 0.62505 0.8908 0.50076 0.0
H1526 H 0.62011 0.85973 0.55967 0.0
H1527 H 0.65594 0.84886 0.55666 0.0
H1528 H 0.58718 0.85753 0.50801 0.0
H1529 H 0.60005 0.92319 0.56768 0.0
H1530 H 0.62062 0.91591 0.55044 0.0
H1531 H 0.61312 0.89954 0.57158 0.0
C1532 C 0.65259 0.87608 0.51152 0.0
C1533 C 0.66184 0.86397 0.52702 0.0
C1534 C 0.63184 0.88183 0.51313 0.0
C1535 C 0.6199 0.87602 0.53043 0.0
C1536 C 0.6291 0.86449 0.54624 0.0
H1537 H 0.49307 0.91924 0.55401 0.0
H1538 H 0.52532 0.90052 0.55957 0.0
C1539 C 0.64976 0.85845 0.54453 0.0
C1540 C 0.59754 0.88133 0.53142 0.0
H1541 H 0.56555 0.91602 0.55359 0.0
C1542 C 0.5824 0.8702 0.51811 0.0
C1543 C 0.59126 0.8976 0.54486 0.0
C1544 C 0.60702 0.90989 0.55948 0.0
C1545 C 0.56123 0.87526 0.51745 0.0
C1546 C 0.5551 0.89234 0.53 0.0
C1547 C 0.57013 0.90292 0.54398 0.0
C1548 C 0.53409 0.90106 0.52679 0.0
C1549 C 0.54569 0.86226 0.50317 0.0
C1550 C 0.52803 0.90725 0.50658 0.0
C1551 C 0.50973 0.91761 0.5034 0.0
C1552 C 0.49698 0.92241 0.52038 0.0
C1553 C 0.50239 0.91547 0.54056 0.0
C1554 C 0.52093 0.90499 0.54377 0.0
H1555 H 0.55039 0.84601 0.50137 0.0
H1556 H 0.52955 0.86197 0.50929 0.0
H1557 H 0.54541 0.86884 0.48719 0.0
H1558 H 0.53803 0.90498 0.4933 0.0
H1559 H 0.50609 0.92284 0.48769 0.0
H1560 H 0.68331 0.18739 0.9965 0.0
H1561 H 0.64629 0.17832 0.9858 0.0
H1562 H 0.65377 0.11471 0.00208 0.0
H1563 H 0.6909 0.12372 0.01251 0.0
H1564 H 0.63348 0.14167 0.95339 0.0
H1565 H 0.59953 0.13773 0.03315 0.0
H1566 H 0.62311 0.15366 0.02803 0.0
H1567 H 0.6242 0.12605 0.02988 0.0
C1568 C 0.67687 0.17153 -0.00214 0.0
C1569 C 0.68954 0.15617 0.00535 0.0
C1570 C 0.65591 0.16642 0.9918 0.0
C1571 C 0.64752 0.14596 0.99338 0.0
C1572 C 0.66013 0.13063 0.00104 0.0
H1573 H 0.54481 0.06245 0.9666 0.0
H1574 H 0.57754 0.08285 0.97602 0.0
C1575 C 0.68115 0.13571 0.00696 0.0
C1576 C 0.62577 0.14023 0.9862 0.0
H1577 H 0.57842 0.12249 0.00417 0.0
C1578 C 0.62124 0.13785 0.96439 0.0
C1579 C 0.61008 0.13543 0.00076 0.0
C1580 C 0.61431 0.13846 0.0243 0.0
C1581 C 0.60151 0.12945 0.95673 0.0
C1582 C 0.58618 0.12361 0.97134 0.0
C1583 C 0.59037 0.12706 0.99311 0.0
C1584 C 0.56666 0.11163 0.96456 0.0
C1585 C 0.59752 0.12564 0.93323 0.0
C1586 C 0.54997 0.12123 0.95483 0.0
C1587 C 0.5312 0.10962 0.94938 0.0
C1588 C 0.52901 0.08835 0.95371 0.0
C1589 C 0.546 0.07881 0.96311 0.0
C1590 C 0.56467 0.0904 0.96853 0.0
H1591 H 0.6115 0.13028 0.92403 0.0
H1592 H 0.59308 0.10889 0.92974 0.0
H1593 H 0.58414 0.13455 0.92781 0.0
H1594 H 0.55138 0.13768 0.95178 0.0
H1595 H 0.51833 0.11736 0.94215 0.0
H1596 H 0.32003 0.35803 0.97283 0.0
H1597 H 0.35602 0.369 0.96651 0.0
H1598 H 0.3694 0.37607 0.03355 0.0
H1599 H 0.33373 0.36476 0.04023 0.0
H1600 H 0.37397 0.40867 0.97904 0.0
H1601 H 0.41955 0.34654 0.01291 0.0
H1602 H 0.39149 0.34325 0.00736 0.0
H1603 H 0.40167 0.35732 0.03097 0.0
C1604 C 0.32987 0.36301 0.98645 0.0
C1605 C 0.32216 0.36378 0.00716 0.0
C1606 C 0.35094 0.36865 0.98268 0.0
C1607 C 0.36525 0.37416 -0.00049 0.0
C1608 C 0.35851 0.37243 0.02021 0.0
H1609 H 0.47832 0.45412 0.00872 0.0
H1610 H 0.44633 0.43244 0.01516 0.0
C1611 C 0.33746 0.36675 0.02396 0.0
C1612 C 0.38663 0.38326 0.9954 0.0
H1613 H 0.43917 0.37818 0.00501 0.0
C1614 C 0.38821 0.40185 0.98449 0.0
C1615 C 0.40519 0.37441 0.00269 0.0
C1616 C 0.40445 0.35418 0.01397 0.0
C1617 C 0.40783 0.41206 0.98105 0.0
C1618 C 0.42631 0.40337 0.98855 0.0
C1619 C 0.42487 0.38468 -0.00076 0.0
C1620 C 0.44715 0.41417 0.98593 0.0
C1621 C 0.40879 0.43231 0.96975 0.0
C1622 C 0.45837 0.41062 0.96759 0.0
C1623 C 0.47678 0.42284 0.96395 0.0
C1624 C 0.48391 0.43896 0.97848 0.0
C1625 C 0.47302 0.44191 0.99719 0.0
C1626 C 0.45485 0.42952 0.00094 0.0
H1627 H 0.39292 0.43702 0.96488 0.0
H1628 H 0.41668 0.44484 0.98024 0.0
H1629 H 0.41831 0.43084 0.95547 0.0
H1630 H 0.45246 0.39891 0.95578 0.0
H1631 H 0.48483 0.42038 0.94935 0.0
H1632 H 0.84773 0.17531 0.00739 0.0
H1633 H 0.88301 0.16318 0.01105 0.0
H1634 H 0.86243 0.12227 0.05983 0.0
H1635 H 0.82659 0.13341 0.05538 0.0
H1636 H 0.91085 0.16531 0.04414 0.0
H1637 H 0.88934 0.0828 0.01975 0.0
H1638 H 0.87137 0.10303 0.01655 0.0
H1639 H 0.8753 0.09194 0.04196 0.0
C1640 C 0.85052 0.16341 0.01862 0.0
C1641 C 0.83418 0.15509 0.03086 0.0
C1642 C 0.87081 0.15671 0.02089 0.0
C1643 C 0.8753 0.14167 0.03554 0.0
C1644 C 0.85921 0.13363 0.04815 0.0
H1645 H 0.99224 0.08067 0.05481 0.0
H1646 H 0.96271 0.10123 0.06477 0.0
C1647 C 0.83878 0.14018 0.04574 0.0
C1648 C 0.89683 0.13434 0.03725 0.0
H1649 H 0.92468 0.09128 0.03065 0.0
C1650 C 0.91387 0.14909 0.04138 0.0
C1651 C 0.90073 0.1132 0.03341 0.0
C1652 C 0.88327 0.09684 0.02746 0.0
C1653 C 0.93473 0.14326 0.04144 0.0
C1654 C 0.93851 0.12221 0.03758 0.0
C1655 C 0.92155 0.10739 0.03402 0.0
C1656 C 0.9598 0.11535 0.0344 0.0
C1657 C 0.95267 0.15955 0.04509 0.0
C1658 C 0.96834 0.11731 0.0144 0.0
C1659 C 0.98485 0.10539 0.00862 0.0
C1660 C 0.99321 0.09173 0.02294 0.0
C1661 C 0.98622 0.09147 0.04372 0.0
C1662 C 0.96935 0.10308 0.04936 0.0
H1663 H 0.94718 0.17475 0.05064 0.0
H1664 H 0.96428 0.15429 0.05691 0.0
H1665 H 0.9609 0.16178 0.03006 0.0
H1666 H 0.96096 0.12653 0.00261 0.0
H1667 H 0.98988 0.10552 0.99244 0.0
H1668 H 0.06428 0.19631 0.25652 0.0
H1669 H 0.0668 0.17156 0.22639 0.0
H1670 H 0.02679 0.2083 0.18848 0.0
H1671 H 0.02508 0.23336 0.21824 0.0
H1672 H 0.03605 0.14752 0.20719 0.0
H1673 H 0.07139 0.19802 0.14746 0.0
H1674 H 0.07081 0.20619 0.17498 0.0
H1675 H 0.04826 0.20868 0.15746 0.0
C1676 C 0.05657 0.19932 0.24151 0.0
C1677 C 0.04472 0.21682 0.2395 0.0
C1678 C 0.05785 0.18513 0.22438 0.0
C1679 C 0.04722 0.18816 0.20499 0.0
C1680 C 0.03563 0.20586 0.203 0.0
H1681 H 0.02146 0.12314 0.08423 0.0
H1682 H 0.01874 0.1441 0.1171 0.0
C1683 C 0.03455 0.22013 0.22002 0.0
C1684 C 0.04689 0.1722 0.18734 0.0
H1685 H 0.05331 0.16619 0.13416 0.0
C1686 C 0.04 0.15156 0.19125 0.0
C1687 C 0.0522 0.17736 0.16654 0.0
C1688 C 0.0613 0.19872 0.16141 0.0
C1689 C 0.03743 0.13621 0.17481 0.0
C1690 C 0.04194 0.14162 0.15388 0.0
C1691 C 0.04935 0.16212 0.1501 0.0
C1692 C 0.03994 0.12633 0.13559 0.0
C1693 C 0.02944 0.11451 0.17999 0.0
C1694 C 0.05203 0.10887 0.13525 0.0
C1695 C 0.05325 0.09674 0.11661 0.0
C1696 C 0.04255 0.10194 0.09797 0.0
C1697 C 0.0295 0.11863 0.09854 0.0
C1698 C 0.02812 0.13067 0.11725 0.0
H1699 H 0.02097 0.11439 0.19505 0.0
H1700 H 0.01874 0.10735 0.16714 0.0
H1701 H 0.04302 0.1047 0.18187 0.0
H1702 H 0.06169 0.10544 0.14894 0.0
H1703 H 0.06384 0.08424 0.11633 0.0
H1704 H 0.03616 0.35503 0.24635 0.0
H1705 H 0.0307 0.37927 0.21797 0.0
H1706 H 0.99429 0.33105 0.18144 0.0
H1707 H 9e-05 0.30658 0.20933 0.0
H1708 H 0.0404 0.37217 0.17141 0.0
H1709 H 0.95622 0.38269 0.18742 0.0
H1710 H 0.97447 0.37417 0.2073 0.0
H1711 H 0.9643 0.35644 0.18638 0.0
C1712 C 0.0272 0.34951 0.23218 0.0
C1713 C 0.01847 0.32888 0.23018 0.0
C1714 C 0.02401 0.3634 0.21606 0.0
C1715 C 0.01193 0.35694 0.19779 0.0
C1716 C 0.00342 0.33636 0.19559 0.0
H1717 H 0.9791 0.40979 0.07901 0.0
H1718 H 0.99022 0.38722 0.10696 0.0
C1719 C 0.00668 0.32245 0.2116 0.0
C1720 C 0.00822 0.37164 0.18087 0.0
H1721 H 0.96981 0.39802 0.15686 0.0
C1722 C 0.02503 0.37794 0.16828 0.0
C1723 C 0.9881 0.37901 0.17686 0.0
C1724 C 0.96969 0.3729 0.19024 0.0
C1725 C 0.02209 0.39125 0.15148 0.0
C1726 C 0.00199 0.39854 0.14746 0.0
C1727 C 0.98523 0.39239 0.16013 0.0
C1728 C -0.00207 0.4124 0.12993 0.0
C1729 C 0.0403 0.39734 0.1379 0.0
C1730 C -0.00094 0.43404 0.13358 0.0
C1731 C 0.99258 0.44702 0.11769 0.0
C1732 C 0.98508 0.43852 0.0979 0.0
C1733 C 0.98515 0.41688 0.09397 0.0
C1734 C 0.99133 0.40392 0.10994 0.0
H1735 H 0.055 0.3903 0.14304 0.0
H1736 H 0.03635 0.39235 0.12117 0.0
H1737 H 0.04312 0.41454 0.13847 0.0
H1738 H 0.00417 0.44077 0.14897 0.0
H1739 H 0.9926 0.4636 0.12114 0.0
H1740 H -0.00084 0.7909 0.23637 0.0
H1741 H -0.00076 0.81731 0.26487 0.0
H1742 H 0.04915 0.85313 0.23538 0.0
H1743 H 0.04713 0.82778 0.20543 0.0
H1744 H 0.02528 0.83022 0.29323 0.0
H1745 H 0.01302 0.89871 0.24436 0.0
H1746 H 0.01176 0.87267 0.2329 0.0
H1747 H 0.03685 0.88648 0.23922 0.0
C1748 C 0.00997 0.80456 0.23591 0.0
C1749 C 0.02293 0.8075 0.21867 0.0
C1750 C 0.01012 0.81962 0.25224 0.0
C1751 C 0.02383 0.83761 0.25213 0.0
C1752 C 0.03778 0.83992 0.23548 0.0
H1753 H 0.03824 0.93578 0.35128 0.0
H1754 H 0.04143 0.91576 0.31814 0.0
C1755 C 0.03694 0.82524 0.21859 0.0
C1756 C 0.02332 0.85349 0.26972 0.0
H1757 H 0.0167 0.90485 0.28128 0.0
C1758 C 0.02331 0.84651 0.2905 0.0
C1759 C 0.02114 0.87491 0.26632 0.0
C1760 C 0.02051 0.88362 0.24449 0.0
C1761 C 0.02036 0.86 0.30781 0.0
C1762 C 0.01744 0.88118 0.30432 0.0
C1763 C 0.01858 0.88851 0.28377 0.0
C1764 C 0.01325 0.89585 0.32197 0.0
C1765 C 0.02036 0.85135 0.32969 0.0
C1766 C 0.99562 0.89213 0.33436 0.0
C1767 C 0.99384 0.90343 0.35338 0.0
C1768 C 0.0094 0.91893 0.36 0.0
C1769 C 0.0258 0.92416 0.34641 0.0
C1770 C 0.02778 0.91258 0.32757 0.0
H1771 H 0.02826 0.8365 0.33022 0.0
H1772 H 0.02833 0.8626 0.34153 0.0
H1773 H 0.00385 0.84816 0.33434 0.0
H1774 H 0.98394 0.87961 0.32999 0.0
H1775 H 0.98114 0.89904 0.36363 0.0
H1776 H 0.02442 0.70046 0.24713 0.0
H1777 H 0.01946 0.67639 0.2758 0.0
H1778 H 0.96462 0.64695 0.24254 0.0
H1779 H 0.96952 0.67111 0.21356 0.0
H1780 H 0.97718 0.67063 0.29828 0.0
H1781 H 0.0064 0.59932 0.26011 0.0
H1782 H 0.01473 0.62499 0.25168 0.0
H1783 H 0.98836 0.61453 0.2457 0.0
C1784 C 0.01142 0.68873 0.24581 0.0
C1785 C 0.9974 0.68756 0.22811 0.0
C1786 C 0.00859 0.67506 0.26219 0.0
C1787 C 0.99185 0.65984 0.2611 0.0
C1788 C 0.97776 0.65852 0.24349 0.0
H1789 H 0.95087 0.56663 0.3456 0.0
H1790 H 0.96445 0.58428 0.31511 0.0
C1791 C 0.98048 0.67237 0.22709 0.0
C1792 C 0.98881 0.64609 0.27903 0.0
H1793 H 0.99695 0.59743 0.29568 0.0
C1794 C 0.98149 0.65461 0.29781 0.0
C1795 C 0.99413 0.62518 0.27806 0.0
C1796 C 0.0014 0.61531 0.25786 0.0
C1797 C 0.97924 0.64273 0.31582 0.0
C1798 C 0.98563 0.62203 0.31532 0.0
C1799 C 0.9927 0.61345 0.2963 0.0
C1800 C 0.9827 0.60844 0.33361 0.0
C1801 C 0.96917 0.65229 0.33478 0.0
C1802 C 0.98993 0.61502 0.35422 0.0
C1803 C 0.98174 0.60508 0.3718 0.0
C1804 C 0.96696 0.58806 0.36873 0.0
C1805 C 0.96236 0.5797 0.34823 0.0
C1806 C 0.97005 0.58987 0.33077 0.0
H1807 H 0.96008 0.66575 0.33043 0.0
H1808 H 0.95835 0.64075 0.34226 0.0
H1809 H 0.98163 0.65803 0.34663 0.0
H1810 H 0.00042 0.62885 0.35673 0.0
H1811 H 0.9854 0.61184 0.38752 0.0
H1812 H 0.27274 0.04658 0.16525 0.0
H1813 H 0.24411 0.05024 0.13892 0.0
H1814 H 0.20504 0.00489 0.1709 0.0
H1815 H 0.23298 0.00252 0.19797 0.0
H1816 H 0.22578 0.02326 0.11126 0.0
H1817 H 0.16509 0.04883 0.16498 0.0
H1818 H 0.19216 0.04749 0.17372 0.0
H1819 H 0.17435 0.02451 0.17281 0.0
C1820 C 0.25779 0.03786 0.16684 0.0
C1821 C 0.25479 0.02452 0.18369 0.0
C1822 C 0.24156 0.03978 0.15175 0.0
C1823 C 0.22228 0.0281 0.15315 0.0
C1824 C 0.21949 0.01456 0.16986 0.0
H1825 H 0.10403 0.02729 0.07999 0.0
H1826 H 0.13355 0.01236 0.09896 0.0
C1827 C 0.23546 0.01308 0.18522 0.0
C1828 C 0.20526 0.0295 0.13683 0.0
H1829 H 0.15304 0.03723 0.13041 0.0
C1830 C 0.20986 0.02631 0.11544 0.0
C1831 C 0.18452 0.0336 0.14227 0.0
C1832 C 0.17881 0.03903 0.16468 0.0
C1833 C 0.19423 0.02699 0.09936 0.0
C1834 C 0.17347 0.03078 0.10491 0.0
C1835 C 0.16884 0.03367 0.12627 0.0
C1836 C 0.15707 0.03549 0.08908 0.0
C1837 C 0.2002 0.02394 0.07664 0.0
C1838 C 0.16073 0.05285 0.07674 0.0
C1839 C 0.1441 0.06128 0.06612 0.0
C1840 C 0.12343 0.05266 0.06777 0.0
C1841 C 0.11985 0.03422 0.07859 0.0
C1842 C 0.13666 0.02572 0.08935 0.0
H1843 H 0.21356 0.01376 0.07536 0.0
H1844 H 0.18673 0.01708 0.06654 0.0
H1845 H 0.20538 0.03924 0.0704 0.0
H1846 H 0.17616 0.06097 0.07668 0.0
H1847 H 0.1473 0.07537 0.0576 0.0
H1848 H 0.73379 0.45626 0.16613 0.0
H1849 H 0.76207 0.45348 0.14098 0.0
H1850 H 0.78701 0.51529 0.16019 0.0
H1851 H 0.75925 0.51802 0.18561 0.0
H1852 H 0.77303 0.4796 0.10652 0.0
H1853 H 0.83768 0.47921 0.16738 0.0
H1854 H 0.81035 0.47426 0.1734 0.0
H1855 H 0.82114 0.50049 0.17088 0.0
C1856 C 0.7454 0.46919 0.16512 0.0
C1857 C 0.74423 0.48736 0.17793 0.0
C1858 C 0.76145 0.46763 0.15063 0.0
C1859 C 0.77675 0.4841 0.14884 0.0
C1860 C 0.77551 0.50229 0.16146 0.0
H1861 H 0.89351 0.50657 0.08686 0.0
H1862 H 0.85953 0.51143 0.10265 0.0
C1863 C 0.75949 0.50389 0.17586 0.0
C1864 C 0.79414 0.48245 0.13392 0.0
H1865 H 0.8477 0.48453 0.13213 0.0
C1866 C 0.78938 0.48059 0.11206 0.0
C1867 C 0.81543 0.48354 0.1412 0.0
C1868 C 0.82152 0.48428 0.1645 0.0
C1869 C 0.80541 0.48062 0.09725 0.0
C1870 C 0.82674 0.48236 0.10456 0.0
C1871 C 0.83139 0.48367 0.12646 0.0
C1872 C 0.84473 0.48216 0.09012 0.0
C1873 C 0.79936 0.47929 0.07397 0.0
C1874 C 0.84735 0.46474 0.07673 0.0
C1875 C 0.86663 0.46227 0.06724 0.0
C1876 C 0.88362 0.47705 0.07118 0.0
C1877 C 0.88045 0.49528 0.08307 0.0
C1878 C 0.86113 0.49788 0.09235 0.0
H1879 H 0.78315 0.48416 0.07094 0.0
H1880 H 0.81048 0.48911 0.06481 0.0
H1881 H 0.79981 0.46293 0.06803 0.0
H1882 H 0.83522 0.45216 0.07511 0.0
H1883 H 0.86895 0.44775 0.05876 0.0
H1884 H 0.225 0.02512 0.28992 0.0
H1885 H 0.19486 0.02 0.31256 0.0
H1886 H 0.21783 0.96213 0.33268 0.0
H1887 H 0.24823 0.96722 0.31016 0.0
H1888 H 0.16539 0.98219 0.30935 0.0
H1889 H 0.2056 0.99745 0.38844 0.0
H1890 H 0.21649 0.00717 0.36441 0.0
H1891 H 0.21764 0.98021 0.37015 0.0
C1892 C 0.22376 0.01143 0.29937 0.0
C1893 C 0.23894 0.99659 0.29842 0.0
C1894 C 0.20655 0.00853 0.3122 0.0
C1895 C 0.2044 0.99086 0.32438 0.0
C1896 C 0.21949 0.976 0.32353 0.0
H1897 H 0.1105 0.93395 0.39954 0.0
H1898 H 0.14308 0.94617 0.38305 0.0
C1899 C 0.23667 0.97882 0.31058 0.0
C1900 C 0.18572 0.98751 0.33714 0.0
H1901 H 0.16962 0.98537 0.38789 0.0
C1902 C 0.16621 0.98305 0.32651 0.0
C1903 C 0.18709 0.98861 0.35947 0.0
C1904 C 0.20778 0.99375 0.37141 0.0
C1905 C 0.14792 0.97913 0.33773 0.0
C1906 C 0.14925 0.98021 0.36008 0.0
C1907 C 0.16875 0.98485 0.37073 0.0
C1908 C 0.13077 0.97471 0.37251 0.0
C1909 C 0.12744 0.97314 0.32565 0.0
C1910 C 0.11348 0.98715 0.37254 0.0
C1911 C 0.095 0.9803 0.38216 0.0
C1912 C 0.09374 0.96089 0.39147 0.0
C1913 C 0.11129 0.9489 0.39218 0.0
C1914 C 0.12981 0.95588 0.38292 0.0
H1915 H 0.12988 0.96933 0.30869 0.0
H1916 H 0.11913 0.95949 0.33267 0.0
H1917 H 0.11706 0.98628 0.32661 0.0
H1918 H 0.1141 0.00178 0.36459 0.0
H1919 H 0.08148 0.98967 0.38156 0.0
H1920 H 0.71288 0.52665 0.32557 0.0
H1921 H 0.74085 0.53285 0.35345 0.0
H1922 H 0.78347 0.50073 0.31422 0.0
H1923 H 0.75591 0.49516 0.28637 0.0
H1924 H 0.76518 0.50319 0.37488 0.0
H1925 H 0.81448 0.55739 0.32849 0.0
H1926 H 0.78701 0.55081 0.3217 0.0
H1927 H 0.80683 0.53378 0.31361 0.0
C1928 C 0.72833 0.5211 0.32307 0.0
C1929 C 0.73258 0.51055 0.30408 0.0
C1930 C 0.74412 0.52452 0.33889 0.0
C1931 C 0.76415 0.51745 0.33564 0.0
C1932 C 0.76816 0.5066 0.31677 0.0
H1933 H 0.885 0.50399 0.37722 0.0
H1934 H 0.84781 0.49724 0.36666 0.0
C1935 C 0.75252 0.50337 0.30098 0.0
C1936 C 0.78129 0.52133 0.35164 0.0
H1937 H 0.83256 0.53963 0.35591 0.0
C1938 C 0.77983 0.51152 0.37106 0.0
C1939 C 0.80013 0.53252 0.3466 0.0
C1940 C 0.80214 0.5444 0.32655 0.0
C1941 C 0.79753 0.51117 0.38484 0.0
C1942 C 0.81678 0.52073 0.37874 0.0
C1943 C 0.81773 0.5319 0.36017 0.0
C1944 C 0.83675 0.51857 0.39034 0.0
C1945 C 0.796 0.49982 0.40519 0.0
C1946 C 0.84241 0.53182 0.40789 0.0
C1947 C 0.86356 0.53529 0.41421 0.0
C1948 C 0.87904 0.52583 0.40268 0.0
C1949 C 0.87318 0.51117 0.38639 0.0
C1950 C 0.85203 0.50733 0.38042 0.0
H1951 H 0.77985 0.49289 0.40749 0.0
H1952 H 0.80716 0.48729 0.40529 0.0
H1953 H 0.8006 0.51076 0.41875 0.0
H1954 H 0.8308 0.54094 0.41533 0.0
H1955 H 0.86794 0.54706 0.42651 0.0
H1956 H 0.22038 0.24302 0.01203 0.0
H1957 H 0.19169 0.21606 0.01376 0.0
H1958 H 0.15686 0.25779 0.05182 0.0
H1959 H 0.18517 0.28523 0.04893 0.0
H1960 H 0.17394 0.19606 0.04475 0.0
H1961 H 0.11355 0.24217 0.00607 0.0
H1962 H 0.14107 0.25083 0.00762 0.0
H1963 H 0.12517 0.25341 0.03041 0.0
C1964 C 0.20656 0.24636 0.02073 0.0
C1965 C 0.20472 0.26618 0.03003 0.0
C1966 C 0.19021 0.23099 0.02179 0.0
C1967 C 0.17182 0.23502 0.03246 0.0
C1968 C 0.17053 0.2545 0.04288 0.0
H1969 H 0.06412 0.1424 0.03908 0.0
H1970 H 0.08562 0.17535 0.04402 0.0
C1971 C 0.18677 0.27006 0.04146 0.0
C1972 C 0.1541 0.21877 0.03206 0.0
H1973 H 0.10307 0.20783 0.01427 0.0
C1974 C 0.15842 0.19873 0.03823 0.0
C1975 C 0.1337 0.22224 0.02374 0.0
C1976 C 0.12806 0.24326 0.01642 0.0
C1977 C 0.14331 0.18195 0.03547 0.0
C1978 C 0.12333 0.18524 0.02623 0.0
C1979 C 0.1185 0.20541 0.02117 0.0
C1980 C 0.10794 0.16755 0.02049 0.0
C1981 C 0.14904 0.16068 0.04199 0.0
C1982 C 0.11265 0.15297 0.00468 0.0
C1983 C 0.10032 0.13435 0.00165 0.0
C1984 C 0.08306 0.12995 0.01441 0.0
C1985 C 0.07713 0.14546 0.0288 0.0
C1986 C 0.08955 0.16418 0.03184 0.0
H1987 H 0.16264 0.16164 0.05355 0.0
H1988 H 0.13549 0.15209 0.04907 0.0
H1989 H 0.15346 0.15157 0.0278 0.0
H1990 H 0.12663 0.15546 0.99556 0.0
H1991 H 0.10533 0.12265 0.99053 0.0
H1992 H 0.1682 0.76523 0.53282 0.0
H1993 H 0.14344 0.79184 0.52603 0.0
H1994 H 0.14005 0.77336 0.45979 0.0
H1995 H 0.16325 0.74576 0.46659 0.0
H1996 H 0.14704 0.82508 0.50289 0.0
H1997 H 0.07918 0.77548 0.46955 0.0
H1998 H 0.10134 0.76467 0.48266 0.0
H1999 H 0.10231 0.77112 0.45518 0.0
C2000 C 0.16178 0.76639 0.51688 0.0
C2001 C 0.1679 0.75315 0.5003 0.0
C2002 C 0.14775 0.78183 0.51299 0.0
C2003 C 0.13951 0.78448 0.49245 0.0
C2004 C 0.14564 0.77137 0.4759 0.0
H2005 H 0.07964 0.8658 0.41487 0.0
H2006 H 0.09848 0.84052 0.43381 0.0
C2007 C 0.15935 0.75575 0.47979 0.0
C2008 C 0.12535 0.80151 0.488 0.0
H2009 H 0.08004 0.81169 0.46099 0.0
C2010 C 0.13218 0.82213 0.49409 0.0
C2011 C 0.10581 0.79773 0.4767 0.0
C2012 C 0.09665 0.77602 0.47087 0.0
C2013 C 0.12074 0.83907 0.48793 0.0
C2014 C 0.1019 0.83528 0.47552 0.0
C2015 C 0.09453 0.81463 0.47046 0.0
C2016 C 0.09115 0.85219 0.46494 0.0
C2017 C 0.12945 0.8609 0.49374 0.0
C2018 C 0.08087 0.86763 0.47614 0.0
C2019 C 0.06985 0.8825 0.46516 0.0
C2020 C 0.06883 0.88191 0.44288 0.0
C2021 C 0.07963 0.86666 0.43199 0.0
C2022 C 0.09056 0.8521 0.44282 0.0
H2023 H 0.14547 0.86125 0.50132 0.0
H2024 H 0.1301 0.8704 0.47945 0.0
H2025 H 0.11889 0.86825 0.50496 0.0
H2026 H 0.08099 0.86792 0.49326 0.0
H2027 H 0.06185 0.89409 0.47404 0.0
H2028 H 0.81597 0.7415 0.53523 0.0
H2029 H 0.84028 0.71441 0.52883 0.0
H2030 H 0.8265 0.71606 0.46178 0.0
H2031 H 0.80401 0.74439 0.46767 0.0
H2032 H 0.83402 0.6764 0.5133 0.0
H2033 H 0.88819 0.71735 0.45988 0.0
H2034 H 0.86884 0.73076 0.47425 0.0
H2035 H 0.86158 0.71661 0.4497 0.0
C2036 C 0.81848 0.73661 0.51903 0.0
C2037 C 0.80773 0.74544 0.50205 0.0
C2038 C 0.8323 0.72083 0.51542 0.0
C2039 C 0.83567 0.7133 0.49476 0.0
C2040 C 0.82482 0.72189 0.47784 0.0
H2041 H 0.87275 0.60062 0.44004 0.0
H2042 H 0.85567 0.62937 0.45673 0.0
C2043 C 0.81142 0.73794 0.48136 0.0
C2044 C 0.84972 0.69588 0.4909 0.0
H2045 H 0.88903 0.68005 0.4597 0.0
C2046 C 0.84628 0.67739 0.50183 0.0
C2047 C 0.86592 0.69702 0.47602 0.0
C2048 C 0.87149 0.7166 0.46447 0.0
C2049 C 0.85781 0.65988 0.4976 0.0
C2050 C 0.87322 0.66075 0.48204 0.0
C2051 C 0.87727 0.67941 0.4717 0.0
C2052 C 0.88349 0.64187 0.47447 0.0
C2053 C 0.85321 0.64031 0.50943 0.0
C2054 C 0.90485 0.63901 0.47921 0.0
C2055 C 0.91477 0.62225 0.46977 0.0
C2056 C 0.90354 0.60843 0.45509 0.0
C2057 C 0.88197 0.61103 0.45112 0.0
C2058 C 0.8721 0.62746 0.46071 0.0
H2059 H 0.84318 0.64301 0.52317 0.0
H2060 H 0.84492 0.62833 0.49858 0.0
H2061 H 0.86813 0.63404 0.51513 0.0
H2062 H 0.91396 0.65002 0.48977 0.0
H2063 H 0.93137 0.62074 0.47315 0.0
H2064 H 0.31868 0.71963 0.52795 0.0
H2065 H 0.3482 0.74631 0.52911 0.0
H2066 H 0.30462 0.79396 0.53904 0.0
H2067 H 0.27527 0.76738 0.53776 0.0
H2068 H 0.34772 0.77886 0.49844 0.0
H2069 H 0.35493 0.81075 0.58119 0.0
H2070 H 0.34333 0.78493 0.57431 0.0
H2071 H 0.32834 0.80729 0.57063 0.0
C2072 C 0.31565 0.73578 0.531 0.0
C2073 C 0.29497 0.74169 0.53291 0.0
C2074 C 0.33239 0.75092 0.53163 0.0
C2075 C 0.32852 0.77199 0.53438 0.0
C2076 C 0.30792 0.77772 0.53735 0.0
H2077 H 0.36393 0.89144 0.50544 0.0
H2078 H 0.35082 0.85502 0.50523 0.0
C2079 C 0.29121 0.76263 0.53659 0.0
C2080 C 0.34526 0.7883 0.53124 0.0
H2081 H 0.36852 0.8329 0.55432 0.0
C2082 C 0.35279 0.79039 0.51077 0.0
C2083 C 0.35163 0.80329 0.54737 0.0
C2084 C 0.34429 0.80141 0.56967 0.0
C2085 C 0.36544 0.80798 0.50567 0.0
C2086 C 0.37078 0.82349 0.5215 0.0
C2087 C 0.3644 0.82078 0.54228 0.0
C2088 C 0.38039 0.84394 0.51639 0.0
C2089 C 0.37206 0.81055 0.48323 0.0
C2090 C 0.40159 0.84939 0.5218 0.0
C2091 C 0.40923 0.8702 0.52171 0.0
C2092 C 0.39555 0.88566 0.51663 0.0
C2093 C 0.37482 0.8798 0.50937 0.0
C2094 C 0.36729 0.85905 0.50929 0.0
H2095 H 0.36922 0.7959 0.47348 0.0
H2096 H 0.36301 0.82276 0.47592 0.0
H2097 H 0.38902 0.81575 0.48303 0.0
H2098 H 0.41179 0.8378 0.52742 0.0
H2099 H 0.4252 0.87434 0.52753 0.0
H2100 H 0.53234 0.69219 0.77175 0.0
H2101 H 0.5317 0.66597 0.74262 0.0
H2102 H 0.54597 0.71426 0.69883 0.0
H2103 H 0.54638 0.74056 0.72806 0.0
H2104 H 0.50992 0.6873 0.68698 0.0
H2105 H 0.57867 0.64234 0.70737 0.0
H2106 H 0.56207 0.64736 0.72912 0.0
H2107 H 0.57619 0.6687 0.71721 0.0
C2108 C 0.53572 0.69709 0.75595 0.0
C2109 C 0.53934 0.7183 0.75202 0.0
C2110 C 0.53544 0.68214 0.73934 0.0
C2111 C 0.53891 0.68812 0.71854 0.0
C2112 C 0.54327 0.70929 0.71475 0.0
H2113 H 0.52435 0.61405 0.59927 0.0
H2114 H 0.52676 0.64306 0.62525 0.0
C2115 C 0.54357 0.72427 0.73139 0.0
C2116 C 0.53616 0.67244 0.70067 0.0
H2117 H 0.55366 0.62656 0.68196 0.0
C2118 C 0.5196 0.67411 0.68572 0.0
C2119 C 0.54884 0.6553 0.69903 0.0
C2120 C 0.56758 0.65332 0.71389 0.0
C2121 C 0.51479 0.65864 0.66972 0.0
C2122 C 0.52704 0.64111 0.6685 0.0
C2123 C 0.54403 0.6398 0.68308 0.0
C2124 C 0.52257 0.62383 0.65236 0.0
C2125 C 0.49616 0.6608 0.65478 0.0
C2126 C 0.51908 0.60328 0.65878 0.0
C2127 C 0.51804 0.58658 0.64393 0.0
C2128 C 0.52025 0.59009 0.62232 0.0
C2129 C 0.52214 0.61077 0.61575 0.0
C2130 C 0.52359 0.62744 0.63064 0.0
H2131 H 0.4856 0.67254 0.66081 0.0
H2132 H 0.50185 0.6659 0.6393 0.0
H2133 H 0.48691 0.64568 0.65212 0.0
H2134 H 0.51814 0.60009 0.67543 0.0
H2135 H 0.51681 0.57085 0.64947 0.0
H2136 H 0.53868 0.8585 0.74853 0.0
H2137 H 0.53086 0.88109 0.71914 0.0
H2138 H 0.48466 0.83445 0.6931 0.0
H2139 H 0.49262 0.81171 0.72187 0.0
H2140 H 0.5295 0.86889 0.67043 0.0
H2141 H 0.45455 0.89141 0.70437 0.0
H2142 H 0.47589 0.88232 0.72038 0.0
H2143 H 0.45888 0.86413 0.70459 0.0
C2144 C 0.52707 0.85298 0.73637 0.0
C2145 C 0.51609 0.83342 0.73764 0.0
C2146 C 0.5226 0.86591 0.71969 0.0
C2147 C 0.50708 0.85943 0.70419 0.0
C2148 C 0.49654 0.83975 0.70511 0.0
H2149 H 0.43826 0.88504 0.59556 0.0
H2150 H 0.45815 0.872 0.62535 0.0
C2151 C 0.50102 0.82685 0.72163 0.0
C2152 C 0.50114 0.87317 0.68715 0.0
H2153 H 0.45901 0.89748 0.66781 0.0
C2154 C 0.51433 0.87562 0.66998 0.0
C2155 C 0.48133 0.88181 0.68674 0.0
C2156 C 0.46685 0.87998 0.70507 0.0
C2157 C 0.50756 0.88549 0.65174 0.0
C2158 C 0.48725 0.89306 0.65092 0.0
C2159 C 0.47459 0.89159 0.66856 0.0
C2160 C 0.47769 0.90045 0.63125 0.0
C2161 C 0.52148 0.88669 0.63298 0.0
C2162 C 0.48246 0.92066 0.62454 0.0
C2163 C 0.47108 0.9282 0.60743 0.0
C2164 C 0.45467 0.91566 0.59706 0.0
C2165 C 0.45059 0.89518 0.60341 0.0
C2166 C 0.46199 0.88766 0.62034 0.0
H2167 H 0.5369 0.88006 0.63616 0.0
H2168 H 0.51344 0.87812 0.61914 0.0
H2169 H 0.52432 0.90316 0.62868 0.0
H2170 H 0.49444 0.93076 0.63295 0.0
H2171 H 0.47462 0.94404 0.60282 0.0
H2172 H 0.55841 0.3456 0.7297 0.0
H2173 H 0.56235 0.37239 0.75827 0.0
H2174 H 0.50103 0.35273 0.78002 0.0
H2175 H 0.49752 0.3252 0.75279 0.0
H2176 H 0.53733 0.40551 0.76929 0.0
H2177 H 0.53972 0.3476 0.83187 0.0
H2178 H 0.54305 0.3409 0.80432 0.0
H2179 H 0.51711 0.34313 0.81423 0.0
C2180 C 0.54587 0.34684 0.74072 0.0
C2181 C 0.52772 0.33312 0.73906 0.0
C2182 C 0.54807 0.36228 0.75684 0.0
C2183 C 0.5321 0.36419 0.77134 0.0
C2184 C 0.51365 0.35117 0.76915 0.0
H2185 H 0.51265 0.43175 0.88747 0.0
H2186 H 0.5066 0.41424 0.85257 0.0
C2187 C 0.51158 0.33561 0.75336 0.0
C2188 C 0.53475 0.37924 0.78937 0.0
H2189 H 0.53399 0.38235 0.84314 0.0
C2190 C 0.53673 0.40054 0.78547 0.0
C2191 C 0.53419 0.37253 0.81037 0.0
C2192 C 0.53363 0.34979 0.81549 0.0
C2193 C 0.53736 0.41545 0.80219 0.0
C2194 C 0.53596 0.4087 0.82312 0.0
C2195 C 0.53448 0.3874 0.82698 0.0
C2196 C 0.53758 0.42325 0.84161 0.0
C2197 C 0.53923 0.43823 0.79739 0.0
C2198 C 0.55671 0.43458 0.84652 0.0
C2199 C 0.56019 0.44449 0.86632 0.0
C2200 C 0.54461 0.4431 0.8815 0.0
C2201 C 0.52484 0.43315 0.87598 0.0
C2202 C 0.5214 0.42312 0.85613 0.0
H2203 H 0.53465 0.44085 0.78064 0.0
H2204 H 0.52928 0.44728 0.80788 0.0
H2205 H 0.55583 0.44429 0.8002 0.0
H2206 H 0.56949 0.43452 0.83565 0.0
H2207 H 0.57556 0.45215 0.87021 0.0
H2208 H 0.51591 0.18161 0.70956 0.0
H2209 H 0.51236 0.15714 0.73842 0.0
H2210 H 0.49455 0.20677 0.78016 0.0
H2211 H 0.49818 0.23126 0.75131 0.0
H2212 H 0.5286 0.17984 0.79603 0.0
H2213 H 0.45507 0.13565 0.76552 0.0
H2214 H 0.47551 0.14129 0.74718 0.0
H2215 H 0.46171 0.16212 0.75843 0.0
C2216 C 0.51113 0.1872 0.72489 0.0
C2217 C 0.50733 0.20828 0.72828 0.0
C2218 C 0.50908 0.17324 0.74134 0.0
C2219 C 0.50312 0.18009 0.76146 0.0
C2220 C 0.49919 0.20114 0.76479 0.0
H2221 H 0.46307 0.13403 0.87689 0.0
H2222 H 0.47006 0.14973 0.84342 0.0
C2223 C 0.50119 0.21509 0.74834 0.0
C2224 C 0.50127 0.16542 0.77913 0.0
H2225 H 0.46996 0.12542 0.79776 0.0
C2226 C 0.51596 0.16774 0.79627 0.0
C2227 C 0.48471 0.1497 0.77951 0.0
C2228 C 0.46821 0.14695 0.76179 0.0
C2229 C 0.51433 0.15498 0.81386 0.0
C2230 C 0.49759 0.13949 0.81439 0.0
C2231 C 0.48307 0.13697 0.79713 0.0
C2232 C 0.49301 0.12831 0.83412 0.0
C2233 C 0.52996 0.15863 0.83226 0.0
C2234 C 0.50341 0.11063 0.84003 0.0
C2235 C 0.49916 0.10115 0.85938 0.0
C2236 C 0.4847 0.10946 0.87315 0.0
C2237 C 0.47429 0.12703 0.86681 0.0
C2238 C 0.47825 0.13615 0.84759 0.0
H2239 H 0.54232 0.17106 0.82932 0.0
H2240 H 0.52161 0.16309 0.84669 0.0
H2241 H 0.53762 0.14402 0.83545 0.0
H2242 H 0.51495 0.10436 0.82984 0.0
H2243 H 0.50755 0.0878 0.86382 0.0
H2244 H 0.76686 0.55155 0.67391 0.0
H2245 H 0.73723 0.55526 0.64887 0.0
H2246 H 0.70061 0.50793 0.68079 0.0
H2247 H 0.72914 0.50621 0.70717 0.0
H2248 H 0.72061 0.53061 0.62091 0.0
H2249 H 0.65671 0.54619 0.67471 0.0
H2250 H 0.68368 0.54641 0.68423 0.0
H2251 H 0.6675 0.5223 0.68149 0.0
C2252 C 0.75212 0.54262 0.67599 0.0
C2253 C 0.75011 0.5288 0.69257 0.0
C2254 C 0.73531 0.54449 0.66153 0.0
C2255 C 0.71644 0.53211 0.66303 0.0
C2256 C 0.71455 0.51829 0.67965 0.0
H2257 H 0.59858 0.51561 0.59349 0.0
H2258 H 0.63266 0.50479 0.60662 0.0
C2259 C 0.73096 0.51712 0.69461 0.0
C2260 C 0.69925 0.53266 0.6466 0.0
H2261 H 0.64598 0.5336 0.63984 0.0
C2262 C 0.7043 0.53138 0.6251 0.0
C2263 C 0.67791 0.53387 0.6519 0.0
C2264 C 0.67122 0.53751 0.67434 0.0
C2265 C 0.68863 0.53098 0.6089 0.0
C2266 C 0.66737 0.53129 0.61435 0.0
C2267 C 0.6623 0.53258 0.63574 0.0
C2268 C 0.65004 0.53325 0.5986 0.0
C2269 C 0.69491 0.5304 0.58613 0.0
C2270 C 0.64895 0.55205 0.58828 0.0
C2271 C 0.62956 0.55817 0.58081 0.0
C2272 C 0.6112 0.5455 0.58352 0.0
C2273 C 0.61267 0.52544 0.59102 0.0
C2274 C 0.6321 0.51933 0.59859 0.0
H2275 H 0.71064 0.52416 0.58441 0.0
H2276 H 0.68316 0.52084 0.57596 0.0
H2277 H 0.69574 0.54647 0.58033 0.0
H2278 H 0.66248 0.56314 0.58839 0.0
H2279 H 0.62858 0.57381 0.57527 0.0
H2280 H 0.21292 0.97101 0.66689 0.0
H2281 H 0.24043 0.96727 0.64081 0.0
H2282 H 0.28554 0.00091 0.68386 0.0
H2283 H 0.25825 0.00416 0.70993 0.0
H2284 H 0.26458 0.9969 0.62062 0.0
H2285 H 0.31627 0.94993 0.66861 0.0
H2286 H 0.28952 0.95396 0.67539 0.0
H2287 H 0.3104 0.97333 0.68272 0.0
C2288 C 0.22881 0.97731 0.67078 0.0
C2289 C 0.2336 0.9877 0.69044 0.0
C2290 C 0.24448 0.9753 0.65587 0.0
C2291 C 0.2652 0.98354 0.66044 0.0
C2292 C 0.26985 0.99398 0.6801 0.0
H2293 H 0.38656 0.98737 0.6029 0.0
H2294 H 0.35602 0.99695 0.62289 0.0
C2295 C 0.25426 0.99592 0.69497 0.0
C2296 C 0.282 0.98175 0.64469 0.0
H2297 H 0.33196 0.96646 0.63932 0.0
C2298 C 0.27929 0.99016 0.62464 0.0
C2299 C 0.3011 0.97267 0.64975 0.0
C2300 C 0.30443 0.96175 0.67019 0.0
C2301 C 0.2955 0.9906 0.60998 0.0
C2302 C 0.31497 0.98235 0.61547 0.0
C2303 C 0.31735 0.97338 0.63527 0.0
C2304 C 0.33283 0.98164 0.60074 0.0
C2305 C 0.29174 0.00034 0.58897 0.0
C2306 C 0.33003 0.97098 0.58101 0.0
C2307 C 0.34743 0.96615 0.56932 0.0
C2308 C 0.36804 0.9715 0.57721 0.0
C2309 C 0.37087 0.9836 0.5961 0.0
C2310 C 0.35339 0.98874 0.6077 0.0
H2311 H 0.27898 0.01129 0.58969 0.0
H2312 H 0.30625 0.00881 0.5837 0.0
H2313 H 0.2868 0.98793 0.57689 0.0
H2314 H 0.31455 0.96475 0.57545 0.0
H2315 H 0.34483 0.95619 0.55519 0.0
H2316 H 0.74013 0.5367 0.8165 0.0
H2317 H 0.71338 0.53327 0.8428 0.0
H2318 H 0.71415 0.46643 0.83727 0.0
H2319 H 0.7425 0.46966 0.81254 0.0
H2320 H 0.67482 0.51571 0.83706 0.0
H2321 H 0.71669 0.47466 0.89988 0.0
H2322 H 0.73022 0.48586 0.87799 0.0
H2323 H 0.71556 0.46105 0.87465 0.0
C2324 C 0.7352 0.52125 0.82131 0.0
C2325 C 0.74363 0.50346 0.81235 0.0
C2326 C 0.71966 0.51933 0.83617 0.0
C2327 C 0.71196 0.49963 0.84213 0.0
C2328 C 0.72022 0.48181 0.83325 0.0
H2329 H 0.61306 0.45469 0.91938 0.0
H2330 H 0.63977 0.46007 0.89314 0.0
C2331 C 0.73617 0.48371 0.81877 0.0
C2332 C 0.69456 0.49787 0.85685 0.0
H2333 H 0.68007 0.47769 0.9036 0.0
C2334 C 0.67601 0.50757 0.85173 0.0
C2335 C 0.69616 0.48705 0.87582 0.0
C2336 C 0.7158 0.47673 0.88251 0.0
C2337 C 0.6589 0.5066 0.86505 0.0
C2338 C 0.6606 0.49588 0.884 0.0
C2339 C 0.67904 0.48609 0.88907 0.0
C2340 C 0.64308 0.49348 0.89842 0.0
C2341 C 0.63898 0.51651 0.85851 0.0
C2342 C 0.63597 0.51062 0.90982 0.0
C2343 C 0.62047 0.50758 0.92478 0.0
C2344 C 0.61249 0.48736 0.92858 0.0
C2345 C 0.61942 0.47039 0.9169 0.0
C2346 C 0.63452 0.47342 0.90188 0.0
H2347 H 0.63892 0.52084 0.84167 0.0
H2348 H 0.62497 0.5058 0.86095 0.0
H2349 H 0.63752 0.53083 0.86845 0.0
H2350 H 0.64269 0.5262 0.90744 0.0
H2351 H 0.61498 0.52081 0.9335 0.0
H2352 H 0.25458 0.98249 0.81125 0.0
H2353 H 0.28403 0.98887 0.8367 0.0
H2354 H 0.2614 0.04833 0.85472 0.0
H2355 H 0.23133 0.04185 0.82954 0.0
H2356 H 0.3102 0.02872 0.82943 0.0
H2357 H 0.28297 0.01947 0.91163 0.0
H2358 H 0.2697 0.00545 0.8892 0.0
H2359 H 0.26721 0.03285 0.89292 0.0
C2360 C 0.2554 0.99659 0.82114 0.0
C2361 C 0.24077 0.01174 0.81837 0.0
C2362 C 0.27222 0.0002 0.83563 0.0
C2363 C 0.27461 0.01893 0.84755 0.0
C2364 C 0.25949 0.03366 0.84576 0.0
H2365 H 0.38185 0.083 0.90832 0.0
H2366 H 0.34589 0.06959 0.89865 0.0
C2367 C 0.24256 0.03005 0.83124 0.0
C2368 C 0.29474 0.0244 0.85884 0.0
H2369 H 0.31899 0.02971 0.90772 0.0
C2370 C 0.31221 0.02882 0.84654 0.0
C2371 C 0.29693 0.02478 0.88108 0.0
C2372 C 0.27828 0.02035 0.89463 0.0
C2373 C 0.33211 0.03352 0.85598 0.0
C2374 C 0.3345 0.03329 0.87823 0.0
C2375 C 0.31697 0.02927 0.89062 0.0
C2376 C 0.35497 0.03913 0.88862 0.0
C2377 C 0.35037 0.03916 0.84218 0.0
C2378 C 0.37163 0.02603 0.88678 0.0
C2379 C 0.39215 0.03362 0.8924 0.0
C2380 C 0.3959 0.05437 0.89951 0.0
C2381 C 0.37907 0.06698 0.90257 0.0
C2382 C 0.35864 0.05933 0.89729 0.0
H2383 H 0.34512 0.04178 0.82562 0.0
H2384 H 0.3594 0.05345 0.84862 0.0
H2385 H 0.3612 0.02636 0.84197 0.0
H2386 H 0.36888 0.01041 0.87993 0.0
H2387 H 0.4051 0.02379 0.89004 0.0
H2388 H 0.70726 0.73497 0.51746 0.0
H2389 H 0.68033 0.70649 0.52115 0.0
H2390 H 0.64246 0.74817 0.55581 0.0
H2391 H 0.66922 0.77682 0.55155 0.0
H2392 H 0.66313 0.68848 0.55526 0.0
H2393 H 0.60213 0.72594 0.508 0.0
H2394 H 0.6294 0.73559 0.5094 0.0
H2395 H 0.61235 0.7415 0.53058 0.0
C2396 C 0.69325 0.73787 0.52606 0.0
C2397 C 0.69012 0.75787 0.53423 0.0
C2398 C 0.67791 0.7217 0.52812 0.0
C2399 C 0.65922 0.72535 0.53834 0.0
C2400 C 0.65655 0.74517 0.54741 0.0
H2401 H 0.5586 0.64348 0.5784 0.0
H2402 H 0.58237 0.67343 0.57076 0.0
C2403 C 0.67186 0.76141 0.54522 0.0
C2404 C 0.64249 0.70842 0.53916 0.0
H2405 H 0.59098 0.69502 0.52508 0.0
C2406 C 0.6474 0.68987 0.54857 0.0
C2407 C 0.62203 0.71022 0.53018 0.0
C2408 C 0.61618 0.7293 0.51878 0.0
C2409 C 0.63224 0.67322 0.54966 0.0
C2410 C 0.61173 0.67525 0.54112 0.0
C2411 C 0.6068 0.69365 0.53156 0.0
C2412 C 0.59495 0.65871 0.54316 0.0
C2413 C 0.63806 0.65363 0.56017 0.0
C2414 C 0.5936 0.64104 0.52949 0.0
C2415 C 0.57975 0.62405 0.53358 0.0
C2416 C 0.56741 0.62453 0.55156 0.0
C2417 C 0.56784 0.64282 0.56435 0.0
C2418 C 0.58146 0.65985 0.5601 0.0
H2419 H 0.65434 0.65504 0.56718 0.0
H2420 H 0.62693 0.64984 0.57283 0.0
H2421 H 0.63675 0.64043 0.54835 0.0
H2422 H 0.60401 0.63999 0.51636 0.0
H2423 H 0.58 0.60998 0.52373 0.0
H2424 H 0.66353 0.2488 0.98506 0.0
H2425 H 0.63949 0.27638 0.97923 0.0
H2426 H 0.67054 0.31318 0.03077 0.0
H2427 H 0.6948 0.28573 0.03658 0.0
H2428 H 0.61147 0.29593 0.00845 0.0
H2429 H 0.67325 0.35128 0.9787 0.0
H2430 H 0.67641 0.32371 0.9799 0.0
H2431 H 0.67947 0.33999 0.00355 0.0
C2432 C 0.66525 0.26276 0.99517 0.0
C2433 C 0.68118 0.26509 0.01123 0.0
C2434 C 0.65142 0.27847 0.99188 0.0
C2435 C 0.65333 0.29693 0.00441 0.0
C2436 C 0.66889 0.29914 0.02077 0.0
H2437 H 0.59416 0.41445 0.99688 0.0
H2438 H 0.61126 0.38439 0.01048 0.0
C2439 C 0.68264 0.28336 0.02418 0.0
C2440 C 0.63933 0.31404 6e-05 0.0
H2441 H 0.63957 0.36377 0.98299 0.0
C2442 C 0.61759 0.31078 0.0029 0.0
C2443 C 0.64732 0.33337 0.9927 0.0
C2444 C 0.67035 0.33737 0.98833 0.0
C2445 C 0.6037 0.32644 -0.00114 0.0
C2446 C 0.6117 0.34578 0.99159 0.0
C2447 C 0.63344 0.34902 0.98877 0.0
C2448 C 0.59784 0.36271 0.98604 0.0
C2449 C 0.58059 0.32234 0.00265 0.0
C2450 C 0.58395 0.3604 0.96824 0.0
C2451 C 0.57413 0.37761 0.96048 0.0
C2452 C 0.57776 0.39734 0.97058 0.0
C2453 C 0.59043 0.39928 0.98926 0.0
C2454 C 0.60047 0.38216 0.99686 0.0
H2455 H 0.57755 0.30849 0.01233 0.0
H2456 H 0.57425 0.33603 0.01074 0.0
H2457 H 0.57189 0.31955 0.98721 0.0
H2458 H 0.58195 0.34567 0.9594 0.0
H2459 H 0.56513 0.37587 0.94561 0.0
H2460 H 0.34815 0.27066 0.0286 0.0
H2461 H 0.37145 0.24248 0.02171 0.0
H2462 H 0.32628 0.21453 0.97517 0.0
H2463 H 0.30281 0.24218 0.98218 0.0
H2464 H 0.36321 0.19676 0.02307 0.0
H2465 H 0.38199 0.22368 0.94308 0.0
H2466 H 0.37093 0.24021 0.96286 0.0
H2467 H 0.35435 0.22091 0.94796 0.0
C2468 C 0.34306 0.25841 0.01707 0.0
C2469 C 0.32367 0.25893 0.00574 0.0
C2470 C 0.35643 0.24234 0.01311 0.0
C2471 C 0.35073 0.22658 -0.00229 0.0
C2472 C 0.33118 0.22674 0.98685 0.0
H2473 H 0.39338 0.11888 0.9372 0.0
H2474 H 0.37407 0.14542 0.95511 0.0
C2475 C 0.31782 0.24267 0.99082 0.0
C2476 C 0.36525 0.21014 0.99245 0.0
H2477 H 0.39179 0.18985 0.95139 0.0
C2478 C 0.36975 0.19539 0.00752 0.0
C2479 C 0.37378 0.2084 0.97215 0.0
C2480 C 0.37021 0.22423 0.9556 0.0
C2481 C 0.38183 0.17844 0.00246 0.0
C2482 C 0.3897 0.17638 0.98195 0.0
C2483 C 0.38573 0.19148 0.96714 0.0
C2484 C 0.40069 0.15791 0.97471 0.0
C2485 C 0.38538 0.16233 0.01866 0.0
C2486 C 0.42196 0.1556 0.98037 0.0
C2487 C 0.43311 0.14022 0.97015 0.0
C2488 C 0.42303 0.12713 0.95415 0.0
C2489 C 0.40145 0.12867 0.94962 0.0
C2490 C 0.39041 0.14388 0.95977 0.0
H2491 H 0.37727 0.16557 0.03357 0.0
H2492 H 0.37963 0.1467 0.01211 0.0
H2493 H 0.4025 0.1619 0.02234 0.0
H2494 H 0.43023 0.16644 0.99174 0.0
H2495 H 0.44982 0.13958 0.97361 0.0
H2496 H 0.79349 0.27818 0.04684 0.0
H2497 H 0.82358 0.30381 0.04629 0.0
H2498 H 0.86229 0.25641 0.02235 0.0
H2499 H 0.83216 0.23055 0.02331 0.0
H2500 H 0.88156 0.28857 0.05542 0.0
H2501 H 0.84247 0.32011 0.9848 0.0
H2502 H 0.82564 0.31612 0.00673 0.0
H2503 H 0.83621 0.29414 0.99364 0.0
C2504 C 0.80861 0.27319 0.04212 0.0
C2505 C 0.81076 0.25263 0.03512 0.0
C2506 C 0.82565 0.28775 0.04165 0.0
C2507 C 0.84485 0.28191 0.03389 0.0
C2508 C 0.84747 0.26107 0.02826 0.0
H2509 H 0.93317 0.38915 0.00902 0.0
H2510 H 0.91594 0.354 0.00256 0.0
C2511 C 0.83041 0.24641 0.02886 0.0
C2512 C 0.86136 0.29811 0.03009 0.0
H2513 H 0.86926 0.34262 0.00316 0.0
C2514 C 0.87925 0.30011 0.04365 0.0
C2515 C 0.85833 0.31284 0.01443 0.0
C2516 C 0.83972 0.31065 -0.00109 0.0
C2517 C 0.89333 0.31765 0.04315 0.0
C2518 C 0.88916 0.33337 0.02888 0.0
C2519 C 0.87231 0.33047 0.01407 0.0
C2520 C 0.89956 0.35426 0.03196 0.0
C2521 C 0.91184 0.31997 0.05877 0.0
C2522 C 0.89545 0.36588 0.05026 0.0
C2523 C 0.90529 0.38552 0.05405 0.0
C2524 C 0.91917 0.39401 0.03941 0.0
C2525 C 0.92271 0.38272 0.02062 0.0
C2526 C 0.91294 0.36279 0.01692 0.0
H2527 H 0.91624 0.30464 0.06436 0.0
H2528 H 0.92571 0.32798 0.05166 0.0
H2529 H 0.9076 0.3295 0.07275 0.0
H2530 H 0.88463 0.35968 0.06168 0.0
H2531 H 0.90178 0.39418 0.06835 0.0
loop_
_geom_bond_atom_site_label_1
_geom_bond_atom_site_label_2
_geom_bond_distance
_geom_bond_site_symmetry_2
_ccdc_geom_bond_type
C0 C1 1.443 1_455 S
C0 N4 1.376 . S
C0 C38 1.389 . S
C1 C0 1.443 1_655 S
C1 C2 1.340 . S
C1 H41 0.951 . S
C2 C1 1.340 . S
C2 C3 1.439 . S
C2 H42 0.950 . S
C3 C2 1.439 . S
C3 N4 1.374 1_655 S
C3 C37 1.395 . S
N4 C0 1.376 . S
N4 C3 1.374 1_455 S
N4 Co5 2.008 . S
Co5 N4 2.008 . S
Co5 N6 1.995 . S
Co5 N11 2.008 . S
Co5 N16 1.995 . S
Co5 N21 2.282 . S
Co5 N27 2.282 . S
N6 Co5 1.995 . S
N6 C7 1.376 1_455 S
N6 C10 1.383 . S
C7 N6 1.376 1_655 S
C7 C8 1.446 . S
C7 C37 1.391 . S
C8 C7 1.446 . S
C8 C9 1.339 1_655 S
C8 H43 0.949 . S
C9 C8 1.339 1_455 S
C9 C10 1.439 . S
C9 H44 0.950 . S
C10 N6 1.383 . S
C10 C9 1.439 . S
C10 C39 1.392 . S
N11 Co5 2.008 . S
N11 C12 1.376 . S
N11 C15 1.374 . S
C12 N11 1.376 . S
C12 C13 1.443 . S
C12 C39 1.389 . S
C13 C12 1.443 . S
C13 C14 1.340 . S
C13 H45 0.951 . S
C14 C13 1.340 . S
C14 C15 1.439 . S
C14 H46 0.950 . S
C15 N11 1.374 . S
C15 C14 1.439 . S
C15 C40 1.395 . S
N16 Co5 1.995 . S
N16 C17 1.376 . S
N16 C20 1.383 . S
C17 N16 1.376 . S
C17 C18 1.446 . S
C17 C40 1.391 . S
C18 C17 1.446 . S
C18 C19 1.339 . S
C18 H47 0.949 . S
C19 C18 1.339 . S
C19 C20 1.439 . S
C19 H48 0.950 . S
C20 N16 1.383 . S
C20 C19 1.439 . S
C20 C38 1.392 . S
N21 Co5 2.282 . S
N21 C24 1.332 . S
N21 C26 1.332 . S
C22 C23 1.386 . S
C22 C25 1.388 . S
C23 C22 1.386 . S
C23 C24 1.382 . S
C23 H49 0.950 . S
C24 N21 1.332 . S
C24 C23 1.382 . S
C24 H35 0.952 . S
C25 C22 1.388 . S
C25 C26 1.382 . S
C25 H50 0.950 . S
C26 N21 1.332 . S
C26 C25 1.382 . S
C26 H36 0.948 . S
N27 Co5 2.282 . S
N27 C31 1.332 . S
N27 C32 1.332 . S
C28 C29 1.388 . S
C28 C32 1.382 . S
C28 H51 0.950 . S
C29 C28 1.388 . S
C29 C30 1.386 . S
C30 C29 1.386 . S
C30 C31 1.382 . S
C30 H52 0.950 1_455 S
C31 N27 1.332 . S
C31 C30 1.382 . S
C31 H33 0.952 . S
C32 N27 1.332 . S
C32 C28 1.382 . S
C32 H34 0.948 . S
H33 C31 0.952 . S
H34 C32 0.948 . S
H35 C24 0.952 . S
H36 C26 0.948 . S
C37 C3 1.395 . S
C37 C7 1.391 . S
C38 C0 1.389 . S
C38 C20 1.392 . S
C39 C10 1.392 . S
C39 C12 1.389 . S
C40 C15 1.395 . S
C40 C17 1.391 . S
H41 C1 0.951 . S
H42 C2 0.950 . S
H43 C8 0.949 . S
H44 C9 0.950 . S
H45 C13 0.951 . S
H46 C14 0.950 . S
H47 C18 0.949 . S
H48 C19 0.950 . S
H49 C23 0.950 . S
H50 C25 0.950 . S
H51 C28 0.950 . S
H52 C30 0.950 1_655 S
C53 C54 1.443 . S
C53 N57 1.376 . S
C53 C91 1.389 1_655 S
C54 C53 1.443 . S
C54 C55 1.340 . S
C54 H94 0.951 . S
C55 C54 1.340 . S
C55 C56 1.439 . S
C55 H95 0.950 . S
C56 C55 1.439 . S
C56 N57 1.374 . S
C56 C90 1.395 . S
N57 C53 1.376 . S
N57 C56 1.374 . S
N57 Co58 2.008 1_655 S
Co58 N57 2.008 1_455 S
Co58 N59 1.995 1_455 S
Co58 N64 2.008 . S
Co58 N69 1.995 . S
Co58 N74 2.282 . S
Co58 N80 2.282 . S
N59 Co58 1.995 1_655 S
N59 C60 1.376 . S
N59 C63 1.383 1_655 S
C60 N59 1.376 . S
C60 C61 1.446 . S
C60 C90 1.391 . S
C61 C60 1.446 . S
C61 C62 1.339 . S
C61 H96 0.949 . S
C62 C61 1.339 . S
C62 C63 1.439 1_655 S
C62 H97 0.950 . S
C63 N59 1.383 1_455 S
C63 C62 1.439 1_455 S
C63 C92 1.392 . S
N64 Co58 2.008 . S
N64 C65 1.376 . S
N64 C68 1.374 . S
C65 N64 1.376 . S
C65 C66 1.443 . S
C65 C92 1.389 . S
C66 C65 1.443 . S
C66 C67 1.340 . S
C66 H98 0.951 . S
C67 C66 1.340 . S
C67 C68 1.439 . S
C67 H99 0.950 . S
C68 N64 1.374 . S
C68 C67 1.439 . S
C68 C93 1.395 . S
N69 Co58 1.995 . S
N69 C70 1.376 . S
N69 C73 1.383 . S
C70 N69 1.376 . S
C70 C71 1.446 . S
C70 C93 1.391 . S
C71 C70 1.446 . S
C71 C72 1.339 . S
C71 H100 0.949 . S
C72 C71 1.339 . S
C72 C73 1.439 . S
C72 H101 0.950 . S
C73 N69 1.383 . S
C73 C72 1.439 . S
C73 C91 1.392 . S
N74 Co58 2.282 . S
N74 C77 1.332 . S
N74 C79 1.332 . S
C75 C76 1.386 . S
C75 C78 1.388 . S
C76 C75 1.386 . S
C76 C77 1.382 . S
C76 H102 0.950 . S
C77 N74 1.332 . S
C77 C76 1.382 . S
C77 H88 0.952 . S
C78 C75 1.388 . S
C78 C79 1.382 . S
C78 H103 0.950 . S
C79 N74 1.332 . S
C79 C78 1.382 . S
C79 H89 0.948 1_455 S
N80 Co58 2.282 . S
N80 C84 1.332 1_455 S
N80 C85 1.332 . S
C81 C82 1.388 . S
C81 C85 1.382 . S
C81 H104 0.950 . S
C82 C81 1.388 . S
C82 C83 1.386 1_455 S
C83 C82 1.386 1_655 S
C83 C84 1.382 . S
C83 H105 0.950 . S
C84 N80 1.332 1_655 S
C84 C83 1.382 . S
C84 H86 0.952 . S
C85 N80 1.332 . S
C85 C81 1.382 . S
C85 H87 0.948 . S
H86 C84 0.952 . S
H87 C85 0.948 . S
H88 C77 0.952 . S
H89 C79 0.948 1_655 S
C90 C56 1.395 . S
C90 C60 1.391 . S
C91 C53 1.389 1_455 S
C91 C73 1.392 . S
C92 C63 1.392 . S
C92 C65 1.389 . S
C93 C68 1.395 . S
C93 C70 1.391 . S
H94 C54 0.951 . S
H95 C55 0.950 . S
H96 C61 0.949 . S
H97 C62 0.950 . S
H98 C66 0.951 . S
H99 C67 0.950 . S
H100 C71 0.949 . S
H101 C72 0.950 . S
H102 C76 0.950 . S
H103 C78 0.950 . S
H104 C81 0.950 . S
H105 C83 0.950 . S
C106 C107 1.443 . S
C106 N110 1.376 . S
C106 C144 1.408 . S
C107 C106 1.443 . S
C107 C108 1.340 . S
C107 H147 0.951 . S
C108 C107 1.340 . S
C108 C109 1.439 . S
C108 H148 0.950 . S
C109 C108 1.439 . S
C109 N110 1.374 . S
C109 C143 1.395 . S
N110 C106 1.376 . S
N110 C109 1.374 . S
N110 Co111 2.008 1_565 S
Co111 N110 2.008 1_545 S
Co111 N112 1.995 1_545 S
Co111 N117 2.008 . S
Co111 N122 1.995 . S
Co111 N127 2.282 . S
Co111 N133 2.282 . S
N112 Co111 1.995 1_565 S
N112 C113 1.376 . S
N112 C116 1.383 1_565 S
C113 N112 1.376 . S
C113 C114 1.446 . S
C113 C143 1.391 . S
C114 C113 1.446 . S
C114 C115 1.339 . S
C114 H149 0.949 . S
C115 C114 1.339 . S
C115 C116 1.439 1_565 S
C115 H150 0.950 . S
C116 N112 1.383 1_545 S
C116 C115 1.439 1_545 S
C116 C145 1.392 . S
N117 Co111 2.008 . S
N117 C118 1.376 . S
N117 C121 1.374 . S
C118 N117 1.376 . S
C118 C119 1.443 . S
C118 C145 1.389 . S
C119 C118 1.443 . S
C119 C120 1.340 . S
C119 H151 0.951 . S
C120 C119 1.340 . S
C120 C121 1.439 . S
C120 H152 0.950 . S
C121 N117 1.374 . S
C121 C120 1.439 . S
C121 C146 1.395 . S
N122 Co111 1.995 . S
N122 C123 1.376 . S
N122 C126 1.383 . S
C123 N122 1.376 . S
C123 C124 1.446 . S
C123 C146 1.391 . S
C124 C123 1.446 . S
C124 C125 1.339 . S
C124 H153 0.949 . S
C125 C124 1.339 . S
C125 C126 1.439 . S
C125 H154 0.950 . S
C126 N122 1.383 . S
C126 C125 1.439 . S
C126 C144 1.365 1_545 S
N127 Co111 2.282 . S
N127 C130 1.332 . S
N127 C132 1.332 . S
C128 C129 1.386 . S
C128 C131 1.388 . S
C129 C128 1.386 . S
C129 C130 1.382 . S
C129 H155 0.950 . S
C130 N127 1.332 . S
C130 C129 1.382 . S
C130 H141 0.952 . S
C131 C128 1.388 . S
C131 C132 1.382 . S
C131 H156 0.950 1_545 S
C132 N127 1.332 . S
C132 C131 1.382 . S
C132 H142 0.948 1_545 S
N133 Co111 2.282 . S
N133 C137 1.332 1_545 S
N133 C138 1.332 . S
C134 C135 1.388 1_545 S
C134 C138 1.382 . S
C134 H157 0.950 . S
C135 C134 1.388 1_565 S
C135 C136 1.386 . S
C136 C135 1.386 . S
C136 C137 1.382 . S
C136 H158 0.950 . S
C137 N133 1.332 1_565 S
C137 C136 1.382 . S
C137 H139 0.952 . S
C138 N133 1.332 . S
C138 C134 1.382 . S
C138 H140 0.948 . S
H139 C137 0.952 . S
H140 C138 0.948 . S
H141 C130 0.952 . S
H142 C132 0.948 1_565 S
C143 C109 1.395 . S
C143 C113 1.391 . S
C144 C106 1.408 . S
C144 C126 1.365 1_565 S
C145 C116 1.392 . S
C145 C118 1.389 . S
C146 C121 1.395 . S
C146 C123 1.391 . S
H147 C107 0.951 . S
H148 C108 0.950 . S
H149 C114 0.949 . S
H150 C115 0.950 . S
H151 C119 0.951 . S
H152 C120 0.950 . S
H153 C124 0.949 . S
H154 C125 0.950 . S
H155 C129 0.950 . S
H156 C131 0.950 1_565 S
H157 C134 0.950 . S
H158 C136 0.950 . S
C159 C160 1.443 . S
C159 N163 1.376 . S
C159 C197 1.389 . S
C160 C159 1.443 . S
C160 C161 1.340 . S
C160 H200 0.951 . S
C161 C160 1.340 . S
C161 C162 1.439 . S
C161 H201 0.950 . S
C162 C161 1.439 . S
C162 N163 1.374 . S
C162 C196 1.395 . S
N163 C159 1.376 . S
N163 C162 1.374 . S
N163 Co164 2.008 . S
Co164 N163 2.008 . S
Co164 N165 1.995 . S
Co164 N170 2.008 . S
Co164 N175 1.995 . S
Co164 N180 2.282 . S
Co164 N186 2.282 . S
N165 Co164 1.995 . S
N165 C166 1.376 . S
N165 C169 1.383 . S
C166 N165 1.376 . S
C166 C167 1.446 . S
C166 C196 1.391 . S
C167 C166 1.446 . S
C167 C168 1.339 . S
C167 H202 0.949 . S
C168 C167 1.339 . S
C168 C169 1.439 . S
C168 H203 0.950 . S
C169 N165 1.383 . S
C169 C168 1.439 . S
C169 C198 1.392 . S
N170 Co164 2.008 . S
N170 C171 1.376 . S
N170 C174 1.374 . S
C171 N170 1.376 . S
C171 C172 1.443 . S
C171 C198 1.389 . S
C172 C171 1.443 . S
C172 C173 1.340 . S
C172 H204 0.951 . S
C173 C172 1.340 . S
C173 C174 1.439 . S
C173 H205 0.950 . S
C174 N170 1.374 . S
C174 C173 1.439 . S
C174 C199 1.395 . S
N175 Co164 1.995 . S
N175 C176 1.376 . S
N175 C179 1.383 . S
C176 N175 1.376 . S
C176 C177 1.446 . S
C176 C199 1.391 . S
C177 C176 1.446 . S
C177 C178 1.339 . S
C177 H206 0.949 . S
C178 C177 1.339 . S
C178 C179 1.439 . S
C178 H207 0.950 . S
C179 N175 1.383 . S
C179 C178 1.439 . S
C179 C197 1.392 . S
N180 Co164 2.282 . S
N180 C183 1.332 . S
N180 C185 1.332 . S
C181 C182 1.386 . S
C181 C184 1.388 . S
C182 C181 1.386 . S
C182 C183 1.382 . S
C182 H208 0.950 . S
C183 N180 1.332 . S
C183 C182 1.382 . S
C183 H194 0.952 . S
C184 C181 1.388 . S
C184 C185 1.382 . S
C184 H209 0.950 . S
C185 N180 1.332 . S
C185 C184 1.382 . S
C185 H195 0.948 . S
N186 Co164 2.282 . S
N186 C190 1.332 . S
N186 C191 1.332 . S
C187 C188 1.388 . S
C187 C191 1.382 . S
C187 H210 0.950 . S
C188 C187 1.388 . S
C188 C189 1.386 . S
C189 C188 1.386 . S
C189 C190 1.382 . S
C189 H211 0.950 . S
C190 N186 1.332 . S
C190 C189 1.382 . S
C190 H192 0.952 . S
C191 N186 1.332 . S
C191 C187 1.382 . S
C191 H193 0.948 . S
H192 C190 0.952 . S
H193 C191 0.948 . S
H194 C183 0.952 . S
H195 C185 0.948 . S
C196 C162 1.395 . S
C196 C166 1.391 . S
C197 C159 1.389 . S
C197 C179 1.392 . S
C198 C169 1.392 . S
C198 C171 1.389 . S
C199 C174 1.395 . S
C199 C176 1.391 . S
H200 C160 0.951 . S
H201 C161 0.950 . S
H202 C167 0.949 . S
H203 C168 0.950 . S
H204 C172 0.951 . S
H205 C173 0.950 . S
H206 C177 0.949 . S
H207 C178 0.950 . S
H208 C182 0.950 . S
H209 C184 0.950 . S
H210 C187 0.950 . S
H211 C189 0.950 . S
C212 C213 1.443 . S
C212 N216 1.376 . S
C212 C250 1.389 1_556 S
C213 C212 1.443 . S
C213 C214 1.340 . S
C213 H253 0.951 . S
C214 C213 1.340 . S
C214 C215 1.439 . S
C214 H254 0.950 . S
C215 C214 1.439 . S
C215 N216 1.374 . S
C215 C249 1.395 . S
N216 C212 1.376 . S
N216 C215 1.374 . S
N216 Co217 2.008 1_556 S
Co217 N216 2.008 1_554 S
Co217 N218 1.995 . S
Co217 N223 2.008 . S
Co217 N228 1.995 . S
Co217 N233 2.282 . S
Co217 N239 2.282 . S
N218 Co217 1.995 . S
N218 C219 1.376 1_554 S
N218 C222 1.383 . S
C219 N218 1.376 1_556 S
C219 C220 1.446 . S
C219 C249 1.391 . S
C220 C219 1.446 . S
C220 C221 1.339 . S
C220 H255 0.949 . S
C221 C220 1.339 . S
C221 C222 1.439 1_556 S
C221 H256 0.950 . S
C222 N218 1.383 . S
C222 C221 1.439 1_554 S
C222 C251 1.392 . S
N223 Co217 2.008 . S
N223 C224 1.376 . S
N223 C227 1.374 . S
C224 N223 1.376 . S
C224 C225 1.443 . S
C224 C251 1.389 . S
C225 C224 1.443 . S
C225 C226 1.340 . S
C225 H257 0.951 . S
C226 C225 1.340 . S
C226 C227 1.439 . S
C226 H258 0.950 . S
C227 N223 1.374 . S
C227 C226 1.439 . S
C227 C252 1.395 . S
N228 Co217 1.995 . S
N228 C229 1.376 . S
N228 C232 1.383 . S
C229 N228 1.376 . S
C229 C230 1.446 . S
C229 C252 1.391 . S
C230 C229 1.446 . S
C230 C231 1.339 . S
C230 H259 0.949 . S
C231 C230 1.339 . S
C231 C232 1.439 . S
C231 H260 0.950 . S
C232 N228 1.383 . S
C232 C231 1.439 . S
C232 C250 1.392 . S
N233 Co217 2.282 . S
N233 C236 1.332 . S
N233 C238 1.332 . S
C234 C235 1.386 . S
C234 C237 1.388 . S
C235 C234 1.386 . S
C235 C236 1.382 . S
C235 H261 0.950 . S
C236 N233 1.332 . S
C236 C235 1.382 . S
C236 H247 0.952 . S
C237 C234 1.388 . S
C237 C238 1.382 . S
C237 H262 0.950 . S
C238 N233 1.332 . S
C238 C237 1.382 . S
C238 H248 0.956 . S
N239 Co217 2.282 . S
N239 C243 1.378 . S
N239 C244 1.332 . S
C240 C241 1.388 . S
C240 C244 1.382 . S
C240 H263 0.950 . S
C241 C240 1.388 . S
C241 C242 1.386 1_554 S
C242 C241 1.386 1_556 S
C242 C243 1.369 1_556 S
C242 H264 0.950 . S
C243 N239 1.378 . S
C243 C242 1.369 1_554 S
C243 H245 0.918 1_554 S
C244 N239 1.332 . S
C244 C240 1.382 . S
C244 H246 0.948 . S
H245 C243 0.918 1_556 S
H246 C244 0.948 . S
H247 C236 0.952 . S
H248 C238 0.956 . S
C249 C215 1.395 . S
C249 C219 1.391 . S
C250 C212 1.389 1_554 S
C250 C232 1.392 . S
C251 C222 1.392 . S
C251 C224 1.389 . S
C252 C227 1.395 . S
C252 C229 1.391 . S
H253 C213 0.951 . S
H254 C214 0.950 . S
H255 C220 0.949 . S
H256 C221 0.950 . S
H257 C225 0.951 . S
H258 C226 0.950 . S
H259 C230 0.949 . S
H260 C231 0.950 . S
H261 C235 0.950 . S
H262 C237 0.950 . S
H263 C240 0.950 . S
H264 C242 0.950 . S
C265 C266 1.443 . S
C265 N269 1.376 . S
C265 C303 1.389 . S
C266 C265 1.443 . S
C266 C267 1.340 . S
C266 H306 0.951 . S
C267 C266 1.340 . S
C267 C268 1.439 . S
C267 H307 0.950 . S
C268 C267 1.439 . S
C268 N269 1.374 . S
C268 C302 1.395 . S
N269 C265 1.376 . S
N269 C268 1.374 . S
N269 Co270 2.008 . S
Co270 N269 2.008 . S
Co270 N271 1.995 . S
Co270 N276 2.008 . S
Co270 N281 1.995 . S
Co270 N286 2.282 . S
Co270 N292 2.282 . S
N271 Co270 1.995 . S
N271 C272 1.376 . S
N271 C275 1.383 . S
C272 N271 1.376 . S
C272 C273 1.446 . S
C272 C302 1.391 . S
C273 C272 1.446 . S
C273 C274 1.339 . S
C273 H308 0.949 . S
C274 C273 1.339 . S
C274 C275 1.439 . S
C274 H309 0.950 . S
C275 N271 1.383 . S
C275 C274 1.439 . S
C275 C304 1.392 . S
N276 Co270 2.008 . S
N276 C277 1.376 . S
N276 C280 1.374 . S
C277 N276 1.376 . S
C277 C278 1.443 . S
C277 C304 1.389 . S
C278 C277 1.443 . S
C278 C279 1.340 . S
C278 H310 0.951 . S
C279 C278 1.340 . S
C279 C280 1.439 . S
C279 H311 0.950 . S
C280 N276 1.374 . S
C280 C279 1.439 . S
C280 C305 1.395 . S
N281 Co270 1.995 . S
N281 C282 1.376 . S
N281 C285 1.383 . S
C282 N281 1.376 . S
C282 C283 1.446 . S
C282 C305 1.391 . S
C283 C282 1.446 . S
C283 C284 1.339 . S
C283 H312 0.949 . S
C284 C283 1.339 . S
C284 C285 1.439 . S
C284 H313 0.950 . S
C285 N281 1.383 . S
C285 C284 1.439 . S
C285 C303 1.392 . S
N286 Co270 2.282 . S
N286 C289 1.332 . S
N286 C291 1.332 . S
C287 C288 1.386 . S
C287 C290 1.388 . S
C288 C287 1.386 . S
C288 C289 1.382 . S
C288 H314 0.950 . S
C289 N286 1.332 . S
C289 C288 1.382 . S
C289 H300 0.952 . S
C290 C287 1.388 . S
C290 C291 1.382 . S
C290 H315 0.950 . S
C291 N286 1.332 . S
C291 C290 1.382 . S
C291 H301 0.948 . S
N292 Co270 2.282 . S
N292 C296 1.332 . S
N292 C297 1.332 . S
C293 C294 1.388 . S
C293 C297 1.382 . S
C293 H316 0.950 . S
C294 C293 1.388 . S
C294 C295 1.386 . S
C295 C294 1.386 . S
C295 C296 1.382 . S
C295 H317 0.950 . S
C296 N292 1.332 . S
C296 C295 1.382 . S
C296 H298 0.952 . S
C297 N292 1.332 . S
C297 C293 1.382 . S
C297 H299 0.948 . S
H298 C296 0.952 . S
H299 C297 0.948 . S
H300 C289 0.952 . S
H301 C291 0.948 . S
C302 C268 1.395 . S
C302 C272 1.391 . S
C303 C265 1.389 . S
C303 C285 1.392 . S
C304 C275 1.392 . S
C304 C277 1.389 . S
C305 C280 1.395 . S
C305 C282 1.391 . S
H306 C266 0.951 . S
H307 C267 0.950 . S
H308 C273 0.949 . S
H309 C274 0.950 . S
H310 C278 0.951 . S
H311 C279 0.950 . S
H312 C283 0.949 . S
H313 C284 0.950 . S
H314 C288 0.950 . S
H315 C290 0.950 . S
H316 C293 0.950 . S
H317 C295 0.950 . S
C318 C319 1.443 . S
C318 N322 1.376 . S
C318 C356 1.389 . S
C319 C318 1.443 . S
C319 C320 1.340 . S
C319 H359 0.951 . S
C320 C319 1.340 . S
C320 C321 1.439 . S
C320 H360 0.950 . S
C321 C320 1.439 . S
C321 N322 1.374 . S
C321 C355 1.395 . S
N322 C318 1.376 . S
N322 C321 1.374 . S
N322 Co323 2.008 . S
Co323 N322 2.008 . S
Co323 N324 1.995 . S
Co323 N329 2.008 . S
Co323 N334 1.995 . S
Co323 N339 2.282 . S
Co323 N345 2.282 . S
N324 Co323 1.995 . S
N324 C325 1.376 . S
N324 C328 1.383 . S
C325 N324 1.376 . S
C325 C326 1.446 . S
C325 C355 1.391 . S
C326 C325 1.446 . S
C326 C327 1.339 . S
C326 H361 0.949 . S
C327 C326 1.339 . S
C327 C328 1.439 . S
C327 H362 0.950 . S
C328 N324 1.383 . S
C328 C327 1.439 . S
C328 C357 1.392 . S
N329 Co323 2.008 . S
N329 C330 1.376 . S
N329 C333 1.374 . S
C330 N329 1.376 . S
C330 C331 1.443 . S
C330 C357 1.389 . S
C331 C330 1.443 . S
C331 C332 1.340 . S
C331 H363 0.951 . S
C332 C331 1.340 . S
C332 C333 1.439 . S
C332 H364 0.950 . S
C333 N329 1.374 . S
C333 C332 1.439 . S
C333 C358 1.395 . S
N334 Co323 1.995 . S
N334 C335 1.376 . S
N334 C338 1.383 . S
C335 N334 1.376 . S
C335 C336 1.446 . S
C335 C358 1.391 . S
C336 C335 1.446 . S
C336 C337 1.339 . S
C336 H365 0.949 . S
C337 C336 1.339 . S
C337 C338 1.439 . S
C337 H366 0.950 . S
C338 N334 1.383 . S
C338 C337 1.439 . S
C338 C356 1.392 . S
N339 Co323 2.282 . S
N339 C342 1.332 . S
N339 C344 1.332 . S
C340 C341 1.386 . S
C340 C343 1.388 . S
C341 C340 1.386 . S
C341 C342 1.382 . S
C341 H367 0.950 . S
C342 N339 1.332 . S
C342 C341 1.382 . S
C342 H353 0.952 . S
C343 C340 1.388 . S
C343 C344 1.382 . S
C343 H368 0.950 . S
C344 N339 1.332 . S
C344 C343 1.382 . S
C344 H354 0.948 . S
N345 Co323 2.282 . S
N345 C349 1.332 . S
N345 C350 1.332 . S
C346 C347 1.388 . S
C346 C350 1.382 . S
C346 H369 0.950 . S
C347 C346 1.388 . S
C347 C348 1.386 . S
C348 C347 1.386 . S
C348 C349 1.382 . S
C348 H370 0.950 . S
C349 N345 1.332 . S
C349 C348 1.382 . S
C349 H351 0.952 . S
C350 N345 1.332 . S
C350 C346 1.382 . S
C350 H352 0.948 . S
H351 C349 0.952 . S
H352 C350 0.948 . S
H353 C342 0.952 . S
H354 C344 0.948 . S
C355 C321 1.395 . S
C355 C325 1.391 . S
C356 C318 1.389 . S
C356 C338 1.392 . S
C357 C328 1.392 . S
C357 C330 1.389 . S
C358 C333 1.395 . S
C358 C335 1.391 . S
H359 C319 0.951 . S
H360 C320 0.950 . S
H361 C326 0.949 . S
H362 C327 0.950 . S
H363 C331 0.951 . S
H364 C332 0.950 . S
H365 C336 0.949 . S
H366 C337 0.950 . S
H367 C341 0.950 . S
H368 C343 0.950 . S
H369 C346 0.950 . S
H370 C348 0.950 . S
C371 C372 1.443 . S
C371 N375 1.376 . S
C371 C409 1.389 . S
C372 C371 1.443 . S
C372 C373 1.340 . S
C372 H412 0.951 . S
C373 C372 1.340 . S
C373 C374 1.439 . S
C373 H413 0.950 . S
C374 C373 1.439 . S
C374 N375 1.374 . S
C374 C408 1.395 . S
N375 C371 1.376 . S
N375 C374 1.374 . S
N375 Co376 2.008 . S
Co376 N375 2.008 . S
Co376 N377 1.995 . S
Co376 N382 2.008 . S
Co376 N387 1.995 . S
Co376 N392 2.282 . S
Co376 N398 2.282 . S
N377 Co376 1.995 . S
N377 C378 1.376 . S
N377 C381 1.383 . S
C378 N377 1.376 . S
C378 C379 1.446 . S
C378 C408 1.391 . S
C379 C378 1.446 . S
C379 C380 1.339 . S
C379 H414 0.949 . S
C380 C379 1.339 . S
C380 C381 1.439 . S
C380 H415 0.950 . S
C381 N377 1.383 . S
C381 C380 1.439 . S
C381 C410 1.392 . S
N382 Co376 2.008 . S
N382 C383 1.376 . S
N382 C386 1.374 . S
C383 N382 1.376 . S
C383 C384 1.443 . S
C383 C410 1.389 . S
C384 C383 1.443 . S
C384 C385 1.340 . S
C384 H416 0.951 . S
C385 C384 1.340 . S
C385 C386 1.439 . S
C385 H417 0.950 . S
C386 N382 1.374 . S
C386 C385 1.439 . S
C386 C411 1.395 . S
N387 Co376 1.995 . S
N387 C388 1.376 . S
N387 C391 1.383 . S
C388 N387 1.376 . S
C388 C389 1.446 . S
C388 C411 1.391 . S
C389 C388 1.446 . S
C389 C390 1.339 . S
C389 H418 0.949 . S
C390 C389 1.339 . S
C390 C391 1.439 . S
C390 H419 0.950 . S
C391 N387 1.383 . S
C391 C390 1.439 . S
C391 C409 1.392 . S
N392 Co376 2.282 . S
N392 C395 1.332 . S
N392 C397 1.332 . S
C393 C394 1.386 . S
C393 C396 1.388 . S
C394 C393 1.386 . S
C394 C395 1.382 . S
C394 H420 0.950 . S
C395 N392 1.332 . S
C395 C394 1.382 . S
C395 H406 0.952 . S
C396 C393 1.388 . S
C396 C397 1.382 . S
C396 H421 0.950 . S
C397 N392 1.332 . S
C397 C396 1.382 . S
C397 H407 0.948 . S
N398 Co376 2.282 . S
N398 C402 1.332 . S
N398 C403 1.332 . S
C399 C400 1.388 . S
C399 C403 1.382 . S
C399 H422 0.950 . S
C400 C399 1.388 . S
C400 C401 1.386 . S
C401 C400 1.386 . S
C401 C402 1.382 . S
C401 H423 0.950 . S
C402 N398 1.332 . S
C402 C401 1.382 . S
C402 H404 0.952 . S
C403 N398 1.332 . S
C403 C399 1.382 . S
C403 H405 0.948 . S
H404 C402 0.952 . S
H405 C403 0.948 . S
H406 C395 0.952 . S
H407 C397 0.948 . S
C408 C374 1.395 . S
C408 C378 1.391 . S
C409 C371 1.389 . S
C409 C391 1.392 . S
C410 C381 1.392 . S
C410 C383 1.389 . S
C411 C386 1.395 . S
C411 C388 1.391 . S
H412 C372 0.951 . S
H413 C373 0.950 . S
H414 C379 0.949 . S
H415 C380 0.950 . S
H416 C384 0.951 . S
H417 C385 0.950 . S
H418 C389 0.949 . S
H419 C390 0.950 . S
H420 C394 0.950 . S
H421 C396 0.950 . S
H422 C399 0.950 . S
H423 C401 0.950 . S
C424 C425 1.443 . S
C424 N428 1.376 . S
C424 C462 1.389 . S
C425 C424 1.443 . S
C425 C426 1.340 . S
C425 H465 0.951 . S
C426 C425 1.340 . S
C426 C427 1.439 . S
C426 H466 0.950 . S
C427 C426 1.439 . S
C427 N428 1.374 . S
C427 C461 1.395 . S
N428 C424 1.376 . S
N428 C427 1.374 . S
N428 Co429 2.008 . S
Co429 N428 2.008 . S
Co429 N430 1.995 . S
Co429 N435 2.008 . S
Co429 N440 1.995 . S
Co429 N445 2.282 . S
Co429 N451 2.282 . S
N430 Co429 1.995 . S
N430 C431 1.376 . S
N430 C434 1.383 . S
C431 N430 1.376 . S
C431 C432 1.446 . S
C431 C461 1.391 . S
C432 C431 1.446 . S
C432 C433 1.339 . S
C432 H467 0.949 . S
C433 C432 1.339 . S
C433 C434 1.439 . S
C433 H468 0.950 . S
C434 N430 1.383 . S
C434 C433 1.439 . S
C434 C463 1.392 . S
N435 Co429 2.008 . S
N435 C436 1.376 . S
N435 C439 1.374 . S
C436 N435 1.376 . S
C436 C437 1.443 . S
C436 C463 1.389 . S
C437 C436 1.443 . S
C437 C438 1.340 . S
C437 H469 0.951 . S
C438 C437 1.340 . S
C438 C439 1.439 . S
C438 H470 0.950 . S
C439 N435 1.374 . S
C439 C438 1.439 . S
C439 C464 1.395 . S
N440 Co429 1.995 . S
N440 C441 1.376 . S
N440 C444 1.383 . S
C441 N440 1.376 . S
C441 C442 1.446 . S
C441 C464 1.391 . S
C442 C441 1.446 . S
C442 C443 1.339 . S
C442 H471 0.949 . S
C443 C442 1.339 . S
C443 C444 1.439 . S
C443 H472 0.950 . S
C444 N440 1.383 . S
C444 C443 1.439 . S
C444 C462 1.392 . S
N445 Co429 2.282 . S
N445 C448 1.332 . S
N445 C450 1.332 . S
C446 C447 1.386 . S
C446 C449 1.388 . S
C447 C446 1.386 . S
C447 C448 1.382 . S
C447 H473 0.950 . S
C448 N445 1.332 . S
C448 C447 1.382 . S
C448 H459 0.952 . S
C449 C446 1.388 . S
C449 C450 1.382 . S
C449 H474 0.950 . S
C450 N445 1.332 . S
C450 C449 1.382 . S
C450 H460 0.948 . S
N451 Co429 2.282 . S
N451 C455 1.332 . S
N451 C456 1.332 . S
C452 C453 1.388 . S
C452 C456 1.382 . S
C452 H475 0.950 . S
C453 C452 1.388 . S
C453 C454 1.386 . S
C454 C453 1.386 . S
C454 C455 1.382 . S
C454 H476 0.950 . S
C455 N451 1.332 . S
C455 C454 1.382 . S
C455 H457 0.952 . S
C456 N451 1.332 . S
C456 C452 1.382 . S
C456 H458 0.948 . S
H457 C455 0.952 . S
H458 C456 0.948 . S
H459 C448 0.952 . S
H460 C450 0.948 . S
C461 C427 1.395 . S
C461 C431 1.391 . S
C462 C424 1.389 . S
C462 C444 1.392 . S
C463 C434 1.392 . S
C463 C436 1.389 . S
C464 C439 1.395 . S
C464 C441 1.391 . S
H465 C425 0.951 . S
H466 C426 0.950 . S
H467 C432 0.949 . S
H468 C433 0.950 . S
H469 C437 0.951 . S
H470 C438 0.950 . S
H471 C442 0.949 . S
H472 C443 0.950 . S
H473 C447 0.950 . S
H474 C449 0.950 . S
H475 C452 0.950 . S
H476 C454 0.950 . S
C477 C478 1.443 . S
C477 N481 1.376 . S
C477 C515 1.389 . S
C478 C477 1.443 . S
C478 C479 1.340 . S
C478 H518 0.951 . S
C479 C478 1.340 . S
C479 C480 1.439 . S
C479 H519 0.950 . S
C480 C479 1.439 . S
C480 N481 1.374 . S
C480 C514 1.395 . S
N481 C477 1.376 . S
N481 C480 1.374 . S
N481 Co482 2.008 . S
Co482 N481 2.008 . S
Co482 N483 1.995 . S
Co482 N488 2.008 . S
Co482 N493 1.995 . S
Co482 N498 2.282 . S
Co482 N504 2.282 . S
N483 Co482 1.995 . S
N483 C484 1.376 . S
N483 C487 1.383 . S
C484 N483 1.376 . S
C484 C485 1.446 . S
C484 C514 1.391 . S
C485 C484 1.446 . S
C485 C486 1.339 . S
C485 H520 0.949 . S
C486 C485 1.339 . S
C486 C487 1.439 . S
C486 H521 0.950 . S
C487 N483 1.383 . S
C487 C486 1.439 . S
C487 C516 1.392 . S
N488 Co482 2.008 . S
N488 C489 1.376 . S
N488 C492 1.374 . S
C489 N488 1.376 . S
C489 C490 1.443 . S
C489 C516 1.389 . S
C490 C489 1.443 . S
C490 C491 1.340 . S
C490 H522 0.951 . S
C491 C490 1.340 . S
C491 C492 1.439 . S
C491 H523 0.950 . S
C492 N488 1.374 . S
C492 C491 1.439 . S
C492 C517 1.395 . S
N493 Co482 1.995 . S
N493 C494 1.376 . S
N493 C497 1.383 . S
C494 N493 1.376 . S
C494 C495 1.446 . S
C494 C517 1.391 . S
C495 C494 1.446 . S
C495 C496 1.339 . S
C495 H524 0.949 . S
C496 C495 1.339 . S
C496 C497 1.439 . S
C496 H525 0.950 . S
C497 N493 1.383 . S
C497 C496 1.439 . S
C497 C515 1.392 . S
N498 Co482 2.282 . S
N498 C501 1.332 . S
N498 C503 1.332 . S
C499 C500 1.386 . S
C499 C502 1.388 . S
C500 C499 1.386 . S
C500 C501 1.382 . S
C500 H526 0.950 . S
C501 N498 1.332 . S
C501 C500 1.382 . S
C501 H512 0.952 . S
C502 C499 1.388 . S
C502 C503 1.382 . S
C502 H527 0.950 . S
C503 N498 1.332 . S
C503 C502 1.382 . S
C503 H513 0.948 . S
N504 Co482 2.282 . S
N504 C508 1.332 . S
N504 C509 1.332 . S
C505 C506 1.388 . S
C505 C509 1.382 . S
C505 H528 0.950 . S
C506 C505 1.388 . S
C506 C507 1.386 . S
C507 C506 1.386 . S
C507 C508 1.382 . S
C507 H529 0.950 . S
C508 N504 1.332 . S
C508 C507 1.382 . S
C508 H510 0.952 . S
C509 N504 1.332 . S
C509 C505 1.382 . S
C509 H511 0.948 . S
H510 C508 0.952 . S
H511 C509 0.948 . S
H512 C501 0.952 . S
H513 C503 0.948 . S
C514 C480 1.395 . S
C514 C484 1.391 . S
C515 C477 1.389 . S
C515 C497 1.392 . S
C516 C487 1.392 . S
C516 C489 1.389 . S
C517 C492 1.395 . S
C517 C494 1.391 . S
H518 C478 0.951 . S
H519 C479 0.950 . S
H520 C485 0.949 . S
H521 C486 0.950 . S
H522 C490 0.951 . S
H523 C491 0.950 . S
H524 C495 0.949 . S
H525 C496 0.950 . S
H526 C500 0.950 . S
H527 C502 0.950 . S
H528 C505 0.950 . S
H529 C507 0.950 . S
C530 C531 1.443 . S
C530 N534 1.376 . S
C530 C568 1.389 . S
C531 C530 1.443 . S
C531 C532 1.340 . S
C531 H571 0.951 . S
C532 C531 1.340 . S
C532 C533 1.439 . S
C532 H572 0.950 . S
C533 C532 1.439 . S
C533 N534 1.374 . S
C533 C567 1.395 . S
N534 C530 1.376 . S
N534 C533 1.374 . S
N534 Co535 2.008 . S
Co535 N534 2.008 . S
Co535 N536 1.995 . S
Co535 N541 2.008 1_545 S
Co535 N546 1.995 1_545 S
Co535 N551 2.282 1_545 S
Co535 N557 2.282 . S
N536 Co535 1.995 . S
N536 C537 1.376 . S
N536 C540 1.383 . S
C537 N536 1.376 . S
C537 C538 1.446 . S
C537 C567 1.391 . S
C538 C537 1.446 . S
C538 C539 1.339 . S
C538 H573 0.949 . S
C539 C538 1.339 . S
C539 C540 1.439 . S
C539 H574 0.950 . S
C540 N536 1.383 . S
C540 C539 1.439 . S
C540 C569 1.392 1_545 S
N541 Co535 2.008 1_565 S
N541 C542 1.376 . S
N541 C545 1.374 . S
C542 N541 1.376 . S
C542 C543 1.443 . S
C542 C569 1.389 . S
C543 C542 1.443 . S
C543 C544 1.340 . S
C543 H575 0.951 . S
C544 C543 1.340 . S
C544 C545 1.439 . S
C544 H576 0.950 . S
C545 N541 1.374 . S
C545 C544 1.439 . S
C545 C570 1.395 . S
N546 Co535 1.995 1_565 S
N546 C547 1.376 . S
N546 C550 1.383 . S
C547 N546 1.376 . S
C547 C548 1.446 . S
C547 C570 1.391 . S
C548 C547 1.446 . S
C548 C549 1.339 . S
C548 H577 0.949 . S
C549 C548 1.339 . S
C549 C550 1.439 . S
C549 H578 0.950 . S
C550 N546 1.383 . S
C550 C549 1.439 . S
C550 C568 1.392 1_565 S
N551 Co535 2.282 1_565 S
N551 C554 1.332 . S
N551 C556 1.332 1_565 S
C552 C553 1.386 . S
C552 C555 1.388 1_565 S
C553 C552 1.386 . S
C553 C554 1.382 . S
C553 H579 0.950 . S
C554 N551 1.332 . S
C554 C553 1.382 . S
C554 H565 0.952 . S
C555 C552 1.388 1_545 S
C555 C556 1.382 . S
C555 H580 0.950 . S
C556 N551 1.332 1_545 S
C556 C555 1.382 . S
C556 H566 0.948 . S
N557 Co535 2.282 . S
N557 C561 1.332 . S
N557 C562 1.332 1_545 S
C558 C559 1.388 1_565 S
C558 C562 1.382 . S
C558 H581 0.950 . S
C559 C558 1.388 1_545 S
C559 C560 1.386 . S
C560 C559 1.386 . S
C560 C561 1.382 . S
C560 H582 0.950 . S
C561 N557 1.332 . S
C561 C560 1.382 . S
C561 H563 0.952 . S
C562 N557 1.332 1_565 S
C562 C558 1.382 . S
C562 H564 0.948 . S
H563 C561 0.952 . S
H564 C562 0.948 . S
H565 C554 0.952 . S
H566 C556 0.948 . S
C567 C533 1.395 . S
C567 C537 1.391 . S
C568 C530 1.389 . S
C568 C550 1.392 1_545 S
C569 C540 1.392 1_565 S
C569 C542 1.389 . S
C570 C545 1.395 . S
C570 C547 1.391 . S
H571 C531 0.951 . S
H572 C532 0.950 . S
H573 C538 0.949 . S
H574 C539 0.950 . S
H575 C543 0.951 . S
H576 C544 0.950 . S
H577 C548 0.949 . S
H578 C549 0.950 . S
H579 C553 0.950 . S
H580 C555 0.950 . S
H581 C558 0.950 . S
H582 C560 0.950 . S
C583 C584 1.443 . S
C583 N587 1.376 . S
C583 C621 1.389 1_556 S
C584 C583 1.443 . S
C584 C585 1.340 . S
C584 H624 0.951 . S
C585 C584 1.340 . S
C585 C586 1.439 . S
C585 H625 0.950 . S
C586 C585 1.439 . S
C586 N587 1.374 . S
C586 C620 1.395 . S
N587 C583 1.376 . S
N587 C586 1.374 . S
N587 Co588 2.008 1_556 S
Co588 N587 2.008 1_554 S
Co588 N589 1.995 . S
Co588 N594 2.008 . S
Co588 N599 1.995 . S
Co588 N604 2.282 . S
Co588 N610 2.282 . S
N589 Co588 1.995 . S
N589 C590 1.376 1_554 S
N589 C593 1.383 . S
C590 N589 1.376 1_556 S
C590 C591 1.446 . S
C590 C620 1.391 . S
C591 C590 1.446 . S
C591 C592 1.339 . S
C591 H626 0.949 . S
C592 C591 1.339 . S
C592 C593 1.439 1_556 S
C592 H627 0.950 . S
C593 N589 1.383 . S
C593 C592 1.439 1_554 S
C593 C622 1.392 . S
N594 Co588 2.008 . S
N594 C595 1.376 . S
N594 C598 1.374 . S
C595 N594 1.376 . S
C595 C596 1.443 . S
C595 C622 1.389 . S
C596 C595 1.443 . S
C596 C597 1.340 . S
C596 H628 0.951 . S
C597 C596 1.340 . S
C597 C598 1.439 . S
C597 H629 0.950 . S
C598 N594 1.374 . S
C598 C597 1.439 . S
C598 C623 1.395 . S
N599 Co588 1.995 . S
N599 C600 1.376 . S
N599 C603 1.383 . S
C600 N599 1.376 . S
C600 C601 1.446 . S
C600 C623 1.391 . S
C601 C600 1.446 . S
C601 C602 1.339 . S
C601 H630 0.949 . S
C602 C601 1.339 . S
C602 C603 1.439 . S
C602 H631 0.950 . S
C603 N599 1.383 . S
C603 C602 1.439 . S
C603 C621 1.392 . S
N604 Co588 2.282 . S
N604 C607 1.332 . S
N604 C609 1.332 . S
C605 C606 1.386 . S
C605 C608 1.388 . S
C606 C605 1.386 . S
C606 C607 1.382 . S
C606 H632 0.950 . S
C607 N604 1.332 . S
C607 C606 1.382 . S
C607 H618 0.952 . S
C608 C605 1.388 . S
C608 C609 1.382 . S
C608 H633 0.950 . S
C609 N604 1.332 . S
C609 C608 1.382 . S
C609 H619 0.960 . S
N610 Co588 2.282 . S
N610 C614 1.332 . S
N610 C615 1.332 . S
C611 C612 1.388 . S
C611 C615 1.382 . S
C611 H634 0.950 . S
C612 C611 1.388 . S
C612 C613 1.386 1_554 S
C613 C612 1.386 1_556 S
C613 C614 1.382 1_556 S
C613 H635 0.950 . S
C614 N610 1.332 . S
C614 C613 1.382 1_554 S
C614 H616 0.952 1_554 S
C615 N610 1.332 . S
C615 C611 1.382 . S
C615 H617 0.948 . S
H616 C614 0.952 1_556 S
H617 C615 0.948 . S
H618 C607 0.952 . S
H619 C609 0.960 . S
C620 C586 1.395 . S
C620 C590 1.391 . S
C621 C583 1.389 1_554 S
C621 C603 1.392 . S
C622 C593 1.392 . S
C622 C595 1.389 . S
C623 C598 1.395 . S
C623 C600 1.391 . S
H624 C584 0.951 . S
H625 C585 0.950 . S
H626 C591 0.949 . S
H627 C592 0.950 . S
H628 C596 0.951 . S
H629 C597 0.950 . S
H630 C601 0.949 . S
H631 C602 0.950 . S
H632 C606 0.950 . S
H633 C608 0.950 . S
H634 C611 0.950 . S
H635 C613 0.950 . S
O636 Mg637 1.990 . S
O636 C650 1.253 . S
Mg637 O636 1.990 . S
Mg637 O640 2.180 . S
Mg637 O641 2.117 . S
Mg637 O655 2.030 . S
O638 Mg639 2.072 . S
O638 C650 1.260 . S
Mg639 O638 2.072 . S
Mg639 O640 2.099 . S
Mg639 O642 2.079 . S
Mg639 O643 2.072 . S
Mg639 O645 2.099 . S
Mg639 O656 2.079 . S
O640 Mg637 2.180 . S
O640 Mg639 2.099 . S
O640 C651 1.279 . S
O641 Mg637 2.117 . S
O641 C651 1.250 . S
O642 Mg639 2.079 . S
O642 C652 1.264 . S
O643 Mg639 2.072 . S
O643 C653 1.260 . S
Mg644 O645 2.180 . S
Mg644 O646 2.049 . S
Mg644 O647 1.990 . S
Mg644 O648 2.117 . S
O645 Mg639 2.099 . S
O645 Mg644 2.180 . S
O645 C654 1.279 . S
O646 Mg644 2.049 . S
O646 C652 1.249 . S
O647 Mg644 1.990 . S
O647 C653 1.253 . S
O648 Mg644 2.117 . S
O648 C654 1.250 . S
C649 O655 1.248 . S
C649 O656 1.264 . S
C650 O636 1.253 . S
C650 O638 1.260 . S
C651 O640 1.279 . S
C651 O641 1.250 . S
C652 O642 1.264 . S
C652 O646 1.249 . S
C653 O643 1.260 . S
C653 O647 1.253 . S
C654 O645 1.279 . S
C654 O648 1.250 . S
O655 Mg637 2.030 . S
O655 C649 1.248 . S
O656 Mg639 2.079 . S
O656 C649 1.264 . S
O657 Mg658 1.990 . S
O657 C671 1.253 . S
Mg658 O657 1.990 . S
Mg658 O661 2.180 . S
Mg658 O662 2.117 . S
Mg658 O676 2.030 . S
O659 Mg660 2.072 . S
O659 C671 1.260 . S
Mg660 O659 2.072 . S
Mg660 O661 2.099 . S
Mg660 O663 2.079 . S
Mg660 O664 2.072 . S
Mg660 O666 2.099 . S
Mg660 O677 2.079 . S
O661 Mg658 2.180 . S
O661 Mg660 2.099 . S
O661 C672 1.279 . S
O662 Mg658 2.117 . S
O662 C672 1.250 . S
O663 Mg660 2.079 . S
O663 C673 1.264 . S
O664 Mg660 2.072 . S
O664 C674 1.260 . S
Mg665 O666 2.180 . S
Mg665 O667 2.037 . S
Mg665 O668 1.990 . S
Mg665 O669 2.117 1_655 S
O666 Mg660 2.099 . S
O666 Mg665 2.180 . S
O666 C675 1.279 . S
O667 Mg665 2.037 . S
O667 C673 1.251 . S
O668 Mg665 1.990 . S
O668 C674 1.253 . S
O669 Mg665 2.117 1_455 S
O669 C675 1.250 1_455 S
C670 O676 1.248 . S
C670 O677 1.264 . S
C671 O657 1.253 . S
C671 O659 1.260 . S
C672 O661 1.279 . S
C672 O662 1.250 . S
C673 O663 1.264 . S
C673 O667 1.251 . S
C674 O664 1.260 . S
C674 O668 1.253 . S
C675 O666 1.279 . S
C675 O669 1.250 1_655 S
O676 Mg658 2.030 . S
O676 C670 1.248 . S
O677 Mg660 2.079 . S
O677 C670 1.264 . S
O678 Mg679 1.990 . S
O678 C692 1.253 . S
Mg679 O678 1.990 . S
Mg679 O682 2.180 . S
Mg679 O683 2.117 . S
Mg679 O697 2.030 . S
O680 Mg681 2.072 . S
O680 C692 1.260 . S
Mg681 O680 2.072 . S
Mg681 O682 2.099 . S
Mg681 O684 2.079 . S
Mg681 O685 2.072 . S
Mg681 O687 2.099 . S
Mg681 O698 2.079 . S
O682 Mg679 2.180 . S
O682 Mg681 2.099 . S
O682 C693 1.279 . S
O683 Mg679 2.117 . S
O683 C693 1.250 . S
O684 Mg681 2.079 . S
O684 C694 1.258 1_455 S
O685 Mg681 2.072 . S
O685 C695 1.260 . S
Mg686 O687 2.180 . S
Mg686 O688 2.026 1_455 S
Mg686 O689 1.990 . S
Mg686 O690 2.099 1_565 S
O687 Mg681 2.099 . S
O687 Mg686 2.180 . S
O687 C696 1.279 . S
O688 Mg686 2.026 1_655 S
O688 C694 1.247 . S
O689 Mg686 1.990 . S
O689 C695 1.253 . S
O690 Mg686 2.099 1_545 S
O690 C696 1.232 1_545 S
C691 O697 1.248 . S
C691 O698 1.264 . S
C692 O678 1.253 . S
C692 O680 1.260 . S
C693 O682 1.279 . S
C693 O683 1.250 . S
C694 O684 1.258 1_655 S
C694 O688 1.247 . S
C695 O685 1.260 . S
C695 O689 1.253 . S
C696 O687 1.279 . S
C696 O690 1.232 1_565 S
O697 Mg679 2.030 . S
O697 C691 1.248 . S
O698 Mg681 2.079 . S
O698 C691 1.264 . S
O699 Mg700 1.990 . S
O699 C713 1.253 . S
Mg700 O699 1.990 . S
Mg700 O703 2.180 . S
Mg700 O704 2.117 . S
Mg700 O718 2.030 . S
O701 Mg702 2.072 . S
O701 C713 1.260 . S
Mg702 O701 2.072 . S
Mg702 O703 2.099 . S
Mg702 O705 2.079 . S
Mg702 O706 2.072 . S
Mg702 O708 2.099 . S
Mg702 O719 2.079 . S
O703 Mg700 2.180 . S
O703 Mg702 2.099 . S
O703 C714 1.279 . S
O704 Mg700 2.117 . S
O704 C714 1.250 . S
O705 Mg702 2.079 . S
O705 C715 1.264 . S
O706 Mg702 2.072 . S
O706 C716 1.260 . S
Mg707 O708 2.180 . S
Mg707 O709 2.030 . S
Mg707 O710 1.990 . S
Mg707 O711 2.117 . S
O708 Mg702 2.099 . S
O708 Mg707 2.180 . S
O708 C717 1.279 . S
O709 Mg707 2.030 . S
O709 C715 1.248 . S
O710 Mg707 1.990 . S
O710 C716 1.253 . S
O711 Mg707 2.117 . S
O711 C717 1.250 . S
C712 O718 1.248 . S
C712 O719 1.264 . S
C713 O699 1.253 . S
C713 O701 1.260 . S
C714 O703 1.279 . S
C714 O704 1.250 . S
C715 O705 1.264 . S
C715 O709 1.248 . S
C716 O706 1.260 . S
C716 O710 1.253 . S
C717 O708 1.279 . S
C717 O711 1.250 . S
O718 Mg700 2.030 . S
O718 C712 1.248 . S
O719 Mg702 2.079 . S
O719 C712 1.264 . S
O720 Mg721 1.990 . S
O720 C734 1.253 . S
Mg721 O720 1.990 . S
Mg721 O724 2.180 . S
Mg721 O725 2.117 . S
Mg721 O739 2.030 . S
O722 Mg723 2.072 . S
O722 C734 1.260 . S
Mg723 O722 2.072 . S
Mg723 O724 2.099 . S
Mg723 O726 2.079 . S
Mg723 O727 2.072 . S
Mg723 O729 2.099 . S
Mg723 O740 2.079 . S
O724 Mg721 2.180 . S
O724 Mg723 2.099 . S
O724 C735 1.279 . S
O725 Mg721 2.117 . S
O725 C735 1.250 . S
O726 Mg723 2.079 . S
O726 C736 1.264 . S
O727 Mg723 2.072 . S
O727 C737 1.260 . S
Mg728 O729 2.180 . S
Mg728 O730 2.030 . S
Mg728 O731 1.990 . S
Mg728 O732 2.117 . S
O729 Mg723 2.099 . S
O729 Mg728 2.180 . S
O729 C738 1.279 . S
O730 Mg728 2.030 . S
O730 C736 1.248 . S
O731 Mg728 1.990 . S
O731 C737 1.253 . S
O732 Mg728 2.117 . S
O732 C738 1.250 . S
C733 O739 1.248 . S
C733 O740 1.264 . S
C734 O720 1.253 . S
C734 O722 1.260 . S
C735 O724 1.279 . S
C735 O725 1.250 . S
C736 O726 1.264 . S
C736 O730 1.248 . S
C737 O727 1.260 . S
C737 O731 1.253 . S
C738 O729 1.279 . S
C738 O732 1.250 . S
O739 Mg721 2.030 . S
O739 C733 1.248 . S
O740 Mg723 2.079 . S
O740 C733 1.264 . S
O741 Mg742 1.990 . S
O741 C755 1.253 . S
Mg742 O741 1.990 . S
Mg742 O745 2.180 . S
Mg742 O746 2.117 . S
Mg742 O760 2.030 . S
O743 Mg744 2.072 . S
O743 C755 1.260 . S
Mg744 O743 2.072 . S
Mg744 O745 2.099 . S
Mg744 O747 2.079 . S
Mg744 O748 2.072 . S
Mg744 O750 2.099 . S
Mg744 O761 2.079 . S
O745 Mg742 2.180 . S
O745 Mg744 2.099 . S
O745 C756 1.279 . S
O746 Mg742 2.117 . S
O746 C756 1.250 . S
O747 Mg744 2.079 . S
O747 C757 1.264 . S
O748 Mg744 2.072 . S
O748 C758 1.260 . S
Mg749 O750 2.180 . S
Mg749 O751 2.030 . S
Mg749 O752 1.990 . S
Mg749 O753 2.117 . S
O750 Mg744 2.099 . S
O750 Mg749 2.180 . S
O750 C759 1.279 . S
O751 Mg749 2.030 . S
O751 C757 1.248 . S
O752 Mg749 1.990 . S
O752 C758 1.253 . S
O753 Mg749 2.117 . S
O753 C759 1.250 . S
C754 O760 1.248 . S
C754 O761 1.264 . S
C755 O741 1.253 . S
C755 O743 1.260 . S
C756 O745 1.279 . S
C756 O746 1.250 . S
C757 O747 1.264 . S
C757 O751 1.248 . S
C758 O748 1.260 . S
C758 O752 1.253 . S
C759 O750 1.279 . S
C759 O753 1.250 . S
O760 Mg742 2.030 . S
O760 C754 1.248 . S
O761 Mg744 2.079 . S
O761 C754 1.264 . S
O762 Mg763 1.990 . S
O762 C776 1.253 . S
Mg763 O762 1.990 . S
Mg763 O766 2.180 . S
Mg763 O767 2.117 . S
Mg763 O781 2.030 . S
O764 Mg765 2.072 . S
O764 C776 1.260 . S
Mg765 O764 2.072 . S
Mg765 O766 2.099 . S
Mg765 O768 2.079 . S
Mg765 O769 2.072 . S
Mg765 O771 2.099 . S
Mg765 O782 2.079 . S
O766 Mg763 2.180 . S
O766 Mg765 2.099 . S
O766 C777 1.279 . S
O767 Mg763 2.117 . S
O767 C777 1.250 . S
O768 Mg765 2.079 . S
O768 C778 1.264 . S
O769 Mg765 2.072 . S
O769 C779 1.260 . S
Mg770 O771 2.180 . S
Mg770 O772 2.030 . S
Mg770 O773 1.990 . S
Mg770 O774 2.117 . S
O771 Mg765 2.099 . S
O771 Mg770 2.180 . S
O771 C780 1.279 . S
O772 Mg770 2.030 . S
O772 C778 1.248 . S
O773 Mg770 1.990 . S
O773 C779 1.253 . S
O774 Mg770 2.117 . S
O774 C780 1.250 . S
C775 O781 1.248 . S
C775 O782 1.264 . S
C776 O762 1.253 . S
C776 O764 1.260 . S
C777 O766 1.279 . S
C777 O767 1.250 . S
C778 O768 1.264 . S
C778 O772 1.248 . S
C779 O769 1.260 . S
C779 O773 1.253 . S
C780 O771 1.279 . S
C780 O774 1.250 . S
O781 Mg763 2.030 . S
O781 C775 1.248 . S
O782 Mg765 2.079 . S
O782 C775 1.264 . S
O783 Mg784 1.990 . S
O783 C797 1.253 . S
Mg784 O783 1.990 . S
Mg784 O787 2.180 . S
Mg784 O788 2.117 . S
Mg784 O802 2.030 . S
O785 Mg786 2.072 . S
O785 C797 1.260 . S
Mg786 O785 2.072 . S
Mg786 O787 2.099 . S
Mg786 O789 2.079 . S
Mg786 O790 2.072 . S
Mg786 O792 2.099 . S
Mg786 O803 2.079 . S
O787 Mg784 2.180 . S
O787 Mg786 2.099 . S
O787 C798 1.279 . S
O788 Mg784 2.117 . S
O788 C798 1.250 . S
O789 Mg786 2.079 . S
O789 C799 1.264 . S
O790 Mg786 2.072 . S
O790 C800 1.260 . S
Mg791 O792 2.180 . S
Mg791 O793 2.030 . S
Mg791 O794 1.990 . S
Mg791 O795 2.117 . S
O792 Mg786 2.099 . S
O792 Mg791 2.180 . S
O792 C801 1.279 . S
O793 Mg791 2.030 . S
O793 C799 1.248 . S
O794 Mg791 1.990 . S
O794 C800 1.253 . S
O795 Mg791 2.117 . S
O795 C801 1.250 . S
C796 O802 1.248 . S
C796 O803 1.264 . S
C797 O783 1.253 . S
C797 O785 1.260 . S
C798 O787 1.279 . S
C798 O788 1.250 . S
C799 O789 1.264 . S
C799 O793 1.248 . S
C800 O790 1.260 . S
C800 O794 1.253 . S
C801 O792 1.279 . S
C801 O795 1.250 . S
O802 Mg784 2.030 . S
O802 C796 1.248 . S
O803 Mg786 2.079 . S
O803 C796 1.264 . S
H804 C812 0.929 . S
H805 C814 0.930 . S
H806 C816 0.930 . S
H807 C819 0.929 . S
H808 C822 0.930 . S
H809 C824 0.960 . S
H810 C824 0.960 . S
H811 C824 0.960 . S
C812 H804 0.929 . S
C812 C813 1.377 . S
C812 C814 1.384 . S
C813 C812 1.377 . S
C813 C819 1.390 . S
C814 H805 0.930 . S
C814 C812 1.384 . S
C814 C815 1.372 . S
C815 C814 1.372 . S
C815 C816 1.400 . S
C815 C820 1.490 . S
C816 H806 0.930 . S
C816 C815 1.400 . S
C816 C819 1.386 . S
H817 C833 0.930 . S
H818 C834 0.931 . S
C819 H807 0.929 . S
C819 C813 1.390 . S
C819 C816 1.386 . S
C820 C815 1.490 . S
C820 C822 1.395 . S
C820 C823 1.403 . S
H821 C827 0.930 . S
C822 H808 0.930 . S
C822 C820 1.395 . S
C822 C825 1.403 . S
C823 C820 1.403 . S
C823 C824 1.524 . S
C823 C827 1.400 . S
C824 H809 0.960 . S
C824 H810 0.960 . S
C824 H811 0.960 . S
C824 C823 1.524 . S
C825 C822 1.403 . S
C825 C826 1.392 . S
C825 C829 1.495 . S
C826 C825 1.392 . S
C826 C827 1.385 . S
C826 C828 1.478 . S
C827 H821 0.930 . S
C827 C823 1.400 . S
C827 C826 1.385 . S
C828 C826 1.478 . S
C828 C830 1.381 . S
C828 C834 1.383 . S
C829 C825 1.495 . S
C829 H835 0.959 . S
C829 H836 0.961 . S
C829 H837 0.960 . S
C830 C828 1.381 . S
C830 C831 1.394 . S
C830 H838 0.930 . S
C831 C830 1.394 . S
C831 C832 1.383 . S
C831 H839 0.929 . S
C832 C831 1.383 . S
C832 C833 1.377 . S
C833 H817 0.930 . S
C833 C832 1.377 . S
C833 C834 1.379 . S
C834 H818 0.931 . S
C834 C828 1.383 . S
C834 C833 1.379 . S
H835 C829 0.959 . S
H836 C829 0.961 . S
H837 C829 0.960 . S
H838 C830 0.930 . S
H839 C831 0.929 . S
H840 C848 0.929 . S
H841 C850 0.930 . S
H842 C852 0.930 . S
H843 C855 0.929 1_655 S
H844 C858 0.930 . S
H845 C860 0.960 . S
H846 C860 0.960 . S
H847 C860 0.960 . S
C848 H840 0.929 . S
C848 C849 1.377 . S
C848 C850 1.384 . S
C849 C848 1.377 . S
C849 C855 1.390 . S
C850 H841 0.930 . S
C850 C848 1.384 . S
C850 C851 1.372 . S
C851 C850 1.372 . S
C851 C852 1.400 1_455 S
C851 C856 1.490 . S
C852 H842 0.930 . S
C852 C851 1.400 1_655 S
C852 C855 1.386 1_655 S
H853 C869 0.930 . S
H854 C870 0.931 . S
C855 H843 0.929 1_455 S
C855 C849 1.390 . S
C855 C852 1.386 1_455 S
C856 C851 1.490 . S
C856 C858 1.395 1_455 S
C856 C859 1.403 . S
H857 C863 0.929 1_455 S
C858 H844 0.930 . S
C858 C856 1.395 1_655 S
C858 C861 1.403 . S
C859 C856 1.403 . S
C859 C860 1.524 . S
C859 C863 1.393 1_455 S
C860 H845 0.960 . S
C860 H846 0.960 . S
C860 H847 0.960 . S
C860 C859 1.524 . S
C861 C858 1.403 . S
C861 C862 1.392 . S
C861 C865 1.495 . S
C862 C861 1.392 . S
C862 C863 1.394 . S
C862 C864 1.478 . S
C863 H857 0.929 1_655 S
C863 C859 1.393 1_655 S
C863 C862 1.394 . S
C864 C862 1.478 . S
C864 C866 1.381 . S
C864 C870 1.383 . S
C865 C861 1.495 . S
C865 H871 0.959 . S
C865 H872 0.961 . S
C865 H873 0.960 . S
C866 C864 1.381 . S
C866 C867 1.394 . S
C866 H874 0.930 1_655 S
C867 C866 1.394 . S
C867 C868 1.383 . S
C867 H875 0.929 . S
C868 C867 1.383 . S
C868 C869 1.377 . S
C869 H853 0.930 . S
C869 C868 1.377 . S
C869 C870 1.379 . S
C870 H854 0.931 . S
C870 C864 1.383 . S
C870 C869 1.379 . S
H871 C865 0.959 . S
H872 C865 0.961 . S
H873 C865 0.960 . S
H874 C866 0.930 1_455 S
H875 C867 0.929 . S
H876 C884 0.929 . S
H877 C886 0.930 . S
H878 C888 0.930 . S
H879 C891 0.929 . S
H880 C894 0.930 . S
H881 C896 0.960 . S
H882 C896 0.960 . S
H883 C896 0.960 . S
C884 H876 0.929 . S
C884 C885 1.377 . S
C884 C886 1.384 . S
C885 C884 1.377 . S
C885 C891 1.390 . S
C886 H877 0.930 . S
C886 C884 1.384 . S
C886 C887 1.372 . S
C887 C886 1.372 . S
C887 C888 1.400 . S
C887 C892 1.490 . S
C888 H878 0.930 . S
C888 C887 1.400 . S
C888 C891 1.386 . S
H889 C905 0.930 . S
H890 C906 0.931 . S
C891 H879 0.929 . S
C891 C885 1.390 . S
C891 C888 1.386 . S
C892 C887 1.490 . S
C892 C894 1.395 . S
C892 C895 1.403 . S
H893 C899 0.930 . S
C894 H880 0.930 . S
C894 C892 1.395 . S
C894 C897 1.403 . S
C895 C892 1.403 . S
C895 C896 1.524 . S
C895 C899 1.400 . S
C896 H881 0.960 . S
C896 H882 0.960 . S
C896 H883 0.960 . S
C896 C895 1.524 . S
C897 C894 1.403 . S
C897 C898 1.392 . S
C897 C901 1.495 . S
C898 C897 1.392 . S
C898 C899 1.385 . S
C898 C900 1.478 . S
C899 H893 0.930 . S
C899 C895 1.400 . S
C899 C898 1.385 . S
C900 C898 1.478 . S
C900 C902 1.381 . S
C900 C906 1.383 . S
C901 C897 1.495 . S
C901 H907 0.959 1_455 S
C901 H908 0.961 1_455 S
C901 H909 0.960 . S
C902 C900 1.381 . S
C902 C903 1.394 . S
C902 H910 0.930 . S
C903 C902 1.394 . S
C903 C904 1.383 1_565 S
C903 H911 0.929 . S
C904 C903 1.383 1_545 S
C904 C905 1.377 . S
C905 H889 0.930 . S
C905 C904 1.377 . S
C905 C906 1.379 1_545 S
C906 H890 0.931 . S
C906 C900 1.383 . S
C906 C905 1.379 1_565 S
H907 C901 0.959 1_655 S
H908 C901 0.961 1_655 S
H909 C901 0.960 . S
H910 C902 0.930 . S
H911 C903 0.929 . S
H912 C920 0.930 . S
H913 C922 0.930 . S
H914 C924 0.930 . S
H915 C927 0.929 . S
H916 C930 0.930 . S
H917 C932 0.960 . S
H918 C932 0.960 . S
H919 C932 0.960 . S
C920 H912 0.930 . S
C920 C921 1.378 . S
C920 C922 1.383 1_455 S
C921 C920 1.378 . S
C921 C927 1.390 . S
C922 H913 0.930 . S
C922 C920 1.383 1_655 S
C922 C923 1.372 . S
C923 C922 1.372 . S
C923 C924 1.400 . S
C923 C928 1.490 . S
C924 H914 0.930 . S
C924 C923 1.400 . S
C924 C927 1.386 1_655 S
H925 C941 0.930 . S
H926 C942 0.931 . S
C927 H915 0.929 . S
C927 C921 1.390 . S
C927 C924 1.386 1_455 S
C928 C923 1.490 . S
C928 C930 1.395 1_655 S
C928 C931 1.403 . S
H929 C935 0.930 . S
C930 H916 0.930 . S
C930 C928 1.395 1_455 S
C930 C933 1.403 . S
C931 C928 1.403 . S
C931 C932 1.524 . S
C931 C935 1.400 . S
C932 H917 0.960 . S
C932 H918 0.960 . S
C932 H919 0.960 . S
C932 C931 1.524 . S
C933 C930 1.403 . S
C933 C934 1.392 1_455 S
C933 C937 1.495 . S
C934 C933 1.392 1_655 S
C934 C935 1.385 . S
C934 C936 1.478 . S
C935 H929 0.930 . S
C935 C931 1.400 . S
C935 C934 1.385 . S
C936 C934 1.478 . S
C936 C938 1.381 . S
C936 C942 1.383 . S
C937 C933 1.495 . S
C937 H943 0.959 . S
C937 H944 0.961 . S
C937 H945 0.960 . S
C938 C936 1.381 . S
C938 C939 1.394 . S
C938 H946 0.930 . S
C939 C938 1.394 . S
C939 C940 1.383 . S
C939 H947 0.929 . S
C940 C939 1.383 . S
C940 C941 1.377 . S
C941 H925 0.930 . S
C941 C940 1.377 . S
C941 C942 1.379 . S
C942 H926 0.931 . S
C942 C936 1.383 . S
C942 C941 1.379 . S
H943 C937 0.959 . S
H944 C937 0.961 . S
H945 C937 0.960 . S
H946 C938 0.930 . S
H947 C939 0.929 . S
H948 C956 0.929 . S
H949 C958 0.930 . S
H950 C960 0.930 . S
H951 C963 0.929 . S
H952 C966 0.930 . S
H953 C968 0.929 1_565 S
H954 C968 0.950 1_565 S
H955 C968 0.951 1_565 S
C956 H948 0.929 . S
C956 C957 1.377 . S
C956 C958 1.384 . S
C957 C956 1.377 . S
C957 C963 1.390 . S
C958 H949 0.930 . S
C958 C956 1.384 . S
C958 C959 1.372 . S
C959 C958 1.372 . S
C959 C960 1.400 . S
C959 C964 1.490 . S
C960 H950 0.930 . S
C960 C959 1.400 . S
C960 C963 1.386 . S
H961 C977 0.930 . S
H962 C978 0.931 . S
C963 H951 0.929 . S
C963 C957 1.390 . S
C963 C960 1.386 . S
C964 C959 1.490 . S
C964 C966 1.395 . S
C964 C967 1.403 . S
H965 C971 0.930 . S
C966 H952 0.930 . S
C966 C964 1.395 . S
C966 C969 1.403 . S
C967 C964 1.403 . S
C967 C968 1.576 . S
C967 C971 1.400 . S
C968 H953 0.929 1_545 S
C968 H954 0.950 1_545 S
C968 H955 0.951 1_545 S
C968 C967 1.576 . S
C969 C966 1.403 . S
C969 C970 1.392 . S
C969 C973 1.495 . S
C970 C969 1.392 . S
C970 C971 1.385 . S
C970 C972 1.478 . S
C971 H965 0.930 . S
C971 C967 1.400 . S
C971 C970 1.385 . S
C972 C970 1.478 . S
C972 C974 1.381 . S
C972 C978 1.383 . S
C973 C969 1.495 . S
C973 H979 0.959 . S
C973 H980 0.961 . S
C973 H981 0.960 . S
C974 C972 1.381 . S
C974 C975 1.394 1_554 S
C974 H982 0.930 . S
C975 C974 1.394 1_556 S
C975 C976 1.383 . S
C975 H983 0.929 . S
C976 C975 1.383 . S
C976 C977 1.377 1_556 S
C977 H961 0.930 . S
C977 C976 1.377 1_554 S
C977 C978 1.379 . S
C978 H962 0.931 . S
C978 C972 1.383 . S
C978 C977 1.379 . S
H979 C973 0.959 . S
H980 C973 0.961 . S
H981 C973 0.960 . S
H982 C974 0.930 . S
H983 C975 0.929 . S
H984 C992 0.929 . S
H985 C994 0.930 . S
H986 C996 0.930 . S
H987 C999 0.929 . S
H988 C1002 0.930 . S
H989 C1004 0.960 . S
H990 C1004 0.960 . S
H991 C1004 0.960 . S
C992 H984 0.929 . S
C992 C993 1.377 . S
C992 C994 1.384 . S
C993 C992 1.377 . S
C993 C999 1.390 . S
C994 H985 0.930 . S
C994 C992 1.384 . S
C994 C995 1.372 . S
C995 C994 1.372 . S
C995 C996 1.400 . S
C995 C1000 1.490 . S
C996 H986 0.930 . S
C996 C995 1.400 . S
C996 C999 1.386 . S
H997 C1013 0.930 . S
H998 C1014 0.931 . S
C999 H987 0.929 . S
C999 C993 1.390 . S
C999 C996 1.386 . S
C1000 C995 1.490 . S
C1000 C1002 1.395 . S
C1000 C1003 1.403 . S
H1001 C1007 0.930 . S
C1002 H988 0.930 . S
C1002 C1000 1.395 . S
C1002 C1005 1.403 . S
C1003 C1000 1.403 . S
C1003 C1004 1.524 . S
C1003 C1007 1.400 . S
C1004 H989 0.960 . S
C1004 H990 0.960 . S
C1004 H991 0.960 . S
C1004 C1003 1.524 . S
C1005 C1002 1.403 . S
C1005 C1006 1.392 . S
C1005 C1009 1.495 . S
C1006 C1005 1.392 . S
C1006 C1007 1.385 . S
C1006 C1008 1.478 . S
C1007 H1001 0.930 . S
C1007 C1003 1.400 . S
C1007 C1006 1.385 . S
C1008 C1006 1.478 . S
C1008 C1010 1.381 . S
C1008 C1014 1.383 . S
C1009 C1005 1.495 . S
C1009 H1015 0.959 . S
C1009 H1016 0.961 . S
C1009 H1017 0.960 . S
C1010 C1008 1.381 . S
C1010 C1011 1.394 . S
C1010 H1018 0.930 . S
C1011 C1010 1.394 . S
C1011 C1012 1.383 . S
C1011 H1019 0.929 . S
C1012 C1011 1.383 . S
C1012 C1013 1.377 . S
C1013 H997 0.930 . S
C1013 C1012 1.377 . S
C1013 C1014 1.379 . S
C1014 H998 0.931 . S
C1014 C1008 1.383 . S
C1014 C1013 1.379 . S
H1015 C1009 0.959 . S
H1016 C1009 0.961 . S
H1017 C1009 0.960 . S
H1018 C1010 0.930 . S
H1019 C1011 0.929 . S
H1020 C1028 0.929 . S
H1021 C1030 0.930 . S
H1022 C1032 0.930 . S
H1023 C1035 0.929 . S
H1024 C1038 0.930 . S
H1025 C1040 0.960 . S
H1026 C1040 0.960 . S
H1027 C1040 0.960 . S
C1028 H1020 0.929 . S
C1028 C1029 1.377 . S
C1028 C1030 1.384 . S
C1029 C1028 1.377 . S
C1029 C1035 1.390 1_565 S
C1030 H1021 0.930 . S
C1030 C1028 1.384 . S
C1030 C1031 1.372 . S
C1031 C1030 1.372 . S
C1031 C1032 1.400 1_565 S
C1031 C1036 1.490 . S
C1032 H1022 0.930 . S
C1032 C1031 1.400 1_545 S
C1032 C1035 1.386 . S
H1033 C1049 0.930 . S
H1034 C1050 0.931 . S
C1035 H1023 0.929 . S
C1035 C1029 1.390 1_545 S
C1035 C1032 1.386 . S
C1036 C1031 1.490 . S
C1036 C1038 1.395 . S
C1036 C1039 1.403 1_565 S
H1037 C1043 0.930 1_545 S
C1038 H1024 0.930 . S
C1038 C1036 1.395 . S
C1038 C1041 1.403 . S
C1039 C1036 1.403 1_545 S
C1039 C1040 1.524 . S
C1039 C1043 1.400 1_545 S
C1040 H1025 0.960 . S
C1040 H1026 0.960 . S
C1040 H1027 0.960 . S
C1040 C1039 1.524 . S
C1041 C1038 1.403 . S
C1041 C1042 1.392 . S
C1041 C1045 1.495 . S
C1042 C1041 1.392 . S
C1042 C1043 1.385 . S
C1042 C1044 1.478 . S
C1043 H1037 0.930 1_565 S
C1043 C1039 1.400 1_565 S
C1043 C1042 1.385 . S
C1044 C1042 1.478 . S
C1044 C1046 1.381 . S
C1044 C1050 1.383 . S
C1045 C1041 1.495 . S
C1045 H1051 0.959 . S
C1045 H1052 0.961 . S
C1045 H1053 0.960 . S
C1046 C1044 1.381 . S
C1046 C1047 1.394 . S
C1046 H1054 0.930 . S
C1047 C1046 1.394 . S
C1047 C1048 1.383 . S
C1047 H1055 0.929 . S
C1048 C1047 1.383 . S
C1048 C1049 1.377 . S
C1049 H1033 0.930 . S
C1049 C1048 1.377 . S
C1049 C1050 1.379 . S
C1050 H1034 0.931 . S
C1050 C1044 1.383 . S
C1050 C1049 1.379 . S
H1051 C1045 0.959 . S
H1052 C1045 0.961 . S
H1053 C1045 0.960 . S
H1054 C1046 0.930 . S
H1055 C1047 0.929 . S
H1056 C1064 0.929 . S
H1057 C1066 0.930 . S
H1058 C1068 0.930 . S
H1059 C1071 0.929 . S
H1060 C1074 0.930 . S
H1061 C1076 0.960 . S
H1062 C1076 0.960 . S
H1063 C1076 0.960 . S
C1064 H1056 0.929 . S
C1064 C1065 1.377 . S
C1064 C1066 1.384 . S
C1065 C1064 1.377 . S
C1065 C1071 1.390 . S
C1066 H1057 0.930 . S
C1066 C1064 1.384 . S
C1066 C1067 1.372 . S
C1067 C1066 1.372 . S
C1067 C1068 1.400 . S
C1067 C1072 1.490 . S
C1068 H1058 0.930 . S
C1068 C1067 1.400 . S
C1068 C1071 1.386 . S
H1069 C1085 0.930 . S
H1070 C1086 0.931 . S
C1071 H1059 0.929 . S
C1071 C1065 1.390 . S
C1071 C1068 1.386 . S
C1072 C1067 1.490 . S
C1072 C1074 1.395 . S
C1072 C1075 1.403 . S
H1073 C1079 0.930 . S
C1074 H1060 0.930 . S
C1074 C1072 1.395 . S
C1074 C1077 1.403 . S
C1075 C1072 1.403 . S
C1075 C1076 1.524 . S
C1075 C1079 1.400 . S
C1076 H1061 0.960 . S
C1076 H1062 0.960 . S
C1076 H1063 0.960 . S
C1076 C1075 1.524 . S
C1077 C1074 1.403 . S
C1077 C1078 1.392 . S
C1077 C1081 1.495 . S
C1078 C1077 1.392 . S
C1078 C1079 1.385 . S
C1078 C1080 1.478 . S
C1079 H1073 0.930 . S
C1079 C1075 1.400 . S
C1079 C1078 1.385 . S
C1080 C1078 1.478 . S
C1080 C1082 1.381 . S
C1080 C1086 1.383 . S
C1081 C1077 1.495 . S
C1081 H1087 0.959 . S
C1081 H1088 0.961 . S
C1081 H1089 0.960 . S
C1082 C1080 1.381 . S
C1082 C1083 1.394 . S
C1082 H1090 0.930 . S
C1083 C1082 1.394 . S
C1083 C1084 1.383 . S
C1083 H1091 0.929 . S
C1084 C1083 1.383 . S
C1084 C1085 1.377 . S
C1085 H1069 0.930 . S
C1085 C1084 1.377 . S
C1085 C1086 1.379 . S
C1086 H1070 0.931 . S
C1086 C1080 1.383 . S
C1086 C1085 1.379 . S
H1087 C1081 0.959 . S
H1088 C1081 0.961 . S
H1089 C1081 0.960 . S
H1090 C1082 0.930 . S
H1091 C1083 0.929 . S
H1092 C1100 0.929 . S
H1093 C1102 0.930 . S
H1094 C1104 0.930 . S
H1095 C1107 0.929 . S
H1096 C1110 0.930 . S
H1097 C1112 0.960 . S
H1098 C1112 0.960 . S
H1099 C1112 0.960 . S
C1100 H1092 0.929 . S
C1100 C1101 1.377 . S
C1100 C1102 1.384 . S
C1101 C1100 1.377 . S
C1101 C1107 1.390 . S
C1102 H1093 0.930 . S
C1102 C1100 1.384 . S
C1102 C1103 1.372 . S
C1103 C1102 1.372 . S
C1103 C1104 1.400 . S
C1103 C1108 1.490 . S
C1104 H1094 0.930 . S
C1104 C1103 1.400 . S
C1104 C1107 1.386 . S
H1105 C1121 0.930 1_556 S
H1106 C1122 0.959 . S
C1107 H1095 0.929 . S
C1107 C1101 1.390 . S
C1107 C1104 1.386 . S
C1108 C1103 1.490 . S
C1108 C1110 1.395 . S
C1108 C1111 1.403 . S
H1109 C1115 0.930 . S
C1110 H1096 0.930 . S
C1110 C1108 1.395 . S
C1110 C1113 1.403 . S
C1111 C1108 1.403 . S
C1111 C1112 1.524 . S
C1111 C1115 1.400 . S
C1112 H1097 0.960 . S
C1112 H1098 0.960 . S
C1112 H1099 0.960 . S
C1112 C1111 1.524 . S
C1113 C1110 1.403 . S
C1113 C1114 1.392 . S
C1113 C1117 1.495 . S
C1114 C1113 1.392 . S
C1114 C1115 1.385 . S
C1114 C1116 1.478 . S
C1115 H1109 0.930 . S
C1115 C1111 1.400 . S
C1115 C1114 1.385 . S
C1116 C1114 1.478 . S
C1116 C1118 1.381 . S
C1116 C1122 1.383 . S
C1117 C1113 1.495 . S
C1117 H1123 0.959 . S
C1117 H1124 0.961 . S
C1117 H1125 0.960 . S
C1118 C1116 1.381 . S
C1118 C1119 1.394 . S
C1118 H1126 0.930 . S
C1119 C1118 1.394 . S
C1119 C1120 1.383 . S
C1119 H1127 0.929 . S
C1120 C1119 1.383 . S
C1120 C1121 1.377 . S
C1121 H1105 0.930 1_554 S
C1121 C1120 1.377 . S
C1121 C1122 1.379 . S
C1122 H1106 0.959 . S
C1122 C1116 1.383 . S
C1122 C1121 1.379 . S
H1123 C1117 0.959 . S
H1124 C1117 0.961 . S
H1125 C1117 0.960 . S
H1126 C1118 0.930 . S
H1127 C1119 0.929 . S
H1128 C1136 0.929 . S
H1129 C1138 0.930 . S
H1130 C1140 0.930 . S
H1131 C1143 0.929 . S
H1132 C1146 0.930 . S
H1133 C1148 0.960 . S
H1134 C1148 0.960 . S
H1135 C1148 0.960 . S
C1136 H1128 0.929 . S
C1136 C1137 1.377 . S
C1136 C1138 1.384 . S
C1137 C1136 1.377 . S
C1137 C1143 1.390 . S
C1138 H1129 0.930 . S
C1138 C1136 1.384 . S
C1138 C1139 1.372 . S
C1139 C1138 1.372 . S
C1139 C1140 1.400 . S
C1139 C1144 1.490 . S
C1140 H1130 0.930 . S
C1140 C1139 1.400 . S
C1140 C1143 1.386 . S
H1141 C1157 0.931 . S
H1142 C1158 0.931 . S
C1143 H1131 0.929 . S
C1143 C1137 1.390 . S
C1143 C1140 1.386 . S
C1144 C1139 1.490 . S
C1144 C1146 1.395 . S
C1144 C1147 1.403 . S
H1145 C1151 0.930 . S
C1146 H1132 0.930 . S
C1146 C1144 1.395 . S
C1146 C1149 1.403 . S
C1147 C1144 1.403 . S
C1147 C1148 1.524 . S
C1147 C1151 1.400 . S
C1148 H1133 0.960 . S
C1148 H1134 0.960 . S
C1148 H1135 0.960 . S
C1148 C1147 1.524 . S
C1149 C1146 1.403 . S
C1149 C1150 1.392 . S
C1149 C1153 1.495 . S
C1150 C1149 1.392 . S
C1150 C1151 1.385 . S
C1150 C1152 1.478 . S
C1151 H1145 0.930 . S
C1151 C1147 1.400 . S
C1151 C1150 1.385 . S
C1152 C1150 1.478 . S
C1152 C1154 1.381 . S
C1152 C1158 1.383 . S
C1153 C1149 1.495 . S
C1153 H1159 0.959 . S
C1153 H1160 0.961 . S
C1153 H1161 0.960 . S
C1154 C1152 1.381 . S
C1154 C1155 1.394 . S
C1154 H1162 0.930 . S
C1155 C1154 1.394 . S
C1155 C1156 1.383 . S
C1155 H1163 0.929 . S
C1156 C1155 1.383 . S
C1156 C1157 1.377 . S
C1157 H1141 0.931 . S
C1157 C1156 1.377 . S
C1157 C1158 1.379 . S
C1158 H1142 0.931 . S
C1158 C1152 1.383 . S
C1158 C1157 1.379 . S
H1159 C1153 0.959 . S
H1160 C1153 0.961 . S
H1161 C1153 0.960 . S
H1162 C1154 0.930 . S
H1163 C1155 0.929 . S
H1164 C1172 0.929 . S
H1165 C1174 0.930 . S
H1166 C1176 0.930 . S
H1167 C1179 0.929 . S
H1168 C1182 0.930 . S
H1169 C1184 0.960 . S
H1170 C1184 0.960 . S
H1171 C1184 0.960 . S
C1172 H1164 0.929 . S
C1172 C1173 1.377 . S
C1172 C1174 1.384 . S
C1173 C1172 1.377 . S
C1173 C1179 1.390 . S
C1174 H1165 0.930 . S
C1174 C1172 1.384 . S
C1174 C1175 1.372 . S
C1175 C1174 1.372 . S
C1175 C1176 1.400 . S
C1175 C1180 1.490 . S
C1176 H1166 0.930 . S
C1176 C1175 1.400 . S
C1176 C1179 1.386 . S
H1177 C1193 0.930 . S
H1178 C1194 0.931 . S
C1179 H1167 0.929 . S
C1179 C1173 1.390 . S
C1179 C1176 1.386 . S
C1180 C1175 1.490 . S
C1180 C1182 1.395 . S
C1180 C1183 1.403 . S
H1181 C1187 0.930 . S
C1182 H1168 0.930 . S
C1182 C1180 1.395 . S
C1182 C1185 1.403 . S
C1183 C1180 1.403 . S
C1183 C1184 1.524 . S
C1183 C1187 1.400 . S
C1184 H1169 0.960 . S
C1184 H1170 0.960 . S
C1184 H1171 0.960 . S
C1184 C1183 1.524 . S
C1185 C1182 1.403 . S
C1185 C1186 1.392 . S
C1185 C1189 1.495 . S
C1186 C1185 1.392 . S
C1186 C1187 1.385 . S
C1186 C1188 1.478 . S
C1187 H1181 0.930 . S
C1187 C1183 1.400 . S
C1187 C1186 1.385 . S
C1188 C1186 1.478 . S
C1188 C1190 1.381 . S
C1188 C1194 1.383 . S
C1189 C1185 1.495 . S
C1189 H1195 0.959 . S
C1189 H1196 0.961 . S
C1189 H1197 0.960 . S
C1190 C1188 1.381 . S
C1190 C1191 1.394 . S
C1190 H1198 0.930 . S
C1191 C1190 1.394 . S
C1191 C1192 1.383 . S
C1191 H1199 0.929 . S
C1192 C1191 1.383 . S
C1192 C1193 1.377 . S
C1193 H1177 0.930 . S
C1193 C1192 1.377 . S
C1193 C1194 1.379 . S
C1194 H1178 0.931 . S
C1194 C1188 1.383 . S
C1194 C1193 1.379 . S
H1195 C1189 0.959 . S
H1196 C1189 0.961 . S
H1197 C1189 0.960 . S
H1198 C1190 0.930 . S
H1199 C1191 0.929 . S
H1200 C1208 0.929 . S
H1201 C1210 0.930 . S
H1202 C1212 0.930 . S
H1203 C1215 0.929 . S
H1204 C1218 0.930 . S
H1205 C1220 0.960 . S
H1206 C1220 0.960 . S
H1207 C1220 0.960 . S
C1208 H1200 0.929 . S
C1208 C1209 1.377 . S
C1208 C1210 1.384 . S
C1209 C1208 1.377 . S
C1209 C1215 1.390 . S
C1210 H1201 0.930 . S
C1210 C1208 1.384 . S
C1210 C1211 1.372 . S
C1211 C1210 1.372 . S
C1211 C1212 1.400 . S
C1211 C1216 1.490 . S
C1212 H1202 0.930 . S
C1212 C1211 1.400 . S
C1212 C1215 1.386 . S
H1213 C1229 0.930 . S
H1214 C1230 0.931 . S
C1215 H1203 0.929 . S
C1215 C1209 1.390 . S
C1215 C1212 1.386 . S
C1216 C1211 1.490 . S
C1216 C1218 1.395 . S
C1216 C1219 1.403 . S
H1217 C1223 0.930 . S
C1218 H1204 0.930 . S
C1218 C1216 1.395 . S
C1218 C1221 1.403 . S
C1219 C1216 1.403 . S
C1219 C1220 1.524 . S
C1219 C1223 1.400 . S
C1220 H1205 0.960 . S
C1220 H1206 0.960 . S
C1220 H1207 0.960 . S
C1220 C1219 1.524 . S
C1221 C1218 1.403 . S
C1221 C1222 1.392 . S
C1221 C1225 1.495 . S
C1222 C1221 1.392 . S
C1222 C1223 1.385 . S
C1222 C1224 1.478 . S
C1223 H1217 0.930 . S
C1223 C1219 1.400 . S
C1223 C1222 1.385 . S
C1224 C1222 1.478 . S
C1224 C1226 1.381 . S
C1224 C1230 1.383 . S
C1225 C1221 1.495 . S
C1225 H1231 0.959 . S
C1225 H1232 0.961 . S
C1225 H1233 0.960 . S
C1226 C1224 1.381 . S
C1226 C1227 1.394 . S
C1226 H1234 0.930 . S
C1227 C1226 1.394 . S
C1227 C1228 1.383 . S
C1227 H1235 0.929 . S
C1228 C1227 1.383 . S
C1228 C1229 1.377 . S
C1229 H1213 0.930 . S
C1229 C1228 1.377 . S
C1229 C1230 1.379 . S
C1230 H1214 0.931 . S
C1230 C1224 1.383 . S
C1230 C1229 1.379 . S
H1231 C1225 0.959 . S
H1232 C1225 0.961 . S
H1233 C1225 0.960 . S
H1234 C1226 0.930 . S
H1235 C1227 0.929 . S
H1236 C1244 0.929 . S
H1237 C1246 0.930 . S
H1238 C1248 0.930 . S
H1239 C1251 0.929 . S
H1240 C1254 0.930 . S
H1241 C1256 0.960 . S
H1242 C1256 0.960 . S
H1243 C1256 0.960 . S
C1244 H1236 0.929 . S
C1244 C1245 1.377 . S
C1244 C1246 1.384 . S
C1245 C1244 1.377 . S
C1245 C1251 1.390 . S
C1246 H1237 0.930 . S
C1246 C1244 1.384 . S
C1246 C1247 1.372 . S
C1247 C1246 1.372 . S
C1247 C1248 1.400 . S
C1247 C1252 1.490 . S
C1248 H1238 0.930 . S
C1248 C1247 1.400 . S
C1248 C1251 1.386 . S
H1249 C1265 0.930 . S
H1250 C1266 0.931 . S
C1251 H1239 0.929 . S
C1251 C1245 1.390 . S
C1251 C1248 1.386 . S
C1252 C1247 1.490 . S
C1252 C1254 1.395 . S
C1252 C1255 1.403 . S
H1253 C1259 0.930 . S
C1254 H1240 0.930 . S
C1254 C1252 1.395 . S
C1254 C1257 1.403 . S
C1255 C1252 1.403 . S
C1255 C1256 1.524 . S
C1255 C1259 1.400 . S
C1256 H1241 0.960 . S
C1256 H1242 0.960 . S
C1256 H1243 0.960 . S
C1256 C1255 1.524 . S
C1257 C1254 1.403 . S
C1257 C1258 1.392 . S
C1257 C1261 1.495 . S
C1258 C1257 1.392 . S
C1258 C1259 1.385 . S
C1258 C1260 1.478 . S
C1259 H1253 0.930 . S
C1259 C1255 1.400 . S
C1259 C1258 1.385 . S
C1260 C1258 1.478 . S
C1260 C1262 1.381 . S
C1260 C1266 1.383 . S
C1261 C1257 1.495 . S
C1261 H1267 0.959 . S
C1261 H1268 0.961 . S
C1261 H1269 0.960 . S
C1262 C1260 1.381 . S
C1262 C1263 1.394 . S
C1262 H1270 0.930 . S
C1263 C1262 1.394 . S
C1263 C1264 1.383 . S
C1263 H1271 0.929 . S
C1264 C1263 1.383 . S
C1264 C1265 1.377 . S
C1265 H1249 0.930 . S
C1265 C1264 1.377 . S
C1265 C1266 1.379 . S
C1266 H1250 0.931 . S
C1266 C1260 1.383 . S
C1266 C1265 1.379 . S
H1267 C1261 0.959 . S
H1268 C1261 0.961 . S
H1269 C1261 0.960 . S
H1270 C1262 0.930 . S
H1271 C1263 0.929 . S
H1272 C1280 0.929 . S
H1273 C1282 0.930 . S
H1274 C1284 0.930 . S
H1275 C1287 0.929 . S
H1276 C1290 0.930 . S
H1277 C1292 0.960 . S
H1278 C1292 0.960 . S
H1279 C1292 0.960 . S
C1280 H1272 0.929 . S
C1280 C1281 1.377 . S
C1280 C1282 1.384 . S
C1281 C1280 1.377 . S
C1281 C1287 1.390 . S
C1282 H1273 0.930 . S
C1282 C1280 1.384 . S
C1282 C1283 1.372 . S
C1283 C1282 1.372 . S
C1283 C1284 1.400 . S
C1283 C1288 1.490 . S
C1284 H1274 0.930 . S
C1284 C1283 1.400 . S
C1284 C1287 1.386 . S
H1285 C1301 0.930 . S
H1286 C1302 0.931 . S
C1287 H1275 0.929 . S
C1287 C1281 1.390 . S
C1287 C1284 1.386 . S
C1288 C1283 1.490 . S
C1288 C1290 1.395 . S
C1288 C1291 1.403 . S
H1289 C1295 0.930 . S
C1290 H1276 0.930 . S
C1290 C1288 1.395 . S
C1290 C1293 1.403 . S
C1291 C1288 1.403 . S
C1291 C1292 1.524 . S
C1291 C1295 1.400 . S
C1292 H1277 0.960 . S
C1292 H1278 0.960 . S
C1292 H1279 0.960 . S
C1292 C1291 1.524 . S
C1293 C1290 1.403 . S
C1293 C1294 1.392 . S
C1293 C1297 1.495 . S
C1294 C1293 1.392 . S
C1294 C1295 1.385 . S
C1294 C1296 1.478 . S
C1295 H1289 0.930 . S
C1295 C1291 1.400 . S
C1295 C1294 1.385 . S
C1296 C1294 1.478 . S
C1296 C1298 1.381 . S
C1296 C1302 1.383 . S
C1297 C1293 1.495 . S
C1297 H1303 0.959 . S
C1297 H1304 0.961 . S
C1297 H1305 0.960 . S
C1298 C1296 1.381 . S
C1298 C1299 1.394 . S
C1298 H1306 0.930 . S
C1299 C1298 1.394 . S
C1299 C1300 1.383 1_565 S
C1299 H1307 0.929 . S
C1300 C1299 1.383 1_545 S
C1300 C1301 1.377 . S
C1301 H1285 0.930 . S
C1301 C1300 1.377 . S
C1301 C1302 1.379 1_545 S
C1302 H1286 0.931 . S
C1302 C1296 1.383 . S
C1302 C1301 1.379 1_565 S
H1303 C1297 0.959 . S
H1304 C1297 0.961 . S
H1305 C1297 0.960 . S
H1306 C1298 0.930 . S
H1307 C1299 0.929 . S
H1308 C1316 0.929 . S
H1309 C1318 0.930 . S
H1310 C1320 0.930 . S
H1311 C1323 0.929 . S
H1312 C1326 0.930 . S
H1313 C1328 0.960 . S
H1314 C1328 0.960 . S
H1315 C1328 0.960 . S
C1316 H1308 0.929 . S
C1316 C1317 1.377 . S
C1316 C1318 1.384 . S
C1317 C1316 1.377 . S
C1317 C1323 1.390 . S
C1318 H1309 0.930 . S
C1318 C1316 1.384 . S
C1318 C1319 1.372 . S
C1319 C1318 1.372 . S
C1319 C1320 1.400 . S
C1319 C1324 1.490 . S
C1320 H1310 0.930 . S
C1320 C1319 1.400 . S
C1320 C1323 1.386 . S
H1321 C1337 0.930 . S
H1322 C1338 0.931 . S
C1323 H1311 0.929 . S
C1323 C1317 1.390 . S
C1323 C1320 1.386 . S
C1324 C1319 1.490 . S
C1324 C1326 1.395 . S
C1324 C1327 1.403 . S
H1325 C1331 0.930 . S
C1326 H1312 0.930 . S
C1326 C1324 1.395 . S
C1326 C1329 1.403 . S
C1327 C1324 1.403 . S
C1327 C1328 1.524 . S
C1327 C1331 1.400 . S
C1328 H1313 0.960 . S
C1328 H1314 0.960 . S
C1328 H1315 0.960 . S
C1328 C1327 1.524 . S
C1329 C1326 1.403 . S
C1329 C1330 1.392 . S
C1329 C1333 1.495 . S
C1330 C1329 1.392 . S
C1330 C1331 1.385 . S
C1330 C1332 1.478 . S
C1331 H1325 0.930 . S
C1331 C1327 1.400 . S
C1331 C1330 1.385 . S
C1332 C1330 1.478 . S
C1332 C1334 1.381 . S
C1332 C1338 1.383 . S
C1333 C1329 1.495 . S
C1333 H1339 0.959 . S
C1333 H1340 0.961 . S
C1333 H1341 0.960 . S
C1334 C1332 1.381 . S
C1334 C1335 1.394 . S
C1334 H1342 0.930 . S
C1335 C1334 1.394 . S
C1335 C1336 1.383 . S
C1335 H1343 0.929 . S
C1336 C1335 1.383 . S
C1336 C1337 1.377 . S
C1337 H1321 0.930 . S
C1337 C1336 1.377 . S
C1337 C1338 1.379 . S
C1338 H1322 0.931 . S
C1338 C1332 1.383 . S
C1338 C1337 1.379 . S
H1339 C1333 0.959 . S
H1340 C1333 0.961 . S
H1341 C1333 0.960 . S
H1342 C1334 0.930 . S
H1343 C1335 0.929 . S
H1344 C1352 0.929 . S
H1345 C1354 0.930 . S
H1346 C1356 0.930 . S
H1347 C1359 0.929 . S
H1348 C1362 0.930 . S
H1349 C1364 0.960 . S
H1350 C1364 0.960 . S
H1351 C1364 0.960 . S
C1352 H1344 0.929 . S
C1352 C1353 1.377 . S
C1352 C1354 1.384 . S
C1353 C1352 1.377 . S
C1353 C1359 1.390 . S
C1354 H1345 0.930 . S
C1354 C1352 1.384 . S
C1354 C1355 1.372 . S
C1355 C1354 1.372 . S
C1355 C1356 1.400 . S
C1355 C1360 1.490 . S
C1356 H1346 0.930 . S
C1356 C1355 1.400 . S
C1356 C1359 1.386 . S
H1357 C1373 0.930 . S
H1358 C1374 0.931 . S
C1359 H1347 0.929 . S
C1359 C1353 1.390 . S
C1359 C1356 1.386 . S
C1360 C1355 1.490 . S
C1360 C1362 1.395 . S
C1360 C1363 1.403 . S
H1361 C1367 0.930 . S
C1362 H1348 0.930 . S
C1362 C1360 1.395 . S
C1362 C1365 1.403 . S
C1363 C1360 1.403 . S
C1363 C1364 1.524 . S
C1363 C1367 1.400 . S
C1364 H1349 0.960 . S
C1364 H1350 0.960 . S
C1364 H1351 0.960 . S
C1364 C1363 1.524 . S
C1365 C1362 1.403 . S
C1365 C1366 1.392 . S
C1365 C1369 1.495 . S
C1366 C1365 1.392 . S
C1366 C1367 1.385 . S
C1366 C1368 1.478 . S
C1367 H1361 0.930 . S
C1367 C1363 1.400 . S
C1367 C1366 1.385 . S
C1368 C1366 1.478 . S
C1368 C1370 1.381 . S
C1368 C1374 1.383 . S
C1369 C1365 1.495 . S
C1369 H1375 0.959 . S
C1369 H1376 0.961 . S
C1369 H1377 0.960 . S
C1370 C1368 1.381 . S
C1370 C1371 1.394 . S
C1370 H1378 0.930 . S
C1371 C1370 1.394 . S
C1371 C1372 1.383 . S
C1371 H1379 0.929 . S
C1372 C1371 1.383 . S
C1372 C1373 1.377 . S
C1373 H1357 0.930 . S
C1373 C1372 1.377 . S
C1373 C1374 1.379 . S
C1374 H1358 0.931 . S
C1374 C1368 1.383 . S
C1374 C1373 1.379 . S
H1375 C1369 0.959 . S
H1376 C1369 0.961 . S
H1377 C1369 0.960 . S
H1378 C1370 0.930 . S
H1379 C1371 0.929 . S
H1380 C1388 0.929 . S
H1381 C1390 0.930 . S
H1382 C1392 0.930 . S
H1383 C1395 0.929 . S
H1384 C1398 0.930 . S
H1385 C1400 0.960 . S
H1386 C1400 0.960 . S
H1387 C1400 0.960 . S
C1388 H1380 0.929 . S
C1388 C1389 1.377 . S
C1388 C1390 1.384 . S
C1389 C1388 1.377 . S
C1389 C1395 1.390 . S
C1390 H1381 0.930 . S
C1390 C1388 1.384 . S
C1390 C1391 1.372 . S
C1391 C1390 1.372 . S
C1391 C1392 1.400 . S
C1391 C1396 1.490 . S
C1392 H1382 0.930 . S
C1392 C1391 1.400 . S
C1392 C1395 1.386 . S
H1393 C1409 0.930 . S
H1394 C1410 0.931 . S
C1395 H1383 0.929 . S
C1395 C1389 1.390 . S
C1395 C1392 1.386 . S
C1396 C1391 1.490 . S
C1396 C1398 1.395 . S
C1396 C1399 1.403 . S
H1397 C1403 0.930 . S
C1398 H1384 0.930 . S
C1398 C1396 1.395 . S
C1398 C1401 1.403 . S
C1399 C1396 1.403 . S
C1399 C1400 1.524 . S
C1399 C1403 1.400 . S
C1400 H1385 0.960 . S
C1400 H1386 0.960 . S
C1400 H1387 0.960 . S
C1400 C1399 1.524 . S
C1401 C1398 1.403 . S
C1401 C1402 1.392 . S
C1401 C1405 1.495 . S
C1402 C1401 1.392 . S
C1402 C1403 1.385 . S
C1402 C1404 1.478 . S
C1403 H1397 0.930 . S
C1403 C1399 1.400 . S
C1403 C1402 1.385 . S
C1404 C1402 1.478 . S
C1404 C1406 1.381 . S
C1404 C1410 1.383 . S
C1405 C1401 1.495 . S
C1405 H1411 0.959 . S
C1405 H1412 0.961 . S
C1405 H1413 0.960 . S
C1406 C1404 1.381 . S
C1406 C1407 1.394 . S
C1406 H1414 0.930 . S
C1407 C1406 1.394 . S
C1407 C1408 1.383 . S
C1407 H1415 0.929 . S
C1408 C1407 1.383 . S
C1408 C1409 1.377 . S
C1409 H1393 0.930 . S
C1409 C1408 1.377 . S
C1409 C1410 1.379 . S
C1410 H1394 0.931 . S
C1410 C1404 1.383 . S
C1410 C1409 1.379 . S
H1411 C1405 0.959 . S
H1412 C1405 0.961 . S
H1413 C1405 0.960 . S
H1414 C1406 0.930 . S
H1415 C1407 0.929 . S
H1416 C1424 0.929 1_545 S
H1417 C1426 0.930 . S
H1418 C1428 0.930 . S
H1419 C1431 0.929 . S
H1420 C1434 0.930 . S
H1421 C1436 0.960 . S
H1422 C1436 0.967 . S
H1423 C1436 0.960 . S
C1424 H1416 0.929 1_565 S
C1424 C1425 1.377 . S
C1424 C1426 1.384 . S
C1425 C1424 1.377 . S
C1425 C1431 1.390 . S
C1426 H1417 0.930 . S
C1426 C1424 1.384 . S
C1426 C1427 1.372 . S
C1427 C1426 1.372 . S
C1427 C1428 1.400 . S
C1427 C1432 1.490 . S
C1428 H1418 0.930 . S
C1428 C1427 1.400 . S
C1428 C1431 1.386 . S
H1429 C1445 0.930 . S
H1430 C1446 0.931 . S
C1431 H1419 0.929 . S
C1431 C1425 1.390 . S
C1431 C1428 1.386 . S
C1432 C1427 1.490 . S
C1432 C1434 1.395 . S
C1432 C1435 1.403 . S
H1433 C1439 0.930 . S
C1434 H1420 0.930 . S
C1434 C1432 1.395 . S
C1434 C1437 1.403 . S
C1435 C1432 1.403 . S
C1435 C1436 1.524 . S
C1435 C1439 1.400 . S
C1436 H1421 0.960 . S
C1436 H1422 0.967 . S
C1436 H1423 0.960 . S
C1436 C1435 1.524 . S
C1437 C1434 1.403 . S
C1437 C1438 1.392 . S
C1437 C1441 1.495 . S
C1438 C1437 1.392 . S
C1438 C1439 1.385 . S
C1438 C1440 1.478 . S
C1439 H1433 0.930 . S
C1439 C1435 1.400 . S
C1439 C1438 1.385 . S
C1440 C1438 1.478 . S
C1440 C1442 1.381 . S
C1440 C1446 1.383 . S
C1441 C1437 1.495 . S
C1441 H1447 0.959 . S
C1441 H1448 0.961 . S
C1441 H1449 0.960 . S
C1442 C1440 1.381 . S
C1442 C1443 1.394 . S
C1442 H1450 0.930 . S
C1443 C1442 1.394 . S
C1443 C1444 1.383 . S
C1443 H1451 0.929 . S
C1444 C1443 1.383 . S
C1444 C1445 1.377 . S
C1445 H1429 0.930 . S
C1445 C1444 1.377 . S
C1445 C1446 1.379 . S
C1446 H1430 0.931 . S
C1446 C1440 1.383 . S
C1446 C1445 1.379 . S
H1447 C1441 0.959 . S
H1448 C1441 0.961 . S
H1449 C1441 0.960 . S
H1450 C1442 0.930 . S
H1451 C1443 0.929 . S
H1452 C1460 0.929 . S
H1453 C1462 0.930 . S
H1454 C1464 0.930 . S
H1455 C1467 0.929 . S
H1456 C1470 0.930 . S
H1457 C1472 0.960 . S
H1458 C1472 0.960 . S
H1459 C1472 0.960 . S
C1460 H1452 0.929 . S
C1460 C1461 1.377 . S
C1460 C1462 1.384 . S
C1461 C1460 1.377 . S
C1461 C1467 1.390 . S
C1462 H1453 0.930 . S
C1462 C1460 1.384 . S
C1462 C1463 1.372 . S
C1463 C1462 1.372 . S
C1463 C1464 1.400 . S
C1463 C1468 1.490 . S
C1464 H1454 0.930 . S
C1464 C1463 1.400 . S
C1464 C1467 1.386 . S
H1465 C1481 0.930 . S
H1466 C1482 0.931 . S
C1467 H1455 0.929 . S
C1467 C1461 1.390 . S
C1467 C1464 1.386 . S
C1468 C1463 1.490 . S
C1468 C1470 1.395 . S
C1468 C1471 1.403 . S
H1469 C1475 0.930 . S
C1470 H1456 0.930 . S
C1470 C1468 1.395 . S
C1470 C1473 1.403 . S
C1471 C1468 1.403 . S
C1471 C1472 1.524 . S
C1471 C1475 1.400 . S
C1472 H1457 0.960 . S
C1472 H1458 0.960 . S
C1472 H1459 0.960 . S
C1472 C1471 1.524 . S
C1473 C1470 1.403 . S
C1473 C1474 1.392 . S
C1473 C1477 1.495 . S
C1474 C1473 1.392 . S
C1474 C1475 1.385 . S
C1474 C1476 1.478 . S
C1475 H1469 0.930 . S
C1475 C1471 1.400 . S
C1475 C1474 1.385 . S
C1476 C1474 1.478 . S
C1476 C1478 1.381 . S
C1476 C1482 1.383 . S
C1477 C1473 1.495 . S
C1477 H1483 0.959 . S
C1477 H1484 0.961 . S
C1477 H1485 0.960 . S
C1478 C1476 1.381 . S
C1478 C1479 1.394 . S
C1478 H1486 0.930 . S
C1479 C1478 1.394 . S
C1479 C1480 1.383 . S
C1479 H1487 0.929 . S
C1480 C1479 1.383 . S
C1480 C1481 1.377 . S
C1481 H1465 0.930 . S
C1481 C1480 1.377 . S
C1481 C1482 1.379 . S
C1482 H1466 0.931 . S
C1482 C1476 1.383 . S
C1482 C1481 1.379 . S
H1483 C1477 0.959 . S
H1484 C1477 0.961 . S
H1485 C1477 0.960 . S
H1486 C1478 0.930 . S
H1487 C1479 0.929 . S
H1488 C1496 0.929 . S
H1489 C1498 0.930 1_565 S
H1490 C1500 0.930 . S
H1491 C1503 0.929 . S
H1492 C1506 0.930 . S
H1493 C1508 0.960 . S
H1494 C1508 0.960 . S
H1495 C1508 0.960 . S
C1496 H1488 0.929 . S
C1496 C1497 1.377 1_565 S
C1496 C1498 1.384 1_565 S
C1497 C1496 1.377 1_545 S
C1497 C1503 1.390 . S
C1498 H1489 0.930 1_545 S
C1498 C1496 1.384 1_545 S
C1498 C1499 1.372 . S
C1499 C1498 1.372 . S
C1499 C1500 1.400 . S
C1499 C1504 1.490 . S
C1500 H1490 0.930 . S
C1500 C1499 1.400 . S
C1500 C1503 1.386 . S
H1501 C1517 0.930 . S
H1502 C1518 0.931 . S
C1503 H1491 0.929 . S
C1503 C1497 1.390 . S
C1503 C1500 1.386 . S
C1504 C1499 1.490 . S
C1504 C1506 1.395 . S
C1504 C1507 1.403 . S
H1505 C1511 0.930 . S
C1506 H1492 0.930 . S
C1506 C1504 1.395 . S
C1506 C1509 1.403 . S
C1507 C1504 1.403 . S
C1507 C1508 1.524 . S
C1507 C1511 1.400 . S
C1508 H1493 0.960 . S
C1508 H1494 0.960 . S
C1508 H1495 0.960 . S
C1508 C1507 1.524 . S
C1509 C1506 1.403 . S
C1509 C1510 1.392 . S
C1509 C1513 1.495 . S
C1510 C1509 1.392 . S
C1510 C1511 1.385 . S
C1510 C1512 1.478 . S
C1511 H1505 0.930 . S
C1511 C1507 1.400 . S
C1511 C1510 1.385 . S
C1512 C1510 1.478 . S
C1512 C1514 1.381 . S
C1512 C1518 1.383 . S
C1513 C1509 1.495 . S
C1513 H1519 0.978 . S
C1513 H1520 0.961 . S
C1513 H1521 0.960 1_545 S
C1514 C1512 1.381 . S
C1514 C1515 1.394 . S
C1514 H1522 0.930 . S
C1515 C1514 1.394 . S
C1515 C1516 1.383 . S
C1515 H1523 0.929 . S
C1516 C1515 1.383 . S
C1516 C1517 1.377 . S
C1517 H1501 0.930 . S
C1517 C1516 1.377 . S
C1517 C1518 1.379 . S
C1518 H1502 0.931 . S
C1518 C1512 1.383 . S
C1518 C1517 1.379 . S
H1519 C1513 0.978 . S
H1520 C1513 0.961 . S
H1521 C1513 0.960 1_565 S
H1522 C1514 0.930 . S
H1523 C1515 0.929 . S
H1524 C1532 0.929 . S
H1525 C1534 0.930 . S
H1526 C1536 0.930 . S
H1527 C1539 0.929 . S
H1528 C1542 0.930 . S
H1529 C1544 0.960 . S
H1530 C1544 0.960 . S
H1531 C1544 0.960 . S
C1532 H1524 0.929 . S
C1532 C1533 1.377 . S
C1532 C1534 1.384 . S
C1533 C1532 1.377 . S
C1533 C1539 1.390 . S
C1534 H1525 0.930 . S
C1534 C1532 1.384 . S
C1534 C1535 1.372 . S
C1535 C1534 1.372 . S
C1535 C1536 1.400 . S
C1535 C1540 1.490 . S
C1536 H1526 0.930 . S
C1536 C1535 1.400 . S
C1536 C1539 1.386 . S
H1537 C1553 0.930 . S
H1538 C1554 0.931 . S
C1539 H1527 0.929 . S
C1539 C1533 1.390 . S
C1539 C1536 1.386 . S
C1540 C1535 1.490 . S
C1540 C1542 1.395 . S
C1540 C1543 1.403 . S
H1541 C1547 0.930 . S
C1542 H1528 0.930 . S
C1542 C1540 1.395 . S
C1542 C1545 1.403 . S
C1543 C1540 1.403 . S
C1543 C1544 1.524 . S
C1543 C1547 1.400 . S
C1544 H1529 0.960 . S
C1544 H1530 0.960 . S
C1544 H1531 0.960 . S
C1544 C1543 1.524 . S
C1545 C1542 1.403 . S
C1545 C1546 1.392 . S
C1545 C1549 1.495 . S
C1546 C1545 1.392 . S
C1546 C1547 1.385 . S
C1546 C1548 1.478 . S
C1547 H1541 0.930 . S
C1547 C1543 1.400 . S
C1547 C1546 1.385 . S
C1548 C1546 1.478 . S
C1548 C1550 1.381 . S
C1548 C1554 1.383 . S
C1549 C1545 1.495 . S
C1549 H1555 0.959 . S
C1549 H1556 0.961 . S
C1549 H1557 0.960 . S
C1550 C1548 1.381 . S
C1550 C1551 1.394 . S
C1550 H1558 0.930 . S
C1551 C1550 1.394 . S
C1551 C1552 1.383 . S
C1551 H1559 0.929 . S
C1552 C1551 1.383 . S
C1552 C1553 1.377 . S
C1553 H1537 0.930 . S
C1553 C1552 1.377 . S
C1553 C1554 1.379 . S
C1554 H1538 0.931 . S
C1554 C1548 1.383 . S
C1554 C1553 1.379 . S
H1555 C1549 0.959 . S
H1556 C1549 0.961 . S
H1557 C1549 0.960 . S
H1558 C1550 0.930 . S
H1559 C1551 0.929 . S
H1560 C1568 0.929 . S
H1561 C1570 0.930 . S
H1562 C1572 0.930 . S
H1563 C1575 0.929 . S
H1564 C1578 0.930 . S
H1565 C1580 0.960 . S
H1566 C1580 0.960 . S
H1567 C1580 0.960 . S
C1568 H1560 0.929 . S
C1568 C1569 1.377 1_556 S
C1568 C1570 1.384 . S
C1569 C1568 1.377 1_554 S
C1569 C1575 1.390 . S
C1570 H1561 0.930 . S
C1570 C1568 1.384 . S
C1570 C1571 1.372 . S
C1571 C1570 1.372 . S
C1571 C1572 1.400 1_556 S
C1571 C1576 1.490 . S
C1572 H1562 0.930 . S
C1572 C1571 1.400 1_554 S
C1572 C1575 1.386 . S
H1573 C1589 0.930 . S
H1574 C1590 0.931 . S
C1575 H1563 0.929 . S
C1575 C1569 1.390 . S
C1575 C1572 1.386 . S
C1576 C1571 1.490 . S
C1576 C1578 1.395 . S
C1576 C1579 1.403 1_556 S
H1577 C1583 0.930 1_554 S
C1578 H1564 0.930 . S
C1578 C1576 1.395 . S
C1578 C1581 1.403 . S
C1579 C1576 1.403 1_554 S
C1579 C1580 1.524 . S
C1579 C1583 1.400 1_554 S
C1580 H1565 0.960 . S
C1580 H1566 0.960 . S
C1580 H1567 0.960 . S
C1580 C1579 1.524 . S
C1581 C1578 1.403 . S
C1581 C1582 1.392 . S
C1581 C1585 1.495 . S
C1582 C1581 1.392 . S
C1582 C1583 1.385 . S
C1582 C1584 1.478 . S
C1583 H1577 0.930 1_556 S
C1583 C1579 1.400 1_556 S
C1583 C1582 1.385 . S
C1584 C1582 1.478 . S
C1584 C1586 1.381 . S
C1584 C1590 1.383 . S
C1585 C1581 1.495 . S
C1585 H1591 0.959 . S
C1585 H1592 0.961 . S
C1585 H1593 0.960 . S
C1586 C1584 1.381 . S
C1586 C1587 1.394 . S
C1586 H1594 0.930 . S
C1587 C1586 1.394 . S
C1587 C1588 1.383 . S
C1587 H1595 0.929 . S
C1588 C1587 1.383 . S
C1588 C1589 1.377 . S
C1589 H1573 0.930 . S
C1589 C1588 1.377 . S
C1589 C1590 1.379 . S
C1590 H1574 0.931 . S
C1590 C1584 1.383 . S
C1590 C1589 1.379 . S
H1591 C1585 0.959 . S
H1592 C1585 0.961 . S
H1593 C1585 0.960 . S
H1594 C1586 0.930 . S
H1595 C1587 0.929 . S
H1596 C1604 0.929 . S
H1597 C1606 0.930 . S
H1598 C1608 0.930 . S
H1599 C1611 0.929 . S
H1600 C1614 0.930 . S
H1601 C1616 0.960 . S
H1602 C1616 0.960 . S
H1603 C1616 0.960 . S
C1604 H1596 0.929 . S
C1604 C1605 1.377 1_556 S
C1604 C1606 1.384 . S
C1605 C1604 1.377 1_554 S
C1605 C1611 1.390 . S
C1606 H1597 0.930 . S
C1606 C1604 1.384 . S
C1606 C1607 1.372 1_556 S
C1607 C1606 1.372 1_554 S
C1607 C1608 1.400 . S
C1607 C1612 1.480 1_554 S
C1608 H1598 0.930 . S
C1608 C1607 1.400 . S
C1608 C1611 1.386 . S
H1609 C1625 0.930 . S
H1610 C1626 0.931 . S
C1611 H1599 0.929 . S
C1611 C1605 1.390 . S
C1611 C1608 1.386 . S
C1612 C1607 1.480 1_556 S
C1612 C1614 1.421 . S
C1612 C1615 1.389 1_556 S
H1613 C1619 0.930 . S
C1614 H1600 0.930 . S
C1614 C1612 1.421 . S
C1614 C1617 1.403 . S
C1615 C1612 1.389 1_554 S
C1615 C1616 1.524 . S
C1615 C1619 1.400 . S
C1616 H1601 0.960 . S
C1616 H1602 0.960 . S
C1616 H1603 0.960 . S
C1616 C1615 1.524 . S
C1617 C1614 1.403 . S
C1617 C1618 1.392 . S
C1617 C1621 1.495 . S
C1618 C1617 1.392 . S
C1618 C1619 1.385 1_556 S
C1618 C1620 1.478 . S
C1619 H1613 0.930 . S
C1619 C1615 1.400 . S
C1619 C1618 1.385 1_554 S
C1620 C1618 1.478 . S
C1620 C1622 1.381 . S
C1620 C1626 1.383 1_556 S
C1621 C1617 1.495 . S
C1621 H1627 0.959 . S
C1621 H1628 0.961 . S
C1621 H1629 0.960 . S
C1622 C1620 1.381 . S
C1622 C1623 1.394 . S
C1622 H1630 0.930 . S
C1623 C1622 1.394 . S
C1623 C1624 1.383 . S
C1623 H1631 0.929 . S
C1624 C1623 1.383 . S
C1624 C1625 1.377 1_556 S
C1625 H1609 0.930 . S
C1625 C1624 1.377 1_554 S
C1625 C1626 1.379 . S
C1626 H1610 0.931 . S
C1626 C1620 1.383 1_554 S
C1626 C1625 1.379 . S
H1627 C1621 0.959 . S
H1628 C1621 0.961 . S
H1629 C1621 0.960 . S
H1630 C1622 0.930 . S
H1631 C1623 0.929 . S
H1632 C1640 0.929 . S
H1633 C1642 0.930 . S
H1634 C1644 0.930 . S
H1635 C1647 0.929 . S
H1636 C1650 0.930 . S
H1637 C1652 0.960 . S
H1638 C1652 0.960 . S
H1639 C1652 0.960 . S
C1640 H1632 0.929 . S
C1640 C1641 1.377 . S
C1640 C1642 1.384 . S
C1641 C1640 1.377 . S
C1641 C1647 1.390 . S
C1642 H1633 0.930 . S
C1642 C1640 1.384 . S
C1642 C1643 1.372 . S
C1643 C1642 1.372 . S
C1643 C1644 1.400 . S
C1643 C1648 1.490 . S
C1644 H1634 0.930 . S
C1644 C1643 1.400 . S
C1644 C1647 1.386 . S
H1645 C1661 0.930 . S
H1646 C1662 0.931 . S
C1647 H1635 0.929 . S
C1647 C1641 1.390 . S
C1647 C1644 1.386 . S
C1648 C1643 1.490 . S
C1648 C1650 1.395 . S
C1648 C1651 1.403 . S
H1649 C1655 0.930 . S
C1650 H1636 0.930 . S
C1650 C1648 1.395 . S
C1650 C1653 1.403 . S
C1651 C1648 1.403 . S
C1651 C1652 1.524 . S
C1651 C1655 1.400 . S
C1652 H1637 0.960 . S
C1652 H1638 0.960 . S
C1652 H1639 0.960 . S
C1652 C1651 1.524 . S
C1653 C1650 1.403 . S
C1653 C1654 1.392 . S
C1653 C1657 1.495 . S
C1654 C1653 1.392 . S
C1654 C1655 1.385 . S
C1654 C1656 1.478 . S
C1655 H1649 0.930 . S
C1655 C1651 1.400 . S
C1655 C1654 1.385 . S
C1656 C1654 1.478 . S
C1656 C1658 1.381 . S
C1656 C1662 1.383 . S
C1657 C1653 1.495 . S
C1657 H1663 0.959 . S
C1657 H1664 0.961 . S
C1657 H1665 0.960 . S
C1658 C1656 1.381 . S
C1658 C1659 1.397 . S
C1658 H1666 0.930 . S
C1659 C1658 1.397 . S
C1659 C1660 1.382 1_655 S
C1659 H1667 0.927 1_655 S
C1660 C1659 1.382 1_455 S
C1660 C1661 1.377 1_455 S
C1661 H1645 0.930 . S
C1661 C1660 1.377 1_655 S
C1661 C1662 1.379 . S
C1662 H1646 0.931 . S
C1662 C1656 1.383 . S
C1662 C1661 1.379 . S
H1663 C1657 0.959 . S
H1664 C1657 0.961 . S
H1665 C1657 0.960 . S
H1666 C1658 0.930 . S
H1667 C1659 0.927 1_455 S
H1668 C1676 0.929 . S
H1669 C1678 0.930 . S
H1670 C1680 0.930 . S
H1671 C1683 0.929 . S
H1672 C1686 0.930 . S
H1673 C1688 0.960 . S
H1674 C1688 0.960 . S
H1675 C1688 0.960 . S
C1676 H1668 0.929 . S
C1676 C1677 1.377 . S
C1676 C1678 1.384 . S
C1677 C1676 1.377 . S
C1677 C1683 1.390 . S
C1678 H1669 0.930 . S
C1678 C1676 1.384 . S
C1678 C1679 1.372 . S
C1679 C1678 1.372 . S
C1679 C1680 1.400 . S
C1679 C1684 1.490 . S
C1680 H1670 0.930 . S
C1680 C1679 1.400 . S
C1680 C1683 1.386 . S
H1681 C1697 0.930 . S
H1682 C1698 0.931 . S
C1683 H1671 0.929 . S
C1683 C1677 1.390 . S
C1683 C1680 1.386 . S
C1684 C1679 1.490 . S
C1684 C1686 1.395 . S
C1684 C1687 1.403 . S
H1685 C1691 0.930 . S
C1686 H1672 0.930 . S
C1686 C1684 1.395 . S
C1686 C1689 1.403 . S
C1687 C1684 1.403 . S
C1687 C1688 1.524 . S
C1687 C1691 1.400 . S
C1688 H1673 0.960 . S
C1688 H1674 0.960 . S
C1688 H1675 0.960 . S
C1688 C1687 1.524 . S
C1689 C1686 1.403 . S
C1689 C1690 1.392 . S
C1689 C1693 1.495 . S
C1690 C1689 1.392 . S
C1690 C1691 1.385 . S
C1690 C1692 1.478 . S
C1691 H1685 0.930 . S
C1691 C1687 1.400 . S
C1691 C1690 1.385 . S
C1692 C1690 1.478 . S
C1692 C1694 1.381 . S
C1692 C1698 1.383 . S
C1693 C1689 1.495 . S
C1693 H1699 0.959 . S
C1693 H1700 0.961 . S
C1693 H1701 0.960 . S
C1694 C1692 1.381 . S
C1694 C1695 1.394 . S
C1694 H1702 0.930 . S
C1695 C1694 1.394 . S
C1695 C1696 1.383 . S
C1695 H1703 0.929 . S
C1696 C1695 1.383 . S
C1696 C1697 1.377 . S
C1697 H1681 0.930 . S
C1697 C1696 1.377 . S
C1697 C1698 1.379 . S
C1698 H1682 0.931 . S
C1698 C1692 1.383 . S
C1698 C1697 1.379 . S
H1699 C1693 0.959 . S
H1700 C1693 0.961 . S
H1701 C1693 0.960 . S
H1702 C1694 0.930 . S
H1703 C1695 0.929 . S
H1704 C1712 0.929 . S
H1705 C1714 0.930 . S
H1706 C1716 0.930 . S
H1707 C1719 0.929 1_655 S
H1708 C1722 0.930 . S
H1709 C1724 0.960 . S
H1710 C1724 0.960 . S
H1711 C1724 0.960 . S
C1712 H1704 0.929 . S
C1712 C1713 1.377 . S
C1712 C1714 1.384 . S
C1713 C1712 1.377 . S
C1713 C1719 1.390 . S
C1714 H1705 0.930 . S
C1714 C1712 1.384 . S
C1714 C1715 1.372 . S
C1715 C1714 1.372 . S
C1715 C1716 1.400 1_455 S
C1715 C1720 1.490 . S
C1716 H1706 0.930 . S
C1716 C1715 1.400 1_655 S
C1716 C1719 1.386 1_655 S
H1717 C1733 0.930 . S
H1718 C1734 0.931 . S
C1719 H1707 0.929 1_455 S
C1719 C1713 1.390 . S
C1719 C1716 1.386 1_455 S
C1720 C1715 1.490 . S
C1720 C1722 1.395 . S
C1720 C1723 1.403 1_455 S
H1721 C1727 0.930 . S
C1722 H1708 0.930 . S
C1722 C1720 1.395 . S
C1722 C1725 1.403 . S
C1723 C1720 1.403 1_655 S
C1723 C1724 1.524 . S
C1723 C1727 1.400 . S
C1724 H1709 0.960 . S
C1724 H1710 0.960 . S
C1724 H1711 0.960 . S
C1724 C1723 1.524 . S
C1725 C1722 1.403 . S
C1725 C1726 1.392 1_455 S
C1725 C1729 1.495 . S
C1726 C1725 1.392 1_655 S
C1726 C1727 1.385 . S
C1726 C1728 1.478 . S
C1727 H1721 0.930 . S
C1727 C1723 1.400 . S
C1727 C1726 1.385 . S
C1728 C1726 1.478 . S
C1728 C1730 1.381 . S
C1728 C1734 1.383 . S
C1729 C1725 1.495 . S
C1729 H1735 0.959 . S
C1729 H1736 0.961 . S
C1729 H1737 0.960 . S
C1730 C1728 1.381 . S
C1730 C1731 1.394 . S
C1730 H1738 0.924 1_655 S
C1731 C1730 1.394 . S
C1731 C1732 1.383 . S
C1731 H1739 0.929 . S
C1732 C1731 1.383 . S
C1732 C1733 1.377 . S
C1733 H1717 0.930 . S
C1733 C1732 1.377 . S
C1733 C1734 1.379 . S
C1734 H1718 0.931 . S
C1734 C1728 1.383 . S
C1734 C1733 1.379 . S
H1735 C1729 0.959 . S
H1736 C1729 0.961 . S
H1737 C1729 0.960 . S
H1738 C1730 0.924 1_455 S
H1739 C1731 0.929 . S
H1740 C1748 0.929 1_655 S
H1741 C1750 0.930 1_655 S
H1742 C1752 0.930 . S
H1743 C1755 0.929 . S
H1744 C1758 0.930 . S
H1745 C1760 0.960 . S
H1746 C1760 0.960 . S
H1747 C1760 0.960 . S
C1748 H1740 0.929 1_455 S
C1748 C1749 1.377 . S
C1748 C1750 1.384 . S
C1749 C1748 1.377 . S
C1749 C1755 1.390 . S
C1750 H1741 0.930 1_455 S
C1750 C1748 1.384 . S
C1750 C1751 1.372 . S
C1751 C1750 1.372 . S
C1751 C1752 1.400 . S
C1751 C1756 1.490 . S
C1752 H1742 0.930 . S
C1752 C1751 1.400 . S
C1752 C1755 1.386 . S
H1753 C1769 0.930 . S
H1754 C1770 0.931 . S
C1755 H1743 0.929 . S
C1755 C1749 1.390 . S
C1755 C1752 1.386 . S
C1756 C1751 1.490 . S
C1756 C1758 1.395 . S
C1756 C1759 1.403 . S
H1757 C1763 0.930 . S
C1758 H1744 0.930 . S
C1758 C1756 1.395 . S
C1758 C1761 1.403 . S
C1759 C1756 1.403 . S
C1759 C1760 1.524 . S
C1759 C1763 1.400 . S
C1760 H1745 0.960 . S
C1760 H1746 0.960 . S
C1760 H1747 0.960 . S
C1760 C1759 1.524 . S
C1761 C1758 1.403 . S
C1761 C1762 1.392 . S
C1761 C1765 1.495 . S
C1762 C1761 1.392 . S
C1762 C1763 1.385 . S
C1762 C1764 1.478 . S
C1763 H1757 0.930 . S
C1763 C1759 1.400 . S
C1763 C1762 1.385 . S
C1764 C1762 1.478 . S
C1764 C1766 1.381 . S
C1764 C1770 1.383 . S
C1765 C1761 1.495 . S
C1765 H1771 0.959 . S
C1765 H1772 0.961 . S
C1765 H1773 0.952 1_455 S
C1766 C1764 1.381 . S
C1766 C1767 1.394 . S
C1766 H1774 0.930 1_455 S
C1767 C1766 1.394 . S
C1767 C1768 1.383 . S
C1767 H1775 0.929 1_455 S
C1768 C1767 1.383 . S
C1768 C1769 1.377 . S
C1769 H1753 0.930 . S
C1769 C1768 1.377 . S
C1769 C1770 1.379 . S
C1770 H1754 0.931 . S
C1770 C1764 1.383 . S
C1770 C1769 1.379 . S
H1771 C1765 0.959 . S
H1772 C1765 0.961 . S
H1773 C1765 0.952 1_655 S
H1774 C1766 0.930 1_655 S
H1775 C1767 0.929 1_655 S
H1776 C1784 0.929 . S
H1777 C1786 0.930 . S
H1778 C1788 0.930 . S
H1779 C1791 0.929 . S
H1780 C1794 0.930 . S
H1781 C1796 0.954 1_455 S
H1782 C1796 0.913 1_455 S
H1783 C1796 0.991 . S
C1784 H1776 0.929 . S
C1784 C1785 1.377 1_455 S
C1784 C1786 1.384 . S
C1785 C1784 1.377 1_655 S
C1785 C1791 1.390 . S
C1786 H1777 0.930 . S
C1786 C1784 1.384 . S
C1786 C1787 1.372 1_455 S
C1787 C1786 1.372 1_655 S
C1787 C1788 1.400 . S
C1787 C1792 1.490 . S
C1788 H1778 0.930 . S
C1788 C1787 1.400 . S
C1788 C1791 1.386 . S
H1789 C1805 0.930 . S
H1790 C1806 0.931 . S
C1791 H1779 0.929 . S
C1791 C1785 1.390 . S
C1791 C1788 1.386 . S
C1792 C1787 1.490 . S
C1792 C1794 1.395 . S
C1792 C1795 1.403 . S
H1793 C1799 0.930 . S
C1794 H1780 0.930 . S
C1794 C1792 1.395 . S
C1794 C1797 1.403 . S
C1795 C1792 1.403 . S
C1795 C1796 1.550 . S
C1795 C1799 1.400 . S
C1796 H1781 0.954 1_655 S
C1796 H1782 0.913 1_655 S
C1796 H1783 0.991 . S
C1796 C1795 1.550 . S
C1797 C1794 1.403 . S
C1797 C1798 1.392 . S
C1797 C1801 1.495 . S
C1798 C1797 1.392 . S
C1798 C1799 1.385 . S
C1798 C1800 1.478 . S
C1799 H1793 0.930 . S
C1799 C1795 1.400 . S
C1799 C1798 1.385 . S
C1800 C1798 1.478 . S
C1800 C1802 1.381 . S
C1800 C1806 1.383 . S
C1801 C1797 1.495 . S
C1801 H1807 0.959 . S
C1801 H1808 0.961 . S
C1801 H1809 0.960 . S
C1802 C1800 1.381 . S
C1802 C1803 1.394 . S
C1802 H1810 0.930 . S
C1803 C1802 1.394 . S
C1803 C1804 1.383 . S
C1803 H1811 0.929 . S
C1804 C1803 1.383 . S
C1804 C1805 1.377 . S
C1805 H1789 0.930 . S
C1805 C1804 1.377 . S
C1805 C1806 1.379 . S
C1806 H1790 0.931 . S
C1806 C1800 1.383 . S
C1806 C1805 1.379 . S
H1807 C1801 0.959 . S
H1808 C1801 0.961 . S
H1809 C1801 0.960 . S
H1810 C1802 0.930 . S
H1811 C1803 0.929 . S
H1812 C1820 0.929 . S
H1813 C1822 0.930 . S
H1814 C1824 0.930 . S
H1815 C1827 0.929 1_565 S
H1816 C1830 0.930 . S
H1817 C1832 0.960 . S
H1818 C1832 0.960 . S
H1819 C1832 0.960 . S
C1820 H1812 0.929 . S
C1820 C1821 1.377 . S
C1820 C1822 1.384 . S
C1821 C1820 1.377 . S
C1821 C1827 1.390 . S
C1822 H1813 0.930 . S
C1822 C1820 1.384 . S
C1822 C1823 1.372 . S
C1823 C1822 1.372 . S
C1823 C1824 1.400 . S
C1823 C1828 1.490 . S
C1824 H1814 0.930 . S
C1824 C1823 1.400 . S
C1824 C1827 1.386 . S
H1825 C1841 0.930 . S
H1826 C1842 0.931 . S
C1827 H1815 0.929 1_545 S
C1827 C1821 1.390 . S
C1827 C1824 1.386 . S
C1828 C1823 1.490 . S
C1828 C1830 1.395 . S
C1828 C1831 1.403 . S
H1829 C1835 0.930 . S
C1830 H1816 0.930 . S
C1830 C1828 1.395 . S
C1830 C1833 1.403 . S
C1831 C1828 1.403 . S
C1831 C1832 1.524 . S
C1831 C1835 1.400 . S
C1832 H1817 0.960 . S
C1832 H1818 0.960 . S
C1832 H1819 0.960 . S
C1832 C1831 1.524 . S
C1833 C1830 1.403 . S
C1833 C1834 1.392 . S
C1833 C1837 1.495 . S
C1834 C1833 1.392 . S
C1834 C1835 1.385 . S
C1834 C1836 1.478 . S
C1835 H1829 0.930 . S
C1835 C1831 1.400 . S
C1835 C1834 1.385 . S
C1836 C1834 1.478 . S
C1836 C1838 1.381 . S
C1836 C1842 1.383 . S
C1837 C1833 1.495 . S
C1837 H1843 0.959 . S
C1837 H1844 0.961 . S
C1837 H1845 0.960 . S
C1838 C1836 1.381 . S
C1838 C1839 1.394 . S
C1838 H1846 0.930 . S
C1839 C1838 1.394 . S
C1839 C1840 1.383 . S
C1839 H1847 0.929 . S
C1840 C1839 1.383 . S
C1840 C1841 1.377 . S
C1841 H1825 0.930 . S
C1841 C1840 1.377 . S
C1841 C1842 1.379 . S
C1842 H1826 0.931 . S
C1842 C1836 1.383 . S
C1842 C1841 1.379 . S
H1843 C1837 0.959 . S
H1844 C1837 0.961 . S
H1845 C1837 0.960 . S
H1846 C1838 0.930 . S
H1847 C1839 0.929 . S
H1848 C1856 0.929 . S
H1849 C1858 0.930 . S
H1850 C1860 0.930 . S
H1851 C1863 0.929 . S
H1852 C1866 0.930 . S
H1853 C1868 0.960 . S
H1854 C1868 0.960 . S
H1855 C1868 0.960 . S
C1856 H1848 0.929 . S
C1856 C1857 1.377 . S
C1856 C1858 1.384 . S
C1857 C1856 1.377 . S
C1857 C1863 1.390 . S
C1858 H1849 0.930 . S
C1858 C1856 1.384 . S
C1858 C1859 1.372 . S
C1859 C1858 1.372 . S
C1859 C1860 1.400 . S
C1859 C1864 1.490 . S
C1860 H1850 0.930 . S
C1860 C1859 1.400 . S
C1860 C1863 1.386 . S
H1861 C1877 0.930 . S
H1862 C1878 0.931 . S
C1863 H1851 0.929 . S
C1863 C1857 1.390 . S
C1863 C1860 1.386 . S
C1864 C1859 1.490 . S
C1864 C1866 1.395 . S
C1864 C1867 1.403 . S
H1865 C1871 0.930 . S
C1866 H1852 0.930 . S
C1866 C1864 1.395 . S
C1866 C1869 1.403 . S
C1867 C1864 1.403 . S
C1867 C1868 1.524 . S
C1867 C1871 1.400 . S
C1868 H1853 0.960 . S
C1868 H1854 0.960 . S
C1868 H1855 0.960 . S
C1868 C1867 1.524 . S
C1869 C1866 1.403 . S
C1869 C1870 1.392 . S
C1869 C1873 1.495 . S
C1870 C1869 1.392 . S
C1870 C1871 1.385 . S
C1870 C1872 1.478 . S
C1871 H1865 0.930 . S
C1871 C1867 1.400 . S
C1871 C1870 1.385 . S
C1872 C1870 1.478 . S
C1872 C1874 1.381 . S
C1872 C1878 1.383 . S
C1873 C1869 1.495 . S
C1873 H1879 0.959 . S
C1873 H1880 0.961 . S
C1873 H1881 0.960 . S
C1874 C1872 1.381 . S
C1874 C1875 1.394 . S
C1874 H1882 0.930 . S
C1875 C1874 1.394 . S
C1875 C1876 1.383 . S
C1875 H1883 0.929 . S
C1876 C1875 1.383 . S
C1876 C1877 1.377 . S
C1877 H1861 0.930 . S
C1877 C1876 1.377 . S
C1877 C1878 1.379 . S
C1878 H1862 0.931 . S
C1878 C1872 1.383 . S
C1878 C1877 1.379 . S
H1879 C1873 0.959 . S
H1880 C1873 0.961 . S
H1881 C1873 0.960 . S
H1882 C1874 0.930 . S
H1883 C1875 0.929 . S
H1884 C1892 0.929 . S
H1885 C1894 0.930 . S
H1886 C1896 0.930 . S
H1887 C1899 0.929 . S
H1888 C1902 0.930 . S
H1889 C1904 0.960 . S
H1890 C1904 0.950 1_545 S
H1891 C1904 0.960 . S
C1892 H1884 0.929 . S
C1892 C1893 1.377 1_545 S
C1892 C1894 1.384 . S
C1893 C1892 1.377 1_565 S
C1893 C1899 1.390 . S
C1894 H1885 0.930 . S
C1894 C1892 1.384 . S
C1894 C1895 1.372 1_545 S
C1895 C1894 1.372 1_565 S
C1895 C1896 1.400 . S
C1895 C1900 1.490 . S
C1896 H1886 0.930 . S
C1896 C1895 1.400 . S
C1896 C1899 1.386 . S
H1897 C1913 0.930 . S
H1898 C1914 0.931 . S
C1899 H1887 0.929 . S
C1899 C1893 1.390 . S
C1899 C1896 1.386 . S
C1900 C1895 1.490 . S
C1900 C1902 1.395 . S
C1900 C1903 1.403 . S
H1901 C1907 0.930 . S
C1902 H1888 0.930 . S
C1902 C1900 1.395 . S
C1902 C1905 1.403 . S
C1903 C1900 1.403 . S
C1903 C1904 1.524 . S
C1903 C1907 1.400 . S
C1904 H1889 0.960 . S
C1904 H1890 0.950 1_565 S
C1904 H1891 0.960 . S
C1904 C1903 1.524 . S
C1905 C1902 1.403 . S
C1905 C1906 1.392 . S
C1905 C1909 1.495 . S
C1906 C1905 1.392 . S
C1906 C1907 1.385 . S
C1906 C1908 1.478 . S
C1907 H1901 0.930 . S
C1907 C1903 1.400 . S
C1907 C1906 1.385 . S
C1908 C1906 1.478 . S
C1908 C1910 1.381 . S
C1908 C1914 1.383 . S
C1909 C1905 1.495 . S
C1909 H1915 0.959 . S
C1909 H1916 0.961 . S
C1909 H1917 0.960 . S
C1910 C1908 1.381 . S
C1910 C1911 1.394 . S
C1910 H1918 0.930 . S
C1911 C1910 1.394 . S
C1911 C1912 1.383 . S
C1911 H1919 0.929 . S
C1912 C1911 1.383 . S
C1912 C1913 1.377 . S
C1913 H1897 0.930 . S
C1913 C1912 1.377 . S
C1913 C1914 1.379 . S
C1914 H1898 0.931 . S
C1914 C1908 1.383 . S
C1914 C1913 1.379 . S
H1915 C1909 0.959 . S
H1916 C1909 0.961 . S
H1917 C1909 0.960 . S
H1918 C1910 0.930 . S
H1919 C1911 0.929 . S
H1920 C1928 0.929 . S
H1921 C1930 0.930 . S
H1922 C1932 0.930 . S
H1923 C1935 0.929 . S
H1924 C1938 0.930 . S
H1925 C1940 0.960 . S
H1926 C1940 0.960 . S
H1927 C1940 0.960 . S
C1928 H1920 0.929 . S
C1928 C1929 1.377 . S
C1928 C1930 1.384 . S
C1929 C1928 1.377 . S
C1929 C1935 1.390 . S
C1930 H1921 0.930 . S
C1930 C1928 1.384 . S
C1930 C1931 1.372 . S
C1931 C1930 1.372 . S
C1931 C1932 1.400 . S
C1931 C1936 1.490 . S
C1932 H1922 0.930 . S
C1932 C1931 1.400 . S
C1932 C1935 1.386 . S
H1933 C1949 0.930 . S
H1934 C1950 0.931 . S
C1935 H1923 0.929 . S
C1935 C1929 1.390 . S
C1935 C1932 1.386 . S
C1936 C1931 1.490 . S
C1936 C1938 1.395 . S
C1936 C1939 1.403 . S
H1937 C1943 0.930 . S
C1938 H1924 0.930 . S
C1938 C1936 1.395 . S
C1938 C1941 1.403 . S
C1939 C1936 1.403 . S
C1939 C1940 1.524 . S
C1939 C1943 1.400 . S
C1940 H1925 0.960 . S
C1940 H1926 0.960 . S
C1940 H1927 0.960 . S
C1940 C1939 1.524 . S
C1941 C1938 1.403 . S
C1941 C1942 1.392 . S
C1941 C1945 1.495 . S
C1942 C1941 1.392 . S
C1942 C1943 1.385 . S
C1942 C1944 1.478 . S
C1943 H1937 0.930 . S
C1943 C1939 1.400 . S
C1943 C1942 1.385 . S
C1944 C1942 1.478 . S
C1944 C1946 1.381 . S
C1944 C1950 1.383 . S
C1945 C1941 1.495 . S
C1945 H1951 0.959 . S
C1945 H1952 0.961 . S
C1945 H1953 0.960 . S
C1946 C1944 1.381 . S
C1946 C1947 1.394 . S
C1946 H1954 0.930 . S
C1947 C1946 1.394 . S
C1947 C1948 1.383 . S
C1947 H1955 0.929 . S
C1948 C1947 1.383 . S
C1948 C1949 1.377 . S
C1949 H1933 0.930 . S
C1949 C1948 1.377 . S
C1949 C1950 1.379 . S
C1950 H1934 0.931 . S
C1950 C1944 1.383 . S
C1950 C1949 1.379 . S
H1951 C1945 0.959 . S
H1952 C1945 0.961 . S
H1953 C1945 0.960 . S
H1954 C1946 0.930 . S
H1955 C1947 0.929 . S
H1956 C1964 0.929 . S
H1957 C1966 0.930 . S
H1958 C1968 0.930 . S
H1959 C1971 0.929 . S
H1960 C1974 0.930 . S
H1961 C1976 0.960 . S
H1962 C1976 0.960 . S
H1963 C1976 0.960 . S
C1964 H1956 0.929 . S
C1964 C1965 1.377 . S
C1964 C1966 1.384 . S
C1965 C1964 1.377 . S
C1965 C1971 1.390 . S
C1966 H1957 0.930 . S
C1966 C1964 1.384 . S
C1966 C1967 1.372 . S
C1967 C1966 1.372 . S
C1967 C1968 1.400 . S
C1967 C1972 1.490 . S
C1968 H1958 0.930 . S
C1968 C1967 1.400 . S
C1968 C1971 1.386 . S
H1969 C1985 0.930 . S
H1970 C1986 0.931 . S
C1971 H1959 0.929 . S
C1971 C1965 1.390 . S
C1971 C1968 1.386 . S
C1972 C1967 1.490 . S
C1972 C1974 1.395 . S
C1972 C1975 1.403 . S
H1973 C1979 0.930 . S
C1974 H1960 0.930 . S
C1974 C1972 1.395 . S
C1974 C1977 1.403 . S
C1975 C1972 1.403 . S
C1975 C1976 1.524 . S
C1975 C1979 1.400 . S
C1976 H1961 0.960 . S
C1976 H1962 0.960 . S
C1976 H1963 0.960 . S
C1976 C1975 1.524 . S
C1977 C1974 1.403 . S
C1977 C1978 1.392 . S
C1977 C1981 1.495 . S
C1978 C1977 1.392 . S
C1978 C1979 1.385 . S
C1978 C1980 1.478 . S
C1979 H1973 0.930 . S
C1979 C1975 1.400 . S
C1979 C1978 1.385 . S
C1980 C1978 1.478 . S
C1980 C1982 1.381 . S
C1980 C1986 1.383 . S
C1981 C1977 1.495 . S
C1981 H1987 0.959 . S
C1981 H1988 0.961 . S
C1981 H1989 0.960 . S
C1982 C1980 1.381 . S
C1982 C1983 1.394 . S
C1982 H1990 0.930 . S
C1983 C1982 1.394 . S
C1983 C1984 1.383 . S
C1983 H1991 0.929 . S
C1984 C1983 1.383 . S
C1984 C1985 1.377 . S
C1985 H1969 0.930 . S
C1985 C1984 1.377 . S
C1985 C1986 1.379 . S
C1986 H1970 0.931 . S
C1986 C1980 1.383 . S
C1986 C1985 1.379 . S
H1987 C1981 0.959 . S
H1988 C1981 0.961 . S
H1989 C1981 0.960 . S
H1990 C1982 0.930 . S
H1991 C1983 0.929 . S
H1992 C2000 0.929 . S
H1993 C2002 0.930 . S
H1994 C2004 0.930 . S
H1995 C2007 0.929 . S
H1996 C2010 0.930 . S
H1997 C2012 0.960 . S
H1998 C2012 0.960 . S
H1999 C2012 0.960 . S
C2000 H1992 0.929 . S
C2000 C2001 1.377 . S
C2000 C2002 1.384 . S
C2001 C2000 1.377 . S
C2001 C2007 1.390 . S
C2002 H1993 0.930 . S
C2002 C2000 1.384 . S
C2002 C2003 1.372 . S
C2003 C2002 1.372 . S
C2003 C2004 1.400 . S
C2003 C2008 1.490 . S
C2004 H1994 0.930 . S
C2004 C2003 1.400 . S
C2004 C2007 1.386 . S
H2005 C2021 0.930 . S
H2006 C2022 0.931 . S
C2007 H1995 0.929 . S
C2007 C2001 1.390 . S
C2007 C2004 1.386 . S
C2008 C2003 1.490 . S
C2008 C2010 1.395 . S
C2008 C2011 1.403 . S
H2009 C2015 0.930 . S
C2010 H1996 0.930 . S
C2010 C2008 1.395 . S
C2010 C2013 1.403 . S
C2011 C2008 1.403 . S
C2011 C2012 1.524 . S
C2011 C2015 1.400 . S
C2012 H1997 0.960 . S
C2012 H1998 0.960 . S
C2012 H1999 0.960 . S
C2012 C2011 1.524 . S
C2013 C2010 1.403 . S
C2013 C2014 1.392 . S
C2013 C2017 1.495 . S
C2014 C2013 1.392 . S
C2014 C2015 1.385 . S
C2014 C2016 1.478 . S
C2015 H2009 0.930 . S
C2015 C2011 1.400 . S
C2015 C2014 1.385 . S
C2016 C2014 1.478 . S
C2016 C2018 1.381 . S
C2016 C2022 1.383 . S
C2017 C2013 1.495 . S
C2017 H2023 0.959 . S
C2017 H2024 0.961 . S
C2017 H2025 0.960 . S
C2018 C2016 1.381 . S
C2018 C2019 1.394 . S
C2018 H2026 0.930 . S
C2019 C2018 1.394 . S
C2019 C2020 1.383 . S
C2019 H2027 0.929 . S
C2020 C2019 1.383 . S
C2020 C2021 1.377 . S
C2021 H2005 0.930 . S
C2021 C2020 1.377 . S
C2021 C2022 1.379 . S
C2022 H2006 0.931 . S
C2022 C2016 1.383 . S
C2022 C2021 1.379 . S
H2023 C2017 0.959 . S
H2024 C2017 0.961 . S
H2025 C2017 0.960 . S
H2026 C2018 0.930 . S
H2027 C2019 0.929 . S
H2028 C2036 0.929 . S
H2029 C2038 0.930 . S
H2030 C2040 0.930 . S
H2031 C2043 0.929 . S
H2032 C2046 0.930 . S
H2033 C2048 0.960 . S
H2034 C2048 0.960 . S
H2035 C2048 0.960 . S
C2036 H2028 0.929 . S
C2036 C2037 1.377 . S
C2036 C2038 1.384 . S
C2037 C2036 1.377 . S
C2037 C2043 1.390 . S
C2038 H2029 0.930 . S
C2038 C2036 1.384 . S
C2038 C2039 1.372 . S
C2039 C2038 1.372 . S
C2039 C2040 1.400 . S
C2039 C2044 1.490 . S
C2040 H2030 0.930 . S
C2040 C2039 1.400 . S
C2040 C2043 1.386 . S
H2041 C2057 0.930 . S
H2042 C2058 0.931 . S
C2043 H2031 0.929 . S
C2043 C2037 1.390 . S
C2043 C2040 1.386 . S
C2044 C2039 1.490 . S
C2044 C2046 1.395 . S
C2044 C2047 1.403 . S
H2045 C2051 0.930 . S
C2046 H2032 0.930 . S
C2046 C2044 1.395 . S
C2046 C2049 1.403 . S
C2047 C2044 1.403 . S
C2047 C2048 1.524 . S
C2047 C2051 1.400 . S
C2048 H2033 0.960 . S
C2048 H2034 0.960 . S
C2048 H2035 0.960 . S
C2048 C2047 1.524 . S
C2049 C2046 1.403 . S
C2049 C2050 1.392 . S
C2049 C2053 1.495 . S
C2050 C2049 1.392 . S
C2050 C2051 1.385 . S
C2050 C2052 1.478 . S
C2051 H2045 0.930 . S
C2051 C2047 1.400 . S
C2051 C2050 1.385 . S
C2052 C2050 1.478 . S
C2052 C2054 1.381 . S
C2052 C2058 1.383 . S
C2053 C2049 1.495 . S
C2053 H2059 0.959 . S
C2053 H2060 0.961 . S
C2053 H2061 0.960 . S
C2054 C2052 1.381 . S
C2054 C2055 1.394 . S
C2054 H2062 0.930 . S
C2055 C2054 1.394 . S
C2055 C2056 1.383 . S
C2055 H2063 0.929 . S
C2056 C2055 1.383 . S
C2056 C2057 1.377 . S
C2057 H2041 0.930 . S
C2057 C2056 1.377 . S
C2057 C2058 1.379 . S
C2058 H2042 0.931 . S
C2058 C2052 1.383 . S
C2058 C2057 1.379 . S
H2059 C2053 0.959 . S
H2060 C2053 0.961 . S
H2061 C2053 0.960 . S
H2062 C2054 0.930 . S
H2063 C2055 0.929 . S
H2064 C2072 0.929 . S
H2065 C2074 0.930 . S
H2066 C2076 0.930 . S
H2067 C2079 0.929 . S
H2068 C2082 0.930 . S
H2069 C2084 0.960 . S
H2070 C2084 0.960 . S
H2071 C2084 0.960 . S
C2072 H2064 0.929 . S
C2072 C2073 1.377 . S
C2072 C2074 1.384 . S
C2073 C2072 1.377 . S
C2073 C2079 1.390 . S
C2074 H2065 0.930 . S
C2074 C2072 1.384 . S
C2074 C2075 1.372 . S
C2075 C2074 1.372 . S
C2075 C2076 1.400 . S
C2075 C2080 1.490 . S
C2076 H2066 0.930 . S
C2076 C2075 1.400 . S
C2076 C2079 1.386 . S
H2077 C2093 0.930 . S
H2078 C2094 0.931 . S
C2079 H2067 0.929 . S
C2079 C2073 1.390 . S
C2079 C2076 1.386 . S
C2080 C2075 1.490 . S
C2080 C2082 1.395 . S
C2080 C2083 1.403 . S
H2081 C2087 0.930 . S
C2082 H2068 0.930 . S
C2082 C2080 1.395 . S
C2082 C2085 1.403 . S
C2083 C2080 1.403 . S
C2083 C2084 1.524 . S
C2083 C2087 1.400 . S
C2084 H2069 0.960 . S
C2084 H2070 0.960 . S
C2084 H2071 0.960 . S
C2084 C2083 1.524 . S
C2085 C2082 1.403 . S
C2085 C2086 1.392 . S
C2085 C2089 1.495 . S
C2086 C2085 1.392 . S
C2086 C2087 1.385 . S
C2086 C2088 1.478 . S
C2087 H2081 0.930 . S
C2087 C2083 1.400 . S
C2087 C2086 1.385 . S
C2088 C2086 1.478 . S
C2088 C2090 1.381 . S
C2088 C2094 1.383 . S
C2089 C2085 1.495 . S
C2089 H2095 0.959 . S
C2089 H2096 0.961 . S
C2089 H2097 0.960 . S
C2090 C2088 1.381 . S
C2090 C2091 1.394 . S
C2090 H2098 0.930 . S
C2091 C2090 1.394 . S
C2091 C2092 1.383 . S
C2091 H2099 0.929 . S
C2092 C2091 1.383 . S
C2092 C2093 1.377 . S
C2093 H2077 0.930 . S
C2093 C2092 1.377 . S
C2093 C2094 1.379 . S
C2094 H2078 0.931 . S
C2094 C2088 1.383 . S
C2094 C2093 1.379 . S
H2095 C2089 0.959 . S
H2096 C2089 0.961 . S
H2097 C2089 0.960 . S
H2098 C2090 0.930 . S
H2099 C2091 0.929 . S
H2100 C2108 0.929 . S
H2101 C2110 0.930 . S
H2102 C2112 0.930 . S
H2103 C2115 0.929 . S
H2104 C2118 0.930 . S
H2105 C2120 0.960 . S
H2106 C2120 0.960 . S
H2107 C2120 0.960 . S
C2108 H2100 0.929 . S
C2108 C2109 1.377 . S
C2108 C2110 1.384 . S
C2109 C2108 1.377 . S
C2109 C2115 1.390 . S
C2110 H2101 0.930 . S
C2110 C2108 1.384 . S
C2110 C2111 1.372 . S
C2111 C2110 1.372 . S
C2111 C2112 1.400 . S
C2111 C2116 1.490 . S
C2112 H2102 0.930 . S
C2112 C2111 1.400 . S
C2112 C2115 1.386 . S
H2113 C2129 0.930 . S
H2114 C2130 0.931 . S
C2115 H2103 0.929 . S
C2115 C2109 1.390 . S
C2115 C2112 1.386 . S
C2116 C2111 1.490 . S
C2116 C2118 1.395 . S
C2116 C2119 1.403 . S
H2117 C2123 0.930 . S
C2118 H2104 0.930 . S
C2118 C2116 1.395 . S
C2118 C2121 1.403 . S
C2119 C2116 1.403 . S
C2119 C2120 1.524 . S
C2119 C2123 1.400 . S
C2120 H2105 0.960 . S
C2120 H2106 0.960 . S
C2120 H2107 0.960 . S
C2120 C2119 1.524 . S
C2121 C2118 1.403 . S
C2121 C2122 1.392 . S
C2121 C2125 1.495 . S
C2122 C2121 1.392 . S
C2122 C2123 1.385 . S
C2122 C2124 1.478 . S
C2123 H2117 0.930 . S
C2123 C2119 1.400 . S
C2123 C2122 1.385 . S
C2124 C2122 1.478 . S
C2124 C2126 1.381 . S
C2124 C2130 1.383 . S
C2125 C2121 1.495 . S
C2125 H2131 0.959 . S
C2125 H2132 0.961 . S
C2125 H2133 0.960 . S
C2126 C2124 1.381 . S
C2126 C2127 1.394 . S
C2126 H2134 0.930 . S
C2127 C2126 1.394 . S
C2127 C2128 1.383 . S
C2127 H2135 0.929 . S
C2128 C2127 1.383 . S
C2128 C2129 1.377 . S
C2129 H2113 0.930 . S
C2129 C2128 1.377 . S
C2129 C2130 1.379 . S
C2130 H2114 0.931 . S
C2130 C2124 1.383 . S
C2130 C2129 1.379 . S
H2131 C2125 0.959 . S
H2132 C2125 0.961 . S
H2133 C2125 0.960 . S
H2134 C2126 0.930 . S
H2135 C2127 0.929 . S
H2136 C2144 0.929 . S
H2137 C2146 0.930 . S
H2138 C2148 0.930 . S
H2139 C2151 0.929 . S
H2140 C2154 0.930 . S
H2141 C2156 0.960 . S
H2142 C2156 0.960 . S
H2143 C2156 0.960 . S
C2144 H2136 0.929 . S
C2144 C2145 1.377 . S
C2144 C2146 1.384 . S
C2145 C2144 1.377 . S
C2145 C2151 1.390 . S
C2146 H2137 0.930 . S
C2146 C2144 1.384 . S
C2146 C2147 1.372 . S
C2147 C2146 1.372 . S
C2147 C2148 1.400 . S
C2147 C2152 1.490 . S
C2148 H2138 0.930 . S
C2148 C2147 1.400 . S
C2148 C2151 1.386 . S
H2149 C2165 0.930 . S
H2150 C2166 0.931 . S
C2151 H2139 0.929 . S
C2151 C2145 1.390 . S
C2151 C2148 1.386 . S
C2152 C2147 1.490 . S
C2152 C2154 1.395 . S
C2152 C2155 1.403 . S
H2153 C2159 0.930 . S
C2154 H2140 0.930 . S
C2154 C2152 1.395 . S
C2154 C2157 1.403 . S
C2155 C2152 1.403 . S
C2155 C2156 1.524 . S
C2155 C2159 1.400 . S
C2156 H2141 0.960 . S
C2156 H2142 0.960 . S
C2156 H2143 0.960 . S
C2156 C2155 1.524 . S
C2157 C2154 1.403 . S
C2157 C2158 1.392 . S
C2157 C2161 1.495 . S
C2158 C2157 1.392 . S
C2158 C2159 1.385 . S
C2158 C2160 1.478 . S
C2159 H2153 0.930 . S
C2159 C2155 1.400 . S
C2159 C2158 1.385 . S
C2160 C2158 1.478 . S
C2160 C2162 1.381 . S
C2160 C2166 1.383 . S
C2161 C2157 1.495 . S
C2161 H2167 0.959 . S
C2161 H2168 0.961 . S
C2161 H2169 0.960 . S
C2162 C2160 1.381 . S
C2162 C2163 1.394 . S
C2162 H2170 0.930 . S
C2163 C2162 1.394 . S
C2163 C2164 1.383 . S
C2163 H2171 0.929 . S
C2164 C2163 1.383 . S
C2164 C2165 1.377 . S
C2165 H2149 0.930 . S
C2165 C2164 1.377 . S
C2165 C2166 1.379 . S
C2166 H2150 0.931 . S
C2166 C2160 1.383 . S
C2166 C2165 1.379 . S
H2167 C2161 0.959 . S
H2168 C2161 0.961 . S
H2169 C2161 0.960 . S
H2170 C2162 0.930 . S
H2171 C2163 0.929 . S
H2172 C2180 0.929 . S
H2173 C2182 0.930 . S
H2174 C2184 0.930 . S
H2175 C2187 0.929 . S
H2176 C2190 0.930 . S
H2177 C2192 0.960 . S
H2178 C2192 0.960 . S
H2179 C2192 0.960 . S
C2180 H2172 0.929 . S
C2180 C2181 1.377 . S
C2180 C2182 1.384 . S
C2181 C2180 1.377 . S
C2181 C2187 1.390 . S
C2182 H2173 0.930 . S
C2182 C2180 1.384 . S
C2182 C2183 1.372 . S
C2183 C2182 1.372 . S
C2183 C2184 1.400 . S
C2183 C2188 1.490 . S
C2184 H2174 0.930 . S
C2184 C2183 1.400 . S
C2184 C2187 1.386 . S
H2185 C2201 0.930 . S
H2186 C2202 0.931 . S
C2187 H2175 0.929 . S
C2187 C2181 1.390 . S
C2187 C2184 1.386 . S
C2188 C2183 1.490 . S
C2188 C2190 1.395 . S
C2188 C2191 1.403 . S
H2189 C2195 0.930 . S
C2190 H2176 0.930 . S
C2190 C2188 1.395 . S
C2190 C2193 1.403 . S
C2191 C2188 1.403 . S
C2191 C2192 1.524 . S
C2191 C2195 1.400 . S
C2192 H2177 0.960 . S
C2192 H2178 0.960 . S
C2192 H2179 0.960 . S
C2192 C2191 1.524 . S
C2193 C2190 1.403 . S
C2193 C2194 1.392 . S
C2193 C2197 1.495 . S
C2194 C2193 1.392 . S
C2194 C2195 1.385 . S
C2194 C2196 1.478 . S
C2195 H2189 0.930 . S
C2195 C2191 1.400 . S
C2195 C2194 1.385 . S
C2196 C2194 1.478 . S
C2196 C2198 1.381 . S
C2196 C2202 1.383 . S
C2197 C2193 1.495 . S
C2197 H2203 0.959 . S
C2197 H2204 0.961 . S
C2197 H2205 0.960 . S
C2198 C2196 1.381 . S
C2198 C2199 1.394 . S
C2198 H2206 0.930 . S
C2199 C2198 1.394 . S
C2199 C2200 1.383 . S
C2199 H2207 0.929 . S
C2200 C2199 1.383 . S
C2200 C2201 1.377 . S
C2201 H2185 0.930 . S
C2201 C2200 1.377 . S
C2201 C2202 1.379 . S
C2202 H2186 0.931 . S
C2202 C2196 1.383 . S
C2202 C2201 1.379 . S
H2203 C2197 0.959 . S
H2204 C2197 0.961 . S
H2205 C2197 0.960 . S
H2206 C2198 0.930 . S
H2207 C2199 0.929 . S
H2208 C2216 0.929 . S
H2209 C2218 0.930 . S
H2210 C2220 0.930 . S
H2211 C2223 0.929 . S
H2212 C2226 0.930 . S
H2213 C2228 0.960 . S
H2214 C2228 0.960 . S
H2215 C2228 0.960 . S
C2216 H2208 0.929 . S
C2216 C2217 1.377 . S
C2216 C2218 1.384 . S
C2217 C2216 1.377 . S
C2217 C2223 1.390 . S
C2218 H2209 0.930 . S
C2218 C2216 1.384 . S
C2218 C2219 1.372 . S
C2219 C2218 1.372 . S
C2219 C2220 1.400 . S
C2219 C2224 1.490 . S
C2220 H2210 0.930 . S
C2220 C2219 1.400 . S
C2220 C2223 1.386 . S
H2221 C2237 0.930 . S
H2222 C2238 0.931 . S
C2223 H2211 0.929 . S
C2223 C2217 1.390 . S
C2223 C2220 1.386 . S
C2224 C2219 1.490 . S
C2224 C2226 1.395 . S
C2224 C2227 1.403 . S
H2225 C2231 0.930 . S
C2226 H2212 0.930 . S
C2226 C2224 1.395 . S
C2226 C2229 1.403 . S
C2227 C2224 1.403 . S
C2227 C2228 1.524 . S
C2227 C2231 1.400 . S
C2228 H2213 0.960 . S
C2228 H2214 0.960 . S
C2228 H2215 0.960 . S
C2228 C2227 1.524 . S
C2229 C2226 1.403 . S
C2229 C2230 1.392 . S
C2229 C2233 1.495 . S
C2230 C2229 1.392 . S
C2230 C2231 1.385 . S
C2230 C2232 1.478 . S
C2231 H2225 0.930 . S
C2231 C2227 1.400 . S
C2231 C2230 1.385 . S
C2232 C2230 1.478 . S
C2232 C2234 1.381 . S
C2232 C2238 1.383 . S
C2233 C2229 1.495 . S
C2233 H2239 0.959 . S
C2233 H2240 0.961 . S
C2233 H2241 0.960 . S
C2234 C2232 1.381 . S
C2234 C2235 1.394 . S
C2234 H2242 0.930 . S
C2235 C2234 1.394 . S
C2235 C2236 1.383 . S
C2235 H2243 0.929 . S
C2236 C2235 1.383 . S
C2236 C2237 1.377 . S
C2237 H2221 0.930 . S
C2237 C2236 1.377 . S
C2237 C2238 1.379 . S
C2238 H2222 0.931 . S
C2238 C2232 1.383 . S
C2238 C2237 1.379 . S
H2239 C2233 0.959 . S
H2240 C2233 0.961 . S
H2241 C2233 0.960 . S
H2242 C2234 0.930 . S
H2243 C2235 0.929 . S
H2244 C2252 0.929 . S
H2245 C2254 0.930 . S
H2246 C2256 0.930 . S
H2247 C2259 0.929 . S
H2248 C2262 0.930 . S
H2249 C2264 0.960 . S
H2250 C2264 0.960 . S
H2251 C2264 0.960 . S
C2252 H2244 0.929 . S
C2252 C2253 1.377 . S
C2252 C2254 1.384 . S
C2253 C2252 1.377 . S
C2253 C2259 1.390 . S
C2254 H2245 0.930 . S
C2254 C2252 1.384 . S
C2254 C2255 1.372 . S
C2255 C2254 1.372 . S
C2255 C2256 1.400 . S
C2255 C2260 1.490 . S
C2256 H2246 0.930 . S
C2256 C2255 1.400 . S
C2256 C2259 1.386 . S
H2257 C2273 0.930 . S
H2258 C2274 0.931 . S
C2259 H2247 0.929 . S
C2259 C2253 1.390 . S
C2259 C2256 1.386 . S
C2260 C2255 1.490 . S
C2260 C2262 1.395 . S
C2260 C2263 1.403 . S
H2261 C2267 0.930 . S
C2262 H2248 0.930 . S
C2262 C2260 1.395 . S
C2262 C2265 1.403 . S
C2263 C2260 1.403 . S
C2263 C2264 1.524 . S
C2263 C2267 1.400 . S
C2264 H2249 0.960 . S
C2264 H2250 0.960 . S
C2264 H2251 0.960 . S
C2264 C2263 1.524 . S
C2265 C2262 1.403 . S
C2265 C2266 1.392 . S
C2265 C2269 1.495 . S
C2266 C2265 1.392 . S
C2266 C2267 1.385 . S
C2266 C2268 1.478 . S
C2267 H2261 0.930 . S
C2267 C2263 1.400 . S
C2267 C2266 1.385 . S
C2268 C2266 1.478 . S
C2268 C2270 1.381 . S
C2268 C2274 1.383 . S
C2269 C2265 1.495 . S
C2269 H2275 0.959 . S
C2269 H2276 0.961 . S
C2269 H2277 0.960 . S
C2270 C2268 1.381 . S
C2270 C2271 1.394 . S
C2270 H2278 0.930 . S
C2271 C2270 1.394 . S
C2271 C2272 1.383 . S
C2271 H2279 0.929 . S
C2272 C2271 1.383 . S
C2272 C2273 1.377 . S
C2273 H2257 0.930 . S
C2273 C2272 1.377 . S
C2273 C2274 1.379 . S
C2274 H2258 0.931 . S
C2274 C2268 1.383 . S
C2274 C2273 1.379 . S
H2275 C2269 0.959 . S
H2276 C2269 0.961 . S
H2277 C2269 0.960 . S
H2278 C2270 0.930 . S
H2279 C2271 0.929 . S
H2280 C2288 0.929 . S
H2281 C2290 0.930 . S
H2282 C2292 0.930 . S
H2283 C2295 0.907 1_545 S
H2284 C2298 0.930 . S
H2285 C2300 0.960 . S
H2286 C2300 0.960 . S
H2287 C2300 0.960 . S
C2288 H2280 0.929 . S
C2288 C2289 1.377 . S
C2288 C2290 1.384 . S
C2289 C2288 1.377 . S
C2289 C2295 1.390 . S
C2290 H2281 0.930 . S
C2290 C2288 1.384 . S
C2290 C2291 1.372 . S
C2291 C2290 1.372 . S
C2291 C2292 1.400 . S
C2291 C2296 1.490 . S
C2292 H2282 0.930 . S
C2292 C2291 1.400 . S
C2292 C2295 1.386 . S
H2293 C2309 0.930 . S
H2294 C2310 0.931 . S
C2295 H2283 0.907 1_565 S
C2295 C2289 1.390 . S
C2295 C2292 1.386 . S
C2296 C2291 1.490 . S
C2296 C2298 1.395 . S
C2296 C2299 1.403 . S
H2297 C2303 0.930 . S
C2298 H2284 0.930 . S
C2298 C2296 1.395 . S
C2298 C2301 1.403 . S
C2299 C2296 1.403 . S
C2299 C2300 1.524 . S
C2299 C2303 1.400 . S
C2300 H2285 0.960 . S
C2300 H2286 0.960 . S
C2300 H2287 0.960 . S
C2300 C2299 1.524 . S
C2301 C2298 1.403 . S
C2301 C2302 1.392 . S
C2301 C2305 1.495 . S
C2302 C2301 1.392 . S
C2302 C2303 1.385 . S
C2302 C2304 1.478 . S
C2303 H2297 0.930 . S
C2303 C2299 1.400 . S
C2303 C2302 1.385 . S
C2304 C2302 1.478 . S
C2304 C2306 1.381 . S
C2304 C2310 1.383 . S
C2305 C2301 1.495 . S
C2305 H2311 0.957 . S
C2305 H2312 0.961 1_565 S
C2305 H2313 0.960 . S
C2306 C2304 1.381 . S
C2306 C2307 1.394 . S
C2306 H2314 0.930 . S
C2307 C2306 1.394 . S
C2307 C2308 1.383 . S
C2307 H2315 0.929 . S
C2308 C2307 1.383 . S
C2308 C2309 1.377 . S
C2309 H2293 0.930 . S
C2309 C2308 1.377 . S
C2309 C2310 1.379 . S
C2310 H2294 0.931 . S
C2310 C2304 1.383 . S
C2310 C2309 1.379 . S
H2311 C2305 0.957 . S
H2312 C2305 0.961 1_545 S
H2313 C2305 0.960 . S
H2314 C2306 0.930 . S
H2315 C2307 0.929 . S
H2316 C2324 0.929 . S
H2317 C2326 0.930 . S
H2318 C2328 0.930 . S
H2319 C2331 0.929 . S
H2320 C2334 0.930 . S
H2321 C2336 0.960 . S
H2322 C2336 0.960 . S
H2323 C2336 0.960 . S
C2324 H2316 0.929 . S
C2324 C2325 1.377 . S
C2324 C2326 1.384 . S
C2325 C2324 1.377 . S
C2325 C2331 1.390 . S
C2326 H2317 0.930 . S
C2326 C2324 1.384 . S
C2326 C2327 1.372 . S
C2327 C2326 1.372 . S
C2327 C2328 1.400 . S
C2327 C2332 1.490 . S
C2328 H2318 0.930 . S
C2328 C2327 1.400 . S
C2328 C2331 1.386 . S
H2329 C2345 0.930 . S
H2330 C2346 0.931 . S
C2331 H2319 0.929 . S
C2331 C2325 1.390 . S
C2331 C2328 1.386 . S
C2332 C2327 1.490 . S
C2332 C2334 1.395 . S
C2332 C2335 1.403 . S
H2333 C2339 0.930 . S
C2334 H2320 0.930 . S
C2334 C2332 1.395 . S
C2334 C2337 1.403 . S
C2335 C2332 1.403 . S
C2335 C2336 1.524 . S
C2335 C2339 1.400 . S
C2336 H2321 0.960 . S
C2336 H2322 0.960 . S
C2336 H2323 0.960 . S
C2336 C2335 1.524 . S
C2337 C2334 1.403 . S
C2337 C2338 1.392 . S
C2337 C2341 1.495 . S
C2338 C2337 1.392 . S
C2338 C2339 1.385 . S
C2338 C2340 1.478 . S
C2339 H2333 0.930 . S
C2339 C2335 1.400 . S
C2339 C2338 1.385 . S
C2340 C2338 1.478 . S
C2340 C2342 1.381 . S
C2340 C2346 1.383 . S
C2341 C2337 1.495 . S
C2341 H2347 0.959 . S
C2341 H2348 0.961 . S
C2341 H2349 0.960 . S
C2342 C2340 1.381 . S
C2342 C2343 1.394 . S
C2342 H2350 0.930 . S
C2343 C2342 1.394 . S
C2343 C2344 1.383 . S
C2343 H2351 0.929 . S
C2344 C2343 1.383 . S
C2344 C2345 1.377 . S
C2345 H2329 0.930 . S
C2345 C2344 1.377 . S
C2345 C2346 1.379 . S
C2346 H2330 0.931 . S
C2346 C2340 1.383 . S
C2346 C2345 1.379 . S
H2347 C2341 0.959 . S
H2348 C2341 0.961 . S
H2349 C2341 0.960 . S
H2350 C2342 0.930 . S
H2351 C2343 0.929 . S
H2352 C2360 0.929 1_565 S
H2353 C2362 0.930 . S
H2354 C2364 0.930 . S
H2355 C2367 0.929 . S
H2356 C2370 0.930 . S
H2357 C2372 0.960 . S
H2358 C2372 0.960 . S
H2359 C2372 0.960 . S
C2360 H2352 0.929 1_545 S
C2360 C2361 1.377 . S
C2360 C2362 1.384 . S
C2361 C2360 1.377 . S
C2361 C2367 1.390 . S
C2362 H2353 0.930 . S
C2362 C2360 1.384 . S
C2362 C2363 1.372 . S
C2363 C2362 1.372 . S
C2363 C2364 1.400 . S
C2363 C2368 1.490 . S
C2364 H2354 0.930 . S
C2364 C2363 1.400 . S
C2364 C2367 1.386 . S
H2365 C2381 0.930 . S
H2366 C2382 0.931 . S
C2367 H2355 0.929 . S
C2367 C2361 1.390 . S
C2367 C2364 1.386 . S
C2368 C2363 1.490 . S
C2368 C2370 1.395 . S
C2368 C2371 1.403 . S
H2369 C2375 0.930 . S
C2370 H2356 0.930 . S
C2370 C2368 1.395 . S
C2370 C2373 1.403 . S
C2371 C2368 1.403 . S
C2371 C2372 1.524 . S
C2371 C2375 1.400 . S
C2372 H2357 0.960 . S
C2372 H2358 0.960 . S
C2372 H2359 0.960 . S
C2372 C2371 1.524 . S
C2373 C2370 1.403 . S
C2373 C2374 1.392 . S
C2373 C2377 1.495 . S
C2374 C2373 1.392 . S
C2374 C2375 1.385 . S
C2374 C2376 1.478 . S
C2375 H2369 0.930 . S
C2375 C2371 1.400 . S
C2375 C2374 1.385 . S
C2376 C2374 1.478 . S
C2376 C2378 1.381 . S
C2376 C2382 1.383 . S
C2377 C2373 1.495 . S
C2377 H2383 0.959 . S
C2377 H2384 0.961 . S
C2377 H2385 0.960 . S
C2378 C2376 1.381 . S
C2378 C2379 1.394 . S
C2378 H2386 0.930 . S
C2379 C2378 1.394 . S
C2379 C2380 1.383 . S
C2379 H2387 0.929 . S
C2380 C2379 1.383 . S
C2380 C2381 1.377 . S
C2381 H2365 0.930 . S
C2381 C2380 1.377 . S
C2381 C2382 1.379 . S
C2382 H2366 0.931 . S
C2382 C2376 1.383 . S
C2382 C2381 1.379 . S
H2383 C2377 0.959 . S
H2384 C2377 0.961 . S
H2385 C2377 0.960 . S
H2386 C2378 0.930 . S
H2387 C2379 0.929 . S
H2388 C2396 0.929 . S
H2389 C2398 0.930 . S
H2390 C2400 0.930 . S
H2391 C2403 0.929 . S
H2392 C2406 0.930 . S
H2393 C2408 0.960 . S
H2394 C2408 0.960 . S
H2395 C2408 0.960 . S
C2396 H2388 0.929 . S
C2396 C2397 1.377 . S
C2396 C2398 1.384 . S
C2397 C2396 1.377 . S
C2397 C2403 1.390 . S
C2398 H2389 0.930 . S
C2398 C2396 1.384 . S
C2398 C2399 1.372 . S
C2399 C2398 1.372 . S
C2399 C2400 1.400 . S
C2399 C2404 1.490 . S
C2400 H2390 0.930 . S
C2400 C2399 1.400 . S
C2400 C2403 1.386 . S
H2401 C2417 0.930 . S
H2402 C2418 0.931 . S
C2403 H2391 0.929 . S
C2403 C2397 1.390 . S
C2403 C2400 1.386 . S
C2404 C2399 1.490 . S
C2404 C2406 1.395 . S
C2404 C2407 1.403 . S
H2405 C2411 0.930 . S
C2406 H2392 0.930 . S
C2406 C2404 1.395 . S
C2406 C2409 1.403 . S
C2407 C2404 1.403 . S
C2407 C2408 1.524 . S
C2407 C2411 1.400 . S
C2408 H2393 0.960 . S
C2408 H2394 0.960 . S
C2408 H2395 0.960 . S
C2408 C2407 1.524 . S
C2409 C2406 1.403 . S
C2409 C2410 1.392 . S
C2409 C2413 1.495 . S
C2410 C2409 1.392 . S
C2410 C2411 1.385 . S
C2410 C2412 1.478 . S
C2411 H2405 0.930 . S
C2411 C2407 1.400 . S
C2411 C2410 1.385 . S
C2412 C2410 1.478 . S
C2412 C2414 1.381 . S
C2412 C2418 1.383 . S
C2413 C2409 1.495 . S
C2413 H2419 0.959 . S
C2413 H2420 0.961 . S
C2413 H2421 0.960 . S
C2414 C2412 1.381 . S
C2414 C2415 1.394 . S
C2414 H2422 0.930 . S
C2415 C2414 1.394 . S
C2415 C2416 1.383 . S
C2415 H2423 0.929 . S
C2416 C2415 1.383 . S
C2416 C2417 1.377 . S
C2417 H2401 0.930 . S
C2417 C2416 1.377 . S
C2417 C2418 1.379 . S
C2418 H2402 0.931 . S
C2418 C2412 1.383 . S
C2418 C2417 1.379 . S
H2419 C2413 0.959 . S
H2420 C2413 0.961 . S
H2421 C2413 0.960 . S
H2422 C2414 0.930 . S
H2423 C2415 0.929 . S
H2424 C2432 0.929 . S
H2425 C2434 0.930 . S
H2426 C2436 0.930 . S
H2427 C2439 0.929 . S
H2428 C2442 0.933 . S
H2429 C2444 0.960 . S
H2430 C2444 0.960 . S
H2431 C2444 0.960 . S
C2432 H2424 0.929 . S
C2432 C2433 1.377 1_556 S
C2432 C2434 1.384 . S
C2433 C2432 1.377 1_554 S
C2433 C2439 1.390 . S
C2434 H2425 0.930 . S
C2434 C2432 1.384 . S
C2434 C2435 1.370 1_556 S
C2435 C2434 1.370 1_554 S
C2435 C2436 1.403 . S
C2435 C2440 1.489 1_554 S
C2436 H2426 0.930 . S
C2436 C2435 1.403 . S
C2436 C2439 1.386 . S
H2437 C2453 0.930 1_554 S
H2438 C2454 0.931 1_554 S
C2439 H2427 0.929 . S
C2439 C2433 1.390 . S
C2439 C2436 1.386 . S
C2440 C2435 1.489 1_556 S
C2440 C2442 1.393 1_556 S
C2440 C2443 1.403 . S
H2441 C2447 0.930 . S
C2442 H2428 0.933 . S
C2442 C2440 1.393 1_554 S
C2442 C2445 1.402 1_554 S
C2443 C2440 1.403 . S
C2443 C2444 1.524 . S
C2443 C2447 1.400 . S
C2444 H2429 0.960 . S
C2444 H2430 0.960 . S
C2444 H2431 0.960 . S
C2444 C2443 1.524 . S
C2445 C2442 1.402 1_556 S
C2445 C2446 1.392 . S
C2445 C2449 1.495 1_556 S
C2446 C2445 1.392 . S
C2446 C2447 1.385 . S
C2446 C2448 1.478 . S
C2447 H2441 0.930 . S
C2447 C2443 1.400 . S
C2447 C2446 1.385 . S
C2448 C2446 1.478 . S
C2448 C2450 1.381 . S
C2448 C2454 1.383 . S
C2449 C2445 1.495 1_554 S
C2449 H2455 0.959 . S
C2449 H2456 0.961 . S
C2449 H2457 0.960 1_554 S
C2450 C2448 1.381 . S
C2450 C2451 1.394 . S
C2450 H2458 0.930 . S
C2451 C2450 1.394 . S
C2451 C2452 1.383 . S
C2451 H2459 0.929 . S
C2452 C2451 1.383 . S
C2452 C2453 1.377 . S
C2453 H2437 0.930 1_556 S
C2453 C2452 1.377 . S
C2453 C2454 1.379 . S
C2454 H2438 0.931 1_556 S
C2454 C2448 1.383 . S
C2454 C2453 1.379 . S
H2455 C2449 0.959 . S
H2456 C2449 0.961 . S
H2457 C2449 0.960 1_556 S
H2458 C2450 0.930 . S
H2459 C2451 0.929 . S
H2460 C2468 0.929 . S
H2461 C2470 0.930 . S
H2462 C2472 0.930 . S
H2463 C2475 0.929 . S
H2464 C2478 0.930 . S
H2465 C2480 0.960 . S
H2466 C2480 0.960 . S
H2467 C2480 0.960 . S
C2468 H2460 0.929 . S
C2468 C2469 1.377 . S
C2468 C2470 1.384 . S
C2469 C2468 1.377 . S
C2469 C2475 1.390 1_554 S
C2470 H2461 0.930 . S
C2470 C2468 1.384 . S
C2470 C2471 1.372 1_554 S
C2471 C2470 1.372 1_556 S
C2471 C2472 1.400 . S
C2471 C2476 1.490 . S
C2472 H2462 0.930 . S
C2472 C2471 1.400 . S
C2472 C2475 1.386 . S
H2473 C2489 0.930 . S
H2474 C2490 0.931 . S
C2475 H2463 0.929 . S
C2475 C2469 1.390 1_556 S
C2475 C2472 1.386 . S
C2476 C2471 1.490 . S
C2476 C2478 1.395 1_556 S
C2476 C2479 1.403 . S
H2477 C2483 0.930 . S
C2478 H2464 0.930 . S
C2478 C2476 1.395 1_554 S
C2478 C2481 1.403 1_554 S
C2479 C2476 1.403 . S
C2479 C2480 1.524 . S
C2479 C2483 1.400 . S
C2480 H2465 0.960 . S
C2480 H2466 0.960 . S
C2480 H2467 0.960 . S
C2480 C2479 1.524 . S
C2481 C2478 1.403 1_556 S
C2481 C2482 1.392 . S
C2481 C2485 1.495 1_556 S
C2482 C2481 1.392 . S
C2482 C2483 1.385 . S
C2482 C2484 1.478 . S
C2483 H2477 0.930 . S
C2483 C2479 1.400 . S
C2483 C2482 1.385 . S
C2484 C2482 1.478 . S
C2484 C2486 1.381 . S
C2484 C2490 1.383 . S
C2485 C2481 1.495 1_554 S
C2485 H2491 0.959 . S
C2485 H2492 0.961 . S
C2485 H2493 0.960 . S
C2486 C2484 1.381 . S
C2486 C2487 1.394 . S
C2486 H2494 0.930 . S
C2487 C2486 1.394 . S
C2487 C2488 1.383 . S
C2487 H2495 0.929 . S
C2488 C2487 1.383 . S
C2488 C2489 1.377 . S
C2489 H2473 0.930 . S
C2489 C2488 1.377 . S
C2489 C2490 1.379 . S
C2490 H2474 0.931 . S
C2490 C2484 1.383 . S
C2490 C2489 1.379 . S
H2491 C2485 0.959 . S
H2492 C2485 0.961 . S
H2493 C2485 0.960 . S
H2494 C2486 0.930 . S
H2495 C2487 0.929 . S
H2496 C2504 0.929 . S
H2497 C2506 0.930 . S
H2498 C2508 0.930 . S
H2499 C2511 0.929 . S
H2500 C2514 0.930 . S
H2501 C2516 0.960 1_556 S
H2502 C2516 0.960 . S
H2503 C2516 0.960 1_556 S
C2504 H2496 0.929 . S
C2504 C2505 1.377 . S
C2504 C2506 1.384 . S
C2505 C2504 1.377 . S
C2505 C2511 1.390 . S
C2506 H2497 0.930 . S
C2506 C2504 1.384 . S
C2506 C2507 1.372 . S
C2507 C2506 1.372 . S
C2507 C2508 1.400 . S
C2507 C2512 1.490 . S
C2508 H2498 0.930 . S
C2508 C2507 1.400 . S
C2508 C2511 1.386 . S
H2509 C2525 0.930 . S
H2510 C2526 0.931 . S
C2511 H2499 0.929 . S
C2511 C2505 1.390 . S
C2511 C2508 1.386 . S
C2512 C2507 1.490 . S
C2512 C2514 1.395 . S
C2512 C2515 1.403 . S
H2513 C2519 0.930 . S
C2514 H2500 0.930 . S
C2514 C2512 1.395 . S
C2514 C2517 1.403 . S
C2515 C2512 1.403 . S
C2515 C2516 1.524 . S
C2515 C2519 1.400 . S
C2516 H2501 0.960 1_554 S
C2516 H2502 0.960 . S
C2516 H2503 0.960 1_554 S
C2516 C2515 1.524 . S
C2517 C2514 1.403 . S
C2517 C2518 1.392 . S
C2517 C2521 1.495 . S
C2518 C2517 1.392 . S
C2518 C2519 1.385 . S
C2518 C2520 1.478 . S
C2519 H2513 0.930 . S
C2519 C2515 1.400 . S
C2519 C2518 1.385 . S
C2520 C2518 1.478 . S
C2520 C2522 1.381 . S
C2520 C2526 1.383 . S
C2521 C2517 1.495 . S
C2521 H2527 0.959 . S
C2521 H2528 0.961 . S
C2521 H2529 0.960 . S
C2522 C2520 1.381 . S
C2522 C2523 1.394 . S
C2522 H2530 0.930 . S
C2523 C2522 1.394 . S
C2523 C2524 1.383 . S
C2523 H2531 0.929 . S
C2524 C2523 1.383 . S
C2524 C2525 1.377 . S
C2525 H2509 0.930 . S
C2525 C2524 1.377 . S
C2525 C2526 1.379 . S
C2526 H2510 0.931 . S
C2526 C2520 1.383 . S
C2526 C2525 1.379 . S
H2527 C2521 0.959 . S
H2528 C2521 0.961 . S
H2529 C2521 0.960 . S
H2530 C2522 0.930 . S
H2531 C2523 0.929 . S
C813 C22 2.077 . S
C832 C696 1.844 1_545 S
C868 C715 2.035 . S
C849 C38 2.066 . S
C904 C653 1.641 . S
C885 C75 1.648 . S
C921 C91 1.611 . S
C940 C674 1.584 . S
C957 C128 1.618 . S
C976 C801 1.475 . S
C993 C197 1.422 . S
C1012 C779 1.436 1_554 S
C1048 C736 1.932 . S
C1029 C144 2.007 . S
C1065 C181 1.509 . S
C1084 C757 1.446 . S
C1120 C675 1.534 1_455 S
C1101 C234 1.715 . S
C1156 C716 1.556 1_455 S
C1137 C303 1.596 . S
C1173 C356 1.895 . S
C1192 C694 1.844 . S
C1209 C287 1.685 . S
C1228 C759 1.469 . S
C1264 C780 1.802 . S
C1245 C393 1.999 . S
C1300 C799 2.009 . S
C1281 C409 2.077 . S
C1317 C462 1.772 . S
C1336 C758 1.785 . S
C1372 C737 1.515 1_545 S
C1353 C446 1.547 . S
C1389 C499 1.563 . S
C1408 C717 1.432 . S
C1425 C552 1.415 . S
C1444 C695 1.432 . S
C1480 C673 1.844 1_556 S
C1461 C515 1.873 . S
C1497 C568 1.712 . S
C1516 C652 1.686 1_556 S
C1552 C738 1.651 . S
C1533 C340 1.790 . S
C1588 C800 1.544 . S
C1569 C621 1.549 . S
C1605 C250 1.778 . S
C1624 C778 1.716 . S
C1641 C605 1.626 . S
C1660 C654 1.503 . S
C1696 C650 1.106 . S
C1677 C39 1.153 . S
C1713 C29 0.940 . S
C1732 C671 0.964 . S
C1768 C691 1.195 . S
C1749 C92 1.311 . S
C1804 C714 1.339 . S
C1785 C82 1.672 1_655 S
C1821 C145 1.071 . S
C1840 C651 0.919 . S
C1857 C188 1.591 . S
C1876 C672 1.276 . S
C1912 C692 0.933 . S
C1893 C135 0.960 . S
C1929 C198 1.004 . S
C1948 C712 1.013 . S
C1965 C251 0.880 . S
C1984 C649 0.797 . S
C2020 C693 1.337 . S
C2001 C294 1.610 . S
C2037 C347 1.482 . S
C2056 C713 1.460 . S
C2073 C304 1.056 . S
C2092 C733 1.043 . S
C2128 C755 1.149 . S
C2109 C410 1.182 . S
C2145 C400 1.000 . S
C2164 C734 1.020 . S
C2181 C453 1.030 . S
C2200 C775 1.006 . S
C2217 C463 2.025 . S
C2236 C798 1.675 . S
C2253 C516 1.071 . S
C2272 C756 0.914 . S
C2308 C735 1.586 . S
C2289 C569 1.937 . S
C2325 C506 0.883 . S
C2344 C776 0.896 . S
C2380 C796 0.807 . S
C2361 C559 0.855 . S
C2416 C754 0.771 . S
C2397 C357 0.854 . S
C2452 C777 1.328 . S
C2433 C612 1.586 . S
C2488 C797 1.418 . S
C2469 C241 1.431 . S
C2505 C622 0.969 . S
C2524 C670 0.911 . S
