# Generated by pormake.
# Topology pyr, (3,6)-cn, num edge types: 1
# Building blocks:
#     Node 0, Type 0, BuildingBlock: WUSLED_clean_sbu_0, # of connection points: 3
#     Node 1, Type 0, BuildingBlock: WUSLED_clean_sbu_0, # of connection points: 3
#     Node 2, Type 0, BuildingBlock: WUSLED_clean_sbu_0, # of connection points: 3
#     Node 3, Type 0, BuildingBlock: WUSLED_clean_sbu_0, # of connection points: 3
#     Node 4, Type 0, BuildingBlock: WUSLED_clean_sbu_0, # of connection points: 3
#     Node 5, Type 0, BuildingBlock: WUSLED_clean_sbu_0, # of connection points: 3
#     Node 6, Type 0, BuildingBlock: WUSLED_clean_sbu_0, # of connection points: 3
#     Node 7, Type 0, BuildingBlock: WUSLED_clean_sbu_0, # of connection points: 3
#     Node 8, Type 1, BuildingBlock: PAMTOO_clean_sbu_0, # of connection points: 6
#     Node 9, Type 1, BuildingBlock: PAMTOO_clean_sbu_0, # of connection points: 6
#     Node 10, Type 1, BuildingBlock: PAMTOO_clean_sbu_0, # of connection points: 6
#     Node 11, Type 1, BuildingBlock: PAMTOO_clean_sbu_0, # of connection points: 6
#     Edge 12, Type (0, 1), BuildingBlock: KIFKEQ_clean_linker_1, # of connection points: 2
#     Edge 13, Type (0, 1), BuildingBlock: KIFKEQ_clean_linker_1, # of connection points: 2
#     Edge 14, Type (0, 1), BuildingBlock: KIFKEQ_clean_linker_1, # of connection points: 2
#     Edge 15, Type (0, 1), BuildingBlock: KIFKEQ_clean_linker_1, # of connection points: 2
#     Edge 16, Type (0, 1), BuildingBlock: KIFKEQ_clean_linker_1, # of connection points: 2
#     Edge 17, Type (0, 1), BuildingBlock: KIFKEQ_clean_linker_1, # of connection points: 2
#     Edge 18, Type (0, 1), BuildingBlock: KIFKEQ_clean_linker_1, # of connection points: 2
#     Edge 19, Type (0, 1), BuildingBlock: KIFKEQ_clean_linker_1, # of connection points: 2
#     Edge 20, Type (0, 1), BuildingBlock: KIFKEQ_clean_linker_1, # of connection points: 2
#     Edge 21, Type (0, 1), BuildingBlock: KIFKEQ_clean_linker_1, # of connection points: 2
#     Edge 22, Type (0, 1), BuildingBlock: KIFKEQ_clean_linker_1, # of connection points: 2
#     Edge 23, Type (0, 1), BuildingBlock: KIFKEQ_clean_linker_1, # of connection points: 2
#     Edge 24, Type (0, 1), BuildingBlock: KIFKEQ_clean_linker_1, # of connection points: 2
#     Edge 25, Type (0, 1), BuildingBlock: KIFKEQ_clean_linker_1, # of connection points: 2
#     Edge 26, Type (0, 1), BuildingBlock: KIFKEQ_clean_linker_1, # of connection points: 2
#     Edge 27, Type (0, 1), BuildingBlock: KIFKEQ_clean_linker_1, # of connection points: 2
#     Edge 28, Type (0, 1), BuildingBlock: KIFKEQ_clean_linker_1, # of connection points: 2
#     Edge 29, Type (0, 1), BuildingBlock: KIFKEQ_clean_linker_1, # of connection points: 2
#     Edge 30, Type (0, 1), BuildingBlock: KIFKEQ_clean_linker_1, # of connection points: 2
#     Edge 31, Type (0, 1), BuildingBlock: KIFKEQ_clean_linker_1, # of connection points: 2
#     Edge 32, Type (0, 1), BuildingBlock: KIFKEQ_clean_linker_1, # of connection points: 2
#     Edge 33, Type (0, 1), BuildingBlock: KIFKEQ_clean_linker_1, # of connection points: 2
#     Edge 34, Type (0, 1), BuildingBlock: KIFKEQ_clean_linker_1, # of connection points: 2
#     Edge 35, Type (0, 1), BuildingBlock: KIFKEQ_clean_linker_1, # of connection points: 2
# Relax obj value: 0.079
# Max RMSD: 0.153
# Mean RMSD: 0.063
data_MOF--net-pyr--node1-WUSLED_clean_sbu_0--node2-PAMTOO_clean_sbu_0--edge1-KIFKEQ_clean_linker_1
_symmetry_space_group_name_H-M    P1
_symmetry_Int_Tables_number       1
_symmetry_cell_setting            triclinic
loop_
_symmetry_equiv_pos_as_xyz
'x, y, z'
_cell_length_a     48.166755
_cell_length_b     50.640822
_cell_length_c     50.950683
_cell_angle_alpha  89.674146
_cell_angle_beta   90.381848
_cell_angle_gamma 102.85337
loop_
_atom_site_label
_atom_site_type_symbol
_atom_site_fract_x
_atom_site_fract_y
_atom_site_fract_z
_atom_type_partial_charge
C0 C 0.30891 0.31653 0.16052 0.0
C1 C 0.28248 0.31241 0.17316 0.0
C2 C 0.27136 0.35091 0.15004 0.0
C3 C 0.26385 0.32922 0.16784 0.0
C4 C 0.29823 0.35543 0.13786 0.0
C5 C 0.31685 0.33831 0.14304 0.0
U6 U 0.32844 0.26886 0.2085 0.0
O7 O 0.33306 0.2269 0.20597 0.0
O8 O 0.3685 0.25833 0.22117 0.0
C9 C 0.35967 0.23288 0.21412 0.0
C10 C 0.32794 0.29817 0.16628 0.0
C11 C 0.37939 0.22137 0.19838 0.0
C12 C 0.39636 0.21007 0.1561 0.0
C13 C 0.37999 0.22398 0.17096 0.0
C14 C 0.41258 0.19182 0.19602 0.0
C15 C 0.41239 0.19342 0.16846 0.0
C16 C 0.39614 0.20565 0.21084 0.0
C17 C 0.28476 0.26073 0.27081 0.0
C18 C 0.27866 0.22057 0.29816 0.0
C19 C 0.25812 0.25808 0.31119 0.0
C20 C 0.26936 0.27245 0.28882 0.0
C21 C 0.26199 0.23171 0.31569 0.0
C22 C 0.29004 0.23503 0.27589 0.0
C23 C 0.29319 0.27443 0.24587 0.0
O24 O 0.34607 0.30585 0.18566 0.0
O25 O 0.31493 0.27246 0.16766 0.0
O26 O 0.28554 0.25927 0.22508 0.0
O27 O 0.31944 0.28889 0.24474 0.0
H28 H 0.27602 0.29587 0.18696 0.0
H29 H 0.24323 0.32471 0.17726 0.0
H30 H 0.30489 0.37218 0.12435 0.0
H31 H 0.33733 0.34202 0.1334 0.0
H32 H 0.39608 0.21194 0.13491 0.0
H33 H 0.36717 0.23611 0.16106 0.0
H34 H 0.42446 0.17896 0.20609 0.0
H35 H 0.39575 0.20334 0.232 0.0
H36 H 0.28176 0.2002 0.30095 0.0
H37 H 0.24575 0.26731 0.32459 0.0
H38 H 0.26527 0.29234 0.28516 0.0
H39 H 0.30196 0.22575 0.26209 0.0
C40 C 0.16934 0.81674 0.66274 0.0
C41 C 0.16603 0.83677 0.68063 0.0
C42 C 0.13745 0.85496 0.64879 0.0
C43 C 0.15024 0.85573 0.67371 0.0
C44 C 0.14015 0.83435 0.63119 0.0
C45 C 0.15609 0.81539 0.63812 0.0
U46 U 0.21738 0.79717 0.71266 0.0
O47 O 0.22573 0.75817 0.72599 0.0
O48 O 0.26056 0.79013 0.7107 0.0
C49 C 0.25272 0.7651 0.71937 0.0
C50 C 0.18803 0.79853 0.66959 0.0
C51 C 0.264 0.74503 0.70476 0.0
C52 C 0.27629 0.72652 0.6637 0.0
C53 C 0.26217 0.74352 0.6773 0.0
C54 C 0.2931 0.7117 0.70502 0.0
C55 C 0.29239 0.71082 0.67742 0.0
C56 C 0.27903 0.72867 0.71852 0.0
C57 C 0.22888 0.83583 0.77536 0.0
C58 C 0.26376 0.82481 0.80557 0.0
C59 C 0.24589 0.86548 0.81189 0.0
C60 C 0.22842 0.85913 0.7898 0.0
C61 C 0.2641 0.84861 0.8197 0.0
C62 C 0.24632 0.81851 0.78352 0.0
C63 C 0.21354 0.83091 0.75041 0.0
O64 O 0.215 0.8108 0.6719 0.0
O65 O 0.17893 0.78159 0.68896 0.0
O66 O 0.19614 0.80701 0.74821 0.0
O67 O 0.22982 0.83778 0.72979 0.0
H68 H 0.17617 0.83806 0.69977 0.0
H69 H 0.14825 0.87115 0.68779 0.0
H70 H 0.13075 0.83343 0.61175 0.0
H71 H 0.15859 0.8001 0.6241 0.0
H72 H 0.27511 0.72607 0.64247 0.0
H73 H 0.25058 0.75608 0.66639 0.0
H74 H 0.30564 0.70025 0.7162 0.0
H75 H 0.28077 0.72976 0.73973 0.0
H76 H 0.27739 0.81136 0.81124 0.0
H77 H 0.24605 0.88419 0.82215 0.0
H78 H 0.21531 0.87284 0.78349 0.0
H79 H 0.24706 0.80053 0.77235 0.0
C80 C 0.63148 0.39743 0.79604 0.0
C81 C 0.65313 0.41411 0.78121 0.0
C82 C 0.61764 0.42695 0.75187 0.0
C83 C 0.64627 0.42878 0.75941 0.0
C84 C 0.59619 0.41089 0.7674 0.0
C85 C 0.60303 0.39637 0.78908 0.0
U86 U 0.67345 0.37686 0.85638 0.0
O87 O 0.65589 0.35579 0.89265 0.0
O88 O 0.6816 0.33671 0.86628 0.0
C89 C 0.66759 0.3351 0.88849 0.0
C90 C 0.63742 0.37952 0.81769 0.0
C91 C 0.65284 0.30812 0.89829 0.0
C92 C 0.61272 0.26912 0.90074 0.0
C93 C 0.6258 0.29432 0.88953 0.0
C94 C 0.65358 0.27155 0.92928 0.0
C95 C 0.62639 0.25764 0.92102 0.0
C96 C 0.66658 0.29638 0.91803 0.0
C97 C 0.74169 0.42329 0.88403 0.0
C98 C 0.77127 0.41053 0.91889 0.0
C99 C 0.78125 0.45657 0.90242 0.0
C100 C 0.75841 0.4497 0.88481 0.0
C101 C 0.788 0.43718 0.91983 0.0
C102 C 0.74824 0.40367 0.90121 0.0
C103 C 0.7177 0.41694 0.8651 0.0
O104 O 0.65972 0.36873 0.81527 0.0
O105 O 0.6338 0.38713 0.84182 0.0
O106 O 0.69228 0.41617 0.87469 0.0
O107 O 0.71802 0.39721 0.84853 0.0
H108 H 0.67529 0.41537 0.78612 0.0
H109 H 0.66341 0.44083 0.74797 0.0
H110 H 0.57392 0.40934 0.7627 0.0
H111 H 0.58592 0.38376 0.80017 0.0
H112 H 0.59173 0.25892 0.89397 0.0
H113 H 0.61477 0.30306 0.87434 0.0
H114 H 0.66497 0.26316 0.94445 0.0
H115 H 0.68748 0.30664 0.92504 0.0
H116 H 0.77569 0.39511 0.93207 0.0
H117 H 0.79389 0.47713 0.90212 0.0
H118 H 0.75383 0.46511 0.87167 0.0
H119 H 0.73555 0.38312 0.90097 0.0
C120 C 0.80929 0.65793 0.39186 0.0
C121 C 0.81222 0.6604 0.41927 0.0
C122 C 0.76187 0.6386 0.42483 0.0
C123 C 0.78861 0.651 0.43562 0.0
C124 C 0.75901 0.63709 0.39738 0.0
C125 C 0.78237 0.64665 0.38117 0.0
U126 U 0.88154 0.69037 0.35299 0.0
O127 O 0.90934 0.66506 0.33621 0.0
O128 O 0.88272 0.68481 0.31023 0.0
C129 C 0.90112 0.66926 0.31217 0.0
C130 C 0.8338 0.66324 0.37373 0.0
C131 C 0.91101 0.65713 0.28856 0.0
C132 C 0.90148 0.63745 0.24499 0.0
C133 C 0.89235 0.64893 0.2674 0.0
C134 C 0.94843 0.64277 0.26419 0.0
C135 C 0.92976 0.63435 0.24284 0.0
C136 C 0.93908 0.65377 0.28684 0.0
C137 C 0.91459 0.76243 0.38608 0.0
C138 C 0.94222 0.80824 0.39313 0.0
C139 C 0.90691 0.78758 0.42504 0.0
C140 C 0.9003 0.76383 0.40979 0.0
C141 C 0.92792 0.81022 0.41679 0.0
C142 C 0.93553 0.78478 0.37801 0.0
C143 C 0.90948 0.73819 0.36918 0.0
O144 O 0.83456 0.68096 0.35466 0.0
O145 O 0.85908 0.66115 0.38226 0.0
O146 O 0.91381 0.71532 0.37889 0.0
O147 O 0.88894 0.73499 0.35158 0.0
H148 H 0.83282 0.66879 0.42803 0.0
H149 H 0.79153 0.65243 0.4567 0.0
H150 H 0.7387 0.62809 0.38837 0.0
H151 H 0.7796 0.64428 0.36012 0.0
H152 H 0.88609 0.63072 0.2295 0.0
H153 H 0.87049 0.65106 0.26832 0.0
H154 H 0.97048 0.64131 0.26336 0.0
H155 H 0.95396 0.66008 0.30284 0.0
H156 H 0.95903 0.82473 0.38634 0.0
H157 H 0.89534 0.78831 0.44306 0.0
H158 H 0.88415 0.7467 0.41646 0.0
H159 H 0.94706 0.78403 0.35992 0.0
C160 C 0.73614 0.74031 0.9118 0.0
C161 C 0.75434 0.73406 0.89255 0.0
C162 C 0.77579 0.70894 0.92467 0.0
C163 C 0.77398 0.71851 0.89891 0.0
C164 C 0.75671 0.71441 0.94366 0.0
C165 C 0.73709 0.73009 0.93727 0.0
U166 U 0.71865 0.78895 0.86324 0.0
O167 O 0.67906 0.80108 0.85163 0.0
O168 O 0.71587 0.8314 0.86618 0.0
C169 C 0.68893 0.82627 0.85904 0.0
C170 C 0.71858 0.75975 0.90568 0.0
C171 C 0.67031 0.83795 0.87598 0.0
C172 C 0.65823 0.8524 0.91893 0.0
C173 C 0.6739 0.83846 0.90335 0.0
C174 C 0.63406 0.86409 0.88011 0.0
C175 C 0.63851 0.8657 0.90739 0.0
C176 C 0.64998 0.85041 0.8645 0.0
C177 C 0.75988 0.79713 0.80022 0.0
C178 C 0.75787 0.83544 0.77216 0.0
C179 C 0.79118 0.80719 0.7628 0.0
C180 C 0.78117 0.79091 0.78443 0.0
C181 C 0.78006 0.82997 0.75683 0.0
C182 C 0.74786 0.81912 0.79373 0.0
C183 C 0.75237 0.78255 0.82488 0.0
O184 O 0.73328 0.78484 0.90363 0.0
O185 O 0.70001 0.75265 0.88651 0.0
O186 O 0.72592 0.76864 0.82664 0.0
O187 O 0.76117 0.79714 0.84578 0.0
H188 H 0.75407 0.74208 0.87281 0.0
H189 H 0.78857 0.71504 0.8839 0.0
H190 H 0.75733 0.70701 0.96359 0.0
H191 H 0.72327 0.73487 0.95236 0.0
H192 H 0.66183 0.85317 0.93995 0.0
H193 H 0.68941 0.82878 0.91257 0.0
H194 H 0.61914 0.87437 0.87075 0.0
H195 H 0.64701 0.85024 0.8434 0.0
H196 H 0.74874 0.8527 0.76783 0.0
H197 H 0.80854 0.8027 0.75152 0.0
H198 H 0.79079 0.77411 0.78941 0.0
H199 H 0.73145 0.82421 0.80591 0.0
C200 C 0.78789 0.26483 0.30231 0.0
C201 C 0.80027 0.24329 0.2954 0.0
C202 C 0.76688 0.23229 0.25909 0.0
C203 C 0.78985 0.22713 0.27388 0.0
C204 C 0.75554 0.25476 0.26538 0.0
C205 C 0.76597 0.27089 0.28692 0.0
U206 U 0.83039 0.27334 0.36526 0.0
O207 O 0.84784 0.3102 0.38815 0.0
O208 O 0.81659 0.27671 0.40583 0.0
C209 C 0.82948 0.30244 0.40721 0.0
C210 C 0.79553 0.27896 0.32708 0.0
C211 C 0.81001 0.32046 0.41204 0.0
C212 C 0.76547 0.33304 0.40144 0.0
C213 C 0.78551 0.31778 0.39632 0.0
C214 C 0.7949 0.3553 0.43721 0.0
C215 C 0.76974 0.35161 0.42216 0.0
C216 C 0.81491 0.33962 0.43226 0.0
C217 C 0.88049 0.22429 0.37525 0.0
C218 C 0.90734 0.21996 0.41488 0.0
C219 C 0.90469 0.18739 0.37974 0.0
C220 C 0.88794 0.20125 0.36506 0.0
C221 C 0.91447 0.19643 0.40491 0.0
C222 C 0.89036 0.23375 0.40017 0.0
C223 C 0.86092 0.23682 0.36009 0.0
O224 O 0.78762 0.26381 0.34788 0.0
O225 O 0.82171 0.29355 0.32874 0.0
O226 O 0.87019 0.26236 0.35332 0.0
O227 O 0.83449 0.23118 0.3684 0.0
H228 H 0.81719 0.23835 0.30727 0.0
H229 H 0.79916 0.21012 0.2693 0.0
H230 H 0.73759 0.25901 0.25455 0.0
H231 H 0.75611 0.28735 0.29223 0.0
H232 H 0.74639 0.33006 0.38942 0.0
H233 H 0.78149 0.30335 0.3804 0.0
H234 H 0.79854 0.36955 0.45331 0.0
H235 H 0.83382 0.34208 0.44444 0.0
H236 H 0.91471 0.2276 0.43409 0.0
H237 H 0.90918 0.16907 0.37163 0.0
H238 H 0.88018 0.19355 0.34594 0.0
H239 H 0.88457 0.25148 0.40834 0.0
C240 C 0.30556 0.65931 0.1914 0.0
C241 C 0.3093 0.6579 0.16414 0.0
C242 C 0.25785 0.64215 0.15775 0.0
C243 C 0.28564 0.6495 0.14747 0.0
C244 C 0.25435 0.64432 0.18499 0.0
C245 C 0.27785 0.65282 0.20151 0.0
U246 U 0.37875 0.68895 0.22971 0.0
O247 O 0.3827 0.68667 0.27299 0.0
O248 O 0.40364 0.66157 0.24741 0.0
C249 C 0.39838 0.66857 0.27135 0.0
C250 C 0.32957 0.66301 0.21032 0.0
C251 C 0.40938 0.65671 0.29474 0.0
C252 C 0.41744 0.61735 0.31875 0.0
C253 C 0.40789 0.62878 0.29625 0.0
C254 C 0.43122 0.66185 0.3382 0.0
C255 C 0.4294 0.63369 0.34015 0.0
C256 C 0.42101 0.67313 0.31593 0.0
C257 C 0.41448 0.75665 0.19046 0.0
C258 C 0.44979 0.79275 0.17023 0.0
C259 C 0.39968 0.7901 0.16218 0.0
C260 C 0.39278 0.76693 0.17835 0.0
C261 C 0.42836 0.80344 0.15803 0.0
C262 C 0.44292 0.76967 0.18607 0.0
C263 C 0.409 0.73422 0.20978 0.0
O264 O 0.3542 0.65884 0.20248 0.0
O265 O 0.33181 0.68187 0.22835 0.0
O266 O 0.38894 0.7335 0.22731 0.0
O267 O 0.41194 0.71015 0.20243 0.0
H268 H 0.33046 0.6625 0.1558 0.0
H269 H 0.28917 0.6484 0.12657 0.0
H270 H 0.23349 0.63836 0.19381 0.0
H271 H 0.27441 0.65313 0.2225 0.0
H272 H 0.41491 0.5956 0.31941 0.0
H273 H 0.39875 0.61566 0.28021 0.0
H274 H 0.44082 0.67539 0.35373 0.0
H275 H 0.42255 0.69479 0.31514 0.0
H276 H 0.47204 0.80264 0.1682 0.0
H277 H 0.38258 0.79756 0.153 0.0
H278 H 0.37064 0.75734 0.18165 0.0
H279 H 0.46 0.76239 0.19558 0.0
C280 C 0.1351 0.30583 0.69263 0.0
C281 C 0.15201 0.30263 0.67104 0.0
C282 C 0.12141 0.25796 0.66232 0.0
C283 C 0.14511 0.27885 0.65588 0.0
C284 C 0.1045 0.26171 0.68375 0.0
C285 C 0.11128 0.2853 0.69866 0.0
U286 U 0.17004 0.37753 0.72508 0.0
O287 O 0.1429 0.40258 0.74281 0.0
O288 O 0.17112 0.38388 0.76801 0.0
C289 C 0.15229 0.39907 0.76656 0.0
C290 C 0.14106 0.32977 0.70983 0.0
C291 C 0.14234 0.41126 0.7901 0.0
C292 C 0.10592 0.42886 0.81281 0.0
C293 C 0.11523 0.4172 0.79056 0.0
C294 C 0.15094 0.42937 0.83435 0.0
C295 C 0.12367 0.43522 0.83506 0.0
C296 C 0.16005 0.41738 0.81224 0.0
C297 C 0.23857 0.4124 0.68198 0.0
C298 C 0.27419 0.44817 0.66173 0.0
C299 C 0.27476 0.40127 0.65351 0.0
C300 C 0.25086 0.393 0.6698 0.0
C301 C 0.2869 0.42906 0.64939 0.0
C302 C 0.25032 0.43992 0.6776 0.0
C303 C 0.21541 0.4055 0.70136 0.0
O304 O 0.16283 0.33296 0.72611 0.0
O305 O 0.13598 0.35264 0.70088 0.0
O306 O 0.18947 0.40747 0.69492 0.0
O307 O 0.21652 0.38722 0.71955 0.0
H308 H 0.17048 0.31831 0.66605 0.0
H309 H 0.15859 0.27655 0.63951 0.0
H310 H 0.08581 0.2464 0.68898 0.0
H311 H 0.09784 0.28746 0.71513 0.0
H312 H 0.08462 0.43252 0.81264 0.0
H313 H 0.10105 0.41254 0.7738 0.0
H314 H 0.16553 0.43439 0.85074 0.0
H315 H 0.18118 0.41326 0.81233 0.0
H316 H 0.28313 0.46967 0.65983 0.0
H317 H 0.28373 0.38591 0.64423 0.0
H318 H 0.24227 0.3716 0.67311 0.0
H319 H 0.24149 0.45524 0.68719 0.0
Dy320 Dy 0.05344 0.03666 0.52295 0.0
Dy321 Dy 0.99769 0.02925 0.56112 0.0
C322 C 0.05007 0.08104 0.56544 0.0
O323 O 0.06353 1.01903 0.56107 0.0
O324 O 1.01896 0.99608 0.57229 0.0
O325 O 0.09912 0.04566 0.51955 0.0
O326 O 0.07248 0.03114 0.48576 0.0
O327 O 0.98389 0.99701 0.53073 0.0
O328 O 0.02793 0.99492 0.51483 0.0
O329 O 0.99362 0.06226 0.53359 0.0
O330 O 0.02399 0.05679 0.50039 0.0
O331 O 0.95308 0.02698 0.56753 0.0
O332 O 0.98196 0.02809 0.60068 0.0
C333 C 0.04663 0.9992 0.5736 0.0
O334 O 0.05771 0.0773 0.54133 0.0
O335 O 0.0322 0.06193 0.57816 0.0
C336 C 0.11589 0.06187 0.4776 0.0
C337 C 0.14883 0.10089 0.44446 0.0
C338 C 0.1452 0.10697 0.47089 0.0
C339 C 0.12871 0.08764 0.48734 0.0
C340 C 0.11974 0.05575 0.45128 0.0
C341 C 0.13598 0.07514 0.43478 0.0
C342 C 0.09822 0.04117 0.49433 0.0
C343 C 1.00037 0.98509 0.51668 0.0
C344 C 1.00349 0.06725 0.50975 0.0
C345 C 0.93485 1.00435 0.60621 0.0
C346 C 0.89577 0.96427 0.6332 0.0
C347 C 0.90918 0.95766 0.61049 0.0
C348 C 0.92869 0.9776 0.59709 0.0
C349 C 0.92158 1.01103 0.62875 0.0
C350 C 0.9022 0.99115 0.6422 0.0
C351 C 0.95561 1.02547 0.59298 0.0
H352 H 0.15471 0.1268 0.47869 0.0
H353 H 0.12592 0.09295 0.50757 0.0
H354 H 0.11006 0.03597 0.44344 0.0
H355 H 0.1387 0.06993 0.41451 0.0
H356 H 0.9045 0.93714 0.60306 0.0
H357 H 0.93901 0.97218 0.57972 0.0
H358 H 0.92643 0.0316 0.63611 0.0
H359 H 0.89266 0.99673 0.65993 0.0
Dy360 Dy 0.49751 1.02555 1.01736 0.0
Dy361 Dy 0.55228 0.03352 0.05698 0.0
C362 C 0.50051 0.98199 0.06257 0.0
O363 O 0.49587 0.0613 0.04174 0.0
O364 O 0.51997 0.05121 0.07789 0.0
O365 O 0.45227 1.02041 1.0113 0.0
O366 O 0.48098 1.02527 0.97803 0.0
O367 O 0.55797 0.07332 0.03592 0.0
O368 O 0.5316 0.05777 0.99936 0.0
O369 O 0.56398 1.01317 1.02143 0.0
O370 O 0.51963 0.99337 1.00547 0.0
O371 O 0.59762 0.04309 0.06306 0.0
O372 O 0.5692 0.02931 0.09572 0.0
C373 C 0.50267 0.06458 0.0666 0.0
O374 O 0.48395 0.99522 0.04986 0.0
O375 O 0.52822 0.99097 0.06303 0.0
C376 C 0.436 0.99735 0.97219 0.0
C377 C 0.40363 0.95438 0.9432 0.0
C378 C 0.41471 0.94946 0.96786 0.0
C379 C 0.43104 0.97085 0.98223 0.0
C380 C 0.42465 1.00232 0.94781 0.0
C381 C 0.4086 0.98099 0.93338 0.0
C382 C 0.4546 1.01982 0.98581 0.0
C383 C 0.55014 0.07672 1.0116 0.0
C384 C 0.54715 0.99508 1.00684 0.0
C385 C 0.6124 0.05972 0.10501 0.0
C386 C 0.64605 0.09894 0.13731 0.0
C387 C 0.63349 0.10678 0.11443 0.0
C388 C 0.61661 0.08727 0.09842 0.0
C389 C 0.62469 0.05188 0.12787 0.0
C390 C 0.64138 0.07135 0.14396 0.0
C391 C 0.59539 0.03883 0.08831 0.0
H392 H 0.41119 0.92908 0.97574 0.0
H393 H 0.44008 0.9667 1.00093 0.0
H394 H 0.42853 1.02267 0.93978 0.0
H395 H 0.39991 0.98533 0.91459 0.0
H396 H 0.63656 0.12796 0.10907 0.0
H397 H 0.60699 0.09365 0.08089 0.0
H398 H 0.62152 0.03067 0.13318 0.0
H399 H 0.65105 0.0648 0.16137 0.0
Dy400 Dy 0.53008 0.50521 0.52779 0.0
Dy401 Dy 0.52823 0.56027 0.56028 0.0
C402 C 0.5541 0.51354 0.58706 0.0
O403 O 0.48447 0.49868 0.54017 0.0
O404 O 0.49007 0.52969 0.57368 0.0
O405 O 0.53046 0.46272 0.52545 0.0
O406 O 0.53168 0.48649 0.48997 0.0
O407 O 0.49814 0.55885 0.52624 0.0
O408 O 0.52182 0.53621 0.49905 0.0
O409 O 0.56628 0.57115 0.53403 0.0
O410 O 0.57516 0.52894 0.5286 0.0
O411 O 0.52927 0.60311 0.55992 0.0
O412 O 0.52496 0.58097 0.59668 0.0
C413 C 0.47487 0.50874 0.56113 0.0
O414 O 0.54041 0.49659 0.56942 0.0
O415 O 0.55674 0.53986 0.58446 0.0
C416 C 0.55935 0.45385 0.4907 0.0
C417 C 0.60723 0.43694 0.47119 0.0
C418 C 0.60685 0.446 0.49723 0.0
C419 C 0.58325 0.45456 0.50682 0.0
C420 C 0.55963 0.44502 0.46472 0.0
C421 C 0.58337 0.43674 0.455 0.0
C422 C 0.53476 0.46373 0.5002 0.0
C423 C 0.50429 0.55228 0.50247 0.0
C424 C 0.58314 0.55543 0.52666 0.0
C425 C 0.49834 0.61406 0.59151 0.0
C426 C 0.44937 0.63163 0.6067 0.0
C427 C 0.44809 0.61346 0.58575 0.0
C428 C 0.47236 0.60462 0.57831 0.0
C429 C 0.49982 0.63244 0.61215 0.0
C430 C 0.47551 0.64116 0.61972 0.0
C431 C 0.52336 0.60346 0.58485 0.0
H432 H 0.62458 0.44608 0.51042 0.0
H433 H 0.58373 0.46172 0.52685 0.0
H434 H 0.54156 0.44477 0.45186 0.0
H435 H 0.58308 0.43041 0.43472 0.0
H436 H 0.42819 0.60556 0.57557 0.0
H437 H 0.47075 0.59009 0.56253 0.0
H438 H 0.51966 0.63977 0.62262 0.0
H439 H 0.47716 0.65538 0.63576 0.0
Dy440 Dy 0.02394 0.56113 1.02207 0.0
Dy441 Dy 0.02594 0.50556 0.05502 0.0
C442 C 0.99817 0.55207 0.07971 0.0
O443 O 0.06095 0.57242 0.04944 0.0
O444 O 0.07076 0.53052 0.05477 0.0
O445 O 0.02424 0.60384 1.02073 0.0
O446 O 0.02157 0.58094 0.98476 0.0
O447 O 0.03734 0.49782 1.01382 0.0
O448 O 0.05389 0.5415 0.99971 0.0
O449 O 0.98028 0.4986 0.04158 0.0
O450 O 0.98649 0.53009 1.00821 0.0
O451 O 0.02332 0.46244 0.05777 0.0
O452 O 0.03305 0.48752 0.09227 0.0
C453 C 0.07814 0.55702 0.05698 0.0
O454 O 0.99445 0.561 0.05597 0.0
O455 O 1.01344 0.53396 0.08375 0.0
C456 C 0.99365 0.61302 0.98767 0.0
C457 C 0.94438 0.63035 0.97222 0.0
C458 C 0.94235 0.60764 0.98868 0.0
C459 C 0.96678 0.59906 0.99633 0.0
C460 C 0.99587 0.63551 0.97108 0.0
C461 C 0.97139 0.64414 0.96338 0.0
C462 C 1.01907 0.60354 0.99557 0.0
C463 C 0.05137 0.51527 0.99681 0.0
C464 C 0.97101 0.50902 1.02038 0.0
C465 C 0.05714 0.45248 0.08797 0.0
C466 C 0.10669 0.43443 0.1013 0.0
C467 C 0.10353 0.44493 0.07613 0.0
C468 C 0.07905 0.45408 0.06958 0.0
C469 C 0.06014 0.44185 0.11302 0.0
C470 C 0.08476 0.43296 0.11968 0.0
C471 C 0.03226 0.46388 0.08205 0.0
H472 H 0.92185 0.59636 0.99551 0.0
H473 H 0.96472 0.58146 1.00899 0.0
H474 H 1.01649 0.64641 0.96417 0.0
H475 H 0.97363 0.66186 0.9509 0.0
H476 H 0.12025 0.44658 0.0617 0.0
H477 H 0.07745 0.46275 0.05029 0.0
H478 H 0.04361 0.44079 0.12756 0.0
H479 H 0.08657 0.42477 0.13915 0.0
H480 H 0.28189 0.19717 0.34877 0.0
H481 H 0.20712 0.22796 0.33064 0.0
H482 H 0.25461 0.16629 0.38113 0.0
H483 H 0.18032 0.19789 0.3635 0.0
H484 H 0.13429 0.11501 0.39561 0.0
H485 H 0.16265 0.14812 0.36592 0.0
H486 H 0.2297 0.1664 0.42419 0.0
H487 H 0.20144 0.13278 0.45377 0.0
C488 C 0.25976 0.19755 0.35191 0.0
C489 C 0.24664 0.21497 0.33719 0.0
C490 C 0.24426 0.18007 0.37054 0.0
C491 C 0.21537 0.17968 0.37467 0.0
C492 C 0.20249 0.19761 0.36048 0.0
C493 C 0.21795 0.21506 0.34192 0.0
C494 C 0.15514 0.12605 0.40199 0.0
C495 C 0.16578 0.1214 0.42687 0.0
C496 C 0.17122 0.14515 0.38514 0.0
C497 C 0.19829 0.15985 0.39285 0.0
C498 C 0.20895 0.15521 0.41776 0.0
C499 C 0.19274 0.1362 0.43471 0.0
H500 H 0.32009 0.84617 0.82055 0.0
H501 H 0.25533 0.8704 0.86704 0.0
H502 H 0.35586 0.86503 0.85343 0.0
H503 H 0.29131 0.89019 0.89943 0.0
H504 H 0.35912 0.9148 0.95991 0.0
H505 H 0.32629 0.88234 0.93253 0.0
H506 H 0.3763 0.91243 0.86413 0.0
H507 H 0.40929 0.94419 0.89152 0.0
C508 C 0.31339 0.85502 0.83805 0.0
C509 C 0.28495 0.857 0.84117 0.0
C510 C 0.33392 0.86601 0.85675 0.0
C511 C 0.32639 0.8792 0.87888 0.0
C512 C 0.2977 0.87989 0.88269 0.0
C513 C 0.27716 0.86889 0.864 0.0
C514 C 0.3634 0.91389 0.93913 0.0
C515 C 0.38641 0.93213 0.92767 0.0
C516 C 0.34456 0.89551 0.92347 0.0
C517 C 0.34862 0.89504 0.8962 0.0
C518 C 0.37272 0.91214 0.8851 0.0
C519 C 0.39143 0.93052 0.9007 0.0
H520 H 0.57555 0.40708 0.71606 0.0
H521 H 0.64203 0.47783 0.73192 0.0
H522 H 0.56156 0.42891 0.67722 0.0
H523 H 0.62867 0.49947 0.69209 0.0
H524 H 0.57599 0.53966 0.63269 0.0
H525 H 0.5924 0.5197 0.67215 0.0
H526 H 0.5762 0.44177 0.63404 0.0
H527 H 0.55925 0.46142 0.59519 0.0
C528 C 0.58722 0.42738 0.71134 0.0
C529 C 0.60987 0.44064 0.72746 0.0
C530 C 0.57941 0.43984 0.6887 0.0
C531 C 0.59401 0.46603 0.68116 0.0
C532 C 0.61671 0.4794 0.69724 0.0
C533 C 0.6246 0.46684 0.72 0.0
C534 C 0.57608 0.51829 0.63271 0.0
C535 C 0.56602 0.50218 0.6107 0.0
C536 C 0.58562 0.50682 0.65536 0.0
C537 C 0.58543 0.47894 0.65661 0.0
C538 C 0.5761 0.46313 0.63425 0.0
C539 C 0.56649 0.47451 0.61177 0.0
H540 H 0.91181 0.63777 0.19152 0.0
H541 H 0.97031 0.60362 0.23849 0.0
H542 H 0.92622 0.61699 0.15269 0.0
H543 H 0.98663 0.58503 0.19928 0.0
H544 H 0.99276 0.53201 0.1298 0.0
H545 H 0.97566 0.5513 0.16833 0.0
H546 H 0.961 0.61829 0.12131 0.0
H547 H 0.97687 0.5981 0.08243 0.0
C548 C 0.92776 0.62587 0.19373 0.0
C549 C 0.9396 0.62239 0.21856 0.0
C550 C 0.93648 0.61428 0.17116 0.0
C551 C 0.95771 0.59915 0.1725 0.0
C552 C 0.96986 0.59602 0.19726 0.0
C553 C 0.9608 0.60723 0.21989 0.0
C554 C 0.98569 0.55077 0.1276 0.0
C555 C 0.9862 0.56344 0.1029 0.0
C556 C 0.97609 0.56207 0.14988 0.0
C557 C 0.96707 0.58666 0.14833 0.0
C558 C 0.96732 0.59918 0.12347 0.0
C559 C 0.97657 0.58764 0.10107 0.0
H560 H 0.39232 0.16356 0.1253 0.0
H561 H 0.46573 0.18413 0.17647 0.0
H562 H 0.41508 0.13308 0.10101 0.0
H563 H 0.48881 0.15375 0.1519 0.0
H564 H 0.50546 0.0735 0.11978 0.0
H565 H 0.48464 0.10569 0.14419 0.0
H566 H 0.4536 0.13326 0.07155 0.0
H567 H 0.47354 0.10083 0.0474 0.0
C568 C 0.41356 0.16192 0.13106 0.0
C569 C 0.42728 0.17632 0.15273 0.0
C570 C 0.42662 0.14441 0.11716 0.0
C571 C 0.45379 0.14097 0.12451 0.0
C572 C 0.46769 0.15563 0.14599 0.0
C573 C 0.45455 0.1731 0.15999 0.0
C574 C 0.49421 0.08647 0.10908 0.0
C575 C 0.49097 0.08443 0.08169 0.0
C576 C 0.48243 0.10502 0.12302 0.0
C577 C 0.46732 0.12195 0.10982 0.0
C578 C 0.46461 0.12018 0.0824 0.0
C579 C 0.47619 0.10161 0.06853 0.0
H580 H 0.08684 0.84894 0.62237 0.0
H581 H 0.15465 0.90934 0.65694 0.0
H582 H 0.06409 0.88466 0.60669 0.0
H583 H 0.13147 0.94492 0.64205 0.0
H584 H 0.10293 0.99895 0.57896 0.0
H585 H 0.12363 0.96433 0.59941 0.0
H586 H 0.03975 0.91979 0.6216 0.0
H587 H 1.0188 0.95429 0.60062 0.0
C588 C 0.09675 0.86983 0.62675 0.0
C589 C 0.12256 0.87636 0.64076 0.0
C590 C 0.08358 0.89024 0.61805 0.0
C591 C 0.09604 0.91758 0.62311 0.0
C592 C 0.12152 0.92405 0.63764 0.0
C593 C 0.13463 0.90366 0.64638 0.0
C594 C 0.08885 0.98194 0.58841 0.0
C595 C 0.05919 0.97934 0.5881 0.0
C596 C 0.10077 0.96215 0.60026 0.0
C597 C 0.08331 0.93934 0.61209 0.0
C598 C 0.05369 0.93702 0.61236 0.0
C599 C 0.04173 0.95686 0.60049 0.0
H600 H 0.80311 0.48392 0.94823 0.0
H601 H 0.82833 0.40855 0.93439 0.0
H602 H 0.84543 0.49951 0.97508 0.0
H603 H 0.87094 0.42426 0.96159 0.0
H604 H 0.93667 0.45793 1.02821 0.0
H605 H 0.89084 0.43855 1.00666 0.0
H606 H 0.89573 0.5138 0.9648 0.0
H607 H 0.94068 0.53298 0.98614 0.0
C608 C 0.81769 0.47062 0.95088 0.0
C609 C 0.81246 0.44515 0.93863 0.0
C610 C 0.842 0.47958 0.96638 0.0
C611 C 0.8619 0.46335 0.97021 0.0
C612 C 0.85603 0.43726 0.95914 0.0
C613 C 0.83159 0.42827 0.94352 0.0
C614 C 0.92773 0.47034 1.0146 0.0
C615 C 0.94243 0.49703 1.00897 0.0
C616 C 0.9016 0.45918 1.0021 0.0
C617 C 0.88946 0.47465 0.98406 0.0
C618 C 0.9041 0.50138 0.97883 0.0
C619 C 0.93012 0.51235 0.99102 0.0
H620 H 0.74279 0.65945 0.46931 0.0
H621 H 0.72496 0.58958 0.4187 0.0
H622 H 0.70113 0.63938 0.49583 0.0
H623 H 0.6831 0.56993 0.44455 0.0
H624 H 0.62384 0.52976 0.50879 0.0
H625 H 0.66808 0.54971 0.48627 0.0
H626 H 0.64954 0.62899 0.49323 0.0
H627 H 0.60561 0.60914 0.51628 0.0
C628 C 0.73008 0.63977 0.46393 0.0
C629 C 0.73715 0.62623 0.44178 0.0
C630 C 0.70602 0.62835 0.47897 0.0
C631 C 0.68862 0.60299 0.47237 0.0
C632 C 0.69608 0.58931 0.45047 0.0
C633 C 0.71995 0.60076 0.43542 0.0
C634 C 0.62929 0.55149 0.50577 0.0
C635 C 0.61105 0.56779 0.51443 0.0
C636 C 0.65462 0.56294 0.49265 0.0
C637 C 0.66244 0.59101 0.48776 0.0
C638 C 0.64447 0.60737 0.4969 0.0
C639 C 0.61914 0.59592 0.51004 0.0
H640 H 0.26134 0.37207 0.10214 0.0
H641 H 0.23386 0.36773 0.18296 0.0
H642 H 0.22424 0.39571 0.09056 0.0
H643 H 0.19544 0.38948 0.17101 0.0
H644 H 0.13929 0.44566 0.14566 0.0
H645 H 0.18174 0.42931 0.15743 0.0
H646 H 0.17448 0.38458 0.0847 0.0
H647 H 0.13275 0.40172 0.07272 0.0
C648 C 0.2476 0.37636 0.11752 0.0
C649 C 0.2505 0.3677 0.14345 0.0
C650 C 0.22596 0.38955 0.11078 0.0
C651 C 0.20647 0.39416 0.12973 0.0
C652 C 0.21008 0.38646 0.15587 0.0
C653 C 0.23193 0.37358 0.16267 0.0
C654 C 0.14688 0.43235 0.13224 0.0
C655 C 0.13274 0.4249 0.1083 0.0
C656 C 0.17116 0.42293 0.13897 0.0
C657 C 0.18164 0.40559 0.12204 0.0
C658 C 0.16748 0.39834 0.09801 0.0
C659 C 0.14343 0.40802 0.09117 0.0
H660 H 0.59819 0.21003 0.89806 0.0
H661 H 0.62398 0.24588 0.97346 0.0
H662 H 0.58009 0.1663 0.91938 0.0
H663 H 0.60524 0.20267 0.9949 0.0
H664 H 0.59661 0.11676 1.02459 0.0
H665 H 0.61417 0.1599 1.00231 0.0
H666 H 0.54522 0.1398 0.94601 0.0
H667 H 0.5286 0.09625 0.9676 0.0
C668 C 0.59959 0.20867 0.91923 0.0
C669 C 0.6128 0.23143 0.93398 0.0
C670 C 0.58918 0.18356 0.93154 0.0
C671 C 0.5914 0.18061 0.959 0.0
C672 C 0.60378 0.20372 0.97373 0.0
C673 C 0.6144 0.22866 0.96141 0.0
C674 C 0.58531 0.12151 1.00738 0.0
C675 C 0.56128 0.10292 0.99786 0.0
C676 C 0.59523 0.14643 0.99465 0.0
C677 C 0.58113 0.15367 0.97226 0.0
C678 C 0.55705 0.13496 0.96282 0.0
C679 C 0.54739 0.10992 0.97534 0.0
H680 H 0.94217 0.86252 0.3984 0.0
H681 H 0.93055 0.81653 0.47077 0.0
H682 H 0.95872 0.90401 0.4231 0.0
H683 H 0.94624 0.85861 0.49557 0.0
H684 H 0.95113 0.9473 0.52776 0.0
H685 H 0.93195 0.90458 0.50469 0.0
H686 H 1.00266 0.92232 0.45102 0.0
H687 H 0.02193 0.96453 0.47406 0.0
C688 C 0.94316 0.86114 0.41958 0.0
C689 C 0.93538 0.83588 0.43244 0.0
C690 C 0.95256 0.88505 0.43375 0.0
C691 C 0.95403 0.88461 0.46128 0.0
C692 C 0.9452 0.85962 0.47436 0.0
C693 C 0.93611 0.83551 0.46011 0.0
C694 C 0.96249 0.94207 0.51099 0.0
C695 C 0.98801 0.95939 0.50271 0.0
C696 C 0.95162 0.91754 0.49791 0.0
C697 C 0.96572 0.91012 0.47596 0.0
C698 C 0.99114 0.92754 0.4677 0.0
C699 C 1.00224 0.9517 0.481 0.0
H700 H 0.32485 0.72644 0.63385 0.0
H701 H 0.3012 0.66049 0.6893 0.0
H702 H 0.35988 0.70428 0.61471 0.0
H703 H 0.33657 0.63851 0.67031 0.0
H704 H 0.4308 0.6346 0.65675 0.0
H705 H 0.3894 0.65072 0.67128 0.0
H706 H 0.36753 0.66375 0.5906 0.0
H707 H 0.40941 0.64804 0.57605 0.0
C708 C 0.32661 0.70689 0.64154 0.0
C709 C 0.31041 0.69535 0.66327 0.0
C710 C 0.34675 0.69423 0.6306 0.0
C711 C 0.35118 0.66983 0.64122 0.0
C712 C 0.33395 0.65756 0.66203 0.0
C713 C 0.31373 0.67015 0.67289 0.0
C714 C 0.41718 0.64095 0.64213 0.0
C715 C 0.42345 0.6403 0.61529 0.0
C716 C 0.39328 0.64985 0.65041 0.0
C717 C 0.3752 0.65843 0.63206 0.0
C718 C 0.38119 0.65738 0.60518 0.0
C719 C 0.40503 0.64826 0.59686 0.0
H720 H 0.79628 0.81815 0.70772 0.0
H721 H 0.79405 0.88499 0.75943 0.0
H722 H 0.82178 0.84993 0.6751 0.0
H723 H 0.81939 0.91659 0.72695 0.0
H724 H 0.84521 0.9681 0.65489 0.0
H725 H 0.81422 0.93485 0.68263 0.0
H726 H 0.87012 0.87975 0.67271 0.0
H727 H 0.90124 0.91305 0.64513 0.0
C728 C 0.80111 0.83961 0.71202 0.0
C729 C 0.79317 0.84912 0.73606 0.0
C730 C 0.81568 0.85775 0.69341 0.0
C731 C 0.82253 0.88567 0.69853 0.0
C732 C 0.81396 0.89521 0.7223 0.0
C733 C 0.79943 0.87711 0.74088 0.0
C734 C 0.85084 0.94886 0.65862 0.0
C735 C 0.87572 0.94322 0.64802 0.0
C736 C 0.83309 0.92985 0.67443 0.0
C737 C 0.83985 0.9048 0.67986 0.0
C738 C 0.86421 0.89878 0.66855 0.0
C739 C 0.88202 0.91783 0.65277 0.0
H740 H 0.75421 0.17728 0.26244 0.0
H741 H 0.74725 0.24346 0.21069 0.0
H742 H 0.72648 0.14523 0.23164 0.0
H743 H 0.71847 0.21136 0.18027 0.0
H744 H 0.68844 0.1413 0.12198 0.0
H745 H 0.72016 0.17373 0.15016 0.0
H746 H 0.67618 0.13484 0.21859 0.0
H747 H 0.64473 0.10242 0.19047 0.0
C748 C 0.74714 0.18494 0.24428 0.0
C749 C 0.75285 0.21287 0.23895 0.0
C750 C 0.73093 0.16663 0.22683 0.0
C751 C 0.72004 0.17587 0.20376 0.0
C752 C 0.72668 0.20369 0.19789 0.0
C753 C 0.74294 0.22205 0.21536 0.0
C754 C 0.68547 0.13991 0.14304 0.0
C755 C 0.6643 0.11935 0.15413 0.0
C756 C 0.7036 0.1584 0.15913 0.0
C757 C 0.70078 0.1566 0.18653 0.0
C758 C 0.67924 0.13632 0.19754 0.0
C759 C 0.6612 0.11784 0.18149 0.0
H760 H 0.4309 0.65125 0.39161 0.0
H761 H 0.45178 0.58801 0.34401 0.0
H762 H 0.44927 0.63244 0.43007 0.0
H763 H 0.46722 0.56762 0.38287 0.0
H764 H 0.52055 0.55064 0.45136 0.0
H765 H 0.50289 0.57041 0.41308 0.0
H766 H 0.44248 0.59901 0.4617 0.0
H767 H 0.46151 0.58039 0.50035 0.0
C768 C 0.43932 0.63332 0.38917 0.0
C769 C 0.43983 0.62146 0.36426 0.0
C770 C 0.44941 0.62211 0.41156 0.0
C771 C 0.45987 0.59831 0.40997 0.0
C772 C 0.45994 0.5862 0.38513 0.0
C773 C 0.45043 0.59772 0.36267 0.0
C774 C 0.50349 0.56115 0.45395 0.0
C775 C 0.49249 0.56387 0.47905 0.0
C776 C 0.49309 0.57238 0.4318 0.0
C777 C 0.47097 0.58636 0.43389 0.0
C778 C 0.45981 0.58888 0.45908 0.0
C779 C 0.47057 0.57797 0.48135 0.0
H780 H 0.13542 0.42677 0.887 0.0
H781 H 0.08947 0.47223 0.8375 0.0
H782 H 0.12013 0.44749 0.92562 0.0
H783 H 0.07281 0.49173 0.87635 0.0
H784 H 0.06982 0.5418 0.95072 0.0
H785 H 0.088 0.52327 0.91182 0.0
H786 H 0.07843 0.44597 0.95112 0.0
H787 H 0.06083 0.46456 0.98993 0.0
C788 C 0.12213 0.44123 0.88424 0.0
C789 C 0.11384 0.44775 0.85889 0.0
C790 C 0.11299 0.45287 0.90653 0.0
C791 C 0.0951 0.47129 0.90425 0.0
C792 C 0.08682 0.4779 0.87894 0.0
C793 C 0.09608 0.46634 0.8566 0.0
C794 C 0.07188 0.52094 0.95112 0.0
C795 C 0.06387 0.50471 0.97351 0.0
C796 C 0.08206 0.51021 0.92871 0.0
C797 C 0.08471 0.48305 0.9282 0.0
C798 C 0.07705 0.46703 0.95079 0.0
C799 C 0.06674 0.47767 0.97306 0.0
H800 H 0.66299 0.90441 0.94219 0.0
H801 H 0.58188 0.86592 0.90825 0.0
H802 H 0.64047 0.93519 0.96622 0.0
H803 H 0.55874 0.89578 0.93335 0.0
H804 H 0.53123 0.97208 0.95925 0.0
H805 H 0.55296 0.94007 0.9357 0.0
H806 H 0.61127 0.93992 1.00071 0.0
H807 H 0.59075 0.97324 1.02312 0.0
C808 C 0.64017 0.90223 0.94034 0.0
C809 C 0.62413 0.88282 0.92344 0.0
C810 C 0.62716 0.9198 0.9542 0.0
C811 C 0.59767 0.91808 0.95184 0.0
C812 C 0.58155 0.89814 0.9353 0.0
C813 C 0.59471 0.88087 0.92106 0.0
C814 C 0.54877 0.96517 0.96832 0.0
C815 C 0.55959 0.97527 0.99276 0.0
C816 C 0.5611 0.94665 0.95499 0.0
C817 C 0.58402 0.93734 0.9662 0.0
C818 C 0.59422 0.94707 0.99107 0.0
C819 C 0.58238 0.96608 1.00402 0.0
H820 H 0.91042 0.18607 0.45776 0.0
H821 H 0.95527 0.17031 0.38843 0.0
H822 H 0.93409 0.15674 0.48325 0.0
H823 H 0.97726 0.13938 0.41343 0.0
H824 H 0.02953 0.10035 0.47031 0.0
H825 H 1.0105 0.1342 0.44603 0.0
H826 H 0.93117 0.11011 0.48824 0.0
H827 H 0.95072 0.07744 0.51318 0.0
C828 C 0.92551 0.17655 0.44797 0.0
C829 C 0.93075 0.18042 0.42097 0.0
C830 C 0.93875 0.15933 0.46251 0.0
C831 C 0.95728 0.14529 0.45035 0.0
C832 C 0.96327 0.14992 0.42354 0.0
C833 C 0.95032 0.1674 0.40909 0.0
C834 C 1.00799 0.1023 0.47423 0.0
C835 C 0.99161 0.08636 0.49361 0.0
C836 C 0.99705 0.12165 0.46033 0.0
C837 C 0.96933 0.12509 0.46528 0.0
C838 C 0.95284 0.10861 0.48435 0.0
C839 C 0.96394 0.08966 0.49849 0.0
H840 H 0.2542 0.60786 0.11542 0.0
H841 H 0.2039 0.6512 0.16138 0.0
H842 H 0.21207 0.58801 0.0893 0.0
H843 H 0.16177 0.63045 0.13618 0.0
H844 H 0.09675 0.61002 0.07103 0.0
H845 H 0.14082 0.63118 0.09323 0.0
H846 H 0.16666 0.5548 0.09368 0.0
H847 H 0.12247 0.53353 0.07103 0.0
C848 C 0.23428 0.61336 0.11987 0.0
C849 C 0.23259 0.63119 0.14062 0.0
C850 C 0.21001 0.60165 0.10509 0.0
C851 C 0.18344 0.60753 0.11063 0.0
C852 C 0.18188 0.62566 0.13111 0.0
C853 C 0.20607 0.63735 0.14581 0.0
C854 C 0.11187 0.59769 0.07562 0.0
C855 C 0.10593 0.56999 0.06925 0.0
C856 C 0.13712 0.60984 0.08857 0.0
C857 C 0.15729 0.59471 0.09547 0.0
C858 C 0.15173 0.56714 0.08852 0.0
C859 C 0.1263 0.55489 0.07565 0.0
H860 H 0.33332 0.40574 0.64413 0.0
H861 H 0.3003 0.47405 0.6175 0.0
H862 H 0.37762 0.42377 0.62056 0.0
H863 H 0.34488 0.49238 0.59511 0.0
H864 H 0.4413 0.53231 0.59197 0.0
H865 H 0.39532 0.51161 0.61112 0.0
H866 H 0.39747 0.43585 0.5737 0.0
H867 H 0.44367 0.45672 0.55417 0.0
C868 C 0.33522 0.42435 0.63305 0.0
C869 C 0.31312 0.43851 0.63313 0.0
C870 C 0.36072 0.43473 0.61962 0.0
C871 C 0.36486 0.45965 0.60622 0.0
C872 C 0.34253 0.47336 0.60562 0.0
C873 C 0.31697 0.46284 0.61864 0.0
C874 C 0.43198 0.51126 0.58769 0.0
C875 C 0.44619 0.49617 0.57152 0.0
C876 C 0.40553 0.49944 0.59858 0.0
C877 C 0.39274 0.47209 0.59392 0.0
C878 C 0.40687 0.45693 0.57774 0.0
C879 C 0.4332 0.46893 0.56643 0.0
H880 H 0.79574 0.67101 0.89651 0.0
H881 H 0.80837 0.71586 0.96917 0.0
H882 H 0.83572 0.65055 0.90763 0.0
H883 H 0.84798 0.69526 0.9803 0.0
H884 H 0.90008 0.63466 1.00378 0.0
H885 H 0.85784 0.65122 0.9921 0.0
H886 H 0.88816 0.66512 0.91251 0.0
H887 H 0.9301 0.6477 0.92401 0.0
C888 C 0.80699 0.67647 0.91486 0.0
C889 C 0.79877 0.69498 0.93202 0.0
C890 C 0.82988 0.66477 0.92119 0.0
C891 C 0.84493 0.67126 0.94486 0.0
C892 C 0.83648 0.68949 0.96213 0.0
C893 C 0.81371 0.70123 0.95578 0.0
C894 C 0.89757 0.64091 0.98371 0.0
C895 C 0.91845 0.63994 0.96483 0.0
C896 C 0.87351 0.65064 0.97708 0.0
C897 C 0.86976 0.65959 0.95143 0.0
C898 C 0.89037 0.65817 0.9324 0.0
C899 C 0.91452 0.64851 0.93905 0.0
H900 H 0.47402 0.81865 0.12502 0.0
H901 H 0.40101 0.84586 0.15387 0.0
H902 H 0.48995 0.86137 0.10196 0.0
H903 H 0.41684 0.88865 0.13017 0.0
H904 H 0.44446 0.95367 0.06424 0.0
H905 H 0.42535 0.91018 0.08602 0.0
H906 H 0.50974 0.90822 0.11384 0.0
H907 H 0.52877 0.95109 0.09206 0.0
C908 C 0.46132 0.83373 0.12655 0.0
C909 C 0.43636 0.82874 0.14174 0.0
C910 C 0.4705 0.85831 0.11323 0.0
C911 C 0.45491 0.87867 0.11443 0.0
C912 C 0.42932 0.87338 0.1287 0.0
C913 C 0.4202 0.84876 0.14225 0.0
C914 C 0.4589 0.94396 0.07505 0.0
C915 C 0.48821 0.95592 0.07622 0.0
C916 C 0.44792 0.91907 0.08762 0.0
C917 C 0.46602 0.90552 0.10152 0.0
C918 C 0.49521 0.91773 0.10291 0.0
C919 C 0.50613 0.94251 0.09047 0.0
H920 H 0.12039 0.25065 0.60874 0.0
H921 H 0.10566 0.20661 0.68195 0.0
H922 H 0.10393 0.20829 0.58465 0.0
H923 H 0.08979 0.16449 0.65815 0.0
H924 H 0.03197 0.09905 0.61126 0.0
H925 H 0.05022 0.14175 0.6334 0.0
H926 H 0.11318 0.16524 0.57263 0.0
H927 H 0.09414 0.1226 0.54989 0.0
C928 C 0.11405 0.23189 0.61968 0.0
C929 C 0.11404 0.2321 0.64728 0.0
C930 C 0.1046 0.20757 0.60588 0.0
C931 C 0.09509 0.18286 0.61939 0.0
C932 C 0.09615 0.18309 0.64699 0.0
C933 C 0.1054 0.20731 0.6607 0.0
C934 C 0.04977 0.11324 0.60259 0.0
C935 C 0.06169 0.10723 0.57885 0.0
C936 C 0.06039 0.13777 0.61541 0.0
C937 C 0.08347 0.157 0.60505 0.0
C938 C 0.09526 0.1511 0.58113 0.0
C939 C 0.08444 0.12655 0.56815 0.0
H940 H 0.77353 0.40607 0.42724 0.0
H941 H 0.71462 0.32842 0.4319 0.0
H942 H 0.73468 0.42871 0.43637 0.0
H943 H 0.67619 0.35056 0.44217 0.0
H944 H 0.60663 0.39466 0.43774 0.0
H945 H 0.64653 0.37649 0.42362 0.0
H946 H 0.70374 0.43673 0.46981 0.0
H947 H 0.66403 0.45635 0.48223 0.0
C948 C 0.7523 0.39392 0.43052 0.0
C949 C 0.74692 0.36561 0.42881 0.0
C950 C 0.73006 0.4068 0.43579 0.0
C951 C 0.70217 0.3915 0.43981 0.0
C952 C 0.69714 0.36309 0.43849 0.0
C953 C 0.71919 0.35034 0.43285 0.0
C954 C 0.62776 0.4045 0.44441 0.0
C955 C 0.63198 0.42687 0.46135 0.0
C956 C 0.65067 0.39376 0.43665 0.0
C957 C 0.67837 0.40478 0.44595 0.0
C958 C 0.68276 0.42773 0.46217 0.0
C959 C 0.65987 0.43873 0.46964 0.0
loop_
_geom_bond_atom_site_label_1
_geom_bond_atom_site_label_2
_geom_bond_distance
_geom_bond_site_symmetry_2
_ccdc_geom_bond_type
C0 C1 1.264 . S
C0 C5 1.479 . S
C0 C10 1.465 . S
C1 C0 1.264 . S
C1 C3 1.339 . S
C1 H28 0.931 . S
C2 C3 1.395 . S
C2 C4 1.320 . S
C3 C1 1.339 . S
C3 C2 1.395 . S
C3 H29 0.929 . S
C4 C2 1.320 . S
C4 C5 1.405 . S
C4 H30 0.930 . S
C5 C0 1.479 . S
C5 C4 1.405 . S
C5 H31 0.931 . S
U6 O7 2.454 . S
U6 O8 2.458 . S
U6 C9 2.984 . S
U6 C10 2.847 . S
U6 C23 2.882 . S
U6 O24 2.441 . S
U6 O25 2.420 . S
U6 O26 2.455 . S
U6 O27 2.449 . S
O7 U6 2.454 . S
O7 C9 1.353 . S
O8 U6 2.458 . S
O8 C9 1.286 . S
C9 U6 2.984 . S
C9 O7 1.353 . S
C9 O8 1.286 . S
C9 C11 1.363 . S
C10 C0 1.465 . S
C10 U6 2.847 . S
C10 O24 1.249 . S
C10 O25 1.202 . S
C11 C9 1.363 . S
C11 C13 1.408 . S
C11 C16 1.342 . S
C12 C13 1.310 . S
C12 C15 1.461 . S
C12 H32 0.932 . S
C13 C11 1.408 . S
C13 C12 1.310 . S
C13 H33 0.930 . S
C14 C15 1.474 . S
C14 C16 1.285 . S
C14 H34 0.929 . S
C15 C12 1.461 . S
C15 C14 1.474 . S
C16 C11 1.342 . S
C16 C14 1.285 . S
C16 H35 0.930 . S
C17 C20 1.424 . S
C17 C22 1.245 . S
C17 C23 1.428 . S
C18 C21 1.260 . S
C18 C22 1.477 . S
C18 H36 0.932 . S
C19 C20 1.384 . S
C19 C21 1.479 . S
C19 H37 0.929 . S
C20 C17 1.424 . S
C20 C19 1.384 . S
C20 H38 0.928 . S
C21 C18 1.260 . S
C21 C19 1.479 . S
C22 C17 1.245 . S
C22 C18 1.477 . S
C22 H39 0.932 . S
C23 U6 2.882 . S
C23 C17 1.428 . S
C23 O26 1.301 . S
C23 O27 1.282 . S
O24 U6 2.441 . S
O24 C10 1.249 . S
O25 U6 2.420 . S
O25 C10 1.202 . S
O26 U6 2.455 . S
O26 C23 1.301 . S
O27 U6 2.449 . S
O27 C23 1.282 . S
H28 C1 0.931 . S
H29 C3 0.929 . S
H30 C4 0.930 . S
H31 C5 0.931 . S
H32 C12 0.932 . S
H33 C13 0.930 . S
H34 C14 0.929 . S
H35 C16 0.930 . S
H36 C18 0.932 . S
H37 C19 0.929 . S
H38 C20 0.928 . S
H39 C22 0.932 . S
C40 C41 1.264 . S
C40 C45 1.479 . S
C40 C50 1.465 . S
C41 C40 1.264 . S
C41 C43 1.339 . S
C41 H68 0.931 . S
C42 C43 1.395 . S
C42 C44 1.320 . S
C43 C41 1.339 . S
C43 C42 1.395 . S
C43 H69 0.929 . S
C44 C42 1.320 . S
C44 C45 1.405 . S
C44 H70 0.930 . S
C45 C40 1.479 . S
C45 C44 1.405 . S
C45 H71 0.931 . S
U46 O47 2.454 . S
U46 O48 2.458 . S
U46 C49 2.984 . S
U46 C50 2.847 . S
U46 C63 2.882 . S
U46 O64 2.441 . S
U46 O65 2.420 . S
U46 O66 2.455 . S
U46 O67 2.449 . S
O47 U46 2.454 . S
O47 C49 1.353 . S
O48 U46 2.458 . S
O48 C49 1.286 . S
C49 U46 2.984 . S
C49 O47 1.353 . S
C49 O48 1.286 . S
C49 C51 1.363 . S
C50 C40 1.465 . S
C50 U46 2.847 . S
C50 O64 1.249 . S
C50 O65 1.202 . S
C51 C49 1.363 . S
C51 C53 1.408 . S
C51 C56 1.342 . S
C52 C53 1.310 . S
C52 C55 1.461 . S
C52 H72 0.932 . S
C53 C51 1.408 . S
C53 C52 1.310 . S
C53 H73 0.930 . S
C54 C55 1.474 . S
C54 C56 1.285 . S
C54 H74 0.929 . S
C55 C52 1.461 . S
C55 C54 1.474 . S
C56 C51 1.342 . S
C56 C54 1.285 . S
C56 H75 0.930 . S
C57 C60 1.424 . S
C57 C62 1.245 . S
C57 C63 1.428 . S
C58 C61 1.260 . S
C58 C62 1.477 . S
C58 H76 0.932 . S
C59 C60 1.384 . S
C59 C61 1.479 . S
C59 H77 0.929 . S
C60 C57 1.424 . S
C60 C59 1.384 . S
C60 H78 0.928 . S
C61 C58 1.260 . S
C61 C59 1.479 . S
C62 C57 1.245 . S
C62 C58 1.477 . S
C62 H79 0.932 . S
C63 U46 2.882 . S
C63 C57 1.428 . S
C63 O66 1.301 . S
C63 O67 1.282 . S
O64 U46 2.441 . S
O64 C50 1.249 . S
O65 U46 2.420 . S
O65 C50 1.202 . S
O66 U46 2.455 . S
O66 C63 1.301 . S
O67 U46 2.449 . S
O67 C63 1.282 . S
H68 C41 0.931 . S
H69 C43 0.929 . S
H70 C44 0.930 . S
H71 C45 0.931 . S
H72 C52 0.932 . S
H73 C53 0.930 . S
H74 C54 0.929 . S
H75 C56 0.930 . S
H76 C58 0.932 . S
H77 C59 0.929 . S
H78 C60 0.928 . S
H79 C62 0.932 . S
C80 C81 1.264 . S
C80 C85 1.479 . S
C80 C90 1.465 . S
C81 C80 1.264 . S
C81 C83 1.339 . S
C81 H108 0.931 . S
C82 C83 1.395 . S
C82 C84 1.320 . S
C83 C81 1.339 . S
C83 C82 1.395 . S
C83 H109 0.929 . S
C84 C82 1.320 . S
C84 C85 1.405 . S
C84 H110 0.930 . S
C85 C80 1.479 . S
C85 C84 1.405 . S
C85 H111 0.931 . S
U86 O87 2.454 . S
U86 O88 2.458 . S
U86 C89 2.984 . S
U86 C90 2.847 . S
U86 C103 2.882 . S
U86 O104 2.441 . S
U86 O105 2.420 . S
U86 O106 2.455 . S
U86 O107 2.449 . S
O87 U86 2.454 . S
O87 C89 1.353 . S
O88 U86 2.458 . S
O88 C89 1.286 . S
C89 U86 2.984 . S
C89 O87 1.353 . S
C89 O88 1.286 . S
C89 C91 1.363 . S
C90 C80 1.465 . S
C90 U86 2.847 . S
C90 O104 1.249 . S
C90 O105 1.202 . S
C91 C89 1.363 . S
C91 C93 1.408 . S
C91 C96 1.342 . S
C92 C93 1.310 . S
C92 C95 1.461 . S
C92 H112 0.932 . S
C93 C91 1.408 . S
C93 C92 1.310 . S
C93 H113 0.930 . S
C94 C95 1.474 . S
C94 C96 1.285 . S
C94 H114 0.929 . S
C95 C92 1.461 . S
C95 C94 1.474 . S
C96 C91 1.342 . S
C96 C94 1.285 . S
C96 H115 0.930 . S
C97 C100 1.424 . S
C97 C102 1.245 . S
C97 C103 1.428 . S
C98 C101 1.260 . S
C98 C102 1.477 . S
C98 H116 0.932 . S
C99 C100 1.384 . S
C99 C101 1.479 . S
C99 H117 0.929 . S
C100 C97 1.424 . S
C100 C99 1.384 . S
C100 H118 0.928 . S
C101 C98 1.260 . S
C101 C99 1.479 . S
C102 C97 1.245 . S
C102 C98 1.477 . S
C102 H119 0.932 . S
C103 U86 2.882 . S
C103 C97 1.428 . S
C103 O106 1.301 . S
C103 O107 1.282 . S
O104 U86 2.441 . S
O104 C90 1.249 . S
O105 U86 2.420 . S
O105 C90 1.202 . S
O106 U86 2.455 . S
O106 C103 1.301 . S
O107 U86 2.449 . S
O107 C103 1.282 . S
H108 C81 0.931 . S
H109 C83 0.929 . S
H110 C84 0.930 . S
H111 C85 0.931 . S
H112 C92 0.932 . S
H113 C93 0.930 . S
H114 C94 0.929 . S
H115 C96 0.930 . S
H116 C98 0.932 . S
H117 C99 0.929 . S
H118 C100 0.928 . S
H119 C102 0.932 . S
C120 C121 1.264 . S
C120 C125 1.479 . S
C120 C130 1.465 . S
C121 C120 1.264 . S
C121 C123 1.339 . S
C121 H148 0.931 . S
C122 C123 1.395 . S
C122 C124 1.320 . S
C123 C121 1.339 . S
C123 C122 1.395 . S
C123 H149 0.929 . S
C124 C122 1.320 . S
C124 C125 1.405 . S
C124 H150 0.930 . S
C125 C120 1.479 . S
C125 C124 1.405 . S
C125 H151 0.931 . S
U126 O127 2.454 . S
U126 O128 2.458 . S
U126 C129 2.984 . S
U126 C130 2.847 . S
U126 C143 2.882 . S
U126 O144 2.441 . S
U126 O145 2.420 . S
U126 O146 2.455 . S
U126 O147 2.449 . S
O127 U126 2.454 . S
O127 C129 1.353 . S
O128 U126 2.458 . S
O128 C129 1.286 . S
C129 U126 2.984 . S
C129 O127 1.353 . S
C129 O128 1.286 . S
C129 C131 1.363 . S
C130 C120 1.465 . S
C130 U126 2.847 . S
C130 O144 1.249 . S
C130 O145 1.202 . S
C131 C129 1.363 . S
C131 C133 1.408 . S
C131 C136 1.342 . S
C132 C133 1.310 . S
C132 C135 1.461 . S
C132 H152 0.932 . S
C133 C131 1.408 . S
C133 C132 1.310 . S
C133 H153 0.930 . S
C134 C135 1.474 . S
C134 C136 1.285 . S
C134 H154 0.929 . S
C135 C132 1.461 . S
C135 C134 1.474 . S
C136 C131 1.342 . S
C136 C134 1.285 . S
C136 H155 0.930 . S
C137 C140 1.424 . S
C137 C142 1.245 . S
C137 C143 1.428 . S
C138 C141 1.260 . S
C138 C142 1.477 . S
C138 H156 0.932 . S
C139 C140 1.384 . S
C139 C141 1.479 . S
C139 H157 0.929 . S
C140 C137 1.424 . S
C140 C139 1.384 . S
C140 H158 0.928 . S
C141 C138 1.260 . S
C141 C139 1.479 . S
C142 C137 1.245 . S
C142 C138 1.477 . S
C142 H159 0.932 . S
C143 U126 2.882 . S
C143 C137 1.428 . S
C143 O146 1.301 . S
C143 O147 1.282 . S
O144 U126 2.441 . S
O144 C130 1.249 . S
O145 U126 2.420 . S
O145 C130 1.202 . S
O146 U126 2.455 . S
O146 C143 1.301 . S
O147 U126 2.449 . S
O147 C143 1.282 . S
H148 C121 0.931 . S
H149 C123 0.929 . S
H150 C124 0.930 . S
H151 C125 0.931 . S
H152 C132 0.932 . S
H153 C133 0.930 . S
H154 C134 0.929 . S
H155 C136 0.930 . S
H156 C138 0.932 . S
H157 C139 0.929 . S
H158 C140 0.928 . S
H159 C142 0.932 . S
C160 C161 1.264 . S
C160 C165 1.479 . S
C160 C170 1.465 . S
C161 C160 1.264 . S
C161 C163 1.339 . S
C161 H188 0.931 . S
C162 C163 1.395 . S
C162 C164 1.320 . S
C163 C161 1.339 . S
C163 C162 1.395 . S
C163 H189 0.929 . S
C164 C162 1.320 . S
C164 C165 1.405 . S
C164 H190 0.930 . S
C165 C160 1.479 . S
C165 C164 1.405 . S
C165 H191 0.931 . S
U166 O167 2.454 . S
U166 O168 2.458 . S
U166 C169 2.984 . S
U166 C170 2.847 . S
U166 C183 2.882 . S
U166 O184 2.441 . S
U166 O185 2.420 . S
U166 O186 2.455 . S
U166 O187 2.449 . S
O167 U166 2.454 . S
O167 C169 1.353 . S
O168 U166 2.458 . S
O168 C169 1.286 . S
C169 U166 2.984 . S
C169 O167 1.353 . S
C169 O168 1.286 . S
C169 C171 1.363 . S
C170 C160 1.465 . S
C170 U166 2.847 . S
C170 O184 1.249 . S
C170 O185 1.202 . S
C171 C169 1.363 . S
C171 C173 1.408 . S
C171 C176 1.342 . S
C172 C173 1.310 . S
C172 C175 1.461 . S
C172 H192 0.932 . S
C173 C171 1.408 . S
C173 C172 1.310 . S
C173 H193 0.930 . S
C174 C175 1.474 . S
C174 C176 1.285 . S
C174 H194 0.929 . S
C175 C172 1.461 . S
C175 C174 1.474 . S
C176 C171 1.342 . S
C176 C174 1.285 . S
C176 H195 0.930 . S
C177 C180 1.424 . S
C177 C182 1.245 . S
C177 C183 1.428 . S
C178 C181 1.260 . S
C178 C182 1.477 . S
C178 H196 0.932 . S
C179 C180 1.384 . S
C179 C181 1.479 . S
C179 H197 0.929 . S
C180 C177 1.424 . S
C180 C179 1.384 . S
C180 H198 0.928 . S
C181 C178 1.260 . S
C181 C179 1.479 . S
C182 C177 1.245 . S
C182 C178 1.477 . S
C182 H199 0.932 . S
C183 U166 2.882 . S
C183 C177 1.428 . S
C183 O186 1.301 . S
C183 O187 1.282 . S
O184 U166 2.441 . S
O184 C170 1.249 . S
O185 U166 2.420 . S
O185 C170 1.202 . S
O186 U166 2.455 . S
O186 C183 1.301 . S
O187 U166 2.449 . S
O187 C183 1.282 . S
H188 C161 0.931 . S
H189 C163 0.929 . S
H190 C164 0.930 . S
H191 C165 0.931 . S
H192 C172 0.932 . S
H193 C173 0.930 . S
H194 C174 0.929 . S
H195 C176 0.930 . S
H196 C178 0.932 . S
H197 C179 0.929 . S
H198 C180 0.928 . S
H199 C182 0.932 . S
C200 C201 1.264 . S
C200 C205 1.479 . S
C200 C210 1.465 . S
C201 C200 1.264 . S
C201 C203 1.339 . S
C201 H228 0.931 . S
C202 C203 1.395 . S
C202 C204 1.320 . S
C203 C201 1.339 . S
C203 C202 1.395 . S
C203 H229 0.929 . S
C204 C202 1.320 . S
C204 C205 1.405 . S
C204 H230 0.930 . S
C205 C200 1.479 . S
C205 C204 1.405 . S
C205 H231 0.931 . S
U206 O207 2.454 . S
U206 O208 2.458 . S
U206 C209 2.984 . S
U206 C210 2.847 . S
U206 C223 2.882 . S
U206 O224 2.441 . S
U206 O225 2.420 . S
U206 O226 2.455 . S
U206 O227 2.449 . S
O207 U206 2.454 . S
O207 C209 1.353 . S
O208 U206 2.458 . S
O208 C209 1.286 . S
C209 U206 2.984 . S
C209 O207 1.353 . S
C209 O208 1.286 . S
C209 C211 1.363 . S
C210 C200 1.465 . S
C210 U206 2.847 . S
C210 O224 1.249 . S
C210 O225 1.202 . S
C211 C209 1.363 . S
C211 C213 1.408 . S
C211 C216 1.342 . S
C212 C213 1.310 . S
C212 C215 1.461 . S
C212 H232 0.932 . S
C213 C211 1.408 . S
C213 C212 1.310 . S
C213 H233 0.930 . S
C214 C215 1.474 . S
C214 C216 1.285 . S
C214 H234 0.929 . S
C215 C212 1.461 . S
C215 C214 1.474 . S
C216 C211 1.342 . S
C216 C214 1.285 . S
C216 H235 0.930 . S
C217 C220 1.424 . S
C217 C222 1.245 . S
C217 C223 1.428 . S
C218 C221 1.260 . S
C218 C222 1.477 . S
C218 H236 0.932 . S
C219 C220 1.384 . S
C219 C221 1.479 . S
C219 H237 0.929 . S
C220 C217 1.424 . S
C220 C219 1.384 . S
C220 H238 0.928 . S
C221 C218 1.260 . S
C221 C219 1.479 . S
C222 C217 1.245 . S
C222 C218 1.477 . S
C222 H239 0.932 . S
C223 U206 2.882 . S
C223 C217 1.428 . S
C223 O226 1.301 . S
C223 O227 1.282 . S
O224 U206 2.441 . S
O224 C210 1.249 . S
O225 U206 2.420 . S
O225 C210 1.202 . S
O226 U206 2.455 . S
O226 C223 1.301 . S
O227 U206 2.449 . S
O227 C223 1.282 . S
H228 C201 0.931 . S
H229 C203 0.929 . S
H230 C204 0.930 . S
H231 C205 0.931 . S
H232 C212 0.932 . S
H233 C213 0.930 . S
H234 C214 0.929 . S
H235 C216 0.930 . S
H236 C218 0.932 . S
H237 C219 0.929 . S
H238 C220 0.928 . S
H239 C222 0.932 . S
C240 C241 1.264 . S
C240 C245 1.479 . S
C240 C250 1.465 . S
C241 C240 1.264 . S
C241 C243 1.339 . S
C241 H268 0.931 . S
C242 C243 1.395 . S
C242 C244 1.320 . S
C243 C241 1.339 . S
C243 C242 1.395 . S
C243 H269 0.929 . S
C244 C242 1.320 . S
C244 C245 1.405 . S
C244 H270 0.930 . S
C245 C240 1.479 . S
C245 C244 1.405 . S
C245 H271 0.931 . S
U246 O247 2.454 . S
U246 O248 2.458 . S
U246 C249 2.984 . S
U246 C250 2.847 . S
U246 C263 2.882 . S
U246 O264 2.441 . S
U246 O265 2.420 . S
U246 O266 2.455 . S
U246 O267 2.449 . S
O247 U246 2.454 . S
O247 C249 1.353 . S
O248 U246 2.458 . S
O248 C249 1.286 . S
C249 U246 2.984 . S
C249 O247 1.353 . S
C249 O248 1.286 . S
C249 C251 1.363 . S
C250 C240 1.465 . S
C250 U246 2.847 . S
C250 O264 1.249 . S
C250 O265 1.202 . S
C251 C249 1.363 . S
C251 C253 1.408 . S
C251 C256 1.342 . S
C252 C253 1.310 . S
C252 C255 1.461 . S
C252 H272 0.932 . S
C253 C251 1.408 . S
C253 C252 1.310 . S
C253 H273 0.930 . S
C254 C255 1.474 . S
C254 C256 1.285 . S
C254 H274 0.929 . S
C255 C252 1.461 . S
C255 C254 1.474 . S
C256 C251 1.342 . S
C256 C254 1.285 . S
C256 H275 0.930 . S
C257 C260 1.424 . S
C257 C262 1.245 . S
C257 C263 1.428 . S
C258 C261 1.260 . S
C258 C262 1.477 . S
C258 H276 0.932 . S
C259 C260 1.384 . S
C259 C261 1.479 . S
C259 H277 0.929 . S
C260 C257 1.424 . S
C260 C259 1.384 . S
C260 H278 0.928 . S
C261 C258 1.260 . S
C261 C259 1.479 . S
C262 C257 1.245 . S
C262 C258 1.477 . S
C262 H279 0.932 . S
C263 U246 2.882 . S
C263 C257 1.428 . S
C263 O266 1.301 . S
C263 O267 1.282 . S
O264 U246 2.441 . S
O264 C250 1.249 . S
O265 U246 2.420 . S
O265 C250 1.202 . S
O266 U246 2.455 . S
O266 C263 1.301 . S
O267 U246 2.449 . S
O267 C263 1.282 . S
H268 C241 0.931 . S
H269 C243 0.929 . S
H270 C244 0.930 . S
H271 C245 0.931 . S
H272 C252 0.932 . S
H273 C253 0.930 . S
H274 C254 0.929 . S
H275 C256 0.930 . S
H276 C258 0.932 . S
H277 C259 0.929 . S
H278 C260 0.928 . S
H279 C262 0.932 . S
C280 C281 1.264 . S
C280 C285 1.479 . S
C280 C290 1.465 . S
C281 C280 1.264 . S
C281 C283 1.339 . S
C281 H308 0.931 . S
C282 C283 1.395 . S
C282 C284 1.320 . S
C283 C281 1.339 . S
C283 C282 1.395 . S
C283 H309 0.929 . S
C284 C282 1.320 . S
C284 C285 1.405 . S
C284 H310 0.930 . S
C285 C280 1.479 . S
C285 C284 1.405 . S
C285 H311 0.931 . S
U286 O287 2.454 . S
U286 O288 2.458 . S
U286 C289 2.984 . S
U286 C290 2.847 . S
U286 C303 2.882 . S
U286 O304 2.441 . S
U286 O305 2.420 . S
U286 O306 2.455 . S
U286 O307 2.449 . S
O287 U286 2.454 . S
O287 C289 1.353 . S
O288 U286 2.458 . S
O288 C289 1.286 . S
C289 U286 2.984 . S
C289 O287 1.353 . S
C289 O288 1.286 . S
C289 C291 1.363 . S
C290 C280 1.465 . S
C290 U286 2.847 . S
C290 O304 1.249 . S
C290 O305 1.202 . S
C291 C289 1.363 . S
C291 C293 1.408 . S
C291 C296 1.342 . S
C292 C293 1.310 . S
C292 C295 1.461 . S
C292 H312 0.932 . S
C293 C291 1.408 . S
C293 C292 1.310 . S
C293 H313 0.930 . S
C294 C295 1.474 . S
C294 C296 1.285 . S
C294 H314 0.929 . S
C295 C292 1.461 . S
C295 C294 1.474 . S
C296 C291 1.342 . S
C296 C294 1.285 . S
C296 H315 0.930 . S
C297 C300 1.424 . S
C297 C302 1.245 . S
C297 C303 1.428 . S
C298 C301 1.260 . S
C298 C302 1.477 . S
C298 H316 0.932 . S
C299 C300 1.384 . S
C299 C301 1.479 . S
C299 H317 0.929 . S
C300 C297 1.424 . S
C300 C299 1.384 . S
C300 H318 0.928 . S
C301 C298 1.260 . S
C301 C299 1.479 . S
C302 C297 1.245 . S
C302 C298 1.477 . S
C302 H319 0.932 . S
C303 U286 2.882 . S
C303 C297 1.428 . S
C303 O306 1.301 . S
C303 O307 1.282 . S
O304 U286 2.441 . S
O304 C290 1.249 . S
O305 U286 2.420 . S
O305 C290 1.202 . S
O306 U286 2.455 . S
O306 C303 1.301 . S
O307 U286 2.449 . S
O307 C303 1.282 . S
H308 C281 0.931 . S
H309 C283 0.929 . S
H310 C284 0.930 . S
H311 C285 0.931 . S
H312 C292 0.932 . S
H313 C293 0.930 . S
H314 C294 0.929 . S
H315 C296 0.930 . S
H316 C298 0.932 . S
H317 C299 0.929 . S
H318 C300 0.928 . S
H319 C302 0.932 . S
Dy320 O323 2.307 1_545 S
Dy320 O325 2.395 . S
Dy320 O326 2.379 . S
Dy320 O328 2.339 1_545 S
Dy320 O330 2.298 . S
Dy320 O334 2.275 . S
Dy320 C342 2.738 . S
Dy321 O324 2.298 1_645 S
Dy321 O327 2.275 1_545 S
Dy321 O329 2.307 . S
Dy321 O331 2.395 1_545 S
Dy321 O332 2.379 1_545 S
Dy321 O335 2.355 . S
Dy321 C351 2.738 1_545 S
C322 O334 1.254 . S
C322 O335 1.223 1_455 S
O323 Dy320 2.307 1_565 S
O323 C333 1.266 . S
O324 Dy321 2.298 1_465 S
O324 C333 1.236 . S
O325 Dy320 2.395 . S
O325 C342 1.255 . S
O326 Dy320 2.379 . S
O326 C342 1.249 . S
O327 Dy321 2.275 1_565 S
O327 C343 1.254 . S
O328 Dy320 2.339 1_565 S
O328 C343 1.257 1_455 S
O329 Dy321 2.307 . S
O329 C344 1.266 . S
O330 Dy320 2.298 . S
O330 C344 1.236 1_455 S
O331 Dy321 2.395 1_565 S
O331 C351 1.255 . S
O332 Dy321 2.379 1_565 S
O332 C351 1.249 . S
C333 O323 1.266 . S
C333 O324 1.236 . S
O334 Dy320 2.275 . S
O334 C322 1.254 . S
O335 Dy321 2.355 . S
O335 C322 1.223 1_655 S
C336 C339 1.344 . S
C336 C340 1.328 . S
C336 C342 1.516 . S
C337 C338 1.304 . S
C337 C341 1.323 . S
C338 C337 1.304 . S
C338 C339 1.371 . S
C338 H352 0.930 . S
C339 C336 1.344 . S
C339 C338 1.371 . S
C339 H353 0.931 . S
C340 C336 1.328 . S
C340 C341 1.433 . S
C340 H354 0.931 . S
C341 C337 1.323 . S
C341 C340 1.433 . S
C341 H355 0.933 . S
C342 Dy320 2.738 . S
C342 O325 1.255 . S
C342 O326 1.249 . S
C342 C336 1.516 . S
C343 O327 1.254 . S
C343 O328 1.257 1_655 S
C344 O329 1.266 . S
C344 O330 1.236 1_655 S
C345 C348 1.344 . S
C345 C349 1.328 . S
C345 C351 1.516 . S
C346 C347 1.304 . S
C346 C350 1.323 . S
C347 C346 1.304 . S
C347 C348 1.371 . S
C347 H356 0.930 . S
C348 C345 1.344 . S
C348 C347 1.371 . S
C348 H357 0.931 . S
C349 C345 1.328 . S
C349 C350 1.433 . S
C349 H358 0.931 . S
C350 C346 1.323 . S
C350 C349 1.433 . S
C350 H359 0.933 . S
C351 Dy321 2.738 1_565 S
C351 O331 1.255 . S
C351 O332 1.249 . S
C351 C345 1.516 . S
H352 C338 0.930 . S
H353 C339 0.931 . S
H354 C340 0.931 . S
H355 C341 0.933 . S
H356 C347 0.930 . S
H357 C348 0.931 . S
H358 C349 0.931 . S
H359 C350 0.933 . S
Dy360 O363 2.284 1_566 S
Dy360 O365 2.423 . S
Dy360 O366 2.384 . S
Dy360 O368 2.313 1_565 S
Dy360 O370 2.317 . S
Dy360 O374 2.295 1_556 S
Dy360 C382 2.757 . S
Dy361 O364 2.298 . S
Dy361 O367 2.275 1_554 S
Dy361 O369 2.307 1_544 S
Dy361 O371 2.395 . S
Dy361 O372 2.379 . S
Dy361 O375 2.339 1_545 S
Dy361 C391 2.738 . S
C362 O374 1.254 . S
C362 O375 1.257 . S
O363 Dy360 2.284 1_544 S
O363 C373 1.266 . S
O364 Dy361 2.298 . S
O364 C373 1.236 . S
O365 Dy360 2.423 . S
O365 C382 1.255 . S
O366 Dy360 2.384 . S
O366 C382 1.249 . S
O367 Dy361 2.275 1_556 S
O367 C383 1.254 . S
O368 Dy360 2.313 1_545 S
O368 C383 1.257 . S
O369 Dy361 2.307 1_566 S
O369 C384 1.266 . S
O370 Dy360 2.317 . S
O370 C384 1.236 . S
O371 Dy361 2.395 . S
O371 C391 1.255 . S
O372 Dy361 2.379 . S
O372 C391 1.249 . S
C373 O363 1.266 . S
C373 O364 1.236 . S
O374 Dy360 2.295 1_554 S
O374 C362 1.254 . S
O375 Dy361 2.339 1_565 S
O375 C362 1.257 . S
C376 C379 1.344 . S
C376 C380 1.328 . S
C376 C382 1.516 . S
C377 C378 1.304 . S
C377 C381 1.323 . S
C378 C377 1.304 . S
C378 C379 1.371 . S
C378 H392 0.930 . S
C379 C376 1.344 . S
C379 C378 1.371 . S
C379 H393 0.931 . S
C380 C376 1.328 . S
C380 C381 1.433 . S
C380 H394 0.931 . S
C381 C377 1.323 . S
C381 C380 1.433 . S
C381 H395 0.933 . S
C382 Dy360 2.757 . S
C382 O365 1.255 . S
C382 O366 1.249 . S
C382 C376 1.516 . S
C383 O367 1.254 . S
C383 O368 1.257 . S
C384 O369 1.266 . S
C384 O370 1.236 . S
C385 C388 1.344 . S
C385 C389 1.328 . S
C385 C391 1.516 . S
C386 C387 1.304 . S
C386 C390 1.323 . S
C387 C386 1.304 . S
C387 C388 1.371 . S
C387 H396 0.930 . S
C388 C385 1.344 . S
C388 C387 1.371 . S
C388 H397 0.931 . S
C389 C385 1.328 . S
C389 C390 1.433 . S
C389 H398 0.931 . S
C390 C386 1.323 . S
C390 C389 1.433 . S
C390 H399 0.933 . S
C391 Dy361 2.738 . S
C391 O371 1.255 . S
C391 O372 1.249 . S
C391 C385 1.516 . S
H392 C378 0.930 . S
H393 C379 0.931 . S
H394 C380 0.931 . S
H395 C381 0.933 . S
H396 C387 0.930 . S
H397 C388 0.931 . S
H398 C389 0.931 . S
H399 C390 0.933 . S
Dy400 O403 2.307 . S
Dy400 O405 2.395 . S
Dy400 O406 2.379 . S
Dy400 O408 2.339 . S
Dy400 O410 2.298 . S
Dy400 O414 2.275 . S
Dy400 C422 2.738 . S
Dy401 O404 2.298 . S
Dy401 O407 2.275 . S
Dy401 O409 2.307 . S
Dy401 O411 2.395 . S
Dy401 O412 2.379 . S
Dy401 O415 2.339 . S
Dy401 C431 2.738 . S
C402 O414 1.254 . S
C402 O415 1.257 . S
O403 Dy400 2.307 . S
O403 C413 1.266 . S
O404 Dy401 2.298 . S
O404 C413 1.236 . S
O405 Dy400 2.395 . S
O405 C422 1.255 . S
O406 Dy400 2.379 . S
O406 C422 1.249 . S
O407 Dy401 2.275 . S
O407 C423 1.254 . S
O408 Dy400 2.339 . S
O408 C423 1.257 . S
O409 Dy401 2.307 . S
O409 C424 1.266 . S
O410 Dy400 2.298 . S
O410 C424 1.236 . S
O411 Dy401 2.395 . S
O411 C431 1.255 . S
O412 Dy401 2.379 . S
O412 C431 1.249 . S
C413 O403 1.266 . S
C413 O404 1.236 . S
O414 Dy400 2.275 . S
O414 C402 1.254 . S
O415 Dy401 2.339 . S
O415 C402 1.257 . S
C416 C419 1.344 . S
C416 C420 1.328 . S
C416 C422 1.516 . S
C417 C418 1.304 . S
C417 C421 1.323 . S
C418 C417 1.304 . S
C418 C419 1.371 . S
C418 H432 0.930 . S
C419 C416 1.344 . S
C419 C418 1.371 . S
C419 H433 0.931 . S
C420 C416 1.328 . S
C420 C421 1.433 . S
C420 H434 0.931 . S
C421 C417 1.323 . S
C421 C420 1.433 . S
C421 H435 0.933 . S
C422 Dy400 2.738 . S
C422 O405 1.255 . S
C422 O406 1.249 . S
C422 C416 1.516 . S
C423 O407 1.254 . S
C423 O408 1.257 . S
C424 O409 1.266 . S
C424 O410 1.236 . S
C425 C428 1.344 . S
C425 C429 1.328 . S
C425 C431 1.516 . S
C426 C427 1.304 . S
C426 C430 1.323 . S
C427 C426 1.304 . S
C427 C428 1.371 . S
C427 H436 0.930 . S
C428 C425 1.344 . S
C428 C427 1.371 . S
C428 H437 0.931 . S
C429 C425 1.328 . S
C429 C430 1.433 . S
C429 H438 0.931 . S
C430 C426 1.323 . S
C430 C429 1.433 . S
C430 H439 0.933 . S
C431 Dy401 2.738 . S
C431 O411 1.255 . S
C431 O412 1.249 . S
C431 C425 1.516 . S
H432 C418 0.930 . S
H433 C419 0.931 . S
H434 C420 0.931 . S
H435 C421 0.933 . S
H436 C427 0.930 . S
H437 C428 0.931 . S
H438 C429 0.931 . S
H439 C430 0.933 . S
Dy440 O443 2.307 1_556 S
Dy440 O445 2.395 1_455 S
Dy440 O446 2.379 1_455 S
Dy440 O448 2.339 . S
Dy440 O450 2.298 1_455 S
Dy440 O454 2.275 1_456 S
Dy440 C462 2.738 1_455 S
Dy441 O444 2.298 . S
Dy441 O447 2.275 1_554 S
Dy441 O449 2.307 1_455 S
Dy441 O451 2.395 . S
Dy441 O452 2.379 . S
Dy441 O455 2.339 1_455 S
Dy441 C471 2.738 . S
C442 O454 1.254 . S
C442 O455 1.257 . S
O443 Dy440 2.307 1_554 S
O443 C453 1.266 . S
O444 Dy441 2.298 . S
O444 C453 1.236 . S
O445 Dy440 2.395 1_655 S
O445 C462 1.255 . S
O446 Dy440 2.379 1_655 S
O446 C462 1.249 . S
O447 Dy441 2.275 1_556 S
O447 C463 1.254 . S
O448 Dy440 2.339 . S
O448 C463 1.257 . S
O449 Dy441 2.307 1_655 S
O449 C464 1.266 1_554 S
O450 Dy440 2.298 1_655 S
O450 C464 1.236 . S
O451 Dy441 2.395 . S
O451 C471 1.255 . S
O452 Dy441 2.379 . S
O452 C471 1.249 . S
C453 O443 1.266 . S
C453 O444 1.236 . S
O454 Dy440 2.275 1_654 S
O454 C442 1.254 . S
O455 Dy441 2.339 1_655 S
O455 C442 1.257 . S
C456 C459 1.344 . S
C456 C460 1.328 . S
C456 C462 1.516 . S
C457 C458 1.304 . S
C457 C461 1.323 . S
C458 C457 1.304 . S
C458 C459 1.371 . S
C458 H472 0.930 . S
C459 C456 1.344 . S
C459 C458 1.371 . S
C459 H473 0.931 . S
C460 C456 1.328 . S
C460 C461 1.433 . S
C460 H474 0.931 . S
C461 C457 1.323 . S
C461 C460 1.433 . S
C461 H475 0.933 . S
C462 Dy440 2.738 1_655 S
C462 O445 1.255 . S
C462 O446 1.249 . S
C462 C456 1.516 . S
C463 O447 1.254 . S
C463 O448 1.257 . S
C464 O449 1.266 1_556 S
C464 O450 1.236 . S
C465 C468 1.344 . S
C465 C469 1.328 . S
C465 C471 1.516 . S
C466 C467 1.304 . S
C466 C470 1.323 . S
C467 C466 1.304 . S
C467 C468 1.371 . S
C467 H476 0.930 . S
C468 C465 1.344 . S
C468 C467 1.371 . S
C468 H477 0.931 . S
C469 C465 1.328 . S
C469 C470 1.433 . S
C469 H478 0.931 . S
C470 C466 1.323 . S
C470 C469 1.433 . S
C470 H479 0.933 . S
C471 Dy441 2.738 . S
C471 O451 1.255 . S
C471 O452 1.249 . S
C471 C465 1.516 . S
H472 C458 0.930 . S
H473 C459 0.931 . S
H474 C460 0.931 . S
H475 C461 0.933 . S
H476 C467 0.930 . S
H477 C468 0.931 . S
H478 C469 0.931 . S
H479 C470 0.933 . S
H480 C488 0.950 . S
H481 C493 0.950 . S
H482 C490 0.950 . S
H483 C492 0.950 . S
H484 C494 0.950 . S
H485 C496 0.950 . S
H486 C498 0.950 . S
H487 C499 0.950 . S
C488 H480 0.950 . S
C488 C489 1.386 . S
C488 C490 1.391 . S
C489 C488 1.386 . S
C489 C493 1.393 . S
C490 H482 0.950 . S
C490 C488 1.391 . S
C490 C491 1.400 . S
C491 C490 1.400 . S
C491 C492 1.398 . S
C491 C497 1.491 . S
C492 H483 0.950 . S
C492 C491 1.398 . S
C492 C493 1.391 . S
C493 H481 0.950 . S
C493 C489 1.393 . S
C493 C492 1.391 . S
C494 H484 0.950 . S
C494 C495 1.386 . S
C494 C496 1.391 . S
C495 C494 1.386 . S
C495 C499 1.393 . S
C496 H485 0.950 . S
C496 C494 1.391 . S
C496 C497 1.400 . S
C497 C491 1.491 . S
C497 C496 1.400 . S
C497 C498 1.398 . S
C498 H486 0.950 . S
C498 C497 1.398 . S
C498 C499 1.391 . S
C499 H487 0.950 . S
C499 C495 1.393 . S
C499 C498 1.391 . S
H500 C508 0.950 . S
H501 C513 0.950 . S
H502 C510 0.950 . S
H503 C512 0.950 . S
H504 C514 0.950 . S
H505 C516 0.950 . S
H506 C518 0.950 . S
H507 C519 0.950 . S
C508 H500 0.950 . S
C508 C509 1.386 . S
C508 C510 1.391 . S
C509 C508 1.386 . S
C509 C513 1.393 . S
C510 H502 0.950 . S
C510 C508 1.391 . S
C510 C511 1.400 . S
C511 C510 1.400 . S
C511 C512 1.398 . S
C511 C517 1.491 . S
C512 H503 0.950 . S
C512 C511 1.398 . S
C512 C513 1.391 . S
C513 H501 0.950 . S
C513 C509 1.393 . S
C513 C512 1.391 . S
C514 H504 0.950 . S
C514 C515 1.386 . S
C514 C516 1.391 . S
C515 C514 1.386 . S
C515 C519 1.393 . S
C516 H505 0.950 . S
C516 C514 1.391 . S
C516 C517 1.400 . S
C517 C511 1.491 . S
C517 C516 1.400 . S
C517 C518 1.398 . S
C518 H506 0.950 . S
C518 C517 1.398 . S
C518 C519 1.391 . S
C519 H507 0.950 . S
C519 C515 1.393 . S
C519 C518 1.391 . S
H520 C528 0.950 . S
H521 C533 0.950 . S
H522 C530 0.950 . S
H523 C532 0.950 . S
H524 C534 0.950 . S
H525 C536 0.950 . S
H526 C538 0.950 . S
H527 C539 0.950 . S
C528 H520 0.950 . S
C528 C529 1.386 . S
C528 C530 1.391 . S
C529 C528 1.386 . S
C529 C533 1.393 . S
C530 H522 0.950 . S
C530 C528 1.391 . S
C530 C531 1.400 . S
C531 C530 1.400 . S
C531 C532 1.398 . S
C531 C537 1.491 . S
C532 H523 0.950 . S
C532 C531 1.398 . S
C532 C533 1.391 . S
C533 H521 0.950 . S
C533 C529 1.393 . S
C533 C532 1.391 . S
C534 H524 0.950 . S
C534 C535 1.386 . S
C534 C536 1.391 . S
C535 C534 1.386 . S
C535 C539 1.393 . S
C536 H525 0.950 . S
C536 C534 1.391 . S
C536 C537 1.400 . S
C537 C531 1.491 . S
C537 C536 1.400 . S
C537 C538 1.398 . S
C538 H526 0.950 . S
C538 C537 1.398 . S
C538 C539 1.391 . S
C539 H527 0.950 . S
C539 C535 1.393 . S
C539 C538 1.391 . S
H540 C548 0.950 . S
H541 C553 0.950 . S
H542 C550 0.950 . S
H543 C552 0.950 . S
H544 C554 0.950 . S
H545 C556 0.950 . S
H546 C558 0.950 . S
H547 C559 0.950 . S
C548 H540 0.950 . S
C548 C549 1.386 . S
C548 C550 1.391 . S
C549 C548 1.386 . S
C549 C553 1.393 . S
C550 H542 0.950 . S
C550 C548 1.391 . S
C550 C551 1.400 . S
C551 C550 1.400 . S
C551 C552 1.398 . S
C551 C557 1.491 . S
C552 H543 0.950 . S
C552 C551 1.398 . S
C552 C553 1.391 . S
C553 H541 0.950 . S
C553 C549 1.393 . S
C553 C552 1.391 . S
C554 H544 0.950 . S
C554 C555 1.386 . S
C554 C556 1.391 . S
C555 C554 1.386 . S
C555 C559 1.393 . S
C556 H545 0.950 . S
C556 C554 1.391 . S
C556 C557 1.400 . S
C557 C551 1.491 . S
C557 C556 1.400 . S
C557 C558 1.398 . S
C558 H546 0.950 . S
C558 C557 1.398 . S
C558 C559 1.391 . S
C559 H547 0.950 . S
C559 C555 1.393 . S
C559 C558 1.391 . S
H560 C568 0.950 . S
H561 C573 0.950 . S
H562 C570 0.950 . S
H563 C572 0.950 . S
H564 C574 0.950 . S
H565 C576 0.950 . S
H566 C578 0.950 . S
H567 C579 0.950 . S
C568 H560 0.950 . S
C568 C569 1.386 . S
C568 C570 1.391 . S
C569 C568 1.386 . S
C569 C573 1.393 . S
C570 H562 0.950 . S
C570 C568 1.391 . S
C570 C571 1.400 . S
C571 C570 1.400 . S
C571 C572 1.398 . S
C571 C577 1.491 . S
C572 H563 0.950 . S
C572 C571 1.398 . S
C572 C573 1.391 . S
C573 H561 0.950 . S
C573 C569 1.393 . S
C573 C572 1.391 . S
C574 H564 0.950 . S
C574 C575 1.386 . S
C574 C576 1.391 . S
C575 C574 1.386 . S
C575 C579 1.393 . S
C576 H565 0.950 . S
C576 C574 1.391 . S
C576 C577 1.400 . S
C577 C571 1.491 . S
C577 C576 1.400 . S
C577 C578 1.398 . S
C578 H566 0.950 . S
C578 C577 1.398 . S
C578 C579 1.391 . S
C579 H567 0.950 . S
C579 C575 1.393 . S
C579 C578 1.391 . S
H580 C588 0.950 . S
H581 C593 0.950 . S
H582 C590 0.950 . S
H583 C592 0.950 . S
H584 C594 0.950 . S
H585 C596 0.950 . S
H586 C598 0.950 . S
H587 C599 0.950 . S
C588 H580 0.950 . S
C588 C589 1.386 . S
C588 C590 1.391 . S
C589 C588 1.386 . S
C589 C593 1.393 . S
C590 H582 0.950 . S
C590 C588 1.391 . S
C590 C591 1.400 . S
C591 C590 1.400 . S
C591 C592 1.398 . S
C591 C597 1.491 . S
C592 H583 0.950 . S
C592 C591 1.398 . S
C592 C593 1.391 . S
C593 H581 0.950 . S
C593 C589 1.393 . S
C593 C592 1.391 . S
C594 H584 0.950 . S
C594 C595 1.386 . S
C594 C596 1.391 . S
C595 C594 1.386 . S
C595 C599 1.393 . S
C596 H585 0.950 . S
C596 C594 1.391 . S
C596 C597 1.400 . S
C597 C591 1.491 . S
C597 C596 1.400 . S
C597 C598 1.398 . S
C598 H586 0.950 . S
C598 C597 1.398 . S
C598 C599 1.391 . S
C599 H587 0.950 . S
C599 C595 1.393 . S
C599 C598 1.391 . S
H600 C608 0.950 . S
H601 C613 0.950 . S
H602 C610 0.950 . S
H603 C612 0.950 . S
H604 C614 0.950 . S
H605 C616 0.950 . S
H606 C618 0.950 . S
H607 C619 0.950 . S
C608 H600 0.950 . S
C608 C609 1.386 . S
C608 C610 1.391 . S
C609 C608 1.386 . S
C609 C613 1.393 . S
C610 H602 0.950 . S
C610 C608 1.391 . S
C610 C611 1.400 . S
C611 C610 1.400 . S
C611 C612 1.398 . S
C611 C617 1.491 . S
C612 H603 0.950 . S
C612 C611 1.398 . S
C612 C613 1.391 . S
C613 H601 0.950 . S
C613 C609 1.393 . S
C613 C612 1.391 . S
C614 H604 0.950 . S
C614 C615 1.386 . S
C614 C616 1.391 . S
C615 C614 1.386 . S
C615 C619 1.393 . S
C616 H605 0.950 . S
C616 C614 1.391 . S
C616 C617 1.400 . S
C617 C611 1.491 . S
C617 C616 1.400 . S
C617 C618 1.398 . S
C618 H606 0.950 . S
C618 C617 1.398 . S
C618 C619 1.391 . S
C619 H607 0.950 . S
C619 C615 1.393 . S
C619 C618 1.391 . S
H620 C628 0.950 . S
H621 C633 0.950 . S
H622 C630 0.950 . S
H623 C632 0.950 . S
H624 C634 0.950 . S
H625 C636 0.950 . S
H626 C638 0.950 . S
H627 C639 0.950 . S
C628 H620 0.950 . S
C628 C629 1.386 . S
C628 C630 1.391 . S
C629 C628 1.386 . S
C629 C633 1.393 . S
C630 H622 0.950 . S
C630 C628 1.391 . S
C630 C631 1.400 . S
C631 C630 1.400 . S
C631 C632 1.398 . S
C631 C637 1.491 . S
C632 H623 0.950 . S
C632 C631 1.398 . S
C632 C633 1.391 . S
C633 H621 0.950 . S
C633 C629 1.393 . S
C633 C632 1.391 . S
C634 H624 0.950 . S
C634 C635 1.386 . S
C634 C636 1.391 . S
C635 C634 1.386 . S
C635 C639 1.393 . S
C636 H625 0.950 . S
C636 C634 1.391 . S
C636 C637 1.400 . S
C637 C631 1.491 . S
C637 C636 1.400 . S
C637 C638 1.398 . S
C638 H626 0.950 . S
C638 C637 1.398 . S
C638 C639 1.391 . S
C639 H627 0.950 . S
C639 C635 1.393 . S
C639 C638 1.391 . S
H640 C648 0.950 . S
H641 C653 0.950 . S
H642 C650 0.950 . S
H643 C652 0.950 . S
H644 C654 0.950 . S
H645 C656 0.950 . S
H646 C658 0.950 . S
H647 C659 0.950 . S
C648 H640 0.950 . S
C648 C649 1.386 . S
C648 C650 1.391 . S
C649 C648 1.386 . S
C649 C653 1.393 . S
C650 H642 0.950 . S
C650 C648 1.391 . S
C650 C651 1.400 . S
C651 C650 1.400 . S
C651 C652 1.398 . S
C651 C657 1.491 . S
C652 H643 0.950 . S
C652 C651 1.398 . S
C652 C653 1.391 . S
C653 H641 0.950 . S
C653 C649 1.393 . S
C653 C652 1.391 . S
C654 H644 0.950 . S
C654 C655 1.386 . S
C654 C656 1.391 . S
C655 C654 1.386 . S
C655 C659 1.393 . S
C656 H645 0.950 . S
C656 C654 1.391 . S
C656 C657 1.400 . S
C657 C651 1.491 . S
C657 C656 1.400 . S
C657 C658 1.398 . S
C658 H646 0.950 . S
C658 C657 1.398 . S
C658 C659 1.391 . S
C659 H647 0.950 . S
C659 C655 1.393 . S
C659 C658 1.391 . S
H660 C668 0.950 . S
H661 C673 0.950 . S
H662 C670 0.950 . S
H663 C672 0.950 . S
H664 C674 0.950 . S
H665 C676 0.950 . S
H666 C678 0.950 . S
H667 C679 0.950 . S
C668 H660 0.950 . S
C668 C669 1.386 . S
C668 C670 1.391 . S
C669 C668 1.386 . S
C669 C673 1.393 . S
C670 H662 0.950 . S
C670 C668 1.391 . S
C670 C671 1.400 . S
C671 C670 1.400 . S
C671 C672 1.398 . S
C671 C677 1.491 . S
C672 H663 0.950 . S
C672 C671 1.398 . S
C672 C673 1.391 . S
C673 H661 0.950 . S
C673 C669 1.393 . S
C673 C672 1.391 . S
C674 H664 0.950 . S
C674 C675 1.386 . S
C674 C676 1.391 . S
C675 C674 1.386 . S
C675 C679 1.393 . S
C676 H665 0.950 . S
C676 C674 1.391 . S
C676 C677 1.400 . S
C677 C671 1.491 . S
C677 C676 1.400 . S
C677 C678 1.398 . S
C678 H666 0.950 . S
C678 C677 1.398 . S
C678 C679 1.391 . S
C679 H667 0.950 . S
C679 C675 1.393 . S
C679 C678 1.391 . S
H680 C688 0.950 . S
H681 C693 0.950 . S
H682 C690 0.950 . S
H683 C692 0.950 . S
H684 C694 0.950 . S
H685 C696 0.950 . S
H686 C698 0.950 . S
H687 C699 0.950 . S
C688 H680 0.950 . S
C688 C689 1.386 . S
C688 C690 1.391 . S
C689 C688 1.386 . S
C689 C693 1.393 . S
C690 H682 0.950 . S
C690 C688 1.391 . S
C690 C691 1.400 . S
C691 C690 1.400 . S
C691 C692 1.398 . S
C691 C697 1.491 . S
C692 H683 0.950 . S
C692 C691 1.398 . S
C692 C693 1.391 . S
C693 H681 0.950 . S
C693 C689 1.393 . S
C693 C692 1.391 . S
C694 H684 0.950 . S
C694 C695 1.386 . S
C694 C696 1.391 . S
C695 C694 1.386 . S
C695 C699 1.393 . S
C696 H685 0.950 . S
C696 C694 1.391 . S
C696 C697 1.400 . S
C697 C691 1.491 . S
C697 C696 1.400 . S
C697 C698 1.398 . S
C698 H686 0.950 . S
C698 C697 1.398 . S
C698 C699 1.391 . S
C699 H687 0.950 . S
C699 C695 1.393 . S
C699 C698 1.391 . S
H700 C708 0.950 . S
H701 C713 0.950 . S
H702 C710 0.950 . S
H703 C712 0.950 . S
H704 C714 0.950 . S
H705 C716 0.950 . S
H706 C718 0.950 . S
H707 C719 0.950 . S
C708 H700 0.950 . S
C708 C709 1.386 . S
C708 C710 1.391 . S
C709 C708 1.386 . S
C709 C713 1.393 . S
C710 H702 0.950 . S
C710 C708 1.391 . S
C710 C711 1.400 . S
C711 C710 1.400 . S
C711 C712 1.398 . S
C711 C717 1.491 . S
C712 H703 0.950 . S
C712 C711 1.398 . S
C712 C713 1.391 . S
C713 H701 0.950 . S
C713 C709 1.393 . S
C713 C712 1.391 . S
C714 H704 0.950 . S
C714 C715 1.386 . S
C714 C716 1.391 . S
C715 C714 1.386 . S
C715 C719 1.393 . S
C716 H705 0.950 . S
C716 C714 1.391 . S
C716 C717 1.400 . S
C717 C711 1.491 . S
C717 C716 1.400 . S
C717 C718 1.398 . S
C718 H706 0.950 . S
C718 C717 1.398 . S
C718 C719 1.391 . S
C719 H707 0.950 . S
C719 C715 1.393 . S
C719 C718 1.391 . S
H720 C728 0.950 . S
H721 C733 0.950 . S
H722 C730 0.950 . S
H723 C732 0.950 . S
H724 C734 0.950 . S
H725 C736 0.950 . S
H726 C738 0.950 . S
H727 C739 0.950 . S
C728 H720 0.950 . S
C728 C729 1.386 . S
C728 C730 1.391 . S
C729 C728 1.386 . S
C729 C733 1.393 . S
C730 H722 0.950 . S
C730 C728 1.391 . S
C730 C731 1.400 . S
C731 C730 1.400 . S
C731 C732 1.398 . S
C731 C737 1.491 . S
C732 H723 0.950 . S
C732 C731 1.398 . S
C732 C733 1.391 . S
C733 H721 0.950 . S
C733 C729 1.393 . S
C733 C732 1.391 . S
C734 H724 0.950 . S
C734 C735 1.386 . S
C734 C736 1.391 . S
C735 C734 1.386 . S
C735 C739 1.393 . S
C736 H725 0.950 . S
C736 C734 1.391 . S
C736 C737 1.400 . S
C737 C731 1.491 . S
C737 C736 1.400 . S
C737 C738 1.398 . S
C738 H726 0.950 . S
C738 C737 1.398 . S
C738 C739 1.391 . S
C739 H727 0.950 . S
C739 C735 1.393 . S
C739 C738 1.391 . S
H740 C748 0.950 . S
H741 C753 0.950 . S
H742 C750 0.950 . S
H743 C752 0.950 . S
H744 C754 0.950 . S
H745 C756 0.950 . S
H746 C758 0.950 . S
H747 C759 0.950 . S
C748 H740 0.950 . S
C748 C749 1.386 . S
C748 C750 1.391 . S
C749 C748 1.386 . S
C749 C753 1.393 . S
C750 H742 0.950 . S
C750 C748 1.391 . S
C750 C751 1.400 . S
C751 C750 1.400 . S
C751 C752 1.398 . S
C751 C757 1.491 . S
C752 H743 0.950 . S
C752 C751 1.398 . S
C752 C753 1.391 . S
C753 H741 0.950 . S
C753 C749 1.393 . S
C753 C752 1.391 . S
C754 H744 0.950 . S
C754 C755 1.386 . S
C754 C756 1.391 . S
C755 C754 1.386 . S
C755 C759 1.393 . S
C756 H745 0.950 . S
C756 C754 1.391 . S
C756 C757 1.400 . S
C757 C751 1.491 . S
C757 C756 1.400 . S
C757 C758 1.398 . S
C758 H746 0.950 . S
C758 C757 1.398 . S
C758 C759 1.391 . S
C759 H747 0.950 . S
C759 C755 1.393 . S
C759 C758 1.391 . S
H760 C768 0.950 . S
H761 C773 0.950 . S
H762 C770 0.950 . S
H763 C772 0.950 . S
H764 C774 0.950 . S
H765 C776 0.950 . S
H766 C778 0.950 . S
H767 C779 0.950 . S
C768 H760 0.950 . S
C768 C769 1.386 . S
C768 C770 1.391 . S
C769 C768 1.386 . S
C769 C773 1.393 . S
C770 H762 0.950 . S
C770 C768 1.391 . S
C770 C771 1.400 . S
C771 C770 1.400 . S
C771 C772 1.398 . S
C771 C777 1.491 . S
C772 H763 0.950 . S
C772 C771 1.398 . S
C772 C773 1.391 . S
C773 H761 0.950 . S
C773 C769 1.393 . S
C773 C772 1.391 . S
C774 H764 0.950 . S
C774 C775 1.386 . S
C774 C776 1.391 . S
C775 C774 1.386 . S
C775 C779 1.393 . S
C776 H765 0.950 . S
C776 C774 1.391 . S
C776 C777 1.400 . S
C777 C771 1.491 . S
C777 C776 1.400 . S
C777 C778 1.398 . S
C778 H766 0.950 . S
C778 C777 1.398 . S
C778 C779 1.391 . S
C779 H767 0.950 . S
C779 C775 1.393 . S
C779 C778 1.391 . S
H780 C788 0.950 . S
H781 C793 0.950 . S
H782 C790 0.950 . S
H783 C792 0.950 . S
H784 C794 0.950 . S
H785 C796 0.950 . S
H786 C798 0.950 . S
H787 C799 0.950 . S
C788 H780 0.950 . S
C788 C789 1.386 . S
C788 C790 1.391 . S
C789 C788 1.386 . S
C789 C793 1.393 . S
C790 H782 0.950 . S
C790 C788 1.391 . S
C790 C791 1.400 . S
C791 C790 1.400 . S
C791 C792 1.398 . S
C791 C797 1.491 . S
C792 H783 0.950 . S
C792 C791 1.398 . S
C792 C793 1.391 . S
C793 H781 0.950 . S
C793 C789 1.393 . S
C793 C792 1.391 . S
C794 H784 0.950 . S
C794 C795 1.386 . S
C794 C796 1.391 . S
C795 C794 1.386 . S
C795 C799 1.393 . S
C796 H785 0.950 . S
C796 C794 1.391 . S
C796 C797 1.400 . S
C797 C791 1.491 . S
C797 C796 1.400 . S
C797 C798 1.398 . S
C798 H786 0.950 . S
C798 C797 1.398 . S
C798 C799 1.391 . S
C799 H787 0.950 . S
C799 C795 1.393 . S
C799 C798 1.391 . S
H800 C808 0.950 . S
H801 C813 0.950 . S
H802 C810 0.950 . S
H803 C812 0.950 . S
H804 C814 0.950 . S
H805 C816 0.950 . S
H806 C818 0.950 . S
H807 C819 0.950 . S
C808 H800 0.950 . S
C808 C809 1.386 . S
C808 C810 1.391 . S
C809 C808 1.386 . S
C809 C813 1.393 . S
C810 H802 0.950 . S
C810 C808 1.391 . S
C810 C811 1.400 . S
C811 C810 1.400 . S
C811 C812 1.398 . S
C811 C817 1.491 . S
C812 H803 0.950 . S
C812 C811 1.398 . S
C812 C813 1.391 . S
C813 H801 0.950 . S
C813 C809 1.393 . S
C813 C812 1.391 . S
C814 H804 0.950 . S
C814 C815 1.386 . S
C814 C816 1.391 . S
C815 C814 1.386 . S
C815 C819 1.393 . S
C816 H805 0.950 . S
C816 C814 1.391 . S
C816 C817 1.400 . S
C817 C811 1.491 . S
C817 C816 1.400 . S
C817 C818 1.398 . S
C818 H806 0.950 . S
C818 C817 1.398 . S
C818 C819 1.391 . S
C819 H807 0.950 . S
C819 C815 1.393 . S
C819 C818 1.391 . S
H820 C828 0.950 . S
H821 C833 0.950 . S
H822 C830 0.950 . S
H823 C832 0.950 . S
H824 C834 0.950 . S
H825 C836 0.950 . S
H826 C838 0.950 . S
H827 C839 0.950 . S
C828 H820 0.950 . S
C828 C829 1.386 . S
C828 C830 1.391 . S
C829 C828 1.386 . S
C829 C833 1.393 . S
C830 H822 0.950 . S
C830 C828 1.391 . S
C830 C831 1.400 . S
C831 C830 1.400 . S
C831 C832 1.398 . S
C831 C837 1.491 . S
C832 H823 0.950 . S
C832 C831 1.398 . S
C832 C833 1.391 . S
C833 H821 0.950 . S
C833 C829 1.393 . S
C833 C832 1.391 . S
C834 H824 0.950 . S
C834 C835 1.386 . S
C834 C836 1.391 . S
C835 C834 1.386 . S
C835 C839 1.393 . S
C836 H825 0.950 . S
C836 C834 1.391 . S
C836 C837 1.400 . S
C837 C831 1.491 . S
C837 C836 1.400 . S
C837 C838 1.398 . S
C838 H826 0.950 . S
C838 C837 1.398 . S
C838 C839 1.391 . S
C839 H827 0.950 . S
C839 C835 1.393 . S
C839 C838 1.391 . S
H840 C848 0.950 . S
H841 C853 0.950 . S
H842 C850 0.950 . S
H843 C852 0.950 . S
H844 C854 0.950 . S
H845 C856 0.950 . S
H846 C858 0.950 . S
H847 C859 0.950 . S
C848 H840 0.950 . S
C848 C849 1.386 . S
C848 C850 1.391 . S
C849 C848 1.386 . S
C849 C853 1.393 . S
C850 H842 0.950 . S
C850 C848 1.391 . S
C850 C851 1.400 . S
C851 C850 1.400 . S
C851 C852 1.398 . S
C851 C857 1.491 . S
C852 H843 0.950 . S
C852 C851 1.398 . S
C852 C853 1.391 . S
C853 H841 0.950 . S
C853 C849 1.393 . S
C853 C852 1.391 . S
C854 H844 0.950 . S
C854 C855 1.386 . S
C854 C856 1.391 . S
C855 C854 1.386 . S
C855 C859 1.393 . S
C856 H845 0.950 . S
C856 C854 1.391 . S
C856 C857 1.400 . S
C857 C851 1.491 . S
C857 C856 1.400 . S
C857 C858 1.398 . S
C858 H846 0.950 . S
C858 C857 1.398 . S
C858 C859 1.391 . S
C859 H847 0.950 . S
C859 C855 1.393 . S
C859 C858 1.391 . S
H860 C868 0.950 . S
H861 C873 0.950 . S
H862 C870 0.950 . S
H863 C872 0.950 . S
H864 C874 0.950 . S
H865 C876 0.950 . S
H866 C878 0.950 . S
H867 C879 0.950 . S
C868 H860 0.950 . S
C868 C869 1.386 . S
C868 C870 1.391 . S
C869 C868 1.386 . S
C869 C873 1.393 . S
C870 H862 0.950 . S
C870 C868 1.391 . S
C870 C871 1.400 . S
C871 C870 1.400 . S
C871 C872 1.398 . S
C871 C877 1.491 . S
C872 H863 0.950 . S
C872 C871 1.398 . S
C872 C873 1.391 . S
C873 H861 0.950 . S
C873 C869 1.393 . S
C873 C872 1.391 . S
C874 H864 0.950 . S
C874 C875 1.386 . S
C874 C876 1.391 . S
C875 C874 1.386 . S
C875 C879 1.393 . S
C876 H865 0.950 . S
C876 C874 1.391 . S
C876 C877 1.400 . S
C877 C871 1.491 . S
C877 C876 1.400 . S
C877 C878 1.398 . S
C878 H866 0.950 . S
C878 C877 1.398 . S
C878 C879 1.391 . S
C879 H867 0.950 . S
C879 C875 1.393 . S
C879 C878 1.391 . S
H880 C888 0.950 . S
H881 C893 0.950 . S
H882 C890 0.950 . S
H883 C892 0.950 . S
H884 C894 0.950 . S
H885 C896 0.950 . S
H886 C898 0.950 . S
H887 C899 0.950 . S
C888 H880 0.950 . S
C888 C889 1.386 . S
C888 C890 1.391 . S
C889 C888 1.386 . S
C889 C893 1.393 . S
C890 H882 0.950 . S
C890 C888 1.391 . S
C890 C891 1.400 . S
C891 C890 1.400 . S
C891 C892 1.398 . S
C891 C897 1.491 . S
C892 H883 0.950 . S
C892 C891 1.398 . S
C892 C893 1.391 . S
C893 H881 0.950 . S
C893 C889 1.393 . S
C893 C892 1.391 . S
C894 H884 0.950 . S
C894 C895 1.386 . S
C894 C896 1.391 . S
C895 C894 1.386 . S
C895 C899 1.393 . S
C896 H885 0.950 . S
C896 C894 1.391 . S
C896 C897 1.400 . S
C897 C891 1.491 . S
C897 C896 1.400 . S
C897 C898 1.398 . S
C898 H886 0.950 . S
C898 C897 1.398 . S
C898 C899 1.391 . S
C899 H887 0.950 . S
C899 C895 1.393 . S
C899 C898 1.391 . S
H900 C908 0.950 . S
H901 C913 0.950 . S
H902 C910 0.950 . S
H903 C912 0.950 . S
H904 C914 0.950 . S
H905 C916 0.950 . S
H906 C918 0.950 . S
H907 C919 0.950 . S
C908 H900 0.950 . S
C908 C909 1.386 . S
C908 C910 1.391 . S
C909 C908 1.386 . S
C909 C913 1.393 . S
C910 H902 0.950 . S
C910 C908 1.391 . S
C910 C911 1.400 . S
C911 C910 1.400 . S
C911 C912 1.398 . S
C911 C917 1.491 . S
C912 H903 0.950 . S
C912 C911 1.398 . S
C912 C913 1.391 . S
C913 H901 0.950 . S
C913 C909 1.393 . S
C913 C912 1.391 . S
C914 H904 0.950 . S
C914 C915 1.386 . S
C914 C916 1.391 . S
C915 C914 1.386 . S
C915 C919 1.393 . S
C916 H905 0.950 . S
C916 C914 1.391 . S
C916 C917 1.400 . S
C917 C911 1.491 . S
C917 C916 1.400 . S
C917 C918 1.398 . S
C918 H906 0.950 . S
C918 C917 1.398 . S
C918 C919 1.391 . S
C919 H907 0.950 . S
C919 C915 1.393 . S
C919 C918 1.391 . S
H920 C928 0.950 . S
H921 C933 0.950 . S
H922 C930 0.950 . S
H923 C932 0.950 . S
H924 C934 0.950 . S
H925 C936 0.950 . S
H926 C938 0.950 . S
H927 C939 0.950 . S
C928 H920 0.950 . S
C928 C929 1.386 . S
C928 C930 1.391 . S
C929 C928 1.386 . S
C929 C933 1.393 . S
C930 H922 0.950 . S
C930 C928 1.391 . S
C930 C931 1.400 . S
C931 C930 1.400 . S
C931 C932 1.398 . S
C931 C937 1.491 . S
C932 H923 0.950 . S
C932 C931 1.398 . S
C932 C933 1.391 . S
C933 H921 0.950 . S
C933 C929 1.393 . S
C933 C932 1.391 . S
C934 H924 0.950 . S
C934 C935 1.386 . S
C934 C936 1.391 . S
C935 C934 1.386 . S
C935 C939 1.393 . S
C936 H925 0.950 . S
C936 C934 1.391 . S
C936 C937 1.400 . S
C937 C931 1.491 . S
C937 C936 1.400 . S
C937 C938 1.398 . S
C938 H926 0.950 . S
C938 C937 1.398 . S
C938 C939 1.391 . S
C939 H927 0.950 . S
C939 C935 1.393 . S
C939 C938 1.391 . S
H940 C948 0.950 . S
H941 C953 0.950 . S
H942 C950 0.950 . S
H943 C952 0.950 . S
H944 C954 0.950 . S
H945 C956 0.950 . S
H946 C958 0.950 . S
H947 C959 0.950 . S
C948 H940 0.950 . S
C948 C949 1.386 . S
C948 C950 1.391 . S
C949 C948 1.386 . S
C949 C953 1.393 . S
C950 H942 0.950 . S
C950 C948 1.391 . S
C950 C951 1.400 . S
C951 C950 1.400 . S
C951 C952 1.398 . S
C951 C957 1.491 . S
C952 H943 0.950 . S
C952 C951 1.398 . S
C952 C953 1.391 . S
C953 H941 0.950 . S
C953 C949 1.393 . S
C953 C952 1.391 . S
C954 H944 0.950 . S
C954 C955 1.386 . S
C954 C956 1.391 . S
C955 C954 1.386 . S
C955 C959 1.393 . S
C956 H945 0.950 . S
C956 C954 1.391 . S
C956 C957 1.400 . S
C957 C951 1.491 . S
C957 C956 1.400 . S
C957 C958 1.398 . S
C958 H946 0.950 . S
C958 C957 1.398 . S
C958 C959 1.391 . S
C959 H947 0.950 . S
C959 C955 1.393 . S
C959 C958 1.391 . S
C489 C21 1.248 . S
C495 C337 1.335 . S
C509 C61 1.330 . S
C515 C377 1.321 . S
C535 C402 2.304 . S
C529 C82 2.349 . S
C549 C135 2.437 . S
C555 C442 2.375 . S
C575 C373 1.931 . S
C569 C15 1.852 . S
C595 C333 1.930 . S
C589 C42 1.906 . S
C615 C464 1.657 . S
C609 C101 1.670 . S
C635 C424 1.625 . S
C629 C122 1.643 . S
C649 C2 1.370 . S
C655 C466 1.450 . S
C675 C383 2.065 . S
C669 C95 2.106 . S
C689 C141 2.202 . S
C695 C343 2.164 . S
C709 C55 1.421 . S
C715 C426 1.452 . S
C735 C346 1.350 . S
C729 C181 1.353 . S
C749 C202 1.283 . S
C755 C386 1.301 . S
C769 C255 2.372 . S
C775 C423 2.312 . S
C789 C295 2.406 . S
C795 C463 2.350 . S
C809 C175 1.818 . S
C815 C384 1.903 . S
C835 C344 1.922 . S
C829 C221 1.886 . S
C855 C453 1.594 . S
C849 C242 1.612 . S
C875 C413 1.673 . S
C869 C301 1.679 . S
C889 C162 1.460 . S
C895 C457 1.439 . S
C915 C362 2.111 . S
C909 C261 2.132 . S
C935 C322 2.141 . S
C929 C282 2.189 . S
C949 C215 1.434 . S
C955 C417 1.467 . S
