# Generated by pormake.
# Topology ocu, (6,8)-cn, num edge types: 1
# Building blocks:
#     Node 0, Type 0, BuildingBlock: FUNLAD_clean_sbu_0, # of connection points: 6
#     Node 1, Type 0, BuildingBlock: FUNLAD_clean_sbu_0, # of connection points: 6
#     Node 2, Type 0, BuildingBlock: FUNLAD_clean_sbu_0, # of connection points: 6
#     Node 3, Type 0, BuildingBlock: FUNLAD_clean_sbu_0, # of connection points: 6
#     Node 4, Type 0, BuildingBlock: FUNLAD_clean_sbu_0, # of connection points: 6
#     Node 5, Type 0, BuildingBlock: FUNLAD_clean_sbu_0, # of connection points: 6
#     Node 6, Type 0, BuildingBlock: FUNLAD_clean_sbu_0, # of connection points: 6
#     Node 7, Type 0, BuildingBlock: FUNLAD_clean_sbu_0, # of connection points: 6
#     Node 8, Type 1, BuildingBlock: TAGTUT_clean_sbu_1, # of connection points: 8
#     Node 9, Type 1, BuildingBlock: TAGTUT_clean_sbu_1, # of connection points: 8
#     Node 10, Type 1, BuildingBlock: TAGTUT_clean_sbu_1, # of connection points: 8
#     Node 11, Type 1, BuildingBlock: TAGTUT_clean_sbu_1, # of connection points: 8
#     Node 12, Type 1, BuildingBlock: TAGTUT_clean_sbu_1, # of connection points: 8
#     Node 13, Type 1, BuildingBlock: TAGTUT_clean_sbu_1, # of connection points: 8
#     Edge 14, Type (0, 1), BuildingBlock: XUDNAN_clean_linker_2, # of connection points: 2
#     Edge 15, Type (0, 1), BuildingBlock: XUDNAN_clean_linker_2, # of connection points: 2
#     Edge 16, Type (0, 1), BuildingBlock: XUDNAN_clean_linker_2, # of connection points: 2
#     Edge 17, Type (0, 1), BuildingBlock: XUDNAN_clean_linker_2, # of connection points: 2
#     Edge 18, Type (0, 1), BuildingBlock: XUDNAN_clean_linker_2, # of connection points: 2
#     Edge 19, Type (0, 1), BuildingBlock: XUDNAN_clean_linker_2, # of connection points: 2
#     Edge 20, Type (0, 1), BuildingBlock: XUDNAN_clean_linker_2, # of connection points: 2
#     Edge 21, Type (0, 1), BuildingBlock: XUDNAN_clean_linker_2, # of connection points: 2
#     Edge 22, Type (0, 1), BuildingBlock: XUDNAN_clean_linker_2, # of connection points: 2
#     Edge 23, Type (0, 1), BuildingBlock: XUDNAN_clean_linker_2, # of connection points: 2
#     Edge 24, Type (0, 1), BuildingBlock: XUDNAN_clean_linker_2, # of connection points: 2
#     Edge 25, Type (0, 1), BuildingBlock: XUDNAN_clean_linker_2, # of connection points: 2
#     Edge 26, Type (0, 1), BuildingBlock: XUDNAN_clean_linker_2, # of connection points: 2
#     Edge 27, Type (0, 1), BuildingBlock: XUDNAN_clean_linker_2, # of connection points: 2
#     Edge 28, Type (0, 1), BuildingBlock: XUDNAN_clean_linker_2, # of connection points: 2
#     Edge 29, Type (0, 1), BuildingBlock: XUDNAN_clean_linker_2, # of connection points: 2
#     Edge 30, Type (0, 1), BuildingBlock: XUDNAN_clean_linker_2, # of connection points: 2
#     Edge 31, Type (0, 1), BuildingBlock: XUDNAN_clean_linker_2, # of connection points: 2
#     Edge 32, Type (0, 1), BuildingBlock: XUDNAN_clean_linker_2, # of connection points: 2
#     Edge 33, Type (0, 1), BuildingBlock: XUDNAN_clean_linker_2, # of connection points: 2
#     Edge 34, Type (0, 1), BuildingBlock: XUDNAN_clean_linker_2, # of connection points: 2
#     Edge 35, Type (0, 1), BuildingBlock: XUDNAN_clean_linker_2, # of connection points: 2
#     Edge 36, Type (0, 1), BuildingBlock: XUDNAN_clean_linker_2, # of connection points: 2
#     Edge 37, Type (0, 1), BuildingBlock: XUDNAN_clean_linker_2, # of connection points: 2
#     Edge 38, Type (0, 1), BuildingBlock: XUDNAN_clean_linker_2, # of connection points: 2
#     Edge 39, Type (0, 1), BuildingBlock: XUDNAN_clean_linker_2, # of connection points: 2
#     Edge 40, Type (0, 1), BuildingBlock: XUDNAN_clean_linker_2, # of connection points: 2
#     Edge 41, Type (0, 1), BuildingBlock: XUDNAN_clean_linker_2, # of connection points: 2
#     Edge 42, Type (0, 1), BuildingBlock: XUDNAN_clean_linker_2, # of connection points: 2
#     Edge 43, Type (0, 1), BuildingBlock: XUDNAN_clean_linker_2, # of connection points: 2
#     Edge 44, Type (0, 1), BuildingBlock: XUDNAN_clean_linker_2, # of connection points: 2
#     Edge 45, Type (0, 1), BuildingBlock: XUDNAN_clean_linker_2, # of connection points: 2
#     Edge 46, Type (0, 1), BuildingBlock: XUDNAN_clean_linker_2, # of connection points: 2
#     Edge 47, Type (0, 1), BuildingBlock: XUDNAN_clean_linker_2, # of connection points: 2
#     Edge 48, Type (0, 1), BuildingBlock: XUDNAN_clean_linker_2, # of connection points: 2
#     Edge 49, Type (0, 1), BuildingBlock: XUDNAN_clean_linker_2, # of connection points: 2
#     Edge 50, Type (0, 1), BuildingBlock: XUDNAN_clean_linker_2, # of connection points: 2
#     Edge 51, Type (0, 1), BuildingBlock: XUDNAN_clean_linker_2, # of connection points: 2
#     Edge 52, Type (0, 1), BuildingBlock: XUDNAN_clean_linker_2, # of connection points: 2
#     Edge 53, Type (0, 1), BuildingBlock: XUDNAN_clean_linker_2, # of connection points: 2
#     Edge 54, Type (0, 1), BuildingBlock: XUDNAN_clean_linker_2, # of connection points: 2
#     Edge 55, Type (0, 1), BuildingBlock: XUDNAN_clean_linker_2, # of connection points: 2
#     Edge 56, Type (0, 1), BuildingBlock: XUDNAN_clean_linker_2, # of connection points: 2
#     Edge 57, Type (0, 1), BuildingBlock: XUDNAN_clean_linker_2, # of connection points: 2
#     Edge 58, Type (0, 1), BuildingBlock: XUDNAN_clean_linker_2, # of connection points: 2
#     Edge 59, Type (0, 1), BuildingBlock: XUDNAN_clean_linker_2, # of connection points: 2
#     Edge 60, Type (0, 1), BuildingBlock: XUDNAN_clean_linker_2, # of connection points: 2
#     Edge 61, Type (0, 1), BuildingBlock: XUDNAN_clean_linker_2, # of connection points: 2
# Relax obj value: 0.204
# Max RMSD: 0.257
# Mean RMSD: 0.202
data_MOF--net-ocu--node1-FUNLAD_clean_sbu_0--node2-TAGTUT_clean_sbu_1--edge1-XUDNAN_clean_linker_2
_symmetry_space_group_name_H-M    P1
_symmetry_Int_Tables_number       1
_symmetry_cell_setting            triclinic
loop_
_symmetry_equiv_pos_as_xyz
'x, y, z'
_cell_length_a     38.976394
_cell_length_b     36.744266
_cell_length_c     40.601777
_cell_angle_alpha  85.320307
_cell_angle_beta   86.897245
_cell_angle_gamma 91.715082
loop_
_atom_site_label
_atom_site_type_symbol
_atom_site_fract_x
_atom_site_fract_y
_atom_site_fract_z
_atom_type_partial_charge
C0 C 0.22835 0.27274 0.31083 0.0
N1 N 0.21253 0.18775 0.2497 0.0
C2 C 0.20954 0.16307 0.27652 0.0
C3 C 0.18526 0.1345 0.27794 0.0
C4 C 0.1634 0.13169 0.25177 0.0
C5 C 0.1679 0.15655 0.22376 0.0
C6 C 0.1932 0.18436 0.22306 0.0
Zn7 Zn 0.24409 0.23212 0.25136 0.0
C8 C 0.21034 0.29873 0.22032 0.0
N9 N 0.30769 0.327 0.25187 0.0
C10 C 0.32637 0.32951 0.2791 0.0
C11 C 0.31401 0.34993 0.22412 0.0
C12 C 0.34157 0.37504 0.22222 0.0
C13 C 0.3628 0.37609 0.24895 0.0
C14 C 0.35464 0.35388 0.27803 0.0
Zn15 Zn 0.27527 0.28332 0.25013 0.0
O16 O 0.22056 0.24334 0.29801 0.0
C17 C 0.30885 0.21653 0.2813 0.0
O18 O 0.25136 0.29444 0.29623 0.0
H19 H 0.29903 0.34715 0.20276 0.0
H20 H 0.22488 0.16652 0.29752 0.0
H21 H 0.32074 0.31099 0.30093 0.0
O22 O 0.28121 0.19997 0.27517 0.0
O23 O 0.31226 0.25069 0.27385 0.0
H24 H 0.19632 0.20418 0.20183 0.0
O25 O 0.29888 0.27196 0.20363 0.0
O26 O 0.2676 0.22126 0.20513 0.0
O27 O 0.23811 0.31559 0.22589 0.0
O28 O 0.20711 0.26459 0.22807 0.0
C29 C 0.29069 0.24285 0.19057 0.0
H30 H 0.18194 0.1164 0.30041 0.0
H31 H 0.15115 0.15539 0.20341 0.0
H32 H 0.34768 0.39179 0.1993 0.0
H33 H 0.37087 0.35404 0.29885 0.0
C34 C 0.70563 0.29236 0.22634 0.0
N35 N 0.74508 0.1916 0.20191 0.0
C36 C 0.71214 0.17964 0.19883 0.0
C37 C 0.70436 0.1571 0.17415 0.0
C38 C 0.73056 0.14738 0.15185 0.0
C39 C 0.76443 0.15966 0.15561 0.0
C40 C 0.77124 0.18158 0.18129 0.0
Zn41 Zn 0.75305 0.22792 0.23654 0.0
C42 C 0.80597 0.28724 0.21145 0.0
N43 N 0.76575 0.30701 0.30602 0.0
C44 C 0.73883 0.3217 0.32252 0.0
C45 C 0.79879 0.31455 0.31303 0.0
C46 C 0.80579 0.33661 0.33821 0.0
C47 C 0.77859 0.35145 0.35603 0.0
C48 C 0.74476 0.34451 0.34773 0.0
Zn49 Zn 0.75825 0.27087 0.27157 0.0
O50 O 0.7141 0.26221 0.21525 0.0
C51 C 0.70545 0.2121 0.29696 0.0
O52 O 0.72043 0.30314 0.25103 0.0
H53 H 0.8198 0.3029 0.29945 0.0
H54 H 0.69156 0.18851 0.21487 0.0
H55 H 0.71276 0.31523 0.31651 0.0
O56 O 0.71477 0.1992 0.2699 0.0
O57 O 0.71954 0.24187 0.30423 0.0
H58 H 0.79726 0.19139 0.18414 0.0
O59 O 0.79723 0.23795 0.29179 0.0
O60 O 0.79141 0.19472 0.25801 0.0
O61 O 0.79614 0.30012 0.23838 0.0
O62 O 0.79243 0.25715 0.20416 0.0
C63 C 0.80632 0.20762 0.28181 0.0
H64 H 0.6778 0.1488 0.17151 0.0
H65 H 0.78519 0.15287 0.13861 0.0
H66 H 0.83224 0.3419 0.3439 0.0
H67 H 0.72331 0.3558 0.36108 0.0
C68 C 0.7951 0.71122 0.28742 0.0
N69 N 0.80625 0.81787 0.24257 0.0
C70 C 0.8392 0.81078 0.24965 0.0
C71 C 0.85811 0.83539 0.26648 0.0
C72 C 0.84347 0.86834 0.27471 0.0
C73 C 0.8123 0.87775 0.26092 0.0
C74 C 0.79362 0.85166 0.24559 0.0
Zn75 Zn 0.77124 0.77481 0.24478 0.0
C76 C 0.77661 0.72468 0.19392 0.0
N77 N 0.69504 0.68813 0.2581 0.0
C78 C 0.70856 0.65452 0.25632 0.0
C79 C 0.66286 0.69456 0.24814 0.0
C80 C 0.64634 0.66964 0.22964 0.0
C81 C 0.66254 0.63713 0.22265 0.0
C82 C 0.6923 0.62826 0.23914 0.0
Zn83 Zn 0.72974 0.73173 0.2564 0.0
O84 O 0.80468 0.74227 0.2736 0.0
C85 C 0.72402 0.78144 0.30733 0.0
O86 O 0.76442 0.69962 0.28479 0.0
H87 H 0.65179 0.72087 0.25064 0.0
H88 H 0.84935 0.78423 0.24618 0.0
H89 H 0.73402 0.64926 0.26427 0.0
O90 O 0.74948 0.79452 0.28873 0.0
O91 O 0.70841 0.7524 0.3002 0.0
H92 H 0.76746 0.85723 0.2399 0.0
O93 O 0.69616 0.76509 0.22763 0.0
O94 O 0.73717 0.807 0.21656 0.0
O95 O 0.75115 0.71215 0.21268 0.0
O96 O 0.7926 0.75361 0.20081 0.0
C97 C 0.70627 0.79616 0.21404 0.0
H98 H 0.8822 0.82648 0.27579 0.0
H99 H 0.80067 0.90355 0.26474 0.0
H100 H 0.62312 0.67794 0.21815 0.0
H101 H 0.70492 0.60281 0.23604 0.0
C102 C 0.22323 0.81082 0.26958 0.0
N103 N 0.30095 0.7511 0.30897 0.0
C104 C 0.28146 0.75322 0.33762 0.0
C105 C 0.2939 0.77251 0.36275 0.0
C106 C 0.32629 0.78988 0.35788 0.0
C107 C 0.34761 0.78332 0.33024 0.0
C108 C 0.33441 0.7631 0.30595 0.0
Zn109 Zn 0.27453 0.74796 0.26749 0.0
C110 C 0.20817 0.70557 0.28253 0.0
N111 N 0.21348 0.75292 0.18516 0.0
C112 C 0.21132 0.77919 0.15968 0.0
C113 C 0.20287 0.71776 0.18237 0.0
C114 C 0.19021 0.70752 0.15332 0.0
C115 C 0.18824 0.73353 0.12657 0.0
C116 C 0.19833 0.76997 0.12972 0.0
Zn117 Zn 0.24026 0.75775 0.22626 0.0
O118 O 0.24687 0.79277 0.28277 0.0
C119 C 0.30601 0.80098 0.2113 0.0
O120 O 0.21232 0.80242 0.24213 0.0
H121 H 0.2059 0.69678 0.20208 0.0
H122 H 0.25471 0.74444 0.33946 0.0
H123 H 0.22071 0.80678 0.16214 0.0
O124 O 0.31137 0.78545 0.23964 0.0
O125 O 0.2774 0.79463 0.1988 0.0
H126 H 0.34954 0.7609 0.28314 0.0
O127 O 0.26915 0.71292 0.21073 0.0
O128 O 0.30256 0.70427 0.25209 0.0
O129 O 0.20259 0.72197 0.2547 0.0
O130 O 0.23742 0.71026 0.29419 0.0
C131 C 0.29317 0.6957 0.22422 0.0
H132 H 0.2769 0.77745 0.38382 0.0
H133 H 0.37289 0.7965 0.32607 0.0
H134 H 0.18239 0.6792 0.15156 0.0
H135 H 0.19667 0.79064 0.10933 0.0
C136 C 0.20529 0.79444 0.72612 0.0
N137 N 0.24591 0.69707 0.69722 0.0
C138 C 0.21341 0.6839 0.69387 0.0
C139 C 0.20656 0.66174 0.66866 0.0
C140 C 0.2332 0.65369 0.64612 0.0
C141 C 0.26655 0.66748 0.64993 0.0
C142 C 0.27248 0.68893 0.67616 0.0
Zn143 Zn 0.25269 0.73137 0.7337 0.0
C144 C 0.30599 0.79116 0.71447 0.0
N145 N 0.26336 0.80377 0.80958 0.0
C146 C 0.23657 0.8165 0.82779 0.0
C147 C 0.29644 0.81361 0.81474 0.0
C148 C 0.30365 0.83753 0.83845 0.0
C149 C 0.27667 0.85093 0.85765 0.0
C150 C 0.24274 0.83999 0.85249 0.0
Zn151 Zn 0.25634 0.7693 0.77331 0.0
O152 O 0.2138 0.76477 0.71436 0.0
C153 C 0.20303 0.71053 0.79332 0.0
O154 O 0.21982 0.80442 0.75139 0.0
H155 H 0.31744 0.8027 0.80057 0.0
H156 H 0.19247 0.69131 0.71026 0.0
H157 H 0.21047 0.80829 0.8233 0.0
O158 O 0.2145 0.69948 0.76605 0.0
O159 O 0.21551 0.74011 0.80268 0.0
H160 H 0.29812 0.69968 0.67924 0.0
O161 O 0.29311 0.73329 0.79449 0.0
O162 O 0.29118 0.69813 0.75339 0.0
O163 O 0.29662 0.79839 0.74358 0.0
O164 O 0.2913 0.76428 0.70229 0.0
C165 C 0.30345 0.70548 0.78054 0.0
H166 H 0.18034 0.65225 0.66595 0.0
H167 H 0.28758 0.66205 0.63268 0.0
H168 H 0.3302 0.84479 0.84234 0.0
H169 H 0.2214 0.84961 0.86723 0.0
C170 C 0.29825 0.20905 0.78017 0.0
N171 N 0.2995 0.32309 0.75186 0.0
C172 C 0.33299 0.31822 0.75827 0.0
C173 C 0.35008 0.34245 0.77703 0.0
C174 C 0.33282 0.3726 0.78837 0.0
C175 C 0.30026 0.37989 0.77669 0.0
C176 C 0.28373 0.35433 0.75894 0.0
Zn177 Zn 0.26848 0.27824 0.74648 0.0
C178 C 0.28054 0.23982 0.68941 0.0
N179 N 0.20053 0.18568 0.74638 0.0
C180 C 0.19894 0.15237 0.76405 0.0
C181 C 0.1849 0.19066 0.71723 0.0
C182 C 0.16675 0.16244 0.70498 0.0
C183 C 0.16517 0.12782 0.72198 0.0
C184 C 0.18142 0.12255 0.75197 0.0
Zn185 Zn 0.23279 0.22944 0.75369 0.0
O186 O 0.30441 0.24285 0.77168 0.0
C187 C 0.22256 0.26856 0.81115 0.0
O188 O 0.26906 0.19491 0.77506 0.0
H189 H 0.18824 0.2159 0.70178 0.0
H190 H 0.34539 0.29358 0.75206 0.0
H191 H 0.21256 0.14842 0.78651 0.0
O192 O 0.24484 0.2873 0.79251 0.0
O193 O 0.21023 0.23879 0.80177 0.0
H194 H 0.25702 0.35786 0.75411 0.0
O195 O 0.19643 0.26501 0.73323 0.0
O196 O 0.23167 0.312 0.7213 0.0
O197 O 0.25657 0.22107 0.70595 0.0
O198 O 0.2924 0.26865 0.70059 0.0
C199 C 0.20169 0.29755 0.72085 0.0
H200 H 0.37521 0.33533 0.78505 0.0
H201 H 0.28637 0.40345 0.78355 0.0
H202 H 0.15554 0.16725 0.68119 0.0
H203 H 0.18117 0.09581 0.76536 0.0
C204 C 0.72768 0.30774 0.77841 0.0
N205 N 0.81189 0.24685 0.80228 0.0
C206 C 0.82306 0.28177 0.80521 0.0
C207 C 0.8479 0.28913 0.82675 0.0
C208 C 0.86215 0.26042 0.84541 0.0
C209 C 0.85026 0.22441 0.84283 0.0
C210 C 0.82467 0.21813 0.82064 0.0
Zn211 Zn 0.7767 0.24476 0.76743 0.0
C212 C 0.71331 0.20319 0.78721 0.0
N213 N 0.70581 0.2575 0.69387 0.0
C214 C 0.68961 0.28641 0.67919 0.0
C215 C 0.6979 0.22262 0.6874 0.0
C216 C 0.67321 0.21549 0.66563 0.0
C217 C 0.6553 0.24428 0.65102 0.0
C218 C 0.66358 0.2803 0.65746 0.0
Zn219 Zn 0.74033 0.25934 0.7292 0.0
O220 O 0.75257 0.28907 0.7881 0.0
C221 C 0.80343 0.30086 0.7091 0.0
O222 O 0.71399 0.30112 0.7518 0.0
H223 H 0.70977 0.19976 0.7001 0.0
H224 H 0.81308 0.30437 0.79045 0.0
H225 H 0.69607 0.31387 0.68509 0.0
O226 O 0.81066 0.28139 0.735 0.0
O227 O 0.77289 0.29893 0.69959 0.0
H228 H 0.81538 0.19059 0.81782 0.0
O229 O 0.76796 0.21755 0.70649 0.0
O230 O 0.80026 0.20068 0.74708 0.0
O231 O 0.70739 0.21999 0.75955 0.0
O232 O 0.74269 0.20789 0.79879 0.0
C233 C 0.79068 0.19691 0.71816 0.0
H234 H 0.85634 0.31727 0.82852 0.0
H235 H 0.86084 0.20177 0.85725 0.0
H236 H 0.66699 0.18735 0.66135 0.0
H237 H 0.64972 0.30295 0.6466 0.0
C238 C 0.71831 0.76285 0.81457 0.0
N239 N 0.69352 0.68192 0.75128 0.0
C240 C 0.66206 0.68859 0.76507 0.0
C241 C 0.63501 0.66326 0.76486 0.0
C242 C 0.63949 0.63079 0.74913 0.0
C243 C 0.67165 0.62614 0.73258 0.0
C244 C 0.69858 0.65178 0.73453 0.0
Zn245 Zn 0.73062 0.72165 0.75395 0.0
C246 C 0.70107 0.79274 0.72371 0.0
N247 N 0.8001 0.81145 0.75632 0.0
C248 C 0.7934 0.84488 0.76681 0.0
C249 C 0.83272 0.80197 0.74817 0.0
C250 C 0.85996 0.82698 0.74861 0.0
C251 C 0.85371 0.86258 0.75692 0.0
C252 C 0.82008 0.87111 0.7673 0.0
Zn253 Zn 0.7633 0.7719 0.75364 0.0
O254 O 0.7095 0.73388 0.80163 0.0
C255 C 0.79258 0.7005 0.78377 0.0
O256 O 0.74137 0.78414 0.79969 0.0
H257 H 0.83764 0.77523 0.74008 0.0
H258 H 0.65781 0.71348 0.77688 0.0
H259 H 0.76729 0.85156 0.77372 0.0
O260 O 0.76464 0.68466 0.77717 0.0
O261 O 0.79655 0.73478 0.77727 0.0
H262 H 0.72352 0.6474 0.72282 0.0
O263 O 0.78522 0.76002 0.70698 0.0
O264 O 0.75296 0.71023 0.70686 0.0
O265 O 0.7293 0.8085 0.72966 0.0
O266 O 0.6968 0.75859 0.73104 0.0
C267 C 0.77654 0.73174 0.693 0.0
H268 H 0.61154 0.66885 0.77863 0.0
H269 H 0.67657 0.6025 0.71907 0.0
H270 H 0.88516 0.81929 0.7396 0.0
H271 H 0.81419 0.8984 0.77362 0.0
C272 C 0.90884 0.07931 0.54069 0.0
C273 C 0.94829 0.07818 0.43728 0.0
C274 C 0.96301 0.93386 0.46726 0.0
Mg275 Mg 0.98155 0.08296 0.50476 0.0
O276 O 0.97371 0.03257 0.51204 0.0
Mg277 Mg 0.93136 0.00867 0.49711 0.0
Mg278 Mg 0.00818 0.99727 0.49882 0.0
O279 O 0.0429 0.96194 0.48556 0.0
Mg280 Mg 0.03679 0.91138 0.49378 0.0
Mg281 Mg 0.08548 0.98713 0.4985 0.0
C282 C 0.05348 0.05919 0.5333 0.0
C283 C 0.05429 0.03285 0.43589 0.0
O284 O 0.90102 0.04995 0.52719 0.0
O285 O 0.93823 0.09589 0.5358 0.0
O286 O 0.93235 0.04853 0.44924 0.0
O287 O 0.97043 0.09465 0.45354 0.0
O288 O 0.03167 0.08428 0.52756 0.0
O289 O 0.04934 0.02732 0.5233 0.0
C290 C 0.96012 0.96157 0.56041 0.0
O291 O 0.99104 0.9655 0.54797 0.0
O292 O 0.93452 0.97325 0.54465 0.0
O293 O 0.11582 0.94573 0.46865 0.0
O294 O 0.07916 0.89917 0.4608 0.0
O295 O 0.08566 0.94975 0.5469 0.0
C296 C 0.10818 0.91644 0.4549 0.0
O297 O 0.05034 0.90072 0.54494 0.0
O298 O 0.98522 0.90933 0.47377 0.0
C299 C 0.07136 0.91989 0.5602 0.0
O300 O 0.96755 0.96712 0.4739 0.0
O301 O 0.02418 0.02917 0.45 0.0
O302 O 0.08085 0.02113 0.45002 0.0
C303 C 0.42541 0.11636 0.02758 0.0
C304 C 0.45343 0.08911 0.92901 0.0
C305 C 0.44351 0.95029 0.98168 0.0
Mg306 Mg 0.49387 0.09589 0.99117 0.0
O307 O 0.47764 0.04939 0.01033 0.0
Mg308 Mg 0.43079 0.03284 0.99771 0.0
Mg309 Mg 0.5044 0.0063 0.99845 0.0
O310 O 0.53098 0.96304 0.98671 0.0
Mg311 Mg 0.51414 0.91696 0.00651 0.0
Mg312 Mg 0.57747 0.97923 1.00043 0.0
C313 C 0.56474 0.06235 0.01592 0.0
C314 C 0.56172 0.03513 0.93753 0.0
O315 O 0.4115 0.08535 0.02182 0.0
O316 O 0.45684 0.12543 0.01874 0.0
O317 O 0.43525 0.06506 0.94709 0.0
O318 O 0.47995 0.1045 0.93971 0.0
O319 O 0.54786 0.08996 0.00468 0.0
O320 O 0.55142 0.02978 0.02051 0.0
C321 C 0.44824 0.97682 0.06014 0.0
O322 O 0.47949 0.97557 0.04812 0.0
O323 O 0.42674 0.998 0.04642 0.0
O324 O 0.59686 0.9261 0.97744 0.0
O325 O 0.55125 0.88638 0.9803 0.0
O326 O 0.57181 0.94767 0.05109 0.0
C327 C 0.58289 0.89501 0.97201 0.0
O328 O 0.52678 0.90874 0.05819 0.0
O329 O 0.46035 0.92275 0.99304 0.0
C330 C 0.55316 0.92405 0.06916 0.0
O331 O 0.45694 0.98279 0.97667 0.0
O332 O 0.53022 0.03702 0.94883 0.0
O333 O 0.5825 0.01346 0.95173 0.0
C334 C 0.89997 0.58417 0.03266 0.0
C335 C 0.94065 0.5717 0.93295 0.0
C336 C 0.95728 0.43221 0.97567 0.0
Mg337 Mg 0.9728 0.58167 0.99836 0.0
O338 O 0.96641 0.5325 0.01336 0.0
Mg339 Mg 0.92472 0.50767 0.99722 0.0
Mg340 Mg 1.00296 0.49852 1.00043 0.0
O341 O 0.03885 0.46397 0.98803 0.0
Mg342 Mg 0.02948 0.41584 0.00604 0.0
Mg343 Mg 0.08078 0.48805 0.00455 0.0
C344 C 0.04749 0.56571 0.02469 0.0
C345 C 0.05667 0.54042 0.94197 0.0
O346 O 0.89306 0.5519 0.02383 0.0
O347 O 0.92932 0.60045 0.02578 0.0
O348 O 0.9246 0.54397 0.94817 0.0
O349 O 0.96391 0.58925 0.9466 0.0
O350 O 0.02414 0.58743 0.01496 0.0
O351 O 0.04364 0.53064 0.0261 0.0
C352 C 0.95007 0.45504 0.05881 0.0
O353 O 0.98153 0.46034 0.04742 0.0
O354 O 0.92536 0.47096 0.04477 0.0
O355 O 0.11069 0.44106 0.97997 0.0
O356 O 0.07237 0.39377 0.98012 0.0
O357 O 0.07947 0.45323 0.05464 0.0
C358 C 0.10231 0.4085 0.97266 0.0
O359 O 0.03804 0.41004 0.05781 0.0
O360 O 0.97815 0.40967 0.98887 0.0
C361 C 0.06222 0.42686 0.07078 0.0
O362 O 0.96285 0.46703 0.9737 0.0
O363 O 0.02508 0.53637 0.95344 0.0
O364 O 0.08094 0.52361 0.95607 0.0
C365 C 0.41715 0.58788 0.04442 0.0
C366 C 0.44342 0.57378 0.93839 0.0
C367 C 0.46095 0.43448 0.97617 0.0
Mg368 Mg 0.48455 0.58711 0.99989 0.0
O369 O 0.47746 0.53751 0.01258 0.0
Mg370 Mg 0.43296 0.5122 0.00568 0.0
Mg371 Mg 0.51018 0.49968 0.00121 0.0
O372 O 0.54286 0.4619 0.98959 0.0
Mg373 Mg 0.53546 0.41176 0.99933 0.0
Mg374 Mg 0.58625 0.48705 0.99997 0.0
C375 C 0.5592 0.56634 0.0233 0.0
C376 C 0.55394 0.5251 0.93404 0.0
O377 O 0.40621 0.55803 0.03348 0.0
O378 O 0.44641 0.6031 0.03512 0.0
O379 O 0.42941 0.54505 0.95438 0.0
O380 O 0.46636 0.59351 0.9506 0.0
O381 O 0.53761 0.59091 0.01521 0.0
O382 O 0.55306 0.53239 0.02014 0.0
C383 C 0.46864 0.47286 0.06935 0.0
O384 O 0.49762 0.47418 0.05311 0.0
O385 O 0.44114 0.48388 0.05648 0.0
O386 O 0.6151 0.44175 0.97473 0.0
O387 O 0.57728 0.39611 0.96731 0.0
O388 O 0.58542 0.45311 0.05107 0.0
C389 C 0.60708 0.41187 0.96223 0.0
O390 O 0.54943 0.40418 0.05017 0.0
O391 O 0.48342 0.40981 0.98063 0.0
C392 C 0.57055 0.42367 0.065 0.0
O393 O 0.46625 0.46733 0.98346 0.0
O394 O 0.52408 0.5245 0.94886 0.0
O395 O 0.58077 0.51529 0.94892 0.0
C396 C 0.92289 0.61481 0.53217 0.0
C397 C 0.95369 0.59246 0.4328 0.0
C398 C 0.94607 0.45267 0.47863 0.0
Mg399 Mg 0.99265 0.59802 0.49576 0.0
O400 O 0.97773 0.55039 0.51323 0.0
Mg401 Mg 0.93142 0.53343 0.49944 0.0
Mg402 Mg 0.00553 0.50848 0.4996 0.0
O403 O 0.03313 0.46673 0.48582 0.0
Mg404 Mg 0.01691 0.41974 0.50282 0.0
Mg405 Mg 0.07942 0.4827 0.5003 0.0
C406 C 0.06476 0.5648 0.51829 0.0
C407 C 0.06176 0.54032 0.4391 0.0
O408 O 0.91023 0.58377 0.52507 0.0
O409 O 0.95419 0.62532 0.52413 0.0
O410 O 0.93601 0.56754 0.4502 0.0
O411 O 0.97958 0.60831 0.44416 0.0
O412 O 0.04686 0.5922 0.50842 0.0
O413 O 0.05232 0.53179 0.52239 0.0
C414 C 0.94921 0.47551 0.56 0.0
O415 O 0.98068 0.47513 0.54829 0.0
O416 O 0.92765 0.49691 0.54674 0.0
O417 O 0.10017 0.43143 0.47492 0.0
O418 O 0.05532 0.39095 0.47619 0.0
O419 O 0.07454 0.44802 0.54999 0.0
C420 C 0.08686 0.40044 0.4683 0.0
O421 O 0.02806 0.41103 0.55465 0.0
O422 O 0.96353 0.42478 0.48798 0.0
C423 C 0.0549 0.42413 0.56676 0.0
O424 O 0.95887 0.48542 0.4768 0.0
O425 O 0.03033 0.54123 0.4508 0.0
O426 O 0.08328 0.51906 0.45271 0.0
C427 C 0.40559 0.10334 0.5291 0.0
C428 C 0.44851 0.08199 0.43434 0.0
C429 C 0.45207 0.94514 0.47966 0.0
Mg430 Mg 0.47954 0.09036 0.49958 0.0
O431 O 0.46697 0.04353 0.51903 0.0
Mg432 Mg 0.42456 0.02216 0.50033 0.0
Mg433 Mg 0.50137 0.00715 0.50636 0.0
O434 O 0.53529 0.97087 0.49286 0.0
Mg435 Mg 0.52524 0.92113 0.50494 0.0
Mg436 Mg 0.57798 0.99221 0.51008 0.0
C437 C 0.54982 0.06959 0.53221 0.0
C438 C 0.55688 0.04846 0.44938 0.0
O439 O 0.39572 0.07031 0.52453 0.0
O440 O 0.43625 0.11591 0.52122 0.0
O441 O 0.42867 0.05792 0.45068 0.0
O442 O 0.47423 0.09586 0.44735 0.0
O443 O 0.53007 0.09333 0.51897 0.0
O444 O 0.5427 0.03503 0.53421 0.0
C445 C 0.445 0.96575 0.56209 0.0
O446 O 0.47707 0.97 0.55243 0.0
O447 O 0.42156 0.98353 0.54747 0.0
O448 O 0.6068 0.9471 0.48262 0.0
O449 O 0.56827 0.90144 0.47675 0.0
O450 O 0.57475 0.95384 0.55789 0.0
C451 C 0.59858 0.91615 0.47176 0.0
O452 O 0.53416 0.91009 0.55676 0.0
O453 O 0.47264 0.91985 0.48857 0.0
C454 C 0.55762 0.926 0.57166 0.0
O455 O 0.4603 0.97924 0.47922 0.0
O456 O 0.52521 0.04484 0.46037 0.0
O457 O 0.5805 0.03059 0.46335 0.0
H458 H 0.161 0.05971 0.27126 0.0
H459 H 0.09714 0.15136 0.24852 0.0
H460 H 0.05084 0.12299 0.28619 0.0
H461 H 0.08305 0.98672 0.30159 0.0
H462 H 0.10999 0.9687 0.33331 0.0
H463 H 0.12864 0.9837 0.29267 0.0
H464 H 0.17125 0.0257 0.31985 0.0
H465 H 0.15203 0.01228 0.36006 0.0
H466 H 0.1548 0.06 0.34536 0.0
H467 H 0.02446 0.10146 0.34051 0.0
H468 H 0.01673 0.08275 0.40048 0.0
H469 H 0.09922 0.00729 0.39151 0.0
C470 C 0.13615 0.07207 0.2725 0.0
C471 C 0.13248 0.10753 0.25756 0.0
C472 C 0.10022 0.12392 0.25966 0.0
C473 C 0.07379 0.108 0.28128 0.0
C474 C 0.08007 0.07558 0.29999 0.0
C475 C 0.1101 0.05682 0.29483 0.0
C476 C 0.11477 0.02812 0.32306 0.0
C477 C 0.10872 0.98953 0.31199 0.0
C478 C 0.15026 0.03186 0.33793 0.0
C479 C 0.08602 0.03768 0.34687 0.0
C480 C 0.06515 0.06364 0.33266 0.0
C481 C 0.03985 0.08016 0.35149 0.0
C482 C 0.0359 0.06988 0.38556 0.0
C483 C 0.05784 0.04426 0.4004 0.0
C484 C 0.08251 0.02745 0.38066 0.0
H485 H 0.80877 0.13688 0.30927 0.0
H486 H 0.86861 0.23835 0.28985 0.0
H487 H 0.91627 0.21132 0.32005 0.0
H488 H 0.82979 0.1221 0.39075 0.0
H489 H 0.83148 0.07305 0.39182 0.0
H490 H 0.80503 0.09731 0.36311 0.0
H491 H 0.83648 0.06808 0.3145 0.0
H492 H 0.86313 0.04375 0.34319 0.0
H493 H 0.88264 0.07278 0.3089 0.0
H494 H 0.95434 0.17669 0.35704 0.0
H495 H 0.97819 0.13916 0.40269 0.0
H496 H 0.89313 0.06026 0.40124 0.0
C497 C 0.83244 0.15278 0.31053 0.0
C498 C 0.83553 0.18936 0.29677 0.0
C499 C 0.86612 0.21011 0.29995 0.0
C500 C 0.89334 0.19492 0.31688 0.0
C501 C 0.88943 0.15902 0.33082 0.0
C502 C 0.85969 0.13819 0.32807 0.0
C503 C 0.86029 0.10223 0.34928 0.0
C504 C 0.82986 0.09848 0.37528 0.0
C505 C 0.86066 0.06979 0.32767 0.0
C506 C 0.89433 0.10679 0.36526 0.0
C507 C 0.91106 0.13933 0.35355 0.0
C508 C 0.94172 0.1509 0.36612 0.0
C509 C 0.95508 0.12933 0.39214 0.0
C510 C 0.93766 0.09662 0.40566 0.0
C511 C 0.90741 0.08478 0.39123 0.0
H512 H 0.91022 0.87254 0.29495 0.0
H513 H 0.80711 0.90893 0.31844 0.0
H514 H 0.82689 0.93256 0.36893 0.0
H515 H 0.92038 0.83478 0.37494 0.0
H516 H 0.96581 0.84562 0.37474 0.0
H517 H 0.94619 0.83869 0.33653 0.0
H518 H 0.96884 0.9027 0.3115 0.0
H519 H 0.98922 0.90948 0.3494 0.0
H520 H 0.95958 0.94232 0.33344 0.0
H521 H 0.85743 0.9494 0.41955 0.0
H522 H 0.89617 0.95579 0.46559 0.0
H523 H 0.97436 0.89795 0.41298 0.0
C524 C 0.89159 0.88561 0.31033 0.0
C525 C 0.85701 0.88878 0.30191 0.0
C526 C 0.83405 0.90687 0.32312 0.0
C527 C 0.8449 0.9201 0.35239 0.0
C528 C 0.87858 0.91453 0.36065 0.0
C529 C 0.90153 0.89762 0.34024 0.0
C530 C 0.9351 0.89117 0.35632 0.0
C531 C 0.94226 0.85013 0.3609 0.0
C532 C 0.96494 0.91272 0.33649 0.0
C533 C 0.92721 0.90657 0.38915 0.0
C534 C 0.89483 0.92075 0.39101 0.0
C535 C 0.8827 0.93798 0.41856 0.0
C536 C 0.90461 0.94124 0.44463 0.0
C537 C 0.93757 0.92622 0.44318 0.0
C538 C 0.94871 0.90841 0.41525 0.0
H539 H 0.15745 0.81222 0.29508 0.0
H540 H 0.25651 0.86945 0.29016 0.0
H541 H 0.23677 0.90566 0.33581 0.0
H542 H 0.10359 0.89015 0.32187 0.0
H543 H 0.07627 0.85913 0.34909 0.0
H544 H 0.09568 0.84395 0.31153 0.0
H545 H 0.12191 0.79031 0.34608 0.0
H546 H 0.1036 0.80594 0.3838 0.0
H547 H 0.14928 0.80001 0.37892 0.0
H548 H 0.20903 0.92965 0.38646 0.0
H549 H 0.17384 0.94261 0.43633 0.0
H550 H 0.09411 0.86675 0.4102 0.0
C551 C 0.17413 0.83387 0.30245 0.0
C552 C 0.20795 0.83923 0.28846 0.0
C553 C 0.23008 0.86604 0.29997 0.0
C554 C 0.21918 0.88646 0.32602 0.0
C555 C 0.18617 0.87941 0.34046 0.0
C556 C 0.16377 0.85409 0.32884 0.0
C557 C 0.1312 0.84877 0.35105 0.0
C558 C 0.09983 0.86125 0.33227 0.0
C559 C 0.12624 0.8089 0.36583 0.0
C560 C 0.13927 0.87413 0.3774 0.0
C561 C 0.17086 0.89191 0.37064 0.0
C562 C 0.18407 0.91614 0.39185 0.0
C563 C 0.16403 0.92308 0.42029 0.0
C564 C 0.13129 0.90551 0.42747 0.0
C565 C 0.11913 0.8804 0.40577 0.0
H566 H 0.16394 0.77639 0.67711 0.0
H567 H 0.18963 0.86508 0.73672 0.0
H568 H 0.15126 0.90525 0.70489 0.0
H569 H 0.16451 0.82774 0.60198 0.0
H570 H 0.12891 0.8034 0.58624 0.0
H571 H 0.15481 0.78064 0.61636 0.0
H572 H 0.10035 0.7643 0.65481 0.0
H573 H 0.07421 0.78713 0.62476 0.0
H574 H 0.07277 0.80012 0.66666 0.0
H575 H 0.11689 0.93787 0.66154 0.0
H576 H 0.08814 0.95971 0.61118 0.0
H577 H 0.08235 0.84907 0.58164 0.0
C578 C 0.16103 0.80406 0.68393 0.0
C579 C 0.17981 0.8176 0.70943 0.0
C580 C 0.17539 0.85404 0.7174 0.0
C581 C 0.1536 0.87704 0.69949 0.0
C582 C 0.13597 0.863 0.67406 0.0
C583 C 0.13916 0.82721 0.66655 0.0
C584 C 0.11927 0.81942 0.6367 0.0
C585 C 0.14331 0.80709 0.60868 0.0
C586 C 0.0899 0.79106 0.64632 0.0
C587 C 0.10546 0.85681 0.62773 0.0
C588 C 0.11516 0.88153 0.64974 0.0
C589 C 0.10845 0.91857 0.64464 0.0
C590 C 0.09216 0.93074 0.61598 0.0
C591 C 0.08251 0.90592 0.59292 0.0
C592 C 0.08846 0.86839 0.5994 0.0
H593 H 0.09933 0.12342 0.70641 0.0
H594 H 0.19612 0.06994 0.69623 0.0
H595 H 0.17591 0.04059 0.64767 0.0
H596 H 0.04184 0.05271 0.66909 0.0
H597 H 0.01878 0.08923 0.64899 0.0
H598 H 0.03608 0.09459 0.68865 0.0
H599 H 0.06804 0.15406 0.66344 0.0
H600 H 0.0526 0.14806 0.62332 0.0
H601 H 0.09818 0.15223 0.62836 0.0
H602 H 0.14857 0.02674 0.59376 0.0
H603 H 0.11573 0.02701 0.54294 0.0
H604 H 0.0418 0.09772 0.5863 0.0
C605 C 0.11522 0.10351 0.69527 0.0
C606 C 0.14883 0.09816 0.70534 0.0
C607 C 0.16986 0.0734 0.68941 0.0
C608 C 0.15871 0.05707 0.66151 0.0
C609 C 0.12659 0.06595 0.65009 0.0
C610 C 0.10491 0.08817 0.66695 0.0
C611 C 0.0746 0.09899 0.6471 0.0
C612 C 0.04083 0.08291 0.66449 0.0
C613 C 0.07333 0.14079 0.64016 0.0
C614 C 0.08328 0.08089 0.61584 0.0
C615 C 0.11273 0.06105 0.61814 0.0
C616 C 0.12543 0.04214 0.59184 0.0
C617 C 0.10694 0.04281 0.56294 0.0
C618 C 0.07683 0.06327 0.5603 0.0
C619 C 0.06533 0.08278 0.58705 0.0
H620 H 0.78469 0.19284 0.65182 0.0
H621 H 0.83429 0.14271 0.73656 0.0
H622 H 0.86509 0.10251 0.69994 0.0
H623 H 0.77688 0.11036 0.60606 0.0
H624 H 0.78637 0.13571 0.56655 0.0
H625 H 0.76503 0.15737 0.59987 0.0
H626 H 0.81251 0.20872 0.59441 0.0
H627 H 0.83403 0.18725 0.56119 0.0
H628 H 0.85687 0.19682 0.59712 0.0
H629 H 0.89471 0.07319 0.65433 0.0
H630 H 0.92094 0.05414 0.60207 0.0
H631 H 0.85364 0.12435 0.54619 0.0
C632 C 0.8015 0.17289 0.66284 0.0
C633 C 0.80699 0.1707 0.6971 0.0
C634 C 0.82965 0.14474 0.71042 0.0
C635 C 0.84714 0.12176 0.68984 0.0
C636 C 0.84162 0.12516 0.6561 0.0
C637 C 0.81932 0.14998 0.64264 0.0
C638 C 0.82009 0.15013 0.60523 0.0
C639 C 0.785 0.13764 0.59376 0.0
C640 C 0.83157 0.18797 0.58852 0.0
C641 C 0.84699 0.12205 0.59965 0.0
C642 C 0.85871 0.10779 0.62945 0.0
C643 C 0.88511 0.08325 0.63092 0.0
C644 C 0.89987 0.07274 0.6012 0.0
C645 C 0.88867 0.08735 0.57049 0.0
C646 C 0.86182 0.11216 0.56953 0.0
H647 H 0.84188 0.92471 0.72077 0.0
H648 H 0.92381 0.86342 0.76385 0.0
H649 H 0.96505 0.89246 0.72066 0.0
H650 H 0.85888 0.90358 0.64848 0.0
H651 H 0.84878 0.94517 0.62486 0.0
H652 H 0.82878 0.9345 0.66534 0.0
H653 H 0.8518 0.99506 0.68616 0.0
H654 H 0.86907 0.00708 0.64454 0.0
H655 H 0.8967 0.00809 0.67879 0.0
H656 H 0.99217 0.91193 0.66391 0.0
H657 H 0.00398 0.92737 0.60363 0.0
H658 H 0.90193 0.97079 0.59756 0.0
C659 C 0.86891 0.91946 0.72269 0.0
C660 C 0.87963 0.89163 0.74529 0.0
C661 C 0.91513 0.88471 0.74651 0.0
C662 C 0.9387 0.90095 0.72192 0.0
C663 C 0.92627 0.92441 0.69692 0.0
C664 C 0.89224 0.9345 0.69777 0.0
C665 C 0.88302 0.95322 0.66516 0.0
C666 C 0.85315 0.93286 0.65013 0.0
C667 C 0.87471 0.99328 0.66891 0.0
C668 C 0.91634 0.95009 0.64522 0.0
C669 C 0.94136 0.93421 0.66385 0.0
C670 C 0.97303 0.92533 0.64933 0.0
C671 C 0.97935 0.93364 0.61506 0.0
C672 C 0.95371 0.94976 0.59581 0.0
C673 C 0.92204 0.9581 0.61137 0.0
H674 H 0.28747 0.17723 0.16292 0.0
H675 H 0.33813 0.28472 0.15067 0.0
H676 H 0.37448 0.26529 0.10402 0.0
H677 H 0.36119 0.12794 0.14978 0.0
H678 H 0.34097 0.09322 0.12776 0.0
H679 H 0.31595 0.11673 0.15737 0.0
H680 H 0.27372 0.13607 0.11254 0.0
H681 H 0.29854 0.11241 0.08276 0.0
H682 H 0.29006 0.1601 0.07414 0.0
H683 H 0.40896 0.23268 0.0627 0.0
H684 H 0.43917 0.18944 0.02911 0.0
H685 H 0.36637 0.10267 0.06795 0.0
C686 C 0.30564 0.19699 0.14995 0.0
C687 C 0.30977 0.23263 0.16033 0.0
C688 C 0.33436 0.25737 0.14308 0.0
C689 C 0.35509 0.24659 0.11651 0.0
C690 C 0.35086 0.21102 0.10741 0.0
C691 C 0.32664 0.18662 0.12347 0.0
C692 C 0.32901 0.14921 0.11037 0.0
C693 C 0.33728 0.12007 0.13796 0.0
C694 C 0.29586 0.13885 0.09397 0.0
C695 C 0.35891 0.15615 0.08496 0.0
C696 C 0.37091 0.19208 0.08349 0.0
C697 C 0.39954 0.20461 0.06333 0.0
C698 C 0.41661 0.17974 0.04443 0.0
C699 C 0.40511 0.14263 0.04576 0.0
C700 C 0.37551 0.13093 0.06599 0.0
H701 H 0.81708 0.36132 0.1983 0.0
H702 H 0.8564 0.25719 0.17389 0.0
H703 H 0.90281 0.28944 0.13761 0.0
H704 H 0.82947 0.4037 0.11617 0.0
H705 H 0.84014 0.44825 0.12906 0.0
H706 H 0.81268 0.41681 0.15557 0.0
H707 H 0.85391 0.42275 0.20297 0.0
H708 H 0.88177 0.45384 0.17636 0.0
H709 H 0.8987 0.41306 0.1962 0.0
H710 H 0.94496 0.33382 0.10309 0.0
H711 H 0.97236 0.38511 0.06663 0.0
H712 H 0.90274 0.45983 0.11024 0.0
C713 C 0.83573 0.34536 0.18559 0.0
C714 C 0.83342 0.30672 0.18923 0.0
C715 C 0.85775 0.28679 0.17153 0.0
C716 C 0.88436 0.3049 0.15107 0.0
C717 C 0.88602 0.34306 0.14805 0.0
C718 C 0.86189 0.36302 0.16436 0.0
C719 C 0.86721 0.40359 0.15436 0.0
C720 C 0.8355 0.41898 0.1378 0.0
C721 C 0.87592 0.42454 0.18426 0.0
C722 C 0.89794 0.4034 0.12975 0.0
C723 C 0.90899 0.36832 0.12701 0.0
C724 C 0.9366 0.36138 0.10524 0.0
C725 C 0.9524 0.39078 0.08491 0.0
C726 C 0.94024 0.42658 0.08608 0.0
C727 C 0.91305 0.43286 0.10928 0.0
H728 H 0.64978 0.77784 0.18002 0.0
H729 H 0.70765 0.87021 0.2116 0.0
H730 H 0.6667 0.91231 0.18605 0.0
H731 H 0.63524 0.81991 0.10106 0.0
H732 H 0.59286 0.79956 0.09878 0.0
H733 H 0.62376 0.77652 0.12356 0.0
H734 H 0.58055 0.77425 0.17453 0.0
H735 H 0.5497 0.79793 0.14992 0.0
H736 H 0.56304 0.81606 0.18732 0.0
H737 H 0.62272 0.94464 0.15454 0.0
H738 H 0.58416 0.96589 0.11142 0.0
H739 H 0.55524 0.85363 0.09727 0.0
C740 C 0.65344 0.80692 0.18188 0.0
C741 C 0.68172 0.82083 0.19796 0.0
C742 C 0.68621 0.85903 0.19933 0.0
C743 C 0.66285 0.88312 0.18523 0.0
C744 C 0.63524 0.86866 0.16955 0.0
C745 C 0.63068 0.83152 0.16725 0.0
C746 C 0.60129 0.82362 0.14549 0.0
C747 C 0.61406 0.80375 0.11545 0.0
C748 C 0.5719 0.80166 0.16552 0.0
C749 C 0.59071 0.86219 0.13523 0.0
C750 C 0.61011 0.88761 0.1502 0.0
C751 C 0.60706 0.92503 0.14298 0.0
C752 C 0.58496 0.93686 0.11856 0.0
C753 C 0.5664 0.91142 0.10138 0.0
C754 C 0.56827 0.87364 0.11077 0.0
H755 H 0.12161 0.72562 0.11732 0.0
H756 H 0.22261 0.70745 0.07376 0.0
H757 H 0.19774 0.66044 0.04067 0.0
H758 H 0.10117 0.63708 0.13324 0.0
H759 H 0.05595 0.63919 0.12639 0.0
H760 H 0.07878 0.67857 0.13879 0.0
H761 H 0.0611 0.71851 0.08725 0.0
H762 H 0.0363 0.67992 0.07568 0.0
H763 H 0.06827 0.70256 0.04669 0.0
H764 H 0.16151 0.60862 0.01856 0.0
H765 H 0.11653 0.56303 0.00559 0.0
H766 H 0.04332 0.61157 0.07151 0.0
C767 C 0.13798 0.71353 0.09903 0.0
C768 C 0.1736 0.72086 0.09694 0.0
C769 C 0.19496 0.70303 0.07448 0.0
C770 C 0.18111 0.67587 0.05612 0.0
C771 C 0.14608 0.66688 0.06102 0.0
C772 C 0.12478 0.68572 0.08162 0.0
C773 C 0.08939 0.66793 0.08681 0.0
C774 C 0.08087 0.65494 0.12347 0.0
C775 C 0.06216 0.69376 0.07327 0.0
C776 C 0.09399 0.63601 0.0662 0.0
C777 C 0.12658 0.6357 0.05112 0.0
C778 C 0.13592 0.60864 0.03031 0.0
C779 C 0.11059 0.58247 0.02356 0.0
C780 C 0.07695 0.58365 0.03816 0.0
C781 C 0.06916 0.60986 0.06054 0.0
H782 H 0.31265 0.91561 0.85106 0.0
H783 H 0.26219 0.83619 0.9237 0.0
H784 H 0.29136 0.86465 0.96816 0.0
H785 H 0.38893 0.91267 0.87816 0.0
H786 H 0.40198 0.96032 0.87158 0.0
H787 H 0.36942 0.94227 0.84738 0.0
H788 H 0.32722 0.99056 0.86621 0.0
H789 H 0.35998 0.00921 0.89035 0.0
H790 H 0.31853 0.99496 0.90974 0.0
H791 H 0.33814 0.88768 1.00023 0.0
H792 H 0.39459 0.9079 0.0184 0.0
H793 H 0.41297 0.97612 0.9267 0.0
C794 C 0.30642 0.90568 0.8766 0.0
C795 C 0.28507 0.87414 0.88425 0.0
C796 C 0.278 0.86082 0.91761 0.0
C797 C 0.29451 0.87683 0.94295 0.0
C798 C 0.31726 0.9066 0.93445 0.0
C799 C 0.32243 0.92169 0.90211 0.0
C800 C 0.35184 0.94991 0.89866 0.0
C801 C 0.37966 0.94068 0.87244 0.0
C802 C 0.33859 0.98845 0.89079 0.0
C803 C 0.36461 0.94567 0.93325 0.0
C804 C 0.34387 0.92117 0.95377 0.0
C805 C 0.35377 0.90801 0.98493 0.0
C806 C 0.38593 0.91938 0.99497 0.0
C807 C 0.40756 0.94391 0.97403 0.0
C808 C 0.3962 0.95828 0.94347 0.0
H809 H 0.15795 0.26552 0.84337 0.0
H810 H 0.26251 0.30766 0.84853 0.0
H811 H 0.24398 0.3445 0.89375 0.0
H812 H 0.1187 0.34702 0.8535 0.0
H813 H 0.08188 0.32845 0.87883 0.0
H814 H 0.10373 0.30056 0.85051 0.0
H815 H 0.11308 0.25162 0.89853 0.0
H816 H 0.09077 0.27917 0.92699 0.0
H817 H 0.13361 0.26474 0.93471 0.0
H818 H 0.21332 0.38368 0.9323 0.0
H819 H 0.17263 0.41865 0.96521 0.0
H820 H 0.08805 0.35076 0.93645 0.0
C821 C 0.17705 0.28135 0.85501 0.0
C822 C 0.21169 0.28342 0.8427 0.0
C823 C 0.23584 0.30548 0.85775 0.0
C824 C 0.22559 0.32657 0.88346 0.0
C825 C 0.19106 0.32525 0.89416 0.0
C826 C 0.16717 0.30281 0.88084 0.0
C827 C 0.13125 0.30883 0.89519 0.0
C828 C 0.10751 0.322 0.86788 0.0
C829 C 0.1163 0.27402 0.91504 0.0
C830 C 0.13869 0.33876 0.91774 0.0
C831 C 0.17336 0.34774 0.91688 0.0
C832 C 0.18614 0.37641 0.93375 0.0
C833 C 0.16285 0.39627 0.95222 0.0
C834 C 0.12722 0.38727 0.95377 0.0
C835 C 0.1152 0.35795 0.93635 0.0
H836 H 0.71763 0.15409 0.84241 0.0
H837 H 0.64519 0.19946 0.77406 0.0
H838 H 0.59809 0.16232 0.8045 0.0
H839 H 0.68026 0.06277 0.8507 0.0
H840 H 0.68816 0.05501 0.894 0.0
H841 H 0.71598 0.08603 0.86736 0.0
H842 H 0.70427 0.13746 0.9062 0.0
H843 H 0.67645 0.10652 0.93293 0.0
H844 H 0.66056 0.14926 0.91609 0.0
H845 H 0.55754 0.12058 0.84452 0.0
H846 H 0.52956 0.07576 0.88775 0.0
H847 H 0.62925 0.05614 0.9272 0.0
C848 C 0.69188 0.15626 0.83385 0.0
C849 C 0.68533 0.17988 0.80575 0.0
C850 C 0.65111 0.18159 0.7954 0.0
C851 C 0.62403 0.16063 0.81263 0.0
C852 C 0.63133 0.13762 0.84019 0.0
C853 C 0.66452 0.13516 0.85057 0.0
C854 C 0.66572 0.10772 0.88042 0.0
C855 C 0.6889 0.07601 0.87264 0.0
C856 C 0.67744 0.12636 0.91069 0.0
C857 C 0.62822 0.09509 0.88509 0.0
C858 C 0.60853 0.11284 0.862 0.0
C859 C 0.57288 0.10625 0.86249 0.0
C860 C 0.55713 0.08074 0.88711 0.0
C861 C 0.57711 0.0617 0.91053 0.0
C862 C 0.6131 0.06936 0.90925 0.0
H863 H 0.79008 0.63399 0.82099 0.0
H864 H 0.85997 0.72181 0.7788 0.0
H865 H 0.90808 0.69189 0.80538 0.0
H866 H 0.82393 0.6266 0.89789 0.0
H867 H 0.81889 0.57762 0.90501 0.0
H868 H 0.791 0.60232 0.87805 0.0
H869 H 0.8086 0.56199 0.83086 0.0
H870 H 0.83677 0.53724 0.85775 0.0
H871 H 0.85343 0.55873 0.8184 0.0
H872 H 0.94692 0.6579 0.84198 0.0
H873 H 0.97304 0.62322 0.88829 0.0
H874 H 0.87893 0.55681 0.9071 0.0
C875 C 0.81569 0.64631 0.8167 0.0
C876 C 0.82129 0.68013 0.79777 0.0
C877 C 0.85502 0.69593 0.79329 0.0
C878 C 0.88264 0.679 0.80806 0.0
C879 C 0.87626 0.64613 0.82721 0.0
C880 C 0.84366 0.62984 0.83159 0.0
C881 C 0.84323 0.59671 0.85644 0.0
C882 C 0.81777 0.6011 0.8861 0.0
C883 C 0.83502 0.56159 0.83986 0.0
C884 C 0.8802 0.59802 0.86633 0.0
C885 C 0.89898 0.6263 0.84866 0.0
C886 C 0.93274 0.63518 0.85557 0.0
C887 C 0.94737 0.61537 0.88194 0.0
C888 C 0.92816 0.58713 0.90117 0.0
C889 C 0.89457 0.57767 0.89243 0.0
H890 H 0.21199 0.3652 0.18359 0.0
H891 H 0.14332 0.27529 0.22352 0.0
H892 H 0.09497 0.30485 0.19681 0.0
H893 H 0.14786 0.43898 0.18682 0.0
H894 H 0.1646 0.46149 0.14791 0.0
H895 H 0.19284 0.43655 0.17459 0.0
H896 H 0.21137 0.39749 0.12673 0.0
H897 H 0.1835 0.42247 0.09997 0.0
H898 H 0.17893 0.37338 0.10613 0.0
H899 H 0.05573 0.3397 0.16092 0.0
H900 H 0.02964 0.375 0.11502 0.0
H901 H 0.12332 0.44241 0.09768 0.0
C902 C 0.1866 0.35225 0.18731 0.0
C903 C 0.18137 0.31809 0.20575 0.0
C904 C 0.14794 0.30149 0.20947 0.0
C905 C 0.12021 0.31822 0.19464 0.0
C906 C 0.12624 0.3516 0.17616 0.0
C907 C 0.1586 0.36845 0.17234 0.0
C908 C 0.15888 0.40205 0.14808 0.0
C909 C 0.1665 0.43683 0.1654 0.0
C910 C 0.18468 0.39861 0.11848 0.0
C911 C 0.12205 0.40052 0.13788 0.0
C912 C 0.10346 0.37168 0.15494 0.0
C913 C 0.06981 0.36276 0.14777 0.0
C914 C 0.05519 0.38297 0.12162 0.0
C915 C 0.07435 0.41157 0.10279 0.0
C916 C 0.10773 0.42119 0.11195 0.0
H917 H 0.19459 0.63608 0.80747 0.0
H918 H 0.14808 0.73869 0.82566 0.0
H919 H 0.1008 0.70523 0.85978 0.0
H920 H 0.11569 0.57927 0.80656 0.0
H921 H 0.13336 0.5405 0.82901 0.0
H922 H 0.16123 0.57203 0.80285 0.0
H923 H 0.19858 0.58266 0.85232 0.0
H924 H 0.17108 0.55087 0.87843 0.0
H925 H 0.17842 0.59665 0.89004 0.0
H926 H 0.05872 0.66002 0.89318 0.0
H927 H 0.0315 0.60884 0.9299 0.0
H928 H 0.10805 0.53637 0.89387 0.0
C929 C 0.17413 0.65138 0.81825 0.0
C930 C 0.17469 0.68997 0.81352 0.0
C931 C 0.14803 0.70913 0.82883 0.0
C932 C 0.12095 0.69031 0.84807 0.0
C933 C 0.1211 0.65224 0.85236 0.0
C934 C 0.14739 0.63304 0.83837 0.0
C935 C 0.14356 0.59265 0.84973 0.0
C936 C 0.13814 0.56977 0.82028 0.0
C937 C 0.17475 0.57998 0.86877 0.0
C938 C 0.11123 0.59213 0.87245 0.0
C939 C 0.09813 0.62661 0.87303 0.0
C940 C 0.06872 0.6329 0.89276 0.0
C941 C 0.05312 0.60355 0.9133 0.0
C942 C 0.06727 0.56847 0.91447 0.0
C943 C 0.09632 0.56276 0.89319 0.0
H944 H 0.35225 0.23031 0.81638 0.0
H945 H 0.30359 0.13552 0.77891 0.0
H946 H 0.34569 0.09591 0.80577 0.0
H947 H 0.44215 0.1984 0.81252 0.0
H948 H 0.45174 0.21647 0.85108 0.0
H949 H 0.42108 0.23846 0.82507 0.0
H950 H 0.37507 0.23214 0.87383 0.0
H951 H 0.40564 0.21055 0.89999 0.0
H952 H 0.36493 0.1877 0.89491 0.0
H953 H 0.38843 0.06575 0.84068 0.0
H954 H 0.42569 0.04631 0.88554 0.0
H955 H 0.44731 0.15956 0.90208 0.0
C956 C 0.35099 0.2013 0.8133 0.0
C957 C 0.3248 0.18601 0.7953 0.0
C958 C 0.32341 0.14784 0.79252 0.0
C959 C 0.34741 0.12514 0.80748 0.0
C960 C 0.37267 0.14091 0.82533 0.0
C961 C 0.37454 0.17807 0.82857 0.0
C962 C 0.40186 0.18733 0.8522 0.0
C963 C 0.43093 0.21161 0.83412 0.0
C964 C 0.38591 0.20548 0.882 0.0
C965 C 0.41431 0.14946 0.86243 0.0
C966 C 0.39751 0.12323 0.84604 0.0
C967 C 0.40224 0.08605 0.85319 0.0
C968 C 0.42359 0.07525 0.87862 0.0
C969 C 0.43999 0.10143 0.89673 0.0
C970 C 0.43615 0.13906 0.88778 0.0
H971 H 0.85625 0.26602 0.91172 0.0
H972 H 0.92672 0.28233 0.82526 0.0
H973 H 0.95506 0.334 0.84913 0.0
H974 H 0.84137 0.35128 0.9239 0.0
H975 H 0.84265 0.35015 0.96829 0.0
H976 H 0.83185 0.30915 0.94918 0.0
H977 H 0.88144 0.27454 0.9762 0.0
H978 H 0.89084 0.3145 0.99749 0.0
H979 H 0.92422 0.29505 0.97267 0.0
H980 H 0.96228 0.3934 0.87327 0.0
H981 H 0.9711 0.44206 0.91054 0.0
H982 H 0.90264 0.38333 0.9857 0.0
C983 C 0.87936 0.27863 0.89914 0.0
C984 C 0.88936 0.2706 0.8667 0.0
C985 C 0.91912 0.28806 0.85034 0.0
C986 C 0.93479 0.31798 0.86334 0.0
C987 C 0.92141 0.32838 0.89346 0.0
C988 C 0.89614 0.30781 0.9124 0.0
C989 C 0.88664 0.3254 0.94402 0.0
C990 C 0.84835 0.33451 0.94645 0.0
C991 C 0.89639 0.30093 0.9744 0.0
C992 C 0.90921 0.35987 0.93887 0.0
C993 C 0.92813 0.36147 0.90899 0.0
C994 C 0.9486 0.39194 0.89728 0.0
C995 C 0.95265 0.41992 0.91821 0.0
C996 C 0.9374 0.41632 0.95076 0.0
C997 C 0.9141 0.38686 0.96068 0.0
H998 H 0.7224 0.8289 0.84119 0.0
H999 H 0.67069 0.722 0.85516 0.0
H1000 H 0.63428 0.74293 0.90111 0.0
H1001 H 0.71887 0.84871 0.92963 0.0
H1002 H 0.71087 0.89628 0.91957 0.0
H1003 H 0.73602 0.87142 0.89094 0.0
H1004 H 0.69476 0.88969 0.84494 0.0
H1005 H 0.66938 0.91435 0.8734 0.0
H1006 H 0.64938 0.87897 0.852 0.0
H1007 H 0.59949 0.77711 0.94092 0.0
H1008 H 0.56881 0.82181 0.97243 0.0
H1009 H 0.64276 0.90704 0.93264 0.0
C1010 C 0.70406 0.80954 0.85448 0.0
C1011 C 0.6996 0.77365 0.84476 0.0
C1012 C 0.67475 0.74949 0.86231 0.0
C1013 C 0.65398 0.76114 0.88847 0.0
C1014 C 0.65846 0.79697 0.89683 0.0
C1015 C 0.68301 0.82078 0.8805 0.0
C1016 C 0.68068 0.85871 0.89249 0.0
C1017 C 0.71357 0.8694 0.90916 0.0
C1018 C 0.67309 0.88708 0.86401 0.0
C1019 C 0.65034 0.85277 0.9175 0.0
C1020 C 0.63817 0.81686 0.91982 0.0
C1021 C 0.60907 0.80517 0.93966 0.0
C1022 C 0.59172 0.83087 0.95735 0.0
C1023 C 0.60341 0.86797 0.95511 0.0
C1024 C 0.63348 0.87882 0.93527 0.0
H1025 H 0.83821 0.7305 0.15637 0.0
H1026 H 0.73995 0.67063 0.16815 0.0
H1027 H 0.75924 0.63069 0.12558 0.0
H1028 H 0.85178 0.72396 0.06606 0.0
H1029 H 0.89733 0.718 0.06858 0.0
H1030 H 0.87461 0.74431 0.09777 0.0
H1031 H 0.8968 0.70284 0.14624 0.0
H1032 H 0.91939 0.67633 0.11723 0.0
H1033 H 0.88879 0.65413 0.14784 0.0
H1034 H 0.79083 0.59353 0.08523 0.0
H1035 H 0.83224 0.5633 0.04899 0.0
H1036 H 0.90956 0.64743 0.06295 0.0
C1037 C 0.82053 0.70953 0.14943 0.0
C1038 C 0.78755 0.70388 0.16557 0.0
C1039 C 0.76537 0.67561 0.15618 0.0
C1040 C 0.77604 0.65273 0.13193 0.0
C1041 C 0.80896 0.65842 0.11705 0.0
C1042 C 0.83082 0.68627 0.12523 0.0
C1043 C 0.86555 0.68513 0.10676 0.0
C1044 C 0.87273 0.71992 0.0834 0.0
C1045 C 0.89432 0.67925 0.13097 0.0
C1046 C 0.85995 0.65197 0.08752 0.0
C1047 C 0.8271 0.63704 0.09364 0.0
C1048 C 0.81653 0.60524 0.07989 0.0
C1049 C 0.84024 0.58819 0.05939 0.0
C1050 C 0.87413 0.60298 0.05285 0.0
C1051 C 0.88378 0.63551 0.06702 0.0
H1052 H 0.29923 0.84977 0.15687 0.0
H1053 H 0.37424 0.8082 0.22424 0.0
H1054 H 0.41943 0.84821 0.19355 0.0
H1055 H 0.35505 0.85854 0.0826 0.0
H1056 H 0.33659 0.9003 0.06662 0.0
H1057 H 0.31082 0.86753 0.09347 0.0
H1058 H 0.29704 0.91787 0.13298 0.0
H1059 H 0.32301 0.95058 0.10625 0.0
H1060 H 0.33185 0.94291 0.14934 0.0
H1061 H 0.4576 0.89234 0.15296 0.0
H1062 H 0.48283 0.93852 0.10946 0.0
H1063 H 0.38163 0.95282 0.07179 0.0
C1064 C 0.32516 0.84898 0.16517 0.0
C1065 C 0.33308 0.82561 0.19297 0.0
C1066 C 0.36739 0.82581 0.20307 0.0
C1067 C 0.39333 0.84843 0.18571 0.0
C1068 C 0.38465 0.87114 0.15839 0.0
C1069 C 0.35125 0.87174 0.14841 0.0
C1070 C 0.34825 0.89923 0.11888 0.0
C1071 C 0.33702 0.88025 0.08861 0.0
C1072 C 0.32358 0.92943 0.12739 0.0
C1073 C 0.38507 0.91399 0.11375 0.0
C1074 C 0.40594 0.8973 0.13643 0.0
C1075 C 0.44129 0.90582 0.13535 0.0
C1076 C 0.45548 0.93207 0.11055 0.0
C1077 C 0.43426 0.94992 0.0875 0.0
C1078 C 0.39862 0.94049 0.08943 0.0
H1079 H 0.69331 0.08348 0.15234 0.0
H1080 H 0.74459 0.16954 0.08689 0.0
H1081 H 0.71548 0.14698 0.03961 0.0
H1082 H 0.68872 0.01239 0.08638 0.0
H1083 H 0.64708 0.99591 0.1037 0.0
H1084 H 0.67894 0.01165 0.13035 0.0
H1085 H 0.6362 0.05721 0.15309 0.0
H1086 H 0.60422 0.04178 0.12685 0.0
H1087 H 0.61673 0.08962 0.12462 0.0
H1088 H 0.66936 0.12757 0.00462 0.0
H1089 H 0.61378 0.10876 0.98351 0.0
H1090 H 0.59442 0.03206 0.06978 0.0
C1091 C 0.6996 0.0963 0.1277 0.0
C1092 C 0.72126 0.12794 0.123 0.0
C1093 C 0.72851 0.14483 0.09074 0.0
C1094 C 0.71204 0.1322 0.06379 0.0
C1095 C 0.68916 0.10213 0.06948 0.0
C1096 C 0.6837 0.08366 0.10053 0.0
C1097 C 0.65456 0.05534 0.10111 0.0
C1098 C 0.66815 0.01652 0.10565 0.0
C1099 C 0.62628 0.06141 0.12797 0.0
C1100 C 0.64228 0.06331 0.06662 0.0
C1101 C 0.66303 0.08981 0.04846 0.0
C1102 C 0.65366 0.10587 0.01805 0.0
C1103 C 0.62198 0.09529 0.00636 0.0
C1104 C 0.60029 0.06874 0.02496 0.0
C1105 C 0.61118 0.05162 0.05473 0.0
H1106 H 0.56959 0.63389 0.76551 0.0
H1107 H 0.64916 0.5564 0.74797 0.0
H1108 H 0.61648 0.51 0.78286 0.0
H1109 H 0.57325 0.62717 0.84009 0.0
H1110 H 0.52911 0.62928 0.85544 0.0
H1111 H 0.54169 0.64841 0.81457 0.0
H1112 H 0.49597 0.60789 0.78983 0.0
H1113 H 0.48241 0.58926 0.83114 0.0
H1114 H 0.49448 0.55916 0.7999 0.0
H1115 H 0.59773 0.48491 0.83621 0.0
H1116 H 0.58889 0.48048 0.89652 0.0
H1117 H 0.52426 0.57438 0.89046 0.0
C1118 C 0.57981 0.60689 0.7685 0.0
C1119 C 0.61329 0.60001 0.75556 0.0
C1120 C 0.6242 0.56352 0.75787 0.0
C1121 C 0.60552 0.53649 0.77803 0.0
C1122 C 0.57635 0.54635 0.79616 0.0
C1123 C 0.56264 0.58056 0.79085 0.0
C1124 C 0.53788 0.58828 0.81957 0.0
C1125 C 0.54606 0.62543 0.83321 0.0
C1126 C 0.50047 0.58598 0.8095 0.0
C1127 C 0.545 0.55651 0.84408 0.0
C1128 C 0.56544 0.53151 0.82923 0.0
C1129 C 0.58078 0.50355 0.84776 0.0
C1130 C 0.57625 0.50174 0.8821 0.0
C1131 C 0.55649 0.52767 0.89778 0.0
C1132 C 0.53937 0.55434 0.87864 0.0
H1133 H 0.34808 0.72128 0.82776 0.0
H1134 H 0.31446 0.63411 0.76983 0.0
H1135 H 0.35214 0.59158 0.7999 0.0
H1136 H 0.43851 0.69219 0.83239 0.0
H1137 H 0.44109 0.70545 0.87398 0.0
H1138 H 0.41392 0.72965 0.84572 0.0
H1139 H 0.36168 0.71652 0.88778 0.0
H1140 H 0.38866 0.69239 0.91606 0.0
H1141 H 0.35052 0.66999 0.90307 0.0
H1142 H 0.38702 0.55668 0.8419 0.0
H1143 H 0.41885 0.5336 0.89011 0.0
H1144 H 0.43345 0.64446 0.9172 0.0
C1145 C 0.34906 0.69338 0.82105 0.0
C1146 C 0.32829 0.68097 0.79652 0.0
C1147 C 0.33029 0.64426 0.78844 0.0
C1148 C 0.35163 0.6199 0.80538 0.0
C1149 C 0.37141 0.63285 0.82981 0.0
C1150 C 0.37073 0.66891 0.83724 0.0
C1151 C 0.39336 0.67565 0.86543 0.0
C1152 C 0.42351 0.70232 0.85366 0.0
C1153 C 0.37229 0.68943 0.89481 0.0
C1154 C 0.40575 0.63748 0.87363 0.0
C1155 C 0.39292 0.61312 0.85277 0.0
C1156 C 0.39793 0.57564 0.85784 0.0
C1157 C 0.41596 0.56275 0.88526 0.0
C1158 C 0.42914 0.58734 0.9069 0.0
C1159 C 0.42461 0.62518 0.90043 0.0
H1160 H 0.40035 0.38569 0.8026 0.0
H1161 H 0.29531 0.40215 0.83866 0.0
H1162 H 0.3167 0.42462 0.88921 0.0
H1163 H 0.42435 0.34503 0.87671 0.0
H1164 H 0.46784 0.36364 0.87337 0.0
H1165 H 0.44557 0.35703 0.83656 0.0
H1166 H 0.45615 0.42546 0.81619 0.0
H1167 H 0.47913 0.43211 0.85268 0.0
H1168 H 0.44329 0.46011 0.84287 0.0
H1169 H 0.34976 0.44136 0.93857 0.0
H1170 H 0.39171 0.44777 0.98209 0.0
H1171 H 0.47207 0.41009 0.91656 0.0
C1172 C 0.38169 0.3944 0.82078 0.0
C1173 C 0.34608 0.39229 0.81605 0.0
C1174 C 0.32283 0.4044 0.84076 0.0
C1175 C 0.33469 0.41694 0.86994 0.0
C1176 C 0.36981 0.41685 0.87438 0.0
C1177 C 0.39294 0.40585 0.85043 0.0
C1178 C 0.42881 0.40402 0.86262 0.0
C1179 C 0.44241 0.36512 0.8623 0.0
C1180 C 0.45328 0.4321 0.84239 0.0
C1181 C 0.42201 0.4145 0.89749 0.0
C1182 C 0.38811 0.42291 0.90367 0.0
C1183 C 0.37633 0.4345 0.93411 0.0
C1184 C 0.40005 0.43775 0.95871 0.0
C1185 C 0.43451 0.42803 0.95286 0.0
C1186 C 0.44545 0.41632 0.92196 0.0
H1187 H 0.66078 0.31497 0.79939 0.0
H1188 H 0.76454 0.35682 0.80906 0.0
H1189 H 0.74448 0.38986 0.85664 0.0
H1190 H 0.61464 0.39655 0.82777 0.0
H1191 H 0.58121 0.36779 0.84974 0.0
H1192 H 0.60267 0.35332 0.81284 0.0
H1193 H 0.61791 0.29316 0.84592 0.0
H1194 H 0.59748 0.30792 0.88311 0.0
H1195 H 0.64183 0.2953 0.88254 0.0
H1196 H 0.71485 0.4125 0.90642 0.0
H1197 H 0.67622 0.42743 0.95327 0.0
H1198 H 0.59223 0.36798 0.91318 0.0
C1199 C 0.6788 0.33252 0.81063 0.0
C1200 C 0.71395 0.33426 0.80029 0.0
C1201 C 0.73736 0.35592 0.81642 0.0
C1202 C 0.72625 0.37456 0.84351 0.0
C1203 C 0.69171 0.37094 0.85424 0.0
C1204 C 0.66818 0.35087 0.83812 0.0
C1205 C 0.63326 0.34873 0.85658 0.0
C1206 C 0.60636 0.36774 0.83547 0.0
C1207 C 0.62198 0.30891 0.86768 0.0
C1208 C 0.64113 0.36992 0.88588 0.0
C1209 C 0.67488 0.38278 0.88387 0.0
C1210 C 0.68826 0.40285 0.90817 0.0
C1211 C 0.66621 0.41095 0.93479 0.0
C1212 C 0.63132 0.39863 0.93705 0.0
C1213 C 0.61889 0.37735 0.91246 0.0
H1214 H 0.66313 0.27563 0.17716 0.0
H1215 H 0.69094 0.36251 0.23805 0.0
H1216 H 0.65252 0.40378 0.20798 0.0
H1217 H 0.66197 0.3286 0.10304 0.0
H1218 H 0.62535 0.3055 0.08779 0.0
H1219 H 0.65161 0.28145 0.11679 0.0
H1220 H 0.59782 0.26556 0.15638 0.0
H1221 H 0.57139 0.28971 0.12737 0.0
H1222 H 0.5714 0.30176 0.16951 0.0
H1223 H 0.61835 0.43824 0.1661 0.0
H1224 H 0.58939 0.46221 0.11645 0.0
H1225 H 0.58019 0.35252 0.08513 0.0
C1226 C 0.66062 0.30312 0.18458 0.0
C1227 C 0.68012 0.31578 0.20997 0.0
C1228 C 0.67624 0.35206 0.21877 0.0
C1229 C 0.65436 0.37575 0.2019 0.0
C1230 C 0.63596 0.36266 0.17663 0.0
C1231 C 0.63848 0.32705 0.16826 0.0
C1232 C 0.61756 0.32053 0.13878 0.0
C1233 C 0.6405 0.30832 0.10991 0.0
C1234 C 0.58777 0.29274 0.14861 0.0
C1235 C 0.60432 0.35846 0.13091 0.0
C1236 C 0.61495 0.38232 0.15323 0.0
C1237 C 0.6091 0.41966 0.14895 0.0
C1238 C 0.5927 0.43307 0.12071 0.0
C1239 C 0.58204 0.40911 0.09739 0.0
C1240 C 0.5871 0.37126 0.10314 0.0
H1241 H 0.59792 0.62904 0.1987 0.0
H1242 H 0.70437 0.6005 0.1803 0.0
H1243 H 0.68953 0.57626 0.12825 0.0
H1244 H 0.55634 0.55556 0.15731 0.0
H1245 H 0.52515 0.58591 0.14024 0.0
H1246 H 0.54275 0.59384 0.17925 0.0
H1247 H 0.56165 0.65966 0.15582 0.0
H1248 H 0.54484 0.65162 0.11656 0.0
H1249 H 0.58921 0.66619 0.11854 0.0
H1250 H 0.66304 0.55738 0.0757 0.0
H1251 H 0.62733 0.54867 0.02766 0.0
H1252 H 0.54274 0.59996 0.07742 0.0
C1253 C 0.61821 0.61741 0.18411 0.0
C1254 C 0.65227 0.61656 0.1943 0.0
C1255 C 0.67774 0.60062 0.17408 0.0
C1256 C 0.6697 0.58705 0.14403 0.0
C1257 C 0.63624 0.59004 0.13413 0.0
C1258 C 0.61095 0.6049 0.15361 0.0
C1259 C 0.57797 0.60873 0.13601 0.0
C1260 C 0.54885 0.58456 0.15428 0.0
C1261 C 0.56785 0.64894 0.13146 0.0
C1262 C 0.5889 0.59449 0.10336 0.0
C1263 C 0.62226 0.58287 0.10286 0.0
C1264 C 0.63704 0.5669 0.07562 0.0
C1265 C 0.61687 0.56237 0.04841 0.0
C1266 C 0.58302 0.57511 0.04845 0.0
C1267 C 0.56914 0.59148 0.07619 0.0
H1268 H 0.27723 0.67036 0.16517 0.0
H1269 H 0.35353 0.66376 0.23936 0.0
H1270 H 0.39106 0.63036 0.20229 0.0
H1271 H 0.29425 0.57951 0.13217 0.0
H1272 H 0.2875 0.59723 0.09038 0.0
H1273 H 0.26435 0.61536 0.12469 0.0
H1274 H 0.28718 0.68037 0.1037 0.0
H1275 H 0.31096 0.6626 0.06971 0.0
H1276 H 0.33292 0.68949 0.0978 0.0
H1277 H 0.4239 0.60826 0.15473 0.0
H1278 H 0.44829 0.59148 0.10109 0.0
H1279 H 0.35034 0.60898 0.05752 0.0
C1280 C 0.3014 0.66093 0.17406 0.0
C1281 C 0.3125 0.66964 0.20521 0.0
C1282 C 0.34442 0.65719 0.21575 0.0
C1283 C 0.36593 0.63827 0.19482 0.0
C1284 C 0.35486 0.6316 0.16372 0.0
C1285 C 0.32307 0.64183 0.15356 0.0
C1286 C 0.31846 0.63357 0.11799 0.0
C1287 C 0.28942 0.60468 0.11622 0.0
C1288 C 0.31201 0.6686 0.09603 0.0
C1289 C 0.35325 0.61849 0.10929 0.0
C1290 C 0.37371 0.61759 0.13618 0.0
C1291 C 0.40792 0.60802 0.13376 0.0
C1292 C 0.42159 0.59887 0.10315 0.0
C1293 C 0.40105 0.5989 0.07544 0.0
C1294 C 0.36632 0.6084 0.07854 0.0
H1295 H 0.42077 0.35058 0.22365 0.0
H1296 H 0.37578 0.44731 0.25813 0.0
H1297 H 0.41937 0.48571 0.22454 0.0
H1298 H 0.51641 0.39816 0.19781 0.0
H1299 H 0.51802 0.37146 0.1625 0.0
H1300 H 0.4994 0.35176 0.20184 0.0
H1301 H 0.44402 0.33531 0.17338 0.0
H1302 H 0.46167 0.35566 0.13451 0.0
H1303 H 0.42139 0.37106 0.15141 0.0
H1304 H 0.44382 0.51122 0.17278 0.0
H1305 H 0.45238 0.52178 0.11234 0.0
H1306 H 0.48336 0.41047 0.10623 0.0
C1307 C 0.42229 0.37975 0.22586 0.0
C1308 C 0.39578 0.39634 0.24349 0.0
C1309 C 0.39658 0.43441 0.24522 0.0
C1310 C 0.42132 0.45632 0.22609 0.0
C1311 C 0.44468 0.43956 0.2053 0.0
C1312 C 0.44633 0.40181 0.20591 0.0
C1313 C 0.46679 0.39058 0.17564 0.0
C1314 C 0.50226 0.37722 0.18502 0.0
C1315 C 0.44723 0.36153 0.1577 0.0
C1316 C 0.47044 0.42693 0.15528 0.0
C1317 C 0.45944 0.4551 0.17363 0.0
C1318 C 0.45383 0.48976 0.15866 0.0
C1319 C 0.45818 0.49541 0.12429 0.0
C1320 C 0.46823 0.46668 0.10529 0.0
C1321 C 0.47607 0.43266 0.12084 0.0
H1322 H 0.77741 0.66584 0.66525 0.0
H1323 H 0.82133 0.77644 0.65321 0.0
H1324 H 0.8601 0.75942 0.60745 0.0
H1325 H 0.85445 0.62203 0.65377 0.0
H1326 H 0.83747 0.58586 0.63128 0.0
H1327 H 0.80982 0.60753 0.66016 0.0
H1328 H 0.76798 0.6235 0.6141 0.0
H1329 H 0.79539 0.60156 0.58507 0.0
H1330 H 0.78405 0.64837 0.576 0.0
H1331 H 0.89839 0.72929 0.56774 0.0
H1332 H 0.93255 0.68834 0.5349 0.0
H1333 H 0.86405 0.59693 0.57171 0.0
C1334 C 0.79452 0.68673 0.65237 0.0
C1335 C 0.79614 0.72257 0.66268 0.0
C1336 C 0.81948 0.74887 0.64569 0.0
C1337 C 0.84161 0.73948 0.61961 0.0
C1338 C 0.84006 0.7037 0.61067 0.0
C1339 C 0.81695 0.67776 0.62629 0.0
C1340 C 0.82233 0.64061 0.61337 0.0
C1341 C 0.83157 0.61236 0.64131 0.0
C1342 C 0.79054 0.62776 0.5961 0.0
C1343 C 0.85263 0.64959 0.5887 0.0
C1344 C 0.86225 0.6862 0.58744 0.0
C1345 C 0.8908 0.70068 0.56813 0.0
C1346 C 0.91016 0.67712 0.54969 0.0
C1347 C 0.90092 0.63944 0.55057 0.0
C1348 C 0.87147 0.62569 0.5701 0.0
H1349 H 0.31525 0.80853 0.64675 0.0
H1350 H 0.35898 0.82731 0.74009 0.0
H1351 H 0.40314 0.86946 0.71075 0.0
H1352 H 0.39707 0.81494 0.59673 0.0
H1353 H 0.38074 0.83971 0.56126 0.0
H1354 H 0.35286 0.8078 0.58714 0.0
H1355 H 0.30884 0.85658 0.59861 0.0
H1356 H 0.33416 0.88866 0.57075 0.0
H1357 H 0.3232 0.89957 0.61246 0.0
H1358 H 0.44219 0.91166 0.67095 0.0
H1359 H 0.46772 0.9548 0.62514 0.0
H1360 H 0.39563 0.91265 0.55891 0.0
C1361 C 0.33455 0.82098 0.66087 0.0
C1362 C 0.33382 0.81425 0.69574 0.0
C1363 C 0.35905 0.83186 0.71338 0.0
C1364 C 0.38439 0.85579 0.69691 0.0
C1365 C 0.38415 0.86234 0.66263 0.0
C1366 C 0.3597 0.84565 0.64482 0.0
C1367 C 0.36356 0.85956 0.60851 0.0
C1368 C 0.37413 0.82863 0.58715 0.0
C1369 C 0.33048 0.87715 0.59692 0.0
C1370 C 0.39278 0.88775 0.60901 0.0
C1371 C 0.40518 0.88811 0.6402 0.0
C1372 C 0.43256 0.91164 0.64645 0.0
C1373 C 0.44701 0.93598 0.62035 0.0
C1374 C 0.43342 0.93725 0.58871 0.0
C1375 C 0.40631 0.91243 0.58302 0.0
H1376 H 0.20306 0.36449 0.68373 0.0
H1377 H 0.13477 0.27373 0.72272 0.0
H1378 H 0.08709 0.30158 0.69389 0.0
H1379 H 0.13583 0.43517 0.68652 0.0
H1380 H 0.15211 0.45972 0.64848 0.0
H1381 H 0.1812 0.43591 0.67503 0.0
H1382 H 0.20346 0.39863 0.62754 0.0
H1383 H 0.17584 0.42308 0.60013 0.0
H1384 H 0.17314 0.37384 0.60501 0.0
H1385 H 0.04846 0.33464 0.65562 0.0
H1386 H 0.02282 0.36982 0.60927 0.0
H1387 H 0.11494 0.44013 0.59563 0.0
C1388 C 0.1779 0.35093 0.68674 0.0
C1389 C 0.17282 0.3169 0.70557 0.0
C1390 C 0.13951 0.29981 0.7085 0.0
C1391 C 0.11206 0.31551 0.69233 0.0
C1392 C 0.118 0.34862 0.67347 0.0
C1393 C 0.15001 0.36632 0.67072 0.0
C1394 C 0.14993 0.40032 0.6469 0.0
C1395 C 0.15509 0.43482 0.66533 0.0
C1396 C 0.17719 0.39884 0.6182 0.0
C1397 C 0.11368 0.3975 0.63516 0.0
C1398 C 0.09541 0.36799 0.65141 0.0
C1399 C 0.0623 0.35821 0.64306 0.0
C1400 C 0.0479 0.37837 0.61666 0.0
C1401 C 0.06674 0.40779 0.5987 0.0
C1402 C 0.0996 0.41807 0.60899 0.0
H1403 H 0.65667 0.23641 0.58523 0.0
H1404 H 0.59186 0.22377 0.67567 0.0
H1405 H 0.56187 0.17066 0.6556 0.0
H1406 H 0.58575 0.20397 0.52961 0.0
H1407 H 0.61789 0.18334 0.50424 0.0
H1408 H 0.62848 0.22441 0.52343 0.0
H1409 H 0.67941 0.19093 0.54924 0.0
H1410 H 0.66741 0.14887 0.53242 0.0
H1411 H 0.67099 0.14996 0.57641 0.0
H1412 H 0.55175 0.11036 0.63348 0.0
H1413 H 0.53949 0.0608 0.59797 0.0
H1414 H 0.60574 0.11561 0.51887 0.0
C1415 C 0.63434 0.22424 0.59951 0.0
C1416 C 0.62642 0.23385 0.6319 0.0
C1417 C 0.59776 0.2169 0.65057 0.0
C1418 C 0.58125 0.18615 0.63974 0.0
C1419 C 0.59276 0.17427 0.60955 0.0
C1420 C 0.61692 0.19409 0.5886 0.0
C1421 C 0.62472 0.17494 0.55751 0.0
C1422 C 0.61352 0.19802 0.52688 0.0
C1423 C 0.6629 0.16565 0.55371 0.0
C1424 C 0.60224 0.14067 0.56503 0.0
C1425 C 0.58494 0.1404 0.59566 0.0
C1426 C 0.56431 0.11069 0.60902 0.0
C1427 C 0.5583 0.08217 0.58906 0.0
C1428 C 0.57186 0.08454 0.55592 0.0
C1429 C 0.59563 0.113 0.54438 0.0
H1430 H 0.80632 0.3279 0.41276 0.0
H1431 H 0.77178 0.4247 0.35831 0.0
H1432 H 0.80187 0.46344 0.39548 0.0
H1433 H 0.81071 0.36991 0.49848 0.0
H1434 H 0.84869 0.34462 0.50651 0.0
H1435 H 0.81503 0.32511 0.48395 0.0
H1436 H 0.85964 0.31543 0.43607 0.0
H1437 H 0.89313 0.33536 0.45795 0.0
H1438 H 0.88492 0.35411 0.4168 0.0
H1439 H 0.84802 0.49015 0.42635 0.0
H1440 H 0.90357 0.50274 0.44981 0.0
H1441 H 0.90822 0.38853 0.48536 0.0
C1442 C 0.80358 0.35722 0.4101 0.0
C1443 C 0.78656 0.3736 0.38333 0.0
C1444 C 0.78419 0.41193 0.3793 0.0
C1445 C 0.8012 0.43401 0.4003 0.0
C1446 C 0.81981 0.41713 0.42537 0.0
C1447 C 0.82035 0.37944 0.43091 0.0
C1448 C 0.84681 0.36791 0.4553 0.0
C1449 C 0.82925 0.35089 0.488 0.0
C1450 C 0.87263 0.34172 0.44062 0.0
C1451 C 0.86354 0.40463 0.45987 0.0
C1452 C 0.84689 0.43281 0.44341 0.0
C1453 C 0.86053 0.46851 0.4403 0.0
C1454 C 0.89228 0.47539 0.45363 0.0
C1455 C 0.91026 0.44662 0.46951 0.0
C1456 C 0.89497 0.41115 0.47363 0.0
H1457 H 0.66175 0.77481 0.34353 0.0
H1458 H 0.76017 0.8344 0.33519 0.0
H1459 H 0.74021 0.87234 0.37916 0.0
H1460 H 0.61132 0.85114 0.35391 0.0
H1461 H 0.58003 0.82789 0.38322 0.0
H1462 H 0.60307 0.80263 0.35351 0.0
H1463 H 0.624 0.75882 0.40099 0.0
H1464 H 0.60087 0.78389 0.43088 0.0
H1465 H 0.64626 0.77736 0.43398 0.0
H1466 H 0.70838 0.90711 0.42091 0.0
H1467 H 0.6667 0.93602 0.45766 0.0
H1468 H 0.58878 0.85435 0.43898 0.0
C1469 C 0.67931 0.7953 0.35148 0.0
C1470 C 0.71258 0.80142 0.33602 0.0
C1471 C 0.73457 0.82908 0.34667 0.0
C1472 C 0.72352 0.85079 0.37172 0.0
C1473 C 0.69038 0.84459 0.38601 0.0
C1474 C 0.6686 0.81747 0.37641 0.0
C1475 C 0.63352 0.81808 0.39437 0.0
C1476 C 0.60534 0.82538 0.36978 0.0
C1477 C 0.62572 0.78242 0.41637 0.0
C1478 C 0.63887 0.85014 0.41504 0.0
C1479 C 0.67191 0.86487 0.41004 0.0
C1480 C 0.6825 0.8956 0.42532 0.0
C1481 C 0.65859 0.91188 0.44613 0.0
C1482 C 0.62441 0.89749 0.45143 0.0
C1483 C 0.61473 0.86594 0.43581 0.0
H1484 H 0.21343 0.65963 0.33903 0.0
H1485 H 0.13992 0.69943 0.26929 0.0
H1486 H 0.09353 0.66272 0.30163 0.0
H1487 H 0.17825 0.56789 0.35173 0.0
H1488 H 0.18674 0.56303 0.39504 0.0
H1489 H 0.21363 0.59325 0.36678 0.0
H1490 H 0.20111 0.64681 0.40302 0.0
H1491 H 0.17412 0.6167 0.43133 0.0
H1492 H 0.15718 0.65805 0.41265 0.0
H1493 H 0.05407 0.62179 0.34388 0.0
H1494 H 0.02773 0.57801 0.38891 0.0
H1495 H 0.12829 0.56415 0.42816 0.0
C1496 C 0.1876 0.66066 0.33049 0.0
C1497 C 0.18045 0.68254 0.30154 0.0
C1498 C 0.14619 0.68287 0.2913 0.0
C1499 C 0.11957 0.66216 0.3096 0.0
C1500 C 0.12749 0.64095 0.33808 0.0
C1501 C 0.16081 0.63992 0.34826 0.0
C1502 C 0.16295 0.61436 0.3792 0.0
C1503 C 0.1868 0.58276 0.37279 0.0
C1504 C 0.17452 0.63523 0.40826 0.0
C1505 C 0.12579 0.60098 0.38476 0.0
C1506 C 0.10543 0.61681 0.36118 0.0
C1507 C 0.06995 0.60901 0.36227 0.0
C1508 C 0.05513 0.58415 0.38791 0.0
C1509 C 0.07592 0.56699 0.41174 0.0
C1510 C 0.11162 0.57599 0.40996 0.0
H1511 H 0.30539 0.14924 0.31622 0.0
H1512 H 0.37595 0.23958 0.2816 0.0
H1513 H 0.42282 0.20845 0.30961 0.0
H1514 H 0.33445 0.13804 0.39503 0.0
H1515 H 0.3293 0.08894 0.39969 0.0
H1516 H 0.30299 0.11517 0.37227 0.0
H1517 H 0.32354 0.07758 0.32403 0.0
H1518 H 0.35022 0.0514 0.35139 0.0
H1519 H 0.36891 0.07494 0.31367 0.0
H1520 H 0.46017 0.1715 0.34616 0.0
H1521 H 0.48365 0.13437 0.39245 0.0
H1522 H 0.38887 0.06822 0.40418 0.0
C1523 C 0.33092 0.162 0.31391 0.0
C1524 C 0.33712 0.19666 0.29658 0.0
C1525 C 0.37064 0.21298 0.29474 0.0
C1526 C 0.39752 0.19537 0.31031 0.0
C1527 C 0.3905 0.16144 0.32762 0.0
C1528 C 0.35799 0.14494 0.32963 0.0
C1529 C 0.35629 0.11061 0.35305 0.0
C1530 C 0.32917 0.11339 0.3817 0.0
C1531 C 0.34933 0.07662 0.33441 0.0
C1532 C 0.39246 0.11127 0.36494 0.0
C1533 C 0.41203 0.1403 0.34936 0.0
C1534 C 0.4453 0.14834 0.3582 0.0
C1535 C 0.45844 0.12706 0.38456 0.0
C1536 C 0.43812 0.09837 0.40202 0.0
C1537 C 0.40525 0.08962 0.39112 0.0
H1538 H 0.70407 0.86005 0.68778 0.0
H1539 H 0.63389 0.77041 0.72527 0.0
H1540 H 0.58674 0.80027 0.69694 0.0
H1541 H 0.63977 0.93394 0.68975 0.0
H1542 H 0.65782 0.95696 0.65154 0.0
H1543 H 0.68508 0.93158 0.67891 0.0
H1544 H 0.70531 0.89333 0.63106 0.0
H1545 H 0.67832 0.91865 0.60362 0.0
H1546 H 0.67373 0.86954 0.60915 0.0
H1547 H 0.549 0.83518 0.65926 0.0
H1548 H 0.52429 0.87188 0.61322 0.0
H1549 H 0.61815 0.93941 0.60028 0.0
C1550 C 0.67858 0.84725 0.69066 0.0
C1551 C 0.67268 0.81298 0.7088 0.0
C1552 C 0.6391 0.79665 0.71143 0.0
C1553 C 0.61201 0.81351 0.69563 0.0
C1554 C 0.61874 0.84687 0.67733 0.0
C1555 C 0.65115 0.86367 0.67479 0.0
C1556 C 0.6522 0.8976 0.65085 0.0
C1557 C 0.65912 0.93206 0.66885 0.0
C1558 C 0.67896 0.89457 0.62197 0.0
C1559 C 0.6158 0.89631 0.63941 0.0
C1560 C 0.59673 0.86719 0.65542 0.0
C1561 C 0.56343 0.85849 0.64694 0.0
C1562 C 0.54959 0.87946 0.62073 0.0
C1563 C 0.56912 0.90867 0.60324 0.0
C1564 C 0.60222 0.91775 0.61353 0.0
H1565 H 0.6918 0.13822 0.30936 0.0
H1566 H 0.65698 0.24361 0.33541 0.0
H1567 H 0.61019 0.21287 0.37212 0.0
H1568 H 0.60818 0.09008 0.3123 0.0
H1569 H 0.62382 0.04826 0.33145 0.0
H1570 H 0.65236 0.07847 0.30468 0.0
H1571 H 0.69475 0.08181 0.35146 0.0
H1572 H 0.66657 0.05128 0.37814 0.0
H1573 H 0.67936 0.09513 0.39124 0.0
H1574 H 0.56747 0.1702 0.40698 0.0
H1575 H 0.53861 0.11978 0.44329 0.0
H1576 H 0.60365 0.04224 0.39769 0.0
C1577 C 0.67404 0.15478 0.32252 0.0
C1578 C 0.67774 0.19334 0.31925 0.0
C1579 C 0.65455 0.21406 0.3375 0.0
C1580 C 0.62774 0.19682 0.35822 0.0
C1581 C 0.62471 0.15874 0.3609 0.0
C1582 C 0.64766 0.13795 0.344 0.0
C1583 C 0.64088 0.0975 0.35369 0.0
C1584 C 0.6307 0.0774 0.32374 0.0
C1585 C 0.67224 0.08044 0.36958 0.0
C1586 C 0.61071 0.09875 0.3788 0.0
C1587 C 0.60123 0.13428 0.38207 0.0
C1588 C 0.5745 0.14227 0.40437 0.0
C1589 C 0.55783 0.11339 0.4246 0.0
C1590 C 0.56821 0.077 0.42273 0.0
C1591 C 0.59468 0.06972 0.39915 0.0
H1592 H 0.8491 0.73267 0.32297 0.0
H1593 H 0.79756 0.63721 0.28969 0.0
H1594 H 0.8407 0.59782 0.31541 0.0
H1595 H 0.93799 0.70128 0.31626 0.0
H1596 H 0.94957 0.7197 0.3541 0.0
H1597 H 0.91747 0.74132 0.3296 0.0
H1598 H 0.87372 0.735 0.38022 0.0
H1599 H 0.90584 0.71408 0.40495 0.0
H1600 H 0.86493 0.6907 0.40204 0.0
H1601 H 0.88682 0.56858 0.34645 0.0
H1602 H 0.92639 0.54963 0.38937 0.0
H1603 H 0.94717 0.66303 0.406 0.0
C1604 C 0.84722 0.70349 0.32087 0.0
C1605 C 0.8202 0.68788 0.30417 0.0
C1606 C 0.81802 0.64961 0.30245 0.0
C1607 C 0.84264 0.62712 0.31663 0.0
C1608 C 0.86908 0.64327 0.33278 0.0
C1609 C 0.87119 0.68048 0.33561 0.0
C1610 C 0.89972 0.69022 0.35775 0.0
C1611 C 0.92785 0.71457 0.33825 0.0
C1612 C 0.88517 0.70856 0.38804 0.0
C1613 C 0.91278 0.65254 0.36754 0.0
C1614 C 0.89528 0.62607 0.35201 0.0
C1615 C 0.90094 0.58903 0.3585 0.0
C1616 C 0.92363 0.57853 0.38278 0.0
C1617 C 0.94018 0.60488 0.40063 0.0
C1618 C 0.93574 0.64244 0.39198 0.0
H1619 H 0.34319 0.78724 0.42223 0.0
H1620 H 0.32719 0.86104 0.33622 0.0
H1621 H 0.34291 0.91377 0.36699 0.0
H1622 H 0.31758 0.85475 0.48664 0.0
H1623 H 0.35039 0.83857 0.5131 0.0
H1624 H 0.32887 0.80743 0.48832 0.0
H1625 H 0.38722 0.78968 0.4616 0.0
H1626 H 0.40898 0.81961 0.4869 0.0
H1627 H 0.41649 0.82518 0.44251 0.0
H1628 H 0.3706 0.9559 0.4016 0.0
H1629 H 0.41546 0.98257 0.43361 0.0
H1630 H 0.41529 0.88216 0.49754 0.0
C1631 C 0.34226 0.8147 0.41045 0.0
C1632 C 0.33433 0.8206 0.37718 0.0
C1633 C 0.33358 0.85645 0.36184 0.0
C1634 C 0.34187 0.88645 0.37926 0.0
C1635 C 0.35057 0.87997 0.41199 0.0
C1636 C 0.35089 0.84493 0.42746 0.0
C1637 C 0.3668 0.84486 0.46056 0.0
C1638 C 0.33927 0.83587 0.48882 0.0
C1639 C 0.39665 0.81831 0.46298 0.0
C1640 C 0.37913 0.88442 0.45934 0.0
C1641 C 0.36765 0.90468 0.43212 0.0
C1642 C 0.37912 0.94067 0.42343 0.0
C1643 C 0.40463 0.95562 0.44173 0.0
C1644 C 0.41884 0.93409 0.46767 0.0
C1645 C 0.40459 0.89899 0.47775 0.0
H1646 H 0.22956 0.33935 0.33705 0.0
H1647 H 0.1812 0.23078 0.35098 0.0
H1648 H 0.1432 0.25075 0.3962 0.0
H1649 H 0.22413 0.35921 0.42531 0.0
H1650 H 0.21477 0.40645 0.41531 0.0
H1651 H 0.24094 0.38251 0.38675 0.0
H1652 H 0.19954 0.3994 0.34053 0.0
H1653 H 0.17315 0.42313 0.36892 0.0
H1654 H 0.15441 0.38717 0.34732 0.0
H1655 H 0.10674 0.28374 0.43562 0.0
H1656 H 0.07473 0.32708 0.46758 0.0
H1657 H 0.14646 0.41479 0.42861 0.0
C1658 C 0.21157 0.31949 0.35014 0.0
C1659 C 0.20856 0.28336 0.34059 0.0
C1660 C 0.18415 0.2585 0.35793 0.0
C1661 C 0.16246 0.26959 0.38368 0.0
C1662 C 0.16554 0.30561 0.39191 0.0
C1663 C 0.18961 0.33016 0.37583 0.0
C1664 C 0.18597 0.36795 0.38795 0.0
C1665 C 0.21838 0.37971 0.40484 0.0
C1666 C 0.17777 0.39606 0.35949 0.0
C1667 C 0.15555 0.36101 0.41281 0.0
C1668 C 0.14438 0.32478 0.41482 0.0
C1669 C 0.11552 0.31206 0.43457 0.0
C1670 C 0.0974 0.337 0.45253 0.0
C1671 C 0.1081 0.37438 0.45074 0.0
C1672 C 0.13791 0.38633 0.4309 0.0
H1673 H 0.28031 0.16942 0.67205 0.0
H1674 H 0.31638 0.27971 0.63821 0.0
H1675 H 0.3454 0.25643 0.58891 0.0
H1676 H 0.35687 0.12811 0.6516 0.0
H1677 H 0.33731 0.08672 0.63912 0.0
H1678 H 0.31491 0.11245 0.66885 0.0
H1679 H 0.26279 0.11674 0.63195 0.0
H1680 H 0.28508 0.09101 0.60198 0.0
H1681 H 0.26904 0.13522 0.58946 0.0
H1682 H 0.37446 0.22136 0.54664 0.0
H1683 H 0.40576 0.17665 0.51584 0.0
H1684 H 0.35305 0.08787 0.57746 0.0
C1685 C 0.2936 0.18878 0.65381 0.0
C1686 C 0.29576 0.22649 0.65866 0.0
C1687 C 0.31426 0.2508 0.63483 0.0
C1688 C 0.33062 0.23783 0.60669 0.0
C1689 C 0.32841 0.20045 0.60288 0.0
C1690 C 0.31055 0.17618 0.62584 0.0
C1691 C 0.31537 0.13696 0.61771 0.0
C1692 C 0.33212 0.11477 0.64599 0.0
C1693 C 0.28102 0.11892 0.6098 0.0
C1694 C 0.33956 0.1429 0.58704 0.0
C1695 C 0.34612 0.17983 0.57868 0.0
C1696 C 0.36926 0.19243 0.55271 0.0
C1697 C 0.38698 0.16675 0.53543 0.0
C1698 C 0.38177 0.12876 0.54419 0.0
C1699 C 0.35702 0.11667 0.5698 0.0
H1700 H 0.79738 0.3509 0.65505 0.0
H1701 H 0.87202 0.30494 0.72075 0.0
H1702 H 0.91801 0.3436 0.69016 0.0
H1703 H 0.85316 0.3582 0.58024 0.0
H1704 H 0.83614 0.40084 0.56454 0.0
H1705 H 0.80934 0.36877 0.59115 0.0
H1706 H 0.79726 0.41888 0.63129 0.0
H1707 H 0.82404 0.45107 0.6048 0.0
H1708 H 0.83285 0.4425 0.64782 0.0
H1709 H 0.95703 0.38761 0.65061 0.0
H1710 H 0.98321 0.43449 0.60821 0.0
H1711 H 0.88235 0.45232 0.57078 0.0
C1712 C 0.82338 0.34888 0.663 0.0
C1713 C 0.83089 0.32468 0.69038 0.0
C1714 C 0.8654 0.32317 0.69991 0.0
C1715 C 0.89184 0.34503 0.68261 0.0
C1716 C 0.88359 0.36859 0.65576 0.0
C1717 C 0.8501 0.3707 0.64612 0.0
C1718 C 0.8478 0.39872 0.61688 0.0
C1719 C 0.83591 0.38054 0.58641 0.0
C1720 C 0.82409 0.42962 0.62574 0.0
C1721 C 0.88501 0.41226 0.61182 0.0
C1722 C 0.90552 0.39438 0.63411 0.0
C1723 C 0.94104 0.40197 0.63323 0.0
C1724 C 0.95578 0.42861 0.60907 0.0
C1725 C 0.93494 0.44769 0.58644 0.0
C1726 C 0.89913 0.43901 0.58809 0.0
H1727 H 0.2012 0.58698 0.64627 0.0
H1728 H 0.24343 0.67851 0.58142 0.0
H1729 H 0.21362 0.65528 0.53487 0.0
H1730 H 0.19763 0.51871 0.57644 0.0
H1731 H 0.1581 0.49816 0.59534 0.0
H1732 H 0.19087 0.5144 0.62087 0.0
H1733 H 0.14711 0.55482 0.64931 0.0
H1734 H 0.11408 0.53879 0.62457 0.0
H1735 H 0.12356 0.58717 0.6243 0.0
H1736 H 0.16664 0.63431 0.50209 0.0
H1737 H 0.11011 0.61398 0.48433 0.0
H1738 H 0.09973 0.53312 0.56834 0.0
C1739 C 0.20554 0.60083 0.62176 0.0
C1740 C 0.22468 0.6342 0.61711 0.0
C1741 C 0.22934 0.6525 0.58515 0.0
C1742 C 0.21247 0.63947 0.55861 0.0
C1743 C 0.19187 0.60763 0.56438 0.0
C1744 C 0.18923 0.5878 0.59497 0.0
C1745 C 0.16175 0.55759 0.59607 0.0
C1746 C 0.17807 0.51999 0.59726 0.0
C1747 C 0.13506 0.5598 0.62525 0.0
C1748 C 0.14647 0.56646 0.56302 0.0
C1749 C 0.16493 0.59461 0.5446 0.0
C1750 C 0.15271 0.61141 0.51567 0.0
C1751 C 0.12047 0.59995 0.50591 0.0
C1752 C 0.10094 0.57191 0.52498 0.0
C1753 C 0.11474 0.55398 0.553 0.0
loop_
_geom_bond_atom_site_label_1
_geom_bond_atom_site_label_2
_geom_bond_distance
_geom_bond_site_symmetry_2
_ccdc_geom_bond_type
C0 O16 1.251 . S
C0 O18 1.254 . S
N1 C2 1.333 . S
N1 C6 1.307 . S
N1 Zn7 2.020 . S
C2 N1 1.333 . S
C2 C3 1.379 . S
C2 H20 0.952 . S
C3 C2 1.379 . S
C3 C4 1.390 . S
C3 H30 0.949 . S
C4 C3 1.390 . S
C4 C5 1.357 . S
C5 C4 1.357 . S
C5 C6 1.370 . S
C5 H31 0.950 . S
C6 N1 1.307 . S
C6 C5 1.370 . S
C6 H24 0.948 . S
Zn7 N1 2.020 . S
Zn7 O16 2.039 . S
Zn7 O22 2.034 . S
Zn7 O26 2.025 . S
Zn7 O28 2.024 . S
C8 O27 1.246 . S
C8 O28 1.249 . S
N9 C10 1.307 . S
N9 C11 1.333 . S
N9 Zn15 2.020 . S
C10 N9 1.307 . S
C10 C14 1.370 . S
C10 H21 0.948 . S
C11 N9 1.333 . S
C11 C12 1.379 . S
C11 H19 0.952 . S
C12 C11 1.379 . S
C12 C13 1.390 . S
C12 H32 0.949 . S
C13 C12 1.390 . S
C13 C14 1.357 . S
C14 C10 1.370 . S
C14 C13 1.357 . S
C14 H33 0.950 . S
Zn15 N9 2.020 . S
Zn15 O18 2.025 . S
Zn15 O23 2.024 . S
Zn15 O25 2.039 . S
Zn15 O27 2.034 . S
O16 C0 1.251 . S
O16 Zn7 2.039 . S
C17 O22 1.246 . S
C17 O23 1.249 . S
O18 C0 1.254 . S
O18 Zn15 2.025 . S
H19 C11 0.952 . S
H20 C2 0.952 . S
H21 C10 0.948 . S
O22 Zn7 2.034 . S
O22 C17 1.246 . S
O23 Zn15 2.024 . S
O23 C17 1.249 . S
H24 C6 0.948 . S
O25 Zn15 2.039 . S
O25 C29 1.251 . S
O26 Zn7 2.025 . S
O26 C29 1.254 . S
O27 C8 1.246 . S
O27 Zn15 2.034 . S
O28 Zn7 2.024 . S
O28 C8 1.249 . S
C29 O25 1.251 . S
C29 O26 1.254 . S
H30 C3 0.949 . S
H31 C5 0.950 . S
H32 C12 0.949 . S
H33 C14 0.950 . S
C34 O50 1.251 . S
C34 O52 1.254 . S
N35 C36 1.333 . S
N35 C40 1.307 . S
N35 Zn41 2.020 . S
C36 N35 1.333 . S
C36 C37 1.379 . S
C36 H54 0.952 . S
C37 C36 1.379 . S
C37 C38 1.390 . S
C37 H64 0.949 . S
C38 C37 1.390 . S
C38 C39 1.357 . S
C39 C38 1.357 . S
C39 C40 1.370 . S
C39 H65 0.950 . S
C40 N35 1.307 . S
C40 C39 1.370 . S
C40 H58 0.948 . S
Zn41 N35 2.020 . S
Zn41 O50 2.039 . S
Zn41 O56 2.034 . S
Zn41 O60 2.025 . S
Zn41 O62 2.024 . S
C42 O61 1.246 . S
C42 O62 1.249 . S
N43 C44 1.307 . S
N43 C45 1.333 . S
N43 Zn49 2.020 . S
C44 N43 1.307 . S
C44 C48 1.370 . S
C44 H55 0.948 . S
C45 N43 1.333 . S
C45 C46 1.379 . S
C45 H53 0.952 . S
C46 C45 1.379 . S
C46 C47 1.390 . S
C46 H66 0.949 . S
C47 C46 1.390 . S
C47 C48 1.357 . S
C48 C44 1.370 . S
C48 C47 1.357 . S
C48 H67 0.950 . S
Zn49 N43 2.020 . S
Zn49 O52 2.025 . S
Zn49 O57 2.024 . S
Zn49 O59 2.039 . S
Zn49 O61 2.034 . S
O50 C34 1.251 . S
O50 Zn41 2.039 . S
C51 O56 1.246 . S
C51 O57 1.249 . S
O52 C34 1.254 . S
O52 Zn49 2.025 . S
H53 C45 0.952 . S
H54 C36 0.952 . S
H55 C44 0.948 . S
O56 Zn41 2.034 . S
O56 C51 1.246 . S
O57 Zn49 2.024 . S
O57 C51 1.249 . S
H58 C40 0.948 . S
O59 Zn49 2.039 . S
O59 C63 1.251 . S
O60 Zn41 2.025 . S
O60 C63 1.254 . S
O61 C42 1.246 . S
O61 Zn49 2.034 . S
O62 Zn41 2.024 . S
O62 C42 1.249 . S
C63 O59 1.251 . S
C63 O60 1.254 . S
H64 C37 0.949 . S
H65 C39 0.950 . S
H66 C46 0.949 . S
H67 C48 0.950 . S
C68 O84 1.251 . S
C68 O86 1.254 . S
N69 C70 1.333 . S
N69 C74 1.307 . S
N69 Zn75 2.020 . S
C70 N69 1.333 . S
C70 C71 1.379 . S
C70 H88 0.952 . S
C71 C70 1.379 . S
C71 C72 1.390 . S
C71 H98 0.949 . S
C72 C71 1.390 . S
C72 C73 1.357 . S
C73 C72 1.357 . S
C73 C74 1.370 . S
C73 H99 0.950 . S
C74 N69 1.307 . S
C74 C73 1.370 . S
C74 H92 0.948 . S
Zn75 N69 2.020 . S
Zn75 O84 2.039 . S
Zn75 O90 2.034 . S
Zn75 O94 2.025 . S
Zn75 O96 2.024 . S
C76 O95 1.246 . S
C76 O96 1.249 . S
N77 C78 1.307 . S
N77 C79 1.333 . S
N77 Zn83 2.020 . S
C78 N77 1.307 . S
C78 C82 1.370 . S
C78 H89 0.948 . S
C79 N77 1.333 . S
C79 C80 1.379 . S
C79 H87 0.952 . S
C80 C79 1.379 . S
C80 C81 1.390 . S
C80 H100 0.949 . S
C81 C80 1.390 . S
C81 C82 1.357 . S
C82 C78 1.370 . S
C82 C81 1.357 . S
C82 H101 0.950 . S
Zn83 N77 2.020 . S
Zn83 O86 2.025 . S
Zn83 O91 2.024 . S
Zn83 O93 2.039 . S
Zn83 O95 2.034 . S
O84 C68 1.251 . S
O84 Zn75 2.039 . S
C85 O90 1.246 . S
C85 O91 1.249 . S
O86 C68 1.254 . S
O86 Zn83 2.025 . S
H87 C79 0.952 . S
H88 C70 0.952 . S
H89 C78 0.948 . S
O90 Zn75 2.034 . S
O90 C85 1.246 . S
O91 Zn83 2.024 . S
O91 C85 1.249 . S
H92 C74 0.948 . S
O93 Zn83 2.039 . S
O93 C97 1.251 . S
O94 Zn75 2.025 . S
O94 C97 1.254 . S
O95 C76 1.246 . S
O95 Zn83 2.034 . S
O96 Zn75 2.024 . S
O96 C76 1.249 . S
C97 O93 1.251 . S
C97 O94 1.254 . S
H98 C71 0.949 . S
H99 C73 0.950 . S
H100 C80 0.949 . S
H101 C82 0.950 . S
C102 O118 1.251 . S
C102 O120 1.254 . S
N103 C104 1.333 . S
N103 C108 1.307 . S
N103 Zn109 2.020 . S
C104 N103 1.333 . S
C104 C105 1.379 . S
C104 H122 0.952 . S
C105 C104 1.379 . S
C105 C106 1.390 . S
C105 H132 0.949 . S
C106 C105 1.390 . S
C106 C107 1.357 . S
C107 C106 1.357 . S
C107 C108 1.370 . S
C107 H133 0.950 . S
C108 N103 1.307 . S
C108 C107 1.370 . S
C108 H126 0.948 . S
Zn109 N103 2.020 . S
Zn109 O118 2.039 . S
Zn109 O124 2.034 . S
Zn109 O128 2.025 . S
Zn109 O130 2.024 . S
C110 O129 1.246 . S
C110 O130 1.249 . S
N111 C112 1.307 . S
N111 C113 1.333 . S
N111 Zn117 2.020 . S
C112 N111 1.307 . S
C112 C116 1.370 . S
C112 H123 0.948 . S
C113 N111 1.333 . S
C113 C114 1.379 . S
C113 H121 0.952 . S
C114 C113 1.379 . S
C114 C115 1.390 . S
C114 H134 0.949 . S
C115 C114 1.390 . S
C115 C116 1.357 . S
C116 C112 1.370 . S
C116 C115 1.357 . S
C116 H135 0.950 . S
Zn117 N111 2.020 . S
Zn117 O120 2.025 . S
Zn117 O125 2.024 . S
Zn117 O127 2.039 . S
Zn117 O129 2.034 . S
O118 C102 1.251 . S
O118 Zn109 2.039 . S
C119 O124 1.246 . S
C119 O125 1.249 . S
O120 C102 1.254 . S
O120 Zn117 2.025 . S
H121 C113 0.952 . S
H122 C104 0.952 . S
H123 C112 0.948 . S
O124 Zn109 2.034 . S
O124 C119 1.246 . S
O125 Zn117 2.024 . S
O125 C119 1.249 . S
H126 C108 0.948 . S
O127 Zn117 2.039 . S
O127 C131 1.251 . S
O128 Zn109 2.025 . S
O128 C131 1.254 . S
O129 C110 1.246 . S
O129 Zn117 2.034 . S
O130 Zn109 2.024 . S
O130 C110 1.249 . S
C131 O127 1.251 . S
C131 O128 1.254 . S
H132 C105 0.949 . S
H133 C107 0.950 . S
H134 C114 0.949 . S
H135 C116 0.950 . S
C136 O152 1.251 . S
C136 O154 1.254 . S
N137 C138 1.333 . S
N137 C142 1.307 . S
N137 Zn143 2.020 . S
C138 N137 1.333 . S
C138 C139 1.379 . S
C138 H156 0.952 . S
C139 C138 1.379 . S
C139 C140 1.390 . S
C139 H166 0.949 . S
C140 C139 1.390 . S
C140 C141 1.357 . S
C141 C140 1.357 . S
C141 C142 1.370 . S
C141 H167 0.950 . S
C142 N137 1.307 . S
C142 C141 1.370 . S
C142 H160 0.948 . S
Zn143 N137 2.020 . S
Zn143 O152 2.039 . S
Zn143 O158 2.034 . S
Zn143 O162 2.025 . S
Zn143 O164 2.024 . S
C144 O163 1.246 . S
C144 O164 1.249 . S
N145 C146 1.307 . S
N145 C147 1.333 . S
N145 Zn151 2.020 . S
C146 N145 1.307 . S
C146 C150 1.370 . S
C146 H157 0.948 . S
C147 N145 1.333 . S
C147 C148 1.379 . S
C147 H155 0.952 . S
C148 C147 1.379 . S
C148 C149 1.390 . S
C148 H168 0.949 . S
C149 C148 1.390 . S
C149 C150 1.357 . S
C150 C146 1.370 . S
C150 C149 1.357 . S
C150 H169 0.950 . S
Zn151 N145 2.020 . S
Zn151 O154 2.025 . S
Zn151 O159 2.024 . S
Zn151 O161 2.039 . S
Zn151 O163 2.034 . S
O152 C136 1.251 . S
O152 Zn143 2.039 . S
C153 O158 1.246 . S
C153 O159 1.249 . S
O154 C136 1.254 . S
O154 Zn151 2.025 . S
H155 C147 0.952 . S
H156 C138 0.952 . S
H157 C146 0.948 . S
O158 Zn143 2.034 . S
O158 C153 1.246 . S
O159 Zn151 2.024 . S
O159 C153 1.249 . S
H160 C142 0.948 . S
O161 Zn151 2.039 . S
O161 C165 1.251 . S
O162 Zn143 2.025 . S
O162 C165 1.254 . S
O163 C144 1.246 . S
O163 Zn151 2.034 . S
O164 Zn143 2.024 . S
O164 C144 1.249 . S
C165 O161 1.251 . S
C165 O162 1.254 . S
H166 C139 0.949 . S
H167 C141 0.950 . S
H168 C148 0.949 . S
H169 C150 0.950 . S
C170 O186 1.251 . S
C170 O188 1.254 . S
N171 C172 1.333 . S
N171 C176 1.307 . S
N171 Zn177 2.020 . S
C172 N171 1.333 . S
C172 C173 1.379 . S
C172 H190 0.952 . S
C173 C172 1.379 . S
C173 C174 1.390 . S
C173 H200 0.949 . S
C174 C173 1.390 . S
C174 C175 1.357 . S
C175 C174 1.357 . S
C175 C176 1.370 . S
C175 H201 0.950 . S
C176 N171 1.307 . S
C176 C175 1.370 . S
C176 H194 0.948 . S
Zn177 N171 2.020 . S
Zn177 O186 2.039 . S
Zn177 O192 2.034 . S
Zn177 O196 2.025 . S
Zn177 O198 2.024 . S
C178 O197 1.246 . S
C178 O198 1.249 . S
N179 C180 1.307 . S
N179 C181 1.333 . S
N179 Zn185 2.020 . S
C180 N179 1.307 . S
C180 C184 1.370 . S
C180 H191 0.948 . S
C181 N179 1.333 . S
C181 C182 1.379 . S
C181 H189 0.952 . S
C182 C181 1.379 . S
C182 C183 1.390 . S
C182 H202 0.949 . S
C183 C182 1.390 . S
C183 C184 1.357 . S
C184 C180 1.370 . S
C184 C183 1.357 . S
C184 H203 0.950 . S
Zn185 N179 2.020 . S
Zn185 O188 2.025 . S
Zn185 O193 2.024 . S
Zn185 O195 2.039 . S
Zn185 O197 2.034 . S
O186 C170 1.251 . S
O186 Zn177 2.039 . S
C187 O192 1.246 . S
C187 O193 1.249 . S
O188 C170 1.254 . S
O188 Zn185 2.025 . S
H189 C181 0.952 . S
H190 C172 0.952 . S
H191 C180 0.948 . S
O192 Zn177 2.034 . S
O192 C187 1.246 . S
O193 Zn185 2.024 . S
O193 C187 1.249 . S
H194 C176 0.948 . S
O195 Zn185 2.039 . S
O195 C199 1.251 . S
O196 Zn177 2.025 . S
O196 C199 1.254 . S
O197 C178 1.246 . S
O197 Zn185 2.034 . S
O198 Zn177 2.024 . S
O198 C178 1.249 . S
C199 O195 1.251 . S
C199 O196 1.254 . S
H200 C173 0.949 . S
H201 C175 0.950 . S
H202 C182 0.949 . S
H203 C184 0.950 . S
C204 O220 1.251 . S
C204 O222 1.254 . S
N205 C206 1.333 . S
N205 C210 1.307 . S
N205 Zn211 2.020 . S
C206 N205 1.333 . S
C206 C207 1.379 . S
C206 H224 0.952 . S
C207 C206 1.379 . S
C207 C208 1.390 . S
C207 H234 0.949 . S
C208 C207 1.390 . S
C208 C209 1.357 . S
C209 C208 1.357 . S
C209 C210 1.370 . S
C209 H235 0.950 . S
C210 N205 1.307 . S
C210 C209 1.370 . S
C210 H228 0.948 . S
Zn211 N205 2.020 . S
Zn211 O220 2.039 . S
Zn211 O226 2.034 . S
Zn211 O230 2.025 . S
Zn211 O232 2.024 . S
C212 O231 1.246 . S
C212 O232 1.249 . S
N213 C214 1.307 . S
N213 C215 1.333 . S
N213 Zn219 2.020 . S
C214 N213 1.307 . S
C214 C218 1.370 . S
C214 H225 0.948 . S
C215 N213 1.333 . S
C215 C216 1.379 . S
C215 H223 0.952 . S
C216 C215 1.379 . S
C216 C217 1.390 . S
C216 H236 0.949 . S
C217 C216 1.390 . S
C217 C218 1.357 . S
C218 C214 1.370 . S
C218 C217 1.357 . S
C218 H237 0.950 . S
Zn219 N213 2.020 . S
Zn219 O222 2.025 . S
Zn219 O227 2.024 . S
Zn219 O229 2.039 . S
Zn219 O231 2.034 . S
O220 C204 1.251 . S
O220 Zn211 2.039 . S
C221 O226 1.246 . S
C221 O227 1.249 . S
O222 C204 1.254 . S
O222 Zn219 2.025 . S
H223 C215 0.952 . S
H224 C206 0.952 . S
H225 C214 0.948 . S
O226 Zn211 2.034 . S
O226 C221 1.246 . S
O227 Zn219 2.024 . S
O227 C221 1.249 . S
H228 C210 0.948 . S
O229 Zn219 2.039 . S
O229 C233 1.251 . S
O230 Zn211 2.025 . S
O230 C233 1.254 . S
O231 C212 1.246 . S
O231 Zn219 2.034 . S
O232 Zn211 2.024 . S
O232 C212 1.249 . S
C233 O229 1.251 . S
C233 O230 1.254 . S
H234 C207 0.949 . S
H235 C209 0.950 . S
H236 C216 0.949 . S
H237 C218 0.950 . S
C238 O254 1.251 . S
C238 O256 1.254 . S
N239 C240 1.333 . S
N239 C244 1.307 . S
N239 Zn245 2.020 . S
C240 N239 1.333 . S
C240 C241 1.379 . S
C240 H258 0.952 . S
C241 C240 1.379 . S
C241 C242 1.390 . S
C241 H268 0.949 . S
C242 C241 1.390 . S
C242 C243 1.357 . S
C243 C242 1.357 . S
C243 C244 1.370 . S
C243 H269 0.950 . S
C244 N239 1.307 . S
C244 C243 1.370 . S
C244 H262 0.948 . S
Zn245 N239 2.020 . S
Zn245 O254 2.039 . S
Zn245 O260 2.034 . S
Zn245 O264 2.025 . S
Zn245 O266 2.024 . S
C246 O265 1.246 . S
C246 O266 1.249 . S
N247 C248 1.307 . S
N247 C249 1.333 . S
N247 Zn253 2.020 . S
C248 N247 1.307 . S
C248 C252 1.370 . S
C248 H259 0.948 . S
C249 N247 1.333 . S
C249 C250 1.379 . S
C249 H257 0.952 . S
C250 C249 1.379 . S
C250 C251 1.390 . S
C250 H270 0.949 . S
C251 C250 1.390 . S
C251 C252 1.357 . S
C252 C248 1.370 . S
C252 C251 1.357 . S
C252 H271 0.950 . S
Zn253 N247 2.020 . S
Zn253 O256 2.025 . S
Zn253 O261 2.024 . S
Zn253 O263 2.039 . S
Zn253 O265 2.034 . S
O254 C238 1.251 . S
O254 Zn245 2.039 . S
C255 O260 1.246 . S
C255 O261 1.249 . S
O256 C238 1.254 . S
O256 Zn253 2.025 . S
H257 C249 0.952 . S
H258 C240 0.952 . S
H259 C248 0.948 . S
O260 Zn245 2.034 . S
O260 C255 1.246 . S
O261 Zn253 2.024 . S
O261 C255 1.249 . S
H262 C244 0.948 . S
O263 Zn253 2.039 . S
O263 C267 1.251 . S
O264 Zn245 2.025 . S
O264 C267 1.254 . S
O265 C246 1.246 . S
O265 Zn253 2.034 . S
O266 Zn245 2.024 . S
O266 C246 1.249 . S
C267 O263 1.251 . S
C267 O264 1.254 . S
H268 C241 0.949 . S
H269 C243 0.950 . S
H270 C250 0.949 . S
H271 C252 0.950 . S
C272 O284 1.241 . S
C272 O285 1.280 . S
C273 O286 1.277 . S
C273 O287 1.245 . S
C274 O298 1.247 . S
C274 O300 1.289 . S
Mg275 O276 1.926 . S
Mg275 O285 1.984 . S
Mg275 O287 1.988 . S
Mg275 O288 2.061 1_655 S
O276 Mg275 1.926 . S
O276 Mg277 1.986 . S
O276 Mg278 1.917 1_655 S
Mg277 O276 1.986 . S
Mg277 O284 2.042 . S
Mg277 O286 2.041 . S
Mg277 O292 2.038 1_545 S
Mg277 O300 2.238 1_545 S
Mg278 O276 1.917 1_455 S
Mg278 O279 1.917 1_545 S
Mg278 O289 2.106 . S
Mg278 O291 2.079 1_445 S
Mg278 O300 2.106 1_445 S
Mg278 O301 2.079 . S
O279 Mg278 1.917 1_565 S
O279 Mg280 1.926 . S
O279 Mg281 1.986 . S
Mg280 O279 1.926 . S
Mg280 O294 1.984 . S
Mg280 O297 1.988 . S
Mg280 O298 2.061 1_455 S
Mg281 O279 1.986 . S
Mg281 O289 2.238 1_565 S
Mg281 O293 2.042 . S
Mg281 O295 2.041 . S
Mg281 O302 2.038 1_565 S
C282 O288 1.247 . S
C282 O289 1.289 . S
C283 O301 1.245 . S
C283 O302 1.274 . S
O284 C272 1.241 . S
O284 Mg277 2.042 . S
O285 C272 1.280 . S
O285 Mg275 1.984 . S
O286 C273 1.277 . S
O286 Mg277 2.041 . S
O287 C273 1.245 . S
O287 Mg275 1.988 . S
O288 Mg275 2.061 1_455 S
O288 C282 1.247 . S
O289 Mg278 2.106 . S
O289 Mg281 2.238 1_545 S
O289 C282 1.289 . S
C290 O291 1.245 . S
C290 O292 1.274 . S
O291 Mg278 2.079 1_665 S
O291 C290 1.245 . S
O292 Mg277 2.038 1_565 S
O292 C290 1.274 . S
O293 Mg281 2.042 . S
O293 C296 1.241 . S
O294 Mg280 1.984 . S
O294 C296 1.280 . S
O295 Mg281 2.041 . S
O295 C299 1.277 . S
C296 O293 1.241 . S
C296 O294 1.280 . S
O297 Mg280 1.988 . S
O297 C299 1.245 . S
O298 C274 1.247 . S
O298 Mg280 2.061 1_655 S
C299 O295 1.277 . S
C299 O297 1.245 . S
O300 C274 1.289 . S
O300 Mg277 2.238 1_565 S
O300 Mg278 2.106 1_665 S
O301 Mg278 2.079 . S
O301 C283 1.245 . S
O302 Mg281 2.038 1_545 S
O302 C283 1.274 . S
C303 O315 1.241 . S
C303 O316 1.280 . S
C304 O317 1.277 . S
C304 O318 1.245 . S
C305 O329 1.247 . S
C305 O331 1.289 . S
Mg306 O307 1.926 . S
Mg306 O316 1.984 . S
Mg306 O318 1.988 1_554 S
Mg306 O319 2.061 . S
O307 Mg306 1.926 . S
O307 Mg308 1.986 . S
O307 Mg309 1.917 . S
Mg308 O307 1.986 . S
Mg308 O315 2.042 . S
Mg308 O317 2.041 1_554 S
Mg308 O323 2.038 1_545 S
Mg308 O331 2.238 1_544 S
Mg309 O307 1.917 . S
Mg309 O310 1.917 1_544 S
Mg309 O320 2.106 . S
Mg309 O322 2.079 1_545 S
Mg309 O331 2.106 1_544 S
Mg309 O332 2.079 1_554 S
O310 Mg309 1.917 1_566 S
O310 Mg311 1.926 . S
O310 Mg312 1.986 . S
Mg311 O310 1.926 . S
Mg311 O325 1.984 . S
Mg311 O328 1.988 1_556 S
Mg311 O329 2.061 . S
Mg312 O310 1.986 . S
Mg312 O320 2.238 1_566 S
Mg312 O324 2.042 . S
Mg312 O326 2.041 1_556 S
Mg312 O333 2.038 1_565 S
C313 O319 1.247 . S
C313 O320 1.289 . S
C314 O332 1.245 . S
C314 O333 1.274 . S
O315 C303 1.241 . S
O315 Mg308 2.042 . S
O316 C303 1.280 . S
O316 Mg306 1.984 . S
O317 C304 1.277 . S
O317 Mg308 2.041 1_556 S
O318 C304 1.245 . S
O318 Mg306 1.988 1_556 S
O319 Mg306 2.061 . S
O319 C313 1.247 . S
O320 Mg309 2.106 . S
O320 Mg312 2.238 1_544 S
O320 C313 1.289 . S
C321 O322 1.245 . S
C321 O323 1.274 . S
O322 Mg309 2.079 1_565 S
O322 C321 1.245 . S
O323 Mg308 2.038 1_565 S
O323 C321 1.274 . S
O324 Mg312 2.042 . S
O324 C327 1.241 . S
O325 Mg311 1.984 . S
O325 C327 1.280 . S
O326 Mg312 2.041 1_554 S
O326 C330 1.277 . S
C327 O324 1.241 . S
C327 O325 1.280 . S
O328 Mg311 1.988 1_554 S
O328 C330 1.245 . S
O329 C305 1.247 . S
O329 Mg311 2.061 . S
C330 O326 1.277 . S
C330 O328 1.245 . S
O331 C305 1.289 . S
O331 Mg308 2.238 1_566 S
O331 Mg309 2.106 1_566 S
O332 Mg309 2.079 1_556 S
O332 C314 1.245 . S
O333 Mg312 2.038 1_545 S
O333 C314 1.274 . S
C334 O346 1.241 . S
C334 O347 1.280 . S
C335 O348 1.277 . S
C335 O349 1.245 . S
C336 O360 1.247 . S
C336 O362 1.289 . S
Mg337 O338 1.926 . S
Mg337 O347 1.984 . S
Mg337 O349 1.988 1_554 S
Mg337 O350 2.061 1_655 S
O338 Mg337 1.926 . S
O338 Mg339 1.986 . S
O338 Mg340 1.917 1_655 S
Mg339 O338 1.986 . S
Mg339 O346 2.042 . S
Mg339 O348 2.041 1_554 S
Mg339 O354 2.038 . S
Mg339 O362 2.238 1_554 S
Mg340 O338 1.917 1_455 S
Mg340 O341 1.917 1_554 S
Mg340 O351 2.106 . S
Mg340 O353 2.079 1_455 S
Mg340 O362 2.106 1_454 S
Mg340 O363 2.079 1_554 S
O341 Mg340 1.917 1_556 S
O341 Mg342 1.926 . S
O341 Mg343 1.986 . S
Mg342 O341 1.926 . S
Mg342 O356 1.984 . S
Mg342 O359 1.988 1_556 S
Mg342 O360 2.061 1_455 S
Mg343 O341 1.986 . S
Mg343 O351 2.238 1_556 S
Mg343 O355 2.042 . S
Mg343 O357 2.041 1_556 S
Mg343 O364 2.038 . S
C344 O350 1.247 . S
C344 O351 1.289 . S
C345 O363 1.245 . S
C345 O364 1.274 . S
O346 C334 1.241 . S
O346 Mg339 2.042 . S
O347 C334 1.280 . S
O347 Mg337 1.984 . S
O348 C335 1.277 . S
O348 Mg339 2.041 1_556 S
O349 C335 1.245 . S
O349 Mg337 1.988 1_556 S
O350 Mg337 2.061 1_455 S
O350 C344 1.247 . S
O351 Mg340 2.106 . S
O351 Mg343 2.238 1_554 S
O351 C344 1.289 . S
C352 O353 1.245 . S
C352 O354 1.274 . S
O353 Mg340 2.079 1_655 S
O353 C352 1.245 . S
O354 Mg339 2.038 . S
O354 C352 1.274 . S
O355 Mg343 2.042 . S
O355 C358 1.241 . S
O356 Mg342 1.984 . S
O356 C358 1.280 . S
O357 Mg343 2.041 1_554 S
O357 C361 1.277 . S
C358 O355 1.241 . S
C358 O356 1.280 . S
O359 Mg342 1.988 1_554 S
O359 C361 1.245 . S
O360 C336 1.247 . S
O360 Mg342 2.061 1_655 S
C361 O357 1.277 . S
C361 O359 1.245 . S
O362 C336 1.289 . S
O362 Mg339 2.238 1_556 S
O362 Mg340 2.106 1_656 S
O363 Mg340 2.079 1_556 S
O363 C345 1.245 . S
O364 Mg343 2.038 . S
O364 C345 1.274 . S
C365 O377 1.241 . S
C365 O378 1.280 . S
C366 O379 1.277 . S
C366 O380 1.245 . S
C367 O391 1.247 . S
C367 O393 1.289 . S
Mg368 O369 1.926 . S
Mg368 O378 1.984 . S
Mg368 O380 1.988 1_554 S
Mg368 O381 2.061 . S
O369 Mg368 1.926 . S
O369 Mg370 1.986 . S
O369 Mg371 1.917 . S
Mg370 O369 1.986 . S
Mg370 O377 2.042 . S
Mg370 O379 2.041 1_554 S
Mg370 O385 2.038 . S
Mg370 O393 2.238 1_554 S
Mg371 O369 1.917 . S
Mg371 O372 1.917 1_554 S
Mg371 O382 2.106 . S
Mg371 O384 2.079 . S
Mg371 O393 2.106 1_554 S
Mg371 O394 2.079 1_554 S
O372 Mg371 1.917 1_556 S
O372 Mg373 1.926 . S
O372 Mg374 1.986 . S
Mg373 O372 1.926 . S
Mg373 O387 1.984 . S
Mg373 O390 1.988 1_556 S
Mg373 O391 2.061 . S
Mg374 O372 1.986 . S
Mg374 O382 2.238 1_556 S
Mg374 O386 2.042 . S
Mg374 O388 2.041 1_556 S
Mg374 O395 2.038 . S
C375 O381 1.247 . S
C375 O382 1.289 . S
C376 O394 1.245 . S
C376 O395 1.274 . S
O377 C365 1.241 . S
O377 Mg370 2.042 . S
O378 C365 1.280 . S
O378 Mg368 1.984 . S
O379 C366 1.277 . S
O379 Mg370 2.041 1_556 S
O380 C366 1.245 . S
O380 Mg368 1.988 1_556 S
O381 Mg368 2.061 . S
O381 C375 1.247 . S
O382 Mg371 2.106 . S
O382 Mg374 2.238 1_554 S
O382 C375 1.289 . S
C383 O384 1.245 . S
C383 O385 1.274 . S
O384 Mg371 2.079 . S
O384 C383 1.245 . S
O385 Mg370 2.038 . S
O385 C383 1.274 . S
O386 Mg374 2.042 . S
O386 C389 1.241 . S
O387 Mg373 1.984 . S
O387 C389 1.280 . S
O388 Mg374 2.041 1_554 S
O388 C392 1.277 . S
C389 O386 1.241 . S
C389 O387 1.280 . S
O390 Mg373 1.988 1_554 S
O390 C392 1.245 . S
O391 C367 1.247 . S
O391 Mg373 2.061 . S
C392 O388 1.277 . S
C392 O390 1.245 . S
O393 C367 1.289 . S
O393 Mg370 2.238 1_556 S
O393 Mg371 2.106 1_556 S
O394 Mg371 2.079 1_556 S
O394 C376 1.245 . S
O395 Mg374 2.038 . S
O395 C376 1.274 . S
C396 O408 1.241 . S
C396 O409 1.280 . S
C397 O410 1.277 . S
C397 O411 1.245 . S
C398 O422 1.247 . S
C398 O424 1.289 . S
Mg399 O400 1.926 . S
Mg399 O409 1.984 . S
Mg399 O411 1.988 . S
Mg399 O412 2.061 1_655 S
O400 Mg399 1.926 . S
O400 Mg401 1.986 . S
O400 Mg402 1.917 1_655 S
Mg401 O400 1.986 . S
Mg401 O408 2.042 . S
Mg401 O410 2.041 . S
Mg401 O416 2.038 . S
Mg401 O424 2.238 . S
Mg402 O400 1.917 1_455 S
Mg402 O403 1.917 . S
Mg402 O413 2.106 . S
Mg402 O415 2.079 1_455 S
Mg402 O424 2.106 1_455 S
Mg402 O425 2.079 . S
O403 Mg402 1.917 . S
O403 Mg404 1.926 . S
O403 Mg405 1.986 . S
Mg404 O403 1.926 . S
Mg404 O418 1.984 . S
Mg404 O421 1.988 . S
Mg404 O422 2.061 1_455 S
Mg405 O403 1.986 . S
Mg405 O413 2.238 . S
Mg405 O417 2.042 . S
Mg405 O419 2.041 . S
Mg405 O426 2.038 . S
C406 O412 1.247 . S
C406 O413 1.289 . S
C407 O425 1.245 . S
C407 O426 1.274 . S
O408 C396 1.241 . S
O408 Mg401 2.042 . S
O409 C396 1.280 . S
O409 Mg399 1.984 . S
O410 C397 1.277 . S
O410 Mg401 2.041 . S
O411 C397 1.245 . S
O411 Mg399 1.988 . S
O412 Mg399 2.061 1_455 S
O412 C406 1.247 . S
O413 Mg402 2.106 . S
O413 Mg405 2.238 . S
O413 C406 1.289 . S
C414 O415 1.245 . S
C414 O416 1.274 . S
O415 Mg402 2.079 1_655 S
O415 C414 1.245 . S
O416 Mg401 2.038 . S
O416 C414 1.274 . S
O417 Mg405 2.042 . S
O417 C420 1.241 . S
O418 Mg404 1.984 . S
O418 C420 1.280 . S
O419 Mg405 2.041 . S
O419 C423 1.277 . S
C420 O417 1.241 . S
C420 O418 1.280 . S
O421 Mg404 1.988 . S
O421 C423 1.245 . S
O422 C398 1.247 . S
O422 Mg404 2.061 1_655 S
C423 O419 1.277 . S
C423 O421 1.245 . S
O424 C398 1.289 . S
O424 Mg401 2.238 . S
O424 Mg402 2.106 1_655 S
O425 Mg402 2.079 . S
O425 C407 1.245 . S
O426 Mg405 2.038 . S
O426 C407 1.274 . S
C427 O439 1.241 . S
C427 O440 1.280 . S
C428 O441 1.277 . S
C428 O442 1.245 . S
C429 O453 1.247 . S
C429 O455 1.289 . S
Mg430 O431 1.926 . S
Mg430 O440 1.984 . S
Mg430 O442 1.988 . S
Mg430 O443 2.061 . S
O431 Mg430 1.926 . S
O431 Mg432 1.986 . S
O431 Mg433 1.917 . S
Mg432 O431 1.986 . S
Mg432 O439 2.042 . S
Mg432 O441 2.041 . S
Mg432 O447 2.038 1_545 S
Mg432 O455 2.238 1_545 S
Mg433 O431 1.917 . S
Mg433 O434 1.917 1_545 S
Mg433 O444 2.106 . S
Mg433 O446 2.079 1_545 S
Mg433 O455 2.106 1_545 S
Mg433 O456 2.079 . S
O434 Mg433 1.917 1_565 S
O434 Mg435 1.926 . S
O434 Mg436 1.986 . S
Mg435 O434 1.926 . S
Mg435 O449 1.984 . S
Mg435 O452 1.988 . S
Mg435 O453 2.061 . S
Mg436 O434 1.986 . S
Mg436 O444 2.238 1_565 S
Mg436 O448 2.042 . S
Mg436 O450 2.041 . S
Mg436 O457 2.038 1_565 S
C437 O443 1.247 . S
C437 O444 1.289 . S
C438 O456 1.245 . S
C438 O457 1.274 . S
O439 C427 1.241 . S
O439 Mg432 2.042 . S
O440 C427 1.280 . S
O440 Mg430 1.984 . S
O441 C428 1.277 . S
O441 Mg432 2.041 . S
O442 C428 1.245 . S
O442 Mg430 1.988 . S
O443 Mg430 2.061 . S
O443 C437 1.247 . S
O444 Mg433 2.106 . S
O444 Mg436 2.238 1_545 S
O444 C437 1.289 . S
C445 O446 1.245 . S
C445 O447 1.274 . S
O446 Mg433 2.079 1_565 S
O446 C445 1.245 . S
O447 Mg432 2.038 1_565 S
O447 C445 1.274 . S
O448 Mg436 2.042 . S
O448 C451 1.241 . S
O449 Mg435 1.984 . S
O449 C451 1.280 . S
O450 Mg436 2.041 . S
O450 C454 1.277 . S
C451 O448 1.241 . S
C451 O449 1.280 . S
O452 Mg435 1.988 . S
O452 C454 1.245 . S
O453 C429 1.247 . S
O453 Mg435 2.061 . S
C454 O450 1.277 . S
C454 O452 1.245 . S
O455 C429 1.289 . S
O455 Mg432 2.238 1_565 S
O455 Mg433 2.106 1_565 S
O456 Mg433 2.079 . S
O456 C438 1.245 . S
O457 Mg436 2.038 1_545 S
O457 C438 1.274 . S
H458 C470 0.930 . S
H459 C472 0.930 . S
H460 C473 0.930 . S
H461 C477 0.959 . S
H462 C477 0.940 1_565 S
H463 C477 0.961 . S
H464 C478 0.960 . S
H465 C478 0.961 . S
H466 C478 0.959 . S
H467 C481 0.929 . S
H468 C482 0.931 . S
H469 C484 0.930 . S
C470 H458 0.930 . S
C470 C471 1.399 . S
C470 C475 1.399 . S
C471 C470 1.399 . S
C471 C472 1.376 . S
C472 H459 0.930 . S
C472 C471 1.376 . S
C472 C473 1.388 . S
C473 H460 0.930 . S
C473 C472 1.388 . S
C473 C474 1.390 . S
C474 C473 1.390 . S
C474 C475 1.394 . S
C474 C480 1.465 . S
C475 C470 1.399 . S
C475 C474 1.394 . S
C475 C476 1.516 . S
C476 C475 1.516 . S
C476 C477 1.502 . S
C476 C478 1.561 . S
C476 C479 1.526 . S
C477 H461 0.959 . S
C477 H462 0.940 1_545 S
C477 H463 0.961 . S
C477 C476 1.502 . S
C478 H464 0.960 . S
C478 H465 0.961 . S
C478 H466 0.959 . S
C478 C476 1.561 . S
C479 C476 1.526 . S
C479 C480 1.396 . S
C479 C484 1.390 . S
C480 C474 1.465 . S
C480 C479 1.396 . S
C480 C481 1.399 . S
C481 H467 0.929 . S
C481 C480 1.399 . S
C481 C482 1.385 . S
C482 H468 0.931 . S
C482 C481 1.385 . S
C482 C483 1.389 . S
C483 C482 1.389 . S
C483 C484 1.387 . S
C484 H469 0.930 . S
C484 C479 1.390 . S
C484 C483 1.387 . S
H485 C497 0.930 . S
H486 C499 0.930 . S
H487 C500 0.930 . S
H488 C504 0.959 . S
H489 C504 0.959 . S
H490 C504 0.961 . S
H491 C505 0.960 . S
H492 C505 0.961 . S
H493 C505 0.959 . S
H494 C508 0.929 . S
H495 C509 0.931 . S
H496 C511 0.930 . S
C497 H485 0.930 . S
C497 C498 1.399 . S
C497 C502 1.399 . S
C498 C497 1.399 . S
C498 C499 1.376 . S
C499 H486 0.930 . S
C499 C498 1.376 . S
C499 C500 1.388 . S
C500 H487 0.930 . S
C500 C499 1.388 . S
C500 C501 1.390 . S
C501 C500 1.390 . S
C501 C502 1.394 . S
C501 C507 1.465 . S
C502 C497 1.399 . S
C502 C501 1.394 . S
C502 C503 1.516 . S
C503 C502 1.516 . S
C503 C504 1.502 . S
C503 C505 1.561 . S
C503 C506 1.526 . S
C504 H488 0.959 . S
C504 H489 0.959 . S
C504 H490 0.961 . S
C504 C503 1.502 . S
C505 H491 0.960 . S
C505 H492 0.961 . S
C505 H493 0.959 . S
C505 C503 1.561 . S
C506 C503 1.526 . S
C506 C507 1.396 . S
C506 C511 1.390 . S
C507 C501 1.465 . S
C507 C506 1.396 . S
C507 C508 1.399 . S
C508 H494 0.929 . S
C508 C507 1.399 . S
C508 C509 1.385 . S
C509 H495 0.931 . S
C509 C508 1.385 . S
C509 C510 1.389 . S
C510 C509 1.389 . S
C510 C511 1.387 . S
C511 H496 0.930 . S
C511 C506 1.390 . S
C511 C510 1.387 . S
H512 C524 0.930 . S
H513 C526 0.930 . S
H514 C527 0.930 . S
H515 C531 0.959 . S
H516 C531 0.959 . S
H517 C531 0.961 . S
H518 C532 0.960 . S
H519 C532 0.961 . S
H520 C532 0.959 . S
H521 C535 0.929 . S
H522 C536 0.931 . S
H523 C538 0.930 . S
C524 H512 0.930 . S
C524 C525 1.399 . S
C524 C529 1.399 . S
C525 C524 1.399 . S
C525 C526 1.376 . S
C526 H513 0.930 . S
C526 C525 1.376 . S
C526 C527 1.388 . S
C527 H514 0.930 . S
C527 C526 1.388 . S
C527 C528 1.390 . S
C528 C527 1.390 . S
C528 C529 1.394 . S
C528 C534 1.465 . S
C529 C524 1.399 . S
C529 C528 1.394 . S
C529 C530 1.516 . S
C530 C529 1.516 . S
C530 C531 1.502 . S
C530 C532 1.561 . S
C530 C533 1.526 . S
C531 H515 0.959 . S
C531 H516 0.959 . S
C531 H517 0.961 . S
C531 C530 1.502 . S
C532 H518 0.960 . S
C532 H519 0.961 . S
C532 H520 0.959 . S
C532 C530 1.561 . S
C533 C530 1.526 . S
C533 C534 1.396 . S
C533 C538 1.390 . S
C534 C528 1.465 . S
C534 C533 1.396 . S
C534 C535 1.399 . S
C535 H521 0.929 . S
C535 C534 1.399 . S
C535 C536 1.385 . S
C536 H522 0.931 . S
C536 C535 1.385 . S
C536 C537 1.389 . S
C537 C536 1.389 . S
C537 C538 1.387 . S
C538 H523 0.930 . S
C538 C533 1.390 . S
C538 C537 1.387 . S
H539 C551 0.930 . S
H540 C553 0.930 . S
H541 C554 0.930 . S
H542 C558 0.959 . S
H543 C558 0.959 . S
H544 C558 0.961 . S
H545 C559 0.960 . S
H546 C559 0.961 . S
H547 C559 0.959 . S
H548 C562 0.929 . S
H549 C563 0.931 . S
H550 C565 0.930 . S
C551 H539 0.930 . S
C551 C552 1.399 . S
C551 C556 1.399 . S
C552 C551 1.399 . S
C552 C553 1.376 . S
C553 H540 0.930 . S
C553 C552 1.376 . S
C553 C554 1.388 . S
C554 H541 0.930 . S
C554 C553 1.388 . S
C554 C555 1.390 . S
C555 C554 1.390 . S
C555 C556 1.394 . S
C555 C561 1.465 . S
C556 C551 1.399 . S
C556 C555 1.394 . S
C556 C557 1.516 . S
C557 C556 1.516 . S
C557 C558 1.502 . S
C557 C559 1.561 . S
C557 C560 1.526 . S
C558 H542 0.959 . S
C558 H543 0.959 . S
C558 H544 0.961 . S
C558 C557 1.502 . S
C559 H545 0.960 . S
C559 H546 0.961 . S
C559 H547 0.959 . S
C559 C557 1.561 . S
C560 C557 1.526 . S
C560 C561 1.396 . S
C560 C565 1.390 . S
C561 C555 1.465 . S
C561 C560 1.396 . S
C561 C562 1.399 . S
C562 H548 0.929 . S
C562 C561 1.399 . S
C562 C563 1.385 . S
C563 H549 0.931 . S
C563 C562 1.385 . S
C563 C564 1.389 . S
C564 C563 1.389 . S
C564 C565 1.387 . S
C565 H550 0.930 . S
C565 C560 1.390 . S
C565 C564 1.387 . S
H566 C578 0.930 . S
H567 C580 0.930 . S
H568 C581 0.930 . S
H569 C585 0.959 . S
H570 C585 0.959 . S
H571 C585 0.961 . S
H572 C586 0.960 . S
H573 C586 0.961 . S
H574 C586 0.959 . S
H575 C589 0.929 . S
H576 C590 0.931 . S
H577 C592 0.930 . S
C578 H566 0.930 . S
C578 C579 1.399 . S
C578 C583 1.399 . S
C579 C578 1.399 . S
C579 C580 1.376 . S
C580 H567 0.930 . S
C580 C579 1.376 . S
C580 C581 1.388 . S
C581 H568 0.930 . S
C581 C580 1.388 . S
C581 C582 1.390 . S
C582 C581 1.390 . S
C582 C583 1.394 . S
C582 C588 1.465 . S
C583 C578 1.399 . S
C583 C582 1.394 . S
C583 C584 1.516 . S
C584 C583 1.516 . S
C584 C585 1.502 . S
C584 C586 1.561 . S
C584 C587 1.526 . S
C585 H569 0.959 . S
C585 H570 0.959 . S
C585 H571 0.961 . S
C585 C584 1.502 . S
C586 H572 0.960 . S
C586 H573 0.961 . S
C586 H574 0.959 . S
C586 C584 1.561 . S
C587 C584 1.526 . S
C587 C588 1.396 . S
C587 C592 1.390 . S
C588 C582 1.465 . S
C588 C587 1.396 . S
C588 C589 1.399 . S
C589 H575 0.929 . S
C589 C588 1.399 . S
C589 C590 1.385 . S
C590 H576 0.931 . S
C590 C589 1.385 . S
C590 C591 1.389 . S
C591 C590 1.389 . S
C591 C592 1.387 . S
C592 H577 0.930 . S
C592 C587 1.390 . S
C592 C591 1.387 . S
H593 C605 0.930 . S
H594 C607 0.930 . S
H595 C608 0.930 . S
H596 C612 0.959 . S
H597 C612 0.959 . S
H598 C612 0.961 . S
H599 C613 0.960 . S
H600 C613 0.961 . S
H601 C613 0.959 . S
H602 C616 0.929 . S
H603 C617 0.931 1_565 S
H604 C619 0.930 . S
C605 H593 0.930 . S
C605 C606 1.399 . S
C605 C610 1.399 . S
C606 C605 1.399 . S
C606 C607 1.376 . S
C607 H594 0.930 . S
C607 C606 1.376 . S
C607 C608 1.388 . S
C608 H595 0.930 . S
C608 C607 1.388 . S
C608 C609 1.390 . S
C609 C608 1.390 . S
C609 C610 1.394 . S
C609 C615 1.465 . S
C610 C605 1.399 . S
C610 C609 1.394 . S
C610 C611 1.516 . S
C611 C610 1.516 . S
C611 C612 1.502 . S
C611 C613 1.561 . S
C611 C614 1.526 . S
C612 H596 0.959 . S
C612 H597 0.959 . S
C612 H598 0.961 . S
C612 C611 1.502 . S
C613 H599 0.960 . S
C613 H600 0.961 . S
C613 H601 0.959 . S
C613 C611 1.561 . S
C614 C611 1.526 . S
C614 C615 1.396 . S
C614 C619 1.390 . S
C615 C609 1.465 . S
C615 C614 1.396 . S
C615 C616 1.399 . S
C616 H602 0.929 . S
C616 C615 1.399 . S
C616 C617 1.385 . S
C617 H603 0.931 1_545 S
C617 C616 1.385 . S
C617 C618 1.389 . S
C618 C617 1.389 . S
C618 C619 1.387 . S
C619 H604 0.930 . S
C619 C614 1.390 . S
C619 C618 1.387 . S
H620 C632 0.930 . S
H621 C634 0.930 . S
H622 C635 0.930 . S
H623 C639 0.959 . S
H624 C639 0.959 . S
H625 C639 0.961 . S
H626 C640 0.960 . S
H627 C640 0.961 . S
H628 C640 0.959 . S
H629 C643 0.929 . S
H630 C644 0.931 . S
H631 C646 0.930 . S
C632 H620 0.930 . S
C632 C633 1.399 . S
C632 C637 1.399 . S
C633 C632 1.399 . S
C633 C634 1.376 . S
C634 H621 0.930 . S
C634 C633 1.376 . S
C634 C635 1.388 . S
C635 H622 0.930 . S
C635 C634 1.388 . S
C635 C636 1.390 . S
C636 C635 1.390 . S
C636 C637 1.394 . S
C636 C642 1.465 . S
C637 C632 1.399 . S
C637 C636 1.394 . S
C637 C638 1.516 . S
C638 C637 1.516 . S
C638 C639 1.502 . S
C638 C640 1.561 . S
C638 C641 1.526 . S
C639 H623 0.959 . S
C639 H624 0.959 . S
C639 H625 0.961 . S
C639 C638 1.502 . S
C640 H626 0.960 . S
C640 H627 0.961 . S
C640 H628 0.959 . S
C640 C638 1.561 . S
C641 C638 1.526 . S
C641 C642 1.396 . S
C641 C646 1.390 . S
C642 C636 1.465 . S
C642 C641 1.396 . S
C642 C643 1.399 . S
C643 H629 0.929 . S
C643 C642 1.399 . S
C643 C644 1.385 . S
C644 H630 0.931 . S
C644 C643 1.385 . S
C644 C645 1.389 . S
C645 C644 1.389 . S
C645 C646 1.387 . S
C646 H631 0.930 . S
C646 C641 1.390 . S
C646 C645 1.387 . S
H647 C659 0.930 . S
H648 C661 0.930 . S
H649 C662 0.930 . S
H650 C666 0.959 . S
H651 C666 0.959 . S
H652 C666 0.961 . S
H653 C667 0.960 . S
H654 C667 0.961 . S
H655 C667 0.959 . S
H656 C670 0.929 . S
H657 C671 0.931 1_545 S
H658 C673 0.930 . S
C659 H647 0.930 . S
C659 C660 1.399 . S
C659 C664 1.399 . S
C660 C659 1.399 . S
C660 C661 1.376 . S
C661 H648 0.930 . S
C661 C660 1.376 . S
C661 C662 1.388 . S
C662 H649 0.930 . S
C662 C661 1.388 . S
C662 C663 1.390 . S
C663 C662 1.390 . S
C663 C664 1.394 . S
C663 C669 1.465 . S
C664 C659 1.399 . S
C664 C663 1.394 . S
C664 C665 1.516 . S
C665 C664 1.516 . S
C665 C666 1.502 . S
C665 C667 1.561 . S
C665 C668 1.526 . S
C666 H650 0.959 . S
C666 H651 0.959 . S
C666 H652 0.961 . S
C666 C665 1.502 . S
C667 H653 0.960 . S
C667 H654 0.961 . S
C667 H655 0.959 . S
C667 C665 1.561 . S
C668 C665 1.526 . S
C668 C669 1.396 . S
C668 C673 1.390 . S
C669 C663 1.465 . S
C669 C668 1.396 . S
C669 C670 1.399 . S
C670 H656 0.929 . S
C670 C669 1.399 . S
C670 C671 1.385 . S
C671 H657 0.931 1_565 S
C671 C670 1.385 . S
C671 C672 1.389 . S
C672 C671 1.389 . S
C672 C673 1.387 . S
C673 H658 0.930 . S
C673 C668 1.390 . S
C673 C672 1.387 . S
H674 C686 0.930 . S
H675 C688 0.930 . S
H676 C689 0.930 . S
H677 C693 0.959 . S
H678 C693 0.959 . S
H679 C693 0.961 . S
H680 C694 0.960 . S
H681 C694 0.961 . S
H682 C694 0.959 . S
H683 C697 0.929 . S
H684 C698 0.931 . S
H685 C700 0.930 . S
C686 H674 0.930 . S
C686 C687 1.399 . S
C686 C691 1.399 . S
C687 C686 1.399 . S
C687 C688 1.376 . S
C688 H675 0.930 . S
C688 C687 1.376 . S
C688 C689 1.388 . S
C689 H676 0.930 . S
C689 C688 1.388 . S
C689 C690 1.390 . S
C690 C689 1.390 . S
C690 C691 1.394 . S
C690 C696 1.465 . S
C691 C686 1.399 . S
C691 C690 1.394 . S
C691 C692 1.516 . S
C692 C691 1.516 . S
C692 C693 1.502 . S
C692 C694 1.561 . S
C692 C695 1.526 . S
C693 H677 0.959 . S
C693 H678 0.959 . S
C693 H679 0.961 . S
C693 C692 1.502 . S
C694 H680 0.960 . S
C694 H681 0.961 . S
C694 H682 0.959 . S
C694 C692 1.561 . S
C695 C692 1.526 . S
C695 C696 1.396 . S
C695 C700 1.390 . S
C696 C690 1.465 . S
C696 C695 1.396 . S
C696 C697 1.399 . S
C697 H683 0.929 . S
C697 C696 1.399 . S
C697 C698 1.385 . S
C698 H684 0.931 . S
C698 C697 1.385 . S
C698 C699 1.389 . S
C699 C698 1.389 . S
C699 C700 1.387 . S
C700 H685 0.930 . S
C700 C695 1.390 . S
C700 C699 1.387 . S
H701 C713 0.930 . S
H702 C715 0.930 . S
H703 C716 0.930 . S
H704 C720 0.959 . S
H705 C720 0.959 . S
H706 C720 0.961 . S
H707 C721 0.960 . S
H708 C721 0.961 . S
H709 C721 0.959 . S
H710 C724 0.929 . S
H711 C725 0.931 . S
H712 C727 0.930 . S
C713 H701 0.930 . S
C713 C714 1.399 . S
C713 C718 1.399 . S
C714 C713 1.399 . S
C714 C715 1.376 . S
C715 H702 0.930 . S
C715 C714 1.376 . S
C715 C716 1.388 . S
C716 H703 0.930 . S
C716 C715 1.388 . S
C716 C717 1.390 . S
C717 C716 1.390 . S
C717 C718 1.394 . S
C717 C723 1.465 . S
C718 C713 1.399 . S
C718 C717 1.394 . S
C718 C719 1.516 . S
C719 C718 1.516 . S
C719 C720 1.502 . S
C719 C721 1.561 . S
C719 C722 1.526 . S
C720 H704 0.959 . S
C720 H705 0.959 . S
C720 H706 0.961 . S
C720 C719 1.502 . S
C721 H707 0.960 . S
C721 H708 0.961 . S
C721 H709 0.959 . S
C721 C719 1.561 . S
C722 C719 1.526 . S
C722 C723 1.396 . S
C722 C727 1.390 . S
C723 C717 1.465 . S
C723 C722 1.396 . S
C723 C724 1.399 . S
C724 H710 0.929 . S
C724 C723 1.399 . S
C724 C725 1.385 . S
C725 H711 0.931 . S
C725 C724 1.385 . S
C725 C726 1.389 . S
C726 C725 1.389 . S
C726 C727 1.387 . S
C727 H712 0.930 . S
C727 C722 1.390 . S
C727 C726 1.387 . S
H728 C740 0.930 . S
H729 C742 0.930 . S
H730 C743 0.930 . S
H731 C747 0.959 . S
H732 C747 0.959 . S
H733 C747 0.961 . S
H734 C748 0.960 . S
H735 C748 0.961 . S
H736 C748 0.959 . S
H737 C751 0.929 . S
H738 C752 0.931 . S
H739 C754 0.930 . S
C740 H728 0.930 . S
C740 C741 1.399 . S
C740 C745 1.399 . S
C741 C740 1.399 . S
C741 C742 1.376 . S
C742 H729 0.930 . S
C742 C741 1.376 . S
C742 C743 1.388 . S
C743 H730 0.930 . S
C743 C742 1.388 . S
C743 C744 1.390 . S
C744 C743 1.390 . S
C744 C745 1.394 . S
C744 C750 1.465 . S
C745 C740 1.399 . S
C745 C744 1.394 . S
C745 C746 1.516 . S
C746 C745 1.516 . S
C746 C747 1.502 . S
C746 C748 1.561 . S
C746 C749 1.526 . S
C747 H731 0.959 . S
C747 H732 0.959 . S
C747 H733 0.961 . S
C747 C746 1.502 . S
C748 H734 0.960 . S
C748 H735 0.961 . S
C748 H736 0.959 . S
C748 C746 1.561 . S
C749 C746 1.526 . S
C749 C750 1.396 . S
C749 C754 1.390 . S
C750 C744 1.465 . S
C750 C749 1.396 . S
C750 C751 1.399 . S
C751 H737 0.929 . S
C751 C750 1.399 . S
C751 C752 1.385 . S
C752 H738 0.931 . S
C752 C751 1.385 . S
C752 C753 1.389 . S
C753 C752 1.389 . S
C753 C754 1.387 . S
C754 H739 0.930 . S
C754 C749 1.390 . S
C754 C753 1.387 . S
H755 C767 0.930 . S
H756 C769 0.930 . S
H757 C770 0.930 . S
H758 C774 0.959 . S
H759 C774 0.959 . S
H760 C774 0.961 . S
H761 C775 0.960 . S
H762 C775 0.961 . S
H763 C775 0.959 . S
H764 C778 0.929 . S
H765 C779 0.931 . S
H766 C781 0.930 . S
C767 H755 0.930 . S
C767 C768 1.399 . S
C767 C772 1.399 . S
C768 C767 1.399 . S
C768 C769 1.376 . S
C769 H756 0.930 . S
C769 C768 1.376 . S
C769 C770 1.388 . S
C770 H757 0.930 . S
C770 C769 1.388 . S
C770 C771 1.390 . S
C771 C770 1.390 . S
C771 C772 1.394 . S
C771 C777 1.465 . S
C772 C767 1.399 . S
C772 C771 1.394 . S
C772 C773 1.516 . S
C773 C772 1.516 . S
C773 C774 1.502 . S
C773 C775 1.561 . S
C773 C776 1.526 . S
C774 H758 0.959 . S
C774 H759 0.959 . S
C774 H760 0.961 . S
C774 C773 1.502 . S
C775 H761 0.960 . S
C775 H762 0.961 . S
C775 H763 0.959 . S
C775 C773 1.561 . S
C776 C773 1.526 . S
C776 C777 1.396 . S
C776 C781 1.390 . S
C777 C771 1.465 . S
C777 C776 1.396 . S
C777 C778 1.399 . S
C778 H764 0.929 . S
C778 C777 1.399 . S
C778 C779 1.385 . S
C779 H765 0.931 . S
C779 C778 1.385 . S
C779 C780 1.389 . S
C780 C779 1.389 . S
C780 C781 1.387 . S
C781 H766 0.930 . S
C781 C776 1.390 . S
C781 C780 1.387 . S
H782 C794 0.930 . S
H783 C796 0.930 . S
H784 C797 0.930 . S
H785 C801 0.959 . S
H786 C801 0.959 1_545 S
H787 C801 0.961 . S
H788 C802 0.960 . S
H789 C802 0.961 . S
H790 C802 0.959 . S
H791 C805 0.929 . S
H792 C806 0.931 . S
H793 C808 0.930 . S
C794 H782 0.930 . S
C794 C795 1.399 . S
C794 C799 1.399 . S
C795 C794 1.399 . S
C795 C796 1.376 . S
C796 H783 0.930 . S
C796 C795 1.376 . S
C796 C797 1.388 . S
C797 H784 0.930 . S
C797 C796 1.388 . S
C797 C798 1.390 . S
C798 C797 1.390 . S
C798 C799 1.394 . S
C798 C804 1.465 . S
C799 C794 1.399 . S
C799 C798 1.394 . S
C799 C800 1.516 . S
C800 C799 1.516 . S
C800 C801 1.502 . S
C800 C802 1.561 . S
C800 C803 1.526 . S
C801 H785 0.959 . S
C801 H786 0.959 1_565 S
C801 H787 0.961 . S
C801 C800 1.502 . S
C802 H788 0.960 . S
C802 H789 0.961 . S
C802 H790 0.959 . S
C802 C800 1.561 . S
C803 C800 1.526 . S
C803 C804 1.396 . S
C803 C808 1.390 . S
C804 C798 1.465 . S
C804 C803 1.396 . S
C804 C805 1.399 . S
C805 H791 0.929 . S
C805 C804 1.399 . S
C805 C806 1.385 . S
C806 H792 0.931 . S
C806 C805 1.385 . S
C806 C807 1.389 . S
C807 C806 1.389 . S
C807 C808 1.387 . S
C808 H793 0.930 . S
C808 C803 1.390 . S
C808 C807 1.387 . S
H809 C821 0.930 . S
H810 C823 0.930 . S
H811 C824 0.930 . S
H812 C828 0.959 . S
H813 C828 0.959 . S
H814 C828 0.961 . S
H815 C829 0.960 . S
H816 C829 0.961 . S
H817 C829 0.959 . S
H818 C832 0.929 . S
H819 C833 0.931 . S
H820 C835 0.930 . S
C821 H809 0.930 . S
C821 C822 1.399 . S
C821 C826 1.399 . S
C822 C821 1.399 . S
C822 C823 1.376 . S
C823 H810 0.930 . S
C823 C822 1.376 . S
C823 C824 1.388 . S
C824 H811 0.930 . S
C824 C823 1.388 . S
C824 C825 1.390 . S
C825 C824 1.390 . S
C825 C826 1.394 . S
C825 C831 1.465 . S
C826 C821 1.399 . S
C826 C825 1.394 . S
C826 C827 1.516 . S
C827 C826 1.516 . S
C827 C828 1.502 . S
C827 C829 1.561 . S
C827 C830 1.526 . S
C828 H812 0.959 . S
C828 H813 0.959 . S
C828 H814 0.961 . S
C828 C827 1.502 . S
C829 H815 0.960 . S
C829 H816 0.961 . S
C829 H817 0.959 . S
C829 C827 1.561 . S
C830 C827 1.526 . S
C830 C831 1.396 . S
C830 C835 1.390 . S
C831 C825 1.465 . S
C831 C830 1.396 . S
C831 C832 1.399 . S
C832 H818 0.929 . S
C832 C831 1.399 . S
C832 C833 1.385 . S
C833 H819 0.931 . S
C833 C832 1.385 . S
C833 C834 1.389 . S
C834 C833 1.389 . S
C834 C835 1.387 . S
C835 H820 0.930 . S
C835 C830 1.390 . S
C835 C834 1.387 . S
H836 C848 0.930 . S
H837 C850 0.930 . S
H838 C851 0.930 . S
H839 C855 0.959 . S
H840 C855 0.959 . S
H841 C855 0.961 . S
H842 C856 0.960 . S
H843 C856 0.961 . S
H844 C856 0.959 . S
H845 C859 0.929 . S
H846 C860 0.931 . S
H847 C862 0.930 . S
C848 H836 0.930 . S
C848 C849 1.399 . S
C848 C853 1.399 . S
C849 C848 1.399 . S
C849 C850 1.376 . S
C850 H837 0.930 . S
C850 C849 1.376 . S
C850 C851 1.388 . S
C851 H838 0.930 . S
C851 C850 1.388 . S
C851 C852 1.390 . S
C852 C851 1.390 . S
C852 C853 1.394 . S
C852 C858 1.465 . S
C853 C848 1.399 . S
C853 C852 1.394 . S
C853 C854 1.516 . S
C854 C853 1.516 . S
C854 C855 1.502 . S
C854 C856 1.561 . S
C854 C857 1.526 . S
C855 H839 0.959 . S
C855 H840 0.959 . S
C855 H841 0.961 . S
C855 C854 1.502 . S
C856 H842 0.960 . S
C856 H843 0.961 . S
C856 H844 0.959 . S
C856 C854 1.561 . S
C857 C854 1.526 . S
C857 C858 1.396 . S
C857 C862 1.390 . S
C858 C852 1.465 . S
C858 C857 1.396 . S
C858 C859 1.399 . S
C859 H845 0.929 . S
C859 C858 1.399 . S
C859 C860 1.385 . S
C860 H846 0.931 . S
C860 C859 1.385 . S
C860 C861 1.389 . S
C861 C860 1.389 . S
C861 C862 1.387 . S
C862 H847 0.930 . S
C862 C857 1.390 . S
C862 C861 1.387 . S
H863 C875 0.930 . S
H864 C877 0.930 . S
H865 C878 0.930 . S
H866 C882 0.959 . S
H867 C882 0.959 . S
H868 C882 0.961 . S
H869 C883 0.960 . S
H870 C883 0.961 . S
H871 C883 0.959 . S
H872 C886 0.929 . S
H873 C887 0.931 . S
H874 C889 0.930 . S
C875 H863 0.930 . S
C875 C876 1.399 . S
C875 C880 1.399 . S
C876 C875 1.399 . S
C876 C877 1.376 . S
C877 H864 0.930 . S
C877 C876 1.376 . S
C877 C878 1.388 . S
C878 H865 0.930 . S
C878 C877 1.388 . S
C878 C879 1.390 . S
C879 C878 1.390 . S
C879 C880 1.394 . S
C879 C885 1.465 . S
C880 C875 1.399 . S
C880 C879 1.394 . S
C880 C881 1.516 . S
C881 C880 1.516 . S
C881 C882 1.502 . S
C881 C883 1.561 . S
C881 C884 1.526 . S
C882 H866 0.959 . S
C882 H867 0.959 . S
C882 H868 0.961 . S
C882 C881 1.502 . S
C883 H869 0.960 . S
C883 H870 0.961 . S
C883 H871 0.959 . S
C883 C881 1.561 . S
C884 C881 1.526 . S
C884 C885 1.396 . S
C884 C889 1.390 . S
C885 C879 1.465 . S
C885 C884 1.396 . S
C885 C886 1.399 . S
C886 H872 0.929 . S
C886 C885 1.399 . S
C886 C887 1.385 . S
C887 H873 0.931 . S
C887 C886 1.385 . S
C887 C888 1.389 . S
C888 C887 1.389 . S
C888 C889 1.387 . S
C889 H874 0.930 . S
C889 C884 1.390 . S
C889 C888 1.387 . S
H890 C902 0.930 . S
H891 C904 0.930 . S
H892 C905 0.930 . S
H893 C909 0.959 . S
H894 C909 0.959 . S
H895 C909 0.961 . S
H896 C910 0.960 . S
H897 C910 0.961 . S
H898 C910 0.959 . S
H899 C913 0.929 . S
H900 C914 0.931 . S
H901 C916 0.930 . S
C902 H890 0.930 . S
C902 C903 1.399 . S
C902 C907 1.399 . S
C903 C902 1.399 . S
C903 C904 1.376 . S
C904 H891 0.930 . S
C904 C903 1.376 . S
C904 C905 1.388 . S
C905 H892 0.930 . S
C905 C904 1.388 . S
C905 C906 1.390 . S
C906 C905 1.390 . S
C906 C907 1.394 . S
C906 C912 1.465 . S
C907 C902 1.399 . S
C907 C906 1.394 . S
C907 C908 1.516 . S
C908 C907 1.516 . S
C908 C909 1.502 . S
C908 C910 1.561 . S
C908 C911 1.526 . S
C909 H893 0.959 . S
C909 H894 0.959 . S
C909 H895 0.961 . S
C909 C908 1.502 . S
C910 H896 0.960 . S
C910 H897 0.961 . S
C910 H898 0.959 . S
C910 C908 1.561 . S
C911 C908 1.526 . S
C911 C912 1.396 . S
C911 C916 1.390 . S
C912 C906 1.465 . S
C912 C911 1.396 . S
C912 C913 1.399 . S
C913 H899 0.929 . S
C913 C912 1.399 . S
C913 C914 1.385 . S
C914 H900 0.931 . S
C914 C913 1.385 . S
C914 C915 1.389 . S
C915 C914 1.389 . S
C915 C916 1.387 . S
C916 H901 0.930 . S
C916 C911 1.390 . S
C916 C915 1.387 . S
H917 C929 0.930 . S
H918 C931 0.930 . S
H919 C932 0.930 . S
H920 C936 0.959 . S
H921 C936 0.959 . S
H922 C936 0.961 . S
H923 C937 0.960 . S
H924 C937 0.961 . S
H925 C937 0.959 . S
H926 C940 0.929 . S
H927 C941 0.931 . S
H928 C943 0.930 . S
C929 H917 0.930 . S
C929 C930 1.399 . S
C929 C934 1.399 . S
C930 C929 1.399 . S
C930 C931 1.376 . S
C931 H918 0.930 . S
C931 C930 1.376 . S
C931 C932 1.388 . S
C932 H919 0.930 . S
C932 C931 1.388 . S
C932 C933 1.390 . S
C933 C932 1.390 . S
C933 C934 1.394 . S
C933 C939 1.465 . S
C934 C929 1.399 . S
C934 C933 1.394 . S
C934 C935 1.516 . S
C935 C934 1.516 . S
C935 C936 1.502 . S
C935 C937 1.561 . S
C935 C938 1.526 . S
C936 H920 0.959 . S
C936 H921 0.959 . S
C936 H922 0.961 . S
C936 C935 1.502 . S
C937 H923 0.960 . S
C937 H924 0.961 . S
C937 H925 0.959 . S
C937 C935 1.561 . S
C938 C935 1.526 . S
C938 C939 1.396 . S
C938 C943 1.390 . S
C939 C933 1.465 . S
C939 C938 1.396 . S
C939 C940 1.399 . S
C940 H926 0.929 . S
C940 C939 1.399 . S
C940 C941 1.385 . S
C941 H927 0.931 . S
C941 C940 1.385 . S
C941 C942 1.389 . S
C942 C941 1.389 . S
C942 C943 1.387 . S
C943 H928 0.930 . S
C943 C938 1.390 . S
C943 C942 1.387 . S
H944 C956 0.930 . S
H945 C958 0.930 . S
H946 C959 0.930 . S
H947 C963 0.959 . S
H948 C963 0.959 . S
H949 C963 0.961 . S
H950 C964 0.960 . S
H951 C964 0.961 . S
H952 C964 0.959 . S
H953 C967 0.929 . S
H954 C968 0.931 . S
H955 C970 0.930 . S
C956 H944 0.930 . S
C956 C957 1.399 . S
C956 C961 1.399 . S
C957 C956 1.399 . S
C957 C958 1.376 . S
C958 H945 0.930 . S
C958 C957 1.376 . S
C958 C959 1.388 . S
C959 H946 0.930 . S
C959 C958 1.388 . S
C959 C960 1.390 . S
C960 C959 1.390 . S
C960 C961 1.394 . S
C960 C966 1.465 . S
C961 C956 1.399 . S
C961 C960 1.394 . S
C961 C962 1.516 . S
C962 C961 1.516 . S
C962 C963 1.502 . S
C962 C964 1.561 . S
C962 C965 1.526 . S
C963 H947 0.959 . S
C963 H948 0.959 . S
C963 H949 0.961 . S
C963 C962 1.502 . S
C964 H950 0.960 . S
C964 H951 0.961 . S
C964 H952 0.959 . S
C964 C962 1.561 . S
C965 C962 1.526 . S
C965 C966 1.396 . S
C965 C970 1.390 . S
C966 C960 1.465 . S
C966 C965 1.396 . S
C966 C967 1.399 . S
C967 H953 0.929 . S
C967 C966 1.399 . S
C967 C968 1.385 . S
C968 H954 0.931 . S
C968 C967 1.385 . S
C968 C969 1.389 . S
C969 C968 1.389 . S
C969 C970 1.387 . S
C970 H955 0.930 . S
C970 C965 1.390 . S
C970 C969 1.387 . S
H971 C983 0.930 . S
H972 C985 0.930 . S
H973 C986 0.930 . S
H974 C990 0.959 . S
H975 C990 0.959 . S
H976 C990 0.961 . S
H977 C991 0.960 . S
H978 C991 0.961 . S
H979 C991 0.959 . S
H980 C994 0.929 . S
H981 C995 0.931 . S
H982 C997 0.930 . S
C983 H971 0.930 . S
C983 C984 1.399 . S
C983 C988 1.399 . S
C984 C983 1.399 . S
C984 C985 1.376 . S
C985 H972 0.930 . S
C985 C984 1.376 . S
C985 C986 1.388 . S
C986 H973 0.930 . S
C986 C985 1.388 . S
C986 C987 1.390 . S
C987 C986 1.390 . S
C987 C988 1.394 . S
C987 C993 1.465 . S
C988 C983 1.399 . S
C988 C987 1.394 . S
C988 C989 1.516 . S
C989 C988 1.516 . S
C989 C990 1.502 . S
C989 C991 1.561 . S
C989 C992 1.526 . S
C990 H974 0.959 . S
C990 H975 0.959 . S
C990 H976 0.961 . S
C990 C989 1.502 . S
C991 H977 0.960 . S
C991 H978 0.961 . S
C991 H979 0.959 . S
C991 C989 1.561 . S
C992 C989 1.526 . S
C992 C993 1.396 . S
C992 C997 1.390 . S
C993 C987 1.465 . S
C993 C992 1.396 . S
C993 C994 1.399 . S
C994 H980 0.929 . S
C994 C993 1.399 . S
C994 C995 1.385 . S
C995 H981 0.931 . S
C995 C994 1.385 . S
C995 C996 1.389 . S
C996 C995 1.389 . S
C996 C997 1.387 . S
C997 H982 0.930 . S
C997 C992 1.390 . S
C997 C996 1.387 . S
H998 C1010 0.930 . S
H999 C1012 0.930 . S
H1000 C1013 0.930 . S
H1001 C1017 0.959 . S
H1002 C1017 0.959 . S
H1003 C1017 0.961 . S
H1004 C1018 0.960 . S
H1005 C1018 0.961 . S
H1006 C1018 0.959 . S
H1007 C1021 0.929 . S
H1008 C1022 0.931 . S
H1009 C1024 0.930 . S
C1010 H998 0.930 . S
C1010 C1011 1.399 . S
C1010 C1015 1.399 . S
C1011 C1010 1.399 . S
C1011 C1012 1.376 . S
C1012 H999 0.930 . S
C1012 C1011 1.376 . S
C1012 C1013 1.388 . S
C1013 H1000 0.930 . S
C1013 C1012 1.388 . S
C1013 C1014 1.390 . S
C1014 C1013 1.390 . S
C1014 C1015 1.394 . S
C1014 C1020 1.465 . S
C1015 C1010 1.399 . S
C1015 C1014 1.394 . S
C1015 C1016 1.516 . S
C1016 C1015 1.516 . S
C1016 C1017 1.502 . S
C1016 C1018 1.561 . S
C1016 C1019 1.526 . S
C1017 H1001 0.959 . S
C1017 H1002 0.959 . S
C1017 H1003 0.961 . S
C1017 C1016 1.502 . S
C1018 H1004 0.960 . S
C1018 H1005 0.961 . S
C1018 H1006 0.959 . S
C1018 C1016 1.561 . S
C1019 C1016 1.526 . S
C1019 C1020 1.396 . S
C1019 C1024 1.390 . S
C1020 C1014 1.465 . S
C1020 C1019 1.396 . S
C1020 C1021 1.399 . S
C1021 H1007 0.929 . S
C1021 C1020 1.399 . S
C1021 C1022 1.385 . S
C1022 H1008 0.931 . S
C1022 C1021 1.385 . S
C1022 C1023 1.389 . S
C1023 C1022 1.389 . S
C1023 C1024 1.387 . S
C1024 H1009 0.930 . S
C1024 C1019 1.390 . S
C1024 C1023 1.387 . S
H1025 C1037 0.930 . S
H1026 C1039 0.930 . S
H1027 C1040 0.930 . S
H1028 C1044 0.959 . S
H1029 C1044 0.959 . S
H1030 C1044 0.961 . S
H1031 C1045 0.960 . S
H1032 C1045 0.961 . S
H1033 C1045 0.959 . S
H1034 C1048 0.929 . S
H1035 C1049 0.931 . S
H1036 C1051 0.930 . S
C1037 H1025 0.930 . S
C1037 C1038 1.399 . S
C1037 C1042 1.399 . S
C1038 C1037 1.399 . S
C1038 C1039 1.376 . S
C1039 H1026 0.930 . S
C1039 C1038 1.376 . S
C1039 C1040 1.388 . S
C1040 H1027 0.930 . S
C1040 C1039 1.388 . S
C1040 C1041 1.390 . S
C1041 C1040 1.390 . S
C1041 C1042 1.394 . S
C1041 C1047 1.465 . S
C1042 C1037 1.399 . S
C1042 C1041 1.394 . S
C1042 C1043 1.516 . S
C1043 C1042 1.516 . S
C1043 C1044 1.502 . S
C1043 C1045 1.561 . S
C1043 C1046 1.526 . S
C1044 H1028 0.959 . S
C1044 H1029 0.959 . S
C1044 H1030 0.961 . S
C1044 C1043 1.502 . S
C1045 H1031 0.960 . S
C1045 H1032 0.961 . S
C1045 H1033 0.959 . S
C1045 C1043 1.561 . S
C1046 C1043 1.526 . S
C1046 C1047 1.396 . S
C1046 C1051 1.390 . S
C1047 C1041 1.465 . S
C1047 C1046 1.396 . S
C1047 C1048 1.399 . S
C1048 H1034 0.929 . S
C1048 C1047 1.399 . S
C1048 C1049 1.385 . S
C1049 H1035 0.931 . S
C1049 C1048 1.385 . S
C1049 C1050 1.389 . S
C1050 C1049 1.389 . S
C1050 C1051 1.387 . S
C1051 H1036 0.930 . S
C1051 C1046 1.390 . S
C1051 C1050 1.387 . S
H1052 C1064 0.930 . S
H1053 C1066 0.930 . S
H1054 C1067 0.930 . S
H1055 C1071 0.959 . S
H1056 C1071 0.959 . S
H1057 C1071 0.961 . S
H1058 C1072 0.960 . S
H1059 C1072 0.961 . S
H1060 C1072 0.959 . S
H1061 C1075 0.929 . S
H1062 C1076 0.931 . S
H1063 C1078 0.930 . S
C1064 H1052 0.930 . S
C1064 C1065 1.399 . S
C1064 C1069 1.399 . S
C1065 C1064 1.399 . S
C1065 C1066 1.376 . S
C1066 H1053 0.930 . S
C1066 C1065 1.376 . S
C1066 C1067 1.388 . S
C1067 H1054 0.930 . S
C1067 C1066 1.388 . S
C1067 C1068 1.390 . S
C1068 C1067 1.390 . S
C1068 C1069 1.394 . S
C1068 C1074 1.465 . S
C1069 C1064 1.399 . S
C1069 C1068 1.394 . S
C1069 C1070 1.516 . S
C1070 C1069 1.516 . S
C1070 C1071 1.502 . S
C1070 C1072 1.561 . S
C1070 C1073 1.526 . S
C1071 H1055 0.959 . S
C1071 H1056 0.959 . S
C1071 H1057 0.961 . S
C1071 C1070 1.502 . S
C1072 H1058 0.960 . S
C1072 H1059 0.961 . S
C1072 H1060 0.959 . S
C1072 C1070 1.561 . S
C1073 C1070 1.526 . S
C1073 C1074 1.396 . S
C1073 C1078 1.390 . S
C1074 C1068 1.465 . S
C1074 C1073 1.396 . S
C1074 C1075 1.399 . S
C1075 H1061 0.929 . S
C1075 C1074 1.399 . S
C1075 C1076 1.385 . S
C1076 H1062 0.931 . S
C1076 C1075 1.385 . S
C1076 C1077 1.389 . S
C1077 C1076 1.389 . S
C1077 C1078 1.387 . S
C1078 H1063 0.930 . S
C1078 C1073 1.390 . S
C1078 C1077 1.387 . S
H1079 C1091 0.930 . S
H1080 C1093 0.930 . S
H1081 C1094 0.930 . S
H1082 C1098 0.959 . S
H1083 C1098 0.962 . S
H1084 C1098 0.961 . S
H1085 C1099 0.960 . S
H1086 C1099 0.961 . S
H1087 C1099 0.959 . S
H1088 C1102 0.929 . S
H1089 C1103 0.931 . S
H1090 C1105 0.930 . S
C1091 H1079 0.930 . S
C1091 C1092 1.399 . S
C1091 C1096 1.399 . S
C1092 C1091 1.399 . S
C1092 C1093 1.376 . S
C1093 H1080 0.930 . S
C1093 C1092 1.376 . S
C1093 C1094 1.388 . S
C1094 H1081 0.930 . S
C1094 C1093 1.388 . S
C1094 C1095 1.390 . S
C1095 C1094 1.390 . S
C1095 C1096 1.394 . S
C1095 C1101 1.465 . S
C1096 C1091 1.399 . S
C1096 C1095 1.394 . S
C1096 C1097 1.516 . S
C1097 C1096 1.516 . S
C1097 C1098 1.502 . S
C1097 C1099 1.561 . S
C1097 C1100 1.526 . S
C1098 H1082 0.959 . S
C1098 H1083 0.962 . S
C1098 H1084 0.961 . S
C1098 C1097 1.502 . S
C1099 H1085 0.960 . S
C1099 H1086 0.961 . S
C1099 H1087 0.959 . S
C1099 C1097 1.561 . S
C1100 C1097 1.526 . S
C1100 C1101 1.396 . S
C1100 C1105 1.390 . S
C1101 C1095 1.465 . S
C1101 C1100 1.396 . S
C1101 C1102 1.399 . S
C1102 H1088 0.929 . S
C1102 C1101 1.399 . S
C1102 C1103 1.385 . S
C1103 H1089 0.931 . S
C1103 C1102 1.385 . S
C1103 C1104 1.389 . S
C1104 C1103 1.389 . S
C1104 C1105 1.387 . S
C1105 H1090 0.930 . S
C1105 C1100 1.390 . S
C1105 C1104 1.387 . S
H1106 C1118 0.930 . S
H1107 C1120 0.930 . S
H1108 C1121 0.930 . S
H1109 C1125 0.959 . S
H1110 C1125 0.959 . S
H1111 C1125 0.961 . S
H1112 C1126 0.960 . S
H1113 C1126 0.961 . S
H1114 C1126 0.959 . S
H1115 C1129 0.929 . S
H1116 C1130 0.931 . S
H1117 C1132 0.930 . S
C1118 H1106 0.930 . S
C1118 C1119 1.399 . S
C1118 C1123 1.399 . S
C1119 C1118 1.399 . S
C1119 C1120 1.376 . S
C1120 H1107 0.930 . S
C1120 C1119 1.376 . S
C1120 C1121 1.388 . S
C1121 H1108 0.930 . S
C1121 C1120 1.388 . S
C1121 C1122 1.390 . S
C1122 C1121 1.390 . S
C1122 C1123 1.394 . S
C1122 C1128 1.465 . S
C1123 C1118 1.399 . S
C1123 C1122 1.394 . S
C1123 C1124 1.516 . S
C1124 C1123 1.516 . S
C1124 C1125 1.502 . S
C1124 C1126 1.561 . S
C1124 C1127 1.526 . S
C1125 H1109 0.959 . S
C1125 H1110 0.959 . S
C1125 H1111 0.961 . S
C1125 C1124 1.502 . S
C1126 H1112 0.960 . S
C1126 H1113 0.961 . S
C1126 H1114 0.959 . S
C1126 C1124 1.561 . S
C1127 C1124 1.526 . S
C1127 C1128 1.396 . S
C1127 C1132 1.390 . S
C1128 C1122 1.465 . S
C1128 C1127 1.396 . S
C1128 C1129 1.399 . S
C1129 H1115 0.929 . S
C1129 C1128 1.399 . S
C1129 C1130 1.385 . S
C1130 H1116 0.931 . S
C1130 C1129 1.385 . S
C1130 C1131 1.389 . S
C1131 C1130 1.389 . S
C1131 C1132 1.387 . S
C1132 H1117 0.930 . S
C1132 C1127 1.390 . S
C1132 C1131 1.387 . S
H1133 C1145 0.930 . S
H1134 C1147 0.930 . S
H1135 C1148 0.930 . S
H1136 C1152 0.959 . S
H1137 C1152 0.959 . S
H1138 C1152 0.961 . S
H1139 C1153 0.960 . S
H1140 C1153 0.961 . S
H1141 C1153 0.959 . S
H1142 C1156 0.929 . S
H1143 C1157 0.931 . S
H1144 C1159 0.930 . S
C1145 H1133 0.930 . S
C1145 C1146 1.399 . S
C1145 C1150 1.399 . S
C1146 C1145 1.399 . S
C1146 C1147 1.376 . S
C1147 H1134 0.930 . S
C1147 C1146 1.376 . S
C1147 C1148 1.388 . S
C1148 H1135 0.930 . S
C1148 C1147 1.388 . S
C1148 C1149 1.390 . S
C1149 C1148 1.390 . S
C1149 C1150 1.394 . S
C1149 C1155 1.465 . S
C1150 C1145 1.399 . S
C1150 C1149 1.394 . S
C1150 C1151 1.516 . S
C1151 C1150 1.516 . S
C1151 C1152 1.502 . S
C1151 C1153 1.561 . S
C1151 C1154 1.526 . S
C1152 H1136 0.959 . S
C1152 H1137 0.959 . S
C1152 H1138 0.961 . S
C1152 C1151 1.502 . S
C1153 H1139 0.960 . S
C1153 H1140 0.961 . S
C1153 H1141 0.959 . S
C1153 C1151 1.561 . S
C1154 C1151 1.526 . S
C1154 C1155 1.396 . S
C1154 C1159 1.390 . S
C1155 C1149 1.465 . S
C1155 C1154 1.396 . S
C1155 C1156 1.399 . S
C1156 H1142 0.929 . S
C1156 C1155 1.399 . S
C1156 C1157 1.385 . S
C1157 H1143 0.931 . S
C1157 C1156 1.385 . S
C1157 C1158 1.389 . S
C1158 C1157 1.389 . S
C1158 C1159 1.387 . S
C1159 H1144 0.930 . S
C1159 C1154 1.390 . S
C1159 C1158 1.387 . S
H1160 C1172 0.930 . S
H1161 C1174 0.930 . S
H1162 C1175 0.930 . S
H1163 C1179 0.959 . S
H1164 C1179 0.959 . S
H1165 C1179 0.961 . S
H1166 C1180 0.960 . S
H1167 C1180 0.961 . S
H1168 C1180 0.959 . S
H1169 C1183 0.929 . S
H1170 C1184 0.931 . S
H1171 C1186 0.930 . S
C1172 H1160 0.930 . S
C1172 C1173 1.399 . S
C1172 C1177 1.399 . S
C1173 C1172 1.399 . S
C1173 C1174 1.376 . S
C1174 H1161 0.930 . S
C1174 C1173 1.376 . S
C1174 C1175 1.388 . S
C1175 H1162 0.930 . S
C1175 C1174 1.388 . S
C1175 C1176 1.390 . S
C1176 C1175 1.390 . S
C1176 C1177 1.394 . S
C1176 C1182 1.465 . S
C1177 C1172 1.399 . S
C1177 C1176 1.394 . S
C1177 C1178 1.516 . S
C1178 C1177 1.516 . S
C1178 C1179 1.502 . S
C1178 C1180 1.561 . S
C1178 C1181 1.526 . S
C1179 H1163 0.959 . S
C1179 H1164 0.959 . S
C1179 H1165 0.961 . S
C1179 C1178 1.502 . S
C1180 H1166 0.960 . S
C1180 H1167 0.961 . S
C1180 H1168 0.959 . S
C1180 C1178 1.561 . S
C1181 C1178 1.526 . S
C1181 C1182 1.396 . S
C1181 C1186 1.390 . S
C1182 C1176 1.465 . S
C1182 C1181 1.396 . S
C1182 C1183 1.399 . S
C1183 H1169 0.929 . S
C1183 C1182 1.399 . S
C1183 C1184 1.385 . S
C1184 H1170 0.931 . S
C1184 C1183 1.385 . S
C1184 C1185 1.389 . S
C1185 C1184 1.389 . S
C1185 C1186 1.387 . S
C1186 H1171 0.930 . S
C1186 C1181 1.390 . S
C1186 C1185 1.387 . S
H1187 C1199 0.930 . S
H1188 C1201 0.930 . S
H1189 C1202 0.930 . S
H1190 C1206 0.959 . S
H1191 C1206 0.959 . S
H1192 C1206 0.961 . S
H1193 C1207 0.960 . S
H1194 C1207 0.961 . S
H1195 C1207 0.959 . S
H1196 C1210 0.929 . S
H1197 C1211 0.931 . S
H1198 C1213 0.930 . S
C1199 H1187 0.930 . S
C1199 C1200 1.399 . S
C1199 C1204 1.399 . S
C1200 C1199 1.399 . S
C1200 C1201 1.376 . S
C1201 H1188 0.930 . S
C1201 C1200 1.376 . S
C1201 C1202 1.388 . S
C1202 H1189 0.930 . S
C1202 C1201 1.388 . S
C1202 C1203 1.390 . S
C1203 C1202 1.390 . S
C1203 C1204 1.394 . S
C1203 C1209 1.465 . S
C1204 C1199 1.399 . S
C1204 C1203 1.394 . S
C1204 C1205 1.516 . S
C1205 C1204 1.516 . S
C1205 C1206 1.502 . S
C1205 C1207 1.561 . S
C1205 C1208 1.526 . S
C1206 H1190 0.959 . S
C1206 H1191 0.959 . S
C1206 H1192 0.961 . S
C1206 C1205 1.502 . S
C1207 H1193 0.960 . S
C1207 H1194 0.961 . S
C1207 H1195 0.959 . S
C1207 C1205 1.561 . S
C1208 C1205 1.526 . S
C1208 C1209 1.396 . S
C1208 C1213 1.390 . S
C1209 C1203 1.465 . S
C1209 C1208 1.396 . S
C1209 C1210 1.399 . S
C1210 H1196 0.929 . S
C1210 C1209 1.399 . S
C1210 C1211 1.385 . S
C1211 H1197 0.931 . S
C1211 C1210 1.385 . S
C1211 C1212 1.389 . S
C1212 C1211 1.389 . S
C1212 C1213 1.387 . S
C1213 H1198 0.930 . S
C1213 C1208 1.390 . S
C1213 C1212 1.387 . S
H1214 C1226 0.930 . S
H1215 C1228 0.930 . S
H1216 C1229 0.930 . S
H1217 C1233 0.959 . S
H1218 C1233 0.959 . S
H1219 C1233 0.961 . S
H1220 C1234 0.960 . S
H1221 C1234 0.961 . S
H1222 C1234 0.959 . S
H1223 C1237 0.929 . S
H1224 C1238 0.931 . S
H1225 C1240 0.930 . S
C1226 H1214 0.930 . S
C1226 C1227 1.399 . S
C1226 C1231 1.399 . S
C1227 C1226 1.399 . S
C1227 C1228 1.376 . S
C1228 H1215 0.930 . S
C1228 C1227 1.376 . S
C1228 C1229 1.388 . S
C1229 H1216 0.930 . S
C1229 C1228 1.388 . S
C1229 C1230 1.390 . S
C1230 C1229 1.390 . S
C1230 C1231 1.394 . S
C1230 C1236 1.465 . S
C1231 C1226 1.399 . S
C1231 C1230 1.394 . S
C1231 C1232 1.516 . S
C1232 C1231 1.516 . S
C1232 C1233 1.502 . S
C1232 C1234 1.561 . S
C1232 C1235 1.526 . S
C1233 H1217 0.959 . S
C1233 H1218 0.959 . S
C1233 H1219 0.961 . S
C1233 C1232 1.502 . S
C1234 H1220 0.960 . S
C1234 H1221 0.961 . S
C1234 H1222 0.959 . S
C1234 C1232 1.561 . S
C1235 C1232 1.526 . S
C1235 C1236 1.396 . S
C1235 C1240 1.390 . S
C1236 C1230 1.465 . S
C1236 C1235 1.396 . S
C1236 C1237 1.399 . S
C1237 H1223 0.929 . S
C1237 C1236 1.399 . S
C1237 C1238 1.385 . S
C1238 H1224 0.931 . S
C1238 C1237 1.385 . S
C1238 C1239 1.389 . S
C1239 C1238 1.389 . S
C1239 C1240 1.387 . S
C1240 H1225 0.930 . S
C1240 C1235 1.390 . S
C1240 C1239 1.387 . S
H1241 C1253 0.930 . S
H1242 C1255 0.930 . S
H1243 C1256 0.930 . S
H1244 C1260 0.959 . S
H1245 C1260 0.959 . S
H1246 C1260 0.961 . S
H1247 C1261 0.960 . S
H1248 C1261 0.961 . S
H1249 C1261 0.959 . S
H1250 C1264 0.929 . S
H1251 C1265 0.931 . S
H1252 C1267 0.930 . S
C1253 H1241 0.930 . S
C1253 C1254 1.399 . S
C1253 C1258 1.399 . S
C1254 C1253 1.399 . S
C1254 C1255 1.376 . S
C1255 H1242 0.930 . S
C1255 C1254 1.376 . S
C1255 C1256 1.388 . S
C1256 H1243 0.930 . S
C1256 C1255 1.388 . S
C1256 C1257 1.390 . S
C1257 C1256 1.390 . S
C1257 C1258 1.394 . S
C1257 C1263 1.465 . S
C1258 C1253 1.399 . S
C1258 C1257 1.394 . S
C1258 C1259 1.516 . S
C1259 C1258 1.516 . S
C1259 C1260 1.502 . S
C1259 C1261 1.561 . S
C1259 C1262 1.526 . S
C1260 H1244 0.959 . S
C1260 H1245 0.959 . S
C1260 H1246 0.961 . S
C1260 C1259 1.502 . S
C1261 H1247 0.960 . S
C1261 H1248 0.961 . S
C1261 H1249 0.959 . S
C1261 C1259 1.561 . S
C1262 C1259 1.526 . S
C1262 C1263 1.396 . S
C1262 C1267 1.390 . S
C1263 C1257 1.465 . S
C1263 C1262 1.396 . S
C1263 C1264 1.399 . S
C1264 H1250 0.929 . S
C1264 C1263 1.399 . S
C1264 C1265 1.385 . S
C1265 H1251 0.931 . S
C1265 C1264 1.385 . S
C1265 C1266 1.389 . S
C1266 C1265 1.389 . S
C1266 C1267 1.387 . S
C1267 H1252 0.930 . S
C1267 C1262 1.390 . S
C1267 C1266 1.387 . S
H1268 C1280 0.930 . S
H1269 C1282 0.930 . S
H1270 C1283 0.930 . S
H1271 C1287 0.959 . S
H1272 C1287 0.959 . S
H1273 C1287 0.961 . S
H1274 C1288 0.960 . S
H1275 C1288 0.961 . S
H1276 C1288 0.959 . S
H1277 C1291 0.929 . S
H1278 C1292 0.931 . S
H1279 C1294 0.930 . S
C1280 H1268 0.930 . S
C1280 C1281 1.399 . S
C1280 C1285 1.399 . S
C1281 C1280 1.399 . S
C1281 C1282 1.376 . S
C1282 H1269 0.930 . S
C1282 C1281 1.376 . S
C1282 C1283 1.388 . S
C1283 H1270 0.930 . S
C1283 C1282 1.388 . S
C1283 C1284 1.390 . S
C1284 C1283 1.390 . S
C1284 C1285 1.394 . S
C1284 C1290 1.465 . S
C1285 C1280 1.399 . S
C1285 C1284 1.394 . S
C1285 C1286 1.516 . S
C1286 C1285 1.516 . S
C1286 C1287 1.502 . S
C1286 C1288 1.561 . S
C1286 C1289 1.526 . S
C1287 H1271 0.959 . S
C1287 H1272 0.959 . S
C1287 H1273 0.961 . S
C1287 C1286 1.502 . S
C1288 H1274 0.960 . S
C1288 H1275 0.961 . S
C1288 H1276 0.959 . S
C1288 C1286 1.561 . S
C1289 C1286 1.526 . S
C1289 C1290 1.396 . S
C1289 C1294 1.390 . S
C1290 C1284 1.465 . S
C1290 C1289 1.396 . S
C1290 C1291 1.399 . S
C1291 H1277 0.929 . S
C1291 C1290 1.399 . S
C1291 C1292 1.385 . S
C1292 H1278 0.931 . S
C1292 C1291 1.385 . S
C1292 C1293 1.389 . S
C1293 C1292 1.389 . S
C1293 C1294 1.387 . S
C1294 H1279 0.930 . S
C1294 C1289 1.390 . S
C1294 C1293 1.387 . S
H1295 C1307 0.930 . S
H1296 C1309 0.930 . S
H1297 C1310 0.930 . S
H1298 C1314 0.959 . S
H1299 C1314 0.959 . S
H1300 C1314 0.961 . S
H1301 C1315 0.960 . S
H1302 C1315 0.961 . S
H1303 C1315 0.959 . S
H1304 C1318 0.929 . S
H1305 C1319 0.931 . S
H1306 C1321 0.930 . S
C1307 H1295 0.930 . S
C1307 C1308 1.399 . S
C1307 C1312 1.399 . S
C1308 C1307 1.399 . S
C1308 C1309 1.376 . S
C1309 H1296 0.930 . S
C1309 C1308 1.376 . S
C1309 C1310 1.388 . S
C1310 H1297 0.930 . S
C1310 C1309 1.388 . S
C1310 C1311 1.390 . S
C1311 C1310 1.390 . S
C1311 C1312 1.394 . S
C1311 C1317 1.465 . S
C1312 C1307 1.399 . S
C1312 C1311 1.394 . S
C1312 C1313 1.516 . S
C1313 C1312 1.516 . S
C1313 C1314 1.502 . S
C1313 C1315 1.561 . S
C1313 C1316 1.526 . S
C1314 H1298 0.959 . S
C1314 H1299 0.959 . S
C1314 H1300 0.961 . S
C1314 C1313 1.502 . S
C1315 H1301 0.960 . S
C1315 H1302 0.961 . S
C1315 H1303 0.959 . S
C1315 C1313 1.561 . S
C1316 C1313 1.526 . S
C1316 C1317 1.396 . S
C1316 C1321 1.390 . S
C1317 C1311 1.465 . S
C1317 C1316 1.396 . S
C1317 C1318 1.399 . S
C1318 H1304 0.929 . S
C1318 C1317 1.399 . S
C1318 C1319 1.385 . S
C1319 H1305 0.931 . S
C1319 C1318 1.385 . S
C1319 C1320 1.389 . S
C1320 C1319 1.389 . S
C1320 C1321 1.387 . S
C1321 H1306 0.930 . S
C1321 C1316 1.390 . S
C1321 C1320 1.387 . S
H1322 C1334 0.930 . S
H1323 C1336 0.930 . S
H1324 C1337 0.930 . S
H1325 C1341 0.959 . S
H1326 C1341 0.959 . S
H1327 C1341 0.961 . S
H1328 C1342 0.960 . S
H1329 C1342 0.961 . S
H1330 C1342 0.959 . S
H1331 C1345 0.929 . S
H1332 C1346 0.931 . S
H1333 C1348 0.930 . S
C1334 H1322 0.930 . S
C1334 C1335 1.399 . S
C1334 C1339 1.399 . S
C1335 C1334 1.399 . S
C1335 C1336 1.376 . S
C1336 H1323 0.930 . S
C1336 C1335 1.376 . S
C1336 C1337 1.388 . S
C1337 H1324 0.930 . S
C1337 C1336 1.388 . S
C1337 C1338 1.390 . S
C1338 C1337 1.390 . S
C1338 C1339 1.394 . S
C1338 C1344 1.465 . S
C1339 C1334 1.399 . S
C1339 C1338 1.394 . S
C1339 C1340 1.516 . S
C1340 C1339 1.516 . S
C1340 C1341 1.502 . S
C1340 C1342 1.561 . S
C1340 C1343 1.526 . S
C1341 H1325 0.959 . S
C1341 H1326 0.959 . S
C1341 H1327 0.961 . S
C1341 C1340 1.502 . S
C1342 H1328 0.960 . S
C1342 H1329 0.961 . S
C1342 H1330 0.959 . S
C1342 C1340 1.561 . S
C1343 C1340 1.526 . S
C1343 C1344 1.396 . S
C1343 C1348 1.390 . S
C1344 C1338 1.465 . S
C1344 C1343 1.396 . S
C1344 C1345 1.399 . S
C1345 H1331 0.929 . S
C1345 C1344 1.399 . S
C1345 C1346 1.385 . S
C1346 H1332 0.931 . S
C1346 C1345 1.385 . S
C1346 C1347 1.389 . S
C1347 C1346 1.389 . S
C1347 C1348 1.387 . S
C1348 H1333 0.930 . S
C1348 C1343 1.390 . S
C1348 C1347 1.387 . S
H1349 C1361 0.930 . S
H1350 C1363 0.930 . S
H1351 C1364 0.930 . S
H1352 C1368 0.959 . S
H1353 C1368 0.959 . S
H1354 C1368 0.961 . S
H1355 C1369 0.960 . S
H1356 C1369 0.961 . S
H1357 C1369 0.959 . S
H1358 C1372 0.929 . S
H1359 C1373 0.931 . S
H1360 C1375 0.930 . S
C1361 H1349 0.930 . S
C1361 C1362 1.399 . S
C1361 C1366 1.399 . S
C1362 C1361 1.399 . S
C1362 C1363 1.376 . S
C1363 H1350 0.930 . S
C1363 C1362 1.376 . S
C1363 C1364 1.388 . S
C1364 H1351 0.930 . S
C1364 C1363 1.388 . S
C1364 C1365 1.390 . S
C1365 C1364 1.390 . S
C1365 C1366 1.394 . S
C1365 C1371 1.465 . S
C1366 C1361 1.399 . S
C1366 C1365 1.394 . S
C1366 C1367 1.516 . S
C1367 C1366 1.516 . S
C1367 C1368 1.502 . S
C1367 C1369 1.561 . S
C1367 C1370 1.526 . S
C1368 H1352 0.959 . S
C1368 H1353 0.959 . S
C1368 H1354 0.961 . S
C1368 C1367 1.502 . S
C1369 H1355 0.960 . S
C1369 H1356 0.961 . S
C1369 H1357 0.959 . S
C1369 C1367 1.561 . S
C1370 C1367 1.526 . S
C1370 C1371 1.396 . S
C1370 C1375 1.390 . S
C1371 C1365 1.465 . S
C1371 C1370 1.396 . S
C1371 C1372 1.399 . S
C1372 H1358 0.929 . S
C1372 C1371 1.399 . S
C1372 C1373 1.385 . S
C1373 H1359 0.931 . S
C1373 C1372 1.385 . S
C1373 C1374 1.389 . S
C1374 C1373 1.389 . S
C1374 C1375 1.387 . S
C1375 H1360 0.930 . S
C1375 C1370 1.390 . S
C1375 C1374 1.387 . S
H1376 C1388 0.930 . S
H1377 C1390 0.930 . S
H1378 C1391 0.930 . S
H1379 C1395 0.959 . S
H1380 C1395 0.959 . S
H1381 C1395 0.961 . S
H1382 C1396 0.960 . S
H1383 C1396 0.961 . S
H1384 C1396 0.959 . S
H1385 C1399 0.929 . S
H1386 C1400 0.931 . S
H1387 C1402 0.930 . S
C1388 H1376 0.930 . S
C1388 C1389 1.399 . S
C1388 C1393 1.399 . S
C1389 C1388 1.399 . S
C1389 C1390 1.376 . S
C1390 H1377 0.930 . S
C1390 C1389 1.376 . S
C1390 C1391 1.388 . S
C1391 H1378 0.930 . S
C1391 C1390 1.388 . S
C1391 C1392 1.390 . S
C1392 C1391 1.390 . S
C1392 C1393 1.394 . S
C1392 C1398 1.465 . S
C1393 C1388 1.399 . S
C1393 C1392 1.394 . S
C1393 C1394 1.516 . S
C1394 C1393 1.516 . S
C1394 C1395 1.502 . S
C1394 C1396 1.561 . S
C1394 C1397 1.526 . S
C1395 H1379 0.959 . S
C1395 H1380 0.959 . S
C1395 H1381 0.961 . S
C1395 C1394 1.502 . S
C1396 H1382 0.960 . S
C1396 H1383 0.961 . S
C1396 H1384 0.959 . S
C1396 C1394 1.561 . S
C1397 C1394 1.526 . S
C1397 C1398 1.396 . S
C1397 C1402 1.390 . S
C1398 C1392 1.465 . S
C1398 C1397 1.396 . S
C1398 C1399 1.399 . S
C1399 H1385 0.929 . S
C1399 C1398 1.399 . S
C1399 C1400 1.385 . S
C1400 H1386 0.931 . S
C1400 C1399 1.385 . S
C1400 C1401 1.389 . S
C1401 C1400 1.389 . S
C1401 C1402 1.387 . S
C1402 H1387 0.930 . S
C1402 C1397 1.390 . S
C1402 C1401 1.387 . S
H1403 C1415 0.930 . S
H1404 C1417 0.930 . S
H1405 C1418 0.930 . S
H1406 C1422 0.959 . S
H1407 C1422 0.959 . S
H1408 C1422 0.961 . S
H1409 C1423 0.960 . S
H1410 C1423 0.961 . S
H1411 C1423 0.959 . S
H1412 C1426 0.929 . S
H1413 C1427 0.931 . S
H1414 C1429 0.930 . S
C1415 H1403 0.930 . S
C1415 C1416 1.399 . S
C1415 C1420 1.399 . S
C1416 C1415 1.399 . S
C1416 C1417 1.376 . S
C1417 H1404 0.930 . S
C1417 C1416 1.376 . S
C1417 C1418 1.388 . S
C1418 H1405 0.930 . S
C1418 C1417 1.388 . S
C1418 C1419 1.390 . S
C1419 C1418 1.390 . S
C1419 C1420 1.394 . S
C1419 C1425 1.465 . S
C1420 C1415 1.399 . S
C1420 C1419 1.394 . S
C1420 C1421 1.516 . S
C1421 C1420 1.516 . S
C1421 C1422 1.502 . S
C1421 C1423 1.561 . S
C1421 C1424 1.526 . S
C1422 H1406 0.959 . S
C1422 H1407 0.959 . S
C1422 H1408 0.961 . S
C1422 C1421 1.502 . S
C1423 H1409 0.960 . S
C1423 H1410 0.961 . S
C1423 H1411 0.959 . S
C1423 C1421 1.561 . S
C1424 C1421 1.526 . S
C1424 C1425 1.396 . S
C1424 C1429 1.390 . S
C1425 C1419 1.465 . S
C1425 C1424 1.396 . S
C1425 C1426 1.399 . S
C1426 H1412 0.929 . S
C1426 C1425 1.399 . S
C1426 C1427 1.385 . S
C1427 H1413 0.931 . S
C1427 C1426 1.385 . S
C1427 C1428 1.389 . S
C1428 C1427 1.389 . S
C1428 C1429 1.387 . S
C1429 H1414 0.930 . S
C1429 C1424 1.390 . S
C1429 C1428 1.387 . S
H1430 C1442 0.930 . S
H1431 C1444 0.930 . S
H1432 C1445 0.930 . S
H1433 C1449 0.959 . S
H1434 C1449 0.959 . S
H1435 C1449 0.961 . S
H1436 C1450 0.960 . S
H1437 C1450 0.961 . S
H1438 C1450 0.959 . S
H1439 C1453 0.929 . S
H1440 C1454 0.931 . S
H1441 C1456 0.930 . S
C1442 H1430 0.930 . S
C1442 C1443 1.399 . S
C1442 C1447 1.399 . S
C1443 C1442 1.399 . S
C1443 C1444 1.376 . S
C1444 H1431 0.930 . S
C1444 C1443 1.376 . S
C1444 C1445 1.388 . S
C1445 H1432 0.930 . S
C1445 C1444 1.388 . S
C1445 C1446 1.390 . S
C1446 C1445 1.390 . S
C1446 C1447 1.394 . S
C1446 C1452 1.465 . S
C1447 C1442 1.399 . S
C1447 C1446 1.394 . S
C1447 C1448 1.516 . S
C1448 C1447 1.516 . S
C1448 C1449 1.502 . S
C1448 C1450 1.561 . S
C1448 C1451 1.526 . S
C1449 H1433 0.959 . S
C1449 H1434 0.959 . S
C1449 H1435 0.961 . S
C1449 C1448 1.502 . S
C1450 H1436 0.960 . S
C1450 H1437 0.961 . S
C1450 H1438 0.959 . S
C1450 C1448 1.561 . S
C1451 C1448 1.526 . S
C1451 C1452 1.396 . S
C1451 C1456 1.390 . S
C1452 C1446 1.465 . S
C1452 C1451 1.396 . S
C1452 C1453 1.399 . S
C1453 H1439 0.929 . S
C1453 C1452 1.399 . S
C1453 C1454 1.385 . S
C1454 H1440 0.931 . S
C1454 C1453 1.385 . S
C1454 C1455 1.389 . S
C1455 C1454 1.389 . S
C1455 C1456 1.387 . S
C1456 H1441 0.930 . S
C1456 C1451 1.390 . S
C1456 C1455 1.387 . S
H1457 C1469 0.930 . S
H1458 C1471 0.930 . S
H1459 C1472 0.930 . S
H1460 C1476 0.959 . S
H1461 C1476 0.959 . S
H1462 C1476 0.961 . S
H1463 C1477 0.960 . S
H1464 C1477 0.961 . S
H1465 C1477 0.959 . S
H1466 C1480 0.929 . S
H1467 C1481 0.931 . S
H1468 C1483 0.930 . S
C1469 H1457 0.930 . S
C1469 C1470 1.399 . S
C1469 C1474 1.399 . S
C1470 C1469 1.399 . S
C1470 C1471 1.376 . S
C1471 H1458 0.930 . S
C1471 C1470 1.376 . S
C1471 C1472 1.388 . S
C1472 H1459 0.930 . S
C1472 C1471 1.388 . S
C1472 C1473 1.390 . S
C1473 C1472 1.390 . S
C1473 C1474 1.394 . S
C1473 C1479 1.465 . S
C1474 C1469 1.399 . S
C1474 C1473 1.394 . S
C1474 C1475 1.516 . S
C1475 C1474 1.516 . S
C1475 C1476 1.502 . S
C1475 C1477 1.561 . S
C1475 C1478 1.526 . S
C1476 H1460 0.959 . S
C1476 H1461 0.959 . S
C1476 H1462 0.961 . S
C1476 C1475 1.502 . S
C1477 H1463 0.960 . S
C1477 H1464 0.961 . S
C1477 H1465 0.959 . S
C1477 C1475 1.561 . S
C1478 C1475 1.526 . S
C1478 C1479 1.396 . S
C1478 C1483 1.390 . S
C1479 C1473 1.465 . S
C1479 C1478 1.396 . S
C1479 C1480 1.399 . S
C1480 H1466 0.929 . S
C1480 C1479 1.399 . S
C1480 C1481 1.385 . S
C1481 H1467 0.931 . S
C1481 C1480 1.385 . S
C1481 C1482 1.389 . S
C1482 C1481 1.389 . S
C1482 C1483 1.387 . S
C1483 H1468 0.930 . S
C1483 C1478 1.390 . S
C1483 C1482 1.387 . S
H1484 C1496 0.930 . S
H1485 C1498 0.930 . S
H1486 C1499 0.930 . S
H1487 C1503 0.959 . S
H1488 C1503 0.959 . S
H1489 C1503 0.961 . S
H1490 C1504 0.960 . S
H1491 C1504 0.961 . S
H1492 C1504 0.959 . S
H1493 C1507 0.929 . S
H1494 C1508 0.931 . S
H1495 C1510 0.930 . S
C1496 H1484 0.930 . S
C1496 C1497 1.399 . S
C1496 C1501 1.399 . S
C1497 C1496 1.399 . S
C1497 C1498 1.376 . S
C1498 H1485 0.930 . S
C1498 C1497 1.376 . S
C1498 C1499 1.388 . S
C1499 H1486 0.930 . S
C1499 C1498 1.388 . S
C1499 C1500 1.390 . S
C1500 C1499 1.390 . S
C1500 C1501 1.394 . S
C1500 C1506 1.465 . S
C1501 C1496 1.399 . S
C1501 C1500 1.394 . S
C1501 C1502 1.516 . S
C1502 C1501 1.516 . S
C1502 C1503 1.502 . S
C1502 C1504 1.561 . S
C1502 C1505 1.526 . S
C1503 H1487 0.959 . S
C1503 H1488 0.959 . S
C1503 H1489 0.961 . S
C1503 C1502 1.502 . S
C1504 H1490 0.960 . S
C1504 H1491 0.961 . S
C1504 H1492 0.959 . S
C1504 C1502 1.561 . S
C1505 C1502 1.526 . S
C1505 C1506 1.396 . S
C1505 C1510 1.390 . S
C1506 C1500 1.465 . S
C1506 C1505 1.396 . S
C1506 C1507 1.399 . S
C1507 H1493 0.929 . S
C1507 C1506 1.399 . S
C1507 C1508 1.385 . S
C1508 H1494 0.931 . S
C1508 C1507 1.385 . S
C1508 C1509 1.389 . S
C1509 C1508 1.389 . S
C1509 C1510 1.387 . S
C1510 H1495 0.930 . S
C1510 C1505 1.390 . S
C1510 C1509 1.387 . S
H1511 C1523 0.930 . S
H1512 C1525 0.930 . S
H1513 C1526 0.930 . S
H1514 C1530 0.959 . S
H1515 C1530 0.959 . S
H1516 C1530 0.961 . S
H1517 C1531 0.960 . S
H1518 C1531 0.961 . S
H1519 C1531 0.959 . S
H1520 C1534 0.929 . S
H1521 C1535 0.931 . S
H1522 C1537 0.930 . S
C1523 H1511 0.930 . S
C1523 C1524 1.399 . S
C1523 C1528 1.399 . S
C1524 C1523 1.399 . S
C1524 C1525 1.376 . S
C1525 H1512 0.930 . S
C1525 C1524 1.376 . S
C1525 C1526 1.388 . S
C1526 H1513 0.930 . S
C1526 C1525 1.388 . S
C1526 C1527 1.390 . S
C1527 C1526 1.390 . S
C1527 C1528 1.394 . S
C1527 C1533 1.465 . S
C1528 C1523 1.399 . S
C1528 C1527 1.394 . S
C1528 C1529 1.516 . S
C1529 C1528 1.516 . S
C1529 C1530 1.502 . S
C1529 C1531 1.561 . S
C1529 C1532 1.526 . S
C1530 H1514 0.959 . S
C1530 H1515 0.959 . S
C1530 H1516 0.961 . S
C1530 C1529 1.502 . S
C1531 H1517 0.960 . S
C1531 H1518 0.961 . S
C1531 H1519 0.959 . S
C1531 C1529 1.561 . S
C1532 C1529 1.526 . S
C1532 C1533 1.396 . S
C1532 C1537 1.390 . S
C1533 C1527 1.465 . S
C1533 C1532 1.396 . S
C1533 C1534 1.399 . S
C1534 H1520 0.929 . S
C1534 C1533 1.399 . S
C1534 C1535 1.385 . S
C1535 H1521 0.931 . S
C1535 C1534 1.385 . S
C1535 C1536 1.389 . S
C1536 C1535 1.389 . S
C1536 C1537 1.387 . S
C1537 H1522 0.930 . S
C1537 C1532 1.390 . S
C1537 C1536 1.387 . S
H1538 C1550 0.930 . S
H1539 C1552 0.930 . S
H1540 C1553 0.930 . S
H1541 C1557 0.959 . S
H1542 C1557 0.959 . S
H1543 C1557 0.961 . S
H1544 C1558 0.960 . S
H1545 C1558 0.961 . S
H1546 C1558 0.959 . S
H1547 C1561 0.929 . S
H1548 C1562 0.931 . S
H1549 C1564 0.930 . S
C1550 H1538 0.930 . S
C1550 C1551 1.399 . S
C1550 C1555 1.399 . S
C1551 C1550 1.399 . S
C1551 C1552 1.376 . S
C1552 H1539 0.930 . S
C1552 C1551 1.376 . S
C1552 C1553 1.388 . S
C1553 H1540 0.930 . S
C1553 C1552 1.388 . S
C1553 C1554 1.390 . S
C1554 C1553 1.390 . S
C1554 C1555 1.394 . S
C1554 C1560 1.465 . S
C1555 C1550 1.399 . S
C1555 C1554 1.394 . S
C1555 C1556 1.516 . S
C1556 C1555 1.516 . S
C1556 C1557 1.502 . S
C1556 C1558 1.561 . S
C1556 C1559 1.526 . S
C1557 H1541 0.959 . S
C1557 H1542 0.959 . S
C1557 H1543 0.961 . S
C1557 C1556 1.502 . S
C1558 H1544 0.960 . S
C1558 H1545 0.961 . S
C1558 H1546 0.959 . S
C1558 C1556 1.561 . S
C1559 C1556 1.526 . S
C1559 C1560 1.396 . S
C1559 C1564 1.390 . S
C1560 C1554 1.465 . S
C1560 C1559 1.396 . S
C1560 C1561 1.399 . S
C1561 H1547 0.929 . S
C1561 C1560 1.399 . S
C1561 C1562 1.385 . S
C1562 H1548 0.931 . S
C1562 C1561 1.385 . S
C1562 C1563 1.389 . S
C1563 C1562 1.389 . S
C1563 C1564 1.387 . S
C1564 H1549 0.930 . S
C1564 C1559 1.390 . S
C1564 C1563 1.387 . S
H1565 C1577 0.930 . S
H1566 C1579 0.930 . S
H1567 C1580 0.930 . S
H1568 C1584 0.959 . S
H1569 C1584 0.959 . S
H1570 C1584 0.961 . S
H1571 C1585 0.960 . S
H1572 C1585 0.961 . S
H1573 C1585 0.959 . S
H1574 C1588 0.929 . S
H1575 C1589 0.931 . S
H1576 C1591 0.930 . S
C1577 H1565 0.930 . S
C1577 C1578 1.399 . S
C1577 C1582 1.399 . S
C1578 C1577 1.399 . S
C1578 C1579 1.376 . S
C1579 H1566 0.930 . S
C1579 C1578 1.376 . S
C1579 C1580 1.388 . S
C1580 H1567 0.930 . S
C1580 C1579 1.388 . S
C1580 C1581 1.390 . S
C1581 C1580 1.390 . S
C1581 C1582 1.394 . S
C1581 C1587 1.465 . S
C1582 C1577 1.399 . S
C1582 C1581 1.394 . S
C1582 C1583 1.516 . S
C1583 C1582 1.516 . S
C1583 C1584 1.502 . S
C1583 C1585 1.561 . S
C1583 C1586 1.526 . S
C1584 H1568 0.959 . S
C1584 H1569 0.959 . S
C1584 H1570 0.961 . S
C1584 C1583 1.502 . S
C1585 H1571 0.960 . S
C1585 H1572 0.961 . S
C1585 H1573 0.959 . S
C1585 C1583 1.561 . S
C1586 C1583 1.526 . S
C1586 C1587 1.396 . S
C1586 C1591 1.390 . S
C1587 C1581 1.465 . S
C1587 C1586 1.396 . S
C1587 C1588 1.399 . S
C1588 H1574 0.929 . S
C1588 C1587 1.399 . S
C1588 C1589 1.385 . S
C1589 H1575 0.931 . S
C1589 C1588 1.385 . S
C1589 C1590 1.389 . S
C1590 C1589 1.389 . S
C1590 C1591 1.387 . S
C1591 H1576 0.930 . S
C1591 C1586 1.390 . S
C1591 C1590 1.387 . S
H1592 C1604 0.930 . S
H1593 C1606 0.930 . S
H1594 C1607 0.930 . S
H1595 C1611 0.959 . S
H1596 C1611 0.959 . S
H1597 C1611 0.961 . S
H1598 C1612 0.960 . S
H1599 C1612 0.961 . S
H1600 C1612 0.959 . S
H1601 C1615 0.929 . S
H1602 C1616 0.931 . S
H1603 C1618 0.930 . S
C1604 H1592 0.930 . S
C1604 C1605 1.399 . S
C1604 C1609 1.399 . S
C1605 C1604 1.399 . S
C1605 C1606 1.376 . S
C1606 H1593 0.930 . S
C1606 C1605 1.376 . S
C1606 C1607 1.388 . S
C1607 H1594 0.930 . S
C1607 C1606 1.388 . S
C1607 C1608 1.390 . S
C1608 C1607 1.390 . S
C1608 C1609 1.394 . S
C1608 C1614 1.465 . S
C1609 C1604 1.399 . S
C1609 C1608 1.394 . S
C1609 C1610 1.516 . S
C1610 C1609 1.516 . S
C1610 C1611 1.502 . S
C1610 C1612 1.561 . S
C1610 C1613 1.526 . S
C1611 H1595 0.959 . S
C1611 H1596 0.959 . S
C1611 H1597 0.961 . S
C1611 C1610 1.502 . S
C1612 H1598 0.960 . S
C1612 H1599 0.961 . S
C1612 H1600 0.959 . S
C1612 C1610 1.561 . S
C1613 C1610 1.526 . S
C1613 C1614 1.396 . S
C1613 C1618 1.390 . S
C1614 C1608 1.465 . S
C1614 C1613 1.396 . S
C1614 C1615 1.399 . S
C1615 H1601 0.929 . S
C1615 C1614 1.399 . S
C1615 C1616 1.385 . S
C1616 H1602 0.931 . S
C1616 C1615 1.385 . S
C1616 C1617 1.389 . S
C1617 C1616 1.389 . S
C1617 C1618 1.387 . S
C1618 H1603 0.930 . S
C1618 C1613 1.390 . S
C1618 C1617 1.387 . S
H1619 C1631 0.930 . S
H1620 C1633 0.930 . S
H1621 C1634 0.930 . S
H1622 C1638 0.959 . S
H1623 C1638 0.959 . S
H1624 C1638 0.961 . S
H1625 C1639 0.960 . S
H1626 C1639 0.961 . S
H1627 C1639 0.959 . S
H1628 C1642 0.929 . S
H1629 C1643 0.931 . S
H1630 C1645 0.930 . S
C1631 H1619 0.930 . S
C1631 C1632 1.399 . S
C1631 C1636 1.399 . S
C1632 C1631 1.399 . S
C1632 C1633 1.376 . S
C1633 H1620 0.930 . S
C1633 C1632 1.376 . S
C1633 C1634 1.388 . S
C1634 H1621 0.930 . S
C1634 C1633 1.388 . S
C1634 C1635 1.390 . S
C1635 C1634 1.390 . S
C1635 C1636 1.394 . S
C1635 C1641 1.465 . S
C1636 C1631 1.399 . S
C1636 C1635 1.394 . S
C1636 C1637 1.516 . S
C1637 C1636 1.516 . S
C1637 C1638 1.502 . S
C1637 C1639 1.561 . S
C1637 C1640 1.526 . S
C1638 H1622 0.959 . S
C1638 H1623 0.959 . S
C1638 H1624 0.961 . S
C1638 C1637 1.502 . S
C1639 H1625 0.960 . S
C1639 H1626 0.961 . S
C1639 H1627 0.959 . S
C1639 C1637 1.561 . S
C1640 C1637 1.526 . S
C1640 C1641 1.396 . S
C1640 C1645 1.390 . S
C1641 C1635 1.465 . S
C1641 C1640 1.396 . S
C1641 C1642 1.399 . S
C1642 H1628 0.929 . S
C1642 C1641 1.399 . S
C1642 C1643 1.385 . S
C1643 H1629 0.931 . S
C1643 C1642 1.385 . S
C1643 C1644 1.389 . S
C1644 C1643 1.389 . S
C1644 C1645 1.387 . S
C1645 H1630 0.930 . S
C1645 C1640 1.390 . S
C1645 C1644 1.387 . S
H1646 C1658 0.930 . S
H1647 C1660 0.930 . S
H1648 C1661 0.930 . S
H1649 C1665 0.959 . S
H1650 C1665 0.959 . S
H1651 C1665 0.961 . S
H1652 C1666 0.960 . S
H1653 C1666 0.961 . S
H1654 C1666 0.959 . S
H1655 C1669 0.929 . S
H1656 C1670 0.931 . S
H1657 C1672 0.930 . S
C1658 H1646 0.930 . S
C1658 C1659 1.399 . S
C1658 C1663 1.399 . S
C1659 C1658 1.399 . S
C1659 C1660 1.376 . S
C1660 H1647 0.930 . S
C1660 C1659 1.376 . S
C1660 C1661 1.388 . S
C1661 H1648 0.930 . S
C1661 C1660 1.388 . S
C1661 C1662 1.390 . S
C1662 C1661 1.390 . S
C1662 C1663 1.394 . S
C1662 C1668 1.465 . S
C1663 C1658 1.399 . S
C1663 C1662 1.394 . S
C1663 C1664 1.516 . S
C1664 C1663 1.516 . S
C1664 C1665 1.502 . S
C1664 C1666 1.561 . S
C1664 C1667 1.526 . S
C1665 H1649 0.959 . S
C1665 H1650 0.959 . S
C1665 H1651 0.961 . S
C1665 C1664 1.502 . S
C1666 H1652 0.960 . S
C1666 H1653 0.961 . S
C1666 H1654 0.959 . S
C1666 C1664 1.561 . S
C1667 C1664 1.526 . S
C1667 C1668 1.396 . S
C1667 C1672 1.390 . S
C1668 C1662 1.465 . S
C1668 C1667 1.396 . S
C1668 C1669 1.399 . S
C1669 H1655 0.929 . S
C1669 C1668 1.399 . S
C1669 C1670 1.385 . S
C1670 H1656 0.931 . S
C1670 C1669 1.385 . S
C1670 C1671 1.389 . S
C1671 C1670 1.389 . S
C1671 C1672 1.387 . S
C1672 H1657 0.930 . S
C1672 C1667 1.390 . S
C1672 C1671 1.387 . S
H1673 C1685 0.930 . S
H1674 C1687 0.930 . S
H1675 C1688 0.930 . S
H1676 C1692 0.959 . S
H1677 C1692 0.959 . S
H1678 C1692 0.961 . S
H1679 C1693 0.960 . S
H1680 C1693 0.961 . S
H1681 C1693 0.959 . S
H1682 C1696 0.929 . S
H1683 C1697 0.931 . S
H1684 C1699 0.930 . S
C1685 H1673 0.930 . S
C1685 C1686 1.399 . S
C1685 C1690 1.399 . S
C1686 C1685 1.399 . S
C1686 C1687 1.376 . S
C1687 H1674 0.930 . S
C1687 C1686 1.376 . S
C1687 C1688 1.388 . S
C1688 H1675 0.930 . S
C1688 C1687 1.388 . S
C1688 C1689 1.390 . S
C1689 C1688 1.390 . S
C1689 C1690 1.394 . S
C1689 C1695 1.465 . S
C1690 C1685 1.399 . S
C1690 C1689 1.394 . S
C1690 C1691 1.516 . S
C1691 C1690 1.516 . S
C1691 C1692 1.502 . S
C1691 C1693 1.561 . S
C1691 C1694 1.526 . S
C1692 H1676 0.959 . S
C1692 H1677 0.959 . S
C1692 H1678 0.961 . S
C1692 C1691 1.502 . S
C1693 H1679 0.960 . S
C1693 H1680 0.961 . S
C1693 H1681 0.959 . S
C1693 C1691 1.561 . S
C1694 C1691 1.526 . S
C1694 C1695 1.396 . S
C1694 C1699 1.390 . S
C1695 C1689 1.465 . S
C1695 C1694 1.396 . S
C1695 C1696 1.399 . S
C1696 H1682 0.929 . S
C1696 C1695 1.399 . S
C1696 C1697 1.385 . S
C1697 H1683 0.931 . S
C1697 C1696 1.385 . S
C1697 C1698 1.389 . S
C1698 C1697 1.389 . S
C1698 C1699 1.387 . S
C1699 H1684 0.930 . S
C1699 C1694 1.390 . S
C1699 C1698 1.387 . S
H1700 C1712 0.930 . S
H1701 C1714 0.930 . S
H1702 C1715 0.930 . S
H1703 C1719 0.959 . S
H1704 C1719 0.959 . S
H1705 C1719 0.961 . S
H1706 C1720 0.960 . S
H1707 C1720 0.961 . S
H1708 C1720 0.959 . S
H1709 C1723 0.929 . S
H1710 C1724 0.931 . S
H1711 C1726 0.930 . S
C1712 H1700 0.930 . S
C1712 C1713 1.399 . S
C1712 C1717 1.399 . S
C1713 C1712 1.399 . S
C1713 C1714 1.376 . S
C1714 H1701 0.930 . S
C1714 C1713 1.376 . S
C1714 C1715 1.388 . S
C1715 H1702 0.930 . S
C1715 C1714 1.388 . S
C1715 C1716 1.390 . S
C1716 C1715 1.390 . S
C1716 C1717 1.394 . S
C1716 C1722 1.465 . S
C1717 C1712 1.399 . S
C1717 C1716 1.394 . S
C1717 C1718 1.516 . S
C1718 C1717 1.516 . S
C1718 C1719 1.502 . S
C1718 C1720 1.561 . S
C1718 C1721 1.526 . S
C1719 H1703 0.959 . S
C1719 H1704 0.959 . S
C1719 H1705 0.961 . S
C1719 C1718 1.502 . S
C1720 H1706 0.960 . S
C1720 H1707 0.961 . S
C1720 H1708 0.959 . S
C1720 C1718 1.561 . S
C1721 C1718 1.526 . S
C1721 C1722 1.396 . S
C1721 C1726 1.390 . S
C1722 C1716 1.465 . S
C1722 C1721 1.396 . S
C1722 C1723 1.399 . S
C1723 H1709 0.929 . S
C1723 C1722 1.399 . S
C1723 C1724 1.385 . S
C1724 H1710 0.931 . S
C1724 C1723 1.385 . S
C1724 C1725 1.389 . S
C1725 C1724 1.389 . S
C1725 C1726 1.387 . S
C1726 H1711 0.930 . S
C1726 C1721 1.390 . S
C1726 C1725 1.387 . S
H1727 C1739 0.930 . S
H1728 C1741 0.930 . S
H1729 C1742 0.930 . S
H1730 C1746 0.959 . S
H1731 C1746 0.959 . S
H1732 C1746 0.961 . S
H1733 C1747 0.960 . S
H1734 C1747 0.961 . S
H1735 C1747 0.959 . S
H1736 C1750 0.929 . S
H1737 C1751 0.931 . S
H1738 C1753 0.930 . S
C1739 H1727 0.930 . S
C1739 C1740 1.399 . S
C1739 C1744 1.399 . S
C1740 C1739 1.399 . S
C1740 C1741 1.376 . S
C1741 H1728 0.930 . S
C1741 C1740 1.376 . S
C1741 C1742 1.388 . S
C1742 H1729 0.930 . S
C1742 C1741 1.388 . S
C1742 C1743 1.390 . S
C1743 C1742 1.390 . S
C1743 C1744 1.394 . S
C1743 C1749 1.465 . S
C1744 C1739 1.399 . S
C1744 C1743 1.394 . S
C1744 C1745 1.516 . S
C1745 C1744 1.516 . S
C1745 C1746 1.502 . S
C1745 C1747 1.561 . S
C1745 C1748 1.526 . S
C1746 H1730 0.959 . S
C1746 H1731 0.959 . S
C1746 H1732 0.961 . S
C1746 C1745 1.502 . S
C1747 H1733 0.960 . S
C1747 H1734 0.961 . S
C1747 H1735 0.959 . S
C1747 C1745 1.561 . S
C1748 C1745 1.526 . S
C1748 C1749 1.396 . S
C1748 C1753 1.390 . S
C1749 C1743 1.465 . S
C1749 C1748 1.396 . S
C1749 C1750 1.399 . S
C1750 H1736 0.929 . S
C1750 C1749 1.399 . S
C1750 C1751 1.385 . S
C1751 H1737 0.931 . S
C1751 C1750 1.385 . S
C1751 C1752 1.389 . S
C1752 C1751 1.389 . S
C1752 C1753 1.387 . S
C1753 H1738 0.930 . S
C1753 C1748 1.390 . S
C1753 C1752 1.387 . S
C483 C283 0.404 . S
C471 C4 0.222 . S
C510 C273 1.722 . S
C498 C63 1.705 . S
C537 C274 0.855 . S
C525 C72 0.806 . S
C552 C102 1.634 . S
C564 C296 1.660 . S
C579 C136 1.731 . S
C591 C299 1.723 . S
C618 C282 0.896 . S
C606 C183 0.839 . S
C633 C233 1.647 . S
C645 C272 1.631 . S
C660 C251 0.400 . S
C672 C290 0.447 . S
C699 C303 1.558 . S
C687 C29 1.571 . S
C714 C42 1.986 . S
C726 C352 1.877 . S
C753 C330 1.671 . S
C741 C97 1.726 . S
C780 C344 0.747 . S
C768 C115 0.845 . S
C795 C149 0.815 . S
C807 C305 0.778 . S
C834 C358 1.615 . S
C822 C187 1.626 . S
C849 C212 2.002 . S
C861 C314 1.853 . S
C876 C255 1.681 . S
C888 C335 1.634 . S
C903 C8 1.676 . S
C915 C361 1.630 . S
C930 C153 1.980 . S
C942 C345 1.847 . S
C969 C304 1.658 . S
C957 C170 1.714 . S
C996 C336 0.888 . S
C984 C208 0.762 . S
C1011 C238 1.573 . S
C1023 C327 1.533 . S
C1038 C76 1.623 . S
C1050 C334 1.613 . S
C1077 C321 1.864 . S
C1065 C119 2.000 . S
C1092 C38 0.803 . S
C1104 C313 0.757 . S
C1119 C242 0.208 . S
C1131 C376 0.277 . S
C1146 C165 1.710 . S
C1158 C366 1.705 . S
C1185 C367 0.839 . S
C1173 C174 0.793 . S
C1212 C389 1.663 . S
C1200 C204 1.640 . S
C1227 C34 1.731 . S
C1239 C392 1.719 . S
C1266 C375 0.894 . S
C1254 C81 0.826 . S
C1281 C131 1.660 . S
C1293 C365 1.645 . S
C1308 C13 0.309 . S
C1320 C383 0.328 . S
C1335 C267 1.591 . S
C1347 C396 1.531 . S
C1374 C445 1.896 . S
C1362 C144 1.968 . S
C1389 C199 1.716 . S
C1401 C423 1.658 . S
C1416 C217 0.754 . S
C1428 C437 0.889 . S
C1455 C398 0.869 . S
C1443 C47 0.772 . S
C1470 C85 1.623 . S
C1482 C451 1.635 . S
C1509 C407 1.890 . S
C1497 C110 1.981 . S
C1536 C428 1.618 . S
C1524 C17 1.673 . S
C1563 C454 1.617 . S
C1551 C246 1.667 . S
C1578 C51 1.991 . S
C1590 C438 1.869 . S
C1605 C68 1.726 . S
C1617 C397 1.692 . S
C1644 C429 0.888 . S
C1632 C106 0.760 . S
C1659 C0 1.573 . S
C1671 C420 1.530 . S
C1686 C178 1.648 . S
C1698 C427 1.570 . S
C1725 C414 1.870 . S
C1713 C221 2.000 . S
C1752 C406 0.772 . S
C1740 C140 0.786 . S
