# Generated by pormake.
# Topology llk, (3,12)-cn, num edge types: 1
# Building blocks:
#     Node 0, Type 0, BuildingBlock: WUSLED_clean_sbu_0, # of connection points: 3
#     Node 1, Type 0, BuildingBlock: WUSLED_clean_sbu_0, # of connection points: 3
#     Node 2, Type 0, BuildingBlock: WUSLED_clean_sbu_0, # of connection points: 3
#     Node 3, Type 0, BuildingBlock: WUSLED_clean_sbu_0, # of connection points: 3
#     Node 4, Type 0, BuildingBlock: WUSLED_clean_sbu_0, # of connection points: 3
#     Node 5, Type 0, BuildingBlock: WUSLED_clean_sbu_0, # of connection points: 3
#     Node 6, Type 0, BuildingBlock: WUSLED_clean_sbu_0, # of connection points: 3
#     Node 7, Type 0, BuildingBlock: WUSLED_clean_sbu_0, # of connection points: 3
#     Node 8, Type 0, BuildingBlock: WUSLED_clean_sbu_0, # of connection points: 3
#     Node 9, Type 0, BuildingBlock: WUSLED_clean_sbu_0, # of connection points: 3
#     Node 10, Type 0, BuildingBlock: WUSLED_clean_sbu_0, # of connection points: 3
#     Node 11, Type 0, BuildingBlock: WUSLED_clean_sbu_0, # of connection points: 3
#     Node 12, Type 0, BuildingBlock: WUSLED_clean_sbu_0, # of connection points: 3
#     Node 13, Type 0, BuildingBlock: WUSLED_clean_sbu_0, # of connection points: 3
#     Node 14, Type 0, BuildingBlock: WUSLED_clean_sbu_0, # of connection points: 3
#     Node 15, Type 0, BuildingBlock: WUSLED_clean_sbu_0, # of connection points: 3
#     Node 16, Type 0, BuildingBlock: WUSLED_clean_sbu_0, # of connection points: 3
#     Node 17, Type 0, BuildingBlock: WUSLED_clean_sbu_0, # of connection points: 3
#     Node 18, Type 0, BuildingBlock: WUSLED_clean_sbu_0, # of connection points: 3
#     Node 19, Type 0, BuildingBlock: WUSLED_clean_sbu_0, # of connection points: 3
#     Node 20, Type 0, BuildingBlock: WUSLED_clean_sbu_0, # of connection points: 3
#     Node 21, Type 0, BuildingBlock: WUSLED_clean_sbu_0, # of connection points: 3
#     Node 22, Type 0, BuildingBlock: WUSLED_clean_sbu_0, # of connection points: 3
#     Node 23, Type 0, BuildingBlock: WUSLED_clean_sbu_0, # of connection points: 3
#     Node 24, Type 1, BuildingBlock: EZIPEK_clean_sbu_0, # of connection points: 12
#     Node 25, Type 1, BuildingBlock: EZIPEK_clean_sbu_0, # of connection points: 12
#     Node 26, Type 1, BuildingBlock: EZIPEK_clean_sbu_0, # of connection points: 12
#     Node 27, Type 1, BuildingBlock: EZIPEK_clean_sbu_0, # of connection points: 12
#     Node 28, Type 1, BuildingBlock: EZIPEK_clean_sbu_0, # of connection points: 12
#     Node 29, Type 1, BuildingBlock: EZIPEK_clean_sbu_0, # of connection points: 12
#     Edge 30, Type (0, 1), BuildingBlock: XIVTED_clean_linker_0, # of connection points: 2
#     Edge 31, Type (0, 1), BuildingBlock: XIVTED_clean_linker_0, # of connection points: 2
#     Edge 32, Type (0, 1), BuildingBlock: XIVTED_clean_linker_0, # of connection points: 2
#     Edge 33, Type (0, 1), BuildingBlock: XIVTED_clean_linker_0, # of connection points: 2
#     Edge 34, Type (0, 1), BuildingBlock: XIVTED_clean_linker_0, # of connection points: 2
#     Edge 35, Type (0, 1), BuildingBlock: XIVTED_clean_linker_0, # of connection points: 2
#     Edge 36, Type (0, 1), BuildingBlock: XIVTED_clean_linker_0, # of connection points: 2
#     Edge 37, Type (0, 1), BuildingBlock: XIVTED_clean_linker_0, # of connection points: 2
#     Edge 38, Type (0, 1), BuildingBlock: XIVTED_clean_linker_0, # of connection points: 2
#     Edge 39, Type (0, 1), BuildingBlock: XIVTED_clean_linker_0, # of connection points: 2
#     Edge 40, Type (0, 1), BuildingBlock: XIVTED_clean_linker_0, # of connection points: 2
#     Edge 41, Type (0, 1), BuildingBlock: XIVTED_clean_linker_0, # of connection points: 2
#     Edge 42, Type (0, 1), BuildingBlock: XIVTED_clean_linker_0, # of connection points: 2
#     Edge 43, Type (0, 1), BuildingBlock: XIVTED_clean_linker_0, # of connection points: 2
#     Edge 44, Type (0, 1), BuildingBlock: XIVTED_clean_linker_0, # of connection points: 2
#     Edge 45, Type (0, 1), BuildingBlock: XIVTED_clean_linker_0, # of connection points: 2
#     Edge 46, Type (0, 1), BuildingBlock: XIVTED_clean_linker_0, # of connection points: 2
#     Edge 47, Type (0, 1), BuildingBlock: XIVTED_clean_linker_0, # of connection points: 2
#     Edge 48, Type (0, 1), BuildingBlock: XIVTED_clean_linker_0, # of connection points: 2
#     Edge 49, Type (0, 1), BuildingBlock: XIVTED_clean_linker_0, # of connection points: 2
#     Edge 50, Type (0, 1), BuildingBlock: XIVTED_clean_linker_0, # of connection points: 2
#     Edge 51, Type (0, 1), BuildingBlock: XIVTED_clean_linker_0, # of connection points: 2
#     Edge 52, Type (0, 1), BuildingBlock: XIVTED_clean_linker_0, # of connection points: 2
#     Edge 53, Type (0, 1), BuildingBlock: XIVTED_clean_linker_0, # of connection points: 2
#     Edge 54, Type (0, 1), BuildingBlock: XIVTED_clean_linker_0, # of connection points: 2
#     Edge 55, Type (0, 1), BuildingBlock: XIVTED_clean_linker_0, # of connection points: 2
#     Edge 56, Type (0, 1), BuildingBlock: XIVTED_clean_linker_0, # of connection points: 2
#     Edge 57, Type (0, 1), BuildingBlock: XIVTED_clean_linker_0, # of connection points: 2
#     Edge 58, Type (0, 1), BuildingBlock: XIVTED_clean_linker_0, # of connection points: 2
#     Edge 59, Type (0, 1), BuildingBlock: XIVTED_clean_linker_0, # of connection points: 2
#     Edge 60, Type (0, 1), BuildingBlock: XIVTED_clean_linker_0, # of connection points: 2
#     Edge 61, Type (0, 1), BuildingBlock: XIVTED_clean_linker_0, # of connection points: 2
#     Edge 62, Type (0, 1), BuildingBlock: XIVTED_clean_linker_0, # of connection points: 2
#     Edge 63, Type (0, 1), BuildingBlock: XIVTED_clean_linker_0, # of connection points: 2
#     Edge 64, Type (0, 1), BuildingBlock: XIVTED_clean_linker_0, # of connection points: 2
#     Edge 65, Type (0, 1), BuildingBlock: XIVTED_clean_linker_0, # of connection points: 2
#     Edge 66, Type (0, 1), BuildingBlock: XIVTED_clean_linker_0, # of connection points: 2
#     Edge 67, Type (0, 1), BuildingBlock: XIVTED_clean_linker_0, # of connection points: 2
#     Edge 68, Type (0, 1), BuildingBlock: XIVTED_clean_linker_0, # of connection points: 2
#     Edge 69, Type (0, 1), BuildingBlock: XIVTED_clean_linker_0, # of connection points: 2
#     Edge 70, Type (0, 1), BuildingBlock: XIVTED_clean_linker_0, # of connection points: 2
#     Edge 71, Type (0, 1), BuildingBlock: XIVTED_clean_linker_0, # of connection points: 2
#     Edge 72, Type (0, 1), BuildingBlock: XIVTED_clean_linker_0, # of connection points: 2
#     Edge 73, Type (0, 1), BuildingBlock: XIVTED_clean_linker_0, # of connection points: 2
#     Edge 74, Type (0, 1), BuildingBlock: XIVTED_clean_linker_0, # of connection points: 2
#     Edge 75, Type (0, 1), BuildingBlock: XIVTED_clean_linker_0, # of connection points: 2
#     Edge 76, Type (0, 1), BuildingBlock: XIVTED_clean_linker_0, # of connection points: 2
#     Edge 77, Type (0, 1), BuildingBlock: XIVTED_clean_linker_0, # of connection points: 2
#     Edge 78, Type (0, 1), BuildingBlock: XIVTED_clean_linker_0, # of connection points: 2
#     Edge 79, Type (0, 1), BuildingBlock: XIVTED_clean_linker_0, # of connection points: 2
#     Edge 80, Type (0, 1), BuildingBlock: XIVTED_clean_linker_0, # of connection points: 2
#     Edge 81, Type (0, 1), BuildingBlock: XIVTED_clean_linker_0, # of connection points: 2
#     Edge 82, Type (0, 1), BuildingBlock: XIVTED_clean_linker_0, # of connection points: 2
#     Edge 83, Type (0, 1), BuildingBlock: XIVTED_clean_linker_0, # of connection points: 2
#     Edge 84, Type (0, 1), BuildingBlock: XIVTED_clean_linker_0, # of connection points: 2
#     Edge 85, Type (0, 1), BuildingBlock: XIVTED_clean_linker_0, # of connection points: 2
#     Edge 86, Type (0, 1), BuildingBlock: XIVTED_clean_linker_0, # of connection points: 2
#     Edge 87, Type (0, 1), BuildingBlock: XIVTED_clean_linker_0, # of connection points: 2
#     Edge 88, Type (0, 1), BuildingBlock: XIVTED_clean_linker_0, # of connection points: 2
#     Edge 89, Type (0, 1), BuildingBlock: XIVTED_clean_linker_0, # of connection points: 2
#     Edge 90, Type (0, 1), BuildingBlock: XIVTED_clean_linker_0, # of connection points: 2
#     Edge 91, Type (0, 1), BuildingBlock: XIVTED_clean_linker_0, # of connection points: 2
#     Edge 92, Type (0, 1), BuildingBlock: XIVTED_clean_linker_0, # of connection points: 2
#     Edge 93, Type (0, 1), BuildingBlock: XIVTED_clean_linker_0, # of connection points: 2
#     Edge 94, Type (0, 1), BuildingBlock: XIVTED_clean_linker_0, # of connection points: 2
#     Edge 95, Type (0, 1), BuildingBlock: XIVTED_clean_linker_0, # of connection points: 2
#     Edge 96, Type (0, 1), BuildingBlock: XIVTED_clean_linker_0, # of connection points: 2
#     Edge 97, Type (0, 1), BuildingBlock: XIVTED_clean_linker_0, # of connection points: 2
#     Edge 98, Type (0, 1), BuildingBlock: XIVTED_clean_linker_0, # of connection points: 2
#     Edge 99, Type (0, 1), BuildingBlock: XIVTED_clean_linker_0, # of connection points: 2
#     Edge 100, Type (0, 1), BuildingBlock: XIVTED_clean_linker_0, # of connection points: 2
#     Edge 101, Type (0, 1), BuildingBlock: XIVTED_clean_linker_0, # of connection points: 2
# Relax obj value: 0.100
# Max RMSD: 0.151
# Mean RMSD: 0.127
data_MOF--net-llk--node1-WUSLED_clean_sbu_0--node2-EZIPEK_clean_sbu_0--edge1-XIVTED_clean_linker_0
_symmetry_space_group_name_H-M    P1
_symmetry_Int_Tables_number       1
_symmetry_cell_setting            triclinic
loop_
_symmetry_equiv_pos_as_xyz
'x, y, z'
_cell_length_a     59.913879
_cell_length_b     59.933014
_cell_length_c     59.880554
_cell_angle_alpha  89.987158
_cell_angle_beta   90.00271
_cell_angle_gamma 90.007875
loop_
_atom_site_label
_atom_site_type_symbol
_atom_site_fract_x
_atom_site_fract_y
_atom_site_fract_z
_atom_type_partial_charge
C0 C 0.01023 0.28615 0.19664 0.0
C1 C 1.00199 0.30672 0.20425 0.0
C2 C 0.00851 0.32335 0.16759 0.0
C3 C 1.00111 0.32515 0.18985 0.0
C4 C 0.01696 0.3027 0.16021 0.0
C5 C 0.01778 0.28431 0.17459 0.0
U6 U 0.00835 0.26008 0.25479 0.0
O7 O 0.99334 0.22847 0.26587 0.0
O8 O 0.02958 0.23348 0.2688 0.0
C9 C 0.0125 0.2203 0.27283 0.0
C10 C 0.01134 0.26657 0.21149 0.0
C11 C 0.01263 0.20806 0.29429 0.0
C12 C 0.0284 0.17772 0.31618 0.0
C13 C 0.02916 0.19185 0.29764 0.0
C14 C 0.99494 0.19634 0.32905 0.0
C15 C 0.011 0.17941 0.33186 0.0
C16 C 0.99569 0.21051 0.31037 0.0
C17 C 0.99886 0.30281 0.30345 0.0
C18 C 0.01546 0.31671 0.33785 0.0
C19 C 0.97669 0.32453 0.32957 0.0
C20 C 0.97842 0.31232 0.30981 0.0
C21 C 0.99543 0.32763 0.34333 0.0
C22 C 0.01719 0.30446 0.31804 0.0
C23 C 1.00159 0.29508 0.28019 0.0
O24 O 0.02877 0.26582 0.22476 0.0
O25 O 0.99263 0.26113 0.22159 0.0
O26 O 0.98525 0.28329 0.27147 0.0
O27 O 0.02154 0.28833 0.27399 0.0
H28 H 0.99617 0.30849 0.22129 0.0
H29 H 0.99431 0.34069 0.19607 0.0
H30 H 0.0232 0.30075 0.14336 0.0
H31 H 0.02438 0.26863 0.16847 0.0
H32 H 0.04128 0.16518 0.31802 0.0
H33 H 0.04237 0.18961 0.28548 0.0
H34 H 0.98128 0.19804 0.34077 0.0
H35 H 0.98268 0.22287 0.30818 0.0
H36 H 0.03023 0.31887 0.34805 0.0
H37 H 0.96093 0.33245 0.33355 0.0
H38 H 0.96406 0.31145 0.29884 0.0
H39 H 0.03324 0.29744 0.31358 0.0
C40 C 0.81716 1.00252 0.28412 0.0
C41 C 0.80885 0.01041 0.30456 0.0
C42 C 0.84507 1.00443 0.3221 0.0
C43 C 0.82267 0.01138 0.32337 0.0
C44 C 0.85324 0.99643 0.30153 0.0
C45 C 0.8394 0.9955 0.28273 0.0
U46 U 0.75931 1.00621 0.25964 0.0
O47 O 0.74728 0.02002 0.22781 0.0
O48 O 0.74266 0.98435 0.23518 0.0
C49 C 0.73889 1.00084 0.22119 0.0
C50 C 0.80252 1.001 0.26446 0.0
C51 C 0.71698 1.00111 0.2098 0.0
C52 C 0.68423 0.02078 0.19573 0.0
C53 C 0.70302 0.01999 0.20972 0.0
C54 C 0.69264 0.98357 0.18245 0.0
C55 C 0.67923 1.00279 0.18145 0.0
C56 C 0.71127 0.98277 0.19642 0.0
C57 C 0.71547 0.02067 0.30621 0.0
C58 C 0.67569 0.01382 0.30975 0.0
C59 C 0.69563 0.03327 0.33909 0.0
C60 C 0.71525 0.03171 0.32677 0.0
C61 C 0.67564 0.02395 0.33102 0.0
C62 C 0.69553 0.0121 0.29745 0.0
C63 C 0.73727 0.01631 0.29604 0.0
O64 O 0.78832 0.98431 0.26486 0.0
O65 O 0.79337 0.01988 0.25805 0.0
O66 O 0.74538 0.0315 0.28245 0.0
O67 O 0.74125 0.9957 0.28969 0.0
H68 H 0.79165 0.01582 0.30596 0.0
H69 H 0.81588 0.01786 0.33883 0.0
H70 H 0.87028 0.9906 0.3 0.0
H71 H 0.84603 0.98916 0.26713 0.0
H72 H 0.67427 0.03584 0.1953 0.0
H73 H 0.70705 0.03444 0.21982 0.0
H74 H 0.68903 0.96928 0.17197 0.0
H75 H 0.72179 0.96806 0.1961 0.0
H76 H 0.66056 0.00675 0.30285 0.0
H77 H 0.69653 0.04078 0.35551 0.0
H78 H 0.73058 0.03824 0.33385 0.0
H79 H 0.69546 1.00349 0.28155 0.0
C80 C 1.00586 0.81734 0.2878 0.0
C81 C 0.99906 0.80965 0.3089 0.0
C82 C 1.00611 0.84639 0.32515 0.0
C83 C 0.99913 0.82404 0.32737 0.0
C84 C 0.0132 0.85383 0.30397 0.0
C85 C 0.01303 0.83948 0.28554 0.0
U86 U 0.00938 0.75932 0.26156 0.0
O87 O 0.02721 0.74884 0.23113 0.0
O88 O 0.99083 0.74477 0.23334 0.0
C89 C 0.00902 0.74116 0.22155 0.0
C90 C 1.00585 0.80255 0.26807 0.0
C91 C 0.01098 0.71964 0.20942 0.0
C92 C 0.02835 0.69884 0.1791 0.0
C93 C 0.02775 0.71741 0.19321 0.0
C94 C 0.9958 0.68372 0.1976 0.0
C95 C 0.01209 0.68198 0.18073 0.0
C96 C 0.99518 0.7024 0.21176 0.0
C97 C 0.01705 0.71088 0.30497 0.0
C98 C 1.00049 0.67646 0.31883 0.0
C99 C 0.039 0.68521 0.32744 0.0
C100 C 0.03734 0.70483 0.31501 0.0
C101 C 0.02033 0.67129 0.33025 0.0
C102 C 0.99883 0.69614 0.30636 0.0
C103 C 0.01421 0.73403 0.29698 0.0
O104 O 0.02489 0.7926 0.26372 0.0
O105 O 0.98853 0.78923 0.26597 0.0
O106 O 0.99464 0.73971 0.2888 0.0
O107 O 0.03112 0.74316 0.28637 0.0
H108 H 0.9936 0.79255 0.31108 0.0
H109 H 0.99335 0.81773 0.3433 0.0
H110 H 0.01913 0.87074 0.30163 0.0
H111 H 0.01855 0.84568 0.26946 0.0
H112 H 0.04138 0.6979 0.1666 0.0
H113 H 0.04005 0.73047 0.19092 0.0
H114 H 0.98295 0.67112 0.19927 0.0
H115 H 0.98194 0.70365 0.224 0.0
H116 H 0.98579 0.66613 0.32076 0.0
H117 H 0.05461 0.68147 0.33576 0.0
H118 H 0.0516 0.71593 0.31438 0.0
H119 H 0.98289 0.70037 0.29895 0.0
C120 C 0.19485 0.01235 0.28799 0.0
C121 C 0.20384 0.01704 0.30915 0.0
C122 C 0.16725 0.01208 0.32636 0.0
C123 C 0.19018 0.01694 0.32814 0.0
C124 C 0.15851 0.00686 0.30514 0.0
C125 C 0.17216 0.00705 0.28617 0.0
U126 U 0.25208 0.01144 0.26071 0.0
O127 O 0.2636 0.99607 0.22937 0.0
O128 O 0.26532 0.03248 0.23354 0.0
C129 C 0.26973 0.01528 0.22065 0.0
C130 C 0.20885 0.01328 0.26774 0.0
C131 C 0.29086 0.01596 0.20783 0.0
C132 C 0.31124 0.03168 0.17637 0.0
C133 C 0.29296 0.03196 0.19087 0.0
C134 C 0.32628 0.99974 0.196 0.0
C135 C 0.32793 0.01531 0.17843 0.0
C136 C 0.30785 1.0 0.21053 0.0
C137 C 0.2998 1.00387 0.30559 0.0
C138 C 0.33288 0.02139 0.32133 0.0
C139 C 0.32395 0.98311 0.33073 0.0
C140 C 0.30531 0.98405 0.3168 0.0
C141 C 0.33743 1.00203 0.33381 0.0
C142 C 0.31416 0.02234 0.3074 0.0
C143 C 0.27715 1.00609 0.29619 0.0
O144 O 0.22154 0.03107 0.26589 0.0
O145 O 0.21932 0.99472 0.26255 0.0
O146 O 0.26924 0.98928 0.28449 0.0
O147 O 0.27094 0.02576 0.28867 0.0
H148 H 0.22138 0.02107 0.31093 0.0
H149 H 0.19749 0.02122 0.34411 0.0
H150 H 0.14106 1.00258 0.30313 0.0
H151 H 0.16495 1.0032 0.27003 0.0
H152 H 0.31214 0.04418 0.16334 0.0
H153 H 0.28006 0.0444 0.18841 0.0
H154 H 0.33879 0.98686 0.19802 0.0
H155 H 0.30662 0.98739 0.22344 0.0
H156 H 0.34293 0.03626 0.32342 0.0
H157 H 0.32727 0.96785 0.33983 0.0
H158 H 0.29442 0.96964 0.31588 0.0
H159 H 0.31028 0.03794 0.29913 0.0
C160 C 1.00149 0.73071 0.81783 0.0
C161 C 0.00969 0.71014 0.81018 0.0
C162 C 1.00357 0.69358 0.84694 0.0
C163 C 0.01074 0.69175 0.8246 0.0
C164 C 0.99517 0.71425 0.85436 0.0
C165 C 0.99418 0.7326 0.83996 0.0
U166 U 1.00304 0.75638 0.75956 0.0
O167 O 0.98149 0.78259 0.74531 0.0
O168 O 0.01767 0.78807 0.7482 0.0
C169 C 0.99841 0.79594 0.74115 0.0
C170 C 1.00015 0.75022 0.80292 0.0
C171 C 0.99814 0.80798 0.71958 0.0
C172 C 0.9817 0.83766 0.69727 0.0
C173 C 0.98112 0.82361 0.71588 0.0
C174 C 0.01595 0.8201 0.68502 0.0
C175 C 0.99939 0.83648 0.68188 0.0
C176 C 0.01539 0.80601 0.70376 0.0
C177 C 0.01298 0.71315 0.71141 0.0
C178 C 0.99646 0.69945 0.6769 0.0
C179 C 0.03479 0.69036 0.68592 0.0
C180 C 0.03318 0.70288 0.7055 0.0
C181 C 0.01617 0.68775 0.67189 0.0
C182 C 0.99484 0.712 0.69653 0.0
C183 C 0.01019 0.7212 0.73454 0.0
O184 O 0.01879 0.75581 0.79277 0.0
O185 O 0.9827 0.7507 0.78965 0.0
O186 O 0.99017 0.72779 0.74068 0.0
O187 O 0.02642 0.73329 0.74306 0.0
H188 H 0.01533 0.70834 0.79308 0.0
H189 H 0.0175 0.6762 0.81834 0.0
H190 H 0.98911 0.71621 0.87128 0.0
H191 H 0.98762 0.74828 0.84611 0.0
H192 H 0.96845 0.84977 0.69517 0.0
H193 H 0.96767 0.82548 0.72784 0.0
H194 H 0.02984 0.8188 0.67352 0.0
H195 H 0.02877 0.79412 0.70622 0.0
H196 H 0.98179 0.69768 0.66647 0.0
H197 H 0.05031 0.68183 0.6823 0.0
H198 H 0.04737 0.70338 0.71671 0.0
H199 H 0.97899 0.71965 0.70064 0.0
C200 C 0.19746 0.01512 0.72768 0.0
C201 C 0.20439 0.00653 0.70699 0.0
C202 C 0.16783 0.01458 0.69077 0.0
C203 C 0.18973 1.00623 0.68873 0.0
C204 C 0.16115 0.02344 0.71153 0.0
C205 C 0.1758 0.02368 0.72976 0.0
U206 U 0.25556 0.0079 0.75237 0.0
O207 O 0.27302 0.02677 0.7787 0.0
O208 O 0.26581 0.99114 0.7835 0.0
C209 C 0.27531 0.00917 0.79166 0.0
C210 C 0.21258 0.0151 0.74716 0.0
C211 C 0.29671 1.00622 0.80389 0.0
C212 C 0.31623 0.98867 0.83503 0.0
C213 C 0.29797 0.98971 0.8205 0.0
C214 C 0.33302 0.02017 0.81619 0.0
C215 C 0.33376 1.00421 0.83346 0.0
C216 C 0.31465 0.02124 0.80162 0.0
C217 C 0.29974 0.99391 0.70584 0.0
C218 C 0.33964 1.00014 0.70219 0.0
C219 C 0.31942 0.98055 0.67313 0.0
C220 C 0.29981 0.98257 0.68544 0.0
C221 C 0.33954 0.98971 0.68107 0.0
C222 C 0.31982 1.00232 0.71447 0.0
C223 C 0.27798 0.99888 0.71589 0.0
O224 O 0.22096 0.99558 0.75258 0.0
O225 O 0.22747 0.03119 0.74764 0.0
O226 O 0.27492 0.01925 0.72345 0.0
O227 O 0.26869 0.98334 0.72829 0.0
H228 H 0.22109 0.99986 0.70502 0.0
H229 H 0.19544 0.99906 0.67316 0.0
H230 H 0.14461 0.03038 0.71368 0.0
H231 H 0.17018 0.03051 0.74553 0.0
H232 H 0.31637 0.97591 0.84784 0.0
H233 H 0.28435 0.97804 0.82283 0.0
H234 H 0.34615 0.03248 0.81453 0.0
H235 H 0.31415 0.03432 0.78916 0.0
H236 H 0.35487 0.00708 0.709 0.0
H237 H 0.31843 0.97282 0.65683 0.0
H238 H 0.2844 0.97618 0.67844 0.0
H239 H 0.32004 0.01117 0.73024 0.0
C240 C 0.99907 0.1963 0.73215 0.0
C241 C 0.99298 0.2046 0.71108 0.0
C242 C 0.9985 0.16781 0.69451 0.0
C243 C 0.99263 0.19048 0.69245 0.0
C244 C 1.0049 0.15974 0.71567 0.0
C245 C 1.00513 0.17384 0.73428 0.0
U246 U 1.00375 0.25405 0.75804 0.0
O247 O 0.98547 0.26896 0.78619 0.0
O248 O 0.02184 0.26455 0.78829 0.0
C249 C 1.00376 0.2725 0.79784 0.0
C250 C 0.99947 0.21089 0.75196 0.0
C251 C 1.00597 0.29416 0.80954 0.0
C252 C 0.02327 0.31511 0.83973 0.0
C253 C 0.02255 0.29634 0.82595 0.0
C254 C 0.9913 0.33053 0.82043 0.0
C255 C 0.00731 0.33218 0.83756 0.0
C256 C 0.99057 0.31165 0.80659 0.0
C257 C 0.0119 0.30209 0.71435 0.0
C258 C 0.99576 0.33655 0.70013 0.0
C259 C 0.03435 0.32759 0.69216 0.0
C260 C 0.03238 0.30801 0.70462 0.0
C261 C 0.01581 0.34159 0.68902 0.0
C262 C 0.99379 0.31693 0.71263 0.0
C263 C 0.00876 0.279 0.72241 0.0
O264 O 0.01872 0.22054 0.7561 0.0
O265 O 0.98238 0.22447 0.75416 0.0
O266 O 0.98915 0.27363 0.7307 0.0
O267 O 0.02559 0.26968 0.73299 0.0
H268 H 0.98839 0.22197 0.70905 0.0
H269 H 0.98741 0.19725 0.67652 0.0
H270 H 0.00996 0.14254 0.71785 0.0
H271 H 0.01011 0.16719 0.75035 0.0
H272 H 0.03607 0.31602 0.85247 0.0
H273 H 0.03455 0.28308 0.82865 0.0
H274 H 0.97871 0.34333 0.81837 0.0
H275 H 0.97752 0.31044 0.79413 0.0
H276 H 0.98114 0.34695 0.69793 0.0
H277 H 0.05011 0.33122 0.68409 0.0
H278 H 0.04658 0.29684 0.70551 0.0
H279 H 0.97771 0.31281 0.71979 0.0
C280 C 0.7287 1.00307 0.82096 0.0
C281 C 0.70752 0.99748 0.81259 0.0
C282 C 0.6908 1.0042 0.84913 0.0
C283 C 0.68877 0.99798 0.82655 0.0
C284 C 0.71204 0.01023 0.85725 0.0
C285 C 0.73078 0.00962 0.8433 0.0
U286 U 0.75502 1.0036 0.76327 0.0
O287 O 0.7862 0.01886 0.75127 0.0
O288 O 0.78188 0.98246 0.7497 0.0
C289 C 0.79463 0.99964 0.74481 0.0
C290 C 0.74868 1.00195 0.80662 0.0
C291 C 0.80641 0.99893 0.7231 0.0
C292 C 0.83551 0.98175 0.70058 0.0
C293 C 0.82174 0.98163 0.7194 0.0
C294 C 0.8183 0.01611 0.68813 0.0
C295 C 0.83437 0.99925 0.68497 0.0
C296 C 0.80448 0.016 0.70708 0.0
C297 C 0.71099 0.01124 0.71527 0.0
C298 C 0.69716 0.99395 0.68121 0.0
C299 C 0.6872 0.03212 0.68993 0.0
C300 C 0.70007 0.03107 0.70931 0.0
C301 C 0.68489 0.01329 0.67617 0.0
C302 C 0.71005 0.99288 0.70067 0.0
C303 C 0.7195 0.00903 0.73829 0.0
O304 O 0.75021 0.9841 0.79397 0.0
O305 O 0.75378 0.02045 0.79599 0.0
O306 O 0.73114 0.0258 0.74635 0.0
O307 O 0.72681 0.98935 0.7447 0.0
H308 H 0.70552 0.99249 0.79531 0.0
H309 H 0.67279 0.99301 0.81973 0.0
H310 H 0.71423 0.01555 0.87439 0.0
H311 H 0.74695 0.01418 0.85002 0.0
H312 H 0.84739 0.96829 0.69848 0.0
H313 H 0.82358 0.96831 0.7315 0.0
H314 H 0.81705 0.02987 0.67647 0.0
H315 H 0.79283 0.0296 0.70951 0.0
H316 H 0.69563 0.97915 0.67094 0.0
H317 H 0.67821 0.04737 0.68627 0.0
H318 H 0.70037 0.04541 0.72033 0.0
H319 H 0.71819 0.9773 0.70486 0.0
C320 C 0.19516 0.28597 0.00923 0.0
C321 C 0.20271 0.3064 1.00057 0.0
C322 C 0.16609 0.32311 1.00694 0.0
C323 C 0.18831 0.32479 0.99941 0.0
C324 C 0.15876 0.3026 0.0158 0.0
C325 C 0.17315 0.28425 0.01689 0.0
U326 U 0.25332 0.25993 0.00796 0.0
O327 O 0.26725 0.23357 0.02955 0.0
O328 O 0.26443 0.22815 0.99335 0.0
C329 C 0.27136 0.22022 0.01263 0.0
C330 C 0.21002 0.26643 0.01063 0.0
C331 C 0.29289 0.20815 0.0129 0.0
C332 C 0.31473 0.17766 0.02841 0.0
C333 C 0.29603 0.19155 0.02909 0.0
C334 C 0.32817 0.1973 0.99574 0.0
C335 C 0.33079 0.17998 0.01143 0.0
C336 C 0.30933 0.21124 0.99641 0.0
C337 C 0.30215 0.30228 0.99829 0.0
C338 C 0.33676 0.31549 0.01499 0.0
C339 C 0.32855 0.32386 0.9763 0.0
C340 C 0.30862 0.31191 0.97793 0.0
C341 C 0.34236 0.32656 0.99507 0.0
C342 C 0.31678 0.3035 0.01662 0.0
C343 C 0.27881 0.29479 1.00093 0.0
O344 O 0.22022 0.2608 0.99203 0.0
O345 O 0.22319 0.26588 0.02816 0.0
O346 O 0.27243 0.28832 0.02093 0.0
O347 O 0.27016 0.28286 0.98466 0.0
H348 H 0.21972 0.30808 0.99465 0.0
H349 H 0.19449 0.34021 0.9923 0.0
H350 H 0.14194 0.30075 0.02215 0.0
H351 H 0.16707 0.26867 0.02381 0.0
H352 H 0.31641 0.16479 0.041 0.0
H353 H 0.28359 0.18884 0.04195 0.0
H354 H 0.34019 0.1995 0.98242 0.0
H355 H 0.30731 0.22393 0.98369 0.0
H356 H 0.347 0.31735 0.02978 0.0
H357 H 0.33261 0.3319 0.96062 0.0
H358 H 0.29762 0.31134 0.96357 0.0
H359 H 0.31226 0.29634 0.0326 0.0
C360 C 0.2844 0.81786 0.00848 0.0
C361 C 0.30584 0.81021 1.00288 0.0
C362 C 0.32138 0.84714 0.01012 0.0
C363 C 0.32414 0.82472 1.00363 0.0
C364 C 0.2999 0.8545 0.01622 0.0
C365 C 0.28161 0.84002 0.01535 0.0
U366 U 0.25863 0.75973 0.00807 0.0
O367 O 0.2272 0.7478 0.0228 0.0
O368 O 0.23201 0.74646 0.98641 0.0
C369 C 0.21899 0.74158 1.0034 0.0
C370 C 0.2648 0.80309 1.00696 0.0
C371 C 0.20707 0.72001 1.00242 0.0
C372 C 0.17694 0.69843 0.98593 0.0
C373 C 0.19077 0.71717 0.98587 0.0
C374 C 0.19607 0.68437 0.01865 0.0
C375 C 0.17901 0.68206 1.00262 0.0
C376 C 0.20996 0.70324 0.0186 0.0
C377 C 0.3018 0.71114 0.01573 0.0
C378 C 0.31703 0.67782 0.99819 0.0
C379 C 0.32259 0.68412 0.03773 0.0
C380 C 0.31026 0.70381 0.03634 0.0
C381 C 0.32687 0.67138 0.01851 0.0
C382 C 0.30468 0.69757 0.99678 0.0
C383 C 0.29388 0.7344 0.01372 0.0
O384 O 0.26374 0.7906 0.98895 0.0
O385 O 0.25962 0.79223 0.0253 0.0
O386 O 0.28212 0.74248 0.03041 0.0
O387 O 0.28696 0.74121 0.99401 0.0
H388 H 0.30836 0.79309 0.99764 0.0
H389 H 0.34035 0.81849 0.99862 0.0
H390 H 0.29717 0.87149 0.02174 0.0
H391 H 0.26524 0.84617 0.01993 0.0
H392 H 0.16427 0.69698 0.97311 0.0
H393 H 0.18823 0.72987 0.97324 0.0
H394 H 0.19806 0.67209 0.03176 0.0
H395 H 0.22242 0.70503 0.03158 0.0
H396 H 0.32014 0.66842 0.98305 0.0
H397 H 0.32967 0.67939 0.05369 0.0
H398 H 0.30847 0.71399 0.05119 0.0
H399 H 0.29853 0.7028 0.9806 0.0
C400 C 0.72865 0.19719 1.00266 0.0
C401 C 0.70807 0.20499 0.01073 0.0
C402 C 0.69116 0.16844 1.00432 0.0
C403 C 0.68951 0.19075 0.01158 0.0
C404 C 0.71183 0.16088 0.99604 0.0
C405 C 0.73035 0.1751 0.99525 0.0
U406 U 0.75503 0.25515 1.0048 0.0
O407 O 0.7814 0.26936 0.98337 0.0
O408 O 0.7868 0.26627 0.01955 0.0
C409 C 0.79474 0.27338 1.00034 0.0
C410 C 0.74837 0.21191 1.00151 0.0
C411 C 0.80697 0.29488 1.00014 0.0
C412 C 0.83676 0.31709 0.98372 0.0
C413 C 0.82265 0.29854 0.98314 0.0
C414 C 0.81923 0.3294 0.01797 0.0
C415 C 0.83563 0.33252 1.00138 0.0
C416 C 0.80507 0.31069 0.01741 0.0
C417 C 0.71207 0.30345 0.01507 0.0
C418 C 0.69788 0.33782 0.99874 0.0
C419 C 0.68974 0.32893 0.03734 0.0
C420 C 0.70227 0.3094 0.0355 0.0
C421 C 0.68662 0.34285 0.01872 0.0
C422 C 0.71045 0.31825 0.9969 0.0
C423 C 0.72001 0.28033 0.0121 0.0
O424 O 0.74909 0.22531 0.98417 0.0
O425 O 0.75405 0.22182 0.02026 0.0
O426 O 0.73202 0.2716 0.02828 0.0
O427 O 0.7266 0.27434 0.99202 0.0
H428 H 0.7064 0.22206 0.01644 0.0
H429 H 0.67397 0.19713 0.01825 0.0
H430 H 0.71369 0.14399 0.98991 0.0
H431 H 0.74603 0.16882 0.98877 0.0
H432 H 0.84888 0.31915 0.97045 0.0
H433 H 0.82448 0.28659 0.96968 0.0
H434 H 0.81794 0.34091 0.03185 0.0
H435 H 0.79316 0.30828 0.0308 0.0
H436 H 0.69571 0.34816 0.98407 0.0
H437 H 0.68157 0.33258 0.05306 0.0
H438 H 0.70314 0.29825 0.04973 0.0
H439 H 0.71772 0.3141 0.98087 0.0
C440 C 0.81518 0.7296 0.01598 0.0
C441 C 0.80761 0.70928 1.00707 0.0
C442 C 0.84402 0.69223 0.01388 0.0
C443 C 0.8219 0.69078 1.006 0.0
C444 C 0.85135 0.71263 0.02299 0.0
C445 C 0.83709 0.73109 0.02399 0.0
U446 U 0.75716 0.75606 0.01466 0.0
O447 O 0.74609 0.78793 1.00016 0.0
O448 O 0.74338 0.78242 0.03635 0.0
C449 C 0.73927 0.79585 0.01949 0.0
C450 C 0.80042 0.74925 0.01737 0.0
C451 C 0.71783 0.80813 0.01992 0.0
C452 C 0.69616 0.83844 0.03606 0.0
C453 C 0.71476 0.82439 0.03647 0.0
C454 C 0.68268 0.81969 1.0029 0.0
C455 C 0.68011 0.83664 0.01901 0.0
C456 C 0.70143 0.80559 1.0033 0.0
C457 C 0.70833 0.7136 1.00485 0.0
C458 C 0.674 0.69966 0.02152 0.0
C459 C 0.68224 0.6918 0.98272 0.0
C460 C 0.70196 0.70407 0.98441 0.0
C461 C 0.66854 0.68867 1.00151 0.0
C462 C 0.69377 0.71197 0.0232 0.0
C463 C 0.7316 0.72126 0.00756 0.0
O464 O 0.79028 0.755 0.99877 0.0
O465 O 0.78724 0.7499 0.03488 0.0
O466 O 0.73792 0.72771 0.02758 0.0
O467 O 0.74025 0.73325 0.99131 0.0
H468 H 0.79068 0.70776 1.00089 0.0
H469 H 0.81571 0.67546 0.99869 0.0
H470 H 0.86808 0.71431 0.02962 0.0
H471 H 0.84317 0.74655 0.03111 0.0
H472 H 0.69453 0.851 0.04896 0.0
H473 H 0.72717 0.8267 0.04944 0.0
H474 H 0.67069 0.81788 0.9895 0.0
H475 H 0.70339 0.7932 0.99029 0.0
H476 H 0.66383 0.69747 0.03631 0.0
H477 H 0.67828 0.68382 0.96699 0.0
H478 H 0.71291 0.70494 0.97003 0.0
H479 H 0.69823 0.71903 0.03924 0.0
C480 C 0.5022 0.78626 0.69902 0.0
C481 C 0.51114 0.8066 0.70648 0.0
C482 C 0.50384 0.82362 0.67016 0.0
C483 C 0.51199 0.82509 0.69218 0.0
C484 C 0.49455 0.80325 0.66297 0.0
C485 C 0.49378 0.78478 0.67725 0.0
U486 U 0.5058 0.76016 0.75689 0.0
O487 O 0.48637 0.73282 0.77193 0.0
O488 O 0.52256 0.72915 0.76729 0.0
C489 C 0.50413 0.72037 0.77536 0.0
C490 C 0.50167 0.76649 0.71367 0.0
C491 C 0.506 0.70843 0.79699 0.0
C492 C 0.52321 0.67828 0.81813 0.0
C493 C 0.52277 0.69227 0.79946 0.0
C494 C 0.4905 0.69681 0.83285 0.0
C495 C 0.50677 0.67997 0.83481 0.0
C496 C 0.49005 0.71085 0.81409 0.0
C497 C 0.51531 0.80357 0.80496 0.0
C498 C 0.49914 0.81726 0.83963 0.0
C499 C 0.53732 0.82651 0.83015 0.0
C500 C 0.53553 0.81397 0.8106 0.0
C501 C 0.51886 0.82907 0.84439 0.0
C502 C 0.49735 0.80466 0.82005 0.0
C503 C 0.51217 0.79552 0.78186 0.0
O504 O 0.52068 0.76139 0.72334 0.0
O505 O 0.48452 0.76523 0.72729 0.0
O506 O 0.49228 0.78807 0.77631 0.0
O507 O 0.52864 0.78421 0.77275 0.0
H508 H 0.51766 0.8081 0.72329 0.0
H509 H 0.51945 0.84039 0.69825 0.0
H510 H 0.48772 0.80157 0.64632 0.0
H511 H 0.48666 0.76928 0.67125 0.0
H512 H 0.53623 0.66579 0.81925 0.0
H513 H 0.53519 0.68991 0.78651 0.0
H514 H 0.47752 0.6985 0.84532 0.0
H515 H 0.47679 0.72305 0.81265 0.0
H516 H 0.48458 0.81897 0.85021 0.0
H517 H 0.55286 0.8351 0.83357 0.0
H518 H 0.54959 0.81352 0.79922 0.0
H519 H 0.48148 0.79693 0.81616 0.0
C520 C 0.31806 0.50236 0.78531 0.0
C521 C 0.30995 0.49751 0.80677 0.0
C522 C 0.347 0.50334 0.82258 0.0
C523 C 0.32429 0.4979 0.82521 0.0
C524 C 0.35488 0.50864 0.80104 0.0
C525 C 0.34055 0.50809 0.7826 0.0
U526 U 0.25984 0.50563 0.76115 0.0
O527 O 0.24744 0.52057 0.72995 0.0
O528 O 0.24399 0.48445 0.73562 0.0
C529 C 0.23981 0.50142 0.72235 0.0
C530 C 0.30318 0.50149 0.76574 0.0
C531 C 0.2181 0.50137 0.71059 0.0
C532 C 0.19485 0.48392 0.68227 0.0
C533 C 0.21324 0.48328 0.69655 0.0
C534 C 0.18502 0.52042 0.6965 0.0
C535 C 0.18085 0.50272 0.68161 0.0
C536 C 0.20357 0.51981 0.71081 0.0
C537 C 0.21582 0.51755 0.80848 0.0
C538 C 0.17608 0.51059 0.81245 0.0
C539 C 0.19618 0.53056 0.84133 0.0
C540 C 0.21572 0.52883 0.82891 0.0
C541 C 0.17612 0.52119 0.83349 0.0
C542 C 0.19585 0.50871 0.80004 0.0
C543 C 0.23755 0.51369 0.79791 0.0
O544 O 0.28945 0.4844 0.76518 0.0
O545 O 0.29354 0.52043 0.76037 0.0
O546 O 0.2455 0.52959 0.78506 0.0
O547 O 0.24173 0.49343 0.79058 0.0
H548 H 0.29257 0.49319 0.80925 0.0
H549 H 0.31764 0.49349 0.84143 0.0
H550 H 0.37213 0.51335 0.79841 0.0
H551 H 0.34705 0.51211 0.7662 0.0
H552 H 0.19189 0.46984 0.67131 0.0
H553 H 0.22423 0.46893 0.69598 0.0
H554 H 0.17457 0.53516 0.69635 0.0
H555 H 0.20696 0.53406 0.72141 0.0
H556 H 0.1609 0.50342 0.80576 0.0
H557 H 0.19713 0.5384 0.85759 0.0
H558 H 0.23106 0.53557 0.83576 0.0
H559 H 0.19567 0.49992 0.78424 0.0
C560 C 0.51614 0.31654 0.78629 0.0
C561 C 0.50743 0.30906 0.80673 0.0
C562 C 0.51543 0.34515 0.8239 0.0
C563 C 0.50705 0.32323 0.82536 0.0
C564 C 0.52445 0.35236 0.80339 0.0
C565 C 0.52476 0.33821 0.78481 0.0
U566 U 0.51107 0.25899 0.75971 0.0
O567 O 0.49415 0.24916 0.72856 0.0
O568 O 0.53022 0.24367 0.73232 0.0
C569 C 0.5124 0.24068 0.71981 0.0
C570 C 0.51626 0.30201 0.7664 0.0
C571 C 0.51007 0.21909 0.70789 0.0
C572 C 0.49282 0.19844 0.6774 0.0
C573 C 0.49367 0.21719 0.69126 0.0
C574 C 0.52434 0.18253 0.69699 0.0
C575 C 0.50847 0.1811 0.6797 0.0
C576 C 0.5252 0.20138 0.71091 0.0
C577 C 0.50039 0.21078 0.80258 0.0
C578 C 0.51578 0.17542 0.8153 0.0
C579 C 0.47814 0.1859 0.82561 0.0
C580 C 0.48024 0.20558 0.81333 0.0
C581 C 0.49622 0.1711 0.82754 0.0
C582 C 0.51788 0.19512 0.80296 0.0
C583 C 0.50404 0.23389 0.79487 0.0
O584 O 0.53306 0.288 0.76502 0.0
O585 O 0.49701 0.29286 0.76124 0.0
O586 O 0.48781 0.24347 0.78361 0.0
O587 O 0.52407 0.23909 0.78755 0.0
H588 H 0.50075 0.29232 0.80823 0.0
H589 H 0.49978 0.31714 0.84075 0.0
H590 H 0.53144 0.36894 0.8017 0.0
H591 H 0.53171 0.34423 0.76922 0.0
H592 H 0.48011 0.19775 0.66456 0.0
H593 H 0.48187 0.23061 0.68846 0.0
H594 H 0.53672 0.16955 0.69918 0.0
H595 H 0.53813 0.20235 0.7235 0.0
H596 H 0.53004 0.16439 0.81653 0.0
H597 H 0.46272 0.18283 0.83455 0.0
H598 H 0.46655 0.21738 0.8134 0.0
H599 H 0.53367 0.19865 0.79491 0.0
C600 C 0.69478 0.50692 0.78589 0.0
C601 C 0.70388 0.5136 0.80645 0.0
C602 C 0.66762 0.50914 0.82448 0.0
C603 C 0.69043 0.51471 0.82556 0.0
C604 C 0.65871 0.50226 0.80381 0.0
C605 C 0.67216 0.50118 0.78473 0.0
U606 U 0.75202 0.50833 0.75895 0.0
O607 O 0.76611 0.48692 0.7325 0.0
O608 O 0.76327 0.52312 0.72725 0.0
C609 C 0.7701 0.50389 0.71916 0.0
C610 C 0.7088 0.50553 0.76572 0.0
C611 C 0.79137 0.5036 0.70656 0.0
C612 C 0.81252 0.48783 0.67566 0.0
C613 C 0.79425 0.48716 0.69015 0.0
C614 C 0.82607 0.52101 0.69428 0.0
C615 C 0.82843 0.50502 0.67719 0.0
C616 C 0.80764 0.52037 0.70879 0.0
C617 C 0.79928 0.51794 0.80378 0.0
C618 C 0.83346 0.50124 0.81793 0.0
C619 C 0.82255 0.53821 0.83008 0.0
C620 C 0.80382 0.53721 0.81628 0.0
C621 C 0.83708 0.51989 0.83172 0.0
C622 C 0.81467 0.50023 0.80411 0.0
C623 C 0.77669 0.51522 0.79442 0.0
O624 O 0.71886 0.52413 0.75986 0.0
O625 O 0.72194 0.48803 0.76472 0.0
O626 O 0.77084 0.49524 0.78747 0.0
O627 O 0.76862 0.53155 0.78218 0.0
H628 H 0.72137 0.51802 0.80768 0.0
H629 H 0.69783 0.52028 0.84109 0.0
H630 H 0.64134 0.49745 0.80239 0.0
H631 H 0.66489 0.49579 0.76907 0.0
H632 H 0.81401 0.47501 0.66301 0.0
H633 H 0.78191 0.4741 0.68804 0.0
H634 H 0.83797 0.53452 0.69588 0.0
H635 H 0.80581 0.53332 0.72127 0.0
H636 H 0.84434 0.48684 0.81888 0.0
H637 H 0.82513 0.55296 0.84021 0.0
H638 H 0.79213 0.55101 0.81644 0.0
H639 H 0.81155 0.48509 0.79475 0.0
C640 C 0.50623 0.23021 0.31976 0.0
C641 C 0.49988 0.20909 0.31181 0.0
C642 C 0.50719 0.19264 0.34838 0.0
C643 C 0.50029 0.19051 0.32599 0.0
C644 C 0.51402 0.2138 0.35604 0.0
C645 C 0.51349 0.23237 0.34189 0.0
U646 U 0.50676 0.25658 0.26195 0.0
O647 O 0.52213 0.28777 0.25016 0.0
O648 O 0.4857 0.2836 0.24857 0.0
C649 C 0.50294 0.2963 0.24375 0.0
C650 C 0.50518 0.25009 0.30528 0.0
C651 C 0.50228 0.30818 0.22209 0.0
C652 C 0.48522 0.33743 0.19969 0.0
C653 C 0.48502 0.32355 0.21842 0.0
C654 C 0.5196 0.32025 0.18726 0.0
C655 C 0.50279 0.33637 0.18414 0.0
C656 C 0.51941 0.30632 0.20612 0.0
C657 C 0.51405 0.21322 0.21341 0.0
C658 C 0.49647 0.19855 0.17984 0.0
C659 C 0.53557 0.19122 0.18699 0.0
C660 C 0.53437 0.20378 0.20656 0.0
C661 C 0.51642 0.18771 0.17392 0.0
C662 C 0.49526 0.21113 0.19948 0.0
C663 C 0.51199 0.22129 0.23662 0.0
O664 O 0.52368 0.25511 0.29463 0.0
O665 O 0.4873 0.25168 0.29266 0.0
O666 O 0.49236 0.22856 0.24323 0.0
O667 O 0.52882 0.23276 0.24481 0.0
H668 H 0.49434 0.20702 0.29472 0.0
H669 H 0.49471 0.17458 0.31953 0.0
H670 H 0.51988 0.21605 0.373 0.0
H671 H 0.51865 0.24848 0.34827 0.0
H672 H 0.47179 0.34935 0.19761 0.0
H673 H 0.47166 0.32534 0.23048 0.0
H674 H 0.53341 0.31905 0.17564 0.0
H675 H 0.53298 0.29463 0.20853 0.0
H676 H 0.48141 0.19605 0.17016 0.0
H677 H 0.55125 0.18335 0.18265 0.0
H678 H 0.54908 0.20497 0.21703 0.0
H679 H 0.4793 0.21807 0.20435 0.0
C680 C 0.69653 0.50686 0.23032 0.0
C681 C 0.70409 0.5004 0.20907 0.0
C682 C 0.66748 0.50846 0.19298 0.0
C683 C 0.68971 0.50114 0.1906 0.0
C684 C 0.66023 0.51541 0.21427 0.0
C685 C 0.67458 0.51456 0.2327 0.0
U686 U 0.75442 0.50665 0.25708 0.0
O687 O 0.7661 0.5213 0.2887 0.0
O688 O 0.76759 0.48499 0.28381 0.0
C689 C 0.77223 0.50191 0.29698 0.0
C690 C 0.71111 0.50533 0.25018 0.0
C691 C 0.79356 0.50093 0.30944 0.0
C692 C 0.81411 0.48537 0.34086 0.0
C693 C 0.79551 0.48532 0.32677 0.0
C694 C 0.8298 0.51622 0.32004 0.0
C695 C 0.83131 0.5011 0.33802 0.0
C696 C 0.81105 0.51621 0.30592 0.0
C697 C 0.80295 0.51473 0.21364 0.0
C698 C 0.83652 0.49725 0.19891 0.0
C699 C 0.82868 0.53601 0.1906 0.0
C700 C 0.80935 0.53487 0.20354 0.0
C701 C 0.84196 0.51697 0.1874 0.0
C702 C 0.81712 0.4961 0.21187 0.0
C703 C 0.77987 0.51257 0.22196 0.0
O704 O 0.72369 0.48741 0.25143 0.0
O705 O 0.72179 0.52368 0.25567 0.0
O706 O 0.77181 0.52917 0.23383 0.0
O707 O 0.77324 0.49281 0.22885 0.0
H708 H 0.72103 0.4945 0.20679 0.0
H709 H 0.69588 0.49547 0.17458 0.0
H710 H 0.64343 0.52158 0.21673 0.0
H711 H 0.66846 0.51979 0.24891 0.0
H712 H 0.81486 0.47321 0.35422 0.0
H713 H 0.78226 0.47339 0.32984 0.0
H714 H 0.8427 0.5286 0.31741 0.0
H715 H 0.80995 0.52847 0.29268 0.0
H716 H 0.84639 0.48228 0.19669 0.0
H717 H 0.83266 0.55153 0.18222 0.0
H718 H 0.79867 0.54943 0.20449 0.0
H719 H 0.8126 0.48028 0.21934 0.0
C720 C 0.5026 0.6965 0.22989 0.0
C721 C 0.49548 0.70381 0.20877 0.0
C722 C 0.50332 0.66712 0.19293 0.0
C723 C 0.49578 0.68924 0.19048 0.0
C724 C 0.51091 0.66011 0.21407 0.0
C725 C 0.51049 0.67464 0.23234 0.0
U726 U 0.50306 0.7546 0.25596 0.0
O727 O 0.48208 0.76779 0.28315 0.0
O728 O 0.51854 0.76625 0.28716 0.0
C729 C 0.49937 0.77257 0.29581 0.0
C730 C 0.50159 0.71129 0.24954 0.0
C731 C 0.49876 0.79417 0.30769 0.0
C732 C 0.48274 0.81611 0.33783 0.0
C733 C 0.48237 0.79729 0.3241 0.0
C734 C 0.51548 0.82968 0.31841 0.0
C735 C 0.49959 0.83228 0.33556 0.0
C736 C 0.51512 0.81074 0.30462 0.0
C737 C 0.51001 0.80368 0.21331 0.0
C738 C 0.49232 0.83749 0.19935 0.0
C739 C 0.53162 0.831 0.1925 0.0
C740 C 0.53041 0.81103 0.20443 0.0
C741 C 0.51239 0.84397 0.18906 0.0
C742 C 0.49111 0.81746 0.21131 0.0
C743 C 0.50807 0.78027 0.22084 0.0
O744 O 0.5201 0.72202 0.25437 0.0
O745 O 0.48369 0.72387 0.25107 0.0
O746 O 0.4885 0.77344 0.22808 0.0
O747 O 0.52496 0.77194 0.23212 0.0
H748 H 0.48942 0.72068 0.20647 0.0
H749 H 0.48961 0.69519 0.17456 0.0
H750 H 0.51727 0.64338 0.21653 0.0
H751 H 0.51623 0.66875 0.24846 0.0
H752 H 0.47 0.81778 0.35056 0.0
H753 H 0.4696 0.78476 0.32678 0.0
H754 H 0.52872 0.84179 0.31626 0.0
H755 H 0.52798 0.80874 0.29207 0.0
H756 H 0.4772 0.84707 0.19688 0.0
H757 H 0.54739 0.83575 0.18504 0.0
H758 H 0.54522 0.80071 0.20557 0.0
H759 H 0.47508 0.81222 0.21782 0.0
C760 C 0.22848 0.4966 0.31889 0.0
C761 C 0.2078 0.50427 0.31095 0.0
C762 C 0.19075 0.49727 0.34731 0.0
C763 C 0.18912 0.50463 0.32503 0.0
C764 C 0.2115 0.48928 0.355 0.0
C765 C 0.23015 0.48899 0.34094 0.0
U766 U 0.25454 0.50136 0.26124 0.0
O767 O 0.28518 0.51886 0.25089 0.0
O768 O 0.28219 0.48266 0.24587 0.0
C769 C 0.29432 0.50069 0.24265 0.0
C770 C 0.24837 0.49657 0.30441 0.0
C771 C 0.30634 0.50297 0.22109 0.0
C772 C 0.33622 0.52104 0.20026 0.0
C773 C 0.322 0.52024 0.21874 0.0
C774 C 0.31894 0.48769 0.18547 0.0
C775 C 0.33529 0.50448 0.18365 0.0
C776 C 0.30466 0.48688 0.20405 0.0
C777 C 0.20991 0.51078 0.21405 0.0
C778 C 0.1986 0.49551 0.17813 0.0
C779 C 0.18297 0.53046 0.19106 0.0
C780 C 0.19604 0.52924 0.21028 0.0
C781 C 0.18343 0.51317 0.17524 0.0
C782 C 0.21171 0.49427 0.19745 0.0
C783 C 0.21878 0.50741 0.23676 0.0
O784 O 0.24997 0.47963 0.29058 0.0
O785 O 0.25318 0.51578 0.29498 0.0
O786 O 0.22993 0.52397 0.24587 0.0
O787 O 0.22679 0.48759 0.24174 0.0
H788 H 0.20617 0.51017 0.29392 0.0
H789 H 0.17353 0.5111 0.31857 0.0
H790 H 0.21334 0.48309 0.37189 0.0
H791 H 0.24593 0.48286 0.34732 0.0
H792 H 0.34832 0.53443 0.19922 0.0
H793 H 0.32381 0.53278 0.23166 0.0
H794 H 0.31782 0.4746 0.17306 0.0
H795 H 0.2929 0.47323 0.20541 0.0
H796 H 0.19927 0.48192 0.16623 0.0
H797 H 0.1717 0.54446 0.18907 0.0
H798 H 0.19428 0.54211 0.22287 0.0
H799 H 0.22223 0.47978 0.19994 0.0
C800 C 0.7852 0.69488 0.50043 0.0
C801 C 0.80656 0.70364 0.49633 0.0
C802 C 0.82306 0.66664 0.50042 0.0
C803 C 0.82529 0.68966 0.49625 0.0
C804 C 0.80159 0.65807 0.50483 0.0
C805 C 0.78287 0.67205 0.50479 0.0
U806 U 0.76056 0.7526 0.50663 0.0
O807 O 0.73393 0.76952 0.48781 0.0
O808 O 0.73002 0.76376 0.52386 0.0
C809 C 0.7215 0.77263 0.50566 0.0
C810 C 0.7654 0.7095 0.50064 0.0
C811 C 0.70971 0.79428 0.50803 0.0
C812 C 0.67907 0.81482 0.52514 0.0
C813 C 0.6933 0.79635 0.52465 0.0
C814 C 0.69791 0.8302 0.49288 0.0
C815 C 0.68078 0.83173 0.50893 0.0
C816 C 0.71217 0.81163 0.49237 0.0
C817 C 0.80846 0.79616 0.51833 0.0
C818 C 0.81367 0.83564 0.51089 0.0
C819 C 0.84198 0.81489 0.53099 0.0
C820 C 0.82889 0.79575 0.52961 0.0
C821 C 0.83482 0.835 0.52124 0.0
C822 C 0.8006 0.8163 0.50934 0.0
C823 C 0.79755 0.77468 0.51408 0.0
O824 O 0.76056 0.71838 0.5201 0.0
O825 O 0.76407 0.72385 0.48409 0.0
O826 O 0.78934 0.77136 0.49398 0.0
O827 O 0.78543 0.76605 0.5302 0.0
H828 H 0.80875 0.72129 0.4931 0.0
H829 H 0.84145 0.69685 0.49257 0.0
H830 H 0.79922 0.64055 0.50856 0.0
H831 H 0.76657 0.66502 0.50825 0.0
H832 H 0.66637 0.81562 0.53797 0.0
H833 H 0.69087 0.78318 0.53681 0.0
H834 H 0.69964 0.84285 0.48008 0.0
H835 H 0.72452 0.81049 0.47922 0.0
H836 H 0.80744 0.85092 0.50353 0.0
H837 H 0.85826 0.81349 0.53872 0.0
H838 H 0.83529 0.78027 0.53645 0.0
H839 H 0.78481 0.81689 0.50054 0.0
C840 C 0.78286 0.31968 0.5151 0.0
C841 C 0.80424 0.31125 0.51969 0.0
C842 C 0.82049 0.34814 0.51413 0.0
C843 C 0.82286 0.32535 0.5193 0.0
C844 C 0.79903 0.35635 0.50906 0.0
C845 C 0.78041 0.34226 0.50961 0.0
U846 U 0.75781 0.26186 0.51142 0.0
O847 O 0.72628 0.25002 0.49677 0.0
O848 O 0.7324 0.24605 0.53279 0.0
C849 C 0.71888 0.24219 0.51592 0.0
C850 C 0.76309 0.30507 0.51603 0.0
C851 C 0.7071 0.22051 0.5158 0.0
C852 C 0.67843 0.19729 0.53272 0.0
C853 C 0.69249 0.21584 0.53349 0.0
C854 C 0.69399 0.18696 0.49688 0.0
C855 C 0.67857 0.18292 0.51417 0.0
C856 C 0.70809 0.20567 0.49763 0.0
C857 C 0.80408 0.2172 0.49841 0.0
C858 C 0.80762 0.17747 0.50559 0.0
C859 C 0.83618 0.19693 0.48455 0.0
C860 C 0.82413 0.21668 0.48648 0.0
C861 C 0.82834 0.17711 0.4944 0.0
C862 C 0.79558 0.19744 0.50765 0.0
C863 C 0.7941 0.23913 0.5026 0.0
O864 O 0.75734 0.29574 0.49702 0.0
O865 O 0.76253 0.29114 0.53297 0.0
O866 O 0.78716 0.24326 0.52301 0.0
O867 O 0.78118 0.24746 0.48695 0.0
H868 H 0.80653 0.2938 0.52382 0.0
H869 H 0.83902 0.31845 0.52352 0.0
H870 H 0.79659 0.37367 0.50455 0.0
H871 H 0.76408 0.34902 0.50579 0.0
H872 H 0.66706 0.19445 0.5465 0.0
H873 H 0.69136 0.22705 0.54765 0.0
H874 H 0.69447 0.17624 0.48233 0.0
H875 H 0.71916 0.2089 0.48371 0.0
H876 H 0.80092 0.16248 0.51313 0.0
H877 H 0.85221 0.19757 0.47624 0.0
H878 H 0.83102 0.23184 0.47941 0.0
H879 H 0.78007 0.19758 0.51694 0.0
C880 C 0.2266 0.69907 0.50224 0.0
C881 C 0.20595 0.70634 0.51065 0.0
C882 C 0.18935 0.66994 0.50273 0.0
C883 C 0.18752 0.69191 0.51092 0.0
C884 C 0.21004 0.66297 0.49397 0.0
C885 C 0.22844 0.67737 0.49377 0.0
U886 U 0.25297 0.75691 0.50706 0.0
O887 O 0.28369 0.7669 0.5247 0.0
O888 O 0.28095 0.77182 0.48843 0.0
C889 C 0.29309 0.77482 0.5065 0.0
C890 C 0.24636 0.71379 0.50238 0.0
C891 C 0.30578 0.79599 0.50868 0.0
C892 C 0.33742 0.81539 0.52534 0.0
C893 C 0.3228 0.7972 0.52475 0.0
C894 C 0.31786 0.83212 0.49422 0.0
C895 C 0.33549 0.83287 0.50978 0.0
C896 C 0.3032 0.81383 0.49361 0.0
C897 C 0.20895 0.80483 0.516 0.0
C898 C 0.19506 0.83945 0.4999 0.0
C899 C 0.18447 0.829 0.53749 0.0
C900 C 0.19759 0.80983 0.53587 0.0
C901 C 0.18233 0.84353 0.5192 0.0
C902 C 0.2082 0.82022 0.49827 0.0
C903 C 0.21753 0.78196 0.51277 0.0
O904 O 0.24811 0.72756 0.48539 0.0
O905 O 0.25101 0.72326 0.52161 0.0
O906 O 0.22845 0.77272 0.52944 0.0
O907 O 0.22558 0.77674 0.49302 0.0
H908 H 0.20417 0.72309 0.51721 0.0
H909 H 0.17198 0.69784 0.51797 0.0
H910 H 0.21203 0.64637 0.48712 0.0
H911 H 0.24417 0.6715 0.48706 0.0
H912 H 0.35051 0.81555 0.53782 0.0
H913 H 0.32529 0.78365 0.53648 0.0
H914 H 0.31593 0.84522 0.48192 0.0
H915 H 0.29035 0.81335 0.4809 0.0
H916 H 0.19369 0.85028 0.48548 0.0
H917 H 0.17516 0.83191 0.55272 0.0
H918 H 0.19772 0.7982 0.54973 0.0
H919 H 0.21665 0.8168 0.48265 0.0
C920 C 0.31711 0.22718 0.5077 0.0
C921 C 0.30938 0.20582 0.50188 0.0
C922 C 0.34652 0.19013 0.50802 0.0
C923 C 0.32394 0.18751 0.50197 0.0
C924 C 0.35402 0.21157 0.51413 0.0
C925 C 0.33949 0.22986 0.51392 0.0
U926 U 0.25883 0.25203 0.51297 0.0
O927 O 0.24802 0.28255 0.53042 0.0
O928 O 0.24254 0.27919 0.49429 0.0
C929 C 0.23941 0.29142 0.51227 0.0
C930 C 0.30204 0.2467 0.50774 0.0
C931 C 0.21784 0.30339 0.51468 0.0
C932 C 0.19746 0.334 0.53205 0.0
C933 C 0.21594 0.31977 0.53133 0.0
C934 C 0.18173 0.31526 0.49992 0.0
C935 C 0.18036 0.33233 0.51604 0.0
C936 C 0.20033 0.30099 0.49918 0.0
C937 C 0.2134 0.20611 0.52368 0.0
C938 C 0.17346 0.20438 0.51687 0.0
C939 C 0.19213 0.17406 0.53608 0.0
C940 C 0.21229 0.18548 0.53451 0.0
C941 C 0.17248 0.18313 0.52696 0.0
C942 C 0.19384 0.21579 0.51518 0.0
C943 C 0.23561 0.2156 0.51977 0.0
O944 O 0.28797 0.24806 0.49095 0.0
O945 O 0.29281 0.2514 0.52707 0.0
O946 O 0.24454 0.22724 0.53608 0.0
O947 O 0.23961 0.22378 0.49979 0.0
H948 H 0.29209 0.20332 0.49718 0.0
H949 H 0.31755 0.17137 0.49695 0.0
H950 H 0.37112 0.21424 0.51933 0.0
H951 H 0.34574 0.24614 0.51871 0.0
H952 H 0.1968 0.34666 0.54494 0.0
H953 H 0.22922 0.32215 0.54338 0.0
H954 H 0.16894 0.31355 0.48726 0.0
H955 H 0.20133 0.28865 0.48601 0.0
H956 H 0.15862 0.21198 0.5099 0.0
H957 H 0.19228 0.1576 0.54352 0.0
H958 H 0.22729 0.17769 0.54099 0.0
H959 H 0.19442 0.23177 0.50674 0.0
C960 C 1.0048 0.95401 0.56138 0.0
C961 C 1.00633 0.95666 0.4527 0.0
C962 C 0.99959 0.06209 0.56375 0.0
C963 C 1.00331 0.06482 0.45506 0.0
C964 C 0.94677 0.06071 0.50697 0.0
C965 C 0.95192 0.9532 0.50675 0.0
C966 C 0.05478 0.06634 0.51227 0.0
C967 C 0.06057 0.95814 0.50912 0.0
C968 C 0.05895 0.01345 0.45517 0.0
C969 C 0.95133 0.00892 0.45239 0.0
C970 C 0.05642 0.01052 0.56406 0.0
C971 C 0.94826 1.00592 0.56109 0.0
Eu972 Eu 1.00572 0.96699 0.50737 0.0
O973 O 0.98533 0.9891 0.48762 0.0
O974 O 0.02404 0.99011 0.528 0.0
Eu975 Eu 0.9614 0.00753 0.50708 0.0
Eu976 Eu 0.04614 0.01157 0.50934 0.0
O977 O 0.98429 0.9882 0.52698 0.0
O978 O 0.02512 0.99092 0.48865 0.0
Eu979 Eu 1.00263 0.0084 0.55022 0.0
Eu980 Eu 1.00483 0.01047 0.46641 0.0
O981 O 0.98236 0.02803 0.52792 0.0
O982 O 0.98337 0.02894 0.48839 0.0
O983 O 0.02317 0.03091 0.48951 0.0
O984 O 0.02192 0.02976 0.52875 0.0
Eu985 Eu 1.00152 0.05196 0.5091 0.0
O986 O 1.00601 0.94751 0.54005 0.0
O987 O 1.00655 0.94908 0.47373 0.0
O988 O 0.99965 0.0697 0.54274 0.0
O989 O 1.00217 0.07137 0.47638 0.0
O990 O 0.94104 0.03923 0.50746 0.0
O991 O 0.94431 0.97407 0.50578 0.0
O992 O 0.06273 0.0455 0.51221 0.0
O993 O 0.06631 0.97966 0.50933 0.0
O994 O 0.03779 0.01236 0.44837 0.0
O995 O 0.9728 0.01018 0.44666 0.0
O996 O 0.03494 0.00937 0.56994 0.0
O997 O 0.9694 0.00649 0.56815 0.0
O998 O 0.03335 0.07219 0.51075 0.0
O999 O 0.96757 0.06875 0.5071 0.0
O1000 O 0.03971 0.95022 0.50839 0.0
O1001 O 0.97336 0.94707 0.50782 0.0
O1002 O 1.00586 0.97816 0.4468 0.0
O1003 O 1.00433 0.04364 0.44819 0.0
O1004 O 1.00342 0.97516 0.5683 0.0
O1005 O 1.00059 0.04065 0.56971 0.0
O1006 O 0.94181 1.00619 0.53971 0.0
O1007 O 0.94363 0.0076 0.47332 0.0
O1008 O 0.06396 0.01144 0.54304 0.0
O1009 O 0.06568 0.01335 0.4765 0.0
C1010 C 0.50459 0.95794 0.06667 0.0
C1011 C 0.5062 0.06603 0.05954 0.0
C1012 C 0.50708 0.95086 0.95862 0.0
C1013 C 0.5059 0.05892 0.95141 0.0
C1014 C 0.56135 1.00485 0.95672 0.0
C1015 C 0.55825 0.01018 0.06475 0.0
C1016 C 0.45258 1.00622 0.95344 0.0
C1017 C 0.44991 0.01175 0.06203 0.0
C1018 C 0.45221 0.06357 1.00565 0.0
C1019 C 0.56096 0.06142 0.00738 0.0
C1020 C 0.45008 0.95548 0.01052 0.0
C1021 C 0.5587 0.95333 0.01303 0.0
Eu1022 Eu 0.50439 0.01115 0.0514 0.0
O1023 O 0.52504 0.02923 0.02819 0.0
O1024 O 0.48478 0.99016 0.02971 0.0
Eu1025 Eu 0.54744 0.00767 0.01033 0.0
Eu1026 Eu 0.4634 0.00923 0.00803 0.0
O1027 O 0.52424 0.98948 0.03073 0.0
O1028 O 0.48561 0.02999 0.02717 0.0
Eu1029 Eu 0.50461 0.96613 0.01177 0.0
Eu1030 Eu 0.50632 0.05081 1.00636 0.0
O1031 O 0.52525 0.98706 0.99109 0.0
O1032 O 0.5262 0.02676 0.98844 0.0
O1033 O 0.48673 0.02729 0.98752 0.0
O1034 O 0.48586 0.98774 0.98992 0.0
Eu1035 Eu 0.50664 1.00578 0.9667 0.0
O1036 O 0.50406 0.97952 0.07219 0.0
O1037 O 0.50537 0.04529 0.06772 0.0
O1038 O 0.5078 0.9716 0.95046 0.0
O1039 O 0.50658 0.03734 0.94594 0.0
O1040 O 0.56714 1.00551 0.97823 0.0
O1041 O 0.56535 0.00859 0.04367 0.0
O1042 O 0.44548 0.00798 0.97455 0.0
O1043 O 0.44377 0.01074 0.04057 0.0
O1044 O 0.47355 0.07016 1.00543 0.0
O1045 O 0.53994 0.06882 1.00566 0.0
O1046 O 0.4711 0.9481 0.01209 0.0
O1047 O 0.53736 0.94675 0.01296 0.0
O1048 O 0.47398 1.00494 0.94715 0.0
O1049 O 0.54039 1.00508 0.94899 0.0
O1050 O 0.47098 0.01225 0.06934 0.0
O1051 O 0.53689 0.01155 0.07107 0.0
O1052 O 0.50649 0.07151 0.03794 0.0
O1053 O 0.5058 0.06707 0.97218 0.0
O1054 O 0.50478 0.94984 0.04589 0.0
O1055 O 0.50545 0.94542 0.98018 0.0
O1056 O 0.5656 0.97452 0.01231 0.0
O1057 O 0.5669 0.04003 0.00939 0.0
O1058 O 0.44404 0.97684 0.00882 0.0
O1059 O 0.44531 0.04238 1.00641 0.0
C1060 C 1.0062 0.45287 0.05998 0.0
C1061 C 1.00396 0.45564 0.95185 0.0
C1062 C 0.0089 0.56141 0.06289 0.0
C1063 C 1.00657 0.56417 0.95459 0.0
C1064 C 0.95376 0.56447 0.00941 0.0
C1065 C 0.95051 0.45577 0.00737 0.0
C1066 C 0.062 0.56133 1.00723 0.0
C1067 C 0.05879 0.45275 1.00451 0.0
C1068 C 0.05862 0.5093 0.95129 0.0
C1069 C 0.95096 0.51114 0.95435 0.0
C1070 C 0.06227 0.50629 0.05962 0.0
C1071 C 0.95405 0.50927 0.0632 0.0
Eu1072 Eu 1.00505 0.46663 1.00623 0.0
O1073 O 0.98517 0.4899 0.98746 0.0
O1074 O 0.02629 0.48779 0.02602 0.0
Eu1075 Eu 0.96375 0.50978 0.00846 0.0
Eu1076 Eu 0.04882 0.50741 1.00592 0.0
O1077 O 0.98638 0.48898 0.02723 0.0
O1078 O 0.02517 0.48873 0.9863 0.0
Eu1079 Eu 0.00765 0.50744 0.04961 0.0
Eu1080 Eu 1.00515 0.50956 0.96497 0.0
O1081 O 0.98759 0.52825 0.02817 0.0
O1082 O 0.98646 0.52932 0.98851 0.0
O1083 O 0.02617 0.52824 0.98734 0.0
O1084 O 0.02742 0.52722 0.02702 0.0
Eu1085 Eu 0.00753 0.55055 0.00837 0.0
O1086 O 1.0051 0.44697 0.03851 0.0
O1087 O 1.00419 0.44862 0.97301 0.0
O1088 O 0.00868 0.56847 0.04172 0.0
O1089 O 0.00753 0.57013 0.97605 0.0
O1090 O 0.94607 0.5435 0.00936 0.0
O1091 O 0.9441 0.47714 0.00846 0.0
O1092 O 0.06844 0.53997 1.00656 0.0
O1093 O 0.06645 0.47372 1.0046 0.0
O1094 O 0.03723 0.50905 0.94519 0.0
O1095 O 0.97203 0.51052 0.94725 0.0
O1096 O 0.04124 0.50667 0.06704 0.0
O1097 O 0.97544 0.50783 0.06923 0.0
O1098 O 0.04086 0.56837 0.00793 0.0
O1099 O 0.97528 0.57028 0.00914 0.0
O1100 O 0.03728 0.44688 1.00507 0.0
O1101 O 0.97165 0.44876 1.00632 0.0
O1102 O 1.00409 0.47699 0.94538 0.0
O1103 O 1.00546 0.54317 0.94709 0.0
O1104 O 0.00743 0.47385 0.06751 0.0
O1105 O 0.00858 0.54002 0.0693 0.0
O1106 O 0.94645 0.51029 0.04222 0.0
O1107 O 0.94441 0.51117 0.97572 0.0
O1108 O 0.06847 0.50629 0.0382 0.0
O1109 O 0.06628 0.50908 0.97226 0.0
C1110 C 0.50812 0.45101 0.06093 0.0
C1111 C 0.50301 0.55901 0.06399 0.0
C1112 C 0.5105 0.45432 0.95221 0.0
C1113 C 0.50366 0.56227 0.95535 0.0
C1114 C 0.56087 0.51154 0.95441 0.0
C1115 C 0.55944 0.5084 0.06341 0.0
C1116 C 0.45331 0.5046 0.95281 0.0
C1117 C 0.45127 0.5024 0.06138 0.0
C1118 C 0.44842 0.55675 0.00979 0.0
C1119 C 0.55652 0.56453 0.00883 0.0
C1120 C 0.4562 0.44885 1.00465 0.0
C1121 C 0.5643 0.45653 0.00892 0.0
Eu1122 Eu 0.50561 0.50539 0.05005 0.0
O1123 O 0.52455 0.52728 0.02871 0.0
O1124 O 0.48748 0.48474 0.02691 0.0
Eu1125 Eu 0.54873 0.50958 0.00874 0.0
Eu1126 Eu 0.46402 0.50373 1.00731 0.0
O1127 O 0.52722 0.48766 0.02752 0.0
O1128 O 0.48482 0.52453 0.02796 0.0
Eu1129 Eu 0.50934 0.46424 1.00696 0.0
Eu1130 Eu 0.50339 0.549 0.00934 0.0
O1131 O 0.52793 0.48864 0.9881 0.0
O1132 O 0.52502 0.52838 0.98938 0.0
O1133 O 0.4853 0.52586 0.98853 0.0
O1134 O 0.48827 0.48603 0.98761 0.0
Eu1135 Eu 0.50692 0.5079 0.96623 0.0
O1136 O 0.50664 0.4721 0.06796 0.0
O1137 O 0.50383 0.53753 0.06986 0.0
O1138 O 0.50901 0.47579 0.94645 0.0
O1139 O 0.50534 0.54119 0.94833 0.0
O1140 O 0.56786 0.51096 0.97565 0.0
O1141 O 0.56679 0.51022 0.04236 0.0
O1142 O 0.44586 0.50382 0.97385 0.0
O1143 O 0.44475 0.50174 0.04003 0.0
O1144 O 0.46912 0.56502 0.01054 0.0
O1145 O 0.5349 0.56989 0.00946 0.0
O1146 O 0.4778 0.4434 1.00538 0.0
O1147 O 0.54361 0.4482 0.00828 0.0
O1148 O 0.47469 0.50605 0.94678 0.0
O1149 O 0.53962 0.51075 0.94786 0.0
O1150 O 0.47243 0.50379 0.0683 0.0
O1151 O 0.53807 0.50631 0.06941 0.0
O1152 O 0.5028 0.56664 0.043 0.0
O1153 O 0.50242 0.56865 0.97673 0.0
O1154 O 0.50939 0.44461 0.03957 0.0
O1155 O 0.51118 0.44663 0.97319 0.0
O1156 O 0.56963 0.47815 0.00889 0.0
O1157 O 0.56478 0.54382 0.00855 0.0
O1158 O 0.44798 0.46956 1.00519 0.0
O1159 O 0.44309 0.53518 0.00822 0.0
C1160 C 0.00686 0.45592 0.56711 0.0
C1161 C 1.00537 0.4482 0.45896 0.0
C1162 C 0.00807 0.56394 0.55946 0.0
C1163 C 0.00992 0.55618 0.45136 0.0
C1164 C 0.95356 0.56071 0.50432 0.0
C1165 C 0.9517 0.4532 0.5125 0.0
C1166 C 0.06251 0.55896 0.50717 0.0
C1167 C 0.06032 0.45074 0.51264 0.0
C1168 C 0.06239 0.50213 0.4563 0.0
C1169 C 0.95354 0.50403 0.45429 0.0
C1170 C 0.06033 0.50819 0.56441 0.0
C1171 C 0.95205 0.50999 0.56268 0.0
Eu1172 Eu 1.00628 0.46368 0.51211 0.0
O1173 O 0.98731 0.48521 0.49044 0.0
O1174 O 0.02603 0.48718 0.53083 0.0
Eu1175 Eu 0.96514 0.50676 0.50866 0.0
Eu1176 Eu 0.04906 0.50513 0.51008 0.0
O1177 O 0.98672 0.48786 0.53019 0.0
O1178 O 0.02681 0.48435 0.49097 0.0
Eu1179 Eu 1.0064 0.50902 0.55154 0.0
Eu1180 Eu 0.00774 0.50308 0.46686 0.0
O1181 O 0.98731 0.52781 0.52753 0.0
O1182 O 0.9881 0.52485 0.48773 0.0
O1183 O 0.02735 0.52404 0.48854 0.0
O1184 O 0.02681 0.52689 0.52799 0.0
Eu1185 Eu 0.00783 0.54846 0.50633 0.0
O1186 O 0.00698 0.44763 0.5464 0.0
O1187 O 1.00555 0.4428 0.48059 0.0
O1188 O 0.00795 0.56936 0.53784 0.0
O1189 O 0.0096 0.56446 0.47207 0.0
O1190 O 0.94687 0.53953 0.50582 0.0
O1191 O 0.94571 0.47455 0.51072 0.0
O1192 O 0.06849 0.53755 0.50885 0.0
O1193 O 0.06727 0.47192 0.5119 0.0
O1194 O 0.04134 0.50129 0.44883 0.0
O1195 O 0.97485 0.50335 0.44761 0.0
O1196 O 0.03903 0.50964 0.57086 0.0
O1197 O 0.97318 0.51046 0.56983 0.0
O1198 O 0.04147 0.56639 0.5059 0.0
O1199 O 0.97483 0.56759 0.50437 0.0
O1200 O 0.03897 0.44423 0.51275 0.0
O1201 O 0.97272 0.44569 0.5133 0.0
O1202 O 1.00611 0.46891 0.45071 0.0
O1203 O 0.00914 0.53457 0.44598 0.0
O1204 O 1.00624 0.47754 0.57245 0.0
O1205 O 0.00755 0.54322 0.56768 0.0
O1206 O 0.94575 0.50881 0.54129 0.0
O1207 O 0.94678 0.505 0.47554 0.0
O1208 O 0.06728 0.50631 0.54329 0.0
O1209 O 0.06838 0.50362 0.47772 0.0
C1210 C 0.51003 0.95095 0.56009 0.0
C1211 C 0.50692 0.95357 0.45191 0.0
C1212 C 0.51037 0.05958 0.56291 0.0
C1213 C 0.50771 0.06221 0.45473 0.0
C1214 C 0.4552 0.06131 0.50946 0.0
C1215 C 0.45429 0.9526 0.50752 0.0
C1216 C 0.56351 0.06043 0.50728 0.0
C1217 C 0.56293 0.95206 0.50475 0.0
C1218 C 0.56103 0.00881 0.45117 0.0
C1219 C 0.45344 0.00813 0.45456 0.0
C1220 C 0.5651 1.00553 0.55936 0.0
C1221 C 0.45689 1.00446 0.56334 0.0
Eu1222 Eu 0.5087 0.96451 0.50629 0.0
O1223 O 0.48829 0.98742 0.48761 0.0
O1224 O 0.52937 0.9863 0.52602 0.0
Eu1225 Eu 0.46643 0.0068 0.50863 0.0
Eu1226 Eu 0.55134 1.00634 0.50575 0.0
O1227 O 0.48971 0.98663 0.52725 0.0
O1228 O 0.52823 0.987 0.48614 0.0
Eu1229 Eu 0.51043 1.0056 0.54971 0.0
Eu1230 Eu 0.50768 0.00755 0.46499 0.0
O1231 O 0.48972 0.02596 0.52841 0.0
O1232 O 0.48866 0.02681 0.48866 0.0
O1233 O 0.52826 0.02672 0.48731 0.0
O1234 O 0.52969 0.02571 0.527 0.0
Eu1235 Eu 0.50923 0.04858 0.50846 0.0
O1236 O 0.50936 0.94499 0.53862 0.0
O1237 O 0.50756 0.94655 0.47307 0.0
O1238 O 0.50971 0.06657 0.54174 0.0
O1239 O 0.50841 0.06815 0.4762 0.0
O1240 O 0.44797 0.04016 0.50978 0.0
O1241 O 0.44753 0.97386 0.50805 0.0
O1242 O 0.57027 0.03921 0.50624 0.0
O1243 O 0.56989 0.97326 0.50438 0.0
O1244 O 0.53965 0.00792 0.4451 0.0
O1245 O 0.47449 0.00849 0.44739 0.0
O1246 O 0.54413 1.00557 0.56696 0.0
O1247 O 0.47828 1.00529 0.56943 0.0
O1248 O 0.54226 0.06715 0.50826 0.0
O1249 O 0.47658 0.06757 0.50899 0.0
O1250 O 0.54159 0.94555 0.50548 0.0
O1251 O 0.47558 0.94589 0.50695 0.0
O1252 O 0.50687 0.97492 0.44543 0.0
O1253 O 0.50746 0.04121 0.44715 0.0
O1254 O 0.51055 0.97197 0.56763 0.0
O1255 O 0.51086 0.03822 0.56937 0.0
O1256 O 0.44918 1.00458 0.54238 0.0
O1257 O 0.44695 0.00733 0.47593 0.0
O1258 O 0.57116 1.00553 0.53791 0.0
O1259 O 0.56872 0.00866 0.47211 0.0
H1260 H 0.14077 0.18034 0.49374 0.0
H1261 H 0.09374 0.06543 0.53568 0.0
H1262 H 0.15688 0.15427 0.55907 0.0
H1263 H 0.05269 0.10867 0.49524 0.0
H1264 H 0.12018 0.09613 0.54089 0.0
H1265 H 0.11026 0.15331 0.49108 0.0
C1266 C 0.13771 0.16929 0.5077 0.0
C1267 C 0.15174 0.16943 0.52653 0.0
C1268 C 0.10534 0.09889 0.53094 0.0
C1269 C 0.11737 0.13804 0.52315 0.0
C1270 C 0.09039 0.08136 0.52779 0.0
C1271 C 0.07108 0.08456 0.51497 0.0
C1272 C 0.10121 0.11959 0.52079 0.0
C1273 C 0.06738 0.10559 0.50531 0.0
C1274 C 0.12039 0.15376 0.50606 0.0
C1275 C 0.147 0.1544 0.54394 0.0
N1276 N 0.08246 0.1223 0.50821 0.0
N1277 N 0.13049 0.13908 0.54166 0.0
H1278 H 0.85622 0.16217 0.46111 0.0
H1279 H 0.9054 0.05775 0.52586 0.0
H1280 H 0.83378 0.14588 0.52774 0.0
H1281 H 0.94616 0.10011 0.48423 0.0
H1282 H 0.87443 0.08433 0.52182 0.0
H1283 H 0.88453 0.13303 0.46406 0.0
C1284 C 0.85711 0.15245 0.47633 0.0
C1285 C 0.84281 0.15691 0.4944 0.0
C1286 C 0.89018 0.08773 0.51362 0.0
C1287 C 0.87485 0.12314 0.49751 0.0
C1288 C 0.90779 0.07264 0.51587 0.0
C1289 C 0.92834 0.07689 0.50545 0.0
C1290 C 0.89303 0.1068 0.50036 0.0
C1291 C 0.93064 0.09639 0.49272 0.0
C1292 C 0.87325 0.1358 0.47792 0.0
C1293 C 0.84433 0.1431 0.51334 0.0
N1294 N 0.9131 0.11055 0.49036 0.0
N1295 N 0.86015 0.12687 0.51445 0.0
H1296 H 0.86507 0.84876 0.55303 0.0
H1297 H 0.91141 0.95303 0.48612 0.0
H1298 H 0.84027 0.86557 0.48736 0.0
H1299 H 0.95326 0.91377 0.52966 0.0
H1300 H 0.88176 0.92515 0.49012 0.0
H1301 H 0.89393 0.87722 0.54887 0.0
C1302 C 0.8656 0.85841 0.53775 0.0
C1303 C 0.8503 0.85443 0.52038 0.0
C1304 C 0.89748 0.92262 0.49868 0.0
C1305 C 0.88306 0.88738 0.51584 0.0
C1306 C 0.91437 0.93847 0.49643 0.0
C1307 C 0.9348 0.93558 0.50753 0.0
C1308 C 0.90088 0.90408 0.51254 0.0
C1309 C 0.93782 0.91646 0.52066 0.0
C1310 C 0.88208 0.87466 0.53545 0.0
C1311 C 0.85149 0.86807 0.5013 0.0
N1312 N 0.92091 0.9015 0.52301 0.0
N1313 N 0.86761 0.88392 0.49954 0.0
H1314 H 0.13958 0.84043 0.53449 0.0
H1315 H 0.1053 0.96513 0.50199 0.0
H1316 H 0.18536 0.88669 0.50358 0.0
H1317 H 0.0579 0.91359 0.5192 0.0
H1318 H 0.13546 0.93787 0.50527 0.0
H1319 H 0.11028 0.86853 0.53242 0.0
C1320 C 0.14357 0.85664 0.52755 0.0
C1321 C 0.16503 0.86126 0.51931 0.0
C1322 C 0.11845 0.93255 0.50827 0.0
C1323 C 0.13132 0.89345 0.51651 0.0
C1324 C 0.10119 0.9481 0.50645 0.0
C1325 C 0.07896 0.94167 0.51031 0.0
C1326 C 0.11349 0.91045 0.51421 0.0
C1327 C 0.07472 0.91933 0.51593 0.0
C1328 C 0.12674 0.8726 0.52615 0.0
C1329 C 0.16904 0.8824 0.51003 0.0
N1330 N 0.09182 0.90457 0.51779 0.0
N1331 N 0.15233 0.89774 0.50889 0.0
H1332 H 0.53505 0.14631 0.17532 0.0
H1333 H 0.49764 0.11048 0.0525 0.0
H1334 H 0.4976 0.19002 0.132 0.0
H1335 H 0.51793 0.06385 0.10364 0.0
H1336 H 0.50099 0.14087 0.0796 0.0
H1337 H 0.53303 0.11715 0.14707 0.0
C1338 C 0.52667 0.14989 0.15969 0.0
C1339 C 0.51658 0.17069 0.15595 0.0
C1340 C 0.50464 0.12396 0.08485 0.0
C1341 C 0.51386 0.13715 0.12364 0.0
C1342 C 0.50279 0.10661 0.0694 0.0
C1343 C 0.50748 0.08454 0.07581 0.0
C1344 C 0.51149 0.11926 0.10676 0.0
C1345 C 0.51399 0.08054 0.09796 0.0
C1346 C 0.52532 0.13313 0.14367 0.0
C1347 C 0.50552 0.17419 0.13558 0.0
N1348 N 0.5159 0.09774 0.11259 0.0
N1349 N 0.50447 0.15757 0.12013 0.0
H1350 H 0.88411 0.49886 0.18971 0.0
H1351 H 0.91003 0.52155 0.06065 0.0
H1352 H 0.83976 0.53442 0.14545 0.0
H1353 H 0.96018 0.49929 0.10748 0.0
H1354 H 0.88328 0.52401 0.09127 0.0
H1355 H 0.91173 0.49686 0.15953 0.0
C1356 C 0.88026 0.50634 0.1737 0.0
C1357 C 0.85969 0.51694 0.17013 0.0
C1358 C 0.90015 0.51861 0.09484 0.0
C1359 C 0.89099 0.51455 0.13556 0.0
C1360 C 0.91542 0.51708 0.07733 0.0
C1361 C 0.93743 0.51022 0.08145 0.0
C1362 C 0.90684 0.51308 0.11664 0.0
C1363 C 0.94343 0.50477 0.10349 0.0
C1364 C 0.896 0.50524 0.15652 0.0
C1365 C 0.85554 0.52641 0.14908 0.0
N1366 N 0.92821 0.50627 0.12024 0.0
N1367 N 0.87098 0.52488 0.13258 0.0
H1368 H 0.49298 0.88558 0.19211 0.0
H1369 H 0.51688 0.91412 0.06417 0.0
H1370 H 0.53173 0.84391 0.14795 0.0
H1371 H 0.49511 0.96426 0.1112 0.0
H1372 H 0.51959 0.88737 0.0946 0.0
H1373 H 0.49123 0.91413 0.16268 0.0
C1374 C 0.50124 0.88252 0.17631 0.0
C1375 C 0.51263 0.8624 0.17251 0.0
C1376 C 0.51425 0.90423 0.09831 0.0
C1377 C 0.51047 0.89471 0.13885 0.0
C1378 C 0.51255 0.91952 0.08089 0.0
C1379 C 0.50572 0.94151 0.08509 0.0
C1380 C 0.50889 0.91082 0.12015 0.0
C1381 C 0.50053 0.9475 0.10719 0.0
C1382 C 0.50028 0.8988 0.15959 0.0
C1383 C 0.52307 0.85929 0.15177 0.0
N1384 N 0.50213 0.9322 0.12391 0.0
N1385 N 0.52161 0.87518 0.13571 0.0
H1386 H 0.18889 0.50247 0.13081 0.0
H1387 H 0.05799 0.50978 0.10506 0.0
H1388 H 0.13896 0.5214 0.17915 0.0
H1389 H 0.10765 0.50302 0.05313 0.0
H1390 H 0.08769 0.51113 0.1327 0.0
H1391 H 0.15955 0.49999 0.10225 0.0
C1392 C 0.17179 0.50615 0.13537 0.0
C1393 C 0.16638 0.51238 0.1573 0.0
C1394 C 0.09211 0.50937 0.11526 0.0
C1395 C 0.13284 0.50939 0.12494 0.0
C1396 C 0.07512 0.50852 0.09941 0.0
C1397 C 0.08024 0.50636 0.07663 0.0
C1398 C 0.11448 0.50798 0.1084 0.0
C1399 C 0.10284 0.50478 0.07047 0.0
C1400 C 0.15509 0.50479 0.1191 0.0
C1401 C 0.14397 0.51697 0.16236 0.0
N1402 N 0.11913 0.50563 0.08626 0.0
N1403 N 0.12806 0.51532 0.14634 0.0
H1404 H 0.53611 0.8711 0.8424 0.0
H1405 H 0.49882 0.90628 0.9656 0.0
H1406 H 0.50187 0.82611 0.88708 0.0
H1407 H 0.51964 0.95295 0.9147 0.0
H1408 H 0.50293 0.87587 0.93867 0.0
H1409 H 0.53402 0.9002 0.87066 0.0
C1410 C 0.52846 0.86721 0.85832 0.0
C1411 C 0.51924 0.84607 0.86241 0.0
C1412 C 0.50654 0.89279 0.93344 0.0
C1413 C 0.51637 0.8796 0.89476 0.0
C1414 C 0.50424 0.91018 0.94879 0.0
C1415 C 0.50883 0.93228 0.94242 0.0
C1416 C 0.51371 0.89749 0.91163 0.0
C1417 C 0.51575 0.93625 0.92038 0.0
C1418 C 0.52705 0.88395 0.87437 0.0
C1419 C 0.50906 0.84221 0.88318 0.0
N1420 N 0.51804 0.91904 0.90583 0.0
N1421 N 0.50788 0.85884 0.89861 0.0
H1422 H 0.16205 0.55403 0.86232 0.0
H1423 H 0.05594 0.49074 0.90974 0.0
H1424 H 0.14431 0.48833 0.83846 0.0
H1425 H 0.09854 0.5312 0.95142 0.0
H1426 H 0.08301 0.4945 0.87916 0.0
H1427 H 0.13287 0.55112 0.89061 0.0
C1428 C 0.15202 0.53902 0.86291 0.0
C1429 C 0.15605 0.5212 0.84818 0.0
C1430 C 0.08637 0.50249 0.89503 0.0
C1431 C 0.12223 0.51813 0.88021 0.0
C1432 C 0.07099 0.5004 0.91243 0.0
C1433 C 0.07514 0.5106 0.93312 0.0
C1434 C 0.10565 0.51535 0.89823 0.0
C1435 C 0.09486 0.5229 0.93579 0.0
C1436 C 0.13535 0.53744 0.87905 0.0
C1437 C 0.14186 0.50253 0.84934 0.0
N1438 N 0.10932 0.52512 0.91845 0.0
N1439 N 0.1256 0.50145 0.86516 0.0
H1440 H 0.51171 0.12794 0.82386 0.0
H1441 H 0.49513 0.10321 0.95392 0.0
H1442 H 0.48042 0.17347 0.8701 0.0
H1443 H 0.51307 0.05183 0.9066 0.0
H1444 H 0.49166 0.12961 0.92324 0.0
H1445 H 0.51385 0.09997 0.85374 0.0
C1446 C 0.50514 0.13197 0.84022 0.0
C1447 C 0.49577 0.15302 0.84446 0.0
C1448 C 0.49633 0.11255 0.91954 0.0
C1449 C 0.49836 0.12132 0.87865 0.0
C1450 C 0.49846 0.09746 0.9371 0.0
C1451 C 0.50445 0.07522 0.93289 0.0
C1452 C 0.50036 0.10548 0.89755 0.0
C1453 C 0.50836 0.06879 0.91066 0.0
C1454 C 0.50633 0.11602 0.85723 0.0
C1455 C 0.48745 0.15736 0.86594 0.0
N1456 N 0.50632 0.08387 0.89381 0.0
N1457 N 0.48908 0.14172 0.88223 0.0
H1458 H 0.88032 0.50502 0.8284 0.0
H1459 H 0.90639 0.52149 0.95864 0.0
H1460 H 0.83327 0.53303 0.87521 0.0
H1461 H 0.95604 0.50279 0.90976 0.0
H1462 H 0.8787 0.52393 0.92868 0.0
H1463 H 0.9079 0.50244 0.85845 0.0
C1464 C 0.87584 0.51068 0.84498 0.0
C1465 C 0.85454 0.51938 0.84927 0.0
C1466 C 0.89568 0.5193 0.92456 0.0
C1467 C 0.88589 0.5164 0.88375 0.0
C1468 C 0.91147 0.51781 0.94168 0.0
C1469 C 0.93362 0.51202 0.93676 0.0
C1470 C 0.90206 0.51482 0.90242 0.0
C1471 C 0.93923 0.5075 0.9144 0.0
C1472 C 0.89157 0.50927 0.86212 0.0
C1473 C 0.84962 0.52657 0.87106 0.0
N1474 N 0.92357 0.50898 0.89811 0.0
N1475 N 0.86514 0.52484 0.88749 0.0
H1476 H 0.62622 0.69135 0.01939 0.0
H1477 H 0.60058 0.56252 0.99708 0.0
H1478 H 0.67009 0.64712 0.98322 0.0
H1479 H 0.54951 0.60898 0.01786 0.0
H1480 H 0.62693 0.5933 0.9944 0.0
H1481 H 0.59825 0.66142 0.02101 0.0
C1482 C 0.62989 0.67542 0.01166 0.0
C1483 C 0.65046 0.67176 1.00104 0.0
C1484 C 0.60995 0.5968 0.99952 0.0
C1485 C 0.61878 0.63752 1.00305 0.0
C1486 C 0.5949 0.57917 1.0012 0.0
C1487 C 0.57276 0.58311 0.00774 0.0
C1488 C 0.60296 0.61857 1.00459 0.0
C1489 C 0.56639 0.60515 0.01267 0.0
C1490 C 0.61394 0.6584 0.01255 0.0
C1491 C 0.65434 0.65084 0.99126 0.0
N1492 N 0.58145 0.62206 0.01108 0.0
N1493 N 0.63874 0.6345 0.99264 0.0
H1494 H 0.36726 0.67172 0.03938 0.0
H1495 H 0.40429 0.55016 0.99913 0.0
H1496 H 0.32509 0.63 0.9985 0.0
H1497 H 0.44996 0.60011 0.02398 0.0
H1498 H 0.37378 0.57715 1.00234 0.0
H1499 H 0.3962 0.64323 0.03806 0.0
C1500 C 0.36394 0.65639 0.03039 0.0
C1501 C 0.34366 0.65319 0.01911 0.0
C1502 C 0.3905 0.58215 1.00704 0.0
C1503 C 0.377 0.62061 0.01719 0.0
C1504 C 0.40793 0.56676 1.00528 0.0
C1505 C 0.42978 0.57288 0.01124 0.0
C1506 C 0.39491 0.6037 0.01508 0.0
C1507 C 0.43346 0.59466 0.01903 0.0
C1508 C 0.38059 0.64022 0.02945 0.0
C1509 C 0.34053 0.63318 1.00732 0.0
N1510 N 0.41621 0.60922 0.02079 0.0
N1511 N 0.35704 0.6176 1.00667 0.0
H1512 H 0.38464 0.32293 0.01292 0.0
H1513 H 0.41244 0.4515 0.99204 0.0
H1514 H 0.34169 0.36823 0.97696 0.0
H1515 H 0.46271 0.4041 0.01263 0.0
H1516 H 0.38575 0.4211 0.98855 0.0
H1517 H 0.41319 0.35229 0.01473 0.0
C1518 C 0.3813 0.33897 1.00527 0.0
C1519 C 0.3608 0.3431 0.99467 0.0
C1520 C 0.40263 0.4173 0.99378 0.0
C1521 C 0.39316 0.3767 0.99687 0.0
C1522 C 0.41788 0.43471 0.99591 0.0
C1523 C 0.43988 0.4304 1.00268 0.0
C1524 C 0.40928 0.39537 0.99865 0.0
C1525 C 0.44595 0.40821 1.00728 0.0
C1526 C 0.39758 0.35567 1.00626 0.0
C1527 C 0.35735 0.36415 0.98499 0.0
N1528 N 0.43069 0.39151 1.00528 0.0
N1529 N 0.37327 0.38016 0.98646 0.0
H1530 H 0.64496 0.34079 0.03681 0.0
H1531 H 0.6088 0.46391 1.00077 0.0
H1532 H 0.68908 0.38537 1.00134 0.0
H1533 H 0.56238 0.41241 0.02057 0.0
H1534 H 0.63936 0.43707 1.0043 0.0
H1535 H 0.61569 0.36891 0.03512 0.0
C1536 C 0.64862 0.35666 0.02896 0.0
C1537 C 0.66956 0.36078 0.0193 0.0
C1538 C 0.62247 0.43168 0.00782 0.0
C1539 C 0.63586 0.39295 0.01691 0.0
C1540 C 0.605 0.44698 1.00586 0.0
C1541 C 0.58294 0.4404 0.01034 0.0
C1542 C 0.61787 0.40973 0.01455 0.0
C1543 C 0.57906 0.41823 0.01678 0.0
C1544 C 0.63179 0.37262 0.02778 0.0
C1545 C 0.67313 0.38148 0.0089 0.0
N1546 N 0.59635 0.40374 0.01878 0.0
N1547 N 0.65643 0.39683 0.00797 0.0
H1548 H 0.99925 0.69086 0.62919 0.0
H1549 H 0.01905 0.56153 0.60374 0.0
H1550 H 0.03309 0.64563 0.67392 0.0
H1551 H 1.00026 0.6086 0.55242 0.0
H1552 H 0.02187 0.59217 0.63027 0.0
H1553 H 0.99746 0.661 0.60116 0.0
C1554 C 1.00642 0.67472 0.63304 0.0
C1555 C 0.01645 0.67077 0.65386 0.0
C1556 C 0.01716 0.59583 0.6132 0.0
C1557 C 0.01427 0.6366 0.6221 0.0
C1558 C 0.01541 0.57829 0.59803 0.0
C1559 C 0.00938 0.58245 0.57577 0.0
C1560 C 0.01267 0.61773 0.60619 0.0
C1561 C 1.00505 0.60461 0.56939 0.0
C1562 C 1.00544 0.65773 0.61706 0.0
C1563 C 0.02553 0.64957 0.65798 0.0
N1564 N 0.0067 0.62143 0.58455 0.0
N1565 N 0.02409 0.63328 0.64232 0.0
H1566 H 0.35347 0.95745 0.65144 0.0
H1567 H 0.45931 0.02235 0.60522 0.0
H1568 H 0.37143 0.02257 0.67672 0.0
H1569 H 0.41731 0.98192 0.56292 0.0
H1570 H 0.43233 0.0177 0.63573 0.0
H1571 H 0.38263 0.96094 0.62317 0.0
C1572 C 0.36355 0.97245 0.65117 0.0
C1573 C 0.35959 0.98993 0.66633 0.0
C1574 C 0.42908 0.0099 0.61974 0.0
C1575 C 0.39338 0.99365 0.6343 0.0
C1576 C 0.44441 0.0125 0.60238 0.0
C1577 C 0.44041 1.00259 0.58152 0.0
C1578 C 0.40997 0.99683 0.61634 0.0
C1579 C 0.42087 0.99003 0.57868 0.0
C1580 C 0.38021 0.97435 0.63505 0.0
C1581 C 0.37383 0.00859 0.66555 0.0
N1582 N 0.40644 0.98733 0.59598 0.0
N1583 N 0.39006 0.00999 0.64973 0.0
H1584 H 0.0342 0.33983 0.64746 0.0
H1585 H 0.99832 0.46313 0.61164 0.0
H1586 H 0.99853 0.38414 0.69166 0.0
H1587 H 0.01868 0.41187 0.56519 0.0
H1588 H 1.0017 0.43617 0.64216 0.0
H1589 H 0.03278 0.36816 0.61837 0.0
C1590 C 0.02637 0.35568 0.65118 0.0
C1591 C 0.01655 0.35966 0.67209 0.0
C1592 C 1.00537 0.43087 0.62527 0.0
C1593 C 0.01447 0.39209 0.63858 0.0
C1594 C 1.00348 0.44624 0.60782 0.0
C1595 C 0.00816 0.43976 0.58576 0.0
C1596 C 0.01222 0.40896 0.62064 0.0
C1597 C 0.01473 0.41762 0.58186 0.0
C1598 C 0.02534 0.37177 0.63445 0.0
C1599 C 1.00619 0.38035 0.67574 0.0
N1600 N 0.01664 0.40308 0.59913 0.0
N1601 N 1.0054 0.39583 0.65912 0.0
H1602 H 0.64225 0.02873 0.67855 0.0
H1603 H 0.60983 0.99761 0.55303 0.0
H1604 H 0.68838 0.9968 0.63337 0.0
H1605 H 0.56179 0.01476 0.60402 0.0
H1606 H 0.63952 0.99977 0.58098 0.0
H1607 H 0.61341 0.02682 0.64996 0.0
C1608 C 0.6464 0.02156 0.66247 0.0
C1609 C 0.66781 0.01308 0.65825 0.0
C1610 C 0.62246 1.00298 0.58601 0.0
C1611 C 0.63467 0.0105 0.6255 0.0
C1612 C 0.60548 1.00181 0.57007 0.0
C1613 C 0.58322 1.00602 0.57615 0.0
C1614 C 0.61717 0.00863 0.60813 0.0
C1615 C 0.57864 0.01128 0.59853 0.0
C1616 C 0.62984 0.02027 0.64623 0.0
C1617 C 0.67206 1.00349 0.63729 0.0
N1618 N 0.59547 0.01253 0.61365 0.0
N1619 N 0.65563 1.00251 0.62163 0.0
H1620 H 0.97677 0.36906 0.34232 0.0
H1621 H 0.01342 0.40357 0.46586 0.0
H1622 H 0.01336 0.32461 0.38565 0.0
H1623 H 0.9933 0.45055 0.41498 0.0
H1624 H 0.00983 0.37332 0.43859 0.0
H1625 H 0.97834 0.39777 0.37103 0.0
C1626 C 0.98484 0.3652 0.35804 0.0
C1627 C 0.99486 0.34433 0.36162 0.0
C1628 C 1.00625 0.39027 0.43345 0.0
C1629 C 0.9971 0.37741 0.39449 0.0
C1630 C 0.00824 0.40755 0.44899 0.0
C1631 C 1.00372 0.42969 0.4427 0.0
C1632 C 0.99942 0.39514 0.41156 0.0
C1633 C 0.99714 0.43382 0.42059 0.0
C1634 C 0.98595 0.38171 0.37434 0.0
C1635 C 1.00553 0.34051 0.38216 0.0
N1636 N 0.99511 0.41671 0.40588 0.0
N1637 N 1.00637 0.35691 0.39786 0.0
H1638 H 0.64438 0.99047 0.33498 0.0
H1639 H 0.60063 0.03125 0.45195 0.0
H1640 H 0.66131 0.0555 0.36118 0.0
H1641 H 0.55854 0.99153 0.40904 0.0
H1642 H 0.62672 0.03631 0.42083 0.0
H1643 H 0.61515 0.9873 0.36329 0.0
C1644 C 0.64178 1.00427 0.34635 0.0
C1645 C 0.65565 0.02318 0.34578 0.0
C1646 C 0.61174 0.02651 0.41828 0.0
C1647 C 0.62277 0.01916 0.37868 0.0
C1648 C 0.59701 0.02344 0.43604 0.0
C1649 C 0.57748 0.01093 0.433 0.0
C1650 C 0.60713 0.0166 0.39755 0.0
C1651 C 0.57341 1.00137 0.41199 0.0
C1652 C 0.6252 1.00231 0.36262 0.0
C1653 C 0.65154 0.04032 0.3613 0.0
N1654 N 0.58824 1.00422 0.39506 0.0
N1655 N 0.63574 0.03774 0.37733 0.0
H1656 H 0.03797 0.6729 0.37213 0.0
H1657 H 1.00209 0.54919 0.40665 0.0
H1658 H 1.00306 0.62876 0.32715 0.0
H1659 H 0.02202 0.60014 0.45364 0.0
H1660 H 1.00574 0.57638 0.37634 0.0
H1661 H 0.03627 0.64437 0.40101 0.0
C1662 C 0.03024 0.65704 0.3682 0.0
C1663 C 0.02075 0.65317 0.34713 0.0
C1664 C 0.00927 0.58155 0.39331 0.0
C1665 C 0.01836 0.62049 0.38038 0.0
C1666 C 0.00725 0.56605 0.41063 0.0
C1667 C 0.0117 0.57238 0.43278 0.0
C1668 C 0.01603 0.60344 0.39815 0.0
C1669 C 0.01825 0.59449 0.43688 0.0
C1670 C 0.02906 0.64083 0.3848 0.0
C1671 C 0.01049 0.63247 0.3432 0.0
N1672 N 0.02028 0.60916 0.41974 0.0
N1673 N 0.00956 0.61686 0.3597 0.0
H1674 H 0.33417 0.98563 0.37624 0.0
H1675 H 0.45818 0.02009 0.4108 0.0
H1676 H 0.37985 0.01938 0.33191 0.0
H1677 H 0.40913 0.99649 0.45812 0.0
H1678 H 0.43018 0.01848 0.38143 0.0
H1679 H 0.36206 0.9875 0.40589 0.0
C1680 C 0.35019 0.99322 0.37266 0.0
C1681 C 0.35476 1.00223 0.3515 0.0
C1682 C 0.42549 0.01373 0.39823 0.0
C1683 C 0.38664 1.00474 0.38553 0.0
C1684 C 0.4415 0.01458 0.41507 0.0
C1685 C 0.43605 0.00832 0.43702 0.0
C1686 C 0.40383 1.00641 0.40325 0.0
C1687 C 0.41408 1.00154 0.44148 0.0
C1688 C 0.36601 0.99447 0.38968 0.0
C1689 C 0.3756 0.01231 0.34799 0.0
N1690 N 0.39879 1.00064 0.4247 0.0
N1691 N 0.39079 0.01324 0.36482 0.0
H1692 H 0.01741 0.13434 0.32933 0.0
H1693 H 0.9981 0.11041 0.45964 0.0
H1694 H 1.00011 0.1862 0.3762 0.0
H1695 H 0.00947 0.05935 0.41001 0.0
H1696 H 0.99928 0.13863 0.43001 0.0
H1697 H 0.01519 0.10698 0.3593 0.0
C1698 C 0.01328 0.14003 0.346 0.0
C1699 C 0.00916 0.1627 0.35024 0.0
C1700 C 1.00146 0.12123 0.42566 0.0
C1701 C 1.00632 0.1312 0.38485 0.0
C1702 C 1.00083 0.10508 0.44258 0.0
C1703 C 1.0037 0.08235 0.43743 0.0
C1704 C 1.00509 0.11467 0.40342 0.0
C1705 C 0.00712 0.07656 0.41494 0.0
C1706 C 0.01186 0.12433 0.36312 0.0
C1707 C 1.00335 0.16891 0.37213 0.0
N1708 N 0.00777 0.09257 0.39888 0.0
N1709 N 1.00221 0.15327 0.38864 0.0
H1710 H 0.835 0.995 0.36605 0.0
H1711 H 0.95968 0.01741 0.40833 0.0
H1712 H 0.88911 0.01675 0.32371 0.0
H1713 H 0.90586 1.00076 0.45339 0.0
H1714 H 0.93361 0.01683 0.3774 0.0
H1715 H 0.86008 0.99687 0.39831 0.0
C1716 C 0.85209 1.00029 0.36352 0.0
C1717 C 0.85994 1.00563 0.34203 0.0
C1718 C 0.92741 0.01333 0.39402 0.0
C1719 C 0.88879 0.00758 0.37891 0.0
C1720 C 0.94235 0.0136 0.41181 0.0
C1721 C 0.93506 0.00904 0.43365 0.0
C1722 C 0.90485 0.00839 0.39786 0.0
C1723 C 0.91228 1.0044 0.43689 0.0
C1724 C 0.86643 1.00125 0.38196 0.0
C1725 C 0.88236 0.01209 0.33981 0.0
N1726 N 0.89799 1.00412 0.41916 0.0
N1727 N 0.89593 0.01285 0.35797 0.0
H1728 H 0.01625 0.83761 0.36933 0.0
H1729 H 1.00045 0.96455 0.408 0.0
H1730 H 0.99521 0.89094 0.32566 0.0
H1731 H 0.01197 0.91087 0.45475 0.0
H1732 H 1.00017 0.93765 0.37766 0.0
H1733 H 0.01598 0.86383 0.40071 0.0
C1734 C 0.01144 0.85476 0.3663 0.0
C1735 C 1.00584 0.862 0.34465 0.0
C1736 C 1.00275 0.93169 0.39453 0.0
C1737 C 1.00581 0.89222 0.38059 0.0
C1738 C 1.00299 0.94711 0.41198 0.0
C1739 C 1.00629 0.94009 0.43414 0.0
C1740 C 1.00593 0.90892 0.39905 0.0
C1741 C 0.00935 0.91713 0.438 0.0
C1742 C 0.01141 0.86975 0.38425 0.0
C1743 C 1.00008 0.88457 0.34185 0.0
N1744 N 0.00915 0.90239 0.42065 0.0
N1745 N 1.00027 0.89879 0.35953 0.0
H1746 H 0.17607 0.99878 0.36973 0.0
H1747 H 0.0523 0.02592 0.41193 0.0
H1748 H 0.12433 0.02777 0.32879 0.0
H1749 H 0.10428 1.00425 0.45693 0.0
H1750 H 0.07904 0.02631 0.38157 0.0
H1751 H 0.15082 1.00042 0.40194 0.0
C1752 C 0.15949 1.00559 0.36748 0.0
C1753 C 0.15233 0.01299 0.34635 0.0
C1754 C 0.08474 0.02152 0.39805 0.0
C1755 C 0.12329 0.01471 0.38319 0.0
C1756 C 0.06939 0.02122 0.41549 0.0
C1757 C 0.07594 0.01488 0.43711 0.0
C1758 C 0.10697 0.01531 0.40198 0.0
C1759 C 0.09847 0.00928 0.44057 0.0
C1760 C 0.14506 0.00643 0.3859 0.0
C1761 C 0.13053 0.02142 0.34453 0.0
N1762 N 0.11316 0.00947 0.42314 0.0
N1763 N 0.11686 0.02198 0.36262 0.0
H1764 H 0.01124 0.82989 0.63776 0.0
H1765 H 0.9988 0.95941 0.60644 0.0
H1766 H 0.99154 0.88133 0.68414 0.0
H1767 H 0.01059 0.90846 0.55679 0.0
H1768 H 0.99822 0.9308 0.63518 0.0
H1769 H 0.01329 0.85814 0.60807 0.0
C1770 C 0.00741 0.8471 0.64172 0.0
C1771 C 1.001 0.85318 0.66347 0.0
C1772 C 1.00094 0.92581 0.61802 0.0
C1773 C 1.00333 0.88556 0.62961 0.0
C1774 C 1.00132 0.94222 0.6015 0.0
C1775 C 1.00473 0.93646 0.579 0.0
C1776 C 1.00404 0.90333 0.6122 0.0
C1777 C 0.00785 0.91376 0.57385 0.0
C1778 C 0.00848 0.86319 0.62475 0.0
C1779 C 0.99614 0.87574 0.66758 0.0
N1780 N 0.00744 0.89804 0.59031 0.0
N1781 N 0.99742 0.89102 0.65088 0.0
H1782 H 0.1764 0.02156 0.64597 0.0
H1783 H 0.04882 1.00518 0.60894 0.0
H1784 H 0.1228 1.00568 0.69145 0.0
H1785 H 0.10214 0.01653 0.56173 0.0
H1786 H 0.0759 1.00597 0.63919 0.0
H1787 H 0.14984 0.02015 0.61491 0.0
C1788 C 0.1591 0.01766 0.64947 0.0
C1789 C 0.15192 0.0138 0.67151 0.0
C1790 C 0.08174 0.00827 0.62223 0.0
C1791 C 0.12129 0.01241 0.63589 0.0
C1792 C 0.06622 0.00786 0.60484 0.0
C1793 C 0.07308 0.01081 0.58258 0.0
C1794 C 0.10444 0.01173 0.61753 0.0
C1795 C 0.09598 0.01413 0.57855 0.0
C1796 C 0.14391 0.01698 0.63169 0.0
C1797 C 0.12916 0.00916 0.6749 0.0
N1798 N 0.11081 0.01454 0.59583 0.0
N1799 N 0.11475 0.00861 0.65736 0.0
H1800 H 0.98498 0.12408 0.69324 0.0
H1801 H 1.00547 0.10776 0.56196 0.0
H1802 H 0.01006 0.17664 0.65075 0.0
H1803 H 0.99113 0.05408 0.60793 0.0
H1804 H 1.00452 0.13405 0.59334 0.0
H1805 H 0.98466 0.09899 0.66127 0.0
C1806 C 0.99057 0.13036 0.67723 0.0
C1807 C 0.99774 0.15254 0.67484 0.0
C1808 C 1.00157 0.11651 0.59649 0.0
C1809 C 0.99703 0.1238 0.63784 0.0
C1810 C 1.00203 0.10148 0.57857 0.0
C1811 C 0.99845 0.07859 0.58224 0.0
C1812 C 0.99733 0.10862 0.61819 0.0
C1813 C 0.99415 0.07149 0.60419 0.0
C1814 C 0.99025 0.11601 0.6589 0.0
C1815 C 1.00421 0.15976 0.65343 0.0
N1816 N 0.9937 0.0864 0.62125 0.0
N1817 N 1.00375 0.14543 0.63578 0.0
H1818 H 0.87912 0.99076 0.68682 0.0
H1819 H 0.9026 0.0108 0.55654 0.0
H1820 H 0.82744 0.01068 0.64077 0.0
H1821 H 0.95376 0.99883 0.60595 0.0
H1822 H 0.87443 0.00945 0.58625 0.0
H1823 H 0.90618 0.99218 0.65656 0.0
C1824 C 0.8734 0.99528 0.67027 0.0
C1825 C 0.85087 1.00041 0.66635 0.0
C1826 C 0.89184 0.00714 0.59052 0.0
C1827 C 0.88205 1.00234 0.6314 0.0
C1828 C 0.90795 0.00784 0.57356 0.0
C1829 C 0.93069 1.00494 0.57865 0.0
C1830 C 0.89847 1.00338 0.61273 0.0
C1831 C 0.93653 1.00126 0.60108 0.0
C1832 C 0.88894 0.99624 0.65297 0.0
C1833 C 0.84463 0.00667 0.64459 0.0
N1834 N 0.92058 1.00055 0.61718 0.0
N1835 N 0.86012 0.00737 0.6279 0.0
H1836 H 0.37274 0.00713 0.18546 0.0
H1837 H 0.40461 0.01546 0.05546 0.0
H1838 H 0.32519 0.02061 0.13305 0.0
H1839 H 0.45377 0.0089 0.10782 0.0
H1840 H 0.37528 0.01582 0.08371 0.0
H1841 H 0.40253 1.00591 0.15736 0.0
C1842 C 0.36853 0.00974 0.16806 0.0
C1843 C 0.34639 0.01414 0.16169 0.0
C1844 C 0.39248 0.01432 0.08905 0.0
C1845 C 0.38046 0.01282 0.1294 0.0
C1846 C 0.40931 0.01409 0.07287 0.0
C1847 C 0.43183 0.01218 0.07914 0.0
C1848 C 0.39807 0.01254 0.11178 0.0
C1849 C 0.43671 0.01049 0.10208 0.0
C1850 C 0.38557 0.00916 0.15204 0.0
C1851 C 0.34202 0.01755 0.13886 0.0
N1852 N 0.42 0.01067 0.11752 0.0
N1853 N 0.35883 0.01681 0.12362 0.0
H1854 H 0.99738 0.32328 0.12313 0.0
H1855 H 0.01212 0.45517 0.1057 0.0
H1856 H 0.01669 0.36784 0.17637 0.0
H1857 H 0.99981 0.40822 0.05236 0.0
H1858 H 0.01209 0.42409 0.13233 0.0
H1859 H 0.99653 0.35483 0.09751 0.0
C1860 C 1.00158 0.33968 0.12946 0.0
C1861 C 0.0073 0.34277 0.152 0.0
C1862 C 0.00939 0.42065 0.11478 0.0
C1863 C 1.00603 0.37928 0.1226 0.0
C1864 C 0.00938 0.4384 0.09954 0.0
C1865 C 1.00602 0.43442 0.07664 0.0
C1866 C 1.00593 0.39875 0.10712 0.0
C1867 C 1.00257 0.41225 0.06976 0.0
C1868 C 1.00096 0.35777 0.11479 0.0
C1869 C 0.01202 0.36461 0.15922 0.0
N1870 N 1.00261 0.39536 0.08489 0.0
N1871 N 0.01133 0.382 0.14457 0.0
H1872 H 0.68098 0.99024 0.1377 0.0
H1873 H 0.55352 0.01907 0.10975 0.0
H1874 H 0.63646 0.01937 0.18623 0.0
H1875 H 0.6028 1.00085 0.06036 0.0
H1876 H 0.58266 0.01796 0.13848 0.0
H1877 H 0.65154 0.99248 0.10976 0.0
C1878 C 0.66492 0.99697 0.14254 0.0
C1879 C 0.66115 1.00443 0.16444 0.0
C1880 C 0.58705 0.01428 0.12133 0.0
C1881 C 0.62722 0.00728 0.13227 0.0
C1882 C 0.57041 0.01485 0.1049 0.0
C1883 C 0.57562 0.01003 0.08251 0.0
C1884 C 0.60903 0.00867 0.11539 0.0
C1885 C 0.59788 1.00476 0.0773 0.0
C1886 C 0.64813 0.9984 0.12649 0.0
C1887 C 0.64012 0.01348 0.16954 0.0
N1888 N 0.61365 1.00415 0.09358 0.0
N1889 N 0.62389 0.01454 0.15361 0.0
H1890 H 1.00337 0.63717 0.18752 0.0
H1891 H 0.01422 0.60655 0.05754 0.0
H1892 H 0.01922 0.68457 0.13564 0.0
H1893 H 1.00496 0.55654 0.10867 0.0
H1894 H 0.01486 0.63521 0.08625 0.0
H1895 H 1.00249 0.60743 0.15929 0.0
C1896 C 0.00662 0.64135 0.17023 0.0
C1897 C 0.01154 0.66345 0.16403 0.0
C1898 C 0.01271 0.61798 0.09127 0.0
C1899 C 0.01058 0.62947 0.13164 0.0
C1900 C 0.0123 0.6015 0.0748 0.0
C1901 C 0.00952 0.57894 0.08056 0.0
C1902 C 0.01024 0.61206 0.11383 0.0
C1903 C 0.0072 0.57366 0.10335 0.0
C1904 C 1.00623 0.62434 0.15414 0.0
C1905 C 0.01576 0.66779 0.14135 0.0
N1906 N 0.00757 0.59008 0.11913 0.0
N1907 N 0.01515 0.65103 0.12607 0.0
H1908 H 0.37901 0.01115 0.82751 0.0
H1909 H 0.4071 1.00294 0.95837 0.0
H1910 H 0.33003 0.99812 0.87869 0.0
H1911 H 0.45808 0.0084 0.90767 0.0
H1912 H 0.37876 1.00247 0.9292 0.0
H1913 H 0.40817 0.01167 0.85632 0.0
C1914 C 0.37435 0.00843 0.84477 0.0
C1915 C 0.35197 1.00443 0.85058 0.0
C1916 C 0.39613 1.00375 0.9244 0.0
C1917 C 0.38533 1.005 0.88371 0.0
C1918 C 0.41242 1.00406 0.94112 0.0
C1919 C 0.43517 1.00571 0.93561 0.0
C1920 C 0.40246 1.00521 0.90185 0.0
C1921 C 0.44082 0.00703 0.91282 0.0
C1922 C 0.39104 0.00863 0.86121 0.0
C1923 C 0.34704 1.00088 0.87327 0.0
N1924 N 0.42461 0.00681 0.89682 0.0
N1925 N 0.3635 1.00129 0.88891 0.0
H1926 H 0.01283 0.3295 0.88275 0.0
H1927 H 1.0007 0.46062 0.90606 0.0
H1928 H 0.99985 0.37712 0.83028 0.0
H1929 H 0.0071 0.41037 0.95741 0.0
H1930 H 1.00119 0.43102 0.87779 0.0
H1931 H 0.01186 0.35961 0.90995 0.0
C1932 C 0.00996 0.34635 0.87689 0.0
C1933 C 0.00663 0.35076 0.85411 0.0
C1934 C 1.00243 0.42654 0.89526 0.0
C1935 C 1.00518 0.38555 0.88543 0.0
C1936 C 1.00218 0.44344 0.91144 0.0
C1937 C 1.00385 0.43809 0.93426 0.0
C1938 C 1.00448 0.40414 0.90191 0.0
C1939 C 1.00571 0.41545 0.94012 0.0
C1940 C 0.00924 0.36358 0.89251 0.0
C1941 C 1.00243 0.37293 0.84767 0.0
N1942 N 1.00602 0.39942 0.9241 0.0
N1943 N 1.00191 0.38952 0.86324 0.0
H1944 H 0.64725 0.01617 0.83983 0.0
H1945 H 0.60539 0.99632 0.96514 0.0
H1946 H 0.68901 0.9915 0.89316 0.0
H1947 H 0.56013 0.01118 0.91098 0.0
H1948 H 0.63619 0.9958 0.9388 0.0
H1949 H 0.61525 0.01548 0.86527 0.0
C1950 C 0.64973 0.0105 0.85681 0.0
C1951 C 0.67101 1.00398 0.86431 0.0
C1952 C 0.61955 0.99913 0.93259 0.0
C1953 C 0.63439 1.00343 0.89361 0.0
C1954 C 0.60185 0.9995 0.94768 0.0
C1955 C 0.58 1.00389 0.94036 0.0
C1956 C 0.61559 1.0033 0.90987 0.0
C1957 C 0.57664 0.00769 0.91743 0.0
C1958 C 0.63143 0.01021 0.87136 0.0
C1959 C 0.67313 0.9971 0.88664 0.0
N1960 N 0.59426 0.0074 0.90301 0.0
N1961 N 0.65512 0.99706 0.90044 0.0
H1962 H 0.01513 0.69368 0.89128 0.0
H1963 H 1.00031 0.56184 0.90893 0.0
H1964 H 0.99526 0.6491 0.83827 0.0
H1965 H 0.01324 0.60879 0.96212 0.0
H1966 H 1.00022 0.59289 0.88228 0.0
H1967 H 0.01622 0.66214 0.91692 0.0
C1968 C 0.01086 0.67728 0.88501 0.0
C1969 C 1.00492 0.67418 0.86253 0.0
C1970 C 1.00309 0.59634 0.89979 0.0
C1971 C 1.00645 0.63769 0.89193 0.0
C1972 C 1.00318 0.5786 0.91505 0.0
C1973 C 0.00673 0.58259 0.93791 0.0
C1974 C 0.00667 0.61823 0.90741 0.0
C1975 C 0.01032 0.60475 0.94475 0.0
C1976 C 0.01161 0.6592 0.89968 0.0
C1977 C 1.00011 0.65234 0.85537 0.0
N1978 N 0.0102 0.62163 0.92961 0.0
N1979 N 1.00092 0.63496 0.87002 0.0
H1980 H 0.12155 0.3229 0.99615 0.0
H1981 H 0.10459 0.45501 0.00917 0.0
H1982 H 0.17497 0.36771 0.01428 0.0
H1983 H 0.0509 0.40807 0.9985 0.0
H1984 H 0.13111 0.42389 0.00896 0.0
H1985 H 0.09596 0.35448 0.99499 0.0
C1986 C 0.12792 0.33936 1.00002 0.0
C1987 C 0.15051 0.34251 1.0055 0.0
C1988 C 0.11351 0.42045 1.00665 0.0
C1989 C 0.12116 0.37903 1.00387 0.0
C1990 C 0.09834 0.43823 1.0067 0.0
C1991 C 0.07537 0.43426 1.00392 0.0
C1992 C 0.10573 0.39852 1.00367 0.0
C1993 C 0.06836 0.41208 1.00085 0.0
C1994 C 0.11328 0.35745 0.99922 0.0
C1995 C 0.15779 0.36442 0.0098 0.0
N1996 N 0.08344 0.39514 1.00081 0.0
N1997 N 0.14317 0.38181 0.00895 0.0
H1998 H 0.18636 0.63739 0.01135 0.0
H1999 H 0.05636 0.60657 1.00415 0.0
H2000 H 0.13386 0.68458 0.99717 0.0
H2001 H 0.10781 0.55638 0.00983 0.0
H2002 H 0.08493 0.63527 1.00363 0.0
H2003 H 0.15829 0.6075 0.013 0.0
C2004 C 0.16896 0.64147 0.00864 0.0
C2005 C 0.1625 0.66352 1.00391 0.0
C2006 C 0.09005 0.618 1.00498 0.0
C2007 C 0.13036 0.62948 1.00579 0.0
C2008 C 0.07367 0.60149 1.00533 0.0
C2009 C 0.07957 0.57887 1.00703 0.0
C2010 C 0.11267 0.61204 1.00641 0.0
C2011 C 0.10241 0.57355 0.00845 0.0
C2012 C 0.15297 0.62441 0.00948 0.0
C2013 C 0.13972 0.66782 1.00045 0.0
N2014 N 0.11812 0.59001 0.00813 0.0
N2015 N 0.12455 0.65102 1.00148 0.0
H2016 H 0.37529 0.18751 1.00181 0.0
H2017 H 0.40698 0.05771 0.00904 0.0
H2018 H 0.32855 0.13474 0.01652 0.0
H2019 H 0.45677 0.10938 1.00187 0.0
H2020 H 0.37809 0.08609 0.00955 0.0
H2021 H 0.40526 0.15959 0.99947 0.0
C2022 C 0.37131 0.17009 1.00448 0.0
C2023 C 0.34937 0.16352 0.00958 0.0
C2024 C 0.39531 0.09129 0.00784 0.0
C2025 C 0.38354 0.13153 1.00692 0.0
C2026 C 0.41193 0.07502 0.0075 0.0
C2027 C 0.43451 0.08103 1.00544 0.0
C2028 C 0.4011 0.11393 1.00607 0.0
C2029 C 0.43964 0.10388 1.00355 0.0
C2030 C 0.38844 0.15418 1.00324 0.0
C2031 C 0.34524 0.14069 0.01296 0.0
N2032 N 0.42308 0.11949 1.00392 0.0
N2033 N 0.36209 0.12561 0.01157 0.0
H2034 H 0.88049 0.33031 0.99337 0.0
H2035 H 0.90489 0.46042 0.01304 0.0
H2036 H 0.82911 0.37669 0.01316 0.0
H2037 H 0.95574 0.41074 1.00111 0.0
H2038 H 0.87659 0.43083 0.01224 0.0
H2039 H 0.90783 0.36031 0.99509 0.0
C2040 C 0.87489 0.34687 0.99794 0.0
C2041 C 0.85235 0.35095 1.00291 0.0
C2042 C 0.89396 0.42646 0.00984 0.0
C2043 C 0.88387 0.38563 1.00517 0.0
C2044 C 0.91017 0.44336 0.01025 0.0
C2045 C 0.93286 0.4382 1.00713 0.0
C2046 C 0.90044 0.40422 1.00615 0.0
C2047 C 0.93856 0.4157 1.00365 0.0
C2048 C 0.8906 0.36402 0.99907 0.0
C2049 C 0.8463 0.37273 0.00925 0.0
N2050 N 0.92252 0.39967 1.00321 0.0
N2051 N 0.86193 0.38928 0.01008 0.0
H2052 H 0.63565 0.82946 0.00892 0.0
H2053 H 0.60378 0.95913 0.01835 0.0
H2054 H 0.68227 0.88175 0.02556 0.0
H2055 H 0.55421 0.90752 0.00959 0.0
H2056 H 0.63269 0.9307 0.01933 0.0
H2057 H 0.6057 0.85743 1.00719 0.0
C2058 C 0.63962 0.84679 0.01214 0.0
C2059 C 0.66153 0.85319 0.01758 0.0
C2060 C 0.6155 0.92552 0.01722 0.0
C2061 C 0.62734 0.88527 0.01565 0.0
C2062 C 0.59889 0.94182 0.01661 0.0
C2063 C 0.57637 0.93584 0.01389 0.0
C2064 C 0.60978 0.90291 0.01499 0.0
C2065 C 0.57128 0.913 0.0118 0.0
C2066 C 0.62249 0.86273 0.01127 0.0
C2067 C 0.66561 0.87591 0.02171 0.0
N2068 N 0.58784 0.89739 0.01235 0.0
N2069 N 0.64876 0.89104 0.02064 0.0
H2070 H 0.83471 0.64757 0.02058 0.0
H2071 H 0.96185 0.60926 1.00488 0.0
H2072 H 0.8888 0.6922 1.00401 0.0
H2073 H 0.9079 0.56238 0.01444 0.0
H2074 H 0.93505 0.63967 1.00545 0.0
H2075 H 0.8608 0.61614 0.01891 0.0
C2076 C 0.852 0.6508 0.01645 0.0
C2077 C 0.8595 0.67271 0.01255 0.0
C2078 C 0.929 0.62275 0.0074 0.0
C2079 C 0.88956 0.63671 0.01088 0.0
C2080 C 0.94436 0.60527 1.00714 0.0
C2081 C 0.93724 0.58306 0.00966 0.0
C2082 C 0.9062 0.61821 0.0103 0.0
C2083 C 0.91424 0.57917 0.0124 0.0
C2084 C 0.86693 0.63282 0.01562 0.0
C2085 C 0.88223 0.67576 0.00757 0.0
N2086 N 0.89956 0.59656 0.01271 0.0
N2087 N 0.89638 0.65804 1.00694 0.0
H2088 H 0.32165 0.89113 0.99749 0.0
H2089 H 0.45243 0.91008 0.01823 0.0
H2090 H 0.36516 0.83929 0.02223 0.0
H2091 H 0.40564 0.96266 1.00261 0.0
H2092 H 0.42149 0.8833 0.01804 0.0
H2093 H 0.35298 0.91698 0.99771 0.0
C2094 C 0.33774 0.88518 1.00316 0.0
C2095 C 0.34062 0.86295 0.01003 0.0
C2096 C 0.41806 0.90072 0.01469 0.0
C2097 C 0.37691 0.89258 0.00992 0.0
C2098 C 0.43573 0.91604 0.01475 0.0
C2099 C 0.43174 0.93876 0.01049 0.0
C2100 C 0.39626 0.90814 0.0102 0.0
C2101 C 0.40966 0.94541 1.00611 0.0
C2102 C 0.35572 0.89996 1.00314 0.0
C2103 C 0.36213 0.85618 0.01661 0.0
N2104 N 0.39286 0.93021 1.00605 0.0
N2105 N 0.37943 0.87093 0.01642 0.0
H2106 H 0.69086 0.12405 0.01559 0.0
H2107 H 0.55881 0.10707 1.00062 0.0
H2108 H 0.64667 0.17746 0.99598 0.0
H2109 H 0.60562 0.05384 0.01378 0.0
H2110 H 0.59001 0.1336 1.00035 0.0
H2111 H 0.65914 0.09865 0.01644 0.0
C2112 C 0.67451 0.13046 0.01132 0.0
C2113 C 0.67159 0.15299 1.00552 0.0
C2114 C 0.59339 0.1161 1.00329 0.0
C2115 C 0.63485 0.12382 1.00679 0.0
C2116 C 0.57556 0.10091 1.00346 0.0
C2117 C 0.57946 0.07807 1.00718 0.0
C2118 C 0.61527 0.10844 1.00694 0.0
C2119 C 0.60162 0.07119 0.01076 0.0
C2120 C 0.65632 0.11592 0.01194 0.0
C2121 C 0.64978 0.16031 1.00071 0.0
N2122 N 0.61857 0.08625 0.01056 0.0
N2123 N 0.63228 0.14578 1.0014 0.0
H2124 H 0.49763 0.68679 0.87955 0.0
H2125 H 0.50885 0.55698 0.91018 0.0
H2126 H 0.5137 0.63493 0.83223 0.0
H2127 H 0.49829 0.60788 0.96016 0.0
H2128 H 0.50922 0.58565 0.88153 0.0
H2129 H 0.4963 0.65855 0.90927 0.0
C2130 C 0.50084 0.6695 0.87538 0.0
C2131 C 0.50596 0.6633 0.85333 0.0
C2132 C 0.5068 0.59063 0.89874 0.0
C2133 C 0.50448 0.63092 0.88726 0.0
C2134 C 0.50653 0.57418 0.91522 0.0
C2135 C 0.50352 0.57989 0.93779 0.0
C2136 C 0.50399 0.61312 0.90466 0.0
C2137 C 0.50069 0.60261 0.94305 0.0
C2138 C 0.50017 0.65341 0.89238 0.0
C2139 C 0.51009 0.64063 0.84899 0.0
N2140 N 0.50099 0.61838 0.92662 0.0
N2141 N 0.50924 0.62536 0.86573 0.0
H2142 H 0.39059 0.48934 0.82384 0.0
H2143 H 0.40767 0.51066 0.95481 0.0
H2144 H 0.3388 0.51648 0.866 0.0
H2145 H 0.4612 0.49655 0.9086 0.0
H2146 H 0.38127 0.50997 0.92347 0.0
H2147 H 0.41586 0.48927 0.85568 0.0
C2148 C 0.38453 0.49546 0.83973 0.0
C2149 C 0.36249 0.50309 0.84209 0.0
C2150 C 0.39881 0.50704 0.92027 0.0
C2151 C 0.39141 0.50263 0.87894 0.0
C2152 C 0.41389 0.50735 0.93815 0.0
C2153 C 0.43676 0.50377 0.93439 0.0
C2154 C 0.40665 0.5029 0.89852 0.0
C2155 C 0.4438 0.4996 0.91239 0.0
C2156 C 0.39897 0.49527 0.85799 0.0
C2157 C 0.35554 0.51025 0.86337 0.0
N2158 N 0.42884 0.49927 0.89538 0.0
N2159 N 0.36994 0.50985 0.88095 0.0
H2160 H 0.52223 0.33563 0.86854 0.0
H2161 H 0.50608 0.46253 0.90741 0.0
H2162 H 0.50629 0.39005 0.82407 0.0
H2163 H 0.51641 0.40854 0.9541 0.0
H2164 H 0.50706 0.43591 0.87688 0.0
H2165 H 0.52072 0.36161 0.90011 0.0
C2166 C 0.5183 0.35298 0.86537 0.0
C2167 C 0.51449 0.3606 0.84347 0.0
C2168 C 0.50912 0.42981 0.89378 0.0
C2169 C 0.51299 0.39051 0.87962 0.0
C2170 C 0.50861 0.44507 0.91134 0.0
C2171 C 0.51122 0.43789 0.93354 0.0
C2172 C 0.51231 0.40704 0.89822 0.0
C2173 C 0.51433 0.41493 0.93733 0.0
C2174 C 0.51757 0.36783 0.88343 0.0
C2175 C 0.50977 0.38338 0.8405 0.0
N2176 N 0.51482 0.40034 0.91985 0.0
N2177 N 0.50919 0.39744 0.85829 0.0
H2178 H 0.67749 0.49806 0.86818 0.0
H2179 H 0.55369 0.52387 0.91119 0.0
H2180 H 0.62442 0.524 0.82692 0.0
H2181 H 0.60629 0.50279 0.95576 0.0
H2182 H 0.58013 0.52436 0.88057 0.0
H2183 H 0.65264 0.50016 0.90066 0.0
C2184 C 0.6607 0.50433 0.86593 0.0
C2185 C 0.65304 0.51071 0.84465 0.0
C2186 C 0.58603 0.51968 0.89701 0.0
C2187 C 0.62445 0.51296 0.88179 0.0
C2188 C 0.57086 0.51933 0.91461 0.0
C2189 C 0.57766 0.51309 0.93619 0.0
C2190 C 0.60834 0.51365 0.90075 0.0
C2191 C 0.60027 0.5077 0.93944 0.0
C2192 C 0.64649 0.50543 0.8845 0.0
C2193 C 0.631 0.51847 0.84282 0.0
N2194 N 0.61479 0.50796 0.92187 0.0
N2195 N 0.61756 0.51931 0.86106 0.0
H2196 H 0.49444 0.3811 0.18634 0.0
H2197 H 0.51428 0.40551 0.05623 0.0
H2198 H 0.51437 0.32976 0.13994 0.0
H2199 H 0.50176 0.45621 0.10595 0.0
H2200 H 0.51355 0.3772 0.08581 0.0
H2201 H 0.49602 0.4084 0.1563 0.0
C2202 C 0.499 0.37551 0.16975 0.0
C2203 C 0.50407 0.35301 0.16566 0.0
C2204 C 0.51102 0.39454 0.09018 0.0
C2205 C 0.50619 0.38446 0.13098 0.0
C2206 C 0.51139 0.41075 0.07329 0.0
C2207 C 0.50806 0.43339 0.07848 0.0
C2208 C 0.50717 0.40099 0.11242 0.0
C2209 C 0.50445 0.43906 0.10098 0.0
C2210 C 0.50006 0.39118 0.15259 0.0
C2211 C 0.51039 0.34693 0.14388 0.0
N2212 N 0.50405 0.42303 0.11699 0.0
N2213 N 0.51118 0.36254 0.12732 0.0
H2214 H 0.62291 0.49775 0.19279 0.0
H2215 H 0.60509 0.51519 0.06113 0.0
H2216 H 0.67597 0.51865 0.14871 0.0
H2217 H 0.55203 0.50182 0.1081 0.0
H2218 H 0.63177 0.51518 0.09223 0.0
H2219 H 0.59722 0.49797 0.1613 0.0
C2220 C 0.62919 0.50258 0.17654 0.0
C2221 C 0.65173 0.50836 0.17358 0.0
C2222 C 0.61427 0.51227 0.09566 0.0
C2223 C 0.62221 0.50825 0.13706 0.0
C2224 C 0.599 0.51225 0.0779 0.0
C2225 C 0.57616 0.50853 0.08186 0.0
C2226 C 0.6067 0.50845 0.11756 0.0
C2227 C 0.56937 0.50483 0.10405 0.0
C2228 C 0.61447 0.50255 0.15846 0.0
C2229 C 0.65884 0.51388 0.15186 0.0
N2230 N 0.58451 0.50486 0.12094 0.0
N2231 N 0.64415 0.51371 0.13446 0.0
H2232 H 0.49282 0.62252 0.19335 0.0
H2233 H 0.50743 0.60476 0.06152 0.0
H2234 H 0.51255 0.67541 0.14853 0.0
H2235 H 0.49733 0.55119 0.10874 0.0
H2236 H 0.50717 0.63138 0.09255 0.0
H2237 H 0.49251 0.59665 0.16199 0.0
C2238 C 0.49727 0.62872 0.17696 0.0
C2239 C 0.50288 0.65125 0.17372 0.0
C2240 C 0.50501 0.61379 0.09607 0.0
C2241 C 0.50214 0.62159 0.13744 0.0
C2242 C 0.50509 0.59855 0.07835 0.0
C2243 C 0.50245 0.57561 0.08243 0.0
C2244 C 0.50214 0.60607 0.11805 0.0
C2245 C 0.49954 0.56865 0.10467 0.0
C2246 C 0.49693 0.61391 0.15898 0.0
C2247 C 0.50791 0.65829 0.15187 0.0
N2248 N 0.49945 0.58378 0.12155 0.0
N2249 N 0.50744 0.64352 0.13459 0.0
H2250 H 0.38009 0.51283 0.18674 0.0
H2251 H 0.40581 0.49657 0.05637 0.0
H2252 H 0.32931 0.49488 0.1389 0.0
H2253 H 0.45634 0.50743 0.10667 0.0
H2254 H 0.37733 0.4968 0.08571 0.0
H2255 H 0.40784 0.51214 0.15702 0.0
C2256 C 0.3747 0.50892 0.16992 0.0
C2257 C 0.35222 0.50408 0.16535 0.0
C2258 C 0.39467 0.49908 0.09029 0.0
C2259 C 0.3842 0.50296 0.13105 0.0
C2260 C 0.41099 0.49897 0.07353 0.0
C2261 C 0.43364 0.50198 0.07893 0.0
C2262 C 0.40097 0.50234 0.11266 0.0
C2263 C 0.43919 0.50499 0.10155 0.0
C2264 C 0.39064 0.50836 0.15294 0.0
C2265 C 0.34644 0.49861 0.14325 0.0
N2266 N 0.42302 0.50515 0.11748 0.0
N2267 N 0.3623 0.49828 0.12692 0.0
H2268 H 0.82558 0.49856 0.63202 0.0
H2269 H 0.95613 0.51559 0.60822 0.0
H2270 H 0.8729 0.51542 0.68365 0.0
H2271 H 0.90679 0.5052 0.55666 0.0
H2272 H 0.92634 0.51519 0.63616 0.0
H2273 H 0.85548 0.50038 0.60446 0.0
C2274 C 0.84231 0.50252 0.63761 0.0
C2275 C 0.84671 0.50665 0.66029 0.0
C2276 C 0.92205 0.51307 0.61872 0.0
C2277 C 0.8812 0.50899 0.62856 0.0
C2278 C 0.93907 0.51327 0.6027 0.0
C2279 C 0.93409 0.51042 0.57992 0.0
C2280 C 0.8998 0.50989 0.61202 0.0
C2281 C 0.91157 0.50752 0.57394 0.0
C2282 C 0.85939 0.50371 0.62179 0.0
C2283 C 0.86868 0.5122 0.66637 0.0
N2284 N 0.89536 0.50726 0.58985 0.0
N2285 N 0.88511 0.5131 0.65063 0.0
H2286 H 0.49767 0.86836 0.67934 0.0
H2287 H 0.51473 0.90618 0.55218 0.0
H2288 H 0.51354 0.82335 0.62535 0.0
H2289 H 0.50526 0.95326 0.60597 0.0
H2290 H 0.51373 0.87584 0.57907 0.0
H2291 H 0.50003 0.89971 0.65319 0.0
C2292 C 0.50177 0.86503 0.66205 0.0
C2293 C 0.5053 0.84305 0.65459 0.0
C2294 C 0.51191 0.89279 0.58507 0.0
C2295 C 0.50779 0.87896 0.62448 0.0
C2296 C 0.51244 0.91023 0.56966 0.0
C2297 C 0.51002 0.93247 0.57671 0.0
C2298 C 0.50885 0.89741 0.60784 0.0
C2299 C 0.50723 0.93645 0.5997 0.0
C2300 C 0.503 0.88297 0.6471 0.0
C2301 C 0.51026 0.83986 0.63188 0.0
N2302 N 0.50664 0.91909 0.61442 0.0
N2303 N 0.51132 0.85755 0.6177 0.0
H2304 H 0.18358 0.49154 0.63752 0.0
H2305 H 0.05541 0.51673 0.60939 0.0
H2306 H 0.13751 0.51763 0.68633 0.0
H2307 H 0.10517 0.50003 0.55993 0.0
H2308 H 0.08449 0.51618 0.63811 0.0
H2309 H 0.15434 0.49341 0.60932 0.0
C2310 C 0.16723 0.49754 0.64236 0.0
C2311 C 0.16295 0.50424 0.66442 0.0
C2312 C 0.08901 0.5127 0.62095 0.0
C2313 C 0.12926 0.50665 0.63198 0.0
C2314 C 0.0724 0.51296 0.60451 0.0
C2315 C 0.07775 0.50838 0.5821 0.0
C2316 C 0.11113 0.50769 0.61502 0.0
C2317 C 0.10013 0.5037 0.57689 0.0
C2318 C 0.15055 0.49875 0.62618 0.0
C2319 C 0.14155 0.51235 0.66953 0.0
N2320 N 0.1159 0.5034 0.5932 0.0
N2321 N 0.12545 0.51321 0.65346 0.0
H2322 H 0.51563 0.13611 0.68717 0.0
H2323 H 0.50674 0.10482 0.55724 0.0
H2324 H 0.50274 0.18346 0.63443 0.0
H2325 H 0.51395 0.05488 0.60878 0.0
H2326 H 0.50652 0.13363 0.58572 0.0
H2327 H 0.51643 0.10609 0.65923 0.0
C2328 C 0.513 0.14022 0.66975 0.0
C2329 C 0.50893 0.16239 0.66322 0.0
C2330 C 0.50815 0.11639 0.59088 0.0
C2331 C 0.50982 0.12811 0.63117 0.0
C2332 C 0.50831 0.09981 0.57455 0.0
C2333 C 0.51037 0.07721 0.58048 0.0
C2334 C 0.5101 0.11055 0.61351 0.0
C2335 C 0.5123 0.07202 0.60333 0.0
C2336 C 0.51337 0.12306 0.65383 0.0
C2337 C 0.50552 0.16664 0.64039 0.0
N2338 N 0.51214 0.08855 0.619 0.0
N2339 N 0.50607 0.14974 0.62529 0.0
H2340 H 0.87637 0.50754 0.33027 0.0
H2341 H 0.90819 0.50225 0.46037 0.0
H2342 H 0.82892 0.49744 0.38351 0.0
H2343 H 0.95798 0.50536 0.40829 0.0
H2344 H 0.87914 0.50209 0.43204 0.0
H2345 H 0.90652 0.5086 0.3581 0.0
C2346 C 0.87226 0.50563 0.34777 0.0
C2347 C 0.85003 0.5022 0.35448 0.0
C2348 C 0.8964 0.50278 0.42674 0.0
C2349 C 0.88446 0.50338 0.38643 0.0
C2350 C 0.91311 0.5029 0.44298 0.0
C2351 C 0.93574 0.50378 0.43685 0.0
C2352 C 0.90214 0.50363 0.40401 0.0
C2353 C 0.94083 0.50459 0.4139 0.0
C2354 C 0.8895 0.50612 0.36364 0.0
C2355 C 0.84578 0.4997 0.37743 0.0
N2356 N 0.92418 0.50453 0.39834 0.0
N2357 N 0.86276 0.50036 0.39248 0.0
H2358 H 0.50903 0.87676 0.32789 0.0
H2359 H 0.50214 0.90851 0.45774 0.0
H2360 H 0.49415 0.83016 0.38077 0.0
H2361 H 0.5099 0.95822 0.40604 0.0
H2362 H 0.50087 0.87969 0.42932 0.0
H2363 H 0.51123 0.9068 0.35576 0.0
C2364 C 0.50628 0.87283 0.34533 0.0
C2365 C 0.50119 0.85091 0.35195 0.0
C2366 C 0.50284 0.89689 0.42411 0.0
C2367 C 0.50368 0.88513 0.38387 0.0
C2368 C 0.50362 0.91346 0.44041 0.0
C2369 C 0.50613 0.93598 0.43439 0.0
C2370 C 0.50465 0.90267 0.40146 0.0
C2371 C 0.50788 0.94113 0.41153 0.0
C2372 C 0.50743 0.88999 0.3612 0.0
C2373 C 0.49769 0.84683 0.37478 0.0
N2374 N 0.50714 0.9246 0.39589 0.0
N2375 N 0.49902 0.86371 0.38983 0.0
H2376 H 0.14644 0.48855 0.33796 0.0
H2377 H 0.10698 0.50815 0.46418 0.0
H2378 H 0.19008 0.50848 0.39174 0.0
H2379 H 0.06046 0.49509 0.41061 0.0
H2380 H 0.13742 0.50726 0.43753 0.0
H2381 H 0.11473 0.49017 0.36378 0.0
C2382 C 0.14939 0.49337 0.35513 0.0
C2383 C 0.1711 0.49826 0.36264 0.0
C2384 C 0.12059 0.50459 0.43151 0.0
C2385 C 0.13482 0.49991 0.39235 0.0
C2386 C 0.10306 0.50504 0.4468 0.0
C2387 C 0.08094 0.50162 0.43975 0.0
C2388 C 0.1162 0.50062 0.40884 0.0
C2389 C 0.07719 0.49781 0.41688 0.0
C2390 C 0.13126 0.49418 0.36988 0.0
C2391 C 0.17382 0.50413 0.38519 0.0
N2392 N 0.09464 0.49736 0.40225 0.0
N2393 N 0.15597 0.50475 0.39917 0.0
H2394 H 0.4955 0.19185 0.39267 0.0
H2395 H 0.51306 0.06023 0.40893 0.0
H2396 H 0.51775 0.14866 0.33943 0.0
H2397 H 0.50096 0.10665 0.46277 0.0
H2398 H 0.51258 0.09157 0.38255 0.0
H2399 H 0.49539 0.16003 0.41794 0.0
C2400 C 0.50055 0.17572 0.38628 0.0
C2401 C 0.50683 0.17309 0.36384 0.0
C2402 C 0.51004 0.09482 0.40015 0.0
C2403 C 0.50632 0.13624 0.39281 0.0
C2404 C 0.51026 0.07693 0.41523 0.0
C2405 C 0.50714 0.08072 0.43819 0.0
C2406 C 0.50653 0.11663 0.40806 0.0
C2407 C 0.50361 0.10279 0.44531 0.0
C2408 C 0.50033 0.15747 0.40074 0.0
C2409 C 0.5126 0.15153 0.35651 0.0
N2410 N 0.50338 0.11981 0.43034 0.0
N2411 N 0.51223 0.13396 0.37095 0.0
H2412 H 0.68731 0.87653 0.50035 0.0
H2413 H 0.55709 0.90676 0.50899 0.0
H2414 H 0.63559 0.82867 0.51521 0.0
H2415 H 0.60857 0.95653 0.50057 0.0
H2416 H 0.58573 0.87791 0.50969 0.0
H2417 H 0.65888 0.90596 0.49873 0.0
C2418 C 0.67 0.87218 0.50323 0.0
C2419 C 0.66391 0.85006 0.50808 0.0
C2420 C 0.59079 0.89514 0.50767 0.0
C2421 C 0.63125 0.88369 0.50626 0.0
C2422 C 0.57439 0.9117 0.50721 0.0
C2423 C 0.5803 0.93426 0.50471 0.0
C2424 C 0.6134 0.90102 0.50556 0.0
C2425 C 0.60312 0.93943 0.50256 0.0
C2426 C 0.65378 0.88901 0.5024 0.0
C2427 C 0.6412 0.8455 0.51181 0.0
N2428 N 0.61879 0.92297 0.50303 0.0
N2429 N 0.62577 0.8621 0.51079 0.0
H2430 H 0.63416 0.18508 0.52412 0.0
H2431 H 0.60876 0.05612 0.49995 0.0
H2432 H 0.68439 0.13943 0.50012 0.0
H2433 H 0.55821 0.1052 0.51521 0.0
H2434 H 0.637 0.08565 0.50093 0.0
H2435 H 0.60655 0.15532 0.52207 0.0
C2436 C 0.63944 0.16871 0.51854 0.0
C2437 C 0.66172 0.16472 0.51248 0.0
C2438 C 0.61971 0.08992 0.50401 0.0
C2439 C 0.62995 0.13042 0.50986 0.0
C2440 C 0.60355 0.07305 0.50352 0.0
C2441 C 0.58097 0.07808 0.50754 0.0
C2442 C 0.61333 0.11198 0.50869 0.0
C2443 C 0.57532 0.10041 0.51196 0.0
C2444 C 0.62359 0.15173 0.51722 0.0
C2445 C 0.6674 0.14327 0.50489 0.0
N2446 N 0.59136 0.11643 0.51248 0.0
N2447 N 0.65165 0.12688 0.50391 0.0
H2448 H 0.82562 0.62388 0.48423 0.0
H2449 H 0.95546 0.60623 0.51194 0.0
H2450 H 0.86597 0.67493 0.51522 0.0
H2451 H 0.9102 0.55366 0.49238 0.0
H2452 H 0.92425 0.63284 0.51018 0.0
H2453 H 0.85775 0.59905 0.4843 0.0
C2454 C 0.84118 0.62988 0.49121 0.0
C2455 C 0.8429 0.65156 0.49993 0.0
C2456 C 0.92125 0.61547 0.50626 0.0
C2457 C 0.88015 0.62311 0.49968 0.0
C2458 C 0.93906 0.60029 0.50717 0.0
C2459 C 0.93548 0.5776 0.50246 0.0
C2460 C 0.8998 0.60791 0.50038 0.0
C2461 C 0.91383 0.57088 0.49641 0.0
C2462 C 0.85963 0.61568 0.4911 0.0
C2463 C 0.86382 0.65845 0.50816 0.0
N2464 N 0.89692 0.58592 0.49556 0.0
N2465 N 0.8816 0.64427 0.50788 0.0
H2466 H 0.32919 0.87804 0.50304 0.0
H2467 H 0.45981 0.90713 0.51032 0.0
H2468 H 0.38083 0.82928 0.51494 0.0
H2469 H 0.40855 0.95752 0.505 0.0
H2470 H 0.43096 0.87846 0.51063 0.0
H2471 H 0.3578 0.90734 0.50216 0.0
C2472 C 0.34651 0.87346 0.5054 0.0
C2473 C 0.35252 0.85111 0.50921 0.0
C2474 C 0.42599 0.89578 0.5094 0.0
C2475 C 0.38541 0.88462 0.50826 0.0
C2476 C 0.44251 0.91225 0.50918 0.0
C2477 C 0.43674 0.93493 0.50764 0.0
C2478 C 0.40338 0.90188 0.50798 0.0
C2479 C 0.41391 0.94033 0.50626 0.0
C2480 C 0.36284 0.89022 0.50501 0.0
C2481 C 0.37528 0.84627 0.51234 0.0
N2482 N 0.39811 0.92396 0.50644 0.0
N2483 N 0.3908 0.86282 0.51176 0.0
H2484 H 0.13538 0.32584 0.50797 0.0
H2485 H 0.10561 0.45609 0.51721 0.0
H2486 H 0.18341 0.37748 0.52256 0.0
H2487 H 0.05534 0.405 0.50952 0.0
H2488 H 0.13423 0.42727 0.51793 0.0
H2489 H 0.10587 0.35427 0.50705 0.0
C2490 C 0.13975 0.34312 0.51094 0.0
C2491 C 0.16196 0.34918 0.51551 0.0
C2492 C 0.11695 0.42231 0.51611 0.0
C2493 C 0.12823 0.38184 0.5145 0.0
C2494 C 0.10051 0.43882 0.51565 0.0
C2495 C 0.07788 0.4331 0.5133 0.0
C2496 C 0.11091 0.39974 0.51411 0.0
C2497 C 0.0725 0.4103 0.51143 0.0
C2498 C 0.12287 0.35933 0.51052 0.0
C2499 C 0.16653 0.37187 0.51937 0.0
N2500 N 0.08887 0.3945 0.51183 0.0
N2501 N 0.14989 0.38728 0.51873 0.0
H2502 H 0.39063 0.18966 0.49547 0.0
H2503 H 0.4095 0.05873 0.51584 0.0
H2504 H 0.33852 0.14619 0.51973 0.0
H2505 H 0.46236 0.1059 0.50245 0.0
H2506 H 0.3826 0.08962 0.51523 0.0
H2507 H 0.41645 0.1583 0.49591 0.0
C2508 C 0.38459 0.17358 0.50106 0.0
C2509 C 0.36229 0.17076 0.50775 0.0
C2510 C 0.40011 0.09314 0.51246 0.0
C2511 C 0.39194 0.13439 0.50791 0.0
C2512 C 0.4155 0.0755 0.51277 0.0
C2513 C 0.43834 0.0796 0.50927 0.0
C2514 C 0.40756 0.11503 0.50845 0.0
C2515 C 0.44502 0.10177 0.50538 0.0
C2516 C 0.39937 0.15558 0.50117 0.0
C2517 C 0.35545 0.14923 0.51423 0.0
N2518 N 0.42976 0.11853 0.50504 0.0
N2519 N 0.3702 0.1319 0.51417 0.0
H2520 H 0.82237 0.39155 0.52859 0.0
H2521 H 0.95328 0.40756 0.50624 0.0
H2522 H 0.86375 0.33958 0.50066 0.0
H2523 H 0.90773 0.46132 0.5214 0.0
H2524 H 0.92174 0.38141 0.5071 0.0
H2525 H 0.85448 0.41645 0.52872 0.0
C2526 C 0.83815 0.38537 0.5223 0.0
C2527 C 0.84019 0.36339 0.51443 0.0
C2528 C 0.91873 0.39895 0.51024 0.0
C2529 C 0.87737 0.39188 0.51496 0.0
C2530 C 0.93673 0.41387 0.50984 0.0
C2531 C 0.93321 0.43673 0.51364 0.0
C2532 C 0.89711 0.40692 0.51467 0.0
C2533 C 0.91134 0.44392 0.51816 0.0
C2534 C 0.85657 0.3996 0.52253 0.0
C2535 C 0.86134 0.35628 0.50708 0.0
N2536 N 0.89421 0.4291 0.51856 0.0
N2537 N 0.87909 0.37047 0.50751 0.0
H2538 H 0.14465 0.67874 0.4955 0.0
H2539 H 0.10735 0.5514 0.51237 0.0
H2540 H 0.18974 0.62509 0.51218 0.0
H2541 H 0.06011 0.60467 0.50099 0.0
H2542 H 0.13753 0.57845 0.51152 0.0
H2543 H 0.11346 0.65232 0.49696 0.0
C2544 C 0.14803 0.66147 0.49958 0.0
C2545 C 0.17 0.6542 0.50362 0.0
C2546 C 0.12059 0.58429 0.50923 0.0
C2547 C 0.13427 0.62377 0.50508 0.0
C2548 C 0.10322 0.56879 0.50968 0.0
C2549 C 0.08097 0.57564 0.50674 0.0
C2550 C 0.11589 0.60698 0.50575 0.0
C2551 C 0.07693 0.59853 0.50337 0.0
C2552 C 0.13019 0.64636 0.50029 0.0
C2553 C 0.17325 0.63149 0.50853 0.0
N2554 N 0.09421 0.61335 0.50294 0.0
N2555 N 0.15566 0.61717 0.50909 0.0
loop_
_geom_bond_atom_site_label_1
_geom_bond_atom_site_label_2
_geom_bond_distance
_geom_bond_site_symmetry_2
_ccdc_geom_bond_type
C0 C1 1.264 . S
C0 C5 1.479 . S
C0 C10 1.465 . S
C1 C0 1.264 . S
C1 C3 1.339 . S
C1 H28 0.931 . S
C2 C3 1.395 . S
C2 C4 1.320 . S
C3 C1 1.339 . S
C3 C2 1.395 . S
C3 H29 0.929 . S
C4 C2 1.320 . S
C4 C5 1.405 . S
C4 H30 0.930 1_655 S
C5 C0 1.479 . S
C5 C4 1.405 . S
C5 H31 0.931 . S
U6 O7 2.454 . S
U6 O8 2.458 . S
U6 C9 2.984 . S
U6 C10 2.847 . S
U6 C23 2.882 . S
U6 O24 2.441 . S
U6 O25 2.420 . S
U6 O26 2.455 . S
U6 O27 2.449 . S
O7 U6 2.454 . S
O7 C9 1.353 . S
O8 U6 2.458 . S
O8 C9 1.286 . S
C9 U6 2.984 . S
C9 O7 1.353 . S
C9 O8 1.286 . S
C9 C11 1.363 . S
C10 C0 1.465 . S
C10 U6 2.847 . S
C10 O24 1.249 . S
C10 O25 1.202 . S
C11 C9 1.363 . S
C11 C13 1.408 . S
C11 C16 1.344 . S
C12 C13 1.314 . S
C12 C15 1.458 1_655 S
C12 H32 0.931 . S
C13 C11 1.408 . S
C13 C12 1.314 . S
C13 H33 0.930 . S
C14 C15 1.476 . S
C14 C16 1.284 1_455 S
C14 H34 0.929 . S
C15 C12 1.458 1_455 S
C15 C14 1.476 . S
C16 C11 1.344 . S
C16 C14 1.284 1_655 S
C16 H35 0.929 1_655 S
C17 C20 1.424 . S
C17 C22 1.245 . S
C17 C23 1.428 . S
C18 C21 1.260 . S
C18 C22 1.477 . S
C18 H36 0.932 . S
C19 C20 1.384 . S
C19 C21 1.479 . S
C19 H37 0.929 . S
C20 C17 1.424 . S
C20 C19 1.384 . S
C20 H38 0.928 . S
C21 C18 1.260 . S
C21 C19 1.479 . S
C22 C17 1.245 . S
C22 C18 1.477 . S
C22 H39 0.932 . S
C23 U6 2.882 . S
C23 C17 1.428 . S
C23 O26 1.301 . S
C23 O27 1.282 . S
O24 U6 2.441 . S
O24 C10 1.249 . S
O25 U6 2.420 . S
O25 C10 1.202 . S
O26 U6 2.455 . S
O26 C23 1.301 . S
O27 U6 2.449 . S
O27 C23 1.282 . S
H28 C1 0.931 . S
H29 C3 0.929 . S
H30 C4 0.930 1_455 S
H31 C5 0.931 . S
H32 C12 0.931 . S
H33 C13 0.930 . S
H34 C14 0.929 . S
H35 C16 0.929 1_455 S
H36 C18 0.932 . S
H37 C19 0.929 . S
H38 C20 0.928 . S
H39 C22 0.932 . S
C40 C41 1.264 . S
C40 C45 1.479 . S
C40 C50 1.465 . S
C41 C40 1.264 . S
C41 C43 1.339 . S
C41 H68 0.931 . S
C42 C43 1.395 . S
C42 C44 1.320 . S
C43 C41 1.339 . S
C43 C42 1.395 . S
C43 H69 0.929 . S
C44 C42 1.320 . S
C44 C45 1.405 . S
C44 H70 0.928 1_545 S
C45 C40 1.479 . S
C45 C44 1.405 . S
C45 H71 0.931 . S
U46 O47 2.454 . S
U46 O48 2.458 . S
U46 C49 2.984 . S
U46 C50 2.847 . S
U46 C63 2.882 . S
U46 O64 2.441 . S
U46 O65 2.420 . S
U46 O66 2.455 . S
U46 O67 2.449 . S
O47 U46 2.454 . S
O47 C49 1.353 . S
O48 U46 2.458 . S
O48 C49 1.286 . S
C49 U46 2.984 . S
C49 O47 1.353 . S
C49 O48 1.286 . S
C49 C51 1.363 . S
C50 C40 1.465 . S
C50 U46 2.847 . S
C50 O64 1.249 . S
C50 O65 1.202 . S
C51 C49 1.363 . S
C51 C53 1.408 . S
C51 C56 1.342 . S
C52 C53 1.310 . S
C52 C55 1.464 . S
C52 H72 0.932 . S
C53 C51 1.408 . S
C53 C52 1.310 . S
C53 H73 0.930 . S
C54 C55 1.474 . S
C54 C56 1.287 . S
C54 H74 0.928 1_545 S
C55 C52 1.464 . S
C55 C54 1.474 . S
C56 C51 1.342 . S
C56 C54 1.287 . S
C56 H75 0.930 . S
C57 C60 1.424 . S
C57 C62 1.245 . S
C57 C63 1.428 . S
C58 C61 1.260 . S
C58 C62 1.477 . S
C58 H76 0.932 . S
C59 C60 1.384 . S
C59 C61 1.479 . S
C59 H77 0.929 . S
C60 C57 1.424 . S
C60 C59 1.384 . S
C60 H78 0.928 . S
C61 C58 1.260 . S
C61 C59 1.479 . S
C62 C57 1.245 . S
C62 C58 1.477 . S
C62 H79 0.932 . S
C63 U46 2.882 . S
C63 C57 1.428 . S
C63 O66 1.301 . S
C63 O67 1.282 . S
O64 U46 2.441 . S
O64 C50 1.249 . S
O65 U46 2.420 . S
O65 C50 1.202 . S
O66 U46 2.455 . S
O66 C63 1.301 . S
O67 U46 2.449 . S
O67 C63 1.282 . S
H68 C41 0.931 . S
H69 C43 0.929 . S
H70 C44 0.928 1_565 S
H71 C45 0.931 . S
H72 C52 0.932 . S
H73 C53 0.930 . S
H74 C54 0.928 1_565 S
H75 C56 0.930 . S
H76 C58 0.932 . S
H77 C59 0.929 . S
H78 C60 0.928 . S
H79 C62 0.932 . S
C80 C81 1.264 . S
C80 C85 1.479 . S
C80 C90 1.465 . S
C81 C80 1.264 . S
C81 C83 1.339 . S
C81 H108 0.931 . S
C82 C83 1.395 . S
C82 C84 1.320 . S
C83 C81 1.339 . S
C83 C82 1.395 . S
C83 H109 0.929 . S
C84 C82 1.320 . S
C84 C85 1.405 . S
C84 H110 0.930 1_655 S
C85 C80 1.479 . S
C85 C84 1.405 . S
C85 H111 0.931 . S
U86 O87 2.454 . S
U86 O88 2.458 . S
U86 C89 2.984 . S
U86 C90 2.847 . S
U86 C103 2.882 . S
U86 O104 2.441 . S
U86 O105 2.420 . S
U86 O106 2.455 . S
U86 O107 2.449 . S
O87 U86 2.454 . S
O87 C89 1.353 . S
O88 U86 2.458 . S
O88 C89 1.286 . S
C89 U86 2.984 . S
C89 O87 1.353 . S
C89 O88 1.286 . S
C89 C91 1.363 . S
C90 C80 1.465 . S
C90 U86 2.847 . S
C90 O104 1.249 . S
C90 O105 1.202 . S
C91 C89 1.363 . S
C91 C93 1.408 . S
C91 C96 1.346 . S
C92 C93 1.315 . S
C92 C95 1.458 1_655 S
C92 H112 0.931 . S
C93 C91 1.408 . S
C93 C92 1.315 . S
C93 H113 0.930 . S
C94 C95 1.475 . S
C94 C96 1.284 1_455 S
C94 H114 0.929 . S
C95 C92 1.458 1_455 S
C95 C94 1.475 . S
C96 C91 1.346 . S
C96 C94 1.284 1_655 S
C96 H115 0.929 1_655 S
C97 C100 1.424 . S
C97 C102 1.245 . S
C97 C103 1.428 . S
C98 C101 1.260 . S
C98 C102 1.477 . S
C98 H116 0.932 . S
C99 C100 1.384 . S
C99 C101 1.479 . S
C99 H117 0.929 . S
C100 C97 1.424 . S
C100 C99 1.384 . S
C100 H118 0.928 . S
C101 C98 1.260 . S
C101 C99 1.479 . S
C102 C97 1.245 . S
C102 C98 1.477 . S
C102 H119 0.932 . S
C103 U86 2.882 . S
C103 C97 1.428 . S
C103 O106 1.301 . S
C103 O107 1.282 . S
O104 U86 2.441 . S
O104 C90 1.249 . S
O105 U86 2.420 . S
O105 C90 1.202 . S
O106 U86 2.455 . S
O106 C103 1.301 . S
O107 U86 2.449 . S
O107 C103 1.282 . S
H108 C81 0.931 . S
H109 C83 0.929 . S
H110 C84 0.930 1_455 S
H111 C85 0.931 . S
H112 C92 0.931 . S
H113 C93 0.930 . S
H114 C94 0.929 . S
H115 C96 0.929 1_455 S
H116 C98 0.932 . S
H117 C99 0.929 . S
H118 C100 0.928 . S
H119 C102 0.932 . S
C120 C121 1.264 . S
C120 C125 1.479 . S
C120 C130 1.465 . S
C121 C120 1.264 . S
C121 C123 1.339 . S
C121 H148 0.931 . S
C122 C123 1.395 . S
C122 C124 1.320 . S
C123 C121 1.339 . S
C123 C122 1.395 . S
C123 H149 0.929 . S
C124 C122 1.320 . S
C124 C125 1.405 . S
C124 H150 0.930 1_565 S
C125 C120 1.479 . S
C125 C124 1.405 . S
C125 H151 0.931 . S
U126 O127 2.454 . S
U126 O128 2.458 . S
U126 C129 2.984 . S
U126 C130 2.847 . S
U126 C143 2.882 . S
U126 O144 2.441 . S
U126 O145 2.420 . S
U126 O146 2.455 . S
U126 O147 2.449 . S
O127 U126 2.454 . S
O127 C129 1.353 . S
O128 U126 2.458 . S
O128 C129 1.286 . S
C129 U126 2.984 . S
C129 O127 1.353 . S
C129 O128 1.286 . S
C129 C131 1.363 . S
C130 C120 1.465 . S
C130 U126 2.847 . S
C130 O144 1.249 . S
C130 O145 1.202 . S
C131 C129 1.363 . S
C131 C133 1.408 . S
C131 C136 1.349 . S
C132 C133 1.310 . S
C132 C135 1.460 1_565 S
C132 H152 0.934 . S
C133 C131 1.408 . S
C133 C132 1.310 . S
C133 H153 0.930 . S
C134 C135 1.474 . S
C134 C136 1.282 1_545 S
C134 H154 0.934 . S
C135 C132 1.460 1_545 S
C135 C134 1.474 . S
C136 C131 1.349 . S
C136 C134 1.282 1_565 S
C136 H155 0.929 . S
C137 C140 1.424 . S
C137 C142 1.245 . S
C137 C143 1.428 . S
C138 C141 1.260 . S
C138 C142 1.477 . S
C138 H156 0.932 . S
C139 C140 1.384 . S
C139 C141 1.479 . S
C139 H157 0.929 . S
C140 C137 1.424 . S
C140 C139 1.384 . S
C140 H158 0.928 . S
C141 C138 1.260 . S
C141 C139 1.479 . S
C142 C137 1.245 . S
C142 C138 1.477 . S
C142 H159 0.932 . S
C143 U126 2.882 . S
C143 C137 1.428 . S
C143 O146 1.301 . S
C143 O147 1.282 . S
O144 U126 2.441 . S
O144 C130 1.249 . S
O145 U126 2.420 . S
O145 C130 1.202 . S
O146 U126 2.455 . S
O146 C143 1.301 . S
O147 U126 2.449 . S
O147 C143 1.282 . S
H148 C121 0.931 . S
H149 C123 0.929 . S
H150 C124 0.930 1_545 S
H151 C125 0.931 . S
H152 C132 0.934 . S
H153 C133 0.930 . S
H154 C134 0.934 . S
H155 C136 0.929 . S
H156 C138 0.932 . S
H157 C139 0.929 . S
H158 C140 0.928 . S
H159 C142 0.932 . S
C160 C161 1.264 . S
C160 C165 1.479 . S
C160 C170 1.465 . S
C161 C160 1.264 . S
C161 C163 1.339 . S
C161 H188 0.931 . S
C162 C163 1.395 . S
C162 C164 1.320 . S
C163 C161 1.339 . S
C163 C162 1.395 . S
C163 H189 0.929 . S
C164 C162 1.320 . S
C164 C165 1.405 . S
C164 H190 0.930 1_655 S
C165 C160 1.479 . S
C165 C164 1.405 . S
C165 H191 0.931 . S
U166 O167 2.454 . S
U166 O168 2.458 . S
U166 C169 2.984 . S
U166 C170 2.847 . S
U166 C183 2.882 . S
U166 O184 2.441 . S
U166 O185 2.420 . S
U166 O186 2.455 . S
U166 O187 2.449 . S
O167 U166 2.454 . S
O167 C169 1.353 . S
O168 U166 2.458 . S
O168 C169 1.286 . S
C169 U166 2.984 . S
C169 O167 1.353 . S
C169 O168 1.286 . S
C169 C171 1.363 . S
C170 C160 1.465 . S
C170 U166 2.847 . S
C170 O184 1.249 . S
C170 O185 1.202 . S
C171 C169 1.363 . S
C171 C173 1.408 . S
C171 C176 1.344 . S
C172 C173 1.313 . S
C172 C175 1.458 1_655 S
C172 H192 0.931 . S
C173 C171 1.408 . S
C173 C172 1.313 . S
C173 H193 0.930 . S
C174 C175 1.476 . S
C174 C176 1.285 1_455 S
C174 H194 0.929 . S
C175 C172 1.458 1_455 S
C175 C174 1.476 . S
C176 C171 1.344 . S
C176 C174 1.285 1_655 S
C176 H195 0.929 1_655 S
C177 C180 1.424 . S
C177 C182 1.245 . S
C177 C183 1.428 . S
C178 C181 1.260 . S
C178 C182 1.477 . S
C178 H196 0.932 . S
C179 C180 1.384 . S
C179 C181 1.479 . S
C179 H197 0.929 . S
C180 C177 1.424 . S
C180 C179 1.384 . S
C180 H198 0.928 . S
C181 C178 1.260 . S
C181 C179 1.479 . S
C182 C177 1.245 . S
C182 C178 1.477 . S
C182 H199 0.932 . S
C183 U166 2.882 . S
C183 C177 1.428 . S
C183 O186 1.301 . S
C183 O187 1.282 . S
O184 U166 2.441 . S
O184 C170 1.249 . S
O185 U166 2.420 . S
O185 C170 1.202 . S
O186 U166 2.455 . S
O186 C183 1.301 . S
O187 U166 2.449 . S
O187 C183 1.282 . S
H188 C161 0.931 . S
H189 C163 0.929 . S
H190 C164 0.930 1_455 S
H191 C165 0.931 . S
H192 C172 0.931 . S
H193 C173 0.930 . S
H194 C174 0.929 . S
H195 C176 0.929 1_455 S
H196 C178 0.932 . S
H197 C179 0.929 . S
H198 C180 0.928 . S
H199 C182 0.932 . S
C200 C201 1.264 . S
C200 C205 1.479 . S
C200 C210 1.465 . S
C201 C200 1.264 . S
C201 C203 1.339 . S
C201 H228 0.931 . S
C202 C203 1.395 . S
C202 C204 1.320 . S
C203 C201 1.339 . S
C203 C202 1.395 . S
C203 H229 0.929 . S
C204 C202 1.320 . S
C204 C205 1.405 . S
C204 H230 0.930 1_545 S
C205 C200 1.479 . S
C205 C204 1.405 . S
C205 H231 0.931 . S
U206 O207 2.454 . S
U206 O208 2.458 . S
U206 C209 2.984 . S
U206 C210 2.847 . S
U206 C223 2.882 . S
U206 O224 2.441 . S
U206 O225 2.420 . S
U206 O226 2.455 . S
U206 O227 2.449 . S
O207 U206 2.454 . S
O207 C209 1.353 . S
O208 U206 2.458 . S
O208 C209 1.286 . S
C209 U206 2.984 . S
C209 O207 1.353 . S
C209 O208 1.286 . S
C209 C211 1.363 . S
C210 C200 1.465 . S
C210 U206 2.847 . S
C210 O224 1.249 . S
C210 O225 1.202 . S
C211 C209 1.363 . S
C211 C213 1.408 . S
C211 C216 1.342 . S
C212 C213 1.310 . S
C212 C215 1.465 . S
C212 H232 0.932 . S
C213 C211 1.408 . S
C213 C212 1.310 . S
C213 H233 0.930 . S
C214 C215 1.474 . S
C214 C216 1.288 . S
C214 H234 0.925 1_545 S
C215 C212 1.465 . S
C215 C214 1.474 . S
C216 C211 1.342 . S
C216 C214 1.288 . S
C216 H235 0.930 . S
C217 C220 1.424 . S
C217 C222 1.245 . S
C217 C223 1.428 . S
C218 C221 1.260 . S
C218 C222 1.477 . S
C218 H236 0.932 . S
C219 C220 1.384 . S
C219 C221 1.479 . S
C219 H237 0.929 . S
C220 C217 1.424 . S
C220 C219 1.384 . S
C220 H238 0.928 . S
C221 C218 1.260 . S
C221 C219 1.479 . S
C222 C217 1.245 . S
C222 C218 1.477 . S
C222 H239 0.932 . S
C223 U206 2.882 . S
C223 C217 1.428 . S
C223 O226 1.301 . S
C223 O227 1.282 . S
O224 U206 2.441 . S
O224 C210 1.249 . S
O225 U206 2.420 . S
O225 C210 1.202 . S
O226 U206 2.455 . S
O226 C223 1.301 . S
O227 U206 2.449 . S
O227 C223 1.282 . S
H228 C201 0.931 . S
H229 C203 0.929 . S
H230 C204 0.930 1_565 S
H231 C205 0.931 . S
H232 C212 0.932 . S
H233 C213 0.930 . S
H234 C214 0.925 1_565 S
H235 C216 0.930 . S
H236 C218 0.932 . S
H237 C219 0.929 . S
H238 C220 0.928 . S
H239 C222 0.932 . S
C240 C241 1.264 . S
C240 C245 1.479 . S
C240 C250 1.465 . S
C241 C240 1.264 . S
C241 C243 1.339 . S
C241 H268 0.931 . S
C242 C243 1.395 . S
C242 C244 1.320 . S
C243 C241 1.339 . S
C243 C242 1.395 . S
C243 H269 0.929 . S
C244 C242 1.320 . S
C244 C245 1.405 . S
C244 H270 0.930 1_655 S
C245 C240 1.479 . S
C245 C244 1.405 . S
C245 H271 0.931 . S
U246 O247 2.454 . S
U246 O248 2.458 . S
U246 C249 2.984 . S
U246 C250 2.847 . S
U246 C263 2.882 . S
U246 O264 2.441 . S
U246 O265 2.420 . S
U246 O266 2.455 . S
U246 O267 2.449 . S
O247 U246 2.454 . S
O247 C249 1.353 . S
O248 U246 2.458 . S
O248 C249 1.286 . S
C249 U246 2.984 . S
C249 O247 1.353 . S
C249 O248 1.286 . S
C249 C251 1.363 . S
C250 C240 1.465 . S
C250 U246 2.847 . S
C250 O264 1.249 . S
C250 O265 1.202 . S
C251 C249 1.363 . S
C251 C253 1.408 . S
C251 C256 1.345 . S
C252 C253 1.314 . S
C252 C255 1.458 1_655 S
C252 H272 0.931 . S
C253 C251 1.408 . S
C253 C252 1.314 . S
C253 H273 0.930 . S
C254 C255 1.475 . S
C254 C256 1.284 1_455 S
C254 H274 0.929 . S
C255 C252 1.458 1_455 S
C255 C254 1.475 . S
C256 C251 1.345 . S
C256 C254 1.284 1_655 S
C256 H275 0.929 1_655 S
C257 C260 1.424 . S
C257 C262 1.245 . S
C257 C263 1.428 . S
C258 C261 1.260 . S
C258 C262 1.477 . S
C258 H276 0.932 . S
C259 C260 1.384 . S
C259 C261 1.479 . S
C259 H277 0.929 . S
C260 C257 1.424 . S
C260 C259 1.384 . S
C260 H278 0.928 . S
C261 C258 1.260 . S
C261 C259 1.479 . S
C262 C257 1.245 . S
C262 C258 1.477 . S
C262 H279 0.932 . S
C263 U246 2.882 . S
C263 C257 1.428 . S
C263 O266 1.301 . S
C263 O267 1.282 . S
O264 U246 2.441 . S
O264 C250 1.249 . S
O265 U246 2.420 . S
O265 C250 1.202 . S
O266 U246 2.455 . S
O266 C263 1.301 . S
O267 U246 2.449 . S
O267 C263 1.282 . S
H268 C241 0.931 . S
H269 C243 0.929 . S
H270 C244 0.930 1_455 S
H271 C245 0.931 . S
H272 C252 0.931 . S
H273 C253 0.930 . S
H274 C254 0.929 . S
H275 C256 0.929 1_455 S
H276 C258 0.932 . S
H277 C259 0.929 . S
H278 C260 0.928 . S
H279 C262 0.932 . S
C280 C281 1.264 . S
C280 C285 1.479 . S
C280 C290 1.465 . S
C281 C280 1.264 . S
C281 C283 1.339 . S
C281 H308 0.931 . S
C282 C283 1.395 . S
C282 C284 1.320 . S
C283 C281 1.339 . S
C283 C282 1.395 . S
C283 H309 0.929 . S
C284 C282 1.320 . S
C284 C285 1.405 . S
C284 H310 0.929 . S
C285 C280 1.479 . S
C285 C284 1.405 . S
C285 H311 0.931 . S
U286 O287 2.454 . S
U286 O288 2.458 . S
U286 C289 2.984 . S
U286 C290 2.847 . S
U286 C303 2.882 . S
U286 O304 2.441 . S
U286 O305 2.420 . S
U286 O306 2.455 . S
U286 O307 2.449 . S
O287 U286 2.454 . S
O287 C289 1.353 . S
O288 U286 2.458 . S
O288 C289 1.286 . S
C289 U286 2.984 . S
C289 O287 1.353 . S
C289 O288 1.286 . S
C289 C291 1.363 . S
C290 C280 1.465 . S
C290 U286 2.847 . S
C290 O304 1.249 . S
C290 O305 1.202 . S
C291 C289 1.363 . S
C291 C293 1.408 . S
C291 C296 1.342 . S
C292 C293 1.310 . S
C292 C295 1.465 . S
C292 H312 0.932 . S
C293 C291 1.408 . S
C293 C292 1.310 . S
C293 H313 0.930 . S
C294 C295 1.474 . S
C294 C296 1.288 . S
C294 H314 0.925 1_545 S
C295 C292 1.465 . S
C295 C294 1.474 . S
C296 C291 1.342 . S
C296 C294 1.288 . S
C296 H315 0.930 . S
C297 C300 1.424 . S
C297 C302 1.245 . S
C297 C303 1.428 . S
C298 C301 1.260 . S
C298 C302 1.477 . S
C298 H316 0.932 . S
C299 C300 1.384 . S
C299 C301 1.479 . S
C299 H317 0.929 . S
C300 C297 1.424 . S
C300 C299 1.384 . S
C300 H318 0.928 . S
C301 C298 1.260 . S
C301 C299 1.479 . S
C302 C297 1.245 . S
C302 C298 1.477 . S
C302 H319 0.932 . S
C303 U286 2.882 . S
C303 C297 1.428 . S
C303 O306 1.301 . S
C303 O307 1.282 . S
O304 U286 2.441 . S
O304 C290 1.249 . S
O305 U286 2.420 . S
O305 C290 1.202 . S
O306 U286 2.455 . S
O306 C303 1.301 . S
O307 U286 2.449 . S
O307 C303 1.282 . S
H308 C281 0.931 . S
H309 C283 0.929 . S
H310 C284 0.929 . S
H311 C285 0.931 . S
H312 C292 0.932 . S
H313 C293 0.930 . S
H314 C294 0.925 1_565 S
H315 C296 0.930 . S
H316 C298 0.932 . S
H317 C299 0.929 . S
H318 C300 0.928 . S
H319 C302 0.932 . S
C320 C321 1.264 . S
C320 C325 1.479 . S
C320 C330 1.465 . S
C321 C320 1.264 . S
C321 C323 1.339 . S
C321 H348 0.931 . S
C322 C323 1.395 . S
C322 C324 1.320 . S
C323 C321 1.339 . S
C323 C322 1.395 . S
C323 H349 0.929 . S
C324 C322 1.320 . S
C324 C325 1.405 . S
C324 H350 0.931 1_554 S
C325 C320 1.479 . S
C325 C324 1.405 . S
C325 H351 0.931 . S
U326 O327 2.454 . S
U326 O328 2.458 . S
U326 C329 2.984 . S
U326 C330 2.847 . S
U326 C343 2.882 . S
U326 O344 2.441 . S
U326 O345 2.420 . S
U326 O346 2.455 . S
U326 O347 2.449 . S
O327 U326 2.454 . S
O327 C329 1.353 . S
O328 U326 2.458 . S
O328 C329 1.286 . S
C329 U326 2.984 . S
C329 O327 1.353 . S
C329 O328 1.286 . S
C329 C331 1.363 . S
C330 C320 1.465 . S
C330 U326 2.847 . S
C330 O344 1.249 . S
C330 O345 1.202 . S
C331 C329 1.363 . S
C331 C333 1.408 . S
C331 C336 1.342 . S
C332 C333 1.310 . S
C332 C335 1.464 . S
C332 H352 0.932 . S
C333 C331 1.408 . S
C333 C332 1.310 . S
C333 H353 0.930 . S
C334 C335 1.474 . S
C334 C336 1.287 . S
C334 H354 0.928 1_554 S
C335 C332 1.464 . S
C335 C334 1.474 . S
C336 C331 1.342 . S
C336 C334 1.287 . S
C336 H355 0.930 . S
C337 C340 1.424 . S
C337 C342 1.245 . S
C337 C343 1.428 . S
C338 C341 1.260 . S
C338 C342 1.477 . S
C338 H356 0.932 . S
C339 C340 1.384 . S
C339 C341 1.479 . S
C339 H357 0.929 . S
C340 C337 1.424 . S
C340 C339 1.384 . S
C340 H358 0.928 . S
C341 C338 1.260 . S
C341 C339 1.479 . S
C342 C337 1.245 . S
C342 C338 1.477 . S
C342 H359 0.932 . S
C343 U326 2.882 . S
C343 C337 1.428 . S
C343 O346 1.301 . S
C343 O347 1.282 . S
O344 U326 2.441 . S
O344 C330 1.249 . S
O345 U326 2.420 . S
O345 C330 1.202 . S
O346 U326 2.455 . S
O346 C343 1.301 . S
O347 U326 2.449 . S
O347 C343 1.282 . S
H348 C321 0.931 . S
H349 C323 0.929 . S
H350 C324 0.931 1_556 S
H351 C325 0.931 . S
H352 C332 0.932 . S
H353 C333 0.930 . S
H354 C334 0.928 1_556 S
H355 C336 0.930 . S
H356 C338 0.932 . S
H357 C339 0.929 . S
H358 C340 0.928 . S
H359 C342 0.932 . S
C360 C361 1.264 . S
C360 C365 1.479 . S
C360 C370 1.465 . S
C361 C360 1.264 . S
C361 C363 1.339 . S
C361 H388 0.931 . S
C362 C363 1.395 . S
C362 C364 1.320 . S
C363 C361 1.339 . S
C363 C362 1.395 . S
C363 H389 0.929 . S
C364 C362 1.320 . S
C364 C365 1.405 . S
C364 H390 0.927 1_554 S
C365 C360 1.479 . S
C365 C364 1.405 . S
C365 H391 0.931 . S
U366 O367 2.454 . S
U366 O368 2.458 . S
U366 C369 2.984 . S
U366 C370 2.847 . S
U366 C383 2.882 . S
U366 O384 2.441 . S
U366 O385 2.420 . S
U366 O386 2.455 . S
U366 O387 2.449 . S
O367 U366 2.454 . S
O367 C369 1.353 . S
O368 U366 2.458 . S
O368 C369 1.286 . S
C369 U366 2.984 . S
C369 O367 1.353 . S
C369 O368 1.286 . S
C369 C371 1.363 . S
C370 C360 1.465 . S
C370 U366 2.847 . S
C370 O384 1.249 . S
C370 O385 1.202 . S
C371 C369 1.363 . S
C371 C373 1.408 . S
C371 C376 1.342 . S
C372 C373 1.310 . S
C372 C375 1.464 . S
C372 H392 0.932 . S
C373 C371 1.408 . S
C373 C372 1.310 . S
C373 H393 0.930 . S
C374 C375 1.474 . S
C374 C376 1.287 . S
C374 H394 0.928 1_554 S
C375 C372 1.464 . S
C375 C374 1.474 . S
C376 C371 1.342 . S
C376 C374 1.287 . S
C376 H395 0.930 . S
C377 C380 1.424 . S
C377 C382 1.245 . S
C377 C383 1.428 . S
C378 C381 1.260 . S
C378 C382 1.477 . S
C378 H396 0.932 . S
C379 C380 1.384 . S
C379 C381 1.479 . S
C379 H397 0.929 . S
C380 C377 1.424 . S
C380 C379 1.384 . S
C380 H398 0.928 . S
C381 C378 1.260 . S
C381 C379 1.479 . S
C382 C377 1.245 . S
C382 C378 1.477 . S
C382 H399 0.932 . S
C383 U366 2.882 . S
C383 C377 1.428 . S
C383 O386 1.301 . S
C383 O387 1.282 . S
O384 U366 2.441 . S
O384 C370 1.249 . S
O385 U366 2.420 . S
O385 C370 1.202 . S
O386 U366 2.455 . S
O386 C383 1.301 . S
O387 U366 2.449 . S
O387 C383 1.282 . S
H388 C361 0.931 . S
H389 C363 0.929 . S
H390 C364 0.927 1_556 S
H391 C365 0.931 . S
H392 C372 0.932 . S
H393 C373 0.930 . S
H394 C374 0.928 1_556 S
H395 C376 0.930 . S
H396 C378 0.932 . S
H397 C379 0.929 . S
H398 C380 0.928 . S
H399 C382 0.932 . S
C400 C401 1.264 . S
C400 C405 1.479 . S
C400 C410 1.465 . S
C401 C400 1.264 . S
C401 C403 1.339 . S
C401 H428 0.931 . S
C402 C403 1.395 . S
C402 C404 1.320 . S
C403 C401 1.339 . S
C403 C402 1.395 . S
C403 H429 0.929 . S
C404 C402 1.320 . S
C404 C405 1.405 . S
C404 H430 0.928 1_554 S
C405 C400 1.479 . S
C405 C404 1.405 . S
C405 H431 0.931 . S
U406 O407 2.454 . S
U406 O408 2.458 . S
U406 C409 2.984 . S
U406 C410 2.847 . S
U406 C423 2.882 . S
U406 O424 2.441 . S
U406 O425 2.420 . S
U406 O426 2.455 . S
U406 O427 2.449 . S
O407 U406 2.454 . S
O407 C409 1.353 . S
O408 U406 2.458 . S
O408 C409 1.286 . S
C409 U406 2.984 . S
C409 O407 1.353 . S
C409 O408 1.286 . S
C409 C411 1.363 . S
C410 C400 1.465 . S
C410 U406 2.847 . S
C410 O424 1.249 . S
C410 O425 1.202 . S
C411 C409 1.363 . S
C411 C413 1.408 . S
C411 C416 1.342 . S
C412 C413 1.310 . S
C412 C415 1.465 . S
C412 H432 0.932 . S
C413 C411 1.408 . S
C413 C412 1.310 . S
C413 H433 0.930 . S
C414 C415 1.474 . S
C414 C416 1.287 . S
C414 H434 0.928 1_554 S
C415 C412 1.465 . S
C415 C414 1.474 . S
C416 C411 1.342 . S
C416 C414 1.287 . S
C416 H435 0.930 . S
C417 C420 1.424 . S
C417 C422 1.245 . S
C417 C423 1.428 . S
C418 C421 1.260 . S
C418 C422 1.477 . S
C418 H436 0.932 . S
C419 C420 1.384 . S
C419 C421 1.479 . S
C419 H437 0.929 . S
C420 C417 1.424 . S
C420 C419 1.384 . S
C420 H438 0.928 . S
C421 C418 1.260 . S
C421 C419 1.479 . S
C422 C417 1.245 . S
C422 C418 1.477 . S
C422 H439 0.932 . S
C423 U406 2.882 . S
C423 C417 1.428 . S
C423 O426 1.301 . S
C423 O427 1.282 . S
O424 U406 2.441 . S
O424 C410 1.249 . S
O425 U406 2.420 . S
O425 C410 1.202 . S
O426 U406 2.455 . S
O426 C423 1.301 . S
O427 U406 2.449 . S
O427 C423 1.282 . S
H428 C401 0.931 . S
H429 C403 0.929 . S
H430 C404 0.928 1_556 S
H431 C405 0.931 . S
H432 C412 0.932 . S
H433 C413 0.930 . S
H434 C414 0.928 1_556 S
H435 C416 0.930 . S
H436 C418 0.932 . S
H437 C419 0.929 . S
H438 C420 0.928 . S
H439 C422 0.932 . S
C440 C441 1.264 . S
C440 C445 1.479 . S
C440 C450 1.465 . S
C441 C440 1.264 . S
C441 C443 1.339 . S
C441 H468 0.931 . S
C442 C443 1.395 . S
C442 C444 1.320 . S
C443 C441 1.339 . S
C443 C442 1.395 . S
C443 H469 0.929 . S
C444 C442 1.320 . S
C444 C445 1.405 . S
C444 H470 0.927 1_554 S
C445 C440 1.479 . S
C445 C444 1.405 . S
C445 H471 0.931 . S
U446 O447 2.454 . S
U446 O448 2.458 . S
U446 C449 2.984 . S
U446 C450 2.847 . S
U446 C463 2.882 . S
U446 O464 2.441 . S
U446 O465 2.420 . S
U446 O466 2.455 . S
U446 O467 2.449 . S
O447 U446 2.454 . S
O447 C449 1.353 . S
O448 U446 2.458 . S
O448 C449 1.286 . S
C449 U446 2.984 . S
C449 O447 1.353 . S
C449 O448 1.286 . S
C449 C451 1.363 . S
C450 C440 1.465 . S
C450 U446 2.847 . S
C450 O464 1.249 . S
C450 O465 1.202 . S
C451 C449 1.363 . S
C451 C453 1.408 . S
C451 C456 1.342 . S
C452 C453 1.310 . S
C452 C455 1.463 . S
C452 H472 0.932 . S
C453 C451 1.408 . S
C453 C452 1.310 . S
C453 H473 0.930 . S
C454 C455 1.474 . S
C454 C456 1.286 . S
C454 H474 0.929 1_554 S
C455 C452 1.463 . S
C455 C454 1.474 . S
C456 C451 1.342 . S
C456 C454 1.286 . S
C456 H475 0.930 . S
C457 C460 1.424 . S
C457 C462 1.245 . S
C457 C463 1.428 . S
C458 C461 1.260 . S
C458 C462 1.477 . S
C458 H476 0.932 . S
C459 C460 1.384 . S
C459 C461 1.479 . S
C459 H477 0.929 . S
C460 C457 1.424 . S
C460 C459 1.384 . S
C460 H478 0.928 . S
C461 C458 1.260 . S
C461 C459 1.479 . S
C462 C457 1.245 . S
C462 C458 1.477 . S
C462 H479 0.932 . S
C463 U446 2.882 . S
C463 C457 1.428 . S
C463 O466 1.301 . S
C463 O467 1.282 . S
O464 U446 2.441 . S
O464 C450 1.249 . S
O465 U446 2.420 . S
O465 C450 1.202 . S
O466 U446 2.455 . S
O466 C463 1.301 . S
O467 U446 2.449 . S
O467 C463 1.282 . S
H468 C441 0.931 . S
H469 C443 0.929 . S
H470 C444 0.927 1_556 S
H471 C445 0.931 . S
H472 C452 0.932 . S
H473 C453 0.930 . S
H474 C454 0.929 1_556 S
H475 C456 0.930 . S
H476 C458 0.932 . S
H477 C459 0.929 . S
H478 C460 0.928 . S
H479 C462 0.932 . S
C480 C481 1.264 . S
C480 C485 1.479 . S
C480 C490 1.465 . S
C481 C480 1.264 . S
C481 C483 1.339 . S
C481 H508 0.931 . S
C482 C483 1.395 . S
C482 C484 1.320 . S
C483 C481 1.339 . S
C483 C482 1.395 . S
C483 H509 0.929 . S
C484 C482 1.320 . S
C484 C485 1.405 . S
C484 H510 0.930 . S
C485 C480 1.479 . S
C485 C484 1.405 . S
C485 H511 0.931 . S
U486 O487 2.454 . S
U486 O488 2.458 . S
U486 C489 2.984 . S
U486 C490 2.847 . S
U486 C503 2.882 . S
U486 O504 2.441 . S
U486 O505 2.420 . S
U486 O506 2.455 . S
U486 O507 2.449 . S
O487 U486 2.454 . S
O487 C489 1.353 . S
O488 U486 2.458 . S
O488 C489 1.286 . S
C489 U486 2.984 . S
C489 O487 1.353 . S
C489 O488 1.286 . S
C489 C491 1.363 . S
C490 C480 1.465 . S
C490 U486 2.847 . S
C490 O504 1.249 . S
C490 O505 1.202 . S
C491 C489 1.363 . S
C491 C493 1.408 . S
C491 C496 1.342 . S
C492 C493 1.310 . S
C492 C495 1.461 . S
C492 H512 0.932 . S
C493 C491 1.408 . S
C493 C492 1.310 . S
C493 H513 0.930 . S
C494 C495 1.474 . S
C494 C496 1.285 . S
C494 H514 0.929 . S
C495 C492 1.461 . S
C495 C494 1.474 . S
C496 C491 1.342 . S
C496 C494 1.285 . S
C496 H515 0.930 . S
C497 C500 1.424 . S
C497 C502 1.245 . S
C497 C503 1.428 . S
C498 C501 1.260 . S
C498 C502 1.477 . S
C498 H516 0.932 . S
C499 C500 1.384 . S
C499 C501 1.479 . S
C499 H517 0.929 . S
C500 C497 1.424 . S
C500 C499 1.384 . S
C500 H518 0.928 . S
C501 C498 1.260 . S
C501 C499 1.479 . S
C502 C497 1.245 . S
C502 C498 1.477 . S
C502 H519 0.932 . S
C503 U486 2.882 . S
C503 C497 1.428 . S
C503 O506 1.301 . S
C503 O507 1.282 . S
O504 U486 2.441 . S
O504 C490 1.249 . S
O505 U486 2.420 . S
O505 C490 1.202 . S
O506 U486 2.455 . S
O506 C503 1.301 . S
O507 U486 2.449 . S
O507 C503 1.282 . S
H508 C481 0.931 . S
H509 C483 0.929 . S
H510 C484 0.930 . S
H511 C485 0.931 . S
H512 C492 0.932 . S
H513 C493 0.930 . S
H514 C494 0.929 . S
H515 C496 0.930 . S
H516 C498 0.932 . S
H517 C499 0.929 . S
H518 C500 0.928 . S
H519 C502 0.932 . S
C520 C521 1.264 . S
C520 C525 1.479 . S
C520 C530 1.465 . S
C521 C520 1.264 . S
C521 C523 1.339 . S
C521 H548 0.931 . S
C522 C523 1.395 . S
C522 C524 1.320 . S
C523 C521 1.339 . S
C523 C522 1.395 . S
C523 H549 0.929 . S
C524 C522 1.320 . S
C524 C525 1.405 . S
C524 H550 0.930 . S
C525 C520 1.479 . S
C525 C524 1.405 . S
C525 H551 0.931 . S
U526 O527 2.454 . S
U526 O528 2.458 . S
U526 C529 2.984 . S
U526 C530 2.847 . S
U526 C543 2.882 . S
U526 O544 2.441 . S
U526 O545 2.420 . S
U526 O546 2.455 . S
U526 O547 2.449 . S
O527 U526 2.454 . S
O527 C529 1.353 . S
O528 U526 2.458 . S
O528 C529 1.286 . S
C529 U526 2.984 . S
C529 O527 1.353 . S
C529 O528 1.286 . S
C529 C531 1.363 . S
C530 C520 1.465 . S
C530 U526 2.847 . S
C530 O544 1.249 . S
C530 O545 1.202 . S
C531 C529 1.363 . S
C531 C533 1.408 . S
C531 C536 1.342 . S
C532 C533 1.310 . S
C532 C535 1.461 . S
C532 H552 0.932 . S
C533 C531 1.408 . S
C533 C532 1.310 . S
C533 H553 0.930 . S
C534 C535 1.474 . S
C534 C536 1.285 . S
C534 H554 0.929 . S
C535 C532 1.461 . S
C535 C534 1.474 . S
C536 C531 1.342 . S
C536 C534 1.285 . S
C536 H555 0.930 . S
C537 C540 1.424 . S
C537 C542 1.245 . S
C537 C543 1.428 . S
C538 C541 1.260 . S
C538 C542 1.477 . S
C538 H556 0.932 . S
C539 C540 1.384 . S
C539 C541 1.479 . S
C539 H557 0.929 . S
C540 C537 1.424 . S
C540 C539 1.384 . S
C540 H558 0.928 . S
C541 C538 1.260 . S
C541 C539 1.479 . S
C542 C537 1.245 . S
C542 C538 1.477 . S
C542 H559 0.932 . S
C543 U526 2.882 . S
C543 C537 1.428 . S
C543 O546 1.301 . S
C543 O547 1.282 . S
O544 U526 2.441 . S
O544 C530 1.249 . S
O545 U526 2.420 . S
O545 C530 1.202 . S
O546 U526 2.455 . S
O546 C543 1.301 . S
O547 U526 2.449 . S
O547 C543 1.282 . S
H548 C521 0.931 . S
H549 C523 0.929 . S
H550 C524 0.930 . S
H551 C525 0.931 . S
H552 C532 0.932 . S
H553 C533 0.930 . S
H554 C534 0.929 . S
H555 C536 0.930 . S
H556 C538 0.932 . S
H557 C539 0.929 . S
H558 C540 0.928 . S
H559 C542 0.932 . S
C560 C561 1.264 . S
C560 C565 1.479 . S
C560 C570 1.465 . S
C561 C560 1.264 . S
C561 C563 1.339 . S
C561 H588 0.931 . S
C562 C563 1.395 . S
C562 C564 1.320 . S
C563 C561 1.339 . S
C563 C562 1.395 . S
C563 H589 0.929 . S
C564 C562 1.320 . S
C564 C565 1.405 . S
C564 H590 0.930 . S
C565 C560 1.479 . S
C565 C564 1.405 . S
C565 H591 0.931 . S
U566 O567 2.454 . S
U566 O568 2.458 . S
U566 C569 2.984 . S
U566 C570 2.847 . S
U566 C583 2.882 . S
U566 O584 2.441 . S
U566 O585 2.420 . S
U566 O586 2.455 . S
U566 O587 2.449 . S
O567 U566 2.454 . S
O567 C569 1.353 . S
O568 U566 2.458 . S
O568 C569 1.286 . S
C569 U566 2.984 . S
C569 O567 1.353 . S
C569 O568 1.286 . S
C569 C571 1.363 . S
C570 C560 1.465 . S
C570 U566 2.847 . S
C570 O584 1.249 . S
C570 O585 1.202 . S
C571 C569 1.363 . S
C571 C573 1.408 . S
C571 C576 1.342 . S
C572 C573 1.310 . S
C572 C575 1.461 . S
C572 H592 0.932 . S
C573 C571 1.408 . S
C573 C572 1.310 . S
C573 H593 0.930 . S
C574 C575 1.474 . S
C574 C576 1.285 . S
C574 H594 0.929 . S
C575 C572 1.461 . S
C575 C574 1.474 . S
C576 C571 1.342 . S
C576 C574 1.285 . S
C576 H595 0.930 . S
C577 C580 1.424 . S
C577 C582 1.245 . S
C577 C583 1.428 . S
C578 C581 1.260 . S
C578 C582 1.477 . S
C578 H596 0.932 . S
C579 C580 1.384 . S
C579 C581 1.479 . S
C579 H597 0.929 . S
C580 C577 1.424 . S
C580 C579 1.384 . S
C580 H598 0.928 . S
C581 C578 1.260 . S
C581 C579 1.479 . S
C582 C577 1.245 . S
C582 C578 1.477 . S
C582 H599 0.932 . S
C583 U566 2.882 . S
C583 C577 1.428 . S
C583 O586 1.301 . S
C583 O587 1.282 . S
O584 U566 2.441 . S
O584 C570 1.249 . S
O585 U566 2.420 . S
O585 C570 1.202 . S
O586 U566 2.455 . S
O586 C583 1.301 . S
O587 U566 2.449 . S
O587 C583 1.282 . S
H588 C561 0.931 . S
H589 C563 0.929 . S
H590 C564 0.930 . S
H591 C565 0.931 . S
H592 C572 0.932 . S
H593 C573 0.930 . S
H594 C574 0.929 . S
H595 C576 0.930 . S
H596 C578 0.932 . S
H597 C579 0.929 . S
H598 C580 0.928 . S
H599 C582 0.932 . S
C600 C601 1.264 . S
C600 C605 1.479 . S
C600 C610 1.465 . S
C601 C600 1.264 . S
C601 C603 1.339 . S
C601 H628 0.931 . S
C602 C603 1.395 . S
C602 C604 1.320 . S
C603 C601 1.339 . S
C603 C602 1.395 . S
C603 H629 0.929 . S
C604 C602 1.320 . S
C604 C605 1.405 . S
C604 H630 0.930 . S
C605 C600 1.479 . S
C605 C604 1.405 . S
C605 H631 0.931 . S
U606 O607 2.454 . S
U606 O608 2.458 . S
U606 C609 2.984 . S
U606 C610 2.847 . S
U606 C623 2.882 . S
U606 O624 2.441 . S
U606 O625 2.420 . S
U606 O626 2.455 . S
U606 O627 2.449 . S
O607 U606 2.454 . S
O607 C609 1.353 . S
O608 U606 2.458 . S
O608 C609 1.286 . S
C609 U606 2.984 . S
C609 O607 1.353 . S
C609 O608 1.286 . S
C609 C611 1.363 . S
C610 C600 1.465 . S
C610 U606 2.847 . S
C610 O624 1.249 . S
C610 O625 1.202 . S
C611 C609 1.363 . S
C611 C613 1.408 . S
C611 C616 1.342 . S
C612 C613 1.310 . S
C612 C615 1.461 . S
C612 H632 0.932 . S
C613 C611 1.408 . S
C613 C612 1.310 . S
C613 H633 0.930 . S
C614 C615 1.474 . S
C614 C616 1.285 . S
C614 H634 0.929 . S
C615 C612 1.461 . S
C615 C614 1.474 . S
C616 C611 1.342 . S
C616 C614 1.285 . S
C616 H635 0.930 . S
C617 C620 1.424 . S
C617 C622 1.245 . S
C617 C623 1.428 . S
C618 C621 1.260 . S
C618 C622 1.477 . S
C618 H636 0.932 . S
C619 C620 1.384 . S
C619 C621 1.479 . S
C619 H637 0.929 . S
C620 C617 1.424 . S
C620 C619 1.384 . S
C620 H638 0.928 . S
C621 C618 1.260 . S
C621 C619 1.479 . S
C622 C617 1.245 . S
C622 C618 1.477 . S
C622 H639 0.932 . S
C623 U606 2.882 . S
C623 C617 1.428 . S
C623 O626 1.301 . S
C623 O627 1.282 . S
O624 U606 2.441 . S
O624 C610 1.249 . S
O625 U606 2.420 . S
O625 C610 1.202 . S
O626 U606 2.455 . S
O626 C623 1.301 . S
O627 U606 2.449 . S
O627 C623 1.282 . S
H628 C601 0.931 . S
H629 C603 0.929 . S
H630 C604 0.930 . S
H631 C605 0.931 . S
H632 C612 0.932 . S
H633 C613 0.930 . S
H634 C614 0.929 . S
H635 C616 0.930 . S
H636 C618 0.932 . S
H637 C619 0.929 . S
H638 C620 0.928 . S
H639 C622 0.932 . S
C640 C641 1.264 . S
C640 C645 1.479 . S
C640 C650 1.465 . S
C641 C640 1.264 . S
C641 C643 1.339 . S
C641 H668 0.931 . S
C642 C643 1.395 . S
C642 C644 1.320 . S
C643 C641 1.339 . S
C643 C642 1.395 . S
C643 H669 0.929 . S
C644 C642 1.320 . S
C644 C645 1.405 . S
C644 H670 0.930 . S
C645 C640 1.479 . S
C645 C644 1.405 . S
C645 H671 0.931 . S
U646 O647 2.454 . S
U646 O648 2.458 . S
U646 C649 2.984 . S
U646 C650 2.847 . S
U646 C663 2.882 . S
U646 O664 2.441 . S
U646 O665 2.420 . S
U646 O666 2.455 . S
U646 O667 2.449 . S
O647 U646 2.454 . S
O647 C649 1.353 . S
O648 U646 2.458 . S
O648 C649 1.286 . S
C649 U646 2.984 . S
C649 O647 1.353 . S
C649 O648 1.286 . S
C649 C651 1.363 . S
C650 C640 1.465 . S
C650 U646 2.847 . S
C650 O664 1.249 . S
C650 O665 1.202 . S
C651 C649 1.363 . S
C651 C653 1.408 . S
C651 C656 1.342 . S
C652 C653 1.310 . S
C652 C655 1.461 . S
C652 H672 0.932 . S
C653 C651 1.408 . S
C653 C652 1.310 . S
C653 H673 0.930 . S
C654 C655 1.474 . S
C654 C656 1.285 . S
C654 H674 0.929 . S
C655 C652 1.461 . S
C655 C654 1.474 . S
C656 C651 1.342 . S
C656 C654 1.285 . S
C656 H675 0.930 . S
C657 C660 1.424 . S
C657 C662 1.245 . S
C657 C663 1.428 . S
C658 C661 1.260 . S
C658 C662 1.477 . S
C658 H676 0.932 . S
C659 C660 1.384 . S
C659 C661 1.479 . S
C659 H677 0.929 . S
C660 C657 1.424 . S
C660 C659 1.384 . S
C660 H678 0.928 . S
C661 C658 1.260 . S
C661 C659 1.479 . S
C662 C657 1.245 . S
C662 C658 1.477 . S
C662 H679 0.932 . S
C663 U646 2.882 . S
C663 C657 1.428 . S
C663 O666 1.301 . S
C663 O667 1.282 . S
O664 U646 2.441 . S
O664 C650 1.249 . S
O665 U646 2.420 . S
O665 C650 1.202 . S
O666 U646 2.455 . S
O666 C663 1.301 . S
O667 U646 2.449 . S
O667 C663 1.282 . S
H668 C641 0.931 . S
H669 C643 0.929 . S
H670 C644 0.930 . S
H671 C645 0.931 . S
H672 C652 0.932 . S
H673 C653 0.930 . S
H674 C654 0.929 . S
H675 C656 0.930 . S
H676 C658 0.932 . S
H677 C659 0.929 . S
H678 C660 0.928 . S
H679 C662 0.932 . S
C680 C681 1.264 . S
C680 C685 1.479 . S
C680 C690 1.465 . S
C681 C680 1.264 . S
C681 C683 1.339 . S
C681 H708 0.931 . S
C682 C683 1.395 . S
C682 C684 1.320 . S
C683 C681 1.339 . S
C683 C682 1.395 . S
C683 H709 0.929 . S
C684 C682 1.320 . S
C684 C685 1.405 . S
C684 H710 0.930 . S
C685 C680 1.479 . S
C685 C684 1.405 . S
C685 H711 0.931 . S
U686 O687 2.454 . S
U686 O688 2.458 . S
U686 C689 2.984 . S
U686 C690 2.847 . S
U686 C703 2.882 . S
U686 O704 2.441 . S
U686 O705 2.420 . S
U686 O706 2.455 . S
U686 O707 2.449 . S
O687 U686 2.454 . S
O687 C689 1.353 . S
O688 U686 2.458 . S
O688 C689 1.286 . S
C689 U686 2.984 . S
C689 O687 1.353 . S
C689 O688 1.286 . S
C689 C691 1.363 . S
C690 C680 1.465 . S
C690 U686 2.847 . S
C690 O704 1.249 . S
C690 O705 1.202 . S
C691 C689 1.363 . S
C691 C693 1.408 . S
C691 C696 1.342 . S
C692 C693 1.310 . S
C692 C695 1.461 . S
C692 H712 0.932 . S
C693 C691 1.408 . S
C693 C692 1.310 . S
C693 H713 0.930 . S
C694 C695 1.474 . S
C694 C696 1.285 . S
C694 H714 0.929 . S
C695 C692 1.461 . S
C695 C694 1.474 . S
C696 C691 1.342 . S
C696 C694 1.285 . S
C696 H715 0.930 . S
C697 C700 1.424 . S
C697 C702 1.245 . S
C697 C703 1.428 . S
C698 C701 1.260 . S
C698 C702 1.477 . S
C698 H716 0.932 . S
C699 C700 1.384 . S
C699 C701 1.479 . S
C699 H717 0.929 . S
C700 C697 1.424 . S
C700 C699 1.384 . S
C700 H718 0.928 . S
C701 C698 1.260 . S
C701 C699 1.479 . S
C702 C697 1.245 . S
C702 C698 1.477 . S
C702 H719 0.932 . S
C703 U686 2.882 . S
C703 C697 1.428 . S
C703 O706 1.301 . S
C703 O707 1.282 . S
O704 U686 2.441 . S
O704 C690 1.249 . S
O705 U686 2.420 . S
O705 C690 1.202 . S
O706 U686 2.455 . S
O706 C703 1.301 . S
O707 U686 2.449 . S
O707 C703 1.282 . S
H708 C681 0.931 . S
H709 C683 0.929 . S
H710 C684 0.930 . S
H711 C685 0.931 . S
H712 C692 0.932 . S
H713 C693 0.930 . S
H714 C694 0.929 . S
H715 C696 0.930 . S
H716 C698 0.932 . S
H717 C699 0.929 . S
H718 C700 0.928 . S
H719 C702 0.932 . S
C720 C721 1.264 . S
C720 C725 1.479 . S
C720 C730 1.465 . S
C721 C720 1.264 . S
C721 C723 1.339 . S
C721 H748 0.931 . S
C722 C723 1.395 . S
C722 C724 1.320 . S
C723 C721 1.339 . S
C723 C722 1.395 . S
C723 H749 0.929 . S
C724 C722 1.320 . S
C724 C725 1.405 . S
C724 H750 0.930 . S
C725 C720 1.479 . S
C725 C724 1.405 . S
C725 H751 0.931 . S
U726 O727 2.454 . S
U726 O728 2.458 . S
U726 C729 2.984 . S
U726 C730 2.847 . S
U726 C743 2.882 . S
U726 O744 2.441 . S
U726 O745 2.420 . S
U726 O746 2.455 . S
U726 O747 2.449 . S
O727 U726 2.454 . S
O727 C729 1.353 . S
O728 U726 2.458 . S
O728 C729 1.286 . S
C729 U726 2.984 . S
C729 O727 1.353 . S
C729 O728 1.286 . S
C729 C731 1.363 . S
C730 C720 1.465 . S
C730 U726 2.847 . S
C730 O744 1.249 . S
C730 O745 1.202 . S
C731 C729 1.363 . S
C731 C733 1.408 . S
C731 C736 1.342 . S
C732 C733 1.310 . S
C732 C735 1.461 . S
C732 H752 0.932 . S
C733 C731 1.408 . S
C733 C732 1.310 . S
C733 H753 0.930 . S
C734 C735 1.474 . S
C734 C736 1.285 . S
C734 H754 0.929 . S
C735 C732 1.461 . S
C735 C734 1.474 . S
C736 C731 1.342 . S
C736 C734 1.285 . S
C736 H755 0.930 . S
C737 C740 1.424 . S
C737 C742 1.245 . S
C737 C743 1.428 . S
C738 C741 1.260 . S
C738 C742 1.477 . S
C738 H756 0.932 . S
C739 C740 1.384 . S
C739 C741 1.479 . S
C739 H757 0.929 . S
C740 C737 1.424 . S
C740 C739 1.384 . S
C740 H758 0.928 . S
C741 C738 1.260 . S
C741 C739 1.479 . S
C742 C737 1.245 . S
C742 C738 1.477 . S
C742 H759 0.932 . S
C743 U726 2.882 . S
C743 C737 1.428 . S
C743 O746 1.301 . S
C743 O747 1.282 . S
O744 U726 2.441 . S
O744 C730 1.249 . S
O745 U726 2.420 . S
O745 C730 1.202 . S
O746 U726 2.455 . S
O746 C743 1.301 . S
O747 U726 2.449 . S
O747 C743 1.282 . S
H748 C721 0.931 . S
H749 C723 0.929 . S
H750 C724 0.930 . S
H751 C725 0.931 . S
H752 C732 0.932 . S
H753 C733 0.930 . S
H754 C734 0.929 . S
H755 C736 0.930 . S
H756 C738 0.932 . S
H757 C739 0.929 . S
H758 C740 0.928 . S
H759 C742 0.932 . S
C760 C761 1.264 . S
C760 C765 1.479 . S
C760 C770 1.465 . S
C761 C760 1.264 . S
C761 C763 1.339 . S
C761 H788 0.931 . S
C762 C763 1.395 . S
C762 C764 1.320 . S
C763 C761 1.339 . S
C763 C762 1.395 . S
C763 H789 0.929 . S
C764 C762 1.320 . S
C764 C765 1.405 . S
C764 H790 0.930 . S
C765 C760 1.479 . S
C765 C764 1.405 . S
C765 H791 0.931 . S
U766 O767 2.454 . S
U766 O768 2.458 . S
U766 C769 2.984 . S
U766 C770 2.847 . S
U766 C783 2.882 . S
U766 O784 2.441 . S
U766 O785 2.420 . S
U766 O786 2.455 . S
U766 O787 2.449 . S
O767 U766 2.454 . S
O767 C769 1.353 . S
O768 U766 2.458 . S
O768 C769 1.286 . S
C769 U766 2.984 . S
C769 O767 1.353 . S
C769 O768 1.286 . S
C769 C771 1.363 . S
C770 C760 1.465 . S
C770 U766 2.847 . S
C770 O784 1.249 . S
C770 O785 1.202 . S
C771 C769 1.363 . S
C771 C773 1.408 . S
C771 C776 1.342 . S
C772 C773 1.310 . S
C772 C775 1.461 . S
C772 H792 0.932 . S
C773 C771 1.408 . S
C773 C772 1.310 . S
C773 H793 0.930 . S
C774 C775 1.474 . S
C774 C776 1.285 . S
C774 H794 0.929 . S
C775 C772 1.461 . S
C775 C774 1.474 . S
C776 C771 1.342 . S
C776 C774 1.285 . S
C776 H795 0.930 . S
C777 C780 1.424 . S
C777 C782 1.245 . S
C777 C783 1.428 . S
C778 C781 1.260 . S
C778 C782 1.477 . S
C778 H796 0.932 . S
C779 C780 1.384 . S
C779 C781 1.479 . S
C779 H797 0.929 . S
C780 C777 1.424 . S
C780 C779 1.384 . S
C780 H798 0.928 . S
C781 C778 1.260 . S
C781 C779 1.479 . S
C782 C777 1.245 . S
C782 C778 1.477 . S
C782 H799 0.932 . S
C783 U766 2.882 . S
C783 C777 1.428 . S
C783 O786 1.301 . S
C783 O787 1.282 . S
O784 U766 2.441 . S
O784 C770 1.249 . S
O785 U766 2.420 . S
O785 C770 1.202 . S
O786 U766 2.455 . S
O786 C783 1.301 . S
O787 U766 2.449 . S
O787 C783 1.282 . S
H788 C761 0.931 . S
H789 C763 0.929 . S
H790 C764 0.930 . S
H791 C765 0.931 . S
H792 C772 0.932 . S
H793 C773 0.930 . S
H794 C774 0.929 . S
H795 C776 0.930 . S
H796 C778 0.932 . S
H797 C779 0.929 . S
H798 C780 0.928 . S
H799 C782 0.932 . S
C800 C801 1.264 . S
C800 C805 1.479 . S
C800 C810 1.465 . S
C801 C800 1.264 . S
C801 C803 1.339 . S
C801 H828 0.931 . S
C802 C803 1.395 . S
C802 C804 1.320 . S
C803 C801 1.339 . S
C803 C802 1.395 . S
C803 H829 0.929 . S
C804 C802 1.320 . S
C804 C805 1.405 . S
C804 H830 0.930 . S
C805 C800 1.479 . S
C805 C804 1.405 . S
C805 H831 0.931 . S
U806 O807 2.454 . S
U806 O808 2.458 . S
U806 C809 2.984 . S
U806 C810 2.847 . S
U806 C823 2.882 . S
U806 O824 2.441 . S
U806 O825 2.420 . S
U806 O826 2.455 . S
U806 O827 2.449 . S
O807 U806 2.454 . S
O807 C809 1.353 . S
O808 U806 2.458 . S
O808 C809 1.286 . S
C809 U806 2.984 . S
C809 O807 1.353 . S
C809 O808 1.286 . S
C809 C811 1.363 . S
C810 C800 1.465 . S
C810 U806 2.847 . S
C810 O824 1.249 . S
C810 O825 1.202 . S
C811 C809 1.363 . S
C811 C813 1.408 . S
C811 C816 1.342 . S
C812 C813 1.310 . S
C812 C815 1.461 . S
C812 H832 0.932 . S
C813 C811 1.408 . S
C813 C812 1.310 . S
C813 H833 0.930 . S
C814 C815 1.474 . S
C814 C816 1.285 . S
C814 H834 0.929 . S
C815 C812 1.461 . S
C815 C814 1.474 . S
C816 C811 1.342 . S
C816 C814 1.285 . S
C816 H835 0.930 . S
C817 C820 1.424 . S
C817 C822 1.245 . S
C817 C823 1.428 . S
C818 C821 1.260 . S
C818 C822 1.477 . S
C818 H836 0.932 . S
C819 C820 1.384 . S
C819 C821 1.479 . S
C819 H837 0.929 . S
C820 C817 1.424 . S
C820 C819 1.384 . S
C820 H838 0.928 . S
C821 C818 1.260 . S
C821 C819 1.479 . S
C822 C817 1.245 . S
C822 C818 1.477 . S
C822 H839 0.932 . S
C823 U806 2.882 . S
C823 C817 1.428 . S
C823 O826 1.301 . S
C823 O827 1.282 . S
O824 U806 2.441 . S
O824 C810 1.249 . S
O825 U806 2.420 . S
O825 C810 1.202 . S
O826 U806 2.455 . S
O826 C823 1.301 . S
O827 U806 2.449 . S
O827 C823 1.282 . S
H828 C801 0.931 . S
H829 C803 0.929 . S
H830 C804 0.930 . S
H831 C805 0.931 . S
H832 C812 0.932 . S
H833 C813 0.930 . S
H834 C814 0.929 . S
H835 C816 0.930 . S
H836 C818 0.932 . S
H837 C819 0.929 . S
H838 C820 0.928 . S
H839 C822 0.932 . S
C840 C841 1.264 . S
C840 C845 1.479 . S
C840 C850 1.465 . S
C841 C840 1.264 . S
C841 C843 1.339 . S
C841 H868 0.931 . S
C842 C843 1.395 . S
C842 C844 1.320 . S
C843 C841 1.339 . S
C843 C842 1.395 . S
C843 H869 0.929 . S
C844 C842 1.320 . S
C844 C845 1.405 . S
C844 H870 0.930 . S
C845 C840 1.479 . S
C845 C844 1.405 . S
C845 H871 0.931 . S
U846 O847 2.454 . S
U846 O848 2.458 . S
U846 C849 2.984 . S
U846 C850 2.847 . S
U846 C863 2.882 . S
U846 O864 2.441 . S
U846 O865 2.420 . S
U846 O866 2.455 . S
U846 O867 2.449 . S
O847 U846 2.454 . S
O847 C849 1.353 . S
O848 U846 2.458 . S
O848 C849 1.286 . S
C849 U846 2.984 . S
C849 O847 1.353 . S
C849 O848 1.286 . S
C849 C851 1.363 . S
C850 C840 1.465 . S
C850 U846 2.847 . S
C850 O864 1.249 . S
C850 O865 1.202 . S
C851 C849 1.363 . S
C851 C853 1.408 . S
C851 C856 1.342 . S
C852 C853 1.310 . S
C852 C855 1.461 . S
C852 H872 0.932 . S
C853 C851 1.408 . S
C853 C852 1.310 . S
C853 H873 0.930 . S
C854 C855 1.474 . S
C854 C856 1.285 . S
C854 H874 0.929 . S
C855 C852 1.461 . S
C855 C854 1.474 . S
C856 C851 1.342 . S
C856 C854 1.285 . S
C856 H875 0.930 . S
C857 C860 1.424 . S
C857 C862 1.245 . S
C857 C863 1.428 . S
C858 C861 1.260 . S
C858 C862 1.477 . S
C858 H876 0.932 . S
C859 C860 1.384 . S
C859 C861 1.479 . S
C859 H877 0.929 . S
C860 C857 1.424 . S
C860 C859 1.384 . S
C860 H878 0.928 . S
C861 C858 1.260 . S
C861 C859 1.479 . S
C862 C857 1.245 . S
C862 C858 1.477 . S
C862 H879 0.932 . S
C863 U846 2.882 . S
C863 C857 1.428 . S
C863 O866 1.301 . S
C863 O867 1.282 . S
O864 U846 2.441 . S
O864 C850 1.249 . S
O865 U846 2.420 . S
O865 C850 1.202 . S
O866 U846 2.455 . S
O866 C863 1.301 . S
O867 U846 2.449 . S
O867 C863 1.282 . S
H868 C841 0.931 . S
H869 C843 0.929 . S
H870 C844 0.930 . S
H871 C845 0.931 . S
H872 C852 0.932 . S
H873 C853 0.930 . S
H874 C854 0.929 . S
H875 C856 0.930 . S
H876 C858 0.932 . S
H877 C859 0.929 . S
H878 C860 0.928 . S
H879 C862 0.932 . S
C880 C881 1.264 . S
C880 C885 1.479 . S
C880 C890 1.465 . S
C881 C880 1.264 . S
C881 C883 1.339 . S
C881 H908 0.931 . S
C882 C883 1.395 . S
C882 C884 1.320 . S
C883 C881 1.339 . S
C883 C882 1.395 . S
C883 H909 0.929 . S
C884 C882 1.320 . S
C884 C885 1.405 . S
C884 H910 0.930 . S
C885 C880 1.479 . S
C885 C884 1.405 . S
C885 H911 0.931 . S
U886 O887 2.454 . S
U886 O888 2.458 . S
U886 C889 2.984 . S
U886 C890 2.847 . S
U886 C903 2.882 . S
U886 O904 2.441 . S
U886 O905 2.420 . S
U886 O906 2.455 . S
U886 O907 2.449 . S
O887 U886 2.454 . S
O887 C889 1.353 . S
O888 U886 2.458 . S
O888 C889 1.286 . S
C889 U886 2.984 . S
C889 O887 1.353 . S
C889 O888 1.286 . S
C889 C891 1.363 . S
C890 C880 1.465 . S
C890 U886 2.847 . S
C890 O904 1.249 . S
C890 O905 1.202 . S
C891 C889 1.363 . S
C891 C893 1.408 . S
C891 C896 1.342 . S
C892 C893 1.310 . S
C892 C895 1.461 . S
C892 H912 0.932 . S
C893 C891 1.408 . S
C893 C892 1.310 . S
C893 H913 0.930 . S
C894 C895 1.474 . S
C894 C896 1.285 . S
C894 H914 0.929 . S
C895 C892 1.461 . S
C895 C894 1.474 . S
C896 C891 1.342 . S
C896 C894 1.285 . S
C896 H915 0.930 . S
C897 C900 1.424 . S
C897 C902 1.245 . S
C897 C903 1.428 . S
C898 C901 1.260 . S
C898 C902 1.477 . S
C898 H916 0.932 . S
C899 C900 1.384 . S
C899 C901 1.479 . S
C899 H917 0.929 . S
C900 C897 1.424 . S
C900 C899 1.384 . S
C900 H918 0.928 . S
C901 C898 1.260 . S
C901 C899 1.479 . S
C902 C897 1.245 . S
C902 C898 1.477 . S
C902 H919 0.932 . S
C903 U886 2.882 . S
C903 C897 1.428 . S
C903 O906 1.301 . S
C903 O907 1.282 . S
O904 U886 2.441 . S
O904 C890 1.249 . S
O905 U886 2.420 . S
O905 C890 1.202 . S
O906 U886 2.455 . S
O906 C903 1.301 . S
O907 U886 2.449 . S
O907 C903 1.282 . S
H908 C881 0.931 . S
H909 C883 0.929 . S
H910 C884 0.930 . S
H911 C885 0.931 . S
H912 C892 0.932 . S
H913 C893 0.930 . S
H914 C894 0.929 . S
H915 C896 0.930 . S
H916 C898 0.932 . S
H917 C899 0.929 . S
H918 C900 0.928 . S
H919 C902 0.932 . S
C920 C921 1.264 . S
C920 C925 1.479 . S
C920 C930 1.465 . S
C921 C920 1.264 . S
C921 C923 1.339 . S
C921 H948 0.931 . S
C922 C923 1.395 . S
C922 C924 1.320 . S
C923 C921 1.339 . S
C923 C922 1.395 . S
C923 H949 0.929 . S
C924 C922 1.320 . S
C924 C925 1.405 . S
C924 H950 0.930 . S
C925 C920 1.479 . S
C925 C924 1.405 . S
C925 H951 0.931 . S
U926 O927 2.454 . S
U926 O928 2.458 . S
U926 C929 2.984 . S
U926 C930 2.847 . S
U926 C943 2.882 . S
U926 O944 2.441 . S
U926 O945 2.420 . S
U926 O946 2.455 . S
U926 O947 2.449 . S
O927 U926 2.454 . S
O927 C929 1.353 . S
O928 U926 2.458 . S
O928 C929 1.286 . S
C929 U926 2.984 . S
C929 O927 1.353 . S
C929 O928 1.286 . S
C929 C931 1.363 . S
C930 C920 1.465 . S
C930 U926 2.847 . S
C930 O944 1.249 . S
C930 O945 1.202 . S
C931 C929 1.363 . S
C931 C933 1.408 . S
C931 C936 1.342 . S
C932 C933 1.310 . S
C932 C935 1.461 . S
C932 H952 0.932 . S
C933 C931 1.408 . S
C933 C932 1.310 . S
C933 H953 0.930 . S
C934 C935 1.474 . S
C934 C936 1.285 . S
C934 H954 0.929 . S
C935 C932 1.461 . S
C935 C934 1.474 . S
C936 C931 1.342 . S
C936 C934 1.285 . S
C936 H955 0.930 . S
C937 C940 1.424 . S
C937 C942 1.245 . S
C937 C943 1.428 . S
C938 C941 1.260 . S
C938 C942 1.477 . S
C938 H956 0.932 . S
C939 C940 1.384 . S
C939 C941 1.479 . S
C939 H957 0.929 . S
C940 C937 1.424 . S
C940 C939 1.384 . S
C940 H958 0.928 . S
C941 C938 1.260 . S
C941 C939 1.479 . S
C942 C937 1.245 . S
C942 C938 1.477 . S
C942 H959 0.932 . S
C943 U926 2.882 . S
C943 C937 1.428 . S
C943 O946 1.301 . S
C943 O947 1.282 . S
O944 U926 2.441 . S
O944 C930 1.249 . S
O945 U926 2.420 . S
O945 C930 1.202 . S
O946 U926 2.455 . S
O946 C943 1.301 . S
O947 U926 2.449 . S
O947 C943 1.282 . S
H948 C921 0.931 . S
H949 C923 0.929 . S
H950 C924 0.930 . S
H951 C925 0.931 . S
H952 C932 0.932 . S
H953 C933 0.930 . S
H954 C934 0.929 . S
H955 C936 0.930 . S
H956 C938 0.932 . S
H957 C939 0.929 . S
H958 C940 0.928 . S
H959 C942 0.932 . S
C960 O986 1.283 . S
C960 O1004 1.283 . S
C961 O987 1.283 . S
C961 O1002 1.283 . S
C962 O988 1.283 . S
C962 O1005 1.283 . S
C963 O989 1.283 . S
C963 O1003 1.283 . S
C964 O990 1.283 . S
C964 O999 1.283 . S
C965 O991 1.283 . S
C965 O1001 1.283 . S
C966 O992 1.283 . S
C966 O998 1.283 . S
C967 O993 1.283 . S
C967 O1000 1.283 . S
C968 O994 1.283 . S
C968 O1009 1.283 . S
C969 O995 1.283 . S
C969 O1007 1.283 . S
C970 O996 1.283 . S
C970 O1008 1.283 . S
C971 O997 1.283 . S
C971 O1006 1.283 . S
Eu972 O973 2.370 1_455 S
Eu972 O974 2.370 . S
Eu972 O977 2.370 1_455 S
Eu972 O978 2.370 . S
Eu972 O986 2.363 . S
Eu972 O987 2.363 . S
Eu972 O1000 2.363 . S
Eu972 O1001 2.363 1_455 S
O973 Eu972 2.370 1_655 S
O973 Eu975 2.358 1_565 S
O973 Eu980 2.359 1_665 S
O974 Eu972 2.370 . S
O974 Eu976 2.359 1_565 S
O974 Eu979 2.358 1_565 S
Eu975 O973 2.358 1_545 S
Eu975 O977 2.358 1_545 S
Eu975 O981 2.383 . S
Eu975 O982 2.383 . S
Eu975 O990 2.384 . S
Eu975 O991 2.342 1_545 S
Eu975 O1006 2.363 . S
Eu975 O1007 2.363 . S
Eu976 O974 2.359 1_545 S
Eu976 O978 2.359 1_545 S
Eu976 O983 2.381 . S
Eu976 O984 2.381 . S
Eu976 O992 2.382 . S
Eu976 O993 2.344 1_545 S
Eu976 O1008 2.363 . S
Eu976 O1009 2.363 . S
O977 Eu972 2.370 1_655 S
O977 Eu975 2.358 1_565 S
O977 Eu979 2.358 1_665 S
O978 Eu972 2.370 . S
O978 Eu976 2.359 1_565 S
O978 Eu980 2.359 1_565 S
Eu979 O974 2.358 1_545 S
Eu979 O977 2.358 1_445 S
Eu979 O981 2.382 1_455 S
Eu979 O984 2.382 . S
Eu979 O996 2.363 . S
Eu979 O997 2.363 1_455 S
Eu979 O1004 2.342 1_545 S
Eu979 O1005 2.384 . S
Eu980 O973 2.359 1_445 S
Eu980 O978 2.359 1_545 S
Eu980 O982 2.382 1_455 S
Eu980 O983 2.382 . S
Eu980 O994 2.363 . S
Eu980 O995 2.363 1_455 S
Eu980 O1002 2.343 1_545 S
Eu980 O1003 2.383 . S
O981 Eu975 2.383 . S
O981 Eu979 2.382 1_655 S
O981 Eu985 2.370 1_655 S
O982 Eu975 2.383 . S
O982 Eu980 2.382 1_655 S
O982 Eu985 2.370 1_655 S
O983 Eu976 2.381 . S
O983 Eu980 2.382 . S
O983 Eu985 2.370 . S
O984 Eu976 2.381 . S
O984 Eu979 2.382 . S
O984 Eu985 2.370 . S
Eu985 O981 2.370 1_455 S
Eu985 O982 2.370 1_455 S
Eu985 O983 2.370 . S
Eu985 O984 2.370 . S
Eu985 O988 2.363 . S
Eu985 O989 2.363 . S
Eu985 O998 2.363 . S
Eu985 O999 2.363 1_455 S
O986 C960 1.283 . S
O986 Eu972 2.363 . S
O987 C961 1.283 . S
O987 Eu972 2.363 . S
O988 C962 1.283 . S
O988 Eu985 2.363 . S
O989 C963 1.283 . S
O989 Eu985 2.363 . S
O990 C964 1.283 . S
O990 Eu975 2.384 . S
O991 C965 1.283 . S
O991 Eu975 2.342 1_565 S
O992 C966 1.283 . S
O992 Eu976 2.382 . S
O993 C967 1.283 . S
O993 Eu976 2.344 1_565 S
O994 C968 1.283 . S
O994 Eu980 2.363 . S
O995 C969 1.283 . S
O995 Eu980 2.363 1_655 S
O996 C970 1.283 . S
O996 Eu979 2.363 . S
O997 C971 1.283 . S
O997 Eu979 2.363 1_655 S
O998 C966 1.283 . S
O998 Eu985 2.363 . S
O999 C964 1.283 . S
O999 Eu985 2.363 1_655 S
O1000 C967 1.283 . S
O1000 Eu972 2.363 . S
O1001 C965 1.283 . S
O1001 Eu972 2.363 1_655 S
O1002 C961 1.283 . S
O1002 Eu980 2.343 1_565 S
O1003 C963 1.283 . S
O1003 Eu980 2.383 . S
O1004 C960 1.283 . S
O1004 Eu979 2.342 1_565 S
O1005 C962 1.283 . S
O1005 Eu979 2.384 . S
O1006 C971 1.283 . S
O1006 Eu975 2.363 . S
O1007 C969 1.283 . S
O1007 Eu975 2.363 . S
O1008 C970 1.283 . S
O1008 Eu976 2.363 . S
O1009 C968 1.283 . S
O1009 Eu976 2.363 . S
C1010 O1036 1.283 . S
C1010 O1054 1.283 . S
C1011 O1037 1.283 . S
C1011 O1052 1.283 . S
C1012 O1038 1.283 . S
C1012 O1055 1.283 . S
C1013 O1039 1.283 . S
C1013 O1053 1.283 . S
C1014 O1040 1.283 . S
C1014 O1049 1.283 . S
C1015 O1041 1.283 . S
C1015 O1051 1.283 . S
C1016 O1042 1.283 . S
C1016 O1048 1.283 . S
C1017 O1043 1.283 . S
C1017 O1050 1.283 . S
C1018 O1044 1.283 . S
C1018 O1059 1.283 . S
C1019 O1045 1.283 . S
C1019 O1057 1.283 . S
C1020 O1046 1.283 . S
C1020 O1058 1.283 . S
C1021 O1047 1.283 . S
C1021 O1056 1.283 . S
Eu1022 O1023 2.389 . S
Eu1022 O1024 2.352 1_545 S
Eu1022 O1027 2.352 1_545 S
Eu1022 O1028 2.389 . S
Eu1022 O1036 2.332 1_545 S
Eu1022 O1037 2.394 . S
Eu1022 O1050 2.363 . S
Eu1022 O1051 2.363 . S
O1023 Eu1022 2.389 . S
O1023 Eu1025 2.397 . S
O1023 Eu1030 2.378 . S
O1024 Eu1022 2.352 1_565 S
O1024 Eu1026 2.357 1_565 S
O1024 Eu1029 2.375 . S
Eu1025 O1023 2.397 . S
Eu1025 O1027 2.357 1_545 S
Eu1025 O1031 2.343 1_544 S
Eu1025 O1032 2.384 1_554 S
Eu1025 O1040 2.352 1_554 S
Eu1025 O1041 2.374 . S
Eu1025 O1056 2.329 1_545 S
Eu1025 O1057 2.397 . S
Eu1026 O1024 2.357 1_545 S
Eu1026 O1028 2.397 . S
Eu1026 O1033 2.383 1_554 S
Eu1026 O1034 2.344 1_544 S
Eu1026 O1042 2.351 1_554 S
Eu1026 O1043 2.375 . S
Eu1026 O1058 2.330 1_545 S
Eu1026 O1059 2.396 . S
O1027 Eu1022 2.352 1_565 S
O1027 Eu1025 2.357 1_565 S
O1027 Eu1029 2.375 . S
O1028 Eu1022 2.389 . S
O1028 Eu1026 2.397 . S
O1028 Eu1030 2.378 . S
Eu1029 O1024 2.375 . S
Eu1029 O1027 2.375 . S
Eu1029 O1031 2.365 1_554 S
Eu1029 O1034 2.365 1_554 S
Eu1029 O1046 2.363 . S
Eu1029 O1047 2.363 . S
Eu1029 O1054 2.372 . S
Eu1029 O1055 2.354 1_554 S
Eu1030 O1023 2.378 . S
Eu1030 O1028 2.378 . S
Eu1030 O1032 2.362 1_554 S
Eu1030 O1033 2.362 1_554 S
Eu1030 O1044 2.363 . S
Eu1030 O1045 2.363 . S
Eu1030 O1052 2.377 . S
Eu1030 O1053 2.349 1_554 S
O1031 Eu1025 2.343 1_566 S
O1031 Eu1029 2.365 1_556 S
O1031 Eu1035 2.349 1_565 S
O1032 Eu1025 2.384 1_556 S
O1032 Eu1030 2.362 1_556 S
O1032 Eu1035 2.392 . S
O1033 Eu1026 2.383 1_556 S
O1033 Eu1030 2.362 1_556 S
O1033 Eu1035 2.392 . S
O1034 Eu1026 2.344 1_566 S
O1034 Eu1029 2.365 1_556 S
O1034 Eu1035 2.349 1_565 S
Eu1035 O1031 2.349 1_545 S
Eu1035 O1032 2.392 . S
Eu1035 O1033 2.392 . S
Eu1035 O1034 2.349 1_545 S
Eu1035 O1038 2.327 1_545 S
Eu1035 O1039 2.400 . S
Eu1035 O1048 2.363 . S
Eu1035 O1049 2.363 . S
O1036 C1010 1.283 . S
O1036 Eu1022 2.332 1_565 S
O1037 C1011 1.283 . S
O1037 Eu1022 2.394 . S
O1038 C1012 1.283 . S
O1038 Eu1035 2.327 1_565 S
O1039 C1013 1.283 . S
O1039 Eu1035 2.400 . S
O1040 C1014 1.283 . S
O1040 Eu1025 2.352 1_556 S
O1041 C1015 1.283 . S
O1041 Eu1025 2.374 . S
O1042 C1016 1.283 . S
O1042 Eu1026 2.351 1_556 S
O1043 C1017 1.283 . S
O1043 Eu1026 2.375 . S
O1044 C1018 1.283 . S
O1044 Eu1030 2.363 . S
O1045 C1019 1.283 . S
O1045 Eu1030 2.363 . S
O1046 C1020 1.283 . S
O1046 Eu1029 2.363 . S
O1047 C1021 1.283 . S
O1047 Eu1029 2.363 . S
O1048 C1016 1.283 . S
O1048 Eu1035 2.363 . S
O1049 C1014 1.283 . S
O1049 Eu1035 2.363 . S
O1050 C1017 1.283 . S
O1050 Eu1022 2.363 . S
O1051 C1015 1.283 . S
O1051 Eu1022 2.363 . S
O1052 C1011 1.283 . S
O1052 Eu1030 2.377 . S
O1053 C1013 1.283 . S
O1053 Eu1030 2.349 1_556 S
O1054 C1010 1.283 . S
O1054 Eu1029 2.372 . S
O1055 C1012 1.283 . S
O1055 Eu1029 2.354 1_556 S
O1056 C1021 1.283 . S
O1056 Eu1025 2.329 1_565 S
O1057 C1019 1.283 . S
O1057 Eu1025 2.397 . S
O1058 C1020 1.283 . S
O1058 Eu1026 2.330 1_565 S
O1059 C1018 1.283 . S
O1059 Eu1026 2.396 . S
C1060 O1086 1.283 . S
C1060 O1104 1.283 . S
C1061 O1087 1.283 . S
C1061 O1102 1.283 . S
C1062 O1088 1.283 . S
C1062 O1105 1.283 . S
C1063 O1089 1.283 . S
C1063 O1103 1.283 . S
C1064 O1090 1.283 . S
C1064 O1099 1.283 . S
C1065 O1091 1.283 . S
C1065 O1101 1.283 . S
C1066 O1092 1.283 . S
C1066 O1098 1.283 . S
C1067 O1093 1.283 . S
C1067 O1100 1.283 . S
C1068 O1094 1.283 . S
C1068 O1109 1.283 . S
C1069 O1095 1.283 . S
C1069 O1107 1.283 . S
C1070 O1096 1.283 . S
C1070 O1108 1.283 . S
C1071 O1097 1.283 . S
C1071 O1106 1.283 . S
Eu1072 O1073 2.327 1_454 S
Eu1072 O1074 2.414 . S
Eu1072 O1077 2.372 1_455 S
Eu1072 O1078 2.370 1_554 S
Eu1072 O1086 2.400 . S
Eu1072 O1087 2.326 1_554 S
Eu1072 O1100 2.399 . S
Eu1072 O1101 2.327 1_455 S
O1073 Eu1072 2.327 1_656 S
O1073 Eu1075 2.349 1_556 S
O1073 Eu1080 2.349 1_655 S
O1074 Eu1072 2.414 . S
O1074 Eu1076 2.393 . S
O1074 Eu1079 2.391 . S
Eu1075 O1073 2.349 1_554 S
Eu1075 O1077 2.391 . S
Eu1075 O1081 2.391 . S
Eu1075 O1082 2.349 1_554 S
Eu1075 O1090 2.363 . S
Eu1075 O1091 2.363 . S
Eu1075 O1106 2.398 . S
Eu1075 O1107 2.327 1_554 S
Eu1076 O1074 2.393 . S
Eu1076 O1078 2.348 1_554 S
Eu1076 O1083 2.348 1_554 S
Eu1076 O1084 2.393 . S
Eu1076 O1092 2.363 . S
Eu1076 O1093 2.363 . S
Eu1076 O1108 2.401 . S
Eu1076 O1109 2.325 1_554 S
O1077 Eu1072 2.372 1_655 S
O1077 Eu1075 2.391 . S
O1077 Eu1079 2.350 1_655 S
O1078 Eu1072 2.370 1_556 S
O1078 Eu1076 2.348 1_556 S
O1078 Eu1080 2.392 . S
Eu1079 O1074 2.391 . S
Eu1079 O1077 2.350 1_455 S
Eu1079 O1081 2.350 1_455 S
Eu1079 O1084 2.391 . S
Eu1079 O1096 2.397 . S
Eu1079 O1097 2.329 1_455 S
Eu1079 O1104 2.363 . S
Eu1079 O1105 2.363 . S
Eu1080 O1073 2.349 1_455 S
Eu1080 O1078 2.392 . S
Eu1080 O1082 2.348 1_455 S
Eu1080 O1083 2.392 . S
Eu1080 O1094 2.400 . S
Eu1080 O1095 2.326 1_455 S
Eu1080 O1102 2.363 . S
Eu1080 O1103 2.363 . S
O1081 Eu1075 2.391 . S
O1081 Eu1079 2.350 1_655 S
O1081 Eu1085 2.371 1_655 S
O1082 Eu1075 2.349 1_556 S
O1082 Eu1080 2.348 1_655 S
O1082 Eu1085 2.328 1_656 S
O1083 Eu1076 2.348 1_556 S
O1083 Eu1080 2.392 . S
O1083 Eu1085 2.370 1_556 S
O1084 Eu1076 2.393 . S
O1084 Eu1079 2.391 . S
O1084 Eu1085 2.412 . S
Eu1085 O1081 2.371 1_455 S
Eu1085 O1082 2.328 1_454 S
Eu1085 O1083 2.370 1_554 S
Eu1085 O1084 2.412 . S
Eu1085 O1088 2.399 . S
Eu1085 O1089 2.327 1_554 S
Eu1085 O1098 2.398 . S
Eu1085 O1099 2.328 1_455 S
O1086 C1060 1.283 . S
O1086 Eu1072 2.400 . S
O1087 C1061 1.283 . S
O1087 Eu1072 2.326 1_556 S
O1088 C1062 1.283 . S
O1088 Eu1085 2.399 . S
O1089 C1063 1.283 . S
O1089 Eu1085 2.327 1_556 S
O1090 C1064 1.283 . S
O1090 Eu1075 2.363 . S
O1091 C1065 1.283 . S
O1091 Eu1075 2.363 . S
O1092 C1066 1.283 . S
O1092 Eu1076 2.363 . S
O1093 C1067 1.283 . S
O1093 Eu1076 2.363 . S
O1094 C1068 1.283 . S
O1094 Eu1080 2.400 . S
O1095 C1069 1.283 . S
O1095 Eu1080 2.326 1_655 S
O1096 C1070 1.283 . S
O1096 Eu1079 2.397 . S
O1097 C1071 1.283 . S
O1097 Eu1079 2.329 1_655 S
O1098 C1066 1.283 . S
O1098 Eu1085 2.398 . S
O1099 C1064 1.283 . S
O1099 Eu1085 2.328 1_655 S
O1100 C1067 1.283 . S
O1100 Eu1072 2.399 . S
O1101 C1065 1.283 . S
O1101 Eu1072 2.327 1_655 S
O1102 C1061 1.283 . S
O1102 Eu1080 2.363 . S
O1103 C1063 1.283 . S
O1103 Eu1080 2.363 . S
O1104 C1060 1.283 . S
O1104 Eu1079 2.363 . S
O1105 C1062 1.283 . S
O1105 Eu1079 2.363 . S
O1106 C1071 1.283 . S
O1106 Eu1075 2.398 . S
O1107 C1069 1.283 . S
O1107 Eu1075 2.327 1_556 S
O1108 C1070 1.283 . S
O1108 Eu1076 2.401 . S
O1109 C1068 1.283 . S
O1109 Eu1076 2.325 1_556 S
C1110 O1136 1.283 . S
C1110 O1154 1.283 . S
C1111 O1137 1.283 . S
C1111 O1152 1.283 . S
C1112 O1138 1.283 . S
C1112 O1155 1.283 . S
C1113 O1139 1.283 . S
C1113 O1153 1.283 . S
C1114 O1140 1.283 . S
C1114 O1149 1.283 . S
C1115 O1141 1.283 . S
C1115 O1151 1.283 . S
C1116 O1142 1.283 . S
C1116 O1148 1.283 . S
C1117 O1143 1.283 . S
C1117 O1150 1.283 . S
C1118 O1144 1.283 . S
C1118 O1159 1.283 . S
C1119 O1145 1.283 . S
C1119 O1157 1.283 . S
C1120 O1146 1.283 . S
C1120 O1158 1.283 . S
C1121 O1147 1.283 . S
C1121 O1156 1.283 . S
Eu1122 O1123 2.370 . S
Eu1122 O1124 2.370 . S
Eu1122 O1127 2.370 . S
Eu1122 O1128 2.370 . S
Eu1122 O1136 2.363 . S
Eu1122 O1137 2.363 . S
Eu1122 O1150 2.363 . S
Eu1122 O1151 2.363 . S
O1123 Eu1122 2.370 . S
O1123 Eu1125 2.383 . S
O1123 Eu1130 2.383 . S
O1124 Eu1122 2.370 . S
O1124 Eu1126 2.384 . S
O1124 Eu1129 2.384 . S
Eu1125 O1123 2.383 . S
Eu1125 O1127 2.383 . S
Eu1125 O1131 2.357 1_554 S
Eu1125 O1132 2.357 1_554 S
Eu1125 O1140 2.341 1_554 S
Eu1125 O1141 2.385 . S
Eu1125 O1156 2.363 . S
Eu1125 O1157 2.363 . S
Eu1126 O1124 2.384 . S
Eu1126 O1128 2.384 . S
Eu1126 O1133 2.357 1_554 S
Eu1126 O1134 2.357 1_554 S
Eu1126 O1142 2.340 1_554 S
Eu1126 O1143 2.386 . S
Eu1126 O1158 2.363 . S
Eu1126 O1159 2.363 . S
O1127 Eu1122 2.370 . S
O1127 Eu1125 2.383 . S
O1127 Eu1129 2.384 . S
O1128 Eu1122 2.370 . S
O1128 Eu1126 2.384 . S
O1128 Eu1130 2.383 . S
Eu1129 O1124 2.384 . S
Eu1129 O1127 2.384 . S
Eu1129 O1131 2.356 1_554 S
Eu1129 O1134 2.356 1_554 S
Eu1129 O1146 2.363 . S
Eu1129 O1147 2.363 . S
Eu1129 O1154 2.386 . S
Eu1129 O1155 2.340 1_554 S
Eu1130 O1123 2.383 . S
Eu1130 O1128 2.383 . S
Eu1130 O1132 2.357 1_554 S
Eu1130 O1133 2.357 1_554 S
Eu1130 O1144 2.363 . S
Eu1130 O1145 2.363 . S
Eu1130 O1152 2.385 . S
Eu1130 O1153 2.341 1_554 S
O1131 Eu1125 2.357 1_556 S
O1131 Eu1129 2.356 1_556 S
O1131 Eu1135 2.370 . S
O1132 Eu1125 2.357 1_556 S
O1132 Eu1130 2.357 1_556 S
O1132 Eu1135 2.370 . S
O1133 Eu1126 2.357 1_556 S
O1133 Eu1130 2.357 1_556 S
O1133 Eu1135 2.370 . S
O1134 Eu1126 2.357 1_556 S
O1134 Eu1129 2.356 1_556 S
O1134 Eu1135 2.370 . S
Eu1135 O1131 2.370 . S
Eu1135 O1132 2.370 . S
Eu1135 O1133 2.370 . S
Eu1135 O1134 2.370 . S
Eu1135 O1138 2.363 . S
Eu1135 O1139 2.363 . S
Eu1135 O1148 2.363 . S
Eu1135 O1149 2.363 . S
O1136 C1110 1.283 . S
O1136 Eu1122 2.363 . S
O1137 C1111 1.283 . S
O1137 Eu1122 2.363 . S
O1138 C1112 1.283 . S
O1138 Eu1135 2.363 . S
O1139 C1113 1.283 . S
O1139 Eu1135 2.363 . S
O1140 C1114 1.283 . S
O1140 Eu1125 2.341 1_556 S
O1141 C1115 1.283 . S
O1141 Eu1125 2.385 . S
O1142 C1116 1.283 . S
O1142 Eu1126 2.340 1_556 S
O1143 C1117 1.283 . S
O1143 Eu1126 2.386 . S
O1144 C1118 1.283 . S
O1144 Eu1130 2.363 . S
O1145 C1119 1.283 . S
O1145 Eu1130 2.363 . S
O1146 C1120 1.283 . S
O1146 Eu1129 2.363 . S
O1147 C1121 1.283 . S
O1147 Eu1129 2.363 . S
O1148 C1116 1.283 . S
O1148 Eu1135 2.363 . S
O1149 C1114 1.283 . S
O1149 Eu1135 2.363 . S
O1150 C1117 1.283 . S
O1150 Eu1122 2.363 . S
O1151 C1115 1.283 . S
O1151 Eu1122 2.363 . S
O1152 C1111 1.283 . S
O1152 Eu1130 2.385 . S
O1153 C1113 1.283 . S
O1153 Eu1130 2.341 1_556 S
O1154 C1110 1.283 . S
O1154 Eu1129 2.386 . S
O1155 C1112 1.283 . S
O1155 Eu1129 2.340 1_556 S
O1156 C1121 1.283 . S
O1156 Eu1125 2.363 . S
O1157 C1119 1.283 . S
O1157 Eu1125 2.363 . S
O1158 C1120 1.283 . S
O1158 Eu1126 2.363 . S
O1159 C1118 1.283 . S
O1159 Eu1126 2.363 . S
C1160 O1186 1.283 . S
C1160 O1204 1.283 . S
C1161 O1187 1.283 . S
C1161 O1202 1.283 . S
C1162 O1188 1.283 . S
C1162 O1205 1.283 . S
C1163 O1189 1.283 . S
C1163 O1203 1.283 . S
C1164 O1190 1.283 . S
C1164 O1199 1.283 . S
C1165 O1191 1.283 . S
C1165 O1201 1.283 . S
C1166 O1192 1.283 . S
C1166 O1198 1.283 . S
C1167 O1193 1.283 . S
C1167 O1200 1.283 . S
C1168 O1194 1.283 . S
C1168 O1209 1.283 . S
C1169 O1195 1.283 . S
C1169 O1207 1.283 . S
C1170 O1196 1.283 . S
C1170 O1208 1.283 . S
C1171 O1197 1.283 . S
C1171 O1206 1.283 . S
Eu1172 O1173 2.343 1_455 S
Eu1172 O1174 2.398 . S
Eu1172 O1177 2.343 1_455 S
Eu1172 O1178 2.398 . S
Eu1172 O1186 2.363 . S
Eu1172 O1187 2.363 . S
Eu1172 O1200 2.410 . S
Eu1172 O1201 2.316 1_455 S
O1173 Eu1172 2.343 1_655 S
O1173 Eu1175 2.370 . S
O1173 Eu1180 2.343 1_655 S
O1174 Eu1172 2.398 . S
O1174 Eu1176 2.370 . S
O1174 Eu1179 2.398 . S
Eu1175 O1173 2.370 . S
Eu1175 O1177 2.370 . S
Eu1175 O1181 2.370 . S
Eu1175 O1182 2.370 . S
Eu1175 O1190 2.363 . S
Eu1175 O1191 2.363 . S
Eu1175 O1206 2.363 . S
Eu1175 O1207 2.363 . S
Eu1176 O1174 2.370 . S
Eu1176 O1178 2.370 . S
Eu1176 O1183 2.370 . S
Eu1176 O1184 2.370 . S
Eu1176 O1192 2.363 . S
Eu1176 O1193 2.363 . S
Eu1176 O1208 2.363 . S
Eu1176 O1209 2.363 . S
O1177 Eu1172 2.343 1_655 S
O1177 Eu1175 2.370 . S
O1177 Eu1179 2.343 1_655 S
O1178 Eu1172 2.398 . S
O1178 Eu1176 2.370 . S
O1178 Eu1180 2.398 . S
Eu1179 O1174 2.398 . S
Eu1179 O1177 2.343 1_455 S
Eu1179 O1181 2.343 1_455 S
Eu1179 O1184 2.398 . S
Eu1179 O1196 2.410 . S
Eu1179 O1197 2.316 1_455 S
Eu1179 O1204 2.363 . S
Eu1179 O1205 2.363 . S
Eu1180 O1173 2.343 1_455 S
Eu1180 O1178 2.398 . S
Eu1180 O1182 2.343 1_455 S
Eu1180 O1183 2.398 . S
Eu1180 O1194 2.409 . S
Eu1180 O1195 2.317 1_455 S
Eu1180 O1202 2.363 . S
Eu1180 O1203 2.363 . S
O1181 Eu1175 2.370 . S
O1181 Eu1179 2.343 1_655 S
O1181 Eu1185 2.343 1_655 S
O1182 Eu1175 2.370 . S
O1182 Eu1180 2.343 1_655 S
O1182 Eu1185 2.343 1_655 S
O1183 Eu1176 2.370 . S
O1183 Eu1180 2.398 . S
O1183 Eu1185 2.398 . S
O1184 Eu1176 2.370 . S
O1184 Eu1179 2.398 . S
O1184 Eu1185 2.398 . S
Eu1185 O1181 2.343 1_455 S
Eu1185 O1182 2.343 1_455 S
Eu1185 O1183 2.398 . S
Eu1185 O1184 2.398 . S
Eu1185 O1188 2.363 . S
Eu1185 O1189 2.363 . S
Eu1185 O1198 2.409 . S
Eu1185 O1199 2.317 1_455 S
O1186 C1160 1.283 . S
O1186 Eu1172 2.363 . S
O1187 C1161 1.283 . S
O1187 Eu1172 2.363 . S
O1188 C1162 1.283 . S
O1188 Eu1185 2.363 . S
O1189 C1163 1.283 . S
O1189 Eu1185 2.363 . S
O1190 C1164 1.283 . S
O1190 Eu1175 2.363 . S
O1191 C1165 1.283 . S
O1191 Eu1175 2.363 . S
O1192 C1166 1.283 . S
O1192 Eu1176 2.363 . S
O1193 C1167 1.283 . S
O1193 Eu1176 2.363 . S
O1194 C1168 1.283 . S
O1194 Eu1180 2.409 . S
O1195 C1169 1.283 . S
O1195 Eu1180 2.317 1_655 S
O1196 C1170 1.283 . S
O1196 Eu1179 2.410 . S
O1197 C1171 1.283 . S
O1197 Eu1179 2.316 1_655 S
O1198 C1166 1.283 . S
O1198 Eu1185 2.409 . S
O1199 C1164 1.283 . S
O1199 Eu1185 2.317 1_655 S
O1200 C1167 1.283 . S
O1200 Eu1172 2.410 . S
O1201 C1165 1.283 . S
O1201 Eu1172 2.316 1_655 S
O1202 C1161 1.283 . S
O1202 Eu1180 2.363 . S
O1203 C1163 1.283 . S
O1203 Eu1180 2.363 . S
O1204 C1160 1.283 . S
O1204 Eu1179 2.363 . S
O1205 C1162 1.283 . S
O1205 Eu1179 2.363 . S
O1206 C1171 1.283 . S
O1206 Eu1175 2.363 . S
O1207 C1169 1.283 . S
O1207 Eu1175 2.363 . S
O1208 C1170 1.283 . S
O1208 Eu1176 2.363 . S
O1209 C1168 1.283 . S
O1209 Eu1176 2.363 . S
C1210 O1236 1.283 . S
C1210 O1254 1.283 . S
C1211 O1237 1.283 . S
C1211 O1252 1.283 . S
C1212 O1238 1.283 . S
C1212 O1255 1.283 . S
C1213 O1239 1.283 . S
C1213 O1253 1.283 . S
C1214 O1240 1.283 . S
C1214 O1249 1.283 . S
C1215 O1241 1.283 . S
C1215 O1251 1.283 . S
C1216 O1242 1.283 . S
C1216 O1248 1.283 . S
C1217 O1243 1.283 . S
C1217 O1250 1.283 . S
C1218 O1244 1.283 . S
C1218 O1259 1.283 . S
C1219 O1245 1.283 . S
C1219 O1257 1.283 . S
C1220 O1246 1.283 . S
C1220 O1258 1.283 . S
C1221 O1247 1.283 . S
C1221 O1256 1.283 . S
Eu1222 O1223 2.370 . S
Eu1222 O1224 2.370 . S
Eu1222 O1227 2.370 . S
Eu1222 O1228 2.370 . S
Eu1222 O1236 2.363 . S
Eu1222 O1237 2.363 . S
Eu1222 O1250 2.363 . S
Eu1222 O1251 2.363 . S
O1223 Eu1222 2.370 . S
O1223 Eu1225 2.348 1_565 S
O1223 Eu1230 2.348 1_565 S
O1224 Eu1222 2.370 . S
O1224 Eu1226 2.348 1_565 S
O1224 Eu1229 2.348 1_565 S
Eu1225 O1223 2.348 1_545 S
Eu1225 O1227 2.348 1_545 S
Eu1225 O1231 2.392 . S
Eu1225 O1232 2.392 . S
Eu1225 O1240 2.400 . S
Eu1225 O1241 2.326 1_545 S
Eu1225 O1256 2.363 . S
Eu1225 O1257 2.363 . S
Eu1226 O1224 2.348 1_545 S
Eu1226 O1228 2.348 1_545 S
Eu1226 O1233 2.393 . S
Eu1226 O1234 2.393 . S
Eu1226 O1242 2.401 . S
Eu1226 O1243 2.325 1_545 S
Eu1226 O1258 2.363 . S
Eu1226 O1259 2.363 . S
O1227 Eu1222 2.370 . S
O1227 Eu1225 2.348 1_565 S
O1227 Eu1229 2.348 1_565 S
O1228 Eu1222 2.370 . S
O1228 Eu1226 2.348 1_565 S
O1228 Eu1230 2.348 1_565 S
Eu1229 O1224 2.348 1_545 S
Eu1229 O1227 2.348 1_545 S
Eu1229 O1231 2.393 . S
Eu1229 O1234 2.393 . S
Eu1229 O1246 2.363 . S
Eu1229 O1247 2.363 . S
Eu1229 O1254 2.325 1_545 S
Eu1229 O1255 2.401 . S
Eu1230 O1223 2.348 1_545 S
Eu1230 O1228 2.348 1_545 S
Eu1230 O1232 2.392 . S
Eu1230 O1233 2.392 . S
Eu1230 O1244 2.363 . S
Eu1230 O1245 2.363 . S
Eu1230 O1252 2.326 1_545 S
Eu1230 O1253 2.400 . S
O1231 Eu1225 2.392 . S
O1231 Eu1229 2.393 . S
O1231 Eu1235 2.370 . S
O1232 Eu1225 2.392 . S
O1232 Eu1230 2.392 . S
O1232 Eu1235 2.370 . S
O1233 Eu1226 2.393 . S
O1233 Eu1230 2.392 . S
O1233 Eu1235 2.370 . S
O1234 Eu1226 2.393 . S
O1234 Eu1229 2.393 . S
O1234 Eu1235 2.370 . S
Eu1235 O1231 2.370 . S
Eu1235 O1232 2.370 . S
Eu1235 O1233 2.370 . S
Eu1235 O1234 2.370 . S
Eu1235 O1238 2.363 . S
Eu1235 O1239 2.363 . S
Eu1235 O1248 2.363 . S
Eu1235 O1249 2.363 . S
O1236 C1210 1.283 . S
O1236 Eu1222 2.363 . S
O1237 C1211 1.283 . S
O1237 Eu1222 2.363 . S
O1238 C1212 1.283 . S
O1238 Eu1235 2.363 . S
O1239 C1213 1.283 . S
O1239 Eu1235 2.363 . S
O1240 C1214 1.283 . S
O1240 Eu1225 2.400 . S
O1241 C1215 1.283 . S
O1241 Eu1225 2.326 1_565 S
O1242 C1216 1.283 . S
O1242 Eu1226 2.401 . S
O1243 C1217 1.283 . S
O1243 Eu1226 2.325 1_565 S
O1244 C1218 1.283 . S
O1244 Eu1230 2.363 . S
O1245 C1219 1.283 . S
O1245 Eu1230 2.363 . S
O1246 C1220 1.283 . S
O1246 Eu1229 2.363 . S
O1247 C1221 1.283 . S
O1247 Eu1229 2.363 . S
O1248 C1216 1.283 . S
O1248 Eu1235 2.363 . S
O1249 C1214 1.283 . S
O1249 Eu1235 2.363 . S
O1250 C1217 1.283 . S
O1250 Eu1222 2.363 . S
O1251 C1215 1.283 . S
O1251 Eu1222 2.363 . S
O1252 C1211 1.283 . S
O1252 Eu1230 2.326 1_565 S
O1253 C1213 1.283 . S
O1253 Eu1230 2.400 . S
O1254 C1210 1.283 . S
O1254 Eu1229 2.325 1_565 S
O1255 C1212 1.283 . S
O1255 Eu1229 2.401 . S
O1256 C1221 1.283 . S
O1256 Eu1225 2.363 . S
O1257 C1219 1.283 . S
O1257 Eu1225 2.363 . S
O1258 C1220 1.283 . S
O1258 Eu1226 2.363 . S
O1259 C1218 1.283 . S
O1259 Eu1226 2.363 . S
H1260 C1266 0.930 . S
H1261 C1270 0.930 . S
H1262 C1275 0.929 . S
H1263 C1273 0.929 . S
H1264 C1268 0.929 . S
H1265 C1274 0.929 . S
C1266 H1260 0.930 . S
C1266 C1267 1.367 . S
C1266 C1274 1.378 . S
C1267 C1266 1.367 . S
C1267 C1275 1.433 . S
C1268 H1264 0.929 . S
C1268 C1270 1.378 . S
C1268 C1272 1.350 . S
C1269 C1272 1.463 . S
C1269 C1274 1.350 . S
C1269 N1277 1.427 . S
C1270 H1261 0.930 . S
C1270 C1268 1.378 . S
C1270 C1271 1.367 . S
C1271 C1270 1.367 . S
C1271 C1273 1.433 . S
C1272 C1268 1.350 . S
C1272 C1269 1.463 . S
C1272 N1276 1.427 . S
C1273 H1263 0.929 . S
C1273 C1271 1.433 . S
C1273 N1276 1.384 . S
C1274 H1265 0.929 . S
C1274 C1266 1.378 . S
C1274 C1269 1.350 . S
C1275 H1262 0.929 . S
C1275 C1267 1.433 . S
C1275 N1277 1.384 . S
N1276 C1272 1.427 . S
N1276 C1273 1.384 . S
N1277 C1269 1.427 . S
N1277 C1275 1.384 . S
H1278 C1284 0.930 . S
H1279 C1288 0.930 . S
H1280 C1293 0.929 . S
H1281 C1291 0.929 . S
H1282 C1286 0.929 . S
H1283 C1292 0.929 . S
C1284 H1278 0.930 . S
C1284 C1285 1.367 . S
C1284 C1292 1.378 . S
C1285 C1284 1.367 . S
C1285 C1293 1.433 . S
C1286 H1282 0.929 . S
C1286 C1288 1.378 . S
C1286 C1290 1.350 . S
C1287 C1290 1.463 . S
C1287 C1292 1.350 . S
C1287 N1295 1.427 . S
C1288 H1279 0.930 . S
C1288 C1286 1.378 . S
C1288 C1289 1.367 . S
C1289 C1288 1.367 . S
C1289 C1291 1.433 . S
C1290 C1286 1.350 . S
C1290 C1287 1.463 . S
C1290 N1294 1.427 . S
C1291 H1281 0.929 . S
C1291 C1289 1.433 . S
C1291 N1294 1.384 . S
C1292 H1283 0.929 . S
C1292 C1284 1.378 . S
C1292 C1287 1.350 . S
C1293 H1280 0.929 . S
C1293 C1285 1.433 . S
C1293 N1295 1.384 . S
N1294 C1290 1.427 . S
N1294 C1291 1.384 . S
N1295 C1287 1.427 . S
N1295 C1293 1.384 . S
H1296 C1302 0.930 . S
H1297 C1306 0.930 . S
H1298 C1311 0.929 . S
H1299 C1309 0.929 . S
H1300 C1304 0.929 . S
H1301 C1310 0.929 . S
C1302 H1296 0.930 . S
C1302 C1303 1.367 . S
C1302 C1310 1.378 . S
C1303 C1302 1.367 . S
C1303 C1311 1.433 . S
C1304 H1300 0.929 . S
C1304 C1306 1.378 . S
C1304 C1308 1.350 . S
C1305 C1308 1.463 . S
C1305 C1310 1.350 . S
C1305 N1313 1.427 . S
C1306 H1297 0.930 . S
C1306 C1304 1.378 . S
C1306 C1307 1.367 . S
C1307 C1306 1.367 . S
C1307 C1309 1.433 . S
C1308 C1304 1.350 . S
C1308 C1305 1.463 . S
C1308 N1312 1.427 . S
C1309 H1299 0.929 . S
C1309 C1307 1.433 . S
C1309 N1312 1.384 . S
C1310 H1301 0.929 . S
C1310 C1302 1.378 . S
C1310 C1305 1.350 . S
C1311 H1298 0.929 . S
C1311 C1303 1.433 . S
C1311 N1313 1.384 . S
N1312 C1308 1.427 . S
N1312 C1309 1.384 . S
N1313 C1305 1.427 . S
N1313 C1311 1.384 . S
H1314 C1320 0.930 . S
H1315 C1324 0.930 . S
H1316 C1329 0.929 . S
H1317 C1327 0.929 . S
H1318 C1322 0.929 . S
H1319 C1328 0.929 . S
C1320 H1314 0.930 . S
C1320 C1321 1.367 . S
C1320 C1328 1.378 . S
C1321 C1320 1.367 . S
C1321 C1329 1.433 . S
C1322 H1318 0.929 . S
C1322 C1324 1.378 . S
C1322 C1326 1.350 . S
C1323 C1326 1.463 . S
C1323 C1328 1.350 . S
C1323 N1331 1.427 . S
C1324 H1315 0.930 . S
C1324 C1322 1.378 . S
C1324 C1325 1.367 . S
C1325 C1324 1.367 . S
C1325 C1327 1.433 . S
C1326 C1322 1.350 . S
C1326 C1323 1.463 . S
C1326 N1330 1.427 . S
C1327 H1317 0.929 . S
C1327 C1325 1.433 . S
C1327 N1330 1.384 . S
C1328 H1319 0.929 . S
C1328 C1320 1.378 . S
C1328 C1323 1.350 . S
C1329 H1316 0.929 . S
C1329 C1321 1.433 . S
C1329 N1331 1.384 . S
N1330 C1326 1.427 . S
N1330 C1327 1.384 . S
N1331 C1323 1.427 . S
N1331 C1329 1.384 . S
H1332 C1338 0.930 . S
H1333 C1342 0.930 . S
H1334 C1347 0.929 . S
H1335 C1345 0.929 . S
H1336 C1340 0.929 . S
H1337 C1346 0.929 . S
C1338 H1332 0.930 . S
C1338 C1339 1.367 . S
C1338 C1346 1.378 . S
C1339 C1338 1.367 . S
C1339 C1347 1.433 . S
C1340 H1336 0.929 . S
C1340 C1342 1.378 . S
C1340 C1344 1.350 . S
C1341 C1344 1.463 . S
C1341 C1346 1.350 . S
C1341 N1349 1.427 . S
C1342 H1333 0.930 . S
C1342 C1340 1.378 . S
C1342 C1343 1.367 . S
C1343 C1342 1.367 . S
C1343 C1345 1.433 . S
C1344 C1340 1.350 . S
C1344 C1341 1.463 . S
C1344 N1348 1.427 . S
C1345 H1335 0.929 . S
C1345 C1343 1.433 . S
C1345 N1348 1.384 . S
C1346 H1337 0.929 . S
C1346 C1338 1.378 . S
C1346 C1341 1.350 . S
C1347 H1334 0.929 . S
C1347 C1339 1.433 . S
C1347 N1349 1.384 . S
N1348 C1344 1.427 . S
N1348 C1345 1.384 . S
N1349 C1341 1.427 . S
N1349 C1347 1.384 . S
H1350 C1356 0.930 . S
H1351 C1360 0.930 . S
H1352 C1365 0.929 . S
H1353 C1363 0.929 . S
H1354 C1358 0.929 . S
H1355 C1364 0.929 . S
C1356 H1350 0.930 . S
C1356 C1357 1.367 . S
C1356 C1364 1.378 . S
C1357 C1356 1.367 . S
C1357 C1365 1.433 . S
C1358 H1354 0.929 . S
C1358 C1360 1.378 . S
C1358 C1362 1.350 . S
C1359 C1362 1.463 . S
C1359 C1364 1.350 . S
C1359 N1367 1.427 . S
C1360 H1351 0.930 . S
C1360 C1358 1.378 . S
C1360 C1361 1.367 . S
C1361 C1360 1.367 . S
C1361 C1363 1.433 . S
C1362 C1358 1.350 . S
C1362 C1359 1.463 . S
C1362 N1366 1.427 . S
C1363 H1353 0.929 . S
C1363 C1361 1.433 . S
C1363 N1366 1.384 . S
C1364 H1355 0.929 . S
C1364 C1356 1.378 . S
C1364 C1359 1.350 . S
C1365 H1352 0.929 . S
C1365 C1357 1.433 . S
C1365 N1367 1.384 . S
N1366 C1362 1.427 . S
N1366 C1363 1.384 . S
N1367 C1359 1.427 . S
N1367 C1365 1.384 . S
H1368 C1374 0.930 . S
H1369 C1378 0.930 . S
H1370 C1383 0.929 . S
H1371 C1381 0.929 . S
H1372 C1376 0.929 . S
H1373 C1382 0.929 . S
C1374 H1368 0.930 . S
C1374 C1375 1.367 . S
C1374 C1382 1.378 . S
C1375 C1374 1.367 . S
C1375 C1383 1.433 . S
C1376 H1372 0.929 . S
C1376 C1378 1.378 . S
C1376 C1380 1.350 . S
C1377 C1380 1.463 . S
C1377 C1382 1.350 . S
C1377 N1385 1.427 . S
C1378 H1369 0.930 . S
C1378 C1376 1.378 . S
C1378 C1379 1.367 . S
C1379 C1378 1.367 . S
C1379 C1381 1.433 . S
C1380 C1376 1.350 . S
C1380 C1377 1.463 . S
C1380 N1384 1.427 . S
C1381 H1371 0.929 . S
C1381 C1379 1.433 . S
C1381 N1384 1.384 . S
C1382 H1373 0.929 . S
C1382 C1374 1.378 . S
C1382 C1377 1.350 . S
C1383 H1370 0.929 . S
C1383 C1375 1.433 . S
C1383 N1385 1.384 . S
N1384 C1380 1.427 . S
N1384 C1381 1.384 . S
N1385 C1377 1.427 . S
N1385 C1383 1.384 . S
H1386 C1392 0.930 . S
H1387 C1396 0.930 . S
H1388 C1401 0.929 . S
H1389 C1399 0.929 . S
H1390 C1394 0.929 . S
H1391 C1400 0.929 . S
C1392 H1386 0.930 . S
C1392 C1393 1.367 . S
C1392 C1400 1.378 . S
C1393 C1392 1.367 . S
C1393 C1401 1.433 . S
C1394 H1390 0.929 . S
C1394 C1396 1.378 . S
C1394 C1398 1.350 . S
C1395 C1398 1.463 . S
C1395 C1400 1.350 . S
C1395 N1403 1.427 . S
C1396 H1387 0.930 . S
C1396 C1394 1.378 . S
C1396 C1397 1.367 . S
C1397 C1396 1.367 . S
C1397 C1399 1.433 . S
C1398 C1394 1.350 . S
C1398 C1395 1.463 . S
C1398 N1402 1.427 . S
C1399 H1389 0.929 . S
C1399 C1397 1.433 . S
C1399 N1402 1.384 . S
C1400 H1391 0.929 . S
C1400 C1392 1.378 . S
C1400 C1395 1.350 . S
C1401 H1388 0.929 . S
C1401 C1393 1.433 . S
C1401 N1403 1.384 . S
N1402 C1398 1.427 . S
N1402 C1399 1.384 . S
N1403 C1395 1.427 . S
N1403 C1401 1.384 . S
H1404 C1410 0.930 . S
H1405 C1414 0.930 . S
H1406 C1419 0.929 . S
H1407 C1417 0.929 . S
H1408 C1412 0.929 . S
H1409 C1418 0.929 . S
C1410 H1404 0.930 . S
C1410 C1411 1.367 . S
C1410 C1418 1.378 . S
C1411 C1410 1.367 . S
C1411 C1419 1.433 . S
C1412 H1408 0.929 . S
C1412 C1414 1.378 . S
C1412 C1416 1.350 . S
C1413 C1416 1.463 . S
C1413 C1418 1.350 . S
C1413 N1421 1.427 . S
C1414 H1405 0.930 . S
C1414 C1412 1.378 . S
C1414 C1415 1.367 . S
C1415 C1414 1.367 . S
C1415 C1417 1.433 . S
C1416 C1412 1.350 . S
C1416 C1413 1.463 . S
C1416 N1420 1.427 . S
C1417 H1407 0.929 . S
C1417 C1415 1.433 . S
C1417 N1420 1.384 . S
C1418 H1409 0.929 . S
C1418 C1410 1.378 . S
C1418 C1413 1.350 . S
C1419 H1406 0.929 . S
C1419 C1411 1.433 . S
C1419 N1421 1.384 . S
N1420 C1416 1.427 . S
N1420 C1417 1.384 . S
N1421 C1413 1.427 . S
N1421 C1419 1.384 . S
H1422 C1428 0.930 . S
H1423 C1432 0.930 . S
H1424 C1437 0.929 . S
H1425 C1435 0.929 . S
H1426 C1430 0.929 . S
H1427 C1436 0.929 . S
C1428 H1422 0.930 . S
C1428 C1429 1.367 . S
C1428 C1436 1.378 . S
C1429 C1428 1.367 . S
C1429 C1437 1.433 . S
C1430 H1426 0.929 . S
C1430 C1432 1.378 . S
C1430 C1434 1.350 . S
C1431 C1434 1.463 . S
C1431 C1436 1.350 . S
C1431 N1439 1.427 . S
C1432 H1423 0.930 . S
C1432 C1430 1.378 . S
C1432 C1433 1.367 . S
C1433 C1432 1.367 . S
C1433 C1435 1.433 . S
C1434 C1430 1.350 . S
C1434 C1431 1.463 . S
C1434 N1438 1.427 . S
C1435 H1425 0.929 . S
C1435 C1433 1.433 . S
C1435 N1438 1.384 . S
C1436 H1427 0.929 . S
C1436 C1428 1.378 . S
C1436 C1431 1.350 . S
C1437 H1424 0.929 . S
C1437 C1429 1.433 . S
C1437 N1439 1.384 . S
N1438 C1434 1.427 . S
N1438 C1435 1.384 . S
N1439 C1431 1.427 . S
N1439 C1437 1.384 . S
H1440 C1446 0.930 . S
H1441 C1450 0.930 . S
H1442 C1455 0.929 . S
H1443 C1453 0.929 . S
H1444 C1448 0.929 . S
H1445 C1454 0.929 . S
C1446 H1440 0.930 . S
C1446 C1447 1.367 . S
C1446 C1454 1.378 . S
C1447 C1446 1.367 . S
C1447 C1455 1.433 . S
C1448 H1444 0.929 . S
C1448 C1450 1.378 . S
C1448 C1452 1.350 . S
C1449 C1452 1.463 . S
C1449 C1454 1.350 . S
C1449 N1457 1.427 . S
C1450 H1441 0.930 . S
C1450 C1448 1.378 . S
C1450 C1451 1.367 . S
C1451 C1450 1.367 . S
C1451 C1453 1.433 . S
C1452 C1448 1.350 . S
C1452 C1449 1.463 . S
C1452 N1456 1.427 . S
C1453 H1443 0.929 . S
C1453 C1451 1.433 . S
C1453 N1456 1.384 . S
C1454 H1445 0.929 . S
C1454 C1446 1.378 . S
C1454 C1449 1.350 . S
C1455 H1442 0.929 . S
C1455 C1447 1.433 . S
C1455 N1457 1.384 . S
N1456 C1452 1.427 . S
N1456 C1453 1.384 . S
N1457 C1449 1.427 . S
N1457 C1455 1.384 . S
H1458 C1464 0.930 . S
H1459 C1468 0.930 . S
H1460 C1473 0.929 . S
H1461 C1471 0.929 . S
H1462 C1466 0.929 . S
H1463 C1472 0.929 . S
C1464 H1458 0.930 . S
C1464 C1465 1.367 . S
C1464 C1472 1.378 . S
C1465 C1464 1.367 . S
C1465 C1473 1.433 . S
C1466 H1462 0.929 . S
C1466 C1468 1.378 . S
C1466 C1470 1.350 . S
C1467 C1470 1.463 . S
C1467 C1472 1.350 . S
C1467 N1475 1.427 . S
C1468 H1459 0.930 . S
C1468 C1466 1.378 . S
C1468 C1469 1.367 . S
C1469 C1468 1.367 . S
C1469 C1471 1.433 . S
C1470 C1466 1.350 . S
C1470 C1467 1.463 . S
C1470 N1474 1.427 . S
C1471 H1461 0.929 . S
C1471 C1469 1.433 . S
C1471 N1474 1.384 . S
C1472 H1463 0.929 . S
C1472 C1464 1.378 . S
C1472 C1467 1.350 . S
C1473 H1460 0.929 . S
C1473 C1465 1.433 . S
C1473 N1475 1.384 . S
N1474 C1470 1.427 . S
N1474 C1471 1.384 . S
N1475 C1467 1.427 . S
N1475 C1473 1.384 . S
H1476 C1482 0.930 . S
H1477 C1486 0.930 . S
H1478 C1491 0.929 . S
H1479 C1489 0.929 . S
H1480 C1484 0.929 . S
H1481 C1490 0.929 . S
C1482 H1476 0.930 . S
C1482 C1483 1.365 1_556 S
C1482 C1490 1.378 . S
C1483 C1482 1.365 1_554 S
C1483 C1491 1.435 . S
C1484 H1480 0.929 . S
C1484 C1486 1.378 . S
C1484 C1488 1.358 . S
C1485 C1488 1.462 . S
C1485 C1490 1.348 1_554 S
C1485 N1493 1.429 . S
C1486 H1477 0.930 . S
C1486 C1484 1.378 . S
C1486 C1487 1.374 . S
C1487 C1486 1.374 . S
C1487 C1489 1.426 1_554 S
C1488 C1484 1.358 . S
C1488 C1485 1.462 . S
C1488 N1492 1.420 1_554 S
C1489 H1479 0.929 . S
C1489 C1487 1.426 1_556 S
C1489 N1492 1.384 . S
C1490 H1481 0.929 . S
C1490 C1482 1.378 . S
C1490 C1485 1.348 1_556 S
C1491 H1478 0.929 . S
C1491 C1483 1.435 . S
C1491 N1493 1.384 . S
N1492 C1488 1.420 1_556 S
N1492 C1489 1.384 . S
N1493 C1485 1.429 . S
N1493 C1491 1.384 . S
H1494 C1500 0.930 . S
H1495 C1504 0.930 . S
H1496 C1509 0.929 . S
H1497 C1507 0.929 . S
H1498 C1502 0.929 . S
H1499 C1508 0.929 . S
C1500 H1494 0.930 . S
C1500 C1501 1.365 1_556 S
C1500 C1508 1.378 . S
C1501 C1500 1.365 1_554 S
C1501 C1509 1.436 . S
C1502 H1498 0.929 . S
C1502 C1504 1.378 . S
C1502 C1506 1.354 . S
C1503 C1506 1.462 . S
C1503 C1508 1.348 1_554 S
C1503 N1511 1.430 . S
C1504 H1495 0.930 . S
C1504 C1502 1.378 . S
C1504 C1505 1.370 . S
C1505 C1504 1.370 . S
C1505 C1507 1.430 1_554 S
C1506 C1502 1.354 . S
C1506 C1503 1.462 . S
C1506 N1510 1.424 1_554 S
C1507 H1497 0.929 . S
C1507 C1505 1.430 1_556 S
C1507 N1510 1.384 . S
C1508 H1499 0.929 . S
C1508 C1500 1.378 . S
C1508 C1503 1.348 1_556 S
C1509 H1496 0.929 . S
C1509 C1501 1.436 . S
C1509 N1511 1.384 . S
N1510 C1506 1.424 1_556 S
N1510 C1507 1.384 . S
N1511 C1503 1.430 . S
N1511 C1509 1.384 . S
H1512 C1518 0.930 . S
H1513 C1522 0.930 . S
H1514 C1527 0.929 . S
H1515 C1525 0.929 . S
H1516 C1520 0.929 . S
H1517 C1526 0.929 . S
C1518 H1512 0.930 . S
C1518 C1519 1.358 1_556 S
C1518 C1526 1.378 . S
C1519 C1518 1.358 1_554 S
C1519 C1527 1.443 . S
C1520 H1516 0.929 . S
C1520 C1522 1.378 . S
C1520 C1524 1.350 . S
C1521 C1524 1.463 . S
C1521 C1526 1.347 1_554 S
C1521 N1529 1.430 . S
C1522 H1513 0.930 . S
C1522 C1520 1.378 . S
C1522 C1523 1.391 . S
C1523 C1522 1.391 . S
C1523 C1525 1.409 1_554 S
C1524 C1520 1.350 . S
C1524 C1521 1.463 . S
C1524 N1528 1.427 1_554 S
C1525 H1515 0.929 . S
C1525 C1523 1.409 1_556 S
C1525 N1528 1.384 . S
C1526 H1517 0.929 . S
C1526 C1518 1.378 . S
C1526 C1521 1.347 1_556 S
C1527 H1514 0.929 . S
C1527 C1519 1.443 . S
C1527 N1529 1.384 . S
N1528 C1524 1.427 1_556 S
N1528 C1525 1.384 . S
N1529 C1521 1.430 . S
N1529 C1527 1.384 . S
H1530 C1536 0.930 . S
H1531 C1540 0.930 . S
H1532 C1545 0.929 . S
H1533 C1543 0.929 . S
H1534 C1538 0.929 . S
H1535 C1544 0.929 . S
C1536 H1530 0.930 . S
C1536 C1537 1.361 1_556 S
C1536 C1544 1.378 . S
C1537 C1536 1.361 1_554 S
C1537 C1545 1.439 . S
C1538 H1534 0.929 . S
C1538 C1540 1.378 . S
C1538 C1542 1.368 . S
C1539 C1542 1.462 . S
C1539 C1544 1.347 1_554 S
C1539 N1547 1.431 . S
C1540 H1531 0.930 . S
C1540 C1538 1.378 . S
C1540 C1541 1.382 . S
C1541 C1540 1.382 . S
C1541 C1543 1.419 1_554 S
C1542 C1538 1.368 . S
C1542 C1539 1.462 . S
C1542 N1546 1.411 1_554 S
C1543 H1533 0.929 . S
C1543 C1541 1.419 1_556 S
C1543 N1546 1.384 . S
C1544 H1535 0.929 . S
C1544 C1536 1.378 . S
C1544 C1539 1.347 1_556 S
C1545 H1532 0.929 . S
C1545 C1537 1.439 . S
C1545 N1547 1.384 . S
N1546 C1542 1.411 1_556 S
N1546 C1543 1.384 . S
N1547 C1539 1.431 . S
N1547 C1545 1.384 . S
H1548 C1554 0.930 . S
H1549 C1558 0.930 . S
H1550 C1563 0.929 . S
H1551 C1561 0.929 . S
H1552 C1556 0.929 . S
H1553 C1562 0.929 . S
C1554 H1548 0.930 . S
C1554 C1555 1.367 . S
C1554 C1562 1.378 . S
C1555 C1554 1.367 . S
C1555 C1563 1.433 1_455 S
C1556 H1552 0.929 . S
C1556 C1558 1.378 . S
C1556 C1560 1.336 1_655 S
C1557 C1560 1.464 . S
C1557 C1562 1.350 . S
C1557 N1565 1.427 1_455 S
C1558 H1549 0.930 . S
C1558 C1556 1.378 . S
C1558 C1559 1.348 1_655 S
C1559 C1558 1.348 1_455 S
C1559 C1561 1.453 . S
C1560 C1556 1.336 1_455 S
C1560 C1557 1.464 . S
C1560 N1564 1.442 . S
C1561 H1551 0.929 . S
C1561 C1559 1.453 . S
C1561 N1564 1.384 . S
C1562 H1553 0.929 . S
C1562 C1554 1.378 . S
C1562 C1557 1.350 . S
C1563 H1550 0.929 . S
C1563 C1555 1.433 1_655 S
C1563 N1565 1.384 . S
N1564 C1560 1.442 . S
N1564 C1561 1.384 . S
N1565 C1557 1.427 1_655 S
N1565 C1563 1.384 . S
H1566 C1572 0.930 . S
H1567 C1576 0.930 . S
H1568 C1581 0.929 . S
H1569 C1579 0.929 . S
H1570 C1574 0.929 . S
H1571 C1580 0.929 . S
C1572 H1566 0.930 . S
C1572 C1573 1.354 1_565 S
C1572 C1580 1.378 . S
C1573 C1572 1.354 1_545 S
C1573 C1581 1.446 . S
C1574 H1570 0.929 . S
C1574 C1576 1.378 . S
C1574 C1578 1.350 . S
C1575 C1578 1.463 . S
C1575 C1580 1.348 1_545 S
C1575 N1583 1.429 . S
C1576 H1567 0.930 . S
C1576 C1574 1.378 . S
C1576 C1577 1.367 . S
C1577 C1576 1.367 . S
C1577 C1579 1.433 1_545 S
C1578 C1574 1.350 . S
C1578 C1575 1.463 . S
C1578 N1582 1.427 1_545 S
C1579 H1569 0.929 . S
C1579 C1577 1.433 1_565 S
C1579 N1582 1.384 . S
C1580 H1571 0.929 . S
C1580 C1572 1.378 . S
C1580 C1575 1.348 1_565 S
C1581 H1568 0.929 . S
C1581 C1573 1.446 . S
C1581 N1583 1.384 . S
N1582 C1578 1.427 1_565 S
N1582 C1579 1.384 . S
N1583 C1575 1.429 . S
N1583 C1581 1.384 . S
H1584 C1590 0.930 . S
H1585 C1594 0.930 . S
H1586 C1599 0.929 . S
H1587 C1597 0.929 . S
H1588 C1592 0.929 . S
H1589 C1598 0.929 . S
C1590 H1584 0.930 . S
C1590 C1591 1.353 1_655 S
C1590 C1598 1.378 . S
C1591 C1590 1.353 1_455 S
C1591 C1599 1.448 . S
C1592 H1588 0.929 . S
C1592 C1594 1.378 . S
C1592 C1596 1.350 . S
C1593 C1596 1.464 . S
C1593 C1598 1.338 1_455 S
C1593 N1601 1.440 . S
C1594 H1585 0.930 . S
C1594 C1592 1.378 . S
C1594 C1595 1.367 . S
C1595 C1594 1.367 . S
C1595 C1597 1.433 1_455 S
C1596 C1592 1.350 . S
C1596 C1593 1.464 . S
C1596 N1600 1.427 1_455 S
C1597 H1587 0.929 . S
C1597 C1595 1.433 1_655 S
C1597 N1600 1.384 . S
C1598 H1589 0.929 . S
C1598 C1590 1.378 . S
C1598 C1593 1.338 1_655 S
C1599 H1586 0.929 . S
C1599 C1591 1.448 . S
C1599 N1601 1.384 . S
N1600 C1596 1.427 1_655 S
N1600 C1597 1.384 . S
N1601 C1593 1.440 . S
N1601 C1599 1.384 . S
H1602 C1608 0.930 . S
H1603 C1612 0.930 . S
H1604 C1617 0.929 . S
H1605 C1615 0.929 . S
H1606 C1610 0.929 . S
H1607 C1616 0.929 . S
C1608 H1602 0.930 . S
C1608 C1609 1.351 1_565 S
C1608 C1616 1.378 . S
C1609 C1608 1.351 1_545 S
C1609 C1617 1.450 . S
C1610 H1606 0.929 . S
C1610 C1612 1.378 . S
C1610 C1614 1.350 . S
C1611 C1614 1.463 . S
C1611 C1616 1.343 1_545 S
C1611 N1619 1.434 . S
C1612 H1603 0.930 . S
C1612 C1610 1.378 . S
C1612 C1613 1.367 . S
C1613 C1612 1.367 . S
C1613 C1615 1.433 1_545 S
C1614 C1610 1.350 . S
C1614 C1611 1.463 . S
C1614 N1618 1.427 1_545 S
C1615 H1605 0.929 . S
C1615 C1613 1.433 1_565 S
C1615 N1618 1.384 . S
C1616 H1607 0.929 . S
C1616 C1608 1.378 . S
C1616 C1611 1.343 1_565 S
C1617 H1604 0.929 . S
C1617 C1609 1.450 . S
C1617 N1619 1.384 . S
N1618 C1614 1.427 1_565 S
N1618 C1615 1.384 . S
N1619 C1611 1.434 . S
N1619 C1617 1.384 . S
H1620 C1626 0.930 . S
H1621 C1630 0.930 . S
H1622 C1635 0.929 . S
H1623 C1633 0.929 . S
H1624 C1628 0.929 . S
H1625 C1634 0.929 . S
C1626 H1620 0.930 . S
C1626 C1627 1.367 . S
C1626 C1634 1.378 . S
C1627 C1626 1.367 . S
C1627 C1635 1.433 1_455 S
C1628 H1624 0.929 . S
C1628 C1630 1.378 . S
C1628 C1632 1.344 1_655 S
C1629 C1632 1.464 . S
C1629 C1634 1.350 . S
C1629 N1637 1.427 1_455 S
C1630 H1621 0.930 . S
C1630 C1628 1.378 . S
C1630 C1631 1.361 1_655 S
C1631 C1630 1.361 1_455 S
C1631 C1633 1.441 . S
C1632 C1628 1.344 1_455 S
C1632 C1629 1.464 . S
C1632 N1636 1.434 . S
C1633 H1623 0.929 . S
C1633 C1631 1.441 . S
C1633 N1636 1.384 . S
C1634 H1625 0.929 . S
C1634 C1626 1.378 . S
C1634 C1629 1.350 . S
C1635 H1622 0.929 . S
C1635 C1627 1.433 1_655 S
C1635 N1637 1.384 . S
N1636 C1632 1.434 . S
N1636 C1633 1.384 . S
N1637 C1629 1.427 1_655 S
N1637 C1635 1.384 . S
H1638 C1644 0.930 . S
H1639 C1648 0.930 . S
H1640 C1653 0.929 . S
H1641 C1651 0.929 . S
H1642 C1646 0.929 . S
H1643 C1652 0.929 . S
C1644 H1638 0.930 . S
C1644 C1645 1.362 1_565 S
C1644 C1652 1.378 . S
C1645 C1644 1.362 1_545 S
C1645 C1653 1.438 . S
C1646 H1642 0.929 . S
C1646 C1648 1.378 . S
C1646 C1650 1.350 . S
C1647 C1650 1.462 . S
C1647 C1652 1.354 1_545 S
C1647 N1655 1.423 . S
C1648 H1639 0.930 . S
C1648 C1646 1.378 . S
C1648 C1649 1.367 . S
C1649 C1648 1.367 . S
C1649 C1651 1.433 1_545 S
C1650 C1646 1.350 . S
C1650 C1647 1.462 . S
C1650 N1654 1.427 1_545 S
C1651 H1641 0.929 . S
C1651 C1649 1.433 1_565 S
C1651 N1654 1.384 . S
C1652 H1643 0.929 . S
C1652 C1644 1.378 . S
C1652 C1647 1.354 1_565 S
C1653 H1640 0.929 . S
C1653 C1645 1.438 . S
C1653 N1655 1.384 . S
N1654 C1650 1.427 1_565 S
N1654 C1651 1.384 . S
N1655 C1647 1.423 . S
N1655 C1653 1.384 . S
H1656 C1662 0.930 . S
H1657 C1666 0.930 . S
H1658 C1671 0.929 . S
H1659 C1669 0.929 . S
H1660 C1664 0.929 . S
H1661 C1670 0.929 . S
C1662 H1656 0.930 . S
C1662 C1663 1.349 1_655 S
C1662 C1670 1.378 . S
C1663 C1662 1.349 1_455 S
C1663 C1671 1.452 . S
C1664 H1660 0.929 . S
C1664 C1666 1.378 . S
C1664 C1668 1.350 . S
C1665 C1668 1.463 . S
C1665 C1670 1.340 1_455 S
C1665 N1673 1.437 . S
C1666 H1657 0.930 . S
C1666 C1664 1.378 . S
C1666 C1667 1.367 . S
C1667 C1666 1.367 . S
C1667 C1669 1.433 1_455 S
C1668 C1664 1.350 . S
C1668 C1665 1.463 . S
C1668 N1672 1.427 1_455 S
C1669 H1659 0.929 . S
C1669 C1667 1.433 1_655 S
C1669 N1672 1.384 . S
C1670 H1661 0.929 . S
C1670 C1662 1.378 . S
C1670 C1665 1.340 1_655 S
C1671 H1658 0.929 . S
C1671 C1663 1.452 . S
C1671 N1673 1.384 . S
N1672 C1668 1.427 1_655 S
N1672 C1669 1.384 . S
N1673 C1665 1.437 . S
N1673 C1671 1.384 . S
H1674 C1680 0.930 . S
H1675 C1684 0.930 . S
H1676 C1689 0.929 . S
H1677 C1687 0.929 . S
H1678 C1682 0.929 . S
H1679 C1688 0.929 . S
C1680 H1674 0.930 . S
C1680 C1681 1.404 . S
C1680 C1688 1.378 . S
C1681 C1680 1.404 . S
C1681 C1689 1.396 1_545 S
C1682 H1678 0.929 . S
C1682 C1684 1.378 . S
C1682 C1686 1.348 1_565 S
C1683 C1686 1.463 . S
C1683 C1688 1.350 . S
C1683 N1691 1.427 1_545 S
C1684 H1675 0.930 . S
C1684 C1682 1.378 . S
C1684 C1685 1.355 1_565 S
C1685 C1684 1.355 1_545 S
C1685 C1687 1.445 . S
C1686 C1682 1.348 1_545 S
C1686 C1683 1.463 . S
C1686 N1690 1.429 . S
C1687 H1677 0.929 . S
C1687 C1685 1.445 . S
C1687 N1690 1.384 . S
C1688 H1679 0.929 . S
C1688 C1680 1.378 . S
C1688 C1683 1.350 . S
C1689 H1676 0.929 . S
C1689 C1681 1.396 1_565 S
C1689 N1691 1.384 . S
N1690 C1686 1.429 . S
N1690 C1687 1.384 . S
N1691 C1683 1.427 1_565 S
N1691 C1689 1.384 . S
H1692 C1698 0.930 . S
H1693 C1702 0.930 . S
H1694 C1707 0.929 . S
H1695 C1705 0.929 . S
H1696 C1700 0.929 . S
H1697 C1706 0.929 . S
C1698 H1692 0.930 . S
C1698 C1699 1.337 1_655 S
C1698 C1706 1.378 . S
C1699 C1698 1.337 1_455 S
C1699 C1707 1.464 . S
C1700 H1696 0.929 . S
C1700 C1702 1.378 . S
C1700 C1704 1.350 . S
C1701 C1704 1.465 . S
C1701 C1706 1.323 1_455 S
C1701 N1709 1.455 . S
C1702 H1693 0.930 . S
C1702 C1700 1.378 . S
C1702 C1703 1.367 . S
C1703 C1702 1.367 . S
C1703 C1705 1.433 1_455 S
C1704 C1700 1.350 . S
C1704 C1701 1.465 . S
C1704 N1708 1.427 1_455 S
C1705 H1695 0.929 . S
C1705 C1703 1.433 1_655 S
C1705 N1708 1.384 . S
C1706 H1697 0.929 . S
C1706 C1698 1.378 . S
C1706 C1701 1.323 1_655 S
C1707 H1694 0.929 . S
C1707 C1699 1.464 . S
C1707 N1709 1.384 . S
N1708 C1704 1.427 1_655 S
N1708 C1705 1.384 . S
N1709 C1701 1.455 . S
N1709 C1707 1.384 . S
H1710 C1716 0.930 . S
H1711 C1720 0.930 . S
H1712 C1725 0.929 . S
H1713 C1723 0.929 . S
H1714 C1718 0.929 . S
H1715 C1724 0.929 . S
C1716 H1710 0.930 . S
C1716 C1717 1.363 1_565 S
C1716 C1724 1.378 . S
C1717 C1716 1.363 1_545 S
C1717 C1725 1.437 . S
C1718 H1714 0.929 . S
C1718 C1720 1.378 . S
C1718 C1722 1.381 . S
C1719 C1722 1.461 . S
C1719 C1724 1.352 1_545 S
C1719 N1727 1.425 . S
C1720 H1711 0.930 . S
C1720 C1718 1.378 . S
C1720 C1721 1.392 . S
C1721 C1720 1.392 . S
C1721 C1723 1.408 1_545 S
C1722 C1718 1.381 . S
C1722 C1719 1.461 . S
C1722 N1726 1.397 1_545 S
C1723 H1713 0.929 . S
C1723 C1721 1.408 1_565 S
C1723 N1726 1.384 . S
C1724 H1715 0.929 . S
C1724 C1716 1.378 . S
C1724 C1719 1.352 1_565 S
C1725 H1712 0.929 . S
C1725 C1717 1.437 . S
C1725 N1727 1.384 . S
N1726 C1722 1.397 1_565 S
N1726 C1723 1.384 . S
N1727 C1719 1.425 . S
N1727 C1725 1.384 . S
H1728 C1734 0.930 . S
H1729 C1738 0.930 . S
H1730 C1743 0.929 . S
H1731 C1741 0.929 . S
H1732 C1736 0.929 . S
H1733 C1742 0.929 . S
C1734 H1728 0.930 . S
C1734 C1735 1.367 . S
C1734 C1742 1.378 . S
C1735 C1734 1.367 . S
C1735 C1743 1.433 1_455 S
C1736 H1732 0.929 . S
C1736 C1738 1.378 . S
C1736 C1740 1.323 1_655 S
C1737 C1740 1.465 . S
C1737 C1742 1.350 . S
C1737 N1745 1.427 1_455 S
C1738 H1729 0.930 . S
C1738 C1736 1.378 . S
C1738 C1739 1.326 1_655 S
C1739 C1738 1.326 1_455 S
C1739 C1741 1.476 . S
C1740 C1736 1.323 1_455 S
C1740 C1737 1.465 . S
C1740 N1744 1.455 . S
C1741 H1731 0.929 . S
C1741 C1739 1.476 . S
C1741 N1744 1.384 . S
C1742 H1733 0.929 . S
C1742 C1734 1.378 . S
C1742 C1737 1.350 . S
C1743 H1730 0.929 . S
C1743 C1735 1.433 1_655 S
C1743 N1745 1.384 . S
N1744 C1740 1.455 . S
N1744 C1741 1.384 . S
N1745 C1737 1.427 1_655 S
N1745 C1743 1.384 . S
H1746 C1752 0.930 . S
H1747 C1756 0.930 . S
H1748 C1761 0.929 . S
H1749 C1759 0.929 . S
H1750 C1754 0.929 . S
H1751 C1760 0.929 . S
C1752 H1746 0.930 . S
C1752 C1753 1.363 1_565 S
C1752 C1760 1.378 . S
C1753 C1752 1.363 1_545 S
C1753 C1761 1.437 . S
C1754 H1750 0.929 . S
C1754 C1756 1.378 . S
C1754 C1758 1.359 . S
C1755 C1758 1.462 . S
C1755 C1760 1.348 1_545 S
C1755 N1763 1.429 . S
C1756 H1747 0.930 . S
C1756 C1754 1.378 . S
C1756 C1757 1.375 . S
C1757 C1756 1.375 . S
C1757 C1759 1.426 1_545 S
C1758 C1754 1.359 . S
C1758 C1755 1.462 . S
C1758 N1762 1.418 1_545 S
C1759 H1749 0.929 . S
C1759 C1757 1.426 1_565 S
C1759 N1762 1.384 . S
C1760 H1751 0.929 . S
C1760 C1752 1.378 . S
C1760 C1755 1.348 1_565 S
C1761 H1748 0.929 . S
C1761 C1753 1.437 . S
C1761 N1763 1.384 . S
N1762 C1758 1.418 1_565 S
N1762 C1759 1.384 . S
N1763 C1755 1.429 . S
N1763 C1761 1.384 . S
H1764 C1770 0.930 . S
H1765 C1774 0.930 . S
H1766 C1779 0.929 . S
H1767 C1777 0.929 . S
H1768 C1772 0.929 . S
H1769 C1778 0.929 . S
C1770 H1764 0.930 . S
C1770 C1771 1.337 1_655 S
C1770 C1778 1.378 . S
C1771 C1770 1.337 1_455 S
C1771 C1779 1.464 . S
C1772 H1768 0.929 . S
C1772 C1774 1.378 . S
C1772 C1776 1.350 . S
C1773 C1776 1.465 . S
C1773 C1778 1.323 1_455 S
C1773 N1781 1.455 . S
C1774 H1765 0.930 . S
C1774 C1772 1.378 . S
C1774 C1775 1.367 . S
C1775 C1774 1.367 . S
C1775 C1777 1.433 1_455 S
C1776 C1772 1.350 . S
C1776 C1773 1.465 . S
C1776 N1780 1.427 1_455 S
C1777 H1767 0.929 . S
C1777 C1775 1.433 1_655 S
C1777 N1780 1.384 . S
C1778 H1769 0.929 . S
C1778 C1770 1.378 . S
C1778 C1773 1.323 1_655 S
C1779 H1766 0.929 . S
C1779 C1771 1.464 . S
C1779 N1781 1.384 . S
N1780 C1776 1.427 1_655 S
N1780 C1777 1.384 . S
N1781 C1773 1.455 . S
N1781 C1779 1.384 . S
H1782 C1788 0.930 . S
H1783 C1792 0.930 . S
H1784 C1797 0.929 . S
H1785 C1795 0.929 . S
H1786 C1790 0.929 . S
H1787 C1796 0.929 . S
C1788 H1782 0.930 . S
C1788 C1789 1.367 . S
C1788 C1796 1.378 . S
C1789 C1788 1.367 . S
C1789 C1797 1.433 1_545 S
C1790 H1786 0.929 . S
C1790 C1792 1.378 . S
C1790 C1794 1.349 . S
C1791 C1794 1.463 1_545 S
C1791 C1796 1.350 . S
C1791 N1799 1.427 1_545 S
C1792 H1783 0.930 . S
C1792 C1790 1.378 . S
C1792 C1793 1.369 1_565 S
C1793 C1792 1.369 1_545 S
C1793 C1795 1.431 . S
C1794 C1790 1.349 . S
C1794 C1791 1.463 1_565 S
C1794 N1798 1.428 1_565 S
C1795 H1785 0.929 . S
C1795 C1793 1.431 . S
C1795 N1798 1.384 . S
C1796 H1787 0.929 . S
C1796 C1788 1.378 . S
C1796 C1791 1.350 . S
C1797 H1784 0.929 . S
C1797 C1789 1.433 1_565 S
C1797 N1799 1.384 . S
N1798 C1794 1.428 1_545 S
N1798 C1795 1.384 . S
N1799 C1791 1.427 1_565 S
N1799 C1797 1.384 . S
H1800 C1806 0.930 . S
H1801 C1810 0.930 . S
H1802 C1815 0.929 . S
H1803 C1813 0.929 . S
H1804 C1808 0.929 . S
H1805 C1814 0.929 . S
C1806 H1800 0.930 . S
C1806 C1807 1.367 1_655 S
C1806 C1814 1.378 . S
C1807 C1806 1.367 1_455 S
C1807 C1815 1.433 . S
C1808 H1804 0.929 . S
C1808 C1810 1.378 . S
C1808 C1812 1.350 . S
C1809 C1812 1.463 . S
C1809 C1814 1.350 1_455 S
C1809 N1817 1.427 . S
C1810 H1801 0.930 . S
C1810 C1808 1.378 . S
C1810 C1811 1.367 . S
C1811 C1810 1.367 . S
C1811 C1813 1.433 1_455 S
C1812 C1808 1.350 . S
C1812 C1809 1.463 . S
C1812 N1816 1.427 1_455 S
C1813 H1803 0.929 . S
C1813 C1811 1.433 1_655 S
C1813 N1816 1.384 . S
C1814 H1805 0.929 . S
C1814 C1806 1.378 . S
C1814 C1809 1.350 1_655 S
C1815 H1802 0.929 . S
C1815 C1807 1.433 . S
C1815 N1817 1.384 . S
N1816 C1812 1.427 1_655 S
N1816 C1813 1.384 . S
N1817 C1809 1.427 . S
N1817 C1815 1.384 . S
H1818 C1824 0.930 . S
H1819 C1828 0.930 . S
H1820 C1833 0.929 . S
H1821 C1831 0.929 . S
H1822 C1826 0.929 . S
H1823 C1832 0.929 . S
C1824 H1818 0.930 . S
C1824 C1825 1.386 . S
C1824 C1832 1.378 . S
C1825 C1824 1.386 . S
C1825 C1833 1.415 1_545 S
C1826 H1822 0.929 . S
C1826 C1828 1.378 . S
C1826 C1830 1.345 1_565 S
C1827 C1830 1.462 . S
C1827 C1832 1.370 . S
C1827 N1835 1.408 1_545 S
C1828 H1819 0.930 . S
C1828 C1826 1.378 . S
C1828 C1829 1.361 1_565 S
C1829 C1828 1.361 1_545 S
C1829 C1831 1.439 . S
C1830 C1826 1.345 1_545 S
C1830 C1827 1.462 . S
C1830 N1834 1.432 . S
C1831 H1821 0.929 . S
C1831 C1829 1.439 . S
C1831 N1834 1.384 . S
C1832 H1823 0.929 . S
C1832 C1824 1.378 . S
C1832 C1827 1.370 . S
C1833 H1820 0.929 . S
C1833 C1825 1.415 1_565 S
C1833 N1835 1.384 . S
N1834 C1830 1.432 . S
N1834 C1831 1.384 . S
N1835 C1827 1.408 1_565 S
N1835 C1833 1.384 . S
H1836 C1842 0.930 . S
H1837 C1846 0.930 . S
H1838 C1851 0.929 . S
H1839 C1849 0.929 . S
H1840 C1844 0.929 . S
H1841 C1850 0.929 . S
C1842 H1836 0.930 . S
C1842 C1843 1.408 . S
C1842 C1850 1.378 . S
C1843 C1842 1.408 . S
C1843 C1851 1.392 1_545 S
C1844 H1840 0.929 . S
C1844 C1846 1.378 . S
C1844 C1848 1.346 . S
C1845 C1848 1.463 1_545 S
C1845 C1850 1.350 . S
C1845 N1853 1.427 1_545 S
C1846 H1837 0.930 . S
C1846 C1844 1.378 . S
C1846 C1847 1.362 1_565 S
C1847 C1846 1.362 1_545 S
C1847 C1849 1.438 . S
C1848 C1844 1.346 . S
C1848 C1845 1.463 1_565 S
C1848 N1852 1.431 1_565 S
C1849 H1839 0.929 . S
C1849 C1847 1.438 . S
C1849 N1852 1.384 . S
C1850 H1841 0.929 . S
C1850 C1842 1.378 . S
C1850 C1845 1.350 . S
C1851 H1838 0.929 . S
C1851 C1843 1.392 1_565 S
C1851 N1853 1.384 . S
N1852 C1848 1.431 1_545 S
N1852 C1849 1.384 . S
N1853 C1845 1.427 1_565 S
N1853 C1851 1.384 . S
H1854 C1860 0.930 . S
H1855 C1864 0.930 . S
H1856 C1869 0.929 . S
H1857 C1867 0.929 . S
H1858 C1862 0.929 . S
H1859 C1868 0.929 . S
C1860 H1854 0.930 . S
C1860 C1861 1.350 1_655 S
C1860 C1868 1.378 . S
C1861 C1860 1.350 1_455 S
C1861 C1869 1.451 . S
C1862 H1858 0.929 . S
C1862 C1864 1.378 . S
C1862 C1866 1.350 . S
C1863 C1866 1.463 . S
C1863 C1868 1.340 1_455 S
C1863 N1871 1.438 . S
C1864 H1855 0.930 . S
C1864 C1862 1.378 . S
C1864 C1865 1.367 . S
C1865 C1864 1.367 . S
C1865 C1867 1.433 1_455 S
C1866 C1862 1.350 . S
C1866 C1863 1.463 . S
C1866 N1870 1.427 1_455 S
C1867 H1857 0.929 . S
C1867 C1865 1.433 1_655 S
C1867 N1870 1.384 . S
C1868 H1859 0.929 . S
C1868 C1860 1.378 . S
C1868 C1863 1.340 1_655 S
C1869 H1856 0.929 . S
C1869 C1861 1.451 . S
C1869 N1871 1.384 . S
N1870 C1866 1.427 1_655 S
N1870 C1867 1.384 . S
N1871 C1863 1.438 . S
N1871 C1869 1.384 . S
H1872 C1878 0.930 . S
H1873 C1882 0.930 . S
H1874 C1887 0.929 . S
H1875 C1885 0.929 . S
H1876 C1880 0.929 . S
H1877 C1886 0.929 . S
C1878 H1872 0.930 . S
C1878 C1879 1.365 1_565 S
C1878 C1886 1.378 . S
C1879 C1878 1.365 1_545 S
C1879 C1887 1.435 . S
C1880 H1876 0.929 . S
C1880 C1882 1.378 . S
C1880 C1884 1.350 . S
C1881 C1884 1.463 1_565 S
C1881 C1886 1.348 . S
C1881 N1889 1.430 1_565 S
C1882 H1873 0.930 . S
C1882 C1880 1.378 . S
C1882 C1883 1.367 . S
C1883 C1882 1.367 . S
C1883 C1885 1.433 1_545 S
C1884 C1880 1.350 . S
C1884 C1881 1.463 1_545 S
C1884 N1888 1.427 1_545 S
C1885 H1875 0.929 . S
C1885 C1883 1.433 1_565 S
C1885 N1888 1.384 . S
C1886 H1877 0.929 . S
C1886 C1878 1.378 . S
C1886 C1881 1.348 . S
C1887 H1874 0.929 . S
C1887 C1879 1.435 . S
C1887 N1889 1.384 . S
N1888 C1884 1.427 1_565 S
N1888 C1885 1.384 . S
N1889 C1881 1.430 1_545 S
N1889 C1887 1.384 . S
H1890 C1896 0.930 . S
H1891 C1900 0.930 . S
H1892 C1905 0.929 . S
H1893 C1903 0.929 . S
H1894 C1898 0.929 . S
H1895 C1904 0.929 . S
C1896 H1890 0.930 . S
C1896 C1897 1.383 . S
C1896 C1904 1.378 . S
C1897 C1896 1.383 . S
C1897 C1905 1.419 1_455 S
C1898 H1894 0.929 . S
C1898 C1900 1.378 . S
C1898 C1902 1.343 1_655 S
C1899 C1902 1.463 . S
C1899 C1904 1.350 . S
C1899 N1907 1.427 1_455 S
C1900 H1891 0.930 . S
C1900 C1898 1.378 . S
C1900 C1901 1.359 1_655 S
C1901 C1900 1.359 1_455 S
C1901 C1903 1.442 . S
C1902 C1898 1.343 1_455 S
C1902 C1899 1.463 . S
C1902 N1906 1.435 . S
C1903 H1893 0.929 . S
C1903 C1901 1.442 . S
C1903 N1906 1.384 . S
C1904 H1895 0.929 . S
C1904 C1896 1.378 . S
C1904 C1899 1.350 . S
C1905 H1892 0.929 . S
C1905 C1897 1.419 1_655 S
C1905 N1907 1.384 . S
N1906 C1902 1.435 . S
N1906 C1903 1.384 . S
N1907 C1899 1.427 1_655 S
N1907 C1905 1.384 . S
H1908 C1914 0.930 . S
H1909 C1918 0.930 . S
H1910 C1923 0.929 . S
H1911 C1921 0.929 . S
H1912 C1916 0.929 . S
H1913 C1922 0.929 . S
C1914 H1908 0.930 . S
C1914 C1915 1.357 1_565 S
C1914 C1922 1.378 . S
C1915 C1914 1.357 1_545 S
C1915 C1923 1.443 . S
C1916 H1912 0.929 . S
C1916 C1918 1.378 . S
C1916 C1920 1.350 . S
C1917 C1920 1.462 . S
C1917 C1922 1.351 1_545 S
C1917 N1925 1.427 . S
C1918 H1909 0.930 . S
C1918 C1916 1.378 . S
C1918 C1919 1.367 . S
C1919 C1918 1.367 . S
C1919 C1921 1.433 1_545 S
C1920 C1916 1.350 . S
C1920 C1917 1.462 . S
C1920 N1924 1.427 1_545 S
C1921 H1911 0.929 . S
C1921 C1919 1.433 1_565 S
C1921 N1924 1.384 . S
C1922 H1913 0.929 . S
C1922 C1914 1.378 . S
C1922 C1917 1.351 1_565 S
C1923 H1910 0.929 . S
C1923 C1915 1.443 . S
C1923 N1925 1.384 . S
N1924 C1920 1.427 1_565 S
N1924 C1921 1.384 . S
N1925 C1917 1.427 . S
N1925 C1923 1.384 . S
H1926 C1932 0.930 . S
H1927 C1936 0.930 . S
H1928 C1941 0.929 . S
H1929 C1939 0.929 . S
H1930 C1934 0.929 . S
H1931 C1940 0.929 . S
C1932 H1926 0.930 . S
C1932 C1933 1.346 1_655 S
C1932 C1940 1.378 . S
C1933 C1932 1.346 1_455 S
C1933 C1941 1.455 . S
C1934 H1930 0.929 . S
C1934 C1936 1.378 . S
C1934 C1938 1.350 . S
C1935 C1938 1.463 . S
C1935 C1940 1.337 1_455 S
C1935 N1943 1.441 . S
C1936 H1927 0.930 . S
C1936 C1934 1.378 . S
C1936 C1937 1.367 . S
C1937 C1936 1.367 . S
C1937 C1939 1.433 1_455 S
C1938 C1934 1.350 . S
C1938 C1935 1.463 . S
C1938 N1942 1.427 1_455 S
C1939 H1929 0.929 . S
C1939 C1937 1.433 1_655 S
C1939 N1942 1.384 . S
C1940 H1931 0.929 . S
C1940 C1932 1.378 . S
C1940 C1935 1.337 1_655 S
C1941 H1928 0.929 . S
C1941 C1933 1.455 . S
C1941 N1943 1.384 . S
N1942 C1938 1.427 1_655 S
N1942 C1939 1.384 . S
N1943 C1935 1.441 . S
N1943 C1941 1.384 . S
H1944 C1950 0.930 . S
H1945 C1954 0.930 . S
H1946 C1959 0.929 . S
H1947 C1957 0.929 . S
H1948 C1952 0.929 . S
H1949 C1958 0.929 . S
C1950 H1944 0.930 . S
C1950 C1951 1.367 . S
C1950 C1958 1.378 . S
C1951 C1950 1.367 . S
C1951 C1959 1.433 1_545 S
C1952 H1948 0.929 . S
C1952 C1954 1.378 . S
C1952 C1956 1.342 1_565 S
C1953 C1956 1.463 . S
C1953 C1958 1.350 . S
C1953 N1961 1.427 1_545 S
C1954 H1945 0.930 . S
C1954 C1952 1.378 . S
C1954 C1955 1.353 1_565 S
C1955 C1954 1.353 1_545 S
C1955 C1957 1.447 . S
C1956 C1952 1.342 1_545 S
C1956 C1953 1.463 . S
C1956 N1960 1.435 . S
C1957 H1947 0.929 . S
C1957 C1955 1.447 . S
C1957 N1960 1.384 . S
C1958 H1949 0.929 . S
C1958 C1950 1.378 . S
C1958 C1953 1.350 . S
C1959 H1946 0.929 . S
C1959 C1951 1.433 1_565 S
C1959 N1961 1.384 . S
N1960 C1956 1.435 . S
N1960 C1957 1.384 . S
N1961 C1953 1.427 1_565 S
N1961 C1959 1.384 . S
H1962 C1968 0.930 . S
H1963 C1972 0.930 . S
H1964 C1977 0.929 . S
H1965 C1975 0.929 . S
H1966 C1970 0.929 . S
H1967 C1976 0.929 . S
C1968 H1962 0.930 . S
C1968 C1969 1.367 . S
C1968 C1976 1.378 . S
C1969 C1968 1.367 . S
C1969 C1977 1.433 1_455 S
C1970 H1966 0.929 . S
C1970 C1972 1.378 . S
C1970 C1974 1.342 1_655 S
C1971 C1974 1.463 . S
C1971 C1976 1.350 . S
C1971 N1979 1.427 1_455 S
C1972 H1963 0.930 . S
C1972 C1970 1.378 . S
C1972 C1973 1.359 1_655 S
C1973 C1972 1.359 1_455 S
C1973 C1975 1.442 . S
C1974 C1970 1.342 1_455 S
C1974 C1971 1.463 . S
C1974 N1978 1.436 . S
C1975 H1965 0.929 . S
C1975 C1973 1.442 . S
C1975 N1978 1.384 . S
C1976 H1967 0.929 . S
C1976 C1968 1.378 . S
C1976 C1971 1.350 . S
C1977 H1964 0.929 . S
C1977 C1969 1.433 1_655 S
C1977 N1979 1.384 . S
N1978 C1974 1.436 . S
N1978 C1975 1.384 . S
N1979 C1971 1.427 1_655 S
N1979 C1977 1.384 . S
H1980 C1986 0.930 . S
H1981 C1990 0.930 . S
H1982 C1995 0.929 . S
H1983 C1993 0.929 . S
H1984 C1988 0.929 . S
H1985 C1994 0.929 . S
C1986 H1980 0.930 . S
C1986 C1987 1.355 1_556 S
C1986 C1994 1.378 . S
C1987 C1986 1.355 1_554 S
C1987 C1995 1.445 . S
C1988 H1984 0.929 . S
C1988 C1990 1.378 . S
C1988 C1992 1.350 . S
C1989 C1992 1.463 . S
C1989 C1994 1.348 1_554 S
C1989 N1997 1.430 . S
C1990 H1981 0.930 . S
C1990 C1988 1.378 . S
C1990 C1991 1.367 . S
C1991 C1990 1.367 . S
C1991 C1993 1.433 1_554 S
C1992 C1988 1.350 . S
C1992 C1989 1.463 . S
C1992 N1996 1.427 1_554 S
C1993 H1983 0.929 . S
C1993 C1991 1.433 1_556 S
C1993 N1996 1.384 . S
C1994 H1985 0.929 . S
C1994 C1986 1.378 . S
C1994 C1989 1.348 1_556 S
C1995 H1982 0.929 . S
C1995 C1987 1.445 . S
C1995 N1997 1.384 . S
N1996 C1992 1.427 1_556 S
N1996 C1993 1.384 . S
N1997 C1989 1.430 . S
N1997 C1995 1.384 . S
H1998 C2004 0.930 . S
H1999 C2008 0.930 . S
H2000 C2013 0.929 . S
H2001 C2011 0.929 . S
H2002 C2006 0.929 . S
H2003 C2012 0.929 . S
C2004 H1998 0.930 . S
C2004 C2005 1.362 1_556 S
C2004 C2012 1.378 . S
C2005 C2004 1.362 1_554 S
C2005 C2013 1.439 . S
C2006 H2002 0.929 . S
C2006 C2008 1.378 . S
C2006 C2010 1.362 . S
C2007 C2010 1.462 . S
C2007 C2012 1.345 1_554 S
C2007 N2015 1.433 . S
C2008 H1999 0.930 . S
C2008 C2006 1.378 . S
C2008 C2009 1.379 . S
C2009 C2008 1.379 . S
C2009 C2011 1.422 1_554 S
C2010 C2006 1.362 . S
C2010 C2007 1.462 . S
C2010 N2014 1.416 1_554 S
C2011 H2001 0.929 . S
C2011 C2009 1.422 1_556 S
C2011 N2014 1.384 . S
C2012 H2003 0.929 . S
C2012 C2004 1.378 . S
C2012 C2007 1.345 1_556 S
C2013 H2000 0.929 . S
C2013 C2005 1.439 . S
C2013 N2015 1.384 . S
N2014 C2010 1.416 1_556 S
N2014 C2011 1.384 . S
N2015 C2007 1.433 . S
N2015 C2013 1.384 . S
H2016 C2022 0.930 . S
H2017 C2026 0.930 . S
H2018 C2031 0.929 . S
H2019 C2029 0.929 . S
H2020 C2024 0.929 . S
H2021 C2030 0.929 . S
C2022 H2016 0.930 . S
C2022 C2023 1.402 . S
C2022 C2030 1.378 . S
C2023 C2022 1.402 . S
C2023 C2031 1.399 1_554 S
C2024 H2020 0.929 . S
C2024 C2026 1.378 . S
C2024 C2028 1.348 . S
C2025 C2028 1.463 1_554 S
C2025 C2030 1.350 . S
C2025 N2033 1.427 1_554 S
C2026 H2017 0.930 . S
C2026 C2024 1.378 . S
C2026 C2027 1.369 1_556 S
C2027 C2026 1.369 1_554 S
C2027 C2029 1.431 . S
C2028 C2024 1.348 . S
C2028 C2025 1.463 1_556 S
C2028 N2032 1.429 1_556 S
C2029 H2019 0.929 . S
C2029 C2027 1.431 . S
C2029 N2032 1.384 . S
C2030 H2021 0.929 . S
C2030 C2022 1.378 . S
C2030 C2025 1.350 . S
C2031 H2018 0.929 . S
C2031 C2023 1.399 1_556 S
C2031 N2033 1.384 . S
N2032 C2028 1.429 1_554 S
N2032 C2029 1.384 . S
N2033 C2025 1.427 1_556 S
N2033 C2031 1.384 . S
H2034 C2040 0.930 . S
H2035 C2044 0.930 . S
H2036 C2049 0.929 . S
H2037 C2047 0.929 . S
H2038 C2042 0.929 . S
H2039 C2048 0.929 . S
C2040 H2034 0.930 . S
C2040 C2041 1.373 . S
C2040 C2048 1.378 . S
C2041 C2040 1.373 . S
C2041 C2049 1.428 1_554 S
C2042 H2038 0.929 . S
C2042 C2044 1.378 . S
C2042 C2046 1.346 1_556 S
C2043 C2046 1.462 . S
C2043 C2048 1.357 . S
C2043 N2051 1.421 1_554 S
C2044 H2035 0.930 . S
C2044 C2042 1.378 . S
C2044 C2045 1.362 1_556 S
C2045 C2044 1.362 1_554 S
C2045 C2047 1.439 . S
C2046 C2042 1.346 1_554 S
C2046 C2043 1.462 . S
C2046 N2050 1.432 . S
C2047 H2037 0.929 . S
C2047 C2045 1.439 . S
C2047 N2050 1.384 . S
C2048 H2039 0.929 . S
C2048 C2040 1.378 . S
C2048 C2043 1.357 . S
C2049 H2036 0.929 . S
C2049 C2041 1.428 1_556 S
C2049 N2051 1.384 . S
N2050 C2046 1.432 . S
N2050 C2047 1.384 . S
N2051 C2043 1.421 1_556 S
N2051 C2049 1.384 . S
H2052 C2058 0.930 . S
H2053 C2062 0.930 . S
H2054 C2067 0.929 . S
H2055 C2065 0.929 . S
H2056 C2060 0.929 . S
H2057 C2066 0.929 . S
C2058 H2052 0.930 . S
C2058 C2059 1.372 . S
C2058 C2066 1.378 . S
C2059 C2058 1.372 . S
C2059 C2067 1.428 1_554 S
C2060 H2056 0.929 . S
C2060 C2062 1.378 . S
C2060 C2064 1.351 1_556 S
C2061 C2064 1.462 . S
C2061 C2066 1.357 . S
C2061 N2069 1.421 1_554 S
C2062 H2053 0.930 . S
C2062 C2060 1.378 . S
C2062 C2063 1.367 1_556 S
C2063 C2062 1.367 1_554 S
C2063 C2065 1.433 . S
C2064 C2060 1.351 1_554 S
C2064 C2061 1.462 . S
C2064 N2068 1.426 . S
C2065 H2055 0.929 . S
C2065 C2063 1.433 . S
C2065 N2068 1.384 . S
C2066 H2057 0.929 . S
C2066 C2058 1.378 . S
C2066 C2061 1.357 . S
C2067 H2054 0.929 . S
C2067 C2059 1.428 1_556 S
C2067 N2069 1.384 . S
N2068 C2064 1.426 . S
N2068 C2065 1.384 . S
N2069 C2061 1.421 1_556 S
N2069 C2067 1.384 . S
H2070 C2076 0.930 . S
H2071 C2080 0.930 . S
H2072 C2085 0.929 . S
H2073 C2083 0.929 . S
H2074 C2078 0.929 . S
H2075 C2084 0.929 . S
C2076 H2070 0.930 . S
C2076 C2077 1.406 . S
C2076 C2084 1.378 . S
C2077 C2076 1.406 . S
C2077 C2085 1.394 1_554 S
C2078 H2074 0.929 . S
C2078 C2080 1.378 . S
C2078 C2082 1.346 . S
C2079 C2082 1.463 1_554 S
C2079 C2084 1.350 . S
C2079 N2087 1.427 1_554 S
C2080 H2071 0.930 . S
C2080 C2078 1.378 . S
C2080 C2081 1.359 1_556 S
C2081 C2080 1.359 1_554 S
C2081 C2083 1.441 . S
C2082 C2078 1.346 . S
C2082 C2079 1.463 1_556 S
C2082 N2086 1.432 1_556 S
C2083 H2073 0.929 . S
C2083 C2081 1.441 . S
C2083 N2086 1.384 . S
C2084 H2075 0.929 . S
C2084 C2076 1.378 . S
C2084 C2079 1.350 . S
C2085 H2072 0.929 . S
C2085 C2077 1.394 1_556 S
C2085 N2087 1.384 . S
N2086 C2082 1.432 1_554 S
N2086 C2083 1.384 . S
N2087 C2079 1.427 1_556 S
N2087 C2085 1.384 . S
H2088 C2094 0.930 . S
H2089 C2098 0.930 . S
H2090 C2103 0.929 . S
H2091 C2101 0.929 . S
H2092 C2096 0.929 . S
H2093 C2102 0.929 . S
C2094 H2088 0.930 . S
C2094 C2095 1.363 . S
C2094 C2102 1.378 . S
C2095 C2094 1.363 . S
C2095 C2103 1.437 1_556 S
C2096 H2092 0.929 . S
C2096 C2098 1.378 . S
C2096 C2100 1.388 . S
C2097 C2100 1.461 1_556 S
C2097 C2102 1.357 . S
C2097 N2105 1.420 1_556 S
C2098 H2089 0.930 . S
C2098 C2096 1.378 . S
C2098 C2099 1.394 . S
C2099 C2098 1.394 . S
C2099 C2101 1.406 1_554 S
C2100 C2096 1.388 . S
C2100 C2097 1.461 1_554 S
C2100 N2104 1.389 1_554 S
C2101 H2091 0.929 . S
C2101 C2099 1.406 1_556 S
C2101 N2104 1.384 . S
C2102 H2093 0.929 . S
C2102 C2094 1.378 . S
C2102 C2097 1.357 . S
C2103 H2090 0.929 . S
C2103 C2095 1.437 1_554 S
C2103 N2105 1.384 . S
N2104 C2100 1.389 1_556 S
N2104 C2101 1.384 . S
N2105 C2097 1.420 1_554 S
N2105 C2103 1.384 . S
H2106 C2112 0.930 . S
H2107 C2116 0.930 . S
H2108 C2121 0.929 . S
H2109 C2119 0.929 . S
H2110 C2114 0.929 . S
H2111 C2120 0.929 . S
C2112 H2106 0.930 . S
C2112 C2113 1.364 1_556 S
C2112 C2120 1.378 . S
C2113 C2112 1.364 1_554 S
C2113 C2121 1.436 . S
C2114 H2110 0.929 . S
C2114 C2116 1.378 . S
C2114 C2118 1.354 . S
C2115 C2118 1.462 . S
C2115 C2120 1.348 1_554 S
C2115 N2123 1.429 . S
C2116 H2107 0.930 . S
C2116 C2114 1.378 . S
C2116 C2117 1.370 . S
C2117 C2116 1.370 . S
C2117 C2119 1.430 1_554 S
C2118 C2114 1.354 . S
C2118 C2115 1.462 . S
C2118 N2122 1.423 1_554 S
C2119 H2109 0.929 . S
C2119 C2117 1.430 1_556 S
C2119 N2122 1.384 . S
C2120 H2111 0.929 . S
C2120 C2112 1.378 . S
C2120 C2115 1.348 1_556 S
C2121 H2108 0.929 . S
C2121 C2113 1.436 . S
C2121 N2123 1.384 . S
N2122 C2118 1.423 1_556 S
N2122 C2119 1.384 . S
N2123 C2115 1.429 . S
N2123 C2121 1.384 . S
H2124 C2130 0.930 . S
H2125 C2134 0.930 . S
H2126 C2139 0.929 . S
H2127 C2137 0.929 . S
H2128 C2132 0.929 . S
H2129 C2138 0.929 . S
C2130 H2124 0.930 . S
C2130 C2131 1.367 . S
C2130 C2138 1.378 . S
C2131 C2130 1.367 . S
C2131 C2139 1.433 . S
C2132 H2128 0.929 . S
C2132 C2134 1.378 . S
C2132 C2136 1.350 . S
C2133 C2136 1.463 . S
C2133 C2138 1.350 . S
C2133 N2141 1.427 . S
C2134 H2125 0.930 . S
C2134 C2132 1.378 . S
C2134 C2135 1.367 . S
C2135 C2134 1.367 . S
C2135 C2137 1.433 . S
C2136 C2132 1.350 . S
C2136 C2133 1.463 . S
C2136 N2140 1.427 . S
C2137 H2127 0.929 . S
C2137 C2135 1.433 . S
C2137 N2140 1.384 . S
C2138 H2129 0.929 . S
C2138 C2130 1.378 . S
C2138 C2133 1.350 . S
C2139 H2126 0.929 . S
C2139 C2131 1.433 . S
C2139 N2141 1.384 . S
N2140 C2136 1.427 . S
N2140 C2137 1.384 . S
N2141 C2133 1.427 . S
N2141 C2139 1.384 . S
H2142 C2148 0.930 . S
H2143 C2152 0.930 . S
H2144 C2157 0.929 . S
H2145 C2155 0.929 . S
H2146 C2150 0.929 . S
H2147 C2156 0.929 . S
C2148 H2142 0.930 . S
C2148 C2149 1.367 . S
C2148 C2156 1.378 . S
C2149 C2148 1.367 . S
C2149 C2157 1.433 . S
C2150 H2146 0.929 . S
C2150 C2152 1.378 . S
C2150 C2154 1.350 . S
C2151 C2154 1.463 . S
C2151 C2156 1.350 . S
C2151 N2159 1.427 . S
C2152 H2143 0.930 . S
C2152 C2150 1.378 . S
C2152 C2153 1.367 . S
C2153 C2152 1.367 . S
C2153 C2155 1.433 . S
C2154 C2150 1.350 . S
C2154 C2151 1.463 . S
C2154 N2158 1.427 . S
C2155 H2145 0.929 . S
C2155 C2153 1.433 . S
C2155 N2158 1.384 . S
C2156 H2147 0.929 . S
C2156 C2148 1.378 . S
C2156 C2151 1.350 . S
C2157 H2144 0.929 . S
C2157 C2149 1.433 . S
C2157 N2159 1.384 . S
N2158 C2154 1.427 . S
N2158 C2155 1.384 . S
N2159 C2151 1.427 . S
N2159 C2157 1.384 . S
H2160 C2166 0.930 . S
H2161 C2170 0.930 . S
H2162 C2175 0.929 . S
H2163 C2173 0.929 . S
H2164 C2168 0.929 . S
H2165 C2174 0.929 . S
C2166 H2160 0.930 . S
C2166 C2167 1.367 . S
C2166 C2174 1.378 . S
C2167 C2166 1.367 . S
C2167 C2175 1.433 . S
C2168 H2164 0.929 . S
C2168 C2170 1.378 . S
C2168 C2172 1.350 . S
C2169 C2172 1.463 . S
C2169 C2174 1.350 . S
C2169 N2177 1.427 . S
C2170 H2161 0.930 . S
C2170 C2168 1.378 . S
C2170 C2171 1.367 . S
C2171 C2170 1.367 . S
C2171 C2173 1.433 . S
C2172 C2168 1.350 . S
C2172 C2169 1.463 . S
C2172 N2176 1.427 . S
C2173 H2163 0.929 . S
C2173 C2171 1.433 . S
C2173 N2176 1.384 . S
C2174 H2165 0.929 . S
C2174 C2166 1.378 . S
C2174 C2169 1.350 . S
C2175 H2162 0.929 . S
C2175 C2167 1.433 . S
C2175 N2177 1.384 . S
N2176 C2172 1.427 . S
N2176 C2173 1.384 . S
N2177 C2169 1.427 . S
N2177 C2175 1.384 . S
H2178 C2184 0.930 . S
H2179 C2188 0.930 . S
H2180 C2193 0.929 . S
H2181 C2191 0.929 . S
H2182 C2186 0.929 . S
H2183 C2192 0.929 . S
C2184 H2178 0.930 . S
C2184 C2185 1.367 . S
C2184 C2192 1.378 . S
C2185 C2184 1.367 . S
C2185 C2193 1.433 . S
C2186 H2182 0.929 . S
C2186 C2188 1.378 . S
C2186 C2190 1.350 . S
C2187 C2190 1.463 . S
C2187 C2192 1.350 . S
C2187 N2195 1.427 . S
C2188 H2179 0.930 . S
C2188 C2186 1.378 . S
C2188 C2189 1.367 . S
C2189 C2188 1.367 . S
C2189 C2191 1.433 . S
C2190 C2186 1.350 . S
C2190 C2187 1.463 . S
C2190 N2194 1.427 . S
C2191 H2181 0.929 . S
C2191 C2189 1.433 . S
C2191 N2194 1.384 . S
C2192 H2183 0.929 . S
C2192 C2184 1.378 . S
C2192 C2187 1.350 . S
C2193 H2180 0.929 . S
C2193 C2185 1.433 . S
C2193 N2195 1.384 . S
N2194 C2190 1.427 . S
N2194 C2191 1.384 . S
N2195 C2187 1.427 . S
N2195 C2193 1.384 . S
H2196 C2202 0.930 . S
H2197 C2206 0.930 . S
H2198 C2211 0.929 . S
H2199 C2209 0.929 . S
H2200 C2204 0.929 . S
H2201 C2210 0.929 . S
C2202 H2196 0.930 . S
C2202 C2203 1.367 . S
C2202 C2210 1.378 . S
C2203 C2202 1.367 . S
C2203 C2211 1.433 . S
C2204 H2200 0.929 . S
C2204 C2206 1.378 . S
C2204 C2208 1.350 . S
C2205 C2208 1.463 . S
C2205 C2210 1.350 . S
C2205 N2213 1.427 . S
C2206 H2197 0.930 . S
C2206 C2204 1.378 . S
C2206 C2207 1.367 . S
C2207 C2206 1.367 . S
C2207 C2209 1.433 . S
C2208 C2204 1.350 . S
C2208 C2205 1.463 . S
C2208 N2212 1.427 . S
C2209 H2199 0.929 . S
C2209 C2207 1.433 . S
C2209 N2212 1.384 . S
C2210 H2201 0.929 . S
C2210 C2202 1.378 . S
C2210 C2205 1.350 . S
C2211 H2198 0.929 . S
C2211 C2203 1.433 . S
C2211 N2213 1.384 . S
N2212 C2208 1.427 . S
N2212 C2209 1.384 . S
N2213 C2205 1.427 . S
N2213 C2211 1.384 . S
H2214 C2220 0.930 . S
H2215 C2224 0.930 . S
H2216 C2229 0.929 . S
H2217 C2227 0.929 . S
H2218 C2222 0.929 . S
H2219 C2228 0.929 . S
C2220 H2214 0.930 . S
C2220 C2221 1.367 . S
C2220 C2228 1.378 . S
C2221 C2220 1.367 . S
C2221 C2229 1.433 . S
C2222 H2218 0.929 . S
C2222 C2224 1.378 . S
C2222 C2226 1.350 . S
C2223 C2226 1.463 . S
C2223 C2228 1.350 . S
C2223 N2231 1.427 . S
C2224 H2215 0.930 . S
C2224 C2222 1.378 . S
C2224 C2225 1.367 . S
C2225 C2224 1.367 . S
C2225 C2227 1.433 . S
C2226 C2222 1.350 . S
C2226 C2223 1.463 . S
C2226 N2230 1.427 . S
C2227 H2217 0.929 . S
C2227 C2225 1.433 . S
C2227 N2230 1.384 . S
C2228 H2219 0.929 . S
C2228 C2220 1.378 . S
C2228 C2223 1.350 . S
C2229 H2216 0.929 . S
C2229 C2221 1.433 . S
C2229 N2231 1.384 . S
N2230 C2226 1.427 . S
N2230 C2227 1.384 . S
N2231 C2223 1.427 . S
N2231 C2229 1.384 . S
H2232 C2238 0.930 . S
H2233 C2242 0.930 . S
H2234 C2247 0.929 . S
H2235 C2245 0.929 . S
H2236 C2240 0.929 . S
H2237 C2246 0.929 . S
C2238 H2232 0.930 . S
C2238 C2239 1.367 . S
C2238 C2246 1.378 . S
C2239 C2238 1.367 . S
C2239 C2247 1.433 . S
C2240 H2236 0.929 . S
C2240 C2242 1.378 . S
C2240 C2244 1.350 . S
C2241 C2244 1.463 . S
C2241 C2246 1.350 . S
C2241 N2249 1.427 . S
C2242 H2233 0.930 . S
C2242 C2240 1.378 . S
C2242 C2243 1.367 . S
C2243 C2242 1.367 . S
C2243 C2245 1.433 . S
C2244 C2240 1.350 . S
C2244 C2241 1.463 . S
C2244 N2248 1.427 . S
C2245 H2235 0.929 . S
C2245 C2243 1.433 . S
C2245 N2248 1.384 . S
C2246 H2237 0.929 . S
C2246 C2238 1.378 . S
C2246 C2241 1.350 . S
C2247 H2234 0.929 . S
C2247 C2239 1.433 . S
C2247 N2249 1.384 . S
N2248 C2244 1.427 . S
N2248 C2245 1.384 . S
N2249 C2241 1.427 . S
N2249 C2247 1.384 . S
H2250 C2256 0.930 . S
H2251 C2260 0.930 . S
H2252 C2265 0.929 . S
H2253 C2263 0.929 . S
H2254 C2258 0.929 . S
H2255 C2264 0.929 . S
C2256 H2250 0.930 . S
C2256 C2257 1.367 . S
C2256 C2264 1.378 . S
C2257 C2256 1.367 . S
C2257 C2265 1.433 . S
C2258 H2254 0.929 . S
C2258 C2260 1.378 . S
C2258 C2262 1.350 . S
C2259 C2262 1.463 . S
C2259 C2264 1.350 . S
C2259 N2267 1.427 . S
C2260 H2251 0.930 . S
C2260 C2258 1.378 . S
C2260 C2261 1.367 . S
C2261 C2260 1.367 . S
C2261 C2263 1.433 . S
C2262 C2258 1.350 . S
C2262 C2259 1.463 . S
C2262 N2266 1.427 . S
C2263 H2253 0.929 . S
C2263 C2261 1.433 . S
C2263 N2266 1.384 . S
C2264 H2255 0.929 . S
C2264 C2256 1.378 . S
C2264 C2259 1.350 . S
C2265 H2252 0.929 . S
C2265 C2257 1.433 . S
C2265 N2267 1.384 . S
N2266 C2262 1.427 . S
N2266 C2263 1.384 . S
N2267 C2259 1.427 . S
N2267 C2265 1.384 . S
H2268 C2274 0.930 . S
H2269 C2278 0.930 . S
H2270 C2283 0.929 . S
H2271 C2281 0.929 . S
H2272 C2276 0.929 . S
H2273 C2282 0.929 . S
C2274 H2268 0.930 . S
C2274 C2275 1.367 . S
C2274 C2282 1.378 . S
C2275 C2274 1.367 . S
C2275 C2283 1.433 . S
C2276 H2272 0.929 . S
C2276 C2278 1.378 . S
C2276 C2280 1.350 . S
C2277 C2280 1.463 . S
C2277 C2282 1.350 . S
C2277 N2285 1.427 . S
C2278 H2269 0.930 . S
C2278 C2276 1.378 . S
C2278 C2279 1.367 . S
C2279 C2278 1.367 . S
C2279 C2281 1.433 . S
C2280 C2276 1.350 . S
C2280 C2277 1.463 . S
C2280 N2284 1.427 . S
C2281 H2271 0.929 . S
C2281 C2279 1.433 . S
C2281 N2284 1.384 . S
C2282 H2273 0.929 . S
C2282 C2274 1.378 . S
C2282 C2277 1.350 . S
C2283 H2270 0.929 . S
C2283 C2275 1.433 . S
C2283 N2285 1.384 . S
N2284 C2280 1.427 . S
N2284 C2281 1.384 . S
N2285 C2277 1.427 . S
N2285 C2283 1.384 . S
H2286 C2292 0.930 . S
H2287 C2296 0.930 . S
H2288 C2301 0.929 . S
H2289 C2299 0.929 . S
H2290 C2294 0.929 . S
H2291 C2300 0.929 . S
C2292 H2286 0.930 . S
C2292 C2293 1.367 . S
C2292 C2300 1.378 . S
C2293 C2292 1.367 . S
C2293 C2301 1.433 . S
C2294 H2290 0.929 . S
C2294 C2296 1.378 . S
C2294 C2298 1.350 . S
C2295 C2298 1.463 . S
C2295 C2300 1.350 . S
C2295 N2303 1.427 . S
C2296 H2287 0.930 . S
C2296 C2294 1.378 . S
C2296 C2297 1.367 . S
C2297 C2296 1.367 . S
C2297 C2299 1.433 . S
C2298 C2294 1.350 . S
C2298 C2295 1.463 . S
C2298 N2302 1.427 . S
C2299 H2289 0.929 . S
C2299 C2297 1.433 . S
C2299 N2302 1.384 . S
C2300 H2291 0.929 . S
C2300 C2292 1.378 . S
C2300 C2295 1.350 . S
C2301 H2288 0.929 . S
C2301 C2293 1.433 . S
C2301 N2303 1.384 . S
N2302 C2298 1.427 . S
N2302 C2299 1.384 . S
N2303 C2295 1.427 . S
N2303 C2301 1.384 . S
H2304 C2310 0.930 . S
H2305 C2314 0.930 . S
H2306 C2319 0.929 . S
H2307 C2317 0.929 . S
H2308 C2312 0.929 . S
H2309 C2318 0.929 . S
C2310 H2304 0.930 . S
C2310 C2311 1.367 . S
C2310 C2318 1.378 . S
C2311 C2310 1.367 . S
C2311 C2319 1.433 . S
C2312 H2308 0.929 . S
C2312 C2314 1.378 . S
C2312 C2316 1.350 . S
C2313 C2316 1.463 . S
C2313 C2318 1.350 . S
C2313 N2321 1.427 . S
C2314 H2305 0.930 . S
C2314 C2312 1.378 . S
C2314 C2315 1.367 . S
C2315 C2314 1.367 . S
C2315 C2317 1.433 . S
C2316 C2312 1.350 . S
C2316 C2313 1.463 . S
C2316 N2320 1.427 . S
C2317 H2307 0.929 . S
C2317 C2315 1.433 . S
C2317 N2320 1.384 . S
C2318 H2309 0.929 . S
C2318 C2310 1.378 . S
C2318 C2313 1.350 . S
C2319 H2306 0.929 . S
C2319 C2311 1.433 . S
C2319 N2321 1.384 . S
N2320 C2316 1.427 . S
N2320 C2317 1.384 . S
N2321 C2313 1.427 . S
N2321 C2319 1.384 . S
H2322 C2328 0.930 . S
H2323 C2332 0.930 . S
H2324 C2337 0.929 . S
H2325 C2335 0.929 . S
H2326 C2330 0.929 . S
H2327 C2336 0.929 . S
C2328 H2322 0.930 . S
C2328 C2329 1.367 . S
C2328 C2336 1.378 . S
C2329 C2328 1.367 . S
C2329 C2337 1.433 . S
C2330 H2326 0.929 . S
C2330 C2332 1.378 . S
C2330 C2334 1.350 . S
C2331 C2334 1.463 . S
C2331 C2336 1.350 . S
C2331 N2339 1.427 . S
C2332 H2323 0.930 . S
C2332 C2330 1.378 . S
C2332 C2333 1.367 . S
C2333 C2332 1.367 . S
C2333 C2335 1.433 . S
C2334 C2330 1.350 . S
C2334 C2331 1.463 . S
C2334 N2338 1.427 . S
C2335 H2325 0.929 . S
C2335 C2333 1.433 . S
C2335 N2338 1.384 . S
C2336 H2327 0.929 . S
C2336 C2328 1.378 . S
C2336 C2331 1.350 . S
C2337 H2324 0.929 . S
C2337 C2329 1.433 . S
C2337 N2339 1.384 . S
N2338 C2334 1.427 . S
N2338 C2335 1.384 . S
N2339 C2331 1.427 . S
N2339 C2337 1.384 . S
H2340 C2346 0.930 . S
H2341 C2350 0.930 . S
H2342 C2355 0.929 . S
H2343 C2353 0.929 . S
H2344 C2348 0.929 . S
H2345 C2354 0.929 . S
C2346 H2340 0.930 . S
C2346 C2347 1.367 . S
C2346 C2354 1.378 . S
C2347 C2346 1.367 . S
C2347 C2355 1.433 . S
C2348 H2344 0.929 . S
C2348 C2350 1.378 . S
C2348 C2352 1.350 . S
C2349 C2352 1.463 . S
C2349 C2354 1.350 . S
C2349 N2357 1.427 . S
C2350 H2341 0.930 . S
C2350 C2348 1.378 . S
C2350 C2351 1.367 . S
C2351 C2350 1.367 . S
C2351 C2353 1.433 . S
C2352 C2348 1.350 . S
C2352 C2349 1.463 . S
C2352 N2356 1.427 . S
C2353 H2343 0.929 . S
C2353 C2351 1.433 . S
C2353 N2356 1.384 . S
C2354 H2345 0.929 . S
C2354 C2346 1.378 . S
C2354 C2349 1.350 . S
C2355 H2342 0.929 . S
C2355 C2347 1.433 . S
C2355 N2357 1.384 . S
N2356 C2352 1.427 . S
N2356 C2353 1.384 . S
N2357 C2349 1.427 . S
N2357 C2355 1.384 . S
H2358 C2364 0.930 . S
H2359 C2368 0.930 . S
H2360 C2373 0.929 . S
H2361 C2371 0.929 . S
H2362 C2366 0.929 . S
H2363 C2372 0.929 . S
C2364 H2358 0.930 . S
C2364 C2365 1.367 . S
C2364 C2372 1.378 . S
C2365 C2364 1.367 . S
C2365 C2373 1.433 . S
C2366 H2362 0.929 . S
C2366 C2368 1.378 . S
C2366 C2370 1.350 . S
C2367 C2370 1.463 . S
C2367 C2372 1.350 . S
C2367 N2375 1.427 . S
C2368 H2359 0.930 . S
C2368 C2366 1.378 . S
C2368 C2369 1.367 . S
C2369 C2368 1.367 . S
C2369 C2371 1.433 . S
C2370 C2366 1.350 . S
C2370 C2367 1.463 . S
C2370 N2374 1.427 . S
C2371 H2361 0.929 . S
C2371 C2369 1.433 . S
C2371 N2374 1.384 . S
C2372 H2363 0.929 . S
C2372 C2364 1.378 . S
C2372 C2367 1.350 . S
C2373 H2360 0.929 . S
C2373 C2365 1.433 . S
C2373 N2375 1.384 . S
N2374 C2370 1.427 . S
N2374 C2371 1.384 . S
N2375 C2367 1.427 . S
N2375 C2373 1.384 . S
H2376 C2382 0.930 . S
H2377 C2386 0.930 . S
H2378 C2391 0.929 . S
H2379 C2389 0.929 . S
H2380 C2384 0.929 . S
H2381 C2390 0.929 . S
C2382 H2376 0.930 . S
C2382 C2383 1.367 . S
C2382 C2390 1.378 . S
C2383 C2382 1.367 . S
C2383 C2391 1.433 . S
C2384 H2380 0.929 . S
C2384 C2386 1.378 . S
C2384 C2388 1.350 . S
C2385 C2388 1.463 . S
C2385 C2390 1.350 . S
C2385 N2393 1.427 . S
C2386 H2377 0.930 . S
C2386 C2384 1.378 . S
C2386 C2387 1.367 . S
C2387 C2386 1.367 . S
C2387 C2389 1.433 . S
C2388 C2384 1.350 . S
C2388 C2385 1.463 . S
C2388 N2392 1.427 . S
C2389 H2379 0.929 . S
C2389 C2387 1.433 . S
C2389 N2392 1.384 . S
C2390 H2381 0.929 . S
C2390 C2382 1.378 . S
C2390 C2385 1.350 . S
C2391 H2378 0.929 . S
C2391 C2383 1.433 . S
C2391 N2393 1.384 . S
N2392 C2388 1.427 . S
N2392 C2389 1.384 . S
N2393 C2385 1.427 . S
N2393 C2391 1.384 . S
H2394 C2400 0.930 . S
H2395 C2404 0.930 . S
H2396 C2409 0.929 . S
H2397 C2407 0.929 . S
H2398 C2402 0.929 . S
H2399 C2408 0.929 . S
C2400 H2394 0.930 . S
C2400 C2401 1.367 . S
C2400 C2408 1.378 . S
C2401 C2400 1.367 . S
C2401 C2409 1.433 . S
C2402 H2398 0.929 . S
C2402 C2404 1.378 . S
C2402 C2406 1.350 . S
C2403 C2406 1.463 . S
C2403 C2408 1.350 . S
C2403 N2411 1.427 . S
C2404 H2395 0.930 . S
C2404 C2402 1.378 . S
C2404 C2405 1.367 . S
C2405 C2404 1.367 . S
C2405 C2407 1.433 . S
C2406 C2402 1.350 . S
C2406 C2403 1.463 . S
C2406 N2410 1.427 . S
C2407 H2397 0.929 . S
C2407 C2405 1.433 . S
C2407 N2410 1.384 . S
C2408 H2399 0.929 . S
C2408 C2400 1.378 . S
C2408 C2403 1.350 . S
C2409 H2396 0.929 . S
C2409 C2401 1.433 . S
C2409 N2411 1.384 . S
N2410 C2406 1.427 . S
N2410 C2407 1.384 . S
N2411 C2403 1.427 . S
N2411 C2409 1.384 . S
H2412 C2418 0.930 . S
H2413 C2422 0.930 . S
H2414 C2427 0.929 . S
H2415 C2425 0.929 . S
H2416 C2420 0.929 . S
H2417 C2426 0.929 . S
C2418 H2412 0.930 . S
C2418 C2419 1.367 . S
C2418 C2426 1.378 . S
C2419 C2418 1.367 . S
C2419 C2427 1.433 . S
C2420 H2416 0.929 . S
C2420 C2422 1.378 . S
C2420 C2424 1.350 . S
C2421 C2424 1.463 . S
C2421 C2426 1.350 . S
C2421 N2429 1.427 . S
C2422 H2413 0.930 . S
C2422 C2420 1.378 . S
C2422 C2423 1.367 . S
C2423 C2422 1.367 . S
C2423 C2425 1.433 . S
C2424 C2420 1.350 . S
C2424 C2421 1.463 . S
C2424 N2428 1.427 . S
C2425 H2415 0.929 . S
C2425 C2423 1.433 . S
C2425 N2428 1.384 . S
C2426 H2417 0.929 . S
C2426 C2418 1.378 . S
C2426 C2421 1.350 . S
C2427 H2414 0.929 . S
C2427 C2419 1.433 . S
C2427 N2429 1.384 . S
N2428 C2424 1.427 . S
N2428 C2425 1.384 . S
N2429 C2421 1.427 . S
N2429 C2427 1.384 . S
H2430 C2436 0.930 . S
H2431 C2440 0.930 . S
H2432 C2445 0.929 . S
H2433 C2443 0.929 . S
H2434 C2438 0.929 . S
H2435 C2444 0.929 . S
C2436 H2430 0.930 . S
C2436 C2437 1.367 . S
C2436 C2444 1.378 . S
C2437 C2436 1.367 . S
C2437 C2445 1.433 . S
C2438 H2434 0.929 . S
C2438 C2440 1.378 . S
C2438 C2442 1.350 . S
C2439 C2442 1.463 . S
C2439 C2444 1.350 . S
C2439 N2447 1.427 . S
C2440 H2431 0.930 . S
C2440 C2438 1.378 . S
C2440 C2441 1.367 . S
C2441 C2440 1.367 . S
C2441 C2443 1.433 . S
C2442 C2438 1.350 . S
C2442 C2439 1.463 . S
C2442 N2446 1.427 . S
C2443 H2433 0.929 . S
C2443 C2441 1.433 . S
C2443 N2446 1.384 . S
C2444 H2435 0.929 . S
C2444 C2436 1.378 . S
C2444 C2439 1.350 . S
C2445 H2432 0.929 . S
C2445 C2437 1.433 . S
C2445 N2447 1.384 . S
N2446 C2442 1.427 . S
N2446 C2443 1.384 . S
N2447 C2439 1.427 . S
N2447 C2445 1.384 . S
H2448 C2454 0.930 . S
H2449 C2458 0.930 . S
H2450 C2463 0.929 . S
H2451 C2461 0.929 . S
H2452 C2456 0.929 . S
H2453 C2462 0.929 . S
C2454 H2448 0.930 . S
C2454 C2455 1.367 . S
C2454 C2462 1.378 . S
C2455 C2454 1.367 . S
C2455 C2463 1.433 . S
C2456 H2452 0.929 . S
C2456 C2458 1.378 . S
C2456 C2460 1.350 . S
C2457 C2460 1.463 . S
C2457 C2462 1.350 . S
C2457 N2465 1.427 . S
C2458 H2449 0.930 . S
C2458 C2456 1.378 . S
C2458 C2459 1.367 . S
C2459 C2458 1.367 . S
C2459 C2461 1.433 . S
C2460 C2456 1.350 . S
C2460 C2457 1.463 . S
C2460 N2464 1.427 . S
C2461 H2451 0.929 . S
C2461 C2459 1.433 . S
C2461 N2464 1.384 . S
C2462 H2453 0.929 . S
C2462 C2454 1.378 . S
C2462 C2457 1.350 . S
C2463 H2450 0.929 . S
C2463 C2455 1.433 . S
C2463 N2465 1.384 . S
N2464 C2460 1.427 . S
N2464 C2461 1.384 . S
N2465 C2457 1.427 . S
N2465 C2463 1.384 . S
H2466 C2472 0.930 . S
H2467 C2476 0.930 . S
H2468 C2481 0.929 . S
H2469 C2479 0.929 . S
H2470 C2474 0.929 . S
H2471 C2480 0.929 . S
C2472 H2466 0.930 . S
C2472 C2473 1.367 . S
C2472 C2480 1.378 . S
C2473 C2472 1.367 . S
C2473 C2481 1.433 . S
C2474 H2470 0.929 . S
C2474 C2476 1.378 . S
C2474 C2478 1.350 . S
C2475 C2478 1.463 . S
C2475 C2480 1.350 . S
C2475 N2483 1.427 . S
C2476 H2467 0.930 . S
C2476 C2474 1.378 . S
C2476 C2477 1.367 . S
C2477 C2476 1.367 . S
C2477 C2479 1.433 . S
C2478 C2474 1.350 . S
C2478 C2475 1.463 . S
C2478 N2482 1.427 . S
C2479 H2469 0.929 . S
C2479 C2477 1.433 . S
C2479 N2482 1.384 . S
C2480 H2471 0.929 . S
C2480 C2472 1.378 . S
C2480 C2475 1.350 . S
C2481 H2468 0.929 . S
C2481 C2473 1.433 . S
C2481 N2483 1.384 . S
N2482 C2478 1.427 . S
N2482 C2479 1.384 . S
N2483 C2475 1.427 . S
N2483 C2481 1.384 . S
H2484 C2490 0.930 . S
H2485 C2494 0.930 . S
H2486 C2499 0.929 . S
H2487 C2497 0.929 . S
H2488 C2492 0.929 . S
H2489 C2498 0.929 . S
C2490 H2484 0.930 . S
C2490 C2491 1.367 . S
C2490 C2498 1.378 . S
C2491 C2490 1.367 . S
C2491 C2499 1.433 . S
C2492 H2488 0.929 . S
C2492 C2494 1.378 . S
C2492 C2496 1.350 . S
C2493 C2496 1.463 . S
C2493 C2498 1.350 . S
C2493 N2501 1.427 . S
C2494 H2485 0.930 . S
C2494 C2492 1.378 . S
C2494 C2495 1.367 . S
C2495 C2494 1.367 . S
C2495 C2497 1.433 . S
C2496 C2492 1.350 . S
C2496 C2493 1.463 . S
C2496 N2500 1.427 . S
C2497 H2487 0.929 . S
C2497 C2495 1.433 . S
C2497 N2500 1.384 . S
C2498 H2489 0.929 . S
C2498 C2490 1.378 . S
C2498 C2493 1.350 . S
C2499 H2486 0.929 . S
C2499 C2491 1.433 . S
C2499 N2501 1.384 . S
N2500 C2496 1.427 . S
N2500 C2497 1.384 . S
N2501 C2493 1.427 . S
N2501 C2499 1.384 . S
H2502 C2508 0.930 . S
H2503 C2512 0.930 . S
H2504 C2517 0.929 . S
H2505 C2515 0.929 . S
H2506 C2510 0.929 . S
H2507 C2516 0.929 . S
C2508 H2502 0.930 . S
C2508 C2509 1.367 . S
C2508 C2516 1.378 . S
C2509 C2508 1.367 . S
C2509 C2517 1.433 . S
C2510 H2506 0.929 . S
C2510 C2512 1.378 . S
C2510 C2514 1.350 . S
C2511 C2514 1.463 . S
C2511 C2516 1.350 . S
C2511 N2519 1.427 . S
C2512 H2503 0.930 . S
C2512 C2510 1.378 . S
C2512 C2513 1.367 . S
C2513 C2512 1.367 . S
C2513 C2515 1.433 . S
C2514 C2510 1.350 . S
C2514 C2511 1.463 . S
C2514 N2518 1.427 . S
C2515 H2505 0.929 . S
C2515 C2513 1.433 . S
C2515 N2518 1.384 . S
C2516 H2507 0.929 . S
C2516 C2508 1.378 . S
C2516 C2511 1.350 . S
C2517 H2504 0.929 . S
C2517 C2509 1.433 . S
C2517 N2519 1.384 . S
N2518 C2514 1.427 . S
N2518 C2515 1.384 . S
N2519 C2511 1.427 . S
N2519 C2517 1.384 . S
H2520 C2526 0.930 . S
H2521 C2530 0.930 . S
H2522 C2535 0.929 . S
H2523 C2533 0.929 . S
H2524 C2528 0.929 . S
H2525 C2534 0.929 . S
C2526 H2520 0.930 . S
C2526 C2527 1.367 . S
C2526 C2534 1.378 . S
C2527 C2526 1.367 . S
C2527 C2535 1.433 . S
C2528 H2524 0.929 . S
C2528 C2530 1.378 . S
C2528 C2532 1.350 . S
C2529 C2532 1.463 . S
C2529 C2534 1.350 . S
C2529 N2537 1.427 . S
C2530 H2521 0.930 . S
C2530 C2528 1.378 . S
C2530 C2531 1.367 . S
C2531 C2530 1.367 . S
C2531 C2533 1.433 . S
C2532 C2528 1.350 . S
C2532 C2529 1.463 . S
C2532 N2536 1.427 . S
C2533 H2523 0.929 . S
C2533 C2531 1.433 . S
C2533 N2536 1.384 . S
C2534 H2525 0.929 . S
C2534 C2526 1.378 . S
C2534 C2529 1.350 . S
C2535 H2522 0.929 . S
C2535 C2527 1.433 . S
C2535 N2537 1.384 . S
N2536 C2532 1.427 . S
N2536 C2533 1.384 . S
N2537 C2529 1.427 . S
N2537 C2535 1.384 . S
H2538 C2544 0.930 . S
H2539 C2548 0.930 . S
H2540 C2553 0.929 . S
H2541 C2551 0.929 . S
H2542 C2546 0.929 . S
H2543 C2552 0.929 . S
C2544 H2538 0.930 . S
C2544 C2545 1.367 . S
C2544 C2552 1.378 . S
C2545 C2544 1.367 . S
C2545 C2553 1.433 . S
C2546 H2542 0.929 . S
C2546 C2548 1.378 . S
C2546 C2550 1.350 . S
C2547 C2550 1.463 . S
C2547 C2552 1.350 . S
C2547 N2555 1.427 . S
C2548 H2539 0.930 . S
C2548 C2546 1.378 . S
C2548 C2549 1.367 . S
C2549 C2548 1.367 . S
C2549 C2551 1.433 . S
C2550 C2546 1.350 . S
C2550 C2547 1.463 . S
C2550 N2554 1.427 . S
C2551 H2541 0.929 . S
C2551 C2549 1.433 . S
C2551 N2554 1.384 . S
C2552 H2543 0.929 . S
C2552 C2544 1.378 . S
C2552 C2547 1.350 . S
C2553 H2540 0.929 . S
C2553 C2545 1.433 . S
C2553 N2555 1.384 . S
N2554 C2550 1.427 . S
N2554 C2551 1.384 . S
N2555 C2547 1.427 . S
N2555 C2553 1.384 . S
C1271 C966 1.062 . S
C1267 C941 1.060 . S
C1285 C861 1.076 . S
C1289 C964 1.078 . S
C1307 C965 1.069 . S
C1303 C821 1.067 . S
C1321 C901 1.049 . S
C1325 C967 1.054 . S
C1343 C1011 1.073 . S
C1339 C661 1.063 . S
C1361 C1071 1.061 . S
C1357 C701 1.052 . S
C1375 C741 1.067 . S
C1379 C1010 1.071 . S
C1397 C1070 1.067 . S
C1393 C781 1.056 . S
C1411 C501 1.055 . S
C1415 C1012 1.064 . S
C1433 C1068 1.075 . S
C1429 C541 1.063 . S
C1447 C581 1.057 . S
C1451 C1013 1.065 . S
C1465 C621 1.064 . S
C1469 C1069 1.068 . S
C1487 C1119 1.062 . S
C1483 C461 1.059 . S
C1501 C381 1.065 . S
C1505 C1118 1.068 . S
C1519 C341 1.069 . S
C1523 C1120 1.069 . S
C1541 C1121 1.064 . S
C1537 C421 1.062 . S
C1555 C181 1.064 1_455 S
C1559 C1162 1.067 . S
C1573 C221 1.057 . S
C1577 C1221 1.058 . S
C1591 C261 1.060 1_455 S
C1595 C1160 1.077 . S
C1609 C301 1.074 . S
C1613 C1220 1.074 . S
C1631 C1161 1.069 . S
C1627 C21 1.062 1_455 S
C1649 C1218 1.082 . S
C1645 C61 1.079 . S
C1663 C101 1.046 1_455 S
C1667 C1163 1.063 . S
C1685 C1219 1.064 . S
C1681 C141 1.052 1_545 S
C1703 C963 2.078 . S
C1699 C15 1.943 . S
C1717 C42 1.968 . S
C1721 C969 2.064 . S
C1735 C82 1.962 1_455 S
C1739 C961 2.058 . S
C1753 C122 1.957 1_545 S
C1757 C968 2.058 . S
C1771 C175 1.929 . S
C1775 C960 2.071 . S
C1793 C970 2.056 . S
C1789 C202 1.956 . S
C1807 C242 1.973 1_455 S
C1811 C962 2.067 . S
C1829 C971 2.079 . S
C1825 C295 1.946 . S
C1847 C1017 2.072 . S
C1843 C135 1.932 . S
C1861 C2 1.966 1_455 S
C1865 C1060 2.063 . S
C1883 C1015 2.078 . S
C1879 C55 1.940 . S
C1901 C1062 2.071 . S
C1897 C95 1.928 . S
C1915 C215 1.933 . S
C1919 C1016 2.074 . S
C1937 C1061 2.083 . S
C1933 C255 1.948 . S
C1955 C1014 2.061 . S
C1951 C282 1.961 . S
C1973 C1063 2.067 . S
C1969 C162 1.975 1_455 S
C1991 C1067 2.062 . S
C1987 C322 1.970 . S
C2005 C375 1.928 . S
C2009 C1066 2.071 . S
C2027 C1018 2.071 . S
C2023 C335 1.930 . S
C2045 C1065 2.072 . S
C2041 C415 1.938 . S
C2059 C455 1.924 . S
C2063 C1021 2.067 . S
C2077 C442 1.958 . S
C2081 C1064 2.054 . S
C2099 C1020 2.061 . S
C2095 C362 1.969 1_556 S
C2117 C1019 2.059 . S
C2113 C402 1.969 . S
C2135 C1113 2.072 . S
C2131 C495 1.930 . S
C2153 C1116 2.066 . S
C2149 C522 1.975 . S
C2167 C562 1.959 . S
C2171 C1112 2.057 . S
C2189 C1114 2.061 . S
C2185 C602 1.961 . S
C2207 C1110 2.079 . S
C2203 C655 1.945 . S
C2221 C682 1.971 . S
C2225 C1115 2.063 . S
C2239 C722 1.971 . S
C2243 C1111 2.065 . S
C2261 C1117 2.076 . S
C2257 C775 1.940 . S
C2279 C1171 2.073 . S
C2275 C615 1.936 . S
C2293 C482 1.958 . S
C2297 C1210 2.058 . S
C2315 C1170 2.080 . S
C2311 C535 1.946 . S
C2333 C1212 2.072 . S
C2329 C575 1.931 . S
C2351 C1169 2.071 . S
C2347 C695 1.930 . S
C2365 C735 1.937 . S
C2369 C1211 2.078 . S
C2387 C1168 2.061 . S
C2383 C762 1.964 . S
C2405 C1213 2.067 . S
C2401 C642 1.972 . S
C2423 C1217 2.069 . S
C2419 C815 1.928 . S
C2437 C855 1.944 . S
C2441 C1216 2.077 . S
C2459 C1164 2.064 . S
C2455 C802 1.971 . S
C2473 C895 1.922 . S
C2477 C1215 2.064 . S
C2495 C1167 2.069 . S
C2491 C935 1.928 . S
C2513 C1214 2.055 . S
C2509 C922 1.962 . S
C2531 C1165 2.064 . S
C2527 C842 1.970 . S
C2545 C882 1.959 . S
C2549 C1166 2.055 . S
