# Generated by pormake.
# Topology zzz, (3,6)-cn, num edge types: 1
# Building blocks:
#     Node 0, Type 0, BuildingBlock: OLANEW_clean_sbu_2, # of connection points: 3
#     Node 1, Type 0, BuildingBlock: OLANEW_clean_sbu_2, # of connection points: 3
#     Node 2, Type 0, BuildingBlock: OLANEW_clean_sbu_2, # of connection points: 3
#     Node 3, Type 0, BuildingBlock: OLANEW_clean_sbu_2, # of connection points: 3
#     Node 4, Type 0, BuildingBlock: OLANEW_clean_sbu_2, # of connection points: 3
#     Node 5, Type 0, BuildingBlock: OLANEW_clean_sbu_2, # of connection points: 3
#     Node 6, Type 0, BuildingBlock: OLANEW_clean_sbu_2, # of connection points: 3
#     Node 7, Type 0, BuildingBlock: OLANEW_clean_sbu_2, # of connection points: 3
#     Node 8, Type 1, BuildingBlock: BETDEL_clean_sbu_0, # of connection points: 6
#     Node 9, Type 1, BuildingBlock: BETDEL_clean_sbu_0, # of connection points: 6
#     Node 10, Type 1, BuildingBlock: BETDEL_clean_sbu_0, # of connection points: 6
#     Node 11, Type 1, BuildingBlock: BETDEL_clean_sbu_0, # of connection points: 6
#     Edge 12, Type (0, 1), BuildingBlock: OJICUG_clean_linker_0, # of connection points: 2
#     Edge 13, Type (0, 1), BuildingBlock: OJICUG_clean_linker_0, # of connection points: 2
#     Edge 14, Type (0, 1), BuildingBlock: OJICUG_clean_linker_0, # of connection points: 2
#     Edge 15, Type (0, 1), BuildingBlock: OJICUG_clean_linker_0, # of connection points: 2
#     Edge 16, Type (0, 1), BuildingBlock: OJICUG_clean_linker_0, # of connection points: 2
#     Edge 17, Type (0, 1), BuildingBlock: OJICUG_clean_linker_0, # of connection points: 2
#     Edge 18, Type (0, 1), BuildingBlock: OJICUG_clean_linker_0, # of connection points: 2
#     Edge 19, Type (0, 1), BuildingBlock: OJICUG_clean_linker_0, # of connection points: 2
#     Edge 20, Type (0, 1), BuildingBlock: OJICUG_clean_linker_0, # of connection points: 2
#     Edge 21, Type (0, 1), BuildingBlock: OJICUG_clean_linker_0, # of connection points: 2
#     Edge 22, Type (0, 1), BuildingBlock: OJICUG_clean_linker_0, # of connection points: 2
#     Edge 23, Type (0, 1), BuildingBlock: OJICUG_clean_linker_0, # of connection points: 2
#     Edge 24, Type (0, 1), BuildingBlock: OJICUG_clean_linker_0, # of connection points: 2
#     Edge 25, Type (0, 1), BuildingBlock: OJICUG_clean_linker_0, # of connection points: 2
#     Edge 26, Type (0, 1), BuildingBlock: OJICUG_clean_linker_0, # of connection points: 2
#     Edge 27, Type (0, 1), BuildingBlock: OJICUG_clean_linker_0, # of connection points: 2
#     Edge 28, Type (0, 1), BuildingBlock: OJICUG_clean_linker_0, # of connection points: 2
#     Edge 29, Type (0, 1), BuildingBlock: OJICUG_clean_linker_0, # of connection points: 2
#     Edge 30, Type (0, 1), BuildingBlock: OJICUG_clean_linker_0, # of connection points: 2
#     Edge 31, Type (0, 1), BuildingBlock: OJICUG_clean_linker_0, # of connection points: 2
#     Edge 32, Type (0, 1), BuildingBlock: OJICUG_clean_linker_0, # of connection points: 2
#     Edge 33, Type (0, 1), BuildingBlock: OJICUG_clean_linker_0, # of connection points: 2
#     Edge 34, Type (0, 1), BuildingBlock: OJICUG_clean_linker_0, # of connection points: 2
#     Edge 35, Type (0, 1), BuildingBlock: OJICUG_clean_linker_0, # of connection points: 2
# Relax obj value: 0.154
# Max RMSD: 0.178
# Mean RMSD: 0.124
data_MOF--net-zzz--node1-OLANEW_clean_sbu_2--node2-BETDEL_clean_sbu_0--edge1-OJICUG_clean_linker_0
_symmetry_space_group_name_H-M    P1
_symmetry_Int_Tables_number       1
_symmetry_cell_setting            triclinic
loop_
_symmetry_equiv_pos_as_xyz
'x, y, z'
_cell_length_a     39.726666
_cell_length_b     39.796823
_cell_length_c     12.431104
_cell_angle_alpha  91.754765
_cell_angle_beta   88.534844
_cell_angle_gamma 95.662627
loop_
_atom_site_label
_atom_site_type_symbol
_atom_site_fract_x
_atom_site_fract_y
_atom_site_fract_z
_atom_type_partial_charge
O0 O 0.78208 0.53767 0.93208 0.0
Cd1 Cd 0.72708 0.55139 0.00307 0.0
O2 O 0.77178 0.48376 0.96709 0.0
Cd3 Cd 0.79352 0.43685 -0.00195 0.0
O4 O 0.84171 0.44157 0.07883 0.0
C5 C 0.84366 0.4665 0.14546 0.0
O6 O 0.81711 0.48344 0.16106 0.0
C7 C 0.79174 0.50818 0.93196 0.0
C8 C 0.67394 0.52571 0.8741 0.0
O9 O 0.69206 0.5531 0.85104 0.0
O10 O 0.68099 0.51022 0.95831 0.0
O11 O 0.9198 0.77437 0.81747 0.0
Cd12 Cd 0.89304 0.71646 0.83015 0.0
O13 O 0.95795 0.7635 0.93206 0.0
Cd14 Cd 0.99447 0.78054 0.05353 0.0
O15 O 0.00101 0.81874 0.1808 0.0
C16 C 0.97825 0.83905 0.18363 0.0
O17 O 0.95364 0.83467 0.11464 0.0
C18 C 0.94529 0.78448 0.87361 0.0
C19 C 0.93215 0.66707 0.74637 0.0
O20 O 0.91365 0.68279 0.68596 0.0
O21 O 0.93257 0.67499 0.8471 0.0
O22 O 0.72553 0.94428 0.80275 0.0
Cd23 Cd 0.76115 0.9064 0.8867 0.0
O24 O 0.73348 0.97562 0.94857 0.0
Cd25 Cd 0.72456 0.01451 0.06973 0.0
O26 O 0.68246 0.01967 0.18153 0.0
C27 C 0.663 0.99261 0.19299 0.0
O28 O 0.67099 0.96475 0.1434 0.0
C29 C 0.71982 0.97071 0.85716 0.0
C30 C 0.82693 0.92944 0.83043 0.0
O31 O 0.80954 0.90741 0.77187 0.0
O32 O 0.8137 0.9394 0.91946 0.0
O33 O 0.56543 0.71921 0.90706 0.0
Cd34 Cd 0.57528 0.77831 0.96938 0.0
O35 O 0.54158 0.71636 0.06637 0.0
Cd36 Cd 0.52053 0.69469 0.21408 0.0
O37 O 0.5199 0.71125 0.3905 0.0
C38 C 0.53186 0.69483 0.46505 0.0
O39 O 0.51931 0.71256 0.39214 0.0
C40 C 0.55054 0.70137 0.98038 0.0
C41 C 0.5536 0.82897 0.84564 0.0
O42 O 0.58352 0.8197 0.83378 0.0
O43 O 0.53325 0.81318 0.91287 0.0
O44 O 0.24619 0.57482 0.22352 0.0
Cd45 Cd 0.30548 0.59376 0.19078 0.0
O46 O 0.25212 0.52207 0.17403 0.0
Cd47 Cd 0.22553 0.47319 0.12805 0.0
O48 O 0.17748 0.46606 0.04543 0.0
C49 C 0.17549 0.48983 0.9807 0.0
O50 O 0.20153 0.51267 0.97036 0.0
C51 C 0.23356 0.54451 0.20887 0.0
C52 C 0.3468 0.56256 0.32573 0.0
O53 O 0.33188 0.58817 0.35885 0.0
O54 O 0.34216 0.55161 0.22866 0.0
O55 O 0.01182 0.22326 0.15847 0.0
Cd56 Cd 0.01753 0.27849 0.07838 0.0
O57 O 0.06344 0.22876 0.22013 0.0
Cd58 Cd 0.07857 0.25584 0.07563 0.0
O59 O 0.06739 0.21117 0.97007 0.0
C60 C 0.07592 0.18281 -0.00078 0.0
O61 O 0.09482 0.18187 0.08403 0.0
C62 C 0.03398 0.2131 0.21828 0.0
C63 C 0.0199 0.32819 0.24158 0.0
O64 O 0.99191 0.31148 0.21612 0.0
O65 O 0.04688 0.32181 0.18943 0.0
O66 O 0.26822 0.97024 0.23377 0.0
Cd67 Cd 0.22233 0.98896 0.13407 0.0
O68 O 0.28468 0.02373 0.21303 0.0
Cd69 Cd 0.32596 0.06397 0.209 0.0
O70 O 0.37187 0.07044 0.10959 0.0
C71 C 0.37455 0.04572 0.0437 0.0
O72 O 0.35063 0.02043 0.04383 0.0
C73 C 0.28959 0.99546 0.25163 0.0
C74 C 0.17039 0.99774 0.28114 0.0
O75 O 0.16945 0.97172 0.21752 0.0
O76 O 0.19561 0.02027 0.27365 0.0
O77 O 0.48456 0.28622 0.0919 0.0
Cd78 Cd 0.47903 0.22754 0.02692 0.0
O79 O 0.42987 0.28955 0.11368 0.0
Cd80 Cd 0.42053 0.24711 0.00026 0.0
O81 O 0.43973 0.28802 0.89547 0.0
C82 C 0.41985 0.30864 0.86401 0.0
O83 O 0.38712 0.30223 0.88118 0.0
C84 C 0.46017 0.3025 0.12526 0.0
C85 C 0.48783 0.18417 0.19436 0.0
O86 O 0.5132 0.19718 0.13888 0.0
O87 O 0.4583 0.1916 0.17046 0.0
Dy88 Dy 0.00952 0.98112 0.72398 0.0
C89 C 0.00847 0.08269 0.40584 0.0
C90 C 0.99298 0.92556 0.84596 0.0
Dy91 Dy 0.99723 0.0302 0.53986 0.0
O92 O 0.0234 0.93558 0.81109 0.0
O93 O 0.97254 0.94745 0.8209 0.0
O94 O 0.06611 0.99263 0.69908 0.0
O95 O 0.03299 0.99464 0.57172 0.0
C96 C 0.06321 1.00053 0.59876 0.0
C97 C 0.94268 0.00682 0.65052 0.0
O98 O 0.99279 0.98294 0.43959 0.0
O99 O 0.98952 0.94713 0.58544 0.0
O100 O 0.9787 0.06959 0.43722 0.0
O101 O 0.03191 0.0662 0.44412 0.0
O102 O 0.94183 0.01532 0.55043 0.0
O103 O 0.97165 0.01475 0.68863 0.0
O104 O 0.01934 0.0295 0.82081 0.0
O105 O 0.01846 0.06423 0.67296 0.0
C106 C 0.98716 0.95251 0.48086 0.0
C107 C 0.02369 0.05967 0.77615 0.0
Dy108 Dy 0.47874 1.00091 0.53756 0.0
C109 C 0.61171 0.03827 0.69606 0.0
C110 C 0.41324 0.98987 0.4759 0.0
Dy111 Dy 0.54568 0.03298 0.6358 0.0
O112 O 0.43756 0.97274 0.43998 0.0
O113 O 0.42458 0.01233 0.54752 0.0
O114 O 0.50892 0.97304 0.41291 0.0
O115 O 0.52781 0.02022 0.47621 0.0
C116 C 0.53473 0.99575 0.41711 0.0
C117 C 0.49006 0.04033 0.75496 0.0
O118 O 0.53566 0.07652 0.5354 0.0
O119 O 0.47988 0.05621 0.49881 0.0
O120 O 0.58624 0.0449 0.75814 0.0
O121 O 0.60112 0.0308 0.59957 0.0
O122 O 0.51644 0.06254 0.75527 0.0
O123 O 0.49596 0.01439 0.69932 0.0
O124 O 0.48888 0.95835 0.64068 0.0
O125 O 0.54586 0.97676 0.65436 0.0
C126 C 0.50548 0.08047 0.49614 0.0
C127 C 0.52022 0.95294 0.66383 0.0
Dy128 Dy 0.50166 0.51472 0.71431 0.0
C129 C 0.4891 0.43363 0.32623 0.0
C130 C 0.52203 0.5606 0.87353 0.0
Dy131 Dy 0.50439 0.47714 0.49525 0.0
O132 O 0.4908 0.54907 0.85611 0.0
O133 O 0.54186 0.54497 0.80912 0.0
O134 O 0.44536 0.51656 0.7013 0.0
O135 O 0.47595 0.51668 0.56238 0.0
C136 C 0.44586 0.51481 0.59669 0.0
C137 C 0.56064 0.48014 0.60992 0.0
O138 O 0.51493 0.53003 0.43694 0.0
O139 O 0.53248 0.55047 0.60475 0.0
O140 O 0.51951 0.44502 0.35397 0.0
O141 O 0.4671 0.44739 0.38776 0.0
O142 O 0.56099 0.48069 0.50551 0.0
O143 O 0.53071 0.47569 0.64596 0.0
O144 O 0.48836 0.46261 0.77367 0.0
O145 O 0.47372 0.44069 0.60368 0.0
C146 C 0.53036 0.55413 0.4996 0.0
C147 C 0.47383 0.43833 0.70991 0.0
Dy148 Dy 0.98365 0.49113 0.64433 0.0
C149 C 0.0947 0.51492 0.34166 0.0
C150 C 0.92668 0.49132 0.77221 0.0
Dy151 Dy 0.0374 0.51133 0.46775 0.0
O152 O 0.934 0.4666 0.70803 0.0
O153 O 0.9511 0.51553 0.76929 0.0
O154 O -0.00151 0.43785 0.64098 0.0
O155 O 0.00414 0.46642 0.50211 0.0
C156 C 0.01052 0.43924 0.54251 0.0
C157 C 0.00846 0.56263 0.56141 0.0
O158 O 0.99287 0.49566 0.36505 0.0
O159 O 0.95437 0.50554 0.50279 0.0
O160 O 0.07216 0.53647 0.34162 0.0
O161 O 0.08533 0.49108 0.408 0.0
O162 O 0.01964 0.56283 0.46234 0.0
O163 O 0.0163 0.53678 0.60758 0.0
O164 O 0.02836 0.49426 0.75067 0.0
O165 O 0.06838 0.50326 0.61132 0.0
C166 C 0.96172 0.50036 0.39924 0.0
C167 C 0.06009 0.49795 0.7139 0.0
C168 C 0.15015 0.01424 0.46582 0.0
C169 C 0.14315 1.00119 0.36146 0.0
H170 H 0.13005 0.02356 0.6253 0.0
C171 C 0.10991 0.98959 0.33529 0.0
H172 H 0.17579 0.02318 0.48755 0.0
C173 C 0.08401 0.99063 0.41223 0.0
C174 C 0.09096 0.00236 0.51795 0.0
H175 H 0.10395 0.97955 0.25526 0.0
H176 H 0.05866 0.98111 0.38939 0.0
C177 C 0.12419 0.01434 0.54437 0.0
C178 C 0.46419 0.14207 0.32897 0.0
C179 C 0.49239 0.16033 0.28084 0.0
H180 H 0.44621 0.10286 0.43592 0.0
C181 C 0.52496 0.15452 0.313 0.0
H182 H 0.43874 0.14604 0.30648 0.0
C183 C 0.52927 0.12993 0.3883 0.0
C184 C 0.50109 0.11045 0.4321 0.0
H185 H 0.54721 0.16836 0.278 0.0
H186 H 0.55472 0.12514 0.40817 0.0
C187 C 0.46849 0.11733 0.4034 0.0
C188 C 0.39652 0.53019 0.35107 0.0
C189 C 0.36995 0.54712 0.39613 0.0
H190 H 0.44175 0.50718 0.38 0.0
C191 C 0.36685 0.55075 0.50868 0.0
H192 H 0.39959 0.52716 0.26457 0.0
C193 C 0.39049 0.53843 0.57495 0.0
C194 C 0.41801 0.52305 0.52942 0.0
H195 H 0.34645 0.56356 0.5454 0.0
H196 H 0.38806 0.5423 0.66132 0.0
C197 C 0.42058 0.51866 0.4171 0.0
C198 C 0.03884 0.38654 0.30632 0.0
C199 C 0.02061 0.35523 0.32512 0.0
H200 H 0.04884 0.43802 0.35952 0.0
C201 C 0.00137 0.35079 0.42093 0.0
H202 H 0.05357 0.39061 0.23248 0.0
C203 C -4e-05 0.37756 0.49616 0.0
C204 C 0.01675 0.40943 0.47445 0.0
H205 H 0.9871 0.32676 0.43685 0.0
H206 H 0.98429 0.37383 0.56823 0.0
C207 C 0.03631 0.4136 0.37928 0.0
C208 C 0.88029 0.96787 0.85614 0.0
C209 C 0.85958 0.94565 0.79001 0.0
H210 H 0.92367 0.00471 0.86331 0.0
C211 C 0.8684 0.94178 0.68058 0.0
H212 H 0.87413 0.97123 0.94091 0.0
C213 C 0.896 0.96131 0.63652 0.0
C214 C 0.91575 0.98453 0.70136 0.0
H215 H 0.85304 0.92485 0.62752 0.0
H216 H 0.90155 0.95866 0.55103 0.0
C217 C 0.90848 0.98701 0.81207 0.0
C218 C 0.56884 0.88034 0.73764 0.0
C219 C 0.54389 0.85879 0.78979 0.0
H220 H 0.58089 0.92689 0.65774 0.0
C221 C 0.51036 0.86745 0.79458 0.0
H222 H 0.5949 0.87449 0.73254 0.0
C223 C 0.50221 0.89755 0.75058 0.0
C224 C 0.52756 0.91973 0.70266 0.0
H225 H 0.49056 0.85131 0.83415 0.0
H226 H 0.47635 0.90397 0.75729 0.0
C227 C 0.56082 0.91053 0.69528 0.0
C228 C 0.61778 0.49239 0.84901 0.0
C229 C 0.64548 0.51272 0.80582 0.0
H230 H 0.56866 0.46654 0.82045 0.0
C231 C 0.64546 0.52129 0.69708 0.0
H232 H 0.61711 0.48558 0.9328 0.0
C233 C 0.61822 0.50977 0.63259 0.0
C234 C 0.59019 0.49021 0.67644 0.0
H235 H 0.66655 0.53684 0.66175 0.0
H236 H 0.61871 0.51694 0.54913 0.0
C237 C 0.59011 0.48157 0.78505 0.0
C238 C 0.95677 0.63701 0.58859 0.0
C239 C 0.95213 0.6404 0.7006 0.0
H240 H 0.97844 0.60983 0.45748 0.0
C241 C 0.9663 0.61786 0.76745 0.0
H242 H 0.94625 0.65397 0.53493 0.0
C243 C 0.98454 0.59226 0.7227 0.0
C244 C 0.98918 0.58911 0.61067 0.0
H245 H 0.96303 0.61979 0.85411 0.0
H246 H 0.99524 0.57519 0.77559 0.0
C247 C 0.97528 0.61177 0.54421 0.0
C248 C 0.99423 0.16371 0.27309 0.0
C249 C 0.02711 0.18041 0.27106 0.0
H250 H 0.96259 0.11926 0.31677 0.0
C251 C 0.05385 0.16419 0.31099 0.0
H252 H 0.97315 0.17548 0.24221 0.0
C253 C 0.04788 0.13178 0.35109 0.0
C254 C 0.01502 0.11526 0.35355 0.0
H255 H 0.07951 0.17625 0.30965 0.0
H256 H 0.06892 0.11991 0.38188 0.0
C257 C 0.98821 0.13145 0.31465 0.0
C258 C 0.33861 0.9642 0.2987 0.0
C259 C 0.32 0.99223 0.31378 0.0
H260 H 0.38343 0.94159 0.33834 0.0
C261 C 0.33074 0.0178 0.38893 0.0
H262 H 0.3306 0.94412 0.24139 0.0
C263 C 0.36022 0.01599 0.44591 0.0
C264 C 0.3798 0.98885 0.42726 0.0
H265 H 0.31638 0.03935 0.40314 0.0
H266 H 0.36833 0.0365 0.50158 0.0
C267 C 0.36864 0.96273 0.35417 0.0
C268 C 0.50058 0.35259 0.17288 0.0
C269 C 0.46717 0.33722 0.17021 0.0
H270 H 0.5336 0.39576 0.22188 0.0
C271 C 0.44067 0.35567 0.20813 0.0
H272 H 0.52154 0.33932 0.1425 0.0
C273 C 0.44764 0.38818 0.25282 0.0
C274 C 0.48118 0.4028 0.25987 0.0
H275 H 0.41462 0.34475 0.20557 0.0
H276 H 0.4269 0.40131 0.28568 0.0
C277 C 0.5075 0.38509 0.21711 0.0
C278 C 0.18677 0.50553 0.28538 0.0
C279 C 0.19733 0.53551 0.23249 0.0
H280 H 0.14564 0.47507 0.35862 0.0
C281 C 0.17329 0.5576 0.20825 0.0
H282 H 0.20495 0.48857 0.3078 0.0
C283 C 0.13926 0.55001 0.23816 0.0
C284 C 0.12895 0.5204 0.29357 0.0
H285 H 0.18091 0.58094 0.16772 0.0
H286 H 0.12132 0.56789 0.22154 0.0
C287 C 0.15285 0.49789 0.31486 0.0
C288 C 0.93491 0.8453 0.87125 0.0
C289 C 0.95788 0.8208 0.87696 0.0
H290 H 0.92799 0.89775 0.86239 0.0
C291 C 0.99262 0.83142 0.88378 0.0
H292 H 0.90799 0.83788 0.86683 0.0
C293 C 0.00419 0.86587 0.88076 0.0
C294 C 0.98117 0.89025 0.872 0.0
H295 H 0.01092 0.81306 0.88705 0.0
H296 H 0.03116 0.87329 0.88086 0.0
C297 C 0.94638 0.87963 0.87014 0.0
C298 C 0.67443 0.01 0.88689 0.0
C299 C 0.69592 0.99341 0.81638 0.0
H300 H 0.63135 0.03822 0.90401 0.0
C301 C 0.69224 0.99611 0.70488 0.0
H302 H 0.67562 0.00748 0.97248 0.0
C303 C 0.66649 0.0135 0.66506 0.0
C304 C 0.64381 0.02835 0.7361 0.0
H305 H 0.70846 0.98364 0.64835 0.0
H306 H 0.66311 0.01355 0.57884 0.0
C307 C 0.64877 0.02748 0.84728 0.0
C308 C 0.56865 0.64687 0.90718 0.0
C309 C 0.54508 0.66426 0.96689 0.0
H310 H 0.58048 0.59986 0.83557 0.0
C311 C 0.51577 0.64608 0.00886 0.0
H312 H 0.59159 0.66024 0.8748 0.0
C313 C 0.50909 0.61144 0.98505 0.0
C314 C 0.53204 0.5944 0.9212 0.0
H315 H 0.49711 0.65895 0.05471 0.0
H316 H 0.48533 0.59837 0.01227 0.0
C317 C 0.56243 0.61221 0.88586 0.0
C318 C 0.85347 0.5279 0.9186 0.0
C319 C 0.82674 0.50293 0.89728 0.0
H320 H 0.90643 0.54345 0.89756 0.0
C321 C 0.83361 0.47338 0.83973 0.0
H322 H 0.84885 0.55092 0.96286 0.0
C323 C 0.86652 0.4689 0.80376 0.0
C324 C 0.89311 0.49412 0.82326 0.0
H325 H 0.81337 0.45415 0.81952 0.0
H326 H 0.8709 0.4462 0.7573 0.0
C327 C 0.88641 0.52349 0.88214 0.0
C328 C 0.0662 0.11931 0.98789 0.0
C329 C 0.06226 0.15098 0.94448 0.0
H330 H 0.05666 0.06528 0.96985 0.0
C331 C 0.04403 0.15208 0.84992 0.0
H332 H 0.07975 0.11765 0.06176 0.0
C333 C 0.03075 0.12234 0.79833 0.0
C334 C 0.03523 0.09056 0.83985 0.0
H335 H 0.04019 0.17597 0.81491 0.0
H336 H 0.01717 0.12439 0.72471 0.0
C337 C 0.0527 0.08931 0.93614 0.0
C338 C 0.42974 0.07175 0.96672 0.0
C339 C 0.40386 0.04499 0.96821 0.0
H340 H 0.47732 0.0913 0.89711 0.0
C341 C 0.40623 0.01715 0.89689 0.0
H342 H 0.42862 0.09357 0.0205 0.0
C343 C 0.43406 0.01587 0.82657 0.0
C344 C 0.46005 0.04241 0.826 0.0
H345 H 0.3867 0.99614 0.89573 0.0
H346 H 0.43535 0.99394 0.77334 0.0
C347 C 0.45758 0.07048 0.89605 0.0
C348 C 0.41618 0.35824 0.74828 0.0
C349 C 0.43367 0.34183 0.82442 0.0
H350 H 0.4157 0.40179 0.65123 0.0
C351 C 0.46365 0.35817 0.86692 0.0
H352 H 0.39291 0.34625 0.71504 0.0
C353 C 0.47592 0.39045 0.83379 0.0
C354 C 0.45897 0.40635 0.75516 0.0
H355 H 0.47738 0.34618 0.92675 0.0
H356 H 0.49923 0.40245 0.86683 0.0
C357 C 0.42909 0.38998 0.71242 0.0
C358 C 0.11361 0.47492 0.94442 0.0
C359 C 0.14515 0.49205 0.91622 0.0
H360 H 0.06131 0.46388 0.90326 0.0
C361 C 0.14776 0.51211 0.82502 0.0
H362 H 0.11086 0.45955 0.01513 0.0
C363 C 0.11982 0.51434 0.76143 0.0
C364 C 0.08836 0.49698 0.78814 0.0
H365 H 0.17163 0.52571 0.80129 0.0
H366 H 0.12298 0.52967 0.69064 0.0
C367 C 0.08527 0.47762 0.88119 0.0
C368 C 0.96587 0.89752 0.23501 0.0
C369 C 0.9796 0.86768 0.26102 0.0
H370 H 0.95787 0.94824 0.28464 0.0
C371 C 0.99467 0.86552 0.36095 0.0
H372 H 0.95426 0.89975 0.15794 0.0
C373 C 0.99594 0.89284 0.43412 0.0
C374 C 0.98294 0.92299 0.40718 0.0
H375 H 0.0053 0.84269 0.38273 0.0
H376 H 0.008 0.89068 0.51046 0.0
C377 C 0.96794 0.92518 0.3071 0.0
C378 C 0.60772 0.96357 0.25775 0.0
C379 C 0.63048 0.99297 0.25278 0.0
H380 H 0.55919 0.94142 0.31362 0.0
C381 C 0.62126 0.02306 0.30171 0.0
H382 H 0.61406 0.94001 0.22034 0.0
C383 C 0.58993 0.02379 0.35414 0.0
C384 C 0.56727 0.99446 0.3592 0.0
H385 H 0.63811 0.04616 0.29885 0.0
H386 H 0.58342 0.04745 0.39048 0.0
C387 C 0.57629 0.96434 0.31045 0.0
C388 C 0.56021 0.64584 0.51648 0.0
C389 C 0.53775 0.65908 0.44812 0.0
H390 H 0.57685 0.60153 0.58189 0.0
C391 C 0.51802 0.63704 0.37851 0.0
H392 H 0.57565 0.66235 0.5706 0.0
C393 C 0.51857 0.60199 0.38515 0.0
C394 C 0.53867 0.58878 0.46173 0.0
H395 H 0.5 0.64654 0.32622 0.0
H396 H 0.50084 0.58545 0.33836 0.0
C397 C 0.56096 0.61103 0.52247 0.0
C398 C 0.9057 0.46417 0.17443 0.0
C399 C 0.87488 0.47674 0.20465 0.0
H400 H 0.95796 0.46252 0.21147 0.0
C401 C 0.87391 0.49953 0.29288 0.0
H402 H 0.90724 0.4469 0.10582 0.0
C403 C 0.90271 0.5084 0.35286 0.0
C404 C 0.93324 0.49501 0.32517 0.0
H405 H 0.85062 0.50988 0.3177 0.0
H406 H 0.90085 0.52516 0.42265 0.0
C407 C 0.93477 0.47342 0.23397 0.0
loop_
_geom_bond_atom_site_label_1
_geom_bond_atom_site_label_2
_geom_bond_distance
_geom_bond_site_symmetry_2
_ccdc_geom_bond_type
O0 Cd1 2.300 . S
O0 C7 1.275 . S
Cd1 O0 2.300 . S
Cd1 O9 2.381 . S
Cd1 O10 2.378 1_556 S
O2 Cd3 2.385 1_556 S
O2 C7 1.255 . S
Cd3 O2 2.385 1_554 S
Cd3 O4 2.317 . S
O4 Cd3 2.317 . S
O4 C5 1.232 . S
C5 O4 1.232 . S
C5 O6 1.218 . S
O6 C5 1.218 . S
C7 O0 1.275 . S
C7 O2 1.255 . S
C8 O9 1.258 . S
C8 O10 1.256 1_556 S
O9 Cd1 2.381 . S
O9 C8 1.258 . S
O10 Cd1 2.378 1_554 S
O10 C8 1.256 1_554 S
O11 Cd12 2.300 . S
O11 C18 1.275 . S
Cd12 O11 2.300 . S
Cd12 O20 2.381 . S
Cd12 O21 2.379 1_556 S
O13 Cd14 2.385 1_556 S
O13 C18 1.255 1_455 S
Cd14 O13 2.385 1_554 S
Cd14 O15 2.317 1_455 S
O15 Cd14 2.317 1_655 S
O15 C16 1.232 . S
C16 O15 1.232 . S
C16 O17 1.218 1_655 S
O17 C16 1.218 1_455 S
C18 O11 1.275 . S
C18 O13 1.255 1_655 S
C19 O20 1.258 . S
C19 O21 1.258 1_556 S
O20 Cd12 2.381 . S
O20 C19 1.258 . S
O21 Cd12 2.379 1_554 S
O21 C19 1.258 1_554 S
O22 Cd23 2.289 1_565 S
O22 C29 1.275 . S
Cd23 O22 2.289 1_545 S
Cd23 O31 2.364 1_545 S
Cd23 O32 2.378 1_556 S
O24 Cd25 2.385 1_556 S
O24 C29 1.255 1_545 S
Cd25 O24 2.385 1_554 S
Cd25 O26 2.317 . S
O26 Cd25 2.317 . S
O26 C27 1.232 1_545 S
C27 O26 1.232 1_565 S
C27 O28 1.218 1_565 S
O28 C27 1.218 1_545 S
C29 O22 1.275 . S
C29 O24 1.255 1_565 S
C30 O31 1.258 . S
C30 O32 1.256 1_566 S
O31 Cd23 2.364 1_565 S
O31 C30 1.258 . S
O32 Cd23 2.378 1_554 S
O32 C30 1.256 1_544 S
O33 Cd34 2.300 1_556 S
O33 C40 1.275 . S
Cd34 O33 2.300 1_554 S
Cd34 O42 2.381 1_554 S
Cd34 O43 2.378 . S
O35 Cd36 2.385 . S
O35 C40 1.255 1_554 S
Cd36 O35 2.385 . S
Cd36 O37 2.317 . S
O37 Cd36 2.317 . S
O37 C38 1.232 . S
C38 O37 1.232 . S
C38 O39 1.218 . S
O39 C38 1.218 . S
C40 O33 1.275 . S
C40 O35 1.255 1_556 S
C41 O42 1.258 . S
C41 O43 1.256 1_556 S
O42 Cd34 2.381 1_556 S
O42 C41 1.258 . S
O43 Cd34 2.378 . S
O43 C41 1.256 1_554 S
O44 Cd45 2.300 . S
O44 C51 1.275 . S
Cd45 O44 2.300 . S
Cd45 O53 2.381 . S
Cd45 O54 2.378 . S
O46 Cd47 2.385 . S
O46 C51 1.255 . S
Cd47 O46 2.385 . S
Cd47 O48 2.317 1_554 S
O48 Cd47 2.317 1_556 S
O48 C49 1.232 . S
C49 O48 1.232 . S
C49 O50 1.218 . S
O50 C49 1.218 . S
C51 O44 1.275 . S
C51 O46 1.255 . S
C52 O53 1.258 . S
C52 O54 1.256 . S
O53 Cd45 2.381 . S
O53 C52 1.258 . S
O54 Cd45 2.378 . S
O54 C52 1.256 . S
O55 Cd56 2.300 . S
O55 C62 1.275 . S
Cd56 O55 2.300 . S
Cd56 O64 2.381 . S
Cd56 O65 2.378 . S
O57 Cd58 2.385 . S
O57 C62 1.255 . S
Cd58 O57 2.385 . S
Cd58 O59 2.317 1_554 S
O59 Cd58 2.317 1_556 S
O59 C60 1.232 . S
C60 O59 1.232 . S
C60 O61 1.218 . S
O61 C60 1.218 . S
C62 O55 1.275 . S
C62 O57 1.255 . S
C63 O64 1.258 . S
C63 O65 1.256 . S
O64 Cd56 2.381 . S
O64 C63 1.258 . S
O65 Cd56 2.378 . S
O65 C63 1.256 . S
O66 Cd67 2.300 . S
O66 C73 1.275 . S
Cd67 O66 2.300 . S
Cd67 O75 2.381 . S
Cd67 O76 2.378 . S
O68 Cd69 2.385 . S
O68 C73 1.255 . S
Cd69 O68 2.385 . S
Cd69 O70 2.317 1_554 S
O70 Cd69 2.317 1_556 S
O70 C71 1.232 . S
C71 O70 1.232 . S
C71 O72 1.218 . S
O72 C71 1.218 . S
C73 O66 1.275 . S
C73 O68 1.255 . S
C74 O75 1.258 . S
C74 O76 1.256 . S
O75 Cd67 2.381 . S
O75 C74 1.258 . S
O76 Cd67 2.378 . S
O76 C74 1.256 . S
O77 Cd78 2.300 . S
O77 C84 1.275 . S
Cd78 O77 2.300 . S
Cd78 O86 2.381 . S
Cd78 O87 2.378 . S
O79 Cd80 2.385 1_554 S
O79 C84 1.255 . S
Cd80 O79 2.385 1_556 S
Cd80 O81 2.317 . S
O81 Cd80 2.317 . S
O81 C82 1.232 . S
C82 O81 1.232 . S
C82 O83 1.218 . S
O83 C82 1.218 . S
C84 O77 1.275 . S
C84 O79 1.255 . S
C85 O86 1.258 . S
C85 O87 1.256 . S
O86 Cd78 2.381 . S
O86 C85 1.258 . S
O87 Cd78 2.378 . S
O87 C85 1.256 . S
Dy88 O92 2.398 . S
Dy88 O93 2.491 1_455 S
Dy88 O94 2.403 . S
Dy88 O95 2.664 1_565 S
Dy88 O99 2.326 . S
Dy88 O103 2.310 1_455 S
Dy88 O104 2.351 1_565 S
C89 O100 1.185 1_455 S
C89 O101 1.355 . S
C90 O92 1.185 . S
C90 O93 1.355 1_455 S
Dy91 O95 2.310 1_655 S
Dy91 O98 2.351 1_545 S
Dy91 O100 2.398 . S
Dy91 O101 2.491 1_655 S
Dy91 O102 2.403 . S
Dy91 O103 2.664 1_545 S
Dy91 O105 2.326 1_655 S
O92 Dy88 2.398 . S
O92 C90 1.185 . S
O93 Dy88 2.491 1_655 S
O93 C90 1.355 1_655 S
O94 Dy88 2.403 . S
O94 C96 1.254 1_565 S
O95 Dy88 2.664 1_545 S
O95 Dy91 2.310 1_455 S
O95 C96 1.268 . S
C96 O94 1.254 1_545 S
C96 O95 1.268 . S
C97 O102 1.254 . S
C97 O103 1.268 1_545 S
O98 Dy91 2.351 1_565 S
O98 C106 1.249 . S
O99 Dy88 2.326 . S
O99 C106 1.267 1_455 S
O100 C89 1.185 1_655 S
O100 Dy91 2.398 . S
O101 C89 1.355 . S
O101 Dy91 2.491 1_455 S
O102 Dy91 2.403 . S
O102 C97 1.254 . S
O103 Dy88 2.310 1_655 S
O103 Dy91 2.664 1_565 S
O103 C97 1.268 1_565 S
O104 Dy88 2.351 1_545 S
O104 C107 1.249 . S
O105 Dy91 2.326 1_455 S
O105 C107 1.267 . S
C106 O98 1.249 . S
C106 O99 1.267 1_655 S
C107 O104 1.249 . S
C107 O105 1.267 . S
Dy108 O112 2.398 . S
Dy108 O113 2.491 1_565 S
Dy108 O114 2.403 . S
Dy108 O115 2.664 . S
Dy108 O119 2.326 1_565 S
Dy108 O123 2.310 1_565 S
Dy108 O124 2.351 . S
C109 O120 1.185 . S
C109 O121 1.362 . S
C110 O112 1.185 . S
C110 O113 1.355 1_565 S
Dy111 O115 2.310 1_545 S
Dy111 O118 2.351 . S
Dy111 O120 2.398 . S
Dy111 O121 2.507 . S
Dy111 O122 2.403 . S
Dy111 O123 2.664 . S
Dy111 O125 2.326 1_545 S
O112 Dy108 2.398 . S
O112 C110 1.185 . S
O113 Dy108 2.491 1_545 S
O113 C110 1.355 1_545 S
O114 Dy108 2.403 . S
O114 C116 1.254 . S
O115 Dy108 2.664 . S
O115 Dy111 2.310 1_565 S
O115 C116 1.268 . S
C116 O114 1.254 . S
C116 O115 1.268 . S
C117 O122 1.254 . S
C117 O123 1.268 . S
O118 Dy111 2.351 . S
O118 C126 1.249 . S
O119 Dy108 2.326 1_545 S
O119 C126 1.267 . S
O120 C109 1.185 . S
O120 Dy111 2.398 . S
O121 C109 1.362 . S
O121 Dy111 2.507 . S
O122 Dy111 2.403 . S
O122 C117 1.254 . S
O123 Dy108 2.310 1_545 S
O123 Dy111 2.664 . S
O123 C117 1.268 . S
O124 Dy108 2.351 . S
O124 C127 1.249 . S
O125 Dy111 2.326 1_565 S
O125 C127 1.267 . S
C126 O118 1.249 . S
C126 O119 1.267 . S
C127 O124 1.249 . S
C127 O125 1.267 . S
Dy128 O132 2.398 . S
Dy128 O133 2.491 . S
Dy128 O134 2.403 . S
Dy128 O135 2.664 . S
Dy128 O139 2.326 . S
Dy128 O143 2.310 . S
Dy128 O144 2.351 . S
C129 O140 1.185 . S
C129 O141 1.355 . S
C130 O132 1.185 . S
C130 O133 1.355 . S
Dy131 O135 2.310 . S
Dy131 O138 2.351 . S
Dy131 O140 2.398 . S
Dy131 O141 2.491 . S
Dy131 O142 2.403 . S
Dy131 O143 2.664 . S
Dy131 O145 2.326 . S
O132 Dy128 2.398 . S
O132 C130 1.185 . S
O133 Dy128 2.491 . S
O133 C130 1.355 . S
O134 Dy128 2.403 . S
O134 C136 1.254 . S
O135 Dy128 2.664 . S
O135 Dy131 2.310 . S
O135 C136 1.268 . S
C136 O134 1.254 . S
C136 O135 1.268 . S
C137 O142 1.254 . S
C137 O143 1.268 . S
O138 Dy131 2.351 . S
O138 C146 1.249 . S
O139 Dy128 2.326 . S
O139 C146 1.267 . S
O140 C129 1.185 . S
O140 Dy131 2.398 . S
O141 C129 1.355 . S
O141 Dy131 2.491 . S
O142 Dy131 2.403 . S
O142 C137 1.254 . S
O143 Dy128 2.310 . S
O143 Dy131 2.664 . S
O143 C137 1.268 . S
O144 Dy128 2.351 . S
O144 C147 1.249 . S
O145 Dy131 2.326 . S
O145 C147 1.267 . S
C146 O138 1.249 . S
C146 O139 1.267 . S
C147 O144 1.249 . S
C147 O145 1.267 . S
Dy148 O152 2.398 . S
Dy148 O153 2.491 . S
Dy148 O154 2.403 . S
Dy148 O155 2.664 1_655 S
Dy148 O159 2.326 . S
Dy148 O163 2.310 . S
Dy148 O164 2.351 1_655 S
C149 O160 1.185 . S
C149 O161 1.355 . S
C150 O152 1.185 . S
C150 O153 1.355 . S
Dy151 O155 2.310 . S
Dy151 O158 2.351 1_455 S
Dy151 O160 2.398 . S
Dy151 O161 2.491 . S
Dy151 O162 2.403 . S
Dy151 O163 2.664 1_455 S
Dy151 O165 2.326 . S
O152 Dy148 2.398 . S
O152 C150 1.185 . S
O153 Dy148 2.491 . S
O153 C150 1.355 . S
O154 Dy148 2.403 . S
O154 C156 1.254 1_655 S
O155 Dy148 2.664 1_455 S
O155 Dy151 2.310 . S
O155 C156 1.268 . S
C156 O154 1.254 1_455 S
C156 O155 1.268 . S
C157 O162 1.254 . S
C157 O163 1.268 1_455 S
O158 Dy151 2.351 1_655 S
O158 C166 1.249 . S
O159 Dy148 2.326 . S
O159 C166 1.267 . S
O160 C149 1.185 . S
O160 Dy151 2.398 . S
O161 C149 1.355 . S
O161 Dy151 2.491 . S
O162 Dy151 2.403 . S
O162 C157 1.254 . S
O163 Dy148 2.310 . S
O163 Dy151 2.664 1_655 S
O163 C157 1.268 1_655 S
O164 Dy148 2.351 1_455 S
O164 C167 1.249 . S
O165 Dy151 2.326 . S
O165 C167 1.267 . S
C166 O158 1.249 . S
C166 O159 1.267 . S
C167 O164 1.249 . S
C167 O165 1.267 . S
C168 C169 1.387 . S
C168 H172 0.950 . S
C168 C177 1.390 . S
C169 C168 1.387 . S
C169 C171 1.387 1_545 S
H170 C177 0.950 . S
C171 C169 1.387 1_565 S
C171 C173 1.390 . S
C171 H175 0.950 . S
H172 C168 0.950 . S
C173 C171 1.390 . S
C173 C174 1.387 1_565 S
C173 H176 0.950 . S
C174 C173 1.387 1_545 S
C174 C177 1.387 . S
H175 C171 0.950 . S
H176 C173 0.950 . S
C177 C168 1.390 . S
C177 H170 0.950 . S
C177 C174 1.387 . S
C178 C179 1.387 . S
C178 H182 0.950 . S
C178 C187 1.390 . S
C179 C178 1.387 . S
C179 C181 1.387 . S
H180 C187 0.950 . S
C181 C179 1.387 . S
C181 C183 1.390 . S
C181 H185 0.950 . S
H182 C178 0.950 . S
C183 C181 1.390 . S
C183 C184 1.387 . S
C183 H186 0.950 . S
C184 C183 1.387 . S
C184 C187 1.387 . S
H185 C181 0.950 . S
H186 C183 0.950 . S
C187 C178 1.390 . S
C187 H180 0.950 . S
C187 C184 1.387 . S
C188 C189 1.387 . S
C188 H192 0.950 . S
C188 C197 1.390 . S
C189 C188 1.387 . S
C189 C191 1.387 . S
H190 C197 0.950 . S
C191 C189 1.387 . S
C191 C193 1.390 . S
C191 H195 0.950 . S
H192 C188 0.950 . S
C193 C191 1.390 . S
C193 C194 1.387 . S
C193 H196 0.950 . S
C194 C193 1.387 . S
C194 C197 1.387 . S
H195 C191 0.950 . S
H196 C193 0.950 . S
C197 C188 1.390 . S
C197 H190 0.950 . S
C197 C194 1.387 . S
C198 C199 1.387 . S
C198 H202 0.950 . S
C198 C207 1.390 . S
C199 C198 1.387 . S
C199 C201 1.387 . S
H200 C207 0.950 . S
C201 C199 1.387 . S
C201 C203 1.390 . S
C201 H205 0.950 . S
H202 C198 0.950 . S
C203 C201 1.390 . S
C203 C204 1.387 . S
C203 H206 0.950 1_455 S
C204 C203 1.387 . S
C204 C207 1.387 . S
H205 C201 0.950 . S
H206 C203 0.950 1_655 S
C207 C198 1.390 . S
C207 H200 0.950 . S
C207 C204 1.387 . S
C208 C209 1.387 1_545 S
C208 H212 0.950 . S
C208 C217 1.390 . S
C209 C208 1.387 1_565 S
C209 C211 1.387 . S
H210 C217 0.950 . S
C211 C209 1.387 . S
C211 C213 1.390 . S
C211 H215 0.950 . S
H212 C208 0.950 . S
C213 C211 1.390 . S
C213 C214 1.387 . S
C213 H216 0.950 . S
C214 C213 1.387 . S
C214 C217 1.387 1_565 S
H215 C211 0.950 . S
H216 C213 0.950 . S
C217 C208 1.390 . S
C217 H210 0.950 . S
C217 C214 1.387 1_545 S
C218 C219 1.387 . S
C218 H222 0.950 . S
C218 C227 1.390 . S
C219 C218 1.387 . S
C219 C221 1.387 . S
H220 C227 0.950 . S
C221 C219 1.387 . S
C221 C223 1.390 . S
C221 H225 0.950 . S
H222 C218 0.950 . S
C223 C221 1.390 . S
C223 C224 1.387 . S
C223 H226 0.950 . S
C224 C223 1.387 . S
C224 C227 1.387 . S
H225 C221 0.950 . S
H226 C223 0.950 . S
C227 C218 1.390 . S
C227 H220 0.950 . S
C227 C224 1.387 . S
C228 C229 1.387 . S
C228 H232 0.950 . S
C228 C237 1.390 . S
C229 C228 1.387 . S
C229 C231 1.387 . S
H230 C237 0.950 . S
C231 C229 1.387 . S
C231 C233 1.390 . S
C231 H235 0.950 . S
H232 C228 0.950 . S
C233 C231 1.390 . S
C233 C234 1.387 . S
C233 H236 0.950 . S
C234 C233 1.387 . S
C234 C237 1.387 . S
H235 C231 0.950 . S
H236 C233 0.950 . S
C237 C228 1.390 . S
C237 H230 0.950 . S
C237 C234 1.387 . S
C238 C239 1.387 . S
C238 H242 0.950 . S
C238 C247 1.390 . S
C239 C238 1.387 . S
C239 C241 1.387 1_655 S
H240 C247 0.950 . S
C241 C239 1.387 1_455 S
C241 C243 1.390 . S
C241 H245 0.950 . S
H242 C238 0.950 . S
C243 C241 1.390 . S
C243 C244 1.387 1_455 S
C243 H246 0.950 . S
C244 C243 1.387 1_655 S
C244 C247 1.387 . S
H245 C241 0.950 . S
H246 C243 0.950 . S
C247 C238 1.390 . S
C247 H240 0.950 . S
C247 C244 1.387 . S
C248 C249 1.387 . S
C248 H252 0.950 . S
C248 C257 1.390 . S
C249 C248 1.387 . S
C249 C251 1.387 . S
H250 C257 0.950 . S
C251 C249 1.387 . S
C251 C253 1.390 . S
C251 H255 0.950 . S
H252 C248 0.950 . S
C253 C251 1.390 . S
C253 C254 1.387 . S
C253 H256 0.950 . S
C254 C253 1.387 . S
C254 C257 1.387 . S
H255 C251 0.950 . S
H256 C253 0.950 . S
C257 C248 1.390 . S
C257 H250 0.950 . S
C257 C254 1.387 . S
C258 C259 1.387 1_565 S
C258 H262 0.950 . S
C258 C267 1.390 . S
C259 C258 1.387 1_545 S
C259 C261 1.387 . S
H260 C267 0.950 . S
C261 C259 1.387 . S
C261 C263 1.390 . S
C261 H265 0.950 . S
H262 C258 0.950 . S
C263 C261 1.390 . S
C263 C264 1.387 . S
C263 H266 0.950 . S
C264 C263 1.387 . S
C264 C267 1.387 1_545 S
H265 C261 0.950 . S
H266 C263 0.950 . S
C267 C258 1.390 . S
C267 H260 0.950 . S
C267 C264 1.387 1_565 S
C268 C269 1.387 . S
C268 H272 0.950 . S
C268 C277 1.390 . S
C269 C268 1.387 . S
C269 C271 1.387 . S
H270 C277 0.950 . S
C271 C269 1.387 . S
C271 C273 1.390 . S
C271 H275 0.950 . S
H272 C268 0.950 . S
C273 C271 1.390 . S
C273 C274 1.387 . S
C273 H276 0.950 . S
C274 C273 1.387 . S
C274 C277 1.387 . S
H275 C271 0.950 . S
H276 C273 0.950 . S
C277 C268 1.390 . S
C277 H270 0.950 . S
C277 C274 1.387 . S
C278 C279 1.387 . S
C278 H282 0.950 . S
C278 C287 1.390 . S
C279 C278 1.387 . S
C279 C281 1.387 . S
H280 C287 0.950 . S
C281 C279 1.387 . S
C281 C283 1.390 . S
C281 H285 0.950 . S
H282 C278 0.950 . S
C283 C281 1.390 . S
C283 C284 1.387 . S
C283 H286 0.950 . S
C284 C283 1.387 . S
C284 C287 1.387 . S
H285 C281 0.950 . S
H286 C283 0.950 . S
C287 C278 1.390 . S
C287 H280 0.950 . S
C287 C284 1.387 . S
C288 C289 1.387 . S
C288 H292 0.950 . S
C288 C297 1.390 . S
C289 C288 1.387 . S
C289 C291 1.387 1_655 S
H290 C297 0.950 . S
C291 C289 1.387 1_455 S
C291 C293 1.390 . S
C291 H295 0.950 . S
H292 C288 0.950 . S
C293 C291 1.390 . S
C293 C294 1.387 . S
C293 H296 0.950 . S
C294 C293 1.387 . S
C294 C297 1.387 1_455 S
H295 C291 0.950 . S
H296 C293 0.950 . S
C297 C288 1.390 . S
C297 H290 0.950 . S
C297 C294 1.387 1_655 S
C298 C299 1.387 1_545 S
C298 H302 0.950 1_556 S
C298 C307 1.390 . S
C299 C298 1.387 1_565 S
C299 C301 1.387 . S
H300 C307 0.950 . S
C301 C299 1.387 . S
C301 C303 1.390 . S
C301 H305 0.950 . S
H302 C298 0.950 1_554 S
C303 C301 1.390 . S
C303 C304 1.387 1_565 S
C303 H306 0.950 . S
C304 C303 1.387 1_545 S
C304 C307 1.387 . S
H305 C301 0.950 . S
H306 C303 0.950 . S
C307 C298 1.390 . S
C307 H300 0.950 . S
C307 C304 1.387 . S
C308 C309 1.387 . S
C308 H312 0.950 . S
C308 C317 1.390 . S
C309 C308 1.387 . S
C309 C311 1.387 . S
H310 C317 0.950 . S
C311 C309 1.387 . S
C311 C313 1.390 . S
C311 H315 0.950 1_556 S
H312 C308 0.950 . S
C313 C311 1.390 . S
C313 C314 1.387 . S
C313 H316 0.950 . S
C314 C313 1.387 . S
C314 C317 1.387 . S
H315 C311 0.950 1_554 S
H316 C313 0.950 . S
C317 C308 1.390 . S
C317 H310 0.950 . S
C317 C314 1.387 . S
C318 C319 1.387 . S
C318 H322 0.950 . S
C318 C327 1.390 . S
C319 C318 1.387 . S
C319 C321 1.387 . S
H320 C327 0.950 . S
C321 C319 1.387 . S
C321 C323 1.390 . S
C321 H325 0.950 . S
H322 C318 0.950 . S
C323 C321 1.390 . S
C323 C324 1.387 . S
C323 H326 0.950 . S
C324 C323 1.387 . S
C324 C327 1.387 . S
H325 C321 0.950 . S
H326 C323 0.950 . S
C327 C318 1.390 . S
C327 H320 0.950 . S
C327 C324 1.387 . S
C328 C329 1.387 . S
C328 H332 0.950 . S
C328 C337 1.390 . S
C329 C328 1.387 . S
C329 C331 1.387 . S
H330 C337 0.950 . S
C331 C329 1.387 . S
C331 C333 1.390 . S
C331 H335 0.950 1_455 S
H332 C328 0.950 . S
C333 C331 1.390 . S
C333 C334 1.387 . S
C333 H336 0.950 1_455 S
C334 C333 1.387 . S
C334 C337 1.387 . S
H335 C331 0.950 1_655 S
H336 C333 0.950 1_655 S
C337 C328 1.390 . S
C337 H330 0.950 . S
C337 C334 1.387 . S
C338 C339 1.387 . S
C338 H342 0.950 . S
C338 C347 1.390 . S
C339 C338 1.387 . S
C339 C341 1.387 1_545 S
H340 C347 0.950 . S
C341 C339 1.387 1_565 S
C341 C343 1.390 . S
C341 H345 0.950 . S
H342 C338 0.950 . S
C343 C341 1.390 . S
C343 C344 1.387 1_565 S
C343 H346 0.950 . S
C344 C343 1.387 1_545 S
C344 C347 1.387 . S
H345 C341 0.950 . S
H346 C343 0.950 . S
C347 C338 1.390 . S
C347 H340 0.950 . S
C347 C344 1.387 . S
C348 C349 1.387 . S
C348 H352 0.950 . S
C348 C357 1.390 . S
C349 C348 1.387 . S
C349 C351 1.387 . S
H350 C357 0.950 . S
C351 C349 1.387 . S
C351 C353 1.390 . S
C351 H355 0.950 . S
H352 C348 0.950 . S
C353 C351 1.390 . S
C353 C354 1.387 . S
C353 H356 0.950 . S
C354 C353 1.387 . S
C354 C357 1.387 . S
H355 C351 0.950 . S
H356 C353 0.950 . S
C357 C348 1.390 . S
C357 H350 0.950 . S
C357 C354 1.387 . S
C358 C359 1.387 . S
C358 H362 0.950 . S
C358 C367 1.390 . S
C359 C358 1.387 . S
C359 C361 1.387 . S
H360 C367 0.950 . S
C361 C359 1.387 . S
C361 C363 1.390 . S
C361 H365 0.950 . S
H362 C358 0.950 . S
C363 C361 1.390 . S
C363 C364 1.387 . S
C363 H366 0.950 . S
C364 C363 1.387 . S
C364 C367 1.387 . S
H365 C361 0.950 . S
H366 C363 0.950 . S
C367 C358 1.390 . S
C367 H360 0.950 . S
C367 C364 1.387 . S
C368 C369 1.387 . S
C368 H372 0.950 . S
C368 C377 1.390 . S
C369 C368 1.387 . S
C369 C371 1.369 1_655 S
H370 C377 0.950 . S
C371 C369 1.369 1_455 S
C371 C373 1.391 . S
C371 H375 0.968 . S
H372 C368 0.950 . S
C373 C371 1.391 . S
C373 C374 1.387 1_455 S
C373 H376 0.950 . S
C374 C373 1.387 1_655 S
C374 C377 1.387 . S
H375 C371 0.968 . S
H376 C373 0.950 . S
C377 C368 1.390 . S
C377 H370 0.950 . S
C377 C374 1.387 . S
C378 C379 1.387 . S
C378 H382 0.950 . S
C378 C387 1.390 . S
C379 C378 1.387 . S
C379 C381 1.387 . S
H380 C387 0.950 . S
C381 C379 1.387 . S
C381 C383 1.390 . S
C381 H385 0.950 . S
H382 C378 0.950 . S
C383 C381 1.390 . S
C383 C384 1.387 . S
C383 H386 0.950 . S
C384 C383 1.387 . S
C384 C387 1.387 . S
H385 C381 0.950 . S
H386 C383 0.950 . S
C387 C378 1.390 . S
C387 H380 0.950 . S
C387 C384 1.387 . S
C388 C389 1.387 . S
C388 H392 0.950 . S
C388 C397 1.390 . S
C389 C388 1.387 . S
C389 C391 1.387 . S
H390 C397 0.950 . S
C391 C389 1.387 . S
C391 C393 1.390 . S
C391 H395 0.950 . S
H392 C388 0.950 . S
C393 C391 1.390 . S
C393 C394 1.387 . S
C393 H396 0.950 . S
C394 C393 1.387 . S
C394 C397 1.387 . S
H395 C391 0.950 . S
H396 C393 0.950 . S
C397 C388 1.390 . S
C397 H390 0.950 . S
C397 C394 1.387 . S
C398 C399 1.387 . S
C398 H402 0.950 . S
C398 C407 1.390 . S
C399 C398 1.387 . S
C399 C401 1.387 . S
H400 C407 0.950 . S
C401 C399 1.387 . S
C401 C403 1.390 . S
C401 H405 0.950 . S
H402 C398 0.950 . S
C403 C401 1.390 . S
C403 C404 1.387 . S
C403 H406 0.950 . S
C404 C403 1.387 . S
C404 C407 1.387 . S
H405 C401 0.950 . S
H406 C403 0.950 . S
C407 C398 1.390 . S
C407 H400 0.950 . S
C407 C404 1.387 . S
C169 C74 1.605 . S
C174 C96 1.650 . S
C184 C126 1.848 . S
C179 C85 1.818 . S
C194 C136 1.579 . S
C189 C52 1.498 . S
C204 C156 1.492 . S
C199 C63 1.439 . S
C214 C97 1.650 1_565 S
C209 C30 1.576 . S
C219 C41 1.746 . S
C224 C127 1.850 . S
C229 C8 1.525 . S
C234 C137 1.579 . S
C239 C19 1.401 . S
C244 C157 1.492 1_655 S
C254 C89 1.109 . S
C249 C62 1.127 . S
C264 C110 0.888 1_545 S
C259 C73 0.902 . S
C274 C129 1.307 . S
C269 C84 1.321 . S
C279 C51 0.993 . S
C284 C149 0.991 . S
C289 C18 1.057 . S
C294 C90 1.110 . S
C304 C109 0.885 . S
C299 C29 0.876 . S
C314 C130 1.305 . S
C309 C40 1.188 . S
C319 C7 0.981 . S
C324 C150 0.989 . S
C329 C60 1.406 . S
C334 C107 1.720 . S
C339 C71 1.270 . S
C344 C117 1.609 . S
C354 C147 1.916 . S
C349 C82 1.615 . S
C364 C167 1.845 . S
C359 C49 1.364 . S
C369 C16 1.303 . S
C374 C106 1.720 . S
C384 C116 1.610 . S
C379 C27 1.192 . S
C394 C146 1.915 . S
C389 C38 1.377 . S
C399 C5 1.573 . S
C404 C166 1.846 . S
