# Generated by pormake.
# Topology iac, (4,6)-cn, num edge types: 1
# Building blocks:
#     Node 0, Type 0, BuildingBlock: TATPOV_clean_sbu_0, # of connection points: 4
#     Node 1, Type 0, BuildingBlock: TATPOV_clean_sbu_0, # of connection points: 4
#     Node 2, Type 0, BuildingBlock: TATPOV_clean_sbu_0, # of connection points: 4
#     Node 3, Type 0, BuildingBlock: TATPOV_clean_sbu_0, # of connection points: 4
#     Node 4, Type 0, BuildingBlock: TATPOV_clean_sbu_0, # of connection points: 4
#     Node 5, Type 0, BuildingBlock: TATPOV_clean_sbu_0, # of connection points: 4
#     Node 6, Type 0, BuildingBlock: TATPOV_clean_sbu_0, # of connection points: 4
#     Node 7, Type 0, BuildingBlock: TATPOV_clean_sbu_0, # of connection points: 4
#     Node 8, Type 0, BuildingBlock: TATPOV_clean_sbu_0, # of connection points: 4
#     Node 9, Type 0, BuildingBlock: TATPOV_clean_sbu_0, # of connection points: 4
#     Node 10, Type 0, BuildingBlock: TATPOV_clean_sbu_0, # of connection points: 4
#     Node 11, Type 0, BuildingBlock: TATPOV_clean_sbu_0, # of connection points: 4
#     Node 12, Type 0, BuildingBlock: TATPOV_clean_sbu_0, # of connection points: 4
#     Node 13, Type 0, BuildingBlock: TATPOV_clean_sbu_0, # of connection points: 4
#     Node 14, Type 0, BuildingBlock: TATPOV_clean_sbu_0, # of connection points: 4
#     Node 15, Type 0, BuildingBlock: TATPOV_clean_sbu_0, # of connection points: 4
#     Node 16, Type 0, BuildingBlock: TATPOV_clean_sbu_0, # of connection points: 4
#     Node 17, Type 0, BuildingBlock: TATPOV_clean_sbu_0, # of connection points: 4
#     Node 18, Type 0, BuildingBlock: TATPOV_clean_sbu_0, # of connection points: 4
#     Node 19, Type 0, BuildingBlock: TATPOV_clean_sbu_0, # of connection points: 4
#     Node 20, Type 0, BuildingBlock: TATPOV_clean_sbu_0, # of connection points: 4
#     Node 21, Type 0, BuildingBlock: TATPOV_clean_sbu_0, # of connection points: 4
#     Node 22, Type 0, BuildingBlock: TATPOV_clean_sbu_0, # of connection points: 4
#     Node 23, Type 0, BuildingBlock: TATPOV_clean_sbu_0, # of connection points: 4
#     Node 24, Type 1, BuildingBlock: JUFBIX_clean_sbu_0, # of connection points: 6
#     Node 25, Type 1, BuildingBlock: JUFBIX_clean_sbu_0, # of connection points: 6
#     Node 26, Type 1, BuildingBlock: JUFBIX_clean_sbu_0, # of connection points: 6
#     Node 27, Type 1, BuildingBlock: JUFBIX_clean_sbu_0, # of connection points: 6
#     Node 28, Type 1, BuildingBlock: JUFBIX_clean_sbu_0, # of connection points: 6
#     Node 29, Type 1, BuildingBlock: JUFBIX_clean_sbu_0, # of connection points: 6
#     Node 30, Type 1, BuildingBlock: JUFBIX_clean_sbu_0, # of connection points: 6
#     Node 31, Type 1, BuildingBlock: JUFBIX_clean_sbu_0, # of connection points: 6
#     Node 32, Type 1, BuildingBlock: JUFBIX_clean_sbu_0, # of connection points: 6
#     Node 33, Type 1, BuildingBlock: JUFBIX_clean_sbu_0, # of connection points: 6
#     Node 34, Type 1, BuildingBlock: JUFBIX_clean_sbu_0, # of connection points: 6
#     Node 35, Type 1, BuildingBlock: JUFBIX_clean_sbu_0, # of connection points: 6
#     Node 36, Type 1, BuildingBlock: JUFBIX_clean_sbu_0, # of connection points: 6
#     Node 37, Type 1, BuildingBlock: JUFBIX_clean_sbu_0, # of connection points: 6
#     Node 38, Type 1, BuildingBlock: JUFBIX_clean_sbu_0, # of connection points: 6
#     Node 39, Type 1, BuildingBlock: JUFBIX_clean_sbu_0, # of connection points: 6
#     Edge 40, Type (0, 1), BuildingBlock: OJICUG_clean_linker_0, # of connection points: 2
#     Edge 41, Type (0, 1), BuildingBlock: OJICUG_clean_linker_0, # of connection points: 2
#     Edge 42, Type (0, 1), BuildingBlock: OJICUG_clean_linker_0, # of connection points: 2
#     Edge 43, Type (0, 1), BuildingBlock: OJICUG_clean_linker_0, # of connection points: 2
#     Edge 44, Type (0, 1), BuildingBlock: OJICUG_clean_linker_0, # of connection points: 2
#     Edge 45, Type (0, 1), BuildingBlock: OJICUG_clean_linker_0, # of connection points: 2
#     Edge 46, Type (0, 1), BuildingBlock: OJICUG_clean_linker_0, # of connection points: 2
#     Edge 47, Type (0, 1), BuildingBlock: OJICUG_clean_linker_0, # of connection points: 2
#     Edge 48, Type (0, 1), BuildingBlock: OJICUG_clean_linker_0, # of connection points: 2
#     Edge 49, Type (0, 1), BuildingBlock: OJICUG_clean_linker_0, # of connection points: 2
#     Edge 50, Type (0, 1), BuildingBlock: OJICUG_clean_linker_0, # of connection points: 2
#     Edge 51, Type (0, 1), BuildingBlock: OJICUG_clean_linker_0, # of connection points: 2
#     Edge 52, Type (0, 1), BuildingBlock: OJICUG_clean_linker_0, # of connection points: 2
#     Edge 53, Type (0, 1), BuildingBlock: OJICUG_clean_linker_0, # of connection points: 2
#     Edge 54, Type (0, 1), BuildingBlock: OJICUG_clean_linker_0, # of connection points: 2
#     Edge 55, Type (0, 1), BuildingBlock: OJICUG_clean_linker_0, # of connection points: 2
#     Edge 56, Type (0, 1), BuildingBlock: OJICUG_clean_linker_0, # of connection points: 2
#     Edge 57, Type (0, 1), BuildingBlock: OJICUG_clean_linker_0, # of connection points: 2
#     Edge 58, Type (0, 1), BuildingBlock: OJICUG_clean_linker_0, # of connection points: 2
#     Edge 59, Type (0, 1), BuildingBlock: OJICUG_clean_linker_0, # of connection points: 2
#     Edge 60, Type (0, 1), BuildingBlock: OJICUG_clean_linker_0, # of connection points: 2
#     Edge 61, Type (0, 1), BuildingBlock: OJICUG_clean_linker_0, # of connection points: 2
#     Edge 62, Type (0, 1), BuildingBlock: OJICUG_clean_linker_0, # of connection points: 2
#     Edge 63, Type (0, 1), BuildingBlock: OJICUG_clean_linker_0, # of connection points: 2
#     Edge 64, Type (0, 1), BuildingBlock: OJICUG_clean_linker_0, # of connection points: 2
#     Edge 65, Type (0, 1), BuildingBlock: OJICUG_clean_linker_0, # of connection points: 2
#     Edge 66, Type (0, 1), BuildingBlock: OJICUG_clean_linker_0, # of connection points: 2
#     Edge 67, Type (0, 1), BuildingBlock: OJICUG_clean_linker_0, # of connection points: 2
#     Edge 68, Type (0, 1), BuildingBlock: OJICUG_clean_linker_0, # of connection points: 2
#     Edge 69, Type (0, 1), BuildingBlock: OJICUG_clean_linker_0, # of connection points: 2
#     Edge 70, Type (0, 1), BuildingBlock: OJICUG_clean_linker_0, # of connection points: 2
#     Edge 71, Type (0, 1), BuildingBlock: OJICUG_clean_linker_0, # of connection points: 2
#     Edge 72, Type (0, 1), BuildingBlock: OJICUG_clean_linker_0, # of connection points: 2
#     Edge 73, Type (0, 1), BuildingBlock: OJICUG_clean_linker_0, # of connection points: 2
#     Edge 74, Type (0, 1), BuildingBlock: OJICUG_clean_linker_0, # of connection points: 2
#     Edge 75, Type (0, 1), BuildingBlock: OJICUG_clean_linker_0, # of connection points: 2
#     Edge 76, Type (0, 1), BuildingBlock: OJICUG_clean_linker_0, # of connection points: 2
#     Edge 77, Type (0, 1), BuildingBlock: OJICUG_clean_linker_0, # of connection points: 2
#     Edge 78, Type (0, 1), BuildingBlock: OJICUG_clean_linker_0, # of connection points: 2
#     Edge 79, Type (0, 1), BuildingBlock: OJICUG_clean_linker_0, # of connection points: 2
#     Edge 80, Type (0, 1), BuildingBlock: OJICUG_clean_linker_0, # of connection points: 2
#     Edge 81, Type (0, 1), BuildingBlock: OJICUG_clean_linker_0, # of connection points: 2
#     Edge 82, Type (0, 1), BuildingBlock: OJICUG_clean_linker_0, # of connection points: 2
#     Edge 83, Type (0, 1), BuildingBlock: OJICUG_clean_linker_0, # of connection points: 2
#     Edge 84, Type (0, 1), BuildingBlock: OJICUG_clean_linker_0, # of connection points: 2
#     Edge 85, Type (0, 1), BuildingBlock: OJICUG_clean_linker_0, # of connection points: 2
#     Edge 86, Type (0, 1), BuildingBlock: OJICUG_clean_linker_0, # of connection points: 2
#     Edge 87, Type (0, 1), BuildingBlock: OJICUG_clean_linker_0, # of connection points: 2
#     Edge 88, Type (0, 1), BuildingBlock: OJICUG_clean_linker_0, # of connection points: 2
#     Edge 89, Type (0, 1), BuildingBlock: OJICUG_clean_linker_0, # of connection points: 2
#     Edge 90, Type (0, 1), BuildingBlock: OJICUG_clean_linker_0, # of connection points: 2
#     Edge 91, Type (0, 1), BuildingBlock: OJICUG_clean_linker_0, # of connection points: 2
#     Edge 92, Type (0, 1), BuildingBlock: OJICUG_clean_linker_0, # of connection points: 2
#     Edge 93, Type (0, 1), BuildingBlock: OJICUG_clean_linker_0, # of connection points: 2
#     Edge 94, Type (0, 1), BuildingBlock: OJICUG_clean_linker_0, # of connection points: 2
#     Edge 95, Type (0, 1), BuildingBlock: OJICUG_clean_linker_0, # of connection points: 2
#     Edge 96, Type (0, 1), BuildingBlock: OJICUG_clean_linker_0, # of connection points: 2
#     Edge 97, Type (0, 1), BuildingBlock: OJICUG_clean_linker_0, # of connection points: 2
#     Edge 98, Type (0, 1), BuildingBlock: OJICUG_clean_linker_0, # of connection points: 2
#     Edge 99, Type (0, 1), BuildingBlock: OJICUG_clean_linker_0, # of connection points: 2
#     Edge 100, Type (0, 1), BuildingBlock: OJICUG_clean_linker_0, # of connection points: 2
#     Edge 101, Type (0, 1), BuildingBlock: OJICUG_clean_linker_0, # of connection points: 2
#     Edge 102, Type (0, 1), BuildingBlock: OJICUG_clean_linker_0, # of connection points: 2
#     Edge 103, Type (0, 1), BuildingBlock: OJICUG_clean_linker_0, # of connection points: 2
#     Edge 104, Type (0, 1), BuildingBlock: OJICUG_clean_linker_0, # of connection points: 2
#     Edge 105, Type (0, 1), BuildingBlock: OJICUG_clean_linker_0, # of connection points: 2
#     Edge 106, Type (0, 1), BuildingBlock: OJICUG_clean_linker_0, # of connection points: 2
#     Edge 107, Type (0, 1), BuildingBlock: OJICUG_clean_linker_0, # of connection points: 2
#     Edge 108, Type (0, 1), BuildingBlock: OJICUG_clean_linker_0, # of connection points: 2
#     Edge 109, Type (0, 1), BuildingBlock: OJICUG_clean_linker_0, # of connection points: 2
#     Edge 110, Type (0, 1), BuildingBlock: OJICUG_clean_linker_0, # of connection points: 2
#     Edge 111, Type (0, 1), BuildingBlock: OJICUG_clean_linker_0, # of connection points: 2
#     Edge 112, Type (0, 1), BuildingBlock: OJICUG_clean_linker_0, # of connection points: 2
#     Edge 113, Type (0, 1), BuildingBlock: OJICUG_clean_linker_0, # of connection points: 2
#     Edge 114, Type (0, 1), BuildingBlock: OJICUG_clean_linker_0, # of connection points: 2
#     Edge 115, Type (0, 1), BuildingBlock: OJICUG_clean_linker_0, # of connection points: 2
#     Edge 116, Type (0, 1), BuildingBlock: OJICUG_clean_linker_0, # of connection points: 2
#     Edge 117, Type (0, 1), BuildingBlock: OJICUG_clean_linker_0, # of connection points: 2
#     Edge 118, Type (0, 1), BuildingBlock: OJICUG_clean_linker_0, # of connection points: 2
#     Edge 119, Type (0, 1), BuildingBlock: OJICUG_clean_linker_0, # of connection points: 2
#     Edge 120, Type (0, 1), BuildingBlock: OJICUG_clean_linker_0, # of connection points: 2
#     Edge 121, Type (0, 1), BuildingBlock: OJICUG_clean_linker_0, # of connection points: 2
#     Edge 122, Type (0, 1), BuildingBlock: OJICUG_clean_linker_0, # of connection points: 2
#     Edge 123, Type (0, 1), BuildingBlock: OJICUG_clean_linker_0, # of connection points: 2
#     Edge 124, Type (0, 1), BuildingBlock: OJICUG_clean_linker_0, # of connection points: 2
#     Edge 125, Type (0, 1), BuildingBlock: OJICUG_clean_linker_0, # of connection points: 2
#     Edge 126, Type (0, 1), BuildingBlock: OJICUG_clean_linker_0, # of connection points: 2
#     Edge 127, Type (0, 1), BuildingBlock: OJICUG_clean_linker_0, # of connection points: 2
#     Edge 128, Type (0, 1), BuildingBlock: OJICUG_clean_linker_0, # of connection points: 2
#     Edge 129, Type (0, 1), BuildingBlock: OJICUG_clean_linker_0, # of connection points: 2
#     Edge 130, Type (0, 1), BuildingBlock: OJICUG_clean_linker_0, # of connection points: 2
#     Edge 131, Type (0, 1), BuildingBlock: OJICUG_clean_linker_0, # of connection points: 2
#     Edge 132, Type (0, 1), BuildingBlock: OJICUG_clean_linker_0, # of connection points: 2
#     Edge 133, Type (0, 1), BuildingBlock: OJICUG_clean_linker_0, # of connection points: 2
#     Edge 134, Type (0, 1), BuildingBlock: OJICUG_clean_linker_0, # of connection points: 2
#     Edge 135, Type (0, 1), BuildingBlock: OJICUG_clean_linker_0, # of connection points: 2
# Relax obj value: 0.263
# Max RMSD: 0.253
# Mean RMSD: 0.154
data_MOF--net-iac--node1-TATPOV_clean_sbu_0--node2-JUFBIX_clean_sbu_0--edge1-OJICUG_clean_linker_0
_symmetry_space_group_name_H-M    P1
_symmetry_Int_Tables_number       1
_symmetry_cell_setting            triclinic
loop_
_symmetry_equiv_pos_as_xyz
'x, y, z'
_cell_length_a     39.931201
_cell_length_b     40.917609
_cell_length_c     41.494427
_cell_angle_alpha  89.205382
_cell_angle_beta   88.356021
_cell_angle_gamma 89.771273
loop_
_atom_site_label
_atom_site_type_symbol
_atom_site_fract_x
_atom_site_fract_y
_atom_site_fract_z
_atom_type_partial_charge
Zn0 Zn 0.09174 0.28312 0.1188 0.0
Zn1 Zn 0.03917 0.28648 0.15759 0.0
O2 O 0.03631 0.33146 0.12986 0.0
O3 O 0.08262 0.32927 0.10019 0.0
O4 O 0.99523 0.28603 0.18553 0.0
O5 O 0.07569 0.24144 0.09689 0.0
O6 O 0.0352 0.24017 0.13377 0.0
C7 C 0.05648 0.3449 0.10901 0.0
C8 C 0.11039 0.28209 0.18631 0.0
O9 O 0.07888 0.28709 0.19086 0.0
O10 O 0.12207 0.27808 0.15788 0.0
C11 C 0.97689 0.31085 0.19202 0.0
O12 O 0.98665 0.33982 0.18153 0.0
C13 C 0.05098 0.22658 0.11011 0.0
Zn14 Zn 0.99453 0.74039 0.41624 0.0
Zn15 Zn 0.05841 0.76274 0.40893 0.0
O16 O 0.04043 0.79128 0.44481 0.0
O17 O 0.98821 0.77453 0.45118 0.0
O18 O 0.10593 0.77552 0.40086 0.0
O19 O 0.0122 0.69558 0.42443 0.0
O20 O 0.06375 0.71449 0.41973 0.0
C21 C 0.01167 0.79355 0.45865 0.0
C22 C 0.00945 0.76811 0.35408 0.0
O23 O 0.03755 0.77437 0.36601 0.0
O24 O 0.98704 0.75307 0.37044 0.0
C25 C 0.11298 0.79872 0.38127 0.0
O26 O 0.08879 0.81743 0.37055 0.0
C27 C 0.04351 0.69093 0.42428 0.0
Zn28 Zn 0.53346 0.74015 0.69289 0.0
Zn29 Zn 0.53804 0.78472 0.65131 0.0
O30 O 0.48997 0.79108 0.67544 0.0
O31 O 0.48872 0.75093 0.71117 0.0
O32 O 0.54227 0.82831 0.62179 0.0
O33 O 0.57395 0.7476 0.71786 0.0
O34 O 0.58255 0.7863 0.68136 0.0
C35 C 0.47442 0.77497 0.69796 0.0
C36 C 0.53525 0.71063 0.63114 0.0
O37 O 0.53658 0.74073 0.62137 0.0
O38 O 0.53475 0.70466 0.6611 0.0
C39 C 0.51727 0.84674 0.61475 0.0
O40 O 0.48719 0.83716 0.62429 0.0
C41 C 0.59244 0.77003 0.70625 0.0
Zn42 Zn 0.48598 0.26315 0.9736 0.0
Zn43 Zn 0.54908 0.27838 0.95274 0.0
O44 O 0.54344 0.30547 0.99391 0.0
O45 O 0.49407 0.28948 0.01338 0.0
O46 O 0.59565 0.28521 0.93376 0.0
O47 O 0.49745 0.21535 0.97046 0.0
O48 O 0.54991 0.22917 0.95993 0.0
C49 C 0.52021 0.30665 0.01569 0.0
C50 C 0.48818 0.29662 0.91295 0.0
O51 O 0.51969 0.29437 0.91595 0.0
O52 O 0.46812 0.28603 0.93474 0.0
C53 C 0.60013 0.26988 0.90748 0.0
O54 O 0.57511 0.25307 0.89631 0.0
C55 C 0.52771 0.20744 0.96501 0.0
Zn56 Zn 0.13092 0.04768 0.27274 0.0
Zn57 Zn 0.1655 0.99806 0.30115 0.0
O58 O 0.12716 1.00349 0.33342 0.0
O59 O 0.1013 0.0465 0.31279 0.0
O60 O 0.19444 0.96147 0.31567 0.0
O61 O 0.12102 0.01776 0.23729 0.0
O62 O 0.15012 0.97805 0.25977 0.0
C63 C 0.10368 0.02463 0.33453 0.0
C64 C 0.19765 0.06434 0.28419 0.0
O65 O 0.19739 0.03653 0.29808 0.0
O66 O 0.17224 0.0748 0.26974 0.0
C67 C 0.2257 0.9635 0.32016 0.0
O68 O 0.2396 0.9921 0.32415 0.0
C69 C 0.13234 0.98889 0.2372 0.0
Zn70 Zn 0.3058 0.86431 0.57926 0.0
Zn71 Zn 0.25072 0.88976 0.55688 0.0
O72 O 0.26947 0.86261 0.51903 0.0
O73 O 0.32008 0.85013 0.5354 0.0
O74 O 0.20863 0.91259 0.54132 0.0
O75 O 0.27864 0.83324 0.60607 0.0
O76 O 0.23361 0.86228 0.59575 0.0
C77 C 0.29841 0.85 0.51378 0.0
C78 C 0.30805 0.93163 0.58306 0.0
O79 O 0.28217 0.92758 0.56641 0.0
O80 O 0.3221 0.90717 0.59595 0.0
C81 C 0.20134 0.94107 0.55149 0.0
O82 O 0.2212 0.9551 0.57179 0.0
C83 C 0.24774 0.83882 0.61061 0.0
Zn84 Zn 0.44692 0.00673 0.73104 0.0
Zn85 Zn 0.42158 0.06121 0.74847 0.0
O86 O 0.44143 0.04392 0.79004 0.0
O87 O 0.45102 0.99268 0.7769 0.0
O88 O 0.40056 0.10437 0.75965 0.0
O89 O 0.48587 0.02872 0.70919 0.0
O90 O 0.45603 0.0737 0.71323 0.0
C91 C 0.44971 0.01482 0.79784 0.0
C92 C 0.37949 0.00784 0.71834 0.0
O93 O 0.38215 0.03287 0.73593 0.0
O94 O 0.40573 0.99391 0.70747 0.0
C95 C 0.37627 0.1149 0.74326 0.0
O96 O 0.36528 0.09718 0.71964 0.0
C97 C 0.48178 0.05862 0.70238 0.0
Zn98 Zn 0.23477 0.20567 0.04384 0.0
Zn99 Zn 0.2887 0.16872 0.04058 0.0
O100 O 0.29172 0.19644 -0.00444 0.0
O101 O 0.24401 0.22348 -0.00203 0.0
O102 O 0.33372 0.14185 0.0422 0.0
O103 O 0.24957 0.2306 0.0836 0.0
O104 O 0.29147 0.19574 0.08488 0.0
C105 C 0.27072 0.21609 0.98238 0.0
C106 C 0.21679 0.13698 0.04544 0.0
O107 O 0.24857 0.13362 0.04057 0.0
O108 O 0.2046 0.16534 0.04949 0.0
C109 C 0.34123 0.11597 0.02661 0.0
O110 O 0.31916 0.10424 0.00697 0.0
C111 C 0.27504 0.21953 0.09774 0.0
Zn112 Zn 0.82479 0.37317 0.09396 0.0
Zn113 Zn 0.76951 0.40215 0.07689 0.0
O114 O 0.78842 0.38347 0.03469 0.0
O115 O 0.83835 0.36569 0.04822 0.0
O116 O 0.72712 0.42564 0.06519 0.0
O117 O 0.79881 0.33798 0.11632 0.0
O118 O 0.75312 0.36719 0.10964 0.0
C119 C 0.81671 0.37076 0.02707 0.0
C120 C 0.82545 0.43956 0.10954 0.0
O121 O 0.79869 0.43862 0.09366 0.0
O122 O 0.84052 0.41323 0.11647 0.0
C123 C 0.72637 0.45364 0.0515 0.0
O124 O 0.75465 0.46821 0.0432 0.0
C125 C 0.76768 0.34198 0.12101 0.0
Zn126 Zn 0.94336 0.49787 0.22827 0.0
Zn127 Zn 0.92289 0.55625 0.24516 0.0
O128 O 0.94111 0.53887 0.2873 0.0
O129 O 0.94802 0.48687 0.27524 0.0
O130 O 0.90386 0.60113 0.25389 0.0
O131 O 0.9831 0.517 0.20469 0.0
O132 O 0.96014 0.56544 0.21152 0.0
C133 C 0.94811 0.50957 0.29564 0.0
C134 C 0.8758 0.50413 0.21791 0.0
O135 O 0.88174 0.52972 0.23379 0.0
O136 O 0.90003 0.4872 0.20693 0.0
C137 C 0.88029 0.6117 0.23651 0.0
O138 O 0.86905 0.59315 0.21364 0.0
C139 C 0.98358 0.54758 0.19995 0.0
Zn140 Zn 0.73945 0.7145 0.52895 0.0
Zn141 Zn 0.78928 0.67297 0.5273 0.0
O142 O 0.79509 0.70095 0.4823 0.0
O143 O 0.75269 0.73531 0.4855 0.0
O144 O 0.83333 0.64503 0.52976 0.0
O145 O 0.7522 0.73456 0.5724 0.0
O146 O 0.79193 0.69743 0.57303 0.0
C147 C 0.77767 0.72409 0.46961 0.0
C148 C 0.71571 0.64684 0.52465 0.0
O149 O 0.7472 0.64011 0.52524 0.0
O150 O 0.70629 0.67644 0.52655 0.0
C151 C 0.84618 0.62615 0.50845 0.0
O152 O 0.83022 0.62213 0.48154 0.0
C153 C 0.7762 0.72101 0.58695 0.0
Zn154 Zn 0.59747 0.56234 0.8217 0.0
Zn155 Zn 0.64233 0.51141 0.8214 0.0
O156 O 0.60745 0.49383 0.8526 0.0
O157 O 0.56836 0.5317 0.84883 0.0
O158 O 0.67379 0.47457 0.81463 0.0
O159 O 0.59384 0.55981 0.77356 0.0
O160 O 0.62584 0.51612 0.77694 0.0
C161 C 0.57811 0.50414 0.8594 0.0
C162 C 0.66363 0.5785 0.84337 0.0
O163 O 0.67015 0.54901 0.83622 0.0
O164 O 0.63417 0.58972 0.84077 0.0
C165 C 0.70259 0.47031 0.82606 0.0
O166 O 0.71436 0.49133 0.84649 0.0
C167 C 0.60809 0.53548 0.76053 0.0
Zn168 Zn 0.97966 0.79366 0.94764 0.0
Zn169 Zn 0.03195 0.79022 0.90827 0.0
O170 O 0.03643 0.8368 0.93149 0.0
O171 O 0.99654 0.83576 0.96895 0.0
O172 O 0.07565 0.78753 0.88048 0.0
O173 O 0.9893 0.74736 0.96625 0.0
O174 O 0.03507 0.74558 0.93583 0.0
C175 C 0.02115 0.85051 0.95535 0.0
C176 C 0.96053 0.79394 0.87994 0.0
O177 O 0.99207 0.78933 0.87521 0.0
O178 O 0.949 0.79801 0.90843 0.0
C179 C 0.10218 0.80207 0.88889 0.0
O180 O 0.10118 0.81947 0.91525 0.0
C181 C 0.01539 0.73192 0.9569 0.0
Zn182 Zn 0.06804 0.32122 0.63168 0.0
Zn183 Zn 0.00622 0.29965 0.64947 0.0
O184 O 1.00006 0.34765 0.63697 0.0
O185 O 0.0508 0.36637 0.62589 0.0
O186 O 0.9601 0.28986 0.66709 0.0
O187 O 0.06688 0.28766 0.59641 0.0
O188 O 0.01652 0.2701 0.61145 0.0
C189 C 0.01965 0.37105 0.62944 0.0
C190 C 0.06509 0.2943 0.69489 0.0
O191 O 0.0349 0.28824 0.68832 0.0
O192 O 0.08439 0.30879 0.67478 0.0
C193 C 0.95379 0.30703 0.69187 0.0
O194 O 0.97696 0.3269 0.70188 0.0
C195 C 0.04243 0.26851 0.59283 0.0
Zn196 Zn 0.4843 0.29425 0.44532 0.0
Zn197 Zn 0.53413 0.28798 0.40414 0.0
O198 O 0.54029 0.33488 0.42571 0.0
O199 O 0.50379 0.33488 0.46628 0.0
O200 O 0.5777 0.28368 0.37667 0.0
O201 O 0.49084 0.24752 0.46345 0.0
O202 O 0.53552 0.2434 0.43179 0.0
C203 C 0.52717 0.34912 0.45033 0.0
C204 C 0.46317 0.29662 0.37819 0.0
O205 O 0.49386 0.28905 0.37211 0.0
O206 O 0.45336 0.30158 0.40707 0.0
C207 C 0.60481 0.29275 0.38937 0.0
O208 O 0.60338 0.30446 0.41869 0.0
C209 C 0.51568 0.23075 0.4533 0.0
Zn210 Zn 0.51029 0.71642 0.13489 0.0
Zn211 Zn 0.51737 0.7801 0.12184 0.0
O212 O 0.47235 0.77637 0.146 0.0
O213 O 0.46817 0.72475 0.16122 0.0
O214 O 0.51727 0.82702 0.10924 0.0
O215 O 0.55379 0.71986 0.15841 0.0
O216 O 0.5561 0.77337 0.15161 0.0
C217 C 0.45704 0.75372 0.16159 0.0
C218 C 0.52043 0.73042 0.06772 0.0
O219 O 0.52565 0.75893 0.07803 0.0
O220 O 0.51074 0.70782 0.0869 0.0
C221 C 0.51502 0.85123 0.12799 0.0
O222 O 0.51494 0.84651 0.15937 0.0
C223 C 0.56769 0.74701 0.16363 0.0
Zn224 Zn 0.95852 0.02083 0.76857 0.0
Zn225 Zn 0.92184 0.07269 0.75438 0.0
O226 O 0.94831 0.08554 0.79305 0.0
O227 O 0.98605 0.04653 0.7979 0.0
O228 O 0.88942 0.10958 0.75172 0.0
O229 O 0.97155 0.02127 0.72185 0.0
O230 O 0.94947 0.07006 0.71299 0.0
C231 C 0.97433 0.07403 0.80591 0.0
C232 C 0.89023 0.00787 0.77389 0.0
O233 O 0.88959 0.03531 0.75944 0.0
O234 O 0.91734 0.99671 0.78466 0.0
C235 C 0.87182 0.1114 0.77768 0.0
O236 O 0.87711 0.09029 0.80117 0.0
C237 C 0.96691 0.04574 0.70349 0.0
Zn238 Zn 0.73977 0.22323 0.4928 0.0
Zn239 Zn 0.79517 0.18957 0.50934 0.0
O240 O 0.81251 0.22424 0.47701 0.0
O241 O 0.76846 0.25527 0.4682 0.0
O242 O 0.83648 0.16179 0.51673 0.0
O243 O 0.73129 0.23094 0.53976 0.0
O244 O 0.7791 0.20774 0.55299 0.0
C245 C 0.79944 0.24953 0.46425 0.0
C246 C 0.73464 0.15656 0.47836 0.0
O247 O 0.76204 0.15649 0.49314 0.0
O248 O 0.72006 0.18338 0.47225 0.0
C249 C 0.842 0.13672 0.49943 0.0
O250 O 0.8206 0.12901 0.47737 0.0
C251 C 0.75218 0.22297 0.56088 0.0
Zn252 Zn 0.62477 0.07752 0.32543 0.0
Zn253 Zn 0.65384 0.02147 0.31519 0.0
O254 O 0.61525 0.01028 0.347 0.0
O255 O 0.5856 0.05567 0.34741 0.0
O256 O 0.67696 0.9781 0.30842 0.0
O257 O 0.62308 0.0855 0.27784 0.0
O258 O 0.63747 0.03402 0.27074 0.0
C259 C 0.58877 0.02588 0.35525 0.0
C260 C 0.69107 0.07967 0.34394 0.0
O261 O 0.69081 0.05242 0.3295 0.0
O262 O 0.66375 0.09456 0.34966 0.0
C263 C 0.70536 0.97093 0.31973 0.0
O264 O 0.72103 0.99249 0.3369 0.0
C265 C 0.62765 0.0614 0.25944 0.0
Zn266 Zn 0.84249 0.87102 0.01898 0.0
Zn267 Zn 0.78916 0.90899 0.02407 0.0
O268 O 0.78441 0.88309 0.97914 0.0
O269 O 0.82536 0.84709 0.97942 0.0
O270 O 0.74541 0.93761 0.02783 0.0
O271 O 0.83429 0.85312 0.06511 0.0
O272 O 0.78703 0.88076 0.06818 0.0
C273 C 0.79992 0.85897 0.96582 0.0
C274 C 0.86154 0.9394 0.01801 0.0
O275 O 0.82999 0.94307 0.02393 0.0
O276 O 0.87316 0.91101 0.01281 0.0
C277 C 0.7197 0.93238 0.01095 0.0
O278 O 0.72106 0.90852 0.99012 0.0
C279 C 0.80791 0.86091 0.08103 0.0
Zn280 Zn 0.25593 0.70892 0.9782 0.0
Zn281 Zn 0.30964 0.67748 -0.00429 0.0
O282 O 0.32935 0.70941 0.96153 0.0
O283 O 0.28552 0.74152 0.95565 0.0
O284 O 0.34838 0.64949 0.01004 0.0
O285 O 0.24215 0.71795 0.02371 0.0
O286 O 0.29228 0.70023 0.03654 0.0
C287 C 0.31622 0.73542 0.95022 0.0
C288 C 0.25114 0.64306 0.96318 0.0
O289 O 0.27765 0.64296 0.97947 0.0
O290 O 0.23742 0.66996 0.9558 0.0
C291 C 0.3613 0.63022 0.98934 0.0
O292 O 0.34995 0.63071 0.95991 0.0
C293 C 0.2645 0.71389 0.04436 0.0
Zn294 Zn 0.1081 0.57367 0.82351 0.0
Zn295 Zn 0.13889 0.51913 0.80992 0.0
O296 O 0.10177 0.50708 0.84339 0.0
O297 O 0.07085 0.55145 0.84748 0.0
O298 O 0.16335 0.47606 0.80388 0.0
O299 O 0.10314 0.58248 0.77666 0.0
O300 O 0.1221 0.53312 0.76549 0.0
C301 C 0.07561 0.52164 0.85425 0.0
C302 C 0.17563 0.57768 0.83828 0.0
O303 O 0.17545 0.55062 0.82353 0.0
O304 O 0.14817 0.5917 0.84548 0.0
C305 C 0.18858 0.46875 0.82068 0.0
O306 O 0.19928 0.4898 0.84162 0.0
C307 C 0.10972 0.56042 0.75637 0.0
Zn308 Zn 0.33507 0.36332 0.53358 0.0
Zn309 Zn 0.28644 0.40634 0.53573 0.0
O310 O 0.2814 0.38147 0.49046 0.0
O311 O 0.31957 0.34277 0.49138 0.0
O312 O 0.24356 0.43634 0.53703 0.0
O313 O 0.32374 0.34404 0.57819 0.0
O314 O 0.28214 0.37929 0.58134 0.0
C315 C 0.2959 0.35696 0.4769 0.0
C316 C 0.36084 0.43039 0.5336 0.0
O317 O 0.32954 0.43797 0.53452 0.0
O318 O 0.36932 0.40049 0.53264 0.0
C319 C 0.21593 0.42543 0.52663 0.0
O320 O 0.21551 0.39552 0.51554 0.0
C321 C 0.29945 0.35626 0.59432 0.0
Zn322 Zn 0.46153 0.51987 0.22994 0.0
Zn323 Zn 0.41933 0.56999 0.22957 0.0
O324 O 0.43679 0.569 0.27496 0.0
O325 O 0.46405 0.52226 0.27788 0.0
O326 O 0.38398 0.60439 0.23203 0.0
O327 O 0.49254 0.54854 0.20343 0.0
O328 O 0.45416 0.5866 0.19667 0.0
C329 C 0.45284 0.54787 0.29116 0.0
C330 C 0.39831 0.50093 0.20982 0.0
O331 O 0.39226 0.53032 0.21768 0.0
O332 O 0.42798 0.49001 0.21022 0.0
C333 C 0.36262 0.60247 0.25527 0.0
O334 O 0.36465 0.57835 0.27635 0.0
C335 C 0.48358 0.5756 0.19118 0.0
Co336 Co 0.03902 0.04885 0.00841 0.0
C337 C 0.03015 0.09362 0.06207 0.0
Co338 Co 0.03865 0.02779 0.05689 0.0
C339 C 0.02 0.07305 0.94585 0.0
C340 C 0.05989 0.10008 0.96597 0.0
N341 N 0.03976 0.07388 0.97143 0.0
N342 N 0.02729 0.09751 0.92483 0.0
C343 C 0.05264 0.11431 0.93694 0.0
H344 H 1.0011 0.05463 0.94235 0.0
H345 H 0.07852 0.10867 0.98223 0.0
C346 C 0.04699 0.98287 0.00327 0.0
N347 N 0.03884 1.00262 0.09415 0.0
C348 C 0.06444 0.99871 0.11416 0.0
C349 C 0.01782 0.97761 0.10181 0.0
N350 N 0.06067 0.97205 0.13327 0.0
C351 C 0.03103 0.95901 0.12619 0.0
C352 C 0.9753 0.02621 0.02876 0.0
O353 O 0.04627 0.00823 0.98503 0.0
O354 O 0.04613 0.98716 0.03366 0.0
O355 O 0.99114 0.02037 0.05431 0.0
O356 O 0.99085 0.04088 0.00552 0.0
O357 O 0.0309 0.06827 0.0803 0.0
H358 H 0.9954 0.9717 0.08913 0.0
H359 H 0.08596 0.01466 0.11434 0.0
O360 O 0.03167 0.0894 0.03169 0.0
O361 O 0.08663 0.05586 0.01058 0.0
O362 O 0.08697 0.03643 0.05951 0.0
C363 C 0.10258 0.05054 0.03606 0.0
H364 H 0.06497 0.13511 0.92547 0.0
H365 H 0.02037 0.93704 0.13702 0.0
Co366 Co 0.30647 0.78296 0.3011 0.0
C367 C 0.29504 0.72242 0.27745 0.0
Co368 Co 0.27799 0.7853 0.25681 0.0
C369 C 0.31693 0.80131 0.36441 0.0
C370 C 0.35226 0.76397 0.35153 0.0
N371 N 0.32774 0.78297 0.33961 0.0
N372 N 0.33278 0.79415 0.39168 0.0
C373 C 0.3555 0.77092 0.3838 0.0
H374 H 0.29678 0.81896 0.36268 0.0
H375 H 0.36566 0.74532 0.33812 0.0
C376 C 0.28925 0.84572 0.28085 0.0
N377 N 0.25621 0.78552 0.21866 0.0
C378 C 0.26551 0.7671 0.19342 0.0
C379 C 0.22954 0.8029 0.20882 0.0
N380 N 0.24609 0.77225 0.16793 0.0
C381 C 0.22318 0.7947 0.17744 0.0
C382 C 0.23691 0.7834 0.30998 0.0
O383 O 0.30566 0.82938 0.30127 0.0
O384 O 0.2755 0.8309 0.25811 0.0
O385 O 0.23675 0.78322 0.27947 0.0
O386 O 0.26462 0.78246 0.32408 0.0
O387 O 0.28071 0.73891 0.25566 0.0
H388 H 0.21593 0.82055 0.22335 0.0
H389 H 0.28628 0.75007 0.19391 0.0
O390 O 0.3072 0.73709 0.30111 0.0
O391 O 0.34806 0.78303 0.27787 0.0
O392 O 0.31922 0.78795 0.23384 0.0
C393 C 0.34716 0.7854 0.24734 0.0
H394 H 0.37195 0.7587 0.40043 0.0
H395 H 0.20379 0.80499 0.16265 0.0
Co396 Co 0.49919 0.03598 0.52476 0.0
C397 C 0.52611 0.0943 0.49984 0.0
Co398 Co 0.55411 0.03503 0.52559 0.0
C399 C 0.4333 0.02218 0.55028 0.0
C400 C 0.43171 0.05396 0.50904 0.0
N401 N 0.453 0.0373 0.52786 0.0
N402 N 0.40041 0.02832 0.54616 0.0
C403 C 0.39944 0.04853 0.52021 0.0
H404 H 0.44303 0.00599 0.56857 0.0
H405 H 0.43906 0.06871 0.48822 0.0
C406 C 0.52658 0.97699 0.55147 0.0
N407 N 0.60002 0.03449 0.52198 0.0
C408 C 0.61782 0.04793 0.49722 0.0
C409 C 0.62273 0.02592 0.54391 0.0
N410 N 0.65076 0.04976 0.50319 0.0
C411 C 0.65398 0.03537 0.53246 0.0
C412 C 0.52792 0.06167 0.57947 0.0
O413 O 0.49971 0.99194 0.54392 0.0
O414 O 0.55436 0.99153 0.54571 0.0
O415 O 0.55588 0.05425 0.56631 0.0
O416 O 0.50092 0.05459 0.56577 0.0
O417 O 0.55356 0.07947 0.50544 0.0
H418 H 0.61667 0.01586 0.5676 0.0
H419 H 0.60629 0.05826 0.47612 0.0
O420 O 0.49902 0.07919 0.50635 0.0
O421 O 0.49761 0.01785 0.48304 0.0
O422 O 0.55238 0.01569 0.48523 0.0
C423 C 0.52576 0.0099 0.47046 0.0
H424 H 0.3771 0.0581 0.50931 0.0
H425 H 0.67664 0.03464 0.54615 0.0
Co426 Co 0.3086 0.30197 0.79381 0.0
C427 C 0.28508 0.31079 0.72973 0.0
Co428 Co 0.2598 0.2796 0.78599 0.0
C429 C 0.37618 0.30841 0.81279 0.0
C430 C 0.35858 0.35255 0.79073 0.0
N431 N 0.34946 0.32163 0.79848 0.0
N432 N 0.40151 0.32984 0.8147 0.0
C433 C 0.39057 0.35781 0.80111 0.0
H434 H 0.37628 0.2841 0.82346 0.0
H435 H 0.34253 0.37045 0.77945 0.0
C436 C 0.28339 0.27024 0.84988 0.0
N437 N 0.21894 0.25986 0.78211 0.0
C438 C 0.19084 0.27446 0.77221 0.0
C439 C 0.2095 0.2294 0.79131 0.0
N440 N 0.16406 0.25465 0.77515 0.0
C441 C 0.17564 0.22599 0.7867 0.0
C442 C 0.31321 0.2381 0.77347 0.0
O443 O 0.30825 0.28702 0.83911 0.0
O444 O 0.2597 0.26483 0.83076 0.0
O445 O 0.28153 0.24048 0.77327 0.0
O446 O 0.33034 0.2625 0.78174 0.0
O447 O 0.25984 0.29474 0.74087 0.0
H448 H 0.22605 0.21106 0.80119 0.0
H449 H 0.19013 0.29918 0.76261 0.0
O450 O 0.30901 0.31618 0.74869 0.0
O451 O 0.28657 0.34173 0.80592 0.0
O452 O 0.23812 0.31883 0.79836 0.0
C453 C 0.25484 0.34379 0.80561 0.0
H454 H 0.40421 0.38063 0.79991 0.0
H455 H 0.16073 0.20436 0.79158 0.0
Co456 Co 0.00885 0.01167 0.51266 0.0
C457 C 0.01295 0.03969 0.57258 0.0
Co458 Co 0.03448 0.05917 0.51295 0.0
C459 C 1.0018 0.94321 0.50429 0.0
C460 C 0.95945 0.96287 0.53021 0.0
N461 N 0.98848 0.97142 0.51498 0.0
N462 N 0.98262 0.91725 0.51255 0.0
C463 C 0.95566 0.92946 0.52858 0.0
H464 H 0.02532 0.94178 0.49075 0.0
H465 H 0.94263 0.9797 0.54246 0.0
C466 C 0.03053 0.03105 0.45293 0.0
N467 N 0.05432 0.09956 0.51117 0.0
C468 C 0.04225 0.12603 0.52647 0.0
C469 C 0.08141 0.11021 0.49401 0.0
N470 N 0.06039 0.153 0.51954 0.0
C471 C 0.08532 0.14318 0.49926 0.0
C472 C 0.07809 0.00772 0.52106 0.0
O473 O 0.01571 0.00777 0.46787 0.0
O474 O 0.04013 0.05579 0.46821 0.0
O475 O 0.07672 0.0387 0.51876 0.0
O476 O 0.05127 0.99136 0.51921 0.0
O477 O 0.0285 0.0625 0.55776 0.0
H478 H 0.097 0.09509 0.47849 0.0
H479 H 0.02062 0.12533 0.54278 0.0
O480 O 1.00246 0.01542 0.55722 0.0
O481 O 0.96648 0.03251 0.50629 0.0
O482 O 0.99252 0.07944 0.50763 0.0
C483 C 0.9655 0.06358 0.5057 0.0
H484 H 0.93519 0.91524 0.53903 0.0
H485 H 0.10475 0.15868 0.48875 0.0
Co486 Co 0.28547 0.8187 0.78473 0.0
C487 C 0.22888 0.79355 0.81678 0.0
Co488 Co 0.28166 0.76544 0.78078 0.0
C489 C 0.29266 0.88251 0.75813 0.0
C490 C 0.28019 0.88439 0.80855 0.0
N491 N 0.28612 0.86352 0.78427 0.0
N492 N 0.29174 0.91465 0.76497 0.0
C493 C 0.28378 0.91584 0.79682 0.0
H494 H 0.29876 0.87261 0.73467 0.0
H495 H 0.27452 0.87717 0.83328 0.0
C496 C 0.33844 0.79052 0.74881 0.0
N497 N 0.28063 0.72054 0.78131 0.0
C498 C 0.27102 0.70164 0.80671 0.0
C499 C 0.28745 0.6996 0.75726 0.0
N500 N 0.27058 0.66961 0.79947 0.0
C501 C 0.28118 0.66828 0.7683 0.0
C502 C 0.24891 0.79528 0.73293 0.0
O503 O 0.32659 0.81773 0.7585 0.0
O504 O 0.32222 0.76458 0.75577 0.0
O505 O 0.25673 0.76694 0.74298 0.0
O506 O 0.2594 0.82013 0.74748 0.0
O507 O 0.24032 0.76664 0.80606 0.0
H508 H 0.29507 0.70677 0.73295 0.0
H509 H 0.26331 0.71155 0.82979 0.0
O510 O 0.24527 0.81956 0.8107 0.0
O511 O 0.31125 0.81705 0.82235 0.0
O512 O 0.30691 0.76388 0.81825 0.0
C513 C 0.31828 0.78851 0.83253 0.0
H514 H 0.28255 0.93769 0.8112 0.0
H515 H 0.28208 0.64656 0.7537 0.0
Co516 Co 0.5248 0.01344 0.00915 0.0
C517 C 0.59186 1.0022 0.02509 0.0
Co518 Co 0.53908 0.03883 0.05241 0.0
C519 C 0.49593 0.00421 0.94905 0.0
C520 C 0.52245 0.96119 0.9636 0.0
N521 N 0.51345 0.99136 0.97325 0.0
N522 N 0.49414 0.98373 0.9241 0.0
C523 C 0.5106 0.95642 0.9332 0.0
H524 H 0.48546 0.02862 0.94957 0.0
H525 H 0.53771 0.94436 0.97722 0.0
C526 C 0.47179 0.05022 0.03507 0.0
N527 N 0.55046 0.06152 0.08798 0.0
C528 C 0.5697 0.05103 0.11208 0.0
C529 C 0.54187 0.09245 0.0954 0.0
N530 N 0.57347 0.07414 0.1345 0.0
C531 C 0.55592 0.10027 0.12408 0.0
C532 C 0.54845 0.07523 -0.00337 0.0
O533 O 0.47993 0.02986 0.01338 0.0
O534 O 0.49374 0.05757 0.05546 0.0
O535 O 0.55285 0.0746 0.02669 0.0
O536 O 0.53626 0.05046 0.98332 0.0
O537 O 0.58419 0.02034 0.04892 0.0
H538 H 0.52629 0.1082 0.08094 0.0
H539 H 0.58079 0.02689 0.11292 0.0
O540 O 0.5696 0.99693 0.00453 0.0
O541 O 0.5132 0.97691 0.03468 0.0
O542 O 0.52551 1.00253 0.07874 0.0
C543 C 0.51551 0.97691 0.06509 0.0
H544 H 0.51523 0.9352 0.91842 0.0
H545 H 0.5527 0.12315 0.13658 0.0
Co546 Co 0.28494 0.26728 0.2936 0.0
C547 C 0.34761 0.29646 0.29768 0.0
Co548 Co 0.28449 0.31817 0.27741 0.0
C549 C 0.27228 0.19957 0.29401 0.0
C550 C 0.302 0.21235 0.33394 0.0
N551 N 0.28578 0.22516 0.30861 0.0
N552 N 0.27958 0.17107 0.30882 0.0
C553 C 0.29807 0.17893 0.33424 0.0
H554 H 0.25699 0.20204 0.27299 0.0
H555 H 0.31617 0.22636 0.35074 0.0
C556 C 0.22184 0.2884 0.27255 0.0
N557 N 0.28391 0.3604 0.26191 0.0
C558 C 0.30808 0.37552 0.24416 0.0
C559 C 0.25874 0.38233 0.26439 0.0
N560 N 0.29921 0.40621 0.23542 0.0
C561 C 0.26802 0.41047 0.24812 0.0
C562 C 0.29538 0.27214 0.22686 0.0
O563 O 0.23719 0.26404 0.28482 0.0
O564 O 0.23754 0.31518 0.26919 0.0
O565 O 0.29325 0.30256 0.23321 0.0
O566 O 0.29422 0.25196 0.2504 0.0
O567 O 0.33224 0.3212 0.28618 0.0
H568 H 0.23519 0.37818 0.27729 0.0
H569 H 0.33208 0.36432 0.23861 0.0
O570 O 0.33167 0.2699 0.30136 0.0
O571 O 0.2761 0.28262 0.33747 0.0
O572 O 0.27551 0.3336 0.32112 0.0
C573 C 0.2744 0.3129 0.34439 0.0
H574 H 0.30812 0.16185 0.35163 0.0
H575 H 0.253 0.43243 0.24635 0.0
Co576 Co 0.527 0.51587 0.04152 0.0
C577 C 0.54154 0.56962 0.07716 0.0
Co578 Co 0.54921 0.55651 0.01271 0.0
C579 C 0.52718 0.44995 0.06043 0.0
C580 C 0.48976 0.4748 0.08868 0.0
N581 N 0.51382 0.47969 0.06567 0.0
N582 N 0.51253 0.42641 0.07873 0.0
C583 C 0.48864 0.44181 0.09653 0.0
H584 H 0.54584 0.44527 0.04161 0.0
H585 H 0.47325 0.49365 0.09806 0.0
C586 C 0.53412 0.50307 0.97713 0.0
N587 N 0.56269 0.59283 0.98833 0.0
C588 C 0.54512 0.6209 0.98948 0.0
C589 C 0.59197 0.60099 0.97334 0.0
N590 N 0.56201 0.64659 0.97682 0.0
C591 C 0.59181 0.63427 0.96666 0.0
C592 C 0.59799 0.51652 0.03386 0.0
O593 O 0.52245 0.49143 0.00351 0.0
O594 O 0.54805 0.53094 0.97605 0.0
O595 O 0.59452 0.54363 0.01899 0.0
O596 O 0.57209 0.50164 0.04457 0.0
O597 O 0.54981 0.58249 0.05019 0.0
H598 H 0.61318 0.58468 0.97035 0.0
H599 H 0.52214 0.62357 0.00369 0.0
O600 O 0.53151 0.54022 0.07877 0.0
O601 O 0.48171 0.53071 0.03843 0.0
O602 O 0.50392 0.56819 0.0063 0.0
C603 C 0.47826 0.5552 0.01965 0.0
H604 H 0.47078 0.42997 0.11292 0.0
H605 H 0.61298 0.64866 0.95797 0.0
Co606 Co 0.78918 0.32076 0.29303 0.0
C607 C 0.7343 0.29064 0.32216 0.0
Co608 Co 0.79285 0.26724 0.2903 0.0
C609 C 0.79325 0.38427 0.26493 0.0
C610 C 0.76985 0.3862 0.31181 0.0
N611 N 0.78435 0.36551 0.29062 0.0
N612 N 0.78534 0.41608 0.26904 0.0
C613 C 0.7705 0.41731 0.29869 0.0
H614 H 0.80626 0.37458 0.24394 0.0
H615 H 0.75966 0.37919 0.33533 0.0
C616 C 0.84789 0.29795 0.26098 0.0
N617 N 0.79676 0.22243 0.29261 0.0
C618 C 0.78606 0.20344 0.31756 0.0
C619 C 0.80772 0.2015 0.2699 0.0
N620 N 0.78865 0.17122 0.31119 0.0
C621 C 0.80268 0.17004 0.28117 0.0
C622 C 0.76026 0.29155 0.23961 0.0
O623 O 0.83142 0.32333 0.26931 0.0
O624 O 0.83563 0.27003 0.26807 0.0
O625 O 0.77136 0.26463 0.25053 0.0
O626 O 0.76595 0.31775 0.25445 0.0
O627 O 0.74921 0.26482 0.3126 0.0
H628 H 0.81701 0.20863 0.2461 0.0
H629 H 0.77499 0.21343 0.33936 0.0
O630 O 0.74802 0.31805 0.31646 0.0
O631 O 0.81186 0.32358 0.33205 0.0
O632 O 0.81444 0.27007 0.32992 0.0
C633 C 0.82086 0.29644 0.34427 0.0
H634 H 0.76151 0.43911 0.31061 0.0
H635 H 0.80669 0.14824 0.26712 0.0
Co636 Co 0.02519 0.51387 0.50548 0.0
C637 C 0.08964 0.49908 0.52577 0.0
Co638 Co 0.04032 0.54556 0.54439 0.0
C639 C 0.99663 0.50213 0.4461 0.0
C640 C 0.018 0.45777 0.46412 0.0
N641 N 0.01222 0.48928 0.47156 0.0
N642 N 0.99292 0.48041 0.4225 0.0
C643 C 0.00609 0.4522 0.43378 0.0
H644 H 0.98898 0.52747 0.44474 0.0
H645 H 0.03112 0.44043 0.47915 0.0
C646 C 0.97573 0.56017 0.52345 0.0
N647 N 0.05347 0.5706 0.57783 0.0
C648 C 0.067 0.55902 0.60497 0.0
C649 C 0.05197 0.60327 0.58129 0.0
N650 N 0.07392 0.583 0.62556 0.0
C651 C 0.0645 0.61101 0.61079 0.0
C652 C 0.05737 0.57081 0.48532 0.0
O653 O 0.98304 0.53659 0.50493 0.0
O654 O 0.99738 0.56876 0.54365 0.0
O655 O 0.05887 0.57607 0.51522 0.0
O656 O 0.04373 0.54487 0.47592 0.0
O657 O 0.0832 0.52248 0.54495 0.0
H658 H 0.04215 0.62023 0.56368 0.0
H659 H 0.07072 0.53324 0.60987 0.0
O660 O 0.06731 0.4911 0.5061 0.0
O661 O 0.00663 0.48319 0.53464 0.0
O662 O 0.02167 0.51471 0.57389 0.0
C663 C 0.00797 0.48873 0.56456 0.0
H664 H 0.00841 0.42964 0.42058 0.0
H665 H 0.06629 0.63528 0.62061 0.0
Co666 Co 0.81864 0.8028 0.27863 0.0
C667 C 0.79456 0.81173 0.21489 0.0
Co668 Co 0.76899 0.78205 0.27149 0.0
C669 C 0.88862 0.80495 0.28742 0.0
C670 C 0.87049 0.8517 0.27229 0.0
N671 N 0.86032 0.82136 0.28125 0.0
N672 N 0.9161 0.82331 0.28195 0.0
C673 C 0.905 0.8531 0.27314 0.0
H674 H 0.88912 0.77975 0.29569 0.0
H675 H 0.85402 0.87115 0.26454 0.0
C676 C 0.79346 0.77306 0.33542 0.0
N677 N 0.72766 0.76318 0.26775 0.0
C678 C 0.70333 0.77167 0.24744 0.0
C679 C 0.71662 0.73566 0.28277 0.0
N680 N 0.67774 0.75029 0.24882 0.0
C681 C 0.6859 0.72768 0.27119 0.0
C682 C 0.82077 0.73837 0.25921 0.0
O683 O 0.81921 0.78809 0.32392 0.0
O684 O 0.76906 0.76869 0.3168 0.0
O685 O 0.78918 0.74162 0.25967 0.0
O686 O 0.83867 0.7626 0.26617 0.0
O687 O 0.76924 0.79602 0.22614 0.0
H688 H 0.73056 0.72158 0.30014 0.0
H689 H 0.70515 0.79221 0.23078 0.0
O690 O 0.81847 0.81698 0.23375 0.0
O691 O 0.79815 0.84281 0.29126 0.0
O692 O 0.7486 0.82212 0.28312 0.0
C693 C 0.76649 0.8461 0.29115 0.0
H694 H 0.92066 0.87398 0.26719 0.0
H695 H 0.67114 0.70647 0.27816 0.0
Co696 Co 0.79171 0.28824 0.82075 0.0
C697 C 0.79244 0.22589 0.79765 0.0
Co698 Co 0.76262 0.2832 0.77719 0.0
C699 C 0.80777 0.3113 0.88216 0.0
C700 C 0.84831 0.28337 0.86175 0.0
N701 N 0.81673 0.2934 0.85644 0.0
N702 N 0.83257 0.31338 0.90331 0.0
C703 C 0.85815 0.29563 0.89068 0.0
H704 H 0.7834 0.32269 0.88506 0.0
H705 H 0.86343 0.26884 0.84527 0.0
C706 C 0.7627 0.34587 0.80006 0.0
N707 N 0.73823 0.27796 0.74092 0.0
C708 C 0.74956 0.26321 0.71398 0.0
C709 C 0.70665 0.28734 0.73473 0.0
N710 N 0.72654 0.26299 0.69095 0.0
C711 C 0.69938 0.27819 0.70388 0.0
C712 C 0.72511 0.27452 0.83399 0.0
O713 O 0.78166 0.33321 0.82079 0.0
O714 O 0.75118 0.32807 0.77815 0.0
O715 O 0.72413 0.27357 0.80344 0.0
O716 O 0.7528 0.2802 0.84709 0.0
O717 O 0.77435 0.23849 0.77614 0.0
H718 H 0.69017 0.30015 0.75144 0.0
H719 H 0.77471 0.25354 0.71115 0.0
O720 O 0.80196 0.24332 0.82068 0.0
O721 O 0.83026 0.29652 0.79468 0.0
O722 O 0.80127 0.29284 0.75101 0.0
C723 C 0.82907 0.29728 0.76421 0.0
H724 H 0.88246 0.2923 0.90114 0.0
H725 H 0.67597 0.28248 0.69199 0.0
Co726 Co 0.78557 0.76036 0.78711 0.0
C727 C 0.84918 0.78764 0.79289 0.0
Co728 Co 0.7872 0.81088 0.77003 0.0
C729 C 0.75846 0.70331 0.8186 0.0
C730 C 0.80852 0.6953 0.80076 0.0
N731 N 0.78403 0.718 0.80243 0.0
N732 N 0.76574 0.67212 0.82704 0.0
C733 C 0.79743 0.66715 0.8159 0.0
H734 H 0.73459 0.71518 0.82311 0.0
H735 H 0.83278 0.69881 0.78898 0.0
C736 C 0.72358 0.78414 0.76483 0.0
N737 N 0.7885 0.85312 0.75564 0.0
C738 C 0.80429 0.87725 0.77045 0.0
C739 C 0.77225 0.86771 0.7313 0.0
N740 N 0.7986 0.90663 0.75667 0.0
C741 C 0.77851 0.90075 0.73181 0.0
C742 C 0.79689 0.76517 0.71975 0.0
O743 O 0.73759 0.75962 0.77831 0.0
O744 O 0.74074 0.80985 0.76028 0.0
O745 O 0.79691 0.79555 0.72641 0.0
O746 O 0.79403 0.74473 0.74319 0.0
O747 O 0.83475 0.81239 0.78037 0.0
H748 H 0.75657 0.85522 0.7146 0.0
H749 H 0.82006 0.87298 0.79083 0.0
O750 O 0.83269 0.76126 0.79568 0.0
O751 O 0.77742 0.77605 0.83117 0.0
O752 O 0.77708 0.82639 0.81332 0.0
C753 C 0.77577 0.80654 0.83716 0.0
H754 H 0.81157 0.64466 0.81773 0.0
H755 H 0.76904 0.91884 0.7151 0.0
Co756 Co 0.5323 0.54902 0.50194 0.0
C757 C 0.52822 0.591 0.55445 0.0
Co758 Co 0.54731 0.52488 0.54597 0.0
C759 C 0.50321 0.55544 0.44095 0.0
C760 C 0.52809 0.59947 0.45367 0.0
N761 N 0.52096 0.56891 0.46427 0.0
N762 N 0.49909 0.57621 0.41599 0.0
C763 C 0.51457 0.60407 0.42382 0.0
H764 H 0.49359 0.53075 0.44225 0.0
H765 H 0.54258 0.61704 0.46659 0.0
C766 C 0.55118 0.48201 0.49486 0.0
N767 N 0.55833 0.50513 0.58355 0.0
C768 C 0.57365 0.51979 0.60769 0.0
C769 C 0.55126 0.47463 0.59443 0.0
N770 N 0.57594 0.5 0.63352 0.0
C771 C 0.56223 0.47137 0.62542 0.0
C772 C 0.47892 0.51527 0.53246 0.0
O773 O 0.54143 0.50725 0.47918 0.0
O774 O 0.55779 0.48549 0.52429 0.0
O775 O 0.50198 0.5091 0.5522 0.0
O776 O 0.48587 0.53445 0.50878 0.0
O777 O 0.53663 0.56458 0.56857 0.0
H778 H 0.53781 0.45652 0.58122 0.0
H779 H 0.58205 0.54492 0.60674 0.0
O780 O 0.52319 0.58999 0.52437 0.0
O781 O 0.57841 0.56392 0.49519 0.0
O782 O 0.59304 0.5405 0.54018 0.0
C783 C 0.6007 0.55888 0.51613 0.0
H784 H 0.51698 0.62568 0.40859 0.0
H785 H 0.5587 0.4504 0.64135 0.0
Co786 Co 0.00974 0.53735 0.03311 0.0
C787 C 0.03361 0.59664 0.00556 0.0
Co788 Co 0.06451 0.53831 0.02862 0.0
C789 C 0.94834 0.52906 0.06816 0.0
C790 C 0.94013 0.54969 0.02142 0.0
N791 N 0.96434 0.53879 0.04076 0.0
N792 N 0.91478 0.53264 0.06676 0.0
C793 C 0.90963 0.54581 0.03724 0.0
H794 H 0.96139 0.51865 0.08834 0.0
H795 H 0.94433 0.55897 -0.0029 0.0
C796 C 0.04033 0.47912 0.05659 0.0
N797 N 0.11002 0.53714 0.02111 0.0
C798 C 0.12673 0.54961 -0.00483 0.0
C799 C 0.13377 0.52475 0.04014 0.0
N800 N 0.16028 0.5464 -0.00263 0.0
C801 C 0.16465 0.53047 0.02572 0.0
C802 C 0.04354 0.56345 0.08501 0.0
O803 O 0.01204 0.49319 0.05298 0.0
O804 O 0.06655 0.49473 0.04748 0.0
O805 O 0.0705 0.55662 0.06969 0.0
O806 O 0.01565 0.55644 0.07313 0.0
O807 O 0.06204 0.58287 0.00936 0.0
H808 H 0.12901 0.51345 0.06354 0.0
H809 H 0.11422 0.5619 0.97566 0.0
O810 O 0.00752 0.58054 0.01395 0.0
O811 O 1.00381 0.51841 0.99238 0.0
O812 O 0.05869 0.51958 0.98823 0.0
C813 C 0.03073 0.51191 0.97679 0.0
H814 H 0.88555 0.55048 0.0268 0.0
H815 H 0.1884 0.5252 0.03658 0.0
C816 C 0.02959 0.16797 0.11886 0.0
C817 C 0.04186 0.19315 0.09813 0.0
H818 H 0.01677 0.11682 0.12435 0.0
C819 C 0.04824 0.18533 0.06559 0.0
H820 H 0.0247 0.17284 0.14415 0.0
C821 C 0.043 0.15363 0.05415 0.0
C822 C 0.03195 0.128 0.0749 0.0
H823 H 0.05774 0.20382 0.04881 0.0
H824 H 0.04882 0.149 0.02897 0.0
C825 C 0.02514 0.13574 0.10751 0.0
C826 C 0.17364 0.78414 0.37923 0.0
C827 C 0.14585 0.79847 0.3645 0.0
H828 H 0.22459 0.76819 0.37336 0.0
C829 C 0.14852 0.80852 0.33206 0.0
H830 H 0.17209 0.7761 0.40421 0.0
C831 C 0.17804 0.80304 0.31423 0.0
C832 C 0.20559 0.78806 0.32873 0.0
H833 H 0.12736 0.81931 0.32003 0.0
H834 H 0.1793 0.81062 0.2891 0.0
C835 C 0.20347 0.77935 0.36156 0.0
C836 C 0.5522 0.89408 0.58991 0.0
C837 C 0.52091 0.87944 0.59734 0.0
H838 H 0.57876 0.93591 0.56996 0.0
C839 C 0.49195 0.89724 0.58897 0.0
H840 H 0.57511 0.88148 0.59597 0.0
C841 C 0.494 0.92834 0.57411 0.0
C842 C 0.52511 0.94323 0.56695 0.0
H843 H 0.46728 0.88722 0.5941 0.0
H844 H 0.4709 0.94085 0.56844 0.0
C845 C 0.55426 0.92547 0.57501 0.0
C846 C 0.46876 0.28666 0.8583 0.0
C847 C 0.47425 0.30877 0.88301 0.0
H848 H 0.44083 0.27658 0.81629 0.0
C849 C 0.45996 0.34007 0.88177 0.0
H850 H 0.47931 0.26223 0.85927 0.0
C851 C 0.43834 0.34838 0.85708 0.0
C852 C 0.43031 0.32512 0.83399 0.0
H853 H 0.46365 0.35716 0.90105 0.0
H854 H 0.4256 0.37178 0.85773 0.0
C855 C 0.44678 0.29476 0.83394 0.0
C856 C 0.03034 0.84266 0.48794 0.0
C857 C 0.00429 0.82185 0.47934 0.0
H858 H 0.04373 0.88928 0.50595 0.0
C859 C 0.97094 0.8311 0.48641 0.0
H860 H 0.05631 0.83605 0.48327 0.0
C861 C 0.96375 0.86187 0.49909 0.0
C862 C 0.98978 0.88377 0.50492 0.0
H863 H 0.9503 0.81553 0.48017 0.0
H864 H 0.93783 0.86926 0.50234 0.0
C865 C 0.02314 0.87329 0.50064 0.0
C866 C 0.42462 0.81214 0.71113 0.0
C867 C 0.43858 0.7808 0.70703 0.0
H868 H 0.38184 0.84011 0.72803 0.0
C869 C 0.41839 0.75343 0.71415 0.0
H870 H 0.43958 0.83368 0.70588 0.0
C871 C 0.38567 0.75697 0.72622 0.0
C872 C 0.37199 0.78807 0.73213 0.0
H873 H 0.42818 0.72891 0.7109 0.0
H874 H 0.37149 0.73503 0.73197 0.0
C875 C 0.39163 0.81576 0.72389 0.0
C876 C 0.56679 0.16347 0.98171 0.0
C877 C 0.5374 0.17294 0.96635 0.0
H878 H 0.59359 0.12389 0.00351 0.0
C879 C 0.5157 0.14907 0.9551 0.0
H880 H 0.58389 0.18162 0.99044 0.0
C881 C 0.52196 0.11611 0.96139 0.0
C882 C 0.54936 0.10689 0.97993 0.0
H883 H 0.49309 0.15598 0.94285 0.0
H884 H 0.50357 0.09825 0.95456 0.0
C885 C 0.57248 0.13058 0.98894 0.0
C886 C 0.15532 0.25444 0.21834 0.0
C887 C 0.13428 0.28167 0.21347 0.0
H888 H 0.19837 0.23467 0.24186 0.0
C889 C 0.13999 0.30993 0.23141 0.0
H890 H 0.1519 0.23247 0.20456 0.0
C891 C 0.16729 0.31155 0.25217 0.0
C892 C 0.18898 0.2846 0.25633 0.0
H893 H 0.12467 0.33151 0.2278 0.0
H894 H 0.17223 0.33437 0.26404 0.0
C895 C 0.1819 0.25567 0.23988 0.0
C896 C 0.13662 0.97228 0.18121 0.0
C897 C 0.12173 0.96774 0.21181 0.0
H898 H 0.12802 0.97611 0.13079 0.0
C899 C 0.08949 0.9545 0.21506 0.0
H900 H 0.16152 0.98259 0.17846 0.0
C901 C 0.07003 0.95159 0.18796 0.0
C902 C 0.08301 0.96197 0.15781 0.0
H903 H 0.0777 0.95111 0.23872 0.0
H904 H 0.04376 0.94557 0.19124 0.0
C905 C 0.11729 0.96914 0.15413 0.0
C906 C 0.34 0.82396 0.47591 0.0
C907 C 0.30708 0.83491 0.48263 0.0
H908 H 0.37404 0.80242 0.44135 0.0
C909 C 0.28263 0.83108 0.45946 0.0
H910 H 0.35943 0.82651 0.49338 0.0
C911 C 0.29102 0.81703 0.42997 0.0
C912 C 0.3241 0.8068 0.42289 0.0
H913 H 0.257 0.83886 0.46408 0.0
H914 H 0.27145 0.81407 0.41276 0.0
C915 C 0.34842 0.81 0.44627 0.0
C916 C 0.48674 0.09319 0.65341 0.0
C917 C 0.50227 0.0727 0.67591 0.0
H918 H 0.4834 0.10559 0.60343 0.0
C919 C 0.53328 0.05817 0.66784 0.0
H920 H 0.46308 0.10508 0.65922 0.0
C921 C 0.54517 0.05889 0.63595 0.0
C922 C 0.52575 0.07382 0.61232 0.0
H923 H 0.54601 0.0428 0.68513 0.0
H924 H 0.5667 0.04398 0.6293 0.0
C925 C 0.49827 0.09339 0.62147 0.0
C926 C 0.30715 0.23575 0.93364 0.0
C927 C 0.27545 0.22943 0.94832 0.0
H928 H 0.33475 0.25439 0.89171 0.0
C929 C 0.24698 0.23698 0.93021 0.0
H930 H 0.32968 0.23047 0.94668 0.0
C931 C 0.24986 0.24996 0.89869 0.0
C932 C 0.28133 0.25686 0.88406 0.0
H933 H 0.2221 0.23248 0.94035 0.0
H934 H 0.22715 0.25494 0.8858 0.0
C935 C 0.31003 0.24971 0.90213 0.0
C936 C 0.07431 0.99629 0.3806 0.0
C937 C 0.07996 0.02481 0.36208 0.0
H938 H 0.05253 0.97581 0.42403 0.0
C939 C 0.06427 0.05415 0.37117 0.0
H940 H 0.08581 0.9733 0.37373 0.0
C941 C 0.04563 0.05562 0.39992 0.0
C942 C 0.04181 0.02761 0.41946 0.0
H943 H 0.0681 0.07642 0.35715 0.0
H944 H 0.03571 0.07899 0.40774 0.0
C945 C 0.05495 0.99761 0.40903 0.0
C946 C 0.21718 0.84151 0.66268 0.0
C947 C 0.23124 0.82227 0.63811 0.0
H948 H 0.2118 0.84739 0.71366 0.0
C949 C 0.24014 0.78969 0.64482 0.0
H950 H 0.21004 0.86666 0.65794 0.0
C951 C 0.24093 0.77853 0.67666 0.0
C952 C 0.23329 0.80018 0.7017 0.0
H953 H 0.25077 0.77442 0.62598 0.0
H954 H 0.25198 0.75481 0.68159 0.0
C955 C 0.2185 0.83056 0.69457 0.0
C956 C 0.46175 0.97408 0.84116 0.0
C957 C 0.45904 0.00685 0.83095 0.0
H958 H 0.47436 0.94101 0.87924 0.0
C959 C 0.46663 0.03185 0.85221 0.0
H960 H 0.45574 0.95429 0.82526 0.0
C961 C 0.47776 0.02423 0.88284 0.0
C962 C 0.48108 0.99143 0.89301 0.0
H963 H 0.46495 0.05731 0.84488 0.0
H964 H 0.48468 0.04421 0.89803 0.0
C965 C 0.47255 0.96644 0.87198 0.0
C966 C 0.27527 0.26631 0.13728 0.0
C967 C 0.28423 0.23383 0.12969 0.0
H968 H 0.27263 0.30402 0.17289 0.0
C969 C 0.2995 0.21491 0.15388 0.0
H970 H 0.26345 0.28174 0.11946 0.0
C971 C 0.30414 0.22759 0.18499 0.0
C972 C 0.29458 0.25992 0.19269 0.0
H973 H 0.30653 0.18979 0.14922 0.0
H974 H 0.31464 0.21178 0.20328 0.0
C975 C 0.28073 0.27923 0.16802 0.0
C976 C 0.18461 0.09516 0.01473 0.0
C977 C 0.19291 0.10879 0.04439 0.0
H978 H 0.14981 0.06616 0.98877 0.0
C979 C 0.17342 0.09975 0.07192 0.0
H980 H 0.1985 0.10218 0.99293 0.0
C981 C 0.14589 0.0784 0.06973 0.0
C982 C 0.1363 0.06631 0.03972 0.0
H983 H 0.1786 0.11036 0.09501 0.0
H984 H 0.13069 0.07327 0.09123 0.0
C985 C 0.15655 0.07453 0.01237 0.0
C986 C 0.664 0.45483 0.05704 0.0
C987 C 0.6938 0.47006 0.04632 0.0
H988 H 0.61083 0.45753 0.06169 0.0
C989 C 0.69202 0.50109 0.03136 0.0
H990 H 0.66438 0.43098 0.0687 0.0
C991 C 0.66097 0.51652 0.02726 0.0
C992 C 0.63124 0.5012 0.03818 0.0
H993 H 0.71457 0.51348 0.02285 0.0
H994 H 0.66026 0.54035 0.0156 0.0
C995 C 0.63319 0.47019 0.05307 0.0
C996 C 0.83611 0.45955 0.20566 0.0
C997 C 0.84256 0.48869 0.22168 0.0
H998 H 0.81082 0.41391 0.20717 0.0
C999 C 0.82155 0.49749 0.24794 0.0
H1000 H 0.85124 0.45241 0.18491 0.0
C1001 C 0.79943 0.47466 0.26184 0.0
C1002 C 0.79755 0.44303 0.24918 0.0
H1003 H 0.8252 0.52024 0.26041 0.0
H1004 H 0.78668 0.48092 0.28424 0.0
C1005 C 0.81333 0.4371 0.21901 0.0
C1006 C 0.89982 0.61652 0.53925 0.0
C1007 C 0.87919 0.6092 0.51327 0.0
H1008 H 0.9464 0.60726 0.56287 0.0
C1009 C 0.89074 0.58564 0.49114 0.0
H1010 H 0.89193 0.63458 0.55676 0.0
C1011 C 0.92172 0.56991 0.49476 0.0
C1012 C 0.94255 0.57728 0.52051 0.0
H1013 H 0.87579 0.57922 0.47082 0.0
H1014 H 0.92945 0.55201 0.47703 0.0
C1015 C 0.93116 0.60089 0.54273 0.0
C1016 C 0.23462 0.10833 0.26322 0.0
C1017 C 0.22584 0.08632 0.28808 0.0
H1018 H 0.26075 0.15191 0.24994 0.0
C1019 C 0.24048 0.08893 0.31825 0.0
H1020 H 0.22401 0.10624 0.23959 0.0
C1021 C 0.2606 0.11573 0.3246 0.0
C1022 C 0.26655 0.13975 0.30063 0.0
H1023 H 0.234 0.07198 0.33771 0.0
H1024 H 0.26911 0.11889 0.34887 0.0
C1025 C 0.25533 0.13457 0.2693 0.0
C1026 C 0.31835 0.98563 0.55651 0.0
C1027 C 0.32592 0.96307 0.58107 0.0
H1028 H 0.33619 0.02414 0.52582 0.0
C1029 C 0.35473 0.9678 0.59899 0.0
H1030 H 0.29597 0.98305 0.54262 0.0
C1031 C 0.37781 0.99185 0.58958 0.0
C1032 C 0.37277 0.01109 0.56171 0.0
H1033 H 0.36074 0.95135 0.6187 0.0
H1034 H 0.40062 0.99363 0.60286 0.0
C1035 C 0.34164 0.00932 0.54678 0.0
C1036 C 0.88316 0.66852 0.25784 0.0
C1037 C 0.86539 0.64431 0.24192 0.0
H1038 H 0.8832 0.71757 0.27517 0.0
C1039 C 0.83315 0.65152 0.23104 0.0
H1040 H 0.90813 0.66369 0.26632 0.0
C1041 C 0.81867 0.68215 0.23651 0.0
C1042 C 0.83645 0.70639 0.25236 0.0
H1043 H 0.81884 0.63329 0.21875 0.0
H1044 H 0.79358 0.68687 0.22829 0.0
C1045 C 0.86896 0.6994 0.26271 0.0
C1046 C 0.74779 0.42916 0.83584 0.0
C1047 C 0.72149 0.44072 0.81708 0.0
H1048 H 0.78174 0.38979 0.84503 0.0
C1049 C 0.71166 0.42258 0.79044 0.0
H1050 H 0.75596 0.44275 0.85639 0.0
C1051 C 0.72646 0.3925 0.78378 0.0
C1052 C 0.75126 0.37988 0.80374 0.0
H1053 H 0.69177 0.43116 0.77521 0.0
H1054 H 0.71742 0.37856 0.76382 0.0
C1055 C 0.76251 0.39887 0.82929 0.0
C1056 C 0.02492 0.89191 -0.00021 0.0
C1057 C 0.03107 0.88379 0.96728 0.0
H1058 H 0.02585 0.92828 0.03638 0.0
C1059 C 0.0445 0.90847 0.94657 0.0
H1060 H 0.01462 0.87384 0.01658 0.0
C1061 C 0.0503 0.94051 0.9579 0.0
C1062 C 0.04383 0.94853 0.9905 0.0
H1063 H 0.04935 0.90338 0.92133 0.0
H1064 H 0.05953 0.95905 0.94106 0.0
C1065 C 0.03156 0.92339 0.01122 0.0
C1066 C 0.89312 0.29142 0.69561 0.0
C1067 C 0.92142 0.30491 0.70966 0.0
H1068 H 0.84116 0.27905 0.70179 0.0
C1069 C 0.91866 0.31691 0.74117 0.0
H1070 H 0.89456 0.28217 0.67128 0.0
C1071 C 0.88842 0.3149 0.75861 0.0
C1072 C 0.86015 0.30132 0.74471 0.0
H1073 H 0.94005 0.32743 0.75266 0.0
H1074 H 0.88725 0.32385 0.78307 0.0
C1075 C 0.86258 0.2899 0.71294 0.0
C1076 C 0.54985 0.17796 0.4612 0.0
C1077 C 0.51976 0.19592 0.46531 0.0
H1078 H 0.57597 0.13226 0.46917 0.0
C1079 C 0.49244 0.17989 0.48078 0.0
H1080 H 0.57149 0.18927 0.44942 0.0
C1081 C 0.49479 0.14724 0.49141 0.0
C1082 C 0.52476 0.12922 0.48765 0.0
H1083 H 0.46874 0.19248 0.48435 0.0
H1084 H 0.47289 0.13616 0.50298 0.0
C1085 C 0.55244 0.14519 0.47256 0.0
C1086 C 0.60887 0.71894 0.19867 0.0
C1087 C 0.59645 0.748 0.18503 0.0
H1088 H 0.64458 0.69689 0.22952 0.0
C1089 C 0.61099 0.77793 0.19298 0.0
H1090 H 0.59823 0.69546 0.19303 0.0
C1091 C 0.63741 0.77873 0.21421 0.0
C1092 C 0.64976 0.74964 0.22787 0.0
H1093 H 0.60181 0.80077 0.18302 0.0
H1094 H 0.64796 0.80213 0.22018 0.0
C1095 C 0.63522 0.71976 0.21987 0.0
C1096 C 0.01837 0.22189 0.56315 0.0
C1097 C 0.04577 0.24196 0.5693 0.0
H1098 H 1.00134 0.17833 0.54136 0.0
C1099 C 0.07729 0.23444 0.55522 0.0
H1100 H 0.99367 0.22733 0.57321 0.0
C1101 C 0.08184 0.20601 0.53741 0.0
C1102 C 0.05491 0.18473 0.53321 0.0
H1103 H 0.09892 0.24954 0.5594 0.0
H1104 H 0.10678 0.19986 0.52854 0.0
C1105 C 0.02286 0.19367 0.5451 0.0
C1106 C 0.6625 0.31429 0.37873 0.0
C1107 C 0.63766 0.29147 0.37163 0.0
H1108 H 0.71209 0.33197 0.36847 0.0
C1109 C 0.64512 0.26742 0.34854 0.0
H1110 H 0.65761 0.3331 0.39638 0.0
C1111 C 0.67696 0.26619 0.3331 0.0
C1112 C 0.70145 0.28959 0.33982 0.0
H1113 H 0.62655 0.24935 0.34279 0.0
H1114 H 0.68214 0.24751 0.31538 0.0
C1115 C 0.69376 0.31364 0.36273 0.0
C1116 C 0.51957 0.91232 0.1311 0.0
C1117 C 0.51165 0.88423 0.11383 0.0
H1118 H 0.52696 0.96424 0.12913 0.0
C1119 C 0.50139 0.88757 0.08188 0.0
H1120 H 0.52733 0.91038 0.15585 0.0
C1121 C 0.50071 0.91809 0.06686 0.0
C1122 C 0.5106 0.94604 0.08331 0.0
H1123 H 0.49451 0.86643 0.06812 0.0
H1124 H 0.49367 0.91951 0.04185 0.0
C1125 C 0.51921 0.94308 0.11586 0.0
C1126 C 0.92904 0.76454 0.83705 0.0
C1127 C 0.93648 0.79372 0.85286 0.0
H1128 H 0.89568 0.7396 0.80585 0.0
C1129 C 0.91712 0.82164 0.84588 0.0
H1130 H 0.94301 0.74246 0.84233 0.0
C1131 C 0.89058 0.82029 0.82425 0.0
C1132 C 0.88186 0.79068 0.80976 0.0
H1133 H 0.92184 0.84436 0.85802 0.0
H1134 H 0.87551 0.84202 0.82054 0.0
C1135 C 0.90184 0.76293 0.81614 0.0
C1136 C 0.96659 0.09795 0.85953 0.0
C1137 C 0.98809 0.08989 0.83354 0.0
H1138 H 0.96308 0.10616 0.91042 0.0
C1139 C 0.02288 0.09068 0.83681 0.0
H1140 H 0.93963 0.09714 0.85729 0.0
C1141 C 0.03607 0.0967 0.86674 0.0
C1142 C 0.01445 0.10093 0.89349 0.0
H1143 H 0.03965 0.08439 0.81683 0.0
H1144 H 0.06288 0.09495 0.86969 0.0
C1145 C 0.97981 0.10293 0.88968 0.0
C1146 C 0.76373 0.21893 0.61973 0.0
C1147 C 0.74498 0.23208 0.5946 0.0
H1148 H 0.77171 0.21745 0.6703 0.0
C1149 C 0.71896 0.2543 0.60184 0.0
H1150 H 0.78363 0.20144 0.61491 0.0
C1151 C 0.71239 0.26385 0.63348 0.0
C1152 C 0.73154 0.25125 0.65863 0.0
H1153 H 0.70401 0.26491 0.58297 0.0
H1154 H 0.69294 0.28181 0.63801 0.0
C1155 C 0.75693 0.22825 0.65146 0.0
C1156 C 0.53349 0.02754 0.3844 0.0
C1157 C 0.56411 0.01138 0.37817 0.0
H1158 H 0.49522 0.03813 0.41985 0.0
C1159 C 0.5737 0.98558 0.39855 0.0
H1160 H 0.52504 0.04694 0.36851 0.0
C1161 C 0.55644 0.98046 0.42781 0.0
C1162 C 0.52955 1.00099 0.43662 0.0
H1163 H 0.5968 0.97223 0.39398 0.0
H1164 H 0.567 0.96376 0.44534 0.0
C1165 C 0.51604 0.02214 0.41355 0.0
C1166 C 0.77151 0.844 0.13045 0.0
C1167 C 0.80329 0.84818 0.11521 0.0
H1168 H 0.74358 0.8284 0.1733 0.0
C1169 C 0.83165 0.83987 0.13313 0.0
H1170 H 0.74907 0.85002 0.11754 0.0
C1171 C 0.82856 0.82832 0.16515 0.0
C1172 C 0.79694 0.82369 0.18036 0.0
H1173 H 0.85658 0.84281 0.12253 0.0
H1174 H 0.85116 0.82269 0.17797 0.0
C1175 C 0.76836 0.83144 0.16241 0.0
C1176 C 0.98897 0.01468 0.65686 0.0
C1177 C 0.981 0.04496 0.67063 0.0
H1178 H 0.00551 0.98946 0.61464 0.0
C1179 C 0.98611 0.07389 0.65264 0.0
H1180 H 0.98526 0.992 0.67026 0.0
C1181 C 0.99839 0.0724 0.62091 0.0
C1182 C 0.00489 0.04194 0.60688 0.0
H1183 H 0.98037 0.0975 0.66296 0.0
H1184 H 1.0014 0.09484 0.60698 0.0
C1185 C 1.00054 0.01318 0.62512 0.0
C1186 C 0.84141 0.2532 0.4193 0.0
C1187 C 0.81819 0.26891 0.43986 0.0
H1188 H 0.86146 0.25084 0.37108 0.0
C1189 C 0.80662 0.30032 0.43161 0.0
H1190 H 0.8511 0.22918 0.42534 0.0
C1191 C 0.8131 0.31302 0.40073 0.0
C1192 C 0.83054 0.29394 0.37797 0.0
H1193 H 0.78926 0.31321 0.4475 0.0
H1194 H 0.80012 0.33511 0.39345 0.0
C1195 C 0.84744 0.26565 0.38825 0.0
C1196 C 0.61083 0.03658 0.20802 0.0
C1197 C 0.6183 0.06449 0.2256 0.0
H1198 H 0.58986 0.01768 0.16561 0.0
C1199 C 0.61366 0.09555 0.21163 0.0
H1200 H 0.61408 0.01232 0.21829 0.0
C1201 C 0.60018 0.09868 0.18118 0.0
C1202 C 0.59072 0.07083 0.1643 0.0
H1203 H 0.61965 0.11749 0.22456 0.0
H1204 H 0.5966 0.12297 0.17121 0.0
C1205 C 0.59697 0.03971 0.17772 0.0
C1206 C 0.77475 0.86435 0.90991 0.0
C1207 C 0.78962 0.84499 0.93402 0.0
H1208 H 0.75909 0.86783 0.86064 0.0
C1209 C 0.79721 0.81219 0.92647 0.0
H1210 H 0.76875 0.88972 0.91453 0.0
C1211 C 0.79084 0.79936 0.89587 0.0
C1212 C 0.7774 0.81903 0.87124 0.0
H1213 H 0.80868 0.79639 0.94421 0.0
H1214 H 0.79793 0.77427 0.89108 0.0
C1215 C 0.7692 0.85172 0.87889 0.0
C1216 C 0.90658 0.97508 0.99217 0.0
C1217 C 0.88578 0.96727 0.01917 0.0
H1218 H 0.95003 1.00087 0.97362 0.0
C1219 C 0.89255 0.9823 0.04857 0.0
H1220 H 0.90251 0.96346 0.96932 0.0
C1221 C 0.92046 1.00306 0.0513 0.0
C1222 C 0.94188 0.01018 0.0245 0.0
H1223 H 0.87756 0.97629 0.06999 0.0
H1224 H 0.92608 0.01253 0.07479 0.0
C1225 C 0.93383 0.99666 -0.00535 0.0
C1226 C 0.39621 0.60033 0.02994 0.0
C1227 C 0.38938 0.60827 -0.00236 0.0
H1228 H 0.42958 0.57596 0.06237 0.0
C1229 C 0.41013 0.59549 0.97297 0.0
H1230 H 0.38047 0.60968 0.04943 0.0
C1231 C 0.4381 0.57664 0.9804 0.0
C1232 C 0.44542 0.56942 0.01258 0.0
H1233 H 0.40556 0.60111 0.94788 0.0
H1234 H 0.45465 0.56844 0.96095 0.0
C1235 C 0.42393 0.58074 0.03735 0.0
C1236 C 0.23447 0.58768 0.81922 0.0
C1237 C 0.20685 0.59681 0.8389 0.0
H1238 H 0.27725 0.60404 0.79146 0.0
C1239 C 0.20621 0.62814 0.85224 0.0
H1240 H 0.23618 0.56343 0.80915 0.0
C1241 C 0.2295 0.65153 0.84175 0.0
C1242 C 0.25391 0.64389 0.81781 0.0
H1243 H 0.1857 0.63567 0.86815 0.0
H1244 H 0.22597 0.67621 0.85016 0.0
C1245 C 0.25782 0.6111 0.80872 0.0
C1246 C 0.1569 0.43459 0.50877 0.0
C1247 C 0.18427 0.4454 0.52644 0.0
H1248 H 0.1064 0.44275 0.49453 0.0
C1249 C 0.18033 0.4745 0.54395 0.0
H1250 H 0.15877 0.41241 0.49488 0.0
C1251 C 0.1497 0.49195 0.54402 0.0
C1252 C 0.12241 0.48098 0.52623 0.0
H1253 H 0.20071 0.48357 0.55793 0.0
H1254 H 0.14746 0.51409 0.55794 0.0
C1255 C 0.12666 0.45212 0.50852 0.0
C1256 C 0.85514 0.96363 0.79788 0.0
C1257 C 0.86085 0.98687 0.77338 0.0
H1258 H 0.82859 0.92095 0.81285 0.0
C1259 C 0.84092 0.9871 0.74608 0.0
H1260 H 0.86976 0.96362 0.81948 0.0
C1261 C 0.81832 0.96191 0.74152 0.0
C1262 C 0.815 0.93655 0.76453 0.0
H1263 H 0.84484 0.00511 0.72696 0.0
H1264 H 0.80552 0.96117 0.71894 0.0
C1265 C 0.83181 0.93903 0.79379 0.0
C1266 C 0.72961 0.09646 0.48813 0.0
C1267 C 0.71675 0.12543 0.47456 0.0
H1268 H 0.71846 0.04884 0.50732 0.0
C1269 C 0.68402 0.12555 0.46322 0.0
H1270 H 0.75508 0.09526 0.49639 0.0
C1271 C 0.66302 0.09902 0.4697 0.0
C1272 C 0.67441 0.07187 0.48765 0.0
H1273 H 0.67361 0.14723 0.45199 0.0
H1274 H 0.63712 0.10151 0.46322 0.0
C1275 C 0.70857 0.06988 0.49462 0.0
C1276 C 0.23804 0.43188 0.82836 0.0
C1277 C 0.2054 0.43666 0.81729 0.0
H1278 H 0.27946 0.3988 0.83316 0.0
C1279 C 0.18888 0.4104 0.8033 0.0
H1280 H 0.25142 0.45169 0.83924 0.0
C1281 C 0.20467 0.38001 0.80043 0.0
C1282 C 0.23755 0.37537 0.81095 0.0
H1283 H 0.16364 0.41326 0.79474 0.0
H1284 H 0.1913 0.36032 0.78932 0.0
C1285 C 0.2541 0.40162 0.82493 0.0
C1286 C 0.32979 0.63842 0.29243 0.0
C1287 C 0.33892 0.62947 0.26084 0.0
H1288 H 0.30834 0.67555 0.32261 0.0
C1289 C 0.3281 0.64859 0.2348 0.0
H1290 H 0.33785 0.62399 0.3129 0.0
C1291 C 0.3104 0.6775 0.24032 0.0
C1292 C 0.30412 0.6881 0.27198 0.0
H1293 H 0.33462 0.64194 0.21021 0.0
H1294 H 0.30415 0.6928 0.21982 0.0
C1295 C 0.31287 0.66781 0.29799 0.0
C1296 C 0.52855 0.68283 0.57598 0.0
C1297 C 0.5335 0.68126 0.6095 0.0
H1298 H 0.52254 0.65577 0.53207 0.0
C1299 C 0.53547 0.64985 0.62399 0.0
H1300 H 0.5267 0.70633 0.56384 0.0
C1301 C 0.53269 0.62133 0.60617 0.0
C1302 C 0.52789 0.62253 0.57281 0.0
H1303 H 0.5393 0.64695 0.6496 0.0
H1304 H 0.53472 0.59809 0.6188 0.0
C1305 C 0.52581 0.65377 0.55783 0.0
C1306 C 0.66174 0.28225 0.90332 0.0
C1307 C 0.63255 0.27056 0.88936 0.0
H1308 H 0.71424 0.2921 0.89689 0.0
C1309 C 0.63446 0.259 0.85761 0.0
H1310 H 0.66107 0.29115 0.92779 0.0
C1311 C 0.66469 0.25969 0.83993 0.0
C1312 C 0.69385 0.27156 0.85372 0.0
H1313 H 0.61244 0.24981 0.84613 0.0
H1314 H 0.66512 0.25112 0.81533 0.0
C1315 C 0.6922 0.28255 0.88571 0.0
C1316 C 0.07751 0.39548 0.07901 0.0
C1317 C 0.05105 0.37922 0.09575 0.0
H1318 H 0.0951 0.43875 0.0543 0.0
C1319 C 0.02046 0.39643 0.09959 0.0
H1320 H 0.10156 0.38353 0.07551 0.0
C1321 C 0.01658 0.42856 0.0868 0.0
C1322 C 0.04334 0.44474 0.07029 0.0
H1323 H 0.99943 0.38501 0.1123 0.0
H1324 H 0.99268 0.44086 0.09013 0.0
C1325 C 0.07383 0.42752 0.06681 0.0
C1326 C 0.99586 0.81803 0.32384 0.0
C1327 C 0.9995 0.78389 0.32418 0.0
H1328 H 0.96479 0.8581 0.30936 0.0
C1329 C 0.98256 0.76519 0.30194 0.0
H1330 H 0.0088 0.83278 0.34102 0.0
C1331 C 0.95792 0.77972 0.28354 0.0
C1332 C 0.94954 0.81275 0.28806 0.0
H1333 H 0.98525 0.73882 0.30183 0.0
H1334 H 0.94247 0.7643 0.26908 0.0
C1335 C 0.97063 0.83251 0.30585 0.0
C1336 C 0.54975 0.35083 0.04447 0.0
C1337 C 0.52082 0.33215 0.04056 0.0
H1338 H 0.56995 0.39547 0.0615 0.0
C1339 C 0.49086 0.34158 0.0567 0.0
H1340 H 0.57335 0.34387 0.03294 0.0
C1341 C 0.48882 0.37141 0.07264 0.0
C1342 C 0.51676 0.39205 0.0729 0.0
H1343 H 0.46815 0.32749 0.05453 0.0
H1344 H 0.46465 0.37963 0.0819 0.0
C1345 C 0.54778 0.38037 0.06079 0.0
C1346 C 0.93167 0.27632 0.21955 0.0
C1347 C 0.94418 0.30727 0.21021 0.0
H1348 H 0.89167 0.24903 0.24265 0.0
C1349 C 0.92466 0.33501 0.21783 0.0
H1350 H 0.94587 0.25439 0.21406 0.0
C1351 C 0.8936 0.33194 0.23425 0.0
C1352 C 0.88101 0.30103 0.24349 0.0
H1353 H 0.93331 0.35926 0.21105 0.0
H1354 H 0.87939 0.35392 0.23958 0.0
C1355 C 0.90049 0.27324 0.23591 0.0
C1356 C 0.07958 0.65468 0.45654 0.0
C1357 C 0.05597 0.65843 0.43243 0.0
H1358 H 0.0989 0.62262 0.49274 0.0
C1359 C 0.0398 0.63098 0.42052 0.0
H1360 H 0.09237 0.67571 0.46586 0.0
C1361 C 0.0442 0.60058 0.43517 0.0
C1362 C 0.06393 0.59776 0.46253 0.0
H1363 H 0.02178 0.63354 0.4016 0.0
H1364 H 0.02912 0.58034 0.42742 0.0
C1365 C 0.08331 0.62441 0.47183 0.0
C1366 C 0.63711 0.7521 0.74455 0.0
C1367 C 0.6257 0.77521 0.72161 0.0
H1368 H 0.67616 0.73662 0.77591 0.0
C1369 C 0.64648 0.80206 0.71404 0.0
H1370 H 0.62211 0.73093 0.75115 0.0
C1371 C 0.67765 0.8055 0.72887 0.0
C1372 C 0.68915 0.78198 0.75137 0.0
H1373 H 0.63874 0.82035 0.69664 0.0
H1374 H 0.69314 0.8263 0.7221 0.0
C1375 C 0.66829 0.75531 0.75896 0.0
C1376 C 0.58593 0.54994 0.70683 0.0
C1377 C 0.60215 0.52756 0.72695 0.0
H1378 H 0.56465 0.55835 0.66089 0.0
C1379 C 0.61095 0.49643 0.71538 0.0
H1380 H 0.57888 0.57404 0.7152 0.0
C1381 C 0.60261 0.48744 0.6845 0.0
C1382 C 0.58588 0.50958 0.66467 0.0
H1383 H 0.62345 0.47862 0.73046 0.0
H1384 H 0.60905 0.46321 0.67609 0.0
C1385 C 0.57797 0.54103 0.6758 0.0
C1386 C 0.80312 0.36924 0.96893 0.0
C1387 C 0.82336 0.35909 -0.00578 0.0
H1388 H 0.79109 0.36363 0.9197 0.0
C1389 C 0.84869 0.33579 0.98842 0.0
H1390 H 0.78374 0.38753 0.97266 0.0
C1391 C 0.85243 0.32148 0.95829 0.0
C1392 C 0.83115 0.33046 0.93332 0.0
H1393 H 0.86471 0.32749 0.00753 0.0
H1394 H 0.87106 0.30246 0.95508 0.0
C1395 C 0.80718 0.35528 0.93867 0.0
C1396 C 1.00109 0.58899 0.15861 0.0
C1397 C 0.00887 0.56134 0.17731 0.0
H1398 H 0.00852 0.61265 0.11277 0.0
C1399 C 0.03796 0.54324 0.16969 0.0
H1400 H 0.97919 0.60375 0.16432 0.0
C1401 C 0.05534 0.54902 0.14059 0.0
C1402 C 0.04303 0.57229 0.11888 0.0
H1403 H 0.04501 0.52233 0.18435 0.0
H1404 H 0.07455 0.53175 0.13297 0.0
C1405 C 0.0182 0.59442 0.12931 0.0
C1406 C 0.75559 0.74688 0.41756 0.0
C1407 C 0.78339 0.73631 0.43526 0.0
H1408 H 0.73689 0.76587 0.37308 0.0
C1409 C 0.81525 0.73824 0.41968 0.0
H1410 H 0.73058 0.74572 0.42834 0.0
C1411 C 0.81898 0.75092 0.38769 0.0
C1412 C 0.79086 0.76102 0.37005 0.0
H1413 H 0.83729 0.73046 0.43234 0.0
H1414 H 0.84381 0.75221 0.37655 0.0
C1415 C 0.75918 0.75849 0.3856 0.0
C1416 C 0.57396 0.46777 0.90752 0.0
C1417 C 0.55791 0.48773 0.88482 0.0
H1418 H 0.57694 0.45596 0.95768 0.0
C1419 C 0.52541 0.49934 0.89185 0.0
H1420 H 0.59863 0.45766 0.90239 0.0
C1421 C 0.51292 0.49791 0.92344 0.0
C1422 C 0.53295 0.48483 0.94757 0.0
H1423 H 0.51198 0.51379 0.87433 0.0
H1424 H 0.49063 0.51194 0.92972 0.0
C1425 C 0.56139 0.46641 0.93916 0.0
C1426 C 0.72946 0.33521 0.16836 0.0
C1427 C 0.75091 0.32089 0.14524 0.0
H1428 H 0.71507 0.3359 0.21831 0.0
C1429 C 0.76435 0.28967 0.15133 0.0
H1430 H 0.71836 0.35903 0.16402 0.0
C1431 C 0.76226 0.27627 0.18237 0.0
C1432 C 0.74701 0.29436 0.20718 0.0
H1433 H 0.78038 0.27785 0.13344 0.0
H1434 H 0.77691 0.25461 0.18771 0.0
C1435 C 0.72765 0.32199 0.19946 0.0
C1436 C 0.96844 0.52718 0.34859 0.0
C1437 C 0.95797 0.50205 0.32875 0.0
H1438 H 0.98896 0.54006 0.39312 0.0
C1439 C 0.9585 0.46958 0.34028 0.0
H1440 H 0.9687 0.55237 0.34018 0.0
C1441 C 0.96959 0.4624 0.37118 0.0
C1442 C 0.98062 0.48753 0.39092 0.0
H1443 H 0.9504 0.4497 0.32542 0.0
H1444 H 0.96946 0.43724 0.37956 0.0
C1445 C 0.97992 0.52 0.37917 0.0
C1446 C 0.79787 0.71117 0.64391 0.0
C1447 C 0.78485 0.73249 0.62028 0.0
H1448 H 0.81142 0.70423 0.69358 0.0
C1449 C 0.77805 0.76497 0.62948 0.0
H1450 H 0.80323 0.68595 0.63802 0.0
C1451 C 0.78362 0.77569 0.66105 0.0
C1452 C 0.7954 0.75417 0.68508 0.0
H1453 H 0.76802 0.78224 0.61221 0.0
H1454 H 0.77737 0.80073 0.66694 0.0
C1455 C 0.80256 0.7217 0.6759 0.0
C1456 C 0.68793 0.59152 0.53719 0.0
C1457 C 0.68922 0.62134 0.5198 0.0
H1458 H 0.65903 0.54856 0.55015 0.0
C1459 C 0.66256 0.62858 0.49927 0.0
H1460 H 0.70774 0.5852 0.55346 0.0
C1461 C 0.63519 0.60733 0.49669 0.0
C1462 C 0.63285 0.57829 0.51521 0.0
H1463 H 0.66254 0.65127 0.48549 0.0
H1464 H 0.61499 0.61457 0.48121 0.0
C1465 C 0.6599 0.57052 0.53528 0.0
C1466 C 0.14346 0.94081 0.52931 0.0
C1467 C 0.17044 0.95813 0.54167 0.0
H1468 H 0.09288 0.94289 0.5134 0.0
C1469 C 0.16726 0.99206 0.54585 0.0
H1470 H 0.14516 0.91465 0.52589 0.0
C1471 C 0.13759 0.00828 0.53831 0.0
C1472 C 0.11022 0.99085 0.52694 0.0
H1473 H 0.18768 0.00613 0.55516 0.0
H1474 H 0.13583 0.03437 0.54217 0.0
C1475 C 0.11352 0.95697 0.52228 0.0
C1476 C 0.32256 0.99771 0.74215 0.0
C1477 C 0.3478 0.98939 0.71938 0.0
H1478 H 0.28399 0.98004 0.77446 0.0
C1479 C 0.34678 0.9586 0.70498 0.0
H1480 H 0.32191 0.02165 0.75299 0.0
C1481 C 0.32542 0.93456 0.7177 0.0
C1482 C 0.30458 0.94109 0.74486 0.0
H1483 H 0.3652 0.95179 0.68657 0.0
H1484 H 0.32811 0.91021 0.70822 0.0
C1485 C 0.3011 0.97365 0.75485 0.0
C1486 C 0.39846 0.10941 0.05202 0.0
C1487 C 0.37451 0.09901 0.03002 0.0
H1488 H 0.44758 0.10224 0.07126 0.0
C1489 C 0.3827 0.07184 0.01081 0.0
H1490 H 0.39318 0.13016 0.06729 0.0
C1491 C 0.41377 0.05592 0.01307 0.0
C1492 C 0.43788 0.06636 0.03478 0.0
H1493 H 0.36515 0.06292 0.99359 0.0
H1494 H 0.41898 0.03544 -0.00259 0.0
C1495 C 0.42967 0.09327 0.05441 0.0
C1496 C 0.72452 0.59122 0.84137 0.0
C1497 C 0.69149 0.60111 0.84866 0.0
H1498 H 0.77412 0.60587 0.82861 0.0
C1499 C 0.68506 0.63406 0.85549 0.0
H1500 H 0.73046 0.56586 0.83653 0.0
C1501 C 0.71038 0.65722 0.85128 0.0
C1502 C 0.74244 0.64791 0.8396 0.0
H1503 H 0.65998 0.64231 0.862 0.0
H1504 H 0.70409 0.68256 0.85538 0.0
C1505 C 0.74972 0.61438 0.83675 0.0
C1506 C 0.87679 0.47029 0.1222 0.0
C1507 C 0.84385 0.47064 0.1113 0.0
H1508 H 0.92543 0.49036 0.11734 0.0
C1509 C 0.83264 0.49814 0.094 0.0
H1510 H 0.88609 0.4499 0.13631 0.0
C1511 C 0.85561 0.52139 0.08238 0.0
C1512 C 0.88998 0.51737 0.088 0.0
H1513 H 0.80704 0.49976 0.08614 0.0
H1514 H 0.84679 0.54058 0.06656 0.0
C1515 C 0.89964 0.4936 0.11082 0.0
C1516 C 0.37743 0.17011 0.7683 0.0
C1517 C 0.36043 0.14663 0.75066 0.0
H1518 H 0.37598 0.21784 0.78888 0.0
C1519 C 0.32807 0.15369 0.74009 0.0
H1520 H 0.40248 0.16535 0.77661 0.0
C1521 C 0.31274 0.18348 0.74748 0.0
C1522 C 0.32976 0.20701 0.76503 0.0
H1523 H 0.31435 0.13601 0.72651 0.0
H1524 H 0.28761 0.18813 0.73933 0.0
C1525 C 0.36235 0.20018 0.77516 0.0
C1526 C 0.23951 0.92307 0.27855 0.0
C1527 C 0.24645 0.93635 0.30859 0.0
H1528 H 0.24896 0.88468 0.2454 0.0
C1529 C 0.27216 0.923 0.32692 0.0
H1530 H 0.22032 0.93367 0.26364 0.0
C1531 C 0.2886 0.89458 0.31655 0.0
C1532 C 0.27971 0.87977 0.28755 0.0
H1533 H 0.27813 0.93338 0.34992 0.0
H1534 H 0.30669 0.88319 0.33214 0.0
C1535 C 0.25621 0.89525 0.26795 0.0
C1536 C 0.54132 0.38925 0.4931 0.0
C1537 C 0.53789 0.38258 0.46027 0.0
H1538 H 0.54931 0.42483 0.52924 0.0
C1539 C 0.5413 0.40889 0.43802 0.0
H1540 H 0.53866 0.36977 0.51094 0.0
C1541 C 0.54646 0.44122 0.44866 0.0
C1542 C 0.54942 0.44785 0.48174 0.0
H1543 H 0.53834 0.40472 0.41255 0.0
H1544 H 0.54748 0.46104 0.4311 0.0
C1545 C 0.54751 0.42108 0.50357 0.0
C1546 C 0.40692 0.78776 0.17564 0.0
C1547 C 0.42884 0.76215 0.18341 0.0
H1548 H 0.36333 0.81519 0.19018 0.0
C1549 C 0.42514 0.74599 0.21338 0.0
H1550 H 0.40954 0.80072 0.15277 0.0
C1551 C 0.39977 0.75519 0.23523 0.0
C1552 C 0.37721 0.78006 0.22704 0.0
H1553 H 0.44214 0.72651 0.2201 0.0
H1554 H 0.39691 0.74191 0.25793 0.0
C1555 C 0.38086 0.79624 0.19709 0.0
C1556 C 0.99524 0.68044 0.98591 0.0
C1557 C 0.02136 0.69746 0.96947 0.0
H1558 H 0.9784 0.63626 0.00939 0.0
C1559 C 0.05217 0.68075 0.96497 0.0
H1560 H 0.97106 0.69201 0.98987 0.0
C1561 C 0.0566 0.64832 0.97677 0.0
C1562 C 0.03014 0.63134 0.99287 0.0
H1563 H 0.07296 0.69278 0.95245 0.0
H1564 H 0.08063 0.63642 0.97295 0.0
C1565 C 0.99944 0.6481 -0.00291 0.0
C1566 C 0.09467 0.305 0.74445 0.0
C1567 C 0.07948 0.28237 0.72464 0.0
H1568 H 0.13341 0.31322 0.77772 0.0
C1569 C 0.08697 0.24902 0.72787 0.0
H1570 H 0.08913 0.33087 0.7421 0.0
C1571 C 0.11291 0.23897 0.74764 0.0
C1572 C 0.13125 0.26234 0.76414 0.0
H1573 H 0.07563 0.23135 0.71236 0.0
H1574 H 0.12091 0.21367 0.74718 0.0
C1575 C 0.12019 0.29495 0.76443 0.0
C1576 C 0.50863 0.70849 0.01397 0.0
C1577 C 0.53158 0.72153 0.03509 0.0
H1578 H 0.50157 0.67545 0.97538 0.0
C1579 C 0.56605 0.7179 0.02847 0.0
H1580 H 0.48194 0.71114 0.01869 0.0
C1581 C 0.57728 0.69677 0.00423 0.0
C1582 C 0.55398 0.67933 0.98654 0.0
H1583 H 0.58412 0.72786 0.04464 0.0
H1584 H 0.60364 0.69051 0.00274 0.0
C1585 C 0.51993 0.6883 0.98909 0.0
C1586 C 0.1412 0.77287 0.84968 0.0
C1587 C 0.13418 0.79962 0.86976 0.0
H1588 H 0.17699 0.74948 0.81779 0.0
C1589 C 0.15869 0.82395 0.87241 0.0
H1590 H 0.12295 0.7536 0.84731 0.0
C1591 C 0.18927 0.82188 0.85521 0.0
C1592 C 0.19653 0.79503 0.83542 0.0
H1593 H 0.15413 0.8449 0.88763 0.0
H1594 H 0.20739 0.84126 0.85767 0.0
C1595 C 0.17223 0.77041 0.83298 0.0
C1596 C 0.02162 0.43095 0.6326 0.0
C1597 C 0.00632 0.40301 0.6208 0.0
H1598 H 0.03267 0.48132 0.62438 0.0
C1599 C 0.98435 0.40568 0.59518 0.0
H1600 H 0.03857 0.42913 0.6525 0.0
C1601 C 0.98164 0.4353 0.57846 0.0
C1602 C 1.0004 0.46236 0.5878 0.0
H1603 H 0.97244 0.38418 0.58582 0.0
H1604 H 0.96745 0.43618 0.55659 0.0
C1605 C 0.01819 0.46073 0.61649 0.0
C1606 C 0.43149 0.27219 0.33268 0.0
C1607 C 0.438 0.29897 0.35236 0.0
H1608 H 0.39751 0.25025 0.30002 0.0
C1609 C 0.41686 0.32652 0.35043 0.0
H1610 H 0.44698 0.25044 0.33398 0.0
C1611 C 0.38921 0.32689 0.33019 0.0
C1612 C 0.38128 0.29925 0.31218 0.0
H1613 H 0.42104 0.34741 0.36555 0.0
H1614 H 0.37263 0.34792 0.33049 0.0
C1615 C 0.40314 0.27211 0.31324 0.0
C1616 C 0.45721 0.58601 0.33716 0.0
C1617 C 0.46103 0.55442 0.32468 0.0
H1618 H 0.46662 0.61774 0.37648 0.0
C1619 C 0.47536 0.52971 0.34361 0.0
H1620 H 0.44618 0.60553 0.32305 0.0
C1621 C 0.48696 0.53674 0.37397 0.0
C1622 C 0.48456 0.56863 0.38589 0.0
H1623 H 0.47851 0.50511 0.33465 0.0
H1624 H 0.49907 0.51748 0.38751 0.0
C1625 C 0.4691 0.5931 0.36752 0.0
C1626 C 0.28621 0.73009 0.09732 0.0
C1627 C 0.25917 0.72728 0.07678 0.0
H1628 H 0.30357 0.7477 0.14176 0.0
C1629 C 0.22753 0.73929 0.08671 0.0
H1630 H 0.31098 0.72145 0.09018 0.0
C1631 C 0.22313 0.75409 0.11662 0.0
C1632 C 0.25031 0.75723 0.13701 0.0
H1633 H 0.20619 0.73743 0.07131 0.0
H1634 H 0.19847 0.76285 0.12383 0.0
C1635 C 0.28188 0.74509 0.127 0.0
C1636 C 0.02427 0.52174 0.88941 0.0
C1637 C 0.05472 0.50668 0.88013 0.0
H1638 H 0.99145 0.53413 0.92906 0.0
C1639 C 0.0691 0.48357 0.90087 0.0
H1640 H 0.01225 0.53908 0.87346 0.0
C1641 C 0.05723 0.48089 0.93266 0.0
C1642 C 0.03069 0.50088 0.9435 0.0
H1643 H 0.09223 0.47115 0.89413 0.0
H1644 H 0.07156 0.46664 0.94968 0.0
C1645 C 0.01214 0.5187 0.92114 0.0
C1646 C 0.32245 0.33645 0.64715 0.0
C1647 C 0.29431 0.34534 0.62912 0.0
H1648 H 0.3417 0.31956 0.69223 0.0
C1649 C 0.26252 0.3428 0.64472 0.0
H1650 H 0.34739 0.33813 0.63628 0.0
C1651 C 0.25917 0.33101 0.67703 0.0
C1652 C 0.28758 0.32251 0.695 0.0
H1653 H 0.24023 0.34926 0.63178 0.0
H1654 H 0.23436 0.32903 0.68812 0.0
C1655 C 0.31921 0.32578 0.67947 0.0
C1656 C 0.49137 0.60726 0.14003 0.0
C1657 C 0.50551 0.59036 0.16602 0.0
H1658 H 0.49412 0.61503 0.08896 0.0
C1659 C 0.53892 0.57957 0.16328 0.0
H1660 H 0.46591 0.61644 0.14173 0.0
C1661 C 0.55491 0.57869 0.1331 0.0
C1662 C 0.53769 0.58915 0.10596 0.0
H1663 H 0.55079 0.56741 0.18334 0.0
H1664 H 0.57825 0.56525 0.13042 0.0
C1665 C 0.50766 0.60674 0.10984 0.0
C1666 C 0.35033 0.73915 0.89992 0.0
C1667 C 0.33345 0.7552 0.92519 0.0
H1668 H 0.35906 0.73823 0.84889 0.0
C1669 C 0.32327 0.78787 0.9208 0.0
H1670 H 0.35869 0.71408 0.90283 0.0
C1671 C 0.32367 0.80183 0.88995 0.0
C1672 C 0.33398 0.78291 0.86359 0.0
H1673 H 0.31066 0.80086 0.94026 0.0
H1674 H 0.31128 0.82515 0.88634 0.0
C1675 C 0.35037 0.75294 0.86901 0.0
C1676 C 0.11174 0.54438 0.6984 0.0
C1677 C 0.10238 0.56679 0.72229 0.0
H1678 H 0.11099 0.53256 0.64849 0.0
C1679 C 0.08547 0.59564 0.71347 0.0
H1680 H 0.12517 0.52217 0.7044 0.0
C1681 C 0.07708 0.60146 0.68159 0.0
C1682 C 0.08551 0.57863 0.65779 0.0
H1683 H 0.07797 0.61351 0.73132 0.0
H1684 H 0.06297 0.6233 0.67587 0.0
C1685 C 0.10351 0.55032 0.6664 0.0
C1686 C 0.29349 0.31293 0.43455 0.0
C1687 C 0.28662 0.34538 0.44381 0.0
H1688 H 0.29423 0.27725 0.39705 0.0
C1689 C 0.2733 0.36666 0.42032 0.0
H1690 H 0.30374 0.29569 0.45172 0.0
C1691 C 0.26844 0.35614 0.38838 0.0
C1692 C 0.27585 0.32375 0.37908 0.0
H1693 H 0.26789 0.39186 0.42626 0.0
H1694 H 0.25938 0.3736 0.37078 0.0
C1695 C 0.28785 0.30224 0.40301 0.0
C1696 C 0.41586 0.44821 0.55504 0.0
C1697 C 0.38832 0.45531 0.53564 0.0
H1698 H 0.46477 0.4615 0.56994 0.0
C1699 C 0.38965 0.48413 0.51661 0.0
H1700 H 0.41588 0.42629 0.56999 0.0
C1701 C 0.41849 0.50431 0.51598 0.0
C1702 C 0.44634 0.49664 0.53502 0.0
H1703 H 0.36913 0.49023 0.50109 0.0
H1704 H 0.41925 0.52552 0.50008 0.0
C1705 C 0.44405 0.46861 0.55505 0.0
C1706 C 0.90157 0.13129 0.51556 0.0
C1707 C 0.87304 0.11735 0.50251 0.0
H1708 H 0.95329 0.12529 0.52624 0.0
C1709 C 0.87482 0.08516 0.49104 0.0
H1710 H 0.90097 0.15606 0.52445 0.0
C1711 C 0.9047 0.06728 0.49247 0.0
C1712 C 0.93347 0.08161 0.50468 0.0
H1713 H 0.85311 0.07377 0.48095 0.0
H1714 H 0.90546 0.04256 0.48346 0.0
C1715 C 0.93157 0.11372 0.51634 0.0
C1716 C 0.75054 0.08916 0.32656 0.0
C1717 C 0.72269 0.09797 0.34606 0.0
H1718 H 0.79435 0.10563 0.30067 0.0
C1719 C 0.72254 0.1285 0.36101 0.0
H1720 H 0.75188 0.06544 0.31532 0.0
C1721 C 0.74666 0.15176 0.35227 0.0
C1722 C 0.77133 0.14492 0.32827 0.0
H1723 H 0.70192 0.13564 0.37699 0.0
H1724 H 0.74367 0.17585 0.36226 0.0
C1725 C 0.77471 0.11247 0.31777 0.0
C1726 C 0.66248 0.9481 0.99225 0.0
C1727 C 0.688 0.95202 0.01458 0.0
H1728 H 0.61305 0.96066 0.97785 0.0
C1729 C 0.68208 0.97374 0.04023 0.0
H1730 H 0.66593 0.93181 0.97206 0.0
C1731 C 0.65116 0.99046 0.04369 0.0
C1732 C 0.62555 0.98604 0.02144 0.0
H1733 H 0.70105 0.97738 0.05795 0.0
H1734 H 0.64722 0.00656 0.06396 0.0
C1735 C 0.63193 0.96482 -0.00444 0.0
C1736 C 0.37629 0.4452 0.19946 0.0
C1737 C 0.37019 0.47806 0.2069 0.0
H1738 H 0.3578 0.39644 0.20144 0.0
C1739 C 0.33788 0.48757 0.21732 0.0
H1740 H 0.40074 0.43725 0.19063 0.0
C1741 C 0.31349 0.4641 0.22435 0.0
C1742 C 0.32086 0.43068 0.22076 0.0
H1743 H 0.33219 0.51284 0.2228 0.0
H1744 H 0.28992 0.47223 0.23493 0.0
C1745 C 0.35171 0.42174 0.20608 0.0
C1746 C 0.24282 0.58399 0.97613 0.0
C1747 C 0.23209 0.61249 0.96018 0.0
H1748 H 0.22825 0.53948 -0.00029 0.0
C1749 C 0.19957 0.61359 0.94829 0.0
H1750 H 0.26815 0.58183 0.98461 0.0
C1751 C 0.17646 0.58953 0.95742 0.0
C1752 C 0.18558 0.56399 0.97861 0.0
H1753 H 0.19086 0.63473 0.93488 0.0
H1754 H 0.15089 0.59309 0.9503 0.0
C1755 C 0.21972 0.55982 0.98517 0.0
C1756 C 0.75463 0.9329 0.31993 0.0
C1757 C 0.72083 0.93874 0.31317 0.0
H1758 H 0.79567 0.89908 0.31808 0.0
C1759 C 0.70202 0.91365 0.29975 0.0
H1760 H 0.7698 0.95177 0.33023 0.0
C1761 C 0.71674 0.88339 0.29308 0.0
C1762 C 0.75068 0.87771 0.29938 0.0
H1763 H 0.67588 0.91735 0.29437 0.0
H1764 H 0.70162 0.86461 0.28257 0.0
C1765 C 0.76947 0.90274 0.31292 0.0
C1766 C 0.83422 0.15494 0.75643 0.0
C1767 C 0.84779 0.13819 0.78275 0.0
H1768 H 0.80473 0.19557 0.74076 0.0
C1769 C 0.83942 0.14814 0.81424 0.0
H1770 H 0.84007 0.14747 0.73196 0.0
C1771 C 0.81963 0.17582 0.81928 0.0
C1772 C 0.80727 0.19342 0.79294 0.0
H1773 H 0.8495 0.13554 0.83496 0.0
H1774 H 0.81501 0.18412 0.8437 0.0
C1775 C 0.81374 0.18218 0.76151 0.0
loop_
_geom_bond_atom_site_label_1
_geom_bond_atom_site_label_2
_geom_bond_distance
_geom_bond_site_symmetry_2
_ccdc_geom_bond_type
Zn0 O3 2.031 . S
Zn0 O5 2.049 . S
Zn0 O10 2.067 . S
Zn1 O2 1.962 . S
Zn1 O4 1.986 1_455 S
Zn1 O6 1.996 . S
Zn1 O9 1.943 . S
O2 Zn1 1.962 . S
O2 C7 1.254 . S
O3 Zn0 2.031 . S
O3 C7 1.269 . S
O4 Zn1 1.986 1_655 S
O4 C11 1.262 . S
O5 Zn0 2.049 . S
O5 C13 1.260 . S
O6 Zn1 1.996 . S
O6 C13 1.257 . S
C7 O2 1.254 . S
C7 O3 1.269 . S
C8 O9 1.249 . S
C8 O10 1.270 . S
O9 Zn1 1.943 . S
O9 C8 1.249 . S
O10 Zn0 2.067 . S
O10 C8 1.270 . S
C11 O4 1.262 . S
C11 O12 1.232 . S
O12 C11 1.232 . S
C13 O5 1.260 . S
C13 O6 1.257 . S
Zn14 O17 2.031 . S
Zn14 O19 2.049 . S
Zn14 O24 2.067 1_455 S
Zn15 O16 1.962 . S
Zn15 O18 1.986 . S
Zn15 O20 1.996 . S
Zn15 O23 1.943 . S
O16 Zn15 1.962 . S
O16 C21 1.254 . S
O17 Zn14 2.031 . S
O17 C21 1.269 . S
O18 Zn15 1.986 . S
O18 C25 1.262 . S
O19 Zn14 2.049 . S
O19 C27 1.260 . S
O20 Zn15 1.996 . S
O20 C27 1.257 . S
C21 O16 1.254 . S
C21 O17 1.269 . S
C22 O23 1.249 . S
C22 O24 1.270 1_455 S
O23 Zn15 1.943 . S
O23 C22 1.249 . S
O24 Zn14 2.067 1_655 S
O24 C22 1.270 1_655 S
C25 O18 1.262 . S
C25 O26 1.232 . S
O26 C25 1.232 . S
C27 O19 1.260 . S
C27 O20 1.257 . S
Zn28 O31 2.031 . S
Zn28 O33 2.049 . S
Zn28 O38 2.067 . S
Zn29 O30 1.962 . S
Zn29 O32 1.986 . S
Zn29 O34 1.996 . S
Zn29 O37 1.943 . S
O30 Zn29 1.962 . S
O30 C35 1.254 . S
O31 Zn28 2.031 . S
O31 C35 1.269 . S
O32 Zn29 1.986 . S
O32 C39 1.262 . S
O33 Zn28 2.049 . S
O33 C41 1.260 . S
O34 Zn29 1.996 . S
O34 C41 1.257 . S
C35 O30 1.254 . S
C35 O31 1.269 . S
C36 O37 1.249 . S
C36 O38 1.270 . S
O37 Zn29 1.943 . S
O37 C36 1.249 . S
O38 Zn28 2.067 . S
O38 C36 1.270 . S
C39 O32 1.262 . S
C39 O40 1.232 . S
O40 C39 1.232 . S
C41 O33 1.260 . S
C41 O34 1.257 . S
Zn42 O45 2.031 . S
Zn42 O47 2.049 . S
Zn42 O52 2.067 . S
Zn43 O44 1.962 . S
Zn43 O46 1.986 . S
Zn43 O48 1.996 . S
Zn43 O51 1.943 . S
O44 Zn43 1.962 . S
O44 C49 1.254 . S
O45 Zn42 2.031 . S
O45 C49 1.269 . S
O46 Zn43 1.986 . S
O46 C53 1.262 . S
O47 Zn42 2.049 . S
O47 C55 1.260 . S
O48 Zn43 1.996 . S
O48 C55 1.257 . S
C49 O44 1.254 . S
C49 O45 1.269 . S
C50 O51 1.249 . S
C50 O52 1.270 . S
O51 Zn43 1.943 . S
O51 C50 1.249 . S
O52 Zn42 2.067 . S
O52 C50 1.270 . S
C53 O46 1.262 . S
C53 O54 1.232 . S
O54 C53 1.232 . S
C55 O47 1.260 . S
C55 O48 1.257 . S
Zn56 O59 2.031 . S
Zn56 O61 2.049 . S
Zn56 O66 2.067 . S
Zn57 O58 1.962 . S
Zn57 O60 1.986 . S
Zn57 O62 2.002 . S
Zn57 O65 1.943 1_565 S
O58 Zn57 1.962 . S
O58 C63 1.254 1_565 S
O59 Zn56 2.031 . S
O59 C63 1.269 . S
O60 Zn57 1.986 . S
O60 C67 1.262 . S
O61 Zn56 2.049 . S
O61 C69 1.260 . S
O62 Zn57 2.002 . S
O62 C69 1.244 1_565 S
C63 O58 1.254 1_545 S
C63 O59 1.269 . S
C64 O65 1.249 . S
C64 O66 1.270 . S
O65 Zn57 1.943 1_545 S
O65 C64 1.249 . S
O66 Zn56 2.067 . S
O66 C64 1.270 . S
C67 O60 1.262 . S
C67 O68 1.232 . S
O68 C67 1.232 . S
C69 O61 1.260 . S
C69 O62 1.244 1_545 S
Zn70 O73 2.031 . S
Zn70 O75 2.049 . S
Zn70 O80 2.067 . S
Zn71 O72 1.962 . S
Zn71 O74 1.986 . S
Zn71 O76 1.996 . S
Zn71 O79 1.943 . S
O72 Zn71 1.962 . S
O72 C77 1.254 . S
O73 Zn70 2.031 . S
O73 C77 1.269 . S
O74 Zn71 1.986 . S
O74 C81 1.262 . S
O75 Zn70 2.049 . S
O75 C83 1.260 . S
O76 Zn71 1.996 . S
O76 C83 1.257 . S
C77 O72 1.254 . S
C77 O73 1.269 . S
C78 O79 1.249 . S
C78 O80 1.270 . S
O79 Zn71 1.943 . S
O79 C78 1.249 . S
O80 Zn70 2.067 . S
O80 C78 1.270 . S
C81 O74 1.262 . S
C81 O82 1.232 . S
O82 C81 1.232 . S
C83 O75 1.260 . S
C83 O76 1.257 . S
Zn84 O87 2.031 . S
Zn84 O89 2.049 . S
Zn84 O94 2.067 1_545 S
Zn85 O86 1.962 . S
Zn85 O88 1.986 . S
Zn85 O90 1.996 . S
Zn85 O93 1.943 . S
O86 Zn85 1.962 . S
O86 C91 1.254 . S
O87 Zn84 2.031 . S
O87 C91 1.269 . S
O88 Zn85 1.986 . S
O88 C95 1.262 . S
O89 Zn84 2.049 . S
O89 C97 1.260 . S
O90 Zn85 1.996 . S
O90 C97 1.257 . S
C91 O86 1.254 . S
C91 O87 1.269 . S
C92 O93 1.249 . S
C92 O94 1.270 1_545 S
O93 Zn85 1.943 . S
O93 C92 1.249 . S
O94 Zn84 2.067 1_565 S
O94 C92 1.270 1_565 S
C95 O88 1.262 . S
C95 O96 1.232 . S
O96 C95 1.232 . S
C97 O89 1.260 . S
C97 O90 1.257 . S
Zn98 O101 2.031 . S
Zn98 O103 2.049 . S
Zn98 O108 2.067 . S
Zn99 O100 1.958 1_554 S
Zn99 O102 1.986 . S
Zn99 O104 1.996 . S
Zn99 O107 1.943 . S
O100 Zn99 1.958 1_556 S
O100 C105 1.256 . S
O101 Zn98 2.031 . S
O101 C105 1.269 1_554 S
O102 Zn99 1.986 . S
O102 C109 1.262 . S
O103 Zn98 2.049 . S
O103 C111 1.260 . S
O104 Zn99 1.996 . S
O104 C111 1.257 . S
C105 O100 1.256 . S
C105 O101 1.269 1_556 S
C106 O107 1.249 . S
C106 O108 1.270 . S
O107 Zn99 1.943 . S
O107 C106 1.249 . S
O108 Zn98 2.067 . S
O108 C106 1.270 . S
C109 O102 1.262 . S
C109 O110 1.232 . S
O110 C109 1.232 . S
C111 O103 1.260 . S
C111 O104 1.257 . S
Zn112 O115 2.031 . S
Zn112 O117 2.049 . S
Zn112 O122 2.067 . S
Zn113 O114 1.962 . S
Zn113 O116 1.986 . S
Zn113 O118 1.996 . S
Zn113 O121 1.943 . S
O114 Zn113 1.962 . S
O114 C119 1.254 . S
O115 Zn112 2.031 . S
O115 C119 1.269 . S
O116 Zn113 1.986 . S
O116 C123 1.262 . S
O117 Zn112 2.049 . S
O117 C125 1.260 . S
O118 Zn113 1.996 . S
O118 C125 1.257 . S
C119 O114 1.254 . S
C119 O115 1.269 . S
C120 O121 1.249 . S
C120 O122 1.270 . S
O121 Zn113 1.943 . S
O121 C120 1.249 . S
O122 Zn112 2.067 . S
O122 C120 1.270 . S
C123 O116 1.262 . S
C123 O124 1.232 . S
O124 C123 1.232 . S
C125 O117 1.260 . S
C125 O118 1.257 . S
Zn126 O129 2.031 . S
Zn126 O131 2.049 . S
Zn126 O136 2.067 . S
Zn127 O128 1.962 . S
Zn127 O130 1.986 . S
Zn127 O132 1.996 . S
Zn127 O135 1.943 . S
O128 Zn127 1.962 . S
O128 C133 1.254 . S
O129 Zn126 2.031 . S
O129 C133 1.269 . S
O130 Zn127 1.986 . S
O130 C137 1.262 . S
O131 Zn126 2.049 . S
O131 C139 1.260 . S
O132 Zn127 1.996 . S
O132 C139 1.257 . S
C133 O128 1.254 . S
C133 O129 1.269 . S
C134 O135 1.249 . S
C134 O136 1.270 . S
O135 Zn127 1.943 . S
O135 C134 1.249 . S
O136 Zn126 2.067 . S
O136 C134 1.270 . S
C137 O130 1.262 . S
C137 O138 1.232 . S
O138 C137 1.232 . S
C139 O131 1.260 . S
C139 O132 1.257 . S
Zn140 O143 2.031 . S
Zn140 O145 2.049 . S
Zn140 O150 2.067 . S
Zn141 O142 1.962 . S
Zn141 O144 1.986 . S
Zn141 O146 1.996 . S
Zn141 O149 1.943 . S
O142 Zn141 1.962 . S
O142 C147 1.254 . S
O143 Zn140 2.031 . S
O143 C147 1.269 . S
O144 Zn141 1.986 . S
O144 C151 1.262 . S
O145 Zn140 2.049 . S
O145 C153 1.260 . S
O146 Zn141 1.996 . S
O146 C153 1.257 . S
C147 O142 1.254 . S
C147 O143 1.269 . S
C148 O149 1.249 . S
C148 O150 1.270 . S
O149 Zn141 1.943 . S
O149 C148 1.249 . S
O150 Zn140 2.067 . S
O150 C148 1.270 . S
C151 O144 1.262 . S
C151 O152 1.232 . S
O152 C151 1.232 . S
C153 O145 1.260 . S
C153 O146 1.257 . S
Zn154 O157 2.031 . S
Zn154 O159 2.049 . S
Zn154 O164 2.067 . S
Zn155 O156 1.962 . S
Zn155 O158 1.986 . S
Zn155 O160 1.996 . S
Zn155 O163 1.943 . S
O156 Zn155 1.962 . S
O156 C161 1.254 . S
O157 Zn154 2.031 . S
O157 C161 1.269 . S
O158 Zn155 1.986 . S
O158 C165 1.262 . S
O159 Zn154 2.049 . S
O159 C167 1.260 . S
O160 Zn155 1.996 . S
O160 C167 1.257 . S
C161 O156 1.254 . S
C161 O157 1.269 . S
C162 O163 1.249 . S
C162 O164 1.270 . S
O163 Zn155 1.943 . S
O163 C162 1.249 . S
O164 Zn154 2.067 . S
O164 C162 1.270 . S
C165 O158 1.262 . S
C165 O166 1.232 . S
O166 C165 1.232 . S
C167 O159 1.260 . S
C167 O160 1.257 . S
Zn168 O171 2.031 . S
Zn168 O173 2.049 . S
Zn168 O178 2.067 . S
Zn169 O170 1.962 . S
Zn169 O172 1.986 . S
Zn169 O174 1.996 . S
Zn169 O177 1.943 . S
O170 Zn169 1.962 . S
O170 C175 1.254 . S
O171 Zn168 2.031 . S
O171 C175 1.269 1_655 S
O172 Zn169 1.986 . S
O172 C179 1.262 . S
O173 Zn168 2.049 . S
O173 C181 1.260 1_655 S
O174 Zn169 1.996 . S
O174 C181 1.257 . S
C175 O170 1.254 . S
C175 O171 1.269 1_455 S
C176 O177 1.249 1_655 S
C176 O178 1.270 . S
O177 Zn169 1.943 . S
O177 C176 1.249 1_455 S
O178 Zn168 2.067 . S
O178 C176 1.270 . S
C179 O172 1.262 . S
C179 O180 1.232 . S
O180 C179 1.232 . S
C181 O173 1.260 1_455 S
C181 O174 1.257 . S
Zn182 O185 2.031 . S
Zn182 O187 2.049 . S
Zn182 O192 2.067 . S
Zn183 O184 1.962 . S
Zn183 O186 1.986 . S
Zn183 O188 1.996 . S
Zn183 O191 1.943 1_655 S
O184 Zn183 1.962 . S
O184 C189 1.254 1_655 S
O185 Zn182 2.031 . S
O185 C189 1.269 . S
O186 Zn183 1.986 . S
O186 C193 1.262 . S
O187 Zn182 2.049 . S
O187 C195 1.260 . S
O188 Zn183 1.996 . S
O188 C195 1.257 1_655 S
C189 O184 1.254 1_455 S
C189 O185 1.269 . S
C190 O191 1.249 . S
C190 O192 1.270 . S
O191 Zn183 1.943 1_455 S
O191 C190 1.249 . S
O192 Zn182 2.067 . S
O192 C190 1.270 . S
C193 O186 1.262 . S
C193 O194 1.232 . S
O194 C193 1.232 . S
C195 O187 1.260 . S
C195 O188 1.257 1_455 S
Zn196 O199 2.031 . S
Zn196 O201 2.049 . S
Zn196 O206 2.067 . S
Zn197 O198 1.962 . S
Zn197 O200 1.986 . S
Zn197 O202 1.996 . S
Zn197 O205 1.943 . S
O198 Zn197 1.962 . S
O198 C203 1.254 . S
O199 Zn196 2.031 . S
O199 C203 1.269 . S
O200 Zn197 1.986 . S
O200 C207 1.262 . S
O201 Zn196 2.049 . S
O201 C209 1.260 . S
O202 Zn197 1.996 . S
O202 C209 1.257 . S
C203 O198 1.254 . S
C203 O199 1.269 . S
C204 O205 1.249 . S
C204 O206 1.270 . S
O205 Zn197 1.943 . S
O205 C204 1.249 . S
O206 Zn196 2.067 . S
O206 C204 1.270 . S
C207 O200 1.262 . S
C207 O208 1.232 . S
O208 C207 1.232 . S
C209 O201 1.260 . S
C209 O202 1.257 . S
Zn210 O213 2.031 . S
Zn210 O215 2.049 . S
Zn210 O220 2.067 . S
Zn211 O212 1.962 . S
Zn211 O214 1.986 . S
Zn211 O216 1.996 . S
Zn211 O219 1.943 . S
O212 Zn211 1.962 . S
O212 C217 1.254 . S
O213 Zn210 2.031 . S
O213 C217 1.269 . S
O214 Zn211 1.986 . S
O214 C221 1.262 . S
O215 Zn210 2.049 . S
O215 C223 1.260 . S
O216 Zn211 1.996 . S
O216 C223 1.257 . S
C217 O212 1.254 . S
C217 O213 1.269 . S
C218 O219 1.249 . S
C218 O220 1.270 . S
O219 Zn211 1.943 . S
O219 C218 1.249 . S
O220 Zn210 2.067 . S
O220 C218 1.270 . S
C221 O214 1.262 . S
C221 O222 1.232 . S
O222 C221 1.232 . S
C223 O215 1.260 . S
C223 O216 1.257 . S
Zn224 O227 2.031 . S
Zn224 O229 2.049 . S
Zn224 O234 2.067 1_545 S
Zn225 O226 1.962 . S
Zn225 O228 1.986 . S
Zn225 O230 1.996 . S
Zn225 O233 1.943 . S
O226 Zn225 1.962 . S
O226 C231 1.254 . S
O227 Zn224 2.031 . S
O227 C231 1.269 . S
O228 Zn225 1.986 . S
O228 C235 1.262 . S
O229 Zn224 2.049 . S
O229 C237 1.260 . S
O230 Zn225 1.996 . S
O230 C237 1.257 . S
C231 O226 1.254 . S
C231 O227 1.269 . S
C232 O233 1.249 . S
C232 O234 1.270 1_545 S
O233 Zn225 1.943 . S
O233 C232 1.249 . S
O234 Zn224 2.067 1_565 S
O234 C232 1.270 1_565 S
C235 O228 1.262 . S
C235 O236 1.232 . S
O236 C235 1.232 . S
C237 O229 1.260 . S
C237 O230 1.257 . S
Zn238 O241 2.031 . S
Zn238 O243 2.049 . S
Zn238 O248 2.067 . S
Zn239 O240 1.962 . S
Zn239 O242 1.986 . S
Zn239 O244 1.996 . S
Zn239 O247 1.943 . S
O240 Zn239 1.962 . S
O240 C245 1.254 . S
O241 Zn238 2.031 . S
O241 C245 1.269 . S
O242 Zn239 1.986 . S
O242 C249 1.262 . S
O243 Zn238 2.049 . S
O243 C251 1.260 . S
O244 Zn239 1.996 . S
O244 C251 1.257 . S
C245 O240 1.254 . S
C245 O241 1.269 . S
C246 O247 1.249 . S
C246 O248 1.270 . S
O247 Zn239 1.943 . S
O247 C246 1.249 . S
O248 Zn238 2.067 . S
O248 C246 1.270 . S
C249 O242 1.262 . S
C249 O250 1.232 . S
O250 C249 1.232 . S
C251 O243 1.260 . S
C251 O244 1.257 . S
Zn252 O255 2.031 . S
Zn252 O257 2.049 . S
Zn252 O262 2.067 . S
Zn253 O254 1.962 . S
Zn253 O256 1.986 . S
Zn253 O258 1.998 . S
Zn253 O261 1.943 1_565 S
O254 Zn253 1.962 . S
O254 C259 1.254 1_565 S
O255 Zn252 2.031 . S
O255 C259 1.269 . S
O256 Zn253 1.986 . S
O256 C263 1.262 . S
O257 Zn252 2.049 . S
O257 C265 1.260 . S
O258 Zn253 1.998 . S
O258 C265 1.252 1_565 S
C259 O254 1.254 1_545 S
C259 O255 1.269 . S
C260 O261 1.249 . S
C260 O262 1.270 . S
O261 Zn253 1.943 1_545 S
O261 C260 1.249 . S
O262 Zn252 2.067 . S
O262 C260 1.270 . S
C263 O256 1.262 . S
C263 O264 1.232 . S
O264 C263 1.232 . S
C265 O257 1.260 . S
C265 O258 1.252 1_545 S
Zn266 O269 2.031 1_554 S
Zn266 O271 2.049 . S
Zn266 O276 2.067 . S
Zn267 O268 1.962 1_554 S
Zn267 O270 1.986 . S
Zn267 O272 1.996 . S
Zn267 O275 1.943 . S
O268 Zn267 1.962 1_556 S
O268 C273 1.254 . S
O269 Zn266 2.031 1_556 S
O269 C273 1.269 . S
O270 Zn267 1.986 . S
O270 C277 1.262 . S
O271 Zn266 2.049 . S
O271 C279 1.260 . S
O272 Zn267 1.996 . S
O272 C279 1.257 . S
C273 O268 1.254 . S
C273 O269 1.269 . S
C274 O275 1.249 . S
C274 O276 1.270 . S
O275 Zn267 1.943 . S
O275 C274 1.249 . S
O276 Zn266 2.067 . S
O276 C274 1.270 . S
C277 O270 1.262 . S
C277 O278 1.232 . S
O278 C277 1.232 . S
C279 O271 1.260 . S
C279 O272 1.257 . S
Zn280 O283 2.031 1_554 S
Zn280 O285 2.049 . S
Zn280 O290 2.067 . S
Zn281 O282 1.962 . S
Zn281 O284 1.986 1_556 S
Zn281 O286 1.996 1_556 S
Zn281 O289 1.943 1_556 S
O282 Zn281 1.962 . S
O282 C287 1.254 . S
O283 Zn280 2.031 1_556 S
O283 C287 1.269 . S
O284 Zn281 1.986 1_554 S
O284 C291 1.262 1_554 S
O285 Zn280 2.049 . S
O285 C293 1.260 . S
O286 Zn281 1.996 1_554 S
O286 C293 1.257 . S
C287 O282 1.254 . S
C287 O283 1.269 . S
C288 O289 1.251 . S
C288 O290 1.270 . S
O289 Zn281 1.943 1_554 S
O289 C288 1.251 . S
O290 Zn280 2.067 . S
O290 C288 1.270 . S
C291 O284 1.262 1_556 S
C291 O292 1.232 . S
O292 C291 1.232 . S
C293 O285 1.260 . S
C293 O286 1.257 . S
Zn294 O297 2.031 . S
Zn294 O299 2.049 . S
Zn294 O304 2.067 . S
Zn295 O296 1.962 . S
Zn295 O298 1.986 . S
Zn295 O300 1.996 . S
Zn295 O303 1.943 . S
O296 Zn295 1.962 . S
O296 C301 1.254 . S
O297 Zn294 2.031 . S
O297 C301 1.269 . S
O298 Zn295 1.986 . S
O298 C305 1.262 . S
O299 Zn294 2.049 . S
O299 C307 1.260 . S
O300 Zn295 1.996 . S
O300 C307 1.257 . S
C301 O296 1.254 . S
C301 O297 1.269 . S
C302 O303 1.249 . S
C302 O304 1.270 . S
O303 Zn295 1.943 . S
O303 C302 1.249 . S
O304 Zn294 2.067 . S
O304 C302 1.270 . S
C305 O298 1.262 . S
C305 O306 1.232 . S
O306 C305 1.232 . S
C307 O299 1.260 . S
C307 O300 1.257 . S
Zn308 O311 2.031 . S
Zn308 O313 2.049 . S
Zn308 O318 2.067 . S
Zn309 O310 1.962 . S
Zn309 O312 1.986 . S
Zn309 O314 1.996 . S
Zn309 O317 1.943 . S
O310 Zn309 1.962 . S
O310 C315 1.254 . S
O311 Zn308 2.031 . S
O311 C315 1.269 . S
O312 Zn309 1.986 . S
O312 C319 1.262 . S
O313 Zn308 2.049 . S
O313 C321 1.260 . S
O314 Zn309 1.996 . S
O314 C321 1.257 . S
C315 O310 1.254 . S
C315 O311 1.269 . S
C316 O317 1.249 . S
C316 O318 1.270 . S
O317 Zn309 1.943 . S
O317 C316 1.249 . S
O318 Zn308 2.067 . S
O318 C316 1.270 . S
C319 O312 1.262 . S
C319 O320 1.232 . S
O320 C319 1.232 . S
C321 O313 1.260 . S
C321 O314 1.257 . S
Zn322 O325 2.031 . S
Zn322 O327 2.049 . S
Zn322 O332 2.067 . S
Zn323 O324 1.962 . S
Zn323 O326 1.986 . S
Zn323 O328 1.996 . S
Zn323 O331 1.943 . S
O324 Zn323 1.962 . S
O324 C329 1.254 . S
O325 Zn322 2.031 . S
O325 C329 1.269 . S
O326 Zn323 1.986 . S
O326 C333 1.262 . S
O327 Zn322 2.049 . S
O327 C335 1.260 . S
O328 Zn323 1.996 . S
O328 C335 1.257 . S
C329 O324 1.254 . S
C329 O325 1.269 . S
C330 O331 1.249 . S
C330 O332 1.270 . S
O331 Zn323 1.943 . S
O331 C330 1.249 . S
O332 Zn322 2.067 . S
O332 C330 1.270 . S
C333 O326 1.262 . S
C333 O334 1.232 . S
O334 C333 1.232 . S
C335 O327 1.260 . S
C335 O328 1.257 . S
Co336 N341 2.059 . S
Co336 O353 2.022 1_545 S
Co336 O356 2.061 1_456 S
Co336 O360 2.115 1_556 S
Co336 O361 2.019 . S
C337 O357 1.259 . S
C337 O360 1.258 . S
Co338 N347 2.057 1_545 S
Co338 O354 2.117 1_545 S
Co338 O355 2.020 1_455 S
Co338 O357 2.021 . S
Co338 O362 2.062 . S
C339 N341 1.316 1_655 S
C339 N342 1.347 . S
C339 H344 0.931 1_655 S
C340 N341 1.375 1_655 S
C340 C343 1.350 . S
C340 H345 0.930 . S
N341 Co336 2.059 . S
N341 C339 1.316 1_455 S
N341 C340 1.375 1_455 S
N342 C339 1.347 . S
N342 C343 1.373 . S
C343 C340 1.350 . S
C343 N342 1.373 . S
C343 H364 0.931 . S
H344 C339 0.931 1_455 S
H345 C340 0.930 . S
C346 O353 1.259 1_554 S
C346 O354 1.258 . S
N347 Co338 2.057 1_565 S
N347 C348 1.316 1_565 S
N347 C349 1.375 . S
C348 N347 1.316 1_545 S
C348 N350 1.347 1_545 S
C348 H359 0.931 . S
C349 N347 1.375 . S
C349 C351 1.350 . S
C349 H358 0.930 . S
N350 C348 1.347 1_565 S
N350 C351 1.373 . S
C351 C349 1.350 . S
C351 N350 1.373 . S
C351 H365 0.931 . S
C352 O355 1.256 . S
C352 O356 1.255 . S
O353 Co336 2.022 1_565 S
O353 C346 1.259 1_556 S
O354 Co338 2.117 1_565 S
O354 C346 1.258 . S
O355 Co338 2.020 1_655 S
O355 C352 1.256 . S
O356 Co336 2.061 1_654 S
O356 C352 1.255 . S
O357 C337 1.259 . S
O357 Co338 2.021 . S
H358 C349 0.930 . S
H359 C348 0.931 . S
O360 Co336 2.115 1_554 S
O360 C337 1.258 . S
O361 Co336 2.019 . S
O361 C363 1.256 1_556 S
O362 Co338 2.062 . S
O362 C363 1.255 . S
C363 O361 1.256 1_554 S
C363 O362 1.255 . S
H364 C343 0.931 . S
H365 C351 0.931 . S
Co366 N371 2.057 . S
Co366 O383 2.021 . S
Co366 O386 2.062 . S
Co366 O390 2.117 . S
Co366 O391 2.020 . S
C367 O387 1.259 . S
C367 O390 1.258 . S
Co368 N377 2.057 . S
Co368 O384 2.117 . S
Co368 O385 2.020 . S
Co368 O387 2.021 . S
Co368 O392 2.062 . S
C369 N371 1.316 . S
C369 N372 1.347 . S
C369 H374 0.931 . S
C370 N371 1.375 . S
C370 C373 1.350 . S
C370 H375 0.930 . S
N371 Co366 2.057 . S
N371 C369 1.316 . S
N371 C370 1.375 . S
N372 C369 1.347 . S
N372 C373 1.373 . S
C373 C370 1.350 . S
C373 N372 1.373 . S
C373 H394 0.931 . S
H374 C369 0.931 . S
H375 C370 0.930 . S
C376 O383 1.259 . S
C376 O384 1.258 . S
N377 Co368 2.057 . S
N377 C378 1.316 . S
N377 C379 1.375 . S
C378 N377 1.316 . S
C378 N380 1.347 . S
C378 H389 0.931 . S
C379 N377 1.375 . S
C379 C381 1.350 . S
C379 H388 0.930 . S
N380 C378 1.347 . S
N380 C381 1.373 . S
C381 C379 1.350 . S
C381 N380 1.373 . S
C381 H395 0.931 . S
C382 O385 1.256 . S
C382 O386 1.255 . S
O383 Co366 2.021 . S
O383 C376 1.259 . S
O384 Co368 2.117 . S
O384 C376 1.258 . S
O385 Co368 2.020 . S
O385 C382 1.256 . S
O386 Co366 2.062 . S
O386 C382 1.255 . S
O387 C367 1.259 . S
O387 Co368 2.021 . S
H388 C379 0.930 . S
H389 C378 0.931 . S
O390 Co366 2.117 . S
O390 C367 1.258 . S
O391 Co366 2.020 . S
O391 C393 1.256 . S
O392 Co368 2.062 . S
O392 C393 1.255 . S
C393 O391 1.256 . S
C393 O392 1.255 . S
H394 C373 0.931 . S
H395 C381 0.931 . S
Co396 N401 2.057 . S
Co396 O413 2.021 1_545 S
Co396 O416 2.062 . S
Co396 O420 2.117 . S
Co396 O421 2.020 . S
C397 O417 1.259 . S
C397 O420 1.258 . S
Co398 N407 2.057 . S
Co398 O414 2.117 . S
Co398 O415 2.020 . S
Co398 O417 2.021 . S
Co398 O422 2.062 . S
C399 N401 1.316 1_565 S
C399 N402 1.347 . S
C399 H404 0.931 . S
C400 N401 1.375 . S
C400 C403 1.350 . S
C400 H405 0.930 . S
N401 Co396 2.057 . S
N401 C399 1.316 1_545 S
N401 C400 1.375 . S
N402 C399 1.347 . S
N402 C403 1.373 1_565 S
C403 C400 1.350 . S
C403 N402 1.373 1_545 S
C403 H424 0.931 . S
H404 C399 0.931 . S
H405 C400 0.930 . S
C406 O413 1.259 . S
C406 O414 1.258 1_565 S
N407 Co398 2.057 . S
N407 C408 1.316 . S
N407 C409 1.375 . S
C408 N407 1.316 . S
C408 N410 1.347 . S
C408 H419 0.931 . S
C409 N407 1.375 . S
C409 C411 1.350 . S
C409 H418 0.930 . S
N410 C408 1.347 . S
N410 C411 1.373 . S
C411 C409 1.350 . S
C411 N410 1.373 . S
C411 H425 0.931 . S
C412 O415 1.256 . S
C412 O416 1.255 . S
O413 Co396 2.021 1_565 S
O413 C406 1.259 . S
O414 Co398 2.117 . S
O414 C406 1.258 1_545 S
O415 Co398 2.020 . S
O415 C412 1.256 . S
O416 Co396 2.062 . S
O416 C412 1.255 . S
O417 C397 1.259 . S
O417 Co398 2.021 . S
H418 C409 0.930 . S
H419 C408 0.931 . S
O420 Co396 2.117 . S
O420 C397 1.258 . S
O421 Co396 2.020 . S
O421 C423 1.256 . S
O422 Co398 2.062 . S
O422 C423 1.255 . S
C423 O421 1.256 . S
C423 O422 1.255 . S
H424 C403 0.931 . S
H425 C411 0.931 . S
Co426 N431 2.057 . S
Co426 O443 2.021 . S
Co426 O446 2.062 . S
Co426 O450 2.117 . S
Co426 O451 2.020 . S
C427 O447 1.259 . S
C427 O450 1.258 . S
Co428 N437 2.057 . S
Co428 O444 2.117 . S
Co428 O445 2.020 . S
Co428 O447 2.021 . S
Co428 O452 2.062 . S
C429 N431 1.316 . S
C429 N432 1.347 . S
C429 H434 0.931 . S
C430 N431 1.375 . S
C430 C433 1.350 . S
C430 H435 0.930 . S
N431 Co426 2.057 . S
N431 C429 1.316 . S
N431 C430 1.375 . S
N432 C429 1.347 . S
N432 C433 1.373 . S
C433 C430 1.350 . S
C433 N432 1.373 . S
C433 H454 0.931 . S
H434 C429 0.931 . S
H435 C430 0.930 . S
C436 O443 1.259 . S
C436 O444 1.258 . S
N437 Co428 2.057 . S
N437 C438 1.316 . S
N437 C439 1.375 . S
C438 N437 1.316 . S
C438 N440 1.347 . S
C438 H449 0.931 . S
C439 N437 1.375 . S
C439 C441 1.350 . S
C439 H448 0.930 . S
N440 C438 1.347 . S
N440 C441 1.373 . S
C441 C439 1.350 . S
C441 N440 1.373 . S
C441 H455 0.931 . S
C442 O445 1.256 . S
C442 O446 1.255 . S
O443 Co426 2.021 . S
O443 C436 1.259 . S
O444 Co428 2.117 . S
O444 C436 1.258 . S
O445 Co428 2.020 . S
O445 C442 1.256 . S
O446 Co426 2.062 . S
O446 C442 1.255 . S
O447 C427 1.259 . S
O447 Co428 2.021 . S
H448 C439 0.930 . S
H449 C438 0.931 . S
O450 Co426 2.117 . S
O450 C427 1.258 . S
O451 Co426 2.020 . S
O451 C453 1.256 . S
O452 Co428 2.062 . S
O452 C453 1.255 . S
C453 O451 1.256 . S
C453 O452 1.255 . S
H454 C433 0.931 . S
H455 C441 0.931 . S
Co456 N461 2.057 1_545 S
Co456 O473 2.021 . S
Co456 O476 2.062 1_545 S
Co456 O480 2.124 . S
Co456 O481 2.020 1_455 S
C457 O477 1.259 1_655 S
C457 O480 1.258 1_655 S
Co458 N467 2.057 . S
Co458 O474 2.117 . S
Co458 O475 2.020 . S
Co458 O477 2.021 . S
Co458 O482 2.062 1_455 S
C459 N461 1.316 . S
C459 N462 1.345 1_455 S
C459 H464 0.931 . S
C460 N461 1.375 1_655 S
C460 C463 1.350 . S
C460 H465 0.930 . S
N461 Co456 2.057 1_565 S
N461 C459 1.316 . S
N461 C460 1.375 1_455 S
N462 C459 1.345 1_655 S
N462 C463 1.376 . S
C463 C460 1.350 . S
C463 N462 1.376 . S
C463 H484 0.931 . S
H464 C459 0.931 . S
H465 C460 0.930 . S
C466 O473 1.259 . S
C466 O474 1.258 . S
N467 Co458 2.057 . S
N467 C468 1.316 . S
N467 C469 1.375 . S
C468 N467 1.316 . S
C468 N470 1.347 . S
C468 H479 0.931 . S
C469 N467 1.375 . S
C469 C471 1.350 . S
C469 H478 0.930 . S
N470 C468 1.347 . S
N470 C471 1.373 . S
C471 C469 1.350 . S
C471 N470 1.373 . S
C471 H485 0.931 . S
C472 O475 1.256 . S
C472 O476 1.255 1_545 S
O473 Co456 2.021 . S
O473 C466 1.259 . S
O474 Co458 2.117 . S
O474 C466 1.258 . S
O475 Co458 2.020 . S
O475 C472 1.256 . S
O476 Co456 2.062 1_565 S
O476 C472 1.255 1_565 S
O477 C457 1.259 1_455 S
O477 Co458 2.021 . S
H478 C469 0.930 . S
H479 C468 0.931 . S
O480 Co456 2.124 . S
O480 C457 1.258 1_455 S
O481 Co456 2.020 1_655 S
O481 C483 1.256 . S
O482 Co458 2.062 1_655 S
O482 C483 1.255 . S
C483 O481 1.256 . S
C483 O482 1.255 . S
H484 C463 0.931 . S
H485 C471 0.931 . S
Co486 N491 2.057 . S
Co486 O503 2.021 . S
Co486 O506 2.062 . S
Co486 O510 2.117 . S
Co486 O511 2.020 . S
C487 O507 1.259 . S
C487 O510 1.258 . S
Co488 N497 2.057 . S
Co488 O504 2.117 . S
Co488 O505 2.020 . S
Co488 O507 2.021 . S
Co488 O512 2.062 . S
C489 N491 1.316 . S
C489 N492 1.347 . S
C489 H494 0.931 . S
C490 N491 1.375 . S
C490 C493 1.350 . S
C490 H495 0.930 . S
N491 Co486 2.057 . S
N491 C489 1.316 . S
N491 C490 1.375 . S
N492 C489 1.347 . S
N492 C493 1.373 . S
C493 C490 1.350 . S
C493 N492 1.373 . S
C493 H514 0.931 . S
H494 C489 0.931 . S
H495 C490 0.930 . S
C496 O503 1.259 . S
C496 O504 1.258 . S
N497 Co488 2.057 . S
N497 C498 1.316 . S
N497 C499 1.375 . S
C498 N497 1.316 . S
C498 N500 1.347 . S
C498 H509 0.931 . S
C499 N497 1.375 . S
C499 C501 1.350 . S
C499 H508 0.930 . S
N500 C498 1.347 . S
N500 C501 1.373 . S
C501 C499 1.350 . S
C501 N500 1.373 . S
C501 H515 0.931 . S
C502 O505 1.256 . S
C502 O506 1.255 . S
O503 Co486 2.021 . S
O503 C496 1.259 . S
O504 Co488 2.117 . S
O504 C496 1.258 . S
O505 Co488 2.020 . S
O505 C502 1.256 . S
O506 Co486 2.062 . S
O506 C502 1.255 . S
O507 C487 1.259 . S
O507 Co488 2.021 . S
H508 C499 0.930 . S
H509 C498 0.931 . S
O510 Co486 2.117 . S
O510 C487 1.258 . S
O511 Co486 2.020 . S
O511 C513 1.256 . S
O512 Co488 2.062 . S
O512 C513 1.255 . S
C513 O511 1.256 . S
C513 O512 1.255 . S
H514 C493 0.931 . S
H515 C501 0.931 . S
Co516 N521 2.057 1_554 S
Co516 O533 2.021 . S
Co516 O536 2.062 1_554 S
Co516 O540 2.117 . S
Co516 O541 2.020 1_545 S
C517 O537 1.259 . S
C517 O540 1.258 . S
Co518 N527 2.057 . S
Co518 O534 2.117 . S
Co518 O535 2.020 . S
Co518 O537 2.021 . S
Co518 O542 2.062 1_545 S
C519 N521 1.316 . S
C519 N522 1.347 . S
C519 H524 0.931 . S
C520 N521 1.375 1_565 S
C520 C523 1.350 . S
C520 H525 0.930 . S
N521 Co516 2.057 1_556 S
N521 C519 1.316 . S
N521 C520 1.375 1_545 S
N522 C519 1.347 . S
N522 C523 1.373 1_545 S
C523 C520 1.350 . S
C523 N522 1.373 1_565 S
C523 H544 0.931 . S
H524 C519 0.931 . S
H525 C520 0.930 . S
C526 O533 1.259 . S
C526 O534 1.258 . S
N527 Co518 2.057 . S
N527 C528 1.316 . S
N527 C529 1.375 . S
C528 N527 1.316 . S
C528 N530 1.347 . S
C528 H539 0.931 . S
C529 N527 1.375 . S
C529 C531 1.350 . S
C529 H538 0.930 . S
N530 C528 1.347 . S
N530 C531 1.373 . S
C531 C529 1.350 . S
C531 N530 1.373 . S
C531 H545 0.931 . S
C532 O535 1.256 . S
C532 O536 1.255 1_554 S
O533 Co516 2.021 . S
O533 C526 1.259 . S
O534 Co518 2.117 . S
O534 C526 1.258 . S
O535 Co518 2.020 . S
O535 C532 1.256 . S
O536 Co516 2.062 1_556 S
O536 C532 1.255 1_556 S
O537 C517 1.259 . S
O537 Co518 2.021 . S
H538 C529 0.930 . S
H539 C528 0.931 . S
O540 Co516 2.117 . S
O540 C517 1.258 . S
O541 Co516 2.020 1_565 S
O541 C543 1.256 . S
O542 Co518 2.062 1_565 S
O542 C543 1.255 . S
C543 O541 1.256 . S
C543 O542 1.255 . S
H544 C523 0.931 . S
H545 C531 0.931 . S
Co546 N551 2.057 . S
Co546 O563 2.021 . S
Co546 O566 2.062 . S
Co546 O570 2.117 . S
Co546 O571 2.020 . S
C547 O567 1.259 . S
C547 O570 1.258 . S
Co548 N557 2.057 . S
Co548 O564 2.117 . S
Co548 O565 2.020 . S
Co548 O567 2.021 . S
Co548 O572 2.062 . S
C549 N551 1.316 . S
C549 N552 1.347 . S
C549 H554 0.931 . S
C550 N551 1.375 . S
C550 C553 1.350 . S
C550 H555 0.930 . S
N551 Co546 2.057 . S
N551 C549 1.316 . S
N551 C550 1.375 . S
N552 C549 1.347 . S
N552 C553 1.373 . S
C553 C550 1.350 . S
C553 N552 1.373 . S
C553 H574 0.931 . S
H554 C549 0.931 . S
H555 C550 0.930 . S
C556 O563 1.259 . S
C556 O564 1.258 . S
N557 Co548 2.057 . S
N557 C558 1.316 . S
N557 C559 1.375 . S
C558 N557 1.316 . S
C558 N560 1.347 . S
C558 H569 0.931 . S
C559 N557 1.375 . S
C559 C561 1.350 . S
C559 H568 0.930 . S
N560 C558 1.347 . S
N560 C561 1.373 . S
C561 C559 1.350 . S
C561 N560 1.373 . S
C561 H575 0.931 . S
C562 O565 1.256 . S
C562 O566 1.255 . S
O563 Co546 2.021 . S
O563 C556 1.259 . S
O564 Co548 2.117 . S
O564 C556 1.258 . S
O565 Co548 2.020 . S
O565 C562 1.256 . S
O566 Co546 2.062 . S
O566 C562 1.255 . S
O567 C547 1.259 . S
O567 Co548 2.021 . S
H568 C559 0.930 . S
H569 C558 0.931 . S
O570 Co546 2.117 . S
O570 C547 1.258 . S
O571 Co546 2.020 . S
O571 C573 1.256 . S
O572 Co548 2.062 . S
O572 C573 1.255 . S
C573 O571 1.256 . S
C573 O572 1.255 . S
H574 C553 0.931 . S
H575 C561 0.931 . S
Co576 N581 2.057 . S
Co576 O593 2.021 1_554 S
Co576 O596 2.062 . S
Co576 O600 2.117 . S
Co576 O601 2.020 . S
C577 O597 1.259 . S
C577 O600 1.258 . S
Co578 N587 2.057 . S
Co578 O594 2.117 . S
Co578 O595 2.020 . S
Co578 O597 2.021 . S
Co578 O602 2.062 . S
C579 N581 1.316 1_556 S
C579 N582 1.347 1_556 S
C579 H584 0.931 . S
C580 N581 1.375 . S
C580 C583 1.350 . S
C580 H585 0.930 . S
N581 Co576 2.057 . S
N581 C579 1.316 1_554 S
N581 C580 1.375 . S
N582 C579 1.347 1_554 S
N582 C583 1.373 . S
C583 C580 1.350 . S
C583 N582 1.373 . S
C583 H604 0.931 . S
H584 C579 0.931 . S
H585 C580 0.930 . S
C586 O593 1.259 . S
C586 O594 1.258 1_556 S
N587 Co578 2.057 . S
N587 C588 1.316 . S
N587 C589 1.375 . S
C588 N587 1.316 . S
C588 N590 1.347 . S
C588 H599 0.931 . S
C589 N587 1.375 . S
C589 C591 1.350 . S
C589 H598 0.930 . S
N590 C588 1.347 . S
N590 C591 1.373 . S
C591 C589 1.350 . S
C591 N590 1.373 . S
C591 H605 0.931 . S
C592 O595 1.256 . S
C592 O596 1.255 . S
O593 Co576 2.021 1_556 S
O593 C586 1.259 . S
O594 Co578 2.117 . S
O594 C586 1.258 1_554 S
O595 Co578 2.020 . S
O595 C592 1.256 . S
O596 Co576 2.062 . S
O596 C592 1.255 . S
O597 C577 1.259 . S
O597 Co578 2.021 . S
H598 C589 0.930 . S
H599 C588 0.931 . S
O600 Co576 2.117 . S
O600 C577 1.258 . S
O601 Co576 2.020 . S
O601 C603 1.256 . S
O602 Co578 2.062 . S
O602 C603 1.255 . S
C603 O601 1.256 . S
C603 O602 1.255 . S
H604 C583 0.931 . S
H605 C591 0.931 . S
Co606 N611 2.057 . S
Co606 O623 2.021 . S
Co606 O626 2.062 . S
Co606 O630 2.117 . S
Co606 O631 2.020 . S
C607 O627 1.259 . S
C607 O630 1.258 . S
Co608 N617 2.057 . S
Co608 O624 2.117 . S
Co608 O625 2.020 . S
Co608 O627 2.021 . S
Co608 O632 2.062 . S
C609 N611 1.316 . S
C609 N612 1.347 . S
C609 H614 0.931 . S
C610 N611 1.375 . S
C610 C613 1.350 . S
C610 H615 0.930 . S
N611 Co606 2.057 . S
N611 C609 1.316 . S
N611 C610 1.375 . S
N612 C609 1.347 . S
N612 C613 1.373 . S
C613 C610 1.350 . S
C613 N612 1.373 . S
C613 H634 0.931 . S
H614 C609 0.931 . S
H615 C610 0.930 . S
C616 O623 1.259 . S
C616 O624 1.258 . S
N617 Co608 2.057 . S
N617 C618 1.316 . S
N617 C619 1.375 . S
C618 N617 1.316 . S
C618 N620 1.347 . S
C618 H629 0.931 . S
C619 N617 1.375 . S
C619 C621 1.350 . S
C619 H628 0.930 . S
N620 C618 1.347 . S
N620 C621 1.373 . S
C621 C619 1.350 . S
C621 N620 1.373 . S
C621 H635 0.931 . S
C622 O625 1.256 . S
C622 O626 1.255 . S
O623 Co606 2.021 . S
O623 C616 1.259 . S
O624 Co608 2.117 . S
O624 C616 1.258 . S
O625 Co608 2.020 . S
O625 C622 1.256 . S
O626 Co606 2.062 . S
O626 C622 1.255 . S
O627 C607 1.259 . S
O627 Co608 2.021 . S
H628 C619 0.930 . S
H629 C618 0.931 . S
O630 Co606 2.117 . S
O630 C607 1.258 . S
O631 Co606 2.020 . S
O631 C633 1.256 . S
O632 Co608 2.062 . S
O632 C633 1.255 . S
C633 O631 1.256 . S
C633 O632 1.255 . S
H634 C613 0.931 . S
H635 C621 0.931 . S
Co636 N641 2.057 . S
Co636 O653 2.021 1_455 S
Co636 O656 2.062 . S
Co636 O660 2.117 . S
Co636 O661 2.020 . S
C637 O657 1.259 . S
C637 O660 1.258 . S
Co638 N647 2.057 . S
Co638 O654 2.117 1_455 S
Co638 O655 2.020 . S
Co638 O657 2.021 . S
Co638 O662 2.062 . S
C639 N641 1.316 1_655 S
C639 N642 1.347 . S
C639 H644 0.931 . S
C640 N641 1.375 . S
C640 C643 1.350 . S
C640 H645 0.930 . S
N641 Co636 2.057 . S
N641 C639 1.316 1_455 S
N641 C640 1.375 . S
N642 C639 1.347 . S
N642 C643 1.373 1_655 S
C643 C640 1.350 . S
C643 N642 1.373 1_455 S
C643 H664 0.931 . S
H644 C639 0.931 . S
H645 C640 0.930 . S
C646 O653 1.259 . S
C646 O654 1.258 . S
N647 Co638 2.057 . S
N647 C648 1.316 . S
N647 C649 1.375 . S
C648 N647 1.316 . S
C648 N650 1.347 . S
C648 H659 0.931 . S
C649 N647 1.375 . S
C649 C651 1.350 . S
C649 H658 0.930 . S
N650 C648 1.347 . S
N650 C651 1.373 . S
C651 C649 1.350 . S
C651 N650 1.373 . S
C651 H665 0.931 . S
C652 O655 1.256 . S
C652 O656 1.255 . S
O653 Co636 2.021 1_655 S
O653 C646 1.259 . S
O654 Co638 2.117 1_655 S
O654 C646 1.258 . S
O655 Co638 2.020 . S
O655 C652 1.256 . S
O656 Co636 2.062 . S
O656 C652 1.255 . S
O657 C637 1.259 . S
O657 Co638 2.021 . S
H658 C649 0.930 . S
H659 C648 0.931 . S
O660 Co636 2.117 . S
O660 C637 1.258 . S
O661 Co636 2.020 . S
O661 C663 1.256 . S
O662 Co638 2.062 . S
O662 C663 1.255 . S
C663 O661 1.256 . S
C663 O662 1.255 . S
H664 C643 0.931 . S
H665 C651 0.931 . S
Co666 N671 2.057 . S
Co666 O683 2.021 . S
Co666 O686 2.062 . S
Co666 O690 2.117 . S
Co666 O691 2.020 . S
C667 O687 1.259 . S
C667 O690 1.258 . S
Co668 N677 2.057 . S
Co668 O684 2.117 . S
Co668 O685 2.020 . S
Co668 O687 2.021 . S
Co668 O692 2.062 . S
C669 N671 1.316 . S
C669 N672 1.347 . S
C669 H674 0.931 . S
C670 N671 1.375 . S
C670 C673 1.350 . S
C670 H675 0.930 . S
N671 Co666 2.057 . S
N671 C669 1.316 . S
N671 C670 1.375 . S
N672 C669 1.347 . S
N672 C673 1.373 . S
C673 C670 1.350 . S
C673 N672 1.373 . S
C673 H694 0.931 . S
H674 C669 0.931 . S
H675 C670 0.930 . S
C676 O683 1.259 . S
C676 O684 1.258 . S
N677 Co668 2.057 . S
N677 C678 1.316 . S
N677 C679 1.375 . S
C678 N677 1.316 . S
C678 N680 1.347 . S
C678 H689 0.931 . S
C679 N677 1.375 . S
C679 C681 1.350 . S
C679 H688 0.930 . S
N680 C678 1.347 . S
N680 C681 1.373 . S
C681 C679 1.350 . S
C681 N680 1.373 . S
C681 H695 0.931 . S
C682 O685 1.256 . S
C682 O686 1.255 . S
O683 Co666 2.021 . S
O683 C676 1.259 . S
O684 Co668 2.117 . S
O684 C676 1.258 . S
O685 Co668 2.020 . S
O685 C682 1.256 . S
O686 Co666 2.062 . S
O686 C682 1.255 . S
O687 C667 1.259 . S
O687 Co668 2.021 . S
H688 C679 0.930 . S
H689 C678 0.931 . S
O690 Co666 2.117 . S
O690 C667 1.258 . S
O691 Co666 2.020 . S
O691 C693 1.256 . S
O692 Co668 2.062 . S
O692 C693 1.255 . S
C693 O691 1.256 . S
C693 O692 1.255 . S
H694 C673 0.931 . S
H695 C681 0.931 . S
Co696 N701 2.057 . S
Co696 O713 2.021 . S
Co696 O716 2.062 . S
Co696 O720 2.117 . S
Co696 O721 2.020 . S
C697 O717 1.259 . S
C697 O720 1.258 . S
Co698 N707 2.057 . S
Co698 O714 2.117 . S
Co698 O715 2.020 . S
Co698 O717 2.021 . S
Co698 O722 2.062 . S
C699 N701 1.316 . S
C699 N702 1.347 . S
C699 H704 0.931 . S
C700 N701 1.375 . S
C700 C703 1.350 . S
C700 H705 0.930 . S
N701 Co696 2.057 . S
N701 C699 1.316 . S
N701 C700 1.375 . S
N702 C699 1.347 . S
N702 C703 1.373 . S
C703 C700 1.350 . S
C703 N702 1.373 . S
C703 H724 0.931 . S
H704 C699 0.931 . S
H705 C700 0.930 . S
C706 O713 1.259 . S
C706 O714 1.258 . S
N707 Co698 2.057 . S
N707 C708 1.316 . S
N707 C709 1.375 . S
C708 N707 1.316 . S
C708 N710 1.347 . S
C708 H719 0.931 . S
C709 N707 1.375 . S
C709 C711 1.350 . S
C709 H718 0.930 . S
N710 C708 1.347 . S
N710 C711 1.373 . S
C711 C709 1.350 . S
C711 N710 1.373 . S
C711 H725 0.931 . S
C712 O715 1.256 . S
C712 O716 1.255 . S
O713 Co696 2.021 . S
O713 C706 1.259 . S
O714 Co698 2.117 . S
O714 C706 1.258 . S
O715 Co698 2.020 . S
O715 C712 1.256 . S
O716 Co696 2.062 . S
O716 C712 1.255 . S
O717 C697 1.259 . S
O717 Co698 2.021 . S
H718 C709 0.930 . S
H719 C708 0.931 . S
O720 Co696 2.117 . S
O720 C697 1.258 . S
O721 Co696 2.020 . S
O721 C723 1.256 . S
O722 Co698 2.062 . S
O722 C723 1.255 . S
C723 O721 1.256 . S
C723 O722 1.255 . S
H724 C703 0.931 . S
H725 C711 0.931 . S
Co726 N731 2.057 . S
Co726 O743 2.021 . S
Co726 O746 2.062 . S
Co726 O750 2.117 . S
Co726 O751 2.020 . S
C727 O747 1.259 . S
C727 O750 1.258 . S
Co728 N737 2.057 . S
Co728 O744 2.117 . S
Co728 O745 2.020 . S
Co728 O747 2.021 . S
Co728 O752 2.062 . S
C729 N731 1.316 . S
C729 N732 1.347 . S
C729 H734 0.931 . S
C730 N731 1.375 . S
C730 C733 1.350 . S
C730 H735 0.930 . S
N731 Co726 2.057 . S
N731 C729 1.316 . S
N731 C730 1.375 . S
N732 C729 1.347 . S
N732 C733 1.373 . S
C733 C730 1.350 . S
C733 N732 1.373 . S
C733 H754 0.931 . S
H734 C729 0.931 . S
H735 C730 0.930 . S
C736 O743 1.259 . S
C736 O744 1.258 . S
N737 Co728 2.057 . S
N737 C738 1.316 . S
N737 C739 1.375 . S
C738 N737 1.316 . S
C738 N740 1.347 . S
C738 H749 0.931 . S
C739 N737 1.375 . S
C739 C741 1.350 . S
C739 H748 0.930 . S
N740 C738 1.347 . S
N740 C741 1.373 . S
C741 C739 1.350 . S
C741 N740 1.373 . S
C741 H755 0.931 . S
C742 O745 1.256 . S
C742 O746 1.255 . S
O743 Co726 2.021 . S
O743 C736 1.259 . S
O744 Co728 2.117 . S
O744 C736 1.258 . S
O745 Co728 2.020 . S
O745 C742 1.256 . S
O746 Co726 2.062 . S
O746 C742 1.255 . S
O747 C727 1.259 . S
O747 Co728 2.021 . S
H748 C739 0.930 . S
H749 C738 0.931 . S
O750 Co726 2.117 . S
O750 C727 1.258 . S
O751 Co726 2.020 . S
O751 C753 1.256 . S
O752 Co728 2.062 . S
O752 C753 1.255 . S
C753 O751 1.256 . S
C753 O752 1.255 . S
H754 C733 0.931 . S
H755 C741 0.931 . S
Co756 N761 2.057 . S
Co756 O773 2.021 . S
Co756 O776 2.062 . S
Co756 O780 2.117 . S
Co756 O781 2.020 . S
C757 O777 1.259 . S
C757 O780 1.258 . S
Co758 N767 2.057 . S
Co758 O774 2.117 . S
Co758 O775 2.020 . S
Co758 O777 2.021 . S
Co758 O782 2.062 . S
C759 N761 1.316 . S
C759 N762 1.347 . S
C759 H764 0.931 . S
C760 N761 1.375 . S
C760 C763 1.350 . S
C760 H765 0.930 . S
N761 Co756 2.057 . S
N761 C759 1.316 . S
N761 C760 1.375 . S
N762 C759 1.347 . S
N762 C763 1.373 . S
C763 C760 1.350 . S
C763 N762 1.373 . S
C763 H784 0.931 . S
H764 C759 0.931 . S
H765 C760 0.930 . S
C766 O773 1.259 . S
C766 O774 1.258 . S
N767 Co758 2.057 . S
N767 C768 1.316 . S
N767 C769 1.375 . S
C768 N767 1.316 . S
C768 N770 1.347 . S
C768 H779 0.931 . S
C769 N767 1.375 . S
C769 C771 1.350 . S
C769 H778 0.930 . S
N770 C768 1.347 . S
N770 C771 1.373 . S
C771 C769 1.350 . S
C771 N770 1.373 . S
C771 H785 0.931 . S
C772 O775 1.256 . S
C772 O776 1.255 . S
O773 Co756 2.021 . S
O773 C766 1.259 . S
O774 Co758 2.117 . S
O774 C766 1.258 . S
O775 Co758 2.020 . S
O775 C772 1.256 . S
O776 Co756 2.062 . S
O776 C772 1.255 . S
O777 C757 1.259 . S
O777 Co758 2.021 . S
H778 C769 0.930 . S
H779 C768 0.931 . S
O780 Co756 2.117 . S
O780 C757 1.258 . S
O781 Co756 2.020 . S
O781 C783 1.256 . S
O782 Co758 2.062 . S
O782 C783 1.255 . S
C783 O781 1.256 . S
C783 O782 1.255 . S
H784 C763 0.931 . S
H785 C771 0.931 . S
Co786 N791 2.057 1_455 S
Co786 O803 2.021 . S
Co786 O806 2.062 1_455 S
Co786 O810 2.117 . S
Co786 O811 2.020 1_554 S
C787 O807 1.259 . S
C787 O810 1.258 . S
Co788 N797 2.057 . S
Co788 O804 2.117 . S
Co788 O805 2.020 . S
Co788 O807 2.021 . S
Co788 O812 2.062 1_554 S
C789 N791 1.316 . S
C789 N792 1.347 . S
C789 H794 0.931 . S
C790 N791 1.375 1_556 S
C790 C793 1.350 . S
C790 H795 0.930 . S
N791 Co786 2.057 1_655 S
N791 C789 1.316 . S
N791 C790 1.375 1_554 S
N792 C789 1.347 . S
N792 C793 1.373 1_554 S
C793 C790 1.350 . S
C793 N792 1.373 1_556 S
C793 H814 0.931 . S
H794 C789 0.931 . S
H795 C790 0.930 . S
C796 O803 1.259 . S
C796 O804 1.258 . S
N797 Co788 2.057 . S
N797 C798 1.316 . S
N797 C799 1.375 . S
C798 N797 1.316 . S
C798 N800 1.347 . S
C798 H809 0.931 . S
C799 N797 1.375 . S
C799 C801 1.350 . S
C799 H808 0.930 . S
N800 C798 1.347 . S
N800 C801 1.373 . S
C801 C799 1.350 . S
C801 N800 1.373 . S
C801 H815 0.931 . S
C802 O805 1.256 . S
C802 O806 1.255 1_455 S
O803 Co786 2.021 . S
O803 C796 1.259 . S
O804 Co788 2.117 . S
O804 C796 1.258 . S
O805 Co788 2.020 . S
O805 C802 1.256 . S
O806 Co786 2.062 1_655 S
O806 C802 1.255 1_655 S
O807 C787 1.259 . S
O807 Co788 2.021 . S
H808 C799 0.930 . S
H809 C798 0.931 . S
O810 Co786 2.117 . S
O810 C787 1.258 . S
O811 Co786 2.020 1_556 S
O811 C813 1.256 . S
O812 Co788 2.062 1_556 S
O812 C813 1.255 . S
C813 O811 1.256 . S
C813 O812 1.255 . S
H814 C793 0.931 . S
H815 C801 0.931 . S
C816 C817 1.387 . S
C816 H820 0.950 . S
C816 C825 1.390 . S
C817 C816 1.387 . S
C817 C819 1.387 . S
H818 C825 0.950 . S
C819 C817 1.387 . S
C819 C821 1.390 . S
C819 H823 0.950 . S
H820 C816 0.950 . S
C821 C819 1.390 . S
C821 C822 1.387 . S
C821 H824 0.950 1_455 S
C822 C821 1.387 . S
C822 C825 1.387 . S
H823 C819 0.950 . S
H824 C821 0.950 1_655 S
C825 C816 1.390 . S
C825 H818 0.950 . S
C825 C822 1.387 . S
C826 C827 1.387 . S
C826 H830 0.950 . S
C826 C835 1.390 . S
C827 C826 1.387 . S
C827 C829 1.387 . S
H828 C835 0.950 . S
C829 C827 1.387 . S
C829 C831 1.390 . S
C829 H833 0.950 . S
H830 C826 0.950 . S
C831 C829 1.390 . S
C831 C832 1.387 . S
C831 H834 0.950 . S
C832 C831 1.387 . S
C832 C835 1.387 . S
H833 C829 0.950 . S
H834 C831 0.950 . S
C835 C826 1.390 . S
C835 H828 0.950 . S
C835 C832 1.387 . S
C836 C837 1.387 . S
C836 H840 0.950 . S
C836 C845 1.390 . S
C837 C836 1.387 . S
C837 C839 1.387 . S
H838 C845 0.950 . S
C839 C837 1.387 . S
C839 C841 1.390 . S
C839 H843 0.950 . S
H840 C836 0.950 . S
C841 C839 1.390 . S
C841 C842 1.387 . S
C841 H844 0.950 . S
C842 C841 1.387 . S
C842 C845 1.387 . S
H843 C839 0.950 . S
H844 C841 0.950 . S
C845 C836 1.390 . S
C845 H838 0.950 . S
C845 C842 1.387 . S
C846 C847 1.387 . S
C846 H850 0.950 . S
C846 C855 1.390 . S
C847 C846 1.387 . S
C847 C849 1.387 . S
H848 C855 0.950 . S
C849 C847 1.387 . S
C849 C851 1.390 . S
C849 H853 0.950 . S
H850 C846 0.950 . S
C851 C849 1.390 . S
C851 C852 1.387 . S
C851 H854 0.950 . S
C852 C851 1.387 . S
C852 C855 1.387 . S
H853 C849 0.950 . S
H854 C851 0.950 . S
C855 C846 1.390 . S
C855 H848 0.950 . S
C855 C852 1.387 . S
C856 C857 1.387 . S
C856 H860 0.950 . S
C856 C865 1.390 . S
C857 C856 1.387 . S
C857 C859 1.387 . S
H858 C865 0.950 . S
C859 C857 1.387 . S
C859 C861 1.390 . S
C859 H863 0.950 . S
H860 C856 0.950 . S
C861 C859 1.390 . S
C861 C862 1.387 . S
C861 H864 0.950 . S
C862 C861 1.387 . S
C862 C865 1.387 . S
H863 C859 0.950 . S
H864 C861 0.950 . S
C865 C856 1.390 . S
C865 H858 0.950 . S
C865 C862 1.387 . S
C866 C867 1.387 . S
C866 H870 0.950 . S
C866 C875 1.390 . S
C867 C866 1.387 . S
C867 C869 1.387 . S
H868 C875 0.950 . S
C869 C867 1.387 . S
C869 C871 1.390 . S
C869 H873 0.950 . S
H870 C866 0.950 . S
C871 C869 1.390 . S
C871 C872 1.387 . S
C871 H874 0.950 . S
C872 C871 1.387 . S
C872 C875 1.387 . S
H873 C869 0.950 . S
H874 C871 0.950 . S
C875 C866 1.390 . S
C875 H868 0.950 . S
C875 C872 1.387 . S
C876 C877 1.387 . S
C876 H880 0.950 . S
C876 C885 1.390 . S
C877 C876 1.387 . S
C877 C879 1.387 . S
H878 C885 0.950 . S
C879 C877 1.387 . S
C879 C881 1.390 . S
C879 H883 0.950 . S
H880 C876 0.950 . S
C881 C879 1.390 . S
C881 C882 1.387 . S
C881 H884 0.950 . S
C882 C881 1.387 . S
C882 C885 1.387 . S
H883 C879 0.950 . S
H884 C881 0.950 . S
C885 C876 1.390 . S
C885 H878 0.950 . S
C885 C882 1.387 . S
C886 C887 1.387 . S
C886 H890 0.950 . S
C886 C895 1.390 . S
C887 C886 1.387 . S
C887 C889 1.387 . S
H888 C895 0.950 . S
C889 C887 1.387 . S
C889 C891 1.390 . S
C889 H893 0.950 . S
H890 C886 0.950 . S
C891 C889 1.390 . S
C891 C892 1.387 . S
C891 H894 0.950 . S
C892 C891 1.387 . S
C892 C895 1.387 . S
H893 C889 0.950 . S
H894 C891 0.950 . S
C895 C886 1.390 . S
C895 H888 0.950 . S
C895 C892 1.387 . S
C896 C897 1.387 . S
C896 H900 0.950 . S
C896 C905 1.390 . S
C897 C896 1.387 . S
C897 C899 1.387 1_545 S
H898 C905 0.950 . S
C899 C897 1.387 1_565 S
C899 C901 1.390 . S
C899 H903 0.950 . S
H900 C896 0.950 . S
C901 C899 1.390 . S
C901 C902 1.387 . S
C901 H904 0.950 . S
C902 C901 1.387 . S
C902 C905 1.387 1_565 S
H903 C899 0.950 . S
H904 C901 0.950 . S
C905 C896 1.390 . S
C905 H898 0.950 . S
C905 C902 1.387 1_545 S
C906 C907 1.387 . S
C906 H910 0.950 . S
C906 C915 1.390 . S
C907 C906 1.387 . S
C907 C909 1.387 . S
H908 C915 0.950 . S
C909 C907 1.387 . S
C909 C911 1.390 . S
C909 H913 0.950 . S
H910 C906 0.950 . S
C911 C909 1.390 . S
C911 C912 1.387 . S
C911 H914 0.950 . S
C912 C911 1.387 . S
C912 C915 1.387 . S
H913 C909 0.950 . S
H914 C911 0.950 . S
C915 C906 1.390 . S
C915 H908 0.950 . S
C915 C912 1.387 . S
C916 C917 1.387 . S
C916 H920 0.950 . S
C916 C925 1.390 . S
C917 C916 1.387 . S
C917 C919 1.387 . S
H918 C925 0.950 . S
C919 C917 1.387 . S
C919 C921 1.390 . S
C919 H923 0.950 . S
H920 C916 0.950 . S
C921 C919 1.390 . S
C921 C922 1.387 . S
C921 H924 0.950 . S
C922 C921 1.387 . S
C922 C925 1.387 . S
H923 C919 0.950 . S
H924 C921 0.950 . S
C925 C916 1.390 . S
C925 H918 0.950 . S
C925 C922 1.387 . S
C926 C927 1.387 . S
C926 H930 0.950 . S
C926 C935 1.390 . S
C927 C926 1.387 . S
C927 C929 1.387 . S
H928 C935 0.950 . S
C929 C927 1.387 . S
C929 C931 1.390 . S
C929 H933 0.950 . S
H930 C926 0.950 . S
C931 C929 1.390 . S
C931 C932 1.387 . S
C931 H934 0.950 . S
C932 C931 1.387 . S
C932 C935 1.387 . S
H933 C929 0.950 . S
H934 C931 0.950 . S
C935 C926 1.390 . S
C935 H928 0.950 . S
C935 C932 1.387 . S
C936 C937 1.387 1_565 S
C936 H940 0.950 . S
C936 C945 1.390 1_565 S
C937 C936 1.387 1_545 S
C937 C939 1.387 . S
H938 C945 0.940 1_565 S
C939 C937 1.387 . S
C939 C941 1.390 . S
C939 H943 0.950 . S
H940 C936 0.950 . S
C941 C939 1.390 . S
C941 C942 1.387 . S
C941 H944 0.950 . S
C942 C941 1.387 . S
C942 C945 1.387 . S
H943 C939 0.950 . S
H944 C941 0.950 . S
C945 C936 1.390 1_545 S
C945 H938 0.940 1_545 S
C945 C942 1.387 . S
C946 C947 1.387 . S
C946 H950 0.950 . S
C946 C955 1.390 . S
C947 C946 1.387 . S
C947 C949 1.387 . S
H948 C955 0.950 . S
C949 C947 1.387 . S
C949 C951 1.390 . S
C949 H953 0.950 . S
H950 C946 0.950 . S
C951 C949 1.390 . S
C951 C952 1.387 . S
C951 H954 0.950 . S
C952 C951 1.387 . S
C952 C955 1.387 . S
H953 C949 0.950 . S
H954 C951 0.950 . S
C955 C946 1.390 . S
C955 H948 0.950 . S
C955 C952 1.387 . S
C956 C957 1.387 . S
C956 H960 0.950 . S
C956 C965 1.390 . S
C957 C956 1.387 . S
C957 C959 1.387 . S
H958 C965 0.950 1_565 S
C959 C957 1.387 . S
C959 C961 1.390 . S
C959 H963 0.950 . S
H960 C956 0.950 . S
C961 C959 1.390 . S
C961 C962 1.387 . S
C961 H964 0.950 . S
C962 C961 1.387 . S
C962 C965 1.387 . S
H963 C959 0.950 . S
H964 C961 0.950 . S
C965 C956 1.390 . S
C965 H958 0.950 1_545 S
C965 C962 1.387 . S
C966 C967 1.387 . S
C966 H970 0.950 . S
C966 C975 1.390 . S
C967 C966 1.387 . S
C967 C969 1.387 . S
H968 C975 0.950 . S
C969 C967 1.387 . S
C969 C971 1.390 . S
C969 H973 0.950 . S
H970 C966 0.950 . S
C971 C969 1.390 . S
C971 C972 1.387 . S
C971 H974 0.950 . S
C972 C971 1.387 . S
C972 C975 1.387 . S
H973 C969 0.950 . S
H974 C971 0.950 . S
C975 C966 1.390 . S
C975 H968 0.950 . S
C975 C972 1.387 . S
C976 C977 1.387 . S
C976 H980 0.950 1_554 S
C976 C985 1.393 . S
C977 C976 1.387 . S
C977 C979 1.387 . S
H978 C985 0.936 1_556 S
C979 C977 1.387 . S
C979 C981 1.390 . S
C979 H983 0.950 . S
H980 C976 0.950 1_556 S
C981 C979 1.390 . S
C981 C982 1.387 . S
C981 H984 0.950 . S
C982 C981 1.387 . S
C982 C985 1.398 . S
H983 C979 0.950 . S
H984 C981 0.950 . S
C985 C976 1.393 . S
C985 H978 0.936 1_554 S
C985 C982 1.398 . S
C986 C987 1.387 . S
C986 H990 0.950 . S
C986 C995 1.390 . S
C987 C986 1.387 . S
C987 C989 1.387 . S
H988 C995 0.950 . S
C989 C987 1.387 . S
C989 C991 1.390 . S
C989 H993 0.950 . S
H990 C986 0.950 . S
C991 C989 1.390 . S
C991 C992 1.387 . S
C991 H994 0.950 . S
C992 C991 1.387 . S
C992 C995 1.387 . S
H993 C989 0.950 . S
H994 C991 0.950 . S
C995 C986 1.390 . S
C995 H988 0.950 . S
C995 C992 1.387 . S
C996 C997 1.387 . S
C996 H1000 0.950 . S
C996 C1005 1.390 . S
C997 C996 1.387 . S
C997 C999 1.387 . S
H998 C1005 0.950 . S
C999 C997 1.387 . S
C999 C1001 1.390 . S
C999 H1003 0.950 . S
H1000 C996 0.950 . S
C1001 C999 1.390 . S
C1001 C1002 1.387 . S
C1001 H1004 0.950 . S
C1002 C1001 1.387 . S
C1002 C1005 1.387 . S
H1003 C999 0.950 . S
H1004 C1001 0.950 . S
C1005 C996 1.390 . S
C1005 H998 0.950 . S
C1005 C1002 1.387 . S
C1006 C1007 1.387 . S
C1006 H1010 0.950 . S
C1006 C1015 1.390 . S
C1007 C1006 1.387 . S
C1007 C1009 1.387 . S
H1008 C1015 0.950 . S
C1009 C1007 1.387 . S
C1009 C1011 1.390 . S
C1009 H1013 0.950 . S
H1010 C1006 0.950 . S
C1011 C1009 1.390 . S
C1011 C1012 1.387 . S
C1011 H1014 0.950 . S
C1012 C1011 1.387 . S
C1012 C1015 1.387 . S
H1013 C1009 0.950 . S
H1014 C1011 0.950 . S
C1015 C1006 1.390 . S
C1015 H1008 0.950 . S
C1015 C1012 1.387 . S
C1016 C1017 1.387 . S
C1016 H1020 0.950 . S
C1016 C1025 1.390 . S
C1017 C1016 1.387 . S
C1017 C1019 1.387 . S
H1018 C1025 0.950 . S
C1019 C1017 1.387 . S
C1019 C1021 1.390 . S
C1019 H1023 0.950 . S
H1020 C1016 0.950 . S
C1021 C1019 1.390 . S
C1021 C1022 1.387 . S
C1021 H1024 0.950 . S
C1022 C1021 1.387 . S
C1022 C1025 1.387 . S
H1023 C1019 0.950 . S
H1024 C1021 0.950 . S
C1025 C1016 1.390 . S
C1025 H1018 0.950 . S
C1025 C1022 1.387 . S
C1026 C1027 1.387 . S
C1026 H1030 0.950 . S
C1026 C1035 1.390 . S
C1027 C1026 1.387 . S
C1027 C1029 1.387 . S
H1028 C1035 0.950 . S
C1029 C1027 1.387 . S
C1029 C1031 1.390 . S
C1029 H1033 0.950 . S
H1030 C1026 0.950 . S
C1031 C1029 1.390 . S
C1031 C1032 1.387 . S
C1031 H1034 0.950 1_565 S
C1032 C1031 1.387 . S
C1032 C1035 1.387 . S
H1033 C1029 0.950 . S
H1034 C1031 0.950 1_545 S
C1035 C1026 1.390 . S
C1035 H1028 0.950 . S
C1035 C1032 1.387 . S
C1036 C1037 1.387 . S
C1036 H1040 0.950 . S
C1036 C1045 1.390 . S
C1037 C1036 1.387 . S
C1037 C1039 1.387 . S
H1038 C1045 0.950 . S
C1039 C1037 1.387 . S
C1039 C1041 1.390 . S
C1039 H1043 0.950 . S
H1040 C1036 0.950 . S
C1041 C1039 1.390 . S
C1041 C1042 1.387 . S
C1041 H1044 0.950 . S
C1042 C1041 1.387 . S
C1042 C1045 1.387 . S
H1043 C1039 0.950 . S
H1044 C1041 0.950 . S
C1045 C1036 1.390 . S
C1045 H1038 0.950 . S
C1045 C1042 1.387 . S
C1046 C1047 1.387 . S
C1046 H1050 0.950 . S
C1046 C1055 1.390 . S
C1047 C1046 1.387 . S
C1047 C1049 1.387 . S
H1048 C1055 0.950 . S
C1049 C1047 1.387 . S
C1049 C1051 1.390 . S
C1049 H1053 0.950 . S
H1050 C1046 0.950 . S
C1051 C1049 1.390 . S
C1051 C1052 1.387 . S
C1051 H1054 0.950 . S
C1052 C1051 1.387 . S
C1052 C1055 1.387 . S
H1053 C1049 0.950 . S
H1054 C1051 0.950 . S
C1055 C1046 1.390 . S
C1055 H1048 0.950 . S
C1055 C1052 1.387 . S
C1056 C1057 1.387 . S
C1056 H1060 0.952 1_455 S
C1056 C1065 1.390 1_556 S
C1057 C1056 1.387 . S
C1057 C1059 1.387 . S
H1058 C1065 0.950 . S
C1059 C1057 1.387 . S
C1059 C1061 1.390 . S
C1059 H1063 0.950 . S
H1060 C1056 0.952 1_655 S
C1061 C1059 1.390 . S
C1061 C1062 1.387 . S
C1061 H1064 0.950 . S
C1062 C1061 1.387 . S
C1062 C1065 1.387 1_556 S
H1063 C1059 0.950 . S
H1064 C1061 0.950 . S
C1065 C1056 1.390 1_554 S
C1065 H1058 0.950 . S
C1065 C1062 1.387 1_554 S
C1066 C1067 1.387 . S
C1066 H1070 0.950 . S
C1066 C1075 1.390 . S
C1067 C1066 1.387 . S
C1067 C1069 1.387 . S
H1068 C1075 0.950 . S
C1069 C1067 1.387 . S
C1069 C1071 1.390 . S
C1069 H1073 0.950 . S
H1070 C1066 0.950 . S
C1071 C1069 1.390 . S
C1071 C1072 1.387 . S
C1071 H1074 0.950 . S
C1072 C1071 1.387 . S
C1072 C1075 1.387 . S
H1073 C1069 0.950 . S
H1074 C1071 0.950 . S
C1075 C1066 1.390 . S
C1075 H1068 0.950 . S
C1075 C1072 1.387 . S
C1076 C1077 1.387 . S
C1076 H1080 0.950 . S
C1076 C1085 1.390 . S
C1077 C1076 1.387 . S
C1077 C1079 1.387 . S
H1078 C1085 0.950 . S
C1079 C1077 1.387 . S
C1079 C1081 1.390 . S
C1079 H1083 0.950 . S
H1080 C1076 0.950 . S
C1081 C1079 1.390 . S
C1081 C1082 1.387 . S
C1081 H1084 0.950 . S
C1082 C1081 1.387 . S
C1082 C1085 1.387 . S
H1083 C1079 0.950 . S
H1084 C1081 0.950 . S
C1085 C1076 1.390 . S
C1085 H1078 0.950 . S
C1085 C1082 1.387 . S
C1086 C1087 1.387 . S
C1086 H1090 0.950 . S
C1086 C1095 1.390 . S
C1087 C1086 1.387 . S
C1087 C1089 1.387 . S
H1088 C1095 0.950 . S
C1089 C1087 1.387 . S
C1089 C1091 1.390 . S
C1089 H1093 0.950 . S
H1090 C1086 0.950 . S
C1091 C1089 1.390 . S
C1091 C1092 1.387 . S
C1091 H1094 0.950 . S
C1092 C1091 1.387 . S
C1092 C1095 1.387 . S
H1093 C1089 0.950 . S
H1094 C1091 0.950 . S
C1095 C1086 1.390 . S
C1095 H1088 0.950 . S
C1095 C1092 1.387 . S
C1096 C1097 1.387 . S
C1096 H1100 0.950 . S
C1096 C1105 1.390 . S
C1097 C1096 1.387 . S
C1097 C1099 1.387 . S
H1098 C1105 0.950 . S
C1099 C1097 1.387 . S
C1099 C1101 1.390 . S
C1099 H1103 0.950 . S
H1100 C1096 0.950 . S
C1101 C1099 1.390 . S
C1101 C1102 1.387 . S
C1101 H1104 0.950 . S
C1102 C1101 1.387 . S
C1102 C1105 1.387 . S
H1103 C1099 0.950 . S
H1104 C1101 0.950 . S
C1105 C1096 1.390 . S
C1105 H1098 0.950 . S
C1105 C1102 1.387 . S
C1106 C1107 1.387 . S
C1106 H1110 0.950 . S
C1106 C1115 1.390 . S
C1107 C1106 1.387 . S
C1107 C1109 1.387 . S
H1108 C1115 0.950 . S
C1109 C1107 1.387 . S
C1109 C1111 1.390 . S
C1109 H1113 0.950 . S
H1110 C1106 0.950 . S
C1111 C1109 1.390 . S
C1111 C1112 1.387 . S
C1111 H1114 0.950 . S
C1112 C1111 1.387 . S
C1112 C1115 1.387 . S
H1113 C1109 0.950 . S
H1114 C1111 0.950 . S
C1115 C1106 1.390 . S
C1115 H1108 0.950 . S
C1115 C1112 1.387 . S
C1116 C1117 1.387 . S
C1116 H1120 0.950 . S
C1116 C1125 1.390 . S
C1117 C1116 1.387 . S
C1117 C1119 1.387 . S
H1118 C1125 0.950 . S
C1119 C1117 1.387 . S
C1119 C1121 1.390 . S
C1119 H1123 0.950 . S
H1120 C1116 0.950 . S
C1121 C1119 1.390 . S
C1121 C1122 1.387 . S
C1121 H1124 0.950 . S
C1122 C1121 1.387 . S
C1122 C1125 1.387 . S
H1123 C1119 0.950 . S
H1124 C1121 0.950 . S
C1125 C1116 1.390 . S
C1125 H1118 0.950 . S
C1125 C1122 1.387 . S
C1126 C1127 1.387 . S
C1126 H1130 0.950 . S
C1126 C1135 1.390 . S
C1127 C1126 1.387 . S
C1127 C1129 1.387 . S
H1128 C1135 0.950 . S
C1129 C1127 1.387 . S
C1129 C1131 1.390 . S
C1129 H1133 0.950 . S
H1130 C1126 0.950 . S
C1131 C1129 1.390 . S
C1131 C1132 1.387 . S
C1131 H1134 0.950 . S
C1132 C1131 1.387 . S
C1132 C1135 1.387 . S
H1133 C1129 0.950 . S
H1134 C1131 0.950 . S
C1135 C1126 1.390 . S
C1135 H1128 0.950 . S
C1135 C1132 1.387 . S
C1136 C1137 1.387 . S
C1136 H1140 0.950 . S
C1136 C1145 1.390 . S
C1137 C1136 1.387 . S
C1137 C1139 1.387 . S
H1138 C1145 0.950 . S
C1139 C1137 1.387 . S
C1139 C1141 1.390 . S
C1139 H1143 0.950 . S
H1140 C1136 0.950 . S
C1141 C1139 1.390 . S
C1141 C1142 1.387 . S
C1141 H1144 0.950 1_655 S
C1142 C1141 1.387 . S
C1142 C1145 1.387 . S
H1143 C1139 0.950 . S
H1144 C1141 0.950 1_455 S
C1145 C1136 1.390 . S
C1145 H1138 0.950 . S
C1145 C1142 1.387 . S
C1146 C1147 1.387 . S
C1146 H1150 0.950 . S
C1146 C1155 1.390 . S
C1147 C1146 1.387 . S
C1147 C1149 1.387 . S
H1148 C1155 0.950 . S
C1149 C1147 1.387 . S
C1149 C1151 1.390 . S
C1149 H1153 0.950 . S
H1150 C1146 0.950 . S
C1151 C1149 1.390 . S
C1151 C1152 1.387 . S
C1151 H1154 0.950 . S
C1152 C1151 1.387 . S
C1152 C1155 1.387 . S
H1153 C1149 0.950 . S
H1154 C1151 0.950 . S
C1155 C1146 1.390 . S
C1155 H1148 0.950 . S
C1155 C1152 1.387 . S
C1156 C1157 1.387 . S
C1156 H1160 0.950 . S
C1156 C1165 1.390 . S
C1157 C1156 1.387 . S
C1157 C1159 1.387 1_545 S
H1158 C1165 0.950 . S
C1159 C1157 1.387 1_565 S
C1159 C1161 1.390 . S
C1159 H1163 0.950 . S
H1160 C1156 0.950 . S
C1161 C1159 1.390 . S
C1161 C1162 1.387 1_565 S
C1161 H1164 0.950 . S
C1162 C1161 1.387 1_545 S
C1162 C1165 1.387 . S
H1163 C1159 0.950 . S
H1164 C1161 0.950 . S
C1165 C1156 1.390 . S
C1165 H1158 0.950 . S
C1165 C1162 1.387 . S
C1166 C1167 1.387 . S
C1166 H1170 0.950 . S
C1166 C1175 1.390 . S
C1167 C1166 1.387 . S
C1167 C1169 1.387 . S
H1168 C1175 0.950 . S
C1169 C1167 1.387 . S
C1169 C1171 1.390 . S
C1169 H1173 0.950 . S
H1170 C1166 0.950 . S
C1171 C1169 1.390 . S
C1171 C1172 1.387 . S
C1171 H1174 0.950 . S
C1172 C1171 1.387 . S
C1172 C1175 1.387 . S
H1173 C1169 0.950 . S
H1174 C1171 0.950 . S
C1175 C1166 1.390 . S
C1175 H1168 0.950 . S
C1175 C1172 1.387 . S
C1176 C1177 1.387 . S
C1176 H1180 0.950 . S
C1176 C1185 1.390 . S
C1177 C1176 1.387 . S
C1177 C1179 1.387 . S
H1178 C1185 0.950 . S
C1179 C1177 1.387 . S
C1179 C1181 1.390 . S
C1179 H1183 0.950 . S
H1180 C1176 0.950 . S
C1181 C1179 1.390 . S
C1181 C1182 1.387 . S
C1181 H1184 0.950 1_655 S
C1182 C1181 1.387 . S
C1182 C1185 1.387 . S
H1183 C1179 0.950 . S
H1184 C1181 0.950 1_455 S
C1185 C1176 1.390 . S
C1185 H1178 0.950 . S
C1185 C1182 1.387 . S
C1186 C1187 1.387 . S
C1186 H1190 0.950 . S
C1186 C1195 1.390 . S
C1187 C1186 1.387 . S
C1187 C1189 1.387 . S
H1188 C1195 0.950 . S
C1189 C1187 1.387 . S
C1189 C1191 1.390 . S
C1189 H1193 0.950 . S
H1190 C1186 0.950 . S
C1191 C1189 1.390 . S
C1191 C1192 1.387 . S
C1191 H1194 0.950 . S
C1192 C1191 1.387 . S
C1192 C1195 1.387 . S
H1193 C1189 0.950 . S
H1194 C1191 0.950 . S
C1195 C1186 1.390 . S
C1195 H1188 0.950 . S
C1195 C1192 1.387 . S
C1196 C1197 1.387 1_565 S
C1196 H1200 0.950 . S
C1196 C1205 1.390 1_565 S
C1197 C1196 1.387 1_545 S
C1197 C1199 1.387 . S
H1198 C1205 0.950 1_565 S
C1199 C1197 1.387 . S
C1199 C1201 1.390 . S
C1199 H1203 0.950 . S
H1200 C1196 0.950 . S
C1201 C1199 1.390 . S
C1201 C1202 1.387 . S
C1201 H1204 0.950 . S
C1202 C1201 1.387 . S
C1202 C1205 1.387 . S
H1203 C1199 0.950 . S
H1204 C1201 0.950 . S
C1205 C1196 1.390 1_545 S
C1205 H1198 0.950 1_545 S
C1205 C1202 1.387 . S
C1206 C1207 1.387 . S
C1206 H1210 0.950 . S
C1206 C1215 1.390 . S
C1207 C1206 1.387 . S
C1207 C1209 1.387 . S
H1208 C1215 0.950 . S
C1209 C1207 1.387 . S
C1209 C1211 1.390 . S
C1209 H1213 0.950 . S
H1210 C1206 0.950 . S
C1211 C1209 1.390 . S
C1211 C1212 1.387 . S
C1211 H1214 0.950 . S
C1212 C1211 1.387 . S
C1212 C1215 1.387 . S
H1213 C1209 0.950 . S
H1214 C1211 0.950 . S
C1215 C1206 1.390 . S
C1215 H1208 0.950 . S
C1215 C1212 1.387 . S
C1216 C1217 1.387 . S
C1216 H1220 0.950 1_554 S
C1216 C1225 1.390 . S
C1217 C1216 1.387 . S
C1217 C1219 1.387 . S
H1218 C1225 0.950 1_546 S
C1219 C1217 1.387 . S
C1219 C1221 1.390 . S
C1219 H1223 0.950 . S
H1220 C1216 0.950 1_556 S
C1221 C1219 1.390 . S
C1221 C1222 1.387 . S
C1221 H1224 0.950 . S
C1222 C1221 1.387 . S
C1222 C1225 1.387 . S
H1223 C1219 0.950 . S
H1224 C1221 0.950 . S
C1225 C1216 1.390 . S
C1225 H1218 0.950 1_564 S
C1225 C1222 1.387 . S
C1226 C1227 1.387 . S
C1226 H1230 0.950 . S
C1226 C1235 1.390 . S
C1227 C1226 1.387 . S
C1227 C1229 1.387 1_554 S
H1228 C1235 0.950 . S
C1229 C1227 1.387 1_556 S
C1229 C1231 1.390 . S
C1229 H1233 0.950 . S
H1230 C1226 0.950 . S
C1231 C1229 1.390 . S
C1231 C1232 1.387 1_556 S
C1231 H1234 0.950 . S
C1232 C1231 1.387 1_554 S
C1232 C1235 1.387 . S
H1233 C1229 0.950 . S
H1234 C1231 0.950 . S
C1235 C1226 1.390 . S
C1235 H1228 0.950 . S
C1235 C1232 1.387 . S
C1236 C1237 1.387 . S
C1236 H1240 0.950 . S
C1236 C1245 1.390 . S
C1237 C1236 1.387 . S
C1237 C1239 1.387 . S
H1238 C1245 0.950 . S
C1239 C1237 1.387 . S
C1239 C1241 1.390 . S
C1239 H1243 0.950 . S
H1240 C1236 0.950 . S
C1241 C1239 1.390 . S
C1241 C1242 1.387 . S
C1241 H1244 0.950 . S
C1242 C1241 1.387 . S
C1242 C1245 1.387 . S
H1243 C1239 0.950 . S
H1244 C1241 0.950 . S
C1245 C1236 1.390 . S
C1245 H1238 0.950 . S
C1245 C1242 1.387 . S
C1246 C1247 1.387 . S
C1246 H1250 0.950 . S
C1246 C1255 1.390 . S
C1247 C1246 1.387 . S
C1247 C1249 1.387 . S
H1248 C1255 0.950 . S
C1249 C1247 1.387 . S
C1249 C1251 1.390 . S
C1249 H1253 0.950 . S
H1250 C1246 0.950 . S
C1251 C1249 1.390 . S
C1251 C1252 1.387 . S
C1251 H1254 0.950 . S
C1252 C1251 1.387 . S
C1252 C1255 1.387 . S
H1253 C1249 0.950 . S
H1254 C1251 0.950 . S
C1255 C1246 1.390 . S
C1255 H1248 0.950 . S
C1255 C1252 1.387 . S
C1256 C1257 1.387 . S
C1256 H1260 0.950 . S
C1256 C1265 1.390 . S
C1257 C1256 1.387 . S
C1257 C1259 1.387 . S
H1258 C1265 0.950 . S
C1259 C1257 1.387 . S
C1259 C1261 1.390 . S
C1259 H1263 0.950 . S
H1260 C1256 0.950 . S
C1261 C1259 1.390 . S
C1261 C1262 1.387 . S
C1261 H1264 0.950 . S
C1262 C1261 1.387 . S
C1262 C1265 1.387 . S
H1263 C1259 0.950 . S
H1264 C1261 0.950 . S
C1265 C1256 1.390 . S
C1265 H1258 0.950 . S
C1265 C1262 1.387 . S
C1266 C1267 1.387 . S
C1266 H1270 0.950 . S
C1266 C1275 1.390 . S
C1267 C1266 1.387 . S
C1267 C1269 1.387 . S
H1268 C1275 0.950 . S
C1269 C1267 1.387 . S
C1269 C1271 1.390 . S
C1269 H1273 0.950 . S
H1270 C1266 0.950 . S
C1271 C1269 1.390 . S
C1271 C1272 1.387 . S
C1271 H1274 0.950 . S
C1272 C1271 1.387 . S
C1272 C1275 1.387 . S
H1273 C1269 0.950 . S
H1274 C1271 0.950 . S
C1275 C1266 1.390 . S
C1275 H1268 0.950 . S
C1275 C1272 1.387 . S
C1276 C1277 1.387 . S
C1276 H1280 0.950 . S
C1276 C1285 1.390 . S
C1277 C1276 1.387 . S
C1277 C1279 1.387 . S
H1278 C1285 0.950 . S
C1279 C1277 1.387 . S
C1279 C1281 1.390 . S
C1279 H1283 0.950 . S
H1280 C1276 0.950 . S
C1281 C1279 1.390 . S
C1281 C1282 1.387 . S
C1281 H1284 0.950 . S
C1282 C1281 1.387 . S
C1282 C1285 1.387 . S
H1283 C1279 0.950 . S
H1284 C1281 0.950 . S
C1285 C1276 1.390 . S
C1285 H1278 0.950 . S
C1285 C1282 1.387 . S
C1286 C1287 1.387 . S
C1286 H1290 0.950 . S
C1286 C1295 1.390 . S
C1287 C1286 1.387 . S
C1287 C1289 1.387 . S
H1288 C1295 0.950 . S
C1289 C1287 1.387 . S
C1289 C1291 1.390 . S
C1289 H1293 0.950 . S
H1290 C1286 0.950 . S
C1291 C1289 1.390 . S
C1291 C1292 1.387 . S
C1291 H1294 0.950 . S
C1292 C1291 1.387 . S
C1292 C1295 1.387 . S
H1293 C1289 0.950 . S
H1294 C1291 0.950 . S
C1295 C1286 1.390 . S
C1295 H1288 0.950 . S
C1295 C1292 1.387 . S
C1296 C1297 1.387 . S
C1296 H1300 0.950 . S
C1296 C1305 1.390 . S
C1297 C1296 1.387 . S
C1297 C1299 1.387 . S
H1298 C1305 0.950 . S
C1299 C1297 1.387 . S
C1299 C1301 1.390 . S
C1299 H1303 0.950 . S
H1300 C1296 0.950 . S
C1301 C1299 1.390 . S
C1301 C1302 1.387 . S
C1301 H1304 0.950 . S
C1302 C1301 1.387 . S
C1302 C1305 1.387 . S
H1303 C1299 0.950 . S
H1304 C1301 0.950 . S
C1305 C1296 1.390 . S
C1305 H1298 0.950 . S
C1305 C1302 1.387 . S
C1306 C1307 1.387 . S
C1306 H1310 0.950 . S
C1306 C1315 1.390 . S
C1307 C1306 1.387 . S
C1307 C1309 1.387 . S
H1308 C1315 0.950 . S
C1309 C1307 1.387 . S
C1309 C1311 1.390 . S
C1309 H1313 0.950 . S
H1310 C1306 0.950 . S
C1311 C1309 1.390 . S
C1311 C1312 1.387 . S
C1311 H1314 0.950 . S
C1312 C1311 1.387 . S
C1312 C1315 1.387 . S
H1313 C1309 0.950 . S
H1314 C1311 0.950 . S
C1315 C1306 1.390 . S
C1315 H1308 0.950 . S
C1315 C1312 1.387 . S
C1316 C1317 1.387 . S
C1316 H1320 0.950 . S
C1316 C1325 1.390 . S
C1317 C1316 1.387 . S
C1317 C1319 1.387 . S
H1318 C1325 0.950 . S
C1319 C1317 1.387 . S
C1319 C1321 1.390 . S
C1319 H1323 0.950 . S
H1320 C1316 0.950 . S
C1321 C1319 1.390 . S
C1321 C1322 1.387 . S
C1321 H1324 0.950 . S
C1322 C1321 1.387 . S
C1322 C1325 1.387 . S
H1323 C1319 0.950 . S
H1324 C1321 0.950 . S
C1325 C1316 1.390 . S
C1325 H1318 0.950 . S
C1325 C1322 1.387 . S
C1326 C1327 1.387 . S
C1326 H1330 0.950 . S
C1326 C1335 1.390 . S
C1327 C1326 1.387 . S
C1327 C1329 1.387 . S
H1328 C1335 0.950 . S
C1329 C1327 1.387 . S
C1329 C1331 1.390 . S
C1329 H1333 0.950 . S
H1330 C1326 0.950 . S
C1331 C1329 1.390 . S
C1331 C1332 1.387 . S
C1331 H1334 0.950 . S
C1332 C1331 1.387 . S
C1332 C1335 1.387 . S
H1333 C1329 0.950 . S
H1334 C1331 0.950 . S
C1335 C1326 1.390 . S
C1335 H1328 0.950 . S
C1335 C1332 1.387 . S
C1336 C1337 1.387 . S
C1336 H1340 0.950 1_556 S
C1336 C1345 1.390 1_556 S
C1337 C1336 1.387 . S
C1337 C1339 1.387 . S
H1338 C1345 0.950 . S
C1339 C1337 1.387 . S
C1339 C1341 1.390 . S
C1339 H1343 0.950 . S
H1340 C1336 0.950 1_554 S
C1341 C1339 1.390 . S
C1341 C1342 1.387 . S
C1341 H1344 0.950 . S
C1342 C1341 1.387 . S
C1342 C1345 1.387 1_556 S
H1343 C1339 0.950 . S
H1344 C1341 0.950 . S
C1345 C1336 1.390 1_554 S
C1345 H1338 0.950 . S
C1345 C1342 1.387 1_554 S
C1346 C1347 1.387 . S
C1346 H1350 0.950 . S
C1346 C1355 1.390 . S
C1347 C1346 1.387 . S
C1347 C1349 1.387 . S
H1348 C1355 0.950 . S
C1349 C1347 1.387 . S
C1349 C1351 1.390 . S
C1349 H1353 0.950 . S
H1350 C1346 0.950 . S
C1351 C1349 1.390 . S
C1351 C1352 1.387 . S
C1351 H1354 0.950 . S
C1352 C1351 1.387 . S
C1352 C1355 1.387 . S
H1353 C1349 0.950 . S
H1354 C1351 0.950 . S
C1355 C1346 1.390 . S
C1355 H1348 0.950 . S
C1355 C1352 1.387 . S
C1356 C1357 1.387 . S
C1356 H1360 0.950 . S
C1356 C1365 1.390 . S
C1357 C1356 1.387 . S
C1357 C1359 1.387 . S
H1358 C1365 0.950 . S
C1359 C1357 1.387 . S
C1359 C1361 1.390 . S
C1359 H1363 0.950 . S
H1360 C1356 0.950 . S
C1361 C1359 1.390 . S
C1361 C1362 1.387 . S
C1361 H1364 0.950 . S
C1362 C1361 1.387 . S
C1362 C1365 1.387 . S
H1363 C1359 0.950 . S
H1364 C1361 0.950 . S
C1365 C1356 1.390 . S
C1365 H1358 0.950 . S
C1365 C1362 1.387 . S
C1366 C1367 1.387 . S
C1366 H1370 0.950 . S
C1366 C1375 1.390 . S
C1367 C1366 1.387 . S
C1367 C1369 1.387 . S
H1368 C1375 0.950 . S
C1369 C1367 1.387 . S
C1369 C1371 1.390 . S
C1369 H1373 0.950 . S
H1370 C1366 0.950 . S
C1371 C1369 1.390 . S
C1371 C1372 1.387 . S
C1371 H1374 0.950 . S
C1372 C1371 1.387 . S
C1372 C1375 1.387 . S
H1373 C1369 0.950 . S
H1374 C1371 0.950 . S
C1375 C1366 1.390 . S
C1375 H1368 0.950 . S
C1375 C1372 1.387 . S
C1376 C1377 1.387 . S
C1376 H1380 0.950 . S
C1376 C1385 1.390 . S
C1377 C1376 1.387 . S
C1377 C1379 1.387 . S
H1378 C1385 0.950 . S
C1379 C1377 1.387 . S
C1379 C1381 1.390 . S
C1379 H1383 0.950 . S
H1380 C1376 0.950 . S
C1381 C1379 1.390 . S
C1381 C1382 1.387 . S
C1381 H1384 0.950 . S
C1382 C1381 1.387 . S
C1382 C1385 1.387 . S
H1383 C1379 0.950 . S
H1384 C1381 0.950 . S
C1385 C1376 1.390 . S
C1385 H1378 0.950 . S
C1385 C1382 1.387 . S
C1386 C1387 1.387 . S
C1386 H1390 0.950 . S
C1386 C1395 1.390 . S
C1387 C1386 1.387 . S
C1387 C1389 1.387 . S
H1388 C1395 0.950 . S
C1389 C1387 1.387 . S
C1389 C1391 1.390 . S
C1389 H1393 0.950 1_556 S
H1390 C1386 0.950 . S
C1391 C1389 1.390 . S
C1391 C1392 1.387 . S
C1391 H1394 0.950 . S
C1392 C1391 1.387 . S
C1392 C1395 1.387 . S
H1393 C1389 0.950 1_554 S
H1394 C1391 0.950 . S
C1395 C1386 1.390 . S
C1395 H1388 0.950 . S
C1395 C1392 1.387 . S
C1396 C1397 1.387 . S
C1396 H1400 0.950 . S
C1396 C1405 1.390 . S
C1397 C1396 1.387 . S
C1397 C1399 1.387 . S
H1398 C1405 0.950 . S
C1399 C1397 1.387 . S
C1399 C1401 1.390 . S
C1399 H1403 0.950 . S
H1400 C1396 0.950 . S
C1401 C1399 1.390 . S
C1401 C1402 1.387 . S
C1401 H1404 0.950 . S
C1402 C1401 1.387 . S
C1402 C1405 1.387 . S
H1403 C1399 0.950 . S
H1404 C1401 0.950 . S
C1405 C1396 1.390 . S
C1405 H1398 0.950 . S
C1405 C1402 1.387 . S
C1406 C1407 1.387 . S
C1406 H1410 0.950 . S
C1406 C1415 1.390 . S
C1407 C1406 1.387 . S
C1407 C1409 1.387 . S
H1408 C1415 0.950 . S
C1409 C1407 1.387 . S
C1409 C1411 1.390 . S
C1409 H1413 0.950 . S
H1410 C1406 0.950 . S
C1411 C1409 1.390 . S
C1411 C1412 1.387 . S
C1411 H1414 0.950 . S
C1412 C1411 1.387 . S
C1412 C1415 1.387 . S
H1413 C1409 0.950 . S
H1414 C1411 0.950 . S
C1415 C1406 1.390 . S
C1415 H1408 0.950 . S
C1415 C1412 1.387 . S
C1416 C1417 1.387 . S
C1416 H1420 0.950 . S
C1416 C1425 1.390 . S
C1417 C1416 1.387 . S
C1417 C1419 1.387 . S
H1418 C1425 0.950 . S
C1419 C1417 1.387 . S
C1419 C1421 1.390 . S
C1419 H1423 0.950 . S
H1420 C1416 0.950 . S
C1421 C1419 1.390 . S
C1421 C1422 1.387 . S
C1421 H1424 0.950 . S
C1422 C1421 1.387 . S
C1422 C1425 1.387 . S
H1423 C1419 0.950 . S
H1424 C1421 0.950 . S
C1425 C1416 1.390 . S
C1425 H1418 0.950 . S
C1425 C1422 1.387 . S
C1426 C1427 1.387 . S
C1426 H1430 0.950 . S
C1426 C1435 1.390 . S
C1427 C1426 1.387 . S
C1427 C1429 1.387 . S
H1428 C1435 0.950 . S
C1429 C1427 1.387 . S
C1429 C1431 1.390 . S
C1429 H1433 0.950 . S
H1430 C1426 0.950 . S
C1431 C1429 1.390 . S
C1431 C1432 1.387 . S
C1431 H1434 0.950 . S
C1432 C1431 1.387 . S
C1432 C1435 1.387 . S
H1433 C1429 0.950 . S
H1434 C1431 0.950 . S
C1435 C1426 1.390 . S
C1435 H1428 0.950 . S
C1435 C1432 1.387 . S
C1436 C1437 1.387 . S
C1436 H1440 0.950 . S
C1436 C1445 1.390 . S
C1437 C1436 1.387 . S
C1437 C1439 1.387 . S
H1438 C1445 0.950 1_455 S
C1439 C1437 1.387 . S
C1439 C1441 1.390 . S
C1439 H1443 0.950 . S
H1440 C1436 0.950 . S
C1441 C1439 1.390 . S
C1441 C1442 1.387 . S
C1441 H1444 0.950 . S
C1442 C1441 1.387 . S
C1442 C1445 1.387 . S
H1443 C1439 0.950 . S
H1444 C1441 0.950 . S
C1445 C1436 1.390 . S
C1445 H1438 0.950 1_655 S
C1445 C1442 1.387 . S
C1446 C1447 1.387 . S
C1446 H1450 0.950 . S
C1446 C1455 1.390 . S
C1447 C1446 1.387 . S
C1447 C1449 1.387 . S
H1448 C1455 0.950 . S
C1449 C1447 1.387 . S
C1449 C1451 1.390 . S
C1449 H1453 0.950 . S
H1450 C1446 0.950 . S
C1451 C1449 1.390 . S
C1451 C1452 1.387 . S
C1451 H1454 0.950 . S
C1452 C1451 1.387 . S
C1452 C1455 1.387 . S
H1453 C1449 0.950 . S
H1454 C1451 0.950 . S
C1455 C1446 1.390 . S
C1455 H1448 0.950 . S
C1455 C1452 1.387 . S
C1456 C1457 1.387 . S
C1456 H1460 0.950 . S
C1456 C1465 1.390 . S
C1457 C1456 1.387 . S
C1457 C1459 1.387 . S
H1458 C1465 0.950 . S
C1459 C1457 1.387 . S
C1459 C1461 1.390 . S
C1459 H1463 0.950 . S
H1460 C1456 0.950 . S
C1461 C1459 1.390 . S
C1461 C1462 1.387 . S
C1461 H1464 0.950 . S
C1462 C1461 1.387 . S
C1462 C1465 1.387 . S
H1463 C1459 0.950 . S
H1464 C1461 0.950 . S
C1465 C1456 1.390 . S
C1465 H1458 0.950 . S
C1465 C1462 1.387 . S
C1466 C1467 1.387 . S
C1466 H1470 0.950 . S
C1466 C1475 1.390 . S
C1467 C1466 1.387 . S
C1467 C1469 1.387 . S
H1468 C1475 0.950 . S
C1469 C1467 1.387 . S
C1469 C1471 1.390 1_565 S
C1469 H1473 0.950 . S
H1470 C1466 0.950 . S
C1471 C1469 1.390 1_545 S
C1471 C1472 1.387 1_545 S
C1471 H1474 0.950 . S
C1472 C1471 1.387 1_565 S
C1472 C1475 1.387 . S
H1473 C1469 0.950 . S
H1474 C1471 0.950 . S
C1475 C1466 1.390 . S
C1475 H1468 0.950 . S
C1475 C1472 1.387 . S
C1476 C1477 1.387 . S
C1476 H1480 0.955 . S
C1476 C1485 1.390 . S
C1477 C1476 1.387 . S
C1477 C1479 1.387 . S
H1478 C1485 0.950 . S
C1479 C1477 1.387 . S
C1479 C1481 1.390 . S
C1479 H1483 0.950 . S
H1480 C1476 0.955 . S
C1481 C1479 1.390 . S
C1481 C1482 1.387 . S
C1481 H1484 0.950 . S
C1482 C1481 1.387 . S
C1482 C1485 1.387 . S
H1483 C1479 0.950 . S
H1484 C1481 0.950 . S
C1485 C1476 1.390 . S
C1485 H1478 0.950 . S
C1485 C1482 1.387 . S
C1486 C1487 1.387 . S
C1486 H1490 0.950 . S
C1486 C1495 1.390 . S
C1487 C1486 1.387 . S
C1487 C1489 1.387 . S
H1488 C1495 0.950 . S
C1489 C1487 1.387 . S
C1489 C1491 1.390 . S
C1489 H1493 0.950 1_554 S
H1490 C1486 0.950 . S
C1491 C1489 1.390 . S
C1491 C1492 1.387 . S
C1491 H1494 0.950 . S
C1492 C1491 1.387 . S
C1492 C1495 1.387 . S
H1493 C1489 0.950 1_556 S
H1494 C1491 0.950 . S
C1495 C1486 1.390 . S
C1495 H1488 0.950 . S
C1495 C1492 1.387 . S
C1496 C1497 1.387 . S
C1496 H1500 0.950 . S
C1496 C1505 1.390 . S
C1497 C1496 1.387 . S
C1497 C1499 1.387 . S
H1498 C1505 0.950 . S
C1499 C1497 1.387 . S
C1499 C1501 1.390 . S
C1499 H1503 0.950 . S
H1500 C1496 0.950 . S
C1501 C1499 1.390 . S
C1501 C1502 1.387 . S
C1501 H1504 0.950 . S
C1502 C1501 1.387 . S
C1502 C1505 1.387 . S
H1503 C1499 0.950 . S
H1504 C1501 0.950 . S
C1505 C1496 1.390 . S
C1505 H1498 0.950 . S
C1505 C1502 1.387 . S
C1506 C1507 1.387 . S
C1506 H1510 0.950 . S
C1506 C1515 1.390 . S
C1507 C1506 1.387 . S
C1507 C1509 1.387 . S
H1508 C1515 0.950 . S
C1509 C1507 1.387 . S
C1509 C1511 1.390 . S
C1509 H1513 0.950 . S
H1510 C1506 0.950 . S
C1511 C1509 1.390 . S
C1511 C1512 1.387 . S
C1511 H1514 0.950 1_554 S
C1512 C1511 1.387 . S
C1512 C1515 1.387 . S
H1513 C1509 0.950 . S
H1514 C1511 0.950 1_556 S
C1515 C1506 1.390 . S
C1515 H1508 0.950 . S
C1515 C1512 1.387 . S
C1516 C1517 1.387 . S
C1516 H1520 0.950 . S
C1516 C1525 1.390 . S
C1517 C1516 1.387 . S
C1517 C1519 1.387 . S
H1518 C1525 0.950 . S
C1519 C1517 1.387 . S
C1519 C1521 1.390 . S
C1519 H1523 0.950 . S
H1520 C1516 0.950 . S
C1521 C1519 1.390 . S
C1521 C1522 1.387 . S
C1521 H1524 0.950 . S
C1522 C1521 1.387 . S
C1522 C1525 1.387 . S
H1523 C1519 0.950 . S
H1524 C1521 0.950 . S
C1525 C1516 1.390 . S
C1525 H1518 0.950 . S
C1525 C1522 1.387 . S
C1526 C1527 1.387 . S
C1526 H1530 0.950 . S
C1526 C1535 1.390 . S
C1527 C1526 1.387 . S
C1527 C1529 1.387 . S
H1528 C1535 0.950 . S
C1529 C1527 1.387 . S
C1529 C1531 1.390 . S
C1529 H1533 0.950 . S
H1530 C1526 0.950 . S
C1531 C1529 1.390 . S
C1531 C1532 1.387 . S
C1531 H1534 0.950 . S
C1532 C1531 1.387 . S
C1532 C1535 1.387 . S
H1533 C1529 0.950 . S
H1534 C1531 0.950 . S
C1535 C1526 1.390 . S
C1535 H1528 0.950 . S
C1535 C1532 1.387 . S
C1536 C1537 1.387 . S
C1536 H1540 0.950 . S
C1536 C1545 1.390 . S
C1537 C1536 1.387 . S
C1537 C1539 1.387 . S
H1538 C1545 0.950 . S
C1539 C1537 1.387 . S
C1539 C1541 1.390 . S
C1539 H1543 0.950 . S
H1540 C1536 0.950 . S
C1541 C1539 1.390 . S
C1541 C1542 1.387 . S
C1541 H1544 0.950 . S
C1542 C1541 1.387 . S
C1542 C1545 1.387 . S
H1543 C1539 0.950 . S
H1544 C1541 0.950 . S
C1545 C1536 1.390 . S
C1545 H1538 0.950 . S
C1545 C1542 1.387 . S
C1546 C1547 1.387 . S
C1546 H1550 0.950 . S
C1546 C1555 1.390 . S
C1547 C1546 1.387 . S
C1547 C1549 1.387 . S
H1548 C1555 0.950 . S
C1549 C1547 1.387 . S
C1549 C1551 1.390 . S
C1549 H1553 0.950 . S
H1550 C1546 0.950 . S
C1551 C1549 1.390 . S
C1551 C1552 1.387 . S
C1551 H1554 0.950 . S
C1552 C1551 1.387 . S
C1552 C1555 1.387 . S
H1553 C1549 0.950 . S
H1554 C1551 0.950 . S
C1555 C1546 1.390 . S
C1555 H1548 0.950 . S
C1555 C1552 1.387 . S
C1556 C1557 1.387 1_655 S
C1556 H1560 0.950 . S
C1556 C1565 1.390 . S
C1557 C1556 1.387 1_455 S
C1557 C1559 1.387 . S
H1558 C1565 0.950 . S
C1559 C1557 1.387 . S
C1559 C1561 1.390 . S
C1559 H1563 0.950 . S
H1560 C1556 0.950 . S
C1561 C1559 1.390 . S
C1561 C1562 1.387 . S
C1561 H1564 0.950 . S
C1562 C1561 1.387 . S
C1562 C1565 1.387 1_455 S
H1563 C1559 0.950 . S
H1564 C1561 0.950 . S
C1565 C1556 1.390 . S
C1565 H1558 0.950 . S
C1565 C1562 1.387 1_655 S
C1566 C1567 1.387 . S
C1566 H1570 0.950 . S
C1566 C1575 1.390 . S
C1567 C1566 1.387 . S
C1567 C1569 1.387 . S
H1568 C1575 0.950 . S
C1569 C1567 1.387 . S
C1569 C1571 1.390 . S
C1569 H1573 0.950 . S
H1570 C1566 0.950 . S
C1571 C1569 1.390 . S
C1571 C1572 1.387 . S
C1571 H1574 0.950 . S
C1572 C1571 1.387 . S
C1572 C1575 1.387 . S
H1573 C1569 0.950 . S
H1574 C1571 0.950 . S
C1575 C1566 1.390 . S
C1575 H1568 0.950 . S
C1575 C1572 1.387 . S
C1576 C1577 1.387 . S
C1576 H1580 0.950 . S
C1576 C1585 1.390 . S
C1577 C1576 1.387 . S
C1577 C1579 1.387 . S
H1578 C1585 0.950 . S
C1579 C1577 1.387 . S
C1579 C1581 1.390 . S
C1579 H1583 0.950 . S
H1580 C1576 0.950 . S
C1581 C1579 1.390 . S
C1581 C1582 1.387 . S
C1581 H1584 0.950 . S
C1582 C1581 1.387 . S
C1582 C1585 1.387 . S
H1583 C1579 0.950 . S
H1584 C1581 0.950 . S
C1585 C1576 1.390 . S
C1585 H1578 0.950 . S
C1585 C1582 1.387 . S
C1586 C1587 1.387 . S
C1586 H1590 0.950 . S
C1586 C1595 1.390 . S
C1587 C1586 1.387 . S
C1587 C1589 1.387 . S
H1588 C1595 0.950 . S
C1589 C1587 1.387 . S
C1589 C1591 1.390 . S
C1589 H1593 0.950 . S
H1590 C1586 0.950 . S
C1591 C1589 1.390 . S
C1591 C1592 1.387 . S
C1591 H1594 0.950 . S
C1592 C1591 1.387 . S
C1592 C1595 1.387 . S
H1593 C1589 0.950 . S
H1594 C1591 0.950 . S
C1595 C1586 1.390 . S
C1595 H1588 0.950 . S
C1595 C1592 1.387 . S
C1596 C1597 1.387 1_655 S
C1596 H1600 0.950 . S
C1596 C1605 1.390 . S
C1597 C1596 1.387 1_455 S
C1597 C1599 1.387 . S
H1598 C1605 0.950 . S
C1599 C1597 1.387 . S
C1599 C1601 1.390 . S
C1599 H1603 0.950 . S
H1600 C1596 0.950 . S
C1601 C1599 1.390 . S
C1601 C1602 1.387 . S
C1601 H1604 0.950 . S
C1602 C1601 1.387 . S
C1602 C1605 1.387 1_455 S
H1603 C1599 0.950 . S
H1604 C1601 0.950 . S
C1605 C1596 1.390 . S
C1605 H1598 0.950 . S
C1605 C1602 1.387 1_655 S
C1606 C1607 1.387 . S
C1606 H1610 0.950 . S
C1606 C1615 1.390 . S
C1607 C1606 1.387 . S
C1607 C1609 1.387 . S
H1608 C1615 0.950 . S
C1609 C1607 1.387 . S
C1609 C1611 1.390 . S
C1609 H1613 0.950 . S
H1610 C1606 0.950 . S
C1611 C1609 1.390 . S
C1611 C1612 1.387 . S
C1611 H1614 0.950 . S
C1612 C1611 1.387 . S
C1612 C1615 1.387 . S
H1613 C1609 0.950 . S
H1614 C1611 0.950 . S
C1615 C1606 1.390 . S
C1615 H1608 0.950 . S
C1615 C1612 1.387 . S
C1616 C1617 1.387 . S
C1616 H1620 0.950 . S
C1616 C1625 1.390 . S
C1617 C1616 1.387 . S
C1617 C1619 1.387 . S
H1618 C1625 0.950 . S
C1619 C1617 1.387 . S
C1619 C1621 1.390 . S
C1619 H1623 0.950 . S
H1620 C1616 0.950 . S
C1621 C1619 1.390 . S
C1621 C1622 1.387 . S
C1621 H1624 0.950 . S
C1622 C1621 1.387 . S
C1622 C1625 1.387 . S
H1623 C1619 0.950 . S
H1624 C1621 0.950 . S
C1625 C1616 1.390 . S
C1625 H1618 0.950 . S
C1625 C1622 1.387 . S
C1626 C1627 1.387 . S
C1626 H1630 0.950 . S
C1626 C1635 1.390 . S
C1627 C1626 1.387 . S
C1627 C1629 1.387 . S
H1628 C1635 0.950 . S
C1629 C1627 1.387 . S
C1629 C1631 1.390 . S
C1629 H1633 0.950 . S
H1630 C1626 0.950 . S
C1631 C1629 1.390 . S
C1631 C1632 1.387 . S
C1631 H1634 0.950 . S
C1632 C1631 1.387 . S
C1632 C1635 1.387 . S
H1633 C1629 0.950 . S
H1634 C1631 0.950 . S
C1635 C1626 1.390 . S
C1635 H1628 0.950 . S
C1635 C1632 1.387 . S
C1636 C1637 1.387 . S
C1636 H1640 0.950 . S
C1636 C1645 1.390 . S
C1637 C1636 1.387 . S
C1637 C1639 1.387 . S
H1638 C1645 0.950 . S
C1639 C1637 1.387 . S
C1639 C1641 1.390 . S
C1639 H1643 0.950 . S
H1640 C1636 0.950 . S
C1641 C1639 1.390 . S
C1641 C1642 1.387 . S
C1641 H1644 0.950 . S
C1642 C1641 1.387 . S
C1642 C1645 1.387 . S
H1643 C1639 0.950 . S
H1644 C1641 0.950 . S
C1645 C1636 1.390 . S
C1645 H1638 0.950 . S
C1645 C1642 1.387 . S
C1646 C1647 1.387 . S
C1646 H1650 0.950 . S
C1646 C1655 1.390 . S
C1647 C1646 1.387 . S
C1647 C1649 1.387 . S
H1648 C1655 0.950 . S
C1649 C1647 1.387 . S
C1649 C1651 1.390 . S
C1649 H1653 0.950 . S
H1650 C1646 0.950 . S
C1651 C1649 1.390 . S
C1651 C1652 1.387 . S
C1651 H1654 0.950 . S
C1652 C1651 1.387 . S
C1652 C1655 1.387 . S
H1653 C1649 0.950 . S
H1654 C1651 0.950 . S
C1655 C1646 1.390 . S
C1655 H1648 0.950 . S
C1655 C1652 1.387 . S
C1656 C1657 1.387 . S
C1656 H1660 0.950 . S
C1656 C1665 1.390 . S
C1657 C1656 1.387 . S
C1657 C1659 1.387 . S
H1658 C1665 0.950 . S
C1659 C1657 1.387 . S
C1659 C1661 1.390 . S
C1659 H1663 0.950 . S
H1660 C1656 0.950 . S
C1661 C1659 1.390 . S
C1661 C1662 1.387 . S
C1661 H1664 0.950 . S
C1662 C1661 1.387 . S
C1662 C1665 1.387 . S
H1663 C1659 0.950 . S
H1664 C1661 0.950 . S
C1665 C1656 1.390 . S
C1665 H1658 0.950 . S
C1665 C1662 1.387 . S
C1666 C1667 1.387 . S
C1666 H1670 0.950 . S
C1666 C1675 1.390 . S
C1667 C1666 1.387 . S
C1667 C1669 1.387 . S
H1668 C1675 0.950 . S
C1669 C1667 1.387 . S
C1669 C1671 1.390 . S
C1669 H1673 0.950 . S
H1670 C1666 0.950 . S
C1671 C1669 1.390 . S
C1671 C1672 1.387 . S
C1671 H1674 0.950 . S
C1672 C1671 1.387 . S
C1672 C1675 1.387 . S
H1673 C1669 0.950 . S
H1674 C1671 0.950 . S
C1675 C1666 1.390 . S
C1675 H1668 0.950 . S
C1675 C1672 1.387 . S
C1676 C1677 1.387 . S
C1676 H1680 0.950 . S
C1676 C1685 1.390 . S
C1677 C1676 1.387 . S
C1677 C1679 1.387 . S
H1678 C1685 0.950 . S
C1679 C1677 1.387 . S
C1679 C1681 1.390 . S
C1679 H1683 0.950 . S
H1680 C1676 0.950 . S
C1681 C1679 1.390 . S
C1681 C1682 1.387 . S
C1681 H1684 0.950 . S
C1682 C1681 1.387 . S
C1682 C1685 1.387 . S
H1683 C1679 0.950 . S
H1684 C1681 0.950 . S
C1685 C1676 1.390 . S
C1685 H1678 0.950 . S
C1685 C1682 1.387 . S
C1686 C1687 1.387 . S
C1686 H1690 0.950 . S
C1686 C1695 1.390 . S
C1687 C1686 1.387 . S
C1687 C1689 1.387 . S
H1688 C1695 0.950 . S
C1689 C1687 1.387 . S
C1689 C1691 1.390 . S
C1689 H1693 0.950 . S
H1690 C1686 0.950 . S
C1691 C1689 1.390 . S
C1691 C1692 1.387 . S
C1691 H1694 0.950 . S
C1692 C1691 1.387 . S
C1692 C1695 1.387 . S
H1693 C1689 0.950 . S
H1694 C1691 0.950 . S
C1695 C1686 1.390 . S
C1695 H1688 0.950 . S
C1695 C1692 1.387 . S
C1696 C1697 1.387 . S
C1696 H1700 0.950 . S
C1696 C1705 1.390 . S
C1697 C1696 1.387 . S
C1697 C1699 1.387 . S
H1698 C1705 0.950 . S
C1699 C1697 1.387 . S
C1699 C1701 1.390 . S
C1699 H1703 0.950 . S
H1700 C1696 0.950 . S
C1701 C1699 1.390 . S
C1701 C1702 1.387 . S
C1701 H1704 0.950 . S
C1702 C1701 1.387 . S
C1702 C1705 1.387 . S
H1703 C1699 0.950 . S
H1704 C1701 0.950 . S
C1705 C1696 1.390 . S
C1705 H1698 0.950 . S
C1705 C1702 1.387 . S
C1706 C1707 1.387 . S
C1706 H1710 0.950 . S
C1706 C1715 1.390 . S
C1707 C1706 1.387 . S
C1707 C1709 1.387 . S
H1708 C1715 0.950 . S
C1709 C1707 1.387 . S
C1709 C1711 1.390 . S
C1709 H1713 0.950 . S
H1710 C1706 0.950 . S
C1711 C1709 1.390 . S
C1711 C1712 1.387 . S
C1711 H1714 0.950 . S
C1712 C1711 1.387 . S
C1712 C1715 1.387 . S
H1713 C1709 0.950 . S
H1714 C1711 0.950 . S
C1715 C1706 1.390 . S
C1715 H1708 0.950 . S
C1715 C1712 1.387 . S
C1716 C1717 1.387 . S
C1716 H1720 0.950 . S
C1716 C1725 1.390 . S
C1717 C1716 1.387 . S
C1717 C1719 1.387 . S
H1718 C1725 0.950 . S
C1719 C1717 1.387 . S
C1719 C1721 1.390 . S
C1719 H1723 0.950 . S
H1720 C1716 0.950 . S
C1721 C1719 1.390 . S
C1721 C1722 1.387 . S
C1721 H1724 0.950 . S
C1722 C1721 1.387 . S
C1722 C1725 1.387 . S
H1723 C1719 0.950 . S
H1724 C1721 0.950 . S
C1725 C1716 1.390 . S
C1725 H1718 0.950 . S
C1725 C1722 1.387 . S
C1726 C1727 1.387 . S
C1726 H1730 0.950 1_554 S
C1726 C1735 1.390 1_554 S
C1727 C1726 1.387 . S
C1727 C1729 1.387 . S
H1728 C1735 0.950 . S
C1729 C1727 1.387 . S
C1729 C1731 1.390 . S
C1729 H1733 0.950 . S
H1730 C1726 0.950 1_556 S
C1731 C1729 1.390 . S
C1731 C1732 1.387 . S
C1731 H1734 0.950 1_565 S
C1732 C1731 1.387 . S
C1732 C1735 1.387 1_554 S
H1733 C1729 0.950 . S
H1734 C1731 0.950 1_545 S
C1735 C1726 1.390 1_556 S
C1735 H1728 0.950 . S
C1735 C1732 1.387 1_556 S
C1736 C1737 1.387 . S
C1736 H1740 0.950 . S
C1736 C1745 1.390 . S
C1737 C1736 1.387 . S
C1737 C1739 1.387 . S
H1738 C1745 0.950 . S
C1739 C1737 1.387 . S
C1739 C1741 1.390 . S
C1739 H1743 0.950 . S
H1740 C1736 0.950 . S
C1741 C1739 1.390 . S
C1741 C1742 1.387 . S
C1741 H1744 0.950 . S
C1742 C1741 1.387 . S
C1742 C1745 1.387 . S
H1743 C1739 0.950 . S
H1744 C1741 0.950 . S
C1745 C1736 1.390 . S
C1745 H1738 0.950 . S
C1745 C1742 1.387 . S
C1746 C1747 1.387 . S
C1746 H1750 0.950 . S
C1746 C1755 1.390 . S
C1747 C1746 1.387 . S
C1747 C1749 1.387 1_554 S
H1748 C1755 0.950 . S
C1749 C1747 1.387 1_556 S
C1749 C1751 1.390 1_556 S
C1749 H1753 0.950 . S
H1750 C1746 0.950 . S
C1751 C1749 1.390 1_554 S
C1751 C1752 1.387 . S
C1751 H1754 0.950 1_554 S
C1752 C1751 1.387 . S
C1752 C1755 1.387 . S
H1753 C1749 0.950 . S
H1754 C1751 0.950 1_556 S
C1755 C1746 1.390 . S
C1755 H1748 0.950 . S
C1755 C1752 1.387 . S
C1756 C1757 1.387 . S
C1756 H1760 0.950 . S
C1756 C1765 1.390 . S
C1757 C1756 1.387 . S
C1757 C1759 1.387 . S
H1758 C1765 0.950 . S
C1759 C1757 1.387 . S
C1759 C1761 1.390 . S
C1759 H1763 0.950 . S
H1760 C1756 0.950 . S
C1761 C1759 1.390 . S
C1761 C1762 1.387 . S
C1761 H1764 0.950 . S
C1762 C1761 1.387 . S
C1762 C1765 1.387 . S
H1763 C1759 0.950 . S
H1764 C1761 0.950 . S
C1765 C1756 1.390 . S
C1765 H1758 0.950 . S
C1765 C1762 1.387 . S
C1766 C1767 1.387 . S
C1766 H1770 0.950 . S
C1766 C1775 1.390 . S
C1767 C1766 1.387 . S
C1767 C1769 1.387 . S
H1768 C1775 0.950 . S
C1769 C1767 1.387 . S
C1769 C1771 1.390 . S
C1769 H1773 0.950 . S
H1770 C1766 0.950 . S
C1771 C1769 1.390 . S
C1771 C1772 1.387 . S
C1771 H1774 0.950 . S
C1772 C1771 1.387 . S
C1772 C1775 1.387 . S
H1773 C1769 0.950 . S
H1774 C1771 0.950 . S
C1775 C1766 1.390 . S
C1775 H1768 0.950 . S
C1775 C1772 1.387 . S
C822 C337 1.834 . S
C817 C13 1.832 . S
C827 C25 1.001 . S
C832 C382 1.007 . S
C837 C39 1.705 . S
C842 C406 1.689 . S
C852 N432 1.288 . S
C847 C50 1.279 . S
C857 C21 1.238 . S
C862 N462 1.272 1_455 S
C872 C496 1.645 . S
C867 C35 1.671 . S
C882 C532 1.177 1_556 S
C877 C55 1.116 . S
C887 C8 1.913 . S
C892 C556 1.900 . S
C897 C69 1.012 . S
C902 N350 1.040 . S
C907 C77 1.257 . S
C912 N372 1.296 . S
C922 C412 1.099 . S
C917 C97 1.039 . S
C932 C436 1.824 . S
C927 C105 1.856 . S
C937 C63 1.302 . S
C942 C466 1.276 . S
C952 C502 1.179 . S
C947 C83 1.086 . S
C962 N522 1.211 . S
C957 C91 1.184 . S
C972 C562 1.805 . S
C967 C111 1.800 . S
C982 C363 1.788 . S
C977 C106 1.792 . S
C992 C592 1.082 . S
C987 C123 1.072 . S
C997 C134 1.297 . S
C1002 N612 1.310 . S
C1012 C646 1.604 . S
C1007 C151 1.629 . S
C1017 C64 1.064 . S
C1022 N552 1.091 . S
C1032 N402 1.284 . S
C1027 C78 1.274 . S
C1037 C137 1.098 . S
C1042 C682 1.112 . S
C1052 C706 1.125 . S
C1047 C165 1.177 . S
C1057 C175 1.830 . S
C1062 C346 1.792 1_556 S
C1072 C723 0.905 . S
C1067 C193 0.911 . S
C1077 C209 1.581 . S
C1082 C397 1.620 . S
C1087 C223 1.003 . S
C1092 N680 1.147 . S
C1102 N470 1.209 . S
C1097 C195 1.045 . S
C1112 C607 1.500 . S
C1107 C207 1.510 . S
C1122 C543 1.042 . S
C1117 C221 1.048 . S
C1132 C727 1.797 . S
C1127 C176 1.767 . S
C1142 N342 1.023 . S
C1137 C231 1.022 . S
C1147 C251 1.061 . S
C1152 N710 1.225 . S
C1162 C423 1.041 . S
C1157 C259 1.043 . S
C1167 C279 1.706 . S
C1172 C667 1.772 . S
C1177 C237 1.122 . S
C1182 C457 1.213 . S
C1187 C245 1.088 . S
C1192 C633 1.087 . S
C1202 N530 1.198 . S
C1197 C265 1.052 . S
C1207 C273 1.765 . S
C1212 C753 1.731 . S
C1217 C274 1.678 . S
C1222 C352 1.732 1_565 S
C1227 C291 0.915 1_554 S
C1232 C603 0.913 . S
C1237 C302 1.170 . S
C1242 N500 1.289 . S
C1247 C319 1.523 . S
C1252 C637 1.511 . S
C1262 N740 1.046 . S
C1257 C232 1.004 1_565 S
C1272 N410 1.245 . S
C1267 C246 1.137 . S
C1282 C453 1.003 . S
C1277 C305 1.007 . S
C1292 C367 1.018 . S
C1287 C333 1.026 . S
C1297 C36 1.914 . S
C1302 C757 1.912 . S
C1312 C712 0.978 . S
C1307 C53 0.974 . S
C1322 C796 1.755 . S
C1317 C7 1.783 . S
C1327 C22 1.275 1_655 S
C1332 N672 1.287 . S
C1337 C49 1.241 . S
C1342 N582 1.277 1_556 S
C1352 C616 1.581 . S
C1347 C11 1.605 . S
C1362 C652 1.198 . S
C1357 C27 1.129 . S
C1372 C736 1.808 . S
C1367 C41 1.773 . S
C1382 N770 1.049 . S
C1377 C167 1.017 . S
C1387 C119 1.251 1_556 S
C1392 N702 1.287 . S
C1397 C139 1.049 . S
C1402 C802 1.117 1_655 S
C1412 C676 1.825 . S
C1407 C147 1.855 . S
C1422 C586 1.280 . S
C1417 C161 1.310 . S
C1427 C125 1.079 . S
C1432 C622 1.161 . S
C1442 N642 1.222 . S
C1437 C133 1.192 . S
C1447 C153 1.794 . S
C1452 C742 1.794 . S
C1462 C783 1.823 . S
C1457 C148 1.818 . S
C1472 C472 1.054 1_565 S
C1467 C81 1.045 . S
C1482 N492 1.313 . S
C1477 C92 1.293 1_565 S
C1487 C109 1.606 . S
C1492 C526 1.582 . S
C1502 N732 1.073 . S
C1497 C162 1.050 . S
C1507 C120 1.272 . S
C1512 N792 1.283 . S
C1522 C442 1.143 . S
C1517 C95 1.128 . S
C1532 C376 1.148 . S
C1527 C67 1.201 . S
C1537 C203 1.843 . S
C1542 C766 1.806 . S
C1552 C393 0.991 . S
C1547 C217 0.999 . S
C1562 C787 1.626 1_556 S
C1557 C181 1.578 . S
C1567 C190 1.174 . S
C1572 N440 1.288 . S
C1577 C218 1.237 . S
C1582 N590 1.358 . S
C1587 C179 1.512 . S
C1592 C487 1.504 . S
C1597 C189 1.143 . S
C1602 C663 1.133 . S
C1607 C204 1.783 . S
C1612 C547 1.814 . S
C1622 N762 1.053 . S
C1617 C329 1.051 . S
C1627 C293 1.035 . S
C1632 N380 1.181 . S
C1642 C813 1.045 . S
C1637 C301 1.049 . S
C1647 C321 1.668 . S
C1652 C427 1.730 . S
C1657 C335 1.073 . S
C1662 C577 1.155 . S
C1672 C513 1.091 . S
C1667 C287 1.093 . S
C1677 C307 1.019 . S
C1682 N650 1.153 . S
C1692 C573 1.751 . S
C1687 C315 1.789 . S
C1702 C772 1.715 . S
C1697 C316 1.671 . S
C1712 C483 0.979 . S
C1707 C249 0.984 . S
C1717 C260 1.159 . S
C1722 N620 1.274 . S
C1732 C517 1.581 1_565 S
C1727 C277 1.595 . S
C1742 N560 1.042 . S
C1737 C330 1.005 . S
C1747 C288 1.149 . S
C1752 N800 1.261 . S
C1762 C693 1.073 . S
C1757 C263 1.079 . S
C1772 C697 1.098 . S
C1767 C235 1.108 . S
