# Generated by pormake.
# Topology gar, (4,6)-cn, num edge types: 1
# Building blocks:
#     Node 0, Type 0, BuildingBlock: NAHDIM_clean_sbu_0, # of connection points: 4
#     Node 1, Type 0, BuildingBlock: NAHDIM_clean_sbu_0, # of connection points: 4
#     Node 2, Type 0, BuildingBlock: NAHDIM_clean_sbu_0, # of connection points: 4
#     Node 3, Type 0, BuildingBlock: NAHDIM_clean_sbu_0, # of connection points: 4
#     Node 4, Type 0, BuildingBlock: NAHDIM_clean_sbu_0, # of connection points: 4
#     Node 5, Type 0, BuildingBlock: NAHDIM_clean_sbu_0, # of connection points: 4
#     Node 6, Type 0, BuildingBlock: NAHDIM_clean_sbu_0, # of connection points: 4
#     Node 7, Type 0, BuildingBlock: NAHDIM_clean_sbu_0, # of connection points: 4
#     Node 8, Type 0, BuildingBlock: NAHDIM_clean_sbu_0, # of connection points: 4
#     Node 9, Type 0, BuildingBlock: NAHDIM_clean_sbu_0, # of connection points: 4
#     Node 10, Type 0, BuildingBlock: NAHDIM_clean_sbu_0, # of connection points: 4
#     Node 11, Type 0, BuildingBlock: NAHDIM_clean_sbu_0, # of connection points: 4
#     Node 12, Type 0, BuildingBlock: NAHDIM_clean_sbu_0, # of connection points: 4
#     Node 13, Type 0, BuildingBlock: NAHDIM_clean_sbu_0, # of connection points: 4
#     Node 14, Type 0, BuildingBlock: NAHDIM_clean_sbu_0, # of connection points: 4
#     Node 15, Type 0, BuildingBlock: NAHDIM_clean_sbu_0, # of connection points: 4
#     Node 16, Type 0, BuildingBlock: NAHDIM_clean_sbu_0, # of connection points: 4
#     Node 17, Type 0, BuildingBlock: NAHDIM_clean_sbu_0, # of connection points: 4
#     Node 18, Type 0, BuildingBlock: NAHDIM_clean_sbu_0, # of connection points: 4
#     Node 19, Type 0, BuildingBlock: NAHDIM_clean_sbu_0, # of connection points: 4
#     Node 20, Type 0, BuildingBlock: NAHDIM_clean_sbu_0, # of connection points: 4
#     Node 21, Type 0, BuildingBlock: NAHDIM_clean_sbu_0, # of connection points: 4
#     Node 22, Type 0, BuildingBlock: NAHDIM_clean_sbu_0, # of connection points: 4
#     Node 23, Type 0, BuildingBlock: NAHDIM_clean_sbu_0, # of connection points: 4
#     Node 24, Type 1, BuildingBlock: KUMBUR_clean_sbu_0, # of connection points: 6
#     Node 25, Type 1, BuildingBlock: KUMBUR_clean_sbu_0, # of connection points: 6
#     Node 26, Type 1, BuildingBlock: KUMBUR_clean_sbu_0, # of connection points: 6
#     Node 27, Type 1, BuildingBlock: KUMBUR_clean_sbu_0, # of connection points: 6
#     Node 28, Type 1, BuildingBlock: KUMBUR_clean_sbu_0, # of connection points: 6
#     Node 29, Type 1, BuildingBlock: KUMBUR_clean_sbu_0, # of connection points: 6
#     Node 30, Type 1, BuildingBlock: KUMBUR_clean_sbu_0, # of connection points: 6
#     Node 31, Type 1, BuildingBlock: KUMBUR_clean_sbu_0, # of connection points: 6
#     Node 32, Type 1, BuildingBlock: KUMBUR_clean_sbu_0, # of connection points: 6
#     Node 33, Type 1, BuildingBlock: KUMBUR_clean_sbu_0, # of connection points: 6
#     Node 34, Type 1, BuildingBlock: KUMBUR_clean_sbu_0, # of connection points: 6
#     Node 35, Type 1, BuildingBlock: KUMBUR_clean_sbu_0, # of connection points: 6
#     Node 36, Type 1, BuildingBlock: KUMBUR_clean_sbu_0, # of connection points: 6
#     Node 37, Type 1, BuildingBlock: KUMBUR_clean_sbu_0, # of connection points: 6
#     Node 38, Type 1, BuildingBlock: KUMBUR_clean_sbu_0, # of connection points: 6
#     Node 39, Type 1, BuildingBlock: KUMBUR_clean_sbu_0, # of connection points: 6
#     Edge 40, Type (0, 1), BuildingBlock: XUDNAN_clean_linker_2, # of connection points: 2
#     Edge 41, Type (0, 1), BuildingBlock: XUDNAN_clean_linker_2, # of connection points: 2
#     Edge 42, Type (0, 1), BuildingBlock: XUDNAN_clean_linker_2, # of connection points: 2
#     Edge 43, Type (0, 1), BuildingBlock: XUDNAN_clean_linker_2, # of connection points: 2
#     Edge 44, Type (0, 1), BuildingBlock: XUDNAN_clean_linker_2, # of connection points: 2
#     Edge 45, Type (0, 1), BuildingBlock: XUDNAN_clean_linker_2, # of connection points: 2
#     Edge 46, Type (0, 1), BuildingBlock: XUDNAN_clean_linker_2, # of connection points: 2
#     Edge 47, Type (0, 1), BuildingBlock: XUDNAN_clean_linker_2, # of connection points: 2
#     Edge 48, Type (0, 1), BuildingBlock: XUDNAN_clean_linker_2, # of connection points: 2
#     Edge 49, Type (0, 1), BuildingBlock: XUDNAN_clean_linker_2, # of connection points: 2
#     Edge 50, Type (0, 1), BuildingBlock: XUDNAN_clean_linker_2, # of connection points: 2
#     Edge 51, Type (0, 1), BuildingBlock: XUDNAN_clean_linker_2, # of connection points: 2
#     Edge 52, Type (0, 1), BuildingBlock: XUDNAN_clean_linker_2, # of connection points: 2
#     Edge 53, Type (0, 1), BuildingBlock: XUDNAN_clean_linker_2, # of connection points: 2
#     Edge 54, Type (0, 1), BuildingBlock: XUDNAN_clean_linker_2, # of connection points: 2
#     Edge 55, Type (0, 1), BuildingBlock: XUDNAN_clean_linker_2, # of connection points: 2
#     Edge 56, Type (0, 1), BuildingBlock: XUDNAN_clean_linker_2, # of connection points: 2
#     Edge 57, Type (0, 1), BuildingBlock: XUDNAN_clean_linker_2, # of connection points: 2
#     Edge 58, Type (0, 1), BuildingBlock: XUDNAN_clean_linker_2, # of connection points: 2
#     Edge 59, Type (0, 1), BuildingBlock: XUDNAN_clean_linker_2, # of connection points: 2
#     Edge 60, Type (0, 1), BuildingBlock: XUDNAN_clean_linker_2, # of connection points: 2
#     Edge 61, Type (0, 1), BuildingBlock: XUDNAN_clean_linker_2, # of connection points: 2
#     Edge 62, Type (0, 1), BuildingBlock: XUDNAN_clean_linker_2, # of connection points: 2
#     Edge 63, Type (0, 1), BuildingBlock: XUDNAN_clean_linker_2, # of connection points: 2
#     Edge 64, Type (0, 1), BuildingBlock: XUDNAN_clean_linker_2, # of connection points: 2
#     Edge 65, Type (0, 1), BuildingBlock: XUDNAN_clean_linker_2, # of connection points: 2
#     Edge 66, Type (0, 1), BuildingBlock: XUDNAN_clean_linker_2, # of connection points: 2
#     Edge 67, Type (0, 1), BuildingBlock: XUDNAN_clean_linker_2, # of connection points: 2
#     Edge 68, Type (0, 1), BuildingBlock: XUDNAN_clean_linker_2, # of connection points: 2
#     Edge 69, Type (0, 1), BuildingBlock: XUDNAN_clean_linker_2, # of connection points: 2
#     Edge 70, Type (0, 1), BuildingBlock: XUDNAN_clean_linker_2, # of connection points: 2
#     Edge 71, Type (0, 1), BuildingBlock: XUDNAN_clean_linker_2, # of connection points: 2
#     Edge 72, Type (0, 1), BuildingBlock: XUDNAN_clean_linker_2, # of connection points: 2
#     Edge 73, Type (0, 1), BuildingBlock: XUDNAN_clean_linker_2, # of connection points: 2
#     Edge 74, Type (0, 1), BuildingBlock: XUDNAN_clean_linker_2, # of connection points: 2
#     Edge 75, Type (0, 1), BuildingBlock: XUDNAN_clean_linker_2, # of connection points: 2
#     Edge 76, Type (0, 1), BuildingBlock: XUDNAN_clean_linker_2, # of connection points: 2
#     Edge 77, Type (0, 1), BuildingBlock: XUDNAN_clean_linker_2, # of connection points: 2
#     Edge 78, Type (0, 1), BuildingBlock: XUDNAN_clean_linker_2, # of connection points: 2
#     Edge 79, Type (0, 1), BuildingBlock: XUDNAN_clean_linker_2, # of connection points: 2
#     Edge 80, Type (0, 1), BuildingBlock: XUDNAN_clean_linker_2, # of connection points: 2
#     Edge 81, Type (0, 1), BuildingBlock: XUDNAN_clean_linker_2, # of connection points: 2
#     Edge 82, Type (0, 1), BuildingBlock: XUDNAN_clean_linker_2, # of connection points: 2
#     Edge 83, Type (0, 1), BuildingBlock: XUDNAN_clean_linker_2, # of connection points: 2
#     Edge 84, Type (0, 1), BuildingBlock: XUDNAN_clean_linker_2, # of connection points: 2
#     Edge 85, Type (0, 1), BuildingBlock: XUDNAN_clean_linker_2, # of connection points: 2
#     Edge 86, Type (0, 1), BuildingBlock: XUDNAN_clean_linker_2, # of connection points: 2
#     Edge 87, Type (0, 1), BuildingBlock: XUDNAN_clean_linker_2, # of connection points: 2
#     Edge 88, Type (0, 1), BuildingBlock: XUDNAN_clean_linker_2, # of connection points: 2
#     Edge 89, Type (0, 1), BuildingBlock: XUDNAN_clean_linker_2, # of connection points: 2
#     Edge 90, Type (0, 1), BuildingBlock: XUDNAN_clean_linker_2, # of connection points: 2
#     Edge 91, Type (0, 1), BuildingBlock: XUDNAN_clean_linker_2, # of connection points: 2
#     Edge 92, Type (0, 1), BuildingBlock: XUDNAN_clean_linker_2, # of connection points: 2
#     Edge 93, Type (0, 1), BuildingBlock: XUDNAN_clean_linker_2, # of connection points: 2
#     Edge 94, Type (0, 1), BuildingBlock: XUDNAN_clean_linker_2, # of connection points: 2
#     Edge 95, Type (0, 1), BuildingBlock: XUDNAN_clean_linker_2, # of connection points: 2
#     Edge 96, Type (0, 1), BuildingBlock: XUDNAN_clean_linker_2, # of connection points: 2
#     Edge 97, Type (0, 1), BuildingBlock: XUDNAN_clean_linker_2, # of connection points: 2
#     Edge 98, Type (0, 1), BuildingBlock: XUDNAN_clean_linker_2, # of connection points: 2
#     Edge 99, Type (0, 1), BuildingBlock: XUDNAN_clean_linker_2, # of connection points: 2
#     Edge 100, Type (0, 1), BuildingBlock: XUDNAN_clean_linker_2, # of connection points: 2
#     Edge 101, Type (0, 1), BuildingBlock: XUDNAN_clean_linker_2, # of connection points: 2
#     Edge 102, Type (0, 1), BuildingBlock: XUDNAN_clean_linker_2, # of connection points: 2
#     Edge 103, Type (0, 1), BuildingBlock: XUDNAN_clean_linker_2, # of connection points: 2
#     Edge 104, Type (0, 1), BuildingBlock: XUDNAN_clean_linker_2, # of connection points: 2
#     Edge 105, Type (0, 1), BuildingBlock: XUDNAN_clean_linker_2, # of connection points: 2
#     Edge 106, Type (0, 1), BuildingBlock: XUDNAN_clean_linker_2, # of connection points: 2
#     Edge 107, Type (0, 1), BuildingBlock: XUDNAN_clean_linker_2, # of connection points: 2
#     Edge 108, Type (0, 1), BuildingBlock: XUDNAN_clean_linker_2, # of connection points: 2
#     Edge 109, Type (0, 1), BuildingBlock: XUDNAN_clean_linker_2, # of connection points: 2
#     Edge 110, Type (0, 1), BuildingBlock: XUDNAN_clean_linker_2, # of connection points: 2
#     Edge 111, Type (0, 1), BuildingBlock: XUDNAN_clean_linker_2, # of connection points: 2
#     Edge 112, Type (0, 1), BuildingBlock: XUDNAN_clean_linker_2, # of connection points: 2
#     Edge 113, Type (0, 1), BuildingBlock: XUDNAN_clean_linker_2, # of connection points: 2
#     Edge 114, Type (0, 1), BuildingBlock: XUDNAN_clean_linker_2, # of connection points: 2
#     Edge 115, Type (0, 1), BuildingBlock: XUDNAN_clean_linker_2, # of connection points: 2
#     Edge 116, Type (0, 1), BuildingBlock: XUDNAN_clean_linker_2, # of connection points: 2
#     Edge 117, Type (0, 1), BuildingBlock: XUDNAN_clean_linker_2, # of connection points: 2
#     Edge 118, Type (0, 1), BuildingBlock: XUDNAN_clean_linker_2, # of connection points: 2
#     Edge 119, Type (0, 1), BuildingBlock: XUDNAN_clean_linker_2, # of connection points: 2
#     Edge 120, Type (0, 1), BuildingBlock: XUDNAN_clean_linker_2, # of connection points: 2
#     Edge 121, Type (0, 1), BuildingBlock: XUDNAN_clean_linker_2, # of connection points: 2
#     Edge 122, Type (0, 1), BuildingBlock: XUDNAN_clean_linker_2, # of connection points: 2
#     Edge 123, Type (0, 1), BuildingBlock: XUDNAN_clean_linker_2, # of connection points: 2
#     Edge 124, Type (0, 1), BuildingBlock: XUDNAN_clean_linker_2, # of connection points: 2
#     Edge 125, Type (0, 1), BuildingBlock: XUDNAN_clean_linker_2, # of connection points: 2
#     Edge 126, Type (0, 1), BuildingBlock: XUDNAN_clean_linker_2, # of connection points: 2
#     Edge 127, Type (0, 1), BuildingBlock: XUDNAN_clean_linker_2, # of connection points: 2
#     Edge 128, Type (0, 1), BuildingBlock: XUDNAN_clean_linker_2, # of connection points: 2
#     Edge 129, Type (0, 1), BuildingBlock: XUDNAN_clean_linker_2, # of connection points: 2
#     Edge 130, Type (0, 1), BuildingBlock: XUDNAN_clean_linker_2, # of connection points: 2
#     Edge 131, Type (0, 1), BuildingBlock: XUDNAN_clean_linker_2, # of connection points: 2
#     Edge 132, Type (0, 1), BuildingBlock: XUDNAN_clean_linker_2, # of connection points: 2
#     Edge 133, Type (0, 1), BuildingBlock: XUDNAN_clean_linker_2, # of connection points: 2
#     Edge 134, Type (0, 1), BuildingBlock: XUDNAN_clean_linker_2, # of connection points: 2
#     Edge 135, Type (0, 1), BuildingBlock: XUDNAN_clean_linker_2, # of connection points: 2
# Relax obj value: 0.135
# Max RMSD: 0.319
# Mean RMSD: 0.177
data_MOF--net-gar--node1-NAHDIM_clean_sbu_0--node2-KUMBUR_clean_sbu_0--edge1-XUDNAN_clean_linker_2
_symmetry_space_group_name_H-M    P1
_symmetry_Int_Tables_number       1
_symmetry_cell_setting            triclinic
loop_
_symmetry_equiv_pos_as_xyz
'x, y, z'
_cell_length_a     61.727822
_cell_length_b     55.963331
_cell_length_c     54.795333
_cell_angle_alpha  100.9078
_cell_angle_beta   93.635507
_cell_angle_gamma 102.71156
loop_
_atom_site_label
_atom_site_type_symbol
_atom_site_fract_x
_atom_site_fract_y
_atom_site_fract_z
_atom_type_partial_charge
C0 C 0.16348 0.33434 0.36584 0.0
O1 O 0.16425 0.33217 0.38931 0.0
O2 O 0.10702 0.29358 0.38012 0.0
Zn3 Zn 0.11528 0.3257 0.36721 0.0
O4 O 0.11728 0.35567 0.39475 0.0
C5 C 0.07246 0.31518 0.33506 0.0
O6 O 0.06547 0.29599 0.34549 0.0
O7 O 0.1447 0.3309 0.35315 0.0
C8 C 0.10043 0.36471 0.39927 0.0
O9 O 0.08094 0.35354 0.38649 0.0
C10 C 0.10946 0.295 0.40362 0.0
O11 O 0.11806 0.31689 0.41842 0.0
O12 O 0.09239 0.32816 0.3408 0.0
C13 C 0.98767 0.78074 0.6923 0.0
O14 O 0.98701 0.77427 0.66789 0.0
O15 O 0.04033 0.76703 0.6712 0.0
Zn16 Zn 0.03471 0.79945 0.68944 0.0
O17 O 0.03504 0.82406 0.66687 0.0
C18 C 0.07484 0.83357 0.71963 0.0
O19 O 0.07154 0.85014 0.70662 0.0
O20 O 1.00612 0.7923 0.70517 0.0
C21 C 0.05078 0.8268 0.65301 0.0
O22 O 0.06514 0.81261 0.65307 0.0
C23 C 0.03361 0.75464 0.64907 0.0
O24 O 0.02049 0.76274 0.63439 0.0
O25 O 0.06074 0.81259 0.71626 0.0
C26 C 0.6689 0.83449 0.87063 0.0
O27 O 0.66588 0.83898 0.89443 0.0
O28 O 0.61995 0.8011 0.89332 0.0
Zn29 Zn 0.62209 0.82348 0.86802 0.0
O30 O 0.61862 0.85719 0.88442 0.0
C31 C 0.57717 0.80913 0.85024 0.0
O32 O 0.57689 0.80987 0.87433 0.0
O33 O 0.65193 0.82741 0.85435 0.0
C34 C 0.62077 0.86616 0.90773 0.0
O35 O 0.62748 0.85357 0.92347 0.0
C36 C 0.63071 0.78406 0.89227 0.0
O37 O 0.64289 0.78019 0.87377 0.0
O38 O 0.5959 0.81193 0.84138 0.0
C39 C 0.48766 0.27671 0.21317 0.0
O40 O 0.50072 0.2623 0.21839 0.0
O41 O 0.51479 0.24683 0.16709 0.0
Zn42 Zn 0.51836 0.28379 0.17803 0.0
O43 O 0.5194 0.29892 0.14752 0.0
C44 C 0.56259 0.28473 0.19045 0.0
O45 O 0.55857 0.27242 0.16708 0.0
O46 O 0.49239 0.28936 0.19648 0.0
C47 C 0.53405 0.31797 0.14523 0.0
O48 O 0.54931 0.32955 0.16406 0.0
C49 C 0.50882 0.23466 0.14482 0.0
O50 O 0.5019 0.24593 0.12792 0.0
O51 O 0.54762 0.29461 0.20015 0.0
C52 C 0.07494 0.8179 0.16107 0.0
O53 O 0.09335 0.82598 0.1766 0.0
O54 O 0.09864 0.7759 0.09915 0.0
Zn55 Zn 0.10296 0.81353 0.11659 0.0
O56 O 0.10133 0.84059 0.09407 0.0
C57 C 0.13848 0.8071 0.15245 0.0
O58 O 0.12212 0.7895 0.15674 0.0
O59 O 0.07629 0.81275 0.1376 0.0
C60 C 0.09727 0.86165 0.10411 0.0
O61 O 0.09475 0.86562 0.12806 0.0
C62 C 0.09473 0.75998 0.07834 0.0
O63 O 0.09173 0.76756 0.05738 0.0
O64 O 0.13415 0.8209 0.13748 0.0
C65 C 0.56144 0.78602 0.40051 0.0
O66 O 0.55481 0.80704 0.4033 0.0
O67 O 0.52425 0.74315 0.45249 0.0
Zn68 Zn 0.52326 0.76925 0.42887 0.0
O69 O 0.52674 0.80717 0.44523 0.0
C70 C 0.47892 0.77177 0.40479 0.0
O71 O 0.48096 0.79074 0.4237 0.0
O72 O 0.55041 0.76794 0.40911 0.0
C73 C 0.5346 0.82271 0.46582 0.0
O74 O 0.5432 0.81476 0.48442 0.0
C75 C 0.52894 0.72227 0.44307 0.0
O76 O 0.5318 0.71797 0.41922 0.0
O77 O 0.49413 0.75935 0.40346 0.0
C78 C 0.5767 0.32532 0.66369 0.0
O79 O 0.59451 0.33752 0.67915 0.0
O80 O 0.60105 0.28185 0.60084 0.0
Zn81 Zn 0.6058 0.31898 0.62026 0.0
O82 O 0.60411 0.34635 0.59819 0.0
C83 C 0.64123 0.31425 0.65795 0.0
O84 O 0.62491 0.2972 0.66319 0.0
O85 O 0.57882 0.31732 0.64078 0.0
C86 C 0.59899 0.36694 0.60773 0.0
O87 O 0.59535 0.37064 0.63136 0.0
C88 C 0.60258 0.27265 0.57803 0.0
O89 O 0.60762 0.28797 0.5627 0.0
O90 O 0.6369 0.32665 0.64161 0.0
C91 C 0.05672 0.25839 0.88312 0.0
O92 O 0.03911 0.24409 0.86854 0.0
O93 O 0.03082 0.24112 0.95037 0.0
Zn94 Zn 0.02849 0.26726 0.92718 0.0
O95 O 0.03413 0.30452 0.94583 0.0
C96 C 0.99184 0.26824 0.88811 0.0
O97 O 1.00806 0.28083 0.87786 0.0
O98 O 0.05464 0.26811 0.90559 0.0
C99 C 0.03107 0.31372 0.96811 0.0
O100 O 0.02385 0.29839 0.98285 0.0
C101 C 0.0356 0.22019 0.94144 0.0
O102 O 0.03844 0.21529 0.91761 0.0
O103 O 0.99675 0.25988 0.90743 0.0
C104 C 0.39938 0.08644 0.30335 0.0
O105 O 0.42123 0.09085 0.30761 0.0
O106 O 0.42447 0.03903 0.28194 0.0
Zn107 Zn 0.40546 0.04063 0.30996 0.0
O108 O 0.42733 0.05326 0.34063 0.0
C109 C 0.37459 0.99216 0.292 0.0
O110 O 0.37201 1.0002 0.27122 0.0
O111 O 0.38762 0.06519 0.30489 0.0
C112 C 0.4351 0.03676 0.34885 0.0
O113 O 0.42683 0.01301 0.3386 0.0
C114 C 0.43519 0.02245 0.27511 0.0
O115 O 0.43252 1.00272 0.28533 0.0
O116 O 0.38699 1.00668 0.31069 0.0
C117 C 0.3492 0.18309 0.51645 0.0
O118 O 0.35384 0.20566 0.53069 0.0
O119 O 0.30795 0.21277 0.54393 0.0
Zn120 Zn 0.30486 0.1925 0.50823 0.0
O121 O 0.30445 0.2127 0.48091 0.0
C122 C 0.25902 0.17117 0.51379 0.0
O123 O 0.26049 0.1939 0.52666 0.0
O124 O 0.32972 0.17409 0.50484 0.0
C125 C 0.29368 0.22968 0.48122 0.0
O126 O 0.28257 0.23536 0.50028 0.0
C127 C 0.31465 0.23628 0.55225 0.0
O128 O 0.32127 0.25102 0.5368 0.0
O129 O 0.27588 0.1662 0.50357 0.0
C130 C 0.20975 0.9647 0.78339 0.0
O131 O 0.19802 0.96388 0.80252 0.0
O132 O 0.16928 0.01256 0.73571 0.0
Zn133 Zn 0.18834 0.01322 0.77315 0.0
O134 O 0.17002 0.01715 0.80801 0.0
C135 C 0.20992 0.0688 0.76969 0.0
O136 O 0.19129 0.06631 0.75546 0.0
O137 O 0.20797 0.98173 0.7704 0.0
C138 C 0.15414 1.0042 0.81812 0.0
O139 O 0.14397 0.98163 0.8057 0.0
C140 C 0.14954 0.01434 0.72739 0.0
O141 O 0.13467 0.01556 0.74341 0.0
O142 O 0.21256 0.04976 0.7788 0.0
C143 C 0.29406 0.97112 0.0499 0.0
O144 O 0.28639 0.95132 0.05921 0.0
O145 O 0.33427 0.93667 0.06934 0.0
Zn146 Zn 0.33054 0.94733 0.03658 0.0
O147 O 0.31809 0.9177 0.00812 0.0
C148 C 0.36847 0.98773 0.03362 0.0
O149 O 0.3553 1.00233 0.0417 0.0
O150 O 0.31179 0.97261 0.03917 0.0
C151 C 0.33191 0.90634 0.99779 0.0
O152 O 0.35315 0.91374 1.00655 0.0
C153 C 0.32767 0.91439 0.0724 0.0
O154 O 0.31659 0.89691 0.05355 0.0
O155 O 0.36128 0.96412 0.03001 0.0
C156 C 0.2979 0.42518 0.05545 0.0
O157 O 0.29874 0.41049 0.07138 0.0
O158 O 0.33876 0.39425 0.07195 0.0
Zn159 Zn 0.33816 0.40941 0.04078 0.0
O160 O 0.33649 0.38745 1.00612 0.0
C161 C 0.37599 0.45096 0.06371 0.0
O162 O 0.36456 0.45245 0.08314 0.0
O163 O 0.31292 0.4277 0.04062 0.0
C164 C 0.33177 0.36506 0.99342 0.0
O165 O 0.32479 0.34624 1.00434 0.0
C166 C 0.33348 0.37258 0.07707 0.0
O167 O 0.32569 0.35285 0.05899 0.0
O168 O 0.36774 0.43464 0.04397 0.0
C169 C 0.82163 0.08742 0.01453 0.0
O170 O 0.80264 0.08561 1.00126 0.0
O171 O 0.81553 0.14899 0.07836 0.0
Zn172 Zn 0.80674 0.12663 0.04423 0.0
O173 O 0.80615 0.15041 0.02122 0.0
C174 C 0.76112 0.11956 0.04858 0.0
O175 O 0.76795 0.14407 0.05518 0.0
O176 O 0.8274 0.10415 0.03449 0.0
C177 C 0.79288 0.14731 1.00162 0.0
O178 O 0.77898 0.12547 0.99286 0.0
C179 C 0.82829 0.17047 0.0795 0.0
O180 O 0.8382 0.17501 0.05978 0.0
O181 O 0.77539 0.10672 0.04309 0.0
C182 C 0.20678 0.47243 0.25855 0.0
O183 O 0.18516 0.4704 0.25807 0.0
O184 O 0.1849 0.49546 0.1999 0.0
Zn185 Zn 0.20152 0.51086 0.2338 0.0
O186 O 0.17834 0.51653 0.25688 0.0
C187 C 0.2162 0.55619 0.21629 0.0
O188 O 0.19858 0.54563 0.19999 0.0
O189 O 0.21825 0.48823 0.24762 0.0
C190 C 0.16876 0.53458 0.26028 0.0
O191 O 0.1745 0.55307 0.2486 0.0
C192 C 0.16521 0.4818 0.19767 0.0
O193 O 0.15741 0.47406 0.21728 0.0
O194 O 0.22142 0.5445 0.23272 0.0
C195 C 0.79774 0.93192 0.56527 0.0
O196 O 0.80539 0.92935 0.58731 0.0
O197 O 0.82661 0.8838 0.57562 0.0
Zn198 Zn 0.83007 0.90328 0.54737 0.0
O199 O 0.82909 0.88224 0.51238 0.0
C200 C 0.87831 0.92366 0.55275 0.0
O201 O 0.8791 0.89998 0.54793 0.0
O202 O 0.80558 0.9222 0.54591 0.0
C203 C 0.82849 0.85908 0.50523 0.0
O204 O 0.82821 0.84499 0.5219 0.0
C205 C 0.80757 0.87076 0.5783 0.0
O206 O 0.79062 0.86878 0.56168 0.0
O207 O 0.85943 0.92918 0.55405 0.0
C208 C 0.91948 0.12901 0.27096 0.0
O209 O 0.92629 0.126 0.24859 0.0
O210 O 0.9626 0.0821 0.24595 0.0
Zn211 Zn 0.94303 0.08187 0.27995 0.0
O212 O 0.96539 0.08303 0.31507 0.0
C213 C 0.92386 0.02518 0.27909 0.0
O214 O 0.94462 0.02605 0.28696 0.0
O215 O 0.92429 0.1142 0.28533 0.0
C216 C 0.96054 0.0728 0.33418 0.0
O217 O 0.93971 0.06083 0.33426 0.0
C218 C 0.96245 0.06496 0.22608 0.0
O219 O 0.94883 0.04292 0.22424 0.0
O220 O 0.91929 0.04546 0.27449 0.0
C221 C 0.36184 0.66563 0.50428 0.0
O222 O 0.36566 0.68996 0.50607 0.0
O223 O 0.32999 0.69193 0.55701 0.0
Zn224 Zn 0.32009 0.6725 0.52177 0.0
O225 O 0.31453 0.69603 0.49942 0.0
C226 C 0.27614 0.65702 0.53436 0.0
O227 O 0.28159 0.6803 0.54693 0.0
O228 O 0.34319 0.65393 0.5095 0.0
C229 C 0.30817 0.71587 0.50788 0.0
O230 O 0.30581 0.72171 0.53175 0.0
C231 C 0.34354 0.71333 0.56258 0.0
O232 O 0.35306 0.72304 0.54479 0.0
O233 O 0.29049 0.64838 0.52201 0.0
C234 C 0.41876 0.62211 0.76961 0.0
O235 O 0.42733 0.6207 0.7482 0.0
O236 O 0.46076 0.57602 0.74373 0.0
Zn237 Zn 0.4415 0.57447 0.77752 0.0
O238 O 0.46461 0.57547 0.81169 0.0
C239 C 0.42162 0.51816 0.77964 0.0
O240 O 0.44079 0.52058 0.79281 0.0
O241 O 0.42239 0.60627 0.78331 0.0
C242 C 0.46 0.57186 0.83377 0.0
O243 O 0.43895 0.56826 0.83809 0.0
C244 C 0.46184 0.55893 0.72435 0.0
O245 O 0.44995 0.53609 0.72311 0.0
O246 O 0.41822 0.5374 0.77141 0.0
C247 C 0.73176 0.98365 0.73421 0.0
O248 O 0.72257 0.97978 0.71108 0.0
O249 O 0.69245 0.01322 0.71062 0.0
Zn250 Zn 0.7106 0.02525 0.74368 0.0
O251 O 0.68844 0.02552 0.76852 0.0
C252 C 0.7497 0.06519 0.74323 0.0
O253 O 0.76049 0.04726 0.73963 0.0
O254 O 0.72916 1.00202 0.75031 0.0
C255 C 0.67706 0.04198 0.77119 0.0
O256 O 0.68104 0.05999 0.75861 0.0
C257 C 0.69672 0.02425 0.6927 0.0
O258 O 0.71484 0.04234 0.69513 0.0
O259 O 0.72904 0.05993 0.74603 0.0
C260 C 0.82431 0.64422 1.00631 0.0
O261 O 0.80574 0.62921 0.99425 0.0
O262 O 0.80067 0.70397 0.04968 0.0
Zn263 Zn 0.80022 0.68561 0.01385 0.0
O264 O 0.80783 0.70786 0.98843 0.0
C265 C 0.75304 0.67228 1.00253 0.0
O266 O 0.75707 0.69678 1.00566 0.0
O267 O 0.82475 0.66704 0.01518 0.0
C268 C 0.79741 0.70213 0.9665 0.0
O269 O 0.7805 0.68247 0.96062 0.0
C270 C 0.803 0.72672 0.06062 0.0
O271 O 0.80586 0.74433 0.04753 0.0
O272 O 0.76939 0.6621 1.00458 0.0
C273 C 0.91268 0.57987 0.78875 0.0
O274 O 0.92874 0.59819 0.80169 0.0
O275 O 0.96015 0.54035 0.79108 0.0
Zn276 Zn 0.93412 0.54484 0.80993 0.0
O277 O 0.94601 0.56566 0.84397 0.0
C278 C 0.89848 0.50087 0.80881 0.0
O279 O 0.88532 0.5139 0.80073 0.0
O280 O 0.9123 0.55744 0.79023 0.0
C281 C 0.96366 0.58318 0.84761 0.0
O282 O 0.972 0.59105 0.8283 0.0
C283 C 0.96793 0.55368 0.77588 0.0
O284 O 0.9585 0.57156 0.77157 0.0
O285 O 0.91925 0.51065 0.81418 0.0
C286 C 0.8055 0.49306 0.52908 0.0
O287 O 0.79758 0.4741 0.51021 0.0
O288 O 0.84421 0.45631 0.56899 0.0
Zn289 Zn 0.84315 0.46936 0.53733 0.0
O290 O 0.83229 0.4406 0.50769 0.0
C291 C 0.8898 0.47572 0.53069 0.0
O292 O 0.88476 0.45128 0.5284 0.0
O293 O 0.82382 0.49425 0.54174 0.0
C294 C 0.837 0.44307 0.48594 0.0
O295 O 0.84766 0.46512 0.48272 0.0
C296 C 0.84171 0.43336 0.56993 0.0
O297 O 0.83793 0.41636 0.54905 0.0
O298 O 0.87451 0.48754 0.5342 0.0
C299 C 0.71547 0.47528 0.28424 0.0
O300 O 0.71219 0.48197 0.30776 0.0
O301 O 0.66656 0.5201 0.24002 0.0
Zn302 Zn 0.69026 0.52023 0.2735 0.0
O303 O 0.67434 0.52444 0.30984 0.0
C304 C 0.71097 0.57742 0.27816 0.0
O305 O 0.69028 0.57922 0.2803 0.0
O306 O 0.7081 0.48736 0.26847 0.0
C307 C 0.65592 0.51375 0.31774 0.0
O308 O 0.64191 0.49548 0.30193 0.0
C309 C 0.67148 0.52527 0.21852 0.0
O310 O 0.69267 0.52975 0.21475 0.0
O311 O 0.71502 0.55543 0.27575 0.0
Tb312 Tb 0.0418 0.0223 0.011 0.0
C313 C 0.09809 0.11699 0.08095 0.0
C314 C 0.10246 0.14895 0.05635 0.0
C315 C 0.10325 0.16066 0.10147 0.0
C316 C 0.09875 0.12354 0.05802 0.0
C317 C 0.10089 0.13548 0.10306 0.0
C318 C 0.10405 0.1674 0.07813 0.0
C319 C 0.10116 0.10318 0.1266 0.0
N320 N 0.09615 0.09254 0.08163 0.0
C321 C 0.09858 0.08558 0.10415 0.0
C322 C 0.102 0.1282 0.12607 0.0
Tb323 Tb 0.09109 0.06473 0.04383 0.0
N324 N 0.09748 0.10516 0.03755 0.0
C325 C 0.10194 0.11141 0.01508 0.0
C326 C 0.1054 0.15514 0.03305 0.0
C327 C 0.10555 0.13632 0.01241 0.0
H328 H 0.09788 0.06633 0.10495 0.0
H329 H 0.10834 0.14092 0.99438 0.0
H330 H 0.10662 0.18698 0.07719 0.0
H331 H 0.10248 0.09743 0.14431 0.0
H332 H 0.10197 0.09731 0.99876 0.0
H333 H 0.02488 0.9491 0.06408 0.0
H334 H 0.10824 0.17441 0.03094 0.0
H335 H 0.03335 0.01728 0.94954 0.0
H336 H 0.03049 0.99201 0.05751 0.0
H337 H 0.02969 0.98475 0.91127 0.0
H338 H 0.10518 0.17513 0.11822 0.0
H339 H 0.02684 0.91458 0.02931 0.0
H340 H 0.02989 0.90023 0.98355 0.0
H341 H 0.10411 0.14182 0.14348 0.0
H342 H 0.03129 0.91001 0.94161 0.0
N343 N 0.03621 0.98264 0.0192 0.0
C344 C 0.0313 0.97739 0.04194 0.0
C345 C 0.0293 0.93351 0.02622 0.0
C346 C 0.03265 0.93863 1.00256 0.0
C347 C 0.02813 0.95292 0.04586 0.0
C348 C 0.0358 0.96363 0.99961 0.0
H349 H 0.0307 0.94146 0.91436 0.0
N350 N 0.0372 0.99294 0.97428 0.0
C351 C 0.03172 0.98008 0.92943 0.0
C352 C 0.03645 0.96902 0.97621 0.0
C353 C 0.03371 0.99844 0.9512 0.0
C354 C 0.0324 0.9557 0.93125 0.0
C355 C 0.0342 0.94975 0.95485 0.0
O356 O 0.01346 0.02786 0.9914 0.0
O357 O 0.05902 0.06138 0.02381 0.0
O358 O 0.06409 0.07117 0.06738 0.0
O359 O 0.03728 0.03401 0.0523 0.0
O360 O 0.04237 0.05102 0.98869 0.0
O361 O 0.01106 0.01491 0.02587 0.0
O362 O 0.11889 0.05663 0.06191 0.0
O363 O 0.07401 0.02551 0.03047 0.0
O364 O 0.06859 0.01838 0.98541 0.0
O365 O 0.09513 0.05514 1.00291 0.0
O366 O 0.08958 0.03561 0.06594 0.0
O367 O 0.12205 0.07343 0.02965 0.0
C368 C 0.05407 0.06987 1.00477 0.0
C369 C 0.97903 1.00223 0.99655 0.0
C370 C 0.9387 0.99468 0.98663 0.0
C371 C 0.95954 1.01108 0.99595 0.0
C372 C 0.93777 0.96919 0.97745 0.0
C373 C 0.97783 0.97677 0.98747 0.0
C374 C 0.95726 0.96036 0.97786 0.0
C375 C 0.0456 0.05478 0.07005 0.0
C376 C 1.0002 0.02002 1.00718 0.0
C377 C 0.03273 0.92506 0.95775 0.0
C378 C 0.03194 0.91949 0.98162 0.0
C379 C 0.0785 0.01675 0.04945 0.0
C380 C 0.15407 0.08177 0.05868 0.0
C381 C 0.17249 0.07104 0.05868 0.0
C382 C 0.19374 0.0854 0.06939 0.0
C383 C 0.19631 0.11089 0.08015 0.0
C384 C 0.15677 0.10716 0.06956 0.0
C385 C 0.17786 0.12164 0.08028 0.0
C386 C 0.0871 0.03553 0.984 0.0
C387 C 0.13242 0.0658 0.04698 0.0
H388 H 0.9607 0.03088 1.0027 0.0
H389 H 0.92197 0.95602 0.97035 0.0
H390 H 0.99266 0.96956 0.98791 0.0
H391 H 0.9564 0.9407 0.97091 0.0
H392 H 0.17029 0.05148 0.04984 0.0
H393 H 0.2125 0.12241 0.0886 0.0
H394 H 0.14272 0.11577 0.06966 0.0
H395 H 0.17994 0.14125 0.08866 0.0
Tb396 Tb 0.3248 0.76312 0.23196 0.0
C397 C 0.31305 0.82781 0.33056 0.0
C398 C 0.3271 0.81569 0.36749 0.0
C399 C 0.32533 0.85892 0.36927 0.0
C400 C 0.31851 0.80971 0.34204 0.0
C401 C 0.31596 0.85257 0.34419 0.0
C402 C 0.33086 0.84049 0.38092 0.0
C403 C 0.29799 0.86226 0.30815 0.0
N404 N 0.30374 0.82085 0.30642 0.0
C405 C 0.29534 0.83746 0.29548 0.0
C406 C 0.30865 0.86997 0.3325 0.0
Tb407 Tb 0.29869 0.77935 0.288 0.0
N408 N 0.31447 0.78595 0.3285 0.0
C409 C 0.31765 0.76692 0.33978 0.0
C410 C 0.33111 0.79646 0.37882 0.0
C411 C 0.32633 0.77196 0.3649 0.0
H412 H 0.28691 0.83187 0.27673 0.0
H413 H 0.32934 0.75694 0.37347 0.0
H414 H 0.33758 0.84549 0.40044 0.0
H415 H 0.29179 0.8754 0.29911 0.0
H416 H 0.31392 0.74785 0.32933 0.0
H417 H 0.29544 0.77214 0.13973 0.0
H418 H 0.33764 0.80026 0.39835 0.0
H419 H 0.33949 0.71276 0.24937 0.0
H420 H 0.31423 0.78733 0.18275 0.0
H421 H 0.33195 0.66797 0.23339 0.0
H422 H 0.32784 0.87787 0.38 0.0
H423 H 0.28095 0.72667 0.12314 0.0
H424 H 0.27789 0.68267 0.12906 0.0
H425 H 0.31062 0.88917 0.34229 0.0
H426 H 0.28808 0.65428 0.15462 0.0
N427 N 0.30925 0.75093 0.19106 0.0
C428 C 0.30781 0.76746 0.17578 0.0
C429 C 0.289 0.73327 0.14213 0.0
C430 C 0.29232 0.71639 0.15704 0.0
C431 C 0.2972 0.75893 0.15139 0.0
C432 C 0.30289 0.72596 0.18165 0.0
H433 H 0.30868 0.64867 0.19321 0.0
N434 N 0.32016 0.72032 0.21902 0.0
C435 C 0.32511 0.67957 0.22275 0.0
C436 C 0.30873 0.71011 0.19601 0.0
C437 C 0.32933 0.70543 0.23181 0.0
C438 C 0.31198 0.66874 0.20009 0.0
C439 C 0.30402 0.68407 0.18612 0.0
O440 O 0.35928 0.77672 0.24352 0.0
O441 O 0.32206 0.79173 0.26278 0.0
O442 O 0.27969 0.78804 0.25657 0.0
O443 O 0.29221 0.76996 0.21958 0.0
O444 O 0.32706 0.80213 0.22926 0.0
O445 O 0.34747 0.76461 0.20474 0.0
O446 O 0.26774 0.78912 0.29045 0.0
O447 O 0.29931 0.75144 0.25498 0.0
O448 O 0.34081 0.75359 0.26519 0.0
O449 O 0.3342 0.78181 0.29933 0.0
O450 O 0.29447 0.73931 0.28744 0.0
O451 O 0.2737 0.75686 0.30354 0.0
C452 C 0.32488 0.8102 0.25233 0.0
C453 C 0.3795 0.79826 0.21636 0.0
C454 C 0.38571 0.83618 0.19927 0.0
C455 C 0.37145 0.81406 0.20284 0.0
C456 C 0.40823 0.84222 0.2094 0.0
C457 C 0.40198 0.80465 0.22635 0.0
C458 C 0.41626 0.82653 0.22285 0.0
C459 C 0.278 0.78116 0.23184 0.0
C460 C 0.36466 0.7755 0.22099 0.0
C461 C 0.29215 0.67425 0.1623 0.0
C462 C 0.28632 0.6904 0.14777 0.0
C463 C 0.29569 0.73211 0.26403 0.0
C464 C 0.25152 0.78059 0.32654 0.0
C465 C 0.26061 0.77701 0.34931 0.0
C466 C 0.25216 0.78505 0.37183 0.0
C467 C 0.23459 0.7973 0.37135 0.0
C468 C 0.23394 0.79275 0.3264 0.0
C469 C 0.22559 0.80113 0.34874 0.0
C470 C 0.3461 0.76636 0.28878 0.0
C471 C 0.2604 0.77197 0.30297 0.0
H472 H 0.35404 0.80933 0.19539 0.0
H473 H 0.41976 0.85888 0.20665 0.0
H474 H 0.40845 0.79276 0.23695 0.0
H475 H 0.43362 0.83132 0.23056 0.0
H476 H 0.27436 0.76797 0.34958 0.0
H477 H 0.22749 0.80347 0.38832 0.0
H478 H 0.22671 0.79577 0.30902 0.0
H479 H 0.21199 0.81046 0.3485 0.0
Tb480 Tb 0.59867 0.05372 0.5115 0.0
C481 C 0.52634 1.00381 0.56724 0.0
C482 C 0.50702 0.96446 0.53989 0.0
C483 C 0.51095 0.96776 0.58489 0.0
C484 C 0.51932 0.9895 0.54327 0.0
C485 C 0.5219 0.99315 0.58829 0.0
C486 C 0.50346 0.95347 0.56076 0.0
C487 C 0.53777 0.03393 0.61459 0.0
N488 N 0.53675 0.02844 0.56991 0.0
C489 C 0.54174 0.04377 0.59323 0.0
C490 C 0.52806 1.00848 0.61213 0.0
Tb491 Tb 0.54357 0.04109 0.53303 0.0
N492 N 0.5228 1.00074 0.52344 0.0
C493 C 0.51186 0.98905 0.50035 0.0
C494 C 0.49772 0.95158 0.51577 0.0
C495 C 0.49966 0.96415 0.49604 0.0
H496 H 0.54965 0.06337 0.59563 0.0
H497 H 0.49168 0.95472 0.47751 0.0
H498 H 0.49431 0.93416 0.55848 0.0
H499 H 0.54228 0.04598 0.63296 0.0
H500 H 0.51254 0.9986 0.48502 0.0
H501 H 0.64279 0.14442 0.56573 0.0
H502 H 0.48818 0.93232 0.51239 0.0
H503 H 0.59507 0.02914 0.45115 0.0
H504 H 0.62208 0.10042 0.55928 0.0
H505 H 0.60503 0.04338 0.41246 0.0
H506 H 0.50759 0.95919 0.60083 0.0
H507 H 0.65172 0.16364 0.52934 0.0
H508 H 0.6507 0.15843 0.48253 0.0
H509 H 0.52497 1.00096 0.62875 0.0
H510 H 0.64051 0.13085 0.44073 0.0
N511 N 0.61851 0.09466 0.5195 0.0
C512 C 0.6258 0.10842 0.54315 0.0
C513 C 0.64256 0.14426 0.52638 0.0
C514 C 0.6361 0.1297 0.50222 0.0
C515 C 0.6376 0.13346 0.54694 0.0
C516 C 0.62409 0.10464 0.49945 0.0
H517 H 0.62365 0.08776 0.41439 0.0
N518 N 0.6076 0.06517 0.47473 0.0
C519 C 0.60885 0.05653 0.43027 0.0
C520 C 0.61843 0.0893 0.47615 0.0
C521 C 0.60332 0.0485 0.45225 0.0
C522 C 0.61931 0.0816 0.43142 0.0
C523 C 0.62448 0.0983 0.45461 0.0
O524 O 0.61954 0.02968 0.49988 0.0
O525 O 0.56911 0.02619 0.5153 0.0
O526 O 0.56709 0.03016 0.55759 0.0
O527 O 0.59975 0.05722 0.552 0.0
O528 O 0.58956 0.0142 0.49093 0.0
O529 O 0.62788 0.05643 0.53498 0.0
O530 O 0.52783 0.06732 0.52074 0.0
O531 O 0.57213 0.06895 0.52791 0.0
O532 O 0.57466 0.06209 0.48521 0.0
O533 O 0.54272 0.03407 0.49217 0.0
O534 O 0.55604 0.07824 0.55819 0.0
O535 O 0.50911 0.03759 0.53553 0.0
C536 C 0.57191 1.00671 0.50116 0.0
C537 C 0.65766 0.04309 0.51564 0.0
C538 C 0.69344 0.03171 0.52143 0.0
C539 C 0.67088 0.02913 0.52582 0.0
C540 C 0.70257 0.04867 0.50672 0.0
C541 C 0.66708 0.06 0.50117 0.0
C542 C 0.68947 0.06275 0.49678 0.0
C543 C 0.58829 0.04149 0.5643 0.0
C544 C 0.63392 0.03886 0.51969 0.0
C545 C 0.63582 0.12347 0.45705 0.0
C546 C 0.64161 0.13917 0.48084 0.0
C547 C 0.57207 0.0869 0.54588 0.0
C548 C 0.49833 0.07591 0.54337 0.0
C549 C 0.48104 0.08459 0.53263 0.0
C550 C 0.47085 0.10159 0.54743 0.0
C551 C 0.47841 0.10977 0.57309 0.0
C552 C 0.50551 0.08435 0.56897 0.0
C553 C 0.49564 0.10125 0.58369 0.0
C554 C 0.5538 0.0489 0.47855 0.0
C555 C 0.50872 0.05801 0.5278 0.0
H556 H 0.66341 0.01588 0.53678 0.0
H557 H 0.71991 0.05132 0.5032 0.0
H558 H 0.65712 0.07085 0.49315 0.0
H559 H 0.69669 0.07583 0.48559 0.0
H560 H 0.47566 0.0782 0.51279 0.0
H561 H 0.47072 0.12239 0.58516 0.0
H562 H 0.51862 0.07779 0.57766 0.0
H563 H 0.50122 0.10758 0.60346 0.0
Tb564 Tb 0.28834 0.2972 0.76685 0.0
C565 C 0.36105 0.2606 0.82032 0.0
C566 C 0.37561 0.29156 0.85813 0.0
C567 C 0.37533 0.24787 0.85695 0.0
C568 C 0.36517 0.28493 0.83335 0.0
C569 C 0.3667 0.24185 0.83163 0.0
C570 C 0.37985 0.27276 0.87019 0.0
C571 C 0.35797 0.21369 0.79122 0.0
N572 N 0.35341 0.25585 0.79576 0.0
C573 C 0.3528 0.23302 0.78085 0.0
C574 C 0.36458 0.21799 0.81683 0.0
Tb575 Tb 0.34436 0.2883 0.78036 0.0
N576 N 0.36149 0.3025 0.82068 0.0
C577 C 0.37034 0.32731 0.83092 0.0
C578 C 0.38278 0.31694 0.86943 0.0
C579 C 0.38063 0.3349 0.85553 0.0
H580 H 0.34753 0.22941 0.76106 0.0
H581 H 0.3869 0.35461 0.86373 0.0
H582 H 0.38751 0.27742 0.88936 0.0
H583 H 0.35682 0.19549 0.77947 0.0
H584 H 0.36907 0.34156 0.82053 0.0
H585 H 0.25623 0.22882 0.68101 0.0
H586 H 0.39092 0.32286 0.88841 0.0
H587 H 0.28142 0.35469 0.78443 0.0
H588 H 0.27114 0.24292 0.7251 0.0
H589 H 0.27046 0.38705 0.76474 0.0
H590 H 0.37951 0.23369 0.86612 0.0
H591 H 0.2496 0.25949 0.65601 0.0
H592 H 0.24856 0.304 0.65488 0.0
H593 H 0.36874 0.20305 0.8248 0.0
H594 H 0.25228 0.3473 0.67783 0.0
N595 N 0.27362 0.28173 0.72573 0.0
C596 C 0.2683 0.25675 0.71483 0.0
C597 C 0.25615 0.26589 0.67555 0.0
C598 C 0.26012 0.29117 0.68717 0.0
C599 C 0.25981 0.24854 0.6896 0.0
C600 C 0.26874 0.29847 0.71263 0.0
H601 H 0.25993 0.37835 0.71903 0.0
N602 N 0.27764 0.32802 0.75015 0.0
C603 C 0.27059 0.36903 0.75339 0.0
C604 C 0.27082 0.32259 0.72536 0.0
C605 C 0.27671 0.35058 0.7645 0.0
C606 C 0.26475 0.36408 0.72758 0.0
C607 C 0.2644 0.34045 0.71327 0.0
O608 O 0.26467 0.30694 0.7907 0.0
O609 O 0.31487 0.29745 0.79465 0.0
O610 O 0.32006 0.25674 0.79047 0.0
O611 O 0.28731 0.25695 0.76691 0.0
O612 O 0.29548 0.32268 0.80336 0.0
O613 O 0.25896 0.27003 0.76786 0.0
O614 O 0.36701 0.2772 0.75572 0.0
O615 O 0.31846 0.28989 0.7528 0.0
O616 O 0.3124 0.33031 0.75922 0.0
O617 O 0.34572 0.32901 0.78147 0.0
O618 O 0.33555 0.26297 0.74353 0.0
O619 O 0.37413 0.3144 0.77801 0.0
C620 C 0.31184 0.31472 0.81166 0.0
C621 C 0.22705 0.28554 0.77729 0.0
C622 C 0.18897 0.28243 0.78932 0.0
C623 C 0.21165 0.28237 0.79507 0.0
C624 C 0.18217 0.28585 0.76545 0.0
C625 C 0.2197 0.28883 0.7537 0.0
C626 C 0.19741 0.28898 0.74786 0.0
C627 C 0.29933 0.2455 0.77985 0.0
C628 C 0.25064 0.28526 0.7835 0.0
C629 C 0.25705 0.33379 0.68757 0.0
C630 C 0.25493 0.30915 0.67451 0.0
C631 C 0.32037 0.27267 0.73524 0.0
C632 C 0.40513 0.29742 0.76779 0.0
C633 C 0.4206 0.30146 0.75018 0.0
C634 C 0.44315 0.30055 0.75544 0.0
C635 C 0.44972 0.2954 0.7786 0.0
C636 C 0.41231 0.29241 0.79066 0.0
C637 C 0.43444 0.29142 0.79599 0.0
C638 C 0.33338 0.34107 0.76951 0.0
C639 C 0.38163 0.29852 0.76222 0.0
H640 H 0.21731 0.27958 0.81322 0.0
H641 H 0.16511 0.28656 0.76045 0.0
H642 H 0.23116 0.29123 0.73976 0.0
H643 H 0.19193 0.29165 0.72963 0.0
H644 H 0.41509 0.30554 0.73258 0.0
H645 H 0.46665 0.29395 0.78319 0.0
H646 H 0.40083 0.28926 0.80442 0.0
H647 H 0.43977 0.28741 0.81368 0.0
Tb648 Tb 0.06455 0.07767 0.54226 0.0
C649 C 0.05063 1.01073 0.45313 0.0
C650 C 0.01662 0.97797 0.44451 0.0
C651 C 0.03047 0.99826 0.41131 0.0
C652 C 0.03472 0.99361 0.46132 0.0
C653 C 0.04896 0.01288 0.42782 0.0
C654 C 0.01429 0.98084 0.41966 0.0
C655 C 0.08439 0.04297 0.43666 0.0
N656 N 0.06807 0.02482 0.46978 0.0
C657 C 0.08512 0.04052 0.46161 0.0
C658 C 0.06609 0.02934 0.41973 0.0
Tb659 Tb 0.06811 0.01886 0.51045 0.0
N660 N 0.03782 0.99109 0.48532 0.0
C661 C 0.02451 0.97117 0.49273 0.0
C662 C 1.00192 0.9592 0.45285 0.0
C663 C 1.00617 0.95546 0.47694 0.0
H664 H 0.0994 0.05168 0.47396 0.0
H665 H 0.99551 0.94025 0.48322 0.0
H666 H 1.00038 0.9692 0.40658 0.0
H667 H 0.09786 0.05567 0.43058 0.0
H668 H 0.02791 0.96754 0.51111 0.0
H669 H 0.13011 0.09303 0.61852 0.0
H670 H 0.98784 0.94683 0.44053 0.0
H671 H 0.01704 0.09665 0.5442 0.0
H672 H 0.11525 0.08724 0.57491 0.0
H673 H 0.99114 0.10522 0.57544 0.0
H674 H 0.02876 0.99994 0.39194 0.0
H675 H 0.10495 0.09404 0.65179 0.0
H676 H 0.06658 0.09471 0.66417 0.0
H677 H 0.06546 0.03149 0.40048 0.0
H678 H 0.02839 0.09805 0.65238 0.0
N679 N 0.08125 0.08398 0.58248 0.0
C680 C 0.10374 0.08762 0.58882 0.0
C681 C 0.09813 0.09132 0.63249 0.0
C682 C 0.07547 0.08964 0.6262 0.0
C683 C 0.1124 0.09094 0.61377 0.0
C684 C 0.06752 0.08637 0.60078 0.0
H685 H 1.00029 0.10275 0.61937 0.0
N686 N 0.03997 0.08779 0.56985 0.0
C687 C 1.00641 0.10019 0.58092 0.0
C688 C 0.04611 0.0884 0.59423 0.0
C689 C 0.0211 0.09523 0.56325 0.0
C690 C 0.01161 0.0987 0.60568 0.0
C691 C 0.03197 0.09349 0.61278 0.0
O692 O 0.07199 0.10375 0.51893 0.0
O693 O 0.06015 0.05369 0.50473 0.0
O694 O 0.10186 0.04264 0.51361 0.0
O695 O 0.09907 0.08193 0.5341 0.0
O696 O 0.0354 0.07121 0.51428 0.0
O697 O 0.07333 0.11622 0.5584 0.0
O698 O 0.09845 1.00894 0.50293 0.0
O699 O 0.07854 0.04557 0.54628 0.0
O700 O 0.03386 0.05251 0.54843 0.0
O701 O 0.03538 0.01376 0.52483 0.0
O702 O 0.06548 1.0096 0.54782 0.0
O703 O 0.06995 0.98134 0.50722 0.0
C704 C 0.0413 0.0568 0.49591 0.0
C705 C 0.06324 0.14273 0.53281 0.0
C706 C 0.0589 0.17429 0.50882 0.0
C707 C 0.068 0.15412 0.51238 0.0
C708 C 0.04445 0.18254 0.52556 0.0
C709 C 0.049 0.1515 0.54955 0.0
C710 C 0.03946 0.17109 0.54571 0.0
C711 C 0.11048 0.06674 0.52258 0.0
C712 C 0.07451 0.12297 0.53709 0.0
C713 C 0.03914 0.09456 0.63789 0.0
C714 C 0.06088 0.09265 0.6446 0.0
C715 C 0.07478 0.03106 0.56197 0.0
C716 C 0.10479 0.97881 0.52567 0.0
C717 C 0.09431 0.96394 0.54159 0.0
C718 C 0.1069 0.95759 0.56057 0.0
C719 C 0.13026 0.96623 0.56356 0.0
C720 C 0.12818 0.98719 0.52892 0.0
C721 C 0.14079 0.98098 0.54782 0.0
C722 C 0.02527 0.02846 0.53936 0.0
C723 C 0.09135 0.98642 0.50648 0.0
H724 H 0.07948 0.14792 0.49982 0.0
H725 H 0.03715 0.19797 0.52315 0.0
H726 H 0.04548 0.14359 0.56582 0.0
H727 H 0.02848 0.17771 0.55864 0.0
H728 H 0.07631 0.95703 0.53912 0.0
H729 H 0.14034 0.9617 0.57815 0.0
H730 H 0.13669 0.99874 0.51701 0.0
H731 H 0.15879 0.98765 0.5503 0.0
Tb732 Tb 0.34184 0.81746 0.78353 0.0
C733 C 0.27336 0.73479 0.80903 0.0
C734 C 0.28924 0.69899 0.79688 0.0
C735 C 0.26561 0.70019 0.83067 0.0
C736 C 0.28712 0.72309 0.79458 0.0
C737 C 0.26174 0.723 0.82654 0.0
C738 C 0.27932 0.68817 0.81581 0.0
C739 C 0.24029 0.7545 0.83099 0.0
N740 N 0.26948 0.7564 0.80391 0.0
C741 C 0.25207 0.76533 0.81327 0.0
C742 C 0.24557 0.73364 0.83817 0.0
Tb743 Tb 0.29095 0.7733 0.77588 0.0
N744 N 0.29592 0.73385 0.77606 0.0
C745 C 0.30409 0.71988 0.75711 0.0
C746 C 0.29985 0.68577 0.779 0.0
C747 C 0.30668 0.69596 0.7586 0.0
H748 H 0.24742 0.78111 0.8076 0.0
H749 H 0.31403 0.68546 0.74406 0.0
H750 H 0.28114 0.6699 0.81818 0.0
H751 H 0.22706 0.76217 0.83898 0.0
H752 H 0.30933 0.7273 0.74112 0.0
H753 H 0.31955 0.90284 0.82667 0.0
H754 H 0.30178 0.6672 0.78005 0.0
H755 H 0.37507 0.80696 0.7393 0.0
H756 H 0.3229 0.85945 0.8232 0.0
H757 H 0.39352 0.82913 0.70866 0.0
H758 H 0.25712 0.69104 0.84433 0.0
H759 H 0.3332 0.92654 0.79469 0.0
H760 H 0.35298 0.92827 0.75614 0.0
H761 H 0.23624 0.72514 0.8517 0.0
H762 H 0.37319 0.90823 0.72402 0.0
N763 N 0.33756 0.85777 0.78885 0.0
C764 C 0.32888 0.86932 0.80895 0.0
C765 C 0.33463 0.90735 0.79295 0.0
C766 C 0.34467 0.89597 0.77322 0.0
C767 C 0.32697 0.89406 0.81106 0.0
C768 C 0.346 0.8709 0.77176 0.0
H769 H 0.38869 0.87141 0.70641 0.0
N770 N 0.35915 0.83599 0.7538 0.0
C771 C 0.38326 0.83788 0.72111 0.0
C772 C 0.3573 0.85968 0.75369 0.0
C773 C 0.37274 0.82536 0.73854 0.0
C774 C 0.38045 0.86172 0.71986 0.0
C775 C 0.36766 0.8731 0.73655 0.0
O776 O 0.37441 0.81341 0.7914 0.0
O777 O 0.3271 0.77842 0.78634 0.0
O778 O 0.29708 0.78559 0.81638 0.0
O779 O 0.32895 0.81798 0.81984 0.0
O780 O 0.3551 0.78468 0.76858 0.0
O781 O 0.36232 0.84223 0.81443 0.0
O782 O 0.26805 0.78062 0.74958 0.0
O783 O 0.3057 0.8124 0.77473 0.0
O784 O 0.32839 0.81065 0.74463 0.0
O785 O 0.30876 0.7701 0.74235 0.0
O786 O 0.27667 0.80547 0.79039 0.0
O787 O 0.2669 0.7432 0.75359 0.0
C788 C 0.34162 0.76731 0.77617 0.0
C789 C 0.40076 0.85097 0.80746 0.0
C790 C 0.44082 0.85794 0.80399 0.0
C791 C 0.42056 0.84256 0.80778 0.0
C792 C 0.44106 0.88206 0.79996 0.0
C793 C 0.40137 0.87528 0.80383 0.0
C794 C 0.42145 0.89068 0.80004 0.0
C795 C 0.31272 0.80445 0.82956 0.0
C796 C 0.37965 0.83328 0.80922 0.0
C797 C 0.36552 0.89767 0.73717 0.0
C798 C 0.35402 0.90908 0.75546 0.0
C799 C 0.29104 0.82348 0.78464 0.0
C800 C 0.23236 0.75241 0.74432 0.0
C801 C 0.22126 0.77191 0.74999 0.0
C802 C 0.19782 0.76656 0.74944 0.0
C803 C 0.18574 0.74132 0.74355 0.0
C804 C 0.21989 0.72747 0.73858 0.0
C805 C 0.19675 0.72201 0.73839 0.0
C806 C 0.3188 0.78811 0.73157 0.0
C807 C 0.25678 0.75753 0.74367 0.0
H808 H 0.42007 0.82371 0.81036 0.0
H809 H 0.45647 0.89437 0.79715 0.0
H810 H 0.38641 0.88231 0.80366 0.0
H811 H 0.4218 0.90933 0.79708 0.0
H812 H 0.23081 0.79119 0.7547 0.0
H813 H 0.16768 0.73638 0.74218 0.0
H814 H 0.22805 0.71217 0.73406 0.0
H815 H 0.18726 0.70272 0.73375 0.0
Tb816 Tb 0.57099 0.03707 0.05533 0.0
C817 C 0.52018 0.09083 0.99121 0.0
C818 C 0.48588 0.06019 0.97422 0.0
C819 C 0.48665 0.10458 0.98101 0.0
C820 C 0.50864 0.06623 0.98365 0.0
C821 C 0.50958 0.11036 0.98923 0.0
C822 C 0.47478 0.07949 0.97359 0.0
C823 C 0.54553 0.13952 1.0013 0.0
N824 N 0.54227 0.09555 0.99894 0.0
C825 C 0.55522 0.11948 1.00317 0.0
C826 C 0.52254 0.13498 0.99465 0.0
Tb827 Tb 0.55692 0.06165 1.00081 0.0
N828 N 0.5201 0.04826 0.98429 0.0
C829 C 0.51006 0.02377 0.97384 0.0
C830 C 0.47519 0.03501 0.965 0.0
C831 C 0.48746 0.01677 0.96442 0.0
H832 H 0.57297 0.12319 0.00849 0.0
H833 H 0.47951 0.99728 0.9568 0.0
H834 H 0.45723 0.07524 0.96667 0.0
H835 H 0.55577 0.15846 1.00512 0.0
H836 H 0.51913 1.00931 0.97331 0.0
H837 H 0.6473 0.10077 0.10312 0.0
H838 H 0.45769 0.02953 0.9577 0.0
H839 H 0.55487 0.97542 0.0463 0.0
H840 H 0.60831 0.0891 0.08455 0.0
H841 H 0.57191 0.93999 0.04948 0.0
H842 H 0.4781 0.11932 0.97967 0.0
H843 H 0.66915 0.06854 0.10221 0.0
H844 H 0.66982 0.02293 0.09209 0.0
H845 H 0.51507 0.15053 0.99324 0.0
H846 H 0.64918 0.97893 0.07757 0.0
N847 N 0.60753 0.05027 0.0728 0.0
C848 C 0.61735 0.07462 0.08404 0.0
C849 C 0.65188 0.06319 0.09406 0.0
C850 C 0.64143 0.03813 0.08385 0.0
C851 C 0.63963 0.08143 0.09459 0.0
C852 C 0.61892 0.03223 0.07348 0.0
H853 H 0.61243 0.9478 0.06242 0.0
N854 N 0.58551 1.00303 0.05689 0.0
C855 C 0.58215 0.95894 0.0538 0.0
C856 C 0.60748 1.00766 0.06519 0.0
C857 C 0.57255 0.97907 0.05205 0.0
C858 C 0.60504 0.96341 0.06104 0.0
C859 C 0.61797 0.98805 0.06717 0.0
O860 O 0.54974 0.01894 0.07813 0.0
O861 O 0.54569 0.04373 0.03053 0.0
O862 O 0.54848 0.08547 0.03322 0.0
O863 O 0.57065 0.07716 0.06537 0.0
O864 O 0.5378 1.01159 0.04339 0.0
O865 O 0.57166 0.05546 0.09261 0.0
O866 O 0.57736 0.07939 0.97706 0.0
O867 O 0.5822 0.05541 0.02586 0.0
O868 O 0.58023 0.01388 0.02296 0.0
O869 O 0.55729 0.02158 0.99119 0.0
O870 O 0.59016 0.08717 0.01224 0.0
O871 O 0.55607 0.0423 0.96388 0.0
C872 C 0.53003 0.02499 0.03005 0.0
C873 C 0.56218 0.02922 0.12112 0.0
C874 C 0.55259 0.02674 0.16307 0.0
C875 C 0.54903 0.03414 0.14037 0.0
C876 C 0.56953 0.0141 0.16626 0.0
C877 C 0.57925 0.01687 0.1245 0.0
C878 C 0.58287 1.00934 0.14704 0.0
C879 C 0.55779 0.09054 0.05666 0.0
C880 C 0.55716 0.03686 0.0977 0.0
C881 C 0.64072 0.99373 0.07619 0.0
C882 C 0.65246 0.01878 0.08448 0.0
C883 C 0.59778 0.07418 0.02617 0.0
C884 C 0.56385 0.06745 0.93422 0.0
C885 C 0.57341 0.05791 0.91323 0.0
C886 C 0.56867 0.06393 0.89007 0.0
C887 C 0.55411 0.07972 0.88811 0.0
C888 C 0.54914 0.08299 0.93208 0.0
C889 C 0.54429 0.08905 0.90905 0.0
C890 C 0.57055 1.0085 0.99967 0.0
C891 C 0.56992 0.06092 0.95796 0.0
H892 H 0.53564 0.04337 0.13745 0.0
H893 H 0.57255 1.00816 0.18361 0.0
H894 H 0.58961 0.01294 0.10983 0.0
H895 H 0.596 0.99972 0.14959 0.0
H896 H 0.58504 0.04621 0.91512 0.0
H897 H 0.55026 0.08469 0.87044 0.0
H898 H 0.54158 0.09055 0.94809 0.0
H899 H 0.533 0.10113 0.90747 0.0
Tb900 Tb 0.34183 0.33448 0.30191 0.0
C901 C 0.26416 0.28851 0.22337 0.0
C902 C 0.23368 0.30352 0.24125 0.0
C903 C 0.23511 0.29684 0.19637 0.0
C904 C 0.25425 0.29673 0.24417 0.0
C905 C 0.25417 0.28737 0.19917 0.0
C906 C 0.22483 0.30489 0.21744 0.0
C907 C 0.2797 0.2631 0.18255 0.0
N908 N 0.28222 0.27892 0.22687 0.0
C909 C 0.28908 0.26479 0.20689 0.0
C910 C 0.26265 0.27513 0.1786 0.0
Tb911 Tb 0.29704 0.28408 0.26766 0.0
N912 N 0.26299 0.29438 0.26676 0.0
C913 C 0.2501 0.29453 0.28613 0.0
C914 C 0.22164 0.30646 0.26186 0.0
C915 C 0.2294 0.30087 0.28403 0.0
H916 H 0.30183 0.25479 0.2094 0.0
H917 H 0.21928 0.30149 0.29938 0.0
H918 H 0.2093 0.31059 0.21494 0.0
H919 H 0.28559 0.25242 0.16684 0.0
H920 H 0.25569 0.28999 0.30333 0.0
H921 H 0.40035 0.40197 0.26502 0.0
H922 H 0.20565 0.31137 0.26039 0.0
H923 H 0.34944 0.28653 0.32808 0.0
H924 H 0.36365 0.38184 0.27596 0.0
H925 H 0.38067 0.27087 0.3425 0.0
H926 H 0.22742 0.29655 0.17795 0.0
H927 H 0.43348 0.3859 0.27455 0.0
H928 H 0.4499 0.35554 0.29365 0.0
H929 H 0.25533 0.27367 0.15971 0.0
H930 H 0.44459 0.32021 0.31516 0.0
N931 N 0.37507 0.35266 0.28877 0.0
C932 C 0.37771 0.3738 0.27898 0.0
C933 C 0.41724 0.37655 0.27872 0.0
C934 C 0.4148 0.35599 0.29022 0.0
C935 C 0.39859 0.38559 0.27321 0.0
C936 C 0.39326 0.34441 0.29511 0.0
H937 H 0.419 0.28905 0.33404 0.0
N938 N 0.36938 0.31498 0.3123 0.0
C939 C 0.3837 0.28625 0.33283 0.0
C940 C 0.39035 0.325 0.30751 0.0
C941 C 0.3659 0.29564 0.32478 0.0
C942 C 0.40527 0.29648 0.32795 0.0
C943 C 0.40882 0.31602 0.31505 0.0
O944 O 0.34721 0.34597 0.34126 0.0
O945 O 0.3061 0.32015 0.29271 0.0
O946 O 0.30839 0.30877 0.24158 0.0
O947 O 0.34145 0.33702 0.26225 0.0
O948 O 0.31879 0.35637 0.2911 0.0
O949 O 0.34948 0.37291 0.31799 0.0
O950 O 0.30241 0.25146 0.27803 0.0
O951 O 0.33192 0.29644 0.28192 0.0
O952 O 0.32618 0.31386 0.32888 0.0
O953 O 0.2934 0.28612 0.30787 0.0
O954 O 0.32373 0.27245 0.24751 0.0
O955 O 0.27106 0.25126 0.25891 0.0
C956 C 0.30046 0.33964 0.28932 0.0
C957 C 0.33511 0.38269 0.35666 0.0
C958 C 0.30612 0.40643 0.36141 0.0
C959 C 0.31921 0.39352 0.34626 0.0
C960 C 0.30939 0.40854 0.38747 0.0
C961 C 0.33791 0.38485 0.38262 0.0
C962 C 0.32512 0.39773 0.39791 0.0
C963 C 0.3264 0.32712 0.2424 0.0
C964 C 0.34899 0.3694 0.34069 0.0
C965 C 0.43024 0.32695 0.30967 0.0
C966 C 0.43325 0.34701 0.29739 0.0
C967 C 0.33998 0.28546 0.26361 0.0
C968 C 0.28504 0.21486 0.24839 0.0
C969 C 0.30276 0.20364 0.25233 0.0
C970 C 0.30475 0.18208 0.23579 0.0
C971 C 0.28859 0.17134 0.21518 0.0
C972 C 0.26902 0.20409 0.22756 0.0
C973 C 0.27086 0.18244 0.21105 0.0
C974 C 0.30777 0.29628 0.32823 0.0
C975 C 0.28364 0.23764 0.26624 0.0
H976 H 0.31675 0.39152 0.32624 0.0
H977 H 0.29999 0.41867 0.39988 0.0
H978 H 0.35004 0.37664 0.39106 0.0
H979 H 0.32744 0.39941 0.41796 0.0
H980 H 0.31495 0.21146 0.26863 0.0
H981 H 0.28975 0.1545 0.20233 0.0
H982 H 0.25511 0.21232 0.22403 0.0
H983 H 0.25847 0.17419 0.19507 0.0
Tb984 Tb 0.56725 0.58288 0.04203 0.0
C985 C 0.58391 0.50467 0.95764 0.0
C986 C 0.55183 0.49608 0.92687 0.0
C987 C 0.58778 0.49145 0.91358 0.0
C988 C 0.56168 0.50379 0.95188 0.0
C989 C 0.59721 0.49816 0.93864 0.0
C990 C 0.56511 0.49042 0.90769 0.0
C991 C 0.62765 0.50383 0.97075 0.0
N992 N 0.5923 0.51111 0.98208 0.0
C993 C 0.61373 0.50996 0.98892 0.0
C994 C 0.61943 0.49812 0.94548 0.0
Tb995 Tb 0.56843 0.52195 0.01042 0.0
N996 N 0.54943 0.50916 0.97098 0.0
C997 C 0.52675 0.50541 0.96635 0.0
C998 C 0.52885 0.49364 0.92197 0.0
C999 C 0.51621 0.49799 0.94185 0.0
H1000 H 0.62038 0.51448 0.00835 0.0
H1001 H 0.49835 0.49576 0.93833 0.0
H1002 H 0.55791 0.48468 0.88834 0.0
H1003 H 0.64472 0.50352 0.97626 0.0
H1004 H 0.51663 0.50878 0.98137 0.0
H1005 H 0.63659 0.60724 0.115 0.0
H1006 H 0.52065 0.48787 0.90301 0.0
H1007 H 0.51626 0.5936 0.04311 0.0
H1008 H 0.6187 0.59413 0.07192 0.0
H1009 H 0.49241 0.60731 0.07446 0.0
H1010 H 0.59775 0.48656 0.89867 0.0
H1011 H 0.61447 0.61791 0.14979 0.0
H1012 H 0.5777 0.62421 0.16372 0.0
H1013 H 0.63022 0.49327 0.93145 0.0
H1014 H 0.53848 0.62451 0.15265 0.0
N1015 N 0.58608 0.59627 0.08162 0.0
C1016 C 0.60856 0.59864 0.08662 0.0
C1017 C 0.6064 0.61207 0.13078 0.0
C1018 C 0.58373 0.6111 0.12549 0.0
C1019 C 0.61893 0.60614 0.1112 0.0
C1020 C 0.57404 0.60322 0.10041 0.0
H1021 H 0.5066 0.61855 0.11937 0.0
N1022 N 0.54399 0.59659 0.06979 0.0
C1023 C 0.5092 0.60627 0.08032 0.0
C1024 C 0.55219 0.60349 0.09426 0.0
C1025 C 0.5229 0.59854 0.06254 0.0
C1026 C 0.51724 0.61255 0.10564 0.0
C1027 C 0.53908 0.61147 0.11289 0.0
O1028 O 0.55942 0.61286 0.02813 0.0
O1029 O 0.56087 0.55693 1.00564 0.0
O1030 O 0.59296 0.54848 0.99559 0.0
O1031 O 0.60036 0.58021 0.03091 0.0
O1032 O 0.53899 0.57842 0.01311 0.0
O1033 O 0.59344 0.6138 0.041 0.0
O1034 O 0.57774 0.49159 0.02208 0.0
O1035 O 0.57408 0.54738 0.04709 0.0
O1036 O 0.54186 0.55745 0.0566 0.0
O1037 O 0.5353 0.52349 0.02306 0.0
O1038 O 0.59627 0.52615 0.03971 0.0
O1039 O 0.5434 0.48943 0.00942 0.0
C1040 C 0.54346 0.5619 0.99579 0.0
C1041 C 0.58491 0.65253 0.03852 0.0
C1042 C 0.59938 0.69272 0.02728 0.0
C1043 C 0.59518 0.66648 0.02197 0.0
C1044 C 0.59312 0.7049 0.04966 0.0
C1045 C 0.57892 0.66477 0.06089 0.0
C1046 C 0.58308 0.69095 0.06642 0.0
C1047 C 0.60567 0.56934 0.00935 0.0
C1048 C 0.58018 0.62524 0.03096 0.0
C1049 C 0.54831 0.61849 0.13803 0.0
C1050 C 0.57063 0.61829 0.14432 0.0
C1051 C 0.59132 0.54219 0.05718 0.0
C1052 C 0.55511 0.45153 1.00453 0.0
C1053 C 0.55203 0.43321 0.01897 0.0
C1054 C 0.54968 0.40786 0.00793 0.0
C1055 C 0.5503 0.40105 0.98198 0.0
C1056 C 0.55581 0.44457 0.97869 0.0
C1057 C 0.5534 0.41937 0.96749 0.0
C1058 C 0.52923 0.53611 0.04349 0.0
C1059 C 0.5575 0.47761 0.01725 0.0
H1060 H 0.59939 0.65674 1.00449 0.0
H1061 H 0.59614 0.72513 0.05427 0.0
H1062 H 0.57094 0.65415 0.07384 0.0
H1063 H 0.57839 0.70047 0.08366 0.0
H1064 H 0.55112 0.43875 0.03888 0.0
H1065 H 0.54862 0.38167 0.97296 0.0
H1066 H 0.55815 0.45845 0.96724 0.0
H1067 H 0.55395 0.41403 0.94754 0.0
Tb1068 Tb 0.84239 0.3237 0.27399 0.0
C1069 C 0.78338 0.25192 0.32766 0.0
C1070 C 0.79262 0.21201 0.31428 0.0
C1071 C 0.77832 0.22144 0.35438 0.0
C1072 C 0.7915 0.23594 0.31032 0.0
C1073 C 0.77628 0.24472 0.34973 0.0
C1074 C 0.78647 0.20509 0.33666 0.0
C1075 C 0.76392 0.28305 0.35988 0.0
N1076 N 0.78148 0.27409 0.3223 0.0
C1077 C 0.77109 0.28927 0.33769 0.0
C1078 C 0.76678 0.26082 0.3661 0.0
Tb1079 Tb 0.79388 0.28276 0.28542 0.0
N1080 N 0.79704 0.24327 0.28888 0.0
C1081 C 0.80224 0.22657 0.26978 0.0
C1082 C 0.79916 0.19548 0.29531 0.0
C1083 C 0.80366 0.20267 0.2728 0.0
H1084 H 0.76868 0.30657 0.33341 0.0
H1085 H 0.80837 0.1899 0.25778 0.0
H1086 H 0.7874 0.18689 0.34014 0.0
H1087 H 0.7562 0.29544 0.37218 0.0
H1088 H 0.80595 0.23166 0.2523 0.0
H1089 H 0.82561 0.41567 0.2997 0.0
H1090 H 0.80026 0.17696 0.29761 0.0
H1091 H 0.869 0.3009 0.22696 0.0
H1092 H 0.83048 0.37503 0.30663 0.0
H1093 H 0.88035 0.31131 0.18745 0.0
H1094 H 0.77311 0.21565 0.37131 0.0
H1095 H 0.83074 0.42679 0.25851 0.0
H1096 H 0.84232 0.41589 0.21542 0.0
H1097 H 0.76112 0.256 0.38325 0.0
H1098 H 0.85759 0.38754 0.18488 0.0
N1099 N 0.8375 0.3623 0.26946 0.0
C1100 C 0.83281 0.37941 0.28854 0.0
C1101 C 0.83281 0.40876 0.26141 0.0
C1102 C 0.83919 0.392 0.2425 0.0
C1103 C 0.83002 0.40261 0.2847 0.0
C1104 C 0.84158 0.36874 0.24725 0.0
H1105 H 0.87235 0.34879 0.17456 0.0
N1106 N 0.85381 0.33175 0.23656 0.0
C1107 C 0.87178 0.32315 0.19925 0.0
C1108 C 0.8503 0.35301 0.23026 0.0
C1109 C 0.86522 0.31729 0.22181 0.0
C1110 C 0.86718 0.34426 0.192 0.0
C1111 C 0.85665 0.35975 0.20775 0.0
O1112 O 0.87594 0.32169 0.2793 0.0
O1113 O 0.83024 0.28806 0.28612 0.0
O1114 O 0.81325 0.29774 0.32186 0.0
O1115 O 0.83409 0.334 0.31241 0.0
O1116 O 0.85433 0.28908 0.26287 0.0
O1117 O 0.86505 0.35303 0.2992 0.0
O1118 O 0.76079 0.28621 0.27989 0.0
O1119 O 0.80614 0.31833 0.27344 0.0
O1120 O 0.82262 0.30887 0.23794 0.0
O1121 O 0.80278 0.27217 0.2472 0.0
O1122 O 0.78239 0.3176 0.29703 0.0
O1123 O 0.77118 0.25499 0.25876 0.0
C1124 C 0.84272 0.27449 0.27514 0.0
C1125 C 0.90141 0.36059 0.28612 0.0
C1126 C 0.94106 0.36926 0.27994 0.0
C1127 C 0.92262 0.35578 0.28953 0.0
C1128 C 0.93771 0.38783 0.26692 0.0
C1129 C 0.89876 0.3799 0.27406 0.0
C1130 C 0.91679 0.3933 0.26436 0.0
C1131 C 0.82558 0.32087 0.32871 0.0
C1132 C 0.88214 0.3439 0.29352 0.0
C1133 C 0.85303 0.38214 0.20218 0.0
C1134 C 0.8443 0.39825 0.21954 0.0
C1135 C 0.79391 0.33206 0.28458 0.0
C1136 C 0.7333 0.24873 0.26736 0.0
C1137 C 0.71373 0.25708 0.26411 0.0
C1138 C 0.69287 0.24184 0.26592 0.0
C1139 C 0.69163 0.21804 0.27122 0.0
C1140 C 0.732 0.22508 0.27314 0.0
C1141 C 0.71118 0.20985 0.27508 0.0
C1142 C 0.81077 0.2856 0.23092 0.0
C1143 C 0.7545 0.26507 0.26388 0.0
H1144 H 0.92454 0.34146 0.29974 0.0
H1145 H 0.95114 0.39813 0.25851 0.0
H1146 H 0.8828 0.38453 0.27186 0.0
H1147 H 0.9145 0.40781 0.2546 0.0
H1148 H 0.71467 0.27528 0.2595 0.0
H1149 H 0.6756 0.20592 0.27243 0.0
H1150 H 0.74692 0.21832 0.27591 0.0
H1151 H 0.71018 0.19155 0.27935 0.0
Tb1152 Tb 0.09433 0.55451 0.55997 0.0
C1153 C 0.0314 0.5955 0.49527 0.0
C1154 C 0.99938 0.56094 0.48006 0.0
C1155 C 0.99517 0.60372 0.48524 0.0
C1156 C 0.02225 0.57015 0.48887 0.0
C1157 C 0.01818 0.61266 0.49282 0.0
C1158 C 0.98576 0.57787 0.47892 0.0
C1159 C 0.05182 0.64584 0.5029 0.0
N1160 N 0.05367 0.60329 0.50228 0.0
C1161 C 0.06418 0.62807 0.5052 0.0
C1162 C 0.02865 0.63816 0.49708 0.0
Tb1163 Tb 0.07281 0.57293 0.50464 0.0
N1164 N 0.03605 0.55452 0.49004 0.0
C1165 C 0.02824 0.52935 0.48079 0.0
C1166 C 0.99109 0.53509 0.47193 0.0
C1167 C 1.0057 0.51928 0.47188 0.0
H1168 H 0.08206 0.6342 0.50983 0.0
H1169 H 0.99963 0.49931 0.46501 0.0
H1170 H 0.96811 0.57117 0.47246 0.0
H1171 H 0.06016 0.66546 0.50571 0.0
H1172 H 0.03911 0.51669 0.48067 0.0
H1173 H 0.16858 0.62564 0.6012 0.0
H1174 H 0.97363 0.52723 0.46506 0.0
H1175 H 0.08413 0.49261 0.55173 0.0
H1176 H 0.12887 0.60954 0.58592 0.0
H1177 H 0.10577 0.46039 0.55157 0.0
H1178 H 0.98465 0.6166 0.48351 0.0
H1179 H 0.19415 0.59703 0.59789 0.0
H1180 H 0.199 0.55286 0.58712 0.0
H1181 H 0.01912 0.65195 0.49529 0.0
H1182 H 0.18181 0.50769 0.57379 0.0
N1183 N 0.13131 0.57173 0.57417 0.0
C1184 C 0.13955 0.5966 0.58455 0.0
C1185 C 0.17657 0.58971 0.59131 0.0
C1186 C 0.16787 0.56411 0.58185 0.0
C1187 C 0.16223 0.60592 0.59316 0.0
C1188 C 0.14485 0.55561 0.57367 0.0
H1189 H 0.14694 0.47296 0.56086 0.0
N1190 N 0.11281 0.52318 0.56035 0.0
C1191 C 0.11428 0.48002 0.55574 0.0
C1192 C 0.13524 0.53036 0.56652 0.0
C1193 C 0.10207 0.49835 0.55595 0.0
C1194 C 0.13753 0.48719 0.56092 0.0
C1195 C 0.14827 0.51266 0.56683 0.0
O1196 O 0.07771 0.5357 0.58569 0.0
O1197 O 0.0658 0.5563 0.53638 0.0
O1198 O 0.06415 0.59685 0.53724 0.0
O1199 O 0.09055 0.5934 0.56818 0.0
O1200 O 0.06274 0.52547 0.55147 0.0
O1201 O 0.09613 0.57434 0.59688 0.0
O1202 O 0.08959 0.59138 0.47882 0.0
O1203 O 0.10114 0.57184 0.52873 0.0
O1204 O 0.10477 0.53323 0.52752 0.0
O1205 O 0.07724 0.53392 0.49669 0.0
O1206 O 0.10438 0.60205 0.51273 0.0
O1207 O 0.072 0.55243 0.46809 0.0
C1208 C 0.05224 0.53641 0.53776 0.0
C1209 C 0.09394 0.54964 0.62742 0.0
C1210 C 0.08834 0.54392 0.66971 0.0
C1211 C 0.08045 0.54858 0.64687 0.0
C1212 C 0.10993 0.53983 0.67264 0.0
C1213 C 0.11551 0.54571 0.63059 0.0
C1214 C 0.12342 0.54074 0.65312 0.0
C1215 C 0.07555 0.60456 0.5598 0.0
C1216 C 0.08486 0.55488 0.60417 0.0
C1217 C 0.17143 0.52098 0.57364 0.0
C1218 C 0.18122 0.54669 0.58119 0.0
C1219 C 0.11475 0.59162 0.52714 0.0
C1220 C 0.07409 0.57619 0.43675 0.0
C1221 C 0.08124 0.56488 0.41472 0.0
C1222 C 0.07412 0.56942 0.39155 0.0
C1223 C 0.05952 0.58532 0.39058 0.0
C1224 C 0.05929 0.59183 0.43558 0.0
C1225 C 0.05201 0.59629 0.41253 0.0
C1226 C 0.09323 0.52421 0.50533 0.0
C1227 C 0.08302 0.57188 0.46058 0.0
H1228 H 0.06364 0.55119 0.64406 0.0
H1229 H 0.11647 0.53628 0.69008 0.0
H1230 H 0.12619 0.54648 0.61581 0.0
H1231 H 0.14008 0.53772 0.6555 0.0
H1232 H 0.09291 0.55307 0.41571 0.0
H1233 H 0.05389 0.58913 0.3729 0.0
H1234 H 0.05359 0.60083 0.45234 0.0
H1235 H 0.04069 0.60846 0.41172 0.0
Tb1236 Tb 0.79097 0.80624 0.27866 0.0
C1237 C 0.86283 0.77591 0.3304 0.0
C1238 C 0.8752 0.81022 0.36618 0.0
C1239 C 0.87476 0.76786 0.3707 0.0
C1240 C 0.86665 0.80114 0.34074 0.0
C1241 C 0.86795 0.7592 0.34502 0.0
C1242 C 0.87838 0.79336 0.38128 0.0
C1243 C 0.86379 0.72791 0.30718 0.0
N1244 N 0.85668 0.76828 0.30544 0.0
C1245 C 0.8592 0.74526 0.29353 0.0
C1246 C 0.86752 0.73467 0.33316 0.0
Tb1247 Tb 0.8474 0.79793 0.28509 0.0
N1248 N 0.86338 0.81694 0.32557 0.0
C1249 C 0.87058 0.84235 0.33452 0.0
C1250 C 0.881 0.83602 0.37558 0.0
C1251 C 0.87913 0.85214 0.35953 0.0
H1252 H 0.8567 0.73974 0.27337 0.0
H1253 H 0.88421 0.87221 0.36643 0.0
H1254 H 0.88448 0.79999 0.40092 0.0
H1255 H 0.86462 0.7094 0.29761 0.0
H1256 H 0.86985 0.85569 0.32301 0.0
H1257 H 0.75444 0.73932 0.19361 0.0
H1258 H 0.8876 0.84369 0.39497 0.0
H1259 H 0.7833 0.86305 0.29852 0.0
H1260 H 0.77121 0.75292 0.23739 0.0
H1261 H 0.77126 0.8959 0.28047 0.0
H1262 H 0.87833 0.75519 0.38228 0.0
H1263 H 0.74788 0.77065 0.16944 0.0
H1264 H 0.74807 0.81566 0.16908 0.0
H1265 H 0.87136 0.7213 0.34371 0.0
H1266 H 0.75269 0.85878 0.19297 0.0
N1267 N 0.77509 0.79182 0.23801 0.0
C1268 C 0.76856 0.76689 0.22717 0.0
C1269 C 0.75545 0.77679 0.18864 0.0
C1270 C 0.76067 0.80213 0.20038 0.0
C1271 C 0.759 0.75905 0.20227 0.0
C1272 C 0.77042 0.80904 0.22543 0.0
H1273 H 0.76059 0.88872 0.23488 0.0
N1274 N 0.7804 0.83794 0.26336 0.0
C1275 C 0.77191 0.87841 0.26844 0.0
C1276 C 0.77313 0.83312 0.23867 0.0
C1277 C 0.77871 0.85976 0.2786 0.0
C1278 C 0.76601 0.87433 0.24268 0.0
C1279 C 0.76603 0.85121 0.22752 0.0
O1280 O 0.77008 0.81556 0.30639 0.0
O1281 O 0.81858 0.80373 0.30389 0.0
O1282 O 0.82424 0.7597 0.28 0.0
O1283 O 0.78816 0.76634 0.28074 0.0
O1284 O 0.8028 0.83199 0.31449 0.0
O1285 O 0.75926 0.78233 0.2781 0.0
O1286 O 0.86664 0.77997 0.26037 0.0
O1287 O 0.81653 0.79106 0.26061 0.0
O1288 O 0.81354 0.83984 0.26961 0.0
O1289 O 0.84884 0.83818 0.28621 0.0
O1290 O 0.84536 0.80433 0.24697 0.0
O1291 O 0.88043 0.81685 0.28308 0.0
C1292 C 0.8179 0.82153 0.32164 0.0
C1293 C 0.73119 0.8018 0.2937 0.0
C1294 C 0.69413 0.80175 0.30773 0.0
C1295 C 0.71558 0.79688 0.31098 0.0
C1296 C 0.68871 0.81158 0.28695 0.0
C1297 C 0.72507 0.81127 0.27306 0.0
C1298 C 0.70406 0.81626 0.26981 0.0
C1299 C 0.80219 0.75133 0.2803 0.0
C1300 C 0.75358 0.79657 0.29696 0.0
C1301 C 0.75792 0.84505 0.20202 0.0
C1302 C 0.75526 0.8205 0.18844 0.0
C1303 C 0.82428 0.79672 0.24114 0.0
C1304 C 0.9063 0.79268 0.27011 0.0
C1305 C 0.92157 0.79627 0.25223 0.0
C1306 C 0.94319 0.79188 0.25574 0.0
C1307 C 0.94894 0.78343 0.27734 0.0
C1308 C 0.91278 0.78481 0.29164 0.0
C1309 C 0.93388 0.78001 0.29509 0.0
C1310 C 0.83517 0.85035 0.27683 0.0
C1311 C 0.88425 0.7986 0.26654 0.0
H1312 H 0.72016 0.7894 0.3269 0.0
H1313 H 0.67234 0.81513 0.28354 0.0
H1314 H 0.73639 0.81455 0.25924 0.0
H1315 H 0.69954 0.82353 0.25375 0.0
H1316 H 0.91676 0.80305 0.23593 0.0
H1317 H 0.96506 0.77924 0.28052 0.0
H1318 H 0.90169 0.78261 0.30594 0.0
H1319 H 0.93866 0.77371 0.31169 0.0
Tb1320 Tb 0.82596 0.2769 0.74805 0.0
C1321 C 0.76973 0.3317 0.81341 0.0
C1322 C 0.79423 0.37144 0.83348 0.0
C1323 C 0.75447 0.36825 0.82496 0.0
C1324 C 0.79088 0.34591 0.82212 0.0
C1325 C 0.75111 0.3424 0.81553 0.0
C1326 C 0.77604 0.38277 0.83395 0.0
C1327 C 0.72737 0.30068 0.80299 0.0
N1328 N 0.76726 0.30675 0.80509 0.0
C1329 C 0.7464 0.29101 0.80117 0.0
C1330 C 0.72972 0.32655 0.80959 0.0
Tb1331 Tb 0.7992 0.29209 0.80357 0.0
N1332 N 0.80775 0.33398 0.822 0.0
C1333 C 0.82809 0.34618 0.83493 0.0
C1334 C 0.81542 0.38435 0.84535 0.0
C1335 C 0.83235 0.37156 0.84636 0.0
H1336 H 0.74437 0.27099 0.79603 0.0
H1337 H 0.84865 0.38117 0.85609 0.0
H1338 H 0.77833 0.40246 0.84224 0.0
H1339 H 0.71092 0.28815 0.79932 0.0
H1340 H 0.84131 0.33654 0.83627 0.0
H1341 H 0.74307 0.22307 0.70082 0.0
H1342 H 0.81863 0.40385 0.85469 0.0
H1343 H 0.87139 0.25427 0.75567 0.0
H1344 H 0.76793 0.25348 0.73336 0.0
H1345 H 0.886 0.2192 0.73652 0.0
H1346 H 0.74042 0.37693 0.82645 0.0
H1347 H 0.75736 0.19161 0.6728 0.0
H1348 H 0.78893 0.17156 0.66322 0.0
H1349 H 0.71495 0.33398 0.81109 0.0
H1350 H 0.82757 0.16944 0.67417 0.0
N1351 N 0.79835 0.24473 0.72151 0.0
C1352 C 0.77557 0.24247 0.71993 0.0
C1353 C 0.7689 0.20626 0.68631 0.0
C1354 C 0.79143 0.20626 0.68994 0.0
C1355 C 0.76083 0.22406 0.70193 0.0
C1356 C 0.80579 0.22577 0.70797 0.0
H1357 H 0.86342 0.18648 0.70208 0.0
N1358 N 0.83953 0.24197 0.73346 0.0
C1359 C 0.86934 0.22025 0.73012 0.0
C1360 C 0.82716 0.22424 0.71439 0.0
C1361 C 0.86064 0.24019 0.74119 0.0
C1362 C 0.85665 0.20195 0.71062 0.0
C1363 C 0.83525 0.20369 0.70258 0.0
O1364 O 0.86029 0.29212 0.75192 0.0
O1365 O 0.82472 0.30459 0.7809 0.0
O1366 O 0.77954 0.30057 0.77194 0.0
O1367 O 0.79665 0.29012 0.73513 0.0
O1368 O 0.82609 0.3158 0.74737 0.0
O1369 O 0.84092 0.28615 0.71629 0.0
O1370 O 0.7823 0.26676 0.82403 0.0
O1371 O 0.80917 0.264 0.7772 0.0
O1372 O 0.84493 0.26919 0.78045 0.0
O1373 O 0.83445 0.29301 0.81525 0.0
O1374 O 0.77801 0.25437 0.78801 0.0
O1375 O 0.8097 0.29706 0.84179 0.0
C1376 C 0.82616 0.32344 0.77105 0.0
C1377 C 0.87283 0.32119 0.72746 0.0
C1378 C 0.87674 0.35941 0.71107 0.0
C1379 C 0.86474 0.33498 0.7115 0.0
C1380 C 0.89687 0.36982 0.72676 0.0
C1381 C 0.89315 0.33195 0.74272 0.0
C1382 C 0.90497 0.35613 0.74244 0.0
C1383 C 0.78079 0.2986 0.74739 0.0
C1384 C 0.86043 0.29589 0.72928 0.0
C1385 C 0.82158 0.1852 0.68355 0.0
C1386 C 0.79966 0.18648 0.67723 0.0
C1387 C 0.7923 0.24636 0.77468 0.0
C1388 C 0.78192 0.28338 0.86672 0.0
C1389 C 0.78176 0.2682 0.88426 0.0
C1390 C 0.77147 0.27303 0.90618 0.0
C1391 C 0.76098 0.2931 0.91021 0.0
C1392 C 0.77134 0.30332 0.87084 0.0
C1393 C 0.76079 0.30804 0.89247 0.0
C1394 C 0.84822 0.28003 0.80461 0.0
C1395 C 0.79414 0.27854 0.84496 0.0
H1396 H 0.84905 0.32696 0.69977 0.0
H1397 H 0.90661 0.38841 0.72659 0.0
H1398 H 0.89982 0.32169 0.75509 0.0
H1399 H 0.92053 0.36426 0.75436 0.0
H1400 H 0.79035 0.2531 0.88125 0.0
H1401 H 0.753 0.2972 0.92705 0.0
H1402 H 0.7715 0.31541 0.85764 0.0
H1403 H 0.75272 0.3235 0.89564 0.0
Tb1404 Tb 0.84075 0.8068 0.7839 0.0
C1405 C 0.75382 0.75145 0.72197 0.0
C1406 C 0.72482 0.75752 0.74865 0.0
C1407 C 0.71681 0.75129 0.70363 0.0
C1408 C 0.74715 0.75638 0.74571 0.0
C1409 C 0.73854 0.7483 0.70066 0.0
C1410 C 0.70993 0.7558 0.72758 0.0
C1411 C 0.76648 0.73686 0.67497 0.0
N1412 N 0.77492 0.74831 0.71973 0.0
C1413 C 0.78096 0.73981 0.69657 0.0
C1414 C 0.7453 0.74147 0.67699 0.0
Tb1415 Tb 0.79676 0.75329 0.75682 0.0
N1416 N 0.76181 0.75742 0.7657 0.0
C1417 C 0.75447 0.75721 0.78873 0.0
C1418 C 0.71772 0.75887 0.77247 0.0
C1419 C 0.73257 0.75853 0.79257 0.0
H1420 H 0.79705 0.73571 0.6944 0.0
H1421 H 0.72706 0.75886 0.81097 0.0
H1422 H 0.69283 0.75703 0.72955 0.0
H1423 H 0.77162 0.73083 0.65674 0.0
H1424 H 0.76527 0.75595 0.80437 0.0
H1425 H 0.87457 0.81255 0.69382 0.0
H1426 H 0.70056 0.75908 0.77536 0.0
H1427 H 0.86793 0.80256 0.83677 0.0
H1428 H 0.84649 0.79756 0.71948 0.0
H1429 H 0.90634 0.81048 0.85568 0.0
H1430 H 0.70494 0.74924 0.68749 0.0
H1431 H 0.91349 0.83131 0.71238 0.0
H1432 H 0.94191 0.83922 0.74917 0.0
H1433 H 0.73407 0.73895 0.66019 0.0
H1434 H 0.95084 0.83658 0.79278 0.0
N1435 N 0.86687 0.81278 0.75466 0.0
C1436 C 0.86237 0.80816 0.72902 0.0
C1437 C 0.90067 0.82608 0.72431 0.0
C1438 C 0.90608 0.82736 0.74965 0.0
C1439 C 0.87876 0.81572 0.71383 0.0
C1440 C 0.88867 0.82049 0.76443 0.0
H1441 H 0.93778 0.82494 0.83218 0.0
N1442 N 0.87663 0.81012 0.80138 0.0
C1443 C 0.9031 0.81265 0.83667 0.0
C1444 C 0.89374 0.81872 0.78863 0.0
C1445 C 0.88116 0.80764 0.82549 0.0
C1446 C 0.92076 0.821 0.82346 0.0
C1447 C 0.91624 0.82419 0.79916 0.0
O1448 O 0.83772 0.81871 0.82191 0.0
O1449 O 0.80594 0.78808 0.78373 0.0
O1450 O 0.79774 0.78089 0.73256 0.0
O1451 O 0.82686 0.81653 0.7498 0.0
O1452 O 0.8127 0.82474 0.78156 0.0
O1453 O 0.85425 0.84474 0.80086 0.0
O1454 O 0.80757 0.72068 0.75974 0.0
O1455 O 0.83207 0.76864 0.76501 0.0
O1456 O 0.84022 0.77521 0.80338 0.0
O1457 O 0.80249 0.75733 0.79753 0.0
O1458 O 0.82151 0.74494 0.73106 0.0
O1459 O 0.77278 0.71948 0.755 0.0
C1460 C 0.7969 0.80625 0.78387 0.0
C1461 C 0.83253 0.85915 0.83234 0.0
C1462 C 0.80583 0.88372 0.82461 0.0
C1463 C 0.82316 0.87252 0.81709 0.0
C1464 C 0.79921 0.88335 0.84864 0.0
C1465 C 0.82596 0.8591 0.85639 0.0
C1466 C 0.80954 0.87143 0.86458 0.0
C1467 C 0.81004 0.80364 0.73237 0.0
C1468 C 0.84627 0.84209 0.82197 0.0
C1469 C 0.9335 0.8322 0.78498 0.0
C1470 C 0.92842 0.83385 0.76024 0.0
C1471 C 0.83883 0.75855 0.74546 0.0
C1472 C 0.78484 0.68421 0.73464 0.0
C1473 C 0.79936 0.66846 0.73604 0.0
C1474 C 0.79897 0.64823 0.71637 0.0
C1475 C 0.78306 0.64319 0.69544 0.0
C1476 C 0.76909 0.67916 0.71353 0.0
C1477 C 0.76817 0.65861 0.69411 0.0
C1478 C 0.82224 0.76161 0.81061 0.0
C1479 C 0.78763 0.70638 0.75492 0.0
H1480 H 0.82855 0.87312 0.79873 0.0
H1481 H 0.78573 0.89168 0.85487 0.0
H1482 H 0.83288 0.84872 0.86843 0.0
H1483 H 0.80422 0.87094 0.88296 0.0
H1484 H 0.81118 0.67219 0.75261 0.0
H1485 H 0.78235 0.62763 0.68004 0.0
H1486 H 0.75768 0.69111 0.7119 0.0
H1487 H 0.75605 0.6548 0.67786 0.0
Tb1488 Tb 0.54194 0.52525 0.51006 0.0
C1489 C 0.59567 0.62051 0.57834 0.0
C1490 C 0.59997 0.65119 0.55228 0.0
C1491 C 0.5993 0.66441 0.59704 0.0
C1492 C 0.59681 0.62614 0.55505 0.0
C1493 C 0.59744 0.6396 0.59975 0.0
C1494 C 0.60057 0.67021 0.5733 0.0
C1495 C 0.59768 0.60865 0.62498 0.0
N1496 N 0.59425 0.59643 0.58012 0.0
C1497 C 0.5961 0.59044 0.60317 0.0
C1498 C 0.59804 0.6333 0.62326 0.0
Tb1499 Tb 0.59053 0.56744 0.54333 0.0
N1500 N 0.59644 0.60724 0.53537 0.0
C1501 C 0.60126 0.61267 0.51267 0.0
C1502 C 0.60326 0.65648 0.52868 0.0
C1503 C 0.6043 0.63718 0.50889 0.0
H1504 H 0.59563 0.57141 0.60479 0.0
H1505 H 0.60735 0.64111 0.49065 0.0
H1506 H 0.6027 0.68952 0.57151 0.0
H1507 H 0.59855 0.60364 0.64309 0.0
H1508 H 0.602 0.5982 0.49694 0.0
H1509 H 0.52608 0.44906 0.55978 0.0
H1510 H 0.60566 0.67545 0.52572 0.0
H1511 H 0.52929 0.52108 0.44869 0.0
H1512 H 0.52933 0.49218 0.55501 0.0
H1513 H 0.52696 0.48979 0.4098 0.0
H1514 H 0.60045 0.67933 0.61322 0.0
H1515 H 0.53144 0.4169 0.52454 0.0
H1516 H 0.53622 0.40502 0.47904 0.0
H1517 H 0.59936 0.6474 0.64018 0.0
H1518 H 0.53657 0.41625 0.43777 0.0
N1519 N 0.53789 0.48558 0.51748 0.0
C1520 C 0.53196 0.47877 0.53931 0.0
C1521 C 0.53304 0.436 0.52225 0.0
C1522 C 0.53677 0.44246 0.49918 0.0
C1523 C 0.52997 0.45408 0.54217 0.0
C1524 C 0.53869 0.46762 0.49722 0.0
H1525 H 0.53243 0.44767 0.41164 0.0
N1526 N 0.53764 0.49754 0.47247 0.0
C1527 C 0.53055 0.48516 0.42769 0.0
C1528 C 0.53867 0.47385 0.47391 0.0
C1529 C 0.53198 0.50289 0.44982 0.0
C1530 C 0.53374 0.46144 0.42881 0.0
C1531 C 0.53706 0.45524 0.45212 0.0
O1532 O 0.51547 0.54345 0.51513 0.0
O1533 O 0.55895 0.5643 0.52217 0.0
O1534 O 0.56245 0.57236 0.56585 0.0
O1535 O 0.53763 0.53373 0.55142 0.0
O1536 O 0.54353 0.55291 0.4863 0.0
O1537 O 0.50878 0.50388 0.50161 0.0
O1538 O 0.61885 0.56373 0.56456 0.0
O1539 O 0.57386 0.52798 0.53037 0.0
O1540 O 0.56751 0.52414 0.48248 0.0
O1541 O 0.59666 0.55703 0.50327 0.0
O1542 O 0.58925 0.53881 0.56596 0.0
O1543 O 0.62126 0.5733 0.52841 0.0
C1544 C 0.55471 0.57224 0.50249 0.0
C1545 C 0.48392 0.52531 0.48535 0.0
C1546 C 0.45811 0.54799 0.47022 0.0
C1547 C 0.47457 0.54628 0.48829 0.0
C1548 C 0.45115 0.52863 0.44896 0.0
C1549 C 0.47681 0.50614 0.46385 0.0
C1550 C 0.46061 0.50792 0.44575 0.0
C1551 C 0.54483 0.55491 0.56882 0.0
C1552 C 0.50032 0.52333 0.50528 0.0
C1553 C 0.5374 0.43071 0.45427 0.0
C1554 C 0.53721 0.42432 0.47778 0.0
C1555 C 0.57841 0.51966 0.54965 0.0
C1556 C 0.65377 0.58683 0.55689 0.0
C1557 C 0.67297 0.57741 0.55543 0.0
C1558 C 0.69436 0.59342 0.56246 0.0
C1559 C 0.69611 0.61915 0.57142 0.0
C1560 C 0.65577 0.61247 0.56584 0.0
C1561 C 0.67691 0.62853 0.57315 0.0
C1562 C 0.58753 0.53949 0.48296 0.0
C1563 C 0.63205 0.56946 0.5479 0.0
H1564 H 0.47967 0.56099 0.50497 0.0
H1565 H 0.43847 0.5296 0.43482 0.0
H1566 H 0.4836 0.48967 0.46105 0.0
H1567 H 0.45521 0.49307 0.42928 0.0
H1568 H 0.67114 0.55747 0.54884 0.0
H1569 H 0.71229 0.6321 0.57674 0.0
H1570 H 0.64112 0.62005 0.56698 0.0
H1571 H 0.67844 0.64835 0.57996 0.0
Tb1572 Tb 0.09285 0.54543 0.01797 0.0
C1573 C 0.01082 0.48743 0.05734 0.0
C1574 C 0.99689 0.4507 0.02444 0.0
C1575 C 0.99131 0.4485 0.06756 0.0
C1576 C 1.00836 0.47603 0.03248 0.0
C1577 C 1.00191 0.47405 0.07519 0.0
C1578 C 0.98883 0.43682 0.04219 0.0
C1579 C 0.01308 0.51263 0.10624 0.0
N1580 N 0.02105 0.51211 0.06381 0.0
C1581 C 0.02158 0.52508 0.08777 0.0
C1582 C 1.00344 0.48692 0.09999 0.0
Tb1583 Tb 0.03525 0.5308 0.03258 0.0
N1584 N 0.01625 0.4902 0.01603 0.0
C1585 C 0.01174 0.48054 0.99087 0.0
C1586 C 0.99341 0.44032 0.99879 0.0
C1587 C 1.00057 0.45544 0.98192 0.0
H1588 H 0.02913 0.54491 0.09281 0.0
H1589 H 0.99761 0.44775 0.96201 0.0
H1590 H 0.98019 0.41725 0.03644 0.0
H1591 H 0.01399 0.52286 0.12527 0.0
H1592 H 0.01726 0.49185 0.97753 0.0
H1593 H 0.13869 0.62783 0.08469 0.0
H1594 H 0.98479 0.42089 0.99181 0.0
H1595 H 0.09161 0.52972 0.95629 0.0
H1596 H 0.11581 0.58471 0.07133 0.0
H1597 H 0.10495 0.54998 0.92201 0.0
H1598 H 0.98454 0.43777 0.08101 0.0
H1599 H 0.15084 0.65283 0.05318 0.0
H1600 H 0.15264 0.65478 0.00781 0.0
H1601 H 0.99681 0.47734 0.11431 0.0
H1602 H 0.14358 0.63354 0.96348 0.0
N1603 N 0.11405 0.58537 0.0325 0.0
C1604 C 0.12083 0.59534 0.05728 0.0
C1605 C 0.14067 0.6339 0.04717 0.0
C1606 C 0.13483 0.62308 0.02176 0.0
C1607 C 0.13388 0.61983 0.06499 0.0
C1608 C 0.12143 0.59846 0.01499 0.0
H1609 H 0.12598 0.59433 0.93129 0.0
N1610 N 0.10457 0.5624 0.98477 0.0
C1611 C 0.10831 0.56049 0.94112 0.0
C1612 C 0.11663 0.5865 0.99021 0.0
C1613 C 0.10085 0.54903 0.96063 0.0
C1614 C 0.12014 0.58555 0.94642 0.0
C1615 C 0.12468 0.5988 0.97125 0.0
O1616 O 0.11391 0.52264 1.00332 0.0
O1617 O 0.06322 0.51702 0.01922 0.0
O1618 O 0.05525 0.5183 0.05951 0.0
O1619 O 0.09073 0.54305 0.05757 0.0
O1620 O 0.08154 0.50895 0.99114 0.0
O1621 O 0.12037 0.54336 0.04147 0.0
O1622 O 0.01391 0.55402 0.0455 0.0
O1623 O 0.06542 0.55907 0.0331 0.0
O1624 O 0.07296 0.56252 0.99502 0.0
O1625 O 0.03909 0.53425 0.99358 0.0
O1626 O 0.04544 0.56659 0.06011 0.0
O1627 O 1.00803 0.53174 0.00811 0.0
C1628 C 0.06436 0.49965 1.00131 0.0
C1629 C 0.15145 0.53441 0.02173 0.0
C1630 C 0.18773 0.52383 0.02687 0.0
C1631 C 0.16449 0.51857 0.02861 0.0
C1632 C 0.19758 0.5453 0.01805 0.0
C1633 C 0.16165 0.55557 0.01288 0.0
C1634 C 0.18459 0.56096 0.01108 0.0
C1635 C 0.07662 0.52745 0.06807 0.0
C1636 C 0.12731 0.52849 0.02403 0.0
C1637 C 0.13733 0.62368 0.97776 0.0
C1638 C 0.14247 0.63577 1.00299 0.0
C1639 C 0.06365 0.57563 0.05153 0.0
C1640 C 0.97654 0.54021 0.02695 0.0
C1641 C 0.96352 0.55728 0.02378 0.0
C1642 C 0.94038 0.55134 0.02587 0.0
C1643 C 0.93053 0.52788 0.03098 0.0
C1644 C 0.96636 0.51695 0.03198 0.0
C1645 C 0.94346 0.51084 0.03395 0.0
C1646 C 0.05198 0.55267 0.98541 0.0
C1647 C 1.00063 0.54695 0.02471 0.0
H1648 H 0.15642 0.50204 0.03509 0.0
H1649 H 0.2154 0.55029 0.0169 0.0
H1650 H 0.15194 0.56792 1.00741 0.0
H1651 H 0.19238 0.57743 1.00437 0.0
H1652 H 0.97142 0.57508 0.01949 0.0
H1653 H 0.9129 0.52283 0.03316 0.0
H1654 H 0.97603 0.50352 0.03435 0.0
H1655 H 0.93573 0.49288 0.03795 0.0
H1656 H 0.04469 0.1741 0.92575 0.0
H1657 H 0.03276 0.22272 0.99252 0.0
H1658 H 0.0376 0.19082 0.01713 0.0
H1659 H 0.01532 0.11635 0.93887 0.0
H1660 H 0.03477 0.09904 0.92582 0.0
H1661 H 0.03093 0.12603 0.91426 0.0
H1662 H 0.07341 0.14569 0.92379 0.0
H1663 H 0.07744 0.11893 0.93571 0.0
H1664 H 0.08685 0.14992 0.95499 0.0
H1665 H 0.04355 0.15125 0.03442 0.0
H1666 H 0.04851 0.10984 0.04109 0.0
H1667 H 0.0562 0.0884 0.96258 0.0
C1668 C 0.0431 0.17825 0.94557 0.0
C1669 C 0.0383 0.20121 0.95704 0.0
C1670 C 0.03639 0.20544 0.98311 0.0
C1671 C 0.03917 0.18735 0.99729 0.0
C1672 C 0.04391 0.16492 0.98528 0.0
C1673 C 0.04579 0.16046 0.95989 0.0
C1674 C 0.05056 0.13492 0.95096 0.0
C1675 C 0.03177 0.1181 0.93132 0.0
C1676 C 0.07342 0.13753 0.94076 0.0
C1677 C 0.05084 0.12538 0.9751 0.0
C1678 C 0.04717 0.14287 0.99488 0.0
C1679 C 0.04652 0.13764 0.01893 0.0
C1680 C 0.04951 0.11409 0.02266 0.0
C1681 C 0.05322 0.09599 1.0025 0.0
C1682 C 0.05373 0.10193 0.97849 0.0
H1683 H 0.15236 0.78916 0.19282 0.0
H1684 H 0.17783 0.82747 0.13504 0.0
H1685 H 0.21616 0.82527 0.14907 0.0
H1686 H 0.19998 0.81999 0.24051 0.0
H1687 H 0.19896 0.79232 0.25313 0.0
H1688 H 0.17375 0.79758 0.23894 0.0
H1689 H 0.16673 0.75432 0.20885 0.0
H1690 H 0.19199 0.74902 0.2228 0.0
H1691 H 0.18805 0.74726 0.18957 0.0
H1692 H 0.25168 0.81555 0.16749 0.0
H1693 H 0.28147 0.80363 0.19155 0.0
H1694 H 0.23347 0.7741 0.23912 0.0
C1695 C 0.16602 0.79738 0.18328 0.0
C1696 C 0.16194 0.80851 0.16273 0.0
C1697 C 0.18041 0.81902 0.15088 0.0
C1698 C 0.20228 0.81772 0.15866 0.0
C1699 C 0.20562 0.80621 0.17865 0.0
C1700 C 0.18802 0.79666 0.19112 0.0
C1701 C 0.1961 0.78547 0.21223 0.0
C1702 C 0.19195 0.79969 0.23771 0.0
C1703 C 0.18506 0.75735 0.2081 0.0
C1704 C 0.22094 0.7898 0.20948 0.0
C1705 C 0.22607 0.80158 0.18984 0.0
C1706 C 0.24778 0.80651 0.183 0.0
C1707 C 0.26461 0.79944 0.19662 0.0
C1708 C 0.25983 0.78777 0.21709 0.0
C1709 C 0.23768 0.7831 0.22364 0.0
H1710 H 0.54947 0.862 0.50717 0.0
H1711 H 0.52142 0.8458 0.42949 0.0
H1712 H 0.52408 0.89079 0.43186 0.0
H1713 H 0.5219 0.91281 0.52859 0.0
H1714 H 0.5455 0.93201 0.54983 0.0
H1715 H 0.54096 0.89837 0.54338 0.0
H1716 H 0.58022 0.90077 0.52919 0.0
H1717 H 0.5856 0.93442 0.53647 0.0
H1718 H 0.58884 0.91833 0.50564 0.0
H1719 H 0.53379 0.93788 0.44088 0.0
H1720 H 0.54866 0.9834 0.45654 0.0
H1721 H 0.56804 0.97033 0.52924 0.0
C1722 C 0.54362 0.86785 0.49072 0.0
C1723 C 0.53517 0.85005 0.46809 0.0
C1724 C 0.52788 0.85878 0.44706 0.0
C1725 C 0.5293 0.88442 0.44823 0.0
C1726 C 0.53783 0.9014 0.47066 0.0
C1727 C 0.54475 0.89351 0.49162 0.0
C1728 C 0.55402 0.91589 0.51314 0.0
C1729 C 0.53975 0.91471 0.53504 0.0
C1730 C 0.57863 0.91744 0.5216 0.0
C1731 C 0.55174 0.93758 0.50082 0.0
C1732 C 0.54233 0.92871 0.47628 0.0
C1733 C 0.54054 0.94499 0.46026 0.0
C1734 C 0.54889 0.97087 0.46934 0.0
C1735 C 0.55832 0.98052 0.49445 0.0
C1736 C 0.55968 0.96358 0.51041 0.0
H1737 H 0.56563 0.33814 0.7118 0.0
H1738 H 0.53642 0.30169 0.63611 0.0
H1739 H 0.49906 0.29317 0.6508 0.0
H1740 H 0.53096 0.29594 0.74257 0.0
H1741 H 0.52872 0.31981 0.7688 0.0
H1742 H 0.55307 0.32394 0.75219 0.0
H1743 H 0.54648 0.36614 0.74434 0.0
H1744 H 0.52209 0.36212 0.76093 0.0
H1745 H 0.51988 0.36701 0.72937 0.0
H1746 H 0.46462 0.28744 0.67411 0.0
H1747 H 0.43649 0.28411 0.70421 0.0
H1748 H 0.48792 0.32495 0.76455 0.0
C1749 C 0.55139 0.32849 0.69825 0.0
C1750 C 0.55411 0.32064 0.67272 0.0
C1751 C 0.53491 0.30794 0.65573 0.0
C1752 C 0.51354 0.30304 0.6639 0.0
C1753 C 0.51147 0.31095 0.68916 0.0
C1754 C 0.52988 0.32342 0.70609 0.0
C1755 C 0.52315 0.32939 0.73233 0.0
C1756 C 0.53466 0.3165 0.75001 0.0
C1757 C 0.5282 0.35786 0.74232 0.0
C1758 C 0.49816 0.31807 0.72756 0.0
C1759 C 0.49171 0.30766 0.70253 0.0
C1760 C 0.4695 0.2957 0.69374 0.0
C1761 C 0.45356 0.29405 0.711 0.0
C1762 C 0.45981 0.30422 0.73688 0.0
C1763 C 0.48247 0.31667 0.74501 0.0
H1764 H 0.08461 0.83926 0.62446 0.0
H1765 H 0.02586 0.86163 0.65126 0.0
H1766 H 0.03405 0.89806 0.63102 0.0
H1767 H 0.11972 0.90045 0.63374 0.0
H1768 H 0.13334 0.89383 0.60594 0.0
H1769 H 0.12241 0.86906 0.62172 0.0
H1770 H 0.09851 0.84316 0.58076 0.0
H1771 H 0.10956 0.86774 0.56477 0.0
H1772 H 0.07978 0.85702 0.56456 0.0
H1773 H 0.04936 0.93273 0.60859 0.0
H1774 H 0.06974 0.96178 0.5843 0.0
H1775 H 0.11834 0.91646 0.57262 0.0
C1776 C 0.07332 0.85167 0.62594 0.0
C1777 C 0.05457 0.84757 0.63943 0.0
C1778 C 0.0403 0.86435 0.64096 0.0
C1779 C 0.04485 0.88513 0.62959 0.0
C1780 C 0.06371 0.88883 0.61678 0.0
C1781 C 0.07762 0.87246 0.61478 0.0
C1782 C 0.09689 0.88066 0.60014 0.0
C1783 C 0.11942 0.88634 0.61636 0.0
C1784 C 0.09613 0.86098 0.57613 0.0
C1785 C 0.09174 0.9043 0.5943 0.0
C1786 C 0.07252 0.90871 0.60402 0.0
C1787 C 0.06436 0.92937 0.6008 0.0
C1788 C 0.076 0.94571 0.58696 0.0
C1789 C 0.09556 0.94129 0.5766 0.0
C1790 C 0.10358 0.92045 0.58059 0.0
H1791 H 0.53499 0.80369 0.86416 0.0
H1792 H 0.57379 0.8199 0.80342 0.0
H1793 H 0.5417 0.83108 0.78291 0.0
H1794 H 0.4796 0.77885 0.82571 0.0
H1795 H 0.46547 0.79299 0.85028 0.0
H1796 H 0.49024 0.78267 0.85798 0.0
H1797 H 0.50848 0.82715 0.884 0.0
H1798 H 0.48399 0.83773 0.87609 0.0
H1799 H 0.5109 0.85371 0.86929 0.0
H1800 H 0.50735 0.84643 0.77237 0.0
H1801 H 0.47234 0.8611 0.77087 0.0
H1802 H 0.45631 0.8345 0.83844 0.0
C1803 C 0.53656 0.80888 0.84617 0.0
C1804 C 0.5569 0.81087 0.83537 0.0
C1805 C 0.55833 0.81803 0.81196 0.0
C1806 C 0.5402 0.8245 0.80021 0.0
C1807 C 0.52071 0.82338 0.81195 0.0
C1808 C 0.51867 0.81531 0.83421 0.0
C1809 C 0.49661 0.81742 0.84395 0.0
C1810 C 0.48212 0.79143 0.8445 0.0
C1811 C 0.50023 0.83505 0.86985 0.0
C1812 C 0.48684 0.82871 0.82414 0.0
C1813 C 0.5009 0.83191 0.80575 0.0
C1814 C 0.49604 0.84359 0.78643 0.0
C1815 C 0.47625 0.85206 0.78584 0.0
C1816 C 0.46159 0.84876 0.80444 0.0
C1817 C 0.467 0.83681 0.8237 0.0
H1818 H 0.50081 0.20406 0.09825 0.0
H1819 H 0.53003 0.21034 0.1741 0.0
H1820 H 0.5449 0.17326 0.16002 0.0
H1821 H 0.48633 0.13463 0.08025 0.0
H1822 H 0.49367 0.13512 0.04899 0.0
H1823 H 0.48306 0.16023 0.06585 0.0
H1824 H 0.51827 0.19223 0.05884 0.0
H1825 H 0.52912 0.16723 0.04251 0.0
H1826 H 0.54557 0.18889 0.06918 0.0
H1827 H 0.5601 0.13851 0.13692 0.0
H1828 H 0.57144 0.10589 0.10703 0.0
H1829 H 0.53136 0.12177 0.0467 0.0
C1830 C 0.5098 0.19725 0.11204 0.0
C1831 C 0.51421 0.21008 0.13725 0.0
C1832 C 0.52632 0.20074 0.15467 0.0
C1833 C 0.5349 0.17972 0.14686 0.0
C1834 C 0.53099 0.16809 0.12167 0.0
C1835 C 0.51837 0.17621 0.1046 0.0
C1836 C 0.51774 0.16135 0.07838 0.0
C1837 C 0.49377 0.14698 0.06775 0.0
C1838 C 0.52831 0.17845 0.06124 0.0
C1839 C 0.5321 0.14375 0.08335 0.0
C1840 C 0.53968 0.14799 0.1084 0.0
C1841 C 0.55402 0.13475 0.11728 0.0
C1842 C 0.56044 0.11632 0.10012 0.0
C1843 C 0.5524 0.11125 0.0744 0.0
C1844 C 0.53806 0.12526 0.06608 0.0
H1845 H 0.20532 0.32832 0.37892 0.0
H1846 H 0.16815 0.35797 0.32676 0.0
H1847 H 0.20201 0.36959 0.306 0.0
H1848 H 0.25999 0.373 0.38242 0.0
H1849 H 0.27638 0.35012 0.38143 0.0
H1850 H 0.25088 0.34653 0.39615 0.0
H1851 H 0.23574 0.30436 0.37071 0.0
H1852 H 0.25907 0.3044 0.35278 0.0
H1853 H 0.23129 0.29847 0.33742 0.0
H1854 H 0.23748 0.37249 0.28707 0.0
H1855 H 0.27178 0.36362 0.26981 0.0
H1856 H 0.28664 0.33341 0.33425 0.0
C1857 C 0.20453 0.33787 0.36356 0.0
C1858 C 0.1842 0.34235 0.35449 0.0
C1859 C 0.18357 0.35428 0.33393 0.0
C1860 C 0.20276 0.36121 0.32219 0.0
C1861 C 0.22247 0.3561 0.33121 0.0
C1862 C 0.22355 0.34468 0.35145 0.0
C1863 C 0.24589 0.33806 0.3552 0.0
C1864 C 0.25908 0.35282 0.38023 0.0
C1865 C 0.24284 0.30972 0.35384 0.0
C1866 C 0.25666 0.34658 0.33313 0.0
C1867 C 0.24311 0.35747 0.31992 0.0
C1868 C 0.24848 0.36441 0.29743 0.0
C1869 C 0.26784 0.35927 0.28769 0.0
C1870 C 0.28129 0.34717 0.30039 0.0
C1871 C 0.27622 0.34199 0.32392 0.0
H1872 H 0.96485 0.03069 0.18205 0.0
H1873 H 0.99385 0.10758 0.21995 0.0
H1874 H 0.01704 0.11301 0.18505 0.0
H1875 H 0.01534 0.01753 0.15713 0.0
H1876 H 1.00099 0.99838 0.12792 0.0
H1877 H 0.98669 1.00054 0.15564 0.0
H1878 H 0.95551 0.01482 0.13271 0.0
H1879 H 0.96974 0.01272 0.10493 0.0
H1880 H 0.96275 0.04164 0.11849 0.0
H1881 H 0.03775 0.10993 0.14441 0.0
H1882 H 0.05328 0.09927 0.10461 0.0
H1883 H 0.01171 0.0238 0.09178 0.0
C1884 C 0.97606 0.0488 0.1832 0.0
C1885 C 0.97713 0.06876 0.2045 0.0
C1886 C 0.9923 0.09189 0.20445 0.0
C1887 C 1.00567 0.09512 0.18444 0.0
C1888 C 1.0041 0.07513 0.16395 0.0
C1889 C 0.98959 0.05234 0.16326 0.0
C1890 C 0.99106 0.03376 0.13909 0.0
C1891 C 0.99898 1.01121 0.14532 0.0
C1892 C 0.96841 0.02522 0.12284 0.0
C1893 C 1.00864 0.04947 0.12616 0.0
C1894 C 0.01591 0.07332 0.14092 0.0
C1895 C 0.03205 0.09122 0.13305 0.0
C1896 C 0.04099 0.08483 0.11009 0.0
C1897 C 0.03429 0.06049 0.09433 0.0
C1898 C 0.01754 0.04264 0.10283 0.0
H1899 H 0.29982 0.70341 0.45683 0.0
H1900 H 0.30221 0.76339 0.5208 0.0
H1901 H 0.28956 0.78858 0.49282 0.0
H1902 H 0.31807 0.74279 0.41276 0.0
H1903 H 0.2993 0.72235 0.38689 0.0
H1904 H 0.31001 0.70961 0.41165 0.0
H1905 H 0.26974 0.68949 0.41926 0.0
H1906 H 0.25878 0.70188 0.39442 0.0
H1907 H 0.25008 0.70886 0.42523 0.0
H1908 H 0.27524 0.80655 0.4579 0.0
H1909 H 0.26003 0.81563 0.41874 0.0
H1910 H 0.26533 0.7428 0.37845 0.0
C1911 C 0.29803 0.722 0.46491 0.0
C1912 C 0.30212 0.73152 0.49094 0.0
C1913 C 0.2992 0.75575 0.50087 0.0
C1914 C 0.29206 0.77022 0.48514 0.0
C1915 C 0.28785 0.76012 0.45958 0.0
C1916 C 0.2907 0.73656 0.44954 0.0
C1917 C 0.28394 0.7295 0.42165 0.0
C1918 C 0.30403 0.72586 0.40739 0.0
C1919 C 0.26448 0.70605 0.41475 0.0
C1920 C 0.27662 0.75265 0.41761 0.0
C1921 C 0.27916 0.77021 0.43963 0.0
C1922 C 0.27318 0.79295 0.44051 0.0
C1923 C 0.26437 0.79784 0.41823 0.0
C1924 C 0.26148 0.77998 0.39547 0.0
C1925 C 0.26769 0.75711 0.39536 0.0
H1926 H 0.69347 0.05525 0.66054 0.0
H1927 H 0.65978 0.98538 0.67917 0.0
H1928 H 0.62733 0.98277 0.64914 0.0
H1929 H 0.64596 0.07989 0.65683 0.0
H1930 H 0.65349 0.09466 0.63106 0.0
H1931 H 0.67497 0.0902 0.65237 0.0
H1932 H 0.69112 0.06505 0.61548 0.0
H1933 H 0.67036 0.07124 0.59447 0.0
H1934 H 0.67213 0.0395 0.59397 0.0
H1935 H 0.59799 0.98889 0.61845 0.0
H1936 H 0.57535 1.00144 0.58645 0.0
H1937 H 0.62823 0.06795 0.58971 0.0
C1938 C 0.6795 0.03909 0.65791 0.0
C1939 C 0.67912 0.02046 0.67205 0.0
C1940 C 0.66037 0.99983 0.66841 0.0
C1941 C 0.64185 0.99824 0.65153 0.0
C1942 C 0.64242 0.01748 0.63861 0.0
C1943 C 0.66084 0.03737 0.64141 0.0
C1944 C 0.65703 0.05598 0.62592 0.0
C1945 C 0.65791 0.0817 0.64255 0.0
C1946 C 0.67369 0.0581 0.60631 0.0
C1947 C 0.63365 0.04335 0.61382 0.0
C1948 C 0.62542 0.02124 0.62142 0.0
C1949 C 0.60426 1.00615 0.61231 0.0
C1950 C 0.59149 0.0135 0.5943 0.0
C1951 C 0.60011 0.03562 0.58563 0.0
C1952 C 0.62123 0.05091 0.59594 0.0
H1953 H 0.32143 0.32022 0.9581 0.0
H1954 H 0.34651 0.40058 0.96659 0.0
H1955 H 0.34834 0.3951 0.92135 0.0
H1956 H 0.35497 0.30203 0.90815 0.0
H1957 H 0.33331 0.27639 0.89042 0.0
H1958 H 0.33421 0.28483 0.92397 0.0
H1959 H 0.29426 0.29116 0.92129 0.0
H1960 H 0.29208 0.28136 0.88781 0.0
H1961 H 0.28663 0.31107 0.90159 0.0
H1962 H 0.34253 0.38253 0.87559 0.0
H1963 H 0.33151 0.36269 0.83107 0.0
H1964 H 0.31317 0.28986 0.85031 0.0
C1965 C 0.3276 0.3366 0.95047 0.0
C1966 C 0.3338 0.36086 0.96609 0.0
C1967 C 0.34161 0.3818 0.95522 0.0
C1968 C 0.34281 0.3789 0.92946 0.0
C1969 C 0.33637 0.3549 0.91461 0.0
C1970 C 0.32904 0.33403 0.92459 0.0
C1971 C 0.32212 0.31054 0.90398 0.0
C1972 C 0.33704 0.29236 0.90677 0.0
C1973 C 0.2973 0.29779 0.90366 0.0
C1974 C 0.32622 0.32165 0.88092 0.0
C1975 C 0.33439 0.34733 0.88767 0.0
C1976 C 0.33688 0.36238 0.87001 0.0
C1977 C 0.33065 0.35097 0.8448 0.0
C1978 C 0.32276 0.3247 0.83728 0.0
C1979 C 0.32054 0.30979 0.85555 0.0
H1980 H 0.95363 0.04914 0.37467 0.0
H1981 H 1.00629 0.09713 0.34551 0.0
H1982 H 0.03258 0.09729 0.38194 0.0
H1983 H 0.96976 0.07728 0.44045 0.0
H1984 H 0.96237 0.04793 0.45046 0.0
H1985 H 0.94814 0.0519 0.4223 0.0
H1986 H 0.95855 0.01284 0.39804 0.0
H1987 H 0.97392 1.00892 0.42552 0.0
H1988 H 0.98746 1.01179 0.39764 0.0
H1989 H 0.05352 0.09305 0.42472 0.0
H1990 H 0.0657 0.08445 0.46555 0.0
H1991 H 0.9999 0.03796 0.46641 0.0
C1992 C 0.97069 0.05979 0.37573 0.0
C1993 C 0.97747 0.07325 0.35651 0.0
C1994 C 1.00022 0.08665 0.3594 0.0
C1995 C 0.0154 0.08681 0.38029 0.0
C1996 C 1.00806 0.07336 0.39872 0.0
C1997 C 0.98609 0.06005 0.39646 0.0
C1998 C 0.98214 0.04702 0.41863 0.0
C1999 C 0.96456 0.0566 0.43386 0.0
C2000 C 0.9751 0.01844 0.40943 0.0
C2001 C 1.00518 0.05497 0.43393 0.0
C2002 C 0.01996 0.07027 0.4222 0.0
C2003 C 0.04196 0.08069 0.43348 0.0
C2004 C 0.04892 0.07545 0.45682 0.0
C2005 C 0.03436 0.05942 0.46918 0.0
C2006 C 0.01196 0.04947 0.45736 0.0
H2007 H 0.33024 0.69777 0.60478 0.0
H2008 H 0.35855 0.76422 0.57687 0.0
H2009 H 0.35501 0.79078 0.61718 0.0
H2010 H 0.28999 0.72127 0.63727 0.0
H2011 H 0.29287 0.70654 0.66345 0.0
H2012 H 0.2992 0.6925 0.63322 0.0
H2013 H 0.339 0.69308 0.65206 0.0
H2014 H 0.33261 0.70669 0.68245 0.0
H2015 H 0.35669 0.7221 0.66961 0.0
H2016 H 0.34504 0.81006 0.65896 0.0
H2017 H 0.33369 0.82061 0.70131 0.0
H2018 H 0.31308 0.74142 0.70205 0.0
C2019 C 0.33607 0.71789 0.6073 0.0
C2020 C 0.34466 0.72896 0.58773 0.0
C2021 C 0.35207 0.75535 0.59169 0.0
C2022 C 0.35 0.77059 0.61445 0.0
C2023 C 0.34077 0.75909 0.63307 0.0
C2024 C 0.33434 0.73334 0.62993 0.0
C2025 C 0.32465 0.72567 0.65273 0.0
C2026 C 0.30023 0.71061 0.64627 0.0
C2027 C 0.33911 0.71102 0.66493 0.0
C2028 C 0.32621 0.75114 0.66898 0.0
C2029 C 0.3355 0.77018 0.65731 0.0
C2030 C 0.33809 0.79531 0.66845 0.0
C2031 C 0.3316 0.8011 0.69249 0.0
C2032 C 0.32293 0.78185 0.70518 0.0
C2033 C 0.3198 0.75658 0.69297 0.0
H2034 H 0.65548 0.07826 0.78985 0.0
H2035 H 0.65723 1.00088 0.78856 0.0
H2036 H 0.62635 0.99693 0.81503 0.0
H2037 H 0.64676 0.09288 0.8534 0.0
H2038 H 0.62862 0.11332 0.84912 0.0
H2039 H 0.64934 0.10933 0.82804 0.0
H2040 H 0.61843 0.09596 0.79051 0.0
H2041 H 0.59755 0.09969 0.81156 0.0
H2042 H 0.59486 0.07024 0.79009 0.0
H2043 H 0.59696 1.00174 0.84311 0.0
H2044 H 0.57289 0.01615 0.8742 0.0
H2045 H 0.59068 0.09067 0.85837 0.0
C2046 C 0.64916 0.06041 0.79491 0.0
C2047 C 0.65864 0.03984 0.78708 0.0
C2048 C 0.65022 0.01691 0.7944 0.0
C2049 C 0.63257 0.0144 0.80925 0.0
C2050 C 0.6236 0.03503 0.81667 0.0
C2051 C 0.63169 0.05766 0.80995 0.0
C2052 C 0.62026 0.07744 0.82214 0.0
C2053 C 0.63726 0.09954 0.83919 0.0
C2054 C 0.60699 0.08635 0.80239 0.0
C2055 C 0.60482 0.0625 0.83714 0.0
C2056 C 0.60678 0.03797 0.83337 0.0
C2057 C 0.59513 0.02084 0.84611 0.0
C2058 C 0.58157 0.02919 0.86373 0.0
C2059 C 0.57995 0.05447 0.86857 0.0
C2060 C 0.5913 0.07114 0.85465 0.0
H2061 H 0.32503 0.32938 0.09612 0.0
H2062 H 0.34532 0.41047 0.11853 0.0
H2063 H 0.34652 0.4073 0.16276 0.0
H2064 H 0.28928 0.31907 0.14423 0.0
H2065 H 0.29748 0.29076 0.14751 0.0
H2066 H 0.29867 0.30055 0.11819 0.0
H2067 H 0.34054 0.2982 0.12058 0.0
H2068 H 0.33891 0.28981 0.1507 0.0
H2069 H 0.35958 0.31681 0.14711 0.0
H2070 H 0.3442 0.3958 0.20456 0.0
H2071 H 0.33875 0.3765 0.24129 0.0
H2072 H 0.32076 0.3028 0.19277 0.0
C2073 C 0.32987 0.34646 0.11033 0.0
C2074 C 0.33506 0.37019 0.1037 0.0
C2075 C 0.3413 0.39206 0.12297 0.0
C2076 C 0.34203 0.39048 0.14823 0.0
C2077 C 0.33664 0.36688 0.1541 0.0
C2078 C 0.33082 0.34524 0.13576 0.0
C2079 C 0.32546 0.32226 0.14729 0.0
C2080 C 0.30127 0.30732 0.13881 0.0
C2081 C 0.34212 0.3058 0.14104 0.0
C2082 C 0.32867 0.33443 0.17493 0.0
C2083 C 0.33533 0.36019 0.17837 0.0
C2084 C 0.33924 0.37563 0.20211 0.0
C2085 C 0.33633 0.36449 0.22291 0.0
C2086 C 0.3296 0.33817 0.21996 0.0
C2087 C 0.32567 0.32297 0.1956 0.0
H2088 H 0.25308 0.97226 0.06627 0.0
H2089 H 0.30966 0.01747 0.03973 0.0
H2090 H 0.29124 0.05272 0.04461 0.0
H2091 H 0.21127 0.99382 0.03488 0.0
H2092 H 0.19351 0.99346 0.05974 0.0
H2093 H 0.2117 0.97224 0.05543 0.0
H2094 H 0.22941 0.9892 0.10137 0.0
H2095 H 0.21132 1.01056 0.10577 0.0
H2096 H 0.24118 0.02232 0.11217 0.0
H2097 H 0.26629 0.08278 0.05136 0.0
H2098 H 0.23549 0.10439 0.05706 0.0
H2099 H 0.19537 0.03958 0.07911 0.0
C2100 C 0.26166 0.98961 0.06163 0.0
C2101 C 0.28283 0.99211 0.05269 0.0
C2102 C 0.29341 0.01508 0.04659 0.0
C2103 C 0.28314 0.03527 0.0494 0.0
C2104 C 0.26229 0.0322 0.05828 0.0
C2105 C 0.2516 1.00992 0.06417 0.0
C2106 C 0.22882 1.01113 0.07228 0.0
C2107 C 0.21023 0.9915 0.05452 0.0
C2108 C 0.22762 1.00813 0.09952 0.0
C2109 C 0.22828 0.03746 0.06976 0.0
C2110 C 0.24782 0.04942 0.06191 0.0
C2111 C 0.25095 0.07368 0.05767 0.0
C2112 C 0.23344 0.08586 0.06109 0.0
C2113 C 0.21307 0.07366 0.0685 0.0
C2114 C 0.21071 0.04931 0.07327 0.0
H2115 H 0.73572 0.62597 0.01269 0.0
H2116 H 0.71766 0.68496 0.98053 0.0
H2117 H 0.67815 0.66169 0.97384 0.0
H2118 H 0.69354 0.5725 0.97332 0.0
H2119 H 0.68803 0.55691 0.99899 0.0
H2120 H 0.71537 0.57635 0.99822 0.0
H2121 H 0.71316 0.60262 0.04195 0.0
H2122 H 0.68593 0.5832 0.04289 0.0
H2123 H 0.68972 0.61664 0.04694 0.0
H2124 H 0.64049 0.63432 0.97396 0.0
H2125 H 0.60683 0.60556 0.98315 0.0
H2126 H 0.6486 0.56478 0.01639 0.0
C2127 C 0.72349 0.63364 1.00368 0.0
C2128 C 0.72975 0.65713 0.99686 0.0
C2129 C 0.71322 0.66695 0.9858 0.0
C2130 C 0.69076 0.6538 0.98179 0.0
C2131 C 0.68505 0.63087 0.98904 0.0
C2132 C 0.70088 0.62088 0.99987 0.0
C2133 C 0.68995 0.59717 0.00826 0.0
C2134 C 0.69716 0.57438 0.99383 0.0
C2135 C 0.69499 0.6001 0.03669 0.0
C2136 C 0.66552 0.59573 1.00096 0.0
C2137 C 0.66311 0.61515 0.9895 0.0
C2138 C 0.64216 0.61875 0.98244 0.0
C2139 C 0.62317 0.60235 0.98761 0.0
C2140 C 0.62534 0.58277 0.99979 0.0
C2141 C 0.64668 0.57921 1.00632 0.0
H2142 H 0.73031 0.4463 0.31539 0.0
H2143 H 0.72992 0.45444 0.23836 0.0
H2144 H 0.75044 0.4206 0.22953 0.0
H2145 H 0.78566 0.43388 0.32228 0.0
H2146 H 0.77771 0.41166 0.34189 0.0
H2147 H 0.76347 0.43651 0.34177 0.0
H2148 H 0.72558 0.40391 0.33048 0.0
H2149 H 0.73976 0.37903 0.33067 0.0
H2150 H 0.72186 0.37891 0.30333 0.0
H2151 H 0.77275 0.38298 0.22987 0.0
H2152 H 0.79036 0.34911 0.23904 0.0
H2153 H 0.77553 0.3657 0.31562 0.0
C2154 C 0.73443 0.44117 0.29651 0.0
C2155 C 0.72802 0.45383 0.27765 0.0
C2156 C 0.73419 0.44568 0.2534 0.0
C2157 C 0.74607 0.42621 0.24822 0.0
C2158 C 0.75208 0.41432 0.2673 0.0
C2159 C 0.74625 0.42171 0.29104 0.0
C2160 C 0.75416 0.40612 0.30854 0.0
C2161 C 0.77125 0.42306 0.32989 0.0
C2162 C 0.73415 0.39111 0.31887 0.0
C2163 C 0.76524 0.38859 0.29123 0.0
C2164 C 0.76414 0.39356 0.26744 0.0
C2165 C 0.77349 0.37937 0.24858 0.0
C2166 C 0.78374 0.36 0.25398 0.0
C2167 C 0.78502 0.3544 0.27826 0.0
C2168 C 0.77534 0.36924 0.29687 0.0
H2169 H 0.92655 0.45614 0.52351 0.0
H2170 H 0.90604 0.52647 0.53785 0.0
H2171 H 0.9453 0.54958 0.53999 0.0
H2172 H 0.97674 0.47633 0.56475 0.0
H2173 H 0.99243 0.45894 0.54459 0.0
H2174 H 0.9626 0.44785 0.54309 0.0
H2175 H 0.95916 0.44708 0.49588 0.0
H2176 H 0.98885 0.45911 0.49673 0.0
H2177 H 0.96962 0.47529 0.48483 0.0
H2178 H 0.98687 0.56512 0.54372 0.0
H2179 H 0.0278 0.57197 0.546 0.0
H2180 H 0.02151 0.49176 0.52783 0.0
C2181 C 0.93027 0.47639 0.52692 0.0
C2182 C 0.91319 0.48949 0.53057 0.0
C2183 C 0.9188 0.51601 0.53499 0.0
C2184 C 0.94106 0.52932 0.53626 0.0
C2185 C 0.9575 0.51585 0.53294 0.0
C2186 C 0.95239 0.48998 0.52818 0.0
C2187 C 0.97327 0.48006 0.52564 0.0
C2188 C 0.97644 0.46491 0.54572 0.0
C2189 C 0.97271 0.46447 0.4992 0.0
C2190 C 0.99095 0.50441 0.53016 0.0
C2191 C 0.98147 0.52482 0.53433 0.0
C2192 C 0.99444 0.5493 0.54001 0.0
C2193 C 0.01771 0.55302 0.54109 0.0
C2194 C 0.02772 0.53241 0.53607 0.0
C2195 C 0.01417 0.50782 0.53108 0.0
H2196 H 0.35589 0.07949 0.28415 0.0
H2197 H 0.41956 0.1343 0.30042 0.0
H2198 H 0.40288 0.16368 0.2815 0.0
H2199 H 0.34024 0.09262 0.22452 0.0
H2200 H 0.31105 0.08834 0.22894 0.0
H2201 H 0.32796 0.07145 0.24364 0.0
H2202 H 0.317 0.08941 0.28706 0.0
H2203 H 0.29978 0.10597 0.27245 0.0
H2204 H 0.32132 0.12284 0.29733 0.0
H2205 H 0.3791 0.18741 0.26198 0.0
H2206 H 0.34913 0.20468 0.24516 0.0
H2207 H 0.30145 0.13394 0.24058 0.0
C2208 C 0.36631 0.09772 0.28388 0.0
C2209 C 0.38901 0.10465 0.29378 0.0
C2210 C 0.40212 0.12862 0.29294 0.0
C2211 C 0.39284 0.14538 0.28213 0.0
C2212 C 0.37051 0.13777 0.27213 0.0
C2213 C 0.35739 0.11457 0.27301 0.0
C2214 C 0.33374 0.11116 0.26139 0.0
C2215 C 0.32791 0.08961 0.23825 0.0
C2216 C 0.31698 0.10712 0.28071 0.0
C2217 C 0.33551 0.13623 0.25418 0.0
C2218 C 0.35691 0.15125 0.26039 0.0
C2219 C 0.36235 0.17575 0.25678 0.0
C2220 C 0.3453 0.18536 0.24721 0.0
C2221 C 0.32317 0.17045 0.24137 0.0
C2222 C 0.31836 0.14544 0.24434 0.0
H2223 H 0.39157 0.19571 0.54111 0.0
H2224 H 0.34477 0.13544 0.48921 0.0
H2225 H 0.37191 0.10892 0.48911 0.0
H2226 H 0.44256 0.18381 0.51533 0.0
H2227 H 0.45835 0.19141 0.54573 0.0
H2228 H 0.43591 0.20624 0.5402 0.0
H2229 H 0.41729 0.19094 0.57734 0.0
H2230 H 0.43961 0.17603 0.58293 0.0
H2231 H 0.41107 0.15801 0.57776 0.0
H2232 H 0.40323 0.08794 0.49699 0.0
H2233 H 0.43598 0.07424 0.51241 0.0
H2234 H 0.4626 0.14864 0.55827 0.0
C2235 C 0.3871 0.17706 0.52945 0.0
C2236 C 0.36602 0.16771 0.51512 0.0
C2237 C 0.36082 0.14308 0.50031 0.0
C2238 C 0.37615 0.12787 0.50009 0.0
C2239 C 0.39667 0.13757 0.51468 0.0
C2240 C 0.4022 0.16164 0.529 0.0
C2241 C 0.42492 0.16723 0.54387 0.0
C2242 C 0.44141 0.18843 0.53579 0.0
C2243 C 0.4231 0.17341 0.57214 0.0
C2244 C 0.4311 0.14236 0.5361 0.0
C2245 C 0.41469 0.12555 0.51911 0.0
C2246 C 0.41632 0.10106 0.51006 0.0
C2247 C 0.43507 0.09349 0.51883 0.0
C2248 C 0.45196 0.11032 0.53656 0.0
C2249 C 0.44996 0.13518 0.54491 0.0
H2250 H 0.70696 0.62685 0.28681 0.0
H2251 H 0.75555 0.58262 0.26898 0.0
H2252 H 0.78371 0.62143 0.26751 0.0
H2253 H 0.72401 0.67099 0.24745 0.0
H2254 H 0.71943 0.69744 0.26917 0.0
H2255 H 0.7033 0.66635 0.26896 0.0
H2256 H 0.71604 0.67208 0.31602 0.0
H2257 H 0.73215 0.70321 0.31637 0.0
H2258 H 0.74546 0.68073 0.32677 0.0
H2259 H 0.80675 0.66641 0.26664 0.0
H2260 H 0.82205 0.71124 0.26803 0.0
H2261 H 0.75911 0.72699 0.28818 0.0
C2262 C 0.72354 0.62516 0.28264 0.0
C2263 C 0.72876 0.60115 0.27801 0.0
C2264 C 0.75084 0.60039 0.27268 0.0
C2265 C 0.76702 0.62251 0.27176 0.0
C2266 C 0.76121 0.64572 0.2763 0.0
C2267 C 0.73994 0.64712 0.28179 0.0
C2268 C 0.73786 0.67433 0.28611 0.0
C2269 C 0.72009 0.67745 0.26677 0.0
C2270 C 0.73256 0.6831 0.31291 0.0
C2271 C 0.76122 0.68815 0.28217 0.0
C2272 C 0.77443 0.67128 0.27644 0.0
C2273 C 0.79648 0.67961 0.27151 0.0
C2274 C 0.80523 0.70547 0.27263 0.0
C2275 C 0.79234 0.72345 0.27895 0.0
C2276 C 0.76981 0.71422 0.28355 0.0
H2277 H 0.85656 0.47142 0.79134 0.0
H2278 H 0.92108 0.47003 0.82694 0.0
H2279 H 0.90816 0.42462 0.82402 0.0
H2280 H 0.82343 0.4252 0.82036 0.0
H2281 H 0.80396 0.40936 0.79316 0.0
H2282 H 0.81646 0.44241 0.7977 0.0
H2283 H 0.83273 0.43792 0.75585 0.0
H2284 H 0.81905 0.40512 0.74905 0.0
H2285 H 0.84866 0.4148 0.74766 0.0
H2286 H 0.89046 0.37932 0.8127 0.0
H2287 H 0.86735 0.33642 0.7964 0.0
H2288 H 0.81388 0.36678 0.76941 0.0
C2289 C 0.86782 0.46165 0.79895 0.0
C2290 C 0.88982 0.47426 0.80937 0.0
C2291 C 0.90415 0.46076 0.81887 0.0
C2292 C 0.89697 0.43497 0.81733 0.0
C2293 C 0.87539 0.42302 0.80642 0.0
C2294 C 0.86092 0.43587 0.79757 0.0
C2295 C 0.83894 0.41824 0.78565 0.0
C2296 C 0.81953 0.4241 0.80007 0.0
C2297 C 0.8346 0.41908 0.75791 0.0
C2298 C 0.84361 0.39345 0.78867 0.0
C2299 C 0.86475 0.39669 0.80074 0.0
C2300 C 0.87365 0.37651 0.80388 0.0
C2301 C 0.86049 0.35232 0.79463 0.0
C2302 C 0.83868 0.3487 0.78276 0.0
C2303 C 0.83023 0.36939 0.77939 0.0
H2304 H 0.08905 0.90775 0.12239 0.0
H2305 H 0.10025 0.86189 0.05341 0.0
H2306 H 0.09614 0.89571 0.03107 0.0
H2307 H 0.04758 0.93396 0.09579 0.0
H2308 H 0.05709 0.96442 0.11612 0.0
H2309 H 0.06114 0.93696 0.12669 0.0
H2310 H 0.10361 0.95592 0.13623 0.0
H2311 H 0.09992 0.98382 0.12637 0.0
H2312 H 0.11917 0.9669 0.11215 0.0
H2313 H 0.0909 0.93684 0.01639 0.0
H2314 H 0.0855 0.9787 0.01193 0.0
H2315 H 0.0778 0.99638 0.09078 0.0
C2316 C 0.09068 0.90462 0.10255 0.0
C2317 C 0.09504 0.88183 0.08981 0.0
C2318 C 0.09697 0.87897 0.06379 0.0
C2319 C 0.09462 0.89819 0.05091 0.0
C2320 C 0.09032 0.92039 0.06416 0.0
C2321 C 0.08841 0.92353 0.08951 0.0
C2322 C 0.08386 0.94894 0.09983 0.0
C2323 C 0.06106 0.94589 0.11022 0.0
C2324 C 0.10277 0.96483 0.11982 0.0
C2325 C 0.08361 0.95988 0.0765 0.0
C2326 C 0.08728 0.94324 0.05596 0.0
C2327 C 0.08791 0.94975 0.03246 0.0
C2328 C 0.08469 0.97358 0.03 0.0
C2329 C 0.08067 0.99072 0.05084 0.0
C2330 C 0.08047 0.98363 0.07436 0.0
H2331 H 0.97504 0.27435 0.84223 0.0
H2332 H 0.95459 0.25859 0.91296 0.0
H2333 H 0.9159 0.25963 0.89928 0.0
H2334 H 0.94071 0.31644 0.83464 0.0
H2335 H 0.93387 0.30524 0.80137 0.0
H2336 H 0.95985 0.30269 0.81634 0.0
H2337 H 0.9498 0.25493 0.79821 0.0
H2338 H 0.92381 0.25735 0.7831 0.0
H2339 H 0.92373 0.23601 0.80396 0.0
H2340 H 0.87977 0.26596 0.87907 0.0
H2341 H 0.84851 0.27219 0.85227 0.0
H2342 H 0.8915 0.28107 0.79347 0.0
C2343 C 0.96239 0.27086 0.85478 0.0
C2344 C 0.96802 0.2664 0.87879 0.0
C2345 C 0.95082 0.26189 0.89449 0.0
C2346 C 0.92875 0.26258 0.88689 0.0
C2347 C 0.92387 0.26739 0.86331 0.0
C2348 C 0.94014 0.27102 0.84728 0.0
C2349 C 0.93041 0.27554 0.82278 0.0
C2350 C 0.9419 0.30152 0.81854 0.0
C2351 C 0.93204 0.25471 0.80071 0.0
C2352 C 0.90624 0.27426 0.82763 0.0
C2353 C 0.90287 0.26979 0.85123 0.0
C2354 C 0.8822 0.26909 0.86044 0.0
C2355 C 0.86454 0.27277 0.84511 0.0
C2356 C 0.86738 0.27669 0.8206 0.0
C2357 C 0.8886 0.27745 0.81185 0.0
H2358 H 0.59595 0.23459 0.60502 0.0
H2359 H 0.60073 0.24737 0.52964 0.0
H2360 H 0.59455 0.2019 0.51349 0.0
H2361 H 0.62447 0.18352 0.59775 0.0
H2362 H 0.60688 0.16619 0.61662 0.0
H2363 H 0.61187 0.19984 0.62247 0.0
H2364 H 0.56917 0.19633 0.6173 0.0
H2365 H 0.56412 0.16269 0.61145 0.0
H2366 H 0.55264 0.17762 0.58904 0.0
H2367 H 0.58622 0.15438 0.50498 0.0
H2368 H 0.57749 0.10919 0.5053 0.0
H2369 H 0.57953 0.12651 0.586 0.0
C2370 C 0.5957 0.22785 0.58511 0.0
C2371 C 0.59881 0.24485 0.56866 0.0
C2372 C 0.59842 0.23501 0.54274 0.0
C2373 C 0.59491 0.20908 0.53333 0.0
C2374 C 0.5919 0.19292 0.54998 0.0
C2375 C 0.59235 0.20191 0.57535 0.0
C2376 C 0.58865 0.1804 0.58917 0.0
C2377 C 0.60919 0.18263 0.6076 0.0
C2378 C 0.56738 0.17919 0.60253 0.0
C2379 C 0.58583 0.15797 0.56762 0.0
C2380 C 0.58777 0.16562 0.54515 0.0
C2381 C 0.58502 0.14828 0.52254 0.0
C2382 C 0.58024 0.12256 0.5229 0.0
C2383 C 0.57868 0.11422 0.54572 0.0
C2384 C 0.58126 0.1323 0.56831 0.0
H2385 H 0.58739 0.82025 0.3779 0.0
H2386 H 0.58226 0.74687 0.3954 0.0
H2387 H 0.61681 0.74374 0.37576 0.0
H2388 H 0.60657 0.80595 0.3179 0.0
H2389 H 0.62511 0.83639 0.32103 0.0
H2390 H 0.60047 0.83303 0.33718 0.0
H2391 H 0.62492 0.85395 0.37922 0.0
H2392 H 0.64966 0.85726 0.3632 0.0
H2393 H 0.64763 0.84109 0.38876 0.0
H2394 H 0.65221 0.74865 0.35345 0.0
H2395 H 0.6835 0.76006 0.32848 0.0
H2396 H 0.66524 0.83017 0.32594 0.0
C2397 C 0.59351 0.80351 0.37769 0.0
C2398 C 0.58203 0.78382 0.38829 0.0
C2399 C 0.59067 0.76222 0.38743 0.0
C2400 C 0.61037 0.76031 0.37637 0.0
C2401 C 0.6213 0.78012 0.3662 0.0
C2402 C 0.61308 0.80126 0.36668 0.0
C2403 C 0.62755 0.81964 0.35385 0.0
C2404 C 0.61412 0.82399 0.33114 0.0
C2405 C 0.63806 0.84445 0.37237 0.0
C2406 C 0.64509 0.80549 0.34584 0.0
C2407 C 0.64136 0.78282 0.35329 0.0
C2408 C 0.65528 0.76641 0.34762 0.0
C2409 C 0.67315 0.77313 0.33357 0.0
C2410 C 0.6769 0.79599 0.32515 0.0
C2411 C 0.66278 0.81245 0.33185 0.0
H2412 H 0.10418 0.29439 0.45253 0.0
H2413 H 0.09691 0.24544 0.37941 0.0
H2414 H 0.0834 0.2087 0.39824 0.0
H2415 H 0.1229 0.25372 0.48832 0.0
H2416 H 0.10759 0.26243 0.51417 0.0
H2417 H 0.11727 0.28444 0.49487 0.0
H2418 H 0.07682 0.28915 0.48602 0.0
H2419 H 0.067 0.26709 0.50521 0.0
H2420 H 0.05483 0.26166 0.47328 0.0
H2421 H 0.07105 0.17722 0.42579 0.0
H2422 H 0.05948 0.15424 0.45915 0.0
H2423 H 0.07374 0.22463 0.51324 0.0
C2424 C 0.09991 0.27595 0.44042 0.0
C2425 C 0.10173 0.27275 0.41451 0.0
C2426 C 0.09568 0.24831 0.39933 0.0
C2427 C 0.08802 0.22735 0.40986 0.0
C2428 C 0.08636 0.23124 0.43552 0.0
C2429 C 0.09205 0.25499 0.45053 0.0
C2430 C 0.08824 0.25437 0.47741 0.0
C2431 C 0.11031 0.26433 0.4947 0.0
C2432 C 0.07068 0.26893 0.48597 0.0
C2433 C 0.07949 0.22656 0.47528 0.0
C2434 C 0.07867 0.21342 0.45105 0.0
C2435 C 0.07154 0.18736 0.44478 0.0
C2436 C 0.06506 0.17447 0.4638 0.0
C2437 C 0.06554 0.18773 0.48864 0.0
C2438 C 0.07286 0.21407 0.49432 0.0
H2439 H 0.58666 0.24945 0.18132 0.0
H2440 H 0.58272 0.31575 0.23496 0.0
H2441 H 0.61507 0.31116 0.26143 0.0
H2442 H 0.59966 0.2147 0.2266 0.0
H2443 H 0.61802 0.20008 0.20784 0.0
H2444 H 0.59514 0.20916 0.19297 0.0
H2445 H 0.62261 0.23585 0.16913 0.0
H2446 H 0.64555 0.22666 0.1837 0.0
H2447 H 0.6461 0.2594 0.18644 0.0
H2448 H 0.64902 0.29999 0.28082 0.0
H2449 H 0.68091 0.28244 0.29222 0.0
H2450 H 0.66023 0.22186 0.22724 0.0
C2451 C 0.59272 0.2632 0.19851 0.0
C2452 C 0.58243 0.28318 0.20599 0.0
C2453 C 0.59052 0.30042 0.22887 0.0
C2454 C 0.60881 0.29792 0.24399 0.0
C2455 C 0.61846 0.27782 0.2361 0.0
C2456 C 0.61057 0.2607 0.21396 0.0
C2457 C 0.62343 0.24044 0.20983 0.0
C2458 C 0.60815 0.21457 0.20929 0.0
C2459 C 0.63512 0.24062 0.18586 0.0
C2460 C 0.64009 0.249 0.23297 0.0
C2461 C 0.63705 0.27066 0.24787 0.0
C2462 C 0.65132 0.28285 0.26951 0.0
C2463 C 0.6693 0.27278 0.27587 0.0
C2464 C 0.67256 0.25062 0.26083 0.0
C2465 C 0.65764 0.23846 0.23933 0.0
H2466 H 0.6268 0.89433 0.95555 0.0
H2467 H 0.59662 0.88929 0.88037 0.0
H2468 H 0.58053 0.9251 0.89579 0.0
H2469 H 0.58164 0.90929 0.98699 0.0
H2470 H 0.59907 0.9307 0.01317 0.0
H2471 H 0.60906 0.90539 0.99601 0.0
H2472 H 0.64409 0.93722 0.98818 0.0
H2473 H 0.63405 0.96255 1.00549 0.0
H2474 H 0.64052 0.9628 0.9739 0.0
H2475 H 0.56562 0.95941 0.91959 0.0
H2476 H 0.55557 0.99267 0.94975 0.0
H2477 H 0.59703 0.97695 0.00903 0.0
C2478 C 0.61704 0.90097 0.94229 0.0
C2479 C 0.61296 0.88902 0.91679 0.0
C2480 C 0.60007 0.89822 0.90001 0.0
C2481 C 0.59077 0.9185 0.90857 0.0
C2482 C 0.59475 0.92955 0.93389 0.0
C2483 C 0.60785 0.92141 0.95046 0.0
C2484 C 0.60922 0.9364 0.9768 0.0
C2485 C 0.59914 0.91943 0.99426 0.0
C2486 C 0.63341 0.95059 0.98666 0.0
C2487 C 0.59482 0.95418 0.9724 0.0
C2488 C 0.58647 0.94974 0.94757 0.0
C2489 C 0.57222 0.96326 0.93907 0.0
C2490 C 0.56659 0.98212 0.9564 0.0
C2491 C 0.57541 0.98746 0.98189 0.0
C2492 C 0.58972 0.97322 0.98985 0.0
H2493 H 0.94461 0.76097 0.67032 0.0
H2494 H 0.98457 0.78657 0.74255 0.0
H2495 H 0.95047 0.77743 0.76355 0.0
H2496 H 0.90384 0.78788 0.68381 0.0
H2497 H 0.87923 0.76417 0.66935 0.0
H2498 H 0.90562 0.76471 0.65707 0.0
H2499 H 0.90698 0.72088 0.66156 0.0
H2500 H 0.87914 0.71699 0.6709 0.0
H2501 H 0.90112 0.71091 0.69034 0.0
H2502 H 0.91236 0.76618 0.7768 0.0
H2503 H 0.87239 0.76207 0.78179 0.0
H2504 H 0.85685 0.74837 0.70147 0.0
C2505 C 0.94624 0.76414 0.69054 0.0
C2506 C 0.96728 0.77432 0.70479 0.0
C2507 C 0.96866 0.77868 0.73123 0.0
C2508 C 0.94942 0.7733 0.74334 0.0
C2509 C 0.92895 0.7634 0.72876 0.0
C2510 C 0.92717 0.75891 0.70294 0.0
C2511 C 0.90292 0.75078 0.69182 0.0
C2512 C 0.89753 0.76791 0.67455 0.0
C2513 C 0.89721 0.72326 0.67783 0.0
C2514 C 0.89142 0.75359 0.71548 0.0
C2515 C 0.90675 0.75946 0.7365 0.0
C2516 C 0.90024 0.76211 0.76052 0.0
C2517 C 0.87757 0.76013 0.76321 0.0
C2518 C 0.86194 0.75667 0.74214 0.0
C2519 C 0.86872 0.75192 0.71791 0.0
H2520 H 0.11949 0.98094 0.84323 0.0
H2521 H 0.17191 0.04885 0.85314 0.0
H2522 H 0.16069 0.06331 0.89506 0.0
H2523 H 0.07811 1.00987 0.87482 0.0
H2524 H 0.06728 0.98366 0.88884 0.0
H2525 H 0.07928 0.9787 0.8597 0.0
H2526 H 0.10661 0.95676 0.87925 0.0
H2527 H 0.09468 0.96184 0.90843 0.0
H2528 H 0.12429 0.97297 0.90765 0.0
H2529 H 0.14367 0.07041 0.93756 0.0
H2530 H 0.12306 0.07013 0.97443 0.0
H2531 H 0.08045 0.99781 0.93849 0.0
C2532 C 0.1287 0.99895 0.85409 0.0
C2533 C 0.1469 0.01363 0.84411 0.0
C2534 C 0.15808 0.03702 0.85962 0.0
C2535 C 0.15173 0.04542 0.88374 0.0
C2536 C 0.13389 0.0305 0.89284 0.0
C2537 C 0.12246 1.00771 0.87835 0.0
C2538 C 0.1038 0.99529 0.89256 0.0
C2539 C 0.08075 0.99166 0.87811 0.0
C2540 C 0.10757 0.97022 0.89724 0.0
C2541 C 0.10647 0.01451 0.91734 0.0
C2542 C 0.12401 0.03466 0.917 0.0
C2543 C 0.12991 0.05466 0.93767 0.0
C2544 C 0.11787 0.05429 0.95887 0.0
C2545 C 0.09954 0.03413 0.96017 0.0
C2546 C 0.094 0.01383 0.93867 0.0
H2547 H 0.83978 0.38632 0.57901 0.0
H2548 H 0.84969 0.46429 0.61621 0.0
H2549 H 0.85647 0.45303 0.65688 0.0
H2550 H 0.81228 0.35917 0.62889 0.0
H2551 H 0.82584 0.33349 0.62446 0.0
H2552 H 0.81963 0.3472 0.5984 0.0
H2553 H 0.86129 0.35537 0.59038 0.0
H2554 H 0.86762 0.34173 0.61637 0.0
H2555 H 0.88243 0.37306 0.61539 0.0
H2556 H 0.86595 0.43436 0.69272 0.0
H2557 H 0.8767 0.40913 0.72166 0.0
H2558 H 0.8597 0.34303 0.66173 0.0
C2559 C 0.84302 0.40097 0.59574 0.0
C2560 C 0.84419 0.42619 0.5944 0.0
C2561 C 0.84869 0.44483 0.61673 0.0
C2562 C 0.8525 0.43862 0.63995 0.0
C2563 C 0.85157 0.41367 0.64057 0.0
C2564 C 0.8468 0.39509 0.61911 0.0
C2565 C 0.84804 0.36995 0.62486 0.0
C2566 C 0.82508 0.35136 0.61879 0.0
C2567 C 0.86591 0.35943 0.61093 0.0
C2568 C 0.85488 0.37748 0.65279 0.0
C2569 C 0.85666 0.40276 0.66148 0.0
C2570 C 0.86423 0.41446 0.68625 0.0
C2571 C 0.87032 0.39999 0.70253 0.0
C2572 C 0.86866 0.37405 0.69407 0.0
C2573 C 0.86059 0.36267 0.6689 0.0
H2574 H 0.45099 1.00652 0.37513 0.0
H2575 H 0.46379 0.08309 0.36449 0.0
H2576 H 0.49847 0.0938 0.39361 0.0
H2577 H 0.46894 0.02166 0.44018 0.0
H2578 H 0.4808 0.99486 0.4393 0.0
H2579 H 0.45779 0.99345 0.41681 0.0
H2580 H 0.48126 0.98106 0.38088 0.0
H2581 H 0.50448 0.98289 0.40337 0.0
H2582 H 0.50816 1.00109 0.37944 0.0
H2583 H 0.53172 0.09589 0.42436 0.0
H2584 H 0.55776 0.0904 0.45813 0.0
H2585 H 0.52224 0.01263 0.44789 0.0
C2586 C 0.46108 0.02555 0.37887 0.0
C2587 C 0.45481 0.04396 0.36755 0.0
C2588 C 0.46831 0.06872 0.3731 0.0
C2589 C 0.48811 0.07491 0.3894 0.0
C2590 C 0.494 0.05612 0.39993 0.0
C2591 C 0.4807 0.03203 0.3951 0.0
C2592 C 0.48993 0.01556 0.40978 0.0
C2593 C 0.47338 1.00583 0.42757 0.0
C2594 C 0.49634 0.99387 0.39232 0.0
C2595 C 0.51035 0.03422 0.42394 0.0
C2596 C 0.51272 0.05743 0.41778 0.0
C2597 C 0.53007 0.07778 0.42927 0.0
C2598 C 0.54483 0.07449 0.44825 0.0
C2599 C 0.54173 0.05116 0.45558 0.0
C2600 C 0.52478 0.03069 0.44273 0.0
H2601 H 0.80964 0.77344 0.09198 0.0
H2602 H 0.79675 0.69392 0.09204 0.0
H2603 H 0.79833 0.70337 0.13787 0.0
H2604 H 0.84879 0.79373 0.14658 0.0
H2605 H 0.83947 0.82168 0.15822 0.0
H2606 H 0.83615 0.80881 0.12513 0.0
H2607 H 0.79402 0.8071 0.12384 0.0
H2608 H 0.79668 0.81916 0.15709 0.0
H2609 H 0.77729 0.7898 0.14336 0.0
H2610 H 0.80445 0.72098 0.18355 0.0
H2611 H 0.81315 0.74616 0.22667 0.0
H2612 H 0.82071 0.8143 0.19814 0.0
C2613 C 0.80693 0.75801 0.10162 0.0
C2614 C 0.80307 0.7329 0.08826 0.0
C2615 C 0.79974 0.7133 0.10169 0.0
C2616 C 0.80056 0.71845 0.1278 0.0
C2617 C 0.80459 0.74331 0.14038 0.0
C2618 C 0.80763 0.76281 0.12782 0.0
C2619 C 0.81243 0.78789 0.14612 0.0
C2620 C 0.83559 0.80397 0.14388 0.0
C2621 C 0.79401 0.80181 0.14239 0.0
C2622 C 0.81192 0.77936 0.17083 0.0
C2623 C 0.80736 0.75354 0.167 0.0
C2624 C 0.8075 0.74118 0.18682 0.0
C2625 C 0.81235 0.75558 0.21122 0.0
C2626 C 0.81653 0.78201 0.21563 0.0
C2627 C 0.81662 0.79405 0.19518 0.0
H2628 H 0.10714 0.01227 0.7037 0.0
H2629 H 0.17619 0.0219 0.68845 0.0
H2630 H 0.16525 0.02777 0.64592 0.0
H2631 H 0.08293 0.97756 0.64066 0.0
H2632 H 0.05913 0.99132 0.64054 0.0
H2633 H 0.07216 0.98782 0.66962 0.0
H2634 H 0.07762 0.0348 0.6875 0.0
H2635 H 0.0651 0.03931 0.65861 0.0
H2636 H 0.09276 0.05732 0.67145 0.0
H2637 H 0.14565 0.03342 0.60312 0.0
H2638 H 0.12073 0.03694 0.56724 0.0
H2639 H 0.06409 0.02304 0.60951 0.0
C2640 C 0.12012 0.0155 0.6915 0.0
C2641 C 0.14286 0.01651 0.70022 0.0
C2642 C 0.15879 0.0208 0.68292 0.0
C2643 C 0.15262 0.02428 0.65847 0.0
C2644 C 0.13019 0.02335 0.65073 0.0
C2645 C 0.11416 0.0188 0.66685 0.0
C2646 C 0.0911 0.01828 0.65403 0.0
C2647 C 0.07539 0.9922 0.65104 0.0
C2648 C 0.08104 0.03863 0.66877 0.0
C2649 C 0.09652 0.02382 0.62841 0.0
C2650 C 0.1192 0.02659 0.62677 0.0
C2651 C 0.12799 0.03148 0.60468 0.0
C2652 C 0.11361 0.03364 0.58421 0.0
C2653 C 0.09027 0.03126 0.58531 0.0
C2654 C 0.08181 0.02579 0.6079 0.0
H2655 H 0.84476 0.44219 0.43719 0.0
H2656 H 0.81932 0.39387 0.48741 0.0
H2657 H 0.81431 0.35683 0.45299 0.0
H2658 H 0.80756 0.40658 0.38211 0.0
H2659 H 0.82861 0.41245 0.36124 0.0
H2660 H 0.82937 0.43498 0.3897 0.0
H2661 H 0.86993 0.43271 0.40266 0.0
H2662 H 0.86918 0.41 0.37436 0.0
H2663 H 0.87571 0.40281 0.40428 0.0
H2664 H 0.81309 0.32475 0.41273 0.0
H2665 H 0.8141 0.30112 0.36993 0.0
H2666 H 0.8408 0.3711 0.34732 0.0
C2667 C 0.83797 0.42386 0.44096 0.0
C2668 C 0.83244 0.42096 0.46501 0.0
C2669 C 0.82363 0.39659 0.46911 0.0
C2670 C 0.82078 0.37542 0.4497 0.0
C2671 C 0.82675 0.37894 0.4263 0.0
C2672 C 0.835 0.40261 0.42186 0.0
C2673 C 0.84027 0.40144 0.39515 0.0
C2674 C 0.82558 0.41464 0.38124 0.0
C2675 C 0.86526 0.41238 0.39407 0.0
C2676 C 0.83397 0.37344 0.38533 0.0
C2677 C 0.82612 0.36069 0.40344 0.0
C2678 C 0.8191 0.3346 0.39839 0.0
C2679 C 0.81971 0.32133 0.37402 0.0
C2680 C 0.82719 0.33421 0.35507 0.0
C2681 C 0.83482 0.36056 0.36116 0.0
H2682 H 0.46044 0.99074 0.25398 0.0
H2683 H 0.44963 0.06556 0.25856 0.0
H2684 H 0.48048 0.07545 0.23315 0.0
H2685 H 0.52063 1.00788 0.25684 0.0
H2686 H 0.52235 0.9805 0.23437 0.0
H2687 H 0.49966 0.97907 0.2536 0.0
H2688 H 0.47095 0.96377 0.21401 0.0
H2689 H 0.49354 0.96482 0.19471 0.0
H2690 H 0.47259 0.98191 0.18998 0.0
H2691 H 0.51222 0.07772 0.20779 0.0
H2692 H 0.5409 0.07063 0.17974 0.0
H2693 H 0.5309 0.99414 0.19018 0.0
C2694 C 0.46455 1.00917 0.24959 0.0
C2695 C 0.45267 0.02738 0.25834 0.0
C2696 C 0.45845 0.05125 0.25206 0.0
C2697 C 0.47606 0.05715 0.23777 0.0
C2698 C 0.48765 0.03896 0.22978 0.0
C2699 C 0.48203 0.01535 0.23513 0.0
C2700 C 0.49668 0.99899 0.22322 0.0
C2701 C 0.51066 0.99116 0.24321 0.0
C2702 C 0.4826 0.97602 0.20436 0.0
C2703 C 0.51126 0.01709 0.21023 0.0
C2704 C 0.50589 0.04012 0.21457 0.0
C2705 C 0.51659 0.05978 0.20419 0.0
C2706 C 0.5328 0.05557 0.1883 0.0
C2707 C 0.53799 0.03184 0.18279 0.0
C2708 C 0.52744 0.01254 0.19436 0.0
H2709 H 0.77276 0.70859 0.92613 0.0
H2710 H 0.84058 0.72489 0.96187 0.0
H2711 H 0.85465 0.74188 0.92576 0.0
H2712 H 0.78344 0.68938 0.8643 0.0
H2713 H 0.76408 0.70417 0.85043 0.0
H2714 H 0.75926 0.69439 0.87948 0.0
H2715 H 0.75779 0.73948 0.90059 0.0
H2716 H 0.76234 0.74932 0.87148 0.0
H2717 H 0.78076 0.76532 0.89939 0.0
H2718 H 0.86134 0.75246 0.8832 0.0
H2719 H 0.85978 0.76182 0.84092 0.0
H2720 H 0.78736 0.74237 0.83521 0.0
C2721 C 0.79055 0.71607 0.92649 0.0
C2722 C 0.80562 0.71541 0.94673 0.0
C2723 C 0.82876 0.72543 0.94662 0.0
C2724 C 0.83689 0.73495 0.92613 0.0
C2725 C 0.82161 0.73479 0.90617 0.0
C2726 C 0.79887 0.72618 0.9065 0.0
C2727 C 0.78592 0.72836 0.88291 0.0
C2728 C 0.77238 0.70253 0.86843 0.0
C2729 C 0.77081 0.74671 0.88896 0.0
C2730 C 0.80494 0.73891 0.86895 0.0
C2731 C 0.82541 0.74234 0.88254 0.0
C2732 C 0.84537 0.75057 0.87274 0.0
C2733 C 0.84432 0.75607 0.84876 0.0
C2734 C 0.82349 0.75388 0.83504 0.0
C2735 C 0.8036 0.74475 0.84527 0.0
H2736 H 0.86071 0.08425 0.03905 0.0
H2737 H 0.81522 0.05177 0.97127 0.0
H2738 H 0.83956 0.02345 0.95719 0.0
H2739 H 0.91113 0.08342 0.01108 0.0
H2740 H 0.92514 0.07551 0.03723 0.0
H2741 H 0.90383 0.09275 0.04222 0.0
H2742 H 0.88212 0.05904 0.06402 0.0
H2743 H 0.90339 0.04171 0.0591 0.0
H2744 H 0.87463 0.0267 0.0478 0.0
H2745 H 0.86958 0.99953 0.94994 0.0
H2746 H 0.90303 0.98204 0.95016 0.0
H2747 H 0.9279 0.02935 0.02333 0.0
C2748 C 0.8558 0.07115 0.02127 0.0
C2749 C 0.83607 0.07024 1.00626 0.0
C2750 C 0.83026 0.0528 0.98312 0.0
C2751 C 0.84396 0.03661 0.97496 0.0
C2752 C 0.86333 0.03804 0.9902 0.0
C2753 C 0.86921 0.05482 0.0129 0.0
C2754 C 0.89102 0.05282 0.02563 0.0
C2755 C 0.90883 0.0776 0.02924 0.0
C2756 C 0.88757 0.04457 0.05062 0.0
C2757 C 0.8966 0.03248 1.00643 0.0
C2758 C 0.88043 0.02413 0.98615 0.0
C2759 C 0.88228 1.00579 0.96582 0.0
C2760 C 0.90126 0.99586 0.96618 0.0
C2761 C 0.91812 1.00432 0.98673 0.0
C2762 C 0.9155 0.02269 1.00717 0.0
H2763 H 0.40576 0.44922 0.02855 0.0
H2764 H 0.39779 0.48942 0.10211 0.0
H2765 H 0.43607 0.51568 0.10495 0.0
H2766 H 0.46285 0.44792 0.0422 0.0
H2767 H 0.4705 0.45216 0.01183 0.0
H2768 H 0.44227 0.437 0.01523 0.0
H2769 H 0.42747 0.46929 0.99476 0.0
H2770 H 0.45567 0.48449 0.99123 0.0
H2771 H 0.43804 0.50228 0.00766 0.0
H2772 H 0.47551 0.53727 0.09994 0.0
H2773 H 0.51294 0.5525 0.08744 0.0
H2774 H 0.49508 0.49784 0.01731 0.0
C2775 C 0.41197 0.46363 0.04522 0.0
C2776 C 0.3987 0.46728 0.0651 0.0
C2777 C 0.40759 0.48627 0.08663 0.0
C2778 C 0.42933 0.50129 0.08842 0.0
C2779 C 0.44199 0.49706 0.06856 0.0
C2780 C 0.43364 0.47871 0.04736 0.0
C2781 C 0.45078 0.47772 0.02881 0.0
C2782 C 0.45696 0.45218 0.02426 0.0
C2783 C 0.44249 0.48381 1.00416 0.0
C2784 C 0.47011 0.49836 0.04291 0.0
C2785 C 0.4647 0.50934 0.06576 0.0
C2786 C 0.47989 0.52884 0.08205 0.0
C2787 C 0.50111 0.53741 0.07474 0.0
C2788 C 0.50698 0.5265 0.05131 0.0
C2789 C 0.49121 0.50662 0.03534 0.0
H2790 H 0.41027 0.65772 0.7427 0.0
H2791 H 0.39554 0.63399 0.81183 0.0
H2792 H 0.37394 0.66675 0.82126 0.0
H2793 H 0.41736 0.72419 0.76603 0.0
H2794 H 0.40477 0.72945 0.73754 0.0
H2795 H 0.4185 0.70406 0.73651 0.0
H2796 H 0.38241 0.6728 0.71365 0.0
H2797 H 0.36864 0.69816 0.71467 0.0
H2798 H 0.35658 0.67154 0.72753 0.0
H2799 H 0.35258 0.70525 0.82269 0.0
H2800 H 0.33701 0.74136 0.81613 0.0
H2801 H 0.36612 0.73971 0.74627 0.0
C2802 C 0.40256 0.65917 0.75994 0.0
C2803 C 0.40509 0.64247 0.77641 0.0
C2804 C 0.39432 0.64592 0.79863 0.0
C2805 C 0.38183 0.66476 0.80415 0.0
C2806 C 0.37978 0.68073 0.78745 0.0
C2807 C 0.39004 0.67792 0.76571 0.0
C2808 C 0.38576 0.6973 0.75065 0.0
C2809 C 0.40792 0.71478 0.74749 0.0
C2810 C 0.37257 0.68416 0.72511 0.0
C2811 C 0.37164 0.71172 0.76709 0.0
C2812 C 0.36813 0.70194 0.78829 0.0
C2813 C 0.35544 0.71263 0.80599 0.0
C2814 C 0.34641 0.73334 0.80207 0.0
C2815 C 0.3497 0.74377 0.78043 0.0
C2816 C 0.3628 0.73246 0.76298 0.0
H2817 H 0.2393 0.6742 0.54609 0.0
H2818 H 0.26093 0.60594 0.52001 0.0
H2819 H 0.22196 0.58127 0.51757 0.0
H2820 H 0.19838 0.64964 0.58326 0.0
H2821 H 0.17789 0.6661 0.57486 0.0
H2822 H 0.20726 0.67968 0.57514 0.0
H2823 H 0.20282 0.68367 0.52938 0.0
H2824 H 0.17312 0.67191 0.52841 0.0
H2825 H 0.18843 0.65687 0.50572 0.0
H2826 H 0.18042 0.56449 0.5162 0.0
H2827 H 0.1395 0.5569 0.51503 0.0
H2828 H 0.14505 0.6362 0.54155 0.0
C2829 C 0.23592 0.65403 0.54012 0.0
C2830 C 0.25313 0.64192 0.53342 0.0
C2831 C 0.24796 0.61555 0.52528 0.0
C2832 C 0.22592 0.60141 0.5239 0.0
C2833 C 0.20933 0.61401 0.53051 0.0
C2834 C 0.21406 0.63974 0.53828 0.0
C2835 C 0.19313 0.64893 0.54316 0.0
C2836 C 0.1942 0.66183 0.57074 0.0
C2837 C 0.18915 0.66637 0.52562 0.0
C2838 C 0.17577 0.62433 0.53679 0.0
C2839 C 0.18547 0.60439 0.52971 0.0
C2840 C 0.17271 0.57991 0.52211 0.0
C2841 C 0.14945 0.57572 0.52177 0.0
C2842 C 0.13924 0.59583 0.52925 0.0
C2843 C 0.15257 0.62046 0.53641 0.0
H2844 H 0.74981 0.98567 0.78136 0.0
H2845 H 0.7398 0.94113 0.70568 0.0
H2846 H 0.7576 0.91024 0.72066 0.0
H2847 H 0.80326 0.97518 0.79918 0.0
H2848 H 0.79736 0.97375 0.83075 0.0
H2849 H 0.78432 0.99236 0.81375 0.0
H2850 H 0.74527 0.96812 0.82156 0.0
H2851 H 0.75824 0.94937 0.83846 0.0
H2852 H 0.73756 0.93443 0.81215 0.0
H2853 H 0.77564 0.88397 0.74433 0.0
H2854 H 0.79358 0.86481 0.77449 0.0
H2855 H 0.79174 0.92728 0.8343 0.0
C2856 C 0.75145 0.96953 0.76781 0.0
C2857 C 0.74346 0.96578 0.74234 0.0
C2858 C 0.74587 0.94436 0.72529 0.0
C2859 C 0.75589 0.92672 0.73362 0.0
C2860 C 0.76329 0.93089 0.75897 0.0
C2861 C 0.76125 0.95181 0.77577 0.0
C2862 C 0.77028 0.95191 0.80206 0.0
C2863 C 0.78998 0.97465 0.81201 0.0
C2864 C 0.75173 0.95089 0.81958 0.0
C2865 C 0.77789 0.92779 0.79747 0.0
C2866 C 0.77366 0.91588 0.77254 0.0
C2867 C 0.77917 0.89322 0.76386 0.0
C2868 C 0.78946 0.88258 0.78113 0.0
C2869 C 0.79421 0.8947 0.80674 0.0
C2870 C 0.78817 0.91749 0.81493 0.0
H2871 H 0.78387 0.94866 0.52417 0.0
H2872 H 0.77278 0.94824 0.60157 0.0
H2873 H 0.74464 0.97308 0.5985 0.0
H2874 H 0.77956 1.01183 0.52609 0.0
H2875 H 0.76555 1.00526 0.49484 0.0
H2876 H 0.78429 0.98667 0.50274 0.0
H2877 H 0.75282 0.94631 0.48783 0.0
H2878 H 0.73399 0.96476 0.47981 0.0
H2879 H 0.72653 0.94391 0.50089 0.0
H2880 H 0.71787 0.99815 0.5872 0.0
H2881 H 0.69498 0.02252 0.56869 0.0
H2882 H 0.72364 1.00739 0.49884 0.0
C2883 C 0.77542 0.95365 0.54044 0.0
C2884 C 0.78051 0.94641 0.56311 0.0
C2885 C 0.76922 0.95356 0.58401 0.0
C2886 C 0.75316 0.96764 0.58245 0.0
C2887 C 0.74865 0.97458 0.55989 0.0
C2888 C 0.75947 0.9679 0.53927 0.0
C2889 C 0.75188 0.97832 0.51744 0.0
C2890 C 0.77149 0.9966 0.50984 0.0
C2891 C 0.74063 0.95705 0.49518 0.0
C2892 C 0.73511 0.9919 0.52902 0.0
C2893 C 0.73344 0.98939 0.55348 0.0
C2894 C 0.71901 1.00018 0.56804 0.0
C2895 C 0.70597 0.01391 0.55733 0.0
C2896 C 0.7074 0.0169 0.53234 0.0
C2897 C 0.72227 1.00569 0.51807 0.0
H2898 H 0.42403 0.47588 0.79854 0.0
H2899 H 0.38055 0.50218 0.74987 0.0
H2900 H 0.35381 0.46056 0.74195 0.0
H2901 H 0.41459 0.41258 0.76276 0.0
H2902 H 0.41519 0.39865 0.78981 0.0
H2903 H 0.4307 0.43035 0.79163 0.0
H2904 H 0.41028 0.44571 0.82913 0.0
H2905 H 0.39472 0.41405 0.82743 0.0
H2906 H 0.38017 0.43844 0.82598 0.0
H2907 H 0.33162 0.41424 0.73872 0.0
H2908 H 0.31646 0.37026 0.74132 0.0
H2909 H 0.37377 0.37399 0.79312 0.0
C2910 C 0.40889 0.47306 0.78618 0.0
C2911 C 0.40468 0.49286 0.77483 0.0
C2912 C 0.38445 0.48778 0.75889 0.0
C2913 C 0.36909 0.464 0.75426 0.0
C2914 C 0.37386 0.44502 0.7657 0.0
C2915 C 0.39332 0.44942 0.78145 0.0
C2916 C 0.39455 0.42602 0.79162 0.0
C2917 C 0.41497 0.41633 0.78347 0.0
C2918 C 0.39496 0.43138 0.82024 0.0
C2919 C 0.37282 0.40761 0.77915 0.0
C2920 C 0.36112 0.41893 0.76421 0.0
C2921 C 0.34072 0.40552 0.7506 0.0
C2922 C 0.33207 0.38033 0.75235 0.0
C2923 C 0.34344 0.36816 0.76777 0.0
C2924 C 0.36431 0.38233 0.78122 0.0
H2925 H 0.2506 0.5857 0.25054 0.0
H2926 H 0.20872 0.58588 0.18386 0.0
H2927 H 0.2263 0.63061 0.18715 0.0
H2928 H 0.24767 0.64424 0.28402 0.0
H2929 H 0.27622 0.65312 0.29818 0.0
H2930 H 0.26202 0.62054 0.28919 0.0
H2931 H 0.29346 0.61206 0.26224 0.0
H2932 H 0.30784 0.64468 0.27064 0.0
H2933 H 0.30044 0.62946 0.23818 0.0
H2934 H 0.2458 0.6763 0.20005 0.0
H2935 H 0.26721 0.71903 0.22076 0.0
H2936 H 0.29637 0.68875 0.27849 0.0
C2937 C 0.24539 0.59501 0.23637 0.0
C2938 C 0.22829 0.58227 0.21694 0.0
C2939 C 0.22181 0.59523 0.19891 0.0
C2940 C 0.23171 0.62064 0.20059 0.0
C2941 C 0.24814 0.63279 0.22031 0.0
C2942 C 0.25507 0.62035 0.23775 0.0
C2943 C 0.27228 0.63796 0.2578 0.0
C2944 C 0.26404 0.63902 0.28383 0.0
C2945 C 0.29485 0.63061 0.25717 0.0
C2946 C 0.27344 0.66236 0.24933 0.0
C2947 C 0.25955 0.65899 0.22755 0.0
C2948 C 0.25704 0.67909 0.21685 0.0
C2949 C 0.26926 0.70321 0.22865 0.0
C2950 C 0.28387 0.70683 0.25067 0.0
C2951 C 0.28569 0.68623 0.26129 0.0
H2952 H 0.53834 0.67661 0.42596 0.0
H2953 H 0.52668 0.72342 0.49411 0.0
H2954 H 0.53271 0.69108 0.51764 0.0
H2955 H 0.51069 0.61747 0.43875 0.0
H2956 H 0.53042 0.60125 0.42458 0.0
H2957 H 0.52518 0.62813 0.41381 0.0
H2958 H 0.56754 0.6493 0.42223 0.0
H2959 H 0.57284 0.62253 0.43321 0.0
H2960 H 0.58188 0.65333 0.45297 0.0
H2961 H 0.54031 0.65148 0.53367 0.0
H2962 H 0.54747 0.61067 0.53932 0.0
H2963 H 0.55424 0.59119 0.46036 0.0
C2964 C 0.53698 0.68025 0.44586 0.0
C2965 C 0.53196 0.70287 0.45804 0.0
C2966 C 0.53043 0.70642 0.48417 0.0
C2967 C 0.5339 0.68807 0.49772 0.0
C2968 C 0.53892 0.66606 0.48502 0.0
C2969 C 0.54038 0.66222 0.45956 0.0
C2970 C 0.54582 0.63715 0.44989 0.0
C2971 C 0.5269 0.62 0.43062 0.0
C2972 C 0.56835 0.64081 0.43893 0.0
C2973 C 0.54721 0.62725 0.47374 0.0
C2974 C 0.54326 0.64407 0.49396 0.0
C2975 C 0.54351 0.63843 0.51784 0.0
C2976 C 0.54777 0.61522 0.52098 0.0
C2977 C 0.55197 0.59787 0.50042 0.0
C2978 C 0.55146 0.60415 0.47656 0.0
H2979 H 0.65466 0.29723 0.69911 0.0
H2980 H 0.68101 0.33726 0.64288 0.0
H2981 H 0.71951 0.33867 0.66006 0.0
H2982 H 0.69882 0.33144 0.74981 0.0
H2983 H 0.69784 0.30383 0.76248 0.0
H2984 H 0.67319 0.30754 0.74581 0.0
H2985 H 0.67062 0.26425 0.71665 0.0
H2986 H 0.69587 0.26145 0.73301 0.0
H2987 H 0.69394 0.25947 0.6997 0.0
H2988 H 0.75558 0.33255 0.68193 0.0
H2989 H 0.78529 0.32268 0.70819 0.0
H2990 H 0.73538 0.28837 0.75113 0.0
C2991 C 0.6685 0.3065 0.69048 0.0
C2992 C 0.66463 0.31715 0.66953 0.0
C2993 C 0.68338 0.3291 0.65897 0.0
C2994 C 0.70537 0.3299 0.66858 0.0
C2995 C 0.70854 0.31894 0.68904 0.0
C2996 C 0.69055 0.30775 0.70003 0.0
C2997 C 0.69834 0.29749 0.72195 0.0
C2998 C 0.69166 0.3109 0.74646 0.0
C2999 C 0.68915 0.26897 0.71755 0.0
C3000 C 0.72352 0.30418 0.72138 0.0
C3001 C 0.72911 0.31646 0.70218 0.0
C3002 C 0.75131 0.32329 0.69721 0.0
C3003 C 0.76811 0.31754 0.71219 0.0
C3004 C 0.76284 0.30532 0.73222 0.0
C3005 C 0.74015 0.2986 0.73671 0.0
H3006 H 0.0394 0.35175 0.94121 0.0
H3007 H 0.03243 0.33891 0.01633 0.0
H3008 H 0.03941 0.38444 0.03251 0.0
H3009 H 0.08343 0.40793 0.95774 0.0
H3010 H 0.07271 0.42335 0.93527 0.0
H3011 H 0.06697 0.38966 0.92927 0.0
H3012 H 0.02454 0.38729 0.92349 0.0
H3013 H 0.0301 0.421 0.92963 0.0
H3014 H 0.01194 0.40377 0.94809 0.0
H3015 H 0.0487 0.43151 0.04114 0.0
H3016 H 0.05824 0.47643 0.0413 0.0
H3017 H 0.05778 0.46023 0.96075 0.0
C3018 C 0.03939 0.35851 0.96108 0.0
C3019 C 0.03543 0.34151 0.97747 0.0
C3020 C 0.0354 0.35132 1.00331 0.0
C3021 C 0.03936 0.37725 0.01272 0.0
C3022 C 0.04319 0.39341 0.99614 0.0
C3023 C 0.04312 0.38448 0.97083 0.0
C3024 C 0.04755 0.40608 0.95714 0.0
C3025 C 0.06894 0.40679 0.94408 0.0
C3026 C 0.02733 0.40443 0.93848 0.0
C3027 C 0.05053 0.4285 0.97875 0.0
C3028 C 0.04787 0.42067 1.00105 0.0
C3029 C 0.05043 0.43778 0.02369 0.0
C3030 C 0.05566 0.46348 0.02359 0.0
C3031 C 0.05788 0.47216 1.00099 0.0
C3032 C 0.05564 0.45426 0.9783 0.0
H3033 H 0.06546 0.82479 0.21022 0.0
H3034 H 0.03362 0.80178 0.13383 0.0
H3035 H 0.99663 0.79396 0.1495 0.0
H3036 H 0.02827 0.77932 0.23514 0.0
H3037 H 0.02825 0.80009 0.2646 0.0
H3038 H 0.05221 0.80476 0.24743 0.0
H3039 H 0.04944 0.85035 0.24782 0.0
H3040 H 0.02548 0.84583 0.26505 0.0
H3041 H 0.02359 0.8561 0.23589 0.0
H3042 H 0.96276 0.78734 0.17369 0.0
H3043 H 0.93523 0.78227 0.20426 0.0
H3044 H 0.98902 0.81048 0.26486 0.0
C3045 C 0.05073 0.81826 0.19675 0.0
C3046 C 0.0526 0.81395 0.17071 0.0
C3047 C 0.03277 0.80527 0.15383 0.0
C3048 C 0.01161 0.80077 0.16256 0.0
C3049 C 1.01039 0.80506 0.18829 0.0
C3050 C 0.02943 0.81367 0.20515 0.0
C3051 C 0.02353 0.81634 0.23185 0.0
C3052 C 0.03367 0.7991 0.24556 0.0
C3053 C 0.03095 0.84379 0.24598 0.0
C3054 C 0.99824 0.80767 0.2274 0.0
C3055 C 0.99096 0.80134 0.20215 0.0
C3056 C 0.96831 0.79243 0.19351 0.0
C3057 C 0.95273 0.78976 0.21108 0.0
C3058 C 0.95976 0.79593 0.23712 0.0
C3059 C 0.98293 0.80523 0.24518 0.0
H3060 H 0.5611 0.35987 0.13473 0.0
H3061 H 0.50705 0.29553 0.10164 0.0
H3062 H 0.50692 0.30994 0.06179 0.0
H3063 H 0.54119 0.4036 0.10583 0.0
H3064 H 0.56853 0.4206 0.10135 0.0
H3065 H 0.5652 0.40442 0.12679 0.0
H3066 H 0.59434 0.3798 0.11093 0.0
H3067 H 0.5977 0.39588 0.08536 0.0
H3068 H 0.59022 0.36213 0.07918 0.0
H3069 H 0.51166 0.3323 0.02598 0.0
H3070 H 0.51994 0.36196 0.99769 0.0
H3071 H 0.57118 0.41109 0.05411 0.0
C3072 C 0.54933 0.3487 0.11907 0.0
C3073 C 0.53411 0.32657 0.12132 0.0
C3074 C 0.51887 0.31259 0.1004 0.0
C3075 C 0.51872 0.32055 0.07763 0.0
C3076 C 0.53393 0.34249 0.07607 0.0
C3077 C 0.54892 0.35639 0.09624 0.0
C3078 C 0.5629 0.3798 0.08999 0.0
C3079 C 0.55922 0.40349 0.107 0.0
C3080 C 0.58776 0.37936 0.09145 0.0
C3081 C 0.55317 0.37709 0.0633 0.0
C3082 C 0.53662 0.35535 0.0555 0.0
C3083 C 0.52472 0.34929 0.03179 0.0
C3084 C 0.52962 0.36615 0.0158 0.0
C3085 C 0.54617 0.38882 0.0237 0.0
C3086 C 0.55831 0.39401 0.0476 0.0
H3087 H 0.02824 0.29304 0.31822 0.0
H3088 H 0.08035 0.36003 0.32052 0.0
H3089 H 0.05277 0.37968 0.30312 0.0
H3090 H 0.99594 0.29665 0.25904 0.0
H3091 H 0.96954 0.28528 0.27019 0.0
H3092 H 0.99387 0.27517 0.27999 0.0
H3093 H 0.98815 0.29038 0.32628 0.0
H3094 H 0.96406 0.30086 0.31666 0.0
H3095 H 0.9869 0.32249 0.33716 0.0
H3096 H 0.01919 0.39473 0.29268 0.0
H3097 H 0.98209 0.40261 0.28502 0.0
H3098 H 0.95176 0.32452 0.28453 0.0
C3099 C 0.03394 0.31157 0.31444 0.0
C3100 C 0.05646 0.32496 0.3208 0.0
C3101 C 0.06322 0.34929 0.31575 0.0
C3102 C 0.04767 0.36069 0.30588 0.0
C3103 C 0.0255 0.34735 0.30063 0.0
C3104 C 0.01866 0.32313 0.30418 0.0
C3105 C 0.99359 0.31349 0.29803 0.0
C3106 C 0.98791 0.29133 0.27547 0.0
C3107 C 0.98254 0.3064 0.3209 0.0
C3108 C 0.98741 0.33647 0.29155 0.0
C3109 C 1.00607 0.35575 0.29317 0.0
C3110 C 1.00446 0.37954 0.2905 0.0
C3111 C 0.98318 0.38377 0.28596 0.0
C3112 C 0.96367 0.36419 0.28374 0.0
C3113 C 0.96607 0.34012 0.28626 0.0
H3114 H 0.02027 0.72024 0.60447 0.0
H3115 H 0.0654 0.73765 0.67294 0.0
H3116 H 0.08024 0.70092 0.65762 0.0
H3117 H 1.00843 0.65211 0.59737 0.0
H3118 H 1.00766 0.64643 0.56379 0.0
H3119 H 0.99984 0.67371 0.58041 0.0
H3120 H 0.02958 0.70257 0.56052 0.0
H3121 H 0.03654 0.67503 0.54356 0.0
H3122 H 0.05809 0.69952 0.56297 0.0
H3123 H 0.0914 0.66384 0.63476 0.0
H3124 H 0.09755 0.62723 0.60604 0.0
H3125 H 0.04457 0.63227 0.55241 0.0
C3126 C 0.03318 0.71623 0.61628 0.0
C3127 C 0.04168 0.7319 0.63989 0.0
C3128 C 0.05856 0.72596 0.6548 0.0
C3129 C 0.06714 0.70513 0.64628 0.0
C3130 C 0.05857 0.69024 0.62288 0.0
C3131 C 0.04185 0.6953 0.60813 0.0
C3132 C 0.03587 0.67629 0.58358 0.0
C3133 C 0.0115 0.66124 0.58116 0.0
C3134 C 0.04032 0.68914 0.56136 0.0
C3135 C 0.05209 0.66 0.58677 0.0
C3136 C 0.06496 0.66846 0.60961 0.0
C3137 C 0.08136 0.65692 0.61684 0.0
C3138 C 0.08472 0.63608 0.6003 0.0
C3139 C 0.0717 0.62686 0.57675 0.0
C3140 C 0.05506 0.63899 0.57004 0.0
H3141 H 0.68555 0.84332 0.82695 0.0
H3142 H 0.70266 0.82406 0.89761 0.0
H3143 H 0.73871 0.81808 0.88393 0.0
H3144 H 0.70421 0.80238 0.78929 0.0
H3145 H 0.71874 0.81978 0.76821 0.0
H3146 H 0.69619 0.82977 0.78323 0.0
H3147 H 0.7189 0.87304 0.80512 0.0
H3148 H 0.74129 0.86635 0.78751 0.0
H3149 H 0.74621 0.87658 0.82106 0.0
H3150 H 0.7699 0.80871 0.86118 0.0
H3151 H 0.79651 0.79925 0.83135 0.0
H3152 H 0.76082 0.82589 0.77536 0.0
C3153 C 0.69716 0.83842 0.83969 0.0
C3154 C 0.69138 0.83406 0.86328 0.0
C3155 C 0.70687 0.82763 0.87953 0.0
C3156 C 0.72739 0.82423 0.87195 0.0
C3157 C 0.73241 0.82807 0.84838 0.0
C3158 C 0.7181 0.83571 0.83271 0.0
C3159 C 0.72736 0.83756 0.80794 0.0
C3160 C 0.71069 0.82139 0.78582 0.0
C3161 C 0.73384 0.86502 0.80527 0.0
C3162 C 0.74799 0.82743 0.81133 0.0
C3163 C 0.75081 0.82277 0.8351 0.0
C3164 C 0.76808 0.81258 0.84264 0.0
C3165 C 0.783 0.80709 0.82551 0.0
C3166 C 0.78039 0.81148 0.80102 0.0
C3167 C 0.76293 0.82219 0.79395 0.0
H3168 H 0.46678 0.52509 0.68124 0.0
H3169 H 0.48973 0.60347 0.71735 0.0
H3170 H 0.51237 0.61057 0.68237 0.0
H3171 H 0.51907 0.51749 0.65707 0.0
H3172 H 0.50583 0.49673 0.62816 0.0
H3173 H 0.49148 0.49781 0.65584 0.0
H3174 H 0.45805 0.50763 0.63217 0.0
H3175 H 0.4723 0.5066 0.60441 0.0
H3176 H 0.46269 0.53405 0.61715 0.0
H3177 H 0.53321 0.60904 0.64194 0.0
H3178 H 0.54941 0.59956 0.60233 0.0
H3179 H 0.51366 0.52176 0.59122 0.0
C3180 C 0.47654 0.54387 0.68197 0.0
C3181 C 0.47611 0.56374 0.70275 0.0
C3182 C 0.4894 0.58781 0.70222 0.0
C3183 C 0.50244 0.592 0.68217 0.0
C3184 C 0.50239 0.57205 0.66218 0.0
C3185 C 0.48971 0.54838 0.662 0.0
C3186 C 0.49256 0.53006 0.63829 0.0
C3187 C 0.50284 0.50928 0.64526 0.0
C3188 C 0.47006 0.51892 0.62205 0.0
C3189 C 0.50878 0.54696 0.62502 0.0
C3190 C 0.51423 0.57114 0.63923 0.0
C3191 C 0.52893 0.59008 0.63098 0.0
C3192 C 0.53826 0.58439 0.60818 0.0
C3193 C 0.53334 0.55978 0.59299 0.0
C3194 C 0.51806 0.54085 0.60186 0.0
H3195 H 0.77522 0.14823 0.95459 0.0
H3196 H 0.80611 0.19621 0.02567 0.0
H3197 H 0.80135 0.23328 0.00981 0.0
H3198 H 0.80129 0.18989 0.91681 0.0
H3199 H 0.77733 0.18246 0.89376 0.0
H3200 H 0.78217 0.15951 0.91113 0.0
H3201 H 0.74257 0.15559 0.92555 0.0
H3202 H 0.73771 0.17874 0.9084 0.0
H3203 H 0.73474 0.18322 0.94136 0.0
H3204 H 0.793 0.26512 0.9867 0.0
H3205 H 0.78562 0.29018 0.95581 0.0
H3206 H 0.76171 0.22199 0.89925 0.0
C3207 C 0.78093 0.16655 0.96678 0.0
C3208 C 0.79097 0.16935 0.99133 0.0
C3209 C 0.79847 0.19363 1.0067 0.0
C3210 C 0.79569 0.21481 0.99797 0.0
C3211 C 0.78559 0.21142 0.97375 0.0
C3212 C 0.77862 0.18798 0.95821 0.0
C3213 C 0.76944 0.18975 0.9325 0.0
C3214 C 0.7834 0.17982 0.91237 0.0
C3215 C 0.74464 0.17601 0.92662 0.0
C3216 C 0.77243 0.21782 0.93605 0.0
C3217 C 0.78145 0.22993 0.9601 0.0
C3218 C 0.78591 0.25589 0.9678 0.0
C3219 C 0.78154 0.26994 0.95024 0.0
C3220 C 0.77309 0.25794 0.92529 0.0
C3221 C 0.76819 0.23156 0.91825 0.0
H3222 H 0.17247 0.50869 0.16103 0.0
H3223 H 0.12223 0.45364 0.18577 0.0
H3224 H 0.09391 0.45872 0.15445 0.0
H3225 H 0.13905 0.54979 0.15544 0.0
H3226 H 0.15011 0.55937 0.12822 0.0
H3227 H 0.16729 0.54874 0.14962 0.0
H3228 H 0.17403 0.51478 0.11356 0.0
H3229 H 0.15729 0.52569 0.0919 0.0
H3230 H 0.15044 0.49323 0.09416 0.0
H3231 H 0.07054 0.47265 0.12312 0.0
H3232 H 0.05435 0.49215 0.09203 0.0
H3233 H 0.11979 0.54004 0.09029 0.0
C3234 C 0.15568 0.49714 0.15943 0.0
C3235 C 0.14955 0.48069 0.17579 0.0
C3236 C 0.1273 0.46625 0.17333 0.0
C3237 C 0.11109 0.46908 0.15567 0.0
C3238 C 0.11748 0.48643 0.14074 0.0
C3239 C 0.1393 0.5 0.14225 0.0
C3240 C 0.14156 0.51874 0.12543 0.0
C3241 C 0.14999 0.54575 0.14059 0.0
C3242 C 0.15672 0.51274 0.10506 0.0
C3243 C 0.11753 0.51384 0.11448 0.0
C3244 C 0.10392 0.49503 0.12338 0.0
C3245 C 0.08106 0.48733 0.11594 0.0
C3246 C 0.07198 0.49873 0.09844 0.0
C3247 C 0.08573 0.51777 0.08874 0.0
C3248 C 0.10875 0.52559 0.09726 0.0
H3249 H 0.83155 0.88391 0.46641 0.0
H3250 H 0.82419 0.80972 0.48254 0.0
H3251 H 0.82246 0.79186 0.43735 0.0
H3252 H 0.79392 0.86605 0.4109 0.0
H3253 H 0.8103 0.888 0.39508 0.0
H3254 H 0.81184 0.89481 0.42868 0.0
H3255 H 0.85469 0.90053 0.43138 0.0
H3256 H 0.85347 0.89322 0.39778 0.0
H3257 H 0.86625 0.87546 0.41616 0.0
H3258 H 0.81937 0.78189 0.38957 0.0
H3259 H 0.81612 0.7812 0.34404 0.0
H3260 H 0.82634 0.86192 0.35985 0.0
C3261 C 0.82967 0.86391 0.46053 0.0
C3262 C 0.82797 0.84824 0.47813 0.0
C3263 C 0.82555 0.82215 0.4695 0.0
C3264 C 0.82456 0.81182 0.44383 0.0
C3265 C 0.82616 0.82782 0.427 0.0
C3266 C 0.82876 0.85333 0.43507 0.0
C3267 C 0.82963 0.86649 0.41328 0.0
C3268 C 0.81027 0.8796 0.41191 0.0
C3269 C 0.85236 0.88502 0.41474 0.0
C3270 C 0.82678 0.84439 0.39162 0.0
C3271 C 0.82487 0.82221 0.39983 0.0
C3272 C 0.82119 0.79922 0.38301 0.0
C3273 C 0.81949 0.79898 0.35722 0.0
C3274 C 0.82182 0.82161 0.34857 0.0
C3275 C 0.82518 0.84446 0.36605 0.0
H3276 H 0.45414 0.56955 0.88346 0.0
H3277 H 0.50547 0.57074 0.83306 0.0
H3278 H 0.53207 0.56676 0.86734 0.0
H3279 H 0.48984 0.60603 0.93886 0.0
H3280 H 0.47516 0.58842 0.95963 0.0
H3281 H 0.4606 0.5909 0.93102 0.0
H3282 H 0.44855 0.54254 0.91806 0.0
H3283 H 0.4632 0.53998 0.9466 0.0
H3284 H 0.46955 0.52461 0.91687 0.0
H3285 H 0.55382 0.56176 0.91003 0.0
H3286 H 0.567 0.5596 0.95331 0.0
H3287 H 0.50153 0.56278 0.97553 0.0
C3288 C 0.47099 0.56904 0.87939 0.0
C3289 C 0.47731 0.57055 0.85488 0.0
C3290 C 0.49979 0.56978 0.85121 0.0
C3291 C 0.51512 0.5674 0.87081 0.0
C3292 C 0.50818 0.56583 0.89459 0.0
C3293 C 0.48652 0.56683 0.8988 0.0
C3294 C 0.48295 0.56529 0.92593 0.0
C3295 C 0.47677 0.58907 0.93967 0.0
C3296 C 0.46499 0.54171 0.92691 0.0
C3297 C 0.5059 0.56346 0.93663 0.0
C3298 C 0.52032 0.56349 0.9183 0.0
C3299 C 0.5424 0.56175 0.92421 0.0
C3300 C 0.54982 0.56032 0.94902 0.0
C3301 C 0.53541 0.56054 0.96827 0.0
C3302 C 0.51312 0.56224 0.96152 0.0
H3303 H 0.8126 0.16785 0.12496 0.0
H3304 H 0.84294 0.22048 0.08086 0.0
H3305 H 0.83845 0.2556 0.11329 0.0
H3306 H 0.77202 0.20033 0.14892 0.0
H3307 H 0.77503 0.19351 0.17965 0.0
H3308 H 0.78033 0.17224 0.15288 0.0
H3309 H 0.82001 0.17563 0.17394 0.0
H3310 H 0.8149 0.19678 0.2009 0.0
H3311 H 0.83868 0.20611 0.18445 0.0
H3312 H 0.82933 0.28497 0.14975 0.0
H3313 H 0.8218 0.30675 0.19074 0.0
H3314 H 0.79877 0.23503 0.21144 0.0
C3315 C 0.81844 0.18677 0.1222 0.0
C3316 C 0.82808 0.19141 0.10036 0.0
C3317 C 0.83561 0.21645 0.0975 0.0
C3318 C 0.83293 0.23653 0.1157 0.0
C3319 C 0.82285 0.23128 0.1367 0.0
C3320 C 0.81609 0.20706 0.14027 0.0
C3321 C 0.80673 0.20662 0.16509 0.0
C3322 C 0.78206 0.19233 0.1614 0.0
C3323 C 0.82091 0.19562 0.18212 0.0
C3324 C 0.80927 0.23436 0.17486 0.0
C3325 C 0.81833 0.24825 0.15808 0.0
C3326 C 0.82247 0.27429 0.16316 0.0
C3327 C 0.81821 0.2865 0.18652 0.0
C3328 C 0.81045 0.27268 0.20468 0.0
C3329 C 0.80505 0.24624 0.19825 0.0
H3330 H 0.15065 0.57357 0.28061 0.0
H3331 H 0.14728 0.49486 0.2786 0.0
H3332 H 0.11917 0.4943 0.30852 0.0
H3333 H 0.1481 0.59038 0.34498 0.0
H3334 H 0.13131 0.61269 0.34307 0.0
H3335 H 0.14921 0.60631 0.31923 0.0
H3336 H 0.11528 0.59483 0.2853 0.0
H3337 H 0.09722 0.60111 0.3091 0.0
H3338 H 0.09101 0.57108 0.28782 0.0
H3339 H 0.09434 0.50283 0.3412 0.0
H3340 H 0.07495 0.52051 0.37577 0.0
H3341 H 0.09408 0.59359 0.35697 0.0
C3342 C 0.14369 0.55613 0.28613 0.0
C3343 C 0.1511 0.53426 0.27723 0.0
C3344 C 0.14188 0.51188 0.28521 0.0
C3345 C 0.12579 0.5113 0.30208 0.0
C3346 C 0.11904 0.53323 0.31076 0.0
C3347 C 0.12766 0.55524 0.30311 0.0
C3348 C 0.11882 0.57662 0.31687 0.0
C3349 C 0.138 0.59773 0.33193 0.0
C3350 C 0.10474 0.58648 0.29868 0.0
C3351 C 0.10439 0.56329 0.33388 0.0
C3352 C 0.10456 0.5382 0.3298 0.0
C3353 C 0.09379 0.52235 0.34435 0.0
C3354 C 0.08289 0.53254 0.36394 0.0
C3355 C 0.08292 0.55829 0.36878 0.0
C3356 C 0.09341 0.57372 0.35324 0.0
H3357 H 0.83738 0.87567 0.62011 0.0
H3358 H 0.76942 0.83978 0.58705 0.0
H3359 H 0.76231 0.8214 0.62403 0.0
H3360 H 0.84716 0.82522 0.64854 0.0
H3361 H 0.86315 0.84608 0.67608 0.0
H3362 H 0.86245 0.85617 0.64682 0.0
H3363 H 0.84898 0.89484 0.6689 0.0
H3364 H 0.84896 0.88387 0.69778 0.0
H3365 H 0.82389 0.89005 0.68431 0.0
H3366 H 0.76229 0.80651 0.6641 0.0
H3367 H 0.77014 0.79402 0.70376 0.0
H3368 H 0.83797 0.83918 0.71189 0.0
C3369 C 0.82102 0.8639 0.62063 0.0
C3370 C 0.80396 0.85919 0.60052 0.0
C3371 C 0.78278 0.84374 0.60209 0.0
C3372 C 0.77853 0.83324 0.6231 0.0
C3373 C 0.79558 0.83838 0.6426 0.0
C3374 C 0.81643 0.85328 0.64161 0.0
C3375 C 0.83183 0.85544 0.66514 0.0
C3376 C 0.85235 0.84508 0.65874 0.0
C3377 C 0.83882 0.88267 0.6799 0.0
C3378 C 0.81651 0.83894 0.67915 0.0
C3379 C 0.79562 0.82955 0.66583 0.0
C3380 C 0.77866 0.81359 0.67457 0.0
C3381 C 0.78335 0.80637 0.69707 0.0
C3382 C 0.80487 0.81472 0.71062 0.0
C3383 C 0.82143 0.832 0.70188 0.0
H3384 H 0.76558 0.49684 0.50655 0.0
H3385 H 0.81641 0.53269 0.56905 0.0
H3386 H 0.79443 0.56348 0.58324 0.0
H3387 H 0.75187 0.5544 0.49493 0.0
H3388 H 0.7225 0.53993 0.48721 0.0
H3389 H 0.74281 0.52144 0.48118 0.0
H3390 H 0.72311 0.49087 0.50746 0.0
H3391 H 0.70282 0.50932 0.51365 0.0
H3392 H 0.71887 0.50293 0.53926 0.0
H3393 H 0.76585 0.58878 0.59225 0.0
H3394 H 0.733 0.60716 0.59484 0.0
H3395 H 0.70156 0.55604 0.52556 0.0
C3396 C 0.77221 0.5113 0.52308 0.0
C3397 C 0.79275 0.5123 0.53666 0.0
C3398 C 0.80075 0.53151 0.55827 0.0
C3399 C 0.78839 0.54913 0.56651 0.0
C3400 C 0.76812 0.54744 0.55286 0.0
C3401 C 0.76013 0.52914 0.53152 0.0
C3402 C 0.73756 0.53111 0.52065 0.0
C3403 C 0.73877 0.53708 0.49444 0.0
C3404 C 0.71953 0.50713 0.52025 0.0
C3405 C 0.73396 0.55308 0.53948 0.0
C3406 C 0.7518 0.56229 0.55786 0.0
C3407 C 0.7519 0.58194 0.57778 0.0
C3408 C 0.73319 0.59236 0.57901 0.0
C3409 C 0.71463 0.58314 0.56042 0.0
C3410 C 0.71529 0.5634 0.54027 0.0
H3411 H 0.22005 0.17604 0.53325 0.0
H3412 H 0.25116 0.12153 0.49086 0.0
H3413 H 0.21687 0.08844 0.48933 0.0
H3414 H 0.19086 0.13567 0.57031 0.0
H3415 H 0.16647 0.14839 0.56974 0.0
H3416 H 0.19346 0.16774 0.56752 0.0
H3417 H 0.17818 0.17717 0.52608 0.0
H3418 H 0.15113 0.15798 0.52826 0.0
H3419 H 0.165 0.15153 0.50063 0.0
H3420 H 0.17896 0.06124 0.4926 0.0
H3421 H 0.14018 0.04256 0.49913 0.0
H3422 H 0.13435 0.11524 0.53935 0.0
C3423 C 0.21969 0.15717 0.52361 0.0
C3424 C 0.23831 0.15139 0.51219 0.0
C3425 C 0.2371 0.12642 0.49973 0.0
C3426 C 0.21771 0.10749 0.49881 0.0
C3427 C 0.19971 0.11383 0.51041 0.0
C3428 C 0.20052 0.13809 0.52249 0.0
C3429 C 0.17886 0.1401 0.53325 0.0
C3430 C 0.18265 0.14847 0.5619 0.0
C3431 C 0.16763 0.15774 0.52134 0.0
C3432 C 0.16569 0.11319 0.52529 0.0
C3433 C 0.17799 0.09827 0.51222 0.0
C3434 C 0.16918 0.07276 0.50283 0.0
C3435 C 0.14713 0.06231 0.50669 0.0
C3436 C 0.13415 0.07738 0.51977 0.0
C3437 C 0.14375 0.10311 0.5293 0.0
H3438 H 0.21448 0.92652 0.80866 0.0
H3439 H 0.23981 0.95786 0.74676 0.0
H3440 H 0.26354 0.92695 0.74013 0.0
H3441 H 0.26597 0.91411 0.83289 0.0
H3442 H 0.25231 0.88534 0.8413 0.0
H3443 H 0.23762 0.90974 0.84072 0.0
H3444 H 0.20584 0.87845 0.81008 0.0
H3445 H 0.22047 0.85396 0.8105 0.0
H3446 H 0.21244 0.86152 0.78123 0.0
H3447 H 0.28561 0.88912 0.74055 0.0
H3448 H 0.30073 0.85298 0.74786 0.0
H3449 H 0.2615 0.84741 0.81006 0.0
C3450 C 0.22496 0.92713 0.79358 0.0
C3451 C 0.22476 0.94542 0.7783 0.0
C3452 C 0.23912 0.94463 0.75893 0.0
C3453 C 0.25285 0.92685 0.75504 0.0
C3454 C 0.25257 0.90928 0.77053 0.0
C3455 C 0.23877 0.90947 0.78946 0.0
C3456 C 0.24108 0.8888 0.80369 0.0
C3457 C 0.24975 0.90018 0.83129 0.0
C3458 C 0.21862 0.86955 0.80124 0.0
C3459 C 0.25839 0.87688 0.7902 0.0
C3460 C 0.2649 0.88877 0.77098 0.0
C3461 C 0.28049 0.88022 0.75582 0.0
C3462 C 0.28933 0.85954 0.76027 0.0
C3463 C 0.28323 0.84716 0.78014 0.0
C3464 C 0.26723 0.85633 0.79499 0.0
H3465 H 0.40036 0.9625 0.01903 0.0
H3466 H 0.38976 0.03739 0.04152 0.0
H3467 H 0.42976 0.05529 0.03965 0.0
H3468 H 0.45125 0.97298 0.05488 0.0
H3469 H 0.46368 0.95399 0.03215 0.0
H3470 H 0.43383 0.94707 0.03235 0.0
H3471 H 0.42904 0.95034 0.98592 0.0
H3472 H 0.45894 0.95749 0.98542 0.0
H3473 H 0.44299 0.97851 0.97662 0.0
H3474 H 0.47122 0.06476 0.03997 0.0
H3475 H 0.51112 0.06526 0.04097 0.0
H3476 H 0.49501 0.98441 0.01745 0.0
C3477 C 0.40634 0.98269 0.02317 0.0
C3478 C 0.39193 0.99856 0.03044 0.0
C3479 C 0.40048 0.02486 0.03587 0.0
C3480 C 0.42316 0.03521 0.03481 0.0
C3481 C 0.43698 0.01899 0.0281 0.0
C3482 C 0.42889 0.99331 0.02218 0.0
C3483 C 0.44749 0.97999 0.01695 0.0
C3484 C 0.44915 0.96248 0.03518 0.0
C3485 C 0.44443 0.96574 0.9896 0.0
C3486 C 0.46741 1.00217 0.0218 0.0
C3487 C 0.46094 0.0245 0.02789 0.0
C3488 C 0.47644 0.04744 0.0346 0.0
C3489 C 0.49915 0.04756 0.03494 0.0
C3490 C 0.50612 0.02496 0.02824 0.0
C3491 C 0.49003 1.00198 0.02194 0.0
H3492 H 0.90883 0.62515 0.77892 0.0
H3493 H 0.87643 0.54583 0.76168 0.0
H3494 H 0.84595 0.55412 0.73579 0.0
H3495 H 0.86073 0.64677 0.78632 0.0
H3496 H 0.86941 0.67354 0.77235 0.0
H3497 H 0.89002 0.66097 0.78693 0.0
H3498 H 0.9087 0.65574 0.74577 0.0
H3499 H 0.88798 0.66822 0.73105 0.0
H3500 H 0.89223 0.63797 0.71711 0.0
H3501 H 0.81687 0.57143 0.71605 0.0
H3502 H 0.79114 0.59695 0.70515 0.0
H3503 H 0.84328 0.66447 0.73325 0.0
C3504 C 0.89552 0.60948 0.76938 0.0
C3505 C 0.89504 0.58488 0.77233 0.0
C3506 C 0.8772 0.56488 0.75969 0.0
C3507 C 0.85985 0.56935 0.7448 0.0
C3508 C 0.8607 0.59386 0.74248 0.0
C3509 C 0.87813 0.61359 0.75432 0.0
C3510 C 0.87419 0.63837 0.75036 0.0
C3511 C 0.87354 0.65593 0.77548 0.0
C3512 C 0.89183 0.6508 0.73516 0.0
C3513 C 0.85143 0.62955 0.73537 0.0
C3514 C 0.84404 0.6038 0.73069 0.0
C3515 C 0.82263 0.59159 0.71913 0.0
C3516 C 0.80816 0.60619 0.71289 0.0
C3517 C 0.81522 0.63263 0.71843 0.0
C3518 C 0.83741 0.64427 0.72891 0.0
H3519 H 0.82947 0.59593 0.99229 0.0
H3520 H 0.86543 0.67132 0.02896 0.0
H3521 H 0.89928 0.65606 0.0363 0.0
H3522 H 0.85386 0.56436 0.03326 0.0
H3523 H 0.8553 0.53815 0.00911 0.0
H3524 H 0.83404 0.55509 1.00561 0.0
H3525 H 0.84727 0.56321 0.96332 0.0
H3526 H 0.86856 0.54625 0.96669 0.0
H3527 H 0.87614 0.57794 0.96205 0.0
H3528 H 0.92887 0.63256 0.04119 0.0
H3529 H 0.95207 0.60223 0.0436 0.0
H3530 H 0.89737 0.54216 1.00304 0.0
C3531 C 0.84449 0.60926 1.00171 0.0
C3532 C 0.84473 0.63485 0.01002 0.0
C3533 C 0.86476 0.65163 0.0224 0.0
C3534 C 0.88413 0.64316 0.02663 0.0
C3535 C 0.88329 0.61785 0.01835 0.0
C3536 C 0.86403 0.60112 1.00611 0.0
C3537 C 0.86752 0.57476 0.99972 0.0
C3538 C 0.85175 0.55705 0.01271 0.0
C3539 C 0.86471 0.56497 0.97125 0.0
C3540 C 0.89163 0.57928 0.01059 0.0
C3541 C 0.90044 0.60428 0.02111 0.0
C3542 C 0.92223 0.61295 0.0328 0.0
C3543 C 0.93534 0.59557 0.03393 0.0
C3544 C 0.92665 0.56976 0.02344 0.0
C3545 C 0.90451 0.56168 0.01145 0.0
H3546 H 0.20882 0.1107 0.74961 0.0
H3547 H 0.25007 0.0851 0.80132 0.0
H3548 H 0.27691 0.1267 0.80972 0.0
H3549 H 0.25417 0.14761 0.72376 0.0
H3550 H 0.23981 0.17188 0.72089 0.0
H3551 H 0.22407 0.14029 0.71913 0.0
H3552 H 0.20219 0.15613 0.75506 0.0
H3553 H 0.21789 0.18776 0.75695 0.0
H3554 H 0.21729 0.17425 0.78434 0.0
H3555 H 0.29947 0.17319 0.81306 0.0
H3556 H 0.31504 0.21707 0.81008 0.0
H3557 H 0.25966 0.21221 0.7552 0.0
C3558 C 0.2235 0.11366 0.76273 0.0
C3559 C 0.22703 0.09405 0.77478 0.0
C3560 C 0.24668 0.09933 0.79172 0.0
C3561 C 0.2621 0.12312 0.79664 0.0
C3562 C 0.25798 0.14191 0.78449 0.0
C3563 C 0.2391 0.13729 0.76776 0.0
C3564 C 0.23845 0.16047 0.75696 0.0
C3565 C 0.23917 0.15471 0.72849 0.0
C3566 C 0.21773 0.17023 0.76373 0.0
C3567 C 0.25985 0.179 0.77017 0.0
C3568 C 0.27089 0.16799 0.78605 0.0
C3569 C 0.29089 0.18165 0.80044 0.0
C3570 C 0.29979 0.20677 0.79848 0.0
C3571 C 0.2891 0.21857 0.78206 0.0
C3572 C 0.26862 0.20416 0.76788 0.0
H3573 H 0.34583 0.95582 0.25662 0.0
H3574 H 0.38482 0.9681 0.32861 0.0
H3575 H 0.37486 0.92275 0.32733 0.0
H3576 H 0.30108 0.90379 0.26711 0.0
H3577 H 0.29822 0.88726 0.23504 0.0
H3578 H 0.30666 0.92098 0.24262 0.0
H3579 H 0.34174 0.91931 0.21974 0.0
H3580 H 0.3343 0.88559 0.21256 0.0
H3581 H 0.36102 0.90216 0.22956 0.0
H3582 H 0.36478 0.87582 0.31578 0.0
H3583 H 0.35121 0.83065 0.29671 0.0
H3584 H 0.31759 0.84915 0.23348 0.0
C3585 C 0.3519 0.94904 0.27235 0.0
C3586 C 0.36613 0.9655 0.29266 0.0
C3587 C 0.37383 0.95586 0.31284 0.0
C3588 C 0.36831 0.93011 0.3123 0.0
C3589 C 0.35481 0.91431 0.29165 0.0
C3590 C 0.34633 0.92342 0.27227 0.0
C3591 C 0.33286 0.90234 0.25182 0.0
C3592 C 0.30824 0.90367 0.24899 0.0
C3593 C 0.34307 0.90234 0.22693 0.0
C3594 C 0.33559 0.88002 0.26246 0.0
C3595 C 0.34835 0.88728 0.28542 0.0
C3596 C 0.3543 0.86989 0.29811 0.0
C3597 C 0.34651 0.84436 0.28725 0.0
C3598 C 0.33265 0.8367 0.26427 0.0
C3599 C 0.32758 0.85471 0.2515 0.0
H3600 H 0.58846 0.4121 0.62472 0.0
H3601 H 0.60426 0.36744 0.55754 0.0
H3602 H 0.60013 0.40074 0.53451 0.0
H3603 H 0.54696 0.43623 0.59499 0.0
H3604 H 0.55483 0.46675 0.61542 0.0
H3605 H 0.55915 0.4397 0.62659 0.0
H3606 H 0.60112 0.46043 0.63871 0.0
H3607 H 0.5971 0.4879 0.62819 0.0
H3608 H 0.61769 0.47206 0.61564 0.0
H3609 H 0.59437 0.44112 0.5189 0.0
H3610 H 0.588 0.48231 0.51339 0.0
H3611 H 0.57615 0.49943 0.59106 0.0
C3612 C 0.59109 0.40913 0.60514 0.0
C3613 C 0.59675 0.38684 0.59309 0.0
C3614 C 0.59996 0.38416 0.56737 0.0
C3615 C 0.59761 0.40307 0.5541 0.0
C3616 C 0.59202 0.42479 0.56666 0.0
C3617 C 0.58883 0.42776 0.5917 0.0
C3618 C 0.58305 0.45268 0.60125 0.0
C3619 C 0.55961 0.44859 0.61008 0.0
C3620 C 0.6008 0.46924 0.62218 0.0
C3621 C 0.58359 0.46353 0.57784 0.0
C3622 C 0.5887 0.44727 0.55793 0.0
C3623 C 0.59025 0.45375 0.53447 0.0
C3624 C 0.58647 0.47717 0.5314 0.0
C3625 C 0.58101 0.49394 0.55159 0.0
C3626 C 0.57991 0.48692 0.57511 0.0
H3627 H 0.44339 0.79441 0.40351 0.0
H3628 H 0.47054 0.73664 0.36042 0.0
H3629 H 0.43953 0.72882 0.3268 0.0
H3630 H 0.38441 0.76286 0.38575 0.0
H3631 H 0.3764 0.79181 0.38499 0.0
H3632 H 0.40029 0.79174 0.40553 0.0
H3633 H 0.42424 0.8255 0.38532 0.0
H3634 H 0.40027 0.82478 0.3644 0.0
H3635 H 0.42544 0.81906 0.35198 0.0
H3636 H 0.40617 0.72847 0.29696 0.0
H3637 H 0.37287 0.73424 0.27399 0.0
H3638 H 0.36634 0.7918 0.33653 0.0
C3639 C 0.44282 0.77998 0.38709 0.0
C3640 C 0.4596 0.76611 0.38479 0.0
C3641 C 0.45802 0.74748 0.36283 0.0
C3642 C 0.44042 0.74295 0.34356 0.0
C3643 C 0.42432 0.75707 0.34641 0.0
C3644 C 0.42529 0.77514 0.3677 0.0
C3645 C 0.40591 0.78779 0.36604 0.0
C3646 C 0.39086 0.78325 0.38681 0.0
C3647 C 0.41448 0.81595 0.36699 0.0
C3648 C 0.39391 0.77416 0.34041 0.0
C3649 C 0.40487 0.75654 0.32943 0.0
C3650 C 0.39738 0.74204 0.30555 0.0
C3651 C 0.37825 0.74545 0.29261 0.0
C3652 C 0.3664 0.76316 0.30339 0.0
C3653 C 0.37458 0.77777 0.32773 0.0
H3654 H 0.08536 0.7192 0.03779 0.0
H3655 H 0.10108 0.73879 0.11853 0.0
H3656 H 0.09833 0.69441 0.1193 0.0
H3657 H 0.04498 0.66173 0.03543 0.0
H3658 H 0.05312 0.64506 1.00735 0.0
H3659 H 0.05729 0.67859 0.01281 0.0
H3660 H 0.09886 0.68234 1.00712 0.0
H3661 H 0.09552 0.64893 1.00285 0.0
H3662 H 0.11579 0.66988 0.02708 0.0
H3663 H 0.09073 0.64789 0.11236 0.0
H3664 H 0.07917 0.60197 0.09787 0.0
H3665 H 0.07008 0.61085 0.02134 0.0
C3666 C 0.0884 0.7142 0.05562 0.0
C3667 C 0.09347 0.73281 0.07814 0.0
C3668 C 0.09718 0.72519 0.101 0.0
C3669 C 0.09571 0.69991 0.10165 0.0
C3670 C 0.09063 0.68214 0.07927 0.0
C3671 C 0.08704 0.68885 0.05662 0.0
C3672 C 0.08112 0.66566 0.03545 0.0
C3673 C 0.05774 0.66258 0.02197 0.0
C3674 C 0.09888 0.66675 0.01702 0.0
C3675 C 0.08152 0.64492 0.04983 0.0
C3676 C 0.08711 0.655 0.0751 0.0
C3677 C 0.08684 0.63982 0.09258 0.0
C3678 C 0.08031 0.61373 0.08418 0.0
C3679 C 0.07463 0.60279 0.05846 0.0
C3680 C 0.07539 0.61865 0.04099 0.0
H3681 H 0.06751 0.24358 0.83521 0.0
H3682 H 0.09675 0.28487 0.90952 0.0
H3683 H 0.13376 0.29399 0.89417 0.0
H3684 H 0.11446 0.21642 0.8191 0.0
H3685 H 0.11154 0.21935 0.78693 0.0
H3686 H 0.08738 0.21533 0.80389 0.0
H3687 H 0.07895 0.25586 0.7935 0.0
H3688 H 0.10306 0.25999 0.77651 0.0
H3689 H 0.10026 0.28468 0.80162 0.0
H3690 H 0.16778 0.29959 0.87044 0.0
H3691 H 0.19561 0.30207 0.84 0.0
H3692 H 0.14454 0.25672 0.78122 0.0
C3693 C 0.0817 0.25443 0.84831 0.0
C3694 C 0.07908 0.26345 0.87365 0.0
C3695 C 0.09818 0.2777 0.89005 0.0
C3696 C 0.11935 0.28297 0.88151 0.0
C3697 C 0.12132 0.27388 0.85646 0.0
C3698 C 0.10301 0.25992 0.84008 0.0
C3699 C 0.10961 0.25288 0.81393 0.0
C3700 C 0.1055 0.2243 0.80547 0.0
C3701 C 0.09724 0.26403 0.7953 0.0
C3702 C 0.13442 0.26526 0.81812 0.0
C3703 C 0.14088 0.27715 0.84281 0.0
C3704 C 0.16291 0.2902 0.85108 0.0
C3705 C 0.17868 0.29136 0.83364 0.0
C3706 C 0.17244 0.27961 0.80809 0.0
C3707 C 0.14995 0.26618 0.80048 0.0
H3708 H 0.60376 0.78337 0.93039 0.0
H3709 H 0.65661 0.75154 0.89913 0.0
H3710 H 0.65616 0.72716 0.93226 0.0
H3711 H 0.62226 0.78789 0.99589 0.0
H3712 H 0.59427 0.77916 1.0043 0.0
H3713 H 0.59943 0.79517 0.97887 0.0
H3714 H 0.57029 0.75936 0.94911 0.0
H3715 H 0.56494 0.74335 0.97446 0.0
H3716 H 0.5731 0.72756 0.94595 0.0
H3717 H 0.64928 0.70526 0.9678 0.0
H3718 H 0.63509 0.68564 1.00217 0.0
H3719 H 0.58631 0.73107 0.01017 0.0
C3720 C 0.61534 0.77139 0.9306 0.0
C3721 C 0.63026 0.76941 0.91217 0.0
C3722 C 0.645 0.75335 0.913 0.0
C3723 C 0.64495 0.73951 0.93182 0.0
C3724 C 0.63006 0.7419 0.94969 0.0
C3725 C 0.61544 0.75733 0.9492 0.0
C3726 C 0.60043 0.75561 0.96997 0.0
C3727 C 0.60434 0.78097 0.98835 0.0
C3728 C 0.57573 0.74588 0.95923 0.0
C3729 C 0.60872 0.73656 0.98202 0.0
C3730 C 0.62595 0.72908 0.97014 0.0
C3731 C 0.63585 0.71103 0.9773 0.0
C3732 C 0.62764 0.69995 0.99679 0.0
C3733 C 0.6096 0.70684 0.00884 0.0
C3734 C 0.60034 0.72573 1.00159 0.0
H3735 H 0.0854 0.80675 0.75328 0.0
H3736 H 0.11443 0.86502 0.71485 0.0
H3737 H 0.15207 0.86042 0.72756 0.0
H3738 H 0.1352 0.82016 0.8049 0.0
H3739 H 0.13099 0.78705 0.80383 0.0
H3740 H 0.10738 0.80023 0.79851 0.0
H3741 H 0.0956 0.76851 0.75623 0.0
H3742 H 0.11922 0.75557 0.76108 0.0
H3743 H 0.11518 0.76745 0.73319 0.0
H3744 H 0.18424 0.84132 0.73339 0.0
H3745 H 0.20816 0.81164 0.73439 0.0
H3746 H 0.15936 0.76733 0.77181 0.0
C3747 C 0.09976 0.81935 0.74857 0.0
C3748 C 0.09702 0.83619 0.73309 0.0
C3749 C 0.11613 0.85214 0.72692 0.0
C3750 C 0.13762 0.84965 0.73408 0.0
C3751 C 0.1397 0.83159 0.7479 0.0
C3752 C 0.12127 0.81717 0.7557 0.0
C3753 C 0.12747 0.79665 0.76712 0.0
C3754 C 0.12513 0.80132 0.79527 0.0
C3755 C 0.11356 0.77053 0.75358 0.0
C3756 C 0.15175 0.80032 0.76244 0.0
C3757 C 0.15868 0.82091 0.75191 0.0
C3758 C 0.17929 0.82569 0.74246 0.0
C3759 C 0.19284 0.80867 0.74317 0.0
C3760 C 0.18568 0.787 0.75315 0.0
C3761 C 0.16531 0.78358 0.76391 0.0
H3762 H 0.07 0.39372 0.40735 0.0
H3763 H 0.13714 0.38964 0.43206 0.0
H3764 H 0.14255 0.43047 0.46103 0.0
H3765 H 0.08303 0.45956 0.40845 0.0
H3766 H 0.05721 0.46445 0.41972 0.0
H3767 H 0.05814 0.43449 0.40124 0.0
H3768 H 0.04273 0.41258 0.43635 0.0
H3769 H 0.04157 0.44244 0.45483 0.0
H3770 H 0.05694 0.4229 0.46761 0.0
H3771 H 0.14095 0.47122 0.48692 0.0
H3772 H 0.13228 0.50976 0.50925 0.0
H3773 H 0.06631 0.48832 0.46757 0.0
C3774 C 0.08578 0.40132 0.41899 0.0
C3775 C 0.10316 0.3885 0.41749 0.0
C3776 C 0.12361 0.39915 0.43289 0.0
C3777 C 0.12686 0.42232 0.44937 0.0
C3778 C 0.10952 0.4346 0.45015 0.0
C3779 C 0.08937 0.42453 0.43546 0.0
C3780 C 0.07357 0.44181 0.43988 0.0
C3781 C 0.06765 0.45059 0.41589 0.0
C3782 C 0.05246 0.42917 0.45029 0.0
C3783 C 0.08805 0.46316 0.45936 0.0
C3784 C 0.10869 0.45851 0.46498 0.0
C3785 C 0.12487 0.47511 0.48269 0.0
C3786 C 0.11974 0.49694 0.49529 0.0
C3787 C 0.09859 0.50201 0.49016 0.0
C3788 C 0.08266 0.48503 0.4717 0.0
H3789 H 0.45473 0.3006 0.20308 0.0
H3790 H 0.4733 0.25207 0.24983 0.0
H3791 H 0.43766 0.2498 0.26821 0.0
H3792 H 0.43057 0.33576 0.24573 0.0
H3793 H 0.40589 0.33744 0.2272 0.0
H3794 H 0.43088 0.33435 0.21286 0.0
H3795 H 0.41318 0.29414 0.18184 0.0
H3796 H 0.38655 0.29731 0.19194 0.0
H3797 H 0.39529 0.26862 0.19194 0.0
H3798 H 0.39854 0.24865 0.27766 0.0
H3799 H 0.36061 0.25487 0.28345 0.0
H3800 H 0.36902 0.30788 0.23467 0.0
C3801 C 0.45138 0.2896 0.21728 0.0
C3802 C 0.46683 0.27652 0.22505 0.0
C3803 C 0.46174 0.26224 0.24359 0.0
C3804 C 0.44151 0.26076 0.25407 0.0
C3805 C 0.42658 0.27364 0.24581 0.0
C3806 C 0.43124 0.28786 0.22792 0.0
C3807 C 0.41225 0.29991 0.22245 0.0
C3808 C 0.42031 0.32857 0.2274 0.0
C3809 C 0.40117 0.28936 0.19545 0.0
C3810 C 0.39672 0.29122 0.24102 0.0
C3811 C 0.40495 0.27523 0.2535 0.0
C3812 C 0.39233 0.26199 0.26893 0.0
C3813 C 0.37099 0.26581 0.27234 0.0
C3814 C 0.36301 0.28352 0.26134 0.0
C3815 C 0.37564 0.29573 0.24479 0.0
H3816 H 0.61762 0.49344 0.3393 0.0
H3817 H 0.67908 0.55141 0.35787 0.0
H3818 H 0.66843 0.56351 0.40058 0.0
H3819 H 0.58229 0.52838 0.37471 0.0
H3820 H 0.56619 0.50165 0.3847 0.0
H3821 H 0.57849 0.49741 0.35569 0.0
H3822 H 0.59865 0.4661 0.37072 0.0
H3823 H 0.58636 0.47029 0.39974 0.0
H3824 H 0.61627 0.47557 0.40006 0.0
H3825 H 0.65049 0.5697 0.44255 0.0
H3826 H 0.62829 0.56944 0.47818 0.0
H3827 H 0.57771 0.50715 0.43404 0.0
C3828 C 0.62898 0.50873 0.35226 0.0
C3829 C 0.64951 0.52137 0.34449 0.0
C3830 C 0.66344 0.54122 0.36267 0.0
C3831 C 0.65741 0.54827 0.38722 0.0
C3832 C 0.6372 0.53547 0.39408 0.0
C3833 C 0.62317 0.51602 0.37703 0.0
C3834 C 0.60234 0.50529 0.3892 0.0
C3835 C 0.58106 0.50836 0.37523 0.0
C3836 C 0.60082 0.47766 0.38996 0.0
C3837 C 0.60673 0.52162 0.41575 0.0
C3838 C 0.62698 0.53893 0.41806 0.0
C3839 C 0.63468 0.55612 0.44065 0.0
C3840 C 0.62171 0.55577 0.4611 0.0
C3841 C 0.60074 0.53836 0.45976 0.0
C3842 C 0.59338 0.52094 0.43632 0.0
H3843 H 0.32098 0.86766 0.08349 0.0
H3844 H 0.351 0.94625 0.11462 0.0
H3845 H 0.36678 0.93495 0.15211 0.0
H3846 H 0.30845 0.84951 0.14407 0.0
H3847 H 0.31513 0.81959 0.13451 0.0
H3848 H 0.30378 0.83403 0.11154 0.0
H3849 H 0.33773 0.83101 0.08655 0.0
H3850 H 0.3492 0.81672 0.10948 0.0
H3851 H 0.3656 0.84473 0.10197 0.0
H3852 H 0.38272 0.91494 0.18391 0.0
H3853 H 0.3961 0.88762 0.20883 0.0
H3854 H 0.35606 0.82215 0.15666 0.0
C3855 C 0.33044 0.88255 0.09842 0.0
C3856 C 0.33474 0.90784 0.0961 0.0
C3857 C 0.34745 0.92674 0.11596 0.0
C3858 C 0.35646 0.92052 0.13737 0.0
C3859 C 0.35246 0.89536 0.13874 0.0
C3860 C 0.33953 0.87668 0.11995 0.0
C3861 C 0.33895 0.85099 0.12532 0.0
C3862 C 0.31516 0.83776 0.12908 0.0
C3863 C 0.34844 0.83493 0.1046 0.0
C3864 C 0.3542 0.85814 0.14959 0.0
C3865 C 0.36164 0.88382 0.15715 0.0
C3866 C 0.37682 0.8948 0.17831 0.0
C3867 C 0.38451 0.87911 0.1922 0.0
C3868 C 0.3771 0.85272 0.18479 0.0
C3869 C 0.36168 0.84224 0.1632 0.0
H3870 H 0.95578 0.56088 0.88734 0.0
H3871 H 1.00401 0.61724 0.86181 0.0
H3872 H 0.03126 0.6188 0.89745 0.0
H3873 H 0.97417 0.58301 0.95656 0.0
H3874 H 0.96948 0.55116 0.96069 0.0
H3875 H 0.95227 0.55902 0.93702 0.0
H3876 H 0.9626 0.52508 0.90365 0.0
H3877 H 0.98018 0.5175 0.92699 0.0
H3878 H 0.99161 0.52648 0.8997 0.0
H3879 H 0.05501 0.60946 0.93227 0.0
H3880 H 0.07239 0.59121 0.96389 0.0
H3881 H 1.00898 0.53856 0.96313 0.0
C3882 C 0.97173 0.5743 0.88972 0.0
C3883 C 0.97773 0.589 0.87182 0.0
C3884 C 0.99899 0.60591 0.87539 0.0
C3885 C 0.01459 0.60691 0.89558 0.0
C3886 C 1.00859 0.59098 0.91201 0.0
C3887 C 0.98751 0.57523 0.90946 0.0
C3888 C 0.98598 0.55771 0.9275 0.0
C3889 C 0.9695 0.56306 0.94657 0.0
C3890 C 0.97974 0.53008 0.91362 0.0
C3891 C 1.00973 0.56525 0.9398 0.0
C3892 C 0.02244 0.58483 0.93114 0.0
C3893 C 0.04511 0.5943 0.93937 0.0
C3894 C 0.0549 0.58362 0.95712 0.0
C3895 C 0.04209 0.56336 0.96599 0.0
C3896 C 0.01927 0.55413 0.95702 0.0
H3897 H 0.31065 0.21095 0.59059 0.0
H3898 H 0.31889 0.28545 0.57505 0.0
H3899 H 0.31882 0.30282 0.62006 0.0
H3900 H 0.27458 0.21839 0.63966 0.0
H3901 H 0.28715 0.20074 0.65838 0.0
H3902 H 0.28675 0.19367 0.62485 0.0
H3903 H 0.32972 0.20013 0.62882 0.0
H3904 H 0.33044 0.20667 0.66235 0.0
H3905 H 0.34705 0.22901 0.64712 0.0
H3906 H 0.3186 0.3121 0.66732 0.0
H3907 H 0.3207 0.31265 0.71271 0.0
H3908 H 0.31388 0.23236 0.6971 0.0
C3909 C 0.31229 0.23091 0.59659 0.0
C3910 C 0.31469 0.24683 0.57924 0.0
C3911 C 0.31705 0.27288 0.58797 0.0
C3912 C 0.31692 0.2829 0.61349 0.0
C3913 C 0.31455 0.26666 0.63009 0.0
C3914 C 0.31243 0.24124 0.62197 0.0
C3915 C 0.31122 0.22794 0.64366 0.0
C3916 C 0.28858 0.20907 0.64151 0.0
C3917 C 0.33077 0.2152 0.6456 0.0
C3918 C 0.31336 0.24987 0.66532 0.0
C3919 C 0.3149 0.27203 0.65714 0.0
C3920 C 0.31727 0.29482 0.67388 0.0
C3921 C 0.31832 0.29497 0.69961 0.0
C3922 C 0.31695 0.27246 0.70827 0.0
C3923 C 0.31461 0.24974 0.69087 0.0
H3924 H 0.67768 0.52755 0.16891 0.0
H3925 H 0.62642 0.52852 0.21926 0.0
H3926 H 0.60075 0.53469 0.18528 0.0
H3927 H 0.6653 0.57435 0.13644 0.0
H3928 H 0.67101 0.55871 0.1065 0.0
H3929 H 0.68497 0.55472 0.13482 0.0
H3930 H 0.67049 0.50663 0.12109 0.0
H3931 H 0.65663 0.51053 0.09268 0.0
H3932 H 0.64093 0.49337 0.11311 0.0
H3933 H 0.58014 0.54238 0.14289 0.0
H3934 H 0.56783 0.54613 0.09985 0.0
H3935 H 0.63233 0.53853 0.07744 0.0
C3936 C 0.66102 0.52895 0.17302 0.0
C3937 C 0.65447 0.52742 0.19746 0.0
C3938 C 0.63226 0.52939 0.20117 0.0
C3939 C 0.61747 0.53308 0.18174 0.0
C3940 C 0.62465 0.53469 0.15806 0.0
C3941 C 0.64601 0.53238 0.15376 0.0
C3942 C 0.64989 0.53408 0.12673 0.0
C3943 C 0.66893 0.55681 0.1261 0.0
C3944 C 0.65477 0.5097 0.11257 0.0
C3945 C 0.62752 0.53764 0.1162 0.0
C3946 C 0.6131 0.53828 0.1345 0.0
C3947 C 0.59156 0.54175 0.12872 0.0
C3948 C 0.58463 0.54409 0.10402 0.0
C3949 C 0.59898 0.54298 0.08474 0.0
C3950 C 0.62077 0.53972 0.09143 0.0
H3951 H 0.35796 0.89052 0.96286 0.0
H3952 H 0.28953 0.87783 0.98099 0.0
H3953 H 0.27758 0.84611 0.94154 0.0
H3954 H 0.3448 0.88868 0.89947 0.0
H3955 H 0.36665 0.87385 0.88899 0.0
H3956 H 0.37002 0.89296 0.91993 0.0
H3957 H 0.37711 0.85581 0.93874 0.0
H3958 H 0.37368 0.83655 0.90777 0.0
H3959 H 0.35677 0.82621 0.93115 0.0
H3960 H 0.27296 0.8178 0.89864 0.0
H3961 H 0.27556 0.79817 0.85496 0.0
H3962 H 0.3469 0.83072 0.86495 0.0
C3963 C 0.34053 0.8807 0.95881 0.0
C3964 C 0.32468 0.88638 0.97507 0.0
C3965 C 0.30193 0.87363 0.96879 0.0
C3966 C 0.29504 0.85552 0.94652 0.0
C3967 C 0.31109 0.85055 0.93074 0.0
C3968 C 0.33335 0.86292 0.93658 0.0
C3969 C 0.34699 0.85607 0.9155 0.0
C3970 C 0.35774 0.87926 0.90538 0.0
C3971 C 0.36468 0.84287 0.92379 0.0
C3972 C 0.3289 0.83818 0.8967 0.0
C3973 C 0.30836 0.83488 0.90592 0.0
C3974 C 0.28901 0.82003 0.89136 0.0
C3975 C 0.29065 0.80879 0.86658 0.0
C3976 C 0.31142 0.81272 0.85657 0.0
C3977 C 0.33078 0.82723 0.87208 0.0
H3978 H 0.99014 0.58012 0.74412 0.0
H3979 H 0.99032 0.51718 0.77983 0.0
H3980 H 0.02307 0.50949 0.7588 0.0
H3981 H 1.00392 0.55232 0.68561 0.0
H3982 H 0.02136 0.58086 0.68037 0.0
H3983 H 0.99873 0.58217 0.69934 0.0
H3984 H 0.02641 0.61162 0.7359 0.0
H3985 H 0.04916 0.61035 0.71704 0.0
H3986 H 0.05049 0.6019 0.74715 0.0
H3987 H 0.05457 0.50731 0.73203 0.0
H3988 H 0.08182 0.51046 0.70087 0.0
H3989 H 0.06153 0.57567 0.68422 0.0
C3990 C 0.99713 0.56482 0.74766 0.0
C3991 C 0.98769 0.54927 0.7636 0.0
C3992 C 0.9973 0.52937 0.76769 0.0
C3993 C 0.01594 0.52488 0.7559 0.0
C3994 C 0.0248 0.54055 0.74024 0.0
C3995 C 0.01573 0.56013 0.73615 0.0
C3996 C 0.02787 0.57368 0.7178 0.0
C3997 C 0.01203 0.57215 0.6944 0.0
C3998 C 0.03916 0.60101 0.73023 0.0
C3999 C 0.04493 0.55839 0.71187 0.0
C4000 C 0.04303 0.53944 0.72508 0.0
C4001 C 0.05641 0.52225 0.72178 0.0
C4002 C 0.0719 0.52426 0.70417 0.0
C4003 C 0.07374 0.54326 0.69011 0.0
C4004 C 0.06036 0.56078 0.6945 0.0
H4005 H 0.29433 0.21168 0.431 0.0
H4006 H 0.29391 0.2789 0.48525 0.0
H4007 H 0.29558 0.30281 0.45153 0.0
H4008 H 0.33119 0.24005 0.39154 0.0
H4009 H 0.31618 0.22075 0.36271 0.0
H4010 H 0.315 0.2089 0.39106 0.0
H4011 H 0.27177 0.19982 0.38517 0.0
H4012 H 0.27285 0.21175 0.35683 0.0
H4013 H 0.25841 0.22476 0.38172 0.0
H4014 H 0.30164 0.32023 0.413 0.0
H4015 H 0.30734 0.32921 0.37118 0.0
H4016 H 0.29835 0.25003 0.34034 0.0
C4017 C 0.29458 0.23143 0.4357 0.0
C4018 C 0.2942 0.24357 0.46073 0.0
C4019 C 0.2942 0.26931 0.46619 0.0
C4020 C 0.29516 0.28302 0.44718 0.0
C4021 C 0.29554 0.27056 0.4227 0.0
C4022 C 0.29485 0.24526 0.41679 0.0
C4023 C 0.29495 0.23639 0.38883 0.0
C4024 C 0.31556 0.22591 0.38322 0.0
C4025 C 0.2732 0.21703 0.37747 0.0
C4026 C 0.29631 0.26078 0.38005 0.0
C4027 C 0.29691 0.28029 0.4 0.0
C4028 C 0.30048 0.30501 0.39713 0.0
C4029 C 0.3036 0.30994 0.37331 0.0
C4030 C 0.30226 0.2902 0.35246 0.0
C4031 C 0.29843 0.26528 0.35584 0.0
H4032 H 0.35746 0.61494 0.49023 0.0
H4033 H 0.40627 0.68622 0.50382 0.0
H4034 H 0.43626 0.66397 0.49526 0.0
H4035 H 0.3909 0.58152 0.51839 0.0
H4036 H 0.38093 0.55264 0.49563 0.0
H4037 H 0.36324 0.57421 0.50197 0.0
H4038 H 0.35864 0.57561 0.45495 0.0
H4039 H 0.3763 0.554 0.44845 0.0
H4040 H 0.38314 0.58378 0.43921 0.0
H4041 H 0.46127 0.63378 0.48817 0.0
H4042 H 0.47899 0.59777 0.48035 0.0
H4043 H 0.41365 0.54655 0.46946 0.0
C4044 C 0.37444 0.62588 0.49125 0.0
C4045 C 0.37955 0.65231 0.49775 0.0
C4046 C 0.40195 0.66595 0.49878 0.0
C4047 C 0.41911 0.65349 0.494 0.0
C4048 C 0.41353 0.62741 0.48789 0.0
C4049 C 0.39171 0.61377 0.48622 0.0
C4050 C 0.39017 0.5859 0.47941 0.0
C4051 C 0.38076 0.57281 0.50009 0.0
C4052 C 0.37624 0.57414 0.45399 0.0
C4053 C 0.41458 0.58597 0.47793 0.0
C4054 C 0.42782 0.61009 0.48297 0.0
C4055 C 0.45104 0.61483 0.48389 0.0
C4056 C 0.46096 0.59434 0.47953 0.0
C4057 C 0.44761 0.56954 0.47408 0.0
C4058 C 0.42416 0.56538 0.47314 0.0
H4059 H 0.92169 0.91878 0.55148 0.0
H4060 H 0.88154 0.97394 0.55779 0.0
H4061 H 0.91525 1.00704 0.55763 0.0
H4062 H 0.97146 0.96031 0.5911 0.0
H4063 H 0.99062 0.94729 0.57223 0.0
H4064 H 0.9636 0.92805 0.57465 0.0
H4065 H 0.95487 0.91778 0.52623 0.0
H4066 H 0.98209 0.93658 0.52418 0.0
H4067 H 0.95755 0.94315 0.5098 0.0
H4068 H 0.95244 0.03346 0.55308 0.0
H4069 H 0.99091 0.05163 0.54565 0.0
H4070 H 1.00773 0.98022 0.54439 0.0
C4071 C 0.92002 0.93786 0.55315 0.0
C4072 C 0.89891 0.94372 0.55463 0.0
C4073 C 0.89748 0.96895 0.5567 0.0
C4074 C 0.91656 0.98791 0.55663 0.0
C4075 C 0.93701 0.98144 0.55473 0.0
C4076 C 0.93894 0.95709 0.55327 0.0
C4077 C 0.96285 0.95511 0.55068 0.0
C4078 C 0.97271 0.94723 0.57353 0.0
C4079 C 0.96441 0.93709 0.52625 0.0
C4080 C 0.97385 0.98198 0.55002 0.0
C4081 C 0.95866 0.99688 0.55264 0.0
C4082 C 0.96459 0.0221 0.55153 0.0
C4083 C 0.98659 0.03237 0.54757 0.0
C4084 C 1.00248 0.01753 0.54487 0.0
C4085 C 0.99596 0.99202 0.54626 0.0
H4086 H 0.90859 0.16233 0.24245 0.0
H4087 H 0.8998 0.14445 0.31521 0.0
H4088 H 0.87894 0.17793 0.32474 0.0
H4089 H 0.9168 0.22961 0.26205 0.0
H4090 H 0.90223 0.23287 0.23376 0.0
H4091 H 0.91608 0.20763 0.23317 0.0
H4092 H 0.87901 0.17529 0.21458 0.0
H4093 H 0.86563 0.20082 0.21482 0.0
H4094 H 0.8543 0.17595 0.23036 0.0
H4095 H 0.85793 0.2171 0.32588 0.0
H4096 H 0.84195 0.25264 0.3183 0.0
H4097 H 0.86406 0.2437 0.2445 0.0
C4098 C 0.90235 0.1652 0.26052 0.0
C4099 C 0.90632 0.1499 0.27795 0.0
C4100 C 0.89744 0.15523 0.30123 0.0
C4101 C 0.88538 0.17452 0.30682 0.0
C4102 C 0.88186 0.18907 0.28914 0.0
C4103 C 0.89028 0.18439 0.26637 0.0
C4104 C 0.88468 0.20238 0.25028 0.0
C4105 C 0.90623 0.21911 0.24447 0.0
C4106 C 0.87003 0.1877 0.22608 0.0
C4107 C 0.87167 0.21799 0.26714 0.0
C4108 C 0.87015 0.21026 0.28964 0.0
C4109 C 0.85914 0.22274 0.3081 0.0
C4110 C 0.84981 0.2431 0.30358 0.0
C4111 C 0.85087 0.25127 0.28048 0.0
C4112 C 0.86228 0.23815 0.26229 0.0
H4113 H 0.72651 0.14252 0.05476 0.0
H4114 H 0.74137 0.0693 0.03607 0.0
H4115 H 0.70093 0.04944 0.02963 0.0
H4116 H 0.67963 0.12451 0.08787 0.0
H4117 H 0.6632 0.14374 0.07619 0.0
H4118 H 0.69327 0.15332 0.07965 0.0
H4119 H 0.69416 0.15609 0.03345 0.0
H4120 H 0.66409 0.14787 0.02929 0.0
H4121 H 0.67948 0.12977 0.00944 0.0
H4122 H 0.65902 0.0379 0.02248 0.0
H4123 H 0.61861 0.03536 0.01711 0.0
H4124 H 0.63115 0.11595 0.04145 0.0
C4125 C 0.72132 0.12228 0.04953 0.0
C4126 C 0.73708 0.10744 0.04596 0.0
C4127 C 0.72956 0.08104 0.03895 0.0
C4128 C 0.70666 0.06959 0.03524 0.0
C4129 C 0.69157 0.08484 0.03863 0.0
C4130 C 0.69859 0.11059 0.04568 0.0
C4131 C 0.67902 0.12279 0.04751 0.0
C4132 C 0.67874 0.13691 0.0744 0.0
C4133 C 0.67921 0.14015 0.0288 0.0
C4134 C 0.65985 0.09986 0.0402 0.0
C4135 C 0.66744 0.07815 0.03512 0.0
C4136 C 0.65287 0.05472 0.02689 0.0
C4137 C 0.62991 0.05342 0.0241 0.0
C4138 C 0.6218 0.07536 0.02996 0.0
C4139 C 0.63699 0.09887 0.03757 0.0
H4140 H 0.24903 0.46382 0.258 0.0
H4141 H 0.18921 0.45176 0.29611 0.0
H4142 H 0.20819 0.43373 0.32641 0.0
H4143 H 0.26365 0.40573 0.26617 0.0
H4144 H 0.29337 0.41896 0.27109 0.0
H4145 H 0.27566 0.43096 0.25147 0.0
H4146 H 0.28983 0.47568 0.2779 0.0
H4147 H 0.30828 0.46459 0.29747 0.0
H4148 H 0.28865 0.48121 0.31124 0.0
H4149 H 0.23493 0.42267 0.35567 0.0
H4150 H 0.26562 0.41155 0.37798 0.0
H4151 H 0.30721 0.42666 0.319 0.0
C4152 C 0.23989 0.45713 0.27257 0.0
C4153 C 0.21771 0.45933 0.2748 0.0
C4154 C 0.20621 0.45023 0.294 0.0
C4155 C 0.21686 0.44006 0.31139 0.0
C4156 C 0.23887 0.43873 0.30906 0.0
C4157 C 0.25014 0.44644 0.28986 0.0
C4158 C 0.27366 0.44253 0.29158 0.0
C4159 C 0.27677 0.4234 0.26873 0.0
C4160 C 0.29113 0.46749 0.29474 0.0
C4161 C 0.27396 0.43212 0.31515 0.0
C4162 C 0.2538 0.43034 0.32502 0.0
C4163 C 0.25058 0.42314 0.3477 0.0
C4164 C 0.2682 0.41669 0.36022 0.0
C4165 C 0.28859 0.4166 0.34968 0.0
C4166 C 0.29156 0.42519 0.32711 0.0
H4167 H 0.2887 0.45441 0.02257 0.0
H4168 H 0.26546 0.426 0.08711 0.0
H4169 H 0.23481 0.4477 0.08657 0.0
H4170 H 0.27683 0.51515 0.04026 0.0
H4171 H 0.26771 0.51667 0.00881 0.0
H4172 H 0.28792 0.49888 0.01416 0.0
H4173 H 0.2625 0.45942 0.98499 0.0
H4174 H 0.24222 0.4771 0.97954 0.0
H4175 H 0.23402 0.44874 0.99114 0.0
H4176 H 0.20684 0.47285 0.07945 0.0
H4177 H 0.18352 0.49955 0.0661 0.0
H4178 H 0.22399 0.51072 1.00539 0.0
C4179 C 0.27719 0.45277 0.03661 0.0
C4180 C 0.27956 0.43847 0.05491 0.0
C4181 C 0.26405 0.43679 0.07288 0.0
C4182 C 0.24655 0.44907 0.07275 0.0
C4183 C 0.24466 0.46295 0.05447 0.0
C4184 C 0.25951 0.46485 0.0367 0.0
C4185 C 0.25363 0.48091 0.01906 0.0
C4186 C 0.27266 0.50429 0.02068 0.0
C4187 C 0.24774 0.46563 0.99208 0.0
C4188 C 0.23322 0.48781 0.02978 0.0
C4189 C 0.22835 0.47724 0.0502 0.0
C4190 C 0.21042 0.4811 0.06338 0.0
C4191 C 0.19714 0.4962 0.05553 0.0
C4192 C 0.20174 0.50731 0.03463 0.0
C4193 C 0.22007 0.50285 0.02161 0.0
H4194 H 0.92847 0.98187 0.29451 0.0
H4195 H 0.87957 1.01178 0.25735 0.0
H4196 H 0.85202 0.97099 0.25235 0.0
H4197 H 0.91304 0.91905 0.25713 0.0
H4198 H 0.91754 0.90435 0.28297 0.0
H4199 H 0.9332 0.9357 0.28346 0.0
H4200 H 0.91946 0.95143 0.32584 0.0
H4201 H 0.90376 0.92012 0.32548 0.0
H4202 H 0.8899 0.94554 0.32857 0.0
H4203 H 0.82967 0.92484 0.25028 0.0
H4204 H 0.81505 0.88083 0.25323 0.0
H4205 H 0.878 0.88143 0.29334 0.0
C4206 C 0.91197 0.97999 0.28527 0.0
C4207 C 0.90647 1.00051 0.27625 0.0
C4208 C 0.88447 0.99676 0.26447 0.0
C4209 C 0.86865 0.97346 0.26152 0.0
C4210 C 0.87473 0.95373 0.27055 0.0
C4211 C 0.89592 0.95692 0.28236 0.0
C4212 C 0.89833 0.93299 0.29075 0.0
C4213 C 0.91661 0.9224 0.27781 0.0
C4214 C 0.90315 0.93782 0.31936 0.0
C4215 C 0.87527 0.91567 0.2818 0.0
C4216 C 0.86189 0.92792 0.27009 0.0
C4217 C 0.84006 0.91544 0.25982 0.0
C4218 C 0.83171 0.89026 0.26182 0.0
C4219 C 0.84477 0.87728 0.2743 0.0
C4220 C 0.86709 0.89047 0.28411 0.0
H4221 H 0.73028 0.10358 0.73877 0.0
H4222 H 0.79483 0.08587 0.74893 0.0
H4223 H 0.81346 0.13059 0.75303 0.0
H4224 H 0.7491 0.15454 0.70384 0.0
H4225 H 0.73088 0.17265 0.71851 0.0
H4226 H 0.72291 0.13891 0.71269 0.0
H4227 H 0.71807 0.1409 0.75969 0.0
H4228 H 0.726 0.17452 0.76563 0.0
H4229 H 0.74108 0.15775 0.7829 0.0
H4230 H 0.82442 0.17761 0.76208 0.0
H4231 H 0.82682 0.2229 0.77441 0.0
H4232 H 0.75524 0.20957 0.75692 0.0
C4233 C 0.74836 0.10902 0.74147 0.0
C4234 C 0.76115 0.09135 0.74369 0.0
C4235 C 0.78475 0.09915 0.74714 0.0
C4236 C 0.79546 0.12446 0.74939 0.0
C4237 C 0.78229 0.1415 0.74766 0.0
C4238 C 0.75925 0.13404 0.74346 0.0
C4239 C 0.74879 0.15614 0.74414 0.0
C4240 C 0.73723 0.15551 0.71826 0.0
C4241 C 0.73254 0.15739 0.7643 0.0
C4242 C 0.76943 0.17734 0.75095 0.0
C4243 C 0.78865 0.16856 0.75233 0.0
C4244 C 0.80956 0.1847 0.76028 0.0
C4245 C 0.81081 0.21043 0.76706 0.0
C4246 C 0.79133 0.21969 0.76554 0.0
C4247 C 0.77043 0.20291 0.75752 0.0
loop_
_geom_bond_atom_site_label_1
_geom_bond_atom_site_label_2
_geom_bond_distance
_geom_bond_site_symmetry_2
_ccdc_geom_bond_type
C0 O1 1.160 . S
C0 O7 1.185 . S
O1 C0 1.160 . S
O2 Zn3 1.899 . S
O2 C10 1.284 . S
Zn3 O2 1.899 . S
Zn3 O4 2.032 . S
Zn3 O7 2.086 . S
Zn3 O12 1.977 . S
O4 Zn3 2.032 . S
O4 C8 1.278 . S
C5 O6 1.203 . S
C5 O12 1.267 . S
O6 C5 1.203 . S
O7 C0 1.185 . S
O7 Zn3 2.086 . S
C8 O4 1.278 . S
C8 O9 1.211 . S
O9 C8 1.211 . S
C10 O2 1.284 . S
C10 O11 1.273 . S
O11 C10 1.273 . S
O12 Zn3 1.977 . S
O12 C5 1.267 . S
C13 O14 1.160 . S
C13 O20 1.185 . S
O14 C13 1.160 . S
O15 Zn16 1.899 . S
O15 C23 1.284 . S
Zn16 O15 1.899 . S
Zn16 O17 2.032 . S
Zn16 O20 2.086 . S
Zn16 O25 1.977 1_655 S
O17 Zn16 2.032 . S
O17 C21 1.278 1_655 S
C18 O19 1.203 . S
C18 O25 1.267 . S
O19 C18 1.203 . S
O20 C13 1.185 . S
O20 Zn16 2.086 . S
C21 O17 1.278 1_455 S
C21 O22 1.211 . S
O22 C21 1.211 . S
C23 O15 1.284 . S
C23 O24 1.273 1_655 S
O24 C23 1.273 1_455 S
O25 Zn16 1.977 1_455 S
O25 C18 1.267 . S
C26 O27 1.160 . S
C26 O33 1.185 . S
O27 C26 1.160 . S
O28 Zn29 1.899 . S
O28 C36 1.284 . S
Zn29 O28 1.899 . S
Zn29 O30 2.032 . S
Zn29 O33 2.086 . S
Zn29 O38 1.977 . S
O30 Zn29 2.032 . S
O30 C34 1.278 . S
C31 O32 1.203 . S
C31 O38 1.267 . S
O32 C31 1.203 . S
O33 C26 1.185 . S
O33 Zn29 2.086 . S
C34 O30 1.278 . S
C34 O35 1.211 . S
O35 C34 1.211 . S
C36 O28 1.284 . S
C36 O37 1.273 . S
O37 C36 1.273 . S
O38 Zn29 1.977 . S
O38 C31 1.267 . S
C39 O40 1.160 . S
C39 O46 1.185 . S
O40 C39 1.160 . S
O41 Zn42 1.899 . S
O41 C49 1.284 . S
Zn42 O41 1.899 . S
Zn42 O43 2.032 . S
Zn42 O46 2.086 . S
Zn42 O51 1.977 . S
O43 Zn42 2.032 . S
O43 C47 1.278 . S
C44 O45 1.203 . S
C44 O51 1.267 . S
O45 C44 1.203 . S
O46 C39 1.185 . S
O46 Zn42 2.086 . S
C47 O43 1.278 . S
C47 O48 1.211 . S
O48 C47 1.211 . S
C49 O41 1.284 . S
C49 O50 1.273 . S
O50 C49 1.273 . S
O51 Zn42 1.977 . S
O51 C44 1.267 . S
C52 O53 1.160 . S
C52 O59 1.185 . S
O53 C52 1.160 . S
O54 Zn55 1.899 . S
O54 C62 1.284 . S
Zn55 O54 1.899 . S
Zn55 O56 2.032 . S
Zn55 O59 2.086 . S
Zn55 O64 1.977 . S
O56 Zn55 2.032 . S
O56 C60 1.278 . S
C57 O58 1.203 . S
C57 O64 1.267 . S
O58 C57 1.203 . S
O59 C52 1.185 . S
O59 Zn55 2.086 . S
C60 O56 1.278 . S
C60 O61 1.211 . S
O61 C60 1.211 . S
C62 O54 1.284 . S
C62 O63 1.273 . S
O63 C62 1.273 . S
O64 Zn55 1.977 . S
O64 C57 1.267 . S
C65 O66 1.160 . S
C65 O72 1.185 . S
O66 C65 1.160 . S
O67 Zn68 1.899 . S
O67 C75 1.284 . S
Zn68 O67 1.899 . S
Zn68 O69 2.032 . S
Zn68 O72 2.086 . S
Zn68 O77 1.977 . S
O69 Zn68 2.032 . S
O69 C73 1.278 . S
C70 O71 1.203 . S
C70 O77 1.267 . S
O71 C70 1.203 . S
O72 C65 1.185 . S
O72 Zn68 2.086 . S
C73 O69 1.278 . S
C73 O74 1.211 . S
O74 C73 1.211 . S
C75 O67 1.284 . S
C75 O76 1.273 . S
O76 C75 1.273 . S
O77 Zn68 1.977 . S
O77 C70 1.267 . S
C78 O79 1.160 . S
C78 O85 1.185 . S
O79 C78 1.160 . S
O80 Zn81 1.899 . S
O80 C88 1.284 . S
Zn81 O80 1.899 . S
Zn81 O82 2.032 . S
Zn81 O85 2.086 . S
Zn81 O90 1.977 . S
O82 Zn81 2.032 . S
O82 C86 1.278 . S
C83 O84 1.203 . S
C83 O90 1.267 . S
O84 C83 1.203 . S
O85 C78 1.185 . S
O85 Zn81 2.086 . S
C86 O82 1.278 . S
C86 O87 1.211 . S
O87 C86 1.211 . S
C88 O80 1.284 . S
C88 O89 1.273 . S
O89 C88 1.273 . S
O90 Zn81 1.977 . S
O90 C83 1.267 . S
C91 O92 1.160 . S
C91 O98 1.185 . S
O92 C91 1.160 . S
O93 Zn94 1.899 . S
O93 C101 1.284 . S
Zn94 O93 1.899 . S
Zn94 O95 2.032 . S
Zn94 O98 2.086 . S
Zn94 O103 1.977 1_455 S
O95 Zn94 2.032 . S
O95 C99 1.278 . S
C96 O97 1.203 . S
C96 O103 1.267 . S
O97 C96 1.203 . S
O98 C91 1.185 . S
O98 Zn94 2.086 . S
C99 O95 1.278 . S
C99 O100 1.211 . S
O100 C99 1.211 . S
C101 O93 1.284 . S
C101 O102 1.273 . S
O102 C101 1.273 . S
O103 Zn94 1.977 1_655 S
O103 C96 1.267 . S
C104 O105 1.160 . S
C104 O111 1.185 . S
O105 C104 1.160 . S
O106 Zn107 1.899 . S
O106 C114 1.284 . S
Zn107 O106 1.899 . S
Zn107 O108 2.032 . S
Zn107 O111 2.086 . S
Zn107 O116 1.977 1_545 S
O108 Zn107 2.032 . S
O108 C112 1.278 . S
C109 O110 1.203 . S
C109 O116 1.267 . S
O110 C109 1.203 . S
O111 C104 1.185 . S
O111 Zn107 2.086 . S
C112 O108 1.278 . S
C112 O113 1.183 1_545 S
O113 C112 1.183 1_565 S
C114 O106 1.284 . S
C114 O115 1.273 . S
O115 C114 1.273 . S
O116 Zn107 1.977 1_565 S
O116 C109 1.267 . S
C117 O118 1.160 . S
C117 O124 1.185 . S
O118 C117 1.160 . S
O119 Zn120 1.899 . S
O119 C127 1.284 . S
Zn120 O119 1.899 . S
Zn120 O121 2.032 . S
Zn120 O124 2.086 . S
Zn120 O129 1.977 . S
O121 Zn120 2.032 . S
O121 C125 1.278 . S
C122 O123 1.203 . S
C122 O129 1.267 . S
O123 C122 1.203 . S
O124 C117 1.185 . S
O124 Zn120 2.086 . S
C125 O121 1.278 . S
C125 O126 1.211 . S
O126 C125 1.211 . S
C127 O119 1.284 . S
C127 O128 1.273 . S
O128 C127 1.273 . S
O129 Zn120 1.977 . S
O129 C122 1.267 . S
C130 O131 1.160 . S
C130 O137 1.185 . S
O131 C130 1.160 . S
O132 Zn133 1.899 . S
O132 C140 1.284 . S
Zn133 O132 1.899 . S
Zn133 O134 2.032 . S
Zn133 O137 2.086 . S
Zn133 O142 1.977 1_565 S
O134 Zn133 2.032 . S
O134 C138 1.278 1_565 S
C135 O136 1.203 . S
C135 O142 1.267 . S
O136 C135 1.203 . S
O137 C130 1.185 . S
O137 Zn133 2.086 . S
C138 O134 1.278 1_545 S
C138 O139 1.211 . S
O139 C138 1.211 . S
C140 O132 1.284 . S
C140 O141 1.273 1_565 S
O141 C140 1.273 1_545 S
O142 Zn133 1.977 1_545 S
O142 C135 1.267 . S
C143 O144 1.160 . S
C143 O150 1.185 . S
O144 C143 1.160 . S
O145 Zn146 1.899 . S
O145 C153 1.284 . S
Zn146 O145 1.899 . S
Zn146 O147 2.032 1_554 S
Zn146 O150 2.086 . S
Zn146 O155 1.977 . S
O147 Zn146 2.032 1_556 S
O147 C151 1.278 . S
C148 O149 1.203 . S
C148 O155 1.267 . S
O149 C148 1.203 . S
O150 C143 1.185 . S
O150 Zn146 2.086 . S
C151 O147 1.278 . S
C151 O152 1.211 . S
O152 C151 1.211 . S
C153 O145 1.284 . S
C153 O154 1.273 . S
O154 C153 1.273 . S
O155 Zn146 1.977 . S
O155 C148 1.267 . S
C156 O157 1.160 . S
C156 O163 1.185 . S
O157 C156 1.160 . S
O158 Zn159 1.899 . S
O158 C166 1.284 . S
Zn159 O158 1.899 . S
Zn159 O160 2.032 . S
Zn159 O163 2.086 . S
Zn159 O168 1.977 . S
O160 Zn159 2.032 . S
O160 C164 1.278 1_554 S
C161 O162 1.203 . S
C161 O168 1.267 . S
O162 C161 1.203 . S
O163 C156 1.185 . S
O163 Zn159 2.086 . S
C164 O160 1.278 1_556 S
C164 O165 1.209 1_556 S
O165 C164 1.209 1_554 S
C166 O158 1.284 . S
C166 O167 1.273 . S
O167 C166 1.273 . S
O168 Zn159 1.977 . S
O168 C161 1.267 . S
C169 O170 1.160 . S
C169 O176 1.185 . S
O170 C169 1.160 . S
O171 Zn172 1.899 . S
O171 C179 1.284 . S
Zn172 O171 1.899 . S
Zn172 O173 2.032 . S
Zn172 O176 2.086 . S
Zn172 O181 1.977 . S
O173 Zn172 2.032 . S
O173 C177 1.278 1_554 S
C174 O175 1.203 . S
C174 O181 1.267 . S
O175 C174 1.203 . S
O176 C169 1.185 . S
O176 Zn172 2.086 . S
C177 O173 1.278 1_556 S
C177 O178 1.211 . S
O178 C177 1.211 . S
C179 O171 1.284 . S
C179 O180 1.273 . S
O180 C179 1.273 . S
O181 Zn172 1.977 . S
O181 C174 1.267 . S
C182 O183 1.160 . S
C182 O189 1.185 . S
O183 C182 1.160 . S
O184 Zn185 1.899 . S
O184 C192 1.284 . S
Zn185 O184 1.899 . S
Zn185 O186 2.032 . S
Zn185 O189 2.086 . S
Zn185 O194 1.977 . S
O186 Zn185 2.032 . S
O186 C190 1.278 . S
C187 O188 1.203 . S
C187 O194 1.267 . S
O188 C187 1.203 . S
O189 C182 1.185 . S
O189 Zn185 2.086 . S
C190 O186 1.278 . S
C190 O191 1.211 . S
O191 C190 1.211 . S
C192 O184 1.284 . S
C192 O193 1.273 . S
O193 C192 1.273 . S
O194 Zn185 1.977 . S
O194 C187 1.267 . S
C195 O196 1.160 . S
C195 O202 1.185 . S
O196 C195 1.160 . S
O197 Zn198 1.899 . S
O197 C205 1.284 . S
Zn198 O197 1.899 . S
Zn198 O199 2.032 . S
Zn198 O202 2.086 . S
Zn198 O207 1.977 . S
O199 Zn198 2.032 . S
O199 C203 1.278 . S
C200 O201 1.203 . S
C200 O207 1.267 . S
O201 C200 1.203 . S
O202 C195 1.185 . S
O202 Zn198 2.086 . S
C203 O199 1.278 . S
C203 O204 1.211 . S
O204 C203 1.211 . S
C205 O197 1.284 . S
C205 O206 1.273 . S
O206 C205 1.273 . S
O207 Zn198 1.977 . S
O207 C200 1.267 . S
C208 O209 1.160 . S
C208 O215 1.185 . S
O209 C208 1.160 . S
O210 Zn211 1.899 . S
O210 C218 1.284 . S
Zn211 O210 1.899 . S
Zn211 O212 2.032 . S
Zn211 O215 2.086 . S
Zn211 O220 1.977 . S
O212 Zn211 2.032 . S
O212 C216 1.278 . S
C213 O214 1.203 . S
C213 O220 1.267 . S
O214 C213 1.203 . S
O215 C208 1.185 . S
O215 Zn211 2.086 . S
C216 O212 1.278 . S
C216 O217 1.211 . S
O217 C216 1.211 . S
C218 O210 1.284 . S
C218 O219 1.273 . S
O219 C218 1.273 . S
O220 Zn211 1.977 . S
O220 C213 1.267 . S
C221 O222 1.160 . S
C221 O228 1.185 . S
O222 C221 1.160 . S
O223 Zn224 1.899 . S
O223 C231 1.284 . S
Zn224 O223 1.899 . S
Zn224 O225 2.032 . S
Zn224 O228 2.086 . S
Zn224 O233 1.977 . S
O225 Zn224 2.032 . S
O225 C229 1.278 . S
C226 O227 1.203 . S
C226 O233 1.267 . S
O227 C226 1.203 . S
O228 C221 1.185 . S
O228 Zn224 2.086 . S
C229 O225 1.278 . S
C229 O230 1.211 . S
O230 C229 1.211 . S
C231 O223 1.284 . S
C231 O232 1.273 . S
O232 C231 1.273 . S
O233 Zn224 1.977 . S
O233 C226 1.267 . S
C234 O235 1.160 . S
C234 O241 1.185 . S
O235 C234 1.160 . S
O236 Zn237 1.899 . S
O236 C244 1.284 . S
Zn237 O236 1.899 . S
Zn237 O238 2.032 . S
Zn237 O241 2.086 . S
Zn237 O246 1.977 . S
O238 Zn237 2.032 . S
O238 C242 1.278 . S
C239 O240 1.203 . S
C239 O246 1.267 . S
O240 C239 1.203 . S
O241 C234 1.185 . S
O241 Zn237 2.086 . S
C242 O238 1.278 . S
C242 O243 1.211 . S
O243 C242 1.211 . S
C244 O236 1.284 . S
C244 O245 1.273 . S
O245 C244 1.273 . S
O246 Zn237 1.977 . S
O246 C239 1.267 . S
C247 O248 1.160 1_545 S
C247 O254 1.185 . S
O248 C247 1.160 1_565 S
O249 Zn250 1.899 . S
O249 C257 1.284 . S
Zn250 O249 1.899 . S
Zn250 O251 2.032 . S
Zn250 O254 2.086 . S
Zn250 O259 1.977 . S
O251 Zn250 2.032 . S
O251 C255 1.278 . S
C252 O253 1.203 . S
C252 O259 1.267 . S
O253 C252 1.203 . S
O254 C247 1.185 . S
O254 Zn250 2.086 . S
C255 O251 1.278 . S
C255 O256 1.211 . S
O256 C255 1.211 . S
C257 O249 1.284 . S
C257 O258 1.273 . S
O258 C257 1.273 . S
O259 Zn250 1.977 . S
O259 C252 1.267 . S
C260 O261 1.160 . S
C260 O267 1.185 1_554 S
O261 C260 1.160 . S
O262 Zn263 1.899 . S
O262 C270 1.284 . S
Zn263 O262 1.899 . S
Zn263 O264 2.032 1_554 S
Zn263 O267 2.086 1_554 S
Zn263 O272 1.977 1_554 S
O264 Zn263 2.032 1_556 S
O264 C268 1.278 . S
C265 O266 1.203 1_556 S
C265 O272 1.267 . S
O266 C265 1.203 1_554 S
O267 C260 1.185 1_556 S
O267 Zn263 2.086 1_556 S
C268 O264 1.278 . S
C268 O269 1.211 . S
O269 C268 1.211 . S
C270 O262 1.284 . S
C270 O271 1.273 . S
O271 C270 1.273 . S
O272 Zn263 1.977 1_556 S
O272 C265 1.267 . S
C273 O274 1.160 . S
C273 O280 1.185 . S
O274 C273 1.160 . S
O275 Zn276 1.899 . S
O275 C283 1.284 . S
Zn276 O275 1.899 . S
Zn276 O277 2.032 . S
Zn276 O280 2.086 . S
Zn276 O285 1.977 . S
O277 Zn276 2.032 . S
O277 C281 1.278 . S
C278 O279 1.203 . S
C278 O285 1.267 . S
O279 C278 1.203 . S
O280 C273 1.185 . S
O280 Zn276 2.086 . S
C281 O277 1.278 . S
C281 O282 1.211 . S
O282 C281 1.211 . S
C283 O275 1.284 . S
C283 O284 1.273 . S
O284 C283 1.273 . S
O285 Zn276 1.977 . S
O285 C278 1.267 . S
C286 O287 1.160 . S
C286 O293 1.185 . S
O287 C286 1.160 . S
O288 Zn289 1.899 . S
O288 C296 1.284 . S
Zn289 O288 1.899 . S
Zn289 O290 2.032 . S
Zn289 O293 2.086 . S
Zn289 O298 1.977 . S
O290 Zn289 2.032 . S
O290 C294 1.278 . S
C291 O292 1.203 . S
C291 O298 1.267 . S
O292 C291 1.203 . S
O293 C286 1.185 . S
O293 Zn289 2.086 . S
C294 O290 1.278 . S
C294 O295 1.211 . S
O295 C294 1.211 . S
C296 O288 1.284 . S
C296 O297 1.273 . S
O297 C296 1.273 . S
O298 Zn289 1.977 . S
O298 C291 1.267 . S
C299 O300 1.160 . S
C299 O306 1.185 . S
O300 C299 1.160 . S
O301 Zn302 1.899 . S
O301 C309 1.284 . S
Zn302 O301 1.899 . S
Zn302 O303 2.032 . S
Zn302 O306 2.086 . S
Zn302 O311 1.977 . S
O303 Zn302 2.032 . S
O303 C307 1.278 . S
C304 O305 1.203 . S
C304 O311 1.267 . S
O305 C304 1.203 . S
O306 C299 1.185 . S
O306 Zn302 2.086 . S
C307 O303 1.278 . S
C307 O308 1.211 . S
O308 C307 1.211 . S
C309 O301 1.284 . S
C309 O310 1.273 . S
O310 C309 1.273 . S
O311 Zn302 1.977 . S
O311 C304 1.267 . S
Tb312 N343 2.637 1_546 S
Tb312 N350 2.619 1_545 S
Tb312 O356 2.571 1_455 S
Tb312 O357 2.605 1_556 S
Tb312 O359 2.283 1_556 S
Tb312 O360 2.563 . S
Tb312 O361 2.405 1_456 S
Tb312 O363 2.348 1_556 S
Tb312 O364 2.451 . S
Tb312 C376 2.842 1_455 S
C313 C316 1.432 . S
C313 C317 1.414 . S
C313 N320 1.359 . S
C314 C316 1.417 . S
C314 C318 1.432 . S
C314 C326 1.410 1_554 S
C315 C317 1.444 . S
C315 C318 1.317 . S
C315 H338 0.929 . S
C316 C313 1.432 . S
C316 C314 1.417 . S
C316 N324 1.360 . S
C317 C313 1.414 . S
C317 C315 1.444 . S
C317 C322 1.385 . S
C318 C314 1.432 . S
C318 C315 1.317 . S
C318 H330 0.930 . S
C319 C321 1.392 . S
C319 C322 1.370 . S
C319 H331 0.931 . S
N320 C313 1.359 . S
N320 C321 1.327 . S
N320 Tb323 2.600 . S
C321 C319 1.392 . S
C321 N320 1.327 . S
C321 H328 0.930 . S
C322 C317 1.385 . S
C322 C319 1.370 . S
C322 H341 0.930 . S
Tb323 N320 2.600 . S
Tb323 N324 2.660 . S
Tb323 O357 2.362 . S
Tb323 O358 2.421 . S
Tb323 O362 2.546 . S
Tb323 O363 2.610 . S
Tb323 O365 2.320 1_554 S
Tb323 O366 2.552 . S
Tb323 O367 2.413 . S
Tb323 C387 2.833 . S
N324 C316 1.360 . S
N324 Tb323 2.660 . S
N324 C325 1.305 1_554 S
C325 N324 1.305 1_556 S
C325 C327 1.407 . S
C325 H332 0.930 . S
C326 C314 1.410 1_556 S
C326 C327 1.345 . S
C326 H334 0.930 . S
C327 C325 1.407 . S
C327 C326 1.345 . S
C327 H329 0.930 . S
H328 C321 0.930 . S
H329 C327 0.930 . S
H330 C318 0.930 . S
H331 C319 0.931 . S
H332 C325 0.930 . S
H333 C347 0.929 . S
H334 C326 0.930 . S
H335 C353 0.930 . S
H336 C344 0.930 . S
H337 C351 0.931 . S
H338 C315 0.929 . S
H339 C345 0.930 . S
H340 C378 0.930 . S
H341 C322 0.930 . S
H342 C377 0.929 . S
N343 Tb312 2.637 1_564 S
N343 C344 1.305 . S
N343 C348 1.360 1_455 S
C344 H336 0.930 . S
C344 N343 1.305 . S
C344 C347 1.407 1_455 S
C345 H339 0.930 . S
C345 C346 1.410 . S
C345 C347 1.345 . S
C346 C345 1.410 . S
C346 C348 1.417 . S
C346 C378 1.432 1_554 S
C347 H333 0.929 . S
C347 C344 1.407 1_655 S
C347 C345 1.345 . S
C348 N343 1.360 1_655 S
C348 C346 1.417 . S
C348 C352 1.432 1_554 S
H349 C354 0.930 . S
N350 Tb312 2.619 1_565 S
N350 C352 1.359 1_455 S
N350 C353 1.327 . S
C351 H337 0.931 . S
C351 C353 1.392 1_655 S
C351 C354 1.370 . S
C352 C348 1.432 1_556 S
C352 N350 1.359 1_655 S
C352 C355 1.414 . S
C353 H335 0.930 . S
C353 N350 1.327 . S
C353 C351 1.392 1_455 S
C354 H349 0.930 . S
C354 C351 1.370 . S
C354 C355 1.385 . S
C355 C352 1.414 . S
C355 C354 1.385 . S
C355 C377 1.444 . S
O356 Tb312 2.571 1_655 S
O356 C376 1.251 . S
O357 Tb312 2.605 1_554 S
O357 Tb323 2.362 . S
O357 C368 1.283 . S
O358 Tb323 2.421 . S
O358 C375 1.262 . S
O359 Tb312 2.283 1_554 S
O359 C375 1.260 . S
O360 Tb312 2.563 . S
O360 C368 1.243 1_556 S
O361 Tb312 2.405 1_654 S
O361 C376 1.256 1_554 S
O362 Tb323 2.546 . S
O362 C387 1.251 . S
O363 Tb312 2.348 1_554 S
O363 Tb323 2.610 . S
O363 C379 1.283 1_545 S
O364 Tb312 2.451 . S
O364 C386 1.262 . S
O365 Tb323 2.320 1_556 S
O365 C386 1.260 . S
O366 Tb323 2.552 . S
O366 C379 1.243 1_545 S
O367 Tb323 2.413 . S
O367 C387 1.256 . S
C368 O357 1.283 . S
C368 O360 1.243 1_554 S
C369 C371 1.382 . S
C369 C373 1.393 . S
C369 C376 1.500 . S
C370 C371 1.400 . S
C370 C372 1.384 . S
C371 C369 1.382 . S
C371 C370 1.400 . S
C371 H388 0.930 1_556 S
C372 C370 1.384 . S
C372 C374 1.392 . S
C372 H389 0.931 . S
C373 C369 1.393 . S
C373 C374 1.401 . S
C373 H390 0.930 . S
C374 C372 1.392 . S
C374 C373 1.401 . S
C374 H391 0.930 . S
C375 O358 1.262 . S
C375 O359 1.260 . S
C376 Tb312 2.842 1_655 S
C376 O356 1.251 . S
C376 O361 1.256 1_556 S
C376 C369 1.500 . S
C377 H342 0.929 . S
C377 C355 1.444 . S
C377 C378 1.317 . S
C378 H340 0.930 . S
C378 C346 1.432 1_556 S
C378 C377 1.317 . S
C379 O363 1.283 1_565 S
C379 O366 1.243 1_565 S
C380 C381 1.382 . S
C380 C384 1.393 . S
C380 C387 1.500 . S
C381 C380 1.382 . S
C381 C382 1.400 . S
C381 H392 0.930 . S
C382 C381 1.400 . S
C382 C383 1.384 . S
C383 C382 1.384 . S
C383 C385 1.392 . S
C383 H393 0.931 . S
C384 C380 1.393 . S
C384 C385 1.401 . S
C384 H394 0.930 . S
C385 C383 1.392 . S
C385 C384 1.401 . S
C385 H395 0.930 . S
C386 O364 1.262 . S
C386 O365 1.260 . S
C387 Tb323 2.833 . S
C387 O362 1.251 . S
C387 O367 1.256 . S
C387 C380 1.500 . S
H388 C371 0.930 1_554 S
H389 C372 0.931 . S
H390 C373 0.930 . S
H391 C374 0.930 . S
H392 C381 0.930 . S
H393 C383 0.931 . S
H394 C384 0.930 . S
H395 C385 0.930 . S
Tb396 N427 2.660 . S
Tb396 N434 2.600 . S
Tb396 O440 2.546 . S
Tb396 O441 2.610 . S
Tb396 O443 2.320 . S
Tb396 O444 2.552 . S
Tb396 O445 2.413 . S
Tb396 O447 2.362 . S
Tb396 O448 2.421 . S
Tb396 C460 2.833 . S
C397 C400 1.432 . S
C397 C401 1.414 . S
C397 N404 1.359 . S
C398 C400 1.417 . S
C398 C402 1.432 . S
C398 C410 1.410 . S
C399 C401 1.444 . S
C399 C402 1.317 . S
C399 H422 0.929 . S
C400 C397 1.432 . S
C400 C398 1.417 . S
C400 N408 1.360 . S
C401 C397 1.414 . S
C401 C399 1.444 . S
C401 C406 1.385 . S
C402 C398 1.432 . S
C402 C399 1.317 . S
C402 H414 0.930 . S
C403 C405 1.392 . S
C403 C406 1.370 . S
C403 H415 0.931 . S
N404 C397 1.359 . S
N404 C405 1.327 . S
N404 Tb407 2.600 . S
C405 C403 1.392 . S
C405 N404 1.327 . S
C405 H412 0.930 . S
C406 C401 1.385 . S
C406 C403 1.370 . S
C406 H425 0.930 . S
Tb407 N404 2.600 . S
Tb407 N408 2.660 . S
Tb407 O441 2.362 . S
Tb407 O442 2.421 . S
Tb407 O446 2.546 . S
Tb407 O447 2.610 . S
Tb407 O449 2.320 . S
Tb407 O450 2.552 . S
Tb407 O451 2.413 . S
Tb407 C471 2.833 . S
N408 C400 1.360 . S
N408 Tb407 2.660 . S
N408 C409 1.305 . S
C409 N408 1.305 . S
C409 C411 1.407 . S
C409 H416 0.930 . S
C410 C398 1.410 . S
C410 C411 1.345 . S
C410 H418 0.930 . S
C411 C409 1.407 . S
C411 C410 1.345 . S
C411 H413 0.930 . S
H412 C405 0.930 . S
H413 C411 0.930 . S
H414 C402 0.930 . S
H415 C403 0.931 . S
H416 C409 0.930 . S
H417 C431 0.930 . S
H418 C410 0.930 . S
H419 C437 0.930 . S
H420 C428 0.930 . S
H421 C435 0.931 . S
H422 C399 0.929 . S
H423 C429 0.930 . S
H424 C462 0.930 . S
H425 C406 0.930 . S
H426 C461 0.929 . S
N427 Tb396 2.660 . S
N427 C428 1.305 . S
N427 C432 1.360 . S
C428 H420 0.930 . S
C428 N427 1.305 . S
C428 C431 1.407 . S
C429 H423 0.930 . S
C429 C430 1.410 . S
C429 C431 1.345 . S
C430 C429 1.410 . S
C430 C432 1.417 . S
C430 C462 1.432 . S
C431 H417 0.930 . S
C431 C428 1.407 . S
C431 C429 1.345 . S
C432 N427 1.360 . S
C432 C430 1.417 . S
C432 C436 1.432 . S
H433 C438 0.930 . S
N434 Tb396 2.600 . S
N434 C436 1.359 . S
N434 C437 1.327 . S
C435 H421 0.931 . S
C435 C437 1.392 . S
C435 C438 1.370 . S
C436 C432 1.432 . S
C436 N434 1.359 . S
C436 C439 1.414 . S
C437 H419 0.930 . S
C437 N434 1.327 . S
C437 C435 1.392 . S
C438 H433 0.930 . S
C438 C435 1.370 . S
C438 C439 1.385 . S
C439 C436 1.414 . S
C439 C438 1.385 . S
C439 C461 1.444 . S
O440 Tb396 2.546 . S
O440 C460 1.251 . S
O441 Tb396 2.610 . S
O441 Tb407 2.362 . S
O441 C452 1.283 . S
O442 Tb407 2.421 . S
O442 C459 1.262 . S
O443 Tb396 2.320 . S
O443 C459 1.260 . S
O444 Tb396 2.552 . S
O444 C452 1.243 . S
O445 Tb396 2.413 . S
O445 C460 1.256 . S
O446 Tb407 2.546 . S
O446 C471 1.251 . S
O447 Tb396 2.362 . S
O447 Tb407 2.610 . S
O447 C463 1.283 . S
O448 Tb396 2.421 . S
O448 C470 1.262 . S
O449 Tb407 2.320 . S
O449 C470 1.260 . S
O450 Tb407 2.552 . S
O450 C463 1.243 . S
O451 Tb407 2.413 . S
O451 C471 1.256 . S
C452 O441 1.283 . S
C452 O444 1.243 . S
C453 C455 1.382 . S
C453 C457 1.393 . S
C453 C460 1.500 . S
C454 C455 1.400 . S
C454 C456 1.384 . S
C455 C453 1.382 . S
C455 C454 1.400 . S
C455 H472 0.930 . S
C456 C454 1.384 . S
C456 C458 1.392 . S
C456 H473 0.931 . S
C457 C453 1.393 . S
C457 C458 1.401 . S
C457 H474 0.930 . S
C458 C456 1.392 . S
C458 C457 1.401 . S
C458 H475 0.930 . S
C459 O442 1.262 . S
C459 O443 1.260 . S
C460 Tb396 2.833 . S
C460 O440 1.251 . S
C460 O445 1.256 . S
C460 C453 1.500 . S
C461 H426 0.929 . S
C461 C439 1.444 . S
C461 C462 1.317 . S
C462 H424 0.930 . S
C462 C430 1.432 . S
C462 C461 1.317 . S
C463 O447 1.283 . S
C463 O450 1.243 . S
C464 C465 1.382 . S
C464 C468 1.393 . S
C464 C471 1.500 . S
C465 C464 1.382 . S
C465 C466 1.400 . S
C465 H476 0.930 . S
C466 C465 1.400 . S
C466 C467 1.384 . S
C467 C466 1.384 . S
C467 C469 1.392 . S
C467 H477 0.931 . S
C468 C464 1.393 . S
C468 C469 1.401 . S
C468 H478 0.930 . S
C469 C467 1.392 . S
C469 C468 1.401 . S
C469 H479 0.930 . S
C470 O448 1.262 . S
C470 O449 1.260 . S
C471 Tb407 2.833 . S
C471 O446 1.251 . S
C471 O451 1.256 . S
C471 C464 1.500 . S
H472 C455 0.930 . S
H473 C456 0.931 . S
H474 C457 0.930 . S
H475 C458 0.930 . S
H476 C465 0.930 . S
H477 C467 0.931 . S
H478 C468 0.930 . S
H479 C469 0.930 . S
Tb480 N511 2.660 . S
Tb480 N518 2.600 . S
Tb480 O524 2.546 . S
Tb480 O525 2.610 . S
Tb480 O527 2.320 . S
Tb480 O528 2.552 1_545 S
Tb480 O529 2.413 . S
Tb480 O531 2.362 . S
Tb480 O532 2.421 . S
Tb480 C544 2.833 . S
C481 C484 1.432 . S
C481 C485 1.414 . S
C481 N488 1.359 1_565 S
C482 C484 1.417 . S
C482 C486 1.432 . S
C482 C494 1.410 . S
C483 C485 1.444 . S
C483 C486 1.317 . S
C483 H506 0.929 . S
C484 C481 1.432 . S
C484 C482 1.417 . S
C484 N492 1.360 . S
C485 C481 1.414 . S
C485 C483 1.444 . S
C485 C490 1.385 . S
C486 C482 1.432 . S
C486 C483 1.317 . S
C486 H498 0.930 . S
C487 C489 1.392 . S
C487 C490 1.370 1_545 S
C487 H499 0.931 . S
N488 C481 1.359 1_545 S
N488 C489 1.327 . S
N488 Tb491 2.600 . S
C489 C487 1.392 . S
C489 N488 1.327 . S
C489 H496 0.930 . S
C490 C485 1.385 . S
C490 C487 1.370 1_565 S
C490 H509 0.930 . S
Tb491 N488 2.600 . S
Tb491 N492 2.660 1_545 S
Tb491 O525 2.362 . S
Tb491 O526 2.421 . S
Tb491 O530 2.546 . S
Tb491 O531 2.610 . S
Tb491 O533 2.320 . S
Tb491 O534 2.552 . S
Tb491 O535 2.413 . S
Tb491 C555 2.833 . S
N492 C484 1.360 . S
N492 Tb491 2.660 1_565 S
N492 C493 1.305 . S
C493 N492 1.305 . S
C493 C495 1.407 . S
C493 H500 0.930 . S
C494 C482 1.410 . S
C494 C495 1.345 . S
C494 H502 0.930 . S
C495 C493 1.407 . S
C495 C494 1.345 . S
C495 H497 0.930 . S
H496 C489 0.930 . S
H497 C495 0.930 . S
H498 C486 0.930 . S
H499 C487 0.931 . S
H500 C493 0.930 . S
H501 C515 0.930 . S
H502 C494 0.930 . S
H503 C521 0.930 . S
H504 C512 0.930 . S
H505 C519 0.931 . S
H506 C483 0.929 . S
H507 C513 0.930 . S
H508 C546 0.930 . S
H509 C490 0.930 . S
H510 C545 0.929 . S
N511 Tb480 2.660 . S
N511 C512 1.305 . S
N511 C516 1.360 . S
C512 H504 0.930 . S
C512 N511 1.305 . S
C512 C515 1.407 . S
C513 H507 0.930 . S
C513 C514 1.410 . S
C513 C515 1.345 . S
C514 C513 1.410 . S
C514 C516 1.417 . S
C514 C546 1.432 . S
C515 H501 0.930 . S
C515 C512 1.407 . S
C515 C513 1.345 . S
C516 N511 1.360 . S
C516 C514 1.417 . S
C516 C520 1.432 . S
H517 C522 0.930 . S
N518 Tb480 2.600 . S
N518 C520 1.359 . S
N518 C521 1.327 . S
C519 H505 0.931 . S
C519 C521 1.392 . S
C519 C522 1.370 . S
C520 C516 1.432 . S
C520 N518 1.359 . S
C520 C523 1.414 . S
C521 H503 0.930 . S
C521 N518 1.327 . S
C521 C519 1.392 . S
C522 H517 0.930 . S
C522 C519 1.370 . S
C522 C523 1.385 . S
C523 C520 1.414 . S
C523 C522 1.385 . S
C523 C545 1.444 . S
O524 Tb480 2.546 . S
O524 C544 1.251 . S
O525 Tb480 2.610 . S
O525 Tb491 2.362 . S
O525 C536 1.283 1_545 S
O526 Tb491 2.421 . S
O526 C543 1.262 . S
O527 Tb480 2.320 . S
O527 C543 1.260 . S
O528 Tb480 2.552 1_565 S
O528 C536 1.243 . S
O529 Tb480 2.413 . S
O529 C544 1.256 . S
O530 Tb491 2.546 . S
O530 C555 1.251 . S
O531 Tb480 2.362 . S
O531 Tb491 2.610 . S
O531 C547 1.283 . S
O532 Tb480 2.421 . S
O532 C554 1.262 . S
O533 Tb491 2.320 . S
O533 C554 1.260 . S
O534 Tb491 2.552 . S
O534 C547 1.243 . S
O535 Tb491 2.413 . S
O535 C555 1.256 . S
C536 O525 1.283 1_565 S
C536 O528 1.243 . S
C537 C539 1.382 1_545 S
C537 C541 1.393 . S
C537 C544 1.500 . S
C538 C539 1.400 . S
C538 C540 1.384 . S
C539 C537 1.382 1_565 S
C539 C538 1.400 . S
C539 H556 0.930 . S
C540 C538 1.384 . S
C540 C542 1.392 . S
C540 H557 0.931 . S
C541 C537 1.393 . S
C541 C542 1.401 1_545 S
C541 H558 0.930 . S
C542 C540 1.392 . S
C542 C541 1.401 1_565 S
C542 H559 0.930 . S
C543 O526 1.262 . S
C543 O527 1.260 . S
C544 Tb480 2.833 . S
C544 O524 1.251 . S
C544 O529 1.256 . S
C544 C537 1.500 . S
C545 H510 0.929 . S
C545 C523 1.444 . S
C545 C546 1.317 . S
C546 H508 0.930 . S
C546 C514 1.432 . S
C546 C545 1.317 . S
C547 O531 1.283 . S
C547 O534 1.243 . S
C548 C549 1.382 . S
C548 C552 1.393 . S
C548 C555 1.500 . S
C549 C548 1.382 . S
C549 C550 1.400 . S
C549 H560 0.930 . S
C550 C549 1.400 . S
C550 C551 1.384 . S
C551 C550 1.384 . S
C551 C553 1.392 . S
C551 H561 0.931 . S
C552 C548 1.393 . S
C552 C553 1.401 . S
C552 H562 0.930 . S
C553 C551 1.392 . S
C553 C552 1.401 . S
C553 H563 0.930 . S
C554 O532 1.262 . S
C554 O533 1.260 . S
C555 Tb491 2.833 . S
C555 O530 1.251 . S
C555 O535 1.256 . S
C555 C548 1.500 . S
H556 C539 0.930 . S
H557 C540 0.931 . S
H558 C541 0.930 . S
H559 C542 0.930 . S
H560 C549 0.930 . S
H561 C551 0.931 . S
H562 C552 0.930 . S
H563 C553 0.930 . S
Tb564 N595 2.660 . S
Tb564 N602 2.600 . S
Tb564 O608 2.546 . S
Tb564 O609 2.610 . S
Tb564 O611 2.320 . S
Tb564 O612 2.552 . S
Tb564 O613 2.413 . S
Tb564 O615 2.362 . S
Tb564 O616 2.421 . S
Tb564 C628 2.833 . S
C565 C568 1.432 . S
C565 C569 1.414 . S
C565 N572 1.359 . S
C566 C568 1.417 . S
C566 C570 1.432 . S
C566 C578 1.410 . S
C567 C569 1.444 . S
C567 C570 1.317 . S
C567 H590 0.929 . S
C568 C565 1.432 . S
C568 C566 1.417 . S
C568 N576 1.360 . S
C569 C565 1.414 . S
C569 C567 1.444 . S
C569 C574 1.385 . S
C570 C566 1.432 . S
C570 C567 1.317 . S
C570 H582 0.930 . S
C571 C573 1.392 . S
C571 C574 1.370 . S
C571 H583 0.931 . S
N572 C565 1.359 . S
N572 C573 1.327 . S
N572 Tb575 2.600 . S
C573 C571 1.392 . S
C573 N572 1.327 . S
C573 H580 0.930 . S
C574 C569 1.385 . S
C574 C571 1.370 . S
C574 H593 0.930 . S
Tb575 N572 2.600 . S
Tb575 N576 2.660 . S
Tb575 O609 2.362 . S
Tb575 O610 2.421 . S
Tb575 O614 2.546 . S
Tb575 O615 2.610 . S
Tb575 O617 2.320 . S
Tb575 O618 2.552 . S
Tb575 O619 2.413 . S
Tb575 C639 2.833 . S
N576 C568 1.360 . S
N576 Tb575 2.660 . S
N576 C577 1.305 . S
C577 N576 1.305 . S
C577 C579 1.407 . S
C577 H584 0.930 . S
C578 C566 1.410 . S
C578 C579 1.345 . S
C578 H586 0.930 . S
C579 C577 1.407 . S
C579 C578 1.345 . S
C579 H581 0.930 . S
H580 C573 0.930 . S
H581 C579 0.930 . S
H582 C570 0.930 . S
H583 C571 0.931 . S
H584 C577 0.930 . S
H585 C599 0.930 . S
H586 C578 0.930 . S
H587 C605 0.930 . S
H588 C596 0.930 . S
H589 C603 0.931 . S
H590 C567 0.929 . S
H591 C597 0.930 . S
H592 C630 0.930 . S
H593 C574 0.930 . S
H594 C629 0.929 . S
N595 Tb564 2.660 . S
N595 C596 1.305 . S
N595 C600 1.360 . S
C596 H588 0.930 . S
C596 N595 1.305 . S
C596 C599 1.407 . S
C597 H591 0.930 . S
C597 C598 1.410 . S
C597 C599 1.345 . S
C598 C597 1.410 . S
C598 C600 1.417 . S
C598 C630 1.432 . S
C599 H585 0.930 . S
C599 C596 1.407 . S
C599 C597 1.345 . S
C600 N595 1.360 . S
C600 C598 1.417 . S
C600 C604 1.432 . S
H601 C606 0.930 . S
N602 Tb564 2.600 . S
N602 C604 1.359 . S
N602 C605 1.327 . S
C603 H589 0.931 . S
C603 C605 1.392 . S
C603 C606 1.370 . S
C604 C600 1.432 . S
C604 N602 1.359 . S
C604 C607 1.414 . S
C605 H587 0.930 . S
C605 N602 1.327 . S
C605 C603 1.392 . S
C606 H601 0.930 . S
C606 C603 1.370 . S
C606 C607 1.385 . S
C607 C604 1.414 . S
C607 C606 1.385 . S
C607 C629 1.444 . S
O608 Tb564 2.546 . S
O608 C628 1.251 . S
O609 Tb564 2.610 . S
O609 Tb575 2.362 . S
O609 C620 1.283 . S
O610 Tb575 2.421 . S
O610 C627 1.262 . S
O611 Tb564 2.320 . S
O611 C627 1.260 . S
O612 Tb564 2.552 . S
O612 C620 1.243 . S
O613 Tb564 2.413 . S
O613 C628 1.256 . S
O614 Tb575 2.546 . S
O614 C639 1.251 . S
O615 Tb564 2.362 . S
O615 Tb575 2.610 . S
O615 C631 1.283 . S
O616 Tb564 2.421 . S
O616 C638 1.262 . S
O617 Tb575 2.320 . S
O617 C638 1.260 . S
O618 Tb575 2.552 . S
O618 C631 1.243 . S
O619 Tb575 2.413 . S
O619 C639 1.256 . S
C620 O609 1.283 . S
C620 O612 1.243 . S
C621 C623 1.382 . S
C621 C625 1.393 . S
C621 C628 1.500 . S
C622 C623 1.400 . S
C622 C624 1.384 . S
C623 C621 1.382 . S
C623 C622 1.400 . S
C623 H640 0.930 . S
C624 C622 1.384 . S
C624 C626 1.392 . S
C624 H641 0.931 . S
C625 C621 1.393 . S
C625 C626 1.401 . S
C625 H642 0.930 . S
C626 C624 1.392 . S
C626 C625 1.401 . S
C626 H643 0.930 . S
C627 O610 1.262 . S
C627 O611 1.260 . S
C628 Tb564 2.833 . S
C628 O608 1.251 . S
C628 O613 1.256 . S
C628 C621 1.500 . S
C629 H594 0.929 . S
C629 C607 1.444 . S
C629 C630 1.317 . S
C630 H592 0.930 . S
C630 C598 1.432 . S
C630 C629 1.317 . S
C631 O615 1.283 . S
C631 O618 1.243 . S
C632 C633 1.382 . S
C632 C636 1.393 . S
C632 C639 1.500 . S
C633 C632 1.382 . S
C633 C634 1.400 . S
C633 H644 0.930 . S
C634 C633 1.400 . S
C634 C635 1.384 . S
C635 C634 1.384 . S
C635 C637 1.392 . S
C635 H645 0.931 . S
C636 C632 1.393 . S
C636 C637 1.401 . S
C636 H646 0.930 . S
C637 C635 1.392 . S
C637 C636 1.401 . S
C637 H647 0.930 . S
C638 O616 1.262 . S
C638 O617 1.260 . S
C639 Tb575 2.833 . S
C639 O614 1.251 . S
C639 O619 1.256 . S
C639 C632 1.500 . S
H640 C623 0.930 . S
H641 C624 0.931 . S
H642 C625 0.930 . S
H643 C626 0.930 . S
H644 C633 0.930 . S
H645 C635 0.931 . S
H646 C636 0.930 . S
H647 C637 0.930 . S
Tb648 N679 2.660 . S
Tb648 N686 2.600 . S
Tb648 O692 2.546 . S
Tb648 O693 2.610 . S
Tb648 O695 2.320 . S
Tb648 O696 2.552 . S
Tb648 O697 2.413 . S
Tb648 O699 2.362 . S
Tb648 O700 2.421 . S
Tb648 C712 2.833 . S
C649 C652 1.432 . S
C649 C653 1.414 . S
C649 N656 1.359 . S
C650 C652 1.417 . S
C650 C654 1.432 . S
C650 C662 1.410 . S
C651 C653 1.444 . S
C651 C654 1.317 . S
C651 H674 0.929 . S
C652 C649 1.432 . S
C652 C650 1.417 . S
C652 N660 1.360 . S
C653 C649 1.414 . S
C653 C651 1.444 . S
C653 C658 1.385 . S
C654 C650 1.432 . S
C654 C651 1.317 . S
C654 H666 0.930 . S
C655 C657 1.392 . S
C655 C658 1.370 . S
C655 H667 0.931 . S
N656 C649 1.359 . S
N656 C657 1.327 . S
N656 Tb659 2.600 1_565 S
C657 C655 1.392 . S
C657 N656 1.327 . S
C657 H664 0.930 . S
C658 C653 1.385 . S
C658 C655 1.370 . S
C658 H677 0.930 . S
Tb659 N656 2.600 1_545 S
Tb659 N660 2.660 1_545 S
Tb659 O693 2.362 . S
Tb659 O694 2.421 . S
Tb659 O698 2.546 1_545 S
Tb659 O699 2.610 . S
Tb659 O701 2.320 . S
Tb659 O702 2.552 . S
Tb659 O703 2.413 1_545 S
Tb659 C723 2.833 1_545 S
N660 C652 1.360 . S
N660 Tb659 2.660 1_565 S
N660 C661 1.305 . S
C661 N660 1.305 . S
C661 C663 1.407 1_455 S
C661 H668 0.930 . S
C662 C650 1.410 . S
C662 C663 1.345 1_455 S
C662 H670 0.930 1_455 S
C663 C661 1.407 1_655 S
C663 C662 1.345 1_655 S
C663 H665 0.930 . S
H664 C657 0.930 . S
H665 C663 0.930 . S
H666 C654 0.930 . S
H667 C655 0.931 . S
H668 C661 0.930 . S
H669 C683 0.930 . S
H670 C662 0.930 1_655 S
H671 C689 0.930 . S
H672 C680 0.930 . S
H673 C687 0.905 1_655 S
H674 C651 0.929 . S
H675 C681 0.930 . S
H676 C714 0.930 . S
H677 C658 0.930 . S
H678 C713 0.929 . S
N679 Tb648 2.660 . S
N679 C680 1.305 . S
N679 C684 1.360 . S
C680 H672 0.930 . S
C680 N679 1.305 . S
C680 C683 1.407 . S
C681 H675 0.930 . S
C681 C682 1.410 . S
C681 C683 1.345 . S
C682 C681 1.410 . S
C682 C684 1.417 . S
C682 C714 1.432 . S
C683 H669 0.930 . S
C683 C680 1.407 . S
C683 C681 1.345 . S
C684 N679 1.360 . S
C684 C682 1.417 . S
C684 C688 1.432 . S
H685 C690 0.930 . S
N686 Tb648 2.600 . S
N686 C688 1.359 . S
N686 C689 1.327 . S
C687 H673 0.905 1_455 S
C687 C689 1.408 . S
C687 C690 1.380 . S
C688 C684 1.432 . S
C688 N686 1.359 . S
C688 C691 1.414 . S
C689 H671 0.930 . S
C689 N686 1.327 . S
C689 C687 1.408 . S
C690 H685 0.930 . S
C690 C687 1.380 . S
C690 C691 1.385 . S
C691 C688 1.414 . S
C691 C690 1.385 . S
C691 C713 1.444 . S
O692 Tb648 2.546 . S
O692 C712 1.251 . S
O693 Tb648 2.610 . S
O693 Tb659 2.362 . S
O693 C704 1.283 . S
O694 Tb659 2.421 . S
O694 C711 1.262 . S
O695 Tb648 2.320 . S
O695 C711 1.260 . S
O696 Tb648 2.552 . S
O696 C704 1.243 . S
O697 Tb648 2.413 . S
O697 C712 1.256 . S
O698 Tb659 2.546 1_565 S
O698 C723 1.251 . S
O699 Tb648 2.362 . S
O699 Tb659 2.610 . S
O699 C715 1.283 . S
O700 Tb648 2.421 . S
O700 C722 1.262 . S
O701 Tb659 2.320 . S
O701 C722 1.260 . S
O702 Tb659 2.552 . S
O702 C715 1.243 . S
O703 Tb659 2.413 1_565 S
O703 C723 1.256 . S
C704 O693 1.283 . S
C704 O696 1.243 . S
C705 C707 1.382 . S
C705 C709 1.393 . S
C705 C712 1.500 . S
C706 C707 1.400 . S
C706 C708 1.384 . S
C707 C705 1.382 . S
C707 C706 1.400 . S
C707 H724 0.930 . S
C708 C706 1.384 . S
C708 C710 1.392 . S
C708 H725 0.931 . S
C709 C705 1.393 . S
C709 C710 1.401 . S
C709 H726 0.930 . S
C710 C708 1.392 . S
C710 C709 1.401 . S
C710 H727 0.930 . S
C711 O694 1.262 . S
C711 O695 1.260 . S
C712 Tb648 2.833 . S
C712 O692 1.251 . S
C712 O697 1.256 . S
C712 C705 1.500 . S
C713 H678 0.929 . S
C713 C691 1.444 . S
C713 C714 1.317 . S
C714 H676 0.930 . S
C714 C682 1.432 . S
C714 C713 1.317 . S
C715 O699 1.283 . S
C715 O702 1.243 . S
C716 C717 1.382 . S
C716 C720 1.393 . S
C716 C723 1.500 . S
C717 C716 1.382 . S
C717 C718 1.400 . S
C717 H728 0.930 . S
C718 C717 1.400 . S
C718 C719 1.384 . S
C719 C718 1.384 . S
C719 C721 1.392 . S
C719 H729 0.931 . S
C720 C716 1.393 . S
C720 C721 1.401 . S
C720 H730 0.930 . S
C721 C719 1.392 . S
C721 C720 1.401 . S
C721 H731 0.930 . S
C722 O700 1.262 . S
C722 O701 1.260 . S
C723 Tb659 2.833 1_565 S
C723 O698 1.251 . S
C723 O703 1.256 . S
C723 C716 1.500 . S
H724 C707 0.930 . S
H725 C708 0.931 . S
H726 C709 0.930 . S
H727 C710 0.930 . S
H728 C717 0.930 . S
H729 C719 0.931 . S
H730 C720 0.930 . S
H731 C721 0.930 . S
Tb732 N763 2.660 . S
Tb732 N770 2.600 . S
Tb732 O776 2.546 . S
Tb732 O777 2.610 . S
Tb732 O779 2.320 . S
Tb732 O780 2.552 . S
Tb732 O781 2.413 . S
Tb732 O783 2.362 . S
Tb732 O784 2.421 . S
Tb732 C796 2.833 . S
C733 C736 1.432 . S
C733 C737 1.414 . S
C733 N740 1.359 . S
C734 C736 1.417 . S
C734 C738 1.432 . S
C734 C746 1.410 . S
C735 C737 1.444 . S
C735 C738 1.317 . S
C735 H758 0.929 . S
C736 C733 1.432 . S
C736 C734 1.417 . S
C736 N744 1.360 . S
C737 C733 1.414 . S
C737 C735 1.444 . S
C737 C742 1.385 . S
C738 C734 1.432 . S
C738 C735 1.317 . S
C738 H750 0.930 . S
C739 C741 1.392 . S
C739 C742 1.370 . S
C739 H751 0.931 . S
N740 C733 1.359 . S
N740 C741 1.327 . S
N740 Tb743 2.600 . S
C741 C739 1.392 . S
C741 N740 1.327 . S
C741 H748 0.930 . S
C742 C737 1.385 . S
C742 C739 1.370 . S
C742 H761 0.930 . S
Tb743 N740 2.600 . S
Tb743 N744 2.660 . S
Tb743 O777 2.362 . S
Tb743 O778 2.421 . S
Tb743 O782 2.546 . S
Tb743 O783 2.610 . S
Tb743 O785 2.320 . S
Tb743 O786 2.552 . S
Tb743 O787 2.413 . S
Tb743 C807 2.833 . S
N744 C736 1.360 . S
N744 Tb743 2.660 . S
N744 C745 1.305 . S
C745 N744 1.305 . S
C745 C747 1.407 . S
C745 H752 0.930 . S
C746 C734 1.410 . S
C746 C747 1.345 . S
C746 H754 0.930 . S
C747 C745 1.407 . S
C747 C746 1.345 . S
C747 H749 0.930 . S
H748 C741 0.930 . S
H749 C747 0.930 . S
H750 C738 0.930 . S
H751 C739 0.931 . S
H752 C745 0.930 . S
H753 C767 0.930 . S
H754 C746 0.930 . S
H755 C773 0.930 . S
H756 C764 0.930 . S
H757 C771 0.931 . S
H758 C735 0.929 . S
H759 C765 0.930 . S
H760 C798 0.930 . S
H761 C742 0.930 . S
H762 C797 0.929 . S
N763 Tb732 2.660 . S
N763 C764 1.305 . S
N763 C768 1.360 . S
C764 H756 0.930 . S
C764 N763 1.305 . S
C764 C767 1.407 . S
C765 H759 0.930 . S
C765 C766 1.410 . S
C765 C767 1.345 . S
C766 C765 1.410 . S
C766 C768 1.417 . S
C766 C798 1.432 . S
C767 H753 0.930 . S
C767 C764 1.407 . S
C767 C765 1.345 . S
C768 N763 1.360 . S
C768 C766 1.417 . S
C768 C772 1.432 . S
H769 C774 0.930 . S
N770 Tb732 2.600 . S
N770 C772 1.359 . S
N770 C773 1.327 . S
C771 H757 0.931 . S
C771 C773 1.392 . S
C771 C774 1.370 . S
C772 C768 1.432 . S
C772 N770 1.359 . S
C772 C775 1.414 . S
C773 H755 0.930 . S
C773 N770 1.327 . S
C773 C771 1.392 . S
C774 H769 0.930 . S
C774 C771 1.370 . S
C774 C775 1.385 . S
C775 C772 1.414 . S
C775 C774 1.385 . S
C775 C797 1.444 . S
O776 Tb732 2.546 . S
O776 C796 1.251 . S
O777 Tb732 2.610 . S
O777 Tb743 2.362 . S
O777 C788 1.283 . S
O778 Tb743 2.421 . S
O778 C795 1.262 . S
O779 Tb732 2.320 . S
O779 C795 1.260 . S
O780 Tb732 2.552 . S
O780 C788 1.243 . S
O781 Tb732 2.413 . S
O781 C796 1.256 . S
O782 Tb743 2.546 . S
O782 C807 1.251 . S
O783 Tb732 2.362 . S
O783 Tb743 2.610 . S
O783 C799 1.283 . S
O784 Tb732 2.421 . S
O784 C806 1.262 . S
O785 Tb743 2.320 . S
O785 C806 1.260 . S
O786 Tb743 2.552 . S
O786 C799 1.243 . S
O787 Tb743 2.413 . S
O787 C807 1.256 . S
C788 O777 1.283 . S
C788 O780 1.243 . S
C789 C791 1.382 . S
C789 C793 1.393 . S
C789 C796 1.500 . S
C790 C791 1.400 . S
C790 C792 1.384 . S
C791 C789 1.382 . S
C791 C790 1.400 . S
C791 H808 0.930 . S
C792 C790 1.384 . S
C792 C794 1.392 . S
C792 H809 0.931 . S
C793 C789 1.393 . S
C793 C794 1.401 . S
C793 H810 0.930 . S
C794 C792 1.392 . S
C794 C793 1.401 . S
C794 H811 0.930 . S
C795 O778 1.262 . S
C795 O779 1.260 . S
C796 Tb732 2.833 . S
C796 O776 1.251 . S
C796 O781 1.256 . S
C796 C789 1.500 . S
C797 H762 0.929 . S
C797 C775 1.444 . S
C797 C798 1.317 . S
C798 H760 0.930 . S
C798 C766 1.432 . S
C798 C797 1.317 . S
C799 O783 1.283 . S
C799 O786 1.243 . S
C800 C801 1.382 . S
C800 C804 1.393 . S
C800 C807 1.500 . S
C801 C800 1.382 . S
C801 C802 1.400 . S
C801 H812 0.930 . S
C802 C801 1.400 . S
C802 C803 1.384 . S
C803 C802 1.384 . S
C803 C805 1.392 . S
C803 H813 0.931 . S
C804 C800 1.393 . S
C804 C805 1.401 . S
C804 H814 0.930 . S
C805 C803 1.392 . S
C805 C804 1.401 . S
C805 H815 0.930 . S
C806 O784 1.262 . S
C806 O785 1.260 . S
C807 Tb743 2.833 . S
C807 O782 1.251 . S
C807 O787 1.256 . S
C807 C800 1.500 . S
H808 C791 0.930 . S
H809 C792 0.931 . S
H810 C793 0.930 . S
H811 C794 0.930 . S
H812 C801 0.930 . S
H813 C803 0.931 . S
H814 C804 0.930 . S
H815 C805 0.930 . S
Tb816 N847 2.660 . S
Tb816 N854 2.600 . S
Tb816 O860 2.546 1_545 S
Tb816 O861 2.610 . S
Tb816 O863 2.320 . S
Tb816 O864 2.552 . S
Tb816 O865 2.413 . S
Tb816 O867 2.362 . S
Tb816 O868 2.421 1_545 S
Tb816 C880 2.833 . S
C817 C820 1.432 . S
C817 C821 1.414 . S
C817 N824 1.359 . S
C818 C820 1.417 . S
C818 C822 1.432 . S
C818 C830 1.410 1_545 S
C819 C821 1.444 . S
C819 C822 1.317 . S
C819 H842 0.929 . S
C820 C817 1.432 . S
C820 C818 1.417 . S
C820 N828 1.360 . S
C821 C817 1.414 . S
C821 C819 1.444 . S
C821 C826 1.385 . S
C822 C818 1.432 . S
C822 C819 1.317 . S
C822 H834 0.930 . S
C823 C825 1.392 . S
C823 C826 1.370 . S
C823 H835 0.931 . S
N824 C817 1.359 . S
N824 C825 1.327 . S
N824 Tb827 2.600 . S
C825 C823 1.392 . S
C825 N824 1.327 . S
C825 H832 0.930 . S
C826 C821 1.385 . S
C826 C823 1.370 . S
C826 H845 0.930 . S
Tb827 N824 2.600 . S
Tb827 N828 2.660 . S
Tb827 O861 2.362 1_556 S
Tb827 O862 2.421 1_556 S
Tb827 O866 2.546 . S
Tb827 O867 2.610 1_556 S
Tb827 O869 2.320 . S
Tb827 O870 2.552 . S
Tb827 O871 2.413 . S
Tb827 C891 2.833 . S
N828 C820 1.360 . S
N828 Tb827 2.660 . S
N828 C829 1.305 1_545 S
C829 N828 1.305 1_565 S
C829 C831 1.407 . S
C829 H836 0.930 . S
C830 C818 1.410 1_565 S
C830 C831 1.345 . S
C830 H838 0.930 . S
C831 C829 1.407 . S
C831 C830 1.345 . S
C831 H833 0.930 . S
H832 C825 0.930 . S
H833 C831 0.930 . S
H834 C822 0.930 . S
H835 C823 0.931 . S
H836 C829 0.930 . S
H837 C851 0.930 . S
H838 C830 0.930 . S
H839 C857 0.930 . S
H840 C848 0.930 . S
H841 C855 0.931 . S
H842 C819 0.929 . S
H843 C849 0.930 . S
H844 C882 0.930 . S
H845 C826 0.930 . S
H846 C881 0.929 . S
N847 Tb816 2.660 . S
N847 C848 1.305 . S
N847 C852 1.360 . S
C848 H840 0.930 . S
C848 N847 1.305 . S
C848 C851 1.407 . S
C849 H843 0.930 . S
C849 C850 1.410 . S
C849 C851 1.345 . S
C850 C849 1.410 . S
C850 C852 1.417 . S
C850 C882 1.432 . S
C851 H837 0.930 . S
C851 C848 1.407 . S
C851 C849 1.345 . S
C852 N847 1.360 . S
C852 C850 1.417 . S
C852 C856 1.432 . S
H853 C858 0.930 . S
N854 Tb816 2.600 . S
N854 C856 1.359 . S
N854 C857 1.327 1_545 S
C855 H841 0.931 . S
C855 C857 1.392 . S
C855 C858 1.370 . S
C856 C852 1.432 . S
C856 N854 1.359 . S
C856 C859 1.414 . S
C857 H839 0.930 . S
C857 N854 1.327 1_565 S
C857 C855 1.392 . S
C858 H853 0.930 . S
C858 C855 1.370 . S
C858 C859 1.385 1_565 S
C859 C856 1.414 . S
C859 C858 1.385 1_545 S
C859 C881 1.444 . S
O860 Tb816 2.546 1_565 S
O860 C880 1.251 1_565 S
O861 Tb816 2.610 . S
O861 Tb827 2.362 1_554 S
O861 C872 1.283 . S
O862 Tb827 2.421 1_554 S
O862 C879 1.262 . S
O863 Tb816 2.320 . S
O863 C879 1.260 . S
O864 Tb816 2.552 . S
O864 C872 1.243 . S
O865 Tb816 2.413 . S
O865 C880 1.256 . S
O866 Tb827 2.546 . S
O866 C891 1.251 . S
O867 Tb816 2.362 . S
O867 Tb827 2.610 1_554 S
O867 C883 1.283 . S
O868 Tb816 2.421 1_565 S
O868 C890 1.262 1_554 S
O869 Tb827 2.320 . S
O869 C890 1.260 1_545 S
O870 Tb827 2.552 . S
O870 C883 1.243 1_556 S
O871 Tb827 2.413 . S
O871 C891 1.256 . S
C872 O861 1.283 . S
C872 O864 1.243 . S
C873 C875 1.384 . S
C873 C877 1.390 1_545 S
C873 C880 1.501 . S
C874 C875 1.400 . S
C874 C876 1.384 1_545 S
C875 C873 1.384 . S
C875 C874 1.400 . S
C875 H892 0.930 . S
C876 C874 1.384 1_565 S
C876 C878 1.392 . S
C876 H893 0.931 . S
C877 C873 1.390 1_565 S
C877 C878 1.401 . S
C877 H894 0.930 . S
C878 C876 1.392 . S
C878 C877 1.401 . S
C878 H895 0.930 . S
C879 O862 1.262 . S
C879 O863 1.260 . S
C880 Tb816 2.833 . S
C880 O860 1.251 1_545 S
C880 O865 1.256 . S
C880 C873 1.501 . S
C881 H846 0.929 . S
C881 C859 1.444 . S
C881 C882 1.317 . S
C882 H844 0.930 . S
C882 C850 1.432 . S
C882 C881 1.317 . S
C883 O867 1.283 . S
C883 O870 1.243 1_554 S
C884 C885 1.382 . S
C884 C888 1.393 . S
C884 C891 1.500 . S
C885 C884 1.382 . S
C885 C886 1.400 . S
C885 H896 0.930 . S
C886 C885 1.400 . S
C886 C887 1.384 . S
C887 C886 1.384 . S
C887 C889 1.392 . S
C887 H897 0.931 . S
C888 C884 1.393 . S
C888 C889 1.401 . S
C888 H898 0.930 . S
C889 C887 1.392 . S
C889 C888 1.401 . S
C889 H899 0.930 . S
C890 O868 1.262 1_556 S
C890 O869 1.260 1_565 S
C891 Tb827 2.833 . S
C891 O866 1.251 . S
C891 O871 1.256 . S
C891 C884 1.500 . S
H892 C875 0.930 . S
H893 C876 0.931 . S
H894 C877 0.930 . S
H895 C878 0.930 . S
H896 C885 0.930 . S
H897 C887 0.931 . S
H898 C888 0.930 . S
H899 C889 0.930 . S
Tb900 N931 2.660 . S
Tb900 N938 2.600 . S
Tb900 O944 2.546 . S
Tb900 O945 2.610 . S
Tb900 O947 2.320 . S
Tb900 O948 2.552 . S
Tb900 O949 2.413 . S
Tb900 O951 2.362 . S
Tb900 O952 2.421 . S
Tb900 C964 2.833 . S
C901 C904 1.432 . S
C901 C905 1.414 . S
C901 N908 1.359 . S
C902 C904 1.417 . S
C902 C906 1.432 . S
C902 C914 1.410 . S
C903 C905 1.444 . S
C903 C906 1.317 . S
C903 H926 0.929 . S
C904 C901 1.432 . S
C904 C902 1.417 . S
C904 N912 1.360 . S
C905 C901 1.414 . S
C905 C903 1.444 . S
C905 C910 1.385 . S
C906 C902 1.432 . S
C906 C903 1.317 . S
C906 H918 0.930 . S
C907 C909 1.392 . S
C907 C910 1.370 . S
C907 H919 0.931 . S
N908 C901 1.359 . S
N908 C909 1.327 . S
N908 Tb911 2.600 . S
C909 C907 1.392 . S
C909 N908 1.327 . S
C909 H916 0.930 . S
C910 C905 1.385 . S
C910 C907 1.370 . S
C910 H929 0.930 . S
Tb911 N908 2.600 . S
Tb911 N912 2.660 . S
Tb911 O945 2.362 . S
Tb911 O946 2.421 . S
Tb911 O950 2.546 . S
Tb911 O951 2.610 . S
Tb911 O953 2.320 . S
Tb911 O954 2.552 . S
Tb911 O955 2.413 . S
Tb911 C975 2.833 . S
N912 C904 1.360 . S
N912 Tb911 2.660 . S
N912 C913 1.305 . S
C913 N912 1.305 . S
C913 C915 1.407 . S
C913 H920 0.930 . S
C914 C902 1.410 . S
C914 C915 1.345 . S
C914 H922 0.930 . S
C915 C913 1.407 . S
C915 C914 1.345 . S
C915 H917 0.930 . S
H916 C909 0.930 . S
H917 C915 0.930 . S
H918 C906 0.930 . S
H919 C907 0.931 . S
H920 C913 0.930 . S
H921 C935 0.930 . S
H922 C914 0.930 . S
H923 C941 0.930 . S
H924 C932 0.930 . S
H925 C939 0.931 . S
H926 C903 0.929 . S
H927 C933 0.930 . S
H928 C966 0.930 . S
H929 C910 0.930 . S
H930 C965 0.929 . S
N931 Tb900 2.660 . S
N931 C932 1.305 . S
N931 C936 1.360 . S
C932 H924 0.930 . S
C932 N931 1.305 . S
C932 C935 1.407 . S
C933 H927 0.930 . S
C933 C934 1.410 . S
C933 C935 1.345 . S
C934 C933 1.410 . S
C934 C936 1.417 . S
C934 C966 1.432 . S
C935 H921 0.930 . S
C935 C932 1.407 . S
C935 C933 1.345 . S
C936 N931 1.360 . S
C936 C934 1.417 . S
C936 C940 1.432 . S
H937 C942 0.930 . S
N938 Tb900 2.600 . S
N938 C940 1.359 . S
N938 C941 1.327 . S
C939 H925 0.931 . S
C939 C941 1.392 . S
C939 C942 1.370 . S
C940 C936 1.432 . S
C940 N938 1.359 . S
C940 C943 1.414 . S
C941 H923 0.930 . S
C941 N938 1.327 . S
C941 C939 1.392 . S
C942 H937 0.930 . S
C942 C939 1.370 . S
C942 C943 1.385 . S
C943 C940 1.414 . S
C943 C942 1.385 . S
C943 C965 1.444 . S
O944 Tb900 2.546 . S
O944 C964 1.251 . S
O945 Tb900 2.610 . S
O945 Tb911 2.362 . S
O945 C956 1.283 . S
O946 Tb911 2.421 . S
O946 C963 1.262 . S
O947 Tb900 2.320 . S
O947 C963 1.260 . S
O948 Tb900 2.552 . S
O948 C956 1.243 . S
O949 Tb900 2.413 . S
O949 C964 1.256 . S
O950 Tb911 2.546 . S
O950 C975 1.251 . S
O951 Tb900 2.362 . S
O951 Tb911 2.610 . S
O951 C967 1.283 . S
O952 Tb900 2.421 . S
O952 C974 1.262 . S
O953 Tb911 2.320 . S
O953 C974 1.260 . S
O954 Tb911 2.552 . S
O954 C967 1.243 . S
O955 Tb911 2.413 . S
O955 C975 1.256 . S
C956 O945 1.283 . S
C956 O948 1.243 . S
C957 C959 1.382 . S
C957 C961 1.393 . S
C957 C964 1.500 . S
C958 C959 1.400 . S
C958 C960 1.384 . S
C959 C957 1.382 . S
C959 C958 1.400 . S
C959 H976 0.930 . S
C960 C958 1.384 . S
C960 C962 1.392 . S
C960 H977 0.931 . S
C961 C957 1.393 . S
C961 C962 1.401 . S
C961 H978 0.930 . S
C962 C960 1.392 . S
C962 C961 1.401 . S
C962 H979 0.930 . S
C963 O946 1.262 . S
C963 O947 1.260 . S
C964 Tb900 2.833 . S
C964 O944 1.251 . S
C964 O949 1.256 . S
C964 C957 1.500 . S
C965 H930 0.929 . S
C965 C943 1.444 . S
C965 C966 1.317 . S
C966 H928 0.930 . S
C966 C934 1.432 . S
C966 C965 1.317 . S
C967 O951 1.283 . S
C967 O954 1.243 . S
C968 C969 1.382 . S
C968 C972 1.393 . S
C968 C975 1.500 . S
C969 C968 1.382 . S
C969 C970 1.400 . S
C969 H980 0.930 . S
C970 C969 1.400 . S
C970 C971 1.384 . S
C971 C970 1.384 . S
C971 C973 1.392 . S
C971 H981 0.931 . S
C972 C968 1.393 . S
C972 C973 1.401 . S
C972 H982 0.930 . S
C973 C971 1.392 . S
C973 C972 1.401 . S
C973 H983 0.930 . S
C974 O952 1.262 . S
C974 O953 1.260 . S
C975 Tb911 2.833 . S
C975 O950 1.251 . S
C975 O955 1.256 . S
C975 C968 1.500 . S
H976 C959 0.930 . S
H977 C960 0.931 . S
H978 C961 0.930 . S
H979 C962 0.930 . S
H980 C969 0.930 . S
H981 C971 0.931 . S
H982 C972 0.930 . S
H983 C973 0.930 . S
Tb984 N1015 2.660 . S
Tb984 N1022 2.600 . S
Tb984 O1028 2.546 . S
Tb984 O1029 2.610 1_554 S
Tb984 O1031 2.320 . S
Tb984 O1032 2.552 1_554 S
Tb984 O1033 2.413 . S
Tb984 O1035 2.362 . S
Tb984 O1036 2.421 . S
Tb984 C1048 2.833 . S
C985 C988 1.432 . S
C985 C989 1.414 . S
C985 N992 1.359 . S
C986 C988 1.417 . S
C986 C990 1.432 . S
C986 C998 1.410 . S
C987 C989 1.444 . S
C987 C990 1.317 . S
C987 H1010 0.929 . S
C988 C985 1.432 . S
C988 C986 1.417 . S
C988 N996 1.360 . S
C989 C985 1.414 . S
C989 C987 1.444 . S
C989 C994 1.385 . S
C990 C986 1.432 . S
C990 C987 1.317 . S
C990 H1002 0.930 . S
C991 C993 1.392 . S
C991 C994 1.370 . S
C991 H1003 0.931 . S
N992 C985 1.359 . S
N992 C993 1.327 . S
N992 Tb995 2.600 1_556 S
C993 C991 1.392 . S
C993 N992 1.327 . S
C993 H1000 0.930 . S
C994 C989 1.385 . S
C994 C991 1.370 . S
C994 H1013 0.930 . S
Tb995 N992 2.600 1_554 S
Tb995 N996 2.660 1_554 S
Tb995 O1029 2.362 1_554 S
Tb995 O1030 2.421 . S
Tb995 O1034 2.546 . S
Tb995 O1035 2.610 . S
Tb995 O1037 2.320 . S
Tb995 O1038 2.552 . S
Tb995 O1039 2.413 . S
Tb995 C1059 2.833 . S
N996 C988 1.360 . S
N996 Tb995 2.660 1_556 S
N996 C997 1.305 . S
C997 N996 1.305 . S
C997 C999 1.407 . S
C997 H1004 0.930 . S
C998 C986 1.410 . S
C998 C999 1.345 . S
C998 H1006 0.930 . S
C999 C997 1.407 . S
C999 C998 1.345 . S
C999 H1001 0.930 . S
H1000 C993 0.930 . S
H1001 C999 0.930 . S
H1002 C990 0.930 . S
H1003 C991 0.931 . S
H1004 C997 0.930 . S
H1005 C1019 0.930 . S
H1006 C998 0.930 . S
H1007 C1025 0.930 . S
H1008 C1016 0.930 . S
H1009 C1023 0.931 . S
H1010 C987 0.929 . S
H1011 C1017 0.930 . S
H1012 C1050 0.930 . S
H1013 C994 0.930 . S
H1014 C1049 0.929 . S
N1015 Tb984 2.660 . S
N1015 C1016 1.305 . S
N1015 C1020 1.360 . S
C1016 H1008 0.930 . S
C1016 N1015 1.305 . S
C1016 C1019 1.407 . S
C1017 H1011 0.930 . S
C1017 C1018 1.410 . S
C1017 C1019 1.345 . S
C1018 C1017 1.410 . S
C1018 C1020 1.417 . S
C1018 C1050 1.432 . S
C1019 H1005 0.930 . S
C1019 C1016 1.407 . S
C1019 C1017 1.345 . S
C1020 N1015 1.360 . S
C1020 C1018 1.417 . S
C1020 C1024 1.432 . S
H1021 C1026 0.930 . S
N1022 Tb984 2.600 . S
N1022 C1024 1.359 . S
N1022 C1025 1.327 . S
C1023 H1009 0.931 . S
C1023 C1025 1.392 . S
C1023 C1026 1.370 . S
C1024 C1020 1.432 . S
C1024 N1022 1.359 . S
C1024 C1027 1.414 . S
C1025 H1007 0.930 . S
C1025 N1022 1.327 . S
C1025 C1023 1.392 . S
C1026 H1021 0.930 . S
C1026 C1023 1.370 . S
C1026 C1027 1.385 . S
C1027 C1024 1.414 . S
C1027 C1026 1.385 . S
C1027 C1049 1.444 . S
O1028 Tb984 2.546 . S
O1028 C1048 1.251 . S
O1029 Tb984 2.610 1_556 S
O1029 Tb995 2.362 1_556 S
O1029 C1040 1.283 . S
O1030 Tb995 2.421 . S
O1030 C1047 1.262 . S
O1031 Tb984 2.320 . S
O1031 C1047 1.260 . S
O1032 Tb984 2.552 1_556 S
O1032 C1040 1.243 . S
O1033 Tb984 2.413 . S
O1033 C1048 1.256 . S
O1034 Tb995 2.546 . S
O1034 C1059 1.251 . S
O1035 Tb984 2.362 . S
O1035 Tb995 2.610 . S
O1035 C1051 1.283 . S
O1036 Tb984 2.421 . S
O1036 C1058 1.262 . S
O1037 Tb995 2.320 . S
O1037 C1058 1.260 . S
O1038 Tb995 2.552 . S
O1038 C1051 1.243 . S
O1039 Tb995 2.413 . S
O1039 C1059 1.256 . S
C1040 O1029 1.283 . S
C1040 O1032 1.243 . S
C1041 C1043 1.382 . S
C1041 C1045 1.393 . S
C1041 C1048 1.500 . S
C1042 C1043 1.400 1_556 S
C1042 C1044 1.384 1_556 S
C1043 C1041 1.382 . S
C1043 C1042 1.400 1_554 S
C1043 H1060 0.930 . S
C1044 C1042 1.384 1_554 S
C1044 C1046 1.392 . S
C1044 H1061 0.931 . S
C1045 C1041 1.393 . S
C1045 C1046 1.401 . S
C1045 H1062 0.930 . S
C1046 C1044 1.392 . S
C1046 C1045 1.401 . S
C1046 H1063 0.930 . S
C1047 O1030 1.262 . S
C1047 O1031 1.260 . S
C1048 Tb984 2.833 . S
C1048 O1028 1.251 . S
C1048 O1033 1.256 . S
C1048 C1041 1.500 . S
C1049 H1014 0.929 . S
C1049 C1027 1.444 . S
C1049 C1050 1.317 . S
C1050 H1012 0.930 . S
C1050 C1018 1.432 . S
C1050 C1049 1.317 . S
C1051 O1035 1.283 . S
C1051 O1038 1.243 . S
C1052 C1053 1.382 . S
C1052 C1056 1.393 . S
C1052 C1059 1.500 . S
C1053 C1052 1.382 . S
C1053 C1054 1.400 . S
C1053 H1064 0.930 . S
C1054 C1053 1.400 . S
C1054 C1055 1.384 . S
C1055 C1054 1.384 . S
C1055 C1057 1.392 . S
C1055 H1065 0.931 . S
C1056 C1052 1.393 . S
C1056 C1057 1.401 . S
C1056 H1066 0.930 . S
C1057 C1055 1.392 . S
C1057 C1056 1.401 . S
C1057 H1067 0.930 . S
C1058 O1036 1.262 . S
C1058 O1037 1.260 . S
C1059 Tb995 2.833 . S
C1059 O1034 1.251 . S
C1059 O1039 1.256 . S
C1059 C1052 1.500 . S
H1060 C1043 0.930 . S
H1061 C1044 0.931 . S
H1062 C1045 0.930 . S
H1063 C1046 0.930 . S
H1064 C1053 0.930 . S
H1065 C1055 0.931 . S
H1066 C1056 0.930 . S
H1067 C1057 0.930 . S
Tb1068 N1099 2.660 . S
Tb1068 N1106 2.600 . S
Tb1068 O1112 2.546 . S
Tb1068 O1113 2.610 . S
Tb1068 O1115 2.320 . S
Tb1068 O1116 2.552 . S
Tb1068 O1117 2.413 . S
Tb1068 O1119 2.362 . S
Tb1068 O1120 2.421 . S
Tb1068 C1132 2.833 . S
C1069 C1072 1.432 . S
C1069 C1073 1.414 . S
C1069 N1076 1.359 . S
C1070 C1072 1.417 . S
C1070 C1074 1.432 . S
C1070 C1082 1.410 . S
C1071 C1073 1.444 . S
C1071 C1074 1.317 . S
C1071 H1094 0.929 . S
C1072 C1069 1.432 . S
C1072 C1070 1.417 . S
C1072 N1080 1.360 . S
C1073 C1069 1.414 . S
C1073 C1071 1.444 . S
C1073 C1078 1.385 . S
C1074 C1070 1.432 . S
C1074 C1071 1.317 . S
C1074 H1086 0.930 . S
C1075 C1077 1.392 . S
C1075 C1078 1.370 . S
C1075 H1087 0.931 . S
N1076 C1069 1.359 . S
N1076 C1077 1.327 . S
N1076 Tb1079 2.600 . S
C1077 C1075 1.392 . S
C1077 N1076 1.327 . S
C1077 H1084 0.930 . S
C1078 C1073 1.385 . S
C1078 C1075 1.370 . S
C1078 H1097 0.930 . S
Tb1079 N1076 2.600 . S
Tb1079 N1080 2.660 . S
Tb1079 O1113 2.362 . S
Tb1079 O1114 2.421 . S
Tb1079 O1118 2.546 . S
Tb1079 O1119 2.610 . S
Tb1079 O1121 2.320 . S
Tb1079 O1122 2.552 . S
Tb1079 O1123 2.413 . S
Tb1079 C1143 2.833 . S
N1080 C1072 1.360 . S
N1080 Tb1079 2.660 . S
N1080 C1081 1.305 . S
C1081 N1080 1.305 . S
C1081 C1083 1.407 . S
C1081 H1088 0.930 . S
C1082 C1070 1.410 . S
C1082 C1083 1.345 . S
C1082 H1090 0.930 . S
C1083 C1081 1.407 . S
C1083 C1082 1.345 . S
C1083 H1085 0.930 . S
H1084 C1077 0.930 . S
H1085 C1083 0.930 . S
H1086 C1074 0.930 . S
H1087 C1075 0.931 . S
H1088 C1081 0.930 . S
H1089 C1103 0.930 . S
H1090 C1082 0.930 . S
H1091 C1109 0.930 . S
H1092 C1100 0.930 . S
H1093 C1107 0.931 . S
H1094 C1071 0.929 . S
H1095 C1101 0.930 . S
H1096 C1134 0.930 . S
H1097 C1078 0.930 . S
H1098 C1133 0.929 . S
N1099 Tb1068 2.660 . S
N1099 C1100 1.305 . S
N1099 C1104 1.360 . S
C1100 H1092 0.930 . S
C1100 N1099 1.305 . S
C1100 C1103 1.407 . S
C1101 H1095 0.930 . S
C1101 C1102 1.410 . S
C1101 C1103 1.345 . S
C1102 C1101 1.410 . S
C1102 C1104 1.417 . S
C1102 C1134 1.432 . S
C1103 H1089 0.930 . S
C1103 C1100 1.407 . S
C1103 C1101 1.345 . S
C1104 N1099 1.360 . S
C1104 C1102 1.417 . S
C1104 C1108 1.432 . S
H1105 C1110 0.930 . S
N1106 Tb1068 2.600 . S
N1106 C1108 1.359 . S
N1106 C1109 1.327 . S
C1107 H1093 0.931 . S
C1107 C1109 1.392 . S
C1107 C1110 1.370 . S
C1108 C1104 1.432 . S
C1108 N1106 1.359 . S
C1108 C1111 1.414 . S
C1109 H1091 0.930 . S
C1109 N1106 1.327 . S
C1109 C1107 1.392 . S
C1110 H1105 0.930 . S
C1110 C1107 1.370 . S
C1110 C1111 1.385 . S
C1111 C1108 1.414 . S
C1111 C1110 1.385 . S
C1111 C1133 1.444 . S
O1112 Tb1068 2.546 . S
O1112 C1132 1.251 . S
O1113 Tb1068 2.610 . S
O1113 Tb1079 2.362 . S
O1113 C1124 1.283 . S
O1114 Tb1079 2.421 . S
O1114 C1131 1.262 . S
O1115 Tb1068 2.320 . S
O1115 C1131 1.260 . S
O1116 Tb1068 2.552 . S
O1116 C1124 1.243 . S
O1117 Tb1068 2.413 . S
O1117 C1132 1.256 . S
O1118 Tb1079 2.546 . S
O1118 C1143 1.251 . S
O1119 Tb1068 2.362 . S
O1119 Tb1079 2.610 . S
O1119 C1135 1.283 . S
O1120 Tb1068 2.421 . S
O1120 C1142 1.262 . S
O1121 Tb1079 2.320 . S
O1121 C1142 1.260 . S
O1122 Tb1079 2.552 . S
O1122 C1135 1.243 . S
O1123 Tb1079 2.413 . S
O1123 C1143 1.256 . S
C1124 O1113 1.283 . S
C1124 O1116 1.243 . S
C1125 C1127 1.382 . S
C1125 C1129 1.393 . S
C1125 C1132 1.500 . S
C1126 C1127 1.400 . S
C1126 C1128 1.384 . S
C1127 C1125 1.382 . S
C1127 C1126 1.400 . S
C1127 H1144 0.930 . S
C1128 C1126 1.384 . S
C1128 C1130 1.392 . S
C1128 H1145 0.931 . S
C1129 C1125 1.393 . S
C1129 C1130 1.401 . S
C1129 H1146 0.930 . S
C1130 C1128 1.392 . S
C1130 C1129 1.401 . S
C1130 H1147 0.930 . S
C1131 O1114 1.262 . S
C1131 O1115 1.260 . S
C1132 Tb1068 2.833 . S
C1132 O1112 1.251 . S
C1132 O1117 1.256 . S
C1132 C1125 1.500 . S
C1133 H1098 0.929 . S
C1133 C1111 1.444 . S
C1133 C1134 1.317 . S
C1134 H1096 0.930 . S
C1134 C1102 1.432 . S
C1134 C1133 1.317 . S
C1135 O1119 1.283 . S
C1135 O1122 1.243 . S
C1136 C1137 1.382 . S
C1136 C1140 1.393 . S
C1136 C1143 1.500 . S
C1137 C1136 1.382 . S
C1137 C1138 1.400 . S
C1137 H1148 0.930 . S
C1138 C1137 1.400 . S
C1138 C1139 1.384 . S
C1139 C1138 1.384 . S
C1139 C1141 1.392 . S
C1139 H1149 0.931 . S
C1140 C1136 1.393 . S
C1140 C1141 1.401 . S
C1140 H1150 0.930 . S
C1141 C1139 1.392 . S
C1141 C1140 1.401 . S
C1141 H1151 0.930 . S
C1142 O1120 1.262 . S
C1142 O1121 1.260 . S
C1143 Tb1079 2.833 . S
C1143 O1118 1.251 . S
C1143 O1123 1.256 . S
C1143 C1136 1.500 . S
H1144 C1127 0.930 . S
H1145 C1128 0.931 . S
H1146 C1129 0.930 . S
H1147 C1130 0.930 . S
H1148 C1137 0.930 . S
H1149 C1139 0.931 . S
H1150 C1140 0.930 . S
H1151 C1141 0.930 . S
Tb1152 N1183 2.660 . S
Tb1152 N1190 2.600 . S
Tb1152 O1196 2.546 . S
Tb1152 O1197 2.610 . S
Tb1152 O1199 2.320 . S
Tb1152 O1200 2.552 . S
Tb1152 O1201 2.413 . S
Tb1152 O1203 2.362 . S
Tb1152 O1204 2.421 . S
Tb1152 C1216 2.833 . S
C1153 C1156 1.432 . S
C1153 C1157 1.414 1_455 S
C1153 N1160 1.359 . S
C1154 C1156 1.417 1_655 S
C1154 C1158 1.432 . S
C1154 C1166 1.410 . S
C1155 C1157 1.444 . S
C1155 C1158 1.317 . S
C1155 H1178 0.929 . S
C1156 C1153 1.432 . S
C1156 C1154 1.417 1_455 S
C1156 N1164 1.360 . S
C1157 C1153 1.414 1_655 S
C1157 C1155 1.444 . S
C1157 C1162 1.385 . S
C1158 C1154 1.432 . S
C1158 C1155 1.317 . S
C1158 H1170 0.930 . S
C1159 C1161 1.392 . S
C1159 C1162 1.370 1_455 S
C1159 H1171 0.931 . S
N1160 C1153 1.359 . S
N1160 C1161 1.327 . S
N1160 Tb1163 2.600 . S
C1161 C1159 1.392 . S
C1161 N1160 1.327 . S
C1161 H1168 0.930 . S
C1162 C1157 1.385 . S
C1162 C1159 1.370 1_655 S
C1162 H1181 0.930 . S
Tb1163 N1160 2.600 . S
Tb1163 N1164 2.660 . S
Tb1163 O1197 2.362 . S
Tb1163 O1198 2.421 . S
Tb1163 O1202 2.546 . S
Tb1163 O1203 2.610 . S
Tb1163 O1205 2.320 . S
Tb1163 O1206 2.552 . S
Tb1163 O1207 2.413 . S
Tb1163 C1227 2.833 . S
N1164 C1156 1.360 . S
N1164 Tb1163 2.660 . S
N1164 C1165 1.305 . S
C1165 N1164 1.305 . S
C1165 C1167 1.381 1_455 S
C1165 H1172 0.930 . S
C1166 C1154 1.410 . S
C1166 C1167 1.380 . S
C1166 H1174 0.930 . S
C1167 C1165 1.381 1_655 S
C1167 C1166 1.380 . S
C1167 H1169 0.923 . S
H1168 C1161 0.930 . S
H1169 C1167 0.923 . S
H1170 C1158 0.930 . S
H1171 C1159 0.931 . S
H1172 C1165 0.930 . S
H1173 C1187 0.930 . S
H1174 C1166 0.930 . S
H1175 C1193 0.930 . S
H1176 C1184 0.930 . S
H1177 C1191 0.931 . S
H1178 C1155 0.929 . S
H1179 C1185 0.930 . S
H1180 C1218 0.930 . S
H1181 C1162 0.930 . S
H1182 C1217 0.929 . S
N1183 Tb1152 2.660 . S
N1183 C1184 1.305 . S
N1183 C1188 1.360 . S
C1184 H1176 0.930 . S
C1184 N1183 1.305 . S
C1184 C1187 1.407 . S
C1185 H1179 0.930 . S
C1185 C1186 1.410 . S
C1185 C1187 1.345 . S
C1186 C1185 1.410 . S
C1186 C1188 1.417 . S
C1186 C1218 1.432 . S
C1187 H1173 0.930 . S
C1187 C1184 1.407 . S
C1187 C1185 1.345 . S
C1188 N1183 1.360 . S
C1188 C1186 1.417 . S
C1188 C1192 1.432 . S
H1189 C1194 0.930 . S
N1190 Tb1152 2.600 . S
N1190 C1192 1.359 . S
N1190 C1193 1.327 . S
C1191 H1177 0.931 . S
C1191 C1193 1.392 . S
C1191 C1194 1.370 . S
C1192 C1188 1.432 . S
C1192 N1190 1.359 . S
C1192 C1195 1.414 . S
C1193 H1175 0.930 . S
C1193 N1190 1.327 . S
C1193 C1191 1.392 . S
C1194 H1189 0.930 . S
C1194 C1191 1.370 . S
C1194 C1195 1.385 . S
C1195 C1192 1.414 . S
C1195 C1194 1.385 . S
C1195 C1217 1.444 . S
O1196 Tb1152 2.546 . S
O1196 C1216 1.251 . S
O1197 Tb1152 2.610 . S
O1197 Tb1163 2.362 . S
O1197 C1208 1.283 . S
O1198 Tb1163 2.421 . S
O1198 C1215 1.262 . S
O1199 Tb1152 2.320 . S
O1199 C1215 1.260 . S
O1200 Tb1152 2.552 . S
O1200 C1208 1.243 . S
O1201 Tb1152 2.413 . S
O1201 C1216 1.256 . S
O1202 Tb1163 2.546 . S
O1202 C1227 1.251 . S
O1203 Tb1152 2.362 . S
O1203 Tb1163 2.610 . S
O1203 C1219 1.283 . S
O1204 Tb1152 2.421 . S
O1204 C1226 1.262 . S
O1205 Tb1163 2.320 . S
O1205 C1226 1.260 . S
O1206 Tb1163 2.552 . S
O1206 C1219 1.243 . S
O1207 Tb1163 2.413 . S
O1207 C1227 1.256 . S
C1208 O1197 1.283 . S
C1208 O1200 1.243 . S
C1209 C1211 1.382 . S
C1209 C1213 1.393 . S
C1209 C1216 1.500 . S
C1210 C1211 1.400 . S
C1210 C1212 1.384 . S
C1211 C1209 1.382 . S
C1211 C1210 1.400 . S
C1211 H1228 0.930 . S
C1212 C1210 1.384 . S
C1212 C1214 1.392 . S
C1212 H1229 0.931 . S
C1213 C1209 1.393 . S
C1213 C1214 1.401 . S
C1213 H1230 0.930 . S
C1214 C1212 1.392 . S
C1214 C1213 1.401 . S
C1214 H1231 0.930 . S
C1215 O1198 1.262 . S
C1215 O1199 1.260 . S
C1216 Tb1152 2.833 . S
C1216 O1196 1.251 . S
C1216 O1201 1.256 . S
C1216 C1209 1.500 . S
C1217 H1182 0.929 . S
C1217 C1195 1.444 . S
C1217 C1218 1.317 . S
C1218 H1180 0.930 . S
C1218 C1186 1.432 . S
C1218 C1217 1.317 . S
C1219 O1203 1.283 . S
C1219 O1206 1.243 . S
C1220 C1221 1.382 . S
C1220 C1224 1.393 . S
C1220 C1227 1.500 . S
C1221 C1220 1.382 . S
C1221 C1222 1.400 . S
C1221 H1232 0.930 . S
C1222 C1221 1.400 . S
C1222 C1223 1.384 . S
C1223 C1222 1.384 . S
C1223 C1225 1.392 . S
C1223 H1233 0.931 . S
C1224 C1220 1.393 . S
C1224 C1225 1.401 . S
C1224 H1234 0.930 . S
C1225 C1223 1.392 . S
C1225 C1224 1.401 . S
C1225 H1235 0.930 . S
C1226 O1204 1.262 . S
C1226 O1205 1.260 . S
C1227 Tb1163 2.833 . S
C1227 O1202 1.251 . S
C1227 O1207 1.256 . S
C1227 C1220 1.500 . S
H1228 C1211 0.930 . S
H1229 C1212 0.931 . S
H1230 C1213 0.930 . S
H1231 C1214 0.930 . S
H1232 C1221 0.930 . S
H1233 C1223 0.931 . S
H1234 C1224 0.930 . S
H1235 C1225 0.930 . S
Tb1236 N1267 2.660 . S
Tb1236 N1274 2.600 . S
Tb1236 O1280 2.546 . S
Tb1236 O1281 2.610 . S
Tb1236 O1283 2.320 . S
Tb1236 O1284 2.552 . S
Tb1236 O1285 2.413 . S
Tb1236 O1287 2.362 . S
Tb1236 O1288 2.421 . S
Tb1236 C1300 2.833 . S
C1237 C1240 1.432 . S
C1237 C1241 1.414 . S
C1237 N1244 1.359 . S
C1238 C1240 1.417 . S
C1238 C1242 1.432 . S
C1238 C1250 1.410 . S
C1239 C1241 1.444 . S
C1239 C1242 1.317 . S
C1239 H1262 0.929 . S
C1240 C1237 1.432 . S
C1240 C1238 1.417 . S
C1240 N1248 1.360 . S
C1241 C1237 1.414 . S
C1241 C1239 1.444 . S
C1241 C1246 1.385 . S
C1242 C1238 1.432 . S
C1242 C1239 1.317 . S
C1242 H1254 0.930 . S
C1243 C1245 1.392 . S
C1243 C1246 1.370 . S
C1243 H1255 0.931 . S
N1244 C1237 1.359 . S
N1244 C1245 1.327 . S
N1244 Tb1247 2.600 . S
C1245 C1243 1.392 . S
C1245 N1244 1.327 . S
C1245 H1252 0.930 . S
C1246 C1241 1.385 . S
C1246 C1243 1.370 . S
C1246 H1265 0.930 . S
Tb1247 N1244 2.600 . S
Tb1247 N1248 2.660 . S
Tb1247 O1281 2.362 . S
Tb1247 O1282 2.421 . S
Tb1247 O1286 2.546 . S
Tb1247 O1287 2.610 . S
Tb1247 O1289 2.320 . S
Tb1247 O1290 2.552 . S
Tb1247 O1291 2.413 . S
Tb1247 C1311 2.833 . S
N1248 C1240 1.360 . S
N1248 Tb1247 2.660 . S
N1248 C1249 1.305 . S
C1249 N1248 1.305 . S
C1249 C1251 1.407 . S
C1249 H1256 0.930 . S
C1250 C1238 1.410 . S
C1250 C1251 1.345 . S
C1250 H1258 0.930 . S
C1251 C1249 1.407 . S
C1251 C1250 1.345 . S
C1251 H1253 0.930 . S
H1252 C1245 0.930 . S
H1253 C1251 0.930 . S
H1254 C1242 0.930 . S
H1255 C1243 0.931 . S
H1256 C1249 0.930 . S
H1257 C1271 0.930 . S
H1258 C1250 0.930 . S
H1259 C1277 0.930 . S
H1260 C1268 0.930 . S
H1261 C1275 0.931 . S
H1262 C1239 0.929 . S
H1263 C1269 0.930 . S
H1264 C1302 0.930 . S
H1265 C1246 0.930 . S
H1266 C1301 0.929 . S
N1267 Tb1236 2.660 . S
N1267 C1268 1.305 . S
N1267 C1272 1.360 . S
C1268 H1260 0.930 . S
C1268 N1267 1.305 . S
C1268 C1271 1.407 . S
C1269 H1263 0.930 . S
C1269 C1270 1.410 . S
C1269 C1271 1.345 . S
C1270 C1269 1.410 . S
C1270 C1272 1.417 . S
C1270 C1302 1.432 . S
C1271 H1257 0.930 . S
C1271 C1268 1.407 . S
C1271 C1269 1.345 . S
C1272 N1267 1.360 . S
C1272 C1270 1.417 . S
C1272 C1276 1.432 . S
H1273 C1278 0.930 . S
N1274 Tb1236 2.600 . S
N1274 C1276 1.359 . S
N1274 C1277 1.327 . S
C1275 H1261 0.931 . S
C1275 C1277 1.392 . S
C1275 C1278 1.370 . S
C1276 C1272 1.432 . S
C1276 N1274 1.359 . S
C1276 C1279 1.414 . S
C1277 H1259 0.930 . S
C1277 N1274 1.327 . S
C1277 C1275 1.392 . S
C1278 H1273 0.930 . S
C1278 C1275 1.370 . S
C1278 C1279 1.385 . S
C1279 C1276 1.414 . S
C1279 C1278 1.385 . S
C1279 C1301 1.444 . S
O1280 Tb1236 2.546 . S
O1280 C1300 1.251 . S
O1281 Tb1236 2.610 . S
O1281 Tb1247 2.362 . S
O1281 C1292 1.283 . S
O1282 Tb1247 2.421 . S
O1282 C1299 1.262 . S
O1283 Tb1236 2.320 . S
O1283 C1299 1.260 . S
O1284 Tb1236 2.552 . S
O1284 C1292 1.243 . S
O1285 Tb1236 2.413 . S
O1285 C1300 1.256 . S
O1286 Tb1247 2.546 . S
O1286 C1311 1.251 . S
O1287 Tb1236 2.362 . S
O1287 Tb1247 2.610 . S
O1287 C1303 1.283 . S
O1288 Tb1236 2.421 . S
O1288 C1310 1.262 . S
O1289 Tb1247 2.320 . S
O1289 C1310 1.260 . S
O1290 Tb1247 2.552 . S
O1290 C1303 1.243 . S
O1291 Tb1247 2.413 . S
O1291 C1311 1.256 . S
C1292 O1281 1.283 . S
C1292 O1284 1.243 . S
C1293 C1295 1.382 . S
C1293 C1297 1.393 . S
C1293 C1300 1.500 . S
C1294 C1295 1.400 . S
C1294 C1296 1.384 . S
C1295 C1293 1.382 . S
C1295 C1294 1.400 . S
C1295 H1312 0.930 . S
C1296 C1294 1.384 . S
C1296 C1298 1.392 . S
C1296 H1313 0.931 . S
C1297 C1293 1.393 . S
C1297 C1298 1.401 . S
C1297 H1314 0.930 . S
C1298 C1296 1.392 . S
C1298 C1297 1.401 . S
C1298 H1315 0.930 . S
C1299 O1282 1.262 . S
C1299 O1283 1.260 . S
C1300 Tb1236 2.833 . S
C1300 O1280 1.251 . S
C1300 O1285 1.256 . S
C1300 C1293 1.500 . S
C1301 H1266 0.929 . S
C1301 C1279 1.444 . S
C1301 C1302 1.317 . S
C1302 H1264 0.930 . S
C1302 C1270 1.432 . S
C1302 C1301 1.317 . S
C1303 O1287 1.283 . S
C1303 O1290 1.243 . S
C1304 C1305 1.382 . S
C1304 C1308 1.393 . S
C1304 C1311 1.500 . S
C1305 C1304 1.382 . S
C1305 C1306 1.400 . S
C1305 H1316 0.930 . S
C1306 C1305 1.400 . S
C1306 C1307 1.384 . S
C1307 C1306 1.384 . S
C1307 C1309 1.392 . S
C1307 H1317 0.931 . S
C1308 C1304 1.393 . S
C1308 C1309 1.401 . S
C1308 H1318 0.930 . S
C1309 C1307 1.392 . S
C1309 C1308 1.401 . S
C1309 H1319 0.930 . S
C1310 O1288 1.262 . S
C1310 O1289 1.260 . S
C1311 Tb1247 2.833 . S
C1311 O1286 1.251 . S
C1311 O1291 1.256 . S
C1311 C1304 1.500 . S
H1312 C1295 0.930 . S
H1313 C1296 0.931 . S
H1314 C1297 0.930 . S
H1315 C1298 0.930 . S
H1316 C1305 0.930 . S
H1317 C1307 0.931 . S
H1318 C1308 0.930 . S
H1319 C1309 0.930 . S
Tb1320 N1351 2.660 . S
Tb1320 N1358 2.600 . S
Tb1320 O1364 2.546 . S
Tb1320 O1365 2.610 . S
Tb1320 O1367 2.320 . S
Tb1320 O1368 2.552 . S
Tb1320 O1369 2.413 . S
Tb1320 O1371 2.362 . S
Tb1320 O1372 2.421 . S
Tb1320 C1384 2.833 . S
C1321 C1324 1.432 . S
C1321 C1325 1.414 . S
C1321 N1328 1.359 . S
C1322 C1324 1.417 . S
C1322 C1326 1.432 . S
C1322 C1334 1.410 . S
C1323 C1325 1.444 . S
C1323 C1326 1.317 . S
C1323 H1346 0.929 . S
C1324 C1321 1.432 . S
C1324 C1322 1.417 . S
C1324 N1332 1.360 . S
C1325 C1321 1.414 . S
C1325 C1323 1.444 . S
C1325 C1330 1.385 . S
C1326 C1322 1.432 . S
C1326 C1323 1.317 . S
C1326 H1338 0.930 . S
C1327 C1329 1.392 . S
C1327 C1330 1.370 . S
C1327 H1339 0.931 . S
N1328 C1321 1.359 . S
N1328 C1329 1.327 . S
N1328 Tb1331 2.600 . S
C1329 C1327 1.392 . S
C1329 N1328 1.327 . S
C1329 H1336 0.930 . S
C1330 C1325 1.385 . S
C1330 C1327 1.370 . S
C1330 H1349 0.930 . S
Tb1331 N1328 2.600 . S
Tb1331 N1332 2.660 . S
Tb1331 O1365 2.362 . S
Tb1331 O1366 2.421 . S
Tb1331 O1370 2.546 . S
Tb1331 O1371 2.610 . S
Tb1331 O1373 2.320 . S
Tb1331 O1374 2.552 . S
Tb1331 O1375 2.413 . S
Tb1331 C1395 2.833 . S
N1332 C1324 1.360 . S
N1332 Tb1331 2.660 . S
N1332 C1333 1.305 . S
C1333 N1332 1.305 . S
C1333 C1335 1.407 . S
C1333 H1340 0.930 . S
C1334 C1322 1.410 . S
C1334 C1335 1.345 . S
C1334 H1342 0.930 . S
C1335 C1333 1.407 . S
C1335 C1334 1.345 . S
C1335 H1337 0.930 . S
H1336 C1329 0.930 . S
H1337 C1335 0.930 . S
H1338 C1326 0.930 . S
H1339 C1327 0.931 . S
H1340 C1333 0.930 . S
H1341 C1355 0.930 . S
H1342 C1334 0.930 . S
H1343 C1361 0.930 . S
H1344 C1352 0.930 . S
H1345 C1359 0.931 . S
H1346 C1323 0.929 . S
H1347 C1353 0.930 . S
H1348 C1386 0.930 . S
H1349 C1330 0.930 . S
H1350 C1385 0.929 . S
N1351 Tb1320 2.660 . S
N1351 C1352 1.305 . S
N1351 C1356 1.360 . S
C1352 H1344 0.930 . S
C1352 N1351 1.305 . S
C1352 C1355 1.407 . S
C1353 H1347 0.930 . S
C1353 C1354 1.410 . S
C1353 C1355 1.345 . S
C1354 C1353 1.410 . S
C1354 C1356 1.417 . S
C1354 C1386 1.432 . S
C1355 H1341 0.930 . S
C1355 C1352 1.407 . S
C1355 C1353 1.345 . S
C1356 N1351 1.360 . S
C1356 C1354 1.417 . S
C1356 C1360 1.432 . S
H1357 C1362 0.930 . S
N1358 Tb1320 2.600 . S
N1358 C1360 1.359 . S
N1358 C1361 1.327 . S
C1359 H1345 0.931 . S
C1359 C1361 1.392 . S
C1359 C1362 1.370 . S
C1360 C1356 1.432 . S
C1360 N1358 1.359 . S
C1360 C1363 1.414 . S
C1361 H1343 0.930 . S
C1361 N1358 1.327 . S
C1361 C1359 1.392 . S
C1362 H1357 0.930 . S
C1362 C1359 1.370 . S
C1362 C1363 1.385 . S
C1363 C1360 1.414 . S
C1363 C1362 1.385 . S
C1363 C1385 1.444 . S
O1364 Tb1320 2.546 . S
O1364 C1384 1.251 . S
O1365 Tb1320 2.610 . S
O1365 Tb1331 2.362 . S
O1365 C1376 1.283 . S
O1366 Tb1331 2.421 . S
O1366 C1383 1.262 . S
O1367 Tb1320 2.320 . S
O1367 C1383 1.260 . S
O1368 Tb1320 2.552 . S
O1368 C1376 1.243 . S
O1369 Tb1320 2.413 . S
O1369 C1384 1.256 . S
O1370 Tb1331 2.546 . S
O1370 C1395 1.251 . S
O1371 Tb1320 2.362 . S
O1371 Tb1331 2.610 . S
O1371 C1387 1.283 . S
O1372 Tb1320 2.421 . S
O1372 C1394 1.262 . S
O1373 Tb1331 2.320 . S
O1373 C1394 1.260 . S
O1374 Tb1331 2.552 . S
O1374 C1387 1.243 . S
O1375 Tb1331 2.413 . S
O1375 C1395 1.256 . S
C1376 O1365 1.283 . S
C1376 O1368 1.243 . S
C1377 C1379 1.382 . S
C1377 C1381 1.393 . S
C1377 C1384 1.500 . S
C1378 C1379 1.400 . S
C1378 C1380 1.384 . S
C1379 C1377 1.382 . S
C1379 C1378 1.400 . S
C1379 H1396 0.930 . S
C1380 C1378 1.384 . S
C1380 C1382 1.392 . S
C1380 H1397 0.931 . S
C1381 C1377 1.393 . S
C1381 C1382 1.401 . S
C1381 H1398 0.930 . S
C1382 C1380 1.392 . S
C1382 C1381 1.401 . S
C1382 H1399 0.930 . S
C1383 O1366 1.262 . S
C1383 O1367 1.260 . S
C1384 Tb1320 2.833 . S
C1384 O1364 1.251 . S
C1384 O1369 1.256 . S
C1384 C1377 1.500 . S
C1385 H1350 0.929 . S
C1385 C1363 1.444 . S
C1385 C1386 1.317 . S
C1386 H1348 0.930 . S
C1386 C1354 1.432 . S
C1386 C1385 1.317 . S
C1387 O1371 1.283 . S
C1387 O1374 1.243 . S
C1388 C1389 1.382 . S
C1388 C1392 1.393 . S
C1388 C1395 1.500 . S
C1389 C1388 1.382 . S
C1389 C1390 1.400 . S
C1389 H1400 0.930 . S
C1390 C1389 1.400 . S
C1390 C1391 1.384 . S
C1391 C1390 1.384 . S
C1391 C1393 1.392 . S
C1391 H1401 0.931 . S
C1392 C1388 1.393 . S
C1392 C1393 1.401 . S
C1392 H1402 0.930 . S
C1393 C1391 1.392 . S
C1393 C1392 1.401 . S
C1393 H1403 0.930 . S
C1394 O1372 1.262 . S
C1394 O1373 1.260 . S
C1395 Tb1331 2.833 . S
C1395 O1370 1.251 . S
C1395 O1375 1.256 . S
C1395 C1388 1.500 . S
H1396 C1379 0.930 . S
H1397 C1380 0.931 . S
H1398 C1381 0.930 . S
H1399 C1382 0.930 . S
H1400 C1389 0.930 . S
H1401 C1391 0.931 . S
H1402 C1392 0.930 . S
H1403 C1393 0.930 . S
Tb1404 N1435 2.660 . S
Tb1404 N1442 2.600 . S
Tb1404 O1448 2.546 . S
Tb1404 O1449 2.610 . S
Tb1404 O1451 2.320 . S
Tb1404 O1452 2.552 . S
Tb1404 O1453 2.413 . S
Tb1404 O1455 2.362 . S
Tb1404 O1456 2.421 . S
Tb1404 C1468 2.833 . S
C1405 C1408 1.432 . S
C1405 C1409 1.414 . S
C1405 N1412 1.359 . S
C1406 C1408 1.417 . S
C1406 C1410 1.432 . S
C1406 C1418 1.410 . S
C1407 C1409 1.444 . S
C1407 C1410 1.317 . S
C1407 H1430 0.929 . S
C1408 C1405 1.432 . S
C1408 C1406 1.417 . S
C1408 N1416 1.360 . S
C1409 C1405 1.414 . S
C1409 C1407 1.444 . S
C1409 C1414 1.385 . S
C1410 C1406 1.432 . S
C1410 C1407 1.317 . S
C1410 H1422 0.930 . S
C1411 C1413 1.392 . S
C1411 C1414 1.370 . S
C1411 H1423 0.931 . S
N1412 C1405 1.359 . S
N1412 C1413 1.327 . S
N1412 Tb1415 2.600 . S
C1413 C1411 1.392 . S
C1413 N1412 1.327 . S
C1413 H1420 0.930 . S
C1414 C1409 1.385 . S
C1414 C1411 1.370 . S
C1414 H1433 0.930 . S
Tb1415 N1412 2.600 . S
Tb1415 N1416 2.660 . S
Tb1415 O1449 2.362 . S
Tb1415 O1450 2.421 . S
Tb1415 O1454 2.546 . S
Tb1415 O1455 2.610 . S
Tb1415 O1457 2.320 . S
Tb1415 O1458 2.552 . S
Tb1415 O1459 2.413 . S
Tb1415 C1479 2.833 . S
N1416 C1408 1.360 . S
N1416 Tb1415 2.660 . S
N1416 C1417 1.305 . S
C1417 N1416 1.305 . S
C1417 C1419 1.407 . S
C1417 H1424 0.930 . S
C1418 C1406 1.410 . S
C1418 C1419 1.345 . S
C1418 H1426 0.930 . S
C1419 C1417 1.407 . S
C1419 C1418 1.345 . S
C1419 H1421 0.930 . S
H1420 C1413 0.930 . S
H1421 C1419 0.930 . S
H1422 C1410 0.930 . S
H1423 C1411 0.931 . S
H1424 C1417 0.930 . S
H1425 C1439 0.930 . S
H1426 C1418 0.930 . S
H1427 C1445 0.930 . S
H1428 C1436 0.930 . S
H1429 C1443 0.931 . S
H1430 C1407 0.929 . S
H1431 C1437 0.930 . S
H1432 C1470 0.930 . S
H1433 C1414 0.930 . S
H1434 C1469 0.929 . S
N1435 Tb1404 2.660 . S
N1435 C1436 1.305 . S
N1435 C1440 1.360 . S
C1436 H1428 0.930 . S
C1436 N1435 1.305 . S
C1436 C1439 1.407 . S
C1437 H1431 0.930 . S
C1437 C1438 1.410 . S
C1437 C1439 1.345 . S
C1438 C1437 1.410 . S
C1438 C1440 1.417 . S
C1438 C1470 1.432 . S
C1439 H1425 0.930 . S
C1439 C1436 1.407 . S
C1439 C1437 1.345 . S
C1440 N1435 1.360 . S
C1440 C1438 1.417 . S
C1440 C1444 1.432 . S
H1441 C1446 0.930 . S
N1442 Tb1404 2.600 . S
N1442 C1444 1.359 . S
N1442 C1445 1.327 . S
C1443 H1429 0.931 . S
C1443 C1445 1.392 . S
C1443 C1446 1.370 . S
C1444 C1440 1.432 . S
C1444 N1442 1.359 . S
C1444 C1447 1.414 . S
C1445 H1427 0.930 . S
C1445 N1442 1.327 . S
C1445 C1443 1.392 . S
C1446 H1441 0.930 . S
C1446 C1443 1.370 . S
C1446 C1447 1.385 . S
C1447 C1444 1.414 . S
C1447 C1446 1.385 . S
C1447 C1469 1.444 . S
O1448 Tb1404 2.546 . S
O1448 C1468 1.251 . S
O1449 Tb1404 2.610 . S
O1449 Tb1415 2.362 . S
O1449 C1460 1.283 . S
O1450 Tb1415 2.421 . S
O1450 C1467 1.262 . S
O1451 Tb1404 2.320 . S
O1451 C1467 1.260 . S
O1452 Tb1404 2.552 . S
O1452 C1460 1.243 . S
O1453 Tb1404 2.413 . S
O1453 C1468 1.256 . S
O1454 Tb1415 2.546 . S
O1454 C1479 1.251 . S
O1455 Tb1404 2.362 . S
O1455 Tb1415 2.610 . S
O1455 C1471 1.283 . S
O1456 Tb1404 2.421 . S
O1456 C1478 1.262 . S
O1457 Tb1415 2.320 . S
O1457 C1478 1.260 . S
O1458 Tb1415 2.552 . S
O1458 C1471 1.243 . S
O1459 Tb1415 2.413 . S
O1459 C1479 1.256 . S
C1460 O1449 1.283 . S
C1460 O1452 1.243 . S
C1461 C1463 1.382 . S
C1461 C1465 1.393 . S
C1461 C1468 1.500 . S
C1462 C1463 1.400 . S
C1462 C1464 1.384 . S
C1463 C1461 1.382 . S
C1463 C1462 1.400 . S
C1463 H1480 0.930 . S
C1464 C1462 1.384 . S
C1464 C1466 1.392 . S
C1464 H1481 0.931 . S
C1465 C1461 1.393 . S
C1465 C1466 1.401 . S
C1465 H1482 0.930 . S
C1466 C1464 1.392 . S
C1466 C1465 1.401 . S
C1466 H1483 0.930 . S
C1467 O1450 1.262 . S
C1467 O1451 1.260 . S
C1468 Tb1404 2.833 . S
C1468 O1448 1.251 . S
C1468 O1453 1.256 . S
C1468 C1461 1.500 . S
C1469 H1434 0.929 . S
C1469 C1447 1.444 . S
C1469 C1470 1.317 . S
C1470 H1432 0.930 . S
C1470 C1438 1.432 . S
C1470 C1469 1.317 . S
C1471 O1455 1.283 . S
C1471 O1458 1.243 . S
C1472 C1473 1.382 . S
C1472 C1476 1.393 . S
C1472 C1479 1.500 . S
C1473 C1472 1.382 . S
C1473 C1474 1.400 . S
C1473 H1484 0.930 . S
C1474 C1473 1.400 . S
C1474 C1475 1.384 . S
C1475 C1474 1.384 . S
C1475 C1477 1.392 . S
C1475 H1485 0.931 . S
C1476 C1472 1.393 . S
C1476 C1477 1.401 . S
C1476 H1486 0.930 . S
C1477 C1475 1.392 . S
C1477 C1476 1.401 . S
C1477 H1487 0.930 . S
C1478 O1456 1.262 . S
C1478 O1457 1.260 . S
C1479 Tb1415 2.833 . S
C1479 O1454 1.251 . S
C1479 O1459 1.256 . S
C1479 C1472 1.500 . S
H1480 C1463 0.930 . S
H1481 C1464 0.931 . S
H1482 C1465 0.930 . S
H1483 C1466 0.930 . S
H1484 C1473 0.930 . S
H1485 C1475 0.931 . S
H1486 C1476 0.930 . S
H1487 C1477 0.930 . S
Tb1488 N1519 2.660 . S
Tb1488 N1526 2.600 . S
Tb1488 O1532 2.546 . S
Tb1488 O1533 2.610 . S
Tb1488 O1535 2.320 . S
Tb1488 O1536 2.552 . S
Tb1488 O1537 2.413 . S
Tb1488 O1539 2.362 . S
Tb1488 O1540 2.421 . S
Tb1488 C1552 2.833 . S
C1489 C1492 1.432 . S
C1489 C1493 1.414 . S
C1489 N1496 1.359 . S
C1490 C1492 1.417 . S
C1490 C1494 1.432 . S
C1490 C1502 1.410 . S
C1491 C1493 1.444 . S
C1491 C1494 1.317 . S
C1491 H1514 0.929 . S
C1492 C1489 1.432 . S
C1492 C1490 1.417 . S
C1492 N1500 1.360 . S
C1493 C1489 1.414 . S
C1493 C1491 1.444 . S
C1493 C1498 1.385 . S
C1494 C1490 1.432 . S
C1494 C1491 1.317 . S
C1494 H1506 0.930 . S
C1495 C1497 1.392 . S
C1495 C1498 1.370 . S
C1495 H1507 0.931 . S
N1496 C1489 1.359 . S
N1496 C1497 1.327 . S
N1496 Tb1499 2.600 . S
C1497 C1495 1.392 . S
C1497 N1496 1.327 . S
C1497 H1504 0.930 . S
C1498 C1493 1.385 . S
C1498 C1495 1.370 . S
C1498 H1517 0.930 . S
Tb1499 N1496 2.600 . S
Tb1499 N1500 2.660 . S
Tb1499 O1533 2.362 . S
Tb1499 O1534 2.421 . S
Tb1499 O1538 2.546 . S
Tb1499 O1539 2.610 . S
Tb1499 O1541 2.320 . S
Tb1499 O1542 2.552 . S
Tb1499 O1543 2.413 . S
Tb1499 C1563 2.833 . S
N1500 C1492 1.360 . S
N1500 Tb1499 2.660 . S
N1500 C1501 1.305 . S
C1501 N1500 1.305 . S
C1501 C1503 1.407 . S
C1501 H1508 0.930 . S
C1502 C1490 1.410 . S
C1502 C1503 1.345 . S
C1502 H1510 0.930 . S
C1503 C1501 1.407 . S
C1503 C1502 1.345 . S
C1503 H1505 0.930 . S
H1504 C1497 0.930 . S
H1505 C1503 0.930 . S
H1506 C1494 0.930 . S
H1507 C1495 0.931 . S
H1508 C1501 0.930 . S
H1509 C1523 0.930 . S
H1510 C1502 0.930 . S
H1511 C1529 0.930 . S
H1512 C1520 0.930 . S
H1513 C1527 0.931 . S
H1514 C1491 0.929 . S
H1515 C1521 0.930 . S
H1516 C1554 0.930 . S
H1517 C1498 0.930 . S
H1518 C1553 0.929 . S
N1519 Tb1488 2.660 . S
N1519 C1520 1.305 . S
N1519 C1524 1.360 . S
C1520 H1512 0.930 . S
C1520 N1519 1.305 . S
C1520 C1523 1.407 . S
C1521 H1515 0.930 . S
C1521 C1522 1.410 . S
C1521 C1523 1.345 . S
C1522 C1521 1.410 . S
C1522 C1524 1.417 . S
C1522 C1554 1.432 . S
C1523 H1509 0.930 . S
C1523 C1520 1.407 . S
C1523 C1521 1.345 . S
C1524 N1519 1.360 . S
C1524 C1522 1.417 . S
C1524 C1528 1.432 . S
H1525 C1530 0.930 . S
N1526 Tb1488 2.600 . S
N1526 C1528 1.359 . S
N1526 C1529 1.327 . S
C1527 H1513 0.931 . S
C1527 C1529 1.392 . S
C1527 C1530 1.370 . S
C1528 C1524 1.432 . S
C1528 N1526 1.359 . S
C1528 C1531 1.414 . S
C1529 H1511 0.930 . S
C1529 N1526 1.327 . S
C1529 C1527 1.392 . S
C1530 H1525 0.930 . S
C1530 C1527 1.370 . S
C1530 C1531 1.385 . S
C1531 C1528 1.414 . S
C1531 C1530 1.385 . S
C1531 C1553 1.444 . S
O1532 Tb1488 2.546 . S
O1532 C1552 1.251 . S
O1533 Tb1488 2.610 . S
O1533 Tb1499 2.362 . S
O1533 C1544 1.283 . S
O1534 Tb1499 2.421 . S
O1534 C1551 1.262 . S
O1535 Tb1488 2.320 . S
O1535 C1551 1.260 . S
O1536 Tb1488 2.552 . S
O1536 C1544 1.243 . S
O1537 Tb1488 2.413 . S
O1537 C1552 1.256 . S
O1538 Tb1499 2.546 . S
O1538 C1563 1.251 . S
O1539 Tb1488 2.362 . S
O1539 Tb1499 2.610 . S
O1539 C1555 1.283 . S
O1540 Tb1488 2.421 . S
O1540 C1562 1.262 . S
O1541 Tb1499 2.320 . S
O1541 C1562 1.260 . S
O1542 Tb1499 2.552 . S
O1542 C1555 1.243 . S
O1543 Tb1499 2.413 . S
O1543 C1563 1.256 . S
C1544 O1533 1.283 . S
C1544 O1536 1.243 . S
C1545 C1547 1.382 . S
C1545 C1549 1.393 . S
C1545 C1552 1.500 . S
C1546 C1547 1.400 . S
C1546 C1548 1.384 . S
C1547 C1545 1.382 . S
C1547 C1546 1.400 . S
C1547 H1564 0.930 . S
C1548 C1546 1.384 . S
C1548 C1550 1.392 . S
C1548 H1565 0.931 . S
C1549 C1545 1.393 . S
C1549 C1550 1.401 . S
C1549 H1566 0.930 . S
C1550 C1548 1.392 . S
C1550 C1549 1.401 . S
C1550 H1567 0.930 . S
C1551 O1534 1.262 . S
C1551 O1535 1.260 . S
C1552 Tb1488 2.833 . S
C1552 O1532 1.251 . S
C1552 O1537 1.256 . S
C1552 C1545 1.500 . S
C1553 H1518 0.929 . S
C1553 C1531 1.444 . S
C1553 C1554 1.317 . S
C1554 H1516 0.930 . S
C1554 C1522 1.432 . S
C1554 C1553 1.317 . S
C1555 O1539 1.283 . S
C1555 O1542 1.243 . S
C1556 C1557 1.382 . S
C1556 C1560 1.393 . S
C1556 C1563 1.500 . S
C1557 C1556 1.382 . S
C1557 C1558 1.400 . S
C1557 H1568 0.930 . S
C1558 C1557 1.400 . S
C1558 C1559 1.384 . S
C1559 C1558 1.384 . S
C1559 C1561 1.392 . S
C1559 H1569 0.931 . S
C1560 C1556 1.393 . S
C1560 C1561 1.401 . S
C1560 H1570 0.930 . S
C1561 C1559 1.392 . S
C1561 C1560 1.401 . S
C1561 H1571 0.930 . S
C1562 O1540 1.262 . S
C1562 O1541 1.260 . S
C1563 Tb1499 2.833 . S
C1563 O1538 1.251 . S
C1563 O1543 1.256 . S
C1563 C1556 1.500 . S
H1564 C1547 0.930 . S
H1565 C1548 0.931 . S
H1566 C1549 0.930 . S
H1567 C1550 0.930 . S
H1568 C1557 0.930 . S
H1569 C1559 0.931 . S
H1570 C1560 0.930 . S
H1571 C1561 0.930 . S
Tb1572 N1603 2.652 1_556 S
Tb1572 N1610 2.634 . S
Tb1572 O1616 2.573 . S
Tb1572 O1617 2.589 1_556 S
Tb1572 O1619 2.277 1_556 S
Tb1572 O1620 2.547 . S
Tb1572 O1621 2.407 1_556 S
Tb1572 O1623 2.350 1_556 S
Tb1572 O1624 2.449 . S
Tb1572 C1636 2.844 . S
C1573 C1576 1.435 . S
C1573 C1577 1.425 . S
C1573 N1580 1.345 1_655 S
C1574 C1576 1.417 . S
C1574 C1578 1.432 . S
C1574 C1586 1.410 1_554 S
C1575 C1577 1.444 . S
C1575 C1578 1.317 . S
C1575 H1598 0.929 . S
C1576 C1573 1.435 . S
C1576 C1574 1.417 . S
C1576 N1584 1.360 1_655 S
C1577 C1573 1.425 . S
C1577 C1575 1.444 . S
C1577 C1582 1.385 . S
C1578 C1574 1.432 . S
C1578 C1575 1.317 . S
C1578 H1590 0.930 . S
C1579 C1581 1.392 . S
C1579 C1582 1.370 1_455 S
C1579 H1591 0.931 . S
N1580 C1573 1.345 1_455 S
N1580 C1581 1.327 . S
N1580 Tb1583 2.600 . S
C1581 C1579 1.392 . S
C1581 N1580 1.327 . S
C1581 H1588 0.930 . S
C1582 C1577 1.385 . S
C1582 C1579 1.370 1_655 S
C1582 H1601 0.930 . S
Tb1583 N1580 2.600 . S
Tb1583 N1584 2.660 . S
Tb1583 O1617 2.362 . S
Tb1583 O1618 2.421 . S
Tb1583 O1622 2.546 . S
Tb1583 O1623 2.610 . S
Tb1583 O1625 2.320 1_554 S
Tb1583 O1626 2.552 . S
Tb1583 O1627 2.413 1_455 S
Tb1583 C1647 2.833 1_455 S
N1584 C1576 1.360 1_455 S
N1584 Tb1583 2.660 . S
N1584 C1585 1.305 1_454 S
C1585 N1584 1.305 1_656 S
C1585 C1587 1.407 . S
C1585 H1592 0.930 1_655 S
C1586 C1574 1.410 1_556 S
C1586 C1587 1.345 . S
C1586 H1594 0.930 . S
C1587 C1585 1.407 . S
C1587 C1586 1.345 . S
C1587 H1589 0.930 . S
H1588 C1581 0.930 . S
H1589 C1587 0.930 . S
H1590 C1578 0.930 . S
H1591 C1579 0.931 . S
H1592 C1585 0.930 1_455 S
H1593 C1607 0.930 . S
H1594 C1586 0.930 . S
H1595 C1613 0.930 . S
H1596 C1604 0.930 . S
H1597 C1611 0.931 . S
H1598 C1575 0.929 . S
H1599 C1605 0.930 . S
H1600 C1638 0.930 1_554 S
H1601 C1582 0.930 . S
H1602 C1637 0.929 . S
N1603 Tb1572 2.652 1_554 S
N1603 C1604 1.305 . S
N1603 C1608 1.360 . S
C1604 H1596 0.930 . S
C1604 N1603 1.305 . S
C1604 C1607 1.407 . S
C1605 H1599 0.930 . S
C1605 C1606 1.410 . S
C1605 C1607 1.345 . S
C1606 C1605 1.410 . S
C1606 C1608 1.417 . S
C1606 C1638 1.432 1_554 S
C1607 H1593 0.930 . S
C1607 C1604 1.407 . S
C1607 C1605 1.345 . S
C1608 N1603 1.360 . S
C1608 C1606 1.417 . S
C1608 C1612 1.432 1_554 S
H1609 C1614 0.930 . S
N1610 Tb1572 2.634 . S
N1610 C1612 1.359 . S
N1610 C1613 1.327 . S
C1611 H1597 0.931 . S
C1611 C1613 1.392 . S
C1611 C1614 1.370 . S
C1612 C1608 1.432 1_556 S
C1612 N1610 1.359 . S
C1612 C1615 1.414 . S
C1613 H1595 0.930 . S
C1613 N1610 1.327 . S
C1613 C1611 1.392 . S
C1614 H1609 0.930 . S
C1614 C1611 1.370 . S
C1614 C1615 1.385 . S
C1615 C1612 1.414 . S
C1615 C1614 1.385 . S
C1615 C1637 1.444 . S
O1616 Tb1572 2.573 . S
O1616 C1636 1.251 . S
O1617 Tb1572 2.589 1_554 S
O1617 Tb1583 2.362 . S
O1617 C1628 1.283 . S
O1618 Tb1583 2.421 . S
O1618 C1635 1.262 . S
O1619 Tb1572 2.277 1_554 S
O1619 C1635 1.260 . S
O1620 Tb1572 2.547 . S
O1620 C1628 1.243 1_556 S
O1621 Tb1572 2.407 1_554 S
O1621 C1636 1.256 1_554 S
O1622 Tb1583 2.546 . S
O1622 C1647 1.251 1_455 S
O1623 Tb1572 2.350 1_554 S
O1623 Tb1583 2.610 . S
O1623 C1639 1.283 . S
O1624 Tb1572 2.449 . S
O1624 C1646 1.262 . S
O1625 Tb1583 2.320 1_556 S
O1625 C1646 1.260 . S
O1626 Tb1583 2.552 . S
O1626 C1639 1.243 . S
O1627 Tb1583 2.413 1_655 S
O1627 C1647 1.256 . S
C1628 O1617 1.283 . S
C1628 O1620 1.243 1_554 S
C1629 C1631 1.382 . S
C1629 C1633 1.393 . S
C1629 C1636 1.500 . S
C1630 C1631 1.400 . S
C1630 C1632 1.384 . S
C1631 C1629 1.382 . S
C1631 C1630 1.400 . S
C1631 H1648 0.930 1_556 S
C1632 C1630 1.384 . S
C1632 C1634 1.392 . S
C1632 H1649 0.931 . S
C1633 C1629 1.393 . S
C1633 C1634 1.401 . S
C1633 H1650 0.930 . S
C1634 C1632 1.392 . S
C1634 C1633 1.401 . S
C1634 H1651 0.930 . S
C1635 O1618 1.262 . S
C1635 O1619 1.260 . S
C1636 Tb1572 2.844 . S
C1636 O1616 1.251 . S
C1636 O1621 1.256 1_556 S
C1636 C1629 1.500 . S
C1637 H1602 0.929 . S
C1637 C1615 1.444 . S
C1637 C1638 1.317 . S
C1638 H1600 0.930 1_556 S
C1638 C1606 1.432 1_556 S
C1638 C1637 1.317 . S
C1639 O1623 1.283 . S
C1639 O1626 1.243 . S
C1640 C1641 1.382 . S
C1640 C1644 1.393 . S
C1640 C1647 1.500 . S
C1641 C1640 1.382 . S
C1641 C1642 1.400 . S
C1641 H1652 0.930 . S
C1642 C1641 1.400 . S
C1642 C1643 1.384 . S
C1643 C1642 1.384 . S
C1643 C1645 1.392 . S
C1643 H1653 0.931 . S
C1644 C1640 1.393 . S
C1644 C1645 1.401 . S
C1644 H1654 0.930 . S
C1645 C1643 1.392 . S
C1645 C1644 1.401 . S
C1645 H1655 0.930 . S
C1646 O1624 1.262 . S
C1646 O1625 1.260 . S
C1647 Tb1583 2.833 1_655 S
C1647 O1622 1.251 1_655 S
C1647 O1627 1.256 . S
C1647 C1640 1.500 . S
H1648 C1631 0.930 1_554 S
H1649 C1632 0.931 . S
H1650 C1633 0.930 . S
H1651 C1634 0.930 . S
H1652 C1641 0.930 . S
H1653 C1643 0.931 . S
H1654 C1644 0.930 . S
H1655 C1645 0.930 . S
H1656 C1668 0.930 . S
H1657 C1670 0.930 . S
H1658 C1671 0.930 . S
H1659 C1675 0.959 . S
H1660 C1675 0.959 1_554 S
H1661 C1675 0.961 . S
H1662 C1676 0.960 . S
H1663 C1676 0.961 . S
H1664 C1676 0.959 . S
H1665 C1679 0.929 1_655 S
H1666 C1680 0.931 . S
H1667 C1682 0.930 . S
C1668 H1656 0.930 . S
C1668 C1669 1.399 . S
C1668 C1673 1.399 . S
C1669 C1668 1.399 . S
C1669 C1670 1.376 1_455 S
C1670 H1657 0.930 . S
C1670 C1669 1.376 1_655 S
C1670 C1671 1.388 . S
C1671 H1658 0.930 . S
C1671 C1670 1.388 . S
C1671 C1672 1.390 1_655 S
C1672 C1671 1.390 1_455 S
C1672 C1673 1.394 . S
C1672 C1678 1.465 . S
C1673 C1668 1.399 . S
C1673 C1672 1.394 . S
C1673 C1674 1.516 1_556 S
C1674 C1673 1.516 1_554 S
C1674 C1675 1.502 1_554 S
C1674 C1676 1.561 . S
C1674 C1677 1.526 . S
C1675 H1659 0.959 . S
C1675 H1660 0.959 1_556 S
C1675 H1661 0.961 . S
C1675 C1674 1.502 1_556 S
C1676 H1662 0.960 . S
C1676 H1663 0.961 . S
C1676 H1664 0.959 . S
C1676 C1674 1.561 . S
C1677 C1674 1.526 . S
C1677 C1678 1.396 1_554 S
C1677 C1682 1.390 . S
C1678 C1672 1.465 . S
C1678 C1677 1.396 1_556 S
C1678 C1679 1.399 . S
C1679 H1665 0.929 1_455 S
C1679 C1678 1.399 . S
C1679 C1680 1.385 . S
C1680 H1666 0.931 . S
C1680 C1679 1.385 . S
C1680 C1681 1.389 1_556 S
C1681 C1680 1.389 1_554 S
C1681 C1682 1.387 . S
C1682 H1667 0.930 . S
C1682 C1677 1.390 . S
C1682 C1681 1.387 . S
H1683 C1695 0.930 . S
H1684 C1697 0.930 . S
H1685 C1698 0.930 . S
H1686 C1702 0.959 . S
H1687 C1702 0.959 . S
H1688 C1702 0.961 . S
H1689 C1703 0.960 . S
H1690 C1703 0.961 . S
H1691 C1703 0.959 . S
H1692 C1706 0.929 . S
H1693 C1707 0.931 . S
H1694 C1709 0.930 . S
C1695 H1683 0.930 . S
C1695 C1696 1.399 . S
C1695 C1700 1.399 . S
C1696 C1695 1.399 . S
C1696 C1697 1.376 . S
C1697 H1684 0.930 . S
C1697 C1696 1.376 . S
C1697 C1698 1.388 . S
C1698 H1685 0.930 . S
C1698 C1697 1.388 . S
C1698 C1699 1.390 . S
C1699 C1698 1.390 . S
C1699 C1700 1.394 . S
C1699 C1705 1.465 . S
C1700 C1695 1.399 . S
C1700 C1699 1.394 . S
C1700 C1701 1.516 . S
C1701 C1700 1.516 . S
C1701 C1702 1.502 . S
C1701 C1703 1.561 . S
C1701 C1704 1.526 . S
C1702 H1686 0.959 . S
C1702 H1687 0.959 . S
C1702 H1688 0.961 . S
C1702 C1701 1.502 . S
C1703 H1689 0.960 . S
C1703 H1690 0.961 . S
C1703 H1691 0.959 . S
C1703 C1701 1.561 . S
C1704 C1701 1.526 . S
C1704 C1705 1.396 . S
C1704 C1709 1.390 . S
C1705 C1699 1.465 . S
C1705 C1704 1.396 . S
C1705 C1706 1.399 . S
C1706 H1692 0.929 . S
C1706 C1705 1.399 . S
C1706 C1707 1.385 . S
C1707 H1693 0.931 . S
C1707 C1706 1.385 . S
C1707 C1708 1.389 . S
C1708 C1707 1.389 . S
C1708 C1709 1.387 . S
C1709 H1694 0.930 . S
C1709 C1704 1.390 . S
C1709 C1708 1.387 . S
H1710 C1722 0.930 . S
H1711 C1724 0.930 . S
H1712 C1725 0.930 . S
H1713 C1729 0.959 . S
H1714 C1729 0.959 . S
H1715 C1729 0.961 . S
H1716 C1730 0.960 . S
H1717 C1730 0.961 . S
H1718 C1730 0.959 . S
H1719 C1733 0.929 . S
H1720 C1734 0.931 . S
H1721 C1736 0.930 . S
C1722 H1710 0.930 . S
C1722 C1723 1.399 . S
C1722 C1727 1.399 . S
C1723 C1722 1.399 . S
C1723 C1724 1.376 . S
C1724 H1711 0.930 . S
C1724 C1723 1.376 . S
C1724 C1725 1.388 . S
C1725 H1712 0.930 . S
C1725 C1724 1.388 . S
C1725 C1726 1.390 . S
C1726 C1725 1.390 . S
C1726 C1727 1.394 . S
C1726 C1732 1.465 . S
C1727 C1722 1.399 . S
C1727 C1726 1.394 . S
C1727 C1728 1.516 . S
C1728 C1727 1.516 . S
C1728 C1729 1.502 . S
C1728 C1730 1.561 . S
C1728 C1731 1.526 . S
C1729 H1713 0.959 . S
C1729 H1714 0.959 . S
C1729 H1715 0.961 . S
C1729 C1728 1.502 . S
C1730 H1716 0.960 . S
C1730 H1717 0.961 . S
C1730 H1718 0.959 . S
C1730 C1728 1.561 . S
C1731 C1728 1.526 . S
C1731 C1732 1.396 . S
C1731 C1736 1.390 . S
C1732 C1726 1.465 . S
C1732 C1731 1.396 . S
C1732 C1733 1.399 . S
C1733 H1719 0.929 . S
C1733 C1732 1.399 . S
C1733 C1734 1.385 . S
C1734 H1720 0.931 . S
C1734 C1733 1.385 . S
C1734 C1735 1.389 . S
C1735 C1734 1.389 . S
C1735 C1736 1.387 . S
C1736 H1721 0.930 . S
C1736 C1731 1.390 . S
C1736 C1735 1.387 . S
H1737 C1749 0.930 . S
H1738 C1751 0.930 . S
H1739 C1752 0.930 . S
H1740 C1756 0.959 . S
H1741 C1756 0.959 . S
H1742 C1756 0.961 . S
H1743 C1757 0.960 . S
H1744 C1757 0.961 . S
H1745 C1757 0.959 . S
H1746 C1760 0.929 . S
H1747 C1761 0.931 . S
H1748 C1763 0.930 . S
C1749 H1737 0.930 . S
C1749 C1750 1.399 . S
C1749 C1754 1.399 . S
C1750 C1749 1.399 . S
C1750 C1751 1.376 . S
C1751 H1738 0.930 . S
C1751 C1750 1.376 . S
C1751 C1752 1.388 . S
C1752 H1739 0.930 . S
C1752 C1751 1.388 . S
C1752 C1753 1.390 . S
C1753 C1752 1.390 . S
C1753 C1754 1.394 . S
C1753 C1759 1.465 . S
C1754 C1749 1.399 . S
C1754 C1753 1.394 . S
C1754 C1755 1.516 . S
C1755 C1754 1.516 . S
C1755 C1756 1.502 . S
C1755 C1757 1.561 . S
C1755 C1758 1.526 . S
C1756 H1740 0.959 . S
C1756 H1741 0.959 . S
C1756 H1742 0.961 . S
C1756 C1755 1.502 . S
C1757 H1743 0.960 . S
C1757 H1744 0.961 . S
C1757 H1745 0.959 . S
C1757 C1755 1.561 . S
C1758 C1755 1.526 . S
C1758 C1759 1.396 . S
C1758 C1763 1.390 . S
C1759 C1753 1.465 . S
C1759 C1758 1.396 . S
C1759 C1760 1.399 . S
C1760 H1746 0.929 . S
C1760 C1759 1.399 . S
C1760 C1761 1.385 . S
C1761 H1747 0.931 . S
C1761 C1760 1.385 . S
C1761 C1762 1.389 . S
C1762 C1761 1.389 . S
C1762 C1763 1.387 . S
C1763 H1748 0.930 . S
C1763 C1758 1.390 . S
C1763 C1762 1.387 . S
H1764 C1776 0.930 . S
H1765 C1778 0.930 . S
H1766 C1779 0.930 . S
H1767 C1783 0.959 . S
H1768 C1783 0.959 . S
H1769 C1783 0.961 . S
H1770 C1784 0.958 1_655 S
H1771 C1784 0.967 . S
H1772 C1784 0.934 1_655 S
H1773 C1787 0.929 . S
H1774 C1788 0.931 . S
H1775 C1790 0.930 . S
C1776 H1764 0.930 . S
C1776 C1777 1.399 . S
C1776 C1781 1.399 . S
C1777 C1776 1.399 . S
C1777 C1778 1.376 . S
C1778 H1765 0.930 . S
C1778 C1777 1.376 . S
C1778 C1779 1.388 . S
C1779 H1766 0.930 . S
C1779 C1778 1.388 . S
C1779 C1780 1.390 . S
C1780 C1779 1.390 . S
C1780 C1781 1.394 . S
C1780 C1786 1.465 . S
C1781 C1776 1.399 . S
C1781 C1780 1.394 . S
C1781 C1782 1.516 . S
C1782 C1781 1.516 . S
C1782 C1783 1.502 . S
C1782 C1784 1.582 . S
C1782 C1785 1.526 . S
C1783 H1767 0.959 . S
C1783 H1768 0.959 . S
C1783 H1769 0.961 . S
C1783 C1782 1.502 . S
C1784 H1770 0.958 1_455 S
C1784 H1771 0.967 . S
C1784 H1772 0.934 1_455 S
C1784 C1782 1.582 . S
C1785 C1782 1.526 . S
C1785 C1786 1.396 . S
C1785 C1790 1.390 . S
C1786 C1780 1.465 . S
C1786 C1785 1.396 . S
C1786 C1787 1.399 . S
C1787 H1773 0.929 . S
C1787 C1786 1.399 . S
C1787 C1788 1.385 . S
C1788 H1774 0.931 . S
C1788 C1787 1.385 . S
C1788 C1789 1.389 . S
C1789 C1788 1.389 . S
C1789 C1790 1.387 . S
C1790 H1775 0.930 . S
C1790 C1785 1.390 . S
C1790 C1789 1.387 . S
H1791 C1803 0.930 . S
H1792 C1805 0.930 . S
H1793 C1806 0.930 . S
H1794 C1810 0.959 . S
H1795 C1810 0.959 . S
H1796 C1810 0.961 . S
H1797 C1811 0.960 . S
H1798 C1811 0.961 . S
H1799 C1811 0.959 . S
H1800 C1814 0.929 . S
H1801 C1815 0.931 . S
H1802 C1817 0.930 . S
C1803 H1791 0.930 . S
C1803 C1804 1.399 . S
C1803 C1808 1.399 . S
C1804 C1803 1.399 . S
C1804 C1805 1.376 . S
C1805 H1792 0.930 . S
C1805 C1804 1.376 . S
C1805 C1806 1.388 . S
C1806 H1793 0.930 . S
C1806 C1805 1.388 . S
C1806 C1807 1.390 . S
C1807 C1806 1.390 . S
C1807 C1808 1.394 . S
C1807 C1813 1.465 . S
C1808 C1803 1.399 . S
C1808 C1807 1.394 . S
C1808 C1809 1.516 . S
C1809 C1808 1.516 . S
C1809 C1810 1.502 . S
C1809 C1811 1.561 . S
C1809 C1812 1.526 . S
C1810 H1794 0.959 . S
C1810 H1795 0.959 . S
C1810 H1796 0.961 . S
C1810 C1809 1.502 . S
C1811 H1797 0.960 . S
C1811 H1798 0.961 . S
C1811 H1799 0.959 . S
C1811 C1809 1.561 . S
C1812 C1809 1.526 . S
C1812 C1813 1.396 . S
C1812 C1817 1.390 . S
C1813 C1807 1.465 . S
C1813 C1812 1.396 . S
C1813 C1814 1.399 . S
C1814 H1800 0.929 . S
C1814 C1813 1.399 . S
C1814 C1815 1.385 . S
C1815 H1801 0.931 . S
C1815 C1814 1.385 . S
C1815 C1816 1.389 . S
C1816 C1815 1.389 . S
C1816 C1817 1.387 . S
C1817 H1802 0.930 . S
C1817 C1812 1.390 . S
C1817 C1816 1.387 . S
H1818 C1830 0.930 . S
H1819 C1832 0.930 . S
H1820 C1833 0.930 . S
H1821 C1837 0.959 . S
H1822 C1837 0.959 . S
H1823 C1837 0.961 . S
H1824 C1838 0.960 . S
H1825 C1838 0.961 . S
H1826 C1838 0.959 . S
H1827 C1841 0.929 . S
H1828 C1842 0.931 . S
H1829 C1844 0.930 . S
C1830 H1818 0.930 . S
C1830 C1831 1.399 . S
C1830 C1835 1.399 . S
C1831 C1830 1.399 . S
C1831 C1832 1.376 . S
C1832 H1819 0.930 . S
C1832 C1831 1.376 . S
C1832 C1833 1.388 . S
C1833 H1820 0.930 . S
C1833 C1832 1.388 . S
C1833 C1834 1.390 . S
C1834 C1833 1.390 . S
C1834 C1835 1.394 . S
C1834 C1840 1.465 . S
C1835 C1830 1.399 . S
C1835 C1834 1.394 . S
C1835 C1836 1.516 . S
C1836 C1835 1.516 . S
C1836 C1837 1.502 . S
C1836 C1838 1.561 . S
C1836 C1839 1.526 . S
C1837 H1821 0.959 . S
C1837 H1822 0.959 . S
C1837 H1823 0.961 . S
C1837 C1836 1.502 . S
C1838 H1824 0.960 . S
C1838 H1825 0.961 . S
C1838 H1826 0.959 . S
C1838 C1836 1.561 . S
C1839 C1836 1.526 . S
C1839 C1840 1.396 . S
C1839 C1844 1.390 . S
C1840 C1834 1.465 . S
C1840 C1839 1.396 . S
C1840 C1841 1.399 . S
C1841 H1827 0.929 . S
C1841 C1840 1.399 . S
C1841 C1842 1.385 . S
C1842 H1828 0.931 . S
C1842 C1841 1.385 . S
C1842 C1843 1.389 . S
C1843 C1842 1.389 . S
C1843 C1844 1.387 . S
C1844 H1829 0.930 . S
C1844 C1839 1.390 . S
C1844 C1843 1.387 . S
H1845 C1857 0.930 . S
H1846 C1859 0.930 . S
H1847 C1860 0.930 . S
H1848 C1864 0.959 . S
H1849 C1864 0.959 . S
H1850 C1864 0.961 . S
H1851 C1865 0.960 . S
H1852 C1865 0.961 . S
H1853 C1865 0.959 . S
H1854 C1868 0.929 . S
H1855 C1869 0.931 . S
H1856 C1871 0.930 . S
C1857 H1845 0.930 . S
C1857 C1858 1.399 . S
C1857 C1862 1.399 . S
C1858 C1857 1.399 . S
C1858 C1859 1.376 . S
C1859 H1846 0.930 . S
C1859 C1858 1.376 . S
C1859 C1860 1.388 . S
C1860 H1847 0.930 . S
C1860 C1859 1.388 . S
C1860 C1861 1.390 . S
C1861 C1860 1.390 . S
C1861 C1862 1.394 . S
C1861 C1867 1.465 . S
C1862 C1857 1.399 . S
C1862 C1861 1.394 . S
C1862 C1863 1.516 . S
C1863 C1862 1.516 . S
C1863 C1864 1.502 . S
C1863 C1865 1.561 . S
C1863 C1866 1.526 . S
C1864 H1848 0.959 . S
C1864 H1849 0.959 . S
C1864 H1850 0.961 . S
C1864 C1863 1.502 . S
C1865 H1851 0.960 . S
C1865 H1852 0.961 . S
C1865 H1853 0.959 . S
C1865 C1863 1.561 . S
C1866 C1863 1.526 . S
C1866 C1867 1.396 . S
C1866 C1871 1.390 . S
C1867 C1861 1.465 . S
C1867 C1866 1.396 . S
C1867 C1868 1.399 . S
C1868 H1854 0.929 . S
C1868 C1867 1.399 . S
C1868 C1869 1.385 . S
C1869 H1855 0.931 . S
C1869 C1868 1.385 . S
C1869 C1870 1.389 . S
C1870 C1869 1.389 . S
C1870 C1871 1.387 . S
C1871 H1856 0.930 . S
C1871 C1866 1.390 . S
C1871 C1870 1.387 . S
H1872 C1884 0.930 . S
H1873 C1886 0.930 . S
H1874 C1887 0.930 . S
H1875 C1891 0.959 . S
H1876 C1891 0.959 . S
H1877 C1891 0.961 . S
H1878 C1892 0.960 . S
H1879 C1892 0.961 1_565 S
H1880 C1892 0.959 . S
H1881 C1895 0.909 1_655 S
H1882 C1896 0.931 . S
H1883 C1898 0.930 . S
C1884 H1872 0.930 . S
C1884 C1885 1.399 . S
C1884 C1889 1.399 . S
C1885 C1884 1.399 . S
C1885 C1886 1.376 . S
C1886 H1873 0.930 . S
C1886 C1885 1.376 . S
C1886 C1887 1.388 . S
C1887 H1874 0.930 . S
C1887 C1886 1.388 . S
C1887 C1888 1.390 . S
C1888 C1887 1.390 . S
C1888 C1889 1.394 . S
C1888 C1894 1.465 1_655 S
C1889 C1884 1.399 . S
C1889 C1888 1.394 . S
C1889 C1890 1.516 1_655 S
C1890 C1889 1.516 1_455 S
C1890 C1891 1.502 . S
C1890 C1892 1.561 1_455 S
C1890 C1893 1.526 . S
C1891 H1875 0.959 . S
C1891 H1876 0.959 . S
C1891 H1877 0.961 . S
C1891 C1890 1.502 . S
C1892 H1878 0.960 . S
C1892 H1879 0.961 1_545 S
C1892 H1880 0.959 . S
C1892 C1890 1.561 1_655 S
C1893 C1890 1.526 . S
C1893 C1894 1.396 . S
C1893 C1898 1.390 . S
C1894 C1888 1.465 1_455 S
C1894 C1893 1.396 . S
C1894 C1895 1.399 . S
C1895 H1881 0.909 1_455 S
C1895 C1894 1.399 . S
C1895 C1896 1.385 . S
C1896 H1882 0.931 . S
C1896 C1895 1.385 . S
C1896 C1897 1.389 . S
C1897 C1896 1.389 . S
C1897 C1898 1.387 . S
C1898 H1883 0.930 . S
C1898 C1893 1.390 . S
C1898 C1897 1.387 . S
H1899 C1911 0.930 . S
H1900 C1913 0.930 . S
H1901 C1914 0.930 . S
H1902 C1918 0.959 . S
H1903 C1918 0.959 . S
H1904 C1918 0.961 . S
H1905 C1919 0.960 . S
H1906 C1919 0.961 . S
H1907 C1919 0.959 . S
H1908 C1922 0.929 . S
H1909 C1923 0.931 . S
H1910 C1925 0.930 . S
C1911 H1899 0.930 . S
C1911 C1912 1.399 . S
C1911 C1916 1.399 . S
C1912 C1911 1.399 . S
C1912 C1913 1.376 . S
C1913 H1900 0.930 . S
C1913 C1912 1.376 . S
C1913 C1914 1.388 . S
C1914 H1901 0.930 . S
C1914 C1913 1.388 . S
C1914 C1915 1.390 . S
C1915 C1914 1.390 . S
C1915 C1916 1.394 . S
C1915 C1921 1.465 . S
C1916 C1911 1.399 . S
C1916 C1915 1.394 . S
C1916 C1917 1.516 . S
C1917 C1916 1.516 . S
C1917 C1918 1.502 . S
C1917 C1919 1.561 . S
C1917 C1920 1.526 . S
C1918 H1902 0.959 . S
C1918 H1903 0.959 . S
C1918 H1904 0.961 . S
C1918 C1917 1.502 . S
C1919 H1905 0.960 . S
C1919 H1906 0.961 . S
C1919 H1907 0.959 . S
C1919 C1917 1.561 . S
C1920 C1917 1.526 . S
C1920 C1921 1.396 . S
C1920 C1925 1.390 . S
C1921 C1915 1.465 . S
C1921 C1920 1.396 . S
C1921 C1922 1.399 . S
C1922 H1908 0.929 . S
C1922 C1921 1.399 . S
C1922 C1923 1.385 . S
C1923 H1909 0.931 . S
C1923 C1922 1.385 . S
C1923 C1924 1.389 . S
C1924 C1923 1.389 . S
C1924 C1925 1.387 . S
C1925 H1910 0.930 . S
C1925 C1920 1.390 . S
C1925 C1924 1.387 . S
H1926 C1938 0.930 . S
H1927 C1940 0.930 . S
H1928 C1941 0.930 . S
H1929 C1945 0.959 . S
H1930 C1945 0.959 . S
H1931 C1945 0.961 . S
H1932 C1946 0.960 . S
H1933 C1946 0.961 . S
H1934 C1946 0.959 . S
H1935 C1949 0.929 . S
H1936 C1950 0.931 . S
H1937 C1952 0.930 . S
C1938 H1926 0.930 . S
C1938 C1939 1.399 . S
C1938 C1943 1.399 . S
C1939 C1938 1.399 . S
C1939 C1940 1.376 . S
C1940 H1927 0.930 . S
C1940 C1939 1.376 . S
C1940 C1941 1.388 . S
C1941 H1928 0.930 . S
C1941 C1940 1.388 . S
C1941 C1942 1.390 . S
C1942 C1941 1.390 . S
C1942 C1943 1.394 . S
C1942 C1948 1.465 . S
C1943 C1938 1.399 . S
C1943 C1942 1.394 . S
C1943 C1944 1.516 . S
C1944 C1943 1.516 . S
C1944 C1945 1.502 . S
C1944 C1946 1.561 . S
C1944 C1947 1.526 . S
C1945 H1929 0.959 . S
C1945 H1930 0.959 . S
C1945 H1931 0.961 . S
C1945 C1944 1.502 . S
C1946 H1932 0.960 . S
C1946 H1933 0.961 . S
C1946 H1934 0.959 . S
C1946 C1944 1.561 . S
C1947 C1944 1.526 . S
C1947 C1948 1.396 . S
C1947 C1952 1.390 . S
C1948 C1942 1.465 . S
C1948 C1947 1.396 . S
C1948 C1949 1.399 . S
C1949 H1935 0.929 . S
C1949 C1948 1.399 . S
C1949 C1950 1.385 . S
C1950 H1936 0.931 . S
C1950 C1949 1.385 . S
C1950 C1951 1.389 . S
C1951 C1950 1.389 . S
C1951 C1952 1.387 . S
C1952 H1937 0.930 . S
C1952 C1947 1.390 . S
C1952 C1951 1.387 . S
H1953 C1965 0.930 . S
H1954 C1967 0.930 . S
H1955 C1968 0.930 . S
H1956 C1972 0.959 . S
H1957 C1972 0.959 . S
H1958 C1972 0.961 . S
H1959 C1973 0.960 . S
H1960 C1973 0.961 . S
H1961 C1973 0.959 . S
H1962 C1976 0.929 . S
H1963 C1977 0.931 . S
H1964 C1979 0.930 . S
C1965 H1953 0.930 . S
C1965 C1966 1.399 . S
C1965 C1970 1.399 . S
C1966 C1965 1.399 . S
C1966 C1967 1.376 . S
C1967 H1954 0.930 . S
C1967 C1966 1.376 . S
C1967 C1968 1.388 . S
C1968 H1955 0.930 . S
C1968 C1967 1.388 . S
C1968 C1969 1.390 . S
C1969 C1968 1.390 . S
C1969 C1970 1.394 . S
C1969 C1975 1.465 . S
C1970 C1965 1.399 . S
C1970 C1969 1.394 . S
C1970 C1971 1.516 . S
C1971 C1970 1.516 . S
C1971 C1972 1.502 . S
C1971 C1973 1.561 . S
C1971 C1974 1.526 . S
C1972 H1956 0.959 . S
C1972 H1957 0.959 . S
C1972 H1958 0.961 . S
C1972 C1971 1.502 . S
C1973 H1959 0.960 . S
C1973 H1960 0.961 . S
C1973 H1961 0.959 . S
C1973 C1971 1.561 . S
C1974 C1971 1.526 . S
C1974 C1975 1.396 . S
C1974 C1979 1.390 . S
C1975 C1969 1.465 . S
C1975 C1974 1.396 . S
C1975 C1976 1.399 . S
C1976 H1962 0.929 . S
C1976 C1975 1.399 . S
C1976 C1977 1.385 . S
C1977 H1963 0.931 . S
C1977 C1976 1.385 . S
C1977 C1978 1.389 . S
C1978 C1977 1.389 . S
C1978 C1979 1.387 . S
C1979 H1964 0.930 . S
C1979 C1974 1.390 . S
C1979 C1978 1.387 . S
H1980 C1992 0.930 . S
H1981 C1994 0.925 . S
H1982 C1995 0.930 . S
H1983 C1999 0.959 . S
H1984 C1999 0.959 . S
H1985 C1999 0.961 1_655 S
H1986 C2000 0.960 . S
H1987 C2000 0.961 . S
H1988 C2000 0.959 . S
H1989 C2003 0.929 . S
H1990 C2004 0.931 . S
H1991 C2006 0.930 . S
C1992 H1980 0.930 . S
C1992 C1993 1.399 . S
C1992 C1997 1.399 . S
C1993 C1992 1.399 . S
C1993 C1994 1.404 . S
C1994 H1981 0.925 . S
C1994 C1993 1.404 . S
C1994 C1995 1.368 1_655 S
C1995 H1982 0.930 . S
C1995 C1994 1.368 1_455 S
C1995 C1996 1.390 . S
C1996 C1995 1.390 . S
C1996 C1997 1.394 1_455 S
C1996 C2002 1.465 . S
C1997 C1992 1.399 . S
C1997 C1996 1.394 1_655 S
C1997 C1998 1.516 . S
C1998 C1997 1.516 . S
C1998 C1999 1.502 1_655 S
C1998 C2000 1.561 . S
C1998 C2001 1.526 1_655 S
C1999 H1983 0.959 . S
C1999 H1984 0.959 . S
C1999 H1985 0.961 1_455 S
C1999 C1998 1.502 1_455 S
C2000 H1986 0.960 . S
C2000 H1987 0.961 . S
C2000 H1988 0.959 . S
C2000 C1998 1.561 . S
C2001 C1998 1.526 1_455 S
C2001 C2002 1.396 . S
C2001 C2006 1.390 . S
C2002 C1996 1.465 . S
C2002 C2001 1.396 . S
C2002 C2003 1.399 . S
C2003 H1989 0.929 . S
C2003 C2002 1.399 . S
C2003 C2004 1.385 . S
C2004 H1990 0.931 . S
C2004 C2003 1.385 . S
C2004 C2005 1.389 . S
C2005 C2004 1.389 . S
C2005 C2006 1.387 . S
C2006 H1991 0.930 . S
C2006 C2001 1.390 . S
C2006 C2005 1.387 . S
H2007 C2019 0.930 . S
H2008 C2021 0.930 . S
H2009 C2022 0.930 . S
H2010 C2026 0.959 . S
H2011 C2026 0.959 . S
H2012 C2026 0.961 . S
H2013 C2027 0.960 . S
H2014 C2027 0.961 . S
H2015 C2027 0.959 . S
H2016 C2030 0.929 . S
H2017 C2031 0.931 . S
H2018 C2033 0.930 . S
C2019 H2007 0.930 . S
C2019 C2020 1.399 . S
C2019 C2024 1.399 . S
C2020 C2019 1.399 . S
C2020 C2021 1.376 . S
C2021 H2008 0.930 . S
C2021 C2020 1.376 . S
C2021 C2022 1.388 . S
C2022 H2009 0.930 . S
C2022 C2021 1.388 . S
C2022 C2023 1.390 . S
C2023 C2022 1.390 . S
C2023 C2024 1.394 . S
C2023 C2029 1.465 . S
C2024 C2019 1.399 . S
C2024 C2023 1.394 . S
C2024 C2025 1.516 . S
C2025 C2024 1.516 . S
C2025 C2026 1.502 . S
C2025 C2027 1.561 . S
C2025 C2028 1.526 . S
C2026 H2010 0.959 . S
C2026 H2011 0.959 . S
C2026 H2012 0.961 . S
C2026 C2025 1.502 . S
C2027 H2013 0.960 . S
C2027 H2014 0.961 . S
C2027 H2015 0.959 . S
C2027 C2025 1.561 . S
C2028 C2025 1.526 . S
C2028 C2029 1.396 . S
C2028 C2033 1.390 . S
C2029 C2023 1.465 . S
C2029 C2028 1.396 . S
C2029 C2030 1.399 . S
C2030 H2016 0.929 . S
C2030 C2029 1.399 . S
C2030 C2031 1.385 . S
C2031 H2017 0.931 . S
C2031 C2030 1.385 . S
C2031 C2032 1.389 . S
C2032 C2031 1.389 . S
C2032 C2033 1.387 . S
C2033 H2018 0.930 . S
C2033 C2028 1.390 . S
C2033 C2032 1.387 . S
H2034 C2046 0.930 . S
H2035 C2048 0.930 . S
H2036 C2049 0.930 . S
H2037 C2053 0.959 . S
H2038 C2053 0.959 . S
H2039 C2053 0.961 . S
H2040 C2054 0.960 . S
H2041 C2054 0.961 . S
H2042 C2054 0.959 . S
H2043 C2057 0.929 . S
H2044 C2058 0.931 . S
H2045 C2060 0.930 . S
C2046 H2034 0.930 . S
C2046 C2047 1.399 . S
C2046 C2051 1.399 . S
C2047 C2046 1.399 . S
C2047 C2048 1.376 . S
C2048 H2035 0.930 . S
C2048 C2047 1.376 . S
C2048 C2049 1.388 . S
C2049 H2036 0.930 . S
C2049 C2048 1.388 . S
C2049 C2050 1.390 . S
C2050 C2049 1.390 . S
C2050 C2051 1.394 . S
C2050 C2056 1.465 . S
C2051 C2046 1.399 . S
C2051 C2050 1.394 . S
C2051 C2052 1.516 . S
C2052 C2051 1.516 . S
C2052 C2053 1.502 . S
C2052 C2054 1.561 . S
C2052 C2055 1.526 . S
C2053 H2037 0.959 . S
C2053 H2038 0.959 . S
C2053 H2039 0.961 . S
C2053 C2052 1.502 . S
C2054 H2040 0.960 . S
C2054 H2041 0.961 . S
C2054 H2042 0.959 . S
C2054 C2052 1.561 . S
C2055 C2052 1.526 . S
C2055 C2056 1.396 . S
C2055 C2060 1.390 . S
C2056 C2050 1.465 . S
C2056 C2055 1.396 . S
C2056 C2057 1.399 . S
C2057 H2043 0.929 . S
C2057 C2056 1.399 . S
C2057 C2058 1.385 . S
C2058 H2044 0.931 . S
C2058 C2057 1.385 . S
C2058 C2059 1.389 . S
C2059 C2058 1.389 . S
C2059 C2060 1.387 . S
C2060 H2045 0.930 . S
C2060 C2055 1.390 . S
C2060 C2059 1.387 . S
H2061 C2073 0.930 . S
H2062 C2075 0.930 . S
H2063 C2076 0.930 . S
H2064 C2080 0.959 . S
H2065 C2080 0.959 . S
H2066 C2080 0.961 . S
H2067 C2081 0.960 . S
H2068 C2081 0.961 . S
H2069 C2081 0.959 . S
H2070 C2084 0.929 . S
H2071 C2085 0.931 . S
H2072 C2087 0.930 . S
C2073 H2061 0.930 . S
C2073 C2074 1.399 . S
C2073 C2078 1.399 . S
C2074 C2073 1.399 . S
C2074 C2075 1.376 . S
C2075 H2062 0.930 . S
C2075 C2074 1.376 . S
C2075 C2076 1.388 . S
C2076 H2063 0.930 . S
C2076 C2075 1.388 . S
C2076 C2077 1.390 . S
C2077 C2076 1.390 . S
C2077 C2078 1.394 . S
C2077 C2083 1.465 . S
C2078 C2073 1.399 . S
C2078 C2077 1.394 . S
C2078 C2079 1.516 . S
C2079 C2078 1.516 . S
C2079 C2080 1.502 . S
C2079 C2081 1.561 . S
C2079 C2082 1.526 . S
C2080 H2064 0.959 . S
C2080 H2065 0.959 . S
C2080 H2066 0.961 . S
C2080 C2079 1.502 . S
C2081 H2067 0.960 . S
C2081 H2068 0.961 . S
C2081 H2069 0.959 . S
C2081 C2079 1.561 . S
C2082 C2079 1.526 . S
C2082 C2083 1.396 . S
C2082 C2087 1.390 . S
C2083 C2077 1.465 . S
C2083 C2082 1.396 . S
C2083 C2084 1.399 . S
C2084 H2070 0.929 . S
C2084 C2083 1.399 . S
C2084 C2085 1.385 . S
C2085 H2071 0.931 . S
C2085 C2084 1.385 . S
C2085 C2086 1.389 . S
C2086 C2085 1.389 . S
C2086 C2087 1.387 . S
C2087 H2072 0.930 . S
C2087 C2082 1.390 . S
C2087 C2086 1.387 . S
H2088 C2100 0.930 . S
H2089 C2102 0.928 1_546 S
H2090 C2103 0.930 . S
H2091 C2107 0.959 . S
H2092 C2107 0.959 . S
H2093 C2107 0.961 . S
H2094 C2108 0.960 . S
H2095 C2108 0.961 . S
H2096 C2108 0.959 . S
H2097 C2111 0.929 . S
H2098 C2112 0.931 . S
H2099 C2114 0.930 . S
C2100 H2088 0.930 . S
C2100 C2101 1.399 . S
C2100 C2105 1.399 . S
C2101 C2100 1.399 . S
C2101 C2102 1.376 . S
C2102 H2089 0.928 1_564 S
C2102 C2101 1.376 . S
C2102 C2103 1.388 1_565 S
C2103 H2090 0.930 . S
C2103 C2102 1.388 1_545 S
C2103 C2104 1.390 1_545 S
C2104 C2103 1.390 1_565 S
C2104 C2105 1.394 . S
C2104 C2110 1.465 1_565 S
C2105 C2100 1.399 . S
C2105 C2104 1.394 . S
C2105 C2106 1.516 . S
C2106 C2105 1.516 . S
C2106 C2107 1.502 . S
C2106 C2108 1.561 . S
C2106 C2109 1.526 . S
C2107 H2091 0.959 . S
C2107 H2092 0.959 . S
C2107 H2093 0.961 . S
C2107 C2106 1.502 . S
C2108 H2094 0.960 . S
C2108 H2095 0.961 . S
C2108 H2096 0.959 . S
C2108 C2106 1.561 . S
C2109 C2106 1.526 . S
C2109 C2110 1.396 1_565 S
C2109 C2114 1.390 . S
C2110 C2104 1.465 1_545 S
C2110 C2109 1.396 1_545 S
C2110 C2111 1.399 . S
C2111 H2097 0.929 . S
C2111 C2110 1.399 . S
C2111 C2112 1.385 . S
C2112 H2098 0.931 . S
C2112 C2111 1.385 . S
C2112 C2113 1.389 . S
C2113 C2112 1.389 . S
C2113 C2114 1.387 1_545 S
C2114 H2099 0.930 . S
C2114 C2109 1.390 . S
C2114 C2113 1.387 1_565 S
H2115 C2127 0.929 1_554 S
H2116 C2129 0.930 . S
H2117 C2130 0.930 . S
H2118 C2134 0.959 . S
H2119 C2134 0.959 . S
H2120 C2134 0.961 . S
H2121 C2135 0.960 . S
H2122 C2135 0.961 . S
H2123 C2135 0.959 . S
H2124 C2138 0.929 . S
H2125 C2139 0.931 . S
H2126 C2141 0.930 . S
C2127 H2115 0.929 1_556 S
C2127 C2128 1.400 . S
C2127 C2132 1.398 1_556 S
C2128 C2127 1.400 . S
C2128 C2129 1.376 . S
C2129 H2116 0.930 . S
C2129 C2128 1.376 . S
C2129 C2130 1.388 . S
C2130 H2117 0.930 . S
C2130 C2129 1.388 . S
C2130 C2131 1.390 . S
C2131 C2130 1.390 . S
C2131 C2132 1.394 1_556 S
C2131 C2137 1.465 . S
C2132 C2127 1.398 1_554 S
C2132 C2131 1.394 1_554 S
C2132 C2133 1.516 . S
C2133 C2132 1.516 . S
C2133 C2134 1.502 1_554 S
C2133 C2135 1.561 . S
C2133 C2136 1.526 . S
C2134 H2118 0.959 . S
C2134 H2119 0.959 . S
C2134 H2120 0.961 . S
C2134 C2133 1.502 1_556 S
C2135 H2121 0.960 . S
C2135 H2122 0.961 . S
C2135 H2123 0.959 . S
C2135 C2133 1.561 . S
C2136 C2133 1.526 . S
C2136 C2137 1.396 1_554 S
C2136 C2141 1.390 . S
C2137 C2131 1.465 . S
C2137 C2136 1.396 1_556 S
C2137 C2138 1.399 . S
C2138 H2124 0.929 . S
C2138 C2137 1.399 . S
C2138 C2139 1.385 . S
C2139 H2125 0.931 . S
C2139 C2138 1.385 . S
C2139 C2140 1.381 1_556 S
C2140 C2139 1.381 1_554 S
C2140 C2141 1.390 . S
C2141 H2126 0.930 . S
C2141 C2136 1.390 . S
C2141 C2140 1.390 . S
H2142 C2154 0.930 . S
H2143 C2156 0.930 . S
H2144 C2157 0.930 . S
H2145 C2161 0.959 . S
H2146 C2161 0.959 . S
H2147 C2161 0.961 . S
H2148 C2162 0.960 . S
H2149 C2162 0.961 . S
H2150 C2162 0.959 . S
H2151 C2165 0.929 . S
H2152 C2166 0.931 . S
H2153 C2168 0.930 . S
C2154 H2142 0.930 . S
C2154 C2155 1.399 . S
C2154 C2159 1.399 . S
C2155 C2154 1.399 . S
C2155 C2156 1.376 . S
C2156 H2143 0.930 . S
C2156 C2155 1.376 . S
C2156 C2157 1.388 . S
C2157 H2144 0.930 . S
C2157 C2156 1.388 . S
C2157 C2158 1.390 . S
C2158 C2157 1.390 . S
C2158 C2159 1.394 . S
C2158 C2164 1.465 . S
C2159 C2154 1.399 . S
C2159 C2158 1.394 . S
C2159 C2160 1.516 . S
C2160 C2159 1.516 . S
C2160 C2161 1.502 . S
C2160 C2162 1.561 . S
C2160 C2163 1.526 . S
C2161 H2145 0.959 . S
C2161 H2146 0.959 . S
C2161 H2147 0.961 . S
C2161 C2160 1.502 . S
C2162 H2148 0.960 . S
C2162 H2149 0.961 . S
C2162 H2150 0.959 . S
C2162 C2160 1.561 . S
C2163 C2160 1.526 . S
C2163 C2164 1.396 . S
C2163 C2168 1.390 . S
C2164 C2158 1.465 . S
C2164 C2163 1.396 . S
C2164 C2165 1.399 . S
C2165 H2151 0.929 . S
C2165 C2164 1.399 . S
C2165 C2166 1.385 . S
C2166 H2152 0.931 . S
C2166 C2165 1.385 . S
C2166 C2167 1.389 . S
C2167 C2166 1.389 . S
C2167 C2168 1.387 . S
C2168 H2153 0.930 . S
C2168 C2163 1.390 . S
C2168 C2167 1.387 . S
H2169 C2181 0.930 . S
H2170 C2183 0.930 . S
H2171 C2184 0.930 . S
H2172 C2188 0.959 . S
H2173 C2188 0.959 . S
H2174 C2188 0.961 . S
H2175 C2189 0.960 . S
H2176 C2189 0.961 . S
H2177 C2189 0.959 . S
H2178 C2192 0.929 . S
H2179 C2193 0.922 1_455 S
H2180 C2195 0.930 1_455 S
C2181 H2169 0.930 . S
C2181 C2182 1.399 . S
C2181 C2186 1.399 . S
C2182 C2181 1.399 . S
C2182 C2183 1.376 . S
C2183 H2170 0.930 . S
C2183 C2182 1.376 . S
C2183 C2184 1.388 . S
C2184 H2171 0.930 . S
C2184 C2183 1.388 . S
C2184 C2185 1.390 . S
C2185 C2184 1.390 . S
C2185 C2186 1.394 . S
C2185 C2191 1.465 . S
C2186 C2181 1.399 . S
C2186 C2185 1.394 . S
C2186 C2187 1.516 . S
C2187 C2186 1.516 . S
C2187 C2188 1.502 . S
C2187 C2189 1.561 . S
C2187 C2190 1.526 . S
C2188 H2172 0.959 . S
C2188 H2173 0.959 . S
C2188 H2174 0.961 . S
C2188 C2187 1.502 . S
C2189 H2175 0.960 . S
C2189 H2176 0.961 . S
C2189 H2177 0.959 . S
C2189 C2187 1.561 . S
C2190 C2187 1.526 . S
C2190 C2191 1.396 . S
C2190 C2195 1.390 . S
C2191 C2185 1.465 . S
C2191 C2190 1.396 . S
C2191 C2192 1.399 . S
C2192 H2178 0.929 . S
C2192 C2191 1.399 . S
C2192 C2193 1.400 . S
C2193 H2179 0.922 1_655 S
C2193 C2192 1.400 . S
C2193 C2194 1.383 1_655 S
C2194 C2193 1.383 1_455 S
C2194 C2195 1.387 1_455 S
C2195 H2180 0.930 1_655 S
C2195 C2190 1.390 . S
C2195 C2194 1.387 1_655 S
H2196 C2208 0.930 . S
H2197 C2210 0.930 . S
H2198 C2211 0.930 . S
H2199 C2215 0.959 . S
H2200 C2215 0.959 . S
H2201 C2215 0.961 . S
H2202 C2216 0.960 . S
H2203 C2216 0.961 . S
H2204 C2216 0.959 . S
H2205 C2219 0.929 . S
H2206 C2220 0.931 . S
H2207 C2222 0.930 . S
C2208 H2196 0.930 . S
C2208 C2209 1.399 . S
C2208 C2213 1.399 . S
C2209 C2208 1.399 . S
C2209 C2210 1.376 . S
C2210 H2197 0.930 . S
C2210 C2209 1.376 . S
C2210 C2211 1.388 . S
C2211 H2198 0.930 . S
C2211 C2210 1.388 . S
C2211 C2212 1.390 . S
C2212 C2211 1.390 . S
C2212 C2213 1.394 . S
C2212 C2218 1.465 . S
C2213 C2208 1.399 . S
C2213 C2212 1.394 . S
C2213 C2214 1.516 . S
C2214 C2213 1.516 . S
C2214 C2215 1.502 . S
C2214 C2216 1.561 . S
C2214 C2217 1.526 . S
C2215 H2199 0.959 . S
C2215 H2200 0.959 . S
C2215 H2201 0.961 . S
C2215 C2214 1.502 . S
C2216 H2202 0.960 . S
C2216 H2203 0.961 . S
C2216 H2204 0.959 . S
C2216 C2214 1.561 . S
C2217 C2214 1.526 . S
C2217 C2218 1.396 . S
C2217 C2222 1.390 . S
C2218 C2212 1.465 . S
C2218 C2217 1.396 . S
C2218 C2219 1.399 . S
C2219 H2205 0.929 . S
C2219 C2218 1.399 . S
C2219 C2220 1.385 . S
C2220 H2206 0.931 . S
C2220 C2219 1.385 . S
C2220 C2221 1.389 . S
C2221 C2220 1.389 . S
C2221 C2222 1.387 . S
C2222 H2207 0.930 . S
C2222 C2217 1.390 . S
C2222 C2221 1.387 . S
H2223 C2235 0.930 . S
H2224 C2237 0.930 . S
H2225 C2238 0.930 . S
H2226 C2242 0.959 . S
H2227 C2242 0.959 . S
H2228 C2242 0.961 . S
H2229 C2243 0.960 . S
H2230 C2243 0.961 . S
H2231 C2243 0.959 . S
H2232 C2246 0.929 . S
H2233 C2247 0.931 . S
H2234 C2249 0.930 . S
C2235 H2223 0.930 . S
C2235 C2236 1.399 . S
C2235 C2240 1.399 . S
C2236 C2235 1.399 . S
C2236 C2237 1.376 . S
C2237 H2224 0.930 . S
C2237 C2236 1.376 . S
C2237 C2238 1.388 . S
C2238 H2225 0.930 . S
C2238 C2237 1.388 . S
C2238 C2239 1.390 . S
C2239 C2238 1.390 . S
C2239 C2240 1.394 . S
C2239 C2245 1.465 . S
C2240 C2235 1.399 . S
C2240 C2239 1.394 . S
C2240 C2241 1.516 . S
C2241 C2240 1.516 . S
C2241 C2242 1.502 . S
C2241 C2243 1.561 . S
C2241 C2244 1.526 . S
C2242 H2226 0.959 . S
C2242 H2227 0.959 . S
C2242 H2228 0.961 . S
C2242 C2241 1.502 . S
C2243 H2229 0.960 . S
C2243 H2230 0.961 . S
C2243 H2231 0.959 . S
C2243 C2241 1.561 . S
C2244 C2241 1.526 . S
C2244 C2245 1.396 . S
C2244 C2249 1.390 . S
C2245 C2239 1.465 . S
C2245 C2244 1.396 . S
C2245 C2246 1.399 . S
C2246 H2232 0.929 . S
C2246 C2245 1.399 . S
C2246 C2247 1.385 . S
C2247 H2233 0.931 . S
C2247 C2246 1.385 . S
C2247 C2248 1.389 . S
C2248 C2247 1.389 . S
C2248 C2249 1.387 . S
C2249 H2234 0.930 . S
C2249 C2244 1.390 . S
C2249 C2248 1.387 . S
H2250 C2262 0.930 . S
H2251 C2264 0.930 . S
H2252 C2265 0.930 . S
H2253 C2269 0.959 . S
H2254 C2269 0.959 . S
H2255 C2269 0.961 . S
H2256 C2270 0.960 . S
H2257 C2270 0.961 . S
H2258 C2270 0.959 . S
H2259 C2273 0.929 . S
H2260 C2274 0.931 . S
H2261 C2276 0.930 . S
C2262 H2250 0.930 . S
C2262 C2263 1.399 . S
C2262 C2267 1.399 . S
C2263 C2262 1.399 . S
C2263 C2264 1.376 . S
C2264 H2251 0.930 . S
C2264 C2263 1.376 . S
C2264 C2265 1.388 . S
C2265 H2252 0.930 . S
C2265 C2264 1.388 . S
C2265 C2266 1.390 . S
C2266 C2265 1.390 . S
C2266 C2267 1.394 . S
C2266 C2272 1.465 . S
C2267 C2262 1.399 . S
C2267 C2266 1.394 . S
C2267 C2268 1.516 . S
C2268 C2267 1.516 . S
C2268 C2269 1.502 . S
C2268 C2270 1.561 . S
C2268 C2271 1.526 . S
C2269 H2253 0.959 . S
C2269 H2254 0.959 . S
C2269 H2255 0.961 . S
C2269 C2268 1.502 . S
C2270 H2256 0.960 . S
C2270 H2257 0.961 . S
C2270 H2258 0.959 . S
C2270 C2268 1.561 . S
C2271 C2268 1.526 . S
C2271 C2272 1.396 . S
C2271 C2276 1.390 . S
C2272 C2266 1.465 . S
C2272 C2271 1.396 . S
C2272 C2273 1.399 . S
C2273 H2259 0.929 . S
C2273 C2272 1.399 . S
C2273 C2274 1.385 . S
C2274 H2260 0.931 . S
C2274 C2273 1.385 . S
C2274 C2275 1.389 . S
C2275 C2274 1.389 . S
C2275 C2276 1.387 . S
C2276 H2261 0.930 . S
C2276 C2271 1.390 . S
C2276 C2275 1.387 . S
H2277 C2289 0.930 . S
H2278 C2291 0.930 . S
H2279 C2292 0.930 . S
H2280 C2296 0.959 . S
H2281 C2296 0.959 . S
H2282 C2296 0.961 . S
H2283 C2297 0.960 . S
H2284 C2297 0.961 . S
H2285 C2297 0.959 . S
H2286 C2300 0.929 . S
H2287 C2301 0.931 . S
H2288 C2303 0.930 . S
C2289 H2277 0.930 . S
C2289 C2290 1.399 . S
C2289 C2294 1.399 . S
C2290 C2289 1.399 . S
C2290 C2291 1.376 . S
C2291 H2278 0.930 . S
C2291 C2290 1.376 . S
C2291 C2292 1.388 . S
C2292 H2279 0.930 . S
C2292 C2291 1.388 . S
C2292 C2293 1.390 . S
C2293 C2292 1.390 . S
C2293 C2294 1.394 . S
C2293 C2299 1.465 . S
C2294 C2289 1.399 . S
C2294 C2293 1.394 . S
C2294 C2295 1.516 . S
C2295 C2294 1.516 . S
C2295 C2296 1.502 . S
C2295 C2297 1.561 . S
C2295 C2298 1.526 . S
C2296 H2280 0.959 . S
C2296 H2281 0.959 . S
C2296 H2282 0.961 . S
C2296 C2295 1.502 . S
C2297 H2283 0.960 . S
C2297 H2284 0.961 . S
C2297 H2285 0.959 . S
C2297 C2295 1.561 . S
C2298 C2295 1.526 . S
C2298 C2299 1.396 . S
C2298 C2303 1.390 . S
C2299 C2293 1.465 . S
C2299 C2298 1.396 . S
C2299 C2300 1.399 . S
C2300 H2286 0.929 . S
C2300 C2299 1.399 . S
C2300 C2301 1.385 . S
C2301 H2287 0.931 . S
C2301 C2300 1.385 . S
C2301 C2302 1.389 . S
C2302 C2301 1.389 . S
C2302 C2303 1.387 . S
C2303 H2288 0.930 . S
C2303 C2298 1.390 . S
C2303 C2302 1.387 . S
H2304 C2316 0.930 . S
H2305 C2318 0.930 . S
H2306 C2319 0.930 . S
H2307 C2323 0.959 . S
H2308 C2323 0.959 . S
H2309 C2323 0.961 . S
H2310 C2324 0.960 . S
H2311 C2324 0.961 . S
H2312 C2324 0.959 . S
H2313 C2327 0.929 1_556 S
H2314 C2328 0.886 1_556 S
H2315 C2330 0.930 . S
C2316 H2304 0.930 . S
C2316 C2317 1.399 . S
C2316 C2321 1.399 . S
C2317 C2316 1.399 . S
C2317 C2318 1.376 . S
C2318 H2305 0.930 . S
C2318 C2317 1.376 . S
C2318 C2319 1.388 . S
C2319 H2306 0.930 . S
C2319 C2318 1.388 . S
C2319 C2320 1.390 . S
C2320 C2319 1.390 . S
C2320 C2321 1.394 . S
C2320 C2326 1.465 . S
C2321 C2316 1.399 . S
C2321 C2320 1.394 . S
C2321 C2322 1.516 . S
C2322 C2321 1.516 . S
C2322 C2323 1.502 . S
C2322 C2324 1.561 . S
C2322 C2325 1.526 . S
C2323 H2307 0.959 . S
C2323 H2308 0.959 . S
C2323 H2309 0.961 . S
C2323 C2322 1.502 . S
C2324 H2310 0.960 . S
C2324 H2311 0.961 . S
C2324 H2312 0.959 . S
C2324 C2322 1.561 . S
C2325 C2322 1.526 . S
C2325 C2326 1.396 . S
C2325 C2330 1.390 . S
C2326 C2320 1.465 . S
C2326 C2325 1.396 . S
C2326 C2327 1.399 . S
C2327 H2313 0.929 1_554 S
C2327 C2326 1.399 . S
C2327 C2328 1.399 . S
C2328 H2314 0.886 1_554 S
C2328 C2327 1.399 . S
C2328 C2329 1.421 . S
C2329 C2328 1.421 . S
C2329 C2330 1.387 . S
C2330 H2315 0.930 . S
C2330 C2325 1.390 . S
C2330 C2329 1.387 . S
H2331 C2343 0.930 . S
H2332 C2345 0.930 . S
H2333 C2346 0.930 . S
H2334 C2350 0.959 . S
H2335 C2350 0.959 . S
H2336 C2350 0.961 . S
H2337 C2351 0.960 . S
H2338 C2351 0.961 . S
H2339 C2351 0.959 . S
H2340 C2354 0.929 . S
H2341 C2355 0.931 . S
H2342 C2357 0.930 . S
C2343 H2331 0.930 . S
C2343 C2344 1.399 . S
C2343 C2348 1.399 . S
C2344 C2343 1.399 . S
C2344 C2345 1.376 . S
C2345 H2332 0.930 . S
C2345 C2344 1.376 . S
C2345 C2346 1.388 . S
C2346 H2333 0.930 . S
C2346 C2345 1.388 . S
C2346 C2347 1.390 . S
C2347 C2346 1.390 . S
C2347 C2348 1.394 . S
C2347 C2353 1.465 . S
C2348 C2343 1.399 . S
C2348 C2347 1.394 . S
C2348 C2349 1.516 . S
C2349 C2348 1.516 . S
C2349 C2350 1.502 . S
C2349 C2351 1.561 . S
C2349 C2352 1.526 . S
C2350 H2334 0.959 . S
C2350 H2335 0.959 . S
C2350 H2336 0.961 . S
C2350 C2349 1.502 . S
C2351 H2337 0.960 . S
C2351 H2338 0.961 . S
C2351 H2339 0.959 . S
C2351 C2349 1.561 . S
C2352 C2349 1.526 . S
C2352 C2353 1.396 . S
C2352 C2357 1.390 . S
C2353 C2347 1.465 . S
C2353 C2352 1.396 . S
C2353 C2354 1.399 . S
C2354 H2340 0.929 . S
C2354 C2353 1.399 . S
C2354 C2355 1.385 . S
C2355 H2341 0.931 . S
C2355 C2354 1.385 . S
C2355 C2356 1.389 . S
C2356 C2355 1.389 . S
C2356 C2357 1.387 . S
C2357 H2342 0.930 . S
C2357 C2352 1.390 . S
C2357 C2356 1.387 . S
H2358 C2370 0.930 . S
H2359 C2372 0.930 . S
H2360 C2373 0.930 . S
H2361 C2377 0.959 . S
H2362 C2377 0.959 . S
H2363 C2377 0.961 . S
H2364 C2378 0.960 . S
H2365 C2378 0.961 . S
H2366 C2378 0.959 . S
H2367 C2381 0.929 . S
H2368 C2382 0.931 . S
H2369 C2384 0.930 . S
C2370 H2358 0.930 . S
C2370 C2371 1.399 . S
C2370 C2375 1.399 . S
C2371 C2370 1.399 . S
C2371 C2372 1.376 . S
C2372 H2359 0.930 . S
C2372 C2371 1.376 . S
C2372 C2373 1.388 . S
C2373 H2360 0.930 . S
C2373 C2372 1.388 . S
C2373 C2374 1.390 . S
C2374 C2373 1.390 . S
C2374 C2375 1.394 . S
C2374 C2380 1.465 . S
C2375 C2370 1.399 . S
C2375 C2374 1.394 . S
C2375 C2376 1.516 . S
C2376 C2375 1.516 . S
C2376 C2377 1.502 . S
C2376 C2378 1.561 . S
C2376 C2379 1.526 . S
C2377 H2361 0.959 . S
C2377 H2362 0.959 . S
C2377 H2363 0.961 . S
C2377 C2376 1.502 . S
C2378 H2364 0.960 . S
C2378 H2365 0.961 . S
C2378 H2366 0.959 . S
C2378 C2376 1.561 . S
C2379 C2376 1.526 . S
C2379 C2380 1.396 . S
C2379 C2384 1.390 . S
C2380 C2374 1.465 . S
C2380 C2379 1.396 . S
C2380 C2381 1.399 . S
C2381 H2367 0.929 . S
C2381 C2380 1.399 . S
C2381 C2382 1.385 . S
C2382 H2368 0.931 . S
C2382 C2381 1.385 . S
C2382 C2383 1.389 . S
C2383 C2382 1.389 . S
C2383 C2384 1.387 . S
C2384 H2369 0.930 . S
C2384 C2379 1.390 . S
C2384 C2383 1.387 . S
H2385 C2397 0.930 . S
H2386 C2399 0.930 . S
H2387 C2400 0.930 . S
H2388 C2404 0.959 . S
H2389 C2404 0.959 . S
H2390 C2404 0.961 . S
H2391 C2405 0.960 . S
H2392 C2405 0.961 . S
H2393 C2405 0.959 . S
H2394 C2408 0.929 . S
H2395 C2409 0.931 . S
H2396 C2411 0.930 . S
C2397 H2385 0.930 . S
C2397 C2398 1.399 . S
C2397 C2402 1.399 . S
C2398 C2397 1.399 . S
C2398 C2399 1.376 . S
C2399 H2386 0.930 . S
C2399 C2398 1.376 . S
C2399 C2400 1.388 . S
C2400 H2387 0.930 . S
C2400 C2399 1.388 . S
C2400 C2401 1.390 . S
C2401 C2400 1.390 . S
C2401 C2402 1.394 . S
C2401 C2407 1.465 . S
C2402 C2397 1.399 . S
C2402 C2401 1.394 . S
C2402 C2403 1.516 . S
C2403 C2402 1.516 . S
C2403 C2404 1.502 . S
C2403 C2405 1.561 . S
C2403 C2406 1.526 . S
C2404 H2388 0.959 . S
C2404 H2389 0.959 . S
C2404 H2390 0.961 . S
C2404 C2403 1.502 . S
C2405 H2391 0.960 . S
C2405 H2392 0.961 . S
C2405 H2393 0.959 . S
C2405 C2403 1.561 . S
C2406 C2403 1.526 . S
C2406 C2407 1.396 . S
C2406 C2411 1.390 . S
C2407 C2401 1.465 . S
C2407 C2406 1.396 . S
C2407 C2408 1.399 . S
C2408 H2394 0.929 . S
C2408 C2407 1.399 . S
C2408 C2409 1.385 . S
C2409 H2395 0.931 . S
C2409 C2408 1.385 . S
C2409 C2410 1.389 . S
C2410 C2409 1.389 . S
C2410 C2411 1.387 . S
C2411 H2396 0.930 . S
C2411 C2406 1.390 . S
C2411 C2410 1.387 . S
H2412 C2424 0.930 . S
H2413 C2426 0.930 . S
H2414 C2427 0.930 . S
H2415 C2431 0.959 . S
H2416 C2431 0.959 . S
H2417 C2431 0.961 . S
H2418 C2432 0.960 . S
H2419 C2432 0.961 . S
H2420 C2432 0.959 . S
H2421 C2435 0.929 . S
H2422 C2436 0.931 . S
H2423 C2438 0.930 . S
C2424 H2412 0.930 . S
C2424 C2425 1.399 . S
C2424 C2429 1.399 . S
C2425 C2424 1.399 . S
C2425 C2426 1.376 . S
C2426 H2413 0.930 . S
C2426 C2425 1.376 . S
C2426 C2427 1.388 . S
C2427 H2414 0.930 . S
C2427 C2426 1.388 . S
C2427 C2428 1.390 . S
C2428 C2427 1.390 . S
C2428 C2429 1.394 . S
C2428 C2434 1.465 . S
C2429 C2424 1.399 . S
C2429 C2428 1.394 . S
C2429 C2430 1.516 . S
C2430 C2429 1.516 . S
C2430 C2431 1.502 . S
C2430 C2432 1.561 . S
C2430 C2433 1.526 . S
C2431 H2415 0.959 . S
C2431 H2416 0.959 . S
C2431 H2417 0.961 . S
C2431 C2430 1.502 . S
C2432 H2418 0.960 . S
C2432 H2419 0.961 . S
C2432 H2420 0.959 . S
C2432 C2430 1.561 . S
C2433 C2430 1.526 . S
C2433 C2434 1.396 . S
C2433 C2438 1.390 . S
C2434 C2428 1.465 . S
C2434 C2433 1.396 . S
C2434 C2435 1.399 . S
C2435 H2421 0.929 . S
C2435 C2434 1.399 . S
C2435 C2436 1.385 . S
C2436 H2422 0.931 . S
C2436 C2435 1.385 . S
C2436 C2437 1.389 . S
C2437 C2436 1.389 . S
C2437 C2438 1.387 . S
C2438 H2423 0.930 . S
C2438 C2433 1.390 . S
C2438 C2437 1.387 . S
H2439 C2451 0.930 . S
H2440 C2453 0.930 . S
H2441 C2454 0.930 . S
H2442 C2458 0.959 . S
H2443 C2458 0.959 . S
H2444 C2458 0.961 . S
H2445 C2459 0.960 . S
H2446 C2459 0.961 . S
H2447 C2459 0.959 . S
H2448 C2462 0.929 . S
H2449 C2463 0.931 . S
H2450 C2465 0.930 . S
C2451 H2439 0.930 . S
C2451 C2452 1.399 . S
C2451 C2456 1.399 . S
C2452 C2451 1.399 . S
C2452 C2453 1.376 . S
C2453 H2440 0.930 . S
C2453 C2452 1.376 . S
C2453 C2454 1.388 . S
C2454 H2441 0.930 . S
C2454 C2453 1.388 . S
C2454 C2455 1.390 . S
C2455 C2454 1.390 . S
C2455 C2456 1.394 . S
C2455 C2461 1.465 . S
C2456 C2451 1.399 . S
C2456 C2455 1.394 . S
C2456 C2457 1.516 . S
C2457 C2456 1.516 . S
C2457 C2458 1.502 . S
C2457 C2459 1.561 . S
C2457 C2460 1.526 . S
C2458 H2442 0.959 . S
C2458 H2443 0.959 . S
C2458 H2444 0.961 . S
C2458 C2457 1.502 . S
C2459 H2445 0.960 . S
C2459 H2446 0.961 . S
C2459 H2447 0.959 . S
C2459 C2457 1.561 . S
C2460 C2457 1.526 . S
C2460 C2461 1.396 . S
C2460 C2465 1.390 . S
C2461 C2455 1.465 . S
C2461 C2460 1.396 . S
C2461 C2462 1.399 . S
C2462 H2448 0.929 . S
C2462 C2461 1.399 . S
C2462 C2463 1.385 . S
C2463 H2449 0.931 . S
C2463 C2462 1.385 . S
C2463 C2464 1.389 . S
C2464 C2463 1.389 . S
C2464 C2465 1.387 . S
C2465 H2450 0.930 . S
C2465 C2460 1.390 . S
C2465 C2464 1.387 . S
H2466 C2478 0.930 . S
H2467 C2480 0.930 . S
H2468 C2481 0.930 . S
H2469 C2485 0.959 1_556 S
H2470 C2485 0.996 . S
H2471 C2485 0.962 . S
H2472 C2486 0.960 . S
H2473 C2486 0.961 1_554 S
H2474 C2486 0.959 . S
H2475 C2489 0.929 . S
H2476 C2490 0.931 . S
H2477 C2492 0.930 1_554 S
C2478 H2466 0.930 . S
C2478 C2479 1.399 . S
C2478 C2483 1.399 . S
C2479 C2478 1.399 . S
C2479 C2480 1.376 . S
C2480 H2467 0.930 . S
C2480 C2479 1.376 . S
C2480 C2481 1.388 . S
C2481 H2468 0.930 . S
C2481 C2480 1.388 . S
C2481 C2482 1.390 . S
C2482 C2481 1.390 . S
C2482 C2483 1.394 . S
C2482 C2488 1.465 . S
C2483 C2478 1.399 . S
C2483 C2482 1.394 . S
C2483 C2484 1.516 . S
C2484 C2483 1.516 . S
C2484 C2485 1.462 1_556 S
C2484 C2486 1.561 . S
C2484 C2487 1.526 . S
C2485 H2469 0.959 1_554 S
C2485 H2470 0.996 . S
C2485 H2471 0.962 . S
C2485 C2484 1.462 1_554 S
C2486 H2472 0.960 . S
C2486 H2473 0.961 1_556 S
C2486 H2474 0.959 . S
C2486 C2484 1.561 . S
C2487 C2484 1.526 . S
C2487 C2488 1.396 . S
C2487 C2492 1.390 . S
C2488 C2482 1.465 . S
C2488 C2487 1.396 . S
C2488 C2489 1.399 . S
C2489 H2475 0.929 . S
C2489 C2488 1.399 . S
C2489 C2490 1.385 . S
C2490 H2476 0.931 . S
C2490 C2489 1.385 . S
C2490 C2491 1.389 . S
C2491 C2490 1.389 . S
C2491 C2492 1.387 . S
C2492 H2477 0.930 1_556 S
C2492 C2487 1.390 . S
C2492 C2491 1.387 . S
H2493 C2505 0.930 . S
H2494 C2507 0.930 . S
H2495 C2508 0.930 . S
H2496 C2512 0.959 . S
H2497 C2512 0.959 . S
H2498 C2512 0.961 . S
H2499 C2513 0.960 . S
H2500 C2513 0.961 . S
H2501 C2513 0.959 . S
H2502 C2516 0.929 . S
H2503 C2517 0.931 . S
H2504 C2519 0.930 . S
C2505 H2493 0.930 . S
C2505 C2506 1.399 . S
C2505 C2510 1.399 . S
C2506 C2505 1.399 . S
C2506 C2507 1.376 . S
C2507 H2494 0.930 . S
C2507 C2506 1.376 . S
C2507 C2508 1.388 . S
C2508 H2495 0.930 . S
C2508 C2507 1.388 . S
C2508 C2509 1.390 . S
C2509 C2508 1.390 . S
C2509 C2510 1.394 . S
C2509 C2515 1.465 . S
C2510 C2505 1.399 . S
C2510 C2509 1.394 . S
C2510 C2511 1.516 . S
C2511 C2510 1.516 . S
C2511 C2512 1.502 . S
C2511 C2513 1.561 . S
C2511 C2514 1.526 . S
C2512 H2496 0.959 . S
C2512 H2497 0.959 . S
C2512 H2498 0.961 . S
C2512 C2511 1.502 . S
C2513 H2499 0.960 . S
C2513 H2500 0.961 . S
C2513 H2501 0.959 . S
C2513 C2511 1.561 . S
C2514 C2511 1.526 . S
C2514 C2515 1.396 . S
C2514 C2519 1.390 . S
C2515 C2509 1.465 . S
C2515 C2514 1.396 . S
C2515 C2516 1.399 . S
C2516 H2502 0.929 . S
C2516 C2515 1.399 . S
C2516 C2517 1.385 . S
C2517 H2503 0.931 . S
C2517 C2516 1.385 . S
C2517 C2518 1.389 . S
C2518 C2517 1.389 . S
C2518 C2519 1.387 . S
C2519 H2504 0.930 . S
C2519 C2514 1.390 . S
C2519 C2518 1.387 . S
H2520 C2532 0.930 . S
H2521 C2534 0.930 . S
H2522 C2535 0.930 . S
H2523 C2539 0.959 . S
H2524 C2539 0.959 . S
H2525 C2539 0.961 . S
H2526 C2540 0.960 . S
H2527 C2540 0.961 . S
H2528 C2540 0.959 . S
H2529 C2543 0.929 . S
H2530 C2544 0.931 . S
H2531 C2546 0.930 . S
C2532 H2520 0.930 . S
C2532 C2533 1.399 1_565 S
C2532 C2537 1.399 . S
C2533 C2532 1.399 1_545 S
C2533 C2534 1.376 . S
C2534 H2521 0.930 . S
C2534 C2533 1.376 . S
C2534 C2535 1.388 . S
C2535 H2522 0.930 . S
C2535 C2534 1.388 . S
C2535 C2536 1.390 . S
C2536 C2535 1.390 . S
C2536 C2537 1.394 1_545 S
C2536 C2542 1.465 . S
C2537 C2532 1.399 . S
C2537 C2536 1.394 1_565 S
C2537 C2538 1.516 . S
C2538 C2537 1.516 . S
C2538 C2539 1.502 . S
C2538 C2540 1.561 . S
C2538 C2541 1.526 . S
C2539 H2523 0.959 . S
C2539 H2524 0.959 . S
C2539 H2525 0.961 . S
C2539 C2538 1.502 . S
C2540 H2526 0.960 . S
C2540 H2527 0.961 . S
C2540 H2528 0.959 . S
C2540 C2538 1.561 . S
C2541 C2538 1.526 . S
C2541 C2542 1.396 1_565 S
C2541 C2546 1.390 . S
C2542 C2536 1.465 . S
C2542 C2541 1.396 1_545 S
C2542 C2543 1.399 . S
C2543 H2529 0.929 . S
C2543 C2542 1.399 . S
C2543 C2544 1.385 . S
C2544 H2530 0.931 . S
C2544 C2543 1.385 . S
C2544 C2545 1.389 . S
C2545 C2544 1.389 . S
C2545 C2546 1.387 1_545 S
C2546 H2531 0.930 . S
C2546 C2541 1.390 . S
C2546 C2545 1.387 1_565 S
H2547 C2559 0.930 . S
H2548 C2561 0.930 . S
H2549 C2562 0.930 . S
H2550 C2566 0.959 . S
H2551 C2566 0.959 . S
H2552 C2566 0.961 . S
H2553 C2567 0.960 . S
H2554 C2567 0.961 . S
H2555 C2567 0.959 . S
H2556 C2570 0.929 . S
H2557 C2571 0.931 . S
H2558 C2573 0.930 . S
C2559 H2547 0.930 . S
C2559 C2560 1.399 . S
C2559 C2564 1.399 . S
C2560 C2559 1.399 . S
C2560 C2561 1.376 . S
C2561 H2548 0.930 . S
C2561 C2560 1.376 . S
C2561 C2562 1.388 . S
C2562 H2549 0.930 . S
C2562 C2561 1.388 . S
C2562 C2563 1.390 . S
C2563 C2562 1.390 . S
C2563 C2564 1.394 . S
C2563 C2569 1.465 . S
C2564 C2559 1.399 . S
C2564 C2563 1.394 . S
C2564 C2565 1.516 . S
C2565 C2564 1.516 . S
C2565 C2566 1.502 . S
C2565 C2567 1.561 . S
C2565 C2568 1.526 . S
C2566 H2550 0.959 . S
C2566 H2551 0.959 . S
C2566 H2552 0.961 . S
C2566 C2565 1.502 . S
C2567 H2553 0.960 . S
C2567 H2554 0.961 . S
C2567 H2555 0.959 . S
C2567 C2565 1.561 . S
C2568 C2565 1.526 . S
C2568 C2569 1.396 . S
C2568 C2573 1.390 . S
C2569 C2563 1.465 . S
C2569 C2568 1.396 . S
C2569 C2570 1.399 . S
C2570 H2556 0.929 . S
C2570 C2569 1.399 . S
C2570 C2571 1.385 . S
C2571 H2557 0.931 . S
C2571 C2570 1.385 . S
C2571 C2572 1.389 . S
C2572 C2571 1.389 . S
C2572 C2573 1.387 . S
C2573 H2558 0.930 . S
C2573 C2568 1.390 . S
C2573 C2572 1.387 . S
H2574 C2586 0.945 . S
H2575 C2588 0.930 . S
H2576 C2589 0.930 . S
H2577 C2593 0.959 1_545 S
H2578 C2593 0.959 . S
H2579 C2593 0.961 . S
H2580 C2594 0.960 . S
H2581 C2594 0.961 . S
H2582 C2594 0.959 . S
H2583 C2597 0.929 . S
H2584 C2598 0.931 . S
H2585 C2600 0.930 . S
C2586 H2574 0.945 . S
C2586 C2587 1.399 . S
C2586 C2591 1.399 . S
C2587 C2586 1.399 . S
C2587 C2588 1.376 . S
C2588 H2575 0.930 . S
C2588 C2587 1.376 . S
C2588 C2589 1.388 . S
C2589 H2576 0.930 . S
C2589 C2588 1.388 . S
C2589 C2590 1.390 . S
C2590 C2589 1.390 . S
C2590 C2591 1.394 . S
C2590 C2596 1.465 . S
C2591 C2586 1.399 . S
C2591 C2590 1.394 . S
C2591 C2592 1.516 . S
C2592 C2591 1.516 . S
C2592 C2593 1.502 1_545 S
C2592 C2594 1.561 1_545 S
C2592 C2595 1.526 . S
C2593 H2577 0.959 1_565 S
C2593 H2578 0.959 . S
C2593 H2579 0.961 . S
C2593 C2592 1.502 1_565 S
C2594 H2580 0.960 . S
C2594 H2581 0.961 . S
C2594 H2582 0.959 . S
C2594 C2592 1.561 1_565 S
C2595 C2592 1.526 . S
C2595 C2596 1.396 . S
C2595 C2600 1.390 . S
C2596 C2590 1.465 . S
C2596 C2595 1.396 . S
C2596 C2597 1.399 . S
C2597 H2583 0.929 . S
C2597 C2596 1.399 . S
C2597 C2598 1.385 . S
C2598 H2584 0.931 . S
C2598 C2597 1.385 . S
C2598 C2599 1.389 . S
C2599 C2598 1.389 . S
C2599 C2600 1.387 . S
C2600 H2585 0.930 . S
C2600 C2595 1.390 . S
C2600 C2599 1.387 . S
H2601 C2613 0.930 . S
H2602 C2615 0.930 . S
H2603 C2616 0.930 . S
H2604 C2620 0.959 . S
H2605 C2620 0.959 . S
H2606 C2620 0.961 . S
H2607 C2621 0.960 . S
H2608 C2621 0.961 . S
H2609 C2621 0.959 . S
H2610 C2624 0.929 . S
H2611 C2625 0.931 . S
H2612 C2627 0.930 . S
C2613 H2601 0.930 . S
C2613 C2614 1.399 . S
C2613 C2618 1.399 . S
C2614 C2613 1.399 . S
C2614 C2615 1.376 . S
C2615 H2602 0.930 . S
C2615 C2614 1.376 . S
C2615 C2616 1.388 . S
C2616 H2603 0.930 . S
C2616 C2615 1.388 . S
C2616 C2617 1.390 . S
C2617 C2616 1.390 . S
C2617 C2618 1.394 . S
C2617 C2623 1.465 . S
C2618 C2613 1.399 . S
C2618 C2617 1.394 . S
C2618 C2619 1.516 . S
C2619 C2618 1.516 . S
C2619 C2620 1.502 . S
C2619 C2621 1.561 . S
C2619 C2622 1.526 . S
C2620 H2604 0.959 . S
C2620 H2605 0.959 . S
C2620 H2606 0.961 . S
C2620 C2619 1.502 . S
C2621 H2607 0.960 . S
C2621 H2608 0.961 . S
C2621 H2609 0.959 . S
C2621 C2619 1.561 . S
C2622 C2619 1.526 . S
C2622 C2623 1.396 . S
C2622 C2627 1.390 . S
C2623 C2617 1.465 . S
C2623 C2622 1.396 . S
C2623 C2624 1.399 . S
C2624 H2610 0.929 . S
C2624 C2623 1.399 . S
C2624 C2625 1.385 . S
C2625 H2611 0.931 . S
C2625 C2624 1.385 . S
C2625 C2626 1.389 . S
C2626 C2625 1.389 . S
C2626 C2627 1.387 . S
C2627 H2612 0.930 . S
C2627 C2622 1.390 . S
C2627 C2626 1.387 . S
H2628 C2640 0.930 . S
H2629 C2642 0.930 . S
H2630 C2643 0.930 . S
H2631 C2647 0.959 . S
H2632 C2647 0.959 . S
H2633 C2647 0.961 . S
H2634 C2648 0.960 . S
H2635 C2648 0.961 . S
H2636 C2648 0.959 . S
H2637 C2651 0.929 . S
H2638 C2652 0.923 1_565 S
H2639 C2654 0.930 . S
C2640 H2628 0.930 . S
C2640 C2641 1.399 1_545 S
C2640 C2645 1.399 . S
C2641 C2640 1.399 1_565 S
C2641 C2642 1.376 . S
C2642 H2629 0.930 . S
C2642 C2641 1.376 . S
C2642 C2643 1.388 . S
C2643 H2630 0.930 . S
C2643 C2642 1.388 . S
C2643 C2644 1.390 1_565 S
C2644 C2643 1.390 1_545 S
C2644 C2645 1.394 . S
C2644 C2650 1.465 . S
C2645 C2640 1.399 . S
C2645 C2644 1.394 . S
C2645 C2646 1.516 . S
C2646 C2645 1.516 . S
C2646 C2647 1.502 . S
C2646 C2648 1.561 . S
C2646 C2649 1.526 . S
C2647 H2631 0.959 . S
C2647 H2632 0.959 . S
C2647 H2633 0.961 . S
C2647 C2646 1.502 . S
C2648 H2634 0.960 . S
C2648 H2635 0.961 . S
C2648 H2636 0.959 . S
C2648 C2646 1.561 . S
C2649 C2646 1.526 . S
C2649 C2650 1.396 . S
C2649 C2654 1.390 . S
C2650 C2644 1.465 . S
C2650 C2649 1.396 . S
C2650 C2651 1.399 1_545 S
C2651 H2637 0.929 . S
C2651 C2650 1.399 1_565 S
C2651 C2652 1.385 1_565 S
C2652 H2638 0.923 1_545 S
C2652 C2651 1.385 1_545 S
C2652 C2653 1.389 . S
C2653 C2652 1.389 . S
C2653 C2654 1.387 . S
C2654 H2639 0.930 . S
C2654 C2649 1.390 . S
C2654 C2653 1.387 . S
H2655 C2667 0.930 . S
H2656 C2669 0.930 . S
H2657 C2670 0.930 . S
H2658 C2674 0.959 . S
H2659 C2674 0.959 . S
H2660 C2674 0.961 . S
H2661 C2675 0.960 . S
H2662 C2675 0.961 . S
H2663 C2675 0.959 . S
H2664 C2678 0.929 . S
H2665 C2679 0.931 . S
H2666 C2681 0.930 . S
C2667 H2655 0.930 . S
C2667 C2668 1.399 . S
C2667 C2672 1.399 . S
C2668 C2667 1.399 . S
C2668 C2669 1.376 . S
C2669 H2656 0.930 . S
C2669 C2668 1.376 . S
C2669 C2670 1.388 . S
C2670 H2657 0.930 . S
C2670 C2669 1.388 . S
C2670 C2671 1.390 . S
C2671 C2670 1.390 . S
C2671 C2672 1.394 . S
C2671 C2677 1.465 . S
C2672 C2667 1.399 . S
C2672 C2671 1.394 . S
C2672 C2673 1.516 . S
C2673 C2672 1.516 . S
C2673 C2674 1.502 . S
C2673 C2675 1.561 . S
C2673 C2676 1.526 . S
C2674 H2658 0.959 . S
C2674 H2659 0.959 . S
C2674 H2660 0.961 . S
C2674 C2673 1.502 . S
C2675 H2661 0.960 . S
C2675 H2662 0.961 . S
C2675 H2663 0.959 . S
C2675 C2673 1.561 . S
C2676 C2673 1.526 . S
C2676 C2677 1.396 . S
C2676 C2681 1.390 . S
C2677 C2671 1.465 . S
C2677 C2676 1.396 . S
C2677 C2678 1.399 . S
C2678 H2664 0.929 . S
C2678 C2677 1.399 . S
C2678 C2679 1.385 . S
C2679 H2665 0.931 . S
C2679 C2678 1.385 . S
C2679 C2680 1.389 . S
C2680 C2679 1.389 . S
C2680 C2681 1.387 . S
C2681 H2666 0.930 . S
C2681 C2676 1.390 . S
C2681 C2680 1.387 . S
H2682 C2694 0.898 1_565 S
H2683 C2696 0.930 . S
H2684 C2697 0.930 . S
H2685 C2701 0.959 1_545 S
H2686 C2701 0.959 . S
H2687 C2701 0.961 . S
H2688 C2702 0.960 . S
H2689 C2702 0.961 . S
H2690 C2702 0.959 . S
H2691 C2705 0.929 . S
H2692 C2706 0.931 . S
H2693 C2708 0.895 1_565 S
C2694 H2682 0.898 1_545 S
C2694 C2695 1.424 . S
C2694 C2699 1.407 . S
C2695 C2694 1.424 . S
C2695 C2696 1.376 . S
C2696 H2683 0.930 . S
C2696 C2695 1.376 . S
C2696 C2697 1.388 . S
C2697 H2684 0.930 . S
C2697 C2696 1.388 . S
C2697 C2698 1.390 . S
C2698 C2697 1.390 . S
C2698 C2699 1.394 . S
C2698 C2704 1.465 . S
C2699 C2694 1.407 . S
C2699 C2698 1.394 . S
C2699 C2700 1.516 1_545 S
C2700 C2699 1.516 1_565 S
C2700 C2701 1.502 . S
C2700 C2702 1.561 . S
C2700 C2703 1.526 1_565 S
C2701 H2685 0.959 1_565 S
C2701 H2686 0.959 . S
C2701 H2687 0.961 . S
C2701 C2700 1.502 . S
C2702 H2688 0.960 . S
C2702 H2689 0.961 . S
C2702 H2690 0.959 . S
C2702 C2700 1.561 . S
C2703 C2700 1.526 1_545 S
C2703 C2704 1.396 . S
C2703 C2708 1.395 . S
C2704 C2698 1.465 . S
C2704 C2703 1.396 . S
C2704 C2705 1.399 . S
C2705 H2691 0.929 . S
C2705 C2704 1.399 . S
C2705 C2706 1.385 . S
C2706 H2692 0.931 . S
C2706 C2705 1.385 . S
C2706 C2707 1.389 . S
C2707 C2706 1.389 . S
C2707 C2708 1.416 . S
C2708 H2693 0.895 1_545 S
C2708 C2703 1.395 . S
C2708 C2707 1.416 . S
H2709 C2721 0.930 . S
H2710 C2723 0.930 . S
H2711 C2724 0.930 . S
H2712 C2728 0.959 . S
H2713 C2728 0.959 . S
H2714 C2728 0.961 . S
H2715 C2729 0.960 . S
H2716 C2729 0.961 . S
H2717 C2729 0.959 . S
H2718 C2732 0.929 . S
H2719 C2733 0.931 . S
H2720 C2735 0.930 . S
C2721 H2709 0.930 . S
C2721 C2722 1.399 . S
C2721 C2726 1.399 . S
C2722 C2721 1.399 . S
C2722 C2723 1.376 . S
C2723 H2710 0.930 . S
C2723 C2722 1.376 . S
C2723 C2724 1.388 . S
C2724 H2711 0.930 . S
C2724 C2723 1.388 . S
C2724 C2725 1.390 . S
C2725 C2724 1.390 . S
C2725 C2726 1.394 . S
C2725 C2731 1.465 . S
C2726 C2721 1.399 . S
C2726 C2725 1.394 . S
C2726 C2727 1.516 . S
C2727 C2726 1.516 . S
C2727 C2728 1.502 . S
C2727 C2729 1.561 . S
C2727 C2730 1.526 . S
C2728 H2712 0.959 . S
C2728 H2713 0.959 . S
C2728 H2714 0.961 . S
C2728 C2727 1.502 . S
C2729 H2715 0.960 . S
C2729 H2716 0.961 . S
C2729 H2717 0.959 . S
C2729 C2727 1.561 . S
C2730 C2727 1.526 . S
C2730 C2731 1.396 . S
C2730 C2735 1.390 . S
C2731 C2725 1.465 . S
C2731 C2730 1.396 . S
C2731 C2732 1.399 . S
C2732 H2718 0.929 . S
C2732 C2731 1.399 . S
C2732 C2733 1.385 . S
C2733 H2719 0.931 . S
C2733 C2732 1.385 . S
C2733 C2734 1.389 . S
C2734 C2733 1.389 . S
C2734 C2735 1.387 . S
C2735 H2720 0.930 . S
C2735 C2730 1.390 . S
C2735 C2734 1.387 . S
H2736 C2748 0.930 . S
H2737 C2750 0.930 . S
H2738 C2751 0.930 . S
H2739 C2755 0.959 . S
H2740 C2755 0.959 . S
H2741 C2755 0.961 . S
H2742 C2756 0.960 . S
H2743 C2756 0.961 . S
H2744 C2756 0.959 . S
H2745 C2759 0.929 . S
H2746 C2760 0.931 . S
H2747 C2762 0.930 . S
C2748 H2736 0.930 . S
C2748 C2749 1.399 . S
C2748 C2753 1.399 . S
C2749 C2748 1.399 . S
C2749 C2750 1.376 1_554 S
C2750 H2737 0.930 . S
C2750 C2749 1.376 1_556 S
C2750 C2751 1.388 . S
C2751 H2738 0.930 . S
C2751 C2750 1.388 . S
C2751 C2752 1.390 1_556 S
C2752 C2751 1.390 1_554 S
C2752 C2753 1.394 . S
C2752 C2758 1.465 1_554 S
C2753 C2748 1.399 . S
C2753 C2752 1.394 . S
C2753 C2754 1.516 . S
C2754 C2753 1.516 . S
C2754 C2755 1.502 . S
C2754 C2756 1.561 . S
C2754 C2757 1.526 . S
C2755 H2739 0.959 . S
C2755 H2740 0.959 . S
C2755 H2741 0.961 . S
C2755 C2754 1.502 . S
C2756 H2742 0.960 . S
C2756 H2743 0.961 . S
C2756 H2744 0.959 . S
C2756 C2754 1.561 . S
C2757 C2754 1.526 . S
C2757 C2758 1.396 1_554 S
C2757 C2762 1.390 . S
C2758 C2752 1.465 1_556 S
C2758 C2757 1.396 1_556 S
C2758 C2759 1.399 . S
C2759 H2745 0.929 . S
C2759 C2758 1.399 . S
C2759 C2760 1.385 . S
C2760 H2746 0.931 . S
C2760 C2759 1.385 . S
C2760 C2761 1.363 1_556 S
C2761 C2760 1.363 1_554 S
C2761 C2762 1.412 . S
C2762 H2747 0.930 . S
C2762 C2757 1.390 . S
C2762 C2761 1.412 . S
H2763 C2775 0.930 . S
H2764 C2777 0.930 . S
H2765 C2778 0.930 . S
H2766 C2782 0.946 1_554 S
H2767 C2782 0.959 . S
H2768 C2782 0.961 . S
H2769 C2783 0.960 1_556 S
H2770 C2783 0.961 1_556 S
H2771 C2783 0.959 . S
H2772 C2786 0.929 . S
H2773 C2787 0.931 . S
H2774 C2789 0.930 . S
C2775 H2763 0.930 . S
C2775 C2776 1.399 . S
C2775 C2780 1.399 . S
C2776 C2775 1.399 . S
C2776 C2777 1.376 . S
C2777 H2764 0.930 . S
C2777 C2776 1.376 . S
C2777 C2778 1.388 . S
C2778 H2765 0.930 . S
C2778 C2777 1.388 . S
C2778 C2779 1.390 . S
C2779 C2778 1.390 . S
C2779 C2780 1.394 . S
C2779 C2785 1.465 . S
C2780 C2775 1.399 . S
C2780 C2779 1.394 . S
C2780 C2781 1.516 . S
C2781 C2780 1.516 . S
C2781 C2782 1.502 1_554 S
C2781 C2783 1.561 . S
C2781 C2784 1.526 . S
C2782 H2766 0.946 1_556 S
C2782 H2767 0.959 . S
C2782 H2768 0.961 . S
C2782 C2781 1.502 1_556 S
C2783 H2769 0.960 1_554 S
C2783 H2770 0.961 1_554 S
C2783 H2771 0.959 . S
C2783 C2781 1.561 . S
C2784 C2781 1.526 . S
C2784 C2785 1.396 . S
C2784 C2789 1.390 . S
C2785 C2779 1.465 . S
C2785 C2784 1.396 . S
C2785 C2786 1.399 . S
C2786 H2772 0.929 . S
C2786 C2785 1.399 . S
C2786 C2787 1.385 . S
C2787 H2773 0.931 . S
C2787 C2786 1.385 . S
C2787 C2788 1.389 . S
C2788 C2787 1.389 . S
C2788 C2789 1.387 . S
C2789 H2774 0.930 . S
C2789 C2784 1.390 . S
C2789 C2788 1.387 . S
H2790 C2802 0.930 . S
H2791 C2804 0.930 . S
H2792 C2805 0.930 . S
H2793 C2809 0.959 . S
H2794 C2809 0.959 . S
H2795 C2809 0.961 . S
H2796 C2810 0.960 . S
H2797 C2810 0.961 . S
H2798 C2810 0.959 . S
H2799 C2813 0.929 . S
H2800 C2814 0.931 . S
H2801 C2816 0.930 . S
C2802 H2790 0.930 . S
C2802 C2803 1.399 . S
C2802 C2807 1.399 . S
C2803 C2802 1.399 . S
C2803 C2804 1.376 . S
C2804 H2791 0.930 . S
C2804 C2803 1.376 . S
C2804 C2805 1.388 . S
C2805 H2792 0.930 . S
C2805 C2804 1.388 . S
C2805 C2806 1.390 . S
C2806 C2805 1.390 . S
C2806 C2807 1.394 . S
C2806 C2812 1.465 . S
C2807 C2802 1.399 . S
C2807 C2806 1.394 . S
C2807 C2808 1.516 . S
C2808 C2807 1.516 . S
C2808 C2809 1.502 . S
C2808 C2810 1.561 . S
C2808 C2811 1.526 . S
C2809 H2793 0.959 . S
C2809 H2794 0.959 . S
C2809 H2795 0.961 . S
C2809 C2808 1.502 . S
C2810 H2796 0.960 . S
C2810 H2797 0.961 . S
C2810 H2798 0.959 . S
C2810 C2808 1.561 . S
C2811 C2808 1.526 . S
C2811 C2812 1.396 . S
C2811 C2816 1.390 . S
C2812 C2806 1.465 . S
C2812 C2811 1.396 . S
C2812 C2813 1.399 . S
C2813 H2799 0.929 . S
C2813 C2812 1.399 . S
C2813 C2814 1.385 . S
C2814 H2800 0.931 . S
C2814 C2813 1.385 . S
C2814 C2815 1.389 . S
C2815 C2814 1.389 . S
C2815 C2816 1.387 . S
C2816 H2801 0.930 . S
C2816 C2811 1.390 . S
C2816 C2815 1.387 . S
H2817 C2829 0.930 . S
H2818 C2831 0.930 . S
H2819 C2832 0.930 . S
H2820 C2836 0.959 . S
H2821 C2836 0.959 . S
H2822 C2836 0.961 . S
H2823 C2837 0.960 . S
H2824 C2837 0.961 . S
H2825 C2837 0.959 . S
H2826 C2840 0.929 . S
H2827 C2841 0.931 . S
H2828 C2843 0.930 . S
C2829 H2817 0.930 . S
C2829 C2830 1.399 . S
C2829 C2834 1.399 . S
C2830 C2829 1.399 . S
C2830 C2831 1.376 . S
C2831 H2818 0.930 . S
C2831 C2830 1.376 . S
C2831 C2832 1.388 . S
C2832 H2819 0.930 . S
C2832 C2831 1.388 . S
C2832 C2833 1.390 . S
C2833 C2832 1.390 . S
C2833 C2834 1.394 . S
C2833 C2839 1.465 . S
C2834 C2829 1.399 . S
C2834 C2833 1.394 . S
C2834 C2835 1.516 . S
C2835 C2834 1.516 . S
C2835 C2836 1.502 . S
C2835 C2837 1.561 . S
C2835 C2838 1.526 . S
C2836 H2820 0.959 . S
C2836 H2821 0.959 . S
C2836 H2822 0.961 . S
C2836 C2835 1.502 . S
C2837 H2823 0.960 . S
C2837 H2824 0.961 . S
C2837 H2825 0.959 . S
C2837 C2835 1.561 . S
C2838 C2835 1.526 . S
C2838 C2839 1.396 . S
C2838 C2843 1.390 . S
C2839 C2833 1.465 . S
C2839 C2838 1.396 . S
C2839 C2840 1.399 . S
C2840 H2826 0.929 . S
C2840 C2839 1.399 . S
C2840 C2841 1.385 . S
C2841 H2827 0.931 . S
C2841 C2840 1.385 . S
C2841 C2842 1.389 . S
C2842 C2841 1.389 . S
C2842 C2843 1.387 . S
C2843 H2828 0.930 . S
C2843 C2838 1.390 . S
C2843 C2842 1.387 . S
H2844 C2856 0.930 1_545 S
H2845 C2858 0.930 . S
H2846 C2859 0.930 . S
H2847 C2863 0.959 . S
H2848 C2863 0.959 . S
H2849 C2863 0.961 . S
H2850 C2864 0.960 . S
H2851 C2864 0.961 . S
H2852 C2864 0.959 . S
H2853 C2867 0.929 . S
H2854 C2868 0.931 . S
H2855 C2870 0.930 . S
C2856 H2844 0.930 1_565 S
C2856 C2857 1.399 . S
C2856 C2861 1.399 . S
C2857 C2856 1.399 . S
C2857 C2858 1.376 . S
C2858 H2845 0.930 . S
C2858 C2857 1.376 . S
C2858 C2859 1.388 . S
C2859 H2846 0.930 . S
C2859 C2858 1.388 . S
C2859 C2860 1.390 . S
C2860 C2859 1.390 . S
C2860 C2861 1.394 . S
C2860 C2866 1.465 . S
C2861 C2856 1.399 . S
C2861 C2860 1.394 . S
C2861 C2862 1.516 . S
C2862 C2861 1.516 . S
C2862 C2863 1.502 . S
C2862 C2864 1.561 1_565 S
C2862 C2865 1.526 . S
C2863 H2847 0.959 . S
C2863 H2848 0.959 . S
C2863 H2849 0.961 . S
C2863 C2862 1.502 . S
C2864 H2850 0.960 . S
C2864 H2851 0.961 . S
C2864 H2852 0.959 . S
C2864 C2862 1.561 1_545 S
C2865 C2862 1.526 . S
C2865 C2866 1.396 . S
C2865 C2870 1.390 . S
C2866 C2860 1.465 . S
C2866 C2865 1.396 . S
C2866 C2867 1.399 . S
C2867 H2853 0.929 . S
C2867 C2866 1.399 . S
C2867 C2868 1.385 . S
C2868 H2854 0.931 . S
C2868 C2867 1.385 . S
C2868 C2869 1.389 . S
C2869 C2868 1.389 . S
C2869 C2870 1.387 . S
C2870 H2855 0.930 . S
C2870 C2865 1.390 . S
C2870 C2869 1.387 . S
H2871 C2883 0.930 . S
H2872 C2885 0.930 . S
H2873 C2886 0.930 . S
H2874 C2890 0.959 . S
H2875 C2890 0.959 . S
H2876 C2890 0.961 . S
H2877 C2891 0.960 . S
H2878 C2891 0.961 . S
H2879 C2891 0.959 . S
H2880 C2894 0.929 . S
H2881 C2895 0.931 . S
H2882 C2897 0.930 . S
C2883 H2871 0.930 . S
C2883 C2884 1.399 . S
C2883 C2888 1.399 . S
C2884 C2883 1.399 . S
C2884 C2885 1.376 . S
C2885 H2872 0.930 . S
C2885 C2884 1.376 . S
C2885 C2886 1.388 . S
C2886 H2873 0.930 . S
C2886 C2885 1.388 . S
C2886 C2887 1.390 . S
C2887 C2886 1.390 . S
C2887 C2888 1.394 . S
C2887 C2893 1.465 . S
C2888 C2883 1.399 . S
C2888 C2887 1.394 . S
C2888 C2889 1.516 . S
C2889 C2888 1.516 . S
C2889 C2890 1.502 . S
C2889 C2891 1.561 . S
C2889 C2892 1.526 . S
C2890 H2874 0.959 . S
C2890 H2875 0.959 . S
C2890 H2876 0.961 . S
C2890 C2889 1.502 . S
C2891 H2877 0.960 . S
C2891 H2878 0.961 . S
C2891 H2879 0.959 . S
C2891 C2889 1.561 . S
C2892 C2889 1.526 . S
C2892 C2893 1.396 . S
C2892 C2897 1.390 . S
C2893 C2887 1.465 . S
C2893 C2892 1.396 . S
C2893 C2894 1.399 . S
C2894 H2880 0.929 . S
C2894 C2893 1.399 . S
C2894 C2895 1.385 . S
C2895 H2881 0.931 . S
C2895 C2894 1.385 . S
C2895 C2896 1.389 . S
C2896 C2895 1.389 . S
C2896 C2897 1.387 . S
C2897 H2882 0.930 . S
C2897 C2892 1.390 . S
C2897 C2896 1.387 . S
H2898 C2910 0.930 . S
H2899 C2912 0.930 . S
H2900 C2913 0.930 . S
H2901 C2917 0.959 . S
H2902 C2917 0.959 . S
H2903 C2917 0.961 . S
H2904 C2918 0.960 . S
H2905 C2918 0.961 . S
H2906 C2918 0.959 . S
H2907 C2921 0.929 . S
H2908 C2922 0.931 . S
H2909 C2924 0.930 . S
C2910 H2898 0.930 . S
C2910 C2911 1.399 . S
C2910 C2915 1.399 . S
C2911 C2910 1.399 . S
C2911 C2912 1.376 . S
C2912 H2899 0.930 . S
C2912 C2911 1.376 . S
C2912 C2913 1.388 . S
C2913 H2900 0.930 . S
C2913 C2912 1.388 . S
C2913 C2914 1.390 . S
C2914 C2913 1.390 . S
C2914 C2915 1.394 . S
C2914 C2920 1.465 . S
C2915 C2910 1.399 . S
C2915 C2914 1.394 . S
C2915 C2916 1.516 . S
C2916 C2915 1.516 . S
C2916 C2917 1.502 . S
C2916 C2918 1.561 . S
C2916 C2919 1.526 . S
C2917 H2901 0.959 . S
C2917 H2902 0.959 . S
C2917 H2903 0.961 . S
C2917 C2916 1.502 . S
C2918 H2904 0.960 . S
C2918 H2905 0.961 . S
C2918 H2906 0.959 . S
C2918 C2916 1.561 . S
C2919 C2916 1.526 . S
C2919 C2920 1.396 . S
C2919 C2924 1.390 . S
C2920 C2914 1.465 . S
C2920 C2919 1.396 . S
C2920 C2921 1.399 . S
C2921 H2907 0.929 . S
C2921 C2920 1.399 . S
C2921 C2922 1.385 . S
C2922 H2908 0.931 . S
C2922 C2921 1.385 . S
C2922 C2923 1.389 . S
C2923 C2922 1.389 . S
C2923 C2924 1.387 . S
C2924 H2909 0.930 . S
C2924 C2919 1.390 . S
C2924 C2923 1.387 . S
H2925 C2937 0.930 . S
H2926 C2939 0.930 . S
H2927 C2940 0.930 . S
H2928 C2944 0.959 . S
H2929 C2944 0.959 . S
H2930 C2944 0.961 . S
H2931 C2945 0.960 . S
H2932 C2945 0.961 . S
H2933 C2945 0.959 . S
H2934 C2948 0.929 . S
H2935 C2949 0.931 . S
H2936 C2951 0.930 . S
C2937 H2925 0.930 . S
C2937 C2938 1.399 . S
C2937 C2942 1.399 . S
C2938 C2937 1.399 . S
C2938 C2939 1.376 . S
C2939 H2926 0.930 . S
C2939 C2938 1.376 . S
C2939 C2940 1.388 . S
C2940 H2927 0.930 . S
C2940 C2939 1.388 . S
C2940 C2941 1.390 . S
C2941 C2940 1.390 . S
C2941 C2942 1.394 . S
C2941 C2947 1.465 . S
C2942 C2937 1.399 . S
C2942 C2941 1.394 . S
C2942 C2943 1.516 . S
C2943 C2942 1.516 . S
C2943 C2944 1.502 . S
C2943 C2945 1.561 . S
C2943 C2946 1.526 . S
C2944 H2928 0.959 . S
C2944 H2929 0.959 . S
C2944 H2930 0.961 . S
C2944 C2943 1.502 . S
C2945 H2931 0.960 . S
C2945 H2932 0.961 . S
C2945 H2933 0.959 . S
C2945 C2943 1.561 . S
C2946 C2943 1.526 . S
C2946 C2947 1.396 . S
C2946 C2951 1.390 . S
C2947 C2941 1.465 . S
C2947 C2946 1.396 . S
C2947 C2948 1.399 . S
C2948 H2934 0.929 . S
C2948 C2947 1.399 . S
C2948 C2949 1.385 . S
C2949 H2935 0.931 . S
C2949 C2948 1.385 . S
C2949 C2950 1.389 . S
C2950 C2949 1.389 . S
C2950 C2951 1.387 . S
C2951 H2936 0.930 . S
C2951 C2946 1.390 . S
C2951 C2950 1.387 . S
H2952 C2964 0.930 . S
H2953 C2966 0.930 . S
H2954 C2967 0.930 . S
H2955 C2971 0.959 . S
H2956 C2971 0.959 . S
H2957 C2971 0.961 . S
H2958 C2972 0.960 . S
H2959 C2972 0.961 . S
H2960 C2972 0.959 . S
H2961 C2975 0.929 . S
H2962 C2976 0.931 . S
H2963 C2978 0.930 . S
C2964 H2952 0.930 . S
C2964 C2965 1.399 . S
C2964 C2969 1.399 . S
C2965 C2964 1.399 . S
C2965 C2966 1.376 . S
C2966 H2953 0.930 . S
C2966 C2965 1.376 . S
C2966 C2967 1.388 . S
C2967 H2954 0.930 . S
C2967 C2966 1.388 . S
C2967 C2968 1.390 . S
C2968 C2967 1.390 . S
C2968 C2969 1.394 . S
C2968 C2974 1.465 . S
C2969 C2964 1.399 . S
C2969 C2968 1.394 . S
C2969 C2970 1.516 . S
C2970 C2969 1.516 . S
C2970 C2971 1.502 . S
C2970 C2972 1.561 . S
C2970 C2973 1.526 . S
C2971 H2955 0.959 . S
C2971 H2956 0.959 . S
C2971 H2957 0.961 . S
C2971 C2970 1.502 . S
C2972 H2958 0.960 . S
C2972 H2959 0.961 . S
C2972 H2960 0.959 . S
C2972 C2970 1.561 . S
C2973 C2970 1.526 . S
C2973 C2974 1.396 . S
C2973 C2978 1.390 . S
C2974 C2968 1.465 . S
C2974 C2973 1.396 . S
C2974 C2975 1.399 . S
C2975 H2961 0.929 . S
C2975 C2974 1.399 . S
C2975 C2976 1.385 . S
C2976 H2962 0.931 . S
C2976 C2975 1.385 . S
C2976 C2977 1.389 . S
C2977 C2976 1.389 . S
C2977 C2978 1.387 . S
C2978 H2963 0.930 . S
C2978 C2973 1.390 . S
C2978 C2977 1.387 . S
H2979 C2991 0.930 . S
H2980 C2993 0.930 . S
H2981 C2994 0.930 . S
H2982 C2998 0.959 . S
H2983 C2998 0.959 . S
H2984 C2998 0.961 . S
H2985 C2999 0.960 . S
H2986 C2999 0.961 . S
H2987 C2999 0.959 . S
H2988 C3002 0.929 . S
H2989 C3003 0.931 . S
H2990 C3005 0.930 . S
C2991 H2979 0.930 . S
C2991 C2992 1.399 . S
C2991 C2996 1.399 . S
C2992 C2991 1.399 . S
C2992 C2993 1.376 . S
C2993 H2980 0.930 . S
C2993 C2992 1.376 . S
C2993 C2994 1.388 . S
C2994 H2981 0.930 . S
C2994 C2993 1.388 . S
C2994 C2995 1.390 . S
C2995 C2994 1.390 . S
C2995 C2996 1.394 . S
C2995 C3001 1.465 . S
C2996 C2991 1.399 . S
C2996 C2995 1.394 . S
C2996 C2997 1.516 . S
C2997 C2996 1.516 . S
C2997 C2998 1.502 . S
C2997 C2999 1.561 . S
C2997 C3000 1.526 . S
C2998 H2982 0.959 . S
C2998 H2983 0.959 . S
C2998 H2984 0.961 . S
C2998 C2997 1.502 . S
C2999 H2985 0.960 . S
C2999 H2986 0.961 . S
C2999 H2987 0.959 . S
C2999 C2997 1.561 . S
C3000 C2997 1.526 . S
C3000 C3001 1.396 . S
C3000 C3005 1.390 . S
C3001 C2995 1.465 . S
C3001 C3000 1.396 . S
C3001 C3002 1.399 . S
C3002 H2988 0.929 . S
C3002 C3001 1.399 . S
C3002 C3003 1.385 . S
C3003 H2989 0.931 . S
C3003 C3002 1.385 . S
C3003 C3004 1.389 . S
C3004 C3003 1.389 . S
C3004 C3005 1.387 . S
C3005 H2990 0.930 . S
C3005 C3000 1.390 . S
C3005 C3004 1.387 . S
H3006 C3018 0.930 . S
H3007 C3020 0.930 . S
H3008 C3021 0.930 . S
H3009 C3025 0.959 . S
H3010 C3025 0.959 . S
H3011 C3025 0.961 . S
H3012 C3026 0.960 . S
H3013 C3026 0.961 . S
H3014 C3026 0.959 . S
H3015 C3029 0.929 . S
H3016 C3030 0.931 . S
H3017 C3032 0.930 . S
C3018 H3006 0.930 . S
C3018 C3019 1.399 . S
C3018 C3023 1.399 . S
C3019 C3018 1.399 . S
C3019 C3020 1.376 1_556 S
C3020 H3007 0.930 . S
C3020 C3019 1.376 1_554 S
C3020 C3021 1.388 . S
C3021 H3008 0.930 . S
C3021 C3020 1.388 . S
C3021 C3022 1.393 1_554 S
C3022 C3021 1.393 1_556 S
C3022 C3023 1.389 . S
C3022 C3028 1.465 1_556 S
C3023 C3018 1.399 . S
C3023 C3022 1.389 . S
C3023 C3024 1.516 . S
C3024 C3023 1.516 . S
C3024 C3025 1.502 . S
C3024 C3026 1.561 . S
C3024 C3027 1.526 . S
C3025 H3009 0.959 . S
C3025 H3010 0.959 . S
C3025 H3011 0.961 . S
C3025 C3024 1.502 . S
C3026 H3012 0.960 . S
C3026 H3013 0.961 . S
C3026 H3014 0.959 . S
C3026 C3024 1.561 . S
C3027 C3024 1.526 . S
C3027 C3028 1.396 1_556 S
C3027 C3032 1.390 . S
C3028 C3022 1.465 1_554 S
C3028 C3027 1.396 1_554 S
C3028 C3029 1.399 . S
C3029 H3015 0.929 . S
C3029 C3028 1.399 . S
C3029 C3030 1.385 . S
C3030 H3016 0.931 . S
C3030 C3029 1.385 . S
C3030 C3031 1.389 . S
C3031 C3030 1.389 . S
C3031 C3032 1.387 1_554 S
C3032 H3017 0.930 . S
C3032 C3027 1.390 . S
C3032 C3031 1.387 1_556 S
H3033 C3045 0.930 . S
H3034 C3047 0.930 . S
H3035 C3048 0.930 . S
H3036 C3052 0.959 . S
H3037 C3052 0.959 1_655 S
H3038 C3052 0.961 . S
H3039 C3053 0.960 . S
H3040 C3053 0.961 . S
H3041 C3053 0.959 . S
H3042 C3056 0.929 . S
H3043 C3057 0.931 . S
H3044 C3059 0.930 . S
C3045 H3033 0.930 . S
C3045 C3046 1.399 . S
C3045 C3050 1.399 . S
C3046 C3045 1.399 . S
C3046 C3047 1.376 . S
C3047 H3034 0.930 . S
C3047 C3046 1.376 . S
C3047 C3048 1.388 1_455 S
C3048 H3035 0.930 . S
C3048 C3047 1.388 1_655 S
C3048 C3049 1.390 . S
C3049 C3048 1.390 . S
C3049 C3050 1.394 1_655 S
C3049 C3055 1.465 . S
C3050 C3045 1.399 . S
C3050 C3049 1.394 1_455 S
C3050 C3051 1.516 1_455 S
C3051 C3050 1.516 1_655 S
C3051 C3052 1.502 1_655 S
C3051 C3053 1.561 . S
C3051 C3054 1.526 . S
C3052 H3036 0.959 . S
C3052 H3037 0.959 1_455 S
C3052 H3038 0.961 . S
C3052 C3051 1.502 1_455 S
C3053 H3039 0.960 . S
C3053 H3040 0.961 . S
C3053 H3041 0.959 . S
C3053 C3051 1.561 . S
C3054 C3051 1.526 . S
C3054 C3055 1.396 . S
C3054 C3059 1.390 . S
C3055 C3049 1.465 . S
C3055 C3054 1.396 . S
C3055 C3056 1.399 . S
C3056 H3042 0.929 . S
C3056 C3055 1.399 . S
C3056 C3057 1.385 . S
C3057 H3043 0.931 . S
C3057 C3056 1.385 . S
C3057 C3058 1.389 . S
C3058 C3057 1.389 . S
C3058 C3059 1.387 . S
C3059 H3044 0.930 . S
C3059 C3054 1.390 . S
C3059 C3058 1.387 . S
H3060 C3072 0.930 . S
H3061 C3074 0.930 . S
H3062 C3075 0.930 . S
H3063 C3079 0.959 . S
H3064 C3079 0.959 . S
H3065 C3079 0.961 . S
H3066 C3080 0.960 . S
H3067 C3080 0.961 . S
H3068 C3080 0.959 . S
H3069 C3083 0.929 . S
H3070 C3084 0.931 . S
H3071 C3086 0.930 . S
C3072 H3060 0.930 . S
C3072 C3073 1.399 . S
C3072 C3077 1.399 . S
C3073 C3072 1.399 . S
C3073 C3074 1.376 . S
C3074 H3061 0.930 . S
C3074 C3073 1.376 . S
C3074 C3075 1.388 . S
C3075 H3062 0.930 . S
C3075 C3074 1.388 . S
C3075 C3076 1.390 . S
C3076 C3075 1.390 . S
C3076 C3077 1.394 . S
C3076 C3082 1.465 . S
C3077 C3072 1.399 . S
C3077 C3076 1.394 . S
C3077 C3078 1.516 . S
C3078 C3077 1.516 . S
C3078 C3079 1.502 . S
C3078 C3080 1.561 . S
C3078 C3081 1.526 . S
C3079 H3063 0.959 . S
C3079 H3064 0.959 . S
C3079 H3065 0.961 . S
C3079 C3078 1.502 . S
C3080 H3066 0.960 . S
C3080 H3067 0.961 . S
C3080 H3068 0.959 . S
C3080 C3078 1.561 . S
C3081 C3078 1.526 . S
C3081 C3082 1.396 . S
C3081 C3086 1.390 . S
C3082 C3076 1.465 . S
C3082 C3081 1.396 . S
C3082 C3083 1.399 . S
C3083 H3069 0.929 . S
C3083 C3082 1.399 . S
C3083 C3084 1.385 . S
C3084 H3070 0.931 . S
C3084 C3083 1.385 . S
C3084 C3085 1.389 . S
C3085 C3084 1.389 . S
C3085 C3086 1.387 . S
C3086 H3071 0.930 . S
C3086 C3081 1.390 . S
C3086 C3085 1.387 . S
H3087 C3099 0.930 . S
H3088 C3101 0.930 . S
H3089 C3102 0.930 . S
H3090 C3106 0.960 . S
H3091 C3106 0.951 1_655 S
H3092 C3106 0.971 . S
H3093 C3107 0.952 1_455 S
H3094 C3107 0.961 . S
H3095 C3107 0.959 . S
H3096 C3110 0.929 . S
H3097 C3111 0.931 . S
H3098 C3113 0.930 . S
C3099 H3087 0.930 . S
C3099 C3100 1.399 . S
C3099 C3104 1.399 . S
C3100 C3099 1.399 . S
C3100 C3101 1.376 . S
C3101 H3088 0.930 . S
C3101 C3100 1.376 . S
C3101 C3102 1.388 . S
C3102 H3089 0.930 . S
C3102 C3101 1.388 . S
C3102 C3103 1.390 . S
C3103 C3102 1.390 . S
C3103 C3104 1.394 . S
C3103 C3109 1.465 1_455 S
C3104 C3099 1.399 . S
C3104 C3103 1.394 . S
C3104 C3105 1.516 1_455 S
C3105 C3104 1.516 1_655 S
C3105 C3106 1.499 1_655 S
C3105 C3107 1.561 . S
C3105 C3108 1.526 . S
C3106 H3090 0.960 . S
C3106 H3091 0.951 1_455 S
C3106 H3092 0.971 . S
C3106 C3105 1.499 1_455 S
C3107 H3093 0.952 1_655 S
C3107 H3094 0.961 . S
C3107 H3095 0.959 . S
C3107 C3105 1.561 . S
C3108 C3105 1.526 . S
C3108 C3109 1.396 . S
C3108 C3113 1.390 . S
C3109 C3103 1.465 1_655 S
C3109 C3108 1.396 . S
C3109 C3110 1.399 . S
C3110 H3096 0.929 . S
C3110 C3109 1.399 . S
C3110 C3111 1.385 . S
C3111 H3097 0.931 . S
C3111 C3110 1.385 . S
C3111 C3112 1.389 . S
C3112 C3111 1.389 . S
C3112 C3113 1.387 . S
C3113 H3098 0.930 . S
C3113 C3108 1.390 . S
C3113 C3112 1.387 . S
H3114 C3126 0.914 1_655 S
H3115 C3128 0.915 1_655 S
H3116 C3129 0.930 . S
H3117 C3133 0.959 1_655 S
H3118 C3133 0.959 . S
H3119 C3133 0.961 1_655 S
H3120 C3134 0.960 . S
H3121 C3134 0.961 . S
H3122 C3134 0.959 . S
H3123 C3137 0.929 . S
H3124 C3138 0.931 . S
H3125 C3140 0.930 . S
C3126 H3114 0.914 1_455 S
C3126 C3127 1.399 1_455 S
C3126 C3131 1.399 . S
C3127 C3126 1.399 1_655 S
C3127 C3128 1.376 1_655 S
C3128 H3115 0.915 1_455 S
C3128 C3127 1.376 1_455 S
C3128 C3129 1.388 . S
C3129 H3116 0.930 . S
C3129 C3128 1.388 . S
C3129 C3130 1.390 . S
C3130 C3129 1.390 . S
C3130 C3131 1.394 . S
C3130 C3136 1.465 . S
C3131 C3126 1.399 . S
C3131 C3130 1.394 . S
C3131 C3132 1.516 . S
C3132 C3131 1.516 . S
C3132 C3133 1.502 . S
C3132 C3134 1.561 . S
C3132 C3135 1.526 . S
C3133 H3117 0.959 1_455 S
C3133 H3118 0.959 . S
C3133 H3119 0.961 1_455 S
C3133 C3132 1.502 . S
C3134 H3120 0.960 . S
C3134 H3121 0.961 . S
C3134 H3122 0.959 . S
C3134 C3132 1.561 . S
C3135 C3132 1.526 . S
C3135 C3136 1.396 . S
C3135 C3140 1.390 . S
C3136 C3130 1.465 . S
C3136 C3135 1.396 . S
C3136 C3137 1.399 . S
C3137 H3123 0.929 . S
C3137 C3136 1.399 . S
C3137 C3138 1.385 . S
C3138 H3124 0.931 . S
C3138 C3137 1.385 . S
C3138 C3139 1.389 . S
C3139 C3138 1.389 . S
C3139 C3140 1.387 . S
C3140 H3125 0.930 . S
C3140 C3135 1.390 . S
C3140 C3139 1.387 . S
H3141 C3153 0.930 . S
H3142 C3155 0.930 . S
H3143 C3156 0.930 . S
H3144 C3160 0.959 . S
H3145 C3160 0.959 . S
H3146 C3160 0.961 . S
H3147 C3161 0.960 . S
H3148 C3161 0.961 . S
H3149 C3161 0.959 . S
H3150 C3164 0.929 . S
H3151 C3165 0.931 . S
H3152 C3167 0.930 . S
C3153 H3141 0.930 . S
C3153 C3154 1.399 . S
C3153 C3158 1.399 . S
C3154 C3153 1.399 . S
C3154 C3155 1.376 . S
C3155 H3142 0.930 . S
C3155 C3154 1.376 . S
C3155 C3156 1.388 . S
C3156 H3143 0.930 . S
C3156 C3155 1.388 . S
C3156 C3157 1.390 . S
C3157 C3156 1.390 . S
C3157 C3158 1.394 . S
C3157 C3163 1.465 . S
C3158 C3153 1.399 . S
C3158 C3157 1.394 . S
C3158 C3159 1.516 . S
C3159 C3158 1.516 . S
C3159 C3160 1.502 . S
C3159 C3161 1.561 . S
C3159 C3162 1.526 . S
C3160 H3144 0.959 . S
C3160 H3145 0.959 . S
C3160 H3146 0.961 . S
C3160 C3159 1.502 . S
C3161 H3147 0.960 . S
C3161 H3148 0.961 . S
C3161 H3149 0.959 . S
C3161 C3159 1.561 . S
C3162 C3159 1.526 . S
C3162 C3163 1.396 . S
C3162 C3167 1.390 . S
C3163 C3157 1.465 . S
C3163 C3162 1.396 . S
C3163 C3164 1.399 . S
C3164 H3150 0.929 . S
C3164 C3163 1.399 . S
C3164 C3165 1.385 . S
C3165 H3151 0.931 . S
C3165 C3164 1.385 . S
C3165 C3166 1.389 . S
C3166 C3165 1.389 . S
C3166 C3167 1.387 . S
C3167 H3152 0.930 . S
C3167 C3162 1.390 . S
C3167 C3166 1.387 . S
H3168 C3180 0.930 . S
H3169 C3182 0.930 . S
H3170 C3183 0.930 . S
H3171 C3187 0.959 . S
H3172 C3187 0.959 . S
H3173 C3187 0.961 . S
H3174 C3188 0.960 . S
H3175 C3188 0.961 . S
H3176 C3188 0.959 . S
H3177 C3191 0.929 . S
H3178 C3192 0.931 . S
H3179 C3194 0.930 . S
C3180 H3168 0.930 . S
C3180 C3181 1.399 . S
C3180 C3185 1.399 . S
C3181 C3180 1.399 . S
C3181 C3182 1.376 . S
C3182 H3169 0.930 . S
C3182 C3181 1.376 . S
C3182 C3183 1.388 . S
C3183 H3170 0.930 . S
C3183 C3182 1.388 . S
C3183 C3184 1.390 . S
C3184 C3183 1.390 . S
C3184 C3185 1.394 . S
C3184 C3190 1.465 . S
C3185 C3180 1.399 . S
C3185 C3184 1.394 . S
C3185 C3186 1.516 . S
C3186 C3185 1.516 . S
C3186 C3187 1.502 . S
C3186 C3188 1.561 . S
C3186 C3189 1.526 . S
C3187 H3171 0.959 . S
C3187 H3172 0.959 . S
C3187 H3173 0.961 . S
C3187 C3186 1.502 . S
C3188 H3174 0.960 . S
C3188 H3175 0.961 . S
C3188 H3176 0.959 . S
C3188 C3186 1.561 . S
C3189 C3186 1.526 . S
C3189 C3190 1.396 . S
C3189 C3194 1.390 . S
C3190 C3184 1.465 . S
C3190 C3189 1.396 . S
C3190 C3191 1.399 . S
C3191 H3177 0.929 . S
C3191 C3190 1.399 . S
C3191 C3192 1.385 . S
C3192 H3178 0.931 . S
C3192 C3191 1.385 . S
C3192 C3193 1.389 . S
C3193 C3192 1.389 . S
C3193 C3194 1.387 . S
C3194 H3179 0.930 . S
C3194 C3189 1.390 . S
C3194 C3193 1.387 . S
H3195 C3207 0.930 . S
H3196 C3209 0.930 1_554 S
H3197 C3210 0.930 . S
H3198 C3214 0.959 . S
H3199 C3214 0.959 . S
H3200 C3214 0.961 . S
H3201 C3215 0.960 . S
H3202 C3215 0.961 . S
H3203 C3215 0.959 . S
H3204 C3218 0.929 . S
H3205 C3219 0.931 . S
H3206 C3221 0.930 . S
C3207 H3195 0.930 . S
C3207 C3208 1.399 . S
C3207 C3212 1.399 . S
C3208 C3207 1.399 . S
C3208 C3209 1.376 . S
C3209 H3196 0.930 1_556 S
C3209 C3208 1.376 . S
C3209 C3210 1.388 . S
C3210 H3197 0.930 . S
C3210 C3209 1.388 . S
C3210 C3211 1.390 . S
C3211 C3210 1.390 . S
C3211 C3212 1.394 . S
C3211 C3217 1.465 . S
C3212 C3207 1.399 . S
C3212 C3211 1.394 . S
C3212 C3213 1.516 . S
C3213 C3212 1.516 . S
C3213 C3214 1.502 . S
C3213 C3215 1.561 . S
C3213 C3216 1.526 . S
C3214 H3198 0.959 . S
C3214 H3199 0.959 . S
C3214 H3200 0.961 . S
C3214 C3213 1.502 . S
C3215 H3201 0.960 . S
C3215 H3202 0.961 . S
C3215 H3203 0.959 . S
C3215 C3213 1.561 . S
C3216 C3213 1.526 . S
C3216 C3217 1.396 . S
C3216 C3221 1.390 . S
C3217 C3211 1.465 . S
C3217 C3216 1.396 . S
C3217 C3218 1.399 . S
C3218 H3204 0.929 . S
C3218 C3217 1.399 . S
C3218 C3219 1.385 . S
C3219 H3205 0.931 . S
C3219 C3218 1.385 . S
C3219 C3220 1.389 . S
C3220 C3219 1.389 . S
C3220 C3221 1.387 . S
C3221 H3206 0.930 . S
C3221 C3216 1.390 . S
C3221 C3220 1.387 . S
H3222 C3234 0.930 . S
H3223 C3236 0.930 . S
H3224 C3237 0.930 . S
H3225 C3241 0.959 . S
H3226 C3241 0.959 . S
H3227 C3241 0.961 . S
H3228 C3242 0.960 . S
H3229 C3242 0.961 . S
H3230 C3242 0.959 . S
H3231 C3245 0.929 . S
H3232 C3246 0.931 . S
H3233 C3248 0.930 . S
C3234 H3222 0.930 . S
C3234 C3235 1.399 . S
C3234 C3239 1.399 . S
C3235 C3234 1.399 . S
C3235 C3236 1.376 . S
C3236 H3223 0.930 . S
C3236 C3235 1.376 . S
C3236 C3237 1.388 . S
C3237 H3224 0.930 . S
C3237 C3236 1.388 . S
C3237 C3238 1.390 . S
C3238 C3237 1.390 . S
C3238 C3239 1.394 . S
C3238 C3244 1.465 . S
C3239 C3234 1.399 . S
C3239 C3238 1.394 . S
C3239 C3240 1.516 . S
C3240 C3239 1.516 . S
C3240 C3241 1.502 . S
C3240 C3242 1.561 . S
C3240 C3243 1.526 . S
C3241 H3225 0.959 . S
C3241 H3226 0.959 . S
C3241 H3227 0.961 . S
C3241 C3240 1.502 . S
C3242 H3228 0.960 . S
C3242 H3229 0.961 . S
C3242 H3230 0.959 . S
C3242 C3240 1.561 . S
C3243 C3240 1.526 . S
C3243 C3244 1.396 . S
C3243 C3248 1.390 . S
C3244 C3238 1.465 . S
C3244 C3243 1.396 . S
C3244 C3245 1.399 . S
C3245 H3231 0.929 . S
C3245 C3244 1.399 . S
C3245 C3246 1.385 . S
C3246 H3232 0.931 . S
C3246 C3245 1.385 . S
C3246 C3247 1.389 . S
C3247 C3246 1.389 . S
C3247 C3248 1.387 . S
C3248 H3233 0.930 . S
C3248 C3243 1.390 . S
C3248 C3247 1.387 . S
H3249 C3261 0.930 . S
H3250 C3263 0.930 . S
H3251 C3264 0.930 . S
H3252 C3268 0.959 . S
H3253 C3268 0.959 . S
H3254 C3268 0.961 . S
H3255 C3269 0.960 . S
H3256 C3269 0.961 . S
H3257 C3269 0.959 . S
H3258 C3272 0.929 . S
H3259 C3273 0.931 . S
H3260 C3275 0.930 . S
C3261 H3249 0.930 . S
C3261 C3262 1.399 . S
C3261 C3266 1.399 . S
C3262 C3261 1.399 . S
C3262 C3263 1.376 . S
C3263 H3250 0.930 . S
C3263 C3262 1.376 . S
C3263 C3264 1.388 . S
C3264 H3251 0.930 . S
C3264 C3263 1.388 . S
C3264 C3265 1.390 . S
C3265 C3264 1.390 . S
C3265 C3266 1.394 . S
C3265 C3271 1.465 . S
C3266 C3261 1.399 . S
C3266 C3265 1.394 . S
C3266 C3267 1.516 . S
C3267 C3266 1.516 . S
C3267 C3268 1.502 . S
C3267 C3269 1.561 . S
C3267 C3270 1.526 . S
C3268 H3252 0.959 . S
C3268 H3253 0.959 . S
C3268 H3254 0.961 . S
C3268 C3267 1.502 . S
C3269 H3255 0.960 . S
C3269 H3256 0.961 . S
C3269 H3257 0.959 . S
C3269 C3267 1.561 . S
C3270 C3267 1.526 . S
C3270 C3271 1.396 . S
C3270 C3275 1.390 . S
C3271 C3265 1.465 . S
C3271 C3270 1.396 . S
C3271 C3272 1.399 . S
C3272 H3258 0.929 . S
C3272 C3271 1.399 . S
C3272 C3273 1.385 . S
C3273 H3259 0.931 . S
C3273 C3272 1.385 . S
C3273 C3274 1.389 . S
C3274 C3273 1.389 . S
C3274 C3275 1.387 . S
C3275 H3260 0.930 . S
C3275 C3270 1.390 . S
C3275 C3274 1.387 . S
H3276 C3288 0.930 . S
H3277 C3290 0.930 . S
H3278 C3291 0.930 . S
H3279 C3295 0.959 . S
H3280 C3295 0.959 . S
H3281 C3295 0.961 . S
H3282 C3296 0.960 . S
H3283 C3296 0.961 . S
H3284 C3296 0.959 . S
H3285 C3299 0.929 . S
H3286 C3300 0.931 . S
H3287 C3302 0.930 . S
C3288 H3276 0.930 . S
C3288 C3289 1.399 . S
C3288 C3293 1.399 . S
C3289 C3288 1.399 . S
C3289 C3290 1.376 . S
C3290 H3277 0.930 . S
C3290 C3289 1.376 . S
C3290 C3291 1.388 . S
C3291 H3278 0.930 . S
C3291 C3290 1.388 . S
C3291 C3292 1.390 . S
C3292 C3291 1.390 . S
C3292 C3293 1.394 . S
C3292 C3298 1.465 . S
C3293 C3288 1.399 . S
C3293 C3292 1.394 . S
C3293 C3294 1.516 . S
C3294 C3293 1.516 . S
C3294 C3295 1.502 . S
C3294 C3296 1.561 . S
C3294 C3297 1.526 . S
C3295 H3279 0.959 . S
C3295 H3280 0.959 . S
C3295 H3281 0.961 . S
C3295 C3294 1.502 . S
C3296 H3282 0.960 . S
C3296 H3283 0.961 . S
C3296 H3284 0.959 . S
C3296 C3294 1.561 . S
C3297 C3294 1.526 . S
C3297 C3298 1.396 . S
C3297 C3302 1.390 . S
C3298 C3292 1.465 . S
C3298 C3297 1.396 . S
C3298 C3299 1.399 . S
C3299 H3285 0.929 . S
C3299 C3298 1.399 . S
C3299 C3300 1.385 . S
C3300 H3286 0.931 . S
C3300 C3299 1.385 . S
C3300 C3301 1.389 . S
C3301 C3300 1.389 . S
C3301 C3302 1.387 . S
C3302 H3287 0.930 . S
C3302 C3297 1.390 . S
C3302 C3301 1.387 . S
H3303 C3315 0.930 . S
H3304 C3317 0.930 . S
H3305 C3318 0.930 . S
H3306 C3322 0.959 . S
H3307 C3322 0.959 . S
H3308 C3322 0.961 . S
H3309 C3323 0.960 . S
H3310 C3323 0.961 . S
H3311 C3323 0.959 . S
H3312 C3326 0.929 . S
H3313 C3327 0.931 . S
H3314 C3329 0.930 . S
C3315 H3303 0.930 . S
C3315 C3316 1.399 . S
C3315 C3320 1.399 . S
C3316 C3315 1.399 . S
C3316 C3317 1.376 . S
C3317 H3304 0.930 . S
C3317 C3316 1.376 . S
C3317 C3318 1.388 . S
C3318 H3305 0.930 . S
C3318 C3317 1.388 . S
C3318 C3319 1.390 . S
C3319 C3318 1.390 . S
C3319 C3320 1.394 . S
C3319 C3325 1.465 . S
C3320 C3315 1.399 . S
C3320 C3319 1.394 . S
C3320 C3321 1.516 . S
C3321 C3320 1.516 . S
C3321 C3322 1.502 . S
C3321 C3323 1.561 . S
C3321 C3324 1.526 . S
C3322 H3306 0.959 . S
C3322 H3307 0.959 . S
C3322 H3308 0.961 . S
C3322 C3321 1.502 . S
C3323 H3309 0.960 . S
C3323 H3310 0.961 . S
C3323 H3311 0.959 . S
C3323 C3321 1.561 . S
C3324 C3321 1.526 . S
C3324 C3325 1.396 . S
C3324 C3329 1.390 . S
C3325 C3319 1.465 . S
C3325 C3324 1.396 . S
C3325 C3326 1.399 . S
C3326 H3312 0.929 . S
C3326 C3325 1.399 . S
C3326 C3327 1.385 . S
C3327 H3313 0.931 . S
C3327 C3326 1.385 . S
C3327 C3328 1.389 . S
C3328 C3327 1.389 . S
C3328 C3329 1.387 . S
C3329 H3314 0.930 . S
C3329 C3324 1.390 . S
C3329 C3328 1.387 . S
H3330 C3342 0.930 . S
H3331 C3344 0.930 . S
H3332 C3345 0.930 . S
H3333 C3349 0.959 . S
H3334 C3349 0.959 . S
H3335 C3349 0.961 . S
H3336 C3350 0.960 . S
H3337 C3350 0.961 . S
H3338 C3350 0.959 . S
H3339 C3353 0.929 . S
H3340 C3354 0.931 . S
H3341 C3356 0.930 . S
C3342 H3330 0.930 . S
C3342 C3343 1.399 . S
C3342 C3347 1.399 . S
C3343 C3342 1.399 . S
C3343 C3344 1.376 . S
C3344 H3331 0.930 . S
C3344 C3343 1.376 . S
C3344 C3345 1.388 . S
C3345 H3332 0.930 . S
C3345 C3344 1.388 . S
C3345 C3346 1.390 . S
C3346 C3345 1.390 . S
C3346 C3347 1.394 . S
C3346 C3352 1.465 . S
C3347 C3342 1.399 . S
C3347 C3346 1.394 . S
C3347 C3348 1.516 . S
C3348 C3347 1.516 . S
C3348 C3349 1.502 . S
C3348 C3350 1.561 . S
C3348 C3351 1.526 . S
C3349 H3333 0.959 . S
C3349 H3334 0.959 . S
C3349 H3335 0.961 . S
C3349 C3348 1.502 . S
C3350 H3336 0.960 . S
C3350 H3337 0.961 . S
C3350 H3338 0.959 . S
C3350 C3348 1.561 . S
C3351 C3348 1.526 . S
C3351 C3352 1.396 . S
C3351 C3356 1.390 . S
C3352 C3346 1.465 . S
C3352 C3351 1.396 . S
C3352 C3353 1.399 . S
C3353 H3339 0.929 . S
C3353 C3352 1.399 . S
C3353 C3354 1.385 . S
C3354 H3340 0.931 . S
C3354 C3353 1.385 . S
C3354 C3355 1.389 . S
C3355 C3354 1.389 . S
C3355 C3356 1.387 . S
C3356 H3341 0.930 . S
C3356 C3351 1.390 . S
C3356 C3355 1.387 . S
H3357 C3369 0.930 . S
H3358 C3371 0.930 . S
H3359 C3372 0.930 . S
H3360 C3376 0.959 . S
H3361 C3376 0.959 . S
H3362 C3376 0.961 . S
H3363 C3377 0.960 . S
H3364 C3377 0.961 . S
H3365 C3377 0.959 . S
H3366 C3380 0.929 . S
H3367 C3381 0.931 . S
H3368 C3383 0.930 . S
C3369 H3357 0.930 . S
C3369 C3370 1.399 . S
C3369 C3374 1.399 . S
C3370 C3369 1.399 . S
C3370 C3371 1.376 . S
C3371 H3358 0.930 . S
C3371 C3370 1.376 . S
C3371 C3372 1.388 . S
C3372 H3359 0.930 . S
C3372 C3371 1.388 . S
C3372 C3373 1.390 . S
C3373 C3372 1.390 . S
C3373 C3374 1.394 . S
C3373 C3379 1.465 . S
C3374 C3369 1.399 . S
C3374 C3373 1.394 . S
C3374 C3375 1.516 . S
C3375 C3374 1.516 . S
C3375 C3376 1.502 . S
C3375 C3377 1.561 . S
C3375 C3378 1.526 . S
C3376 H3360 0.959 . S
C3376 H3361 0.959 . S
C3376 H3362 0.961 . S
C3376 C3375 1.502 . S
C3377 H3363 0.960 . S
C3377 H3364 0.961 . S
C3377 H3365 0.959 . S
C3377 C3375 1.561 . S
C3378 C3375 1.526 . S
C3378 C3379 1.396 . S
C3378 C3383 1.390 . S
C3379 C3373 1.465 . S
C3379 C3378 1.396 . S
C3379 C3380 1.399 . S
C3380 H3366 0.929 . S
C3380 C3379 1.399 . S
C3380 C3381 1.385 . S
C3381 H3367 0.931 . S
C3381 C3380 1.385 . S
C3381 C3382 1.389 . S
C3382 C3381 1.389 . S
C3382 C3383 1.387 . S
C3383 H3368 0.930 . S
C3383 C3378 1.390 . S
C3383 C3382 1.387 . S
H3384 C3396 0.930 . S
H3385 C3398 0.930 . S
H3386 C3399 0.930 . S
H3387 C3403 0.959 . S
H3388 C3403 0.959 . S
H3389 C3403 0.961 . S
H3390 C3404 0.960 . S
H3391 C3404 0.961 . S
H3392 C3404 0.959 . S
H3393 C3407 0.929 . S
H3394 C3408 0.931 . S
H3395 C3410 0.930 . S
C3396 H3384 0.930 . S
C3396 C3397 1.399 . S
C3396 C3401 1.399 . S
C3397 C3396 1.399 . S
C3397 C3398 1.376 . S
C3398 H3385 0.930 . S
C3398 C3397 1.376 . S
C3398 C3399 1.388 . S
C3399 H3386 0.930 . S
C3399 C3398 1.388 . S
C3399 C3400 1.390 . S
C3400 C3399 1.390 . S
C3400 C3401 1.394 . S
C3400 C3406 1.465 . S
C3401 C3396 1.399 . S
C3401 C3400 1.394 . S
C3401 C3402 1.516 . S
C3402 C3401 1.516 . S
C3402 C3403 1.502 . S
C3402 C3404 1.561 . S
C3402 C3405 1.526 . S
C3403 H3387 0.959 . S
C3403 H3388 0.959 . S
C3403 H3389 0.961 . S
C3403 C3402 1.502 . S
C3404 H3390 0.960 . S
C3404 H3391 0.961 . S
C3404 H3392 0.959 . S
C3404 C3402 1.561 . S
C3405 C3402 1.526 . S
C3405 C3406 1.396 . S
C3405 C3410 1.390 . S
C3406 C3400 1.465 . S
C3406 C3405 1.396 . S
C3406 C3407 1.399 . S
C3407 H3393 0.929 . S
C3407 C3406 1.399 . S
C3407 C3408 1.385 . S
C3408 H3394 0.931 . S
C3408 C3407 1.385 . S
C3408 C3409 1.389 . S
C3409 C3408 1.389 . S
C3409 C3410 1.387 . S
C3410 H3395 0.930 . S
C3410 C3405 1.390 . S
C3410 C3409 1.387 . S
H3411 C3423 0.930 . S
H3412 C3425 0.930 . S
H3413 C3426 0.930 . S
H3414 C3430 0.959 . S
H3415 C3430 0.959 . S
H3416 C3430 0.961 . S
H3417 C3431 0.960 . S
H3418 C3431 0.961 . S
H3419 C3431 0.959 . S
H3420 C3434 0.929 . S
H3421 C3435 0.931 . S
H3422 C3437 0.930 . S
C3423 H3411 0.930 . S
C3423 C3424 1.399 . S
C3423 C3428 1.399 . S
C3424 C3423 1.399 . S
C3424 C3425 1.376 . S
C3425 H3412 0.930 . S
C3425 C3424 1.376 . S
C3425 C3426 1.388 . S
C3426 H3413 0.930 . S
C3426 C3425 1.388 . S
C3426 C3427 1.390 . S
C3427 C3426 1.390 . S
C3427 C3428 1.394 . S
C3427 C3433 1.465 . S
C3428 C3423 1.399 . S
C3428 C3427 1.394 . S
C3428 C3429 1.516 . S
C3429 C3428 1.516 . S
C3429 C3430 1.502 . S
C3429 C3431 1.561 . S
C3429 C3432 1.526 . S
C3430 H3414 0.959 . S
C3430 H3415 0.959 . S
C3430 H3416 0.961 . S
C3430 C3429 1.502 . S
C3431 H3417 0.960 . S
C3431 H3418 0.961 . S
C3431 H3419 0.959 . S
C3431 C3429 1.561 . S
C3432 C3429 1.526 . S
C3432 C3433 1.396 . S
C3432 C3437 1.390 . S
C3433 C3427 1.465 . S
C3433 C3432 1.396 . S
C3433 C3434 1.399 . S
C3434 H3420 0.929 . S
C3434 C3433 1.399 . S
C3434 C3435 1.385 . S
C3435 H3421 0.931 . S
C3435 C3434 1.385 . S
C3435 C3436 1.389 . S
C3436 C3435 1.389 . S
C3436 C3437 1.387 . S
C3437 H3422 0.930 . S
C3437 C3432 1.390 . S
C3437 C3436 1.387 . S
H3438 C3450 0.930 . S
H3439 C3452 0.930 . S
H3440 C3453 0.930 . S
H3441 C3457 0.959 . S
H3442 C3457 0.959 . S
H3443 C3457 0.961 . S
H3444 C3458 0.960 . S
H3445 C3458 0.961 . S
H3446 C3458 0.959 . S
H3447 C3461 0.929 . S
H3448 C3462 0.931 . S
H3449 C3464 0.930 . S
C3450 H3438 0.930 . S
C3450 C3451 1.399 . S
C3450 C3455 1.399 . S
C3451 C3450 1.399 . S
C3451 C3452 1.376 . S
C3452 H3439 0.930 . S
C3452 C3451 1.376 . S
C3452 C3453 1.388 . S
C3453 H3440 0.930 . S
C3453 C3452 1.388 . S
C3453 C3454 1.390 . S
C3454 C3453 1.390 . S
C3454 C3455 1.394 . S
C3454 C3460 1.465 . S
C3455 C3450 1.399 . S
C3455 C3454 1.394 . S
C3455 C3456 1.516 . S
C3456 C3455 1.516 . S
C3456 C3457 1.502 . S
C3456 C3458 1.561 . S
C3456 C3459 1.526 . S
C3457 H3441 0.959 . S
C3457 H3442 0.959 . S
C3457 H3443 0.961 . S
C3457 C3456 1.502 . S
C3458 H3444 0.960 . S
C3458 H3445 0.961 . S
C3458 H3446 0.959 . S
C3458 C3456 1.561 . S
C3459 C3456 1.526 . S
C3459 C3460 1.396 . S
C3459 C3464 1.390 . S
C3460 C3454 1.465 . S
C3460 C3459 1.396 . S
C3460 C3461 1.399 . S
C3461 H3447 0.929 . S
C3461 C3460 1.399 . S
C3461 C3462 1.385 . S
C3462 H3448 0.931 . S
C3462 C3461 1.385 . S
C3462 C3463 1.389 . S
C3463 C3462 1.389 . S
C3463 C3464 1.387 . S
C3464 H3449 0.930 . S
C3464 C3459 1.390 . S
C3464 C3463 1.387 . S
H3465 C3477 0.930 1_556 S
H3466 C3479 0.930 . S
H3467 C3480 0.930 . S
H3468 C3484 0.959 . S
H3469 C3484 0.959 . S
H3470 C3484 0.961 . S
H3471 C3485 0.960 . S
H3472 C3485 0.961 . S
H3473 C3485 0.959 1_545 S
H3474 C3488 0.929 . S
H3475 C3489 0.931 . S
H3476 C3491 0.930 1_566 S
C3477 H3465 0.930 1_554 S
C3477 C3478 1.399 . S
C3477 C3482 1.399 . S
C3478 C3477 1.399 . S
C3478 C3479 1.376 . S
C3479 H3466 0.930 . S
C3479 C3478 1.376 . S
C3479 C3480 1.388 1_565 S
C3480 H3467 0.930 . S
C3480 C3479 1.388 1_545 S
C3480 C3481 1.390 1_545 S
C3481 C3480 1.390 1_565 S
C3481 C3482 1.394 . S
C3481 C3487 1.465 1_565 S
C3482 C3477 1.399 . S
C3482 C3481 1.394 . S
C3482 C3483 1.516 1_554 S
C3483 C3482 1.516 1_556 S
C3483 C3484 1.502 . S
C3483 C3485 1.561 . S
C3483 C3486 1.526 1_556 S
C3484 H3468 0.959 . S
C3484 H3469 0.959 . S
C3484 H3470 0.961 . S
C3484 C3483 1.502 . S
C3485 H3471 0.960 . S
C3485 H3472 0.961 . S
C3485 H3473 0.959 1_565 S
C3485 C3483 1.561 . S
C3486 C3483 1.526 1_554 S
C3486 C3487 1.396 1_565 S
C3486 C3491 1.390 1_565 S
C3487 C3481 1.465 1_545 S
C3487 C3486 1.396 1_545 S
C3487 C3488 1.399 . S
C3488 H3474 0.929 . S
C3488 C3487 1.399 . S
C3488 C3489 1.385 . S
C3489 H3475 0.931 . S
C3489 C3488 1.385 . S
C3489 C3490 1.389 . S
C3490 C3489 1.389 . S
C3490 C3491 1.387 . S
C3491 H3476 0.930 1_544 S
C3491 C3486 1.390 1_545 S
C3491 C3490 1.387 . S
H3492 C3504 0.930 . S
H3493 C3506 0.930 . S
H3494 C3507 0.930 . S
H3495 C3511 0.959 . S
H3496 C3511 0.959 . S
H3497 C3511 0.961 . S
H3498 C3512 0.960 . S
H3499 C3512 0.961 . S
H3500 C3512 0.959 . S
H3501 C3515 0.929 . S
H3502 C3516 0.931 . S
H3503 C3518 0.930 . S
C3504 H3492 0.930 . S
C3504 C3505 1.399 . S
C3504 C3509 1.399 . S
C3505 C3504 1.399 . S
C3505 C3506 1.376 . S
C3506 H3493 0.930 . S
C3506 C3505 1.376 . S
C3506 C3507 1.388 . S
C3507 H3494 0.930 . S
C3507 C3506 1.388 . S
C3507 C3508 1.390 . S
C3508 C3507 1.390 . S
C3508 C3509 1.394 . S
C3508 C3514 1.465 . S
C3509 C3504 1.399 . S
C3509 C3508 1.394 . S
C3509 C3510 1.516 . S
C3510 C3509 1.516 . S
C3510 C3511 1.502 . S
C3510 C3512 1.561 . S
C3510 C3513 1.526 . S
C3511 H3495 0.959 . S
C3511 H3496 0.959 . S
C3511 H3497 0.961 . S
C3511 C3510 1.502 . S
C3512 H3498 0.960 . S
C3512 H3499 0.961 . S
C3512 H3500 0.959 . S
C3512 C3510 1.561 . S
C3513 C3510 1.526 . S
C3513 C3514 1.396 . S
C3513 C3518 1.390 . S
C3514 C3508 1.465 . S
C3514 C3513 1.396 . S
C3514 C3515 1.399 . S
C3515 H3501 0.929 . S
C3515 C3514 1.399 . S
C3515 C3516 1.385 . S
C3516 H3502 0.931 . S
C3516 C3515 1.385 . S
C3516 C3517 1.389 . S
C3517 C3516 1.389 . S
C3517 C3518 1.387 . S
C3518 H3503 0.930 . S
C3518 C3513 1.390 . S
C3518 C3517 1.387 . S
H3519 C3531 0.930 . S
H3520 C3533 0.930 . S
H3521 C3534 0.930 . S
H3522 C3538 0.959 . S
H3523 C3538 0.959 . S
H3524 C3538 0.961 . S
H3525 C3539 0.960 . S
H3526 C3539 0.961 . S
H3527 C3539 0.959 . S
H3528 C3542 0.929 . S
H3529 C3543 0.931 . S
H3530 C3545 0.930 1_556 S
C3531 H3519 0.930 . S
C3531 C3532 1.399 1_556 S
C3531 C3536 1.399 . S
C3532 C3531 1.399 1_554 S
C3532 C3533 1.377 . S
C3533 H3520 0.930 . S
C3533 C3532 1.377 . S
C3533 C3534 1.388 . S
C3534 H3521 0.930 . S
C3534 C3533 1.388 . S
C3534 C3535 1.390 . S
C3535 C3534 1.390 . S
C3535 C3536 1.394 1_554 S
C3535 C3541 1.465 . S
C3536 C3531 1.399 . S
C3536 C3535 1.394 1_556 S
C3536 C3537 1.516 . S
C3537 C3536 1.516 . S
C3537 C3538 1.502 . S
C3537 C3539 1.561 . S
C3537 C3540 1.526 1_556 S
C3538 H3522 0.959 . S
C3538 H3523 0.959 . S
C3538 H3524 0.961 . S
C3538 C3537 1.502 . S
C3539 H3525 0.960 . S
C3539 H3526 0.961 . S
C3539 H3527 0.959 . S
C3539 C3537 1.561 . S
C3540 C3537 1.526 1_554 S
C3540 C3541 1.396 . S
C3540 C3545 1.390 . S
C3541 C3535 1.465 . S
C3541 C3540 1.396 . S
C3541 C3542 1.399 . S
C3542 H3528 0.929 . S
C3542 C3541 1.399 . S
C3542 C3543 1.385 . S
C3543 H3529 0.931 . S
C3543 C3542 1.385 . S
C3543 C3544 1.389 . S
C3544 C3543 1.389 . S
C3544 C3545 1.387 . S
C3545 H3530 0.930 1_554 S
C3545 C3540 1.390 . S
C3545 C3544 1.387 . S
H3546 C3558 0.930 . S
H3547 C3560 0.930 . S
H3548 C3561 0.930 . S
H3549 C3565 0.959 . S
H3550 C3565 0.959 . S
H3551 C3565 0.961 . S
H3552 C3566 0.960 . S
H3553 C3566 0.961 . S
H3554 C3566 0.959 . S
H3555 C3569 0.929 . S
H3556 C3570 0.931 . S
H3557 C3572 0.930 . S
C3558 H3546 0.930 . S
C3558 C3559 1.399 . S
C3558 C3563 1.399 . S
C3559 C3558 1.399 . S
C3559 C3560 1.376 . S
C3560 H3547 0.930 . S
C3560 C3559 1.376 . S
C3560 C3561 1.388 . S
C3561 H3548 0.930 . S
C3561 C3560 1.388 . S
C3561 C3562 1.390 . S
C3562 C3561 1.390 . S
C3562 C3563 1.394 . S
C3562 C3568 1.465 . S
C3563 C3558 1.399 . S
C3563 C3562 1.394 . S
C3563 C3564 1.516 . S
C3564 C3563 1.516 . S
C3564 C3565 1.502 . S
C3564 C3566 1.561 . S
C3564 C3567 1.526 . S
C3565 H3549 0.959 . S
C3565 H3550 0.959 . S
C3565 H3551 0.961 . S
C3565 C3564 1.502 . S
C3566 H3552 0.960 . S
C3566 H3553 0.961 . S
C3566 H3554 0.959 . S
C3566 C3564 1.561 . S
C3567 C3564 1.526 . S
C3567 C3568 1.396 . S
C3567 C3572 1.390 . S
C3568 C3562 1.465 . S
C3568 C3567 1.396 . S
C3568 C3569 1.399 . S
C3569 H3555 0.929 . S
C3569 C3568 1.399 . S
C3569 C3570 1.385 . S
C3570 H3556 0.931 . S
C3570 C3569 1.385 . S
C3570 C3571 1.389 . S
C3571 C3570 1.389 . S
C3571 C3572 1.387 . S
C3572 H3557 0.930 . S
C3572 C3567 1.390 . S
C3572 C3571 1.387 . S
H3573 C3585 0.930 . S
H3574 C3587 0.930 . S
H3575 C3588 0.930 . S
H3576 C3592 0.959 . S
H3577 C3592 0.959 . S
H3578 C3592 0.961 . S
H3579 C3593 0.960 . S
H3580 C3593 0.961 . S
H3581 C3593 0.959 . S
H3582 C3596 0.929 . S
H3583 C3597 0.931 . S
H3584 C3599 0.930 . S
C3585 H3573 0.930 . S
C3585 C3586 1.399 . S
C3585 C3590 1.399 . S
C3586 C3585 1.399 . S
C3586 C3587 1.376 . S
C3587 H3574 0.930 . S
C3587 C3586 1.376 . S
C3587 C3588 1.388 . S
C3588 H3575 0.930 . S
C3588 C3587 1.388 . S
C3588 C3589 1.390 . S
C3589 C3588 1.390 . S
C3589 C3590 1.394 . S
C3589 C3595 1.465 . S
C3590 C3585 1.399 . S
C3590 C3589 1.394 . S
C3590 C3591 1.516 . S
C3591 C3590 1.516 . S
C3591 C3592 1.502 . S
C3591 C3593 1.561 . S
C3591 C3594 1.526 . S
C3592 H3576 0.959 . S
C3592 H3577 0.959 . S
C3592 H3578 0.961 . S
C3592 C3591 1.502 . S
C3593 H3579 0.960 . S
C3593 H3580 0.961 . S
C3593 H3581 0.959 . S
C3593 C3591 1.561 . S
C3594 C3591 1.526 . S
C3594 C3595 1.396 . S
C3594 C3599 1.390 . S
C3595 C3589 1.465 . S
C3595 C3594 1.396 . S
C3595 C3596 1.399 . S
C3596 H3582 0.929 . S
C3596 C3595 1.399 . S
C3596 C3597 1.385 . S
C3597 H3583 0.931 . S
C3597 C3596 1.385 . S
C3597 C3598 1.389 . S
C3598 C3597 1.389 . S
C3598 C3599 1.387 . S
C3599 H3584 0.930 . S
C3599 C3594 1.390 . S
C3599 C3598 1.387 . S
H3600 C3612 0.930 . S
H3601 C3614 0.930 . S
H3602 C3615 0.930 . S
H3603 C3619 0.959 . S
H3604 C3619 0.959 . S
H3605 C3619 0.961 . S
H3606 C3620 0.960 . S
H3607 C3620 0.961 . S
H3608 C3620 0.959 . S
H3609 C3623 0.929 . S
H3610 C3624 0.931 . S
H3611 C3626 0.930 . S
C3612 H3600 0.930 . S
C3612 C3613 1.399 . S
C3612 C3617 1.399 . S
C3613 C3612 1.399 . S
C3613 C3614 1.376 . S
C3614 H3601 0.930 . S
C3614 C3613 1.376 . S
C3614 C3615 1.388 . S
C3615 H3602 0.930 . S
C3615 C3614 1.388 . S
C3615 C3616 1.390 . S
C3616 C3615 1.390 . S
C3616 C3617 1.394 . S
C3616 C3622 1.465 . S
C3617 C3612 1.399 . S
C3617 C3616 1.394 . S
C3617 C3618 1.516 . S
C3618 C3617 1.516 . S
C3618 C3619 1.502 . S
C3618 C3620 1.561 . S
C3618 C3621 1.526 . S
C3619 H3603 0.959 . S
C3619 H3604 0.959 . S
C3619 H3605 0.961 . S
C3619 C3618 1.502 . S
C3620 H3606 0.960 . S
C3620 H3607 0.961 . S
C3620 H3608 0.959 . S
C3620 C3618 1.561 . S
C3621 C3618 1.526 . S
C3621 C3622 1.396 . S
C3621 C3626 1.390 . S
C3622 C3616 1.465 . S
C3622 C3621 1.396 . S
C3622 C3623 1.399 . S
C3623 H3609 0.929 . S
C3623 C3622 1.399 . S
C3623 C3624 1.385 . S
C3624 H3610 0.931 . S
C3624 C3623 1.385 . S
C3624 C3625 1.389 . S
C3625 C3624 1.389 . S
C3625 C3626 1.387 . S
C3626 H3611 0.930 . S
C3626 C3621 1.390 . S
C3626 C3625 1.387 . S
H3627 C3639 0.930 . S
H3628 C3641 0.930 . S
H3629 C3642 0.930 . S
H3630 C3646 0.959 . S
H3631 C3646 0.959 . S
H3632 C3646 0.961 . S
H3633 C3647 0.960 . S
H3634 C3647 0.961 . S
H3635 C3647 0.959 . S
H3636 C3650 0.929 . S
H3637 C3651 0.931 . S
H3638 C3653 0.930 . S
C3639 H3627 0.930 . S
C3639 C3640 1.399 . S
C3639 C3644 1.399 . S
C3640 C3639 1.399 . S
C3640 C3641 1.376 . S
C3641 H3628 0.930 . S
C3641 C3640 1.376 . S
C3641 C3642 1.388 . S
C3642 H3629 0.930 . S
C3642 C3641 1.388 . S
C3642 C3643 1.390 . S
C3643 C3642 1.390 . S
C3643 C3644 1.394 . S
C3643 C3649 1.465 . S
C3644 C3639 1.399 . S
C3644 C3643 1.394 . S
C3644 C3645 1.516 . S
C3645 C3644 1.516 . S
C3645 C3646 1.502 . S
C3645 C3647 1.561 . S
C3645 C3648 1.526 . S
C3646 H3630 0.959 . S
C3646 H3631 0.959 . S
C3646 H3632 0.961 . S
C3646 C3645 1.502 . S
C3647 H3633 0.960 . S
C3647 H3634 0.961 . S
C3647 H3635 0.959 . S
C3647 C3645 1.561 . S
C3648 C3645 1.526 . S
C3648 C3649 1.396 . S
C3648 C3653 1.390 . S
C3649 C3643 1.465 . S
C3649 C3648 1.396 . S
C3649 C3650 1.399 . S
C3650 H3636 0.929 . S
C3650 C3649 1.399 . S
C3650 C3651 1.385 . S
C3651 H3637 0.931 . S
C3651 C3650 1.385 . S
C3651 C3652 1.389 . S
C3652 C3651 1.389 . S
C3652 C3653 1.387 . S
C3653 H3638 0.930 . S
C3653 C3648 1.390 . S
C3653 C3652 1.387 . S
H3654 C3666 0.930 . S
H3655 C3668 0.930 . S
H3656 C3669 0.930 . S
H3657 C3673 0.929 1_554 S
H3658 C3673 0.985 . S
H3659 C3673 0.980 . S
H3660 C3674 0.960 . S
H3661 C3674 0.961 . S
H3662 C3674 0.959 . S
H3663 C3677 0.929 . S
H3664 C3678 0.931 . S
H3665 C3680 0.930 1_556 S
C3666 H3654 0.930 . S
C3666 C3667 1.399 . S
C3666 C3671 1.399 . S
C3667 C3666 1.399 . S
C3667 C3668 1.376 . S
C3668 H3655 0.930 . S
C3668 C3667 1.376 . S
C3668 C3669 1.388 . S
C3669 H3656 0.930 . S
C3669 C3668 1.388 . S
C3669 C3670 1.390 . S
C3670 C3669 1.390 . S
C3670 C3671 1.394 . S
C3670 C3676 1.465 . S
C3671 C3666 1.399 . S
C3671 C3670 1.394 . S
C3671 C3672 1.516 . S
C3672 C3671 1.516 . S
C3672 C3673 1.487 1_554 S
C3672 C3674 1.561 1_554 S
C3672 C3675 1.526 . S
C3673 H3657 0.929 1_556 S
C3673 H3658 0.985 . S
C3673 H3659 0.980 . S
C3673 C3672 1.487 1_556 S
C3674 H3660 0.960 . S
C3674 H3661 0.961 . S
C3674 H3662 0.959 . S
C3674 C3672 1.561 1_556 S
C3675 C3672 1.526 . S
C3675 C3676 1.396 . S
C3675 C3680 1.390 . S
C3676 C3670 1.465 . S
C3676 C3675 1.396 . S
C3676 C3677 1.399 . S
C3677 H3663 0.929 . S
C3677 C3676 1.399 . S
C3677 C3678 1.385 . S
C3678 H3664 0.931 . S
C3678 C3677 1.385 . S
C3678 C3679 1.389 . S
C3679 C3678 1.389 . S
C3679 C3680 1.387 . S
C3680 H3665 0.930 1_554 S
C3680 C3675 1.390 . S
C3680 C3679 1.387 . S
H3681 C3693 0.930 . S
H3682 C3695 0.930 . S
H3683 C3696 0.930 . S
H3684 C3700 0.959 . S
H3685 C3700 0.959 . S
H3686 C3700 0.961 . S
H3687 C3701 0.960 . S
H3688 C3701 0.961 . S
H3689 C3701 0.959 . S
H3690 C3704 0.929 . S
H3691 C3705 0.931 . S
H3692 C3707 0.930 . S
C3693 H3681 0.930 . S
C3693 C3694 1.399 . S
C3693 C3698 1.399 . S
C3694 C3693 1.399 . S
C3694 C3695 1.376 . S
C3695 H3682 0.930 . S
C3695 C3694 1.376 . S
C3695 C3696 1.388 . S
C3696 H3683 0.930 . S
C3696 C3695 1.388 . S
C3696 C3697 1.390 . S
C3697 C3696 1.390 . S
C3697 C3698 1.394 . S
C3697 C3703 1.465 . S
C3698 C3693 1.399 . S
C3698 C3697 1.394 . S
C3698 C3699 1.516 . S
C3699 C3698 1.516 . S
C3699 C3700 1.502 . S
C3699 C3701 1.561 . S
C3699 C3702 1.526 . S
C3700 H3684 0.959 . S
C3700 H3685 0.959 . S
C3700 H3686 0.961 . S
C3700 C3699 1.502 . S
C3701 H3687 0.960 . S
C3701 H3688 0.961 . S
C3701 H3689 0.959 . S
C3701 C3699 1.561 . S
C3702 C3699 1.526 . S
C3702 C3703 1.396 . S
C3702 C3707 1.390 . S
C3703 C3697 1.465 . S
C3703 C3702 1.396 . S
C3703 C3704 1.399 . S
C3704 H3690 0.929 . S
C3704 C3703 1.399 . S
C3704 C3705 1.385 . S
C3705 H3691 0.931 . S
C3705 C3704 1.385 . S
C3705 C3706 1.389 . S
C3706 C3705 1.389 . S
C3706 C3707 1.387 . S
C3707 H3692 0.930 . S
C3707 C3702 1.390 . S
C3707 C3706 1.387 . S
H3708 C3720 0.930 . S
H3709 C3722 0.930 . S
H3710 C3723 0.930 . S
H3711 C3727 0.959 . S
H3712 C3727 0.959 . S
H3713 C3727 0.961 . S
H3714 C3728 0.960 . S
H3715 C3728 0.961 . S
H3716 C3728 0.959 . S
H3717 C3731 0.929 . S
H3718 C3732 0.931 . S
H3719 C3734 0.930 . S
C3720 H3708 0.930 . S
C3720 C3721 1.399 . S
C3720 C3725 1.399 . S
C3721 C3720 1.399 . S
C3721 C3722 1.376 . S
C3722 H3709 0.930 . S
C3722 C3721 1.376 . S
C3722 C3723 1.388 . S
C3723 H3710 0.930 . S
C3723 C3722 1.388 . S
C3723 C3724 1.390 . S
C3724 C3723 1.390 . S
C3724 C3725 1.394 . S
C3724 C3730 1.465 . S
C3725 C3720 1.399 . S
C3725 C3724 1.394 . S
C3725 C3726 1.516 . S
C3726 C3725 1.516 . S
C3726 C3727 1.502 . S
C3726 C3728 1.561 . S
C3726 C3729 1.526 . S
C3727 H3711 0.959 . S
C3727 H3712 0.959 . S
C3727 H3713 0.961 . S
C3727 C3726 1.502 . S
C3728 H3714 0.960 . S
C3728 H3715 0.961 . S
C3728 H3716 0.959 . S
C3728 C3726 1.561 . S
C3729 C3726 1.526 . S
C3729 C3730 1.396 . S
C3729 C3734 1.390 . S
C3730 C3724 1.465 . S
C3730 C3729 1.396 . S
C3730 C3731 1.399 . S
C3731 H3717 0.929 . S
C3731 C3730 1.399 . S
C3731 C3732 1.385 . S
C3732 H3718 0.931 . S
C3732 C3731 1.385 . S
C3732 C3733 1.389 . S
C3733 C3732 1.389 . S
C3733 C3734 1.387 . S
C3734 H3719 0.930 . S
C3734 C3729 1.390 . S
C3734 C3733 1.387 . S
H3735 C3747 0.930 . S
H3736 C3749 0.930 . S
H3737 C3750 0.930 . S
H3738 C3754 0.959 . S
H3739 C3754 0.959 . S
H3740 C3754 0.961 . S
H3741 C3755 0.960 . S
H3742 C3755 0.961 . S
H3743 C3755 0.959 . S
H3744 C3758 0.929 . S
H3745 C3759 0.931 . S
H3746 C3761 0.930 . S
C3747 H3735 0.930 . S
C3747 C3748 1.399 . S
C3747 C3752 1.399 . S
C3748 C3747 1.399 . S
C3748 C3749 1.376 . S
C3749 H3736 0.930 . S
C3749 C3748 1.376 . S
C3749 C3750 1.388 . S
C3750 H3737 0.930 . S
C3750 C3749 1.388 . S
C3750 C3751 1.390 . S
C3751 C3750 1.390 . S
C3751 C3752 1.394 . S
C3751 C3757 1.465 . S
C3752 C3747 1.399 . S
C3752 C3751 1.394 . S
C3752 C3753 1.516 . S
C3753 C3752 1.516 . S
C3753 C3754 1.502 . S
C3753 C3755 1.561 . S
C3753 C3756 1.526 . S
C3754 H3738 0.959 . S
C3754 H3739 0.959 . S
C3754 H3740 0.961 . S
C3754 C3753 1.502 . S
C3755 H3741 0.960 . S
C3755 H3742 0.961 . S
C3755 H3743 0.959 . S
C3755 C3753 1.561 . S
C3756 C3753 1.526 . S
C3756 C3757 1.396 . S
C3756 C3761 1.390 . S
C3757 C3751 1.465 . S
C3757 C3756 1.396 . S
C3757 C3758 1.399 . S
C3758 H3744 0.929 . S
C3758 C3757 1.399 . S
C3758 C3759 1.385 . S
C3759 H3745 0.931 . S
C3759 C3758 1.385 . S
C3759 C3760 1.389 . S
C3760 C3759 1.389 . S
C3760 C3761 1.387 . S
C3761 H3746 0.930 . S
C3761 C3756 1.390 . S
C3761 C3760 1.387 . S
H3762 C3774 0.930 . S
H3763 C3776 0.930 . S
H3764 C3777 0.930 . S
H3765 C3781 0.959 . S
H3766 C3781 0.959 . S
H3767 C3781 0.961 . S
H3768 C3782 0.960 . S
H3769 C3782 0.961 . S
H3770 C3782 0.959 . S
H3771 C3785 0.929 . S
H3772 C3786 0.931 . S
H3773 C3788 0.930 . S
C3774 H3762 0.930 . S
C3774 C3775 1.399 . S
C3774 C3779 1.399 . S
C3775 C3774 1.399 . S
C3775 C3776 1.376 . S
C3776 H3763 0.930 . S
C3776 C3775 1.376 . S
C3776 C3777 1.388 . S
C3777 H3764 0.930 . S
C3777 C3776 1.388 . S
C3777 C3778 1.390 . S
C3778 C3777 1.390 . S
C3778 C3779 1.394 . S
C3778 C3784 1.465 . S
C3779 C3774 1.399 . S
C3779 C3778 1.394 . S
C3779 C3780 1.516 . S
C3780 C3779 1.516 . S
C3780 C3781 1.502 . S
C3780 C3782 1.561 . S
C3780 C3783 1.526 . S
C3781 H3765 0.959 . S
C3781 H3766 0.959 . S
C3781 H3767 0.961 . S
C3781 C3780 1.502 . S
C3782 H3768 0.960 . S
C3782 H3769 0.961 . S
C3782 H3770 0.959 . S
C3782 C3780 1.561 . S
C3783 C3780 1.526 . S
C3783 C3784 1.396 . S
C3783 C3788 1.390 . S
C3784 C3778 1.465 . S
C3784 C3783 1.396 . S
C3784 C3785 1.399 . S
C3785 H3771 0.929 . S
C3785 C3784 1.399 . S
C3785 C3786 1.385 . S
C3786 H3772 0.931 . S
C3786 C3785 1.385 . S
C3786 C3787 1.389 . S
C3787 C3786 1.389 . S
C3787 C3788 1.387 . S
C3788 H3773 0.930 . S
C3788 C3783 1.390 . S
C3788 C3787 1.387 . S
H3789 C3801 0.930 . S
H3790 C3803 0.930 . S
H3791 C3804 0.930 . S
H3792 C3808 0.959 . S
H3793 C3808 0.959 . S
H3794 C3808 0.961 . S
H3795 C3809 0.960 . S
H3796 C3809 0.961 . S
H3797 C3809 0.959 . S
H3798 C3812 0.929 . S
H3799 C3813 0.931 . S
H3800 C3815 0.930 . S
C3801 H3789 0.930 . S
C3801 C3802 1.399 . S
C3801 C3806 1.399 . S
C3802 C3801 1.399 . S
C3802 C3803 1.376 . S
C3803 H3790 0.930 . S
C3803 C3802 1.376 . S
C3803 C3804 1.388 . S
C3804 H3791 0.930 . S
C3804 C3803 1.388 . S
C3804 C3805 1.390 . S
C3805 C3804 1.390 . S
C3805 C3806 1.394 . S
C3805 C3811 1.465 . S
C3806 C3801 1.399 . S
C3806 C3805 1.394 . S
C3806 C3807 1.516 . S
C3807 C3806 1.516 . S
C3807 C3808 1.502 . S
C3807 C3809 1.561 . S
C3807 C3810 1.526 . S
C3808 H3792 0.959 . S
C3808 H3793 0.959 . S
C3808 H3794 0.961 . S
C3808 C3807 1.502 . S
C3809 H3795 0.960 . S
C3809 H3796 0.961 . S
C3809 H3797 0.959 . S
C3809 C3807 1.561 . S
C3810 C3807 1.526 . S
C3810 C3811 1.396 . S
C3810 C3815 1.390 . S
C3811 C3805 1.465 . S
C3811 C3810 1.396 . S
C3811 C3812 1.399 . S
C3812 H3798 0.929 . S
C3812 C3811 1.399 . S
C3812 C3813 1.385 . S
C3813 H3799 0.931 . S
C3813 C3812 1.385 . S
C3813 C3814 1.389 . S
C3814 C3813 1.389 . S
C3814 C3815 1.387 . S
C3815 H3800 0.930 . S
C3815 C3810 1.390 . S
C3815 C3814 1.387 . S
H3816 C3828 0.930 . S
H3817 C3830 0.930 . S
H3818 C3831 0.930 . S
H3819 C3835 0.959 . S
H3820 C3835 0.959 . S
H3821 C3835 0.961 . S
H3822 C3836 0.960 . S
H3823 C3836 0.961 . S
H3824 C3836 0.959 . S
H3825 C3839 0.929 . S
H3826 C3840 0.931 . S
H3827 C3842 0.930 . S
C3828 H3816 0.930 . S
C3828 C3829 1.399 . S
C3828 C3833 1.399 . S
C3829 C3828 1.399 . S
C3829 C3830 1.376 . S
C3830 H3817 0.930 . S
C3830 C3829 1.376 . S
C3830 C3831 1.388 . S
C3831 H3818 0.930 . S
C3831 C3830 1.388 . S
C3831 C3832 1.390 . S
C3832 C3831 1.390 . S
C3832 C3833 1.394 . S
C3832 C3838 1.465 . S
C3833 C3828 1.399 . S
C3833 C3832 1.394 . S
C3833 C3834 1.516 . S
C3834 C3833 1.516 . S
C3834 C3835 1.502 . S
C3834 C3836 1.561 . S
C3834 C3837 1.526 . S
C3835 H3819 0.959 . S
C3835 H3820 0.959 . S
C3835 H3821 0.961 . S
C3835 C3834 1.502 . S
C3836 H3822 0.960 . S
C3836 H3823 0.961 . S
C3836 H3824 0.959 . S
C3836 C3834 1.561 . S
C3837 C3834 1.526 . S
C3837 C3838 1.396 . S
C3837 C3842 1.390 . S
C3838 C3832 1.465 . S
C3838 C3837 1.396 . S
C3838 C3839 1.399 . S
C3839 H3825 0.929 . S
C3839 C3838 1.399 . S
C3839 C3840 1.385 . S
C3840 H3826 0.931 . S
C3840 C3839 1.385 . S
C3840 C3841 1.389 . S
C3841 C3840 1.389 . S
C3841 C3842 1.387 . S
C3842 H3827 0.930 . S
C3842 C3837 1.390 . S
C3842 C3841 1.387 . S
H3843 C3855 0.930 . S
H3844 C3857 0.930 . S
H3845 C3858 0.930 . S
H3846 C3862 0.959 . S
H3847 C3862 0.959 . S
H3848 C3862 0.961 . S
H3849 C3863 0.960 . S
H3850 C3863 0.961 . S
H3851 C3863 0.959 . S
H3852 C3866 0.929 . S
H3853 C3867 0.931 . S
H3854 C3869 0.930 . S
C3855 H3843 0.930 . S
C3855 C3856 1.399 . S
C3855 C3860 1.399 . S
C3856 C3855 1.399 . S
C3856 C3857 1.376 . S
C3857 H3844 0.930 . S
C3857 C3856 1.376 . S
C3857 C3858 1.388 . S
C3858 H3845 0.930 . S
C3858 C3857 1.388 . S
C3858 C3859 1.390 . S
C3859 C3858 1.390 . S
C3859 C3860 1.394 . S
C3859 C3865 1.465 . S
C3860 C3855 1.399 . S
C3860 C3859 1.394 . S
C3860 C3861 1.516 . S
C3861 C3860 1.516 . S
C3861 C3862 1.502 . S
C3861 C3863 1.561 . S
C3861 C3864 1.526 . S
C3862 H3846 0.959 . S
C3862 H3847 0.959 . S
C3862 H3848 0.961 . S
C3862 C3861 1.502 . S
C3863 H3849 0.960 . S
C3863 H3850 0.961 . S
C3863 H3851 0.959 . S
C3863 C3861 1.561 . S
C3864 C3861 1.526 . S
C3864 C3865 1.396 . S
C3864 C3869 1.390 . S
C3865 C3859 1.465 . S
C3865 C3864 1.396 . S
C3865 C3866 1.399 . S
C3866 H3852 0.929 . S
C3866 C3865 1.399 . S
C3866 C3867 1.385 . S
C3867 H3853 0.931 . S
C3867 C3866 1.385 . S
C3867 C3868 1.389 . S
C3868 C3867 1.389 . S
C3868 C3869 1.387 . S
C3869 H3854 0.930 . S
C3869 C3864 1.390 . S
C3869 C3868 1.387 . S
H3870 C3882 0.930 . S
H3871 C3884 0.930 . S
H3872 C3885 0.930 . S
H3873 C3889 0.959 . S
H3874 C3889 0.959 . S
H3875 C3889 0.961 . S
H3876 C3890 0.964 . S
H3877 C3890 0.961 . S
H3878 C3890 0.959 1_655 S
H3879 C3893 0.929 . S
H3880 C3894 0.931 . S
H3881 C3896 0.930 . S
C3882 H3870 0.930 . S
C3882 C3883 1.399 . S
C3882 C3887 1.399 . S
C3883 C3882 1.399 . S
C3883 C3884 1.376 . S
C3884 H3871 0.930 . S
C3884 C3883 1.376 . S
C3884 C3885 1.388 . S
C3885 H3872 0.930 . S
C3885 C3884 1.388 . S
C3885 C3886 1.390 . S
C3886 C3885 1.390 . S
C3886 C3887 1.394 . S
C3886 C3892 1.465 . S
C3887 C3882 1.399 . S
C3887 C3886 1.394 . S
C3887 C3888 1.516 1_655 S
C3888 C3887 1.516 1_455 S
C3888 C3889 1.502 . S
C3888 C3890 1.561 . S
C3888 C3891 1.526 . S
C3889 H3873 0.959 . S
C3889 H3874 0.959 . S
C3889 H3875 0.961 . S
C3889 C3888 1.502 . S
C3890 H3876 0.964 . S
C3890 H3877 0.961 . S
C3890 H3878 0.959 1_455 S
C3890 C3888 1.561 . S
C3891 C3888 1.526 . S
C3891 C3892 1.396 1_455 S
C3891 C3896 1.390 . S
C3892 C3886 1.465 . S
C3892 C3891 1.396 1_655 S
C3892 C3893 1.399 . S
C3893 H3879 0.929 . S
C3893 C3892 1.399 . S
C3893 C3894 1.385 1_655 S
C3894 H3880 0.931 . S
C3894 C3893 1.385 1_455 S
C3894 C3895 1.389 . S
C3895 C3894 1.389 . S
C3895 C3896 1.387 . S
C3896 H3881 0.930 . S
C3896 C3891 1.390 . S
C3896 C3895 1.387 . S
H3897 C3909 0.930 . S
H3898 C3911 0.930 . S
H3899 C3912 0.930 . S
H3900 C3916 0.959 . S
H3901 C3916 0.959 . S
H3902 C3916 0.961 . S
H3903 C3917 0.960 . S
H3904 C3917 0.961 . S
H3905 C3917 0.959 . S
H3906 C3920 0.929 . S
H3907 C3921 0.931 . S
H3908 C3923 0.930 . S
C3909 H3897 0.930 . S
C3909 C3910 1.399 . S
C3909 C3914 1.399 . S
C3910 C3909 1.399 . S
C3910 C3911 1.376 . S
C3911 H3898 0.930 . S
C3911 C3910 1.376 . S
C3911 C3912 1.388 . S
C3912 H3899 0.930 . S
C3912 C3911 1.388 . S
C3912 C3913 1.390 . S
C3913 C3912 1.390 . S
C3913 C3914 1.394 . S
C3913 C3919 1.465 . S
C3914 C3909 1.399 . S
C3914 C3913 1.394 . S
C3914 C3915 1.516 . S
C3915 C3914 1.516 . S
C3915 C3916 1.502 . S
C3915 C3917 1.561 . S
C3915 C3918 1.526 . S
C3916 H3900 0.959 . S
C3916 H3901 0.959 . S
C3916 H3902 0.961 . S
C3916 C3915 1.502 . S
C3917 H3903 0.960 . S
C3917 H3904 0.961 . S
C3917 H3905 0.959 . S
C3917 C3915 1.561 . S
C3918 C3915 1.526 . S
C3918 C3919 1.396 . S
C3918 C3923 1.390 . S
C3919 C3913 1.465 . S
C3919 C3918 1.396 . S
C3919 C3920 1.399 . S
C3920 H3906 0.929 . S
C3920 C3919 1.399 . S
C3920 C3921 1.385 . S
C3921 H3907 0.931 . S
C3921 C3920 1.385 . S
C3921 C3922 1.389 . S
C3922 C3921 1.389 . S
C3922 C3923 1.387 . S
C3923 H3908 0.930 . S
C3923 C3918 1.390 . S
C3923 C3922 1.387 . S
H3924 C3936 0.930 . S
H3925 C3938 0.930 . S
H3926 C3939 0.930 . S
H3927 C3943 0.959 . S
H3928 C3943 0.959 . S
H3929 C3943 0.961 . S
H3930 C3944 0.960 . S
H3931 C3944 0.961 . S
H3932 C3944 0.959 . S
H3933 C3947 0.929 . S
H3934 C3948 0.931 . S
H3935 C3950 0.930 . S
C3936 H3924 0.930 . S
C3936 C3937 1.399 . S
C3936 C3941 1.399 . S
C3937 C3936 1.399 . S
C3937 C3938 1.376 . S
C3938 H3925 0.930 . S
C3938 C3937 1.376 . S
C3938 C3939 1.388 . S
C3939 H3926 0.930 . S
C3939 C3938 1.388 . S
C3939 C3940 1.390 . S
C3940 C3939 1.390 . S
C3940 C3941 1.394 . S
C3940 C3946 1.465 . S
C3941 C3936 1.399 . S
C3941 C3940 1.394 . S
C3941 C3942 1.516 . S
C3942 C3941 1.516 . S
C3942 C3943 1.502 . S
C3942 C3944 1.561 . S
C3942 C3945 1.526 . S
C3943 H3927 0.959 . S
C3943 H3928 0.959 . S
C3943 H3929 0.961 . S
C3943 C3942 1.502 . S
C3944 H3930 0.960 . S
C3944 H3931 0.961 . S
C3944 H3932 0.959 . S
C3944 C3942 1.561 . S
C3945 C3942 1.526 . S
C3945 C3946 1.396 . S
C3945 C3950 1.390 . S
C3946 C3940 1.465 . S
C3946 C3945 1.396 . S
C3946 C3947 1.399 . S
C3947 H3933 0.929 . S
C3947 C3946 1.399 . S
C3947 C3948 1.385 . S
C3948 H3934 0.931 . S
C3948 C3947 1.385 . S
C3948 C3949 1.389 . S
C3949 C3948 1.389 . S
C3949 C3950 1.387 . S
C3950 H3935 0.930 . S
C3950 C3945 1.390 . S
C3950 C3949 1.387 . S
H3951 C3963 0.930 . S
H3952 C3965 0.930 . S
H3953 C3966 0.930 . S
H3954 C3970 0.959 . S
H3955 C3970 0.959 . S
H3956 C3970 0.961 . S
H3957 C3971 0.960 . S
H3958 C3971 0.961 . S
H3959 C3971 0.959 . S
H3960 C3974 0.929 . S
H3961 C3975 0.931 . S
H3962 C3977 0.930 . S
C3963 H3951 0.930 . S
C3963 C3964 1.399 . S
C3963 C3968 1.399 . S
C3964 C3963 1.399 . S
C3964 C3965 1.376 . S
C3965 H3952 0.930 . S
C3965 C3964 1.376 . S
C3965 C3966 1.388 . S
C3966 H3953 0.930 . S
C3966 C3965 1.388 . S
C3966 C3967 1.390 . S
C3967 C3966 1.390 . S
C3967 C3968 1.394 . S
C3967 C3973 1.465 . S
C3968 C3963 1.399 . S
C3968 C3967 1.394 . S
C3968 C3969 1.516 . S
C3969 C3968 1.516 . S
C3969 C3970 1.502 . S
C3969 C3971 1.561 . S
C3969 C3972 1.526 . S
C3970 H3954 0.959 . S
C3970 H3955 0.959 . S
C3970 H3956 0.961 . S
C3970 C3969 1.502 . S
C3971 H3957 0.960 . S
C3971 H3958 0.961 . S
C3971 H3959 0.959 . S
C3971 C3969 1.561 . S
C3972 C3969 1.526 . S
C3972 C3973 1.396 . S
C3972 C3977 1.390 . S
C3973 C3967 1.465 . S
C3973 C3972 1.396 . S
C3973 C3974 1.399 . S
C3974 H3960 0.929 . S
C3974 C3973 1.399 . S
C3974 C3975 1.385 . S
C3975 H3961 0.931 . S
C3975 C3974 1.385 . S
C3975 C3976 1.389 . S
C3976 C3975 1.389 . S
C3976 C3977 1.387 . S
C3977 H3962 0.930 . S
C3977 C3972 1.390 . S
C3977 C3976 1.387 . S
H3978 C3990 0.930 . S
H3979 C3992 0.930 . S
H3980 C3993 0.930 . S
H3981 C3997 0.959 . S
H3982 C3997 0.959 . S
H3983 C3997 0.961 . S
H3984 C3998 0.960 . S
H3985 C3998 0.961 . S
H3986 C3998 0.936 1_455 S
H3987 C4001 0.929 . S
H3988 C4002 0.931 . S
H3989 C4004 0.930 . S
C3990 H3978 0.930 . S
C3990 C3991 1.399 . S
C3990 C3995 1.399 . S
C3991 C3990 1.399 . S
C3991 C3992 1.376 . S
C3992 H3979 0.930 . S
C3992 C3991 1.376 . S
C3992 C3993 1.388 . S
C3993 H3980 0.930 . S
C3993 C3992 1.388 . S
C3993 C3994 1.390 . S
C3994 C3993 1.390 . S
C3994 C3995 1.394 . S
C3994 C4000 1.465 . S
C3995 C3990 1.399 . S
C3995 C3994 1.394 . S
C3995 C3996 1.516 . S
C3996 C3995 1.516 . S
C3996 C3997 1.502 . S
C3996 C3998 1.561 . S
C3996 C3999 1.526 . S
C3997 H3981 0.959 . S
C3997 H3982 0.959 . S
C3997 H3983 0.961 . S
C3997 C3996 1.502 . S
C3998 H3984 0.960 . S
C3998 H3985 0.961 . S
C3998 H3986 0.936 1_655 S
C3998 C3996 1.561 . S
C3999 C3996 1.526 . S
C3999 C4000 1.396 . S
C3999 C4004 1.390 . S
C4000 C3994 1.465 . S
C4000 C3999 1.396 . S
C4000 C4001 1.399 . S
C4001 H3987 0.929 . S
C4001 C4000 1.399 . S
C4001 C4002 1.385 1_655 S
C4002 H3988 0.931 . S
C4002 C4001 1.385 1_455 S
C4002 C4003 1.389 . S
C4003 C4002 1.389 . S
C4003 C4004 1.387 1_455 S
C4004 H3989 0.930 . S
C4004 C3999 1.390 . S
C4004 C4003 1.387 1_655 S
H4005 C4017 0.930 . S
H4006 C4019 0.930 . S
H4007 C4020 0.930 . S
H4008 C4024 0.959 . S
H4009 C4024 0.959 . S
H4010 C4024 0.961 . S
H4011 C4025 0.960 . S
H4012 C4025 0.961 . S
H4013 C4025 0.959 . S
H4014 C4028 0.929 . S
H4015 C4029 0.931 . S
H4016 C4031 0.930 . S
C4017 H4005 0.930 . S
C4017 C4018 1.399 . S
C4017 C4022 1.399 . S
C4018 C4017 1.399 . S
C4018 C4019 1.376 . S
C4019 H4006 0.930 . S
C4019 C4018 1.376 . S
C4019 C4020 1.388 . S
C4020 H4007 0.930 . S
C4020 C4019 1.388 . S
C4020 C4021 1.390 . S
C4021 C4020 1.390 . S
C4021 C4022 1.394 . S
C4021 C4027 1.465 . S
C4022 C4017 1.399 . S
C4022 C4021 1.394 . S
C4022 C4023 1.516 . S
C4023 C4022 1.516 . S
C4023 C4024 1.502 . S
C4023 C4025 1.561 . S
C4023 C4026 1.526 . S
C4024 H4008 0.959 . S
C4024 H4009 0.959 . S
C4024 H4010 0.961 . S
C4024 C4023 1.502 . S
C4025 H4011 0.960 . S
C4025 H4012 0.961 . S
C4025 H4013 0.959 . S
C4025 C4023 1.561 . S
C4026 C4023 1.526 . S
C4026 C4027 1.396 . S
C4026 C4031 1.390 . S
C4027 C4021 1.465 . S
C4027 C4026 1.396 . S
C4027 C4028 1.399 . S
C4028 H4014 0.929 . S
C4028 C4027 1.399 . S
C4028 C4029 1.385 . S
C4029 H4015 0.931 . S
C4029 C4028 1.385 . S
C4029 C4030 1.389 . S
C4030 C4029 1.389 . S
C4030 C4031 1.387 . S
C4031 H4016 0.930 . S
C4031 C4026 1.390 . S
C4031 C4030 1.387 . S
H4032 C4044 0.930 . S
H4033 C4046 0.930 . S
H4034 C4047 0.930 . S
H4035 C4051 0.959 . S
H4036 C4051 0.959 . S
H4037 C4051 0.961 . S
H4038 C4052 0.960 . S
H4039 C4052 0.961 . S
H4040 C4052 0.959 . S
H4041 C4055 0.929 . S
H4042 C4056 0.931 . S
H4043 C4058 0.930 . S
C4044 H4032 0.930 . S
C4044 C4045 1.399 . S
C4044 C4049 1.399 . S
C4045 C4044 1.399 . S
C4045 C4046 1.376 . S
C4046 H4033 0.930 . S
C4046 C4045 1.376 . S
C4046 C4047 1.388 . S
C4047 H4034 0.930 . S
C4047 C4046 1.388 . S
C4047 C4048 1.390 . S
C4048 C4047 1.390 . S
C4048 C4049 1.394 . S
C4048 C4054 1.465 . S
C4049 C4044 1.399 . S
C4049 C4048 1.394 . S
C4049 C4050 1.516 . S
C4050 C4049 1.516 . S
C4050 C4051 1.502 . S
C4050 C4052 1.561 . S
C4050 C4053 1.526 . S
C4051 H4035 0.959 . S
C4051 H4036 0.959 . S
C4051 H4037 0.961 . S
C4051 C4050 1.502 . S
C4052 H4038 0.960 . S
C4052 H4039 0.961 . S
C4052 H4040 0.959 . S
C4052 C4050 1.561 . S
C4053 C4050 1.526 . S
C4053 C4054 1.396 . S
C4053 C4058 1.390 . S
C4054 C4048 1.465 . S
C4054 C4053 1.396 . S
C4054 C4055 1.399 . S
C4055 H4041 0.929 . S
C4055 C4054 1.399 . S
C4055 C4056 1.385 . S
C4056 H4042 0.931 . S
C4056 C4055 1.385 . S
C4056 C4057 1.389 . S
C4057 C4056 1.389 . S
C4057 C4058 1.387 . S
C4058 H4043 0.930 . S
C4058 C4053 1.390 . S
C4058 C4057 1.387 . S
H4059 C4071 0.930 . S
H4060 C4073 0.930 . S
H4061 C4074 0.930 . S
H4062 C4078 0.959 . S
H4063 C4078 0.959 . S
H4064 C4078 0.961 . S
H4065 C4079 0.960 . S
H4066 C4079 0.961 . S
H4067 C4079 0.959 . S
H4068 C4082 0.929 . S
H4069 C4083 0.931 . S
H4070 C4085 0.930 . S
C4071 H4059 0.930 . S
C4071 C4072 1.399 . S
C4071 C4076 1.399 . S
C4072 C4071 1.399 . S
C4072 C4073 1.376 . S
C4073 H4060 0.930 . S
C4073 C4072 1.376 . S
C4073 C4074 1.388 . S
C4074 H4061 0.930 . S
C4074 C4073 1.388 . S
C4074 C4075 1.390 . S
C4075 C4074 1.390 . S
C4075 C4076 1.394 . S
C4075 C4081 1.465 . S
C4076 C4071 1.399 . S
C4076 C4075 1.394 . S
C4076 C4077 1.516 . S
C4077 C4076 1.516 . S
C4077 C4078 1.502 . S
C4077 C4079 1.561 . S
C4077 C4080 1.526 . S
C4078 H4062 0.959 . S
C4078 H4063 0.959 . S
C4078 H4064 0.961 . S
C4078 C4077 1.502 . S
C4079 H4065 0.960 . S
C4079 H4066 0.961 . S
C4079 H4067 0.959 . S
C4079 C4077 1.561 . S
C4080 C4077 1.526 . S
C4080 C4081 1.396 . S
C4080 C4085 1.390 . S
C4081 C4075 1.465 . S
C4081 C4080 1.396 . S
C4081 C4082 1.399 1_565 S
C4082 H4068 0.929 . S
C4082 C4081 1.399 1_545 S
C4082 C4083 1.385 . S
C4083 H4069 0.931 . S
C4083 C4082 1.385 . S
C4083 C4084 1.403 . S
C4084 C4083 1.403 . S
C4084 C4085 1.367 1_545 S
C4085 H4070 0.930 . S
C4085 C4080 1.390 . S
C4085 C4084 1.367 1_565 S
H4086 C4098 0.930 . S
H4087 C4100 0.930 . S
H4088 C4101 0.930 . S
H4089 C4105 0.959 . S
H4090 C4105 0.959 . S
H4091 C4105 0.961 . S
H4092 C4106 0.960 . S
H4093 C4106 0.961 . S
H4094 C4106 0.959 . S
H4095 C4109 0.929 . S
H4096 C4110 0.931 . S
H4097 C4112 0.930 . S
C4098 H4086 0.930 . S
C4098 C4099 1.399 . S
C4098 C4103 1.399 . S
C4099 C4098 1.399 . S
C4099 C4100 1.376 . S
C4100 H4087 0.930 . S
C4100 C4099 1.376 . S
C4100 C4101 1.388 . S
C4101 H4088 0.930 . S
C4101 C4100 1.388 . S
C4101 C4102 1.390 . S
C4102 C4101 1.390 . S
C4102 C4103 1.394 . S
C4102 C4108 1.465 . S
C4103 C4098 1.399 . S
C4103 C4102 1.394 . S
C4103 C4104 1.516 . S
C4104 C4103 1.516 . S
C4104 C4105 1.502 . S
C4104 C4106 1.561 . S
C4104 C4107 1.526 . S
C4105 H4089 0.959 . S
C4105 H4090 0.959 . S
C4105 H4091 0.961 . S
C4105 C4104 1.502 . S
C4106 H4092 0.960 . S
C4106 H4093 0.961 . S
C4106 H4094 0.959 . S
C4106 C4104 1.561 . S
C4107 C4104 1.526 . S
C4107 C4108 1.396 . S
C4107 C4112 1.390 . S
C4108 C4102 1.465 . S
C4108 C4107 1.396 . S
C4108 C4109 1.399 . S
C4109 H4095 0.929 . S
C4109 C4108 1.399 . S
C4109 C4110 1.385 . S
C4110 H4096 0.931 . S
C4110 C4109 1.385 . S
C4110 C4111 1.389 . S
C4111 C4110 1.389 . S
C4111 C4112 1.387 . S
C4112 H4097 0.930 . S
C4112 C4107 1.390 . S
C4112 C4111 1.387 . S
H4113 C4125 0.930 1_556 S
H4114 C4127 0.930 . S
H4115 C4128 0.930 . S
H4116 C4132 0.959 1_554 S
H4117 C4132 0.959 . S
H4118 C4132 0.961 . S
H4119 C4133 0.960 . S
H4120 C4133 0.961 . S
H4121 C4133 0.959 . S
H4122 C4136 0.929 . S
H4123 C4137 0.931 . S
H4124 C4139 0.930 1_556 S
C4125 H4113 0.930 1_554 S
C4125 C4126 1.399 . S
C4125 C4130 1.399 . S
C4126 C4125 1.399 . S
C4126 C4127 1.376 . S
C4127 H4114 0.930 . S
C4127 C4126 1.376 . S
C4127 C4128 1.388 . S
C4128 H4115 0.930 . S
C4128 C4127 1.388 . S
C4128 C4129 1.390 . S
C4129 C4128 1.390 . S
C4129 C4130 1.394 . S
C4129 C4135 1.465 . S
C4130 C4125 1.399 . S
C4130 C4129 1.394 . S
C4130 C4131 1.516 1_554 S
C4131 C4130 1.516 1_556 S
C4131 C4132 1.502 . S
C4131 C4133 1.561 . S
C4131 C4134 1.526 1_556 S
C4132 H4116 0.959 1_556 S
C4132 H4117 0.959 . S
C4132 H4118 0.961 . S
C4132 C4131 1.502 . S
C4133 H4119 0.960 . S
C4133 H4120 0.961 . S
C4133 H4121 0.959 . S
C4133 C4131 1.561 . S
C4134 C4131 1.526 1_554 S
C4134 C4135 1.396 . S
C4134 C4139 1.390 . S
C4135 C4129 1.465 . S
C4135 C4134 1.396 . S
C4135 C4136 1.399 . S
C4136 H4122 0.929 . S
C4136 C4135 1.399 . S
C4136 C4137 1.385 . S
C4137 H4123 0.931 . S
C4137 C4136 1.385 . S
C4137 C4138 1.389 . S
C4138 C4137 1.389 . S
C4138 C4139 1.387 . S
C4139 H4124 0.930 1_554 S
C4139 C4134 1.390 . S
C4139 C4138 1.387 . S
H4140 C4152 0.930 . S
H4141 C4154 0.930 . S
H4142 C4155 0.930 . S
H4143 C4159 0.959 . S
H4144 C4159 0.959 . S
H4145 C4159 0.961 . S
H4146 C4160 0.960 . S
H4147 C4160 0.961 . S
H4148 C4160 0.959 . S
H4149 C4163 0.929 . S
H4150 C4164 0.931 . S
H4151 C4166 0.930 . S
C4152 H4140 0.930 . S
C4152 C4153 1.399 . S
C4152 C4157 1.399 . S
C4153 C4152 1.399 . S
C4153 C4154 1.376 . S
C4154 H4141 0.930 . S
C4154 C4153 1.376 . S
C4154 C4155 1.388 . S
C4155 H4142 0.930 . S
C4155 C4154 1.388 . S
C4155 C4156 1.390 . S
C4156 C4155 1.390 . S
C4156 C4157 1.394 . S
C4156 C4162 1.465 . S
C4157 C4152 1.399 . S
C4157 C4156 1.394 . S
C4157 C4158 1.516 . S
C4158 C4157 1.516 . S
C4158 C4159 1.502 . S
C4158 C4160 1.561 . S
C4158 C4161 1.526 . S
C4159 H4143 0.959 . S
C4159 H4144 0.959 . S
C4159 H4145 0.961 . S
C4159 C4158 1.502 . S
C4160 H4146 0.960 . S
C4160 H4147 0.961 . S
C4160 H4148 0.959 . S
C4160 C4158 1.561 . S
C4161 C4158 1.526 . S
C4161 C4162 1.396 . S
C4161 C4166 1.390 . S
C4162 C4156 1.465 . S
C4162 C4161 1.396 . S
C4162 C4163 1.399 . S
C4163 H4149 0.929 . S
C4163 C4162 1.399 . S
C4163 C4164 1.385 . S
C4164 H4150 0.931 . S
C4164 C4163 1.385 . S
C4164 C4165 1.389 . S
C4165 C4164 1.389 . S
C4165 C4166 1.387 . S
C4166 H4151 0.930 . S
C4166 C4161 1.390 . S
C4166 C4165 1.387 . S
H4167 C4179 0.930 . S
H4168 C4181 0.930 . S
H4169 C4182 0.930 . S
H4170 C4186 0.959 . S
H4171 C4186 0.959 . S
H4172 C4186 0.961 . S
H4173 C4187 0.960 . S
H4174 C4187 0.961 . S
H4175 C4187 0.959 . S
H4176 C4190 0.929 . S
H4177 C4191 0.931 . S
H4178 C4193 0.930 . S
C4179 H4167 0.930 . S
C4179 C4180 1.399 . S
C4179 C4184 1.399 . S
C4180 C4179 1.399 . S
C4180 C4181 1.376 . S
C4181 H4168 0.930 . S
C4181 C4180 1.376 . S
C4181 C4182 1.388 . S
C4182 H4169 0.930 . S
C4182 C4181 1.388 . S
C4182 C4183 1.390 . S
C4183 C4182 1.390 . S
C4183 C4184 1.394 . S
C4183 C4189 1.465 . S
C4184 C4179 1.399 . S
C4184 C4183 1.394 . S
C4184 C4185 1.516 1_554 S
C4185 C4184 1.516 1_556 S
C4185 C4186 1.502 . S
C4185 C4187 1.561 . S
C4185 C4188 1.526 1_556 S
C4186 H4170 0.959 . S
C4186 H4171 0.959 . S
C4186 H4172 0.961 . S
C4186 C4185 1.502 . S
C4187 H4173 0.960 . S
C4187 H4174 0.961 . S
C4187 H4175 0.959 . S
C4187 C4185 1.561 . S
C4188 C4185 1.526 1_554 S
C4188 C4189 1.396 . S
C4188 C4193 1.390 1_554 S
C4189 C4183 1.465 . S
C4189 C4188 1.396 . S
C4189 C4190 1.399 . S
C4190 H4176 0.929 . S
C4190 C4189 1.399 . S
C4190 C4191 1.385 . S
C4191 H4177 0.931 . S
C4191 C4190 1.385 . S
C4191 C4192 1.389 . S
C4192 C4191 1.389 . S
C4192 C4193 1.387 1_554 S
C4193 H4178 0.930 . S
C4193 C4188 1.390 1_556 S
C4193 C4192 1.387 1_556 S
H4194 C4206 0.930 . S
H4195 C4208 0.930 . S
H4196 C4209 0.930 . S
H4197 C4213 0.959 . S
H4198 C4213 0.959 . S
H4199 C4213 0.961 . S
H4200 C4214 0.960 . S
H4201 C4214 0.961 . S
H4202 C4214 0.959 . S
H4203 C4217 0.929 . S
H4204 C4218 0.931 . S
H4205 C4220 0.930 . S
C4206 H4194 0.930 . S
C4206 C4207 1.399 . S
C4206 C4211 1.399 . S
C4207 C4206 1.399 . S
C4207 C4208 1.376 . S
C4208 H4195 0.930 . S
C4208 C4207 1.376 . S
C4208 C4209 1.388 . S
C4209 H4196 0.930 . S
C4209 C4208 1.388 . S
C4209 C4210 1.390 . S
C4210 C4209 1.390 . S
C4210 C4211 1.394 . S
C4210 C4216 1.465 . S
C4211 C4206 1.399 . S
C4211 C4210 1.394 . S
C4211 C4212 1.516 . S
C4212 C4211 1.516 . S
C4212 C4213 1.502 . S
C4212 C4214 1.561 . S
C4212 C4215 1.526 . S
C4213 H4197 0.959 . S
C4213 H4198 0.959 . S
C4213 H4199 0.961 . S
C4213 C4212 1.502 . S
C4214 H4200 0.960 . S
C4214 H4201 0.961 . S
C4214 H4202 0.959 . S
C4214 C4212 1.561 . S
C4215 C4212 1.526 . S
C4215 C4216 1.396 . S
C4215 C4220 1.390 . S
C4216 C4210 1.465 . S
C4216 C4215 1.396 . S
C4216 C4217 1.399 . S
C4217 H4203 0.929 . S
C4217 C4216 1.399 . S
C4217 C4218 1.385 . S
C4218 H4204 0.931 . S
C4218 C4217 1.385 . S
C4218 C4219 1.389 . S
C4219 C4218 1.389 . S
C4219 C4220 1.387 . S
C4220 H4205 0.930 . S
C4220 C4215 1.390 . S
C4220 C4219 1.387 . S
H4221 C4233 0.930 . S
H4222 C4235 0.930 . S
H4223 C4236 0.930 . S
H4224 C4240 0.959 . S
H4225 C4240 0.959 . S
H4226 C4240 0.961 . S
H4227 C4241 0.960 . S
H4228 C4241 0.961 . S
H4229 C4241 0.959 . S
H4230 C4244 0.929 . S
H4231 C4245 0.931 . S
H4232 C4247 0.930 . S
C4233 H4221 0.930 . S
C4233 C4234 1.399 . S
C4233 C4238 1.399 . S
C4234 C4233 1.399 . S
C4234 C4235 1.376 . S
C4235 H4222 0.930 . S
C4235 C4234 1.376 . S
C4235 C4236 1.388 . S
C4236 H4223 0.930 . S
C4236 C4235 1.388 . S
C4236 C4237 1.390 . S
C4237 C4236 1.390 . S
C4237 C4238 1.394 . S
C4237 C4243 1.465 . S
C4238 C4233 1.399 . S
C4238 C4237 1.394 . S
C4238 C4239 1.516 . S
C4239 C4238 1.516 . S
C4239 C4240 1.502 . S
C4239 C4241 1.561 . S
C4239 C4242 1.526 . S
C4240 H4224 0.959 . S
C4240 H4225 0.959 . S
C4240 H4226 0.961 . S
C4240 C4239 1.502 . S
C4241 H4227 0.960 . S
C4241 H4228 0.961 . S
C4241 H4229 0.959 . S
C4241 C4239 1.561 . S
C4242 C4239 1.526 . S
C4242 C4243 1.396 . S
C4242 C4247 1.390 . S
C4243 C4237 1.465 . S
C4243 C4242 1.396 . S
C4243 C4244 1.399 . S
C4244 H4230 0.929 . S
C4244 C4243 1.399 . S
C4244 C4245 1.385 . S
C4245 H4231 0.931 . S
C4245 C4244 1.385 . S
C4245 C4246 1.389 . S
C4246 C4245 1.389 . S
C4246 C4247 1.387 . S
C4247 H4232 0.930 . S
C4247 C4242 1.390 . S
C4247 C4246 1.387 . S
C1669 C101 1.883 . S
C1681 C368 1.717 . S
C1696 C57 2.168 . S
C1708 C459 2.170 . S
C1723 C73 1.615 . S
C1735 C536 1.594 . S
C1762 C634 1.378 . S
C1750 C78 1.479 . S
C1777 C21 1.523 . S
C1789 C718 1.539 . S
C1816 C790 0.870 . S
C1804 C31 1.069 . S
C1843 C879 0.957 . S
C1831 C49 0.921 . S
C1858 C0 1.348 . S
C1870 C956 1.365 . S
C1897 C375 2.057 . S
C1885 C218 2.130 . S
C1912 C229 0.675 . S
C1924 C466 0.620 . S
C1951 C543 1.174 . S
C1939 C257 1.211 . S
C1978 C620 1.546 . S
C1966 C164 1.589 . S
C1993 C216 1.941 . S
C2005 C704 1.987 . S
C2032 C806 1.157 . S
C2020 C231 1.188 . S
C2059 C886 0.855 . S
C2047 C255 0.843 . S
C2086 C963 1.480 . S
C2074 C166 1.633 . S
C2113 C382 1.323 . S
C2101 C143 1.403 . S
C2128 C265 1.913 . S
C2140 C1047 1.920 . S
C2167 C1135 2.160 . S
C2155 C299 2.292 . S
C2194 C1208 0.679 . S
C2182 C291 0.590 . S
C2209 C104 0.791 . S
C2221 C970 0.834 . S
C2236 C117 1.378 . S
C2248 C550 1.369 . S
C2263 C304 2.179 . S
C2275 C1299 2.111 . S
C2302 C1376 0.707 . S
C2290 C278 0.644 . S
C2329 C379 1.729 . S
C2317 C60 1.836 . S
C2356 C1394 2.049 . S
C2344 C96 2.131 . S
C2371 C88 1.617 . S
C2383 C547 1.547 . S
C2398 C65 1.436 . S
C2410 C1294 1.409 . S
C2437 C706 1.471 . S
C2425 C10 1.512 . S
C2452 C44 0.982 . S
C2464 C1138 0.888 . S
C2491 C890 0.817 . S
C2479 C34 0.777 . S
C2518 C1471 1.311 . S
C2506 C13 1.446 . S
C2545 C386 1.927 . S
C2533 C138 1.980 . S
C2572 C1378 0.664 . S
C2560 C296 0.681 . S
C2587 C112 1.148 . S
C2599 C554 1.153 . S
C2614 C270 1.579 . S
C2626 C1303 1.450 . S
C2641 C140 2.032 . S
C2653 C715 1.820 . S
C2680 C1131 1.130 . S
C2668 C294 1.147 . S
C2695 C114 0.750 . S
C2707 C874 0.836 . S
C2722 C268 1.548 . S
C2734 C1478 1.479 . S
C2749 C169 1.406 . S
C2761 C370 1.263 1_554 S
C2776 C161 1.897 . S
C2788 C1058 1.865 . S
C2803 C234 2.270 . S
C2815 C788 2.129 . S
C2830 C226 0.475 . S
C2842 C1219 0.394 . S
C2869 C1462 0.869 . S
C2857 C247 0.867 1_565 S
C2884 C195 1.414 . S
C2896 C538 1.403 . S
C2923 C638 2.083 . S
C2911 C239 2.117 . S
C2950 C463 0.510 . S
C2938 C187 0.536 . S
C2965 C75 1.845 . S
C2977 C1544 1.797 . S
C3004 C1383 2.123 . S
C2992 C83 2.142 . S
C3019 C99 1.627 . S
C3031 C1628 1.670 . S
C3046 C52 1.480 . S
C3058 C1306 1.381 . S
C3073 C47 1.513 . S
C3085 C1054 1.488 . S
C3112 C1126 1.016 . S
C3100 C5 0.951 . S
C3139 C1215 0.974 . S
C3127 C23 0.948 . S
C3166 C1460 1.253 . S
C3154 C26 1.364 . S
C3193 C1551 2.057 . S
C3181 C244 2.129 . S
C3208 C177 0.689 . S
C3220 C1390 0.640 . S
C3247 C1635 1.120 . S
C3235 C192 1.154 . S
C3274 C1292 1.624 . S
C3262 C203 1.589 . S
C3301 C1040 1.987 . S
C3289 C242 1.942 . S
C3316 C179 1.184 . S
C3328 C1142 1.174 . S
C3355 C1222 0.765 . S
C3343 C190 0.824 . S
C3370 C205 1.619 . S
C3382 C1467 1.516 . S
C3409 C1558 1.287 . S
C3397 C286 1.335 . S
C3424 C122 1.924 . S
C3436 C711 1.869 . S
C3463 C799 2.149 . S
C3451 C130 2.301 . S
C3490 C872 0.545 . S
C3478 C148 0.658 . S
C3517 C1474 0.745 . S
C3505 C273 0.712 . S
C3532 C260 1.328 . S
C3544 C1642 1.351 . S
C3571 C627 2.167 . S
C3559 C135 2.162 . S
C3598 C452 0.709 . S
C3586 C109 0.646 . S
C3613 C86 1.830 . S
C3625 C1555 1.712 . S
C3652 C470 2.068 . S
C3640 C70 2.145 . S
C3667 C62 1.603 . S
C3679 C1639 1.509 . S
C3694 C91 1.485 . S
C3706 C622 1.297 . S
C3721 C36 1.529 . S
C3733 C1042 1.498 . S
C3760 C802 0.989 . S
C3748 C18 0.875 . S
C3775 C8 0.837 . S
C3787 C1226 0.840 . S
C3802 C39 1.438 . S
C3814 C967 1.195 . S
C3841 C1562 1.930 . S
C3829 C307 1.981 . S
C3856 C153 0.697 . S
C3868 C454 0.736 . S
C3895 C1646 1.061 . S
C3883 C281 1.109 . S
C3910 C127 1.592 . S
C3922 C631 1.529 . S
C3937 C309 2.035 . S
C3949 C1051 1.823 . S
C3976 C795 1.009 . S
C3964 C151 1.166 . S
C3991 C283 0.705 . S
C4003 C1210 0.625 . S
C4030 C974 1.392 . S
C4018 C125 1.533 . S
C4057 C1546 1.363 . S
C4045 C221 1.355 . S
C4084 C722 1.864 1_655 S
C4072 C200 1.907 . S
C4099 C208 2.273 . S
C4111 C1124 2.127 . S
C4138 C883 0.646 . S
C4126 C174 0.554 . S
C4153 C182 0.873 . S
C4165 C958 0.892 . S
C4180 C156 1.414 . S
C4192 C1630 1.404 1_554 S
C4219 C1310 2.086 . S
C4207 C213 2.114 1_565 S
C4246 C1387 0.537 . S
C4234 C252 0.566 . S
