# Generated by pormake.
# Topology nia, (6,6)-cn, num edge types: 1
# Building blocks:
#     Node 0, Type 0, BuildingBlock: NUHQIS_clean_sbu_0, # of connection points: 6
#     Node 1, Type 0, BuildingBlock: NUHQIS_clean_sbu_0, # of connection points: 6
#     Node 2, Type 1, BuildingBlock: MIDCAF_clean_sbu_0, # of connection points: 6
#     Node 3, Type 1, BuildingBlock: MIDCAF_clean_sbu_0, # of connection points: 6
#     Edge 4, Type (0, 1), BuildingBlock: FUNLAD_clean_linker_0, # of connection points: 2
#     Edge 5, Type (0, 1), BuildingBlock: FUNLAD_clean_linker_0, # of connection points: 2
#     Edge 6, Type (0, 1), BuildingBlock: FUNLAD_clean_linker_0, # of connection points: 2
#     Edge 7, Type (0, 1), BuildingBlock: FUNLAD_clean_linker_0, # of connection points: 2
#     Edge 8, Type (0, 1), BuildingBlock: FUNLAD_clean_linker_0, # of connection points: 2
#     Edge 9, Type (0, 1), BuildingBlock: FUNLAD_clean_linker_0, # of connection points: 2
#     Edge 10, Type (0, 1), BuildingBlock: FUNLAD_clean_linker_0, # of connection points: 2
#     Edge 11, Type (0, 1), BuildingBlock: FUNLAD_clean_linker_0, # of connection points: 2
#     Edge 12, Type (0, 1), BuildingBlock: FUNLAD_clean_linker_0, # of connection points: 2
#     Edge 13, Type (0, 1), BuildingBlock: FUNLAD_clean_linker_0, # of connection points: 2
#     Edge 14, Type (0, 1), BuildingBlock: FUNLAD_clean_linker_0, # of connection points: 2
#     Edge 15, Type (0, 1), BuildingBlock: FUNLAD_clean_linker_0, # of connection points: 2
# Relax obj value: 0.207
# Max RMSD: 0.274
# Mean RMSD: 0.212
data_MOF--net-nia--node1-NUHQIS_clean_sbu_0--node2-MIDCAF_clean_sbu_0--edge1-FUNLAD_clean_linker_0
_symmetry_space_group_name_H-M    P1
_symmetry_Int_Tables_number       1
_symmetry_cell_setting            triclinic
loop_
_symmetry_equiv_pos_as_xyz
'x, y, z'
_cell_length_a     32.997576
_cell_length_b     33.034922
_cell_length_c     35.239885
_cell_angle_alpha  90.449496
_cell_angle_beta   91.15495
_cell_angle_gamma 133.71998
loop_
_atom_site_label
_atom_site_type_symbol
_atom_site_fract_x
_atom_site_fract_y
_atom_site_fract_z
_atom_type_partial_charge
Tb0 Tb -0.01993 0.01853 1.01225 0.0
Eu1 Eu 0.01041 0.96994 0.07635 0.0
C2 C 0.08561 0.03366 1.00457 0.0
C3 C 0.94382 0.90304 0.99865 0.0
C4 C 0.93014 0.07738 0.95895 0.0
C5 C 0.93901 0.15632 0.95136 0.0
C6 C 0.96334 0.13543 0.95874 0.0
C7 C 0.87194 0.04063 0.95178 0.0
C8 C 0.84762 0.06156 0.94427 0.0
C9 C 0.88097 0.11963 0.94367 0.0
C10 C 0.95708 0.05584 0.96292 0.0
O11 O 0.90605 0.96249 0.04658 0.0
O12 O 0.94861 0.96997 0.1019 0.0
O13 O 0.06738 0.06226 0.08684 0.0
O14 O 0.00958 0.07193 0.06298 0.0
C15 C 0.90586 0.95706 0.08352 0.0
O16 O -0.01783 0.90623 0.11715 0.0
O17 O 0.07094 0.98047 0.11345 0.0
O18 O 0.06399 -0.00838 1.02692 0.0
O19 O 0.06502 0.05633 1.0019 0.0
O20 O 0.96498 0.95032 0.98379 0.0
O21 O 0.94666 0.89868 1.03537 0.0
C22 C 0.05232 0.0899 0.08482 0.0
O23 O 0.00452 0.08687 0.98243 0.0
O24 O 0.92491 0.00278 0.96968 0.0
C25 C 0.04585 0.89822 0.13383 0.0
C26 C 0.07523 0.83673 0.14406 0.0
C27 C 0.07348 0.86213 0.17534 0.0
C28 C 0.0589 0.89258 0.17022 0.0
C29 C 0.04667 0.87246 0.10247 0.0
C30 C 0.06126 0.84186 0.10755 0.0
C31 C 0.03292 0.93231 0.12929 0.0
H32 H 0.96594 0.20127 0.95056 0.0
H33 H 0.00842 0.16482 0.96341 0.0
H34 H 0.84523 -0.00434 0.95126 0.0
H35 H 0.80271 0.03228 0.9388 0.0
H36 H 0.08488 0.85981 0.20372 0.0
H37 H 0.05861 0.91248 0.19468 0.0
H38 H 0.03654 0.87645 0.07415 0.0
H39 H 0.06169 0.82233 0.08294 0.0
Tb40 Tb -0.02311 0.01989 0.58174 0.0
Eu41 Eu 0.02888 -0.00937 0.52071 0.0
C42 C 0.94707 0.90591 0.58579 0.0
C43 C 0.08513 0.0452 0.60118 0.0
C44 C 0.91801 0.06725 0.63755 0.0
C45 C 0.84138 0.06157 0.62609 0.0
C46 C 0.86785 0.04314 0.618 0.0
C47 C 0.94185 0.11055 0.66453 0.0
C48 C 0.91566 0.12911 0.67246 0.0
C49 C 0.86489 0.10447 0.65362 0.0
C50 C 0.94516 0.04659 0.63226 0.0
O51 O 0.0016 0.07388 0.53446 0.0
O52 O 0.0716 0.08057 0.51464 0.0
O53 O 0.9594 0.97535 0.4893 0.0
O54 O 0.90982 0.96764 0.53868 0.0
C55 C 0.0469 0.09903 0.51509 0.0
O56 O 0.10301 0.01494 0.49559 0.0
O57 O 0.01952 0.944 0.47184 0.0
O58 O 0.96375 0.91021 0.55121 0.0
O59 O 0.95919 0.9481 0.60419 0.0
O60 O 0.06375 0.06672 0.59739 0.0
O61 O 0.07011 0.00571 0.57754 0.0
C62 C 0.91409 0.96062 0.50268 0.0
O63 O 0.91453 -0.00428 0.61848 0.0
O64 O -0.00505 0.08151 0.61825 0.0
C65 C 0.09125 0.94638 0.45907 0.0
C66 C 0.11935 0.88899 0.43027 0.0
C67 C 0.1477 0.94336 0.41859 0.0
C68 C 0.13374 0.97172 0.43289 0.0
C69 C 0.06375 0.89276 0.47176 0.0
C70 C 0.07774 0.86425 0.45744 0.0
C71 C 0.07332 0.97486 0.4696 0.0
H72 H 0.80257 0.04228 0.61086 0.0
H73 H 0.84878 0.00973 0.59694 0.0
H74 H -0.01963 0.12939 0.68004 0.0
H75 H 0.93441 0.16172 0.69413 0.0
H76 H 0.17944 0.96335 0.39741 0.0
H77 H 0.155 0.01292 0.42257 0.0
H78 H 0.03076 0.87255 0.49199 0.0
H79 H 0.05576 0.82275 0.46743 0.0
Zn80 Zn 0.35656 0.63805 0.21924 0.0
Zn81 Zn 0.35818 0.65936 0.36876 0.0
Zn82 Zn 0.357 0.64537 0.29524 0.0
C83 C 0.46946 0.73205 0.34766 0.0
C84 C 0.30145 0.54739 0.35661 0.0
O85 O 0.31168 0.66585 0.26858 0.0
O86 O 0.31406 0.65832 0.20629 0.0
C87 C 0.46796 0.71395 0.24304 0.0
O88 O 0.44559 0.70682 0.31526 0.0
O89 O 0.44052 0.7204 0.37597 0.0
O90 O 0.31916 0.58264 0.38315 0.0
O91 O 0.3112 0.56274 0.3218 0.0
O92 O 0.43823 0.69446 0.21277 0.0
O93 O 0.44508 0.69958 0.2757 0.0
O94 O 0.30841 0.55712 0.2819 0.0
O95 O 0.31579 0.55744 0.2194 0.0
C96 C 0.29794 0.53153 0.25012 0.0
O97 O 0.31866 0.67887 0.30781 0.0
O98 O 0.3153 0.68023 0.37045 0.0
C99 C 0.29849 0.66798 0.23443 0.0
C100 C 0.30524 0.68861 0.33831 0.0
Zn101 Zn 0.66003 0.37693 0.86781 0.0
Zn102 Zn 0.60792 0.32918 0.71981 0.0
Zn103 Zn 0.63384 0.35239 0.79402 0.0
C104 C 0.67589 0.44387 0.72949 0.0
C105 C 0.50775 0.26376 0.75722 0.0
O106 O 0.67114 0.32005 0.81338 0.0
O107 O 0.68564 0.3383 0.8754 0.0
C108 C 0.72094 0.47769 0.83145 0.0
O109 O 0.67829 0.43165 0.76364 0.0
O110 O 0.64399 0.4055 0.70444 0.0
O111 O 0.52601 0.2697 0.72461 0.0
O112 O 0.54173 0.29307 0.78596 0.0
O113 O 0.71799 0.45899 0.86339 0.0
O114 O 0.69088 0.44408 0.80276 0.0
O115 O 0.55509 0.30823 0.82454 0.0
O116 O 0.58392 0.34055 0.88393 0.0
C117 C 0.54455 0.31044 0.85913 0.0
O118 O 0.66626 0.31643 0.77348 0.0
O119 O 0.64767 0.30492 0.71145 0.0
C120 C 0.68716 0.31722 0.8461 0.0
C121 C 0.66898 0.30211 0.74021 0.0
C122 C 0.07756 0.77373 0.18118 0.0
C123 C 0.09412 0.80735 0.14957 0.0
C124 C 0.09916 0.74997 0.18811 0.0
C125 C 0.13802 0.75957 0.16356 0.0
C126 C 0.15264 0.79116 0.13116 0.0
C127 C 0.13118 0.81501 0.12429 0.0
C128 C 0.16506 0.73842 0.17075 0.0
C129 C 0.17065 0.72524 0.20533 0.0
C130 C 0.20323 0.71005 0.21213 0.0
C131 C 0.18923 0.67495 0.24211 0.0
C132 C 0.21998 0.66084 0.24944 0.0
C133 C 0.26598 0.68273 0.22744 0.0
H134 H 0.2629 0.76065 0.16771 0.0
C135 C 0.28012 0.7179 0.19758 0.0
C136 C 0.24943 0.73184 0.19016 0.0
H137 H 0.3156 0.73538 0.18029 0.0
H138 H 0.04803 0.76597 0.20071 0.0
H139 H 0.08511 0.72418 0.21263 0.0
H140 H 0.18217 0.7989 0.11162 0.0
H141 H 0.14517 0.84103 0.09985 0.0
H142 H 0.18358 0.73635 0.14661 0.0
H143 H 0.15172 0.72616 0.2297 0.0
H144 H 0.15422 0.65808 0.2597 0.0
H145 H 0.20775 0.63276 0.2722 0.0
C146 C 0.14904 0.04331 0.63893 0.0
C147 C 0.12758 0.0674 0.63195 0.0
C148 C 0.18956 0.06513 0.66796 0.0
C149 C 0.20925 0.11144 0.69064 0.0
C150 C 0.18722 0.13493 0.68386 0.0
C151 C 0.14661 0.113 0.65505 0.0
C152 C 0.25749 0.1407 0.71803 0.0
C153 C 0.27274 0.11604 0.73434 0.0
C154 C 0.33043 0.14965 0.75008 0.0
C155 C 0.35703 0.13135 0.74176 0.0
C156 C 0.41499 0.16777 0.74678 0.0
C157 C 0.4469 0.22242 0.76124 0.0
H158 H 0.342 0.21726 0.77571 0.0
C159 C 0.4199 0.23897 0.77343 0.0
C160 C 0.36177 0.20268 0.76793 0.0
H161 H 0.44405 0.28105 0.78476 0.0
H162 H 0.13515 0.0081 0.62168 0.0
H163 H 0.20683 0.04697 0.67138 0.0
H164 H 0.20219 0.17103 0.70053 0.0
H165 H 0.13083 0.1325 0.65057 0.0
H166 H 0.2842 0.18559 0.72196 0.0
H167 H 0.24626 0.07122 0.73035 0.0
H168 H 0.33373 0.09056 0.7283 0.0
H169 H 0.43532 0.15435 0.73734 0.0
C170 C 0.06014 0.16171 0.11967 0.0
C171 C 0.08425 0.1416 0.10837 0.0
C172 C 0.09064 0.20967 0.14337 0.0
C173 C 0.14592 0.23847 0.15559 0.0
C174 C 0.17006 0.21874 0.14371 0.0
C175 C 0.1394 0.1705 0.12073 0.0
C176 C 0.18138 0.2916 0.17815 0.0
C177 C 0.16161 0.30328 0.20465 0.0
C178 C 0.19756 0.35926 0.22408 0.0
C179 C 0.17247 0.37742 0.23777 0.0
C180 C 0.20563 0.43325 0.24975 0.0
C181 C 0.26415 0.47133 0.24816 0.0
H182 H 0.27765 0.38361 0.21841 0.0
C183 C 0.28943 0.45236 0.23774 0.0
C184 C 0.25649 0.39652 0.22652 0.0
H185 H 0.33469 0.48135 0.2367 0.0
H186 H 0.01765 0.14012 0.11056 0.0
H187 H 0.07147 0.22485 0.15126 0.0
H188 H 0.21282 0.24068 0.15236 0.0
H189 H 0.15925 0.1562 0.11228 0.0
H190 H 0.22561 0.32211 0.17198 0.0
H191 H 0.1171 0.27242 0.21029 0.0
H192 H 0.12723 0.3494 0.23689 0.0
H193 H 0.18556 0.44751 0.25762 0.0
C194 C 0.86689 0.17991 0.6692 0.0
C195 C 0.8361 0.12271 0.66365 0.0
C196 C 0.84032 0.19715 0.68027 0.0
C197 C 0.78231 0.15739 0.68634 0.0
C198 C 0.75143 0.10031 0.68009 0.0
C199 C 0.77802 0.08307 0.66895 0.0
C200 C 0.75213 0.17394 0.69711 0.0
C201 C 0.77731 0.22348 0.71421 0.0
C202 C 0.74758 0.2415 0.72179 0.0
C203 C 0.76996 0.28385 0.74947 0.0
C204 C 0.74431 0.30353 0.75591 0.0
C205 C 0.69572 0.28092 0.73487 0.0
H206 H 0.682 0.18883 0.67764 0.0
C207 C 0.67377 0.2392 0.7069 0.0
C208 C 0.69941 0.21976 0.70031 0.0
H209 H 0.63676 0.2217 0.68988 0.0
H210 H 0.91156 0.21144 0.6646 0.0
H211 H 0.86531 0.24164 0.68326 0.0
H212 H 0.7066 0.06886 0.68414 0.0
H213 H 0.75329 0.03867 0.6652 0.0
H214 H 0.70713 0.14331 0.6913 0.0
H215 H 0.8211 0.25183 0.72354 0.0
H216 H 0.80752 0.30196 0.766 0.0
H217 H 0.76285 0.33688 0.77691 0.0
C218 C 0.85453 0.92787 0.14432 0.0
C219 C 0.85649 0.93597 0.105 0.0
C220 C 0.80766 0.9072 0.16455 0.0
C221 C 0.76147 0.89392 0.14584 0.0
C222 C 0.764 0.9031 0.10673 0.0
C223 C 0.81076 0.92363 0.08649 0.0
C224 C 0.71016 0.87096 0.16584 0.0
C225 C 0.69403 0.84376 0.19884 0.0
C226 C 0.63904 0.81551 0.21543 0.0
C227 C 0.61103 0.76612 0.23549 0.0
C228 C 0.55609 0.73451 0.24698 0.0
C229 C 0.52898 0.75267 0.23956 0.0
H230 H 0.63366 0.87391 0.1957 0.0
C231 C 0.55801 0.80364 0.22161 0.0
C232 C 0.61274 0.83511 0.20993 0.0
H233 H 0.53745 0.81796 0.21519 0.0
H234 H 0.88922 0.93742 0.15959 0.0
H235 H 0.80826 0.90237 0.19481 0.0
H236 H 0.72929 0.8937 0.09158 0.0
H237 H 0.81091 0.92967 0.05631 0.0
H238 H 0.68235 0.87288 0.15104 0.0
H239 H 0.71872 0.83685 0.21212 0.0
H240 H 0.63041 0.75024 0.24033 0.0
H241 H 0.53375 0.69439 0.25972 0.0
C242 C 0.91786 0.81371 0.59696 0.0
C243 C 0.91335 0.85211 0.60533 0.0
C244 C 0.88523 0.76292 0.61586 0.0
C245 C 0.84676 0.74933 0.64281 0.0
C246 C 0.8419 0.78744 0.65071 0.0
C247 C 0.87539 0.8386 0.63262 0.0
C248 C 0.80848 0.69431 0.66123 0.0
C249 C 0.8242 0.66792 0.67254 0.0
C250 C 0.78454 0.61179 0.68963 0.0
C251 C 0.80441 0.59766 0.71687 0.0
C252 C 0.7684 0.54368 0.73135 0.0
C253 C 0.71214 0.50269 0.71835 0.0
H254 H 0.71141 0.57994 0.65567 0.0
C255 C 0.69217 0.51691 0.69134 0.0
C256 C 0.72784 0.57095 0.67729 0.0
H257 H 0.64911 0.48582 0.68052 0.0
H258 H 0.94673 0.82304 0.57601 0.0
H259 H 0.88899 0.73373 0.60863 0.0
H260 H 0.81217 0.77765 0.67105 0.0
H261 H 0.87058 0.8671 0.63943 0.0
H262 H 0.76662 0.67623 0.66718 0.0
H263 H 0.86767 0.68861 0.67018 0.0
H264 H 0.84802 0.62821 0.72658 0.0
H265 H 0.78516 0.53334 0.75145 0.0
C266 C 0.18805 0.8855 0.40656 0.0
C267 C 0.1323 0.85793 0.41328 0.0
C268 C 0.20033 0.8566 0.39009 0.0
C269 C 0.15699 0.79939 0.37979 0.0
C270 C 0.10133 0.77184 0.38661 0.0
C271 C 0.08903 0.80079 0.40302 0.0
C272 C 0.16873 0.7661 0.36549 0.0
C273 C 0.2167 0.7888 0.34884 0.0
C274 C 0.23351 0.75768 0.34234 0.0
C275 C 0.27572 0.77814 0.31662 0.0
C276 C 0.29776 0.7542 0.31383 0.0
C277 C 0.27787 0.70953 0.33683 0.0
H278 H 0.18185 0.69588 0.38569 0.0
C279 C 0.2349 0.68823 0.36182 0.0
C280 C 0.21287 0.71191 0.36458 0.0
H281 H 0.2194 0.65414 0.38013 0.0
H282 H 0.22242 0.92924 0.41477 0.0
H283 H 0.24394 0.87892 0.38673 0.0
H284 H 0.06721 0.72764 0.37939 0.0
H285 H 0.04558 0.77851 0.40738 0.0
H286 H 0.13688 0.72129 0.36979 0.0
H287 H 0.24601 0.8324 0.34094 0.0
H288 H 0.29278 0.8137 0.29945 0.0
H289 H 0.33153 0.77175 0.29474 0.0
C290 C 0.15772 0.10167 0.95765 0.0
C291 C 0.13531 0.05755 0.98225 0.0
C292 C 0.20549 0.12582 0.93734 0.0
C293 C 0.23247 0.10677 0.94132 0.0
C294 C 0.20903 0.0614 0.96484 0.0
C295 C 0.16109 0.03716 0.98525 0.0
C296 C 0.2853 0.13386 0.92171 0.0
C297 C 0.32293 0.18869 0.91358 0.0
C298 C 0.37867 0.21857 0.89781 0.0
C299 C 0.42316 0.27568 0.90734 0.0
C300 C 0.47678 0.30539 0.89426 0.0
C301 C 0.48682 0.27903 0.87053 0.0
H302 H 0.35481 0.14846 0.86499 0.0
C303 C 0.44224 0.22226 0.86004 0.0
C304 C 0.38847 0.19213 0.8736 0.0
H305 H 0.44927 0.20095 0.84212 0.0
H306 H 0.13854 0.11794 0.95408 0.0
H307 H 0.22095 0.15927 0.91844 0.0
H308 H 0.22859 0.04548 0.96813 0.0
H309 H 0.14469 0.00292 1.00367 0.0
H310 H 0.2955 0.10928 0.91684 0.0
H311 H 0.31502 0.21435 0.92201 0.0
H312 H 0.41673 0.29717 0.9257 0.0
H313 H 0.51057 0.34914 0.90278 0.0
C314 C 0.12004 0.17784 0.47316 0.0
C315 C 0.07009 0.14854 0.49271 0.0
C316 C 0.14196 0.22461 0.45205 0.0
C317 C 0.11408 0.24288 0.44976 0.0
C318 C 0.06399 0.21325 0.46912 0.0
C319 C 0.04219 0.16666 0.49029 0.0
C320 C 0.13754 0.29479 0.43021 0.0
C321 C 0.18006 0.32275 0.4059 0.0
C322 C 0.20748 0.37881 0.39151 0.0
C323 C 0.23834 0.39815 0.35822 0.0
C324 C 0.26805 0.45253 0.34593 0.0
C325 C 0.26748 0.48846 0.36681 0.0
H326 H 0.18588 0.40319 0.43872 0.0
C327 C 0.23637 0.46893 0.39987 0.0
C328 C 0.20704 0.4151 0.41218 0.0
H329 H 0.23542 0.49579 0.41679 0.0
H330 H 0.14271 0.1651 0.47448 0.0
H331 H 0.18136 0.24679 0.43852 0.0
H332 H 0.04177 0.22652 0.46821 0.0
H333 H 0.00353 0.14502 0.50484 0.0
H334 H 0.11868 0.31081 0.43663 0.0
H335 H 0.19597 0.30478 0.39633 0.0
H336 H 0.24032 0.37154 0.34208 0.0
H337 H 0.29326 0.46716 0.32116 0.0
C338 C 0.81601 0.11837 0.90396 0.0
C339 C 0.85577 0.1421 0.93416 0.0
C340 C 0.79388 0.14096 0.89417 0.0
C341 C 0.81118 0.18786 0.91447 0.0
C342 C 0.85001 0.21069 0.94511 0.0
C343 C 0.87228 0.18831 0.95475 0.0
C344 C 0.78949 0.21397 0.90542 0.0
C345 C 0.76597 0.20855 0.87162 0.0
C346 C 0.74752 0.23799 0.86377 0.0
C347 C 0.70271 0.21416 0.83767 0.0
C348 C 0.68323 0.24017 0.83118 0.0
C349 C 0.70897 0.29082 0.85028 0.0
H350 H 0.81047 0.31081 0.90078 0.0
C351 C 0.75476 0.31546 0.87541 0.0
C352 C 0.77425 0.28973 0.88181 0.0
H353 H 0.77568 0.35489 0.89013 0.0
H354 H 0.80266 0.08285 0.88747 0.0
H355 H 0.763 0.12113 0.87102 0.0
H356 H 0.86371 0.24646 0.96149 0.0
H357 H 0.90224 0.20704 0.97849 0.0
H358 H 0.79455 0.2401 0.92778 0.0
H359 H 0.75928 0.18166 0.84914 0.0
H360 H 0.68194 0.17477 0.82297 0.0
H361 H 0.6476 0.2203 0.8118 0.0
C362 C 0.82556 0.93644 0.48505 0.0
C363 C 0.86683 0.93658 0.47581 0.0
C364 C 0.78087 0.91354 0.45954 0.0
C365 C 0.77643 0.88998 0.42439 0.0
C366 C 0.81731 0.8896 0.41534 0.0
C367 C 0.8625 0.9133 0.44059 0.0
C368 C 0.72703 0.86143 0.39834 0.0
C369 C 0.70092 0.87933 0.39457 0.0
C370 C 0.64446 0.84552 0.37609 0.0
C371 C 0.61345 0.85848 0.38598 0.0
C372 C 0.55701 0.82284 0.37485 0.0
C373 C 0.53072 0.77403 0.35304 0.0
H374 H 0.6415 0.78752 0.3428 0.0
C375 C 0.56225 0.76269 0.34092 0.0
C376 C 0.61891 0.79837 0.35205 0.0
H377 H 0.54219 0.72439 0.32503 0.0
H378 H 0.82773 0.95401 0.51198 0.0
H379 H 0.74902 0.91286 0.46792 0.0
H380 H 0.81426 0.87091 0.38869 0.0
H381 H 0.89348 0.91242 0.43278 0.0
H382 H 0.71101 0.82362 0.38362 0.0
H383 H 0.71926 0.91827 0.40905 0.0
H384 H 0.63201 0.89466 0.40417 0.0
H385 H 0.53328 0.83231 0.38454 0.0
C386 C 0.90438 0.80644 0.98836 0.0
C387 C 0.92049 0.85481 0.97325 0.0
C388 C 0.88557 0.76213 0.96448 0.0
C389 C 0.88182 0.76468 0.92498 0.0
C390 C 0.89718 0.81271 0.90969 0.0
C391 C 0.91636 0.85739 0.93367 0.0
C392 C 0.86355 0.71693 0.90123 0.0
C393 C 0.84209 0.70422 0.86537 0.0
C394 C 0.81814 0.65094 0.84653 0.0
C395 C 0.76626 0.61737 0.82648 0.0
C396 C 0.73608 0.56111 0.81761 0.0
C397 C 0.75785 0.53841 0.82871 0.0
H398 H 0.88371 0.65541 0.86691 0.0
C399 C 0.81241 0.5737 0.84459 0.0
C400 C 0.84272 0.62977 0.85292 0.0
H401 H 0.83013 0.55698 0.85289 0.0
H402 H 0.90717 0.80301 1.01866 0.0
H403 H 0.8741 0.72566 0.97704 0.0
H404 H 0.89584 0.81665 0.87935 0.0
H405 H 0.9287 0.89422 0.92111 0.0
H406 H 0.8642 0.68822 0.91534 0.0
H407 H 0.83554 0.72877 0.85179 0.0
H408 H 0.74695 0.63312 0.82069 0.0
H409 H 0.69398 0.53436 0.80524 0.0
loop_
_geom_bond_atom_site_label_1
_geom_bond_atom_site_label_2
_geom_bond_distance
_geom_bond_site_symmetry_2
_ccdc_geom_bond_type
Tb0 C10 2.825 . S
Tb0 O11 2.347 1_546 S
Tb0 O14 2.350 1_656 S
Tb0 O19 2.418 1_655 S
Tb0 O20 2.384 1_545 S
Tb0 O23 2.479 . S
Tb0 O24 2.471 . S
Eu1 O12 2.418 1_455 S
Eu1 O13 2.384 1_565 S
Eu1 O16 2.479 . S
Eu1 O17 2.471 . S
Eu1 O18 2.347 1_564 S
Eu1 O21 2.366 1_455 S
Eu1 C31 2.825 . S
C2 O18 1.259 . S
C2 O19 1.265 . S
C3 O20 1.255 . S
C3 O21 1.265 1_556 S
C4 C6 1.380 . S
C4 C7 1.374 . S
C4 C10 1.507 . S
C5 C6 1.384 . S
C5 C9 1.387 . S
C5 H32 0.930 . S
C6 C4 1.380 . S
C6 C5 1.384 . S
C6 H33 0.931 . S
C7 C4 1.374 . S
C7 C8 1.390 . S
C7 H34 0.930 . S
C8 C7 1.390 . S
C8 C9 1.391 . S
C8 H35 0.930 . S
C9 C5 1.387 . S
C9 C8 1.391 . S
C10 Tb0 2.825 . S
C10 C4 1.507 . S
C10 O23 1.238 . S
C10 O24 1.247 . S
O11 Tb0 2.347 1_564 S
O11 C15 1.259 . S
O12 Eu1 2.418 1_655 S
O12 C15 1.265 . S
O13 Eu1 2.384 1_545 S
O13 C22 1.255 . S
O14 Tb0 2.350 1_454 S
O14 C22 1.290 . S
C15 O11 1.259 . S
C15 O12 1.265 . S
O16 Eu1 2.479 . S
O16 C31 1.238 . S
O17 Eu1 2.471 . S
O17 C31 1.247 . S
O18 Eu1 2.347 1_546 S
O18 C2 1.259 . S
O19 Tb0 2.418 1_455 S
O19 C2 1.265 . S
O20 Tb0 2.384 1_565 S
O20 C3 1.255 . S
O21 Eu1 2.366 1_655 S
O21 C3 1.265 1_554 S
C22 O13 1.255 . S
C22 O14 1.290 . S
O23 Tb0 2.479 . S
O23 C10 1.238 . S
O24 Tb0 2.471 . S
O24 C10 1.247 . S
C25 C28 1.380 . S
C25 C29 1.374 . S
C25 C31 1.507 . S
C26 C27 1.387 . S
C26 C30 1.391 . S
C27 C26 1.387 . S
C27 C28 1.384 . S
C27 H36 0.930 . S
C28 C25 1.380 . S
C28 C27 1.384 . S
C28 H37 0.931 . S
C29 C25 1.374 . S
C29 C30 1.390 . S
C29 H38 0.930 . S
C30 C26 1.391 . S
C30 C29 1.390 . S
C30 H39 0.930 . S
C31 Eu1 2.825 . S
C31 O16 1.238 . S
C31 O17 1.247 . S
C31 C25 1.507 . S
H32 C5 0.930 . S
H33 C6 0.931 . S
H34 C7 0.930 . S
H35 C8 0.930 . S
H36 C27 0.930 . S
H37 C28 0.931 . S
H38 C29 0.930 . S
H39 C30 0.930 . S
Tb40 C50 2.825 1_455 S
Tb40 O51 2.347 . S
Tb40 O54 2.366 1_445 S
Tb40 O59 2.418 1_445 S
Tb40 O60 2.384 . S
Tb40 O63 2.479 1_455 S
Tb40 O64 2.471 1_455 S
Eu41 O52 2.418 1_565 S
Eu41 O53 2.384 1_455 S
Eu41 O56 2.470 . S
Eu41 O57 2.471 . S
Eu41 O58 2.347 1_455 S
Eu41 O61 2.366 1_565 S
Eu41 C71 2.825 . S
C42 O58 1.259 . S
C42 O59 1.265 . S
C43 O60 1.255 . S
C43 O61 1.265 . S
C44 C46 1.380 . S
C44 C47 1.374 . S
C44 C50 1.507 . S
C45 C46 1.384 . S
C45 C49 1.387 . S
C45 H72 0.930 . S
C46 C44 1.380 . S
C46 C45 1.384 . S
C46 H73 0.931 . S
C47 C44 1.374 . S
C47 C48 1.390 . S
C47 H74 0.930 . S
C48 C47 1.390 . S
C48 C49 1.391 . S
C48 H75 0.930 . S
C49 C45 1.387 . S
C49 C48 1.391 . S
C50 Tb40 2.825 1_655 S
C50 C44 1.507 . S
C50 O63 1.238 . S
C50 O64 1.247 . S
O51 Tb40 2.347 . S
O51 C55 1.259 . S
O52 Eu41 2.418 1_545 S
O52 C55 1.265 . S
O53 Eu41 2.384 1_655 S
O53 C62 1.255 . S
O54 Tb40 2.366 1_665 S
O54 C62 1.265 . S
C55 O51 1.259 . S
C55 O52 1.265 . S
O56 Eu41 2.470 . S
O56 C71 1.251 . S
O57 Eu41 2.471 . S
O57 C71 1.247 . S
O58 Eu41 2.347 1_655 S
O58 C42 1.259 . S
O59 Tb40 2.418 1_665 S
O59 C42 1.265 . S
O60 Tb40 2.384 . S
O60 C43 1.255 . S
O61 Eu41 2.366 1_545 S
O61 C43 1.265 . S
C62 O53 1.255 . S
C62 O54 1.265 . S
O63 Tb40 2.479 1_655 S
O63 C50 1.238 . S
O64 Tb40 2.471 1_655 S
O64 C50 1.247 . S
C65 C68 1.380 . S
C65 C69 1.374 . S
C65 C71 1.507 . S
C66 C67 1.387 . S
C66 C70 1.391 . S
C67 C66 1.387 . S
C67 C68 1.384 . S
C67 H76 0.930 . S
C68 C65 1.380 . S
C68 C67 1.384 . S
C68 H77 0.931 . S
C69 C65 1.374 . S
C69 C70 1.390 . S
C69 H78 0.930 . S
C70 C66 1.391 . S
C70 C69 1.390 . S
C70 H79 0.930 . S
C71 Eu41 2.825 . S
C71 O56 1.251 . S
C71 O57 1.247 . S
C71 C65 1.507 . S
H72 C45 0.930 . S
H73 C46 0.931 . S
H74 C47 0.930 . S
H75 C48 0.930 . S
H76 C67 0.930 . S
H77 C68 0.931 . S
H78 C69 0.930 . S
H79 C70 0.930 . S
Zn80 O86 1.920 . S
Zn80 O92 1.898 . S
Zn80 O95 1.905 . S
Zn81 O89 1.905 . S
Zn81 O90 1.898 . S
Zn81 O98 1.920 . S
Zn82 O85 2.080 . S
Zn82 O88 2.114 . S
Zn82 O91 2.120 . S
Zn82 O93 2.120 . S
Zn82 O94 2.114 . S
Zn82 O97 2.080 . S
C83 O88 1.166 . S
C83 O89 1.182 . S
C84 O90 1.167 . S
C84 O91 1.299 . S
O85 Zn82 2.080 . S
O85 C99 1.305 . S
O86 Zn80 1.920 . S
O86 C99 1.234 . S
C87 O92 1.167 . S
C87 O93 1.299 . S
O88 Zn82 2.114 . S
O88 C83 1.166 . S
O89 Zn81 1.905 . S
O89 C83 1.182 . S
O90 Zn81 1.898 . S
O90 C84 1.167 . S
O91 Zn82 2.120 . S
O91 C84 1.299 . S
O92 Zn80 1.898 . S
O92 C87 1.167 . S
O93 Zn82 2.120 . S
O93 C87 1.299 . S
O94 Zn82 2.114 . S
O94 C96 1.166 . S
O95 Zn80 1.905 . S
O95 C96 1.182 . S
C96 O94 1.166 . S
C96 O95 1.182 . S
O97 Zn82 2.080 . S
O97 C100 1.305 . S
O98 Zn81 1.920 . S
O98 C100 1.234 . S
C99 O85 1.305 . S
C99 O86 1.234 . S
C100 O97 1.305 . S
C100 O98 1.234 . S
Zn101 O107 1.920 . S
Zn101 O113 1.898 . S
Zn101 O116 1.905 . S
Zn102 O110 1.905 . S
Zn102 O111 1.898 . S
Zn102 O119 1.920 . S
Zn103 O106 2.080 . S
Zn103 O109 2.114 . S
Zn103 O112 2.120 . S
Zn103 O114 2.120 . S
Zn103 O115 2.114 . S
Zn103 O118 2.080 . S
C104 O109 1.166 . S
C104 O110 1.182 . S
C105 O111 1.167 . S
C105 O112 1.299 . S
O106 Zn103 2.080 . S
O106 C120 1.305 . S
O107 Zn101 1.920 . S
O107 C120 1.234 . S
C108 O113 1.167 . S
C108 O114 1.299 . S
O109 Zn103 2.114 . S
O109 C104 1.166 . S
O110 Zn102 1.905 . S
O110 C104 1.182 . S
O111 Zn102 1.898 . S
O111 C105 1.167 . S
O112 Zn103 2.120 . S
O112 C105 1.299 . S
O113 Zn101 1.898 . S
O113 C108 1.167 . S
O114 Zn103 2.120 . S
O114 C108 1.299 . S
O115 Zn103 2.114 . S
O115 C117 1.166 . S
O116 Zn101 1.905 . S
O116 C117 1.182 . S
C117 O115 1.166 . S
C117 O116 1.182 . S
O118 Zn103 2.080 . S
O118 C121 1.305 . S
O119 Zn102 1.920 . S
O119 C121 1.234 . S
C120 O106 1.305 . S
C120 O107 1.234 . S
C121 O118 1.305 . S
C121 O119 1.234 . S
C122 C123 1.386 . S
C122 C124 1.383 . S
C122 H138 0.951 . S
C123 C122 1.386 . S
C123 C127 1.383 . S
C124 C122 1.383 . S
C124 C125 1.402 . S
C124 H139 0.951 . S
C125 C124 1.402 . S
C125 C126 1.375 . S
C125 C128 1.481 . S
C126 C125 1.375 . S
C126 C127 1.367 . S
C126 H140 0.951 . S
C127 C123 1.383 . S
C127 C126 1.367 . S
C127 H141 0.950 . S
C128 C125 1.481 . S
C128 C129 1.297 . S
C128 H142 0.950 . S
C129 C128 1.297 . S
C129 C130 1.479 . S
C129 H143 0.950 . S
C130 C129 1.479 . S
C130 C131 1.375 . S
C130 C136 1.404 . S
C131 C130 1.375 . S
C131 C132 1.369 . S
C131 H144 0.950 . S
C132 C131 1.369 . S
C132 C133 1.392 . S
C132 H145 0.951 . S
C133 C132 1.392 . S
C133 C135 1.384 . S
H134 C136 0.949 . S
C135 C133 1.384 . S
C135 C136 1.385 . S
C135 H137 0.950 . S
C136 C130 1.404 . S
C136 H134 0.949 . S
C136 C135 1.385 . S
H137 C135 0.950 . S
H138 C122 0.951 . S
H139 C124 0.951 . S
H140 C126 0.951 . S
H141 C127 0.950 . S
H142 C128 0.950 . S
H143 C129 0.950 . S
H144 C131 0.950 . S
H145 C132 0.951 . S
C146 C147 1.386 . S
C146 C148 1.383 . S
C146 H162 0.951 . S
C147 C146 1.386 . S
C147 C151 1.383 . S
C148 C146 1.383 . S
C148 C149 1.402 . S
C148 H163 0.951 . S
C149 C148 1.402 . S
C149 C150 1.375 . S
C149 C152 1.481 . S
C150 C149 1.375 . S
C150 C151 1.367 . S
C150 H164 0.951 . S
C151 C147 1.383 . S
C151 C150 1.367 . S
C151 H165 0.950 . S
C152 C149 1.481 . S
C152 C153 1.297 . S
C152 H166 0.950 . S
C153 C152 1.297 . S
C153 C154 1.479 . S
C153 H167 0.950 . S
C154 C153 1.479 . S
C154 C155 1.375 . S
C154 C160 1.404 . S
C155 C154 1.375 . S
C155 C156 1.369 . S
C155 H168 0.950 . S
C156 C155 1.369 . S
C156 C157 1.392 . S
C156 H169 0.951 . S
C157 C156 1.392 . S
C157 C159 1.384 . S
H158 C160 0.949 . S
C159 C157 1.384 . S
C159 C160 1.385 . S
C159 H161 0.950 . S
C160 C154 1.404 . S
C160 H158 0.949 . S
C160 C159 1.385 . S
H161 C159 0.950 . S
H162 C146 0.951 . S
H163 C148 0.951 . S
H164 C150 0.951 . S
H165 C151 0.950 . S
H166 C152 0.950 . S
H167 C153 0.950 . S
H168 C155 0.950 . S
H169 C156 0.951 . S
C170 C171 1.386 . S
C170 C172 1.383 . S
C170 H186 0.951 . S
C171 C170 1.386 . S
C171 C175 1.383 . S
C172 C170 1.383 . S
C172 C173 1.402 . S
C172 H187 0.951 . S
C173 C172 1.402 . S
C173 C174 1.375 . S
C173 C176 1.481 . S
C174 C173 1.375 . S
C174 C175 1.367 . S
C174 H188 0.951 . S
C175 C171 1.383 . S
C175 C174 1.367 . S
C175 H189 0.950 . S
C176 C173 1.481 . S
C176 C177 1.297 . S
C176 H190 0.950 . S
C177 C176 1.297 . S
C177 C178 1.479 . S
C177 H191 0.950 . S
C178 C177 1.479 . S
C178 C179 1.375 . S
C178 C184 1.404 . S
C179 C178 1.375 . S
C179 C180 1.369 . S
C179 H192 0.950 . S
C180 C179 1.369 . S
C180 C181 1.392 . S
C180 H193 0.951 . S
C181 C180 1.392 . S
C181 C183 1.384 . S
H182 C184 0.949 . S
C183 C181 1.384 . S
C183 C184 1.385 . S
C183 H185 0.950 . S
C184 C178 1.404 . S
C184 H182 0.949 . S
C184 C183 1.385 . S
H185 C183 0.950 . S
H186 C170 0.951 . S
H187 C172 0.951 . S
H188 C174 0.951 . S
H189 C175 0.950 . S
H190 C176 0.950 . S
H191 C177 0.950 . S
H192 C179 0.950 . S
H193 C180 0.951 . S
C194 C195 1.386 . S
C194 C196 1.383 . S
C194 H210 0.951 . S
C195 C194 1.386 . S
C195 C199 1.383 . S
C196 C194 1.383 . S
C196 C197 1.402 . S
C196 H211 0.951 . S
C197 C196 1.402 . S
C197 C198 1.375 . S
C197 C200 1.481 . S
C198 C197 1.375 . S
C198 C199 1.367 . S
C198 H212 0.951 . S
C199 C195 1.383 . S
C199 C198 1.367 . S
C199 H213 0.950 . S
C200 C197 1.481 . S
C200 C201 1.297 . S
C200 H214 0.950 . S
C201 C200 1.297 . S
C201 C202 1.479 . S
C201 H215 0.950 . S
C202 C201 1.479 . S
C202 C203 1.375 . S
C202 C208 1.404 . S
C203 C202 1.375 . S
C203 C204 1.369 . S
C203 H216 0.950 . S
C204 C203 1.369 . S
C204 C205 1.392 . S
C204 H217 0.951 . S
C205 C204 1.392 . S
C205 C207 1.384 . S
H206 C208 0.949 . S
C207 C205 1.384 . S
C207 C208 1.385 . S
C207 H209 0.950 . S
C208 C202 1.404 . S
C208 H206 0.949 . S
C208 C207 1.385 . S
H209 C207 0.950 . S
H210 C194 0.951 . S
H211 C196 0.951 . S
H212 C198 0.951 . S
H213 C199 0.950 . S
H214 C200 0.950 . S
H215 C201 0.950 . S
H216 C203 0.950 . S
H217 C204 0.951 . S
C218 C219 1.386 . S
C218 C220 1.383 . S
C218 H234 0.951 . S
C219 C218 1.386 . S
C219 C223 1.383 . S
C220 C218 1.383 . S
C220 C221 1.402 . S
C220 H235 0.951 . S
C221 C220 1.402 . S
C221 C222 1.375 . S
C221 C224 1.481 . S
C222 C221 1.375 . S
C222 C223 1.367 . S
C222 H236 0.951 . S
C223 C219 1.383 . S
C223 C222 1.367 . S
C223 H237 0.950 . S
C224 C221 1.481 . S
C224 C225 1.297 . S
C224 H238 0.950 . S
C225 C224 1.297 . S
C225 C226 1.479 . S
C225 H239 0.950 . S
C226 C225 1.479 . S
C226 C227 1.375 . S
C226 C232 1.404 . S
C227 C226 1.375 . S
C227 C228 1.369 . S
C227 H240 0.950 . S
C228 C227 1.369 . S
C228 C229 1.392 . S
C228 H241 0.951 . S
C229 C228 1.392 . S
C229 C231 1.384 . S
H230 C232 0.949 . S
C231 C229 1.384 . S
C231 C232 1.385 . S
C231 H233 0.950 . S
C232 C226 1.404 . S
C232 H230 0.949 . S
C232 C231 1.385 . S
H233 C231 0.950 . S
H234 C218 0.951 . S
H235 C220 0.951 . S
H236 C222 0.951 . S
H237 C223 0.950 . S
H238 C224 0.950 . S
H239 C225 0.950 . S
H240 C227 0.950 . S
H241 C228 0.951 . S
C242 C243 1.386 . S
C242 C244 1.383 . S
C242 H258 0.951 . S
C243 C242 1.386 . S
C243 C247 1.383 . S
C244 C242 1.383 . S
C244 C245 1.402 . S
C244 H259 0.951 . S
C245 C244 1.402 . S
C245 C246 1.375 . S
C245 C248 1.481 . S
C246 C245 1.375 . S
C246 C247 1.367 . S
C246 H260 0.951 . S
C247 C243 1.383 . S
C247 C246 1.367 . S
C247 H261 0.950 . S
C248 C245 1.481 . S
C248 C249 1.297 . S
C248 H262 0.950 . S
C249 C248 1.297 . S
C249 C250 1.479 . S
C249 H263 0.950 . S
C250 C249 1.479 . S
C250 C251 1.375 . S
C250 C256 1.404 . S
C251 C250 1.375 . S
C251 C252 1.369 . S
C251 H264 0.950 . S
C252 C251 1.369 . S
C252 C253 1.392 . S
C252 H265 0.951 . S
C253 C252 1.392 . S
C253 C255 1.384 . S
H254 C256 0.949 . S
C255 C253 1.384 . S
C255 C256 1.385 . S
C255 H257 0.950 . S
C256 C250 1.404 . S
C256 H254 0.949 . S
C256 C255 1.385 . S
H257 C255 0.950 . S
H258 C242 0.951 . S
H259 C244 0.951 . S
H260 C246 0.951 . S
H261 C247 0.950 . S
H262 C248 0.950 . S
H263 C249 0.950 . S
H264 C251 0.950 . S
H265 C252 0.951 . S
C266 C267 1.386 . S
C266 C268 1.383 . S
C266 H282 0.951 . S
C267 C266 1.386 . S
C267 C271 1.383 . S
C268 C266 1.383 . S
C268 C269 1.402 . S
C268 H283 0.951 . S
C269 C268 1.402 . S
C269 C270 1.375 . S
C269 C272 1.481 . S
C270 C269 1.375 . S
C270 C271 1.367 . S
C270 H284 0.951 . S
C271 C267 1.383 . S
C271 C270 1.367 . S
C271 H285 0.950 . S
C272 C269 1.481 . S
C272 C273 1.297 . S
C272 H286 0.950 . S
C273 C272 1.297 . S
C273 C274 1.479 . S
C273 H287 0.950 . S
C274 C273 1.479 . S
C274 C275 1.375 . S
C274 C280 1.404 . S
C275 C274 1.375 . S
C275 C276 1.369 . S
C275 H288 0.950 . S
C276 C275 1.369 . S
C276 C277 1.392 . S
C276 H289 0.951 . S
C277 C276 1.392 . S
C277 C279 1.384 . S
H278 C280 0.949 . S
C279 C277 1.384 . S
C279 C280 1.385 . S
C279 H281 0.950 . S
C280 C274 1.404 . S
C280 H278 0.949 . S
C280 C279 1.385 . S
H281 C279 0.950 . S
H282 C266 0.951 . S
H283 C268 0.951 . S
H284 C270 0.951 . S
H285 C271 0.950 . S
H286 C272 0.950 . S
H287 C273 0.950 . S
H288 C275 0.950 . S
H289 C276 0.951 . S
C290 C291 1.386 . S
C290 C292 1.383 . S
C290 H306 0.951 . S
C291 C290 1.386 . S
C291 C295 1.383 . S
C292 C290 1.383 . S
C292 C293 1.402 . S
C292 H307 0.951 . S
C293 C292 1.402 . S
C293 C294 1.375 . S
C293 C296 1.481 . S
C294 C293 1.375 . S
C294 C295 1.367 . S
C294 H308 0.951 . S
C295 C291 1.383 . S
C295 C294 1.367 . S
C295 H309 0.950 . S
C296 C293 1.481 . S
C296 C297 1.297 . S
C296 H310 0.950 . S
C297 C296 1.297 . S
C297 C298 1.479 . S
C297 H311 0.950 . S
C298 C297 1.479 . S
C298 C299 1.375 . S
C298 C304 1.404 . S
C299 C298 1.375 . S
C299 C300 1.369 . S
C299 H312 0.950 . S
C300 C299 1.369 . S
C300 C301 1.392 . S
C300 H313 0.951 . S
C301 C300 1.392 . S
C301 C303 1.384 . S
H302 C304 0.949 . S
C303 C301 1.384 . S
C303 C304 1.385 . S
C303 H305 0.950 . S
C304 C298 1.404 . S
C304 H302 0.949 . S
C304 C303 1.385 . S
H305 C303 0.950 . S
H306 C290 0.951 . S
H307 C292 0.951 . S
H308 C294 0.951 . S
H309 C295 0.950 . S
H310 C296 0.950 . S
H311 C297 0.950 . S
H312 C299 0.950 . S
H313 C300 0.951 . S
C314 C315 1.386 . S
C314 C316 1.383 . S
C314 H330 0.951 . S
C315 C314 1.386 . S
C315 C319 1.383 . S
C316 C314 1.383 . S
C316 C317 1.402 . S
C316 H331 0.951 . S
C317 C316 1.402 . S
C317 C318 1.375 . S
C317 C320 1.481 . S
C318 C317 1.375 . S
C318 C319 1.367 . S
C318 H332 0.951 . S
C319 C315 1.383 . S
C319 C318 1.367 . S
C319 H333 0.950 . S
C320 C317 1.481 . S
C320 C321 1.297 . S
C320 H334 0.950 . S
C321 C320 1.297 . S
C321 C322 1.479 . S
C321 H335 0.950 . S
C322 C321 1.479 . S
C322 C323 1.375 . S
C322 C328 1.404 . S
C323 C322 1.375 . S
C323 C324 1.369 . S
C323 H336 0.950 . S
C324 C323 1.369 . S
C324 C325 1.392 . S
C324 H337 0.951 . S
C325 C324 1.392 . S
C325 C327 1.384 . S
H326 C328 0.949 . S
C327 C325 1.384 . S
C327 C328 1.385 . S
C327 H329 0.950 . S
C328 C322 1.404 . S
C328 H326 0.949 . S
C328 C327 1.385 . S
H329 C327 0.950 . S
H330 C314 0.951 . S
H331 C316 0.951 . S
H332 C318 0.951 . S
H333 C319 0.950 . S
H334 C320 0.950 . S
H335 C321 0.950 . S
H336 C323 0.950 . S
H337 C324 0.951 . S
C338 C339 1.386 . S
C338 C340 1.383 . S
C338 H354 0.951 . S
C339 C338 1.386 . S
C339 C343 1.383 . S
C340 C338 1.383 . S
C340 C341 1.402 . S
C340 H355 0.951 . S
C341 C340 1.402 . S
C341 C342 1.375 . S
C341 C344 1.481 . S
C342 C341 1.375 . S
C342 C343 1.367 . S
C342 H356 0.951 . S
C343 C339 1.383 . S
C343 C342 1.367 . S
C343 H357 0.950 . S
C344 C341 1.481 . S
C344 C345 1.297 . S
C344 H358 0.950 . S
C345 C344 1.297 . S
C345 C346 1.479 . S
C345 H359 0.950 . S
C346 C345 1.479 . S
C346 C347 1.375 . S
C346 C352 1.404 . S
C347 C346 1.375 . S
C347 C348 1.369 . S
C347 H360 0.950 . S
C348 C347 1.369 . S
C348 C349 1.392 . S
C348 H361 0.951 . S
C349 C348 1.392 . S
C349 C351 1.384 . S
H350 C352 0.949 . S
C351 C349 1.384 . S
C351 C352 1.385 . S
C351 H353 0.950 . S
C352 C346 1.404 . S
C352 H350 0.949 . S
C352 C351 1.385 . S
H353 C351 0.950 . S
H354 C338 0.951 . S
H355 C340 0.951 . S
H356 C342 0.951 . S
H357 C343 0.950 . S
H358 C344 0.950 . S
H359 C345 0.950 . S
H360 C347 0.950 . S
H361 C348 0.951 . S
C362 C363 1.386 . S
C362 C364 1.383 . S
C362 H378 0.951 . S
C363 C362 1.386 . S
C363 C367 1.383 . S
C364 C362 1.383 . S
C364 C365 1.402 . S
C364 H379 0.951 . S
C365 C364 1.402 . S
C365 C366 1.375 . S
C365 C368 1.481 . S
C366 C365 1.375 . S
C366 C367 1.367 . S
C366 H380 0.951 . S
C367 C363 1.383 . S
C367 C366 1.367 . S
C367 H381 0.950 . S
C368 C365 1.481 . S
C368 C369 1.297 . S
C368 H382 0.950 . S
C369 C368 1.297 . S
C369 C370 1.479 . S
C369 H383 0.950 . S
C370 C369 1.479 . S
C370 C371 1.375 . S
C370 C376 1.404 . S
C371 C370 1.375 . S
C371 C372 1.369 . S
C371 H384 0.950 . S
C372 C371 1.369 . S
C372 C373 1.392 . S
C372 H385 0.951 . S
C373 C372 1.392 . S
C373 C375 1.384 . S
H374 C376 0.949 . S
C375 C373 1.384 . S
C375 C376 1.385 . S
C375 H377 0.950 . S
C376 C370 1.404 . S
C376 H374 0.949 . S
C376 C375 1.385 . S
H377 C375 0.950 . S
H378 C362 0.951 . S
H379 C364 0.951 . S
H380 C366 0.951 . S
H381 C367 0.950 . S
H382 C368 0.950 . S
H383 C369 0.950 . S
H384 C371 0.950 . S
H385 C372 0.951 . S
C386 C387 1.386 . S
C386 C388 1.383 . S
C386 H402 0.951 . S
C387 C386 1.386 . S
C387 C391 1.383 . S
C388 C386 1.383 . S
C388 C389 1.402 . S
C388 H403 0.951 . S
C389 C388 1.402 . S
C389 C390 1.375 . S
C389 C392 1.481 . S
C390 C389 1.375 . S
C390 C391 1.367 . S
C390 H404 0.951 . S
C391 C387 1.383 . S
C391 C390 1.367 . S
C391 H405 0.950 1_655 S
C392 C389 1.481 . S
C392 C393 1.297 . S
C392 H406 0.950 . S
C393 C392 1.297 . S
C393 C394 1.479 . S
C393 H407 0.950 . S
C394 C393 1.479 . S
C394 C395 1.375 . S
C394 C400 1.404 . S
C395 C394 1.375 . S
C395 C396 1.369 . S
C395 H408 0.950 . S
C396 C395 1.369 . S
C396 C397 1.392 . S
C396 H409 0.951 . S
C397 C396 1.392 . S
C397 C399 1.384 . S
H398 C400 0.949 . S
C399 C397 1.384 . S
C399 C400 1.385 . S
C399 H401 0.950 . S
C400 C394 1.404 . S
C400 H398 0.949 . S
C400 C399 1.385 . S
H401 C399 0.950 . S
H402 C386 0.951 . S
H403 C388 0.951 . S
H404 C390 0.951 . S
H405 C391 0.950 1_455 S
H406 C392 0.950 . S
H407 C393 0.950 . S
H408 C395 0.950 . S
H409 C396 0.951 . S
C123 C26 1.347 . S
C133 C99 1.218 . S
C147 C43 1.239 . S
C157 C105 1.035 . S
C171 C22 1.319 . S
C181 C96 1.305 . S
C195 C49 1.372 . S
C205 C121 1.283 . S
C219 C15 1.875 . S
C229 C87 1.761 . S
C253 C104 1.853 . S
C243 C42 1.929 . S
C267 C66 1.324 . S
C277 C100 1.183 . S
C301 C117 1.766 . S
C291 C2 1.951 . S
C325 C84 1.752 . S
C315 C55 1.856 . S
C349 C120 1.235 . S
C339 C9 1.413 . S
C373 C83 1.263 . S
C363 C62 1.324 . S
C397 C108 1.145 . S
C387 C3 1.220 . S
