# Generated by pormake.
# Topology gar, (4,6)-cn, num edge types: 1
# Building blocks:
#     Node 0, Type 0, BuildingBlock: QUQFOY_clean_sbu_3, # of connection points: 4
#     Node 1, Type 0, BuildingBlock: QUQFOY_clean_sbu_3, # of connection points: 4
#     Node 2, Type 0, BuildingBlock: QUQFOY_clean_sbu_3, # of connection points: 4
#     Node 3, Type 0, BuildingBlock: QUQFOY_clean_sbu_3, # of connection points: 4
#     Node 4, Type 0, BuildingBlock: QUQFOY_clean_sbu_3, # of connection points: 4
#     Node 5, Type 0, BuildingBlock: QUQFOY_clean_sbu_3, # of connection points: 4
#     Node 6, Type 0, BuildingBlock: QUQFOY_clean_sbu_3, # of connection points: 4
#     Node 7, Type 0, BuildingBlock: QUQFOY_clean_sbu_3, # of connection points: 4
#     Node 8, Type 0, BuildingBlock: QUQFOY_clean_sbu_3, # of connection points: 4
#     Node 9, Type 0, BuildingBlock: QUQFOY_clean_sbu_3, # of connection points: 4
#     Node 10, Type 0, BuildingBlock: QUQFOY_clean_sbu_3, # of connection points: 4
#     Node 11, Type 0, BuildingBlock: QUQFOY_clean_sbu_3, # of connection points: 4
#     Node 12, Type 0, BuildingBlock: QUQFOY_clean_sbu_3, # of connection points: 4
#     Node 13, Type 0, BuildingBlock: QUQFOY_clean_sbu_3, # of connection points: 4
#     Node 14, Type 0, BuildingBlock: QUQFOY_clean_sbu_3, # of connection points: 4
#     Node 15, Type 0, BuildingBlock: QUQFOY_clean_sbu_3, # of connection points: 4
#     Node 16, Type 0, BuildingBlock: QUQFOY_clean_sbu_3, # of connection points: 4
#     Node 17, Type 0, BuildingBlock: QUQFOY_clean_sbu_3, # of connection points: 4
#     Node 18, Type 0, BuildingBlock: QUQFOY_clean_sbu_3, # of connection points: 4
#     Node 19, Type 0, BuildingBlock: QUQFOY_clean_sbu_3, # of connection points: 4
#     Node 20, Type 0, BuildingBlock: QUQFOY_clean_sbu_3, # of connection points: 4
#     Node 21, Type 0, BuildingBlock: QUQFOY_clean_sbu_3, # of connection points: 4
#     Node 22, Type 0, BuildingBlock: QUQFOY_clean_sbu_3, # of connection points: 4
#     Node 23, Type 0, BuildingBlock: QUQFOY_clean_sbu_3, # of connection points: 4
#     Node 24, Type 1, BuildingBlock: NUHQIS_clean_sbu_0, # of connection points: 6
#     Node 25, Type 1, BuildingBlock: NUHQIS_clean_sbu_0, # of connection points: 6
#     Node 26, Type 1, BuildingBlock: NUHQIS_clean_sbu_0, # of connection points: 6
#     Node 27, Type 1, BuildingBlock: NUHQIS_clean_sbu_0, # of connection points: 6
#     Node 28, Type 1, BuildingBlock: NUHQIS_clean_sbu_0, # of connection points: 6
#     Node 29, Type 1, BuildingBlock: NUHQIS_clean_sbu_0, # of connection points: 6
#     Node 30, Type 1, BuildingBlock: NUHQIS_clean_sbu_0, # of connection points: 6
#     Node 31, Type 1, BuildingBlock: NUHQIS_clean_sbu_0, # of connection points: 6
#     Node 32, Type 1, BuildingBlock: NUHQIS_clean_sbu_0, # of connection points: 6
#     Node 33, Type 1, BuildingBlock: NUHQIS_clean_sbu_0, # of connection points: 6
#     Node 34, Type 1, BuildingBlock: NUHQIS_clean_sbu_0, # of connection points: 6
#     Node 35, Type 1, BuildingBlock: NUHQIS_clean_sbu_0, # of connection points: 6
#     Node 36, Type 1, BuildingBlock: NUHQIS_clean_sbu_0, # of connection points: 6
#     Node 37, Type 1, BuildingBlock: NUHQIS_clean_sbu_0, # of connection points: 6
#     Node 38, Type 1, BuildingBlock: NUHQIS_clean_sbu_0, # of connection points: 6
#     Node 39, Type 1, BuildingBlock: NUHQIS_clean_sbu_0, # of connection points: 6
#     Edge 40, Type (0, 1), BuildingBlock: ZUJKAS_clean_linker_0, # of connection points: 2
#     Edge 41, Type (0, 1), BuildingBlock: ZUJKAS_clean_linker_0, # of connection points: 2
#     Edge 42, Type (0, 1), BuildingBlock: ZUJKAS_clean_linker_0, # of connection points: 2
#     Edge 43, Type (0, 1), BuildingBlock: ZUJKAS_clean_linker_0, # of connection points: 2
#     Edge 44, Type (0, 1), BuildingBlock: ZUJKAS_clean_linker_0, # of connection points: 2
#     Edge 45, Type (0, 1), BuildingBlock: ZUJKAS_clean_linker_0, # of connection points: 2
#     Edge 46, Type (0, 1), BuildingBlock: ZUJKAS_clean_linker_0, # of connection points: 2
#     Edge 47, Type (0, 1), BuildingBlock: ZUJKAS_clean_linker_0, # of connection points: 2
#     Edge 48, Type (0, 1), BuildingBlock: ZUJKAS_clean_linker_0, # of connection points: 2
#     Edge 49, Type (0, 1), BuildingBlock: ZUJKAS_clean_linker_0, # of connection points: 2
#     Edge 50, Type (0, 1), BuildingBlock: ZUJKAS_clean_linker_0, # of connection points: 2
#     Edge 51, Type (0, 1), BuildingBlock: ZUJKAS_clean_linker_0, # of connection points: 2
#     Edge 52, Type (0, 1), BuildingBlock: ZUJKAS_clean_linker_0, # of connection points: 2
#     Edge 53, Type (0, 1), BuildingBlock: ZUJKAS_clean_linker_0, # of connection points: 2
#     Edge 54, Type (0, 1), BuildingBlock: ZUJKAS_clean_linker_0, # of connection points: 2
#     Edge 55, Type (0, 1), BuildingBlock: ZUJKAS_clean_linker_0, # of connection points: 2
#     Edge 56, Type (0, 1), BuildingBlock: ZUJKAS_clean_linker_0, # of connection points: 2
#     Edge 57, Type (0, 1), BuildingBlock: ZUJKAS_clean_linker_0, # of connection points: 2
#     Edge 58, Type (0, 1), BuildingBlock: ZUJKAS_clean_linker_0, # of connection points: 2
#     Edge 59, Type (0, 1), BuildingBlock: ZUJKAS_clean_linker_0, # of connection points: 2
#     Edge 60, Type (0, 1), BuildingBlock: ZUJKAS_clean_linker_0, # of connection points: 2
#     Edge 61, Type (0, 1), BuildingBlock: ZUJKAS_clean_linker_0, # of connection points: 2
#     Edge 62, Type (0, 1), BuildingBlock: ZUJKAS_clean_linker_0, # of connection points: 2
#     Edge 63, Type (0, 1), BuildingBlock: ZUJKAS_clean_linker_0, # of connection points: 2
#     Edge 64, Type (0, 1), BuildingBlock: ZUJKAS_clean_linker_0, # of connection points: 2
#     Edge 65, Type (0, 1), BuildingBlock: ZUJKAS_clean_linker_0, # of connection points: 2
#     Edge 66, Type (0, 1), BuildingBlock: ZUJKAS_clean_linker_0, # of connection points: 2
#     Edge 67, Type (0, 1), BuildingBlock: ZUJKAS_clean_linker_0, # of connection points: 2
#     Edge 68, Type (0, 1), BuildingBlock: ZUJKAS_clean_linker_0, # of connection points: 2
#     Edge 69, Type (0, 1), BuildingBlock: ZUJKAS_clean_linker_0, # of connection points: 2
#     Edge 70, Type (0, 1), BuildingBlock: ZUJKAS_clean_linker_0, # of connection points: 2
#     Edge 71, Type (0, 1), BuildingBlock: ZUJKAS_clean_linker_0, # of connection points: 2
#     Edge 72, Type (0, 1), BuildingBlock: ZUJKAS_clean_linker_0, # of connection points: 2
#     Edge 73, Type (0, 1), BuildingBlock: ZUJKAS_clean_linker_0, # of connection points: 2
#     Edge 74, Type (0, 1), BuildingBlock: ZUJKAS_clean_linker_0, # of connection points: 2
#     Edge 75, Type (0, 1), BuildingBlock: ZUJKAS_clean_linker_0, # of connection points: 2
#     Edge 76, Type (0, 1), BuildingBlock: ZUJKAS_clean_linker_0, # of connection points: 2
#     Edge 77, Type (0, 1), BuildingBlock: ZUJKAS_clean_linker_0, # of connection points: 2
#     Edge 78, Type (0, 1), BuildingBlock: ZUJKAS_clean_linker_0, # of connection points: 2
#     Edge 79, Type (0, 1), BuildingBlock: ZUJKAS_clean_linker_0, # of connection points: 2
#     Edge 80, Type (0, 1), BuildingBlock: ZUJKAS_clean_linker_0, # of connection points: 2
#     Edge 81, Type (0, 1), BuildingBlock: ZUJKAS_clean_linker_0, # of connection points: 2
#     Edge 82, Type (0, 1), BuildingBlock: ZUJKAS_clean_linker_0, # of connection points: 2
#     Edge 83, Type (0, 1), BuildingBlock: ZUJKAS_clean_linker_0, # of connection points: 2
#     Edge 84, Type (0, 1), BuildingBlock: ZUJKAS_clean_linker_0, # of connection points: 2
#     Edge 85, Type (0, 1), BuildingBlock: ZUJKAS_clean_linker_0, # of connection points: 2
#     Edge 86, Type (0, 1), BuildingBlock: ZUJKAS_clean_linker_0, # of connection points: 2
#     Edge 87, Type (0, 1), BuildingBlock: ZUJKAS_clean_linker_0, # of connection points: 2
#     Edge 88, Type (0, 1), BuildingBlock: ZUJKAS_clean_linker_0, # of connection points: 2
#     Edge 89, Type (0, 1), BuildingBlock: ZUJKAS_clean_linker_0, # of connection points: 2
#     Edge 90, Type (0, 1), BuildingBlock: ZUJKAS_clean_linker_0, # of connection points: 2
#     Edge 91, Type (0, 1), BuildingBlock: ZUJKAS_clean_linker_0, # of connection points: 2
#     Edge 92, Type (0, 1), BuildingBlock: ZUJKAS_clean_linker_0, # of connection points: 2
#     Edge 93, Type (0, 1), BuildingBlock: ZUJKAS_clean_linker_0, # of connection points: 2
#     Edge 94, Type (0, 1), BuildingBlock: ZUJKAS_clean_linker_0, # of connection points: 2
#     Edge 95, Type (0, 1), BuildingBlock: ZUJKAS_clean_linker_0, # of connection points: 2
#     Edge 96, Type (0, 1), BuildingBlock: ZUJKAS_clean_linker_0, # of connection points: 2
#     Edge 97, Type (0, 1), BuildingBlock: ZUJKAS_clean_linker_0, # of connection points: 2
#     Edge 98, Type (0, 1), BuildingBlock: ZUJKAS_clean_linker_0, # of connection points: 2
#     Edge 99, Type (0, 1), BuildingBlock: ZUJKAS_clean_linker_0, # of connection points: 2
#     Edge 100, Type (0, 1), BuildingBlock: ZUJKAS_clean_linker_0, # of connection points: 2
#     Edge 101, Type (0, 1), BuildingBlock: ZUJKAS_clean_linker_0, # of connection points: 2
#     Edge 102, Type (0, 1), BuildingBlock: ZUJKAS_clean_linker_0, # of connection points: 2
#     Edge 103, Type (0, 1), BuildingBlock: ZUJKAS_clean_linker_0, # of connection points: 2
#     Edge 104, Type (0, 1), BuildingBlock: ZUJKAS_clean_linker_0, # of connection points: 2
#     Edge 105, Type (0, 1), BuildingBlock: ZUJKAS_clean_linker_0, # of connection points: 2
#     Edge 106, Type (0, 1), BuildingBlock: ZUJKAS_clean_linker_0, # of connection points: 2
#     Edge 107, Type (0, 1), BuildingBlock: ZUJKAS_clean_linker_0, # of connection points: 2
#     Edge 108, Type (0, 1), BuildingBlock: ZUJKAS_clean_linker_0, # of connection points: 2
#     Edge 109, Type (0, 1), BuildingBlock: ZUJKAS_clean_linker_0, # of connection points: 2
#     Edge 110, Type (0, 1), BuildingBlock: ZUJKAS_clean_linker_0, # of connection points: 2
#     Edge 111, Type (0, 1), BuildingBlock: ZUJKAS_clean_linker_0, # of connection points: 2
#     Edge 112, Type (0, 1), BuildingBlock: ZUJKAS_clean_linker_0, # of connection points: 2
#     Edge 113, Type (0, 1), BuildingBlock: ZUJKAS_clean_linker_0, # of connection points: 2
#     Edge 114, Type (0, 1), BuildingBlock: ZUJKAS_clean_linker_0, # of connection points: 2
#     Edge 115, Type (0, 1), BuildingBlock: ZUJKAS_clean_linker_0, # of connection points: 2
#     Edge 116, Type (0, 1), BuildingBlock: ZUJKAS_clean_linker_0, # of connection points: 2
#     Edge 117, Type (0, 1), BuildingBlock: ZUJKAS_clean_linker_0, # of connection points: 2
#     Edge 118, Type (0, 1), BuildingBlock: ZUJKAS_clean_linker_0, # of connection points: 2
#     Edge 119, Type (0, 1), BuildingBlock: ZUJKAS_clean_linker_0, # of connection points: 2
#     Edge 120, Type (0, 1), BuildingBlock: ZUJKAS_clean_linker_0, # of connection points: 2
#     Edge 121, Type (0, 1), BuildingBlock: ZUJKAS_clean_linker_0, # of connection points: 2
#     Edge 122, Type (0, 1), BuildingBlock: ZUJKAS_clean_linker_0, # of connection points: 2
#     Edge 123, Type (0, 1), BuildingBlock: ZUJKAS_clean_linker_0, # of connection points: 2
#     Edge 124, Type (0, 1), BuildingBlock: ZUJKAS_clean_linker_0, # of connection points: 2
#     Edge 125, Type (0, 1), BuildingBlock: ZUJKAS_clean_linker_0, # of connection points: 2
#     Edge 126, Type (0, 1), BuildingBlock: ZUJKAS_clean_linker_0, # of connection points: 2
#     Edge 127, Type (0, 1), BuildingBlock: ZUJKAS_clean_linker_0, # of connection points: 2
#     Edge 128, Type (0, 1), BuildingBlock: ZUJKAS_clean_linker_0, # of connection points: 2
#     Edge 129, Type (0, 1), BuildingBlock: ZUJKAS_clean_linker_0, # of connection points: 2
#     Edge 130, Type (0, 1), BuildingBlock: ZUJKAS_clean_linker_0, # of connection points: 2
#     Edge 131, Type (0, 1), BuildingBlock: ZUJKAS_clean_linker_0, # of connection points: 2
#     Edge 132, Type (0, 1), BuildingBlock: ZUJKAS_clean_linker_0, # of connection points: 2
#     Edge 133, Type (0, 1), BuildingBlock: ZUJKAS_clean_linker_0, # of connection points: 2
#     Edge 134, Type (0, 1), BuildingBlock: ZUJKAS_clean_linker_0, # of connection points: 2
#     Edge 135, Type (0, 1), BuildingBlock: ZUJKAS_clean_linker_0, # of connection points: 2
# Relax obj value: 0.168
# Max RMSD: 0.279
# Mean RMSD: 0.128
data_MOF--net-gar--node1-QUQFOY_clean_sbu_3--node2-NUHQIS_clean_sbu_0--edge1-ZUJKAS_clean_linker_0
_symmetry_space_group_name_H-M    P1
_symmetry_Int_Tables_number       1
_symmetry_cell_setting            triclinic
loop_
_symmetry_equiv_pos_as_xyz
'x, y, z'
_cell_length_a     73.961506
_cell_length_b     77.65788
_cell_length_c     73.764816
_cell_angle_alpha  93.829881
_cell_angle_beta   96.013498
_cell_angle_gamma 100.17351
loop_
_atom_site_label
_atom_site_type_symbol
_atom_site_fract_x
_atom_site_fract_y
_atom_site_fract_z
_atom_type_partial_charge
C0 C 0.02626 0.28195 0.38314 0.0
O1 O 0.03771 0.29293 0.37609 0.0
Cd2 Cd 0.07017 0.30093 0.38635 0.0
O3 O 0.03239 0.27377 0.39651 0.0
Cd4 Cd 0.06635 0.27417 0.41504 0.0
C5 C 0.06935 0.32153 0.42875 0.0
O6 O 0.08434 0.27495 0.38646 0.0
O7 O 0.1018 0.28014 0.41171 0.0
O8 O 0.05456 0.24051 0.41771 0.0
C9 C 0.1008 0.27744 0.39442 0.0
O10 O 0.07333 0.32316 0.4125 0.0
C11 C 0.06231 0.23895 0.43361 0.0
O12 O 0.06535 0.30579 0.43392 0.0
O13 O 0.07156 0.25344 0.44149 0.0
C14 C 1.00879 0.77976 0.67669 0.0
O15 O 0.01894 0.77021 0.68458 0.0
Cd16 Cd 0.04896 0.76577 0.67697 0.0
O17 O 0.01472 0.78796 0.66308 0.0
Cd18 Cd 0.04643 0.79101 0.64567 0.0
C19 C 0.04469 0.7432 0.63431 0.0
O20 O 0.06948 0.79321 0.6748 0.0
O21 O 0.08115 0.79057 0.64971 0.0
O22 O 0.04767 0.82478 0.64417 0.0
C23 C 0.08396 0.79257 0.66705 0.0
O24 O 0.04736 0.74321 0.65166 0.0
C25 C 0.04741 0.82605 0.62704 0.0
O26 O 0.04276 0.75787 0.62747 0.0
O27 O 0.04638 0.81128 0.61789 0.0
C28 C 0.52737 0.77946 0.88053 0.0
O29 O 0.53881 0.79023 0.87321 0.0
Cd30 Cd 0.57116 0.79958 0.88327 0.0
O31 O 0.53341 0.77174 0.89432 0.0
Cd32 Cd 0.56709 0.7724 0.91337 0.0
C33 C 0.56905 0.81994 0.92589 0.0
O34 O 0.58559 0.77402 0.88536 0.0
O35 O 0.60267 0.77787 0.91088 0.0
O36 O 0.55881 0.73828 0.91457 0.0
C37 C 0.60193 0.77616 0.89354 0.0
O38 O 0.5724 0.82123 0.9094 0.0
C39 C 0.56279 0.73704 0.9316 0.0
O40 O 0.56608 0.80437 0.93169 0.0
O41 O 0.56838 0.75193 0.94075 0.0
C42 C 0.50471 0.27848 0.17236 0.0
O43 O 0.51334 0.26632 0.1764 0.0
Cd44 Cd 0.53902 0.27112 0.15825 0.0
O45 O 0.5118 0.28897 0.16101 0.0
Cd46 Cd 0.54391 0.28917 0.14415 0.0
C47 C 0.54282 0.24249 0.12955 0.0
O48 O 0.56641 0.28916 0.17461 0.0
O49 O 0.57892 0.28992 0.14979 0.0
O50 O 0.54601 0.32314 0.14301 0.0
C51 C 0.58129 0.29051 0.16714 0.0
O52 O 0.54507 0.24297 0.14684 0.0
C53 C 0.54593 0.32455 0.12592 0.0
O54 O 0.54014 0.25699 0.12282 0.0
O55 O 0.54483 0.30982 0.11669 0.0
C56 C 0.07276 0.83721 0.19063 0.0
O57 O 0.08674 0.83303 0.19958 0.0
Cd58 Cd 0.11488 0.82959 0.18782 0.0
O59 O 0.07296 0.8405 0.17392 0.0
Cd60 Cd 0.09404 0.84228 0.14979 0.0
C61 C 0.0967 0.79907 0.15126 0.0
O62 O 0.12111 0.85396 0.17019 0.0
O63 O 0.12673 0.84643 0.14319 0.0
O64 O 0.08337 0.86771 0.13826 0.0
C65 C 0.13308 0.85221 0.15952 0.0
O66 O 0.10644 0.80276 0.16682 0.0
C67 C 0.0773 0.86032 0.12236 0.0
O68 O 0.09001 0.81082 0.14298 0.0
O69 O 0.07935 0.84455 0.11914 0.0
C70 C 0.49552 0.71306 0.36319 0.0
O71 O 0.50987 0.71832 0.35556 0.0
Cd72 Cd 0.54009 0.72924 0.37084 0.0
O73 O 0.49656 0.71223 0.38049 0.0
Cd74 Cd 0.5212 0.71724 0.4071 0.0
C75 C 0.52895 0.76063 0.40114 0.0
O76 O 0.54539 0.70818 0.39159 0.0
O77 O 0.55483 0.72336 0.41721 0.0
O78 O 0.50815 0.69019 0.41959 0.0
C79 C 0.55887 0.71491 0.40337 0.0
O80 O 0.53744 0.75697 0.38761 0.0
C81 C 0.50847 0.69718 0.43572 0.0
O82 O 0.52081 0.74853 0.40989 0.0
O83 O 0.51386 0.71371 0.43829 0.0
C84 C 0.57357 0.31558 0.68948 0.0
O85 O 0.58812 0.3118 0.69775 0.0
Cd86 Cd 0.61852 0.32011 0.68952 0.0
O87 O 0.57434 0.32442 0.67551 0.0
Cd88 Cd 0.59776 0.33836 0.65656 0.0
C89 C 0.61029 0.29922 0.64607 0.0
O90 O 0.61961 0.3498 0.68259 0.0
O91 O 0.63096 0.3522 0.65717 0.0
O92 O 0.57844 0.36042 0.651 0.0
C93 C 0.63352 0.35492 0.67447 0.0
O94 O 0.61877 0.30046 0.66219 0.0
C95 C 0.57903 0.35948 0.63381 0.0
O96 O 0.60079 0.31061 0.64111 0.0
O97 O 0.58854 0.34894 0.62738 0.0
C98 C 0.99441 0.2101 0.86426 0.0
O99 O 1.00822 0.2153 0.85584 0.0
Cd100 Cd 0.03869 0.22786 0.86951 0.0
O101 O 0.99624 0.21014 0.88167 0.0
Cd102 Cd 0.02211 0.21689 0.90722 0.0
C103 C 0.02773 0.25979 0.89929 0.0
O104 O 0.04616 0.20826 0.89108 0.0
O105 O 0.05591 0.22474 0.91587 0.0
O106 O 1.01165 0.19031 0.92171 0.0
C107 C 0.05982 0.21601 0.90215 0.0
O108 O 0.03571 0.2559 0.88546 0.0
C109 C 1.01195 0.198 0.93752 0.0
O110 O 0.02052 0.24791 0.90885 0.0
O111 O 0.01611 0.21466 0.93902 0.0
C112 C 0.51259 0.07957 0.31919 0.0
O113 O 0.51927 0.07211 0.30624 0.0
Cd114 Cd 0.50492 0.06273 0.27556 0.0
O115 O 0.49636 0.08315 0.31685 0.0
Cd116 Cd 0.46992 0.07959 0.2926 0.0
C117 C 0.46708 0.03483 0.28698 0.0
O118 O 0.48746 0.08435 0.26753 0.0
O119 O 0.45833 0.07618 0.25979 0.0
O120 O 0.45904 0.10664 0.30108 0.0
C121 C 0.47439 0.07909 0.2548 0.0
O122 O 0.4817 0.03682 0.27897 0.0
C123 C 0.44335 0.09866 0.30446 0.0
O124 O 0.4612 0.04799 0.29388 0.0
O125 O 0.44048 0.08199 0.30279 0.0
C126 C 0.35848 0.12987 0.52995 0.0
O127 O 0.34748 0.12416 0.54112 0.0
Cd128 Cd 0.32497 0.14301 0.53729 0.0
O129 O 0.35385 0.14211 0.52039 0.0
Cd130 Cd 0.32192 0.15676 0.52003 0.0
C131 C 0.32218 0.17169 0.56683 0.0
O132 O 0.29698 0.12775 0.5199 0.0
O133 O 0.28717 0.15192 0.52271 0.0
O134 O 0.31893 0.1591 0.485 0.0
C135 C 0.28313 0.13527 0.52072 0.0
O136 O 0.31993 0.15516 0.56709 0.0
C137 C 0.32155 0.17572 0.48486 0.0
O138 O 0.32499 0.17784 0.55137 0.0
O139 O 0.32456 0.18389 0.50074 0.0
C140 C 0.16797 0.04331 0.86287 0.0
O141 O 0.15494 0.04868 0.85358 0.0
Cd142 Cd 0.15072 0.04964 0.82118 0.0
O143 O 0.18093 0.03814 0.85516 0.0
Cd144 Cd 0.18948 0.03621 0.82371 0.0
C145 C 0.18942 0.07945 0.81788 0.0
O146 O 0.15873 0.02275 0.8097 0.0
O147 O 0.17863 0.02911 0.79084 0.0
O148 O 0.20479 0.01178 0.83089 0.0
C149 C 0.16231 0.02227 0.79332 0.0
O150 O 0.17182 0.07608 0.81558 0.0
C151 C 0.22015 0.01868 0.82587 0.0
O152 O 0.19862 0.06758 0.82192 0.0
O153 O 0.2212 0.03379 0.82004 0.0
C154 C 0.33519 0.91778 0.03521 0.0
O155 O 0.32346 0.92551 0.0269 0.0
Cd156 Cd 0.29153 0.91351 0.01999 0.0
O157 O 0.33022 0.90265 0.04085 0.0
Cd158 Cd 0.30026 0.88168 0.04233 0.0
C159 C 0.29247 0.87403 0.99569 0.0
O160 O 0.2845 0.90553 0.04939 0.0
O161 O 0.2663 0.88051 0.04446 0.0
O162 O 0.31535 0.87894 0.07281 0.0
C163 C 0.26848 0.89674 0.04958 0.0
O164 O 0.28881 0.88946 0.99613 0.0
C165 C 0.30961 0.8626 0.07313 0.0
O166 O 0.29782 0.86776 0.01047 0.0
O167 O 0.29991 0.85471 0.05872 0.0
C168 C 0.32129 0.43401 0.02859 0.0
O169 O 0.31043 0.44053 0.01766 0.0
Cd170 Cd 0.27791 0.42949 0.00988 0.0
O171 O 0.31454 0.42086 0.03719 0.0
Cd172 Cd 0.28044 0.40215 0.03843 0.0
C173 C 0.27876 0.38827 0.99034 0.0
O174 O 0.26275 0.42797 0.03743 0.0
O175 O 0.24522 0.40281 0.0336 0.0
O176 O 0.28852 0.40052 0.07318 0.0
C177 C 0.24629 0.41936 0.03564 0.0
O178 O 0.27544 0.40357 0.98808 0.0
C179 C 0.28312 0.38412 0.07401 0.0
O180 O 0.28194 0.38389 0.00678 0.0
O181 O 0.27673 0.37573 0.05856 0.0
C182 C 0.83031 0.15507 0.02749 0.0
O183 O 0.82042 0.14508 0.03702 0.0
Cd184 Cd 0.7911 0.14905 0.04521 0.0
O185 O 0.82481 0.16853 0.02145 0.0
Cd186 Cd 0.79697 0.18291 0.02184 0.0
C187 C 0.80262 0.19035 0.06846 0.0
O188 O 0.77518 0.15534 0.01746 0.0
O189 O 0.76304 0.17807 0.02292 0.0
O190 O 0.80043 0.18615 0.98982 0.0
C191 C 0.76071 0.16164 0.0189 0.0
O192 O 0.79745 0.1738 0.06825 0.0
C193 C 0.79898 0.20217 0.98988 0.0
O194 O 0.80457 0.19759 0.05356 0.0
O195 O 0.79718 0.20983 0.00521 0.0
C196 C 0.08561 0.4913 0.27268 0.0
O197 O 0.07329 0.48943 0.25896 0.0
Cd198 Cd 0.07696 0.4783 0.22889 0.0
O199 O 0.10057 0.4854 0.27177 0.0
Cd200 Cd 0.11597 0.46867 0.25014 0.0
C201 C 0.11892 0.5058 0.22732 0.0
O202 O 0.08827 0.45197 0.23366 0.0
O203 O 0.11263 0.45016 0.22087 0.0
O204 O 0.12691 0.45115 0.27397 0.0
C205 C 0.09517 0.44605 0.22013 0.0
O206 O 0.10164 0.50175 0.22185 0.0
C207 C 0.14382 0.45528 0.27137 0.0
O208 O 0.12688 0.49617 0.23762 0.0
O209 O 0.1475 0.46544 0.25891 0.0
C210 C 0.82242 0.93302 0.52679 0.0
O211 O 0.8116 0.9388 0.51515 0.0
Cd212 Cd 0.77877 0.92861 0.50855 0.0
O213 O 0.81559 0.9208 0.53651 0.0
Cd214 Cd 0.78139 0.90218 0.53769 0.0
C215 C 0.779 0.88733 0.48965 0.0
O216 O 0.76392 0.92824 0.53638 0.0
O217 O 0.74621 0.9032 0.53325 0.0
O218 O 0.78987 0.90011 0.57238 0.0
C219 C 0.74741 0.91977 0.53497 0.0
O220 O 0.77523 0.90241 0.48706 0.0
C221 C 0.78392 0.88378 0.57306 0.0
O222 O 0.78278 0.88349 0.50621 0.0
O223 O 0.77704 0.87568 0.55761 0.0
C224 C 0.93278 1.00868 0.24532 0.0
O225 O 0.94015 1.00355 0.23164 0.0
Cd226 Cd 0.92567 1.00181 0.20083 0.0
O227 O 0.91715 0.01351 0.24311 0.0
Cd228 Cd 0.89319 0.01712 0.21832 0.0
C229 C 0.8859 0.97336 0.20601 0.0
O230 O 0.9152 0.0292 0.19891 0.0
O231 O 0.88716 0.0234 0.18587 0.0
O232 O 0.88985 0.04249 0.23771 0.0
C233 C 0.90398 0.02989 0.18494 0.0
O234 O 0.90094 0.97594 0.19877 0.0
C235 C 0.8723 0.03903 0.23622 0.0
O236 O 0.88054 0.98594 0.21458 0.0
O237 O 0.86434 0.02523 0.22627 0.0
C238 C 0.32887 0.65103 0.52464 0.0
O239 O 0.3184 0.64086 0.53352 0.0
Cd240 Cd 0.28868 0.64499 0.5405 0.0
O241 O 0.32381 0.66473 0.51872 0.0
Cd242 Cd 0.2962 0.67953 0.51843 0.0
C243 C 0.30017 0.68559 0.56527 0.0
O244 O 0.274 0.65216 0.51252 0.0
O245 O 0.26215 0.67509 0.51787 0.0
O246 O 0.30207 0.683 0.48699 0.0
C247 C 0.25961 0.65873 0.51336 0.0
O248 O 0.29447 0.66906 0.56424 0.0
C249 C 0.29959 0.6987 0.48645 0.0
O250 O 0.30308 0.69336 0.5508 0.0
O251 O 0.29636 0.70624 0.50131 0.0
C252 C 0.43587 0.51285 0.74406 0.0
O253 O 0.44372 0.50819 0.73051 0.0
Cd254 Cd 0.4295 0.50586 0.6996 0.0
O255 O 0.41997 0.5171 0.74162 0.0
Cd256 Cd 0.39603 0.5204 0.7166 0.0
C257 C 0.39013 0.4766 0.70472 0.0
O258 O 0.41802 0.53277 0.69738 0.0
O259 O 0.39001 0.52679 0.68424 0.0
O260 O 0.39181 0.54564 0.73565 0.0
C261 C 0.40683 0.53337 0.68337 0.0
O262 O 0.40561 0.47939 0.69828 0.0
C263 C 0.3743 0.54154 0.73432 0.0
O264 O 0.38395 0.48915 0.71241 0.0
O265 O 0.36678 0.52747 0.7246 0.0
C266 C 0.59005 0.99902 0.77663 0.0
O267 O 0.57783 0.99753 0.76287 0.0
Cd268 Cd 0.58063 0.98594 0.73271 0.0
O269 O 0.60463 0.99244 0.77585 0.0
Cd270 Cd 0.61884 0.97476 0.75387 0.0
C271 C 0.62327 0.01192 0.7309 0.0
O272 O 0.5906 0.95899 0.73741 0.0
O273 O 0.61465 0.9564 0.72443 0.0
O274 O 0.6298 0.95655 0.77711 0.0
C275 C 0.59718 0.95284 0.72377 0.0
O276 O 0.60601 1.00846 0.72526 0.0
C277 C 0.64659 0.96024 0.77396 0.0
O278 O 0.63061 1.002 0.74135 0.0
O279 O 0.65016 0.97056 0.76163 0.0
C280 C 0.85749 0.62878 0.03017 0.0
O281 O 0.84642 0.62331 0.04137 0.0
Cd282 Cd 0.82379 0.64186 0.03663 0.0
O283 O 0.85292 0.64081 0.02028 0.0
Cd284 Cd 0.82102 0.65546 0.01959 0.0
C285 C 0.82167 0.67034 0.06636 0.0
O286 O 0.79628 0.62609 0.0189 0.0
O287 O 0.78618 0.65007 0.02144 0.0
O288 O 0.82501 0.65908 0.98537 0.0
C289 C 0.7823 0.63344 0.01948 0.0
O290 O 0.81828 0.65377 0.0663 0.0
C291 C 0.82108 0.6743 0.98429 0.0
O292 O 0.82524 0.67656 0.0511 0.0
O293 O 0.81741 0.68117 0.9993 0.0
C294 C 0.99818 0.59119 0.82865 0.0
O295 O 1.00583 0.58795 0.81448 0.0
Cd296 Cd 0.99229 0.5846 0.78331 0.0
O297 O 0.9814 0.59341 0.82733 0.0
Cd298 Cd 0.95561 0.59329 0.80282 0.0
C299 C 0.9567 0.55075 0.78799 0.0
O300 O 0.97436 0.60701 0.78151 0.0
O301 O 0.94662 0.59615 0.76998 0.0
O302 O 0.9424 0.61649 0.81781 0.0
C303 C 0.96264 0.60382 0.76742 0.0
O304 O 0.97133 0.55596 0.78062 0.0
C305 C 0.92659 0.60686 0.81788 0.0
O306 O 0.94945 0.56149 0.79739 0.0
O307 O 0.92464 0.591 0.81139 0.0
C308 C 0.83932 0.41614 0.53334 0.0
O309 O 0.82777 0.42351 0.52421 0.0
Cd310 Cd 0.79527 0.41335 0.52011 0.0
O311 O 0.83387 0.40214 0.54091 0.0
Cd312 Cd 0.80394 0.38238 0.54429 0.0
C313 C 0.79362 0.37247 0.49809 0.0
O314 O 0.78917 0.40712 0.5503 0.0
O315 O 0.77062 0.38225 0.5478 0.0
O316 O 0.81937 0.38034 0.57477 0.0
C317 C 0.77316 0.39874 0.55154 0.0
O318 O 0.79027 0.38797 0.49778 0.0
C319 C 0.81378 0.364 0.57534 0.0
O320 O 0.79968 0.36699 0.51307 0.0
O321 O 0.80395 0.35587 0.56113 0.0
C322 C 0.66238 0.53976 0.36285 0.0
O323 O 0.65127 0.54979 0.35798 0.0
Cd324 Cd 0.64349 0.55762 0.3279 0.0
O325 O 0.67154 0.53323 0.35132 0.0
Cd326 Cd 0.67442 0.5367 0.31846 0.0
C327 C 0.68516 0.58143 0.32255 0.0
O328 O 0.64114 0.53094 0.30884 0.0
O329 O 0.65853 0.53829 0.28792 0.0
O330 O 0.68231 0.50749 0.31492 0.0
C331 C 0.64247 0.53275 0.2921 0.0
O332 O 0.66807 0.58154 0.32323 0.0
C333 C 0.69677 0.51248 0.30735 0.0
O334 O 0.69113 0.56704 0.32205 0.0
O335 O 0.70109 0.52877 0.30555 0.0
Tb336 Tb 0.03662 0.03093 0.01301 0.0
Eu337 Eu 0.06552 0.03459 0.05089 0.0
C338 C 0.07805 0.02944 0.01083 0.0
C339 C 0.04655 0.99757 0.03007 0.0
C340 C 0.99824 0.04225 0.98457 0.0
C341 C 0.98597 0.06696 0.97283 0.0
C342 C 0.99839 0.0553 0.97226 0.0
C343 C 0.98496 0.04064 0.99698 0.0
C344 C 0.97257 0.05221 0.99752 0.0
C345 C 0.97319 0.06574 0.98575 0.0
C346 C 0.0132 0.03187 0.98596 0.0
O347 O 0.02217 0.04003 0.0348 0.0
O348 O 0.03673 0.02869 0.05894 0.0
O349 O 0.05697 0.06088 0.04923 0.0
O350 O 0.05293 0.05736 0.01807 0.0
C351 C 0.02248 0.03462 0.05128 0.0
O352 O 0.0735 0.02481 0.07702 0.0
O353 O 0.09173 0.04627 0.06723 0.0
O354 O 0.08195 0.03824 0.02701 0.0
O355 O 0.06095 0.0226 1.00401 0.0
O356 O 0.03312 1.0047 0.02255 0.0
O357 O 0.06209 1.00721 0.03786 0.0
C358 C 0.05472 0.06741 0.03341 0.0
O359 O 0.02997 0.04097 0.98784 0.0
O360 O 1.01161 0.01952 0.99713 0.0
C361 C 0.10485 0.02328 0.07895 0.0
C362 C 0.1304 1.00029 0.0793 0.0
C363 C 0.12888 0.01063 0.09531 0.0
C364 C 0.11605 0.02197 0.09517 0.0
C365 C 0.10674 0.01332 0.0629 0.0
C366 C 0.11931 1.00191 0.06308 0.0
C367 C 0.09027 0.03394 0.07851 0.0
H368 H 0.98684 0.07731 0.96365 0.0
H369 H 1.00858 0.05691 0.96267 0.0
H370 H 0.98445 0.03079 0.00673 0.0
H371 H 0.96266 0.05069 0.00738 0.0
H372 H 0.13729 0.00962 0.10799 0.0
H373 H 0.1147 0.02949 0.1077 0.0
H374 H 0.09829 0.0142 0.05022 0.0
H375 H 0.1204 0.99437 0.05047 0.0
Tb376 Tb 0.31092 0.78782 0.28577 0.0
Eu377 Eu 0.291 0.75007 0.26272 0.0
C378 C 0.27152 0.78307 0.26401 0.0
C379 C 0.28924 0.75774 0.30596 0.0
C380 C 0.33374 0.83407 0.29989 0.0
C381 C 0.34873 0.8638 0.31076 0.0
C382 C 0.3405 0.84696 0.31433 0.0
C383 C 0.33474 0.83825 0.28178 0.0
C384 C 0.34306 0.85507 0.27818 0.0
C385 C 0.35037 0.86794 0.29266 0.0
C386 C 0.32674 0.81609 0.30395 0.0
O387 O 0.32652 0.76763 0.29306 0.0
O388 O 0.32171 0.75145 0.2656 0.0
O389 O 0.30076 0.76768 0.24149 0.0
O390 O 0.3202 0.79089 0.25873 0.0
C391 C 0.33178 0.7567 0.28129 0.0
O392 O 0.28824 0.72165 0.25824 0.0
O393 O 0.27211 0.73548 0.23991 0.0
O394 O 0.26895 0.76621 0.26628 0.0
O395 O 0.28791 0.79309 0.26777 0.0
O396 O 0.29247 0.77462 0.30377 0.0
O397 O 0.29009 0.74591 0.29263 0.0
C398 C 0.31289 0.78239 0.24284 0.0
O399 O 0.30883 0.81091 0.30134 0.0
O400 O 0.33545 0.80423 0.29755 0.0
C401 C 0.26024 0.70555 0.24232 0.0
C402 C 0.23143 0.67607 0.23821 0.0
C403 C 0.24156 0.6806 0.22358 0.0
C404 C 0.25581 0.6952 0.22564 0.0
C405 C 0.25006 0.70135 0.25694 0.0
C406 C 0.23574 0.68667 0.2549 0.0
C407 C 0.27584 0.72032 0.24402 0.0
H408 H 0.35443 0.87336 0.32221 0.0
H409 H 0.33986 0.84388 0.32839 0.0
H410 H 0.32947 0.8284 0.27048 0.0
H411 H 0.34398 0.85796 0.2641 0.0
H412 H 0.23883 0.67257 0.21067 0.0
H413 H 0.26359 0.69827 0.21424 0.0
H414 H 0.2533 0.7093 0.2699 0.0
H415 H 0.22808 0.6836 0.26637 0.0
Tb416 Tb 0.54073 0.00956 0.52079 0.0
Eu417 Eu 0.56824 0.0441 0.54164 0.0
C418 C 0.54863 0.01357 0.56288 0.0
C419 C 0.52383 0.04439 0.53128 0.0
C420 C 0.52088 0.96684 0.49336 0.0
C421 C 0.50579 0.93913 0.47692 0.0
C422 C 0.50474 0.95488 0.48666 0.0
C423 C 0.53815 0.96316 0.48986 0.0
C424 C 0.53923 0.94739 0.48006 0.0
C425 C 0.52305 0.93509 0.47374 0.0
C426 C 0.51943 0.98256 0.50481 0.0
O427 O 0.55679 0.02194 0.50053 0.0
O428 O 0.56055 0.05011 0.51298 0.0
O429 O 0.58771 0.02584 0.53336 0.0
O430 O 0.56714 0.99976 0.52668 0.0
C431 C 0.55954 0.03886 0.49876 0.0
O432 O 0.59286 0.06433 0.54225 0.0
O433 O 0.57693 0.06297 0.56546 0.0
O434 O 0.5645 0.0236 0.56152 0.0
O435 O 0.53543 0.01086 0.54919 0.0
O436 O 0.52252 0.02951 0.52089 0.0
O437 O 0.53937 0.05121 0.54189 0.0
C438 C 0.5844 1.00859 0.52987 0.0
O439 O 0.52718 0.98362 0.52164 0.0
O440 O 0.52288 0.99749 0.49761 0.0
C441 C 0.59271 0.09083 0.5596 0.0
C442 C 0.59719 0.12764 0.56411 0.0
C443 C 0.61252 0.11931 0.56706 0.0
C444 C 0.61028 0.10106 0.56485 0.0
C445 C 0.57742 0.09902 0.55605 0.0
C446 C 0.57964 0.11732 0.55832 0.0
C447 C 0.5907 0.07167 0.55812 0.0
H448 H 0.49308 0.93005 0.47198 0.0
H449 H 0.49131 0.95757 0.48926 0.0
H450 H 0.55076 0.9723 0.49503 0.0
H451 H 0.55272 0.94457 0.47795 0.0
H452 H 0.62626 0.12691 0.57122 0.0
H453 H 0.62224 0.0949 0.56745 0.0
H454 H 0.56375 0.09126 0.55185 0.0
H455 H 0.56754 0.12334 0.55609 0.0
Tb456 Tb 0.2816 0.28402 0.77148 0.0
Eu457 Eu 0.32257 0.27784 0.78634 0.0
C458 C 0.31606 0.31038 0.7631 0.0
C459 C 0.30535 0.26547 0.74403 0.0
C460 C 0.23411 0.28581 0.77563 0.0
C461 C 0.2017 0.28024 0.78034 0.0
C462 C 0.21544 0.28415 0.76875 0.0
C463 C 0.23896 0.28405 0.79423 0.0
C464 C 0.22532 0.28001 0.8057 0.0
C465 C 0.20658 0.27772 0.7988 0.0
C466 C 0.24863 0.28748 0.76347 0.0
O467 O 0.27777 0.26379 0.79032 0.0
O468 O 0.30338 0.25212 0.78666 0.0
O469 O 0.30996 0.28555 0.81196 0.0
O470 O 0.28929 0.30048 0.79793 0.0
C471 C 0.28654 0.2506 0.79102 0.0
O472 O 0.34294 0.26089 0.79002 0.0
O473 O 0.34974 0.28791 0.80155 0.0
O474 O 0.32611 0.30495 0.77651 0.0
O475 O 0.29931 0.30207 0.75702 0.0
O476 O 0.28889 0.2672 0.74875 0.0
O477 O 0.32048 0.27114 0.75553 0.0
C478 C 0.2986 0.29677 0.81303 0.0
O479 O 0.26227 0.30072 0.76798 0.0
O480 O 0.25459 0.27295 0.75988 0.0
C481 C 0.37314 0.27589 0.7893 0.0
C482 C 0.40608 0.2808 0.77289 0.0
C483 C 0.40639 0.27809 0.79159 0.0
C484 C 0.39 0.27564 0.79974 0.0
C485 C 0.37273 0.27858 0.77067 0.0
C486 C 0.38905 0.28095 0.76251 0.0
C487 C 0.35597 0.27356 0.79777 0.0
H488 H 0.1873 0.27845 0.77473 0.0
H489 H 0.21149 0.28532 0.75439 0.0
H490 H 0.25331 0.28522 0.79978 0.0
H491 H 0.22943 0.27833 0.81992 0.0
H492 H 0.41932 0.27812 0.79999 0.0
H493 H 0.3905 0.27366 0.81417 0.0
H494 H 0.35977 0.27883 0.76244 0.0
H495 H 0.38829 0.28274 0.74804 0.0
Tb496 Tb 0.05486 0.02269 0.51085 0.0
Eu497 Eu 0.05455 0.04232 0.5501 0.0
C498 C 0.09224 0.04474 0.53103 0.0
C499 C 0.05808 1.00023 0.54665 0.0
C500 C 0.04507 1.00834 0.46113 0.0
C501 C 0.04036 0.99905 0.42872 0.0
C502 C 0.04957 0.99863 0.44614 0.0
C503 C 0.03135 0.01861 0.4586 0.0
C504 C 0.0221 0.01903 0.44117 0.0
C505 C 0.02647 0.0092 0.42605 0.0
C506 C 0.05469 1.00757 0.47933 0.0
O507 O 0.02503 0.02161 0.51345 0.0
O508 O 0.02709 0.02351 0.54451 0.0
O509 O 0.04734 0.06282 0.53064 0.0
O510 O 0.05511 0.05046 0.50416 0.0
C511 C 0.01723 0.01877 0.52856 0.0
O512 O 0.04034 0.05527 0.57003 0.0
O513 O 0.06927 0.05346 0.57642 0.0
O514 O 0.08227 0.05333 0.54072 0.0
O515 O 0.08442 0.02957 0.522 0.0
O516 O 0.05565 1.00062 0.52863 0.0
O517 O 0.06003 0.01501 0.55735 0.0
C518 C 0.05096 0.06414 0.51354 0.0
O519 O 0.06636 0.02164 0.48602 0.0
O520 O 0.04433 1.00132 0.49143 0.0
C521 C 0.05106 0.05144 0.60048 0.0
C522 C 0.05111 0.04065 0.63609 0.0
C523 C 0.05024 0.05817 0.63287 0.0
C524 C 0.05034 0.06354 0.61518 0.0
C525 C 0.05037 0.03368 0.60338 0.0
C526 C 0.05045 0.02832 0.62106 0.0
C527 C 0.05455 0.05761 0.58263 0.0
H528 H 0.04423 0.99155 0.41731 0.0
H529 H 0.06021 0.99071 0.44792 0.0
H530 H 0.02774 0.02618 0.47011 0.0
H531 H 1.01134 0.02682 0.43959 0.0
H532 H 0.05037 0.06791 0.64412 0.0
H533 H 0.05073 0.07728 0.6131 0.0
H534 H 0.05083 0.02415 0.5921 0.0
H535 H 0.05127 0.01477 0.62301 0.0
Tb536 Tb 0.29405 0.7643 0.78571 0.0
Eu537 Eu 0.31197 0.80284 0.77473 0.0
C538 C 0.29536 0.79751 0.81276 0.0
C539 C 0.26791 0.78766 0.76503 0.0
C540 C 0.28599 0.71734 0.79532 0.0
C541 C 0.27882 0.6864 0.8 0.0
C542 C 0.27392 0.70298 0.80044 0.0
C543 C 0.30317 0.71515 0.79009 0.0
C544 C 0.30809 0.6986 0.78965 0.0
C545 C 0.29588 0.68401 0.79441 0.0
C546 C 0.28024 0.73438 0.79474 0.0
O547 O 0.30791 0.75856 0.76177 0.0
O548 O 0.30925 0.7849 0.7492 0.0
O549 O 0.33665 0.7896 0.78184 0.0
O550 O 0.32285 0.76911 0.79941 0.0
C551 C 0.30982 0.76811 0.74775 0.0
O552 O 0.31294 0.82399 0.75663 0.0
O553 O 0.33314 0.82652 0.78049 0.0
O554 O 0.30851 0.80616 0.80455 0.0
O555 O 0.28516 0.78276 0.80503 0.0
O556 O 0.27165 0.77194 0.76761 0.0
O557 O 0.28063 0.80185 0.77017 0.0
C558 C 0.33797 0.77838 0.79434 0.0
O559 O 0.28983 0.74698 0.8062 0.0
O560 O 0.27724 0.73958 0.77847 0.0
C561 C 0.32235 0.85179 0.77253 0.0
C562 C 0.31487 0.88496 0.78316 0.0
C563 C 0.33031 0.88354 0.77392 0.0
C564 C 0.334 0.86701 0.7686 0.0
C565 C 0.30714 0.85316 0.78201 0.0
C566 C 0.30341 0.86961 0.78726 0.0
C567 C 0.32617 0.83445 0.76719 0.0
H568 H 0.26922 0.67545 0.8039 0.0
H569 H 0.26061 0.70453 0.80452 0.0
H570 H 0.31259 0.72616 0.78602 0.0
H571 H 0.3212 0.69714 0.78501 0.0
H572 H 0.33929 0.89518 0.77053 0.0
H573 H 0.34586 0.8661 0.76138 0.0
H574 H 0.29816 0.84148 0.78535 0.0
H575 H 0.2916 0.87033 0.79461 0.0
Tb576 Tb 0.56096 0.02579 0.04599 0.0
Eu577 Eu 0.54302 0.03456 0.00667 0.0
C578 C 0.55538 0.99657 0.0117 0.0
C579 C 0.58609 0.04699 0.01987 0.0
C580 C 0.56587 1.00668 0.09012 0.0
C581 C 0.56808 0.99777 0.12098 0.0
C582 C 0.57663 1.00429 0.10618 0.0
C583 C 0.54667 1.0009 0.08828 0.0
C584 C 0.53809 0.99469 0.10311 0.0
C585 C 0.54863 0.99401 0.12 0.0
C586 C 0.57416 0.01737 0.07647 0.0
O587 O 0.56056 0.05444 0.05064 0.0
O588 O 0.53974 0.05776 0.02648 0.0
O589 O 0.52137 0.015 0.01684 0.0
O590 O 0.53118 0.02016 0.04745 0.0
C591 C 0.54968 0.06406 0.04224 0.0
O592 O 0.5237 0.04754 0.99036 0.0
O593 O 0.53984 0.03086 0.97705 0.0
O594 O 0.55458 0.00931 1.00078 0.0
O595 O 0.55459 0.99991 0.0294 0.0
O596 O 0.58473 0.03515 0.03181 0.0
O597 O 0.57151 0.05058 0.01032 0.0
C598 C 0.51853 0.01325 0.03387 0.0
O599 O 0.57536 0.00914 0.06084 0.0
O600 O 0.56768 0.0317 0.07427 0.0
C601 C 0.53423 0.05552 0.96232 0.0
C602 C 0.54455 0.0743 0.93256 0.0
C603 C 0.52581 0.07014 0.93554 0.0
C604 C 0.52068 0.06059 0.95019 0.0
C605 C 0.55297 0.06161 0.96081 0.0
C606 C 0.55809 0.07078 0.946 0.0
C607 C 0.52889 0.0422 0.97494 0.0
H608 H 0.57664 0.99693 0.13361 0.0
H609 H 0.59152 1.0085 0.1077 0.0
H610 H 0.53817 1.00247 0.07585 0.0
H611 H 0.52311 0.99204 0.10172 0.0
H612 H 0.515 0.07316 0.92585 0.0
H613 H 0.50614 0.05628 0.95139 0.0
H614 H 0.56367 0.05809 0.97027 0.0
H615 H 0.57266 0.07363 0.94436 0.0
Tb616 Tb 0.31016 0.29906 0.29104 0.0
Eu617 Eu 0.29167 0.26153 0.26882 0.0
C618 C 0.3104 0.26346 0.31173 0.0
C619 C 0.33573 0.27949 0.26645 0.0
C620 C 0.31288 0.34415 0.3112 0.0
C621 C 0.2994 0.36253 0.33201 0.0
C622 C 0.31037 0.34991 0.32907 0.0
C623 C 0.30499 0.35187 0.29637 0.0
C624 C 0.29416 0.36455 0.29931 0.0
C625 C 0.29089 0.36972 0.31713 0.0
C626 C 0.32198 0.32893 0.30816 0.0
O627 O 0.29895 0.30684 0.2641 0.0
O628 O 0.28824 0.28046 0.24699 0.0
O629 O 0.2672 0.26955 0.28181 0.0
O630 O 0.28152 0.29505 0.29879 0.0
C631 C 0.29233 0.29775 0.24819 0.0
O632 O 0.29464 0.23888 0.25107 0.0
O633 O 0.26838 0.23973 0.26087 0.0
O634 O 0.3002 0.25417 0.29748 0.0
O635 O 0.3174 0.28027 0.31088 0.0
O636 O 0.33428 0.29271 0.27816 0.0
O637 O 0.32166 0.26633 0.26189 0.0
C638 C 0.26675 0.2826 0.29407 0.0
O639 O 0.31529 0.31503 0.31588 0.0
O640 O 0.32498 0.32486 0.29149 0.0
C641 C 0.27929 0.21285 0.26036 0.0
C642 C 0.29252 0.18487 0.2763 0.0
C643 C 0.2913 0.18585 0.25723 0.0
C644 C 0.28473 0.19974 0.24934 0.0
C645 C 0.27876 0.21096 0.27912 0.0
C646 C 0.28522 0.19701 0.287 0.0
C647 C 0.27854 0.22994 0.25321 0.0
H648 H 0.29722 0.36637 0.34589 0.0
H649 H 0.31632 0.34413 0.34071 0.0
H650 H 0.30652 0.34765 0.28241 0.0
H651 H 0.28759 0.36966 0.28754 0.0
H652 H 0.29694 0.17682 0.24857 0.0
H653 H 0.28542 0.20107 0.23488 0.0
H654 H 0.2747 0.22097 0.28795 0.0
H655 H 0.28568 0.19643 0.30167 0.0
Tb656 Tb 0.55383 0.52151 0.01021 0.0
Eu657 Eu 0.55406 0.54134 0.04989 0.0
C658 C 0.59163 0.54347 0.03055 0.0
C659 C 0.55682 0.49903 0.04615 0.0
C660 C 0.54417 0.50727 0.96058 0.0
C661 C 0.53966 0.49855 0.92805 0.0
C662 C 0.54874 0.4978 0.94546 0.0
C663 C 0.53046 0.51757 0.95821 0.0
C664 C 0.52134 0.51832 0.9408 0.0
C665 C 0.52583 0.5088 0.92553 0.0
C666 C 0.55381 0.50638 0.97874 0.0
O667 O 0.52397 0.51957 0.01286 0.0
O668 O 0.52567 0.52412 0.04394 0.0
O669 O 0.54968 0.56278 0.0307 0.0
O670 O 0.55234 0.54886 1.00294 0.0
C671 C 0.51603 0.51828 0.02808 0.0
O672 O 0.54045 0.55643 0.0685 0.0
O673 O 0.5676 0.5506 0.07723 0.0
O674 O 0.5821 0.55181 0.04102 0.0
O675 O 0.58351 0.52868 0.02094 0.0
O676 O 0.55474 0.49953 0.02812 0.0
O677 O 0.55857 0.51372 0.05695 0.0
C678 C 0.55082 0.56328 0.01296 0.0
O679 O 0.56546 0.52046 0.98547 0.0
O680 O 0.54347 0.50006 0.99083 0.0
C681 C 0.54722 0.55197 0.09954 0.0
C682 C 0.53916 0.5437 0.1347 0.0
C683 C 0.53837 0.56054 0.12906 0.0
C684 C 0.54246 0.56465 0.11162 0.0
C685 C 0.54679 0.53483 0.1046 0.0
C686 C 0.54286 0.53074 0.12207 0.0
C687 C 0.55343 0.55699 0.08209 0.0
H688 H 0.54362 0.49129 0.91653 0.0
H689 H 0.55938 0.48987 0.94712 0.0
H690 H 0.5268 0.52496 0.96982 0.0
H691 H 0.51062 0.52616 0.93933 0.0
H692 H 0.53528 0.57073 0.13836 0.0
H693 H 0.54249 0.57788 0.10779 0.0
H694 H 0.55023 0.52481 0.09532 0.0
H695 H 0.54379 0.51771 0.126 0.0
Tb696 Tb 0.79282 0.26604 0.28679 0.0
Eu697 Eu 0.80925 0.30578 0.2782 0.0
C698 C 0.79523 0.29689 0.31606 0.0
C699 C 0.76555 0.28902 0.26676 0.0
C700 C 0.78606 0.21846 0.29419 0.0
C701 C 0.7801 0.18758 0.29935 0.0
C702 C 0.77486 0.204 0.3002 0.0
C703 C 0.80278 0.21652 0.28767 0.0
C704 C 0.80803 0.2001 0.28678 0.0
C705 C 0.79663 0.18541 0.29242 0.0
C706 C 0.77982 0.23529 0.29408 0.0
O707 O 0.80757 0.26315 0.26297 0.0
O708 O 0.8041 0.2891 0.2515 0.0
O709 O 0.83513 0.29454 0.28635 0.0
O710 O 0.82188 0.27043 0.29999 0.0
C711 C 0.8071 0.27301 0.24919 0.0
O712 O 0.82326 0.3248 0.26128 0.0
O713 O 0.81463 0.33365 0.28691 0.0
O714 O 0.80912 0.30511 0.30855 0.0
O715 O 0.78385 0.28359 0.30686 0.0
O716 O 0.76974 0.27344 0.26932 0.0
O717 O 0.77784 0.30349 0.27202 0.0
C718 C 0.83672 0.28159 0.29679 0.0
O719 O 0.78865 0.24764 0.30627 0.0
O720 O 0.77718 0.24111 0.27805 0.0
C721 C 0.81314 0.35201 0.2634 0.0
C722 C 0.79439 0.37936 0.2545 0.0
C723 C 0.81297 0.3831 0.26242 0.0
C724 C 0.82224 0.3695 0.26687 0.0
C725 C 0.79509 0.34814 0.25432 0.0
C726 C 0.78579 0.36173 0.24983 0.0
C727 C 0.82133 0.33828 0.27196 0.0
H728 H 0.77116 0.17657 0.30399 0.0
H729 H 0.76192 0.20536 0.30531 0.0
H730 H 0.81155 0.2276 0.28293 0.0
H731 H 0.82072 0.19882 0.28115 0.0
H732 H 0.81993 0.3965 0.26641 0.0
H733 H 0.83612 0.37267 0.27405 0.0
H734 H 0.78783 0.33467 0.25164 0.0
H735 H 0.77158 0.35844 0.24353 0.0
Tb736 Tb 0.06332 0.52735 0.54952 0.0
Eu737 Eu 0.04234 0.53594 0.51162 0.0
C738 C 0.05646 0.49822 0.51561 0.0
C739 C 0.08675 0.54541 0.5196 0.0
C740 C 0.06906 0.52293 0.5982 0.0
C741 C 0.07295 0.53247 0.63059 0.0
C742 C 0.08058 0.52829 0.61465 0.0
C743 C 0.04982 0.52106 0.598 0.0
C744 C 0.04222 0.5252 0.61384 0.0
C745 C 0.05371 0.53138 0.63021 0.0
C746 C 0.07694 0.52162 0.58084 0.0
O747 O 0.05218 0.55177 0.55638 0.0
O748 O 0.0514 0.56252 0.52843 0.0
O749 O 0.02 0.52935 0.5296 0.0
O750 O 0.03511 0.5131 0.54848 0.0
C751 C 0.05159 0.56523 0.54628 0.0
O752 O 0.0263 0.5525 0.49632 0.0
O753 O 0.03159 0.52853 0.48305 0.0
O754 O 0.04338 0.50632 0.50858 0.0
O755 O 0.0682 0.50618 0.52974 0.0
O756 O 0.08589 0.54108 0.53644 0.0
O757 O 0.07218 0.54304 0.50732 0.0
C758 C 0.01982 0.51769 0.54158 0.0
O759 O 0.06803 0.5093 0.56867 0.0
O760 O 0.08107 0.53647 0.57369 0.0
C761 C 0.03145 0.55247 0.46544 0.0
C762 C 0.04242 0.56609 0.4331 0.0
C763 C 0.02401 0.56495 0.43695 0.0
C764 C 0.01854 0.55807 0.45298 0.0
C765 C 0.05007 0.55494 0.46241 0.0
C766 C 0.05551 0.5616 0.44637 0.0
C767 C 0.02536 0.54303 0.48089 0.0
H768 H 0.08213 0.53707 0.64305 0.0
H769 H 0.09547 0.52995 0.61499 0.0
H770 H 0.04066 0.51722 0.5854 0.0
H771 H 0.02739 0.52451 0.61295 0.0
H772 H 0.01365 0.56859 0.42721 0.0
H773 H 1.00414 0.55646 0.45529 0.0
H774 H 0.06025 0.55082 0.472 0.0
H775 H 0.06974 0.56203 0.44388 0.0
Tb776 Tb 0.78216 0.77977 0.27279 0.0
Eu777 Eu 0.82411 0.77639 0.28692 0.0
C778 C 0.81475 0.80744 0.26333 0.0
C779 C 0.80613 0.76235 0.24498 0.0
C780 C 0.73457 0.78027 0.27803 0.0
C781 C 0.70247 0.776 0.28375 0.0
C782 C 0.71588 0.77943 0.27174 0.0
C783 C 0.73981 0.77813 0.29646 0.0
C784 C 0.72649 0.77457 0.30835 0.0
C785 C 0.70769 0.77317 0.30205 0.0
C786 C 0.74872 0.78196 0.26546 0.0
O787 O 0.78004 0.75937 0.29162 0.0
O788 O 0.80719 0.74985 0.28909 0.0
O789 O 0.81114 0.78274 0.31274 0.0
O790 O 0.7897 0.79683 0.29885 0.0
C791 C 0.79018 0.74721 0.29314 0.0
O792 O 0.84813 0.76361 0.28668 0.0
O793 O 0.84943 0.78686 0.305 0.0
O794 O 0.82493 0.80347 0.27752 0.0
O795 O 0.79873 0.79767 0.25712 0.0
O796 O 0.78962 0.76317 0.25008 0.0
O797 O 0.82132 0.76902 0.25608 0.0
C798 C 0.79933 0.79351 0.31392 0.0
O799 O 0.76199 0.79561 0.26932 0.0
O800 O 0.75517 0.76763 0.26217 0.0
C801 C 0.87587 0.78407 0.29094 0.0
C802 C 0.90804 0.79837 0.27591 0.0
C803 C 0.90789 0.78403 0.28665 0.0
C804 C 0.89189 0.77694 0.29411 0.0
C805 C 0.876 0.79849 0.28044 0.0
C806 C 0.89197 0.80565 0.27308 0.0
C807 C 0.85874 0.77597 0.29774 0.0
H808 H 0.68801 0.7749 0.27859 0.0
H809 H 0.71164 0.78097 0.25752 0.0
H810 H 0.7542 0.77874 0.30155 0.0
H811 H 0.73087 0.77264 0.32244 0.0
H812 H 0.91996 0.77798 0.28886 0.0
H813 H 0.89193 0.7657 0.30206 0.0
H814 H 0.86368 0.80411 0.27776 0.0
H815 H 0.8917 0.81683 0.26509 0.0
Tb816 Tb 0.81923 0.29578 0.79059 0.0
Eu817 Eu 0.79478 0.25894 0.76902 0.0
C818 C 0.77874 0.2941 0.77275 0.0
C819 C 0.7964 0.26761 0.81258 0.0
C820 C 0.847 0.34087 0.80215 0.0
C821 C 0.85836 0.37179 0.81126 0.0
C822 C 0.84955 0.35527 0.81521 0.0
C823 C 0.85294 0.34322 0.78487 0.0
C824 C 0.86186 0.35972 0.78093 0.0
C825 C 0.86489 0.37416 0.79418 0.0
C826 C 0.83873 0.32343 0.80702 0.0
O827 O 0.83257 0.27404 0.79763 0.0
O828 O 0.82497 0.25764 0.77039 0.0
O829 O 0.80363 0.27572 0.74688 0.0
O830 O 0.82697 0.29665 0.76277 0.0
C831 C 0.83593 0.26213 0.7857 0.0
O832 O 0.7918 0.23081 0.76226 0.0
O833 O 0.77142 0.24483 0.74997 0.0
O834 O 0.7751 0.27718 0.77465 0.0
O835 O 0.79577 0.30291 0.77478 0.0
O836 O 0.80178 0.28437 0.81043 0.0
O837 O 0.79498 0.25534 0.79906 0.0
C838 C 0.81755 0.28889 0.74733 0.0
O839 O 0.82073 0.31991 0.80597 0.0
O840 O 0.84546 0.31027 0.80031 0.0
C841 C 0.76166 0.21409 0.75245 0.0
C842 C 0.73547 0.1825 0.74837 0.0
C843 C 0.75317 0.18331 0.75779 0.0
C844 C 0.76613 0.19892 0.75978 0.0
C845 C 0.74372 0.21347 0.74366 0.0
C846 C 0.73071 0.19784 0.74173 0.0
C847 C 0.77628 0.22961 0.75168 0.0
H848 H 0.8601 0.38269 0.82163 0.0
H849 H 0.84492 0.3537 0.82856 0.0
H850 H 0.85103 0.33225 0.77457 0.0
H851 H 0.86682 0.36104 0.76771 0.0
H852 H 0.75713 0.17174 0.76327 0.0
H853 H 0.77988 0.19888 0.76647 0.0
H854 H 0.73995 0.22487 0.73763 0.0
H855 H 0.71722 0.19757 0.73429 0.0
Tb856 Tb 0.81077 0.79774 0.78996 0.0
Eu857 Eu 0.79227 0.76066 0.76739 0.0
C858 C 0.81018 0.76196 0.81059 0.0
C859 C 0.83585 0.77917 0.76461 0.0
C860 C 0.8132 0.84286 0.80953 0.0
C861 C 0.80041 0.86259 0.82949 0.0
C862 C 0.81141 0.84988 0.82715 0.0
C863 C 0.80447 0.8493 0.79425 0.0
C864 C 0.79365 0.8621 0.79658 0.0
C865 C 0.79117 0.86859 0.81421 0.0
C866 C 0.82222 0.82748 0.80738 0.0
O867 O 0.80292 0.80556 0.76209 0.0
O868 O 0.78633 0.78003 0.74661 0.0
O869 O 0.7704 0.7659 0.78566 0.0
O870 O 0.78095 0.79509 0.79414 0.0
C871 C 0.79337 0.79692 0.74698 0.0
O872 O 0.79647 0.73577 0.7549 0.0
O873 O 0.76869 0.74133 0.75394 0.0
O874 O 0.80116 0.7527 0.79574 0.0
O875 O 0.81634 0.77902 0.81048 0.0
O876 O 0.83538 0.78974 0.77934 0.0
O877 O 0.82072 0.76823 0.75727 0.0
C878 C 0.76818 0.78077 0.79402 0.0
O879 O 0.81457 0.8137 0.81473 0.0
O880 O 0.82633 0.82332 0.79112 0.0
C881 C 0.77363 0.71293 0.76049 0.0
C882 C 0.77776 0.68524 0.78236 0.0
C883 C 0.78013 0.68371 0.76364 0.0
C884 C 0.77809 0.69748 0.75281 0.0
C885 C 0.76908 0.71365 0.77852 0.0
C886 C 0.77099 0.69984 0.78933 0.0
C887 C 0.77881 0.72929 0.75186 0.0
H888 H 0.79883 0.86746 0.84323 0.0
H889 H 0.81793 0.84502 0.83912 0.0
H890 H 0.80538 0.84398 0.78049 0.0
H891 H 0.78649 0.86627 0.78455 0.0
H892 H 0.78547 0.67275 0.75778 0.0
H893 H 0.78186 0.69676 0.73901 0.0
H894 H 0.76574 0.72554 0.78479 0.0
H895 H 0.76873 0.70127 0.80358 0.0
Tb896 Tb 0.53464 0.5264 0.50983 0.0
Eu897 Eu 0.56569 0.53176 0.54632 0.0
C898 C 0.57459 0.52041 0.50602 0.0
C899 C 0.54316 0.49412 0.53025 0.0
C900 C 0.49936 0.54089 0.48065 0.0
C901 C 0.47022 0.54956 0.47057 0.0
C902 C 0.48175 0.53705 0.47062 0.0
C903 C 0.50554 0.55756 0.49006 0.0
C904 C 0.49408 0.57001 0.49002 0.0
C905 C 0.47611 0.56601 0.48067 0.0
C906 C 0.51043 0.5271 0.4834 0.0
O907 O 0.52273 0.53871 0.53179 0.0
O908 O 0.53767 0.52821 0.55625 0.0
O909 O 0.55803 0.55814 0.54274 0.0
O910 O 0.55235 0.55221 0.51189 0.0
C911 C 0.52358 0.53447 0.54873 0.0
O912 O 0.57502 0.52455 0.5733 0.0
O913 O 0.59285 0.54404 0.56034 0.0
O914 O 0.5803 0.53072 0.52114 0.0
O915 O 0.55693 0.5146 0.50058 0.0
O916 O 0.53009 0.50142 0.52219 0.0
O917 O 0.55952 0.50323 0.5365 0.0
C918 C 0.55503 0.56344 0.52642 0.0
O919 O 0.52813 0.53184 0.48263 0.0
O920 O 0.5072 0.5184 0.49758 0.0
C921 C 0.60628 0.5226 0.57478 0.0
C922 C 0.63324 0.50113 0.5771 0.0
C923 C 0.63389 0.51501 0.5906 0.0
C924 C 0.6204 0.52565 0.58948 0.0
C925 C 0.60582 0.50894 0.5612 0.0
C926 C 0.6191 0.49828 0.56237 0.0
C927 C 0.59179 0.53331 0.57326 0.0
H928 H 0.45636 0.54602 0.4634 0.0
H929 H 0.47666 0.52418 0.46348 0.0
H930 H 0.51899 0.56073 0.49808 0.0
H931 H 0.49912 0.5826 0.49776 0.0
H932 H 0.64466 0.51748 0.60209 0.0
H933 H 0.62096 0.53617 0.60005 0.0
H934 H 0.59514 0.50652 0.54963 0.0
H935 H 0.61845 0.48794 0.55158 0.0
Tb936 Tb 0.039 0.50762 0.02086 0.0
Eu937 Eu 0.06563 0.54155 0.04365 0.0
C938 C 0.04588 0.50972 0.06289 0.0
C939 C 0.0215 0.54173 0.03233 0.0
C940 C 0.01964 0.46558 0.99179 0.0
C941 C 1.00456 0.43822 0.97465 0.0
C942 C 1.00349 0.45383 0.98463 0.0
C943 C 0.03694 0.46185 0.98848 0.0
C944 C 0.03803 0.44621 0.97843 0.0
C945 C 0.02184 0.4341 0.97168 0.0
C946 C 0.01808 0.48106 1.00356 0.0
O947 O 0.05576 0.52101 1.00171 0.0
O948 O 0.05835 0.54861 0.01527 0.0
O949 O 0.08574 0.52413 0.03497 0.0
O950 O 0.0655 0.49803 0.02679 0.0
C951 C 0.05804 0.53802 1.00066 0.0
O952 O 0.08893 0.56345 0.04525 0.0
O953 O 0.07415 0.5584 0.06891 0.0
O954 O 0.06179 0.51993 0.06221 0.0
O955 O 0.03293 0.50763 0.04902 0.0
O956 O 0.02088 0.52764 0.02092 0.0
O957 O 0.03645 0.54783 0.04403 0.0
C958 C 0.08267 0.50697 0.03068 0.0
O959 O 0.0253 0.48157 0.02051 0.0
O960 O 0.02196 0.49624 0.99691 0.0
C961 C 0.08637 0.58792 0.06489 0.0
C962 C 0.08682 0.62401 0.07265 0.0
C963 C 0.10314 0.61796 0.06942 0.0
C964 C 0.10291 0.60007 0.06565 0.0
C965 C 0.06991 0.59391 0.06746 0.0
C966 C 0.07016 0.61179 0.07141 0.0
C967 C 0.08662 0.5691 0.06177 0.0
H968 H 0.99185 0.42928 0.96939 0.0
H969 H 0.99004 0.45656 0.98707 0.0
H970 H 0.04955 0.47082 0.99402 0.0
H971 H 0.05153 0.44332 0.97648 0.0
H972 H 0.11614 0.62705 0.06992 0.0
H973 H 0.11571 0.59568 0.06352 0.0
H974 H 0.05693 0.58476 0.06677 0.0
H975 H 0.05737 0.61594 0.07401 0.0
H976 H 0.01587 0.21074 0.97356 0.0
H977 H 0.01927 0.19386 1.00023 0.0
H978 H 1.00776 0.14584 0.96472 0.0
H979 H 1.004 0.16246 0.93816 0.0
H980 H 0.99337 0.14231 0.99838 0.0
H981 H 0.06766 0.17493 0.00709 0.0
H982 H 0.05054 0.18863 0.00842 0.0
H983 H 0.05227 0.17691 0.98703 0.0
C984 C 0.01359 0.19654 0.97149 0.0
C985 C 1.01001 0.18793 0.95373 0.0
C986 C 0.01562 0.18695 0.98674 0.0
C987 C 0.01418 0.16866 0.98439 0.0
C988 C 1.00902 0.15996 0.96682 0.0
H989 H 0.06273 0.08757 0.00582 0.0
H990 H 0.05302 0.11529 1.00018 0.0
C991 C 1.00694 0.1695 0.95163 0.0
C992 C 0.02028 0.15856 0.99946 0.0
H993 H 0.05988 0.14943 0.02168 0.0
C994 C 1.0078 0.14413 1.004 0.0
C995 C 0.03915 0.16101 0.0067 0.0
C996 C 0.05328 0.17613 1.00207 0.0
C997 C 0.01397 0.13126 0.01426 0.0
C998 C 0.03306 0.13301 0.02021 0.0
C999 C 0.04525 0.14823 0.01713 0.0
C1000 C 0.04106 0.11769 0.02557 0.0
C1001 C 1.00033 0.11507 0.01713 0.0
C1002 C 0.03816 0.11021 0.04208 0.0
C1003 C 0.04388 0.09432 0.04542 0.0
C1004 C 0.05238 0.08576 0.0322 0.0
C1005 C 0.05617 0.09386 0.01622 0.0
C1006 C 0.05063 0.1097 0.01299 0.0
H1007 H 0.98598 0.11592 0.01166 0.0
H1008 H 1.00413 0.10328 0.01025 0.0
H1009 H 1.00068 0.11327 0.03194 0.0
H1010 H 0.03091 0.1163 0.052 0.0
H1011 H 0.04066 0.08823 0.05777 0.0
H1012 H 0.15624 0.83283 0.14452 0.0
H1013 H 0.18191 0.82235 0.16136 0.0
H1014 H 0.17712 0.85554 0.20919 0.0
H1015 H 0.15129 0.86587 0.1926 0.0
H1016 H 0.21658 0.83764 0.18296 0.0
H1017 H 0.16393 0.80451 0.22384 0.0
H1018 H 0.15786 0.81388 0.20281 0.0
H1019 H 0.16495 0.82778 0.22374 0.0
C1020 C 0.16104 0.83832 0.15843 0.0
C1021 C 0.1516 0.84995 0.16737 0.0
C1022 C 0.17565 0.83226 0.16805 0.0
C1023 C 0.181 0.83785 0.18662 0.0
C1024 C 0.17287 0.85082 0.19496 0.0
H1025 H 0.27092 0.81766 0.26078 0.0
H1026 H 0.24867 0.83019 0.24149 0.0
C1027 C 0.15822 0.85678 0.18544 0.0
C1028 C 0.1936 0.82886 0.19779 0.0
H1029 H 0.19529 0.80369 0.23392 0.0
C1030 C 0.21197 0.83018 0.19408 0.0
C1031 C 0.18733 0.81876 0.21196 0.0
C1032 C 0.1674 0.81596 0.21576 0.0
C1033 C 0.22447 0.82214 0.20465 0.0
C1034 C 0.21842 0.81283 0.21943 0.0
C1035 C 0.1999 0.81103 0.22272 0.0
C1036 C 0.23122 0.80518 0.23189 0.0
C1037 C 0.24398 0.82355 0.1998 0.0
C1038 C 0.22821 0.78703 0.23362 0.0
C1039 C 0.24082 0.77979 0.24483 0.0
C1040 C 0.25659 0.79064 0.25449 0.0
C1041 C 0.25902 0.80891 0.25338 0.0
C1042 C 0.24641 0.8161 0.24224 0.0
H1043 H 0.24492 0.82673 0.18543 0.0
H1044 H 0.25321 0.83421 0.20888 0.0
H1045 H 0.24915 0.81113 0.20172 0.0
H1046 H 0.2164 0.77843 0.22588 0.0
H1047 H 0.2386 0.76568 0.24536 0.0
H1048 H 0.54685 0.79013 0.38759 0.0
H1049 H 0.54664 0.82079 0.39754 0.0
H1050 H 0.51038 0.8039 0.43761 0.0
H1051 H 0.5104 0.77323 0.42777 0.0
H1052 H 0.49968 0.83058 0.41498 0.0
H1053 H 0.57284 0.84713 0.44717 0.0
H1054 H 0.56884 0.83699 0.4241 0.0
H1055 H 0.56059 0.82475 0.44232 0.0
C1056 C 0.53883 0.79291 0.39851 0.0
C1057 C 0.52869 0.77921 0.40692 0.0
C1058 C 0.5388 0.81044 0.40423 0.0
C1059 C 0.52866 0.81454 0.41843 0.0
C1060 C 0.51834 0.80094 0.42667 0.0
H1061 H 0.5039 0.90305 0.47968 0.0
H1062 H 0.50541 0.87446 0.46466 0.0
C1063 C 0.51841 0.78344 0.42103 0.0
C1064 C 0.52857 0.833 0.42466 0.0
H1065 H 0.55547 0.86979 0.44772 0.0
C1066 C 0.51188 0.8392 0.42206 0.0
C1067 C 0.54457 0.84419 0.43375 0.0
C1068 C 0.56274 0.83799 0.43716 0.0
C1069 C 0.51069 0.85631 0.42853 0.0
C1070 C 0.52653 0.86732 0.43819 0.0
C1071 C 0.54336 0.86128 0.44033 0.0
C1072 C 0.52563 0.88476 0.44707 0.0
C1073 C 0.49249 0.86244 0.4249 0.0
C1074 C 0.53694 0.89999 0.44255 0.0
C1075 C 0.53616 0.91639 0.45119 0.0
C1076 C 0.52409 0.91779 0.46452 0.0
C1077 C 0.51302 0.90245 0.46917 0.0
C1078 C 0.51385 0.88611 0.46059 0.0
H1079 H 0.48374 0.8548 0.41284 0.0
H1080 H 0.48478 0.86052 0.43695 0.0
H1081 H 0.49465 0.87659 0.42253 0.0
H1082 H 0.54623 0.89919 0.43224 0.0
H1083 H 0.54481 0.92799 0.44729 0.0
H1084 H 0.56609 0.29302 0.71568 0.0
H1085 H 0.537 0.28512 0.72861 0.0
H1086 H 0.5117 0.3181 0.69277 0.0
H1087 H 0.54065 0.3258 0.67944 0.0
H1088 H 0.51946 0.30761 0.7468 0.0
H1089 H 0.47334 0.27315 0.68618 0.0
H1090 H 0.49821 0.27779 0.68687 0.0
H1091 H 0.48495 0.29466 0.68227 0.0
C1092 C 0.55429 0.29846 0.71039 0.0
C1093 C 0.55567 0.31005 0.69654 0.0
C1094 C 0.53769 0.29391 0.71779 0.0
C1095 C 0.52217 0.30085 0.71149 0.0
C1096 C 0.52341 0.31228 0.69753 0.0
H1097 H 0.41608 0.30423 0.74806 0.0
H1098 H 0.4444 0.30839 0.73325 0.0
C1099 C 0.54 0.31675 0.69002 0.0
C1100 C 0.50509 0.29704 0.72039 0.0
H1101 H 0.45873 0.28088 0.71212 0.0
C1102 C 0.5062 0.30161 0.73926 0.0
C1103 C 0.48785 0.28923 0.71047 0.0
C1104 C 0.48599 0.28326 0.69037 0.0
C1105 C 0.49043 0.29895 0.74844 0.0
C1106 C 0.47319 0.29141 0.73847 0.0
C1107 C 0.47204 0.2867 0.71965 0.0
C1108 C 0.45608 0.28863 0.74733 0.0
C1109 C 0.4922 0.30458 0.76863 0.0
C1110 C 0.45334 0.27604 0.76002 0.0
C1111 C 0.43712 0.27352 0.76841 0.0
C1112 C 0.4234 0.28355 0.76419 0.0
C1113 C 0.42626 0.29613 0.75142 0.0
C1114 C 0.44244 0.29859 0.743 0.0
H1115 H 0.50582 0.313 0.77357 0.0
H1116 H 0.48108 0.31187 0.77168 0.0
H1117 H 0.49069 0.29276 0.7764 0.0
H1118 H 0.4637 0.2681 0.76332 0.0
H1119 H 0.4352 0.26354 0.77796 0.0
H1120 H 0.04682 0.83369 0.59024 0.0
H1121 H 0.04895 0.86227 0.57719 0.0
H1122 H 0.05215 0.88802 0.63123 0.0
H1123 H 0.05032 0.85964 0.64424 0.0
H1124 H 0.02895 0.88754 0.57465 0.0
H1125 H 0.09426 0.92008 0.61548 0.0
H1126 H 0.08575 0.89684 0.61531 0.0
H1127 H 0.07683 0.91228 0.62965 0.0
C1128 C 0.04807 0.8454 0.59945 0.0
C1129 C 0.04849 0.84386 0.61853 0.0
C1130 C 0.04928 0.86199 0.59188 0.0
C1131 C 0.05119 0.87803 0.60296 0.0
C1132 C 0.05132 0.87641 0.622 0.0
H1133 H 0.06038 0.99248 0.58343 0.0
H1134 H 0.05852 0.96388 0.59629 0.0
C1135 C 0.05007 0.85986 0.62955 0.0
C1136 C 0.05265 0.89611 0.59471 0.0
H1137 H 0.0777 0.9386 0.59867 0.0
C1138 C 0.03977 0.89857 0.57995 0.0
C1139 C 0.06656 0.91112 0.60122 0.0
C1140 C 0.08175 0.90996 0.61615 0.0
C1141 C 0.04006 0.91503 0.57212 0.0
C1142 C 0.05399 0.93004 0.5786 0.0
C1143 C 0.06688 0.92757 0.59336 0.0
C1144 C 0.05543 0.94816 0.5704 0.0
C1145 C 0.02476 0.9162 0.5573 0.0
C1146 C 0.05479 0.94984 0.55133 0.0
C1147 C 0.05585 0.96641 0.54385 0.0
C1148 C 0.05784 0.9824 0.55499 0.0
C1149 C 0.05889 0.98081 0.5741 0.0
C1150 C 0.0578 0.96418 0.58158 0.0
H1151 H 1.01224 0.90614 0.55813 0.0
H1152 H 0.02082 0.92935 0.55815 0.0
H1153 H 0.02951 0.91377 0.54375 0.0
H1154 H 0.05364 0.93824 0.54199 0.0
H1155 H 0.05506 0.96664 0.52913 0.0
H1156 H 0.49537 0.75937 0.89176 0.0
H1157 H 0.46288 0.7568 0.8781 0.0
H1158 H 0.48082 0.79185 0.83802 0.0
H1159 H 0.51268 0.79418 0.85107 0.0
H1160 H 0.43939 0.78059 0.87288 0.0
H1161 H 0.44918 0.75317 0.80446 0.0
H1162 H 0.46647 0.75457 0.82391 0.0
H1163 H 0.46505 0.77339 0.81116 0.0
C1164 C 0.49242 0.76638 0.87993 0.0
C1165 C 0.50707 0.77685 0.87259 0.0
C1166 C 0.47371 0.76496 0.87209 0.0
C1167 C 0.46904 0.77381 0.85657 0.0
C1168 C 0.48367 0.78439 0.84952 0.0
H1169 H 0.37263 0.79451 0.78696 0.0
H1170 H 0.40316 0.79261 0.80236 0.0
C1171 C 0.50215 0.78579 0.85724 0.0
C1172 C 0.44915 0.77255 0.84778 0.0
H1173 H 0.42188 0.76553 0.80622 0.0
C1174 C 0.43556 0.77705 0.85834 0.0
C1175 C 0.44373 0.76799 0.82872 0.0
C1176 C 0.45682 0.76183 0.81645 0.0
C1177 C 0.41734 0.7778 0.85041 0.0
C1178 C 0.41211 0.77369 0.83126 0.0
C1179 C 0.4256 0.76886 0.8208 0.0
C1180 C 0.39299 0.77464 0.82175 0.0
C1181 C 0.40407 0.78371 0.86261 0.0
C1182 C 0.37661 0.76498 0.82699 0.0
C1183 C 0.35896 0.76598 0.81805 0.0
C1184 C 0.35694 0.77667 0.80346 0.0
C1185 C 0.37336 0.78613 0.79807 0.0
C1186 C 0.39099 0.78505 0.80695 0.0
H1187 H 0.4114 0.79083 0.87561 0.0
H1188 H 0.39569 0.7924 0.85561 0.0
H1189 H 0.3945 0.77203 0.86607 0.0
H1190 H 0.37743 0.75647 0.83796 0.0
H1191 H 0.34684 0.7584 0.82269 0.0
H1192 H 0.55493 0.21345 0.14199 0.0
H1193 H 0.55581 0.18514 0.12629 0.0
H1194 H 0.53234 0.20191 0.07604 0.0
H1195 H 0.53212 0.23089 0.09182 0.0
H1196 H 0.53336 0.15872 0.11228 0.0
H1197 H 0.56903 0.18013 0.05327 0.0
H1198 H 0.56695 0.19542 0.07207 0.0
H1199 H 0.54796 0.18836 0.05421 0.0
C1200 C 0.55006 0.21139 0.12752 0.0
C1201 C 0.54355 0.22506 0.11844 0.0
C1202 C 0.55051 0.19483 0.1184 0.0
C1203 C 0.54443 0.1907 0.09955 0.0
C1204 C 0.53776 0.20431 0.09035 0.0
H1205 H 0.53245 0.09003 0.02725 0.0
H1206 H 0.5311 0.11962 0.0405 0.0
C1207 C 0.53748 0.22112 0.09952 0.0
C1208 C 0.54471 0.17217 0.09025 0.0
H1209 H 0.55689 0.14968 0.05262 0.0
C1210 C 0.53867 0.15699 0.09926 0.0
C1211 C 0.55148 0.16905 0.0731 0.0
C1212 C 0.5594 0.18408 0.06266 0.0
C1213 C 0.53903 0.13955 0.09192 0.0
C1214 C 0.54583 0.13646 0.07484 0.0
C1215 C 0.55164 0.15154 0.06565 0.0
C1216 C 0.54698 0.11789 0.06643 0.0
C1217 C 0.5316 0.12444 0.10251 0.0
C1218 C 0.55658 0.10638 0.07605 0.0
C1219 C 0.5575 0.08926 0.06834 0.0
C1220 C 0.54879 0.08264 0.0506 0.0
C1221 C 0.53932 0.09422 0.04093 0.0
C1222 C 0.53857 0.11141 0.04858 0.0
H1223 H 0.52215 0.12823 0.11219 0.0
H1224 H 0.52403 0.11304 0.09318 0.0
H1225 H 0.54331 0.12025 0.11061 0.0
H1226 H 0.56366 0.11069 0.08962 0.0
H1227 H 0.56507 0.08114 0.07643 0.0
H1228 H 0.10287 0.26744 0.35777 0.0
H1229 H 0.1302 0.26815 0.34138 0.0
H1230 H 0.16521 0.29076 0.39061 0.0
H1231 H 0.13803 0.28918 0.40716 0.0
H1232 H 0.15517 0.29002 0.33047 0.0
H1233 H 0.19571 0.25666 0.37921 0.0
H1234 H 0.17202 0.25813 0.3815 0.0
H1235 H 0.19052 0.27612 0.39027 0.0
C1236 C 0.11639 0.27241 0.36524 0.0
C1237 C 0.11788 0.27804 0.38407 0.0
C1238 C 0.13225 0.27288 0.35572 0.0
C1239 C 0.15045 0.27908 0.36449 0.0
C1240 C 0.15183 0.28516 0.38324 0.0
H1241 H 0.26227 0.3023 0.32574 0.0
H1242 H 0.23482 0.30145 0.34204 0.0
C1243 C 0.13601 0.28443 0.39282 0.0
C1244 C 0.16763 0.27958 0.35402 0.0
H1245 H 0.21218 0.2711 0.35671 0.0
C1246 C 0.16748 0.28569 0.33633 0.0
C1247 C 0.18419 0.27396 0.36105 0.0
C1248 C 0.18558 0.26568 0.37894 0.0
C1249 C 0.18294 0.28665 0.32606 0.0
C1250 C 0.19954 0.28143 0.33332 0.0
C1251 C 0.19977 0.27532 0.35092 0.0
C1252 C 0.2166 0.2821 0.32286 0.0
C1253 C 0.18151 0.29366 0.30751 0.0
C1254 C 0.21618 0.27151 0.3064 0.0
C1255 C 0.23212 0.2718 0.29706 0.0
C1256 C 0.24923 0.28291 0.30357 0.0
C1257 C 0.24955 0.29364 0.31995 0.0
C1258 C 0.2337 0.29311 0.32945 0.0
H1259 H 0.1695 0.30038 0.30522 0.0
H1260 H 0.19433 0.30301 0.30587 0.0
H1261 H 0.17983 0.2826 0.29677 0.0
H1262 H 0.20351 0.26267 0.30085 0.0
H1263 H 0.23101 0.26319 0.28468 0.0
H1264 H 0.88517 0.02479 0.15029 0.0
H1265 H 0.89865 0.0291 0.1215 0.0
H1266 H 0.95184 0.05024 0.15202 0.0
H1267 H 0.93855 0.04624 0.1806 0.0
H1268 H 0.94394 0.0675 0.12013 0.0
H1269 H 0.9324 0.99454 0.10716 0.0
H1270 H 0.91257 1.00454 0.1098 0.0
H1271 H 0.92976 1.00509 0.12901 0.0
C1272 C 0.89964 0.03069 0.15081 0.0
C1273 C 0.91091 0.0349 0.16765 0.0
C1274 C 0.90731 0.03309 0.13439 0.0
C1275 C 0.92628 0.03973 0.1347 0.0
C1276 C 0.93718 0.04507 0.15151 0.0
H1277 H 0.01727 0.02349 0.08498 0.0
H1278 H 0.99106 0.02548 0.10203 0.0
C1279 C 0.92958 0.04267 0.16783 0.0
C1280 C 0.93559 0.03938 0.11796 0.0
H1281 H 0.95235 0.01105 0.08963 0.0
C1282 C 0.94544 0.05521 0.11308 0.0
C1283 C 0.93758 0.02327 0.10897 0.0
C1284 C 0.92763 1.00584 0.11397 0.0
C1285 C 0.95816 0.0553 0.10023 0.0
C1286 C 0.96088 0.03913 0.09205 0.0
C1287 C 0.95015 0.02339 0.09601 0.0
C1288 C 0.97645 0.03806 0.08132 0.0
C1289 C 0.96954 0.07252 0.09646 0.0
C1290 C 0.9768 0.04445 0.06402 0.0
C1291 C 0.9918 0.04336 0.05423 0.0
C1292 C 1.00663 0.03583 0.06161 0.0
C1293 C 1.00612 0.02939 0.07892 0.0
C1294 C 0.99114 0.03047 0.08866 0.0
H1295 H 0.96705 0.08375 0.1054 0.0
H1296 H 0.9845 0.07194 0.09851 0.0
H1297 H 0.96603 0.07503 0.082 0.0
H1298 H 0.96547 0.05019 0.05809 0.0
H1299 H 0.99175 0.04844 0.0409 0.0
H1300 H 0.30509 0.68444 0.4532 0.0
H1301 H 0.30162 0.69658 0.42365 0.0
H1302 H 0.28924 0.7437 0.44988 0.0
H1303 H 0.29267 0.73158 0.47974 0.0
H1304 H 0.26799 0.70775 0.40805 0.0
H1305 H 0.33029 0.76095 0.41639 0.0
H1306 H 0.32839 0.74256 0.43028 0.0
H1307 H 0.31562 0.75974 0.43444 0.0
C1308 C 0.30183 0.69748 0.4528 0.0
C1309 C 0.29918 0.70705 0.46889 0.0
C1310 C 0.2998 0.70437 0.43585 0.0
C1311 C 0.29523 0.72104 0.43456 0.0
C1312 C 0.29295 0.73086 0.4506 0.0
H1313 H 0.28519 0.77813 0.33658 0.0
H1314 H 0.28449 0.7696 0.36785 0.0
C1315 C 0.29491 0.72392 0.46764 0.0
C1316 C 0.29219 0.72767 0.41625 0.0
H1317 H 0.31109 0.75757 0.38838 0.0
C1318 C 0.27734 0.71871 0.40376 0.0
C1319 C 0.30432 0.74203 0.41074 0.0
C1320 C 0.32065 0.75189 0.42356 0.0
C1321 C 0.27439 0.72362 0.38584 0.0
C1322 C 0.28692 0.73758 0.38007 0.0
C1323 C 0.3015 0.74683 0.39275 0.0
C1324 C 0.28566 0.74236 0.36081 0.0
C1325 C 0.25777 0.71386 0.37333 0.0
C1326 C 0.28636 0.72987 0.34633 0.0
C1327 C 0.2866 0.73466 0.32838 0.0
C1328 C 0.28641 0.75214 0.32451 0.0
C1329 C 0.28531 0.76454 0.33899 0.0
C1330 C 0.28497 0.75971 0.35693 0.0
H1331 H 0.24664 0.70788 0.38123 0.0
H1332 H 0.25208 0.72265 0.36388 0.0
H1333 H 0.26192 0.70307 0.36504 0.0
H1334 H 0.28736 0.7165 0.34897 0.0
H1335 H 0.28766 0.72479 0.31765 0.0
H1336 H 0.5595 0.94715 0.71758 0.0
H1337 H 0.54102 0.94836 0.6884 0.0
H1338 H 0.58996 0.95067 0.66087 0.0
H1339 H 0.60835 0.94902 0.68981 0.0
H1340 H 0.5478 0.97757 0.67224 0.0
H1341 H 0.55204 0.92321 0.62198 0.0
H1342 H 0.55731 0.92205 0.6463 0.0
H1343 H 0.57473 0.93239 0.6331 0.0
C1344 C 0.56618 0.94722 0.70519 0.0
C1345 C 0.58544 0.94833 0.70602 0.0
C1346 C 0.55558 0.94789 0.68852 0.0
C1347 C 0.56407 0.94962 0.67243 0.0
C1348 C 0.58299 0.949 0.673 0.0
H1349 H 0.56989 0.02074 0.59579 0.0
H1350 H 0.56817 1.0036 0.62226 0.0
C1351 C 0.59356 0.9482 0.68964 0.0
C1352 C 0.55445 0.95579 0.65614 0.0
H1353 H 0.55049 0.95169 0.6095 0.0
C1354 C 0.54784 0.97158 0.65854 0.0
C1355 C 0.55425 0.94794 0.63825 0.0
C1356 C 0.55979 0.93035 0.6348 0.0
C1357 C 0.54276 0.98055 0.64354 0.0
C1358 C 0.54457 0.97367 0.62576 0.0
C1359 C 0.54941 0.95707 0.62322 0.0
C1360 C 0.54421 0.9846 0.61015 0.0
C1361 C 0.53647 0.99782 0.64691 0.0
C1362 C 0.53129 0.97954 0.59456 0.0
C1363 C 0.53218 0.98941 0.57937 0.0
C1364 C 0.54622 1.00425 0.5795 0.0
C1365 C 0.55891 0.00939 0.59528 0.0
C1366 C 0.55789 0.99966 0.61045 0.0
H1367 H 0.53018 0.99846 0.65991 0.0
H1368 H 0.5486 1.00868 0.64799 0.0
H1369 H 0.52626 0.99993 0.63551 0.0
H1370 H 0.52073 0.96786 0.59407 0.0
H1371 H 0.52231 0.98505 0.56733 0.0
H1372 H 0.26519 0.39165 0.95498 0.0
H1373 H 0.26845 0.37512 0.92668 0.0
H1374 H 0.2987 0.34188 0.95739 0.0
H1375 H 0.29495 0.35827 0.9861 0.0
H1376 H 0.29629 0.37167 0.90976 0.0
H1377 H 0.26641 0.30418 0.92402 0.0
H1378 H 0.26454 0.32314 0.93869 0.0
H1379 H 0.28552 0.31428 0.94052 0.0
C1380 C 0.27236 0.38068 0.95592 0.0
C1381 C 0.27966 0.37642 0.97321 0.0
C1382 C 0.27431 0.37116 0.93948 0.0
C1383 C 0.28369 0.35687 0.93938 0.0
C1384 C 0.29093 0.35243 0.95667 0.0
H1385 H 0.31429 0.29139 0.84757 0.0
H1386 H 0.31089 0.30554 0.87746 0.0
C1387 C 0.28884 0.36193 0.97327 0.0
C1388 C 0.28635 0.34745 0.92117 0.0
H1389 H 0.28104 0.30698 0.89693 0.0
C1390 C 0.29281 0.3575 0.90708 0.0
C1391 C 0.28201 0.32888 0.91714 0.0
C1392 C 0.27407 0.31698 0.9308 0.0
C1393 C 0.29514 0.34978 0.88965 0.0
C1394 C 0.29071 0.33126 0.8856 0.0
C1395 C 0.28448 0.32114 0.89971 0.0
C1396 C 0.29248 0.32225 0.86694 0.0
C1397 C 0.30279 0.36166 0.87582 0.0
C1398 C 0.28313 0.32644 0.85058 0.0
C1399 C 0.28503 0.31824 0.8333 0.0
C1400 C 0.29637 0.3055 0.83161 0.0
C1401 C 0.30551 0.30115 0.84803 0.0
C1402 C 0.30352 0.30927 0.86531 0.0
H1403 H 0.31033 0.37457 0.88245 0.0
H1404 H 0.31233 0.35555 0.86789 0.0
H1405 H 0.2912 0.3641 0.86611 0.0
H1406 H 0.27416 0.33601 0.85113 0.0
H1407 H 0.27755 0.32196 0.8212 0.0
H1408 H 0.9654 0.99795 0.25541 0.0
H1409 H 0.98087 0.9981 0.28638 0.0
H1410 H 0.93759 0.02049 0.30843 0.0
H1411 H 0.92184 0.02019 0.27756 0.0
H1412 H 0.99395 0.02653 0.31239 0.0
H1413 H 0.94012 0.97755 0.33739 0.0
H1414 H 0.94076 0.9807 0.31343 0.0
H1415 H 0.93168 0.99576 0.32797 0.0
C1416 C 0.95912 1.00287 0.26683 0.0
C1417 C 0.94232 0.00897 0.26401 0.0
C1418 C 0.968 1.00295 0.28451 0.0
C1419 C 0.96022 0.00907 0.29966 0.0
C1420 C 0.94361 0.01539 0.29691 0.0
H1421 H 0.01664 0.03745 0.40987 0.0
H1422 H 1.00033 0.03765 0.37928 0.0
C1423 C 0.93469 0.01529 0.27925 0.0
C1424 C 0.96968 0.00908 0.31832 0.0
H1425 H 0.96451 0.99235 0.35947 0.0
C1426 C 0.98756 0.01905 0.3227 0.0
C1427 C 0.96132 0.99914 0.33162 0.0
C1428 C 0.94248 0.98754 0.32737 0.0
C1429 C 0.99728 0.01948 0.34014 0.0
C1430 C 0.98874 0.00991 0.35358 0.0
C1431 C 0.97093 0.99981 0.34915 0.0
C1432 C 0.99824 0.00982 0.3722 0.0
C1433 C 0.01675 0.02989 0.34391 0.0
C1434 C 1.00198 0.99402 0.37847 0.0
C1435 C 1.01108 0.99382 0.39599 0.0
C1436 C 0.01654 0.00942 0.40756 0.0
C1437 C 1.01252 0.0252 0.40132 0.0
C1438 C 1.00339 0.02538 0.38379 0.0
H1439 H 0.02283 0.03285 0.33107 0.0
H1440 H 0.01656 0.04255 0.35174 0.0
H1441 H 0.02585 0.02268 0.35221 0.0
H1442 H 0.99797 0.98185 0.36975 0.0
H1443 H 0.0137 0.98141 0.40052 0.0
H1444 H 0.30956 0.72148 0.5745 0.0
H1445 H 0.31407 0.73682 0.60541 0.0
H1446 H 0.30221 0.6871 0.62851 0.0
H1447 H 0.29788 0.67181 0.59814 0.0
H1448 H 0.28829 0.73552 0.63139 0.0
H1449 H 0.35052 0.71087 0.65905 0.0
H1450 H 0.3429 0.70954 0.63484 0.0
H1451 H 0.33201 0.69369 0.64891 0.0
C1452 C 0.30807 0.71384 0.58619 0.0
C1453 C 0.30341 0.69539 0.58375 0.0
C1454 C 0.31063 0.72261 0.60383 0.0
C1455 C 0.30881 0.71308 0.61932 0.0
C1456 C 0.30413 0.69473 0.61686 0.0
H1457 H 0.3058 0.73292 0.73632 0.0
H1458 H 0.3063 0.71996 0.70509 0.0
C1459 C 0.30151 0.68601 0.59936 0.0
C1460 C 0.31087 0.72211 0.63808 0.0
H1461 H 0.3341 0.72377 0.68098 0.0
C1462 C 0.29846 0.73315 0.64218 0.0
C1463 C 0.32404 0.71888 0.65221 0.0
C1464 C 0.33825 0.70773 0.64853 0.0
C1465 C 0.29847 0.74058 0.6601 0.0
C1466 C 0.31149 0.73715 0.67429 0.0
C1467 C 0.32407 0.72631 0.67015 0.0
C1468 C 0.31233 0.7449 0.69345 0.0
C1469 C 0.28414 0.75157 0.6638 0.0
C1470 C 0.31614 0.76318 0.6974 0.0
C1471 C 0.31586 0.77058 0.71513 0.0
C1472 C 0.31191 0.7599 0.72945 0.0
C1473 C 0.30887 0.74155 0.72565 0.0
C1474 C 0.30912 0.73412 0.7078 0.0
H1475 H 0.27234 0.74916 0.65274 0.0
H1476 H 0.2787 0.74887 0.677 0.0
H1477 H 0.29057 0.76568 0.66462 0.0
H1478 H 0.31911 0.77176 0.68667 0.0
H1479 H 0.31848 0.78477 0.71752 0.0
H1480 H 0.61762 0.01757 0.80158 0.0
H1481 H 0.61454 0.03895 0.82644 0.0
H1482 H 0.55516 0.02709 0.81344 0.0
H1483 H 0.55821 1.00632 0.78808 0.0
H1484 H 0.56748 0.06187 0.81875 0.0
H1485 H 0.59912 0.02911 0.87557 0.0
H1486 H 0.61382 0.03501 0.85825 0.0
H1487 H 0.59318 0.01859 0.85267 0.0
C1488 C 0.6039 0.01934 0.80422 0.0
C1489 C 0.58813 0.01018 0.79302 0.0
C1490 C 0.60217 0.03157 0.81841 0.0
C1491 C 0.58462 0.03449 0.82192 0.0
C1492 C 0.56885 0.0251 0.81093 0.0
H1493 H 0.52456 0.06315 0.89915 0.0
H1494 H 0.53689 0.06113 0.87023 0.0
C1495 C 0.57059 0.01314 0.79655 0.0
C1496 C 0.5824 0.04725 0.83699 0.0
H1497 H 0.58815 0.05471 0.88348 0.0
C1498 C 0.57221 0.06046 0.8329 0.0
C1499 C 0.58877 0.04552 0.85543 0.0
C1500 C 0.59919 0.03122 0.86083 0.0
C1501 C 0.56727 0.07127 0.84684 0.0
C1502 C 0.57278 0.06887 0.86523 0.0
C1503 C 0.58412 0.0566 0.86929 0.0
C1504 C 0.56403 0.07598 0.88042 0.0
C1505 C 0.55552 0.08464 0.84186 0.0
C1506 C 0.57487 0.08601 0.89551 0.0
C1507 C 0.56768 0.08758 0.91221 0.0
C1508 C 0.54978 0.07859 0.91418 0.0
C1509 C 0.53835 0.07035 0.89838 0.0
C1510 C 0.54542 0.06912 0.88167 0.0
H1511 H 0.5572 0.08866 0.82787 0.0
H1512 H 0.54074 0.07878 0.84216 0.0
H1513 H 0.55904 0.09647 0.85178 0.0
H1514 H 0.58928 0.09143 0.89476 0.0
H1515 H 0.57669 0.09457 0.9239 0.0
H1516 H 0.27288 0.3489 0.08021 0.0
H1517 H 0.27403 0.33514 0.10928 0.0
H1518 H 0.29701 0.38553 0.13822 0.0
H1519 H 0.29562 0.39931 0.10928 0.0
H1520 H 0.30088 0.33099 0.13497 0.0
H1521 H 0.25759 0.37066 0.16987 0.0
H1522 H 0.25968 0.37118 0.14576 0.0
H1523 H 0.27739 0.3839 0.16241 0.0
C1524 C 0.27812 0.35714 0.09274 0.0
C1525 C 0.28404 0.37541 0.09204 0.0
C1526 C 0.27881 0.34918 0.10955 0.0
C1527 C 0.28526 0.35911 0.1265 0.0
C1528 C 0.29142 0.37734 0.12576 0.0
H1529 H 0.30108 0.33354 0.24307 0.0
H1530 H 0.29953 0.34795 0.21439 0.0
C1531 C 0.29078 0.38529 0.10897 0.0
C1532 C 0.28592 0.35041 0.14467 0.0
H1533 H 0.27316 0.35262 0.18836 0.0
C1534 C 0.29467 0.33575 0.14654 0.0
C1535 C 0.27802 0.35633 0.16024 0.0
C1536 C 0.26748 0.37126 0.15948 0.0
C1537 C 0.29606 0.32732 0.1631 0.0
C1538 C 0.28808 0.33318 0.17863 0.0
C1539 C 0.27937 0.34787 0.1768 0.0
C1540 C 0.28853 0.32424 0.19667 0.0
C1541 C 0.30673 0.31249 0.16386 0.0
C1542 C 0.28247 0.30597 0.19702 0.0
C1543 C 0.28333 0.29764 0.21355 0.0
C1544 C 0.29013 0.30716 0.23067 0.0
C1545 C 0.29572 0.32554 0.23042 0.0
C1546 C 0.29485 0.33388 0.21382 0.0
H1547 H 0.31681 0.31331 0.15365 0.0
H1548 H 0.31436 0.31246 0.17765 0.0
H1549 H 0.29695 0.29981 0.16064 0.0
H1550 H 0.27694 0.29798 0.18441 0.0
H1551 H 0.27876 0.28355 0.21282 0.0
H1552 H 0.23104 0.88344 0.04492 0.0
H1553 H 0.20604 0.89938 0.05094 0.0
H1554 H 0.24653 0.94562 0.07091 0.0
H1555 H 0.27133 0.93006 0.06463 0.0
H1556 H 0.19789 0.9166 0.08294 0.0
H1557 H 0.21426 0.96377 0.03127 0.0
H1558 H 0.22365 0.94388 0.03228 0.0
H1559 H 0.23393 0.96303 0.04744 0.0
C1560 C 0.23455 0.89699 0.05062 0.0
C1561 C 0.25313 0.90557 0.05407 0.0
C1562 C 0.22029 0.90607 0.05406 0.0
C1563 C 0.22444 0.9238 0.06099 0.0
C1564 C 0.24299 0.9321 0.0651 0.0
H1565 H 0.16694 1.00641 0.09323 0.0
H1566 H 0.18919 0.9867 0.08999 0.0
C1567 C 0.25717 0.92314 0.06157 0.0
C1568 C 0.20955 0.93389 0.06381 0.0
H1569 H 0.19426 0.97129 0.05269 0.0
C1570 C 0.19696 0.92846 0.0762 0.0
C1571 C 0.20831 0.94933 0.05493 0.0
C1572 C 0.22064 0.95526 0.04059 0.0
C1573 C 0.18356 0.93841 0.0804 0.0
C1574 C 0.18278 0.95411 0.07196 0.0
C1575 C 0.19511 0.95936 0.05933 0.0
C1576 C 0.16902 0.9652 0.07567 0.0
C1577 C 0.17057 0.93235 0.09411 0.0
C1578 C 0.15036 0.95954 0.06881 0.0
C1579 C 0.13771 0.97078 0.07054 0.0
C1580 C 0.14349 0.98786 0.0792 0.0
C1581 C 0.16208 0.99328 0.08663 0.0
C1582 C 0.17478 0.98208 0.08473 0.0
H1583 H 0.17483 0.92147 0.10156 0.0
H1584 H 0.1699 0.94343 0.10419 0.0
H1585 H 0.15644 0.92766 0.08688 0.0
H1586 H 0.14571 0.94664 0.06161 0.0
H1587 H 0.12343 0.96622 0.06481 0.0
H1588 H 0.7687 0.59761 0.0126 0.0
H1589 H 0.73695 0.5817 0.0132 0.0
H1590 H 0.7199 0.63049 0.02805 0.0
H1591 H 0.75125 0.64638 0.02671 0.0
H1592 H 0.71471 0.57578 0.03798 0.0
H1593 H 0.67937 0.61299 0.98883 0.0
H1594 H 0.70422 0.61564 0.99241 0.0
H1595 H 0.6921 0.6274 0.00761 0.0
C1596 C 0.75814 0.605 0.01576 0.0
C1597 C 0.76273 0.62343 0.01934 0.0
C1598 C 0.73986 0.59583 0.01618 0.0
C1599 C 0.72548 0.60473 0.02024 0.0
C1600 C 0.73022 0.62311 0.02418 0.0
H1601 H 0.6106 0.57647 0.04361 0.0
H1602 H 0.64251 0.59012 0.04075 0.0
C1603 C 0.74838 0.63228 0.02355 0.0
C1604 C 0.70582 0.59487 0.02091 0.0
H1605 H 0.65997 0.59538 0.00721 0.0
C1606 C 0.70283 0.58004 0.03104 0.0
C1607 C 0.68991 0.60006 0.01187 0.0
C1608 C 0.69156 0.61476 0.99942 0.0
C1609 C 0.68479 0.57082 0.03281 0.0
C1610 C 0.66897 0.57639 0.02425 0.0
C1611 C 0.67191 0.59105 0.01396 0.0
C1612 C 0.64933 0.56752 0.02616 0.0
C1613 C 0.68275 0.55543 0.04432 0.0
C1614 C 0.64205 0.55011 0.01884 0.0
C1615 C 0.62352 0.54221 0.02031 0.0
C1616 C 0.61169 0.55139 0.02931 0.0
C1617 C 0.61912 0.56877 0.0367 0.0
C1618 C 0.63749 0.57671 0.03502 0.0
H1619 H 0.69593 0.55463 0.05267 0.0
H1620 H 0.67198 0.55629 0.05359 0.0
H1621 H 0.67829 0.54309 0.03524 0.0
H1622 H 0.65063 0.54266 0.01171 0.0
H1623 H 0.61846 0.52889 0.01431 0.0
H1624 H 0.72851 0.51967 0.29116 0.0
H1625 H 0.74537 0.49859 0.27764 0.0
H1626 H 0.70635 0.45581 0.29357 0.0
H1627 H 0.68933 0.47674 0.30703 0.0
H1628 H 0.76151 0.4726 0.2951 0.0
H1629 H 0.7073 0.44334 0.23836 0.0
H1630 H 0.70723 0.46409 0.25095 0.0
H1631 H 0.6992 0.4438 0.26047 0.0
C1632 C 0.72353 0.50577 0.29181 0.0
C1633 C 0.70756 0.49984 0.30011 0.0
C1634 C 0.73315 0.49377 0.28404 0.0
C1635 C 0.72687 0.47568 0.28431 0.0
C1636 C 0.71116 0.46973 0.29289 0.0
H1637 H 0.75955 0.37839 0.26372 0.0
H1638 H 0.74356 0.40299 0.26773 0.0
C1639 C 0.70156 0.4817 0.3007 0.0
C1640 C 0.73707 0.46296 0.27619 0.0
H1641 H 0.73194 0.42762 0.24479 0.0
C1642 C 0.7552 0.46291 0.28392 0.0
C1643 C 0.72874 0.45044 0.26156 0.0
C1644 C 0.70961 0.45047 0.25221 0.0
C1645 C 0.76491 0.45002 0.27805 0.0
C1646 C 0.75634 0.43711 0.26383 0.0
C1647 C 0.73846 0.43757 0.25565 0.0
C1648 C 0.765 0.42203 0.25862 0.0
C1649 C 0.78387 0.44979 0.28777 0.0
C1650 C 0.78201 0.42448 0.25143 0.0
C1651 C 0.7912 0.41038 0.24904 0.0
C1652 C 0.78343 0.39361 0.2537 0.0
C1653 C 0.76583 0.39105 0.25977 0.0
C1654 C 0.7567 0.40513 0.26218 0.0
H1655 H 0.78698 0.45864 0.30061 0.0
H1656 H 0.78511 0.43629 0.29113 0.0
H1657 H 0.79449 0.4542 0.27866 0.0
H1658 H 0.78844 0.43739 0.24826 0.0
H1659 H 0.80463 0.4127 0.2441 0.0
H1660 H 0.85537 0.4451 0.51799 0.0
H1661 H 0.88724 0.46075 0.52414 0.0
H1662 H 0.9 0.42275 0.56119 0.0
H1663 H 0.86795 0.40679 0.55504 0.0
H1664 H 0.90536 0.47507 0.55999 0.0
H1665 H 0.94123 0.42655 0.52628 0.0
H1666 H 0.91671 0.42599 0.52108 0.0
H1667 H 0.92553 0.41878 0.54227 0.0
C1668 C 0.86493 0.43991 0.52733 0.0
C1669 C 0.85907 0.42468 0.53604 0.0
C1670 C 0.88314 0.44892 0.53086 0.0
C1671 C 0.89593 0.44288 0.54307 0.0
C1672 C 0.89033 0.42751 0.55157 0.0
H1673 H 0.0137 0.49056 0.5634 0.0
H1674 H 0.98395 0.47254 0.56737 0.0
C1675 C 0.87203 0.41843 0.54805 0.0
C1676 C 0.91492 0.45317 0.54715 0.0
H1677 H 0.95945 0.45345 0.53877 0.0
C1678 C 0.91725 0.47029 0.55555 0.0
C1679 C 0.93036 0.44681 0.54148 0.0
C1680 C 0.92846 0.42857 0.53218 0.0
C1681 C 0.93456 0.48148 0.55788 0.0
C1682 C 0.94982 0.47545 0.55133 0.0
C1683 C 0.94768 0.45803 0.54374 0.0
C1684 C 0.96764 0.4874 0.55066 0.0
C1685 C 0.93631 0.49973 0.56709 0.0
C1686 C 0.96827 0.50182 0.5401 0.0
C1687 C 0.9852 0.51212 0.53777 0.0
C1688 C 1.00185 0.50813 0.54588 0.0
C1689 C 1.00114 0.494 0.55695 0.0
C1690 C 0.98417 0.48367 0.55923 0.0
H1691 H 0.92545 0.50037 0.57632 0.0
H1692 H 0.9501 0.50417 0.57514 0.0
H1693 H 0.93458 0.509 0.5565 0.0
H1694 H 0.9557 0.50472 0.53307 0.0
H1695 H 0.98523 0.52287 0.52913 0.0
H1696 H 0.44397 0.13404 0.30554 0.0
H1697 H 0.41754 0.1489 0.30711 0.0
H1698 H 0.38245 0.09951 0.31315 0.0
H1699 H 0.40874 0.08462 0.31187 0.0
H1700 H 0.38739 0.14041 0.28098 0.0
H1701 H 0.36532 0.13295 0.35002 0.0
H1702 H 0.38799 0.13019 0.34469 0.0
H1703 H 0.36837 0.11274 0.33849 0.0
C1704 C 0.43073 0.12643 0.30767 0.0
C1705 C 0.42839 0.10815 0.30844 0.0
C1706 C 0.41566 0.13493 0.30857 0.0
C1707 C 0.39809 0.12532 0.31038 0.0
C1708 C 0.39595 0.10723 0.31211 0.0
H1709 H 0.29459 0.15085 0.26519 0.0
H1710 H 0.31916 0.13505 0.27541 0.0
C1711 C 0.41099 0.09872 0.31123 0.0
C1712 C 0.3816 0.13365 0.30789 0.0
H1713 H 0.34346 0.1411 0.32735 0.0
C1714 C 0.37787 0.14069 0.29119 0.0
C1715 C 0.36923 0.13397 0.32124 0.0
C1716 C 0.37298 0.12721 0.33969 0.0
C1717 C 0.36193 0.1478 0.2873 0.0
C1718 C 0.34922 0.14757 0.30036 0.0
C1719 C 0.3531 0.14091 0.31726 0.0
C1720 C 0.33235 0.1551 0.29681 0.0
C1721 C 0.35889 0.15566 0.2693 0.0
C1722 C 0.33117 0.1711 0.30613 0.0
C1723 C 0.31724 0.18017 0.3003 0.0
C1724 C 0.30423 0.17333 0.28506 0.0
C1725 C 0.30457 0.15657 0.27677 0.0
C1726 C 0.31854 0.14752 0.28261 0.0
H1727 H 0.37169 0.15798 0.26246 0.0
H1728 H 0.3481 0.14652 0.26 0.0
H1729 H 0.35402 0.16831 0.27132 0.0
H1730 H 0.34175 0.17713 0.31711 0.0
H1731 H 0.31756 0.19312 0.3069 0.0
H1732 H 0.38824 0.13877 0.5091 0.0
H1733 H 0.41635 0.12583 0.50854 0.0
H1734 H 0.39686 0.08999 0.54737 0.0
H1735 H 0.3693 0.103 0.54827 0.0
H1736 H 0.43163 0.1002 0.55715 0.0
H1737 H 0.42614 0.08254 0.48268 0.0
H1738 H 0.42737 0.10558 0.48831 0.0
H1739 H 0.40773 0.0901 0.49326 0.0
C1740 C 0.38985 0.12808 0.51746 0.0
C1741 C 0.37606 0.12209 0.52868 0.0
C1742 C 0.40605 0.12048 0.51704 0.0
C1743 C 0.4091 0.10646 0.5277 0.0
C1744 C 0.39533 0.10064 0.53891 0.0
H1745 H 0.48853 0.03418 0.51225 0.0
H1746 H 0.46197 0.04921 0.5116 0.0
C1747 C 0.37929 0.1082 0.53937 0.0
C1748 C 0.42649 0.09801 0.52776 0.0
H1749 H 0.45358 0.07856 0.50025 0.0
C1750 C 0.43632 0.09554 0.5446 0.0
C1751 C 0.43299 0.09144 0.51162 0.0
C1752 C 0.42294 0.09236 0.49294 0.0
C1753 C 0.45197 0.08707 0.54578 0.0
C1754 C 0.45878 0.08092 0.52964 0.0
C1755 C 0.44888 0.08326 0.51278 0.0
C1756 C 0.47564 0.07171 0.52997 0.0
C1757 C 0.4606 0.08424 0.56454 0.0
C1758 C 0.49287 0.07903 0.54026 0.0
C1759 C 0.50824 0.07029 0.54074 0.0
C1760 C 0.50725 0.05386 0.5308 0.0
C1761 C 0.49014 0.04669 0.52024 0.0
C1762 C 0.47476 0.05541 0.5198 0.0
H1763 H 0.45071 0.0845 0.57486 0.0
H1764 H 0.46544 0.0715 0.56453 0.0
H1765 H 0.47263 0.09496 0.56891 0.0
H1766 H 0.49459 0.09173 0.54787 0.0
H1767 H 0.52102 0.07656 0.54891 0.0
H1768 H 0.72234 0.58628 0.3198 0.0
H1769 H 0.74354 0.61406 0.31847 0.0
H1770 H 0.69865 0.64219 0.32292 0.0
H1771 H 0.6774 0.61459 0.32444 0.0
H1772 H 0.74032 0.63787 0.29204 0.0
H1773 H 0.73942 0.66935 0.36153 0.0
H1774 H 0.73151 0.6461 0.35557 0.0
H1775 H 0.71674 0.66144 0.34958 0.0
C1776 C 0.717 0.59838 0.32065 0.0
C1777 C 0.69817 0.59821 0.32223 0.0
C1778 C 0.72914 0.61423 0.31991 0.0
C1779 C 0.7227 0.63016 0.3209 0.0
C1780 C 0.70396 0.63005 0.32256 0.0
H1781 H 0.7554 0.73736 0.30267 0.0
H1782 H 0.74112 0.70856 0.31075 0.0
C1783 C 0.69182 0.61424 0.32327 0.0
C1784 C 0.7352 0.64684 0.31894 0.0
H1785 H 0.75114 0.68825 0.33938 0.0
C1786 C 0.74296 0.64882 0.30248 0.0
C1787 C 0.73856 0.66105 0.33262 0.0
C1788 C 0.73127 0.65937 0.3509 0.0
C1789 C 0.75327 0.66495 0.29894 0.0
C1790 C 0.75614 0.67932 0.3124 0.0
C1791 C 0.74888 0.67718 0.3291 0.0
C1792 C 0.76549 0.697 0.30884 0.0
C1793 C 0.76025 0.6667 0.28052 0.0
C1794 C 0.78406 0.70012 0.3055 0.0
C1795 C 0.79229 0.71658 0.30079 0.0
C1796 C 0.78207 0.73019 0.29945 0.0
C1797 C 0.76366 0.72716 0.30349 0.0
C1798 C 0.75547 0.71072 0.30815 0.0
H1799 H 0.7537 0.65547 0.27046 0.0
H1800 H 0.75758 0.67904 0.2749 0.0
H1801 H 0.77542 0.66714 0.28208 0.0
H1802 H 0.7921 0.68975 0.30628 0.0
H1803 H 0.80653 0.71852 0.29789 0.0
H1804 H 0.96519 0.5243 0.76568 0.0
H1805 H 0.94994 0.49337 0.76172 0.0
H1806 H 0.91335 0.50384 0.80126 0.0
H1807 H 0.92813 0.53466 0.80501 0.0
H1808 H 0.94699 0.4691 0.78653 0.0
H1809 H 0.87712 0.47811 0.75926 0.0
H1810 H 0.89718 0.49539 0.76062 0.0
H1811 H 0.88518 0.49134 0.78039 0.0
C1812 C 0.95383 0.52002 0.77346 0.0
C1813 C 0.9478 0.53198 0.78558 0.0
C1814 C 0.94513 0.50236 0.77115 0.0
C1815 C 0.93025 0.4964 0.78089 0.0
C1816 C 0.92444 0.50826 0.7932 0.0
H1817 H 0.89049 0.39716 0.81761 0.0
H1818 H 0.90687 0.42599 0.81191 0.0
C1819 C 0.93302 0.52587 0.79543 0.0
C1820 C 0.92127 0.47765 0.77898 0.0
H1821 H 0.87893 0.45078 0.77248 0.0
C1822 C 0.93214 0.46504 0.78317 0.0
C1823 C 0.90196 0.4723 0.7742 0.0
C1824 C 0.88973 0.48499 0.76816 0.0
C1825 C 0.92406 0.44736 0.78377 0.0
C1826 C 0.90458 0.4423 0.78053 0.0
C1827 C 0.89384 0.45472 0.77526 0.0
C1828 C 0.89497 0.42452 0.78363 0.0
C1829 C 0.93648 0.43433 0.78804 0.0
C1830 C 0.88236 0.41432 0.7698 0.0
C1831 C 0.8726 0.39794 0.77315 0.0
C1832 C 0.87525 0.3915 0.79044 0.0
C1833 C 0.88793 0.40178 0.80422 0.0
C1834 C 0.89757 0.41816 0.80089 0.0
H1835 H 0.95045 0.43869 0.78385 0.0
H1836 H 0.93819 0.43326 0.80302 0.0
H1837 H 0.93056 0.42112 0.78106 0.0
H1838 H 0.87999 0.41908 0.75644 0.0
H1839 H 0.86277 0.39046 0.76231 0.0
H1840 H 0.05849 0.84668 0.08907 0.0
H1841 H 0.0439 0.8626 0.06575 0.0
H1842 H 0.06155 0.91085 0.10056 0.0
H1843 H 0.0756 0.89505 0.12399 0.0
H1844 H 0.02546 0.9068 0.08438 0.0
H1845 H 0.07287 0.8944 0.03295 0.0
H1846 H 0.05927 0.87572 0.04132 0.0
H1847 H 0.07731 0.88973 0.05645 0.0
C1848 C 0.0592 0.86068 0.09172 0.0
C1849 C 0.0683 0.86967 0.10829 0.0
C1850 C 0.0509 0.86974 0.07838 0.0
C1851 C 0.05181 0.88791 0.08136 0.0
C1852 C 0.06063 0.8968 0.09802 0.0
H1853 H 0.07321 0.97901 0.04005 0.0
H1854 H 0.06908 0.94855 0.04672 0.0
C1855 C 0.06874 0.88777 0.11137 0.0
C1856 C 0.04443 0.89822 0.06713 0.0
H1857 H 0.05551 0.91631 0.02797 0.0
C1858 C 0.03161 0.90861 0.07176 0.0
C1859 C 0.05237 0.90032 0.0506 0.0
C1860 C 0.06628 0.88955 0.04496 0.0
C1861 C 0.02812 0.92243 0.06143 0.0
C1862 C 0.03738 0.92556 0.04579 0.0
C1863 C 0.04849 0.91385 0.04 0.0
C1864 C 0.03954 0.94292 0.03834 0.0
C1865 C 0.01608 0.9346 0.06841 0.0
C1866 C 0.02437 0.94977 0.03076 0.0
C1867 C 0.02666 0.96745 0.0271 0.0
C1868 C 0.04417 0.97838 0.03093 0.0
C1869 C 0.05948 0.97106 0.03721 0.0
C1870 C 0.05717 0.95355 0.0409 0.0
H1871 H 1.01129 0.93112 0.0817 0.0
H1872 H 0.02375 0.94836 0.07017 0.0
H1873 H 1.0037 0.93397 0.05832 0.0
H1874 H 1.0107 0.94167 0.02838 0.0
H1875 H 0.01465 0.97272 0.0221 0.0
H1876 H 0.98571 0.20159 0.82752 0.0
H1877 H 0.95644 0.20283 0.80937 0.0
H1878 H 0.93205 0.21217 0.85885 0.0
H1879 H 0.96115 0.21058 0.87715 0.0
H1880 H 0.90672 0.19207 0.82935 0.0
H1881 H 0.94728 0.25372 0.8088 0.0
H1882 H 0.95586 0.23394 0.80358 0.0
H1883 H 0.95606 0.24198 0.82702 0.0
C1884 C 0.97396 0.20342 0.83456 0.0
C1885 C 0.97582 0.20636 0.85375 0.0
C1886 C 0.95727 0.20412 0.82417 0.0
C1887 C 0.94229 0.20802 0.83279 0.0
C1888 C 0.94352 0.20923 0.85196 0.0
H1889 H 0.86249 0.27028 0.81484 0.0
H1890 H 0.88749 0.25476 0.82355 0.0
C1891 C 0.96017 0.20834 0.8624 0.0
C1892 C 0.92657 0.21353 0.82214 0.0
H1893 H 0.91554 0.24762 0.79905 0.0
C1894 C 0.90861 0.20403 0.82242 0.0
C1895 C 0.92916 0.22929 0.81332 0.0
C1896 C 0.94808 0.24044 0.81321 0.0
C1897 C 0.8931 0.2102 0.81455 0.0
C1898 C 0.89575 0.22617 0.80624 0.0
C1899 C 0.91369 0.23529 0.80534 0.0
C1900 C 0.8802 0.23496 0.80066 0.0
C1901 C 0.87396 0.20019 0.816 0.0
C1902 C 0.86795 0.22898 0.78477 0.0
C1903 C 0.8536 0.23791 0.77965 0.0
C1904 C 0.85136 0.25288 0.79041 0.0
C1905 C 0.86378 0.25879 0.80625 0.0
C1906 C 0.87807 0.24994 0.81128 0.0
H1907 H 0.87426 0.18843 0.82375 0.0
H1908 H 0.86584 0.20887 0.82287 0.0
H1909 H 0.86667 0.19588 0.80208 0.0
H1910 H 0.86956 0.21751 0.77633 0.0
H1911 H 0.84422 0.23303 0.76739 0.0
H1912 H 0.62996 0.27294 0.65137 0.0
H1913 H 0.62875 0.24647 0.63118 0.0
H1914 H 0.59059 0.26417 0.59151 0.0
H1915 H 0.59156 0.29071 0.61169 0.0
H1916 H 0.57854 0.23036 0.60086 0.0
H1917 H 0.65022 0.2379 0.58317 0.0
H1918 H 0.64937 0.24139 0.60734 0.0
H1919 H 0.64073 0.25613 0.59223 0.0
C1920 C 0.62149 0.27135 0.63825 0.0
C1921 C 0.6108 0.28392 0.63319 0.0
C1922 C 0.62095 0.25628 0.62666 0.0
C1923 C 0.6098 0.25352 0.60975 0.0
C1924 C 0.5994 0.26617 0.60445 0.0
H1925 H 0.58131 0.15093 0.54422 0.0
H1926 H 0.5841 0.18259 0.55196 0.0
C1927 C 0.59997 0.2813 0.61602 0.0
C1928 C 0.60771 0.23662 0.59856 0.0
H1929 H 0.63257 0.20838 0.57995 0.0
C1930 C 0.59024 0.22565 0.5959 0.0
C1931 C 0.62301 0.23061 0.59209 0.0
C1932 C 0.64185 0.2422 0.59368 0.0
C1933 C 0.58793 0.20833 0.58807 0.0
C1934 C 0.60346 0.202 0.58254 0.0
C1935 C 0.62072 0.21329 0.58428 0.0
C1936 C 0.60252 0.18323 0.5769 0.0
C1937 C 0.56916 0.19662 0.58681 0.0
C1938 C 0.61228 0.17328 0.58815 0.0
C1939 C 0.61071 0.15531 0.58382 0.0
C1940 C 0.59941 0.14692 0.56807 0.0
C1941 C 0.58993 0.15699 0.55657 0.0
C1942 C 0.59153 0.17505 0.56094 0.0
H1943 H 0.55933 0.20277 0.5943 0.0
H1944 H 0.56323 0.19383 0.57223 0.0
H1945 H 0.57037 0.18389 0.5924 0.0
H1946 H 0.62076 0.17937 0.60058 0.0
H1947 H 0.61797 0.1479 0.5931 0.0
H1948 H 0.58722 0.7419 0.41642 0.0
H1949 H 0.61491 0.75171 0.40167 0.0
H1950 H 0.60067 0.7057 0.36323 0.0
H1951 H 0.57264 0.69611 0.37751 0.0
H1952 H 0.64563 0.73916 0.3926 0.0
H1953 H 0.59893 0.74568 0.33056 0.0
H1954 H 0.59059 0.74137 0.35222 0.0
H1955 H 0.59565 0.72378 0.33758 0.0
C1956 C 0.59023 0.73365 0.40512 0.0
C1957 C 0.57765 0.7184 0.39788 0.0
C1958 C 0.60602 0.7393 0.39668 0.0
C1959 C 0.60947 0.72969 0.38104 0.0
C1960 C 0.59792 0.71355 0.37497 0.0
H1961 H 0.70557 0.74573 0.32314 0.0
H1962 H 0.68225 0.73636 0.34333 0.0
C1963 C 0.58202 0.70802 0.38322 0.0
C1964 C 0.6241 0.73724 0.37012 0.0
H1965 H 0.63098 0.74953 0.32748 0.0
C1966 C 0.64247 0.74149 0.37838 0.0
C1967 C 0.61982 0.74076 0.35174 0.0
C1968 C 0.60016 0.73785 0.34254 0.0
C1969 C 0.6568 0.74868 0.36852 0.0
C1970 C 0.65263 0.75121 0.34982 0.0
C1971 C 0.63418 0.74741 0.34176 0.0
C1972 C 0.66714 0.75735 0.33814 0.0
C1973 C 0.67618 0.7537 0.37832 0.0
C1974 C 0.66602 0.7719 0.32801 0.0
C1975 C 0.67915 0.77707 0.31617 0.0
C1976 C 0.69364 0.76782 0.31441 0.0
C1977 C 0.6947 0.75326 0.32452 0.0
C1978 C 0.68148 0.74797 0.33615 0.0
H1979 H 0.67605 0.75646 0.39328 0.0
H1980 H 0.68361 0.74263 0.37631 0.0
H1981 H 0.684 0.76545 0.37298 0.0
H1982 H 0.65496 0.77922 0.32923 0.0
H1983 H 0.67809 0.78836 0.30853 0.0
H1984 H 0.03786 0.20722 0.42319 0.0
H1985 H 0.0355 0.17899 0.43669 0.0
H1986 H 0.08218 0.20099 0.47639 0.0
H1987 H 0.08373 0.22944 0.46359 0.0
H1988 H 0.05141 0.15412 0.44023 0.0
H1989 H 0.05511 0.17823 0.51258 0.0
H1990 H 0.05322 0.19256 0.49457 0.0
H1991 H 0.07549 0.18801 0.50328 0.0
C1992 C 0.04753 0.20621 0.43497 0.0
C1993 C 0.06085 0.22117 0.44223 0.0
C1994 C 0.04623 0.18976 0.44279 0.0
C1995 C 0.05829 0.18716 0.45825 0.0
C1996 C 0.07194 0.20208 0.46516 0.0
H1997 H 0.06663 0.07566 0.48261 0.0
H1998 H 0.06885 0.10412 0.46985 0.0
C1999 C 0.07301 0.21863 0.45757 0.0
C2000 C 0.05684 0.169 0.46652 0.0
H2001 H 0.05947 0.14882 0.50695 0.0
C2002 C 0.05311 0.15319 0.45488 0.0
C2003 C 0.05853 0.16682 0.48571 0.0
C2004 C 0.06059 0.18228 0.49974 0.0
C2005 C 0.05134 0.13608 0.46149 0.0
C2006 C 0.05411 0.13395 0.48066 0.0
C2007 C 0.05757 0.14975 0.4923 0.0
C2008 C 0.05307 0.1158 0.48889 0.0
C2009 C 0.04565 0.12044 0.44754 0.0
C2010 C 0.04432 0.11207 0.5048 0.0
C2011 C 0.04352 0.09562 0.51259 0.0
C2012 C 0.05125 0.0818 0.50484 0.0
C2013 C 0.06008 0.0855 0.48902 0.0
C2014 C 0.06119 0.10206 0.48145 0.0
H2015 H 0.03775 0.12383 0.43504 0.0
H2016 H 0.05821 0.1161 0.44332 0.0
H2017 H 0.03694 0.10934 0.45309 0.0
H2018 H 0.03788 0.12193 0.51132 0.0
H2019 H 0.03669 0.09374 0.52478 0.0
H2020 H 0.61485 0.28948 0.15408 0.0
H2021 H 0.64516 0.2897 0.17118 0.0
H2022 H 0.62169 0.29474 0.22188 0.0
H2023 H 0.59121 0.29391 0.20478 0.0
H2024 H 0.66928 0.31146 0.1934 0.0
H2025 H 0.64727 0.2557 0.2337 0.0
H2026 H 0.63217 0.26148 0.21522 0.0
H2027 H 0.63477 0.27312 0.23759 0.0
C2028 C 0.61605 0.2906 0.16889 0.0
C2029 C 0.60025 0.29157 0.17788 0.0
C2030 C 0.63357 0.29074 0.17876 0.0
C2031 C 0.63612 0.29183 0.19808 0.0
C2032 C 0.62041 0.29328 0.20709 0.0
H2033 H 0.74961 0.31837 0.2605 0.0
H2034 H 0.71903 0.3196 0.24473 0.0
C2035 C 0.60283 0.293 0.19721 0.0
C2036 C 0.65509 0.29164 0.20858 0.0
H2037 H 0.67752 0.27214 0.24259 0.0
C2038 C 0.67096 0.3028 0.20414 0.0
C2039 C 0.65788 0.28023 0.22253 0.0
C2040 C 0.64217 0.26683 0.22743 0.0
C2041 C 0.68902 0.303 0.2131 0.0
C2042 C 0.6917 0.29206 0.22752 0.0
C2043 C 0.67586 0.28078 0.23183 0.0
C2044 C 0.7107 0.29155 0.23779 0.0
C2045 C 0.70512 0.31461 0.20643 0.0
C2046 C 0.71658 0.27542 0.24016 0.0
C2047 C 0.73407 0.27467 0.24957 0.0
C2048 C 0.74656 0.29003 0.25708 0.0
C2049 C 0.74065 0.30619 0.25492 0.0
C2050 C 0.72304 0.30692 0.24562 0.0
H2051 H 0.70172 0.31767 0.19211 0.0
H2052 H 0.70856 0.32722 0.21514 0.0
H2053 H 0.71753 0.30835 0.20709 0.0
H2054 H 0.70766 0.26324 0.2345 0.0
H2055 H 0.73786 0.26192 0.25079 0.0
H2056 H 0.56052 0.82668 0.96234 0.0
H2057 H 0.55778 0.85516 0.97809 0.0
H2058 H 0.57225 0.88124 0.93058 0.0
H2059 H 0.57496 0.85345 0.91505 0.0
H2060 H 0.58226 0.88828 0.98788 0.0
H2061 H 0.52538 0.89942 0.93799 0.0
H2062 H 0.53236 0.87834 0.93883 0.0
H2063 H 0.54512 0.89539 0.92732 0.0
C2064 C 0.56317 0.83844 0.95521 0.0
C2065 C 0.56791 0.8372 0.93711 0.0
C2066 C 0.56158 0.85493 0.96431 0.0
C2067 C 0.56437 0.87084 0.95562 0.0
C2068 C 0.56946 0.86953 0.93777 0.0
H2069 H 0.55917 0.98432 0.97602 0.0
H2070 H 0.56142 0.95469 0.96376 0.0
C2071 C 0.57116 0.85329 0.92882 0.0
C2072 C 0.56218 0.88876 0.96476 0.0
H2073 H 0.54049 0.92416 0.95812 0.0
C2074 C 0.57294 0.89597 0.98139 0.0
C2075 C 0.55023 0.89939 0.95661 0.0
C2076 C 0.53748 0.89271 0.9393 0.0
C2077 C 0.57257 0.91317 0.98951 0.0
C2078 C 0.56067 0.92387 0.98128 0.0
C2079 C 0.54976 0.9165 0.96475 0.0
C2080 C 0.55942 0.94258 0.98925 0.0
C2081 C 0.58573 0.91995 0.00651 0.0
C2082 C 0.55723 0.94649 0.00786 0.0
C2083 C 0.55606 0.96371 0.01501 0.0
C2084 C 0.55675 0.97797 1.00392 0.0
C2085 C 0.55862 0.97402 0.98526 0.0
C2086 C 0.55989 0.95681 0.97813 0.0
H2087 H 0.59775 0.91313 0.00761 0.0
H2088 H 0.591 0.93427 0.00673 0.0
H2089 H 0.57842 0.91746 0.01873 0.0
H2090 H 0.5561 0.93612 0.01699 0.0
H2091 H 0.55442 0.96579 0.02936 0.0
H2092 H 0.99531 0.76427 0.70615 0.0
H2093 H 0.96686 0.76524 0.71947 0.0
H2094 H 0.95071 0.79862 0.67884 0.0
H2095 H 0.97992 0.798 0.66537 0.0
H2096 H 0.94069 0.80957 0.71175 0.0
H2097 H 0.91649 0.73791 0.70309 0.0
H2098 H 0.93891 0.74342 0.71606 0.0
H2099 H 0.93595 0.74841 0.69253 0.0
C2100 C 0.98584 0.77184 0.69975 0.0
C2101 C 0.99036 0.78092 0.68429 0.0
C2102 C 0.9692 0.77225 0.70748 0.0
C2103 C 0.95586 0.7816 0.70017 0.0
C2104 C 0.96038 0.79106 0.68492 0.0
H2105 H 0.84156 0.76053 0.73289 0.0
H2106 H 0.86948 0.76192 0.71753 0.0
C2107 C 0.97723 0.79068 0.67709 0.0
C2108 C 0.93764 0.78144 0.7087 0.0
H2109 H 0.90143 0.75386 0.7238 0.0
C2110 C 0.93212 0.79732 0.71424 0.0
C2111 C 0.92579 0.76563 0.71198 0.0
C2112 C 0.92946 0.74789 0.70543 0.0
C2113 C 0.91591 0.79782 0.72314 0.0
C2114 C 0.90457 0.782 0.72722 0.0
C2115 C 0.90985 0.76615 0.7212 0.0
C2116 C 0.88705 0.78144 0.73708 0.0
C2117 C 0.91091 0.81548 0.72762 0.0
C2118 C 0.88686 0.79166 0.75371 0.0
C2119 C 0.87059 0.79091 0.76263 0.0
C2120 C 0.85372 0.77975 0.75551 0.0
C2121 C 0.85402 0.76933 0.73907 0.0
C2122 C 0.87023 0.77013 0.73015 0.0
H2123 H 0.91701 0.82538 0.7187 0.0
H2124 H 0.89568 0.81469 0.72607 0.0
H2125 H 0.91648 0.82023 0.74198 0.0
H2126 H 0.89943 0.80016 0.76005 0.0
H2127 H 0.87129 0.79915 0.77522 0.0
H2128 H 0.14751 0.05968 0.88449 0.0
H2129 H 0.14368 0.05572 0.91633 0.0
H2130 H 0.18328 0.021 0.91825 0.0
H2131 H 0.18717 0.02486 0.88603 0.0
H2132 H 0.14999 1.00649 0.92945 0.0
H2133 H 0.17432 0.07225 0.96532 0.0
H2134 H 0.15995 0.07389 0.94462 0.0
H2135 H 0.18138 0.06604 0.94345 0.0
C2136 C 0.15567 0.05143 0.89172 0.0
C2137 C 0.16754 0.04248 0.88273 0.0
C2138 C 0.15364 0.04935 0.91001 0.0
C2139 C 0.16345 0.03832 0.91972 0.0
C2140 C 0.17578 0.02975 0.91101 0.0
H2141 H 0.11511 0.03694 0.02247 0.0
H2142 H 0.1405 0.03548 1.00404 0.0
C2143 C 0.17795 0.03195 0.89264 0.0
C2144 C 0.15856 0.0341 0.938 0.0
H2145 H 0.14717 0.05453 0.97628 0.0
C2146 C 0.14992 0.01686 0.94004 0.0
C2147 C 0.1589 0.04749 0.95203 0.0
C2148 C 0.16935 0.06591 0.95131 0.0
C2149 C 0.1396 0.01315 0.95465 0.0
C2150 C 0.13767 0.02711 0.96718 0.0
C2151 C 0.14827 0.04387 0.96642 0.0
C2152 C 0.12267 0.02542 0.97906 0.0
C2153 C 0.13001 0.99452 0.9559 0.0
C2154 C 0.10424 0.0202 0.97111 0.0
C2155 C 0.08971 0.02104 0.98155 0.0
C2156 C 0.09337 0.02739 1.00008 0.0
C2157 C 0.11185 0.03217 0.00815 0.0
C2158 C 0.12638 0.03123 0.99771 0.0
H2159 H 0.13834 0.98504 0.9508 0.0
H2160 H 0.12752 0.99205 0.97017 0.0
H2161 H 0.11652 0.992 0.94714 0.0
H2162 H 0.10103 0.0162 0.95661 0.0
H2163 H 0.07565 0.0173 0.97493 0.0
H2164 H 0.80217 0.32958 0.58146 0.0
H2165 H 0.80604 0.31613 0.61039 0.0
H2166 H 0.83743 0.36525 0.63643 0.0
H2167 H 0.83386 0.37873 0.60756 0.0
H2168 H 0.85227 0.3357 0.64668 0.0
H2169 H 0.7771 0.32722 0.65292 0.0
H2170 H 0.78252 0.31734 0.63194 0.0
H2171 H 0.78791 0.3408 0.6367 0.0
C2172 C 0.81006 0.33747 0.59329 0.0
C2173 C 0.81756 0.35527 0.59224 0.0
C2174 C 0.81218 0.32979 0.60983 0.0
C2175 C 0.82174 0.33978 0.62564 0.0
C2176 C 0.82993 0.35732 0.62443 0.0
H2177 H 0.83807 0.32076 0.74133 0.0
H2178 H 0.84094 0.33319 0.71183 0.0
C2179 C 0.82783 0.36501 0.60791 0.0
C2180 C 0.82254 0.33221 0.6436 0.0
H2181 H 0.79529 0.31475 0.67489 0.0
C2182 C 0.83984 0.33113 0.65289 0.0
C2183 C 0.8063 0.32643 0.65175 0.0
C2184 C 0.78741 0.32813 0.64294 0.0
C2185 C 0.84127 0.32398 0.6699 0.0
C2186 C 0.825 0.31799 0.6779 0.0
C2187 C 0.80775 0.31926 0.66868 0.0
C2188 C 0.8253 0.31002 0.69566 0.0
C2189 C 0.86011 0.32251 0.67898 0.0
C2190 C 0.81567 0.29288 0.69637 0.0
C2191 C 0.81392 0.28581 0.71313 0.0
C2192 C 0.82172 0.29575 0.72963 0.0
C2193 C 0.83201 0.3127 0.72889 0.0
C2194 C 0.8337 0.31982 0.71203 0.0
H2195 H 0.87067 0.32389 0.66925 0.0
H2196 H 0.86455 0.33309 0.69026 0.0
H2197 H 0.8597 0.30971 0.68494 0.0
H2198 H 0.80908 0.28509 0.68392 0.0
H2199 H 0.80599 0.27268 0.71314 0.0
H2200 H 0.50329 0.09564 0.35011 0.0
H2201 H 0.51641 0.09399 0.38158 0.0
H2202 H 0.5574 0.06656 0.36201 0.0
H2203 H 0.54466 0.06843 0.33053 0.0
H2204 H 0.51526 0.06192 0.39433 0.0
H2205 H 0.58748 0.09858 0.40459 0.0
H2206 H 0.57082 0.10195 0.38606 0.0
H2207 H 0.58253 0.08359 0.38435 0.0
C2208 C 0.51542 0.0897 0.35246 0.0
C2209 C 0.52277 0.08195 0.33781 0.0
C2210 C 0.52292 0.08879 0.37047 0.0
C2211 C 0.5379 0.08019 0.37412 0.0
C2212 C 0.54606 0.07353 0.35951 0.0
H2213 H 0.55483 0.01938 0.46574 0.0
H2214 H 0.55159 0.03012 0.43537 0.0
C2215 C 0.53864 0.07451 0.34149 0.0
C2216 C 0.54298 0.0757 0.39291 0.0
H2217 H 0.57915 0.07766 0.42627 0.0
C2218 C 0.52919 0.06554 0.40138 0.0
C2219 C 0.56116 0.08041 0.40205 0.0
C2220 C 0.57632 0.09188 0.39388 0.0
C2221 C 0.53314 0.05967 0.41861 0.0
C2222 C 0.55145 0.06379 0.42745 0.0
C2223 C 0.56519 0.07432 0.41925 0.0
C2224 C 0.55624 0.05754 0.44546 0.0
C2225 C 0.51765 0.04913 0.42726 0.0
C2226 C 0.56066 0.06949 0.46103 0.0
C2227 C 0.56254 0.06342 0.47839 0.0
C2228 C 0.56006 0.04529 0.4804 0.0
C2229 C 0.5567 0.03341 0.46467 0.0
C2230 C 0.55482 0.03951 0.44732 0.0
H2231 H 0.50382 0.05041 0.42059 0.0
H2232 H 0.51874 0.03505 0.4259 0.0
H2233 H 0.5186 0.05336 0.44207 0.0
H2234 H 0.56184 0.08346 0.4598 0.0
H2235 H 0.56528 0.07293 0.49023 0.0
H2236 H 0.82144 0.70645 0.07251 0.0
H2237 H 0.8187 0.72308 0.10142 0.0
H2238 H 0.81823 0.67618 0.12957 0.0
H2239 H 0.82031 0.6596 0.10092 0.0
H2240 H 0.79389 0.69132 0.14205 0.0
H2241 H 0.85487 0.74431 0.1437 0.0
H2242 H 0.83864 0.74356 0.1237 0.0
H2243 H 0.85053 0.72548 0.12712 0.0
C2244 C 0.82092 0.6997 0.08488 0.0
C2245 C 0.82118 0.68152 0.08406 0.0
C2246 C 0.81946 0.70932 0.10162 0.0
C2247 C 0.8185 0.70119 0.11824 0.0
C2248 C 0.81889 0.68308 0.1173 0.0
H2249 H 0.83733 0.75486 0.23051 0.0
H2250 H 0.83976 0.74054 0.20044 0.0
C2251 C 0.82016 0.6735 0.10068 0.0
C2252 C 0.81651 0.71102 0.13646 0.0
H2253 H 0.83489 0.74739 0.16639 0.0
C2254 C 0.80295 0.70359 0.14725 0.0
C2255 C 0.82831 0.72701 0.14389 0.0
C2256 C 0.84403 0.73549 0.13412 0.0
C2257 C 0.80086 0.71141 0.16472 0.0
C2258 C 0.81225 0.72768 0.17189 0.0
C2259 C 0.82589 0.7351 0.16116 0.0
C2260 C 0.81062 0.73687 0.19055 0.0
C2261 C 0.7868 0.70162 0.17557 0.0
C2262 C 0.79351 0.74014 0.19554 0.0
C2263 C 0.79205 0.74823 0.21299 0.0
C2264 C 0.80768 0.75372 0.22615 0.0
C2265 C 0.82487 0.75086 0.221 0.0
C2266 C 0.8263 0.74263 0.2036 0.0
H2267 H 0.78366 0.68734 0.17115 0.0
H2268 H 0.7917 0.70333 0.19044 0.0
H2269 H 0.7737 0.70669 0.17331 0.0
H2270 H 0.78114 0.73654 0.18586 0.0
H2271 H 0.77856 0.75029 0.21611 0.0
H2272 H 0.16469 0.02609 0.7571 0.0
H2273 H 0.1391 0.02243 0.73256 0.0
H2274 H 0.10062 1.00378 0.77012 0.0
H2275 H 0.12613 1.00778 0.7949 0.0
H2276 H 0.1112 0.99445 0.71724 0.0
H2277 H 0.08276 0.04755 0.75277 0.0
H2278 H 0.10546 0.04316 0.75986 0.0
H2279 H 0.08524 0.0288 0.76517 0.0
C2280 C 0.15083 0.02098 0.7601 0.0
C2281 C 0.14737 0.01751 0.77797 0.0
C2282 C 0.13623 0.01885 0.74606 0.0
C2283 C 0.11796 0.01315 0.74964 0.0
C2284 C 0.11459 1.00853 0.76719 0.0
H2285 H 0.03776 0.01002 0.65106 0.0
H2286 H 0.04955 1.00048 0.68036 0.0
C2287 C 0.12918 0.01077 0.78129 0.0
C2288 C 0.10258 0.01356 0.73527 0.0
H2289 H 0.06944 0.03748 0.72296 0.0
C2290 C 0.10176 1.00357 0.71855 0.0
C2291 C 0.09037 0.02554 0.73711 0.0
C2292 C 0.09098 0.03699 0.75462 0.0
C2293 C 0.08986 1.00602 0.70324 0.0
C2294 C 0.07831 0.01861 0.70486 0.0
C2295 C 0.07825 0.02776 0.72188 0.0
C2296 C 0.06891 0.02475 0.68852 0.0
C2297 C 0.09073 0.99609 0.68513 0.0
C2298 C 0.07533 0.04177 0.68387 0.0
C2299 C 0.0687 0.04723 0.66728 0.0
C2300 C 0.05543 0.03578 0.65497 0.0
C2301 C 0.04818 0.01905 0.66015 0.0
C2302 C 0.05487 0.01358 0.67684 0.0
H2303 H 0.10204 0.98836 0.68581 0.0
H2304 H 0.07743 0.9869 0.68097 0.0
H2305 H 0.09286 1.00532 0.67435 0.0
H2306 H 0.08622 0.05057 0.6927 0.0
H2307 H 0.07485 0.06007 0.66367 0.0
H2308 H 0.80009 0.33873 0.49206 0.0
H2309 H 0.79791 0.32155 0.46248 0.0
H2310 H 0.78014 0.36398 0.43488 0.0
H2311 H 0.78183 0.38094 0.46412 0.0
H2312 H 0.76023 0.33221 0.42061 0.0
H2313 H 0.83563 0.33122 0.42638 0.0
H2314 H 0.82371 0.32185 0.44442 0.0
H2315 H 0.82582 0.34495 0.44186 0.0
C2316 C 0.7956 0.34433 0.47969 0.0
C2317 C 0.79129 0.3613 0.48052 0.0
C2318 C 0.79446 0.33454 0.46278 0.0
C2319 C 0.78916 0.34159 0.44641 0.0
C2320 C 0.78431 0.35826 0.44729 0.0
H2321 H 0.81379 0.32614 0.33709 0.0
H2322 H 0.81107 0.33494 0.36888 0.0
C2323 C 0.78535 0.36798 0.4641 0.0
C2324 C 0.78912 0.33212 0.42819 0.0
H2325 H 0.81765 0.3179 0.39927 0.0
C2326 C 0.77274 0.3289 0.41599 0.0
C2327 C 0.8055 0.32798 0.42211 0.0
C2328 C 0.82372 0.33178 0.43428 0.0
C2329 C 0.7724 0.32217 0.39775 0.0
C2330 C 0.78882 0.3182 0.39163 0.0
C2331 C 0.80506 0.3209 0.404 0.0
C2332 C 0.78993 0.31263 0.37215 0.0
C2333 C 0.75468 0.32018 0.38499 0.0
C2334 C 0.77891 0.29713 0.36331 0.0
C2335 C 0.78031 0.29211 0.34496 0.0
C2336 C 0.79292 0.30241 0.33521 0.0
C2337 C 0.80393 0.31788 0.34415 0.0
C2338 C 0.80244 0.32292 0.36238 0.0
H2339 H 0.74461 0.32746 0.3907 0.0
H2340 H 0.75747 0.32496 0.37151 0.0
H2341 H 0.74816 0.30609 0.38272 0.0
H2342 H 0.76941 0.28879 0.37065 0.0
H2343 H 0.77176 0.28003 0.33853 0.0
H2344 H 0.4495 0.05673 0.22988 0.0
H2345 H 0.45693 0.03546 0.20709 0.0
H2346 H 0.51486 0.05815 0.21928 0.0
H2347 H 0.50766 0.07941 0.24206 0.0
H2348 H 0.47843 0.03958 0.1758 0.0
H2349 H 0.50987 1.00532 0.23096 0.0
H2350 H 0.49425 0.02026 0.23497 0.0
H2351 H 0.51818 0.02863 0.23305 0.0
C2352 C 0.46378 0.05748 0.2274 0.0
C2353 C 0.47805 0.06957 0.23798 0.0
C2354 C 0.46798 0.04524 0.21448 0.0
C2355 C 0.48645 0.04497 0.21202 0.0
C2356 C 0.50054 0.05794 0.2214 0.0
H2357 H 0.56111 0.01245 0.15305 0.0
H2358 H 0.54261 0.01857 0.177 0.0
C2359 C 0.49639 0.07017 0.23426 0.0
C2360 C 0.49132 0.03088 0.20013 0.0
H2361 H 0.51848 0.99967 0.20083 0.0
C2362 C 0.48678 0.0305 0.18119 0.0
C2363 C 0.50195 0.01894 0.20737 0.0
C2364 C 0.50621 0.01814 0.22772 0.0
C2365 C 0.49408 0.01954 0.16915 0.0
C2366 C 0.50599 1.00861 0.17639 0.0
C2367 C 0.50932 1.00803 0.19537 0.0
C2368 C 0.5179 1.00073 0.16468 0.0
C2369 C 0.49025 0.02078 0.14881 0.0
C2370 C 0.51046 0.98769 0.1505 0.0
C2371 C 0.52118 0.98388 0.13674 0.0
C2372 C 0.53936 0.99325 0.13695 0.0
C2373 C 0.54726 1.00484 0.15235 0.0
C2374 C 0.53663 1.00849 0.16609 0.0
H2375 H 0.48195 0.03103 0.14557 0.0
H2376 H 0.50344 0.02381 0.14274 0.0
H2377 H 0.48251 1.00798 0.14218 0.0
H2378 H 0.49607 0.98135 0.14941 0.0
H2379 H 0.51481 0.97454 0.12532 0.0
H2380 H 0.8031 0.70147 0.9745 0.0
H2381 H 0.80137 0.71525 0.94556 0.0
H2382 H 0.8375 0.68271 0.9249 0.0
H2383 H 0.83804 0.66808 0.95327 0.0
H2384 H 0.82042 0.73481 0.92758 0.0
H2385 H 0.80403 0.67472 0.88041 0.0
H2386 H 0.80455 0.67383 0.90476 0.0
H2387 H 0.82564 0.67547 0.8941 0.0
C2388 C 0.81055 0.69708 0.96374 0.0
C2389 C 0.82055 0.68336 0.96648 0.0
C2390 C 0.80961 0.70509 0.94697 0.0
C2391 C 0.81885 0.7 0.93217 0.0
C2392 C 0.82939 0.68667 0.93525 0.0
H2393 H 0.83454 0.77282 0.84251 0.0
H2394 H 0.8375 0.7583 0.87087 0.0
C2395 C 0.82993 0.67835 0.95183 0.0
C2396 C 0.81781 0.70891 0.91403 0.0
H2397 H 0.81371 0.70132 0.867 0.0
C2398 C 0.81881 0.72729 0.9144 0.0
C2399 C 0.81534 0.69961 0.8963 0.0
C2400 C 0.81211 0.67982 0.89383 0.0
C2401 C 0.81758 0.73636 0.89824 0.0
C2402 C 0.81621 0.7272 0.88056 0.0
C2403 C 0.81505 0.70879 0.88017 0.0
C2404 C 0.81522 0.73612 0.86245 0.0
C2405 C 0.81697 0.75569 0.90053 0.0
C2406 C 0.80257 0.72845 0.84708 0.0
C2407 C 0.80135 0.73655 0.83042 0.0
C2408 C 0.81258 0.75286 0.82825 0.0
C2409 C 0.82544 0.76044 0.84344 0.0
C2410 C 0.82695 0.75212 0.85999 0.0
H2411 H 0.81162 0.75922 0.91354 0.0
H2412 H 0.8312 0.76337 0.90106 0.0
H2413 H 0.80807 0.75966 0.88909 0.0
H2414 H 0.79326 0.71618 0.84799 0.0
H2415 H 0.79118 0.73013 0.81929 0.0
H2416 H 0.85368 0.17067 1.00413 0.0
H2417 H 0.8804 0.16 0.99337 0.0
H2418 H 0.87262 0.11754 0.02819 0.0
H2419 H 0.84616 0.12798 0.03905 0.0
H2420 H 0.91463 0.15079 0.01614 0.0
H2421 H 0.8689 0.09551 0.97283 0.0
H2422 H 0.86104 0.11526 0.98033 0.0
H2423 H 0.86328 0.09865 0.99581 0.0
C2424 C 0.85781 0.1592 0.00966 0.0
C2425 C 0.84766 0.1501 0.02233 0.0
C2426 C 0.87305 0.15313 1.00349 0.0
C2427 C 0.87824 0.13788 0.00984 0.0
C2428 C 0.86864 0.12924 0.023 0.0
H2429 H 0.96465 0.08128 0.01719 0.0
H2430 H 0.94309 0.10138 0.02035 0.0
C2431 C 0.85353 0.13526 0.0292 0.0
C2432 C 0.89317 0.13031 1.00237 0.0
H2433 H 0.90061 0.09315 0.97931 0.0
C2434 C 0.91164 0.13836 0.0078 0.0
C2435 C 0.88916 0.11423 0.99129 0.0
C2436 C 0.86952 0.10543 0.98455 0.0
C2437 C 0.92624 0.1301 1.00335 0.0
C2438 C 0.92214 0.11337 0.99344 0.0
C2439 C 0.90371 0.10592 0.98701 0.0
C2440 C 0.93645 0.10253 0.99123 0.0
C2441 C 0.94589 0.13912 0.00967 0.0
C2442 C 0.93968 0.09629 0.97378 0.0
C2443 C 0.95192 0.08462 0.97191 0.0
C2444 C 0.96089 0.0788 0.98748 0.0
C2445 C 0.95774 0.08527 0.00492 0.0
C2446 C 0.94564 0.09699 0.00676 0.0
H2447 H 0.947 0.15358 0.01184 0.0
H2448 H 0.95057 0.13434 0.0229 0.0
H2449 H 0.95536 0.13619 0.99963 0.0
H2450 H 0.93251 0.10025 0.96163 0.0
H2451 H 0.95392 0.07974 0.95831 0.0
H2452 H 0.35214 0.42212 0.04554 0.0
H2453 H 0.38517 0.43549 0.04639 0.0
H2454 H 0.36993 0.47717 0.01591 0.0
H2455 H 0.33744 0.46424 0.01516 0.0
H2456 H 0.40792 0.44334 0.01836 0.0
H2457 H 0.4042 0.5052 0.05818 0.0
H2458 H 0.38595 0.48616 0.0563 0.0
H2459 H 0.38748 0.50063 0.03822 0.0
C2460 C 0.3558 0.43423 0.03919 0.0
C2461 C 0.34177 0.44202 0.0304 0.0
C2462 C 0.3748 0.44187 0.03959 0.0
C2463 C 0.38036 0.45764 0.03145 0.0
C2464 C 0.36634 0.4653 0.02268 0.0
H2465 H 0.49056 0.50175 0.99877 0.0
H2466 H 0.4584 0.48688 0.99936 0.0
C2467 C 0.34754 0.45771 0.0222 0.0
C2468 C 0.40058 0.46616 0.03172 0.0
H2469 H 0.43111 0.50517 0.04301 0.0
C2470 C 0.41296 0.45683 0.02387 0.0
C2471 C 0.40759 0.48378 0.039 0.0
C2472 C 0.39568 0.49449 0.04856 0.0
C2473 C 0.43167 0.46463 0.02273 0.0
C2474 C 0.43846 0.48248 0.02937 0.0
C2475 C 0.42617 0.49163 0.03762 0.0
C2476 C 0.4583 0.49175 0.02861 0.0
C2477 C 0.44409 0.45346 0.0147 0.0
C2478 C 0.46924 0.50014 0.04462 0.0
C2479 C 0.48763 0.50881 0.04427 0.0
C2480 C 0.4959 0.50963 0.02785 0.0
C2481 C 0.48488 0.50149 0.01171 0.0
C2482 C 0.46641 0.49275 0.01209 0.0
H2483 H 0.43862 0.43923 0.01508 0.0
H2484 H 0.44497 0.45606 1.00018 0.0
H2485 H 0.45828 0.45658 0.02214 0.0
H2486 H 0.46361 0.4998 0.0576 0.0
H2487 H 0.49543 0.51481 0.05706 0.0
H2488 H 0.3366 0.53696 0.73285 0.0
H2489 H 0.31854 0.55697 0.74646 0.0
H2490 H 0.36901 0.59169 0.76954 0.0
H2491 H 0.38713 0.57178 0.75621 0.0
H2492 H 0.34074 0.58591 0.79379 0.0
H2493 H 0.31528 0.60468 0.7254 0.0
H2494 H 0.31124 0.58166 0.72875 0.0
H2495 H 0.33447 0.59329 0.72866 0.0
C2496 C 0.34383 0.5488 0.74094 0.0
C2497 C 0.36327 0.55291 0.74332 0.0
C2498 C 0.33351 0.5602 0.74866 0.0
C2499 C 0.34249 0.57585 0.7588 0.0
C2500 C 0.36186 0.57966 0.76173 0.0
H2501 H 0.32922 0.67459 0.80421 0.0
H2502 H 0.33787 0.64611 0.79755 0.0
C2503 C 0.37218 0.56831 0.75404 0.0
C2504 C 0.33193 0.58887 0.76559 0.0
H2505 H 0.30738 0.61966 0.75115 0.0
C2506 C 0.33322 0.59316 0.78451 0.0
C2507 C 0.32211 0.59821 0.7534 0.0
C2508 C 0.32072 0.59438 0.73291 0.0
C2509 C 0.32536 0.60696 0.79159 0.0
C2510 C 0.31633 0.61685 0.77935 0.0
C2511 C 0.31431 0.61202 0.76048 0.0
C2512 C 0.31043 0.63327 0.78554 0.0
C2513 C 0.32704 0.61098 0.81205 0.0
C2514 C 0.29216 0.63551 0.78089 0.0
C2515 C 0.28725 0.65185 0.78444 0.0
C2516 C 0.30057 0.66625 0.79257 0.0
C2517 C 0.3187 0.66378 0.79778 0.0
C2518 C 0.3236 0.64745 0.79422 0.0
H2519 H 0.32852 0.59914 0.81932 0.0
H2520 H 0.33958 0.62113 0.81648 0.0
H2521 H 0.31483 0.61606 0.81622 0.0
H2522 H 0.28186 0.62476 0.77401 0.0
H2523 H 0.27323 0.65339 0.78006 0.0
H2524 H 0.25112 0.62306 0.50765 0.0
H2525 H 0.22059 0.60439 0.50461 0.0
H2526 H 0.19542 0.65028 0.50956 0.0
H2527 H 0.22609 0.66912 0.51305 0.0
H2528 H 0.18275 0.62637 0.53193 0.0
H2529 H 0.17962 0.5933 0.46262 0.0
H2530 H 0.20012 0.5912 0.47693 0.0
H2531 H 0.19664 0.6126 0.47099 0.0
C2532 C 0.23909 0.62921 0.50791 0.0
C2533 C 0.241 0.64757 0.51061 0.0
C2534 C 0.22162 0.61851 0.50599 0.0
C2535 C 0.20569 0.62594 0.50649 0.0
C2536 C 0.20754 0.64429 0.50898 0.0
H2537 H 0.09308 0.56422 0.48996 0.0
H2538 H 0.12168 0.58387 0.4854 0.0
C2539 C 0.22505 0.65502 0.511 0.0
C2540 C 0.18733 0.61447 0.50599 0.0
H2541 H 0.15831 0.57928 0.4821 0.0
C2542 C 0.17731 0.61623 0.52091 0.0
C2543 C 0.1801 0.60139 0.49149 0.0
C2544 C 0.1896 0.59962 0.47452 0.0
C2545 C 0.16064 0.6048 0.52212 0.0
C2546 C 0.15405 0.59099 0.50823 0.0
C2547 C 0.1636 0.58968 0.49289 0.0
C2548 C 0.13743 0.57765 0.50971 0.0
C2549 C 0.15025 0.60761 0.5383 0.0
C2550 C 0.1371 0.56712 0.52443 0.0
C2551 C 0.12082 0.55595 0.52711 0.0
C2552 C 0.1046 0.55497 0.51501 0.0
C2553 C 0.10531 0.56467 0.49956 0.0
C2554 C 0.12162 0.57595 0.49695 0.0
H2555 H 0.15418 0.6213 0.54472 0.0
H2556 H 0.13506 0.60468 0.53422 0.0
H2557 H 0.15362 0.59869 0.54878 0.0
H2558 H 0.14931 0.56795 0.53417 0.0
H2559 H 0.12083 0.5485 0.53902 0.0
H2560 H 0.64339 0.93673 0.80015 0.0
H2561 H 0.66792 0.92298 0.81477 0.0
H2562 H 0.70735 0.9524 0.78399 0.0
H2563 H 0.68318 0.96632 0.76965 0.0
H2564 H 0.68785 0.90233 0.79717 0.0
H2565 H 0.7357 0.95925 0.83461 0.0
H2566 H 0.71213 0.96023 0.82613 0.0
H2567 H 0.73 0.9631 0.81119 0.0
C2568 C 0.65735 0.94044 0.79673 0.0
C2569 C 0.66135 0.9526 0.78375 0.0
C2570 C 0.67134 0.9326 0.8051 0.0
C2571 C 0.68953 0.93693 0.80074 0.0
C2572 C 0.69354 0.94924 0.78797 0.0
H2573 H 0.7873 0.89732 0.79575 0.0
H2574 H 0.76238 0.91425 0.79632 0.0
C2575 C 0.67964 0.95706 0.77963 0.0
C2576 C 0.70405 0.92743 0.80798 0.0
H2577 H 0.74924 0.9339 0.82657 0.0
C2578 C 0.70113 0.90915 0.80401 0.0
C2579 C 0.72134 0.93637 0.81693 0.0
C2580 C 0.72491 0.9558 0.82263 0.0
C2581 C 0.71546 0.89975 0.80761 0.0
C2582 C 0.73307 0.90887 0.81554 0.0
C2583 C 0.73573 0.92699 0.8204 0.0
C2584 C 0.74924 0.90007 0.81715 0.0
C2585 C 0.71199 0.8803 0.80191 0.0
C2586 C 0.75035 0.88688 0.82909 0.0
C2587 C 0.76455 0.87717 0.82877 0.0
C2588 C 0.77781 0.88051 0.81647 0.0
C2589 C 0.77715 0.89433 0.80521 0.0
C2590 C 0.76301 0.90406 0.80559 0.0
H2591 H 0.69832 0.87571 0.79365 0.0
H2592 H 0.72295 0.87702 0.79381 0.0
H2593 H 0.71239 0.87294 0.81429 0.0
H2594 H 0.7399 0.88373 0.8382 0.0
H2595 H 0.76462 0.86652 0.83751 0.0
H2596 H 0.70994 0.9048 0.53028 0.0
H2597 H 0.68291 0.91927 0.52899 0.0
H2598 H 0.71907 0.96976 0.53781 0.0
H2599 H 0.74604 0.95535 0.53866 0.0
H2600 H 0.66846 0.93921 0.55166 0.0
H2601 H 0.68637 0.98054 0.49578 0.0
H2602 H 0.69882 0.96341 0.50194 0.0
H2603 H 0.70421 0.98462 0.51478 0.0
C2604 C 0.71223 0.91901 0.53185 0.0
C2605 C 0.73051 0.92874 0.53444 0.0
C2606 C 0.69658 0.92738 0.53114 0.0
C2607 C 0.69844 0.94588 0.53287 0.0
C2608 C 0.71675 0.95558 0.5358 0.0
H2609 H 0.62205 0.02233 0.53534 0.0
H2610 H 0.64841 1.00711 0.53608 0.0
C2611 C 0.73238 0.94723 0.53647 0.0
C2612 C 0.68142 0.95488 0.53196 0.0
H2613 H 0.66186 0.98718 0.51185 0.0
C2614 C 0.66709 0.9496 0.5428 0.0
C2615 C 0.67906 0.9686 0.52051 0.0
C2616 C 0.69282 0.97452 0.50746 0.0
C2617 C 0.65121 0.95771 0.5429 0.0
C2618 C 0.64893 0.97152 0.53156 0.0
C2619 C 0.66322 0.97675 0.52067 0.0
C2620 C 0.63218 0.98085 0.53097 0.0
C2621 C 0.63728 0.9517 0.55576 0.0
C2622 C 0.6137 0.9716 0.52753 0.0
C2623 C 0.59836 0.98041 0.52707 0.0
C2624 C 0.60078 0.99891 0.52993 0.0
C2625 C 0.61928 1.00815 0.5331 0.0
C2626 C 0.63457 0.99935 0.53351 0.0
H2627 H 0.6434 0.94509 0.56715 0.0
H2628 H 0.63167 0.96289 0.56168 0.0
H2629 H 0.62562 0.94211 0.54811 0.0
H2630 H 0.61102 0.95744 0.52498 0.0
H2631 H 0.58454 0.97263 0.52445 0.0
H2632 H 0.40248 0.44605 0.6968 0.0
H2633 H 0.38822 0.4165 0.70294 0.0
H2634 H 0.34116 0.43635 0.71988 0.0
H2635 H 0.35542 0.46598 0.71412 0.0
H2636 H 0.35731 0.41861 0.74581 0.0
H2637 H 0.345 0.3793 0.67861 0.0
H2638 H 0.36817 0.39147 0.68402 0.0
H2639 H 0.34921 0.40302 0.68073 0.0
C2640 C 0.38889 0.44408 0.70141 0.0
C2641 C 0.38016 0.4584 0.70514 0.0
C2642 C 0.38072 0.42715 0.70483 0.0
C2643 C 0.3636 0.42424 0.71178 0.0
C2644 C 0.35439 0.43834 0.71451 0.0
H2645 H 0.29889 0.32603 0.73583 0.0
H2646 H 0.31084 0.35331 0.72293 0.0
C2647 C 0.36257 0.45526 0.71121 0.0
C2648 C 0.35635 0.40704 0.71827 0.0
H2649 H 0.34282 0.36328 0.70508 0.0
C2650 C 0.35403 0.40652 0.73688 0.0
C2651 C 0.35204 0.39134 0.70656 0.0
C2652 C 0.35355 0.39126 0.68633 0.0
C2653 C 0.34769 0.39069 0.74418 0.0
C2654 C 0.34392 0.37491 0.73261 0.0
C2655 C 0.34596 0.37542 0.71393 0.0
C2656 C 0.33733 0.35785 0.73965 0.0
C2657 C 0.34481 0.39102 0.76415 0.0
C2658 C 0.34845 0.35123 0.75309 0.0
C2659 C 0.34165 0.33568 0.76059 0.0
C2660 C 0.32365 0.32644 0.75468 0.0
C2661 C 0.31278 0.33286 0.74079 0.0
C2662 C 0.31959 0.34841 0.73333 0.0
H2663 H 0.34407 0.40441 0.76996 0.0
H2664 H 0.33191 0.38195 0.76614 0.0
H2665 H 0.35659 0.38668 0.77199 0.0
H2666 H 0.36231 0.35822 0.75791 0.0
H2667 H 0.35045 0.33102 0.77112 0.0
H2668 H 0.15625 0.5174 0.2341 0.0
H2669 H 0.17309 0.54719 0.23266 0.0
H2670 H 0.12272 0.56298 0.21092 0.0
H2671 H 0.10562 0.53317 0.21237 0.0
H2672 H 0.17651 0.56988 0.20303 0.0
H2673 H 0.14125 0.59495 0.25964 0.0
H2674 H 0.14099 0.57184 0.25451 0.0
H2675 H 0.12658 0.58302 0.24018 0.0
C2676 C 0.14875 0.52711 0.22875 0.0
C2677 C 0.12953 0.52294 0.22354 0.0
C2678 C 0.15842 0.54412 0.22793 0.0
C2679 C 0.14906 0.55729 0.22198 0.0
C2680 C 0.1301 0.553 0.2158 0.0
H2681 H 0.2056 0.66377 0.20872 0.0
H2682 H 0.18434 0.63545 0.20404 0.0
C2683 C 0.12039 0.53594 0.21653 0.0
C2684 C 0.15907 0.57565 0.22334 0.0
H2685 H 0.16349 0.61537 0.24784 0.0
C2686 C 0.17358 0.5799 0.21267 0.0
C2687 C 0.15531 0.58855 0.23615 0.0
C2688 C 0.14029 0.58443 0.24841 0.0
C2689 C 0.18456 0.59675 0.21458 0.0
C2690 C 0.1808 0.60965 0.22739 0.0
C2691 C 0.1662 0.60545 0.23795 0.0
C2692 C 0.19253 0.62731 0.23066 0.0
C2693 C 0.20051 0.60049 0.20334 0.0
C2694 C 0.20367 0.63229 0.24742 0.0
C2695 C 0.21588 0.64842 0.25014 0.0
C2696 C 0.21707 0.65985 0.23613 0.0
C2697 C 0.20526 0.6551 0.21964 0.0
C2698 C 0.1931 0.63896 0.21694 0.0
H2699 H 0.20362 0.58828 0.19665 0.0
H2700 H 0.197 0.60899 0.1925 0.0
H2701 H 0.21316 0.60757 0.21202 0.0
H2702 H 0.20336 0.62345 0.25819 0.0
H2703 H 0.22488 0.6516 0.26292 0.0
H2704 H 0.49566 0.66188 0.43411 0.0
H2705 H 0.49842 0.6431 0.45906 0.0
H2706 H 0.51771 0.68883 0.49722 0.0
H2707 H 0.51502 0.70777 0.47227 0.0
H2708 H 0.54281 0.66761 0.49567 0.0
H2709 H 0.47561 0.62869 0.50507 0.0
H2710 H 0.47858 0.62574 0.48134 0.0
H2711 H 0.4773 0.64725 0.49149 0.0
C2712 C 0.49989 0.66798 0.4479 0.0
C2713 C 0.50541 0.68628 0.45118 0.0
C2714 C 0.50132 0.65722 0.4622 0.0
C2715 C 0.50825 0.66457 0.48001 0.0
C2716 C 0.51225 0.68291 0.48359 0.0
H2717 H 0.54117 0.58464 0.55034 0.0
H2718 H 0.52994 0.61182 0.54382 0.0
C2719 C 0.51072 0.6937 0.46929 0.0
C2720 C 0.51482 0.65319 0.49361 0.0
H2721 H 0.50256 0.6135 0.51049 0.0
C2722 C 0.5339 0.65606 0.49939 0.0
C2723 C 0.50323 0.63818 0.49861 0.0
C2724 C 0.48252 0.63494 0.49388 0.0
C2725 C 0.5419 0.64349 0.50848 0.0
C2726 C 0.53054 0.6277 0.51179 0.0
C2727 C 0.51128 0.62554 0.50764 0.0
C2728 C 0.53864 0.61236 0.51675 0.0
C2729 C 0.56259 0.6467 0.51348 0.0
C2730 C 0.54737 0.6039 0.50374 0.0
C2731 C 0.55368 0.58847 0.50735 0.0
C2732 C 0.55149 0.58128 0.52412 0.0
C2733 C 0.54335 0.59011 0.53745 0.0
C2734 C 0.53678 0.6055 0.5337 0.0
H2735 H 0.56865 0.66093 0.51466 0.0
H2736 H 0.56626 0.64121 0.52661 0.0
H2737 H 0.56893 0.64008 0.50264 0.0
H2738 H 0.54872 0.60894 0.4905 0.0
H2739 H 0.55973 0.58183 0.49679 0.0
H2740 H 0.64396 0.368 0.70972 0.0
H2741 H 0.67167 0.36419 0.72901 0.0
H2742 H 0.69174 0.34115 0.68198 0.0
H2743 H 0.66447 0.34565 0.66256 0.0
H2744 H 0.67765 0.33296 0.73489 0.0
H2745 H 0.73924 0.36825 0.70786 0.0
H2746 H 0.71634 0.37255 0.70142 0.0
H2747 H 0.72417 0.35447 0.68998 0.0
C2748 C 0.65467 0.36279 0.7034 0.0
C2749 C 0.6521 0.3571 0.68468 0.0
C2750 C 0.67045 0.36053 0.71444 0.0
C2751 C 0.68382 0.35239 0.70698 0.0
C2752 C 0.68186 0.34782 0.68802 0.0
H2753 H 0.74405 0.27953 0.75621 0.0
H2754 H 0.72089 0.29494 0.74207 0.0
C2755 C 0.66622 0.35036 0.67691 0.0
C2756 C 0.69811 0.34623 0.71925 0.0
H2757 H 0.74388 0.34368 0.72524 0.0
C2758 C 0.69219 0.33559 0.73298 0.0
C2759 C 0.71711 0.34975 0.71693 0.0
C2760 C 0.72459 0.36204 0.70337 0.0
C2761 C 0.70459 0.32782 0.74393 0.0
C2762 C 0.72334 0.33032 0.74071 0.0
C2763 C 0.72943 0.34155 0.72753 0.0
C2764 C 0.73676 0.321 0.75042 0.0
C2765 C 0.69743 0.31702 0.75882 0.0
C2766 C 0.75346 0.33049 0.75964 0.0
C2767 C 0.76681 0.32171 0.76749 0.0
C2768 C 0.7637 0.30325 0.76632 0.0
C2769 C 0.74675 0.29375 0.75755 0.0
C2770 C 0.73348 0.30256 0.74951 0.0
H2771 H 0.68494 0.32121 0.76349 0.0
H2772 H 0.69345 0.30304 0.75339 0.0
H2773 H 0.7081 0.31805 0.77081 0.0
H2774 H 0.75629 0.34472 0.76048 0.0
H2775 H 0.77973 0.3294 0.77419 0.0
H2776 H 0.04467 0.28906 0.88461 0.0
H2777 H 0.04432 0.3198 0.89413 0.0
H2778 H 1.00927 0.30341 0.93534 0.0
H2779 H 1.00946 0.27268 0.92597 0.0
H2780 H 0.99804 0.32998 0.91208 0.0
H2781 H 0.07144 0.34641 0.94371 0.0
H2782 H 0.06699 0.33582 0.92082 0.0
H2783 H 0.05899 0.32405 0.93943 0.0
C2784 C 0.03685 0.29197 0.89568 0.0
C2785 C 0.02715 0.2784 0.90458 0.0
C2786 C 0.03674 0.30954 0.90113 0.0
C2787 C 0.02693 0.3138 0.91554 0.0
C2788 C 0.01698 0.30033 0.92423 0.0
H2789 H 1.00243 0.40204 0.9771 0.0
H2790 H 1.00383 0.37358 0.96176 0.0
C2791 C 0.01714 0.28279 0.91886 0.0
C2792 C 0.02694 0.33231 0.92166 0.0
H2793 H 0.05402 0.36897 0.94476 0.0
C2794 C 1.01029 0.33857 0.91913 0.0
C2795 C 0.043 0.34344 0.9307 0.0
C2796 C 0.06114 0.33716 0.93398 0.0
C2797 C 1.00918 0.35568 0.92565 0.0
C2798 C 0.02506 0.36662 0.93533 0.0
C2799 C 0.04187 0.36053 0.93736 0.0
C2800 C 0.02424 0.38401 0.9444 0.0
C2801 C 0.99101 0.36187 0.9221 0.0
C2802 C 0.0357 0.39926 0.94016 0.0
C2803 C 0.03501 0.41559 0.94902 0.0
C2804 C 0.02285 0.41689 0.96227 0.0
C2805 C 1.01162 0.40152 0.96665 0.0
C2806 C 1.01238 0.38525 0.95788 0.0
H2807 H 0.9823 0.35439 0.90993 0.0
H2808 H 0.98323 0.35977 0.93408 0.0
H2809 H 0.9932 0.37607 0.91994 0.0
H2810 H 0.04507 0.39853 0.9299 0.0
H2811 H 0.04379 0.42722 0.94534 0.0
H2812 H 0.03883 0.84149 0.17485 0.0
H2813 H 1.01016 0.83909 0.1891 0.0
H2814 H 0.0395 0.83066 0.24044 0.0
H2815 H 0.0682 0.83313 0.22645 0.0
H2816 H 0.99491 0.80854 0.20511 0.0
H2817 H 1.00837 0.86734 0.25504 0.0
H2818 H 0.02142 0.86552 0.23584 0.0
H2819 H 0.02654 0.85471 0.25605 0.0
C2820 C 0.03925 0.83941 0.18925 0.0
C2821 C 0.05578 0.83743 0.1995 0.0
C2822 C 0.02287 0.83805 0.19735 0.0
C2823 C 0.02282 0.83491 0.21584 0.0
C2824 C 0.03936 0.83343 0.22623 0.0
H2825 H 0.94437 0.80355 0.29056 0.0
H2826 H 0.9717 0.81336 0.27526 0.0
C2827 C 0.05572 0.83471 0.21816 0.0
C2828 C 1.00522 0.83145 0.22388 0.0
H2829 H 0.98295 0.84478 0.259 0.0
C2830 C 0.99213 0.81658 0.21674 0.0
C2831 C 1.00182 0.84192 0.2391 0.0
C2832 C 0.0152 0.85836 0.24689 0.0
C2833 C 0.97595 0.8115 0.22485 0.0
C2834 C 0.97265 0.82183 0.24026 0.0
C2835 C 0.98557 0.83691 0.24719 0.0
C2836 C 0.95611 0.81682 0.24969 0.0
C2837 C 0.96289 0.79476 0.21729 0.0
C2838 C 0.93836 0.81584 0.24044 0.0
C2839 C 0.92276 0.81004 0.24904 0.0
C2840 C 0.92464 0.8053 0.26712 0.0
C2841 C 0.94247 0.80683 0.27653 0.0
C2842 C 0.95808 0.81257 0.26788 0.0
H2843 H 0.96958 0.78629 0.20838 0.0
H2844 H 0.95775 0.78713 0.22852 0.0
H2845 H 0.9508 0.79808 0.20896 0.0
H2846 H 0.93659 0.81934 0.22647 0.0
H2847 H 0.90923 0.80887 0.24135 0.0
H2848 H 0.54566 0.33235 0.08921 0.0
H2849 H 0.54784 0.36098 0.07628 0.0
H2850 H 0.55069 0.38653 0.13036 0.0
H2851 H 0.54882 0.35809 0.14326 0.0
H2852 H 0.52783 0.38613 0.07362 0.0
H2853 H 0.59277 0.41884 0.11497 0.0
H2854 H 0.58434 0.39557 0.11472 0.0
H2855 H 0.57524 0.41094 0.12899 0.0
C2856 C 0.54686 0.34403 0.09846 0.0
C2857 C 0.54717 0.34242 0.11752 0.0
C2858 C 0.54809 0.36065 0.09095 0.0
C2859 C 0.54991 0.37665 0.10207 0.0
C2860 C 0.54993 0.37496 0.1211 0.0
H2861 H 0.55869 0.4911 0.08285 0.0
H2862 H 0.55683 0.46246 0.0956 0.0
C2863 C 0.54867 0.35837 0.12859 0.0
C2864 C 0.55136 0.39475 0.09387 0.0
H2865 H 0.57623 0.43732 0.09809 0.0
C2866 C 0.53857 0.39719 0.07901 0.0
C2867 C 0.56517 0.4098 0.10051 0.0
C2868 C 0.58027 0.40867 0.11554 0.0
C2869 C 0.53886 0.41366 0.07121 0.0
C2870 C 0.55269 0.42871 0.07782 0.0
C2871 C 0.56549 0.42626 0.09268 0.0
C2872 C 0.55411 0.44685 0.06969 0.0
C2873 C 0.52367 0.4148 0.05627 0.0
C2874 C 0.55366 0.44861 0.05063 0.0
C2875 C 0.55472 0.46522 0.04322 0.0
C2876 C 0.55651 0.48115 0.0544 0.0
C2877 C 0.55735 0.47947 0.07349 0.0
C2878 C 0.55627 0.46282 0.08091 0.0
H2879 H 0.51117 0.40466 0.05694 0.0
H2880 H 0.51964 0.42791 0.0571 0.0
H2881 H 0.52859 0.41246 0.04277 0.0
H2882 H 0.55266 0.43706 0.04128 0.0
H2883 H 0.55409 0.46551 0.02852 0.0
H2884 H 1.01117 0.29887 0.35561 0.0
H2885 H 0.97925 0.29664 0.34272 0.0
H2886 H 0.96212 0.25739 0.37913 0.0
H2887 H 0.99456 0.2599 0.39263 0.0
H2888 H 0.95507 0.27214 0.32378 0.0
H2889 H 0.92451 0.28734 0.38704 0.0
H2890 H 0.94917 0.29005 0.38652 0.0
H2891 H 0.93561 0.26859 0.38772 0.0
C2892 C 1.00077 0.28972 0.3611 0.0
C2893 C 1.0059 0.27961 0.37542 0.0
C2894 C 0.98224 0.28844 0.35355 0.0
C2895 C 0.96772 0.27704 0.35987 0.0
C2896 C 0.97269 0.2667 0.37408 0.0
H2897 H 0.84631 0.25856 0.3219 0.0
H2898 H 0.87711 0.25667 0.33688 0.0
C2899 C 0.99143 0.26801 0.38177 0.0
C2900 C 0.94781 0.27601 0.35107 0.0
H2901 H 0.9038 0.28003 0.35983 0.0
C2902 C 0.94395 0.27389 0.3318 0.0
C2903 C 0.93285 0.27819 0.36116 0.0
C2904 C 0.93569 0.28133 0.38173 0.0
C2905 C 0.92611 0.27392 0.32256 0.0
C2906 C 0.91126 0.27643 0.33261 0.0
C2907 C 0.91494 0.27816 0.35189 0.0
C2908 C 0.89208 0.27763 0.32337 0.0
C2909 C 0.92332 0.27093 0.30197 0.0
C2910 C 0.88966 0.29014 0.31073 0.0
C2911 C 0.87194 0.29127 0.3021 0.0
C2912 C 0.8558 0.27995 0.30574 0.0
C2913 C 0.85821 0.26749 0.3185 0.0
C2914 C 0.87597 0.26643 0.32721 0.0
H2915 H 0.93392 0.26401 0.29675 0.0
H2916 H 0.9094 0.26312 0.29699 0.0
H2917 H 0.92459 0.28381 0.29608 0.0
H2918 H 0.90154 0.29929 0.30763 0.0
H2919 H 0.87093 0.30118 0.29258 0.0
H2920 H 0.04321 0.73413 0.59582 0.0
H2921 H 0.04365 0.70506 0.57997 0.0
H2922 H 0.04654 0.68277 0.63179 0.0
H2923 H 0.04577 0.71104 0.64737 0.0
H2924 H 0.06792 0.68184 0.5802 0.0
H2925 H 1.0057 0.64661 0.60593 0.0
H2926 H 1.01186 0.67023 0.60852 0.0
H2927 H 0.02246 0.65723 0.6244 0.0
C2928 C 0.04372 0.72303 0.60387 0.0
C2929 C 0.04425 0.72547 0.62315 0.0
C2930 C 0.04406 0.7062 0.59472 0.0
C2931 C 0.04471 0.69101 0.60437 0.0
C2932 C 0.04544 0.69364 0.62355 0.0
H2933 H 0.05063 0.57725 0.58292 0.0
H2934 H 0.04921 0.60693 0.59601 0.0
C2935 C 0.04514 0.71023 0.6326 0.0
C2936 C 0.04504 0.67262 0.59493 0.0
H2937 H 0.02522 0.62864 0.59342 0.0
C2938 C 0.05837 0.67031 0.58302 0.0
C2939 C 0.03285 0.65702 0.59831 0.0
C2940 C 0.0173 0.65788 0.60983 0.0
C2941 C 0.06021 0.65342 0.57515 0.0
C2942 C 0.04814 0.6378 0.57871 0.0
C2943 C 0.03471 0.64016 0.59049 0.0
C2944 C 0.04913 0.61912 0.57044 0.0
C2945 C 0.07573 0.65252 0.56361 0.0
C2946 C 0.04928 0.61515 0.55145 0.0
C2947 C 0.0501 0.598 0.54387 0.0
C2948 C 0.05068 0.58373 0.55481 0.0
C2949 C 0.05029 0.58759 0.5738 0.0
C2950 C 0.04944 0.6048 0.58139 0.0
H2951 H 0.08704 0.66414 0.56692 0.0
H2952 H 0.08163 0.64049 0.56553 0.0
H2953 H 0.07034 0.65235 0.54897 0.0
H2954 H 0.04848 0.62533 0.54223 0.0
H2955 H 0.05019 0.59593 0.52923 0.0
H2956 H 0.63905 0.77942 0.9075 0.0
H2957 H 0.66648 0.7809 0.89107 0.0
H2958 H 0.63172 0.77606 0.83972 0.0
H2959 H 0.60436 0.77476 0.85609 0.0
H2960 H 0.67881 0.75925 0.86756 0.0
H2961 H 0.66955 0.817 0.83027 0.0
H2962 H 0.65611 0.81035 0.8485 0.0
H2963 H 0.64982 0.79954 0.82577 0.0
C2964 C 0.63715 0.77875 0.8927 0.0
C2965 C 0.61913 0.77706 0.88335 0.0
C2966 C 0.65303 0.77957 0.88319 0.0
C2967 C 0.65173 0.77896 0.86386 0.0
C2968 C 0.63367 0.77708 0.85452 0.0
H2969 H 0.73967 0.75326 0.79787 0.0
H2970 H 0.71255 0.75304 0.81425 0.0
C2971 C 0.6178 0.77618 0.86401 0.0
C2972 C 0.66902 0.77989 0.85363 0.0
H2973 H 0.69229 0.80123 0.82086 0.0
C2974 C 0.68163 0.7685 0.85738 0.0
C2975 C 0.67345 0.79205 0.84036 0.0
C2976 C 0.66165 0.80556 0.83608 0.0
C2977 C 0.69776 0.76861 0.84826 0.0
C2978 C 0.70182 0.78032 0.83451 0.0
C2979 C 0.68947 0.79201 0.83107 0.0
C2980 C 0.71869 0.78065 0.82375 0.0
C2981 C 0.71059 0.75633 0.85391 0.0
C2982 C 0.73151 0.7963 0.82262 0.0
C2983 C 0.74728 0.79649 0.81299 0.0
C2984 C 0.75085 0.78106 0.80381 0.0
C2985 C 0.73778 0.76551 0.80465 0.0
C2986 C 0.72212 0.76532 0.8143 0.0
H2987 H 0.70895 0.7524 0.86794 0.0
H2988 H 0.70726 0.74422 0.84439 0.0
H2989 H 0.72527 0.76244 0.85347 0.0
H2990 H 0.72953 0.80847 0.8295 0.0
H2991 H 0.75677 0.80881 0.81287 0.0
H2992 H 0.38794 0.52863 0.64877 0.0
H2993 H 0.40138 0.53304 0.61998 0.0
H2994 H 0.4547 0.55373 0.65046 0.0
H2995 H 0.44145 0.54963 0.67905 0.0
H2996 H 0.44698 0.57104 0.61847 0.0
H2997 H 0.4347 0.49801 0.60584 0.0
H2998 H 0.415 0.50822 0.60842 0.0
H2999 H 0.43217 0.50871 0.62764 0.0
C3000 C 0.40243 0.53445 0.64929 0.0
C3001 C 0.41375 0.53849 0.66612 0.0
C3002 C 0.41007 0.53693 0.63287 0.0
C3003 C 0.42906 0.54345 0.63316 0.0
C3004 C 0.44001 0.54866 0.64997 0.0
H3005 H 0.51949 0.52572 0.58345 0.0
H3006 H 0.49392 0.5291 0.60095 0.0
C3007 C 0.43244 0.54619 0.66629 0.0
C3008 C 0.43834 0.54294 0.61642 0.0
H3009 H 0.45476 0.51425 0.58823 0.0
C3010 C 0.44834 0.55868 0.61147 0.0
C3011 C 0.44015 0.52673 0.60751 0.0
C3012 C 0.43005 0.50941 0.6126 0.0
C3013 C 0.46102 0.55855 0.5986 0.0
C3014 C 0.46357 0.54229 0.59053 0.0
C3015 C 0.45269 0.52666 0.59456 0.0
C3016 C 0.47906 0.54096 0.5798 0.0
C3017 C 0.47253 0.57564 0.59467 0.0
C3018 C 0.47911 0.54661 0.56217 0.0
C3019 C 0.49373 0.54471 0.5521 0.0
C3020 C 0.50847 0.5371 0.55956 0.0
C3021 C 0.50839 0.53164 0.57732 0.0
C3022 C 0.49378 0.53352 0.58732 0.0
H3023 H 0.46986 0.58704 0.60322 0.0
H3024 H 0.48747 0.57504 0.59713 0.0
H3025 H 0.46938 0.57784 0.58005 0.0
H3026 H 0.46775 0.55225 0.55613 0.0
H3027 H 0.49338 0.54905 0.53844 0.0
H3028 H 0.79681 0.23665 0.98505 0.0
H3029 H 0.79439 0.25024 0.95591 0.0
H3030 H 0.79743 0.20106 0.92673 0.0
H3031 H 0.79993 0.18747 0.95553 0.0
H3032 H 0.82025 0.25123 0.92721 0.0
H3033 H 0.74896 0.21585 0.90286 0.0
H3034 H 0.7584 0.21842 0.92669 0.0
H3035 H 0.76473 0.20224 0.91124 0.0
C3036 C 0.79704 0.22878 0.97243 0.0
C3037 C 0.7985 0.21097 0.97263 0.0
C3038 C 0.79564 0.23655 0.95581 0.0
C3039 C 0.79545 0.22656 0.93918 0.0
C3040 C 0.79726 0.20892 0.9394 0.0
H3041 H 0.7901 0.23435 0.82372 0.0
H3042 H 0.78892 0.22592 0.85494 0.0
C3043 C 0.79878 0.2012 0.95591 0.0
C3044 C 0.79356 0.23442 0.92145 0.0
H3045 H 0.7658 0.23044 0.88078 0.0
C3046 C 0.80826 0.24692 0.91712 0.0
C3047 C 0.77792 0.22867 0.90832 0.0
C3048 C 0.7615 0.21566 0.91249 0.0
C3049 C 0.8081 0.25323 0.89968 0.0
C3050 C 0.7926 0.24719 0.88638 0.0
C3051 C 0.77767 0.23507 0.89095 0.0
C3052 C 0.79206 0.25249 0.86735 0.0
C3053 C 0.82492 0.26567 0.8954 0.0
C3054 C 0.79365 0.27021 0.86382 0.0
C3055 C 0.79442 0.27511 0.84595 0.0
C3056 C 0.79341 0.26235 0.8312 0.0
C3057 C 0.79094 0.24455 0.8347 0.0
C3058 C 0.79028 0.23969 0.85258 0.0
H3059 H 0.83721 0.26562 0.90544 0.0
H3060 H 0.82837 0.26221 0.88149 0.0
H3061 H 0.82203 0.27922 0.89591 0.0
H3062 H 0.79455 0.28029 0.87492 0.0
H3063 H 0.79618 0.28893 0.84377 0.0
H3064 H 0.05751 0.43816 0.21394 0.0
H3065 H 0.03867 0.43892 0.18486 0.0
H3066 H 0.08781 0.44476 0.15734 0.0
H3067 H 0.10657 0.44351 0.18615 0.0
H3068 H 0.04358 0.46858 0.16967 0.0
H3069 H 0.05125 0.41708 0.11766 0.0
H3070 H 0.05672 0.41529 0.14184 0.0
H3071 H 0.07364 0.42699 0.12897 0.0
C3072 C 0.06419 0.43888 0.20155 0.0
C3073 C 0.08356 0.44113 0.20236 0.0
C3074 C 0.05339 0.43929 0.18494 0.0
C3075 C 0.06178 0.44192 0.16889 0.0
C3076 C 0.08091 0.44237 0.16942 0.0
H3077 H 0.06603 0.51597 0.09638 0.0
H3078 H 0.06407 0.49749 0.1218 0.0
C3079 C 0.09169 0.44182 0.18599 0.0
C3080 C 0.05171 0.44807 0.15287 0.0
H3081 H 0.04859 0.44593 0.10629 0.0
C3082 C 0.04411 0.46324 0.15581 0.0
C3083 C 0.05212 0.44107 0.13475 0.0
C3084 C 0.0587 0.42409 0.13067 0.0
C3085 C 0.03872 0.47255 0.14121 0.0
C3086 C 0.04122 0.46667 0.12329 0.0
C3087 C 0.04698 0.45057 0.12013 0.0
C3088 C 0.04088 0.47835 0.10832 0.0
C3089 C 0.03145 0.48921 0.14518 0.0
C3090 C 0.02846 0.47366 0.09232 0.0
C3091 C 0.02949 0.4843 0.07773 0.0
C3092 C 0.04318 0.49955 0.07889 0.0
C3093 C 0.05533 0.50431 0.09508 0.0
C3094 C 0.05417 0.49382 0.10965 0.0
H3095 H 0.02477 0.48888 0.15799 0.0
H3096 H 0.04315 0.50054 0.14698 0.0
H3097 H 0.0213 0.49137 0.13375 0.0
H3098 H 0.01822 0.46167 0.09103 0.0
H3099 H 0.02004 0.48023 0.06534 0.0
H3100 H 0.7967 0.85826 0.48564 0.0
H3101 H 0.80046 0.84166 0.45694 0.0
H3102 H 0.7668 0.87223 0.4264 0.0
H3103 H 0.76343 0.88891 0.45457 0.0
H3104 H 0.77859 0.82063 0.42937 0.0
H3105 H 0.81002 0.87966 0.3983 0.0
H3106 H 0.80619 0.88029 0.42204 0.0
H3107 H 0.78765 0.88156 0.40453 0.0
C3108 C 0.78998 0.86137 0.47284 0.0
C3109 C 0.77986 0.8752 0.47273 0.0
C3110 C 0.7922 0.85186 0.45628 0.0
C3111 C 0.78444 0.85586 0.43902 0.0
C3112 C 0.77363 0.86908 0.43913 0.0
H3113 H 0.77797 0.81842 0.32204 0.0
H3114 H 0.77462 0.83261 0.35196 0.0
C3115 C 0.77154 0.8786 0.4555 0.0
C3116 C 0.78747 0.84646 0.42097 0.0
H3117 H 0.79988 0.85372 0.37798 0.0
C3118 C 0.78343 0.82795 0.41826 0.0
C3119 C 0.79382 0.85567 0.40608 0.0
C3120 C 0.79986 0.87537 0.40792 0.0
C3121 C 0.78492 0.81866 0.40131 0.0
C3122 C 0.79091 0.82792 0.38634 0.0
C3123 C 0.79514 0.84639 0.38912 0.0
C3124 C 0.79288 0.81882 0.36779 0.0
C3125 C 0.77946 0.79893 0.39944 0.0
C3126 C 0.80444 0.80629 0.36614 0.0
C3127 C 0.80649 0.79817 0.34888 0.0
C3128 C 0.79706 0.80223 0.33248 0.0
C3129 C 0.78551 0.8148 0.33415 0.0
C3130 C 0.78358 0.82301 0.35141 0.0
H3131 H 0.77049 0.79417 0.40994 0.0
H3132 H 0.77203 0.79411 0.38567 0.0
H3133 H 0.7921 0.79308 0.4013 0.0
H3134 H 0.8122 0.80291 0.37824 0.0
H3135 H 0.81558 0.78869 0.34841 0.0
H3136 H 0.46865 0.50258 0.75455 0.0
H3137 H 0.48343 0.50216 0.78568 0.0
H3138 H 0.43918 0.52339 0.80721 0.0
H3139 H 0.42409 0.52362 0.77615 0.0
H3140 H 0.49571 0.52976 0.81258 0.0
H3141 H 0.44114 0.47964 0.83489 0.0
H3142 H 0.44237 0.48357 0.81117 0.0
H3143 H 0.43289 0.49814 0.82592 0.0
C3144 C 0.46202 0.50715 0.76588 0.0
C3145 C 0.44512 0.51304 0.76286 0.0
C3146 C 0.47051 0.5069 0.78366 0.0
C3147 C 0.46224 0.51249 0.7987 0.0
C3148 C 0.44557 0.51868 0.79576 0.0
H3149 H 0.51639 0.53757 0.91015 0.0
H3150 H 0.50065 0.53871 0.87951 0.0
C3151 C 0.43703 0.51889 0.77799 0.0
C3152 C 0.47122 0.512 0.81747 0.0
H3153 H 0.46505 0.49384 0.85775 0.0
C3154 C 0.48904 0.52191 0.82247 0.0
C3155 C 0.46252 0.50156 0.83022 0.0
C3156 C 0.44374 0.48999 0.82528 0.0
C3157 C 0.49838 0.52178 0.84 0.0
C3158 C 0.48948 0.51171 0.8529 0.0
C3159 C 0.47173 0.50168 0.84785 0.0
C3160 C 0.49857 0.51103 0.87158 0.0
C3161 C 0.51783 0.53212 0.84442 0.0
C3162 C 0.5021 0.49499 0.8774 0.0
C3163 C 0.51086 0.49425 0.89495 0.0
C3164 C 0.51619 0.50955 0.90702 0.0
C3165 C 0.51236 0.52555 0.90122 0.0
C3166 C 0.50356 0.52626 0.88366 0.0
H3167 H 0.52424 0.53548 0.83184 0.0
H3168 H 0.51748 0.54457 0.85256 0.0
H3169 H 0.52673 0.52467 0.85263 0.0
H3170 H 0.49821 0.48307 0.86829 0.0
H3171 H 0.51334 0.48168 0.89912 0.0
H3172 H 0.80731 0.22633 0.07567 0.0
H3173 H 0.81124 0.24292 0.10588 0.0
H3174 H 0.8094 0.19468 0.13194 0.0
H3175 H 0.8056 0.17816 0.10219 0.0
H3176 H 0.78618 0.23804 0.13293 0.0
H3177 H 0.85553 0.2267 0.15967 0.0
H3178 H 0.84698 0.22353 0.13561 0.0
H3179 H 0.83983 0.20693 0.1506 0.0
C3180 C 0.80798 0.21931 0.08786 0.0
C3181 C 0.80614 0.20091 0.08646 0.0
C3182 C 0.81019 0.22879 0.10509 0.0
C3183 C 0.81089 0.22005 0.12116 0.0
C3184 C 0.80928 0.20175 0.11976 0.0
H3185 H 0.80958 0.23922 0.23754 0.0
H3186 H 0.81119 0.22741 0.2062 0.0
C3187 C 0.80696 0.1923 0.10266 0.0
C3188 C 0.81213 0.22968 0.13947 0.0
H3189 H 0.83725 0.23651 0.18177 0.0
C3190 C 0.79747 0.23796 0.14355 0.0
C3191 C 0.82681 0.22941 0.15334 0.0
C3192 C 0.84328 0.22131 0.14958 0.0
C3193 C 0.79672 0.24538 0.1613 0.0
C3194 C 0.81123 0.24481 0.17528 0.0
C3195 C 0.8261 0.23687 0.17109 0.0
C3196 C 0.81106 0.25216 0.19438 0.0
C3197 C 0.78002 0.25314 0.1651 0.0
C3198 C 0.8109 0.27006 0.19822 0.0
C3199 C 0.80992 0.27683 0.21606 0.0
C3200 C 0.80927 0.26586 0.23052 0.0
C3201 C 0.81003 0.24803 0.22675 0.0
C3202 C 0.81095 0.24125 0.20884 0.0
H3203 H 0.76817 0.24859 0.1543 0.0
H3204 H 0.77558 0.24967 0.17852 0.0
H3205 H 0.78362 0.26766 0.16551 0.0
H3206 H 0.81141 0.27881 0.18737 0.0
H3207 H 0.80954 0.29066 0.21845 0.0
H3208 H 0.11267 0.50937 0.29838 0.0
H3209 H 0.10898 0.52948 0.3241 0.0
H3210 H 0.04972 0.51745 0.31011 0.0
H3211 H 0.05337 0.49792 0.2839 0.0
H3212 H 0.06179 0.5522 0.31764 0.0
H3213 H 0.09263 0.51626 0.37207 0.0
H3214 H 0.10776 0.52315 0.3554 0.0
H3215 H 0.08704 0.50707 0.34865 0.0
C3216 C 0.09885 0.51085 0.30094 0.0
C3217 C 0.08328 0.50196 0.28926 0.0
C3218 C 0.09677 0.52235 0.31563 0.0
C3219 C 0.07907 0.52479 0.31915 0.0
C3220 C 0.06351 0.51578 0.3076 0.0
H3221 H 0.02116 0.55455 0.40055 0.0
H3222 H 0.03213 0.55112 0.37093 0.0
C3223 C 0.0656 0.50454 0.29273 0.0
C3224 C 0.07658 0.53664 0.33487 0.0
H3225 H 0.08276 0.54216 0.38148 0.0
C3226 C 0.06653 0.55012 0.3316 0.0
C3227 C 0.08289 0.53398 0.35307 0.0
C3228 C 0.09303 0.51925 0.35758 0.0
C3229 C 0.06194 0.56051 0.3461 0.0
C3230 C 0.06767 0.55737 0.36422 0.0
C3231 C 0.0786 0.54461 0.36749 0.0
C3232 C 0.06003 0.56479 0.38001 0.0
C3233 C 0.05053 0.57436 0.342 0.0
C3234 C 0.07188 0.57444 0.3947 0.0
C3235 C 0.06555 0.5767 0.41173 0.0
C3236 C 0.04743 0.56893 0.41439 0.0
C3237 C 0.03514 0.56086 0.3991 0.0
C3238 C 0.0414 0.55884 0.38205 0.0
H3239 H 0.05169 0.57855 0.32799 0.0
H3240 H 0.03578 0.56892 0.34294 0.0
H3241 H 0.05484 0.58604 0.35207 0.0
H3242 H 0.08633 0.57909 0.39334 0.0
H3243 H 0.07524 0.58339 0.42311 0.0
H3244 H 0.79859 0.89796 0.60827 0.0
H3245 H 0.79998 0.88356 0.6369 0.0
H3246 H 0.77207 0.83466 0.60763 0.0
H3247 H 0.77105 0.84894 0.57897 0.0
H3248 H 0.77584 0.86837 0.65744 0.0
H3249 H 0.81233 0.81603 0.63493 0.0
H3250 H 0.80968 0.83413 0.62143 0.0
H3251 H 0.79109 0.81553 0.6206 0.0
C3252 C 0.79284 0.88409 0.60781 0.0
C3253 C 0.78484 0.87476 0.59091 0.0
C3254 C 0.7936 0.87577 0.62439 0.0
C3255 C 0.78651 0.85768 0.6249 0.0
C3256 C 0.77826 0.84841 0.60803 0.0
H3257 H 0.77668 0.78345 0.7121 0.0
H3258 H 0.77487 0.79811 0.68371 0.0
C3259 C 0.77752 0.85672 0.59144 0.0
C3260 C 0.78741 0.84876 0.64295 0.0
H3261 H 0.79984 0.81308 0.6632 0.0
C3262 C 0.78123 0.85633 0.65859 0.0
C3263 C 0.79436 0.83292 0.64506 0.0
C3264 C 0.80242 0.82426 0.62969 0.0
C3265 C 0.78138 0.84856 0.67559 0.0
C3266 C 0.78827 0.83269 0.67766 0.0
C3267 C 0.79446 0.82512 0.66204 0.0
C3268 C 0.78913 0.82374 0.69568 0.0
C3269 C 0.77352 0.85728 0.69106 0.0
C3270 C 0.79787 0.83281 0.71247 0.0
C3271 C 0.7989 0.82435 0.72896 0.0
C3272 C 0.7913 0.80636 0.72947 0.0
C3273 C 0.78261 0.79728 0.71265 0.0
C3274 C 0.78163 0.80574 0.69617 0.0
H3275 H 0.7638 0.86574 0.68594 0.0
H3276 H 0.76611 0.84742 0.69923 0.0
H3277 H 0.78497 0.86576 0.70021 0.0
H3278 H 0.80432 0.84649 0.71285 0.0
H3279 H 0.80593 0.83195 0.74133 0.0
H3280 H 0.73619 0.38519 0.55146 0.0
H3281 H 0.71151 0.4016 0.55719 0.0
H3282 H 0.75177 0.44969 0.56705 0.0
H3283 H 0.77628 0.4336 0.56114 0.0
H3284 H 0.70724 0.42344 0.58833 0.0
H3285 H 0.71386 0.46081 0.52713 0.0
H3286 H 0.724 0.44154 0.53013 0.0
H3287 H 0.73533 0.46245 0.54152 0.0
C3288 C 0.73974 0.39926 0.55485 0.0
C3289 C 0.75814 0.40813 0.55566 0.0
C3290 C 0.72566 0.40859 0.55814 0.0
C3291 C 0.72981 0.42689 0.5622 0.0
C3292 C 0.74822 0.43564 0.56353 0.0
H3293 H 0.67079 0.51123 0.58413 0.0
H3294 H 0.69416 0.49257 0.58214 0.0
C3295 C 0.76223 0.42638 0.56021 0.0
C3296 C 0.715 0.43702 0.56501 0.0
H3297 H 0.69591 0.47089 0.54917 0.0
C3298 C 0.70463 0.43372 0.5797 0.0
C3299 C 0.71164 0.4504 0.55369 0.0
C3300 C 0.72166 0.45393 0.53713 0.0
C3301 C 0.69132 0.44383 0.58369 0.0
C3302 C 0.68828 0.45743 0.57259 0.0
C3303 C 0.69847 0.46056 0.55777 0.0
C3304 C 0.67425 0.46836 0.57573 0.0
C3305 C 0.68091 0.44018 0.59995 0.0
C3306 C 0.65538 0.46087 0.57294 0.0
C3307 C 0.64207 0.47148 0.57404 0.0
C3308 C 0.64739 0.48977 0.57793 0.0
C3309 C 0.66631 0.49717 0.5813 0.0
C3310 C 0.67963 0.48655 0.58008 0.0
H3311 H 0.68765 0.43198 0.60936 0.0
H3312 H 0.6798 0.45264 0.6077 0.0
H3313 H 0.66668 0.43304 0.59509 0.0
H3314 H 0.65096 0.4469 0.56933 0.0
H3315 H 0.62757 0.46541 0.57151 0.0
H3316 H 0.26936 0.0995 0.51379 0.0
H3317 H 0.23759 0.08367 0.51438 0.0
H3318 H 0.22071 0.1325 0.52942 0.0
H3319 H 0.25212 0.14833 0.52811 0.0
H3320 H 0.21537 0.07771 0.53917 0.0
H3321 H 0.18009 0.11515 0.49019 0.0
H3322 H 0.20493 0.11775 0.49376 0.0
H3323 H 0.19285 0.12943 0.50905 0.0
C3324 C 0.25884 0.10692 0.517 0.0
C3325 C 0.26351 0.12535 0.52065 0.0
C3326 C 0.24055 0.09779 0.51742 0.0
C3327 C 0.2262 0.10672 0.52153 0.0
C3328 C 0.23101 0.1251 0.52553 0.0
H3329 H 0.11063 0.07816 0.54323 0.0
H3330 H 0.14252 0.09202 0.54062 0.0
C3331 C 0.2492 0.13423 0.52491 0.0
C3332 C 0.20651 0.09686 0.52216 0.0
H3333 H 0.16067 0.09727 0.50829 0.0
C3334 C 0.20349 0.08197 0.53221 0.0
C3335 C 0.19061 0.10205 0.51311 0.0
C3336 C 0.19227 0.11684 0.50077 0.0
C3337 C 0.18545 0.07269 0.53389 0.0
C3338 C 0.16963 0.07821 0.52526 0.0
C3339 C 0.1726 0.09295 0.51507 0.0
C3340 C 0.14995 0.06922 0.52698 0.0
C3341 C 0.18344 0.05728 0.54538 0.0
C3342 C 0.14297 0.05162 0.52011 0.0
C3343 C 0.12445 0.04359 0.52144 0.0
C3344 C 0.11229 0.05283 0.52986 0.0
C3345 C 0.11939 0.07042 0.53677 0.0
C3346 C 0.13777 0.07847 0.53523 0.0
H3347 H 0.1965 0.05679 0.5541 0.0
H3348 H 0.17231 0.05781 0.55429 0.0
H3349 H 0.17957 0.04493 0.53625 0.0
H3350 H 0.15178 0.04411 0.51341 0.0
H3351 H 0.11965 0.03012 0.51582 0.0
H3352 H 0.25473 0.03054 0.81661 0.0
H3353 H 0.27896 0.01333 0.81248 0.0
H3354 H 0.24472 0.96806 0.83006 0.0
H3355 H 0.22063 0.98519 0.83454 0.0
H3356 H 0.28287 0.97187 0.84301 0.0
H3357 H 0.27017 0.97694 0.76785 0.0
H3358 H 0.2768 0.99715 0.78226 0.0
H3359 H 0.25482 0.98336 0.78342 0.0
C3360 C 0.25249 0.01699 0.81986 0.0
C3361 C 0.23567 0.00911 0.82563 0.0
C3362 C 0.26632 1.0072 0.81747 0.0
C3363 C 0.26346 0.98939 0.82068 0.0
C3364 C 0.24716 0.9818 0.82748 0.0
H3365 H 0.28119 0.89435 0.7782 0.0
H3366 H 0.27297 0.92234 0.78783 0.0
C3367 C 0.23337 0.99158 0.82996 0.0
C3368 C 0.27638 0.97802 0.81534 0.0
H3369 H 0.2889 0.95729 0.77767 0.0
C3370 C 0.28459 0.96893 0.82878 0.0
C3371 C 0.27846 0.97424 0.79672 0.0
C3372 C 0.26954 0.98331 0.78166 0.0
C3373 C 0.29394 0.95539 0.82398 0.0
C3374 C 0.29513 0.95101 0.8053 0.0
C3375 C 0.28796 0.96083 0.79197 0.0
C3376 C 0.30083 0.93456 0.7991 0.0
C3377 C 0.30131 0.94501 0.83871 0.0
C3378 C 0.31927 0.93233 0.8021 0.0
C3379 C 0.32402 0.91627 0.79663 0.0
C3380 C 0.31032 0.9023 0.7882 0.0
C3381 C 0.29196 0.9048 0.78492 0.0
C3382 C 0.28728 0.92079 0.7903 0.0
H3383 H 0.29817 0.9494 0.85249 0.0
H3384 H 0.29529 0.93084 0.83567 0.0
H3385 H 0.31654 0.94648 0.83901 0.0
H3386 H 0.32991 0.94292 0.80877 0.0
H3387 H 0.33827 0.91464 0.79935 0.0
H3388 H 0.36687 0.90377 0.03847 0.0
H3389 H 0.39889 0.91998 0.04251 0.0
H3390 H 0.37892 0.96894 0.04582 0.0
H3391 H 0.34716 0.9529 0.04082 0.0
H3392 H 0.40241 0.97031 0.02282 0.0
H3393 H 0.43343 0.94524 0.08493 0.0
H3394 H 0.42354 0.92786 0.0676 0.0
H3395 H 0.40882 0.94087 0.07792 0.0
C3396 C 0.36941 0.91798 0.04024 0.0
C3397 C 0.35458 0.92709 0.03912 0.0
C3398 C 0.38769 0.92724 0.04274 0.0
C3399 C 0.39138 0.94572 0.04471 0.0
C3400 C 0.37649 0.95472 0.0443 0.0
H3401 H 0.50194 0.01308 0.06566 0.0
H3402 H 0.47117 0.99681 0.06994 0.0
C3403 C 0.35832 0.94553 0.04138 0.0
C3404 C 0.41051 0.95587 0.04533 0.0
H3405 H 0.45472 0.96105 0.06662 0.0
C3406 C 0.41375 0.96837 0.03258 0.0
C3407 C 0.42535 0.95359 0.05818 0.0
C3408 C 0.42259 0.94129 0.07305 0.0
C3409 C 0.43137 0.97835 0.03204 0.0
C3410 C 0.44642 0.97529 0.04409 0.0
C3411 C 0.44319 0.96319 0.05723 0.0
C3412 C 0.46562 0.98399 0.04243 0.0
C3413 C 0.43362 0.99215 0.01853 0.0
C3414 C 0.47287 0.98171 0.02582 0.0
C3415 C 0.49012 0.99111 0.02327 0.0
C3416 C 0.50072 1.00278 0.03741 0.0
C3417 C 0.49397 1.00433 0.05446 0.0
C3418 C 0.47646 0.99502 0.05693 0.0
H3419 H 0.42042 0.99672 0.01479 0.0
H3420 H 0.44434 1.00369 0.02412 0.0
H3421 H 0.43786 0.98643 0.00581 0.0
H3422 H 0.46497 0.97288 0.01464 0.0
H3423 H 0.49509 0.98927 0.0101 0.0
H3424 H 0.92541 0.64096 0.8288 0.0
H3425 H 0.89771 0.65346 0.83231 0.0
H3426 H 0.86397 0.60171 0.8224 0.0
H3427 H 0.89153 0.58909 0.81912 0.0
H3428 H 0.87142 0.64976 0.80262 0.0
H3429 H 0.83907 0.62436 0.86234 0.0
H3430 H 0.86306 0.62432 0.85959 0.0
H3431 H 0.84516 0.60758 0.84745 0.0
C3432 C 0.91216 0.63219 0.8279 0.0
C3433 C 0.91062 0.61408 0.82347 0.0
C3434 C 0.89636 0.63935 0.82995 0.0
C3435 C 0.8788 0.6285 0.82774 0.0
C3436 C 0.87739 0.61029 0.82453 0.0
H3437 H 0.77738 0.64974 0.77727 0.0
H3438 H 0.80008 0.63435 0.79242 0.0
C3439 C 0.89317 0.60312 0.82248 0.0
C3440 C 0.86196 0.63635 0.82547 0.0
H3441 H 0.81953 0.63618 0.84006 0.0
C3442 C 0.86021 0.64699 0.81099 0.0
C3443 C 0.84729 0.63257 0.83631 0.0
C3444 C 0.84876 0.62171 0.85241 0.0
C3445 C 0.84403 0.65359 0.80675 0.0
C3446 C 0.82917 0.64943 0.81722 0.0
C3447 C 0.83095 0.63915 0.83199 0.0
C3448 C 0.81188 0.65598 0.81259 0.0
C3449 C 0.84274 0.66477 0.79083 0.0
C3450 C 0.81041 0.67278 0.81967 0.0
C3451 C 0.79766 0.6817 0.81092 0.0
C3452 C 0.78622 0.67389 0.79494 0.0
C3453 C 0.78622 0.65622 0.78932 0.0
C3454 C 0.79906 0.64735 0.79805 0.0
H3455 H 0.85591 0.6675 0.78465 0.0
H3456 H 0.83166 0.65798 0.7801 0.0
H3457 H 0.83901 0.67747 0.79537 0.0
H3458 H 0.82031 0.67965 0.83082 0.0
H3459 H 0.79819 0.69531 0.81561 0.0
H3460 H 0.88532 0.63434 0.00653 0.0
H3461 H 0.9128 0.62035 0.00569 0.0
H3462 H 0.89744 0.5917 0.05141 0.0
H3463 H 0.87017 0.60512 0.05204 0.0
H3464 H 0.94377 0.61933 0.02825 0.0
H3465 H 0.90478 0.55136 0.01887 0.0
H3466 H 0.89344 0.57 0.01697 0.0
H3467 H 0.89975 0.56279 0.0391 0.0
C3468 C 0.88772 0.625 0.01637 0.0
C3469 C 0.87504 0.62092 0.02923 0.0
C3470 C 0.9036 0.61694 0.01591 0.0
C3471 C 0.9074 0.60437 0.0282 0.0
C3472 C 0.89495 0.60072 0.04127 0.0
H3473 H 0.01628 0.57077 0.05417 0.0
H3474 H 0.98973 0.58577 0.053 0.0
C3475 C 0.87919 0.60867 0.0417 0.0
C3476 C 0.92421 0.59521 0.02769 0.0
H3477 H 0.93722 0.55469 0.02798 0.0
C3478 C 0.9422 0.60517 0.0281 0.0
C3479 C 0.92272 0.57661 0.02718 0.0
C3480 C 0.90413 0.56456 0.02531 0.0
C3481 C 0.95832 0.59734 0.02849 0.0
C3482 C 0.95689 0.5788 0.02889 0.0
C3483 C 0.93883 0.56884 0.02798 0.0
C3484 C 0.97365 0.56944 0.02983 0.0
C3485 C 0.97672 0.60918 0.02799 0.0
C3486 C 0.97389 0.55455 0.01777 0.0
C3487 C 0.98916 0.54569 0.01862 0.0
C3488 C 1.00495 0.55121 0.03162 0.0
C3489 C 1.00465 0.56599 0.04382 0.0
C3490 C 0.98934 0.57481 0.04302 0.0
H3491 H 0.97502 0.62152 0.02177 0.0
H3492 H 0.98357 0.61281 0.04218 0.0
H3493 H 0.98594 0.60256 0.02012 0.0
H3494 H 0.96224 0.54977 0.00745 0.0
H3495 H 0.98855 0.53445 0.00891 0.0
H3496 H 0.17468 0.10884 0.81185 0.0
H3497 H 0.19145 0.1384 0.80856 0.0
H3498 H 0.24326 0.12017 0.81636 0.0
H3499 H 0.22675 0.09063 0.81962 0.0
H3500 H 0.22087 0.15996 0.83482 0.0
H3501 H 0.24333 0.14386 0.76707 0.0
H3502 H 0.22445 0.13022 0.77595 0.0
H3503 H 0.24795 0.12949 0.78442 0.0
C3504 C 0.18965 0.1111 0.81283 0.0
C3505 C 0.19938 0.09735 0.81591 0.0
C3506 C 0.19917 0.12799 0.81099 0.0
C3507 C 0.21852 0.13133 0.81205 0.0
C3508 C 0.22829 0.11773 0.81528 0.0
H3509 H 0.30108 0.22114 0.79673 0.0
H3510 H 0.28469 0.19257 0.80354 0.0
C3511 C 0.21882 0.10088 0.81719 0.0
C3512 C 0.22857 0.14906 0.80979 0.0
H3513 H 0.25568 0.17211 0.7817 0.0
C3514 C 0.22845 0.1627 0.8232 0.0
C3515 C 0.23843 0.15244 0.79463 0.0
C3516 C 0.2385 0.13829 0.77959 0.0
C3517 C 0.23829 0.17969 0.82202 0.0
C3518 C 0.24814 0.18309 0.80681 0.0
C3519 C 0.24818 0.16942 0.79338 0.0
C3520 C 0.25828 0.20078 0.80429 0.0
C3521 C 0.23839 0.19371 0.83723 0.0
C3522 C 0.24884 0.21485 0.80256 0.0
C3523 C 0.25818 0.23121 0.79878 0.0
C3524 C 0.27707 0.2337 0.79643 0.0
C3525 C 0.28653 0.21964 0.79844 0.0
C3526 C 0.2772 0.20331 0.80232 0.0
H3527 H 0.23482 0.18793 0.85006 0.0
H3528 H 0.25212 0.20251 0.84007 0.0
H3529 H 0.22793 0.20178 0.8331 0.0
H3530 H 0.23414 0.21305 0.8036 0.0
H3531 H 0.25045 0.24175 0.7972 0.0
H3532 H 0.43754 0.02528 0.3058 0.0
H3533 H 0.418 0.99634 0.30483 0.0
H3534 H 0.45145 0.97534 0.26754 0.0
H3535 H 0.47133 1.00421 0.26864 0.0
H3536 H 0.39742 0.97701 0.27423 0.0
H3537 H 0.44859 0.94042 0.30658 0.0
H3538 H 0.4525 0.9641 0.30776 0.0
H3539 H 0.45568 0.95167 0.28728 0.0
C3540 C 0.44089 0.01448 0.29753 0.0
C3541 C 0.45605 0.01704 0.28735 0.0
C3542 C 0.42967 0.99797 0.29697 0.0
C3543 C 0.43339 0.9837 0.28625 0.0
C3544 C 0.44857 0.98613 0.27617 0.0
H3545 H 0.3763 0.87472 0.26909 0.0
H3546 H 0.39558 0.90303 0.26541 0.0
C3547 C 0.45988 1.00265 0.27679 0.0
C3548 C 0.42091 0.96645 0.28521 0.0
H3549 H 0.41924 0.92387 0.29478 0.0
C3550 C 0.40217 0.96537 0.27871 0.0
C3551 C 0.42721 0.95132 0.29099 0.0
C3552 C 0.44705 0.95188 0.2987 0.0
C3553 C 0.38951 0.94953 0.27792 0.0
C3554 C 0.39577 0.93449 0.28395 0.0
C3555 C 0.41455 0.93547 0.29011 0.0
C3556 C 0.38293 0.91777 0.28483 0.0
C3557 C 0.36958 0.94898 0.27056 0.0
C3558 C 0.36938 0.91679 0.29686 0.0
C3559 C 0.35833 0.90067 0.29897 0.0
C3560 C 0.36071 0.88528 0.28909 0.0
C3561 C 0.37399 0.8864 0.27669 0.0
C3562 C 0.38508 0.90251 0.27465 0.0
H3563 H 0.36802 0.96012 0.26219 0.0
H3564 H 0.36378 0.93647 0.26209 0.0
H3565 H 0.36131 0.94986 0.28219 0.0
H3566 H 0.36771 0.9284 0.30504 0.0
H3567 H 0.34814 0.90021 0.30854 0.0
H3568 H 0.58203 0.36349 0.59777 0.0
H3569 H 0.56787 0.38306 0.57852 0.0
H3570 H 0.53947 0.399 0.62316 0.0
H3571 H 0.55404 0.37979 0.64273 0.0
H3572 H 0.53181 0.38653 0.56703 0.0
H3573 H 0.56995 0.445 0.61186 0.0
H3574 H 0.57499 0.42332 0.61413 0.0
H3575 H 0.55502 0.42933 0.62299 0.0
C3576 C 0.5727 0.37109 0.60348 0.0
C3577 C 0.56938 0.37034 0.62185 0.0
C3578 C 0.56453 0.38218 0.59242 0.0
C3579 C 0.55284 0.39264 0.59949 0.0
C3580 C 0.54874 0.39126 0.61755 0.0
H3581 H 0.51151 0.47563 0.54065 0.0
H3582 H 0.50921 0.44816 0.55581 0.0
C3583 C 0.55707 0.3803 0.6287 0.0
C3584 C 0.54628 0.40595 0.58833 0.0
H3585 H 0.55194 0.45021 0.58549 0.0
C3586 C 0.53594 0.40046 0.57117 0.0
C3587 C 0.55184 0.42412 0.59373 0.0
C3588 C 0.56368 0.43087 0.6116 0.0
C3589 C 0.53158 0.41272 0.55903 0.0
C3590 C 0.53764 0.43076 0.56428 0.0
C3591 C 0.54722 0.43627 0.58169 0.0
C3592 C 0.53666 0.44422 0.55126 0.0
C3593 C 0.52133 0.40646 0.54036 0.0
C3594 C 0.55258 0.45058 0.54323 0.0
C3595 C 0.55399 0.4662 0.53483 0.0
C3596 C 0.53943 0.47563 0.53422 0.0
C3597 C 0.52282 0.46845 0.54078 0.0
C3598 C 0.5215 0.45284 0.54946 0.0
H3599 H 0.5164 0.39201 0.53878 0.0
H3600 H 0.50928 0.41309 0.53788 0.0
H3601 H 0.53059 0.41008 0.52976 0.0
H3602 H 0.56443 0.44412 0.54464 0.0
H3603 H 0.56694 0.47151 0.52987 0.0
H3604 H 0.48843 0.70869 0.32594 0.0
H3605 H 0.45935 0.71008 0.30755 0.0
H3606 H 0.43247 0.71244 0.35653 0.0
H3607 H 0.46142 0.71079 0.37508 0.0
H3608 H 0.40957 0.69289 0.3247 0.0
H3609 H 0.4453 0.75948 0.31156 0.0
H3610 H 0.45629 0.74151 0.30509 0.0
H3611 H 0.45465 0.74703 0.32883 0.0
C3612 C 0.47623 0.7091 0.33279 0.0
C3613 C 0.47729 0.70999 0.352 0.0
C3614 C 0.45965 0.70988 0.32225 0.0
C3615 C 0.44395 0.71173 0.33075 0.0
C3616 C 0.44452 0.71108 0.34976 0.0
H3617 H 0.35662 0.76646 0.31166 0.0
H3618 H 0.3835 0.75372 0.32129 0.0
C3619 C 0.46108 0.71017 0.36033 0.0
C3620 C 0.4278 0.71669 0.32031 0.0
H3621 H 0.41408 0.75109 0.29974 0.0
C3622 C 0.41053 0.70548 0.31898 0.0
C3623 C 0.42919 0.73325 0.31309 0.0
C3624 C 0.44729 0.74612 0.31478 0.0
C3625 C 0.39447 0.71061 0.31095 0.0
C3626 C 0.39587 0.72729 0.30408 0.0
C3627 C 0.41319 0.73825 0.30493 0.0
C3628 C 0.37937 0.73453 0.2979 0.0
C3629 C 0.37601 0.6986 0.31061 0.0
C3630 C 0.3683 0.72801 0.28142 0.0
C3631 C 0.35288 0.73533 0.27579 0.0
C3632 C 0.34837 0.74923 0.28661 0.0
C3633 C 0.35965 0.75575 0.30302 0.0
C3634 C 0.37502 0.74849 0.30857 0.0
H3635 H 0.37709 0.68685 0.31816 0.0
H3636 H 0.36607 0.70578 0.3167 0.0
H3637 H 0.37028 0.69414 0.29622 0.0
H3638 H 0.37164 0.71736 0.27293 0.0
H3639 H 0.34444 0.73003 0.26308 0.0
H3640 H 0.08185 0.78784 0.11607 0.0
H3641 H 0.07814 0.7583 0.10078 0.0
H3642 H 0.10094 0.73999 0.15053 0.0
H3643 H 0.10485 0.76952 0.16601 0.0
H3644 H 0.10946 0.73844 0.09891 0.0
H3645 H 0.04995 0.70528 0.13184 0.0
H3646 H 0.05488 0.72877 0.13044 0.0
H3647 H 0.06859 0.71886 0.1468 0.0
C3648 C 0.08595 0.77752 0.12385 0.0
C3649 C 0.09365 0.78103 0.14229 0.0
C3650 C 0.08385 0.76069 0.11506 0.0
C3651 C 0.08916 0.74706 0.12461 0.0
C3652 C 0.09661 0.75039 0.14304 0.0
H3653 H 0.1136 0.64644 0.09546 0.0
H3654 H 0.11373 0.67696 0.10586 0.0
C3655 C 0.09888 0.76726 0.15182 0.0
C3656 C 0.08764 0.72947 0.1151 0.0
H3657 H 0.06507 0.68706 0.11386 0.0
C3658 C 0.09968 0.72721 0.10204 0.0
C3659 C 0.07473 0.71499 0.11917 0.0
C3660 C 0.06117 0.717 0.13273 0.0
C3661 C 0.09956 0.71057 0.09333 0.0
C3662 C 0.0871 0.69598 0.09789 0.0
C3663 C 0.07463 0.69835 0.11049 0.0
C3664 C 0.08747 0.67798 0.09044 0.0
C3665 C 0.11283 0.70863 0.07946 0.0
C3666 C 0.07264 0.66855 0.07832 0.0
C3667 C 0.07261 0.65115 0.07212 0.0
C3668 C 0.08732 0.64285 0.07817 0.0
C3669 C 0.10223 0.65249 0.09023 0.0
C3670 C 0.1023 0.6699 0.09627 0.0
H3671 H 0.11886 0.72149 0.0748 0.0
H3672 H 0.12431 0.70269 0.08572 0.0
H3673 H 0.10578 0.69977 0.06738 0.0
H3674 H 0.06107 0.67464 0.07374 0.0
H3675 H 0.06104 0.64419 0.06266 0.0
H3676 H 0.08759 0.24394 0.91384 0.0
H3677 H 0.11447 0.25422 0.89814 0.0
H3678 H 0.10061 0.20755 0.86058 0.0
H3679 H 0.07333 0.19748 0.87582 0.0
H3680 H 0.14523 0.2425 0.88904 0.0
H3681 H 0.09756 0.24632 0.82684 0.0
H3682 H 0.08951 0.2422 0.84866 0.0
H3683 H 0.09511 0.22463 0.83439 0.0
C3684 C 0.09049 0.23568 0.9025 0.0
C3685 C 0.07822 0.22005 0.89583 0.0
C3686 C 0.10583 0.2416 0.89351 0.0
C3687 C 0.10916 0.23189 0.87787 0.0
C3688 C 0.09793 0.21548 0.8723 0.0
H3689 H 0.20517 0.25024 0.81976 0.0
H3690 H 0.18182 0.24002 0.83963 0.0
C3691 C 0.08246 0.20968 0.8811 0.0
C3692 C 0.12348 0.2395 0.86664 0.0
H3693 H 0.12961 0.25104 0.82357 0.0
C3694 C 0.14185 0.24443 0.87474 0.0
C3695 C 0.1189 0.24247 0.84812 0.0
C3696 C 0.09918 0.23881 0.83903 0.0
C3697 C 0.1559 0.2518 0.86466 0.0
C3698 C 0.15147 0.25382 0.84587 0.0
C3699 C 0.13301 0.24931 0.83792 0.0
C3700 C 0.16575 0.26024 0.83406 0.0
C3701 C 0.17526 0.2576 0.87434 0.0
C3702 C 0.16408 0.27459 0.82375 0.0
C3703 C 0.17724 0.28024 0.8121 0.0
C3704 C 0.19231 0.2717 0.81071 0.0
C3705 C 0.19384 0.25725 0.82088 0.0
C3706 C 0.18059 0.25148 0.83232 0.0
H3707 H 0.17515 0.26054 0.88928 0.0
H3708 H 0.18318 0.24686 0.87251 0.0
H3709 H 0.1826 0.26945 0.86875 0.0
H3710 H 0.15262 0.28143 0.82477 0.0
H3711 H 0.1758 0.29141 0.80439 0.0
H3712 H 0.56724 0.72966 0.96841 0.0
H3713 H 0.56497 0.70108 0.98149 0.0
H3714 H 0.55244 0.67464 0.92731 0.0
H3715 H 0.55466 0.70308 0.91426 0.0
H3716 H 0.53745 0.67211 0.98163 0.0
H3717 H 0.5922 0.64899 0.94645 0.0
H3718 H 0.58883 0.67145 0.94672 0.0
H3719 H 0.57423 0.6547 0.93101 0.0
C3720 C 0.56403 0.71782 0.95917 0.0
C3721 C 0.56125 0.71918 0.94005 0.0
C3722 C 0.5627 0.70123 0.96677 0.0
C3723 C 0.55883 0.68508 0.95566 0.0
C3724 C 0.55589 0.68647 0.93655 0.0
H3725 H 0.55015 0.57077 0.97609 0.0
H3726 H 0.55148 0.59916 0.96285 0.0
C3727 C 0.55704 0.70301 0.92898 0.0
C3728 C 0.55756 0.66705 0.96394 0.0
H3729 H 0.57416 0.62806 0.96235 0.0
C3730 C 0.54563 0.66261 0.97738 0.0
C3731 C 0.5679 0.65402 0.9587 0.0
C3732 C 0.58164 0.65752 0.94506 0.0
C3733 C 0.54346 0.64601 0.98512 0.0
C3734 C 0.55398 0.63302 0.98007 0.0
C3735 C 0.56592 0.6375 0.9666 0.0
C3736 C 0.55289 0.61499 0.98846 0.0
C3737 C 0.52912 0.64243 0.99817 0.0
C3738 C 0.55342 0.61346 0.00756 0.0
C3739 C 0.5524 0.59698 0.01521 0.0
C3740 C 0.55112 0.58097 1.0043 0.0
C3741 C 0.55094 0.58246 0.98522 0.0
C3742 C 0.5518 0.59898 0.97754 0.0
H3743 H 0.51808 0.65031 0.99565 0.0
H3744 H 0.52253 0.62834 0.99697 0.0
H3745 H 0.53581 0.64623 0.01239 0.0
H3746 H 0.555 0.62515 0.01684 0.0
H3747 H 0.55294 0.59688 0.02993 0.0
H3748 H 0.11663 0.78837 0.65366 0.0
H3749 H 0.14692 0.78803 0.67053 0.0
H3750 H 0.12512 0.7978 0.72136 0.0
H3751 H 0.09465 0.79763 0.70454 0.0
H3752 H 0.17215 0.81055 0.69147 0.0
H3753 H 0.14884 0.75786 0.73511 0.0
H3754 H 0.13386 0.76321 0.71627 0.0
H3755 H 0.1372 0.77606 0.73803 0.0
C3756 C 0.11818 0.79038 0.66845 0.0
C3757 C 0.10287 0.79291 0.67759 0.0
C3758 C 0.13569 0.79022 0.67818 0.0
C3759 C 0.13868 0.79252 0.69749 0.0
C3760 C 0.12345 0.79543 0.70661 0.0
H3761 H 0.25292 0.81747 0.75825 0.0
H3762 H 0.22238 0.81923 0.74266 0.0
C3763 C 0.10589 0.7955 0.69688 0.0
C3764 C 0.15762 0.79209 0.70785 0.0
H3765 H 0.17966 0.77337 0.74276 0.0
C3766 C 0.17368 0.80237 0.70268 0.0
C3767 C 0.16017 0.78128 0.72242 0.0
C3768 C 0.14414 0.76884 0.72818 0.0
C3769 C 0.19172 0.80231 0.71152 0.0
C3770 C 0.19419 0.79197 0.72651 0.0
C3771 C 0.17815 0.78155 0.73155 0.0
C3772 C 0.21316 0.79116 0.73662 0.0
C3773 C 0.20801 0.81297 0.70419 0.0
C3774 C 0.2185 0.77487 0.73936 0.0
C3775 C 0.23597 0.77384 0.74858 0.0
C3776 C 0.24896 0.78906 0.75556 0.0
C3777 C 0.24356 0.80539 0.75306 0.0
C3778 C 0.22598 0.80641 0.74389 0.0
H3779 H 0.20452 0.81563 0.68975 0.0
H3780 H 0.21213 0.82581 0.71244 0.0
H3781 H 0.22003 0.80617 0.70493 0.0
H3782 H 0.20917 0.76278 0.73412 0.0
H3783 H 0.23934 0.76096 0.7501 0.0
H3784 H 0.08579 0.35521 0.42384 0.0
H3785 H 0.08353 0.38317 0.4395 0.0
H3786 H 0.04853 0.35601 0.47568 0.0
H3787 H 0.05129 0.32762 0.46015 0.0
H3788 H 0.05882 0.40102 0.44218 0.0
H3789 H 0.07855 0.38971 0.51407 0.0
H3790 H 0.08098 0.37452 0.4953 0.0
H3791 H 0.05884 0.37404 0.50359 0.0
C3792 C 0.07776 0.35495 0.4353 0.0
C3793 C 0.0689 0.33862 0.44055 0.0
C3794 C 0.07637 0.37127 0.44435 0.0
C3795 C 0.06598 0.37243 0.45924 0.0
C3796 C 0.05714 0.3561 0.4647 0.0
H3797 H 0.0327 0.47612 0.48852 0.0
H3798 H 0.03432 0.44659 0.47577 0.0
C3799 C 0.05867 0.33959 0.45566 0.0
C3800 C 0.06411 0.39065 0.46815 0.0
H3801 H 0.06684 0.41581 0.50921 0.0
C3802 C 0.06062 0.40406 0.45689 0.0
C3803 C 0.06664 0.39547 0.48741 0.0
C3804 C 0.07165 0.38277 0.50081 0.0
C3805 C 0.05956 0.42141 0.46395 0.0
C3806 C 0.06144 0.42606 0.48321 0.0
C3807 C 0.0651 0.41273 0.49451 0.0
C3808 C 0.06004 0.44455 0.49173 0.0
C3809 C 0.0571 0.43477 0.45041 0.0
C3810 C 0.07336 0.45384 0.50586 0.0
C3811 C 0.07227 0.47095 0.51351 0.0
C3812 C 0.05777 0.4797 0.50748 0.0
C3813 C 0.0443 0.47029 0.49358 0.0
C3814 C 0.04533 0.45317 0.48604 0.0
H3815 H 0.06207 0.43122 0.4372 0.0
H3816 H 0.04218 0.43523 0.44753 0.0
H3817 H 0.06468 0.44807 0.45577 0.0
H3818 H 0.08491 0.44794 0.51092 0.0
H3819 H 0.08297 0.47738 0.52418 0.0
H3820 H 0.48266 0.25301 0.1885 0.0
H3821 H 0.45485 0.25419 0.20322 0.0
H3822 H 0.4584 0.3084 0.19222 0.0
H3823 H 0.48586 0.30688 0.17645 0.0
H3824 H 0.4462 0.26791 0.23125 0.0
H3825 H 0.40548 0.29654 0.17806 0.0
H3826 H 0.42678 0.28959 0.17398 0.0
H3827 H 0.4271 0.31079 0.18579 0.0
C3828 C 0.47749 0.26522 0.18892 0.0
C3829 C 0.48683 0.27978 0.18089 0.0
C3830 C 0.46137 0.26592 0.19758 0.0
C3831 C 0.45364 0.28129 0.19893 0.0
C3832 C 0.46312 0.29602 0.19109 0.0
H3833 H 0.36487 0.30732 0.26465 0.0
H3834 H 0.39261 0.30798 0.24876 0.0
C3835 C 0.47917 0.29521 0.18208 0.0
C3836 C 0.4363 0.28173 0.20898 0.0
H3837 H 0.39386 0.29493 0.2069 0.0
C3838 C 0.43482 0.27377 0.22565 0.0
C3839 C 0.42086 0.28923 0.20223 0.0
C3840 C 0.42 0.29685 0.18396 0.0
C3841 C 0.41908 0.27324 0.23542 0.0
C3842 C 0.40392 0.28098 0.22882 0.0
C3843 C 0.40532 0.28905 0.2123 0.0
C3844 C 0.38657 0.28054 0.23875 0.0
C3845 C 0.41879 0.26446 0.25303 0.0
C3846 C 0.37339 0.26495 0.23874 0.0
C3847 C 0.35723 0.26457 0.24773 0.0
C3848 C 0.35361 0.27971 0.25745 0.0
C3849 C 0.36695 0.29526 0.25761 0.0
C3850 C 0.38295 0.2957 0.24834 0.0
H3851 H 0.43236 0.261 0.2577 0.0
H3852 H 0.41493 0.27319 0.26395 0.0
H3853 H 0.40816 0.25226 0.251 0.0
H3854 H 0.37548 0.25298 0.23154 0.0
H3855 H 0.34752 0.25229 0.24703 0.0
H3856 H 0.65275 0.55743 0.39211 0.0
H3857 H 0.64906 0.54728 0.42207 0.0
H3858 H 0.67066 0.5009 0.40698 0.0
H3859 H 0.67415 0.511 0.37645 0.0
H3860 H 0.63802 0.49242 0.41927 0.0
H3861 H 0.67994 0.54331 0.46876 0.0
H3862 H 0.6679 0.55424 0.4521 0.0
H3863 H 0.68434 0.5412 0.44514 0.0
C3864 C 0.65713 0.54526 0.39524 0.0
C3865 C 0.66356 0.53493 0.38188 0.0
C3866 C 0.65526 0.53956 0.41252 0.0
C3867 C 0.65989 0.52346 0.41693 0.0
C3868 C 0.66723 0.51347 0.40393 0.0
H3869 H 0.61009 0.51787 0.51779 0.0
H3870 H 0.63406 0.512 0.49903 0.0
C3871 C 0.66921 0.51925 0.38653 0.0
C3872 C 0.65397 0.5162 0.43385 0.0
H3873 H 0.64821 0.53165 0.47666 0.0
C3874 C 0.64073 0.50064 0.43209 0.0
C3875 C 0.65795 0.52643 0.45084 0.0
C3876 C 0.6735 0.54211 0.45432 0.0
C3877 C 0.62951 0.49651 0.44596 0.0
C3878 C 0.63126 0.50855 0.46159 0.0
C3879 C 0.64633 0.52266 0.46443 0.0
C3880 C 0.61618 0.50862 0.47335 0.0
C3881 C 0.61528 0.47978 0.44323 0.0
C3882 C 0.59804 0.50841 0.46525 0.0
C3883 C 0.58429 0.51149 0.47596 0.0
C3884 C 0.58855 0.51538 0.49492 0.0
C3885 C 0.60651 0.51512 0.50313 0.0
C3886 C 0.62019 0.51166 0.49245 0.0
H3887 H 0.62092 0.46906 0.43636 0.0
H3888 H 0.61079 0.47553 0.45639 0.0
H3889 H 0.60304 0.48182 0.43414 0.0
H3890 H 0.59468 0.50678 0.45052 0.0
H3891 H 0.57057 0.51172 0.46929 0.0
H3892 H 0.33045 0.87659 0.10522 0.0
H3893 H 0.33394 0.86284 0.13389 0.0
H3894 H 0.30015 0.8147 0.10813 0.0
H3895 H 0.2964 0.82846 0.07933 0.0
H3896 H 0.28897 0.82612 0.14114 0.0
H3897 H 0.36445 0.82615 0.14951 0.0
H3898 H 0.35847 0.84713 0.14559 0.0
H3899 H 0.35198 0.82931 0.12796 0.0
C3900 C 0.32395 0.86299 0.10554 0.0
C3901 C 0.31315 0.85361 0.08994 0.0
C3902 C 0.32606 0.85512 0.12195 0.0
C3903 C 0.31751 0.83767 0.12313 0.0
C3904 C 0.30697 0.82816 0.10751 0.0
H3905 H 0.30299 0.76713 0.20797 0.0
H3906 H 0.30527 0.78105 0.17947 0.0
C3907 C 0.30487 0.83602 0.09104 0.0
C3908 C 0.31849 0.82976 0.14094 0.0
H3909 H 0.34835 0.8188 0.17503 0.0
C3910 C 0.30195 0.82444 0.14848 0.0
C3911 C 0.33546 0.82775 0.15064 0.0
C3912 C 0.3536 0.83274 0.14298 0.0
C3913 C 0.30191 0.81726 0.16546 0.0
C3914 C 0.31883 0.81505 0.17504 0.0
C3915 C 0.33541 0.82053 0.16765 0.0
C3916 C 0.31931 0.80637 0.19237 0.0
C3917 C 0.28376 0.81228 0.17315 0.0
C3918 C 0.32717 0.8158 0.20908 0.0
C3919 C 0.32595 0.80784 0.22556 0.0
C3920 C 0.31688 0.7903 0.22554 0.0
C3921 C 0.30992 0.78071 0.20861 0.0
C3922 C 0.31114 0.78865 0.19225 0.0
H3923 H 0.27278 0.81855 0.16637 0.0
H3924 H 0.27909 0.79783 0.17097 0.0
H3925 H 0.28534 0.81608 0.18809 0.0
H3926 H 0.33365 0.82949 0.20944 0.0
H3927 H 0.33147 0.81562 0.2383 0.0
H3928 H 0.03301 0.58427 0.83637 0.0
H3929 H 0.04739 0.57776 0.8658 0.0
H3930 H 1.00094 0.58982 0.89166 0.0
H3931 H 0.98621 0.59609 0.86221 0.0
H3932 H 0.0573 0.5959 0.90114 0.0
H3933 H 1.00116 0.53773 0.89951 0.0
H3934 H 1.00485 0.54997 0.87986 0.0
H3935 H 0.99315 0.55816 0.89783 0.0
C3936 C 0.02594 0.58582 0.84834 0.0
C3937 C 1.00828 0.59038 0.84688 0.0
C3938 C 0.03423 0.58213 0.86515 0.0
C3939 C 0.02502 0.58296 0.88075 0.0
C3940 C 1.00806 0.58879 0.87964 0.0
H3941 H 0.05883 0.57208 0.99329 0.0
H3942 H 0.05387 0.5831 0.96338 0.0
C3943 C 0.99971 0.59242 0.86282 0.0
C3944 C 0.03238 0.57629 0.89773 0.0
H3945 H 0.02211 0.54445 0.92662 0.0
C3946 C 0.04968 0.58463 0.90673 0.0
C3947 C 0.02258 0.56131 0.90465 0.0
C3948 C 1.00449 0.55114 0.8949 0.0
C3949 C 0.05719 0.57866 0.9229 0.0
C3950 C 0.04695 0.56418 0.93027 0.0
C3951 C 0.02991 0.55559 0.92095 0.0
C3952 C 0.053 0.55813 0.9481 0.0
C3953 C 0.07602 0.58781 0.93184 0.0
C3954 C 0.05424 0.54042 0.94945 0.0
C3955 C 0.05682 0.53399 0.96658 0.0
C3956 C 0.05815 0.54518 0.98263 0.0
C3957 C 0.05787 0.56311 0.9812 0.0
C3958 C 0.0552 0.56949 0.96408 0.0
H3959 H 0.08432 0.59457 0.9218 0.0
H3960 H 0.07432 0.5979 0.94259 0.0
H3961 H 0.08382 0.57842 0.93835 0.0
H3962 H 0.0525 0.53143 0.93725 0.0
H3963 H 0.05704 0.52013 0.96722 0.0
H3964 H 0.32081 0.16126 0.60154 0.0
H3965 H 0.31804 0.17795 0.62991 0.0
H3966 H 0.31801 0.22449 0.6013 0.0
H3967 H 0.3213 0.20772 0.57257 0.0
H3968 H 0.33761 0.23353 0.63425 0.0
H3969 H 0.27286 0.19123 0.64688 0.0
H3970 H 0.29083 0.17872 0.64494 0.0
H3971 H 0.28243 0.18921 0.62552 0.0
C3972 C 0.3202 0.17505 0.60108 0.0
C3973 C 0.32117 0.18291 0.58436 0.0
C3974 C 0.31842 0.18466 0.61752 0.0
C3975 C 0.31721 0.20259 0.6181 0.0
C3976 C 0.31868 0.21069 0.60153 0.0
H3977 H 0.27805 0.25387 0.7147 0.0
H3978 H 0.28094 0.23995 0.68454 0.0
C3979 C 0.32058 0.20103 0.58496 0.0
C3980 C 0.31467 0.21265 0.63597 0.0
H3981 H 0.28887 0.2106 0.6723 0.0
C3982 C 0.32685 0.22848 0.64245 0.0
C3983 C 0.30047 0.2066 0.64693 0.0
C3984 C 0.28579 0.19062 0.64063 0.0
C3985 C 0.32561 0.23791 0.65939 0.0
C3986 C 0.31203 0.23133 0.67082 0.0
C3987 C 0.29953 0.21577 0.66405 0.0
C3988 C 0.31039 0.24032 0.68957 0.0
C3989 C 0.33872 0.25515 0.66456 0.0
C3990 C 0.32577 0.24524 0.70313 0.0
C3991 C 0.32414 0.2534 0.72049 0.0
C3992 C 0.30699 0.2568 0.72524 0.0
C3993 C 0.29154 0.25163 0.7118 0.0
C3994 C 0.2932 0.24356 0.69438 0.0
H3995 H 0.34363 0.26115 0.65228 0.0
H3996 H 0.3321 0.26467 0.67219 0.0
H3997 H 0.35103 0.25285 0.67335 0.0
H3998 H 0.33915 0.24255 0.70045 0.0
H3999 H 0.33643 0.2569 0.73031 0.0
H4000 H 0.60621 0.52336 0.29779 0.0
H4001 H 0.57893 0.51876 0.27483 0.0
H4002 H 0.61432 0.53059 0.23267 0.0
H4003 H 0.64153 0.53505 0.25536 0.0
H4004 H 0.56782 0.54302 0.25225 0.0
H4005 H 0.57993 0.48529 0.21084 0.0
H4006 H 0.59131 0.49169 0.23381 0.0
H4007 H 0.60044 0.5019 0.21462 0.0
C4008 C 0.60816 0.52482 0.28359 0.0
C4009 C 0.626 0.52954 0.27834 0.0
C4010 C 0.59258 0.52216 0.27053 0.0
C4011 C 0.59466 0.52399 0.25205 0.0
C4012 C 0.61246 0.52867 0.24681 0.0
H4013 H 0.55529 0.56584 0.16438 0.0
H4014 H 0.56114 0.55847 0.19554 0.0
C4015 C 0.62799 0.53136 0.25982 0.0
C4016 C 0.57839 0.52238 0.23818 0.0
H4017 H 0.56326 0.50515 0.19449 0.0
C4018 C 0.56642 0.5344 0.2398 0.0
C4019 C 0.57615 0.51075 0.22221 0.0
C4020 C 0.58753 0.49655 0.22036 0.0
C4021 C 0.5537 0.53645 0.22497 0.0
C4022 C 0.55331 0.52648 0.20813 0.0
C4023 C 0.56373 0.51304 0.20729 0.0
C4024 C 0.54544 0.53193 0.19061 0.0
C4025 C 0.54154 0.54994 0.22721 0.0
C4026 C 0.53437 0.51957 0.1774 0.0
C4027 C 0.53103 0.52377 0.15936 0.0
C4028 C 0.53884 0.54035 0.15425 0.0
C4029 C 0.54877 0.55306 0.16784 0.0
C4030 C 0.55208 0.54887 0.18579 0.0
H4031 H 0.53748 0.55061 0.24128 0.0
H4032 H 0.54938 0.56308 0.22513 0.0
H4033 H 0.52884 0.54696 0.21723 0.0
H4034 H 0.52921 0.50639 0.18081 0.0
H4035 H 0.52312 0.51377 0.14924 0.0
H4036 H 0.30091 0.84124 0.98799 0.0
H4037 H 0.2996 0.82548 0.95775 0.0
H4038 H 0.2797 0.868 0.93223 0.0
H4039 H 0.28067 0.88363 0.96215 0.0
H4040 H 0.26061 0.8356 0.91715 0.0
H4041 H 0.33654 0.83827 0.92109 0.0
H4042 H 0.32561 0.82812 0.93933 0.0
H4043 H 0.3263 0.85112 0.93707 0.0
C4044 C 0.29618 0.8472 0.97595 0.0
C4045 C 0.29102 0.86379 0.97758 0.0
C4046 C 0.29554 0.83821 0.95865 0.0
C4047 C 0.2898 0.84566 0.94265 0.0
C4048 C 0.28422 0.86198 0.94432 0.0
H4049 H 0.3119 0.82889 0.83143 0.0
H4050 H 0.30941 0.83927 0.86286 0.0
C4051 C 0.28484 0.87094 0.96152 0.0
C4052 C 0.28984 0.83681 0.92408 0.0
H4053 H 0.31841 0.82396 0.89436 0.0
C4054 C 0.27323 0.83293 0.9122 0.0
C4055 C 0.30634 0.83352 0.91753 0.0
C4056 C 0.32476 0.83808 0.92932 0.0
C4057 C 0.27269 0.82607 0.89395 0.0
C4058 C 0.28919 0.82276 0.88743 0.0
C4059 C 0.30575 0.82641 0.89938 0.0
C4060 C 0.28986 0.81644 0.86801 0.0
C4061 C 0.25461 0.82306 0.88163 0.0
C4062 C 0.27959 0.80014 0.86028 0.0
C4063 C 0.2809 0.79415 0.84217 0.0
C4064 C 0.29264 0.8043 0.83146 0.0
C4065 C 0.30272 0.82069 0.83921 0.0
C4066 C 0.30137 0.82665 0.85725 0.0
H4067 H 0.24432 0.83 0.88744 0.0
H4068 H 0.25672 0.82753 0.86789 0.0
H4069 H 0.24871 0.8088 0.8799 0.0
H4070 H 0.27085 0.79187 0.86838 0.0
H4071 H 0.27306 0.78141 0.83672 0.0
H4072 H 0.99495 0.62035 0.7571 0.0
H4073 H 1.01003 0.61079 0.73129 0.0
H4074 H 0.96112 0.5722 0.71203 0.0
H4075 H 0.9458 0.58201 0.73747 0.0
H4076 H 0.0169 0.57777 0.72925 0.0
H4077 H 0.97709 0.58855 0.6644 0.0
H4078 H 0.97463 0.59952 0.68614 0.0
H4079 H 0.96281 0.57729 0.67975 0.0
C4080 C 0.98716 0.61031 0.74695 0.0
C4081 C 0.96927 0.60184 0.74937 0.0
C4082 C 0.99582 0.60481 0.73227 0.0
C4083 C 0.98672 0.59076 0.71979 0.0
C4084 C 0.96829 0.58326 0.72132 0.0
H4085 H 0.02138 0.51762 0.64329 0.0
H4086 H 1.00565 0.53194 0.66592 0.0
C4087 C 0.95955 0.58888 0.73591 0.0
C4088 C 0.99734 0.58227 0.70706 0.0
H4089 H 0.99781 0.56819 0.66233 0.0
C4090 C 0.01286 0.57588 0.71459 0.0
C4091 C 0.9919 0.57963 0.68799 0.0
C4092 C 0.9758 0.58676 0.67906 0.0
C4093 C 0.02293 0.56669 0.70357 0.0
C4094 C 0.01736 0.56391 0.68457 0.0
C4095 C 1.00191 0.57031 0.67698 0.0
C4096 C 0.02759 0.55461 0.67224 0.0
C4097 C 0.03919 0.55967 0.71231 0.0
C4098 C 0.04524 0.56255 0.66866 0.0
C4099 C 0.0542 0.5545 0.65568 0.0
C4100 C 0.04562 0.53839 0.64605 0.0
C4101 C 0.02825 0.53013 0.65031 0.0
C4102 C 0.01926 0.53825 0.66322 0.0
H4103 H 0.03964 0.56016 0.72744 0.0
H4104 H 0.03869 0.54589 0.70685 0.0
H4105 H 0.05221 0.56766 0.70897 0.0
H4106 H 0.05176 0.57528 0.67542 0.0
H4107 H 0.06741 0.56136 0.65251 0.0
H4108 H 0.32922 0.21147 0.47999 0.0
H4109 H 0.32793 0.22608 0.45142 0.0
H4110 H 0.31137 0.17574 0.42048 0.0
H4111 H 0.31259 0.16113 0.44894 0.0
H4112 H 0.34637 0.22527 0.42076 0.0
H4113 H 0.2721 0.20061 0.39812 0.0
H4114 H 0.28245 0.19863 0.42097 0.0
H4115 H 0.28494 0.18343 0.40229 0.0
C4116 C 0.32524 0.20343 0.46714 0.0
C4117 C 0.32093 0.18494 0.46713 0.0
C4118 C 0.32453 0.21189 0.45063 0.0
C4119 C 0.31921 0.20227 0.43334 0.0
C4120 C 0.3151 0.18378 0.43334 0.0
H4121 H 0.30148 0.22821 0.31784 0.0
H4122 H 0.30433 0.21418 0.34649 0.0
C4123 C 0.31594 0.17533 0.44981 0.0
C4124 C 0.31823 0.21146 0.41551 0.0
H4125 H 0.2895 0.21519 0.37659 0.0
C4126 C 0.33384 0.22308 0.41121 0.0
C4127 C 0.30205 0.20883 0.40259 0.0
C4128 C 0.28437 0.19734 0.40624 0.0
C4129 C 0.33391 0.23155 0.39461 0.0
C4130 C 0.31769 0.229 0.3817 0.0
C4131 C 0.30206 0.21741 0.38608 0.0
C4132 C 0.31659 0.23794 0.36367 0.0
C4133 C 0.35179 0.24265 0.39087 0.0
C4134 C 0.32239 0.25625 0.363 0.0
C4135 C 0.32095 0.26439 0.34633 0.0
C4136 C 0.31338 0.25465 0.32953 0.0
C4137 C 0.30749 0.23637 0.33022 0.0
C4138 C 0.30906 0.22823 0.34684 0.0
H4139 H 0.36394 0.23871 0.39852 0.0
H4140 H 0.35342 0.24169 0.37607 0.0
H4141 H 0.35188 0.25658 0.39544 0.0
H4142 H 0.32771 0.26449 0.3755 0.0
H4143 H 0.3254 0.27847 0.34672 0.0
H4144 H 0.34529 0.62509 0.53828 0.0
H4145 H 0.37217 0.61453 0.52858 0.0
H4146 H 0.37897 0.65452 0.49073 0.0
H4147 H 0.35202 0.66539 0.50052 0.0
H4148 H 0.3741 0.60175 0.49243 0.0
H4149 H 0.43189 0.65728 0.51709 0.0
H4150 H 0.40974 0.65486 0.52584 0.0
H4151 H 0.41217 0.66257 0.50367 0.0
C4152 C 0.35259 0.63184 0.52806 0.0
C4153 C 0.34643 0.64606 0.52012 0.0
C4154 C 0.36797 0.62576 0.52252 0.0
C4155 C 0.37758 0.63376 0.50898 0.0
C4156 C 0.37188 0.64831 0.50138 0.0
H4157 H 0.45153 0.57551 0.45435 0.0
H4158 H 0.42823 0.5938 0.45896 0.0
C4159 C 0.35645 0.65447 0.50697 0.0
C4160 C 0.3927 0.62593 0.50212 0.0
H4161 H 0.43948 0.63267 0.50117 0.0
C4162 C 0.38838 0.60855 0.49418 0.0
C4163 C 0.41129 0.63485 0.50449 0.0
C4164 C 0.41669 0.65339 0.51334 0.0
C4165 C 0.40221 0.59963 0.48903 0.0
C4166 C 0.42085 0.60847 0.49158 0.0
C4167 C 0.42515 0.62601 0.4991 0.0
C4168 C 0.43613 0.59912 0.48816 0.0
C4169 C 0.39683 0.58058 0.4817 0.0
C4170 C 0.44865 0.59657 0.50292 0.0
C4171 C 0.462 0.5863 0.50032 0.0
C4172 C 0.46305 0.57828 0.48288 0.0
C4173 C 0.45089 0.58133 0.46797 0.0
C4174 C 0.43761 0.59177 0.47058 0.0
H4175 H 0.38246 0.57484 0.48393 0.0
H4176 H 0.39774 0.57948 0.46676 0.0
H4177 H 0.40638 0.57266 0.48827 0.0
H4178 H 0.44772 0.60209 0.5166 0.0
H4179 H 0.47103 0.58407 0.51213 0.0
H4180 H 0.85165 0.93227 0.55435 0.0
H4181 H 0.88444 0.94651 0.55541 0.0
H4182 H 0.87269 0.96444 0.50219 0.0
H4183 H 0.84036 0.95104 0.50136 0.0
H4184 H 0.91259 0.94373 0.5364 0.0
H4185 H 0.8982 0.01003 0.52702 0.0
H4186 H 0.88042 0.99222 0.53131 0.0
H4187 H 0.88642 0.99481 0.50844 0.0
C4188 C 0.85604 0.93931 0.54291 0.0
C4189 C 0.84297 0.94061 0.52791 0.0
C4190 C 0.87491 0.94752 0.54351 0.0
C4191 C 0.88134 0.95725 0.52913 0.0
C4192 C 0.86837 0.95782 0.5139 0.0
H4193 H 0.98914 0.01082 0.4992 0.0
H4194 H 0.95683 0.99589 0.49938 0.0
C4195 C 0.84966 0.9499 0.51339 0.0
C4196 C 0.9014 0.96657 0.52963 0.0
H4197 H 0.92853 1.00563 0.52185 0.0
C4198 C 0.91596 0.95731 0.53338 0.0
C4199 C 0.90632 0.98444 0.52577 0.0
C4200 C 0.89202 0.99599 0.52311 0.0
C4201 C 0.9348 0.96509 0.53286 0.0
C4202 C 0.93958 0.98274 0.5285 0.0
C4203 C 0.9251 0.99205 0.52492 0.0
C4204 C 0.95949 0.99192 0.52822 0.0
C4205 C 0.94949 0.95416 0.53662 0.0
C4206 C 0.97202 0.99508 0.54433 0.0
C4207 C 0.99043 1.00383 0.5443 0.0
C4208 C 0.9972 0.00972 0.52812 0.0
C4209 C 0.98465 1.00656 0.51194 0.0
C4210 C 0.96606 0.99797 0.51204 0.0
H4211 H 0.94354 0.93991 0.53571 0.0
H4212 H 0.95995 0.95638 0.52686 0.0
H4213 H 0.9567 0.95808 0.55064 0.0
H4214 H 0.96749 0.99089 0.5571 0.0
H4215 H 0.99946 1.00586 0.5571 0.0
H4216 H 0.88609 0.06828 0.25934 0.0
H4217 H 0.86896 0.0892 0.27237 0.0
H4218 H 0.81762 0.05769 0.24659 0.0
H4219 H 0.83473 0.03665 0.23329 0.0
H4220 H 0.82236 0.09266 0.23932 0.0
H4221 H 0.83623 0.08744 0.31376 0.0
H4222 H 0.85691 0.09025 0.30271 0.0
H4223 H 0.83958 0.07073 0.29683 0.0
C4224 C 0.87113 0.06565 0.25662 0.0
C4225 C 0.86175 0.05086 0.24523 0.0
C4226 C 0.86136 0.07754 0.26423 0.0
C4227 C 0.84202 0.07482 0.26069 0.0
C4228 C 0.83255 0.05989 0.24962 0.0
H4229 H 0.77372 0.15428 0.28012 0.0
H4230 H 0.78239 0.12566 0.27406 0.0
C4231 C 0.84233 0.04793 0.24202 0.0
C4232 C 0.83206 0.08858 0.26697 0.0
H4233 H 0.82679 0.11412 0.30482 0.0
C4234 C 0.82297 0.09715 0.25366 0.0
C4235 C 0.83297 0.09438 0.28567 0.0
C4236 C 0.8418 0.0851 0.30058 0.0
C4237 C 0.81567 0.11205 0.25848 0.0
C4238 C 0.81725 0.11829 0.27714 0.0
C4239 C 0.82567 0.10929 0.29052 0.0
C4240 C 0.81153 0.13492 0.28281 0.0
C4241 C 0.80723 0.12154 0.2435 0.0
C4242 C 0.82497 0.14936 0.29041 0.0
C4243 C 0.82006 0.16567 0.29407 0.0
C4244 C 0.80159 0.16778 0.29022 0.0
C4245 C 0.78804 0.15306 0.28334 0.0
C4246 C 0.79297 0.13674 0.27972 0.0
H4247 H 0.81029 0.11696 0.22976 0.0
H4248 H 0.79199 0.11916 0.24346 0.0
H4249 H 0.8124 0.13592 0.24589 0.0
H4250 H 0.83937 0.14814 0.29296 0.0
H4251 H 0.83075 0.17669 0.29966 0.0
H4252 H 0.75279 0.12606 0.01201 0.0
H4253 H 0.72276 0.10671 0.01058 0.0
H4254 H 0.69708 0.15152 0.02112 0.0
H4255 H 0.72724 0.17106 0.02281 0.0
H4256 H 0.68705 0.12427 0.04296 0.0
H4257 H 0.67945 0.09938 0.96981 0.0
H4258 H 0.70093 0.09706 0.98231 0.0
H4259 H 0.69606 0.11863 0.97923 0.0
C4260 C 0.74075 0.13184 0.01391 0.0
C4261 C 0.74237 0.1501 0.01749 0.0
C4262 C 0.72358 0.12076 0.01297 0.0
C4263 C 0.70768 0.12771 0.01546 0.0
C4264 C 0.70921 0.14593 0.01905 0.0
H4265 H 0.59422 0.07191 0.996 0.0
H4266 H 0.62383 0.09123 0.9948 0.0
C4267 C 0.72642 0.15706 0.01999 0.0
C4268 C 0.68962 0.11584 0.0151 0.0
H4269 H 0.65853 0.08409 0.98835 0.0
C4270 C 0.68074 0.11555 0.031 0.0
C4271 C 0.68138 0.10462 0.9994 0.0
C4272 C 0.68983 0.10501 0.98165 0.0
C4273 C 0.66399 0.10404 0.03177 0.0
C4274 C 0.65612 0.09234 0.01631 0.0
C4275 C 0.66477 0.09291 1.00027 0.0
C4276 C 0.63857 0.0798 0.01637 0.0
C4277 C 0.65474 0.10468 0.04903 0.0
C4278 C 0.63721 0.06663 0.02856 0.0
C4279 C 0.62028 0.05553 0.02932 0.0
C4280 C 0.60445 0.05739 0.01783 0.0
C4281 C 0.60609 0.07016 0.00513 0.0
C4282 C 0.62301 0.08122 1.00439 0.0
H4283 H 0.6601 0.1171 0.05781 0.0
H4284 H 0.63953 0.10337 0.04577 0.0
H4285 H 0.65746 0.09361 0.05702 0.0
H4286 H 0.6492 0.06511 0.03767 0.0
H4287 H 0.61954 0.0458 0.0392 0.0
H4288 H 0.14034 0.43203 0.29774 0.0
H4289 H 0.16501 0.41953 0.31391 0.0
H4290 H 0.20514 0.45019 0.28482 0.0
H4291 H 0.18078 0.46284 0.26888 0.0
H4292 H 0.18683 0.39988 0.29742 0.0
H4293 H 0.23101 0.45798 0.33672 0.0
H4294 H 0.2075 0.45799 0.32717 0.0
H4295 H 0.2261 0.46172 0.31314 0.0
C4296 C 0.15446 0.43627 0.295 0.0
C4297 C 0.15862 0.44839 0.28202 0.0
C4298 C 0.16853 0.42916 0.30427 0.0
C4299 C 0.18695 0.43419 0.30082 0.0
C4300 C 0.19111 0.44649 0.28808 0.0
H4301 H 0.28758 0.39969 0.30066 0.0
H4302 H 0.26199 0.41577 0.30099 0.0
C4303 C 0.17712 0.45357 0.27883 0.0
C4304 C 0.20162 0.42531 0.3089 0.0
H4305 H 0.24609 0.43342 0.32973 0.0
C4306 C 0.19962 0.40711 0.3049 0.0
C4307 C 0.21827 0.43481 0.31866 0.0
C4308 C 0.22078 0.45418 0.32434 0.0
C4309 C 0.21433 0.39835 0.30922 0.0
C4310 C 0.23135 0.40804 0.31801 0.0
C4311 C 0.23302 0.42606 0.32293 0.0
C4312 C 0.24804 0.40001 0.32029 0.0
C4313 C 0.21192 0.379 0.3033 0.0
C4314 C 0.24897 0.38628 0.33156 0.0
C4315 C 0.26352 0.377 0.33132 0.0
C4316 C 0.27735 0.38137 0.31981 0.0
C4317 C 0.27698 0.39588 0.30946 0.0
C4318 C 0.26245 0.40513 0.30972 0.0
H4319 H 0.19884 0.3741 0.29415 0.0
H4320 H 0.22368 0.3763 0.29605 0.0
H4321 H 0.21167 0.37146 0.31555 0.0
H4322 H 0.23805 0.38228 0.33995 0.0
H4323 H 0.26338 0.36582 0.33937 0.0
H4324 H 0.20889 0.40419 0.03006 0.0
H4325 H 0.18174 0.41851 0.02876 0.0
H4326 H 0.21763 0.46906 0.03932 0.0
H4327 H 0.24472 0.45483 0.04017 0.0
H4328 H 0.16685 0.43777 0.05169 0.0
H4329 H 0.18557 0.48064 0.99723 0.0
H4330 H 0.19801 0.46343 1.00311 0.0
H4331 H 0.20312 0.48438 0.01647 0.0
C4332 C 0.21109 0.41838 0.03201 0.0
C4333 C 0.22932 0.42819 0.03509 0.0
C4334 C 0.19538 0.42666 0.03129 0.0
C4335 C 0.19715 0.44514 0.0335 0.0
C4336 C 0.2154 0.45491 0.03693 0.0
H4337 H 0.12024 0.52096 0.03721 0.0
H4338 H 0.14675 0.50594 0.03788 0.0
C4339 C 0.23109 0.44665 0.0376 0.0
C4340 C 0.18009 0.45404 0.0326 0.0
H4341 H 0.16073 0.48675 0.01312 0.0
C4342 C 0.16558 0.44839 0.0431 0.0
C4343 C 0.17788 0.46804 0.0215 0.0
C4344 C 0.19187 0.47437 0.0088 0.0
C4345 C 0.14964 0.4564 0.0432 0.0
C4346 C 0.14752 0.47049 0.03221 0.0
C4347 C 0.16199 0.47609 0.02167 0.0
C4348 C 0.13071 0.4797 0.03163 0.0
C4349 C 0.13547 0.44996 0.05568 0.0
C4350 C 0.11231 0.47038 0.02759 0.0
C4351 C 0.0969 0.47906 0.02715 0.0
C4352 C 0.09917 0.4975 0.03067 0.0
C4353 C 0.11759 0.50681 0.03445 0.0
C4354 C 0.13297 0.49814 0.03482 0.0
H4355 H 0.14142 0.44306 0.06691 0.0
H4356 H 0.12974 0.46099 0.0618 0.0
H4357 H 0.12392 0.44053 0.04766 0.0
H4358 H 0.10976 0.45627 0.02455 0.0
H4359 H 0.08313 0.47123 0.02406 0.0
H4360 H 0.89013 0.94369 0.18583 0.0
H4361 H 0.87552 0.91339 0.189 0.0
H4362 H 0.84459 0.93184 0.23034 0.0
H4363 H 0.85851 0.96202 0.22678 0.0
H4364 H 0.87954 0.89648 0.218 0.0
H4365 H 0.80501 0.89597 0.20192 0.0
H4366 H 0.82237 0.91368 0.19648 0.0
H4367 H 0.81489 0.91354 0.21899 0.0
C4368 C 0.87989 0.9413 0.19529 0.0
C4369 C 0.87549 0.95526 0.20606 0.0
C4370 C 0.87157 0.92398 0.19709 0.0
C4371 C 0.85876 0.92033 0.20973 0.0
C4372 C 0.85399 0.93431 0.22011 0.0
H4373 H 0.84265 0.83484 0.27615 0.0
H4374 H 0.8534 0.861 0.26084 0.0
C4375 C 0.8621 0.9516 0.21815 0.0
C4376 C 0.85191 0.902 0.21364 0.0
H4377 H 0.81312 0.87433 0.22217 0.0
C4378 C 0.86497 0.8915 0.21856 0.0
C4379 C 0.8329 0.89531 0.21404 0.0
C4380 C 0.81802 0.90518 0.20736 0.0
C4381 C 0.85963 0.87495 0.22488 0.0
C4382 C 0.84081 0.86902 0.22694 0.0
C4383 C 0.82762 0.87903 0.22097 0.0
C4384 C 0.83457 0.8529 0.23598 0.0
C4385 C 0.87427 0.86409 0.22937 0.0
C4386 C 0.81998 0.83994 0.22739 0.0
C4387 C 0.8135 0.82517 0.23631 0.0
C4388 C 0.82159 0.82307 0.25395 0.0
C4389 C 0.83624 0.83603 0.2625 0.0
C4390 C 0.84252 0.85091 0.25369 0.0
H4391 H 0.88593 0.86725 0.22106 0.0
H4392 H 0.87998 0.86712 0.24398 0.0
H4393 H 0.86855 0.84981 0.22694 0.0
H4394 H 0.81357 0.84126 0.21379 0.0
H4395 H 0.80224 0.81536 0.22932 0.0
H4396 H 0.61186 0.03895 0.7134 0.0
H4397 H 0.62965 0.06862 0.71262 0.0
H4398 H 0.67777 0.05291 0.73993 0.0
H4399 H 0.66028 0.02331 0.74076 0.0
H4400 H 0.66378 0.08304 0.75747 0.0
H4401 H 0.67555 0.08877 0.68453 0.0
H4402 H 0.65284 0.07898 0.68951 0.0
H4403 H 0.67183 0.06783 0.69419 0.0
C4404 C 0.62634 0.04168 0.71885 0.0
C4405 C 0.63459 0.02878 0.72729 0.0
C4406 C 0.63647 0.05863 0.71838 0.0
C4407 C 0.65496 0.06287 0.72626 0.0
C4408 C 0.66349 0.04982 0.7338 0.0
H4409 H 0.74337 0.15103 0.73639 0.0
H4410 H 0.72227 0.12273 0.73033 0.0
C4411 C 0.65344 0.03291 0.73424 0.0
C4412 C 0.66498 0.08123 0.72839 0.0
H4413 H 0.68722 0.11367 0.70533 0.0
C4414 C 0.6688 0.08982 0.74608 0.0
C4415 C 0.67146 0.0899 0.71346 0.0
C4416 C 0.66785 0.08097 0.69431 0.0
C4417 C 0.67926 0.10686 0.7493 0.0
C4418 C 0.68593 0.1155 0.73441 0.0
C4419 C 0.68192 0.10699 0.71667 0.0
C4420 C 0.69823 0.13287 0.73728 0.0
C4421 C 0.68364 0.11529 0.76867 0.0
C4422 C 0.69159 0.14792 0.74306 0.0
C4423 C 0.70364 0.16412 0.74662 0.0
C4424 C 0.7225 0.16545 0.74454 0.0
C4425 C 0.72898 0.15035 0.73846 0.0
C4426 C 0.71694 0.13423 0.73482 0.0
H4427 H 0.67982 0.10582 0.77889 0.0
H4428 H 0.69862 0.12096 0.77167 0.0
H4429 H 0.67586 0.12616 0.77032 0.0
H4430 H 0.67714 0.14709 0.74494 0.0
H4431 H 0.69828 0.17553 0.75129 0.0
loop_
_geom_bond_atom_site_label_1
_geom_bond_atom_site_label_2
_geom_bond_distance
_geom_bond_site_symmetry_2
_ccdc_geom_bond_type
C0 O1 1.306 . S
C0 O3 1.160 . S
O1 C0 1.306 . S
O1 Cd2 2.228 . S
Cd2 O1 2.228 . S
Cd2 O6 2.273 . S
Cd2 O10 2.277 . S
O3 C0 1.160 . S
O3 Cd4 2.203 . S
Cd4 O3 2.203 . S
Cd4 O6 2.411 . S
Cd4 O7 2.333 . S
Cd4 O8 2.352 . S
Cd4 O12 2.277 . S
Cd4 O13 2.356 . S
C5 O10 1.209 . S
C5 O12 1.226 . S
O6 Cd2 2.273 . S
O6 Cd4 2.411 . S
O6 C9 1.320 . S
O7 Cd4 2.333 . S
O7 C9 1.214 . S
O8 Cd4 2.352 . S
O8 C11 1.258 . S
C9 O6 1.320 . S
C9 O7 1.214 . S
O10 Cd2 2.277 . S
O10 C5 1.209 . S
C11 O8 1.258 . S
C11 O13 1.282 . S
O12 Cd4 2.277 . S
O12 C5 1.226 . S
O13 Cd4 2.356 . S
O13 C11 1.282 . S
C14 O15 1.306 . S
C14 O17 1.160 . S
O15 C14 1.306 . S
O15 Cd16 2.228 . S
Cd16 O15 2.228 . S
Cd16 O20 2.273 . S
Cd16 O24 2.277 . S
O17 C14 1.160 . S
O17 Cd18 2.203 . S
Cd18 O17 2.203 . S
Cd18 O20 2.411 . S
Cd18 O21 2.333 . S
Cd18 O22 2.352 . S
Cd18 O26 2.277 . S
Cd18 O27 2.356 . S
C19 O24 1.209 . S
C19 O26 1.226 . S
O20 Cd16 2.273 . S
O20 Cd18 2.411 . S
O20 C23 1.320 . S
O21 Cd18 2.333 . S
O21 C23 1.214 . S
O22 Cd18 2.352 . S
O22 C25 1.258 . S
C23 O20 1.320 . S
C23 O21 1.214 . S
O24 Cd16 2.277 . S
O24 C19 1.209 . S
C25 O22 1.258 . S
C25 O27 1.282 . S
O26 Cd18 2.277 . S
O26 C19 1.226 . S
O27 Cd18 2.356 . S
O27 C25 1.282 . S
C28 O29 1.306 . S
C28 O31 1.160 . S
O29 C28 1.306 . S
O29 Cd30 2.228 . S
Cd30 O29 2.228 . S
Cd30 O34 2.273 . S
Cd30 O38 2.277 . S
O31 C28 1.160 . S
O31 Cd32 2.203 . S
Cd32 O31 2.203 . S
Cd32 O34 2.411 . S
Cd32 O35 2.333 . S
Cd32 O36 2.352 . S
Cd32 O40 2.277 . S
Cd32 O41 2.356 . S
C33 O38 1.209 . S
C33 O40 1.226 . S
O34 Cd30 2.273 . S
O34 Cd32 2.411 . S
O34 C37 1.320 . S
O35 Cd32 2.333 . S
O35 C37 1.214 . S
O36 Cd32 2.352 . S
O36 C39 1.258 . S
C37 O34 1.320 . S
C37 O35 1.214 . S
O38 Cd30 2.277 . S
O38 C33 1.209 . S
C39 O36 1.258 . S
C39 O41 1.282 . S
O40 Cd32 2.277 . S
O40 C33 1.226 . S
O41 Cd32 2.356 . S
O41 C39 1.282 . S
C42 O43 1.306 . S
C42 O45 1.160 . S
O43 C42 1.306 . S
O43 Cd44 2.228 . S
Cd44 O43 2.228 . S
Cd44 O48 2.273 . S
Cd44 O52 2.277 . S
O45 C42 1.160 . S
O45 Cd46 2.203 . S
Cd46 O45 2.203 . S
Cd46 O48 2.411 . S
Cd46 O49 2.333 . S
Cd46 O50 2.352 . S
Cd46 O54 2.277 . S
Cd46 O55 2.356 . S
C47 O52 1.209 . S
C47 O54 1.226 . S
O48 Cd44 2.273 . S
O48 Cd46 2.411 . S
O48 C51 1.320 . S
O49 Cd46 2.333 . S
O49 C51 1.214 . S
O50 Cd46 2.352 . S
O50 C53 1.258 . S
C51 O48 1.320 . S
C51 O49 1.214 . S
O52 Cd44 2.277 . S
O52 C47 1.209 . S
C53 O50 1.258 . S
C53 O55 1.282 . S
O54 Cd46 2.277 . S
O54 C47 1.226 . S
O55 Cd46 2.356 . S
O55 C53 1.282 . S
C56 O57 1.306 . S
C56 O59 1.160 . S
O57 C56 1.306 . S
O57 Cd58 2.228 . S
Cd58 O57 2.228 . S
Cd58 O62 2.273 . S
Cd58 O66 2.277 . S
O59 C56 1.160 . S
O59 Cd60 2.203 . S
Cd60 O59 2.203 . S
Cd60 O62 2.411 . S
Cd60 O63 2.333 . S
Cd60 O64 2.352 . S
Cd60 O68 2.277 . S
Cd60 O69 2.356 . S
C61 O66 1.209 . S
C61 O68 1.226 . S
O62 Cd58 2.273 . S
O62 Cd60 2.411 . S
O62 C65 1.320 . S
O63 Cd60 2.333 . S
O63 C65 1.214 . S
O64 Cd60 2.352 . S
O64 C67 1.258 . S
C65 O62 1.320 . S
C65 O63 1.214 . S
O66 Cd58 2.277 . S
O66 C61 1.209 . S
C67 O64 1.258 . S
C67 O69 1.282 . S
O68 Cd60 2.277 . S
O68 C61 1.226 . S
O69 Cd60 2.356 . S
O69 C67 1.282 . S
C70 O71 1.306 . S
C70 O73 1.160 . S
O71 C70 1.306 . S
O71 Cd72 2.228 . S
Cd72 O71 2.228 . S
Cd72 O76 2.273 . S
Cd72 O80 2.277 . S
O73 C70 1.160 . S
O73 Cd74 2.203 . S
Cd74 O73 2.203 . S
Cd74 O76 2.411 . S
Cd74 O77 2.333 . S
Cd74 O78 2.352 . S
Cd74 O82 2.277 . S
Cd74 O83 2.356 . S
C75 O80 1.209 . S
C75 O82 1.226 . S
O76 Cd72 2.273 . S
O76 Cd74 2.411 . S
O76 C79 1.320 . S
O77 Cd74 2.333 . S
O77 C79 1.214 . S
O78 Cd74 2.352 . S
O78 C81 1.258 . S
C79 O76 1.320 . S
C79 O77 1.214 . S
O80 Cd72 2.277 . S
O80 C75 1.209 . S
C81 O78 1.258 . S
C81 O83 1.282 . S
O82 Cd74 2.277 . S
O82 C75 1.226 . S
O83 Cd74 2.356 . S
O83 C81 1.282 . S
C84 O85 1.306 . S
C84 O87 1.160 . S
O85 C84 1.306 . S
O85 Cd86 2.228 . S
Cd86 O85 2.228 . S
Cd86 O90 2.273 . S
Cd86 O94 2.277 . S
O87 C84 1.160 . S
O87 Cd88 2.203 . S
Cd88 O87 2.203 . S
Cd88 O90 2.411 . S
Cd88 O91 2.333 . S
Cd88 O92 2.352 . S
Cd88 O96 2.277 . S
Cd88 O97 2.356 . S
C89 O94 1.209 . S
C89 O96 1.226 . S
O90 Cd86 2.273 . S
O90 Cd88 2.411 . S
O90 C93 1.320 . S
O91 Cd88 2.333 . S
O91 C93 1.214 . S
O92 Cd88 2.352 . S
O92 C95 1.258 . S
C93 O90 1.320 . S
C93 O91 1.214 . S
O94 Cd86 2.277 . S
O94 C89 1.209 . S
C95 O92 1.258 . S
C95 O97 1.282 . S
O96 Cd88 2.277 . S
O96 C89 1.226 . S
O97 Cd88 2.356 . S
O97 C95 1.282 . S
C98 O99 1.306 . S
C98 O101 1.160 . S
O99 C98 1.306 . S
O99 Cd100 2.228 1_655 S
Cd100 O99 2.228 1_455 S
Cd100 O104 2.273 . S
Cd100 O108 2.277 . S
O101 C98 1.160 . S
O101 Cd102 2.203 1_655 S
Cd102 O101 2.203 1_455 S
Cd102 O104 2.411 . S
Cd102 O105 2.333 . S
Cd102 O106 2.352 1_455 S
Cd102 O110 2.277 . S
Cd102 O111 2.356 . S
C103 O108 1.209 . S
C103 O110 1.226 . S
O104 Cd100 2.273 . S
O104 Cd102 2.411 . S
O104 C107 1.320 . S
O105 Cd102 2.333 . S
O105 C107 1.214 . S
O106 Cd102 2.352 1_655 S
O106 C109 1.262 . S
C107 O104 1.320 . S
C107 O105 1.214 . S
O108 Cd100 2.277 . S
O108 C103 1.209 . S
C109 O106 1.262 . S
C109 O111 1.281 1_655 S
O110 Cd102 2.277 . S
O110 C103 1.226 . S
O111 Cd102 2.356 . S
O111 C109 1.281 1_455 S
C112 O113 1.306 . S
C112 O115 1.160 . S
O113 C112 1.306 . S
O113 Cd114 2.228 . S
Cd114 O113 2.228 . S
Cd114 O118 2.273 . S
Cd114 O122 2.277 . S
O115 C112 1.160 . S
O115 Cd116 2.203 . S
Cd116 O115 2.203 . S
Cd116 O118 2.411 . S
Cd116 O119 2.333 . S
Cd116 O120 2.352 . S
Cd116 O124 2.277 . S
Cd116 O125 2.356 . S
C117 O122 1.209 . S
C117 O124 1.226 . S
O118 Cd114 2.273 . S
O118 Cd116 2.411 . S
O118 C121 1.320 . S
O119 Cd116 2.333 . S
O119 C121 1.214 . S
O120 Cd116 2.352 . S
O120 C123 1.258 . S
C121 O118 1.320 . S
C121 O119 1.214 . S
O122 Cd114 2.277 . S
O122 C117 1.209 . S
C123 O120 1.258 . S
C123 O125 1.282 . S
O124 Cd116 2.277 . S
O124 C117 1.226 . S
O125 Cd116 2.356 . S
O125 C123 1.282 . S
C126 O127 1.306 . S
C126 O129 1.160 . S
O127 C126 1.306 . S
O127 Cd128 2.228 . S
Cd128 O127 2.228 . S
Cd128 O132 2.273 . S
Cd128 O136 2.277 . S
O129 C126 1.160 . S
O129 Cd130 2.203 . S
Cd130 O129 2.203 . S
Cd130 O132 2.411 . S
Cd130 O133 2.333 . S
Cd130 O134 2.352 . S
Cd130 O138 2.277 . S
Cd130 O139 2.356 . S
C131 O136 1.209 . S
C131 O138 1.226 . S
O132 Cd128 2.273 . S
O132 Cd130 2.411 . S
O132 C135 1.320 . S
O133 Cd130 2.333 . S
O133 C135 1.214 . S
O134 Cd130 2.352 . S
O134 C137 1.258 . S
C135 O132 1.320 . S
C135 O133 1.214 . S
O136 Cd128 2.277 . S
O136 C131 1.209 . S
C137 O134 1.258 . S
C137 O139 1.282 . S
O138 Cd130 2.277 . S
O138 C131 1.226 . S
O139 Cd130 2.356 . S
O139 C137 1.282 . S
C140 O141 1.306 . S
C140 O143 1.160 . S
O141 C140 1.306 . S
O141 Cd142 2.228 . S
Cd142 O141 2.228 . S
Cd142 O146 2.273 . S
Cd142 O150 2.277 . S
O143 C140 1.160 . S
O143 Cd144 2.203 . S
Cd144 O143 2.203 . S
Cd144 O146 2.411 . S
Cd144 O147 2.333 . S
Cd144 O148 2.352 . S
Cd144 O152 2.277 . S
Cd144 O153 2.356 . S
C145 O150 1.209 . S
C145 O152 1.226 . S
O146 Cd142 2.273 . S
O146 Cd144 2.411 . S
O146 C149 1.320 . S
O147 Cd144 2.333 . S
O147 C149 1.214 . S
O148 Cd144 2.352 . S
O148 C151 1.258 . S
C149 O146 1.320 . S
C149 O147 1.214 . S
O150 Cd142 2.277 . S
O150 C145 1.209 . S
C151 O148 1.258 . S
C151 O153 1.282 . S
O152 Cd144 2.277 . S
O152 C145 1.226 . S
O153 Cd144 2.356 . S
O153 C151 1.282 . S
C154 O155 1.306 . S
C154 O157 1.160 . S
O155 C154 1.306 . S
O155 Cd156 2.228 . S
Cd156 O155 2.228 . S
Cd156 O160 2.273 . S
Cd156 O164 2.277 . S
O157 C154 1.160 . S
O157 Cd158 2.203 . S
Cd158 O157 2.203 . S
Cd158 O160 2.411 . S
Cd158 O161 2.333 . S
Cd158 O162 2.352 . S
Cd158 O166 2.277 . S
Cd158 O167 2.356 . S
C159 O164 1.209 . S
C159 O166 1.226 . S
O160 Cd156 2.273 . S
O160 Cd158 2.411 . S
O160 C163 1.320 . S
O161 Cd158 2.333 . S
O161 C163 1.214 . S
O162 Cd158 2.352 . S
O162 C165 1.258 . S
C163 O160 1.320 . S
C163 O161 1.214 . S
O164 Cd156 2.277 . S
O164 C159 1.209 . S
C165 O162 1.258 . S
C165 O167 1.282 . S
O166 Cd158 2.277 . S
O166 C159 1.226 . S
O167 Cd158 2.356 . S
O167 C165 1.282 . S
C168 O169 1.306 . S
C168 O171 1.160 . S
O169 C168 1.306 . S
O169 Cd170 2.228 . S
Cd170 O169 2.228 . S
Cd170 O174 2.273 . S
Cd170 O178 2.277 1_554 S
O171 C168 1.160 . S
O171 Cd172 2.203 . S
Cd172 O171 2.203 . S
Cd172 O174 2.411 . S
Cd172 O175 2.333 . S
Cd172 O176 2.352 . S
Cd172 O180 2.277 . S
Cd172 O181 2.356 . S
C173 O178 1.209 . S
C173 O180 1.226 1_556 S
O174 Cd170 2.273 . S
O174 Cd172 2.411 . S
O174 C177 1.320 . S
O175 Cd172 2.333 . S
O175 C177 1.214 . S
O176 Cd172 2.352 . S
O176 C179 1.258 . S
C177 O174 1.320 . S
C177 O175 1.214 . S
O178 Cd170 2.277 1_556 S
O178 C173 1.209 . S
C179 O176 1.258 . S
C179 O181 1.282 . S
O180 Cd172 2.277 . S
O180 C173 1.226 1_554 S
O181 Cd172 2.356 . S
O181 C179 1.282 . S
C182 O183 1.306 . S
C182 O185 1.161 1_554 S
O183 C182 1.306 . S
O183 Cd184 2.228 . S
Cd184 O183 2.228 . S
Cd184 O188 2.225 1_554 S
Cd184 O192 2.277 . S
O185 C182 1.161 1_556 S
O185 Cd186 2.203 . S
Cd186 O185 2.203 . S
Cd186 O188 2.422 . S
Cd186 O189 2.333 . S
Cd186 O190 2.352 . S
Cd186 O194 2.277 1_556 S
Cd186 O195 2.356 . S
C187 O192 1.209 . S
C187 O194 1.226 . S
O188 Cd184 2.225 1_556 S
O188 Cd186 2.422 . S
O188 C191 1.324 . S
O189 Cd186 2.333 . S
O189 C191 1.214 . S
O190 Cd186 2.352 . S
O190 C193 1.258 . S
C191 O188 1.324 . S
C191 O189 1.214 . S
O192 Cd184 2.277 . S
O192 C187 1.209 . S
C193 O190 1.258 . S
C193 O195 1.282 . S
O194 Cd186 2.277 1_554 S
O194 C187 1.226 . S
O195 Cd186 2.356 . S
O195 C193 1.282 . S
C196 O197 1.306 . S
C196 O199 1.160 . S
O197 C196 1.306 . S
O197 Cd198 2.228 . S
Cd198 O197 2.228 . S
Cd198 O202 2.273 . S
Cd198 O206 2.277 . S
O199 C196 1.160 . S
O199 Cd200 2.203 . S
Cd200 O199 2.203 . S
Cd200 O202 2.411 . S
Cd200 O203 2.333 . S
Cd200 O204 2.352 . S
Cd200 O208 2.277 . S
Cd200 O209 2.356 . S
C201 O206 1.209 . S
C201 O208 1.226 . S
O202 Cd198 2.273 . S
O202 Cd200 2.411 . S
O202 C205 1.320 . S
O203 Cd200 2.333 . S
O203 C205 1.214 . S
O204 Cd200 2.352 . S
O204 C207 1.258 . S
C205 O202 1.320 . S
C205 O203 1.214 . S
O206 Cd198 2.277 . S
O206 C201 1.209 . S
C207 O204 1.258 . S
C207 O209 1.282 . S
O208 Cd200 2.277 . S
O208 C201 1.226 . S
O209 Cd200 2.356 . S
O209 C207 1.282 . S
C210 O211 1.306 . S
C210 O213 1.160 . S
O211 C210 1.306 . S
O211 Cd212 2.228 . S
Cd212 O211 2.228 . S
Cd212 O216 2.273 . S
Cd212 O220 2.277 . S
O213 C210 1.160 . S
O213 Cd214 2.203 . S
Cd214 O213 2.203 . S
Cd214 O216 2.411 . S
Cd214 O217 2.333 . S
Cd214 O218 2.352 . S
Cd214 O222 2.277 . S
Cd214 O223 2.356 . S
C215 O220 1.209 . S
C215 O222 1.226 . S
O216 Cd212 2.273 . S
O216 Cd214 2.411 . S
O216 C219 1.320 . S
O217 Cd214 2.333 . S
O217 C219 1.214 . S
O218 Cd214 2.352 . S
O218 C221 1.258 . S
C219 O216 1.320 . S
C219 O217 1.214 . S
O220 Cd212 2.277 . S
O220 C215 1.209 . S
C221 O218 1.258 . S
C221 O223 1.282 . S
O222 Cd214 2.277 . S
O222 C215 1.226 . S
O223 Cd214 2.356 . S
O223 C221 1.282 . S
C224 O225 1.306 1_545 S
C224 O227 1.160 . S
O225 C224 1.306 1_565 S
O225 Cd226 2.228 . S
Cd226 O225 2.228 . S
Cd226 O230 2.273 1_565 S
Cd226 O234 2.277 . S
O227 C224 1.160 . S
O227 Cd228 2.203 . S
Cd228 O227 2.203 . S
Cd228 O230 2.411 . S
Cd228 O231 2.333 . S
Cd228 O232 2.352 . S
Cd228 O236 2.277 1_545 S
Cd228 O237 2.356 . S
C229 O234 1.209 . S
C229 O236 1.226 . S
O230 Cd226 2.273 1_545 S
O230 Cd228 2.411 . S
O230 C233 1.320 . S
O231 Cd228 2.333 . S
O231 C233 1.214 . S
O232 Cd228 2.352 . S
O232 C235 1.258 . S
C233 O230 1.320 . S
C233 O231 1.214 . S
O234 Cd226 2.277 . S
O234 C229 1.209 . S
C235 O232 1.258 . S
C235 O237 1.282 . S
O236 Cd228 2.277 1_565 S
O236 C229 1.226 . S
O237 Cd228 2.356 . S
O237 C235 1.282 . S
C238 O239 1.306 . S
C238 O241 1.160 . S
O239 C238 1.306 . S
O239 Cd240 2.228 . S
Cd240 O239 2.228 . S
Cd240 O244 2.273 . S
Cd240 O248 2.277 . S
O241 C238 1.160 . S
O241 Cd242 2.203 . S
Cd242 O241 2.203 . S
Cd242 O244 2.411 . S
Cd242 O245 2.333 . S
Cd242 O246 2.352 . S
Cd242 O250 2.277 . S
Cd242 O251 2.356 . S
C243 O248 1.209 . S
C243 O250 1.226 . S
O244 Cd240 2.273 . S
O244 Cd242 2.411 . S
O244 C247 1.320 . S
O245 Cd242 2.333 . S
O245 C247 1.214 . S
O246 Cd242 2.352 . S
O246 C249 1.258 . S
C247 O244 1.320 . S
C247 O245 1.214 . S
O248 Cd240 2.277 . S
O248 C243 1.209 . S
C249 O246 1.258 . S
C249 O251 1.282 . S
O250 Cd242 2.277 . S
O250 C243 1.226 . S
O251 Cd242 2.356 . S
O251 C249 1.282 . S
C252 O253 1.306 . S
C252 O255 1.160 . S
O253 C252 1.306 . S
O253 Cd254 2.228 . S
Cd254 O253 2.228 . S
Cd254 O258 2.273 . S
Cd254 O262 2.277 . S
O255 C252 1.160 . S
O255 Cd256 2.203 . S
Cd256 O255 2.203 . S
Cd256 O258 2.411 . S
Cd256 O259 2.333 . S
Cd256 O260 2.352 . S
Cd256 O264 2.277 . S
Cd256 O265 2.356 . S
C257 O262 1.209 . S
C257 O264 1.226 . S
O258 Cd254 2.273 . S
O258 Cd256 2.411 . S
O258 C261 1.320 . S
O259 Cd256 2.333 . S
O259 C261 1.214 . S
O260 Cd256 2.352 . S
O260 C263 1.258 . S
C261 O258 1.320 . S
C261 O259 1.214 . S
O262 Cd254 2.277 . S
O262 C257 1.209 . S
C263 O260 1.258 . S
C263 O265 1.282 . S
O264 Cd256 2.277 . S
O264 C257 1.226 . S
O265 Cd256 2.356 . S
O265 C263 1.282 . S
C266 O267 1.306 . S
C266 O269 1.140 1_545 S
O267 C266 1.306 . S
O267 Cd268 2.228 . S
Cd268 O267 2.228 . S
Cd268 O272 2.273 1_545 S
Cd268 O276 2.277 . S
O269 C266 1.140 1_565 S
O269 Cd270 2.205 . S
Cd270 O269 2.205 . S
Cd270 O272 2.411 . S
Cd270 O273 2.333 . S
Cd270 O274 2.352 . S
Cd270 O278 2.277 1_565 S
Cd270 O279 2.356 . S
C271 O276 1.209 . S
C271 O278 1.226 . S
O272 Cd268 2.273 1_565 S
O272 Cd270 2.411 . S
O272 C275 1.320 . S
O273 Cd270 2.333 . S
O273 C275 1.214 . S
O274 Cd270 2.352 . S
O274 C277 1.258 . S
C275 O272 1.320 . S
C275 O273 1.214 . S
O276 Cd268 2.277 . S
O276 C271 1.209 . S
C277 O274 1.258 . S
C277 O279 1.282 . S
O278 Cd270 2.277 1_545 S
O278 C271 1.226 . S
O279 Cd270 2.356 . S
O279 C277 1.282 . S
C280 O281 1.306 . S
C280 O283 1.160 . S
O281 C280 1.306 . S
O281 Cd282 2.228 . S
Cd282 O281 2.228 . S
Cd282 O286 2.273 . S
Cd282 O290 2.277 . S
O283 C280 1.160 . S
O283 Cd284 2.203 . S
Cd284 O283 2.203 . S
Cd284 O286 2.411 . S
Cd284 O287 2.333 . S
Cd284 O288 2.352 1_554 S
Cd284 O292 2.277 . S
Cd284 O293 2.316 1_554 S
C285 O290 1.209 . S
C285 O292 1.226 . S
O286 Cd282 2.273 . S
O286 Cd284 2.411 . S
O286 C289 1.320 . S
O287 Cd284 2.333 . S
O287 C289 1.214 . S
O288 Cd284 2.352 1_556 S
O288 C291 1.258 . S
C289 O286 1.320 . S
C289 O287 1.214 . S
O290 Cd282 2.277 . S
O290 C285 1.209 . S
C291 O288 1.258 . S
C291 O293 1.327 . S
O292 Cd284 2.277 . S
O292 C285 1.226 . S
O293 Cd284 2.316 1_556 S
O293 C291 1.327 . S
C294 O295 1.306 . S
C294 O297 1.160 . S
O295 C294 1.306 . S
O295 Cd296 2.228 . S
Cd296 O295 2.228 . S
Cd296 O300 2.273 . S
Cd296 O304 2.277 . S
O297 C294 1.160 . S
O297 Cd298 2.203 . S
Cd298 O297 2.203 . S
Cd298 O300 2.411 . S
Cd298 O301 2.333 . S
Cd298 O302 2.352 . S
Cd298 O306 2.277 . S
Cd298 O307 2.356 . S
C299 O304 1.209 . S
C299 O306 1.226 . S
O300 Cd296 2.273 . S
O300 Cd298 2.411 . S
O300 C303 1.320 . S
O301 Cd298 2.333 . S
O301 C303 1.214 . S
O302 Cd298 2.352 . S
O302 C305 1.258 . S
C303 O300 1.320 . S
C303 O301 1.214 . S
O304 Cd296 2.277 . S
O304 C299 1.209 . S
C305 O302 1.258 . S
C305 O307 1.282 . S
O306 Cd298 2.277 . S
O306 C299 1.226 . S
O307 Cd298 2.356 . S
O307 C305 1.282 . S
C308 O309 1.306 . S
C308 O311 1.160 . S
O309 C308 1.306 . S
O309 Cd310 2.228 . S
Cd310 O309 2.228 . S
Cd310 O314 2.273 . S
Cd310 O318 2.277 . S
O311 C308 1.160 . S
O311 Cd312 2.203 . S
Cd312 O311 2.203 . S
Cd312 O314 2.411 . S
Cd312 O315 2.333 . S
Cd312 O316 2.352 . S
Cd312 O320 2.277 . S
Cd312 O321 2.356 . S
C313 O318 1.209 . S
C313 O320 1.226 . S
O314 Cd310 2.273 . S
O314 Cd312 2.411 . S
O314 C317 1.320 . S
O315 Cd312 2.333 . S
O315 C317 1.214 . S
O316 Cd312 2.352 . S
O316 C319 1.258 . S
C317 O314 1.320 . S
C317 O315 1.214 . S
O318 Cd310 2.277 . S
O318 C313 1.209 . S
C319 O316 1.258 . S
C319 O321 1.282 . S
O320 Cd312 2.277 . S
O320 C313 1.226 . S
O321 Cd312 2.356 . S
O321 C319 1.282 . S
C322 O323 1.306 . S
C322 O325 1.160 . S
O323 C322 1.306 . S
O323 Cd324 2.228 . S
Cd324 O323 2.228 . S
Cd324 O328 2.273 . S
Cd324 O332 2.277 . S
O325 C322 1.160 . S
O325 Cd326 2.203 . S
Cd326 O325 2.203 . S
Cd326 O328 2.411 . S
Cd326 O329 2.333 . S
Cd326 O330 2.352 . S
Cd326 O334 2.277 . S
Cd326 O335 2.356 . S
C327 O332 1.209 . S
C327 O334 1.226 . S
O328 Cd324 2.273 . S
O328 Cd326 2.411 . S
O328 C331 1.320 . S
O329 Cd326 2.333 . S
O329 C331 1.214 . S
O330 Cd326 2.352 . S
O330 C333 1.258 . S
C331 O328 1.320 . S
C331 O329 1.214 . S
O332 Cd324 2.277 . S
O332 C327 1.209 . S
C333 O330 1.258 . S
C333 O335 1.282 . S
O334 Cd326 2.277 . S
O334 C327 1.226 . S
O335 Cd326 2.356 . S
O335 C333 1.282 . S
Tb336 C346 2.825 1_455 S
Tb336 O347 2.347 . S
Tb336 O350 2.366 . S
Tb336 O355 2.418 1_554 S
Tb336 O356 2.384 1_545 S
Tb336 O359 2.479 1_454 S
Tb336 O360 2.471 1_455 S
Eu337 O348 2.418 . S
Eu337 O349 2.384 . S
Eu337 O352 2.479 . S
Eu337 O353 2.471 . S
Eu337 O354 2.347 . S
Eu337 O357 2.366 . S
Eu337 C367 2.825 . S
C338 O354 1.259 1_556 S
C338 O355 1.265 . S
C339 O356 1.255 . S
C339 O357 1.265 1_565 S
C340 C342 1.380 . S
C340 C343 1.374 1_556 S
C340 C346 1.507 1_556 S
C341 C342 1.384 . S
C341 C345 1.387 . S
C341 H368 0.930 . S
C342 C340 1.380 . S
C342 C341 1.384 . S
C342 H369 0.931 . S
C343 C340 1.374 1_554 S
C343 C344 1.390 . S
C343 H370 0.930 . S
C344 C343 1.390 . S
C344 C345 1.391 1_554 S
C344 H371 0.930 . S
C345 C341 1.387 . S
C345 C344 1.391 1_556 S
C346 Tb336 2.825 1_655 S
C346 C340 1.507 1_554 S
C346 O359 1.238 1_554 S
C346 O360 1.247 . S
O347 Tb336 2.347 . S
O347 C351 1.259 . S
O348 Eu337 2.418 . S
O348 C351 1.265 . S
O349 Eu337 2.384 . S
O349 C358 1.255 . S
O350 Tb336 2.366 . S
O350 C358 1.265 . S
C351 O347 1.259 . S
C351 O348 1.265 . S
O352 Eu337 2.479 . S
O352 C367 1.238 . S
O353 Eu337 2.471 . S
O353 C367 1.247 . S
O354 Eu337 2.347 . S
O354 C338 1.259 1_554 S
O355 Tb336 2.418 1_556 S
O355 C338 1.265 . S
O356 Tb336 2.384 1_565 S
O356 C339 1.255 . S
O357 Eu337 2.366 . S
O357 C339 1.265 1_545 S
C358 O349 1.255 . S
C358 O350 1.265 . S
O359 Tb336 2.479 1_656 S
O359 C346 1.238 1_556 S
O360 Tb336 2.471 1_655 S
O360 C346 1.247 . S
C361 C364 1.380 . S
C361 C365 1.374 1_545 S
C361 C367 1.507 . S
C362 C363 1.387 1_565 S
C362 C366 1.391 . S
C363 C362 1.387 1_545 S
C363 C364 1.384 . S
C363 H372 0.930 . S
C364 C361 1.380 . S
C364 C363 1.384 . S
C364 H373 0.931 . S
C365 C361 1.374 1_565 S
C365 C366 1.390 . S
C365 H374 0.930 . S
C366 C362 1.391 . S
C366 C365 1.390 . S
C366 H375 0.930 . S
C367 Eu337 2.825 . S
C367 O352 1.238 . S
C367 O353 1.247 . S
C367 C361 1.507 . S
H368 C341 0.930 . S
H369 C342 0.931 . S
H370 C343 0.930 . S
H371 C344 0.930 . S
H372 C363 0.930 . S
H373 C364 0.931 . S
H374 C365 0.930 . S
H375 C366 0.930 . S
Tb376 C386 2.825 . S
Tb376 O387 2.347 . S
Tb376 O390 2.366 . S
Tb376 O395 2.418 . S
Tb376 O396 2.384 . S
Tb376 O399 2.479 . S
Tb376 O400 2.471 . S
Eu377 O388 2.418 . S
Eu377 O389 2.384 . S
Eu377 O392 2.479 . S
Eu377 O393 2.471 . S
Eu377 O394 2.347 . S
Eu377 O397 2.366 . S
Eu377 C407 2.825 . S
C378 O394 1.259 . S
C378 O395 1.265 . S
C379 O396 1.255 . S
C379 O397 1.265 . S
C380 C382 1.380 . S
C380 C383 1.374 . S
C380 C386 1.507 . S
C381 C382 1.384 . S
C381 C385 1.387 . S
C381 H408 0.930 . S
C382 C380 1.380 . S
C382 C381 1.384 . S
C382 H409 0.931 . S
C383 C380 1.374 . S
C383 C384 1.390 . S
C383 H410 0.930 . S
C384 C383 1.390 . S
C384 C385 1.391 . S
C384 H411 0.930 . S
C385 C381 1.387 . S
C385 C384 1.391 . S
C386 Tb376 2.825 . S
C386 C380 1.507 . S
C386 O399 1.238 . S
C386 O400 1.247 . S
O387 Tb376 2.347 . S
O387 C391 1.259 . S
O388 Eu377 2.418 . S
O388 C391 1.265 . S
O389 Eu377 2.384 . S
O389 C398 1.255 . S
O390 Tb376 2.366 . S
O390 C398 1.265 . S
C391 O387 1.259 . S
C391 O388 1.265 . S
O392 Eu377 2.479 . S
O392 C407 1.238 . S
O393 Eu377 2.471 . S
O393 C407 1.247 . S
O394 Eu377 2.347 . S
O394 C378 1.259 . S
O395 Tb376 2.418 . S
O395 C378 1.265 . S
O396 Tb376 2.384 . S
O396 C379 1.255 . S
O397 Eu377 2.366 . S
O397 C379 1.265 . S
C398 O389 1.255 . S
C398 O390 1.265 . S
O399 Tb376 2.479 . S
O399 C386 1.238 . S
O400 Tb376 2.471 . S
O400 C386 1.247 . S
C401 C404 1.380 . S
C401 C405 1.374 . S
C401 C407 1.507 . S
C402 C403 1.387 . S
C402 C406 1.391 . S
C403 C402 1.387 . S
C403 C404 1.384 . S
C403 H412 0.930 . S
C404 C401 1.380 . S
C404 C403 1.384 . S
C404 H413 0.931 . S
C405 C401 1.374 . S
C405 C406 1.390 . S
C405 H414 0.930 . S
C406 C402 1.391 . S
C406 C405 1.390 . S
C406 H415 0.930 . S
C407 Eu377 2.825 . S
C407 O392 1.238 . S
C407 O393 1.247 . S
C407 C401 1.507 . S
H408 C381 0.930 . S
H409 C382 0.931 . S
H410 C383 0.930 . S
H411 C384 0.930 . S
H412 C403 0.930 . S
H413 C404 0.931 . S
H414 C405 0.930 . S
H415 C406 0.930 . S
Tb416 C426 2.825 . S
Tb416 O427 2.347 1_565 S
Tb416 O430 2.366 . S
Tb416 O435 2.418 . S
Tb416 O436 2.384 1_565 S
Tb416 O439 2.479 . S
Tb416 O440 2.471 . S
Eu417 O428 2.418 . S
Eu417 O429 2.384 . S
Eu417 O432 2.479 . S
Eu417 O433 2.471 . S
Eu417 O434 2.347 . S
Eu417 O437 2.366 . S
Eu417 C447 2.825 . S
C418 O434 1.259 . S
C418 O435 1.265 1_545 S
C419 O436 1.255 . S
C419 O437 1.265 . S
C420 C422 1.380 . S
C420 C423 1.374 . S
C420 C426 1.507 . S
C421 C422 1.384 . S
C421 C425 1.387 . S
C421 H448 0.930 . S
C422 C420 1.380 . S
C422 C421 1.384 . S
C422 H449 0.931 . S
C423 C420 1.374 . S
C423 C424 1.390 . S
C423 H450 0.930 . S
C424 C423 1.390 . S
C424 C425 1.391 . S
C424 H451 0.930 . S
C425 C421 1.387 . S
C425 C424 1.391 . S
C426 Tb416 2.825 . S
C426 C420 1.507 . S
C426 O439 1.238 . S
C426 O440 1.247 . S
O427 Tb416 2.347 1_545 S
O427 C431 1.259 . S
O428 Eu417 2.418 . S
O428 C431 1.265 . S
O429 Eu417 2.384 . S
O429 C438 1.255 . S
O430 Tb416 2.366 . S
O430 C438 1.265 1_565 S
C431 O427 1.259 . S
C431 O428 1.265 . S
O432 Eu417 2.479 . S
O432 C447 1.238 . S
O433 Eu417 2.471 . S
O433 C447 1.247 . S
O434 Eu417 2.347 . S
O434 C418 1.259 . S
O435 Tb416 2.418 . S
O435 C418 1.265 1_565 S
O436 Tb416 2.384 1_545 S
O436 C419 1.255 . S
O437 Eu417 2.366 . S
O437 C419 1.265 . S
C438 O429 1.255 . S
C438 O430 1.265 1_545 S
O439 Tb416 2.479 . S
O439 C426 1.238 . S
O440 Tb416 2.471 . S
O440 C426 1.247 . S
C441 C444 1.380 . S
C441 C445 1.374 . S
C441 C447 1.507 . S
C442 C443 1.387 . S
C442 C446 1.391 . S
C443 C442 1.387 . S
C443 C444 1.384 . S
C443 H452 0.930 . S
C444 C441 1.380 . S
C444 C443 1.384 . S
C444 H453 0.931 . S
C445 C441 1.374 . S
C445 C446 1.390 . S
C445 H454 0.930 . S
C446 C442 1.391 . S
C446 C445 1.390 . S
C446 H455 0.930 . S
C447 Eu417 2.825 . S
C447 O432 1.238 . S
C447 O433 1.247 . S
C447 C441 1.507 . S
H448 C421 0.930 . S
H449 C422 0.931 . S
H450 C423 0.930 . S
H451 C424 0.930 . S
H452 C443 0.930 . S
H453 C444 0.931 . S
H454 C445 0.930 . S
H455 C446 0.930 . S
Tb456 C466 2.825 . S
Tb456 O467 2.347 . S
Tb456 O470 2.366 . S
Tb456 O475 2.418 . S
Tb456 O476 2.384 . S
Tb456 O479 2.479 . S
Tb456 O480 2.471 . S
Eu457 O468 2.418 . S
Eu457 O469 2.384 . S
Eu457 O472 2.479 . S
Eu457 O473 2.471 . S
Eu457 O474 2.347 . S
Eu457 O477 2.366 . S
Eu457 C487 2.825 . S
C458 O474 1.259 . S
C458 O475 1.265 . S
C459 O476 1.255 . S
C459 O477 1.265 . S
C460 C462 1.380 . S
C460 C463 1.374 . S
C460 C466 1.507 . S
C461 C462 1.384 . S
C461 C465 1.387 . S
C461 H488 0.930 . S
C462 C460 1.380 . S
C462 C461 1.384 . S
C462 H489 0.931 . S
C463 C460 1.374 . S
C463 C464 1.390 . S
C463 H490 0.930 . S
C464 C463 1.390 . S
C464 C465 1.391 . S
C464 H491 0.930 . S
C465 C461 1.387 . S
C465 C464 1.391 . S
C466 Tb456 2.825 . S
C466 C460 1.507 . S
C466 O479 1.238 . S
C466 O480 1.247 . S
O467 Tb456 2.347 . S
O467 C471 1.259 . S
O468 Eu457 2.418 . S
O468 C471 1.265 . S
O469 Eu457 2.384 . S
O469 C478 1.255 . S
O470 Tb456 2.366 . S
O470 C478 1.265 . S
C471 O467 1.259 . S
C471 O468 1.265 . S
O472 Eu457 2.479 . S
O472 C487 1.238 . S
O473 Eu457 2.471 . S
O473 C487 1.247 . S
O474 Eu457 2.347 . S
O474 C458 1.259 . S
O475 Tb456 2.418 . S
O475 C458 1.265 . S
O476 Tb456 2.384 . S
O476 C459 1.255 . S
O477 Eu457 2.366 . S
O477 C459 1.265 . S
C478 O469 1.255 . S
C478 O470 1.265 . S
O479 Tb456 2.479 . S
O479 C466 1.238 . S
O480 Tb456 2.471 . S
O480 C466 1.247 . S
C481 C484 1.380 . S
C481 C485 1.374 . S
C481 C487 1.507 . S
C482 C483 1.387 . S
C482 C486 1.391 . S
C483 C482 1.387 . S
C483 C484 1.384 . S
C483 H492 0.930 . S
C484 C481 1.380 . S
C484 C483 1.384 . S
C484 H493 0.931 . S
C485 C481 1.374 . S
C485 C486 1.390 . S
C485 H494 0.930 . S
C486 C482 1.391 . S
C486 C485 1.390 . S
C486 H495 0.930 . S
C487 Eu457 2.825 . S
C487 O472 1.238 . S
C487 O473 1.247 . S
C487 C481 1.507 . S
H488 C461 0.930 . S
H489 C462 0.931 . S
H490 C463 0.930 . S
H491 C464 0.930 . S
H492 C483 0.930 . S
H493 C484 0.931 . S
H494 C485 0.930 . S
H495 C486 0.930 . S
Tb496 C506 2.825 . S
Tb496 O507 2.347 . S
Tb496 O510 2.366 . S
Tb496 O515 2.418 . S
Tb496 O516 2.384 1_545 S
Tb496 O519 2.479 . S
Tb496 O520 2.471 . S
Eu497 O508 2.418 . S
Eu497 O509 2.384 . S
Eu497 O512 2.479 . S
Eu497 O513 2.471 . S
Eu497 O514 2.347 . S
Eu497 O517 2.366 . S
Eu497 C527 2.825 . S
C498 O514 1.259 . S
C498 O515 1.265 . S
C499 O516 1.255 . S
C499 O517 1.265 1_565 S
C500 C502 1.380 . S
C500 C503 1.312 1_455 S
C500 C506 1.507 . S
C501 C502 1.384 . S
C501 C505 1.387 . S
C501 H528 0.930 . S
C502 C500 1.380 . S
C502 C501 1.384 . S
C502 H529 0.931 . S
C503 C500 1.312 1_655 S
C503 C504 1.412 . S
C503 H530 0.973 . S
C504 C503 1.412 . S
C504 C505 1.391 1_655 S
C504 H531 0.930 . S
C505 C501 1.387 . S
C505 C504 1.391 1_455 S
C506 Tb496 2.825 . S
C506 C500 1.507 . S
C506 O519 1.238 . S
C506 O520 1.247 . S
O507 Tb496 2.347 . S
O507 C511 1.259 . S
O508 Eu497 2.418 . S
O508 C511 1.265 . S
O509 Eu497 2.384 . S
O509 C518 1.255 . S
O510 Tb496 2.366 . S
O510 C518 1.265 . S
C511 O507 1.259 . S
C511 O508 1.265 . S
O512 Eu497 2.479 . S
O512 C527 1.238 . S
O513 Eu497 2.471 . S
O513 C527 1.247 . S
O514 Eu497 2.347 . S
O514 C498 1.259 . S
O515 Tb496 2.418 . S
O515 C498 1.265 . S
O516 Tb496 2.384 1_565 S
O516 C499 1.255 . S
O517 Eu497 2.366 . S
O517 C499 1.265 1_545 S
C518 O509 1.255 . S
C518 O510 1.265 . S
O519 Tb496 2.479 . S
O519 C506 1.238 . S
O520 Tb496 2.471 . S
O520 C506 1.247 . S
C521 C524 1.380 . S
C521 C525 1.374 . S
C521 C527 1.507 . S
C522 C523 1.387 . S
C522 C526 1.391 . S
C523 C522 1.387 . S
C523 C524 1.384 . S
C523 H532 0.930 . S
C524 C521 1.380 . S
C524 C523 1.384 . S
C524 H533 0.931 . S
C525 C521 1.374 . S
C525 C526 1.390 . S
C525 H534 0.930 . S
C526 C522 1.391 . S
C526 C525 1.390 . S
C526 H535 0.930 . S
C527 Eu497 2.825 . S
C527 O512 1.238 . S
C527 O513 1.247 . S
C527 C521 1.507 . S
H528 C501 0.930 . S
H529 C502 0.931 . S
H530 C503 0.973 . S
H531 C504 0.930 . S
H532 C523 0.930 . S
H533 C524 0.931 . S
H534 C525 0.930 . S
H535 C526 0.930 . S
Tb536 C546 2.825 . S
Tb536 O547 2.347 . S
Tb536 O550 2.366 . S
Tb536 O555 2.418 . S
Tb536 O556 2.384 . S
Tb536 O559 2.479 . S
Tb536 O560 2.471 . S
Eu537 O548 2.418 . S
Eu537 O549 2.384 . S
Eu537 O552 2.479 . S
Eu537 O553 2.471 . S
Eu537 O554 2.347 . S
Eu537 O557 2.366 . S
Eu537 C567 2.825 . S
C538 O554 1.259 . S
C538 O555 1.265 . S
C539 O556 1.255 . S
C539 O557 1.265 . S
C540 C542 1.380 . S
C540 C543 1.374 . S
C540 C546 1.507 . S
C541 C542 1.384 . S
C541 C545 1.387 . S
C541 H568 0.930 . S
C542 C540 1.380 . S
C542 C541 1.384 . S
C542 H569 0.931 . S
C543 C540 1.374 . S
C543 C544 1.390 . S
C543 H570 0.930 . S
C544 C543 1.390 . S
C544 C545 1.391 . S
C544 H571 0.930 . S
C545 C541 1.387 . S
C545 C544 1.391 . S
C546 Tb536 2.825 . S
C546 C540 1.507 . S
C546 O559 1.238 . S
C546 O560 1.247 . S
O547 Tb536 2.347 . S
O547 C551 1.259 . S
O548 Eu537 2.418 . S
O548 C551 1.265 . S
O549 Eu537 2.384 . S
O549 C558 1.255 . S
O550 Tb536 2.366 . S
O550 C558 1.265 . S
C551 O547 1.259 . S
C551 O548 1.265 . S
O552 Eu537 2.479 . S
O552 C567 1.238 . S
O553 Eu537 2.471 . S
O553 C567 1.247 . S
O554 Eu537 2.347 . S
O554 C538 1.259 . S
O555 Tb536 2.418 . S
O555 C538 1.265 . S
O556 Tb536 2.384 . S
O556 C539 1.255 . S
O557 Eu537 2.366 . S
O557 C539 1.265 . S
C558 O549 1.255 . S
C558 O550 1.265 . S
O559 Tb536 2.479 . S
O559 C546 1.238 . S
O560 Tb536 2.471 . S
O560 C546 1.247 . S
C561 C564 1.380 . S
C561 C565 1.374 . S
C561 C567 1.507 . S
C562 C563 1.387 . S
C562 C566 1.391 . S
C563 C562 1.387 . S
C563 C564 1.384 . S
C563 H572 0.930 . S
C564 C561 1.380 . S
C564 C563 1.384 . S
C564 H573 0.931 . S
C565 C561 1.374 . S
C565 C566 1.390 . S
C565 H574 0.930 . S
C566 C562 1.391 . S
C566 C565 1.390 . S
C566 H575 0.930 . S
C567 Eu537 2.825 . S
C567 O552 1.238 . S
C567 O553 1.247 . S
C567 C561 1.507 . S
H568 C541 0.930 . S
H569 C542 0.931 . S
H570 C543 0.930 . S
H571 C544 0.930 . S
H572 C563 0.930 . S
H573 C564 0.931 . S
H574 C565 0.930 . S
H575 C566 0.930 . S
Tb576 C586 2.825 . S
Tb576 O587 2.347 . S
Tb576 O590 2.366 . S
Tb576 O595 2.418 1_545 S
Tb576 O596 2.384 . S
Tb576 O599 2.495 . S
Tb576 O600 2.471 . S
Eu577 O588 2.418 1_556 S
Eu577 O589 2.384 1_556 S
Eu577 O592 2.479 . S
Eu577 O593 2.471 . S
Eu577 O594 2.347 1_556 S
Eu577 O597 2.366 1_556 S
Eu577 C607 2.825 . S
C578 O594 1.259 1_565 S
C578 O595 1.265 . S
C579 O596 1.255 . S
C579 O597 1.265 . S
C580 C582 1.380 1_545 S
C580 C583 1.374 . S
C580 C586 1.507 . S
C581 C582 1.384 . S
C581 C585 1.387 1_565 S
C581 H608 0.930 . S
C582 C580 1.380 1_565 S
C582 C581 1.384 . S
C582 H609 0.931 . S
C583 C580 1.374 . S
C583 C584 1.390 . S
C583 H610 0.930 . S
C584 C583 1.390 . S
C584 C585 1.391 . S
C584 H611 0.930 . S
C585 C581 1.387 1_545 S
C585 C584 1.391 . S
C586 Tb576 2.825 . S
C586 C580 1.507 . S
C586 O599 1.261 . S
C586 O600 1.247 . S
O587 Tb576 2.347 . S
O587 C591 1.259 . S
O588 Eu577 2.418 1_554 S
O588 C591 1.265 . S
O589 Eu577 2.384 1_554 S
O589 C598 1.255 . S
O590 Tb576 2.366 . S
O590 C598 1.265 . S
C591 O587 1.259 . S
C591 O588 1.265 . S
O592 Eu577 2.479 . S
O592 C607 1.238 . S
O593 Eu577 2.471 . S
O593 C607 1.247 . S
O594 Eu577 2.347 1_554 S
O594 C578 1.259 1_545 S
O595 Tb576 2.418 1_565 S
O595 C578 1.265 . S
O596 Tb576 2.384 . S
O596 C579 1.255 . S
O597 Eu577 2.366 1_554 S
O597 C579 1.265 . S
C598 O589 1.255 . S
C598 O590 1.265 . S
O599 Tb576 2.495 . S
O599 C586 1.261 . S
O600 Tb576 2.471 . S
O600 C586 1.247 . S
C601 C604 1.380 . S
C601 C605 1.374 . S
C601 C607 1.507 . S
C602 C603 1.387 . S
C602 C606 1.391 . S
C603 C602 1.387 . S
C603 C604 1.384 . S
C603 H612 0.930 . S
C604 C601 1.380 . S
C604 C603 1.384 . S
C604 H613 0.931 . S
C605 C601 1.374 . S
C605 C606 1.390 . S
C605 H614 0.930 . S
C606 C602 1.391 . S
C606 C605 1.390 . S
C606 H615 0.930 . S
C607 Eu577 2.825 . S
C607 O592 1.238 . S
C607 O593 1.247 . S
C607 C601 1.507 . S
H608 C581 0.930 . S
H609 C582 0.931 . S
H610 C583 0.930 . S
H611 C584 0.930 . S
H612 C603 0.930 . S
H613 C604 0.931 . S
H614 C605 0.930 . S
H615 C606 0.930 . S
Tb616 C626 2.825 . S
Tb616 O627 2.347 . S
Tb616 O630 2.366 . S
Tb616 O635 2.418 . S
Tb616 O636 2.384 . S
Tb616 O639 2.479 . S
Tb616 O640 2.471 . S
Eu617 O628 2.418 . S
Eu617 O629 2.384 . S
Eu617 O632 2.479 . S
Eu617 O633 2.471 . S
Eu617 O634 2.347 . S
Eu617 O637 2.366 . S
Eu617 C647 2.825 . S
C618 O634 1.259 . S
C618 O635 1.265 . S
C619 O636 1.255 . S
C619 O637 1.265 . S
C620 C622 1.380 . S
C620 C623 1.374 . S
C620 C626 1.507 . S
C621 C622 1.384 . S
C621 C625 1.387 . S
C621 H648 0.930 . S
C622 C620 1.380 . S
C622 C621 1.384 . S
C622 H649 0.931 . S
C623 C620 1.374 . S
C623 C624 1.390 . S
C623 H650 0.930 . S
C624 C623 1.390 . S
C624 C625 1.391 . S
C624 H651 0.930 . S
C625 C621 1.387 . S
C625 C624 1.391 . S
C626 Tb616 2.825 . S
C626 C620 1.507 . S
C626 O639 1.238 . S
C626 O640 1.247 . S
O627 Tb616 2.347 . S
O627 C631 1.259 . S
O628 Eu617 2.418 . S
O628 C631 1.265 . S
O629 Eu617 2.384 . S
O629 C638 1.255 . S
O630 Tb616 2.366 . S
O630 C638 1.265 . S
C631 O627 1.259 . S
C631 O628 1.265 . S
O632 Eu617 2.479 . S
O632 C647 1.238 . S
O633 Eu617 2.471 . S
O633 C647 1.247 . S
O634 Eu617 2.347 . S
O634 C618 1.259 . S
O635 Tb616 2.418 . S
O635 C618 1.265 . S
O636 Tb616 2.384 . S
O636 C619 1.255 . S
O637 Eu617 2.366 . S
O637 C619 1.265 . S
C638 O629 1.255 . S
C638 O630 1.265 . S
O639 Tb616 2.479 . S
O639 C626 1.238 . S
O640 Tb616 2.471 . S
O640 C626 1.247 . S
C641 C644 1.380 . S
C641 C645 1.374 . S
C641 C647 1.507 . S
C642 C643 1.387 . S
C642 C646 1.391 . S
C643 C642 1.387 . S
C643 C644 1.384 . S
C643 H652 0.930 . S
C644 C641 1.380 . S
C644 C643 1.384 . S
C644 H653 0.931 . S
C645 C641 1.374 . S
C645 C646 1.390 . S
C645 H654 0.930 . S
C646 C642 1.391 . S
C646 C645 1.390 . S
C646 H655 0.930 . S
C647 Eu617 2.825 . S
C647 O632 1.238 . S
C647 O633 1.247 . S
C647 C641 1.507 . S
H648 C621 0.930 . S
H649 C622 0.931 . S
H650 C623 0.930 . S
H651 C624 0.930 . S
H652 C643 0.930 . S
H653 C644 0.931 . S
H654 C645 0.930 . S
H655 C646 0.930 . S
Tb656 C666 2.864 . S
Tb656 O667 2.318 1_556 S
Tb656 O670 2.372 . S
Tb656 O675 2.420 1_556 S
Tb656 O676 2.351 1_556 S
Tb656 O679 2.521 . S
Tb656 O680 2.499 . S
Eu657 O668 2.418 . S
Eu657 O669 2.384 . S
Eu657 O672 2.479 . S
Eu657 O673 2.471 . S
Eu657 O674 2.347 . S
Eu657 O677 2.366 . S
Eu657 C687 2.825 . S
C658 O674 1.259 . S
C658 O675 1.265 . S
C659 O676 1.255 . S
C659 O677 1.265 . S
C660 C662 1.380 . S
C660 C663 1.374 . S
C660 C666 1.507 . S
C661 C662 1.384 . S
C661 C665 1.387 . S
C661 H688 0.930 . S
C662 C660 1.380 . S
C662 C661 1.384 . S
C662 H689 0.931 . S
C663 C660 1.374 . S
C663 C664 1.390 . S
C663 H690 0.930 . S
C664 C663 1.390 . S
C664 C665 1.391 . S
C664 H691 0.930 . S
C665 C661 1.387 . S
C665 C664 1.391 . S
C666 Tb656 2.864 . S
C666 C660 1.507 . S
C666 O679 1.238 . S
C666 O680 1.247 . S
O667 Tb656 2.318 1_554 S
O667 C671 1.259 . S
O668 Eu657 2.418 . S
O668 C671 1.265 . S
O669 Eu657 2.384 . S
O669 C678 1.255 . S
O670 Tb656 2.372 . S
O670 C678 1.265 1_556 S
C671 O667 1.259 . S
C671 O668 1.265 . S
O672 Eu657 2.479 . S
O672 C687 1.238 . S
O673 Eu657 2.471 . S
O673 C687 1.247 . S
O674 Eu657 2.347 . S
O674 C658 1.259 . S
O675 Tb656 2.420 1_554 S
O675 C658 1.265 . S
O676 Tb656 2.351 1_554 S
O676 C659 1.255 . S
O677 Eu657 2.366 . S
O677 C659 1.265 . S
C678 O669 1.255 . S
C678 O670 1.265 1_554 S
O679 Tb656 2.521 . S
O679 C666 1.238 . S
O680 Tb656 2.499 . S
O680 C666 1.247 . S
C681 C684 1.380 . S
C681 C685 1.374 . S
C681 C687 1.507 . S
C682 C683 1.387 . S
C682 C686 1.391 . S
C683 C682 1.387 . S
C683 C684 1.384 . S
C683 H692 0.930 . S
C684 C681 1.380 . S
C684 C683 1.384 . S
C684 H693 0.931 . S
C685 C681 1.374 . S
C685 C686 1.390 . S
C685 H694 0.930 . S
C686 C682 1.391 . S
C686 C685 1.390 . S
C686 H695 0.930 . S
C687 Eu657 2.825 . S
C687 O672 1.238 . S
C687 O673 1.247 . S
C687 C681 1.507 . S
H688 C661 0.930 . S
H689 C662 0.931 . S
H690 C663 0.930 . S
H691 C664 0.930 . S
H692 C683 0.930 . S
H693 C684 0.931 . S
H694 C685 0.930 . S
H695 C686 0.930 . S
Tb696 C706 2.825 . S
Tb696 O707 2.347 . S
Tb696 O710 2.366 . S
Tb696 O715 2.418 . S
Tb696 O716 2.384 . S
Tb696 O719 2.479 . S
Tb696 O720 2.471 . S
Eu697 O708 2.418 . S
Eu697 O709 2.384 . S
Eu697 O712 2.479 . S
Eu697 O713 2.471 . S
Eu697 O714 2.347 . S
Eu697 O717 2.366 . S
Eu697 C727 2.825 . S
C698 O714 1.259 . S
C698 O715 1.265 . S
C699 O716 1.255 . S
C699 O717 1.265 . S
C700 C702 1.380 . S
C700 C703 1.374 . S
C700 C706 1.507 . S
C701 C702 1.384 . S
C701 C705 1.387 . S
C701 H728 0.930 . S
C702 C700 1.380 . S
C702 C701 1.384 . S
C702 H729 0.931 . S
C703 C700 1.374 . S
C703 C704 1.390 . S
C703 H730 0.930 . S
C704 C703 1.390 . S
C704 C705 1.391 . S
C704 H731 0.930 . S
C705 C701 1.387 . S
C705 C704 1.391 . S
C706 Tb696 2.825 . S
C706 C700 1.507 . S
C706 O719 1.238 . S
C706 O720 1.247 . S
O707 Tb696 2.347 . S
O707 C711 1.259 . S
O708 Eu697 2.418 . S
O708 C711 1.265 . S
O709 Eu697 2.384 . S
O709 C718 1.255 . S
O710 Tb696 2.366 . S
O710 C718 1.265 . S
C711 O707 1.259 . S
C711 O708 1.265 . S
O712 Eu697 2.479 . S
O712 C727 1.238 . S
O713 Eu697 2.471 . S
O713 C727 1.247 . S
O714 Eu697 2.347 . S
O714 C698 1.259 . S
O715 Tb696 2.418 . S
O715 C698 1.265 . S
O716 Tb696 2.384 . S
O716 C699 1.255 . S
O717 Eu697 2.366 . S
O717 C699 1.265 . S
C718 O709 1.255 . S
C718 O710 1.265 . S
O719 Tb696 2.479 . S
O719 C706 1.238 . S
O720 Tb696 2.471 . S
O720 C706 1.247 . S
C721 C724 1.380 . S
C721 C725 1.374 . S
C721 C727 1.507 . S
C722 C723 1.387 . S
C722 C726 1.391 . S
C723 C722 1.387 . S
C723 C724 1.384 . S
C723 H732 0.930 . S
C724 C721 1.380 . S
C724 C723 1.384 . S
C724 H733 0.931 . S
C725 C721 1.374 . S
C725 C726 1.390 . S
C725 H734 0.930 . S
C726 C722 1.391 . S
C726 C725 1.390 . S
C726 H735 0.930 . S
C727 Eu697 2.825 . S
C727 O712 1.238 . S
C727 O713 1.247 . S
C727 C721 1.507 . S
H728 C701 0.930 . S
H729 C702 0.931 . S
H730 C703 0.930 . S
H731 C704 0.930 . S
H732 C723 0.930 . S
H733 C724 0.931 . S
H734 C725 0.930 . S
H735 C726 0.930 . S
Tb736 C746 2.825 . S
Tb736 O747 2.347 . S
Tb736 O750 2.366 . S
Tb736 O755 2.418 . S
Tb736 O756 2.384 . S
Tb736 O759 2.479 . S
Tb736 O760 2.471 . S
Eu737 O748 2.418 . S
Eu737 O749 2.384 . S
Eu737 O752 2.479 . S
Eu737 O753 2.471 . S
Eu737 O754 2.347 . S
Eu737 O757 2.366 . S
Eu737 C767 2.825 . S
C738 O754 1.259 . S
C738 O755 1.265 . S
C739 O756 1.255 . S
C739 O757 1.265 . S
C740 C742 1.380 . S
C740 C743 1.374 . S
C740 C746 1.507 . S
C741 C742 1.384 . S
C741 C745 1.387 . S
C741 H768 0.930 . S
C742 C740 1.380 . S
C742 C741 1.384 . S
C742 H769 0.931 . S
C743 C740 1.374 . S
C743 C744 1.390 . S
C743 H770 0.930 . S
C744 C743 1.390 . S
C744 C745 1.391 . S
C744 H771 0.930 1_455 S
C745 C741 1.387 . S
C745 C744 1.391 . S
C746 Tb736 2.825 . S
C746 C740 1.507 . S
C746 O759 1.238 . S
C746 O760 1.247 . S
O747 Tb736 2.347 . S
O747 C751 1.259 . S
O748 Eu737 2.418 . S
O748 C751 1.265 . S
O749 Eu737 2.384 . S
O749 C758 1.255 . S
O750 Tb736 2.366 . S
O750 C758 1.265 . S
C751 O747 1.259 . S
C751 O748 1.265 . S
O752 Eu737 2.479 . S
O752 C767 1.238 . S
O753 Eu737 2.471 . S
O753 C767 1.247 . S
O754 Eu737 2.347 . S
O754 C738 1.259 . S
O755 Tb736 2.418 . S
O755 C738 1.265 . S
O756 Tb736 2.384 . S
O756 C739 1.255 . S
O757 Eu737 2.366 . S
O757 C739 1.265 . S
C758 O749 1.255 . S
C758 O750 1.265 . S
O759 Tb736 2.479 . S
O759 C746 1.238 . S
O760 Tb736 2.471 . S
O760 C746 1.247 . S
C761 C764 1.380 . S
C761 C765 1.374 . S
C761 C767 1.507 . S
C762 C763 1.387 . S
C762 C766 1.391 . S
C763 C762 1.387 . S
C763 C764 1.384 . S
C763 H772 0.930 . S
C764 C761 1.380 . S
C764 C763 1.384 . S
C764 H773 0.931 . S
C765 C761 1.374 . S
C765 C766 1.390 . S
C765 H774 0.930 . S
C766 C762 1.391 . S
C766 C765 1.390 . S
C766 H775 0.930 . S
C767 Eu737 2.825 . S
C767 O752 1.238 . S
C767 O753 1.247 . S
C767 C761 1.507 . S
H768 C741 0.930 . S
H769 C742 0.931 . S
H770 C743 0.930 . S
H771 C744 0.930 1_655 S
H772 C763 0.930 . S
H773 C764 0.931 . S
H774 C765 0.930 . S
H775 C766 0.930 . S
Tb776 C786 2.825 . S
Tb776 O787 2.347 . S
Tb776 O790 2.366 . S
Tb776 O795 2.418 . S
Tb776 O796 2.384 . S
Tb776 O799 2.479 . S
Tb776 O800 2.471 . S
Eu777 O788 2.418 . S
Eu777 O789 2.384 . S
Eu777 O792 2.479 . S
Eu777 O793 2.471 . S
Eu777 O794 2.347 . S
Eu777 O797 2.366 . S
Eu777 C807 2.825 . S
C778 O794 1.259 . S
C778 O795 1.265 . S
C779 O796 1.255 . S
C779 O797 1.265 . S
C780 C782 1.380 . S
C780 C783 1.374 . S
C780 C786 1.507 . S
C781 C782 1.384 . S
C781 C785 1.387 . S
C781 H808 0.930 . S
C782 C780 1.380 . S
C782 C781 1.384 . S
C782 H809 0.931 . S
C783 C780 1.374 . S
C783 C784 1.390 . S
C783 H810 0.930 . S
C784 C783 1.390 . S
C784 C785 1.391 . S
C784 H811 0.930 . S
C785 C781 1.387 . S
C785 C784 1.391 . S
C786 Tb776 2.825 . S
C786 C780 1.507 . S
C786 O799 1.238 . S
C786 O800 1.247 . S
O787 Tb776 2.347 . S
O787 C791 1.259 . S
O788 Eu777 2.418 . S
O788 C791 1.265 . S
O789 Eu777 2.384 . S
O789 C798 1.255 . S
O790 Tb776 2.366 . S
O790 C798 1.265 . S
C791 O787 1.259 . S
C791 O788 1.265 . S
O792 Eu777 2.479 . S
O792 C807 1.238 . S
O793 Eu777 2.471 . S
O793 C807 1.247 . S
O794 Eu777 2.347 . S
O794 C778 1.259 . S
O795 Tb776 2.418 . S
O795 C778 1.265 . S
O796 Tb776 2.384 . S
O796 C779 1.255 . S
O797 Eu777 2.366 . S
O797 C779 1.265 . S
C798 O789 1.255 . S
C798 O790 1.265 . S
O799 Tb776 2.479 . S
O799 C786 1.238 . S
O800 Tb776 2.471 . S
O800 C786 1.247 . S
C801 C804 1.380 . S
C801 C805 1.374 . S
C801 C807 1.507 . S
C802 C803 1.387 . S
C802 C806 1.391 . S
C803 C802 1.387 . S
C803 C804 1.384 . S
C803 H812 0.930 . S
C804 C801 1.380 . S
C804 C803 1.384 . S
C804 H813 0.931 . S
C805 C801 1.374 . S
C805 C806 1.390 . S
C805 H814 0.930 . S
C806 C802 1.391 . S
C806 C805 1.390 . S
C806 H815 0.930 . S
C807 Eu777 2.825 . S
C807 O792 1.238 . S
C807 O793 1.247 . S
C807 C801 1.507 . S
H808 C781 0.930 . S
H809 C782 0.931 . S
H810 C783 0.930 . S
H811 C784 0.930 . S
H812 C803 0.930 . S
H813 C804 0.931 . S
H814 C805 0.930 . S
H815 C806 0.930 . S
Tb816 C826 2.825 . S
Tb816 O827 2.347 . S
Tb816 O830 2.366 . S
Tb816 O835 2.418 . S
Tb816 O836 2.384 . S
Tb816 O839 2.479 . S
Tb816 O840 2.471 . S
Eu817 O828 2.418 . S
Eu817 O829 2.384 . S
Eu817 O832 2.479 . S
Eu817 O833 2.471 . S
Eu817 O834 2.347 . S
Eu817 O837 2.366 . S
Eu817 C847 2.825 . S
C818 O834 1.259 . S
C818 O835 1.265 . S
C819 O836 1.255 . S
C819 O837 1.265 . S
C820 C822 1.380 . S
C820 C823 1.374 . S
C820 C826 1.507 . S
C821 C822 1.384 . S
C821 C825 1.387 . S
C821 H848 0.930 . S
C822 C820 1.380 . S
C822 C821 1.384 . S
C822 H849 0.931 . S
C823 C820 1.374 . S
C823 C824 1.390 . S
C823 H850 0.930 . S
C824 C823 1.390 . S
C824 C825 1.391 . S
C824 H851 0.930 . S
C825 C821 1.387 . S
C825 C824 1.391 . S
C826 Tb816 2.825 . S
C826 C820 1.507 . S
C826 O839 1.238 . S
C826 O840 1.247 . S
O827 Tb816 2.347 . S
O827 C831 1.259 . S
O828 Eu817 2.418 . S
O828 C831 1.265 . S
O829 Eu817 2.384 . S
O829 C838 1.255 . S
O830 Tb816 2.366 . S
O830 C838 1.265 . S
C831 O827 1.259 . S
C831 O828 1.265 . S
O832 Eu817 2.479 . S
O832 C847 1.238 . S
O833 Eu817 2.471 . S
O833 C847 1.247 . S
O834 Eu817 2.347 . S
O834 C818 1.259 . S
O835 Tb816 2.418 . S
O835 C818 1.265 . S
O836 Tb816 2.384 . S
O836 C819 1.255 . S
O837 Eu817 2.366 . S
O837 C819 1.265 . S
C838 O829 1.255 . S
C838 O830 1.265 . S
O839 Tb816 2.479 . S
O839 C826 1.238 . S
O840 Tb816 2.471 . S
O840 C826 1.247 . S
C841 C844 1.380 . S
C841 C845 1.374 . S
C841 C847 1.507 . S
C842 C843 1.387 . S
C842 C846 1.391 . S
C843 C842 1.387 . S
C843 C844 1.384 . S
C843 H852 0.930 . S
C844 C841 1.380 . S
C844 C843 1.384 . S
C844 H853 0.931 . S
C845 C841 1.374 . S
C845 C846 1.390 . S
C845 H854 0.930 . S
C846 C842 1.391 . S
C846 C845 1.390 . S
C846 H855 0.930 . S
C847 Eu817 2.825 . S
C847 O832 1.238 . S
C847 O833 1.247 . S
C847 C841 1.507 . S
H848 C821 0.930 . S
H849 C822 0.931 . S
H850 C823 0.930 . S
H851 C824 0.930 . S
H852 C843 0.930 . S
H853 C844 0.931 . S
H854 C845 0.930 . S
H855 C846 0.930 . S
Tb856 C866 2.825 . S
Tb856 O867 2.347 . S
Tb856 O870 2.366 . S
Tb856 O875 2.418 . S
Tb856 O876 2.384 . S
Tb856 O879 2.479 . S
Tb856 O880 2.471 . S
Eu857 O868 2.418 . S
Eu857 O869 2.384 . S
Eu857 O872 2.479 . S
Eu857 O873 2.471 . S
Eu857 O874 2.347 . S
Eu857 O877 2.366 . S
Eu857 C887 2.825 . S
C858 O874 1.259 . S
C858 O875 1.265 . S
C859 O876 1.255 . S
C859 O877 1.265 . S
C860 C862 1.380 . S
C860 C863 1.374 . S
C860 C866 1.507 . S
C861 C862 1.384 . S
C861 C865 1.387 . S
C861 H888 0.930 . S
C862 C860 1.380 . S
C862 C861 1.384 . S
C862 H889 0.931 . S
C863 C860 1.374 . S
C863 C864 1.390 . S
C863 H890 0.930 . S
C864 C863 1.390 . S
C864 C865 1.391 . S
C864 H891 0.930 . S
C865 C861 1.387 . S
C865 C864 1.391 . S
C866 Tb856 2.825 . S
C866 C860 1.507 . S
C866 O879 1.238 . S
C866 O880 1.247 . S
O867 Tb856 2.347 . S
O867 C871 1.259 . S
O868 Eu857 2.418 . S
O868 C871 1.265 . S
O869 Eu857 2.384 . S
O869 C878 1.255 . S
O870 Tb856 2.366 . S
O870 C878 1.265 . S
C871 O867 1.259 . S
C871 O868 1.265 . S
O872 Eu857 2.479 . S
O872 C887 1.238 . S
O873 Eu857 2.471 . S
O873 C887 1.247 . S
O874 Eu857 2.347 . S
O874 C858 1.259 . S
O875 Tb856 2.418 . S
O875 C858 1.265 . S
O876 Tb856 2.384 . S
O876 C859 1.255 . S
O877 Eu857 2.366 . S
O877 C859 1.265 . S
C878 O869 1.255 . S
C878 O870 1.265 . S
O879 Tb856 2.479 . S
O879 C866 1.238 . S
O880 Tb856 2.471 . S
O880 C866 1.247 . S
C881 C884 1.380 . S
C881 C885 1.374 . S
C881 C887 1.507 . S
C882 C883 1.387 . S
C882 C886 1.391 . S
C883 C882 1.387 . S
C883 C884 1.384 . S
C883 H892 0.930 . S
C884 C881 1.380 . S
C884 C883 1.384 . S
C884 H893 0.931 . S
C885 C881 1.374 . S
C885 C886 1.390 . S
C885 H894 0.930 . S
C886 C882 1.391 . S
C886 C885 1.390 . S
C886 H895 0.930 . S
C887 Eu857 2.825 . S
C887 O872 1.238 . S
C887 O873 1.247 . S
C887 C881 1.507 . S
H888 C861 0.930 . S
H889 C862 0.931 . S
H890 C863 0.930 . S
H891 C864 0.930 . S
H892 C883 0.930 . S
H893 C884 0.931 . S
H894 C885 0.930 . S
H895 C886 0.930 . S
Tb896 C906 2.825 . S
Tb896 O907 2.347 . S
Tb896 O910 2.366 . S
Tb896 O915 2.418 . S
Tb896 O916 2.384 . S
Tb896 O919 2.479 . S
Tb896 O920 2.471 . S
Eu897 O908 2.418 . S
Eu897 O909 2.384 . S
Eu897 O912 2.479 . S
Eu897 O913 2.471 . S
Eu897 O914 2.347 . S
Eu897 O917 2.366 . S
Eu897 C927 2.825 . S
C898 O914 1.259 . S
C898 O915 1.265 . S
C899 O916 1.255 . S
C899 O917 1.265 . S
C900 C902 1.380 . S
C900 C903 1.374 . S
C900 C906 1.507 . S
C901 C902 1.384 . S
C901 C905 1.387 . S
C901 H928 0.930 . S
C902 C900 1.380 . S
C902 C901 1.384 . S
C902 H929 0.931 . S
C903 C900 1.374 . S
C903 C904 1.390 . S
C903 H930 0.930 . S
C904 C903 1.390 . S
C904 C905 1.391 . S
C904 H931 0.930 . S
C905 C901 1.387 . S
C905 C904 1.391 . S
C906 Tb896 2.825 . S
C906 C900 1.507 . S
C906 O919 1.238 . S
C906 O920 1.247 . S
O907 Tb896 2.347 . S
O907 C911 1.259 . S
O908 Eu897 2.418 . S
O908 C911 1.265 . S
O909 Eu897 2.384 . S
O909 C918 1.255 . S
O910 Tb896 2.366 . S
O910 C918 1.265 . S
C911 O907 1.259 . S
C911 O908 1.265 . S
O912 Eu897 2.479 . S
O912 C927 1.238 . S
O913 Eu897 2.471 . S
O913 C927 1.247 . S
O914 Eu897 2.347 . S
O914 C898 1.259 . S
O915 Tb896 2.418 . S
O915 C898 1.265 . S
O916 Tb896 2.384 . S
O916 C899 1.255 . S
O917 Eu897 2.366 . S
O917 C899 1.265 . S
C918 O909 1.255 . S
C918 O910 1.265 . S
O919 Tb896 2.479 . S
O919 C906 1.238 . S
O920 Tb896 2.471 . S
O920 C906 1.247 . S
C921 C924 1.380 . S
C921 C925 1.374 . S
C921 C927 1.507 . S
C922 C923 1.387 . S
C922 C926 1.391 . S
C923 C922 1.387 . S
C923 C924 1.384 . S
C923 H932 0.930 . S
C924 C921 1.380 . S
C924 C923 1.384 . S
C924 H933 0.931 . S
C925 C921 1.374 . S
C925 C926 1.390 . S
C925 H934 0.930 . S
C926 C922 1.391 . S
C926 C925 1.390 . S
C926 H935 0.930 . S
C927 Eu897 2.825 . S
C927 O912 1.238 . S
C927 O913 1.247 . S
C927 C921 1.507 . S
H928 C901 0.930 . S
H929 C902 0.931 . S
H930 C903 0.930 . S
H931 C904 0.930 . S
H932 C923 0.930 . S
H933 C924 0.931 . S
H934 C925 0.930 . S
H935 C926 0.930 . S
Tb936 C946 2.825 . S
Tb936 O947 2.347 . S
Tb936 O950 2.366 . S
Tb936 O955 2.418 . S
Tb936 O956 2.384 . S
Tb936 O959 2.479 . S
Tb936 O960 2.428 1_554 S
Eu937 O948 2.418 1_554 S
Eu937 O949 2.384 . S
Eu937 O952 2.479 . S
Eu937 O953 2.471 . S
Eu937 O954 2.347 . S
Eu937 O957 2.366 . S
Eu937 C967 2.825 . S
C938 O954 1.259 . S
C938 O955 1.265 . S
C939 O956 1.255 . S
C939 O957 1.265 . S
C940 C942 1.380 . S
C940 C943 1.374 1_554 S
C940 C946 1.507 . S
C941 C942 1.384 . S
C941 C945 1.387 1_554 S
C941 H968 0.930 . S
C942 C940 1.380 . S
C942 C941 1.384 . S
C942 H969 0.931 . S
C943 C940 1.374 1_556 S
C943 C944 1.390 . S
C943 H970 0.930 . S
C944 C943 1.390 . S
C944 C945 1.391 . S
C944 H971 0.930 . S
C945 C941 1.387 1_556 S
C945 C944 1.391 . S
C946 Tb936 2.825 . S
C946 C940 1.507 . S
C946 O959 1.238 . S
C946 O960 1.206 1_554 S
O947 Tb936 2.347 . S
O947 C951 1.259 1_554 S
O948 Eu937 2.418 1_556 S
O948 C951 1.265 . S
O949 Eu937 2.384 . S
O949 C958 1.255 . S
O950 Tb936 2.366 . S
O950 C958 1.265 . S
C951 O947 1.259 1_556 S
C951 O948 1.265 . S
O952 Eu937 2.479 . S
O952 C967 1.238 . S
O953 Eu937 2.471 . S
O953 C967 1.247 . S
O954 Eu937 2.347 . S
O954 C938 1.259 . S
O955 Tb936 2.418 . S
O955 C938 1.265 . S
O956 Tb936 2.384 . S
O956 C939 1.255 . S
O957 Eu937 2.366 . S
O957 C939 1.265 . S
C958 O949 1.255 . S
C958 O950 1.265 . S
O959 Tb936 2.479 . S
O959 C946 1.238 . S
O960 Tb936 2.428 1_556 S
O960 C946 1.206 1_556 S
C961 C964 1.380 . S
C961 C965 1.374 . S
C961 C967 1.507 . S
C962 C963 1.387 . S
C962 C966 1.391 . S
C963 C962 1.387 . S
C963 C964 1.384 . S
C963 H972 0.930 . S
C964 C961 1.380 . S
C964 C963 1.384 . S
C964 H973 0.931 . S
C965 C961 1.374 . S
C965 C966 1.390 . S
C965 H974 0.930 . S
C966 C962 1.391 . S
C966 C965 1.390 . S
C966 H975 0.930 . S
C967 Eu937 2.825 . S
C967 O952 1.238 . S
C967 O953 1.247 . S
C967 C961 1.507 . S
H968 C941 0.930 . S
H969 C942 0.931 . S
H970 C943 0.930 . S
H971 C944 0.930 . S
H972 C963 0.930 . S
H973 C964 0.931 . S
H974 C965 0.930 . S
H975 C966 0.930 . S
H976 C984 0.929 . S
H977 C986 0.953 . S
H978 C988 0.930 . S
H979 C991 0.929 . S
H980 C994 0.930 . S
H981 C996 0.960 . S
H982 C996 0.960 . S
H983 C996 0.960 . S
C984 H976 0.929 . S
C984 C985 1.377 1_655 S
C984 C986 1.399 . S
C985 C984 1.377 1_455 S
C985 C991 1.390 . S
C986 H977 0.953 . S
C986 C984 1.399 . S
C986 C987 1.337 1_655 S
C987 C986 1.337 1_455 S
C987 C988 1.400 . S
C987 C992 1.490 . S
C988 H978 0.930 . S
C988 C987 1.400 . S
C988 C991 1.386 . S
H989 C1005 0.930 . S
H990 C1006 0.931 . S
C991 H979 0.929 . S
C991 C985 1.390 . S
C991 C988 1.386 . S
C992 C987 1.490 . S
C992 C994 1.395 1_455 S
C992 C995 1.403 . S
H993 C999 0.930 . S
C994 H980 0.930 . S
C994 C992 1.395 1_655 S
C994 C997 1.411 . S
C995 C992 1.403 . S
C995 C996 1.524 . S
C995 C999 1.400 . S
C996 H981 0.960 . S
C996 H982 0.960 . S
C996 H983 0.960 . S
C996 C995 1.524 . S
C997 C994 1.411 . S
C997 C998 1.358 1_655 S
C997 C1001 1.522 . S
C998 C997 1.358 1_455 S
C998 C999 1.385 . S
C998 C1000 1.478 . S
C999 H993 0.930 . S
C999 C995 1.400 . S
C999 C998 1.385 . S
C1000 C998 1.478 . S
C1000 C1002 1.381 1_556 S
C1000 C1006 1.383 . S
C1001 C997 1.522 . S
C1001 H1007 0.959 . S
C1001 H1008 0.961 . S
C1001 H1009 0.960 . S
C1002 C1000 1.381 1_554 S
C1002 C1003 1.394 . S
C1002 H1010 0.930 . S
C1003 C1002 1.394 . S
C1003 C1004 1.383 . S
C1003 H1011 0.929 . S
C1004 C1003 1.383 . S
C1004 C1005 1.377 1_554 S
C1005 H989 0.930 . S
C1005 C1004 1.377 1_556 S
C1005 C1006 1.379 . S
C1006 H990 0.931 . S
C1006 C1000 1.383 . S
C1006 C1005 1.379 . S
H1007 C1001 0.959 . S
H1008 C1001 0.961 . S
H1009 C1001 0.960 . S
H1010 C1002 0.930 . S
H1011 C1003 0.929 . S
H1012 C1020 0.929 . S
H1013 C1022 0.930 . S
H1014 C1024 0.930 . S
H1015 C1027 0.929 . S
H1016 C1030 0.930 . S
H1017 C1032 0.960 . S
H1018 C1032 0.960 . S
H1019 C1032 0.960 . S
C1020 H1012 0.929 . S
C1020 C1021 1.377 . S
C1020 C1022 1.384 . S
C1021 C1020 1.377 . S
C1021 C1027 1.390 . S
C1022 H1013 0.930 . S
C1022 C1020 1.384 . S
C1022 C1023 1.372 . S
C1023 C1022 1.372 . S
C1023 C1024 1.400 . S
C1023 C1028 1.490 . S
C1024 H1014 0.930 . S
C1024 C1023 1.400 . S
C1024 C1027 1.386 . S
H1025 C1041 0.930 . S
H1026 C1042 0.931 . S
C1027 H1015 0.929 . S
C1027 C1021 1.390 . S
C1027 C1024 1.386 . S
C1028 C1023 1.490 . S
C1028 C1030 1.395 . S
C1028 C1031 1.403 . S
H1029 C1035 0.930 . S
C1030 H1016 0.930 . S
C1030 C1028 1.395 . S
C1030 C1033 1.403 . S
C1031 C1028 1.403 . S
C1031 C1032 1.524 . S
C1031 C1035 1.400 . S
C1032 H1017 0.960 . S
C1032 H1018 0.960 . S
C1032 H1019 0.960 . S
C1032 C1031 1.524 . S
C1033 C1030 1.403 . S
C1033 C1034 1.392 . S
C1033 C1037 1.495 . S
C1034 C1033 1.392 . S
C1034 C1035 1.385 . S
C1034 C1036 1.478 . S
C1035 H1029 0.930 . S
C1035 C1031 1.400 . S
C1035 C1034 1.385 . S
C1036 C1034 1.478 . S
C1036 C1038 1.381 . S
C1036 C1042 1.383 . S
C1037 C1033 1.495 . S
C1037 H1043 0.959 . S
C1037 H1044 0.961 . S
C1037 H1045 0.960 . S
C1038 C1036 1.381 . S
C1038 C1039 1.394 . S
C1038 H1046 0.930 . S
C1039 C1038 1.394 . S
C1039 C1040 1.383 . S
C1039 H1047 0.929 . S
C1040 C1039 1.383 . S
C1040 C1041 1.377 . S
C1041 H1025 0.930 . S
C1041 C1040 1.377 . S
C1041 C1042 1.379 . S
C1042 H1026 0.931 . S
C1042 C1036 1.383 . S
C1042 C1041 1.379 . S
H1043 C1037 0.959 . S
H1044 C1037 0.961 . S
H1045 C1037 0.960 . S
H1046 C1038 0.930 . S
H1047 C1039 0.929 . S
H1048 C1056 0.929 . S
H1049 C1058 0.930 . S
H1050 C1060 0.930 . S
H1051 C1063 0.929 . S
H1052 C1066 0.930 . S
H1053 C1068 0.960 . S
H1054 C1068 0.960 . S
H1055 C1068 0.960 . S
C1056 H1048 0.929 . S
C1056 C1057 1.377 . S
C1056 C1058 1.384 . S
C1057 C1056 1.377 . S
C1057 C1063 1.390 . S
C1058 H1049 0.930 . S
C1058 C1056 1.384 . S
C1058 C1059 1.372 . S
C1059 C1058 1.372 . S
C1059 C1060 1.400 . S
C1059 C1064 1.490 . S
C1060 H1050 0.930 . S
C1060 C1059 1.400 . S
C1060 C1063 1.386 . S
H1061 C1077 0.930 . S
H1062 C1078 0.931 . S
C1063 H1051 0.929 . S
C1063 C1057 1.390 . S
C1063 C1060 1.386 . S
C1064 C1059 1.490 . S
C1064 C1066 1.395 . S
C1064 C1067 1.403 . S
H1065 C1071 0.930 . S
C1066 H1052 0.930 . S
C1066 C1064 1.395 . S
C1066 C1069 1.403 . S
C1067 C1064 1.403 . S
C1067 C1068 1.524 . S
C1067 C1071 1.400 . S
C1068 H1053 0.960 . S
C1068 H1054 0.960 . S
C1068 H1055 0.960 . S
C1068 C1067 1.524 . S
C1069 C1066 1.403 . S
C1069 C1070 1.392 . S
C1069 C1073 1.495 . S
C1070 C1069 1.392 . S
C1070 C1071 1.385 . S
C1070 C1072 1.478 . S
C1071 H1065 0.930 . S
C1071 C1067 1.400 . S
C1071 C1070 1.385 . S
C1072 C1070 1.478 . S
C1072 C1074 1.381 . S
C1072 C1078 1.383 . S
C1073 C1069 1.495 . S
C1073 H1079 0.959 . S
C1073 H1080 0.961 . S
C1073 H1081 0.960 . S
C1074 C1072 1.381 . S
C1074 C1075 1.394 . S
C1074 H1082 0.930 . S
C1075 C1074 1.394 . S
C1075 C1076 1.383 . S
C1075 H1083 0.929 . S
C1076 C1075 1.383 . S
C1076 C1077 1.377 . S
C1077 H1061 0.930 . S
C1077 C1076 1.377 . S
C1077 C1078 1.379 . S
C1078 H1062 0.931 . S
C1078 C1072 1.383 . S
C1078 C1077 1.379 . S
H1079 C1073 0.959 . S
H1080 C1073 0.961 . S
H1081 C1073 0.960 . S
H1082 C1074 0.930 . S
H1083 C1075 0.929 . S
H1084 C1092 0.929 . S
H1085 C1094 0.930 . S
H1086 C1096 0.930 . S
H1087 C1099 0.929 . S
H1088 C1102 0.930 . S
H1089 C1104 0.960 . S
H1090 C1104 0.960 . S
H1091 C1104 0.960 . S
C1092 H1084 0.929 . S
C1092 C1093 1.377 . S
C1092 C1094 1.384 . S
C1093 C1092 1.377 . S
C1093 C1099 1.390 . S
C1094 H1085 0.930 . S
C1094 C1092 1.384 . S
C1094 C1095 1.372 . S
C1095 C1094 1.372 . S
C1095 C1096 1.400 . S
C1095 C1100 1.490 . S
C1096 H1086 0.930 . S
C1096 C1095 1.400 . S
C1096 C1099 1.386 . S
H1097 C1113 0.930 . S
H1098 C1114 0.931 . S
C1099 H1087 0.929 . S
C1099 C1093 1.390 . S
C1099 C1096 1.386 . S
C1100 C1095 1.490 . S
C1100 C1102 1.395 . S
C1100 C1103 1.403 . S
H1101 C1107 0.930 . S
C1102 H1088 0.930 . S
C1102 C1100 1.395 . S
C1102 C1105 1.403 . S
C1103 C1100 1.403 . S
C1103 C1104 1.524 . S
C1103 C1107 1.400 . S
C1104 H1089 0.960 . S
C1104 H1090 0.960 . S
C1104 H1091 0.960 . S
C1104 C1103 1.524 . S
C1105 C1102 1.403 . S
C1105 C1106 1.392 . S
C1105 C1109 1.495 . S
C1106 C1105 1.392 . S
C1106 C1107 1.385 . S
C1106 C1108 1.478 . S
C1107 H1101 0.930 . S
C1107 C1103 1.400 . S
C1107 C1106 1.385 . S
C1108 C1106 1.478 . S
C1108 C1110 1.381 . S
C1108 C1114 1.383 . S
C1109 C1105 1.495 . S
C1109 H1115 0.959 . S
C1109 H1116 0.961 . S
C1109 H1117 0.960 . S
C1110 C1108 1.381 . S
C1110 C1111 1.394 . S
C1110 H1118 0.930 . S
C1111 C1110 1.394 . S
C1111 C1112 1.383 . S
C1111 H1119 0.929 . S
C1112 C1111 1.383 . S
C1112 C1113 1.377 . S
C1113 H1097 0.930 . S
C1113 C1112 1.377 . S
C1113 C1114 1.379 . S
C1114 H1098 0.931 . S
C1114 C1108 1.383 . S
C1114 C1113 1.379 . S
H1115 C1109 0.959 . S
H1116 C1109 0.961 . S
H1117 C1109 0.960 . S
H1118 C1110 0.930 . S
H1119 C1111 0.929 . S
H1120 C1128 0.929 . S
H1121 C1130 0.930 . S
H1122 C1132 0.930 . S
H1123 C1135 0.929 . S
H1124 C1138 0.930 . S
H1125 C1140 0.960 . S
H1126 C1140 0.960 . S
H1127 C1140 0.960 . S
C1128 H1120 0.929 . S
C1128 C1129 1.377 . S
C1128 C1130 1.384 . S
C1129 C1128 1.377 . S
C1129 C1135 1.390 . S
C1130 H1121 0.930 . S
C1130 C1128 1.384 . S
C1130 C1131 1.372 . S
C1131 C1130 1.372 . S
C1131 C1132 1.400 . S
C1131 C1136 1.490 . S
C1132 H1122 0.930 . S
C1132 C1131 1.400 . S
C1132 C1135 1.386 . S
H1133 C1149 0.930 . S
H1134 C1150 0.931 . S
C1135 H1123 0.929 . S
C1135 C1129 1.390 . S
C1135 C1132 1.386 . S
C1136 C1131 1.490 . S
C1136 C1138 1.395 . S
C1136 C1139 1.403 . S
H1137 C1143 0.930 . S
C1138 H1124 0.930 . S
C1138 C1136 1.395 . S
C1138 C1141 1.403 . S
C1139 C1136 1.403 . S
C1139 C1140 1.524 . S
C1139 C1143 1.400 . S
C1140 H1125 0.960 . S
C1140 H1126 0.960 . S
C1140 H1127 0.960 . S
C1140 C1139 1.524 . S
C1141 C1138 1.403 . S
C1141 C1142 1.392 . S
C1141 C1145 1.495 . S
C1142 C1141 1.392 . S
C1142 C1143 1.385 . S
C1142 C1144 1.478 . S
C1143 H1137 0.930 . S
C1143 C1139 1.400 . S
C1143 C1142 1.385 . S
C1144 C1142 1.478 . S
C1144 C1146 1.381 . S
C1144 C1150 1.383 . S
C1145 C1141 1.495 . S
C1145 H1151 0.959 . S
C1145 H1152 0.961 . S
C1145 H1153 0.960 . S
C1146 C1144 1.381 . S
C1146 C1147 1.394 . S
C1146 H1154 0.930 . S
C1147 C1146 1.394 . S
C1147 C1148 1.383 . S
C1147 H1155 0.929 . S
C1148 C1147 1.383 . S
C1148 C1149 1.377 . S
C1149 H1133 0.930 . S
C1149 C1148 1.377 . S
C1149 C1150 1.379 . S
C1150 H1134 0.931 . S
C1150 C1144 1.383 . S
C1150 C1149 1.379 . S
H1151 C1145 0.959 . S
H1152 C1145 0.961 . S
H1153 C1145 0.960 . S
H1154 C1146 0.930 . S
H1155 C1147 0.929 . S
H1156 C1164 0.929 . S
H1157 C1166 0.930 . S
H1158 C1168 0.930 . S
H1159 C1171 0.929 . S
H1160 C1174 0.930 . S
H1161 C1176 0.960 . S
H1162 C1176 0.960 . S
H1163 C1176 0.960 . S
C1164 H1156 0.929 . S
C1164 C1165 1.377 . S
C1164 C1166 1.384 . S
C1165 C1164 1.377 . S
C1165 C1171 1.390 . S
C1166 H1157 0.930 . S
C1166 C1164 1.384 . S
C1166 C1167 1.372 . S
C1167 C1166 1.372 . S
C1167 C1168 1.400 . S
C1167 C1172 1.490 . S
C1168 H1158 0.930 . S
C1168 C1167 1.400 . S
C1168 C1171 1.386 . S
H1169 C1185 0.930 . S
H1170 C1186 0.931 . S
C1171 H1159 0.929 . S
C1171 C1165 1.390 . S
C1171 C1168 1.386 . S
C1172 C1167 1.490 . S
C1172 C1174 1.395 . S
C1172 C1175 1.403 . S
H1173 C1179 0.930 . S
C1174 H1160 0.930 . S
C1174 C1172 1.395 . S
C1174 C1177 1.403 . S
C1175 C1172 1.403 . S
C1175 C1176 1.524 . S
C1175 C1179 1.400 . S
C1176 H1161 0.960 . S
C1176 H1162 0.960 . S
C1176 H1163 0.960 . S
C1176 C1175 1.524 . S
C1177 C1174 1.403 . S
C1177 C1178 1.392 . S
C1177 C1181 1.495 . S
C1178 C1177 1.392 . S
C1178 C1179 1.385 . S
C1178 C1180 1.478 . S
C1179 H1173 0.930 . S
C1179 C1175 1.400 . S
C1179 C1178 1.385 . S
C1180 C1178 1.478 . S
C1180 C1182 1.381 . S
C1180 C1186 1.383 . S
C1181 C1177 1.495 . S
C1181 H1187 0.959 . S
C1181 H1188 0.961 . S
C1181 H1189 0.960 . S
C1182 C1180 1.381 . S
C1182 C1183 1.394 . S
C1182 H1190 0.930 . S
C1183 C1182 1.394 . S
C1183 C1184 1.383 . S
C1183 H1191 0.929 . S
C1184 C1183 1.383 . S
C1184 C1185 1.377 . S
C1185 H1169 0.930 . S
C1185 C1184 1.377 . S
C1185 C1186 1.379 . S
C1186 H1170 0.931 . S
C1186 C1180 1.383 . S
C1186 C1185 1.379 . S
H1187 C1181 0.959 . S
H1188 C1181 0.961 . S
H1189 C1181 0.960 . S
H1190 C1182 0.930 . S
H1191 C1183 0.929 . S
H1192 C1200 0.929 . S
H1193 C1202 0.930 . S
H1194 C1204 0.930 . S
H1195 C1207 0.929 . S
H1196 C1210 0.930 . S
H1197 C1212 0.960 . S
H1198 C1212 0.960 . S
H1199 C1212 0.960 . S
C1200 H1192 0.929 . S
C1200 C1201 1.377 . S
C1200 C1202 1.384 . S
C1201 C1200 1.377 . S
C1201 C1207 1.390 . S
C1202 H1193 0.930 . S
C1202 C1200 1.384 . S
C1202 C1203 1.372 . S
C1203 C1202 1.372 . S
C1203 C1204 1.400 . S
C1203 C1208 1.490 . S
C1204 H1194 0.930 . S
C1204 C1203 1.400 . S
C1204 C1207 1.386 . S
H1205 C1221 0.930 . S
H1206 C1222 0.931 . S
C1207 H1195 0.929 . S
C1207 C1201 1.390 . S
C1207 C1204 1.386 . S
C1208 C1203 1.490 . S
C1208 C1210 1.395 . S
C1208 C1211 1.403 . S
H1209 C1215 0.930 . S
C1210 H1196 0.930 . S
C1210 C1208 1.395 . S
C1210 C1213 1.403 . S
C1211 C1208 1.403 . S
C1211 C1212 1.524 . S
C1211 C1215 1.400 . S
C1212 H1197 0.960 . S
C1212 H1198 0.960 . S
C1212 H1199 0.960 . S
C1212 C1211 1.524 . S
C1213 C1210 1.403 . S
C1213 C1214 1.392 . S
C1213 C1217 1.495 . S
C1214 C1213 1.392 . S
C1214 C1215 1.385 . S
C1214 C1216 1.478 . S
C1215 H1209 0.930 . S
C1215 C1211 1.400 . S
C1215 C1214 1.385 . S
C1216 C1214 1.478 . S
C1216 C1218 1.381 . S
C1216 C1222 1.383 . S
C1217 C1213 1.495 . S
C1217 H1223 0.959 . S
C1217 H1224 0.961 . S
C1217 H1225 0.960 . S
C1218 C1216 1.381 . S
C1218 C1219 1.394 . S
C1218 H1226 0.930 . S
C1219 C1218 1.394 . S
C1219 C1220 1.383 . S
C1219 H1227 0.929 . S
C1220 C1219 1.383 . S
C1220 C1221 1.377 . S
C1221 H1205 0.930 . S
C1221 C1220 1.377 . S
C1221 C1222 1.379 . S
C1222 H1206 0.931 . S
C1222 C1216 1.383 . S
C1222 C1221 1.379 . S
H1223 C1217 0.959 . S
H1224 C1217 0.961 . S
H1225 C1217 0.960 . S
H1226 C1218 0.930 . S
H1227 C1219 0.929 . S
H1228 C1236 0.929 . S
H1229 C1238 0.930 . S
H1230 C1240 0.930 . S
H1231 C1243 0.929 . S
H1232 C1246 0.930 . S
H1233 C1248 0.960 . S
H1234 C1248 0.960 . S
H1235 C1248 0.960 . S
C1236 H1228 0.929 . S
C1236 C1237 1.377 . S
C1236 C1238 1.384 . S
C1237 C1236 1.377 . S
C1237 C1243 1.390 . S
C1238 H1229 0.930 . S
C1238 C1236 1.384 . S
C1238 C1239 1.372 . S
C1239 C1238 1.372 . S
C1239 C1240 1.400 . S
C1239 C1244 1.490 . S
C1240 H1230 0.930 . S
C1240 C1239 1.400 . S
C1240 C1243 1.386 . S
H1241 C1257 0.930 . S
H1242 C1258 0.931 . S
C1243 H1231 0.929 . S
C1243 C1237 1.390 . S
C1243 C1240 1.386 . S
C1244 C1239 1.490 . S
C1244 C1246 1.395 . S
C1244 C1247 1.403 . S
H1245 C1251 0.930 . S
C1246 H1232 0.930 . S
C1246 C1244 1.395 . S
C1246 C1249 1.403 . S
C1247 C1244 1.403 . S
C1247 C1248 1.524 . S
C1247 C1251 1.400 . S
C1248 H1233 0.960 . S
C1248 H1234 0.960 . S
C1248 H1235 0.960 . S
C1248 C1247 1.524 . S
C1249 C1246 1.403 . S
C1249 C1250 1.392 . S
C1249 C1253 1.495 . S
C1250 C1249 1.392 . S
C1250 C1251 1.385 . S
C1250 C1252 1.478 . S
C1251 H1245 0.930 . S
C1251 C1247 1.400 . S
C1251 C1250 1.385 . S
C1252 C1250 1.478 . S
C1252 C1254 1.381 . S
C1252 C1258 1.383 . S
C1253 C1249 1.495 . S
C1253 H1259 0.959 . S
C1253 H1260 0.961 . S
C1253 H1261 0.960 . S
C1254 C1252 1.381 . S
C1254 C1255 1.394 . S
C1254 H1262 0.930 . S
C1255 C1254 1.394 . S
C1255 C1256 1.383 . S
C1255 H1263 0.929 . S
C1256 C1255 1.383 . S
C1256 C1257 1.377 . S
C1257 H1241 0.930 . S
C1257 C1256 1.377 . S
C1257 C1258 1.379 . S
C1258 H1242 0.931 . S
C1258 C1252 1.383 . S
C1258 C1257 1.379 . S
H1259 C1253 0.959 . S
H1260 C1253 0.961 . S
H1261 C1253 0.960 . S
H1262 C1254 0.930 . S
H1263 C1255 0.929 . S
H1264 C1272 0.929 . S
H1265 C1274 0.930 . S
H1266 C1276 0.930 . S
H1267 C1279 0.929 . S
H1268 C1282 0.930 . S
H1269 C1284 0.960 1_455 S
H1270 C1284 0.960 1_565 S
H1271 C1284 0.960 . S
C1272 H1264 0.929 . S
C1272 C1273 1.377 1_565 S
C1272 C1274 1.384 . S
C1273 C1272 1.377 1_545 S
C1273 C1279 1.390 . S
C1274 H1265 0.930 . S
C1274 C1272 1.384 . S
C1274 C1275 1.372 1_565 S
C1275 C1274 1.372 1_545 S
C1275 C1276 1.400 . S
C1275 C1280 1.490 . S
C1276 H1266 0.930 . S
C1276 C1275 1.400 . S
C1276 C1279 1.386 . S
H1277 C1293 0.930 . S
H1278 C1294 0.931 . S
C1279 H1267 0.929 . S
C1279 C1273 1.390 . S
C1279 C1276 1.386 . S
C1280 C1275 1.490 . S
C1280 C1282 1.395 . S
C1280 C1283 1.403 . S
H1281 C1287 0.930 1_455 S
C1282 H1268 0.930 . S
C1282 C1280 1.395 . S
C1282 C1285 1.403 . S
C1283 C1280 1.403 . S
C1283 C1284 1.524 . S
C1283 C1287 1.400 . S
C1284 H1269 0.960 1_655 S
C1284 H1270 0.960 1_545 S
C1284 H1271 0.960 . S
C1284 C1283 1.524 . S
C1285 C1282 1.403 . S
C1285 C1286 1.392 . S
C1285 C1289 1.495 . S
C1286 C1285 1.392 . S
C1286 C1287 1.385 . S
C1286 C1288 1.478 . S
C1287 H1281 0.930 1_655 S
C1287 C1283 1.400 . S
C1287 C1286 1.385 . S
C1288 C1286 1.478 . S
C1288 C1290 1.381 . S
C1288 C1294 1.383 1_655 S
C1289 C1285 1.495 . S
C1289 H1295 0.959 . S
C1289 H1296 0.961 . S
C1289 H1297 0.960 . S
C1290 C1288 1.381 . S
C1290 C1291 1.394 1_655 S
C1290 H1298 0.930 1_545 S
C1291 C1290 1.394 1_455 S
C1291 C1292 1.383 . S
C1291 H1299 0.929 . S
C1292 C1291 1.383 . S
C1292 C1293 1.377 . S
C1293 H1277 0.930 . S
C1293 C1292 1.377 . S
C1293 C1294 1.379 . S
C1294 H1278 0.931 . S
C1294 C1288 1.383 1_455 S
C1294 C1293 1.379 . S
H1295 C1289 0.959 . S
H1296 C1289 0.961 . S
H1297 C1289 0.960 . S
H1298 C1290 0.930 1_565 S
H1299 C1291 0.929 . S
H1300 C1308 0.929 . S
H1301 C1310 0.930 . S
H1302 C1312 0.930 . S
H1303 C1315 0.929 . S
H1304 C1318 0.930 . S
H1305 C1320 0.960 . S
H1306 C1320 0.960 . S
H1307 C1320 0.960 . S
C1308 H1300 0.929 . S
C1308 C1309 1.377 . S
C1308 C1310 1.384 . S
C1309 C1308 1.377 . S
C1309 C1315 1.390 . S
C1310 H1301 0.930 . S
C1310 C1308 1.384 . S
C1310 C1311 1.372 . S
C1311 C1310 1.372 . S
C1311 C1312 1.400 . S
C1311 C1316 1.490 . S
C1312 H1302 0.930 . S
C1312 C1311 1.400 . S
C1312 C1315 1.386 . S
H1313 C1329 0.930 . S
H1314 C1330 0.931 . S
C1315 H1303 0.929 . S
C1315 C1309 1.390 . S
C1315 C1312 1.386 . S
C1316 C1311 1.490 . S
C1316 C1318 1.395 . S
C1316 C1319 1.403 . S
H1317 C1323 0.930 . S
C1318 H1304 0.930 . S
C1318 C1316 1.395 . S
C1318 C1321 1.403 . S
C1319 C1316 1.403 . S
C1319 C1320 1.524 . S
C1319 C1323 1.400 . S
C1320 H1305 0.960 . S
C1320 H1306 0.960 . S
C1320 H1307 0.960 . S
C1320 C1319 1.524 . S
C1321 C1318 1.403 . S
C1321 C1322 1.392 . S
C1321 C1325 1.495 . S
C1322 C1321 1.392 . S
C1322 C1323 1.385 . S
C1322 C1324 1.478 . S
C1323 H1317 0.930 . S
C1323 C1319 1.400 . S
C1323 C1322 1.385 . S
C1324 C1322 1.478 . S
C1324 C1326 1.381 . S
C1324 C1330 1.383 . S
C1325 C1321 1.495 . S
C1325 H1331 0.959 . S
C1325 H1332 0.961 . S
C1325 H1333 0.960 . S
C1326 C1324 1.381 . S
C1326 C1327 1.394 . S
C1326 H1334 0.930 . S
C1327 C1326 1.394 . S
C1327 C1328 1.383 . S
C1327 H1335 0.929 . S
C1328 C1327 1.383 . S
C1328 C1329 1.377 . S
C1329 H1313 0.930 . S
C1329 C1328 1.377 . S
C1329 C1330 1.379 . S
C1330 H1314 0.931 . S
C1330 C1324 1.383 . S
C1330 C1329 1.379 . S
H1331 C1325 0.959 . S
H1332 C1325 0.961 . S
H1333 C1325 0.960 . S
H1334 C1326 0.930 . S
H1335 C1327 0.929 . S
H1336 C1344 0.929 . S
H1337 C1346 0.930 . S
H1338 C1348 0.930 . S
H1339 C1351 0.929 . S
H1340 C1354 0.930 . S
H1341 C1356 0.960 . S
H1342 C1356 0.960 . S
H1343 C1356 0.960 . S
C1344 H1336 0.929 . S
C1344 C1345 1.377 1_545 S
C1344 C1346 1.384 . S
C1345 C1344 1.377 1_565 S
C1345 C1351 1.390 . S
C1346 H1337 0.930 . S
C1346 C1344 1.384 . S
C1346 C1347 1.372 . S
C1347 C1346 1.372 . S
C1347 C1348 1.400 1_545 S
C1347 C1352 1.490 . S
C1348 H1338 0.930 . S
C1348 C1347 1.400 1_565 S
C1348 C1351 1.386 . S
H1349 C1365 0.930 . S
H1350 C1366 0.931 . S
C1351 H1339 0.929 . S
C1351 C1345 1.390 . S
C1351 C1348 1.386 . S
C1352 C1347 1.490 . S
C1352 C1354 1.395 . S
C1352 C1355 1.403 1_545 S
H1353 C1359 0.930 . S
C1354 H1340 0.930 . S
C1354 C1352 1.395 . S
C1354 C1357 1.403 . S
C1355 C1352 1.403 1_565 S
C1355 C1356 1.524 . S
C1355 C1359 1.400 . S
C1356 H1341 0.960 . S
C1356 H1342 0.960 . S
C1356 H1343 0.960 . S
C1356 C1355 1.524 . S
C1357 C1354 1.403 . S
C1357 C1358 1.392 . S
C1357 C1361 1.495 . S
C1358 C1357 1.392 . S
C1358 C1359 1.385 1_545 S
C1358 C1360 1.478 . S
C1359 H1353 0.930 . S
C1359 C1355 1.400 . S
C1359 C1358 1.385 1_565 S
C1360 C1358 1.478 . S
C1360 C1362 1.381 . S
C1360 C1366 1.383 . S
C1361 C1357 1.495 . S
C1361 H1367 0.959 . S
C1361 H1368 0.961 . S
C1361 H1369 0.960 . S
C1362 C1360 1.381 . S
C1362 C1363 1.394 . S
C1362 H1370 0.930 . S
C1363 C1362 1.394 . S
C1363 C1364 1.383 . S
C1363 H1371 0.929 . S
C1364 C1363 1.383 . S
C1364 C1365 1.377 . S
C1365 H1349 0.930 . S
C1365 C1364 1.377 . S
C1365 C1366 1.379 . S
C1366 H1350 0.931 . S
C1366 C1360 1.383 . S
C1366 C1365 1.379 . S
H1367 C1361 0.959 . S
H1368 C1361 0.961 . S
H1369 C1361 0.960 . S
H1370 C1362 0.930 . S
H1371 C1363 0.929 . S
H1372 C1380 0.929 . S
H1373 C1382 0.930 . S
H1374 C1384 0.930 . S
H1375 C1387 0.929 . S
H1376 C1390 0.930 . S
H1377 C1392 0.960 . S
H1378 C1392 0.960 . S
H1379 C1392 0.960 . S
C1380 H1372 0.929 . S
C1380 C1381 1.377 . S
C1380 C1382 1.384 . S
C1381 C1380 1.377 . S
C1381 C1387 1.390 . S
C1382 H1373 0.930 . S
C1382 C1380 1.384 . S
C1382 C1383 1.372 . S
C1383 C1382 1.372 . S
C1383 C1384 1.400 . S
C1383 C1388 1.490 . S
C1384 H1374 0.930 . S
C1384 C1383 1.400 . S
C1384 C1387 1.386 . S
H1385 C1401 0.930 . S
H1386 C1402 0.931 . S
C1387 H1375 0.929 . S
C1387 C1381 1.390 . S
C1387 C1384 1.386 . S
C1388 C1383 1.490 . S
C1388 C1390 1.395 . S
C1388 C1391 1.403 . S
H1389 C1395 0.930 . S
C1390 H1376 0.930 . S
C1390 C1388 1.395 . S
C1390 C1393 1.403 . S
C1391 C1388 1.403 . S
C1391 C1392 1.524 . S
C1391 C1395 1.400 . S
C1392 H1377 0.960 . S
C1392 H1378 0.960 . S
C1392 H1379 0.960 . S
C1392 C1391 1.524 . S
C1393 C1390 1.403 . S
C1393 C1394 1.392 . S
C1393 C1397 1.495 . S
C1394 C1393 1.392 . S
C1394 C1395 1.385 . S
C1394 C1396 1.478 . S
C1395 H1389 0.930 . S
C1395 C1391 1.400 . S
C1395 C1394 1.385 . S
C1396 C1394 1.478 . S
C1396 C1398 1.381 . S
C1396 C1402 1.383 . S
C1397 C1393 1.495 . S
C1397 H1403 0.959 . S
C1397 H1404 0.961 . S
C1397 H1405 0.960 . S
C1398 C1396 1.381 . S
C1398 C1399 1.394 . S
C1398 H1406 0.930 . S
C1399 C1398 1.394 . S
C1399 C1400 1.383 . S
C1399 H1407 0.929 . S
C1400 C1399 1.383 . S
C1400 C1401 1.377 . S
C1401 H1385 0.930 . S
C1401 C1400 1.377 . S
C1401 C1402 1.379 . S
C1402 H1386 0.931 . S
C1402 C1396 1.383 . S
C1402 C1401 1.379 . S
H1403 C1397 0.959 . S
H1404 C1397 0.961 . S
H1405 C1397 0.960 . S
H1406 C1398 0.930 . S
H1407 C1399 0.929 . S
H1408 C1416 0.929 1_565 S
H1409 C1418 0.930 . S
H1410 C1420 0.930 . S
H1411 C1423 0.929 . S
H1412 C1426 0.930 . S
H1413 C1428 0.960 . S
H1414 C1428 0.960 . S
H1415 C1428 0.960 . S
C1416 H1408 0.929 1_545 S
C1416 C1417 1.377 . S
C1416 C1418 1.384 . S
C1417 C1416 1.377 . S
C1417 C1423 1.390 . S
C1418 H1409 0.930 . S
C1418 C1416 1.384 . S
C1418 C1419 1.372 . S
C1419 C1418 1.372 . S
C1419 C1420 1.400 . S
C1419 C1424 1.490 . S
C1420 H1410 0.930 . S
C1420 C1419 1.400 . S
C1420 C1423 1.386 . S
H1421 C1437 0.930 . S
H1422 C1438 0.931 . S
C1423 H1411 0.929 . S
C1423 C1417 1.390 . S
C1423 C1420 1.386 . S
C1424 C1419 1.490 . S
C1424 C1426 1.395 . S
C1424 C1427 1.383 1_545 S
H1425 C1431 0.930 1_565 S
C1426 H1412 0.930 . S
C1426 C1424 1.395 . S
C1426 C1429 1.403 . S
C1427 C1424 1.383 1_565 S
C1427 C1428 1.545 . S
C1427 C1431 1.399 1_565 S
C1428 H1413 0.960 . S
C1428 H1414 0.960 . S
C1428 H1415 0.960 . S
C1428 C1427 1.545 . S
C1429 C1426 1.403 . S
C1429 C1430 1.392 . S
C1429 C1433 1.495 . S
C1430 C1429 1.392 . S
C1430 C1431 1.385 . S
C1430 C1432 1.478 . S
C1431 H1425 0.930 1_545 S
C1431 C1427 1.399 1_545 S
C1431 C1430 1.385 . S
C1432 C1430 1.478 . S
C1432 C1434 1.318 1_655 S
C1432 C1438 1.383 . S
C1433 C1429 1.495 . S
C1433 H1439 0.959 . S
C1433 H1440 0.961 . S
C1433 H1441 0.960 1_655 S
C1434 C1432 1.318 1_455 S
C1434 C1435 1.420 . S
C1434 H1442 0.970 . S
C1435 C1434 1.420 . S
C1435 C1436 1.383 . S
C1435 H1443 0.929 . S
C1436 C1435 1.383 . S
C1436 C1437 1.377 1_455 S
C1437 H1421 0.930 . S
C1437 C1436 1.377 1_655 S
C1437 C1438 1.379 . S
C1438 H1422 0.931 . S
C1438 C1432 1.383 . S
C1438 C1437 1.379 . S
H1439 C1433 0.959 . S
H1440 C1433 0.961 . S
H1441 C1433 0.960 1_455 S
H1442 C1434 0.970 . S
H1443 C1435 0.929 . S
H1444 C1452 0.929 . S
H1445 C1454 0.930 . S
H1446 C1456 0.930 . S
H1447 C1459 0.929 . S
H1448 C1462 0.930 . S
H1449 C1464 0.960 . S
H1450 C1464 0.960 . S
H1451 C1464 0.960 . S
C1452 H1444 0.929 . S
C1452 C1453 1.377 . S
C1452 C1454 1.384 . S
C1453 C1452 1.377 . S
C1453 C1459 1.390 . S
C1454 H1445 0.930 . S
C1454 C1452 1.384 . S
C1454 C1455 1.372 . S
C1455 C1454 1.372 . S
C1455 C1456 1.400 . S
C1455 C1460 1.490 . S
C1456 H1446 0.930 . S
C1456 C1455 1.400 . S
C1456 C1459 1.386 . S
H1457 C1473 0.930 . S
H1458 C1474 0.931 . S
C1459 H1447 0.929 . S
C1459 C1453 1.390 . S
C1459 C1456 1.386 . S
C1460 C1455 1.490 . S
C1460 C1462 1.395 . S
C1460 C1463 1.403 . S
H1461 C1467 0.930 . S
C1462 H1448 0.930 . S
C1462 C1460 1.395 . S
C1462 C1465 1.403 . S
C1463 C1460 1.403 . S
C1463 C1464 1.524 . S
C1463 C1467 1.400 . S
C1464 H1449 0.960 . S
C1464 H1450 0.960 . S
C1464 H1451 0.960 . S
C1464 C1463 1.524 . S
C1465 C1462 1.403 . S
C1465 C1466 1.392 . S
C1465 C1469 1.495 . S
C1466 C1465 1.392 . S
C1466 C1467 1.385 . S
C1466 C1468 1.478 . S
C1467 H1461 0.930 . S
C1467 C1463 1.400 . S
C1467 C1466 1.385 . S
C1468 C1466 1.478 . S
C1468 C1470 1.381 . S
C1468 C1474 1.383 . S
C1469 C1465 1.495 . S
C1469 H1475 0.959 . S
C1469 H1476 0.961 . S
C1469 H1477 0.960 . S
C1470 C1468 1.381 . S
C1470 C1471 1.394 . S
C1470 H1478 0.930 . S
C1471 C1470 1.394 . S
C1471 C1472 1.383 . S
C1471 H1479 0.929 . S
C1472 C1471 1.383 . S
C1472 C1473 1.377 . S
C1473 H1457 0.930 . S
C1473 C1472 1.377 . S
C1473 C1474 1.379 . S
C1474 H1458 0.931 . S
C1474 C1468 1.383 . S
C1474 C1473 1.379 . S
H1475 C1469 0.959 . S
H1476 C1469 0.961 . S
H1477 C1469 0.960 . S
H1478 C1470 0.930 . S
H1479 C1471 0.929 . S
H1480 C1488 0.929 . S
H1481 C1490 0.930 . S
H1482 C1492 0.930 . S
H1483 C1495 0.929 . S
H1484 C1498 0.930 . S
H1485 C1500 0.960 . S
H1486 C1500 0.960 . S
H1487 C1500 0.960 . S
C1488 H1480 0.929 . S
C1488 C1489 1.377 1_545 S
C1488 C1490 1.384 . S
C1489 C1488 1.377 1_565 S
C1489 C1495 1.390 . S
C1490 H1481 0.930 . S
C1490 C1488 1.384 . S
C1490 C1491 1.372 . S
C1491 C1490 1.372 . S
C1491 C1492 1.400 1_545 S
C1491 C1496 1.490 . S
C1492 H1482 0.930 . S
C1492 C1491 1.400 1_565 S
C1492 C1495 1.386 . S
H1493 C1509 0.930 . S
H1494 C1510 0.931 . S
C1495 H1483 0.929 . S
C1495 C1489 1.390 . S
C1495 C1492 1.386 . S
C1496 C1491 1.490 . S
C1496 C1498 1.395 . S
C1496 C1499 1.403 . S
H1497 C1503 0.930 . S
C1498 H1484 0.930 . S
C1498 C1496 1.395 . S
C1498 C1501 1.403 . S
C1499 C1496 1.403 . S
C1499 C1500 1.524 1_545 S
C1499 C1503 1.400 . S
C1500 H1485 0.960 . S
C1500 H1486 0.960 . S
C1500 H1487 0.960 . S
C1500 C1499 1.524 1_565 S
C1501 C1498 1.403 . S
C1501 C1502 1.392 . S
C1501 C1505 1.495 . S
C1502 C1501 1.392 . S
C1502 C1503 1.385 . S
C1502 C1504 1.478 . S
C1503 H1497 0.930 . S
C1503 C1499 1.400 . S
C1503 C1502 1.385 . S
C1504 C1502 1.478 . S
C1504 C1506 1.381 . S
C1504 C1510 1.383 . S
C1505 C1501 1.495 . S
C1505 H1511 0.959 . S
C1505 H1512 0.961 . S
C1505 H1513 0.960 . S
C1506 C1504 1.381 . S
C1506 C1507 1.394 . S
C1506 H1514 0.930 . S
C1507 C1506 1.394 . S
C1507 C1508 1.383 . S
C1507 H1515 0.929 . S
C1508 C1507 1.383 . S
C1508 C1509 1.377 . S
C1509 H1493 0.930 . S
C1509 C1508 1.377 . S
C1509 C1510 1.379 . S
C1510 H1494 0.931 . S
C1510 C1504 1.383 . S
C1510 C1509 1.379 . S
H1511 C1505 0.959 . S
H1512 C1505 0.961 . S
H1513 C1505 0.960 . S
H1514 C1506 0.930 . S
H1515 C1507 0.929 . S
H1516 C1524 0.929 . S
H1517 C1526 0.930 . S
H1518 C1528 0.930 . S
H1519 C1531 0.929 . S
H1520 C1534 0.930 . S
H1521 C1536 0.960 . S
H1522 C1536 0.960 . S
H1523 C1536 0.960 . S
C1524 H1516 0.929 . S
C1524 C1525 1.377 . S
C1524 C1526 1.384 . S
C1525 C1524 1.377 . S
C1525 C1531 1.390 . S
C1526 H1517 0.930 . S
C1526 C1524 1.384 . S
C1526 C1527 1.372 . S
C1527 C1526 1.372 . S
C1527 C1528 1.400 . S
C1527 C1532 1.490 . S
C1528 H1518 0.930 . S
C1528 C1527 1.400 . S
C1528 C1531 1.386 . S
H1529 C1545 0.930 . S
H1530 C1546 0.931 . S
C1531 H1519 0.929 . S
C1531 C1525 1.390 . S
C1531 C1528 1.386 . S
C1532 C1527 1.490 . S
C1532 C1534 1.395 . S
C1532 C1535 1.403 . S
H1533 C1539 0.930 . S
C1534 H1520 0.930 . S
C1534 C1532 1.395 . S
C1534 C1537 1.403 . S
C1535 C1532 1.403 . S
C1535 C1536 1.524 . S
C1535 C1539 1.400 . S
C1536 H1521 0.960 . S
C1536 H1522 0.960 . S
C1536 H1523 0.960 . S
C1536 C1535 1.524 . S
C1537 C1534 1.403 . S
C1537 C1538 1.392 . S
C1537 C1541 1.495 . S
C1538 C1537 1.392 . S
C1538 C1539 1.385 . S
C1538 C1540 1.478 . S
C1539 H1533 0.930 . S
C1539 C1535 1.400 . S
C1539 C1538 1.385 . S
C1540 C1538 1.478 . S
C1540 C1542 1.381 . S
C1540 C1546 1.383 . S
C1541 C1537 1.495 . S
C1541 H1547 0.959 . S
C1541 H1548 0.961 . S
C1541 H1549 0.960 . S
C1542 C1540 1.381 . S
C1542 C1543 1.394 . S
C1542 H1550 0.930 . S
C1543 C1542 1.394 . S
C1543 C1544 1.383 . S
C1543 H1551 0.929 . S
C1544 C1543 1.383 . S
C1544 C1545 1.377 . S
C1545 H1529 0.930 . S
C1545 C1544 1.377 . S
C1545 C1546 1.379 . S
C1546 H1530 0.931 . S
C1546 C1540 1.383 . S
C1546 C1545 1.379 . S
H1547 C1541 0.959 . S
H1548 C1541 0.961 . S
H1549 C1541 0.960 . S
H1550 C1542 0.930 . S
H1551 C1543 0.929 . S
H1552 C1560 0.929 . S
H1553 C1562 0.930 . S
H1554 C1564 0.930 . S
H1555 C1567 0.929 . S
H1556 C1570 0.930 . S
H1557 C1572 0.960 . S
H1558 C1572 0.960 . S
H1559 C1572 0.960 . S
C1560 H1552 0.929 . S
C1560 C1561 1.377 . S
C1560 C1562 1.384 . S
C1561 C1560 1.377 . S
C1561 C1567 1.390 . S
C1562 H1553 0.930 . S
C1562 C1560 1.384 . S
C1562 C1563 1.372 . S
C1563 C1562 1.372 . S
C1563 C1564 1.400 . S
C1563 C1568 1.490 . S
C1564 H1554 0.930 . S
C1564 C1563 1.400 . S
C1564 C1567 1.386 . S
H1565 C1581 0.930 . S
H1566 C1582 0.931 . S
C1567 H1555 0.929 . S
C1567 C1561 1.390 . S
C1567 C1564 1.386 . S
C1568 C1563 1.490 . S
C1568 C1570 1.395 . S
C1568 C1571 1.403 . S
H1569 C1575 0.930 . S
C1570 H1556 0.930 . S
C1570 C1568 1.395 . S
C1570 C1573 1.403 . S
C1571 C1568 1.403 . S
C1571 C1572 1.524 . S
C1571 C1575 1.400 . S
C1572 H1557 0.960 . S
C1572 H1558 0.960 . S
C1572 H1559 0.960 . S
C1572 C1571 1.524 . S
C1573 C1570 1.403 . S
C1573 C1574 1.392 . S
C1573 C1577 1.495 . S
C1574 C1573 1.392 . S
C1574 C1575 1.385 . S
C1574 C1576 1.478 . S
C1575 H1569 0.930 . S
C1575 C1571 1.400 . S
C1575 C1574 1.385 . S
C1576 C1574 1.478 . S
C1576 C1578 1.381 . S
C1576 C1582 1.383 . S
C1577 C1573 1.495 . S
C1577 H1583 0.959 . S
C1577 H1584 0.961 . S
C1577 H1585 0.960 . S
C1578 C1576 1.381 . S
C1578 C1579 1.394 . S
C1578 H1586 0.930 . S
C1579 C1578 1.394 . S
C1579 C1580 1.383 . S
C1579 H1587 0.929 . S
C1580 C1579 1.383 . S
C1580 C1581 1.377 . S
C1581 H1565 0.930 . S
C1581 C1580 1.377 . S
C1581 C1582 1.379 . S
C1582 H1566 0.931 . S
C1582 C1576 1.383 . S
C1582 C1581 1.379 . S
H1583 C1577 0.959 . S
H1584 C1577 0.961 . S
H1585 C1577 0.960 . S
H1586 C1578 0.930 . S
H1587 C1579 0.929 . S
H1588 C1596 0.929 . S
H1589 C1598 0.930 . S
H1590 C1600 0.930 . S
H1591 C1603 0.929 . S
H1592 C1606 0.930 . S
H1593 C1608 0.960 . S
H1594 C1608 0.960 . S
H1595 C1608 0.960 1_554 S
C1596 H1588 0.929 . S
C1596 C1597 1.377 . S
C1596 C1598 1.384 . S
C1597 C1596 1.377 . S
C1597 C1603 1.390 . S
C1598 H1589 0.930 . S
C1598 C1596 1.384 . S
C1598 C1599 1.372 . S
C1599 C1598 1.372 . S
C1599 C1600 1.400 . S
C1599 C1604 1.490 . S
C1600 H1590 0.930 . S
C1600 C1599 1.400 . S
C1600 C1603 1.386 . S
H1601 C1617 0.930 . S
H1602 C1618 0.931 . S
C1603 H1591 0.929 . S
C1603 C1597 1.390 . S
C1603 C1600 1.386 . S
C1604 C1599 1.490 . S
C1604 C1606 1.395 . S
C1604 C1607 1.403 . S
H1605 C1611 0.930 . S
C1606 H1592 0.930 . S
C1606 C1604 1.395 . S
C1606 C1609 1.403 . S
C1607 C1604 1.403 . S
C1607 C1608 1.524 1_554 S
C1607 C1611 1.400 . S
C1608 H1593 0.960 . S
C1608 H1594 0.960 . S
C1608 H1595 0.960 1_556 S
C1608 C1607 1.524 1_556 S
C1609 C1606 1.403 . S
C1609 C1610 1.392 . S
C1609 C1613 1.495 . S
C1610 C1609 1.392 . S
C1610 C1611 1.385 . S
C1610 C1612 1.478 . S
C1611 H1605 0.930 . S
C1611 C1607 1.400 . S
C1611 C1610 1.385 . S
C1612 C1610 1.478 . S
C1612 C1614 1.381 . S
C1612 C1618 1.383 . S
C1613 C1609 1.495 . S
C1613 H1619 0.959 . S
C1613 H1620 0.961 . S
C1613 H1621 0.960 . S
C1614 C1612 1.381 . S
C1614 C1615 1.394 . S
C1614 H1622 0.930 . S
C1615 C1614 1.394 . S
C1615 C1616 1.383 . S
C1615 H1623 0.929 . S
C1616 C1615 1.383 . S
C1616 C1617 1.377 . S
C1617 H1601 0.930 . S
C1617 C1616 1.377 . S
C1617 C1618 1.379 . S
C1618 H1602 0.931 . S
C1618 C1612 1.383 . S
C1618 C1617 1.379 . S
H1619 C1613 0.959 . S
H1620 C1613 0.961 . S
H1621 C1613 0.960 . S
H1622 C1614 0.930 . S
H1623 C1615 0.929 . S
H1624 C1632 0.929 . S
H1625 C1634 0.930 . S
H1626 C1636 0.930 . S
H1627 C1639 0.929 . S
H1628 C1642 0.930 . S
H1629 C1644 0.960 . S
H1630 C1644 0.960 . S
H1631 C1644 0.960 . S
C1632 H1624 0.929 . S
C1632 C1633 1.377 . S
C1632 C1634 1.384 . S
C1633 C1632 1.377 . S
C1633 C1639 1.390 . S
C1634 H1625 0.930 . S
C1634 C1632 1.384 . S
C1634 C1635 1.372 . S
C1635 C1634 1.372 . S
C1635 C1636 1.400 . S
C1635 C1640 1.490 . S
C1636 H1626 0.930 . S
C1636 C1635 1.400 . S
C1636 C1639 1.386 . S
H1637 C1653 0.930 . S
H1638 C1654 0.931 . S
C1639 H1627 0.929 . S
C1639 C1633 1.390 . S
C1639 C1636 1.386 . S
C1640 C1635 1.490 . S
C1640 C1642 1.395 . S
C1640 C1643 1.403 . S
H1641 C1647 0.930 . S
C1642 H1628 0.930 . S
C1642 C1640 1.395 . S
C1642 C1645 1.403 . S
C1643 C1640 1.403 . S
C1643 C1644 1.524 . S
C1643 C1647 1.400 . S
C1644 H1629 0.960 . S
C1644 H1630 0.960 . S
C1644 H1631 0.960 . S
C1644 C1643 1.524 . S
C1645 C1642 1.403 . S
C1645 C1646 1.392 . S
C1645 C1649 1.495 . S
C1646 C1645 1.392 . S
C1646 C1647 1.385 . S
C1646 C1648 1.478 . S
C1647 H1641 0.930 . S
C1647 C1643 1.400 . S
C1647 C1646 1.385 . S
C1648 C1646 1.478 . S
C1648 C1650 1.381 . S
C1648 C1654 1.383 . S
C1649 C1645 1.495 . S
C1649 H1655 0.959 . S
C1649 H1656 0.961 . S
C1649 H1657 0.960 . S
C1650 C1648 1.381 . S
C1650 C1651 1.394 . S
C1650 H1658 0.930 . S
C1651 C1650 1.394 . S
C1651 C1652 1.383 . S
C1651 H1659 0.929 . S
C1652 C1651 1.383 . S
C1652 C1653 1.377 . S
C1653 H1637 0.930 . S
C1653 C1652 1.377 . S
C1653 C1654 1.379 . S
C1654 H1638 0.931 . S
C1654 C1648 1.383 . S
C1654 C1653 1.379 . S
H1655 C1649 0.959 . S
H1656 C1649 0.961 . S
H1657 C1649 0.960 . S
H1658 C1650 0.930 . S
H1659 C1651 0.929 . S
H1660 C1668 0.929 . S
H1661 C1670 0.930 . S
H1662 C1672 0.930 . S
H1663 C1675 0.929 . S
H1664 C1678 0.930 . S
H1665 C1680 0.960 . S
H1666 C1680 0.960 . S
H1667 C1680 0.960 . S
C1668 H1660 0.929 . S
C1668 C1669 1.377 . S
C1668 C1670 1.384 . S
C1669 C1668 1.377 . S
C1669 C1675 1.390 . S
C1670 H1661 0.930 . S
C1670 C1668 1.384 . S
C1670 C1671 1.372 . S
C1671 C1670 1.372 . S
C1671 C1672 1.400 . S
C1671 C1676 1.490 . S
C1672 H1662 0.930 . S
C1672 C1671 1.400 . S
C1672 C1675 1.386 . S
H1673 C1689 0.930 . S
H1674 C1690 0.931 . S
C1675 H1663 0.929 . S
C1675 C1669 1.390 . S
C1675 C1672 1.386 . S
C1676 C1671 1.490 . S
C1676 C1678 1.395 . S
C1676 C1679 1.403 . S
H1677 C1683 0.930 . S
C1678 H1664 0.930 . S
C1678 C1676 1.395 . S
C1678 C1681 1.403 . S
C1679 C1676 1.403 . S
C1679 C1680 1.524 . S
C1679 C1683 1.400 . S
C1680 H1665 0.960 . S
C1680 H1666 0.960 . S
C1680 H1667 0.960 . S
C1680 C1679 1.524 . S
C1681 C1678 1.403 . S
C1681 C1682 1.392 . S
C1681 C1685 1.495 . S
C1682 C1681 1.392 . S
C1682 C1683 1.385 . S
C1682 C1684 1.478 . S
C1683 H1677 0.930 . S
C1683 C1679 1.400 . S
C1683 C1682 1.385 . S
C1684 C1682 1.478 . S
C1684 C1686 1.381 . S
C1684 C1690 1.383 . S
C1685 C1681 1.495 . S
C1685 H1691 0.959 . S
C1685 H1692 0.961 . S
C1685 H1693 0.960 . S
C1686 C1684 1.381 . S
C1686 C1687 1.394 . S
C1686 H1694 0.930 . S
C1687 C1686 1.394 . S
C1687 C1688 1.383 . S
C1687 H1695 0.929 . S
C1688 C1687 1.383 . S
C1688 C1689 1.377 . S
C1689 H1673 0.930 . S
C1689 C1688 1.377 . S
C1689 C1690 1.379 . S
C1690 H1674 0.931 . S
C1690 C1684 1.383 . S
C1690 C1689 1.379 . S
H1691 C1685 0.959 . S
H1692 C1685 0.961 . S
H1693 C1685 0.960 . S
H1694 C1686 0.930 . S
H1695 C1687 0.929 . S
H1696 C1704 0.929 . S
H1697 C1706 0.930 . S
H1698 C1708 0.930 . S
H1699 C1711 0.929 . S
H1700 C1714 0.930 . S
H1701 C1716 0.960 . S
H1702 C1716 0.960 . S
H1703 C1716 0.960 . S
C1704 H1696 0.929 . S
C1704 C1705 1.377 . S
C1704 C1706 1.384 . S
C1705 C1704 1.377 . S
C1705 C1711 1.390 . S
C1706 H1697 0.930 . S
C1706 C1704 1.384 . S
C1706 C1707 1.372 . S
C1707 C1706 1.372 . S
C1707 C1708 1.400 . S
C1707 C1712 1.490 . S
C1708 H1698 0.930 . S
C1708 C1707 1.400 . S
C1708 C1711 1.386 . S
H1709 C1725 0.930 . S
H1710 C1726 0.931 . S
C1711 H1699 0.929 . S
C1711 C1705 1.390 . S
C1711 C1708 1.386 . S
C1712 C1707 1.490 . S
C1712 C1714 1.395 . S
C1712 C1715 1.403 . S
H1713 C1719 0.930 . S
C1714 H1700 0.930 . S
C1714 C1712 1.395 . S
C1714 C1717 1.403 . S
C1715 C1712 1.403 . S
C1715 C1716 1.524 . S
C1715 C1719 1.400 . S
C1716 H1701 0.960 . S
C1716 H1702 0.960 . S
C1716 H1703 0.960 . S
C1716 C1715 1.524 . S
C1717 C1714 1.403 . S
C1717 C1718 1.392 . S
C1717 C1721 1.495 . S
C1718 C1717 1.392 . S
C1718 C1719 1.385 . S
C1718 C1720 1.478 . S
C1719 H1713 0.930 . S
C1719 C1715 1.400 . S
C1719 C1718 1.385 . S
C1720 C1718 1.478 . S
C1720 C1722 1.381 . S
C1720 C1726 1.383 . S
C1721 C1717 1.495 . S
C1721 H1727 0.959 . S
C1721 H1728 0.961 . S
C1721 H1729 0.960 . S
C1722 C1720 1.381 . S
C1722 C1723 1.394 . S
C1722 H1730 0.930 . S
C1723 C1722 1.394 . S
C1723 C1724 1.383 . S
C1723 H1731 0.929 . S
C1724 C1723 1.383 . S
C1724 C1725 1.377 . S
C1725 H1709 0.930 . S
C1725 C1724 1.377 . S
C1725 C1726 1.379 . S
C1726 H1710 0.931 . S
C1726 C1720 1.383 . S
C1726 C1725 1.379 . S
H1727 C1721 0.959 . S
H1728 C1721 0.961 . S
H1729 C1721 0.960 . S
H1730 C1722 0.930 . S
H1731 C1723 0.929 . S
H1732 C1740 0.929 . S
H1733 C1742 0.930 . S
H1734 C1744 0.930 . S
H1735 C1747 0.929 . S
H1736 C1750 0.930 . S
H1737 C1752 0.960 . S
H1738 C1752 0.960 . S
H1739 C1752 0.960 . S
C1740 H1732 0.929 . S
C1740 C1741 1.377 . S
C1740 C1742 1.384 . S
C1741 C1740 1.377 . S
C1741 C1747 1.390 . S
C1742 H1733 0.930 . S
C1742 C1740 1.384 . S
C1742 C1743 1.372 . S
C1743 C1742 1.372 . S
C1743 C1744 1.400 . S
C1743 C1748 1.490 . S
C1744 H1734 0.930 . S
C1744 C1743 1.400 . S
C1744 C1747 1.386 . S
H1745 C1761 0.930 . S
H1746 C1762 0.931 . S
C1747 H1735 0.929 . S
C1747 C1741 1.390 . S
C1747 C1744 1.386 . S
C1748 C1743 1.490 . S
C1748 C1750 1.395 . S
C1748 C1751 1.403 . S
H1749 C1755 0.930 . S
C1750 H1736 0.930 . S
C1750 C1748 1.395 . S
C1750 C1753 1.403 . S
C1751 C1748 1.403 . S
C1751 C1752 1.524 . S
C1751 C1755 1.400 . S
C1752 H1737 0.960 . S
C1752 H1738 0.960 . S
C1752 H1739 0.960 . S
C1752 C1751 1.524 . S
C1753 C1750 1.403 . S
C1753 C1754 1.392 . S
C1753 C1757 1.495 . S
C1754 C1753 1.392 . S
C1754 C1755 1.385 . S
C1754 C1756 1.478 . S
C1755 H1749 0.930 . S
C1755 C1751 1.400 . S
C1755 C1754 1.385 . S
C1756 C1754 1.478 . S
C1756 C1758 1.381 . S
C1756 C1762 1.383 . S
C1757 C1753 1.495 . S
C1757 H1763 0.959 . S
C1757 H1764 0.961 . S
C1757 H1765 0.960 . S
C1758 C1756 1.381 . S
C1758 C1759 1.394 . S
C1758 H1766 0.930 . S
C1759 C1758 1.394 . S
C1759 C1760 1.383 . S
C1759 H1767 0.929 . S
C1760 C1759 1.383 . S
C1760 C1761 1.377 . S
C1761 H1745 0.930 . S
C1761 C1760 1.377 . S
C1761 C1762 1.379 . S
C1762 H1746 0.931 . S
C1762 C1756 1.383 . S
C1762 C1761 1.379 . S
H1763 C1757 0.959 . S
H1764 C1757 0.961 . S
H1765 C1757 0.960 . S
H1766 C1758 0.930 . S
H1767 C1759 0.929 . S
H1768 C1776 0.929 . S
H1769 C1778 0.930 . S
H1770 C1780 0.930 . S
H1771 C1783 0.929 . S
H1772 C1786 0.930 . S
H1773 C1788 0.960 . S
H1774 C1788 0.960 . S
H1775 C1788 0.960 . S
C1776 H1768 0.929 . S
C1776 C1777 1.377 . S
C1776 C1778 1.384 . S
C1777 C1776 1.377 . S
C1777 C1783 1.390 . S
C1778 H1769 0.930 . S
C1778 C1776 1.384 . S
C1778 C1779 1.372 . S
C1779 C1778 1.372 . S
C1779 C1780 1.400 . S
C1779 C1784 1.490 . S
C1780 H1770 0.930 . S
C1780 C1779 1.400 . S
C1780 C1783 1.386 . S
H1781 C1797 0.930 . S
H1782 C1798 0.931 . S
C1783 H1771 0.929 . S
C1783 C1777 1.390 . S
C1783 C1780 1.386 . S
C1784 C1779 1.490 . S
C1784 C1786 1.395 . S
C1784 C1787 1.403 . S
H1785 C1791 0.930 . S
C1786 H1772 0.930 . S
C1786 C1784 1.395 . S
C1786 C1789 1.403 . S
C1787 C1784 1.403 . S
C1787 C1788 1.524 . S
C1787 C1791 1.400 . S
C1788 H1773 0.960 . S
C1788 H1774 0.960 . S
C1788 H1775 0.960 . S
C1788 C1787 1.524 . S
C1789 C1786 1.403 . S
C1789 C1790 1.392 . S
C1789 C1793 1.495 . S
C1790 C1789 1.392 . S
C1790 C1791 1.385 . S
C1790 C1792 1.478 . S
C1791 H1785 0.930 . S
C1791 C1787 1.400 . S
C1791 C1790 1.385 . S
C1792 C1790 1.478 . S
C1792 C1794 1.381 . S
C1792 C1798 1.383 . S
C1793 C1789 1.495 . S
C1793 H1799 0.959 . S
C1793 H1800 0.961 . S
C1793 H1801 0.960 . S
C1794 C1792 1.381 . S
C1794 C1795 1.394 . S
C1794 H1802 0.930 . S
C1795 C1794 1.394 . S
C1795 C1796 1.383 . S
C1795 H1803 0.929 . S
C1796 C1795 1.383 . S
C1796 C1797 1.377 . S
C1797 H1781 0.930 . S
C1797 C1796 1.377 . S
C1797 C1798 1.379 . S
C1798 H1782 0.931 . S
C1798 C1792 1.383 . S
C1798 C1797 1.379 . S
H1799 C1793 0.959 . S
H1800 C1793 0.961 . S
H1801 C1793 0.960 . S
H1802 C1794 0.930 . S
H1803 C1795 0.929 . S
H1804 C1812 0.929 . S
H1805 C1814 0.930 . S
H1806 C1816 0.930 . S
H1807 C1819 0.929 . S
H1808 C1822 0.930 . S
H1809 C1824 0.960 . S
H1810 C1824 0.960 . S
H1811 C1824 0.960 . S
C1812 H1804 0.929 . S
C1812 C1813 1.377 . S
C1812 C1814 1.384 . S
C1813 C1812 1.377 . S
C1813 C1819 1.390 . S
C1814 H1805 0.930 . S
C1814 C1812 1.384 . S
C1814 C1815 1.372 . S
C1815 C1814 1.372 . S
C1815 C1816 1.400 . S
C1815 C1820 1.490 . S
C1816 H1806 0.930 . S
C1816 C1815 1.400 . S
C1816 C1819 1.386 . S
H1817 C1833 0.930 . S
H1818 C1834 0.931 . S
C1819 H1807 0.929 . S
C1819 C1813 1.390 . S
C1819 C1816 1.386 . S
C1820 C1815 1.490 . S
C1820 C1822 1.395 . S
C1820 C1823 1.403 . S
H1821 C1827 0.930 . S
C1822 H1808 0.930 . S
C1822 C1820 1.395 . S
C1822 C1825 1.403 . S
C1823 C1820 1.403 . S
C1823 C1824 1.524 . S
C1823 C1827 1.400 . S
C1824 H1809 0.960 . S
C1824 H1810 0.960 . S
C1824 H1811 0.960 . S
C1824 C1823 1.524 . S
C1825 C1822 1.403 . S
C1825 C1826 1.392 . S
C1825 C1829 1.495 . S
C1826 C1825 1.392 . S
C1826 C1827 1.385 . S
C1826 C1828 1.478 . S
C1827 H1821 0.930 . S
C1827 C1823 1.400 . S
C1827 C1826 1.385 . S
C1828 C1826 1.478 . S
C1828 C1830 1.381 . S
C1828 C1834 1.383 . S
C1829 C1825 1.495 . S
C1829 H1835 0.959 . S
C1829 H1836 0.961 . S
C1829 H1837 0.960 . S
C1830 C1828 1.381 . S
C1830 C1831 1.394 . S
C1830 H1838 0.930 . S
C1831 C1830 1.394 . S
C1831 C1832 1.383 . S
C1831 H1839 0.929 . S
C1832 C1831 1.383 . S
C1832 C1833 1.377 . S
C1833 H1817 0.930 . S
C1833 C1832 1.377 . S
C1833 C1834 1.379 . S
C1834 H1818 0.931 . S
C1834 C1828 1.383 . S
C1834 C1833 1.379 . S
H1835 C1829 0.959 . S
H1836 C1829 0.961 . S
H1837 C1829 0.960 . S
H1838 C1830 0.930 . S
H1839 C1831 0.929 . S
H1840 C1848 0.929 . S
H1841 C1850 0.930 . S
H1842 C1852 0.930 . S
H1843 C1855 0.929 . S
H1844 C1858 0.930 . S
H1845 C1860 0.960 . S
H1846 C1860 0.960 . S
H1847 C1860 0.960 . S
C1848 H1840 0.929 . S
C1848 C1849 1.377 . S
C1848 C1850 1.384 . S
C1849 C1848 1.377 . S
C1849 C1855 1.390 . S
C1850 H1841 0.930 . S
C1850 C1848 1.384 . S
C1850 C1851 1.372 . S
C1851 C1850 1.372 . S
C1851 C1852 1.400 . S
C1851 C1856 1.490 . S
C1852 H1842 0.930 . S
C1852 C1851 1.400 . S
C1852 C1855 1.386 . S
H1853 C1869 0.930 . S
H1854 C1870 0.931 . S
C1855 H1843 0.929 . S
C1855 C1849 1.390 . S
C1855 C1852 1.386 . S
C1856 C1851 1.490 . S
C1856 C1858 1.395 . S
C1856 C1859 1.403 . S
H1857 C1863 0.930 . S
C1858 H1844 0.930 . S
C1858 C1856 1.395 . S
C1858 C1861 1.403 . S
C1859 C1856 1.403 . S
C1859 C1860 1.524 . S
C1859 C1863 1.400 . S
C1860 H1845 0.960 . S
C1860 H1846 0.960 . S
C1860 H1847 0.960 . S
C1860 C1859 1.524 . S
C1861 C1858 1.403 . S
C1861 C1862 1.392 . S
C1861 C1865 1.495 . S
C1862 C1861 1.392 . S
C1862 C1863 1.385 . S
C1862 C1864 1.478 . S
C1863 H1857 0.930 . S
C1863 C1859 1.400 . S
C1863 C1862 1.385 . S
C1864 C1862 1.478 . S
C1864 C1866 1.381 . S
C1864 C1870 1.383 . S
C1865 C1861 1.495 . S
C1865 H1871 0.959 . S
C1865 H1872 0.961 . S
C1865 H1873 0.960 . S
C1866 C1864 1.381 . S
C1866 C1867 1.394 . S
C1866 H1874 0.930 . S
C1867 C1866 1.394 . S
C1867 C1868 1.383 . S
C1867 H1875 0.929 . S
C1868 C1867 1.383 . S
C1868 C1869 1.377 . S
C1869 H1853 0.930 . S
C1869 C1868 1.377 . S
C1869 C1870 1.379 . S
C1870 H1854 0.931 . S
C1870 C1864 1.383 . S
C1870 C1869 1.379 . S
H1871 C1865 0.959 . S
H1872 C1865 0.961 . S
H1873 C1865 0.960 . S
H1874 C1866 0.930 . S
H1875 C1867 0.929 . S
H1876 C1884 0.929 . S
H1877 C1886 0.930 . S
H1878 C1888 0.930 . S
H1879 C1891 0.929 . S
H1880 C1894 0.930 . S
H1881 C1896 0.960 . S
H1882 C1896 0.960 . S
H1883 C1896 0.960 . S
C1884 H1876 0.929 . S
C1884 C1885 1.377 . S
C1884 C1886 1.384 . S
C1885 C1884 1.377 . S
C1885 C1891 1.390 . S
C1886 H1877 0.930 . S
C1886 C1884 1.384 . S
C1886 C1887 1.372 . S
C1887 C1886 1.372 . S
C1887 C1888 1.400 . S
C1887 C1892 1.490 . S
C1888 H1878 0.930 . S
C1888 C1887 1.400 . S
C1888 C1891 1.386 . S
H1889 C1905 0.930 . S
H1890 C1906 0.931 . S
C1891 H1879 0.929 . S
C1891 C1885 1.390 . S
C1891 C1888 1.386 . S
C1892 C1887 1.490 . S
C1892 C1894 1.395 . S
C1892 C1895 1.403 . S
H1893 C1899 0.930 . S
C1894 H1880 0.930 . S
C1894 C1892 1.395 . S
C1894 C1897 1.403 . S
C1895 C1892 1.403 . S
C1895 C1896 1.524 . S
C1895 C1899 1.400 . S
C1896 H1881 0.960 . S
C1896 H1882 0.960 . S
C1896 H1883 0.960 . S
C1896 C1895 1.524 . S
C1897 C1894 1.403 . S
C1897 C1898 1.392 . S
C1897 C1901 1.495 . S
C1898 C1897 1.392 . S
C1898 C1899 1.385 . S
C1898 C1900 1.478 . S
C1899 H1893 0.930 . S
C1899 C1895 1.400 . S
C1899 C1898 1.385 . S
C1900 C1898 1.478 . S
C1900 C1902 1.381 . S
C1900 C1906 1.383 . S
C1901 C1897 1.495 . S
C1901 H1907 0.959 . S
C1901 H1908 0.961 . S
C1901 H1909 0.960 . S
C1902 C1900 1.381 . S
C1902 C1903 1.394 . S
C1902 H1910 0.930 . S
C1903 C1902 1.394 . S
C1903 C1904 1.383 . S
C1903 H1911 0.929 . S
C1904 C1903 1.383 . S
C1904 C1905 1.377 . S
C1905 H1889 0.930 . S
C1905 C1904 1.377 . S
C1905 C1906 1.379 . S
C1906 H1890 0.931 . S
C1906 C1900 1.383 . S
C1906 C1905 1.379 . S
H1907 C1901 0.959 . S
H1908 C1901 0.961 . S
H1909 C1901 0.960 . S
H1910 C1902 0.930 . S
H1911 C1903 0.929 . S
H1912 C1920 0.929 . S
H1913 C1922 0.930 . S
H1914 C1924 0.930 . S
H1915 C1927 0.929 . S
H1916 C1930 0.930 . S
H1917 C1932 0.960 . S
H1918 C1932 0.960 . S
H1919 C1932 0.960 . S
C1920 H1912 0.929 . S
C1920 C1921 1.377 . S
C1920 C1922 1.384 . S
C1921 C1920 1.377 . S
C1921 C1927 1.390 . S
C1922 H1913 0.930 . S
C1922 C1920 1.384 . S
C1922 C1923 1.372 . S
C1923 C1922 1.372 . S
C1923 C1924 1.400 . S
C1923 C1928 1.490 . S
C1924 H1914 0.930 . S
C1924 C1923 1.400 . S
C1924 C1927 1.386 . S
H1925 C1941 0.930 . S
H1926 C1942 0.931 . S
C1927 H1915 0.929 . S
C1927 C1921 1.390 . S
C1927 C1924 1.386 . S
C1928 C1923 1.490 . S
C1928 C1930 1.395 . S
C1928 C1931 1.403 . S
H1929 C1935 0.930 . S
C1930 H1916 0.930 . S
C1930 C1928 1.395 . S
C1930 C1933 1.403 . S
C1931 C1928 1.403 . S
C1931 C1932 1.524 . S
C1931 C1935 1.400 . S
C1932 H1917 0.960 . S
C1932 H1918 0.960 . S
C1932 H1919 0.960 . S
C1932 C1931 1.524 . S
C1933 C1930 1.403 . S
C1933 C1934 1.392 . S
C1933 C1937 1.495 . S
C1934 C1933 1.392 . S
C1934 C1935 1.385 . S
C1934 C1936 1.478 . S
C1935 H1929 0.930 . S
C1935 C1931 1.400 . S
C1935 C1934 1.385 . S
C1936 C1934 1.478 . S
C1936 C1938 1.381 . S
C1936 C1942 1.383 . S
C1937 C1933 1.495 . S
C1937 H1943 0.959 . S
C1937 H1944 0.961 . S
C1937 H1945 0.960 . S
C1938 C1936 1.381 . S
C1938 C1939 1.394 . S
C1938 H1946 0.930 . S
C1939 C1938 1.394 . S
C1939 C1940 1.383 . S
C1939 H1947 0.929 . S
C1940 C1939 1.383 . S
C1940 C1941 1.377 . S
C1941 H1925 0.930 . S
C1941 C1940 1.377 . S
C1941 C1942 1.379 . S
C1942 H1926 0.931 . S
C1942 C1936 1.383 . S
C1942 C1941 1.379 . S
H1943 C1937 0.959 . S
H1944 C1937 0.961 . S
H1945 C1937 0.960 . S
H1946 C1938 0.930 . S
H1947 C1939 0.929 . S
H1948 C1956 0.929 . S
H1949 C1958 0.930 . S
H1950 C1960 0.930 . S
H1951 C1963 0.929 . S
H1952 C1966 0.930 . S
H1953 C1968 0.960 . S
H1954 C1968 0.960 . S
H1955 C1968 0.960 . S
C1956 H1948 0.929 . S
C1956 C1957 1.377 . S
C1956 C1958 1.384 . S
C1957 C1956 1.377 . S
C1957 C1963 1.390 . S
C1958 H1949 0.930 . S
C1958 C1956 1.384 . S
C1958 C1959 1.372 . S
C1959 C1958 1.372 . S
C1959 C1960 1.400 . S
C1959 C1964 1.490 . S
C1960 H1950 0.930 . S
C1960 C1959 1.400 . S
C1960 C1963 1.386 . S
H1961 C1977 0.930 . S
H1962 C1978 0.931 . S
C1963 H1951 0.929 . S
C1963 C1957 1.390 . S
C1963 C1960 1.386 . S
C1964 C1959 1.490 . S
C1964 C1966 1.395 . S
C1964 C1967 1.403 . S
H1965 C1971 0.930 . S
C1966 H1952 0.930 . S
C1966 C1964 1.395 . S
C1966 C1969 1.403 . S
C1967 C1964 1.403 . S
C1967 C1968 1.524 . S
C1967 C1971 1.400 . S
C1968 H1953 0.960 . S
C1968 H1954 0.960 . S
C1968 H1955 0.960 . S
C1968 C1967 1.524 . S
C1969 C1966 1.403 . S
C1969 C1970 1.392 . S
C1969 C1973 1.495 . S
C1970 C1969 1.392 . S
C1970 C1971 1.385 . S
C1970 C1972 1.478 . S
C1971 H1965 0.930 . S
C1971 C1967 1.400 . S
C1971 C1970 1.385 . S
C1972 C1970 1.478 . S
C1972 C1974 1.381 . S
C1972 C1978 1.383 . S
C1973 C1969 1.495 . S
C1973 H1979 0.959 . S
C1973 H1980 0.961 . S
C1973 H1981 0.960 . S
C1974 C1972 1.381 . S
C1974 C1975 1.394 . S
C1974 H1982 0.930 . S
C1975 C1974 1.394 . S
C1975 C1976 1.383 . S
C1975 H1983 0.929 . S
C1976 C1975 1.383 . S
C1976 C1977 1.377 . S
C1977 H1961 0.930 . S
C1977 C1976 1.377 . S
C1977 C1978 1.379 . S
C1978 H1962 0.931 . S
C1978 C1972 1.383 . S
C1978 C1977 1.379 . S
H1979 C1973 0.959 . S
H1980 C1973 0.961 . S
H1981 C1973 0.960 . S
H1982 C1974 0.930 . S
H1983 C1975 0.929 . S
H1984 C1992 0.929 . S
H1985 C1994 0.930 . S
H1986 C1996 0.930 . S
H1987 C1999 0.929 . S
H1988 C2002 0.930 . S
H1989 C2004 0.960 . S
H1990 C2004 0.960 . S
H1991 C2004 0.960 . S
C1992 H1984 0.929 . S
C1992 C1993 1.377 . S
C1992 C1994 1.384 . S
C1993 C1992 1.377 . S
C1993 C1999 1.390 . S
C1994 H1985 0.930 . S
C1994 C1992 1.384 . S
C1994 C1995 1.372 . S
C1995 C1994 1.372 . S
C1995 C1996 1.400 . S
C1995 C2000 1.490 . S
C1996 H1986 0.930 . S
C1996 C1995 1.400 . S
C1996 C1999 1.386 . S
H1997 C2013 0.930 . S
H1998 C2014 0.931 . S
C1999 H1987 0.929 . S
C1999 C1993 1.390 . S
C1999 C1996 1.386 . S
C2000 C1995 1.490 . S
C2000 C2002 1.395 . S
C2000 C2003 1.403 . S
H2001 C2007 0.930 . S
C2002 H1988 0.930 . S
C2002 C2000 1.395 . S
C2002 C2005 1.403 . S
C2003 C2000 1.403 . S
C2003 C2004 1.524 . S
C2003 C2007 1.400 . S
C2004 H1989 0.960 . S
C2004 H1990 0.960 . S
C2004 H1991 0.960 . S
C2004 C2003 1.524 . S
C2005 C2002 1.403 . S
C2005 C2006 1.392 . S
C2005 C2009 1.495 . S
C2006 C2005 1.392 . S
C2006 C2007 1.385 . S
C2006 C2008 1.478 . S
C2007 H2001 0.930 . S
C2007 C2003 1.400 . S
C2007 C2006 1.385 . S
C2008 C2006 1.478 . S
C2008 C2010 1.381 . S
C2008 C2014 1.383 . S
C2009 C2005 1.495 . S
C2009 H2015 0.959 1_455 S
C2009 H2016 0.961 . S
C2009 H2017 0.960 1_455 S
C2010 C2008 1.381 . S
C2010 C2011 1.394 . S
C2010 H2018 0.930 . S
C2011 C2010 1.394 . S
C2011 C2012 1.383 . S
C2011 H2019 0.929 . S
C2012 C2011 1.383 . S
C2012 C2013 1.377 . S
C2013 H1997 0.930 . S
C2013 C2012 1.377 . S
C2013 C2014 1.379 . S
C2014 H1998 0.931 . S
C2014 C2008 1.383 . S
C2014 C2013 1.379 . S
H2015 C2009 0.959 1_655 S
H2016 C2009 0.961 . S
H2017 C2009 0.960 1_655 S
H2018 C2010 0.930 . S
H2019 C2011 0.929 . S
H2020 C2028 0.929 . S
H2021 C2030 0.930 . S
H2022 C2032 0.930 . S
H2023 C2035 0.929 . S
H2024 C2038 0.930 . S
H2025 C2040 0.960 . S
H2026 C2040 0.960 . S
H2027 C2040 0.960 . S
C2028 H2020 0.929 . S
C2028 C2029 1.377 . S
C2028 C2030 1.384 . S
C2029 C2028 1.377 . S
C2029 C2035 1.390 . S
C2030 H2021 0.930 . S
C2030 C2028 1.384 . S
C2030 C2031 1.372 . S
C2031 C2030 1.372 . S
C2031 C2032 1.400 . S
C2031 C2036 1.490 . S
C2032 H2022 0.930 . S
C2032 C2031 1.400 . S
C2032 C2035 1.386 . S
H2033 C2049 0.930 . S
H2034 C2050 0.931 . S
C2035 H2023 0.929 . S
C2035 C2029 1.390 . S
C2035 C2032 1.386 . S
C2036 C2031 1.490 . S
C2036 C2038 1.395 . S
C2036 C2039 1.403 . S
H2037 C2043 0.930 . S
C2038 H2024 0.930 . S
C2038 C2036 1.395 . S
C2038 C2041 1.403 . S
C2039 C2036 1.403 . S
C2039 C2040 1.524 . S
C2039 C2043 1.400 . S
C2040 H2025 0.960 . S
C2040 H2026 0.960 . S
C2040 H2027 0.960 . S
C2040 C2039 1.524 . S
C2041 C2038 1.403 . S
C2041 C2042 1.392 . S
C2041 C2045 1.495 . S
C2042 C2041 1.392 . S
C2042 C2043 1.385 . S
C2042 C2044 1.478 . S
C2043 H2037 0.930 . S
C2043 C2039 1.400 . S
C2043 C2042 1.385 . S
C2044 C2042 1.478 . S
C2044 C2046 1.381 . S
C2044 C2050 1.383 . S
C2045 C2041 1.495 . S
C2045 H2051 0.959 . S
C2045 H2052 0.961 . S
C2045 H2053 0.960 . S
C2046 C2044 1.381 . S
C2046 C2047 1.394 . S
C2046 H2054 0.930 . S
C2047 C2046 1.394 . S
C2047 C2048 1.383 . S
C2047 H2055 0.929 . S
C2048 C2047 1.383 . S
C2048 C2049 1.377 . S
C2049 H2033 0.930 . S
C2049 C2048 1.377 . S
C2049 C2050 1.379 . S
C2050 H2034 0.931 . S
C2050 C2044 1.383 . S
C2050 C2049 1.379 . S
H2051 C2045 0.959 . S
H2052 C2045 0.961 . S
H2053 C2045 0.960 . S
H2054 C2046 0.930 . S
H2055 C2047 0.929 . S
H2056 C2064 0.929 . S
H2057 C2066 0.930 . S
H2058 C2068 0.930 . S
H2059 C2071 0.929 . S
H2060 C2074 0.930 . S
H2061 C2076 0.960 . S
H2062 C2076 0.960 . S
H2063 C2076 0.960 . S
C2064 H2056 0.929 . S
C2064 C2065 1.377 . S
C2064 C2066 1.384 . S
C2065 C2064 1.377 . S
C2065 C2071 1.390 . S
C2066 H2057 0.930 . S
C2066 C2064 1.384 . S
C2066 C2067 1.372 . S
C2067 C2066 1.372 . S
C2067 C2068 1.400 . S
C2067 C2072 1.490 . S
C2068 H2058 0.930 . S
C2068 C2067 1.400 . S
C2068 C2071 1.386 . S
H2069 C2085 0.930 . S
H2070 C2086 0.931 . S
C2071 H2059 0.929 . S
C2071 C2065 1.390 . S
C2071 C2068 1.386 . S
C2072 C2067 1.490 . S
C2072 C2074 1.395 . S
C2072 C2075 1.403 . S
H2073 C2079 0.930 . S
C2074 H2060 0.930 . S
C2074 C2072 1.395 . S
C2074 C2077 1.403 . S
C2075 C2072 1.403 . S
C2075 C2076 1.524 . S
C2075 C2079 1.400 . S
C2076 H2061 0.960 . S
C2076 H2062 0.960 . S
C2076 H2063 0.960 . S
C2076 C2075 1.524 . S
C2077 C2074 1.403 . S
C2077 C2078 1.392 . S
C2077 C2081 1.495 . S
C2078 C2077 1.392 . S
C2078 C2079 1.385 . S
C2078 C2080 1.478 . S
C2079 H2073 0.930 . S
C2079 C2075 1.400 . S
C2079 C2078 1.385 . S
C2080 C2078 1.478 . S
C2080 C2082 1.381 . S
C2080 C2086 1.383 . S
C2081 C2077 1.495 . S
C2081 H2087 0.959 . S
C2081 H2088 0.961 . S
C2081 H2089 0.960 1_556 S
C2082 C2080 1.381 . S
C2082 C2083 1.394 1_556 S
C2082 H2090 0.930 1_556 S
C2083 C2082 1.394 1_554 S
C2083 C2084 1.383 1_554 S
C2083 H2091 0.929 . S
C2084 C2083 1.383 1_556 S
C2084 C2085 1.377 . S
C2085 H2069 0.930 . S
C2085 C2084 1.377 . S
C2085 C2086 1.379 . S
C2086 H2070 0.931 . S
C2086 C2080 1.383 . S
C2086 C2085 1.379 . S
H2087 C2081 0.959 . S
H2088 C2081 0.961 . S
H2089 C2081 0.960 1_554 S
H2090 C2082 0.930 1_554 S
H2091 C2083 0.929 . S
H2092 C2100 0.929 . S
H2093 C2102 0.930 . S
H2094 C2104 0.930 . S
H2095 C2107 0.929 . S
H2096 C2110 0.930 . S
H2097 C2112 0.960 . S
H2098 C2112 0.960 . S
H2099 C2112 0.960 . S
C2100 H2092 0.929 . S
C2100 C2101 1.377 . S
C2100 C2102 1.384 . S
C2101 C2100 1.377 . S
C2101 C2107 1.390 . S
C2102 H2093 0.930 . S
C2102 C2100 1.384 . S
C2102 C2103 1.372 . S
C2103 C2102 1.372 . S
C2103 C2104 1.400 . S
C2103 C2108 1.490 . S
C2104 H2094 0.930 . S
C2104 C2103 1.400 . S
C2104 C2107 1.386 . S
H2105 C2121 0.930 . S
H2106 C2122 0.931 . S
C2107 H2095 0.929 . S
C2107 C2101 1.390 . S
C2107 C2104 1.386 . S
C2108 C2103 1.490 . S
C2108 C2110 1.395 . S
C2108 C2111 1.403 . S
H2109 C2115 0.930 . S
C2110 H2096 0.930 . S
C2110 C2108 1.395 . S
C2110 C2113 1.403 . S
C2111 C2108 1.403 . S
C2111 C2112 1.524 . S
C2111 C2115 1.400 . S
C2112 H2097 0.960 . S
C2112 H2098 0.960 . S
C2112 H2099 0.960 . S
C2112 C2111 1.524 . S
C2113 C2110 1.403 . S
C2113 C2114 1.392 . S
C2113 C2117 1.495 . S
C2114 C2113 1.392 . S
C2114 C2115 1.385 . S
C2114 C2116 1.478 . S
C2115 H2109 0.930 . S
C2115 C2111 1.400 . S
C2115 C2114 1.385 . S
C2116 C2114 1.478 . S
C2116 C2118 1.381 . S
C2116 C2122 1.383 . S
C2117 C2113 1.495 . S
C2117 H2123 0.959 . S
C2117 H2124 0.961 . S
C2117 H2125 0.960 . S
C2118 C2116 1.381 . S
C2118 C2119 1.394 . S
C2118 H2126 0.930 . S
C2119 C2118 1.394 . S
C2119 C2120 1.383 . S
C2119 H2127 0.929 . S
C2120 C2119 1.383 . S
C2120 C2121 1.377 . S
C2121 H2105 0.930 . S
C2121 C2120 1.377 . S
C2121 C2122 1.379 . S
C2122 H2106 0.931 . S
C2122 C2116 1.383 . S
C2122 C2121 1.379 . S
H2123 C2117 0.959 . S
H2124 C2117 0.961 . S
H2125 C2117 0.960 . S
H2126 C2118 0.930 . S
H2127 C2119 0.929 . S
H2128 C2136 0.929 . S
H2129 C2138 0.930 . S
H2130 C2140 0.930 . S
H2131 C2143 0.929 . S
H2132 C2146 0.930 . S
H2133 C2148 0.960 . S
H2134 C2148 0.960 . S
H2135 C2148 0.960 . S
C2136 H2128 0.929 . S
C2136 C2137 1.377 . S
C2136 C2138 1.384 . S
C2137 C2136 1.377 . S
C2137 C2143 1.390 . S
C2138 H2129 0.930 . S
C2138 C2136 1.384 . S
C2138 C2139 1.372 . S
C2139 C2138 1.372 . S
C2139 C2140 1.400 . S
C2139 C2144 1.490 . S
C2140 H2130 0.930 . S
C2140 C2139 1.400 . S
C2140 C2143 1.386 . S
H2141 C2157 0.930 . S
H2142 C2158 0.931 . S
C2143 H2131 0.929 . S
C2143 C2137 1.390 . S
C2143 C2140 1.386 . S
C2144 C2139 1.490 . S
C2144 C2146 1.395 . S
C2144 C2147 1.403 . S
H2145 C2151 0.930 . S
C2146 H2132 0.930 . S
C2146 C2144 1.395 . S
C2146 C2149 1.403 . S
C2147 C2144 1.403 . S
C2147 C2148 1.524 . S
C2147 C2151 1.400 . S
C2148 H2133 0.960 . S
C2148 H2134 0.960 . S
C2148 H2135 0.960 . S
C2148 C2147 1.524 . S
C2149 C2146 1.403 . S
C2149 C2150 1.392 . S
C2149 C2153 1.495 1_545 S
C2150 C2149 1.392 . S
C2150 C2151 1.385 . S
C2150 C2152 1.478 . S
C2151 H2145 0.930 . S
C2151 C2147 1.400 . S
C2151 C2150 1.385 . S
C2152 C2150 1.478 . S
C2152 C2154 1.381 . S
C2152 C2158 1.383 . S
C2153 C2149 1.495 1_565 S
C2153 H2159 0.959 . S
C2153 H2160 0.961 . S
C2153 H2161 0.960 . S
C2154 C2152 1.381 . S
C2154 C2155 1.394 . S
C2154 H2162 0.930 . S
C2155 C2154 1.394 . S
C2155 C2156 1.383 . S
C2155 H2163 0.929 . S
C2156 C2155 1.383 . S
C2156 C2157 1.377 . S
C2157 H2141 0.930 . S
C2157 C2156 1.377 . S
C2157 C2158 1.379 . S
C2158 H2142 0.931 . S
C2158 C2152 1.383 . S
C2158 C2157 1.379 . S
H2159 C2153 0.959 . S
H2160 C2153 0.961 . S
H2161 C2153 0.960 . S
H2162 C2154 0.930 . S
H2163 C2155 0.929 . S
H2164 C2172 0.929 . S
H2165 C2174 0.930 . S
H2166 C2176 0.930 . S
H2167 C2179 0.929 . S
H2168 C2182 0.930 . S
H2169 C2184 0.960 . S
H2170 C2184 0.960 . S
H2171 C2184 0.960 . S
C2172 H2164 0.929 . S
C2172 C2173 1.377 . S
C2172 C2174 1.384 . S
C2173 C2172 1.377 . S
C2173 C2179 1.390 . S
C2174 H2165 0.930 . S
C2174 C2172 1.384 . S
C2174 C2175 1.372 . S
C2175 C2174 1.372 . S
C2175 C2176 1.400 . S
C2175 C2180 1.490 . S
C2176 H2166 0.930 . S
C2176 C2175 1.400 . S
C2176 C2179 1.386 . S
H2177 C2193 0.930 . S
H2178 C2194 0.931 . S
C2179 H2167 0.929 . S
C2179 C2173 1.390 . S
C2179 C2176 1.386 . S
C2180 C2175 1.490 . S
C2180 C2182 1.395 . S
C2180 C2183 1.403 . S
H2181 C2187 0.930 . S
C2182 H2168 0.930 . S
C2182 C2180 1.395 . S
C2182 C2185 1.403 . S
C2183 C2180 1.403 . S
C2183 C2184 1.524 . S
C2183 C2187 1.400 . S
C2184 H2169 0.960 . S
C2184 H2170 0.960 . S
C2184 H2171 0.960 . S
C2184 C2183 1.524 . S
C2185 C2182 1.403 . S
C2185 C2186 1.392 . S
C2185 C2189 1.495 . S
C2186 C2185 1.392 . S
C2186 C2187 1.385 . S
C2186 C2188 1.478 . S
C2187 H2181 0.930 . S
C2187 C2183 1.400 . S
C2187 C2186 1.385 . S
C2188 C2186 1.478 . S
C2188 C2190 1.381 . S
C2188 C2194 1.383 . S
C2189 C2185 1.495 . S
C2189 H2195 0.959 . S
C2189 H2196 0.961 . S
C2189 H2197 0.960 . S
C2190 C2188 1.381 . S
C2190 C2191 1.394 . S
C2190 H2198 0.930 . S
C2191 C2190 1.394 . S
C2191 C2192 1.383 . S
C2191 H2199 0.929 . S
C2192 C2191 1.383 . S
C2192 C2193 1.377 . S
C2193 H2177 0.930 . S
C2193 C2192 1.377 . S
C2193 C2194 1.379 . S
C2194 H2178 0.931 . S
C2194 C2188 1.383 . S
C2194 C2193 1.379 . S
H2195 C2189 0.959 . S
H2196 C2189 0.961 . S
H2197 C2189 0.960 . S
H2198 C2190 0.930 . S
H2199 C2191 0.929 . S
H2200 C2208 0.929 . S
H2201 C2210 0.930 . S
H2202 C2212 0.930 . S
H2203 C2215 0.929 . S
H2204 C2218 0.930 . S
H2205 C2220 0.960 . S
H2206 C2220 0.960 . S
H2207 C2220 0.960 . S
C2208 H2200 0.929 . S
C2208 C2209 1.377 . S
C2208 C2210 1.384 . S
C2209 C2208 1.377 . S
C2209 C2215 1.390 . S
C2210 H2201 0.930 . S
C2210 C2208 1.384 . S
C2210 C2211 1.372 . S
C2211 C2210 1.372 . S
C2211 C2212 1.400 . S
C2211 C2216 1.490 . S
C2212 H2202 0.930 . S
C2212 C2211 1.400 . S
C2212 C2215 1.386 . S
H2213 C2229 0.930 . S
H2214 C2230 0.931 . S
C2215 H2203 0.929 . S
C2215 C2209 1.390 . S
C2215 C2212 1.386 . S
C2216 C2211 1.490 . S
C2216 C2218 1.395 . S
C2216 C2219 1.403 . S
H2217 C2223 0.930 . S
C2218 H2204 0.930 . S
C2218 C2216 1.395 . S
C2218 C2221 1.403 . S
C2219 C2216 1.403 . S
C2219 C2220 1.524 . S
C2219 C2223 1.400 . S
C2220 H2205 0.960 . S
C2220 H2206 0.960 . S
C2220 H2207 0.960 . S
C2220 C2219 1.524 . S
C2221 C2218 1.403 . S
C2221 C2222 1.392 . S
C2221 C2225 1.495 . S
C2222 C2221 1.392 . S
C2222 C2223 1.385 . S
C2222 C2224 1.478 . S
C2223 H2217 0.930 . S
C2223 C2219 1.400 . S
C2223 C2222 1.385 . S
C2224 C2222 1.478 . S
C2224 C2226 1.381 . S
C2224 C2230 1.383 . S
C2225 C2221 1.495 . S
C2225 H2231 0.959 . S
C2225 H2232 0.961 . S
C2225 H2233 0.960 . S
C2226 C2224 1.381 . S
C2226 C2227 1.394 . S
C2226 H2234 0.930 . S
C2227 C2226 1.394 . S
C2227 C2228 1.383 . S
C2227 H2235 0.929 . S
C2228 C2227 1.383 . S
C2228 C2229 1.377 . S
C2229 H2213 0.930 . S
C2229 C2228 1.377 . S
C2229 C2230 1.379 . S
C2230 H2214 0.931 . S
C2230 C2224 1.383 . S
C2230 C2229 1.379 . S
H2231 C2225 0.959 . S
H2232 C2225 0.961 . S
H2233 C2225 0.960 . S
H2234 C2226 0.930 . S
H2235 C2227 0.929 . S
H2236 C2244 0.929 . S
H2237 C2246 0.930 . S
H2238 C2248 0.930 . S
H2239 C2251 0.929 . S
H2240 C2254 0.930 . S
H2241 C2256 0.960 . S
H2242 C2256 0.960 . S
H2243 C2256 0.960 . S
C2244 H2236 0.929 . S
C2244 C2245 1.377 . S
C2244 C2246 1.384 . S
C2245 C2244 1.377 . S
C2245 C2251 1.390 . S
C2246 H2237 0.930 . S
C2246 C2244 1.384 . S
C2246 C2247 1.372 . S
C2247 C2246 1.372 . S
C2247 C2248 1.400 . S
C2247 C2252 1.490 . S
C2248 H2238 0.930 . S
C2248 C2247 1.400 . S
C2248 C2251 1.386 . S
H2249 C2265 0.930 . S
H2250 C2266 0.931 . S
C2251 H2239 0.929 . S
C2251 C2245 1.390 . S
C2251 C2248 1.386 . S
C2252 C2247 1.490 . S
C2252 C2254 1.395 . S
C2252 C2255 1.403 . S
H2253 C2259 0.930 . S
C2254 H2240 0.930 . S
C2254 C2252 1.395 . S
C2254 C2257 1.403 . S
C2255 C2252 1.403 . S
C2255 C2256 1.524 . S
C2255 C2259 1.400 . S
C2256 H2241 0.960 . S
C2256 H2242 0.960 . S
C2256 H2243 0.960 . S
C2256 C2255 1.524 . S
C2257 C2254 1.403 . S
C2257 C2258 1.392 . S
C2257 C2261 1.495 . S
C2258 C2257 1.392 . S
C2258 C2259 1.385 . S
C2258 C2260 1.478 . S
C2259 H2253 0.930 . S
C2259 C2255 1.400 . S
C2259 C2258 1.385 . S
C2260 C2258 1.478 . S
C2260 C2262 1.381 . S
C2260 C2266 1.383 . S
C2261 C2257 1.495 . S
C2261 H2267 0.959 . S
C2261 H2268 0.961 . S
C2261 H2269 0.960 . S
C2262 C2260 1.381 . S
C2262 C2263 1.394 . S
C2262 H2270 0.930 . S
C2263 C2262 1.394 . S
C2263 C2264 1.383 . S
C2263 H2271 0.929 . S
C2264 C2263 1.383 . S
C2264 C2265 1.377 . S
C2265 H2249 0.930 . S
C2265 C2264 1.377 . S
C2265 C2266 1.379 . S
C2266 H2250 0.931 . S
C2266 C2260 1.383 . S
C2266 C2265 1.379 . S
H2267 C2261 0.959 . S
H2268 C2261 0.961 . S
H2269 C2261 0.960 . S
H2270 C2262 0.930 . S
H2271 C2263 0.929 . S
H2272 C2280 0.929 . S
H2273 C2282 0.930 . S
H2274 C2284 0.930 . S
H2275 C2287 0.929 . S
H2276 C2290 0.930 . S
H2277 C2292 0.938 1_565 S
H2278 C2292 0.960 . S
H2279 C2292 0.988 . S
C2280 H2272 0.929 . S
C2280 C2281 1.377 . S
C2280 C2282 1.384 . S
C2281 C2280 1.377 . S
C2281 C2287 1.390 . S
C2282 H2273 0.930 . S
C2282 C2280 1.384 . S
C2282 C2283 1.372 . S
C2283 C2282 1.372 . S
C2283 C2284 1.400 . S
C2283 C2288 1.490 . S
C2284 H2274 0.930 . S
C2284 C2283 1.400 . S
C2284 C2287 1.386 . S
H2285 C2301 0.926 . S
H2286 C2302 0.931 . S
C2287 H2275 0.929 . S
C2287 C2281 1.390 . S
C2287 C2284 1.386 . S
C2288 C2283 1.490 . S
C2288 C2290 1.395 . S
C2288 C2291 1.403 . S
H2289 C2295 0.930 . S
C2290 H2276 0.930 . S
C2290 C2288 1.395 . S
C2290 C2293 1.403 . S
C2291 C2288 1.403 . S
C2291 C2292 1.524 . S
C2291 C2295 1.400 . S
C2292 H2277 0.938 1_545 S
C2292 H2278 0.960 . S
C2292 H2279 0.988 . S
C2292 C2291 1.524 . S
C2293 C2290 1.403 . S
C2293 C2294 1.392 . S
C2293 C2297 1.495 . S
C2294 C2293 1.392 . S
C2294 C2295 1.385 . S
C2294 C2296 1.478 . S
C2295 H2289 0.930 . S
C2295 C2291 1.400 . S
C2295 C2294 1.385 . S
C2296 C2294 1.478 . S
C2296 C2298 1.381 . S
C2296 C2302 1.383 . S
C2297 C2293 1.495 . S
C2297 H2303 0.959 . S
C2297 H2304 0.961 . S
C2297 H2305 0.960 . S
C2298 C2296 1.381 . S
C2298 C2299 1.394 . S
C2298 H2306 0.930 . S
C2299 C2298 1.394 . S
C2299 C2300 1.383 . S
C2299 H2307 0.929 . S
C2300 C2299 1.383 . S
C2300 C2301 1.377 . S
C2301 H2285 0.926 . S
C2301 C2300 1.377 . S
C2301 C2302 1.379 . S
C2302 H2286 0.931 . S
C2302 C2296 1.383 . S
C2302 C2301 1.379 . S
H2303 C2297 0.959 . S
H2304 C2297 0.961 . S
H2305 C2297 0.960 . S
H2306 C2298 0.930 . S
H2307 C2299 0.929 . S
H2308 C2316 0.929 . S
H2309 C2318 0.930 . S
H2310 C2320 0.930 . S
H2311 C2323 0.929 . S
H2312 C2326 0.930 . S
H2313 C2328 0.960 . S
H2314 C2328 0.960 . S
H2315 C2328 0.960 . S
C2316 H2308 0.929 . S
C2316 C2317 1.377 . S
C2316 C2318 1.384 . S
C2317 C2316 1.377 . S
C2317 C2323 1.390 . S
C2318 H2309 0.930 . S
C2318 C2316 1.384 . S
C2318 C2319 1.372 . S
C2319 C2318 1.372 . S
C2319 C2320 1.400 . S
C2319 C2324 1.490 . S
C2320 H2310 0.930 . S
C2320 C2319 1.400 . S
C2320 C2323 1.386 . S
H2321 C2337 0.930 . S
H2322 C2338 0.931 . S
C2323 H2311 0.929 . S
C2323 C2317 1.390 . S
C2323 C2320 1.386 . S
C2324 C2319 1.490 . S
C2324 C2326 1.395 . S
C2324 C2327 1.403 . S
H2325 C2331 0.930 . S
C2326 H2312 0.930 . S
C2326 C2324 1.395 . S
C2326 C2329 1.403 . S
C2327 C2324 1.403 . S
C2327 C2328 1.524 . S
C2327 C2331 1.400 . S
C2328 H2313 0.960 . S
C2328 H2314 0.960 . S
C2328 H2315 0.960 . S
C2328 C2327 1.524 . S
C2329 C2326 1.403 . S
C2329 C2330 1.392 . S
C2329 C2333 1.495 . S
C2330 C2329 1.392 . S
C2330 C2331 1.385 . S
C2330 C2332 1.478 . S
C2331 H2325 0.930 . S
C2331 C2327 1.400 . S
C2331 C2330 1.385 . S
C2332 C2330 1.478 . S
C2332 C2334 1.381 . S
C2332 C2338 1.383 . S
C2333 C2329 1.495 . S
C2333 H2339 0.959 . S
C2333 H2340 0.961 . S
C2333 H2341 0.960 . S
C2334 C2332 1.381 . S
C2334 C2335 1.394 . S
C2334 H2342 0.930 . S
C2335 C2334 1.394 . S
C2335 C2336 1.383 . S
C2335 H2343 0.929 . S
C2336 C2335 1.383 . S
C2336 C2337 1.377 . S
C2337 H2321 0.930 . S
C2337 C2336 1.377 . S
C2337 C2338 1.379 . S
C2338 H2322 0.931 . S
C2338 C2332 1.383 . S
C2338 C2337 1.379 . S
H2339 C2333 0.959 . S
H2340 C2333 0.961 . S
H2341 C2333 0.960 . S
H2342 C2334 0.930 . S
H2343 C2335 0.929 . S
H2344 C2352 0.929 . S
H2345 C2354 0.930 . S
H2346 C2356 0.930 . S
H2347 C2359 0.929 . S
H2348 C2362 0.930 . S
H2349 C2364 0.920 1_565 S
H2350 C2364 0.950 1_565 S
H2351 C2364 0.979 . S
C2352 H2344 0.929 . S
C2352 C2353 1.377 . S
C2352 C2354 1.384 . S
C2353 C2352 1.377 . S
C2353 C2359 1.390 . S
C2354 H2345 0.930 . S
C2354 C2352 1.384 . S
C2354 C2355 1.372 . S
C2355 C2354 1.372 . S
C2355 C2356 1.400 . S
C2355 C2360 1.490 . S
C2356 H2346 0.930 . S
C2356 C2355 1.400 . S
C2356 C2359 1.386 . S
H2357 C2373 0.930 . S
H2358 C2374 0.931 . S
C2359 H2347 0.929 . S
C2359 C2353 1.390 . S
C2359 C2356 1.386 . S
C2360 C2355 1.490 . S
C2360 C2362 1.395 . S
C2360 C2363 1.403 . S
H2361 C2367 0.930 1_565 S
C2362 H2348 0.930 . S
C2362 C2360 1.395 . S
C2362 C2365 1.403 . S
C2363 C2360 1.403 . S
C2363 C2364 1.559 . S
C2363 C2367 1.400 . S
C2364 H2349 0.920 1_545 S
C2364 H2350 0.950 1_545 S
C2364 H2351 0.979 . S
C2364 C2363 1.559 . S
C2365 C2362 1.403 . S
C2365 C2366 1.392 . S
C2365 C2369 1.495 . S
C2366 C2365 1.392 . S
C2366 C2367 1.385 . S
C2366 C2368 1.478 . S
C2367 H2361 0.930 1_545 S
C2367 C2363 1.400 . S
C2367 C2366 1.385 . S
C2368 C2366 1.478 . S
C2368 C2370 1.381 . S
C2368 C2374 1.383 . S
C2369 C2365 1.495 . S
C2369 H2375 0.959 . S
C2369 H2376 0.961 . S
C2369 H2377 0.960 . S
C2370 C2368 1.381 . S
C2370 C2371 1.394 1_545 S
C2370 H2378 0.930 . S
C2371 C2370 1.394 1_565 S
C2371 C2372 1.383 . S
C2371 H2379 0.929 . S
C2372 C2371 1.383 . S
C2372 C2373 1.377 1_565 S
C2373 H2357 0.930 . S
C2373 C2372 1.377 1_545 S
C2373 C2374 1.379 . S
C2374 H2358 0.931 . S
C2374 C2368 1.383 . S
C2374 C2373 1.379 . S
H2375 C2369 0.959 . S
H2376 C2369 0.961 . S
H2377 C2369 0.960 . S
H2378 C2370 0.930 . S
H2379 C2371 0.929 . S
H2380 C2388 0.929 . S
H2381 C2390 0.930 . S
H2382 C2392 0.930 . S
H2383 C2395 0.929 . S
H2384 C2398 0.930 . S
H2385 C2400 0.960 . S
H2386 C2400 0.960 . S
H2387 C2400 0.960 . S
C2388 H2380 0.929 . S
C2388 C2389 1.377 . S
C2388 C2390 1.384 . S
C2389 C2388 1.377 . S
C2389 C2395 1.390 . S
C2390 H2381 0.930 . S
C2390 C2388 1.384 . S
C2390 C2391 1.372 . S
C2391 C2390 1.372 . S
C2391 C2392 1.400 . S
C2391 C2396 1.490 . S
C2392 H2382 0.930 . S
C2392 C2391 1.400 . S
C2392 C2395 1.386 . S
H2393 C2409 0.930 . S
H2394 C2410 0.931 . S
C2395 H2383 0.929 . S
C2395 C2389 1.390 . S
C2395 C2392 1.386 . S
C2396 C2391 1.490 . S
C2396 C2398 1.395 . S
C2396 C2399 1.403 . S
H2397 C2403 0.930 . S
C2398 H2384 0.930 . S
C2398 C2396 1.395 . S
C2398 C2401 1.403 . S
C2399 C2396 1.403 . S
C2399 C2400 1.524 . S
C2399 C2403 1.400 . S
C2400 H2385 0.960 . S
C2400 H2386 0.960 . S
C2400 H2387 0.960 . S
C2400 C2399 1.524 . S
C2401 C2398 1.403 . S
C2401 C2402 1.392 . S
C2401 C2405 1.495 . S
C2402 C2401 1.392 . S
C2402 C2403 1.385 . S
C2402 C2404 1.478 . S
C2403 H2397 0.930 . S
C2403 C2399 1.400 . S
C2403 C2402 1.385 . S
C2404 C2402 1.478 . S
C2404 C2406 1.381 . S
C2404 C2410 1.383 . S
C2405 C2401 1.495 . S
C2405 H2411 0.959 . S
C2405 H2412 0.961 . S
C2405 H2413 0.960 . S
C2406 C2404 1.381 . S
C2406 C2407 1.394 . S
C2406 H2414 0.930 . S
C2407 C2406 1.394 . S
C2407 C2408 1.383 . S
C2407 H2415 0.929 . S
C2408 C2407 1.383 . S
C2408 C2409 1.377 . S
C2409 H2393 0.930 . S
C2409 C2408 1.377 . S
C2409 C2410 1.379 . S
C2410 H2394 0.931 . S
C2410 C2404 1.383 . S
C2410 C2409 1.379 . S
H2411 C2405 0.959 . S
H2412 C2405 0.961 . S
H2413 C2405 0.960 . S
H2414 C2406 0.930 . S
H2415 C2407 0.929 . S
H2416 C2424 0.929 . S
H2417 C2426 0.930 . S
H2418 C2428 0.930 . S
H2419 C2431 0.929 . S
H2420 C2434 0.930 . S
H2421 C2436 0.960 . S
H2422 C2436 0.960 . S
H2423 C2436 0.960 . S
C2424 H2416 0.929 . S
C2424 C2425 1.377 1_556 S
C2424 C2426 1.384 . S
C2425 C2424 1.377 1_554 S
C2425 C2431 1.390 . S
C2426 H2417 0.930 . S
C2426 C2424 1.384 . S
C2426 C2427 1.372 . S
C2427 C2426 1.372 . S
C2427 C2428 1.400 1_556 S
C2427 C2432 1.490 . S
C2428 H2418 0.930 . S
C2428 C2427 1.400 1_554 S
C2428 C2431 1.386 . S
H2429 C2445 0.926 . S
H2430 C2446 0.931 . S
C2431 H2419 0.929 . S
C2431 C2425 1.390 . S
C2431 C2428 1.386 . S
C2432 C2427 1.490 . S
C2432 C2434 1.395 . S
C2432 C2435 1.403 1_556 S
H2433 C2439 0.930 . S
C2434 H2420 0.930 . S
C2434 C2432 1.395 . S
C2434 C2437 1.403 . S
C2435 C2432 1.403 1_554 S
C2435 C2436 1.524 . S
C2435 C2439 1.400 . S
C2436 H2421 0.960 . S
C2436 H2422 0.960 . S
C2436 H2423 0.960 . S
C2436 C2435 1.524 . S
C2437 C2434 1.403 . S
C2437 C2438 1.392 . S
C2437 C2441 1.495 . S
C2438 C2437 1.392 . S
C2438 C2439 1.385 1_556 S
C2438 C2440 1.478 . S
C2439 H2433 0.930 . S
C2439 C2435 1.400 . S
C2439 C2438 1.385 1_554 S
C2440 C2438 1.478 . S
C2440 C2442 1.381 . S
C2440 C2446 1.383 1_556 S
C2441 C2437 1.495 . S
C2441 H2447 0.959 . S
C2441 H2448 0.961 . S
C2441 H2449 0.960 . S
C2442 C2440 1.381 . S
C2442 C2443 1.394 . S
C2442 H2450 0.930 . S
C2443 C2442 1.394 . S
C2443 C2444 1.383 . S
C2443 H2451 0.929 . S
C2444 C2443 1.383 . S
C2444 C2445 1.381 1_556 S
C2445 H2429 0.926 . S
C2445 C2444 1.381 1_554 S
C2445 C2446 1.379 . S
C2446 H2430 0.931 . S
C2446 C2440 1.383 1_554 S
C2446 C2445 1.379 . S
H2447 C2441 0.959 . S
H2448 C2441 0.961 . S
H2449 C2441 0.960 . S
H2450 C2442 0.930 . S
H2451 C2443 0.929 . S
H2452 C2460 0.929 . S
H2453 C2462 0.930 . S
H2454 C2464 0.930 . S
H2455 C2467 0.929 . S
H2456 C2470 0.930 . S
H2457 C2472 0.960 . S
H2458 C2472 0.960 . S
H2459 C2472 0.960 . S
C2460 H2452 0.929 . S
C2460 C2461 1.377 . S
C2460 C2462 1.384 . S
C2461 C2460 1.377 . S
C2461 C2467 1.390 . S
C2462 H2453 0.930 . S
C2462 C2460 1.384 . S
C2462 C2463 1.372 . S
C2463 C2462 1.372 . S
C2463 C2464 1.400 . S
C2463 C2468 1.490 . S
C2464 H2454 0.930 . S
C2464 C2463 1.400 . S
C2464 C2467 1.386 . S
H2465 C2481 0.930 . S
H2466 C2482 0.931 . S
C2467 H2455 0.929 . S
C2467 C2461 1.390 . S
C2467 C2464 1.386 . S
C2468 C2463 1.490 . S
C2468 C2470 1.395 . S
C2468 C2471 1.403 . S
H2469 C2475 0.930 . S
C2470 H2456 0.930 . S
C2470 C2468 1.395 . S
C2470 C2473 1.403 . S
C2471 C2468 1.403 . S
C2471 C2472 1.524 . S
C2471 C2475 1.400 . S
C2472 H2457 0.960 . S
C2472 H2458 0.960 . S
C2472 H2459 0.960 . S
C2472 C2471 1.524 . S
C2473 C2470 1.403 . S
C2473 C2474 1.392 . S
C2473 C2477 1.495 . S
C2474 C2473 1.392 . S
C2474 C2475 1.385 . S
C2474 C2476 1.478 . S
C2475 H2469 0.930 . S
C2475 C2471 1.400 . S
C2475 C2474 1.385 . S
C2476 C2474 1.478 . S
C2476 C2478 1.381 . S
C2476 C2482 1.383 . S
C2477 C2473 1.495 . S
C2477 H2483 0.959 . S
C2477 H2484 0.961 . S
C2477 H2485 0.960 . S
C2478 C2476 1.381 . S
C2478 C2479 1.394 . S
C2478 H2486 0.930 . S
C2479 C2478 1.394 . S
C2479 C2480 1.383 . S
C2479 H2487 0.929 . S
C2480 C2479 1.383 . S
C2480 C2481 1.377 . S
C2481 H2465 0.930 . S
C2481 C2480 1.377 . S
C2481 C2482 1.379 . S
C2482 H2466 0.931 . S
C2482 C2476 1.383 . S
C2482 C2481 1.379 . S
H2483 C2477 0.959 . S
H2484 C2477 0.961 . S
H2485 C2477 0.960 . S
H2486 C2478 0.930 . S
H2487 C2479 0.929 . S
H2488 C2496 0.929 . S
H2489 C2498 0.930 . S
H2490 C2500 0.930 . S
H2491 C2503 0.929 . S
H2492 C2506 0.930 . S
H2493 C2508 0.960 . S
H2494 C2508 0.960 . S
H2495 C2508 0.960 . S
C2496 H2488 0.929 . S
C2496 C2497 1.377 . S
C2496 C2498 1.384 . S
C2497 C2496 1.377 . S
C2497 C2503 1.390 . S
C2498 H2489 0.930 . S
C2498 C2496 1.384 . S
C2498 C2499 1.372 . S
C2499 C2498 1.372 . S
C2499 C2500 1.400 . S
C2499 C2504 1.490 . S
C2500 H2490 0.930 . S
C2500 C2499 1.400 . S
C2500 C2503 1.386 . S
H2501 C2517 0.930 . S
H2502 C2518 0.931 . S
C2503 H2491 0.929 . S
C2503 C2497 1.390 . S
C2503 C2500 1.386 . S
C2504 C2499 1.490 . S
C2504 C2506 1.395 . S
C2504 C2507 1.403 . S
H2505 C2511 0.930 . S
C2506 H2492 0.930 . S
C2506 C2504 1.395 . S
C2506 C2509 1.403 . S
C2507 C2504 1.403 . S
C2507 C2508 1.524 . S
C2507 C2511 1.400 . S
C2508 H2493 0.960 . S
C2508 H2494 0.960 . S
C2508 H2495 0.960 . S
C2508 C2507 1.524 . S
C2509 C2506 1.403 . S
C2509 C2510 1.392 . S
C2509 C2513 1.495 . S
C2510 C2509 1.392 . S
C2510 C2511 1.385 . S
C2510 C2512 1.478 . S
C2511 H2505 0.930 . S
C2511 C2507 1.400 . S
C2511 C2510 1.385 . S
C2512 C2510 1.478 . S
C2512 C2514 1.381 . S
C2512 C2518 1.383 . S
C2513 C2509 1.495 . S
C2513 H2519 0.959 . S
C2513 H2520 0.961 . S
C2513 H2521 0.960 . S
C2514 C2512 1.381 . S
C2514 C2515 1.394 . S
C2514 H2522 0.930 . S
C2515 C2514 1.394 . S
C2515 C2516 1.383 . S
C2515 H2523 0.929 . S
C2516 C2515 1.383 . S
C2516 C2517 1.377 . S
C2517 H2501 0.930 . S
C2517 C2516 1.377 . S
C2517 C2518 1.379 . S
C2518 H2502 0.931 . S
C2518 C2512 1.383 . S
C2518 C2517 1.379 . S
H2519 C2513 0.959 . S
H2520 C2513 0.961 . S
H2521 C2513 0.960 . S
H2522 C2514 0.930 . S
H2523 C2515 0.929 . S
H2524 C2532 0.929 . S
H2525 C2534 0.930 . S
H2526 C2536 0.930 . S
H2527 C2539 0.929 . S
H2528 C2542 0.930 . S
H2529 C2544 0.960 . S
H2530 C2544 0.960 . S
H2531 C2544 0.960 . S
C2532 H2524 0.929 . S
C2532 C2533 1.377 . S
C2532 C2534 1.384 . S
C2533 C2532 1.377 . S
C2533 C2539 1.390 . S
C2534 H2525 0.930 . S
C2534 C2532 1.384 . S
C2534 C2535 1.372 . S
C2535 C2534 1.372 . S
C2535 C2536 1.400 . S
C2535 C2540 1.490 . S
C2536 H2526 0.930 . S
C2536 C2535 1.400 . S
C2536 C2539 1.386 . S
H2537 C2553 0.930 . S
H2538 C2554 0.931 . S
C2539 H2527 0.929 . S
C2539 C2533 1.390 . S
C2539 C2536 1.386 . S
C2540 C2535 1.490 . S
C2540 C2542 1.395 . S
C2540 C2543 1.403 . S
H2541 C2547 0.930 . S
C2542 H2528 0.930 . S
C2542 C2540 1.395 . S
C2542 C2545 1.403 . S
C2543 C2540 1.403 . S
C2543 C2544 1.524 . S
C2543 C2547 1.400 . S
C2544 H2529 0.960 . S
C2544 H2530 0.960 . S
C2544 H2531 0.960 . S
C2544 C2543 1.524 . S
C2545 C2542 1.403 . S
C2545 C2546 1.392 . S
C2545 C2549 1.495 . S
C2546 C2545 1.392 . S
C2546 C2547 1.385 . S
C2546 C2548 1.478 . S
C2547 H2541 0.930 . S
C2547 C2543 1.400 . S
C2547 C2546 1.385 . S
C2548 C2546 1.478 . S
C2548 C2550 1.381 . S
C2548 C2554 1.383 . S
C2549 C2545 1.495 . S
C2549 H2555 0.959 . S
C2549 H2556 0.961 . S
C2549 H2557 0.960 . S
C2550 C2548 1.381 . S
C2550 C2551 1.394 . S
C2550 H2558 0.930 . S
C2551 C2550 1.394 . S
C2551 C2552 1.383 . S
C2551 H2559 0.929 . S
C2552 C2551 1.383 . S
C2552 C2553 1.377 . S
C2553 H2537 0.930 . S
C2553 C2552 1.377 . S
C2553 C2554 1.379 . S
C2554 H2538 0.931 . S
C2554 C2548 1.383 . S
C2554 C2553 1.379 . S
H2555 C2549 0.959 . S
H2556 C2549 0.961 . S
H2557 C2549 0.960 . S
H2558 C2550 0.930 . S
H2559 C2551 0.929 . S
H2560 C2568 0.929 . S
H2561 C2570 0.930 . S
H2562 C2572 0.930 . S
H2563 C2575 0.929 . S
H2564 C2578 0.930 . S
H2565 C2580 0.960 . S
H2566 C2580 0.960 . S
H2567 C2580 0.960 . S
C2568 H2560 0.929 . S
C2568 C2569 1.377 . S
C2568 C2570 1.384 . S
C2569 C2568 1.377 . S
C2569 C2575 1.390 . S
C2570 H2561 0.930 . S
C2570 C2568 1.384 . S
C2570 C2571 1.372 . S
C2571 C2570 1.372 . S
C2571 C2572 1.400 . S
C2571 C2576 1.490 . S
C2572 H2562 0.930 . S
C2572 C2571 1.400 . S
C2572 C2575 1.386 . S
H2573 C2589 0.930 . S
H2574 C2590 0.931 . S
C2575 H2563 0.929 . S
C2575 C2569 1.390 . S
C2575 C2572 1.386 . S
C2576 C2571 1.490 . S
C2576 C2578 1.395 . S
C2576 C2579 1.403 . S
H2577 C2583 0.930 . S
C2578 H2564 0.930 . S
C2578 C2576 1.395 . S
C2578 C2581 1.403 . S
C2579 C2576 1.403 . S
C2579 C2580 1.524 . S
C2579 C2583 1.400 . S
C2580 H2565 0.960 . S
C2580 H2566 0.960 . S
C2580 H2567 0.960 . S
C2580 C2579 1.524 . S
C2581 C2578 1.403 . S
C2581 C2582 1.392 . S
C2581 C2585 1.495 . S
C2582 C2581 1.392 . S
C2582 C2583 1.385 . S
C2582 C2584 1.478 . S
C2583 H2577 0.930 . S
C2583 C2579 1.400 . S
C2583 C2582 1.385 . S
C2584 C2582 1.478 . S
C2584 C2586 1.381 . S
C2584 C2590 1.383 . S
C2585 C2581 1.495 . S
C2585 H2591 0.959 . S
C2585 H2592 0.961 . S
C2585 H2593 0.960 . S
C2586 C2584 1.381 . S
C2586 C2587 1.394 . S
C2586 H2594 0.930 . S
C2587 C2586 1.394 . S
C2587 C2588 1.383 . S
C2587 H2595 0.929 . S
C2588 C2587 1.383 . S
C2588 C2589 1.377 . S
C2589 H2573 0.930 . S
C2589 C2588 1.377 . S
C2589 C2590 1.379 . S
C2590 H2574 0.931 . S
C2590 C2584 1.383 . S
C2590 C2589 1.379 . S
H2591 C2585 0.959 . S
H2592 C2585 0.961 . S
H2593 C2585 0.960 . S
H2594 C2586 0.930 . S
H2595 C2587 0.929 . S
H2596 C2604 0.929 . S
H2597 C2606 0.930 . S
H2598 C2608 0.930 . S
H2599 C2611 0.929 . S
H2600 C2614 0.930 . S
H2601 C2616 0.960 . S
H2602 C2616 0.960 . S
H2603 C2616 0.960 . S
C2604 H2596 0.929 . S
C2604 C2605 1.377 . S
C2604 C2606 1.384 . S
C2605 C2604 1.377 . S
C2605 C2611 1.390 . S
C2606 H2597 0.930 . S
C2606 C2604 1.384 . S
C2606 C2607 1.372 . S
C2607 C2606 1.372 . S
C2607 C2608 1.400 . S
C2607 C2612 1.490 . S
C2608 H2598 0.930 . S
C2608 C2607 1.400 . S
C2608 C2611 1.386 . S
H2609 C2625 0.930 1_545 S
H2610 C2626 0.931 . S
C2611 H2599 0.929 . S
C2611 C2605 1.390 . S
C2611 C2608 1.386 . S
C2612 C2607 1.490 . S
C2612 C2614 1.395 . S
C2612 C2615 1.403 . S
H2613 C2619 0.930 . S
C2614 H2600 0.930 . S
C2614 C2612 1.395 . S
C2614 C2617 1.403 . S
C2615 C2612 1.403 . S
C2615 C2616 1.524 . S
C2615 C2619 1.400 . S
C2616 H2601 0.960 . S
C2616 H2602 0.960 . S
C2616 H2603 0.960 . S
C2616 C2615 1.524 . S
C2617 C2614 1.403 . S
C2617 C2618 1.392 . S
C2617 C2621 1.495 . S
C2618 C2617 1.392 . S
C2618 C2619 1.385 . S
C2618 C2620 1.478 . S
C2619 H2613 0.930 . S
C2619 C2615 1.400 . S
C2619 C2618 1.385 . S
C2620 C2618 1.478 . S
C2620 C2622 1.381 . S
C2620 C2626 1.383 . S
C2621 C2617 1.495 . S
C2621 H2627 0.959 . S
C2621 H2628 0.961 . S
C2621 H2629 0.960 . S
C2622 C2620 1.381 . S
C2622 C2623 1.394 . S
C2622 H2630 0.930 . S
C2623 C2622 1.394 . S
C2623 C2624 1.383 . S
C2623 H2631 0.929 . S
C2624 C2623 1.383 . S
C2624 C2625 1.377 . S
C2625 H2609 0.930 1_565 S
C2625 C2624 1.377 . S
C2625 C2626 1.379 . S
C2626 H2610 0.931 . S
C2626 C2620 1.383 . S
C2626 C2625 1.379 . S
H2627 C2621 0.959 . S
H2628 C2621 0.961 . S
H2629 C2621 0.960 . S
H2630 C2622 0.930 . S
H2631 C2623 0.929 . S
H2632 C2640 0.929 . S
H2633 C2642 0.930 . S
H2634 C2644 0.930 . S
H2635 C2647 0.929 . S
H2636 C2650 0.930 . S
H2637 C2652 0.960 . S
H2638 C2652 0.960 . S
H2639 C2652 0.960 . S
C2640 H2632 0.929 . S
C2640 C2641 1.377 . S
C2640 C2642 1.384 . S
C2641 C2640 1.377 . S
C2641 C2647 1.390 . S
C2642 H2633 0.930 . S
C2642 C2640 1.384 . S
C2642 C2643 1.372 . S
C2643 C2642 1.372 . S
C2643 C2644 1.400 . S
C2643 C2648 1.490 . S
C2644 H2634 0.930 . S
C2644 C2643 1.400 . S
C2644 C2647 1.386 . S
H2645 C2661 0.930 . S
H2646 C2662 0.931 . S
C2647 H2635 0.929 . S
C2647 C2641 1.390 . S
C2647 C2644 1.386 . S
C2648 C2643 1.490 . S
C2648 C2650 1.395 . S
C2648 C2651 1.403 . S
H2649 C2655 0.930 . S
C2650 H2636 0.930 . S
C2650 C2648 1.395 . S
C2650 C2653 1.403 . S
C2651 C2648 1.403 . S
C2651 C2652 1.524 . S
C2651 C2655 1.400 . S
C2652 H2637 0.960 . S
C2652 H2638 0.960 . S
C2652 H2639 0.960 . S
C2652 C2651 1.524 . S
C2653 C2650 1.403 . S
C2653 C2654 1.392 . S
C2653 C2657 1.495 . S
C2654 C2653 1.392 . S
C2654 C2655 1.385 . S
C2654 C2656 1.478 . S
C2655 H2649 0.930 . S
C2655 C2651 1.400 . S
C2655 C2654 1.385 . S
C2656 C2654 1.478 . S
C2656 C2658 1.381 . S
C2656 C2662 1.383 . S
C2657 C2653 1.495 . S
C2657 H2663 0.959 . S
C2657 H2664 0.961 . S
C2657 H2665 0.960 . S
C2658 C2656 1.381 . S
C2658 C2659 1.394 . S
C2658 H2666 0.930 . S
C2659 C2658 1.394 . S
C2659 C2660 1.383 . S
C2659 H2667 0.929 . S
C2660 C2659 1.383 . S
C2660 C2661 1.377 . S
C2661 H2645 0.930 . S
C2661 C2660 1.377 . S
C2661 C2662 1.379 . S
C2662 H2646 0.931 . S
C2662 C2656 1.383 . S
C2662 C2661 1.379 . S
H2663 C2657 0.959 . S
H2664 C2657 0.961 . S
H2665 C2657 0.960 . S
H2666 C2658 0.930 . S
H2667 C2659 0.929 . S
H2668 C2676 0.929 . S
H2669 C2678 0.930 . S
H2670 C2680 0.930 . S
H2671 C2683 0.929 . S
H2672 C2686 0.930 . S
H2673 C2688 0.960 . S
H2674 C2688 0.960 . S
H2675 C2688 0.960 . S
C2676 H2668 0.929 . S
C2676 C2677 1.377 . S
C2676 C2678 1.384 . S
C2677 C2676 1.377 . S
C2677 C2683 1.390 . S
C2678 H2669 0.930 . S
C2678 C2676 1.384 . S
C2678 C2679 1.372 . S
C2679 C2678 1.372 . S
C2679 C2680 1.400 . S
C2679 C2684 1.490 . S
C2680 H2670 0.930 . S
C2680 C2679 1.400 . S
C2680 C2683 1.386 . S
H2681 C2697 0.930 . S
H2682 C2698 0.931 . S
C2683 H2671 0.929 . S
C2683 C2677 1.390 . S
C2683 C2680 1.386 . S
C2684 C2679 1.490 . S
C2684 C2686 1.395 . S
C2684 C2687 1.403 . S
H2685 C2691 0.930 . S
C2686 H2672 0.930 . S
C2686 C2684 1.395 . S
C2686 C2689 1.403 . S
C2687 C2684 1.403 . S
C2687 C2688 1.524 . S
C2687 C2691 1.400 . S
C2688 H2673 0.960 . S
C2688 H2674 0.960 . S
C2688 H2675 0.960 . S
C2688 C2687 1.524 . S
C2689 C2686 1.403 . S
C2689 C2690 1.392 . S
C2689 C2693 1.495 . S
C2690 C2689 1.392 . S
C2690 C2691 1.385 . S
C2690 C2692 1.478 . S
C2691 H2685 0.930 . S
C2691 C2687 1.400 . S
C2691 C2690 1.385 . S
C2692 C2690 1.478 . S
C2692 C2694 1.381 . S
C2692 C2698 1.383 . S
C2693 C2689 1.495 . S
C2693 H2699 0.959 . S
C2693 H2700 0.961 . S
C2693 H2701 0.960 . S
C2694 C2692 1.381 . S
C2694 C2695 1.394 . S
C2694 H2702 0.930 . S
C2695 C2694 1.394 . S
C2695 C2696 1.383 . S
C2695 H2703 0.929 . S
C2696 C2695 1.383 . S
C2696 C2697 1.377 . S
C2697 H2681 0.930 . S
C2697 C2696 1.377 . S
C2697 C2698 1.379 . S
C2698 H2682 0.931 . S
C2698 C2692 1.383 . S
C2698 C2697 1.379 . S
H2699 C2693 0.959 . S
H2700 C2693 0.961 . S
H2701 C2693 0.960 . S
H2702 C2694 0.930 . S
H2703 C2695 0.929 . S
H2704 C2712 0.929 . S
H2705 C2714 0.930 . S
H2706 C2716 0.930 . S
H2707 C2719 0.929 . S
H2708 C2722 0.930 . S
H2709 C2724 0.960 . S
H2710 C2724 0.960 . S
H2711 C2724 0.960 . S
C2712 H2704 0.929 . S
C2712 C2713 1.377 . S
C2712 C2714 1.384 . S
C2713 C2712 1.377 . S
C2713 C2719 1.390 . S
C2714 H2705 0.930 . S
C2714 C2712 1.384 . S
C2714 C2715 1.372 . S
C2715 C2714 1.372 . S
C2715 C2716 1.400 . S
C2715 C2720 1.490 . S
C2716 H2706 0.930 . S
C2716 C2715 1.400 . S
C2716 C2719 1.386 . S
H2717 C2733 0.930 . S
H2718 C2734 0.931 . S
C2719 H2707 0.929 . S
C2719 C2713 1.390 . S
C2719 C2716 1.386 . S
C2720 C2715 1.490 . S
C2720 C2722 1.395 . S
C2720 C2723 1.403 . S
H2721 C2727 0.930 . S
C2722 H2708 0.930 . S
C2722 C2720 1.395 . S
C2722 C2725 1.403 . S
C2723 C2720 1.403 . S
C2723 C2724 1.524 . S
C2723 C2727 1.400 . S
C2724 H2709 0.960 . S
C2724 H2710 0.960 . S
C2724 H2711 0.960 . S
C2724 C2723 1.524 . S
C2725 C2722 1.403 . S
C2725 C2726 1.392 . S
C2725 C2729 1.495 . S
C2726 C2725 1.392 . S
C2726 C2727 1.385 . S
C2726 C2728 1.478 . S
C2727 H2721 0.930 . S
C2727 C2723 1.400 . S
C2727 C2726 1.385 . S
C2728 C2726 1.478 . S
C2728 C2730 1.381 . S
C2728 C2734 1.383 . S
C2729 C2725 1.495 . S
C2729 H2735 0.959 . S
C2729 H2736 0.961 . S
C2729 H2737 0.960 . S
C2730 C2728 1.381 . S
C2730 C2731 1.394 . S
C2730 H2738 0.930 . S
C2731 C2730 1.394 . S
C2731 C2732 1.383 . S
C2731 H2739 0.929 . S
C2732 C2731 1.383 . S
C2732 C2733 1.377 . S
C2733 H2717 0.930 . S
C2733 C2732 1.377 . S
C2733 C2734 1.379 . S
C2734 H2718 0.931 . S
C2734 C2728 1.383 . S
C2734 C2733 1.379 . S
H2735 C2729 0.959 . S
H2736 C2729 0.961 . S
H2737 C2729 0.960 . S
H2738 C2730 0.930 . S
H2739 C2731 0.929 . S
H2740 C2748 0.929 . S
H2741 C2750 0.930 . S
H2742 C2752 0.930 . S
H2743 C2755 0.929 . S
H2744 C2758 0.930 . S
H2745 C2760 0.960 . S
H2746 C2760 0.960 . S
H2747 C2760 0.960 . S
C2748 H2740 0.929 . S
C2748 C2749 1.377 . S
C2748 C2750 1.384 . S
C2749 C2748 1.377 . S
C2749 C2755 1.390 . S
C2750 H2741 0.930 . S
C2750 C2748 1.384 . S
C2750 C2751 1.372 . S
C2751 C2750 1.372 . S
C2751 C2752 1.400 . S
C2751 C2756 1.490 . S
C2752 H2742 0.930 . S
C2752 C2751 1.400 . S
C2752 C2755 1.386 . S
H2753 C2769 0.930 . S
H2754 C2770 0.931 . S
C2755 H2743 0.929 . S
C2755 C2749 1.390 . S
C2755 C2752 1.386 . S
C2756 C2751 1.490 . S
C2756 C2758 1.395 . S
C2756 C2759 1.403 . S
H2757 C2763 0.930 . S
C2758 H2744 0.930 . S
C2758 C2756 1.395 . S
C2758 C2761 1.403 . S
C2759 C2756 1.403 . S
C2759 C2760 1.524 . S
C2759 C2763 1.400 . S
C2760 H2745 0.960 . S
C2760 H2746 0.960 . S
C2760 H2747 0.960 . S
C2760 C2759 1.524 . S
C2761 C2758 1.403 . S
C2761 C2762 1.392 . S
C2761 C2765 1.495 . S
C2762 C2761 1.392 . S
C2762 C2763 1.385 . S
C2762 C2764 1.478 . S
C2763 H2757 0.930 . S
C2763 C2759 1.400 . S
C2763 C2762 1.385 . S
C2764 C2762 1.478 . S
C2764 C2766 1.381 . S
C2764 C2770 1.383 . S
C2765 C2761 1.495 . S
C2765 H2771 0.959 . S
C2765 H2772 0.961 . S
C2765 H2773 0.960 . S
C2766 C2764 1.381 . S
C2766 C2767 1.394 . S
C2766 H2774 0.930 . S
C2767 C2766 1.394 . S
C2767 C2768 1.383 . S
C2767 H2775 0.929 . S
C2768 C2767 1.383 . S
C2768 C2769 1.377 . S
C2769 H2753 0.930 . S
C2769 C2768 1.377 . S
C2769 C2770 1.379 . S
C2770 H2754 0.931 . S
C2770 C2764 1.383 . S
C2770 C2769 1.379 . S
H2771 C2765 0.959 . S
H2772 C2765 0.961 . S
H2773 C2765 0.960 . S
H2774 C2766 0.930 . S
H2775 C2767 0.929 . S
H2776 C2784 0.929 . S
H2777 C2786 0.930 . S
H2778 C2788 0.930 . S
H2779 C2791 0.929 . S
H2780 C2794 0.930 . S
H2781 C2796 0.960 . S
H2782 C2796 0.960 . S
H2783 C2796 0.960 . S
C2784 H2776 0.929 . S
C2784 C2785 1.377 1_655 S
C2784 C2786 1.384 . S
C2785 C2784 1.377 1_455 S
C2785 C2791 1.390 . S
C2786 H2777 0.930 . S
C2786 C2784 1.384 . S
C2786 C2787 1.372 1_655 S
C2787 C2786 1.372 1_455 S
C2787 C2788 1.400 . S
C2787 C2792 1.490 . S
C2788 H2778 0.930 . S
C2788 C2787 1.400 . S
C2788 C2791 1.386 . S
H2789 C2805 0.895 1_554 S
H2790 C2806 0.931 . S
C2791 H2779 0.929 . S
C2791 C2785 1.390 . S
C2791 C2788 1.386 . S
C2792 C2787 1.490 . S
C2792 C2794 1.395 1_455 S
C2792 C2795 1.403 . S
H2793 C2799 0.930 . S
C2794 H2780 0.930 . S
C2794 C2792 1.395 1_655 S
C2794 C2797 1.403 . S
C2795 C2792 1.403 . S
C2795 C2796 1.524 . S
C2795 C2799 1.400 . S
C2796 H2781 0.960 . S
C2796 H2782 0.960 . S
C2796 H2783 0.960 . S
C2796 C2795 1.524 . S
C2797 C2794 1.403 . S
C2797 C2798 1.392 1_655 S
C2797 C2801 1.495 . S
C2798 C2797 1.392 1_455 S
C2798 C2799 1.385 . S
C2798 C2800 1.478 . S
C2799 H2793 0.930 . S
C2799 C2795 1.400 . S
C2799 C2798 1.385 . S
C2800 C2798 1.478 . S
C2800 C2802 1.381 . S
C2800 C2806 1.383 . S
C2801 C2797 1.495 . S
C2801 H2807 0.959 . S
C2801 H2808 0.961 . S
C2801 H2809 0.960 . S
C2802 C2800 1.381 . S
C2802 C2803 1.394 . S
C2802 H2810 0.930 1_455 S
C2803 C2802 1.394 . S
C2803 C2804 1.383 . S
C2803 H2811 0.929 . S
C2804 C2803 1.383 . S
C2804 C2805 1.377 . S
C2805 H2789 0.895 1_556 S
C2805 C2804 1.377 . S
C2805 C2806 1.379 . S
C2806 H2790 0.931 . S
C2806 C2800 1.383 . S
C2806 C2805 1.379 . S
H2807 C2801 0.959 . S
H2808 C2801 0.961 . S
H2809 C2801 0.960 . S
H2810 C2802 0.930 1_655 S
H2811 C2803 0.929 . S
H2812 C2820 0.929 . S
H2813 C2822 0.930 . S
H2814 C2824 0.930 . S
H2815 C2827 0.929 . S
H2816 C2830 0.930 . S
H2817 C2832 0.960 . S
H2818 C2832 0.960 . S
H2819 C2832 0.960 1_455 S
C2820 H2812 0.929 . S
C2820 C2821 1.377 . S
C2820 C2822 1.384 1_455 S
C2821 C2820 1.377 . S
C2821 C2827 1.390 . S
C2822 H2813 0.930 . S
C2822 C2820 1.384 1_655 S
C2822 C2823 1.372 . S
C2823 C2822 1.372 . S
C2823 C2824 1.400 1_655 S
C2823 C2828 1.490 . S
C2824 H2814 0.930 . S
C2824 C2823 1.400 1_455 S
C2824 C2827 1.386 . S
H2825 C2841 0.930 . S
H2826 C2842 0.931 . S
C2827 H2815 0.929 . S
C2827 C2821 1.390 . S
C2827 C2824 1.386 . S
C2828 C2823 1.490 . S
C2828 C2830 1.395 . S
C2828 C2831 1.403 . S
H2829 C2835 0.930 . S
C2830 H2816 0.930 . S
C2830 C2828 1.395 . S
C2830 C2833 1.403 . S
C2831 C2828 1.403 . S
C2831 C2832 1.524 . S
C2831 C2835 1.400 . S
C2832 H2817 0.960 . S
C2832 H2818 0.960 . S
C2832 H2819 0.960 1_655 S
C2832 C2831 1.524 . S
C2833 C2830 1.403 . S
C2833 C2834 1.392 . S
C2833 C2837 1.495 . S
C2834 C2833 1.392 . S
C2834 C2835 1.385 . S
C2834 C2836 1.478 . S
C2835 H2829 0.930 . S
C2835 C2831 1.400 . S
C2835 C2834 1.385 . S
C2836 C2834 1.478 . S
C2836 C2838 1.381 . S
C2836 C2842 1.383 . S
C2837 C2833 1.495 . S
C2837 H2843 0.959 . S
C2837 H2844 0.961 . S
C2837 H2845 0.960 . S
C2838 C2836 1.381 . S
C2838 C2839 1.394 . S
C2838 H2846 0.930 . S
C2839 C2838 1.394 . S
C2839 C2840 1.383 . S
C2839 H2847 0.929 . S
C2840 C2839 1.383 . S
C2840 C2841 1.377 . S
C2841 H2825 0.930 . S
C2841 C2840 1.377 . S
C2841 C2842 1.379 . S
C2842 H2826 0.931 . S
C2842 C2836 1.383 . S
C2842 C2841 1.379 . S
H2843 C2837 0.959 . S
H2844 C2837 0.961 . S
H2845 C2837 0.960 . S
H2846 C2838 0.930 . S
H2847 C2839 0.929 . S
H2848 C2856 0.929 . S
H2849 C2858 0.930 . S
H2850 C2860 0.930 . S
H2851 C2863 0.929 . S
H2852 C2866 0.930 . S
H2853 C2868 0.960 . S
H2854 C2868 0.960 . S
H2855 C2868 0.960 . S
C2856 H2848 0.929 . S
C2856 C2857 1.377 . S
C2856 C2858 1.384 . S
C2857 C2856 1.377 . S
C2857 C2863 1.390 . S
C2858 H2849 0.930 . S
C2858 C2856 1.384 . S
C2858 C2859 1.372 . S
C2859 C2858 1.372 . S
C2859 C2860 1.400 . S
C2859 C2864 1.490 . S
C2860 H2850 0.930 . S
C2860 C2859 1.400 . S
C2860 C2863 1.386 . S
H2861 C2877 0.930 . S
H2862 C2878 0.931 . S
C2863 H2851 0.929 . S
C2863 C2857 1.390 . S
C2863 C2860 1.386 . S
C2864 C2859 1.490 . S
C2864 C2866 1.395 . S
C2864 C2867 1.403 . S
H2865 C2871 0.930 . S
C2866 H2852 0.930 . S
C2866 C2864 1.395 . S
C2866 C2869 1.403 . S
C2867 C2864 1.403 . S
C2867 C2868 1.524 . S
C2867 C2871 1.400 . S
C2868 H2853 0.960 . S
C2868 H2854 0.960 . S
C2868 H2855 0.960 . S
C2868 C2867 1.524 . S
C2869 C2866 1.403 . S
C2869 C2870 1.392 . S
C2869 C2873 1.495 . S
C2870 C2869 1.392 . S
C2870 C2871 1.385 . S
C2870 C2872 1.478 . S
C2871 H2865 0.930 . S
C2871 C2867 1.400 . S
C2871 C2870 1.385 . S
C2872 C2870 1.478 . S
C2872 C2874 1.381 . S
C2872 C2878 1.383 . S
C2873 C2869 1.495 . S
C2873 H2879 0.959 . S
C2873 H2880 0.961 . S
C2873 H2881 0.960 . S
C2874 C2872 1.381 . S
C2874 C2875 1.394 . S
C2874 H2882 0.930 . S
C2875 C2874 1.394 . S
C2875 C2876 1.383 . S
C2875 H2883 0.929 . S
C2876 C2875 1.383 . S
C2876 C2877 1.377 . S
C2877 H2861 0.930 . S
C2877 C2876 1.377 . S
C2877 C2878 1.379 . S
C2878 H2862 0.931 . S
C2878 C2872 1.383 . S
C2878 C2877 1.379 . S
H2879 C2873 0.959 . S
H2880 C2873 0.961 . S
H2881 C2873 0.960 . S
H2882 C2874 0.930 . S
H2883 C2875 0.929 . S
H2884 C2892 0.929 . S
H2885 C2894 0.930 . S
H2886 C2896 0.930 . S
H2887 C2899 0.929 . S
H2888 C2902 0.930 . S
H2889 C2904 0.960 . S
H2890 C2904 0.960 . S
H2891 C2904 0.960 . S
C2892 H2884 0.929 . S
C2892 C2893 1.377 . S
C2892 C2894 1.384 . S
C2893 C2892 1.377 . S
C2893 C2899 1.390 . S
C2894 H2885 0.930 . S
C2894 C2892 1.384 . S
C2894 C2895 1.372 . S
C2895 C2894 1.372 . S
C2895 C2896 1.400 . S
C2895 C2900 1.490 . S
C2896 H2886 0.930 . S
C2896 C2895 1.400 . S
C2896 C2899 1.386 . S
H2897 C2913 0.930 . S
H2898 C2914 0.931 . S
C2899 H2887 0.929 . S
C2899 C2893 1.390 . S
C2899 C2896 1.386 . S
C2900 C2895 1.490 . S
C2900 C2902 1.395 . S
C2900 C2903 1.403 . S
H2901 C2907 0.930 . S
C2902 H2888 0.930 . S
C2902 C2900 1.395 . S
C2902 C2905 1.403 . S
C2903 C2900 1.403 . S
C2903 C2904 1.524 . S
C2903 C2907 1.400 . S
C2904 H2889 0.960 . S
C2904 H2890 0.960 . S
C2904 H2891 0.960 . S
C2904 C2903 1.524 . S
C2905 C2902 1.403 . S
C2905 C2906 1.392 . S
C2905 C2909 1.495 . S
C2906 C2905 1.392 . S
C2906 C2907 1.385 . S
C2906 C2908 1.478 . S
C2907 H2901 0.930 . S
C2907 C2903 1.400 . S
C2907 C2906 1.385 . S
C2908 C2906 1.478 . S
C2908 C2910 1.381 . S
C2908 C2914 1.383 . S
C2909 C2905 1.495 . S
C2909 H2915 0.959 . S
C2909 H2916 0.961 . S
C2909 H2917 0.960 . S
C2910 C2908 1.381 . S
C2910 C2911 1.394 . S
C2910 H2918 0.930 . S
C2911 C2910 1.394 . S
C2911 C2912 1.383 . S
C2911 H2919 0.929 . S
C2912 C2911 1.383 . S
C2912 C2913 1.377 . S
C2913 H2897 0.930 . S
C2913 C2912 1.377 . S
C2913 C2914 1.379 . S
C2914 H2898 0.931 . S
C2914 C2908 1.383 . S
C2914 C2913 1.379 . S
H2915 C2909 0.959 . S
H2916 C2909 0.961 . S
H2917 C2909 0.960 . S
H2918 C2910 0.930 . S
H2919 C2911 0.929 . S
H2920 C2928 0.929 . S
H2921 C2930 0.930 . S
H2922 C2932 0.930 . S
H2923 C2935 0.929 . S
H2924 C2938 0.930 . S
H2925 C2940 0.960 1_655 S
H2926 C2940 0.960 1_655 S
H2927 C2940 0.960 . S
C2928 H2920 0.929 . S
C2928 C2929 1.377 . S
C2928 C2930 1.384 . S
C2929 C2928 1.377 . S
C2929 C2935 1.390 . S
C2930 H2921 0.930 . S
C2930 C2928 1.384 . S
C2930 C2931 1.372 . S
C2931 C2930 1.372 . S
C2931 C2932 1.400 . S
C2931 C2936 1.490 . S
C2932 H2922 0.930 . S
C2932 C2931 1.400 . S
C2932 C2935 1.386 . S
H2933 C2949 0.930 . S
H2934 C2950 0.931 . S
C2935 H2923 0.929 . S
C2935 C2929 1.390 . S
C2935 C2932 1.386 . S
C2936 C2931 1.490 . S
C2936 C2938 1.395 . S
C2936 C2939 1.403 . S
H2937 C2943 0.930 . S
C2938 H2924 0.930 . S
C2938 C2936 1.395 . S
C2938 C2941 1.403 . S
C2939 C2936 1.403 . S
C2939 C2940 1.524 . S
C2939 C2943 1.400 . S
C2940 H2925 0.960 1_455 S
C2940 H2926 0.960 1_455 S
C2940 H2927 0.960 . S
C2940 C2939 1.524 . S
C2941 C2938 1.403 . S
C2941 C2942 1.392 . S
C2941 C2945 1.495 . S
C2942 C2941 1.392 . S
C2942 C2943 1.385 . S
C2942 C2944 1.478 . S
C2943 H2937 0.930 . S
C2943 C2939 1.400 . S
C2943 C2942 1.385 . S
C2944 C2942 1.478 . S
C2944 C2946 1.381 . S
C2944 C2950 1.383 . S
C2945 C2941 1.495 . S
C2945 H2951 0.959 . S
C2945 H2952 0.961 . S
C2945 H2953 0.960 . S
C2946 C2944 1.381 . S
C2946 C2947 1.394 . S
C2946 H2954 0.930 . S
C2947 C2946 1.394 . S
C2947 C2948 1.383 . S
C2947 H2955 0.929 . S
C2948 C2947 1.383 . S
C2948 C2949 1.377 . S
C2949 H2933 0.930 . S
C2949 C2948 1.377 . S
C2949 C2950 1.379 . S
C2950 H2934 0.931 . S
C2950 C2944 1.383 . S
C2950 C2949 1.379 . S
H2951 C2945 0.959 . S
H2952 C2945 0.961 . S
H2953 C2945 0.960 . S
H2954 C2946 0.930 . S
H2955 C2947 0.929 . S
H2956 C2964 0.929 . S
H2957 C2966 0.930 . S
H2958 C2968 0.930 . S
H2959 C2971 0.929 . S
H2960 C2974 0.930 . S
H2961 C2976 0.960 . S
H2962 C2976 0.960 . S
H2963 C2976 0.960 . S
C2964 H2956 0.929 . S
C2964 C2965 1.377 . S
C2964 C2966 1.384 . S
C2965 C2964 1.377 . S
C2965 C2971 1.390 . S
C2966 H2957 0.930 . S
C2966 C2964 1.384 . S
C2966 C2967 1.372 . S
C2967 C2966 1.372 . S
C2967 C2968 1.400 . S
C2967 C2972 1.490 . S
C2968 H2958 0.930 . S
C2968 C2967 1.400 . S
C2968 C2971 1.386 . S
H2969 C2985 0.930 . S
H2970 C2986 0.931 . S
C2971 H2959 0.929 . S
C2971 C2965 1.390 . S
C2971 C2968 1.386 . S
C2972 C2967 1.490 . S
C2972 C2974 1.395 . S
C2972 C2975 1.403 . S
H2973 C2979 0.930 . S
C2974 H2960 0.930 . S
C2974 C2972 1.395 . S
C2974 C2977 1.403 . S
C2975 C2972 1.403 . S
C2975 C2976 1.524 . S
C2975 C2979 1.400 . S
C2976 H2961 0.960 . S
C2976 H2962 0.960 . S
C2976 H2963 0.960 . S
C2976 C2975 1.524 . S
C2977 C2974 1.403 . S
C2977 C2978 1.392 . S
C2977 C2981 1.495 . S
C2978 C2977 1.392 . S
C2978 C2979 1.385 . S
C2978 C2980 1.478 . S
C2979 H2973 0.930 . S
C2979 C2975 1.400 . S
C2979 C2978 1.385 . S
C2980 C2978 1.478 . S
C2980 C2982 1.381 . S
C2980 C2986 1.383 . S
C2981 C2977 1.495 . S
C2981 H2987 0.959 . S
C2981 H2988 0.961 . S
C2981 H2989 0.960 . S
C2982 C2980 1.381 . S
C2982 C2983 1.394 . S
C2982 H2990 0.930 . S
C2983 C2982 1.394 . S
C2983 C2984 1.383 . S
C2983 H2991 0.929 . S
C2984 C2983 1.383 . S
C2984 C2985 1.377 . S
C2985 H2969 0.930 . S
C2985 C2984 1.377 . S
C2985 C2986 1.379 . S
C2986 H2970 0.931 . S
C2986 C2980 1.383 . S
C2986 C2985 1.379 . S
H2987 C2981 0.959 . S
H2988 C2981 0.961 . S
H2989 C2981 0.960 . S
H2990 C2982 0.930 . S
H2991 C2983 0.929 . S
H2992 C3000 0.929 . S
H2993 C3002 0.930 . S
H2994 C3004 0.930 . S
H2995 C3007 0.929 . S
H2996 C3010 0.930 . S
H2997 C3012 0.960 . S
H2998 C3012 0.960 . S
H2999 C3012 0.960 . S
C3000 H2992 0.929 . S
C3000 C3001 1.377 . S
C3000 C3002 1.384 . S
C3001 C3000 1.377 . S
C3001 C3007 1.390 . S
C3002 H2993 0.930 . S
C3002 C3000 1.384 . S
C3002 C3003 1.372 . S
C3003 C3002 1.372 . S
C3003 C3004 1.400 . S
C3003 C3008 1.490 . S
C3004 H2994 0.930 . S
C3004 C3003 1.400 . S
C3004 C3007 1.386 . S
H3005 C3021 0.930 . S
H3006 C3022 0.931 . S
C3007 H2995 0.929 . S
C3007 C3001 1.390 . S
C3007 C3004 1.386 . S
C3008 C3003 1.490 . S
C3008 C3010 1.395 . S
C3008 C3011 1.403 . S
H3009 C3015 0.930 . S
C3010 H2996 0.930 . S
C3010 C3008 1.395 . S
C3010 C3013 1.403 . S
C3011 C3008 1.403 . S
C3011 C3012 1.524 . S
C3011 C3015 1.400 . S
C3012 H2997 0.960 . S
C3012 H2998 0.960 . S
C3012 H2999 0.960 . S
C3012 C3011 1.524 . S
C3013 C3010 1.403 . S
C3013 C3014 1.392 . S
C3013 C3017 1.495 . S
C3014 C3013 1.392 . S
C3014 C3015 1.385 . S
C3014 C3016 1.478 . S
C3015 H3009 0.930 . S
C3015 C3011 1.400 . S
C3015 C3014 1.385 . S
C3016 C3014 1.478 . S
C3016 C3018 1.381 . S
C3016 C3022 1.383 . S
C3017 C3013 1.495 . S
C3017 H3023 0.959 . S
C3017 H3024 0.961 . S
C3017 H3025 0.960 . S
C3018 C3016 1.381 . S
C3018 C3019 1.394 . S
C3018 H3026 0.930 . S
C3019 C3018 1.394 . S
C3019 C3020 1.383 . S
C3019 H3027 0.929 . S
C3020 C3019 1.383 . S
C3020 C3021 1.377 . S
C3021 H3005 0.930 . S
C3021 C3020 1.377 . S
C3021 C3022 1.379 . S
C3022 H3006 0.931 . S
C3022 C3016 1.383 . S
C3022 C3021 1.379 . S
H3023 C3017 0.959 . S
H3024 C3017 0.961 . S
H3025 C3017 0.960 . S
H3026 C3018 0.930 . S
H3027 C3019 0.929 . S
H3028 C3036 0.929 . S
H3029 C3038 0.930 . S
H3030 C3040 0.930 . S
H3031 C3043 0.929 . S
H3032 C3046 0.930 . S
H3033 C3048 0.960 . S
H3034 C3048 0.960 . S
H3035 C3048 0.960 . S
C3036 H3028 0.929 . S
C3036 C3037 1.377 . S
C3036 C3038 1.384 . S
C3037 C3036 1.377 . S
C3037 C3043 1.390 . S
C3038 H3029 0.930 . S
C3038 C3036 1.384 . S
C3038 C3039 1.372 . S
C3039 C3038 1.372 . S
C3039 C3040 1.400 . S
C3039 C3044 1.490 . S
C3040 H3030 0.930 . S
C3040 C3039 1.400 . S
C3040 C3043 1.386 . S
H3041 C3057 0.930 . S
H3042 C3058 0.931 . S
C3043 H3031 0.929 . S
C3043 C3037 1.390 . S
C3043 C3040 1.386 . S
C3044 C3039 1.490 . S
C3044 C3046 1.395 . S
C3044 C3047 1.403 . S
H3045 C3051 0.930 . S
C3046 H3032 0.930 . S
C3046 C3044 1.395 . S
C3046 C3049 1.403 . S
C3047 C3044 1.403 . S
C3047 C3048 1.524 . S
C3047 C3051 1.400 . S
C3048 H3033 0.960 . S
C3048 H3034 0.960 . S
C3048 H3035 0.960 . S
C3048 C3047 1.524 . S
C3049 C3046 1.403 . S
C3049 C3050 1.392 . S
C3049 C3053 1.495 . S
C3050 C3049 1.392 . S
C3050 C3051 1.385 . S
C3050 C3052 1.478 . S
C3051 H3045 0.930 . S
C3051 C3047 1.400 . S
C3051 C3050 1.385 . S
C3052 C3050 1.478 . S
C3052 C3054 1.381 . S
C3052 C3058 1.383 . S
C3053 C3049 1.495 . S
C3053 H3059 0.959 . S
C3053 H3060 0.961 . S
C3053 H3061 0.960 . S
C3054 C3052 1.381 . S
C3054 C3055 1.394 . S
C3054 H3062 0.930 . S
C3055 C3054 1.394 . S
C3055 C3056 1.383 . S
C3055 H3063 0.929 . S
C3056 C3055 1.383 . S
C3056 C3057 1.377 . S
C3057 H3041 0.930 . S
C3057 C3056 1.377 . S
C3057 C3058 1.379 . S
C3058 H3042 0.931 . S
C3058 C3052 1.383 . S
C3058 C3057 1.379 . S
H3059 C3053 0.959 . S
H3060 C3053 0.961 . S
H3061 C3053 0.960 . S
H3062 C3054 0.930 . S
H3063 C3055 0.929 . S
H3064 C3072 0.929 . S
H3065 C3074 0.930 . S
H3066 C3076 0.930 . S
H3067 C3079 0.929 . S
H3068 C3082 0.930 . S
H3069 C3084 0.960 . S
H3070 C3084 0.960 . S
H3071 C3084 0.960 . S
C3072 H3064 0.929 . S
C3072 C3073 1.377 . S
C3072 C3074 1.384 . S
C3073 C3072 1.377 . S
C3073 C3079 1.390 . S
C3074 H3065 0.930 . S
C3074 C3072 1.384 . S
C3074 C3075 1.372 . S
C3075 C3074 1.372 . S
C3075 C3076 1.400 . S
C3075 C3080 1.490 . S
C3076 H3066 0.930 . S
C3076 C3075 1.400 . S
C3076 C3079 1.386 . S
H3077 C3093 0.930 . S
H3078 C3094 0.931 . S
C3079 H3067 0.929 . S
C3079 C3073 1.390 . S
C3079 C3076 1.386 . S
C3080 C3075 1.490 . S
C3080 C3082 1.395 . S
C3080 C3083 1.403 . S
H3081 C3087 0.930 . S
C3082 H3068 0.930 . S
C3082 C3080 1.395 . S
C3082 C3085 1.403 . S
C3083 C3080 1.403 . S
C3083 C3084 1.524 . S
C3083 C3087 1.400 . S
C3084 H3069 0.960 . S
C3084 H3070 0.960 . S
C3084 H3071 0.960 . S
C3084 C3083 1.524 . S
C3085 C3082 1.403 . S
C3085 C3086 1.392 . S
C3085 C3089 1.495 . S
C3086 C3085 1.392 . S
C3086 C3087 1.385 . S
C3086 C3088 1.478 . S
C3087 H3081 0.930 . S
C3087 C3083 1.400 . S
C3087 C3086 1.385 . S
C3088 C3086 1.478 . S
C3088 C3090 1.381 . S
C3088 C3094 1.383 . S
C3089 C3085 1.495 . S
C3089 H3095 0.959 . S
C3089 H3096 0.961 . S
C3089 H3097 0.960 . S
C3090 C3088 1.381 . S
C3090 C3091 1.394 . S
C3090 H3098 0.930 . S
C3091 C3090 1.394 . S
C3091 C3092 1.383 . S
C3091 H3099 0.929 . S
C3092 C3091 1.383 . S
C3092 C3093 1.377 . S
C3093 H3077 0.930 . S
C3093 C3092 1.377 . S
C3093 C3094 1.379 . S
C3094 H3078 0.931 . S
C3094 C3088 1.383 . S
C3094 C3093 1.379 . S
H3095 C3089 0.959 . S
H3096 C3089 0.961 . S
H3097 C3089 0.960 . S
H3098 C3090 0.930 . S
H3099 C3091 0.929 . S
H3100 C3108 0.929 . S
H3101 C3110 0.930 . S
H3102 C3112 0.930 . S
H3103 C3115 0.929 . S
H3104 C3118 0.930 . S
H3105 C3120 0.960 . S
H3106 C3120 0.960 . S
H3107 C3120 0.960 . S
C3108 H3100 0.929 . S
C3108 C3109 1.377 . S
C3108 C3110 1.384 . S
C3109 C3108 1.377 . S
C3109 C3115 1.390 . S
C3110 H3101 0.930 . S
C3110 C3108 1.384 . S
C3110 C3111 1.372 . S
C3111 C3110 1.372 . S
C3111 C3112 1.400 . S
C3111 C3116 1.490 . S
C3112 H3102 0.930 . S
C3112 C3111 1.400 . S
C3112 C3115 1.386 . S
H3113 C3129 0.930 . S
H3114 C3130 0.931 . S
C3115 H3103 0.929 . S
C3115 C3109 1.390 . S
C3115 C3112 1.386 . S
C3116 C3111 1.490 . S
C3116 C3118 1.395 . S
C3116 C3119 1.403 . S
H3117 C3123 0.930 . S
C3118 H3104 0.930 . S
C3118 C3116 1.395 . S
C3118 C3121 1.403 . S
C3119 C3116 1.403 . S
C3119 C3120 1.524 . S
C3119 C3123 1.400 . S
C3120 H3105 0.960 . S
C3120 H3106 0.960 . S
C3120 H3107 0.960 . S
C3120 C3119 1.524 . S
C3121 C3118 1.403 . S
C3121 C3122 1.392 . S
C3121 C3125 1.495 . S
C3122 C3121 1.392 . S
C3122 C3123 1.385 . S
C3122 C3124 1.478 . S
C3123 H3117 0.930 . S
C3123 C3119 1.400 . S
C3123 C3122 1.385 . S
C3124 C3122 1.478 . S
C3124 C3126 1.381 . S
C3124 C3130 1.383 . S
C3125 C3121 1.495 . S
C3125 H3131 0.959 . S
C3125 H3132 0.961 . S
C3125 H3133 0.960 . S
C3126 C3124 1.381 . S
C3126 C3127 1.394 . S
C3126 H3134 0.930 . S
C3127 C3126 1.394 . S
C3127 C3128 1.383 . S
C3127 H3135 0.929 . S
C3128 C3127 1.383 . S
C3128 C3129 1.377 . S
C3129 H3113 0.930 . S
C3129 C3128 1.377 . S
C3129 C3130 1.379 . S
C3130 H3114 0.931 . S
C3130 C3124 1.383 . S
C3130 C3129 1.379 . S
H3131 C3125 0.959 . S
H3132 C3125 0.961 . S
H3133 C3125 0.960 . S
H3134 C3126 0.930 . S
H3135 C3127 0.929 . S
H3136 C3144 0.929 . S
H3137 C3146 0.930 . S
H3138 C3148 0.930 . S
H3139 C3151 0.929 . S
H3140 C3154 0.930 . S
H3141 C3156 0.960 . S
H3142 C3156 0.960 . S
H3143 C3156 0.960 . S
C3144 H3136 0.929 . S
C3144 C3145 1.377 . S
C3144 C3146 1.384 . S
C3145 C3144 1.377 . S
C3145 C3151 1.390 . S
C3146 H3137 0.930 . S
C3146 C3144 1.384 . S
C3146 C3147 1.372 . S
C3147 C3146 1.372 . S
C3147 C3148 1.400 . S
C3147 C3152 1.490 . S
C3148 H3138 0.930 . S
C3148 C3147 1.400 . S
C3148 C3151 1.386 . S
H3149 C3165 0.930 . S
H3150 C3166 0.931 . S
C3151 H3139 0.929 . S
C3151 C3145 1.390 . S
C3151 C3148 1.386 . S
C3152 C3147 1.490 . S
C3152 C3154 1.395 . S
C3152 C3155 1.403 . S
H3153 C3159 0.930 . S
C3154 H3140 0.930 . S
C3154 C3152 1.395 . S
C3154 C3157 1.403 . S
C3155 C3152 1.403 . S
C3155 C3156 1.524 . S
C3155 C3159 1.400 . S
C3156 H3141 0.960 . S
C3156 H3142 0.960 . S
C3156 H3143 0.960 . S
C3156 C3155 1.524 . S
C3157 C3154 1.403 . S
C3157 C3158 1.392 . S
C3157 C3161 1.495 . S
C3158 C3157 1.392 . S
C3158 C3159 1.385 . S
C3158 C3160 1.478 . S
C3159 H3153 0.930 . S
C3159 C3155 1.400 . S
C3159 C3158 1.385 . S
C3160 C3158 1.478 . S
C3160 C3162 1.381 . S
C3160 C3166 1.383 . S
C3161 C3157 1.495 . S
C3161 H3167 0.959 . S
C3161 H3168 0.961 . S
C3161 H3169 0.960 . S
C3162 C3160 1.381 . S
C3162 C3163 1.394 . S
C3162 H3170 0.930 . S
C3163 C3162 1.394 . S
C3163 C3164 1.383 . S
C3163 H3171 0.929 . S
C3164 C3163 1.383 . S
C3164 C3165 1.377 . S
C3165 H3149 0.930 . S
C3165 C3164 1.377 . S
C3165 C3166 1.379 . S
C3166 H3150 0.931 . S
C3166 C3160 1.383 . S
C3166 C3165 1.379 . S
H3167 C3161 0.959 . S
H3168 C3161 0.961 . S
H3169 C3161 0.960 . S
H3170 C3162 0.930 . S
H3171 C3163 0.929 . S
H3172 C3180 0.929 . S
H3173 C3182 0.930 . S
H3174 C3184 0.930 . S
H3175 C3187 0.929 . S
H3176 C3190 0.930 . S
H3177 C3192 0.960 . S
H3178 C3192 0.960 . S
H3179 C3192 0.960 . S
C3180 H3172 0.929 . S
C3180 C3181 1.377 . S
C3180 C3182 1.384 . S
C3181 C3180 1.377 . S
C3181 C3187 1.390 . S
C3182 H3173 0.930 . S
C3182 C3180 1.384 . S
C3182 C3183 1.372 . S
C3183 C3182 1.372 . S
C3183 C3184 1.400 . S
C3183 C3188 1.490 . S
C3184 H3174 0.930 . S
C3184 C3183 1.400 . S
C3184 C3187 1.386 . S
H3185 C3201 0.930 . S
H3186 C3202 0.931 . S
C3187 H3175 0.929 . S
C3187 C3181 1.390 . S
C3187 C3184 1.386 . S
C3188 C3183 1.490 . S
C3188 C3190 1.395 . S
C3188 C3191 1.403 . S
H3189 C3195 0.930 . S
C3190 H3176 0.930 . S
C3190 C3188 1.395 . S
C3190 C3193 1.403 . S
C3191 C3188 1.403 . S
C3191 C3192 1.524 . S
C3191 C3195 1.400 . S
C3192 H3177 0.960 . S
C3192 H3178 0.960 . S
C3192 H3179 0.960 . S
C3192 C3191 1.524 . S
C3193 C3190 1.403 . S
C3193 C3194 1.392 . S
C3193 C3197 1.495 . S
C3194 C3193 1.392 . S
C3194 C3195 1.385 . S
C3194 C3196 1.478 . S
C3195 H3189 0.930 . S
C3195 C3191 1.400 . S
C3195 C3194 1.385 . S
C3196 C3194 1.478 . S
C3196 C3198 1.381 . S
C3196 C3202 1.383 . S
C3197 C3193 1.495 . S
C3197 H3203 0.959 . S
C3197 H3204 0.961 . S
C3197 H3205 0.960 . S
C3198 C3196 1.381 . S
C3198 C3199 1.394 . S
C3198 H3206 0.930 . S
C3199 C3198 1.394 . S
C3199 C3200 1.383 . S
C3199 H3207 0.929 . S
C3200 C3199 1.383 . S
C3200 C3201 1.377 . S
C3201 H3185 0.930 . S
C3201 C3200 1.377 . S
C3201 C3202 1.379 . S
C3202 H3186 0.931 . S
C3202 C3196 1.383 . S
C3202 C3201 1.379 . S
H3203 C3197 0.959 . S
H3204 C3197 0.961 . S
H3205 C3197 0.960 . S
H3206 C3198 0.930 . S
H3207 C3199 0.929 . S
H3208 C3216 0.929 . S
H3209 C3218 0.930 . S
H3210 C3220 0.930 . S
H3211 C3223 0.929 . S
H3212 C3226 0.930 . S
H3213 C3228 0.960 . S
H3214 C3228 0.960 . S
H3215 C3228 0.960 . S
C3216 H3208 0.929 . S
C3216 C3217 1.377 . S
C3216 C3218 1.384 . S
C3217 C3216 1.377 . S
C3217 C3223 1.390 . S
C3218 H3209 0.930 . S
C3218 C3216 1.384 . S
C3218 C3219 1.372 . S
C3219 C3218 1.372 . S
C3219 C3220 1.400 . S
C3219 C3224 1.490 . S
C3220 H3210 0.930 . S
C3220 C3219 1.400 . S
C3220 C3223 1.386 . S
H3221 C3237 0.930 . S
H3222 C3238 0.931 . S
C3223 H3211 0.929 . S
C3223 C3217 1.390 . S
C3223 C3220 1.386 . S
C3224 C3219 1.490 . S
C3224 C3226 1.395 . S
C3224 C3227 1.403 . S
H3225 C3231 0.930 . S
C3226 H3212 0.930 . S
C3226 C3224 1.395 . S
C3226 C3229 1.403 . S
C3227 C3224 1.403 . S
C3227 C3228 1.524 . S
C3227 C3231 1.400 . S
C3228 H3213 0.960 . S
C3228 H3214 0.960 . S
C3228 H3215 0.960 . S
C3228 C3227 1.524 . S
C3229 C3226 1.403 . S
C3229 C3230 1.392 . S
C3229 C3233 1.495 . S
C3230 C3229 1.392 . S
C3230 C3231 1.385 . S
C3230 C3232 1.478 . S
C3231 H3225 0.930 . S
C3231 C3227 1.400 . S
C3231 C3230 1.385 . S
C3232 C3230 1.478 . S
C3232 C3234 1.381 . S
C3232 C3238 1.383 . S
C3233 C3229 1.495 . S
C3233 H3239 0.959 . S
C3233 H3240 0.961 . S
C3233 H3241 0.960 . S
C3234 C3232 1.381 . S
C3234 C3235 1.394 . S
C3234 H3242 0.930 . S
C3235 C3234 1.394 . S
C3235 C3236 1.383 . S
C3235 H3243 0.929 . S
C3236 C3235 1.383 . S
C3236 C3237 1.377 . S
C3237 H3221 0.930 . S
C3237 C3236 1.377 . S
C3237 C3238 1.379 . S
C3238 H3222 0.931 . S
C3238 C3232 1.383 . S
C3238 C3237 1.379 . S
H3239 C3233 0.959 . S
H3240 C3233 0.961 . S
H3241 C3233 0.960 . S
H3242 C3234 0.930 . S
H3243 C3235 0.929 . S
H3244 C3252 0.929 . S
H3245 C3254 0.930 . S
H3246 C3256 0.930 . S
H3247 C3259 0.929 . S
H3248 C3262 0.930 . S
H3249 C3264 0.960 . S
H3250 C3264 0.960 . S
H3251 C3264 0.960 . S
C3252 H3244 0.929 . S
C3252 C3253 1.377 . S
C3252 C3254 1.384 . S
C3253 C3252 1.377 . S
C3253 C3259 1.390 . S
C3254 H3245 0.930 . S
C3254 C3252 1.384 . S
C3254 C3255 1.372 . S
C3255 C3254 1.372 . S
C3255 C3256 1.400 . S
C3255 C3260 1.490 . S
C3256 H3246 0.930 . S
C3256 C3255 1.400 . S
C3256 C3259 1.386 . S
H3257 C3273 0.930 . S
H3258 C3274 0.931 . S
C3259 H3247 0.929 . S
C3259 C3253 1.390 . S
C3259 C3256 1.386 . S
C3260 C3255 1.490 . S
C3260 C3262 1.395 . S
C3260 C3263 1.403 . S
H3261 C3267 0.930 . S
C3262 H3248 0.930 . S
C3262 C3260 1.395 . S
C3262 C3265 1.403 . S
C3263 C3260 1.403 . S
C3263 C3264 1.524 . S
C3263 C3267 1.400 . S
C3264 H3249 0.960 . S
C3264 H3250 0.960 . S
C3264 H3251 0.960 . S
C3264 C3263 1.524 . S
C3265 C3262 1.403 . S
C3265 C3266 1.392 . S
C3265 C3269 1.495 . S
C3266 C3265 1.392 . S
C3266 C3267 1.385 . S
C3266 C3268 1.478 . S
C3267 H3261 0.930 . S
C3267 C3263 1.400 . S
C3267 C3266 1.385 . S
C3268 C3266 1.478 . S
C3268 C3270 1.381 . S
C3268 C3274 1.383 . S
C3269 C3265 1.495 . S
C3269 H3275 0.959 . S
C3269 H3276 0.961 . S
C3269 H3277 0.960 . S
C3270 C3268 1.381 . S
C3270 C3271 1.394 . S
C3270 H3278 0.930 . S
C3271 C3270 1.394 . S
C3271 C3272 1.383 . S
C3271 H3279 0.929 . S
C3272 C3271 1.383 . S
C3272 C3273 1.377 . S
C3273 H3257 0.930 . S
C3273 C3272 1.377 . S
C3273 C3274 1.379 . S
C3274 H3258 0.931 . S
C3274 C3268 1.383 . S
C3274 C3273 1.379 . S
H3275 C3269 0.959 . S
H3276 C3269 0.961 . S
H3277 C3269 0.960 . S
H3278 C3270 0.930 . S
H3279 C3271 0.929 . S
H3280 C3288 0.929 . S
H3281 C3290 0.930 . S
H3282 C3292 0.930 . S
H3283 C3295 0.929 . S
H3284 C3298 0.930 . S
H3285 C3300 0.960 . S
H3286 C3300 0.960 . S
H3287 C3300 0.960 . S
C3288 H3280 0.929 . S
C3288 C3289 1.377 . S
C3288 C3290 1.384 . S
C3289 C3288 1.377 . S
C3289 C3295 1.390 . S
C3290 H3281 0.930 . S
C3290 C3288 1.384 . S
C3290 C3291 1.372 . S
C3291 C3290 1.372 . S
C3291 C3292 1.400 . S
C3291 C3296 1.490 . S
C3292 H3282 0.930 . S
C3292 C3291 1.400 . S
C3292 C3295 1.386 . S
H3293 C3309 0.930 . S
H3294 C3310 0.931 . S
C3295 H3283 0.929 . S
C3295 C3289 1.390 . S
C3295 C3292 1.386 . S
C3296 C3291 1.490 . S
C3296 C3298 1.395 . S
C3296 C3299 1.403 . S
H3297 C3303 0.930 . S
C3298 H3284 0.930 . S
C3298 C3296 1.395 . S
C3298 C3301 1.403 . S
C3299 C3296 1.403 . S
C3299 C3300 1.524 . S
C3299 C3303 1.400 . S
C3300 H3285 0.960 . S
C3300 H3286 0.960 . S
C3300 H3287 0.960 . S
C3300 C3299 1.524 . S
C3301 C3298 1.403 . S
C3301 C3302 1.392 . S
C3301 C3305 1.495 . S
C3302 C3301 1.392 . S
C3302 C3303 1.385 . S
C3302 C3304 1.478 . S
C3303 H3297 0.930 . S
C3303 C3299 1.400 . S
C3303 C3302 1.385 . S
C3304 C3302 1.478 . S
C3304 C3306 1.381 . S
C3304 C3310 1.383 . S
C3305 C3301 1.495 . S
C3305 H3311 0.959 . S
C3305 H3312 0.961 . S
C3305 H3313 0.960 . S
C3306 C3304 1.381 . S
C3306 C3307 1.394 . S
C3306 H3314 0.930 . S
C3307 C3306 1.394 . S
C3307 C3308 1.383 . S
C3307 H3315 0.929 . S
C3308 C3307 1.383 . S
C3308 C3309 1.377 . S
C3309 H3293 0.930 . S
C3309 C3308 1.377 . S
C3309 C3310 1.379 . S
C3310 H3294 0.931 . S
C3310 C3304 1.383 . S
C3310 C3309 1.379 . S
H3311 C3305 0.959 . S
H3312 C3305 0.961 . S
H3313 C3305 0.960 . S
H3314 C3306 0.930 . S
H3315 C3307 0.929 . S
H3316 C3324 0.929 . S
H3317 C3326 0.930 . S
H3318 C3328 0.930 . S
H3319 C3331 0.929 . S
H3320 C3334 0.930 . S
H3321 C3336 0.960 . S
H3322 C3336 0.960 . S
H3323 C3336 0.960 . S
C3324 H3316 0.929 . S
C3324 C3325 1.377 . S
C3324 C3326 1.384 . S
C3325 C3324 1.377 . S
C3325 C3331 1.390 . S
C3326 H3317 0.930 . S
C3326 C3324 1.384 . S
C3326 C3327 1.372 . S
C3327 C3326 1.372 . S
C3327 C3328 1.400 . S
C3327 C3332 1.490 . S
C3328 H3318 0.930 . S
C3328 C3327 1.400 . S
C3328 C3331 1.386 . S
H3329 C3345 0.930 . S
H3330 C3346 0.931 . S
C3331 H3319 0.929 . S
C3331 C3325 1.390 . S
C3331 C3328 1.386 . S
C3332 C3327 1.490 . S
C3332 C3334 1.395 . S
C3332 C3335 1.403 . S
H3333 C3339 0.930 . S
C3334 H3320 0.930 . S
C3334 C3332 1.395 . S
C3334 C3337 1.403 . S
C3335 C3332 1.403 . S
C3335 C3336 1.524 . S
C3335 C3339 1.400 . S
C3336 H3321 0.960 . S
C3336 H3322 0.960 . S
C3336 H3323 0.960 . S
C3336 C3335 1.524 . S
C3337 C3334 1.403 . S
C3337 C3338 1.392 . S
C3337 C3341 1.495 . S
C3338 C3337 1.392 . S
C3338 C3339 1.385 . S
C3338 C3340 1.478 . S
C3339 H3333 0.930 . S
C3339 C3335 1.400 . S
C3339 C3338 1.385 . S
C3340 C3338 1.478 . S
C3340 C3342 1.381 . S
C3340 C3346 1.383 . S
C3341 C3337 1.495 . S
C3341 H3347 0.959 . S
C3341 H3348 0.961 . S
C3341 H3349 0.960 . S
C3342 C3340 1.381 . S
C3342 C3343 1.394 . S
C3342 H3350 0.930 . S
C3343 C3342 1.394 . S
C3343 C3344 1.383 . S
C3343 H3351 0.929 . S
C3344 C3343 1.383 . S
C3344 C3345 1.377 . S
C3345 H3329 0.930 . S
C3345 C3344 1.377 . S
C3345 C3346 1.379 . S
C3346 H3330 0.931 . S
C3346 C3340 1.383 . S
C3346 C3345 1.379 . S
H3347 C3341 0.959 . S
H3348 C3341 0.961 . S
H3349 C3341 0.960 . S
H3350 C3342 0.930 . S
H3351 C3343 0.929 . S
H3352 C3360 0.929 . S
H3353 C3362 0.930 . S
H3354 C3364 0.930 . S
H3355 C3367 0.929 . S
H3356 C3370 0.930 . S
H3357 C3372 0.960 . S
H3358 C3372 0.960 . S
H3359 C3372 0.960 . S
C3360 H3352 0.929 . S
C3360 C3361 1.377 . S
C3360 C3362 1.384 . S
C3361 C3360 1.377 . S
C3361 C3367 1.390 . S
C3362 H3353 0.930 . S
C3362 C3360 1.384 . S
C3362 C3363 1.372 . S
C3363 C3362 1.372 . S
C3363 C3364 1.400 . S
C3363 C3368 1.490 . S
C3364 H3354 0.930 . S
C3364 C3363 1.400 . S
C3364 C3367 1.386 . S
H3365 C3381 0.930 . S
H3366 C3382 0.931 . S
C3367 H3355 0.929 . S
C3367 C3361 1.390 . S
C3367 C3364 1.386 . S
C3368 C3363 1.490 . S
C3368 C3370 1.395 . S
C3368 C3371 1.403 . S
H3369 C3375 0.930 . S
C3370 H3356 0.930 . S
C3370 C3368 1.395 . S
C3370 C3373 1.403 . S
C3371 C3368 1.403 . S
C3371 C3372 1.524 . S
C3371 C3375 1.400 . S
C3372 H3357 0.960 . S
C3372 H3358 0.960 . S
C3372 H3359 0.960 . S
C3372 C3371 1.524 . S
C3373 C3370 1.403 . S
C3373 C3374 1.392 . S
C3373 C3377 1.495 . S
C3374 C3373 1.392 . S
C3374 C3375 1.385 . S
C3374 C3376 1.478 . S
C3375 H3369 0.930 . S
C3375 C3371 1.400 . S
C3375 C3374 1.385 . S
C3376 C3374 1.478 . S
C3376 C3378 1.381 . S
C3376 C3382 1.383 . S
C3377 C3373 1.495 . S
C3377 H3383 0.959 . S
C3377 H3384 0.961 . S
C3377 H3385 0.960 . S
C3378 C3376 1.381 . S
C3378 C3379 1.394 . S
C3378 H3386 0.930 . S
C3379 C3378 1.394 . S
C3379 C3380 1.383 . S
C3379 H3387 0.929 . S
C3380 C3379 1.383 . S
C3380 C3381 1.377 . S
C3381 H3365 0.930 . S
C3381 C3380 1.377 . S
C3381 C3382 1.379 . S
C3382 H3366 0.931 . S
C3382 C3376 1.383 . S
C3382 C3381 1.379 . S
H3383 C3377 0.959 . S
H3384 C3377 0.961 . S
H3385 C3377 0.960 . S
H3386 C3378 0.930 . S
H3387 C3379 0.929 . S
H3388 C3396 0.929 . S
H3389 C3398 0.930 . S
H3390 C3400 0.930 . S
H3391 C3403 0.929 . S
H3392 C3406 0.930 . S
H3393 C3408 0.960 . S
H3394 C3408 0.960 . S
H3395 C3408 0.960 . S
C3396 H3388 0.929 . S
C3396 C3397 1.377 . S
C3396 C3398 1.384 . S
C3397 C3396 1.377 . S
C3397 C3403 1.390 . S
C3398 H3389 0.930 . S
C3398 C3396 1.384 . S
C3398 C3399 1.372 . S
C3399 C3398 1.372 . S
C3399 C3400 1.400 . S
C3399 C3404 1.490 . S
C3400 H3390 0.930 . S
C3400 C3399 1.400 . S
C3400 C3403 1.386 . S
H3401 C3417 0.930 . S
H3402 C3418 0.931 . S
C3403 H3391 0.929 . S
C3403 C3397 1.390 . S
C3403 C3400 1.386 . S
C3404 C3399 1.490 . S
C3404 C3406 1.395 . S
C3404 C3407 1.403 . S
H3405 C3411 0.930 . S
C3406 H3392 0.930 . S
C3406 C3404 1.395 . S
C3406 C3409 1.403 . S
C3407 C3404 1.403 . S
C3407 C3408 1.524 . S
C3407 C3411 1.400 . S
C3408 H3393 0.960 . S
C3408 H3394 0.960 . S
C3408 H3395 0.960 . S
C3408 C3407 1.524 . S
C3409 C3406 1.403 . S
C3409 C3410 1.392 . S
C3409 C3413 1.495 . S
C3410 C3409 1.392 . S
C3410 C3411 1.385 . S
C3410 C3412 1.478 . S
C3411 H3405 0.930 . S
C3411 C3407 1.400 . S
C3411 C3410 1.385 . S
C3412 C3410 1.478 . S
C3412 C3414 1.381 . S
C3412 C3418 1.383 . S
C3413 C3409 1.495 . S
C3413 H3419 0.959 1_554 S
C3413 H3420 0.961 1_554 S
C3413 H3421 0.966 . S
C3414 C3412 1.381 . S
C3414 C3415 1.394 . S
C3414 H3422 0.930 . S
C3415 C3414 1.394 . S
C3415 C3416 1.402 . S
C3415 H3423 0.929 . S
C3416 C3415 1.402 . S
C3416 C3417 1.368 1_565 S
C3417 H3401 0.930 . S
C3417 C3416 1.368 1_545 S
C3417 C3418 1.379 1_545 S
C3418 H3402 0.931 . S
C3418 C3412 1.383 . S
C3418 C3417 1.379 1_565 S
H3419 C3413 0.959 1_556 S
H3420 C3413 0.961 1_556 S
H3421 C3413 0.966 . S
H3422 C3414 0.930 . S
H3423 C3415 0.929 . S
H3424 C3432 0.929 . S
H3425 C3434 0.930 . S
H3426 C3436 0.930 . S
H3427 C3439 0.929 . S
H3428 C3442 0.930 . S
H3429 C3444 0.960 . S
H3430 C3444 0.960 . S
H3431 C3444 0.960 . S
C3432 H3424 0.929 . S
C3432 C3433 1.377 . S
C3432 C3434 1.384 . S
C3433 C3432 1.377 . S
C3433 C3439 1.390 . S
C3434 H3425 0.930 . S
C3434 C3432 1.384 . S
C3434 C3435 1.372 . S
C3435 C3434 1.372 . S
C3435 C3436 1.400 . S
C3435 C3440 1.490 . S
C3436 H3426 0.930 . S
C3436 C3435 1.400 . S
C3436 C3439 1.386 . S
H3437 C3453 0.930 . S
H3438 C3454 0.931 . S
C3439 H3427 0.929 . S
C3439 C3433 1.390 . S
C3439 C3436 1.386 . S
C3440 C3435 1.490 . S
C3440 C3442 1.395 . S
C3440 C3443 1.403 . S
H3441 C3447 0.930 . S
C3442 H3428 0.930 . S
C3442 C3440 1.395 . S
C3442 C3445 1.403 . S
C3443 C3440 1.403 . S
C3443 C3444 1.524 . S
C3443 C3447 1.400 . S
C3444 H3429 0.960 . S
C3444 H3430 0.960 . S
C3444 H3431 0.960 . S
C3444 C3443 1.524 . S
C3445 C3442 1.403 . S
C3445 C3446 1.392 . S
C3445 C3449 1.495 . S
C3446 C3445 1.392 . S
C3446 C3447 1.385 . S
C3446 C3448 1.478 . S
C3447 H3441 0.930 . S
C3447 C3443 1.400 . S
C3447 C3446 1.385 . S
C3448 C3446 1.478 . S
C3448 C3450 1.381 . S
C3448 C3454 1.383 . S
C3449 C3445 1.495 . S
C3449 H3455 0.959 . S
C3449 H3456 0.961 . S
C3449 H3457 0.960 . S
C3450 C3448 1.381 . S
C3450 C3451 1.394 . S
C3450 H3458 0.930 . S
C3451 C3450 1.394 . S
C3451 C3452 1.383 . S
C3451 H3459 0.929 . S
C3452 C3451 1.383 . S
C3452 C3453 1.377 . S
C3453 H3437 0.930 . S
C3453 C3452 1.377 . S
C3453 C3454 1.379 . S
C3454 H3438 0.931 . S
C3454 C3448 1.383 . S
C3454 C3453 1.379 . S
H3455 C3449 0.959 . S
H3456 C3449 0.961 . S
H3457 C3449 0.960 . S
H3458 C3450 0.930 . S
H3459 C3451 0.929 . S
H3460 C3468 0.929 1_556 S
H3461 C3470 0.879 1_556 S
H3462 C3472 0.930 . S
H3463 C3475 0.929 . S
H3464 C3478 0.930 . S
H3465 C3480 0.960 . S
H3466 C3480 0.960 . S
H3467 C3480 0.960 . S
C3468 H3460 0.929 1_554 S
C3468 C3469 1.377 . S
C3468 C3470 1.384 . S
C3469 C3468 1.377 . S
C3469 C3475 1.390 . S
C3470 H3461 0.879 1_554 S
C3470 C3468 1.384 . S
C3470 C3471 1.372 . S
C3471 C3470 1.372 . S
C3471 C3472 1.400 . S
C3471 C3476 1.490 . S
C3472 H3462 0.930 . S
C3472 C3471 1.400 . S
C3472 C3475 1.386 . S
H3473 C3489 0.930 . S
H3474 C3490 0.931 . S
C3475 H3463 0.929 . S
C3475 C3469 1.390 . S
C3475 C3472 1.386 . S
C3476 C3471 1.490 . S
C3476 C3478 1.395 . S
C3476 C3479 1.403 . S
H3477 C3483 0.930 . S
C3478 H3464 0.930 . S
C3478 C3476 1.395 . S
C3478 C3481 1.403 . S
C3479 C3476 1.403 . S
C3479 C3480 1.524 . S
C3479 C3483 1.400 . S
C3480 H3465 0.960 . S
C3480 H3466 0.960 . S
C3480 H3467 0.960 . S
C3480 C3479 1.524 . S
C3481 C3478 1.403 . S
C3481 C3482 1.392 . S
C3481 C3485 1.495 . S
C3482 C3481 1.392 . S
C3482 C3483 1.385 . S
C3482 C3484 1.478 . S
C3483 H3477 0.930 . S
C3483 C3479 1.400 . S
C3483 C3482 1.385 . S
C3484 C3482 1.478 . S
C3484 C3486 1.381 . S
C3484 C3490 1.383 . S
C3485 C3481 1.495 . S
C3485 H3491 0.959 . S
C3485 H3492 0.961 . S
C3485 H3493 0.954 . S
C3486 C3484 1.381 . S
C3486 C3487 1.394 . S
C3486 H3494 0.930 . S
C3487 C3486 1.394 . S
C3487 C3488 1.383 . S
C3487 H3495 0.929 . S
C3488 C3487 1.383 . S
C3488 C3489 1.377 . S
C3489 H3473 0.930 . S
C3489 C3488 1.377 . S
C3489 C3490 1.379 . S
C3490 H3474 0.931 . S
C3490 C3484 1.383 . S
C3490 C3489 1.379 . S
H3491 C3485 0.959 . S
H3492 C3485 0.961 . S
H3493 C3485 0.954 . S
H3494 C3486 0.930 . S
H3495 C3487 0.929 . S
H3496 C3504 0.929 . S
H3497 C3506 0.930 . S
H3498 C3508 0.930 . S
H3499 C3511 0.929 . S
H3500 C3514 0.930 . S
H3501 C3516 0.960 . S
H3502 C3516 0.960 . S
H3503 C3516 0.960 . S
C3504 H3496 0.929 . S
C3504 C3505 1.377 . S
C3504 C3506 1.384 . S
C3505 C3504 1.377 . S
C3505 C3511 1.390 . S
C3506 H3497 0.930 . S
C3506 C3504 1.384 . S
C3506 C3507 1.372 . S
C3507 C3506 1.372 . S
C3507 C3508 1.400 . S
C3507 C3512 1.490 . S
C3508 H3498 0.930 . S
C3508 C3507 1.400 . S
C3508 C3511 1.386 . S
H3509 C3525 0.930 . S
H3510 C3526 0.931 . S
C3511 H3499 0.929 . S
C3511 C3505 1.390 . S
C3511 C3508 1.386 . S
C3512 C3507 1.490 . S
C3512 C3514 1.395 . S
C3512 C3515 1.403 . S
H3513 C3519 0.930 . S
C3514 H3500 0.930 . S
C3514 C3512 1.395 . S
C3514 C3517 1.403 . S
C3515 C3512 1.403 . S
C3515 C3516 1.524 . S
C3515 C3519 1.400 . S
C3516 H3501 0.960 . S
C3516 H3502 0.960 . S
C3516 H3503 0.960 . S
C3516 C3515 1.524 . S
C3517 C3514 1.403 . S
C3517 C3518 1.392 . S
C3517 C3521 1.495 . S
C3518 C3517 1.392 . S
C3518 C3519 1.385 . S
C3518 C3520 1.478 . S
C3519 H3513 0.930 . S
C3519 C3515 1.400 . S
C3519 C3518 1.385 . S
C3520 C3518 1.478 . S
C3520 C3522 1.381 . S
C3520 C3526 1.383 . S
C3521 C3517 1.495 . S
C3521 H3527 0.959 . S
C3521 H3528 0.961 . S
C3521 H3529 0.960 . S
C3522 C3520 1.381 . S
C3522 C3523 1.394 . S
C3522 H3530 0.930 . S
C3523 C3522 1.394 . S
C3523 C3524 1.383 . S
C3523 H3531 0.929 . S
C3524 C3523 1.383 . S
C3524 C3525 1.377 . S
C3525 H3509 0.930 . S
C3525 C3524 1.377 . S
C3525 C3526 1.379 . S
C3526 H3510 0.931 . S
C3526 C3520 1.383 . S
C3526 C3525 1.379 . S
H3527 C3521 0.959 . S
H3528 C3521 0.961 . S
H3529 C3521 0.960 . S
H3530 C3522 0.930 . S
H3531 C3523 0.929 . S
H3532 C3540 0.929 . S
H3533 C3542 0.930 . S
H3534 C3544 0.930 . S
H3535 C3547 0.929 . S
H3536 C3550 0.930 . S
H3537 C3552 0.960 . S
H3538 C3552 0.960 . S
H3539 C3552 0.960 . S
C3540 H3532 0.929 . S
C3540 C3541 1.377 . S
C3540 C3542 1.384 1_545 S
C3541 C3540 1.377 . S
C3541 C3547 1.390 1_545 S
C3542 H3533 0.930 . S
C3542 C3540 1.384 1_565 S
C3542 C3543 1.372 . S
C3543 C3542 1.372 . S
C3543 C3544 1.400 . S
C3543 C3548 1.490 . S
C3544 H3534 0.930 . S
C3544 C3543 1.400 . S
C3544 C3547 1.386 . S
H3545 C3561 0.930 . S
H3546 C3562 0.931 . S
C3547 H3535 0.929 . S
C3547 C3541 1.390 1_565 S
C3547 C3544 1.386 . S
C3548 C3543 1.490 . S
C3548 C3550 1.395 . S
C3548 C3551 1.403 . S
H3549 C3555 0.930 . S
C3550 H3536 0.930 . S
C3550 C3548 1.395 . S
C3550 C3553 1.403 . S
C3551 C3548 1.403 . S
C3551 C3552 1.524 . S
C3551 C3555 1.400 . S
C3552 H3537 0.960 . S
C3552 H3538 0.960 . S
C3552 H3539 0.960 . S
C3552 C3551 1.524 . S
C3553 C3550 1.403 . S
C3553 C3554 1.392 . S
C3553 C3557 1.495 . S
C3554 C3553 1.392 . S
C3554 C3555 1.385 . S
C3554 C3556 1.478 . S
C3555 H3549 0.930 . S
C3555 C3551 1.400 . S
C3555 C3554 1.385 . S
C3556 C3554 1.478 . S
C3556 C3558 1.381 . S
C3556 C3562 1.383 . S
C3557 C3553 1.495 . S
C3557 H3563 0.959 . S
C3557 H3564 0.961 . S
C3557 H3565 0.960 . S
C3558 C3556 1.381 . S
C3558 C3559 1.394 . S
C3558 H3566 0.930 . S
C3559 C3558 1.394 . S
C3559 C3560 1.383 . S
C3559 H3567 0.929 . S
C3560 C3559 1.383 . S
C3560 C3561 1.377 . S
C3561 H3545 0.930 . S
C3561 C3560 1.377 . S
C3561 C3562 1.379 . S
C3562 H3546 0.931 . S
C3562 C3556 1.383 . S
C3562 C3561 1.379 . S
H3563 C3557 0.959 . S
H3564 C3557 0.961 . S
H3565 C3557 0.960 . S
H3566 C3558 0.930 . S
H3567 C3559 0.929 . S
H3568 C3576 0.929 . S
H3569 C3578 0.930 . S
H3570 C3580 0.930 . S
H3571 C3583 0.929 . S
H3572 C3586 0.930 . S
H3573 C3588 0.960 . S
H3574 C3588 0.960 . S
H3575 C3588 0.960 . S
C3576 H3568 0.929 . S
C3576 C3577 1.377 . S
C3576 C3578 1.384 . S
C3577 C3576 1.377 . S
C3577 C3583 1.390 . S
C3578 H3569 0.930 . S
C3578 C3576 1.384 . S
C3578 C3579 1.372 . S
C3579 C3578 1.372 . S
C3579 C3580 1.400 . S
C3579 C3584 1.490 . S
C3580 H3570 0.930 . S
C3580 C3579 1.400 . S
C3580 C3583 1.386 . S
H3581 C3597 0.930 . S
H3582 C3598 0.931 . S
C3583 H3571 0.929 . S
C3583 C3577 1.390 . S
C3583 C3580 1.386 . S
C3584 C3579 1.490 . S
C3584 C3586 1.395 . S
C3584 C3587 1.403 . S
H3585 C3591 0.930 . S
C3586 H3572 0.930 . S
C3586 C3584 1.395 . S
C3586 C3589 1.403 . S
C3587 C3584 1.403 . S
C3587 C3588 1.524 . S
C3587 C3591 1.400 . S
C3588 H3573 0.960 . S
C3588 H3574 0.960 . S
C3588 H3575 0.960 . S
C3588 C3587 1.524 . S
C3589 C3586 1.403 . S
C3589 C3590 1.392 . S
C3589 C3593 1.495 . S
C3590 C3589 1.392 . S
C3590 C3591 1.385 . S
C3590 C3592 1.478 . S
C3591 H3585 0.930 . S
C3591 C3587 1.400 . S
C3591 C3590 1.385 . S
C3592 C3590 1.478 . S
C3592 C3594 1.381 . S
C3592 C3598 1.383 . S
C3593 C3589 1.495 . S
C3593 H3599 0.959 . S
C3593 H3600 0.961 . S
C3593 H3601 0.960 . S
C3594 C3592 1.381 . S
C3594 C3595 1.394 . S
C3594 H3602 0.930 . S
C3595 C3594 1.394 . S
C3595 C3596 1.383 . S
C3595 H3603 0.929 . S
C3596 C3595 1.383 . S
C3596 C3597 1.377 . S
C3597 H3581 0.930 . S
C3597 C3596 1.377 . S
C3597 C3598 1.379 . S
C3598 H3582 0.931 . S
C3598 C3592 1.383 . S
C3598 C3597 1.379 . S
H3599 C3593 0.959 . S
H3600 C3593 0.961 . S
H3601 C3593 0.960 . S
H3602 C3594 0.930 . S
H3603 C3595 0.929 . S
H3604 C3612 0.929 . S
H3605 C3614 0.930 . S
H3606 C3616 0.930 . S
H3607 C3619 0.929 . S
H3608 C3622 0.930 . S
H3609 C3624 0.960 . S
H3610 C3624 0.960 . S
H3611 C3624 0.960 . S
C3612 H3604 0.929 . S
C3612 C3613 1.377 . S
C3612 C3614 1.384 . S
C3613 C3612 1.377 . S
C3613 C3619 1.390 . S
C3614 H3605 0.930 . S
C3614 C3612 1.384 . S
C3614 C3615 1.372 . S
C3615 C3614 1.372 . S
C3615 C3616 1.400 . S
C3615 C3620 1.490 . S
C3616 H3606 0.930 . S
C3616 C3615 1.400 . S
C3616 C3619 1.386 . S
H3617 C3633 0.930 . S
H3618 C3634 0.931 . S
C3619 H3607 0.929 . S
C3619 C3613 1.390 . S
C3619 C3616 1.386 . S
C3620 C3615 1.490 . S
C3620 C3622 1.395 . S
C3620 C3623 1.403 . S
H3621 C3627 0.930 . S
C3622 H3608 0.930 . S
C3622 C3620 1.395 . S
C3622 C3625 1.403 . S
C3623 C3620 1.403 . S
C3623 C3624 1.524 . S
C3623 C3627 1.400 . S
C3624 H3609 0.960 . S
C3624 H3610 0.960 . S
C3624 H3611 0.960 . S
C3624 C3623 1.524 . S
C3625 C3622 1.403 . S
C3625 C3626 1.392 . S
C3625 C3629 1.495 . S
C3626 C3625 1.392 . S
C3626 C3627 1.385 . S
C3626 C3628 1.478 . S
C3627 H3621 0.930 . S
C3627 C3623 1.400 . S
C3627 C3626 1.385 . S
C3628 C3626 1.478 . S
C3628 C3630 1.381 . S
C3628 C3634 1.383 . S
C3629 C3625 1.495 . S
C3629 H3635 0.959 . S
C3629 H3636 0.961 . S
C3629 H3637 0.960 . S
C3630 C3628 1.381 . S
C3630 C3631 1.394 . S
C3630 H3638 0.930 . S
C3631 C3630 1.394 . S
C3631 C3632 1.383 . S
C3631 H3639 0.929 . S
C3632 C3631 1.383 . S
C3632 C3633 1.377 . S
C3633 H3617 0.930 . S
C3633 C3632 1.377 . S
C3633 C3634 1.379 . S
C3634 H3618 0.931 . S
C3634 C3628 1.383 . S
C3634 C3633 1.379 . S
H3635 C3629 0.959 . S
H3636 C3629 0.961 . S
H3637 C3629 0.960 . S
H3638 C3630 0.930 . S
H3639 C3631 0.929 . S
H3640 C3648 0.929 . S
H3641 C3650 0.930 . S
H3642 C3652 0.930 . S
H3643 C3655 0.929 . S
H3644 C3658 0.930 . S
H3645 C3660 0.960 . S
H3646 C3660 0.960 . S
H3647 C3660 0.960 . S
C3648 H3640 0.929 . S
C3648 C3649 1.377 . S
C3648 C3650 1.384 . S
C3649 C3648 1.377 . S
C3649 C3655 1.390 . S
C3650 H3641 0.930 . S
C3650 C3648 1.384 . S
C3650 C3651 1.372 . S
C3651 C3650 1.372 . S
C3651 C3652 1.400 . S
C3651 C3656 1.490 . S
C3652 H3642 0.930 . S
C3652 C3651 1.400 . S
C3652 C3655 1.386 . S
H3653 C3669 0.930 . S
H3654 C3670 0.931 . S
C3655 H3643 0.929 . S
C3655 C3649 1.390 . S
C3655 C3652 1.386 . S
C3656 C3651 1.490 . S
C3656 C3658 1.395 . S
C3656 C3659 1.403 . S
H3657 C3663 0.930 . S
C3658 H3644 0.930 . S
C3658 C3656 1.395 . S
C3658 C3661 1.403 . S
C3659 C3656 1.403 . S
C3659 C3660 1.524 . S
C3659 C3663 1.400 . S
C3660 H3645 0.960 . S
C3660 H3646 0.960 . S
C3660 H3647 0.960 . S
C3660 C3659 1.524 . S
C3661 C3658 1.403 . S
C3661 C3662 1.392 . S
C3661 C3665 1.495 . S
C3662 C3661 1.392 . S
C3662 C3663 1.385 . S
C3662 C3664 1.478 . S
C3663 H3657 0.930 . S
C3663 C3659 1.400 . S
C3663 C3662 1.385 . S
C3664 C3662 1.478 . S
C3664 C3666 1.381 . S
C3664 C3670 1.383 . S
C3665 C3661 1.495 . S
C3665 H3671 0.959 . S
C3665 H3672 0.961 . S
C3665 H3673 0.960 . S
C3666 C3664 1.381 . S
C3666 C3667 1.394 . S
C3666 H3674 0.930 . S
C3667 C3666 1.394 . S
C3667 C3668 1.383 . S
C3667 H3675 0.929 . S
C3668 C3667 1.383 . S
C3668 C3669 1.377 . S
C3669 H3653 0.930 . S
C3669 C3668 1.377 . S
C3669 C3670 1.379 . S
C3670 H3654 0.931 . S
C3670 C3664 1.383 . S
C3670 C3669 1.379 . S
H3671 C3665 0.959 . S
H3672 C3665 0.961 . S
H3673 C3665 0.960 . S
H3674 C3666 0.930 . S
H3675 C3667 0.929 . S
H3676 C3684 0.929 . S
H3677 C3686 0.930 . S
H3678 C3688 0.930 . S
H3679 C3691 0.929 . S
H3680 C3694 0.930 . S
H3681 C3696 0.960 . S
H3682 C3696 0.960 . S
H3683 C3696 0.960 . S
C3684 H3676 0.929 . S
C3684 C3685 1.377 . S
C3684 C3686 1.384 . S
C3685 C3684 1.377 . S
C3685 C3691 1.390 . S
C3686 H3677 0.930 . S
C3686 C3684 1.384 . S
C3686 C3687 1.372 . S
C3687 C3686 1.372 . S
C3687 C3688 1.400 . S
C3687 C3692 1.490 . S
C3688 H3678 0.930 . S
C3688 C3687 1.400 . S
C3688 C3691 1.386 . S
H3689 C3705 0.930 . S
H3690 C3706 0.931 . S
C3691 H3679 0.929 . S
C3691 C3685 1.390 . S
C3691 C3688 1.386 . S
C3692 C3687 1.490 . S
C3692 C3694 1.395 . S
C3692 C3695 1.403 . S
H3693 C3699 0.930 . S
C3694 H3680 0.930 . S
C3694 C3692 1.395 . S
C3694 C3697 1.403 . S
C3695 C3692 1.403 . S
C3695 C3696 1.524 . S
C3695 C3699 1.400 . S
C3696 H3681 0.960 . S
C3696 H3682 0.960 . S
C3696 H3683 0.960 . S
C3696 C3695 1.524 . S
C3697 C3694 1.403 . S
C3697 C3698 1.392 . S
C3697 C3701 1.495 . S
C3698 C3697 1.392 . S
C3698 C3699 1.385 . S
C3698 C3700 1.478 . S
C3699 H3693 0.930 . S
C3699 C3695 1.400 . S
C3699 C3698 1.385 . S
C3700 C3698 1.478 . S
C3700 C3702 1.381 . S
C3700 C3706 1.383 . S
C3701 C3697 1.495 . S
C3701 H3707 0.959 . S
C3701 H3708 0.961 . S
C3701 H3709 0.960 . S
C3702 C3700 1.381 . S
C3702 C3703 1.394 . S
C3702 H3710 0.930 . S
C3703 C3702 1.394 . S
C3703 C3704 1.383 . S
C3703 H3711 0.929 . S
C3704 C3703 1.383 . S
C3704 C3705 1.377 . S
C3705 H3689 0.930 . S
C3705 C3704 1.377 . S
C3705 C3706 1.379 . S
C3706 H3690 0.931 . S
C3706 C3700 1.383 . S
C3706 C3705 1.379 . S
H3707 C3701 0.959 . S
H3708 C3701 0.961 . S
H3709 C3701 0.960 . S
H3710 C3702 0.930 . S
H3711 C3703 0.929 . S
H3712 C3720 0.929 . S
H3713 C3722 0.930 . S
H3714 C3724 0.930 . S
H3715 C3727 0.929 . S
H3716 C3730 0.930 . S
H3717 C3732 0.960 . S
H3718 C3732 0.960 . S
H3719 C3732 0.960 . S
C3720 H3712 0.929 . S
C3720 C3721 1.377 . S
C3720 C3722 1.384 . S
C3721 C3720 1.377 . S
C3721 C3727 1.390 . S
C3722 H3713 0.930 . S
C3722 C3720 1.384 . S
C3722 C3723 1.372 . S
C3723 C3722 1.372 . S
C3723 C3724 1.400 . S
C3723 C3728 1.490 . S
C3724 H3714 0.930 . S
C3724 C3723 1.400 . S
C3724 C3727 1.386 . S
H3725 C3741 0.930 . S
H3726 C3742 0.931 . S
C3727 H3715 0.929 . S
C3727 C3721 1.390 . S
C3727 C3724 1.386 . S
C3728 C3723 1.490 . S
C3728 C3730 1.395 . S
C3728 C3731 1.403 . S
H3729 C3735 0.930 . S
C3730 H3716 0.930 . S
C3730 C3728 1.395 . S
C3730 C3733 1.403 . S
C3731 C3728 1.403 . S
C3731 C3732 1.524 . S
C3731 C3735 1.400 . S
C3732 H3717 0.960 . S
C3732 H3718 0.960 . S
C3732 H3719 0.960 . S
C3732 C3731 1.524 . S
C3733 C3730 1.403 . S
C3733 C3734 1.392 . S
C3733 C3737 1.495 . S
C3734 C3733 1.392 . S
C3734 C3735 1.385 . S
C3734 C3736 1.478 . S
C3735 H3729 0.930 . S
C3735 C3731 1.400 . S
C3735 C3734 1.385 . S
C3736 C3734 1.478 . S
C3736 C3738 1.381 . S
C3736 C3742 1.383 . S
C3737 C3733 1.495 . S
C3737 H3743 0.959 . S
C3737 H3744 0.961 . S
C3737 H3745 0.958 . S
C3738 C3736 1.381 . S
C3738 C3739 1.389 1_556 S
C3738 H3746 0.930 . S
C3739 C3738 1.389 1_554 S
C3739 C3740 1.379 1_554 S
C3739 H3747 0.939 . S
C3740 C3739 1.379 1_556 S
C3740 C3741 1.377 . S
C3741 H3725 0.930 . S
C3741 C3740 1.377 . S
C3741 C3742 1.379 . S
C3742 H3726 0.931 . S
C3742 C3736 1.383 . S
C3742 C3741 1.379 . S
H3743 C3737 0.959 . S
H3744 C3737 0.961 . S
H3745 C3737 0.958 . S
H3746 C3738 0.930 . S
H3747 C3739 0.939 . S
H3748 C3756 0.929 . S
H3749 C3758 0.930 . S
H3750 C3760 0.930 . S
H3751 C3763 0.929 . S
H3752 C3766 0.930 . S
H3753 C3768 0.960 . S
H3754 C3768 0.960 . S
H3755 C3768 0.960 . S
C3756 H3748 0.929 . S
C3756 C3757 1.377 . S
C3756 C3758 1.384 . S
C3757 C3756 1.377 . S
C3757 C3763 1.390 . S
C3758 H3749 0.930 . S
C3758 C3756 1.384 . S
C3758 C3759 1.372 . S
C3759 C3758 1.372 . S
C3759 C3760 1.400 . S
C3759 C3764 1.490 . S
C3760 H3750 0.930 . S
C3760 C3759 1.400 . S
C3760 C3763 1.386 . S
H3761 C3777 0.930 . S
H3762 C3778 0.931 . S
C3763 H3751 0.929 . S
C3763 C3757 1.390 . S
C3763 C3760 1.386 . S
C3764 C3759 1.490 . S
C3764 C3766 1.395 . S
C3764 C3767 1.403 . S
H3765 C3771 0.930 . S
C3766 H3752 0.930 . S
C3766 C3764 1.395 . S
C3766 C3769 1.403 . S
C3767 C3764 1.403 . S
C3767 C3768 1.524 . S
C3767 C3771 1.400 . S
C3768 H3753 0.960 . S
C3768 H3754 0.960 . S
C3768 H3755 0.960 . S
C3768 C3767 1.524 . S
C3769 C3766 1.403 . S
C3769 C3770 1.392 . S
C3769 C3773 1.495 . S
C3770 C3769 1.392 . S
C3770 C3771 1.385 . S
C3770 C3772 1.478 . S
C3771 H3765 0.930 . S
C3771 C3767 1.400 . S
C3771 C3770 1.385 . S
C3772 C3770 1.478 . S
C3772 C3774 1.381 . S
C3772 C3778 1.383 . S
C3773 C3769 1.495 . S
C3773 H3779 0.959 . S
C3773 H3780 0.961 . S
C3773 H3781 0.960 . S
C3774 C3772 1.381 . S
C3774 C3775 1.394 . S
C3774 H3782 0.930 . S
C3775 C3774 1.394 . S
C3775 C3776 1.383 . S
C3775 H3783 0.929 . S
C3776 C3775 1.383 . S
C3776 C3777 1.377 . S
C3777 H3761 0.930 . S
C3777 C3776 1.377 . S
C3777 C3778 1.379 . S
C3778 H3762 0.931 . S
C3778 C3772 1.383 . S
C3778 C3777 1.379 . S
H3779 C3773 0.959 . S
H3780 C3773 0.961 . S
H3781 C3773 0.960 . S
H3782 C3774 0.930 . S
H3783 C3775 0.929 . S
H3784 C3792 0.929 . S
H3785 C3794 0.930 . S
H3786 C3796 0.930 . S
H3787 C3799 0.929 . S
H3788 C3802 0.930 . S
H3789 C3804 0.960 . S
H3790 C3804 0.960 . S
H3791 C3804 0.960 . S
C3792 H3784 0.929 . S
C3792 C3793 1.377 . S
C3792 C3794 1.384 . S
C3793 C3792 1.377 . S
C3793 C3799 1.390 . S
C3794 H3785 0.930 . S
C3794 C3792 1.384 . S
C3794 C3795 1.372 . S
C3795 C3794 1.372 . S
C3795 C3796 1.400 . S
C3795 C3800 1.490 . S
C3796 H3786 0.930 . S
C3796 C3795 1.400 . S
C3796 C3799 1.386 . S
H3797 C3813 0.930 . S
H3798 C3814 0.931 . S
C3799 H3787 0.929 . S
C3799 C3793 1.390 . S
C3799 C3796 1.386 . S
C3800 C3795 1.490 . S
C3800 C3802 1.395 . S
C3800 C3803 1.403 . S
H3801 C3807 0.930 . S
C3802 H3788 0.930 . S
C3802 C3800 1.395 . S
C3802 C3805 1.403 . S
C3803 C3800 1.403 . S
C3803 C3804 1.524 . S
C3803 C3807 1.400 . S
C3804 H3789 0.960 . S
C3804 H3790 0.960 . S
C3804 H3791 0.960 . S
C3804 C3803 1.524 . S
C3805 C3802 1.403 . S
C3805 C3806 1.392 . S
C3805 C3809 1.495 . S
C3806 C3805 1.392 . S
C3806 C3807 1.385 . S
C3806 C3808 1.478 . S
C3807 H3801 0.930 . S
C3807 C3803 1.400 . S
C3807 C3806 1.385 . S
C3808 C3806 1.478 . S
C3808 C3810 1.381 . S
C3808 C3814 1.383 . S
C3809 C3805 1.495 . S
C3809 H3815 0.959 . S
C3809 H3816 0.961 . S
C3809 H3817 0.960 . S
C3810 C3808 1.381 . S
C3810 C3811 1.394 . S
C3810 H3818 0.930 . S
C3811 C3810 1.394 . S
C3811 C3812 1.383 . S
C3811 H3819 0.929 . S
C3812 C3811 1.383 . S
C3812 C3813 1.377 . S
C3813 H3797 0.930 . S
C3813 C3812 1.377 . S
C3813 C3814 1.379 . S
C3814 H3798 0.931 . S
C3814 C3808 1.383 . S
C3814 C3813 1.379 . S
H3815 C3809 0.959 . S
H3816 C3809 0.961 . S
H3817 C3809 0.960 . S
H3818 C3810 0.930 . S
H3819 C3811 0.929 . S
H3820 C3828 0.929 . S
H3821 C3830 0.930 . S
H3822 C3832 0.930 . S
H3823 C3835 0.929 . S
H3824 C3838 0.930 . S
H3825 C3840 0.960 . S
H3826 C3840 0.960 . S
H3827 C3840 0.960 . S
C3828 H3820 0.929 . S
C3828 C3829 1.377 . S
C3828 C3830 1.384 . S
C3829 C3828 1.377 . S
C3829 C3835 1.390 . S
C3830 H3821 0.930 . S
C3830 C3828 1.384 . S
C3830 C3831 1.372 . S
C3831 C3830 1.372 . S
C3831 C3832 1.400 . S
C3831 C3836 1.490 . S
C3832 H3822 0.930 . S
C3832 C3831 1.400 . S
C3832 C3835 1.386 . S
H3833 C3849 0.930 . S
H3834 C3850 0.931 . S
C3835 H3823 0.929 . S
C3835 C3829 1.390 . S
C3835 C3832 1.386 . S
C3836 C3831 1.490 . S
C3836 C3838 1.395 . S
C3836 C3839 1.403 . S
H3837 C3843 0.930 . S
C3838 H3824 0.930 . S
C3838 C3836 1.395 . S
C3838 C3841 1.403 . S
C3839 C3836 1.403 . S
C3839 C3840 1.524 . S
C3839 C3843 1.400 . S
C3840 H3825 0.960 . S
C3840 H3826 0.960 . S
C3840 H3827 0.960 . S
C3840 C3839 1.524 . S
C3841 C3838 1.403 . S
C3841 C3842 1.392 . S
C3841 C3845 1.495 . S
C3842 C3841 1.392 . S
C3842 C3843 1.385 . S
C3842 C3844 1.478 . S
C3843 H3837 0.930 . S
C3843 C3839 1.400 . S
C3843 C3842 1.385 . S
C3844 C3842 1.478 . S
C3844 C3846 1.381 . S
C3844 C3850 1.383 . S
C3845 C3841 1.495 . S
C3845 H3851 0.959 . S
C3845 H3852 0.961 . S
C3845 H3853 0.960 . S
C3846 C3844 1.381 . S
C3846 C3847 1.394 . S
C3846 H3854 0.930 . S
C3847 C3846 1.394 . S
C3847 C3848 1.383 . S
C3847 H3855 0.929 . S
C3848 C3847 1.383 . S
C3848 C3849 1.377 . S
C3849 H3833 0.930 . S
C3849 C3848 1.377 . S
C3849 C3850 1.379 . S
C3850 H3834 0.931 . S
C3850 C3844 1.383 . S
C3850 C3849 1.379 . S
H3851 C3845 0.959 . S
H3852 C3845 0.961 . S
H3853 C3845 0.960 . S
H3854 C3846 0.930 . S
H3855 C3847 0.929 . S
H3856 C3864 0.929 . S
H3857 C3866 0.930 . S
H3858 C3868 0.930 . S
H3859 C3871 0.929 . S
H3860 C3874 0.930 . S
H3861 C3876 0.960 . S
H3862 C3876 0.960 . S
H3863 C3876 0.960 . S
C3864 H3856 0.929 . S
C3864 C3865 1.377 . S
C3864 C3866 1.384 . S
C3865 C3864 1.377 . S
C3865 C3871 1.390 . S
C3866 H3857 0.930 . S
C3866 C3864 1.384 . S
C3866 C3867 1.372 . S
C3867 C3866 1.372 . S
C3867 C3868 1.400 . S
C3867 C3872 1.490 . S
C3868 H3858 0.930 . S
C3868 C3867 1.400 . S
C3868 C3871 1.386 . S
H3869 C3885 0.930 . S
H3870 C3886 0.931 . S
C3871 H3859 0.929 . S
C3871 C3865 1.390 . S
C3871 C3868 1.386 . S
C3872 C3867 1.490 . S
C3872 C3874 1.395 . S
C3872 C3875 1.403 . S
H3873 C3879 0.930 . S
C3874 H3860 0.930 . S
C3874 C3872 1.395 . S
C3874 C3877 1.403 . S
C3875 C3872 1.403 . S
C3875 C3876 1.524 . S
C3875 C3879 1.400 . S
C3876 H3861 0.960 . S
C3876 H3862 0.960 . S
C3876 H3863 0.960 . S
C3876 C3875 1.524 . S
C3877 C3874 1.403 . S
C3877 C3878 1.392 . S
C3877 C3881 1.495 . S
C3878 C3877 1.392 . S
C3878 C3879 1.385 . S
C3878 C3880 1.478 . S
C3879 H3873 0.930 . S
C3879 C3875 1.400 . S
C3879 C3878 1.385 . S
C3880 C3878 1.478 . S
C3880 C3882 1.381 . S
C3880 C3886 1.383 . S
C3881 C3877 1.495 . S
C3881 H3887 0.959 . S
C3881 H3888 0.961 . S
C3881 H3889 0.960 . S
C3882 C3880 1.381 . S
C3882 C3883 1.394 . S
C3882 H3890 0.930 . S
C3883 C3882 1.394 . S
C3883 C3884 1.383 . S
C3883 H3891 0.929 . S
C3884 C3883 1.383 . S
C3884 C3885 1.377 . S
C3885 H3869 0.930 . S
C3885 C3884 1.377 . S
C3885 C3886 1.379 . S
C3886 H3870 0.931 . S
C3886 C3880 1.383 . S
C3886 C3885 1.379 . S
H3887 C3881 0.959 . S
H3888 C3881 0.961 . S
H3889 C3881 0.960 . S
H3890 C3882 0.930 . S
H3891 C3883 0.929 . S
H3892 C3900 0.929 . S
H3893 C3902 0.930 . S
H3894 C3904 0.930 . S
H3895 C3907 0.929 . S
H3896 C3910 0.930 . S
H3897 C3912 0.960 . S
H3898 C3912 0.960 . S
H3899 C3912 0.960 . S
C3900 H3892 0.929 . S
C3900 C3901 1.377 . S
C3900 C3902 1.384 . S
C3901 C3900 1.377 . S
C3901 C3907 1.390 . S
C3902 H3893 0.930 . S
C3902 C3900 1.384 . S
C3902 C3903 1.372 . S
C3903 C3902 1.372 . S
C3903 C3904 1.400 . S
C3903 C3908 1.490 . S
C3904 H3894 0.930 . S
C3904 C3903 1.400 . S
C3904 C3907 1.386 . S
H3905 C3921 0.930 . S
H3906 C3922 0.931 . S
C3907 H3895 0.929 . S
C3907 C3901 1.390 . S
C3907 C3904 1.386 . S
C3908 C3903 1.490 . S
C3908 C3910 1.395 . S
C3908 C3911 1.403 . S
H3909 C3915 0.930 . S
C3910 H3896 0.930 . S
C3910 C3908 1.395 . S
C3910 C3913 1.403 . S
C3911 C3908 1.403 . S
C3911 C3912 1.524 . S
C3911 C3915 1.400 . S
C3912 H3897 0.960 . S
C3912 H3898 0.960 . S
C3912 H3899 0.960 . S
C3912 C3911 1.524 . S
C3913 C3910 1.403 . S
C3913 C3914 1.392 . S
C3913 C3917 1.495 . S
C3914 C3913 1.392 . S
C3914 C3915 1.385 . S
C3914 C3916 1.478 . S
C3915 H3909 0.930 . S
C3915 C3911 1.400 . S
C3915 C3914 1.385 . S
C3916 C3914 1.478 . S
C3916 C3918 1.381 . S
C3916 C3922 1.383 . S
C3917 C3913 1.495 . S
C3917 H3923 0.959 . S
C3917 H3924 0.961 . S
C3917 H3925 0.960 . S
C3918 C3916 1.381 . S
C3918 C3919 1.394 . S
C3918 H3926 0.930 . S
C3919 C3918 1.394 . S
C3919 C3920 1.383 . S
C3919 H3927 0.929 . S
C3920 C3919 1.383 . S
C3920 C3921 1.377 . S
C3921 H3905 0.930 . S
C3921 C3920 1.377 . S
C3921 C3922 1.379 . S
C3922 H3906 0.931 . S
C3922 C3916 1.383 . S
C3922 C3921 1.379 . S
H3923 C3917 0.959 . S
H3924 C3917 0.961 . S
H3925 C3917 0.960 . S
H3926 C3918 0.930 . S
H3927 C3919 0.929 . S
H3928 C3936 0.929 1_455 S
H3929 C3938 0.930 . S
H3930 C3940 0.930 . S
H3931 C3943 0.929 . S
H3932 C3946 0.930 . S
H3933 C3948 0.960 . S
H3934 C3948 0.960 . S
H3935 C3948 0.960 . S
C3936 H3928 0.929 1_655 S
C3936 C3937 1.377 . S
C3936 C3938 1.384 1_655 S
C3937 C3936 1.377 . S
C3937 C3943 1.390 . S
C3938 H3929 0.930 . S
C3938 C3936 1.384 1_455 S
C3938 C3939 1.372 1_455 S
C3939 C3938 1.372 1_655 S
C3939 C3940 1.400 . S
C3939 C3944 1.490 1_655 S
C3940 H3930 0.930 . S
C3940 C3939 1.400 . S
C3940 C3943 1.386 . S
H3941 C3957 0.930 . S
H3942 C3958 0.931 . S
C3943 H3931 0.929 . S
C3943 C3937 1.390 . S
C3943 C3940 1.386 . S
C3944 C3939 1.490 1_455 S
C3944 C3946 1.395 . S
C3944 C3947 1.403 1_455 S
H3945 C3951 0.930 . S
C3946 H3932 0.930 . S
C3946 C3944 1.395 . S
C3946 C3949 1.403 . S
C3947 C3944 1.403 1_655 S
C3947 C3948 1.524 . S
C3947 C3951 1.400 . S
C3948 H3933 0.960 . S
C3948 H3934 0.960 . S
C3948 H3935 0.960 . S
C3948 C3947 1.524 . S
C3949 C3946 1.403 . S
C3949 C3950 1.392 . S
C3949 C3953 1.495 . S
C3950 C3949 1.392 . S
C3950 C3951 1.385 1_455 S
C3950 C3952 1.478 . S
C3951 H3945 0.930 . S
C3951 C3947 1.400 . S
C3951 C3950 1.385 1_655 S
C3952 C3950 1.478 . S
C3952 C3954 1.381 . S
C3952 C3958 1.383 . S
C3953 C3949 1.495 . S
C3953 H3959 0.959 . S
C3953 H3960 0.961 . S
C3953 H3961 0.960 . S
C3954 C3952 1.381 . S
C3954 C3955 1.394 . S
C3954 H3962 0.930 . S
C3955 C3954 1.394 . S
C3955 C3956 1.383 . S
C3955 H3963 0.929 . S
C3956 C3955 1.383 . S
C3956 C3957 1.377 . S
C3957 H3941 0.930 . S
C3957 C3956 1.377 . S
C3957 C3958 1.379 . S
C3958 H3942 0.931 . S
C3958 C3952 1.383 . S
C3958 C3957 1.379 . S
H3959 C3953 0.959 . S
H3960 C3953 0.961 . S
H3961 C3953 0.960 . S
H3962 C3954 0.930 . S
H3963 C3955 0.929 . S
H3964 C3972 0.929 . S
H3965 C3974 0.930 . S
H3966 C3976 0.930 . S
H3967 C3979 0.929 . S
H3968 C3982 0.930 . S
H3969 C3984 0.960 . S
H3970 C3984 0.960 . S
H3971 C3984 0.960 . S
C3972 H3964 0.929 . S
C3972 C3973 1.377 . S
C3972 C3974 1.384 . S
C3973 C3972 1.377 . S
C3973 C3979 1.390 . S
C3974 H3965 0.930 . S
C3974 C3972 1.384 . S
C3974 C3975 1.372 . S
C3975 C3974 1.372 . S
C3975 C3976 1.400 . S
C3975 C3980 1.490 . S
C3976 H3966 0.930 . S
C3976 C3975 1.400 . S
C3976 C3979 1.386 . S
H3977 C3993 0.930 . S
H3978 C3994 0.931 . S
C3979 H3967 0.929 . S
C3979 C3973 1.390 . S
C3979 C3976 1.386 . S
C3980 C3975 1.490 . S
C3980 C3982 1.395 . S
C3980 C3983 1.403 . S
H3981 C3987 0.930 . S
C3982 H3968 0.930 . S
C3982 C3980 1.395 . S
C3982 C3985 1.403 . S
C3983 C3980 1.403 . S
C3983 C3984 1.524 . S
C3983 C3987 1.400 . S
C3984 H3969 0.960 . S
C3984 H3970 0.960 . S
C3984 H3971 0.960 . S
C3984 C3983 1.524 . S
C3985 C3982 1.403 . S
C3985 C3986 1.392 . S
C3985 C3989 1.495 . S
C3986 C3985 1.392 . S
C3986 C3987 1.385 . S
C3986 C3988 1.478 . S
C3987 H3981 0.930 . S
C3987 C3983 1.400 . S
C3987 C3986 1.385 . S
C3988 C3986 1.478 . S
C3988 C3990 1.381 . S
C3988 C3994 1.383 . S
C3989 C3985 1.495 . S
C3989 H3995 0.959 . S
C3989 H3996 0.961 . S
C3989 H3997 0.960 . S
C3990 C3988 1.381 . S
C3990 C3991 1.394 . S
C3990 H3998 0.930 . S
C3991 C3990 1.394 . S
C3991 C3992 1.383 . S
C3991 H3999 0.929 . S
C3992 C3991 1.383 . S
C3992 C3993 1.377 . S
C3993 H3977 0.930 . S
C3993 C3992 1.377 . S
C3993 C3994 1.379 . S
C3994 H3978 0.931 . S
C3994 C3988 1.383 . S
C3994 C3993 1.379 . S
H3995 C3989 0.959 . S
H3996 C3989 0.961 . S
H3997 C3989 0.960 . S
H3998 C3990 0.930 . S
H3999 C3991 0.929 . S
H4000 C4008 0.929 . S
H4001 C4010 0.930 . S
H4002 C4012 0.930 . S
H4003 C4015 0.929 . S
H4004 C4018 0.930 . S
H4005 C4020 0.960 . S
H4006 C4020 0.960 . S
H4007 C4020 0.960 . S
C4008 H4000 0.929 . S
C4008 C4009 1.377 . S
C4008 C4010 1.384 . S
C4009 C4008 1.377 . S
C4009 C4015 1.390 . S
C4010 H4001 0.930 . S
C4010 C4008 1.384 . S
C4010 C4011 1.372 . S
C4011 C4010 1.372 . S
C4011 C4012 1.400 . S
C4011 C4016 1.490 . S
C4012 H4002 0.930 . S
C4012 C4011 1.400 . S
C4012 C4015 1.386 . S
H4013 C4029 0.930 . S
H4014 C4030 0.931 . S
C4015 H4003 0.929 . S
C4015 C4009 1.390 . S
C4015 C4012 1.386 . S
C4016 C4011 1.490 . S
C4016 C4018 1.395 . S
C4016 C4019 1.403 . S
H4017 C4023 0.930 . S
C4018 H4004 0.930 . S
C4018 C4016 1.395 . S
C4018 C4021 1.403 . S
C4019 C4016 1.403 . S
C4019 C4020 1.524 . S
C4019 C4023 1.400 . S
C4020 H4005 0.960 . S
C4020 H4006 0.960 . S
C4020 H4007 0.960 . S
C4020 C4019 1.524 . S
C4021 C4018 1.403 . S
C4021 C4022 1.392 . S
C4021 C4025 1.495 . S
C4022 C4021 1.392 . S
C4022 C4023 1.385 . S
C4022 C4024 1.478 . S
C4023 H4017 0.930 . S
C4023 C4019 1.400 . S
C4023 C4022 1.385 . S
C4024 C4022 1.478 . S
C4024 C4026 1.381 . S
C4024 C4030 1.383 . S
C4025 C4021 1.495 . S
C4025 H4031 0.959 . S
C4025 H4032 0.961 . S
C4025 H4033 0.960 . S
C4026 C4024 1.381 . S
C4026 C4027 1.394 . S
C4026 H4034 0.930 . S
C4027 C4026 1.394 . S
C4027 C4028 1.383 . S
C4027 H4035 0.929 . S
C4028 C4027 1.383 . S
C4028 C4029 1.377 . S
C4029 H4013 0.930 . S
C4029 C4028 1.377 . S
C4029 C4030 1.379 . S
C4030 H4014 0.931 . S
C4030 C4024 1.383 . S
C4030 C4029 1.379 . S
H4031 C4025 0.959 . S
H4032 C4025 0.961 . S
H4033 C4025 0.960 . S
H4034 C4026 0.930 . S
H4035 C4027 0.929 . S
H4036 C4044 0.929 . S
H4037 C4046 0.930 . S
H4038 C4048 0.930 . S
H4039 C4051 0.929 . S
H4040 C4054 0.930 . S
H4041 C4056 0.960 . S
H4042 C4056 0.960 . S
H4043 C4056 0.960 . S
C4044 H4036 0.929 . S
C4044 C4045 1.377 . S
C4044 C4046 1.384 . S
C4045 C4044 1.377 . S
C4045 C4051 1.390 . S
C4046 H4037 0.930 . S
C4046 C4044 1.384 . S
C4046 C4047 1.372 . S
C4047 C4046 1.372 . S
C4047 C4048 1.400 . S
C4047 C4052 1.490 . S
C4048 H4038 0.930 . S
C4048 C4047 1.400 . S
C4048 C4051 1.386 . S
H4049 C4065 0.930 . S
H4050 C4066 0.931 . S
C4051 H4039 0.929 . S
C4051 C4045 1.390 . S
C4051 C4048 1.386 . S
C4052 C4047 1.490 . S
C4052 C4054 1.395 . S
C4052 C4055 1.403 . S
H4053 C4059 0.930 . S
C4054 H4040 0.930 . S
C4054 C4052 1.395 . S
C4054 C4057 1.403 . S
C4055 C4052 1.403 . S
C4055 C4056 1.524 . S
C4055 C4059 1.400 . S
C4056 H4041 0.960 . S
C4056 H4042 0.960 . S
C4056 H4043 0.960 . S
C4056 C4055 1.524 . S
C4057 C4054 1.403 . S
C4057 C4058 1.392 . S
C4057 C4061 1.495 . S
C4058 C4057 1.392 . S
C4058 C4059 1.385 . S
C4058 C4060 1.478 . S
C4059 H4053 0.930 . S
C4059 C4055 1.400 . S
C4059 C4058 1.385 . S
C4060 C4058 1.478 . S
C4060 C4062 1.381 . S
C4060 C4066 1.383 . S
C4061 C4057 1.495 . S
C4061 H4067 0.959 . S
C4061 H4068 0.961 . S
C4061 H4069 0.960 . S
C4062 C4060 1.381 . S
C4062 C4063 1.394 . S
C4062 H4070 0.930 . S
C4063 C4062 1.394 . S
C4063 C4064 1.383 . S
C4063 H4071 0.929 . S
C4064 C4063 1.383 . S
C4064 C4065 1.377 . S
C4065 H4049 0.930 . S
C4065 C4064 1.377 . S
C4065 C4066 1.379 . S
C4066 H4050 0.931 . S
C4066 C4060 1.383 . S
C4066 C4065 1.379 . S
H4067 C4061 0.959 . S
H4068 C4061 0.961 . S
H4069 C4061 0.960 . S
H4070 C4062 0.930 . S
H4071 C4063 0.929 . S
H4072 C4080 0.929 1_455 S
H4073 C4082 0.871 1_455 S
H4074 C4084 0.930 . S
H4075 C4087 0.929 . S
H4076 C4090 0.930 . S
H4077 C4092 0.960 . S
H4078 C4092 0.960 . S
H4079 C4092 0.960 . S
C4080 H4072 0.929 1_655 S
C4080 C4081 1.377 . S
C4080 C4082 1.407 . S
C4081 C4080 1.377 . S
C4081 C4087 1.390 . S
C4082 H4073 0.871 1_655 S
C4082 C4080 1.407 . S
C4082 C4083 1.409 . S
C4083 C4082 1.409 . S
C4083 C4084 1.400 . S
C4083 C4088 1.490 . S
C4084 H4074 0.930 . S
C4084 C4083 1.400 . S
C4084 C4087 1.386 . S
H4085 C4101 0.930 . S
H4086 C4102 0.931 . S
C4087 H4075 0.929 . S
C4087 C4081 1.390 . S
C4087 C4084 1.386 . S
C4088 C4083 1.490 . S
C4088 C4090 1.395 . S
C4088 C4091 1.403 . S
H4089 C4095 0.930 . S
C4090 H4076 0.930 . S
C4090 C4088 1.395 . S
C4090 C4093 1.402 . S
C4091 C4088 1.403 . S
C4091 C4092 1.524 . S
C4091 C4095 1.400 . S
C4092 H4077 0.960 . S
C4092 H4078 0.960 . S
C4092 H4079 0.960 . S
C4092 C4091 1.524 . S
C4093 C4090 1.402 . S
C4093 C4094 1.391 . S
C4093 C4097 1.498 1_655 S
C4094 C4093 1.391 . S
C4094 C4095 1.385 . S
C4094 C4096 1.498 . S
C4095 H4089 0.930 . S
C4095 C4091 1.400 . S
C4095 C4094 1.385 . S
C4096 C4094 1.498 . S
C4096 C4098 1.322 1_655 S
C4096 C4102 1.423 . S
C4097 C4093 1.498 1_455 S
C4097 H4103 0.959 . S
C4097 H4104 0.935 1_455 S
C4097 H4105 0.960 . S
C4098 C4096 1.322 1_455 S
C4098 C4099 1.394 . S
C4098 H4106 0.930 . S
C4099 C4098 1.394 . S
C4099 C4100 1.383 . S
C4099 H4107 0.929 . S
C4100 C4099 1.383 . S
C4100 C4101 1.377 1_455 S
C4101 H4085 0.930 . S
C4101 C4100 1.377 1_655 S
C4101 C4102 1.379 . S
C4102 H4086 0.931 . S
C4102 C4096 1.423 . S
C4102 C4101 1.379 . S
H4103 C4097 0.959 . S
H4104 C4097 0.935 1_655 S
H4105 C4097 0.960 . S
H4106 C4098 0.930 . S
H4107 C4099 0.929 . S
H4108 C4116 0.929 . S
H4109 C4118 0.930 . S
H4110 C4120 0.930 . S
H4111 C4123 0.929 . S
H4112 C4126 0.930 . S
H4113 C4128 0.960 . S
H4114 C4128 0.960 . S
H4115 C4128 0.960 . S
C4116 H4108 0.929 . S
C4116 C4117 1.377 . S
C4116 C4118 1.384 . S
C4117 C4116 1.377 . S
C4117 C4123 1.390 . S
C4118 H4109 0.930 . S
C4118 C4116 1.384 . S
C4118 C4119 1.372 . S
C4119 C4118 1.372 . S
C4119 C4120 1.400 . S
C4119 C4124 1.490 . S
C4120 H4110 0.930 . S
C4120 C4119 1.400 . S
C4120 C4123 1.386 . S
H4121 C4137 0.930 . S
H4122 C4138 0.931 . S
C4123 H4111 0.929 . S
C4123 C4117 1.390 . S
C4123 C4120 1.386 . S
C4124 C4119 1.490 . S
C4124 C4126 1.395 . S
C4124 C4127 1.403 . S
H4125 C4131 0.930 . S
C4126 H4112 0.930 . S
C4126 C4124 1.395 . S
C4126 C4129 1.403 . S
C4127 C4124 1.403 . S
C4127 C4128 1.524 . S
C4127 C4131 1.400 . S
C4128 H4113 0.960 . S
C4128 H4114 0.960 . S
C4128 H4115 0.960 . S
C4128 C4127 1.524 . S
C4129 C4126 1.403 . S
C4129 C4130 1.392 . S
C4129 C4133 1.495 . S
C4130 C4129 1.392 . S
C4130 C4131 1.385 . S
C4130 C4132 1.478 . S
C4131 H4125 0.930 . S
C4131 C4127 1.400 . S
C4131 C4130 1.385 . S
C4132 C4130 1.478 . S
C4132 C4134 1.381 . S
C4132 C4138 1.383 . S
C4133 C4129 1.495 . S
C4133 H4139 0.959 . S
C4133 H4140 0.961 . S
C4133 H4141 0.960 . S
C4134 C4132 1.381 . S
C4134 C4135 1.394 . S
C4134 H4142 0.930 . S
C4135 C4134 1.394 . S
C4135 C4136 1.383 . S
C4135 H4143 0.929 . S
C4136 C4135 1.383 . S
C4136 C4137 1.377 . S
C4137 H4121 0.930 . S
C4137 C4136 1.377 . S
C4137 C4138 1.379 . S
C4138 H4122 0.931 . S
C4138 C4132 1.383 . S
C4138 C4137 1.379 . S
H4139 C4133 0.959 . S
H4140 C4133 0.961 . S
H4141 C4133 0.960 . S
H4142 C4134 0.930 . S
H4143 C4135 0.929 . S
H4144 C4152 0.929 . S
H4145 C4154 0.930 . S
H4146 C4156 0.930 . S
H4147 C4159 0.929 . S
H4148 C4162 0.930 . S
H4149 C4164 0.960 . S
H4150 C4164 0.960 . S
H4151 C4164 0.960 . S
C4152 H4144 0.929 . S
C4152 C4153 1.377 . S
C4152 C4154 1.384 . S
C4153 C4152 1.377 . S
C4153 C4159 1.390 . S
C4154 H4145 0.930 . S
C4154 C4152 1.384 . S
C4154 C4155 1.372 . S
C4155 C4154 1.372 . S
C4155 C4156 1.400 . S
C4155 C4160 1.490 . S
C4156 H4146 0.930 . S
C4156 C4155 1.400 . S
C4156 C4159 1.386 . S
H4157 C4173 0.930 . S
H4158 C4174 0.931 . S
C4159 H4147 0.929 . S
C4159 C4153 1.390 . S
C4159 C4156 1.386 . S
C4160 C4155 1.490 . S
C4160 C4162 1.395 . S
C4160 C4163 1.403 . S
H4161 C4167 0.930 . S
C4162 H4148 0.930 . S
C4162 C4160 1.395 . S
C4162 C4165 1.403 . S
C4163 C4160 1.403 . S
C4163 C4164 1.524 . S
C4163 C4167 1.400 . S
C4164 H4149 0.960 . S
C4164 H4150 0.960 . S
C4164 H4151 0.960 . S
C4164 C4163 1.524 . S
C4165 C4162 1.403 . S
C4165 C4166 1.392 . S
C4165 C4169 1.495 . S
C4166 C4165 1.392 . S
C4166 C4167 1.385 . S
C4166 C4168 1.478 . S
C4167 H4161 0.930 . S
C4167 C4163 1.400 . S
C4167 C4166 1.385 . S
C4168 C4166 1.478 . S
C4168 C4170 1.381 . S
C4168 C4174 1.383 . S
C4169 C4165 1.495 . S
C4169 H4175 0.959 . S
C4169 H4176 0.961 . S
C4169 H4177 0.960 . S
C4170 C4168 1.381 . S
C4170 C4171 1.394 . S
C4170 H4178 0.930 . S
C4171 C4170 1.394 . S
C4171 C4172 1.383 . S
C4171 H4179 0.929 . S
C4172 C4171 1.383 . S
C4172 C4173 1.377 . S
C4173 H4157 0.930 . S
C4173 C4172 1.377 . S
C4173 C4174 1.379 . S
C4174 H4158 0.931 . S
C4174 C4168 1.383 . S
C4174 C4173 1.379 . S
H4175 C4169 0.959 . S
H4176 C4169 0.961 . S
H4177 C4169 0.960 . S
H4178 C4170 0.930 . S
H4179 C4171 0.929 . S
H4180 C4188 0.929 . S
H4181 C4190 0.930 . S
H4182 C4192 0.930 . S
H4183 C4195 0.929 . S
H4184 C4198 0.930 . S
H4185 C4200 0.960 . S
H4186 C4200 0.960 . S
H4187 C4200 0.960 . S
C4188 H4180 0.929 . S
C4188 C4189 1.377 . S
C4188 C4190 1.384 . S
C4189 C4188 1.377 . S
C4189 C4195 1.390 . S
C4190 H4181 0.930 . S
C4190 C4188 1.384 . S
C4190 C4191 1.372 . S
C4191 C4190 1.372 . S
C4191 C4192 1.400 . S
C4191 C4196 1.490 . S
C4192 H4182 0.930 . S
C4192 C4191 1.400 . S
C4192 C4195 1.386 . S
H4193 C4209 0.930 . S
H4194 C4210 0.931 . S
C4195 H4183 0.929 . S
C4195 C4189 1.390 . S
C4195 C4192 1.386 . S
C4196 C4191 1.490 . S
C4196 C4198 1.395 . S
C4196 C4199 1.403 . S
H4197 C4203 0.930 . S
C4198 H4184 0.930 . S
C4198 C4196 1.395 . S
C4198 C4201 1.403 . S
C4199 C4196 1.403 . S
C4199 C4200 1.524 . S
C4199 C4203 1.400 . S
C4200 H4185 0.960 . S
C4200 H4186 0.960 . S
C4200 H4187 0.960 . S
C4200 C4199 1.524 . S
C4201 C4198 1.403 . S
C4201 C4202 1.392 . S
C4201 C4205 1.495 . S
C4202 C4201 1.392 . S
C4202 C4203 1.385 . S
C4202 C4204 1.478 . S
C4203 H4197 0.930 . S
C4203 C4199 1.400 . S
C4203 C4202 1.385 . S
C4204 C4202 1.478 . S
C4204 C4206 1.381 . S
C4204 C4210 1.383 . S
C4205 C4201 1.495 . S
C4205 H4211 0.959 . S
C4205 H4212 0.961 . S
C4205 H4213 0.960 . S
C4206 C4204 1.381 . S
C4206 C4207 1.394 . S
C4206 H4214 0.930 . S
C4207 C4206 1.394 . S
C4207 C4208 1.383 . S
C4207 H4215 0.929 . S
C4208 C4207 1.383 . S
C4208 C4209 1.377 . S
C4209 H4193 0.930 . S
C4209 C4208 1.377 . S
C4209 C4210 1.379 . S
C4210 H4194 0.931 . S
C4210 C4204 1.383 . S
C4210 C4209 1.379 . S
H4211 C4205 0.959 . S
H4212 C4205 0.961 . S
H4213 C4205 0.960 . S
H4214 C4206 0.930 . S
H4215 C4207 0.929 . S
H4216 C4224 0.929 . S
H4217 C4226 0.930 . S
H4218 C4228 0.930 . S
H4219 C4231 0.929 . S
H4220 C4234 0.930 . S
H4221 C4236 0.960 . S
H4222 C4236 0.960 . S
H4223 C4236 0.960 . S
C4224 H4216 0.929 . S
C4224 C4225 1.377 . S
C4224 C4226 1.384 . S
C4225 C4224 1.377 . S
C4225 C4231 1.390 . S
C4226 H4217 0.930 . S
C4226 C4224 1.384 . S
C4226 C4227 1.372 . S
C4227 C4226 1.372 . S
C4227 C4228 1.400 . S
C4227 C4232 1.490 . S
C4228 H4218 0.930 . S
C4228 C4227 1.400 . S
C4228 C4231 1.386 . S
H4229 C4245 0.930 . S
H4230 C4246 0.931 . S
C4231 H4219 0.929 . S
C4231 C4225 1.390 . S
C4231 C4228 1.386 . S
C4232 C4227 1.490 . S
C4232 C4234 1.395 . S
C4232 C4235 1.403 . S
H4233 C4239 0.930 . S
C4234 H4220 0.930 . S
C4234 C4232 1.395 . S
C4234 C4237 1.403 . S
C4235 C4232 1.403 . S
C4235 C4236 1.524 . S
C4235 C4239 1.400 . S
C4236 H4221 0.960 . S
C4236 H4222 0.960 . S
C4236 H4223 0.960 . S
C4236 C4235 1.524 . S
C4237 C4234 1.403 . S
C4237 C4238 1.392 . S
C4237 C4241 1.495 . S
C4238 C4237 1.392 . S
C4238 C4239 1.385 . S
C4238 C4240 1.478 . S
C4239 H4233 0.930 . S
C4239 C4235 1.400 . S
C4239 C4238 1.385 . S
C4240 C4238 1.478 . S
C4240 C4242 1.381 . S
C4240 C4246 1.383 . S
C4241 C4237 1.495 . S
C4241 H4247 0.959 . S
C4241 H4248 0.961 . S
C4241 H4249 0.960 . S
C4242 C4240 1.381 . S
C4242 C4243 1.394 . S
C4242 H4250 0.930 . S
C4243 C4242 1.394 . S
C4243 C4244 1.383 . S
C4243 H4251 0.929 . S
C4244 C4243 1.383 . S
C4244 C4245 1.377 . S
C4245 H4229 0.930 . S
C4245 C4244 1.377 . S
C4245 C4246 1.379 . S
C4246 H4230 0.931 . S
C4246 C4240 1.383 . S
C4246 C4245 1.379 . S
H4247 C4241 0.959 . S
H4248 C4241 0.961 . S
H4249 C4241 0.960 . S
H4250 C4242 0.930 . S
H4251 C4243 0.929 . S
H4252 C4260 0.929 . S
H4253 C4262 0.930 . S
H4254 C4264 0.930 . S
H4255 C4267 0.929 . S
H4256 C4270 0.930 . S
H4257 C4272 0.960 . S
H4258 C4272 0.960 . S
H4259 C4272 0.960 . S
C4260 H4252 0.929 . S
C4260 C4261 1.377 . S
C4260 C4262 1.384 . S
C4261 C4260 1.377 . S
C4261 C4267 1.390 1_556 S
C4262 H4253 0.930 . S
C4262 C4260 1.384 . S
C4262 C4263 1.372 1_556 S
C4263 C4262 1.372 1_554 S
C4263 C4264 1.400 . S
C4263 C4268 1.490 . S
C4264 H4254 0.930 . S
C4264 C4263 1.400 . S
C4264 C4267 1.386 . S
H4265 C4281 0.930 . S
H4266 C4282 0.931 . S
C4267 H4255 0.929 . S
C4267 C4261 1.390 1_554 S
C4267 C4264 1.386 . S
C4268 C4263 1.490 . S
C4268 C4270 1.395 . S
C4268 C4271 1.403 1_554 S
H4269 C4275 0.930 . S
C4270 H4256 0.930 . S
C4270 C4268 1.395 . S
C4270 C4273 1.403 . S
C4271 C4268 1.403 1_556 S
C4271 C4272 1.524 . S
C4271 C4275 1.400 . S
C4272 H4257 0.960 . S
C4272 H4258 0.960 . S
C4272 H4259 0.960 . S
C4272 C4271 1.524 . S
C4273 C4270 1.403 . S
C4273 C4274 1.392 . S
C4273 C4277 1.495 . S
C4274 C4273 1.392 . S
C4274 C4275 1.385 1_554 S
C4274 C4276 1.478 . S
C4275 H4269 0.930 . S
C4275 C4271 1.400 . S
C4275 C4274 1.385 1_556 S
C4276 C4274 1.478 . S
C4276 C4278 1.381 . S
C4276 C4282 1.383 . S
C4277 C4273 1.495 . S
C4277 H4283 0.959 . S
C4277 H4284 0.961 . S
C4277 H4285 0.960 . S
C4278 C4276 1.381 . S
C4278 C4279 1.394 . S
C4278 H4286 0.930 1_554 S
C4279 C4278 1.394 . S
C4279 C4280 1.383 . S
C4279 H4287 0.929 1_554 S
C4280 C4279 1.383 . S
C4280 C4281 1.377 . S
C4281 H4265 0.930 . S
C4281 C4280 1.377 . S
C4281 C4282 1.379 . S
C4282 H4266 0.931 . S
C4282 C4276 1.383 . S
C4282 C4281 1.379 . S
H4283 C4277 0.959 . S
H4284 C4277 0.961 . S
H4285 C4277 0.960 . S
H4286 C4278 0.930 1_556 S
H4287 C4279 0.929 1_556 S
H4288 C4296 0.929 . S
H4289 C4298 0.930 . S
H4290 C4300 0.930 . S
H4291 C4303 0.929 . S
H4292 C4306 0.930 . S
H4293 C4308 0.960 . S
H4294 C4308 0.960 . S
H4295 C4308 0.960 . S
C4296 H4288 0.929 . S
C4296 C4297 1.377 . S
C4296 C4298 1.384 . S
C4297 C4296 1.377 . S
C4297 C4303 1.390 . S
C4298 H4289 0.930 . S
C4298 C4296 1.384 . S
C4298 C4299 1.372 . S
C4299 C4298 1.372 . S
C4299 C4300 1.400 . S
C4299 C4304 1.490 . S
C4300 H4290 0.930 . S
C4300 C4299 1.400 . S
C4300 C4303 1.386 . S
H4301 C4317 0.930 . S
H4302 C4318 0.931 . S
C4303 H4291 0.929 . S
C4303 C4297 1.390 . S
C4303 C4300 1.386 . S
C4304 C4299 1.490 . S
C4304 C4306 1.395 . S
C4304 C4307 1.403 . S
H4305 C4311 0.930 . S
C4306 H4292 0.930 . S
C4306 C4304 1.395 . S
C4306 C4309 1.403 . S
C4307 C4304 1.403 . S
C4307 C4308 1.524 . S
C4307 C4311 1.400 . S
C4308 H4293 0.960 . S
C4308 H4294 0.960 . S
C4308 H4295 0.960 . S
C4308 C4307 1.524 . S
C4309 C4306 1.403 . S
C4309 C4310 1.392 . S
C4309 C4313 1.495 . S
C4310 C4309 1.392 . S
C4310 C4311 1.385 . S
C4310 C4312 1.478 . S
C4311 H4305 0.930 . S
C4311 C4307 1.400 . S
C4311 C4310 1.385 . S
C4312 C4310 1.478 . S
C4312 C4314 1.381 . S
C4312 C4318 1.383 . S
C4313 C4309 1.495 . S
C4313 H4319 0.959 . S
C4313 H4320 0.961 . S
C4313 H4321 0.960 . S
C4314 C4312 1.381 . S
C4314 C4315 1.394 . S
C4314 H4322 0.930 . S
C4315 C4314 1.394 . S
C4315 C4316 1.383 . S
C4315 H4323 0.929 . S
C4316 C4315 1.383 . S
C4316 C4317 1.377 . S
C4317 H4301 0.930 . S
C4317 C4316 1.377 . S
C4317 C4318 1.379 . S
C4318 H4302 0.931 . S
C4318 C4312 1.383 . S
C4318 C4317 1.379 . S
H4319 C4313 0.959 . S
H4320 C4313 0.961 . S
H4321 C4313 0.960 . S
H4322 C4314 0.930 . S
H4323 C4315 0.929 . S
H4324 C4332 0.929 1_556 S
H4325 C4334 0.930 1_556 S
H4326 C4336 0.930 . S
H4327 C4339 0.929 . S
H4328 C4342 0.930 . S
H4329 C4344 0.960 . S
H4330 C4344 0.960 . S
H4331 C4344 0.960 . S
C4332 H4324 0.929 1_554 S
C4332 C4333 1.377 . S
C4332 C4334 1.384 . S
C4333 C4332 1.377 . S
C4333 C4339 1.390 . S
C4334 H4325 0.930 1_554 S
C4334 C4332 1.384 . S
C4334 C4335 1.372 . S
C4335 C4334 1.372 . S
C4335 C4336 1.400 . S
C4335 C4340 1.490 . S
C4336 H4326 0.930 . S
C4336 C4335 1.400 . S
C4336 C4339 1.386 . S
H4337 C4353 0.930 . S
H4338 C4354 0.931 . S
C4339 H4327 0.929 . S
C4339 C4333 1.390 . S
C4339 C4336 1.386 . S
C4340 C4335 1.490 . S
C4340 C4342 1.395 . S
C4340 C4343 1.403 . S
H4341 C4347 0.930 . S
C4342 H4328 0.930 . S
C4342 C4340 1.395 . S
C4342 C4345 1.403 . S
C4343 C4340 1.403 . S
C4343 C4344 1.524 . S
C4343 C4347 1.400 . S
C4344 H4329 0.960 . S
C4344 H4330 0.960 . S
C4344 H4331 0.960 . S
C4344 C4343 1.524 . S
C4345 C4342 1.403 . S
C4345 C4346 1.392 . S
C4345 C4349 1.501 . S
C4346 C4345 1.392 . S
C4346 C4347 1.385 . S
C4346 C4348 1.478 . S
C4347 H4341 0.930 . S
C4347 C4343 1.400 . S
C4347 C4346 1.385 . S
C4348 C4346 1.478 . S
C4348 C4350 1.381 . S
C4348 C4354 1.383 . S
C4349 C4345 1.501 . S
C4349 H4355 0.954 1_554 S
C4349 H4356 0.973 . S
C4349 H4357 0.947 1_554 S
C4350 C4348 1.381 . S
C4350 C4351 1.394 . S
C4350 H4358 0.930 1_554 S
C4351 C4350 1.394 . S
C4351 C4352 1.383 . S
C4351 H4359 0.929 1_554 S
C4352 C4351 1.383 . S
C4352 C4353 1.377 . S
C4353 H4337 0.930 . S
C4353 C4352 1.377 . S
C4353 C4354 1.379 . S
C4354 H4338 0.931 . S
C4354 C4348 1.383 . S
C4354 C4353 1.379 . S
H4355 C4349 0.954 1_556 S
H4356 C4349 0.973 . S
H4357 C4349 0.947 1_556 S
H4358 C4350 0.930 1_556 S
H4359 C4351 0.929 1_556 S
H4360 C4368 0.929 . S
H4361 C4370 0.930 . S
H4362 C4372 0.930 . S
H4363 C4375 0.929 . S
H4364 C4378 0.930 . S
H4365 C4380 0.960 . S
H4366 C4380 0.960 . S
H4367 C4380 0.960 . S
C4368 H4360 0.929 . S
C4368 C4369 1.377 . S
C4368 C4370 1.384 . S
C4369 C4368 1.377 . S
C4369 C4375 1.390 . S
C4370 H4361 0.930 . S
C4370 C4368 1.384 . S
C4370 C4371 1.372 . S
C4371 C4370 1.372 . S
C4371 C4372 1.400 . S
C4371 C4376 1.490 . S
C4372 H4362 0.930 . S
C4372 C4371 1.400 . S
C4372 C4375 1.386 . S
H4373 C4389 0.930 . S
H4374 C4390 0.931 . S
C4375 H4363 0.929 . S
C4375 C4369 1.390 . S
C4375 C4372 1.386 . S
C4376 C4371 1.490 . S
C4376 C4378 1.395 . S
C4376 C4379 1.403 . S
H4377 C4383 0.930 . S
C4378 H4364 0.930 . S
C4378 C4376 1.395 . S
C4378 C4381 1.403 . S
C4379 C4376 1.403 . S
C4379 C4380 1.524 . S
C4379 C4383 1.400 . S
C4380 H4365 0.960 . S
C4380 H4366 0.960 . S
C4380 H4367 0.960 . S
C4380 C4379 1.524 . S
C4381 C4378 1.403 . S
C4381 C4382 1.392 . S
C4381 C4385 1.495 . S
C4382 C4381 1.392 . S
C4382 C4383 1.385 . S
C4382 C4384 1.478 . S
C4383 H4377 0.930 . S
C4383 C4379 1.400 . S
C4383 C4382 1.385 . S
C4384 C4382 1.478 . S
C4384 C4386 1.381 . S
C4384 C4390 1.383 . S
C4385 C4381 1.495 . S
C4385 H4391 0.959 . S
C4385 H4392 0.961 . S
C4385 H4393 0.960 . S
C4386 C4384 1.381 . S
C4386 C4387 1.394 . S
C4386 H4394 0.930 . S
C4387 C4386 1.394 . S
C4387 C4388 1.383 . S
C4387 H4395 0.929 . S
C4388 C4387 1.383 . S
C4388 C4389 1.377 . S
C4389 H4373 0.930 . S
C4389 C4388 1.377 . S
C4389 C4390 1.379 . S
C4390 H4374 0.931 . S
C4390 C4384 1.383 . S
C4390 C4389 1.379 . S
H4391 C4385 0.959 . S
H4392 C4385 0.961 . S
H4393 C4385 0.960 . S
H4394 C4386 0.930 . S
H4395 C4387 0.929 . S
H4396 C4404 0.929 . S
H4397 C4406 0.930 . S
H4398 C4408 0.930 . S
H4399 C4411 0.929 . S
H4400 C4414 0.930 . S
H4401 C4416 0.960 . S
H4402 C4416 0.960 . S
H4403 C4416 0.960 . S
C4404 H4396 0.929 . S
C4404 C4405 1.377 . S
C4404 C4406 1.384 . S
C4405 C4404 1.377 . S
C4405 C4411 1.390 . S
C4406 H4397 0.930 . S
C4406 C4404 1.384 . S
C4406 C4407 1.372 . S
C4407 C4406 1.372 . S
C4407 C4408 1.400 . S
C4407 C4412 1.490 . S
C4408 H4398 0.930 . S
C4408 C4407 1.400 . S
C4408 C4411 1.386 . S
H4409 C4425 0.930 . S
H4410 C4426 0.931 . S
C4411 H4399 0.929 . S
C4411 C4405 1.390 . S
C4411 C4408 1.386 . S
C4412 C4407 1.490 . S
C4412 C4414 1.395 . S
C4412 C4415 1.403 . S
H4413 C4419 0.930 . S
C4414 H4400 0.930 . S
C4414 C4412 1.395 . S
C4414 C4417 1.403 . S
C4415 C4412 1.403 . S
C4415 C4416 1.524 . S
C4415 C4419 1.400 . S
C4416 H4401 0.960 . S
C4416 H4402 0.960 . S
C4416 H4403 0.960 . S
C4416 C4415 1.524 . S
C4417 C4414 1.403 . S
C4417 C4418 1.392 . S
C4417 C4421 1.495 . S
C4418 C4417 1.392 . S
C4418 C4419 1.385 . S
C4418 C4420 1.478 . S
C4419 H4413 0.930 . S
C4419 C4415 1.400 . S
C4419 C4418 1.385 . S
C4420 C4418 1.478 . S
C4420 C4422 1.381 . S
C4420 C4426 1.383 . S
C4421 C4417 1.495 . S
C4421 H4427 0.959 . S
C4421 H4428 0.961 . S
C4421 H4429 0.960 . S
C4422 C4420 1.381 . S
C4422 C4423 1.394 . S
C4422 H4430 0.930 . S
C4423 C4422 1.394 . S
C4423 C4424 1.383 . S
C4423 H4431 0.929 . S
C4424 C4423 1.383 . S
C4424 C4425 1.377 . S
C4425 H4409 0.930 . S
C4425 C4424 1.377 . S
C4425 C4426 1.379 . S
C4426 H4410 0.931 . S
C4426 C4420 1.383 . S
C4426 C4425 1.379 . S
H4427 C4421 0.959 . S
H4428 C4421 0.961 . S
H4429 C4421 0.960 . S
H4430 C4422 0.930 . S
H4431 C4423 0.929 . S
C985 C109 1.672 1_455 S
C1004 C358 1.671 . S
C1021 C65 1.069 . S
C1040 C378 1.020 . S
C1057 C75 0.529 . S
C1076 C425 0.513 . S
C1112 C482 0.956 . S
C1093 C84 0.958 . S
C1129 C25 2.629 . S
C1148 C499 2.612 . S
C1184 C558 1.607 . S
C1165 C28 1.619 . S
C1220 C591 2.729 . S
C1201 C47 2.732 . S
C1237 C9 2.511 . S
C1256 C638 2.498 . S
C1292 C351 1.468 . S
C1273 C233 1.463 . S
C1309 C249 1.237 . S
C1328 C379 1.237 . S
C1364 C418 0.661 . S
C1345 C275 0.609 . S
C1400 C478 2.018 . S
C1381 C173 2.022 . S
C1417 C224 0.264 . S
C1436 C505 0.361 . S
C1472 C551 2.338 . S
C1453 C243 2.358 . S
C1508 C602 0.548 . S
C1489 C266 0.438 1_565 S
C1544 C631 2.229 . S
C1525 C179 2.234 . S
C1580 C362 1.660 . S
C1561 C163 1.679 . S
C1597 C289 2.264 . S
C1616 C658 2.239 . S
C1652 C722 1.090 . S
C1633 C333 1.095 . S
C1688 C758 1.218 1_655 S
C1669 C308 1.184 . S
C1705 C123 1.101 . S
C1724 C642 1.114 . S
C1741 C126 2.602 . S
C1760 C419 2.604 . S
C1777 C327 1.439 . S
C1796 C791 1.442 . S
C1832 C825 0.200 . S
C1813 C299 0.173 . S
C1868 C339 1.694 . S
C1849 C67 1.700 . S
C1904 C831 1.074 . S
C1885 C98 1.092 . S
C1921 C89 0.561 . S
C1940 C442 0.554 . S
C1957 C79 1.013 . S
C1976 C785 1.010 . S
C2012 C518 2.674 . S
C1993 C11 2.681 . S
C2029 C51 1.653 . S
C2048 C699 1.637 . S
C2084 C578 2.779 1_556 S
C2065 C33 2.791 . S
C2120 C859 2.484 . S
C2101 C14 2.499 1_655 S
C2156 C338 1.439 . S
C2137 C140 1.423 . S
C2192 C838 1.286 . S
C2173 C319 1.280 . S
C2209 C112 0.642 . S
C2228 C431 0.654 . S
C2245 C285 2.051 . S
C2264 C779 2.052 . S
C2281 C149 0.311 . S
C2300 C522 0.282 . S
C2336 C698 2.395 . S
C2317 C313 2.415 . S
C2353 C121 0.306 . S
C2372 C585 0.380 1_565 S
C2389 C291 2.279 . S
C2408 C858 2.274 . S
C2425 C182 1.641 . S
C2444 C345 1.637 . S
C2461 C168 2.270 . S
C2480 C671 2.252 . S
C2497 C263 1.129 . S
C2516 C545 1.146 . S
C2533 C247 1.271 . S
C2552 C739 1.245 . S
C2588 C865 1.085 . S
C2569 C277 1.092 . S
C2605 C219 2.647 . S
C2624 C438 2.631 1_565 S
C2660 C458 1.510 . S
C2641 C257 1.497 . S
C2696 C402 0.267 . S
C2677 C201 0.182 . S
C2713 C81 1.683 . S
C2732 C918 1.661 . S
C2768 C818 1.084 . S
C2749 C93 1.075 . S
C2785 C103 0.529 . S
C2804 C945 0.520 . S
C2821 C56 0.968 . S
C2840 C802 0.984 . S
C2857 C53 2.628 . S
C2876 C659 2.609 . S
C2912 C718 1.629 . S
C2893 C0 1.615 1_655 S
C2948 C751 2.722 . S
C2929 C19 2.733 . S
C2984 C878 2.488 . S
C2965 C37 2.512 . S
C3020 C911 1.468 . S
C3001 C261 1.463 . S
C3037 C193 1.237 . S
C3056 C819 1.220 . S
C3092 C938 0.640 . S
C3073 C205 0.606 . S
C3128 C798 2.026 . S
C3109 C215 2.018 . S
C3164 C665 0.335 . S
C3145 C252 0.270 . S
C3181 C187 2.358 . S
C3200 C711 2.338 . S
C3236 C762 0.545 . S
C3217 C196 0.429 . S
C3253 C221 2.233 . S
C3272 C871 2.237 . S
C3308 C922 1.660 . S
C3289 C317 1.679 . S
C3325 C135 2.263 . S
C3344 C498 2.235 . S
C3380 C562 1.078 . S
C3361 C151 1.098 1_565 S
C3416 C598 1.185 1_565 S
C3397 C154 1.194 . S
C3452 C882 1.117 . S
C3433 C305 1.101 . S
C3469 C280 2.602 . S
C3488 C939 2.601 1_655 S
C3524 C471 1.447 . S
C3505 C145 1.433 . S
C3560 C385 0.308 . S
C3541 C117 0.175 . S
C3577 C95 1.703 . S
C3596 C899 1.706 . S
C3632 C391 1.061 . S
C3613 C70 1.087 . S
C3649 C61 0.560 . S
C3668 C962 0.578 . S
C3685 C107 1.014 . S
C3704 C465 1.016 . S
C3721 C39 2.681 . S
C3740 C678 2.672 1_556 S
C3776 C539 1.639 . S
C3757 C23 1.653 . S
C3793 C5 2.792 . S
C3812 C738 2.786 . S
C3829 C42 2.500 . S
C3848 C619 2.487 . S
C3884 C898 1.419 . S
C3865 C322 1.428 . S
C3901 C165 1.284 . S
C3920 C398 1.252 . S
C3956 C951 0.606 . S
C3937 C294 0.625 . S
C3973 C131 2.050 . S
C3992 C459 2.053 . S
C4009 C331 0.300 . S
C4028 C682 0.313 . S
C4064 C538 2.404 . S
C4045 C159 2.415 1_556 S
C4081 C303 0.342 . S
C4100 C745 0.493 . S
C4136 C618 2.285 . S
C4117 C137 2.277 . S
C4172 C905 1.629 . S
C4153 C238 1.645 . S
C4208 C511 2.246 1_665 S
C4189 C210 2.269 . S
C4225 C235 1.133 . S
C4244 C705 1.096 . S
C4280 C579 1.266 . S
C4261 C191 1.272 . S
C4297 C207 1.083 . S
C4316 C625 1.099 . S
C4333 C177 2.647 . S
C4352 C958 2.636 . S
C4388 C778 1.507 . S
C4369 C229 1.496 . S
C4424 C842 0.306 . S
C4405 C271 0.182 . S
