# Generated by pormake.
# Topology ocu, (6,8)-cn, num edge types: 1
# Building blocks:
#     Node 0, Type 0, BuildingBlock: HISSIN_clean_sbu_0, # of connection points: 6
#     Node 1, Type 0, BuildingBlock: HISSIN_clean_sbu_0, # of connection points: 6
#     Node 2, Type 0, BuildingBlock: HISSIN_clean_sbu_0, # of connection points: 6
#     Node 3, Type 0, BuildingBlock: HISSIN_clean_sbu_0, # of connection points: 6
#     Node 4, Type 0, BuildingBlock: HISSIN_clean_sbu_0, # of connection points: 6
#     Node 5, Type 0, BuildingBlock: HISSIN_clean_sbu_0, # of connection points: 6
#     Node 6, Type 0, BuildingBlock: HISSIN_clean_sbu_0, # of connection points: 6
#     Node 7, Type 0, BuildingBlock: HISSIN_clean_sbu_0, # of connection points: 6
#     Node 8, Type 1, BuildingBlock: GIZVER_clean_sbu_0, # of connection points: 8
#     Node 9, Type 1, BuildingBlock: GIZVER_clean_sbu_0, # of connection points: 8
#     Node 10, Type 1, BuildingBlock: GIZVER_clean_sbu_0, # of connection points: 8
#     Node 11, Type 1, BuildingBlock: GIZVER_clean_sbu_0, # of connection points: 8
#     Node 12, Type 1, BuildingBlock: GIZVER_clean_sbu_0, # of connection points: 8
#     Node 13, Type 1, BuildingBlock: GIZVER_clean_sbu_0, # of connection points: 8
#     Edge 14, Type (0, 1), BuildingBlock: XIVTED_clean_linker_0, # of connection points: 2
#     Edge 15, Type (0, 1), BuildingBlock: XIVTED_clean_linker_0, # of connection points: 2
#     Edge 16, Type (0, 1), BuildingBlock: XIVTED_clean_linker_0, # of connection points: 2
#     Edge 17, Type (0, 1), BuildingBlock: XIVTED_clean_linker_0, # of connection points: 2
#     Edge 18, Type (0, 1), BuildingBlock: XIVTED_clean_linker_0, # of connection points: 2
#     Edge 19, Type (0, 1), BuildingBlock: XIVTED_clean_linker_0, # of connection points: 2
#     Edge 20, Type (0, 1), BuildingBlock: XIVTED_clean_linker_0, # of connection points: 2
#     Edge 21, Type (0, 1), BuildingBlock: XIVTED_clean_linker_0, # of connection points: 2
#     Edge 22, Type (0, 1), BuildingBlock: XIVTED_clean_linker_0, # of connection points: 2
#     Edge 23, Type (0, 1), BuildingBlock: XIVTED_clean_linker_0, # of connection points: 2
#     Edge 24, Type (0, 1), BuildingBlock: XIVTED_clean_linker_0, # of connection points: 2
#     Edge 25, Type (0, 1), BuildingBlock: XIVTED_clean_linker_0, # of connection points: 2
#     Edge 26, Type (0, 1), BuildingBlock: XIVTED_clean_linker_0, # of connection points: 2
#     Edge 27, Type (0, 1), BuildingBlock: XIVTED_clean_linker_0, # of connection points: 2
#     Edge 28, Type (0, 1), BuildingBlock: XIVTED_clean_linker_0, # of connection points: 2
#     Edge 29, Type (0, 1), BuildingBlock: XIVTED_clean_linker_0, # of connection points: 2
#     Edge 30, Type (0, 1), BuildingBlock: XIVTED_clean_linker_0, # of connection points: 2
#     Edge 31, Type (0, 1), BuildingBlock: XIVTED_clean_linker_0, # of connection points: 2
#     Edge 32, Type (0, 1), BuildingBlock: XIVTED_clean_linker_0, # of connection points: 2
#     Edge 33, Type (0, 1), BuildingBlock: XIVTED_clean_linker_0, # of connection points: 2
#     Edge 34, Type (0, 1), BuildingBlock: XIVTED_clean_linker_0, # of connection points: 2
#     Edge 35, Type (0, 1), BuildingBlock: XIVTED_clean_linker_0, # of connection points: 2
#     Edge 36, Type (0, 1), BuildingBlock: XIVTED_clean_linker_0, # of connection points: 2
#     Edge 37, Type (0, 1), BuildingBlock: XIVTED_clean_linker_0, # of connection points: 2
#     Edge 38, Type (0, 1), BuildingBlock: XIVTED_clean_linker_0, # of connection points: 2
#     Edge 39, Type (0, 1), BuildingBlock: XIVTED_clean_linker_0, # of connection points: 2
#     Edge 40, Type (0, 1), BuildingBlock: XIVTED_clean_linker_0, # of connection points: 2
#     Edge 41, Type (0, 1), BuildingBlock: XIVTED_clean_linker_0, # of connection points: 2
#     Edge 42, Type (0, 1), BuildingBlock: XIVTED_clean_linker_0, # of connection points: 2
#     Edge 43, Type (0, 1), BuildingBlock: XIVTED_clean_linker_0, # of connection points: 2
#     Edge 44, Type (0, 1), BuildingBlock: XIVTED_clean_linker_0, # of connection points: 2
#     Edge 45, Type (0, 1), BuildingBlock: XIVTED_clean_linker_0, # of connection points: 2
#     Edge 46, Type (0, 1), BuildingBlock: XIVTED_clean_linker_0, # of connection points: 2
#     Edge 47, Type (0, 1), BuildingBlock: XIVTED_clean_linker_0, # of connection points: 2
#     Edge 48, Type (0, 1), BuildingBlock: XIVTED_clean_linker_0, # of connection points: 2
#     Edge 49, Type (0, 1), BuildingBlock: XIVTED_clean_linker_0, # of connection points: 2
#     Edge 50, Type (0, 1), BuildingBlock: XIVTED_clean_linker_0, # of connection points: 2
#     Edge 51, Type (0, 1), BuildingBlock: XIVTED_clean_linker_0, # of connection points: 2
#     Edge 52, Type (0, 1), BuildingBlock: XIVTED_clean_linker_0, # of connection points: 2
#     Edge 53, Type (0, 1), BuildingBlock: XIVTED_clean_linker_0, # of connection points: 2
#     Edge 54, Type (0, 1), BuildingBlock: XIVTED_clean_linker_0, # of connection points: 2
#     Edge 55, Type (0, 1), BuildingBlock: XIVTED_clean_linker_0, # of connection points: 2
#     Edge 56, Type (0, 1), BuildingBlock: XIVTED_clean_linker_0, # of connection points: 2
#     Edge 57, Type (0, 1), BuildingBlock: XIVTED_clean_linker_0, # of connection points: 2
#     Edge 58, Type (0, 1), BuildingBlock: XIVTED_clean_linker_0, # of connection points: 2
#     Edge 59, Type (0, 1), BuildingBlock: XIVTED_clean_linker_0, # of connection points: 2
#     Edge 60, Type (0, 1), BuildingBlock: XIVTED_clean_linker_0, # of connection points: 2
#     Edge 61, Type (0, 1), BuildingBlock: XIVTED_clean_linker_0, # of connection points: 2
# Relax obj value: 0.168
# Max RMSD: 0.246
# Mean RMSD: 0.168
data_MOF--net-ocu--node1-HISSIN_clean_sbu_0--node2-GIZVER_clean_sbu_0--edge1-XIVTED_clean_linker_0
_symmetry_space_group_name_H-M    P1
_symmetry_Int_Tables_number       1
_symmetry_cell_setting            triclinic
loop_
_symmetry_equiv_pos_as_xyz
'x, y, z'
_cell_length_a     43.528247
_cell_length_b     46.260776
_cell_length_c     33.266665
_cell_angle_alpha  103.53294
_cell_angle_beta   78.299678
_cell_angle_gamma 111.40033
loop_
_atom_site_label
_atom_site_type_symbol
_atom_site_fract_x
_atom_site_fract_y
_atom_site_fract_z
_atom_type_partial_charge
Eu0 Eu 0.32129 0.27852 0.29571 0.0
Eu1 Eu 0.27352 0.25352 0.21972 0.0
C2 C 0.25746 0.21399 0.29474 0.0
C3 C 0.37728 0.27454 0.36495 0.0
C4 C 0.39282 0.28563 0.40123 0.0
C5 C 0.38928 0.22582 0.35519 0.0
C6 C 0.40635 0.26679 0.41463 0.0
C7 C 0.37581 0.24461 0.34189 0.0
C8 C 0.40437 0.23647 0.39201 0.0
C9 C 0.36138 0.29336 0.35177 0.0
O10 O 0.26162 0.2957 0.26033 0.0
O11 O 0.28009 0.29929 0.32193 0.0
C12 C 0.26228 0.30639 0.30056 0.0
O13 O 0.3354 0.31941 0.26177 0.0
O14 O 0.22472 0.24101 0.19984 0.0
O15 O 0.26781 0.24239 0.15353 0.0
O16 O 0.32105 0.29036 0.19845 0.0
C17 C 0.33713 0.31684 0.22126 0.0
O18 O 0.34482 0.24985 0.24213 0.0
O19 O 0.30043 0.21801 0.20748 0.0
O20 O 0.24583 0.22125 0.2663 0.0
O21 O 0.37136 0.29907 0.31381 0.0
O22 O 0.32905 0.28457 0.36045 0.0
O23 O 0.28715 0.23005 0.30588 0.0
C24 C 0.22764 0.26122 0.14 0.0
C25 C 0.25013 0.29106 0.13371 0.0
C26 C 0.18553 0.27212 0.11354 0.0
C27 C 0.24038 0.31128 0.11762 0.0
C28 C 0.1954 0.25182 0.1294 0.0
C29 C 0.20776 0.30233 0.10792 0.0
C30 C 0.2367 0.24096 0.16059 0.0
C31 C 0.33063 0.22429 0.21612 0.0
H32 H 0.39403 0.30862 0.41952 0.0
H33 H 0.38779 0.20287 0.3366 0.0
H34 H 0.41751 0.2756 0.44329 0.0
H35 H 0.36387 0.2356 0.31378 0.0
H36 H 0.2751 0.29904 0.14198 0.0
H37 H 0.1601 0.26451 0.10706 0.0
H38 H 0.2584 0.33407 0.11313 0.0
H39 H 0.17755 0.22905 0.13444 0.0
Eu40 Eu 0.82442 0.24286 0.24334 0.0
Eu41 Eu 0.77164 0.2838 0.27154 0.0
C42 C 0.82942 0.29646 0.32616 0.0
C43 C 0.8814 0.19504 0.24227 0.0
C44 C 0.89385 0.20916 0.28059 0.0
C45 C 0.90052 0.15129 0.23938 0.0
C46 C 0.90968 0.19442 0.29808 0.0
C47 C 0.88492 0.16606 0.2219 0.0
C48 C 0.91305 0.1652 0.27773 0.0
C49 C 0.86483 0.20987 0.22263 0.0
O50 O 0.81836 0.31519 0.23938 0.0
O51 O 0.84112 0.27812 0.19995 0.0
C52 C 0.84 0.30701 0.20941 0.0
O53 O 0.78199 0.21883 0.2049 0.0
O54 O 0.76045 0.32753 0.29672 0.0
O55 O 0.72081 0.28396 0.27943 0.0
O56 O 0.76635 0.26097 0.20472 0.0
C57 C 0.76581 0.23197 0.18964 0.0
O58 O 0.79104 0.22509 0.29978 0.0
O59 O 0.74581 0.23699 0.29307 0.0
O60 O 0.79817 0.29388 0.32737 0.0
O61 O 0.83259 0.19738 0.22417 0.0
O62 O 0.87479 0.2406 0.22881 0.0
O63 O 0.84533 0.28275 0.29411 0.0
C64 C 0.71464 0.33123 0.27273 0.0
C65 C 0.7115 0.32354 0.22999 0.0
C66 C 0.6883 0.37068 0.2808 0.0
C67 C 0.69656 0.33921 0.21283 0.0
C68 C 0.70308 0.35494 0.29789 0.0
C69 C 0.68475 0.36296 0.2381 0.0
C70 C 0.72903 0.31437 0.29199 0.0
C71 C 0.75901 0.22071 0.30749 0.0
H72 H 0.89128 0.23149 0.29702 0.0
H73 H 0.90309 0.12905 0.22255 0.0
H74 H 0.91877 0.20561 0.32781 0.0
H75 H 0.8756 0.15482 0.19227 0.0
H76 H 0.72042 0.30535 0.20998 0.0
H77 H 0.6791 0.38853 0.30123 0.0
H78 H 0.69453 0.33297 0.17977 0.0
H79 H 0.70518 0.3611 0.33096 0.0
Eu80 Eu 0.80989 0.78788 0.22222 0.0
Eu81 Eu 0.78336 0.74429 0.29619 0.0
C82 C 0.74168 0.72901 0.21831 0.0
C83 C 0.80657 0.83367 0.14444 0.0
C84 C 0.77243 0.82722 0.15819 0.0
C85 C 0.80276 0.86353 0.09554 0.0
C86 C 0.75359 0.83891 0.14085 0.0
C87 C 0.82157 0.85174 0.11287 0.0
C88 C 0.76853 0.85739 0.10945 0.0
C89 C 0.8263 0.82146 0.16305 0.0
O90 O 0.82958 0.73496 0.25954 0.0
O91 O 0.82581 0.7447 0.19696 0.0
C92 C 0.83642 0.73079 0.21877 0.0
O93 O 0.85276 0.80518 0.26132 0.0
O94 O 0.76788 0.69748 0.31227 0.0
O95 O 0.77206 0.73816 0.36134 0.0
O96 O 0.82353 0.7877 0.32162 0.0
C97 C 0.85052 0.8051 0.30148 0.0
O98 O 0.7781 0.81139 0.27123 0.0
O99 O 0.74932 0.77368 0.31253 0.0
O100 O 0.75081 0.71763 0.24495 0.0
O101 O 0.83055 0.83364 0.2019 0.0
O102 O 0.81846 0.79087 0.15611 0.0
O103 O 0.75715 0.75803 0.21181 0.0
C104 C 0.79015 0.69841 0.3712 0.0
C105 C 0.82488 0.71288 0.36555 0.0
C106 C 0.79668 0.66149 0.40723 0.0
C107 C 0.84543 0.70148 0.38023 0.0
C108 C 0.77617 0.67296 0.39261 0.0
C109 C 0.83159 0.67524 0.40053 0.0
C110 C 0.76884 0.7083 0.35202 0.0
C111 C 0.75448 0.80066 0.30107 0.0
H112 H 0.76039 0.81333 0.18262 0.0
H113 H 0.81501 0.87737 0.07113 0.0
H114 H 0.72748 0.83409 0.1528 0.0
H115 H 0.84785 0.85682 0.10171 0.0
H116 H 0.83615 0.73246 0.34875 0.0
H117 H 0.78521 0.64152 0.42326 0.0
H118 H 0.87216 0.7124 0.37417 0.0
H119 H 0.74944 0.66147 0.39717 0.0
Eu120 Eu 0.32085 0.74548 0.24504 0.0
Eu121 Eu 0.27331 0.78817 0.28242 0.0
C122 C 0.25859 0.73859 0.19906 0.0
C123 C 0.35373 0.69255 0.16381 0.0
C124 C 0.32346 0.67295 0.14891 0.0
C125 C 0.38147 0.68915 0.09291 0.0
C126 C 0.32225 0.66157 0.10632 0.0
C127 C 0.38269 0.7004 0.13542 0.0
C128 C 0.35121 0.66973 0.07784 0.0
C129 C 0.35434 0.70859 0.20757 0.0
O130 O 0.244 0.73974 0.29719 0.0
O131 O 0.28794 0.72498 0.3003 0.0
C132 C 0.25605 0.72119 0.30858 0.0
O133 O 0.3485 0.78403 0.29262 0.0
O134 O 0.2261 0.79452 0.31213 0.0
O135 O 0.27018 0.83534 0.30478 0.0
O136 O 0.30195 0.7907 0.33307 0.0
C137 C 0.33397 0.79568 0.32778 0.0
O138 O 0.33504 0.78049 0.2018 0.0
O139 O 0.31875 0.819 0.24759 0.0
O140 O 0.25717 0.76629 0.21897 0.0
O141 O 0.36756 0.73925 0.21286 0.0
O142 O 0.32685 0.69934 0.23266 0.0
O143 O 0.27724 0.72521 0.20898 0.0
C144 C 0.23947 0.83463 0.37048 0.0
C145 C 0.24047 0.81436 0.39548 0.0
C146 C 0.24552 0.87662 0.43034 0.0
C147 C 0.24343 0.82504 0.43783 0.0
C148 C 0.24248 0.8659 0.38806 0.0
C149 C 0.24575 0.85624 0.45583 0.0
C150 C 0.24072 0.8245 0.3252 0.0
C151 C 0.33666 0.81005 0.21363 0.0
H152 H 0.30053 0.66676 0.17002 0.0
H153 H 0.40452 0.69501 0.07194 0.0
H154 H 0.29873 0.64635 0.09568 0.0
H155 H 0.40619 0.7157 0.14607 0.0
H156 H 0.2393 0.7903 0.38221 0.0
H157 H 0.24632 0.90061 0.44332 0.0
H158 H 0.24337 0.80879 0.45661 0.0
H159 H 0.24263 0.88206 0.36905 0.0
Eu160 Eu 0.32633 0.7432 0.7467 0.0
Eu161 Eu 0.27352 0.78423 0.7749 0.0
C162 C 0.33216 0.79508 0.82876 0.0
C163 C 0.38314 0.69526 0.74483 0.0
C164 C 0.39066 0.70528 0.78604 0.0
C165 C 0.40526 0.65277 0.73691 0.0
C166 C 0.40572 0.68927 0.80241 0.0
C167 C 0.39041 0.66885 0.72054 0.0
C168 C 0.41325 0.66286 0.77796 0.0
C169 C 0.36873 0.71241 0.726 0.0
O170 O 0.30752 0.80268 0.71916 0.0
O171 O 0.35242 0.79011 0.72565 0.0
C172 C 0.33952 0.80684 0.71163 0.0
O173 O 0.29991 0.73334 0.69081 0.0
O174 O 0.26522 0.82966 0.79433 0.0
O175 O 0.22311 0.78643 0.78873 0.0
O176 O 0.25274 0.74444 0.72396 0.0
C177 C 0.26867 0.73073 0.69196 0.0
O178 O 0.27982 0.71195 0.77932 0.0
O179 O 0.25645 0.7488 0.81816 0.0
O180 O 0.31566 0.8081 0.81384 0.0
O181 O 0.33731 0.69938 0.72124 0.0
O182 O 0.37709 0.74283 0.73863 0.0
O183 O 0.33189 0.76617 0.81346 0.0
C184 C 0.21681 0.83211 0.77527 0.0
C185 C 0.20532 0.8184 0.73632 0.0
C186 C 0.19737 0.87566 0.7781 0.0
C187 C 0.18982 0.83324 0.71849 0.0
C188 C 0.21266 0.86078 0.79592 0.0
C189 C 0.18581 0.86216 0.73912 0.0
C190 C 0.23303 0.81715 0.79524 0.0
C191 C 0.25798 0.72004 0.80906 0.0
H192 H 0.3851 0.72555 0.80545 0.0
H193 H 0.41108 0.63277 0.71709 0.0
H194 H 0.41121 0.6974 0.83428 0.0
H195 H 0.38491 0.66085 0.68865 0.0
H196 H 0.20841 0.79631 0.71967 0.0
H197 H 0.19428 0.89764 0.79517 0.0
H198 H 0.18148 0.82237 0.68827 0.0
H199 H 0.22122 0.8717 0.82603 0.0
Eu200 Eu 0.31519 0.28578 0.72249 0.0
Eu201 Eu 0.28882 0.24211 0.79518 0.0
C202 C 0.24746 0.22546 0.71774 0.0
C203 C 0.30922 0.33034 0.64557 0.0
C204 C 0.27448 0.31601 0.65147 0.0
C205 C 0.30277 0.36657 0.60828 0.0
C206 C 0.25397 0.32718 0.63634 0.0
C207 C 0.32325 0.35535 0.62338 0.0
C208 C 0.26786 0.35302 0.6153 0.0
C209 C 0.33044 0.32088 0.6655 0.0
O210 O 0.31561 0.21641 0.74143 0.0
O211 O 0.35062 0.25802 0.71026 0.0
C212 C 0.34219 0.22875 0.71592 0.0
O213 O 0.34596 0.3131 0.77512 0.0
O214 O 0.26565 0.19675 0.81622 0.0
O215 O 0.28488 0.23905 0.86077 0.0
O216 O 0.34223 0.27139 0.8036 0.0
C217 C 0.35636 0.30114 0.79977 0.0
O218 O 0.26914 0.29559 0.75856 0.0
O219 O 0.27145 0.28448 0.82098 0.0
O220 O 0.24512 0.2261 0.75809 0.0
O221 O 0.33116 0.33222 0.70518 0.0
O222 O 0.32721 0.291 0.65699 0.0
O223 O 0.27485 0.24211 0.69726 0.0
C224 C 0.29312 0.1932 0.86883 0.0
C225 C 0.29402 0.19698 0.91177 0.0
C226 C 0.33086 0.16306 0.85511 0.0
C227 C 0.31324 0.18393 0.9263 0.0
C228 C 0.31198 0.17634 0.84062 0.0
C229 C 0.33167 0.16661 0.89809 0.0
C230 C 0.27405 0.20832 0.85371 0.0
C231 C 0.26137 0.29887 0.79919 0.0
H232 H 0.26318 0.29679 0.66888 0.0
H233 H 0.31427 0.38624 0.5917 0.0
H234 H 0.22724 0.31643 0.64267 0.0
H235 H 0.34999 0.36672 0.61863 0.0
H236 H 0.27997 0.21018 0.93407 0.0
H237 H 0.34517 0.15024 0.83257 0.0
H238 H 0.31325 0.18692 0.95958 0.0
H239 H 0.31236 0.17356 0.80729 0.0
Eu240 Eu 0.82373 0.23862 0.73487 0.0
Eu241 Eu 0.77833 0.28311 0.7751 0.0
C242 C 0.76267 0.23346 0.69224 0.0
C243 C 0.8536 0.18955 0.64569 0.0
C244 C 0.8521 0.20943 0.62049 0.0
C245 C 0.84725 0.1471 0.58636 0.0
C246 C 0.84886 0.19838 0.57826 0.0
C247 C 0.85048 0.15819 0.62856 0.0
C248 C 0.84692 0.16721 0.56053 0.0
C249 C 0.85371 0.2004 0.69072 0.0
O250 O 0.76482 0.2481 0.81816 0.0
O251 O 0.77798 0.20877 0.77047 0.0
C252 C 0.76161 0.21822 0.80559 0.0
O253 O 0.84214 0.26018 0.79725 0.0
O254 O 0.73179 0.28965 0.80738 0.0
O255 O 0.77374 0.32992 0.79091 0.0
O256 O 0.82261 0.30186 0.80979 0.0
C257 C 0.84138 0.28788 0.81808 0.0
O258 O 0.85399 0.28668 0.71942 0.0
O259 O 0.81098 0.30397 0.71986 0.0
O260 O 0.74914 0.24529 0.72806 0.0
O261 O 0.86948 0.2303 0.70264 0.0
O262 O 0.82463 0.1907 0.71248 0.0
O263 O 0.79456 0.23773 0.68573 0.0
C264 C 0.74556 0.33454 0.85937 0.0
C265 C 0.77553 0.35288 0.87582 0.0
C266 C 0.71617 0.33628 0.92948 0.0
C267 C 0.77576 0.36288 0.91877 0.0
C268 C 0.71594 0.32637 0.88661 0.0
C269 C 0.74608 0.35463 0.94607 0.0
C270 C 0.74569 0.32025 0.8149 0.0
C271 C 0.84249 0.30636 0.70973 0.0
H272 H 0.85337 0.23356 0.63344 0.0
H273 H 0.84668 0.12314 0.57365 0.0
H274 H 0.84876 0.21442 0.55926 0.0
H275 H 0.85071 0.14232 0.64777 0.0
H276 H 0.79893 0.35925 0.8556 0.0
H277 H 0.69263 0.33038 0.94952 0.0
H278 H 0.79906 0.3773 0.93059 0.0
H279 H 0.69263 0.31199 0.87474 0.0
Eu280 Eu 0.82618 0.77568 0.79768 0.0
Eu281 Eu 0.77861 0.75079 0.72145 0.0
C282 C 0.76268 0.71235 0.79559 0.0
C283 C 0.87193 0.76689 0.87601 0.0
C284 C 0.86361 0.73469 0.85888 0.0
C285 C 0.89943 0.75884 0.92715 0.0
C286 C 0.87336 0.71476 0.87545 0.0
C287 C 0.88974 0.77883 0.91036 0.0
C288 C 0.89149 0.72652 0.90978 0.0
C289 C 0.86246 0.78782 0.85731 0.0
O290 O 0.75515 0.77957 0.77512 0.0
O291 O 0.79954 0.81126 0.80988 0.0
C292 C 0.76937 0.80505 0.80125 0.0
O293 O 0.85399 0.80828 0.75152 0.0
O294 O 0.72853 0.72932 0.70349 0.0
O295 O 0.7704 0.74566 0.65708 0.0
O296 O 0.81318 0.79905 0.71089 0.0
C297 C 0.84267 0.8153 0.72256 0.0
O298 O 0.83843 0.73386 0.75679 0.0
O299 O 0.81967 0.72976 0.69517 0.0
O300 O 0.76482 0.70977 0.75504 0.0
O301 O 0.87476 0.7894 0.81842 0.0
O302 O 0.83095 0.78485 0.86408 0.0
O303 O 0.77833 0.73895 0.81851 0.0
C304 C 0.72103 0.75435 0.65402 0.0
C305 C 0.72028 0.78306 0.67922 0.0
C306 C 0.69184 0.76271 0.60497 0.0
C307 C 0.70558 0.80151 0.66739 0.0
C308 C 0.70653 0.74415 0.61697 0.0
C309 C 0.69155 0.79182 0.62983 0.0
C310 C 0.73806 0.73591 0.66591 0.0
C311 C 0.83768 0.72298 0.71663 0.0
H312 H 0.84988 0.72501 0.8323 0.0
H313 H 0.91299 0.76868 0.95386 0.0
H314 H 0.86726 0.69022 0.86069 0.0
H315 H 0.89629 0.80362 0.92407 0.0
H316 H 0.73141 0.7914 0.70793 0.0
H317 H 0.68156 0.75467 0.5757 0.0
H318 H 0.70534 0.82348 0.68769 0.0
H319 H 0.70703 0.72212 0.59702 0.0
Co320 Co 0.08229 0.96328 0.52879 0.0
Co321 Co 0.06619 1.00595 0.58882 0.0
Co322 Co 0.0503 0.01464 0.50848 0.0
O323 O 0.08254 1.00525 0.53214 0.0
H324 H 0.10465 0.02047 0.52857 0.0
O325 O 1.01796 0.02386 0.48479 0.0
Co326 Co 1.01797 0.06561 0.48774 0.0
Co327 Co 1.03425 0.02285 0.42805 0.0
H328 H 0.99589 1.00859 0.48841 0.0
O329 O 0.09152 1.00884 0.62847 0.0
O330 O 0.06201 0.96447 0.58905 0.0
O331 O 1.0234 1.01096 0.60767 0.0
O332 O 1.01071 0.98845 0.54442 0.0
O333 O 0.05486 0.05294 0.55193 0.0
O334 O 1.01268 0.1021 0.48797 0.0
O335 O 0.97766 0.05249 0.47176 0.0
O336 O 0.06135 0.0857 0.50931 0.0
O337 O 0.08987 0.04079 0.47255 0.0
O338 O 0.07723 0.01824 0.40928 0.0
O339 O 1.03811 0.06415 0.42744 0.0
O340 O 1.00872 0.01948 0.38838 0.0
C341 C 0.11537 0.94584 0.54117 0.0
C342 C 1.03305 0.94893 0.47376 0.0
C343 C 1.00227 0.99266 0.58398 0.0
C344 C 0.07994 0.97825 0.61977 0.0
C345 C 0.98468 0.08276 0.47526 0.0
C346 C 0.06739 0.08044 0.54267 0.0
C347 C 0.09833 0.03655 0.43301 0.0
C348 C 1.02012 0.05008 0.39683 0.0
O349 O 0.0874 0.92669 0.52819 0.0
O350 O 0.12253 0.97616 0.54494 0.0
O351 O 1.04585 0.9765 0.46488 0.0
O352 O 1.03885 0.94335 0.50704 0.0
Co353 Co 0.58987 0.95829 0.97361 0.0
Co354 Co 0.59229 0.98765 0.04973 0.0
Co355 Co 0.54928 1.01349 0.00948 0.0
O356 O 0.5893 0.99988 1.00225 0.0
H357 H 0.60973 0.01628 0.99479 0.0
O358 O 0.5092 0.02698 0.01661 0.0
Co359 Co 0.50783 0.06833 0.04499 0.0
Co360 Co 0.50698 0.03955 0.96919 0.0
H361 H 0.48877 1.01039 0.02351 0.0
O362 O 0.63287 0.99185 0.06159 0.0
O363 O 0.59738 0.94893 0.02612 0.0
O364 O 0.55426 0.97998 0.09098 0.0
O365 O 0.52143 0.98581 0.05237 0.0
O366 O 0.56862 0.04923 0.05338 0.0
O367 O 0.50345 0.10467 0.07252 0.0
O368 O 0.46272 0.05783 0.062 0.0
O369 O 0.55546 0.08555 0.03351 0.0
O370 O 0.5774 0.04119 0.96673 0.0
O371 O 0.54522 0.04826 0.92851 0.0
O372 O 0.50003 0.07744 0.9922 0.0
O373 O 0.46682 0.03321 0.95557 0.0
C374 C 0.62509 0.93828 0.94021 0.0
C375 C 0.52308 0.94934 0.96923 0.0
C376 C 0.52555 0.97601 0.08321 0.0
C377 C 0.62485 0.96245 0.04348 0.0
C378 C 0.47209 0.08799 0.07781 0.0
C379 C 0.57501 0.07776 0.04959 0.0
C380 C 0.57373 0.05167 0.93628 0.0
C381 C 0.47343 0.06268 0.97314 0.0
O382 O 0.59368 0.92182 0.94588 0.0
O383 O 0.63484 0.96841 0.95615 0.0
O384 O 0.52981 0.9779 0.96545 0.0
O385 O 0.54233 0.94143 0.9856 0.0
Co386 Co 0.08838 0.45813 0.97362 0.0
Co387 Co 0.09209 0.48798 0.04987 0.0
Co388 Co 1.04862 0.51441 0.01001 0.0
O389 O 0.08855 0.50002 1.0019 0.0
H390 H 0.10898 0.51615 0.99375 0.0
O391 O 1.0087 0.52886 0.01826 0.0
Co392 Co 1.00945 0.57097 0.0463 0.0
Co393 Co 1.00471 0.54051 0.97018 0.0
H394 H 0.98829 0.51289 0.02686 0.0
O395 O 0.13171 0.4869 0.06075 0.0
O396 O 0.09266 0.44747 0.02642 0.0
O397 O 0.05459 0.48266 0.09242 0.0
O398 O 1.02134 0.48683 0.05291 0.0
O399 O 0.06974 0.5499 0.0538 0.0
O400 O 1.00672 0.60815 0.07389 0.0
O401 O 0.96451 0.56244 0.06248 0.0
O402 O 0.05618 0.586 0.03451 0.0
O403 O 0.07577 0.542 0.96699 0.0
O404 O 1.04204 0.54525 0.92732 0.0
O405 O 1.0052 0.58136 0.99348 0.0
O406 O 0.96506 0.54265 0.96023 0.0
C407 C 0.12323 0.43713 0.94148 0.0
C408 C 1.02275 0.45012 0.96727 0.0
C409 C 1.02575 0.47806 0.08443 0.0
C410 C 0.11976 0.4574 0.04399 0.0
C411 C 0.97504 0.59247 0.07876 0.0
C412 C 0.07487 0.57864 0.05224 0.0
C413 C 0.07103 0.55035 0.93529 0.0
C414 C 0.97779 0.57207 0.97682 0.0
O415 O 0.0916 0.42119 0.94578 0.0
O416 O 0.13339 0.46712 0.95798 0.0
O417 O 1.02758 0.4789 0.96623 0.0
O418 O 1.04152 0.44267 0.98479 0.0
Co419 Co 0.58359 0.46536 0.03244 0.0
Co420 Co 0.5642 0.50721 0.09101 0.0
Co421 Co 0.55039 0.514 1.00798 0.0
O422 O 0.58216 0.50656 0.0348 0.0
H423 H 0.60395 0.52241 0.03215 0.0
O424 O 0.5186 0.52137 0.98114 0.0
Co425 Co 0.51684 0.56239 0.98358 0.0
Co426 Co 0.53645 0.52078 0.92489 0.0
H427 H 0.49686 0.50544 0.98374 0.0
O428 O 0.58865 0.51137 0.1325 0.0
O429 O 0.56185 0.46639 0.09181 0.0
O430 O 0.52018 0.5098 0.10709 0.0
O431 O 0.51018 0.48748 0.04269 0.0
O432 O 0.55234 0.5523 0.05049 0.0
O433 O 0.5098 0.59791 0.98304 0.0
O434 O 0.47701 0.54746 0.96583 0.0
O435 O 0.55935 0.58434 1.00687 0.0
O436 O 0.59056 0.54058 0.9733 0.0
O437 O 0.58056 0.51841 0.90883 0.0
O438 O 0.53874 0.56164 0.92436 0.0
O439 O 0.51197 0.51685 0.88339 0.0
C440 C 0.61768 0.44986 0.04632 0.0
C441 C 0.53526 0.44848 0.97545 0.0
C442 C 0.50021 0.49157 0.08189 0.0
C443 C 0.57871 0.48079 0.12331 0.0
C444 C 0.4824 0.57751 0.96986 0.0
C445 C 0.56513 0.57959 0.04069 0.0
C446 C 0.6005 0.53664 0.93408 0.0
C447 C 0.52196 0.54742 0.89279 0.0
O448 O 0.59023 0.4297 0.03302 0.0
O449 O 0.62346 0.47996 0.05013 0.0
O450 O 0.54845 0.4757 0.9655 0.0
O451 O 0.54096 0.44368 0.00929 0.0
Co452 Co 0.10898 0.48327 0.51256 0.0
Co453 Co 0.09006 0.47254 0.44237 0.0
Co454 Co 0.04894 0.51368 0.50872 0.0
O455 O 0.06744 0.47788 0.49503 0.0
H456 H 0.0505 0.4582 0.50018 0.0
O457 O 1.03052 0.54952 0.52227 0.0
Co458 Co 0.98916 0.5442 0.5043 0.0
Co459 Co 1.00789 0.55512 0.5748 0.0
H460 H 1.04752 0.56917 0.51711 0.0
O461 O 0.0895 0.43317 0.41536 0.0
O462 O 0.1284 0.46908 0.45406 0.0
O463 O 0.1026 0.50671 0.41312 0.0
O464 O 0.07804 0.53648 0.46171 0.0
O465 O 1.01403 0.48756 0.47233 0.0
O466 O 0.95316 0.5418 0.48574 0.0
O467 O 0.99983 0.58386 0.49343 0.0
O468 O 0.97245 0.50153 0.51166 0.0
O469 O 1.01973 0.49091 0.55584 0.0
O470 O 0.99545 0.52108 0.60421 0.0
O471 O 0.96957 0.55833 0.56258 0.0
O472 O 1.00813 0.59456 0.60144 0.0
C473 C 0.12847 0.45665 0.53442 0.0
C474 C 0.11482 0.54622 0.53154 0.0
C475 C 0.09693 0.53246 0.4274 0.0
C476 C 0.11805 0.44195 0.42904 0.0
C477 C 0.96998 0.57092 0.48212 0.0
C478 C 0.98313 0.48117 0.48581 0.0
C479 C 1.00091 0.4952 0.59016 0.0
C480 C 0.97972 0.58559 0.58734 0.0
O481 O 0.14515 0.48578 0.53076 0.0
O482 O 0.09854 0.44362 0.52336 0.0
O483 O 0.08391 0.5398 0.54507 0.0
O484 O 0.12547 0.52598 0.50534 0.0
Co485 Co 0.59951 0.97548 0.52024 0.0
Co486 Co 0.59102 0.97314 0.44743 0.0
Co487 Co 0.54798 0.01438 0.51092 0.0
O488 O 0.5632 0.97646 0.49628 0.0
H489 H 0.5445 0.95712 0.49683 0.0
O490 O 0.53262 0.05208 0.52539 0.0
Co491 Co 0.49483 0.05236 0.50377 0.0
Co492 Co 0.50785 0.05712 0.57677 0.0
H493 H 0.55123 0.0713 0.52301 0.0
O494 O 0.58913 0.93456 0.41607 0.0
O495 O 0.62405 0.96379 0.4638 0.0
O496 O 0.60973 1.01002 0.42304 0.0
O497 O 0.58163 0.03866 0.46789 0.0
O498 O 0.51592 0.99299 0.46991 0.0
O499 O 0.46253 0.05622 0.48272 0.0
O500 O 0.51055 0.09382 0.49933 0.0
O501 O 0.47349 1.00818 0.50392 0.0
O502 O 0.51434 0.99034 0.55406 0.0
O503 O 0.49125 0.0211 0.60336 0.0
O504 O 0.47211 0.06292 0.56141 0.0
O505 O 0.5083 0.09691 0.60476 0.0
C506 C 0.6101 0.94248 0.54187 0.0
C507 C 0.61111 0.04095 0.54176 0.0
C508 C 0.60359 0.0356 0.43657 0.0
C509 C 0.61482 0.9393 0.43415 0.0
C510 C 0.48225 0.08534 0.48471 0.0
C511 C 0.48479 0.98722 0.48054 0.0
C512 C 0.49492 0.99457 0.58781 0.0
C513 C 0.48146 0.08942 0.58772 0.0
O514 O 0.63021 0.97143 0.54392 0.0
O515 O 0.58257 0.9341 0.52548 0.0
O516 O 0.58004 0.03582 0.55199 0.0
O517 O 0.62199 0.01941 0.51935 0.0
H518 H 0.20526 0.16378 0.26551 0.0
H519 H 0.14369 0.08999 0.47172 0.0
H520 H 0.26202 0.20136 0.36956 0.0
H521 H 0.12105 0.03604 0.35014 0.0
H522 H 0.1855 0.13245 0.43781 0.0
H523 H 0.1709 0.11866 0.29909 0.0
C524 C 0.21048 0.16258 0.29545 0.0
C525 C 0.23655 0.18642 0.31473 0.0
C526 C 0.17167 0.11106 0.41868 0.0
C527 C 0.19712 0.13484 0.35354 0.0
C528 C 0.14793 0.08672 0.43798 0.0
C529 C 0.1285 0.05941 0.41384 0.0
C530 C 0.1756 0.1082 0.37508 0.0
C531 C 0.13509 0.05669 0.37018 0.0
C532 C 0.19099 0.1367 0.31449 0.0
C533 C 0.24224 0.18346 0.3535 0.0
N534 N 0.15761 0.08091 0.35233 0.0
N535 N 0.22248 0.1583 0.37186 0.0
H536 H 0.89292 0.10244 0.28124 0.0
H537 H 1.04414 0.11395 0.39455 0.0
H538 H 0.9698 0.19062 0.31664 0.0
H539 H 0.96779 0.02737 0.35209 0.0
H540 H 1.01905 0.143 0.36531 0.0
H541 H 0.92074 0.07519 0.30797 0.0
C542 C 0.9158 0.11609 0.29446 0.0
C543 C 0.92919 0.14886 0.29621 0.0
C544 C 1.00802 0.11761 0.36217 0.0
C545 C 0.96139 0.11765 0.32725 0.0
C546 C 1.02238 0.10103 0.37873 0.0
C547 C 1.008 0.06818 0.37595 0.0
C548 C 0.97892 0.1012 0.34316 0.0
C549 C 0.97981 0.05265 0.35508 0.0
C550 C 0.93169 0.1005 0.30988 0.0
C551 C 0.95852 0.16535 0.31473 0.0
N552 N 0.96612 0.06928 0.33992 0.0
N553 N 0.97373 0.14956 0.32938 0.0
H554 H 0.85785 0.80235 0.3803 0.0
H555 H 1.02604 0.95037 0.39474 0.0
H556 H 0.90829 0.85238 0.27835 0.0
H557 H 0.98339 0.89337 0.49097 0.0
H558 H 0.98344 0.91454 0.35204 0.0
H559 H 0.90318 0.83497 0.42094 0.0
C560 C 0.87843 0.82022 0.36631 0.0
C561 C 0.87893 0.82464 0.32565 0.0
C562 C 0.9834 0.90963 0.38232 0.0
C563 C 0.93138 0.86236 0.37265 0.0
C564 C 1.00781 0.93015 0.40692 0.0
C565 C 1.00845 0.92503 0.44679 0.0
C566 C 0.95891 0.88364 0.39751 0.0
C567 C 0.98408 0.89826 0.46047 0.0
C568 C 0.90445 0.83881 0.38967 0.0
C569 C 0.90663 0.84805 0.30944 0.0
N570 N 0.96019 0.87874 0.43604 0.0
N571 N 0.93155 0.86609 0.33302 0.0
H572 H 0.20363 0.82234 0.51445 0.0
H573 H 0.17487 0.97915 0.57136 0.0
H574 H 0.27835 0.91291 0.50327 0.0
H575 H 0.10495 0.88484 0.54616 0.0
H576 H 0.21316 0.95747 0.5885 0.0
H577 H 0.17425 0.84733 0.57403 0.0
C578 C 0.21488 0.84732 0.52565 0.0
C579 C 0.24179 0.86618 0.50169 0.0
C580 C 0.18906 0.94165 0.58027 0.0
C581 C 0.20726 0.89472 0.56773 0.0
C582 C 0.16748 0.9539 0.56965 0.0
C583 C 0.13749 0.93354 0.5551 0.0
C584 C 0.18073 0.90885 0.57569 0.0
C585 C 0.12853 0.90126 0.55527 0.0
C586 C 0.19787 0.86167 0.55974 0.0
C587 C 0.25601 0.89799 0.51911 0.0
N588 N 0.1503 0.88988 0.56467 0.0
N589 N 0.23768 0.91176 0.55017 0.0
H590 H 0.20549 0.92514 0.73714 0.0
H591 H 0.05675 0.914 0.61953 0.0
H592 H 0.13023 0.83675 0.69792 0.0
H593 H 0.13084 1.00068 0.6669 0.0
H594 H 0.08175 0.88465 0.64835 0.0
H595 H 0.178 0.95251 0.71009 0.0
C596 C 0.18303 0.91146 0.72301 0.0
C597 C 0.16998 0.8786 0.72032 0.0
C598 C 0.09229 0.91012 0.65265 0.0
C599 C 0.13816 0.90996 0.68891 0.0
C600 C 0.07796 0.92687 0.63635 0.0
C601 C 0.09179 0.95986 0.64056 0.0
C602 C 0.12072 0.9265 0.67299 0.0
C603 C 0.11927 0.9753 0.66272 0.0
C604 C 0.16733 0.92713 0.70741 0.0
C605 C 0.14123 0.86211 0.70061 0.0
N606 N 0.13291 0.95852 0.67769 0.0
N607 N 0.12618 0.87797 0.68583 0.0
H608 H 0.18973 0.17913 0.74253 0.0
H609 H 0.11585 0.13614 0.52435 0.0
H610 H 0.24007 0.22642 0.63813 0.0
H611 H 0.07571 0.0799 0.6216 0.0
H612 H 0.15847 0.17286 0.56787 0.0
H613 H 0.14469 0.14585 0.70103 0.0
C614 C 0.19131 0.18265 0.71102 0.0
C615 C 0.21899 0.20556 0.69389 0.0
C616 C 0.14018 0.15255 0.57971 0.0
C617 C 0.16725 0.16748 0.64599 0.0
C618 C 0.11571 0.13167 0.55493 0.0
C619 C 0.09208 0.10478 0.56915 0.0
C620 C 0.14087 0.14669 0.6192 0.0
C621 C 0.09342 0.10016 0.60907 0.0
C622 C 0.16558 0.16356 0.68723 0.0
C623 C 0.21947 0.20893 0.6527 0.0
N624 N 0.11727 0.12077 0.6325 0.0
N625 N 0.19412 0.19018 0.63029 0.0
H626 H 0.81663 0.10999 0.51244 0.0
H627 H 0.99614 0.14288 0.46509 0.0
H628 H 0.88897 0.20184 0.50245 0.0
H629 H 0.92327 0.04943 0.45054 0.0
H630 H 0.95722 0.163 0.4473 0.0
H631 H 0.84943 0.08685 0.45472 0.0
C632 C 0.8387 0.12549 0.49689 0.0
C633 C 0.85191 0.15739 0.51469 0.0
C634 C 0.94971 0.13797 0.44743 0.0
C635 C 0.88993 0.13122 0.45036 0.0
C636 C 0.97182 0.1266 0.45834 0.0
C637 C 0.96223 0.09477 0.46152 0.0
C638 C 0.91712 0.11771 0.44189 0.0
C639 C 0.93112 0.07446 0.4503 0.0
C640 C 0.85761 0.11227 0.4639 0.0
C641 C 0.87914 0.17667 0.49167 0.0
N642 N 0.9093 0.08642 0.44213 0.0
N643 N 0.89826 0.16312 0.46161 0.0
H644 H 0.8947 0.86565 0.75205 0.0
H645 H 0.95685 0.93919 0.54536 0.0
H646 H 0.83866 0.82772 0.64733 0.0
H647 H 0.97977 0.99303 0.66689 0.0
H648 H 0.91506 0.89673 0.5793 0.0
H649 H 0.92929 0.91067 0.71838 0.0
C650 C 0.88968 0.86675 0.72195 0.0
C651 C 0.86374 0.84283 0.70252 0.0
C652 C 0.92895 0.9181 0.59841 0.0
C653 C 0.90344 0.89432 0.6636 0.0
C654 C 0.95268 0.94243 0.57909 0.0
C655 C 0.97217 0.96973 0.6032 0.0
C656 C 0.92508 0.92093 0.64202 0.0
C657 C 0.96568 0.9724 0.64686 0.0
C658 C 0.90931 0.89257 0.70285 0.0
C659 C 0.85833 0.84568 0.66353 0.0
N660 N 0.94315 0.94819 0.66473 0.0
N661 N 0.87821 0.87079 0.64514 0.0
H662 H 0.39312 0.23026 0.22801 0.0
H663 H 0.40459 0.07154 0.0728 0.0
H664 H 0.31244 0.16835 0.15914 0.0
H665 H 0.48542 0.1428 0.13329 0.0
H666 H 0.36833 0.10327 0.10669 0.0
H667 H 0.42504 0.19544 0.19625 0.0
C668 C 0.38201 0.20935 0.20608 0.0
C669 C 0.34994 0.20253 0.19617 0.0
C670 C 0.39396 0.11175 0.11266 0.0
C671 C 0.38689 0.16191 0.15928 0.0
C672 C 0.41457 0.09354 0.09359 0.0
C673 C 0.44812 0.10444 0.10027 0.0
C674 C 0.40699 0.14087 0.13882 0.0
C675 C 0.45982 0.13339 0.12701 0.0
C676 C 0.40039 0.18932 0.18787 0.0
C677 C 0.33709 0.17473 0.16764 0.0
N678 N 0.43941 0.15041 0.14513 0.0
N679 N 0.3556 0.15547 0.15016 0.0
H680 H 0.90201 0.30765 0.17174 0.0
H681 H 0.95892 0.46821 0.08758 0.0
H682 H 0.83691 0.36319 0.19959 0.0
H683 H 1.02668 0.43762 0.13181 0.0
H684 H 0.91203 0.42665 0.11754 0.0
H685 H 0.94642 0.3511 0.1433 0.0
C686 C 0.89689 0.32879 0.17132 0.0
C687 C 0.86572 0.33182 0.1881 0.0
C688 C 0.93723 0.42942 0.12094 0.0
C689 C 0.91644 0.38157 0.15556 0.0
C690 C 0.96394 0.45312 0.10403 0.0
C691 C 0.99684 0.45657 0.10732 0.0
C692 C 0.94358 0.40857 0.14017 0.0
C693 C 1.00184 0.43612 0.12872 0.0
C694 C 0.92234 0.35367 0.15546 0.0
C695 C 0.86064 0.35996 0.18709 0.0
N696 N 0.97558 0.41278 0.14375 0.0
N697 N 0.88573 0.38376 0.17089 0.0
H698 H 0.78766 0.91665 0.09077 0.0
H699 H 0.61069 0.89791 0.03149 0.0
H700 H 0.70423 0.82998 0.09002 0.0
H701 H 0.68939 0.98657 0.05807 0.0
H702 H 0.64679 0.87043 0.04159 0.0
H703 H 0.75419 0.94026 0.06737 0.0
C704 C 0.76242 0.9024 0.0852 0.0
C705 C 0.74879 0.87127 0.09264 0.0
C706 C 0.65612 0.89589 0.04492 0.0
C707 C 0.70993 0.89846 0.06622 0.0
C708 C 0.6356 0.91154 0.03901 0.0
C709 C 0.64683 0.94462 0.04463 0.0
C710 C 0.68816 0.91347 0.056 0.0
C711 C 0.67941 0.96109 0.05412 0.0
C712 C 0.74319 0.916 0.07209 0.0
C713 C 0.71566 0.85421 0.08535 0.0
N714 N 0.69877 0.94541 0.05965 0.0
N715 N 0.69733 0.86804 0.07271 0.0
H716 H 0.26235 0.68608 0.14381 0.0
H717 H 0.08512 0.64182 0.07041 0.0
H718 H 0.20256 0.74686 0.18415 0.0
H719 H 0.13037 0.57326 0.07237 0.0
H720 H 0.13269 0.68371 0.09931 0.0
H721 H 0.2194 0.64845 0.10309 0.0
C722 C 0.24034 0.69172 0.14374 0.0
C723 C 0.23575 0.7194 0.16814 0.0
C724 C 0.1322 0.65951 0.09326 0.0
C725 C 0.18642 0.67626 0.12147 0.0
C726 C 0.10514 0.63558 0.07675 0.0
C727 C 0.10373 0.60396 0.06924 0.0
C728 C 0.15822 0.65182 0.10179 0.0
C729 C 0.13031 0.59726 0.07804 0.0
C730 C 0.21579 0.67013 0.12055 0.0
C731 C 0.20701 0.72571 0.16605 0.0
N732 N 0.15653 0.62104 0.09383 0.0
N733 N 0.18316 0.70407 0.14343 0.0
H734 H 0.3778 0.78022 0.85908 0.0
H735 H 0.47003 0.96005 0.95159 0.0
H736 H 0.33956 0.85577 0.8677 0.0
H737 H 0.50441 0.88468 0.95705 0.0
H738 H 0.41989 0.92116 0.92564 0.0
H739 H 0.42155 0.81668 0.90033 0.0
C740 C 0.37822 0.8043 0.87019 0.0
C741 C 0.35516 0.81502 0.85941 0.0
C742 C 0.43823 0.91302 0.93274 0.0
C743 C 0.4054 0.85691 0.90621 0.0
C744 C 0.46701 0.93527 0.94742 0.0
C745 C 0.49169 0.92562 0.95602 0.0
C746 C 0.4341 0.88077 0.9261 0.0
C747 C 0.4861 0.89315 0.95058 0.0
C748 C 0.4033 0.82513 0.89364 0.0
C749 C 0.35696 0.84648 0.87479 0.0
N750 N 0.45804 0.87186 0.9355 0.0
N751 N 0.38184 0.86634 0.89695 0.0
H752 H 0.21974 0.31603 0.76529 0.0
H753 H 0.18429 0.44304 0.96089 0.0
H754 H 0.25759 0.32961 0.88097 0.0
H755 H 0.11459 0.39141 0.87265 0.0
H756 H 0.21876 0.40956 0.92707 0.0
H757 H 0.18805 0.35131 0.79928 0.0
C758 C 0.22141 0.32641 0.79787 0.0
C759 C 0.24123 0.31958 0.82033 0.0
C760 C 0.19604 0.40583 0.91501 0.0
C761 C 0.20539 0.36072 0.85931 0.0
C762 C 0.1766 0.42511 0.93397 0.0
C763 C 0.14669 0.42015 0.9193 0.0
C764 C 0.18586 0.38202 0.88054 0.0
C765 C 0.13751 0.39612 0.88487 0.0
C766 C 0.20326 0.34656 0.81726 0.0
C767 C 0.24238 0.33391 0.86254 0.0
N768 N 0.15706 0.37819 0.86654 0.0
N769 N 0.22493 0.35398 0.88059 0.0
H770 H 0.70525 0.22311 0.85614 0.0
H771 H 0.64007 0.05736 0.92852 0.0
H772 H 0.76024 0.15868 0.80717 0.0
H773 H 0.57447 0.09672 0.89574 0.0
H774 H 0.68805 0.0981 0.89821 0.0
H775 H 0.66054 0.18127 0.88762 0.0
C776 C 0.70819 0.20034 0.85261 0.0
C777 C 0.73646 0.19432 0.8289 0.0
C778 C 0.66304 0.09746 0.89751 0.0
C779 C 0.68553 0.14653 0.86507 0.0
C780 C 0.63573 0.07427 0.91462 0.0
C781 C 0.60314 0.07338 0.91432 0.0
C782 C 0.65764 0.12043 0.88135 0.0
C783 C 0.59902 0.09613 0.89628 0.0
C784 C 0.68258 0.17645 0.87028 0.0
C785 C 0.73875 0.16422 0.82506 0.0
N786 N 0.62588 0.1189 0.88108 0.0
N787 N 0.71365 0.1414 0.8431 0.0
H788 H 0.95073 0.7395 0.93936 0.0
H789 H 0.9175 0.56019 0.95191 0.0
H790 H 0.8578 0.66463 0.91823 0.0
H791 H 1.00303 0.63679 0.99493 0.0
H792 H 0.89472 0.59846 0.94133 0.0
H793 H 0.96976 0.70296 0.96195 0.0
C794 C 0.93411 0.71552 0.93991 0.0
C795 C 0.90264 0.70518 0.92643 0.0
C796 C 0.91837 0.60696 0.95335 0.0
C797 C 0.92463 0.66297 0.95169 0.0
C798 C 0.93145 0.58508 0.95934 0.0
C799 C 0.96245 0.59524 0.97387 0.0
C800 C 0.93652 0.63934 0.9615 0.0
C801 C 0.97917 0.62785 0.98338 0.0
C802 C 0.94511 0.6946 0.95264 0.0
C803 C 0.88251 0.67361 0.9274 0.0
N804 N 0.96617 0.64872 0.97661 0.0
N805 N 0.89393 0.65366 0.93946 0.0
H806 H 0.16477 0.29 0.05044 0.0
H807 H 0.17453 0.47015 0.08199 0.0
H808 H 0.22489 0.36647 0.13381 0.0
H809 H 0.1012 0.39323 0.01551 0.0
H810 H 0.19776 0.43269 0.09372 0.0
H811 H 0.14511 0.32753 0.03095 0.0
C812 C 0.17387 0.31461 0.0647 0.0
C813 C 0.19659 0.32493 0.09395 0.0
C814 C 0.17665 0.42395 0.07644 0.0
C815 C 0.17442 0.36812 0.07123 0.0
C816 C 0.16337 0.44538 0.06962 0.0
C817 C 0.13557 0.43486 0.04811 0.0
C818 C 0.16219 0.3916 0.06162 0.0
C819 C 0.12244 0.40242 0.03258 0.0
C820 C 0.16273 0.33604 0.05335 0.0
C821 C 0.20785 0.3573 0.11069 0.0
N822 N 0.13576 0.38192 0.03981 0.0
N823 N 0.19662 0.37761 0.09919 0.0
H824 H 0.26277 0.66532 0.82152 0.0
H825 H 0.06905 0.58876 0.88547 0.0
H826 H 0.1949 0.71764 0.84413 0.0
H827 H 0.13823 0.56234 0.93346 0.0
H828 H 0.11562 0.62999 0.85623 0.0
H829 H 0.21807 0.62214 0.85112 0.0
C830 C 0.23858 0.66782 0.83299 0.0
C831 C 0.23255 0.69517 0.83053 0.0
C832 C 0.12059 0.61499 0.87289 0.0
C833 C 0.18137 0.64566 0.86309 0.0
C834 C 0.09405 0.59116 0.88926 0.0
C835 C 0.09964 0.57192 0.91206 0.0
C836 C 0.15314 0.61941 0.87856 0.0
C837 C 0.13274 0.57659 0.91614 0.0
C838 C 0.21318 0.64322 0.84982 0.0
C839 C 0.20074 0.69714 0.84575 0.0
N840 N 0.15831 0.59984 0.89945 0.0
N841 N 0.17624 0.67256 0.86086 0.0
H842 H 0.3332 0.10677 0.87195 0.0
H843 H 0.47801 0.12553 1.00063 0.0
H844 H 0.37423 0.19195 0.95821 0.0
H845 H 0.41777 0.03749 0.93452 0.0
H846 H 0.44209 0.15162 0.9862 0.0
H847 H 0.36634 0.0823 0.89407 0.0
C848 C 0.3493 0.12036 0.89555 0.0
C849 C 0.35109 0.1515 0.91303 0.0
C850 C 0.4368 0.12656 0.97514 0.0
C851 C 0.38932 0.1235 0.9389 0.0
C852 C 0.45728 0.11168 0.98332 0.0
C853 C 0.45128 0.07932 0.96829 0.0
C854 C 0.4104 0.10892 0.95157 0.0
C855 C 0.42382 0.06252 0.94639 0.0
C856 C 0.36813 0.10632 0.90843 0.0
C857 C 0.37204 0.16781 0.94405 0.0
N858 N 0.40473 0.07751 0.9385 0.0
N859 N 0.39059 0.15371 0.95581 0.0
H860 H 0.89903 0.28002 0.82825 0.0
H861 H 0.96649 0.4553 0.94939 0.0
H862 H 0.8374 0.33854 0.87691 0.0
H863 H 1.01413 0.38729 0.94502 0.0
H864 H 0.91985 0.41272 0.91943 0.0
H865 H 0.94222 0.31822 0.86959 0.0
C866 C 0.8943 0.30051 0.84818 0.0
C867 C 0.86485 0.30643 0.84854 0.0
C868 C 0.94043 0.4071 0.92531 0.0
C869 C 0.9141 0.35026 0.89491 0.0
C870 C 0.96712 0.43143 0.9421 0.0
C871 C 0.9942 0.42481 0.94955 0.0
C872 C 0.94111 0.37605 0.91525 0.0
C873 C 0.99365 0.39339 0.93981 0.0
C874 C 0.91898 0.32236 0.87155 0.0
C875 C 0.86002 0.33338 0.87491 0.0
N876 N 0.96765 0.37017 0.92277 0.0
N877 N 0.88457 0.35451 0.8965 0.0
H878 H 0.78822 0.86079 0.85805 0.0
H879 H 0.61091 0.88391 0.88407 0.0
H880 H 0.70649 0.79915 0.79078 0.0
H881 H 0.69259 0.95392 0.94435 0.0
H882 H 0.64688 0.85326 0.85018 0.0
H883 H 0.75511 0.89545 0.89059 0.0
C884 C 0.7634 0.85449 0.85007 0.0
C885 C 0.75018 0.82678 0.82165 0.0
C886 C 0.65723 0.87538 0.87056 0.0
C887 C 0.71221 0.86647 0.85877 0.0
C888 C 0.6366 0.89299 0.89002 0.0
C889 C 0.64869 0.92166 0.91709 0.0
C890 C 0.69046 0.88608 0.87828 0.0
C891 C 0.6823 0.93212 0.92339 0.0
C892 C 0.74455 0.87436 0.86862 0.0
C893 C 0.71788 0.82004 0.81253 0.0
N894 N 0.702 0.91421 0.90435 0.0
N895 N 0.70016 0.83959 0.83101 0.0
H896 H 0.83945 0.70021 0.13699 0.0
H897 H 0.98473 0.63796 0.14768 0.0
H898 H 0.87784 0.71262 0.25193 0.0
H899 H 0.91384 0.58751 0.0606 0.0
H900 H 0.95011 0.67052 0.18182 0.0
H901 H 0.87083 0.66414 0.1036 0.0
C902 C 0.85459 0.69554 0.15516 0.0
C903 C 0.85604 0.70964 0.19738 0.0
C904 C 0.94192 0.65217 0.15548 0.0
C905 C 0.89216 0.66853 0.15919 0.0
C906 C 0.96165 0.63355 0.13598 0.0
C907 C 0.95197 0.60972 0.10155 0.0
C908 C 0.91259 0.64772 0.13982 0.0
C909 C 0.92195 0.60528 0.08748 0.0
C910 C 0.87227 0.67475 0.13613 0.0
C911 C 0.87589 0.70239 0.21938 0.0
N912 N 0.9035 0.62437 0.10633 0.0
N913 N 0.89334 0.68266 0.19998 0.0
H914 H 0.33515 0.86792 0.20865 0.0
H915 H 0.52617 0.93425 0.1286 0.0
H916 H 0.39565 0.80789 0.16799 0.0
H917 H 0.45862 0.9673 0.08806 0.0
H918 H 0.47871 0.8938 0.15786 0.0
H919 H 0.38002 0.90987 0.17672 0.0
C920 C 0.35771 0.86348 0.19271 0.0
C921 C 0.36167 0.83435 0.19085 0.0
C922 C 0.4743 0.91006 0.1428 0.0
C923 C 0.41311 0.88234 0.15564 0.0
C924 C 0.50136 0.93344 0.12643 0.0
C925 C 0.49648 0.9544 0.10582 0.0
C926 C 0.44192 0.90783 0.13948 0.0
C927 C 0.46356 0.95171 0.10371 0.0
C928 C 0.38318 0.88736 0.17454 0.0
C929 C 0.39143 0.82986 0.1699 0.0
N930 N 0.43744 0.9289 0.12056 0.0
N931 N 0.41619 0.85376 0.1537 0.0
H932 H 0.72016 0.24694 0.15952 0.0
H933 H 0.62881 0.0673 0.06533 0.0
H934 H 0.75865 0.17144 0.15023 0.0
H935 H 0.5931 0.14241 0.0626 0.0
H936 H 0.67903 0.10629 0.09088 0.0
H937 H 0.67655 0.2106 0.118 0.0
C938 C 0.71982 0.22289 0.1482 0.0
C939 C 0.74289 0.21213 0.15888 0.0
C940 C 0.66038 0.11436 0.08446 0.0
C941 C 0.69282 0.1704 0.11177 0.0
C942 C 0.63156 0.09206 0.07001 0.0
C943 C 0.60647 0.10159 0.06235 0.0
C944 C 0.66415 0.14655 0.09183 0.0
C945 C 0.61173 0.13403 0.06837 0.0
C946 C 0.69482 0.20213 0.1246 0.0
C947 C 0.74121 0.18074 0.14324 0.0
N948 N 0.63985 0.15537 0.08324 0.0
N949 N 0.71641 0.16094 0.12091 0.0
H950 H 0.72997 0.65187 0.75892 0.0
H951 H 0.6401 0.59313 0.97425 0.0
H952 H 0.74878 0.71009 0.87932 0.0
H953 H 0.63073 0.5331 0.85348 0.0
H954 H 0.68313 0.63508 0.9411 0.0
H955 H 0.69568 0.60739 0.79362 0.0
C956 C 0.72693 0.65535 0.79265 0.0
C957 C 0.74213 0.68492 0.81616 0.0
C958 C 0.67199 0.61256 0.92196 0.0
C959 C 0.70282 0.63388 0.85628 0.0
C960 C 0.64759 0.58847 0.94095 0.0
C961 C 0.63148 0.55956 0.91661 0.0
C962 C 0.68027 0.60774 0.87833 0.0
C963 C 0.64217 0.55505 0.8735 0.0
C964 C 0.70742 0.62985 0.8125 0.0
C965 C 0.73743 0.68782 0.85984 0.0
N966 N 0.66552 0.57895 0.85576 0.0
N967 N 0.71805 0.66272 0.87846 0.0
H968 H 0.39873 0.59913 0.76898 0.0
H969 H 0.5435 0.61144 0.8942 0.0
H970 H 0.46495 0.68784 0.82531 0.0
H971 H 0.47162 0.52395 0.84453 0.0
H972 H 0.51794 0.6402 0.86548 0.0
H973 H 0.42717 0.57149 0.79412 0.0
C974 C 0.41937 0.61282 0.78652 0.0
C975 C 0.42958 0.64588 0.79482 0.0
C976 C 0.50796 0.61469 0.86065 0.0
C977 C 0.46234 0.61429 0.82393 0.0
C978 C 0.52262 0.59828 0.87688 0.0
C979 C 0.50961 0.56526 0.87191 0.0
C980 C 0.48 0.59792 0.83958 0.0
C981 C 0.48253 0.54939 0.84918 0.0
C982 C 0.43556 0.59701 0.80102 0.0
C983 C 0.4561 0.66233 0.81843 0.0
N984 N 0.46851 0.56586 0.8342 0.0
N985 N 0.47165 0.64638 0.83204 0.0
H986 H 0.39639 0.36198 0.79412 0.0
H987 H 0.49383 0.38819 0.98789 0.0
H988 H 0.37923 0.28773 0.86248 0.0
H989 H 0.51835 0.45396 0.90371 0.0
H990 H 0.45087 0.35111 0.94481 0.0
H991 H 0.44008 0.39619 0.83642 0.0
C992 C 0.40183 0.35277 0.81794 0.0
C993 C 0.38399 0.32179 0.82452 0.0
C994 C 0.46585 0.37365 0.93582 0.0
C995 C 0.43428 0.36124 0.87373 0.0
C996 C 0.49041 0.3948 0.96037 0.0
C997 C 0.50992 0.42437 0.94962 0.0
C998 C 0.46064 0.3822 0.90041 0.0
C999 C 0.5041 0.4316 0.91359 0.0
C1000 C 0.4269 0.37238 0.84218 0.0
C1001 C 0.39235 0.31137 0.85607 0.0
N1002 N 0.4801 0.41085 0.89063 0.0
N1003 N 0.41674 0.33104 0.87958 0.0
H1004 H 0.71117 0.32712 0.01396 0.0
H1005 H 0.67931 0.48482 0.06967 0.0
H1006 H 0.77757 0.41579 0.9807 0.0
H1007 H 0.60903 0.39007 0.05515 0.0
H1008 H 0.72114 0.46439 0.07997 0.0
H1009 H 0.68571 0.35582 0.07442 0.0
C1010 C 0.72139 0.35264 0.02039 0.0
C1011 C 0.74462 0.36922 0.99071 0.0
C1012 C 0.69621 0.44828 0.07589 0.0
C1013 C 0.71536 0.40176 0.05857 0.0
C1014 C 0.67251 0.45979 0.06927 0.0
C1015 C 0.64132 0.4388 0.05914 0.0
C1016 C 0.68859 0.41562 0.07204 0.0
C1017 C 0.63336 0.40687 0.06074 0.0
C1018 C 0.70694 0.36901 0.055 0.0
C1019 C 0.75832 0.40207 1.00161 0.0
N1020 N 0.65706 0.39617 0.06624 0.0
N1021 N 0.74255 0.41747 0.034 0.0
H1022 H 0.63958 0.33805 0.18144 0.0
H1023 H 0.6282 0.50495 0.17291 0.0
H1024 H 0.69325 0.42599 0.25427 0.0
H1025 H 0.55859 0.41667 0.12098 0.0
H1026 H 0.65352 0.47606 0.20058 0.0
H1027 H 0.61201 0.36619 0.15497 0.0
C1028 C 0.64569 0.36327 0.19171 0.0
C1029 C 0.66863 0.37965 0.22037 0.0
C1030 C 0.63251 0.46293 0.1835 0.0
C1031 C 0.63687 0.41185 0.19062 0.0
C1032 C 0.61786 0.47944 0.16781 0.0
C1033 C 0.59128 0.4632 0.14435 0.0
C1034 C 0.62056 0.42984 0.17584 0.0
C1035 C 0.57913 0.43012 0.13873 0.0
C1036 C 0.62971 0.37924 0.17689 0.0
C1037 C 0.67536 0.41229 0.2328 0.0
N1038 N 0.59401 0.41448 0.15414 0.0
N1039 N 0.65961 0.42726 0.21786 0.0
H1040 H 0.70001 0.66903 0.22655 0.0
H1041 H 0.6065 0.6398 0.028 0.0
H1042 H 0.72037 0.74114 0.15326 0.0
H1043 H 0.58075 0.57498 0.11376 0.0
H1044 H 0.64863 0.67744 0.0718 0.0
H1045 H 0.65665 0.63437 0.184 0.0
C1046 C 0.69533 0.67769 0.20162 0.0
C1047 C 0.71403 0.70818 0.19368 0.0
C1048 C 0.63357 0.655 0.08099 0.0
C1049 C 0.66413 0.6682 0.14417 0.0
C1050 C 0.60947 0.63352 0.05602 0.0
C1051 C 0.58989 0.60404 0.06699 0.0
C1052 C 0.6382 0.64688 0.11708 0.0
C1053 C 0.59511 0.59726 0.10368 0.0
C1054 C 0.67046 0.65781 0.17721 0.0
C1055 C 0.70661 0.71789 0.16073 0.0
N1056 N 0.61865 0.61832 0.12708 0.0
N1057 N 0.68241 0.69796 0.13712 0.0
H1058 H 0.32065 0.60779 0.04569 0.0
H1059 H 0.49077 0.63652 0.95811 0.0
H1060 H 0.38282 0.69627 1.0082 0.0
H1061 H 0.41943 0.54241 0.95154 0.0
H1062 H 0.44788 0.65544 0.94901 0.0
H1063 H 0.34514 0.58015 0.98402 0.0
C1064 C 0.33845 0.62146 0.02352 0.0
C1065 C 0.35171 0.6544 0.03352 0.0
C1066 C 0.44152 0.63049 0.94872 0.0
C1067 C 0.38114 0.62305 0.96443 0.0
C1068 C 0.46602 0.61979 0.95458 0.0
C1069 C 0.45811 0.58822 0.95793 0.0
C1070 C 0.40847 0.60982 0.94879 0.0
C1071 C 0.42616 0.56728 0.95103 0.0
C1072 C 0.3527 0.6056 0.98814 0.0
C1073 C 0.37369 0.67073 1.00284 0.0
N1074 N 0.40214 0.57863 0.94818 0.0
N1075 N 0.38891 0.65493 0.9703 0.0
H1076 H 0.37082 0.37709 0.25763 0.0
H1077 H 0.46021 0.4352 0.04194 0.0
H1078 H 0.3502 0.31914 0.13753 0.0
H1079 H 0.47008 0.49546 0.16252 0.0
H1080 H 0.4169 0.39353 0.07532 0.0
H1081 H 0.4053 0.42139 0.22272 0.0
C1082 C 0.37349 0.37364 0.22393 0.0
C1083 C 0.35774 0.34419 0.20056 0.0
C1084 C 0.42821 0.41605 0.09436 0.0
C1085 C 0.3973 0.39501 0.16019 0.0
C1086 C 0.45278 0.43997 0.07525 0.0
C1087 C 0.46911 0.46885 0.09946 0.0
C1088 C 0.42 0.421 0.13799 0.0
C1089 C 0.45848 0.47352 0.14258 0.0
C1090 C 0.39312 0.39903 0.20396 0.0
C1091 C 0.362 0.34131 0.1569 0.0
N1092 N 0.43497 0.44977 0.16044 0.0
N1093 N 0.38152 0.3663 0.13815 0.0
H1094 H 0.88597 0.71353 0.74772 0.0
H1095 H 0.92144 0.58095 0.56021 0.0
H1096 H 0.83589 0.68504 0.63822 0.0
H1097 H 0.9881 0.63579 0.65128 0.0
H1098 H 0.88632 0.61434 0.58942 0.0
H1099 H 0.91947 0.68023 0.71474 0.0
C1100 C 0.88189 0.70023 0.71668 0.0
C1101 C 0.85794 0.70229 0.69581 0.0
C1102 C 0.90871 0.619 0.60279 0.0
C1103 C 0.89666 0.66358 0.65753 0.0
C1104 C 0.92875 0.59992 0.58621 0.0
C1105 C 0.95787 0.60542 0.60325 0.0
C1106 C 0.91755 0.64335 0.63713 0.0
C1107 C 0.96602 0.63047 0.63692 0.0
C1108 C 0.90124 0.68122 0.69773 0.0
C1109 C 0.8541 0.68434 0.65548 0.0
N1110 N 0.94596 0.64819 0.65278 0.0
N1111 N 0.87314 0.66562 0.63771 0.0
H1112 H 0.40349 0.81472 0.67403 0.0
H1113 H 0.43949 0.99043 0.6452 0.0
H1114 H 0.32744 0.85819 0.69997 0.0
H1115 H 0.50034 0.9354 0.57402 0.0
H1116 H 0.40145 0.9439 0.67297 0.0
H1117 H 0.44208 0.86006 0.64322 0.0
C1118 C 0.39483 0.83369 0.67301 0.0
C1119 C 0.36216 0.83266 0.68962 0.0
C1120 C 0.42315 0.94201 0.65133 0.0
C1121 C 0.40635 0.88474 0.65512 0.0
C1122 C 0.4451 0.96866 0.63569 0.0
C1123 C 0.47331 0.96692 0.60724 0.0
C1124 C 0.42952 0.91339 0.63899 0.0
C1125 C 0.47895 0.93786 0.59586 0.0
C1126 C 0.41686 0.8595 0.65539 0.0
C1127 C 0.35231 0.85788 0.68738 0.0
N1128 N 0.45731 0.91224 0.61193 0.0
N1129 N 0.37441 0.88302 0.67087 0.0
H1130 H 0.27665 0.4155 0.62389 0.0
H1131 H 0.11396 0.39203 0.52479 0.0
H1132 H 0.20916 0.32318 0.58058 0.0
H1133 H 0.1813 0.48145 0.57756 0.0
H1134 H 0.14671 0.36524 0.54504 0.0
H1135 H 0.24097 0.43917 0.60595 0.0
C1136 C 0.25444 0.40016 0.61016 0.0
C1137 C 0.24613 0.36728 0.60338 0.0
C1138 C 0.15405 0.39071 0.55236 0.0
C1139 C 0.20445 0.39439 0.58322 0.0
C1140 C 0.13528 0.40595 0.54104 0.0
C1141 C 0.14498 0.43901 0.54937 0.0
C1142 C 0.18251 0.40878 0.57212 0.0
C1143 C 0.17299 0.45594 0.57013 0.0
C1144 C 0.23382 0.41371 0.60022 0.0
C1145 C 0.21648 0.34865 0.58646 0.0
N1146 N 0.1907 0.44069 0.58058 0.0
N1147 N 0.19672 0.36246 0.5768 0.0
H1148 H 0.69599 0.22022 0.69261 0.0
H1149 H 0.67946 0.06186 0.52729 0.0
H1150 H 0.78037 0.19547 0.62193 0.0
H1151 H 0.59613 0.09191 0.58953 0.0
H1152 H 0.7173 0.11314 0.55607 0.0
H1153 H 0.65948 0.17644 0.64893 0.0
C1154 C 0.70692 0.20591 0.66746 0.0
C1155 C 0.74125 0.21127 0.66129 0.0
C1156 C 0.69073 0.10857 0.56312 0.0
C1157 C 0.69956 0.16076 0.61161 0.0
C1158 C 0.66911 0.07925 0.54683 0.0
C1159 C 0.63457 0.07236 0.55661 0.0
C1160 C 0.67767 0.13105 0.5895 0.0
C1161 C 0.62257 0.09596 0.58164 0.0
C1162 C 0.68604 0.18084 0.64257 0.0
C1163 C 0.75404 0.19209 0.62803 0.0
N1164 N 0.64408 0.1241 0.59752 0.0
N1165 N 0.73314 0.16737 0.60484 0.0
H1166 H 0.81049 0.33859 0.39041 0.0
H1167 H 0.99702 0.42935 0.43888 0.0
H1168 H 0.89249 0.30416 0.33764 0.0
H1169 H 0.91499 0.46245 0.49727 0.0
H1170 H 0.95761 0.38007 0.40834 0.0
H1171 H 0.84652 0.38033 0.43711 0.0
C1172 C 0.83587 0.33944 0.3891 0.0
C1173 C 0.84864 0.31817 0.35953 0.0
C1174 C 0.94816 0.39798 0.42811 0.0
C1175 C 0.89005 0.36604 0.41252 0.0
C1176 C 0.97069 0.4262 0.44545 0.0
C1177 C 0.95932 0.45026 0.47011 0.0
C1178 C 0.91401 0.39385 0.43514 0.0
C1179 C 0.92488 0.44465 0.4781 0.0
C1180 C 0.85647 0.36337 0.41569 0.0
C1181 C 0.88169 0.32035 0.35942 0.0
N1182 N 0.90345 0.41716 0.46024 0.0
N1183 N 0.90134 0.34411 0.38509 0.0
H1184 H 0.73453 0.8373 0.26587 0.0
H1185 H 0.65895 0.92727 0.47228 0.0
H1186 H 0.72577 0.8086 0.38319 0.0
H1187 H 0.6183 0.90404 0.35632 0.0
H1188 H 0.69193 0.89203 0.44171 0.0
H1189 H 0.70049 0.87052 0.29968 0.0
C1190 C 0.72547 0.83802 0.2988 0.0
C1191 C 0.73289 0.81999 0.32167 0.0
C1192 C 0.67564 0.89468 0.42319 0.0
C1193 C 0.69447 0.85868 0.36083 0.0
C1194 C 0.65689 0.91482 0.44055 0.0
C1195 C 0.63555 0.91853 0.41702 0.0
C1196 C 0.67385 0.87899 0.38161 0.0
C1197 C 0.63414 0.90185 0.37586 0.0
C1198 C 0.70598 0.85693 0.31803 0.0
C1199 C 0.72038 0.82188 0.36432 0.0
N1200 N 0.65322 0.88321 0.35942 0.0
N1201 N 0.70207 0.84116 0.38269 0.0
H1202 H 0.26676 0.66768 0.31452 0.0
H1203 H 0.09068 0.59148 0.44321 0.0
H1204 H 0.19218 0.71315 0.34674 0.0
H1205 H 0.14983 0.53684 0.36583 0.0
H1206 H 0.12918 0.63823 0.41505 0.0
H1207 H 0.22646 0.62165 0.34204 0.0
C1208 C 0.24203 0.66812 0.32775 0.0
C1209 C 0.23282 0.69428 0.32824 0.0
C1210 C 0.13344 0.61588 0.40406 0.0
C1211 C 0.18653 0.64162 0.35971 0.0
C1212 C 0.11144 0.58916 0.41998 0.0
C1213 C 0.11689 0.56006 0.40688 0.0
C1214 C 0.1614 0.61359 0.37547 0.0
C1215 C 0.1444 0.55862 0.37684 0.0
C1216 C 0.21894 0.64174 0.34314 0.0
C1217 C 0.20028 0.69341 0.34556 0.0
N1218 N 0.16575 0.58501 0.36256 0.0
N1219 N 0.17832 0.66754 0.36074 0.0
H1220 H 0.46175 0.25177 0.42736 0.0
H1221 H 0.42529 0.07369 0.45254 0.0
H1222 H 0.37518 0.17311 0.3918 0.0
H1223 H 0.51421 0.14946 0.4875 0.0
H1224 H 0.40685 0.11083 0.43146 0.0
H1225 H 0.4814 0.21594 0.45118 0.0
C1226 C 0.4468 0.22704 0.4247 0.0
C1227 C 0.41684 0.21544 0.40721 0.0
C1228 C 0.43044 0.11949 0.44368 0.0
C1229 C 0.43929 0.17433 0.4342 0.0
C1230 C 0.44106 0.0982 0.45577 0.0
C1231 C 0.47149 0.10837 0.4717 0.0
C1232 C 0.45027 0.15143 0.44745 0.0
C1233 C 0.49066 0.14053 0.47519 0.0
C1234 C 0.45813 0.20659 0.43811 0.0
C1235 C 0.3987 0.18311 0.40428 0.0
N1236 N 0.47974 0.16095 0.46313 0.0
N1237 N 0.4102 0.16381 0.41756 0.0
H1238 H 0.63531 0.77558 0.59155 0.0
H1239 H 0.66262 0.95511 0.58322 0.0
H1240 H 0.71704 0.85599 0.63653 0.0
H1241 H 0.58076 0.87754 0.53307 0.0
H1242 H 0.68133 0.91814 0.60407 0.0
H1243 H 0.61393 0.8113 0.57023 0.0
C1244 C 0.64882 0.80067 0.59685 0.0
C1245 C 0.67794 0.81275 0.61621 0.0
C1246 C 0.65921 0.90902 0.58861 0.0
C1247 C 0.65346 0.85371 0.59217 0.0
C1248 C 0.64841 0.93022 0.57667 0.0
C1249 C 0.61999 0.91949 0.55632 0.0
C1250 C 0.64163 0.87657 0.58021 0.0
C1251 C 0.60272 0.88688 0.54884 0.0
C1252 C 0.63649 0.82104 0.58486 0.0
C1253 C 0.69419 0.84553 0.62254 0.0
N1254 N 0.61386 0.86651 0.5607 0.0
N1255 N 0.68175 0.86472 0.61061 0.0
H1256 H 0.77344 0.17241 0.32481 0.0
H1257 H 0.59439 0.09288 0.44604 0.0
H1258 H 0.69384 0.21058 0.3418 0.0
H1259 H 0.66209 0.04238 0.38471 0.0
H1260 H 0.6325 0.13946 0.41704 0.0
H1261 H 0.73515 0.12808 0.35731 0.0
C1262 C 0.74801 0.17167 0.33573 0.0
C1263 C 0.73682 0.1952 0.33036 0.0
C1264 C 0.63881 0.11807 0.4099 0.0
C1265 C 0.69282 0.14441 0.36757 0.0
C1266 C 0.6171 0.0915 0.42637 0.0
C1267 C 0.6249 0.06356 0.41761 0.0
C1268 C 0.66874 0.11681 0.3852 0.0
C1269 C 0.6548 0.06323 0.39208 0.0
C1270 C 0.72611 0.14623 0.35404 0.0
C1271 C 0.70349 0.19286 0.34506 0.0
N1272 N 0.67565 0.08944 0.37706 0.0
N1273 N 0.68264 0.1679 0.36303 0.0
H1274 H 0.82324 0.61275 0.39047 0.0
H1275 H 0.98453 0.63556 0.49213 0.0
H1276 H 0.88989 0.70487 0.43615 0.0
H1277 H 0.91763 0.54633 0.43815 0.0
H1278 H 0.95214 0.66252 0.4715 0.0
H1279 H 0.85877 0.5889 0.40843 0.0
C1280 C 0.84524 0.628 0.4047 0.0
C1281 C 0.85334 0.66087 0.41218 0.0
C1282 C 0.94482 0.63705 0.46399 0.0
C1283 C 0.89483 0.63358 0.43241 0.0
C1284 C 0.96338 0.62172 0.47552 0.0
C1285 C 0.95371 0.58866 0.46696 0.0
C1286 C 0.91658 0.61909 0.44375 0.0
C1287 C 0.92591 0.57183 0.44576 0.0
C1288 C 0.86577 0.61436 0.41466 0.0
C1289 C 0.88274 0.67941 0.42973 0.0
N1290 N 0.9084 0.58717 0.43509 0.0
N1291 N 0.90239 0.66551 0.43943 0.0
H1292 H 0.31405 0.83291 0.39745 0.0
H1293 H 0.5009 0.93604 0.43587 0.0
H1294 H 0.40047 0.81016 0.33009 0.0
H1295 H 0.41637 0.96623 0.49092 0.0
H1296 H 0.46325 0.8852 0.40681 0.0
H1297 H 0.34991 0.87656 0.44205 0.0
C1298 C 0.34048 0.83668 0.39252 0.0
C1299 C 0.35434 0.81809 0.3596 0.0
C1300 C 0.45288 0.90285 0.42543 0.0
C1301 C 0.39552 0.86821 0.41029 0.0
C1302 C 0.47438 0.93198 0.44198 0.0
C1303 C 0.4618 0.95568 0.46527 0.0
C1304 C 0.41849 0.8973 0.43204 0.0
C1305 C 0.42718 0.94878 0.47272 0.0
C1306 C 0.36096 0.86175 0.41789 0.0
C1307 C 0.38875 0.82409 0.35476 0.0
N1308 N 0.40671 0.92028 0.45579 0.0
N1309 N 0.4082 0.84885 0.37955 0.0
H1310 H 0.26446 0.34366 0.37924 0.0
H1311 H 0.10908 0.39226 0.3644 0.0
H1312 H 0.21398 0.31667 0.27031 0.0
H1313 H 0.17665 0.44589 0.45486 0.0
H1314 H 0.14432 0.3601 0.33517 0.0
H1315 H 0.23019 0.37725 0.41237 0.0
C1316 C 0.24624 0.34473 0.36227 0.0
C1317 C 0.24223 0.32721 0.32178 0.0
C1318 C 0.15158 0.37888 0.36141 0.0
C1319 C 0.20277 0.36538 0.35974 0.0
C1320 C 0.13131 0.39731 0.37835 0.0
C1321 C 0.13981 0.42208 0.41223 0.0
C1322 C 0.18067 0.38472 0.37848 0.0
C1323 C 0.16911 0.42719 0.42867 0.0
C1324 C 0.22679 0.364 0.38119 0.0
C1325 C 0.21821 0.32969 0.30141 0.0
N1326 N 0.18844 0.40862 0.41174 0.0
N1327 N 0.19942 0.34815 0.32061 0.0
H1328 H 0.40779 0.2479 0.68087 0.0
H1329 H 0.41438 0.07408 0.58474 0.0
H1330 H 0.32379 0.16417 0.69917 0.0
H1331 H 0.50087 0.15224 0.62138 0.0
H1332 H 0.3801 0.10822 0.61306 0.0
H1333 H 0.44158 0.21442 0.64589 0.0
C1334 C 0.39636 0.22252 0.67729 0.0
C1335 C 0.36289 0.2089 0.69323 0.0
C1336 C 0.40663 0.11787 0.61465 0.0
C1337 C 0.40136 0.17042 0.65262 0.0
C1338 C 0.42623 0.09846 0.59831 0.0
C1339 C 0.46053 0.11019 0.60105 0.0
C1340 C 0.42153 0.14945 0.63301 0.0
C1341 C 0.47448 0.14205 0.61899 0.0
C1342 C 0.4157 0.20343 0.65744 0.0
C1343 C 0.34952 0.17578 0.6877 0.0
N1344 N 0.45502 0.16053 0.63414 0.0
N1345 N 0.36869 0.15772 0.66773 0.0
H1346 H 0.90459 0.31149 0.667 0.0
H1347 H 0.95084 0.49284 0.65537 0.0
H1348 H 0.83466 0.3621 0.70765 0.0
H1349 H 1.00399 0.43481 0.57228 0.0
H1350 H 0.9127 0.4465 0.68329 0.0
H1351 H 0.94501 0.35743 0.63891 0.0
C1352 C 0.89766 0.33219 0.66984 0.0
C1353 C 0.86614 0.33294 0.68969 0.0
C1354 C 0.9328 0.44392 0.6591 0.0
C1355 C 0.9125 0.38567 0.65832 0.0
C1356 C 0.95487 0.47047 0.64331 0.0
C1357 C 0.9808 0.46787 0.61122 0.0
C1358 C 0.9367 0.41443 0.64321 0.0
C1359 C 0.98443 0.43802 0.59695 0.0
C1360 C 0.92075 0.35835 0.65378 0.0
C1361 C 0.85854 0.36037 0.69241 0.0
N1362 N 0.96261 0.41244 0.61304 0.0
N1363 N 0.88165 0.38571 0.67727 0.0
H1364 H 0.28752 0.68839 0.62793 0.0
H1365 H 0.101 0.59793 0.57901 0.0
H1366 H 0.20565 0.72308 0.68032 0.0
H1367 H 0.18296 0.56483 0.52031 0.0
H1368 H 0.14042 0.64704 0.60993 0.0
H1369 H 0.25145 0.64659 0.58129 0.0
C1370 C 0.26217 0.68758 0.62917 0.0
C1371 C 0.24945 0.70896 0.65859 0.0
C1372 C 0.14986 0.62917 0.59002 0.0
C1373 C 0.20798 0.66102 0.60569 0.0
C1374 C 0.12732 0.60105 0.57245 0.0
C1375 C 0.13866 0.57703 0.54756 0.0
C1376 C 0.18401 0.63326 0.58298 0.0
C1377 C 0.17309 0.5826 0.53963 0.0
C1378 C 0.24154 0.66362 0.60262 0.0
C1379 C 0.21642 0.70682 0.65863 0.0
N1380 N 0.19454 0.61 0.5577 0.0
N1381 N 0.19675 0.68304 0.633 0.0
loop_
_geom_bond_atom_site_label_1
_geom_bond_atom_site_label_2
_geom_bond_distance
_geom_bond_site_symmetry_2
_ccdc_geom_bond_type
Eu0 C9 2.828 . S
Eu0 O11 2.392 . S
Eu0 O13 2.418 . S
Eu0 O18 2.373 . S
Eu0 O21 2.488 . S
Eu0 O22 2.471 . S
Eu0 O23 2.349 . S
Eu1 O10 2.373 . S
Eu1 O14 2.488 . S
Eu1 O15 2.471 . S
Eu1 O16 2.349 . S
Eu1 O19 2.392 . S
Eu1 O20 2.418 . S
Eu1 C30 2.828 . S
C2 O20 1.244 . S
C2 O23 1.265 . S
C3 C4 1.379 . S
C3 C7 1.373 . S
C3 C9 1.505 . S
C4 C3 1.379 . S
C4 C6 1.369 . S
C4 H32 0.930 . S
C5 C7 1.383 . S
C5 C8 1.382 . S
C5 H33 0.930 . S
C6 C4 1.369 . S
C6 C8 1.392 . S
C6 H34 0.930 . S
C7 C3 1.373 . S
C7 C5 1.383 . S
C7 H35 0.931 . S
C8 C5 1.382 . S
C8 C6 1.392 . S
C9 Eu0 2.828 . S
C9 C3 1.505 . S
C9 O21 1.249 . S
C9 O22 1.244 . S
O10 Eu1 2.373 . S
O10 C12 1.258 . S
O11 Eu0 2.392 . S
O11 C12 1.242 . S
C12 O10 1.258 . S
C12 O11 1.242 . S
O13 Eu0 2.418 . S
O13 C17 1.244 . S
O14 Eu1 2.488 . S
O14 C30 1.249 . S
O15 Eu1 2.471 . S
O15 C30 1.244 . S
O16 Eu1 2.349 . S
O16 C17 1.265 . S
C17 O13 1.244 . S
C17 O16 1.265 . S
O18 Eu0 2.373 . S
O18 C31 1.258 . S
O19 Eu1 2.392 . S
O19 C31 1.242 . S
O20 Eu1 2.418 . S
O20 C2 1.244 . S
O21 Eu0 2.488 . S
O21 C9 1.249 . S
O22 Eu0 2.471 . S
O22 C9 1.244 . S
O23 Eu0 2.349 . S
O23 C2 1.265 . S
C24 C25 1.379 . S
C24 C28 1.373 . S
C24 C30 1.505 . S
C25 C24 1.379 . S
C25 C27 1.369 . S
C25 H36 0.930 . S
C26 C28 1.383 . S
C26 C29 1.382 . S
C26 H37 0.930 . S
C27 C25 1.369 . S
C27 C29 1.392 . S
C27 H38 0.930 . S
C28 C24 1.373 . S
C28 C26 1.383 . S
C28 H39 0.931 . S
C29 C26 1.382 . S
C29 C27 1.392 . S
C30 Eu1 2.828 . S
C30 O14 1.249 . S
C30 O15 1.244 . S
C30 C24 1.505 . S
C31 O18 1.258 . S
C31 O19 1.242 . S
H32 C4 0.930 . S
H33 C5 0.930 . S
H34 C6 0.930 . S
H35 C7 0.931 . S
H36 C25 0.930 . S
H37 C26 0.930 . S
H38 C27 0.930 . S
H39 C28 0.931 . S
Eu40 C49 2.828 . S
Eu40 O51 2.392 . S
Eu40 O53 2.418 . S
Eu40 O58 2.373 . S
Eu40 O61 2.488 . S
Eu40 O62 2.471 . S
Eu40 O63 2.349 . S
Eu41 O50 2.373 . S
Eu41 O54 2.488 . S
Eu41 O55 2.471 . S
Eu41 O56 2.349 . S
Eu41 O59 2.392 . S
Eu41 O60 2.418 . S
Eu41 C70 2.828 . S
C42 O60 1.244 . S
C42 O63 1.265 . S
C43 C44 1.379 . S
C43 C47 1.373 . S
C43 C49 1.505 . S
C44 C43 1.379 . S
C44 C46 1.369 . S
C44 H72 0.930 . S
C45 C47 1.383 . S
C45 C48 1.382 . S
C45 H73 0.930 . S
C46 C44 1.369 . S
C46 C48 1.392 . S
C46 H74 0.930 . S
C47 C43 1.373 . S
C47 C45 1.383 . S
C47 H75 0.931 . S
C48 C45 1.382 . S
C48 C46 1.392 . S
C49 Eu40 2.828 . S
C49 C43 1.505 . S
C49 O61 1.249 . S
C49 O62 1.244 . S
O50 Eu41 2.373 . S
O50 C52 1.258 . S
O51 Eu40 2.392 . S
O51 C52 1.242 . S
C52 O50 1.258 . S
C52 O51 1.242 . S
O53 Eu40 2.418 . S
O53 C57 1.244 . S
O54 Eu41 2.488 . S
O54 C70 1.249 . S
O55 Eu41 2.471 . S
O55 C70 1.244 . S
O56 Eu41 2.349 . S
O56 C57 1.265 . S
C57 O53 1.244 . S
C57 O56 1.265 . S
O58 Eu40 2.373 . S
O58 C71 1.258 . S
O59 Eu41 2.392 . S
O59 C71 1.242 . S
O60 Eu41 2.418 . S
O60 C42 1.244 . S
O61 Eu40 2.488 . S
O61 C49 1.249 . S
O62 Eu40 2.471 . S
O62 C49 1.244 . S
O63 Eu40 2.349 . S
O63 C42 1.265 . S
C64 C65 1.379 . S
C64 C68 1.373 . S
C64 C70 1.505 . S
C65 C64 1.379 . S
C65 C67 1.369 . S
C65 H76 0.930 . S
C66 C68 1.383 . S
C66 C69 1.382 . S
C66 H77 0.930 . S
C67 C65 1.369 . S
C67 C69 1.392 . S
C67 H78 0.930 . S
C68 C64 1.373 . S
C68 C66 1.383 . S
C68 H79 0.931 . S
C69 C66 1.382 . S
C69 C67 1.392 . S
C70 Eu41 2.828 . S
C70 O54 1.249 . S
C70 O55 1.244 . S
C70 C64 1.505 . S
C71 O58 1.258 . S
C71 O59 1.242 . S
H72 C44 0.930 . S
H73 C45 0.930 . S
H74 C46 0.930 . S
H75 C47 0.931 . S
H76 C65 0.930 . S
H77 C66 0.930 . S
H78 C67 0.930 . S
H79 C68 0.931 . S
Eu80 C89 2.828 . S
Eu80 O91 2.392 . S
Eu80 O93 2.418 . S
Eu80 O98 2.373 . S
Eu80 O101 2.488 . S
Eu80 O102 2.471 . S
Eu80 O103 2.349 . S
Eu81 O90 2.373 . S
Eu81 O94 2.488 . S
Eu81 O95 2.471 . S
Eu81 O96 2.349 . S
Eu81 O99 2.392 . S
Eu81 O100 2.418 . S
Eu81 C110 2.828 . S
C82 O100 1.244 . S
C82 O103 1.265 . S
C83 C84 1.379 . S
C83 C87 1.373 . S
C83 C89 1.505 . S
C84 C83 1.379 . S
C84 C86 1.369 . S
C84 H112 0.930 . S
C85 C87 1.383 . S
C85 C88 1.382 . S
C85 H113 0.930 . S
C86 C84 1.369 . S
C86 C88 1.392 . S
C86 H114 0.930 . S
C87 C83 1.373 . S
C87 C85 1.383 . S
C87 H115 0.931 . S
C88 C85 1.382 . S
C88 C86 1.392 . S
C89 Eu80 2.828 . S
C89 C83 1.505 . S
C89 O101 1.249 . S
C89 O102 1.244 . S
O90 Eu81 2.373 . S
O90 C92 1.258 . S
O91 Eu80 2.392 . S
O91 C92 1.242 . S
C92 O90 1.258 . S
C92 O91 1.242 . S
O93 Eu80 2.418 . S
O93 C97 1.244 . S
O94 Eu81 2.488 . S
O94 C110 1.249 . S
O95 Eu81 2.471 . S
O95 C110 1.244 . S
O96 Eu81 2.349 . S
O96 C97 1.265 . S
C97 O93 1.244 . S
C97 O96 1.265 . S
O98 Eu80 2.373 . S
O98 C111 1.258 . S
O99 Eu81 2.392 . S
O99 C111 1.242 . S
O100 Eu81 2.418 . S
O100 C82 1.244 . S
O101 Eu80 2.488 . S
O101 C89 1.249 . S
O102 Eu80 2.471 . S
O102 C89 1.244 . S
O103 Eu80 2.349 . S
O103 C82 1.265 . S
C104 C105 1.379 . S
C104 C108 1.373 . S
C104 C110 1.505 . S
C105 C104 1.379 . S
C105 C107 1.369 . S
C105 H116 0.930 . S
C106 C108 1.383 . S
C106 C109 1.382 . S
C106 H117 0.930 . S
C107 C105 1.369 . S
C107 C109 1.392 . S
C107 H118 0.930 . S
C108 C104 1.373 . S
C108 C106 1.383 . S
C108 H119 0.931 . S
C109 C106 1.382 . S
C109 C107 1.392 . S
C110 Eu81 2.828 . S
C110 O94 1.249 . S
C110 O95 1.244 . S
C110 C104 1.505 . S
C111 O98 1.258 . S
C111 O99 1.242 . S
H112 C84 0.930 . S
H113 C85 0.930 . S
H114 C86 0.930 . S
H115 C87 0.931 . S
H116 C105 0.930 . S
H117 C106 0.930 . S
H118 C107 0.930 . S
H119 C108 0.931 . S
Eu120 C129 2.828 . S
Eu120 O131 2.392 . S
Eu120 O133 2.418 . S
Eu120 O138 2.373 . S
Eu120 O141 2.488 . S
Eu120 O142 2.471 . S
Eu120 O143 2.349 . S
Eu121 O130 2.373 . S
Eu121 O134 2.488 . S
Eu121 O135 2.471 . S
Eu121 O136 2.349 . S
Eu121 O139 2.392 . S
Eu121 O140 2.418 . S
Eu121 C150 2.828 . S
C122 O140 1.244 . S
C122 O143 1.265 . S
C123 C124 1.379 . S
C123 C127 1.373 . S
C123 C129 1.505 . S
C124 C123 1.379 . S
C124 C126 1.369 . S
C124 H152 0.930 . S
C125 C127 1.383 . S
C125 C128 1.382 . S
C125 H153 0.930 . S
C126 C124 1.369 . S
C126 C128 1.392 . S
C126 H154 0.930 . S
C127 C123 1.373 . S
C127 C125 1.383 . S
C127 H155 0.931 . S
C128 C125 1.382 . S
C128 C126 1.392 . S
C129 Eu120 2.828 . S
C129 C123 1.505 . S
C129 O141 1.249 . S
C129 O142 1.244 . S
O130 Eu121 2.373 . S
O130 C132 1.258 . S
O131 Eu120 2.392 . S
O131 C132 1.242 . S
C132 O130 1.258 . S
C132 O131 1.242 . S
O133 Eu120 2.418 . S
O133 C137 1.244 . S
O134 Eu121 2.488 . S
O134 C150 1.249 . S
O135 Eu121 2.471 . S
O135 C150 1.244 . S
O136 Eu121 2.349 . S
O136 C137 1.265 . S
C137 O133 1.244 . S
C137 O136 1.265 . S
O138 Eu120 2.373 . S
O138 C151 1.258 . S
O139 Eu121 2.392 . S
O139 C151 1.242 . S
O140 Eu121 2.418 . S
O140 C122 1.244 . S
O141 Eu120 2.488 . S
O141 C129 1.249 . S
O142 Eu120 2.471 . S
O142 C129 1.244 . S
O143 Eu120 2.349 . S
O143 C122 1.265 . S
C144 C145 1.379 . S
C144 C148 1.373 . S
C144 C150 1.505 . S
C145 C144 1.379 . S
C145 C147 1.369 . S
C145 H156 0.930 . S
C146 C148 1.383 . S
C146 C149 1.382 . S
C146 H157 0.930 . S
C147 C145 1.369 . S
C147 C149 1.392 . S
C147 H158 0.930 . S
C148 C144 1.373 . S
C148 C146 1.383 . S
C148 H159 0.931 . S
C149 C146 1.382 . S
C149 C147 1.392 . S
C150 Eu121 2.828 . S
C150 O134 1.249 . S
C150 O135 1.244 . S
C150 C144 1.505 . S
C151 O138 1.258 . S
C151 O139 1.242 . S
H152 C124 0.930 . S
H153 C125 0.930 . S
H154 C126 0.930 . S
H155 C127 0.931 . S
H156 C145 0.930 . S
H157 C146 0.930 . S
H158 C147 0.930 . S
H159 C148 0.931 . S
Eu160 C169 2.828 . S
Eu160 O171 2.392 . S
Eu160 O173 2.418 . S
Eu160 O178 2.373 . S
Eu160 O181 2.488 . S
Eu160 O182 2.471 . S
Eu160 O183 2.349 . S
Eu161 O170 2.373 . S
Eu161 O174 2.488 . S
Eu161 O175 2.471 . S
Eu161 O176 2.349 . S
Eu161 O179 2.392 . S
Eu161 O180 2.418 . S
Eu161 C190 2.828 . S
C162 O180 1.244 . S
C162 O183 1.265 . S
C163 C164 1.379 . S
C163 C167 1.373 . S
C163 C169 1.505 . S
C164 C163 1.379 . S
C164 C166 1.369 . S
C164 H192 0.930 . S
C165 C167 1.383 . S
C165 C168 1.382 . S
C165 H193 0.930 . S
C166 C164 1.369 . S
C166 C168 1.392 . S
C166 H194 0.930 . S
C167 C163 1.373 . S
C167 C165 1.383 . S
C167 H195 0.931 . S
C168 C165 1.382 . S
C168 C166 1.392 . S
C169 Eu160 2.828 . S
C169 C163 1.505 . S
C169 O181 1.249 . S
C169 O182 1.244 . S
O170 Eu161 2.373 . S
O170 C172 1.258 . S
O171 Eu160 2.392 . S
O171 C172 1.242 . S
C172 O170 1.258 . S
C172 O171 1.242 . S
O173 Eu160 2.418 . S
O173 C177 1.244 . S
O174 Eu161 2.488 . S
O174 C190 1.249 . S
O175 Eu161 2.471 . S
O175 C190 1.244 . S
O176 Eu161 2.349 . S
O176 C177 1.265 . S
C177 O173 1.244 . S
C177 O176 1.265 . S
O178 Eu160 2.373 . S
O178 C191 1.258 . S
O179 Eu161 2.392 . S
O179 C191 1.242 . S
O180 Eu161 2.418 . S
O180 C162 1.244 . S
O181 Eu160 2.488 . S
O181 C169 1.249 . S
O182 Eu160 2.471 . S
O182 C169 1.244 . S
O183 Eu160 2.349 . S
O183 C162 1.265 . S
C184 C185 1.379 . S
C184 C188 1.373 . S
C184 C190 1.505 . S
C185 C184 1.379 . S
C185 C187 1.369 . S
C185 H196 0.930 . S
C186 C188 1.383 . S
C186 C189 1.382 . S
C186 H197 0.930 . S
C187 C185 1.369 . S
C187 C189 1.392 . S
C187 H198 0.930 . S
C188 C184 1.373 . S
C188 C186 1.383 . S
C188 H199 0.931 . S
C189 C186 1.382 . S
C189 C187 1.392 . S
C190 Eu161 2.828 . S
C190 O174 1.249 . S
C190 O175 1.244 . S
C190 C184 1.505 . S
C191 O178 1.258 . S
C191 O179 1.242 . S
H192 C164 0.930 . S
H193 C165 0.930 . S
H194 C166 0.930 . S
H195 C167 0.931 . S
H196 C185 0.930 . S
H197 C186 0.930 . S
H198 C187 0.930 . S
H199 C188 0.931 . S
Eu200 C209 2.828 . S
Eu200 O211 2.392 . S
Eu200 O213 2.418 . S
Eu200 O218 2.373 . S
Eu200 O221 2.488 . S
Eu200 O222 2.471 . S
Eu200 O223 2.349 . S
Eu201 O210 2.373 . S
Eu201 O214 2.488 . S
Eu201 O215 2.471 . S
Eu201 O216 2.349 . S
Eu201 O219 2.392 . S
Eu201 O220 2.418 . S
Eu201 C230 2.828 . S
C202 O220 1.244 . S
C202 O223 1.265 . S
C203 C204 1.379 . S
C203 C207 1.373 . S
C203 C209 1.505 . S
C204 C203 1.379 . S
C204 C206 1.369 . S
C204 H232 0.930 . S
C205 C207 1.383 . S
C205 C208 1.382 . S
C205 H233 0.930 . S
C206 C204 1.369 . S
C206 C208 1.392 . S
C206 H234 0.930 . S
C207 C203 1.373 . S
C207 C205 1.383 . S
C207 H235 0.931 . S
C208 C205 1.382 . S
C208 C206 1.392 . S
C209 Eu200 2.828 . S
C209 C203 1.505 . S
C209 O221 1.249 . S
C209 O222 1.244 . S
O210 Eu201 2.373 . S
O210 C212 1.258 . S
O211 Eu200 2.392 . S
O211 C212 1.242 . S
C212 O210 1.258 . S
C212 O211 1.242 . S
O213 Eu200 2.418 . S
O213 C217 1.244 . S
O214 Eu201 2.488 . S
O214 C230 1.249 . S
O215 Eu201 2.471 . S
O215 C230 1.244 . S
O216 Eu201 2.349 . S
O216 C217 1.265 . S
C217 O213 1.244 . S
C217 O216 1.265 . S
O218 Eu200 2.373 . S
O218 C231 1.258 . S
O219 Eu201 2.392 . S
O219 C231 1.242 . S
O220 Eu201 2.418 . S
O220 C202 1.244 . S
O221 Eu200 2.488 . S
O221 C209 1.249 . S
O222 Eu200 2.471 . S
O222 C209 1.244 . S
O223 Eu200 2.349 . S
O223 C202 1.265 . S
C224 C225 1.379 . S
C224 C228 1.373 . S
C224 C230 1.505 . S
C225 C224 1.379 . S
C225 C227 1.369 . S
C225 H236 0.930 . S
C226 C228 1.383 . S
C226 C229 1.382 . S
C226 H237 0.930 . S
C227 C225 1.369 . S
C227 C229 1.392 . S
C227 H238 0.930 . S
C228 C224 1.373 . S
C228 C226 1.383 . S
C228 H239 0.931 . S
C229 C226 1.382 . S
C229 C227 1.392 . S
C230 Eu201 2.828 . S
C230 O214 1.249 . S
C230 O215 1.244 . S
C230 C224 1.505 . S
C231 O218 1.258 . S
C231 O219 1.242 . S
H232 C204 0.930 . S
H233 C205 0.930 . S
H234 C206 0.930 . S
H235 C207 0.931 . S
H236 C225 0.930 . S
H237 C226 0.930 . S
H238 C227 0.930 . S
H239 C228 0.931 . S
Eu240 C249 2.828 . S
Eu240 O251 2.392 . S
Eu240 O253 2.418 . S
Eu240 O258 2.373 . S
Eu240 O261 2.488 . S
Eu240 O262 2.471 . S
Eu240 O263 2.349 . S
Eu241 O250 2.373 . S
Eu241 O254 2.488 . S
Eu241 O255 2.471 . S
Eu241 O256 2.349 . S
Eu241 O259 2.392 . S
Eu241 O260 2.418 . S
Eu241 C270 2.828 . S
C242 O260 1.244 . S
C242 O263 1.265 . S
C243 C244 1.379 . S
C243 C247 1.373 . S
C243 C249 1.505 . S
C244 C243 1.379 . S
C244 C246 1.369 . S
C244 H272 0.930 . S
C245 C247 1.383 . S
C245 C248 1.382 . S
C245 H273 0.930 . S
C246 C244 1.369 . S
C246 C248 1.392 . S
C246 H274 0.930 . S
C247 C243 1.373 . S
C247 C245 1.383 . S
C247 H275 0.931 . S
C248 C245 1.382 . S
C248 C246 1.392 . S
C249 Eu240 2.828 . S
C249 C243 1.505 . S
C249 O261 1.249 . S
C249 O262 1.244 . S
O250 Eu241 2.373 . S
O250 C252 1.258 . S
O251 Eu240 2.392 . S
O251 C252 1.242 . S
C252 O250 1.258 . S
C252 O251 1.242 . S
O253 Eu240 2.418 . S
O253 C257 1.244 . S
O254 Eu241 2.488 . S
O254 C270 1.249 . S
O255 Eu241 2.471 . S
O255 C270 1.244 . S
O256 Eu241 2.349 . S
O256 C257 1.265 . S
C257 O253 1.244 . S
C257 O256 1.265 . S
O258 Eu240 2.373 . S
O258 C271 1.258 . S
O259 Eu241 2.392 . S
O259 C271 1.242 . S
O260 Eu241 2.418 . S
O260 C242 1.244 . S
O261 Eu240 2.488 . S
O261 C249 1.249 . S
O262 Eu240 2.471 . S
O262 C249 1.244 . S
O263 Eu240 2.349 . S
O263 C242 1.265 . S
C264 C265 1.379 . S
C264 C268 1.373 . S
C264 C270 1.505 . S
C265 C264 1.379 . S
C265 C267 1.369 . S
C265 H276 0.930 . S
C266 C268 1.383 . S
C266 C269 1.382 . S
C266 H277 0.930 . S
C267 C265 1.369 . S
C267 C269 1.392 . S
C267 H278 0.930 . S
C268 C264 1.373 . S
C268 C266 1.383 . S
C268 H279 0.931 . S
C269 C266 1.382 . S
C269 C267 1.392 . S
C270 Eu241 2.828 . S
C270 O254 1.249 . S
C270 O255 1.244 . S
C270 C264 1.505 . S
C271 O258 1.258 . S
C271 O259 1.242 . S
H272 C244 0.930 . S
H273 C245 0.930 . S
H274 C246 0.930 . S
H275 C247 0.931 . S
H276 C265 0.930 . S
H277 C266 0.930 . S
H278 C267 0.930 . S
H279 C268 0.931 . S
Eu280 C289 2.828 . S
Eu280 O291 2.392 . S
Eu280 O293 2.418 . S
Eu280 O298 2.373 . S
Eu280 O301 2.488 . S
Eu280 O302 2.471 . S
Eu280 O303 2.349 . S
Eu281 O290 2.373 . S
Eu281 O294 2.488 . S
Eu281 O295 2.471 . S
Eu281 O296 2.349 . S
Eu281 O299 2.392 . S
Eu281 O300 2.418 . S
Eu281 C310 2.828 . S
C282 O300 1.244 . S
C282 O303 1.265 . S
C283 C284 1.379 . S
C283 C287 1.373 . S
C283 C289 1.505 . S
C284 C283 1.379 . S
C284 C286 1.369 . S
C284 H312 0.930 . S
C285 C287 1.383 . S
C285 C288 1.382 . S
C285 H313 0.930 . S
C286 C284 1.369 . S
C286 C288 1.392 . S
C286 H314 0.930 . S
C287 C283 1.373 . S
C287 C285 1.383 . S
C287 H315 0.931 . S
C288 C285 1.382 . S
C288 C286 1.392 . S
C289 Eu280 2.828 . S
C289 C283 1.505 . S
C289 O301 1.249 . S
C289 O302 1.244 . S
O290 Eu281 2.373 . S
O290 C292 1.258 . S
O291 Eu280 2.392 . S
O291 C292 1.242 . S
C292 O290 1.258 . S
C292 O291 1.242 . S
O293 Eu280 2.418 . S
O293 C297 1.244 . S
O294 Eu281 2.488 . S
O294 C310 1.249 . S
O295 Eu281 2.471 . S
O295 C310 1.244 . S
O296 Eu281 2.349 . S
O296 C297 1.265 . S
C297 O293 1.244 . S
C297 O296 1.265 . S
O298 Eu280 2.373 . S
O298 C311 1.258 . S
O299 Eu281 2.392 . S
O299 C311 1.242 . S
O300 Eu281 2.418 . S
O300 C282 1.244 . S
O301 Eu280 2.488 . S
O301 C289 1.249 . S
O302 Eu280 2.471 . S
O302 C289 1.244 . S
O303 Eu280 2.349 . S
O303 C282 1.265 . S
C304 C305 1.379 . S
C304 C308 1.373 . S
C304 C310 1.505 . S
C305 C304 1.379 . S
C305 C307 1.369 . S
C305 H316 0.930 . S
C306 C308 1.383 . S
C306 C309 1.382 . S
C306 H317 0.930 . S
C307 C305 1.369 . S
C307 C309 1.392 . S
C307 H318 0.930 . S
C308 C304 1.373 . S
C308 C306 1.383 . S
C308 H319 0.931 . S
C309 C306 1.382 . S
C309 C307 1.392 . S
C310 Eu281 2.828 . S
C310 O294 1.249 . S
C310 O295 1.244 . S
C310 C304 1.505 . S
C311 O298 1.258 . S
C311 O299 1.242 . S
H312 C284 0.930 . S
H313 C285 0.930 . S
H314 C286 0.930 . S
H315 C287 0.931 . S
H316 C305 0.930 . S
H317 C306 0.930 . S
H318 C307 0.930 . S
H319 C308 0.931 . S
Co320 O323 2.042 . S
Co320 O330 2.264 . S
Co320 O349 2.286 . S
Co320 O350 2.069 . S
Co320 O352 2.015 1_455 S
Co321 O323 2.122 . S
Co321 O329 2.073 . S
Co321 O330 2.327 . S
Co321 O331 1.976 1_455 S
Co322 O323 2.097 1_545 S
Co322 O325 2.077 1_455 S
Co322 O332 2.105 1_445 S
Co322 O333 2.149 . S
Co322 O337 2.118 . S
Co322 O351 2.138 1_445 S
O323 Co320 2.042 . S
O323 Co321 2.122 . S
O323 Co322 2.097 1_565 S
O323 H324 0.980 . S
H324 O323 0.980 . S
O325 Co322 2.077 1_655 S
O325 Co326 2.042 . S
O325 Co327 2.122 . S
O325 H328 0.980 . S
Co326 O325 2.042 . S
Co326 O334 2.286 . S
Co326 O335 2.069 . S
Co326 O336 2.015 1_655 S
Co326 O339 2.264 . S
Co327 O325 2.122 . S
Co327 O338 1.976 1_655 S
Co327 O339 2.327 . S
Co327 O340 2.073 . S
H328 O325 0.980 . S
O329 Co321 2.073 . S
O329 C344 1.245 . S
O330 Co320 2.264 . S
O330 Co321 2.327 . S
O330 C344 1.257 . S
O331 Co321 1.976 1_655 S
O331 C343 1.251 . S
O332 Co322 2.105 1_665 S
O332 C343 1.274 . S
O333 Co322 2.149 . S
O333 C346 1.246 . S
O334 Co326 2.286 . S
O334 C345 1.259 . S
O335 Co326 2.069 . S
O335 C345 1.289 . S
O336 Co326 2.015 1_455 S
O336 C346 1.257 . S
O337 Co322 2.118 . S
O337 C347 1.274 . S
O338 Co327 1.976 1_455 S
O338 C347 1.251 . S
O339 Co326 2.264 . S
O339 Co327 2.327 . S
O339 C348 1.257 . S
O340 Co327 2.073 . S
O340 C348 1.245 . S
C341 O349 1.259 . S
C341 O350 1.289 . S
C342 O351 1.246 . S
C342 O352 1.257 . S
C343 O331 1.251 . S
C343 O332 1.274 . S
C344 O329 1.245 . S
C344 O330 1.257 . S
C345 O334 1.259 . S
C345 O335 1.289 . S
C346 O333 1.246 . S
C346 O336 1.257 . S
C347 O337 1.274 . S
C347 O338 1.251 . S
C348 O339 1.257 . S
C348 O340 1.245 . S
O349 Co320 2.286 . S
O349 C341 1.259 . S
O350 Co320 2.069 . S
O350 C341 1.289 . S
O351 Co322 2.138 1_665 S
O351 C342 1.246 . S
O352 Co320 2.015 1_655 S
O352 C342 1.257 . S
Co353 O356 2.042 1_556 S
Co353 O363 2.264 1_556 S
Co353 O382 2.286 . S
Co353 O383 2.069 . S
Co353 O385 2.015 . S
Co354 O356 2.122 . S
Co354 O362 2.073 . S
Co354 O363 2.327 . S
Co354 O364 1.976 . S
Co355 O356 2.085 1_545 S
Co355 O358 2.089 1_554 S
Co355 O365 2.111 1_545 S
Co355 O366 2.144 . S
Co355 O370 2.112 1_554 S
Co355 O384 2.143 1_544 S
O356 Co353 2.042 1_554 S
O356 Co354 2.122 . S
O356 Co355 2.085 1_565 S
O356 H357 0.980 . S
H357 O356 0.980 . S
O358 Co355 2.089 1_556 S
O358 Co359 2.042 1_556 S
O358 Co360 2.122 . S
O358 H361 0.980 . S
Co359 O358 2.042 1_554 S
Co359 O367 2.286 . S
Co359 O368 2.069 . S
Co359 O369 2.015 . S
Co359 O372 2.264 1_554 S
Co360 O358 2.122 . S
Co360 O371 1.976 . S
Co360 O372 2.327 . S
Co360 O373 2.073 . S
H361 O358 0.980 . S
O362 Co354 2.073 . S
O362 C377 1.245 . S
O363 Co353 2.264 1_554 S
O363 Co354 2.327 . S
O363 C377 1.257 . S
O364 Co354 1.976 . S
O364 C376 1.251 . S
O365 Co355 2.111 1_565 S
O365 C376 1.274 . S
O366 Co355 2.144 . S
O366 C379 1.246 . S
O367 Co359 2.286 . S
O367 C378 1.259 . S
O368 Co359 2.069 . S
O368 C378 1.289 . S
O369 Co359 2.015 . S
O369 C379 1.257 . S
O370 Co355 2.112 1_556 S
O370 C380 1.274 . S
O371 Co360 1.976 . S
O371 C380 1.251 . S
O372 Co359 2.264 1_556 S
O372 Co360 2.327 . S
O372 C381 1.257 . S
O373 Co360 2.073 . S
O373 C381 1.245 . S
C374 O382 1.259 . S
C374 O383 1.289 . S
C375 O384 1.246 . S
C375 O385 1.257 . S
C376 O364 1.251 . S
C376 O365 1.274 . S
C377 O362 1.245 . S
C377 O363 1.257 . S
C378 O367 1.259 . S
C378 O368 1.289 . S
C379 O366 1.246 . S
C379 O369 1.257 . S
C380 O370 1.274 . S
C380 O371 1.251 . S
C381 O372 1.257 . S
C381 O373 1.245 . S
O382 Co353 2.286 . S
O382 C374 1.259 . S
O383 Co353 2.069 . S
O383 C374 1.289 . S
O384 Co355 2.143 1_566 S
O384 C375 1.246 . S
O385 Co353 2.015 . S
O385 C375 1.257 . S
Co386 O389 2.042 1_556 S
Co386 O396 2.264 1_556 S
Co386 O415 2.286 . S
Co386 O416 2.069 . S
Co386 O418 2.015 1_455 S
Co387 O389 2.122 . S
Co387 O395 2.073 . S
Co387 O396 2.327 . S
Co387 O397 1.976 1_455 S
Co388 O389 2.098 . S
Co388 O391 2.076 1_454 S
Co388 O398 2.105 1_455 S
Co388 O399 2.148 . S
Co388 O403 2.118 1_554 S
Co388 O417 2.139 1_454 S
O389 Co386 2.042 1_554 S
O389 Co387 2.122 . S
O389 Co388 2.098 . S
O389 H390 0.980 . S
H390 O389 0.980 . S
O391 Co388 2.076 1_656 S
O391 Co392 2.042 1_556 S
O391 Co393 2.122 . S
O391 H394 0.980 . S
Co392 O391 2.042 1_554 S
Co392 O400 2.286 . S
Co392 O401 2.069 . S
Co392 O402 2.015 1_655 S
Co392 O405 2.264 1_554 S
Co393 O391 2.122 . S
Co393 O404 1.976 1_655 S
Co393 O405 2.327 . S
Co393 O406 2.073 . S
H394 O391 0.980 . S
O395 Co387 2.073 . S
O395 C410 1.245 . S
O396 Co386 2.264 1_554 S
O396 Co387 2.327 . S
O396 C410 1.257 . S
O397 Co387 1.976 1_655 S
O397 C409 1.251 . S
O398 Co388 2.105 1_655 S
O398 C409 1.274 . S
O399 Co388 2.148 . S
O399 C412 1.246 . S
O400 Co392 2.286 . S
O400 C411 1.259 . S
O401 Co392 2.069 . S
O401 C411 1.289 . S
O402 Co392 2.015 1_455 S
O402 C412 1.257 . S
O403 Co388 2.118 1_556 S
O403 C413 1.274 . S
O404 Co393 1.976 1_455 S
O404 C413 1.251 . S
O405 Co392 2.264 1_556 S
O405 Co393 2.327 . S
O405 C414 1.257 . S
O406 Co393 2.073 . S
O406 C414 1.245 . S
C407 O415 1.259 . S
C407 O416 1.289 . S
C408 O417 1.246 . S
C408 O418 1.257 . S
C409 O397 1.251 . S
C409 O398 1.274 . S
C410 O395 1.245 . S
C410 O396 1.257 . S
C411 O400 1.259 . S
C411 O401 1.289 . S
C412 O399 1.246 . S
C412 O402 1.257 . S
C413 O403 1.274 . S
C413 O404 1.251 . S
C414 O405 1.257 . S
C414 O406 1.245 . S
O415 Co386 2.286 . S
O415 C407 1.259 . S
O416 Co386 2.069 . S
O416 C407 1.289 . S
O417 Co388 2.139 1_656 S
O417 C408 1.246 . S
O418 Co386 2.015 1_655 S
O418 C408 1.257 . S
Co419 O422 2.042 1_556 S
Co419 O429 2.264 1_556 S
Co419 O448 2.286 . S
Co419 O449 2.069 . S
Co419 O451 2.015 . S
Co420 O422 2.122 . S
Co420 O428 2.073 . S
Co420 O429 2.327 . S
Co420 O430 1.976 . S
Co421 O422 2.087 . S
Co421 O424 2.087 1_554 S
Co421 O431 2.111 . S
Co421 O432 2.143 . S
Co421 O436 2.111 1_554 S
Co421 O450 2.143 1_554 S
O422 Co419 2.042 1_554 S
O422 Co420 2.122 . S
O422 Co421 2.087 . S
O422 H423 0.980 . S
H423 O422 0.980 . S
O424 Co421 2.087 1_556 S
O424 Co425 2.042 1_556 S
O424 Co426 2.122 . S
O424 H427 0.980 . S
Co425 O424 2.042 1_554 S
Co425 O433 2.286 . S
Co425 O434 2.069 . S
Co425 O435 2.015 . S
Co425 O438 2.264 1_554 S
Co426 O424 2.122 . S
Co426 O437 1.976 . S
Co426 O438 2.327 . S
Co426 O439 2.073 . S
H427 O424 0.980 . S
O428 Co420 2.073 . S
O428 C443 1.245 . S
O429 Co419 2.264 1_554 S
O429 Co420 2.327 . S
O429 C443 1.257 . S
O430 Co420 1.976 . S
O430 C442 1.251 . S
O431 Co421 2.111 . S
O431 C442 1.274 . S
O432 Co421 2.143 . S
O432 C445 1.246 . S
O433 Co425 2.286 . S
O433 C444 1.259 . S
O434 Co425 2.069 . S
O434 C444 1.289 . S
O435 Co425 2.015 . S
O435 C445 1.257 . S
O436 Co421 2.111 1_556 S
O436 C446 1.274 . S
O437 Co426 1.976 . S
O437 C446 1.251 . S
O438 Co425 2.264 1_556 S
O438 Co426 2.327 . S
O438 C447 1.257 . S
O439 Co426 2.073 . S
O439 C447 1.245 . S
C440 O448 1.259 . S
C440 O449 1.289 . S
C441 O450 1.246 . S
C441 O451 1.257 . S
C442 O430 1.251 . S
C442 O431 1.274 . S
C443 O428 1.245 . S
C443 O429 1.257 . S
C444 O433 1.259 . S
C444 O434 1.289 . S
C445 O432 1.246 . S
C445 O435 1.257 . S
C446 O436 1.274 . S
C446 O437 1.251 . S
C447 O438 1.257 . S
C447 O439 1.245 . S
O448 Co419 2.286 . S
O448 C440 1.259 . S
O449 Co419 2.069 . S
O449 C440 1.289 . S
O450 Co421 2.143 1_556 S
O450 C441 1.246 . S
O451 Co419 2.015 . S
O451 C441 1.257 . S
Co452 O455 2.042 . S
Co452 O462 2.264 . S
Co452 O481 2.286 . S
Co452 O482 2.069 . S
Co452 O484 2.015 . S
Co453 O455 2.122 . S
Co453 O461 2.073 . S
Co453 O462 2.327 . S
Co453 O463 1.976 . S
Co454 O455 2.098 . S
Co454 O457 2.076 1_455 S
Co454 O464 2.114 . S
Co454 O465 2.137 1_455 S
Co454 O469 2.109 1_455 S
Co454 O483 2.150 . S
O455 Co452 2.042 . S
O455 Co453 2.122 . S
O455 Co454 2.098 . S
O455 H456 0.980 . S
H456 O455 0.980 . S
O457 Co454 2.076 1_655 S
O457 Co458 2.042 . S
O457 Co459 2.122 . S
O457 H460 0.980 . S
Co458 O457 2.042 . S
Co458 O466 2.286 . S
Co458 O467 2.069 . S
Co458 O468 2.015 . S
Co458 O471 2.264 . S
Co459 O457 2.122 . S
Co459 O470 1.976 . S
Co459 O471 2.327 . S
Co459 O472 2.073 . S
H460 O457 0.980 . S
O461 Co453 2.073 . S
O461 C476 1.245 . S
O462 Co452 2.264 . S
O462 Co453 2.327 . S
O462 C476 1.257 . S
O463 Co453 1.976 . S
O463 C475 1.251 . S
O464 Co454 2.114 . S
O464 C475 1.274 . S
O465 Co454 2.137 1_655 S
O465 C478 1.246 . S
O466 Co458 2.286 . S
O466 C477 1.259 . S
O467 Co458 2.069 . S
O467 C477 1.289 . S
O468 Co458 2.015 . S
O468 C478 1.257 . S
O469 Co454 2.109 1_655 S
O469 C479 1.274 . S
O470 Co459 1.976 . S
O470 C479 1.251 . S
O471 Co458 2.264 . S
O471 Co459 2.327 . S
O471 C480 1.257 . S
O472 Co459 2.073 . S
O472 C480 1.245 . S
C473 O481 1.259 . S
C473 O482 1.289 . S
C474 O483 1.246 . S
C474 O484 1.257 . S
C475 O463 1.251 . S
C475 O464 1.274 . S
C476 O461 1.245 . S
C476 O462 1.257 . S
C477 O466 1.259 . S
C477 O467 1.289 . S
C478 O465 1.246 . S
C478 O468 1.257 . S
C479 O469 1.274 . S
C479 O470 1.251 . S
C480 O471 1.257 . S
C480 O472 1.245 . S
O481 Co452 2.286 . S
O481 C473 1.259 . S
O482 Co452 2.069 . S
O482 C473 1.289 . S
O483 Co454 2.150 . S
O483 C474 1.246 . S
O484 Co452 2.015 . S
O484 C474 1.257 . S
Co485 O488 2.042 . S
Co485 O495 2.264 . S
Co485 O514 2.286 . S
Co485 O515 2.069 . S
Co485 O517 2.015 1_565 S
Co486 O488 2.122 . S
Co486 O494 2.073 . S
Co486 O495 2.327 . S
Co486 O496 1.976 1_565 S
Co487 O488 2.085 1_545 S
Co487 O490 2.089 . S
Co487 O497 2.112 . S
Co487 O498 2.143 1_545 S
Co487 O502 2.110 1_545 S
Co487 O516 2.144 . S
O488 Co485 2.042 . S
O488 Co486 2.122 . S
O488 Co487 2.085 1_565 S
O488 H489 0.980 . S
H489 O488 0.980 . S
O490 Co487 2.089 . S
O490 Co491 2.042 . S
O490 Co492 2.122 . S
O490 H493 0.980 . S
Co491 O490 2.042 . S
Co491 O499 2.286 . S
Co491 O500 2.069 . S
Co491 O501 2.015 1_545 S
Co491 O504 2.264 . S
Co492 O490 2.122 . S
Co492 O503 1.976 1_545 S
Co492 O504 2.327 . S
Co492 O505 2.073 . S
H493 O490 0.980 . S
O494 Co486 2.073 . S
O494 C509 1.245 . S
O495 Co485 2.264 . S
O495 Co486 2.327 . S
O495 C509 1.257 . S
O496 Co486 1.976 1_545 S
O496 C508 1.251 . S
O497 Co487 2.112 . S
O497 C508 1.274 . S
O498 Co487 2.143 1_565 S
O498 C511 1.246 . S
O499 Co491 2.286 . S
O499 C510 1.259 . S
O500 Co491 2.069 . S
O500 C510 1.289 . S
O501 Co491 2.015 1_565 S
O501 C511 1.257 . S
O502 Co487 2.110 1_565 S
O502 C512 1.274 . S
O503 Co492 1.976 1_565 S
O503 C512 1.251 . S
O504 Co491 2.264 . S
O504 Co492 2.327 . S
O504 C513 1.257 . S
O505 Co492 2.073 . S
O505 C513 1.245 . S
C506 O514 1.259 . S
C506 O515 1.289 . S
C507 O516 1.246 . S
C507 O517 1.257 . S
C508 O496 1.251 . S
C508 O497 1.274 . S
C509 O494 1.245 . S
C509 O495 1.257 . S
C510 O499 1.259 . S
C510 O500 1.289 . S
C511 O498 1.246 . S
C511 O501 1.257 . S
C512 O502 1.274 . S
C512 O503 1.251 . S
C513 O504 1.257 . S
C513 O505 1.245 . S
O514 Co485 2.286 . S
O514 C506 1.259 . S
O515 Co485 2.069 . S
O515 C506 1.289 . S
O516 Co487 2.144 . S
O516 C507 1.246 . S
O517 Co485 2.015 1_545 S
O517 C507 1.257 . S
H518 C524 0.930 . S
H519 C528 0.930 . S
H520 C533 0.929 . S
H521 C531 0.929 . S
H522 C526 0.929 . S
H523 C532 0.929 . S
C524 H518 0.930 . S
C524 C525 1.367 . S
C524 C532 1.378 . S
C525 C524 1.367 . S
C525 C533 1.433 . S
C526 H522 0.929 . S
C526 C528 1.378 . S
C526 C530 1.350 . S
C527 C530 1.463 . S
C527 C532 1.350 . S
C527 N535 1.427 . S
C528 H519 0.930 . S
C528 C526 1.378 . S
C528 C529 1.367 . S
C529 C528 1.367 . S
C529 C531 1.433 . S
C530 C526 1.350 . S
C530 C527 1.463 . S
C530 N534 1.427 . S
C531 H521 0.929 . S
C531 C529 1.433 . S
C531 N534 1.384 . S
C532 H523 0.929 . S
C532 C524 1.378 . S
C532 C527 1.350 . S
C533 H520 0.929 . S
C533 C525 1.433 . S
C533 N535 1.384 . S
N534 C530 1.427 . S
N534 C531 1.384 . S
N535 C527 1.427 . S
N535 C533 1.384 . S
H536 C542 0.930 . S
H537 C546 0.930 . S
H538 C551 0.929 . S
H539 C549 0.929 . S
H540 C544 0.929 . S
H541 C550 0.929 . S
C542 H536 0.930 . S
C542 C543 1.367 . S
C542 C550 1.378 . S
C543 C542 1.367 . S
C543 C551 1.433 . S
C544 H540 0.929 . S
C544 C546 1.378 . S
C544 C548 1.350 . S
C545 C548 1.463 . S
C545 C550 1.350 . S
C545 N553 1.427 . S
C546 H537 0.930 . S
C546 C544 1.378 . S
C546 C547 1.367 . S
C547 C546 1.367 . S
C547 C549 1.433 . S
C548 C544 1.350 . S
C548 C545 1.463 . S
C548 N552 1.427 . S
C549 H539 0.929 . S
C549 C547 1.433 . S
C549 N552 1.384 . S
C550 H541 0.929 . S
C550 C542 1.378 . S
C550 C545 1.350 . S
C551 H538 0.929 . S
C551 C543 1.433 . S
C551 N553 1.384 . S
N552 C548 1.427 . S
N552 C549 1.384 . S
N553 C545 1.427 . S
N553 C551 1.384 . S
H554 C560 0.930 . S
H555 C564 0.930 . S
H556 C569 0.929 . S
H557 C567 0.929 . S
H558 C562 0.929 . S
H559 C568 0.929 . S
C560 H554 0.930 . S
C560 C561 1.367 . S
C560 C568 1.378 . S
C561 C560 1.367 . S
C561 C569 1.433 . S
C562 H558 0.929 . S
C562 C564 1.378 . S
C562 C566 1.350 . S
C563 C566 1.463 . S
C563 C568 1.350 . S
C563 N571 1.427 . S
C564 H555 0.930 . S
C564 C562 1.378 . S
C564 C565 1.367 . S
C565 C564 1.367 . S
C565 C567 1.433 . S
C566 C562 1.350 . S
C566 C563 1.463 . S
C566 N570 1.427 . S
C567 H557 0.929 . S
C567 C565 1.433 . S
C567 N570 1.384 . S
C568 H559 0.929 . S
C568 C560 1.378 . S
C568 C563 1.350 . S
C569 H556 0.929 . S
C569 C561 1.433 . S
C569 N571 1.384 . S
N570 C566 1.427 . S
N570 C567 1.384 . S
N571 C563 1.427 . S
N571 C569 1.384 . S
H572 C578 0.930 . S
H573 C582 0.930 . S
H574 C587 0.929 . S
H575 C585 0.929 . S
H576 C580 0.929 . S
H577 C586 0.929 . S
C578 H572 0.930 . S
C578 C579 1.367 . S
C578 C586 1.378 . S
C579 C578 1.367 . S
C579 C587 1.433 . S
C580 H576 0.929 . S
C580 C582 1.378 . S
C580 C584 1.350 . S
C581 C584 1.463 . S
C581 C586 1.350 . S
C581 N589 1.427 . S
C582 H573 0.930 . S
C582 C580 1.378 . S
C582 C583 1.367 . S
C583 C582 1.367 . S
C583 C585 1.433 . S
C584 C580 1.350 . S
C584 C581 1.463 . S
C584 N588 1.427 . S
C585 H575 0.929 . S
C585 C583 1.433 . S
C585 N588 1.384 . S
C586 H577 0.929 . S
C586 C578 1.378 . S
C586 C581 1.350 . S
C587 H574 0.929 . S
C587 C579 1.433 . S
C587 N589 1.384 . S
N588 C584 1.427 . S
N588 C585 1.384 . S
N589 C581 1.427 . S
N589 C587 1.384 . S
H590 C596 0.930 . S
H591 C600 0.930 . S
H592 C605 0.929 . S
H593 C603 0.929 . S
H594 C598 0.929 . S
H595 C604 0.929 . S
C596 H590 0.930 . S
C596 C597 1.367 . S
C596 C604 1.378 . S
C597 C596 1.367 . S
C597 C605 1.433 . S
C598 H594 0.929 . S
C598 C600 1.378 . S
C598 C602 1.350 . S
C599 C602 1.463 . S
C599 C604 1.350 . S
C599 N607 1.427 . S
C600 H591 0.930 . S
C600 C598 1.378 . S
C600 C601 1.367 . S
C601 C600 1.367 . S
C601 C603 1.433 . S
C602 C598 1.350 . S
C602 C599 1.463 . S
C602 N606 1.427 . S
C603 H593 0.929 . S
C603 C601 1.433 . S
C603 N606 1.384 . S
C604 H595 0.929 . S
C604 C596 1.378 . S
C604 C599 1.350 . S
C605 H592 0.929 . S
C605 C597 1.433 . S
C605 N607 1.384 . S
N606 C602 1.427 . S
N606 C603 1.384 . S
N607 C599 1.427 . S
N607 C605 1.384 . S
H608 C614 0.930 . S
H609 C618 0.930 . S
H610 C623 0.929 . S
H611 C621 0.929 . S
H612 C616 0.929 . S
H613 C622 0.929 . S
C614 H608 0.930 . S
C614 C615 1.367 . S
C614 C622 1.378 . S
C615 C614 1.367 . S
C615 C623 1.433 . S
C616 H612 0.929 . S
C616 C618 1.378 . S
C616 C620 1.350 . S
C617 C620 1.463 . S
C617 C622 1.350 . S
C617 N625 1.427 . S
C618 H609 0.930 . S
C618 C616 1.378 . S
C618 C619 1.367 . S
C619 C618 1.367 . S
C619 C621 1.433 . S
C620 C616 1.350 . S
C620 C617 1.463 . S
C620 N624 1.427 . S
C621 H611 0.929 . S
C621 C619 1.433 . S
C621 N624 1.384 . S
C622 H613 0.929 . S
C622 C614 1.378 . S
C622 C617 1.350 . S
C623 H610 0.929 . S
C623 C615 1.433 . S
C623 N625 1.384 . S
N624 C620 1.427 . S
N624 C621 1.384 . S
N625 C617 1.427 . S
N625 C623 1.384 . S
H626 C632 0.930 . S
H627 C636 0.930 . S
H628 C641 0.929 . S
H629 C639 0.929 . S
H630 C634 0.929 . S
H631 C640 0.929 . S
C632 H626 0.930 . S
C632 C633 1.367 . S
C632 C640 1.378 . S
C633 C632 1.367 . S
C633 C641 1.433 . S
C634 H630 0.929 . S
C634 C636 1.378 . S
C634 C638 1.350 . S
C635 C638 1.463 . S
C635 C640 1.350 . S
C635 N643 1.427 . S
C636 H627 0.930 . S
C636 C634 1.378 . S
C636 C637 1.367 . S
C637 C636 1.367 . S
C637 C639 1.433 . S
C638 C634 1.350 . S
C638 C635 1.463 . S
C638 N642 1.427 . S
C639 H629 0.929 . S
C639 C637 1.433 . S
C639 N642 1.384 . S
C640 H631 0.929 . S
C640 C632 1.378 . S
C640 C635 1.350 . S
C641 H628 0.929 . S
C641 C633 1.433 . S
C641 N643 1.384 . S
N642 C638 1.427 . S
N642 C639 1.384 . S
N643 C635 1.427 . S
N643 C641 1.384 . S
H644 C650 0.930 . S
H645 C654 0.930 . S
H646 C659 0.929 . S
H647 C657 0.929 . S
H648 C652 0.929 . S
H649 C658 0.929 . S
C650 H644 0.930 . S
C650 C651 1.367 . S
C650 C658 1.378 . S
C651 C650 1.367 . S
C651 C659 1.433 . S
C652 H648 0.929 . S
C652 C654 1.378 . S
C652 C656 1.350 . S
C653 C656 1.463 . S
C653 C658 1.350 . S
C653 N661 1.427 . S
C654 H645 0.930 . S
C654 C652 1.378 . S
C654 C655 1.367 . S
C655 C654 1.367 . S
C655 C657 1.433 . S
C656 C652 1.350 . S
C656 C653 1.463 . S
C656 N660 1.427 . S
C657 H647 0.929 . S
C657 C655 1.433 . S
C657 N660 1.384 . S
C658 H649 0.929 . S
C658 C650 1.378 . S
C658 C653 1.350 . S
C659 H646 0.929 . S
C659 C651 1.433 . S
C659 N661 1.384 . S
N660 C656 1.427 . S
N660 C657 1.384 . S
N661 C653 1.427 . S
N661 C659 1.384 . S
H662 C668 0.930 . S
H663 C672 0.930 . S
H664 C677 0.929 . S
H665 C675 0.929 . S
H666 C670 0.929 . S
H667 C676 0.929 . S
C668 H662 0.930 . S
C668 C669 1.367 . S
C668 C676 1.378 . S
C669 C668 1.367 . S
C669 C677 1.433 . S
C670 H666 0.929 . S
C670 C672 1.378 . S
C670 C674 1.350 . S
C671 C674 1.463 . S
C671 C676 1.350 . S
C671 N679 1.427 . S
C672 H663 0.930 . S
C672 C670 1.378 . S
C672 C673 1.367 . S
C673 C672 1.367 . S
C673 C675 1.433 . S
C674 C670 1.350 . S
C674 C671 1.463 . S
C674 N678 1.427 . S
C675 H665 0.929 . S
C675 C673 1.433 . S
C675 N678 1.384 . S
C676 H667 0.929 . S
C676 C668 1.378 . S
C676 C671 1.350 . S
C677 H664 0.929 . S
C677 C669 1.433 . S
C677 N679 1.384 . S
N678 C674 1.427 . S
N678 C675 1.384 . S
N679 C671 1.427 . S
N679 C677 1.384 . S
H680 C686 0.930 . S
H681 C690 0.930 . S
H682 C695 0.929 . S
H683 C693 0.929 . S
H684 C688 0.929 . S
H685 C694 0.929 . S
C686 H680 0.930 . S
C686 C687 1.367 . S
C686 C694 1.378 . S
C687 C686 1.367 . S
C687 C695 1.433 . S
C688 H684 0.929 . S
C688 C690 1.378 . S
C688 C692 1.350 . S
C689 C692 1.463 . S
C689 C694 1.350 . S
C689 N697 1.427 . S
C690 H681 0.930 . S
C690 C688 1.378 . S
C690 C691 1.367 . S
C691 C690 1.367 . S
C691 C693 1.433 . S
C692 C688 1.350 . S
C692 C689 1.463 . S
C692 N696 1.427 . S
C693 H683 0.929 . S
C693 C691 1.433 . S
C693 N696 1.384 . S
C694 H685 0.929 . S
C694 C686 1.378 . S
C694 C689 1.350 . S
C695 H682 0.929 . S
C695 C687 1.433 . S
C695 N697 1.384 . S
N696 C692 1.427 . S
N696 C693 1.384 . S
N697 C689 1.427 . S
N697 C695 1.384 . S
H698 C704 0.930 . S
H699 C708 0.930 . S
H700 C713 0.929 . S
H701 C711 0.929 . S
H702 C706 0.929 . S
H703 C712 0.929 . S
C704 H698 0.930 . S
C704 C705 1.367 . S
C704 C712 1.378 . S
C705 C704 1.367 . S
C705 C713 1.433 . S
C706 H702 0.929 . S
C706 C708 1.378 . S
C706 C710 1.350 . S
C707 C710 1.463 . S
C707 C712 1.350 . S
C707 N715 1.427 . S
C708 H699 0.930 . S
C708 C706 1.378 . S
C708 C709 1.367 . S
C709 C708 1.367 . S
C709 C711 1.433 . S
C710 C706 1.350 . S
C710 C707 1.463 . S
C710 N714 1.427 . S
C711 H701 0.929 . S
C711 C709 1.433 . S
C711 N714 1.384 . S
C712 H703 0.929 . S
C712 C704 1.378 . S
C712 C707 1.350 . S
C713 H700 0.929 . S
C713 C705 1.433 . S
C713 N715 1.384 . S
N714 C710 1.427 . S
N714 C711 1.384 . S
N715 C707 1.427 . S
N715 C713 1.384 . S
H716 C722 0.930 . S
H717 C726 0.930 . S
H718 C731 0.929 . S
H719 C729 0.929 . S
H720 C724 0.929 . S
H721 C730 0.929 . S
C722 H716 0.930 . S
C722 C723 1.367 . S
C722 C730 1.378 . S
C723 C722 1.367 . S
C723 C731 1.433 . S
C724 H720 0.929 . S
C724 C726 1.378 . S
C724 C728 1.350 . S
C725 C728 1.463 . S
C725 C730 1.350 . S
C725 N733 1.427 . S
C726 H717 0.930 . S
C726 C724 1.378 . S
C726 C727 1.367 . S
C727 C726 1.367 . S
C727 C729 1.433 . S
C728 C724 1.350 . S
C728 C725 1.463 . S
C728 N732 1.427 . S
C729 H719 0.929 . S
C729 C727 1.433 . S
C729 N732 1.384 . S
C730 H721 0.929 . S
C730 C722 1.378 . S
C730 C725 1.350 . S
C731 H718 0.929 . S
C731 C723 1.433 . S
C731 N733 1.384 . S
N732 C728 1.427 . S
N732 C729 1.384 . S
N733 C725 1.427 . S
N733 C731 1.384 . S
H734 C740 0.930 . S
H735 C744 0.930 . S
H736 C749 0.929 . S
H737 C747 0.929 . S
H738 C742 0.929 . S
H739 C748 0.929 . S
C740 H734 0.930 . S
C740 C741 1.367 . S
C740 C748 1.378 . S
C741 C740 1.367 . S
C741 C749 1.433 . S
C742 H738 0.929 . S
C742 C744 1.378 . S
C742 C746 1.350 . S
C743 C746 1.463 . S
C743 C748 1.350 . S
C743 N751 1.427 . S
C744 H735 0.930 . S
C744 C742 1.378 . S
C744 C745 1.367 . S
C745 C744 1.367 . S
C745 C747 1.433 . S
C746 C742 1.350 . S
C746 C743 1.463 . S
C746 N750 1.427 . S
C747 H737 0.929 . S
C747 C745 1.433 . S
C747 N750 1.384 . S
C748 H739 0.929 . S
C748 C740 1.378 . S
C748 C743 1.350 . S
C749 H736 0.929 . S
C749 C741 1.433 . S
C749 N751 1.384 . S
N750 C746 1.427 . S
N750 C747 1.384 . S
N751 C743 1.427 . S
N751 C749 1.384 . S
H752 C758 0.930 . S
H753 C762 0.930 . S
H754 C767 0.929 . S
H755 C765 0.929 . S
H756 C760 0.929 . S
H757 C766 0.929 . S
C758 H752 0.930 . S
C758 C759 1.367 . S
C758 C766 1.378 . S
C759 C758 1.367 . S
C759 C767 1.433 . S
C760 H756 0.929 . S
C760 C762 1.378 . S
C760 C764 1.350 . S
C761 C764 1.463 . S
C761 C766 1.350 . S
C761 N769 1.427 . S
C762 H753 0.930 . S
C762 C760 1.378 . S
C762 C763 1.367 . S
C763 C762 1.367 . S
C763 C765 1.433 . S
C764 C760 1.350 . S
C764 C761 1.463 . S
C764 N768 1.427 . S
C765 H755 0.929 . S
C765 C763 1.433 . S
C765 N768 1.384 . S
C766 H757 0.929 . S
C766 C758 1.378 . S
C766 C761 1.350 . S
C767 H754 0.929 . S
C767 C759 1.433 . S
C767 N769 1.384 . S
N768 C764 1.427 . S
N768 C765 1.384 . S
N769 C761 1.427 . S
N769 C767 1.384 . S
H770 C776 0.930 . S
H771 C780 0.930 . S
H772 C785 0.929 . S
H773 C783 0.929 . S
H774 C778 0.929 . S
H775 C784 0.929 . S
C776 H770 0.930 . S
C776 C777 1.367 . S
C776 C784 1.378 . S
C777 C776 1.367 . S
C777 C785 1.433 . S
C778 H774 0.929 . S
C778 C780 1.378 . S
C778 C782 1.350 . S
C779 C782 1.463 . S
C779 C784 1.350 . S
C779 N787 1.427 . S
C780 H771 0.930 . S
C780 C778 1.378 . S
C780 C781 1.367 . S
C781 C780 1.367 . S
C781 C783 1.433 . S
C782 C778 1.350 . S
C782 C779 1.463 . S
C782 N786 1.427 . S
C783 H773 0.929 . S
C783 C781 1.433 . S
C783 N786 1.384 . S
C784 H775 0.929 . S
C784 C776 1.378 . S
C784 C779 1.350 . S
C785 H772 0.929 . S
C785 C777 1.433 . S
C785 N787 1.384 . S
N786 C782 1.427 . S
N786 C783 1.384 . S
N787 C779 1.427 . S
N787 C785 1.384 . S
H788 C794 0.930 . S
H789 C798 0.930 . S
H790 C803 0.929 . S
H791 C801 0.929 . S
H792 C796 0.929 . S
H793 C802 0.929 . S
C794 H788 0.930 . S
C794 C795 1.367 . S
C794 C802 1.378 . S
C795 C794 1.367 . S
C795 C803 1.433 . S
C796 H792 0.929 . S
C796 C798 1.378 . S
C796 C800 1.350 . S
C797 C800 1.463 . S
C797 C802 1.350 . S
C797 N805 1.427 . S
C798 H789 0.930 . S
C798 C796 1.378 . S
C798 C799 1.367 . S
C799 C798 1.367 . S
C799 C801 1.433 . S
C800 C796 1.350 . S
C800 C797 1.463 . S
C800 N804 1.427 . S
C801 H791 0.929 . S
C801 C799 1.433 . S
C801 N804 1.384 . S
C802 H793 0.929 . S
C802 C794 1.378 . S
C802 C797 1.350 . S
C803 H790 0.929 . S
C803 C795 1.433 . S
C803 N805 1.384 . S
N804 C800 1.427 . S
N804 C801 1.384 . S
N805 C797 1.427 . S
N805 C803 1.384 . S
H806 C812 0.930 . S
H807 C816 0.930 . S
H808 C821 0.929 . S
H809 C819 0.929 . S
H810 C814 0.929 . S
H811 C820 0.929 . S
C812 H806 0.930 . S
C812 C813 1.367 . S
C812 C820 1.378 . S
C813 C812 1.367 . S
C813 C821 1.433 . S
C814 H810 0.929 . S
C814 C816 1.378 . S
C814 C818 1.350 . S
C815 C818 1.463 . S
C815 C820 1.350 . S
C815 N823 1.427 . S
C816 H807 0.930 . S
C816 C814 1.378 . S
C816 C817 1.367 . S
C817 C816 1.367 . S
C817 C819 1.433 . S
C818 C814 1.350 . S
C818 C815 1.463 . S
C818 N822 1.427 . S
C819 H809 0.929 . S
C819 C817 1.433 . S
C819 N822 1.384 . S
C820 H811 0.929 . S
C820 C812 1.378 . S
C820 C815 1.350 . S
C821 H808 0.929 . S
C821 C813 1.433 . S
C821 N823 1.384 . S
N822 C818 1.427 . S
N822 C819 1.384 . S
N823 C815 1.427 . S
N823 C821 1.384 . S
H824 C830 0.930 . S
H825 C834 0.930 . S
H826 C839 0.929 . S
H827 C837 0.929 . S
H828 C832 0.929 . S
H829 C838 0.929 . S
C830 H824 0.930 . S
C830 C831 1.367 . S
C830 C838 1.378 . S
C831 C830 1.367 . S
C831 C839 1.433 . S
C832 H828 0.929 . S
C832 C834 1.378 . S
C832 C836 1.350 . S
C833 C836 1.463 . S
C833 C838 1.350 . S
C833 N841 1.427 . S
C834 H825 0.930 . S
C834 C832 1.378 . S
C834 C835 1.367 . S
C835 C834 1.367 . S
C835 C837 1.433 . S
C836 C832 1.350 . S
C836 C833 1.463 . S
C836 N840 1.427 . S
C837 H827 0.929 . S
C837 C835 1.433 . S
C837 N840 1.384 . S
C838 H829 0.929 . S
C838 C830 1.378 . S
C838 C833 1.350 . S
C839 H826 0.929 . S
C839 C831 1.433 . S
C839 N841 1.384 . S
N840 C836 1.427 . S
N840 C837 1.384 . S
N841 C833 1.427 . S
N841 C839 1.384 . S
H842 C848 0.930 . S
H843 C852 0.930 . S
H844 C857 0.929 . S
H845 C855 0.929 1_554 S
H846 C850 0.929 . S
H847 C856 0.929 . S
C848 H842 0.930 . S
C848 C849 1.367 . S
C848 C856 1.378 . S
C849 C848 1.367 . S
C849 C857 1.433 . S
C850 H846 0.929 . S
C850 C852 1.378 . S
C850 C854 1.350 . S
C851 C854 1.463 . S
C851 C856 1.350 . S
C851 N859 1.427 . S
C852 H843 0.930 . S
C852 C850 1.378 . S
C852 C853 1.367 . S
C853 C852 1.367 . S
C853 C855 1.433 . S
C854 C850 1.350 . S
C854 C851 1.463 . S
C854 N858 1.427 . S
C855 H845 0.929 1_556 S
C855 C853 1.433 . S
C855 N858 1.384 . S
C856 H847 0.929 . S
C856 C848 1.378 . S
C856 C851 1.350 . S
C857 H844 0.929 . S
C857 C849 1.433 . S
C857 N859 1.384 . S
N858 C854 1.427 . S
N858 C855 1.384 . S
N859 C851 1.427 . S
N859 C857 1.384 . S
H860 C866 0.930 . S
H861 C870 0.930 . S
H862 C875 0.929 . S
H863 C873 0.929 . S
H864 C868 0.929 . S
H865 C874 0.929 . S
C866 H860 0.930 . S
C866 C867 1.367 . S
C866 C874 1.378 . S
C867 C866 1.367 . S
C867 C875 1.433 . S
C868 H864 0.929 . S
C868 C870 1.378 . S
C868 C872 1.350 . S
C869 C872 1.463 . S
C869 C874 1.350 . S
C869 N877 1.427 . S
C870 H861 0.930 . S
C870 C868 1.378 . S
C870 C871 1.367 . S
C871 C870 1.367 . S
C871 C873 1.433 . S
C872 C868 1.350 . S
C872 C869 1.463 . S
C872 N876 1.427 . S
C873 H863 0.929 . S
C873 C871 1.433 . S
C873 N876 1.384 . S
C874 H865 0.929 . S
C874 C866 1.378 . S
C874 C869 1.350 . S
C875 H862 0.929 . S
C875 C867 1.433 . S
C875 N877 1.384 . S
N876 C872 1.427 . S
N876 C873 1.384 . S
N877 C869 1.427 . S
N877 C875 1.384 . S
H878 C884 0.930 . S
H879 C888 0.930 . S
H880 C893 0.929 . S
H881 C891 0.929 . S
H882 C886 0.929 . S
H883 C892 0.929 . S
C884 H878 0.930 . S
C884 C885 1.367 . S
C884 C892 1.378 . S
C885 C884 1.367 . S
C885 C893 1.433 . S
C886 H882 0.929 . S
C886 C888 1.378 . S
C886 C890 1.350 . S
C887 C890 1.463 . S
C887 C892 1.350 . S
C887 N895 1.427 . S
C888 H879 0.930 . S
C888 C886 1.378 . S
C888 C889 1.367 . S
C889 C888 1.367 . S
C889 C891 1.433 . S
C890 C886 1.350 . S
C890 C887 1.463 . S
C890 N894 1.427 . S
C891 H881 0.929 . S
C891 C889 1.433 . S
C891 N894 1.384 . S
C892 H883 0.929 . S
C892 C884 1.378 . S
C892 C887 1.350 . S
C893 H880 0.929 . S
C893 C885 1.433 . S
C893 N895 1.384 . S
N894 C890 1.427 . S
N894 C891 1.384 . S
N895 C887 1.427 . S
N895 C893 1.384 . S
H896 C902 0.930 . S
H897 C906 0.930 . S
H898 C911 0.929 . S
H899 C909 0.929 . S
H900 C904 0.929 . S
H901 C910 0.929 . S
C902 H896 0.930 . S
C902 C903 1.367 . S
C902 C910 1.378 . S
C903 C902 1.367 . S
C903 C911 1.433 . S
C904 H900 0.929 . S
C904 C906 1.378 . S
C904 C908 1.350 . S
C905 C908 1.463 . S
C905 C910 1.350 . S
C905 N913 1.427 . S
C906 H897 0.930 . S
C906 C904 1.378 . S
C906 C907 1.367 . S
C907 C906 1.367 . S
C907 C909 1.433 . S
C908 C904 1.350 . S
C908 C905 1.463 . S
C908 N912 1.427 . S
C909 H899 0.929 . S
C909 C907 1.433 . S
C909 N912 1.384 . S
C910 H901 0.929 . S
C910 C902 1.378 . S
C910 C905 1.350 . S
C911 H898 0.929 . S
C911 C903 1.433 . S
C911 N913 1.384 . S
N912 C908 1.427 . S
N912 C909 1.384 . S
N913 C905 1.427 . S
N913 C911 1.384 . S
H914 C920 0.930 . S
H915 C924 0.930 . S
H916 C929 0.929 . S
H917 C927 0.929 . S
H918 C922 0.929 . S
H919 C928 0.929 . S
C920 H914 0.930 . S
C920 C921 1.367 . S
C920 C928 1.378 . S
C921 C920 1.367 . S
C921 C929 1.433 . S
C922 H918 0.929 . S
C922 C924 1.378 . S
C922 C926 1.350 . S
C923 C926 1.463 . S
C923 C928 1.350 . S
C923 N931 1.427 . S
C924 H915 0.930 . S
C924 C922 1.378 . S
C924 C925 1.367 . S
C925 C924 1.367 . S
C925 C927 1.433 . S
C926 C922 1.350 . S
C926 C923 1.463 . S
C926 N930 1.427 . S
C927 H917 0.929 . S
C927 C925 1.433 . S
C927 N930 1.384 . S
C928 H919 0.929 . S
C928 C920 1.378 . S
C928 C923 1.350 . S
C929 H916 0.929 . S
C929 C921 1.433 . S
C929 N931 1.384 . S
N930 C926 1.427 . S
N930 C927 1.384 . S
N931 C923 1.427 . S
N931 C929 1.384 . S
H932 C938 0.930 . S
H933 C942 0.930 . S
H934 C947 0.929 . S
H935 C945 0.929 . S
H936 C940 0.929 . S
H937 C946 0.929 . S
C938 H932 0.930 . S
C938 C939 1.367 . S
C938 C946 1.378 . S
C939 C938 1.367 . S
C939 C947 1.433 . S
C940 H936 0.929 . S
C940 C942 1.378 . S
C940 C944 1.350 . S
C941 C944 1.463 . S
C941 C946 1.350 . S
C941 N949 1.427 . S
C942 H933 0.930 . S
C942 C940 1.378 . S
C942 C943 1.367 . S
C943 C942 1.367 . S
C943 C945 1.433 . S
C944 C940 1.350 . S
C944 C941 1.463 . S
C944 N948 1.427 . S
C945 H935 0.929 . S
C945 C943 1.433 . S
C945 N948 1.384 . S
C946 H937 0.929 . S
C946 C938 1.378 . S
C946 C941 1.350 . S
C947 H934 0.929 . S
C947 C939 1.433 . S
C947 N949 1.384 . S
N948 C944 1.427 . S
N948 C945 1.384 . S
N949 C941 1.427 . S
N949 C947 1.384 . S
H950 C956 0.930 . S
H951 C960 0.930 . S
H952 C965 0.929 . S
H953 C963 0.929 . S
H954 C958 0.929 . S
H955 C964 0.929 . S
C956 H950 0.930 . S
C956 C957 1.367 . S
C956 C964 1.378 . S
C957 C956 1.367 . S
C957 C965 1.433 . S
C958 H954 0.929 . S
C958 C960 1.378 . S
C958 C962 1.350 . S
C959 C962 1.463 . S
C959 C964 1.350 . S
C959 N967 1.427 . S
C960 H951 0.930 . S
C960 C958 1.378 . S
C960 C961 1.367 . S
C961 C960 1.367 . S
C961 C963 1.433 . S
C962 C958 1.350 . S
C962 C959 1.463 . S
C962 N966 1.427 . S
C963 H953 0.929 . S
C963 C961 1.433 . S
C963 N966 1.384 . S
C964 H955 0.929 . S
C964 C956 1.378 . S
C964 C959 1.350 . S
C965 H952 0.929 . S
C965 C957 1.433 . S
C965 N967 1.384 . S
N966 C962 1.427 . S
N966 C963 1.384 . S
N967 C959 1.427 . S
N967 C965 1.384 . S
H968 C974 0.930 . S
H969 C978 0.930 . S
H970 C983 0.929 . S
H971 C981 0.929 . S
H972 C976 0.929 . S
H973 C982 0.929 . S
C974 H968 0.930 . S
C974 C975 1.367 . S
C974 C982 1.378 . S
C975 C974 1.367 . S
C975 C983 1.433 . S
C976 H972 0.929 . S
C976 C978 1.378 . S
C976 C980 1.350 . S
C977 C980 1.463 . S
C977 C982 1.350 . S
C977 N985 1.427 . S
C978 H969 0.930 . S
C978 C976 1.378 . S
C978 C979 1.367 . S
C979 C978 1.367 . S
C979 C981 1.433 . S
C980 C976 1.350 . S
C980 C977 1.463 . S
C980 N984 1.427 . S
C981 H971 0.929 . S
C981 C979 1.433 . S
C981 N984 1.384 . S
C982 H973 0.929 . S
C982 C974 1.378 . S
C982 C977 1.350 . S
C983 H970 0.929 . S
C983 C975 1.433 . S
C983 N985 1.384 . S
N984 C980 1.427 . S
N984 C981 1.384 . S
N985 C977 1.427 . S
N985 C983 1.384 . S
H986 C992 0.930 . S
H987 C996 0.930 . S
H988 C1001 0.929 . S
H989 C999 0.929 . S
H990 C994 0.929 . S
H991 C1000 0.929 . S
C992 H986 0.930 . S
C992 C993 1.367 . S
C992 C1000 1.378 . S
C993 C992 1.367 . S
C993 C1001 1.433 . S
C994 H990 0.929 . S
C994 C996 1.378 . S
C994 C998 1.350 . S
C995 C998 1.463 . S
C995 C1000 1.350 . S
C995 N1003 1.427 . S
C996 H987 0.930 . S
C996 C994 1.378 . S
C996 C997 1.367 . S
C997 C996 1.367 . S
C997 C999 1.433 . S
C998 C994 1.350 . S
C998 C995 1.463 . S
C998 N1002 1.427 . S
C999 H989 0.929 . S
C999 C997 1.433 . S
C999 N1002 1.384 . S
C1000 H991 0.929 . S
C1000 C992 1.378 . S
C1000 C995 1.350 . S
C1001 H988 0.929 . S
C1001 C993 1.433 . S
C1001 N1003 1.384 . S
N1002 C998 1.427 . S
N1002 C999 1.384 . S
N1003 C995 1.427 . S
N1003 C1001 1.384 . S
H1004 C1010 0.930 . S
H1005 C1014 0.930 . S
H1006 C1019 0.929 . S
H1007 C1017 0.929 . S
H1008 C1012 0.929 . S
H1009 C1018 0.929 . S
C1010 H1004 0.930 . S
C1010 C1011 1.367 . S
C1010 C1018 1.378 . S
C1011 C1010 1.367 . S
C1011 C1019 1.433 . S
C1012 H1008 0.929 . S
C1012 C1014 1.378 . S
C1012 C1016 1.350 . S
C1013 C1016 1.463 . S
C1013 C1018 1.350 . S
C1013 N1021 1.427 . S
C1014 H1005 0.930 . S
C1014 C1012 1.378 . S
C1014 C1015 1.367 . S
C1015 C1014 1.367 . S
C1015 C1017 1.433 . S
C1016 C1012 1.350 . S
C1016 C1013 1.463 . S
C1016 N1020 1.427 . S
C1017 H1007 0.929 . S
C1017 C1015 1.433 . S
C1017 N1020 1.384 . S
C1018 H1009 0.929 . S
C1018 C1010 1.378 . S
C1018 C1013 1.350 . S
C1019 H1006 0.929 . S
C1019 C1011 1.433 . S
C1019 N1021 1.384 . S
N1020 C1016 1.427 . S
N1020 C1017 1.384 . S
N1021 C1013 1.427 . S
N1021 C1019 1.384 . S
H1022 C1028 0.930 . S
H1023 C1032 0.930 . S
H1024 C1037 0.929 . S
H1025 C1035 0.929 . S
H1026 C1030 0.929 . S
H1027 C1036 0.929 . S
C1028 H1022 0.930 . S
C1028 C1029 1.367 . S
C1028 C1036 1.378 . S
C1029 C1028 1.367 . S
C1029 C1037 1.433 . S
C1030 H1026 0.929 . S
C1030 C1032 1.378 . S
C1030 C1034 1.350 . S
C1031 C1034 1.463 . S
C1031 C1036 1.350 . S
C1031 N1039 1.427 . S
C1032 H1023 0.930 . S
C1032 C1030 1.378 . S
C1032 C1033 1.367 . S
C1033 C1032 1.367 . S
C1033 C1035 1.433 . S
C1034 C1030 1.350 . S
C1034 C1031 1.463 . S
C1034 N1038 1.427 . S
C1035 H1025 0.929 . S
C1035 C1033 1.433 . S
C1035 N1038 1.384 . S
C1036 H1027 0.929 . S
C1036 C1028 1.378 . S
C1036 C1031 1.350 . S
C1037 H1024 0.929 . S
C1037 C1029 1.433 . S
C1037 N1039 1.384 . S
N1038 C1034 1.427 . S
N1038 C1035 1.384 . S
N1039 C1031 1.427 . S
N1039 C1037 1.384 . S
H1040 C1046 0.930 . S
H1041 C1050 0.930 . S
H1042 C1055 0.929 . S
H1043 C1053 0.929 . S
H1044 C1048 0.929 . S
H1045 C1054 0.929 . S
C1046 H1040 0.930 . S
C1046 C1047 1.367 . S
C1046 C1054 1.378 . S
C1047 C1046 1.367 . S
C1047 C1055 1.433 . S
C1048 H1044 0.929 . S
C1048 C1050 1.378 . S
C1048 C1052 1.350 . S
C1049 C1052 1.463 . S
C1049 C1054 1.350 . S
C1049 N1057 1.427 . S
C1050 H1041 0.930 . S
C1050 C1048 1.378 . S
C1050 C1051 1.367 . S
C1051 C1050 1.367 . S
C1051 C1053 1.433 . S
C1052 C1048 1.350 . S
C1052 C1049 1.463 . S
C1052 N1056 1.427 . S
C1053 H1043 0.929 . S
C1053 C1051 1.433 . S
C1053 N1056 1.384 . S
C1054 H1045 0.929 . S
C1054 C1046 1.378 . S
C1054 C1049 1.350 . S
C1055 H1042 0.929 . S
C1055 C1047 1.433 . S
C1055 N1057 1.384 . S
N1056 C1052 1.427 . S
N1056 C1053 1.384 . S
N1057 C1049 1.427 . S
N1057 C1055 1.384 . S
H1058 C1064 0.930 . S
H1059 C1068 0.930 . S
H1060 C1073 0.929 . S
H1061 C1071 0.929 . S
H1062 C1066 0.929 . S
H1063 C1072 0.929 . S
C1064 H1058 0.930 . S
C1064 C1065 1.367 . S
C1064 C1072 1.378 . S
C1065 C1064 1.367 . S
C1065 C1073 1.433 . S
C1066 H1062 0.929 . S
C1066 C1068 1.378 . S
C1066 C1070 1.350 . S
C1067 C1070 1.463 . S
C1067 C1072 1.350 . S
C1067 N1075 1.427 . S
C1068 H1059 0.930 . S
C1068 C1066 1.378 . S
C1068 C1069 1.367 . S
C1069 C1068 1.367 . S
C1069 C1071 1.433 . S
C1070 C1066 1.350 . S
C1070 C1067 1.463 . S
C1070 N1074 1.427 . S
C1071 H1061 0.929 . S
C1071 C1069 1.433 . S
C1071 N1074 1.384 . S
C1072 H1063 0.929 . S
C1072 C1064 1.378 . S
C1072 C1067 1.350 . S
C1073 H1060 0.929 . S
C1073 C1065 1.433 . S
C1073 N1075 1.384 . S
N1074 C1070 1.427 . S
N1074 C1071 1.384 . S
N1075 C1067 1.427 . S
N1075 C1073 1.384 . S
H1076 C1082 0.930 . S
H1077 C1086 0.930 . S
H1078 C1091 0.929 . S
H1079 C1089 0.929 . S
H1080 C1084 0.929 . S
H1081 C1090 0.929 . S
C1082 H1076 0.930 . S
C1082 C1083 1.367 . S
C1082 C1090 1.378 . S
C1083 C1082 1.367 . S
C1083 C1091 1.433 . S
C1084 H1080 0.929 . S
C1084 C1086 1.378 . S
C1084 C1088 1.350 . S
C1085 C1088 1.463 . S
C1085 C1090 1.350 . S
C1085 N1093 1.427 . S
C1086 H1077 0.930 . S
C1086 C1084 1.378 . S
C1086 C1087 1.367 . S
C1087 C1086 1.367 . S
C1087 C1089 1.433 . S
C1088 C1084 1.350 . S
C1088 C1085 1.463 . S
C1088 N1092 1.427 . S
C1089 H1079 0.929 . S
C1089 C1087 1.433 . S
C1089 N1092 1.384 . S
C1090 H1081 0.929 . S
C1090 C1082 1.378 . S
C1090 C1085 1.350 . S
C1091 H1078 0.929 . S
C1091 C1083 1.433 . S
C1091 N1093 1.384 . S
N1092 C1088 1.427 . S
N1092 C1089 1.384 . S
N1093 C1085 1.427 . S
N1093 C1091 1.384 . S
H1094 C1100 0.930 . S
H1095 C1104 0.930 . S
H1096 C1109 0.929 . S
H1097 C1107 0.929 . S
H1098 C1102 0.929 . S
H1099 C1108 0.929 . S
C1100 H1094 0.930 . S
C1100 C1101 1.367 . S
C1100 C1108 1.378 . S
C1101 C1100 1.367 . S
C1101 C1109 1.433 . S
C1102 H1098 0.929 . S
C1102 C1104 1.378 . S
C1102 C1106 1.350 . S
C1103 C1106 1.463 . S
C1103 C1108 1.350 . S
C1103 N1111 1.427 . S
C1104 H1095 0.930 . S
C1104 C1102 1.378 . S
C1104 C1105 1.367 . S
C1105 C1104 1.367 . S
C1105 C1107 1.433 . S
C1106 C1102 1.350 . S
C1106 C1103 1.463 . S
C1106 N1110 1.427 . S
C1107 H1097 0.929 . S
C1107 C1105 1.433 . S
C1107 N1110 1.384 . S
C1108 H1099 0.929 . S
C1108 C1100 1.378 . S
C1108 C1103 1.350 . S
C1109 H1096 0.929 . S
C1109 C1101 1.433 . S
C1109 N1111 1.384 . S
N1110 C1106 1.427 . S
N1110 C1107 1.384 . S
N1111 C1103 1.427 . S
N1111 C1109 1.384 . S
H1112 C1118 0.930 . S
H1113 C1122 0.930 . S
H1114 C1127 0.929 . S
H1115 C1125 0.929 . S
H1116 C1120 0.929 . S
H1117 C1126 0.929 . S
C1118 H1112 0.930 . S
C1118 C1119 1.367 . S
C1118 C1126 1.378 . S
C1119 C1118 1.367 . S
C1119 C1127 1.433 . S
C1120 H1116 0.929 . S
C1120 C1122 1.378 . S
C1120 C1124 1.350 . S
C1121 C1124 1.463 . S
C1121 C1126 1.350 . S
C1121 N1129 1.427 . S
C1122 H1113 0.930 . S
C1122 C1120 1.378 . S
C1122 C1123 1.367 . S
C1123 C1122 1.367 . S
C1123 C1125 1.433 . S
C1124 C1120 1.350 . S
C1124 C1121 1.463 . S
C1124 N1128 1.427 . S
C1125 H1115 0.929 . S
C1125 C1123 1.433 . S
C1125 N1128 1.384 . S
C1126 H1117 0.929 . S
C1126 C1118 1.378 . S
C1126 C1121 1.350 . S
C1127 H1114 0.929 . S
C1127 C1119 1.433 . S
C1127 N1129 1.384 . S
N1128 C1124 1.427 . S
N1128 C1125 1.384 . S
N1129 C1121 1.427 . S
N1129 C1127 1.384 . S
H1130 C1136 0.930 . S
H1131 C1140 0.930 . S
H1132 C1145 0.929 . S
H1133 C1143 0.929 . S
H1134 C1138 0.929 . S
H1135 C1144 0.929 . S
C1136 H1130 0.930 . S
C1136 C1137 1.367 . S
C1136 C1144 1.378 . S
C1137 C1136 1.367 . S
C1137 C1145 1.433 . S
C1138 H1134 0.929 . S
C1138 C1140 1.378 . S
C1138 C1142 1.350 . S
C1139 C1142 1.463 . S
C1139 C1144 1.350 . S
C1139 N1147 1.427 . S
C1140 H1131 0.930 . S
C1140 C1138 1.378 . S
C1140 C1141 1.367 . S
C1141 C1140 1.367 . S
C1141 C1143 1.433 . S
C1142 C1138 1.350 . S
C1142 C1139 1.463 . S
C1142 N1146 1.427 . S
C1143 H1133 0.929 . S
C1143 C1141 1.433 . S
C1143 N1146 1.384 . S
C1144 H1135 0.929 . S
C1144 C1136 1.378 . S
C1144 C1139 1.350 . S
C1145 H1132 0.929 . S
C1145 C1137 1.433 . S
C1145 N1147 1.384 . S
N1146 C1142 1.427 . S
N1146 C1143 1.384 . S
N1147 C1139 1.427 . S
N1147 C1145 1.384 . S
H1148 C1154 0.930 . S
H1149 C1158 0.930 . S
H1150 C1163 0.929 . S
H1151 C1161 0.929 . S
H1152 C1156 0.929 . S
H1153 C1162 0.929 . S
C1154 H1148 0.930 . S
C1154 C1155 1.367 . S
C1154 C1162 1.378 . S
C1155 C1154 1.367 . S
C1155 C1163 1.433 . S
C1156 H1152 0.929 . S
C1156 C1158 1.378 . S
C1156 C1160 1.350 . S
C1157 C1160 1.463 . S
C1157 C1162 1.350 . S
C1157 N1165 1.427 . S
C1158 H1149 0.930 . S
C1158 C1156 1.378 . S
C1158 C1159 1.367 . S
C1159 C1158 1.367 . S
C1159 C1161 1.433 . S
C1160 C1156 1.350 . S
C1160 C1157 1.463 . S
C1160 N1164 1.427 . S
C1161 H1151 0.929 . S
C1161 C1159 1.433 . S
C1161 N1164 1.384 . S
C1162 H1153 0.929 . S
C1162 C1154 1.378 . S
C1162 C1157 1.350 . S
C1163 H1150 0.929 . S
C1163 C1155 1.433 . S
C1163 N1165 1.384 . S
N1164 C1160 1.427 . S
N1164 C1161 1.384 . S
N1165 C1157 1.427 . S
N1165 C1163 1.384 . S
H1166 C1172 0.930 . S
H1167 C1176 0.930 . S
H1168 C1181 0.929 . S
H1169 C1179 0.929 . S
H1170 C1174 0.929 . S
H1171 C1180 0.929 . S
C1172 H1166 0.930 . S
C1172 C1173 1.367 . S
C1172 C1180 1.378 . S
C1173 C1172 1.367 . S
C1173 C1181 1.433 . S
C1174 H1170 0.929 . S
C1174 C1176 1.378 . S
C1174 C1178 1.350 . S
C1175 C1178 1.463 . S
C1175 C1180 1.350 . S
C1175 N1183 1.427 . S
C1176 H1167 0.930 . S
C1176 C1174 1.378 . S
C1176 C1177 1.367 . S
C1177 C1176 1.367 . S
C1177 C1179 1.433 . S
C1178 C1174 1.350 . S
C1178 C1175 1.463 . S
C1178 N1182 1.427 . S
C1179 H1169 0.929 . S
C1179 C1177 1.433 . S
C1179 N1182 1.384 . S
C1180 H1171 0.929 . S
C1180 C1172 1.378 . S
C1180 C1175 1.350 . S
C1181 H1168 0.929 . S
C1181 C1173 1.433 . S
C1181 N1183 1.384 . S
N1182 C1178 1.427 . S
N1182 C1179 1.384 . S
N1183 C1175 1.427 . S
N1183 C1181 1.384 . S
H1184 C1190 0.930 . S
H1185 C1194 0.930 . S
H1186 C1199 0.929 . S
H1187 C1197 0.929 . S
H1188 C1192 0.929 . S
H1189 C1198 0.929 . S
C1190 H1184 0.930 . S
C1190 C1191 1.367 . S
C1190 C1198 1.378 . S
C1191 C1190 1.367 . S
C1191 C1199 1.433 . S
C1192 H1188 0.929 . S
C1192 C1194 1.378 . S
C1192 C1196 1.350 . S
C1193 C1196 1.463 . S
C1193 C1198 1.350 . S
C1193 N1201 1.427 . S
C1194 H1185 0.930 . S
C1194 C1192 1.378 . S
C1194 C1195 1.367 . S
C1195 C1194 1.367 . S
C1195 C1197 1.433 . S
C1196 C1192 1.350 . S
C1196 C1193 1.463 . S
C1196 N1200 1.427 . S
C1197 H1187 0.929 . S
C1197 C1195 1.433 . S
C1197 N1200 1.384 . S
C1198 H1189 0.929 . S
C1198 C1190 1.378 . S
C1198 C1193 1.350 . S
C1199 H1186 0.929 . S
C1199 C1191 1.433 . S
C1199 N1201 1.384 . S
N1200 C1196 1.427 . S
N1200 C1197 1.384 . S
N1201 C1193 1.427 . S
N1201 C1199 1.384 . S
H1202 C1208 0.930 . S
H1203 C1212 0.930 . S
H1204 C1217 0.929 . S
H1205 C1215 0.929 . S
H1206 C1210 0.929 . S
H1207 C1216 0.929 . S
C1208 H1202 0.930 . S
C1208 C1209 1.367 . S
C1208 C1216 1.378 . S
C1209 C1208 1.367 . S
C1209 C1217 1.433 . S
C1210 H1206 0.929 . S
C1210 C1212 1.378 . S
C1210 C1214 1.350 . S
C1211 C1214 1.463 . S
C1211 C1216 1.350 . S
C1211 N1219 1.427 . S
C1212 H1203 0.930 . S
C1212 C1210 1.378 . S
C1212 C1213 1.367 . S
C1213 C1212 1.367 . S
C1213 C1215 1.433 . S
C1214 C1210 1.350 . S
C1214 C1211 1.463 . S
C1214 N1218 1.427 . S
C1215 H1205 0.929 . S
C1215 C1213 1.433 . S
C1215 N1218 1.384 . S
C1216 H1207 0.929 . S
C1216 C1208 1.378 . S
C1216 C1211 1.350 . S
C1217 H1204 0.929 . S
C1217 C1209 1.433 . S
C1217 N1219 1.384 . S
N1218 C1214 1.427 . S
N1218 C1215 1.384 . S
N1219 C1211 1.427 . S
N1219 C1217 1.384 . S
H1220 C1226 0.930 . S
H1221 C1230 0.930 . S
H1222 C1235 0.929 . S
H1223 C1233 0.929 . S
H1224 C1228 0.929 . S
H1225 C1234 0.929 . S
C1226 H1220 0.930 . S
C1226 C1227 1.367 . S
C1226 C1234 1.378 . S
C1227 C1226 1.367 . S
C1227 C1235 1.433 . S
C1228 H1224 0.929 . S
C1228 C1230 1.378 . S
C1228 C1232 1.350 . S
C1229 C1232 1.463 . S
C1229 C1234 1.350 . S
C1229 N1237 1.427 . S
C1230 H1221 0.930 . S
C1230 C1228 1.378 . S
C1230 C1231 1.367 . S
C1231 C1230 1.367 . S
C1231 C1233 1.433 . S
C1232 C1228 1.350 . S
C1232 C1229 1.463 . S
C1232 N1236 1.427 . S
C1233 H1223 0.929 . S
C1233 C1231 1.433 . S
C1233 N1236 1.384 . S
C1234 H1225 0.929 . S
C1234 C1226 1.378 . S
C1234 C1229 1.350 . S
C1235 H1222 0.929 . S
C1235 C1227 1.433 . S
C1235 N1237 1.384 . S
N1236 C1232 1.427 . S
N1236 C1233 1.384 . S
N1237 C1229 1.427 . S
N1237 C1235 1.384 . S
H1238 C1244 0.930 . S
H1239 C1248 0.930 . S
H1240 C1253 0.929 . S
H1241 C1251 0.929 . S
H1242 C1246 0.929 . S
H1243 C1252 0.929 . S
C1244 H1238 0.930 . S
C1244 C1245 1.367 . S
C1244 C1252 1.378 . S
C1245 C1244 1.367 . S
C1245 C1253 1.433 . S
C1246 H1242 0.929 . S
C1246 C1248 1.378 . S
C1246 C1250 1.350 . S
C1247 C1250 1.463 . S
C1247 C1252 1.350 . S
C1247 N1255 1.427 . S
C1248 H1239 0.930 . S
C1248 C1246 1.378 . S
C1248 C1249 1.367 . S
C1249 C1248 1.367 . S
C1249 C1251 1.433 . S
C1250 C1246 1.350 . S
C1250 C1247 1.463 . S
C1250 N1254 1.427 . S
C1251 H1241 0.929 . S
C1251 C1249 1.433 . S
C1251 N1254 1.384 . S
C1252 H1243 0.929 . S
C1252 C1244 1.378 . S
C1252 C1247 1.350 . S
C1253 H1240 0.929 . S
C1253 C1245 1.433 . S
C1253 N1255 1.384 . S
N1254 C1250 1.427 . S
N1254 C1251 1.384 . S
N1255 C1247 1.427 . S
N1255 C1253 1.384 . S
H1256 C1262 0.930 . S
H1257 C1266 0.930 . S
H1258 C1271 0.929 . S
H1259 C1269 0.929 . S
H1260 C1264 0.929 . S
H1261 C1270 0.929 . S
C1262 H1256 0.930 . S
C1262 C1263 1.367 . S
C1262 C1270 1.378 . S
C1263 C1262 1.367 . S
C1263 C1271 1.433 . S
C1264 H1260 0.929 . S
C1264 C1266 1.378 . S
C1264 C1268 1.350 . S
C1265 C1268 1.463 . S
C1265 C1270 1.350 . S
C1265 N1273 1.427 . S
C1266 H1257 0.930 . S
C1266 C1264 1.378 . S
C1266 C1267 1.367 . S
C1267 C1266 1.367 . S
C1267 C1269 1.433 . S
C1268 C1264 1.350 . S
C1268 C1265 1.463 . S
C1268 N1272 1.427 . S
C1269 H1259 0.929 . S
C1269 C1267 1.433 . S
C1269 N1272 1.384 . S
C1270 H1261 0.929 . S
C1270 C1262 1.378 . S
C1270 C1265 1.350 . S
C1271 H1258 0.929 . S
C1271 C1263 1.433 . S
C1271 N1273 1.384 . S
N1272 C1268 1.427 . S
N1272 C1269 1.384 . S
N1273 C1265 1.427 . S
N1273 C1271 1.384 . S
H1274 C1280 0.930 . S
H1275 C1284 0.930 . S
H1276 C1289 0.929 . S
H1277 C1287 0.929 . S
H1278 C1282 0.929 . S
H1279 C1288 0.929 . S
C1280 H1274 0.930 . S
C1280 C1281 1.367 . S
C1280 C1288 1.378 . S
C1281 C1280 1.367 . S
C1281 C1289 1.433 . S
C1282 H1278 0.929 . S
C1282 C1284 1.378 . S
C1282 C1286 1.350 . S
C1283 C1286 1.463 . S
C1283 C1288 1.350 . S
C1283 N1291 1.427 . S
C1284 H1275 0.930 . S
C1284 C1282 1.378 . S
C1284 C1285 1.367 . S
C1285 C1284 1.367 . S
C1285 C1287 1.433 . S
C1286 C1282 1.350 . S
C1286 C1283 1.463 . S
C1286 N1290 1.427 . S
C1287 H1277 0.929 . S
C1287 C1285 1.433 . S
C1287 N1290 1.384 . S
C1288 H1279 0.929 . S
C1288 C1280 1.378 . S
C1288 C1283 1.350 . S
C1289 H1276 0.929 . S
C1289 C1281 1.433 . S
C1289 N1291 1.384 . S
N1290 C1286 1.427 . S
N1290 C1287 1.384 . S
N1291 C1283 1.427 . S
N1291 C1289 1.384 . S
H1292 C1298 0.930 . S
H1293 C1302 0.930 . S
H1294 C1307 0.929 . S
H1295 C1305 0.929 . S
H1296 C1300 0.929 . S
H1297 C1306 0.929 . S
C1298 H1292 0.930 . S
C1298 C1299 1.367 . S
C1298 C1306 1.378 . S
C1299 C1298 1.367 . S
C1299 C1307 1.433 . S
C1300 H1296 0.929 . S
C1300 C1302 1.378 . S
C1300 C1304 1.350 . S
C1301 C1304 1.463 . S
C1301 C1306 1.350 . S
C1301 N1309 1.427 . S
C1302 H1293 0.930 . S
C1302 C1300 1.378 . S
C1302 C1303 1.367 . S
C1303 C1302 1.367 . S
C1303 C1305 1.433 . S
C1304 C1300 1.350 . S
C1304 C1301 1.463 . S
C1304 N1308 1.427 . S
C1305 H1295 0.929 . S
C1305 C1303 1.433 . S
C1305 N1308 1.384 . S
C1306 H1297 0.929 . S
C1306 C1298 1.378 . S
C1306 C1301 1.350 . S
C1307 H1294 0.929 . S
C1307 C1299 1.433 . S
C1307 N1309 1.384 . S
N1308 C1304 1.427 . S
N1308 C1305 1.384 . S
N1309 C1301 1.427 . S
N1309 C1307 1.384 . S
H1310 C1316 0.930 . S
H1311 C1320 0.930 . S
H1312 C1325 0.929 . S
H1313 C1323 0.929 . S
H1314 C1318 0.929 . S
H1315 C1324 0.929 . S
C1316 H1310 0.930 . S
C1316 C1317 1.367 . S
C1316 C1324 1.378 . S
C1317 C1316 1.367 . S
C1317 C1325 1.433 . S
C1318 H1314 0.929 . S
C1318 C1320 1.378 . S
C1318 C1322 1.350 . S
C1319 C1322 1.463 . S
C1319 C1324 1.350 . S
C1319 N1327 1.427 . S
C1320 H1311 0.930 . S
C1320 C1318 1.378 . S
C1320 C1321 1.367 . S
C1321 C1320 1.367 . S
C1321 C1323 1.433 . S
C1322 C1318 1.350 . S
C1322 C1319 1.463 . S
C1322 N1326 1.427 . S
C1323 H1313 0.929 . S
C1323 C1321 1.433 . S
C1323 N1326 1.384 . S
C1324 H1315 0.929 . S
C1324 C1316 1.378 . S
C1324 C1319 1.350 . S
C1325 H1312 0.929 . S
C1325 C1317 1.433 . S
C1325 N1327 1.384 . S
N1326 C1322 1.427 . S
N1326 C1323 1.384 . S
N1327 C1319 1.427 . S
N1327 C1325 1.384 . S
H1328 C1334 0.930 . S
H1329 C1338 0.930 . S
H1330 C1343 0.929 . S
H1331 C1341 0.929 . S
H1332 C1336 0.929 . S
H1333 C1342 0.929 . S
C1334 H1328 0.930 . S
C1334 C1335 1.367 . S
C1334 C1342 1.378 . S
C1335 C1334 1.367 . S
C1335 C1343 1.433 . S
C1336 H1332 0.929 . S
C1336 C1338 1.378 . S
C1336 C1340 1.350 . S
C1337 C1340 1.463 . S
C1337 C1342 1.350 . S
C1337 N1345 1.427 . S
C1338 H1329 0.930 . S
C1338 C1336 1.378 . S
C1338 C1339 1.367 . S
C1339 C1338 1.367 . S
C1339 C1341 1.433 . S
C1340 C1336 1.350 . S
C1340 C1337 1.463 . S
C1340 N1344 1.427 . S
C1341 H1331 0.929 . S
C1341 C1339 1.433 . S
C1341 N1344 1.384 . S
C1342 H1333 0.929 . S
C1342 C1334 1.378 . S
C1342 C1337 1.350 . S
C1343 H1330 0.929 . S
C1343 C1335 1.433 . S
C1343 N1345 1.384 . S
N1344 C1340 1.427 . S
N1344 C1341 1.384 . S
N1345 C1337 1.427 . S
N1345 C1343 1.384 . S
H1346 C1352 0.930 . S
H1347 C1356 0.930 . S
H1348 C1361 0.929 . S
H1349 C1359 0.929 . S
H1350 C1354 0.929 . S
H1351 C1360 0.929 . S
C1352 H1346 0.930 . S
C1352 C1353 1.367 . S
C1352 C1360 1.378 . S
C1353 C1352 1.367 . S
C1353 C1361 1.433 . S
C1354 H1350 0.929 . S
C1354 C1356 1.378 . S
C1354 C1358 1.350 . S
C1355 C1358 1.463 . S
C1355 C1360 1.350 . S
C1355 N1363 1.427 . S
C1356 H1347 0.930 . S
C1356 C1354 1.378 . S
C1356 C1357 1.367 . S
C1357 C1356 1.367 . S
C1357 C1359 1.433 . S
C1358 C1354 1.350 . S
C1358 C1355 1.463 . S
C1358 N1362 1.427 . S
C1359 H1349 0.929 . S
C1359 C1357 1.433 . S
C1359 N1362 1.384 . S
C1360 H1351 0.929 . S
C1360 C1352 1.378 . S
C1360 C1355 1.350 . S
C1361 H1348 0.929 . S
C1361 C1353 1.433 . S
C1361 N1363 1.384 . S
N1362 C1358 1.427 . S
N1362 C1359 1.384 . S
N1363 C1355 1.427 . S
N1363 C1361 1.384 . S
H1364 C1370 0.930 . S
H1365 C1374 0.930 . S
H1366 C1379 0.929 . S
H1367 C1377 0.929 . S
H1368 C1372 0.929 . S
H1369 C1378 0.929 . S
C1370 H1364 0.930 . S
C1370 C1371 1.367 . S
C1370 C1378 1.378 . S
C1371 C1370 1.367 . S
C1371 C1379 1.433 . S
C1372 H1368 0.929 . S
C1372 C1374 1.378 . S
C1372 C1376 1.350 . S
C1373 C1376 1.463 . S
C1373 C1378 1.350 . S
C1373 N1381 1.427 . S
C1374 H1365 0.930 . S
C1374 C1372 1.378 . S
C1374 C1375 1.367 . S
C1375 C1374 1.367 . S
C1375 C1377 1.433 . S
C1376 C1372 1.350 . S
C1376 C1373 1.463 . S
C1376 N1380 1.427 . S
C1377 H1367 0.929 . S
C1377 C1375 1.433 . S
C1377 N1380 1.384 . S
C1378 H1369 0.929 . S
C1378 C1370 1.378 . S
C1378 C1373 1.350 . S
C1379 H1366 0.929 . S
C1379 C1371 1.433 . S
C1379 N1381 1.384 . S
N1380 C1376 1.427 . S
N1380 C1377 1.384 . S
N1381 C1373 1.427 . S
N1381 C1379 1.384 . S
C529 C347 1.479 . S
C525 C2 1.640 . S
C547 C348 1.591 . S
C543 C48 1.619 . S
C565 C342 1.364 . S
C561 C97 1.392 . S
C579 C149 0.577 . S
C583 C341 0.426 . S
C597 C189 1.623 . S
C601 C344 1.587 . S
C619 C346 1.367 . S
C615 C202 1.385 . S
C633 C248 0.535 . S
C637 C345 0.394 . S
C651 C297 1.636 . S
C655 C343 1.493 . S
C673 C378 2.886 . S
C669 C31 2.872 . S
C687 C52 1.722 . S
C691 C409 1.643 . S
C709 C377 1.236 . S
C705 C88 1.277 . S
C727 C412 1.082 . S
C723 C122 1.073 . S
C741 C162 1.428 . S
C745 C375 1.418 . S
C763 C407 2.886 . S
C759 C231 2.891 . S
C777 C252 1.438 . S
C781 C380 1.377 . S
C795 C288 1.292 . S
C799 C414 1.243 . S
C813 C29 1.291 . S
C817 C410 1.231 . S
C831 C191 1.727 . S
C835 C413 1.636 . S
C853 C381 1.227 . S
C849 C229 1.275 . S
C871 C408 1.082 . S
C867 C257 1.076 . S
C885 C292 2.874 . S
C889 C374 2.885 . S
C903 C92 2.891 . S
C907 C411 2.885 . S
C925 C376 1.373 . S
C921 C151 1.433 . S
C939 C57 1.429 . S
C943 C379 1.419 . S
C957 C282 1.690 . S
C961 C446 1.556 . S
C975 C168 1.301 . S
C979 C447 1.257 . S
C997 C441 1.156 . S
C993 C217 1.173 . S
C1015 C440 0.410 . S
C1011 C269 0.543 . S
C1029 C69 1.289 . S
C1033 C443 1.248 . S
C1051 C445 1.163 . S
C1047 C82 1.172 . S
C1065 C128 0.533 . S
C1069 C444 0.397 . S
C1083 C17 1.689 . S
C1087 C442 1.560 . S
C1101 C311 3.053 . S
C1105 C480 2.978 . S
C1123 C512 1.417 . S
C1119 C172 1.480 . S
C1137 C208 1.145 . S
C1141 C473 1.141 . S
C1155 C242 1.419 . S
C1159 C507 1.402 . S
C1177 C478 1.083 . S
C1173 C42 1.107 . S
C1191 C111 3.056 . S
C1195 C509 2.994 . S
C1213 C475 1.803 . S
C1209 C132 1.825 . S
C1231 C510 1.289 . S
C1227 C8 1.279 . S
C1249 C506 1.293 . S
C1245 C309 1.285 . S
C1263 C71 1.479 . S
C1267 C508 1.427 . S
C1281 C109 1.145 . S
C1285 C477 1.140 . S
C1303 C511 1.416 . S
C1299 C137 1.427 . S
C1317 C12 3.053 . S
C1321 C476 2.971 . S
C1335 C212 3.056 . S
C1339 C513 2.993 . S
C1357 C479 1.796 . S
C1353 C271 1.835 . S
C1375 C474 1.095 . S
C1371 C177 1.096 . S
