# Generated by pormake.
# Topology ftw, (4,12)-cn, num edge types: 1
# Building blocks:
#     Node 0, Type 0, BuildingBlock: ESEHIV_clean_sbu_0, # of connection points: 4
#     Node 1, Type 0, BuildingBlock: ESEHIV_clean_sbu_0, # of connection points: 4
#     Node 2, Type 0, BuildingBlock: ESEHIV_clean_sbu_0, # of connection points: 4
#     Node 3, Type 1, BuildingBlock: EZIPEK_clean_sbu_0, # of connection points: 12
#     Edge 4, Type (0, 1), BuildingBlock: XUDNAN_clean_linker_2, # of connection points: 2
#     Edge 5, Type (0, 1), BuildingBlock: XUDNAN_clean_linker_2, # of connection points: 2
#     Edge 6, Type (0, 1), BuildingBlock: XUDNAN_clean_linker_2, # of connection points: 2
#     Edge 7, Type (0, 1), BuildingBlock: XUDNAN_clean_linker_2, # of connection points: 2
#     Edge 8, Type (0, 1), BuildingBlock: XUDNAN_clean_linker_2, # of connection points: 2
#     Edge 9, Type (0, 1), BuildingBlock: XUDNAN_clean_linker_2, # of connection points: 2
#     Edge 10, Type (0, 1), BuildingBlock: XUDNAN_clean_linker_2, # of connection points: 2
#     Edge 11, Type (0, 1), BuildingBlock: XUDNAN_clean_linker_2, # of connection points: 2
#     Edge 12, Type (0, 1), BuildingBlock: XUDNAN_clean_linker_2, # of connection points: 2
#     Edge 13, Type (0, 1), BuildingBlock: XUDNAN_clean_linker_2, # of connection points: 2
#     Edge 14, Type (0, 1), BuildingBlock: XUDNAN_clean_linker_2, # of connection points: 2
#     Edge 15, Type (0, 1), BuildingBlock: XUDNAN_clean_linker_2, # of connection points: 2
# Relax obj value: 0.025
# Max RMSD: 0.144
# Mean RMSD: 0.114
data_MOF--net-ftw--node1-ESEHIV_clean_sbu_0--node2-EZIPEK_clean_sbu_0--edge1-XUDNAN_clean_linker_2
_symmetry_space_group_name_H-M    P1
_symmetry_Int_Tables_number       1
_symmetry_cell_setting            triclinic
loop_
_symmetry_equiv_pos_as_xyz
'x, y, z'
_cell_length_a     24.86017
_cell_length_b     24.690475
_cell_length_c     24.288643
_cell_angle_alpha  86.422405
_cell_angle_beta   86.583475
_cell_angle_gamma 93.510826
loop_
_atom_site_label
_atom_site_type_symbol
_atom_site_fract_x
_atom_site_fract_y
_atom_site_fract_z
_atom_type_partial_charge
Cu0 Cu 0.99814 0.51678 0.48965 0.0
N1 N 0.95546 0.4683 0.45295 0.0
N2 N 0.94201 0.39619 0.40315 0.0
C3 C 0.97353 0.42067 0.43875 0.0
C4 C 0.90204 0.42994 0.39477 0.0
C5 C 0.9105 0.47462 0.42567 0.0
O6 O 0.03483 0.47245 0.54268 0.0
C7 C 0.06338 0.60592 0.43604 0.0
O8 O 0.05653 0.62905 0.48296 0.0
H9 H 1.01179 0.40666 0.45082 0.0
H10 H 0.8876 0.51048 0.42548 0.0
N11 N 0.95981 0.56677 0.52792 0.0
N12 N 0.95773 0.63199 0.58783 0.0
C13 C 0.9753 0.58299 0.5766 0.0
C14 C 0.92965 0.60602 0.50793 0.0
C15 C 0.92798 0.64624 0.54508 0.0
C16 C 1.00456 0.44781 0.58177 0.0
O17 O 0.95261 0.45528 0.58412 0.0
H18 H 1.00371 0.56156 0.60029 0.0
H19 H 0.91535 0.60834 0.46671 0.0
O20 O 0.04598 0.55668 0.43294 0.0
H21 H 0.87042 0.42404 0.36656 0.0
H22 H 0.9111 0.68528 0.53818 0.0
Cu23 Cu 0.54071 0.01829 0.49001 0.0
N24 N 0.60189 0.04351 0.52684 0.0
N25 N 0.66174 0.07124 0.58681 0.0
C26 C 0.6095 0.07076 0.5729 0.0
C27 C 0.68746 0.04393 0.54812 0.0
C28 C 0.65099 0.02657 0.51239 0.0
O29 O 0.57368 0.98058 0.42873 0.0
C30 C 0.48287 0.97579 0.59199 0.0
O31 O 0.52573 0.9916 0.61718 0.0
H32 H 0.5772 0.08689 0.59745 0.0
H33 H 0.65958 0.99903 0.4808 0.0
N34 N 0.5 0.07144 0.45672 0.0
N35 N 0.43935 0.09624 0.39669 0.0
C36 C 0.48322 0.06805 0.40518 0.0
C37 C 0.46492 0.10284 0.48201 0.0
C38 C 0.42746 0.11829 0.44499 0.0
C39 C 0.60418 1.01244 0.39494 0.0
O40 O 0.60461 0.06501 0.401 0.0
H41 H 0.49894 0.04037 0.37634 0.0
H42 H 0.46326 0.10935 0.5257 0.0
O43 O 0.48572 0.97599 0.53931 0.0
H44 H 0.72875 0.03233 0.54872 0.0
H45 H 0.39252 0.14112 0.45387 0.0
Cu46 Cu 0.54106 0.51309 0.02254 0.0
N47 N 0.49377 0.5567 0.06023 0.0
N48 N 0.43693 0.62299 0.0682 0.0
C49 C 0.47258 0.59962 0.03471 0.0
C50 C 0.43518 0.59342 0.11699 0.0
C51 C 0.47069 0.55258 0.11207 0.0
O52 O 0.49464 0.46579 0.98126 0.0
C53 C 0.61338 0.60234 0.0064 0.0
O54 O 0.59382 0.60747 0.05708 0.0
H55 H 0.48247 0.61278 0.99175 0.0
H56 H 0.47837 0.52164 0.14363 0.0
N57 N 0.58148 0.46811 0.06663 0.0
N58 N 0.63961 0.40333 0.07925 0.0
C59 C 0.59747 0.4197 0.05138 0.0
C60 C 0.61449 0.48262 0.10597 0.0
C61 C 0.65048 0.44271 0.11378 0.0
C62 C 0.45786 0.43836 0.01197 0.0
O63 O 0.45714 0.4426 0.06563 0.0
H64 H 0.58193 0.39943 0.0168 0.0
H65 H 0.61534 0.52139 0.12437 0.0
O66 O 0.59493 0.56276 0.98003 0.0
H67 H 0.4104 0.60102 0.15352 0.0
H68 H 0.68361 0.44376 0.14075 0.0
C69 C 0.04507 0.15753 0.86504 0.0
C70 C 0.03661 0.13322 0.13468 0.0
C71 C 0.04008 0.89581 0.85978 0.0
C72 C 0.06066 0.87391 0.1241 0.0
C73 C 0.18063 0.9 0.99003 0.0
C74 C 0.16777 0.161 0.9755 0.0
C75 C 0.91924 0.87128 0.99133 0.0
C76 C 0.90544 0.13025 0.01659 0.0
C77 C 0.91747 0.98027 0.14105 0.0
C78 C 0.17959 0.03275 0.11381 0.0
C79 C 0.90586 0.02856 0.87869 0.0
C80 C 0.16806 0.02008 0.84806 0.0
Eu81 Eu 0.03825 0.11844 0.99894 0.0
O82 O 0.09051 0.06492 0.04064 0.0
O83 O 0.99162 0.06209 0.9534 0.0
Eu84 Eu 0.14454 0.02734 0.98383 0.0
Eu85 Eu 0.94225 1.00352 0.00641 0.0
O86 O 0.08587 0.07286 0.943 0.0
O87 O 0.99581 0.05364 0.05116 0.0
Eu88 Eu 0.03847 0.02395 0.89101 0.0
Eu89 Eu 0.04783 1.00663 0.10045 0.0
O90 O 0.09067 0.97713 0.94004 0.0
O91 O 0.09519 0.96969 0.03779 0.0
O92 O 0.99978 0.95726 0.04902 0.0
O93 O 0.99606 0.96604 0.95042 0.0
Eu94 Eu 0.0484 0.91349 0.99284 0.0
O95 O 0.03695 0.16979 0.91766 0.0
O96 O 0.03508 0.15514 0.08299 0.0
O97 O 0.05274 0.87714 0.90977 0.0
O98 O 0.05344 0.86164 0.07218 0.0
O99 O 0.19411 0.95332 0.98713 0.0
O100 O 0.18491 0.11174 0.96792 0.0
O101 O 0.90062 0.92036 0.99728 0.0
O102 O 0.89336 0.07662 0.01961 0.0
O103 O 0.9687 0.98955 0.15416 0.0
O104 O 0.12974 0.02125 0.13742 0.0
O105 O 0.95624 0.03311 0.85524 0.0
O106 O 0.11606 0.02078 0.8367 0.0
O107 O 0.97111 0.85987 0.99053 0.0
O108 O 0.13038 0.87719 0.9913 0.0
O109 O 0.95538 0.15409 0.00775 0.0
O110 O 0.11724 0.17196 0.99121 0.0
O111 O 0.04136 0.08086 0.14919 0.0
O112 O 0.06071 0.92384 0.14259 0.0
O113 O 0.04895 0.10778 0.84725 0.0
O114 O 1.02891 0.94678 0.84523 0.0
O115 O 0.1866 0.02378 0.89836 0.0
O116 O 0.1924 0.03651 0.05944 0.0
O117 O 0.89277 0.01603 0.9322 0.0
O118 O 0.90009 0.98234 0.09023 0.0
H119 H 0.91559 0.37284 0.29921 0.0
H120 H 0.99918 0.31298 0.44031 0.0
H121 H 0.03364 0.23981 0.38627 0.0
H122 H 0.87861 0.23658 0.25571 0.0
H123 H 0.88728 0.25444 0.18283 0.0
H124 H 0.86547 0.30412 0.22961 0.0
H125 H 0.94359 0.37231 0.19601 0.0
H126 H 0.96814 0.3268 0.14654 0.0
H127 H 1.01218 0.3524 0.19645 0.0
H128 H 0.063 0.17617 0.31566 0.0
H129 H 0.08004 0.12233 0.23484 0.0
H130 H 0.97754 0.22327 0.13942 0.0
C131 C 0.94014 0.34373 0.31918 0.0
C132 C 0.95517 0.34916 0.37391 0.0
C133 C 0.98789 0.31028 0.39818 0.0
C134 C 1.00754 0.26844 0.36789 0.0
C135 C 0.99365 0.26551 0.31347 0.0
C136 C 0.95998 0.30146 0.28958 0.0
C137 C 0.95139 0.28909 0.23032 0.0
C138 C 0.89213 0.27007 0.22423 0.0
C139 C 0.96989 0.33808 0.18997 0.0
C140 C 0.98762 0.24256 0.22376 0.0
C141 C 1.01088 0.22896 0.27257 0.0
C142 C 0.04484 0.18634 0.27726 0.0
C143 C 0.05434 0.1561 0.23113 0.0
C144 C 1.03043 0.16898 0.18082 0.0
C145 C 0.99717 0.21321 0.17702 0.0
H146 H 0.70189 0.0645 0.36635 0.0
H147 H 0.60675 0.91522 0.34401 0.0
H148 H 0.68163 0.88584 0.28249 0.0
H149 H 0.75994 0.08781 0.23118 0.0
H150 H 0.82461 0.11337 0.25193 0.0
H151 H 0.7646 0.12025 0.29536 0.0
H152 H 0.8078 0.07055 0.37723 0.0
H153 H 0.86785 0.06316 0.3337 0.0
H154 H 0.83223 1.00406 0.36918 0.0
H155 H 0.76371 0.87873 0.21543 0.0
H156 H 0.8462 0.89212 0.15245 0.0
H157 H 0.88968 0.04286 0.22561 0.0
C158 C 0.69659 0.02551 0.34861 0.0
C159 C 0.64816 0.99233 0.35929 0.0
C160 C 0.64342 0.94125 0.33613 0.0
C161 C 0.68577 0.92434 0.30132 0.0
C162 C 0.73287 0.95847 0.29137 0.0
C163 C 0.73858 1.00773 0.31499 0.0
C164 C 0.79257 0.03761 0.29752 0.0
C165 C 0.78494 0.09301 0.26718 0.0
C166 C 0.82715 0.04421 0.34738 0.0
C167 C 0.81608 0.99834 0.25873 0.0
C168 C 0.7811 0.95285 0.25571 0.0
C169 C 0.79187 0.91342 0.21863 0.0
C170 C 0.83884 0.92124 0.18319 0.0
C171 C 0.87487 0.9676 0.18563 0.0
C172 C 0.86383 1.00603 0.2246 0.0
H173 H 0.06601 0.71683 0.42034 0.0
H174 H 0.09406 0.57102 0.33477 0.0
H175 H 0.10486 0.62598 0.24585 0.0
H176 H 0.98444 0.77268 0.3261 0.0
H177 H 1.00839 0.84254 0.33073 0.0
H178 H 1.01245 0.79417 0.38859 0.0
H179 H 0.11547 0.81737 0.38924 0.0
H180 H 0.11166 0.86654 0.33176 0.0
H181 H 0.15773 0.81318 0.3269 0.0
H182 H 0.10099 0.69413 0.16592 0.0
H183 H 0.08571 0.77096 0.10052 0.0
H184 H 0.05841 0.87273 0.23785 0.0
C185 C 0.07632 0.69668 0.38316 0.0
C186 C 0.07974 0.63965 0.38455 0.0
C187 C 0.09167 0.61468 0.33472 0.0
C188 C 0.09788 0.64558 0.28403 0.0
C189 C 0.09214 0.70139 0.28388 0.0
C190 C 0.08215 0.72687 0.33218 0.0
C191 C 0.07271 0.78644 0.32023 0.0
C192 C 1.01614 0.79969 0.34274 0.0
C193 C 0.11704 0.82304 0.3434 0.0
C194 C 0.07719 0.79005 0.25764 0.0
C195 C 0.08905 0.7407 0.23756 0.0
C196 C 0.09229 0.73312 0.18118 0.0
C197 C 0.08313 0.77706 0.14433 0.0
C198 C 0.07066 0.82809 0.1639 0.0
C199 C 0.0682 0.83452 0.22142 0.0
H200 H 0.32916 0.08795 0.39308 0.0
H201 H 0.47917 0.09849 0.29128 0.0
H202 H 0.42827 0.08532 0.20846 0.0
H203 H 0.26378 0.98285 0.32336 0.0
H204 H 0.19758 1.00879 0.32819 0.0
H205 H 0.24475 0.02357 0.37956 0.0
H206 H 0.23551 0.12679 0.35999 0.0
H207 H 0.1879 0.1123 0.30887 0.0
H208 H 0.24745 0.15654 0.29031 0.0
H209 H 0.36324 0.06621 0.13813 0.0
H210 H 0.28711 0.04502 0.08193 0.0
H211 H 0.17621 0.04544 0.22733 0.0
C212 C 0.35101 0.08873 0.35311 0.0
C213 C 0.40824 0.09461 0.34842 0.0
C214 C 0.4355 0.09404 0.29565 0.0
C215 C 0.40691 0.08663 0.24845 0.0
C216 C 0.35081 0.07966 0.25451 0.0
C217 C 0.32289 0.0809 0.30528 0.0
C218 C 0.2625 0.06998 0.29998 0.0
C219 C 0.2409 0.01822 0.33484 0.0
C220 C 0.23151 0.11935 0.31572 0.0
C221 C 0.26119 0.0619 0.23847 0.0
C222 C 0.31272 0.06795 0.21333 0.0
C223 C 0.32262 0.06176 0.15722 0.0
C224 C 0.27877 0.04959 0.1256 0.0
C225 C 0.22514 0.04353 0.14982 0.0
C226 C 0.21649 0.04961 0.20734 0.0
H227 H 0.91175 0.72059 0.62843 0.0
H228 H 0.05161 0.62379 0.63958 0.0
H229 H 0.0872 0.68221 0.70792 0.0
H230 H 0.98551 0.85052 0.63878 0.0
H231 H 0.9326 0.87837 0.68009 0.0
H232 H 0.91596 0.82806 0.6321 0.0
H233 H 0.8644 0.76718 0.71145 0.0
H234 H 0.88066 0.81752 0.75948 0.0
H235 H 0.89865 0.7485 0.77253 0.0
H236 H 0.10775 0.74793 0.77667 0.0
H237 H 0.11226 0.82038 0.84209 0.0
H238 H 0.96378 0.88029 0.78415 0.0
C239 C 0.94987 0.71177 0.64513 0.0
C240 C 0.97798 0.66657 0.62886 0.0
C241 C 1.02791 0.65668 0.65199 0.0
C242 C 0.04911 0.69019 0.69066 0.0
C243 C 1.02047 0.73403 0.7057 0.0
C244 C 0.97208 0.74525 0.68375 0.0
C245 C 0.94994 0.79545 0.70749 0.0
C246 C 0.94577 0.84078 0.66189 0.0
C247 C 0.89517 0.7813 0.73964 0.0
C248 C 0.99358 0.81029 0.74605 0.0
C249 C 0.03365 0.77395 0.7444 0.0
C250 C 0.07698 0.77706 0.77806 0.0
C251 C 0.07919 0.81818 0.81503 0.0
C252 C 0.03875 0.85594 0.81743 0.0
C253 C 0.99574 0.85244 0.78208 0.0
H254 H 0.46103 0.98498 0.70332 0.0
H255 H 0.38278 0.95729 0.55154 0.0
H256 H 0.29381 0.96367 0.60086 0.0
H257 H 0.35622 0.91028 0.79847 0.0
H258 H 0.36378 0.95832 0.85079 0.0
H259 H 0.42069 0.9462 0.80474 0.0
H260 H 0.43295 0.04934 0.77629 0.0
H261 H 0.37565 0.06169 0.82158 0.0
H262 H 0.37721 0.08366 0.74929 0.0
H263 H 0.21349 0.98099 0.66517 0.0
H264 H 0.14817 1.00103 0.74042 0.0
H265 H 0.27899 0.01777 0.85033 0.0
C266 C 0.4252 0.97894 0.6806 0.0
C267 C 0.42919 0.97027 0.62339 0.0
C268 C 0.38105 0.96346 0.59534 0.0
C269 C 0.33022 0.96728 0.62301 0.0
C270 C 0.32795 0.97765 0.6789 0.0
C271 C 0.37416 0.98263 0.70758 0.0
C272 C 0.36086 0.99577 0.76692 0.0
C273 C 0.3763 0.94991 0.80763 0.0
C274 C 0.3883 0.05088 0.77921 0.0
C275 C 0.30007 0.99838 0.76689 0.0
C276 C 0.28184 0.98768 0.71579 0.0
C277 C 0.22736 0.989 0.70545 0.0
C278 C 0.19051 1.00079 0.74856 0.0
C279 C 0.20807 1.01123 0.80166 0.0
C280 C 0.26386 1.0101 0.81046 0.0
H281 H 0.95796 0.41237 0.68309 0.0
H282 H 0.09799 0.39453 0.57187 0.0
H283 H 0.12712 0.3218 0.63618 0.0
H284 H 1.02566 0.38738 0.8127 0.0
H285 H 0.9665 0.35124 0.84687 0.0
H286 H 0.95935 0.40457 0.79419 0.0
H287 H 0.90161 0.33743 0.74024 0.0
H288 H 0.90888 0.28398 0.79256 0.0
H289 H 0.92881 0.27462 0.7214 0.0
H290 H 0.13412 0.24364 0.70647 0.0
H291 H 0.1234 0.17114 0.78208 0.0
H292 H 0.98222 0.24399 0.85071 0.0
C293 C 0.99523 0.39375 0.67264 0.0
C294 C 1.02577 0.40894 0.62249 0.0
C295 C 0.07425 0.38371 0.61027 0.0
C296 C 0.09097 0.34232 0.64645 0.0
C297 C 0.05923 0.32749 0.69502 0.0
C298 C 1.01284 0.35307 0.70861 0.0
C299 C 0.98502 0.32851 0.76245 0.0
C300 C 0.9841 0.37043 0.80667 0.0
C301 C 0.92771 0.30473 0.75359 0.0
C302 C 1.02223 0.28409 0.77642 0.0
C303 C 0.06468 0.28406 0.73686 0.0
C304 C 0.10176 0.244 0.73826 0.0
C305 C 0.09523 0.20294 0.7811 0.0
C306 C 0.05246 0.20271 0.82228 0.0
C307 C 1.01594 0.24415 0.82031 0.0
H308 H 0.7655 0.10352 0.60007 0.0
H309 H 0.61129 0.06171 0.68993 0.0
H310 H 0.65726 0.05584 0.77753 0.0
H311 H 0.83314 1.00774 0.66774 0.0
H312 H 0.8968 0.04669 0.66832 0.0
H313 H 0.85169 0.0614 0.61501 0.0
H314 H 0.85114 0.16178 0.64038 0.0
H315 H 0.8974 0.14778 0.69308 0.0
H316 H 0.8344 0.17682 0.71081 0.0
H317 H 0.72164 0.03887 0.85224 0.0
H318 H 0.79735 0.01833 0.90912 0.0
H319 H 0.91059 0.06576 0.76867 0.0
C320 C 0.74118 0.09505 0.63845 0.0
C321 C 0.68474 0.08326 0.63818 0.0
C322 C 0.65432 0.07186 0.68915 0.0
C323 C 0.68027 0.06795 0.73904 0.0
C324 C 0.73652 0.07592 0.73716 0.0
C325 C 0.76654 0.0901 0.68815 0.0
C326 C 0.82666 0.09005 0.69583 0.0
C327 C 0.85361 0.04903 0.65958 0.0
C328 C 0.854 0.14753 0.68436 0.0
C329 C 0.82595 0.0718 0.7565 0.0
C330 C 0.77364 0.06462 0.77978 0.0
C331 C 0.76272 0.04519 0.83458 0.0
C332 C 0.80624 0.03328 0.86649 0.0
C333 C 0.86034 0.04024 0.84354 0.0
C334 C 0.86996 0.05993 0.78769 0.0
H335 H 0.35903 0.40664 0.06108 0.0
H336 H 0.46182 0.38769 0.91381 0.0
H337 H 0.39382 0.31961 0.88378 0.0
H338 H 0.31538 0.27081 0.08842 0.0
H339 H 0.24736 0.28341 0.11172 0.0
H340 H 0.30147 0.33385 0.11844 0.0
H341 H 0.25044 0.40543 0.06314 0.0
H342 H 0.19596 0.35513 0.05638 0.0
H343 H 0.22904 0.39119 0.99561 0.0
H344 H 0.3199 0.24526 0.87693 0.0
H345 H 0.24382 0.17536 0.89004 0.0
H346 H 0.18688 0.24724 0.03919 0.0
C347 C 0.36699 0.38878 0.02204 0.0
C348 C 0.41579 0.40224 0.98975 0.0
C349 C 0.42458 0.37815 0.93894 0.0
C350 C 0.38622 0.33944 0.92171 0.0
C351 C 0.33898 0.32627 0.95528 0.0
C352 C 0.32895 0.35093 0.00399 0.0
C353 C 0.27622 0.32842 0.03381 0.0
C354 C 0.28571 0.30259 0.09149 0.0
C355 C 0.23551 0.37268 0.03743 0.0
C356 C 0.2587 0.28583 0.99524 0.0
C357 C 0.29543 0.28523 0.95013 0.0
C358 C 0.29038 0.24622 0.9114 0.0
C359 C 0.24717 0.20662 0.91926 0.0
C360 C 0.20917 0.20661 0.96512 0.0
C361 C 0.21455 0.24732 1.003 0.0
H362 H 0.33243 0.6405 0.09922 0.0
H363 H 0.475 0.71103 0.00315 0.0
H364 H 0.42455 0.78933 0.97248 0.0
H365 H 0.23732 0.67858 1.00086 0.0
H366 H 0.18552 0.69349 0.05183 0.0
H367 H 0.23328 0.644 0.06874 0.0
H368 H 0.25975 0.69722 0.15267 0.0
H369 H 0.21207 0.74684 0.13594 0.0
H370 H 0.28191 0.76823 0.14228 0.0
H371 H 0.35943 0.85984 0.95213 0.0
H372 H 0.28266 0.91788 0.94221 0.0
H373 H 0.18017 0.80054 0.04762 0.0
C374 C 0.35301 0.67287 0.07235 0.0
C375 C 0.40765 0.66986 0.05355 0.0
C376 C 0.43311 0.71246 0.01764 0.0
C377 C 0.40484 0.75712 1.00017 0.0
C378 C 0.35086 0.75852 0.01861 0.0
C379 C 0.32503 0.7176 0.05385 0.0
C380 C 0.26617 0.72859 0.06596 0.0
C381 C 0.22836 0.68347 0.04561 0.0
C382 C 0.2543 0.73564 0.12789 0.0
C383 C 0.26312 0.78185 0.03186 0.0
C384 C 0.31261 0.79855 0.00531 0.0
C385 C 0.32043 0.84713 0.97256 0.0
C386 C 0.27663 0.87982 0.96718 0.0
C387 C 0.22545 0.86348 0.99375 0.0
C388 C 0.21863 0.81358 0.02611 0.0
H389 H 0.7492 0.4008 0.07005 0.0
H390 H 0.6 0.30204 0.06277 0.0
H391 H 0.65217 0.22213 0.044 0.0
H392 H 0.82276 0.33608 0.95759 0.0
H393 H 0.88612 0.34177 0.98988 0.0
H394 H 0.83679 0.39116 1.00103 0.0
H395 H 0.84049 0.37156 0.10543 0.0
H396 H 0.88685 0.31906 0.09672 0.0
H397 H 0.8229 0.30399 0.13578 0.0
H398 H 0.71991 0.15298 0.02923 0.0
H399 H 0.79821 0.0982 0.01686 0.0
H400 H 0.90585 0.24149 0.03128 0.0
C401 C 0.72771 0.36222 0.06462 0.0
C402 C 0.67055 0.35717 0.06847 0.0
C403 C 0.6437 0.30646 0.0601 0.0
C404 C 0.67301 0.26103 0.04938 0.0
C405 C 0.72928 0.26726 0.04595 0.0
C406 C 0.75644 0.3167 0.05248 0.0
C407 C 0.81718 0.31221 0.04636 0.0
C408 C 0.84217 0.3474 0.9957 0.0
C409 C 0.84349 0.3276 0.09926 0.0
C410 C 0.81999 0.25199 0.03749 0.0
C411 C 0.76866 0.22719 0.03685 0.0
C412 C 0.76029 0.17197 0.02951 0.0
C413 C 0.80536 0.1411 0.02268 0.0
C414 C 0.85872 0.16514 0.02322 0.0
C415 C 0.86586 0.22166 0.0305 0.0
H416 H 0.63332 0.70639 0.032 0.0
H417 H 0.69891 0.58153 0.93496 0.0
H418 H 0.78423 0.6392 0.91595 0.0
H419 H 0.6993 0.825 0.94645 0.0
H420 H 0.7092 0.8629 0.00651 0.0
H421 H 0.65202 0.81446 0.00594 0.0
H422 H 0.68136 0.76574 0.09585 0.0
H423 H 0.73911 0.81327 0.09616 0.0
H424 H 0.74819 0.74135 0.09723 0.0
H425 H 0.86658 0.70609 0.91918 0.0
H426 H 0.93471 0.77987 0.93523 0.0
H427 H 0.8127 0.86106 0.0283 0.0
C428 C 0.66513 0.69174 0.00549 0.0
C429 C 0.65961 0.63966 0.98469 0.0
C430 C 0.70214 0.62166 0.95057 0.0
C431 C 0.75079 0.654 0.93997 0.0
C432 C 0.75563 0.7044 0.9631 0.0
C433 C 0.71337 0.72357 0.99419 0.0
C434 C 0.72907 0.7778 0.01656 0.0
C435 C 0.6954 0.82269 0.9924 0.0
C436 C 0.72414 0.77428 0.0802 0.0
C437 C 0.7874 0.78564 0.99471 0.0
C438 C 0.80216 0.74298 0.96396 0.0
C439 C 0.85513 0.73998 0.94249 0.0
C440 C 0.89365 0.78183 0.95226 0.0
C441 C 0.87897 0.82625 0.98296 0.0
C442 C 0.82504 0.82799 0.00415 0.0
loop_
_geom_bond_atom_site_label_1
_geom_bond_atom_site_label_2
_geom_bond_distance
_geom_bond_site_symmetry_2
_ccdc_geom_bond_type
Cu0 N1 1.999 . S
Cu0 O6 1.974 . S
Cu0 N11 1.985 . S
Cu0 O20 1.959 . S
N1 Cu0 1.999 . S
N1 C3 1.263 . S
N1 C5 1.389 . S
N2 C3 1.358 . S
N2 C4 1.400 . S
C3 N1 1.263 . S
C3 N2 1.358 . S
C3 H9 0.930 1_455 S
C4 N2 1.400 . S
C4 C5 1.351 . S
C4 H21 0.930 . S
C5 N1 1.389 . S
C5 C4 1.351 . S
C5 H10 0.930 . S
O6 Cu0 1.974 . S
O6 C16 1.282 1_455 S
C7 O8 1.261 . S
C7 O20 1.251 1_655 S
O8 C7 1.261 . S
H9 C3 0.930 1_655 S
H10 C5 0.930 . S
N11 Cu0 1.985 . S
N11 C13 1.335 . S
N11 C14 1.390 1_455 S
N12 C13 1.345 . S
N12 C15 1.336 1_455 S
C13 N11 1.335 . S
C13 N12 1.345 . S
C13 H18 0.930 . S
C14 N11 1.390 1_655 S
C14 C15 1.346 . S
C14 H19 0.930 . S
C15 N12 1.336 1_655 S
C15 C14 1.346 . S
C15 H22 0.929 . S
C16 O6 1.282 1_655 S
C16 O17 1.216 . S
O17 C16 1.216 . S
H18 C13 0.930 . S
H19 C14 0.930 . S
O20 Cu0 1.959 . S
O20 C7 1.251 1_455 S
H21 C4 0.930 . S
H22 C15 0.929 . S
Cu23 N24 1.999 . S
Cu23 O29 1.974 . S
Cu23 N34 1.985 . S
Cu23 O43 1.959 . S
N24 Cu23 1.999 . S
N24 C26 1.267 . S
N24 C28 1.389 . S
N25 C26 1.360 . S
N25 C27 1.400 . S
C26 N24 1.267 . S
C26 N25 1.360 . S
C26 H32 0.924 1_565 S
C27 N25 1.400 . S
C27 C28 1.351 . S
C27 H44 0.930 . S
C28 N24 1.389 . S
C28 C27 1.351 . S
C28 H33 0.930 . S
O29 Cu23 1.974 . S
O29 C39 1.282 1_565 S
C30 O31 1.261 . S
C30 O43 1.251 1_545 S
O31 C30 1.261 . S
H32 C26 0.924 1_545 S
H33 C28 0.930 . S
N34 Cu23 1.985 . S
N34 C36 1.335 . S
N34 C37 1.390 1_565 S
N35 C36 1.348 . S
N35 C38 1.332 1_565 S
C36 N34 1.335 . S
C36 N35 1.348 . S
C36 H41 0.930 . S
C37 N34 1.390 1_545 S
C37 C38 1.346 . S
C37 H42 0.930 . S
C38 N35 1.332 1_545 S
C38 C37 1.346 . S
C38 H45 0.929 . S
C39 O29 1.282 1_545 S
C39 O40 1.216 . S
O40 C39 1.216 . S
H41 C36 0.930 . S
H42 C37 0.930 . S
O43 Cu23 1.959 . S
O43 C30 1.251 1_565 S
H44 C27 0.930 . S
H45 C38 0.929 . S
Cu46 N47 1.999 . S
Cu46 O52 1.974 . S
Cu46 N57 1.985 . S
Cu46 O66 1.959 . S
N47 Cu46 1.999 . S
N47 C49 1.263 . S
N47 C51 1.389 . S
N48 C49 1.358 . S
N48 C50 1.400 . S
C49 N47 1.263 . S
C49 N48 1.358 . S
C49 H55 0.930 1_556 S
C50 N48 1.400 . S
C50 C51 1.351 . S
C50 H67 0.930 . S
C51 N47 1.389 . S
C51 C50 1.351 . S
C51 H56 0.930 . S
O52 Cu46 1.974 . S
O52 C62 1.282 1_556 S
C53 O54 1.261 . S
C53 O66 1.251 1_554 S
O54 C53 1.261 . S
H55 C49 0.930 1_554 S
H56 C51 0.930 . S
N57 Cu46 1.985 . S
N57 C59 1.335 . S
N57 C60 1.390 1_556 S
N58 C59 1.345 . S
N58 C61 1.336 1_556 S
C59 N57 1.335 . S
C59 N58 1.345 . S
C59 H64 0.930 . S
C60 N57 1.390 1_554 S
C60 C61 1.346 . S
C60 H65 0.930 . S
C61 N58 1.336 1_554 S
C61 C60 1.346 . S
C61 H68 0.929 . S
C62 O52 1.282 1_554 S
C62 O63 1.216 . S
O63 C62 1.216 . S
H64 C59 0.930 . S
H65 C60 0.930 . S
O66 Cu46 1.959 . S
O66 C53 1.251 1_556 S
H67 C50 0.930 . S
H68 C61 0.929 . S
C69 O95 1.283 . S
C69 O113 1.283 . S
C70 O96 1.283 . S
C70 O111 1.283 . S
C71 O97 1.283 . S
C71 O114 1.283 . S
C72 O98 1.283 . S
C72 O112 1.283 . S
C73 O99 1.283 1_554 S
C73 O108 1.283 . S
C74 O100 1.283 . S
C74 O110 1.283 . S
C75 O101 1.283 . S
C75 O107 1.283 . S
C76 O102 1.283 . S
C76 O109 1.283 1_554 S
C77 O103 1.283 . S
C77 O118 1.283 . S
C78 O104 1.283 . S
C78 O116 1.283 . S
C79 O105 1.283 . S
C79 O117 1.283 . S
C80 O106 1.283 . S
C80 O115 1.283 . S
Eu81 O82 2.370 1_556 S
Eu81 O83 2.370 1_455 S
Eu81 O86 2.370 . S
Eu81 O87 2.370 1_456 S
Eu81 O95 2.363 . S
Eu81 O96 2.363 1_556 S
Eu81 O109 2.363 1_455 S
Eu81 O110 2.363 . S
O82 Eu81 2.370 1_554 S
O82 Eu84 2.370 1_554 S
O82 Eu89 2.358 1_455 S
O83 Eu81 2.370 1_655 S
O83 Eu85 2.370 1_556 S
O83 Eu88 2.370 1_655 S
Eu84 O82 2.370 1_556 S
Eu84 O86 2.370 . S
Eu84 O90 2.370 1_545 S
Eu84 O91 2.370 1_546 S
Eu84 O99 2.363 1_545 S
Eu84 O100 2.363 . S
Eu84 O115 2.363 . S
Eu84 O116 2.363 1_556 S
Eu85 O83 2.370 1_554 S
Eu85 O87 2.370 . S
Eu85 O92 2.370 1_545 S
Eu85 O93 2.370 1_544 S
Eu85 O101 2.363 1_545 S
Eu85 O102 2.363 . S
Eu85 O117 2.363 1_554 S
Eu85 O118 2.363 . S
O86 Eu81 2.370 . S
O86 Eu84 2.370 . S
O86 Eu88 2.370 . S
O87 Eu81 2.370 1_654 S
O87 Eu85 2.370 . S
O87 Eu89 2.383 . S
Eu88 O83 2.370 1_455 S
Eu88 O86 2.370 . S
Eu88 O90 2.370 1_545 S
Eu88 O93 2.370 1_445 S
Eu88 O105 2.363 1_455 S
Eu88 O106 2.363 . S
Eu88 O113 2.363 . S
Eu88 O114 2.363 1_545 S
Eu89 O82 2.358 1_655 S
Eu89 O87 2.383 . S
Eu89 O91 2.358 1_645 S
Eu89 O92 2.383 1_545 S
Eu89 O103 2.384 . S
Eu89 O104 2.341 1_655 S
Eu89 O111 2.363 1_655 S
Eu89 O112 2.362 1_545 S
O90 Eu84 2.370 1_565 S
O90 Eu88 2.370 1_565 S
O90 Eu94 2.361 1_456 S
O91 Eu84 2.370 1_564 S
O91 Eu89 2.358 1_465 S
O91 Eu94 2.360 1_455 S
O92 Eu85 2.370 1_565 S
O92 Eu89 2.383 1_565 S
O92 Eu94 2.380 . S
O93 Eu85 2.370 1_566 S
O93 Eu88 2.370 1_665 S
O93 Eu94 2.381 1_556 S
Eu94 O90 2.361 1_654 S
Eu94 O91 2.360 1_655 S
Eu94 O92 2.380 . S
Eu94 O93 2.381 1_554 S
Eu94 O97 2.364 1_654 S
Eu94 O98 2.362 . S
Eu94 O107 2.380 . S
Eu94 O108 2.346 1_655 S
O95 C69 1.283 . S
O95 Eu81 2.363 . S
O96 C70 1.283 . S
O96 Eu81 2.363 1_554 S
O97 C71 1.283 . S
O97 Eu94 2.364 1_456 S
O98 C72 1.283 . S
O98 Eu94 2.362 . S
O99 C73 1.283 1_556 S
O99 Eu84 2.363 1_565 S
O100 C74 1.283 . S
O100 Eu84 2.363 . S
O101 C75 1.283 . S
O101 Eu85 2.363 1_565 S
O102 C76 1.283 . S
O102 Eu85 2.363 . S
O103 C77 1.283 . S
O103 Eu89 2.384 . S
O104 C78 1.283 . S
O104 Eu89 2.341 1_455 S
O105 C79 1.283 . S
O105 Eu88 2.363 1_655 S
O106 C80 1.283 . S
O106 Eu88 2.363 . S
O107 C75 1.283 . S
O107 Eu94 2.380 . S
O108 C73 1.283 . S
O108 Eu94 2.346 1_455 S
O109 C76 1.283 1_556 S
O109 Eu81 2.363 1_655 S
O110 C74 1.283 . S
O110 Eu81 2.363 . S
O111 C70 1.283 . S
O111 Eu89 2.363 1_455 S
O112 C72 1.283 . S
O112 Eu89 2.362 1_565 S
O113 C69 1.283 . S
O113 Eu88 2.363 . S
O114 C71 1.283 . S
O114 Eu88 2.363 1_565 S
O115 C80 1.283 . S
O115 Eu84 2.363 . S
O116 C78 1.283 . S
O116 Eu84 2.363 1_554 S
O117 C79 1.283 . S
O117 Eu85 2.363 1_556 S
O118 C77 1.283 . S
O118 Eu85 2.363 . S
H119 C131 0.930 . S
H120 C133 0.930 . S
H121 C134 0.930 . S
H122 C138 0.959 . S
H123 C138 0.959 . S
H124 C138 0.961 . S
H125 C139 0.960 . S
H126 C139 0.961 . S
H127 C139 0.959 . S
H128 C142 0.929 . S
H129 C143 0.931 . S
H130 C145 0.930 . S
C131 H119 0.930 . S
C131 C132 1.399 1_655 S
C131 C136 1.399 . S
C132 C131 1.399 1_455 S
C132 C133 1.376 . S
C133 H120 0.930 . S
C133 C132 1.376 . S
C133 C134 1.388 . S
C134 H121 0.930 . S
C134 C133 1.388 . S
C134 C135 1.390 . S
C135 C134 1.390 . S
C135 C136 1.394 1_455 S
C135 C141 1.465 . S
C136 C131 1.399 . S
C136 C135 1.394 1_655 S
C136 C137 1.516 . S
C137 C136 1.516 . S
C137 C138 1.502 . S
C137 C139 1.561 . S
C137 C140 1.526 . S
C138 H122 0.959 . S
C138 H123 0.959 . S
C138 H124 0.961 . S
C138 C137 1.502 . S
C139 H125 0.960 . S
C139 H126 0.961 . S
C139 H127 0.959 . S
C139 C137 1.561 . S
C140 C137 1.526 . S
C140 C141 1.396 1_655 S
C140 C145 1.390 . S
C141 C135 1.465 . S
C141 C140 1.396 1_455 S
C141 C142 1.399 . S
C142 H128 0.929 . S
C142 C141 1.399 . S
C142 C143 1.385 . S
C143 H129 0.931 . S
C143 C142 1.385 . S
C143 C144 1.389 . S
C144 C143 1.389 . S
C144 C145 1.387 1_455 S
C145 H130 0.930 . S
C145 C140 1.390 . S
C145 C144 1.387 1_655 S
H146 C158 0.930 . S
H147 C160 0.930 . S
H148 C161 0.930 . S
H149 C165 0.959 1_545 S
H150 C165 0.959 . S
H151 C165 0.961 . S
H152 C166 0.960 . S
H153 C166 0.961 . S
H154 C166 0.959 . S
H155 C169 0.929 . S
H156 C170 0.931 . S
H157 C172 0.930 . S
C158 H146 0.930 . S
C158 C159 1.399 1_565 S
C158 C163 1.399 . S
C159 C158 1.399 1_545 S
C159 C160 1.376 . S
C160 H147 0.930 . S
C160 C159 1.376 . S
C160 C161 1.388 . S
C161 H148 0.930 . S
C161 C160 1.388 . S
C161 C162 1.390 . S
C162 C161 1.390 . S
C162 C163 1.394 1_545 S
C162 C168 1.465 . S
C163 C158 1.399 . S
C163 C162 1.394 1_565 S
C163 C164 1.516 . S
C164 C163 1.516 . S
C164 C165 1.502 . S
C164 C166 1.561 . S
C164 C167 1.526 . S
C165 H149 0.959 1_565 S
C165 H150 0.959 . S
C165 H151 0.961 . S
C165 C164 1.502 . S
C166 H152 0.960 . S
C166 H153 0.961 . S
C166 H154 0.959 . S
C166 C164 1.561 . S
C167 C164 1.526 . S
C167 C168 1.396 1_565 S
C167 C172 1.390 . S
C168 C162 1.465 . S
C168 C167 1.396 1_545 S
C168 C169 1.399 . S
C169 H155 0.929 . S
C169 C168 1.399 . S
C169 C170 1.385 . S
C170 H156 0.931 . S
C170 C169 1.385 . S
C170 C171 1.389 . S
C171 C170 1.389 . S
C171 C172 1.387 1_545 S
C172 H157 0.930 . S
C172 C167 1.390 . S
C172 C171 1.387 1_565 S
H173 C185 0.932 . S
H174 C187 0.930 . S
H175 C188 0.930 . S
H176 C192 0.959 . S
H177 C192 0.959 . S
H178 C192 0.961 . S
H179 C193 0.960 . S
H180 C193 0.961 . S
H181 C193 0.959 . S
H182 C196 0.929 . S
H183 C197 0.931 . S
H184 C199 0.930 . S
C185 H173 0.932 . S
C185 C186 1.398 1_455 S
C185 C190 1.400 . S
C186 C185 1.398 1_655 S
C186 C187 1.376 . S
C187 H174 0.930 . S
C187 C186 1.376 . S
C187 C188 1.388 . S
C188 H175 0.930 . S
C188 C187 1.388 . S
C188 C189 1.390 . S
C189 C188 1.390 . S
C189 C190 1.389 1_655 S
C189 C195 1.465 . S
C190 C185 1.400 . S
C190 C189 1.389 1_455 S
C190 C191 1.520 . S
C191 C190 1.520 . S
C191 C192 1.502 1_455 S
C191 C193 1.561 . S
C191 C194 1.526 . S
C192 H176 0.959 . S
C192 H177 0.959 . S
C192 H178 0.961 . S
C192 C191 1.502 1_655 S
C193 H179 0.960 . S
C193 H180 0.961 . S
C193 H181 0.959 . S
C193 C191 1.561 . S
C194 C191 1.526 . S
C194 C195 1.396 1_455 S
C194 C199 1.390 . S
C195 C189 1.465 . S
C195 C194 1.396 1_655 S
C195 C196 1.399 . S
C196 H182 0.929 . S
C196 C195 1.399 . S
C196 C197 1.385 . S
C197 H183 0.931 . S
C197 C196 1.385 . S
C197 C198 1.389 . S
C198 C197 1.389 . S
C198 C199 1.387 1_655 S
C199 H184 0.930 . S
C199 C194 1.390 . S
C199 C198 1.387 1_455 S
H200 C212 0.930 . S
H201 C214 0.930 . S
H202 C215 0.930 . S
H203 C219 0.959 . S
H204 C219 0.959 . S
H205 C219 0.961 . S
H206 C220 0.960 . S
H207 C220 0.961 . S
H208 C220 0.959 . S
H209 C223 0.929 . S
H210 C224 0.931 . S
H211 C226 0.930 . S
C212 H200 0.930 . S
C212 C213 1.399 1_545 S
C212 C217 1.399 . S
C213 C212 1.399 1_565 S
C213 C214 1.376 . S
C214 H201 0.930 . S
C214 C213 1.376 . S
C214 C215 1.388 . S
C215 H202 0.930 . S
C215 C214 1.388 . S
C215 C216 1.390 . S
C216 C215 1.390 . S
C216 C217 1.394 1_565 S
C216 C222 1.465 . S
C217 C212 1.399 . S
C217 C216 1.394 1_545 S
C217 C218 1.516 . S
C218 C217 1.516 . S
C218 C219 1.502 . S
C218 C220 1.561 . S
C218 C221 1.526 . S
C219 H203 0.959 . S
C219 H204 0.959 . S
C219 H205 0.961 . S
C219 C218 1.502 . S
C220 H206 0.960 . S
C220 H207 0.961 . S
C220 H208 0.959 . S
C220 C218 1.561 . S
C221 C218 1.526 . S
C221 C222 1.396 1_545 S
C221 C226 1.390 . S
C222 C216 1.465 . S
C222 C221 1.396 1_565 S
C222 C223 1.399 . S
C223 H209 0.929 . S
C223 C222 1.399 . S
C223 C224 1.385 . S
C224 H210 0.931 . S
C224 C223 1.385 . S
C224 C225 1.389 1_565 S
C225 C224 1.389 1_545 S
C225 C226 1.387 . S
C226 H211 0.930 . S
C226 C221 1.390 . S
C226 C225 1.387 . S
H227 C239 0.930 . S
H228 C241 0.930 . S
H229 C242 0.930 . S
H230 C246 0.959 . S
H231 C246 0.959 . S
H232 C246 0.961 . S
H233 C247 0.960 . S
H234 C247 0.961 . S
H235 C247 0.959 . S
H236 C250 0.929 . S
H237 C251 0.931 . S
H238 C253 0.930 . S
C239 H227 0.930 . S
C239 C240 1.399 1_655 S
C239 C244 1.399 . S
C240 C239 1.399 1_455 S
C240 C241 1.376 . S
C241 H228 0.930 . S
C241 C240 1.376 . S
C241 C242 1.388 . S
C242 H229 0.930 . S
C242 C241 1.388 . S
C242 C243 1.390 . S
C243 C242 1.390 . S
C243 C244 1.394 1_455 S
C243 C249 1.465 . S
C244 C239 1.399 . S
C244 C243 1.394 1_655 S
C244 C245 1.516 . S
C245 C244 1.516 . S
C245 C246 1.502 . S
C245 C247 1.561 . S
C245 C248 1.526 . S
C246 H230 0.959 . S
C246 H231 0.959 . S
C246 H232 0.961 . S
C246 C245 1.502 . S
C247 H233 0.960 . S
C247 H234 0.961 . S
C247 H235 0.959 . S
C247 C245 1.561 . S
C248 C245 1.526 . S
C248 C249 1.396 1_655 S
C248 C253 1.390 . S
C249 C243 1.465 . S
C249 C248 1.396 1_455 S
C249 C250 1.399 . S
C250 H236 0.929 . S
C250 C249 1.399 . S
C250 C251 1.385 . S
C251 H237 0.931 . S
C251 C250 1.385 . S
C251 C252 1.389 . S
C252 C251 1.389 . S
C252 C253 1.387 1_455 S
C253 H238 0.930 . S
C253 C248 1.390 . S
C253 C252 1.387 1_655 S
H254 C266 0.930 . S
H255 C268 0.930 . S
H256 C269 0.930 . S
H257 C273 0.959 . S
H258 C273 0.959 . S
H259 C273 0.961 . S
H260 C274 0.960 . S
H261 C274 0.961 . S
H262 C274 0.959 . S
H263 C277 0.929 . S
H264 C278 0.931 . S
H265 C280 0.930 . S
C266 H254 0.930 . S
C266 C267 1.399 . S
C266 C271 1.399 . S
C267 C266 1.399 . S
C267 C268 1.376 1_545 S
C268 H255 0.930 . S
C268 C267 1.376 1_565 S
C268 C269 1.388 . S
C269 H256 0.930 . S
C269 C268 1.388 . S
C269 C270 1.390 . S
C270 C269 1.390 . S
C270 C271 1.393 1_565 S
C270 C276 1.465 . S
C271 C266 1.399 . S
C271 C270 1.393 1_545 S
C271 C272 1.516 . S
C272 C271 1.516 . S
C272 C273 1.502 . S
C272 C274 1.561 . S
C272 C275 1.526 . S
C273 H257 0.959 . S
C273 H258 0.959 . S
C273 H259 0.961 . S
C273 C272 1.502 . S
C274 H260 0.960 . S
C274 H261 0.961 . S
C274 H262 0.959 . S
C274 C272 1.561 . S
C275 C272 1.526 . S
C275 C276 1.396 1_545 S
C275 C280 1.390 . S
C276 C270 1.465 . S
C276 C275 1.396 1_565 S
C276 C277 1.399 . S
C277 H263 0.929 . S
C277 C276 1.399 . S
C277 C278 1.385 . S
C278 H264 0.931 . S
C278 C277 1.385 . S
C278 C279 1.389 1_565 S
C279 C278 1.389 1_545 S
C279 C280 1.387 . S
C280 H265 0.930 . S
C280 C275 1.390 . S
C280 C279 1.387 . S
H281 C293 0.930 . S
H282 C295 0.930 . S
H283 C296 0.930 . S
H284 C300 0.959 . S
H285 C300 0.959 . S
H286 C300 0.961 . S
H287 C301 0.960 . S
H288 C301 0.961 . S
H289 C301 0.959 . S
H290 C304 0.929 . S
H291 C305 0.931 . S
H292 C307 0.930 . S
C293 H281 0.930 . S
C293 C294 1.399 . S
C293 C298 1.399 . S
C294 C293 1.399 . S
C294 C295 1.376 1_655 S
C295 H282 0.930 . S
C295 C294 1.376 1_455 S
C295 C296 1.388 . S
C296 H283 0.930 . S
C296 C295 1.388 . S
C296 C297 1.390 . S
C297 C296 1.390 . S
C297 C298 1.394 1_455 S
C297 C303 1.465 . S
C298 C293 1.399 . S
C298 C297 1.394 1_655 S
C298 C299 1.516 . S
C299 C298 1.516 . S
C299 C300 1.502 . S
C299 C301 1.561 . S
C299 C302 1.526 . S
C300 H284 0.959 . S
C300 H285 0.959 . S
C300 H286 0.961 . S
C300 C299 1.502 . S
C301 H287 0.960 . S
C301 H288 0.961 . S
C301 H289 0.959 . S
C301 C299 1.561 . S
C302 C299 1.526 . S
C302 C303 1.396 1_655 S
C302 C307 1.390 . S
C303 C297 1.465 . S
C303 C302 1.396 1_455 S
C303 C304 1.399 . S
C304 H290 0.929 . S
C304 C303 1.399 . S
C304 C305 1.385 . S
C305 H291 0.931 . S
C305 C304 1.385 . S
C305 C306 1.389 . S
C306 C305 1.389 . S
C306 C307 1.387 1_455 S
C307 H292 0.930 . S
C307 C302 1.390 . S
C307 C306 1.387 1_655 S
H308 C320 0.930 . S
H309 C322 0.930 . S
H310 C323 0.930 . S
H311 C327 0.959 . S
H312 C327 0.955 1_545 S
H313 C327 0.961 . S
H314 C328 0.960 . S
H315 C328 0.961 . S
H316 C328 0.959 . S
H317 C331 0.929 . S
H318 C332 0.931 . S
H319 C334 0.930 . S
C320 H308 0.930 . S
C320 C321 1.399 1_545 S
C320 C325 1.399 . S
C321 C320 1.399 1_565 S
C321 C322 1.376 . S
C322 H309 0.930 . S
C322 C321 1.376 . S
C322 C323 1.388 . S
C323 H310 0.930 . S
C323 C322 1.388 . S
C323 C324 1.390 1_565 S
C324 C323 1.390 1_545 S
C324 C325 1.394 . S
C324 C330 1.465 . S
C325 C320 1.399 . S
C325 C324 1.394 . S
C325 C326 1.516 . S
C326 C325 1.516 . S
C326 C327 1.502 1_545 S
C326 C328 1.561 . S
C326 C329 1.526 . S
C327 H311 0.959 . S
C327 H312 0.955 1_565 S
C327 H313 0.961 . S
C327 C326 1.502 1_565 S
C328 H314 0.960 . S
C328 H315 0.961 . S
C328 H316 0.959 . S
C328 C326 1.561 . S
C329 C326 1.526 . S
C329 C330 1.396 . S
C329 C334 1.390 . S
C330 C324 1.465 . S
C330 C329 1.396 . S
C330 C331 1.399 1_545 S
C331 H317 0.929 . S
C331 C330 1.399 1_565 S
C331 C332 1.385 . S
C332 H318 0.931 . S
C332 C331 1.385 . S
C332 C333 1.389 1_565 S
C333 C332 1.389 1_545 S
C333 C334 1.387 . S
C334 H319 0.930 . S
C334 C329 1.390 . S
C334 C333 1.387 . S
H335 C347 0.930 . S
H336 C349 0.930 . S
H337 C350 0.930 . S
H338 C354 0.959 . S
H339 C354 0.959 . S
H340 C354 0.961 . S
H341 C355 0.960 . S
H342 C355 0.961 . S
H343 C355 0.959 . S
H344 C358 0.929 . S
H345 C359 0.931 . S
H346 C361 0.930 . S
C347 H335 0.930 . S
C347 C348 1.399 1_556 S
C347 C352 1.399 . S
C348 C347 1.399 1_554 S
C348 C349 1.376 . S
C349 H336 0.930 . S
C349 C348 1.376 . S
C349 C350 1.388 . S
C350 H337 0.930 . S
C350 C349 1.388 . S
C350 C351 1.390 . S
C351 C350 1.390 . S
C351 C352 1.394 1_554 S
C351 C357 1.465 . S
C352 C347 1.399 . S
C352 C351 1.394 1_556 S
C352 C353 1.516 . S
C353 C352 1.516 . S
C353 C354 1.502 . S
C353 C355 1.561 . S
C353 C356 1.526 . S
C354 H338 0.959 . S
C354 H339 0.959 . S
C354 H340 0.961 . S
C354 C353 1.502 . S
C355 H341 0.960 . S
C355 H342 0.961 . S
C355 H343 0.959 . S
C355 C353 1.561 . S
C356 C353 1.526 . S
C356 C357 1.396 1_556 S
C356 C361 1.390 . S
C357 C351 1.465 . S
C357 C356 1.396 1_554 S
C357 C358 1.399 . S
C358 H344 0.929 . S
C358 C357 1.399 . S
C358 C359 1.385 . S
C359 H345 0.931 . S
C359 C358 1.385 . S
C359 C360 1.388 1_554 S
C360 C359 1.388 1_556 S
C360 C361 1.388 . S
C361 H346 0.930 . S
C361 C356 1.390 . S
C361 C360 1.388 . S
H362 C374 0.930 . S
H363 C376 0.930 . S
H364 C377 0.930 . S
H365 C381 0.959 . S
H366 C381 0.959 . S
H367 C381 0.961 . S
H368 C382 0.960 . S
H369 C382 0.961 . S
H370 C382 0.959 . S
H371 C385 0.929 . S
H372 C386 0.931 . S
H373 C388 0.930 . S
C374 H362 0.930 . S
C374 C375 1.399 1_554 S
C374 C379 1.399 . S
C375 C374 1.399 1_556 S
C375 C376 1.376 . S
C376 H363 0.930 . S
C376 C375 1.376 . S
C376 C377 1.388 . S
C377 H364 0.930 . S
C377 C376 1.388 . S
C377 C378 1.390 . S
C378 C377 1.390 . S
C378 C379 1.394 1_556 S
C378 C384 1.465 . S
C379 C374 1.399 . S
C379 C378 1.394 1_554 S
C379 C380 1.516 . S
C380 C379 1.516 . S
C380 C381 1.502 . S
C380 C382 1.561 . S
C380 C383 1.526 . S
C381 H365 0.959 . S
C381 H366 0.959 . S
C381 H367 0.961 . S
C381 C380 1.502 . S
C382 H368 0.960 . S
C382 H369 0.961 . S
C382 H370 0.959 . S
C382 C380 1.561 . S
C383 C380 1.526 . S
C383 C384 1.396 1_554 S
C383 C388 1.390 . S
C384 C378 1.465 . S
C384 C383 1.396 1_556 S
C384 C385 1.399 . S
C385 H371 0.929 . S
C385 C384 1.399 . S
C385 C386 1.385 . S
C386 H372 0.931 . S
C386 C385 1.385 . S
C386 C387 1.389 . S
C387 C386 1.389 . S
C387 C388 1.387 1_556 S
C388 H373 0.930 . S
C388 C383 1.390 . S
C388 C387 1.387 1_554 S
H389 C401 0.930 . S
H390 C403 0.930 . S
H391 C404 0.930 . S
H392 C408 0.959 . S
H393 C408 0.959 . S
H394 C408 0.961 . S
H395 C409 0.960 . S
H396 C409 0.961 . S
H397 C409 0.959 . S
H398 C412 0.929 . S
H399 C413 0.931 . S
H400 C415 0.930 . S
C401 H389 0.930 . S
C401 C402 1.399 1_554 S
C401 C406 1.399 . S
C402 C401 1.399 1_556 S
C402 C403 1.376 . S
C403 H390 0.930 . S
C403 C402 1.376 . S
C403 C404 1.388 . S
C404 H391 0.930 . S
C404 C403 1.388 . S
C404 C405 1.390 . S
C405 C404 1.390 . S
C405 C406 1.394 1_556 S
C405 C411 1.465 . S
C406 C401 1.399 . S
C406 C405 1.394 1_554 S
C406 C407 1.516 . S
C407 C406 1.516 . S
C407 C408 1.502 . S
C407 C409 1.561 . S
C407 C410 1.526 . S
C408 H392 0.959 . S
C408 H393 0.959 . S
C408 H394 0.961 . S
C408 C407 1.502 . S
C409 H395 0.960 . S
C409 H396 0.961 . S
C409 H397 0.959 . S
C409 C407 1.561 . S
C410 C407 1.526 . S
C410 C411 1.396 1_554 S
C410 C415 1.390 . S
C411 C405 1.465 . S
C411 C410 1.396 1_556 S
C411 C412 1.399 . S
C412 H398 0.929 . S
C412 C411 1.399 . S
C412 C413 1.385 . S
C413 H399 0.931 . S
C413 C412 1.385 . S
C413 C414 1.389 . S
C414 C413 1.389 . S
C414 C415 1.387 1_556 S
C415 H400 0.930 . S
C415 C410 1.390 . S
C415 C414 1.387 1_554 S
H416 C428 0.930 . S
H417 C430 0.930 . S
H418 C431 0.930 . S
H419 C435 0.959 . S
H420 C435 0.959 . S
H421 C435 0.961 . S
H422 C436 0.960 . S
H423 C436 0.961 . S
H424 C436 0.959 . S
H425 C439 0.929 . S
H426 C440 0.931 . S
H427 C442 0.930 . S
C428 H416 0.930 . S
C428 C429 1.399 . S
C428 C433 1.399 . S
C429 C428 1.399 . S
C429 C430 1.376 1_554 S
C430 H417 0.930 . S
C430 C429 1.376 1_556 S
C430 C431 1.388 . S
C431 H418 0.930 . S
C431 C430 1.388 . S
C431 C432 1.390 . S
C432 C431 1.390 . S
C432 C433 1.394 1_556 S
C432 C438 1.465 . S
C433 C428 1.399 . S
C433 C432 1.394 1_554 S
C433 C434 1.516 . S
C434 C433 1.516 . S
C434 C435 1.502 . S
C434 C436 1.561 . S
C434 C437 1.526 . S
C435 H419 0.959 . S
C435 H420 0.959 . S
C435 H421 0.961 . S
C435 C434 1.502 . S
C436 H422 0.960 . S
C436 H423 0.961 . S
C436 H424 0.959 . S
C436 C434 1.561 . S
C437 C434 1.526 . S
C437 C438 1.396 1_554 S
C437 C442 1.390 . S
C438 C432 1.465 . S
C438 C437 1.396 1_556 S
C438 C439 1.399 . S
C439 H425 0.929 . S
C439 C438 1.399 . S
C439 C440 1.385 . S
C440 H426 0.931 . S
C440 C439 1.385 . S
C440 C441 1.389 1_556 S
C441 C440 1.389 1_554 S
C441 C442 1.387 . S
C442 H427 0.930 . S
C442 C437 1.390 . S
C442 C441 1.387 . S
C144 C70 1.239 . S
C132 N2 1.158 . S
C171 C77 1.606 . S
C159 C39 1.586 . S
C198 C72 1.466 . S
C186 C7 1.442 . S
C225 C78 1.376 . S
C213 N35 1.295 . S
C240 N12 1.166 . S
C252 C71 1.213 . S
C279 C80 1.643 . S
C267 C30 1.644 . S
C294 C16 1.446 . S
C306 C69 1.443 . S
C321 N25 1.337 . S
C333 C79 1.405 . S
C348 C62 1.760 . S
C360 C74 1.788 . S
C375 N48 1.488 . S
C387 C73 1.577 1_556 S
C414 C76 1.552 1_556 S
C402 N58 1.468 . S
C441 C75 1.821 . S
C429 C53 1.821 . S
