# Generated by pormake.
# Topology ocu, (6,8)-cn, num edge types: 1
# Building blocks:
#     Node 0, Type 0, BuildingBlock: MIFKUJ_clean_sbu_0, # of connection points: 6
#     Node 1, Type 0, BuildingBlock: MIFKUJ_clean_sbu_0, # of connection points: 6
#     Node 2, Type 0, BuildingBlock: MIFKUJ_clean_sbu_0, # of connection points: 6
#     Node 3, Type 0, BuildingBlock: MIFKUJ_clean_sbu_0, # of connection points: 6
#     Node 4, Type 0, BuildingBlock: MIFKUJ_clean_sbu_0, # of connection points: 6
#     Node 5, Type 0, BuildingBlock: MIFKUJ_clean_sbu_0, # of connection points: 6
#     Node 6, Type 0, BuildingBlock: MIFKUJ_clean_sbu_0, # of connection points: 6
#     Node 7, Type 0, BuildingBlock: MIFKUJ_clean_sbu_0, # of connection points: 6
#     Node 8, Type 1, BuildingBlock: GIZVER_clean_sbu_0, # of connection points: 8
#     Node 9, Type 1, BuildingBlock: GIZVER_clean_sbu_0, # of connection points: 8
#     Node 10, Type 1, BuildingBlock: GIZVER_clean_sbu_0, # of connection points: 8
#     Node 11, Type 1, BuildingBlock: GIZVER_clean_sbu_0, # of connection points: 8
#     Node 12, Type 1, BuildingBlock: GIZVER_clean_sbu_0, # of connection points: 8
#     Node 13, Type 1, BuildingBlock: GIZVER_clean_sbu_0, # of connection points: 8
#     Edge 14, Type (0, 1), BuildingBlock: TEMPAE_clean_linker_10, # of connection points: 2
#     Edge 15, Type (0, 1), BuildingBlock: TEMPAE_clean_linker_10, # of connection points: 2
#     Edge 16, Type (0, 1), BuildingBlock: TEMPAE_clean_linker_10, # of connection points: 2
#     Edge 17, Type (0, 1), BuildingBlock: TEMPAE_clean_linker_10, # of connection points: 2
#     Edge 18, Type (0, 1), BuildingBlock: TEMPAE_clean_linker_10, # of connection points: 2
#     Edge 19, Type (0, 1), BuildingBlock: TEMPAE_clean_linker_10, # of connection points: 2
#     Edge 20, Type (0, 1), BuildingBlock: TEMPAE_clean_linker_10, # of connection points: 2
#     Edge 21, Type (0, 1), BuildingBlock: TEMPAE_clean_linker_10, # of connection points: 2
#     Edge 22, Type (0, 1), BuildingBlock: TEMPAE_clean_linker_10, # of connection points: 2
#     Edge 23, Type (0, 1), BuildingBlock: TEMPAE_clean_linker_10, # of connection points: 2
#     Edge 24, Type (0, 1), BuildingBlock: TEMPAE_clean_linker_10, # of connection points: 2
#     Edge 25, Type (0, 1), BuildingBlock: TEMPAE_clean_linker_10, # of connection points: 2
#     Edge 26, Type (0, 1), BuildingBlock: TEMPAE_clean_linker_10, # of connection points: 2
#     Edge 27, Type (0, 1), BuildingBlock: TEMPAE_clean_linker_10, # of connection points: 2
#     Edge 28, Type (0, 1), BuildingBlock: TEMPAE_clean_linker_10, # of connection points: 2
#     Edge 29, Type (0, 1), BuildingBlock: TEMPAE_clean_linker_10, # of connection points: 2
#     Edge 30, Type (0, 1), BuildingBlock: TEMPAE_clean_linker_10, # of connection points: 2
#     Edge 31, Type (0, 1), BuildingBlock: TEMPAE_clean_linker_10, # of connection points: 2
#     Edge 32, Type (0, 1), BuildingBlock: TEMPAE_clean_linker_10, # of connection points: 2
#     Edge 33, Type (0, 1), BuildingBlock: TEMPAE_clean_linker_10, # of connection points: 2
#     Edge 34, Type (0, 1), BuildingBlock: TEMPAE_clean_linker_10, # of connection points: 2
#     Edge 35, Type (0, 1), BuildingBlock: TEMPAE_clean_linker_10, # of connection points: 2
#     Edge 36, Type (0, 1), BuildingBlock: TEMPAE_clean_linker_10, # of connection points: 2
#     Edge 37, Type (0, 1), BuildingBlock: TEMPAE_clean_linker_10, # of connection points: 2
#     Edge 38, Type (0, 1), BuildingBlock: TEMPAE_clean_linker_10, # of connection points: 2
#     Edge 39, Type (0, 1), BuildingBlock: TEMPAE_clean_linker_10, # of connection points: 2
#     Edge 40, Type (0, 1), BuildingBlock: TEMPAE_clean_linker_10, # of connection points: 2
#     Edge 41, Type (0, 1), BuildingBlock: TEMPAE_clean_linker_10, # of connection points: 2
#     Edge 42, Type (0, 1), BuildingBlock: TEMPAE_clean_linker_10, # of connection points: 2
#     Edge 43, Type (0, 1), BuildingBlock: TEMPAE_clean_linker_10, # of connection points: 2
#     Edge 44, Type (0, 1), BuildingBlock: TEMPAE_clean_linker_10, # of connection points: 2
#     Edge 45, Type (0, 1), BuildingBlock: TEMPAE_clean_linker_10, # of connection points: 2
#     Edge 46, Type (0, 1), BuildingBlock: TEMPAE_clean_linker_10, # of connection points: 2
#     Edge 47, Type (0, 1), BuildingBlock: TEMPAE_clean_linker_10, # of connection points: 2
#     Edge 48, Type (0, 1), BuildingBlock: TEMPAE_clean_linker_10, # of connection points: 2
#     Edge 49, Type (0, 1), BuildingBlock: TEMPAE_clean_linker_10, # of connection points: 2
#     Edge 50, Type (0, 1), BuildingBlock: TEMPAE_clean_linker_10, # of connection points: 2
#     Edge 51, Type (0, 1), BuildingBlock: TEMPAE_clean_linker_10, # of connection points: 2
#     Edge 52, Type (0, 1), BuildingBlock: TEMPAE_clean_linker_10, # of connection points: 2
#     Edge 53, Type (0, 1), BuildingBlock: TEMPAE_clean_linker_10, # of connection points: 2
#     Edge 54, Type (0, 1), BuildingBlock: TEMPAE_clean_linker_10, # of connection points: 2
#     Edge 55, Type (0, 1), BuildingBlock: TEMPAE_clean_linker_10, # of connection points: 2
#     Edge 56, Type (0, 1), BuildingBlock: TEMPAE_clean_linker_10, # of connection points: 2
#     Edge 57, Type (0, 1), BuildingBlock: TEMPAE_clean_linker_10, # of connection points: 2
#     Edge 58, Type (0, 1), BuildingBlock: TEMPAE_clean_linker_10, # of connection points: 2
#     Edge 59, Type (0, 1), BuildingBlock: TEMPAE_clean_linker_10, # of connection points: 2
#     Edge 60, Type (0, 1), BuildingBlock: TEMPAE_clean_linker_10, # of connection points: 2
#     Edge 61, Type (0, 1), BuildingBlock: TEMPAE_clean_linker_10, # of connection points: 2
# Relax obj value: 0.108
# Max RMSD: 0.229
# Mean RMSD: 0.162
data_MOF--net-ocu--node1-MIFKUJ_clean_sbu_0--node2-GIZVER_clean_sbu_0--edge1-TEMPAE_clean_linker_10
_symmetry_space_group_name_H-M    P1
_symmetry_Int_Tables_number       1
_symmetry_cell_setting            triclinic
loop_
_symmetry_equiv_pos_as_xyz
'x, y, z'
_cell_length_a     42.831661
_cell_length_b     45.918052
_cell_length_c     30.536331
_cell_angle_alpha  91.304409
_cell_angle_beta   94.418299
_cell_angle_gamma 107.60853
loop_
_atom_site_label
_atom_site_type_symbol
_atom_site_fract_x
_atom_site_fract_y
_atom_site_fract_z
_atom_type_partial_charge
Zn0 Zn 0.22674 0.28466 0.26682 0.0
Zn1 Zn 0.2797 0.22685 0.24456 0.0
C2 C 0.19724 0.30386 0.33865 0.0
O3 O 0.17701 0.27607 0.33091 0.0
C4 C 0.31456 0.20734 0.18422 0.0
O5 O 0.3363 0.23041 0.20655 0.0
O6 O 0.19427 0.29275 0.2206 0.0
O7 O 0.27138 0.30438 0.24099 0.0
O8 O 0.29823 0.2715 0.2268 0.0
C9 C 0.19903 0.32134 0.21743 0.0
O10 O 0.22365 0.34076 0.24137 0.0
O11 O 0.22289 0.31222 0.31789 0.0
C12 C 0.30953 0.19016 0.29066 0.0
O13 O 0.28462 0.17066 0.26727 0.0
O14 O 0.31285 0.21861 0.28961 0.0
O15 O 0.23538 0.20711 0.27107 0.0
O16 O 0.20827 0.23975 0.28603 0.0
O17 O 0.28442 0.20127 0.1915 0.0
C18 C 0.29583 0.29848 0.22573 0.0
C19 C 0.21103 0.21281 0.28698 0.0
Zn20 Zn 0.76238 0.28671 0.21201 0.0
Zn21 Zn 0.74334 0.21588 0.30046 0.0
C22 C 0.72557 0.31415 0.1583 0.0
O23 O 0.74509 0.30766 0.13105 0.0
C24 C 0.7781 0.18474 0.35472 0.0
O25 O 0.76622 0.19848 0.38457 0.0
O26 O 0.80589 0.31373 0.19785 0.0
O27 O 0.76606 0.27779 0.2765 0.0
O28 O 0.76418 0.25479 0.33803 0.0
C29 C 0.81153 0.34194 0.20796 0.0
O30 O 0.78829 0.35116 0.22371 0.0
O31 O 0.72836 0.30764 0.19834 0.0
C32 C 0.68163 0.17337 0.29289 0.0
O33 O 0.69713 0.16055 0.26662 0.0
O34 O 0.69752 0.19799 0.31432 0.0
O35 O 0.74195 0.2258 0.23622 0.0
O36 O 0.74568 0.24735 0.17358 0.0
O37 O 0.77067 0.18777 0.31428 0.0
C38 C 0.77265 0.27945 0.31793 0.0
C39 C 0.7343 0.22369 0.19499 0.0
Zn40 Zn 0.78412 0.72855 0.22955 0.0
Zn41 Zn 0.72447 0.7802 0.26643 0.0
C42 C 0.80392 0.70847 0.31548 0.0
O43 O 0.81326 0.73753 0.32836 0.0
C44 C 0.67741 0.79779 0.2145 0.0
O45 O 0.66002 0.78025 0.24297 0.0
O46 O 0.80106 0.7116 0.1774 0.0
O47 O 0.73942 0.73378 0.21698 0.0
O48 O 0.70064 0.7352 0.258 0.0
C49 C 0.79477 0.68262 0.17505 0.0
O50 O 0.77438 0.66614 0.20152 0.0
O51 O 0.78809 0.70004 0.27802 0.0
C52 C 0.7193 0.82751 0.32362 0.0
O53 O 0.73763 0.84318 0.29437 0.0
O54 O 0.71183 0.79846 0.32101 0.0
O55 O 0.77366 0.78736 0.26753 0.0
O56 O 0.81419 0.7701 0.24997 0.0
O57 O 0.70805 0.80106 0.21587 0.0
C58 C 0.71364 0.71954 0.23468 0.0
C59 C 0.80428 0.79083 0.26733 0.0
Zn60 Zn 0.22277 0.76847 0.27733 0.0
Zn61 Zn 0.28553 0.73917 0.23247 0.0
C62 C 0.16331 0.72438 0.29371 0.0
O63 O 0.15188 0.73972 0.26404 0.0
C64 C 0.32604 0.78314 0.18293 0.0
O65 O 0.34557 0.76712 0.1956 0.0
O66 O 0.20624 0.80427 0.2918 0.0
O67 O 0.26756 0.77744 0.30852 0.0
O68 O 0.30615 0.75696 0.29237 0.0
C69 C 0.21038 0.81206 0.33265 0.0
O70 O 0.22467 0.79705 0.35948 0.0
O71 O 0.19387 0.73288 0.3058 0.0
C72 C 0.30245 0.70023 0.16981 0.0
O73 O 0.28445 0.71248 0.14387 0.0
O74 O 0.30694 0.70815 0.21062 0.0
O75 O 0.23686 0.71791 0.22604 0.0
O76 O 0.21623 0.75568 0.21284 0.0
O77 O 0.29676 0.77515 0.19393 0.0
C78 C 0.29575 0.77418 0.31673 0.0
C79 C 0.2179 0.72917 0.20275 0.0
Zn80 Zn 0.2433 0.77397 0.73121 0.0
Zn81 Zn 0.2758 0.72364 0.75998 0.0
C82 C 0.21718 0.81187 0.6737 0.0
O83 O 0.23833 0.80666 0.64801 0.0
C84 C 0.30851 0.69538 0.81976 0.0
O85 O 0.28992 0.70513 0.84505 0.0
O86 O 0.28589 0.78869 0.70334 0.0
O87 O 0.25691 0.78199 0.79724 0.0
O88 O 0.29881 0.76558 0.78566 0.0
C89 C 0.30247 0.81589 0.71586 0.0
O90 O 0.28924 0.8318 0.74084 0.0
O91 O 0.2151 0.8006 0.71149 0.0
C92 C 0.22413 0.67515 0.77664 0.0
O93 O 0.24212 0.6636 0.75271 0.0
O94 O 0.23432 0.70352 0.78777 0.0
O95 O 0.26182 0.71671 0.69489 0.0
O96 O 0.21861 0.73166 0.70578 0.0
O97 O 0.30718 0.70036 0.77893 0.0
C98 C 0.28681 0.78326 0.80652 0.0
C99 C 0.23184 0.7149 0.68481 0.0
Zn100 Zn 0.28972 0.23221 0.72941 0.0
Zn101 Zn 0.22772 0.27662 0.75671 0.0
C102 C 0.31478 0.21177 0.81003 0.0
O103 O 0.33282 0.24061 0.81402 0.0
C104 C 0.17985 0.29166 0.70104 0.0
O105 O 0.16199 0.27368 0.72865 0.0
O106 O 0.31445 0.21761 0.68456 0.0
O107 O 0.24451 0.22653 0.6999 0.0
O108 O 0.21107 0.23079 0.74897 0.0
C109 C 0.30175 0.1893 0.67376 0.0
O110 O 0.27408 0.17432 0.68973 0.0
O111 O 0.29188 0.20333 0.77887 0.0
C112 C 0.2156 0.31661 0.82251 0.0
O113 O 0.24275 0.33537 0.80994 0.0
O114 O 0.20494 0.28944 0.80584 0.0
O115 O 0.27657 0.29589 0.77051 0.0
O116 O 0.31431 0.27506 0.75057 0.0
O117 O 0.2107 0.29555 0.70373 0.0
C118 C 0.21865 0.21514 0.71909 0.0
C119 C 0.30641 0.29681 0.76837 0.0
Zn120 Zn 0.72216 0.25868 0.78048 0.0
Zn121 Zn 0.78356 0.2325 0.73354 0.0
C122 C 0.71373 0.22051 0.85496 0.0
O123 O 0.71502 0.24585 0.87693 0.0
C124 C 0.82496 0.26812 0.6688 0.0
O125 O 0.8228 0.24203 0.6483 0.0
O126 O 0.69745 0.28366 0.81131 0.0
O127 O 0.76905 0.28504 0.78283 0.0
O128 O 0.79268 0.24921 0.79653 0.0
C129 C 0.70204 0.31188 0.80477 0.0
O130 O 0.7218 0.32493 0.7752 0.0
O131 O 0.71902 0.22162 0.81465 0.0
C132 C 0.78912 0.17841 0.6898 0.0
O133 O 0.76198 0.18031 0.6688 0.0
O134 O 0.80286 0.19774 0.72147 0.0
O135 O 0.73726 0.22061 0.70549 0.0
O136 O 0.69857 0.24079 0.72189 0.0
O137 O 0.8096 0.26829 0.70266 0.0
C138 C 0.79185 0.27653 0.80239 0.0
C139 C 0.70843 0.22265 0.69844 0.0
Zn140 Zn 0.72937 0.78226 0.77076 0.0
Zn141 Zn 0.7832 0.72556 0.74782 0.0
C142 C 0.70319 0.80512 0.84469 0.0
O143 O 0.68773 0.77588 0.84737 0.0
C144 C 0.81094 0.70311 0.67674 0.0
O145 O 0.83048 0.73141 0.68067 0.0
O146 O 0.69318 0.78262 0.72537 0.0
O147 O 0.77269 0.802 0.74131 0.0
O148 O 0.79963 0.7694 0.7253 0.0
C149 C 0.69586 0.78588 0.68452 0.0
O150 O 0.7237 0.78669 0.66851 0.0
O151 O 0.7242 0.81329 0.81647 0.0
C152 C 0.81444 0.71414 0.83133 0.0
O153 O 0.78689 0.71402 0.84756 0.0
O154 O 0.8187 0.72136 0.7918 0.0
O155 O 0.74016 0.70635 0.77723 0.0
O156 O 0.71368 0.73892 0.79512 0.0
O157 O 0.78651 0.69541 0.6999 0.0
C158 C 0.79647 0.79614 0.72396 0.0
C159 C 0.71684 0.71216 0.79568 0.0
Co160 Co 0.04427 0.95018 0.4894 0.0
Co161 Co 0.04345 0.96985 0.56886 0.0
Co162 Co 1.00444 0.00283 0.50472 0.0
O163 O 0.04349 0.98822 0.51582 0.0
H164 H 0.06391 0.00442 0.51438 0.0
O165 O 0.96536 0.01721 0.49382 0.0
Co166 Co 0.96355 0.05421 0.5221 0.0
Co167 Co 0.96454 0.03622 0.44152 0.0
H168 H 0.94509 1.00074 0.49471 0.0
O169 O 0.0823 0.97003 0.59795 0.0
O170 O 0.04968 0.93382 0.54892 0.0
O171 O 1.00405 0.9596 0.59879 0.0
O172 O 0.97383 0.97092 0.54302 0.0
O173 O 0.02094 0.03199 0.55607 0.0
O174 O 0.95808 0.08685 0.54846 0.0
O175 O 0.91951 0.04236 0.52618 0.0
O176 O 0.00994 0.07102 0.52437 0.0
O177 O 0.03487 0.03492 0.46622 0.0
O178 O 1.00426 0.04802 0.41229 0.0
O179 O 0.95782 0.07142 0.46371 0.0
O180 O 0.92473 0.0361 0.41402 0.0
C181 C 0.07928 0.9327 0.46744 0.0
C182 C 0.9811 0.94501 0.45802 0.0
C183 C 0.97617 0.95794 0.57974 0.0
C184 C 0.07538 0.94336 0.57765 0.0
C185 C 0.92761 0.06965 0.54539 0.0
C186 C 0.02763 0.06062 0.55143 0.0
C187 C 0.03224 0.04897 0.43046 0.0
C188 C 0.93146 0.06201 0.43632 0.0
O189 O 0.04841 0.91668 0.46452 0.0
O190 O 0.08844 0.9604 0.48557 0.0
O191 O 0.98798 0.97366 0.4534 0.0
O192 O 0.9976 0.93463 0.48684 0.0
Co193 Co 0.54019 0.9515 0.98907 0.0
Co194 Co 0.54291 0.97373 0.068 0.0
Co195 Co 0.50368 0.00746 0.00276 0.0
O196 O 0.5411 0.9904 0.01411 0.0
H197 H 0.56192 0.00574 0.01123 0.0
O198 O 0.46657 0.02468 0.99115 0.0
Co199 Co 0.46779 0.06401 0.01477 0.0
Co200 Co 0.46467 0.04054 0.936 0.0
H201 H 0.44573 0.00951 0.99455 0.0
O202 O 0.58213 0.97205 0.09514 0.0
O203 O 0.54634 0.93622 0.04877 0.0
O204 O 0.50461 0.96668 0.09949 0.0
O205 O 0.4754 0.98222 0.04652 0.0
O206 O 0.52598 0.04055 0.04846 0.0
O207 O 0.46456 0.09892 0.03704 0.0
O208 O 0.42415 0.05462 0.02013 0.0
O209 O 0.51467 0.07881 0.01455 0.0
O210 O 0.53185 0.03242 0.95907 0.0
O211 O 0.5037 0.04837 0.9054 0.0
O212 O 0.46162 0.07826 0.95429 0.0
O213 O 0.42501 0.04236 0.90885 0.0
C214 C 0.57431 0.93298 0.96627 0.0
C215 C 0.47357 0.94633 0.96635 0.0
C216 C 0.47756 0.96899 0.08247 0.0
C217 C 0.57294 0.94489 0.07588 0.0
C218 C 0.43363 0.08301 0.03531 0.0
C219 C 0.53366 0.06886 0.04026 0.0
C220 C 0.53046 0.04577 0.92312 0.0
C221 C 0.43458 0.06945 0.92815 0.0
O222 O 0.54335 0.9172 0.9644 0.0
O223 O 0.58406 0.96083 0.9838 0.0
O224 O 0.48123 0.97442 0.95713 0.0
O225 O 0.4936 0.93642 0.99007 0.0
Co226 Co 0.0444 0.44991 0.9782 0.0
Co227 Co 0.05954 0.48545 0.0497 0.0
Co228 Co 0.01007 0.50735 0.98679 0.0
O229 O 0.04862 0.49184 0.99139 0.0
H230 H 0.06752 0.50561 0.97947 0.0
O231 O 0.97118 0.52277 0.9819 0.0
Co232 Co 0.97437 0.56301 0.00408 0.0
Co233 Co 0.96207 0.53553 0.9263 0.0
H234 H 0.95179 0.50765 0.99051 0.0
O235 O 0.10003 0.48058 0.06931 0.0
O236 O 0.05452 0.44409 0.04118 0.0
O237 O 0.02879 0.48879 0.09104 0.0
O238 O 0.9893 0.48408 0.03713 0.0
O239 O 0.03542 0.54192 0.02846 0.0
O240 O 0.97318 0.59866 0.02684 0.0
O241 O 0.93207 0.55418 0.01643 0.0
O242 O 0.01958 0.57764 0.99458 0.0
O243 O 0.03142 0.53091 0.93679 0.0
O244 O 0.99539 0.54003 0.88647 0.0
O245 O 0.96314 0.57464 0.94441 0.0
O246 O 0.92097 0.53895 0.9072 0.0
C247 C 0.07564 0.42706 0.9593 0.0
C248 C 0.9794 0.44465 0.95683 0.0
C249 C 0.99864 0.48284 0.07758 0.0
C250 C 0.08412 0.45187 0.0606 0.0
C251 C 0.94271 0.58285 0.03038 0.0
C252 C 0.04007 0.56982 0.02016 0.0
C253 C 0.02434 0.5403 0.89939 0.0
C254 C 0.93395 0.56671 0.92366 0.0
O255 O 0.04517 0.41215 0.96466 0.0
O256 O 0.08653 0.45659 0.9673 0.0
O257 O 0.98488 0.47223 0.94575 0.0
O258 O 0.99872 0.43768 0.98558 0.0
Co259 Co 0.54503 0.44814 0.99406 0.0
Co260 Co 0.54635 0.46802 0.0744 0.0
Co261 Co 0.5097 0.50355 0.01191 0.0
O262 O 0.54743 0.48692 0.02178 0.0
H263 H 0.56844 0.50226 0.02013 0.0
O264 O 0.47205 0.51992 1.00169 0.0
Co265 Co 0.47273 0.55888 0.02593 0.0
Co266 Co 0.47317 0.53663 0.94755 0.0
H267 H 0.45115 0.50443 0.00345 0.0
O268 O 0.58478 0.46632 0.10205 0.0
O269 O 0.55024 0.43152 0.05279 0.0
O270 O 0.5073 0.45919 0.1049 0.0
O271 O 0.47795 0.47213 0.04963 0.0
O272 O 0.52742 0.53221 0.06361 0.0
O273 O 0.46974 0.59366 0.04854 0.0
O274 O 0.42854 0.55074 0.02767 0.0
O275 O 0.5197 0.57236 0.0307 0.0
O276 O 0.54138 0.53512 0.97458 0.0
O277 O 0.51183 0.54397 0.91639 0.0
O278 O 0.46936 0.57403 0.96508 0.0
O279 O 0.43517 0.53702 0.91814 0.0
C280 C 0.57705 0.42806 0.96857 0.0
C281 C 0.4842 0.44648 0.96352 0.0
C282 C 0.47971 0.45866 0.08606 0.0
C283 C 0.57683 0.4402 0.07995 0.0
C284 C 0.4385 0.57879 0.04461 0.0
C285 C 0.53566 0.56099 0.05908 0.0
C286 C 0.53952 0.54681 0.9368 0.0
C287 C 0.44374 0.56454 0.93614 0.0
O288 O 0.5458 0.41383 0.96777 0.0
O289 O 0.58887 0.45535 0.98804 0.0
O290 O 0.49192 0.47526 0.95982 0.0
O291 O 0.49883 0.43549 0.99369 0.0
Co292 Co 0.05993 0.46781 0.51361 0.0
Co293 Co 0.03684 0.46756 0.4342 0.0
Co294 Co 0.99883 0.50119 0.49766 0.0
O295 O 0.01793 0.46728 0.48612 0.0
H296 H 1.0017 0.44756 0.48806 0.0
O297 O 0.97974 0.53516 0.50923 0.0
Co298 Co 0.93766 0.53491 0.48243 0.0
Co299 Co 0.96029 0.53379 0.56101 0.0
H300 H 0.99602 0.55491 0.50779 0.0
O301 O 0.03797 0.43175 0.40689 0.0
O302 O 0.07657 0.46297 0.45564 0.0
O303 O 0.04335 0.50408 0.40317 0.0
O304 O 0.0217 0.52829 0.45111 0.0
O305 O 0.96118 0.47995 0.45385 0.0
O306 O 0.90045 0.53818 0.45652 0.0
O307 O 0.94795 0.57567 0.4746 0.0
O308 O 0.92138 0.49168 0.48559 0.0
O309 O 0.97574 0.47366 0.54351 0.0
O310 O 0.94941 0.49569 0.58791 0.0
O311 O 0.92161 0.54071 0.5409 0.0
O312 O 0.96147 0.56914 0.59094 0.0
C313 C 0.07967 0.43566 0.53965 0.0
C314 C 0.06624 0.52931 0.53328 0.0
C315 C 0.0367 0.52771 0.41656 0.0
C316 C 0.0669 0.43903 0.42836 0.0
C317 C 0.91747 0.56696 0.45743 0.0
C318 C 0.93109 0.47352 0.46184 0.0
C319 C 0.95781 0.47294 0.57523 0.0
C320 C 0.93254 0.56365 0.56997 0.0
O321 O 0.09685 0.46444 0.54088 0.0
O322 O 0.04969 0.42702 0.52074 0.0
O323 O 0.0363 0.52256 0.54177 0.0
O324 O 0.07625 0.51101 0.51044 0.0
Co325 Co 0.55937 0.95779 0.54533 0.0
Co326 Co 0.55213 0.96712 0.4678 0.0
Co327 Co 0.50143 0.99449 0.50992 0.0
O328 O 0.52247 0.96123 0.50774 0.0
H329 H 0.50615 0.94144 0.50209 0.0
O330 O 0.48134 0.02838 0.5116 0.0
Co331 Co 0.44308 0.02972 0.47634 0.0
Co332 Co 0.45534 0.02701 0.55502 0.0
H333 H 0.498 0.0481 0.51279 0.0
O334 O 0.55147 0.9348 0.43278 0.0
O335 O 0.58555 0.95527 0.49394 0.0
O336 O 0.5648 0.00698 0.44701 0.0
O337 O 0.51438 0.01012 0.45087 0.0
O338 O 0.46133 0.96433 0.48137 0.0
O339 O 0.41008 0.03466 0.44242 0.0
O340 O 0.45813 0.06998 0.46593 0.0
O341 O 0.42198 0.987 0.48126 0.0
O342 O 0.48771 0.97822 0.56886 0.0
O343 O 0.4409 0.98829 0.57798 0.0
O344 O 0.42192 0.03945 0.52935 0.0
O345 O 0.45918 0.0611 0.58756 0.0
C346 C 0.57245 0.92213 0.5707 0.0
C347 C 0.57061 0.02546 0.54961 0.0
C348 C 0.54348 0.02063 0.43917 0.0
C349 C 0.57718 0.93608 0.45939 0.0
C350 C 0.42936 0.06269 0.44367 0.0
C351 C 0.43128 0.96324 0.47819 0.0
C352 C 0.45895 0.97103 0.58248 0.0
C353 C 0.43286 0.05988 0.56226 0.0
O354 O 0.59052 0.95022 0.58038 0.0
O355 O 0.54525 0.9167 0.54522 0.0
O356 O 0.54131 0.02485 0.5383 0.0
O357 O 0.57949 1.00138 0.55088 0.0
C358 C 0.1886 0.15786 0.31088 0.0
C359 C 0.18618 0.18778 0.30911 0.0
C360 C 0.16587 0.13443 0.33207 0.0
C361 C 0.13974 0.1406 0.35269 0.0
C362 C 0.1374 0.17081 0.35151 0.0
C363 C 0.16028 0.19371 0.3298 0.0
C364 C 0.16961 0.1028 0.33186 0.0
C365 C 0.11037 0.17897 0.37294 0.0
C366 C 0.0594 0.07612 0.36579 0.0
C367 C 0.06193 0.06958 0.41057 0.0
C368 C 0.08464 0.09828 0.34672 0.0
C369 C 0.11364 0.1152 0.37274 0.0
C370 C 0.1168 0.10831 0.41786 0.0
C371 C 0.09116 0.0856 0.43608 0.0
C372 C 0.07977 0.10414 0.2986 0.0
C373 C 0.14684 0.12569 0.44739 0.0
H374 H 0.20833 0.15259 0.29545 0.0
H375 H 0.15776 0.21643 0.32911 0.0
H376 H 0.17128 0.09531 0.36601 0.0
H377 H 0.14759 0.08628 0.31399 0.0
H378 H 0.19176 0.10172 0.31602 0.0
H379 H 0.11283 0.20371 0.37159 0.0
H380 H 0.08612 0.16567 0.35628 0.0
H381 H 0.1105 0.17278 0.40785 0.0
H382 H 0.03713 0.06411 0.34544 0.0
H383 H 0.09346 0.08134 0.47077 0.0
H384 H 0.10083 0.10195 0.28126 0.0
H385 H 0.07885 0.12786 0.295 0.0
H386 H 0.05675 0.0881 0.28216 0.0
H387 H 0.16946 0.12474 0.43277 0.0
H388 H 0.14675 0.11659 0.4808 0.0
H389 H 0.14801 0.15013 0.45053 0.0
C390 C 0.81709 0.15584 0.33697 0.0
C391 C 0.80097 0.16731 0.3683 0.0
C392 C 0.83935 0.1399 0.34971 0.0
C393 C 0.84541 0.13506 0.3948 0.0
C394 C 0.82935 0.1467 0.42656 0.0
C395 C 0.8074 0.16273 0.41297 0.0
C396 C 0.85631 0.12813 0.3149 0.0
C397 C 0.83499 0.14177 0.47482 0.0
C398 C 0.87572 0.06697 0.41837 0.0
C399 C 0.90941 0.08103 0.4292 0.0
C400 C 0.85447 0.08439 0.40868 0.0
C401 C 0.86743 0.11663 0.40849 0.0
C402 C 0.9014 0.13102 0.42027 0.0
C403 C 0.92195 0.11301 0.43119 0.0
C404 C 0.81823 0.06824 0.39799 0.0
C405 C 0.91621 0.1653 0.41988 0.0
H406 H 0.81247 0.15945 0.30243 0.0
H407 H 0.79513 0.17154 0.43747 0.0
H408 H 0.88336 0.13672 0.32267 0.0
H409 H 0.849 0.10279 0.31445 0.0
H410 H 0.85022 0.13513 0.28154 0.0
H411 H 0.82178 0.15342 0.49563 0.0
H412 H 0.8267 0.11692 0.48038 0.0
H413 H 0.8616 0.15032 0.48561 0.0
H414 H 0.86594 0.04223 0.41751 0.0
H415 H 0.94803 0.12387 0.43955 0.0
H416 H 0.81079 0.07209 0.36354 0.0
H417 H 0.80361 0.07775 0.41954 0.0
H418 H 0.81184 0.0432 0.40212 0.0
H419 H 0.91263 0.17298 0.38618 0.0
H420 H 0.94292 0.17295 0.43062 0.0
H421 H 0.90358 0.1768 0.44175 0.0
C422 C 0.81914 0.83218 0.32635 0.0
C423 C 0.82838 0.81742 0.29115 0.0
C424 C 0.84272 0.85448 0.35351 0.0
C425 C 0.87612 0.86247 0.34464 0.0
C426 C 0.8853 0.8488 0.30774 0.0
C427 C 0.86131 0.82617 0.28165 0.0
C428 C 0.83211 0.86835 0.39288 0.0
C429 C 0.92063 0.85729 0.29674 0.0
C430 C 0.93696 0.9353 0.39634 0.0
C431 C 0.95331 0.92396 0.43032 0.0
C432 C 0.91137 0.9156 0.36859 0.0
C433 C 0.90181 0.88386 0.37518 0.0
C434 C 0.91762 0.87232 0.41006 0.0
C435 C 0.9433 0.89253 0.43717 0.0
C436 C 0.89508 0.92865 0.33163 0.0
C437 C 0.90776 0.83857 0.41829 0.0
H438 H 0.79372 0.82522 0.33404 0.0
H439 H 0.86844 0.81488 0.25428 0.0
H440 H 0.84263 0.86105 0.42352 0.0
H441 H 0.84161 0.89368 0.39336 0.0
H442 H 0.80493 0.8614 0.39322 0.0
H443 H 0.92322 0.84633 0.26499 0.0
H444 H 0.9309 0.88246 0.295 0.0
H445 H 0.93566 0.85013 0.3231 0.0
H446 H 0.94449 0.9596 0.3909 0.0
H447 H 0.95566 0.88365 0.46355 0.0
H448 H 0.86811 0.92176 0.33378 0.0
H449 H 0.89929 0.91931 0.29954 0.0
H450 H 0.90457 0.95402 0.33205 0.0
H451 H 0.88105 0.82993 0.42236 0.0
H452 H 0.92149 0.8335 0.44801 0.0
H453 H 0.91235 0.82573 0.38953 0.0
C454 C 0.20442 0.8449 0.39571 0.0
C455 C 0.19713 0.83562 0.351 0.0
C456 C 0.18916 0.86421 0.4155 0.0
C457 C 0.16599 0.87459 0.39005 0.0
C458 C 0.15997 0.8668 0.34431 0.0
C459 C 0.17563 0.84739 0.32528 0.0
C460 C 0.1963 0.87176 0.46427 0.0
C461 C 0.13556 0.87754 0.31595 0.0
C462 C 0.09443 0.88659 0.44568 0.0
C463 C 0.10318 0.91856 0.45079 0.0
C464 C 0.11502 0.87216 0.42693 0.0
C465 C 0.14505 0.8901 0.41215 0.0
C466 C 0.15453 0.92241 0.41818 0.0
C467 C 0.13354 0.93631 0.4378 0.0
C468 C 0.1043 0.83763 0.42233 0.0
C469 C 0.18646 0.94225 0.40305 0.0
H470 H 0.22133 0.83625 0.41581 0.0
H471 H 0.17 0.84048 0.29068 0.0
H472 H 0.19935 0.89625 0.47185 0.0
H473 H 0.17523 0.85803 0.48145 0.0
H474 H 0.21878 0.86657 0.47771 0.0
H475 H 0.13647 0.87255 0.28038 0.0
H476 H 0.11033 0.86594 0.32498 0.0
H477 H 0.14028 0.90251 0.32166 0.0
H478 H 0.07119 0.87268 0.45617 0.0
H479 H 0.14038 0.96102 0.44165 0.0
H480 H 0.12321 0.82883 0.4393 0.0
H481 H 0.10176 0.8301 0.3871 0.0
H482 H 0.0805 0.82705 0.4363 0.0
H483 H 0.20735 0.93534 0.41823 0.0
H484 H 0.19081 0.96691 0.41143 0.0
H485 H 0.18624 0.93902 0.36689 0.0
C486 C 0.16614 0.8275 0.67665 0.0
C487 C 0.1959 0.83039 0.65835 0.0
C488 C 0.1456 0.84466 0.66177 0.0
C489 C 0.15538 0.86566 0.62842 0.0
C490 C 0.18548 0.86875 0.61 0.0
C491 C 0.20521 0.85086 0.62487 0.0
C492 C 0.11358 0.84057 0.68202 0.0
C493 C 0.19748 0.89174 0.57574 0.0
C494 C 0.09072 0.89501 0.56733 0.0
C495 C 0.09592 0.92335 0.58963 0.0
C496 C 0.11014 0.8761 0.57915 0.0
C497 C 0.13496 0.88556 0.61456 0.0
C498 C 0.14036 0.91416 0.63703 0.0
C499 C 0.12093 0.93271 0.62419 0.0
C500 C 0.1043 0.84614 0.55357 0.0
C501 C 0.1666 0.92517 0.67487 0.0
H502 H 0.15871 0.81154 0.7023 0.0
H503 H 0.22834 0.85341 0.61086 0.0
H504 H 0.11385 0.86239 0.69867 0.0
H505 H 0.09283 0.83452 0.65596 0.0
H506 H 0.10892 0.82248 0.70638 0.0
H507 H 0.21847 0.88797 0.55977 0.0
H508 H 0.17737 0.89093 0.55014 0.0
H509 H 0.20572 0.91512 0.59153 0.0
H510 H 0.0715 0.88757 0.54063 0.0
H511 H 0.12523 0.95454 0.64173 0.0
H512 H 0.09985 0.82703 0.57622 0.0
H513 H 0.12654 0.84659 0.53685 0.0
H514 H 0.08304 0.84139 0.52834 0.0
H515 H 0.16169 0.90878 0.70151 0.0
H516 H 0.16786 0.94814 0.68866 0.0
H517 H 0.19099 0.92623 0.66391 0.0
C518 C 0.19716 0.1759 0.65726 0.0
C519 C 0.1927 0.1886 0.69768 0.0
C520 C 0.17149 0.15311 0.63401 0.0
C521 C 0.1407 0.14282 0.65169 0.0
C522 C 0.13649 0.15436 0.69343 0.0
C523 C 0.1626 0.17714 0.716 0.0
C524 C 0.17686 0.14113 0.58962 0.0
C525 C 0.10398 0.14364 0.71337 0.0
C526 C 0.06452 0.1133 0.57249 0.0
C527 C 0.05699 0.08163 0.57628 0.0
C528 C 0.09193 0.13346 0.59668 0.0
C529 C 0.11223 0.12159 0.62519 0.0
C530 C 0.10509 0.08965 0.62871 0.0
C531 C 0.07749 0.07001 0.6042 0.0
C532 C 0.099 0.16749 0.59204 0.0
C533 C 0.12643 0.07628 0.65859 0.0
H534 H 0.22036 0.18451 0.64287 0.0
H535 H 0.15908 0.18659 0.74744 0.0
H536 H 0.16827 0.11576 0.58754 0.0
H537 H 0.16225 0.14898 0.56348 0.0
H538 H 0.20312 0.14909 0.58273 0.0
H539 H 0.10551 0.15317 0.74751 0.0
H540 H 0.08515 0.15071 0.69304 0.0
H541 H 0.09536 0.11831 0.71367 0.0
H542 H 0.04885 0.12241 0.55088 0.0
H543 H 0.07193 0.04552 0.60711 0.0
H544 H 0.12398 0.17747 0.58113 0.0
H545 H 0.09852 0.17878 0.62438 0.0
H546 H 0.08095 0.17295 0.56809 0.0
H547 H 0.15223 0.08429 0.64991 0.0
H548 H 0.11793 0.05086 0.65664 0.0
H549 H 0.12643 0.08428 0.69315 0.0
C550 C 0.79216 0.13971 0.63286 0.0
C551 C 0.80544 0.15693 0.67222 0.0
C552 C 0.80909 0.12231 0.61209 0.0
C553 C 0.83993 0.12159 0.63156 0.0
C554 C 0.85227 0.13702 0.673 0.0
C555 C 0.8351 0.15485 0.69258 0.0
C556 C 0.79351 0.10531 0.56909 0.0
C557 C 0.88401 0.13526 0.69621 0.0
C558 C 0.87746 0.06303 0.58589 0.0
C559 C 0.90281 0.08175 0.56351 0.0
C560 C 0.85663 0.07559 0.60824 0.0
C561 C 0.86081 0.10737 0.60701 0.0
C562 C 0.88525 0.12595 0.58225 0.0
C563 C 0.90627 0.113 0.56142 0.0
C564 C 0.83061 0.05505 0.63383 0.0
C565 C 0.88964 0.15967 0.57833 0.0
H566 H 0.7689 0.14059 0.61713 0.0
H567 H 0.84527 0.16764 0.72336 0.0
H568 H 0.7839 0.12037 0.54749 0.0
H569 H 0.81038 0.09638 0.55099 0.0
H570 H 0.7721 0.08571 0.57585 0.0
H571 H 0.88772 0.14465 0.73073 0.0
H572 H 0.88432 0.11116 0.69623 0.0
H573 H 0.90507 0.1484 0.67853 0.0
H574 H 0.87486 0.03885 0.58753 0.0
H575 H 0.92564 0.12741 0.54358 0.0
H576 H 0.8059 0.05447 0.61916 0.0
H577 H 0.8332 0.06427 0.6683 0.0
H578 H 0.83197 0.03127 0.63404 0.0
H579 H 0.86553 0.16355 0.57039 0.0
H580 H 0.90617 0.16973 0.55263 0.0
H581 H 0.90037 0.17209 0.61017 0.0
C582 C 0.81879 0.85092 0.6993 0.0
C583 C 0.82086 0.82089 0.70087 0.0
C584 C 0.84168 0.87418 0.67805 0.0
C585 C 0.86756 0.86767 0.65724 0.0
C586 C 0.86943 0.83731 0.65808 0.0
C587 C 0.8464 0.81459 0.67979 0.0
C588 C 0.83846 0.906 0.67854 0.0
C589 C 0.8962 0.82881 0.63647 0.0
C590 C 0.91695 0.92205 0.57406 0.0
C591 C 0.94633 0.93761 0.59959 0.0
C592 C 0.89096 0.89975 0.59226 0.0
C593 C 0.89395 0.89282 0.63736 0.0
C594 C 0.92311 0.90929 0.66342 0.0
C595 C 0.94867 0.93108 0.64438 0.0
C596 C 0.8607 0.88285 0.56277 0.0
C597 C 0.92781 0.90329 0.71152 0.0
H598 H 0.79934 0.85643 0.71508 0.0
H599 H 0.84861 0.79175 0.68032 0.0
H600 H 0.86056 0.9222 0.69671 0.0
H601 H 0.83712 0.91372 0.64448 0.0
H602 H 0.81633 0.90729 0.69423 0.0
H603 H 0.8933 0.80397 0.6375 0.0
H604 H 0.89623 0.83521 0.60165 0.0
H605 H 0.92054 0.84172 0.65326 0.0
H606 H 0.91475 0.92637 0.53938 0.0
H607 H 0.97103 0.94277 0.66477 0.0
H608 H 0.83833 0.88472 0.57715 0.0
H609 H 0.85864 0.85819 0.56015 0.0
H610 H 0.8612 0.89169 0.52917 0.0
H611 H 0.90687 0.90581 0.72887 0.0
H612 H 0.95098 0.91904 0.72801 0.0
H613 H 0.92829 0.87943 0.71503 0.0
C614 C 0.31009 0.17114 0.11932 0.0
C615 C 0.32639 0.18553 0.15921 0.0
C616 C 0.32321 0.15189 0.09492 0.0
C617 C 0.35258 0.14631 0.11176 0.0
C618 C 0.36801 0.15967 0.15318 0.0
C619 C 0.3551 0.17955 0.17586 0.0
C620 C 0.30659 0.13884 0.05033 0.0
C621 C 0.39877 0.15369 0.17312 0.0
C622 C 0.3826 0.08154 0.07116 0.0
C623 C 0.40967 0.0978 0.04938 0.0
C624 C 0.36239 0.09671 0.08973 0.0
C625 C 0.36905 0.12863 0.08528 0.0
C626 C 0.39486 0.14454 0.0603 0.0
C627 C 0.41507 0.129 0.04309 0.0
C628 C 0.33542 0.07906 0.11664 0.0
C629 C 0.40233 0.17841 0.05396 0.0
H630 H 0.28792 0.17587 0.10645 0.0
H631 H 0.36749 0.19038 0.20704 0.0
H632 H 0.32096 0.1519 0.02454 0.0
H633 H 0.30576 0.11461 0.04536 0.0
H634 H 0.28116 0.14036 0.04564 0.0
H635 H 0.40573 0.16336 0.20744 0.0
H636 H 0.39524 0.12873 0.17308 0.0
H637 H 0.41955 0.16401 0.15314 0.0
H638 H 0.37836 0.05736 0.07582 0.0
H639 H 0.4356 0.14143 0.02534 0.0
H640 H 0.31214 0.08406 0.10698 0.0
H641 H 0.34226 0.08633 0.1519 0.0
H642 H 0.33104 0.05398 0.11297 0.0
H643 H 0.3796 0.18366 0.04194 0.0
H644 H 0.42117 0.18675 0.03033 0.0
H645 H 0.41152 0.1913 0.0859 0.0
C646 C 0.86551 0.35575 0.17602 0.0
C647 C 0.84301 0.3644 0.20017 0.0
C648 C 0.89369 0.37766 0.16401 0.0
C649 C 0.8995 0.40877 0.17702 0.0
C650 C 0.87824 0.41727 0.20433 0.0
C651 C 0.84998 0.39495 0.21527 0.0
C652 C 0.91587 0.3678 0.13466 0.0
C653 C 0.88405 0.45017 0.21946 0.0
C654 C 0.98179 0.4605 0.14933 0.0
C655 C 0.97326 0.46902 0.10732 0.0
C656 C 0.95763 0.44237 0.17413 0.0
C657 C 0.92453 0.4325 0.15609 0.0
C658 C 0.91556 0.44287 0.11519 0.0
C659 C 0.94003 0.46125 0.0915 0.0
C660 C 0.96779 0.43222 0.2182 0.0
C661 C 0.88042 0.43279 0.09484 0.0
H662 H 0.86035 0.33208 0.16469 0.0
H663 H 0.83281 0.4017 0.2344 0.0
H664 H 0.91315 0.37636 0.10132 0.0
H665 H 0.94199 0.37774 0.14753 0.0
H666 H 0.90998 0.34251 0.13159 0.0
H667 H 0.86925 0.45207 0.2471 0.0
H668 H 0.91042 0.46149 0.22998 0.0
H669 H 0.8771 0.46283 0.19174 0.0
H670 H 0.00741 0.46671 0.16198 0.0
H671 H 0.93315 0.46817 0.05938 0.0
H672 H 0.96727 0.40796 0.21487 0.0
H673 H 0.9504 0.43366 0.24268 0.0
H674 H 0.99301 0.44615 0.23099 0.0
H675 H 0.87251 0.4078 0.0867 0.0
H676 H 0.87733 0.44468 0.06428 0.0
H677 H 0.86374 0.43716 0.11845 0.0
C678 C 0.67919 0.8336 0.15285 0.0
C679 C 0.66207 0.8161 0.18551 0.0
C680 C 0.66559 0.85312 0.12835 0.0
C681 C 0.63454 0.85563 0.13742 0.0
C682 C 0.61663 0.83704 0.16899 0.0
C683 C 0.63049 0.8174 0.19238 0.0
C684 C 0.6848 0.87174 0.09371 0.0
C685 C 0.58341 0.83894 0.17961 0.0
C686 C 0.61502 0.93025 0.12415 0.0
C687 C 0.5911 0.923 0.08822 0.0
C688 C 0.6303 0.90889 0.13927 0.0
C689 C 0.622 0.87968 0.11743 0.0
C690 C 0.59935 0.87283 0.0795 0.0
C691 C 0.58381 0.89442 0.06572 0.0
C692 C 0.65408 0.91708 0.18009 0.0
C693 C 0.59008 0.84225 0.05458 0.0
H694 H 0.70344 0.83246 0.14697 0.0
H695 H 0.61695 0.80389 0.21736 0.0
H696 H 0.69352 0.89626 0.10484 0.0
H697 H 0.70644 0.86443 0.08667 0.0
H698 H 0.66876 0.86976 0.06276 0.0
H699 H 0.57199 0.82195 0.2036 0.0
H700 H 0.58601 0.86217 0.19356 0.0
H701 H 0.5665 0.83509 0.14919 0.0
H702 H 0.62097 0.95228 0.14172 0.0
H703 H 0.5655 0.88859 0.03778 0.0
H704 H 0.67762 0.91306 0.1737 0.0
H705 H 0.6437 0.9022 0.20689 0.0
H706 H 0.65934 0.94132 0.19174 0.0
H707 H 0.61079 0.83242 0.05586 0.0
H708 H 0.58197 0.84417 0.0196 0.0
H709 H 0.56931 0.82604 0.06953 0.0
C710 C 0.16201 0.71249 0.16175 0.0
C711 C 0.19314 0.70876 0.17033 0.0
C712 C 0.13716 0.69071 0.13531 0.0
C713 C 0.14416 0.66541 0.11566 0.0
C714 C 0.17613 0.66256 0.12219 0.0
C715 C 0.20001 0.68391 0.15021 0.0
C716 C 0.10305 0.69397 0.1302 0.0
C717 C 0.18488 0.63643 0.10076 0.0
C718 C 0.07549 0.59128 0.08868 0.0
C719 C 0.06745 0.59369 0.0439 0.0
C720 C 0.09998 0.61482 0.11263 0.0
C721 C 0.11758 0.64079 0.09073 0.0
C722 C 0.11009 0.64291 0.04515 0.0
C723 C 0.0846 0.61952 0.02239 0.0
C724 C 0.10667 0.61211 0.16146 0.0
C725 C 0.1291 0.66973 0.02043 0.0
H726 H 0.15657 0.73163 0.17729 0.0
H727 H 0.224 0.68089 0.15685 0.0
H728 H 0.09432 0.69304 0.0949 0.0
H729 H 0.0857 0.6746 0.14543 0.0
H730 H 0.10203 0.7157 0.14589 0.0
H731 H 0.21173 0.63963 0.10489 0.0
H732 H 0.17192 0.61469 0.11548 0.0
H733 H 0.17678 0.63403 0.0651 0.0
H734 H 0.06186 0.57138 0.10528 0.0
H735 H 0.07836 0.62117 0.98763 0.0
H736 H 0.10382 0.63217 0.17981 0.0
H737 H 0.13238 0.61201 0.16907 0.0
H738 H 0.0899 0.59098 0.17373 0.0
H739 H 0.12607 0.6912 0.03408 0.0
H740 H 0.12099 0.6673 0.98473 0.0
H741 H 0.15573 0.67206 0.02458 0.0
C742 C 0.30029 0.82455 0.86749 0.0
C743 C 0.31008 0.80929 0.83335 0.0
C744 C 0.32348 0.84856 0.89316 0.0
C745 C 0.35689 0.85775 0.88364 0.0
C746 C 0.36646 0.84303 0.84818 0.0
C747 C 0.34315 0.81883 0.82408 0.0
C748 C 0.31243 0.86337 0.93115 0.0
C749 C 0.40152 0.8526 0.83579 0.0
C750 C 0.42082 0.93376 0.91758 0.0
C751 C 0.44116 0.92487 0.94938 0.0
C752 C 0.39173 0.91261 0.89811 0.0
C753 C 0.38265 0.88194 0.91096 0.0
C754 C 0.4018 0.87346 0.94532 0.0
C755 C 0.43082 0.89499 0.96406 0.0
C756 C 0.37163 0.92264 0.86212 0.0
C757 C 0.39269 0.84113 0.96048 0.0
H758 H 0.27479 0.81724 0.87483 0.0
H759 H 0.35094 0.80754 0.79732 0.0
H760 H 0.32103 0.8553 0.96244 0.0
H761 H 0.32332 0.88861 0.9321 0.0
H762 H 0.28523 0.85762 0.92951 0.0
H763 H 0.40447 0.83989 0.80578 0.0
H764 H 0.40977 0.87741 0.82986 0.0
H765 H 0.41804 0.84861 0.86325 0.0
H766 H 0.42826 0.95694 0.90662 0.0
H767 H 0.44588 0.88808 0.98944 0.0
H768 H 0.34591 0.91779 0.87068 0.0
H769 H 0.37085 0.90942 0.83098 0.0
H770 H 0.38167 0.94741 0.85637 0.0
H771 H 0.36666 0.83357 0.96824 0.0
H772 H 0.40849 0.83882 0.98995 0.0
H773 H 0.39517 0.82546 0.93368 0.0
C774 C 0.16205 0.32518 0.83186 0.0
C775 C 0.1945 0.32896 0.84833 0.0
C776 C 0.14289 0.34053 0.85225 0.0
C777 C 0.15619 0.35911 0.891 0.0
C778 C 0.18846 0.36167 0.90899 0.0
C779 C 0.20758 0.34713 0.88675 0.0
C780 C 0.10908 0.33807 0.83107 0.0
C781 C 0.20305 0.38037 0.95106 0.0
C782 C 0.12156 0.42401 0.91608 0.0
C783 C 0.09771 0.41044 0.94445 0.0
C784 C 0.14091 0.40758 0.89863 0.0
C785 C 0.13699 0.37722 0.91108 0.0
C786 C 0.11385 0.3639 0.94125 0.0
C787 C 0.0941 0.38054 0.95711 0.0
C788 C 0.16467 0.42231 0.86562 0.0
C789 C 0.1096 0.33193 0.9562 0.0
H790 H 0.15227 0.31155 0.80161 0.0
H791 H 0.2328 0.35006 0.89923 0.0
H792 H 0.09034 0.32972 0.85473 0.0
H793 H 0.10818 0.36103 0.82165 0.0
H794 H 0.10228 0.32243 0.80121 0.0
H795 H 0.2269 0.37725 0.96322 0.0
H796 H 0.2071 0.40498 0.94557 0.0
H797 H 0.18577 0.37398 0.97703 0.0
H798 H 0.12417 0.44709 0.90615 0.0
H799 H 0.07589 0.37022 0.97955 0.0
H800 H 0.15812 0.40857 0.83401 0.0
H801 H 0.18998 0.42286 0.87746 0.0
H802 H 0.16467 0.44605 0.85935 0.0
H803 H 0.10012 0.31516 0.92793 0.0
H804 H 0.09227 0.32577 0.98218 0.0
H805 H 0.13372 0.32973 0.96896 0.0
C806 C 0.69527 0.16353 0.84778 0.0
C807 C 0.69703 0.19045 0.87195 0.0
C808 C 0.67239 0.13558 0.85608 0.0
C809 C 0.65072 0.13474 0.88899 0.0
C810 C 0.65463 0.16117 0.9163 0.0
C811 C 0.678 0.18873 0.90766 0.0
C812 C 0.66965 0.10762 0.82725 0.0
C813 C 0.63213 0.16109 0.95206 0.0
C814 C 0.56235 0.08455 0.87411 0.0
C815 C 0.56196 0.06355 0.90681 0.0
C816 C 0.59167 0.10679 0.8661 0.0
C817 C 0.62127 0.10784 0.89119 0.0
C818 C 0.62156 0.08508 0.92143 0.0
C819 C 0.59187 0.06316 0.92888 0.0
C820 C 0.59046 0.1306 0.83322 0.0
C821 C 0.65267 0.08514 0.94835 0.0
H822 H 0.71033 0.16462 0.82053 0.0
H823 H 0.67944 0.20937 0.92673 0.0
H824 H 0.66582 0.08706 0.84705 0.0
H825 H 0.64808 0.1034 0.80271 0.0
H826 H 0.69189 0.11049 0.80927 0.0
H827 H 0.6401 0.18286 0.97236 0.0
H828 H 0.60676 0.1577 0.93706 0.0
H829 H 0.63118 0.14192 0.97387 0.0
H830 H 0.53946 0.08493 0.85669 0.0
H831 H 0.59197 0.04683 0.95394 0.0
H832 H 0.60951 0.13259 0.80987 0.0
H833 H 0.59577 0.15325 0.85073 0.0
H834 H 0.56609 0.12523 0.81413 0.0
H835 H 0.67404 0.09118 0.92828 0.0
H836 H 0.65039 0.06258 0.96247 0.0
H837 H 0.65787 0.10255 0.97595 0.0
C838 C 0.82752 0.68327 0.89254 0.0
C839 C 0.83641 0.69882 0.85419 0.0
C840 C 0.84428 0.66341 0.90928 0.0
C841 C 0.87046 0.65906 0.88712 0.0
C842 C 0.88097 0.67629 0.8502 0.0
C843 C 0.8639 0.69606 0.8343 0.0
C844 C 0.83239 0.64556 0.94881 0.0
C845 C 0.90885 0.67232 0.82569 0.0
C846 C 0.92952 0.61928 0.93671 0.0
C847 C 0.91644 0.58975 0.91688 0.0
C848 C 0.91384 0.64167 0.92927 0.0
C849 C 0.88513 0.63472 0.89991 0.0
C850 C 0.87142 0.60482 0.88043 0.0
C851 C 0.88707 0.5826 0.8895 0.0
C852 C 0.92863 0.67299 0.95178 0.0
C853 C 0.8408 0.59656 0.84884 0.0
H854 H 0.80636 0.68527 0.90823 0.0
H855 H 0.87111 0.70815 0.80482 0.0
H856 H 0.816 0.62247 0.93759 0.0
H857 H 0.85322 0.64255 0.97013 0.0
H858 H 0.81824 0.65686 0.9686 0.0
H859 H 0.91548 0.68896 0.79952 0.0
H860 H 0.93096 0.67507 0.84876 0.0
H861 H 0.90169 0.64886 0.81024 0.0
H862 H 0.95227 0.62514 0.95777 0.0
H863 H 0.87675 0.55984 0.8741 0.0
H864 H 0.90922 0.68163 0.96409 0.0
H865 H 0.94133 0.68925 0.92778 0.0
H866 H 0.94675 0.67289 0.9798 0.0
H867 H 0.82042 0.60158 0.86467 0.0
H868 H 0.83272 0.57204 0.83756 0.0
H869 H 0.84543 0.61068 0.81962 0.0
C870 C 0.16992 0.32644 0.1453 0.0
C871 C 0.17626 0.33338 0.19059 0.0
C872 C 0.15293 0.3424 0.11876 0.0
C873 C 0.14143 0.36502 0.13848 0.0
C874 C 0.14614 0.37057 0.1847 0.0
C875 C 0.16395 0.355 0.21007 0.0
C876 C 0.14864 0.33613 0.0696 0.0
C877 C 0.1337 0.39399 0.20724 0.0
C878 C 0.13317 0.43518 0.08228 0.0
C879 C 0.09899 0.42808 0.07456 0.0
C880 C 0.14746 0.4138 0.09995 0.0
C881 C 0.12699 0.38492 0.11114 0.0
C882 C 0.09254 0.37702 0.10112 0.0
C883 C 0.07896 0.39864 0.08247 0.0
C884 C 0.18439 0.42276 0.10885 0.0
C885 C 0.06984 0.34665 0.11292 0.0
H886 H 0.17983 0.30986 0.13041 0.0
H887 H 0.16891 0.36021 0.24524 0.0
H888 H 0.12214 0.32903 0.05802 0.0
H889 H 0.16066 0.35733 0.05293 0.0
H890 H 0.15916 0.31797 0.05935 0.0
H891 H 0.13684 0.39354 0.24364 0.0
H892 H 0.14726 0.41723 0.19748 0.0
H893 H 0.10726 0.38992 0.1969 0.0
H894 H 0.14877 0.45772 0.07535 0.0
H895 H 0.05249 0.393 0.07627 0.0
H896 H 0.19375 0.40434 0.09655 0.0
H897 H 0.19116 0.42601 0.14484 0.0
H898 H 0.19693 0.44431 0.09324 0.0
H899 H 0.07913 0.32765 0.10295 0.0
H900 H 0.04445 0.34227 0.09729 0.0
H901 H 0.06885 0.34643 0.14913 0.0
C902 C 0.17926 0.62574 0.76958 0.0
C903 C 0.19261 0.65523 0.78939 0.0
C904 C 0.15019 0.60571 0.78262 0.0
C905 C 0.13426 0.61547 0.81628 0.0
C906 C 0.14702 0.64554 0.83546 0.0
C907 C 0.1761 0.66518 0.8216 0.0
C908 C 0.13725 0.57376 0.76157 0.0
C909 C 0.13065 0.65655 0.87173 0.0
C910 C 0.04668 0.57228 0.83695 0.0
C911 C 0.05182 0.55585 0.87356 0.0
C912 C 0.07336 0.5911 0.81682 0.0
C913 C 0.10573 0.5935 0.83393 0.0
C914 C 0.11104 0.57583 0.86939 0.0
C915 C 0.08401 0.55709 0.88862 0.0
C916 C 0.06693 0.60947 0.77869 0.0
C917 C 0.14529 0.5778 0.88845 0.0
H918 H 0.19171 0.61809 0.74414 0.0
H919 H 0.18633 0.68801 0.8368 0.0
H920 H 0.1401 0.55698 0.78593 0.0
H921 H 0.11063 0.56808 0.75108 0.0
H922 H 0.15043 0.5709 0.7326 0.0
H923 H 0.14266 0.68111 0.8814 0.0
H924 H 0.10436 0.65313 0.86118 0.0
H925 H 0.13151 0.64295 0.90113 0.0
H926 H 0.0219 0.57144 0.82506 0.0
H927 H 0.08828 0.54432 0.91667 0.0
H928 H 0.08228 0.60768 0.75172 0.0
H929 H 0.07379 0.63397 0.78959 0.0
H930 H 0.04068 0.60191 0.76554 0.0
H931 H 0.16007 0.57343 0.86222 0.0
H932 H 0.14511 0.56123 0.91445 0.0
H933 H 0.15788 0.6012 0.90288 0.0
C934 C 0.31817 0.15854 0.81884 0.0
C935 C 0.32595 0.18891 0.8353 0.0
C936 C 0.33387 0.13837 0.83767 0.0
C937 C 0.3576 0.14866 0.87418 0.0
C938 C 0.36379 0.17861 0.89278 0.0
C939 C 0.34813 0.19842 0.87294 0.0
C940 C 0.3265 0.10662 0.81682 0.0
C941 C 0.38827 0.1903 0.93227 0.0
C942 C 0.38651 0.08864 0.93546 0.0
C943 C 0.41609 0.09101 0.9171 0.0
C944 C 0.36773 0.108 0.92314 0.0
C945 C 0.37812 0.12922 0.89019 0.0
C946 C 0.40814 0.13162 0.8717 0.0
C947 C 0.42694 0.11269 0.88578 0.0
C948 C 0.33656 0.10531 0.94482 0.0
C949 C 0.42009 0.15372 0.83631 0.0
H950 H 0.30123 0.151 0.78964 0.0
H951 H 0.35417 0.22179 0.88608 0.0
H952 H 0.34854 0.10456 0.80172 0.0
H953 H 0.32069 0.0893 0.84215 0.0
H954 H 0.30559 0.10123 0.79098 0.0
H955 H 0.38618 0.21181 0.9473 0.0
H956 H 0.38476 0.17288 0.95751 0.0
H957 H 0.41357 0.19475 0.9222 0.0
H958 H 0.37801 0.07156 0.95937 0.0
H959 H 0.44971 0.11419 0.87137 0.0
H960 H 0.315 0.09401 0.92125 0.0
H961 H 0.33498 0.12827 0.95421 0.0
H962 H 0.33495 0.09172 0.97468 0.0
H963 H 0.40169 0.14832 0.80729 0.0
H964 H 0.44403 0.15293 0.82558 0.0
H965 H 0.42284 0.1774 0.84842 0.0
C966 C 0.85138 0.29844 0.8287 0.0
C967 C 0.81907 0.29966 0.82804 0.0
C968 C 0.87762 0.32195 0.85005 0.0
C969 C 0.87116 0.34675 0.87207 0.0
C970 C 0.83842 0.34756 0.87246 0.0
C971 C 0.81282 0.32419 0.84996 0.0
C972 C 0.91229 0.32066 0.8481 0.0
C973 C 0.83045 0.37329 0.89621 0.0
C974 C 0.93635 0.39412 0.95849 0.0
C975 C 0.95087 0.4203 0.93577 0.0
C976 C 0.91006 0.37018 0.93837 0.0
C977 C 0.89865 0.37215 0.89411 0.0
C978 C 0.91328 0.39856 0.87102 0.0
C979 C 0.93897 0.42252 0.89235 0.0
C980 C 0.89452 0.34278 0.96445 0.0
C981 C 0.90236 0.40116 0.82346 0.0
H982 H 0.85625 0.27968 0.81123 0.0
H983 H 0.78777 0.32507 0.84955 0.0
H984 H 0.92701 0.34093 0.83165 0.0
H985 H 0.92423 0.32142 0.88183 0.0
H986 H 0.91311 0.29969 0.82998 0.0
H987 H 0.84064 0.37555 0.9311 0.0
H988 H 0.84211 0.39525 0.88112 0.0
H989 H 0.80356 0.3697 0.8952 0.0
H990 H 0.94541 0.39248 0.99221 0.0
H991 H 0.95042 0.44262 0.87461 0.0
H992 H 0.89751 0.32186 0.94881 0.0
H993 H 0.86773 0.33929 0.96454 0.0
H994 H 0.90548 0.34533 0.99904 0.0
H995 H 0.9068 0.38272 0.80313 0.0
H996 H 0.9156 0.42356 0.81056 0.0
H997 H 0.87558 0.3981 0.81946 0.0
C998 C 0.67248 0.81904 0.90412 0.0
C999 C 0.69206 0.82802 0.86906 0.0
C1000 C 0.65729 0.83875 0.92323 0.0
C1001 C 0.66134 0.86807 0.90655 0.0
C1002 C 0.68257 0.87793 0.87283 0.0
C1003 C 0.69784 0.85785 0.85464 0.0
C1004 C 0.63554 0.82759 0.95985 0.0
C1005 C 0.68754 0.90896 0.85405 0.0
C1006 C 0.58759 0.89697 0.9141 0.0
C1007 C 0.59789 0.91846 0.94968 0.0
C1008 C 0.60847 0.88132 0.89897 0.0
C1009 C 0.64026 0.88661 0.92071 0.0
C1010 C 0.65087 0.90835 0.95676 0.0
C1011 C 0.6297 0.92442 0.97039 0.0
C1012 C 0.59618 0.85863 0.86016 0.0
C1013 C 0.68434 0.91439 0.98125 0.0
H1014 H 0.66812 0.79615 0.9158 0.0
H1015 H 0.71288 0.865 0.82752 0.0
H1016 H 0.64191 0.84501 0.98751 0.0
H1017 H 0.60949 0.82411 0.94785 0.0
H1018 H 0.63775 0.80572 0.97239 0.0
H1019 H 0.70734 0.91448 0.83131 0.0
H1020 H 0.66434 0.90954 0.83573 0.0
H1021 H 0.69371 0.92702 0.88085 0.0
H1022 H 0.56303 0.89239 0.89794 0.0
H1023 H 0.63758 0.9408 0.99823 0.0
H1024 H 0.59451 0.83527 0.87067 0.0
H1025 H 0.61373 0.86406 0.83442 0.0
H1026 H 0.5716 0.85847 0.84538 0.0
H1027 H 0.68919 0.89259 0.98902 0.0
H1028 H 0.68688 0.92826 0.01236 0.0
H1029 H 0.7035 0.9269 0.96018 0.0
C1030 C 0.81749 0.63969 0.16121 0.0
C1031 C 0.81412 0.66792 0.14894 0.0
C1032 C 0.83814 0.62639 0.14017 0.0
C1033 C 0.8551 0.64111 0.10485 0.0
C1034 C 0.85127 0.66938 0.09162 0.0
C1035 C 0.83108 0.68258 0.11417 0.0
C1036 C 0.84292 0.59723 0.15714 0.0
C1037 C 0.86902 0.68668 0.05483 0.0
C1038 C 0.93265 0.62255 0.07948 0.0
C1039 C 0.92025 0.598 0.04845 0.0
C1040 C 0.91176 0.63699 0.09771 0.0
C1041 C 0.87778 0.62729 0.08349 0.0
C1042 C 0.86539 0.60333 0.05068 0.0
C1043 C 0.88669 0.58857 0.03415 0.0
C1044 C 0.92595 0.66225 0.1328 0.0
C1045 C 0.8296 0.59275 0.03336 0.0
H1046 H 0.80497 0.62846 0.18862 0.0
H1047 H 0.82878 0.7045 0.1047 0.0
H1048 H 0.83418 0.57861 0.1312 0.0
H1049 H 0.86947 0.60058 0.16575 0.0
H1050 H 0.82952 0.58973 0.18665 0.0
H1051 H 0.88804 0.70769 0.06895 0.0
H1052 H 0.88113 0.67328 0.03533 0.0
H1053 H 0.85157 0.69417 0.03242 0.0
H1054 H 0.95865 0.62999 0.0904 0.0
H1055 H 0.87715 0.56997 0.00949 0.0
H1056 H 0.91237 0.65692 0.16262 0.0
H1057 H 0.92309 0.68399 0.12078 0.0
H1058 H 0.95246 0.66576 0.14218 0.0
H1059 H 0.81558 0.57531 0.05493 0.0
H1060 H 0.82627 0.58207 0.99962 0.0
H1061 H 0.81884 0.61191 0.03283 0.0
C1062 C 0.3671 0.81529 0.13711 0.0
C1063 C 0.33959 0.81179 0.16076 0.0
C1064 C 0.38397 0.84372 0.1218 0.0
C1065 C 0.37336 0.86939 0.13112 0.0
C1066 C 0.34431 0.86561 0.1525 0.0
C1067 C 0.32756 0.83666 0.16691 0.0
C1068 C 0.4145 0.84662 0.09832 0.0
C1069 C 0.33224 0.89242 0.1629 0.0
C1070 C 0.44748 0.93945 0.1419 0.0
C1071 C 0.44694 0.94992 0.09924 0.0
C1072 C 0.42166 0.91493 0.15423 0.0
C1073 C 0.39508 0.9003 0.12281 0.0
C1074 C 0.39294 0.91259 0.08103 0.0
C1075 C 0.41879 0.93758 0.06991 0.0
C1076 C 0.42451 0.90282 0.19945 0.0
C1077 C 0.36514 0.89749 0.04657 0.0
H1078 H 0.37615 0.79594 0.13185 0.0
H1079 H 0.30627 0.83396 0.18529 0.0
H1080 H 0.41473 0.86037 0.06889 0.0
H1081 H 0.43659 0.85864 0.12063 0.0
H1082 H 0.41651 0.82397 0.08787 0.0
H1083 H 0.30648 0.8849 0.17196 0.0
H1084 H 0.34809 0.90645 0.19096 0.0
H1085 H 0.33379 0.90731 0.13454 0.0
H1086 H 0.46902 0.94915 0.16478 0.0
H1087 H 0.41816 0.94559 0.03682 0.0
H1088 H 0.43094 0.88121 0.19675 0.0
H1089 H 0.40073 0.8976 0.21433 0.0
H1090 H 0.44377 0.91929 0.22191 0.0
H1091 H 0.36753 0.87524 0.035 0.0
H1092 H 0.3651 0.91175 0.01766 0.0
H1093 H 0.3411 0.89267 0.06068 0.0
C1094 C 0.711 0.1831 0.13492 0.0
C1095 C 0.70722 0.19792 0.17385 0.0
C1096 C 0.68403 0.16105 0.11197 0.0
C1097 C 0.65254 0.15408 0.12811 0.0
C1098 C 0.64871 0.16925 0.1673 0.0
C1099 C 0.67601 0.19122 0.18931 0.0
C1100 C 0.68896 0.14601 0.06969 0.0
C1101 C 0.61555 0.16293 0.1853 0.0
C1102 C 0.57461 0.12141 0.05118 0.0
C1103 C 0.56499 0.09039 0.061 0.0
C1104 C 0.60346 0.1422 0.07192 0.0
C1105 C 0.62326 0.13182 0.10335 0.0
C1106 C 0.61409 0.10045 0.11272 0.0
C1107 C 0.58518 0.08013 0.0914 0.0
C1108 C 0.61212 0.17549 0.0612 0.0
C1109 C 0.6344 0.08848 0.14616 0.0
H1110 H 0.73494 0.1891 0.12213 0.0
H1111 H 0.67274 0.20401 0.21795 0.0
H1112 H 0.67894 0.12076 0.07058 0.0
H1113 H 0.6753 0.15317 0.04175 0.0
H1114 H 0.7153 0.15213 0.06332 0.0
H1115 H 0.61692 0.17585 0.21695 0.0
H1116 H 0.59822 0.16929 0.16132 0.0
H1117 H 0.60506 0.13813 0.19031 0.0
H1118 H 0.55936 0.12961 0.02762 0.0
H1119 H 0.57813 0.05622 0.09917 0.0
H1120 H 0.63843 0.18452 0.05506 0.0
H1121 H 0.60826 0.18906 0.08964 0.0
H1122 H 0.59686 0.17917 0.03202 0.0
H1123 H 0.66022 0.09447 0.13759 0.0
H1124 H 0.6247 0.06328 0.14849 0.0
H1125 H 0.63474 0.09947 0.17898 0.0
C1126 C 0.69666 0.65781 0.82206 0.0
C1127 C 0.69292 0.68717 0.81882 0.0
C1128 C 0.67422 0.63416 0.84315 0.0
C1129 C 0.64701 0.63956 0.86193 0.0
C1130 C 0.64341 0.66926 0.85941 0.0
C1131 C 0.66612 0.69244 0.83801 0.0
C1132 C 0.67935 0.6031 0.84464 0.0
C1133 C 0.61507 0.6765 0.87875 0.0
C1134 C 0.56791 0.57334 0.87264 0.0
C1135 C 0.56938 0.56763 0.91777 0.0
C1136 C 0.59318 0.59583 0.85423 0.0
C1137 C 0.62109 0.6138 0.8813 0.0
C1138 C 0.62327 0.60767 0.92677 0.0
C1139 C 0.59761 0.58468 0.94435 0.0
C1140 C 0.58943 0.60096 0.80569 0.0
C1141 C 0.65222 0.62613 0.95727 0.0
H1142 H 0.71715 0.65314 0.80779 0.0
H1143 H 0.66258 0.71475 0.83598 0.0
H1144 H 0.68005 0.59593 0.87906 0.0
H1145 H 0.65839 0.5859 0.8258 0.0
H1146 H 0.70246 0.6028 0.83071 0.0
H1147 H 0.61666 0.70102 0.87666 0.0
H1148 H 0.59153 0.66246 0.86108 0.0
H1149 H 0.61439 0.67056 0.91375 0.0
H1150 H 0.5464 0.56051 0.8515 0.0
H1151 H 0.59906 0.581 0.97929 0.0
H1152 H 0.61137 0.59935 0.78991 0.0
H1153 H 0.58769 0.62432 0.80091 0.0
H1154 H 0.56722 0.58418 0.78857 0.0
H1155 H 0.67553 0.62535 0.94449 0.0
H1156 H 0.65129 0.61777 0.99116 0.0
H1157 H 0.65275 0.65044 0.95877 0.0
C1158 C 0.32012 0.66002 0.87462 0.0
C1159 C 0.32973 0.6781 0.83874 0.0
C1160 C 0.33945 0.64275 0.89266 0.0
C1161 C 0.36953 0.64437 0.87517 0.0
C1162 C 0.37981 0.66332 0.83973 0.0
C1163 C 0.3595 0.67966 0.82146 0.0
C1164 C 0.32686 0.62168 0.92892 0.0
C1165 C 0.41194 0.66584 0.8206 0.0
C1166 C 0.43125 0.61452 0.94162 0.0
C1167 C 0.4249 0.58531 0.92151 0.0
C1168 C 0.41327 0.63405 0.92717 0.0
C1169 C 0.3888 0.62422 0.89143 0.0
C1170 C 0.38227 0.59476 0.87117 0.0
C1171 C 0.4003 0.57569 0.88651 0.0
C1172 C 0.42023 0.66505 0.95029 0.0
C1173 C 0.35621 0.58332 0.83318 0.0
H1174 H 0.29691 0.65859 0.88773 0.0
H1175 H 0.36703 0.69389 0.79397 0.0
H1176 H 0.31866 0.59765 0.91556 0.0
H1177 H 0.34665 0.6236 0.95547 0.0
H1178 H 0.30572 0.62645 0.94318 0.0
H1179 H 0.41745 0.6832 0.79522 0.0
H1180 H 0.43241 0.67201 0.84705 0.0
H1181 H 0.41107 0.64339 0.80543 0.0
H1182 H 0.45017 0.6221 0.96869 0.0
H1183 H 0.39516 0.55318 0.87065 0.0
H1184 H 0.39797 0.66644 0.96549 0.0
H1185 H 0.42621 0.68324 0.92621 0.0
H1186 H 0.44088 0.66972 0.97643 0.0
H1187 H 0.33198 0.58375 0.84315 0.0
H1188 H 0.35397 0.55965 0.82139 0.0
H1189 H 0.36207 0.59858 0.80534 0.0
C1190 C 0.32511 0.33889 0.82617 0.0
C1191 C 0.33255 0.32236 0.79145 0.0
C1192 C 0.34993 0.36075 0.8521 0.0
C1193 C 0.38302 0.36609 0.84309 0.0
C1194 C 0.3907 0.35031 0.80714 0.0
C1195 C 0.36531 0.32847 0.78176 0.0
C1196 C 0.34084 0.37702 0.89041 0.0
C1197 C 0.4258 0.35567 0.79655 0.0
C1198 C 0.44536 0.43761 0.89592 0.0
C1199 C 0.45846 0.42592 0.93258 0.0
C1200 C 0.42111 0.4183 0.86599 0.0
C1201 C 0.40962 0.38668 0.8732 0.0
C1202 C 0.42272 0.37473 0.91009 0.0
C1203 C 0.4471 0.39452 0.93932 0.0
C1204 C 0.40763 0.43172 0.82689 0.0
C1205 C 0.41073 0.34109 0.91897 0.0
H1206 H 0.30002 0.33371 0.83462 0.0
H1207 H 0.37116 0.3157 0.75495 0.0
H1208 H 0.35071 0.37001 0.92174 0.0
H1209 H 0.352 0.40213 0.88916 0.0
H1210 H 0.3138 0.37187 0.89092 0.0
H1211 H 0.42738 0.34338 0.76544 0.0
H1212 H 0.43821 0.38047 0.79378 0.0
H1213 H 0.43957 0.34778 0.82363 0.0
H1214 H 0.45414 0.46188 0.89046 0.0
H1215 H 0.45708 0.38538 0.96765 0.0
H1216 H 0.38089 0.42783 0.82842 0.0
H1217 H 0.41071 0.42012 0.79599 0.0
H1218 H 0.41994 0.45668 0.82537 0.0
H1219 H 0.38405 0.33415 0.92345 0.0
H1220 H 0.42391 0.33543 0.94875 0.0
H1221 H 0.41401 0.32727 0.89041 0.0
C1222 C 0.67333 0.3197 0.87072 0.0
C1223 C 0.68612 0.33015 0.83102 0.0
C1224 C 0.65836 0.33691 0.89586 0.0
C1225 C 0.65546 0.36498 0.88056 0.0
C1226 C 0.66865 0.37577 0.84074 0.0
C1227 C 0.68409 0.3584 0.81673 0.0
C1228 C 0.6452 0.32485 0.93853 0.0
C1229 C 0.66545 0.40517 0.82268 0.0
C1230 C 0.58312 0.38871 0.91531 0.0
C1231 C 0.59805 0.41264 0.9468 0.0
C1232 C 0.60157 0.37331 0.89359 0.0
C1233 C 0.63597 0.38153 0.90397 0.0
C1234 C 0.65133 0.40551 0.93604 0.0
C1235 C 0.63219 0.421 0.95684 0.0
C1236 C 0.58417 0.34839 0.85905 0.0
C1237 C 0.68796 0.41509 0.94798 0.0
H1238 H 0.67518 0.29809 0.88233 0.0
H1239 H 0.69392 0.36667 0.78612 0.0
H1240 H 0.65488 0.3427 0.9654 0.0
H1241 H 0.61802 0.31912 0.9357 0.0
H1242 H 0.65188 0.3041 0.94781 0.0
H1243 H 0.67793 0.41093 0.79204 0.0
H1244 H 0.63906 0.40317 0.81556 0.0
H1245 H 0.67607 0.42437 0.84742 0.0
H1246 H 0.55677 0.3822 0.90699 0.0
H1247 H 0.64388 0.43935 0.98126 0.0
H1248 H 0.58761 0.32635 0.86865 0.0
H1249 H 0.59492 0.3539 0.8272 0.0
H1250 H 0.55737 0.34529 0.85405 0.0
H1251 H 0.69674 0.39481 0.95162 0.0
H1252 H 0.69513 0.42959 0.97894 0.0
H1253 H 0.70075 0.42841 0.92125 0.0
C1254 C 0.70527 0.34498 0.10338 0.0
C1255 C 0.70156 0.32961 0.1427 0.0
C1256 C 0.68375 0.36122 0.08923 0.0
C1257 C 0.65774 0.36174 0.11478 0.0
C1258 C 0.65303 0.34516 0.15352 0.0
C1259 C 0.67523 0.32949 0.16726 0.0
C1260 C 0.6902 0.37923 0.04839 0.0
C1261 C 0.62521 0.34485 0.18121 0.0
C1262 C 0.62748 0.43092 0.11371 0.0
C1263 C 0.59784 0.42019 0.08691 0.0
C1264 C 0.64745 0.41225 0.12221 0.0
C1265 C 0.63749 0.38204 0.10363 0.0
C1266 C 0.60811 0.37126 0.0755 0.0
C1267 C 0.58855 0.39051 0.06745 0.0
C1268 C 0.67906 0.4248 0.15152 0.0
C1269 C 0.59727 0.33936 0.05435 0.0
H1270 H 0.72567 0.34521 0.08433 0.0
H1271 H 0.67207 0.3173 0.1974 0.0
H1272 H 0.66697 0.3791 0.02956 0.0
H1273 H 0.70412 0.40338 0.0581 0.0
H1274 H 0.70503 0.37018 0.02651 0.0
H1275 H 0.6232 0.32866 0.2081 0.0
H1276 H 0.62914 0.3681 0.19603 0.0
H1277 H 0.60152 0.33843 0.1604 0.0
H1278 H 0.6351 0.45396 0.12841 0.0
H1279 H 0.56583 0.38218 0.04638 0.0
H1280 H 0.70014 0.42278 0.13405 0.0
H1281 H 0.67808 0.41126 0.1813 0.0
H1282 H 0.68381 0.44918 0.16208 0.0
H1283 H 0.61677 0.33598 0.03475 0.0
H1284 H 0.57418 0.33472 0.03247 0.0
H1285 H 0.59338 0.32231 0.08017 0.0
C1286 C 0.70141 0.6764 0.17822 0.0
C1287 C 0.69311 0.68913 0.21617 0.0
C1288 C 0.6785 0.65177 0.15402 0.0
C1289 C 0.64653 0.63992 0.16796 0.0
C1290 C 0.63903 0.65087 0.20829 0.0
C1291 C 0.66253 0.67524 0.23209 0.0
C1292 C 0.68769 0.64024 0.11168 0.0
C1293 C 0.60524 0.63871 0.2244 0.0
C1294 C 0.57422 0.61279 0.08178 0.0
C1295 C 0.56515 0.58101 0.08522 0.0
C1296 C 0.60123 0.63211 0.1078 0.0
C1297 C 0.6197 0.61932 0.13786 0.0
C1298 C 0.61137 0.58722 0.14052 0.0
C1299 C 0.5841 0.56842 0.11424 0.0
C1300 C 0.60949 0.6663 0.10389 0.0
C1301 C 0.63078 0.5728 0.17177 0.0
H1302 H 0.72495 0.68698 0.1656 0.0
H1303 H 0.65607 0.68471 0.26168 0.0
H1304 H 0.67819 0.61492 0.10809 0.0
H1305 H 0.67642 0.64943 0.08342 0.0
H1306 H 0.71475 0.64752 0.10986 0.0
H1307 H 0.60459 0.64695 0.25871 0.0
H1308 H 0.58739 0.64628 0.20284 0.0
H1309 H 0.59692 0.61335 0.22275 0.0
H1310 H 0.55986 0.62268 0.05927 0.0
H1311 H 0.57746 0.54383 0.11684 0.0
H1312 H 0.63535 0.67605 0.09604 0.0
H1313 H 0.6071 0.67719 0.13576 0.0
H1314 H 0.59323 0.6725 0.07804 0.0
H1315 H 0.6574 0.5818 0.16726 0.0
H1316 H 0.62288 0.54747 0.1671 0.0
H1317 H 0.62766 0.57885 0.20619 0.0
C1318 C 0.33962 0.66712 0.17761 0.0
C1319 C 0.31877 0.6791 0.15095 0.0
C1320 C 0.35662 0.6486 0.15935 0.0
C1321 C 0.35277 0.64194 0.11334 0.0
C1322 C 0.33101 0.65323 0.08652 0.0
C1323 C 0.31427 0.67159 0.1056 0.0
C1324 C 0.37957 0.63699 0.18915 0.0
C1325 C 0.32628 0.64685 0.03741 0.0
C1326 C 0.42526 0.62647 0.06402 0.0
C1327 C 0.41508 0.59443 0.05888 0.0
C1328 C 0.40488 0.64212 0.08058 0.0
C1329 C 0.37354 0.62537 0.09295 0.0
C1330 C 0.36265 0.59304 0.0867 0.0
C1331 C 0.3835 0.57793 0.06942 0.0
C1332 C 0.41725 0.67661 0.08567 0.0
C1333 C 0.32935 0.5744 0.0993 0.0
H1334 H 0.34316 0.67267 0.21269 0.0
H1335 H 0.2981 0.68058 0.08467 0.0
H1336 H 0.37383 0.61188 0.18377 0.0
H1337 H 0.40528 0.6476 0.18118 0.0
H1338 H 0.37802 0.64226 0.22446 0.0
H1339 H 0.30637 0.65496 0.02164 0.0
H1340 H 0.34947 0.65846 0.02273 0.0
H1341 H 0.32035 0.62197 0.02959 0.0
H1342 H 0.44945 0.63946 0.05533 0.0
H1343 H 0.37548 0.55318 0.0655 0.0
H1344 H 0.41904 0.68398 0.12088 0.0
H1345 H 0.39967 0.68654 0.06774 0.0
H1346 H 0.44176 0.68625 0.0731 0.0
H1347 H 0.32818 0.57746 0.13522 0.0
H1348 H 0.32395 0.54962 0.09075 0.0
H1349 H 0.30983 0.58252 0.08256 0.0
C1350 C 0.34691 0.31649 0.18374 0.0
C1351 C 0.32134 0.32319 0.20425 0.0
C1352 C 0.37064 0.33909 0.16279 0.0
C1353 C 0.36938 0.36965 0.16206 0.0
C1354 C 0.34352 0.37655 0.18237 0.0
C1355 C 0.31998 0.35345 0.20293 0.0
C1356 C 0.39738 0.33021 0.14169 0.0
C1357 C 0.34091 0.40859 0.18289 0.0
C1358 C 0.45133 0.43223 0.15036 0.0
C1359 C 0.44944 0.43888 0.10558 0.0
C1360 C 0.42535 0.41067 0.16903 0.0
C1361 C 0.39624 0.39456 0.14258 0.0
C1362 C 0.39372 0.40165 0.09751 0.0
C1363 C 0.4201 0.42372 0.07968 0.0
C1364 C 0.42954 0.40452 0.21714 0.0
C1365 C 0.36353 0.38514 0.06763 0.0
H1366 H 0.34845 0.29337 0.18392 0.0
H1367 H 0.30047 0.35922 0.21821 0.0
H1368 H 0.39764 0.33644 0.1068 0.0
H1369 H 0.42171 0.34302 0.15858 0.0
H1370 H 0.39423 0.30533 0.14302 0.0
H1371 H 0.31885 0.41023 0.19841 0.0
H1372 H 0.36312 0.42452 0.20121 0.0
H1373 H 0.33987 0.4164 0.14884 0.0
H1374 H 0.47366 0.44361 0.171 0.0
H1375 H 0.41827 0.42812 0.045 0.0
H1376 H 0.42962 0.38055 0.22066 0.0
H1377 H 0.40858 0.40729 0.23418 0.0
H1378 H 0.45275 0.42001 0.23395 0.0
H1379 H 0.36116 0.36041 0.06487 0.0
H1380 H 0.36439 0.39411 0.03411 0.0
H1381 H 0.34115 0.38721 0.08175 0.0
C1382 C 0.84378 0.68866 0.6206 0.0
C1383 C 0.82128 0.67973 0.65248 0.0
C1384 C 0.85847 0.66809 0.60277 0.0
C1385 C 0.85104 0.63803 0.61788 0.0
C1386 C 0.82699 0.62838 0.64828 0.0
C1387 C 0.81217 0.64928 0.66494 0.0
C1388 C 0.88358 0.67926 0.56997 0.0
C1389 C 0.81854 0.59662 0.66547 0.0
C1390 C 0.88101 0.57909 0.55786 0.0
C1391 C 0.91111 0.58214 0.58212 0.0
C1392 C 0.86104 0.59701 0.56901 0.0
C1393 C 0.87113 0.61806 0.60583 0.0
C1394 C 0.90111 0.6207 0.63101 0.0
C1395 C 0.92081 0.60297 0.61864 0.0
C1396 C 0.82964 0.59396 0.54074 0.0
C1397 C 0.9125 0.64236 0.67109 0.0
H1398 H 0.85081 0.71211 0.61065 0.0
H1399 H 0.79496 0.64226 0.68976 0.0
H1400 H 0.90864 0.68433 0.5869 0.0
H1401 H 0.88093 0.66147 0.54355 0.0
H1402 H 0.8815 0.70042 0.55479 0.0
H1403 H 0.79708 0.59164 0.68544 0.0
H1404 H 0.81309 0.5792 0.63788 0.0
H1405 H 0.83996 0.59424 0.6863 0.0
H1406 H 0.87313 0.56288 0.52991 0.0
H1407 H 0.94384 0.60536 0.63795 0.0
H1408 H 0.80902 0.5925 0.5613 0.0
H1409 H 0.82273 0.57351 0.51772 0.0
H1410 H 0.83292 0.61458 0.52122 0.0
H1411 H 0.91659 0.66627 0.66134 0.0
H1412 H 0.93568 0.64069 0.68828 0.0
H1413 H 0.89328 0.63747 0.69462 0.0
C1414 C 0.34772 0.81683 0.66818 0.0
C1415 C 0.33592 0.82979 0.70286 0.0
C1416 C 0.37684 0.8333 0.65054 0.0
C1417 C 0.39375 0.86328 0.66771 0.0
C1418 C 0.38464 0.8742 0.70694 0.0
C1419 C 0.3556 0.85736 0.7239 0.0
C1420 C 0.38723 0.82011 0.61049 0.0
C1421 C 0.4029 0.90554 0.72751 0.0
C1422 C 0.46278 0.92503 0.62329 0.0
C1423 C 0.44421 0.94088 0.59987 0.0
C1424 C 0.44697 0.8976 0.64283 0.0
C1425 C 0.41214 0.88627 0.63839 0.0
C1426 C 0.39381 0.90079 0.61094 0.0
C1427 C 0.4101 0.92789 0.59228 0.0
C1428 C 0.46754 0.88196 0.66986 0.0
C1429 C 0.35665 0.88911 0.60369 0.0
H1430 H 0.33318 0.79491 0.65284 0.0
H1431 H 0.34732 0.8668 0.75206 0.0
H1432 H 0.37515 0.82657 0.58042 0.0
H1433 H 0.41425 0.82902 0.60885 0.0
H1434 H 0.37969 0.79473 0.61042 0.0
H1435 H 0.39558 0.90877 0.76092 0.0
H1436 H 0.42979 0.9093 0.72981 0.0
H1437 H 0.39763 0.92326 0.7066 0.0
H1438 H 0.48932 0.93463 0.62797 0.0
H1439 H 0.39585 0.93941 0.57231 0.0
H1440 H 0.4544 0.85737 0.67319 0.0
H1441 H 0.474 0.89333 0.70321 0.0
H1442 H 0.49093 0.88407 0.65492 0.0
H1443 H 0.34851 0.86505 0.59058 0.0
H1444 H 0.34652 0.90279 0.58021 0.0
H1445 H 0.34575 0.8898 0.63536 0.0
C1446 C 0.1791 0.32316 0.6346 0.0
C1447 C 0.16463 0.31012 0.67207 0.0
C1448 C 0.16517 0.34188 0.6087 0.0
C1449 C 0.13667 0.34833 0.62129 0.0
C1450 C 0.12183 0.33489 0.65881 0.0
C1451 C 0.13575 0.31574 0.68335 0.0
C1452 C 0.18103 0.35495 0.56808 0.0
C1453 C 0.09191 0.34164 0.67409 0.0
C1454 C 0.12149 0.42302 0.59089 0.0
C1455 C 0.09478 0.41316 0.55882 0.0
C1456 C 0.13576 0.40224 0.61066 0.0
C1457 C 0.12354 0.3708 0.59742 0.0
C1458 C 0.09738 0.36083 0.56377 0.0
C1459 C 0.08304 0.38209 0.54523 0.0
C1460 C 0.16325 0.41386 0.64681 0.0
C1461 C 0.08395 0.32763 0.54815 0.0
H1462 H 0.20127 0.31871 0.62553 0.0
H1463 H 0.12454 0.306 0.71247 0.0
H1464 H 0.18876 0.38031 0.5709 0.0
H1465 H 0.20283 0.3475 0.56239 0.0
H1466 H 0.16293 0.34767 0.53888 0.0
H1467 H 0.08298 0.32892 0.70348 0.0
H1468 H 0.09784 0.36649 0.68234 0.0
H1469 H 0.07167 0.33559 0.64737 0.0
H1470 H 0.13075 0.44701 0.6015 0.0
H1471 H 0.06274 0.37439 0.51994 0.0
H1472 H 0.18515 0.40744 0.63859 0.0
H1473 H 0.15545 0.40305 0.67794 0.0
H1474 H 0.17051 0.43909 0.65248 0.0
H1475 H 0.10423 0.31783 0.54342 0.0
H1476 H 0.06805 0.32451 0.5168 0.0
H1477 H 0.06911 0.3144 0.57339 0.0
C1478 C 0.65437 0.18336 0.67857 0.0
C1479 C 0.68546 0.19998 0.66671 0.0
C1480 C 0.63607 0.15602 0.65525 0.0
C1481 C 0.64915 0.14531 0.61908 0.0
C1482 C 0.67944 0.16328 0.60506 0.0
C1483 C 0.69722 0.19042 0.62908 0.0
C1484 C 0.60376 0.13757 0.67113 0.0
C1485 C 0.69413 0.15294 0.56644 0.0
C1486 C 0.61978 0.05902 0.59612 0.0
C1487 C 0.59421 0.05579 0.56316 0.0
C1488 C 0.63862 0.08819 0.61375 0.0
C1489 C 0.63189 0.1146 0.59755 0.0
C1490 C 0.6075 0.11145 0.56232 0.0
C1491 C 0.58885 0.08211 0.54577 0.0
C1492 C 0.66471 0.09068 0.65104 0.0
C1493 C 0.60008 0.13895 0.5433 0.0
H1494 H 0.64544 0.19048 0.70801 0.0
H1495 H 0.72122 0.20343 0.61975 0.0
H1496 H 0.58417 0.13173 0.64353 0.0
H1497 H 0.60604 0.11574 0.68367 0.0
H1498 H 0.59599 0.14997 0.69783 0.0
H1499 H 0.71557 0.17127 0.55636 0.0
H1500 H 0.70241 0.13301 0.5754 0.0
H1501 H 0.67548 0.14547 0.53785 0.0
H1502 H 0.62397 0.03876 0.60964 0.0
H1503 H 0.56938 0.07975 0.51978 0.0
H1504 H 0.65773 0.10016 0.68124 0.0
H1505 H 0.68854 0.10666 0.64316 0.0
H1506 H 0.66821 0.0682 0.65816 0.0
H1507 H 0.58869 0.14972 0.56788 0.0
H1508 H 0.58304 0.13279 0.51286 0.0
H1509 H 0.62308 0.15633 0.53565 0.0
C1510 C 0.7929 0.33662 0.3266 0.0
C1511 C 0.79308 0.30814 0.34169 0.0
C1512 C 0.81426 0.36389 0.34699 0.0
C1513 C 0.83591 0.36253 0.38384 0.0
C1514 C 0.8351 0.3338 0.40044 0.0
C1515 C 0.81369 0.30696 0.37917 0.0
C1516 C 0.814 0.39412 0.32883 0.0
C1517 C 0.85734 0.33139 0.44012 0.0
C1518 C 0.9149 0.42831 0.40815 0.0
C1519 C 0.90688 0.4449 0.44239 0.0
C1520 C 0.89192 0.40164 0.38862 0.0
C1521 C 0.86027 0.39103 0.40406 0.0
C1522 C 0.85213 0.40746 0.43893 0.0
C1523 C 0.87548 0.43425 0.45757 0.0
C1524 C 0.90146 0.38487 0.35127 0.0
C1525 C 0.81881 0.39672 0.4567 0.0
H1526 H 0.77576 0.33748 0.29915 0.0
H1527 H 0.81372 0.28495 0.39126 0.0
H1528 H 0.80896 0.40892 0.35485 0.0
H1529 H 0.83856 0.40627 0.3181 0.0
H1530 H 0.79527 0.39132 0.30052 0.0
H1531 H 0.8531 0.30738 0.4496 0.0
H1532 H 0.88344 0.34112 0.4333 0.0
H1533 H 0.85331 0.34493 0.46848 0.0
H1534 H 0.93905 0.4364 0.39612 0.0
H1535 H 0.86915 0.44678 0.48423 0.0
H1536 H 0.88457 0.38375 0.32139 0.0
H1537 H 0.89907 0.361 0.35992 0.0
H1538 H 0.92708 0.39605 0.34322 0.0
H1539 H 0.79906 0.39358 0.42968 0.0
H1540 H 0.81572 0.41302 0.48223 0.0
H1541 H 0.81541 0.3742 0.47134 0.0
C1542 C 0.68151 0.82674 0.38308 0.0
C1543 C 0.70316 0.8432 0.35371 0.0
C1544 C 0.66268 0.8408 0.40695 0.0
C1545 C 0.66519 0.8719 0.40075 0.0
C1546 C 0.68826 0.88897 0.37292 0.0
C1547 C 0.70708 0.8745 0.35004 0.0
C1548 C 0.63875 0.82171 0.43665 0.0
C1549 C 0.69163 0.9221 0.36511 0.0
C1550 C 0.59033 0.8989 0.40844 0.0
C1551 C 0.59855 0.91748 0.44737 0.0
C1552 C 0.61131 0.88319 0.39387 0.0
C1553 C 0.64129 0.88578 0.41897 0.0
C1554 C 0.64908 0.90327 0.45942 0.0
C1555 C 0.62766 0.91901 0.4731 0.0
C1556 C 0.60194 0.8648 0.35057 0.0
C1557 C 0.68066 0.9066 0.48739 0.0
H1558 H 0.67837 0.80259 0.38637 0.0
H1559 H 0.72382 0.88751 0.32764 0.0
H1560 H 0.63553 0.83558 0.46514 0.0
H1561 H 0.61441 0.81199 0.41782 0.0
H1562 H 0.64693 0.80239 0.44897 0.0
H1563 H 0.7122 0.93273 0.34485 0.0
H1564 H 0.66849 0.92382 0.34796 0.0
H1565 H 0.69577 0.93545 0.39688 0.0
H1566 H 0.56778 0.89721 0.38842 0.0
H1567 H 0.63415 0.93304 0.50343 0.0
H1568 H 0.60194 0.84092 0.35528 0.0
H1569 H 0.62035 0.87469 0.32698 0.0
H1570 H 0.57729 0.86433 0.33565 0.0
H1571 H 0.68767 0.88525 0.48602 0.0
H1572 H 0.67871 0.91282 0.52223 0.0
H1573 H 0.70075 0.92508 0.47487 0.0
C1574 C 0.15243 0.68331 0.34755 0.0
C1575 C 0.14127 0.69673 0.31127 0.0
C1576 C 0.13244 0.65626 0.36343 0.0
C1577 C 0.10062 0.64224 0.34231 0.0
C1578 C 0.08894 0.65595 0.30618 0.0
C1579 C 0.10944 0.68313 0.29108 0.0
C1580 C 0.14566 0.64234 0.40225 0.0
C1581 C 0.05513 0.64156 0.28291 0.0
C1582 C 0.06823 0.5573 0.35791 0.0
C1583 C 0.0493 0.55643 0.39366 0.0
C1584 C 0.08386 0.58503 0.33948 0.0
C1585 C 0.08036 0.61251 0.35715 0.0
C1586 C 0.05986 0.61166 0.39156 0.0
C1587 C 0.0446 0.58361 0.40949 0.0
C1588 C 0.10551 0.58508 0.30266 0.0
C1589 C 0.05534 0.64052 0.41094 0.0
H1590 H 0.17695 0.69383 0.36342 0.0
H1591 H 0.10076 0.69336 0.26287 0.0
H1592 H 0.12879 0.63914 0.42878 0.0
H1593 H 0.14706 0.61942 0.39224 0.0
H1594 H 0.17051 0.65668 0.41587 0.0
H1595 H 0.04894 0.65617 0.25725 0.0
H1596 H 0.05375 0.61916 0.2671 0.0
H1597 H 0.03625 0.63715 0.30692 0.0
H1598 H 0.07187 0.53643 0.34523 0.0
H1599 H 0.02985 0.58319 0.43691 0.0
H1600 H 0.13156 0.59676 0.31458 0.0
H1601 H 0.0991 0.59798 0.27489 0.0
H1602 H 0.10339 0.56158 0.29018 0.0
H1603 H 0.07857 0.65426 0.42967 0.0
H1604 H 0.03541 0.63557 0.43349 0.0
H1605 H 0.04958 0.65475 0.3845 0.0
C1606 C 0.3444 0.15612 0.2906 0.0
C1607 C 0.33511 0.1789 0.31243 0.0
C1608 C 0.36579 0.14212 0.31174 0.0
C1609 C 0.37704 0.15023 0.35646 0.0
C1610 C 0.36921 0.17451 0.37797 0.0
C1611 C 0.34858 0.18893 0.35532 0.0
C1612 C 0.3744 0.1171 0.28708 0.0
C1613 C 0.37992 0.18356 0.42586 0.0
C1614 C 0.383 0.08117 0.41699 0.0
C1615 C 0.41701 0.08614 0.42262 0.0
C1616 C 0.37 0.10278 0.39776 0.0
C1617 C 0.39146 0.12955 0.38195 0.0
C1618 C 0.42592 0.13485 0.38754 0.0
C1619 C 0.43839 0.11322 0.40859 0.0
C1620 C 0.33316 0.09675 0.39404 0.0
C1621 C 0.44941 0.16292 0.37041 0.0
H1622 H 0.33421 0.14865 0.25716 0.0
H1623 H 0.3413 0.2066 0.3721 0.0
H1624 H 0.40121 0.12044 0.2921 0.0
H1625 H 0.36156 0.0946 0.29991 0.0
H1626 H 0.36717 0.1163 0.25124 0.0
H1627 H 0.38252 0.20808 0.43284 0.0
H1628 H 0.36081 0.16982 0.44605 0.0
H1629 H 0.40349 0.17939 0.4364 0.0
H1630 H 0.36638 0.06051 0.4285 0.0
H1631 H 0.46471 0.11706 0.41292 0.0
H1632 H 0.32345 0.09298 0.35894 0.0
H1633 H 0.32711 0.11686 0.40744 0.0
H1634 H 0.32028 0.07639 0.41192 0.0
H1635 H 0.44459 0.16296 0.33418 0.0
H1636 H 0.47552 0.16407 0.37833 0.0
H1637 H 0.44541 0.18384 0.38457 0.0
C1638 C 0.64045 0.79327 0.67495 0.0
C1639 C 0.67072 0.79571 0.65828 0.0
C1640 C 0.61963 0.80897 0.65647 0.0
C1641 C 0.6295 0.82767 0.62075 0.0
C1642 C 0.65843 0.82776 0.60112 0.0
C1643 C 0.67867 0.81163 0.62005 0.0
C1644 C 0.58863 0.80777 0.67778 0.0
C1645 C 0.67008 0.84738 0.5631 0.0
C1646 C 0.57291 0.86782 0.56414 0.0
C1647 C 0.58456 0.89686 0.58568 0.0
C1648 C 0.58696 0.84474 0.57545 0.0
C1649 C 0.61298 0.85094 0.6092 0.0
C1650 C 0.62423 0.88002 0.63166 0.0
C1651 C 0.60991 0.90261 0.61957 0.0
C1652 C 0.57487 0.81418 0.55029 0.0
C1653 C 0.65204 0.88761 0.66776 0.0
H1654 H 0.63389 0.78055 0.70411 0.0
H1655 H 0.70192 0.81351 0.60676 0.0
H1656 H 0.59254 0.82939 0.69746 0.0
H1657 H 0.5679 0.80556 0.65251 0.0
H1658 H 0.5816 0.78843 0.69995 0.0
H1659 H 0.68482 0.83726 0.54253 0.0
H1660 H 0.64933 0.85071 0.54198 0.0
H1661 H 0.68604 0.87021 0.57621 0.0
H1662 H 0.55361 0.86343 0.53748 0.0
H1663 H 0.61897 0.92502 0.63634 0.0
H1664 H 0.56864 0.79537 0.57337 0.0
H1665 H 0.5947 0.81096 0.53121 0.0
H1666 H 0.55292 0.81224 0.52717 0.0
H1667 H 0.64598 0.87113 0.69417 0.0
H1668 H 0.65734 0.91111 0.68257 0.0
H1669 H 0.67472 0.88559 0.65441 0.0
C1670 C 0.63112 0.17134 0.32974 0.0
C1671 C 0.64714 0.15813 0.30028 0.0
C1672 C 0.60203 0.15363 0.34596 0.0
C1673 C 0.58972 0.12228 0.33295 0.0
C1674 C 0.60198 0.1109 0.29673 0.0
C1675 C 0.63106 0.12895 0.28111 0.0
C1676 C 0.58773 0.16708 0.38205 0.0
C1677 C 0.58784 0.07808 0.2796 0.0
C1678 C 0.58624 0.06668 0.4212 0.0
C1679 C 0.55318 0.04917 0.41624 0.0
C1680 C 0.59782 0.09219 0.3966 0.0
C1681 C 0.57558 0.10035 0.36606 0.0
C1682 C 0.5415 0.08453 0.36401 0.0
C1683 C 0.53058 0.05884 0.38935 0.0
C1684 C 0.63434 0.10904 0.40161 0.0
C1685 C 0.5167 0.09342 0.33382 0.0
H1686 H 0.64262 0.19455 0.34302 0.0
H1687 H 0.64255 0.11917 0.25671 0.0
H1688 H 0.56076 0.15605 0.38126 0.0
H1689 H 0.59904 0.16316 0.41444 0.0
H1690 H 0.59287 0.19214 0.37924 0.0
H1691 H 0.59549 0.07468 0.24638 0.0
H1692 H 0.59667 0.06313 0.3023 0.0
H1693 H 0.56061 0.07077 0.27797 0.0
H1694 H 0.60339 0.05989 0.44363 0.0
H1695 H 0.50474 0.04568 0.38661 0.0
H1696 H 0.63864 0.13366 0.40977 0.0
H1697 H 0.64526 0.10705 0.37034 0.0
H1698 H 0.64772 0.09999 0.42793 0.0
H1699 H 0.52599 0.11742 0.32401 0.0
H1700 H 0.49358 0.09038 0.34987 0.0
H1701 H 0.51051 0.07809 0.3037 0.0
C1702 C 0.82852 0.69228 0.38432 0.0
C1703 C 0.81818 0.6871 0.33936 0.0
C1704 C 0.84493 0.67374 0.40616 0.0
C1705 C 0.85193 0.65001 0.38217 0.0
C1706 C 0.84161 0.6448 0.3367 0.0
C1707 C 0.82448 0.66309 0.31604 0.0
C1708 C 0.85456 0.67941 0.45491 0.0
C1709 C 0.84919 0.62023 0.30961 0.0
C1710 C 0.91974 0.6178 0.42665 0.0
C1711 C 0.90134 0.58933 0.44053 0.0
C1712 C 0.90404 0.63807 0.40811 0.0
C1713 C 0.86921 0.62997 0.40456 0.0
C1714 C 0.85068 0.60176 0.42018 0.0
C1715 C 0.86691 0.58165 0.43733 0.0
C1716 C 0.92464 0.66768 0.39099 0.0
C1717 C 0.8136 0.59258 0.41813 0.0
H1718 H 0.82377 0.71086 0.40241 0.0
H1719 H 0.81711 0.6593 0.28108 0.0
H1720 H 0.8409 0.65925 0.47247 0.0
H1721 H 0.88115 0.6824 0.46215 0.0
H1722 H 0.84919 0.69992 0.46828 0.0
H1723 H 0.84077 0.62005 0.27423 0.0
H1724 H 0.87608 0.6237 0.31261 0.0
H1725 H 0.83715 0.59743 0.32212 0.0
H1726 H 0.94633 0.6238 0.42894 0.0
H1727 H 0.85251 0.5598 0.44841 0.0
H1728 H 0.91902 0.68734 0.40659 0.0
H1729 H 0.91854 0.66795 0.35504 0.0
H1730 H 0.95142 0.67099 0.39721 0.0
H1731 H 0.8058 0.61052 0.43505 0.0
H1732 H 0.80291 0.57049 0.43355 0.0
H1733 H 0.80316 0.59044 0.3834 0.0
C1734 C 0.34958 0.81104 0.34377 0.0
C1735 C 0.31763 0.79421 0.352 0.0
C1736 C 0.36737 0.83662 0.37101 0.0
C1737 C 0.35297 0.845 0.40767 0.0
C1738 C 0.32193 0.8263 0.41834 0.0
C1739 C 0.30447 0.80124 0.39004 0.0
C1740 C 0.40039 0.85608 0.35844 0.0
C1741 C 0.30611 0.83393 0.45775 0.0
C1742 C 0.41282 0.90678 0.48289 0.0
C1743 C 0.407 0.93316 0.46666 0.0
C1744 C 0.39364 0.87761 0.46645 0.0
C1745 C 0.36897 0.87493 0.43173 0.0
C1746 C 0.36175 0.90145 0.41699 0.0
C1747 C 0.38064 0.93034 0.43516 0.0
C1748 C 0.4011 0.84988 0.48451 0.0
C1749 C 0.33562 0.89952 0.37993 0.0
H1750 H 0.35956 0.8058 0.31404 0.0
H1751 H 0.27981 0.78796 0.39654 0.0
H1752 H 0.39861 0.87865 0.34841 0.0
H1753 H 0.41907 0.86031 0.38701 0.0
H1754 H 0.4091 0.84532 0.33084 0.0
H1755 H 0.28555 0.81413 0.4664 0.0
H1756 H 0.32439 0.84135 0.48676 0.0
H1757 H 0.29614 0.8531 0.45033 0.0
H1758 H 0.43314 0.90899 0.50754 0.0
H1759 H 0.37629 0.95077 0.42249 0.0
H1760 H 0.4147 0.84086 0.46084 0.0
H1761 H 0.37805 0.83144 0.48902 0.0
H1762 H 0.41633 0.85542 0.51651 0.0
H1763 H 0.34289 0.89105 0.34916 0.0
H1764 H 0.33174 0.92202 0.37415 0.0
H1765 H 0.31192 0.883 0.38709 0.0
C1766 C 0.16253 0.31707 0.39308 0.0
C1767 C 0.18599 0.32667 0.36259 0.0
C1768 C 0.14646 0.33696 0.40941 0.0
C1769 C 0.15339 0.3669 0.39396 0.0
C1770 C 0.17853 0.37731 0.3653 0.0
C1771 C 0.1948 0.35714 0.35029 0.0
C1772 C 0.12054 0.32529 0.44099 0.0
C1773 C 0.18654 0.409 0.34791 0.0
C1774 C 0.08174 0.39946 0.38412 0.0
C1775 C 0.0894 0.4209 0.41984 0.0
C1776 C 0.10265 0.38216 0.37515 0.0
C1777 C 0.13159 0.38573 0.40325 0.0
C1778 C 0.13927 0.40697 0.4398 0.0
C1779 C 0.11846 0.4248 0.44706 0.0
C1780 C 0.09368 0.35997 0.33554 0.0
C1781 C 0.16946 0.41106 0.47114 0.0
H1782 H 0.15579 0.29357 0.40288 0.0
H1783 H 0.21276 0.36465 0.32652 0.0
H1784 H 0.12268 0.34282 0.4676 0.0
H1785 H 0.09579 0.32041 0.4232 0.0
H1786 H 0.12232 0.30398 0.45603 0.0
H1787 H 0.20854 0.4145 0.32893 0.0
H1788 H 0.16533 0.41083 0.3261 0.0
H1789 H 0.1909 0.42636 0.37539 0.0
H1790 H 0.05951 0.39641 0.36266 0.0
H1791 H 0.1249 0.44158 0.47435 0.0
H1792 H 0.08953 0.3363 0.34634 0.0
H1793 H 0.11421 0.3649 0.31402 0.0
H1794 H 0.07117 0.36099 0.3158 0.0
H1795 H 0.17253 0.38861 0.47929 0.0
H1796 H 0.16841 0.42367 0.50222 0.0
H1797 H 0.19157 0.42412 0.4553 0.0
C1798 C 0.35116 0.18684 0.63635 0.0
C1799 C 0.31951 0.17231 0.6487 0.0
C1800 C 0.3695 0.16988 0.61746 0.0
C1801 C 0.356 0.13772 0.61133 0.0
C1802 C 0.32341 0.12323 0.6214 0.0
C1803 C 0.30554 0.14069 0.63986 0.0
C1804 C 0.40364 0.1862 0.60509 0.0
C1805 C 0.30789 0.08908 0.61426 0.0
C1806 C 0.39394 0.08959 0.54211 0.0
C1807 C 0.41343 0.08011 0.57416 0.0
C1808 C 0.37618 0.10948 0.55318 0.0
C1809 C 0.3767 0.11885 0.59784 0.0
C1810 C 0.39597 0.10889 0.63049 0.0
C1811 C 0.41453 0.0901 0.61813 0.0
C1812 C 0.35672 0.11978 0.51672 0.0
C1813 C 0.39641 0.11751 0.67865 0.0
H1814 H 0.36198 0.2113 0.64258 0.0
H1815 H 0.28092 0.1293 0.64868 0.0
H1816 H 0.42204 0.17922 0.62641 0.0
H1817 H 0.40607 0.1796 0.57061 0.0
H1818 H 0.40955 0.21147 0.60846 0.0
H1819 H 0.28199 0.08141 0.62276 0.0
H1820 H 0.30845 0.08215 0.57935 0.0
H1821 H 0.32219 0.07702 0.63465 0.0
H1822 H 0.39289 0.08183 0.50824 0.0
H1823 H 0.42928 0.08256 0.6432 0.0
H1824 H 0.35011 0.14046 0.52624 0.0
H1825 H 0.33379 0.10097 0.50678 0.0
H1826 H 0.37101 0.12477 0.48751 0.0
H1827 H 0.40502 0.14276 0.68406 0.0
H1828 H 0.41258 0.10775 0.69992 0.0
H1829 H 0.37112 0.10923 0.68922 0.0
C1830 C 0.85962 0.29918 0.61375 0.0
C1831 C 0.84651 0.29732 0.65462 0.0
C1832 C 0.87957 0.3272 0.60016 0.0
C1833 C 0.88692 0.35367 0.62855 0.0
C1834 C 0.87433 0.35173 0.67021 0.0
C1835 C 0.85422 0.32361 0.68267 0.0
C1836 C 0.89253 0.32847 0.55541 0.0
C1837 C 0.88177 0.37943 0.70147 0.0
C1838 C 0.95767 0.42406 0.60914 0.0
C1839 C 0.94053 0.44298 0.59077 0.0
C1840 C 0.94055 0.39469 0.62169 0.0
C1841 C 0.90583 0.38394 0.61383 0.0
C1842 C 0.88871 0.40275 0.59363 0.0
C1843 C 0.90628 0.43231 0.58307 0.0
C1844 C 0.95947 0.37532 0.64364 0.0
C1845 C 0.85187 0.3916 0.58288 0.0
H1846 H 0.85389 0.27888 0.5921 0.0
H1847 H 0.84457 0.32227 0.71462 0.0
H1848 H 0.88924 0.34836 0.53784 0.0
H1849 H 0.91927 0.33138 0.55938 0.0
H1850 H 0.88022 0.3073 0.53468 0.0
H1851 H 0.86939 0.37406 0.73225 0.0
H1852 H 0.9087 0.38871 0.71005 0.0
H1853 H 0.87368 0.39772 0.68552 0.0
H1854 H 0.98428 0.43241 0.61418 0.0
H1855 H 0.89333 0.44686 0.56755 0.0
H1856 H 0.95483 0.35354 0.62412 0.0
H1857 H 0.95089 0.3694 0.67661 0.0
H1858 H 0.98638 0.38712 0.64748 0.0
H1859 H 0.84491 0.37028 0.56164 0.0
H1860 H 0.84255 0.40878 0.56568 0.0
H1861 H 0.83938 0.38609 0.61351 0.0
C1862 C 0.21688 0.66168 0.65128 0.0
C1863 C 0.21047 0.68977 0.65482 0.0
C1864 C 0.19364 0.63605 0.62947 0.0
C1865 C 0.16414 0.63906 0.60857 0.0
C1866 C 0.15872 0.66798 0.60923 0.0
C1867 C 0.18162 0.69282 0.63315 0.0
C1868 C 0.19978 0.60538 0.63105 0.0
C1869 C 0.12828 0.67249 0.58586 0.0
C1870 C 0.11545 0.57449 0.52693 0.0
C1871 C 0.09019 0.55816 0.55166 0.0
C1872 C 0.13917 0.6014 0.54453 0.0
C1873 C 0.13815 0.61158 0.58837 0.0
C1874 C 0.11256 0.59513 0.6134 0.0
C1875 C 0.08852 0.56891 0.59441 0.0
C1876 C 0.16519 0.61897 0.51619 0.0
C1877 C 0.1108 0.60491 0.66046 0.0
H1878 H 0.23925 0.65923 0.66761 0.0
H1879 H 0.17674 0.71462 0.63539 0.0
H1880 H 0.18081 0.58957 0.64941 0.0
H1881 H 0.19768 0.59504 0.59736 0.0
H1882 H 0.22442 0.60708 0.64732 0.0
H1883 H 0.12992 0.69706 0.58449 0.0
H1884 H 0.12415 0.66227 0.5518 0.0
H1885 H 0.10647 0.6607 0.60321 0.0
H1886 H 0.11643 0.56636 0.49358 0.0
H1887 H 0.069 0.55621 0.61354 0.0
H1888 H 0.19005 0.62115 0.53197 0.0
H1889 H 0.16353 0.64248 0.51275 0.0
H1890 H 0.16268 0.60785 0.48286 0.0
H1891 H 0.13508 0.6094 0.67941 0.0
H1892 H 0.09216 0.5874 0.67706 0.0
H1893 H 0.1043 0.62651 0.66136 0.0
loop_
_geom_bond_atom_site_label_1
_geom_bond_atom_site_label_2
_geom_bond_distance
_geom_bond_site_symmetry_2
_ccdc_geom_bond_type
Zn0 O6 1.969 . S
Zn0 O7 1.965 . S
Zn0 O11 2.024 . S
Zn0 O16 1.969 . S
Zn1 O8 1.969 . S
Zn1 O14 1.969 . S
Zn1 O15 1.965 . S
Zn1 O17 2.024 . S
C2 O3 1.229 . S
C2 O11 1.058 . S
O3 C2 1.229 . S
C4 O5 1.229 . S
C4 O17 1.058 . S
O5 C4 1.229 . S
O6 Zn0 1.969 . S
O6 C9 1.267 . S
O7 Zn0 1.965 . S
O7 C18 1.260 . S
O8 Zn1 1.969 . S
O8 C18 1.258 . S
C9 O6 1.267 . S
C9 O10 1.228 . S
O10 C9 1.228 . S
O11 Zn0 2.024 . S
O11 C2 1.058 . S
C12 O13 1.228 . S
C12 O14 1.267 . S
O13 C12 1.228 . S
O14 Zn1 1.969 . S
O14 C12 1.267 . S
O15 Zn1 1.965 . S
O15 C19 1.260 . S
O16 Zn0 1.969 . S
O16 C19 1.258 . S
O17 Zn1 2.024 . S
O17 C4 1.058 . S
C18 O7 1.260 . S
C18 O8 1.258 . S
C19 O15 1.260 . S
C19 O16 1.258 . S
Zn20 O26 1.969 . S
Zn20 O27 1.965 . S
Zn20 O31 2.024 . S
Zn20 O36 1.969 . S
Zn21 O28 1.969 . S
Zn21 O34 1.969 . S
Zn21 O35 1.965 . S
Zn21 O37 2.024 . S
C22 O23 1.229 . S
C22 O31 1.058 . S
O23 C22 1.229 . S
C24 O25 1.229 . S
C24 O37 1.058 . S
O25 C24 1.229 . S
O26 Zn20 1.969 . S
O26 C29 1.267 . S
O27 Zn20 1.965 . S
O27 C38 1.260 . S
O28 Zn21 1.969 . S
O28 C38 1.258 . S
C29 O26 1.267 . S
C29 O30 1.228 . S
O30 C29 1.228 . S
O31 Zn20 2.024 . S
O31 C22 1.058 . S
C32 O33 1.228 . S
C32 O34 1.267 . S
O33 C32 1.228 . S
O34 Zn21 1.969 . S
O34 C32 1.267 . S
O35 Zn21 1.965 . S
O35 C39 1.260 . S
O36 Zn20 1.969 . S
O36 C39 1.258 . S
O37 Zn21 2.024 . S
O37 C24 1.058 . S
C38 O27 1.260 . S
C38 O28 1.258 . S
C39 O35 1.260 . S
C39 O36 1.258 . S
Zn40 O46 1.969 . S
Zn40 O47 1.965 . S
Zn40 O51 2.024 . S
Zn40 O56 1.969 . S
Zn41 O48 1.969 . S
Zn41 O54 1.969 . S
Zn41 O55 1.965 . S
Zn41 O57 2.024 . S
C42 O43 1.229 . S
C42 O51 1.058 . S
O43 C42 1.229 . S
C44 O45 1.229 . S
C44 O57 1.058 . S
O45 C44 1.229 . S
O46 Zn40 1.969 . S
O46 C49 1.267 . S
O47 Zn40 1.965 . S
O47 C58 1.260 . S
O48 Zn41 1.969 . S
O48 C58 1.258 . S
C49 O46 1.267 . S
C49 O50 1.228 . S
O50 C49 1.228 . S
O51 Zn40 2.024 . S
O51 C42 1.058 . S
C52 O53 1.228 . S
C52 O54 1.267 . S
O53 C52 1.228 . S
O54 Zn41 1.969 . S
O54 C52 1.267 . S
O55 Zn41 1.965 . S
O55 C59 1.260 . S
O56 Zn40 1.969 . S
O56 C59 1.258 . S
O57 Zn41 2.024 . S
O57 C44 1.058 . S
C58 O47 1.260 . S
C58 O48 1.258 . S
C59 O55 1.260 . S
C59 O56 1.258 . S
Zn60 O66 1.969 . S
Zn60 O67 1.965 . S
Zn60 O71 2.024 . S
Zn60 O76 1.969 . S
Zn61 O68 1.969 . S
Zn61 O74 1.969 . S
Zn61 O75 1.965 . S
Zn61 O77 2.024 . S
C62 O63 1.229 . S
C62 O71 1.058 . S
O63 C62 1.229 . S
C64 O65 1.229 . S
C64 O77 1.058 . S
O65 C64 1.229 . S
O66 Zn60 1.969 . S
O66 C69 1.267 . S
O67 Zn60 1.965 . S
O67 C78 1.260 . S
O68 Zn61 1.969 . S
O68 C78 1.258 . S
C69 O66 1.267 . S
C69 O70 1.228 . S
O70 C69 1.228 . S
O71 Zn60 2.024 . S
O71 C62 1.058 . S
C72 O73 1.228 . S
C72 O74 1.267 . S
O73 C72 1.228 . S
O74 Zn61 1.969 . S
O74 C72 1.267 . S
O75 Zn61 1.965 . S
O75 C79 1.260 . S
O76 Zn60 1.969 . S
O76 C79 1.258 . S
O77 Zn61 2.024 . S
O77 C64 1.058 . S
C78 O67 1.260 . S
C78 O68 1.258 . S
C79 O75 1.260 . S
C79 O76 1.258 . S
Zn80 O86 1.969 . S
Zn80 O87 1.965 . S
Zn80 O91 2.024 . S
Zn80 O96 1.969 . S
Zn81 O88 1.969 . S
Zn81 O94 1.969 . S
Zn81 O95 1.965 . S
Zn81 O97 2.024 . S
C82 O83 1.229 . S
C82 O91 1.058 . S
O83 C82 1.229 . S
C84 O85 1.229 . S
C84 O97 1.058 . S
O85 C84 1.229 . S
O86 Zn80 1.969 . S
O86 C89 1.267 . S
O87 Zn80 1.965 . S
O87 C98 1.260 . S
O88 Zn81 1.969 . S
O88 C98 1.258 . S
C89 O86 1.267 . S
C89 O90 1.228 . S
O90 C89 1.228 . S
O91 Zn80 2.024 . S
O91 C82 1.058 . S
C92 O93 1.228 . S
C92 O94 1.267 . S
O93 C92 1.228 . S
O94 Zn81 1.969 . S
O94 C92 1.267 . S
O95 Zn81 1.965 . S
O95 C99 1.260 . S
O96 Zn80 1.969 . S
O96 C99 1.258 . S
O97 Zn81 2.024 . S
O97 C84 1.058 . S
C98 O87 1.260 . S
C98 O88 1.258 . S
C99 O95 1.260 . S
C99 O96 1.258 . S
Zn100 O106 1.969 . S
Zn100 O107 1.965 . S
Zn100 O111 2.024 . S
Zn100 O116 1.969 . S
Zn101 O108 1.969 . S
Zn101 O114 1.969 . S
Zn101 O115 1.965 . S
Zn101 O117 2.024 . S
C102 O103 1.229 . S
C102 O111 1.058 . S
O103 C102 1.229 . S
C104 O105 1.229 . S
C104 O117 1.058 . S
O105 C104 1.229 . S
O106 Zn100 1.969 . S
O106 C109 1.267 . S
O107 Zn100 1.965 . S
O107 C118 1.260 . S
O108 Zn101 1.969 . S
O108 C118 1.258 . S
C109 O106 1.267 . S
C109 O110 1.228 . S
O110 C109 1.228 . S
O111 Zn100 2.024 . S
O111 C102 1.058 . S
C112 O113 1.228 . S
C112 O114 1.267 . S
O113 C112 1.228 . S
O114 Zn101 1.969 . S
O114 C112 1.267 . S
O115 Zn101 1.965 . S
O115 C119 1.260 . S
O116 Zn100 1.969 . S
O116 C119 1.258 . S
O117 Zn101 2.024 . S
O117 C104 1.058 . S
C118 O107 1.260 . S
C118 O108 1.258 . S
C119 O115 1.260 . S
C119 O116 1.258 . S
Zn120 O126 1.969 . S
Zn120 O127 1.965 . S
Zn120 O131 2.024 . S
Zn120 O136 1.969 . S
Zn121 O128 1.969 . S
Zn121 O134 1.969 . S
Zn121 O135 1.965 . S
Zn121 O137 2.024 . S
C122 O123 1.229 . S
C122 O131 1.058 . S
O123 C122 1.229 . S
C124 O125 1.229 . S
C124 O137 1.058 . S
O125 C124 1.229 . S
O126 Zn120 1.969 . S
O126 C129 1.267 . S
O127 Zn120 1.965 . S
O127 C138 1.260 . S
O128 Zn121 1.969 . S
O128 C138 1.258 . S
C129 O126 1.267 . S
C129 O130 1.228 . S
O130 C129 1.228 . S
O131 Zn120 2.024 . S
O131 C122 1.058 . S
C132 O133 1.228 . S
C132 O134 1.267 . S
O133 C132 1.228 . S
O134 Zn121 1.969 . S
O134 C132 1.267 . S
O135 Zn121 1.965 . S
O135 C139 1.260 . S
O136 Zn120 1.969 . S
O136 C139 1.258 . S
O137 Zn121 2.024 . S
O137 C124 1.058 . S
C138 O127 1.260 . S
C138 O128 1.258 . S
C139 O135 1.260 . S
C139 O136 1.258 . S
Zn140 O146 1.969 . S
Zn140 O147 1.965 . S
Zn140 O151 2.024 . S
Zn140 O156 1.969 . S
Zn141 O148 1.969 . S
Zn141 O154 1.969 . S
Zn141 O155 1.965 . S
Zn141 O157 2.024 . S
C142 O143 1.229 . S
C142 O151 1.058 . S
O143 C142 1.229 . S
C144 O145 1.229 . S
C144 O157 1.058 . S
O145 C144 1.229 . S
O146 Zn140 1.969 . S
O146 C149 1.267 . S
O147 Zn140 1.965 . S
O147 C158 1.260 . S
O148 Zn141 1.969 . S
O148 C158 1.258 . S
C149 O146 1.267 . S
C149 O150 1.228 . S
O150 C149 1.228 . S
O151 Zn140 2.024 . S
O151 C142 1.058 . S
C152 O153 1.228 . S
C152 O154 1.267 . S
O153 C152 1.228 . S
O154 Zn141 1.969 . S
O154 C152 1.267 . S
O155 Zn141 1.965 . S
O155 C159 1.260 . S
O156 Zn140 1.969 . S
O156 C159 1.258 . S
O157 Zn141 2.024 . S
O157 C144 1.058 . S
C158 O147 1.260 . S
C158 O148 1.258 . S
C159 O155 1.260 . S
C159 O156 1.258 . S
Co160 O163 2.042 . S
Co160 O170 2.264 . S
Co160 O189 2.286 . S
Co160 O190 2.069 . S
Co160 O192 2.015 1_455 S
Co161 O163 2.122 . S
Co161 O169 2.073 . S
Co161 O170 2.327 . S
Co161 O171 1.976 1_455 S
Co162 O163 2.087 1_545 S
Co162 O165 2.087 1_455 S
Co162 O172 2.108 1_445 S
Co162 O173 2.147 . S
Co162 O177 2.115 . S
Co162 O191 2.140 1_445 S
O163 Co160 2.042 . S
O163 Co161 2.122 . S
O163 Co162 2.087 1_565 S
O163 H164 0.980 . S
H164 O163 0.980 . S
O165 Co162 2.087 1_655 S
O165 Co166 2.042 . S
O165 Co167 2.122 . S
O165 H168 0.980 . S
Co166 O165 2.042 . S
Co166 O174 2.286 . S
Co166 O175 2.069 . S
Co166 O176 2.015 1_655 S
Co166 O179 2.264 . S
Co167 O165 2.122 . S
Co167 O178 1.976 1_655 S
Co167 O179 2.327 . S
Co167 O180 2.073 . S
H168 O165 0.980 . S
O169 Co161 2.073 . S
O169 C184 1.245 . S
O170 Co160 2.264 . S
O170 Co161 2.327 . S
O170 C184 1.257 . S
O171 Co161 1.976 1_655 S
O171 C183 1.251 . S
O172 Co162 2.108 1_665 S
O172 C183 1.274 . S
O173 Co162 2.147 . S
O173 C186 1.246 . S
O174 Co166 2.286 . S
O174 C185 1.259 . S
O175 Co166 2.069 . S
O175 C185 1.289 . S
O176 Co166 2.015 1_455 S
O176 C186 1.257 . S
O177 Co162 2.115 . S
O177 C187 1.274 . S
O178 Co167 1.976 1_455 S
O178 C187 1.251 . S
O179 Co166 2.264 . S
O179 Co167 2.327 . S
O179 C188 1.257 . S
O180 Co167 2.073 . S
O180 C188 1.245 . S
C181 O189 1.259 . S
C181 O190 1.289 . S
C182 O191 1.246 . S
C182 O192 1.257 . S
C183 O171 1.251 . S
C183 O172 1.274 . S
C184 O169 1.245 . S
C184 O170 1.257 . S
C185 O174 1.259 . S
C185 O175 1.289 . S
C186 O173 1.246 . S
C186 O176 1.257 . S
C187 O177 1.274 . S
C187 O178 1.251 . S
C188 O179 1.257 . S
C188 O180 1.245 . S
O189 Co160 2.286 . S
O189 C181 1.259 . S
O190 Co160 2.069 . S
O190 C181 1.289 . S
O191 Co162 2.140 1_665 S
O191 C182 1.246 . S
O192 Co160 2.015 1_655 S
O192 C182 1.257 . S
Co193 O196 2.042 1_556 S
Co193 O203 2.264 1_556 S
Co193 O222 2.286 . S
Co193 O223 2.069 . S
Co193 O225 2.015 . S
Co194 O196 2.122 . S
Co194 O202 2.073 . S
Co194 O203 2.327 . S
Co194 O204 1.976 . S
Co195 O196 2.083 1_545 S
Co195 O198 2.091 1_554 S
Co195 O205 2.110 1_545 S
Co195 O206 2.146 . S
Co195 O210 2.113 1_554 S
Co195 O224 2.141 1_544 S
O196 Co193 2.042 1_554 S
O196 Co194 2.122 . S
O196 Co195 2.083 1_565 S
O196 H197 0.980 . S
H197 O196 0.980 . S
O198 Co195 2.091 1_556 S
O198 Co199 2.042 1_556 S
O198 Co200 2.122 . S
O198 H201 0.980 . S
Co199 O198 2.042 1_554 S
Co199 O207 2.286 . S
Co199 O208 2.069 . S
Co199 O209 2.015 . S
Co199 O212 2.264 1_554 S
Co200 O198 2.122 . S
Co200 O211 1.976 . S
Co200 O212 2.327 . S
Co200 O213 2.073 . S
H201 O198 0.980 . S
O202 Co194 2.073 . S
O202 C217 1.245 . S
O203 Co193 2.264 1_554 S
O203 Co194 2.327 . S
O203 C217 1.257 . S
O204 Co194 1.976 . S
O204 C216 1.251 . S
O205 Co195 2.110 1_565 S
O205 C216 1.274 . S
O206 Co195 2.146 . S
O206 C219 1.246 . S
O207 Co199 2.286 . S
O207 C218 1.259 . S
O208 Co199 2.069 . S
O208 C218 1.289 . S
O209 Co199 2.015 . S
O209 C219 1.257 . S
O210 Co195 2.113 1_556 S
O210 C220 1.274 . S
O211 Co200 1.976 . S
O211 C220 1.251 . S
O212 Co199 2.264 1_556 S
O212 Co200 2.327 . S
O212 C221 1.257 . S
O213 Co200 2.073 . S
O213 C221 1.245 . S
C214 O222 1.259 . S
C214 O223 1.289 . S
C215 O224 1.246 . S
C215 O225 1.257 . S
C216 O204 1.251 . S
C216 O205 1.274 . S
C217 O202 1.245 . S
C217 O203 1.257 . S
C218 O207 1.259 . S
C218 O208 1.289 . S
C219 O206 1.246 . S
C219 O209 1.257 . S
C220 O210 1.274 . S
C220 O211 1.251 . S
C221 O212 1.257 . S
C221 O213 1.245 . S
O222 Co193 2.286 . S
O222 C214 1.259 . S
O223 Co193 2.069 . S
O223 C214 1.289 . S
O224 Co195 2.141 1_566 S
O224 C215 1.246 . S
O225 Co193 2.015 . S
O225 C215 1.257 . S
Co226 O229 2.042 1_556 S
Co226 O236 2.264 1_556 S
Co226 O255 2.286 . S
Co226 O256 2.069 . S
Co226 O258 2.015 1_455 S
Co227 O229 2.122 . S
Co227 O235 2.073 . S
Co227 O236 2.327 . S
Co227 O237 1.976 1_455 S
Co228 O229 2.091 . S
Co228 O231 2.083 1_454 S
Co228 O238 2.109 1_455 S
Co228 O239 2.145 . S
Co228 O243 2.114 1_554 S
Co228 O257 2.142 1_454 S
O229 Co226 2.042 1_554 S
O229 Co227 2.122 . S
O229 Co228 2.091 . S
O229 H230 0.980 . S
H230 O229 0.980 . S
O231 Co228 2.083 1_656 S
O231 Co232 2.042 1_556 S
O231 Co233 2.122 . S
O231 H234 0.980 . S
Co232 O231 2.042 1_554 S
Co232 O240 2.286 . S
Co232 O241 2.069 . S
Co232 O242 2.015 1_655 S
Co232 O245 2.264 1_554 S
Co233 O231 2.122 . S
Co233 O244 1.976 1_655 S
Co233 O245 2.327 . S
Co233 O246 2.073 . S
H234 O231 0.980 . S
O235 Co227 2.073 . S
O235 C250 1.245 . S
O236 Co226 2.264 1_554 S
O236 Co227 2.327 . S
O236 C250 1.257 . S
O237 Co227 1.976 1_655 S
O237 C249 1.251 . S
O238 Co228 2.109 1_655 S
O238 C249 1.274 . S
O239 Co228 2.145 . S
O239 C252 1.246 . S
O240 Co232 2.286 . S
O240 C251 1.259 . S
O241 Co232 2.069 . S
O241 C251 1.289 . S
O242 Co232 2.015 1_455 S
O242 C252 1.257 . S
O243 Co228 2.114 1_556 S
O243 C253 1.274 . S
O244 Co233 1.976 1_455 S
O244 C253 1.251 . S
O245 Co232 2.264 1_556 S
O245 Co233 2.327 . S
O245 C254 1.257 . S
O246 Co233 2.073 . S
O246 C254 1.245 . S
C247 O255 1.259 . S
C247 O256 1.289 . S
C248 O257 1.246 . S
C248 O258 1.257 . S
C249 O237 1.251 . S
C249 O238 1.274 . S
C250 O235 1.245 . S
C250 O236 1.257 . S
C251 O240 1.259 . S
C251 O241 1.289 . S
C252 O239 1.246 . S
C252 O242 1.257 . S
C253 O243 1.274 . S
C253 O244 1.251 . S
C254 O245 1.257 . S
C254 O246 1.245 . S
O255 Co226 2.286 . S
O255 C247 1.259 . S
O256 Co226 2.069 . S
O256 C247 1.289 . S
O257 Co228 2.142 1_656 S
O257 C248 1.246 . S
O258 Co226 2.015 1_655 S
O258 C248 1.257 . S
Co259 O262 2.042 1_556 S
Co259 O269 2.264 1_556 S
Co259 O288 2.286 . S
Co259 O289 2.069 . S
Co259 O291 2.015 . S
Co260 O262 2.122 . S
Co260 O268 2.073 . S
Co260 O269 2.327 . S
Co260 O270 1.976 . S
Co261 O262 2.087 . S
Co261 O264 2.087 1_554 S
Co261 O271 2.111 . S
Co261 O272 2.143 . S
Co261 O276 2.111 1_554 S
Co261 O290 2.143 1_554 S
O262 Co259 2.042 1_554 S
O262 Co260 2.122 . S
O262 Co261 2.087 . S
O262 H263 0.980 . S
H263 O262 0.980 . S
O264 Co261 2.087 1_556 S
O264 Co265 2.042 1_556 S
O264 Co266 2.122 . S
O264 H267 0.980 . S
Co265 O264 2.042 1_554 S
Co265 O273 2.286 . S
Co265 O274 2.069 . S
Co265 O275 2.015 . S
Co265 O278 2.264 1_554 S
Co266 O264 2.122 . S
Co266 O277 1.976 . S
Co266 O278 2.327 . S
Co266 O279 2.073 . S
H267 O264 0.980 . S
O268 Co260 2.073 . S
O268 C283 1.245 . S
O269 Co259 2.264 1_554 S
O269 Co260 2.327 . S
O269 C283 1.257 . S
O270 Co260 1.976 . S
O270 C282 1.251 . S
O271 Co261 2.111 . S
O271 C282 1.274 . S
O272 Co261 2.143 . S
O272 C285 1.246 . S
O273 Co265 2.286 . S
O273 C284 1.259 . S
O274 Co265 2.069 . S
O274 C284 1.289 . S
O275 Co265 2.015 . S
O275 C285 1.257 . S
O276 Co261 2.111 1_556 S
O276 C286 1.274 . S
O277 Co266 1.976 . S
O277 C286 1.251 . S
O278 Co265 2.264 1_556 S
O278 Co266 2.327 . S
O278 C287 1.257 . S
O279 Co266 2.073 . S
O279 C287 1.245 . S
C280 O288 1.259 . S
C280 O289 1.289 . S
C281 O290 1.246 . S
C281 O291 1.257 . S
C282 O270 1.251 . S
C282 O271 1.274 . S
C283 O268 1.245 . S
C283 O269 1.257 . S
C284 O273 1.259 . S
C284 O274 1.289 . S
C285 O272 1.246 . S
C285 O275 1.257 . S
C286 O276 1.274 . S
C286 O277 1.251 . S
C287 O278 1.257 . S
C287 O279 1.245 . S
O288 Co259 2.286 . S
O288 C280 1.259 . S
O289 Co259 2.069 . S
O289 C280 1.289 . S
O290 Co261 2.143 1_556 S
O290 C281 1.246 . S
O291 Co259 2.015 . S
O291 C281 1.257 . S
Co292 O295 2.042 . S
Co292 O302 2.264 . S
Co292 O321 2.286 . S
Co292 O322 2.069 . S
Co292 O324 2.015 . S
Co293 O295 2.122 . S
Co293 O301 2.073 . S
Co293 O302 2.327 . S
Co293 O303 1.976 . S
Co294 O295 2.091 . S
Co294 O297 2.083 1_455 S
Co294 O304 2.112 . S
Co294 O305 2.141 1_455 S
Co294 O309 2.110 1_455 S
Co294 O323 2.146 . S
O295 Co292 2.042 . S
O295 Co293 2.122 . S
O295 Co294 2.091 . S
O295 H296 0.980 . S
H296 O295 0.980 . S
O297 Co294 2.083 1_655 S
O297 Co298 2.042 . S
O297 Co299 2.122 . S
O297 H300 0.980 . S
Co298 O297 2.042 . S
Co298 O306 2.286 . S
Co298 O307 2.069 . S
Co298 O308 2.015 . S
Co298 O311 2.264 . S
Co299 O297 2.122 . S
Co299 O310 1.976 . S
Co299 O311 2.327 . S
Co299 O312 2.073 . S
H300 O297 0.980 . S
O301 Co293 2.073 . S
O301 C316 1.245 . S
O302 Co292 2.264 . S
O302 Co293 2.327 . S
O302 C316 1.257 . S
O303 Co293 1.976 . S
O303 C315 1.251 . S
O304 Co294 2.112 . S
O304 C315 1.274 . S
O305 Co294 2.141 1_655 S
O305 C318 1.246 . S
O306 Co298 2.286 . S
O306 C317 1.259 . S
O307 Co298 2.069 . S
O307 C317 1.289 . S
O308 Co298 2.015 . S
O308 C318 1.257 . S
O309 Co294 2.110 1_655 S
O309 C319 1.274 . S
O310 Co299 1.976 . S
O310 C319 1.251 . S
O311 Co298 2.264 . S
O311 Co299 2.327 . S
O311 C320 1.257 . S
O312 Co299 2.073 . S
O312 C320 1.245 . S
C313 O321 1.259 . S
C313 O322 1.289 . S
C314 O323 1.246 . S
C314 O324 1.257 . S
C315 O303 1.251 . S
C315 O304 1.274 . S
C316 O301 1.245 . S
C316 O302 1.257 . S
C317 O306 1.259 . S
C317 O307 1.289 . S
C318 O305 1.246 . S
C318 O308 1.257 . S
C319 O309 1.274 . S
C319 O310 1.251 . S
C320 O311 1.257 . S
C320 O312 1.245 . S
O321 Co292 2.286 . S
O321 C313 1.259 . S
O322 Co292 2.069 . S
O322 C313 1.289 . S
O323 Co294 2.146 . S
O323 C314 1.246 . S
O324 Co292 2.015 . S
O324 C314 1.257 . S
Co325 O328 2.042 . S
Co325 O335 2.264 . S
Co325 O354 2.286 . S
Co325 O355 2.069 . S
Co325 O357 2.015 1_565 S
Co326 O328 2.122 . S
Co326 O334 2.073 . S
Co326 O335 2.327 . S
Co326 O336 1.976 1_565 S
Co327 O328 2.083 1_545 S
Co327 O330 2.091 . S
Co327 O337 2.114 . S
Co327 O338 2.142 1_545 S
Co327 O342 2.109 1_545 S
Co327 O356 2.145 . S
O328 Co325 2.042 . S
O328 Co326 2.122 . S
O328 Co327 2.083 1_565 S
O328 H329 0.980 . S
H329 O328 0.980 . S
O330 Co327 2.091 . S
O330 Co331 2.042 . S
O330 Co332 2.122 . S
O330 H333 0.980 . S
Co331 O330 2.042 . S
Co331 O339 2.286 . S
Co331 O340 2.069 . S
Co331 O341 2.015 1_545 S
Co331 O344 2.264 . S
Co332 O330 2.122 . S
Co332 O343 1.976 1_545 S
Co332 O344 2.327 . S
Co332 O345 2.073 . S
H333 O330 0.980 . S
O334 Co326 2.073 . S
O334 C349 1.245 . S
O335 Co325 2.264 . S
O335 Co326 2.327 . S
O335 C349 1.257 . S
O336 Co326 1.976 1_545 S
O336 C348 1.251 . S
O337 Co327 2.114 . S
O337 C348 1.274 . S
O338 Co327 2.142 1_565 S
O338 C351 1.246 . S
O339 Co331 2.286 . S
O339 C350 1.259 . S
O340 Co331 2.069 . S
O340 C350 1.289 . S
O341 Co331 2.015 1_565 S
O341 C351 1.257 . S
O342 Co327 2.109 1_565 S
O342 C352 1.274 . S
O343 Co332 1.976 1_565 S
O343 C352 1.251 . S
O344 Co331 2.264 . S
O344 Co332 2.327 . S
O344 C353 1.257 . S
O345 Co332 2.073 . S
O345 C353 1.245 . S
C346 O354 1.259 . S
C346 O355 1.289 . S
C347 O356 1.246 . S
C347 O357 1.257 . S
C348 O336 1.251 . S
C348 O337 1.274 . S
C349 O334 1.245 . S
C349 O335 1.257 . S
C350 O339 1.259 . S
C350 O340 1.289 . S
C351 O338 1.246 . S
C351 O341 1.257 . S
C352 O342 1.274 . S
C352 O343 1.251 . S
C353 O344 1.257 . S
C353 O345 1.245 . S
O354 Co325 2.286 . S
O354 C346 1.259 . S
O355 Co325 2.069 . S
O355 C346 1.289 . S
O356 Co327 2.145 . S
O356 C347 1.246 . S
O357 Co325 2.015 1_545 S
O357 C347 1.257 . S
C358 C359 1.391 . S
C358 C360 1.394 . S
C358 H374 0.931 . S
C359 C358 1.391 . S
C359 C363 1.376 . S
C360 C358 1.394 . S
C360 C361 1.369 . S
C360 C364 1.531 . S
C361 C360 1.369 . S
C361 C362 1.410 . S
C361 C369 1.503 . S
C362 C361 1.410 . S
C362 C363 1.392 . S
C362 C365 1.511 . S
C363 C359 1.376 . S
C363 C362 1.392 . S
C363 H375 0.929 . S
C364 C360 1.531 . S
C364 H376 0.960 . S
C364 H377 0.962 . S
C364 H378 0.960 . S
C365 C362 1.511 . S
C365 H379 0.961 . S
C365 H380 0.961 . S
C365 H381 0.961 . S
C366 C367 1.370 . S
C366 C368 1.363 . S
C366 H382 0.931 . S
C367 C366 1.370 . S
C367 C371 1.408 . S
C368 C366 1.363 . S
C368 C369 1.370 . S
C368 C372 1.524 . S
C369 C361 1.503 . S
C369 C368 1.370 . S
C369 C370 1.403 . S
C370 C369 1.403 . S
C370 C371 1.404 . S
C370 C373 1.539 . S
C371 C367 1.408 . S
C371 C370 1.404 . S
C371 H383 0.930 . S
C372 C368 1.524 . S
C372 H384 0.956 . S
C372 H385 0.961 . S
C372 H386 0.961 . S
C373 C370 1.539 . S
C373 H387 0.958 . S
C373 H388 0.961 . S
C373 H389 0.960 . S
H374 C358 0.931 . S
H375 C363 0.929 . S
H376 C364 0.960 . S
H377 C364 0.962 . S
H378 C364 0.960 . S
H379 C365 0.961 . S
H380 C365 0.961 . S
H381 C365 0.961 . S
H382 C366 0.931 . S
H383 C371 0.930 . S
H384 C372 0.956 . S
H385 C372 0.961 . S
H386 C372 0.961 . S
H387 C373 0.958 . S
H388 C373 0.961 . S
H389 C373 0.960 . S
C390 C391 1.391 . S
C390 C392 1.394 . S
C390 H406 0.931 . S
C391 C390 1.391 . S
C391 C395 1.376 . S
C392 C390 1.394 . S
C392 C393 1.369 . S
C392 C396 1.531 . S
C393 C392 1.369 . S
C393 C394 1.410 . S
C393 C401 1.503 . S
C394 C393 1.410 . S
C394 C395 1.392 . S
C394 C397 1.511 . S
C395 C391 1.376 . S
C395 C394 1.392 . S
C395 H407 0.929 . S
C396 C392 1.531 . S
C396 H408 0.960 . S
C396 H409 0.962 . S
C396 H410 0.960 . S
C397 C394 1.511 . S
C397 H411 0.961 . S
C397 H412 0.961 . S
C397 H413 0.961 . S
C398 C399 1.370 . S
C398 C400 1.363 . S
C398 H414 0.931 . S
C399 C398 1.370 . S
C399 C403 1.408 . S
C400 C398 1.363 . S
C400 C401 1.370 . S
C400 C404 1.524 . S
C401 C393 1.503 . S
C401 C400 1.370 . S
C401 C402 1.403 . S
C402 C401 1.403 . S
C402 C403 1.404 . S
C402 C405 1.539 . S
C403 C399 1.408 . S
C403 C402 1.404 . S
C403 H415 0.930 . S
C404 C400 1.524 . S
C404 H416 0.956 . S
C404 H417 0.961 . S
C404 H418 0.961 . S
C405 C402 1.539 . S
C405 H419 0.958 . S
C405 H420 0.961 . S
C405 H421 0.960 . S
H406 C390 0.931 . S
H407 C395 0.929 . S
H408 C396 0.960 . S
H409 C396 0.962 . S
H410 C396 0.960 . S
H411 C397 0.961 . S
H412 C397 0.961 . S
H413 C397 0.961 . S
H414 C398 0.931 . S
H415 C403 0.930 . S
H416 C404 0.956 . S
H417 C404 0.961 . S
H418 C404 0.961 . S
H419 C405 0.958 . S
H420 C405 0.961 . S
H421 C405 0.960 . S
C422 C423 1.391 . S
C422 C424 1.394 . S
C422 H438 0.931 . S
C423 C422 1.391 . S
C423 C427 1.376 . S
C424 C422 1.394 . S
C424 C425 1.369 . S
C424 C428 1.531 . S
C425 C424 1.369 . S
C425 C426 1.410 . S
C425 C433 1.503 . S
C426 C425 1.410 . S
C426 C427 1.392 . S
C426 C429 1.511 . S
C427 C423 1.376 . S
C427 C426 1.392 . S
C427 H439 0.929 . S
C428 C424 1.531 . S
C428 H440 0.960 . S
C428 H441 0.962 . S
C428 H442 0.960 . S
C429 C426 1.511 . S
C429 H443 0.961 . S
C429 H444 0.961 . S
C429 H445 0.961 . S
C430 C431 1.370 . S
C430 C432 1.363 . S
C430 H446 0.931 . S
C431 C430 1.370 . S
C431 C435 1.408 . S
C432 C430 1.363 . S
C432 C433 1.370 . S
C432 C436 1.524 . S
C433 C425 1.503 . S
C433 C432 1.370 . S
C433 C434 1.403 . S
C434 C433 1.403 . S
C434 C435 1.404 . S
C434 C437 1.539 . S
C435 C431 1.408 . S
C435 C434 1.404 . S
C435 H447 0.930 . S
C436 C432 1.524 . S
C436 H448 0.956 . S
C436 H449 0.961 . S
C436 H450 0.961 . S
C437 C434 1.539 . S
C437 H451 0.958 . S
C437 H452 0.961 . S
C437 H453 0.960 . S
H438 C422 0.931 . S
H439 C427 0.929 . S
H440 C428 0.960 . S
H441 C428 0.962 . S
H442 C428 0.960 . S
H443 C429 0.961 . S
H444 C429 0.961 . S
H445 C429 0.961 . S
H446 C430 0.931 . S
H447 C435 0.930 . S
H448 C436 0.956 . S
H449 C436 0.961 . S
H450 C436 0.961 . S
H451 C437 0.958 . S
H452 C437 0.961 . S
H453 C437 0.960 . S
C454 C455 1.391 . S
C454 C456 1.394 . S
C454 H470 0.931 . S
C455 C454 1.391 . S
C455 C459 1.376 . S
C456 C454 1.394 . S
C456 C457 1.369 . S
C456 C460 1.531 . S
C457 C456 1.369 . S
C457 C458 1.410 . S
C457 C465 1.503 . S
C458 C457 1.410 . S
C458 C459 1.392 . S
C458 C461 1.511 . S
C459 C455 1.376 . S
C459 C458 1.392 . S
C459 H471 0.929 . S
C460 C456 1.531 . S
C460 H472 0.960 . S
C460 H473 0.962 . S
C460 H474 0.960 . S
C461 C458 1.511 . S
C461 H475 0.961 . S
C461 H476 0.961 . S
C461 H477 0.961 . S
C462 C463 1.370 . S
C462 C464 1.363 . S
C462 H478 0.931 . S
C463 C462 1.370 . S
C463 C467 1.408 . S
C464 C462 1.363 . S
C464 C465 1.370 . S
C464 C468 1.524 . S
C465 C457 1.503 . S
C465 C464 1.370 . S
C465 C466 1.403 . S
C466 C465 1.403 . S
C466 C467 1.404 . S
C466 C469 1.539 . S
C467 C463 1.408 . S
C467 C466 1.404 . S
C467 H479 0.930 . S
C468 C464 1.524 . S
C468 H480 0.956 . S
C468 H481 0.961 . S
C468 H482 0.961 . S
C469 C466 1.539 . S
C469 H483 0.958 . S
C469 H484 0.961 . S
C469 H485 0.960 . S
H470 C454 0.931 . S
H471 C459 0.929 . S
H472 C460 0.960 . S
H473 C460 0.962 . S
H474 C460 0.960 . S
H475 C461 0.961 . S
H476 C461 0.961 . S
H477 C461 0.961 . S
H478 C462 0.931 . S
H479 C467 0.930 . S
H480 C468 0.956 . S
H481 C468 0.961 . S
H482 C468 0.961 . S
H483 C469 0.958 . S
H484 C469 0.961 . S
H485 C469 0.960 . S
C486 C487 1.391 . S
C486 C488 1.394 . S
C486 H502 0.931 . S
C487 C486 1.391 . S
C487 C491 1.376 . S
C488 C486 1.394 . S
C488 C489 1.369 . S
C488 C492 1.531 . S
C489 C488 1.369 . S
C489 C490 1.410 . S
C489 C497 1.503 . S
C490 C489 1.410 . S
C490 C491 1.392 . S
C490 C493 1.511 . S
C491 C487 1.376 . S
C491 C490 1.392 . S
C491 H503 0.929 . S
C492 C488 1.531 . S
C492 H504 0.960 . S
C492 H505 0.962 . S
C492 H506 0.960 . S
C493 C490 1.511 . S
C493 H507 0.961 . S
C493 H508 0.961 . S
C493 H509 0.961 . S
C494 C495 1.370 . S
C494 C496 1.363 . S
C494 H510 0.931 . S
C495 C494 1.370 . S
C495 C499 1.408 . S
C496 C494 1.363 . S
C496 C497 1.370 . S
C496 C500 1.524 . S
C497 C489 1.503 . S
C497 C496 1.370 . S
C497 C498 1.403 . S
C498 C497 1.403 . S
C498 C499 1.404 . S
C498 C501 1.539 . S
C499 C495 1.408 . S
C499 C498 1.404 . S
C499 H511 0.930 . S
C500 C496 1.524 . S
C500 H512 0.956 . S
C500 H513 0.961 . S
C500 H514 0.961 . S
C501 C498 1.539 . S
C501 H515 0.958 . S
C501 H516 0.961 . S
C501 H517 0.960 . S
H502 C486 0.931 . S
H503 C491 0.929 . S
H504 C492 0.960 . S
H505 C492 0.962 . S
H506 C492 0.960 . S
H507 C493 0.961 . S
H508 C493 0.961 . S
H509 C493 0.961 . S
H510 C494 0.931 . S
H511 C499 0.930 . S
H512 C500 0.956 . S
H513 C500 0.961 . S
H514 C500 0.961 . S
H515 C501 0.958 . S
H516 C501 0.961 . S
H517 C501 0.960 . S
C518 C519 1.391 . S
C518 C520 1.394 . S
C518 H534 0.931 . S
C519 C518 1.391 . S
C519 C523 1.376 . S
C520 C518 1.394 . S
C520 C521 1.369 . S
C520 C524 1.531 . S
C521 C520 1.369 . S
C521 C522 1.410 . S
C521 C529 1.503 . S
C522 C521 1.410 . S
C522 C523 1.392 . S
C522 C525 1.511 . S
C523 C519 1.376 . S
C523 C522 1.392 . S
C523 H535 0.929 . S
C524 C520 1.531 . S
C524 H536 0.960 . S
C524 H537 0.962 . S
C524 H538 0.960 . S
C525 C522 1.511 . S
C525 H539 0.961 . S
C525 H540 0.961 . S
C525 H541 0.961 . S
C526 C527 1.370 . S
C526 C528 1.363 . S
C526 H542 0.931 . S
C527 C526 1.370 . S
C527 C531 1.408 . S
C528 C526 1.363 . S
C528 C529 1.370 . S
C528 C532 1.524 . S
C529 C521 1.503 . S
C529 C528 1.370 . S
C529 C530 1.403 . S
C530 C529 1.403 . S
C530 C531 1.404 . S
C530 C533 1.539 . S
C531 C527 1.408 . S
C531 C530 1.404 . S
C531 H543 0.930 . S
C532 C528 1.524 . S
C532 H544 0.956 . S
C532 H545 0.961 . S
C532 H546 0.961 . S
C533 C530 1.539 . S
C533 H547 0.958 . S
C533 H548 0.961 . S
C533 H549 0.960 . S
H534 C518 0.931 . S
H535 C523 0.929 . S
H536 C524 0.960 . S
H537 C524 0.962 . S
H538 C524 0.960 . S
H539 C525 0.961 . S
H540 C525 0.961 . S
H541 C525 0.961 . S
H542 C526 0.931 . S
H543 C531 0.930 . S
H544 C532 0.956 . S
H545 C532 0.961 . S
H546 C532 0.961 . S
H547 C533 0.958 . S
H548 C533 0.961 . S
H549 C533 0.960 . S
C550 C551 1.391 . S
C550 C552 1.394 . S
C550 H566 0.931 . S
C551 C550 1.391 . S
C551 C555 1.376 . S
C552 C550 1.394 . S
C552 C553 1.369 . S
C552 C556 1.531 . S
C553 C552 1.369 . S
C553 C554 1.410 . S
C553 C561 1.503 . S
C554 C553 1.410 . S
C554 C555 1.392 . S
C554 C557 1.511 . S
C555 C551 1.376 . S
C555 C554 1.392 . S
C555 H567 0.929 . S
C556 C552 1.531 . S
C556 H568 0.960 . S
C556 H569 0.962 . S
C556 H570 0.960 . S
C557 C554 1.511 . S
C557 H571 0.961 . S
C557 H572 0.961 . S
C557 H573 0.961 . S
C558 C559 1.370 . S
C558 C560 1.363 . S
C558 H574 0.931 . S
C559 C558 1.370 . S
C559 C563 1.408 . S
C560 C558 1.363 . S
C560 C561 1.370 . S
C560 C564 1.524 . S
C561 C553 1.503 . S
C561 C560 1.370 . S
C561 C562 1.403 . S
C562 C561 1.403 . S
C562 C563 1.404 . S
C562 C565 1.539 . S
C563 C559 1.408 . S
C563 C562 1.404 . S
C563 H575 0.930 . S
C564 C560 1.524 . S
C564 H576 0.956 . S
C564 H577 0.961 . S
C564 H578 0.961 . S
C565 C562 1.539 . S
C565 H579 0.958 . S
C565 H580 0.961 . S
C565 H581 0.960 . S
H566 C550 0.931 . S
H567 C555 0.929 . S
H568 C556 0.960 . S
H569 C556 0.962 . S
H570 C556 0.960 . S
H571 C557 0.961 . S
H572 C557 0.961 . S
H573 C557 0.961 . S
H574 C558 0.931 . S
H575 C563 0.930 . S
H576 C564 0.956 . S
H577 C564 0.961 . S
H578 C564 0.961 . S
H579 C565 0.958 . S
H580 C565 0.961 . S
H581 C565 0.960 . S
C582 C583 1.391 . S
C582 C584 1.394 . S
C582 H598 0.931 . S
C583 C582 1.391 . S
C583 C587 1.376 . S
C584 C582 1.394 . S
C584 C585 1.369 . S
C584 C588 1.531 . S
C585 C584 1.369 . S
C585 C586 1.410 . S
C585 C593 1.503 . S
C586 C585 1.410 . S
C586 C587 1.392 . S
C586 C589 1.511 . S
C587 C583 1.376 . S
C587 C586 1.392 . S
C587 H599 0.929 . S
C588 C584 1.531 . S
C588 H600 0.960 . S
C588 H601 0.962 . S
C588 H602 0.960 . S
C589 C586 1.511 . S
C589 H603 0.961 . S
C589 H604 0.961 . S
C589 H605 0.961 . S
C590 C591 1.370 . S
C590 C592 1.363 . S
C590 H606 0.931 . S
C591 C590 1.370 . S
C591 C595 1.408 . S
C592 C590 1.363 . S
C592 C593 1.370 . S
C592 C596 1.524 . S
C593 C585 1.503 . S
C593 C592 1.370 . S
C593 C594 1.403 . S
C594 C593 1.403 . S
C594 C595 1.404 . S
C594 C597 1.539 . S
C595 C591 1.408 . S
C595 C594 1.404 . S
C595 H607 0.930 . S
C596 C592 1.524 . S
C596 H608 0.956 . S
C596 H609 0.961 . S
C596 H610 0.961 . S
C597 C594 1.539 . S
C597 H611 0.958 . S
C597 H612 0.961 . S
C597 H613 0.960 . S
H598 C582 0.931 . S
H599 C587 0.929 . S
H600 C588 0.960 . S
H601 C588 0.962 . S
H602 C588 0.960 . S
H603 C589 0.961 . S
H604 C589 0.961 . S
H605 C589 0.961 . S
H606 C590 0.931 . S
H607 C595 0.930 . S
H608 C596 0.956 . S
H609 C596 0.961 . S
H610 C596 0.961 . S
H611 C597 0.958 . S
H612 C597 0.961 . S
H613 C597 0.960 . S
C614 C615 1.391 . S
C614 C616 1.394 . S
C614 H630 0.931 . S
C615 C614 1.391 . S
C615 C619 1.376 . S
C616 C614 1.394 . S
C616 C617 1.369 . S
C616 C620 1.531 . S
C617 C616 1.369 . S
C617 C618 1.410 . S
C617 C625 1.503 . S
C618 C617 1.410 . S
C618 C619 1.392 . S
C618 C621 1.511 . S
C619 C615 1.376 . S
C619 C618 1.392 . S
C619 H631 0.929 . S
C620 C616 1.531 . S
C620 H632 0.960 . S
C620 H633 0.962 . S
C620 H634 0.960 . S
C621 C618 1.511 . S
C621 H635 0.961 . S
C621 H636 0.961 . S
C621 H637 0.961 . S
C622 C623 1.370 . S
C622 C624 1.363 . S
C622 H638 0.931 . S
C623 C622 1.370 . S
C623 C627 1.408 . S
C624 C622 1.363 . S
C624 C625 1.370 . S
C624 C628 1.524 . S
C625 C617 1.503 . S
C625 C624 1.370 . S
C625 C626 1.403 . S
C626 C625 1.403 . S
C626 C627 1.404 . S
C626 C629 1.539 . S
C627 C623 1.408 . S
C627 C626 1.404 . S
C627 H639 0.930 . S
C628 C624 1.524 . S
C628 H640 0.956 . S
C628 H641 0.961 . S
C628 H642 0.961 . S
C629 C626 1.539 . S
C629 H643 0.958 . S
C629 H644 0.961 1_554 S
C629 H645 0.960 . S
H630 C614 0.931 . S
H631 C619 0.929 . S
H632 C620 0.960 . S
H633 C620 0.962 . S
H634 C620 0.960 . S
H635 C621 0.961 . S
H636 C621 0.961 . S
H637 C621 0.961 . S
H638 C622 0.931 . S
H639 C627 0.930 . S
H640 C628 0.956 . S
H641 C628 0.961 . S
H642 C628 0.961 . S
H643 C629 0.958 . S
H644 C629 0.961 1_556 S
H645 C629 0.960 . S
C646 C647 1.391 . S
C646 C648 1.394 . S
C646 H662 0.931 . S
C647 C646 1.391 . S
C647 C651 1.376 . S
C648 C646 1.394 . S
C648 C649 1.369 . S
C648 C652 1.531 . S
C649 C648 1.369 . S
C649 C650 1.410 . S
C649 C657 1.503 . S
C650 C649 1.410 . S
C650 C651 1.392 . S
C650 C653 1.511 . S
C651 C647 1.376 . S
C651 C650 1.392 . S
C651 H663 0.929 . S
C652 C648 1.531 . S
C652 H664 0.960 . S
C652 H665 0.962 . S
C652 H666 0.960 . S
C653 C650 1.511 . S
C653 H667 0.961 . S
C653 H668 0.961 . S
C653 H669 0.961 . S
C654 C655 1.370 . S
C654 C656 1.363 . S
C654 H670 0.931 . S
C655 C654 1.370 . S
C655 C659 1.408 . S
C656 C654 1.363 . S
C656 C657 1.370 . S
C656 C660 1.524 . S
C657 C649 1.503 . S
C657 C656 1.370 . S
C657 C658 1.403 . S
C658 C657 1.403 . S
C658 C659 1.404 . S
C658 C661 1.539 . S
C659 C655 1.408 . S
C659 C658 1.404 . S
C659 H671 0.930 . S
C660 C656 1.524 . S
C660 H672 0.956 . S
C660 H673 0.961 . S
C660 H674 0.961 . S
C661 C658 1.539 . S
C661 H675 0.958 . S
C661 H676 0.961 1_554 S
C661 H677 0.960 . S
H662 C646 0.931 . S
H663 C651 0.929 . S
H664 C652 0.960 . S
H665 C652 0.962 . S
H666 C652 0.960 . S
H667 C653 0.961 . S
H668 C653 0.961 . S
H669 C653 0.961 . S
H670 C654 0.931 . S
H671 C659 0.930 . S
H672 C660 0.956 . S
H673 C660 0.961 . S
H674 C660 0.961 . S
H675 C661 0.958 . S
H676 C661 0.961 1_556 S
H677 C661 0.960 . S
C678 C679 1.391 . S
C678 C680 1.394 . S
C678 H694 0.931 . S
C679 C678 1.391 . S
C679 C683 1.376 . S
C680 C678 1.394 . S
C680 C681 1.369 . S
C680 C684 1.531 . S
C681 C680 1.369 . S
C681 C682 1.410 . S
C681 C689 1.503 . S
C682 C681 1.410 . S
C682 C683 1.392 . S
C682 C685 1.511 . S
C683 C679 1.376 . S
C683 C682 1.392 . S
C683 H695 0.929 . S
C684 C680 1.531 . S
C684 H696 0.960 . S
C684 H697 0.962 . S
C684 H698 0.960 . S
C685 C682 1.511 . S
C685 H699 0.961 . S
C685 H700 0.961 . S
C685 H701 0.961 . S
C686 C687 1.370 . S
C686 C688 1.363 . S
C686 H702 0.931 . S
C687 C686 1.370 . S
C687 C691 1.408 . S
C688 C686 1.363 . S
C688 C689 1.370 . S
C688 C692 1.524 . S
C689 C681 1.503 . S
C689 C688 1.370 . S
C689 C690 1.403 . S
C690 C689 1.403 . S
C690 C691 1.404 . S
C690 C693 1.539 . S
C691 C687 1.408 . S
C691 C690 1.404 . S
C691 H703 0.930 . S
C692 C688 1.524 . S
C692 H704 0.956 . S
C692 H705 0.961 . S
C692 H706 0.961 . S
C693 C690 1.539 . S
C693 H707 0.958 . S
C693 H708 0.961 . S
C693 H709 0.960 . S
H694 C678 0.931 . S
H695 C683 0.929 . S
H696 C684 0.960 . S
H697 C684 0.962 . S
H698 C684 0.960 . S
H699 C685 0.961 . S
H700 C685 0.961 . S
H701 C685 0.961 . S
H702 C686 0.931 . S
H703 C691 0.930 . S
H704 C692 0.956 . S
H705 C692 0.961 . S
H706 C692 0.961 . S
H707 C693 0.958 . S
H708 C693 0.961 . S
H709 C693 0.960 . S
C710 C711 1.391 . S
C710 C712 1.394 . S
C710 H726 0.931 . S
C711 C710 1.391 . S
C711 C715 1.376 . S
C712 C710 1.394 . S
C712 C713 1.369 . S
C712 C716 1.531 . S
C713 C712 1.369 . S
C713 C714 1.410 . S
C713 C721 1.503 . S
C714 C713 1.410 . S
C714 C715 1.392 . S
C714 C717 1.511 . S
C715 C711 1.376 . S
C715 C714 1.392 . S
C715 H727 0.929 . S
C716 C712 1.531 . S
C716 H728 0.960 . S
C716 H729 0.962 . S
C716 H730 0.960 . S
C717 C714 1.511 . S
C717 H731 0.961 . S
C717 H732 0.961 . S
C717 H733 0.961 . S
C718 C719 1.370 . S
C718 C720 1.363 . S
C718 H734 0.931 . S
C719 C718 1.370 . S
C719 C723 1.408 . S
C720 C718 1.363 . S
C720 C721 1.370 . S
C720 C724 1.524 . S
C721 C713 1.503 . S
C721 C720 1.370 . S
C721 C722 1.403 . S
C722 C721 1.403 . S
C722 C723 1.404 . S
C722 C725 1.539 . S
C723 C719 1.408 . S
C723 C722 1.404 . S
C723 H735 0.930 . S
C724 C720 1.524 . S
C724 H736 0.956 . S
C724 H737 0.961 . S
C724 H738 0.961 . S
C725 C722 1.539 . S
C725 H739 0.958 . S
C725 H740 0.961 . S
C725 H741 0.960 . S
H726 C710 0.931 . S
H727 C715 0.929 . S
H728 C716 0.960 . S
H729 C716 0.962 . S
H730 C716 0.960 . S
H731 C717 0.961 . S
H732 C717 0.961 . S
H733 C717 0.961 . S
H734 C718 0.931 . S
H735 C723 0.930 . S
H736 C724 0.956 . S
H737 C724 0.961 . S
H738 C724 0.961 . S
H739 C725 0.958 . S
H740 C725 0.961 . S
H741 C725 0.960 . S
C742 C743 1.391 . S
C742 C744 1.394 . S
C742 H758 0.931 . S
C743 C742 1.391 . S
C743 C747 1.376 . S
C744 C742 1.394 . S
C744 C745 1.369 . S
C744 C748 1.531 . S
C745 C744 1.369 . S
C745 C746 1.410 . S
C745 C753 1.503 . S
C746 C745 1.410 . S
C746 C747 1.392 . S
C746 C749 1.511 . S
C747 C743 1.376 . S
C747 C746 1.392 . S
C747 H759 0.929 . S
C748 C744 1.531 . S
C748 H760 0.960 . S
C748 H761 0.962 . S
C748 H762 0.960 . S
C749 C746 1.511 . S
C749 H763 0.961 . S
C749 H764 0.961 . S
C749 H765 0.961 . S
C750 C751 1.370 . S
C750 C752 1.363 . S
C750 H766 0.931 . S
C751 C750 1.370 . S
C751 C755 1.408 . S
C752 C750 1.363 . S
C752 C753 1.370 . S
C752 C756 1.524 . S
C753 C745 1.503 . S
C753 C752 1.370 . S
C753 C754 1.403 . S
C754 C753 1.403 . S
C754 C755 1.404 . S
C754 C757 1.539 . S
C755 C751 1.408 . S
C755 C754 1.404 . S
C755 H767 0.930 . S
C756 C752 1.524 . S
C756 H768 0.956 . S
C756 H769 0.961 . S
C756 H770 0.961 . S
C757 C754 1.539 . S
C757 H771 0.958 . S
C757 H772 0.961 . S
C757 H773 0.960 . S
H758 C742 0.931 . S
H759 C747 0.929 . S
H760 C748 0.960 . S
H761 C748 0.962 . S
H762 C748 0.960 . S
H763 C749 0.961 . S
H764 C749 0.961 . S
H765 C749 0.961 . S
H766 C750 0.931 . S
H767 C755 0.930 . S
H768 C756 0.956 . S
H769 C756 0.961 . S
H770 C756 0.961 . S
H771 C757 0.958 . S
H772 C757 0.961 . S
H773 C757 0.960 . S
C774 C775 1.391 . S
C774 C776 1.394 . S
C774 H790 0.931 . S
C775 C774 1.391 . S
C775 C779 1.376 . S
C776 C774 1.394 . S
C776 C777 1.369 . S
C776 C780 1.531 . S
C777 C776 1.369 . S
C777 C778 1.410 . S
C777 C785 1.503 . S
C778 C777 1.410 . S
C778 C779 1.392 . S
C778 C781 1.511 . S
C779 C775 1.376 . S
C779 C778 1.392 . S
C779 H791 0.929 . S
C780 C776 1.531 . S
C780 H792 0.960 . S
C780 H793 0.962 . S
C780 H794 0.960 . S
C781 C778 1.511 . S
C781 H795 0.961 . S
C781 H796 0.961 . S
C781 H797 0.961 . S
C782 C783 1.370 . S
C782 C784 1.363 . S
C782 H798 0.931 . S
C783 C782 1.370 . S
C783 C787 1.408 . S
C784 C782 1.363 . S
C784 C785 1.370 . S
C784 C788 1.524 . S
C785 C777 1.503 . S
C785 C784 1.370 . S
C785 C786 1.403 . S
C786 C785 1.403 . S
C786 C787 1.404 . S
C786 C789 1.539 . S
C787 C783 1.408 . S
C787 C786 1.404 . S
C787 H799 0.930 . S
C788 C784 1.524 . S
C788 H800 0.956 . S
C788 H801 0.961 . S
C788 H802 0.961 . S
C789 C786 1.539 . S
C789 H803 0.958 . S
C789 H804 0.961 1_556 S
C789 H805 0.960 . S
H790 C774 0.931 . S
H791 C779 0.929 . S
H792 C780 0.960 . S
H793 C780 0.962 . S
H794 C780 0.960 . S
H795 C781 0.961 . S
H796 C781 0.961 . S
H797 C781 0.961 . S
H798 C782 0.931 . S
H799 C787 0.930 . S
H800 C788 0.956 . S
H801 C788 0.961 . S
H802 C788 0.961 . S
H803 C789 0.958 . S
H804 C789 0.961 1_554 S
H805 C789 0.960 . S
C806 C807 1.391 . S
C806 C808 1.394 . S
C806 H822 0.931 . S
C807 C806 1.391 . S
C807 C811 1.376 . S
C808 C806 1.394 . S
C808 C809 1.369 . S
C808 C812 1.531 . S
C809 C808 1.369 . S
C809 C810 1.410 . S
C809 C817 1.503 . S
C810 C809 1.410 . S
C810 C811 1.392 . S
C810 C813 1.511 . S
C811 C807 1.376 . S
C811 C810 1.392 . S
C811 H823 0.929 . S
C812 C808 1.531 . S
C812 H824 0.960 . S
C812 H825 0.962 . S
C812 H826 0.960 . S
C813 C810 1.511 . S
C813 H827 0.961 . S
C813 H828 0.961 . S
C813 H829 0.961 1_556 S
C814 C815 1.370 . S
C814 C816 1.363 . S
C814 H830 0.931 . S
C815 C814 1.370 . S
C815 C819 1.408 . S
C816 C814 1.363 . S
C816 C817 1.370 . S
C816 C820 1.524 . S
C817 C809 1.503 . S
C817 C816 1.370 . S
C817 C818 1.403 . S
C818 C817 1.403 . S
C818 C819 1.404 . S
C818 C821 1.539 . S
C819 C815 1.408 . S
C819 C818 1.404 . S
C819 H831 0.930 . S
C820 C816 1.524 . S
C820 H832 0.956 . S
C820 H833 0.961 . S
C820 H834 0.961 . S
C821 C818 1.539 . S
C821 H835 0.958 . S
C821 H836 0.961 1_556 S
C821 H837 0.960 . S
H822 C806 0.931 . S
H823 C811 0.929 . S
H824 C812 0.960 . S
H825 C812 0.962 . S
H826 C812 0.960 . S
H827 C813 0.961 . S
H828 C813 0.961 . S
H829 C813 0.961 1_554 S
H830 C814 0.931 . S
H831 C819 0.930 . S
H832 C820 0.956 . S
H833 C820 0.961 . S
H834 C820 0.961 . S
H835 C821 0.958 . S
H836 C821 0.961 1_554 S
H837 C821 0.960 . S
C838 C839 1.391 . S
C838 C840 1.394 . S
C838 H854 0.931 . S
C839 C838 1.391 . S
C839 C843 1.376 . S
C840 C838 1.394 . S
C840 C841 1.369 . S
C840 C844 1.531 . S
C841 C840 1.369 . S
C841 C842 1.410 . S
C841 C849 1.503 . S
C842 C841 1.410 . S
C842 C843 1.392 . S
C842 C845 1.511 . S
C843 C839 1.376 . S
C843 C842 1.392 . S
C843 H855 0.929 . S
C844 C840 1.531 . S
C844 H856 0.960 . S
C844 H857 0.962 . S
C844 H858 0.960 . S
C845 C842 1.511 . S
C845 H859 0.961 . S
C845 H860 0.961 . S
C845 H861 0.961 . S
C846 C847 1.370 . S
C846 C848 1.363 . S
C846 H862 0.931 . S
C847 C846 1.370 . S
C847 C851 1.408 . S
C848 C846 1.363 . S
C848 C849 1.370 . S
C848 C852 1.524 . S
C849 C841 1.503 . S
C849 C848 1.370 . S
C849 C850 1.403 . S
C850 C849 1.403 . S
C850 C851 1.404 . S
C850 C853 1.539 . S
C851 C847 1.408 . S
C851 C850 1.404 . S
C851 H863 0.930 . S
C852 C848 1.524 . S
C852 H864 0.956 . S
C852 H865 0.961 . S
C852 H866 0.961 . S
C853 C850 1.539 . S
C853 H867 0.958 . S
C853 H868 0.961 . S
C853 H869 0.960 . S
H854 C838 0.931 . S
H855 C843 0.929 . S
H856 C844 0.960 . S
H857 C844 0.962 . S
H858 C844 0.960 . S
H859 C845 0.961 . S
H860 C845 0.961 . S
H861 C845 0.961 . S
H862 C846 0.931 . S
H863 C851 0.930 . S
H864 C852 0.956 . S
H865 C852 0.961 . S
H866 C852 0.961 . S
H867 C853 0.958 . S
H868 C853 0.961 . S
H869 C853 0.960 . S
C870 C871 1.391 . S
C870 C872 1.394 . S
C870 H886 0.931 . S
C871 C870 1.391 . S
C871 C875 1.376 . S
C872 C870 1.394 . S
C872 C873 1.369 . S
C872 C876 1.531 . S
C873 C872 1.369 . S
C873 C874 1.410 . S
C873 C881 1.503 . S
C874 C873 1.410 . S
C874 C875 1.392 . S
C874 C877 1.511 . S
C875 C871 1.376 . S
C875 C874 1.392 . S
C875 H887 0.929 . S
C876 C872 1.531 . S
C876 H888 0.960 . S
C876 H889 0.962 . S
C876 H890 0.960 . S
C877 C874 1.511 . S
C877 H891 0.961 . S
C877 H892 0.961 . S
C877 H893 0.961 . S
C878 C879 1.370 . S
C878 C880 1.363 . S
C878 H894 0.931 . S
C879 C878 1.370 . S
C879 C883 1.408 . S
C880 C878 1.363 . S
C880 C881 1.370 . S
C880 C884 1.524 . S
C881 C873 1.503 . S
C881 C880 1.370 . S
C881 C882 1.403 . S
C882 C881 1.403 . S
C882 C883 1.404 . S
C882 C885 1.539 . S
C883 C879 1.408 . S
C883 C882 1.404 . S
C883 H895 0.930 . S
C884 C880 1.524 . S
C884 H896 0.956 . S
C884 H897 0.961 . S
C884 H898 0.961 . S
C885 C882 1.539 . S
C885 H899 0.958 . S
C885 H900 0.961 . S
C885 H901 0.960 . S
H886 C870 0.931 . S
H887 C875 0.929 . S
H888 C876 0.960 . S
H889 C876 0.962 . S
H890 C876 0.960 . S
H891 C877 0.961 . S
H892 C877 0.961 . S
H893 C877 0.961 . S
H894 C878 0.931 . S
H895 C883 0.930 . S
H896 C884 0.956 . S
H897 C884 0.961 . S
H898 C884 0.961 . S
H899 C885 0.958 . S
H900 C885 0.961 . S
H901 C885 0.960 . S
C902 C903 1.391 . S
C902 C904 1.394 . S
C902 H918 0.931 . S
C903 C902 1.391 . S
C903 C907 1.376 . S
C904 C902 1.394 . S
C904 C905 1.369 . S
C904 C908 1.531 . S
C905 C904 1.369 . S
C905 C906 1.410 . S
C905 C913 1.503 . S
C906 C905 1.410 . S
C906 C907 1.392 . S
C906 C909 1.511 . S
C907 C903 1.376 . S
C907 C906 1.392 . S
C907 H919 0.929 . S
C908 C904 1.531 . S
C908 H920 0.960 . S
C908 H921 0.962 . S
C908 H922 0.960 . S
C909 C906 1.511 . S
C909 H923 0.961 . S
C909 H924 0.961 . S
C909 H925 0.961 . S
C910 C911 1.370 . S
C910 C912 1.363 . S
C910 H926 0.931 . S
C911 C910 1.370 . S
C911 C915 1.408 . S
C912 C910 1.363 . S
C912 C913 1.370 . S
C912 C916 1.524 . S
C913 C905 1.503 . S
C913 C912 1.370 . S
C913 C914 1.403 . S
C914 C913 1.403 . S
C914 C915 1.404 . S
C914 C917 1.539 . S
C915 C911 1.408 . S
C915 C914 1.404 . S
C915 H927 0.930 . S
C916 C912 1.524 . S
C916 H928 0.956 . S
C916 H929 0.961 . S
C916 H930 0.961 . S
C917 C914 1.539 . S
C917 H931 0.958 . S
C917 H932 0.961 1_556 S
C917 H933 0.960 . S
H918 C902 0.931 . S
H919 C907 0.929 . S
H920 C908 0.960 . S
H921 C908 0.962 . S
H922 C908 0.960 . S
H923 C909 0.961 . S
H924 C909 0.961 . S
H925 C909 0.961 . S
H926 C910 0.931 . S
H927 C915 0.930 . S
H928 C916 0.956 . S
H929 C916 0.961 . S
H930 C916 0.961 . S
H931 C917 0.958 . S
H932 C917 0.961 1_554 S
H933 C917 0.960 . S
C934 C935 1.391 . S
C934 C936 1.394 . S
C934 H950 0.931 . S
C935 C934 1.391 . S
C935 C939 1.376 . S
C936 C934 1.394 . S
C936 C937 1.369 . S
C936 C940 1.531 . S
C937 C936 1.369 . S
C937 C938 1.410 . S
C937 C945 1.503 . S
C938 C937 1.410 . S
C938 C939 1.392 . S
C938 C941 1.511 . S
C939 C935 1.376 . S
C939 C938 1.392 . S
C939 H951 0.929 . S
C940 C936 1.531 . S
C940 H952 0.960 . S
C940 H953 0.962 . S
C940 H954 0.960 . S
C941 C938 1.511 . S
C941 H955 0.961 . S
C941 H956 0.961 . S
C941 H957 0.961 . S
C942 C943 1.370 . S
C942 C944 1.363 . S
C942 H958 0.931 . S
C943 C942 1.370 . S
C943 C947 1.408 . S
C944 C942 1.363 . S
C944 C945 1.370 . S
C944 C948 1.524 . S
C945 C937 1.503 . S
C945 C944 1.370 . S
C945 C946 1.403 . S
C946 C945 1.403 . S
C946 C947 1.404 . S
C946 C949 1.539 . S
C947 C943 1.408 . S
C947 C946 1.404 . S
C947 H959 0.930 . S
C948 C944 1.524 . S
C948 H960 0.956 . S
C948 H961 0.961 . S
C948 H962 0.961 . S
C949 C946 1.539 . S
C949 H963 0.958 . S
C949 H964 0.961 . S
C949 H965 0.960 . S
H950 C934 0.931 . S
H951 C939 0.929 . S
H952 C940 0.960 . S
H953 C940 0.962 . S
H954 C940 0.960 . S
H955 C941 0.961 . S
H956 C941 0.961 . S
H957 C941 0.961 . S
H958 C942 0.931 . S
H959 C947 0.930 . S
H960 C948 0.956 . S
H961 C948 0.961 . S
H962 C948 0.961 . S
H963 C949 0.958 . S
H964 C949 0.961 . S
H965 C949 0.960 . S
C966 C967 1.391 . S
C966 C968 1.394 . S
C966 H982 0.931 . S
C967 C966 1.391 . S
C967 C971 1.376 . S
C968 C966 1.394 . S
C968 C969 1.369 . S
C968 C972 1.531 . S
C969 C968 1.369 . S
C969 C970 1.410 . S
C969 C977 1.503 . S
C970 C969 1.410 . S
C970 C971 1.392 . S
C970 C973 1.511 . S
C971 C967 1.376 . S
C971 C970 1.392 . S
C971 H983 0.929 . S
C972 C968 1.531 . S
C972 H984 0.960 . S
C972 H985 0.962 . S
C972 H986 0.960 . S
C973 C970 1.511 . S
C973 H987 0.961 . S
C973 H988 0.961 . S
C973 H989 0.961 . S
C974 C975 1.370 . S
C974 C976 1.363 . S
C974 H990 0.931 . S
C975 C974 1.370 . S
C975 C979 1.408 . S
C976 C974 1.363 . S
C976 C977 1.370 . S
C976 C980 1.524 . S
C977 C969 1.503 . S
C977 C976 1.370 . S
C977 C978 1.403 . S
C978 C977 1.403 . S
C978 C979 1.404 . S
C978 C981 1.539 . S
C979 C975 1.408 . S
C979 C978 1.404 . S
C979 H991 0.930 . S
C980 C976 1.524 . S
C980 H992 0.956 . S
C980 H993 0.961 . S
C980 H994 0.961 . S
C981 C978 1.539 . S
C981 H995 0.958 . S
C981 H996 0.961 . S
C981 H997 0.960 . S
H982 C966 0.931 . S
H983 C971 0.929 . S
H984 C972 0.960 . S
H985 C972 0.962 . S
H986 C972 0.960 . S
H987 C973 0.961 . S
H988 C973 0.961 . S
H989 C973 0.961 . S
H990 C974 0.931 . S
H991 C979 0.930 . S
H992 C980 0.956 . S
H993 C980 0.961 . S
H994 C980 0.961 . S
H995 C981 0.958 . S
H996 C981 0.961 . S
H997 C981 0.960 . S
C998 C999 1.391 . S
C998 C1000 1.394 . S
C998 H1014 0.931 . S
C999 C998 1.391 . S
C999 C1003 1.376 . S
C1000 C998 1.394 . S
C1000 C1001 1.369 . S
C1000 C1004 1.531 . S
C1001 C1000 1.369 . S
C1001 C1002 1.410 . S
C1001 C1009 1.503 . S
C1002 C1001 1.410 . S
C1002 C1003 1.392 . S
C1002 C1005 1.511 . S
C1003 C999 1.376 . S
C1003 C1002 1.392 . S
C1003 H1015 0.929 . S
C1004 C1000 1.531 . S
C1004 H1016 0.960 . S
C1004 H1017 0.962 . S
C1004 H1018 0.960 . S
C1005 C1002 1.511 . S
C1005 H1019 0.961 . S
C1005 H1020 0.961 . S
C1005 H1021 0.961 . S
C1006 C1007 1.370 . S
C1006 C1008 1.363 . S
C1006 H1022 0.931 . S
C1007 C1006 1.370 . S
C1007 C1011 1.408 . S
C1008 C1006 1.363 . S
C1008 C1009 1.370 . S
C1008 C1012 1.524 . S
C1009 C1001 1.503 . S
C1009 C1008 1.370 . S
C1009 C1010 1.403 . S
C1010 C1009 1.403 . S
C1010 C1011 1.404 . S
C1010 C1013 1.539 . S
C1011 C1007 1.408 . S
C1011 C1010 1.404 . S
C1011 H1023 0.930 . S
C1012 C1008 1.524 . S
C1012 H1024 0.956 . S
C1012 H1025 0.961 . S
C1012 H1026 0.961 . S
C1013 C1010 1.539 . S
C1013 H1027 0.958 . S
C1013 H1028 0.961 . S
C1013 H1029 0.960 . S
H1014 C998 0.931 . S
H1015 C1003 0.929 . S
H1016 C1004 0.960 . S
H1017 C1004 0.962 . S
H1018 C1004 0.960 . S
H1019 C1005 0.961 . S
H1020 C1005 0.961 . S
H1021 C1005 0.961 . S
H1022 C1006 0.931 . S
H1023 C1011 0.930 . S
H1024 C1012 0.956 . S
H1025 C1012 0.961 . S
H1026 C1012 0.961 . S
H1027 C1013 0.958 . S
H1028 C1013 0.961 . S
H1029 C1013 0.960 . S
C1030 C1031 1.391 . S
C1030 C1032 1.394 . S
C1030 H1046 0.931 . S
C1031 C1030 1.391 . S
C1031 C1035 1.376 . S
C1032 C1030 1.394 . S
C1032 C1033 1.369 . S
C1032 C1036 1.531 . S
C1033 C1032 1.369 . S
C1033 C1034 1.410 . S
C1033 C1041 1.503 . S
C1034 C1033 1.410 . S
C1034 C1035 1.392 . S
C1034 C1037 1.511 . S
C1035 C1031 1.376 . S
C1035 C1034 1.392 . S
C1035 H1047 0.929 . S
C1036 C1032 1.531 . S
C1036 H1048 0.960 . S
C1036 H1049 0.962 . S
C1036 H1050 0.960 . S
C1037 C1034 1.511 . S
C1037 H1051 0.961 . S
C1037 H1052 0.961 . S
C1037 H1053 0.961 . S
C1038 C1039 1.370 . S
C1038 C1040 1.363 . S
C1038 H1054 0.931 . S
C1039 C1038 1.370 . S
C1039 C1043 1.408 . S
C1040 C1038 1.363 . S
C1040 C1041 1.370 . S
C1040 C1044 1.524 . S
C1041 C1033 1.503 . S
C1041 C1040 1.370 . S
C1041 C1042 1.403 . S
C1042 C1041 1.403 . S
C1042 C1043 1.404 . S
C1042 C1045 1.539 . S
C1043 C1039 1.408 . S
C1043 C1042 1.404 . S
C1043 H1055 0.930 . S
C1044 C1040 1.524 . S
C1044 H1056 0.956 . S
C1044 H1057 0.961 . S
C1044 H1058 0.961 . S
C1045 C1042 1.539 . S
C1045 H1059 0.958 . S
C1045 H1060 0.961 . S
C1045 H1061 0.960 . S
H1046 C1030 0.931 . S
H1047 C1035 0.929 . S
H1048 C1036 0.960 . S
H1049 C1036 0.962 . S
H1050 C1036 0.960 . S
H1051 C1037 0.961 . S
H1052 C1037 0.961 . S
H1053 C1037 0.961 . S
H1054 C1038 0.931 . S
H1055 C1043 0.930 . S
H1056 C1044 0.956 . S
H1057 C1044 0.961 . S
H1058 C1044 0.961 . S
H1059 C1045 0.958 . S
H1060 C1045 0.961 . S
H1061 C1045 0.960 . S
C1062 C1063 1.391 . S
C1062 C1064 1.394 . S
C1062 H1078 0.931 . S
C1063 C1062 1.391 . S
C1063 C1067 1.376 . S
C1064 C1062 1.394 . S
C1064 C1065 1.369 . S
C1064 C1068 1.531 . S
C1065 C1064 1.369 . S
C1065 C1066 1.410 . S
C1065 C1073 1.503 . S
C1066 C1065 1.410 . S
C1066 C1067 1.392 . S
C1066 C1069 1.511 . S
C1067 C1063 1.376 . S
C1067 C1066 1.392 . S
C1067 H1079 0.929 . S
C1068 C1064 1.531 . S
C1068 H1080 0.960 . S
C1068 H1081 0.962 . S
C1068 H1082 0.960 . S
C1069 C1066 1.511 . S
C1069 H1083 0.961 . S
C1069 H1084 0.961 . S
C1069 H1085 0.961 . S
C1070 C1071 1.370 . S
C1070 C1072 1.363 . S
C1070 H1086 0.931 . S
C1071 C1070 1.370 . S
C1071 C1075 1.408 . S
C1072 C1070 1.363 . S
C1072 C1073 1.370 . S
C1072 C1076 1.524 . S
C1073 C1065 1.503 . S
C1073 C1072 1.370 . S
C1073 C1074 1.403 . S
C1074 C1073 1.403 . S
C1074 C1075 1.404 . S
C1074 C1077 1.539 . S
C1075 C1071 1.408 . S
C1075 C1074 1.404 . S
C1075 H1087 0.930 . S
C1076 C1072 1.524 . S
C1076 H1088 0.956 . S
C1076 H1089 0.961 . S
C1076 H1090 0.961 . S
C1077 C1074 1.539 . S
C1077 H1091 0.956 1_554 S
C1077 H1092 0.961 . S
C1077 H1093 0.960 . S
H1078 C1062 0.931 . S
H1079 C1067 0.929 . S
H1080 C1068 0.960 . S
H1081 C1068 0.962 . S
H1082 C1068 0.960 . S
H1083 C1069 0.961 . S
H1084 C1069 0.961 . S
H1085 C1069 0.961 . S
H1086 C1070 0.931 . S
H1087 C1075 0.930 . S
H1088 C1076 0.956 . S
H1089 C1076 0.961 . S
H1090 C1076 0.961 . S
H1091 C1077 0.956 1_556 S
H1092 C1077 0.961 . S
H1093 C1077 0.960 . S
C1094 C1095 1.391 . S
C1094 C1096 1.394 . S
C1094 H1110 0.931 . S
C1095 C1094 1.391 . S
C1095 C1099 1.376 . S
C1096 C1094 1.394 . S
C1096 C1097 1.369 . S
C1096 C1100 1.531 . S
C1097 C1096 1.369 . S
C1097 C1098 1.410 . S
C1097 C1105 1.503 . S
C1098 C1097 1.410 . S
C1098 C1099 1.392 . S
C1098 C1101 1.511 . S
C1099 C1095 1.376 . S
C1099 C1098 1.392 . S
C1099 H1111 0.929 . S
C1100 C1096 1.531 . S
C1100 H1112 0.960 . S
C1100 H1113 0.962 . S
C1100 H1114 0.960 . S
C1101 C1098 1.511 . S
C1101 H1115 0.961 . S
C1101 H1116 0.961 . S
C1101 H1117 0.961 . S
C1102 C1103 1.370 . S
C1102 C1104 1.363 . S
C1102 H1118 0.931 . S
C1103 C1102 1.370 . S
C1103 C1107 1.408 . S
C1104 C1102 1.363 . S
C1104 C1105 1.370 . S
C1104 C1108 1.524 . S
C1105 C1097 1.503 . S
C1105 C1104 1.370 . S
C1105 C1106 1.403 . S
C1106 C1105 1.403 . S
C1106 C1107 1.404 . S
C1106 C1109 1.539 . S
C1107 C1103 1.408 . S
C1107 C1106 1.404 . S
C1107 H1119 0.930 . S
C1108 C1104 1.524 . S
C1108 H1120 0.956 . S
C1108 H1121 0.961 . S
C1108 H1122 0.961 . S
C1109 C1106 1.539 . S
C1109 H1123 0.958 . S
C1109 H1124 0.961 . S
C1109 H1125 0.960 . S
H1110 C1094 0.931 . S
H1111 C1099 0.929 . S
H1112 C1100 0.960 . S
H1113 C1100 0.962 . S
H1114 C1100 0.960 . S
H1115 C1101 0.961 . S
H1116 C1101 0.961 . S
H1117 C1101 0.961 . S
H1118 C1102 0.931 . S
H1119 C1107 0.930 . S
H1120 C1108 0.956 . S
H1121 C1108 0.961 . S
H1122 C1108 0.961 . S
H1123 C1109 0.958 . S
H1124 C1109 0.961 . S
H1125 C1109 0.960 . S
C1126 C1127 1.391 . S
C1126 C1128 1.394 . S
C1126 H1142 0.931 . S
C1127 C1126 1.391 . S
C1127 C1131 1.376 . S
C1128 C1126 1.394 . S
C1128 C1129 1.369 . S
C1128 C1132 1.531 . S
C1129 C1128 1.369 . S
C1129 C1130 1.410 . S
C1129 C1137 1.503 . S
C1130 C1129 1.410 . S
C1130 C1131 1.392 . S
C1130 C1133 1.511 . S
C1131 C1127 1.376 . S
C1131 C1130 1.392 . S
C1131 H1143 0.929 . S
C1132 C1128 1.531 . S
C1132 H1144 0.960 . S
C1132 H1145 0.962 . S
C1132 H1146 0.960 . S
C1133 C1130 1.511 . S
C1133 H1147 0.961 . S
C1133 H1148 0.961 . S
C1133 H1149 0.961 . S
C1134 C1135 1.370 . S
C1134 C1136 1.363 . S
C1134 H1150 0.931 . S
C1135 C1134 1.370 . S
C1135 C1139 1.408 . S
C1136 C1134 1.363 . S
C1136 C1137 1.370 . S
C1136 C1140 1.524 . S
C1137 C1129 1.503 . S
C1137 C1136 1.370 . S
C1137 C1138 1.403 . S
C1138 C1137 1.403 . S
C1138 C1139 1.404 . S
C1138 C1141 1.539 . S
C1139 C1135 1.408 . S
C1139 C1138 1.404 . S
C1139 H1151 0.930 . S
C1140 C1136 1.524 . S
C1140 H1152 0.956 . S
C1140 H1153 0.961 . S
C1140 H1154 0.961 . S
C1141 C1138 1.539 . S
C1141 H1155 0.958 . S
C1141 H1156 0.961 . S
C1141 H1157 0.960 . S
H1142 C1126 0.931 . S
H1143 C1131 0.929 . S
H1144 C1132 0.960 . S
H1145 C1132 0.962 . S
H1146 C1132 0.960 . S
H1147 C1133 0.961 . S
H1148 C1133 0.961 . S
H1149 C1133 0.961 . S
H1150 C1134 0.931 . S
H1151 C1139 0.930 . S
H1152 C1140 0.956 . S
H1153 C1140 0.961 . S
H1154 C1140 0.961 . S
H1155 C1141 0.958 . S
H1156 C1141 0.961 . S
H1157 C1141 0.960 . S
C1158 C1159 1.391 . S
C1158 C1160 1.394 . S
C1158 H1174 0.931 . S
C1159 C1158 1.391 . S
C1159 C1163 1.376 . S
C1160 C1158 1.394 . S
C1160 C1161 1.369 . S
C1160 C1164 1.531 . S
C1161 C1160 1.369 . S
C1161 C1162 1.410 . S
C1161 C1169 1.503 . S
C1162 C1161 1.410 . S
C1162 C1163 1.392 . S
C1162 C1165 1.511 . S
C1163 C1159 1.376 . S
C1163 C1162 1.392 . S
C1163 H1175 0.929 . S
C1164 C1160 1.531 . S
C1164 H1176 0.960 . S
C1164 H1177 0.962 . S
C1164 H1178 0.960 . S
C1165 C1162 1.511 . S
C1165 H1179 0.961 . S
C1165 H1180 0.961 . S
C1165 H1181 0.961 . S
C1166 C1167 1.370 . S
C1166 C1168 1.363 . S
C1166 H1182 0.931 . S
C1167 C1166 1.370 . S
C1167 C1171 1.408 . S
C1168 C1166 1.363 . S
C1168 C1169 1.370 . S
C1168 C1172 1.524 . S
C1169 C1161 1.503 . S
C1169 C1168 1.370 . S
C1169 C1170 1.403 . S
C1170 C1169 1.403 . S
C1170 C1171 1.404 . S
C1170 C1173 1.539 . S
C1171 C1167 1.408 . S
C1171 C1170 1.404 . S
C1171 H1183 0.930 . S
C1172 C1168 1.524 . S
C1172 H1184 0.956 . S
C1172 H1185 0.961 . S
C1172 H1186 0.961 . S
C1173 C1170 1.539 . S
C1173 H1187 0.958 . S
C1173 H1188 0.961 . S
C1173 H1189 0.960 . S
H1174 C1158 0.931 . S
H1175 C1163 0.929 . S
H1176 C1164 0.960 . S
H1177 C1164 0.962 . S
H1178 C1164 0.960 . S
H1179 C1165 0.961 . S
H1180 C1165 0.961 . S
H1181 C1165 0.961 . S
H1182 C1166 0.931 . S
H1183 C1171 0.930 . S
H1184 C1172 0.956 . S
H1185 C1172 0.961 . S
H1186 C1172 0.961 . S
H1187 C1173 0.958 . S
H1188 C1173 0.961 . S
H1189 C1173 0.960 . S
C1190 C1191 1.391 . S
C1190 C1192 1.394 . S
C1190 H1206 0.931 . S
C1191 C1190 1.391 . S
C1191 C1195 1.376 . S
C1192 C1190 1.394 . S
C1192 C1193 1.369 . S
C1192 C1196 1.531 . S
C1193 C1192 1.369 . S
C1193 C1194 1.410 . S
C1193 C1201 1.503 . S
C1194 C1193 1.410 . S
C1194 C1195 1.392 . S
C1194 C1197 1.511 . S
C1195 C1191 1.376 . S
C1195 C1194 1.392 . S
C1195 H1207 0.929 . S
C1196 C1192 1.531 . S
C1196 H1208 0.960 . S
C1196 H1209 0.962 . S
C1196 H1210 0.960 . S
C1197 C1194 1.511 . S
C1197 H1211 0.961 . S
C1197 H1212 0.961 . S
C1197 H1213 0.961 . S
C1198 C1199 1.370 . S
C1198 C1200 1.363 . S
C1198 H1214 0.931 . S
C1199 C1198 1.370 . S
C1199 C1203 1.408 . S
C1200 C1198 1.363 . S
C1200 C1201 1.370 . S
C1200 C1204 1.524 . S
C1201 C1193 1.503 . S
C1201 C1200 1.370 . S
C1201 C1202 1.403 . S
C1202 C1201 1.403 . S
C1202 C1203 1.404 . S
C1202 C1205 1.539 . S
C1203 C1199 1.408 . S
C1203 C1202 1.404 . S
C1203 H1215 0.930 . S
C1204 C1200 1.524 . S
C1204 H1216 0.956 . S
C1204 H1217 0.961 . S
C1204 H1218 0.961 . S
C1205 C1202 1.539 . S
C1205 H1219 0.958 . S
C1205 H1220 0.961 . S
C1205 H1221 0.960 . S
H1206 C1190 0.931 . S
H1207 C1195 0.929 . S
H1208 C1196 0.960 . S
H1209 C1196 0.962 . S
H1210 C1196 0.960 . S
H1211 C1197 0.961 . S
H1212 C1197 0.961 . S
H1213 C1197 0.961 . S
H1214 C1198 0.931 . S
H1215 C1203 0.930 . S
H1216 C1204 0.956 . S
H1217 C1204 0.961 . S
H1218 C1204 0.961 . S
H1219 C1205 0.958 . S
H1220 C1205 0.961 . S
H1221 C1205 0.960 . S
C1222 C1223 1.391 . S
C1222 C1224 1.394 . S
C1222 H1238 0.931 . S
C1223 C1222 1.391 . S
C1223 C1227 1.376 . S
C1224 C1222 1.394 . S
C1224 C1225 1.369 . S
C1224 C1228 1.531 . S
C1225 C1224 1.369 . S
C1225 C1226 1.410 . S
C1225 C1233 1.503 . S
C1226 C1225 1.410 . S
C1226 C1227 1.392 . S
C1226 C1229 1.511 . S
C1227 C1223 1.376 . S
C1227 C1226 1.392 . S
C1227 H1239 0.929 . S
C1228 C1224 1.531 . S
C1228 H1240 0.960 . S
C1228 H1241 0.962 . S
C1228 H1242 0.960 . S
C1229 C1226 1.511 . S
C1229 H1243 0.961 . S
C1229 H1244 0.961 . S
C1229 H1245 0.961 . S
C1230 C1231 1.370 . S
C1230 C1232 1.363 . S
C1230 H1246 0.931 . S
C1231 C1230 1.370 . S
C1231 C1235 1.408 . S
C1232 C1230 1.363 . S
C1232 C1233 1.370 . S
C1232 C1236 1.524 . S
C1233 C1225 1.503 . S
C1233 C1232 1.370 . S
C1233 C1234 1.403 . S
C1234 C1233 1.403 . S
C1234 C1235 1.404 . S
C1234 C1237 1.539 . S
C1235 C1231 1.408 . S
C1235 C1234 1.404 . S
C1235 H1247 0.930 . S
C1236 C1232 1.524 . S
C1236 H1248 0.956 . S
C1236 H1249 0.961 . S
C1236 H1250 0.961 . S
C1237 C1234 1.539 . S
C1237 H1251 0.958 . S
C1237 H1252 0.961 1_556 S
C1237 H1253 0.960 . S
H1238 C1222 0.931 . S
H1239 C1227 0.929 . S
H1240 C1228 0.960 . S
H1241 C1228 0.962 . S
H1242 C1228 0.960 . S
H1243 C1229 0.961 . S
H1244 C1229 0.961 . S
H1245 C1229 0.961 . S
H1246 C1230 0.931 . S
H1247 C1235 0.930 . S
H1248 C1236 0.956 . S
H1249 C1236 0.961 . S
H1250 C1236 0.961 . S
H1251 C1237 0.958 . S
H1252 C1237 0.961 1_554 S
H1253 C1237 0.960 . S
C1254 C1255 1.391 . S
C1254 C1256 1.394 . S
C1254 H1270 0.931 . S
C1255 C1254 1.391 . S
C1255 C1259 1.376 . S
C1256 C1254 1.394 . S
C1256 C1257 1.369 . S
C1256 C1260 1.531 . S
C1257 C1256 1.369 . S
C1257 C1258 1.410 . S
C1257 C1265 1.503 . S
C1258 C1257 1.410 . S
C1258 C1259 1.392 . S
C1258 C1261 1.511 . S
C1259 C1255 1.376 . S
C1259 C1258 1.392 . S
C1259 H1271 0.929 . S
C1260 C1256 1.531 . S
C1260 H1272 0.960 . S
C1260 H1273 0.962 . S
C1260 H1274 0.960 . S
C1261 C1258 1.511 . S
C1261 H1275 0.961 . S
C1261 H1276 0.961 . S
C1261 H1277 0.961 . S
C1262 C1263 1.370 . S
C1262 C1264 1.363 . S
C1262 H1278 0.931 . S
C1263 C1262 1.370 . S
C1263 C1267 1.408 . S
C1264 C1262 1.363 . S
C1264 C1265 1.370 . S
C1264 C1268 1.524 . S
C1265 C1257 1.503 . S
C1265 C1264 1.370 . S
C1265 C1266 1.403 . S
C1266 C1265 1.403 . S
C1266 C1267 1.404 . S
C1266 C1269 1.539 . S
C1267 C1263 1.408 . S
C1267 C1266 1.404 . S
C1267 H1279 0.930 . S
C1268 C1264 1.524 . S
C1268 H1280 0.956 . S
C1268 H1281 0.961 . S
C1268 H1282 0.961 . S
C1269 C1266 1.539 . S
C1269 H1283 0.958 . S
C1269 H1284 0.961 . S
C1269 H1285 0.960 . S
H1270 C1254 0.931 . S
H1271 C1259 0.929 . S
H1272 C1260 0.960 . S
H1273 C1260 0.962 . S
H1274 C1260 0.960 . S
H1275 C1261 0.961 . S
H1276 C1261 0.961 . S
H1277 C1261 0.961 . S
H1278 C1262 0.931 . S
H1279 C1267 0.930 . S
H1280 C1268 0.956 . S
H1281 C1268 0.961 . S
H1282 C1268 0.961 . S
H1283 C1269 0.958 . S
H1284 C1269 0.961 . S
H1285 C1269 0.960 . S
C1286 C1287 1.391 . S
C1286 C1288 1.394 . S
C1286 H1302 0.931 . S
C1287 C1286 1.391 . S
C1287 C1291 1.376 . S
C1288 C1286 1.394 . S
C1288 C1289 1.369 . S
C1288 C1292 1.531 . S
C1289 C1288 1.369 . S
C1289 C1290 1.410 . S
C1289 C1297 1.503 . S
C1290 C1289 1.410 . S
C1290 C1291 1.392 . S
C1290 C1293 1.511 . S
C1291 C1287 1.376 . S
C1291 C1290 1.392 . S
C1291 H1303 0.929 . S
C1292 C1288 1.531 . S
C1292 H1304 0.960 . S
C1292 H1305 0.962 . S
C1292 H1306 0.960 . S
C1293 C1290 1.511 . S
C1293 H1307 0.961 . S
C1293 H1308 0.961 . S
C1293 H1309 0.961 . S
C1294 C1295 1.370 . S
C1294 C1296 1.363 . S
C1294 H1310 0.931 . S
C1295 C1294 1.370 . S
C1295 C1299 1.408 . S
C1296 C1294 1.363 . S
C1296 C1297 1.370 . S
C1296 C1300 1.524 . S
C1297 C1289 1.503 . S
C1297 C1296 1.370 . S
C1297 C1298 1.403 . S
C1298 C1297 1.403 . S
C1298 C1299 1.404 . S
C1298 C1301 1.539 . S
C1299 C1295 1.408 . S
C1299 C1298 1.404 . S
C1299 H1311 0.930 . S
C1300 C1296 1.524 . S
C1300 H1312 0.956 . S
C1300 H1313 0.961 . S
C1300 H1314 0.961 . S
C1301 C1298 1.539 . S
C1301 H1315 0.958 . S
C1301 H1316 0.961 . S
C1301 H1317 0.960 . S
H1302 C1286 0.931 . S
H1303 C1291 0.929 . S
H1304 C1292 0.960 . S
H1305 C1292 0.962 . S
H1306 C1292 0.960 . S
H1307 C1293 0.961 . S
H1308 C1293 0.961 . S
H1309 C1293 0.961 . S
H1310 C1294 0.931 . S
H1311 C1299 0.930 . S
H1312 C1300 0.956 . S
H1313 C1300 0.961 . S
H1314 C1300 0.961 . S
H1315 C1301 0.958 . S
H1316 C1301 0.961 . S
H1317 C1301 0.960 . S
C1318 C1319 1.391 . S
C1318 C1320 1.394 . S
C1318 H1334 0.931 . S
C1319 C1318 1.391 . S
C1319 C1323 1.376 . S
C1320 C1318 1.394 . S
C1320 C1321 1.369 . S
C1320 C1324 1.531 . S
C1321 C1320 1.369 . S
C1321 C1322 1.410 . S
C1321 C1329 1.503 . S
C1322 C1321 1.410 . S
C1322 C1323 1.392 . S
C1322 C1325 1.511 . S
C1323 C1319 1.376 . S
C1323 C1322 1.392 . S
C1323 H1335 0.929 . S
C1324 C1320 1.531 . S
C1324 H1336 0.960 . S
C1324 H1337 0.962 . S
C1324 H1338 0.960 . S
C1325 C1322 1.511 . S
C1325 H1339 0.961 . S
C1325 H1340 0.961 . S
C1325 H1341 0.961 . S
C1326 C1327 1.370 . S
C1326 C1328 1.363 . S
C1326 H1342 0.931 . S
C1327 C1326 1.370 . S
C1327 C1331 1.408 . S
C1328 C1326 1.363 . S
C1328 C1329 1.370 . S
C1328 C1332 1.524 . S
C1329 C1321 1.503 . S
C1329 C1328 1.370 . S
C1329 C1330 1.403 . S
C1330 C1329 1.403 . S
C1330 C1331 1.404 . S
C1330 C1333 1.539 . S
C1331 C1327 1.408 . S
C1331 C1330 1.404 . S
C1331 H1343 0.930 . S
C1332 C1328 1.524 . S
C1332 H1344 0.956 . S
C1332 H1345 0.961 . S
C1332 H1346 0.961 . S
C1333 C1330 1.539 . S
C1333 H1347 0.958 . S
C1333 H1348 0.961 . S
C1333 H1349 0.960 . S
H1334 C1318 0.931 . S
H1335 C1323 0.929 . S
H1336 C1324 0.960 . S
H1337 C1324 0.962 . S
H1338 C1324 0.960 . S
H1339 C1325 0.961 . S
H1340 C1325 0.961 . S
H1341 C1325 0.961 . S
H1342 C1326 0.931 . S
H1343 C1331 0.930 . S
H1344 C1332 0.956 . S
H1345 C1332 0.961 . S
H1346 C1332 0.961 . S
H1347 C1333 0.958 . S
H1348 C1333 0.961 . S
H1349 C1333 0.960 . S
C1350 C1351 1.391 . S
C1350 C1352 1.394 . S
C1350 H1366 0.931 . S
C1351 C1350 1.391 . S
C1351 C1355 1.376 . S
C1352 C1350 1.394 . S
C1352 C1353 1.369 . S
C1352 C1356 1.531 . S
C1353 C1352 1.369 . S
C1353 C1354 1.410 . S
C1353 C1361 1.503 . S
C1354 C1353 1.410 . S
C1354 C1355 1.392 . S
C1354 C1357 1.511 . S
C1355 C1351 1.376 . S
C1355 C1354 1.392 . S
C1355 H1367 0.929 . S
C1356 C1352 1.531 . S
C1356 H1368 0.960 . S
C1356 H1369 0.962 . S
C1356 H1370 0.960 . S
C1357 C1354 1.511 . S
C1357 H1371 0.961 . S
C1357 H1372 0.961 . S
C1357 H1373 0.961 . S
C1358 C1359 1.370 . S
C1358 C1360 1.363 . S
C1358 H1374 0.931 . S
C1359 C1358 1.370 . S
C1359 C1363 1.408 . S
C1360 C1358 1.363 . S
C1360 C1361 1.370 . S
C1360 C1364 1.524 . S
C1361 C1353 1.503 . S
C1361 C1360 1.370 . S
C1361 C1362 1.403 . S
C1362 C1361 1.403 . S
C1362 C1363 1.404 . S
C1362 C1365 1.539 . S
C1363 C1359 1.408 . S
C1363 C1362 1.404 . S
C1363 H1375 0.930 . S
C1364 C1360 1.524 . S
C1364 H1376 0.956 . S
C1364 H1377 0.961 . S
C1364 H1378 0.961 . S
C1365 C1362 1.539 . S
C1365 H1379 0.958 . S
C1365 H1380 0.961 . S
C1365 H1381 0.960 . S
H1366 C1350 0.931 . S
H1367 C1355 0.929 . S
H1368 C1356 0.960 . S
H1369 C1356 0.962 . S
H1370 C1356 0.960 . S
H1371 C1357 0.961 . S
H1372 C1357 0.961 . S
H1373 C1357 0.961 . S
H1374 C1358 0.931 . S
H1375 C1363 0.930 . S
H1376 C1364 0.956 . S
H1377 C1364 0.961 . S
H1378 C1364 0.961 . S
H1379 C1365 0.958 . S
H1380 C1365 0.961 . S
H1381 C1365 0.960 . S
C1382 C1383 1.391 . S
C1382 C1384 1.394 . S
C1382 H1398 0.931 . S
C1383 C1382 1.391 . S
C1383 C1387 1.376 . S
C1384 C1382 1.394 . S
C1384 C1385 1.369 . S
C1384 C1388 1.531 . S
C1385 C1384 1.369 . S
C1385 C1386 1.410 . S
C1385 C1393 1.503 . S
C1386 C1385 1.410 . S
C1386 C1387 1.392 . S
C1386 C1389 1.511 . S
C1387 C1383 1.376 . S
C1387 C1386 1.392 . S
C1387 H1399 0.929 . S
C1388 C1384 1.531 . S
C1388 H1400 0.960 . S
C1388 H1401 0.962 . S
C1388 H1402 0.960 . S
C1389 C1386 1.511 . S
C1389 H1403 0.961 . S
C1389 H1404 0.961 . S
C1389 H1405 0.961 . S
C1390 C1391 1.370 . S
C1390 C1392 1.363 . S
C1390 H1406 0.931 . S
C1391 C1390 1.370 . S
C1391 C1395 1.408 . S
C1392 C1390 1.363 . S
C1392 C1393 1.370 . S
C1392 C1396 1.524 . S
C1393 C1385 1.503 . S
C1393 C1392 1.370 . S
C1393 C1394 1.403 . S
C1394 C1393 1.403 . S
C1394 C1395 1.404 . S
C1394 C1397 1.539 . S
C1395 C1391 1.408 . S
C1395 C1394 1.404 . S
C1395 H1407 0.930 . S
C1396 C1392 1.524 . S
C1396 H1408 0.956 . S
C1396 H1409 0.961 . S
C1396 H1410 0.961 . S
C1397 C1394 1.539 . S
C1397 H1411 0.958 . S
C1397 H1412 0.961 . S
C1397 H1413 0.960 . S
H1398 C1382 0.931 . S
H1399 C1387 0.929 . S
H1400 C1388 0.960 . S
H1401 C1388 0.962 . S
H1402 C1388 0.960 . S
H1403 C1389 0.961 . S
H1404 C1389 0.961 . S
H1405 C1389 0.961 . S
H1406 C1390 0.931 . S
H1407 C1395 0.930 . S
H1408 C1396 0.956 . S
H1409 C1396 0.961 . S
H1410 C1396 0.961 . S
H1411 C1397 0.958 . S
H1412 C1397 0.961 . S
H1413 C1397 0.960 . S
C1414 C1415 1.391 . S
C1414 C1416 1.394 . S
C1414 H1430 0.931 . S
C1415 C1414 1.391 . S
C1415 C1419 1.376 . S
C1416 C1414 1.394 . S
C1416 C1417 1.369 . S
C1416 C1420 1.531 . S
C1417 C1416 1.369 . S
C1417 C1418 1.410 . S
C1417 C1425 1.503 . S
C1418 C1417 1.410 . S
C1418 C1419 1.392 . S
C1418 C1421 1.511 . S
C1419 C1415 1.376 . S
C1419 C1418 1.392 . S
C1419 H1431 0.929 . S
C1420 C1416 1.531 . S
C1420 H1432 0.960 . S
C1420 H1433 0.962 . S
C1420 H1434 0.960 . S
C1421 C1418 1.511 . S
C1421 H1435 0.961 . S
C1421 H1436 0.961 . S
C1421 H1437 0.961 . S
C1422 C1423 1.370 . S
C1422 C1424 1.363 . S
C1422 H1438 0.931 . S
C1423 C1422 1.370 . S
C1423 C1427 1.408 . S
C1424 C1422 1.363 . S
C1424 C1425 1.370 . S
C1424 C1428 1.524 . S
C1425 C1417 1.503 . S
C1425 C1424 1.370 . S
C1425 C1426 1.403 . S
C1426 C1425 1.403 . S
C1426 C1427 1.404 . S
C1426 C1429 1.539 . S
C1427 C1423 1.408 . S
C1427 C1426 1.404 . S
C1427 H1439 0.930 . S
C1428 C1424 1.524 . S
C1428 H1440 0.956 . S
C1428 H1441 0.961 . S
C1428 H1442 0.961 . S
C1429 C1426 1.539 . S
C1429 H1443 0.958 . S
C1429 H1444 0.961 . S
C1429 H1445 0.960 . S
H1430 C1414 0.931 . S
H1431 C1419 0.929 . S
H1432 C1420 0.960 . S
H1433 C1420 0.962 . S
H1434 C1420 0.960 . S
H1435 C1421 0.961 . S
H1436 C1421 0.961 . S
H1437 C1421 0.961 . S
H1438 C1422 0.931 . S
H1439 C1427 0.930 . S
H1440 C1428 0.956 . S
H1441 C1428 0.961 . S
H1442 C1428 0.961 . S
H1443 C1429 0.958 . S
H1444 C1429 0.961 . S
H1445 C1429 0.960 . S
C1446 C1447 1.391 . S
C1446 C1448 1.394 . S
C1446 H1462 0.931 . S
C1447 C1446 1.391 . S
C1447 C1451 1.376 . S
C1448 C1446 1.394 . S
C1448 C1449 1.369 . S
C1448 C1452 1.531 . S
C1449 C1448 1.369 . S
C1449 C1450 1.410 . S
C1449 C1457 1.503 . S
C1450 C1449 1.410 . S
C1450 C1451 1.392 . S
C1450 C1453 1.511 . S
C1451 C1447 1.376 . S
C1451 C1450 1.392 . S
C1451 H1463 0.929 . S
C1452 C1448 1.531 . S
C1452 H1464 0.960 . S
C1452 H1465 0.962 . S
C1452 H1466 0.960 . S
C1453 C1450 1.511 . S
C1453 H1467 0.961 . S
C1453 H1468 0.961 . S
C1453 H1469 0.961 . S
C1454 C1455 1.370 . S
C1454 C1456 1.363 . S
C1454 H1470 0.931 . S
C1455 C1454 1.370 . S
C1455 C1459 1.408 . S
C1456 C1454 1.363 . S
C1456 C1457 1.370 . S
C1456 C1460 1.524 . S
C1457 C1449 1.503 . S
C1457 C1456 1.370 . S
C1457 C1458 1.403 . S
C1458 C1457 1.403 . S
C1458 C1459 1.404 . S
C1458 C1461 1.539 . S
C1459 C1455 1.408 . S
C1459 C1458 1.404 . S
C1459 H1471 0.930 . S
C1460 C1456 1.524 . S
C1460 H1472 0.956 . S
C1460 H1473 0.961 . S
C1460 H1474 0.961 . S
C1461 C1458 1.539 . S
C1461 H1475 0.958 . S
C1461 H1476 0.961 . S
C1461 H1477 0.960 . S
H1462 C1446 0.931 . S
H1463 C1451 0.929 . S
H1464 C1452 0.960 . S
H1465 C1452 0.962 . S
H1466 C1452 0.960 . S
H1467 C1453 0.961 . S
H1468 C1453 0.961 . S
H1469 C1453 0.961 . S
H1470 C1454 0.931 . S
H1471 C1459 0.930 . S
H1472 C1460 0.956 . S
H1473 C1460 0.961 . S
H1474 C1460 0.961 . S
H1475 C1461 0.958 . S
H1476 C1461 0.961 . S
H1477 C1461 0.960 . S
C1478 C1479 1.391 . S
C1478 C1480 1.394 . S
C1478 H1494 0.931 . S
C1479 C1478 1.391 . S
C1479 C1483 1.376 . S
C1480 C1478 1.394 . S
C1480 C1481 1.369 . S
C1480 C1484 1.531 . S
C1481 C1480 1.369 . S
C1481 C1482 1.410 . S
C1481 C1489 1.503 . S
C1482 C1481 1.410 . S
C1482 C1483 1.392 . S
C1482 C1485 1.511 . S
C1483 C1479 1.376 . S
C1483 C1482 1.392 . S
C1483 H1495 0.929 . S
C1484 C1480 1.531 . S
C1484 H1496 0.960 . S
C1484 H1497 0.962 . S
C1484 H1498 0.960 . S
C1485 C1482 1.511 . S
C1485 H1499 0.961 . S
C1485 H1500 0.961 . S
C1485 H1501 0.961 . S
C1486 C1487 1.370 . S
C1486 C1488 1.363 . S
C1486 H1502 0.931 . S
C1487 C1486 1.370 . S
C1487 C1491 1.408 . S
C1488 C1486 1.363 . S
C1488 C1489 1.370 . S
C1488 C1492 1.524 . S
C1489 C1481 1.503 . S
C1489 C1488 1.370 . S
C1489 C1490 1.403 . S
C1490 C1489 1.403 . S
C1490 C1491 1.404 . S
C1490 C1493 1.539 . S
C1491 C1487 1.408 . S
C1491 C1490 1.404 . S
C1491 H1503 0.930 . S
C1492 C1488 1.524 . S
C1492 H1504 0.956 . S
C1492 H1505 0.961 . S
C1492 H1506 0.961 . S
C1493 C1490 1.539 . S
C1493 H1507 0.958 . S
C1493 H1508 0.961 . S
C1493 H1509 0.960 . S
H1494 C1478 0.931 . S
H1495 C1483 0.929 . S
H1496 C1484 0.960 . S
H1497 C1484 0.962 . S
H1498 C1484 0.960 . S
H1499 C1485 0.961 . S
H1500 C1485 0.961 . S
H1501 C1485 0.961 . S
H1502 C1486 0.931 . S
H1503 C1491 0.930 . S
H1504 C1492 0.956 . S
H1505 C1492 0.961 . S
H1506 C1492 0.961 . S
H1507 C1493 0.958 . S
H1508 C1493 0.961 . S
H1509 C1493 0.960 . S
C1510 C1511 1.391 . S
C1510 C1512 1.394 . S
C1510 H1526 0.931 . S
C1511 C1510 1.391 . S
C1511 C1515 1.376 . S
C1512 C1510 1.394 . S
C1512 C1513 1.369 . S
C1512 C1516 1.531 . S
C1513 C1512 1.369 . S
C1513 C1514 1.410 . S
C1513 C1521 1.503 . S
C1514 C1513 1.410 . S
C1514 C1515 1.392 . S
C1514 C1517 1.511 . S
C1515 C1511 1.376 . S
C1515 C1514 1.392 . S
C1515 H1527 0.929 . S
C1516 C1512 1.531 . S
C1516 H1528 0.960 . S
C1516 H1529 0.962 . S
C1516 H1530 0.960 . S
C1517 C1514 1.511 . S
C1517 H1531 0.961 . S
C1517 H1532 0.961 . S
C1517 H1533 0.961 . S
C1518 C1519 1.370 . S
C1518 C1520 1.363 . S
C1518 H1534 0.931 . S
C1519 C1518 1.370 . S
C1519 C1523 1.408 . S
C1520 C1518 1.363 . S
C1520 C1521 1.370 . S
C1520 C1524 1.524 . S
C1521 C1513 1.503 . S
C1521 C1520 1.370 . S
C1521 C1522 1.403 . S
C1522 C1521 1.403 . S
C1522 C1523 1.404 . S
C1522 C1525 1.539 . S
C1523 C1519 1.408 . S
C1523 C1522 1.404 . S
C1523 H1535 0.930 . S
C1524 C1520 1.524 . S
C1524 H1536 0.956 . S
C1524 H1537 0.961 . S
C1524 H1538 0.961 . S
C1525 C1522 1.539 . S
C1525 H1539 0.958 . S
C1525 H1540 0.961 . S
C1525 H1541 0.960 . S
H1526 C1510 0.931 . S
H1527 C1515 0.929 . S
H1528 C1516 0.960 . S
H1529 C1516 0.962 . S
H1530 C1516 0.960 . S
H1531 C1517 0.961 . S
H1532 C1517 0.961 . S
H1533 C1517 0.961 . S
H1534 C1518 0.931 . S
H1535 C1523 0.930 . S
H1536 C1524 0.956 . S
H1537 C1524 0.961 . S
H1538 C1524 0.961 . S
H1539 C1525 0.958 . S
H1540 C1525 0.961 . S
H1541 C1525 0.960 . S
C1542 C1543 1.391 . S
C1542 C1544 1.394 . S
C1542 H1558 0.931 . S
C1543 C1542 1.391 . S
C1543 C1547 1.376 . S
C1544 C1542 1.394 . S
C1544 C1545 1.369 . S
C1544 C1548 1.531 . S
C1545 C1544 1.369 . S
C1545 C1546 1.410 . S
C1545 C1553 1.503 . S
C1546 C1545 1.410 . S
C1546 C1547 1.392 . S
C1546 C1549 1.511 . S
C1547 C1543 1.376 . S
C1547 C1546 1.392 . S
C1547 H1559 0.929 . S
C1548 C1544 1.531 . S
C1548 H1560 0.960 . S
C1548 H1561 0.962 . S
C1548 H1562 0.960 . S
C1549 C1546 1.511 . S
C1549 H1563 0.961 . S
C1549 H1564 0.961 . S
C1549 H1565 0.961 . S
C1550 C1551 1.370 . S
C1550 C1552 1.363 . S
C1550 H1566 0.931 . S
C1551 C1550 1.370 . S
C1551 C1555 1.408 . S
C1552 C1550 1.363 . S
C1552 C1553 1.370 . S
C1552 C1556 1.524 . S
C1553 C1545 1.503 . S
C1553 C1552 1.370 . S
C1553 C1554 1.403 . S
C1554 C1553 1.403 . S
C1554 C1555 1.404 . S
C1554 C1557 1.539 . S
C1555 C1551 1.408 . S
C1555 C1554 1.404 . S
C1555 H1567 0.930 . S
C1556 C1552 1.524 . S
C1556 H1568 0.956 . S
C1556 H1569 0.961 . S
C1556 H1570 0.961 . S
C1557 C1554 1.539 . S
C1557 H1571 0.958 . S
C1557 H1572 0.961 . S
C1557 H1573 0.960 . S
H1558 C1542 0.931 . S
H1559 C1547 0.929 . S
H1560 C1548 0.960 . S
H1561 C1548 0.962 . S
H1562 C1548 0.960 . S
H1563 C1549 0.961 . S
H1564 C1549 0.961 . S
H1565 C1549 0.961 . S
H1566 C1550 0.931 . S
H1567 C1555 0.930 . S
H1568 C1556 0.956 . S
H1569 C1556 0.961 . S
H1570 C1556 0.961 . S
H1571 C1557 0.958 . S
H1572 C1557 0.961 . S
H1573 C1557 0.960 . S
C1574 C1575 1.391 . S
C1574 C1576 1.394 . S
C1574 H1590 0.931 . S
C1575 C1574 1.391 . S
C1575 C1579 1.376 . S
C1576 C1574 1.394 . S
C1576 C1577 1.369 . S
C1576 C1580 1.531 . S
C1577 C1576 1.369 . S
C1577 C1578 1.410 . S
C1577 C1585 1.503 . S
C1578 C1577 1.410 . S
C1578 C1579 1.392 . S
C1578 C1581 1.511 . S
C1579 C1575 1.376 . S
C1579 C1578 1.392 . S
C1579 H1591 0.929 . S
C1580 C1576 1.531 . S
C1580 H1592 0.960 . S
C1580 H1593 0.962 . S
C1580 H1594 0.960 . S
C1581 C1578 1.511 . S
C1581 H1595 0.961 . S
C1581 H1596 0.961 . S
C1581 H1597 0.961 . S
C1582 C1583 1.370 . S
C1582 C1584 1.363 . S
C1582 H1598 0.931 . S
C1583 C1582 1.370 . S
C1583 C1587 1.408 . S
C1584 C1582 1.363 . S
C1584 C1585 1.370 . S
C1584 C1588 1.524 . S
C1585 C1577 1.503 . S
C1585 C1584 1.370 . S
C1585 C1586 1.403 . S
C1586 C1585 1.403 . S
C1586 C1587 1.404 . S
C1586 C1589 1.539 . S
C1587 C1583 1.408 . S
C1587 C1586 1.404 . S
C1587 H1599 0.930 . S
C1588 C1584 1.524 . S
C1588 H1600 0.956 . S
C1588 H1601 0.961 . S
C1588 H1602 0.961 . S
C1589 C1586 1.539 . S
C1589 H1603 0.958 . S
C1589 H1604 0.961 . S
C1589 H1605 0.960 . S
H1590 C1574 0.931 . S
H1591 C1579 0.929 . S
H1592 C1580 0.960 . S
H1593 C1580 0.962 . S
H1594 C1580 0.960 . S
H1595 C1581 0.961 . S
H1596 C1581 0.961 . S
H1597 C1581 0.961 . S
H1598 C1582 0.931 . S
H1599 C1587 0.930 . S
H1600 C1588 0.956 . S
H1601 C1588 0.961 . S
H1602 C1588 0.961 . S
H1603 C1589 0.958 . S
H1604 C1589 0.961 . S
H1605 C1589 0.960 . S
C1606 C1607 1.391 . S
C1606 C1608 1.394 . S
C1606 H1622 0.931 . S
C1607 C1606 1.391 . S
C1607 C1611 1.376 . S
C1608 C1606 1.394 . S
C1608 C1609 1.369 . S
C1608 C1612 1.531 . S
C1609 C1608 1.369 . S
C1609 C1610 1.410 . S
C1609 C1617 1.503 . S
C1610 C1609 1.410 . S
C1610 C1611 1.392 . S
C1610 C1613 1.511 . S
C1611 C1607 1.376 . S
C1611 C1610 1.392 . S
C1611 H1623 0.929 . S
C1612 C1608 1.531 . S
C1612 H1624 0.960 . S
C1612 H1625 0.962 . S
C1612 H1626 0.960 . S
C1613 C1610 1.511 . S
C1613 H1627 0.961 . S
C1613 H1628 0.961 . S
C1613 H1629 0.961 . S
C1614 C1615 1.370 . S
C1614 C1616 1.363 . S
C1614 H1630 0.931 . S
C1615 C1614 1.370 . S
C1615 C1619 1.408 . S
C1616 C1614 1.363 . S
C1616 C1617 1.370 . S
C1616 C1620 1.524 . S
C1617 C1609 1.503 . S
C1617 C1616 1.370 . S
C1617 C1618 1.403 . S
C1618 C1617 1.403 . S
C1618 C1619 1.404 . S
C1618 C1621 1.539 . S
C1619 C1615 1.408 . S
C1619 C1618 1.404 . S
C1619 H1631 0.930 . S
C1620 C1616 1.524 . S
C1620 H1632 0.956 . S
C1620 H1633 0.961 . S
C1620 H1634 0.961 . S
C1621 C1618 1.539 . S
C1621 H1635 0.958 . S
C1621 H1636 0.961 . S
C1621 H1637 0.960 . S
H1622 C1606 0.931 . S
H1623 C1611 0.929 . S
H1624 C1612 0.960 . S
H1625 C1612 0.962 . S
H1626 C1612 0.960 . S
H1627 C1613 0.961 . S
H1628 C1613 0.961 . S
H1629 C1613 0.961 . S
H1630 C1614 0.931 . S
H1631 C1619 0.930 . S
H1632 C1620 0.956 . S
H1633 C1620 0.961 . S
H1634 C1620 0.961 . S
H1635 C1621 0.958 . S
H1636 C1621 0.961 . S
H1637 C1621 0.960 . S
C1638 C1639 1.391 . S
C1638 C1640 1.394 . S
C1638 H1654 0.931 . S
C1639 C1638 1.391 . S
C1639 C1643 1.376 . S
C1640 C1638 1.394 . S
C1640 C1641 1.369 . S
C1640 C1644 1.531 . S
C1641 C1640 1.369 . S
C1641 C1642 1.410 . S
C1641 C1649 1.503 . S
C1642 C1641 1.410 . S
C1642 C1643 1.392 . S
C1642 C1645 1.511 . S
C1643 C1639 1.376 . S
C1643 C1642 1.392 . S
C1643 H1655 0.929 . S
C1644 C1640 1.531 . S
C1644 H1656 0.960 . S
C1644 H1657 0.962 . S
C1644 H1658 0.960 . S
C1645 C1642 1.511 . S
C1645 H1659 0.961 . S
C1645 H1660 0.961 . S
C1645 H1661 0.961 . S
C1646 C1647 1.370 . S
C1646 C1648 1.363 . S
C1646 H1662 0.931 . S
C1647 C1646 1.370 . S
C1647 C1651 1.408 . S
C1648 C1646 1.363 . S
C1648 C1649 1.370 . S
C1648 C1652 1.524 . S
C1649 C1641 1.503 . S
C1649 C1648 1.370 . S
C1649 C1650 1.403 . S
C1650 C1649 1.403 . S
C1650 C1651 1.404 . S
C1650 C1653 1.539 . S
C1651 C1647 1.408 . S
C1651 C1650 1.404 . S
C1651 H1663 0.930 . S
C1652 C1648 1.524 . S
C1652 H1664 0.956 . S
C1652 H1665 0.961 . S
C1652 H1666 0.961 . S
C1653 C1650 1.539 . S
C1653 H1667 0.958 . S
C1653 H1668 0.961 . S
C1653 H1669 0.960 . S
H1654 C1638 0.931 . S
H1655 C1643 0.929 . S
H1656 C1644 0.960 . S
H1657 C1644 0.962 . S
H1658 C1644 0.960 . S
H1659 C1645 0.961 . S
H1660 C1645 0.961 . S
H1661 C1645 0.961 . S
H1662 C1646 0.931 . S
H1663 C1651 0.930 . S
H1664 C1652 0.956 . S
H1665 C1652 0.961 . S
H1666 C1652 0.961 . S
H1667 C1653 0.958 . S
H1668 C1653 0.961 . S
H1669 C1653 0.960 . S
C1670 C1671 1.391 . S
C1670 C1672 1.394 . S
C1670 H1686 0.931 . S
C1671 C1670 1.391 . S
C1671 C1675 1.376 . S
C1672 C1670 1.394 . S
C1672 C1673 1.369 . S
C1672 C1676 1.531 . S
C1673 C1672 1.369 . S
C1673 C1674 1.410 . S
C1673 C1681 1.503 . S
C1674 C1673 1.410 . S
C1674 C1675 1.392 . S
C1674 C1677 1.511 . S
C1675 C1671 1.376 . S
C1675 C1674 1.392 . S
C1675 H1687 0.929 . S
C1676 C1672 1.531 . S
C1676 H1688 0.960 . S
C1676 H1689 0.962 . S
C1676 H1690 0.960 . S
C1677 C1674 1.511 . S
C1677 H1691 0.961 . S
C1677 H1692 0.961 . S
C1677 H1693 0.961 . S
C1678 C1679 1.370 . S
C1678 C1680 1.363 . S
C1678 H1694 0.931 . S
C1679 C1678 1.370 . S
C1679 C1683 1.408 . S
C1680 C1678 1.363 . S
C1680 C1681 1.370 . S
C1680 C1684 1.524 . S
C1681 C1673 1.503 . S
C1681 C1680 1.370 . S
C1681 C1682 1.403 . S
C1682 C1681 1.403 . S
C1682 C1683 1.404 . S
C1682 C1685 1.539 . S
C1683 C1679 1.408 . S
C1683 C1682 1.404 . S
C1683 H1695 0.930 . S
C1684 C1680 1.524 . S
C1684 H1696 0.956 . S
C1684 H1697 0.961 . S
C1684 H1698 0.961 . S
C1685 C1682 1.539 . S
C1685 H1699 0.958 . S
C1685 H1700 0.961 . S
C1685 H1701 0.960 . S
H1686 C1670 0.931 . S
H1687 C1675 0.929 . S
H1688 C1676 0.960 . S
H1689 C1676 0.962 . S
H1690 C1676 0.960 . S
H1691 C1677 0.961 . S
H1692 C1677 0.961 . S
H1693 C1677 0.961 . S
H1694 C1678 0.931 . S
H1695 C1683 0.930 . S
H1696 C1684 0.956 . S
H1697 C1684 0.961 . S
H1698 C1684 0.961 . S
H1699 C1685 0.958 . S
H1700 C1685 0.961 . S
H1701 C1685 0.960 . S
C1702 C1703 1.391 . S
C1702 C1704 1.394 . S
C1702 H1718 0.931 . S
C1703 C1702 1.391 . S
C1703 C1707 1.376 . S
C1704 C1702 1.394 . S
C1704 C1705 1.369 . S
C1704 C1708 1.531 . S
C1705 C1704 1.369 . S
C1705 C1706 1.410 . S
C1705 C1713 1.503 . S
C1706 C1705 1.410 . S
C1706 C1707 1.392 . S
C1706 C1709 1.511 . S
C1707 C1703 1.376 . S
C1707 C1706 1.392 . S
C1707 H1719 0.929 . S
C1708 C1704 1.531 . S
C1708 H1720 0.960 . S
C1708 H1721 0.962 . S
C1708 H1722 0.960 . S
C1709 C1706 1.511 . S
C1709 H1723 0.961 . S
C1709 H1724 0.961 . S
C1709 H1725 0.961 . S
C1710 C1711 1.370 . S
C1710 C1712 1.363 . S
C1710 H1726 0.931 . S
C1711 C1710 1.370 . S
C1711 C1715 1.408 . S
C1712 C1710 1.363 . S
C1712 C1713 1.370 . S
C1712 C1716 1.524 . S
C1713 C1705 1.503 . S
C1713 C1712 1.370 . S
C1713 C1714 1.403 . S
C1714 C1713 1.403 . S
C1714 C1715 1.404 . S
C1714 C1717 1.539 . S
C1715 C1711 1.408 . S
C1715 C1714 1.404 . S
C1715 H1727 0.930 . S
C1716 C1712 1.524 . S
C1716 H1728 0.956 . S
C1716 H1729 0.961 . S
C1716 H1730 0.961 . S
C1717 C1714 1.539 . S
C1717 H1731 0.958 . S
C1717 H1732 0.961 . S
C1717 H1733 0.960 . S
H1718 C1702 0.931 . S
H1719 C1707 0.929 . S
H1720 C1708 0.960 . S
H1721 C1708 0.962 . S
H1722 C1708 0.960 . S
H1723 C1709 0.961 . S
H1724 C1709 0.961 . S
H1725 C1709 0.961 . S
H1726 C1710 0.931 . S
H1727 C1715 0.930 . S
H1728 C1716 0.956 . S
H1729 C1716 0.961 . S
H1730 C1716 0.961 . S
H1731 C1717 0.958 . S
H1732 C1717 0.961 . S
H1733 C1717 0.960 . S
C1734 C1735 1.391 . S
C1734 C1736 1.394 . S
C1734 H1750 0.931 . S
C1735 C1734 1.391 . S
C1735 C1739 1.376 . S
C1736 C1734 1.394 . S
C1736 C1737 1.369 . S
C1736 C1740 1.531 . S
C1737 C1736 1.369 . S
C1737 C1738 1.410 . S
C1737 C1745 1.503 . S
C1738 C1737 1.410 . S
C1738 C1739 1.392 . S
C1738 C1741 1.511 . S
C1739 C1735 1.376 . S
C1739 C1738 1.392 . S
C1739 H1751 0.929 . S
C1740 C1736 1.531 . S
C1740 H1752 0.960 . S
C1740 H1753 0.962 . S
C1740 H1754 0.960 . S
C1741 C1738 1.511 . S
C1741 H1755 0.961 . S
C1741 H1756 0.961 . S
C1741 H1757 0.961 . S
C1742 C1743 1.370 . S
C1742 C1744 1.363 . S
C1742 H1758 0.931 . S
C1743 C1742 1.370 . S
C1743 C1747 1.408 . S
C1744 C1742 1.363 . S
C1744 C1745 1.370 . S
C1744 C1748 1.524 . S
C1745 C1737 1.503 . S
C1745 C1744 1.370 . S
C1745 C1746 1.403 . S
C1746 C1745 1.403 . S
C1746 C1747 1.404 . S
C1746 C1749 1.539 . S
C1747 C1743 1.408 . S
C1747 C1746 1.404 . S
C1747 H1759 0.930 . S
C1748 C1744 1.524 . S
C1748 H1760 0.956 . S
C1748 H1761 0.961 . S
C1748 H1762 0.961 . S
C1749 C1746 1.539 . S
C1749 H1763 0.958 . S
C1749 H1764 0.961 . S
C1749 H1765 0.960 . S
H1750 C1734 0.931 . S
H1751 C1739 0.929 . S
H1752 C1740 0.960 . S
H1753 C1740 0.962 . S
H1754 C1740 0.960 . S
H1755 C1741 0.961 . S
H1756 C1741 0.961 . S
H1757 C1741 0.961 . S
H1758 C1742 0.931 . S
H1759 C1747 0.930 . S
H1760 C1748 0.956 . S
H1761 C1748 0.961 . S
H1762 C1748 0.961 . S
H1763 C1749 0.958 . S
H1764 C1749 0.961 . S
H1765 C1749 0.960 . S
C1766 C1767 1.391 . S
C1766 C1768 1.394 . S
C1766 H1782 0.931 . S
C1767 C1766 1.391 . S
C1767 C1771 1.376 . S
C1768 C1766 1.394 . S
C1768 C1769 1.369 . S
C1768 C1772 1.531 . S
C1769 C1768 1.369 . S
C1769 C1770 1.410 . S
C1769 C1777 1.503 . S
C1770 C1769 1.410 . S
C1770 C1771 1.392 . S
C1770 C1773 1.511 . S
C1771 C1767 1.376 . S
C1771 C1770 1.392 . S
C1771 H1783 0.929 . S
C1772 C1768 1.531 . S
C1772 H1784 0.960 . S
C1772 H1785 0.962 . S
C1772 H1786 0.960 . S
C1773 C1770 1.511 . S
C1773 H1787 0.961 . S
C1773 H1788 0.961 . S
C1773 H1789 0.961 . S
C1774 C1775 1.370 . S
C1774 C1776 1.363 . S
C1774 H1790 0.931 . S
C1775 C1774 1.370 . S
C1775 C1779 1.408 . S
C1776 C1774 1.363 . S
C1776 C1777 1.370 . S
C1776 C1780 1.524 . S
C1777 C1769 1.503 . S
C1777 C1776 1.370 . S
C1777 C1778 1.403 . S
C1778 C1777 1.403 . S
C1778 C1779 1.404 . S
C1778 C1781 1.539 . S
C1779 C1775 1.408 . S
C1779 C1778 1.404 . S
C1779 H1791 0.930 . S
C1780 C1776 1.524 . S
C1780 H1792 0.956 . S
C1780 H1793 0.961 . S
C1780 H1794 0.961 . S
C1781 C1778 1.539 . S
C1781 H1795 0.958 . S
C1781 H1796 0.961 . S
C1781 H1797 0.960 . S
H1782 C1766 0.931 . S
H1783 C1771 0.929 . S
H1784 C1772 0.960 . S
H1785 C1772 0.962 . S
H1786 C1772 0.960 . S
H1787 C1773 0.961 . S
H1788 C1773 0.961 . S
H1789 C1773 0.961 . S
H1790 C1774 0.931 . S
H1791 C1779 0.930 . S
H1792 C1780 0.956 . S
H1793 C1780 0.961 . S
H1794 C1780 0.961 . S
H1795 C1781 0.958 . S
H1796 C1781 0.961 . S
H1797 C1781 0.960 . S
C1798 C1799 1.391 . S
C1798 C1800 1.394 . S
C1798 H1814 0.931 . S
C1799 C1798 1.391 . S
C1799 C1803 1.376 . S
C1800 C1798 1.394 . S
C1800 C1801 1.369 . S
C1800 C1804 1.531 . S
C1801 C1800 1.369 . S
C1801 C1802 1.410 . S
C1801 C1809 1.503 . S
C1802 C1801 1.410 . S
C1802 C1803 1.392 . S
C1802 C1805 1.511 . S
C1803 C1799 1.376 . S
C1803 C1802 1.392 . S
C1803 H1815 0.929 . S
C1804 C1800 1.531 . S
C1804 H1816 0.960 . S
C1804 H1817 0.962 . S
C1804 H1818 0.960 . S
C1805 C1802 1.511 . S
C1805 H1819 0.961 . S
C1805 H1820 0.961 . S
C1805 H1821 0.961 . S
C1806 C1807 1.370 . S
C1806 C1808 1.363 . S
C1806 H1822 0.931 . S
C1807 C1806 1.370 . S
C1807 C1811 1.408 . S
C1808 C1806 1.363 . S
C1808 C1809 1.370 . S
C1808 C1812 1.524 . S
C1809 C1801 1.503 . S
C1809 C1808 1.370 . S
C1809 C1810 1.403 . S
C1810 C1809 1.403 . S
C1810 C1811 1.404 . S
C1810 C1813 1.539 . S
C1811 C1807 1.408 . S
C1811 C1810 1.404 . S
C1811 H1823 0.930 . S
C1812 C1808 1.524 . S
C1812 H1824 0.956 . S
C1812 H1825 0.961 . S
C1812 H1826 0.961 . S
C1813 C1810 1.539 . S
C1813 H1827 0.958 . S
C1813 H1828 0.961 . S
C1813 H1829 0.960 . S
H1814 C1798 0.931 . S
H1815 C1803 0.929 . S
H1816 C1804 0.960 . S
H1817 C1804 0.962 . S
H1818 C1804 0.960 . S
H1819 C1805 0.961 . S
H1820 C1805 0.961 . S
H1821 C1805 0.961 . S
H1822 C1806 0.931 . S
H1823 C1811 0.930 . S
H1824 C1812 0.956 . S
H1825 C1812 0.961 . S
H1826 C1812 0.961 . S
H1827 C1813 0.958 . S
H1828 C1813 0.961 . S
H1829 C1813 0.960 . S
C1830 C1831 1.391 . S
C1830 C1832 1.394 . S
C1830 H1846 0.931 . S
C1831 C1830 1.391 . S
C1831 C1835 1.376 . S
C1832 C1830 1.394 . S
C1832 C1833 1.369 . S
C1832 C1836 1.531 . S
C1833 C1832 1.369 . S
C1833 C1834 1.410 . S
C1833 C1841 1.503 . S
C1834 C1833 1.410 . S
C1834 C1835 1.392 . S
C1834 C1837 1.511 . S
C1835 C1831 1.376 . S
C1835 C1834 1.392 . S
C1835 H1847 0.929 . S
C1836 C1832 1.531 . S
C1836 H1848 0.960 . S
C1836 H1849 0.962 . S
C1836 H1850 0.960 . S
C1837 C1834 1.511 . S
C1837 H1851 0.961 . S
C1837 H1852 0.961 . S
C1837 H1853 0.961 . S
C1838 C1839 1.370 . S
C1838 C1840 1.363 . S
C1838 H1854 0.931 . S
C1839 C1838 1.370 . S
C1839 C1843 1.408 . S
C1840 C1838 1.363 . S
C1840 C1841 1.370 . S
C1840 C1844 1.524 . S
C1841 C1833 1.503 . S
C1841 C1840 1.370 . S
C1841 C1842 1.403 . S
C1842 C1841 1.403 . S
C1842 C1843 1.404 . S
C1842 C1845 1.539 . S
C1843 C1839 1.408 . S
C1843 C1842 1.404 . S
C1843 H1855 0.930 . S
C1844 C1840 1.524 . S
C1844 H1856 0.956 . S
C1844 H1857 0.961 . S
C1844 H1858 0.961 . S
C1845 C1842 1.539 . S
C1845 H1859 0.958 . S
C1845 H1860 0.961 . S
C1845 H1861 0.960 . S
H1846 C1830 0.931 . S
H1847 C1835 0.929 . S
H1848 C1836 0.960 . S
H1849 C1836 0.962 . S
H1850 C1836 0.960 . S
H1851 C1837 0.961 . S
H1852 C1837 0.961 . S
H1853 C1837 0.961 . S
H1854 C1838 0.931 . S
H1855 C1843 0.930 . S
H1856 C1844 0.956 . S
H1857 C1844 0.961 . S
H1858 C1844 0.961 . S
H1859 C1845 0.958 . S
H1860 C1845 0.961 . S
H1861 C1845 0.960 . S
C1862 C1863 1.391 . S
C1862 C1864 1.394 . S
C1862 H1878 0.931 . S
C1863 C1862 1.391 . S
C1863 C1867 1.376 . S
C1864 C1862 1.394 . S
C1864 C1865 1.369 . S
C1864 C1868 1.531 . S
C1865 C1864 1.369 . S
C1865 C1866 1.410 . S
C1865 C1873 1.503 . S
C1866 C1865 1.410 . S
C1866 C1867 1.392 . S
C1866 C1869 1.511 . S
C1867 C1863 1.376 . S
C1867 C1866 1.392 . S
C1867 H1879 0.929 . S
C1868 C1864 1.531 . S
C1868 H1880 0.960 . S
C1868 H1881 0.962 . S
C1868 H1882 0.960 . S
C1869 C1866 1.511 . S
C1869 H1883 0.961 . S
C1869 H1884 0.961 . S
C1869 H1885 0.961 . S
C1870 C1871 1.370 . S
C1870 C1872 1.363 . S
C1870 H1886 0.931 . S
C1871 C1870 1.370 . S
C1871 C1875 1.408 . S
C1872 C1870 1.363 . S
C1872 C1873 1.370 . S
C1872 C1876 1.524 . S
C1873 C1865 1.503 . S
C1873 C1872 1.370 . S
C1873 C1874 1.403 . S
C1874 C1873 1.403 . S
C1874 C1875 1.404 . S
C1874 C1877 1.539 . S
C1875 C1871 1.408 . S
C1875 C1874 1.404 . S
C1875 H1887 0.930 . S
C1876 C1872 1.524 . S
C1876 H1888 0.956 . S
C1876 H1889 0.961 . S
C1876 H1890 0.961 . S
C1877 C1874 1.539 . S
C1877 H1891 0.958 . S
C1877 H1892 0.961 . S
C1877 H1893 0.960 . S
H1878 C1862 0.931 . S
H1879 C1867 0.929 . S
H1880 C1868 0.960 . S
H1881 C1868 0.962 . S
H1882 C1868 0.960 . S
H1883 C1869 0.961 . S
H1884 C1869 0.961 . S
H1885 C1869 0.961 . S
H1886 C1870 0.931 . S
H1887 C1875 0.930 . S
H1888 C1876 0.956 . S
H1889 C1876 0.961 . S
H1890 C1876 0.961 . S
H1891 C1877 0.958 . S
H1892 C1877 0.961 . S
H1893 C1877 0.960 . S
C367 C187 1.923 . S
C359 C19 2.008 . S
C399 C188 1.807 . S
C391 C24 1.839 . S
C431 C182 1.249 . S
C423 C59 1.253 . S
C455 C69 1.136 . S
C463 C181 1.157 . S
C487 C82 1.822 . S
C495 C184 1.812 . S
C527 C186 1.275 . S
C519 C118 1.271 . S
C551 C132 1.102 . S
C559 C185 1.150 . S
C583 C158 2.009 . S
C591 C183 1.898 . S
C623 C218 1.811 . S
C615 C4 1.641 . S
C647 C29 1.055 . S
C655 C249 1.016 . S
C687 C217 1.537 . S
C679 C44 1.453 . S
C719 C252 1.174 . S
C711 C79 1.190 . S
C743 C98 1.390 . S
C751 C215 1.386 . S
C783 C247 1.497 . S
C775 C112 1.453 . S
C807 C122 1.138 . S
C815 C220 1.136 . S
C839 C152 1.245 . S
C847 C254 1.294 . S
C871 C9 1.248 . S
C879 C250 1.264 . S
C903 C92 1.020 . S
C911 C253 1.025 . S
C943 C221 1.516 . S
C935 C102 1.388 . S
C975 C248 1.196 . S
C967 C138 1.130 . S
C999 C142 1.626 . S
C1007 C214 1.812 . S
C1031 C49 1.397 . S
C1039 C251 1.499 . S
C1071 C216 1.135 . S
C1063 C64 1.136 . S
C1095 C39 1.434 . S
C1103 C219 1.405 . S
C1127 C159 1.990 . S
C1135 C286 1.926 . S
C1159 C84 1.463 . S
C1167 C287 1.450 . S
C1199 C281 1.270 . S
C1191 C119 1.250 . S
C1231 C280 1.536 . S
C1223 C129 1.476 . S
C1255 C22 1.428 . S
C1263 C283 1.464 . S
C1295 C285 1.265 . S
C1287 C58 1.294 . S
C1319 C72 1.509 . S
C1327 C284 1.535 . S
C1351 C18 1.981 . S
C1359 C282 1.924 . S
C1383 C144 1.712 . S
C1391 C320 1.819 . S
C1423 C352 0.826 . S
C1415 C89 0.829 . S
C1447 C104 1.378 . S
C1455 C313 1.505 . S
C1479 C139 1.470 . S
C1487 C347 1.483 . S
C1519 C318 1.189 . S
C1511 C38 1.221 . S
C1543 C52 1.565 . S
C1551 C349 1.610 . S
C1583 C315 1.339 . S
C1575 C62 1.291 . S
C1615 C350 1.322 . S
C1607 C12 1.201 . S
C1647 C346 1.324 . S
C1639 C149 1.152 . S
C1671 C32 0.814 . S
C1679 C348 0.812 . S
C1703 C42 1.413 . S
C1711 C317 1.502 . S
C1743 C351 1.471 . S
C1735 C78 1.414 . S
C1767 C2 1.764 . S
C1775 C316 1.841 . S
C1799 C109 1.513 . S
C1807 C353 1.595 . S
C1839 C319 1.326 . S
C1831 C124 1.356 . S
C1871 C314 1.196 . S
C1863 C99 1.201 . S
