# Generated by pormake.
# Topology gar, (4,6)-cn, num edge types: 1
# Building blocks:
#     Node 0, Type 0, BuildingBlock: GALJAG_clean_sbu_0, # of connection points: 4
#     Node 1, Type 0, BuildingBlock: GALJAG_clean_sbu_0, # of connection points: 4
#     Node 2, Type 0, BuildingBlock: GALJAG_clean_sbu_0, # of connection points: 4
#     Node 3, Type 0, BuildingBlock: GALJAG_clean_sbu_0, # of connection points: 4
#     Node 4, Type 0, BuildingBlock: GALJAG_clean_sbu_0, # of connection points: 4
#     Node 5, Type 0, BuildingBlock: GALJAG_clean_sbu_0, # of connection points: 4
#     Node 6, Type 0, BuildingBlock: GALJAG_clean_sbu_0, # of connection points: 4
#     Node 7, Type 0, BuildingBlock: GALJAG_clean_sbu_0, # of connection points: 4
#     Node 8, Type 0, BuildingBlock: GALJAG_clean_sbu_0, # of connection points: 4
#     Node 9, Type 0, BuildingBlock: GALJAG_clean_sbu_0, # of connection points: 4
#     Node 10, Type 0, BuildingBlock: GALJAG_clean_sbu_0, # of connection points: 4
#     Node 11, Type 0, BuildingBlock: GALJAG_clean_sbu_0, # of connection points: 4
#     Node 12, Type 0, BuildingBlock: GALJAG_clean_sbu_0, # of connection points: 4
#     Node 13, Type 0, BuildingBlock: GALJAG_clean_sbu_0, # of connection points: 4
#     Node 14, Type 0, BuildingBlock: GALJAG_clean_sbu_0, # of connection points: 4
#     Node 15, Type 0, BuildingBlock: GALJAG_clean_sbu_0, # of connection points: 4
#     Node 16, Type 0, BuildingBlock: GALJAG_clean_sbu_0, # of connection points: 4
#     Node 17, Type 0, BuildingBlock: GALJAG_clean_sbu_0, # of connection points: 4
#     Node 18, Type 0, BuildingBlock: GALJAG_clean_sbu_0, # of connection points: 4
#     Node 19, Type 0, BuildingBlock: GALJAG_clean_sbu_0, # of connection points: 4
#     Node 20, Type 0, BuildingBlock: GALJAG_clean_sbu_0, # of connection points: 4
#     Node 21, Type 0, BuildingBlock: GALJAG_clean_sbu_0, # of connection points: 4
#     Node 22, Type 0, BuildingBlock: GALJAG_clean_sbu_0, # of connection points: 4
#     Node 23, Type 0, BuildingBlock: GALJAG_clean_sbu_0, # of connection points: 4
#     Node 24, Type 1, BuildingBlock: PAMTOO_clean_sbu_0, # of connection points: 6
#     Node 25, Type 1, BuildingBlock: PAMTOO_clean_sbu_0, # of connection points: 6
#     Node 26, Type 1, BuildingBlock: PAMTOO_clean_sbu_0, # of connection points: 6
#     Node 27, Type 1, BuildingBlock: PAMTOO_clean_sbu_0, # of connection points: 6
#     Node 28, Type 1, BuildingBlock: PAMTOO_clean_sbu_0, # of connection points: 6
#     Node 29, Type 1, BuildingBlock: PAMTOO_clean_sbu_0, # of connection points: 6
#     Node 30, Type 1, BuildingBlock: PAMTOO_clean_sbu_0, # of connection points: 6
#     Node 31, Type 1, BuildingBlock: PAMTOO_clean_sbu_0, # of connection points: 6
#     Node 32, Type 1, BuildingBlock: PAMTOO_clean_sbu_0, # of connection points: 6
#     Node 33, Type 1, BuildingBlock: PAMTOO_clean_sbu_0, # of connection points: 6
#     Node 34, Type 1, BuildingBlock: PAMTOO_clean_sbu_0, # of connection points: 6
#     Node 35, Type 1, BuildingBlock: PAMTOO_clean_sbu_0, # of connection points: 6
#     Node 36, Type 1, BuildingBlock: PAMTOO_clean_sbu_0, # of connection points: 6
#     Node 37, Type 1, BuildingBlock: PAMTOO_clean_sbu_0, # of connection points: 6
#     Node 38, Type 1, BuildingBlock: PAMTOO_clean_sbu_0, # of connection points: 6
#     Node 39, Type 1, BuildingBlock: PAMTOO_clean_sbu_0, # of connection points: 6
#     Edge 40, Type (0, 1), BuildingBlock: XIVTED_clean_linker_0, # of connection points: 2
#     Edge 41, Type (0, 1), BuildingBlock: XIVTED_clean_linker_0, # of connection points: 2
#     Edge 42, Type (0, 1), BuildingBlock: XIVTED_clean_linker_0, # of connection points: 2
#     Edge 43, Type (0, 1), BuildingBlock: XIVTED_clean_linker_0, # of connection points: 2
#     Edge 44, Type (0, 1), BuildingBlock: XIVTED_clean_linker_0, # of connection points: 2
#     Edge 45, Type (0, 1), BuildingBlock: XIVTED_clean_linker_0, # of connection points: 2
#     Edge 46, Type (0, 1), BuildingBlock: XIVTED_clean_linker_0, # of connection points: 2
#     Edge 47, Type (0, 1), BuildingBlock: XIVTED_clean_linker_0, # of connection points: 2
#     Edge 48, Type (0, 1), BuildingBlock: XIVTED_clean_linker_0, # of connection points: 2
#     Edge 49, Type (0, 1), BuildingBlock: XIVTED_clean_linker_0, # of connection points: 2
#     Edge 50, Type (0, 1), BuildingBlock: XIVTED_clean_linker_0, # of connection points: 2
#     Edge 51, Type (0, 1), BuildingBlock: XIVTED_clean_linker_0, # of connection points: 2
#     Edge 52, Type (0, 1), BuildingBlock: XIVTED_clean_linker_0, # of connection points: 2
#     Edge 53, Type (0, 1), BuildingBlock: XIVTED_clean_linker_0, # of connection points: 2
#     Edge 54, Type (0, 1), BuildingBlock: XIVTED_clean_linker_0, # of connection points: 2
#     Edge 55, Type (0, 1), BuildingBlock: XIVTED_clean_linker_0, # of connection points: 2
#     Edge 56, Type (0, 1), BuildingBlock: XIVTED_clean_linker_0, # of connection points: 2
#     Edge 57, Type (0, 1), BuildingBlock: XIVTED_clean_linker_0, # of connection points: 2
#     Edge 58, Type (0, 1), BuildingBlock: XIVTED_clean_linker_0, # of connection points: 2
#     Edge 59, Type (0, 1), BuildingBlock: XIVTED_clean_linker_0, # of connection points: 2
#     Edge 60, Type (0, 1), BuildingBlock: XIVTED_clean_linker_0, # of connection points: 2
#     Edge 61, Type (0, 1), BuildingBlock: XIVTED_clean_linker_0, # of connection points: 2
#     Edge 62, Type (0, 1), BuildingBlock: XIVTED_clean_linker_0, # of connection points: 2
#     Edge 63, Type (0, 1), BuildingBlock: XIVTED_clean_linker_0, # of connection points: 2
#     Edge 64, Type (0, 1), BuildingBlock: XIVTED_clean_linker_0, # of connection points: 2
#     Edge 65, Type (0, 1), BuildingBlock: XIVTED_clean_linker_0, # of connection points: 2
#     Edge 66, Type (0, 1), BuildingBlock: XIVTED_clean_linker_0, # of connection points: 2
#     Edge 67, Type (0, 1), BuildingBlock: XIVTED_clean_linker_0, # of connection points: 2
#     Edge 68, Type (0, 1), BuildingBlock: XIVTED_clean_linker_0, # of connection points: 2
#     Edge 69, Type (0, 1), BuildingBlock: XIVTED_clean_linker_0, # of connection points: 2
#     Edge 70, Type (0, 1), BuildingBlock: XIVTED_clean_linker_0, # of connection points: 2
#     Edge 71, Type (0, 1), BuildingBlock: XIVTED_clean_linker_0, # of connection points: 2
#     Edge 72, Type (0, 1), BuildingBlock: XIVTED_clean_linker_0, # of connection points: 2
#     Edge 73, Type (0, 1), BuildingBlock: XIVTED_clean_linker_0, # of connection points: 2
#     Edge 74, Type (0, 1), BuildingBlock: XIVTED_clean_linker_0, # of connection points: 2
#     Edge 75, Type (0, 1), BuildingBlock: XIVTED_clean_linker_0, # of connection points: 2
#     Edge 76, Type (0, 1), BuildingBlock: XIVTED_clean_linker_0, # of connection points: 2
#     Edge 77, Type (0, 1), BuildingBlock: XIVTED_clean_linker_0, # of connection points: 2
#     Edge 78, Type (0, 1), BuildingBlock: XIVTED_clean_linker_0, # of connection points: 2
#     Edge 79, Type (0, 1), BuildingBlock: XIVTED_clean_linker_0, # of connection points: 2
#     Edge 80, Type (0, 1), BuildingBlock: XIVTED_clean_linker_0, # of connection points: 2
#     Edge 81, Type (0, 1), BuildingBlock: XIVTED_clean_linker_0, # of connection points: 2
#     Edge 82, Type (0, 1), BuildingBlock: XIVTED_clean_linker_0, # of connection points: 2
#     Edge 83, Type (0, 1), BuildingBlock: XIVTED_clean_linker_0, # of connection points: 2
#     Edge 84, Type (0, 1), BuildingBlock: XIVTED_clean_linker_0, # of connection points: 2
#     Edge 85, Type (0, 1), BuildingBlock: XIVTED_clean_linker_0, # of connection points: 2
#     Edge 86, Type (0, 1), BuildingBlock: XIVTED_clean_linker_0, # of connection points: 2
#     Edge 87, Type (0, 1), BuildingBlock: XIVTED_clean_linker_0, # of connection points: 2
#     Edge 88, Type (0, 1), BuildingBlock: XIVTED_clean_linker_0, # of connection points: 2
#     Edge 89, Type (0, 1), BuildingBlock: XIVTED_clean_linker_0, # of connection points: 2
#     Edge 90, Type (0, 1), BuildingBlock: XIVTED_clean_linker_0, # of connection points: 2
#     Edge 91, Type (0, 1), BuildingBlock: XIVTED_clean_linker_0, # of connection points: 2
#     Edge 92, Type (0, 1), BuildingBlock: XIVTED_clean_linker_0, # of connection points: 2
#     Edge 93, Type (0, 1), BuildingBlock: XIVTED_clean_linker_0, # of connection points: 2
#     Edge 94, Type (0, 1), BuildingBlock: XIVTED_clean_linker_0, # of connection points: 2
#     Edge 95, Type (0, 1), BuildingBlock: XIVTED_clean_linker_0, # of connection points: 2
#     Edge 96, Type (0, 1), BuildingBlock: XIVTED_clean_linker_0, # of connection points: 2
#     Edge 97, Type (0, 1), BuildingBlock: XIVTED_clean_linker_0, # of connection points: 2
#     Edge 98, Type (0, 1), BuildingBlock: XIVTED_clean_linker_0, # of connection points: 2
#     Edge 99, Type (0, 1), BuildingBlock: XIVTED_clean_linker_0, # of connection points: 2
#     Edge 100, Type (0, 1), BuildingBlock: XIVTED_clean_linker_0, # of connection points: 2
#     Edge 101, Type (0, 1), BuildingBlock: XIVTED_clean_linker_0, # of connection points: 2
#     Edge 102, Type (0, 1), BuildingBlock: XIVTED_clean_linker_0, # of connection points: 2
#     Edge 103, Type (0, 1), BuildingBlock: XIVTED_clean_linker_0, # of connection points: 2
#     Edge 104, Type (0, 1), BuildingBlock: XIVTED_clean_linker_0, # of connection points: 2
#     Edge 105, Type (0, 1), BuildingBlock: XIVTED_clean_linker_0, # of connection points: 2
#     Edge 106, Type (0, 1), BuildingBlock: XIVTED_clean_linker_0, # of connection points: 2
#     Edge 107, Type (0, 1), BuildingBlock: XIVTED_clean_linker_0, # of connection points: 2
#     Edge 108, Type (0, 1), BuildingBlock: XIVTED_clean_linker_0, # of connection points: 2
#     Edge 109, Type (0, 1), BuildingBlock: XIVTED_clean_linker_0, # of connection points: 2
#     Edge 110, Type (0, 1), BuildingBlock: XIVTED_clean_linker_0, # of connection points: 2
#     Edge 111, Type (0, 1), BuildingBlock: XIVTED_clean_linker_0, # of connection points: 2
#     Edge 112, Type (0, 1), BuildingBlock: XIVTED_clean_linker_0, # of connection points: 2
#     Edge 113, Type (0, 1), BuildingBlock: XIVTED_clean_linker_0, # of connection points: 2
#     Edge 114, Type (0, 1), BuildingBlock: XIVTED_clean_linker_0, # of connection points: 2
#     Edge 115, Type (0, 1), BuildingBlock: XIVTED_clean_linker_0, # of connection points: 2
#     Edge 116, Type (0, 1), BuildingBlock: XIVTED_clean_linker_0, # of connection points: 2
#     Edge 117, Type (0, 1), BuildingBlock: XIVTED_clean_linker_0, # of connection points: 2
#     Edge 118, Type (0, 1), BuildingBlock: XIVTED_clean_linker_0, # of connection points: 2
#     Edge 119, Type (0, 1), BuildingBlock: XIVTED_clean_linker_0, # of connection points: 2
#     Edge 120, Type (0, 1), BuildingBlock: XIVTED_clean_linker_0, # of connection points: 2
#     Edge 121, Type (0, 1), BuildingBlock: XIVTED_clean_linker_0, # of connection points: 2
#     Edge 122, Type (0, 1), BuildingBlock: XIVTED_clean_linker_0, # of connection points: 2
#     Edge 123, Type (0, 1), BuildingBlock: XIVTED_clean_linker_0, # of connection points: 2
#     Edge 124, Type (0, 1), BuildingBlock: XIVTED_clean_linker_0, # of connection points: 2
#     Edge 125, Type (0, 1), BuildingBlock: XIVTED_clean_linker_0, # of connection points: 2
#     Edge 126, Type (0, 1), BuildingBlock: XIVTED_clean_linker_0, # of connection points: 2
#     Edge 127, Type (0, 1), BuildingBlock: XIVTED_clean_linker_0, # of connection points: 2
#     Edge 128, Type (0, 1), BuildingBlock: XIVTED_clean_linker_0, # of connection points: 2
#     Edge 129, Type (0, 1), BuildingBlock: XIVTED_clean_linker_0, # of connection points: 2
#     Edge 130, Type (0, 1), BuildingBlock: XIVTED_clean_linker_0, # of connection points: 2
#     Edge 131, Type (0, 1), BuildingBlock: XIVTED_clean_linker_0, # of connection points: 2
#     Edge 132, Type (0, 1), BuildingBlock: XIVTED_clean_linker_0, # of connection points: 2
#     Edge 133, Type (0, 1), BuildingBlock: XIVTED_clean_linker_0, # of connection points: 2
#     Edge 134, Type (0, 1), BuildingBlock: XIVTED_clean_linker_0, # of connection points: 2
#     Edge 135, Type (0, 1), BuildingBlock: XIVTED_clean_linker_0, # of connection points: 2
# Relax obj value: 0.159
# Max RMSD: 0.269
# Mean RMSD: 0.174
data_MOF--net-gar--node1-GALJAG_clean_sbu_0--node2-PAMTOO_clean_sbu_0--edge1-XIVTED_clean_linker_0
_symmetry_space_group_name_H-M    P1
_symmetry_Int_Tables_number       1
_symmetry_cell_setting            triclinic
loop_
_symmetry_equiv_pos_as_xyz
'x, y, z'
_cell_length_a     59.626895
_cell_length_b     59.61477
_cell_length_c     57.645938
_cell_angle_alpha  96.863166
_cell_angle_beta   96.061871
_cell_angle_gamma 104.7277
loop_
_atom_site_label
_atom_site_type_symbol
_atom_site_fract_x
_atom_site_fract_y
_atom_site_fract_z
_atom_type_partial_charge
In0 In 0.05427 0.33008 0.36766 0.0
O1 O 0.07683 0.32738 0.33658 0.0
O2 O 0.09414 0.3342 0.37145 0.0
C3 C 1.00939 0.3207 0.34352 0.0
C4 C 0.05211 0.29518 0.39411 0.0
C5 C 0.05582 0.37123 0.39526 0.0
O6 O 0.02588 0.33783 0.34076 0.0
O7 O 0.01591 0.30764 0.35689 0.0
O8 O 0.05119 0.35152 0.40211 0.0
O9 O 0.06039 0.37062 0.37432 0.0
C10 C 0.09603 0.33069 0.34988 0.0
O11 O 0.05649 0.31657 0.4028 0.0
O12 O 0.04885 0.29116 0.37174 0.0
In13 In 0.02523 0.76839 0.70103 0.0
O14 O 0.01468 0.78465 0.66881 0.0
O15 O 0.04086 0.80655 0.69534 0.0
C16 C 0.01833 0.72587 0.67397 0.0
C17 C 0.07071 0.77212 0.72048 0.0
C18 C 0.98668 0.76962 0.72434 0.0
O19 O 0.01636 0.74408 0.66569 0.0
O20 O 0.02281 0.7287 0.69629 0.0
O21 O 1.00657 0.78412 0.73043 0.0
O22 O 0.98663 0.7538 0.70773 0.0
C23 C 0.02878 0.80461 0.67555 0.0
O24 O 0.05512 0.77458 0.73319 0.0
O25 O 0.0633 0.76781 0.69872 0.0
In26 In 0.55748 0.83079 0.86896 0.0
O27 O 0.57996 0.82714 0.83793 0.0
O28 O 0.59753 0.83547 0.87271 0.0
C29 C 0.51235 0.82135 0.8454 0.0
C30 C 0.55265 0.79509 0.89483 0.0
C31 C 0.56065 0.87348 0.89469 0.0
O32 O 0.52963 0.83549 0.83931 0.0
O33 O 0.51808 0.81113 0.86205 0.0
O34 O 0.56476 0.85645 0.90368 0.0
O35 O 0.55594 0.8695 0.87249 0.0
C36 C 0.5993 0.83117 0.85118 0.0
O37 O 0.55418 0.81601 0.90346 0.0
O38 O 0.55333 0.7919 0.87281 0.0
In39 In 0.5213 0.26481 0.20237 0.0
O40 O 0.51801 0.2429 0.16618 0.0
O41 O 0.51737 0.22477 0.19567 0.0
C42 C 0.52449 0.30087 0.17707 0.0
C43 C 0.48112 0.26526 0.22297 0.0
C44 C 0.56665 0.27129 0.22423 0.0
O45 O 0.51921 0.27964 0.16764 0.0
O46 O 0.52789 0.30402 0.19939 0.0
O47 O 0.56045 0.28493 0.21141 0.0
O48 O 0.54975 0.25475 0.2274 0.0
C49 C 0.51682 0.2236 0.17355 0.0
O50 O 0.50156 0.27464 0.23382 0.0
O51 O 0.48107 0.25498 0.20257 0.0
In52 In 0.0867 0.82563 0.1285 0.0
O53 O 0.0906 0.79633 0.09914 0.0
O54 O 0.07096 0.78584 0.12622 0.0
C55 C 0.08695 0.86499 0.1066 0.0
C56 C 0.05039 0.82359 0.15384 0.0
C57 C 0.12863 0.83083 0.15569 0.0
O58 O 0.07443 0.8446 0.09804 0.0
O59 O 0.10008 0.86537 0.12534 0.0
O60 O 0.11121 0.83558 0.16373 0.0
O61 O 0.12532 0.82424 0.13362 0.0
C62 C 0.07903 0.77936 0.10802 0.0
O63 O 0.07143 0.82797 0.16324 0.0
O64 O 0.04757 0.82062 0.13155 0.0
In65 In 0.51648 0.78842 0.45881 0.0
O66 O 0.53196 0.77573 0.4264 0.0
O67 O 0.55376 0.80426 0.45073 0.0
C68 C 0.47432 0.78235 0.4322 0.0
C69 C 0.5178 0.7501 0.48198 0.0
C70 C 0.52055 0.83405 0.47925 0.0
O71 O 0.49272 0.78132 0.42357 0.0
O72 O 0.47674 0.78513 0.45456 0.0
O73 O 0.5245 0.81875 0.49145 0.0
O74 O 0.51474 0.82629 0.45762 0.0
C75 C 0.55162 0.79066 0.43165 0.0
O76 O 0.50041 0.75089 0.46793 0.0
O77 O 0.53389 0.7691 0.48568 0.0
In78 In 0.58564 0.32497 0.62686 0.0
O79 O 0.58968 0.29538 0.59794 0.0
O80 O 0.56898 0.28531 0.6244 0.0
C81 C 0.58532 0.36452 0.60541 0.0
C82 C 0.54943 0.32263 0.65227 0.0
C83 C 0.62795 0.3301 0.65353 0.0
O84 O 0.57479 0.34387 0.59552 0.0
O85 O 0.59676 0.36506 0.62523 0.0
O86 O 0.61053 0.33445 0.66189 0.0
O87 O 0.62448 0.32395 0.63139 0.0
C88 C 0.57745 0.27859 0.60659 0.0
O89 O 0.57048 0.32691 0.66162 0.0
O90 O 0.54654 0.31985 0.62997 0.0
In91 In 0.01782 0.28947 0.95875 0.0
O92 O 0.02781 0.26973 0.98972 0.0
O93 O 1.0075 0.24901 0.95894 0.0
C94 C 0.02634 0.335 0.98185 0.0
C95 C 0.05227 0.29092 0.93115 0.0
C96 C 0.97675 0.28788 0.93157 0.0
O97 O 1.00891 0.31868 0.98434 0.0
O98 O 0.03991 0.32807 0.96914 0.0
O99 O 0.99589 0.28924 0.92362 0.0
O100 O 0.9779 0.2865 0.95338 0.0
C101 C 0.01817 0.24919 0.97905 0.0
O102 O 0.03078 0.28513 0.92292 0.0
O103 O 0.05647 0.2957 0.9534 0.0
In104 In 0.42629 0.07746 0.31642 0.0
O105 O 0.45728 0.06445 0.307 0.0
O106 O 0.44005 0.07988 0.28151 0.0
C107 C 0.44936 0.09924 0.35896 0.0
C108 C 0.39573 0.10107 0.30308 0.0
C109 C 0.40315 0.03195 0.31286 0.0
O110 O 0.45871 0.1007 0.34038 0.0
O111 O 0.42805 0.08791 0.35581 0.0
O112 O 0.40322 0.0432 0.29573 0.0
O113 O 0.41455 0.04373 0.33205 0.0
C114 C 0.45566 0.06964 0.28642 0.0
O115 O 0.39027 0.0832 0.3131 0.0
O116 O 0.41713 0.10794 0.30082 0.0
In117 In 0.29218 0.20874 0.52793 0.0
O118 O 0.27749 0.23106 0.55465 0.0
O119 O 0.31355 0.23321 0.56122 0.0
C120 C 0.29639 0.2239 0.48545 0.0
C121 C 0.32428 0.18516 0.53769 0.0
C122 C 0.24871 0.17936 0.52222 0.0
O123 O 0.3018 0.23783 0.50472 0.0
O124 O 0.28912 0.20265 0.4877 0.0
O125 O 0.26691 0.17222 0.52433 0.0
O126 O 0.25247 0.20124 0.52279 0.0
C127 C 0.29644 0.23933 0.56842 0.0
O128 O 0.30496 0.18124 0.54566 0.0
O129 O 0.32753 0.20113 0.52485 0.0
In130 In 0.13718 0.05863 0.79606 0.0
O131 O 0.10757 0.06563 0.77106 0.0
O132 O 0.12462 0.04069 0.75798 0.0
C133 C 0.12006 0.05685 0.83798 0.0
C134 C 0.16264 0.02717 0.79249 0.0
C135 C 0.16522 0.10227 0.79785 0.0
O136 O 0.13909 0.07069 0.83539 0.0
O137 O 0.1091 0.04379 0.81923 0.0
O138 O 0.17276 0.08561 0.80396 0.0
O139 O 0.14344 0.097 0.79106 0.0
C140 C 0.10962 0.05171 0.75362 0.0
O141 O 0.16972 0.04784 0.78816 0.0
O142 O 0.14243 0.02211 0.79862 0.0
In143 In 0.26886 0.91494 0.01974 0.0
O144 O 0.28172 0.88312 0.02488 0.0
O145 O 0.25116 0.88623 0.03969 0.0
C146 C 0.25657 0.89993 0.9731 0.0
C147 C 0.2452 0.94266 0.04057 0.0
C148 C 0.31355 0.94167 0.02907 0.0
O149 O 0.24523 0.89021 0.98813 0.0
O150 O 0.27337 0.91754 0.98158 0.0
O151 O 0.29782 0.94713 0.01638 0.0
O152 O 0.30672 0.92283 0.03727 0.0
C153 C 0.26584 0.87451 0.03665 0.0
O154 O 0.25959 0.93454 0.05217 0.0
O155 O 0.24202 0.93601 0.0186 0.0
In156 In 0.29938 0.39158 0.04806 0.0
O157 O 0.28633 0.36159 0.06985 0.0
O158 O 0.30406 0.39537 0.08815 0.0
C159 C 0.29591 0.36324 0.0064 0.0
C160 C 0.269 0.41829 0.04586 0.0
C161 C 0.34253 0.4197 0.04779 0.0
O162 O 0.31321 0.3674 0.02238 0.0
O163 O 0.27987 0.37223 0.01193 0.0
O164 O 0.32424 0.42329 0.03762 0.0
O165 O 0.33911 0.40169 0.05789 0.0
C166 C 0.29389 0.37447 0.08958 0.0
O167 O 0.29049 0.42652 0.0536 0.0
O168 O 0.26258 0.39635 0.03944 0.0
In169 In 0.79108 0.15489 0.04831 0.0
O170 O 0.81865 0.1446 0.0279 0.0
O171 O 0.80202 0.1213 0.04983 0.0
C172 C 0.74498 0.13618 0.04695 0.0
C173 C 0.80852 0.17692 0.09241 0.0
C174 C 0.78637 0.18448 0.01776 0.0
O175 O 0.75695 0.12776 0.03328 0.0
O176 O 0.7564 0.15373 0.0618 0.0
O177 O 0.80203 0.19032 0.03556 0.0
O178 O 0.77403 0.16354 0.01489 0.0
C179 C 0.81629 0.1252 0.03527 0.0
O180 O 0.81224 0.18669 0.07444 0.0
O181 O 0.79678 0.15568 0.08808 0.0
In182 In 0.18543 0.55074 0.27055 0.0
O183 O 0.21697 0.53712 0.26524 0.0
O184 O 0.20487 0.53555 0.29844 0.0
C185 C 0.2066 0.59693 0.27892 0.0
C186 C 0.16722 0.5308 0.22602 0.0
C187 C 0.14595 0.54786 0.28963 0.0
O188 O 0.2027 0.58498 0.29541 0.0
O189 O 0.19968 0.58564 0.25842 0.0
O190 O 0.15463 0.56441 0.27872 0.0
O191 O 0.1572 0.53258 0.29083 0.0
C192 C 0.21993 0.53208 0.28569 0.0
O193 O 0.15894 0.52275 0.24351 0.0
O194 O 0.18498 0.54819 0.23112 0.0
In195 In 0.80058 0.89341 0.54834 0.0
O196 O 0.78828 0.86368 0.57058 0.0
O197 O 0.80649 0.89753 0.58842 0.0
C198 C 0.79605 0.86489 0.50659 0.0
C199 C 0.76972 0.91958 0.54683 0.0
C200 C 0.84339 0.92152 0.54671 0.0
O201 O 0.78021 0.87393 0.51263 0.0
O202 O 0.81372 0.86908 0.52214 0.0
O203 O 0.8248 0.92521 0.53737 0.0
O204 O 0.84042 0.90346 0.55672 0.0
C205 C 0.79638 0.8767 0.59015 0.0
O206 O 0.79126 0.92814 0.55413 0.0
O207 O 0.76353 0.89762 0.54053 0.0
In208 In 0.95203 0.04602 0.27678 0.0
O209 O 0.98281 0.05533 0.25541 0.0
O210 O 0.94831 0.04556 0.23688 0.0
C211 C 0.98102 0.04784 0.31719 0.0
C212 C 0.92838 0.07821 0.28713 0.0
C213 C 0.92161 1.00293 0.26816 0.0
O214 O 0.97054 0.02904 0.30373 0.0
O215 O 0.97789 0.06602 0.30976 0.0
O216 O 0.91543 0.02133 0.27379 0.0
O217 O 0.94309 1.00628 0.26637 0.0
C218 C 0.96994 0.05176 0.23574 0.0
O219 O 0.92505 0.05922 0.2955 0.0
O220 O 0.94394 0.08122 0.27368 0.0
In221 In 0.29998 0.65394 0.55079 0.0
O222 O 0.31262 0.62452 0.56516 0.0
O223 O 0.3179 0.6306 0.5303 0.0
C224 C 0.25354 0.63441 0.54613 0.0
C225 C 0.31046 0.68578 0.59015 0.0
C226 C 0.31075 0.67849 0.51572 0.0
O227 O 0.26798 0.62683 0.55835 0.0
O228 O 0.26253 0.65174 0.53652 0.0
O229 O 0.32158 0.68534 0.53646 0.0
O230 O 0.29582 0.65877 0.51272 0.0
C231 C 0.31976 0.61822 0.54625 0.0
O232 O 0.29218 0.68214 0.5756 0.0
O233 O 0.32389 0.67315 0.58507 0.0
In234 In 0.45821 0.5501 0.78152 0.0
O235 O 0.42357 0.5595 0.77716 0.0
O236 O 0.45422 0.58746 0.78925 0.0
C237 C 0.42923 0.50725 0.78122 0.0
C238 C 0.47654 0.55531 0.74049 0.0
C239 C 0.486 0.55332 0.82302 0.0
O240 O 0.42641 0.5257 0.79226 0.0
O241 O 0.4469 0.51034 0.77043 0.0
O242 O 0.47769 0.56972 0.81753 0.0
O243 O 0.48134 0.53571 0.80712 0.0
C244 C 0.43221 0.58118 0.78391 0.0
O245 O 0.48906 0.56196 0.7604 0.0
O246 O 0.45529 0.54607 0.74144 0.0
In247 In 0.68187 0.05213 0.77618 0.0
O248 O 0.70805 0.03131 0.76908 0.0
O249 O 0.70408 0.04041 0.80477 0.0
C250 C 0.70549 0.09782 0.78371 0.0
C251 C 0.66229 0.03521 0.73135 0.0
C252 C 0.64272 0.0489 0.79596 0.0
O253 O 0.6974 0.0874 0.80004 0.0
O254 O 0.70157 0.08527 0.76379 0.0
O255 O 0.65115 0.0656 0.78513 0.0
O256 O 0.65406 0.03366 0.79676 0.0
C257 C 0.71471 0.03097 0.79043 0.0
O258 O 0.6542 0.02611 0.74845 0.0
O259 O 0.68035 0.05225 0.73694 0.0
In260 In 0.79126 0.70544 0.025 0.0
O261 O 0.80406 0.67282 0.01963 0.0
O262 O 0.82963 0.70502 0.03329 0.0
C263 C 0.74738 0.678 0.02334 0.0
C264 C 0.79481 0.72946 0.06901 0.0
C265 C 0.79568 0.72318 0.98379 0.0
O266 O 0.76501 0.67001 0.02343 0.0
O267 O 0.75178 0.69993 0.0239 0.0
O268 O 0.80563 0.73504 1.0035 0.0
O269 O 0.78349 0.70291 0.98505 0.0
C270 C 0.82526 0.68308 0.02723 0.0
O271 O 0.78667 0.73636 0.05084 0.0
O272 O 0.8016 0.71123 0.06475 0.0
In273 In 0.91835 0.57903 0.81516 0.0
O274 O 0.88047 0.58018 0.81172 0.0
O275 O 0.90572 0.60946 0.80384 0.0
C276 C 0.90196 0.53249 0.81436 0.0
C277 C 0.94177 0.58395 0.77833 0.0
C278 C 0.9471 0.59378 0.85628 0.0
O279 O 0.89838 0.54723 0.83013 0.0
O280 O 0.91407 0.54123 0.79944 0.0
O281 O 0.95227 0.58297 0.8384 0.0
O282 O 0.92727 0.59779 0.85346 0.0
C283 C 0.88442 0.5996 0.80425 0.0
O284 O 0.95049 0.59516 0.79866 0.0
O285 O 0.92103 0.57123 0.77663 0.0
In286 In 0.77489 0.41684 0.51328 0.0
O287 O 0.75796 0.38776 0.53328 0.0
O288 O 0.79062 0.38748 0.52157 0.0
C289 C 0.75485 0.40103 0.46823 0.0
C290 C 0.75573 0.45002 0.53158 0.0
C291 C 0.82088 0.43883 0.52086 0.0
O292 O 0.74795 0.39061 0.48502 0.0
O293 O 0.77092 0.41979 0.4744 0.0
O294 O 0.8104 0.42748 0.50118 0.0
O295 O 0.80823 0.43884 0.53707 0.0
C296 C 0.77431 0.37785 0.53234 0.0
O297 O 0.75689 0.43264 0.54166 0.0
O298 O 0.76322 0.45001 0.51198 0.0
In299 In 0.64191 0.55629 0.29909 0.0
O300 O 0.67082 0.54411 0.28299 0.0
O301 O 0.64736 0.51967 0.29925 0.0
C302 C 0.67187 0.59953 0.30612 0.0
C303 C 0.6123 0.55332 0.25858 0.0
C304 C 0.62622 0.55163 0.34144 0.0
O305 O 0.67855 0.58112 0.30247 0.0
O306 O 0.65012 0.5961 0.30641 0.0
O307 O 0.61248 0.54756 0.32227 0.0
O308 O 0.64756 0.55776 0.33916 0.0
C309 C 0.66503 0.52377 0.2885 0.0
O310 O 0.61738 0.53573 0.26553 0.0
O311 O 0.62126 0.57219 0.2725 0.0
Dy312 Dy 0.07891 0.07258 0.05457 0.0
Dy313 Dy 0.02847 0.04054 0.02696 0.0
C314 C 0.07139 0.05376 0.99969 0.0
O315 O 0.0592 0.09945 0.04813 0.0
O316 O 0.02998 0.07725 0.01903 0.0
O317 O 0.11562 0.08785 0.05408 0.0
O318 O 0.1003 0.09493 0.08563 0.0
O319 O 0.02099 0.05615 0.06165 0.0
O320 O 0.05709 0.06011 0.08197 0.0
O321 O 0.04353 0.015 0.04473 0.0
O322 O 0.08234 0.03543 0.05403 0.0
O323 O 0.9976 0.01191 0.02513 0.0
O324 O 1.00301 0.03066 0.99535 0.0
C325 C 0.04212 0.09785 0.03097 0.0
O326 O 0.07961 0.07238 0.01581 0.0
O327 O 0.05509 0.03597 1.00379 0.0
C328 C 0.13811 0.08912 0.08972 0.0
C329 C 0.17374 0.06726 0.0994 0.0
C330 C 0.1793 0.09059 0.09493 0.0
C331 C 0.16152 0.10141 0.08996 0.0
C332 C 0.13281 0.06703 0.09712 0.0
C333 C 0.15053 0.05618 0.10202 0.0
C334 C 0.11961 0.09646 0.07645 0.0
C335 C 0.03476 0.05867 0.08168 0.0
C336 C 0.0654 0.0158 0.05216 0.0
C337 C 0.96429 0.01712 1.00288 0.0
C338 C 0.92005 0.02586 0.99902 0.0
C339 C 0.93244 0.02646 0.02131 0.0
C340 C 0.95441 0.02225 0.02324 0.0
C341 C 0.95148 0.01534 0.98057 0.0
C342 C 0.92952 0.0198 0.97863 0.0
C343 C 0.98845 0.01523 0.00468 0.0
H344 H 0.1971 0.09965 0.09315 0.0
H345 H 0.16587 0.11846 0.08421 0.0
H346 H 0.11477 0.05722 0.09687 0.0
H347 H 0.14562 0.03818 0.10529 0.0
H348 H 0.92578 0.03152 0.03733 0.0
H349 H 0.96397 0.02389 0.04069 0.0
H350 H 0.95883 0.01135 0.96468 0.0
H351 H 0.92026 0.0192 0.96126 0.0
Dy352 Dy 0.31612 0.80846 0.27482 0.0
Dy353 Dy 0.29005 0.82087 0.31991 0.0
C354 C 0.32409 0.86079 0.29891 0.0
O355 O 0.3431 0.81367 0.30654 0.0
O356 O 0.31836 0.8053 0.33418 0.0
O357 O 0.3421 0.81757 0.25155 0.0
O358 O 0.31823 0.78274 0.24614 0.0
O359 O 0.27384 0.78293 0.30655 0.0
O360 O 0.30452 0.77531 0.28941 0.0
O361 O 0.27165 0.83213 0.28915 0.0
O362 O 0.27929 0.80669 0.26005 0.0
O363 O 0.25852 0.81934 0.33574 0.0
O364 O 0.29231 0.83843 0.35539 0.0
C365 C 0.33918 0.80784 0.32737 0.0
O366 O 0.31987 0.84699 0.27856 0.0
O367 O 0.31819 0.85271 0.31813 0.0
C368 C 0.3258 0.79979 0.21278 0.0
C369 C 0.306 0.79941 0.16627 0.0
C370 C 0.29989 0.81261 0.18526 0.0
C371 C 0.30967 0.81276 0.20829 0.0
C372 C 0.33224 0.78679 0.19397 0.0
C373 C 0.3225 0.7867 0.17078 0.0
C374 C 0.33346 0.79782 0.2372 0.0
C375 C 0.28476 0.76815 0.29771 0.0
C376 C 0.26695 0.82081 0.26742 0.0
C377 C 0.26642 0.81462 0.37552 0.0
C378 C 0.27171 0.78687 0.41076 0.0
C379 C 0.26249 0.77634 0.38742 0.0
C380 C 0.25987 0.79006 0.37 0.0
C381 C 0.27395 0.82518 0.39909 0.0
C382 C 0.27656 0.81138 0.41664 0.0
C383 C 0.2703 0.82884 0.35649 0.0
H384 H 0.28765 0.82299 0.18234 0.0
H385 H 0.30431 0.8227 0.22267 0.0
H386 H 0.34439 0.77638 0.19726 0.0
H387 H 0.3275 0.7764 0.15644 0.0
H388 H 0.25887 0.75757 0.38214 0.0
H389 H 0.25433 0.78145 0.35191 0.0
H390 H 0.2793 0.84412 0.40364 0.0
H391 H 0.28336 0.81996 0.43456 0.0
Dy392 Dy 0.52583 0.05152 0.55346 0.0
Dy393 Dy 0.57541 0.06096 0.53143 0.0
C394 C 0.53002 0.06897 0.50362 0.0
O395 O 0.52485 0.0173 0.53107 0.0
O396 O 0.56434 0.02226 0.53336 0.0
O397 O 0.48823 0.0375 0.54777 0.0
O398 O 0.50618 0.05462 0.58253 0.0
O399 O 0.58411 0.06102 0.56987 0.0
O400 O 0.54939 0.03807 0.57749 0.0
O401 O 0.57051 0.09716 0.53984 0.0
O402 O 0.54515 0.08947 0.56708 0.0
O403 O 0.61201 0.07889 0.53305 0.0
O404 O 0.59461 0.05148 0.5038 0.0
C405 C 0.54285 1.00846 0.52929 0.0
O406 O 0.52124 0.07071 0.5234 0.0
O407 O 0.54803 0.06038 0.50173 0.0
C408 C 0.47027 0.06192 0.56944 0.0
C409 C 0.43932 0.0905 0.56555 0.0
C410 C 0.46349 0.09987 0.5655 0.0
C411 C 0.47878 0.08569 0.5673 0.0
C412 C 0.44633 0.05258 0.57005 0.0
C413 C 0.43096 0.06675 0.56816 0.0
C414 C 0.48604 0.04657 0.56888 0.0
C415 C 0.57212 0.04699 0.58275 0.0
C416 C 0.55954 0.10451 0.55667 0.0
C417 C 0.63319 0.05266 0.51877 0.0
C418 C 0.66495 0.02531 0.52545 0.0
C419 C 0.65902 0.038 0.54492 0.0
C420 C 0.6432 0.05144 0.54164 0.0
C421 C 0.63962 0.04054 0.49928 0.0
C422 C 0.65528 0.02691 0.50258 0.0
C423 C 0.61462 0.0647 0.51507 0.0
H424 H 0.4706 0.11814 0.56388 0.0
H425 H 0.49721 0.09319 0.56655 0.0
H426 H 0.43943 0.03419 0.57139 0.0
H427 H 0.41243 0.05888 0.56796 0.0
H428 H 0.66601 0.03691 0.56275 0.0
H429 H 0.63841 0.06039 0.55704 0.0
H430 H 0.63206 0.04115 0.48151 0.0
H431 H 0.65974 0.0175 0.48724 0.0
Dy432 Dy 0.32167 0.29612 0.79069 0.0
Dy433 Dy 0.27243 0.31273 0.78337 0.0
C434 C 0.32233 0.34764 0.78195 0.0
O435 O 0.31749 0.31303 0.82638 0.0
O436 O 0.27759 0.30584 0.82044 0.0
O437 O 0.3585 0.3052 0.80458 0.0
O438 O 0.34156 0.27085 0.78443 0.0
O439 O 0.26254 0.2737 0.77822 0.0
O440 O 0.29402 0.26676 0.79987 0.0
O441 O 0.28305 0.30998 0.74711 0.0
O442 O 0.30669 0.28531 0.7526 0.0
O443 O 0.2362 0.30701 0.76832 0.0
O444 O 0.25333 0.33758 0.79415 0.0
C445 C 0.29749 0.31144 0.83465 0.0
O446 O 0.3299 0.32937 0.77563 0.0
O447 O 0.30226 0.34534 0.79008 0.0
C448 C 0.3808 0.28908 0.77887 0.0
C449 C 0.4179 0.29674 0.75115 0.0
C450 C 0.42126 0.30783 0.77472 0.0
C451 C 0.40298 0.30397 0.7884 0.0
C452 C 0.37736 0.27792 0.75534 0.0
C453 C 0.39569 0.28166 0.74169 0.0
C454 C 0.36146 0.286 0.79347 0.0
C455 C 0.27206 0.25999 0.7898 0.0
C456 C 0.29484 0.29562 0.73875 0.0
C457 C 0.21391 0.31935 0.79637 0.0
C458 C 0.17764 0.31123 0.82485 0.0
C459 C 0.19667 0.30149 0.82846 0.0
C460 C 0.21457 0.30545 0.81432 0.0
C461 C 0.19492 0.32892 0.79251 0.0
C462 C 0.17691 0.32486 0.80656 0.0
C463 C 0.23346 0.32463 0.78241 0.0
H464 H 0.43793 0.31986 0.78257 0.0
H465 H 0.40612 0.31288 0.80643 0.0
H466 H 0.36049 0.26633 0.74739 0.0
H467 H 0.39247 0.27252 0.72376 0.0
H468 H 0.19768 0.29066 0.84213 0.0
H469 H 0.22905 0.29782 0.81752 0.0
H470 H 0.19415 0.3398 0.77883 0.0
H471 H 0.16267 0.33284 0.80344 0.0
Dy472 Dy 0.05421 0.02567 0.53097 0.0
Dy473 Dy 0.03811 0.07522 0.53922 0.0
C474 C 1.00323 0.02559 0.54122 0.0
O475 O 0.0367 0.0294 0.49572 0.0
O476 O 0.0433 0.06937 0.50151 0.0
O477 O 0.04543 0.98888 0.51665 0.0
O478 O 0.07906 1.0055 0.53799 0.0
O479 O 0.07699 0.08507 0.54122 0.0
O480 O 0.08309 0.05242 0.52001 0.0
O481 O 0.0416 0.06472 0.57532 0.0
O482 O 0.06729 0.04261 0.56824 0.0
O483 O 0.0444 0.11172 0.5543 0.0
O484 O 1.01283 0.09418 0.53018 0.0
C485 C 0.03774 0.04922 0.48743 0.0
O486 O 0.02148 0.01806 0.54726 0.0
O487 O 1.00553 0.04544 0.53285 0.0
C488 C 0.06016 0.96681 0.54326 0.0
C489 C 0.05357 0.93172 0.57289 0.0
C490 C 0.03511 0.94115 0.56558 0.0
C491 C 0.03839 0.95857 0.55104 0.0
C492 C 0.0786 0.95739 0.55046 0.0
C493 C 0.07538 0.94008 0.56518 0.0
C494 C 0.06405 0.9857 0.5284 0.0
C495 C 0.09009 0.07476 0.52916 0.0
C496 C 0.0568 0.05366 0.58291 0.0
C497 C 0.03054 0.1334 0.52698 0.0
C498 C 0.0366 0.16873 0.49769 0.0
C499 C 0.04702 0.15013 0.49399 0.0
C500 C 0.04405 0.13268 0.50851 0.0
C501 C 0.02029 0.15196 0.53091 0.0
C502 C 0.02334 0.16951 0.51646 0.0
C503 C 0.02618 0.11422 0.54129 0.0
H504 H 0.01819 0.93536 0.57144 0.0
H505 H 0.0239 0.96569 0.54605 0.0
H506 H 0.09556 0.96352 0.54479 0.0
H507 H 0.0899 0.93305 0.57032 0.0
H508 H 0.05759 0.14911 0.47994 0.0
H509 H 0.05213 0.11848 0.5052 0.0
H510 H 1.00967 0.15273 0.54496 0.0
H511 H 0.01484 0.18339 0.51967 0.0
Dy512 Dy 0.29714 0.82481 0.77277 0.0
Dy513 Dy 0.28671 0.77366 0.7908 0.0
C514 C 0.28143 0.81836 0.82293 0.0
O515 O 0.33291 0.81851 0.77933 0.0
O516 O 0.32424 0.79252 0.8055 0.0
O517 O 0.31498 0.86181 0.77794 0.0
O518 O 0.28953 0.84619 0.74688 0.0
O519 O 0.30543 0.77053 0.75969 0.0
O520 O 0.29449 0.79856 0.74101 0.0
O521 O 0.25297 0.77388 0.76902 0.0
O522 O 0.25819 0.81362 0.77385 0.0
O523 O 0.27322 0.73599 0.78308 0.0
O524 O 0.28899 0.75273 0.8186 0.0
C525 C 0.33973 0.80681 0.79552 0.0
O526 O 0.29647 0.83102 0.81143 0.0
O527 O 0.2722 0.79584 0.81582 0.0
C528 C 0.28959 0.8835 0.76483 0.0
C529 C 0.263 0.91594 0.77246 0.0
C530 C 0.26161 0.89768 0.78607 0.0
C531 C 0.27473 0.88158 0.78224 0.0
C532 C 0.2913 0.90177 0.75138 0.0
C533 C 0.27813 0.91789 0.75517 0.0
C534 C 0.30213 0.86563 0.75986 0.0
C535 C 0.30256 0.78004 0.74067 0.0
C536 C 0.24436 0.79212 0.76838 0.0
C537 C 0.29734 0.71772 0.80412 0.0
C538 C 0.32718 0.68791 0.80202 0.0
C539 C 0.33446 0.71075 0.79648 0.0
C540 C 0.31967 0.7255 0.79751 0.0
C541 C 0.29003 0.69512 0.80995 0.0
C542 C 0.30484 0.6803 0.80893 0.0
C543 C 0.28158 0.73302 0.80401 0.0
H544 H 0.25041 0.89584 0.79974 0.0
H545 H 0.27308 0.86744 0.7927 0.0
H546 H 0.30251 0.90333 0.73771 0.0
H547 H 0.27939 0.93154 0.74416 0.0
H548 H 0.35136 0.71706 0.79077 0.0
H549 H 0.32553 0.7429 0.7928 0.0
H550 H 0.27283 0.68887 0.81507 0.0
H551 H 0.29882 0.66291 0.81357 0.0
Dy552 Dy 0.51939 0.05605 0.00961 0.0
Dy553 Dy 0.53688 0.03251 0.05415 0.0
C554 C 0.53684 0.00975 1.0014 0.0
O555 O 0.48801 0.04374 0.02709 0.0
O556 O 0.49893 0.01438 0.04343 0.0
O557 O 0.49321 0.05432 0.98018 0.0
O558 O 0.52426 0.08377 0.9881 0.0
O559 O 0.52155 0.06018 0.07077 0.0
O560 O 0.52489 0.08347 0.04152 0.0
O561 O 0.56588 0.0631 0.0508 0.0
O562 O 0.55812 0.06268 0.01111 0.0
O563 O 0.55802 0.0351 0.08761 0.0
O564 O 0.53767 1.00113 0.06903 0.0
C565 C 0.48275 0.02429 0.03619 0.0
O566 O 0.52063 0.0199 0.99458 0.0
O567 O 0.54901 0.01623 0.02255 0.0
C568 C 0.51074 0.06861 0.94799 0.0
C569 C 0.5267 0.06021 0.90433 0.0
C570 C 0.5115 0.04194 0.91291 0.0
C571 C 0.50367 0.04605 0.93456 0.0
C572 C 0.52448 0.08721 0.93863 0.0
C573 C 0.53247 0.08306 0.91703 0.0
C574 C 0.50614 0.07236 0.9726 0.0
C575 C 0.52206 0.08041 0.06342 0.0
C576 C 0.57257 0.06887 0.03095 0.0
C577 C 0.54025 1.00773 0.11016 0.0
C578 C 0.52308 1.00564 0.15355 0.0
C579 C 0.50893 1.00822 0.13345 0.0
C580 C 0.51745 1.00927 0.11197 0.0
C581 C 0.55411 1.00399 0.12972 0.0
C582 C 0.54555 1.00289 0.15135 0.0
C583 C 0.55022 0.01283 0.08872 0.0
H584 H 0.50638 0.02424 0.90332 0.0
H585 H 0.49293 0.03131 0.94117 0.0
H586 H 0.53009 0.10475 0.94862 0.0
H587 H 0.5443 0.09751 0.91104 0.0
H588 H 0.49178 0.01094 0.13454 0.0
H589 H 0.50665 0.01247 0.09705 0.0
H590 H 0.57182 1.0029 0.12852 0.0
H591 H 0.55677 1.00074 0.16648 0.0
Dy592 Dy 0.27408 0.27524 0.27439 0.0
Dy593 Dy 0.30529 0.32613 0.30175 0.0
C594 C 0.29575 0.28113 0.32831 0.0
O595 O 0.25031 0.2898 0.2959 0.0
O596 O 0.26776 0.32892 0.29765 0.0
O597 O 0.24833 0.24228 0.27381 0.0
O598 O 0.26123 0.25154 0.24165 0.0
O599 O 0.30211 0.33002 0.26368 0.0
O600 O 0.2681 0.30121 0.25101 0.0
O601 O 0.33148 0.30521 0.29619 0.0
O602 O 0.31045 0.27782 0.2651 0.0
O603 O 0.33615 0.3553 0.30576 0.0
O604 O 0.31178 0.35413 0.33113 0.0
C605 C 0.24947 0.31171 0.29972 0.0
O606 O 0.29119 0.2672 0.30791 0.0
O607 O 0.29741 0.30357 0.32944 0.0
C608 C 0.25427 0.21186 0.24692 0.0
C609 C 0.27374 0.17359 0.2431 0.0
C610 C 0.26118 0.17749 0.26179 0.0
C611 C 0.25145 0.19643 0.26365 0.0
C612 C 0.26438 0.20632 0.22679 0.0
C613 C 0.27411 0.18735 0.22493 0.0
C614 C 0.24939 0.23488 0.25183 0.0
C615 C 0.28416 0.3196 0.24747 0.0
C616 C 0.33064 0.28928 0.27795 0.0
C617 C 0.33052 0.39098 0.32254 0.0
C618 C 0.32505 0.43625 0.32169 0.0
C619 C 0.3194 0.41976 0.30092 0.0
C620 C 0.322 0.39726 0.30137 0.0
C621 C 0.33734 0.40768 0.34303 0.0
C622 C 0.33459 0.43021 0.34264 0.0
C623 C 0.33025 0.36659 0.32387 0.0
H624 H 0.26058 0.16721 0.2761 0.0
H625 H 0.24324 0.19991 0.27908 0.0
H626 H 0.26621 0.21753 0.21325 0.0
H627 H 0.28326 0.18439 0.21008 0.0
H628 H 0.31158 0.42372 0.28462 0.0
H629 H 0.31641 0.38449 0.28542 0.0
H630 H 0.34389 0.403 0.35952 0.0
H631 H 0.33909 0.44261 0.35885 0.0
Dy632 Dy 0.55276 0.52633 0.03754 0.0
Dy633 Dy 0.53743 0.57654 0.04484 0.0
C634 C 0.50173 0.52716 0.04657 0.0
O635 O 0.53592 0.53011 1.00196 0.0
O636 O 0.54342 0.57017 0.00746 0.0
O637 O 0.54308 0.48926 0.02406 0.0
O638 O 0.5774 0.50591 0.04394 0.0
O639 O 0.57637 0.58546 0.04899 0.0
O640 O 0.58219 0.55303 0.02728 0.0
O641 O 0.54048 0.56695 0.08136 0.0
O642 O 0.56416 0.5422 0.07538 0.0
O643 O 0.54516 0.6139 0.05742 0.0
O644 O 0.51186 0.5954 0.03658 0.0
C645 C 0.53759 0.54994 0.9935 0.0
O646 O 0.51968 0.51943 0.05318 0.0
O647 O 0.50455 0.547 0.03807 0.0
C648 C 0.55871 0.46749 0.04982 0.0
C649 C 0.55102 0.43121 0.07798 0.0
C650 C 0.54458 0.45202 0.08437 0.0
C651 C 0.54836 0.46995 0.07041 0.0
C652 C 0.56534 0.44694 0.04343 0.0
C653 C 0.56155 0.42897 0.05736 0.0
C654 C 0.56218 0.48609 0.03478 0.0
C655 C 0.58948 0.57521 0.03695 0.0
C656 C 0.55441 0.55476 0.08945 0.0
C657 C 0.52928 0.63408 0.02949 0.0
C658 C 0.53528 0.66937 0.99984 0.0
C659 C 0.5431 0.67507 0.02431 0.0
C660 C 0.54007 0.65766 0.03892 0.0
C661 C 0.52167 0.62825 0.00503 0.0
C662 C 0.52456 0.64566 0.99044 0.0
C663 C 0.52623 0.61583 0.04523 0.0
H664 H 0.53618 0.45428 0.09992 0.0
H665 H 0.54302 0.48568 0.07558 0.0
H666 H 0.57339 0.44474 0.02762 0.0
H667 H 0.56706 0.41339 0.05205 0.0
H668 H 0.55181 0.693 0.03222 0.0
H669 H 0.54625 0.66262 0.05766 0.0
H670 H 0.51335 0.61022 0.99712 0.0
H671 H 0.51801 0.64051 0.9718 0.0
Dy672 Dy 0.79308 0.31768 0.26936 0.0
Dy673 Dy 0.78303 0.26939 0.29364 0.0
C674 C 0.77641 0.31642 0.32025 0.0
O675 O 0.82879 0.31206 0.27792 0.0
O676 O 0.82052 0.28973 0.30728 0.0
O677 O 0.81128 0.35421 0.27076 0.0
O678 O 0.78507 0.33622 0.24096 0.0
O679 O 0.80118 0.26285 0.2629 0.0
O680 O 0.79119 0.28873 0.24024 0.0
O681 O 0.74811 0.26779 0.27282 0.0
O682 O 0.75419 0.30683 0.2696 0.0
O683 O 0.77004 0.23166 0.2895 0.0
O684 O 0.78618 0.25159 0.32382 0.0
C685 C 0.83581 0.3025 0.29582 0.0
O686 O 0.79077 0.32803 0.30734 0.0
O687 O 0.76842 0.29352 0.31601 0.0
C688 C 0.78534 0.37454 0.25588 0.0
C689 C 0.75865 0.40717 0.26154 0.0
C690 C 0.75841 0.39059 0.27701 0.0
C691 C 0.77152 0.37438 0.27413 0.0
C692 C 0.78594 0.39115 0.24054 0.0
C693 C 0.77271 0.40738 0.24335 0.0
C694 C 0.79789 0.35645 0.25223 0.0
C695 C 0.79871 0.27016 0.24253 0.0
C696 C 0.74001 0.28568 0.26821 0.0
C697 C 0.79541 0.21612 0.31238 0.0
C698 C 0.8262 0.18721 0.31024 0.0
C699 C 0.80247 0.17777 0.31248 0.0
C700 C 0.7872 0.19214 0.31352 0.0
C701 C 0.81911 0.22567 0.31056 0.0
C702 C 0.83438 0.21141 0.30966 0.0
C703 C 0.77909 0.23086 0.31092 0.0
H704 H 0.74813 0.39014 0.29144 0.0
H705 H 0.77067 0.36152 0.28602 0.0
H706 H 0.79633 0.39133 0.2262 0.0
H707 H 0.77309 0.41972 0.23096 0.0
H708 H 0.79551 0.15917 0.31266 0.0
H709 H 0.76888 0.18442 0.31458 0.0
H710 H 0.82573 0.2441 0.30933 0.0
H711 H 0.85257 0.21937 0.30831 0.0
Dy712 Dy 0.02884 0.56146 0.51123 0.0
Dy713 Dy 0.04122 0.53502 0.55545 0.0
C714 C 0.03799 0.51061 0.50229 0.0
O715 O 0.99658 0.53428 0.51454 0.0
O716 O 1.00314 0.53233 0.55391 0.0
O717 O 1.00647 0.56132 0.47919 0.0
O718 O 0.03633 0.59099 0.49216 0.0
O719 O 0.0431 0.57195 0.57127 0.0
O720 O 0.0192 0.58142 0.54232 0.0
O721 O 0.07299 0.54445 0.53812 0.0
O722 O 0.0666 0.57717 0.5253 0.0
O723 O 0.06767 0.53284 0.5829 0.0
O724 O 0.03314 0.50835 0.57795 0.0
C725 C 0.9889 0.52859 0.53408 0.0
O726 O 0.04175 0.53147 0.49563 0.0
O727 O 0.03278 0.50744 0.5235 0.0
C728 C 0.02904 0.57708 0.45161 0.0
C729 C 0.04309 0.56592 0.40771 0.0
C730 C 0.05413 0.56065 0.4283 0.0
C731 C 0.0472 0.56621 0.45003 0.0
C732 C 0.01815 0.58279 0.43123 0.0
C733 C 0.02529 0.5774 0.40934 0.0
C734 C 0.02043 0.58023 0.47428 0.0
C735 C 0.02996 0.58524 0.56414 0.0
C736 C 0.08091 0.56491 0.53166 0.0
C737 C 0.05087 0.52364 0.6168 0.0
C738 C 0.03692 0.53678 0.66017 0.0
C739 C 0.04993 0.5539 0.64851 0.0
C740 C 0.05677 0.5474 0.62695 0.0
C741 C 0.03968 0.50639 0.62939 0.0
C742 C 0.03272 0.51292 0.65098 0.0
C743 C 0.05297 0.51723 0.59191 0.0
H744 H 0.06824 0.55228 0.42763 0.0
H745 H 0.05581 0.56168 0.4656 0.0
H746 H 1.00394 0.59098 0.43219 0.0
H747 H 0.01659 0.58168 0.39368 0.0
H748 H 0.05317 0.57241 0.65504 0.0
H749 H 0.0653 0.56112 0.61755 0.0
H750 H 0.035 0.488 0.62183 0.0
H751 H 0.02287 0.4994 0.65981 0.0
Dy752 Dy 0.82095 0.79485 0.29127 0.0
Dy753 Dy 0.7705 0.80925 0.28289 0.0
C754 C 0.81895 0.84434 0.27789 0.0
O755 O 0.81692 0.81323 0.32628 0.0
O756 O 0.77695 0.80632 0.32106 0.0
O757 O 0.85801 0.80615 0.30447 0.0
O758 O 0.84235 0.77082 0.28603 0.0
O759 O 0.76161 0.77072 0.28321 0.0
O760 O 0.79514 0.76606 0.30359 0.0
O761 O 0.78054 0.80334 0.24654 0.0
O762 O 0.80356 0.77888 0.25478 0.0
O763 O 0.73416 0.80206 0.26763 0.0
O764 O 0.75077 0.83411 0.29179 0.0
C765 C 0.79716 0.81229 0.33484 0.0
O766 O 0.82704 0.82616 0.27288 0.0
O767 O 0.79936 0.84229 0.28687 0.0
C768 C 0.88104 0.79008 0.27967 0.0
C769 C 0.91818 0.79775 0.252 0.0
C770 C 0.92186 0.80773 0.27598 0.0
C771 C 0.90355 0.80386 0.28962 0.0
C772 C 0.87721 0.78013 0.25572 0.0
C773 C 0.89558 0.78385 0.24209 0.0
C774 C 0.86182 0.78693 0.29439 0.0
C775 C 0.77264 0.7585 0.29544 0.0
C776 C 0.79169 0.78783 0.23956 0.0
C777 C 0.7114 0.81599 0.29467 0.0
C778 C 0.67604 0.80985 0.32436 0.0
C779 C 0.6866 0.79176 0.31833 0.0
C780 C 0.70421 0.79486 0.30377 0.0
C781 C 0.70067 0.83391 0.30037 0.0
C782 C 0.68322 0.83092 0.31509 0.0
C783 C 0.73106 0.82022 0.28064 0.0
H784 H 0.93883 0.81888 0.2842 0.0
H785 H 0.90694 0.81187 0.30798 0.0
H786 H 0.86003 0.7695 0.24745 0.0
H787 H 0.89206 0.7756 0.22382 0.0
H788 H 0.6817 0.77544 0.32537 0.0
H789 H 0.71247 0.78089 0.29998 0.0
H790 H 0.70604 0.85041 0.2937 0.0
H791 H 0.67531 0.84511 0.31918 0.0
Dy792 Dy 0.81617 0.30786 0.77249 0.0
Dy793 Dy 0.7899 0.3213 0.81708 0.0
C794 C 0.82449 0.36068 0.79595 0.0
O795 O 0.84302 0.31359 0.8044 0.0
O796 O 0.81864 0.30684 0.83266 0.0
O797 O 0.84278 0.31615 0.74974 0.0
O798 O 0.81784 0.28189 0.74382 0.0
O799 O 0.77397 0.28317 0.80479 0.0
O800 O 0.80478 0.27523 0.78811 0.0
O801 O 0.7725 0.33252 0.78566 0.0
O802 O 0.77946 0.30608 0.75723 0.0
O803 O 0.7577 0.32165 0.83084 0.0
O804 O 0.79108 0.33849 0.8525 0.0
C805 C 0.83936 0.3089 0.82567 0.0
O806 O 0.8209 0.3466 0.77581 0.0
O807 O 0.81804 0.35294 0.81514 0.0
C808 C 0.82701 0.29898 0.71074 0.0
C809 C 0.81016 0.30065 0.66379 0.0
C810 C 0.8022 0.31231 0.68255 0.0
C811 C 0.81055 0.31147 0.7058 0.0
C812 C 0.83519 0.2874 0.69219 0.0
C813 C 0.8269 0.28834 0.66879 0.0
C814 C 0.8338 0.29656 0.73523 0.0
C815 C 0.78507 0.26827 0.79659 0.0
C816 C 0.76743 0.32064 0.76419 0.0
C817 C 0.761 0.31854 0.87126 0.0
C818 C 0.75513 0.29392 0.9097 0.0
C819 C 0.751 0.28174 0.88657 0.0
C820 C 0.75402 0.29394 0.86752 0.0
C821 C 0.7638 0.33082 0.89413 0.0
C822 C 0.7609 0.31857 0.91329 0.0
C823 C 0.76846 0.33121 0.85196 0.0
H824 H 0.78972 0.32237 0.6793 0.0
H825 H 0.80396 0.32039 0.71996 0.0
H826 H 0.84769 0.27744 0.69581 0.0
H827 H 0.83331 0.27921 0.65464 0.0
H828 H 0.74695 0.26277 0.88324 0.0
H829 H 0.75209 0.28412 0.85003 0.0
H830 H 0.76934 0.34982 0.89728 0.0
H831 H 0.76408 0.32835 0.93095 0.0
Dy832 Dy 0.77801 0.77807 0.77427 0.0
Dy833 Dy 0.80924 0.82855 0.80256 0.0
C834 C 0.80009 0.78262 0.82802 0.0
O835 O 0.75433 0.79161 0.79674 0.0
O836 O 0.77147 0.83082 0.79889 0.0
O837 O 0.75424 0.7437 0.77287 0.0
O838 O 0.76298 0.75676 0.74062 0.0
O839 O 0.80631 0.83299 0.76464 0.0
O840 O 0.7718 0.80499 0.75229 0.0
O841 O 0.83576 0.80825 0.79588 0.0
O842 O 0.81444 0.78065 0.76497 0.0
O843 O 0.83967 0.85824 0.8069 0.0
O844 O 0.81528 0.85612 0.8323 0.0
C845 C 0.75332 0.81344 0.80097 0.0
O846 O 0.79479 0.76908 0.80736 0.0
O847 O 0.80264 0.80528 0.82989 0.0
C848 C 0.75849 0.71671 0.74192 0.0
C849 C 0.77237 0.6751 0.73537 0.0
C850 C 0.78774 0.69663 0.73294 0.0
C851 C 0.7809 0.71724 0.73629 0.0
C852 C 0.74244 0.69514 0.74253 0.0
C853 C 0.74932 0.6744 0.73925 0.0
C854 C 0.75302 0.73864 0.75007 0.0
C855 C 0.78809 0.82309 0.74862 0.0
C856 C 0.83474 0.79224 0.77761 0.0
C857 C 0.83259 0.89328 0.82351 0.0
C858 C 0.8244 0.93746 0.82219 0.0
C859 C 0.82011 0.92111 0.80144 0.0
C860 C 0.82406 0.89915 0.80212 0.0
C861 C 0.83808 0.90993 0.84403 0.0
C862 C 0.83398 0.93191 0.8434 0.0
C863 C 0.83339 0.86917 0.82499 0.0
H864 H 0.80575 0.69795 0.73042 0.0
H865 H 0.79365 0.73374 0.73592 0.0
H866 H 0.72506 0.6945 0.74686 0.0
H867 H 0.7371 0.65804 0.74107 0.0
H868 H 0.8123 0.92466 0.78492 0.0
H869 H 0.81943 0.88641 0.78613 0.0
H870 H 0.84459 0.90556 0.8607 0.0
H871 H 0.83748 0.94423 0.85962 0.0
Dy872 Dy 0.57814 0.57261 0.5556 0.0
Dy873 Dy 0.52727 0.5408 0.52838 0.0
C874 C 0.57144 0.55166 0.50062 0.0
O875 O 0.56282 0.59817 0.53816 0.0
O876 O 0.52381 0.57814 0.53056 0.0
O877 O 0.61035 0.5994 0.55619 0.0
O878 O 0.60364 0.58294 0.58713 0.0
O879 O 0.52323 0.54529 0.5665 0.0
O880 O 0.5529 0.57858 0.58018 0.0
O881 O 0.54898 0.51519 0.53312 0.0
O882 O 0.57489 0.53629 0.56499 0.0
O883 O 0.50032 0.50815 0.52445 0.0
O884 O 0.49707 0.53371 0.50163 0.0
C885 C 0.54081 0.59766 0.5318 0.0
O886 O 0.58553 0.55652 0.52081 0.0
O887 O 0.54886 0.54879 0.49988 0.0
C888 C 0.64236 0.59172 0.57873 0.0
C889 C 0.68214 0.57446 0.58094 0.0
C890 C 0.67293 0.5802 0.55967 0.0
C891 C 0.65322 0.58871 0.55855 0.0
C892 C 0.65263 0.58778 0.6004 0.0
C893 C 0.67232 0.57911 0.60149 0.0
C894 C 0.61918 0.59637 0.57689 0.0
C895 C 0.53382 0.56301 0.58304 0.0
C896 C 0.56414 0.51603 0.55176 0.0
C897 C 0.46298 0.51242 0.51392 0.0
C898 C 0.41766 0.51338 0.52213 0.0
C899 C 0.43724 0.52581 0.5387 0.0
C900 C 0.4597 0.52536 0.53458 0.0
C901 C 0.44358 0.49894 0.49793 0.0
C902 C 0.42099 0.49937 0.50202 0.0
C903 C 0.48671 0.51419 0.50861 0.0
H904 H 0.67991 0.57656 0.54345 0.0
H905 H 0.64582 0.59167 0.54157 0.0
H906 H 0.64469 0.59022 0.61624 0.0
H907 H 0.67924 0.57507 0.61816 0.0
H908 H 0.43542 0.53714 0.55412 0.0
H909 H 0.47459 0.53592 0.54706 0.0
H910 H 0.44594 0.48876 0.48195 0.0
H911 H 0.40623 0.48952 0.48903 0.0
Dy912 Dy 0.0289 0.55292 0.05374 0.0
Dy913 Dy 0.07815 0.56258 0.03083 0.0
C914 C 0.0317 0.56817 1.0027 0.0
O915 O 0.02799 0.51808 0.03267 0.0
O916 O 0.06728 0.52367 0.03134 0.0
O917 O 0.9921 0.53549 0.05029 0.0
O918 O 1.00901 0.56013 0.0818 0.0
O919 O 0.08719 0.56156 0.06904 0.0
O920 O 0.05245 0.53929 0.07746 0.0
O921 O 0.07228 0.59843 0.03867 0.0
O922 O 0.04888 0.59062 0.06744 0.0
O923 O 0.11473 0.58084 0.03273 0.0
O924 O 0.09746 0.55413 1.00289 0.0
C925 C 0.04595 0.50965 0.029 0.0
O926 O 0.02295 0.57021 0.02247 0.0
O927 O 0.05031 0.56052 1.00117 0.0
C928 C 0.97138 0.56154 0.06543 0.0
C929 C 0.93953 0.58881 0.0585 0.0
C930 C 0.94633 0.57689 0.03911 0.0
C931 C 0.96212 0.5635 0.04251 0.0
C932 C 0.9645 0.57331 0.08487 0.0
C933 C 0.94877 0.58693 0.08145 0.0
C934 C 0.98914 0.54845 0.06901 0.0
C935 C 0.0753 0.54747 0.08196 0.0
C936 C 0.06216 0.60574 0.05623 0.0
C937 C 0.13594 0.55487 0.01781 0.0
C938 C 0.16712 0.52682 0.02409 0.0
C939 C 0.16219 0.54033 0.04362 0.0
C940 C 0.14669 0.55414 0.04053 0.0
C941 C 0.14145 0.54198 0.99824 0.0
C942 C 0.15682 0.52801 1.00135 0.0
C943 C 0.11744 0.56709 0.01445 0.0
H944 H 0.93979 0.5783 0.02123 0.0
H945 H 0.96728 0.55497 0.02709 0.0
H946 H 0.9715 0.57219 0.10269 0.0
H947 H 0.94371 0.59583 0.09671 0.0
H948 H 0.16969 0.5396 0.06137 0.0
H949 H 0.14268 0.56371 0.05601 0.0
H950 H 0.13334 0.54222 0.98057 0.0
H951 H 0.16051 0.518 0.98596 0.0
H952 H 0.04429 0.24453 0.02004 0.0
H953 H 1.0106 0.1028 0.99431 0.0
H954 H 0.99761 0.20312 0.95907 0.0
H955 H 0.06226 0.14406 0.05189 0.0
H956 H 1.004 0.13908 0.98261 0.0
H957 H 0.04938 0.20817 0.03332 0.0
C958 C 0.03494 0.22783 0.0095 0.0
C959 C 0.02043 0.22711 0.98835 0.0
C960 C 0.01675 0.14026 0.99786 0.0
C961 C 0.0263 0.185 1.00352 0.0
C962 C 0.02052 0.11942 0.00464 0.0
C963 C 0.03707 0.12005 0.02423 0.0
C964 C 0.02951 0.16223 0.0107 0.0
C965 C 0.04931 0.14242 0.0367 0.0
C966 C 0.03793 0.20699 0.01707 0.0
C967 C 1.00895 0.20474 0.97548 0.0
N968 N 0.04532 0.16243 0.02976 0.0
N969 N 1.01212 0.18478 0.98321 0.0
H970 H 0.16669 0.81609 0.14392 0.0
H971 H 0.23367 0.84392 0.27705 0.0
H972 H 0.14012 0.84651 0.20319 0.0
H973 H 0.25528 0.80465 0.21978 0.0
H974 H 0.2011 0.84783 0.24965 0.0
H975 H 0.20102 0.81472 0.17068 0.0
C976 C 0.16816 0.82267 0.16252 0.0
C977 C 0.15044 0.83142 0.17128 0.0
C978 C 0.21298 0.83838 0.24305 0.0
C979 C 0.18973 0.82981 0.20213 0.0
C980 C 0.23165 0.83616 0.25872 0.0
C981 C 0.24729 0.82383 0.25084 0.0
C982 C 0.20987 0.82833 0.21918 0.0
C983 C 0.24366 0.81419 0.22679 0.0
C984 C 0.18773 0.82179 0.17783 0.0
C985 C 0.15329 0.8396 0.19561 0.0
N986 N 0.2254 0.81665 0.21188 0.0
N987 N 0.17247 0.83857 0.21012 0.0
H988 H 0.49713 0.86297 0.46064 0.0
H989 H 0.57384 0.98241 0.53885 0.0
H990 H 0.5486 0.8627 0.5189 0.0
H991 H 0.50338 0.9748 0.50605 0.0
H992 H 0.56772 0.93986 0.52865 0.0
H993 H 0.50169 0.9047 0.47386 0.0
C994 C 0.50935 0.87166 0.47632 0.0
C995 C 0.52242 0.85913 0.4887 0.0
C996 C 0.55357 0.94748 0.52376 0.0
C997 C 0.52816 0.90747 0.5037 0.0
C998 C 0.55707 0.97185 0.52945 0.0
C999 C 0.53911 0.98241 0.52329 0.0
C1000 C 0.53211 0.9334 0.51125 0.0
C1001 C 0.51774 0.96759 0.51124 0.0
C1002 C 0.5119 0.89554 0.48388 0.0
C1003 C 0.53801 0.8715 0.50889 0.0
N1004 N 0.51495 0.94402 0.50541 0.0
N1005 N 0.54067 0.89499 0.51557 0.0
H1006 H 0.5024 0.31362 0.6366 0.0
H1007 H 0.46489 0.30263 0.7652 0.0
H1008 H 0.55164 0.32523 0.70015 0.0
H1009 H 0.41579 0.30034 0.7037 0.0
H1010 H 0.49665 0.30992 0.74132 0.0
H1011 H 0.47025 0.30768 0.66045 0.0
C1012 C 0.50645 0.31502 0.65557 0.0
C1013 C 0.52975 0.31993 0.6664 0.0
C1014 C 0.47893 0.30785 0.73303 0.0
C1015 C 0.49304 0.313 0.69379 0.0
C1016 C 0.46073 0.30381 0.74672 0.0
C1017 C 0.43748 0.30091 0.73658 0.0
C1018 C 0.474 0.30892 0.70887 0.0
C1019 C 0.43331 0.30213 0.71233 0.0
C1020 C 0.48809 0.31161 0.66918 0.0
C1021 C 0.53396 0.32149 0.69105 0.0
N1022 N 0.45135 0.30602 0.69934 0.0
N1023 N 0.51582 0.31796 0.70386 0.0
H1024 H 1.00207 0.80558 0.63426 0.0
H1025 H 0.08311 0.9282 0.61142 0.0
H1026 H 0.06197 0.84708 0.68343 0.0
H1027 H 0.01598 0.89321 0.57003 0.0
H1028 H 0.07685 0.89771 0.63684 0.0
H1029 H 1.00783 0.83665 0.60955 0.0
C1030 C 0.0164 0.82128 0.6399 0.0
C1031 C 0.03155 0.82374 0.66096 0.0
C1032 C 0.06347 0.89672 0.62223 0.0
C1033 C 0.0384 0.85936 0.63262 0.0
C1034 C 0.0671 0.91405 0.6076 0.0
C1035 C 0.05005 0.91328 0.58852 0.0
C1036 C 0.04272 0.87832 0.61766 0.0
C1037 C 0.0295 0.89466 0.58465 0.0
C1038 C 0.01967 0.83903 0.62579 0.0
C1039 C 0.04984 0.84447 0.66737 0.0
N1040 N 0.02647 0.87791 0.599 0.0
N1041 N 0.05281 0.86141 0.65322 0.0
H1042 H 0.49391 0.84458 0.81243 0.0
H1043 H 0.35989 0.78309 0.8261 0.0
H1044 H 0.47312 0.79175 0.85672 0.0
H1045 H 0.37843 0.83523 0.78051 0.0
H1046 H 0.40135 0.78604 0.83681 0.0
H1047 H 0.45227 0.84119 0.79964 0.0
C1048 C 0.48065 0.83211 0.81931 0.0
C1049 C 0.48721 0.81839 0.83568 0.0
C1050 C 0.39645 0.7969 0.82447 0.0
C1051 C 0.43927 0.81457 0.82124 0.0
C1052 C 0.37263 0.79528 0.81835 0.0
C1053 C 0.36536 0.80902 0.80239 0.0
C1054 C 0.41355 0.81242 0.81468 0.0
C1055 C 0.38301 0.82431 0.79293 0.0
C1056 C 0.45682 0.83025 0.81206 0.0
C1057 C 0.46908 0.80268 0.84406 0.0
N1058 N 0.40617 0.82561 0.79921 0.0
N1059 N 0.44615 0.80127 0.83684 0.0
H1060 H 0.51533 0.21791 0.12568 0.0
H1061 H 0.51873 0.08309 0.11111 0.0
H1062 H 0.51641 0.17964 0.18454 0.0
H1063 H 0.52039 0.12404 0.05411 0.0
H1064 H 0.51631 0.11721 0.13818 0.0
H1065 H 0.5155 0.18283 0.09925 0.0
C1066 C 0.5155 0.20207 0.13307 0.0
C1067 C 0.51587 0.2018 0.15743 0.0
C1068 C 0.51715 0.11867 0.11973 0.0
C1069 C 0.51617 0.16126 0.12705 0.0
C1070 C 0.5185 0.09917 0.10422 0.0
C1071 C 0.51982 0.10058 0.08019 0.0
C1072 C 0.51705 0.1398 0.11119 0.0
C1073 C 0.51947 0.12198 0.07241 0.0
C1074 C 0.51564 0.18198 0.11792 0.0
C1075 C 0.5161 0.18068 0.16589 0.0
N1076 N 0.51815 0.14062 0.0878 0.0
N1077 N 0.51631 0.16129 0.15076 0.0
H1078 H 0.11121 0.33767 0.30656 0.0
H1079 H 0.22244 0.2889 0.32944 0.0
H1080 H 0.13298 0.32037 0.37429 0.0
H1081 H 0.22621 0.34467 0.28764 0.0
H1082 H 0.18574 0.29458 0.34124 0.0
H1083 H 0.14917 0.33502 0.29439 0.0
C1084 C 0.12388 0.33328 0.31884 0.0
C1085 C 0.11878 0.32929 0.34155 0.0
C1086 C 0.19458 0.30564 0.32952 0.0
C1087 C 0.16207 0.32575 0.32752 0.0
C1088 C 0.21557 0.3024 0.32273 0.0
C1089 C 0.22766 0.31642 0.30761 0.0
C1090 C 0.18488 0.32258 0.32064 0.0
C1091 C 0.2177 0.33362 0.29951 0.0
C1092 C 0.14558 0.3319 0.31192 0.0
C1093 C 0.13603 0.32371 0.35668 0.0
N1094 N 0.19678 0.33602 0.30586 0.0
N1095 N 0.15659 0.32182 0.34934 0.0
H1096 H 0.94514 0.04552 0.19167 0.0
H1097 H 0.05901 0.06659 0.12617 0.0
H1098 H 0.01582 0.06317 0.22799 0.0
H1099 H 0.98872 0.05166 0.08931 0.0
H1100 H 0.04337 0.066 0.1635 0.0
H1101 H 0.96058 0.04827 0.15414 0.0
C1102 C 0.96393 0.05005 0.19176 0.0
C1103 C 0.97923 0.05409 0.21302 0.0
C1104 C 0.03133 0.06291 0.14729 0.0
C1105 C 0.99704 0.05721 0.17003 0.0
C1106 C 0.04025 0.06322 0.12588 0.0
C1107 C 0.02517 0.05911 0.10445 0.0
C1108 C 1.00707 0.05836 0.14745 0.0
C1109 C 1.00103 0.05494 0.10534 0.0
C1110 C 0.97273 0.05161 0.1703 0.0
C1111 C 1.00339 0.0599 0.21205 0.0
N1112 N 0.99273 0.05459 0.12648 0.0
N1113 N 1.01154 0.06122 0.19092 0.0
H1114 H 0.28897 0.66702 0.4705 0.0
H1115 H 0.3113 0.79795 0.44348 0.0
H1116 H 0.3331 0.7254 0.52031 0.0
H1117 H 0.24827 0.74253 0.41668 0.0
H1118 H 0.32478 0.7716 0.46775 0.0
H1119 H 0.28109 0.69436 0.44459 0.0
C1120 C 0.29744 0.68558 0.47574 0.0
C1121 C 0.3114 0.69404 0.49772 0.0
C1122 C 0.30798 0.76536 0.45658 0.0
C1123 C 0.30214 0.72534 0.46837 0.0
C1124 C 0.30011 0.78041 0.44296 0.0
C1125 C 0.27861 0.7724 0.42794 0.0
C1126 C 0.29441 0.74212 0.45484 0.0
C1127 C 0.26512 0.74934 0.42765 0.0
C1128 C 0.29273 0.70116 0.46106 0.0
C1129 C 0.3221 0.71822 0.50355 0.0
N1130 N 0.27334 0.73496 0.44074 0.0
N1131 N 0.317 0.73317 0.48903 0.0
H1132 H 0.68031 0.04509 0.69133 0.0
H1133 H 0.55417 0.02161 0.6166 0.0
H1134 H 0.61627 0.01187 0.71645 0.0
H1135 H 0.61938 0.0572 0.59486 0.0
H1136 H 0.57641 0.01215 0.65055 0.0
H1137 H 0.65824 0.04268 0.65267 0.0
C1138 C 0.66161 0.0369 0.68853 0.0
C1139 C 0.64998 0.029 0.70709 0.0
C1140 C 0.58579 0.02187 0.6382 0.0
C1141 C 0.62449 0.02672 0.66314 0.0
C1142 C 0.57312 0.02737 0.61891 0.0
C1143 C 0.58493 0.04056 0.6031 0.0
C1144 C 0.61038 0.02957 0.64158 0.0
C1145 C 0.6095 0.04733 0.60677 0.0
C1146 C 0.64898 0.0356 0.66649 0.0
C1147 C 0.62581 0.01829 0.70254 0.0
N1148 N 0.62136 0.04187 0.62568 0.0
N1149 N 0.61372 0.01786 0.68106 0.0
H1150 H 0.33177 0.35008 0.98737 0.0
H1151 H 0.25936 0.31142 0.85718 0.0
H1152 H 0.25961 0.35011 0.97006 0.0
H1153 H 0.33426 0.32249 0.87119 0.0
H1154 H 0.2585 0.32093 0.89925 0.0
H1155 H 0.33219 0.33517 0.94591 0.0
C1156 C 0.31591 0.34662 0.97493 0.0
C1157 C 0.29562 0.35139 0.98219 0.0
C1158 C 0.27514 0.32122 0.89319 0.0
C1159 C 0.29605 0.3345 0.93471 0.0
C1160 C 0.27567 0.31575 0.86908 0.0
C1161 C 0.29697 0.31625 0.86048 0.0
C1162 C 0.29603 0.32723 0.90906 0.0
C1163 C 0.31746 0.32196 0.87694 0.0
C1164 C 0.31622 0.33825 0.95124 0.0
C1165 C 0.27565 0.34673 0.96527 0.0
N1166 N 0.31649 0.32729 0.90043 0.0
N1167 N 0.27639 0.33864 0.94236 0.0
H1168 H 0.98796 0.01044 0.33735 0.0
H1169 H 0.03954 0.0871 0.46441 0.0
H1170 H 1.00188 0.08578 0.35131 0.0
H1171 H 0.02353 0.01147 0.45156 0.0
H1172 H 0.02884 0.08704 0.42245 0.0
H1173 H 1.00419 0.01066 0.37818 0.0
C1174 C 0.99471 0.02708 0.34893 0.0
C1175 C 0.99349 0.04813 0.34091 0.0
C1176 C 0.02775 0.07044 0.42874 0.0
C1177 C 1.0119 0.04848 0.38782 0.0
C1178 C 0.03387 0.07043 0.45278 0.0
C1179 C 0.03233 0.04921 0.46167 0.0
C1180 C 0.01996 0.04909 0.41329 0.0
C1181 C 0.02493 0.02824 0.44558 0.0
C1182 C 1.0039 0.02717 0.37228 0.0
C1183 C 1.00246 0.06914 0.35672 0.0
N1184 N 0.01892 0.02871 0.42221 0.0
N1185 N 1.01113 0.06876 0.37944 0.0
H1186 H 0.33877 0.68801 0.63159 0.0
H1187 H 0.2947 0.79172 0.69667 0.0
H1188 H 0.29188 0.72249 0.59759 0.0
H1189 H 0.32348 0.74431 0.73387 0.0
H1190 H 0.30162 0.77204 0.65959 0.0
H1191 H 0.34128 0.71423 0.66867 0.0
C1192 C 0.32934 0.70133 0.63188 0.0
C1193 C 0.31487 0.70299 0.61172 0.0
C1194 C 0.30655 0.76606 0.6759 0.0
C1195 C 0.31769 0.73282 0.65363 0.0
C1196 C 0.30262 0.77728 0.69708 0.0
C1197 C 0.30818 0.76941 0.71836 0.0
C1198 C 0.31619 0.74688 0.676 0.0
C1199 C 0.31862 0.75074 0.71782 0.0
C1200 C 0.33068 0.71616 0.65297 0.0
C1201 C 0.30298 0.72048 0.61288 0.0
N1202 N 0.32215 0.73999 0.69692 0.0
N1203 N 0.30456 0.73464 0.63352 0.0
H1204 H 0.61581 0.0797 0.79664 0.0
H1205 H 0.54399 0.02254 0.89361 0.0
H1206 H 0.62206 0.01591 0.82181 0.0
H1207 H 0.5372 0.08635 0.86873 0.0
H1208 H 0.56826 0.01688 0.86326 0.0
H1209 H 0.58326 0.07974 0.81903 0.0
C1210 C 0.61018 0.06558 0.80674 0.0
C1211 C 0.62179 0.04791 0.80764 0.0
C1212 C 0.56125 0.03198 0.86422 0.0
C1213 C 0.58465 0.04789 0.83331 0.0
C1214 C 0.54717 0.03514 0.88144 0.0
C1215 C 0.53864 0.05506 0.88385 0.0
C1216 C 0.56705 0.04897 0.84938 0.0
C1217 C 0.54376 0.07096 0.8678 0.0
C1218 C 0.59159 0.06561 0.81949 0.0
C1219 C 0.6137 0.02997 0.82082 0.0
N1220 N 0.55784 0.0677 0.85139 0.0
N1221 N 0.59575 0.03053 0.83333 0.0
H1222 H 0.31213 0.39937 0.13309 0.0
H1223 H 0.25646 0.29735 0.20563 0.0
H1224 H 0.26965 0.33119 0.09892 0.0
H1225 H 0.30943 0.36103 0.23628 0.0
H1226 H 0.25761 0.31048 0.1669 0.0
H1227 H 0.30809 0.38651 0.17133 0.0
C1228 C 0.30191 0.38164 0.13362 0.0
C1229 C 0.29128 0.3663 0.11272 0.0
C1230 C 0.26888 0.32159 0.18215 0.0
C1231 C 0.28648 0.35141 0.15674 0.0
C1232 C 0.26814 0.31419 0.2043 0.0
C1233 C 0.28291 0.32808 0.22429 0.0
C1234 C 0.28437 0.34312 0.18 0.0
C1235 C 0.29779 0.34966 0.22141 0.0
C1236 C 0.29962 0.37429 0.15553 0.0
C1237 C 0.27822 0.34355 0.11459 0.0
N1238 N 0.29814 0.35646 0.19975 0.0
N1239 N 0.27616 0.33678 0.13623 0.0
H1240 H 0.24277 0.9547 0.08745 0.0
H1241 H 0.20119 0.06762 0.06468 0.0
H1242 H 0.22545 0.97209 0.01844 0.0
H1243 H 0.18276 0.03303 0.1244 0.0
H1244 H 0.22063 0.03793 0.05232 0.0
H1245 H 0.22889 0.98747 0.10509 0.0
C1246 C 0.23592 0.96531 0.07605 0.0
C1247 C 0.2351 0.96069 0.05147 0.0
C1248 C 0.21263 0.03705 0.06833 0.0
C1249 C 0.22007 0.99825 0.07144 0.0
C1250 C 0.20184 0.05421 0.07566 0.0
C1251 C 0.19024 0.05278 0.0956 0.0
C1252 C 0.21194 0.01833 0.08105 0.0
C1253 C 0.19132 0.03462 0.10879 0.0
C1254 C 0.22812 0.98395 0.08611 0.0
C1255 C 0.22621 0.97495 0.03744 0.0
N1256 N 0.20183 0.0179 0.10116 0.0
N1257 N 0.21923 0.99323 0.04765 0.0
H1258 H 0.70748 0.69144 0.02861 0.0
H1259 H 0.62563 0.56057 0.01986 0.0
H1260 H 0.73336 0.63015 0.01834 0.0
H1261 H 0.60632 0.6228 0.04669 0.0
H1262 H 0.66395 0.58544 0.01491 0.0
H1263 H 0.66868 0.66606 0.03066 0.0
C1264 C 0.70495 0.67263 0.02666 0.0
C1265 C 0.72363 0.66287 0.02342 0.0
C1266 C 0.65128 0.59357 0.0219 0.0
C1267 C 0.67938 0.63374 0.02575 0.0
C1268 C 0.62942 0.57941 0.0247 0.0
C1269 C 0.6128 0.58959 0.03384 0.0
C1270 C 0.65636 0.61805 0.02804 0.0
C1271 C 0.61863 0.61412 0.03977 0.0
C1272 C 0.68284 0.65816 0.02791 0.0
C1273 C 0.71941 0.63838 0.02098 0.0
N1274 N 0.63988 0.62748 0.03673 0.0
N1275 N 0.69771 0.62462 0.02222 0.0
H1276 H 0.70529 0.52997 0.26854 0.0
H1277 H 0.71413 0.39881 0.27324 0.0
H1278 H 0.65504 0.47814 0.29649 0.0
H1279 H 0.76973 0.45376 0.25607 0.0
H1280 H 0.69095 0.42682 0.27908 0.0
H1281 H 0.72768 0.50142 0.26089 0.0
C1282 C 0.69893 0.51254 0.273 0.0
C1283 C 0.6783 0.50641 0.28322 0.0
C1284 C 0.70822 0.43275 0.27403 0.0
C1285 C 0.70385 0.47365 0.27449 0.0
C1286 C 0.72155 0.41679 0.27081 0.0
C1287 C 0.74405 0.42394 0.26433 0.0
C1288 C 0.71733 0.45608 0.27064 0.0
C1289 C 0.75243 0.44737 0.26087 0.0
C1290 C 0.71175 0.49627 0.26867 0.0
C1291 C 0.67088 0.4836 0.28864 0.0
N1292 N 0.73909 0.4626 0.26412 0.0
N1293 N 0.68365 0.46804 0.28421 0.0
H1294 H 0.84886 0.46196 0.56202 0.0
H1295 H 0.95607 0.51427 0.49501 0.0
H1296 H 0.84942 0.44512 0.48718 0.0
H1297 H 0.96475 0.51505 0.57051 0.0
H1298 H 0.91534 0.49261 0.49263 0.0
H1299 H 0.89011 0.48458 0.56627 0.0
C1300 C 0.85769 0.46297 0.54654 0.0
C1301 C 0.8458 0.45172 0.52421 0.0
C1302 C 0.92612 0.49747 0.50974 0.0
C1303 C 0.89253 0.47755 0.5289 0.0
C1304 C 0.94941 0.50996 0.51115 0.0
C1305 C 0.96391 0.51639 0.533 0.0
C1306 C 0.91709 0.49143 0.53031 0.0
C1307 C 0.95419 0.51033 0.55329 0.0
C1308 C 0.88115 0.47582 0.54898 0.0
C1309 C 0.85795 0.45352 0.50471 0.0
N1310 N 0.93129 0.49814 0.55147 0.0
N1311 N 0.88061 0.46629 0.5075 0.0
H1312 H 0.40196 0.13734 0.27739 0.0
H1313 H 0.26548 0.1302 0.25726 0.0
H1314 H 0.34882 0.08746 0.30431 0.0
H1315 H 0.31898 0.1833 0.23456 0.0
H1316 H 0.29524 0.11074 0.26954 0.0
H1317 H 0.37131 0.15194 0.25777 0.0
C1318 C 0.38387 0.1296 0.27929 0.0
C1319 C 0.37788 0.11135 0.29262 0.0
C1320 C 0.30039 0.12646 0.26154 0.0
C1321 C 0.34282 0.12759 0.27001 0.0
C1322 C 0.2834 0.13749 0.25445 0.0
C1323 C 0.28981 0.1585 0.24511 0.0
C1324 C 0.32392 0.13663 0.25938 0.0
C1325 C 0.31321 0.16706 0.24156 0.0
C1326 C 0.36638 0.13778 0.26796 0.0
C1327 C 0.35419 0.10171 0.29433 0.0
N1328 N 0.32948 0.15626 0.24901 0.0
N1329 N 0.3375 0.10998 0.28317 0.0
H1330 H 0.32176 0.15138 0.5662 0.0
H1331 H 0.44058 0.12328 0.53576 0.0
H1332 H 0.36595 0.18845 0.52063 0.0
H1333 H 0.40038 0.09128 0.58704 0.0
H1334 H 0.41328 0.14702 0.52978 0.0
H1335 H 0.35003 0.1288 0.57369 0.0
C1336 C 0.33745 0.1548 0.55781 0.0
C1337 C 0.34152 0.17179 0.54275 0.0
C1338 C 0.41045 0.13487 0.5424 0.0
C1339 C 0.37392 0.14597 0.55118 0.0
C1340 C 0.42614 0.12138 0.54595 0.0
C1341 C 0.42288 0.10526 0.56202 0.0
C1342 C 0.39121 0.13222 0.55491 0.0
C1343 C 0.40349 0.10325 0.57429 0.0
C1344 C 0.35359 0.14191 0.5621 0.0
C1345 C 0.36213 0.17551 0.53236 0.0
N1346 N 0.38839 0.11655 0.57046 0.0
N1347 N 0.37753 0.16266 0.53672 0.0
H1348 H 0.7195 0.61162 0.30698 0.0
H1349 H 0.72543 0.74407 0.29374 0.0
H1350 H 0.66081 0.64131 0.31027 0.0
H1351 H 0.78785 0.72102 0.30793 0.0
H1352 H 0.70181 0.70611 0.29958 0.0
H1353 H 0.74522 0.65102 0.30745 0.0
C1354 C 0.71208 0.62645 0.308 0.0
C1355 C 0.68797 0.62322 0.3084 0.0
C1356 C 0.72067 0.7093 0.30158 0.0
C1357 C 0.71716 0.66813 0.30879 0.0
C1358 C 0.73421 0.731 0.29813 0.0
C1359 C 0.75867 0.73568 0.30016 0.0
C1360 C 0.73154 0.69188 0.30682 0.0
C1361 C 0.76904 0.7181 0.30616 0.0
C1362 C 0.72676 0.6489 0.30831 0.0
C1363 C 0.67926 0.64299 0.30981 0.0
N1364 N 0.75537 0.69681 0.30904 0.0
N1365 N 0.69381 0.66455 0.30974 0.0
H1366 H 0.87557 0.50917 0.84437 0.0
H1367 H 0.84735 0.38399 0.76314 0.0
H1368 H 0.90471 0.49824 0.77985 0.0
H1369 H 0.82779 0.39481 0.83284 0.0
H1370 H 0.8671 0.42605 0.76772 0.0
H1371 H 0.85673 0.46713 0.83952 0.0
C1372 C 0.87809 0.49787 0.82926 0.0
C1373 C 0.89166 0.50709 0.81249 0.0
C1374 C 0.85848 0.41912 0.78197 0.0
C1375 C 0.87008 0.45912 0.80667 0.0
C1376 C 0.84715 0.39518 0.77932 0.0
C1377 C 0.836 0.3859 0.79764 0.0
C1378 C 0.85842 0.43372 0.803 0.0
C1379 C 0.83629 0.40114 0.81827 0.0
C1380 C 0.86733 0.47389 0.82646 0.0
C1381 C 0.89436 0.49175 0.79319 0.0
N1382 N 0.84729 0.42427 0.82037 0.0
N1383 N 0.88356 0.46847 0.79074 0.0
H1384 H 0.05465 0.86986 0.07088 0.0
H1385 H 0.10536 0.01013 0.07785 0.0
H1386 H 0.11493 0.91044 0.11994 0.0
H1387 H 0.03692 0.9706 0.04233 0.0
H1388 H 0.11166 0.97374 0.09017 0.0
H1389 H 0.05046 0.90612 0.05694 0.0
C1390 C 0.06717 0.88634 0.0786 0.0
C1391 C 0.0852 0.88688 0.09667 0.0
C1392 C 0.09529 0.97304 0.07961 0.0
C1393 C 0.08047 0.92893 0.08064 0.0
C1394 C 0.0917 0.99387 0.07246 0.0
C1395 C 0.07051 0.99371 0.05899 0.0
C1396 C 0.07771 0.95164 0.07304 0.0
C1397 C 0.05351 0.97187 0.05274 0.0
C1398 C 0.0647 0.90715 0.07068 0.0
C1399 C 0.10075 0.909 0.106 0.0
N1400 N 0.05749 0.95194 0.05971 0.0
N1401 N 0.09806 0.92899 0.09791 0.0
H1402 H 0.93312 0.28758 0.94405 0.0
H1403 H 0.88339 0.3092 0.81591 0.0
H1404 H 0.97161 0.29173 0.88472 0.0
H1405 H 0.8408 0.30023 0.87196 0.0
H1406 H 0.91571 0.30314 0.84158 0.0
H1407 H 0.89908 0.29212 0.91876 0.0
C1408 C 0.93439 0.28929 0.92571 0.0
C1409 C 0.95532 0.28925 0.91654 0.0
C1410 C 0.89933 0.30245 0.84836 0.0
C1411 C 0.91648 0.29464 0.88752 0.0
C1412 C 0.88076 0.30598 0.83365 0.0
C1413 C 0.85916 0.30528 0.84166 0.0
C1414 C 0.8966 0.29823 0.8715 0.0
C1415 C 0.85706 0.30095 0.86494 0.0
C1416 C 0.91496 0.29193 0.91128 0.0
C1417 C 0.95591 0.29163 0.89263 0.0
N1418 N 0.87552 0.29763 0.87902 0.0
N1419 N 0.93692 0.29429 0.87908 0.0
H1420 H 0.55015 0.24088 0.62238 0.0
H1421 H 0.58717 0.14172 0.53922 0.0
H1422 H 0.59724 0.2576 0.57127 0.0
H1423 H 0.53905 0.12684 0.58979 0.0
H1424 H 0.59128 0.1838 0.55027 0.0
H1425 H 0.54593 0.1992 0.61013 0.0
C1426 C 0.55956 0.23582 0.60845 0.0
C1427 C 0.57407 0.25301 0.59787 0.0
C1428 C 0.57985 0.17134 0.55897 0.0
C1429 C 0.56938 0.20467 0.58371 0.0
C1430 C 0.5775 0.1472 0.5527 0.0
C1431 C 0.56278 0.13042 0.5636 0.0
C1432 C 0.5674 0.179 0.57633 0.0
C1433 C 0.55069 0.13889 0.58088 0.0
C1434 C 0.55715 0.21188 0.60147 0.0
C1435 C 0.5858 0.24511 0.57992 0.0
N1436 N 0.55327 0.1624 0.58665 0.0
N1437 N 0.58325 0.22161 0.57348 0.0
H1438 H 0.55242 0.76108 0.3917 0.0
H1439 H 0.67191 0.84164 0.36112 0.0
H1440 H 0.59319 0.82475 0.4364 0.0
H1441 H 0.63899 0.77147 0.32475 0.0
H1442 H 0.64205 0.83669 0.38752 0.0
H1443 H 0.58283 0.76532 0.36583 0.0
C1444 C 0.56781 0.77592 0.39611 0.0
C1445 C 0.57026 0.79258 0.41626 0.0
C1446 C 0.64136 0.82235 0.3738 0.0
C1447 C 0.6051 0.79766 0.3866 0.0
C1448 C 0.65832 0.82522 0.3586 0.0
C1449 C 0.65795 0.80697 0.3406 0.0
C1450 C 0.62367 0.80113 0.37093 0.0
C1451 C 0.64009 0.78595 0.33846 0.0
C1452 C 0.58518 0.77832 0.38134 0.0
C1453 C 0.59058 0.81146 0.42109 0.0
N1454 N 0.62363 0.78366 0.35334 0.0
N1455 N 0.60713 0.81354 0.40632 0.0
H1456 H 0.05699 0.30035 0.44218 0.0
H1457 H 0.03554 0.16315 0.44944 0.0
H1458 H 0.04345 0.2475 0.3806 0.0
H1459 H 0.04396 0.2163 0.5099 0.0
H1460 H 0.03989 0.19361 0.424 0.0
H1461 H 0.05366 0.26973 0.46716 0.0
C1462 C 0.05336 0.28227 0.43388 0.0
C1463 C 0.05048 0.2765 0.40922 0.0
C1464 C 0.04079 0.1986 0.44283 0.0
C1465 C 0.04661 0.24117 0.43786 0.0
C1466 C 0.03845 0.18123 0.45742 0.0
C1467 C 0.03938 0.18711 0.48193 0.0
C1468 C 0.04419 0.22212 0.45277 0.0
C1469 C 0.04283 0.21084 0.49113 0.0
C1470 C 0.05142 0.26476 0.4482 0.0
C1471 C 0.04578 0.25274 0.39952 0.0
N1472 N 0.04514 0.22741 0.47658 0.0
N1473 N 0.04399 0.23595 0.41386 0.0
H1474 H 0.60444 0.3082 0.22296 0.0
H1475 H 0.70291 0.24637 0.26802 0.0
H1476 H 0.58684 0.23985 0.24458 0.0
H1477 H 0.71761 0.31798 0.25465 0.0
H1478 H 0.66075 0.2427 0.25874 0.0
H1479 H 0.64593 0.3113 0.23397 0.0
C1480 C 0.60927 0.29386 0.2302 0.0
C1481 C 0.59193 0.27376 0.23289 0.0
C1482 C 0.67323 0.25921 0.25785 0.0
C1483 C 0.64 0.27707 0.24537 0.0
C1484 C 0.69738 0.26131 0.26308 0.0
C1485 C 0.71411 0.28252 0.26212 0.0
C1486 C 0.66558 0.27841 0.25145 0.0
C1487 C 0.70561 0.30124 0.25568 0.0
C1488 C 0.63309 0.29563 0.23647 0.0
C1489 C 0.59949 0.25575 0.24232 0.0
N1490 N 0.68216 0.29871 0.25059 0.0
N1491 N 0.62288 0.25777 0.24807 0.0
H1492 H 0.54377 0.90933 0.88062 0.0
H1493 H 0.56432 0.98079 0.0117 0.0
H1494 H 0.57429 0.88725 0.94215 0.0
H1495 H 0.52048 0.99511 0.95393 0.0
H1496 H 0.57168 0.94911 0.98531 0.0
H1497 H 0.53883 0.94345 0.90594 0.0
C1498 C 0.54967 0.91179 0.8994 0.0
C1499 C 0.55946 0.89538 0.90927 0.0
C1500 C 0.56046 0.95917 0.97835 0.0
C1501 C 0.55378 0.93434 0.93836 0.0
C1502 C 0.55626 0.97735 0.99344 0.0
C1503 C 0.54163 0.99066 0.98513 0.0
C1504 C 0.55014 0.95419 0.9546 0.0
C1505 C 0.53174 0.98525 0.9612 0.0
C1506 C 0.54672 0.93119 0.91386 0.0
C1507 C 0.56664 0.8994 0.93376 0.0
N1508 N 0.53618 0.96747 0.94679 0.0
N1509 N 0.56365 0.9184 0.9474 0.0
H1510 H 0.98167 0.80279 0.75998 0.0
H1511 H 0.84034 0.75852 0.74289 0.0
H1512 H 0.94126 0.74222 0.71082 0.0
H1513 H 0.88072 0.81546 0.79635 0.0
H1514 H 0.87692 0.75233 0.7311 0.0
H1515 H 0.94524 0.80765 0.77367 0.0
C1516 C 0.9652 0.79037 0.75216 0.0
C1517 C 0.96477 0.77199 0.7342 0.0
C1518 C 0.87783 0.76615 0.74546 0.0
C1519 C 0.92254 0.77765 0.74973 0.0
C1520 C 0.85683 0.76972 0.75226 0.0
C1521 C 0.85714 0.78759 0.77076 0.0
C1522 C 0.89963 0.78058 0.75704 0.0
C1523 C 0.87935 0.80142 0.78206 0.0
C1524 C 0.94431 0.7932 0.75997 0.0
C1525 C 0.94267 0.75661 0.72474 0.0
N1526 N 0.89951 0.79771 0.77501 0.0
N1527 N 0.92262 0.75983 0.7325 0.0
H1528 H 0.08192 0.02581 0.85009 0.0
H1529 H 0.10677 0.08619 0.98571 0.0
H1530 H 0.14003 0.08568 0.87924 0.0
H1531 H 0.05381 0.02114 0.95978 0.0
H1532 H 0.11826 0.08674 0.94634 0.0
H1533 H 0.07013 0.02439 0.88958 0.0
C1534 C 0.09213 0.03869 0.86476 0.0
C1535 C 0.11197 0.05589 0.86137 0.0
C1536 C 0.10417 0.07228 0.94924 0.0
C1537 C 0.09866 0.05437 0.90651 0.0
C1538 C 0.0976 0.07195 0.97177 0.0
C1539 C 0.0793 0.05359 0.97612 0.0
C1540 C 0.09228 0.05419 0.93078 0.0
C1541 C 0.06807 0.03563 0.95729 0.0
C1542 C 0.08545 0.03783 0.88729 0.0
C1543 C 0.12461 0.0721 0.88101 0.0
N1544 N 0.07468 0.03642 0.93544 0.0
N1545 N 0.11774 0.07095 0.90266 0.0
H1546 H 0.8089 0.35549 0.53451 0.0
H1547 H 0.76527 0.29695 0.64431 0.0
H1548 H 0.74311 0.35565 0.5593 0.0
H1549 H 0.83578 0.30891 0.6275 0.0
H1550 H 0.75306 0.30813 0.60657 0.0
H1551 H 0.81472 0.32824 0.56152 0.0
C1552 C 0.79547 0.34946 0.54535 0.0
C1553 C 0.77573 0.3582 0.5451 0.0
C1554 C 0.77112 0.30792 0.61096 0.0
C1555 C 0.78235 0.3272 0.57606 0.0
C1556 C 0.77811 0.30162 0.6325 0.0
C1557 C 0.80169 0.30258 0.63925 0.0
C1558 C 0.78785 0.3153 0.59612 0.0
C1559 C 0.81746 0.3081 0.62306 0.0
C1560 C 0.79882 0.33393 0.56077 0.0
C1561 C 0.75876 0.3496 0.55925 0.0
N1562 N 0.81034 0.31466 0.60238 0.0
N1563 N 0.76263 0.33483 0.57446 0.0
H1564 H 0.43328 0.10091 0.40149 0.0
H1565 H 0.54746 0.0759 0.46215 0.0
H1566 H 0.49685 0.10986 0.36994 0.0
H1567 H 0.49017 0.08366 0.49959 0.0
H1568 H 0.53035 0.09116 0.42915 0.0
H1569 H 0.45519 0.09906 0.4391 0.0
C1570 C 0.45199 0.10312 0.40267 0.0
C1571 C 0.46323 0.10513 0.38256 0.0
C1572 C 0.52166 0.08973 0.44468 0.0
C1573 C 0.48823 0.10235 0.42522 0.0
C1574 C 0.53129 0.08079 0.46343 0.0
C1575 C 0.52005 0.07817 0.4835 0.0
C1576 C 0.50051 0.09582 0.44593 0.0
C1577 C 0.49933 0.08515 0.48436 0.0
C1578 C 0.46448 0.10194 0.4241 0.0
C1579 C 0.4875 0.10807 0.38502 0.0
N1580 N 0.4901 0.09343 0.46573 0.0
N1581 N 0.49913 0.10605 0.40587 0.0
H1582 H 0.77509 0.76472 0.08479 0.0
H1583 H 0.81321 0.75637 0.2204 0.0
H1584 H 0.81526 0.71916 0.10923 0.0
H1585 H 0.77075 0.80171 0.20034 0.0
H1586 H 0.81459 0.74402 0.17923 0.0
H1587 H 0.77407 0.78013 0.12619 0.0
C1588 C 0.78385 0.75813 0.09882 0.0
C1589 C 0.79526 0.7406 0.09354 0.0
C1590 C 0.8049 0.75665 0.18366 0.0
C1591 C 0.79404 0.75797 0.14074 0.0
C1592 C 0.80404 0.76375 0.20734 0.0
C1593 C 0.79173 0.78012 0.21404 0.0
C1594 C 0.79337 0.76585 0.16615 0.0
C1595 C 0.78038 0.789 0.19604 0.0
C1596 C 0.78318 0.76684 0.12241 0.0
C1597 C 0.80621 0.7326 0.11239 0.0
N1598 N 0.78145 0.78173 0.17288 0.0
N1599 N 0.80527 0.74128 0.13501 0.0
H1600 H 0.08212 0.07891 0.73719 0.0
H1601 H 0.08031 0.02552 0.60269 0.0
H1602 H 0.11045 0.02148 0.71465 0.0
H1603 H 0.0458 0.07921 0.62155 0.0
H1604 H 0.09016 0.02369 0.6441 0.0
H1605 H 0.06695 0.07882 0.69577 0.0
C1606 C 0.08485 0.06608 0.72359 0.0
C1607 C 0.09765 0.05022 0.72938 0.0
C1608 C 0.0804 0.03589 0.63934 0.0
C1609 C 0.08063 0.0502 0.68208 0.0
C1610 C 0.07482 0.03706 0.61555 0.0
C1611 C 0.06235 0.05274 0.60848 0.0
C1612 C 0.07367 0.0506 0.65655 0.0
C1613 C 0.05551 0.06693 0.62616 0.0
C1614 C 0.07628 0.06611 0.69997 0.0
C1615 C 0.10078 0.03408 0.71106 0.0
N1616 N 0.0614 0.06564 0.64943 0.0
N1617 N 0.09249 0.0346 0.68833 0.0
H1618 H 0.72954 0.356 0.45059 0.0
H1619 H 0.78518 0.36402 0.33148 0.0
H1620 H 0.76672 0.42072 0.4295 0.0
H1621 H 0.74912 0.29887 0.35277 0.0
H1622 H 0.77257 0.38549 0.364 0.0
H1623 H 0.72934 0.33548 0.4112 0.0
C1624 C 0.73707 0.366 0.43746 0.0
C1625 C 0.74859 0.38997 0.44338 0.0
C1626 C 0.76728 0.3665 0.36149 0.0
C1627 C 0.74888 0.36663 0.39861 0.0
C1628 C 0.77462 0.35421 0.343 0.0
C1629 C 0.76857 0.3296 0.33966 0.0
C1630 C 0.75394 0.35412 0.37689 0.0
C1631 C 0.75448 0.31785 0.35488 0.0
C1632 C 0.73713 0.35425 0.41504 0.0
C1633 C 0.758 0.40212 0.42573 0.0
N1634 N 0.74785 0.33023 0.373 0.0
N1635 N 0.75831 0.39024 0.40425 0.0
H1636 H 0.4425 0.06205 0.23918 0.0
H1637 H 0.54932 0.02991 0.19523 0.0
H1638 H 0.49623 0.05613 0.29265 0.0
H1639 H 0.47902 0.98982 0.16515 0.0
H1640 H 0.53404 0.04387 0.23035 0.0
H1641 H 0.45981 0.04203 0.20934 0.0
C1642 C 0.45819 0.05688 0.24456 0.0
C1643 C 0.46805 0.06073 0.26831 0.0
C1644 C 0.52215 0.03162 0.2162 0.0
C1645 C 0.4877 0.03784 0.23443 0.0
C1646 C 0.53081 0.02347 0.19623 0.0
C1647 C 0.51531 1.00907 0.17696 0.0
C1648 C 0.49793 0.02566 0.21649 0.0
C1649 C 0.49148 1.0015 0.17925 0.0
C1650 C 0.46781 0.0452 0.22763 0.0
C1651 C 0.4882 0.05343 0.27443 0.0
N1652 N 0.4834 0.01039 0.1984 0.0
N1653 N 0.49759 0.04242 0.25747 0.0
H1654 H 0.81899 0.767 0.97579 0.0
H1655 H 0.78575 0.73629 0.83467 0.0
H1656 H 0.77793 0.69906 0.9396 0.0
H1657 H 0.81883 0.80603 0.8722 0.0
H1658 H 0.78614 0.72127 0.87252 0.0
H1659 H 0.82217 0.78075 0.93755 0.0
C1660 C 0.81068 0.75498 0.95981 0.0
C1661 C 0.79808 0.73191 0.9609 0.0
C1662 C 0.79342 0.73984 0.87241 0.0
C1663 C 0.80172 0.74743 0.91704 0.0
C1664 C 0.79332 0.74839 0.85079 0.0
C1665 C 0.80211 0.77248 0.85021 0.0
C1666 C 0.80252 0.75547 0.89357 0.0
C1667 C 0.81164 0.78735 0.87172 0.0
C1668 C 0.8125 0.76281 0.93797 0.0
C1669 C 0.78772 0.71705 0.93959 0.0
N1670 N 0.81151 0.77863 0.89244 0.0
N1671 N 0.78975 0.72505 0.91857 0.0
H1672 H 0.81318 0.0823 0.0485 0.0
H1673 H 0.90989 0.05709 0.97151 0.0
H1674 H 0.84618 0.12842 1.00229 0.0
H1675 H 0.88298 0.01528 0.02372 0.0
H1676 H 0.8804 0.07849 0.97623 0.0
H1677 H 0.83335 0.05364 0.03431 0.0
C1678 C 0.82469 0.08637 0.03535 0.0
C1679 C 0.82834 0.10786 0.02678 0.0
C1680 C 0.88068 0.06437 0.98637 0.0
C1681 C 0.85125 0.07513 0.01034 0.0
C1682 C 0.89734 0.05197 0.98349 0.0
C1683 C 0.89904 0.03466 0.99753 0.0
C1684 C 0.86577 0.05943 1.00347 0.0
C1685 C 0.88248 0.02885 0.01291 0.0
C1686 C 0.83609 0.06997 0.02717 0.0
C1687 C 0.84316 0.11216 0.00955 0.0
N1688 N 0.86672 0.04146 0.01573 0.0
N1689 N 0.85422 0.09597 1.00199 0.0
H1690 H 0.38461 0.41535 0.06767 0.0
H1691 H 0.45937 0.53446 0.03094 0.0
H1692 H 0.35384 0.46035 0.02891 0.0
H1693 H 0.48989 0.48647 0.0653 0.0
H1694 H 0.42039 0.50869 0.03176 0.0
H1695 H 0.4233 0.44224 0.06843 0.0
C1696 C 0.38602 0.43089 0.0593 0.0
C1697 C 0.36603 0.43562 0.04816 0.0
C1698 C 0.43564 0.50386 0.03917 0.0
C1699 C 0.41019 0.46652 0.04902 0.0
C1700 C 0.45789 0.5186 0.03877 0.0
C1701 C 0.47795 0.51261 0.048 0.0
C1702 C 0.43344 0.48302 0.04891 0.0
C1703 C 0.47496 0.49181 0.0579 0.0
C1704 C 0.40809 0.44625 0.05975 0.0
C1705 C 0.36883 0.45602 0.03764 0.0
N1706 N 0.45315 0.47777 0.05805 0.0
N1707 N 0.39051 0.47073 0.03832 0.0
H1708 H 0.44588 0.62846 0.8002 0.0
H1709 H 0.31464 0.641 0.78436 0.0
H1710 H 0.3848 0.57103 0.77292 0.0
H1711 H 0.37487 0.69837 0.81454 0.0
H1712 H 0.34029 0.61524 0.77991 0.0
H1713 H 0.42046 0.6547 0.80494 0.0
C1714 C 0.42714 0.62141 0.79513 0.0
C1715 C 0.41742 0.59756 0.78616 0.0
C1716 C 0.34792 0.63345 0.78754 0.0
C1717 C 0.38827 0.62735 0.7916 0.0
C1718 C 0.33324 0.64815 0.79026 0.0
C1719 C 0.34258 0.67191 0.79988 0.0
C1720 C 0.37219 0.64252 0.79447 0.0
C1721 C 0.36692 0.68025 0.80677 0.0
C1722 C 0.41264 0.63636 0.79789 0.0
C1723 C 0.39304 0.58931 0.77991 0.0
N1724 N 0.38087 0.66559 0.80393 0.0
N1725 N 0.37932 0.60417 0.78277 0.0
H1726 H 0.21962 0.64971 0.52268 0.0
H1727 H 0.11529 0.54551 0.54742 0.0
H1728 H 0.22981 0.59543 0.56266 0.0
H1729 H 0.10439 0.60564 0.51751 0.0
H1730 H 0.15739 0.56192 0.55008 0.0
H1731 H 0.17738 0.63226 0.51783 0.0
C1732 C 0.21293 0.63409 0.53043 0.0
C1733 C 0.22813 0.62398 0.54314 0.0
C1734 C 0.1458 0.57152 0.54291 0.0
C1735 C 0.17996 0.60395 0.53762 0.0
C1736 C 0.12174 0.56214 0.54131 0.0
C1737 C 0.10631 0.57431 0.53231 0.0
C1738 C 0.15452 0.59318 0.53539 0.0
C1739 C 0.11568 0.59575 0.52466 0.0
C1740 C 0.18885 0.62417 0.52767 0.0
C1741 C 0.21863 0.60378 0.55279 0.0
N1742 N 0.13924 0.60455 0.52641 0.0
N1743 N 0.19509 0.59439 0.54982 0.0
H1744 H 0.7289 0.0226 0.83454 0.0
H1745 H 0.82825 0.96746 0.78947 0.0
H1746 H 0.74523 0.01818 0.76324 0.0
H1747 H 0.80003 0.9549 0.85412 0.0
H1748 H 0.80518 0.99545 0.78426 0.0
H1749 H 0.76134 1.00595 0.84592 0.0
C1750 C 0.73937 0.01819 0.82134 0.0
C1751 C 0.73422 0.02136 0.79786 0.0
C1752 C 0.80436 0.98686 0.7998 0.0
C1753 C 0.77136 1.00285 0.81075 0.0
C1754 C 0.81755 0.97095 0.80279 0.0
C1755 C 0.81567 0.95853 0.82199 0.0
C1756 C 0.78916 0.99026 0.81608 0.0
C1757 C 0.80194 0.96405 0.83902 0.0
C1758 C 0.75788 1.00882 0.82784 0.0
C1759 C 0.7484 0.01565 0.78146 0.0
N1760 N 0.78886 0.97925 0.83545 0.0
N1761 N 0.76628 1.00658 0.7882 0.0
H1762 H 0.72414 0.90671 0.52548 0.0
H1763 H 0.7062 0.03511 0.55536 0.0
H1764 H 0.7783 0.96618 0.56345 0.0
H1765 H 0.65903 0.98032 0.50396 0.0
H1766 H 0.73122 1.00897 0.56165 0.0
H1767 H 0.69822 0.93231 0.52064 0.0
C1768 C 0.73051 0.92512 0.53292 0.0
C1769 C 0.75339 0.93438 0.54484 0.0
C1770 C 0.71542 1.00268 0.54896 0.0
C1771 C 0.72393 0.9637 0.53937 0.0
C1772 C 0.70111 0.01755 0.54544 0.0
C1773 C 0.68057 0.00988 0.52906 0.0
C1774 C 0.70904 0.97988 0.53618 0.0
C1775 C 0.67487 0.98702 0.51653 0.0
C1776 C 0.71576 0.93973 0.53007 0.0
C1777 C 0.7608 0.95835 0.55408 0.0
N1778 N 0.68899 0.97279 0.52041 0.0
N1779 N 0.74611 0.97218 0.55117 0.0
H1780 H 0.38903 0.49691 0.80121 0.0
H1781 H 0.36287 0.35838 0.76249 0.0
H1782 H 0.43226 0.46464 0.76031 0.0
H1783 H 0.31595 0.39062 0.79776 0.0
H1784 H 0.3884 0.39719 0.76159 0.0
H1785 H 0.36214 0.45821 0.80041 0.0
C1786 C 0.39286 0.48166 0.79206 0.0
C1787 C 0.41292 0.48395 0.78085 0.0
C1788 C 0.37248 0.39582 0.76945 0.0
C1789 C 0.38223 0.43963 0.77984 0.0
C1790 C 0.35785 0.37363 0.76999 0.0
C1791 C 0.33722 0.37121 0.78029 0.0
C1792 C 0.36656 0.41583 0.77938 0.0
C1793 C 0.33166 0.39164 0.78964 0.0
C1794 C 0.37748 0.45958 0.79157 0.0
C1795 C 0.417 0.46364 0.76921 0.0
N1796 N 0.34632 0.4131 0.78906 0.0
N1797 N 0.40182 0.44232 0.76906 0.0
H1798 H 0.21295 0.62794 0.31959 0.0
H1799 H 0.29419 0.73297 0.2692 0.0
H1800 H 0.22745 0.62288 0.24764 0.0
H1801 H 0.25191 0.74569 0.32312 0.0
H1802 H 0.27582 0.69098 0.26574 0.0
H1803 H 0.23293 0.67012 0.32556 0.0
C1804 C 0.22041 0.63572 0.30513 0.0
C1805 C 0.21857 0.62209 0.28309 0.0
C1806 C 0.27063 0.70299 0.27836 0.0
C1807 C 0.24148 0.66973 0.28985 0.0
C1808 C 0.28116 0.72691 0.28044 0.0
C1809 C 0.27444 0.74279 0.2964 0.0
C1810 C 0.25354 0.69488 0.29257 0.0
C1811 C 0.25742 0.73399 0.31047 0.0
C1812 C 0.23167 0.65967 0.30851 0.0
C1813 C 0.22841 0.63287 0.26486 0.0
N1814 N 0.24754 0.71051 0.30829 0.0
N1815 N 0.2396 0.65608 0.26869 0.0
H1816 H 0.55547 0.74319 0.5095 0.0
H1817 H 0.49903 0.60494 0.51157 0.0
H1818 H 0.48564 0.70636 0.47573 0.0
H1819 H 0.57102 0.64197 0.53776 0.0
H1820 H 0.49252 0.64176 0.50056 0.0
H1821 H 0.56012 0.70666 0.52229 0.0
C1822 C 0.54098 0.72749 0.50492 0.0
C1823 C 0.52009 0.72812 0.49149 0.0
C1824 C 0.50972 0.64182 0.50878 0.0
C1825 C 0.52539 0.68561 0.50613 0.0
C1826 C 0.51345 0.62073 0.51516 0.0
C1827 C 0.53567 0.62002 0.52566 0.0
C1828 C 0.52825 0.66262 0.51303 0.0
C1829 C 0.55359 0.64131 0.52969 0.0
C1830 C 0.5437 0.70649 0.51218 0.0
C1831 C 0.50207 0.70692 0.48608 0.0
N1832 N 0.5495 0.66147 0.52343 0.0
N1833 N 0.50512 0.68668 0.49334 0.0
H1834 H 0.66588 0.3153 0.64122 0.0
H1835 H 0.73465 0.34435 0.77368 0.0
H1836 H 0.64003 0.34581 0.70096 0.0
H1837 H 0.75509 0.30363 0.71667 0.0
H1838 H 0.70185 0.34804 0.74647 0.0
H1839 H 0.70053 0.31398 0.66762 0.0
C1840 C 0.66757 0.32191 0.65983 0.0
C1841 C 0.64995 0.33068 0.66884 0.0
C1842 C 0.71351 0.33832 0.73988 0.0
C1843 C 0.68962 0.32916 0.69925 0.0
C1844 C 0.73233 0.33624 0.75543 0.0
C1845 C 0.74771 0.32356 0.74759 0.0
C1846 C 0.70998 0.32781 0.71612 0.0
C1847 C 0.74368 0.31346 0.72364 0.0
C1848 C 0.68732 0.32106 0.67493 0.0
C1849 C 0.6531 0.33889 0.69318 0.0
N1850 N 0.72527 0.3158 0.70882 0.0
N1851 N 0.67245 0.33791 0.70747 0.0
H1852 H 0.06476 0.37181 0.98182 0.0
H1853 H 1.00573 0.47334 0.02717 0.0
H1854 H 0.99561 0.35665 1.00216 0.0
H1855 H 0.07811 0.48617 0.01633 0.0
H1856 H 1.00097 0.43097 0.01717 0.0
H1857 H 0.06935 0.41369 0.9937 0.0
C1858 C 0.05056 0.37724 0.98897 0.0
C1859 C 0.02978 0.36047 0.99104 0.0
C1860 C 0.01789 0.44306 0.017 0.0
C1861 C 0.03483 0.40897 0.0045 0.0
C1862 C 0.02063 0.46735 0.02265 0.0
C1863 C 0.04238 0.48363 0.02261 0.0
C1864 C 0.03698 0.43477 0.01106 0.0
C1865 C 0.06099 0.47452 0.01666 0.0
C1866 C 0.05319 0.40128 0.99574 0.0
C1867 C 1.012 0.36882 1.00036 0.0
N1868 N 0.05784 0.45091 0.0111 0.0
N1869 N 0.01487 0.39238 0.00659 0.0
H1870 H 1.00349 0.81544 0.13807 0.0
H1871 H 0.96481 0.80136 0.26571 0.0
H1872 H 0.0523 0.82542 0.20165 0.0
H1873 H 0.91669 0.80346 0.20504 0.0
H1874 H 0.99673 0.80866 0.24205 0.0
H1875 H 0.97118 0.8095 0.16172 0.0
C1876 C 1.00742 0.81648 0.157 0.0
C1877 C 0.03065 0.82095 0.16789 0.0
C1878 C 0.9792 0.80756 0.2339 0.0
C1879 C 0.99374 0.81398 0.19507 0.0
C1880 C 0.96089 0.80351 0.24747 0.0
C1881 C 0.93785 0.80185 0.23751 0.0
C1882 C 0.97458 0.80985 0.21002 0.0
C1883 C 0.93401 0.80427 0.21352 0.0
C1884 C 0.98897 0.81309 0.1705 0.0
C1885 C 0.03469 0.82206 0.1925 0.0
N1886 N 0.95213 0.80811 0.20064 0.0
N1887 N 0.01646 0.81851 0.20521 0.0
H1888 H 0.53722 0.34828 0.19298 0.0
H1889 H 0.53606 0.38363 0.06284 0.0
H1890 H 0.51859 0.29803 0.129 0.0
H1891 H 0.55564 0.43445 0.12646 0.0
H1892 H 0.52914 0.35218 0.0869 0.0
H1893 H 0.54325 0.38014 0.16911 0.0
C1894 C 0.53431 0.34395 0.17391 0.0
C1895 C 0.52739 0.32044 0.16298 0.0
C1896 C 0.53494 0.37021 0.09563 0.0
C1897 C 0.53435 0.35684 0.13552 0.0
C1898 C 0.53906 0.38822 0.08188 0.0
C1899 C 0.54656 0.41184 0.09256 0.0
C1900 C 0.53833 0.37569 0.12037 0.0
C1901 C 0.54965 0.41657 0.11737 0.0
C1902 C 0.53779 0.36215 0.16029 0.0
C1903 C 0.52392 0.31588 0.13821 0.0
N1904 N 0.54558 0.3987 0.13039 0.0
N1905 N 0.52746 0.33387 0.12535 0.0
H1906 H 0.98974 0.3464 0.31426 0.0
H1907 H 0.85705 0.2812 0.32828 0.0
H1908 H 0.97104 0.2878 0.35216 0.0
H1909 H 0.87367 0.33032 0.27933 0.0
H1910 H 0.89884 0.28503 0.33853 0.0
H1911 H 0.94782 0.34215 0.30222 0.0
C1912 C 0.97688 0.33252 0.31989 0.0
C1913 C 0.9841 0.31739 0.33421 0.0
C1914 C 0.89341 0.295 0.32554 0.0
C1915 C 0.93585 0.31265 0.32078 0.0
C1916 C 0.86942 0.29287 0.31968 0.0
C1917 C 0.86154 0.30543 0.30283 0.0
C1918 C 0.91 0.30999 0.3147 0.0
C1919 C 0.87872 0.32025 0.2924 0.0
C1920 C 0.95289 0.33014 0.31306 0.0
C1921 C 0.96647 0.29984 0.34106 0.0
N1922 N 0.90201 0.32216 0.29853 0.0
N1923 N 0.94334 0.29807 0.33443 0.0
H1924 H 1.00455 0.71491 0.62633 0.0
H1925 H 0.04467 0.59593 0.61213 0.0
H1926 H 0.03066 0.68666 0.68579 0.0
H1927 H 1.009 0.61994 0.55497 0.0
H1928 H 0.04029 0.62891 0.63937 0.0
H1929 H 1.00632 0.68023 0.60012 0.0
C1930 C 1.01049 0.7013 0.63393 0.0
C1931 C 0.01743 0.70375 0.65836 0.0
C1932 C 0.03337 0.62693 0.62088 0.0
C1933 C 0.01981 0.66386 0.62822 0.0
C1934 C 0.03593 0.6081 0.60525 0.0
C1935 C 0.02728 0.60508 0.58109 0.0
C1936 C 0.02221 0.64305 0.61235 0.0
C1937 C 0.01599 0.62145 0.57337 0.0
C1938 C 1.01153 0.68146 0.61891 0.0
C1939 C 0.02502 0.68549 0.6671 0.0
N1940 N 0.0139 0.63969 0.58887 0.0
N1941 N 0.02617 0.66643 0.65205 0.0
H1942 H 0.61429 0.83762 0.80769 0.0
H1943 H 0.72639 0.7902 0.83059 0.0
H1944 H 0.63655 0.82143 0.87579 0.0
H1945 H 0.72968 0.84618 0.78915 0.0
H1946 H 0.68953 0.79549 0.84246 0.0
H1947 H 0.65232 0.83519 0.79556 0.0
C1948 C 0.62707 0.8335 0.82007 0.0
C1949 C 0.62209 0.82978 0.84287 0.0
C1950 C 0.6983 0.80667 0.83081 0.0
C1951 C 0.6655 0.82648 0.82888 0.0
C1952 C 0.71938 0.80366 0.82398 0.0
C1953 C 0.73139 0.81786 0.80895 0.0
C1954 C 0.68842 0.82354 0.82202 0.0
C1955 C 0.72124 0.83498 0.80096 0.0
C1956 C 0.64883 0.83225 0.81316 0.0
C1957 C 0.63951 0.82456 0.85811 0.0
N1958 N 0.70025 0.83714 0.80731 0.0
N1959 N 0.66013 0.82277 0.85078 0.0
H1960 H 0.52101 0.57764 0.73269 0.0
H1961 H 0.49079 0.53987 0.59251 0.0
H1962 H 0.45253 0.53913 0.69631 0.0
H1963 H 0.55598 0.58877 0.62594 0.0
H1964 H 0.477 0.53922 0.63077 0.0
H1965 H 0.53487 0.58148 0.69428 0.0
C1966 C 0.50892 0.57 0.71665 0.0
C1967 C 0.4856 0.55799 0.71771 0.0
C1968 C 0.49428 0.55023 0.6298 0.0
C1969 C 0.50128 0.56229 0.67382 0.0
C1970 C 0.50219 0.55062 0.60789 0.0
C1971 C 0.52462 0.56437 0.60596 0.0
C1972 C 0.50895 0.56349 0.65013 0.0
C1973 C 0.53852 0.57797 0.62657 0.0
C1974 C 0.5168 0.57227 0.69476 0.0
C1975 C 0.47066 0.54851 0.69638 0.0
N1976 N 0.53054 0.57704 0.64784 0.0
N1977 N 0.47876 0.55079 0.6754 0.0
H1978 H 0.75104 0.17624 0.98136 0.0
H1979 H 0.78856 0.30514 0.94852 0.0
H1980 H 0.80944 0.2309 0.02044 0.0
H1981 H 0.72536 0.25257 0.91603 0.0
H1982 H 0.7951 0.2795 0.977 0.0
H1983 H 0.74085 0.20461 0.95808 0.0
C1984 C 0.76182 0.19423 0.98493 0.0
C1985 C 0.78121 0.20125 1.0027 0.0
C1986 C 0.77962 0.27371 0.96386 0.0
C1987 C 0.7695 0.23389 0.97631 0.0
C1988 C 0.77573 0.28845 0.94776 0.0
C1989 C 0.75649 0.28084 0.92976 0.0
C1990 C 0.76424 0.2512 0.9618 0.0
C1991 C 0.74062 0.25891 0.92939 0.0
C1992 C 0.75587 0.21046 0.97176 0.0
C1993 C 0.79444 0.22478 0.00675 0.0
N1994 N 0.74501 0.24472 0.945 0.0
N1995 N 0.78838 0.2403 0.99357 0.0
H1996 H 0.18489 0.53936 0.18547 0.0
H1997 H 0.05782 0.52098 0.11518 0.0
H1998 H 0.12124 0.50713 0.21182 0.0
H1999 H 0.12264 0.55629 0.09252 0.0
H2000 H 0.08043 0.50926 0.14731 0.0
H2001 H 0.16218 0.53758 0.14728 0.0
C2002 C 0.16615 0.5314 0.183 0.0
C2003 C 0.1548 0.52378 0.20183 0.0
C2004 C 0.08964 0.51942 0.13515 0.0
C2005 C 0.12862 0.52232 0.15851 0.0
C2006 C 0.07676 0.52624 0.11692 0.0
C2007 C 0.08836 0.54001 0.10141 0.0
C2008 C 0.11422 0.52639 0.13777 0.0
C2009 C 0.11292 0.54603 0.10427 0.0
C2010 C 0.15315 0.53051 0.16125 0.0
C2011 C 0.13057 0.51338 0.19771 0.0
N2012 N 0.125 0.53931 0.12218 0.0
N2013 N 0.11814 0.51342 0.17657 0.0
H2014 H 0.7588 0.85149 0.47132 0.0
H2015 H 0.8346 0.82308 0.37053 0.0
H2016 H 0.83139 0.85206 0.48623 0.0
H2017 H 0.75994 0.81428 0.35827 0.0
H2018 H 0.83398 0.83306 0.41294 0.0
H2019 H 0.75886 0.83669 0.42995 0.0
C2020 C 0.77469 0.84822 0.46593 0.0
C2021 C 0.79512 0.85304 0.48226 0.0
C2022 C 0.81774 0.82883 0.40094 0.0
C2023 C 0.79547 0.83643 0.43472 0.0
C2024 C 0.81808 0.82319 0.3767 0.0
C2025 C 0.79732 0.81791 0.3607 0.0
C2026 C 0.7965 0.82933 0.40926 0.0
C2027 C 0.77643 0.81826 0.36983 0.0
C2028 C 0.77475 0.83982 0.44227 0.0
C2029 C 0.81523 0.84852 0.47425 0.0
N2030 N 0.7766 0.82396 0.3934 0.0
N2031 N 0.81496 0.84068 0.45101 0.0
H2032 H 0.5007 0.59035 0.85888 0.0
H2033 H 0.52568 0.51236 0.95733 0.0
H2034 H 0.49727 0.51696 0.84219 0.0
H2035 H 0.53812 0.58766 0.97067 0.0
H2036 H 0.516 0.51336 0.91508 0.0
H2037 H 0.51555 0.58959 0.89982 0.0
C2038 C 0.50334 0.57412 0.86379 0.0
C2039 C 0.49771 0.55369 0.8471 0.0
C2040 C 0.52099 0.52965 0.92729 0.0
C2041 C 0.5144 0.55254 0.89415 0.0
C2042 C 0.52648 0.52909 0.95143 0.0
C2043 C 0.53262 0.54992 0.96769 0.0
C2044 C 0.52151 0.55118 0.91938 0.0
C2045 C 0.53341 0.57109 0.95892 0.0
C2046 C 0.51178 0.57367 0.88721 0.0
C2047 C 0.50145 0.53314 0.85448 0.0
N2048 N 0.5278 0.57114 0.93548 0.0
N2049 N 0.50934 0.53302 0.87751 0.0
H2050 H 0.80402 0.15979 0.134 0.0
H2051 H 0.81406 0.23062 0.24105 0.0
H2052 H 0.82453 0.22435 0.10521 0.0
H2053 H 0.7977 0.27978 0.19708 0.0
H2054 H 0.82235 0.20791 0.20662 0.0
H2055 H 0.80576 0.18248 0.17255 0.0
C2056 C 0.80949 0.17877 0.13597 0.0
C2057 C 0.81404 0.19023 0.11643 0.0
C2058 C 0.81671 0.22351 0.20444 0.0
C2059 C 0.81617 0.21637 0.16045 0.0
C2060 C 0.81211 0.23662 0.22413 0.0
C2061 C 0.80474 0.25694 0.22187 0.0
C2062 C 0.81383 0.2307 0.18228 0.0
C2063 C 0.80299 0.26405 0.19957 0.0
C2064 C 0.81062 0.19176 0.15803 0.0
C2065 C 0.82089 0.21485 0.11986 0.0
N2066 N 0.80742 0.25087 0.18059 0.0
N2067 N 0.82133 0.22712 0.14139 0.0
H2068 H 0.12059 0.58006 0.29144 0.0
H2069 H 0.05055 0.52433 0.39021 0.0
H2070 H 0.12408 0.51465 0.31461 0.0
H2071 H 0.05355 0.5936 0.37359 0.0
H2072 H 0.07029 0.51679 0.35629 0.0
H2073 H 0.08927 0.58155 0.31521 0.0
C2074 C 0.11455 0.56586 0.30131 0.0
C2075 C 0.12516 0.54739 0.30142 0.0
C2076 C 0.06636 0.53353 0.35983 0.0
C2077 C 0.08946 0.54902 0.32861 0.0
C2078 C 0.05513 0.53784 0.37918 0.0
C2079 C 0.05088 0.55978 0.3849 0.0
C2080 C 0.07354 0.55136 0.34621 0.0
C2081 C 0.05665 0.5765 0.36982 0.0
C2082 C 0.09669 0.56673 0.31486 0.0
C2083 C 0.11655 0.52935 0.3143 0.0
N2084 N 0.06807 0.57208 0.35133 0.0
N2085 N 0.09936 0.53075 0.32761 0.0
H2086 H 0.81618 0.90161 0.63331 0.0
H2087 H 0.75927 0.80148 0.70729 0.0
H2088 H 0.77167 0.83394 0.60014 0.0
H2089 H 0.81435 0.86388 0.737 0.0
H2090 H 0.76025 0.81436 0.66848 0.0
H2091 H 0.81264 0.88917 0.6718 0.0
C2092 C 0.80564 0.88408 0.63412 0.0
C2093 C 0.79426 0.86876 0.61343 0.0
C2094 C 0.77203 0.82525 0.68353 0.0
C2095 C 0.79002 0.85437 0.65771 0.0
C2096 C 0.77139 0.81801 0.70574 0.0
C2097 C 0.78679 0.8316 0.72548 0.0
C2098 C 0.78806 0.84634 0.68107 0.0
C2099 C 0.80221 0.85276 0.72232 0.0
C2100 C 0.80363 0.87698 0.65616 0.0
C2101 C 0.78081 0.84627 0.61563 0.0
N2102 N 0.80245 0.85944 0.70059 0.0
N2103 N 0.77903 0.83975 0.6374 0.0
H2104 H 0.73502 0.45301 0.57163 0.0
H2105 H 0.72094 0.58083 0.5583 0.0
H2106 H 0.75899 0.49197 0.51636 0.0
H2107 H 0.68201 0.53581 0.60204 0.0
H2108 H 0.74286 0.55202 0.54985 0.0
H2109 H 0.72221 0.48643 0.58906 0.0
C2110 C 0.73758 0.4686 0.56321 0.0
C2111 C 0.74774 0.46968 0.54238 0.0
C2112 C 0.72977 0.54864 0.5616 0.0
C2113 C 0.73362 0.50788 0.56233 0.0
C2114 C 0.71733 0.56508 0.56647 0.0
C2115 C 0.69938 0.5605 0.58054 0.0
C2116 C 0.72415 0.52747 0.57083 0.0
C2117 C 0.6957 0.54005 0.59108 0.0
C2118 C 0.73039 0.48765 0.57319 0.0
C2119 C 0.75093 0.49031 0.53227 0.0
N2120 N 0.70773 0.52407 0.5857 0.0
N2121 N 0.74383 0.50858 0.54231 0.0
H2122 H 0.20753 0.19138 0.52133 0.0
H2123 H 0.12757 0.06013 0.51544 0.0
H2124 H 0.23584 0.13146 0.51895 0.0
H2125 H 0.10528 0.12241 0.53502 0.0
H2126 H 0.16615 0.08518 0.51132 0.0
H2127 H 0.16851 0.16538 0.52072 0.0
C2128 C 0.2055 0.17271 0.52053 0.0
C2129 C 0.22493 0.16356 0.52035 0.0
C2130 C 0.15274 0.09328 0.51648 0.0
C2131 C 0.18033 0.13368 0.51968 0.0
C2132 C 0.13075 0.07902 0.51878 0.0
C2133 C 0.11327 0.0892 0.5258 0.0
C2134 C 0.15709 0.11781 0.52096 0.0
C2135 C 0.1183 0.11377 0.52986 0.0
C2136 C 0.18323 0.15788 0.52025 0.0
C2137 C 0.22129 0.13922 0.51924 0.0
N2138 N 0.13971 0.1272 0.52738 0.0
N2139 N 0.1994 0.12508 0.51902 0.0
H2140 H 0.15099 0.98073 0.79816 0.0
H2141 H 0.27544 0.96346 0.77197 0.0
H2142 H 0.20715 0.03555 0.7818 0.0
H2143 H 0.21735 0.90649 0.7811 0.0
H2144 H 0.25104 0.99041 0.77719 0.0
H2145 H 0.17546 0.95348 0.79385 0.0
C2146 C 0.16846 0.98703 0.7937 0.0
C2147 C 0.17705 0.0104 0.79029 0.0
C2148 C 0.24361 0.97201 0.77807 0.0
C2149 C 0.2051 0.97944 0.78538 0.0
C2150 C 0.25752 0.95658 0.77496 0.0
C2151 C 0.24846 0.93263 0.77604 0.0
C2152 C 0.22042 0.9635 0.78232 0.0
C2153 C 0.2252 0.92484 0.78042 0.0
C2154 C 0.18241 0.97148 0.79122 0.0
C2155 C 0.1998 0.01766 0.78454 0.0
N2156 N 0.21199 0.94022 0.78337 0.0
N2157 N 0.21302 1.00225 0.78227 0.0
H2158 H 0.33192 0.98337 0.01424 0.0
H2159 H 0.46461 0.98489 0.05557 0.0
H2160 H 0.35121 0.93148 0.05238 0.0
H2161 H 0.44442 0.03845 0.0207 0.0
H2162 H 0.42327 0.96597 0.05635 0.0
H2163 H 0.37319 1.00483 0.0183 0.0
C2164 C 0.34486 0.97659 0.02361 0.0
C2165 C 0.33821 0.95559 0.03289 0.0
C2166 C 0.42792 0.98193 0.04864 0.0
C2167 C 0.38546 0.97993 0.03748 0.0
C2168 C 0.45152 0.99272 0.04815 0.0
C2169 C 0.45798 0.01318 0.03788 0.0
C2170 C 0.4107 0.99164 0.03872 0.0
C2171 C 0.44027 0.02264 0.02869 0.0
C2172 C 0.36842 0.98883 0.02592 0.0
C2173 C 0.35565 0.9476 0.04492 0.0
N2174 N 0.41745 0.01171 0.02922 0.0
N2175 N 0.37853 0.95971 0.04674 0.0
H2176 H 0.83808 0.58655 0.8093 0.0
H2177 H 0.80369 0.65948 0.71056 0.0
H2178 H 0.8876 0.6307 0.7732 0.0
H2179 H 0.76391 0.64558 0.76815 0.0
H2180 H 0.82924 0.63653 0.72527 0.0
H2181 H 0.80623 0.59807 0.78741 0.0
C2182 C 0.84222 0.59877 0.7969 0.0
C2183 C 0.86544 0.60803 0.79325 0.0
C2184 C 0.81455 0.63811 0.73431 0.0
C2185 C 0.82933 0.62036 0.76772 0.0
C2186 C 0.79993 0.65107 0.72589 0.0
C2187 C 0.7821 0.65502 0.73855 0.0
C2188 C 0.81108 0.62889 0.75532 0.0
C2189 C 0.77757 0.64319 0.75793 0.0
C2190 C 0.8241 0.60512 0.78433 0.0
C2191 C 0.86995 0.62351 0.77679 0.0
N2192 N 0.79231 0.63098 0.76604 0.0
N2193 N 0.85201 0.62914 0.76454 0.0
H2194 H 0.82073 0.63737 0.0102 0.0
H2195 H 0.94233 0.63318 0.0803 0.0
H2196 H 0.86979 0.69866 0.05163 0.0
H2197 H 0.899 0.57714 0.02751 0.0
H2198 H 0.91518 0.65696 0.07207 0.0
H2199 H 0.84872 0.61468 0.01782 0.0
C2200 C 0.8375 0.64609 0.02079 0.0
C2201 C 0.84298 0.66992 0.03029 0.0
C2202 C 0.91167 0.63947 0.06228 0.0
C2203 C 0.87506 0.64396 0.03935 0.0
C2204 C 0.92702 0.62584 0.06711 0.0
C2205 C 0.92291 0.60318 0.05453 0.0
C2206 C 0.89196 0.63026 0.04494 0.0
C2207 C 0.90297 0.59462 0.03744 0.0
C2208 C 0.85348 0.63312 0.02515 0.0
C2209 C 0.86495 0.68033 0.0439 0.0
N2210 N 0.88824 0.60813 0.03319 0.0
N2211 N 0.88016 0.66723 0.04817 0.0
H2212 H 0.1533 0.14036 0.78395 0.0
H2213 H 0.28453 0.22408 0.80925 0.0
H2214 H 0.21255 0.11775 0.81187 0.0
H2215 H 0.22517 0.24259 0.77506 0.0
H2216 H 0.25859 0.1857 0.81235 0.0
H2217 H 0.17952 0.17887 0.7828 0.0
C2218 C 0.17184 0.14355 0.78992 0.0
C2219 C 0.18079 0.12586 0.79795 0.0
C2220 C 0.25132 0.19821 0.80416 0.0
C2221 C 0.21098 0.16987 0.79663 0.0
C2222 C 0.26611 0.2201 0.80238 0.0
C2223 C 0.25707 0.23656 0.79178 0.0
C2224 C 0.22735 0.19287 0.79538 0.0
C2225 C 0.23303 0.23047 0.78324 0.0
C2226 C 0.18683 0.16552 0.78922 0.0
C2227 C 0.20496 0.13094 0.8055 0.0
N2228 N 0.21906 0.20917 0.78525 0.0
N2229 N 0.21925 0.15249 0.80462 0.0
H2230 H 0.38122 1.00249 0.27246 0.0
H2231 H 0.3402 0.89248 0.33902 0.0
H2232 H 0.39788 1.00441 0.34751 0.0
H2233 H 0.33466 0.8865 0.26307 0.0
H2234 H 0.35918 0.9341 0.34225 0.0
H2235 H 0.36188 0.96055 0.26852 0.0
C2236 C 0.38075 0.99407 0.28811 0.0
C2237 C 0.39111 1.00685 0.31036 0.0
C2238 C 0.35388 0.92372 0.32486 0.0
C2239 C 0.3691 0.95906 0.30597 0.0
C2240 C 0.34296 0.89991 0.32297 0.0
C2241 C 0.33581 0.88598 0.3007 0.0
C2242 C 0.35761 0.93378 0.30435 0.0
C2243 C 0.33994 0.89661 0.28057 0.0
C2244 C 0.36979 0.97015 0.28583 0.0
C2245 C 0.39009 0.99516 0.33005 0.0
N2246 N 0.35055 0.91997 0.28287 0.0
N2247 N 0.37922 0.97189 0.32739 0.0
H2248 H 0.55863 0.36887 0.56456 0.0
H2249 H 0.59433 0.51065 0.5892 0.0
H2250 H 0.60702 0.41059 0.62426 0.0
H2251 H 0.54415 0.46994 0.53021 0.0
H2252 H 0.60016 0.47424 0.60115 0.0
H2253 H 0.55413 0.40521 0.5507 0.0
C2254 C 0.56846 0.38562 0.5747 0.0
C2255 C 0.58329 0.38645 0.59567 0.0
C2256 C 0.58791 0.47319 0.58553 0.0
C2257 C 0.57809 0.42849 0.57985 0.0
C2258 C 0.58457 0.49411 0.57862 0.0
C2259 C 0.56868 0.49367 0.55856 0.0
C2260 C 0.57531 0.4513 0.57241 0.0
C2261 C 0.55662 0.4714 0.54576 0.0
C2262 C 0.56582 0.40644 0.56678 0.0
C2263 C 0.59542 0.40887 0.60801 0.0
N2264 N 0.56013 0.45127 0.55289 0.0
N2265 N 0.59253 0.42879 0.59999 0.0
H2266 H 0.43244 0.78695 0.44576 0.0
H2267 H 0.38223 0.80515 0.31677 0.0
H2268 H 0.46703 0.78004 0.38431 0.0
H2269 H 0.34046 0.79962 0.37365 0.0
H2270 H 0.41376 0.79715 0.34209 0.0
H2271 H 0.39875 0.79212 0.42052 0.0
C2272 C 0.43286 0.78625 0.42696 0.0
C2273 C 0.45264 0.78303 0.41718 0.0
C2274 C 0.39771 0.79762 0.34909 0.0
C2275 C 0.41429 0.78932 0.38824 0.0
C2276 C 0.37965 0.80231 0.33461 0.0
C2277 C 0.35854 0.80314 0.343 0.0
C2278 C 0.39494 0.79388 0.37236 0.0
C2279 C 0.35637 0.79916 0.36636 0.0
C2280 C 0.41365 0.78928 0.41257 0.0
C2281 C 0.45222 0.78244 0.39269 0.0
N2282 N 0.37434 0.79481 0.38023 0.0
N2283 N 0.43351 0.7857 0.37918 0.0
H2284 H 0.05346 0.74129 0.12469 0.0
H2285 H 0.08772 0.64319 0.03739 0.0
H2286 H 0.09762 0.75891 0.07133 0.0
H2287 H 0.04353 0.62775 0.09123 0.0
H2288 H 0.09166 0.6852 0.04893 0.0
H2289 H 0.04956 0.69977 0.11199 0.0
C2290 C 0.0623 0.73646 0.11018 0.0
C2291 C 0.07589 0.75385 0.0991 0.0
C2292 C 0.08112 0.67262 0.05824 0.0
C2293 C 0.07156 0.70568 0.08436 0.0
C2294 C 0.07888 0.64854 0.05168 0.0
C2295 C 0.0653 0.63162 0.06334 0.0
C2296 C 0.06971 0.68009 0.07665 0.0
C2297 C 0.05424 0.63991 0.08168 0.0
C2298 C 0.06008 0.71261 0.10293 0.0
C2299 C 0.0869 0.74624 0.08039 0.0
N2300 N 0.05669 0.66336 0.08769 0.0
N2301 N 0.08455 0.72282 0.07368 0.0
H2302 H 0.09981 0.3017 0.94447 0.0
H2303 H 0.13007 0.30221 0.81209 0.0
H2304 H 0.04735 0.28477 0.88287 0.0
H2305 H 0.18226 0.31172 0.87291 0.0
H2306 H 0.09964 0.29668 0.83784 0.0
H2307 H 0.13033 0.30606 0.91871 0.0
C2308 C 0.0947 0.29882 0.92553 0.0
C2309 C 0.07098 0.29285 0.91583 0.0
C2310 C 0.11774 0.29993 0.84556 0.0
C2311 C 0.10585 0.29795 0.88619 0.0
C2312 C 0.13516 0.30323 0.83087 0.0
C2313 C 0.15883 0.30747 0.84029 0.0
C2314 C 0.12394 0.301 0.86997 0.0
C2315 C 0.16426 0.30824 0.86477 0.0
C2316 C 0.11214 0.30132 0.91082 0.0
C2317 C 0.0654 0.28936 0.89114 0.0
N2318 N 0.14701 0.30513 0.87873 0.0
N2319 N 0.08268 0.29204 0.87721 0.0
H2320 H 0.55127 0.7487 0.88176 0.0
H2321 H 0.53175 0.71458 0.01011 0.0
H2322 H 0.54817 0.79807 0.94167 0.0
H2323 H 0.54487 0.66699 0.95383 0.0
H2324 H 0.53623 0.74478 0.98462 0.0
H2325 H 0.54716 0.71791 0.90702 0.0
C2326 C 0.54971 0.75306 0.90019 0.0
C2327 C 0.55007 0.77602 0.90959 0.0
C2328 C 0.53816 0.72774 0.97783 0.0
C2329 C 0.54531 0.74087 0.9386 0.0
C2330 C 0.53576 0.71045 0.99248 0.0
C2331 C 0.538 0.68805 0.98429 0.0
C2332 C 0.54274 0.72274 0.95463 0.0
C2333 C 0.54266 0.6838 0.96095 0.0
C2334 C 0.5474 0.73549 0.91462 0.0
C2335 C 0.548 0.78065 0.93363 0.0
N2336 N 0.54485 0.70093 0.94699 0.0
N2337 N 0.54568 0.76328 0.94724 0.0
H2338 H 0.09775 0.79737 0.7621 0.0
H2339 H 0.21182 0.75369 0.74212 0.0
H2340 H 0.10109 0.75187 0.69935 0.0
H2341 H 0.21754 0.8221 0.78031 0.0
H2342 H 0.16956 0.74831 0.73159 0.0
H2343 H 0.13989 0.80223 0.77448 0.0
C2344 C 0.10723 0.78819 0.75107 0.0
C2345 C 0.09577 0.77419 0.72962 0.0
C2346 C 0.18006 0.76448 0.74232 0.0
C2347 C 0.14396 0.77943 0.74383 0.0
C2348 C 0.20422 0.76755 0.7484 0.0
C2349 C 0.21845 0.78845 0.76204 0.0
C2350 C 0.16971 0.78215 0.75039 0.0
C2351 C 0.20741 0.80577 0.76961 0.0
C2352 C 0.13131 0.7911 0.75806 0.0
C2353 C 0.10912 0.76289 0.71597 0.0
N2354 N 0.18378 0.80218 0.76386 0.0
N2355 N 0.1323 0.76561 0.72335 0.0
H2356 H 0.06195 0.41624 0.38463 0.0
H2357 H 0.03263 0.46542 0.51057 0.0
H2358 H 0.0468 0.37523 0.44066 0.0
H2359 H 0.04953 0.50931 0.45701 0.0
H2360 H 0.03777 0.4324 0.48456 0.0
H2361 H 0.05789 0.45072 0.41023 0.0
C2362 C 0.05791 0.41451 0.40232 0.0
C2363 C 0.05471 0.39279 0.41049 0.0
C2364 C 0.04037 0.44921 0.4784 0.0
C2365 C 0.0499 0.43205 0.43979 0.0
C2366 C 0.03739 0.46817 0.49331 0.0
C2367 C 0.04063 0.49031 0.48607 0.0
C2368 C 0.04665 0.45219 0.45592 0.0
C2369 C 0.04682 0.4926 0.4634 0.0
C2370 C 0.05554 0.43417 0.4169 0.0
C2371 C 0.04941 0.39156 0.43355 0.0
N2372 N 0.04963 0.4738 0.44914 0.0
N2373 N 0.04714 0.41081 0.44728 0.0
H2374 H 0.43562 0.24442 0.20266 0.0
H2375 H 0.37615 0.3091 0.30015 0.0
H2376 H 0.47566 0.2909 0.26451 0.0
H2377 H 0.33675 0.25898 0.24033 0.0
H2378 H 0.41248 0.30253 0.28796 0.0
H2379 H 0.3995 0.24929 0.21659 0.0
C2380 C 0.43688 0.25557 0.21928 0.0
C2381 C 0.45894 0.2672 0.23238 0.0
C2382 C 0.3959 0.29289 0.27753 0.0
C2383 C 0.41712 0.2731 0.24854 0.0
C2384 C 0.37502 0.29662 0.28451 0.0
C2385 C 0.35306 0.28462 0.27133 0.0
C2386 C 0.39509 0.27706 0.25708 0.0
C2387 C 0.35307 0.2687 0.25117 0.0
C2388 C 0.41613 0.25838 0.22724 0.0
C2389 C 0.45918 0.28148 0.25379 0.0
N2390 N 0.37359 0.26549 0.2447 0.0
N2391 N 0.43872 0.28408 0.26109 0.0
H2392 H 0.58117 0.5384 0.35125 0.0
H2393 H 0.61754 0.56171 0.49211 0.0
H2394 H 0.653 0.56116 0.38488 0.0
H2395 H 0.54631 0.53741 0.45662 0.0
H2396 H 0.63135 0.56046 0.45339 0.0
H2397 H 0.56839 0.5369 0.3901 0.0
C2398 C 0.59425 0.54302 0.36682 0.0
C2399 C 0.61817 0.54996 0.36481 0.0
C2400 C 0.61271 0.55532 0.45416 0.0
C2401 C 0.6037 0.54837 0.40948 0.0
C2402 C 0.60483 0.55598 0.47626 0.0
C2403 C 0.58072 0.54979 0.47772 0.0
C2404 C 0.59636 0.5484 0.4334 0.0
C2405 C 0.56506 0.54252 0.45652 0.0
C2406 C 0.58697 0.54217 0.38903 0.0
C2407 C 0.63437 0.55574 0.38561 0.0
N2408 N 0.57314 0.54212 0.43537 0.0
N2409 N 0.62685 0.55489 0.40707 0.0
H2410 H 0.29741 0.84855 0.03493 0.0
H2411 H 0.26044 0.79637 0.14979 0.0
H2412 H 0.23573 0.85425 0.06557 0.0
H2413 H 0.32844 0.80405 0.12736 0.0
H2414 H 0.24591 0.80596 0.11204 0.0
H2415 H 0.30315 0.82073 0.0613 0.0
C2416 C 0.2848 0.84357 0.04688 0.0
C2417 C 0.2664 0.85412 0.04855 0.0
C2418 C 0.26389 0.80511 0.1152 0.0
C2419 C 0.27296 0.82252 0.07877 0.0
C2420 C 0.27221 0.79973 0.13676 0.0
C2421 C 0.29584 0.80007 0.14191 0.0
C2422 C 0.27935 0.81094 0.09877 0.0
C2423 C 0.31016 0.80383 0.12418 0.0
C2424 C 0.28811 0.82771 0.06193 0.0
C2425 C 0.25039 0.84682 0.06406 0.0
N2426 N 0.30179 0.80957 0.10353 0.0
N2427 N 0.25428 0.83174 0.07891 0.0
H2428 H 0.93513 0.60315 0.9003 0.0
H2429 H 0.04794 0.5723 0.96041 0.0
H2430 H 0.99266 0.59368 0.86423 0.0
H2431 H 0.99129 0.58211 0.99792 0.0
H2432 H 0.02992 0.58498 0.92627 0.0
H2433 H 0.95784 0.60147 0.93777 0.0
C2434 C 0.95274 0.60129 0.90038 0.0
C2435 C 0.96196 0.59817 0.87922 0.0
C2436 C 0.02145 0.58447 0.94199 0.0
C2437 C 0.98774 0.59588 0.92164 0.0
C2438 C 0.03168 0.57708 0.96146 0.0
C2439 C 0.02095 0.57583 0.98193 0.0
C2440 C 1.00024 0.59051 0.94291 0.0
C2441 C 1.00006 0.58259 0.9824 0.0
C2442 C 0.96562 0.60016 0.92169 0.0
C2443 C 0.9848 0.59579 0.88017 0.0
N2444 N 0.99027 0.58946 0.96307 0.0
N2445 N 0.9968 0.59439 0.901 0.0
H2446 H 0.33392 0.25342 0.60349 0.0
H2447 H 0.26403 0.30069 0.70165 0.0
H2448 H 0.26188 0.25459 0.588 0.0
H2449 H 0.32742 0.27962 0.71707 0.0
H2450 H 0.26527 0.2904 0.65923 0.0
H2451 H 0.33433 0.27017 0.64441 0.0
C2452 C 0.31828 0.25752 0.60861 0.0
C2453 C 0.2978 0.25246 0.59231 0.0
C2454 C 0.27893 0.28816 0.67197 0.0
C2455 C 0.29807 0.27152 0.63929 0.0
C2456 C 0.27826 0.29408 0.69615 0.0
C2457 C 0.29549 0.29079 0.71297 0.0
C2458 C 0.29717 0.27928 0.66462 0.0
C2459 C 0.31355 0.28217 0.70481 0.0
C2460 C 0.31847 0.26696 0.63203 0.0
C2461 C 0.27803 0.25812 0.60001 0.0
N2462 N 0.31391 0.27675 0.68132 0.0
N2463 N 0.2786 0.26723 0.62297 0.0
H2464 H 0.59602 0.51558 0.22356 0.0
H2465 H 0.55183 0.58723 0.12695 0.0
H2466 H 0.59924 0.58899 0.23954 0.0
H2467 H 0.56831 0.5212 0.11061 0.0
H2468 H 0.56268 0.58632 0.16923 0.0
H2469 H 0.57884 0.51536 0.1831 0.0
C2470 C 0.59284 0.53159 0.21865 0.0
C2471 C 0.59922 0.55236 0.23494 0.0
C2472 C 0.56378 0.57202 0.15631 0.0
C2473 C 0.57965 0.5523 0.18848 0.0
C2474 C 0.55754 0.5725 0.13223 0.0
C2475 C 0.55941 0.5544 0.11518 0.0
C2476 C 0.57155 0.55313 0.16333 0.0
C2477 C 0.56689 0.53572 0.12304 0.0
C2478 C 0.58313 0.5315 0.19549 0.0
C2479 C 0.59467 0.5726 0.22752 0.0
N2480 N 0.57266 0.53558 0.14643 0.0
N2481 N 0.58527 0.57211 0.20479 0.0
H2482 H 0.27383 0.92082 0.93695 0.0
H2483 H 0.25232 0.79864 0.8533 0.0
H2484 H 0.23244 0.85529 0.95279 0.0
H2485 H 0.29307 0.86528 0.83898 0.0
H2486 H 0.24061 0.81927 0.88733 0.0
H2487 H 0.27573 0.90125 0.89791 0.0
C2488 C 0.26477 0.90237 0.932 0.0
C2489 C 0.25324 0.88954 0.94813 0.0
C2490 C 0.252 0.82933 0.87662 0.0
C2491 C 0.2558 0.86686 0.90376 0.0
C2492 C 0.25879 0.81757 0.85729 0.0
C2493 C 0.27401 0.83022 0.84351 0.0
C2494 C 0.26048 0.85386 0.88212 0.0
C2495 C 0.28162 0.85474 0.8493 0.0
C2496 C 0.26594 0.89115 0.90975 0.0
C2497 C 0.24162 0.86574 0.94083 0.0
N2498 N 0.27488 0.86571 0.86822 0.0
N2499 N 0.24354 0.85501 0.91925 0.0
H2500 H 0.9263 0.5617 0.73345 0.0
H2501 H 0.05403 0.57157 0.69838 0.0
H2502 H 0.98909 0.60156 0.77977 0.0
H2503 H 0.99118 0.51932 0.66442 0.0
H2504 H 0.03096 0.58672 0.72619 0.0
H2505 H 0.95031 0.55143 0.70448 0.0
C2506 C 0.94516 0.56863 0.73733 0.0
C2507 C 0.9558 0.58223 0.7591 0.0
C2508 C 0.02234 0.57183 0.71274 0.0
C2509 C 0.98335 0.57019 0.72628 0.0
C2510 C 0.03546 0.56314 0.697 0.0
C2511 C 0.02449 0.54405 0.67927 0.0
C2512 C 0.99812 0.5615 0.7104 0.0
C2513 C 1.00042 0.53377 0.6781 0.0
C2514 C 0.95886 0.5626 0.72089 0.0
C2515 C 0.98027 0.59091 0.76319 0.0
N2516 N 0.98802 0.54273 0.69336 0.0
N2517 N 0.99333 0.5845 0.74698 0.0
H2518 H 0.28483 0.19663 0.44196 0.0
H2519 H 0.31245 0.30643 0.37201 0.0
H2520 H 0.31135 0.2687 0.47547 0.0
H2521 H 0.28486 0.23501 0.33666 0.0
H2522 H 0.31404 0.29227 0.40973 0.0
H2523 H 0.28635 0.20969 0.40332 0.0
C2524 C 0.29105 0.21522 0.4412 0.0
C2525 C 0.29792 0.23163 0.46201 0.0
C2526 C 0.3077 0.27961 0.39379 0.0
C2527 C 0.2997 0.24668 0.41777 0.0
C2528 C 0.30677 0.28768 0.37212 0.0
C2529 C 0.29833 0.27191 0.351 0.0
C2530 C 0.30007 0.25548 0.39463 0.0
C2531 C 0.29147 0.24782 0.35245 0.0
C2532 C 0.29191 0.22264 0.41911 0.0
C2533 C 0.30584 0.25545 0.45993 0.0
N2534 N 0.29235 0.24034 0.37392 0.0
N2535 N 0.30645 0.26223 0.43823 0.0
H2536 H 0.32955 0.59066 0.57863 0.0
H2537 H 0.38699 0.52041 0.48691 0.0
H2538 H 0.32957 0.59823 0.50509 0.0
H2539 H 0.39657 0.51855 0.56189 0.0
H2540 H 0.35625 0.53983 0.49198 0.0
H2541 H 0.3459 0.55702 0.57166 0.0
C2542 C 0.33289 0.58515 0.56103 0.0
C2543 C 0.32871 0.59746 0.5425 0.0
C2544 C 0.36476 0.5348 0.5073 0.0
C2545 C 0.34693 0.55902 0.53436 0.0
C2546 C 0.38216 0.5234 0.50437 0.0
C2547 C 0.39481 0.5184 0.52412 0.0
C2548 C 0.36021 0.54148 0.53014 0.0
C2549 C 0.38773 0.5228 0.5463 0.0
C2550 C 0.34206 0.56592 0.55703 0.0
C2551 C 0.33297 0.58948 0.51996 0.0
N2552 N 0.37123 0.5346 0.54882 0.0
N2553 N 0.34202 0.57088 0.51657 0.0
H2554 H 0.85384 0.96204 0.52754 0.0
H2555 H 0.99236 0.98527 0.56075 0.0
H2556 H 0.88602 0.917 0.56478 0.0
H2557 H 0.96046 0.03246 0.52663 0.0
H2558 H 0.95351 0.96028 0.56261 0.0
H2559 H 0.89267 0.98813 0.52705 0.0
C2560 C 0.8691 0.95764 0.5356 0.0
C2561 C 0.86674 0.93731 0.54618 0.0
C2562 C 0.95497 0.97613 0.55477 0.0
C2563 C 0.9112 0.96709 0.54571 0.0
C2564 C 0.97719 0.99044 0.55368 0.0
C2565 C 0.9797 0.01098 0.54342 0.0
C2566 C 0.93505 0.98232 0.54547 0.0
C2567 C 0.95937 0.01679 0.53468 0.0
C2568 C 0.89125 0.97256 0.53535 0.0
C2569 C 0.88706 0.93248 0.55641 0.0
N2570 N 0.93789 1.00248 0.53583 0.0
N2571 N 0.90845 0.94725 0.55589 0.0
H2572 H 0.89466 0.07548 0.31606 0.0
H2573 H 0.86018 0.18958 0.28134 0.0
H2574 H 0.93018 0.11907 0.26922 0.0
H2575 H 0.82862 0.14959 0.33288 0.0
H2576 H 0.88609 0.16411 0.27692 0.0
H2577 H 0.87043 0.10247 0.32262 0.0
C2578 C 0.89743 0.0908 0.30723 0.0
C2579 C 0.91443 0.09503 0.29203 0.0
C2580 C 0.87356 0.16093 0.28926 0.0
C2581 C 0.88667 0.12595 0.29937 0.0
C2582 C 0.85882 0.17558 0.29192 0.0
C2583 C 0.84219 0.17183 0.3076 0.0
C2584 C 0.87167 0.14224 0.30227 0.0
C2585 C 0.84096 0.15302 0.32039 0.0
C2586 C 0.88358 0.10621 0.31098 0.0
C2587 C 0.91727 0.11515 0.28107 0.0
N2588 N 0.85547 0.13893 0.31742 0.0
N2589 N 0.90346 0.12982 0.28488 0.0
H2590 H 0.71582 0.14842 0.07648 0.0
H2591 H 0.59883 0.07031 0.99461 0.0
H2592 H 0.71609 0.1044 0.01141 0.0
H2593 H 0.60215 0.0963 0.06844 0.0
H2594 H 0.6411 0.08844 0.99762 0.0
H2595 H 0.67309 0.13451 0.07114 0.0
C2596 C 0.70686 0.13577 0.06112 0.0
C2597 C 0.7194 0.12735 0.04447 0.0
C2598 C 0.63246 0.09025 0.01307 0.0
C2599 C 0.67073 0.11167 0.03809 0.0
C2600 C 0.6084 0.08008 0.01132 0.0
C2601 C 0.59717 0.08166 0.03136 0.0
C2602 C 0.64508 0.10223 0.03492 0.0
C2603 C 0.61027 0.09443 0.05264 0.0
C2604 C 0.68253 0.12789 0.05805 0.0
C2605 C 0.70701 0.11112 0.02478 0.0
N2606 N 0.63356 0.10419 0.05388 0.0
N2607 N 0.68328 0.1038 0.02209 0.0
H2608 H 0.25648 0.52793 0.2626 0.0
H2609 H 0.3026 0.45535 0.35443 0.0
H2610 H 0.22881 0.51693 0.32781 0.0
H2611 H 0.32995 0.46637 0.28908 0.0
H2612 H 0.2816 0.48494 0.34925 0.0
H2613 H 0.28844 0.51171 0.27558 0.0
C2614 C 0.25719 0.52213 0.27971 0.0
C2615 C 0.23978 0.52331 0.29399 0.0
C2616 C 0.29256 0.48125 0.33626 0.0
C2617 C 0.27631 0.5048 0.30899 0.0
C2618 C 0.30476 0.46451 0.33933 0.0
C2619 C 0.31765 0.4581 0.32189 0.0
C2620 C 0.29315 0.49144 0.31553 0.0
C2621 C 0.31972 0.47044 0.30264 0.0
C2622 C 0.27552 0.51301 0.28718 0.0
C2623 C 0.24174 0.51598 0.31614 0.0
N2624 N 0.30722 0.48623 0.29975 0.0
N2625 N 0.25956 0.50674 0.32287 0.0
H2626 H 0.22354 0.40625 0.02411 0.0
H2627 H 0.20889 0.53615 0.05309 0.0
H2628 H 0.27837 0.46498 0.06233 0.0
H2629 H 0.15982 0.48133 1.00325 0.0
H2630 H 0.23316 0.50934 0.05934 0.0
H2631 H 0.19834 0.43252 0.01903 0.0
C2632 C 0.23021 0.42463 0.03155 0.0
C2633 C 0.25306 0.43348 0.04362 0.0
C2634 C 0.21711 0.50318 0.04699 0.0
C2635 C 0.22445 0.46358 0.03787 0.0
C2636 C 0.20322 0.51845 0.0435 0.0
C2637 C 0.18235 0.51097 0.02757 0.0
C2638 C 0.21001 0.48019 0.03463 0.0
C2639 C 0.17593 0.4879 0.01545 0.0
C2640 C 0.21588 0.43963 0.02856 0.0
C2641 C 0.26087 0.45745 0.05285 0.0
N2642 N 0.18966 0.4733 0.01929 0.0
N2643 N 0.24659 0.47165 0.04979 0.0
H2644 H 0.93074 0.9607 0.25624 0.0
H2645 H 0.80767 0.88628 0.28469 0.0
H2646 H 0.87567 0.99141 0.27493 0.0
H2647 H 0.8612 0.85543 0.26149 0.0
H2648 H 0.83146 0.92475 0.27936 0.0
H2649 H 0.9046 0.92173 0.25595 0.0
C2650 C 0.91306 0.95921 0.26007 0.0
C2651 C 0.90538 0.97928 0.26574 0.0
C2652 C 0.83793 0.90953 0.27531 0.0
C2653 C 0.87543 0.9348 0.26565 0.0
C2654 C 0.82436 0.88755 0.27838 0.0
C2655 C 0.8325 0.86759 0.27368 0.0
C2656 C 0.85983 0.91158 0.26758 0.0
C2657 C 0.85423 0.87032 0.26544 0.0
C2658 C 0.89815 0.93697 0.25994 0.0
C2659 C 0.88231 0.97637 0.27053 0.0
N2660 N 0.86718 0.89191 0.26279 0.0
N2661 N 0.8682 0.95454 0.27056 0.0
H2662 H 0.70877 0.131 0.82197 0.0
H2663 H 0.79596 0.23204 0.77098 0.0
H2664 H 0.73149 0.12118 0.75373 0.0
H2665 H 0.75136 0.24704 0.82173 0.0
H2666 H 0.77785 0.19019 0.76933 0.0
H2667 H 0.72961 0.17283 0.82678 0.0
C2668 C 0.71823 0.13765 0.80809 0.0
C2669 C 0.71839 0.12276 0.78739 0.0
C2670 C 0.7721 0.20267 0.78087 0.0
C2671 C 0.74224 0.17014 0.79284 0.0
C2672 C 0.78247 0.22653 0.78192 0.0
C2673 C 0.77502 0.24301 0.79642 0.0
C2674 C 0.75437 0.19524 0.79463 0.0
C2675 C 0.75745 0.23489 0.81017 0.0
C2676 C 0.73001 0.16144 0.81081 0.0
C2677 C 0.73086 0.13214 0.76991 0.0
N2678 N 0.74769 0.21149 0.80896 0.0
N2679 N 0.74236 0.15526 0.77305 0.0
loop_
_geom_bond_atom_site_label_1
_geom_bond_atom_site_label_2
_geom_bond_distance
_geom_bond_site_symmetry_2
_ccdc_geom_bond_type
In0 O1 2.294 . S
In0 O2 2.326 . S
In0 O6 2.266 . S
In0 O7 2.314 1_455 S
In0 O8 2.266 . S
In0 O9 2.326 . S
In0 O11 2.294 . S
In0 O12 2.326 . S
O1 In0 2.294 . S
O1 C10 1.240 . S
O2 In0 2.326 . S
O2 C10 1.252 . S
C3 O6 1.252 1_655 S
C3 O7 1.261 . S
C4 O11 1.240 . S
C4 O12 1.252 . S
C5 O8 1.252 . S
C5 O9 1.260 . S
O6 In0 2.266 . S
O6 C3 1.252 1_455 S
O7 In0 2.314 1_655 S
O7 C3 1.261 . S
O8 In0 2.266 . S
O8 C5 1.252 . S
O9 In0 2.326 . S
O9 C5 1.260 . S
C10 O1 1.240 . S
C10 O2 1.252 . S
O11 In0 2.294 . S
O11 C4 1.240 . S
O12 In0 2.326 . S
O12 C4 1.252 . S
In13 O14 2.294 . S
In13 O15 2.326 . S
In13 O19 2.266 . S
In13 O20 2.326 . S
In13 O21 2.266 . S
In13 O22 2.326 1_455 S
In13 O24 2.294 . S
In13 O25 2.326 . S
O14 In13 2.294 . S
O14 C23 1.240 . S
O15 In13 2.326 . S
O15 C23 1.252 . S
C16 O19 1.252 . S
C16 O20 1.260 . S
C17 O24 1.240 . S
C17 O25 1.252 . S
C18 O21 1.252 1_655 S
C18 O22 1.260 . S
O19 In13 2.266 . S
O19 C16 1.252 . S
O20 In13 2.326 . S
O20 C16 1.260 . S
O21 In13 2.266 . S
O21 C18 1.252 1_455 S
O22 In13 2.326 1_655 S
O22 C18 1.260 . S
C23 O14 1.240 . S
C23 O15 1.252 . S
O24 In13 2.294 . S
O24 C17 1.240 . S
O25 In13 2.326 . S
O25 C17 1.252 . S
In26 O27 2.294 . S
In26 O28 2.326 . S
In26 O32 2.266 . S
In26 O33 2.326 . S
In26 O34 2.266 . S
In26 O35 2.326 . S
In26 O37 2.294 . S
In26 O38 2.326 . S
O27 In26 2.294 . S
O27 C36 1.240 . S
O28 In26 2.326 . S
O28 C36 1.252 . S
C29 O32 1.252 . S
C29 O33 1.260 . S
C30 O37 1.240 . S
C30 O38 1.252 . S
C31 O34 1.252 . S
C31 O35 1.260 . S
O32 In26 2.266 . S
O32 C29 1.252 . S
O33 In26 2.326 . S
O33 C29 1.260 . S
O34 In26 2.266 . S
O34 C31 1.252 . S
O35 In26 2.326 . S
O35 C31 1.260 . S
C36 O27 1.240 . S
C36 O28 1.252 . S
O37 In26 2.294 . S
O37 C30 1.240 . S
O38 In26 2.326 . S
O38 C30 1.252 . S
In39 O40 2.294 . S
In39 O41 2.326 . S
In39 O45 2.266 . S
In39 O46 2.326 . S
In39 O47 2.266 . S
In39 O48 2.326 . S
In39 O50 2.294 . S
In39 O51 2.326 . S
O40 In39 2.294 . S
O40 C49 1.240 . S
O41 In39 2.326 . S
O41 C49 1.252 . S
C42 O45 1.252 . S
C42 O46 1.260 . S
C43 O50 1.240 . S
C43 O51 1.252 . S
C44 O47 1.252 . S
C44 O48 1.260 . S
O45 In39 2.266 . S
O45 C42 1.252 . S
O46 In39 2.326 . S
O46 C42 1.260 . S
O47 In39 2.266 . S
O47 C44 1.252 . S
O48 In39 2.326 . S
O48 C44 1.260 . S
C49 O40 1.240 . S
C49 O41 1.252 . S
O50 In39 2.294 . S
O50 C43 1.240 . S
O51 In39 2.326 . S
O51 C43 1.252 . S
In52 O53 2.294 . S
In52 O54 2.326 . S
In52 O58 2.266 . S
In52 O59 2.326 . S
In52 O60 2.266 . S
In52 O61 2.326 . S
In52 O63 2.294 . S
In52 O64 2.326 . S
O53 In52 2.294 . S
O53 C62 1.240 . S
O54 In52 2.326 . S
O54 C62 1.252 . S
C55 O58 1.252 . S
C55 O59 1.260 . S
C56 O63 1.240 . S
C56 O64 1.252 . S
C57 O60 1.252 . S
C57 O61 1.260 . S
O58 In52 2.266 . S
O58 C55 1.252 . S
O59 In52 2.326 . S
O59 C55 1.260 . S
O60 In52 2.266 . S
O60 C57 1.252 . S
O61 In52 2.326 . S
O61 C57 1.260 . S
C62 O53 1.240 . S
C62 O54 1.252 . S
O63 In52 2.294 . S
O63 C56 1.240 . S
O64 In52 2.326 . S
O64 C56 1.252 . S
In65 O66 2.294 . S
In65 O67 2.326 . S
In65 O71 2.266 . S
In65 O72 2.326 . S
In65 O73 2.266 . S
In65 O74 2.326 . S
In65 O76 2.294 . S
In65 O77 2.326 . S
O66 In65 2.294 . S
O66 C75 1.240 . S
O67 In65 2.326 . S
O67 C75 1.252 . S
C68 O71 1.252 . S
C68 O72 1.260 . S
C69 O76 1.240 . S
C69 O77 1.252 . S
C70 O73 1.252 . S
C70 O74 1.260 . S
O71 In65 2.266 . S
O71 C68 1.252 . S
O72 In65 2.326 . S
O72 C68 1.260 . S
O73 In65 2.266 . S
O73 C70 1.252 . S
O74 In65 2.326 . S
O74 C70 1.260 . S
C75 O66 1.240 . S
C75 O67 1.252 . S
O76 In65 2.294 . S
O76 C69 1.240 . S
O77 In65 2.326 . S
O77 C69 1.252 . S
In78 O79 2.294 . S
In78 O80 2.326 . S
In78 O84 2.266 . S
In78 O85 2.326 . S
In78 O86 2.266 . S
In78 O87 2.326 . S
In78 O89 2.294 . S
In78 O90 2.326 . S
O79 In78 2.294 . S
O79 C88 1.240 . S
O80 In78 2.326 . S
O80 C88 1.252 . S
C81 O84 1.252 . S
C81 O85 1.260 . S
C82 O89 1.240 . S
C82 O90 1.252 . S
C83 O86 1.252 . S
C83 O87 1.260 . S
O84 In78 2.266 . S
O84 C81 1.252 . S
O85 In78 2.326 . S
O85 C81 1.260 . S
O86 In78 2.266 . S
O86 C83 1.252 . S
O87 In78 2.326 . S
O87 C83 1.260 . S
C88 O79 1.240 . S
C88 O80 1.252 . S
O89 In78 2.294 . S
O89 C82 1.240 . S
O90 In78 2.326 . S
O90 C82 1.252 . S
In91 O92 2.296 . S
In91 O93 2.329 1_455 S
In91 O97 2.263 . S
In91 O98 2.323 . S
In91 O99 2.259 1_455 S
In91 O100 2.314 1_455 S
In91 O102 2.302 . S
In91 O103 2.338 . S
O92 In91 2.296 . S
O92 C101 1.234 . S
O93 In91 2.329 1_655 S
O93 C101 1.251 1_655 S
C94 O97 1.252 . S
C94 O98 1.260 . S
C95 O102 1.240 . S
C95 O103 1.252 . S
C96 O99 1.252 . S
C96 O100 1.260 . S
O97 In91 2.263 . S
O97 C94 1.252 . S
O98 In91 2.323 . S
O98 C94 1.260 . S
O99 In91 2.259 1_655 S
O99 C96 1.252 . S
O100 In91 2.314 1_655 S
O100 C96 1.260 . S
C101 O92 1.234 . S
C101 O93 1.251 1_455 S
O102 In91 2.302 . S
O102 C95 1.240 . S
O103 In91 2.338 . S
O103 C95 1.252 . S
In104 O105 2.294 . S
In104 O106 2.326 . S
In104 O110 2.266 . S
In104 O111 2.326 . S
In104 O112 2.266 1_545 S
In104 O113 2.326 1_545 S
In104 O115 2.294 . S
In104 O116 2.326 . S
O105 In104 2.294 . S
O105 C114 1.240 . S
O106 In104 2.326 . S
O106 C114 1.252 . S
C107 O110 1.252 . S
C107 O111 1.260 . S
C108 O115 1.240 . S
C108 O116 1.252 . S
C109 O112 1.252 . S
C109 O113 1.260 . S
O110 In104 2.266 . S
O110 C107 1.252 . S
O111 In104 2.326 . S
O111 C107 1.260 . S
O112 In104 2.266 1_565 S
O112 C109 1.252 . S
O113 In104 2.326 1_565 S
O113 C109 1.260 . S
C114 O105 1.240 . S
C114 O106 1.252 . S
O115 In104 2.294 . S
O115 C108 1.240 . S
O116 In104 2.326 . S
O116 C108 1.252 . S
In117 O118 2.294 . S
In117 O119 2.326 . S
In117 O123 2.266 . S
In117 O124 2.326 . S
In117 O125 2.266 . S
In117 O126 2.326 . S
In117 O128 2.294 . S
In117 O129 2.326 . S
O118 In117 2.294 . S
O118 C127 1.240 . S
O119 In117 2.326 . S
O119 C127 1.252 . S
C120 O123 1.252 . S
C120 O124 1.260 . S
C121 O128 1.240 . S
C121 O129 1.252 . S
C122 O125 1.252 . S
C122 O126 1.260 . S
O123 In117 2.266 . S
O123 C120 1.252 . S
O124 In117 2.326 . S
O124 C120 1.260 . S
O125 In117 2.266 . S
O125 C122 1.252 . S
O126 In117 2.326 . S
O126 C122 1.260 . S
C127 O118 1.240 . S
C127 O119 1.252 . S
O128 In117 2.294 . S
O128 C121 1.240 . S
O129 In117 2.326 . S
O129 C121 1.252 . S
In130 O131 2.294 . S
In130 O132 2.326 . S
In130 O136 2.266 . S
In130 O137 2.326 . S
In130 O138 2.266 . S
In130 O139 2.326 . S
In130 O141 2.294 . S
In130 O142 2.326 . S
O131 In130 2.294 . S
O131 C140 1.240 . S
O132 In130 2.326 . S
O132 C140 1.252 . S
C133 O136 1.252 . S
C133 O137 1.260 . S
C134 O141 1.240 . S
C134 O142 1.252 . S
C135 O138 1.252 . S
C135 O139 1.260 . S
O136 In130 2.266 . S
O136 C133 1.252 . S
O137 In130 2.326 . S
O137 C133 1.260 . S
O138 In130 2.266 . S
O138 C135 1.252 . S
O139 In130 2.326 . S
O139 C135 1.260 . S
C140 O131 1.240 . S
C140 O132 1.252 . S
O141 In130 2.294 . S
O141 C134 1.240 . S
O142 In130 2.326 . S
O142 C134 1.252 . S
In143 O144 2.296 . S
In143 O145 2.329 . S
In143 O149 2.264 1_554 S
In143 O150 2.322 1_554 S
In143 O151 2.258 1_554 S
In143 O152 2.324 1_554 S
In143 O154 2.294 . S
In143 O155 2.321 . S
O144 In143 2.296 . S
O144 C153 1.240 . S
O145 In143 2.329 . S
O145 C153 1.252 . S
C146 O149 1.252 . S
C146 O150 1.260 . S
C147 O154 1.240 . S
C147 O155 1.254 . S
C148 O151 1.252 . S
C148 O152 1.258 . S
O149 In143 2.264 1_556 S
O149 C146 1.252 . S
O150 In143 2.322 1_556 S
O150 C146 1.260 . S
O151 In143 2.258 1_556 S
O151 C148 1.252 . S
O152 In143 2.324 1_556 S
O152 C148 1.258 . S
C153 O144 1.240 . S
C153 O145 1.252 . S
O154 In143 2.294 . S
O154 C147 1.240 . S
O155 In143 2.321 . S
O155 C147 1.254 . S
In156 O157 2.294 . S
In156 O158 2.326 . S
In156 O162 2.266 . S
In156 O163 2.326 1_554 S
In156 O164 2.266 . S
In156 O165 2.326 . S
In156 O167 2.294 . S
In156 O168 2.326 . S
O157 In156 2.294 . S
O157 C166 1.240 . S
O158 In156 2.326 . S
O158 C166 1.252 . S
C159 O162 1.252 1_556 S
C159 O163 1.260 . S
C160 O167 1.240 . S
C160 O168 1.252 . S
C161 O164 1.252 . S
C161 O165 1.260 . S
O162 In156 2.266 . S
O162 C159 1.252 1_554 S
O163 In156 2.326 1_556 S
O163 C159 1.260 . S
O164 In156 2.266 . S
O164 C161 1.252 . S
O165 In156 2.326 . S
O165 C161 1.260 . S
C166 O157 1.240 . S
C166 O158 1.252 . S
O167 In156 2.294 . S
O167 C160 1.240 . S
O168 In156 2.326 . S
O168 C160 1.252 . S
In169 O170 2.294 . S
In169 O171 2.326 . S
In169 O175 2.266 . S
In169 O176 2.326 . S
In169 O177 2.266 . S
In169 O178 2.326 . S
In169 O180 2.294 . S
In169 O181 2.326 . S
O170 In169 2.294 . S
O170 C179 1.240 . S
O171 In169 2.326 . S
O171 C179 1.252 . S
C172 O175 1.252 . S
C172 O176 1.260 . S
C173 O180 1.240 . S
C173 O181 1.252 . S
C174 O177 1.252 . S
C174 O178 1.260 . S
O175 In169 2.266 . S
O175 C172 1.252 . S
O176 In169 2.326 . S
O176 C172 1.260 . S
O177 In169 2.266 . S
O177 C174 1.252 . S
O178 In169 2.326 . S
O178 C174 1.260 . S
C179 O170 1.240 . S
C179 O171 1.252 . S
O180 In169 2.294 . S
O180 C173 1.240 . S
O181 In169 2.326 . S
O181 C173 1.252 . S
In182 O183 2.294 . S
In182 O184 2.326 . S
In182 O188 2.266 . S
In182 O189 2.326 . S
In182 O190 2.266 . S
In182 O191 2.326 . S
In182 O193 2.294 . S
In182 O194 2.326 . S
O183 In182 2.294 . S
O183 C192 1.240 . S
O184 In182 2.326 . S
O184 C192 1.252 . S
C185 O188 1.252 . S
C185 O189 1.260 . S
C186 O193 1.240 . S
C186 O194 1.252 . S
C187 O190 1.252 . S
C187 O191 1.260 . S
O188 In182 2.266 . S
O188 C185 1.252 . S
O189 In182 2.326 . S
O189 C185 1.260 . S
O190 In182 2.266 . S
O190 C187 1.252 . S
O191 In182 2.326 . S
O191 C187 1.260 . S
C192 O183 1.240 . S
C192 O184 1.252 . S
O193 In182 2.294 . S
O193 C186 1.240 . S
O194 In182 2.326 . S
O194 C186 1.252 . S
In195 O196 2.294 . S
In195 O197 2.326 . S
In195 O201 2.266 . S
In195 O202 2.326 . S
In195 O203 2.266 . S
In195 O204 2.326 . S
In195 O206 2.294 . S
In195 O207 2.326 . S
O196 In195 2.294 . S
O196 C205 1.240 . S
O197 In195 2.326 . S
O197 C205 1.252 . S
C198 O201 1.252 . S
C198 O202 1.260 . S
C199 O206 1.240 . S
C199 O207 1.252 . S
C200 O203 1.252 . S
C200 O204 1.260 . S
O201 In195 2.266 . S
O201 C198 1.252 . S
O202 In195 2.326 . S
O202 C198 1.260 . S
O203 In195 2.266 . S
O203 C200 1.252 . S
O204 In195 2.326 . S
O204 C200 1.260 . S
C205 O196 1.240 . S
C205 O197 1.252 . S
O206 In195 2.294 . S
O206 C199 1.240 . S
O207 In195 2.326 . S
O207 C199 1.252 . S
In208 O209 2.294 . S
In208 O210 2.326 . S
In208 O214 2.266 . S
In208 O215 2.326 . S
In208 O216 2.251 1_545 S
In208 O217 2.326 1_545 S
In208 O219 2.294 . S
In208 O220 2.326 . S
O209 In208 2.294 . S
O209 C218 1.240 . S
O210 In208 2.326 . S
O210 C218 1.252 . S
C211 O214 1.252 . S
C211 O215 1.260 . S
C212 O219 1.240 . S
C212 O220 1.252 . S
C213 O216 1.274 . S
C213 O217 1.260 . S
O214 In208 2.266 . S
O214 C211 1.252 . S
O215 In208 2.326 . S
O215 C211 1.260 . S
O216 In208 2.251 1_565 S
O216 C213 1.274 . S
O217 In208 2.326 1_565 S
O217 C213 1.260 . S
C218 O209 1.240 . S
C218 O210 1.252 . S
O219 In208 2.294 . S
O219 C212 1.240 . S
O220 In208 2.326 . S
O220 C212 1.252 . S
In221 O222 2.294 . S
In221 O223 2.326 . S
In221 O227 2.266 . S
In221 O228 2.326 . S
In221 O229 2.266 . S
In221 O230 2.326 . S
In221 O232 2.294 . S
In221 O233 2.326 . S
O222 In221 2.294 . S
O222 C231 1.240 . S
O223 In221 2.326 . S
O223 C231 1.252 . S
C224 O227 1.252 . S
C224 O228 1.260 . S
C225 O232 1.240 . S
C225 O233 1.252 . S
C226 O229 1.252 . S
C226 O230 1.260 . S
O227 In221 2.266 . S
O227 C224 1.252 . S
O228 In221 2.326 . S
O228 C224 1.260 . S
O229 In221 2.266 . S
O229 C226 1.252 . S
O230 In221 2.326 . S
O230 C226 1.260 . S
C231 O222 1.240 . S
C231 O223 1.252 . S
O232 In221 2.294 . S
O232 C225 1.240 . S
O233 In221 2.326 . S
O233 C225 1.252 . S
In234 O235 2.294 . S
In234 O236 2.326 . S
In234 O240 2.266 . S
In234 O241 2.326 . S
In234 O242 2.266 . S
In234 O243 2.326 . S
In234 O245 2.294 . S
In234 O246 2.326 . S
O235 In234 2.294 . S
O235 C244 1.240 . S
O236 In234 2.326 . S
O236 C244 1.252 . S
C237 O240 1.252 . S
C237 O241 1.260 . S
C238 O245 1.240 . S
C238 O246 1.252 . S
C239 O242 1.252 . S
C239 O243 1.260 . S
O240 In234 2.266 . S
O240 C237 1.252 . S
O241 In234 2.326 . S
O241 C237 1.260 . S
O242 In234 2.266 . S
O242 C239 1.252 . S
O243 In234 2.326 . S
O243 C239 1.260 . S
C244 O235 1.240 . S
C244 O236 1.252 . S
O245 In234 2.294 . S
O245 C238 1.240 . S
O246 In234 2.326 . S
O246 C238 1.252 . S
In247 O248 2.294 . S
In247 O249 2.326 . S
In247 O253 2.266 . S
In247 O254 2.326 . S
In247 O255 2.266 . S
In247 O256 2.326 . S
In247 O258 2.294 . S
In247 O259 2.326 . S
O248 In247 2.294 . S
O248 C257 1.240 . S
O249 In247 2.326 . S
O249 C257 1.252 . S
C250 O253 1.252 . S
C250 O254 1.260 . S
C251 O258 1.240 . S
C251 O259 1.252 . S
C252 O255 1.252 . S
C252 O256 1.260 . S
O253 In247 2.266 . S
O253 C250 1.252 . S
O254 In247 2.326 . S
O254 C250 1.260 . S
O255 In247 2.266 . S
O255 C252 1.252 . S
O256 In247 2.326 . S
O256 C252 1.260 . S
C257 O248 1.240 . S
C257 O249 1.252 . S
O258 In247 2.294 . S
O258 C251 1.240 . S
O259 In247 2.326 . S
O259 C251 1.252 . S
In260 O261 2.294 . S
In260 O262 2.326 . S
In260 O266 2.266 . S
In260 O267 2.326 . S
In260 O268 2.266 . S
In260 O269 2.326 1_554 S
In260 O271 2.294 . S
In260 O272 2.326 . S
O261 In260 2.294 . S
O261 C270 1.240 . S
O262 In260 2.326 . S
O262 C270 1.252 . S
C263 O266 1.252 . S
C263 O267 1.260 . S
C264 O271 1.240 . S
C264 O272 1.252 . S
C265 O268 1.252 1_556 S
C265 O269 1.260 . S
O266 In260 2.266 . S
O266 C263 1.252 . S
O267 In260 2.326 . S
O267 C263 1.260 . S
O268 In260 2.266 . S
O268 C265 1.252 1_554 S
O269 In260 2.326 1_556 S
O269 C265 1.260 . S
C270 O261 1.240 . S
C270 O262 1.252 . S
O271 In260 2.294 . S
O271 C264 1.240 . S
O272 In260 2.326 . S
O272 C264 1.252 . S
In273 O274 2.294 . S
In273 O275 2.326 . S
In273 O279 2.266 . S
In273 O280 2.326 . S
In273 O281 2.266 . S
In273 O282 2.326 . S
In273 O284 2.294 . S
In273 O285 2.326 . S
O274 In273 2.294 . S
O274 C283 1.240 . S
O275 In273 2.326 . S
O275 C283 1.252 . S
C276 O279 1.252 . S
C276 O280 1.260 . S
C277 O284 1.240 . S
C277 O285 1.252 . S
C278 O281 1.252 . S
C278 O282 1.260 . S
O279 In273 2.266 . S
O279 C276 1.252 . S
O280 In273 2.326 . S
O280 C276 1.260 . S
O281 In273 2.266 . S
O281 C278 1.252 . S
O282 In273 2.326 . S
O282 C278 1.260 . S
C283 O274 1.240 . S
C283 O275 1.252 . S
O284 In273 2.294 . S
O284 C277 1.240 . S
O285 In273 2.326 . S
O285 C277 1.252 . S
In286 O287 2.294 . S
In286 O288 2.326 . S
In286 O292 2.266 . S
In286 O293 2.326 . S
In286 O294 2.266 . S
In286 O295 2.326 . S
In286 O297 2.294 . S
In286 O298 2.326 . S
O287 In286 2.294 . S
O287 C296 1.240 . S
O288 In286 2.326 . S
O288 C296 1.252 . S
C289 O292 1.252 . S
C289 O293 1.260 . S
C290 O297 1.240 . S
C290 O298 1.252 . S
C291 O294 1.252 . S
C291 O295 1.260 . S
O292 In286 2.266 . S
O292 C289 1.252 . S
O293 In286 2.326 . S
O293 C289 1.260 . S
O294 In286 2.266 . S
O294 C291 1.252 . S
O295 In286 2.326 . S
O295 C291 1.260 . S
C296 O287 1.240 . S
C296 O288 1.252 . S
O297 In286 2.294 . S
O297 C290 1.240 . S
O298 In286 2.326 . S
O298 C290 1.252 . S
In299 O300 2.294 . S
In299 O301 2.326 . S
In299 O305 2.266 . S
In299 O306 2.326 . S
In299 O307 2.266 . S
In299 O308 2.326 . S
In299 O310 2.294 . S
In299 O311 2.326 . S
O300 In299 2.294 . S
O300 C309 1.240 . S
O301 In299 2.326 . S
O301 C309 1.252 . S
C302 O305 1.252 . S
C302 O306 1.260 . S
C303 O310 1.240 . S
C303 O311 1.252 . S
C304 O307 1.252 . S
C304 O308 1.260 . S
O305 In299 2.266 . S
O305 C302 1.252 . S
O306 In299 2.326 . S
O306 C302 1.260 . S
O307 In299 2.266 . S
O307 C304 1.252 . S
O308 In299 2.326 . S
O308 C304 1.260 . S
C309 O300 1.240 . S
C309 O301 1.252 . S
O310 In299 2.294 . S
O310 C303 1.240 . S
O311 In299 2.326 . S
O311 C303 1.252 . S
Dy312 O315 2.307 . S
Dy312 O317 2.395 . S
Dy312 O318 2.379 . S
Dy312 O320 2.339 . S
Dy312 O322 2.298 . S
Dy312 O326 2.275 . S
Dy312 C334 2.738 . S
Dy313 O316 2.298 . S
Dy313 O319 2.275 . S
Dy313 O321 2.307 . S
Dy313 O323 2.395 1_455 S
Dy313 O324 2.379 1_455 S
Dy313 O327 2.339 1_554 S
Dy313 C343 2.738 1_455 S
C314 O326 1.254 . S
C314 O327 1.257 1_554 S
O315 Dy312 2.307 . S
O315 C325 1.266 . S
O316 Dy313 2.298 . S
O316 C325 1.236 . S
O317 Dy312 2.395 . S
O317 C334 1.255 . S
O318 Dy312 2.379 . S
O318 C334 1.249 . S
O319 Dy313 2.275 . S
O319 C335 1.254 . S
O320 Dy312 2.339 . S
O320 C335 1.257 . S
O321 Dy313 2.307 . S
O321 C336 1.266 . S
O322 Dy312 2.298 . S
O322 C336 1.236 . S
O323 Dy313 2.395 1_655 S
O323 C343 1.255 . S
O324 Dy313 2.379 1_655 S
O324 C343 1.249 . S
C325 O315 1.266 . S
C325 O316 1.236 . S
O326 Dy312 2.275 . S
O326 C314 1.254 . S
O327 Dy313 2.339 1_556 S
O327 C314 1.257 1_556 S
C328 C331 1.344 . S
C328 C332 1.328 . S
C328 C334 1.516 . S
C329 C330 1.304 . S
C329 C333 1.323 . S
C330 C329 1.304 . S
C330 C331 1.371 . S
C330 H344 0.930 . S
C331 C328 1.344 . S
C331 C330 1.371 . S
C331 H345 0.931 . S
C332 C328 1.328 . S
C332 C333 1.433 . S
C332 H346 0.931 . S
C333 C329 1.323 . S
C333 C332 1.433 . S
C333 H347 0.933 . S
C334 Dy312 2.738 . S
C334 O317 1.255 . S
C334 O318 1.249 . S
C334 C328 1.516 . S
C335 O319 1.254 . S
C335 O320 1.257 . S
C336 O321 1.266 . S
C336 O322 1.236 . S
C337 C340 1.344 . S
C337 C341 1.328 . S
C337 C343 1.516 . S
C338 C339 1.304 . S
C338 C342 1.323 . S
C339 C338 1.304 . S
C339 C340 1.371 . S
C339 H348 0.930 . S
C340 C337 1.344 . S
C340 C339 1.371 . S
C340 H349 0.931 . S
C341 C337 1.328 . S
C341 C342 1.433 . S
C341 H350 0.931 1_554 S
C342 C338 1.323 . S
C342 C341 1.433 . S
C342 H351 0.933 1_554 S
C343 Dy313 2.738 1_655 S
C343 O323 1.255 . S
C343 O324 1.249 . S
C343 C337 1.516 . S
H344 C330 0.930 . S
H345 C331 0.931 . S
H346 C332 0.931 . S
H347 C333 0.933 . S
H348 C339 0.930 . S
H349 C340 0.931 . S
H350 C341 0.931 1_556 S
H351 C342 0.933 1_556 S
Dy352 O355 2.307 . S
Dy352 O357 2.395 . S
Dy352 O358 2.379 . S
Dy352 O360 2.339 . S
Dy352 O362 2.298 . S
Dy352 O366 2.275 . S
Dy352 C374 2.738 . S
Dy353 O356 2.298 . S
Dy353 O359 2.275 . S
Dy353 O361 2.307 . S
Dy353 O363 2.395 . S
Dy353 O364 2.379 . S
Dy353 O367 2.339 . S
Dy353 C383 2.738 . S
C354 O366 1.254 . S
C354 O367 1.257 . S
O355 Dy352 2.307 . S
O355 C365 1.266 . S
O356 Dy353 2.298 . S
O356 C365 1.236 . S
O357 Dy352 2.395 . S
O357 C374 1.255 . S
O358 Dy352 2.379 . S
O358 C374 1.249 . S
O359 Dy353 2.275 . S
O359 C375 1.254 . S
O360 Dy352 2.339 . S
O360 C375 1.257 . S
O361 Dy353 2.307 . S
O361 C376 1.266 . S
O362 Dy352 2.298 . S
O362 C376 1.236 . S
O363 Dy353 2.395 . S
O363 C383 1.255 . S
O364 Dy353 2.379 . S
O364 C383 1.249 . S
C365 O355 1.266 . S
C365 O356 1.236 . S
O366 Dy352 2.275 . S
O366 C354 1.254 . S
O367 Dy353 2.339 . S
O367 C354 1.257 . S
C368 C371 1.344 . S
C368 C372 1.328 . S
C368 C374 1.516 . S
C369 C370 1.304 . S
C369 C373 1.323 . S
C370 C369 1.304 . S
C370 C371 1.371 . S
C370 H384 0.930 . S
C371 C368 1.344 . S
C371 C370 1.371 . S
C371 H385 0.931 . S
C372 C368 1.328 . S
C372 C373 1.433 . S
C372 H386 0.931 . S
C373 C369 1.323 . S
C373 C372 1.433 . S
C373 H387 0.933 . S
C374 Dy352 2.738 . S
C374 O357 1.255 . S
C374 O358 1.249 . S
C374 C368 1.516 . S
C375 O359 1.254 . S
C375 O360 1.257 . S
C376 O361 1.266 . S
C376 O362 1.236 . S
C377 C380 1.344 . S
C377 C381 1.328 . S
C377 C383 1.516 . S
C378 C379 1.304 . S
C378 C382 1.323 . S
C379 C378 1.304 . S
C379 C380 1.371 . S
C379 H388 0.930 . S
C380 C377 1.344 . S
C380 C379 1.371 . S
C380 H389 0.931 . S
C381 C377 1.328 . S
C381 C382 1.433 . S
C381 H390 0.931 . S
C382 C378 1.323 . S
C382 C381 1.433 . S
C382 H391 0.933 . S
C383 Dy353 2.738 . S
C383 O363 1.255 . S
C383 O364 1.249 . S
C383 C377 1.516 . S
H384 C370 0.930 . S
H385 C371 0.931 . S
H386 C372 0.931 . S
H387 C373 0.933 . S
H388 C379 0.930 . S
H389 C380 0.931 . S
H390 C381 0.931 . S
H391 C382 0.933 . S
Dy392 O395 2.307 1_545 S
Dy392 O397 2.395 . S
Dy392 O398 2.379 . S
Dy392 O400 2.339 . S
Dy392 O402 2.298 . S
Dy392 O406 2.275 . S
Dy392 C414 2.738 . S
Dy393 O396 2.298 1_545 S
Dy393 O399 2.275 . S
Dy393 O401 2.307 . S
Dy393 O403 2.395 . S
Dy393 O404 2.379 . S
Dy393 O407 2.339 . S
Dy393 C423 2.738 . S
C394 O406 1.254 . S
C394 O407 1.257 . S
O395 Dy392 2.307 1_565 S
O395 C405 1.266 . S
O396 Dy393 2.298 1_565 S
O396 C405 1.236 . S
O397 Dy392 2.395 . S
O397 C414 1.255 . S
O398 Dy392 2.379 . S
O398 C414 1.249 . S
O399 Dy393 2.275 . S
O399 C415 1.254 . S
O400 Dy392 2.339 . S
O400 C415 1.257 . S
O401 Dy393 2.307 . S
O401 C416 1.266 . S
O402 Dy392 2.298 . S
O402 C416 1.236 . S
O403 Dy393 2.395 . S
O403 C423 1.255 . S
O404 Dy393 2.379 . S
O404 C423 1.249 . S
C405 O395 1.266 . S
C405 O396 1.236 . S
O406 Dy392 2.275 . S
O406 C394 1.254 . S
O407 Dy393 2.339 . S
O407 C394 1.257 . S
C408 C411 1.344 . S
C408 C412 1.328 . S
C408 C414 1.516 . S
C409 C410 1.304 . S
C409 C413 1.323 . S
C410 C409 1.304 . S
C410 C411 1.371 . S
C410 H424 0.930 . S
C411 C408 1.344 . S
C411 C410 1.371 . S
C411 H425 0.931 . S
C412 C408 1.328 . S
C412 C413 1.433 . S
C412 H426 0.931 . S
C413 C409 1.323 . S
C413 C412 1.433 . S
C413 H427 0.933 . S
C414 Dy392 2.738 . S
C414 O397 1.255 . S
C414 O398 1.249 . S
C414 C408 1.516 . S
C415 O399 1.254 . S
C415 O400 1.257 . S
C416 O401 1.266 . S
C416 O402 1.236 . S
C417 C420 1.344 . S
C417 C421 1.328 . S
C417 C423 1.516 1_565 S
C418 C419 1.304 . S
C418 C422 1.323 . S
C419 C418 1.304 . S
C419 C420 1.371 . S
C419 H428 0.930 . S
C420 C417 1.344 . S
C420 C419 1.371 . S
C420 H429 0.931 . S
C421 C417 1.328 . S
C421 C422 1.433 . S
C421 H430 0.955 . S
C422 C418 1.323 . S
C422 C421 1.433 . S
C422 H431 0.933 . S
C423 Dy393 2.738 . S
C423 O403 1.255 . S
C423 O404 1.249 . S
C423 C417 1.516 1_545 S
H424 C410 0.930 . S
H425 C411 0.931 . S
H426 C412 0.931 . S
H427 C413 0.933 . S
H428 C419 0.930 . S
H429 C420 0.931 . S
H430 C421 0.955 . S
H431 C422 0.933 . S
Dy432 O435 2.307 . S
Dy432 O437 2.395 . S
Dy432 O438 2.379 . S
Dy432 O440 2.339 . S
Dy432 O442 2.298 . S
Dy432 O446 2.275 . S
Dy432 C454 2.738 . S
Dy433 O436 2.298 . S
Dy433 O439 2.275 . S
Dy433 O441 2.307 . S
Dy433 O443 2.395 . S
Dy433 O444 2.379 . S
Dy433 O447 2.339 . S
Dy433 C463 2.738 . S
C434 O446 1.254 . S
C434 O447 1.257 . S
O435 Dy432 2.307 . S
O435 C445 1.266 . S
O436 Dy433 2.298 . S
O436 C445 1.236 . S
O437 Dy432 2.395 . S
O437 C454 1.255 . S
O438 Dy432 2.379 . S
O438 C454 1.249 . S
O439 Dy433 2.275 . S
O439 C455 1.254 . S
O440 Dy432 2.339 . S
O440 C455 1.257 . S
O441 Dy433 2.307 . S
O441 C456 1.266 . S
O442 Dy432 2.298 . S
O442 C456 1.236 . S
O443 Dy433 2.395 . S
O443 C463 1.255 . S
O444 Dy433 2.379 . S
O444 C463 1.249 . S
C445 O435 1.266 . S
C445 O436 1.236 . S
O446 Dy432 2.275 . S
O446 C434 1.254 . S
O447 Dy433 2.339 . S
O447 C434 1.257 . S
C448 C451 1.344 . S
C448 C452 1.328 . S
C448 C454 1.516 . S
C449 C450 1.304 . S
C449 C453 1.323 . S
C450 C449 1.304 . S
C450 C451 1.371 . S
C450 H464 0.930 . S
C451 C448 1.344 . S
C451 C450 1.371 . S
C451 H465 0.931 . S
C452 C448 1.328 . S
C452 C453 1.433 . S
C452 H466 0.931 . S
C453 C449 1.323 . S
C453 C452 1.433 . S
C453 H467 0.933 . S
C454 Dy432 2.738 . S
C454 O437 1.255 . S
C454 O438 1.249 . S
C454 C448 1.516 . S
C455 O439 1.254 . S
C455 O440 1.257 . S
C456 O441 1.266 . S
C456 O442 1.236 . S
C457 C460 1.344 . S
C457 C461 1.328 . S
C457 C463 1.516 . S
C458 C459 1.304 . S
C458 C462 1.323 . S
C459 C458 1.304 . S
C459 C460 1.371 . S
C459 H468 0.930 . S
C460 C457 1.344 . S
C460 C459 1.371 . S
C460 H469 0.931 . S
C461 C457 1.328 . S
C461 C462 1.433 . S
C461 H470 0.931 . S
C462 C458 1.323 . S
C462 C461 1.433 . S
C462 H471 0.933 . S
C463 Dy433 2.738 . S
C463 O443 1.255 . S
C463 O444 1.249 . S
C463 C457 1.516 . S
H464 C450 0.930 . S
H465 C451 0.931 . S
H466 C452 0.931 . S
H467 C453 0.933 . S
H468 C459 0.930 . S
H469 C460 0.931 . S
H470 C461 0.931 . S
H471 C462 0.933 . S
Dy472 O475 2.307 . S
Dy472 O477 2.395 1_545 S
Dy472 O478 2.379 1_545 S
Dy472 O480 2.339 . S
Dy472 O482 2.298 . S
Dy472 O486 2.275 . S
Dy472 C494 2.738 1_545 S
Dy473 O476 2.298 . S
Dy473 O479 2.275 . S
Dy473 O481 2.307 . S
Dy473 O483 2.395 . S
Dy473 O484 2.379 . S
Dy473 O487 2.339 1_455 S
Dy473 C503 2.738 . S
C474 O486 1.215 1_655 S
C474 O487 1.273 . S
O475 Dy472 2.307 . S
O475 C485 1.266 . S
O476 Dy473 2.298 . S
O476 C485 1.236 . S
O477 Dy472 2.395 1_565 S
O477 C494 1.255 . S
O478 Dy472 2.379 1_565 S
O478 C494 1.249 . S
O479 Dy473 2.275 . S
O479 C495 1.254 . S
O480 Dy472 2.339 . S
O480 C495 1.257 . S
O481 Dy473 2.307 . S
O481 C496 1.266 . S
O482 Dy472 2.298 . S
O482 C496 1.236 . S
O483 Dy473 2.395 . S
O483 C503 1.255 . S
O484 Dy473 2.379 . S
O484 C503 1.249 . S
C485 O475 1.266 . S
C485 O476 1.236 . S
O486 Dy472 2.275 . S
O486 C474 1.215 1_455 S
O487 Dy473 2.339 1_655 S
O487 C474 1.273 . S
C488 C491 1.344 . S
C488 C492 1.328 . S
C488 C494 1.516 . S
C489 C490 1.304 . S
C489 C493 1.323 . S
C490 C489 1.304 . S
C490 C491 1.371 . S
C490 H504 0.930 . S
C491 C488 1.344 . S
C491 C490 1.371 . S
C491 H505 0.931 . S
C492 C488 1.328 . S
C492 C493 1.433 . S
C492 H506 0.931 . S
C493 C489 1.323 . S
C493 C492 1.433 . S
C493 H507 0.933 . S
C494 Dy472 2.738 1_565 S
C494 O477 1.255 . S
C494 O478 1.249 . S
C494 C488 1.516 . S
C495 O479 1.254 . S
C495 O480 1.257 . S
C496 O481 1.266 . S
C496 O482 1.236 . S
C497 C500 1.344 . S
C497 C501 1.328 . S
C497 C503 1.516 . S
C498 C499 1.304 . S
C498 C502 1.323 . S
C499 C498 1.304 . S
C499 C500 1.371 . S
C499 H508 0.930 . S
C500 C497 1.344 . S
C500 C499 1.371 . S
C500 H509 0.931 . S
C501 C497 1.328 . S
C501 C502 1.433 . S
C501 H510 0.931 1_455 S
C502 C498 1.323 . S
C502 C501 1.433 . S
C502 H511 0.933 1_455 S
C503 Dy473 2.738 . S
C503 O483 1.255 . S
C503 O484 1.249 . S
C503 C497 1.516 . S
H504 C490 0.930 . S
H505 C491 0.931 . S
H506 C492 0.931 . S
H507 C493 0.933 . S
H508 C499 0.930 . S
H509 C500 0.931 . S
H510 C501 0.931 1_655 S
H511 C502 0.933 1_655 S
Dy512 O515 2.307 . S
Dy512 O517 2.395 . S
Dy512 O518 2.379 . S
Dy512 O520 2.339 . S
Dy512 O522 2.298 . S
Dy512 O526 2.275 . S
Dy512 C534 2.738 . S
Dy513 O516 2.298 . S
Dy513 O519 2.275 . S
Dy513 O521 2.307 . S
Dy513 O523 2.395 . S
Dy513 O524 2.379 . S
Dy513 O527 2.339 . S
Dy513 C543 2.738 . S
C514 O526 1.254 . S
C514 O527 1.257 . S
O515 Dy512 2.307 . S
O515 C525 1.266 . S
O516 Dy513 2.298 . S
O516 C525 1.236 . S
O517 Dy512 2.395 . S
O517 C534 1.255 . S
O518 Dy512 2.379 . S
O518 C534 1.249 . S
O519 Dy513 2.275 . S
O519 C535 1.254 . S
O520 Dy512 2.339 . S
O520 C535 1.257 . S
O521 Dy513 2.307 . S
O521 C536 1.266 . S
O522 Dy512 2.298 . S
O522 C536 1.236 . S
O523 Dy513 2.395 . S
O523 C543 1.255 . S
O524 Dy513 2.379 . S
O524 C543 1.249 . S
C525 O515 1.266 . S
C525 O516 1.236 . S
O526 Dy512 2.275 . S
O526 C514 1.254 . S
O527 Dy513 2.339 . S
O527 C514 1.257 . S
C528 C531 1.344 . S
C528 C532 1.328 . S
C528 C534 1.516 . S
C529 C530 1.304 . S
C529 C533 1.323 . S
C530 C529 1.304 . S
C530 C531 1.371 . S
C530 H544 0.930 . S
C531 C528 1.344 . S
C531 C530 1.371 . S
C531 H545 0.931 . S
C532 C528 1.328 . S
C532 C533 1.433 . S
C532 H546 0.931 . S
C533 C529 1.323 . S
C533 C532 1.433 . S
C533 H547 0.933 . S
C534 Dy512 2.738 . S
C534 O517 1.255 . S
C534 O518 1.249 . S
C534 C528 1.516 . S
C535 O519 1.254 . S
C535 O520 1.257 . S
C536 O521 1.266 . S
C536 O522 1.236 . S
C537 C540 1.344 . S
C537 C541 1.328 . S
C537 C543 1.516 . S
C538 C539 1.304 . S
C538 C542 1.323 . S
C539 C538 1.304 . S
C539 C540 1.371 . S
C539 H548 0.930 . S
C540 C537 1.344 . S
C540 C539 1.371 . S
C540 H549 0.931 . S
C541 C537 1.328 . S
C541 C542 1.433 . S
C541 H550 0.931 . S
C542 C538 1.323 . S
C542 C541 1.433 . S
C542 H551 0.933 . S
C543 Dy513 2.738 . S
C543 O523 1.255 . S
C543 O524 1.249 . S
C543 C537 1.516 . S
H544 C530 0.930 . S
H545 C531 0.931 . S
H546 C532 0.931 . S
H547 C533 0.933 . S
H548 C539 0.930 . S
H549 C540 0.931 . S
H550 C541 0.931 . S
H551 C542 0.933 . S
Dy552 O555 2.307 1_556 S
Dy552 O557 2.395 . S
Dy552 O558 2.379 . S
Dy552 O560 2.339 1_556 S
Dy552 O562 2.298 1_556 S
Dy552 O566 2.275 1_556 S
Dy552 C574 2.738 . S
Dy553 O556 2.298 . S
Dy553 O559 2.275 . S
Dy553 O561 2.307 . S
Dy553 O563 2.395 . S
Dy553 O564 2.379 . S
Dy553 O567 2.339 . S
Dy553 C583 2.738 . S
C554 O566 1.254 . S
C554 O567 1.257 . S
O555 Dy552 2.307 1_554 S
O555 C565 1.266 . S
O556 Dy553 2.298 . S
O556 C565 1.236 . S
O557 Dy552 2.395 . S
O557 C574 1.255 . S
O558 Dy552 2.379 . S
O558 C574 1.249 . S
O559 Dy553 2.275 . S
O559 C575 1.254 . S
O560 Dy552 2.339 1_554 S
O560 C575 1.257 . S
O561 Dy553 2.307 . S
O561 C576 1.266 . S
O562 Dy552 2.298 1_554 S
O562 C576 1.236 . S
O563 Dy553 2.395 . S
O563 C583 1.255 . S
O564 Dy553 2.379 . S
O564 C583 1.249 . S
C565 O555 1.266 . S
C565 O556 1.236 . S
O566 Dy552 2.275 1_554 S
O566 C554 1.254 . S
O567 Dy553 2.339 . S
O567 C554 1.257 . S
C568 C571 1.344 . S
C568 C572 1.328 . S
C568 C574 1.516 . S
C569 C570 1.304 . S
C569 C573 1.323 . S
C570 C569 1.304 . S
C570 C571 1.371 . S
C570 H584 0.930 . S
C571 C568 1.344 . S
C571 C570 1.371 . S
C571 H585 0.931 . S
C572 C568 1.328 . S
C572 C573 1.433 . S
C572 H586 0.931 . S
C573 C569 1.323 . S
C573 C572 1.433 . S
C573 H587 0.933 . S
C574 Dy552 2.738 . S
C574 O557 1.255 . S
C574 O558 1.249 . S
C574 C568 1.516 . S
C575 O559 1.254 . S
C575 O560 1.257 . S
C576 O561 1.266 . S
C576 O562 1.236 . S
C577 C580 1.344 . S
C577 C581 1.328 1_545 S
C577 C583 1.516 . S
C578 C579 1.304 . S
C578 C582 1.323 1_545 S
C579 C578 1.304 . S
C579 C580 1.371 . S
C579 H588 0.930 . S
C580 C577 1.344 . S
C580 C579 1.371 . S
C580 H589 0.931 . S
C581 C577 1.328 1_565 S
C581 C582 1.433 . S
C581 H590 0.931 . S
C582 C578 1.323 1_565 S
C582 C581 1.433 . S
C582 H591 0.933 . S
C583 Dy553 2.738 . S
C583 O563 1.255 . S
C583 O564 1.249 . S
C583 C577 1.516 . S
H584 C570 0.930 . S
H585 C571 0.931 . S
H586 C572 0.931 . S
H587 C573 0.933 . S
H588 C579 0.930 . S
H589 C580 0.931 . S
H590 C581 0.931 . S
H591 C582 0.933 . S
Dy592 O595 2.307 . S
Dy592 O597 2.395 . S
Dy592 O598 2.379 . S
Dy592 O600 2.339 . S
Dy592 O602 2.298 . S
Dy592 O606 2.275 . S
Dy592 C614 2.738 . S
Dy593 O596 2.298 . S
Dy593 O599 2.275 . S
Dy593 O601 2.307 . S
Dy593 O603 2.395 . S
Dy593 O604 2.379 . S
Dy593 O607 2.339 . S
Dy593 C623 2.738 . S
C594 O606 1.254 . S
C594 O607 1.257 . S
O595 Dy592 2.307 . S
O595 C605 1.266 . S
O596 Dy593 2.298 . S
O596 C605 1.236 . S
O597 Dy592 2.395 . S
O597 C614 1.255 . S
O598 Dy592 2.379 . S
O598 C614 1.249 . S
O599 Dy593 2.275 . S
O599 C615 1.254 . S
O600 Dy592 2.339 . S
O600 C615 1.257 . S
O601 Dy593 2.307 . S
O601 C616 1.266 . S
O602 Dy592 2.298 . S
O602 C616 1.236 . S
O603 Dy593 2.395 . S
O603 C623 1.255 . S
O604 Dy593 2.379 . S
O604 C623 1.249 . S
C605 O595 1.266 . S
C605 O596 1.236 . S
O606 Dy592 2.275 . S
O606 C594 1.254 . S
O607 Dy593 2.339 . S
O607 C594 1.257 . S
C608 C611 1.344 . S
C608 C612 1.328 . S
C608 C614 1.516 . S
C609 C610 1.304 . S
C609 C613 1.323 . S
C610 C609 1.304 . S
C610 C611 1.371 . S
C610 H624 0.930 . S
C611 C608 1.344 . S
C611 C610 1.371 . S
C611 H625 0.931 . S
C612 C608 1.328 . S
C612 C613 1.433 . S
C612 H626 0.931 . S
C613 C609 1.323 . S
C613 C612 1.433 . S
C613 H627 0.933 . S
C614 Dy592 2.738 . S
C614 O597 1.255 . S
C614 O598 1.249 . S
C614 C608 1.516 . S
C615 O599 1.254 . S
C615 O600 1.257 . S
C616 O601 1.266 . S
C616 O602 1.236 . S
C617 C620 1.344 . S
C617 C621 1.328 . S
C617 C623 1.516 . S
C618 C619 1.304 . S
C618 C622 1.323 . S
C619 C618 1.304 . S
C619 C620 1.371 . S
C619 H628 0.930 . S
C620 C617 1.344 . S
C620 C619 1.371 . S
C620 H629 0.931 . S
C621 C617 1.328 . S
C621 C622 1.433 . S
C621 H630 0.931 . S
C622 C618 1.323 . S
C622 C621 1.433 . S
C622 H631 0.933 . S
C623 Dy593 2.738 . S
C623 O603 1.255 . S
C623 O604 1.249 . S
C623 C617 1.516 . S
H624 C610 0.930 . S
H625 C611 0.931 . S
H626 C612 0.931 . S
H627 C613 0.933 . S
H628 C619 0.930 . S
H629 C620 0.931 . S
H630 C621 0.931 . S
H631 C622 0.933 . S
Dy632 O635 2.307 1_554 S
Dy632 O637 2.395 . S
Dy632 O638 2.379 . S
Dy632 O640 2.339 . S
Dy632 O642 2.298 . S
Dy632 O646 2.275 . S
Dy632 C654 2.738 . S
Dy633 O636 2.298 1_554 S
Dy633 O639 2.275 . S
Dy633 O641 2.307 . S
Dy633 O643 2.395 . S
Dy633 O644 2.379 . S
Dy633 O647 2.339 . S
Dy633 C663 2.738 . S
C634 O646 1.254 . S
C634 O647 1.257 . S
O635 Dy632 2.307 1_556 S
O635 C645 1.266 . S
O636 Dy633 2.298 1_556 S
O636 C645 1.236 . S
O637 Dy632 2.395 . S
O637 C654 1.255 . S
O638 Dy632 2.379 . S
O638 C654 1.249 . S
O639 Dy633 2.275 . S
O639 C655 1.254 . S
O640 Dy632 2.339 . S
O640 C655 1.257 . S
O641 Dy633 2.307 . S
O641 C656 1.266 . S
O642 Dy632 2.298 . S
O642 C656 1.236 . S
O643 Dy633 2.395 . S
O643 C663 1.255 . S
O644 Dy633 2.379 . S
O644 C663 1.249 . S
C645 O635 1.266 . S
C645 O636 1.236 . S
O646 Dy632 2.275 . S
O646 C634 1.254 . S
O647 Dy633 2.339 . S
O647 C634 1.257 . S
C648 C651 1.344 . S
C648 C652 1.328 . S
C648 C654 1.516 . S
C649 C650 1.304 . S
C649 C653 1.323 . S
C650 C649 1.304 . S
C650 C651 1.371 . S
C650 H664 0.930 . S
C651 C648 1.344 . S
C651 C650 1.371 . S
C651 H665 0.931 . S
C652 C648 1.328 . S
C652 C653 1.433 . S
C652 H666 0.931 . S
C653 C649 1.323 . S
C653 C652 1.433 . S
C653 H667 0.933 . S
C654 Dy632 2.738 . S
C654 O637 1.255 . S
C654 O638 1.249 . S
C654 C648 1.516 . S
C655 O639 1.254 . S
C655 O640 1.257 . S
C656 O641 1.266 . S
C656 O642 1.236 . S
C657 C660 1.344 . S
C657 C661 1.328 . S
C657 C663 1.516 1_556 S
C658 C659 1.304 . S
C658 C662 1.323 . S
C659 C658 1.304 . S
C659 C660 1.371 . S
C659 H668 0.930 . S
C660 C657 1.344 . S
C660 C659 1.371 . S
C660 H669 0.931 . S
C661 C657 1.328 . S
C661 C662 1.433 . S
C661 H670 0.931 . S
C662 C658 1.323 . S
C662 C661 1.433 . S
C662 H671 0.933 . S
C663 Dy633 2.738 . S
C663 O643 1.255 . S
C663 O644 1.249 . S
C663 C657 1.516 1_554 S
H664 C650 0.930 . S
H665 C651 0.931 . S
H666 C652 0.931 . S
H667 C653 0.933 . S
H668 C659 0.930 . S
H669 C660 0.931 . S
H670 C661 0.931 . S
H671 C662 0.933 . S
Dy672 O675 2.307 . S
Dy672 O677 2.395 . S
Dy672 O678 2.379 . S
Dy672 O680 2.339 . S
Dy672 O682 2.298 . S
Dy672 O686 2.275 . S
Dy672 C694 2.738 . S
Dy673 O676 2.298 . S
Dy673 O679 2.275 . S
Dy673 O681 2.307 . S
Dy673 O683 2.395 . S
Dy673 O684 2.379 . S
Dy673 O687 2.339 . S
Dy673 C703 2.738 . S
C674 O686 1.254 . S
C674 O687 1.257 . S
O675 Dy672 2.307 . S
O675 C685 1.266 . S
O676 Dy673 2.298 . S
O676 C685 1.236 . S
O677 Dy672 2.395 . S
O677 C694 1.255 . S
O678 Dy672 2.379 . S
O678 C694 1.249 . S
O679 Dy673 2.275 . S
O679 C695 1.254 . S
O680 Dy672 2.339 . S
O680 C695 1.257 . S
O681 Dy673 2.307 . S
O681 C696 1.266 . S
O682 Dy672 2.298 . S
O682 C696 1.236 . S
O683 Dy673 2.395 . S
O683 C703 1.255 . S
O684 Dy673 2.379 . S
O684 C703 1.249 . S
C685 O675 1.266 . S
C685 O676 1.236 . S
O686 Dy672 2.275 . S
O686 C674 1.254 . S
O687 Dy673 2.339 . S
O687 C674 1.257 . S
C688 C691 1.344 . S
C688 C692 1.328 . S
C688 C694 1.516 . S
C689 C690 1.304 . S
C689 C693 1.323 . S
C690 C689 1.304 . S
C690 C691 1.371 . S
C690 H704 0.930 . S
C691 C688 1.344 . S
C691 C690 1.371 . S
C691 H705 0.931 . S
C692 C688 1.328 . S
C692 C693 1.433 . S
C692 H706 0.931 . S
C693 C689 1.323 . S
C693 C692 1.433 . S
C693 H707 0.933 . S
C694 Dy672 2.738 . S
C694 O677 1.255 . S
C694 O678 1.249 . S
C694 C688 1.516 . S
C695 O679 1.254 . S
C695 O680 1.257 . S
C696 O681 1.266 . S
C696 O682 1.236 . S
C697 C700 1.344 . S
C697 C701 1.328 . S
C697 C703 1.516 . S
C698 C699 1.304 . S
C698 C702 1.323 . S
C699 C698 1.304 . S
C699 C700 1.371 . S
C699 H708 0.930 . S
C700 C697 1.344 . S
C700 C699 1.371 . S
C700 H709 0.931 . S
C701 C697 1.328 . S
C701 C702 1.433 . S
C701 H710 0.931 . S
C702 C698 1.323 . S
C702 C701 1.433 . S
C702 H711 0.933 . S
C703 Dy673 2.738 . S
C703 O683 1.255 . S
C703 O684 1.249 . S
C703 C697 1.516 . S
H704 C690 0.930 . S
H705 C691 0.931 . S
H706 C692 0.931 . S
H707 C693 0.933 . S
H708 C699 0.930 . S
H709 C700 0.931 . S
H710 C701 0.931 . S
H711 C702 0.933 . S
Dy712 O715 2.307 1_455 S
Dy712 O717 2.395 . S
Dy712 O718 2.379 . S
Dy712 O720 2.339 . S
Dy712 O722 2.298 . S
Dy712 O726 2.275 . S
Dy712 C734 2.738 . S
Dy713 O716 2.298 1_455 S
Dy713 O719 2.275 . S
Dy713 O721 2.307 . S
Dy713 O723 2.363 1_455 S
Dy713 O724 2.379 . S
Dy713 O727 2.339 . S
Dy713 C743 2.738 1_455 S
C714 O726 1.254 . S
C714 O727 1.257 . S
O715 Dy712 2.307 1_655 S
O715 C725 1.266 . S
O716 Dy713 2.298 1_655 S
O716 C725 1.236 . S
O717 Dy712 2.395 . S
O717 C734 1.255 . S
O718 Dy712 2.379 . S
O718 C734 1.249 . S
O719 Dy713 2.275 . S
O719 C735 1.254 . S
O720 Dy712 2.339 . S
O720 C735 1.257 . S
O721 Dy713 2.307 . S
O721 C736 1.266 . S
O722 Dy712 2.298 . S
O722 C736 1.236 . S
O723 Dy713 2.363 1_655 S
O723 C743 1.252 . S
O724 Dy713 2.379 . S
O724 C743 1.249 1_455 S
C725 O715 1.266 . S
C725 O716 1.236 . S
O726 Dy712 2.275 . S
O726 C714 1.254 . S
O727 Dy713 2.339 . S
O727 C714 1.257 . S
C728 C731 1.344 . S
C728 C732 1.328 . S
C728 C734 1.516 . S
C729 C730 1.304 . S
C729 C733 1.323 . S
C730 C729 1.304 . S
C730 C731 1.371 . S
C730 H744 0.930 . S
C731 C728 1.344 . S
C731 C730 1.371 . S
C731 H745 0.931 . S
C732 C728 1.328 . S
C732 C733 1.433 . S
C732 H746 0.931 . S
C733 C729 1.323 . S
C733 C732 1.433 . S
C733 H747 0.933 . S
C734 Dy712 2.738 . S
C734 O717 1.255 . S
C734 O718 1.249 . S
C734 C728 1.516 . S
C735 O719 1.254 . S
C735 O720 1.257 . S
C736 O721 1.266 . S
C736 O722 1.236 . S
C737 C740 1.344 . S
C737 C741 1.328 . S
C737 C743 1.516 . S
C738 C739 1.304 . S
C738 C742 1.323 . S
C739 C738 1.304 . S
C739 C740 1.371 . S
C739 H748 0.930 . S
C740 C737 1.344 . S
C740 C739 1.371 . S
C740 H749 0.931 . S
C741 C737 1.328 . S
C741 C742 1.433 . S
C741 H750 0.931 . S
C742 C738 1.323 . S
C742 C741 1.433 . S
C742 H751 0.933 . S
C743 Dy713 2.738 1_655 S
C743 O723 1.252 . S
C743 O724 1.249 1_655 S
C743 C737 1.516 . S
H744 C730 0.930 . S
H745 C731 0.931 . S
H746 C732 0.931 . S
H747 C733 0.933 . S
H748 C739 0.930 . S
H749 C740 0.931 . S
H750 C741 0.931 . S
H751 C742 0.933 . S
Dy752 O755 2.307 . S
Dy752 O757 2.395 . S
Dy752 O758 2.379 . S
Dy752 O760 2.339 . S
Dy752 O762 2.298 . S
Dy752 O766 2.275 . S
Dy752 C774 2.738 . S
Dy753 O756 2.298 . S
Dy753 O759 2.275 . S
Dy753 O761 2.307 . S
Dy753 O763 2.395 . S
Dy753 O764 2.379 . S
Dy753 O767 2.339 . S
Dy753 C783 2.738 . S
C754 O766 1.254 . S
C754 O767 1.257 . S
O755 Dy752 2.307 . S
O755 C765 1.266 . S
O756 Dy753 2.298 . S
O756 C765 1.236 . S
O757 Dy752 2.395 . S
O757 C774 1.255 . S
O758 Dy752 2.379 . S
O758 C774 1.249 . S
O759 Dy753 2.275 . S
O759 C775 1.254 . S
O760 Dy752 2.339 . S
O760 C775 1.257 . S
O761 Dy753 2.307 . S
O761 C776 1.266 . S
O762 Dy752 2.298 . S
O762 C776 1.236 . S
O763 Dy753 2.395 . S
O763 C783 1.255 . S
O764 Dy753 2.379 . S
O764 C783 1.249 . S
C765 O755 1.266 . S
C765 O756 1.236 . S
O766 Dy752 2.275 . S
O766 C754 1.254 . S
O767 Dy753 2.339 . S
O767 C754 1.257 . S
C768 C771 1.344 . S
C768 C772 1.328 . S
C768 C774 1.516 . S
C769 C770 1.304 . S
C769 C773 1.323 . S
C770 C769 1.304 . S
C770 C771 1.371 . S
C770 H784 0.930 . S
C771 C768 1.344 . S
C771 C770 1.371 . S
C771 H785 0.931 . S
C772 C768 1.328 . S
C772 C773 1.433 . S
C772 H786 0.931 . S
C773 C769 1.323 . S
C773 C772 1.433 . S
C773 H787 0.933 . S
C774 Dy752 2.738 . S
C774 O757 1.255 . S
C774 O758 1.249 . S
C774 C768 1.516 . S
C775 O759 1.254 . S
C775 O760 1.257 . S
C776 O761 1.266 . S
C776 O762 1.236 . S
C777 C780 1.344 . S
C777 C781 1.328 . S
C777 C783 1.516 . S
C778 C779 1.304 . S
C778 C782 1.323 . S
C779 C778 1.304 . S
C779 C780 1.371 . S
C779 H788 0.930 . S
C780 C777 1.344 . S
C780 C779 1.371 . S
C780 H789 0.931 . S
C781 C777 1.328 . S
C781 C782 1.433 . S
C781 H790 0.931 . S
C782 C778 1.323 . S
C782 C781 1.433 . S
C782 H791 0.933 . S
C783 Dy753 2.738 . S
C783 O763 1.255 . S
C783 O764 1.249 . S
C783 C777 1.516 . S
H784 C770 0.930 . S
H785 C771 0.931 . S
H786 C772 0.931 . S
H787 C773 0.933 . S
H788 C779 0.930 . S
H789 C780 0.931 . S
H790 C781 0.931 . S
H791 C782 0.933 . S
Dy792 O795 2.307 . S
Dy792 O797 2.395 . S
Dy792 O798 2.379 . S
Dy792 O800 2.339 . S
Dy792 O802 2.298 . S
Dy792 O806 2.275 . S
Dy792 C814 2.738 . S
Dy793 O796 2.298 . S
Dy793 O799 2.275 . S
Dy793 O801 2.307 . S
Dy793 O803 2.395 . S
Dy793 O804 2.379 . S
Dy793 O807 2.339 . S
Dy793 C823 2.738 . S
C794 O806 1.254 . S
C794 O807 1.257 . S
O795 Dy792 2.307 . S
O795 C805 1.266 . S
O796 Dy793 2.298 . S
O796 C805 1.236 . S
O797 Dy792 2.395 . S
O797 C814 1.255 . S
O798 Dy792 2.379 . S
O798 C814 1.249 . S
O799 Dy793 2.275 . S
O799 C815 1.254 . S
O800 Dy792 2.339 . S
O800 C815 1.257 . S
O801 Dy793 2.307 . S
O801 C816 1.266 . S
O802 Dy792 2.298 . S
O802 C816 1.236 . S
O803 Dy793 2.395 . S
O803 C823 1.255 . S
O804 Dy793 2.379 . S
O804 C823 1.249 . S
C805 O795 1.266 . S
C805 O796 1.236 . S
O806 Dy792 2.275 . S
O806 C794 1.254 . S
O807 Dy793 2.339 . S
O807 C794 1.257 . S
C808 C811 1.344 . S
C808 C812 1.328 . S
C808 C814 1.516 . S
C809 C810 1.304 . S
C809 C813 1.323 . S
C810 C809 1.304 . S
C810 C811 1.371 . S
C810 H824 0.930 . S
C811 C808 1.344 . S
C811 C810 1.371 . S
C811 H825 0.931 . S
C812 C808 1.328 . S
C812 C813 1.433 . S
C812 H826 0.931 . S
C813 C809 1.323 . S
C813 C812 1.433 . S
C813 H827 0.933 . S
C814 Dy792 2.738 . S
C814 O797 1.255 . S
C814 O798 1.249 . S
C814 C808 1.516 . S
C815 O799 1.254 . S
C815 O800 1.257 . S
C816 O801 1.266 . S
C816 O802 1.236 . S
C817 C820 1.344 . S
C817 C821 1.328 . S
C817 C823 1.516 . S
C818 C819 1.304 . S
C818 C822 1.323 . S
C819 C818 1.304 . S
C819 C820 1.371 . S
C819 H828 0.930 . S
C820 C817 1.344 . S
C820 C819 1.371 . S
C820 H829 0.931 . S
C821 C817 1.328 . S
C821 C822 1.433 . S
C821 H830 0.931 . S
C822 C818 1.323 . S
C822 C821 1.433 . S
C822 H831 0.933 . S
C823 Dy793 2.738 . S
C823 O803 1.255 . S
C823 O804 1.249 . S
C823 C817 1.516 . S
H824 C810 0.930 . S
H825 C811 0.931 . S
H826 C812 0.931 . S
H827 C813 0.933 . S
H828 C819 0.930 . S
H829 C820 0.931 . S
H830 C821 0.931 . S
H831 C822 0.933 . S
Dy832 O835 2.307 . S
Dy832 O837 2.395 . S
Dy832 O838 2.379 . S
Dy832 O840 2.339 . S
Dy832 O842 2.298 . S
Dy832 O846 2.275 . S
Dy832 C854 2.738 . S
Dy833 O836 2.298 . S
Dy833 O839 2.275 . S
Dy833 O841 2.307 . S
Dy833 O843 2.395 . S
Dy833 O844 2.379 . S
Dy833 O847 2.339 . S
Dy833 C863 2.738 . S
C834 O846 1.254 . S
C834 O847 1.257 . S
O835 Dy832 2.307 . S
O835 C845 1.266 . S
O836 Dy833 2.298 . S
O836 C845 1.236 . S
O837 Dy832 2.395 . S
O837 C854 1.255 . S
O838 Dy832 2.379 . S
O838 C854 1.249 . S
O839 Dy833 2.275 . S
O839 C855 1.254 . S
O840 Dy832 2.339 . S
O840 C855 1.257 . S
O841 Dy833 2.307 . S
O841 C856 1.266 . S
O842 Dy832 2.298 . S
O842 C856 1.236 . S
O843 Dy833 2.395 . S
O843 C863 1.255 . S
O844 Dy833 2.379 . S
O844 C863 1.249 . S
C845 O835 1.266 . S
C845 O836 1.236 . S
O846 Dy832 2.275 . S
O846 C834 1.254 . S
O847 Dy833 2.339 . S
O847 C834 1.257 . S
C848 C851 1.344 . S
C848 C852 1.328 . S
C848 C854 1.516 . S
C849 C850 1.304 . S
C849 C853 1.323 . S
C850 C849 1.304 . S
C850 C851 1.371 . S
C850 H864 0.930 . S
C851 C848 1.344 . S
C851 C850 1.371 . S
C851 H865 0.931 . S
C852 C848 1.328 . S
C852 C853 1.433 . S
C852 H866 0.931 . S
C853 C849 1.323 . S
C853 C852 1.433 . S
C853 H867 0.933 . S
C854 Dy832 2.738 . S
C854 O837 1.255 . S
C854 O838 1.249 . S
C854 C848 1.516 . S
C855 O839 1.254 . S
C855 O840 1.257 . S
C856 O841 1.266 . S
C856 O842 1.236 . S
C857 C860 1.344 . S
C857 C861 1.328 . S
C857 C863 1.516 . S
C858 C859 1.304 . S
C858 C862 1.323 . S
C859 C858 1.304 . S
C859 C860 1.371 . S
C859 H868 0.930 . S
C860 C857 1.344 . S
C860 C859 1.371 . S
C860 H869 0.931 . S
C861 C857 1.328 . S
C861 C862 1.433 . S
C861 H870 0.931 . S
C862 C858 1.323 . S
C862 C861 1.433 . S
C862 H871 0.933 . S
C863 Dy833 2.738 . S
C863 O843 1.255 . S
C863 O844 1.249 . S
C863 C857 1.516 . S
H864 C850 0.930 . S
H865 C851 0.931 . S
H866 C852 0.931 . S
H867 C853 0.933 . S
H868 C859 0.930 . S
H869 C860 0.931 . S
H870 C861 0.931 . S
H871 C862 0.933 . S
Dy872 O875 2.307 . S
Dy872 O877 2.395 . S
Dy872 O878 2.379 . S
Dy872 O880 2.339 . S
Dy872 O882 2.298 . S
Dy872 O886 2.275 . S
Dy872 C894 2.738 . S
Dy873 O876 2.298 . S
Dy873 O879 2.275 . S
Dy873 O881 2.307 . S
Dy873 O883 2.395 . S
Dy873 O884 2.379 . S
Dy873 O887 2.339 . S
Dy873 C903 2.738 . S
C874 O886 1.254 . S
C874 O887 1.257 . S
O875 Dy872 2.307 . S
O875 C885 1.266 . S
O876 Dy873 2.298 . S
O876 C885 1.236 . S
O877 Dy872 2.395 . S
O877 C894 1.255 . S
O878 Dy872 2.379 . S
O878 C894 1.249 . S
O879 Dy873 2.275 . S
O879 C895 1.254 . S
O880 Dy872 2.339 . S
O880 C895 1.257 . S
O881 Dy873 2.307 . S
O881 C896 1.266 . S
O882 Dy872 2.298 . S
O882 C896 1.236 . S
O883 Dy873 2.395 . S
O883 C903 1.255 . S
O884 Dy873 2.379 . S
O884 C903 1.249 . S
C885 O875 1.266 . S
C885 O876 1.236 . S
O886 Dy872 2.275 . S
O886 C874 1.254 . S
O887 Dy873 2.339 . S
O887 C874 1.257 . S
C888 C891 1.344 . S
C888 C892 1.328 . S
C888 C894 1.516 . S
C889 C890 1.304 . S
C889 C893 1.323 . S
C890 C889 1.304 . S
C890 C891 1.371 . S
C890 H904 0.930 . S
C891 C888 1.344 . S
C891 C890 1.371 . S
C891 H905 0.931 . S
C892 C888 1.328 . S
C892 C893 1.433 . S
C892 H906 0.931 . S
C893 C889 1.323 . S
C893 C892 1.433 . S
C893 H907 0.933 . S
C894 Dy872 2.738 . S
C894 O877 1.255 . S
C894 O878 1.249 . S
C894 C888 1.516 . S
C895 O879 1.254 . S
C895 O880 1.257 . S
C896 O881 1.266 . S
C896 O882 1.236 . S
C897 C900 1.344 . S
C897 C901 1.328 . S
C897 C903 1.516 . S
C898 C899 1.304 . S
C898 C902 1.323 . S
C899 C898 1.304 . S
C899 C900 1.371 . S
C899 H908 0.930 . S
C900 C897 1.344 . S
C900 C899 1.371 . S
C900 H909 0.931 . S
C901 C897 1.328 . S
C901 C902 1.433 . S
C901 H910 0.931 . S
C902 C898 1.323 . S
C902 C901 1.433 . S
C902 H911 0.933 . S
C903 Dy873 2.738 . S
C903 O883 1.255 . S
C903 O884 1.249 . S
C903 C897 1.516 . S
H904 C890 0.930 . S
H905 C891 0.931 . S
H906 C892 0.931 . S
H907 C893 0.933 . S
H908 C899 0.930 . S
H909 C900 0.931 . S
H910 C901 0.931 . S
H911 C902 0.933 . S
Dy912 O915 2.307 1_655 S
Dy912 O917 2.395 . S
Dy912 O918 2.379 . S
Dy912 O920 2.339 1_655 S
Dy912 O922 2.298 1_655 S
Dy912 O926 2.275 1_655 S
Dy912 C934 2.738 . S
Dy913 O916 2.298 . S
Dy913 O919 2.275 . S
Dy913 O921 2.307 . S
Dy913 O923 2.395 . S
Dy913 O924 2.379 . S
Dy913 O927 2.339 1_554 S
Dy913 C943 2.738 . S
C914 O926 1.254 . S
C914 O927 1.257 1_554 S
O915 Dy912 2.307 1_455 S
O915 C925 1.266 . S
O916 Dy913 2.298 . S
O916 C925 1.236 . S
O917 Dy912 2.395 . S
O917 C934 1.255 . S
O918 Dy912 2.379 . S
O918 C934 1.249 . S
O919 Dy913 2.275 . S
O919 C935 1.254 . S
O920 Dy912 2.339 1_455 S
O920 C935 1.257 . S
O921 Dy913 2.307 . S
O921 C936 1.266 . S
O922 Dy912 2.298 1_455 S
O922 C936 1.236 . S
O923 Dy913 2.395 . S
O923 C943 1.255 . S
O924 Dy913 2.379 . S
O924 C943 1.249 . S
C925 O915 1.266 . S
C925 O916 1.236 . S
O926 Dy912 2.275 1_455 S
O926 C914 1.254 . S
O927 Dy913 2.339 1_556 S
O927 C914 1.257 1_556 S
C928 C931 1.344 . S
C928 C932 1.328 . S
C928 C934 1.516 . S
C929 C930 1.304 . S
C929 C933 1.323 . S
C930 C929 1.304 . S
C930 C931 1.371 . S
C930 H944 0.930 . S
C931 C928 1.344 . S
C931 C930 1.371 . S
C931 H945 0.931 . S
C932 C928 1.328 . S
C932 C933 1.433 . S
C932 H946 0.931 . S
C933 C929 1.323 . S
C933 C932 1.433 . S
C933 H947 0.933 . S
C934 Dy912 2.738 . S
C934 O917 1.255 . S
C934 O918 1.249 . S
C934 C928 1.516 . S
C935 O919 1.254 . S
C935 O920 1.257 . S
C936 O921 1.266 . S
C936 O922 1.236 . S
C937 C940 1.344 . S
C937 C941 1.328 . S
C937 C943 1.516 . S
C938 C939 1.304 . S
C938 C942 1.340 . S
C939 C938 1.304 . S
C939 C940 1.371 . S
C939 H948 0.930 . S
C940 C937 1.344 . S
C940 C939 1.371 . S
C940 H949 0.931 . S
C941 C937 1.328 . S
C941 C942 1.436 . S
C941 H950 0.931 1_554 S
C942 C938 1.340 . S
C942 C941 1.436 . S
C942 H951 0.913 1_554 S
C943 Dy913 2.738 . S
C943 O923 1.255 . S
C943 O924 1.249 . S
C943 C937 1.516 . S
H944 C930 0.930 . S
H945 C931 0.931 . S
H946 C932 0.931 . S
H947 C933 0.933 . S
H948 C939 0.930 . S
H949 C940 0.931 . S
H950 C941 0.931 1_556 S
H951 C942 0.913 1_556 S
H952 C958 0.930 . S
H953 C962 0.930 . S
H954 C967 0.929 . S
H955 C965 0.929 . S
H956 C960 0.929 1_556 S
H957 C966 0.929 . S
C958 H952 0.930 . S
C958 C959 1.367 1_554 S
C958 C966 1.378 . S
C959 C958 1.367 1_556 S
C959 C967 1.433 1_455 S
C960 H956 0.929 1_554 S
C960 C962 1.378 . S
C960 C964 1.350 . S
C961 C964 1.463 . S
C961 C966 1.350 . S
C961 N969 1.427 1_554 S
C962 H953 0.930 . S
C962 C960 1.378 . S
C962 C963 1.367 . S
C963 C962 1.367 . S
C963 C965 1.433 . S
C964 C960 1.350 . S
C964 C961 1.463 . S
C964 N968 1.427 . S
C965 H955 0.929 . S
C965 C963 1.433 . S
C965 N968 1.384 . S
C966 H957 0.929 . S
C966 C958 1.378 . S
C966 C961 1.350 . S
C967 H954 0.929 . S
C967 C959 1.433 1_655 S
C967 N969 1.384 1_655 S
N968 C964 1.427 . S
N968 C965 1.384 . S
N969 C961 1.427 1_556 S
N969 C967 1.384 1_455 S
H970 C976 0.930 . S
H971 C980 0.930 . S
H972 C985 0.929 . S
H973 C983 0.929 . S
H974 C978 0.929 . S
H975 C984 0.929 . S
C976 H970 0.930 . S
C976 C977 1.367 . S
C976 C984 1.378 . S
C977 C976 1.367 . S
C977 C985 1.433 . S
C978 H974 0.929 . S
C978 C980 1.378 . S
C978 C982 1.350 . S
C979 C982 1.463 . S
C979 C984 1.350 . S
C979 N987 1.427 . S
C980 H971 0.930 . S
C980 C978 1.378 . S
C980 C981 1.367 . S
C981 C980 1.367 . S
C981 C983 1.433 . S
C982 C978 1.350 . S
C982 C979 1.463 . S
C982 N986 1.427 . S
C983 H973 0.929 . S
C983 C981 1.433 . S
C983 N986 1.384 . S
C984 H975 0.929 . S
C984 C976 1.378 . S
C984 C979 1.350 . S
C985 H972 0.929 . S
C985 C977 1.433 . S
C985 N987 1.384 . S
N986 C982 1.427 . S
N986 C983 1.384 . S
N987 C979 1.427 . S
N987 C985 1.384 . S
H988 C994 0.930 . S
H989 C998 0.930 . S
H990 C1003 0.929 . S
H991 C1001 0.929 . S
H992 C996 0.929 . S
H993 C1002 0.929 . S
C994 H988 0.930 . S
C994 C995 1.367 . S
C994 C1002 1.378 . S
C995 C994 1.367 . S
C995 C1003 1.433 . S
C996 H992 0.929 . S
C996 C998 1.378 . S
C996 C1000 1.350 . S
C997 C1000 1.463 . S
C997 C1002 1.350 . S
C997 N1005 1.427 . S
C998 H989 0.930 . S
C998 C996 1.378 . S
C998 C999 1.367 . S
C999 C998 1.367 . S
C999 C1001 1.433 . S
C1000 C996 1.350 . S
C1000 C997 1.463 . S
C1000 N1004 1.427 . S
C1001 H991 0.929 . S
C1001 C999 1.433 . S
C1001 N1004 1.384 . S
C1002 H993 0.929 . S
C1002 C994 1.378 . S
C1002 C997 1.350 . S
C1003 H990 0.929 . S
C1003 C995 1.433 . S
C1003 N1005 1.384 . S
N1004 C1000 1.427 . S
N1004 C1001 1.384 . S
N1005 C997 1.427 . S
N1005 C1003 1.384 . S
H1006 C1012 0.930 . S
H1007 C1016 0.930 . S
H1008 C1021 0.929 . S
H1009 C1019 0.929 . S
H1010 C1014 0.929 . S
H1011 C1020 0.929 . S
C1012 H1006 0.930 . S
C1012 C1013 1.367 . S
C1012 C1020 1.378 . S
C1013 C1012 1.367 . S
C1013 C1021 1.433 . S
C1014 H1010 0.929 . S
C1014 C1016 1.378 . S
C1014 C1018 1.350 . S
C1015 C1018 1.463 . S
C1015 C1020 1.350 . S
C1015 N1023 1.427 . S
C1016 H1007 0.930 . S
C1016 C1014 1.378 . S
C1016 C1017 1.367 . S
C1017 C1016 1.367 . S
C1017 C1019 1.433 . S
C1018 C1014 1.350 . S
C1018 C1015 1.463 . S
C1018 N1022 1.427 . S
C1019 H1009 0.929 . S
C1019 C1017 1.433 . S
C1019 N1022 1.384 . S
C1020 H1011 0.929 . S
C1020 C1012 1.378 . S
C1020 C1015 1.350 . S
C1021 H1008 0.929 . S
C1021 C1013 1.433 . S
C1021 N1023 1.384 . S
N1022 C1018 1.427 . S
N1022 C1019 1.384 . S
N1023 C1015 1.427 . S
N1023 C1021 1.384 . S
H1024 C1030 0.930 . S
H1025 C1034 0.930 . S
H1026 C1039 0.929 . S
H1027 C1037 0.929 . S
H1028 C1032 0.929 . S
H1029 C1038 0.929 . S
C1030 H1024 0.930 . S
C1030 C1031 1.367 . S
C1030 C1038 1.378 . S
C1031 C1030 1.367 . S
C1031 C1039 1.433 . S
C1032 H1028 0.929 . S
C1032 C1034 1.378 . S
C1032 C1036 1.350 . S
C1033 C1036 1.463 . S
C1033 C1038 1.350 . S
C1033 N1041 1.427 . S
C1034 H1025 0.930 . S
C1034 C1032 1.378 . S
C1034 C1035 1.367 . S
C1035 C1034 1.367 . S
C1035 C1037 1.433 . S
C1036 C1032 1.350 . S
C1036 C1033 1.463 . S
C1036 N1040 1.427 . S
C1037 H1027 0.929 . S
C1037 C1035 1.433 . S
C1037 N1040 1.384 . S
C1038 H1029 0.929 . S
C1038 C1030 1.378 . S
C1038 C1033 1.350 . S
C1039 H1026 0.929 . S
C1039 C1031 1.433 . S
C1039 N1041 1.384 . S
N1040 C1036 1.427 . S
N1040 C1037 1.384 . S
N1041 C1033 1.427 . S
N1041 C1039 1.384 . S
H1042 C1048 0.930 . S
H1043 C1052 0.930 . S
H1044 C1057 0.929 . S
H1045 C1055 0.929 . S
H1046 C1050 0.929 . S
H1047 C1056 0.929 . S
C1048 H1042 0.930 . S
C1048 C1049 1.367 . S
C1048 C1056 1.378 . S
C1049 C1048 1.367 . S
C1049 C1057 1.433 . S
C1050 H1046 0.929 . S
C1050 C1052 1.378 . S
C1050 C1054 1.350 . S
C1051 C1054 1.463 . S
C1051 C1056 1.350 . S
C1051 N1059 1.427 . S
C1052 H1043 0.930 . S
C1052 C1050 1.378 . S
C1052 C1053 1.367 . S
C1053 C1052 1.367 . S
C1053 C1055 1.433 . S
C1054 C1050 1.350 . S
C1054 C1051 1.463 . S
C1054 N1058 1.427 . S
C1055 H1045 0.929 . S
C1055 C1053 1.433 . S
C1055 N1058 1.384 . S
C1056 H1047 0.929 . S
C1056 C1048 1.378 . S
C1056 C1051 1.350 . S
C1057 H1044 0.929 . S
C1057 C1049 1.433 . S
C1057 N1059 1.384 . S
N1058 C1054 1.427 . S
N1058 C1055 1.384 . S
N1059 C1051 1.427 . S
N1059 C1057 1.384 . S
H1060 C1066 0.930 . S
H1061 C1070 0.930 . S
H1062 C1075 0.929 . S
H1063 C1073 0.929 . S
H1064 C1068 0.929 . S
H1065 C1074 0.929 . S
C1066 H1060 0.930 . S
C1066 C1067 1.367 . S
C1066 C1074 1.378 . S
C1067 C1066 1.367 . S
C1067 C1075 1.433 . S
C1068 H1064 0.929 . S
C1068 C1070 1.378 . S
C1068 C1072 1.350 . S
C1069 C1072 1.463 . S
C1069 C1074 1.350 . S
C1069 N1077 1.427 . S
C1070 H1061 0.930 . S
C1070 C1068 1.378 . S
C1070 C1071 1.367 . S
C1071 C1070 1.367 . S
C1071 C1073 1.433 . S
C1072 C1068 1.350 . S
C1072 C1069 1.463 . S
C1072 N1076 1.427 . S
C1073 H1063 0.929 . S
C1073 C1071 1.433 . S
C1073 N1076 1.384 . S
C1074 H1065 0.929 . S
C1074 C1066 1.378 . S
C1074 C1069 1.350 . S
C1075 H1062 0.929 . S
C1075 C1067 1.433 . S
C1075 N1077 1.384 . S
N1076 C1072 1.427 . S
N1076 C1073 1.384 . S
N1077 C1069 1.427 . S
N1077 C1075 1.384 . S
H1078 C1084 0.930 . S
H1079 C1088 0.930 . S
H1080 C1093 0.929 . S
H1081 C1091 0.929 . S
H1082 C1086 0.929 . S
H1083 C1092 0.929 . S
C1084 H1078 0.930 . S
C1084 C1085 1.367 . S
C1084 C1092 1.378 . S
C1085 C1084 1.367 . S
C1085 C1093 1.433 . S
C1086 H1082 0.929 . S
C1086 C1088 1.378 . S
C1086 C1090 1.350 . S
C1087 C1090 1.463 . S
C1087 C1092 1.350 . S
C1087 N1095 1.427 . S
C1088 H1079 0.930 . S
C1088 C1086 1.378 . S
C1088 C1089 1.367 . S
C1089 C1088 1.367 . S
C1089 C1091 1.433 . S
C1090 C1086 1.350 . S
C1090 C1087 1.463 . S
C1090 N1094 1.427 . S
C1091 H1081 0.929 . S
C1091 C1089 1.433 . S
C1091 N1094 1.384 . S
C1092 H1083 0.929 . S
C1092 C1084 1.378 . S
C1092 C1087 1.350 . S
C1093 H1080 0.929 . S
C1093 C1085 1.433 . S
C1093 N1095 1.384 . S
N1094 C1090 1.427 . S
N1094 C1091 1.384 . S
N1095 C1087 1.427 . S
N1095 C1093 1.384 . S
H1096 C1102 0.930 . S
H1097 C1106 0.930 . S
H1098 C1111 0.929 . S
H1099 C1109 0.929 . S
H1100 C1104 0.929 . S
H1101 C1110 0.929 . S
C1102 H1096 0.930 . S
C1102 C1103 1.367 . S
C1102 C1110 1.378 . S
C1103 C1102 1.367 . S
C1103 C1111 1.433 . S
C1104 H1100 0.929 . S
C1104 C1106 1.378 . S
C1104 C1108 1.350 . S
C1105 C1108 1.463 1_655 S
C1105 C1110 1.350 . S
C1105 N1113 1.427 . S
C1106 H1097 0.930 . S
C1106 C1104 1.378 . S
C1106 C1107 1.367 . S
C1107 C1106 1.367 . S
C1107 C1109 1.433 . S
C1108 C1104 1.350 . S
C1108 C1105 1.463 1_455 S
C1108 N1112 1.427 . S
C1109 H1099 0.929 . S
C1109 C1107 1.433 . S
C1109 N1112 1.384 . S
C1110 H1101 0.929 . S
C1110 C1102 1.378 . S
C1110 C1105 1.350 . S
C1111 H1098 0.929 . S
C1111 C1103 1.433 . S
C1111 N1113 1.384 . S
N1112 C1108 1.427 . S
N1112 C1109 1.384 . S
N1113 C1105 1.427 . S
N1113 C1111 1.384 . S
H1114 C1120 0.930 . S
H1115 C1124 0.930 . S
H1116 C1129 0.929 . S
H1117 C1127 0.929 . S
H1118 C1122 0.929 . S
H1119 C1128 0.929 . S
C1120 H1114 0.930 . S
C1120 C1121 1.367 . S
C1120 C1128 1.378 . S
C1121 C1120 1.367 . S
C1121 C1129 1.433 . S
C1122 H1118 0.929 . S
C1122 C1124 1.378 . S
C1122 C1126 1.350 . S
C1123 C1126 1.463 . S
C1123 C1128 1.350 . S
C1123 N1131 1.427 . S
C1124 H1115 0.930 . S
C1124 C1122 1.378 . S
C1124 C1125 1.367 . S
C1125 C1124 1.367 . S
C1125 C1127 1.433 . S
C1126 C1122 1.350 . S
C1126 C1123 1.463 . S
C1126 N1130 1.427 . S
C1127 H1117 0.929 . S
C1127 C1125 1.433 . S
C1127 N1130 1.384 . S
C1128 H1119 0.929 . S
C1128 C1120 1.378 . S
C1128 C1123 1.350 . S
C1129 H1116 0.929 . S
C1129 C1121 1.433 . S
C1129 N1131 1.384 . S
N1130 C1126 1.427 . S
N1130 C1127 1.384 . S
N1131 C1123 1.427 . S
N1131 C1129 1.384 . S
H1132 C1138 0.930 . S
H1133 C1142 0.930 . S
H1134 C1147 0.929 . S
H1135 C1145 0.929 . S
H1136 C1140 0.929 . S
H1137 C1146 0.929 . S
C1138 H1132 0.930 . S
C1138 C1139 1.367 . S
C1138 C1146 1.378 . S
C1139 C1138 1.367 . S
C1139 C1147 1.433 . S
C1140 H1136 0.929 . S
C1140 C1142 1.378 . S
C1140 C1144 1.350 . S
C1141 C1144 1.463 . S
C1141 C1146 1.350 . S
C1141 N1149 1.427 . S
C1142 H1133 0.930 . S
C1142 C1140 1.378 . S
C1142 C1143 1.367 . S
C1143 C1142 1.367 . S
C1143 C1145 1.433 . S
C1144 C1140 1.350 . S
C1144 C1141 1.463 . S
C1144 N1148 1.427 . S
C1145 H1135 0.929 . S
C1145 C1143 1.433 . S
C1145 N1148 1.384 . S
C1146 H1137 0.929 . S
C1146 C1138 1.378 . S
C1146 C1141 1.350 . S
C1147 H1134 0.929 . S
C1147 C1139 1.433 . S
C1147 N1149 1.384 . S
N1148 C1144 1.427 . S
N1148 C1145 1.384 . S
N1149 C1141 1.427 . S
N1149 C1147 1.384 . S
H1150 C1156 0.930 . S
H1151 C1160 0.930 . S
H1152 C1165 0.929 . S
H1153 C1163 0.929 . S
H1154 C1158 0.929 . S
H1155 C1164 0.929 . S
C1156 H1150 0.930 . S
C1156 C1157 1.367 . S
C1156 C1164 1.378 . S
C1157 C1156 1.367 . S
C1157 C1165 1.433 . S
C1158 H1154 0.929 . S
C1158 C1160 1.378 . S
C1158 C1162 1.350 . S
C1159 C1162 1.463 . S
C1159 C1164 1.350 . S
C1159 N1167 1.427 . S
C1160 H1151 0.930 . S
C1160 C1158 1.378 . S
C1160 C1161 1.367 . S
C1161 C1160 1.367 . S
C1161 C1163 1.433 . S
C1162 C1158 1.350 . S
C1162 C1159 1.463 . S
C1162 N1166 1.427 . S
C1163 H1153 0.929 . S
C1163 C1161 1.433 . S
C1163 N1166 1.384 . S
C1164 H1155 0.929 . S
C1164 C1156 1.378 . S
C1164 C1159 1.350 . S
C1165 H1152 0.929 . S
C1165 C1157 1.433 . S
C1165 N1167 1.384 . S
N1166 C1162 1.427 . S
N1166 C1163 1.384 . S
N1167 C1159 1.427 . S
N1167 C1165 1.384 . S
H1168 C1174 0.930 . S
H1169 C1178 0.930 . S
H1170 C1183 0.929 . S
H1171 C1181 0.929 . S
H1172 C1176 0.929 1_655 S
H1173 C1182 0.929 1_455 S
C1174 H1168 0.930 . S
C1174 C1175 1.367 . S
C1174 C1182 1.378 . S
C1175 C1174 1.367 . S
C1175 C1183 1.433 . S
C1176 H1172 0.929 1_455 S
C1176 C1178 1.378 . S
C1176 C1180 1.350 . S
C1177 C1180 1.463 1_655 S
C1177 C1182 1.350 . S
C1177 N1185 1.427 . S
C1178 H1169 0.930 . S
C1178 C1176 1.378 . S
C1178 C1179 1.367 . S
C1179 C1178 1.367 . S
C1179 C1181 1.433 . S
C1180 C1176 1.350 . S
C1180 C1177 1.463 1_455 S
C1180 N1184 1.427 . S
C1181 H1171 0.929 . S
C1181 C1179 1.433 . S
C1181 N1184 1.384 . S
C1182 H1173 0.929 1_655 S
C1182 C1174 1.378 . S
C1182 C1177 1.350 . S
C1183 H1170 0.929 . S
C1183 C1175 1.433 . S
C1183 N1185 1.384 . S
N1184 C1180 1.427 . S
N1184 C1181 1.384 . S
N1185 C1177 1.427 . S
N1185 C1183 1.384 . S
H1186 C1192 0.930 . S
H1187 C1196 0.930 . S
H1188 C1201 0.929 . S
H1189 C1199 0.929 . S
H1190 C1194 0.929 . S
H1191 C1200 0.929 . S
C1192 H1186 0.930 . S
C1192 C1193 1.367 . S
C1192 C1200 1.378 . S
C1193 C1192 1.367 . S
C1193 C1201 1.433 . S
C1194 H1190 0.929 . S
C1194 C1196 1.378 . S
C1194 C1198 1.350 . S
C1195 C1198 1.463 . S
C1195 C1200 1.350 . S
C1195 N1203 1.427 . S
C1196 H1187 0.930 . S
C1196 C1194 1.378 . S
C1196 C1197 1.367 . S
C1197 C1196 1.367 . S
C1197 C1199 1.433 . S
C1198 C1194 1.350 . S
C1198 C1195 1.463 . S
C1198 N1202 1.427 . S
C1199 H1189 0.929 . S
C1199 C1197 1.433 . S
C1199 N1202 1.384 . S
C1200 H1191 0.929 . S
C1200 C1192 1.378 . S
C1200 C1195 1.350 . S
C1201 H1188 0.929 . S
C1201 C1193 1.433 . S
C1201 N1203 1.384 . S
N1202 C1198 1.427 . S
N1202 C1199 1.384 . S
N1203 C1195 1.427 . S
N1203 C1201 1.384 . S
H1204 C1210 0.930 . S
H1205 C1214 0.930 . S
H1206 C1219 0.929 . S
H1207 C1217 0.929 . S
H1208 C1212 0.929 . S
H1209 C1218 0.929 . S
C1210 H1204 0.930 . S
C1210 C1211 1.367 . S
C1210 C1218 1.378 . S
C1211 C1210 1.367 . S
C1211 C1219 1.433 . S
C1212 H1208 0.929 . S
C1212 C1214 1.378 . S
C1212 C1216 1.350 . S
C1213 C1216 1.463 . S
C1213 C1218 1.350 . S
C1213 N1221 1.427 . S
C1214 H1205 0.930 . S
C1214 C1212 1.378 . S
C1214 C1215 1.367 . S
C1215 C1214 1.367 . S
C1215 C1217 1.433 . S
C1216 C1212 1.350 . S
C1216 C1213 1.463 . S
C1216 N1220 1.427 . S
C1217 H1207 0.929 . S
C1217 C1215 1.433 . S
C1217 N1220 1.384 . S
C1218 H1209 0.929 . S
C1218 C1210 1.378 . S
C1218 C1213 1.350 . S
C1219 H1206 0.929 . S
C1219 C1211 1.433 . S
C1219 N1221 1.384 . S
N1220 C1216 1.427 . S
N1220 C1217 1.384 . S
N1221 C1213 1.427 . S
N1221 C1219 1.384 . S
H1222 C1228 0.930 . S
H1223 C1232 0.930 . S
H1224 C1237 0.929 . S
H1225 C1235 0.929 . S
H1226 C1230 0.929 . S
H1227 C1236 0.929 . S
C1228 H1222 0.930 . S
C1228 C1229 1.367 . S
C1228 C1236 1.378 . S
C1229 C1228 1.367 . S
C1229 C1237 1.433 . S
C1230 H1226 0.929 . S
C1230 C1232 1.378 . S
C1230 C1234 1.350 . S
C1231 C1234 1.463 . S
C1231 C1236 1.350 . S
C1231 N1239 1.427 . S
C1232 H1223 0.930 . S
C1232 C1230 1.378 . S
C1232 C1233 1.367 . S
C1233 C1232 1.367 . S
C1233 C1235 1.433 . S
C1234 C1230 1.350 . S
C1234 C1231 1.463 . S
C1234 N1238 1.427 . S
C1235 H1225 0.929 . S
C1235 C1233 1.433 . S
C1235 N1238 1.384 . S
C1236 H1227 0.929 . S
C1236 C1228 1.378 . S
C1236 C1231 1.350 . S
C1237 H1224 0.929 . S
C1237 C1229 1.433 . S
C1237 N1239 1.384 . S
N1238 C1234 1.427 . S
N1238 C1235 1.384 . S
N1239 C1231 1.427 . S
N1239 C1237 1.384 . S
H1240 C1246 0.930 . S
H1241 C1250 0.930 . S
H1242 C1255 0.945 . S
H1243 C1253 0.929 . S
H1244 C1248 0.929 . S
H1245 C1254 0.929 . S
C1246 H1240 0.930 . S
C1246 C1247 1.367 . S
C1246 C1254 1.378 . S
C1247 C1246 1.367 . S
C1247 C1255 1.427 1_554 S
C1248 H1244 0.929 . S
C1248 C1250 1.378 . S
C1248 C1252 1.350 . S
C1249 C1252 1.463 . S
C1249 C1254 1.350 . S
C1249 N1257 1.427 . S
C1250 H1241 0.930 . S
C1250 C1248 1.378 . S
C1250 C1251 1.367 1_565 S
C1251 C1250 1.367 1_545 S
C1251 C1253 1.433 . S
C1252 C1248 1.350 . S
C1252 C1249 1.463 . S
C1252 N1256 1.427 1_565 S
C1253 H1243 0.929 . S
C1253 C1251 1.433 . S
C1253 N1256 1.384 . S
C1254 H1245 0.929 . S
C1254 C1246 1.378 . S
C1254 C1249 1.350 . S
C1255 H1242 0.945 . S
C1255 C1247 1.427 1_556 S
C1255 N1257 1.374 1_556 S
N1256 C1252 1.427 1_545 S
N1256 C1253 1.384 . S
N1257 C1249 1.427 . S
N1257 C1255 1.374 1_554 S
H1258 C1264 0.930 . S
H1259 C1268 0.930 . S
H1260 C1273 0.929 . S
H1261 C1271 0.929 . S
H1262 C1266 0.929 . S
H1263 C1272 0.929 . S
C1264 H1258 0.930 . S
C1264 C1265 1.367 . S
C1264 C1272 1.378 . S
C1265 C1264 1.367 . S
C1265 C1273 1.433 1_554 S
C1266 H1262 0.929 . S
C1266 C1268 1.378 . S
C1266 C1270 1.350 1_556 S
C1267 C1270 1.463 . S
C1267 C1272 1.350 . S
C1267 N1275 1.427 1_554 S
C1268 H1259 0.930 . S
C1268 C1266 1.378 . S
C1268 C1269 1.367 1_556 S
C1269 C1268 1.367 1_554 S
C1269 C1271 1.433 . S
C1270 C1266 1.350 1_554 S
C1270 C1267 1.463 . S
C1270 N1274 1.427 . S
C1271 H1261 0.929 . S
C1271 C1269 1.433 . S
C1271 N1274 1.384 . S
C1272 H1263 0.929 . S
C1272 C1264 1.378 . S
C1272 C1267 1.350 . S
C1273 H1260 0.929 . S
C1273 C1265 1.433 1_556 S
C1273 N1275 1.384 . S
N1274 C1270 1.427 . S
N1274 C1271 1.384 . S
N1275 C1267 1.427 1_556 S
N1275 C1273 1.384 . S
H1276 C1282 0.930 . S
H1277 C1286 0.930 . S
H1278 C1291 0.929 . S
H1279 C1289 0.929 . S
H1280 C1284 0.929 . S
H1281 C1290 0.929 . S
C1282 H1276 0.930 . S
C1282 C1283 1.367 . S
C1282 C1290 1.378 . S
C1283 C1282 1.367 . S
C1283 C1291 1.433 . S
C1284 H1280 0.929 . S
C1284 C1286 1.378 . S
C1284 C1288 1.350 . S
C1285 C1288 1.463 . S
C1285 C1290 1.350 . S
C1285 N1293 1.427 . S
C1286 H1277 0.930 . S
C1286 C1284 1.378 . S
C1286 C1287 1.367 . S
C1287 C1286 1.367 . S
C1287 C1289 1.433 . S
C1288 C1284 1.350 . S
C1288 C1285 1.463 . S
C1288 N1292 1.427 . S
C1289 H1279 0.929 . S
C1289 C1287 1.433 . S
C1289 N1292 1.384 . S
C1290 H1281 0.929 . S
C1290 C1282 1.378 . S
C1290 C1285 1.350 . S
C1291 H1278 0.929 . S
C1291 C1283 1.433 . S
C1291 N1293 1.384 . S
N1292 C1288 1.427 . S
N1292 C1289 1.384 . S
N1293 C1285 1.427 . S
N1293 C1291 1.384 . S
H1294 C1300 0.930 . S
H1295 C1304 0.930 . S
H1296 C1309 0.929 . S
H1297 C1307 0.929 . S
H1298 C1302 0.929 . S
H1299 C1308 0.929 . S
C1300 H1294 0.930 . S
C1300 C1301 1.367 . S
C1300 C1308 1.378 . S
C1301 C1300 1.367 . S
C1301 C1309 1.433 . S
C1302 H1298 0.929 . S
C1302 C1304 1.378 . S
C1302 C1306 1.350 . S
C1303 C1306 1.463 . S
C1303 C1308 1.350 . S
C1303 N1311 1.427 . S
C1304 H1295 0.930 . S
C1304 C1302 1.378 . S
C1304 C1305 1.367 . S
C1305 C1304 1.367 . S
C1305 C1307 1.433 . S
C1306 C1302 1.350 . S
C1306 C1303 1.463 . S
C1306 N1310 1.427 . S
C1307 H1297 0.929 . S
C1307 C1305 1.433 . S
C1307 N1310 1.384 . S
C1308 H1299 0.929 . S
C1308 C1300 1.378 . S
C1308 C1303 1.350 . S
C1309 H1296 0.929 . S
C1309 C1301 1.433 . S
C1309 N1311 1.384 . S
N1310 C1306 1.427 . S
N1310 C1307 1.384 . S
N1311 C1303 1.427 . S
N1311 C1309 1.384 . S
H1312 C1318 0.930 . S
H1313 C1322 0.930 . S
H1314 C1327 0.929 . S
H1315 C1325 0.929 . S
H1316 C1320 0.929 . S
H1317 C1326 0.929 . S
C1318 H1312 0.930 . S
C1318 C1319 1.367 . S
C1318 C1326 1.378 . S
C1319 C1318 1.367 . S
C1319 C1327 1.433 . S
C1320 H1316 0.929 . S
C1320 C1322 1.378 . S
C1320 C1324 1.350 . S
C1321 C1324 1.463 . S
C1321 C1326 1.350 . S
C1321 N1329 1.427 . S
C1322 H1313 0.930 . S
C1322 C1320 1.378 . S
C1322 C1323 1.367 . S
C1323 C1322 1.367 . S
C1323 C1325 1.433 . S
C1324 C1320 1.350 . S
C1324 C1321 1.463 . S
C1324 N1328 1.427 . S
C1325 H1315 0.929 . S
C1325 C1323 1.433 . S
C1325 N1328 1.384 . S
C1326 H1317 0.929 . S
C1326 C1318 1.378 . S
C1326 C1321 1.350 . S
C1327 H1314 0.929 . S
C1327 C1319 1.433 . S
C1327 N1329 1.384 . S
N1328 C1324 1.427 . S
N1328 C1325 1.384 . S
N1329 C1321 1.427 . S
N1329 C1327 1.384 . S
H1330 C1336 0.930 . S
H1331 C1340 0.930 . S
H1332 C1345 0.929 . S
H1333 C1343 0.929 . S
H1334 C1338 0.929 . S
H1335 C1344 0.929 . S
C1336 H1330 0.930 . S
C1336 C1337 1.367 . S
C1336 C1344 1.378 . S
C1337 C1336 1.367 . S
C1337 C1345 1.433 . S
C1338 H1334 0.929 . S
C1338 C1340 1.378 . S
C1338 C1342 1.350 . S
C1339 C1342 1.463 . S
C1339 C1344 1.350 . S
C1339 N1347 1.427 . S
C1340 H1331 0.930 . S
C1340 C1338 1.378 . S
C1340 C1341 1.367 . S
C1341 C1340 1.367 . S
C1341 C1343 1.433 . S
C1342 C1338 1.350 . S
C1342 C1339 1.463 . S
C1342 N1346 1.427 . S
C1343 H1333 0.929 . S
C1343 C1341 1.433 . S
C1343 N1346 1.384 . S
C1344 H1335 0.929 . S
C1344 C1336 1.378 . S
C1344 C1339 1.350 . S
C1345 H1332 0.929 . S
C1345 C1337 1.433 . S
C1345 N1347 1.384 . S
N1346 C1342 1.427 . S
N1346 C1343 1.384 . S
N1347 C1339 1.427 . S
N1347 C1345 1.384 . S
H1348 C1354 0.930 . S
H1349 C1358 0.930 . S
H1350 C1363 0.929 . S
H1351 C1361 0.929 . S
H1352 C1356 0.929 . S
H1353 C1362 0.929 . S
C1354 H1348 0.930 . S
C1354 C1355 1.367 . S
C1354 C1362 1.378 . S
C1355 C1354 1.367 . S
C1355 C1363 1.433 . S
C1356 H1352 0.929 . S
C1356 C1358 1.378 . S
C1356 C1360 1.350 . S
C1357 C1360 1.463 . S
C1357 C1362 1.350 . S
C1357 N1365 1.427 . S
C1358 H1349 0.930 . S
C1358 C1356 1.378 . S
C1358 C1359 1.367 . S
C1359 C1358 1.367 . S
C1359 C1361 1.433 . S
C1360 C1356 1.350 . S
C1360 C1357 1.463 . S
C1360 N1364 1.427 . S
C1361 H1351 0.929 . S
C1361 C1359 1.433 . S
C1361 N1364 1.384 . S
C1362 H1353 0.929 . S
C1362 C1354 1.378 . S
C1362 C1357 1.350 . S
C1363 H1350 0.929 . S
C1363 C1355 1.433 . S
C1363 N1365 1.384 . S
N1364 C1360 1.427 . S
N1364 C1361 1.384 . S
N1365 C1357 1.427 . S
N1365 C1363 1.384 . S
H1366 C1372 0.930 . S
H1367 C1376 0.930 . S
H1368 C1381 0.929 . S
H1369 C1379 0.929 . S
H1370 C1374 0.929 . S
H1371 C1380 0.929 . S
C1372 H1366 0.930 . S
C1372 C1373 1.367 . S
C1372 C1380 1.378 . S
C1373 C1372 1.367 . S
C1373 C1381 1.433 . S
C1374 H1370 0.929 . S
C1374 C1376 1.378 . S
C1374 C1378 1.350 . S
C1375 C1378 1.463 . S
C1375 C1380 1.350 . S
C1375 N1383 1.427 . S
C1376 H1367 0.930 . S
C1376 C1374 1.378 . S
C1376 C1377 1.367 . S
C1377 C1376 1.367 . S
C1377 C1379 1.433 . S
C1378 C1374 1.350 . S
C1378 C1375 1.463 . S
C1378 N1382 1.427 . S
C1379 H1369 0.929 . S
C1379 C1377 1.433 . S
C1379 N1382 1.384 . S
C1380 H1371 0.929 . S
C1380 C1372 1.378 . S
C1380 C1375 1.350 . S
C1381 H1368 0.929 . S
C1381 C1373 1.433 . S
C1381 N1383 1.384 . S
N1382 C1378 1.427 . S
N1382 C1379 1.384 . S
N1383 C1375 1.427 . S
N1383 C1381 1.384 . S
H1384 C1390 0.930 . S
H1385 C1394 0.930 . S
H1386 C1399 0.929 . S
H1387 C1397 0.929 . S
H1388 C1392 0.929 . S
H1389 C1398 0.929 . S
C1390 H1384 0.930 . S
C1390 C1391 1.367 . S
C1390 C1398 1.378 . S
C1391 C1390 1.367 . S
C1391 C1399 1.433 . S
C1392 H1388 0.929 . S
C1392 C1394 1.378 . S
C1392 C1396 1.350 . S
C1393 C1396 1.463 . S
C1393 C1398 1.350 . S
C1393 N1401 1.427 . S
C1394 H1385 0.930 . S
C1394 C1392 1.378 . S
C1394 C1395 1.367 . S
C1395 C1394 1.367 . S
C1395 C1397 1.433 . S
C1396 C1392 1.350 . S
C1396 C1393 1.463 . S
C1396 N1400 1.427 . S
C1397 H1387 0.929 . S
C1397 C1395 1.433 . S
C1397 N1400 1.384 . S
C1398 H1389 0.929 . S
C1398 C1390 1.378 . S
C1398 C1393 1.350 . S
C1399 H1386 0.929 . S
C1399 C1391 1.433 . S
C1399 N1401 1.384 . S
N1400 C1396 1.427 . S
N1400 C1397 1.384 . S
N1401 C1393 1.427 . S
N1401 C1399 1.384 . S
H1402 C1408 0.930 . S
H1403 C1412 0.930 . S
H1404 C1417 0.929 . S
H1405 C1415 0.929 . S
H1406 C1410 0.929 . S
H1407 C1416 0.929 . S
C1408 H1402 0.930 . S
C1408 C1409 1.367 . S
C1408 C1416 1.378 . S
C1409 C1408 1.367 . S
C1409 C1417 1.433 . S
C1410 H1406 0.929 . S
C1410 C1412 1.378 . S
C1410 C1414 1.350 . S
C1411 C1414 1.463 . S
C1411 C1416 1.350 . S
C1411 N1419 1.427 . S
C1412 H1403 0.930 . S
C1412 C1410 1.378 . S
C1412 C1413 1.367 . S
C1413 C1412 1.367 . S
C1413 C1415 1.433 . S
C1414 C1410 1.350 . S
C1414 C1411 1.463 . S
C1414 N1418 1.427 . S
C1415 H1405 0.929 . S
C1415 C1413 1.433 . S
C1415 N1418 1.384 . S
C1416 H1407 0.929 . S
C1416 C1408 1.378 . S
C1416 C1411 1.350 . S
C1417 H1404 0.929 . S
C1417 C1409 1.433 . S
C1417 N1419 1.384 . S
N1418 C1414 1.427 . S
N1418 C1415 1.384 . S
N1419 C1411 1.427 . S
N1419 C1417 1.384 . S
H1420 C1426 0.930 . S
H1421 C1430 0.930 . S
H1422 C1435 0.929 . S
H1423 C1433 0.929 . S
H1424 C1428 0.929 . S
H1425 C1434 0.929 . S
C1426 H1420 0.930 . S
C1426 C1427 1.367 . S
C1426 C1434 1.378 . S
C1427 C1426 1.367 . S
C1427 C1435 1.433 . S
C1428 H1424 0.929 . S
C1428 C1430 1.378 . S
C1428 C1432 1.350 . S
C1429 C1432 1.463 . S
C1429 C1434 1.350 . S
C1429 N1437 1.427 . S
C1430 H1421 0.930 . S
C1430 C1428 1.378 . S
C1430 C1431 1.367 . S
C1431 C1430 1.367 . S
C1431 C1433 1.433 . S
C1432 C1428 1.350 . S
C1432 C1429 1.463 . S
C1432 N1436 1.427 . S
C1433 H1423 0.929 . S
C1433 C1431 1.433 . S
C1433 N1436 1.384 . S
C1434 H1425 0.929 . S
C1434 C1426 1.378 . S
C1434 C1429 1.350 . S
C1435 H1422 0.929 . S
C1435 C1427 1.433 . S
C1435 N1437 1.384 . S
N1436 C1432 1.427 . S
N1436 C1433 1.384 . S
N1437 C1429 1.427 . S
N1437 C1435 1.384 . S
H1438 C1444 0.930 . S
H1439 C1448 0.930 . S
H1440 C1453 0.929 . S
H1441 C1451 0.929 . S
H1442 C1446 0.929 . S
H1443 C1452 0.929 . S
C1444 H1438 0.930 . S
C1444 C1445 1.367 . S
C1444 C1452 1.378 . S
C1445 C1444 1.367 . S
C1445 C1453 1.433 . S
C1446 H1442 0.929 . S
C1446 C1448 1.378 . S
C1446 C1450 1.350 . S
C1447 C1450 1.463 . S
C1447 C1452 1.350 . S
C1447 N1455 1.427 . S
C1448 H1439 0.930 . S
C1448 C1446 1.378 . S
C1448 C1449 1.367 . S
C1449 C1448 1.367 . S
C1449 C1451 1.433 . S
C1450 C1446 1.350 . S
C1450 C1447 1.463 . S
C1450 N1454 1.427 . S
C1451 H1441 0.929 . S
C1451 C1449 1.433 . S
C1451 N1454 1.384 . S
C1452 H1443 0.929 . S
C1452 C1444 1.378 . S
C1452 C1447 1.350 . S
C1453 H1440 0.929 . S
C1453 C1445 1.433 . S
C1453 N1455 1.384 . S
N1454 C1450 1.427 . S
N1454 C1451 1.384 . S
N1455 C1447 1.427 . S
N1455 C1453 1.384 . S
H1456 C1462 0.930 . S
H1457 C1466 0.930 . S
H1458 C1471 0.929 . S
H1459 C1469 0.929 . S
H1460 C1464 0.929 . S
H1461 C1470 0.929 . S
C1462 H1456 0.930 . S
C1462 C1463 1.367 . S
C1462 C1470 1.378 . S
C1463 C1462 1.367 . S
C1463 C1471 1.433 . S
C1464 H1460 0.929 . S
C1464 C1466 1.378 . S
C1464 C1468 1.350 . S
C1465 C1468 1.463 . S
C1465 C1470 1.350 . S
C1465 N1473 1.427 . S
C1466 H1457 0.930 . S
C1466 C1464 1.378 . S
C1466 C1467 1.367 . S
C1467 C1466 1.367 . S
C1467 C1469 1.433 . S
C1468 C1464 1.350 . S
C1468 C1465 1.463 . S
C1468 N1472 1.427 . S
C1469 H1459 0.929 . S
C1469 C1467 1.433 . S
C1469 N1472 1.384 . S
C1470 H1461 0.929 . S
C1470 C1462 1.378 . S
C1470 C1465 1.350 . S
C1471 H1458 0.929 . S
C1471 C1463 1.433 . S
C1471 N1473 1.384 . S
N1472 C1468 1.427 . S
N1472 C1469 1.384 . S
N1473 C1465 1.427 . S
N1473 C1471 1.384 . S
H1474 C1480 0.930 . S
H1475 C1484 0.930 . S
H1476 C1489 0.929 . S
H1477 C1487 0.929 . S
H1478 C1482 0.929 . S
H1479 C1488 0.929 . S
C1480 H1474 0.930 . S
C1480 C1481 1.367 . S
C1480 C1488 1.378 . S
C1481 C1480 1.367 . S
C1481 C1489 1.433 . S
C1482 H1478 0.929 . S
C1482 C1484 1.378 . S
C1482 C1486 1.350 . S
C1483 C1486 1.463 . S
C1483 C1488 1.350 . S
C1483 N1491 1.427 . S
C1484 H1475 0.930 . S
C1484 C1482 1.378 . S
C1484 C1485 1.367 . S
C1485 C1484 1.367 . S
C1485 C1487 1.433 . S
C1486 C1482 1.350 . S
C1486 C1483 1.463 . S
C1486 N1490 1.427 . S
C1487 H1477 0.929 . S
C1487 C1485 1.433 . S
C1487 N1490 1.384 . S
C1488 H1479 0.929 . S
C1488 C1480 1.378 . S
C1488 C1483 1.350 . S
C1489 H1476 0.929 . S
C1489 C1481 1.433 . S
C1489 N1491 1.384 . S
N1490 C1486 1.427 . S
N1490 C1487 1.384 . S
N1491 C1483 1.427 . S
N1491 C1489 1.384 . S
H1492 C1498 0.930 . S
H1493 C1502 0.930 1_554 S
H1494 C1507 0.929 . S
H1495 C1505 0.929 . S
H1496 C1500 0.929 . S
H1497 C1506 0.929 . S
C1498 H1492 0.930 . S
C1498 C1499 1.367 . S
C1498 C1506 1.378 . S
C1499 C1498 1.367 . S
C1499 C1507 1.433 . S
C1500 H1496 0.929 . S
C1500 C1502 1.378 . S
C1500 C1504 1.350 . S
C1501 C1504 1.463 . S
C1501 C1506 1.350 . S
C1501 N1509 1.427 . S
C1502 H1493 0.930 1_556 S
C1502 C1500 1.378 . S
C1502 C1503 1.367 . S
C1503 C1502 1.367 . S
C1503 C1505 1.433 . S
C1504 C1500 1.350 . S
C1504 C1501 1.463 . S
C1504 N1508 1.427 . S
C1505 H1495 0.929 . S
C1505 C1503 1.433 . S
C1505 N1508 1.384 . S
C1506 H1497 0.929 . S
C1506 C1498 1.378 . S
C1506 C1501 1.350 . S
C1507 H1494 0.929 . S
C1507 C1499 1.433 . S
C1507 N1509 1.384 . S
N1508 C1504 1.427 . S
N1508 C1505 1.384 . S
N1509 C1501 1.427 . S
N1509 C1507 1.384 . S
H1510 C1516 0.930 . S
H1511 C1520 0.930 . S
H1512 C1525 0.929 . S
H1513 C1523 0.929 . S
H1514 C1518 0.929 . S
H1515 C1524 0.929 . S
C1516 H1510 0.930 . S
C1516 C1517 1.367 . S
C1516 C1524 1.378 . S
C1517 C1516 1.367 . S
C1517 C1525 1.433 . S
C1518 H1514 0.929 . S
C1518 C1520 1.378 . S
C1518 C1522 1.350 . S
C1519 C1522 1.463 . S
C1519 C1524 1.350 . S
C1519 N1527 1.427 . S
C1520 H1511 0.930 . S
C1520 C1518 1.378 . S
C1520 C1521 1.367 . S
C1521 C1520 1.367 . S
C1521 C1523 1.433 . S
C1522 C1518 1.350 . S
C1522 C1519 1.463 . S
C1522 N1526 1.427 . S
C1523 H1513 0.929 . S
C1523 C1521 1.433 . S
C1523 N1526 1.384 . S
C1524 H1515 0.929 . S
C1524 C1516 1.378 . S
C1524 C1519 1.350 . S
C1525 H1512 0.929 . S
C1525 C1517 1.433 . S
C1525 N1527 1.384 . S
N1526 C1522 1.427 . S
N1526 C1523 1.384 . S
N1527 C1519 1.427 . S
N1527 C1525 1.384 . S
H1528 C1534 0.930 . S
H1529 C1538 0.930 . S
H1530 C1543 0.929 . S
H1531 C1541 0.929 . S
H1532 C1536 0.929 . S
H1533 C1542 0.929 . S
C1534 H1528 0.930 . S
C1534 C1535 1.367 . S
C1534 C1542 1.378 . S
C1535 C1534 1.367 . S
C1535 C1543 1.433 . S
C1536 H1532 0.929 . S
C1536 C1538 1.378 . S
C1536 C1540 1.350 . S
C1537 C1540 1.463 . S
C1537 C1542 1.350 . S
C1537 N1545 1.427 . S
C1538 H1529 0.930 . S
C1538 C1536 1.378 . S
C1538 C1539 1.367 . S
C1539 C1538 1.367 . S
C1539 C1541 1.433 . S
C1540 C1536 1.350 . S
C1540 C1537 1.463 . S
C1540 N1544 1.427 . S
C1541 H1531 0.929 . S
C1541 C1539 1.433 . S
C1541 N1544 1.384 . S
C1542 H1533 0.929 . S
C1542 C1534 1.378 . S
C1542 C1537 1.350 . S
C1543 H1530 0.929 . S
C1543 C1535 1.433 . S
C1543 N1545 1.384 . S
N1544 C1540 1.427 . S
N1544 C1541 1.384 . S
N1545 C1537 1.427 . S
N1545 C1543 1.384 . S
H1546 C1552 0.930 . S
H1547 C1556 0.930 . S
H1548 C1561 0.929 . S
H1549 C1559 0.929 . S
H1550 C1554 0.929 . S
H1551 C1560 0.929 . S
C1552 H1546 0.930 . S
C1552 C1553 1.367 . S
C1552 C1560 1.378 . S
C1553 C1552 1.367 . S
C1553 C1561 1.433 . S
C1554 H1550 0.929 . S
C1554 C1556 1.378 . S
C1554 C1558 1.350 . S
C1555 C1558 1.463 . S
C1555 C1560 1.350 . S
C1555 N1563 1.427 . S
C1556 H1547 0.930 . S
C1556 C1554 1.378 . S
C1556 C1557 1.367 . S
C1557 C1556 1.367 . S
C1557 C1559 1.433 . S
C1558 C1554 1.350 . S
C1558 C1555 1.463 . S
C1558 N1562 1.427 . S
C1559 H1549 0.929 . S
C1559 C1557 1.433 . S
C1559 N1562 1.384 . S
C1560 H1551 0.929 . S
C1560 C1552 1.378 . S
C1560 C1555 1.350 . S
C1561 H1548 0.929 . S
C1561 C1553 1.433 . S
C1561 N1563 1.384 . S
N1562 C1558 1.427 . S
N1562 C1559 1.384 . S
N1563 C1555 1.427 . S
N1563 C1561 1.384 . S
H1564 C1570 0.930 . S
H1565 C1574 0.930 . S
H1566 C1579 0.929 . S
H1567 C1577 0.929 . S
H1568 C1572 0.929 1_565 S
H1569 C1578 0.929 . S
C1570 H1564 0.930 . S
C1570 C1571 1.367 . S
C1570 C1578 1.378 . S
C1571 C1570 1.367 . S
C1571 C1579 1.433 1_545 S
C1572 H1568 0.929 1_545 S
C1572 C1574 1.378 . S
C1572 C1576 1.350 . S
C1573 C1576 1.463 . S
C1573 C1578 1.350 . S
C1573 N1581 1.427 1_545 S
C1574 H1565 0.930 . S
C1574 C1572 1.378 . S
C1574 C1575 1.367 . S
C1575 C1574 1.367 . S
C1575 C1577 1.433 . S
C1576 C1572 1.350 . S
C1576 C1573 1.463 . S
C1576 N1580 1.427 . S
C1577 H1567 0.929 . S
C1577 C1575 1.433 . S
C1577 N1580 1.384 . S
C1578 H1569 0.929 . S
C1578 C1570 1.378 . S
C1578 C1573 1.350 . S
C1579 H1566 0.929 . S
C1579 C1571 1.433 1_565 S
C1579 N1581 1.384 . S
N1580 C1576 1.427 . S
N1580 C1577 1.384 . S
N1581 C1573 1.427 1_565 S
N1581 C1579 1.384 . S
H1582 C1588 0.930 . S
H1583 C1592 0.930 . S
H1584 C1597 0.929 . S
H1585 C1595 0.929 . S
H1586 C1590 0.929 . S
H1587 C1596 0.929 . S
C1588 H1582 0.930 . S
C1588 C1589 1.367 . S
C1588 C1596 1.378 . S
C1589 C1588 1.367 . S
C1589 C1597 1.433 . S
C1590 H1586 0.929 . S
C1590 C1592 1.378 . S
C1590 C1594 1.350 . S
C1591 C1594 1.463 . S
C1591 C1596 1.350 . S
C1591 N1599 1.427 . S
C1592 H1583 0.930 . S
C1592 C1590 1.378 . S
C1592 C1593 1.367 . S
C1593 C1592 1.367 . S
C1593 C1595 1.433 . S
C1594 C1590 1.350 . S
C1594 C1591 1.463 . S
C1594 N1598 1.427 . S
C1595 H1585 0.929 . S
C1595 C1593 1.433 . S
C1595 N1598 1.384 . S
C1596 H1587 0.929 . S
C1596 C1588 1.378 . S
C1596 C1591 1.350 . S
C1597 H1584 0.929 . S
C1597 C1589 1.433 . S
C1597 N1599 1.384 . S
N1598 C1594 1.427 . S
N1598 C1595 1.384 . S
N1599 C1591 1.427 . S
N1599 C1597 1.384 . S
H1600 C1606 0.930 . S
H1601 C1610 0.930 . S
H1602 C1615 0.929 . S
H1603 C1613 0.929 . S
H1604 C1608 0.929 . S
H1605 C1614 0.929 . S
C1606 H1600 0.930 . S
C1606 C1607 1.367 . S
C1606 C1614 1.378 . S
C1607 C1606 1.367 . S
C1607 C1615 1.433 . S
C1608 H1604 0.929 . S
C1608 C1610 1.378 . S
C1608 C1612 1.350 . S
C1609 C1612 1.463 . S
C1609 C1614 1.350 . S
C1609 N1617 1.427 . S
C1610 H1601 0.930 . S
C1610 C1608 1.378 . S
C1610 C1611 1.367 . S
C1611 C1610 1.367 . S
C1611 C1613 1.433 . S
C1612 C1608 1.350 . S
C1612 C1609 1.463 . S
C1612 N1616 1.427 . S
C1613 H1603 0.929 . S
C1613 C1611 1.433 . S
C1613 N1616 1.384 . S
C1614 H1605 0.929 . S
C1614 C1606 1.378 . S
C1614 C1609 1.350 . S
C1615 H1602 0.929 . S
C1615 C1607 1.433 . S
C1615 N1617 1.384 . S
N1616 C1612 1.427 . S
N1616 C1613 1.384 . S
N1617 C1609 1.427 . S
N1617 C1615 1.384 . S
H1618 C1624 0.930 . S
H1619 C1628 0.930 . S
H1620 C1633 0.929 . S
H1621 C1631 0.929 . S
H1622 C1626 0.929 . S
H1623 C1632 0.929 . S
C1624 H1618 0.930 . S
C1624 C1625 1.367 . S
C1624 C1632 1.378 . S
C1625 C1624 1.367 . S
C1625 C1633 1.433 . S
C1626 H1622 0.929 . S
C1626 C1628 1.378 . S
C1626 C1630 1.350 . S
C1627 C1630 1.463 . S
C1627 C1632 1.350 . S
C1627 N1635 1.427 . S
C1628 H1619 0.930 . S
C1628 C1626 1.378 . S
C1628 C1629 1.367 . S
C1629 C1628 1.367 . S
C1629 C1631 1.433 . S
C1630 C1626 1.350 . S
C1630 C1627 1.463 . S
C1630 N1634 1.427 . S
C1631 H1621 0.929 . S
C1631 C1629 1.433 . S
C1631 N1634 1.384 . S
C1632 H1623 0.929 . S
C1632 C1624 1.378 . S
C1632 C1627 1.350 . S
C1633 H1620 0.929 . S
C1633 C1625 1.433 . S
C1633 N1635 1.384 . S
N1634 C1630 1.427 . S
N1634 C1631 1.384 . S
N1635 C1627 1.427 . S
N1635 C1633 1.384 . S
H1636 C1642 0.930 . S
H1637 C1646 0.930 . S
H1638 C1651 0.929 . S
H1639 C1649 0.929 . S
H1640 C1644 0.929 . S
H1641 C1650 0.929 . S
C1642 H1636 0.930 . S
C1642 C1643 1.367 . S
C1642 C1650 1.378 . S
C1643 C1642 1.367 . S
C1643 C1651 1.433 1_545 S
C1644 H1640 0.929 . S
C1644 C1646 1.378 . S
C1644 C1648 1.350 1_565 S
C1645 C1648 1.463 . S
C1645 C1650 1.350 . S
C1645 N1653 1.427 1_545 S
C1646 H1637 0.930 . S
C1646 C1644 1.378 . S
C1646 C1647 1.372 . S
C1647 C1646 1.372 . S
C1647 C1649 1.427 1_565 S
C1648 C1644 1.350 1_545 S
C1648 C1645 1.463 . S
C1648 N1652 1.427 . S
C1649 H1639 0.929 . S
C1649 C1647 1.427 1_545 S
C1649 N1652 1.384 . S
C1650 H1641 0.929 . S
C1650 C1642 1.378 . S
C1650 C1645 1.350 . S
C1651 H1638 0.929 . S
C1651 C1643 1.433 1_565 S
C1651 N1653 1.384 . S
N1652 C1648 1.427 . S
N1652 C1649 1.384 . S
N1653 C1645 1.427 1_565 S
N1653 C1651 1.384 . S
H1654 C1660 0.930 . S
H1655 C1664 0.930 . S
H1656 C1669 0.929 . S
H1657 C1667 0.929 . S
H1658 C1662 0.929 . S
H1659 C1668 0.929 . S
C1660 H1654 0.930 . S
C1660 C1661 1.367 . S
C1660 C1668 1.378 . S
C1661 C1660 1.367 . S
C1661 C1669 1.433 . S
C1662 H1658 0.929 . S
C1662 C1664 1.378 . S
C1662 C1666 1.350 . S
C1663 C1666 1.463 . S
C1663 C1668 1.350 . S
C1663 N1671 1.427 . S
C1664 H1655 0.930 . S
C1664 C1662 1.378 . S
C1664 C1665 1.367 . S
C1665 C1664 1.367 . S
C1665 C1667 1.433 . S
C1666 C1662 1.350 . S
C1666 C1663 1.463 . S
C1666 N1670 1.427 . S
C1667 H1657 0.929 . S
C1667 C1665 1.433 . S
C1667 N1670 1.384 . S
C1668 H1659 0.929 . S
C1668 C1660 1.378 . S
C1668 C1663 1.350 . S
C1669 H1656 0.929 . S
C1669 C1661 1.433 . S
C1669 N1671 1.384 . S
N1670 C1666 1.427 . S
N1670 C1667 1.384 . S
N1671 C1663 1.427 . S
N1671 C1669 1.384 . S
H1672 C1678 0.930 . S
H1673 C1682 0.930 1_556 S
H1674 C1687 0.929 . S
H1675 C1685 0.929 . S
H1676 C1680 0.929 . S
H1677 C1686 0.929 . S
C1678 H1672 0.930 . S
C1678 C1679 1.367 . S
C1678 C1686 1.378 . S
C1679 C1678 1.367 . S
C1679 C1687 1.433 . S
C1680 H1676 0.929 . S
C1680 C1682 1.378 . S
C1680 C1684 1.350 . S
C1681 C1684 1.463 . S
C1681 C1686 1.350 . S
C1681 N1689 1.427 . S
C1682 H1673 0.930 1_554 S
C1682 C1680 1.378 . S
C1682 C1683 1.367 . S
C1683 C1682 1.367 . S
C1683 C1685 1.433 . S
C1684 C1680 1.350 . S
C1684 C1681 1.463 . S
C1684 N1688 1.427 . S
C1685 H1675 0.929 . S
C1685 C1683 1.433 . S
C1685 N1688 1.384 . S
C1686 H1677 0.929 . S
C1686 C1678 1.378 . S
C1686 C1681 1.350 . S
C1687 H1674 0.929 . S
C1687 C1679 1.433 . S
C1687 N1689 1.384 . S
N1688 C1684 1.427 . S
N1688 C1685 1.384 . S
N1689 C1681 1.427 . S
N1689 C1687 1.384 . S
H1690 C1696 0.930 . S
H1691 C1700 0.930 1_556 S
H1692 C1705 0.929 . S
H1693 C1703 0.929 . S
H1694 C1698 0.916 1_556 S
H1695 C1704 0.929 . S
C1696 H1690 0.930 . S
C1696 C1697 1.367 . S
C1696 C1704 1.378 . S
C1697 C1696 1.367 . S
C1697 C1705 1.433 . S
C1698 H1694 0.916 1_554 S
C1698 C1700 1.378 . S
C1698 C1702 1.350 . S
C1699 C1702 1.463 . S
C1699 C1704 1.350 . S
C1699 N1707 1.427 . S
C1700 H1691 0.930 1_554 S
C1700 C1698 1.378 . S
C1700 C1701 1.367 . S
C1701 C1700 1.367 . S
C1701 C1703 1.433 . S
C1702 C1698 1.350 . S
C1702 C1699 1.463 . S
C1702 N1706 1.427 . S
C1703 H1693 0.929 . S
C1703 C1701 1.433 . S
C1703 N1706 1.384 . S
C1704 H1695 0.929 . S
C1704 C1696 1.378 . S
C1704 C1699 1.350 . S
C1705 H1692 0.929 . S
C1705 C1697 1.433 . S
C1705 N1707 1.384 . S
N1706 C1702 1.427 . S
N1706 C1703 1.384 . S
N1707 C1699 1.427 . S
N1707 C1705 1.384 . S
H1708 C1714 0.930 . S
H1709 C1718 0.930 . S
H1710 C1723 0.929 . S
H1711 C1721 0.929 . S
H1712 C1716 0.929 . S
H1713 C1722 0.929 . S
C1714 H1708 0.930 . S
C1714 C1715 1.367 . S
C1714 C1722 1.378 . S
C1715 C1714 1.367 . S
C1715 C1723 1.433 . S
C1716 H1712 0.929 . S
C1716 C1718 1.378 . S
C1716 C1720 1.350 . S
C1717 C1720 1.463 . S
C1717 C1722 1.350 . S
C1717 N1725 1.427 . S
C1718 H1709 0.930 . S
C1718 C1716 1.378 . S
C1718 C1719 1.367 . S
C1719 C1718 1.367 . S
C1719 C1721 1.433 . S
C1720 C1716 1.350 . S
C1720 C1717 1.463 . S
C1720 N1724 1.427 . S
C1721 H1711 0.929 . S
C1721 C1719 1.433 . S
C1721 N1724 1.384 . S
C1722 H1713 0.929 . S
C1722 C1714 1.378 . S
C1722 C1717 1.350 . S
C1723 H1710 0.929 . S
C1723 C1715 1.433 . S
C1723 N1725 1.384 . S
N1724 C1720 1.427 . S
N1724 C1721 1.384 . S
N1725 C1717 1.427 . S
N1725 C1723 1.384 . S
H1726 C1732 0.930 . S
H1727 C1736 0.930 . S
H1728 C1741 0.929 . S
H1729 C1739 0.929 . S
H1730 C1734 0.929 . S
H1731 C1740 0.929 . S
C1732 H1726 0.930 . S
C1732 C1733 1.367 . S
C1732 C1740 1.378 . S
C1733 C1732 1.367 . S
C1733 C1741 1.433 . S
C1734 H1730 0.929 . S
C1734 C1736 1.378 . S
C1734 C1738 1.350 . S
C1735 C1738 1.463 . S
C1735 C1740 1.350 . S
C1735 N1743 1.427 . S
C1736 H1727 0.930 . S
C1736 C1734 1.378 . S
C1736 C1737 1.367 . S
C1737 C1736 1.367 . S
C1737 C1739 1.433 . S
C1738 C1734 1.350 . S
C1738 C1735 1.463 . S
C1738 N1742 1.427 . S
C1739 H1729 0.929 . S
C1739 C1737 1.433 . S
C1739 N1742 1.384 . S
C1740 H1731 0.929 . S
C1740 C1732 1.378 . S
C1740 C1735 1.350 . S
C1741 H1728 0.929 . S
C1741 C1733 1.433 . S
C1741 N1743 1.384 . S
N1742 C1738 1.427 . S
N1742 C1739 1.384 . S
N1743 C1735 1.427 . S
N1743 C1741 1.384 . S
H1744 C1750 0.930 . S
H1745 C1754 0.930 . S
H1746 C1759 0.929 . S
H1747 C1757 0.929 . S
H1748 C1752 0.929 . S
H1749 C1758 0.930 1_565 S
C1750 H1744 0.930 . S
C1750 C1751 1.367 . S
C1750 C1758 1.375 . S
C1751 C1750 1.367 . S
C1751 C1759 1.433 . S
C1752 H1748 0.929 . S
C1752 C1754 1.378 . S
C1752 C1756 1.350 . S
C1753 C1756 1.463 . S
C1753 C1758 1.352 1_565 S
C1753 N1761 1.427 . S
C1754 H1745 0.930 . S
C1754 C1752 1.378 . S
C1754 C1755 1.367 . S
C1755 C1754 1.367 . S
C1755 C1757 1.433 . S
C1756 C1752 1.350 . S
C1756 C1753 1.463 . S
C1756 N1760 1.427 . S
C1757 H1747 0.929 . S
C1757 C1755 1.433 . S
C1757 N1760 1.384 . S
C1758 H1749 0.930 1_545 S
C1758 C1750 1.375 . S
C1758 C1753 1.352 1_545 S
C1759 H1746 0.929 . S
C1759 C1751 1.433 . S
C1759 N1761 1.384 1_545 S
N1760 C1756 1.427 . S
N1760 C1757 1.384 . S
N1761 C1753 1.427 . S
N1761 C1759 1.384 1_565 S
H1762 C1768 0.930 . S
H1763 C1772 0.930 . S
H1764 C1777 0.929 . S
H1765 C1775 0.929 . S
H1766 C1770 0.929 . S
H1767 C1776 0.929 . S
C1768 H1762 0.930 . S
C1768 C1769 1.367 . S
C1768 C1776 1.378 . S
C1769 C1768 1.367 . S
C1769 C1777 1.433 . S
C1770 H1766 0.929 . S
C1770 C1772 1.378 . S
C1770 C1774 1.350 . S
C1771 C1774 1.463 . S
C1771 C1776 1.350 . S
C1771 N1779 1.427 . S
C1772 H1763 0.930 . S
C1772 C1770 1.378 . S
C1772 C1773 1.367 . S
C1773 C1772 1.367 . S
C1773 C1775 1.433 . S
C1774 C1770 1.350 . S
C1774 C1771 1.463 . S
C1774 N1778 1.427 . S
C1775 H1765 0.929 . S
C1775 C1773 1.433 . S
C1775 N1778 1.384 . S
C1776 H1767 0.929 . S
C1776 C1768 1.378 . S
C1776 C1771 1.350 . S
C1777 H1764 0.929 . S
C1777 C1769 1.433 . S
C1777 N1779 1.384 . S
N1778 C1774 1.427 . S
N1778 C1775 1.384 . S
N1779 C1771 1.427 . S
N1779 C1777 1.384 . S
H1780 C1786 0.930 . S
H1781 C1790 0.930 . S
H1782 C1795 0.929 . S
H1783 C1793 0.929 . S
H1784 C1788 0.929 . S
H1785 C1794 0.929 . S
C1786 H1780 0.930 . S
C1786 C1787 1.367 . S
C1786 C1794 1.378 . S
C1787 C1786 1.367 . S
C1787 C1795 1.433 . S
C1788 H1784 0.929 . S
C1788 C1790 1.378 . S
C1788 C1792 1.350 . S
C1789 C1792 1.463 . S
C1789 C1794 1.350 . S
C1789 N1797 1.427 . S
C1790 H1781 0.930 . S
C1790 C1788 1.378 . S
C1790 C1791 1.367 . S
C1791 C1790 1.367 . S
C1791 C1793 1.433 . S
C1792 C1788 1.350 . S
C1792 C1789 1.463 . S
C1792 N1796 1.427 . S
C1793 H1783 0.929 . S
C1793 C1791 1.433 . S
C1793 N1796 1.384 . S
C1794 H1785 0.929 . S
C1794 C1786 1.378 . S
C1794 C1789 1.350 . S
C1795 H1782 0.929 . S
C1795 C1787 1.433 . S
C1795 N1797 1.384 . S
N1796 C1792 1.427 . S
N1796 C1793 1.384 . S
N1797 C1789 1.427 . S
N1797 C1795 1.384 . S
H1798 C1804 0.930 . S
H1799 C1808 0.930 . S
H1800 C1813 0.929 . S
H1801 C1811 0.929 . S
H1802 C1806 0.929 . S
H1803 C1812 0.929 . S
C1804 H1798 0.930 . S
C1804 C1805 1.367 . S
C1804 C1812 1.378 . S
C1805 C1804 1.367 . S
C1805 C1813 1.433 . S
C1806 H1802 0.929 . S
C1806 C1808 1.378 . S
C1806 C1810 1.350 . S
C1807 C1810 1.463 . S
C1807 C1812 1.350 . S
C1807 N1815 1.427 . S
C1808 H1799 0.930 . S
C1808 C1806 1.378 . S
C1808 C1809 1.367 . S
C1809 C1808 1.367 . S
C1809 C1811 1.433 . S
C1810 C1806 1.350 . S
C1810 C1807 1.463 . S
C1810 N1814 1.427 . S
C1811 H1801 0.929 . S
C1811 C1809 1.433 . S
C1811 N1814 1.384 . S
C1812 H1803 0.929 . S
C1812 C1804 1.378 . S
C1812 C1807 1.350 . S
C1813 H1800 0.929 . S
C1813 C1805 1.433 . S
C1813 N1815 1.384 . S
N1814 C1810 1.427 . S
N1814 C1811 1.384 . S
N1815 C1807 1.427 . S
N1815 C1813 1.384 . S
H1816 C1822 0.930 . S
H1817 C1826 0.930 . S
H1818 C1831 0.929 . S
H1819 C1829 0.929 . S
H1820 C1824 0.929 . S
H1821 C1830 0.929 . S
C1822 H1816 0.930 . S
C1822 C1823 1.367 . S
C1822 C1830 1.378 . S
C1823 C1822 1.367 . S
C1823 C1831 1.433 . S
C1824 H1820 0.929 . S
C1824 C1826 1.378 . S
C1824 C1828 1.350 . S
C1825 C1828 1.463 . S
C1825 C1830 1.350 . S
C1825 N1833 1.427 . S
C1826 H1817 0.930 . S
C1826 C1824 1.378 . S
C1826 C1827 1.367 . S
C1827 C1826 1.367 . S
C1827 C1829 1.433 . S
C1828 C1824 1.350 . S
C1828 C1825 1.463 . S
C1828 N1832 1.427 . S
C1829 H1819 0.929 . S
C1829 C1827 1.433 . S
C1829 N1832 1.384 . S
C1830 H1821 0.929 . S
C1830 C1822 1.378 . S
C1830 C1825 1.350 . S
C1831 H1818 0.929 . S
C1831 C1823 1.433 . S
C1831 N1833 1.384 . S
N1832 C1828 1.427 . S
N1832 C1829 1.384 . S
N1833 C1825 1.427 . S
N1833 C1831 1.384 . S
H1834 C1840 0.930 . S
H1835 C1844 0.930 . S
H1836 C1849 0.929 . S
H1837 C1847 0.929 . S
H1838 C1842 0.929 . S
H1839 C1848 0.929 . S
C1840 H1834 0.930 . S
C1840 C1841 1.367 . S
C1840 C1848 1.378 . S
C1841 C1840 1.367 . S
C1841 C1849 1.433 . S
C1842 H1838 0.929 . S
C1842 C1844 1.378 . S
C1842 C1846 1.350 . S
C1843 C1846 1.463 . S
C1843 C1848 1.350 . S
C1843 N1851 1.427 . S
C1844 H1835 0.930 . S
C1844 C1842 1.378 . S
C1844 C1845 1.367 . S
C1845 C1844 1.367 . S
C1845 C1847 1.433 . S
C1846 C1842 1.350 . S
C1846 C1843 1.463 . S
C1846 N1850 1.427 . S
C1847 H1837 0.929 . S
C1847 C1845 1.433 . S
C1847 N1850 1.384 . S
C1848 H1839 0.929 . S
C1848 C1840 1.378 . S
C1848 C1843 1.350 . S
C1849 H1836 0.929 . S
C1849 C1841 1.433 . S
C1849 N1851 1.384 . S
N1850 C1846 1.427 . S
N1850 C1847 1.384 . S
N1851 C1843 1.427 . S
N1851 C1849 1.384 . S
H1852 C1858 0.930 . S
H1853 C1862 0.930 . S
H1854 C1867 0.926 1_655 S
H1855 C1865 0.929 . S
H1856 C1860 0.929 . S
H1857 C1866 0.929 . S
C1858 H1852 0.930 . S
C1858 C1859 1.367 . S
C1858 C1866 1.378 . S
C1859 C1858 1.367 . S
C1859 C1867 1.444 1_556 S
C1860 H1856 0.929 . S
C1860 C1862 1.378 . S
C1860 C1864 1.350 . S
C1861 C1864 1.463 . S
C1861 C1866 1.350 1_554 S
C1861 N1869 1.427 . S
C1862 H1853 0.930 . S
C1862 C1860 1.378 . S
C1862 C1863 1.367 . S
C1863 C1862 1.367 . S
C1863 C1865 1.433 . S
C1864 C1860 1.350 . S
C1864 C1861 1.463 . S
C1864 N1868 1.427 . S
C1865 H1855 0.929 . S
C1865 C1863 1.433 . S
C1865 N1868 1.384 . S
C1866 H1857 0.929 . S
C1866 C1858 1.378 . S
C1866 C1861 1.350 1_556 S
C1867 H1854 0.926 1_455 S
C1867 C1859 1.444 1_554 S
C1867 N1869 1.377 . S
N1868 C1864 1.427 . S
N1868 C1865 1.384 . S
N1869 C1861 1.427 . S
N1869 C1867 1.377 . S
H1870 C1876 0.930 . S
H1871 C1880 0.930 . S
H1872 C1885 0.929 . S
H1873 C1883 0.929 . S
H1874 C1878 0.929 . S
H1875 C1884 0.929 . S
C1876 H1870 0.930 . S
C1876 C1877 1.367 . S
C1876 C1884 1.378 . S
C1877 C1876 1.367 . S
C1877 C1885 1.435 . S
C1878 H1874 0.929 . S
C1878 C1880 1.378 . S
C1878 C1882 1.350 . S
C1879 C1882 1.463 . S
C1879 C1884 1.350 . S
C1879 N1887 1.427 . S
C1880 H1871 0.930 . S
C1880 C1878 1.378 . S
C1880 C1881 1.367 . S
C1881 C1880 1.367 . S
C1881 C1883 1.433 . S
C1882 C1878 1.350 . S
C1882 C1879 1.463 . S
C1882 N1886 1.427 . S
C1883 H1873 0.929 . S
C1883 C1881 1.433 . S
C1883 N1886 1.384 . S
C1884 H1875 0.929 . S
C1884 C1876 1.378 . S
C1884 C1879 1.350 . S
C1885 H1872 0.929 . S
C1885 C1877 1.435 . S
C1885 N1887 1.384 . S
N1886 C1882 1.427 . S
N1886 C1883 1.384 . S
N1887 C1879 1.427 . S
N1887 C1885 1.384 . S
H1888 C1894 0.930 . S
H1889 C1898 0.930 . S
H1890 C1903 0.929 . S
H1891 C1901 0.929 . S
H1892 C1896 0.929 . S
H1893 C1902 0.929 . S
C1894 H1888 0.930 . S
C1894 C1895 1.367 . S
C1894 C1902 1.378 . S
C1895 C1894 1.367 . S
C1895 C1903 1.433 . S
C1896 H1892 0.929 . S
C1896 C1898 1.378 . S
C1896 C1900 1.350 . S
C1897 C1900 1.463 . S
C1897 C1902 1.350 . S
C1897 N1905 1.427 . S
C1898 H1889 0.930 . S
C1898 C1896 1.378 . S
C1898 C1899 1.367 . S
C1899 C1898 1.367 . S
C1899 C1901 1.433 . S
C1900 C1896 1.350 . S
C1900 C1897 1.463 . S
C1900 N1904 1.427 . S
C1901 H1891 0.929 . S
C1901 C1899 1.433 . S
C1901 N1904 1.384 . S
C1902 H1893 0.929 . S
C1902 C1894 1.378 . S
C1902 C1897 1.350 . S
C1903 H1890 0.929 . S
C1903 C1895 1.433 . S
C1903 N1905 1.384 . S
N1904 C1900 1.427 . S
N1904 C1901 1.384 . S
N1905 C1897 1.427 . S
N1905 C1903 1.384 . S
H1906 C1912 0.930 . S
H1907 C1916 0.930 . S
H1908 C1921 0.929 . S
H1909 C1919 0.929 . S
H1910 C1914 0.929 . S
H1911 C1920 0.929 . S
C1912 H1906 0.930 . S
C1912 C1913 1.367 . S
C1912 C1920 1.378 . S
C1913 C1912 1.367 . S
C1913 C1921 1.433 . S
C1914 H1910 0.929 . S
C1914 C1916 1.378 . S
C1914 C1918 1.350 . S
C1915 C1918 1.463 . S
C1915 C1920 1.350 . S
C1915 N1923 1.427 . S
C1916 H1907 0.930 . S
C1916 C1914 1.378 . S
C1916 C1917 1.367 . S
C1917 C1916 1.367 . S
C1917 C1919 1.433 . S
C1918 C1914 1.350 . S
C1918 C1915 1.463 . S
C1918 N1922 1.427 . S
C1919 H1909 0.929 . S
C1919 C1917 1.433 . S
C1919 N1922 1.384 . S
C1920 H1911 0.929 . S
C1920 C1912 1.378 . S
C1920 C1915 1.350 . S
C1921 H1908 0.929 . S
C1921 C1913 1.433 . S
C1921 N1923 1.384 . S
N1922 C1918 1.427 . S
N1922 C1919 1.384 . S
N1923 C1915 1.427 . S
N1923 C1921 1.384 . S
H1924 C1930 0.930 . S
H1925 C1934 0.930 . S
H1926 C1939 0.929 . S
H1927 C1937 0.929 . S
H1928 C1932 0.929 . S
H1929 C1938 0.929 . S
C1930 H1924 0.930 . S
C1930 C1931 1.367 . S
C1930 C1938 1.378 . S
C1931 C1930 1.367 . S
C1931 C1939 1.433 . S
C1932 H1928 0.929 . S
C1932 C1934 1.378 . S
C1932 C1936 1.350 . S
C1933 C1936 1.463 . S
C1933 C1938 1.350 . S
C1933 N1941 1.427 . S
C1934 H1925 0.930 . S
C1934 C1932 1.378 . S
C1934 C1935 1.367 . S
C1935 C1934 1.367 . S
C1935 C1937 1.433 . S
C1936 C1932 1.350 . S
C1936 C1933 1.463 . S
C1936 N1940 1.427 . S
C1937 H1927 0.929 . S
C1937 C1935 1.433 . S
C1937 N1940 1.384 . S
C1938 H1929 0.929 . S
C1938 C1930 1.378 . S
C1938 C1933 1.350 . S
C1939 H1926 0.929 . S
C1939 C1931 1.433 . S
C1939 N1941 1.384 . S
N1940 C1936 1.427 . S
N1940 C1937 1.384 . S
N1941 C1933 1.427 . S
N1941 C1939 1.384 . S
H1942 C1948 0.930 . S
H1943 C1952 0.930 . S
H1944 C1957 0.929 . S
H1945 C1955 0.929 . S
H1946 C1950 0.929 . S
H1947 C1956 0.929 . S
C1948 H1942 0.930 . S
C1948 C1949 1.367 . S
C1948 C1956 1.378 . S
C1949 C1948 1.367 . S
C1949 C1957 1.433 . S
C1950 H1946 0.929 . S
C1950 C1952 1.378 . S
C1950 C1954 1.350 . S
C1951 C1954 1.463 . S
C1951 C1956 1.350 . S
C1951 N1959 1.427 . S
C1952 H1943 0.930 . S
C1952 C1950 1.378 . S
C1952 C1953 1.367 . S
C1953 C1952 1.367 . S
C1953 C1955 1.433 . S
C1954 C1950 1.350 . S
C1954 C1951 1.463 . S
C1954 N1958 1.427 . S
C1955 H1945 0.929 . S
C1955 C1953 1.433 . S
C1955 N1958 1.384 . S
C1956 H1947 0.929 . S
C1956 C1948 1.378 . S
C1956 C1951 1.350 . S
C1957 H1944 0.929 . S
C1957 C1949 1.433 . S
C1957 N1959 1.384 . S
N1958 C1954 1.427 . S
N1958 C1955 1.384 . S
N1959 C1951 1.427 . S
N1959 C1957 1.384 . S
H1960 C1966 0.930 . S
H1961 C1970 0.930 . S
H1962 C1975 0.929 . S
H1963 C1973 0.929 . S
H1964 C1968 0.929 . S
H1965 C1974 0.929 . S
C1966 H1960 0.930 . S
C1966 C1967 1.367 . S
C1966 C1974 1.378 . S
C1967 C1966 1.367 . S
C1967 C1975 1.433 . S
C1968 H1964 0.929 . S
C1968 C1970 1.378 . S
C1968 C1972 1.350 . S
C1969 C1972 1.463 . S
C1969 C1974 1.350 . S
C1969 N1977 1.427 . S
C1970 H1961 0.930 . S
C1970 C1968 1.378 . S
C1970 C1971 1.367 . S
C1971 C1970 1.367 . S
C1971 C1973 1.433 . S
C1972 C1968 1.350 . S
C1972 C1969 1.463 . S
C1972 N1976 1.427 . S
C1973 H1963 0.929 . S
C1973 C1971 1.433 . S
C1973 N1976 1.384 . S
C1974 H1965 0.929 . S
C1974 C1966 1.378 . S
C1974 C1969 1.350 . S
C1975 H1962 0.929 . S
C1975 C1967 1.433 . S
C1975 N1977 1.384 . S
N1976 C1972 1.427 . S
N1976 C1973 1.384 . S
N1977 C1969 1.427 . S
N1977 C1975 1.384 . S
H1978 C1984 0.930 . S
H1979 C1988 0.930 . S
H1980 C1993 0.929 . S
H1981 C1991 0.929 . S
H1982 C1986 0.929 1_554 S
H1983 C1992 0.929 . S
C1984 H1978 0.930 . S
C1984 C1985 1.367 1_556 S
C1984 C1992 1.378 . S
C1985 C1984 1.367 1_554 S
C1985 C1993 1.433 . S
C1986 H1982 0.929 1_556 S
C1986 C1988 1.378 . S
C1986 C1990 1.350 . S
C1987 C1990 1.463 . S
C1987 C1992 1.350 . S
C1987 N1995 1.427 1_556 S
C1988 H1979 0.930 . S
C1988 C1986 1.378 . S
C1988 C1989 1.367 . S
C1989 C1988 1.367 . S
C1989 C1991 1.433 . S
C1990 C1986 1.350 . S
C1990 C1987 1.463 . S
C1990 N1994 1.427 . S
C1991 H1981 0.929 . S
C1991 C1989 1.433 . S
C1991 N1994 1.384 . S
C1992 H1983 0.929 . S
C1992 C1984 1.378 . S
C1992 C1987 1.350 . S
C1993 H1980 0.929 . S
C1993 C1985 1.433 . S
C1993 N1995 1.384 . S
N1994 C1990 1.427 . S
N1994 C1991 1.384 . S
N1995 C1987 1.427 1_554 S
N1995 C1993 1.384 . S
H1996 C2002 0.930 . S
H1997 C2006 0.930 . S
H1998 C2011 0.929 . S
H1999 C2009 0.929 . S
H2000 C2004 0.929 . S
H2001 C2010 0.929 . S
C2002 H1996 0.930 . S
C2002 C2003 1.367 . S
C2002 C2010 1.378 . S
C2003 C2002 1.367 . S
C2003 C2011 1.433 . S
C2004 H2000 0.929 . S
C2004 C2006 1.378 . S
C2004 C2008 1.350 . S
C2005 C2008 1.463 . S
C2005 C2010 1.350 . S
C2005 N2013 1.427 . S
C2006 H1997 0.930 . S
C2006 C2004 1.378 . S
C2006 C2007 1.367 . S
C2007 C2006 1.367 . S
C2007 C2009 1.433 . S
C2008 C2004 1.350 . S
C2008 C2005 1.463 . S
C2008 N2012 1.427 . S
C2009 H1999 0.929 . S
C2009 C2007 1.433 . S
C2009 N2012 1.384 . S
C2010 H2001 0.929 . S
C2010 C2002 1.378 . S
C2010 C2005 1.350 . S
C2011 H1998 0.929 . S
C2011 C2003 1.433 . S
C2011 N2013 1.384 . S
N2012 C2008 1.427 . S
N2012 C2009 1.384 . S
N2013 C2005 1.427 . S
N2013 C2011 1.384 . S
H2014 C2020 0.930 . S
H2015 C2024 0.930 . S
H2016 C2029 0.929 . S
H2017 C2027 0.929 . S
H2018 C2022 0.929 . S
H2019 C2028 0.929 . S
C2020 H2014 0.930 . S
C2020 C2021 1.367 . S
C2020 C2028 1.378 . S
C2021 C2020 1.367 . S
C2021 C2029 1.433 . S
C2022 H2018 0.929 . S
C2022 C2024 1.378 . S
C2022 C2026 1.350 . S
C2023 C2026 1.463 . S
C2023 C2028 1.350 . S
C2023 N2031 1.427 . S
C2024 H2015 0.930 . S
C2024 C2022 1.378 . S
C2024 C2025 1.367 . S
C2025 C2024 1.367 . S
C2025 C2027 1.433 . S
C2026 C2022 1.350 . S
C2026 C2023 1.463 . S
C2026 N2030 1.427 . S
C2027 H2017 0.929 . S
C2027 C2025 1.433 . S
C2027 N2030 1.384 . S
C2028 H2019 0.929 . S
C2028 C2020 1.378 . S
C2028 C2023 1.350 . S
C2029 H2016 0.929 . S
C2029 C2021 1.433 . S
C2029 N2031 1.384 . S
N2030 C2026 1.427 . S
N2030 C2027 1.384 . S
N2031 C2023 1.427 . S
N2031 C2029 1.384 . S
H2032 C2038 0.930 . S
H2033 C2042 0.930 . S
H2034 C2047 0.929 . S
H2035 C2045 0.929 . S
H2036 C2040 0.929 . S
H2037 C2046 0.929 . S
C2038 H2032 0.930 . S
C2038 C2039 1.367 . S
C2038 C2046 1.378 . S
C2039 C2038 1.367 . S
C2039 C2047 1.433 . S
C2040 H2036 0.929 . S
C2040 C2042 1.378 . S
C2040 C2044 1.350 . S
C2041 C2044 1.463 . S
C2041 C2046 1.350 . S
C2041 N2049 1.427 . S
C2042 H2033 0.930 . S
C2042 C2040 1.378 . S
C2042 C2043 1.367 . S
C2043 C2042 1.367 . S
C2043 C2045 1.433 . S
C2044 C2040 1.350 . S
C2044 C2041 1.463 . S
C2044 N2048 1.427 . S
C2045 H2035 0.929 . S
C2045 C2043 1.433 . S
C2045 N2048 1.384 . S
C2046 H2037 0.929 . S
C2046 C2038 1.378 . S
C2046 C2041 1.350 . S
C2047 H2034 0.929 . S
C2047 C2039 1.433 . S
C2047 N2049 1.384 . S
N2048 C2044 1.427 . S
N2048 C2045 1.384 . S
N2049 C2041 1.427 . S
N2049 C2047 1.384 . S
H2050 C2056 0.930 . S
H2051 C2060 0.930 . S
H2052 C2065 0.929 . S
H2053 C2063 0.929 . S
H2054 C2058 0.929 . S
H2055 C2064 0.929 . S
C2056 H2050 0.930 . S
C2056 C2057 1.367 . S
C2056 C2064 1.378 . S
C2057 C2056 1.367 . S
C2057 C2065 1.433 . S
C2058 H2054 0.929 . S
C2058 C2060 1.378 . S
C2058 C2062 1.350 . S
C2059 C2062 1.463 . S
C2059 C2064 1.350 . S
C2059 N2067 1.427 . S
C2060 H2051 0.930 . S
C2060 C2058 1.378 . S
C2060 C2061 1.367 . S
C2061 C2060 1.367 . S
C2061 C2063 1.433 . S
C2062 C2058 1.350 . S
C2062 C2059 1.463 . S
C2062 N2066 1.427 . S
C2063 H2053 0.929 . S
C2063 C2061 1.433 . S
C2063 N2066 1.384 . S
C2064 H2055 0.929 . S
C2064 C2056 1.378 . S
C2064 C2059 1.350 . S
C2065 H2052 0.929 . S
C2065 C2057 1.433 . S
C2065 N2067 1.384 . S
N2066 C2062 1.427 . S
N2066 C2063 1.384 . S
N2067 C2059 1.427 . S
N2067 C2065 1.384 . S
H2068 C2074 0.930 . S
H2069 C2078 0.930 . S
H2070 C2083 0.929 . S
H2071 C2081 0.929 . S
H2072 C2076 0.929 . S
H2073 C2082 0.929 . S
C2074 H2068 0.930 . S
C2074 C2075 1.367 . S
C2074 C2082 1.378 . S
C2075 C2074 1.367 . S
C2075 C2083 1.433 . S
C2076 H2072 0.929 . S
C2076 C2078 1.378 . S
C2076 C2080 1.350 . S
C2077 C2080 1.463 . S
C2077 C2082 1.350 . S
C2077 N2085 1.427 . S
C2078 H2069 0.930 . S
C2078 C2076 1.378 . S
C2078 C2079 1.367 . S
C2079 C2078 1.367 . S
C2079 C2081 1.433 . S
C2080 C2076 1.350 . S
C2080 C2077 1.463 . S
C2080 N2084 1.427 . S
C2081 H2071 0.929 . S
C2081 C2079 1.433 . S
C2081 N2084 1.384 . S
C2082 H2073 0.929 . S
C2082 C2074 1.378 . S
C2082 C2077 1.350 . S
C2083 H2070 0.929 . S
C2083 C2075 1.433 . S
C2083 N2085 1.384 . S
N2084 C2080 1.427 . S
N2084 C2081 1.384 . S
N2085 C2077 1.427 . S
N2085 C2083 1.384 . S
H2086 C2092 0.930 . S
H2087 C2096 0.930 . S
H2088 C2101 0.929 . S
H2089 C2099 0.929 . S
H2090 C2094 0.929 . S
H2091 C2100 0.929 . S
C2092 H2086 0.930 . S
C2092 C2093 1.367 . S
C2092 C2100 1.378 . S
C2093 C2092 1.367 . S
C2093 C2101 1.433 . S
C2094 H2090 0.929 . S
C2094 C2096 1.378 . S
C2094 C2098 1.350 . S
C2095 C2098 1.463 . S
C2095 C2100 1.350 . S
C2095 N2103 1.427 . S
C2096 H2087 0.930 . S
C2096 C2094 1.378 . S
C2096 C2097 1.367 . S
C2097 C2096 1.367 . S
C2097 C2099 1.433 . S
C2098 C2094 1.350 . S
C2098 C2095 1.463 . S
C2098 N2102 1.427 . S
C2099 H2089 0.929 . S
C2099 C2097 1.433 . S
C2099 N2102 1.384 . S
C2100 H2091 0.929 . S
C2100 C2092 1.378 . S
C2100 C2095 1.350 . S
C2101 H2088 0.929 . S
C2101 C2093 1.433 . S
C2101 N2103 1.384 . S
N2102 C2098 1.427 . S
N2102 C2099 1.384 . S
N2103 C2095 1.427 . S
N2103 C2101 1.384 . S
H2104 C2110 0.930 . S
H2105 C2114 0.930 . S
H2106 C2119 0.929 . S
H2107 C2117 0.929 . S
H2108 C2112 0.929 . S
H2109 C2118 0.929 . S
C2110 H2104 0.930 . S
C2110 C2111 1.367 . S
C2110 C2118 1.378 . S
C2111 C2110 1.367 . S
C2111 C2119 1.433 . S
C2112 H2108 0.929 . S
C2112 C2114 1.378 . S
C2112 C2116 1.350 . S
C2113 C2116 1.463 . S
C2113 C2118 1.350 . S
C2113 N2121 1.427 . S
C2114 H2105 0.930 . S
C2114 C2112 1.378 . S
C2114 C2115 1.367 . S
C2115 C2114 1.367 . S
C2115 C2117 1.433 . S
C2116 C2112 1.350 . S
C2116 C2113 1.463 . S
C2116 N2120 1.427 . S
C2117 H2107 0.929 . S
C2117 C2115 1.433 . S
C2117 N2120 1.384 . S
C2118 H2109 0.929 . S
C2118 C2110 1.378 . S
C2118 C2113 1.350 . S
C2119 H2106 0.929 . S
C2119 C2111 1.433 . S
C2119 N2121 1.384 . S
N2120 C2116 1.427 . S
N2120 C2117 1.384 . S
N2121 C2113 1.427 . S
N2121 C2119 1.384 . S
H2122 C2128 0.930 . S
H2123 C2132 0.930 . S
H2124 C2137 0.929 . S
H2125 C2135 0.929 . S
H2126 C2130 0.929 . S
H2127 C2136 0.929 . S
C2128 H2122 0.930 . S
C2128 C2129 1.367 . S
C2128 C2136 1.378 . S
C2129 C2128 1.367 . S
C2129 C2137 1.433 . S
C2130 H2126 0.929 . S
C2130 C2132 1.378 . S
C2130 C2134 1.350 . S
C2131 C2134 1.463 . S
C2131 C2136 1.350 . S
C2131 N2139 1.427 . S
C2132 H2123 0.930 . S
C2132 C2130 1.378 . S
C2132 C2133 1.367 . S
C2133 C2132 1.367 . S
C2133 C2135 1.433 . S
C2134 C2130 1.350 . S
C2134 C2131 1.463 . S
C2134 N2138 1.427 . S
C2135 H2125 0.929 . S
C2135 C2133 1.433 . S
C2135 N2138 1.384 . S
C2136 H2127 0.929 . S
C2136 C2128 1.378 . S
C2136 C2131 1.350 . S
C2137 H2124 0.929 . S
C2137 C2129 1.433 . S
C2137 N2139 1.384 . S
N2138 C2134 1.427 . S
N2138 C2135 1.384 . S
N2139 C2131 1.427 . S
N2139 C2137 1.384 . S
H2140 C2146 0.930 . S
H2141 C2150 0.930 . S
H2142 C2155 0.929 . S
H2143 C2153 0.929 . S
H2144 C2148 0.929 . S
H2145 C2154 0.929 . S
C2146 H2140 0.930 . S
C2146 C2147 1.367 . S
C2146 C2154 1.378 . S
C2147 C2146 1.367 . S
C2147 C2155 1.433 1_565 S
C2148 H2144 0.929 . S
C2148 C2150 1.378 . S
C2148 C2152 1.350 . S
C2149 C2152 1.463 . S
C2149 C2154 1.350 . S
C2149 N2157 1.427 . S
C2150 H2141 0.930 . S
C2150 C2148 1.378 . S
C2150 C2151 1.367 . S
C2151 C2150 1.367 . S
C2151 C2153 1.433 . S
C2152 C2148 1.350 . S
C2152 C2149 1.463 . S
C2152 N2156 1.427 . S
C2153 H2143 0.929 . S
C2153 C2151 1.433 . S
C2153 N2156 1.384 . S
C2154 H2145 0.929 . S
C2154 C2146 1.378 . S
C2154 C2149 1.350 . S
C2155 H2142 0.929 . S
C2155 C2147 1.433 1_545 S
C2155 N2157 1.384 1_545 S
N2156 C2152 1.427 . S
N2156 C2153 1.384 . S
N2157 C2149 1.427 . S
N2157 C2155 1.384 1_565 S
H2158 C2164 0.930 . S
H2159 C2168 0.930 . S
H2160 C2173 0.929 . S
H2161 C2171 0.929 . S
H2162 C2166 0.918 1_565 S
H2163 C2172 0.929 . S
C2164 H2158 0.930 . S
C2164 C2165 1.390 . S
C2164 C2172 1.378 . S
C2165 C2164 1.390 . S
C2165 C2173 1.411 1_556 S
C2166 H2162 0.918 1_545 S
C2166 C2168 1.378 . S
C2166 C2170 1.350 1_545 S
C2167 C2170 1.463 . S
C2167 C2172 1.350 1_554 S
C2167 N2175 1.427 . S
C2168 H2159 0.930 . S
C2168 C2166 1.378 . S
C2168 C2169 1.367 . S
C2169 C2168 1.367 . S
C2169 C2171 1.433 1_554 S
C2170 C2166 1.350 1_565 S
C2170 C2167 1.463 . S
C2170 N2174 1.427 1_564 S
C2171 H2161 0.929 . S
C2171 C2169 1.433 1_556 S
C2171 N2174 1.384 . S
C2172 H2163 0.929 . S
C2172 C2164 1.378 . S
C2172 C2167 1.350 1_556 S
C2173 H2160 0.929 . S
C2173 C2165 1.411 1_554 S
C2173 N2175 1.384 . S
N2174 C2170 1.427 1_546 S
N2174 C2171 1.384 . S
N2175 C2167 1.427 . S
N2175 C2173 1.384 . S
H2176 C2182 0.930 . S
H2177 C2186 0.930 . S
H2178 C2191 0.929 . S
H2179 C2189 0.929 . S
H2180 C2184 0.929 . S
H2181 C2190 0.929 . S
C2182 H2176 0.930 . S
C2182 C2183 1.367 . S
C2182 C2190 1.378 . S
C2183 C2182 1.367 . S
C2183 C2191 1.433 . S
C2184 H2180 0.929 . S
C2184 C2186 1.378 . S
C2184 C2188 1.350 . S
C2185 C2188 1.463 . S
C2185 C2190 1.350 . S
C2185 N2193 1.427 . S
C2186 H2177 0.930 . S
C2186 C2184 1.378 . S
C2186 C2187 1.367 . S
C2187 C2186 1.367 . S
C2187 C2189 1.433 . S
C2188 C2184 1.350 . S
C2188 C2185 1.463 . S
C2188 N2192 1.427 . S
C2189 H2179 0.929 . S
C2189 C2187 1.433 . S
C2189 N2192 1.384 . S
C2190 H2181 0.929 . S
C2190 C2182 1.378 . S
C2190 C2185 1.350 . S
C2191 H2178 0.929 . S
C2191 C2183 1.433 . S
C2191 N2193 1.384 . S
N2192 C2188 1.427 . S
N2192 C2189 1.384 . S
N2193 C2185 1.427 . S
N2193 C2191 1.384 . S
H2194 C2200 0.930 . S
H2195 C2204 0.930 . S
H2196 C2209 0.929 . S
H2197 C2207 0.929 . S
H2198 C2202 0.929 . S
H2199 C2208 0.929 . S
C2200 H2194 0.930 . S
C2200 C2201 1.367 . S
C2200 C2208 1.378 . S
C2201 C2200 1.367 . S
C2201 C2209 1.433 . S
C2202 H2198 0.929 . S
C2202 C2204 1.378 . S
C2202 C2206 1.350 . S
C2203 C2206 1.463 . S
C2203 C2208 1.350 . S
C2203 N2211 1.427 . S
C2204 H2195 0.930 . S
C2204 C2202 1.378 . S
C2204 C2205 1.367 . S
C2205 C2204 1.367 . S
C2205 C2207 1.433 . S
C2206 C2202 1.350 . S
C2206 C2203 1.463 . S
C2206 N2210 1.427 . S
C2207 H2197 0.929 . S
C2207 C2205 1.433 . S
C2207 N2210 1.384 . S
C2208 H2199 0.929 . S
C2208 C2200 1.378 . S
C2208 C2203 1.350 . S
C2209 H2196 0.929 . S
C2209 C2201 1.433 . S
C2209 N2211 1.384 . S
N2210 C2206 1.427 . S
N2210 C2207 1.384 . S
N2211 C2203 1.427 . S
N2211 C2209 1.384 . S
H2212 C2218 0.930 . S
H2213 C2222 0.930 . S
H2214 C2227 0.929 . S
H2215 C2225 0.929 . S
H2216 C2220 0.929 . S
H2217 C2226 0.929 . S
C2218 H2212 0.930 . S
C2218 C2219 1.367 . S
C2218 C2226 1.378 . S
C2219 C2218 1.367 . S
C2219 C2227 1.433 . S
C2220 H2216 0.929 . S
C2220 C2222 1.378 . S
C2220 C2224 1.350 . S
C2221 C2224 1.463 . S
C2221 C2226 1.350 . S
C2221 N2229 1.427 . S
C2222 H2213 0.930 . S
C2222 C2220 1.378 . S
C2222 C2223 1.367 . S
C2223 C2222 1.367 . S
C2223 C2225 1.433 . S
C2224 C2220 1.350 . S
C2224 C2221 1.463 . S
C2224 N2228 1.427 . S
C2225 H2215 0.929 . S
C2225 C2223 1.433 . S
C2225 N2228 1.384 . S
C2226 H2217 0.929 . S
C2226 C2218 1.378 . S
C2226 C2221 1.350 . S
C2227 H2214 0.929 . S
C2227 C2219 1.433 . S
C2227 N2229 1.384 . S
N2228 C2224 1.427 . S
N2228 C2225 1.384 . S
N2229 C2221 1.427 . S
N2229 C2227 1.384 . S
H2230 C2236 0.930 . S
H2231 C2240 0.930 . S
H2232 C2245 0.929 . S
H2233 C2243 0.929 . S
H2234 C2238 0.929 . S
H2235 C2244 0.929 . S
C2236 H2230 0.930 . S
C2236 C2237 1.367 . S
C2236 C2244 1.378 . S
C2237 C2236 1.367 . S
C2237 C2245 1.433 . S
C2238 H2234 0.929 . S
C2238 C2240 1.378 . S
C2238 C2242 1.350 . S
C2239 C2242 1.463 . S
C2239 C2244 1.350 . S
C2239 N2247 1.427 . S
C2240 H2231 0.930 . S
C2240 C2238 1.378 . S
C2240 C2241 1.367 . S
C2241 C2240 1.367 . S
C2241 C2243 1.433 . S
C2242 C2238 1.350 . S
C2242 C2239 1.463 . S
C2242 N2246 1.427 . S
C2243 H2233 0.929 . S
C2243 C2241 1.433 . S
C2243 N2246 1.384 . S
C2244 H2235 0.929 . S
C2244 C2236 1.378 . S
C2244 C2239 1.350 . S
C2245 H2232 0.929 . S
C2245 C2237 1.433 . S
C2245 N2247 1.384 . S
N2246 C2242 1.427 . S
N2246 C2243 1.384 . S
N2247 C2239 1.427 . S
N2247 C2245 1.384 . S
H2248 C2254 0.930 . S
H2249 C2258 0.930 . S
H2250 C2263 0.929 . S
H2251 C2261 0.929 . S
H2252 C2256 0.929 . S
H2253 C2262 0.929 . S
C2254 H2248 0.930 . S
C2254 C2255 1.367 . S
C2254 C2262 1.378 . S
C2255 C2254 1.367 . S
C2255 C2263 1.433 . S
C2256 H2252 0.929 . S
C2256 C2258 1.378 . S
C2256 C2260 1.350 . S
C2257 C2260 1.463 . S
C2257 C2262 1.350 . S
C2257 N2265 1.427 . S
C2258 H2249 0.930 . S
C2258 C2256 1.378 . S
C2258 C2259 1.367 . S
C2259 C2258 1.367 . S
C2259 C2261 1.433 . S
C2260 C2256 1.350 . S
C2260 C2257 1.463 . S
C2260 N2264 1.427 . S
C2261 H2251 0.929 . S
C2261 C2259 1.433 . S
C2261 N2264 1.384 . S
C2262 H2253 0.929 . S
C2262 C2254 1.378 . S
C2262 C2257 1.350 . S
C2263 H2250 0.929 . S
C2263 C2255 1.433 . S
C2263 N2265 1.384 . S
N2264 C2260 1.427 . S
N2264 C2261 1.384 . S
N2265 C2257 1.427 . S
N2265 C2263 1.384 . S
H2266 C2272 0.930 . S
H2267 C2276 0.930 . S
H2268 C2281 0.929 . S
H2269 C2279 0.929 . S
H2270 C2274 0.929 . S
H2271 C2280 0.929 . S
C2272 H2266 0.930 . S
C2272 C2273 1.367 . S
C2272 C2280 1.378 . S
C2273 C2272 1.367 . S
C2273 C2281 1.433 . S
C2274 H2270 0.929 . S
C2274 C2276 1.378 . S
C2274 C2278 1.350 . S
C2275 C2278 1.463 . S
C2275 C2280 1.350 . S
C2275 N2283 1.427 . S
C2276 H2267 0.930 . S
C2276 C2274 1.378 . S
C2276 C2277 1.367 . S
C2277 C2276 1.367 . S
C2277 C2279 1.433 . S
C2278 C2274 1.350 . S
C2278 C2275 1.463 . S
C2278 N2282 1.427 . S
C2279 H2269 0.929 . S
C2279 C2277 1.433 . S
C2279 N2282 1.384 . S
C2280 H2271 0.929 . S
C2280 C2272 1.378 . S
C2280 C2275 1.350 . S
C2281 H2268 0.929 . S
C2281 C2273 1.433 . S
C2281 N2283 1.384 . S
N2282 C2278 1.427 . S
N2282 C2279 1.384 . S
N2283 C2275 1.427 . S
N2283 C2281 1.384 . S
H2284 C2290 0.930 . S
H2285 C2294 0.930 . S
H2286 C2299 0.929 . S
H2287 C2297 0.929 . S
H2288 C2292 0.929 . S
H2289 C2298 0.929 . S
C2290 H2284 0.930 . S
C2290 C2291 1.367 . S
C2290 C2298 1.378 . S
C2291 C2290 1.367 . S
C2291 C2299 1.433 . S
C2292 H2288 0.929 . S
C2292 C2294 1.378 . S
C2292 C2296 1.350 . S
C2293 C2296 1.463 . S
C2293 C2298 1.350 . S
C2293 N2301 1.427 . S
C2294 H2285 0.930 . S
C2294 C2292 1.378 . S
C2294 C2295 1.367 . S
C2295 C2294 1.367 . S
C2295 C2297 1.433 . S
C2296 C2292 1.350 . S
C2296 C2293 1.463 . S
C2296 N2300 1.427 . S
C2297 H2287 0.929 . S
C2297 C2295 1.433 . S
C2297 N2300 1.384 . S
C2298 H2289 0.929 . S
C2298 C2290 1.378 . S
C2298 C2293 1.350 . S
C2299 H2286 0.929 . S
C2299 C2291 1.433 . S
C2299 N2301 1.384 . S
N2300 C2296 1.427 . S
N2300 C2297 1.384 . S
N2301 C2293 1.427 . S
N2301 C2299 1.384 . S
H2302 C2308 0.930 . S
H2303 C2312 0.930 . S
H2304 C2317 0.929 . S
H2305 C2315 0.929 . S
H2306 C2310 0.929 . S
H2307 C2316 0.929 . S
C2308 H2302 0.930 . S
C2308 C2309 1.367 . S
C2308 C2316 1.378 . S
C2309 C2308 1.367 . S
C2309 C2317 1.433 . S
C2310 H2306 0.929 . S
C2310 C2312 1.378 . S
C2310 C2314 1.350 . S
C2311 C2314 1.463 . S
C2311 C2316 1.350 . S
C2311 N2319 1.427 . S
C2312 H2303 0.930 . S
C2312 C2310 1.378 . S
C2312 C2313 1.367 . S
C2313 C2312 1.367 . S
C2313 C2315 1.433 . S
C2314 C2310 1.350 . S
C2314 C2311 1.463 . S
C2314 N2318 1.427 . S
C2315 H2305 0.929 . S
C2315 C2313 1.433 . S
C2315 N2318 1.384 . S
C2316 H2307 0.929 . S
C2316 C2308 1.378 . S
C2316 C2311 1.350 . S
C2317 H2304 0.929 . S
C2317 C2309 1.433 . S
C2317 N2319 1.384 . S
N2318 C2314 1.427 . S
N2318 C2315 1.384 . S
N2319 C2311 1.427 . S
N2319 C2317 1.384 . S
H2320 C2326 0.930 . S
H2321 C2330 0.930 . S
H2322 C2335 0.929 . S
H2323 C2333 0.929 . S
H2324 C2328 0.929 . S
H2325 C2334 0.929 . S
C2326 H2320 0.930 . S
C2326 C2327 1.367 . S
C2326 C2334 1.378 . S
C2327 C2326 1.367 . S
C2327 C2335 1.433 . S
C2328 H2324 0.929 . S
C2328 C2330 1.378 . S
C2328 C2332 1.350 . S
C2329 C2332 1.463 . S
C2329 C2334 1.350 . S
C2329 N2337 1.427 . S
C2330 H2321 0.930 . S
C2330 C2328 1.378 . S
C2330 C2331 1.367 . S
C2331 C2330 1.367 . S
C2331 C2333 1.433 . S
C2332 C2328 1.350 . S
C2332 C2329 1.463 . S
C2332 N2336 1.427 . S
C2333 H2323 0.929 . S
C2333 C2331 1.433 . S
C2333 N2336 1.384 . S
C2334 H2325 0.929 . S
C2334 C2326 1.378 . S
C2334 C2329 1.350 . S
C2335 H2322 0.929 . S
C2335 C2327 1.433 . S
C2335 N2337 1.384 . S
N2336 C2332 1.427 . S
N2336 C2333 1.384 . S
N2337 C2329 1.427 . S
N2337 C2335 1.384 . S
H2338 C2344 0.930 . S
H2339 C2348 0.930 . S
H2340 C2353 0.929 . S
H2341 C2351 0.929 . S
H2342 C2346 0.929 . S
H2343 C2352 0.929 . S
C2344 H2338 0.930 . S
C2344 C2345 1.367 . S
C2344 C2352 1.378 . S
C2345 C2344 1.367 . S
C2345 C2353 1.433 . S
C2346 H2342 0.929 . S
C2346 C2348 1.378 . S
C2346 C2350 1.350 . S
C2347 C2350 1.463 . S
C2347 C2352 1.350 . S
C2347 N2355 1.427 . S
C2348 H2339 0.930 . S
C2348 C2346 1.378 . S
C2348 C2349 1.367 . S
C2349 C2348 1.367 . S
C2349 C2351 1.433 . S
C2350 C2346 1.350 . S
C2350 C2347 1.463 . S
C2350 N2354 1.427 . S
C2351 H2341 0.929 . S
C2351 C2349 1.433 . S
C2351 N2354 1.384 . S
C2352 H2343 0.929 . S
C2352 C2344 1.378 . S
C2352 C2347 1.350 . S
C2353 H2340 0.929 . S
C2353 C2345 1.433 . S
C2353 N2355 1.384 . S
N2354 C2350 1.427 . S
N2354 C2351 1.384 . S
N2355 C2347 1.427 . S
N2355 C2353 1.384 . S
H2356 C2362 0.930 . S
H2357 C2366 0.930 . S
H2358 C2371 0.929 . S
H2359 C2369 0.929 . S
H2360 C2364 0.929 . S
H2361 C2370 0.929 . S
C2362 H2356 0.930 . S
C2362 C2363 1.367 . S
C2362 C2370 1.378 . S
C2363 C2362 1.367 . S
C2363 C2371 1.433 . S
C2364 H2360 0.929 . S
C2364 C2366 1.378 . S
C2364 C2368 1.350 . S
C2365 C2368 1.463 . S
C2365 C2370 1.350 . S
C2365 N2373 1.427 . S
C2366 H2357 0.930 . S
C2366 C2364 1.378 . S
C2366 C2367 1.367 . S
C2367 C2366 1.367 . S
C2367 C2369 1.433 . S
C2368 C2364 1.350 . S
C2368 C2365 1.463 . S
C2368 N2372 1.427 . S
C2369 H2359 0.929 . S
C2369 C2367 1.433 . S
C2369 N2372 1.384 . S
C2370 H2361 0.929 . S
C2370 C2362 1.378 . S
C2370 C2365 1.350 . S
C2371 H2358 0.929 . S
C2371 C2363 1.433 . S
C2371 N2373 1.384 . S
N2372 C2368 1.427 . S
N2372 C2369 1.384 . S
N2373 C2365 1.427 . S
N2373 C2371 1.384 . S
H2374 C2380 0.930 . S
H2375 C2384 0.930 . S
H2376 C2389 0.929 . S
H2377 C2387 0.929 . S
H2378 C2382 0.929 . S
H2379 C2388 0.929 . S
C2380 H2374 0.930 . S
C2380 C2381 1.367 . S
C2380 C2388 1.378 . S
C2381 C2380 1.367 . S
C2381 C2389 1.433 . S
C2382 H2378 0.929 . S
C2382 C2384 1.378 . S
C2382 C2386 1.350 . S
C2383 C2386 1.463 . S
C2383 C2388 1.350 . S
C2383 N2391 1.427 . S
C2384 H2375 0.930 . S
C2384 C2382 1.378 . S
C2384 C2385 1.367 . S
C2385 C2384 1.367 . S
C2385 C2387 1.433 . S
C2386 C2382 1.350 . S
C2386 C2383 1.463 . S
C2386 N2390 1.427 . S
C2387 H2377 0.929 . S
C2387 C2385 1.433 . S
C2387 N2390 1.384 . S
C2388 H2379 0.929 . S
C2388 C2380 1.378 . S
C2388 C2383 1.350 . S
C2389 H2376 0.929 . S
C2389 C2381 1.433 . S
C2389 N2391 1.384 . S
N2390 C2386 1.427 . S
N2390 C2387 1.384 . S
N2391 C2383 1.427 . S
N2391 C2389 1.384 . S
H2392 C2398 0.930 . S
H2393 C2402 0.930 . S
H2394 C2407 0.929 . S
H2395 C2405 0.929 . S
H2396 C2400 0.929 . S
H2397 C2406 0.929 . S
C2398 H2392 0.930 . S
C2398 C2399 1.367 . S
C2398 C2406 1.378 . S
C2399 C2398 1.367 . S
C2399 C2407 1.433 . S
C2400 H2396 0.929 . S
C2400 C2402 1.378 . S
C2400 C2404 1.350 . S
C2401 C2404 1.463 . S
C2401 C2406 1.350 . S
C2401 N2409 1.427 . S
C2402 H2393 0.930 . S
C2402 C2400 1.378 . S
C2402 C2403 1.367 . S
C2403 C2402 1.367 . S
C2403 C2405 1.433 . S
C2404 C2400 1.350 . S
C2404 C2401 1.463 . S
C2404 N2408 1.427 . S
C2405 H2395 0.929 . S
C2405 C2403 1.433 . S
C2405 N2408 1.384 . S
C2406 H2397 0.929 . S
C2406 C2398 1.378 . S
C2406 C2401 1.350 . S
C2407 H2394 0.929 . S
C2407 C2399 1.433 . S
C2407 N2409 1.384 . S
N2408 C2404 1.427 . S
N2408 C2405 1.384 . S
N2409 C2401 1.427 . S
N2409 C2407 1.384 . S
H2410 C2416 0.930 . S
H2411 C2420 0.930 . S
H2412 C2425 0.929 . S
H2413 C2423 0.929 . S
H2414 C2418 0.929 . S
H2415 C2424 0.929 . S
C2416 H2410 0.930 . S
C2416 C2417 1.367 . S
C2416 C2424 1.378 . S
C2417 C2416 1.367 . S
C2417 C2425 1.433 . S
C2418 H2414 0.929 . S
C2418 C2420 1.378 . S
C2418 C2422 1.350 . S
C2419 C2422 1.463 . S
C2419 C2424 1.350 . S
C2419 N2427 1.427 . S
C2420 H2411 0.930 . S
C2420 C2418 1.378 . S
C2420 C2421 1.367 . S
C2421 C2420 1.367 . S
C2421 C2423 1.433 . S
C2422 C2418 1.350 . S
C2422 C2419 1.463 . S
C2422 N2426 1.427 . S
C2423 H2413 0.929 . S
C2423 C2421 1.433 . S
C2423 N2426 1.384 . S
C2424 H2415 0.929 . S
C2424 C2416 1.378 . S
C2424 C2419 1.350 . S
C2425 H2412 0.929 . S
C2425 C2417 1.433 . S
C2425 N2427 1.384 . S
N2426 C2422 1.427 . S
N2426 C2423 1.384 . S
N2427 C2419 1.427 . S
N2427 C2425 1.384 . S
H2428 C2434 0.930 . S
H2429 C2438 0.930 . S
H2430 C2443 0.929 . S
H2431 C2441 0.929 . S
H2432 C2436 0.929 . S
H2433 C2442 0.929 . S
C2434 H2428 0.930 . S
C2434 C2435 1.367 . S
C2434 C2442 1.378 . S
C2435 C2434 1.367 . S
C2435 C2443 1.433 . S
C2436 H2432 0.929 . S
C2436 C2438 1.378 . S
C2436 C2440 1.350 . S
C2437 C2440 1.463 . S
C2437 C2442 1.350 . S
C2437 N2445 1.427 . S
C2438 H2429 0.930 . S
C2438 C2436 1.378 . S
C2438 C2439 1.367 . S
C2439 C2438 1.367 . S
C2439 C2441 1.433 . S
C2440 C2436 1.350 . S
C2440 C2437 1.463 . S
C2440 N2444 1.427 . S
C2441 H2431 0.929 . S
C2441 C2439 1.433 . S
C2441 N2444 1.384 . S
C2442 H2433 0.929 . S
C2442 C2434 1.378 . S
C2442 C2437 1.350 . S
C2443 H2430 0.929 . S
C2443 C2435 1.433 . S
C2443 N2445 1.384 . S
N2444 C2440 1.427 . S
N2444 C2441 1.384 . S
N2445 C2437 1.427 . S
N2445 C2443 1.384 . S
H2446 C2452 0.930 . S
H2447 C2456 0.930 . S
H2448 C2461 0.929 . S
H2449 C2459 0.929 . S
H2450 C2454 0.929 . S
H2451 C2460 0.929 . S
C2452 H2446 0.930 . S
C2452 C2453 1.367 . S
C2452 C2460 1.378 . S
C2453 C2452 1.367 . S
C2453 C2461 1.433 . S
C2454 H2450 0.929 . S
C2454 C2456 1.378 . S
C2454 C2458 1.350 . S
C2455 C2458 1.463 . S
C2455 C2460 1.350 . S
C2455 N2463 1.427 . S
C2456 H2447 0.930 . S
C2456 C2454 1.378 . S
C2456 C2457 1.367 . S
C2457 C2456 1.367 . S
C2457 C2459 1.433 . S
C2458 C2454 1.350 . S
C2458 C2455 1.463 . S
C2458 N2462 1.427 . S
C2459 H2449 0.929 . S
C2459 C2457 1.433 . S
C2459 N2462 1.384 . S
C2460 H2451 0.929 . S
C2460 C2452 1.378 . S
C2460 C2455 1.350 . S
C2461 H2448 0.929 . S
C2461 C2453 1.433 . S
C2461 N2463 1.384 . S
N2462 C2458 1.427 . S
N2462 C2459 1.384 . S
N2463 C2455 1.427 . S
N2463 C2461 1.384 . S
H2464 C2470 0.930 . S
H2465 C2474 0.930 . S
H2466 C2479 0.929 . S
H2467 C2477 0.929 . S
H2468 C2472 0.929 . S
H2469 C2478 0.929 . S
C2470 H2464 0.930 . S
C2470 C2471 1.367 . S
C2470 C2478 1.378 . S
C2471 C2470 1.367 . S
C2471 C2479 1.433 . S
C2472 H2468 0.929 . S
C2472 C2474 1.378 . S
C2472 C2476 1.350 . S
C2473 C2476 1.463 . S
C2473 C2478 1.350 . S
C2473 N2481 1.427 . S
C2474 H2465 0.930 . S
C2474 C2472 1.378 . S
C2474 C2475 1.367 . S
C2475 C2474 1.367 . S
C2475 C2477 1.433 . S
C2476 C2472 1.350 . S
C2476 C2473 1.463 . S
C2476 N2480 1.427 . S
C2477 H2467 0.929 . S
C2477 C2475 1.433 . S
C2477 N2480 1.384 . S
C2478 H2469 0.929 . S
C2478 C2470 1.378 . S
C2478 C2473 1.350 . S
C2479 H2466 0.929 . S
C2479 C2471 1.433 . S
C2479 N2481 1.384 . S
N2480 C2476 1.427 . S
N2480 C2477 1.384 . S
N2481 C2473 1.427 . S
N2481 C2479 1.384 . S
H2482 C2488 0.930 . S
H2483 C2492 0.930 . S
H2484 C2497 0.929 . S
H2485 C2495 0.929 . S
H2486 C2490 0.929 . S
H2487 C2496 0.929 . S
C2488 H2482 0.930 . S
C2488 C2489 1.367 . S
C2488 C2496 1.378 . S
C2489 C2488 1.367 . S
C2489 C2497 1.433 . S
C2490 H2486 0.929 . S
C2490 C2492 1.378 . S
C2490 C2494 1.350 . S
C2491 C2494 1.463 . S
C2491 C2496 1.350 . S
C2491 N2499 1.427 . S
C2492 H2483 0.930 . S
C2492 C2490 1.378 . S
C2492 C2493 1.367 . S
C2493 C2492 1.367 . S
C2493 C2495 1.433 . S
C2494 C2490 1.350 . S
C2494 C2491 1.463 . S
C2494 N2498 1.427 . S
C2495 H2485 0.929 . S
C2495 C2493 1.433 . S
C2495 N2498 1.384 . S
C2496 H2487 0.929 . S
C2496 C2488 1.378 . S
C2496 C2491 1.350 . S
C2497 H2484 0.929 . S
C2497 C2489 1.433 . S
C2497 N2499 1.384 . S
N2498 C2494 1.427 . S
N2498 C2495 1.384 . S
N2499 C2491 1.427 . S
N2499 C2497 1.384 . S
H2500 C2506 0.930 . S
H2501 C2510 0.930 . S
H2502 C2515 0.929 . S
H2503 C2513 0.929 . S
H2504 C2508 0.929 . S
H2505 C2514 0.929 . S
C2506 H2500 0.930 . S
C2506 C2507 1.367 . S
C2506 C2514 1.378 . S
C2507 C2506 1.367 . S
C2507 C2515 1.433 . S
C2508 H2504 0.929 . S
C2508 C2510 1.378 . S
C2508 C2512 1.350 . S
C2509 C2512 1.463 . S
C2509 C2514 1.350 . S
C2509 N2517 1.427 . S
C2510 H2501 0.930 . S
C2510 C2508 1.378 . S
C2510 C2511 1.367 . S
C2511 C2510 1.367 . S
C2511 C2513 1.433 . S
C2512 C2508 1.350 . S
C2512 C2509 1.463 . S
C2512 N2516 1.427 . S
C2513 H2503 0.929 . S
C2513 C2511 1.433 . S
C2513 N2516 1.384 . S
C2514 H2505 0.929 . S
C2514 C2506 1.378 . S
C2514 C2509 1.350 . S
C2515 H2502 0.929 . S
C2515 C2507 1.433 . S
C2515 N2517 1.384 . S
N2516 C2512 1.427 . S
N2516 C2513 1.384 . S
N2517 C2509 1.427 . S
N2517 C2515 1.384 . S
H2518 C2524 0.930 . S
H2519 C2528 0.930 . S
H2520 C2533 0.929 . S
H2521 C2531 0.929 . S
H2522 C2526 0.929 . S
H2523 C2532 0.929 . S
C2524 H2518 0.930 . S
C2524 C2525 1.367 . S
C2524 C2532 1.378 . S
C2525 C2524 1.367 . S
C2525 C2533 1.433 . S
C2526 H2522 0.929 . S
C2526 C2528 1.378 . S
C2526 C2530 1.350 . S
C2527 C2530 1.463 . S
C2527 C2532 1.350 . S
C2527 N2535 1.427 . S
C2528 H2519 0.930 . S
C2528 C2526 1.378 . S
C2528 C2529 1.367 . S
C2529 C2528 1.367 . S
C2529 C2531 1.433 . S
C2530 C2526 1.350 . S
C2530 C2527 1.463 . S
C2530 N2534 1.427 . S
C2531 H2521 0.929 . S
C2531 C2529 1.433 . S
C2531 N2534 1.384 . S
C2532 H2523 0.929 . S
C2532 C2524 1.378 . S
C2532 C2527 1.350 . S
C2533 H2520 0.929 . S
C2533 C2525 1.433 . S
C2533 N2535 1.384 . S
N2534 C2530 1.427 . S
N2534 C2531 1.384 . S
N2535 C2527 1.427 . S
N2535 C2533 1.384 . S
H2536 C2542 0.930 . S
H2537 C2546 0.930 . S
H2538 C2551 0.929 . S
H2539 C2549 0.929 . S
H2540 C2544 0.929 . S
H2541 C2550 0.929 . S
C2542 H2536 0.930 . S
C2542 C2543 1.367 . S
C2542 C2550 1.378 . S
C2543 C2542 1.367 . S
C2543 C2551 1.433 . S
C2544 H2540 0.929 . S
C2544 C2546 1.378 . S
C2544 C2548 1.350 . S
C2545 C2548 1.463 . S
C2545 C2550 1.350 . S
C2545 N2553 1.427 . S
C2546 H2537 0.930 . S
C2546 C2544 1.378 . S
C2546 C2547 1.367 . S
C2547 C2546 1.367 . S
C2547 C2549 1.433 . S
C2548 C2544 1.350 . S
C2548 C2545 1.463 . S
C2548 N2552 1.427 . S
C2549 H2539 0.929 . S
C2549 C2547 1.433 . S
C2549 N2552 1.384 . S
C2550 H2541 0.929 . S
C2550 C2542 1.378 . S
C2550 C2545 1.350 . S
C2551 H2538 0.929 . S
C2551 C2543 1.433 . S
C2551 N2553 1.384 . S
N2552 C2548 1.427 . S
N2552 C2549 1.384 . S
N2553 C2545 1.427 . S
N2553 C2551 1.384 . S
H2554 C2560 0.930 . S
H2555 C2564 0.930 . S
H2556 C2569 0.929 . S
H2557 C2567 0.929 1_545 S
H2558 C2562 0.929 . S
H2559 C2568 0.929 . S
C2560 H2554 0.930 . S
C2560 C2561 1.367 . S
C2560 C2568 1.378 . S
C2561 C2560 1.367 . S
C2561 C2569 1.433 . S
C2562 H2558 0.929 . S
C2562 C2564 1.378 . S
C2562 C2566 1.350 . S
C2563 C2566 1.463 . S
C2563 C2568 1.350 . S
C2563 N2571 1.427 . S
C2564 H2555 0.930 . S
C2564 C2562 1.378 . S
C2564 C2565 1.367 . S
C2565 C2564 1.367 . S
C2565 C2567 1.433 . S
C2566 C2562 1.350 . S
C2566 C2563 1.463 . S
C2566 N2570 1.427 . S
C2567 H2557 0.929 1_565 S
C2567 C2565 1.433 . S
C2567 N2570 1.384 . S
C2568 H2559 0.929 . S
C2568 C2560 1.378 . S
C2568 C2563 1.350 . S
C2569 H2556 0.929 . S
C2569 C2561 1.433 . S
C2569 N2571 1.384 . S
N2570 C2566 1.427 . S
N2570 C2567 1.384 . S
N2571 C2563 1.427 . S
N2571 C2569 1.384 . S
H2572 C2578 0.930 . S
H2573 C2582 0.930 . S
H2574 C2587 0.929 . S
H2575 C2585 0.929 . S
H2576 C2580 0.929 . S
H2577 C2586 0.929 . S
C2578 H2572 0.930 . S
C2578 C2579 1.367 . S
C2578 C2586 1.378 . S
C2579 C2578 1.367 . S
C2579 C2587 1.433 . S
C2580 H2576 0.929 . S
C2580 C2582 1.378 . S
C2580 C2584 1.350 . S
C2581 C2584 1.463 . S
C2581 C2586 1.350 . S
C2581 N2589 1.427 . S
C2582 H2573 0.930 . S
C2582 C2580 1.378 . S
C2582 C2583 1.367 . S
C2583 C2582 1.367 . S
C2583 C2585 1.433 . S
C2584 C2580 1.350 . S
C2584 C2581 1.463 . S
C2584 N2588 1.427 . S
C2585 H2575 0.929 . S
C2585 C2583 1.433 . S
C2585 N2588 1.384 . S
C2586 H2577 0.929 . S
C2586 C2578 1.378 . S
C2586 C2581 1.350 . S
C2587 H2574 0.929 . S
C2587 C2579 1.433 . S
C2587 N2589 1.384 . S
N2588 C2584 1.427 . S
N2588 C2585 1.384 . S
N2589 C2581 1.427 . S
N2589 C2587 1.384 . S
H2590 C2596 0.930 . S
H2591 C2600 0.930 1_556 S
H2592 C2605 0.929 . S
H2593 C2603 0.929 . S
H2594 C2598 0.929 . S
H2595 C2604 0.929 . S
C2596 H2590 0.930 . S
C2596 C2597 1.367 . S
C2596 C2604 1.378 . S
C2597 C2596 1.367 . S
C2597 C2605 1.433 . S
C2598 H2594 0.929 . S
C2598 C2600 1.378 . S
C2598 C2602 1.350 . S
C2599 C2602 1.463 . S
C2599 C2604 1.350 . S
C2599 N2607 1.427 . S
C2600 H2591 0.930 1_554 S
C2600 C2598 1.378 . S
C2600 C2601 1.367 . S
C2601 C2600 1.367 . S
C2601 C2603 1.433 . S
C2602 C2598 1.350 . S
C2602 C2599 1.463 . S
C2602 N2606 1.427 . S
C2603 H2593 0.929 . S
C2603 C2601 1.433 . S
C2603 N2606 1.384 . S
C2604 H2595 0.929 . S
C2604 C2596 1.378 . S
C2604 C2599 1.350 . S
C2605 H2592 0.929 . S
C2605 C2597 1.433 . S
C2605 N2607 1.384 . S
N2606 C2602 1.427 . S
N2606 C2603 1.384 . S
N2607 C2599 1.427 . S
N2607 C2605 1.384 . S
H2608 C2614 0.930 . S
H2609 C2618 0.930 . S
H2610 C2623 0.929 . S
H2611 C2621 0.929 . S
H2612 C2616 0.929 . S
H2613 C2622 0.929 . S
C2614 H2608 0.930 . S
C2614 C2615 1.367 . S
C2614 C2622 1.378 . S
C2615 C2614 1.367 . S
C2615 C2623 1.433 . S
C2616 H2612 0.929 . S
C2616 C2618 1.378 . S
C2616 C2620 1.350 . S
C2617 C2620 1.463 . S
C2617 C2622 1.350 . S
C2617 N2625 1.427 . S
C2618 H2609 0.930 . S
C2618 C2616 1.378 . S
C2618 C2619 1.367 . S
C2619 C2618 1.367 . S
C2619 C2621 1.433 . S
C2620 C2616 1.350 . S
C2620 C2617 1.463 . S
C2620 N2624 1.427 . S
C2621 H2611 0.929 . S
C2621 C2619 1.433 . S
C2621 N2624 1.384 . S
C2622 H2613 0.929 . S
C2622 C2614 1.378 . S
C2622 C2617 1.350 . S
C2623 H2610 0.929 . S
C2623 C2615 1.433 . S
C2623 N2625 1.384 . S
N2624 C2620 1.427 . S
N2624 C2621 1.384 . S
N2625 C2617 1.427 . S
N2625 C2623 1.384 . S
H2626 C2632 0.930 . S
H2627 C2636 0.930 . S
H2628 C2641 0.929 . S
H2629 C2639 0.929 . S
H2630 C2634 0.929 . S
H2631 C2640 0.929 1_556 S
C2632 H2626 0.930 . S
C2632 C2633 1.367 . S
C2632 C2640 1.378 . S
C2633 C2632 1.367 . S
C2633 C2641 1.433 . S
C2634 H2630 0.929 . S
C2634 C2636 1.378 . S
C2634 C2638 1.350 . S
C2635 C2638 1.463 . S
C2635 C2640 1.350 . S
C2635 N2643 1.427 . S
C2636 H2627 0.930 . S
C2636 C2634 1.378 . S
C2636 C2637 1.367 . S
C2637 C2636 1.367 . S
C2637 C2639 1.433 1_554 S
C2638 C2634 1.350 . S
C2638 C2635 1.463 . S
C2638 N2642 1.427 . S
C2639 H2629 0.929 . S
C2639 C2637 1.433 1_556 S
C2639 N2642 1.384 1_556 S
C2640 H2631 0.929 1_554 S
C2640 C2632 1.378 . S
C2640 C2635 1.350 . S
C2641 H2628 0.929 . S
C2641 C2633 1.433 . S
C2641 N2643 1.384 . S
N2642 C2638 1.427 . S
N2642 C2639 1.384 1_554 S
N2643 C2635 1.427 . S
N2643 C2641 1.384 . S
H2644 C2650 0.930 . S
H2645 C2654 0.930 . S
H2646 C2659 0.929 . S
H2647 C2657 0.929 . S
H2648 C2652 0.929 . S
H2649 C2658 0.929 . S
C2650 H2644 0.930 . S
C2650 C2651 1.367 . S
C2650 C2658 1.378 . S
C2651 C2650 1.367 . S
C2651 C2659 1.433 . S
C2652 H2648 0.929 . S
C2652 C2654 1.378 . S
C2652 C2656 1.350 . S
C2653 C2656 1.463 . S
C2653 C2658 1.350 . S
C2653 N2661 1.427 . S
C2654 H2645 0.930 . S
C2654 C2652 1.378 . S
C2654 C2655 1.367 . S
C2655 C2654 1.367 . S
C2655 C2657 1.433 . S
C2656 C2652 1.350 . S
C2656 C2653 1.463 . S
C2656 N2660 1.427 . S
C2657 H2647 0.929 . S
C2657 C2655 1.433 . S
C2657 N2660 1.384 . S
C2658 H2649 0.929 . S
C2658 C2650 1.378 . S
C2658 C2653 1.350 . S
C2659 H2646 0.929 . S
C2659 C2651 1.433 . S
C2659 N2661 1.384 . S
N2660 C2656 1.427 . S
N2660 C2657 1.384 . S
N2661 C2653 1.427 . S
N2661 C2659 1.384 . S
H2662 C2668 0.930 . S
H2663 C2672 0.930 . S
H2664 C2677 0.929 . S
H2665 C2675 0.929 . S
H2666 C2670 0.929 . S
H2667 C2676 0.929 . S
C2668 H2662 0.930 . S
C2668 C2669 1.367 . S
C2668 C2676 1.378 . S
C2669 C2668 1.367 . S
C2669 C2677 1.433 . S
C2670 H2666 0.929 . S
C2670 C2672 1.378 . S
C2670 C2674 1.350 . S
C2671 C2674 1.463 . S
C2671 C2676 1.350 . S
C2671 N2679 1.427 . S
C2672 H2663 0.930 . S
C2672 C2670 1.378 . S
C2672 C2673 1.367 . S
C2673 C2672 1.367 . S
C2673 C2675 1.433 . S
C2674 C2670 1.350 . S
C2674 C2671 1.463 . S
C2674 N2678 1.427 . S
C2675 H2665 0.929 . S
C2675 C2673 1.433 . S
C2675 N2678 1.384 . S
C2676 H2667 0.929 . S
C2676 C2668 1.378 . S
C2676 C2671 1.350 . S
C2677 H2664 0.929 . S
C2677 C2669 1.433 . S
C2677 N2679 1.384 . S
N2678 C2674 1.427 . S
N2678 C2675 1.384 . S
N2679 C2671 1.427 . S
N2679 C2677 1.384 . S
C959 C101 2.131 . S
C963 C325 2.064 . S
C977 C57 1.981 . S
C981 C376 2.005 . S
C995 C70 1.436 . S
C999 C405 1.405 . S
C1017 C449 1.459 . S
C1013 C82 1.511 . S
C1031 C23 1.397 . S
C1035 C489 1.356 . S
C1053 C525 1.444 . S
C1049 C29 1.486 . S
C1071 C575 1.807 . S
C1067 C49 1.748 . S
C1085 C10 2.275 . S
C1089 C605 2.221 . S
C1107 C335 1.848 . S
C1103 C218 1.868 . S
C1121 C226 0.749 . S
C1125 C378 0.759 . S
C1143 C415 1.254 . S
C1139 C251 1.230 . S
C1161 C445 1.280 . S
C1157 C159 1.316 . S
C1175 C211 1.369 . S
C1179 C485 1.333 . S
C1197 C535 0.890 . S
C1193 C225 0.895 . S
C1215 C569 0.859 . S
C1211 C252 0.884 . S
C1233 C615 1.829 . S
C1229 C166 1.855 . S
C1251 C329 1.246 . S
C1247 C147 1.314 . S
C1265 C263 1.628 . S
C1269 C655 1.663 . S
C1287 C689 1.504 . S
C1283 C309 1.562 . S
C1305 C725 0.822 . S
C1301 C291 0.833 . S
C1319 C108 1.484 . S
C1323 C609 1.414 . S
C1337 C121 1.625 . S
C1341 C409 1.559 . S
C1355 C302 1.554 . S
C1359 C775 1.580 . S
C1377 C794 0.339 . S
C1373 C276 0.250 . S
C1395 C336 2.298 1_565 S
C1391 C55 2.307 . S
C1413 C805 2.313 . S
C1409 C96 2.308 . S
C1427 C88 1.815 . S
C1431 C416 1.813 . S
C1445 C75 1.629 . S
C1449 C778 1.596 . S
C1467 C498 1.463 . S
C1463 C4 1.500 . S
C1481 C44 1.846 . S
C1485 C696 1.836 . S
C1503 C554 2.073 1_566 S
C1499 C31 2.063 . S
C1521 C856 2.428 . S
C1517 C18 2.443 . S
C1539 C314 2.101 1_556 S
C1535 C133 2.131 . S
C1557 C809 0.733 . S
C1553 C296 0.735 . S
C1571 C107 1.459 . S
C1575 C394 1.447 . S
C1589 C264 1.663 . S
C1593 C776 1.652 . S
C1607 C140 1.716 . S
C1611 C496 1.704 . S
C1629 C674 1.118 . S
C1625 C289 1.125 . S
C1643 C114 0.996 . S
C1647 C578 0.980 1_565 S
C1661 C265 2.125 . S
C1665 C834 2.097 . S
C1679 C179 1.227 . S
C1683 C338 1.196 . S
C1697 C161 1.893 . S
C1701 C634 1.887 . S
C1715 C244 1.544 . S
C1719 C538 1.516 . S
C1733 C224 1.084 . S
C1737 C736 1.074 . S
C1755 C858 1.431 . S
C1751 C257 1.472 . S
C1769 C199 1.605 . S
C1773 C418 1.566 . S
C1791 C434 1.814 . S
C1787 C237 1.813 . S
C1809 C375 0.525 . S
C1805 C185 0.519 . S
C1823 C69 2.114 . S
C1827 C885 2.069 . S
C1845 C816 2.005 . S
C1841 C83 1.983 . S
C1859 C94 1.437 . S
C1863 C925 1.408 . S
C1877 C56 1.508 1_655 S
C1881 C769 1.459 . S
C1895 C42 1.411 . S
C1899 C649 1.357 . S
C1917 C685 1.448 . S
C1913 C3 1.486 . S
C1935 C735 1.815 . S
C1931 C16 1.758 . S
C1953 C845 2.223 . S
C1949 C36 2.275 . S
C1971 C895 1.847 . S
C1967 C238 1.866 . S
C1985 C174 0.747 . S
C1989 C818 0.756 . S
C2007 C935 1.254 . S
C2003 C186 1.229 . S
C2025 C765 1.282 . S
C2021 C198 1.315 . S
C2043 C645 1.335 . S
C2039 C239 1.372 . S
C2057 C173 0.880 . S
C2061 C695 0.898 . S
C2079 C729 0.853 . S
C2075 C187 0.888 . S
C2093 C205 1.855 . S
C2097 C855 1.829 . S
C2115 C889 1.245 . S
C2111 C290 1.313 . S
C2129 C122 1.630 . S
C2133 C495 1.663 . S
C2151 C529 1.519 . S
C2147 C134 1.575 1_565 S
C2169 C565 0.828 . S
C2165 C148 0.838 . S
C2187 C849 1.416 . S
C2183 C283 1.485 . S
C2201 C270 1.625 . S
C2205 C929 1.565 . S
C2223 C455 1.583 . S
C2219 C135 1.550 . S
C2241 C354 0.292 . S
C2237 C109 0.224 . S
C2255 C81 2.306 . S
C2259 C896 2.299 . S
C2277 C365 2.313 . S
C2273 C68 2.308 . S
C2291 C62 1.816 . S
C2295 C936 1.812 . S
C2309 C95 1.632 . S
C2313 C458 1.598 . S
C2327 C30 1.502 . S
C2331 C658 1.463 . S
C2349 C536 1.823 . S
C2345 C17 1.840 . S
C2363 C5 2.063 . S
C2367 C714 2.075 . S
C2381 C43 2.443 . S
C2385 C616 2.425 . S
C2403 C874 2.108 . S
C2399 C304 2.135 . S
C2417 C153 0.732 . S
C2421 C369 0.727 . S
C2439 C914 1.448 1_656 S
C2435 C278 1.459 . S
C2453 C127 1.661 . S
C2457 C456 1.657 . S
C2471 C303 1.712 . S
C2475 C656 1.701 . S
C2493 C514 1.117 . S
C2489 C146 1.126 . S
C2507 C277 0.988 . S
C2511 C738 0.961 . S
C2529 C594 2.094 . S
C2525 C120 2.124 . S
C2547 C898 1.191 . S
C2543 C231 1.225 . S
C2565 C474 1.918 1_565 S
C2561 C200 1.890 . S
C2579 C212 1.543 . S
C2583 C698 1.515 . S
C2601 C576 1.075 . S
C2597 C172 1.085 . S
C2615 C192 1.482 . S
C2619 C618 1.444 . S
C2633 C160 1.602 . S
C2637 C938 1.562 . S
C2655 C754 1.811 . S
C2651 C213 1.818 . S
C2673 C815 0.523 . S
C2669 C250 0.519 . S
