# Generated by pormake.
# Topology gar, (4,6)-cn, num edge types: 1
# Building blocks:
#     Node 0, Type 0, BuildingBlock: QUQFOY_clean_sbu_3, # of connection points: 4
#     Node 1, Type 0, BuildingBlock: QUQFOY_clean_sbu_3, # of connection points: 4
#     Node 2, Type 0, BuildingBlock: QUQFOY_clean_sbu_3, # of connection points: 4
#     Node 3, Type 0, BuildingBlock: QUQFOY_clean_sbu_3, # of connection points: 4
#     Node 4, Type 0, BuildingBlock: QUQFOY_clean_sbu_3, # of connection points: 4
#     Node 5, Type 0, BuildingBlock: QUQFOY_clean_sbu_3, # of connection points: 4
#     Node 6, Type 0, BuildingBlock: QUQFOY_clean_sbu_3, # of connection points: 4
#     Node 7, Type 0, BuildingBlock: QUQFOY_clean_sbu_3, # of connection points: 4
#     Node 8, Type 0, BuildingBlock: QUQFOY_clean_sbu_3, # of connection points: 4
#     Node 9, Type 0, BuildingBlock: QUQFOY_clean_sbu_3, # of connection points: 4
#     Node 10, Type 0, BuildingBlock: QUQFOY_clean_sbu_3, # of connection points: 4
#     Node 11, Type 0, BuildingBlock: QUQFOY_clean_sbu_3, # of connection points: 4
#     Node 12, Type 0, BuildingBlock: QUQFOY_clean_sbu_3, # of connection points: 4
#     Node 13, Type 0, BuildingBlock: QUQFOY_clean_sbu_3, # of connection points: 4
#     Node 14, Type 0, BuildingBlock: QUQFOY_clean_sbu_3, # of connection points: 4
#     Node 15, Type 0, BuildingBlock: QUQFOY_clean_sbu_3, # of connection points: 4
#     Node 16, Type 0, BuildingBlock: QUQFOY_clean_sbu_3, # of connection points: 4
#     Node 17, Type 0, BuildingBlock: QUQFOY_clean_sbu_3, # of connection points: 4
#     Node 18, Type 0, BuildingBlock: QUQFOY_clean_sbu_3, # of connection points: 4
#     Node 19, Type 0, BuildingBlock: QUQFOY_clean_sbu_3, # of connection points: 4
#     Node 20, Type 0, BuildingBlock: QUQFOY_clean_sbu_3, # of connection points: 4
#     Node 21, Type 0, BuildingBlock: QUQFOY_clean_sbu_3, # of connection points: 4
#     Node 22, Type 0, BuildingBlock: QUQFOY_clean_sbu_3, # of connection points: 4
#     Node 23, Type 0, BuildingBlock: QUQFOY_clean_sbu_3, # of connection points: 4
#     Node 24, Type 1, BuildingBlock: KUMBOL_clean_sbu_0, # of connection points: 6
#     Node 25, Type 1, BuildingBlock: KUMBOL_clean_sbu_0, # of connection points: 6
#     Node 26, Type 1, BuildingBlock: KUMBOL_clean_sbu_0, # of connection points: 6
#     Node 27, Type 1, BuildingBlock: KUMBOL_clean_sbu_0, # of connection points: 6
#     Node 28, Type 1, BuildingBlock: KUMBOL_clean_sbu_0, # of connection points: 6
#     Node 29, Type 1, BuildingBlock: KUMBOL_clean_sbu_0, # of connection points: 6
#     Node 30, Type 1, BuildingBlock: KUMBOL_clean_sbu_0, # of connection points: 6
#     Node 31, Type 1, BuildingBlock: KUMBOL_clean_sbu_0, # of connection points: 6
#     Node 32, Type 1, BuildingBlock: KUMBOL_clean_sbu_0, # of connection points: 6
#     Node 33, Type 1, BuildingBlock: KUMBOL_clean_sbu_0, # of connection points: 6
#     Node 34, Type 1, BuildingBlock: KUMBOL_clean_sbu_0, # of connection points: 6
#     Node 35, Type 1, BuildingBlock: KUMBOL_clean_sbu_0, # of connection points: 6
#     Node 36, Type 1, BuildingBlock: KUMBOL_clean_sbu_0, # of connection points: 6
#     Node 37, Type 1, BuildingBlock: KUMBOL_clean_sbu_0, # of connection points: 6
#     Node 38, Type 1, BuildingBlock: KUMBOL_clean_sbu_0, # of connection points: 6
#     Node 39, Type 1, BuildingBlock: KUMBOL_clean_sbu_0, # of connection points: 6
#     Edge 40, Type (0, 1), BuildingBlock: ZUJKAS_clean_linker_0, # of connection points: 2
#     Edge 41, Type (0, 1), BuildingBlock: ZUJKAS_clean_linker_0, # of connection points: 2
#     Edge 42, Type (0, 1), BuildingBlock: ZUJKAS_clean_linker_0, # of connection points: 2
#     Edge 43, Type (0, 1), BuildingBlock: ZUJKAS_clean_linker_0, # of connection points: 2
#     Edge 44, Type (0, 1), BuildingBlock: ZUJKAS_clean_linker_0, # of connection points: 2
#     Edge 45, Type (0, 1), BuildingBlock: ZUJKAS_clean_linker_0, # of connection points: 2
#     Edge 46, Type (0, 1), BuildingBlock: ZUJKAS_clean_linker_0, # of connection points: 2
#     Edge 47, Type (0, 1), BuildingBlock: ZUJKAS_clean_linker_0, # of connection points: 2
#     Edge 48, Type (0, 1), BuildingBlock: ZUJKAS_clean_linker_0, # of connection points: 2
#     Edge 49, Type (0, 1), BuildingBlock: ZUJKAS_clean_linker_0, # of connection points: 2
#     Edge 50, Type (0, 1), BuildingBlock: ZUJKAS_clean_linker_0, # of connection points: 2
#     Edge 51, Type (0, 1), BuildingBlock: ZUJKAS_clean_linker_0, # of connection points: 2
#     Edge 52, Type (0, 1), BuildingBlock: ZUJKAS_clean_linker_0, # of connection points: 2
#     Edge 53, Type (0, 1), BuildingBlock: ZUJKAS_clean_linker_0, # of connection points: 2
#     Edge 54, Type (0, 1), BuildingBlock: ZUJKAS_clean_linker_0, # of connection points: 2
#     Edge 55, Type (0, 1), BuildingBlock: ZUJKAS_clean_linker_0, # of connection points: 2
#     Edge 56, Type (0, 1), BuildingBlock: ZUJKAS_clean_linker_0, # of connection points: 2
#     Edge 57, Type (0, 1), BuildingBlock: ZUJKAS_clean_linker_0, # of connection points: 2
#     Edge 58, Type (0, 1), BuildingBlock: ZUJKAS_clean_linker_0, # of connection points: 2
#     Edge 59, Type (0, 1), BuildingBlock: ZUJKAS_clean_linker_0, # of connection points: 2
#     Edge 60, Type (0, 1), BuildingBlock: ZUJKAS_clean_linker_0, # of connection points: 2
#     Edge 61, Type (0, 1), BuildingBlock: ZUJKAS_clean_linker_0, # of connection points: 2
#     Edge 62, Type (0, 1), BuildingBlock: ZUJKAS_clean_linker_0, # of connection points: 2
#     Edge 63, Type (0, 1), BuildingBlock: ZUJKAS_clean_linker_0, # of connection points: 2
#     Edge 64, Type (0, 1), BuildingBlock: ZUJKAS_clean_linker_0, # of connection points: 2
#     Edge 65, Type (0, 1), BuildingBlock: ZUJKAS_clean_linker_0, # of connection points: 2
#     Edge 66, Type (0, 1), BuildingBlock: ZUJKAS_clean_linker_0, # of connection points: 2
#     Edge 67, Type (0, 1), BuildingBlock: ZUJKAS_clean_linker_0, # of connection points: 2
#     Edge 68, Type (0, 1), BuildingBlock: ZUJKAS_clean_linker_0, # of connection points: 2
#     Edge 69, Type (0, 1), BuildingBlock: ZUJKAS_clean_linker_0, # of connection points: 2
#     Edge 70, Type (0, 1), BuildingBlock: ZUJKAS_clean_linker_0, # of connection points: 2
#     Edge 71, Type (0, 1), BuildingBlock: ZUJKAS_clean_linker_0, # of connection points: 2
#     Edge 72, Type (0, 1), BuildingBlock: ZUJKAS_clean_linker_0, # of connection points: 2
#     Edge 73, Type (0, 1), BuildingBlock: ZUJKAS_clean_linker_0, # of connection points: 2
#     Edge 74, Type (0, 1), BuildingBlock: ZUJKAS_clean_linker_0, # of connection points: 2
#     Edge 75, Type (0, 1), BuildingBlock: ZUJKAS_clean_linker_0, # of connection points: 2
#     Edge 76, Type (0, 1), BuildingBlock: ZUJKAS_clean_linker_0, # of connection points: 2
#     Edge 77, Type (0, 1), BuildingBlock: ZUJKAS_clean_linker_0, # of connection points: 2
#     Edge 78, Type (0, 1), BuildingBlock: ZUJKAS_clean_linker_0, # of connection points: 2
#     Edge 79, Type (0, 1), BuildingBlock: ZUJKAS_clean_linker_0, # of connection points: 2
#     Edge 80, Type (0, 1), BuildingBlock: ZUJKAS_clean_linker_0, # of connection points: 2
#     Edge 81, Type (0, 1), BuildingBlock: ZUJKAS_clean_linker_0, # of connection points: 2
#     Edge 82, Type (0, 1), BuildingBlock: ZUJKAS_clean_linker_0, # of connection points: 2
#     Edge 83, Type (0, 1), BuildingBlock: ZUJKAS_clean_linker_0, # of connection points: 2
#     Edge 84, Type (0, 1), BuildingBlock: ZUJKAS_clean_linker_0, # of connection points: 2
#     Edge 85, Type (0, 1), BuildingBlock: ZUJKAS_clean_linker_0, # of connection points: 2
#     Edge 86, Type (0, 1), BuildingBlock: ZUJKAS_clean_linker_0, # of connection points: 2
#     Edge 87, Type (0, 1), BuildingBlock: ZUJKAS_clean_linker_0, # of connection points: 2
#     Edge 88, Type (0, 1), BuildingBlock: ZUJKAS_clean_linker_0, # of connection points: 2
#     Edge 89, Type (0, 1), BuildingBlock: ZUJKAS_clean_linker_0, # of connection points: 2
#     Edge 90, Type (0, 1), BuildingBlock: ZUJKAS_clean_linker_0, # of connection points: 2
#     Edge 91, Type (0, 1), BuildingBlock: ZUJKAS_clean_linker_0, # of connection points: 2
#     Edge 92, Type (0, 1), BuildingBlock: ZUJKAS_clean_linker_0, # of connection points: 2
#     Edge 93, Type (0, 1), BuildingBlock: ZUJKAS_clean_linker_0, # of connection points: 2
#     Edge 94, Type (0, 1), BuildingBlock: ZUJKAS_clean_linker_0, # of connection points: 2
#     Edge 95, Type (0, 1), BuildingBlock: ZUJKAS_clean_linker_0, # of connection points: 2
#     Edge 96, Type (0, 1), BuildingBlock: ZUJKAS_clean_linker_0, # of connection points: 2
#     Edge 97, Type (0, 1), BuildingBlock: ZUJKAS_clean_linker_0, # of connection points: 2
#     Edge 98, Type (0, 1), BuildingBlock: ZUJKAS_clean_linker_0, # of connection points: 2
#     Edge 99, Type (0, 1), BuildingBlock: ZUJKAS_clean_linker_0, # of connection points: 2
#     Edge 100, Type (0, 1), BuildingBlock: ZUJKAS_clean_linker_0, # of connection points: 2
#     Edge 101, Type (0, 1), BuildingBlock: ZUJKAS_clean_linker_0, # of connection points: 2
#     Edge 102, Type (0, 1), BuildingBlock: ZUJKAS_clean_linker_0, # of connection points: 2
#     Edge 103, Type (0, 1), BuildingBlock: ZUJKAS_clean_linker_0, # of connection points: 2
#     Edge 104, Type (0, 1), BuildingBlock: ZUJKAS_clean_linker_0, # of connection points: 2
#     Edge 105, Type (0, 1), BuildingBlock: ZUJKAS_clean_linker_0, # of connection points: 2
#     Edge 106, Type (0, 1), BuildingBlock: ZUJKAS_clean_linker_0, # of connection points: 2
#     Edge 107, Type (0, 1), BuildingBlock: ZUJKAS_clean_linker_0, # of connection points: 2
#     Edge 108, Type (0, 1), BuildingBlock: ZUJKAS_clean_linker_0, # of connection points: 2
#     Edge 109, Type (0, 1), BuildingBlock: ZUJKAS_clean_linker_0, # of connection points: 2
#     Edge 110, Type (0, 1), BuildingBlock: ZUJKAS_clean_linker_0, # of connection points: 2
#     Edge 111, Type (0, 1), BuildingBlock: ZUJKAS_clean_linker_0, # of connection points: 2
#     Edge 112, Type (0, 1), BuildingBlock: ZUJKAS_clean_linker_0, # of connection points: 2
#     Edge 113, Type (0, 1), BuildingBlock: ZUJKAS_clean_linker_0, # of connection points: 2
#     Edge 114, Type (0, 1), BuildingBlock: ZUJKAS_clean_linker_0, # of connection points: 2
#     Edge 115, Type (0, 1), BuildingBlock: ZUJKAS_clean_linker_0, # of connection points: 2
#     Edge 116, Type (0, 1), BuildingBlock: ZUJKAS_clean_linker_0, # of connection points: 2
#     Edge 117, Type (0, 1), BuildingBlock: ZUJKAS_clean_linker_0, # of connection points: 2
#     Edge 118, Type (0, 1), BuildingBlock: ZUJKAS_clean_linker_0, # of connection points: 2
#     Edge 119, Type (0, 1), BuildingBlock: ZUJKAS_clean_linker_0, # of connection points: 2
#     Edge 120, Type (0, 1), BuildingBlock: ZUJKAS_clean_linker_0, # of connection points: 2
#     Edge 121, Type (0, 1), BuildingBlock: ZUJKAS_clean_linker_0, # of connection points: 2
#     Edge 122, Type (0, 1), BuildingBlock: ZUJKAS_clean_linker_0, # of connection points: 2
#     Edge 123, Type (0, 1), BuildingBlock: ZUJKAS_clean_linker_0, # of connection points: 2
#     Edge 124, Type (0, 1), BuildingBlock: ZUJKAS_clean_linker_0, # of connection points: 2
#     Edge 125, Type (0, 1), BuildingBlock: ZUJKAS_clean_linker_0, # of connection points: 2
#     Edge 126, Type (0, 1), BuildingBlock: ZUJKAS_clean_linker_0, # of connection points: 2
#     Edge 127, Type (0, 1), BuildingBlock: ZUJKAS_clean_linker_0, # of connection points: 2
#     Edge 128, Type (0, 1), BuildingBlock: ZUJKAS_clean_linker_0, # of connection points: 2
#     Edge 129, Type (0, 1), BuildingBlock: ZUJKAS_clean_linker_0, # of connection points: 2
#     Edge 130, Type (0, 1), BuildingBlock: ZUJKAS_clean_linker_0, # of connection points: 2
#     Edge 131, Type (0, 1), BuildingBlock: ZUJKAS_clean_linker_0, # of connection points: 2
#     Edge 132, Type (0, 1), BuildingBlock: ZUJKAS_clean_linker_0, # of connection points: 2
#     Edge 133, Type (0, 1), BuildingBlock: ZUJKAS_clean_linker_0, # of connection points: 2
#     Edge 134, Type (0, 1), BuildingBlock: ZUJKAS_clean_linker_0, # of connection points: 2
#     Edge 135, Type (0, 1), BuildingBlock: ZUJKAS_clean_linker_0, # of connection points: 2
# Relax obj value: 0.112
# Max RMSD: 0.312
# Mean RMSD: 0.144
data_MOF--net-gar--node1-QUQFOY_clean_sbu_3--node2-KUMBOL_clean_sbu_0--edge1-ZUJKAS_clean_linker_0
_symmetry_space_group_name_H-M    P1
_symmetry_Int_Tables_number       1
_symmetry_cell_setting            triclinic
loop_
_symmetry_equiv_pos_as_xyz
'x, y, z'
_cell_length_a     77.196046
_cell_length_b     73.774791
_cell_length_c     73.114278
_cell_angle_alpha  100.76737
_cell_angle_beta   92.855229
_cell_angle_gamma 102.21694
loop_
_atom_site_label
_atom_site_type_symbol
_atom_site_fract_x
_atom_site_fract_y
_atom_site_fract_z
_atom_type_partial_charge
C0 C 0.06289 0.31019 0.35671 0.0
O1 O 0.07288 0.31504 0.34435 0.0
Cd2 Cd 0.10434 0.32467 0.35023 0.0
O3 O 0.06902 0.3078 0.37229 0.0
Cd4 Cd 0.09617 0.30721 0.38946 0.0
C5 C 0.10221 0.35359 0.39262 0.0
O6 O 0.11123 0.30071 0.36413 0.0
O7 O 0.12833 0.31363 0.38964 0.0
O8 O 0.08727 0.27546 0.39209 0.0
C9 C 0.12676 0.30689 0.37218 0.0
O10 O 0.10643 0.35205 0.37584 0.0
C11 C 0.08874 0.27906 0.40983 0.0
O12 O 0.0974 0.3394 0.4002 0.0
O13 O 0.09305 0.29629 0.41838 0.0
C14 C 0.97751 0.75918 0.68805 0.0
O15 O 0.98736 0.75035 0.69559 0.0
Cd16 Cd 0.01379 0.7436 0.68464 0.0
O17 O 0.98133 0.766 0.67367 0.0
Cd18 Cd 0.00381 0.76764 0.65198 0.0
C19 C 0.99089 0.72064 0.64197 0.0
O20 O 0.0276 0.77115 0.6744 0.0
O21 O 0.03393 0.76419 0.64591 0.0
O22 O 0.00413 0.8 0.65121 0.0
C23 C 0.03907 0.76799 0.66322 0.0
O24 O -0.00065 0.72048 0.65734 0.0
C25 C 0.00115 0.79695 0.63353 0.0
O26 O 0.99007 0.736 0.63686 0.0
O27 O 0.99879 0.77998 0.62457 0.0
C28 C 0.56711 0.81815 0.85876 0.0
O29 O 0.57812 0.82459 0.84791 0.0
Cd30 Cd 0.6096 0.83063 0.85456 0.0
O31 O 0.57238 0.81299 0.87332 0.0
Cd32 Cd 0.59976 0.80972 0.88917 0.0
C33 C 0.61126 0.85682 0.89915 0.0
O34 O 0.61525 0.80266 0.86286 0.0
O35 O 0.63178 0.81304 0.88895 0.0
O36 O 0.58522 0.77821 0.89121 0.0
C37 C 0.63056 0.80651 0.87152 0.0
O38 O 0.61484 0.85625 0.88224 0.0
C39 C 0.58963 0.78049 0.90858 0.0
O40 O 0.60475 0.84181 0.90492 0.0
O41 O 0.59844 0.79672 0.91702 0.0
C42 C 0.47709 0.25433 0.18797 0.0
O43 O 0.48962 0.2524 0.19884 0.0
Cd44 Cd 0.51922 0.2536 0.1909 0.0
O45 O 0.48004 0.2597 0.17269 0.0
Cd46 Cd 0.50381 0.26812 0.15402 0.0
C47 C 0.50209 0.22247 0.14934 0.0
O48 O 0.5292 0.27935 0.17639 0.0
O49 O 0.53379 0.26722 0.14829 0.0
O50 O 0.49667 0.29717 0.14874 0.0
C51 C 0.54013 0.27486 0.16492 0.0
O52 O 0.51149 0.22673 0.16503 0.0
C53 C 0.49791 0.2929 0.13125 0.0
O54 O 0.49608 0.2347 0.14233 0.0
O55 O 0.50023 0.27651 0.12451 0.0
C56 C 0.04707 0.79745 0.1375 0.0
O57 O 0.05651 0.78872 0.14575 0.0
Cd58 Cd 0.0859 0.7859 0.13962 0.0
O59 O 0.05335 0.8061 0.12479 0.0
Cd60 Cd 0.08275 0.81137 0.10929 0.0
C61 C 0.07696 0.76322 0.09336 0.0
O62 O 0.1029 0.81669 0.13842 0.0
O63 O 0.11554 0.81131 0.1132 0.0
O64 O 0.07639 0.84291 0.10895 0.0
C65 C 0.11716 0.81543 0.13094 0.0
O66 O 0.08167 0.76289 0.11019 0.0
C67 C 0.07988 0.84393 0.09234 0.0
O68 O 0.07507 0.77861 0.08869 0.0
O69 O 0.08528 0.83 0.08331 0.0
C70 C 0.48289 0.76842 0.39643 0.0
O71 O 0.4956 0.7789 0.39034 0.0
Cd72 Cd 0.52624 0.78695 0.40125 0.0
O73 O 0.4862 0.76036 0.40996 0.0
Cd74 Cd 0.51633 0.76125 0.42924 0.0
C75 C 0.52342 0.80905 0.44602 0.0
O76 O 0.53574 0.75866 0.40337 0.0
O77 O 0.54975 0.77187 0.43013 0.0
O78 O 0.51088 0.72687 0.4305 0.0
C79 C 0.55055 0.76451 0.41315 0.0
O80 O 0.52939 0.81038 0.43031 0.0
C81 C 0.51451 0.72893 0.44801 0.0
O82 O 0.51624 0.79292 0.44945 0.0
O83 O 0.51772 0.74588 0.45721 0.0
C84 C 0.54781 0.3028 0.63967 0.0
O85 O 0.55779 0.2979 0.65124 0.0
Cd86 Cd 0.5861 0.29173 0.64441 0.0
O87 O 0.5535 0.30688 0.62445 0.0
Cd88 Cd 0.58318 0.31173 0.60943 0.0
C89 C 0.577 0.26391 0.59888 0.0
O90 O 0.60367 0.32029 0.63869 0.0
O91 O 0.61547 0.31105 0.61374 0.0
O92 O 0.57407 0.34121 0.60618 0.0
C93 C 0.61758 0.31744 0.63124 0.0
O94 O 0.58071 0.26623 0.61648 0.0
C95 C 0.58001 0.34278 0.59056 0.0
O96 O 0.57603 0.27812 0.59149 0.0
O97 O 0.58789 0.33006 0.58332 0.0
C98 C 0.98201 0.26775 0.89547 0.0
O99 O 0.9948 0.27804 0.88932 0.0
Cd100 Cd 0.02576 0.28461 0.89885 0.0
O101 O 0.98531 0.25916 0.90858 0.0
Cd102 Cd 0.01563 0.25957 0.92715 0.0
C103 C 0.02547 0.3075 0.94379 0.0
O104 O 0.03487 0.25623 0.90102 0.0
O105 O 0.04896 0.26983 0.92766 0.0
O106 O 0.01091 0.22533 0.92865 0.0
C107 C 0.04972 0.26226 0.91073 0.0
O108 O 0.03138 0.30812 0.92793 0.0
C109 C 0.01365 0.22748 0.94628 0.0
O110 O 0.01712 0.29181 0.94733 0.0
O111 O 0.01604 0.2444 0.9554 0.0
C112 C 0.43776 0.0334 0.32633 0.0
O113 O 0.44657 0.02487 0.31476 0.0
Cd114 Cd 0.44131 0.02136 0.28161 0.0
O115 O 0.42588 0.04125 0.3212 0.0
Cd116 Cd 0.41038 0.0463 0.29515 0.0
C117 C 0.39796 0.99927 0.28393 0.0
O118 O 0.43377 0.04947 0.27624 0.0
O119 O 0.40758 0.04562 0.26197 0.0
O120 O 0.41371 0.07867 0.30971 0.0
C121 C 0.42425 0.04762 0.26109 0.0
O122 O 0.41314 0.99878 0.27799 0.0
C123 C 0.39705 0.07737 0.30976 0.0
O124 O 0.39407 0.01458 0.2918 0.0
O125 O 0.38672 0.06125 0.30345 0.0
C126 C 0.32287 0.16169 0.51351 0.0
O127 O 0.31175 0.15258 0.52259 0.0
Cd128 Cd 0.28256 0.15711 0.52647 0.0
O129 O 0.31868 0.1741 0.50521 0.0
Cd130 Cd 0.29141 0.18719 0.50181 0.0
C131 C 0.29426 0.20395 0.54826 0.0
O132 O 0.2687 0.15734 0.49638 0.0
O133 O 0.25894 0.18274 0.50365 0.0
O134 O 0.2994 0.18831 0.47014 0.0
C135 C 0.25546 0.16492 0.49808 0.0
O136 O 0.28794 0.18682 0.54926 0.0
C137 C 0.29728 0.20493 0.47037 0.0
O138 O 0.29776 0.20855 0.53269 0.0
O139 O 0.29243 0.21346 0.4853 0.0
C140 C 0.13873 0.01256 0.80307 0.0
O141 O 0.13144 0.02227 0.7937 0.0
Cd142 Cd 0.13757 0.0275 0.76261 0.0
O143 O 0.15079 0.00439 0.79567 0.0
Cd144 Cd 0.16711 1.00226 0.76253 0.0
C145 C 0.1811 0.05354 0.7681 0.0
O146 O 0.13861 0.99948 0.73991 0.0
O147 O 0.16305 0.0048 0.7276 0.0
O148 O 0.1709 0.96782 0.76521 0.0
C149 C 0.14623 1.00235 0.7253 0.0
O150 O 0.16448 0.05252 0.76517 0.0
C151 C 0.18712 0.96907 0.76187 0.0
O152 O 0.18648 0.03826 0.76923 0.0
O153 O 0.19437 0.98519 0.75853 0.0
C154 C 0.34179 0.96094 0.01244 0.0
O155 O 0.33377 0.97169 0.00533 0.0
Cd156 Cd 0.30284 0.96076 0.99565 0.0
O157 O 0.33346 0.94548 0.01601 0.0
Cd158 Cd 0.30622 0.92399 0.01675 0.0
C159 C 0.31046 0.91866 0.97126 0.0
O160 O 0.29145 0.94795 0.02104 0.0
O161 O 0.27417 0.9199 0.01425 0.0
O162 O 0.32032 0.92657 0.04664 0.0
C163 C 0.27586 0.93772 0.0179 0.0
O164 O 0.30623 0.93446 0.97123 0.0
C165 C 0.31401 0.90938 0.04717 0.0
O166 O 0.3116 0.91201 0.98598 0.0
O167 O 0.30419 0.89868 0.03312 0.0
C168 C 0.33717 0.41891 0.02918 0.0
O169 O 0.3275 0.4249 0.01818 0.0
Cd170 Cd 0.29598 0.41418 0.01074 0.0
O171 O 0.33019 0.40582 0.03754 0.0
Cd172 Cd 0.29893 0.38638 0.03658 0.0
C173 C 0.2949 0.36862 0.99021 0.0
O174 O 0.28208 0.41113 0.03877 0.0
O175 O 0.26674 0.38264 0.0287 0.0
O176 O 0.2997 0.38659 0.06992 0.0
C177 C 0.26694 0.39992 0.03489 0.0
O178 O 0.29128 0.38425 0.98838 0.0
C179 C 0.29738 0.3688 0.06827 0.0
O180 O 0.2999 0.36589 0.00613 0.0
O181 O 0.29656 0.35909 0.05184 0.0
C182 C 0.80352 0.11469 0.02879 0.0
O183 O 0.79001 0.10327 0.03251 0.0
Cd184 Cd 0.76094 0.10979 0.0327 0.0
O185 O 0.80212 0.12977 0.0235 0.0
Cd186 Cd 0.78075 0.14712 0.01663 0.0
C187 C 0.77385 0.15375 0.06166 0.0
O188 O 0.75636 0.12177 0.00546 0.0
O189 O 0.75009 0.14913 0.0141 0.0
O190 O 0.78963 0.14809 0.9864 0.0
C191 C 0.74474 0.13164 0.00702 0.0
O192 O 0.76452 0.13683 0.05856 0.0
C193 C 0.79158 0.16586 0.98826 0.0
O194 O 0.78236 0.16057 0.0491 0.0
O195 O 0.79052 0.17543 0.0044 0.0
C196 C 0.15813 0.54486 0.2657 0.0
O197 O 0.14773 0.55004 0.25474 0.0
Cd198 Cd 0.15344 0.55046 0.22282 0.0
O199 O 0.17139 0.5387 0.25997 0.0
Cd200 Cd 0.18629 0.53246 0.23255 0.0
C201 C 0.19497 0.5782 0.23612 0.0
O202 O 0.16241 0.52211 0.20942 0.0
O203 O 0.18842 0.5318 0.20005 0.0
O204 O 0.18672 0.50437 0.24265 0.0
C205 C 0.17204 0.52411 0.19604 0.0
O206 O 0.1795 0.57657 0.22819 0.0
C207 C 0.20286 0.50501 0.23972 0.0
O208 O 0.20031 0.56438 0.24056 0.0
O209 O 0.21156 0.5189 0.23356 0.0
C210 C 0.83642 0.91862 0.53038 0.0
O211 O 0.82681 0.92633 0.52104 0.0
Cd212 Cd 0.79578 0.91645 0.51218 0.0
O213 O 0.82937 0.90414 0.53697 0.0
Cd214 Cd 0.7977 0.88438 0.53663 0.0
C215 C 0.79598 0.87111 0.48924 0.0
O216 O 0.78316 0.91098 0.54011 0.0
O217 O 0.76527 0.88362 0.53418 0.0
O218 O 0.80533 0.88198 0.56898 0.0
C219 C 0.76727 0.90144 0.53798 0.0
O220 O 0.7945 0.88791 0.48894 0.0
C221 C 0.79719 0.86478 0.56716 0.0
O222 O 0.79769 0.86569 0.50468 0.0
O223 O 0.79012 0.85636 0.5509 0.0
C224 C 0.95728 0.06346 0.31091 0.0
O225 O 0.96549 0.05461 0.29896 0.0
Cd226 Cd 0.9556 0.04567 0.26593 0.0
O227 O 0.94395 0.06984 0.30503 0.0
Cd228 Cd 0.92679 0.07083 0.27047 0.0
C229 C 0.91237 0.01977 0.26547 0.0
O230 O 0.95464 0.0723 0.25111 0.0
O231 O 0.92976 0.06465 0.23463 0.0
O232 O 0.92228 0.10618 0.28091 0.0
C233 C 0.9466 0.06844 0.23473 0.0
O234 O 0.9286 0.02014 0.26267 0.0
C235 C 0.90669 0.10418 0.27297 0.0
O236 O 0.9074 0.03562 0.26936 0.0
O237 O 0.89999 0.08715 0.26458 0.0
C238 C 0.30368 0.61318 0.53254 0.0
O239 O 0.28971 0.60115 0.53414 0.0
Cd240 Cd 0.26084 0.60792 0.53448 0.0
O241 O 0.30313 0.62917 0.52885 0.0
Cd242 Cd 0.28196 0.64638 0.52121 0.0
C243 C 0.271 0.65106 0.56496 0.0
O244 O 0.25812 0.62096 0.50751 0.0
O245 O 0.25197 0.64843 0.5159 0.0
O246 O 0.29361 0.6486 0.49239 0.0
C247 C 0.24677 0.63111 0.50817 0.0
O248 O 0.26279 0.63372 0.56141 0.0
C249 C 0.29393 0.66609 0.494 0.0
O250 O 0.27978 0.65881 0.55311 0.0
O251 O 0.29119 0.67514 0.50981 0.0
C252 C 0.45809 0.56167 0.80923 0.0
O253 O 0.46515 0.55296 0.79605 0.0
Cd254 Cd 0.45418 0.54616 0.76386 0.0
O255 O 0.44492 0.56901 0.80478 0.0
Cd256 Cd 0.42716 0.57016 0.77038 0.0
C257 C 0.41203 0.51936 0.76466 0.0
O258 O 0.4544 0.57397 0.75055 0.0
O259 O 0.42989 0.56089 0.73433 0.0
O260 O 0.42292 0.60567 0.78026 0.0
C261 C 0.44634 0.56817 0.73425 0.0
O262 O 0.4279 0.51977 0.76046 0.0
C263 C 0.40718 0.60356 0.7727 0.0
O264 O 0.40737 0.53526 0.7697 0.0
O265 O 0.40029 0.58643 0.76478 0.0
C266 C 0.65543 0.0476 0.77298 0.0
O267 O 0.64489 0.05362 0.76295 0.0
Cd268 Cd 0.65251 0.05599 0.7323 0.0
O269 O 0.66836 0.04143 0.76628 0.0
Cd270 Cd 0.68427 0.03422 0.7402 0.0
C271 C 0.696 0.07987 0.74636 0.0
O272 O 0.65921 0.02613 0.72043 0.0
O273 O 0.68372 0.03207 0.70706 0.0
O274 O 0.68321 0.00598 0.75095 0.0
C275 C 0.66697 0.02607 0.70564 0.0
O276 O 0.68034 0.0801 0.74012 0.0
C277 C 0.69814 0.00429 0.74526 0.0
O278 O 0.70038 0.06469 0.74822 0.0
O279 O 0.70708 0.0173 0.73811 0.0
C280 C 0.8219 0.66156 0.01377 0.0
O281 O 0.81058 0.65314 0.02316 0.0
Cd282 Cd 0.78094 0.65742 0.02541 0.0
O283 O 0.81799 0.67363 0.00484 0.0
Cd284 Cd 0.79143 0.68747 0.00141 0.0
C285 C 0.792 0.70384 0.04757 0.0
O286 O 0.76822 0.65802 0.9952 0.0
O287 O 0.75885 0.68359 0.00303 0.0
O288 O 0.79932 0.68739 0.96972 0.0
C289 C 0.75511 0.66581 0.99703 0.0
O290 O 0.78357 0.68703 0.04756 0.0
C291 C 0.79808 0.7042 0.9694 0.0
O292 O 0.7986 0.70818 0.03291 0.0
O293 O 0.79384 0.71363 0.98423 0.0
C294 C 0.94634 0.53416 0.82103 0.0
O295 O 0.95467 0.52877 0.80723 0.0
Cd296 Cd 0.94228 0.52453 0.77573 0.0
O297 O 0.93207 0.53972 0.81893 0.0
Cd298 Cd 0.91245 0.54538 0.79569 0.0
C299 C 0.90123 0.49876 0.78206 0.0
O300 O 0.933 0.55305 0.77409 0.0
O301 O 0.90541 0.54478 0.76295 0.0
O302 O 0.91188 0.57623 0.81262 0.0
C303 C 0.92158 0.55048 0.76028 0.0
O304 O 0.91576 0.49911 0.77442 0.0
C305 C 0.89504 0.57252 0.81263 0.0
O306 O 0.89765 0.51367 0.7912 0.0
O307 O 0.8866 0.5557 0.80561 0.0
C308 C 0.84127 0.46124 0.51429 0.0
O309 O 0.83254 0.46993 0.50515 0.0
Cd310 Cd 0.80207 0.45658 0.49504 0.0
O311 O 0.83392 0.44601 0.51906 0.0
Cd312 Cd 0.8062 0.42396 0.51793 0.0
C313 C 0.81212 0.41572 0.47271 0.0
O314 O 0.78933 0.44672 0.52187 0.0
O315 O 0.77401 0.41808 0.51116 0.0
O316 O 0.81566 0.42459 0.54939 0.0
C317 C 0.77434 0.43537 0.51758 0.0
O318 O 0.8069 0.43064 0.47104 0.0
C319 C 0.81267 0.40672 0.54746 0.0
O320 O 0.81312 0.41075 0.48833 0.0
O321 O 0.80606 0.39669 0.53157 0.0
C322 C 0.63767 0.51224 0.30243 0.0
O323 O 0.62988 0.52109 0.29251 0.0
Cd324 Cd 0.63724 0.52796 0.26234 0.0
O325 O 0.65068 0.50521 0.29579 0.0
Cd326 Cd 0.66712 0.50279 0.26272 0.0
C327 C 0.681 0.55394 0.26819 0.0
O328 O 0.63877 0.50008 0.24017 0.0
O329 O 0.66294 0.50417 0.22731 0.0
O330 O 0.67064 0.46823 0.26497 0.0
C331 C 0.64618 0.50238 0.22535 0.0
O332 O 0.66435 0.55288 0.26547 0.0
C333 C 0.68704 0.4697 0.26233 0.0
O334 O 0.68646 0.53868 0.26912 0.0
O335 O 0.69451 0.48603 0.25965 0.0
Gd336 Gd 0.06893 0.0497 0.03326 0.0
Gd337 Gd 0.02604 0.02563 0.00942 0.0
C338 C 0.00069 0.96383 0.01154 0.0
C339 C 0.99623 0.94879 0.97867 0.0
C340 C 0.00996 0.98241 0.98832 0.0
C341 C 0.00865 0.98124 0.00681 0.0
C342 C 0.00336 0.96629 0.97399 0.0
C343 C 0.99489 0.94756 0.99742 0.0
C344 C 0.99806 0.96339 0.03022 0.0
C345 C 0.00279 0.9801 0.04358 0.0
N346 N 0.01396 0.99735 0.02007 0.0
C347 C 0.01058 0.99699 0.03825 0.0
H348 H 0.01421 0.00939 0.04917 0.0
C349 C 0.01546 1.0019 0.96611 0.0
N350 N 0.01644 0.99959 0.98425 0.0
C351 C 0.00929 0.98634 0.95143 0.0
C352 C 0.00342 0.96839 0.95538 0.0
H353 H 0.01982 0.01581 0.96294 0.0
H354 H 0.98885 0.9341 0.00083 0.0
H355 H 0.079 0.06815 0.9945 0.0
H356 H 0.99195 0.95034 0.03439 0.0
H357 H 0.00054 0.98002 0.05806 0.0
H358 H 0.99119 0.93626 0.96787 0.0
H359 H 0.07605 0.05718 0.07951 0.0
H360 H 0.10138 0.12711 0.01157 0.0
H361 H 0.09188 0.09842 0.98671 0.0
H362 H 0.10497 0.1376 0.07828 0.0
H363 H 0.00896 0.98823 0.9371 0.0
H364 H 0.99845 0.95637 0.944 0.0
H365 H 0.10613 0.14159 0.04569 0.0
H366 H 0.08754 0.08359 0.10633 0.0
N367 N 0.08013 0.07891 0.02396 0.0
C368 C 0.09548 0.11371 0.0152 0.0
C369 C 0.09023 0.09756 0.00117 0.0
C370 C 0.09368 0.11225 0.03381 0.0
C371 C 0.08587 0.09445 0.03781 0.0
C372 C 0.0829 0.0802 0.00582 0.0
N373 N 0.07868 0.07473 0.05934 0.0
C374 C 0.08513 0.09227 0.05608 0.0
C375 C 0.08675 0.0863 0.0923 0.0
C376 C 0.09272 0.1046 0.08923 0.0
C377 C 0.0801 0.07143 0.0771 0.0
C378 C 0.09228 0.10772 0.07094 0.0
H379 H 0.09815 0.11607 0.10099 0.0
O380 O 0.08802 0.03991 0.04933 0.0
O381 O 0.05066 0.02137 0.02297 0.0
O382 O 0.02262 0.03766 0.04048 0.0
O383 O 0.04959 0.05667 0.05506 0.0
O384 O 0.06113 0.02758 0.05057 0.0
O385 O 0.09396 0.04668 0.02232 0.0
O386 O 0.00796 0.03501 0.99174 0.0
O387 O 0.04425 0.054 0.01971 0.0
O388 O 0.07199 0.03875 0.00187 0.0
O389 O 0.04574 0.01755 0.9884 0.0
O390 O 0.03432 0.04731 0.99185 0.0
O391 O 0.00087 0.02998 0.01908 0.0
C392 C 0.05153 0.01459 0.0376 0.0
C393 C 0.09945 0.12558 0.06706 0.0
C394 C 0.10012 0.12785 0.04852 0.0
C395 C 0.09965 0.04157 0.03718 0.0
C396 C 0.11813 0.04959 0.04437 0.0
C397 C 0.12345 0.06448 0.05997 0.0
C398 C 0.13059 0.04058 0.03601 0.0
C399 C 0.14824 0.04528 0.0437 0.0
C400 C 0.14131 0.06988 0.06726 0.0
C401 C 0.15371 0.06019 0.05927 0.0
C402 C 0.0324 0.04906 0.05549 0.0
C403 C 0.04338 0.06059 0.00495 0.0
C404 C 0.9961 0.03488 0.00371 0.0
C405 C 0.97763 0.02808 0.99626 0.0
C406 C 0.97146 0.0115 0.98262 0.0
C407 C 0.96612 0.03948 0.00259 0.0
C408 C 0.94838 0.03472 0.99532 0.0
C409 C 0.95359 0.00654 0.97539 0.0
C410 C 0.94201 0.0181 0.98173 0.0
C411 C 0.06256 0.02619 0.98735 0.0
H412 H 0.11392 0.07165 0.06665 0.0
H413 H 0.1263 0.02918 0.02386 0.0
H414 H 0.14543 0.08121 0.07942 0.0
H415 H 0.16731 0.06391 0.06558 0.0
H416 H 0.98035 0.00258 0.97751 0.0
H417 H 0.97105 0.05226 0.0132 0.0
H418 H 0.94875 0.99383 0.96478 0.0
H419 H 0.92825 0.01426 0.97588 0.0
Gd420 Gd 0.28389 0.79636 0.29203 0.0
Gd421 Gd 0.303 0.77563 0.25009 0.0
C422 C 0.28638 0.71521 0.21556 0.0
C423 C 0.31509 0.70754 0.21058 0.0
C424 C 0.31331 0.73723 0.23065 0.0
C425 C 0.29503 0.7327 0.22708 0.0
C426 C 0.32358 0.72472 0.22245 0.0
C427 C 0.29651 0.70277 0.20718 0.0
C428 C 0.2678 0.71074 0.21276 0.0
C429 C 0.25832 0.72348 0.22148 0.0
N430 N 0.28571 0.7453 0.23507 0.0
C431 C 0.26748 0.74075 0.23254 0.0
H432 H 0.25964 0.75019 0.23902 0.0
C433 C 0.33922 0.75952 0.24514 0.0
N434 N 0.3211 0.75404 0.24195 0.0
C435 C 0.34996 0.7475 0.23759 0.0
C436 C 0.34212 0.73001 0.22616 0.0
H437 H 0.34543 0.77348 0.2531 0.0
H438 H 0.29011 0.68941 0.19807 0.0
H439 H 0.32881 0.81621 0.30457 0.0
H440 H 0.26067 0.69745 0.20403 0.0
H441 H 0.24392 0.72009 0.21957 0.0
H442 H 0.32276 0.69784 0.20398 0.0
H443 H 0.24383 0.80619 0.28577 0.0
H444 H 0.33289 0.86935 0.34108 0.0
H445 H 0.34686 0.84425 0.32528 0.0
H446 H 0.27344 0.8786 0.33832 0.0
H447 H 0.3643 0.75193 0.24023 0.0
H448 H 0.35047 0.72083 0.22006 0.0
H449 H 0.30545 0.88187 0.34609 0.0
H450 H 0.22841 0.83122 0.29807 0.0
N451 N 0.30401 0.82438 0.30857 0.0
C452 C 0.32469 0.85688 0.33196 0.0
C453 C 0.33261 0.84273 0.32311 0.0
C454 C 0.30638 0.85501 0.32853 0.0
C455 C 0.29629 0.83853 0.31644 0.0
C456 C 0.32209 0.82656 0.31143 0.0
N457 N 0.26926 0.8214 0.29927 0.0
C458 C 0.27837 0.83695 0.31169 0.0
C459 C 0.24251 0.83313 0.30186 0.0
C460 C 0.2518 0.84936 0.31433 0.0
C461 C 0.25141 0.81912 0.29466 0.0
C462 C 0.26992 0.85143 0.31944 0.0
H463 H 0.24483 0.86013 0.32005 0.0
O464 O 0.25951 0.78555 0.30308 0.0
O465 O 0.28958 0.77113 0.27482 0.0
O466 O 0.27573 0.78115 0.2419 0.0
O467 O 0.26919 0.80266 0.26691 0.0
O468 O 0.2639 0.76885 0.28171 0.0
O469 O 0.28503 0.79188 0.32083 0.0
O470 O 0.32371 0.79077 0.23656 0.0
O471 O 0.29784 0.80144 0.26751 0.0
O472 O 0.30911 0.78692 0.30137 0.0
O473 O 0.3201 0.77152 0.27464 0.0
O474 O 0.32399 0.80146 0.26211 0.0
O475 O 0.29711 0.77966 0.22189 0.0
C476 C 0.27521 0.75966 0.2746 0.0
C477 C 0.27975 0.86744 0.33209 0.0
C478 C 0.29795 0.86927 0.33656 0.0
C479 C 0.26767 0.78595 0.31919 0.0
C480 C 0.25729 0.78146 0.33443 0.0
C481 C 0.24215 0.78876 0.33809 0.0
C482 C 0.26185 0.76868 0.34455 0.0
C483 C 0.25141 0.76323 0.35846 0.0
C484 C 0.23182 0.78346 0.35218 0.0
C485 C 0.23647 0.77076 0.36246 0.0
C486 C 0.26599 0.79307 0.24932 0.0
C487 C 0.3132 0.81164 0.26878 0.0
C488 C 0.31334 0.78922 0.22161 0.0
C489 C 0.32166 0.78802 0.20432 0.0
C490 C 0.33005 0.77348 0.19709 0.0
C491 C 0.32324 0.80386 0.19647 0.0
C492 C 0.33276 0.80549 0.181 0.0
C493 C 0.33983 0.77504 0.1816 0.0
C494 C 0.34124 0.79105 0.17353 0.0
C495 C 0.3209 0.77796 0.29303 0.0
H496 H 0.23835 0.79847 0.33006 0.0
H497 H 0.27339 0.76281 0.34148 0.0
H498 H 0.22017 0.7891 0.35508 0.0
H499 H 0.22837 0.76664 0.37332 0.0
H500 H 0.32932 0.76132 0.20355 0.0
H501 H 0.31733 0.81536 0.20286 0.0
H502 H 0.3464 0.76393 0.17592 0.0
H503 H 0.34866 0.79202 0.16143 0.0
Gd504 Gd 0.52508 0.03332 0.52782 0.0
Gd505 Gd 0.56996 0.03934 0.51052 0.0
C506 C 0.60635 0.09713 0.51182 0.0
C507 C 0.60874 0.0968 0.47876 0.0
C508 C 0.591 0.06962 0.48874 0.0
C509 C 0.59518 0.07881 0.50723 0.0
C510 C 0.59799 0.07837 0.4743 0.0
C511 C 0.61287 0.10618 0.49748 0.0
C512 C 0.61094 0.10564 0.5307 0.0
C513 C 0.60483 0.0957 0.54443 0.0
N514 N 0.58881 0.06959 0.52075 0.0
C515 C 0.59393 0.07751 0.53918 0.0
H516 H 0.58933 0.07013 0.55002 0.0
C517 C 0.57737 0.04157 0.46699 0.0
N518 N 0.58055 0.05185 0.4849 0.0
C519 C 0.58399 0.04966 0.4522 0.0
C520 C 0.59422 0.0682 0.45584 0.0
H521 H 0.56948 0.02723 0.4641 0.0
H522 H 0.62138 0.12029 0.50074 0.0
H523 H 0.50375 0.00582 0.48738 0.0
H524 H 0.61945 0.11971 0.53479 0.0
H525 H 0.60849 0.10204 0.55907 0.0
H526 H 0.61414 0.10382 0.46785 0.0
H527 H 0.52521 0.0424 0.57424 0.0
H528 H 0.47525 0.95369 0.49915 0.0
H529 H 0.48464 0.97408 0.47651 0.0
H530 H 0.48278 0.96403 0.56602 0.0
H531 H 0.58122 0.04159 0.438 0.0
H532 H 0.59937 0.07442 0.44436 0.0
H533 H 0.47484 0.94997 0.53259 0.0
H534 H 0.51437 0.02562 0.59925 0.0
N535 N 0.50579 0.00357 0.51602 0.0
C536 C 0.48373 0.96768 0.50405 0.0
C537 C 0.48896 0.97915 0.49124 0.0
C538 C 0.48902 0.97463 0.52309 0.0
C539 C 0.50009 0.99293 0.52872 0.0
C540 C 0.49989 0.99722 0.49751 0.0
N541 N 0.51465 0.01869 0.5523 0.0
C542 C 0.50461 1.00077 0.54747 0.0
C543 C 0.5116 0.01844 0.58474 0.0
C544 C 0.50199 0.99964 0.58004 0.0
C545 C 0.51767 0.0279 0.57059 0.0
C546 C 0.49815 0.99065 0.5612 0.0
H547 H 0.49727 0.99235 0.59102 0.0
O548 O 0.51304 0.05555 0.54135 0.0
O549 O 0.54947 0.05357 0.52338 0.0
O550 O 0.56927 0.03976 0.54107 0.0
O551 O 0.54204 0.0214 0.54569 0.0
O552 O 0.53891 0.05996 0.54846 0.0
O553 O 0.50088 0.038 0.51471 0.0
O554 O 0.58159 0.01551 0.50053 0.0
O555 O 0.54538 0.01938 0.51476 0.0
O556 O 0.52551 0.03464 0.4973 0.0
O557 O 0.55369 0.05115 0.49204 0.0
O558 O 0.55608 0.01246 0.48998 0.0
O559 O 0.5951 0.03711 0.52401 0.0
C560 C 0.55097 0.06611 0.53809 0.0
C561 C 0.48773 0.97212 0.55569 0.0
C562 C 0.4832 0.96411 0.53666 0.0
C563 C 0.4999 0.0518 0.52839 0.0
C564 C 0.48242 0.05248 0.535 0.0
C565 C 0.47537 0.04176 0.54795 0.0
C566 C 0.47345 0.06547 0.52945 0.0
C567 C 0.4576 0.06811 0.53701 0.0
C568 C 0.45954 0.04424 0.55545 0.0
C569 C 0.45073 0.05742 0.55012 0.0
C570 C 0.55917 0.0285 0.55026 0.0
C571 C 0.54358 0.00681 0.5001 0.0
C572 C 0.59561 0.02149 0.51249 0.0
C573 C 0.61258 0.01997 0.50478 0.0
C574 C 0.61768 0.02809 0.48946 0.0
C575 C 0.62303 0.00888 0.51179 0.0
C576 C 0.63845 0.00569 0.50339 0.0
C577 C 0.63286 0.02493 0.48101 0.0
C578 C 0.64313 0.01375 0.48781 0.0
C579 C 0.53652 0.04449 0.48755 0.0
H580 H 0.48223 0.03177 0.55247 0.0
H581 H 0.47911 0.07396 0.51967 0.0
H582 H 0.45415 0.03605 0.56552 0.0
H583 H 0.43845 0.05911 0.55607 0.0
H584 H 0.60977 0.03655 0.48379 0.0
H585 H 0.61906 0.0027 0.52369 0.0
H586 H 0.63657 0.03097 0.46897 0.0
H587 H 0.65459 0.01118 0.48065 0.0
Gd588 Gd 0.31945 0.28119 0.77158 0.0
Gd589 Gd 0.2749 0.29203 0.76813 0.0
C590 C 0.24446 0.27972 0.71003 0.0
C591 C 0.23998 0.31077 0.70745 0.0
C592 C 0.25592 0.30656 0.73535 0.0
C593 C 0.25374 0.28754 0.72785 0.0
C594 C 0.24862 0.31831 0.72547 0.0
C595 C 0.23795 0.29151 0.69972 0.0
C596 C 0.24145 0.26018 0.70335 0.0
C597 C 0.247 0.24887 0.71466 0.0
N598 N 0.25977 0.27649 0.73843 0.0
C599 C 0.25585 0.25721 0.73234 0.0
H600 H 0.25997 0.24799 0.74059 0.0
C601 C 0.26385 0.33121 0.76205 0.0
N602 N 0.26399 0.3133 0.75292 0.0
C603 C 0.25703 0.34348 0.75278 0.0
C604 C 0.24959 0.33708 0.7343 0.0
H605 H 0.26934 0.33608 0.77648 0.0
H606 H 0.23086 0.28576 0.68599 0.0
H607 H 0.3382 0.326 0.79614 0.0
H608 H 0.23445 0.25365 0.68972 0.0
H609 H 0.24444 0.23368 0.7098 0.0
H610 H 0.23439 0.31959 0.69959 0.0
H611 H 0.325 0.23702 0.76546 0.0
H612 H 0.35991 0.32198 0.84948 0.0
H613 H 0.35342 0.34125 0.82686 0.0
H614 H 0.35496 0.25547 0.84442 0.0
H615 H 0.25737 0.3578 0.75994 0.0
H616 H 0.2441 0.34654 0.72719 0.0
H617 H 0.35994 0.28985 0.85612 0.0
H618 H 0.33497 0.21569 0.78405 0.0
N619 N 0.33535 0.29771 0.80069 0.0
C620 C 0.35312 0.31504 0.83584 0.0
C621 C 0.34955 0.32595 0.82309 0.0
C622 C 0.34863 0.29531 0.8305 0.0
C623 C 0.33984 0.28699 0.81255 0.0
C624 C 0.34079 0.31705 0.80548 0.0
N625 N 0.32982 0.26058 0.78824 0.0
C626 C 0.33696 0.26774 0.80608 0.0
C627 C 0.33548 0.23027 0.79048 0.0
C628 C 0.34167 0.2371 0.8093 0.0
C629 C 0.3299 0.24237 0.78 0.0
C630 C 0.34288 0.25617 0.81722 0.0
H631 H 0.34609 0.22774 0.81738 0.0
O632 O 0.3338 0.26797 0.74994 0.0
O633 O 0.29723 0.28415 0.75247 0.0
O634 O 0.2722 0.26107 0.77098 0.0
O635 O 0.30008 0.25521 0.7782 0.0
O636 O 0.30661 0.2594 0.74671 0.0
O637 O 0.34452 0.29678 0.764 0.0
O638 O 0.26036 0.30335 0.79071 0.0
O639 O 0.29723 0.28903 0.78681 0.0
O640 O 0.32191 0.31208 0.76797 0.0
O641 O 0.29391 0.31848 0.7623 0.0
O642 O 0.28753 0.31334 0.79384 0.0
O643 O 0.24914 0.27592 0.77371 0.0
C644 C 0.29625 0.26898 0.74057 0.0
C645 C 0.35056 0.26417 0.83555 0.0
C646 C 0.3534 0.28374 0.8422 0.0
C647 C 0.3468 0.28271 0.7514 0.0
C648 C 0.36491 0.27911 0.75071 0.0
C649 C 0.3715 0.26997 0.76379 0.0
C650 C 0.37553 0.28426 0.73646 0.0
C651 C 0.39264 0.28039 0.7355 0.0
C652 C 0.38833 0.26592 0.76271 0.0
C653 C 0.39886 0.27113 0.74872 0.0
C654 C 0.28235 0.24972 0.7754 0.0
C655 C 0.29854 0.30393 0.79902 0.0
C656 C 0.24689 0.2889 0.78754 0.0
C657 C 0.22898 0.2932 0.78849 0.0
C658 C 0.22308 0.30345 0.77606 0.0
C659 C 0.21803 0.28797 0.80252 0.0
C660 C 0.20161 0.2935 0.80431 0.0
C661 C 0.20692 0.30894 0.77783 0.0
C662 C 0.19634 0.30416 0.79191 0.0
C663 C 0.31166 0.32371 0.76437 0.0
H664 H 0.36362 0.26589 0.77479 0.0
H665 H 0.37055 0.2913 0.72625 0.0
H666 H 0.39327 0.25874 0.77278 0.0
H667 H 0.41191 0.26792 0.74819 0.0
H668 H 0.23101 0.30736 0.76507 0.0
H669 H 0.2224 0.27999 0.81218 0.0
H670 H 0.2026 0.31701 0.76827 0.0
H671 H 0.18385 0.30858 0.79298 0.0
Gd672 Gd 0.05382 0.01403 0.50985 0.0
Gd673 Gd 0.04392 0.05744 0.53053 0.0
C674 C 0.05544 0.08473 0.59282 0.0
C675 C 0.02627 0.0888 0.60124 0.0
C676 C 0.0301 0.07387 0.56954 0.0
C677 C 0.04802 0.07596 0.57443 0.0
C678 C 0.01907 0.08059 0.5828 0.0
C679 C 0.04443 0.09084 0.60624 0.0
C680 C 0.07382 0.08774 0.59703 0.0
C681 C 0.0844 0.08268 0.58294 0.0
N682 N 0.0584 0.07051 0.56095 0.0
C683 C 0.0765 0.0744 0.56487 0.0
H684 H 0.0851 0.07086 0.55431 0.0
C685 C 0.00651 0.06615 0.54555 0.0
N686 N 0.02366 0.06641 0.55149 0.0
C687 C 0.995 0.07235 0.55822 0.0
C688 C 0.00127 0.07948 0.57698 0.0
H689 H 0.00166 0.06099 0.53099 0.0
H690 H 0.0499 0.0976 0.62041 0.0
H691 H 0.01077 0.99945 0.49041 0.0
H692 H 0.08001 0.09439 0.61098 0.0
H693 H 0.09868 0.08528 0.58592 0.0
H694 H 0.01801 0.09402 0.61162 0.0
H695 H 0.09619 0.01297 0.50444 0.0
H696 H 0.01103 0.97576 0.43273 0.0
H697 H 0.99466 0.9844 0.46001 0.0
H698 H 0.07268 0.97874 0.42503 0.0
H699 H 0.98136 0.07181 0.55348 0.0
H700 H 0.99239 0.08452 0.58673 0.0
H701 H 0.04015 0.97376 0.41983 0.0
H702 H 0.11453 0.00303 0.4793 0.0
N703 N 0.03665 1.00011 0.48095 0.0
C704 C 0.01834 0.98253 0.44616 0.0
C705 C 0.00906 0.98732 0.46152 0.0
C706 C 0.03692 0.98611 0.44841 0.0
C707 C 0.04582 0.99502 0.4662 0.0
C708 C 0.01841 0.99589 0.47891 0.0
N709 N 0.07218 0.0058 0.48648 0.0
C710 C 0.06413 0.99791 0.46907 0.0
C711 C 0.10039 1.00159 0.4762 0.0
C712 C 0.0924 0.99401 0.45806 0.0
C713 C 0.08999 0.0072 0.49038 0.0
C714 C 0.07404 0.99186 0.45433 0.0
H715 H 0.10046 0.98951 0.44712 0.0
O716 O 0.06827 0.99582 0.52093 0.0
O717 O 0.05346 0.03272 0.53789 0.0
O718 O 0.07261 0.06139 0.52332 0.0
O719 O 0.07349 0.03626 0.49951 0.0
O720 O 0.0768 0.02436 0.53252 0.0
O721 O 0.03986 0.9859 0.51223 0.0
O722 O 0.03298 0.07626 0.51636 0.0
O723 O 0.04423 0.03862 0.50255 0.0
O724 O 0.02611 0.00883 0.51994 0.0
O725 O 0.0226 0.0362 0.53975 0.0
O726 O 0.0211 0.04728 0.50755 0.0
O727 O 0.0596 0.08562 0.53074 0.0
C728 C 0.06877 0.03269 0.54548 0.0
C729 C 0.06529 0.98343 0.43652 0.0
C730 C 0.04677 0.98059 0.43356 0.0
C731 C 0.05421 0.98213 0.51932 0.0
C732 C 0.05673 0.96295 0.51408 0.0
C733 C 0.06623 0.95721 0.49902 0.0
C734 C 0.05022 0.95045 0.52552 0.0
C735 C 0.05301 0.9321 0.52208 0.0
C736 C 0.06899 0.93878 0.49548 0.0
C737 C 0.06233 0.92617 0.50692 0.0
C738 C 0.08045 0.05341 0.50932 0.0
C739 C 0.02895 0.03847 0.49477 0.0
C740 C 0.04704 0.08992 0.52099 0.0
C741 C 0.04392 0.10882 0.52626 0.0
C742 C 0.03565 0.11465 0.54225 0.0
C743 C 0.04868 0.12096 0.51404 0.0
C744 C 0.04559 0.13921 0.51768 0.0
C745 C 0.03224 0.13279 0.54588 0.0
C746 C 0.03718 0.14509 0.53365 0.0
C747 C 0.0172 0.01808 0.53201 0.0
H748 H 0.07157 0.96691 0.49022 0.0
H749 H 0.04301 0.95504 0.53726 0.0
H750 H 0.0764 0.9343 0.48395 0.0
H751 H 0.06466 0.91198 0.50416 0.0
H752 H 0.03175 0.10525 0.55176 0.0
H753 H 0.05461 0.11601 0.50144 0.0
H754 H 0.0258 0.13734 0.55818 0.0
H755 H 0.03468 0.15919 0.5368 0.0
Gd756 Gd 0.27849 0.77176 0.77088 0.0
Gd757 Gd 0.3186 0.80275 0.76483 0.0
C758 C 0.32156 0.86322 0.75728 0.0
C759 C 0.33174 0.86218 0.72625 0.0
C760 C 0.32683 0.83392 0.73965 0.0
C761 C 0.32168 0.84389 0.75569 0.0
C762 C 0.33221 0.84305 0.72489 0.0
C763 C 0.32639 0.87222 0.74239 0.0
C764 C 0.31692 0.87304 0.77392 0.0
C765 C 0.31297 0.86371 0.78864 0.0
N766 N 0.31731 0.83487 0.76996 0.0
C767 C 0.31343 0.8446 0.7865 0.0
H768 H 0.31036 0.83771 0.79808 0.0
C769 C 0.33402 0.80568 0.72412 0.0
N770 N 0.32732 0.81551 0.73879 0.0
C771 C 0.33936 0.81408 0.70909 0.0
C772 C 0.33832 0.8328 0.7094 0.0
H773 H 0.33495 0.79123 0.72389 0.0
H774 H 0.32632 0.88704 0.74334 0.0
H775 H 0.28673 0.73555 0.73921 0.0
H776 H 0.31659 0.88787 0.77565 0.0
H777 H 0.30958 0.87123 0.80166 0.0
H778 H 0.33575 0.86941 0.71502 0.0
H779 H 0.25725 0.78247 0.80876 0.0
H780 H 0.28332 0.68774 0.76495 0.0
H781 H 0.2889 0.70264 0.73757 0.0
H782 H 0.26253 0.70799 0.82425 0.0
H783 H 0.34435 0.80614 0.69732 0.0
H784 H 0.34258 0.83933 0.69779 0.0
H785 H 0.27368 0.68995 0.79738 0.0
H786 H 0.2476 0.76874 0.83591 0.0
N787 N 0.28086 0.74 0.76771 0.0
C788 C 0.28257 0.70238 0.76588 0.0
C789 C 0.28566 0.7107 0.75038 0.0
C790 C 0.27781 0.71279 0.78212 0.0
C791 C 0.27702 0.73182 0.78262 0.0
C792 C 0.28447 0.7295 0.75144 0.0
N793 N 0.26887 0.75972 0.79711 0.0
C794 C 0.27084 0.74199 0.7978 0.0
C795 C 0.25429 0.76116 0.8254 0.0
C796 C 0.25718 0.74342 0.82693 0.0
C797 C 0.25987 0.76894 0.81009 0.0
C798 C 0.26513 0.7334 0.81281 0.0
H799 H 0.25261 0.73729 0.83867 0.0
O800 O 0.25218 0.77725 0.7676 0.0
O801 O 0.28904 0.80093 0.76474 0.0
O802 O 0.31362 0.806 0.79515 0.0
O803 O 0.29322 0.77923 0.79918 0.0
O804 O 0.27158 0.79929 0.78481 0.0
O805 O 0.2577 0.75172 0.75159 0.0
O806 O 0.34514 0.79799 0.76331 0.0
O807 O 0.30808 0.77383 0.7713 0.0
O808 O 0.2861 0.76795 0.74121 0.0
O809 O 0.30158 0.79732 0.73805 0.0
O810 O 0.32527 0.77494 0.75092 0.0
O811 O 0.34003 0.82023 0.7851 0.0
C812 C 0.28023 0.81085 0.77541 0.0
C813 C 0.26673 0.71479 0.81279 0.0
C814 C 0.27308 0.70451 0.79748 0.0
C815 C 0.24571 0.76133 0.75607 0.0
C816 C 0.22841 0.75101 0.75996 0.0
C817 C 0.2265 0.74074 0.77435 0.0
C818 C 0.21334 0.75299 0.74995 0.0
C819 C 0.19638 0.74522 0.7545 0.0
C820 C 0.20955 0.73316 0.77911 0.0
C821 C 0.19447 0.73553 0.76932 0.0
C822 C 0.30562 0.79463 0.80561 0.0
C823 C 0.31681 0.76375 0.76075 0.0
C824 C 0.35181 0.81158 0.77755 0.0
C825 C 0.36935 0.8229 0.77587 0.0
C826 C 0.37234 0.83474 0.76287 0.0
C827 C 0.38369 0.82004 0.78642 0.0
C828 C 0.40114 0.82866 0.784 0.0
C829 C 0.38975 0.84351 0.76044 0.0
C830 C 0.40416 0.8404 0.77086 0.0
C831 C 0.29187 0.78043 0.73089 0.0
H832 H 0.23795 0.73869 0.782 0.0
H833 H 0.2148 0.76097 0.73885 0.0
H834 H 0.20813 0.72547 0.79039 0.0
H835 H 0.18137 0.72954 0.77303 0.0
H836 H 0.36137 0.83692 0.75445 0.0
H837 H 0.38126 0.81043 0.79607 0.0
H838 H 0.39211 0.85255 0.75032 0.0
H839 H 0.41757 0.84721 0.76875 0.0
Gd840 Gd 0.53971 0.04366 0.99197 0.0
Gd841 Gd 0.55274 0.03795 0.04114 0.0
C842 C 0.60293 0.06782 0.08083 0.0
C843 C 0.62163 0.04507 0.07562 0.0
C844 C 0.5918 0.03776 0.05957 0.0
C845 C 0.58942 0.05526 0.06799 0.0
C846 C 0.60769 0.03215 0.06394 0.0
C847 C 0.61928 0.06293 0.08403 0.0
C848 C 0.59931 0.08454 0.09069 0.0
C849 C 0.58222 0.08774 0.08856 0.0
N850 N 0.57339 0.05942 0.06471 0.0
C851 C 0.56922 0.07466 0.0759 0.0
H852 H 0.55588 0.07698 0.07476 0.0
C853 C 0.57821 0.0067 0.04429 0.0
N854 N 0.57794 0.02557 0.04855 0.0
C855 C 0.59365 1.00048 0.048 0.0
C856 C 0.60869 0.0134 0.05737 0.0
H857 H 0.56646 0.99608 0.0383 0.0
H858 H 0.62989 0.07251 0.09361 0.0
H859 H 0.52833 1.00126 0.96014 0.0
H860 H 0.60933 0.09458 0.10062 0.0
H861 H 0.579 0.10018 0.09678 0.0
H862 H 0.63398 0.04108 0.07891 0.0
H863 H 0.52937 0.08648 0.99234 0.0
H864 H 0.47171 0.98601 0.94982 0.0
H865 H 0.50103 0.97804 0.94617 0.0
H866 H 0.45514 0.04457 0.9709 0.0
H867 H 0.59377 0.98562 0.044 0.0
H868 H 0.62058 0.00852 0.06049 0.0
H869 H 0.45462 0.01096 0.95937 0.0
H870 H 0.50283 0.09931 0.98951 0.0
N871 N 0.51472 0.02146 0.97415 0.0
C872 C 0.48367 0.99609 0.95655 0.0
C873 C 0.50017 0.99156 0.95443 0.0
C874 C 0.48295 0.01421 0.9659 0.0
C875 C 0.49893 0.02679 0.97454 0.0
C876 C 0.51565 0.00475 0.96269 0.0
N877 N 0.51498 0.05758 0.98791 0.0
C878 C 0.49911 0.04558 0.9814 0.0
C879 C 0.50149 0.08415 0.98756 0.0
C880 C 0.48477 0.07194 0.98314 0.0
C881 C 0.51654 0.07669 0.98928 0.0
C882 C 0.48348 0.0524 0.97931 0.0
H883 H 0.47313 0.07774 0.98159 0.0
O884 O 0.5531 0.06905 0.98334 0.0
O885 O 0.56028 0.0479 0.01537 0.0
O886 O 0.55634 0.06908 0.04045 0.0
O887 O 0.53764 0.06832 0.01414 0.0
O888 O 0.56781 0.03937 0.9888 0.0
O889 O 0.54607 0.04148 0.96323 0.0
O890 O 0.53962 0.0111 0.04738 0.0
O891 O 0.53255 0.03385 0.01749 0.0
O892 O 0.53829 0.01317 0.99219 0.0
O893 O 0.55655 0.01371 0.01875 0.0
O894 O 0.52505 0.0434 0.04349 0.0
O895 O 0.53835 0.03777 0.06561 0.0
C896 C 0.57295 0.04446 0.00642 0.0
C897 C 0.46731 0.03963 0.97225 0.0
C898 C 0.46702 0.0205 0.96567 0.0
C899 C 0.55265 0.05976 0.96624 0.0
C900 C 0.55989 0.06916 0.9517 0.0
C901 C 0.55702 0.08696 0.95013 0.0
C902 C 0.56992 0.06015 0.93929 0.0
C903 C 0.57744 0.0689 0.92536 0.0
C904 C 0.56412 0.09557 0.93585 0.0
C905 C 0.57433 0.08658 0.92344 0.0
C906 C 0.54575 0.07662 0.03083 0.0
C907 C 0.5198 0.03784 0.02592 0.0
C908 C 0.53429 0.01931 0.0628 0.0
C909 C 0.53566 0.01124 0.07943 0.0
C910 C 0.5463 0.99833 0.08127 0.0
C911 C 0.5252 0.01635 0.09363 0.0
C912 C 0.52483 0.00843 0.10955 0.0
C913 C 0.54635 0.99068 0.09738 0.0
C914 C 0.53564 0.99567 0.11151 0.0
C915 C 0.54844 0.00551 0.00199 0.0
H916 H 0.54918 0.09404 0.95977 0.0
H917 H 0.57206 0.04635 0.94063 0.0
H918 H 0.56184 0.10926 0.9345 0.0
H919 H 0.58008 0.09355 0.91265 0.0
H920 H 0.5544 0.99405 0.07032 0.0
H921 H 0.51709 0.02644 0.09214 0.0
H922 H 0.55449 0.98065 0.0988 0.0
H923 H 0.53547 0.98923 0.12367 0.0
Gd924 Gd 0.28347 0.26006 0.25812 0.0
Gd925 Gd 0.30881 0.3091 0.27615 0.0
C926 C 0.36492 0.32571 0.25713 0.0
C927 C 0.38376 0.32736 0.28514 0.0
C928 C 0.35147 0.31697 0.28442 0.0
C929 C 0.34957 0.31952 0.26615 0.0
C930 C 0.36867 0.32121 0.29413 0.0
C931 C 0.38187 0.32975 0.26677 0.0
C932 C 0.3629 0.32818 0.23877 0.0
C933 C 0.34594 0.32516 0.22995 0.0
N934 N 0.33289 0.31657 0.25739 0.0
C935 C 0.33112 0.3198 0.23952 0.0
H936 H 0.31857 0.31865 0.23204 0.0
C937 C 0.33839 0.31261 0.31216 0.0
N938 N 0.33665 0.31161 0.29314 0.0
C939 C 0.35504 0.31623 0.32211 0.0
C940 C 0.37028 0.32023 0.31299 0.0
H941 H 0.32706 0.31148 0.32029 0.0
H942 H 0.39366 0.33507 0.26021 0.0
H943 H 0.27018 0.26717 0.30318 0.0
H944 H 0.37436 0.3327 0.23139 0.0
H945 H 0.3442 0.32735 0.2158 0.0
H946 H 0.39696 0.33081 0.29246 0.0
H947 H 0.26841 0.25126 0.21224 0.0
H948 H 0.21582 0.23954 0.30044 0.0
H949 H 0.24419 0.25652 0.31881 0.0
H950 H 0.19751 0.22228 0.23505 0.0
H951 H 0.35607 0.31663 0.33701 0.0
H952 H 0.38321 0.32353 0.32086 0.0
H953 H 0.19861 0.22684 0.26925 0.0
H954 H 0.24073 0.2371 0.1924 0.0
N955 N 0.25807 0.25492 0.27545 0.0
C956 C 0.2275 0.24385 0.2933 0.0
C957 C 0.24347 0.25337 0.3037 0.0
C958 C 0.22665 0.24057 0.27382 0.0
C959 C 0.24228 0.24656 0.26517 0.0
C960 C 0.25854 0.259 0.29457 0.0
N961 N 0.25657 0.25105 0.23808 0.0
C962 C 0.24151 0.24459 0.24596 0.0
C963 C 0.24065 0.23942 0.20745 0.0
C964 C 0.22503 0.23334 0.21543 0.0
C965 C 0.25635 0.24794 0.21895 0.0
C966 C 0.22531 0.23574 0.23485 0.0
H967 H 0.21292 0.22649 0.20646 0.0
O968 O 0.29004 0.24231 0.23346 0.0
O969 O 0.30841 0.28174 0.25839 0.0
O970 O 0.29566 0.3099 0.24828 0.0
O971 O 0.28301 0.27773 0.23584 0.0
O972 O 0.31115 0.25584 0.26368 0.0
O973 O 0.27905 0.2298 0.25691 0.0
O974 O 0.3058 0.32586 0.30293 0.0
O975 O 0.28348 0.28799 0.27553 0.0
O976 O 0.29415 0.25863 0.28653 0.0
O977 O 0.30678 0.29076 0.29817 0.0
O978 O 0.28172 0.31451 0.2711 0.0
O979 O 0.31664 0.33968 0.28083 0.0
C980 C 0.31943 0.27236 0.26181 0.0
C981 C 0.20997 0.22922 0.24338 0.0
C982 C 0.21062 0.23171 0.26283 0.0
C983 C 0.2846 0.22712 0.2402 0.0
C984 C 0.28523 0.20837 0.22997 0.0
C985 C 0.27824 0.20204 0.21125 0.0
C986 C 0.29383 0.19709 0.23879 0.0
C987 C 0.29575 0.17952 0.22899 0.0
C988 C 0.27982 0.18436 0.20148 0.0
C989 C 0.28866 0.17314 0.21026 0.0
C990 C 0.28727 0.29579 0.2346 0.0
C991 C 0.27273 0.29793 0.27233 0.0
C992 C 0.31289 0.34177 0.29823 0.0
C993 C 0.30591 0.3581 0.30588 0.0
C994 C 0.31427 0.37005 0.32257 0.0
C995 C 0.2916 0.36231 0.29648 0.0
C996 C 0.286 0.37895 0.30331 0.0
C997 C 0.30848 0.38641 0.3297 0.0
C998 C 0.29448 0.39096 0.32006 0.0
C999 C 0.30267 0.27283 0.29985 0.0
H1000 H 0.27161 0.21075 0.20425 0.0
H1001 H 0.29971 0.20244 0.25309 0.0
H1002 H 0.27436 0.17943 0.18705 0.0
H1003 H 0.28995 0.15956 0.20246 0.0
H1004 H 0.32542 0.36685 0.32995 0.0
H1005 H 0.28516 0.35286 0.28365 0.0
H1006 H 0.3151 0.39576 0.34247 0.0
H1007 H 0.2907 0.40414 0.3254 0.0
Gd1008 Gd 0.55341 0.51451 0.01014 0.0
Gd1009 Gd 0.54458 0.55792 0.03207 0.0
C1010 C 0.55825 0.58548 0.09412 0.0
C1011 C 0.52944 0.58962 0.10374 0.0
C1012 C 0.53223 0.57481 0.0717 0.0
C1013 C 0.55027 0.57689 0.07588 0.0
C1014 C 0.52163 0.58138 0.08551 0.0
C1015 C 0.54771 0.59161 0.10805 0.0
C1016 C 0.57665 0.58806 0.09774 0.0
C1017 C 0.5867 0.58266 0.08325 0.0
N1018 N 0.56014 0.57123 0.06197 0.0
C1019 C 0.57826 0.57454 0.06536 0.0
H1020 H 0.5865 0.57061 0.05455 0.0
C1021 C 0.50763 0.56609 0.04879 0.0
N1022 N 0.52512 0.56703 0.05392 0.0
C1023 C 0.49657 0.57227 0.06202 0.0
C1024 C 0.50358 0.57987 0.08049 0.0
H1025 H 0.50214 0.56039 0.03449 0.0
H1026 H 0.55361 0.59823 0.12211 0.0
H1027 H 0.51082 0.50181 0.98941 0.0
H1028 H 0.58325 0.59451 0.11157 0.0
H1029 H 0.60099 0.58482 0.08581 0.0
H1030 H 0.52152 0.59473 0.11454 0.0
H1031 H 0.59579 0.51293 0.00591 0.0
H1032 H 0.51186 0.47582 0.93251 0.0
H1033 H 0.49517 0.48647 0.95886 0.0
H1034 H 0.57341 0.47617 0.92686 0.0
H1035 H 0.48268 0.57128 0.05792 0.0
H1036 H 0.49502 0.58479 0.09069 0.0
H1037 H 0.54105 0.47202 0.92073 0.0
H1038 H 0.61442 0.50171 0.98164 0.0
N1039 N 0.53679 0.50082 0.9809 0.0
C1040 C 0.51898 0.48277 0.94599 0.0
C1041 C 0.50951 0.48873 0.96082 0.0
C1042 C 0.53747 0.48555 0.94881 0.0
C1043 C 0.54612 0.49474 0.96664 0.0
C1044 C 0.51861 0.49751 0.97828 0.0
N1045 N 0.57212 0.50562 0.98741 0.0
C1046 C 0.56433 0.49722 0.97001 0.0
C1047 C 0.60037 0.50046 0.97815 0.0
C1048 C 0.59266 0.49229 0.96 0.0
C1049 C 0.58981 0.50683 0.99182 0.0
C1050 C 0.5744 0.49039 0.95578 0.0
H1051 H 0.60084 0.4872 0.94946 0.0
O1052 O 0.56639 0.49599 0.02251 0.0
O1053 O 0.5539 0.53292 0.03855 0.0
O1054 O 0.57293 0.56161 0.02415 0.0
O1055 O 0.57354 0.53661 1.00003 0.0
O1056 O 0.57678 0.52405 0.03238 0.0
O1057 O 0.53857 0.48626 0.0114 0.0
O1058 O 0.53259 0.57643 0.01858 0.0
O1059 O 0.544 0.53952 0.00347 0.0
O1060 O 0.52536 0.51038 0.0194 0.0
O1061 O 0.52452 0.53634 0.04256 0.0
O1062 O 0.52104 0.54771 0.01024 0.0
O1063 O 0.55997 0.58599 0.03097 0.0
C1064 C 0.56925 0.53251 0.04573 0.0
C1065 C 0.5659 0.48149 0.93796 0.0
C1066 C 0.54748 0.47911 0.93448 0.0
C1067 C 0.55221 0.48237 0.01983 0.0
C1068 C 0.55502 0.46326 0.01524 0.0
C1069 C 0.56474 0.45736 0.00046 0.0
C1070 C 0.54937 0.45143 0.02757 0.0
C1071 C 0.5534 0.4336 0.02547 0.0
C1072 C 0.56881 0.43953 0.99822 0.0
C1073 C 0.56325 0.42769 0.01072 0.0
C1074 C 0.5806 0.55372 0.00997 0.0
C1075 C 0.52849 0.53977 0.9965 0.0
C1076 C 0.54689 0.58987 0.02159 0.0
C1077 C 0.5442 0.60903 0.02551 0.0
C1078 C 0.53438 0.6154 0.04003 0.0
C1079 C 0.55028 0.62052 0.01299 0.0
C1080 C 0.54677 0.63849 0.01494 0.0
C1081 C 0.53086 0.63346 0.042 0.0
C1082 C 0.5371 0.64506 0.02953 0.0
C1083 C 0.51784 0.51888 0.03337 0.0
H1084 H 0.56943 0.46658 0.99099 0.0
H1085 H 0.54232 0.45643 0.03928 0.0
H1086 H 0.5764 0.43494 0.9869 0.0
H1087 H 0.56648 0.41391 0.00875 0.0
H1088 H 0.52928 0.60638 0.04955 0.0
H1089 H 0.55763 0.61542 0.00158 0.0
H1090 H 0.52319 0.63841 0.05309 0.0
H1091 H 0.53424 0.659 0.03109 0.0
Gd1092 Gd 0.77759 0.27296 0.27219 0.0
Gd1093 Gd 0.81778 0.3026 0.26471 0.0
C1094 C 0.82085 0.36261 0.25499 0.0
C1095 C 0.83231 0.36087 0.22452 0.0
C1096 C 0.82717 0.33324 0.23888 0.0
C1097 C 0.82115 0.3434 0.25415 0.0
C1098 C 0.83329 0.34201 0.22413 0.0
C1099 C 0.82606 0.37114 0.2399 0.0
C1100 C 0.8159 0.37286 0.2712 0.0
C1101 C 0.81209 0.36416 0.28634 0.0
N1102 N 0.81659 0.33485 0.26866 0.0
C1103 C 0.81279 0.34518 0.28495 0.0
H1104 H 0.80991 0.33892 0.29694 0.0
C1105 C 0.83656 0.30554 0.22572 0.0
N1106 N 0.82819 0.31514 0.23905 0.0
C1107 C 0.8427 0.31358 0.21072 0.0
C1108 C 0.84082 0.3318 0.20977 0.0
H1109 H 0.8382 0.29151 0.22649 0.0
H1110 H 0.8258 0.38582 0.24025 0.0
H1111 H 0.78346 0.23788 0.23748 0.0
H1112 H 0.81545 0.38761 0.27236 0.0
H1113 H 0.80863 0.37207 0.29912 0.0
H1114 H 0.8368 0.36781 0.21323 0.0
H1115 H 0.76361 0.28447 0.31439 0.0
H1116 H 0.77718 0.18711 0.25882 0.0
H1117 H 0.78331 0.2041 0.23291 0.0
H1118 H 0.76104 0.20529 0.32087 0.0
H1119 H 0.84895 0.30575 0.19996 0.0
H1120 H 0.84571 0.33806 0.19821 0.0
H1121 H 0.76885 0.18769 0.2916 0.0
H1122 H 0.755 0.26923 0.34098 0.0
N1123 N 0.77799 0.24058 0.26608 0.0
C1124 C 0.77731 0.20208 0.261 0.0
C1125 C 0.78074 0.2116 0.24634 0.0
C1126 C 0.77367 0.21187 0.27816 0.0
C1127 C 0.77411 0.23138 0.28032 0.0
C1128 C 0.7808 0.23087 0.24904 0.0
N1129 N 0.76983 0.25991 0.29832 0.0
C1130 C 0.76982 0.24131 0.29688 0.0
C1131 C 0.75922 0.26125 0.32871 0.0
C1132 C 0.7597 0.24227 0.32774 0.0
C1133 C 0.76411 0.26983 0.31367 0.0
C1134 C 0.76484 0.23199 0.31163 0.0
H1135 H 0.75577 0.23561 0.33936 0.0
O1136 O 0.75127 0.27754 0.2763 0.0
O1137 O 0.78828 0.30163 0.26514 0.0
O1138 O 0.81103 0.30703 0.29461 0.0
O1139 O 0.79559 0.27792 0.29828 0.0
O1140 O 0.77211 0.30103 0.2865 0.0
O1141 O 0.75547 0.25728 0.25199 0.0
O1142 O 0.84368 0.29602 0.26656 0.0
O1143 O 0.80676 0.27386 0.27122 0.0
O1144 O 0.7812 0.26983 0.24153 0.0
O1145 O 0.80259 0.29542 0.23658 0.0
O1146 O 0.82329 0.27429 0.25034 0.0
O1147 O 0.83889 0.32076 0.28493 0.0
C1148 C 0.77998 0.31192 0.27606 0.0
C1149 C 0.76477 0.21268 0.30967 0.0
C1150 C 0.76922 0.20265 0.293 0.0
C1151 C 0.74407 0.26513 0.26131 0.0
C1152 C 0.72676 0.25319 0.26264 0.0
C1153 C 0.72304 0.24427 0.2778 0.0
C1154 C 0.7132 0.25232 0.249 0.0
C1155 C 0.69573 0.2431 0.25055 0.0
C1156 C 0.70567 0.2346 0.2792 0.0
C1157 C 0.69201 0.23405 0.26567 0.0
C1158 C 0.80583 0.29461 0.30511 0.0
C1159 C 0.81465 0.26324 0.26022 0.0
C1160 C 0.85038 0.31074 0.27958 0.0
C1161 C 0.86831 0.32075 0.27751 0.0
C1162 C 0.87231 0.33032 0.26282 0.0
C1163 C 0.88196 0.31898 0.28974 0.0
C1164 C 0.8996 0.3264 0.28724 0.0
C1165 C 0.89006 0.33779 0.26033 0.0
C1166 C 0.90376 0.33577 0.27249 0.0
C1167 C 0.78937 0.2806 0.23062 0.0
H1168 H 0.73338 0.24508 0.28864 0.0
H1169 H 0.71619 0.25942 0.23741 0.0
H1170 H 0.70272 0.2279 0.29099 0.0
H1171 H 0.67851 0.2271 0.26734 0.0
H1172 H 0.86188 0.33179 0.25321 0.0
H1173 H 0.87889 0.3114 0.30098 0.0
H1174 H 0.8932 0.34497 0.24888 0.0
H1175 H 0.9175 0.3414 0.2704 0.0
Gd1176 Gd 0.04177 0.54476 0.497 0.0
Gd1177 Gd 0.05599 0.53245 0.54241 0.0
C1178 C 0.10801 0.55819 0.57993 0.0
C1179 C 0.12324 0.53228 0.57521 0.0
C1180 C 0.09395 0.52857 0.55916 0.0
C1181 C 0.09368 0.54695 0.56723 0.0
C1182 C 0.10856 0.52086 0.56335 0.0
C1183 C 0.12295 0.55092 0.58351 0.0
C1184 C 0.1066 0.57613 0.58918 0.0
C1185 C 0.09099 0.5822 0.58611 0.0
N1186 N 0.0789 0.5534 0.56365 0.0
C1187 C 0.07715 0.57056 0.57339 0.0
H1188 H 0.06521 0.57558 0.57153 0.0
C1189 C 0.07791 0.4988 0.54215 0.0
N1190 N 0.07938 0.5178 0.54822 0.0
C1191 C 0.09216 0.49057 0.5456 0.0
C1192 C 0.10765 0.5017 0.55607 0.0
H1193 H 0.06589 0.49013 0.53416 0.0
H1194 H 0.13413 0.55939 0.59311 0.0
H1195 H 0.02641 0.49831 0.47812 0.0
H1196 H 0.11726 0.58515 0.59909 0.0
H1197 H 0.08957 0.59586 0.59356 0.0
H1198 H 0.13463 0.52666 0.5785 0.0
H1199 H 0.03716 0.58812 0.49677 0.0
H1200 H 0.97439 0.49033 0.45095 0.0
H1201 H -0.0004 0.47721 0.46037 0.0
H1202 H 0.96587 0.55361 0.45709 0.0
H1203 H 0.09113 0.47564 0.54027 0.0
H1204 H 0.1186 0.49526 0.55893 0.0
H1205 H 0.9619 0.51895 0.44978 0.0
H1206 H 0.01453 0.60447 0.48672 0.0
N1207 N 0.01643 0.52332 0.47993 0.0
C1208 C 0.9861 0.49971 0.45903 0.0
C1209 C 0.0003 0.49226 0.46429 0.0
C1210 C 0.98739 0.51923 0.46383 0.0
C1211 C 0.00291 0.53079 0.47444 0.0
C1212 C 0.01554 0.50435 0.47448 0.0
N1213 N 0.02035 0.56072 0.48844 0.0
C1214 C 0.00494 0.55015 0.47886 0.0
C1215 C 0.01153 0.58918 0.48466 0.0
C1216 C 0.99515 0.57851 0.47571 0.0
C1217 C 0.02419 0.57996 0.49058 0.0
C1218 C 0.99181 0.55872 0.47237 0.0
H1219 H 0.98544 0.58565 0.47089 0.0
O1220 O 0.0578 0.56352 0.48196 0.0
O1221 O 0.06059 0.54939 0.5213 0.0
O1222 O 0.04451 0.55859 0.54671 0.0
O1223 O 0.02863 0.56075 0.51899 0.0
O1224 O 0.06393 0.57109 0.5079 0.0
O1225 O 0.05079 0.53307 0.47069 0.0
O1226 O 0.04173 0.50994 0.55451 0.0
O1227 O 0.03496 0.52901 0.51964 0.0
O1228 O 0.05317 0.51864 0.49407 0.0
O1229 O 0.07321 0.52366 0.52046 0.0
O1230 O 0.03844 0.50468 0.52783 0.0
O1231 O 0.04317 0.53945 0.56758 0.0
C1232 C 0.07069 0.56498 0.5214 0.0
C1233 C 0.97614 0.54731 0.46215 0.0
C1234 C 0.97391 0.52758 0.45795 0.0
C1235 C 0.05837 0.54984 0.46807 0.0
C1236 C 0.05543 0.55365 0.44954 0.0
C1237 C 0.04148 0.56177 0.44448 0.0
C1238 C 0.06799 0.55037 0.43717 0.0
C1239 C 0.06716 0.5556 0.41988 0.0
C1240 C 0.04051 0.56692 0.42706 0.0
C1241 C 0.05345 0.56404 0.41479 0.0
C1242 C 0.03343 0.56574 0.53719 0.0
C1243 C 0.0283 0.51163 0.51781 0.0
C1244 C 0.03768 0.52166 0.56838 0.0
C1245 C 0.03918 0.51685 0.58657 0.0
C1246 C 0.05289 0.50882 0.59241 0.0
C1247 C 0.02544 0.51909 0.59767 0.0
C1248 C 0.02484 0.5128 0.61443 0.0
C1249 C 0.05241 0.50265 0.60938 0.0
C1250 C 0.03828 0.50443 0.62034 0.0
C1251 C 0.06682 0.515 0.50329 0.0
H1252 H 0.03162 0.56441 0.45399 0.0
H1253 H 0.07888 0.54433 0.4413 0.0
H1254 H 0.02987 0.57335 0.42317 0.0
H1255 H 0.05274 0.56825 0.4014 0.0
H1256 H 0.06365 0.50702 0.58377 0.0
H1257 H 0.01481 0.52519 0.59295 0.0
H1258 H 0.06285 0.49629 0.61391 0.0
H1259 H 0.03788 0.49948 0.63339 0.0
Gd1260 Gd 0.81884 0.78123 0.27013 0.0
Gd1261 Gd 0.77464 0.79311 0.26964 0.0
C1262 C 0.74072 0.7789 0.2131 0.0
C1263 C 0.73915 0.8101 0.20803 0.0
C1264 C 0.75542 0.80664 0.2361 0.0
C1265 C 0.75162 0.78729 0.22996 0.0
C1266 C 0.74873 0.81824 0.2255 0.0
C1267 C 0.73509 0.79043 0.20186 0.0
C1268 C 0.73481 0.75923 0.20862 0.0
C1269 C 0.73927 0.74847 0.22108 0.0
N1270 N 0.75694 0.77659 0.2414 0.0
C1271 C 0.75039 0.75736 0.23738 0.0
H1272 H 0.75357 0.74839 0.24638 0.0
C1273 C 0.7646 0.83232 0.26167 0.0
N1274 N 0.76396 0.81392 0.25338 0.0
C1275 C 0.75861 0.84449 0.25159 0.0
C1276 C 0.75094 0.8375 0.23326 0.0
H1277 H 0.77021 0.83769 0.276 0.0
H1278 H 0.72692 0.78423 0.1888 0.0
H1279 H 0.8384 0.82561 0.29522 0.0
H1280 H 0.72625 0.75228 0.19596 0.0
H1281 H 0.73435 0.73325 0.21805 0.0
H1282 H 0.73407 0.8188 0.19961 0.0
H1283 H 0.82494 0.73705 0.2628 0.0
H1284 H 0.85908 0.82025 0.3485 0.0
H1285 H 0.85331 0.84017 0.32625 0.0
H1286 H 0.85337 0.7535 0.34217 0.0
H1287 H 0.75974 0.85919 0.25803 0.0
H1288 H 0.74601 0.84687 0.22557 0.0
H1289 H 0.85849 0.78778 0.35454 0.0
H1290 H 0.83469 0.7152 0.28088 0.0
N1291 N 0.83502 0.79711 0.29927 0.0
C1292 C 0.85246 0.81363 0.33472 0.0
C1293 C 0.84929 0.8249 0.32218 0.0
C1294 C 0.84778 0.79393 0.32901 0.0
C1295 C 0.83918 0.78602 0.3109 0.0
C1296 C 0.84072 0.81641 0.3044 0.0
N1297 N 0.82914 0.76004 0.28612 0.0
C1298 C 0.8361 0.76681 0.30408 0.0
C1299 C 0.835 0.72964 0.28765 0.0
C1300 C 0.84074 0.73597 0.30663 0.0
C1301 C 0.82955 0.74204 0.27746 0.0
C1302 C 0.84181 0.7549 0.31497 0.0
H1303 H 0.84503 0.72637 0.31449 0.0
O1304 O 0.83302 0.76818 0.24816 0.0
O1305 O 0.79614 0.78551 0.25263 0.0
O1306 O 0.77208 0.76209 0.27271 0.0
O1307 O 0.79992 0.75478 0.2759 0.0
O1308 O 0.8047 0.76088 0.24446 0.0
O1309 O 0.84406 0.79671 0.26282 0.0
O1310 O 0.76081 0.80692 0.29142 0.0
O1311 O 0.79747 0.78922 0.28708 0.0
O1312 O 0.82193 0.81223 0.2669 0.0
O1313 O 0.79399 0.81947 0.26399 0.0
O1314 O 0.78849 0.81393 0.29498 0.0
O1315 O 0.75036 0.77763 0.27891 0.0
C1316 C 0.79418 0.77101 0.23973 0.0
C1317 C 0.84921 0.76248 0.33346 0.0
C1318 C 0.85215 0.78199 0.3405 0.0
C1319 C 0.84636 0.7827 0.25016 0.0
C1320 C 0.86434 0.77866 0.25017 0.0
C1321 C 0.87041 0.77016 0.2641 0.0
C1322 C 0.87533 0.7827 0.23585 0.0
C1323 C 0.89205 0.77773 0.23524 0.0
C1324 C 0.88688 0.76523 0.26355 0.0
C1325 C 0.89756 0.76886 0.24922 0.0
C1326 C 0.78222 0.75 0.27506 0.0
C1327 C 0.79928 0.80404 0.29959 0.0
C1328 C 0.74804 0.79214 0.29088 0.0
C1329 C 0.72978 0.79544 0.29143 0.0
C1330 C 0.72319 0.80454 0.27831 0.0
C1331 C 0.7191 0.79027 0.30565 0.0
C1332 C 0.70214 0.79455 0.30681 0.0
C1333 C 0.70645 0.8088 0.27948 0.0
C1334 C 0.69603 0.80394 0.29366 0.0
C1335 C 0.81171 0.82428 0.2647 0.0
H1336 H 0.86242 0.76726 0.27537 0.0
H1337 H 0.87077 0.78934 0.22507 0.0
H1338 H 0.89139 0.75856 0.27431 0.0
H1339 H 0.91034 0.76499 0.24924 0.0
H1340 H 0.73103 0.80852 0.26725 0.0
H1341 H 0.72403 0.7832 0.31585 0.0
H1342 H 0.70155 0.81596 0.26937 0.0
H1343 H 0.68308 0.80739 0.29429 0.0
Gd1344 Gd 0.78391 0.29701 0.7916 0.0
Gd1345 Gd 0.80289 0.27614 0.74947 0.0
C1346 C 0.78218 0.21835 0.71173 0.0
C1347 C 0.80859 0.20544 0.71096 0.0
C1348 C 0.80831 0.23466 0.73279 0.0
C1349 C 0.79123 0.23387 0.72565 0.0
C1350 C 0.81705 0.22017 0.72576 0.0
C1351 C 0.79121 0.2046 0.70385 0.0
C1352 C 0.76421 0.21688 0.70645 0.0
C1353 C 0.75557 0.23021 0.71567 0.0
N1354 N 0.78322 0.24792 0.73289 0.0
C1355 C 0.76529 0.24557 0.72905 0.0
H1356 H 0.75821 0.25482 0.73706 0.0
C1357 C 0.83372 0.25109 0.75308 0.0
N1358 N 0.81643 0.24971 0.7464 0.0
C1359 C 0.84258 0.23669 0.74718 0.0
C1360 C 0.83424 0.22117 0.7334 0.0
H1361 H 0.84142 0.26377 0.7621 0.0
H1362 H 0.78463 0.19283 0.69281 0.0
H1363 H 0.82981 0.31497 0.80146 0.0
H1364 H 0.75672 0.20505 0.69599 0.0
H1365 H 0.7414 0.22862 0.7126 0.0
H1366 H 0.81525 0.19443 0.70513 0.0
H1367 H 0.74627 0.31161 0.78149 0.0
H1368 H 0.8367 0.36781 0.83924 0.0
H1369 H 0.84905 0.3415 0.82315 0.0
H1370 H 0.78013 0.38356 0.83249 0.0
H1371 H 0.85618 0.23803 0.75265 0.0
H1372 H 0.84136 0.2103 0.72841 0.0
H1373 H 0.8111 0.38365 0.84213 0.0
H1374 H 0.73368 0.33911 0.79146 0.0
N1375 N 0.80581 0.32439 0.80654 0.0
C1376 C 0.82797 0.35583 0.82995 0.0
C1377 C 0.83496 0.34097 0.821 0.0
C1378 C 0.81011 0.3557 0.82574 0.0
C1379 C 0.79926 0.33966 0.8137 0.0
C1380 C 0.82375 0.32554 0.80898 0.0
N1381 N 0.77219 0.32453 0.79557 0.0
C1382 C 0.78195 0.33977 0.80795 0.0
C1383 C 0.74738 0.33964 0.79598 0.0
C1384 C 0.75742 0.35549 0.80834 0.0
C1385 C 0.75486 0.32415 0.78996 0.0
C1386 C 0.77489 0.35571 0.81454 0.0
H1387 H 0.7515 0.36739 0.81318 0.0
O1388 O 0.7565 0.28706 0.79692 0.0
O1389 O 0.78263 0.27199 0.76914 0.0
O1390 O 0.77818 0.28379 0.73759 0.0
O1391 O 0.76764 0.29866 0.76484 0.0
O1392 O 0.78112 0.26722 0.79632 0.0
O1393 O 0.77696 0.30025 0.82012 0.0
O1394 O 0.83028 0.28716 0.74495 0.0
O1395 O 0.80384 0.30151 0.77147 0.0
O1396 O 0.80709 0.28759 0.80411 0.0
O1397 O 0.81903 0.27556 0.77667 0.0
O1398 O 0.80465 0.30538 0.744 0.0
O1399 O 0.81037 0.27424 0.7212 0.0
C1400 C 0.78084 0.25962 0.77895 0.0
C1401 C 0.7854 0.37132 0.82716 0.0
C1402 C 0.80299 0.37132 0.83273 0.0
C1403 C 0.76009 0.29273 0.815 0.0
C1404 C 0.7502 0.2811 0.82683 0.0
C1405 C 0.73292 0.28314 0.8302 0.0
C1406 C 0.75778 0.26874 0.83533 0.0
C1407 C 0.74794 0.2583 0.84703 0.0
C1408 C 0.72318 0.27281 0.8419 0.0
C1409 C 0.73061 0.2604 0.85027 0.0
C1410 C 0.76668 0.29271 0.74634 0.0
C1411 C 0.8045 0.31346 0.76118 0.0
C1412 C 0.82706 0.28231 0.72679 0.0
C1413 C 0.83653 0.29536 0.71603 0.0
C1414 C 0.85485 0.29672 0.71495 0.0
C1415 C 0.82764 0.30589 0.70636 0.0
C1416 C 0.83715 0.31788 0.69584 0.0
C1417 C 0.86428 0.30863 0.70435 0.0
C1418 C 0.85548 0.31924 0.69484 0.0
C1419 C 0.81914 0.27976 0.79524 0.0
H1420 H 0.72703 0.29287 0.82391 0.0
H1421 H 0.77122 0.26731 0.83295 0.0
H1422 H 0.70991 0.27457 0.84462 0.0
H1423 H 0.72299 0.25275 0.85961 0.0
H1424 H 0.8618 0.28842 0.72219 0.0
H1425 H 0.81343 0.30472 0.70688 0.0
H1426 H 0.87837 0.30952 0.70339 0.0
H1427 H 0.86287 0.32822 0.68638 0.0
Gd1428 Gd 0.7769 0.75596 0.75383 0.0
Gd1429 Gd 0.80446 0.80269 0.7781 0.0
C1430 C 0.86086 0.83167 0.76746 0.0
C1431 C 0.87548 0.84204 0.79899 0.0
C1432 C 0.84503 0.8232 0.79345 0.0
C1433 C 0.84529 0.82279 0.77455 0.0
C1434 C 0.86009 0.83295 0.80594 0.0
C1435 C 0.87589 0.84135 0.77978 0.0
C1436 C 0.86091 0.83064 0.74821 0.0
C1437 C 0.84578 0.82077 0.73651 0.0
N1438 N 0.83039 0.81357 0.76309 0.0
C1439 C 0.83067 0.81228 0.74414 0.0
H1440 H 0.81952 0.8044 0.73445 0.0
C1441 C 0.82875 0.8156 0.81849 0.0
N1442 N 0.82991 0.81442 0.79972 0.0
C1443 C 0.84334 0.82491 0.83139 0.0
C1444 C 0.85911 0.8336 0.82508 0.0
H1445 H 0.81631 0.80989 0.82357 0.0
H1446 H 0.88787 0.84837 0.77458 0.0
H1447 H 0.76648 0.74931 0.79803 0.0
H1448 H 0.8726 0.83723 0.74223 0.0
H1449 H 0.84575 0.81959 0.72153 0.0
H1450 H 0.88712 0.84968 0.80837 0.0
H1451 H 0.76157 0.75113 0.70957 0.0
H1452 H 0.71188 0.72221 0.79441 0.0
H1453 H 0.74124 0.7345 0.81243 0.0
H1454 H 0.69095 0.71806 0.7309 0.0
H1455 H 0.84226 0.82575 0.84621 0.0
H1456 H 0.87034 0.84105 0.83511 0.0
H1457 H 0.69326 0.71639 0.76414 0.0
H1458 H 0.73336 0.73905 0.68944 0.0
N1459 N 0.75247 0.74554 0.77097 0.0
C1460 C 0.72309 0.72878 0.78775 0.0
C1461 C 0.73964 0.73559 0.79791 0.0
C1462 C 0.72124 0.73036 0.76906 0.0
C1463 C 0.7363 0.73896 0.76096 0.0
C1464 C 0.75418 0.74391 0.78934 0.0
N1465 N 0.74979 0.74744 0.73472 0.0
C1466 C 0.73493 0.74 0.74231 0.0
C1467 C 0.73353 0.73943 0.70432 0.0
C1468 C 0.71798 0.73244 0.71204 0.0
C1469 C 0.74944 0.74649 0.71583 0.0
C1470 C 0.71859 0.73232 0.73117 0.0
H1471 H 0.70571 0.72662 0.70305 0.0
O1472 O 0.78051 0.73572 0.72965 0.0
O1473 O 0.80374 0.77432 0.76147 0.0
O1474 O 0.79387 0.80402 0.7491 0.0
O1475 O 0.77015 0.77793 0.73827 0.0
O1476 O 0.79718 0.76127 0.73363 0.0
O1477 O 0.78067 0.72837 0.75753 0.0
O1478 O 0.79701 0.82267 0.80011 0.0
O1479 O 0.7778 0.78388 0.77035 0.0
O1480 O 0.79057 0.75434 0.78193 0.0
O1481 O 0.81227 0.78225 0.79409 0.0
O1482 O 0.78369 0.79615 0.79804 0.0
O1483 O 0.79895 0.82863 0.77205 0.0
C1484 C 0.80983 0.77112 0.74594 0.0
C1485 C 0.70356 0.72408 0.73925 0.0
C1486 C 0.70489 0.7231 0.75816 0.0
C1487 C 0.78185 0.72317 0.73962 0.0
C1488 C 0.78437 0.70454 0.73104 0.0
C1489 C 0.7774 0.69601 0.7126 0.0
C1490 C 0.79452 0.69555 0.7411 0.0
C1491 C 0.79779 0.67807 0.73289 0.0
C1492 C 0.78039 0.67836 0.70447 0.0
C1493 C 0.79051 0.66933 0.7146 0.0
C1494 C 0.78028 0.79449 0.73682 0.0
C1495 C 0.7712 0.78613 0.7856 0.0
C1496 C 0.79601 0.8346 0.78932 0.0
C1497 C 0.80276 0.85457 0.79732 0.0
C1498 C 0.81676 0.86169 0.81158 0.0
C1499 C 0.79364 0.86672 0.79095 0.0
C1500 C 0.79815 0.88601 0.79853 0.0
C1501 C 0.82126 0.88112 0.8194 0.0
C1502 C 0.81185 0.89335 0.81299 0.0
C1503 C 0.80347 0.76496 0.79468 0.0
H1504 H 0.76963 0.70293 0.70455 0.0
H1505 H 0.80005 0.70226 0.75529 0.0
H1506 H 0.77494 0.67174 0.69029 0.0
H1507 H 0.79292 0.65575 0.70811 0.0
H1508 H 0.82396 0.85235 0.8168 0.0
H1509 H 0.78261 0.86104 0.78015 0.0
H1510 H 0.83195 0.88668 0.83048 0.0
H1511 H 0.8153 0.90835 0.81908 0.0
Gd1512 Gd 0.56782 0.54951 0.532 0.0
Gd1513 Gd 0.5251 0.52404 0.50939 0.0
C1514 C 0.4971 0.46263 0.50973 0.0
C1515 C 0.48848 0.44979 0.47672 0.0
C1516 C 0.50609 0.48203 0.48707 0.0
C1517 C 0.50597 0.47992 0.50539 0.0
C1518 C 0.49715 0.46705 0.4725 0.0
C1519 C 0.48844 0.44759 0.49531 0.0
C1520 C 0.49686 0.46106 0.52847 0.0
C1521 C 0.50527 0.47648 0.54232 0.0
N1522 N 0.51407 0.49493 0.519 0.0
C1523 C 0.51368 0.49332 0.53735 0.0
H1524 H 0.52016 0.50471 0.54844 0.0
C1525 C 0.51244 0.50248 0.46585 0.0
N1526 N 0.51393 0.49912 0.48356 0.0
C1527 C 0.50417 0.48797 0.45088 0.0
C1528 C 0.49657 0.47012 0.4542 0.0
H1529 H 0.5175 0.51651 0.46331 0.0
H1530 H 0.48147 0.4343 0.49841 0.0
H1531 H 0.57679 0.56582 0.49169 0.0
H1532 H 0.49016 0.44808 0.53237 0.0
H1533 H 0.50523 0.47546 0.55691 0.0
H1534 H 0.48147 0.43818 0.46574 0.0
H1535 H 0.57323 0.5595 0.57851 0.0
H1536 H 0.60033 0.62467 0.50627 0.0
H1537 H 0.5899 0.59527 0.48248 0.0
H1538 H 0.60433 0.6384 0.57305 0.0
H1539 H 0.50332 0.49069 0.43686 0.0
H1540 H 0.48984 0.45899 0.44265 0.0
H1541 H 0.60561 0.64059 0.54 0.0
H1542 H 0.58505 0.587 0.60421 0.0
N1543 N 0.57906 0.57771 0.52103 0.0
C1544 C 0.59443 0.61162 0.51057 0.0
C1545 C 0.58864 0.59507 0.49712 0.0
C1546 C 0.59294 0.61106 0.52942 0.0
C1547 C 0.58508 0.5937 0.5343 0.0
C1548 C 0.58123 0.57816 0.5026 0.0
N1549 N 0.57725 0.57553 0.55709 0.0
C1550 C 0.58418 0.59256 0.55288 0.0
C1551 C 0.58474 0.58881 0.58985 0.0
C1552 C 0.59134 0.60658 0.58577 0.0
C1553 C 0.57798 0.57332 0.57528 0.0
C1554 C 0.59134 0.60859 0.56712 0.0
H1555 H 0.59679 0.61853 0.59707 0.0
O1556 O 0.58626 0.54039 0.54948 0.0
O1557 O 0.55067 0.52035 0.52186 0.0
O1558 O 0.52299 0.53409 0.54116 0.0
O1559 O 0.5479 0.55813 0.55268 0.0
O1560 O 0.56033 0.52813 0.54975 0.0
O1561 O 0.5937 0.5471 0.52277 0.0
O1562 O 0.50685 0.53588 0.49449 0.0
O1563 O 0.54269 0.55286 0.51913 0.0
O1564 O 0.57077 0.53733 0.50085 0.0
O1565 O 0.54404 0.5168 0.48728 0.0
O1566 O 0.53218 0.5458 0.49152 0.0
O1567 O 0.4994 0.52569 0.51962 0.0
C1568 C 0.55247 0.51407 0.53671 0.0
C1569 C 0.59879 0.62595 0.56232 0.0
C1570 C 0.59954 0.62719 0.54351 0.0
C1571 C 0.5984 0.54158 0.53783 0.0
C1572 C 0.61676 0.54838 0.54583 0.0
C1573 C 0.62239 0.56425 0.56041 0.0
C1574 C 0.62858 0.53734 0.53948 0.0
C1575 C 0.64607 0.54176 0.54761 0.0
C1576 C 0.63991 0.56873 0.56869 0.0
C1577 C 0.65173 0.55744 0.56242 0.0
C1578 C 0.53192 0.54805 0.55483 0.0
C1579 C 0.54137 0.55929 0.50435 0.0
C1580 C 0.49475 0.53323 0.50595 0.0
C1581 C 0.47652 0.52711 0.49749 0.0
C1582 C 0.4693 0.50893 0.48689 0.0
C1583 C 0.46644 0.54072 0.49957 0.0
C1584 C 0.44874 0.53628 0.49203 0.0
C1585 C 0.45178 0.50451 0.47864 0.0
C1586 C 0.44144 0.51809 0.48127 0.0
C1587 C 0.56098 0.52514 0.48629 0.0
H1588 H 0.61329 0.5729 0.56554 0.0
H1589 H 0.62398 0.52485 0.52845 0.0
H1590 H 0.64428 0.58087 0.58003 0.0
H1591 H 0.66526 0.56102 0.56893 0.0
H1592 H 0.47709 0.49829 0.48495 0.0
H1593 H 0.47245 0.55491 0.50733 0.0
H1594 H 0.44613 0.49049 0.47044 0.0
H1595 H 0.4277 0.51424 0.47536 0.0
Gd1596 Gd 0.02327 0.53184 0.02826 0.0
Gd1597 Gd 0.06828 0.53663 0.01211 0.0
C1598 C 0.10695 0.59406 0.01847 0.0
C1599 C 0.11138 0.59584 0.98613 0.0
C1600 C 0.09158 0.56838 0.99352 0.0
C1601 C 0.09516 0.57623 0.01238 0.0
C1602 C 0.1 0.57786 0.98019 0.0
C1603 C 0.11479 0.60396 0.00523 0.0
C1604 C 0.11087 0.60119 0.0377 0.0
C1605 C 0.10358 0.5903 0.05029 0.0
N1606 N 0.08771 0.56607 0.0248 0.0
C1607 C 0.09221 0.57257 0.04357 0.0
H1608 H 0.08687 0.56435 0.05355 0.0
C1609 C 0.07851 0.54155 0.97005 0.0
N1610 N 0.08066 0.55093 0.98826 0.0
C1611 C 0.08655 0.55038 0.95629 0.0
C1612 C 0.09717 0.56872 0.96135 0.0
H1613 H 0.07036 0.52735 0.96613 0.0
H1614 H 0.12383 0.61769 0.00965 0.0
H1615 H 0.00274 0.50543 0.98724 0.0
H1616 H 0.11979 0.61486 0.04294 0.0
H1617 H 0.10677 0.59552 0.06518 0.0
H1618 H 0.11789 0.60341 0.97609 0.0
H1619 H 0.02476 0.53973 0.07501 0.0
H1620 H 0.96789 0.45625 0.99834 0.0
H1621 H 0.9806 0.47557 0.97595 0.0
H1622 H 0.97455 0.46529 0.06511 0.0
H1623 H 0.08457 0.54304 0.94182 0.0
H1624 H 0.10346 0.57549 0.95069 0.0
H1625 H 0.96588 0.45243 0.0316 0.0
H1626 H 0.01229 0.52318 0.09948 0.0
N1627 N 0.00301 0.50304 0.01584 0.0
C1628 C 0.97771 0.46935 0.00341 0.0
C1629 C 0.98483 0.48022 0.99073 0.0
C1630 C 0.98302 0.47574 0.02252 0.0
C1631 C 0.99577 0.49295 0.02841 0.0
C1632 C 0.99747 0.49716 0.99722 0.0
N1633 N 0.01216 0.51731 0.05254 0.0
C1634 C 0.00049 0.50029 0.04731 0.0
C1635 C 0.00893 0.51655 0.08487 0.0
C1636 C 0.99738 0.49873 0.07975 0.0
C1637 C 0.016 0.52586 0.07101 0.0
C1638 C 0.99281 0.4905 0.0608 0.0
H1639 H 0.9918 0.49162 0.09053 0.0
O1640 O 0.0131 0.5559 0.04072 0.0
O1641 O 0.04842 0.55173 0.02505 0.0
O1642 O 0.06668 0.53452 0.04252 0.0
O1643 O 0.03831 0.51702 0.04494 0.0
O1644 O 0.03778 0.5571 0.05014 0.0
O1645 O 0.99793 0.53588 0.01689 0.0
O1646 O 0.08045 0.51406 0.99932 0.0
O1647 O 0.04306 0.51717 0.01514 0.0
O1648 O 0.02437 0.53467 0.99814 0.0
O1649 O 0.05311 0.55027 0.99389 0.0
O1650 O 0.05377 0.51076 0.99057 0.0
O1651 O 0.09183 0.53155 0.02615 0.0
C1652 C 0.05015 0.56364 0.04026 0.0
C1653 C 0.98055 0.47305 0.05496 0.0
C1654 C 0.97563 0.46571 0.03588 0.0
C1655 C 0.99853 0.55107 0.02956 0.0
C1656 C 0.98231 0.55311 0.03861 0.0
C1657 C 0.97921 0.54731 0.05558 0.0
C1658 C 0.97102 0.56318 0.03139 0.0
C1659 C 0.95699 0.56815 0.04138 0.0
C1660 C 0.96535 0.55207 0.06555 0.0
C1661 C 0.95448 0.56263 0.05869 0.0
C1662 C 0.05506 0.52407 0.05123 0.0
C1663 C 0.04101 0.50486 1.00028 0.0
C1664 C 0.09339 0.51794 0.01255 0.0
C1665 C 0.11124 0.51825 0.00632 0.0
C1666 C 0.11893 0.53129 0.99569 0.0
C1667 C 0.12032 0.50461 0.01023 0.0
C1668 C 0.13692 0.50381 0.00335 0.0
C1669 C 0.13537 0.5306 0.98885 0.0
C1670 C 0.14432 0.51693 0.99258 0.0
C1671 C 0.03565 0.54611 0.99001 0.0
H1672 H 0.9878 0.53966 0.06143 0.0
H1673 H 0.97342 0.56734 0.01812 0.0
H1674 H 0.96328 0.54792 0.07885 0.0
H1675 H 0.9443 0.56669 0.06717 0.0
H1676 H 0.1122 0.54189 0.99253 0.0
H1677 H 0.1143 0.49439 0.01828 0.0
H1678 H 0.1412 0.54068 0.9806 0.0
H1679 H 0.15716 0.5168 0.98728 0.0
H1680 H 0.01409 0.22581 0.98378 0.0
H1681 H 0.01966 0.19991 0.99853 0.0
H1682 H 0.02396 0.16703 0.94441 0.0
H1683 H 0.01809 0.19254 0.92957 0.0
H1684 H -0.00051 0.15405 0.98453 0.0
H1685 H 0.07295 0.17645 0.98424 0.0
H1686 H 0.05865 0.19307 0.98565 0.0
H1687 H 0.0593 0.17745 0.96386 0.0
C1688 C 0.01601 0.21298 0.97499 0.0
C1689 C 0.01555 0.21132 0.95542 0.0
C1690 C 0.01921 0.19818 0.98346 0.0
C1691 C 0.0223 0.18151 0.97261 0.0
C1692 C 0.0216 0.17971 0.9531 0.0
H1693 H 0.04723 0.07558 0.97417 0.0
H1694 H 0.04306 0.10639 0.96957 0.0
C1695 C 0.01817 0.19434 0.94462 0.0
C1696 C 0.02682 0.16612 0.98143 0.0
H1697 H 0.06166 0.14632 0.99118 0.0
C1698 C 0.0131 0.15254 0.98633 0.0
C1699 C 0.04458 0.1641 0.98378 0.0
C1700 C 0.05982 0.17854 0.97924 0.0
C1701 C 0.01665 0.13664 0.99275 0.0
C1702 C 0.03436 0.13425 0.9944 0.0
C1703 C 0.04811 0.14816 0.99006 0.0
C1704 C 0.03853 0.11632 0.99826 0.0
C1705 C 0.00136 0.12195 0.99687 0.0
C1706 C 0.03798 0.11176 0.01614 0.0
C1707 C 0.0407 0.09408 0.01891 0.0
C1708 C 0.0438 0.08065 0.00376 0.0
C1709 C 0.0449 0.08562 0.98612 0.0
C1710 C 0.04248 0.10323 0.98345 0.0
H1711 H 0.98826 0.12537 0.99406 0.0
H1712 H 0.00137 0.10786 0.98823 0.0
H1713 H 0.00301 0.12088 0.01177 0.0
H1714 H 0.03505 0.12167 0.02784 0.0
H1715 H 0.03959 0.09062 0.03262 0.0
H1716 H 0.13026 0.83551 0.16608 0.0
H1717 H 0.15633 0.83315 0.1853 0.0
H1718 H 0.16592 0.78936 0.14152 0.0
H1719 H 0.14073 0.79281 0.12184 0.0
H1720 H 0.16374 0.80803 0.20098 0.0
H1721 H 0.2151 0.81761 0.15152 0.0
H1722 H 0.1932 0.82148 0.14677 0.0
H1723 H 0.19718 0.79788 0.1418 0.0
C1724 C 0.13817 0.82565 0.16043 0.0
C1725 C 0.13356 0.8146 0.14228 0.0
C1726 C 0.15309 0.82421 0.17149 0.0
C1727 C 0.16365 0.81136 0.16491 0.0
C1728 C 0.15873 0.80001 0.14685 0.0
H1729 H 0.25076 0.77193 0.21497 0.0
H1730 H 0.22621 0.77671 0.19526 0.0
C1731 C 0.14414 0.80187 0.13558 0.0
C1732 C 0.17912 0.80927 0.17727 0.0
H1733 H 0.22273 0.80553 0.17815 0.0
C1734 C 0.17666 0.80769 0.19594 0.0
C1735 C 0.1962 0.80877 0.17099 0.0
C1736 C 0.20063 0.81173 0.15174 0.0
C1737 C 0.19038 0.80527 0.20817 0.0
C1738 C 0.20729 0.80442 0.20175 0.0
C1739 C 0.20982 0.80604 0.18315 0.0
C1740 C 0.22245 0.8017 0.21398 0.0
C1741 C 0.1864 0.80316 0.22776 0.0
C1742 C 0.22895 0.81429 0.23108 0.0
C1743 C 0.243 0.81152 0.24249 0.0
C1744 C 0.25113 0.7962 0.23707 0.0
C1745 C 0.24488 0.78387 0.21974 0.0
C1746 C 0.23077 0.78659 0.20839 0.0
H1747 H 0.17186 0.79883 0.22886 0.0
H1748 H 0.19296 0.79257 0.2324 0.0
H1749 H 0.19148 0.81699 0.23748 0.0
H1750 H 0.22327 0.82641 0.23558 0.0
H1751 H 0.24762 0.82159 0.25548 0.0
H1752 H 0.49586 0.82597 0.4537 0.0
H1753 H 0.49807 0.85917 0.46869 0.0
H1754 H 0.55423 0.86575 0.48308 0.0
H1755 H 0.55215 0.83284 0.46724 0.0
H1756 H 0.50881 0.88365 0.50225 0.0
H1757 H 0.55515 0.90317 0.44976 0.0
H1758 H 0.54337 0.87911 0.44874 0.0
H1759 H 0.563 0.88937 0.46473 0.0
C1760 C 0.50855 0.83439 0.46056 0.0
C1761 C 0.52382 0.82687 0.45943 0.0
C1762 C 0.50984 0.85339 0.46907 0.0
C1763 C 0.52641 0.8652 0.47663 0.0
C1764 C 0.54138 0.85714 0.47692 0.0
H1765 H 0.54223 0.98666 0.52825 0.0
H1766 H 0.53694 0.95219 0.52448 0.0
C1767 C 0.54016 0.83827 0.46808 0.0
C1768 C 0.5283 0.88615 0.48225 0.0
H1769 H 0.54917 0.92811 0.47165 0.0
C1770 C 0.51766 0.89339 0.4956 0.0
C1771 C 0.53972 0.89895 0.47346 0.0
C1772 C 0.55084 0.89229 0.45826 0.0
C1773 C 0.51801 0.91295 0.50021 0.0
C1774 C 0.52945 0.92565 0.49138 0.0
C1775 C 0.54031 0.91841 0.47837 0.0
C1776 C 0.53003 0.9464 0.49455 0.0
C1777 C 0.50572 0.91974 0.514 0.0
C1778 C 0.52781 0.95482 0.4791 0.0
C1779 C 0.53118 0.97451 0.48119 0.0
C1780 C 0.53646 0.98629 0.49885 0.0
C1781 C 0.53774 0.97795 0.51452 0.0
C1782 C 0.53469 0.95817 0.51237 0.0
H1783 H 0.4948 0.90795 0.51595 0.0
H1784 H 0.51341 0.92602 0.52778 0.0
H1785 H 0.49979 0.93079 0.5094 0.0
H1786 H 0.52419 0.94612 0.46521 0.0
H1787 H 0.53024 0.98059 0.46889 0.0
H1788 H 0.53876 0.32287 0.6712 0.0
H1789 H 0.50902 0.32104 0.68207 0.0
H1790 H 0.48602 0.28241 0.63069 0.0
H1791 H 0.51589 0.28463 0.61953 0.0
H1792 H 0.47462 0.32663 0.66477 0.0
H1793 H 0.47362 0.25364 0.67543 0.0
H1794 H 0.49393 0.2699 0.67273 0.0
H1795 H 0.47837 0.2586 0.65276 0.0
C1796 C 0.5273 0.31433 0.66205 0.0
C1797 C 0.52959 0.30396 0.64451 0.0
C1798 C 0.51032 0.31329 0.66827 0.0
C1799 C 0.49528 0.30148 0.65729 0.0
C1800 C 0.49743 0.29161 0.63942 0.0
H1801 H 0.39134 0.26274 0.69889 0.0
H1802 H 0.41435 0.26862 0.67721 0.0
C1803 C 0.51446 0.29296 0.63301 0.0
C1804 C 0.47774 0.29844 0.66535 0.0
H1805 H 0.44945 0.26658 0.6848 0.0
C1806 C 0.469 0.31343 0.66897 0.0
C1807 C 0.47041 0.28125 0.67089 0.0
C1808 C 0.47954 0.2649 0.66792 0.0
C1809 C 0.45326 0.31175 0.67816 0.0
C1810 C 0.44624 0.29475 0.68425 0.0
C1811 C 0.45473 0.27959 0.68011 0.0
C1812 C 0.43102 0.2928 0.69617 0.0
C1813 C 0.44428 0.3282 0.68129 0.0
C1814 C 0.43252 0.30454 0.71397 0.0
C1815 C 0.41944 0.30114 0.72632 0.0
C1816 C 0.40449 0.28602 0.72113 0.0
C1817 C 0.40258 0.27469 0.7031 0.0
C1818 C 0.41577 0.27799 0.69077 0.0
H1819 H 0.44789 0.33755 0.67114 0.0
H1820 H 0.42957 0.32321 0.68008 0.0
H1821 H 0.44863 0.33678 0.69556 0.0
H1822 H 0.44427 0.31577 0.7187 0.0
H1823 H 0.42136 0.30984 0.74026 0.0
H1824 H 0.9908 0.79482 0.59692 0.0
H1825 H 0.99705 0.82048 0.57957 0.0
H1826 H 0.02077 0.85977 0.63034 0.0
H1827 H 0.01448 0.83433 0.64788 0.0
H1828 H 0.98996 0.86385 0.5919 0.0
H1829 H 0.05877 0.85196 0.5866 0.0
H1830 H 0.0402 0.83311 0.58857 0.0
H1831 H 0.04894 0.85167 0.60844 0.0
C1832 C 0.99701 0.80901 0.60443 0.0
C1833 C 0.00223 0.81264 0.62368 0.0
C1834 C 0.00051 0.82357 0.59455 0.0
C1835 C 0.00934 0.84179 0.60382 0.0
C1836 C 0.01384 0.8457 0.62313 0.0
H1837 H 0.0612 0.93801 0.55947 0.0
H1838 H 0.0491 0.91742 0.58074 0.0
C1839 C 0.01022 0.83119 0.63307 0.0
C1840 C 0.01538 0.85631 0.593 0.0
H1841 H 0.05143 0.87581 0.57253 0.0
C1842 C 0.00338 0.86659 0.58767 0.0
C1843 C 0.03291 0.85963 0.58769 0.0
C1844 C 0.04604 0.84853 0.59301 0.0
C1845 C 0.00856 0.88026 0.57687 0.0
C1846 C 0.02601 0.88337 0.57133 0.0
C1847 C 0.03806 0.87327 0.57694 0.0
C1848 C 0.03197 0.89646 0.55896 0.0
C1849 C 0.99546 0.89129 0.57143 0.0
C1850 C 0.02639 0.89116 0.53981 0.0
C1851 C 0.03354 0.90262 0.52765 0.0
C1852 C 0.04619 0.91949 0.53463 0.0
C1853 C 0.05153 0.92492 0.55387 0.0
C1854 C 0.04457 0.91334 0.56598 0.0
H1855 H 0.98343 0.88923 0.57922 0.0
H1856 H 0.00183 0.90664 0.57407 0.0
H1857 H 0.99122 0.88659 0.55625 0.0
H1858 H 0.0168 0.878 0.53427 0.0
H1859 H 0.02909 0.89844 0.51288 0.0
H1860 H 0.55035 0.82193 0.82647 0.0
H1861 H 0.51859 0.81983 0.81974 0.0
H1862 H 0.50893 0.80952 0.87487 0.0
H1863 H 0.54073 0.81151 0.88183 0.0
H1864 H 0.4883 0.78494 0.82656 0.0
H1865 H 0.48811 0.8581 0.86407 0.0
H1866 H 0.50807 0.85298 0.8545 0.0
H1867 H 0.50032 0.84349 0.8742 0.0
C1868 C 0.5415 0.8192 0.83717 0.0
C1869 C 0.54799 0.8168 0.85463 0.0
C1870 C 0.52341 0.81796 0.83329 0.0
C1871 C 0.51163 0.81447 0.84684 0.0
C1872 C 0.51797 0.81215 0.86431 0.0
H1873 H 0.40431 0.82921 0.82134 0.0
H1874 H 0.42849 0.82175 0.83941 0.0
C1875 C 0.53607 0.81327 0.86819 0.0
C1876 C 0.49271 0.81347 0.84242 0.0
H1877 H 0.46324 0.84187 0.84305 0.0
C1878 C 0.48259 0.79718 0.83046 0.0
C1879 C 0.48541 0.82941 0.84785 0.0
C1880 C 0.49593 0.84706 0.86089 0.0
C1881 C 0.4656 0.79693 0.82266 0.0
C1882 C 0.45896 0.81353 0.8267 0.0
C1883 C 0.46851 0.82924 0.8399 0.0
C1884 C 0.44348 0.81591 0.81564 0.0
C1885 C 0.45522 0.7792 0.80965 0.0
C1886 C 0.44413 0.81526 0.79638 0.0
C1887 C 0.43045 0.81963 0.78607 0.0
C1888 C 0.41599 0.82473 0.79493 0.0
C1889 C 0.41533 0.82524 0.8142 0.0
C1890 C 0.42903 0.82093 0.8245 0.0
H1891 H 0.45892 0.76638 0.81308 0.0
H1892 H 0.44065 0.77773 0.81028 0.0
H1893 H 0.45833 0.77984 0.7951 0.0
H1894 H 0.45543 0.81184 0.78941 0.0
H1895 H 0.43113 0.81889 0.7712 0.0
H1896 H 0.47332 0.20235 0.12531 0.0
H1897 H 0.47066 0.171 0.10521 0.0
H1898 H 0.52278 0.1694 0.12841 0.0
H1899 H 0.52504 0.1998 0.14882 0.0
H1900 H 0.49172 0.16485 0.07896 0.0
H1901 H 0.49833 0.11608 0.12566 0.0
H1902 H 0.49173 0.1381 0.13376 0.0
H1903 H 0.51499 0.13735 0.13399 0.0
C1904 C 0.48392 0.19493 0.12633 0.0
C1905 C 0.49935 0.20324 0.13855 0.0
C1906 C 0.48235 0.1771 0.11502 0.0
C1907 C 0.49628 0.16768 0.11577 0.0
C1908 C 0.51149 0.17597 0.12825 0.0
H1909 H 0.56182 0.10657 0.05899 0.0
H1910 H 0.54645 0.12814 0.07834 0.0
C1911 C 0.51289 0.19347 0.13975 0.0
C1912 C 0.49686 0.15102 0.10154 0.0
H1913 H 0.51518 0.11258 0.09739 0.0
C1914 C 0.49626 0.15302 0.08282 0.0
C1915 C 0.50245 0.13546 0.1066 0.0
C1916 C 0.50169 0.13158 0.12611 0.0
C1917 C 0.50335 0.14119 0.06947 0.0
C1918 C 0.5111 0.12726 0.07524 0.0
C1919 C 0.50985 0.12391 0.09338 0.0
C1920 C 0.52069 0.116 0.06271 0.0
C1921 C 0.50358 0.14443 0.04968 0.0
C1922 C 0.51118 0.10248 0.04773 0.0
C1923 C 0.5198 0.09037 0.03693 0.0
C1924 C 0.53808 0.09158 0.0409 0.0
C1925 C 0.54777 0.10549 0.05566 0.0
C1926 C 0.53904 0.1177 0.0666 0.0
H1927 H 0.49971 0.15783 0.04834 0.0
H1928 H 0.517 0.14476 0.04476 0.0
H1929 H 0.49404 0.13256 0.0403 0.0
H1930 H 0.49694 0.10074 0.04491 0.0
H1931 H 0.51179 0.07929 0.02618 0.0
H1932 H 0.15873 0.33211 0.38236 0.0
H1933 H 0.18308 0.33776 0.36238 0.0
H1934 H 0.15099 0.2974 0.31633 0.0
H1935 H 0.12686 0.29169 0.33591 0.0
H1936 H 0.19302 0.30291 0.35003 0.0
H1937 H 0.18054 0.33637 0.29009 0.0
H1938 H 0.16993 0.34047 0.31153 0.0
H1939 H 0.16192 0.31899 0.29438 0.0
C1940 C 0.15689 0.32467 0.3679 0.0
C1941 C 0.14127 0.3111 0.3607 0.0
C1942 C 0.17053 0.32827 0.35646 0.0
C1943 C 0.16851 0.31825 0.33792 0.0
C1944 C 0.15247 0.30567 0.33045 0.0
H1945 H 0.2387 0.28408 0.2564 0.0
H1946 H 0.2117 0.28603 0.27261 0.0
C1947 C 0.13892 0.30209 0.34179 0.0
C1948 C 0.18417 0.31604 0.3284 0.0
H1949 H 0.20197 0.31697 0.28698 0.0
C1950 C 0.19525 0.30631 0.33639 0.0
C1951 C 0.18623 0.3197 0.31032 0.0
C1952 C 0.17408 0.32958 0.30111 0.0
C1953 C 0.2083 0.29968 0.32656 0.0
C1954 C 0.2109 0.30393 0.30871 0.0
C1955 C 0.19982 0.31372 0.30068 0.0
C1956 C 0.22638 0.30039 0.29928 0.0
C1957 C 0.21873 0.28777 0.33524 0.0
C1958 C 0.24322 0.30766 0.30905 0.0
C1959 C 0.25822 0.30563 0.30021 0.0
C1960 C 0.25659 0.29709 0.28131 0.0
C1961 C 0.2399 0.29018 0.27121 0.0
C1962 C 0.22468 0.29147 0.28034 0.0
H1963 H 0.21058 0.2796 0.34436 0.0
H1964 H 0.22336 0.27768 0.32445 0.0
H1965 H 0.23045 0.29715 0.34418 0.0
H1966 H 0.24481 0.31541 0.32337 0.0
H1967 H 0.27118 0.31145 0.30794 0.0
H1968 H 0.93282 0.06618 0.19831 0.0
H1969 H 0.94759 0.06382 0.16923 0.0
H1970 H 0.99697 0.06566 0.20031 0.0
H1971 H 0.98224 0.06818 0.22948 0.0
H1972 H 0.97517 0.08658 0.1559 0.0
H1973 H 0.99524 0.01959 0.15955 0.0
H1974 H 0.97967 0.02834 0.17453 0.0
H1975 H 0.0032 0.03796 0.17986 0.0
C1976 C 0.94684 0.06607 0.19909 0.0
C1977 C 0.95611 0.06733 0.21666 0.0
C1978 C 0.95539 0.06474 0.18223 0.0
C1979 C 0.97359 0.06419 0.18196 0.0
C1980 C 0.98292 0.06561 0.19955 0.0
H1981 H 0.04822 0.05838 0.09215 0.0
H1982 H 0.03451 0.06221 0.12175 0.0
C1983 C 0.97442 0.06721 0.21648 0.0
C1984 C 0.9826 0.06228 0.16348 0.0
H1985 H 0.0065 0.0352 0.13561 0.0
C1986 C 0.9819 0.07523 0.15155 0.0
C1987 C 0.99166 0.0476 0.15723 0.0
C1988 C 0.9924 0.03245 0.16832 0.0
C1989 C 0.98996 0.0741 0.13429 0.0
C1990 C 0.99893 0.0594 0.12805 0.0
C1991 C -0.00026 0.04653 0.13998 0.0
C1992 C 0.00748 0.05724 0.10935 0.0
C1993 C 0.98923 0.08908 0.12299 0.0
C1994 C 0.99725 0.05296 0.09184 0.0
C1995 C 0.00518 0.05045 0.07461 0.0
C1996 C 0.0238 0.05252 0.07403 0.0
C1997 C 0.03399 0.05697 0.09159 0.0
C1998 C 0.02603 0.05906 0.10878 0.0
H1999 H 0.98508 0.10147 0.13116 0.0
H2000 H 0.00243 0.09402 0.118 0.0
H2001 H 0.97951 0.08296 0.11053 0.0
H2002 H 0.98295 0.05121 0.09143 0.0
H2003 H 0.99663 0.04691 0.06166 0.0
H2004 H 0.29088 0.64715 0.45803 0.0
H2005 H 0.28328 0.65867 0.4302 0.0
H2006 H 0.28628 0.714 0.46394 0.0
H2007 H 0.29368 0.70262 0.4921 0.0
H2008 H 0.25143 0.68601 0.43148 0.0
H2009 H 0.32098 0.70933 0.41358 0.0
H2010 H 0.3142 0.68886 0.42399 0.0
H2011 H 0.31656 0.71214 0.43785 0.0
C2012 C 0.29038 0.66191 0.45954 0.0
C2013 C 0.29318 0.67413 0.47721 0.0
C2014 C 0.2858 0.66832 0.44367 0.0
C2015 C 0.28422 0.68702 0.44527 0.0
C2016 C 0.28746 0.69945 0.46269 0.0
H2017 H 0.26238 0.77033 0.39508 0.0
H2018 H 0.27102 0.7481 0.41292 0.0
C2019 C 0.2919 0.69303 0.47864 0.0
C2020 C 0.27953 0.69384 0.42867 0.0
H2021 H 0.29832 0.7192 0.39755 0.0
C2022 C 0.26157 0.69291 0.42372 0.0
C2023 C 0.29292 0.70255 0.4187 0.0
C2024 C 0.3123 0.70331 0.42365 0.0
C2025 C 0.25672 0.70169 0.40952 0.0
C2026 C 0.27024 0.71153 0.40043 0.0
C2027 C 0.2881 0.71146 0.40462 0.0
C2028 C 0.26627 0.72469 0.38914 0.0
C2029 C 0.23738 0.70148 0.40502 0.0
C2030 C 0.26109 0.71865 0.36998 0.0
C2031 C 0.25627 0.73132 0.35983 0.0
C2032 C 0.25641 0.74988 0.36895 0.0
C2033 C 0.26191 0.75592 0.38803 0.0
C2034 C 0.26692 0.74337 0.39809 0.0
H2035 H 0.22839 0.69214 0.41252 0.0
H2036 H 0.23524 0.71608 0.40894 0.0
H2037 H 0.23371 0.69662 0.38974 0.0
H2038 H 0.26056 0.7042 0.36304 0.0
H2039 H 0.25219 0.72662 0.345 0.0
H2040 H 0.67479 0.04461 0.67728 0.0
H2041 H 0.65359 0.04425 0.65089 0.0
H2042 H 0.61413 0.00301 0.67025 0.0
H2043 H 0.63505 0.00309 0.69627 0.0
H2044 H 0.63462 0.0063 0.62546 0.0
H2045 H 0.5908 0.04925 0.66264 0.0
H2046 H 0.61416 0.05263 0.67001 0.0
H2047 H 0.59838 0.03279 0.67469 0.0
C2048 C 0.6617 0.03524 0.67554 0.0
C2049 C 0.65631 0.02378 0.68842 0.0
C2050 C 0.64966 0.03532 0.66087 0.0
C2051 C 0.63246 0.02399 0.65936 0.0
C2052 C 0.62735 0.01213 0.67181 0.0
H2053 H 0.545 0.00406 0.57234 0.0
H2054 H 0.56059 0.99825 0.60009 0.0
C2055 C 0.63928 0.01199 0.68634 0.0
C2056 C 0.62004 0.02274 0.64372 0.0
H2057 H 0.58023 0.03197 0.63207 0.0
C2058 C 0.62268 0.01183 0.62679 0.0
C2059 C 0.60456 0.0298 0.6461 0.0
C2060 C 0.60176 0.04189 0.6643 0.0
C2061 C 0.61004 0.00795 0.61167 0.0
C2062 C 0.59475 0.01543 0.61382 0.0
C2063 C 0.59183 0.02584 0.63096 0.0
C2064 C 0.58508 0.01786 0.59756 0.0
C2065 C 0.6136 0.99699 0.59318 0.0
C2066 C 0.59392 0.03106 0.58789 0.0
C2067 C 0.58528 0.0345 0.57256 0.0
C2068 C 0.5676 0.02487 0.56682 0.0
C2069 C 0.5586 0.01172 0.5767 0.0
C2070 C 0.5674 0.00829 0.59229 0.0
H2071 H 0.62252 0.98738 0.59518 0.0
H2072 H 0.60101 0.98856 0.58505 0.0
H2073 H 0.6203 0.0071 0.58484 0.0
H2074 H 0.60755 0.03874 0.59228 0.0
H2075 H 0.59262 0.04471 0.56528 0.0
H2076 H 0.3235 0.36112 0.97316 0.0
H2077 H 0.32342 0.34301 0.94143 0.0
H2078 H 0.26608 0.32602 0.93745 0.0
H2079 H 0.26618 0.3451 0.96884 0.0
H2080 H 0.31222 0.30752 0.9214 0.0
H2081 H 0.27294 0.35453 0.89609 0.0
H2082 H 0.28189 0.3586 0.92008 0.0
H2083 H 0.26192 0.34069 0.91159 0.0
C2084 C 0.31094 0.35314 0.9656 0.0
C2085 C 0.29485 0.35442 0.97324 0.0
C2086 C 0.31089 0.3428 0.94751 0.0
C2087 C 0.29473 0.33349 0.93687 0.0
C2088 C 0.27868 0.33349 0.94518 0.0
H2089 H 0.29448 0.2757 0.81912 0.0
H2090 H 0.29376 0.28015 0.8532 0.0
C2091 C 0.27873 0.34421 0.96313 0.0
C2092 C 0.29477 0.32574 0.91659 0.0
H2093 H 0.28124 0.33191 0.8735 0.0
C2094 C 0.30537 0.31275 0.91088 0.0
C2095 C 0.28592 0.33269 0.90288 0.0
C2096 C 0.27516 0.34751 0.90791 0.0
C2097 C 0.30786 0.30704 0.8919 0.0
C2098 C 0.29921 0.31425 0.8783 0.0
C2099 C 0.28797 0.32651 0.88397 0.0
C2100 C 0.3025 0.31071 0.85824 0.0
C2101 C 0.32031 0.29406 0.88666 0.0
C2102 C 0.30794 0.32631 0.84977 0.0
C2103 C 0.30782 0.32382 0.83043 0.0
C2104 C 0.30289 0.30564 0.81916 0.0
C2105 C 0.29873 0.28983 0.82761 0.0
C2106 C 0.29834 0.29237 0.84707 0.0
H2107 H 0.32891 0.29323 0.89897 0.0
H2108 H 0.31236 0.27959 0.88061 0.0
H2109 H 0.32893 0.29887 0.87598 0.0
H2110 H 0.31132 0.34057 0.85809 0.0
H2111 H 0.31088 0.33619 0.82417 0.0
H2112 H 0.98721 0.08612 0.33294 0.0
H2113 H 0.00035 0.08244 0.36307 0.0
H2114 H 0.95541 0.03723 0.36504 0.0
H2115 H 0.94223 0.04111 0.33507 0.0
H2116 H 0.9913 0.08431 0.40007 0.0
H2117 H 0.99609 0.011 0.37129 0.0
H2118 H 0.99112 0.02671 0.35661 0.0
H2119 H 0.97383 0.01438 0.36835 0.0
C2120 C 0.97977 0.0758 0.34006 0.0
C2121 C 0.96313 0.06446 0.33153 0.0
C2122 C 0.98748 0.07352 0.3574 0.0
C2123 C 0.97926 0.05929 0.36678 0.0
C2124 C 0.96247 0.0482 0.35842 0.0
H2125 H 0.99567 0.02826 0.47626 0.0
H2126 H 0.98532 0.03315 0.44566 0.0
C2127 C 0.95464 0.05068 0.34124 0.0
C2128 C 0.98828 0.05574 0.38479 0.0
H2129 H 0.00149 0.02105 0.40441 0.0
C2130 C 0.99357 0.07045 0.40081 0.0
C2131 C 0.9918 0.03782 0.38636 0.0
C2132 C 0.98812 0.0216 0.36971 0.0
C2133 C 0.00134 0.06758 0.41796 0.0
C2134 C 0.00423 0.04951 0.41966 0.0
C2135 C -0.00066 0.03493 0.40357 0.0
C2136 C 0.01131 0.04537 0.43822 0.0
C2137 C 0.00611 0.08388 0.4345 0.0
C2138 C 0.02965 0.04999 0.44472 0.0
C2139 C 0.03576 0.04666 0.46235 0.0
C2140 C 0.02374 0.03879 0.4743 0.0
C2141 C 0.0055 0.03404 0.46758 0.0
C2142 C -0.00053 0.03699 0.44993 0.0
H2143 H 0.00275 0.09697 0.4314 0.0
H2144 H 0.99898 0.08003 0.44653 0.0
H2145 H 0.0206 0.08684 0.43879 0.0
H2146 H 0.03931 0.05652 0.4363 0.0
H2147 H 0.04983 0.05105 0.46696 0.0
H2148 H 0.28617 0.65261 0.59961 0.0
H2149 H 0.28774 0.6784 0.62682 0.0
H2150 H 0.25322 0.70294 0.59543 0.0
H2151 H 0.25172 0.67733 0.56835 0.0
H2152 H 0.30133 0.7173 0.62068 0.0
H2153 H 0.23486 0.70653 0.64874 0.0
H2154 H 0.2431 0.68718 0.63592 0.0
H2155 H 0.23531 0.70331 0.62375 0.0
C2156 C 0.27848 0.6632 0.59889 0.0
C2157 C 0.26879 0.66325 0.58223 0.0
C2158 C 0.27941 0.67785 0.61426 0.0
C2159 C 0.27053 0.69237 0.61294 0.0
C2160 C 0.25993 0.69167 0.59665 0.0
H2161 H 0.27526 0.79069 0.70211 0.0
H2162 H 0.27165 0.77398 0.66913 0.0
C2163 C 0.25911 0.67715 0.58129 0.0
C2164 C 0.27426 0.70952 0.62753 0.0
H2165 H 0.25605 0.7343 0.66246 0.0
C2166 C 0.29143 0.72115 0.62977 0.0
C2167 C 0.26111 0.71455 0.63887 0.0
C2168 C 0.24255 0.70224 0.63686 0.0
C2169 C 0.29607 0.73743 0.64382 0.0
C2170 C 0.28322 0.74188 0.65588 0.0
C2171 C 0.26575 0.73086 0.65292 0.0
C2172 C 0.28845 0.75492 0.67391 0.0
C2173 C 0.31484 0.74929 0.64618 0.0
C2174 C 0.29925 0.74976 0.68709 0.0
C2175 C 0.30095 0.75887 0.70564 0.0
C2176 C 0.29202 0.77332 0.71112 0.0
C2177 C 0.28221 0.7795 0.69787 0.0
C2178 C 0.28024 0.7701 0.6792 0.0
H2179 H 0.32091 0.74815 0.63266 0.0
H2180 H 0.31522 0.76442 0.65194 0.0
H2181 H 0.3231 0.7441 0.65602 0.0
H2182 H 0.30533 0.73778 0.68328 0.0
H2183 H 0.30859 0.75406 0.71584 0.0
H2184 H 0.6773 0.03787 0.79779 0.0
H2185 H 0.67132 0.03273 0.82903 0.0
H2186 H 0.62157 0.04984 0.82328 0.0
H2187 H 0.62727 0.05497 0.79182 0.0
H2188 H 0.65994 0.06204 0.86058 0.0
H2189 H 0.61281 0.99274 0.83509 0.0
H2190 H 0.631 1.00195 0.82226 0.0
H2191 H 0.61087 0.01048 0.82173 0.0
C2192 C 0.66508 0.04064 0.80317 0.0
C2193 C 0.65253 0.04653 0.79233 0.0
C2194 C 0.66178 0.03767 0.82096 0.0
C2195 C 0.64593 0.04054 0.82796 0.0
C2196 C 0.63375 0.04728 0.81765 0.0
H2197 H 0.57586 0.06278 0.88757 0.0
H2198 H 0.59587 0.04841 0.86766 0.0
C2199 C 0.63703 0.05027 0.79984 0.0
C2200 C 0.64173 0.03655 0.84613 0.0
H2201 H 0.60724 0.01146 0.86436 0.0
C2202 C 0.64898 0.05054 0.86185 0.0
C2203 C 0.62771 0.02129 0.8474 0.0
C2204 C 0.62022 0.00562 0.83074 0.0
C2205 C 0.64059 0.05127 0.87834 0.0
C2206 C 0.62481 0.03756 0.87868 0.0
C2207 C 0.61933 0.02193 0.86388 0.0
C2208 C 0.61133 0.04266 0.89062 0.0
C2209 C 0.64706 0.06811 0.89419 0.0
C2210 C 0.61345 0.04383 0.9099 0.0
C2211 C 0.60224 0.05228 0.92124 0.0
C2212 C 0.58886 0.05955 0.91331 0.0
C2213 C 0.58632 0.05759 0.89392 0.0
C2214 C 0.59749 0.04914 0.88261 0.0
H2215 H 0.65985 0.07719 0.8918 0.0
H2216 H 0.63696 0.07687 0.89589 0.0
H2217 H 0.64894 0.06322 0.90745 0.0
H2218 H 0.62417 0.03894 0.91616 0.0
H2219 H 0.60437 0.05367 0.93625 0.0
H2220 H 0.28624 0.38328 0.10142 0.0
H2221 H 0.28144 0.36834 0.12853 0.0
H2222 H 0.29782 0.31928 0.09931 0.0
H2223 H 0.30245 0.33403 0.07192 0.0
H2224 H 0.2616 0.31644 0.12162 0.0
H2225 H 0.32695 0.35653 0.15964 0.0
H2226 H 0.31429 0.36842 0.14639 0.0
H2227 H 0.32393 0.35003 0.13441 0.0
C2228 C 0.28889 0.36934 0.10079 0.0
C2229 C 0.29485 0.35984 0.08465 0.0
C2230 C 0.28603 0.36081 0.1162 0.0
C2231 C 0.28926 0.34277 0.11578 0.0
C2232 C 0.29513 0.33317 0.09972 0.0
H2233 H 0.28879 0.27489 0.20015 0.0
H2234 H 0.28627 0.28473 0.17011 0.0
C2235 C 0.29783 0.34162 0.08418 0.0
C2236 C 0.28722 0.33437 0.13251 0.0
H2237 H 0.30782 0.33692 0.17553 0.0
C2238 C 0.2717 0.32078 0.1334 0.0
C2239 C 0.30044 0.34023 0.14775 0.0
C2240 C 0.31742 0.35456 0.14715 0.0
C2241 C 0.269 0.313 0.14944 0.0
C2242 C 0.28219 0.31902 0.16471 0.0
C2243 C 0.29773 0.33249 0.16373 0.0
C2244 C 0.28034 0.3116 0.18201 0.0
C2245 C 0.25203 0.29875 0.15024 0.0
C2246 C 0.27761 0.32342 0.19847 0.0
C2247 C 0.27908 0.31789 0.21559 0.0
C2248 C 0.28326 0.30045 0.21642 0.0
C2249 C 0.28518 0.28824 0.19981 0.0
C2250 C 0.28378 0.29383 0.18268 0.0
H2251 H 0.24251 0.29659 0.13771 0.0
H2252 H 0.25518 0.28496 0.15131 0.0
H2253 H 0.24554 0.3035 0.16293 0.0
H2254 H 0.27505 0.33725 0.19813 0.0
H2255 H 0.27748 0.32747 0.22824 0.0
H2256 H 0.27752 0.9746 0.01781 0.0
H2257 H 0.25268 0.98969 0.0153 0.0
H2258 H 0.21571 0.93576 0.0098 0.0
H2259 H 0.24066 0.92027 0.01226 0.0
H2260 H 0.2199 0.97946 0.98635 0.0
H2261 H 0.21009 0.974 0.0605 0.0
H2262 H 0.23081 0.97239 0.05062 0.0
H2263 H 0.21178 0.95301 0.0442 0.0
C2264 C 0.26412 0.96587 0.01587 0.0
C2265 C 0.26087 0.94634 0.01545 0.0
C2266 C 0.25004 0.97448 0.01423 0.0
C2267 C 0.23263 0.96368 0.01229 0.0
C2268 C 0.22924 0.94409 0.01117 0.0
H2269 H 0.14034 0.00699 0.03483 0.0
H2270 H 0.15961 0.98642 0.02259 0.0
C2271 C 0.24339 0.93538 0.01272 0.0
C2272 C 0.21825 0.97353 0.01405 0.0
H2273 H 0.19288 0.9911 0.04643 0.0
C2274 C 0.21369 0.98183 0.99931 0.0
C2275 C 0.21074 0.97671 0.03121 0.0
C2276 C 0.21609 0.96869 0.04764 0.0
C2277 C 0.2016 0.99356 0.00143 0.0
C2278 C 0.19427 0.99688 0.01866 0.0
C2279 C 0.19864 0.98829 0.03324 0.0
C2280 C 0.18212 0.00944 0.02232 0.0
C2281 C 0.1968 1.0024 0.98546 0.0
C2282 C 0.18865 0.02911 0.02613 0.0
C2283 C 0.17765 0.041 0.03307 0.0
C2284 C 0.16014 0.03318 0.03626 0.0
C2285 C 0.15369 0.01341 0.03215 0.0
C2286 C 0.16459 1.00164 0.02512 0.0
H2287 H 0.20199 0.99649 0.97228 0.0
H2288 H 0.18211 1.00018 0.98309 0.0
H2289 H 0.20244 0.0179 0.98907 0.0
H2290 H 0.20239 0.03516 0.02439 0.0
H2291 H 0.18281 0.05619 0.03608 0.0
H2292 H 0.72837 0.67351 0.01808 0.0
H2293 H 0.69876 0.65328 0.01785 0.0
H2294 H 0.71048 0.61248 0.97242 0.0
H2295 H 0.74051 0.63216 0.97349 0.0
H2296 H 0.67126 0.64132 0.99335 0.0
H2297 H 0.69365 0.57779 0.00615 0.0
H2298 H 0.70894 0.60031 0.00783 0.0
H2299 H 0.70133 0.58505 0.98535 0.0
C2300 C 0.7246 0.66021 0.00805 0.0
C2301 C 0.73675 0.65432 0.99588 0.0
C2302 C 0.70767 0.64863 0.00793 0.0
C2303 C 0.70242 0.63105 0.99542 0.0
C2304 C 0.71435 0.62557 0.9827 0.0
H2305 H 0.60148 0.54464 0.98141 0.0
H2306 H 0.63072 0.56298 0.97624 0.0
C2307 C 0.73145 0.63692 0.98317 0.0
C2308 C 0.6844 0.61871 0.99562 0.0
H2309 H 0.66264 0.57421 0.99939 0.0
C2310 C 0.66944 0.62665 0.99468 0.0
C2311 C 0.68187 0.59948 0.99729 0.0
C2312 C 0.69731 0.5902 0.9994 0.0
C2313 C 0.65216 0.61605 0.99544 0.0
C2314 C 0.64966 0.59692 0.99733 0.0
C2315 C 0.66453 0.58881 0.99783 0.0
C2316 C 0.63194 0.58561 1.00019 0.0
C2317 C 0.63672 0.62549 0.99419 0.0
C2318 C 0.62305 0.592 0.0155 0.0
C2319 C 0.60643 0.58168 0.01843 0.0
C2320 C 0.59828 0.56444 0.00628 0.0
C2321 C 0.60732 0.55782 0.99106 0.0
C2322 C 0.62403 0.5683 0.98808 0.0
H2323 H 0.63993 0.63752 0.98685 0.0
H2324 H 0.6246 0.61533 0.98678 0.0
H2325 H 0.63371 0.63123 0.00852 0.0
H2326 H 0.62903 0.60501 0.02534 0.0
H2327 H 0.60005 0.58729 0.03038 0.0
H2328 H 0.72067 0.4661 0.2511 0.0
H2329 H 0.736 0.44014 0.2514 0.0
H2330 H 0.69199 0.4103 0.27597 0.0
H2331 H 0.67631 0.43563 0.27455 0.0
H2332 H 0.75111 0.42456 0.27235 0.0
H2333 H 0.69509 0.36509 0.24202 0.0
H2334 H 0.69352 0.38922 0.24299 0.0
H2335 H 0.68919 0.37827 0.26296 0.0
C2336 C 0.71406 0.45392 0.25638 0.0
C2337 C 0.69687 0.45337 0.26259 0.0
C2338 C 0.72301 0.43882 0.25663 0.0
C2339 C 0.71541 0.42222 0.26323 0.0
C2340 C 0.69838 0.42198 0.2699 0.0
H2341 H 0.75883 0.33021 0.29828 0.0
H2342 H 0.74421 0.35567 0.29406 0.0
C2343 C 0.6893 0.4369 0.26933 0.0
C2344 C 0.72538 0.4058 0.26362 0.0
H2345 H 0.71967 0.35698 0.25723 0.0
C2346 C 0.74402 0.40986 0.26876 0.0
C2347 C 0.71692 0.38602 0.25887 0.0
C2348 C 0.69765 0.37937 0.2512 0.0
C2349 C 0.75381 0.39547 0.26979 0.0
C2350 C 0.74516 0.37592 0.26581 0.0
C2351 C 0.72666 0.37174 0.26049 0.0
C2352 C 0.75484 0.35988 0.26805 0.0
C2353 C 0.77352 0.40126 0.27554 0.0
C2354 C 0.76609 0.35294 0.25492 0.0
C2355 C 0.77443 0.33772 0.25715 0.0
C2356 C 0.77228 0.32903 0.27289 0.0
C2357 C 0.76119 0.33625 0.28598 0.0
C2358 C 0.75264 0.35105 0.28357 0.0
H2359 H 0.77843 0.41689 0.2791 0.0
H2360 H 0.77666 0.39525 0.28782 0.0
H2361 H 0.7808 0.39539 0.26397 0.0
H2362 H 0.76824 0.35911 0.24267 0.0
H2363 H 0.78243 0.33269 0.24643 0.0
H2364 H 0.86242 0.46076 0.54473 0.0
H2365 H 0.89504 0.46626 0.54737 0.0
H2366 H 0.89554 0.47727 0.49144 0.0
H2367 H 0.86304 0.47218 0.48887 0.0
H2368 H 0.91753 0.4504 0.50279 0.0
H2369 H 0.92666 0.52243 0.54736 0.0
H2370 H 0.91124 0.50326 0.55399 0.0
H2371 H 0.90642 0.51068 0.53269 0.0
C2372 C 0.86961 0.4647 0.53319 0.0
C2373 C 0.86055 0.46676 0.51686 0.0
C2374 C 0.88805 0.46757 0.53462 0.0
C2375 C 0.89737 0.47215 0.51959 0.0
C2376 C 0.88833 0.47382 0.50314 0.0
H2377 H 0.00244 0.5305 0.51224 0.0
H2378 H 0.97062 0.51919 0.51267 0.0
C2379 C 0.86995 0.47128 0.50183 0.0
C2380 C 0.91673 0.4765 0.5213 0.0
H2381 H 0.95253 0.51195 0.53942 0.0
C2382 C 0.92533 0.46374 0.51089 0.0
C2383 C 0.92645 0.49407 0.53161 0.0
C2384 C 0.91731 0.50854 0.542 0.0
C2385 C 0.94373 0.46843 0.51005 0.0
C2386 C 0.95358 0.48599 0.52058 0.0
C2387 C 0.9449 0.49846 0.53146 0.0
C2388 C 0.97274 0.49232 0.5195 0.0
C2389 C 0.95217 0.45501 0.49711 0.0
C2390 C 0.98441 0.48092 0.52299 0.0
C2391 C 0.00241 0.48666 0.52099 0.0
C2392 C 0.00909 0.5044 0.51662 0.0
C2393 C 0.99752 0.51627 0.51431 0.0
C2394 C 0.9794 0.51004 0.51513 0.0
H2395 H 0.94222 0.44519 0.48625 0.0
H2396 H 0.96281 0.46282 0.48998 0.0
H2397 H 0.95812 0.44626 0.50533 0.0
H2398 H 0.97963 0.46764 0.52733 0.0
H2399 H 0.01119 0.47759 0.52367 0.0
H2400 H 0.41298 0.11178 0.30389 0.0
H2401 H 0.39686 0.13417 0.29491 0.0
H2402 H 0.34875 0.10356 0.31278 0.0
H2403 H 0.36468 0.08049 0.32094 0.0
H2404 H 0.34813 0.10201 0.27479 0.0
H2405 H 0.37202 0.17638 0.31363 0.0
H2406 H 0.38914 0.16451 0.30572 0.0
H2407 H 0.37556 0.15637 0.3231 0.0
C2408 C 0.3992 0.1104 0.30685 0.0
C2409 C 0.38987 0.09431 0.3127 0.0
C2410 C 0.39002 0.12326 0.30175 0.0
C2411 C 0.37164 0.12035 0.30309 0.0
C2412 C 0.36295 0.10588 0.31162 0.0
H2413 H 0.29317 0.17264 0.26409 0.0
H2414 H 0.31286 0.15841 0.28125 0.0
C2415 C 0.37203 0.09278 0.31631 0.0
C2416 C 0.36097 0.1292 0.29183 0.0
H2417 H 0.35333 0.17141 0.28532 0.0
C2418 C 0.34914 0.11718 0.27718 0.0
C2419 C 0.36278 0.14896 0.29476 0.0
C2420 C 0.37547 0.16233 0.31023 0.0
C2421 C 0.33863 0.12442 0.26561 0.0
C2422 C 0.34023 0.14414 0.26873 0.0
C2423 C 0.35229 0.15625 0.2831 0.0
C2424 C 0.32845 0.15231 0.25806 0.0
C2425 C 0.32563 0.111 0.25041 0.0
C2426 C 0.33069 0.15313 0.23932 0.0
C2427 C 0.3195 0.16126 0.22948 0.0
C2428 C 0.30602 0.16863 0.23836 0.0
C2429 C 0.30356 0.16721 0.257 0.0
C2430 C 0.31477 0.15918 0.26681 0.0
H2431 H 0.32463 0.09594 0.25126 0.0
H2432 H 0.3122 0.11411 0.25127 0.0
H2433 H 0.32999 0.11301 0.23654 0.0
H2434 H 0.34128 0.14782 0.23248 0.0
H2435 H 0.3218 0.16244 0.21521 0.0
H2436 H 0.34491 0.16263 0.48506 0.0
H2437 H 0.37269 0.15114 0.48334 0.0
H2438 H 0.36877 0.14054 0.53917 0.0
H2439 H 0.34114 0.15154 0.54087 0.0
H2440 H 0.40773 0.16077 0.51594 0.0
H2441 H 0.36451 0.0881 0.49648 0.0
H2442 H 0.35752 0.1086 0.4912 0.0
H2443 H 0.35766 0.10446 0.51462 0.0
C2444 C 0.35023 0.1582 0.49706 0.0
C2445 C 0.34079 0.15768 0.513 0.0
C2446 C 0.36605 0.15171 0.49607 0.0
C2447 C 0.37263 0.14498 0.51112 0.0
C2448 C 0.36383 0.14566 0.52743 0.0
H2449 H 0.44447 0.09504 0.55934 0.0
H2450 H 0.42675 0.11604 0.54944 0.0
C2451 C 0.34801 0.15184 0.52832 0.0
C2452 C 0.38732 0.13502 0.50945 0.0
H2453 H 0.39456 0.09071 0.5075 0.0
C2454 C 0.40497 0.14544 0.51363 0.0
C2455 C 0.38359 0.11504 0.50642 0.0
C2456 C 0.36481 0.1033 0.5018 0.0
C2457 C 0.41893 0.13629 0.51598 0.0
C2458 C 0.41496 0.11642 0.51418 0.0
C2459 C 0.39749 0.10598 0.50884 0.0
C2460 C 0.42816 0.10626 0.51988 0.0
C2461 C 0.43771 0.14782 0.52104 0.0
C2462 C 0.43484 0.09399 0.50647 0.0
C2463 C 0.44497 0.08204 0.51207 0.0
C2464 C 0.44823 0.08194 0.53115 0.0
C2465 C 0.44195 0.09468 0.54455 0.0
C2466 C 0.43204 0.1068 0.53894 0.0
H2467 H 0.4391 0.16251 0.51875 0.0
H2468 H 0.44161 0.14846 0.53601 0.0
H2469 H 0.44707 0.14098 0.51266 0.0
H2470 H 0.43173 0.09325 0.4917 0.0
H2471 H 0.44962 0.0723 0.50147 0.0
H2472 H 0.71855 0.56606 0.27487 0.0
H2473 H 0.73696 0.59841 0.27733 0.0
H2474 H 0.6897 0.61854 0.26695 0.0
H2475 H 0.67154 0.58701 0.26488 0.0
H2476 H 0.74273 0.62364 0.25332 0.0
H2477 H 0.71115 0.65704 0.31268 0.0
H2478 H 0.70752 0.63168 0.30548 0.0
H2479 H 0.69511 0.64476 0.29344 0.0
C2480 C 0.71205 0.57738 0.27325 0.0
C2481 C 0.69331 0.5735 0.26988 0.0
C2482 C 0.72266 0.59603 0.27462 0.0
C2483 C 0.7149 0.61148 0.27282 0.0
C2484 C 0.69628 0.60741 0.26906 0.0
H2485 H 0.74602 0.73404 0.27371 0.0
H2486 H 0.731 0.70119 0.27307 0.0
C2487 C 0.68579 0.58901 0.26773 0.0
C2488 C 0.72589 0.63171 0.27446 0.0
H2489 H 0.72855 0.67807 0.29598 0.0
C2490 C 0.73972 0.63547 0.26284 0.0
C2491 C 0.72217 0.64758 0.2867 0.0
C2492 C 0.7083 0.64508 0.30041 0.0
C2493 C 0.74925 0.65422 0.26263 0.0
C2494 C 0.7454 0.67012 0.27475 0.0
C2495 C 0.73173 0.66628 0.28655 0.0
C2496 C 0.75502 0.6907 0.27527 0.0
C2497 C 0.76288 0.65672 0.2487 0.0
C2498 C 0.77379 0.69661 0.27714 0.0
C2499 C 0.78251 0.71562 0.27733 0.0
C2500 C 0.77293 0.72971 0.27592 0.0
C2501 C 0.75414 0.7239 0.27464 0.0
C2502 C 0.74542 0.70488 0.27433 0.0
H2503 H 0.76035 0.6444 0.23679 0.0
H2504 H 0.76299 0.66971 0.24307 0.0
H2505 H 0.77628 0.65789 0.25568 0.0
H2506 H 0.78185 0.68654 0.27861 0.0
H2507 H 0.79686 0.71917 0.27854 0.0
H2508 H 0.90362 0.46336 0.76446 0.0
H2509 H 0.88331 0.43341 0.76596 0.0
H2510 H 0.85042 0.46373 0.80003 0.0
H2511 H 0.8703 0.49363 0.79852 0.0
H2512 H 0.87413 0.42344 0.80348 0.0
H2513 H 0.81633 0.42597 0.75576 0.0
H2514 H 0.8385 0.43933 0.75414 0.0
H2515 H 0.8264 0.44645 0.7735 0.0
C2516 C 0.89197 0.46365 0.77207 0.0
C2517 C 0.88857 0.48078 0.78141 0.0
C2518 C 0.88046 0.44662 0.77294 0.0
C2519 C 0.86552 0.44667 0.78305 0.0
C2520 C 0.86187 0.46366 0.79204 0.0
H2521 H 0.78681 0.34145 0.7697 0.0
H2522 H 0.80026 0.37489 0.78258 0.0
C2523 C 0.87328 0.48064 0.79116 0.0
C2524 C 0.85418 0.42879 0.78485 0.0
H2525 H 0.8155 0.39805 0.76655 0.0
C2526 C 0.86115 0.41784 0.79568 0.0
C2527 C 0.83715 0.42214 0.77515 0.0
C2528 C 0.82906 0.43399 0.76391 0.0
C2529 C 0.8519 0.39957 0.79607 0.0
C2530 C 0.83557 0.39202 0.78478 0.0
C2531 C 0.82802 0.40371 0.77516 0.0
C2532 C 0.82745 0.37163 0.78033 0.0
C2533 C 0.86019 0.38863 0.80818 0.0
C2534 C 0.83815 0.35875 0.77474 0.0
C2535 C 0.83049 0.33966 0.76881 0.0
C2536 C 0.81203 0.33337 0.76757 0.0
C2537 C 0.80115 0.34616 0.77173 0.0
C2538 C 0.80884 0.36517 0.7788 0.0
H2539 H 0.8658 0.39788 0.82189 0.0
H2540 H 0.85055 0.3762 0.81068 0.0
H2541 H 0.87141 0.38383 0.80133 0.0
H2542 H 0.85238 0.36346 0.77451 0.0
H2543 H 0.83894 0.32982 0.76487 0.0
H2544 H 0.06103 0.87027 0.1054 0.0
H2545 H 0.05635 0.89716 0.09236 0.0
H2546 H 0.08847 0.88252 0.04772 0.0
H2547 H 0.09268 0.855 0.06045 0.0
H2548 H 0.08009 0.92756 0.08806 0.0
H2549 H 0.04725 0.89112 0.01755 0.0
H2550 H 0.0505 0.87829 0.03572 0.0
H2551 H 0.06881 0.88697 0.02306 0.0
C2552 C 0.06705 0.87265 0.09274 0.0
C2553 C 0.07723 0.86036 0.08402 0.0
C2554 C 0.06433 0.8881 0.08524 0.0
C2555 C 0.07178 0.89191 0.06881 0.0
C2556 C 0.0821 0.87974 0.06008 0.0
H2557 H 0.06239 0.98707 0.01258 0.0
H2558 H 0.06808 0.9571 0.019 0.0
C2559 C 0.08465 0.86405 0.06749 0.0
C2560 C 0.06932 0.90919 0.06173 0.0
H2561 H 0.0522 0.92445 0.02465 0.0
C2562 C 0.07398 0.9268 0.07417 0.0
C2563 C 0.06178 0.90851 0.04343 0.0
C2564 C 0.05666 0.89021 0.02917 0.0
C2565 C 0.07109 0.94351 0.06911 0.0
C2566 C 0.06247 0.9427 0.05123 0.0
C2567 C 0.05846 0.92521 0.03846 0.0
C2568 C 0.05724 0.95975 0.04593 0.0
C2569 C 0.07781 0.96191 0.08305 0.0
C2570 C 0.04841 0.97092 0.05827 0.0
C2571 C 0.04587 0.98829 0.05495 0.0
C2572 C 0.05075 0.99443 0.03849 0.0
C2573 C 0.05811 0.98254 0.02522 0.0
C2574 C 0.06145 0.96543 0.02897 0.0
H2575 H 0.08947 0.96124 0.09224 0.0
H2576 H 0.08177 0.97405 0.07602 0.0
H2577 H 0.06719 0.96455 0.09221 0.0
H2578 H 0.0441 0.96661 0.07097 0.0
H2579 H 0.04039 0.99721 0.06556 0.0
H2580 H 0.9491 0.246 0.90166 0.0
H2581 H 0.91946 0.24485 0.88632 0.0
H2582 H 0.94354 0.28593 0.85496 0.0
H2583 H 0.97263 0.28722 0.86985 0.0
H2584 H 0.90175 0.27834 0.88369 0.0
H2585 H 0.91439 0.23968 0.81477 0.0
H2586 H 0.92644 0.239 0.83638 0.0
H2587 H 0.93202 0.25936 0.82584 0.0
C2588 C 0.94806 0.25477 0.89151 0.0
C2589 C 0.96349 0.26655 0.88698 0.0
C2590 C 0.93108 0.25413 0.88275 0.0
C2591 C 0.92922 0.26514 0.86923 0.0
C2592 C 0.94453 0.27707 0.86505 0.0
H2593 H 0.85434 0.28787 0.78935 0.0
H2594 H 0.87968 0.28324 0.80796 0.0
C2595 C 0.96129 0.27776 0.87371 0.0
C2596 C 0.91156 0.26448 0.85916 0.0
H2597 H 0.88984 0.25433 0.81521 0.0
C2598 C 0.89897 0.27281 0.86877 0.0
C2599 C 0.90798 0.25756 0.83962 0.0
C2600 C 0.92083 0.24825 0.8285 0.0
C2601 C 0.88339 0.27515 0.8593 0.0
C2602 C 0.87989 0.26844 0.83963 0.0
C2603 C 0.89231 0.25958 0.83019 0.0
C2604 C 0.86403 0.27119 0.82836 0.0
C2605 C 0.87139 0.28577 0.87042 0.0
C2606 C 0.84648 0.26589 0.83326 0.0
C2607 C 0.83193 0.26887 0.82271 0.0
C2608 C 0.83445 0.27662 0.80662 0.0
C2609 C 0.85188 0.28155 0.80148 0.0
C2610 C 0.86643 0.27895 0.81221 0.0
H2611 H 0.87848 0.29472 0.88371 0.0
H2612 H 0.86601 0.29498 0.8623 0.0
H2613 H 0.86007 0.27545 0.87406 0.0
H2614 H 0.84395 0.25927 0.84517 0.0
H2615 H 0.81865 0.26475 0.82693 0.0
H2616 H 0.57341 0.25181 0.56018 0.0
H2617 H 0.56865 0.21892 0.54247 0.0
H2618 H 0.56864 0.19896 0.59421 0.0
H2619 H 0.57334 0.23119 0.61179 0.0
H2620 H 0.59101 0.19014 0.5467 0.0
H2621 H 0.52119 0.16817 0.56249 0.0
H2622 H 0.53201 0.19264 0.56347 0.0
H2623 H 0.53581 0.18138 0.58264 0.0
C2624 C 0.57232 0.24039 0.56774 0.0
C2625 C 0.57373 0.24426 0.58746 0.0
C2626 C 0.56967 0.22162 0.55761 0.0
C2627 C 0.56814 0.20646 0.56704 0.0
C2628 C 0.56959 0.21037 0.58662 0.0
H2629 H 0.55857 0.0928 0.56974 0.0
H2630 H 0.56334 0.1271 0.57286 0.0
C2631 C 0.57233 0.22893 0.59667 0.0
C2632 C 0.56511 0.18637 0.55698 0.0
H2633 H 0.53713 0.1434 0.55538 0.0
C2634 C 0.57906 0.17991 0.5481 0.0
C2635 C 0.54947 0.17303 0.55872 0.0
C2636 C 0.53368 0.17914 0.56718 0.0
C2637 C 0.57828 0.16037 0.5423 0.0
C2638 C 0.56322 0.14707 0.54553 0.0
C2639 C 0.54879 0.1536 0.55315 0.0
C2640 C 0.56276 0.12648 0.54314 0.0
C2641 C 0.59398 0.15399 0.53392 0.0
C2642 C 0.56132 0.1147 0.52538 0.0
C2643 C 0.55864 0.09497 0.52358 0.0
C2644 C 0.55739 0.08678 0.53952 0.0
C2645 C 0.5596 0.09871 0.55724 0.0
C2646 C 0.56227 0.11831 0.55902 0.0
H2647 H 0.6052 0.16609 0.53351 0.0
H2648 H 0.5987 0.14444 0.54212 0.0
H2649 H 0.58985 0.14584 0.51944 0.0
H2650 H 0.56145 0.12064 0.51291 0.0
H2651 H 0.55667 0.08615 0.50973 0.0
H2652 H 0.58208 0.79078 0.42411 0.0
H2653 H 0.6092 0.79442 0.40772 0.0
H2654 H 0.58511 0.74411 0.36665 0.0
H2655 H 0.55767 0.74124 0.38228 0.0
H2656 H 0.63343 0.77563 0.3993 0.0
H2657 H 0.59896 0.77816 0.33199 0.0
H2658 H 0.58779 0.77849 0.35304 0.0
H2659 H 0.5903 0.75639 0.33922 0.0
C2660 C 0.58259 0.78052 0.41156 0.0
C2661 C 0.56763 0.76587 0.40433 0.0
C2662 C 0.59814 0.78259 0.40218 0.0
C2663 C 0.59918 0.7699 0.3855 0.0
C2664 C 0.58454 0.75462 0.37895 0.0
H2665 H 0.68011 0.76038 0.30665 0.0
H2666 H 0.65628 0.75351 0.32716 0.0
C2667 C 0.56886 0.75286 0.38802 0.0
C2668 C 0.61542 0.77273 0.3749 0.0
H2669 H 0.62897 0.77519 0.33132 0.0
C2670 C 0.63239 0.77562 0.38446 0.0
C2671 C 0.61431 0.7729 0.35548 0.0
C2672 C 0.59688 0.77153 0.34439 0.0
C2673 C 0.64806 0.77831 0.37515 0.0
C2674 C 0.64682 0.77805 0.35572 0.0
C2675 C 0.62993 0.77514 0.34617 0.0
C2676 C 0.66282 0.7814 0.34501 0.0
C2677 C 0.66583 0.78121 0.38612 0.0
C2678 C 0.67464 0.79926 0.34832 0.0
C2679 C 0.68819 0.80319 0.33655 0.0
C2680 C 0.69033 0.78928 0.32137 0.0
C2681 C 0.67897 0.77121 0.31848 0.0
C2682 C 0.6653 0.76734 0.33013 0.0
H2683 H 0.6644 0.77693 0.39985 0.0
H2684 H 0.67452 0.77305 0.3781 0.0
H2685 H 0.67258 0.79644 0.38872 0.0
H2686 H 0.67286 0.81046 0.35946 0.0
H2687 H 0.69655 0.81735 0.33883 0.0
H2688 H 0.09854 0.24604 0.39957 0.0
H2689 H 0.09374 0.21931 0.41561 0.0
H2690 H 0.06862 0.25063 0.45824 0.0
H2691 H 0.07372 0.27765 0.44245 0.0
H2692 H 0.09877 0.23014 0.46828 0.0
H2693 H 0.04041 0.18724 0.41951 0.0
H2694 H 0.05958 0.2002 0.41066 0.0
H2695 H 0.04534 0.21281 0.42385 0.0
C2696 C 0.09198 0.24714 0.41237 0.0
C2697 C 0.08631 0.26362 0.41985 0.0
C2698 C 0.08931 0.23199 0.42144 0.0
C2699 C 0.08072 0.23317 0.43783 0.0
C2700 C 0.07529 0.24971 0.44552 0.0
H2701 H 0.0274 0.16282 0.50459 0.0
H2702 H 0.0373 0.18381 0.48306 0.0
C2703 C 0.0782 0.26501 0.43659 0.0
C2704 C 0.07719 0.21707 0.44702 0.0
H2705 H 0.04726 0.17583 0.44635 0.0
C2706 C 0.08767 0.2181 0.46348 0.0
C2707 C 0.06277 0.20156 0.44037 0.0
C2708 C 0.05129 0.20023 0.42263 0.0
C2709 C 0.08354 0.20421 0.47415 0.0
C2710 C 0.06865 0.189 0.46791 0.0
C2711 C 0.05864 0.1876 0.45098 0.0
C2712 C 0.06235 0.17538 0.47965 0.0
C2713 C 0.0946 0.20643 0.49239 0.0
C2714 C 0.07315 0.16369 0.48448 0.0
C2715 C 0.06777 0.15214 0.49708 0.0
C2716 C 0.05133 0.15184 0.50467 0.0
C2717 C 0.04028 0.16312 0.49927 0.0
C2718 C 0.04579 0.17486 0.48683 0.0
H2719 H 0.10326 0.22087 0.49684 0.0
H2720 H 0.08596 0.20351 0.50368 0.0
H2721 H 0.1033 0.19615 0.4907 0.0
H2722 H 0.08585 0.16379 0.4788 0.0
H2723 H 0.0766 0.14363 0.50105 0.0
H2724 H 0.55268 0.24352 0.1538 0.0
H2725 H 0.57964 0.23629 0.16657 0.0
H2726 H 0.59216 0.2909 0.20411 0.0
H2727 H 0.56456 0.29779 0.19197 0.0
H2728 H 0.61362 0.25372 0.16647 0.0
H2729 H 0.5962 0.25622 0.23947 0.0
H2730 H 0.58015 0.25613 0.22063 0.0
H2731 H 0.59563 0.27776 0.23171 0.0
C2732 C 0.56129 0.25404 0.16468 0.0
C2733 C 0.55688 0.27134 0.17181 0.0
C2734 C 0.57658 0.24985 0.17199 0.0
C2735 C 0.58772 0.26299 0.18636 0.0
C2736 C 0.58346 0.28043 0.1933 0.0
H2737 H 0.69099 0.27454 0.23849 0.0
H2738 H 0.66566 0.27757 0.21886 0.0
C2739 C 0.5679 0.28445 0.18627 0.0
C2740 C 0.60399 0.25853 0.19377 0.0
H2741 H 0.62627 0.25554 0.23406 0.0
C2742 C 0.61635 0.25397 0.18122 0.0
C2743 C 0.6073 0.25866 0.21299 0.0
C2744 C 0.59403 0.26226 0.22694 0.0
C2745 C 0.63229 0.25003 0.18756 0.0
C2746 C 0.63578 0.25085 0.20679 0.0
C2747 C 0.62336 0.25506 0.21928 0.0
C2748 C 0.6525 0.24798 0.21466 0.0
C2749 C 0.6454 0.24524 0.17386 0.0
C2750 C 0.65335 0.23025 0.21839 0.0
C2751 C 0.66774 0.22844 0.22963 0.0
C2752 C 0.68133 0.24439 0.23722 0.0
C2753 C 0.68077 0.26197 0.23265 0.0
C2754 C 0.6664 0.26374 0.22143 0.0
H2755 H 0.64025 0.2443 0.15917 0.0
H2756 H 0.65801 0.25623 0.17719 0.0
H2757 H 0.64854 0.23151 0.1752 0.0
H2758 H 0.6425 0.21805 0.21332 0.0
H2759 H 0.66805 0.21473 0.23279 0.0
H2760 H 0.61688 0.89176 0.89005 0.0
H2761 H 0.61119 0.92044 0.90915 0.0
H2762 H 0.60161 0.89168 0.95516 0.0
H2763 H 0.60755 0.86318 0.93644 0.0
H2764 H 0.57727 0.91741 0.92073 0.0
H2765 H 0.62796 0.94464 0.98151 0.0
H2766 H 0.63166 0.92903 0.96062 0.0
H2767 H 0.61903 0.91961 0.97812 0.0
C2768 C 0.61421 0.89176 0.90445 0.0
C2769 C 0.61236 0.87516 0.91167 0.0
C2770 C 0.61098 0.90814 0.91531 0.0
C2771 C 0.60608 0.9081 0.93351 0.0
C2772 C 0.60571 0.89206 0.94125 0.0
H2773 H 0.55166 0.97277 0.01284 0.0
H2774 H 0.5654 0.94827 0.99571 0.0
C2775 C 0.60894 0.87572 0.93044 0.0
C2776 C 0.59816 0.9232 0.94314 0.0
H2777 H 0.60007 0.95395 0.98456 0.0
C2778 C 0.58238 0.92563 0.93458 0.0
C2779 C 0.60475 0.93353 0.96129 0.0
C2780 C 0.62188 0.9317 0.97086 0.0
C2781 C 0.57269 0.93785 0.94393 0.0
C2782 C 0.57921 0.94807 0.96214 0.0
C2783 C 0.59509 0.94584 0.97065 0.0
C2784 C 0.57028 0.96203 0.97216 0.0
C2785 C 0.55536 0.93934 0.93441 0.0
C2786 C 0.56865 0.97765 0.96448 0.0
C2787 C 0.5608 0.99134 0.97406 0.0
C2788 C 0.55474 0.98977 0.99159 0.0
C2789 C 0.55636 0.97418 0.99936 0.0
C2790 C 0.56411 0.96028 0.98962 0.0
H2791 H 0.54968 0.92664 0.92331 0.0
H2792 H 0.54535 0.94113 0.9446 0.0
H2793 H 0.55781 0.95184 0.9277 0.0
H2794 H 0.57381 0.97946 0.95127 0.0
H2795 H 0.56011 0.00356 0.96806 0.0
H2796 H 0.9663 0.79106 0.70002 0.0
H2797 H 0.93863 0.79329 0.71435 0.0
H2798 H 0.92285 0.73218 0.70431 0.0
H2799 H 0.95117 0.73009 0.69136 0.0
H2800 H 0.90613 0.7823 0.70184 0.0
H2801 H 0.91685 0.74429 0.75846 0.0
H2802 H 0.93395 0.75115 0.74355 0.0
H2803 H 0.91688 0.72979 0.7359 0.0
C2804 C 0.95692 0.77822 0.70117 0.0
C2805 C 0.96075 0.76048 0.69536 0.0
C2806 C 0.94122 0.77944 0.70924 0.0
C2807 C 0.92915 0.76289 0.71103 0.0
C2808 C 0.93247 0.74508 0.7039 0.0
H2809 H 0.82138 0.7516 0.71599 0.0
H2810 H 0.8514 0.74757 0.71202 0.0
C2811 C 0.94845 0.74389 0.69642 0.0
C2812 C 0.91285 0.76433 0.71995 0.0
H2813 H 0.8869 0.74833 0.75255 0.0
C2814 C 0.90214 0.77518 0.71318 0.0
C2815 C 0.90787 0.75524 0.73493 0.0
C2816 C 0.91962 0.74465 0.74375 0.0
C2817 C 0.88615 0.77662 0.72053 0.0
C2818 C 0.88048 0.76622 0.73433 0.0
C2819 C 0.89142 0.75604 0.74178 0.0
C2820 C 0.86231 0.76431 0.73928 0.0
C2821 C 0.87515 0.78878 0.71309 0.0
C2822 C 0.85862 0.77387 0.7565 0.0
C2823 C 0.84126 0.77558 0.75909 0.0
C2824 C 0.82793 0.76865 0.74412 0.0
C2825 C 0.83159 0.75787 0.72747 0.0
C2826 C 0.84862 0.75533 0.72525 0.0
H2827 H 0.88346 0.79987 0.70687 0.0
H2828 H 0.86493 0.77977 0.70203 0.0
H2829 H 0.86822 0.79573 0.72435 0.0
H2830 H 0.86919 0.78068 0.76749 0.0
H2831 H 0.83845 0.78286 0.77247 0.0
H2832 H 0.12875 0.04062 0.82739 0.0
H2833 H 0.11691 0.04057 0.85764 0.0
H2834 H 0.12161 0.98289 0.85406 0.0
H2835 H 0.13444 0.98331 0.82387 0.0
H2836 H 0.08897 0.02493 0.86944 0.0
H2837 H 0.14021 0.99915 0.90646 0.0
H2838 H 0.14324 0.00551 0.88401 0.0
H2839 H 0.12965 0.98286 0.88561 0.0
C2840 C 0.12761 0.02791 0.83307 0.0
C2841 C 0.13301 0.01208 0.82286 0.0
C2842 C 0.1206 0.02786 0.85061 0.0
C2843 C 0.11829 0.01187 0.85902 0.0
C2844 C 0.12359 0.99585 0.84878 0.0
H2845 H 0.04836 1.0019 0.95328 0.0
H2846 H 0.06108 0.99796 0.92312 0.0
C2847 C 0.13097 0.99602 0.83122 0.0
C2848 C 0.10995 0.01225 0.87793 0.0
H2849 H 0.11488 0.00306 0.9224 0.0
C2850 C 0.0948 0.02007 0.88088 0.0
C2851 C 0.11711 0.00609 0.8935 0.0
C2852 C 0.13353 0.99809 0.89237 0.0
C2853 C 0.08695 0.02188 0.89823 0.0
C2854 C 0.09407 0.0157 0.91367 0.0
C2855 C 0.10915 0.00785 0.91084 0.0
C2856 C 0.08626 0.0177 0.93277 0.0
C2857 C 0.07121 0.03098 0.9001 0.0
C2858 C 0.09589 0.02988 0.949 0.0
C2859 C 0.08843 0.03238 0.96648 0.0
C2860 C 0.071 0.02261 0.96871 0.0
C2861 C 0.0616 0.01001 0.95253 0.0
C2862 C 0.06898 0.0077 0.93501 0.0
H2863 H 0.06893 0.0378 0.88814 0.0
H2864 H 0.05906 0.02004 0.90073 0.0
H2865 H 0.07319 0.04181 0.91326 0.0
H2866 H 0.1092 0.03787 0.94809 0.0
H2867 H 0.09636 0.04223 0.97827 0.0
H2868 H 0.80565 0.36916 0.54844 0.0
H2869 H 0.80893 0.35532 0.57596 0.0
H2870 H 0.83141 0.4109 0.60936 0.0
H2871 H 0.82811 0.42494 0.58204 0.0
H2872 H 0.84041 0.35953 0.60233 0.0
H2873 H 0.78509 0.38886 0.63328 0.0
H2874 H 0.78876 0.38716 0.60887 0.0
H2875 H 0.80303 0.40526 0.62628 0.0
C2876 C 0.81141 0.3784 0.56161 0.0
C2877 C 0.81626 0.39811 0.56329 0.0
C2878 C 0.81331 0.3705 0.57722 0.0
C2879 C 0.82003 0.38225 0.59454 0.0
C2880 C 0.82588 0.40178 0.59605 0.0
H2881 H 0.84176 0.35578 0.70038 0.0
H2882 H 0.83355 0.37266 0.67661 0.0
C2883 C 0.82397 0.40971 0.58048 0.0
C2884 C 0.81995 0.37408 0.61124 0.0
H2885 H 0.79889 0.37101 0.65079 0.0
C2886 C 0.83137 0.36199 0.61295 0.0
C2887 C 0.80809 0.37753 0.62491 0.0
C2888 C 0.79543 0.39031 0.62329 0.0
C2889 C 0.83124 0.35311 0.6282 0.0
C2890 C 0.81913 0.35624 0.64168 0.0
C2891 C 0.8079 0.36856 0.64015 0.0
C2892 C 0.81876 0.34725 0.65784 0.0
C2893 C 0.84409 0.34052 0.62987 0.0
C2894 C 0.81209 0.32768 0.65537 0.0
C2895 C 0.81667 0.3181 0.6689 0.0
C2896 C 0.828 0.32814 0.68478 0.0
C2897 C 0.83306 0.34794 0.68809 0.0
C2898 C 0.82834 0.35752 0.67465 0.0
H2899 H 0.85454 0.34221 0.62001 0.0
H2900 H 0.85065 0.34364 0.64432 0.0
H2901 H 0.83666 0.3255 0.62673 0.0
H2902 H 0.80471 0.31968 0.64233 0.0
H2903 H 0.81276 0.30277 0.66619 0.0
H2904 H 0.44107 0.06481 0.35262 0.0
H2905 H 0.45234 0.06919 0.38527 0.0
H2906 H 0.45197 0.00963 0.37736 0.0
H2907 H 0.44141 0.00532 0.3443 0.0
H2908 H 0.4501 0.05119 0.41959 0.0
H2909 H 0.50413 0.04135 0.3733 0.0
H2910 H 0.483 0.04463 0.36457 0.0
H2911 H 0.48489 0.02209 0.36948 0.0
C2912 C 0.44299 0.0526 0.35805 0.0
C2913 C 0.44139 0.03496 0.34615 0.0
C2914 C 0.44898 0.05503 0.37669 0.0
C2915 C 0.45317 0.03977 0.3833 0.0
C2916 C 0.44883 0.0215 0.37215 0.0
H2917 H 0.51904 0.01669 0.46034 0.0
H2918 H 0.49977 0.02037 0.43447 0.0
C2919 C 0.44331 0.01915 0.35334 0.0
C2920 C 0.46724 0.04408 0.39832 0.0
H2921 H 0.51142 0.04588 0.40565 0.0
C2922 C 0.46355 0.05019 0.41668 0.0
C2923 C 0.48478 0.04332 0.39402 0.0
C2924 C 0.48953 0.03766 0.37426 0.0
C2925 C 0.47702 0.05435 0.43127 0.0
C2926 C 0.49424 0.05247 0.42695 0.0
C2927 C 0.49811 0.0475 0.40855 0.0
C2928 C 0.50713 0.05104 0.44122 0.0
C2929 C 0.47273 0.0596 0.45121 0.0
C2930 C 0.51799 0.06719 0.45261 0.0
C2931 C 0.52911 0.06508 0.46721 0.0
C2932 C 0.52903 0.04688 0.47018 0.0
C2933 C 0.51903 0.03079 0.45802 0.0
C2934 C 0.50808 0.03287 0.44348 0.0
H2935 H 0.45882 0.06132 0.45208 0.0
H2936 H 0.47469 0.04845 0.45891 0.0
H2937 H 0.48196 0.07303 0.45833 0.0
H2938 H 0.51731 0.08122 0.45064 0.0
H2939 H 0.53679 0.07752 0.47682 0.0
H2940 H 0.82253 0.72921 0.06424 0.0
H2941 H 0.82715 0.74723 0.09679 0.0
H2942 H 0.77144 0.72769 0.10297 0.0
H2943 H 0.76692 0.70942 0.07095 0.0
H2944 H 0.80768 0.77524 0.11984 0.0
H2945 H 0.80083 0.70558 0.1403 0.0
H2946 H 0.80579 0.70909 0.11716 0.0
H2947 H 0.78335 0.70649 0.12359 0.0
C2948 C 0.81123 0.72926 0.07245 0.0
C2949 C 0.79438 0.7179 0.06523 0.0
C2950 C 0.81389 0.73949 0.09099 0.0
C2951 C 0.79965 0.73859 0.10228 0.0
C2952 C 0.78261 0.72842 0.09452 0.0
H2953 H 0.77185 0.74696 0.21183 0.0
H2954 H 0.77389 0.74385 0.17854 0.0
C2955 C 0.78003 0.71801 0.07624 0.0
C2956 C 0.80253 0.74617 0.1227 0.0
H2957 H 0.79776 0.73122 0.16383 0.0
C2958 C 0.80563 0.76575 0.12961 0.0
C2959 C 0.80028 0.73371 0.13532 0.0
C2960 C 0.79755 0.71255 0.12877 0.0
C2961 C 0.80494 0.77311 0.14875 0.0
C2962 C 0.80131 0.76043 0.16123 0.0
C2963 C 0.79986 0.74099 0.15433 0.0
C2964 C 0.79769 0.76626 0.18113 0.0
C2965 C 0.80731 0.79421 0.15508 0.0
C2966 C 0.80945 0.78083 0.19393 0.0
C2967 C 0.80685 0.78398 0.21303 0.0
C2968 C 0.79302 0.77201 0.21979 0.0
C2969 C 0.78143 0.75752 0.20704 0.0
C2970 C 0.78318 0.75527 0.18793 0.0
H2971 H 0.80527 0.80119 0.14319 0.0
H2972 H 0.79795 0.79762 0.16555 0.0
H2973 H 0.82112 0.80035 0.16157 0.0
H2974 H 0.82122 0.78903 0.18945 0.0
H2975 H 0.81664 0.79459 0.22271 0.0
H2976 H 0.1096 0.99633 0.71448 0.0
H2977 H 0.09481 1.00103 0.68559 0.0
H2978 H 0.14604 0.02051 0.66659 0.0
H2979 H 0.16069 0.01516 0.69486 0.0
H2980 H 0.0917 0.02874 0.66861 0.0
H2981 H 0.12588 0.98509 0.61991 0.0
H2982 H 0.12774 0.98555 0.64465 0.0
H2983 H 0.1418 0.00365 0.6351 0.0
C2984 C 0.11778 1.00142 0.70408 0.0
C2985 C 0.13658 0.00502 0.70732 0.0
C2986 C 0.10922 0.00422 0.68737 0.0
C2987 C 0.11899 0.01075 0.67304 0.0
C2988 C 0.13776 0.01478 0.67659 0.0
H2989 H 0.10229 0.03941 0.56253 0.0
H2990 H 0.11254 0.0346 0.59301 0.0
C2991 C 0.14628 0.01183 0.69312 0.0
C2992 C 0.10987 0.0136 0.6547 0.0
H2993 H 0.11136 0.00574 0.6068 0.0
C2994 C 0.09602 0.02355 0.65513 0.0
C2995 C 0.11488 0.00682 0.63659 0.0
C2996 C 0.12823 0.99451 0.63398 0.0
C2997 C 0.08799 0.0276 0.63867 0.0
C2998 C 0.09354 0.0214 0.62065 0.0
C2999 C 0.107 0.01099 0.62024 0.0
C3000 C 0.08639 0.02592 0.60218 0.0
C3001 C 0.074 0.03912 0.641 0.0
C3002 C 0.06799 0.02324 0.59636 0.0
C3003 C 0.062 0.02649 0.57866 0.0
C3004 C 0.07414 0.03225 0.56586 0.0
C3005 C 0.09239 0.03513 0.57182 0.0
C3006 C 0.09834 0.03218 0.58945 0.0
H3007 H 0.07485 0.04731 0.65553 0.0
H3008 H 0.07523 0.04914 0.63129 0.0
H3009 H 0.06063 0.02944 0.63795 0.0
H3010 H 0.05808 0.01793 0.60516 0.0
H3011 H 0.04784 0.02364 0.57466 0.0
H3012 H 0.83058 0.38843 0.47351 0.0
H3013 H 0.83662 0.36611 0.44701 0.0
H3014 H 0.81278 0.39418 0.40912 0.0
H3015 H 0.80654 0.41679 0.43569 0.0
H3016 H 0.80386 0.34498 0.42227 0.0
H3017 H 0.85917 0.37982 0.38577 0.0
H3018 H 0.85723 0.38741 0.41045 0.0
H3019 H 0.84303 0.39334 0.39339 0.0
C3020 C 0.8268 0.39006 0.45955 0.0
C3021 C 0.81762 0.40399 0.45659 0.0
C3022 C 0.83048 0.37745 0.44449 0.0
C3023 C 0.82518 0.37869 0.42633 0.0
C3024 C 0.81713 0.39332 0.42319 0.0
H3025 H 0.78885 0.31973 0.32242 0.0
H3026 H 0.79465 0.33627 0.35509 0.0
C3027 C 0.81343 0.40603 0.4383 0.0
C3028 C 0.82489 0.36274 0.41109 0.0
H3029 H 0.84052 0.3508 0.36895 0.0
C3030 C 0.81217 0.34598 0.4108 0.0
C3031 C 0.83578 0.36437 0.39634 0.0
C3032 C 0.84969 0.38215 0.39645 0.0
C3033 C 0.80923 0.3311 0.39532 0.0
C3034 C 0.81945 0.33313 0.38014 0.0
C3035 C 0.83295 0.34937 0.38092 0.0
C3036 C 0.81395 0.3206 0.362 0.0
C3037 C 0.79442 0.31391 0.3946 0.0
C3038 C 0.8226 0.30606 0.35561 0.0
C3039 C 0.81909 0.29642 0.33703 0.0
C3040 C 0.8072 0.30165 0.32502 0.0
C3041 C 0.798 0.31557 0.33171 0.0
C3042 C 0.80128 0.32494 0.35021 0.0
H3043 H 0.78954 0.3132 0.40855 0.0
H3044 H 0.78312 0.31441 0.38484 0.0
H3045 H 0.79899 0.30079 0.38918 0.0
H3046 H 0.83251 0.30279 0.36471 0.0
H3047 H 0.82632 0.28574 0.3318 0.0
H3048 H 0.45803 0.04454 0.25568 0.0
H3049 H 0.47027 0.03661 0.22595 0.0
H3050 H 0.41957 0.03309 0.19629 0.0
H3051 H 0.40698 0.04098 0.22617 0.0
H3052 H 0.45273 1.00151 0.19409 0.0
H3053 H 0.4622 0.07414 0.17869 0.0
H3054 H 0.46132 0.07047 0.2024 0.0
H3055 H 0.44154 0.06302 0.18656 0.0
C3056 C 0.44947 0.04219 0.24287 0.0
C3057 C 0.43163 0.04358 0.24315 0.0
C3058 C 0.45645 0.03755 0.22597 0.0
C3059 C 0.44574 0.03438 0.20919 0.0
C3060 C 0.42791 0.0356 0.20928 0.0
H3061 H 0.49033 0.01019 0.10277 0.0
H3062 H 0.46963 0.01777 0.12566 0.0
C3063 C 0.42083 0.04017 0.22626 0.0
C3064 C 0.45378 0.03036 0.19169 0.0
H3065 H 0.47655 0.05275 0.16052 0.0
C3066 C 0.45763 0.01252 0.18643 0.0
C3067 C 0.4601 0.04492 0.18203 0.0
C3068 C 0.45616 0.06428 0.1876 0.0
C3069 C 0.46849 0.0091 0.17207 0.0
C3070 C 0.47568 0.02398 0.16313 0.0
C3071 C 0.47104 0.04152 0.16768 0.0
C3072 C 0.48864 0.02157 0.14953 0.0
C3073 C 0.47276 0.98985 0.16693 0.0
C3074 C 0.50613 0.02153 0.15564 0.0
C3075 C 0.51802 0.01727 0.14266 0.0
C3076 C 0.51248 0.01306 0.12348 0.0
C3077 C 0.49499 0.01355 0.11749 0.0
C3078 C 0.48317 0.01787 0.13046 0.0
H3079 H 0.46393 0.97907 0.17308 0.0
H3080 H 0.47149 0.98504 0.1515 0.0
H3081 H 0.48675 0.99081 0.17213 0.0
H3082 H 0.51042 0.02444 0.17044 0.0
H3083 H 0.5315 0.0173 0.14757 0.0
H3084 H 0.81042 0.68808 0.93759 0.0
H3085 H 0.81377 0.6998 0.9086 0.0
H3086 H 0.79519 0.74925 0.93308 0.0
H3087 H 0.79208 0.73775 0.96241 0.0
H3088 H 0.78651 0.70668 0.88671 0.0
H3089 H 0.83997 0.77189 0.91002 0.0
H3090 H 0.83516 0.7537 0.92368 0.0
H3091 H 0.82106 0.77018 0.92348 0.0
C3092 C 0.80721 0.70156 0.93692 0.0
C3093 C 0.80099 0.712 0.9523 0.0
C3094 C 0.80914 0.70822 0.92033 0.0
C3095 C 0.80492 0.72546 0.91876 0.0
C3096 C 0.79887 0.73608 0.93414 0.0
H3097 H 0.79765 0.78326 0.82816 0.0
H3098 H 0.79966 0.7737 0.85816 0.0
C3099 C 0.79701 0.72945 0.95083 0.0
C3100 C 0.80589 0.73159 0.90061 0.0
H3101 H 0.82638 0.76649 0.87909 0.0
C3102 C 0.79531 0.7197 0.885 0.0
C3103 C 0.81727 0.74866 0.89851 0.0
C3104 C 0.82914 0.76181 0.91476 0.0
C3105 C 0.79559 0.72451 0.86734 0.0
C3106 C 0.80716 0.74143 0.86514 0.0
C3107 C 0.81772 0.75338 0.88078 0.0
C3108 C 0.8075 0.74763 0.84701 0.0
C3109 C 0.78303 0.71175 0.85137 0.0
C3110 C 0.81151 0.73629 0.83076 0.0
C3111 C 0.81038 0.74181 0.81349 0.0
C3112 C 0.80569 0.75894 0.81248 0.0
C3113 C 0.80202 0.77037 0.82876 0.0
C3114 C 0.80299 0.76483 0.84588 0.0
H3115 H 0.77207 0.70208 0.85641 0.0
H3116 H 0.77709 0.72016 0.84271 0.0
H3117 H 0.79049 0.70291 0.84231 0.0
H3118 H 0.8153 0.72309 0.8314 0.0
H3119 H 0.81315 0.73279 0.80101 0.0
H3120 H 0.83523 0.13947 0.03048 0.0
H3121 H 0.86447 0.13199 0.02837 0.0
H3122 H 0.84095 0.07332 0.0276 0.0
H3123 H 0.81151 0.08058 0.02963 0.0
H3124 H 0.88367 0.10962 0.0516 0.0
H3125 H 0.86442 0.07921 0.976 0.0
H3126 H 0.8533 0.09568 0.9895 0.0
H3127 H 0.84833 0.07123 0.99139 0.0
C3128 C 0.8363 0.125 0.03009 0.0
C3129 C 0.82114 0.11049 0.02996 0.0
C3130 C 0.85298 0.12085 0.02903 0.0
C3131 C 0.85459 0.1022 0.02776 0.0
C3132 C 0.83971 0.08783 0.02859 0.0
H3133 H 0.91618 0.02522 0.00835 0.0
H3134 H 0.89679 0.04652 0.01933 0.0
C3135 C 0.82299 0.09196 0.02974 0.0
C3136 C 0.87146 0.09727 0.02365 0.0
H3137 H 0.88986 0.07154 0.98968 0.0
C3138 C 0.88528 0.10156 0.03802 0.0
C3139 C 0.87341 0.08726 0.00575 0.0
C3140 C 0.85915 0.0832 0.98969 0.0
C3141 C 0.90062 0.09454 0.03527 0.0
C3142 C 0.90178 0.08313 0.01784 0.0
C3143 C 0.88862 0.08021 0.00308 0.0
C3144 C 0.91502 0.07171 0.01507 0.0
C3145 C 0.91499 0.09834 0.05111 0.0
C3146 C 0.93152 0.07913 0.00924 0.0
C3147 C 0.94247 0.06702 0.00285 0.0
C3148 C 0.93684 0.04744 0.00208 0.0
C3149 C 0.92054 0.04021 0.0085 0.0
C3150 C 0.90969 0.05233 0.01503 0.0
H3151 H 0.91264 0.10868 0.06335 0.0
H3152 H 0.91557 0.08489 0.05557 0.0
H3153 H 0.92813 0.10389 0.04631 0.0
H3154 H 0.93554 0.09406 0.00893 0.0
H3155 H 0.95509 0.07284 0.99799 0.0
H3156 H 0.3624 0.41418 0.05502 0.0
H3157 H 0.39431 0.42967 0.05979 0.0
H3158 H 0.38778 0.4577 0.01405 0.0
H3159 H 0.35622 0.44257 0.00926 0.0
H3160 H 0.42226 0.43065 0.03162 0.0
H3161 H 0.40888 0.50077 0.06107 0.0
H3162 H 0.39299 0.47877 0.06046 0.0
H3163 H 0.39559 0.48847 0.03971 0.0
C3164 C 0.3678 0.42359 0.04595 0.0
C3165 C 0.35665 0.42732 0.03193 0.0
C3166 C 0.38602 0.43239 0.04867 0.0
C3167 C 0.39333 0.44504 0.03743 0.0
C3168 C 0.38236 0.44823 0.02307 0.0
H3169 H 0.48632 0.52106 0.01739 0.0
H3170 H 0.45669 0.50238 0.02053 0.0
C3171 C 0.36427 0.43955 0.02038 0.0
C3172 C 0.41224 0.45559 0.04077 0.0
H3173 H 0.43779 0.50069 0.05115 0.0
C3174 C 0.42577 0.44593 0.03621 0.0
C3175 C 0.41675 0.47551 0.04674 0.0
C3176 C 0.40283 0.48653 0.05245 0.0
C3177 C 0.44356 0.45581 0.03645 0.0
C3178 C 0.44793 0.47586 0.04171 0.0
C3179 C 0.43447 0.48537 0.04704 0.0
C3180 C 0.46602 0.4874 0.04044 0.0
C3181 C 0.45733 0.44481 0.03012 0.0
C3182 C 0.48114 0.48549 0.05083 0.0
C3183 C 0.49807 0.49618 0.049 0.0
C3184 C 0.50007 0.50909 0.03697 0.0
C3185 C 0.48499 0.51133 0.02693 0.0
C3186 C 0.46812 0.50062 0.02868 0.0
H3187 H 0.45115 0.43007 0.02277 0.0
H3188 H 0.46599 0.45189 0.02065 0.0
H3189 H 0.46589 0.4441 0.0425 0.0
H3190 H 0.47986 0.4757 0.06028 0.0
H3191 H 0.50962 0.49418 0.05674 0.0
H3192 H 0.41598 0.64122 0.79315 0.0
H3193 H 0.40038 0.66704 0.79286 0.0
H3194 H 0.36122 0.63025 0.7506 0.0
H3195 H 0.37619 0.60433 0.75166 0.0
H3196 H 0.39293 0.68911 0.77293 0.0
H3197 H 0.32551 0.64871 0.77878 0.0
H3198 H 0.3447 0.63881 0.78123 0.0
H3199 H 0.33419 0.63793 0.75833 0.0
C3200 C 0.40389 0.63843 0.78392 0.0
C3201 C 0.39749 0.62007 0.77265 0.0
C3202 C 0.39483 0.6535 0.78369 0.0
C3203 C 0.37883 0.6512 0.77211 0.0
C3204 C 0.37281 0.63295 0.76047 0.0
H3205 H 0.32861 0.73829 0.7348 0.0
H3206 H 0.34295 0.71236 0.73852 0.0
C3207 C 0.38168 0.61785 0.76091 0.0
C3208 C 0.3689 0.66769 0.77189 0.0
H3209 H 0.32718 0.67834 0.76954 0.0
C3210 C 0.37855 0.68648 0.77231 0.0
C3211 C 0.34992 0.66534 0.77138 0.0
C3212 C 0.338 0.64667 0.77261 0.0
C3213 C 0.37013 0.702 0.7716 0.0
C3214 C 0.35124 0.69938 0.77034 0.0
C3215 C 0.34158 0.68083 0.77033 0.0
C3216 C 0.3415 0.71544 0.76832 0.0
C3217 C 0.38158 0.72142 0.77229 0.0
C3218 C 0.33511 0.7263 0.78362 0.0
C3219 C 0.32648 0.74132 0.78143 0.0
C3220 C 0.32387 0.74625 0.76381 0.0
C3221 C 0.33012 0.7352 0.74862 0.0
C3222 C 0.33853 0.7202 0.75076 0.0
H3223 H 0.39602 0.72168 0.77403 0.0
H3224 H 0.37867 0.72625 0.75921 0.0
H3225 H 0.37834 0.73164 0.78408 0.0
H3226 H 0.33704 0.72338 0.79745 0.0
H3227 H 0.32232 0.74943 0.79368 0.0
H3228 H 0.22937 0.60005 0.48295 0.0
H3229 H 0.19849 0.58267 0.48346 0.0
H3230 H 0.19269 0.62402 0.53171 0.0
H3231 H 0.22282 0.64167 0.53073 0.0
H3232 H 0.18451 0.56703 0.5133 0.0
H3233 H 0.14958 0.62077 0.49658 0.0
H3234 H 0.17251 0.62155 0.4922 0.0
H3235 H 0.1669 0.63139 0.51504 0.0
C3236 C 0.22119 0.60552 0.49329 0.0
C3237 C 0.22806 0.6222 0.50657 0.0
C3238 C 0.2038 0.59561 0.49366 0.0
C3239 C 0.19351 0.60234 0.50746 0.0
C3240 C 0.20043 0.61902 0.52067 0.0
H3241 H 0.09561 0.58718 0.54881 0.0
H3242 H 0.12755 0.58789 0.55074 0.0
C3243 C 0.21754 0.62909 0.52005 0.0
C3244 C 0.17564 0.5919 0.50893 0.0
H3245 H 0.13453 0.59973 0.51516 0.0
C3246 C 0.1734 0.57391 0.51347 0.0
C3247 C 0.16136 0.60099 0.50881 0.0
C3248 C 0.1627 0.61965 0.50268 0.0
C3249 C 0.15718 0.56527 0.51911 0.0
C3250 C 0.14352 0.57526 0.52052 0.0
C3251 C 0.14554 0.59268 0.51496 0.0
C3252 C 0.1258 0.56731 0.52497 0.0
C3253 C 0.15474 0.54588 0.52377 0.0
C3254 C 0.11454 0.5551 0.51021 0.0
C3255 C 0.09661 0.55496 0.50908 0.0
C3256 C 0.08964 0.56618 0.5232 0.0
C3257 C 0.10071 0.57771 0.53844 0.0
C3258 C 0.11877 0.57786 0.53964 0.0
H3259 H 0.16751 0.54126 0.52459 0.0
H3260 H 0.14877 0.54572 0.53727 0.0
H3261 H 0.14541 0.53546 0.51279 0.0
H3262 H 0.11986 0.54754 0.49842 0.0
H3263 H 0.08828 0.54664 0.49676 0.0
H3264 H 0.69679 0.98645 0.77417 0.0
H3265 H 0.70974 0.95941 0.77674 0.0
H3266 H 0.72466 0.95641 0.72024 0.0
H3267 H 0.71283 0.98434 0.71817 0.0
H3268 H 0.70662 0.92307 0.75814 0.0
H3269 H 0.77196 0.96969 0.75089 0.0
H3270 H 0.75194 0.97844 0.75306 0.0
H3271 H 0.75575 0.96477 0.73115 0.0
C3272 C 0.70279 0.97987 0.76235 0.0
C3273 C 0.70446 0.98746 0.74623 0.0
C3274 C 0.70992 0.9644 0.7637 0.0
C3275 C 0.71831 0.9563 0.74874 0.0
C3276 C 0.71852 0.96288 0.73199 0.0
H3277 H 0.79535 0.88972 0.76284 0.0
H3278 H 0.77285 0.90245 0.74801 0.0
C3279 C 0.71195 0.97877 0.73088 0.0
C3280 C 0.72914 0.94309 0.75196 0.0
H3281 H 0.77237 0.94068 0.75863 0.0
C3282 C 0.72098 0.92665 0.75798 0.0
C3283 C 0.74785 0.94817 0.75186 0.0
C3284 C 0.75744 0.96628 0.74655 0.0
C3285 C 0.73125 0.91542 0.76469 0.0
C3286 C 0.74991 0.92092 0.76514 0.0
C3287 C 0.75796 0.93671 0.75816 0.0
C3288 C 0.76178 0.91148 0.77387 0.0
C3289 C 0.72217 0.89817 0.7717 0.0
C3290 C 0.76315 0.91307 0.79332 0.0
C3291 C 0.77613 0.90605 0.80185 0.0
C3292 C 0.78779 0.89765 0.79089 0.0
C3293 C 0.78664 0.89658 0.77149 0.0
C3294 C 0.77364 0.90339 0.76301 0.0
H3295 H 0.70788 0.89346 0.76633 0.0
H3296 H 0.72886 0.8863 0.76754 0.0
H3297 H 0.72298 0.90164 0.7872 0.0
H3298 H 0.75431 0.91984 0.80184 0.0
H3299 H 0.7766 0.90648 0.81676 0.0
H3300 H 0.73226 0.88636 0.54134 0.0
H3301 H 0.70692 0.90137 0.53859 0.0
H3302 H 0.74253 0.9518 0.52971 0.0
H3303 H 0.76786 0.93709 0.53264 0.0
H3304 H 0.71047 0.95098 0.55991 0.0
H3305 H 0.69412 0.91904 0.48398 0.0
H3306 H 0.70208 0.90615 0.50009 0.0
H3307 H 0.71704 0.92563 0.49379 0.0
C3308 C 0.73466 0.90068 0.5389 0.0
C3309 C 0.75202 0.91057 0.5372 0.0
C3310 C 0.72022 0.90922 0.53739 0.0
C3311 C 0.72295 0.92765 0.53398 0.0
C3312 C 0.74025 0.93761 0.53248 0.0
H3313 H 0.67475 0.01163 0.50646 0.0
H3314 H 0.69301 0.99091 0.51551 0.0
C3315 C 0.75468 0.92918 0.53417 0.0
C3316 C 0.70779 0.93644 0.53116 0.0
H3317 H 0.67948 0.94283 0.49678 0.0
C3318 C 0.70343 0.94898 0.54621 0.0
C3319 C 0.69872 0.93373 0.51326 0.0
C3320 C 0.7031 0.9204 0.49676 0.0
C3321 C 0.6906 0.95944 0.5436 0.0
C3322 C 0.68212 0.95735 0.52553 0.0
C3323 C 0.68599 0.94427 0.51064 0.0
C3324 C 0.67082 0.97015 0.52133 0.0
C3325 C 0.68658 0.97324 0.55991 0.0
C3326 C 0.6523 0.96529 0.52175 0.0
C3327 C 0.64173 0.97704 0.51639 0.0
C3328 C 0.64957 0.99377 0.51046 0.0
C3329 C 0.66822 0.99872 0.51059 0.0
C3330 C 0.6787 0.98698 0.5159 0.0
H3331 H 0.69332 0.97224 0.57335 0.0
H3332 H 0.691 0.98789 0.55757 0.0
H3333 H 0.67199 0.97058 0.56097 0.0
H3334 H 0.64603 0.95227 0.52587 0.0
H3335 H 0.62742 0.9727 0.51632 0.0
H3336 H 0.37699 0.50924 0.77512 0.0
H3337 H 0.35922 0.47719 0.77537 0.0
H3338 H 0.4018 0.45295 0.75342 0.0
H3339 H 0.4194 0.48439 0.75324 0.0
H3340 H 0.34618 0.44404 0.74769 0.0
H3341 H 0.39396 0.42781 0.79763 0.0
H3342 H 0.39539 0.45148 0.79365 0.0
H3343 H 0.40395 0.43462 0.7776 0.0
C3344 C 0.38259 0.49712 0.7703 0.0
C3345 C 0.39991 0.49988 0.76426 0.0
C3346 C 0.37235 0.47862 0.77046 0.0
C3347 C 0.37909 0.46219 0.7648 0.0
C3348 C 0.39617 0.46502 0.75839 0.0
H3349 H 0.34683 0.33814 0.75883 0.0
H3350 H 0.36197 0.37081 0.75857 0.0
C3351 C 0.4063 0.48331 0.75818 0.0
C3352 C 0.36856 0.44218 0.76533 0.0
H3353 H 0.37125 0.40185 0.78166 0.0
C3354 C 0.35165 0.43494 0.75529 0.0
C3355 C 0.37545 0.42977 0.77499 0.0
C3356 C 0.3931 0.43633 0.78672 0.0
C3357 C 0.34193 0.41595 0.75415 0.0
C3358 C 0.34878 0.40349 0.76387 0.0
C3359 C 0.36565 0.41089 0.77407 0.0
C3360 C 0.33898 0.38291 0.76355 0.0
C3361 C 0.32471 0.40929 0.7417 0.0
C3362 C 0.32075 0.37796 0.76655 0.0
C3363 C 0.31188 0.35897 0.76628 0.0
C3364 C 0.32087 0.344 0.76348 0.0
C3365 C 0.33918 0.34897 0.76088 0.0
C3366 C 0.34798 0.36792 0.76083 0.0
H3367 H 0.3244 0.41772 0.73064 0.0
H3368 H 0.3226 0.39414 0.73484 0.0
H3369 H 0.31347 0.41113 0.75022 0.0
H3370 H 0.31329 0.38886 0.76953 0.0
H3371 H 0.29799 0.35615 0.76885 0.0
H3372 H 0.20137 0.60054 0.2701 0.0
H3373 H 0.22404 0.63017 0.27956 0.0
H3374 H 0.23915 0.62482 0.22301 0.0
H3375 H 0.21599 0.59551 0.21346 0.0
H3376 H 0.26139 0.63854 0.27714 0.0
H3377 H 0.22398 0.67526 0.2342 0.0
H3378 H 0.21434 0.65242 0.23911 0.0
H3379 H 0.22975 0.65439 0.22155 0.0
C3380 C 0.20943 0.60599 0.25975 0.0
C3381 C 0.20695 0.59647 0.24107 0.0
C3382 C 0.22246 0.62255 0.26516 0.0
C3383 C 0.23314 0.6294 0.25191 0.0
C3384 C 0.23086 0.61961 0.23329 0.0
H3385 H 0.30016 0.73904 0.26633 0.0
H3386 H 0.2971 0.70565 0.26673 0.0
C3387 C 0.21764 0.60318 0.22783 0.0
C3388 C 0.24534 0.64784 0.25729 0.0
H3389 H 0.25018 0.69309 0.2515 0.0
C3390 C 0.25915 0.65052 0.27149 0.0
C3391 C 0.2421 0.6632 0.24978 0.0
C3392 C 0.22667 0.6613 0.23544 0.0
C3393 C 0.2694 0.66867 0.27903 0.0
C3394 C 0.26562 0.68393 0.27192 0.0
C3395 C 0.25273 0.68103 0.25686 0.0
C3396 C 0.27299 0.70352 0.28078 0.0
C3397 C 0.28358 0.67171 0.2949 0.0
C3398 C 0.26102 0.71339 0.28953 0.0
C3399 C 0.26175 0.73186 0.28759 0.0
C3400 C 0.27509 0.74075 0.27785 0.0
C3401 C 0.28899 0.73194 0.27248 0.0
C3402 C 0.28775 0.71315 0.27351 0.0
H3403 H 0.28563 0.65813 0.2981 0.0
H3404 H 0.29634 0.67988 0.29136 0.0
H3405 H 0.27976 0.68023 0.30761 0.0
H3406 H 0.24958 0.70597 0.2953 0.0
H3407 H 0.25145 0.73877 0.29293 0.0
H3408 H 0.51951 0.72809 0.48554 0.0
H3409 H 0.52537 0.70182 0.49947 0.0
H3410 H 0.52052 0.66669 0.44452 0.0
H3411 H 0.51443 0.69264 0.43055 0.0
H3412 H 0.50366 0.66056 0.49366 0.0
H3413 H 0.57182 0.66849 0.47064 0.0
H3414 H 0.56008 0.68744 0.47317 0.0
H3415 H 0.55458 0.6684 0.4531 0.0
C3416 C 0.51948 0.7147 0.47642 0.0
C3417 C 0.51646 0.71257 0.45686 0.0
C3418 C 0.52286 0.69968 0.48443 0.0
C3419 C 0.52358 0.68227 0.47307 0.0
C3420 C 0.52018 0.67999 0.45361 0.0
H3421 H 0.54278 0.57316 0.47282 0.0
H3422 H 0.5398 0.60429 0.46827 0.0
C3423 C 0.51661 0.69487 0.44563 0.0
C3424 C 0.52836 0.66657 0.48126 0.0
H3425 H 0.56011 0.64046 0.48156 0.0
C3426 C 0.5161 0.65631 0.49127 0.0
C3427 C 0.54464 0.66104 0.47827 0.0
C3428 C 0.55866 0.67196 0.46835 0.0
C3429 C 0.51929 0.64013 0.49744 0.0
C3430 C 0.53531 0.63416 0.49379 0.0
C3431 C 0.54784 0.64492 0.48442 0.0
C3432 C 0.53845 0.61569 0.4975 0.0
C3433 C 0.50506 0.62898 0.50697 0.0
C3434 C 0.53932 0.61165 0.51562 0.0
C3435 C 0.54119 0.59366 0.51831 0.0
C3436 C 0.54219 0.57939 0.50289 0.0
C3437 C 0.54198 0.58378 0.48498 0.0
C3438 C 0.54028 0.60164 0.48235 0.0
H3439 H 0.49229 0.63355 0.50589 0.0
H3440 H 0.50263 0.61362 0.50081 0.0
H3441 H 0.50958 0.63102 0.52201 0.0
H3442 H 0.5383 0.62231 0.52764 0.0
H3443 H 0.54125 0.59072 0.53228 0.0
H3444 H 0.64131 0.34562 0.65548 0.0
H3445 H 0.66725 0.34262 0.67467 0.0
H3446 H 0.65409 0.28222 0.65365 0.0
H3447 H 0.62902 0.28549 0.6336 0.0
H3448 H 0.67133 0.32631 0.70227 0.0
H3449 H 0.70465 0.29084 0.64547 0.0
H3450 H 0.68583 0.30066 0.64071 0.0
H3451 H 0.6826 0.27752 0.6465 0.0
C3452 C 0.64419 0.33178 0.65479 0.0
C3453 C 0.6334 0.31585 0.64278 0.0
C3454 C 0.65898 0.33002 0.66583 0.0
C3455 C 0.66313 0.31223 0.66538 0.0
C3456 C 0.65185 0.29623 0.65379 0.0
H3457 H 0.74071 0.26708 0.72161 0.0
H3458 H 0.71601 0.27299 0.70375 0.0
C3459 C 0.63739 0.29807 0.6424 0.0
C3460 C 0.67888 0.31036 0.67735 0.0
H3461 H 0.71537 0.29077 0.67648 0.0
C3462 C 0.68103 0.31867 0.69655 0.0
C3463 C 0.69172 0.30042 0.67009 0.0
C3464 C 0.6912 0.29203 0.64954 0.0
C3465 C 0.69515 0.31685 0.70865 0.0
C3466 C 0.70779 0.30663 0.70141 0.0
C3467 C 0.70575 0.29854 0.68219 0.0
C3468 C 0.72282 0.3034 0.71341 0.0
C3469 C 0.69597 0.32537 0.72919 0.0
C3470 C 0.73517 0.31844 0.72514 0.0
C3471 C 0.74926 0.31496 0.73597 0.0
C3472 C 0.75175 0.29644 0.73484 0.0
C3473 C 0.73957 0.28153 0.72289 0.0
C3474 C 0.72526 0.28493 0.71253 0.0
H3475 H 0.6829 0.32802 0.73324 0.0
H3476 H 0.7002 0.31602 0.73795 0.0
H3477 H 0.70576 0.33918 0.73234 0.0
H3478 H 0.73409 0.33293 0.72576 0.0
H3479 H 0.75846 0.32679 0.74494 0.0
H3480 H 0.05568 0.33479 0.95372 0.0
H3481 H 0.05855 0.36744 0.97017 0.0
H3482 H 0.00278 0.35481 0.97903 0.0
H3483 H 0.00021 0.32173 0.96339 0.0
H3484 H 0.04398 0.39063 0.95726 0.0
H3485 H 0.02129 0.38992 0.02762 0.0
H3486 H 0.0264 0.36936 0.01325 0.0
H3487 H 0.00498 0.37489 0.00982 0.0
C3488 C 0.04419 0.33883 0.95979 0.0
C3489 C 0.02776 0.3257 0.95737 0.0
C3490 C 0.0458 0.35755 0.96913 0.0
C3491 C 0.03091 0.36381 0.97594 0.0
C3492 C 0.01462 0.35042 0.97436 0.0
H3493 H 0.01998 0.47747 0.97334 0.0
H3494 H 0.01614 0.44312 0.96979 0.0
C3495 C 0.01311 0.33147 0.96535 0.0
C3496 C 0.03202 0.38463 0.98212 0.0
H3497 H 0.02157 0.4185 0.01595 0.0
C3498 C 0.03921 0.39663 0.97022 0.0
C3499 C 0.02607 0.39276 0.99913 0.0
C3500 C 0.01944 0.38108 0.01328 0.0
C3501 C 0.04022 0.41621 0.97451 0.0
C3502 C 0.0332 0.42416 0.99086 0.0
C3503 C 0.02656 0.41238 0.00318 0.0
C3504 C 0.0327 0.44465 0.99506 0.0
C3505 C 0.0491 0.42826 0.96154 0.0
C3506 C 0.04224 0.45694 0.0111 0.0
C3507 C 0.04373 0.47657 0.01356 0.0
C3508 C 0.03582 0.48427 0.99994 0.0
C3509 C 0.02583 0.47192 0.98425 0.0
C3510 C 0.02387 0.4523 0.9821 0.0
H3511 H 0.05795 0.42104 0.95273 0.0
H3512 H 0.03876 0.43109 0.95206 0.0
H3513 H 0.0571 0.44204 0.96954 0.0
H3514 H 0.04931 0.45147 0.02123 0.0
H3515 H 0.05206 0.4858 0.02548 0.0
H3516 H 0.02686 0.77168 0.15422 0.0
H3517 H 0.99832 0.77223 0.16667 0.0
H3518 H 0.99683 0.82333 0.14668 0.0
H3519 H 0.02567 0.8227 0.13375 0.0
H3520 H 0.99312 0.80194 0.19435 0.0
H3521 H 0.94554 0.79013 0.13118 0.0
H3522 H 0.96698 0.78404 0.12986 0.0
H3523 H 0.96558 0.80838 0.13343 0.0
C3524 C 0.02047 0.78299 0.15225 0.0
C3525 C 0.02871 0.79726 0.14312 0.0
C3526 C 0.00406 0.78326 0.15939 0.0
C3527 C 0.99534 0.7978 0.15768 0.0
C3528 C 0.00316 0.81181 0.148 0.0
H3529 H 0.90391 0.81149 0.22412 0.0
H3530 H 0.92785 0.81885 0.20375 0.0
C3531 C 0.01968 0.81147 0.14066 0.0
C3532 C 0.97888 0.79864 0.16744 0.0
H3533 H 0.93352 0.79172 0.16035 0.0
C3534 C 0.98014 0.79999 0.18691 0.0
C3535 C 0.96189 0.79613 0.15779 0.0
C3536 C 0.95974 0.79448 0.1369 0.0
C3537 C 0.96494 0.79818 0.19684 0.0
C3538 C 0.94792 0.79486 0.18713 0.0
C3539 C 0.9466 0.79428 0.16777 0.0
C3540 C 0.93154 0.79019 0.19686 0.0
C3541 C 0.96707 0.79907 0.21763 0.0
C3542 C 0.92543 0.77161 0.19942 0.0
C3543 C 0.91192 0.76743 0.21109 0.0
C3544 C 0.90412 0.78173 0.22042 0.0
C3545 C 0.90954 0.80016 0.217 0.0
C3546 C 0.92323 0.80438 0.2054 0.0
H3547 H 0.98124 0.80353 0.22343 0.0
H3548 H 0.95961 0.80913 0.22497 0.0
H3549 H 0.96138 0.7849 0.22058 0.0
H3550 H 0.93168 0.76046 0.19303 0.0
H3551 H 0.90798 0.75308 0.21334 0.0
H3552 H 0.47991 0.32104 0.13069 0.0
H3553 H 0.48701 0.34681 0.11326 0.0
H3554 H 0.53121 0.32456 0.09217 0.0
H3555 H 0.52328 0.2983 0.1081 0.0
H3556 H 0.51524 0.37428 0.11554 0.0
H3557 H 0.50849 0.3298 0.04476 0.0
H3558 H 0.50105 0.32004 0.0646 0.0
H3559 H 0.52407 0.32312 0.05967 0.0
C3560 C 0.49078 0.32151 0.12185 0.0
C3561 C 0.50069 0.30751 0.12009 0.0
C3562 C 0.49492 0.33621 0.11208 0.0
C3563 C 0.50928 0.33721 0.10094 0.0
C3564 C 0.51955 0.32356 0.0999 0.0
H3565 H 0.57222 0.413 0.0426 0.0
H3566 H 0.56127 0.39179 0.06371 0.0
C3567 C 0.51504 0.30859 0.10903 0.0
C3568 C 0.51414 0.35275 0.0908 0.0
H3569 H 0.52642 0.36149 0.04861 0.0
C3570 C 0.5174 0.37153 0.10083 0.0
C3571 C 0.51683 0.34909 0.07157 0.0
C3572 C 0.51222 0.3294 0.05953 0.0
C3573 C 0.52404 0.38672 0.09225 0.0
C3574 C 0.52767 0.38284 0.07339 0.0
C3575 C 0.52392 0.36421 0.06324 0.0
C3576 C 0.53503 0.39782 0.06349 0.0
C3577 C 0.52752 0.40673 0.10334 0.0
C3578 C 0.52379 0.40804 0.05657 0.0
C3579 C 0.52986 0.41981 0.04431 0.0
C3580 C 0.54725 0.42146 0.03883 0.0
C3581 C 0.55866 0.41165 0.04632 0.0
C3582 C 0.55254 0.39982 0.05854 0.0
H3583 H 0.52534 0.40725 0.11831 0.0
H3584 H 0.54141 0.41423 0.10231 0.0
H3585 H 0.51851 0.41448 0.09736 0.0
H3586 H 0.51013 0.40628 0.06002 0.0
H3587 H 0.52075 0.42714 0.03866 0.0
H3588 H 0.03844 0.28936 0.32866 0.0
H3589 H 0.00717 0.29152 0.3244 0.0
H3590 H 0.01497 0.33433 0.375 0.0
H3591 H 0.04601 0.33185 0.37954 0.0
H3592 H 0.97841 0.29128 0.35551 0.0
H3593 H 0.00092 0.35532 0.32492 0.0
H3594 H 0.01412 0.33786 0.32504 0.0
H3595 H 0.01245 0.35363 0.34638 0.0
C3596 C 0.03328 0.29896 0.33892 0.0
C3597 C 0.04422 0.31036 0.35441 0.0
C3598 C 0.01557 0.3001 0.33659 0.0
C3599 C 0.00901 0.31292 0.34955 0.0
C3600 C 0.01992 0.32416 0.36514 0.0
H3601 H 0.91407 0.34974 0.31976 0.0
H3602 H 0.93813 0.34578 0.34091 0.0
C3603 C 0.03749 0.32277 0.36765 0.0
C3604 C 0.99131 0.31598 0.34558 0.0
H3605 H 0.97026 0.34358 0.32437 0.0
C3606 C 0.97649 0.30283 0.34896 0.0
C3607 C 0.98918 0.33116 0.33716 0.0
C3608 C 0.00495 0.34533 0.33304 0.0
C3609 C 0.95928 0.30411 0.34333 0.0
C3610 C 0.9572 0.31878 0.33409 0.0
C3611 C 0.97204 0.33246 0.33164 0.0
C3612 C 0.94026 0.31892 0.32433 0.0
C3613 C 0.94354 0.28955 0.34676 0.0
C3614 C 0.93361 0.30501 0.30824 0.0
C3615 C 0.92022 0.30743 0.29611 0.0
C3616 C 0.91353 0.3238 0.3 0.0
C3617 C 0.91949 0.33724 0.31651 0.0
C3618 C 0.93291 0.33485 0.32864 0.0
H3619 H 0.94688 0.2827 0.35836 0.0
H3620 H 0.93206 0.29605 0.3501 0.0
H3621 H 0.93944 0.27837 0.33392 0.0
H3622 H 0.93947 0.29285 0.30455 0.0
H3623 H 0.9154 0.29681 0.2835 0.0
H3624 H 0.98506 0.71522 0.6042 0.0
H3625 H 0.98443 0.68558 0.58256 0.0
H3626 H 0.98097 0.6561 0.62839 0.0
H3627 H 0.98181 0.68568 0.65022 0.0
H3628 H 0.0166 0.67207 0.59913 0.0
H3629 H 0.95326 0.61761 0.57738 0.0
H3630 H 0.95403 0.64273 0.58124 0.0
H3631 H 0.95658 0.63174 0.60079 0.0
C3632 C 0.98329 0.70228 0.60956 0.0
C3633 C 0.98407 0.70269 0.62887 0.0
C3634 C 0.98281 0.68539 0.59717 0.0
C3635 C 0.98275 0.66893 0.60406 0.0
C3636 C 0.98087 0.66879 0.62296 0.0
H3637 H 0.02072 0.56779 0.57106 0.0
H3638 H 0.00931 0.59405 0.58826 0.0
C3639 C 0.98156 0.68568 0.63539 0.0
C3640 C 0.99014 0.65417 0.59334 0.0
H3641 H 0.98015 0.60809 0.57092 0.0
C3642 C 0.00867 0.65811 0.59271 0.0
C3643 C 0.97963 0.63611 0.58553 0.0
C3644 C 0.95973 0.63166 0.58613 0.0
C3645 C 0.01709 0.64413 0.58452 0.0
C3646 C 0.00654 0.62604 0.57664 0.0
C3647 C 0.98802 0.62211 0.57716 0.0
C3648 C 0.01444 0.61108 0.56718 0.0
C3649 C 0.03713 0.64858 0.58469 0.0
C3650 C 0.02113 0.61243 0.54996 0.0
C3651 C 0.02747 0.59759 0.54022 0.0
C3652 C 0.02702 0.58131 0.54757 0.0
C3653 C 0.02088 0.58023 0.56513 0.0
C3654 C 0.01444 0.59508 0.57488 0.0
H3655 H 0.04346 0.66203 0.59453 0.0
H3656 H 0.04261 0.63694 0.58864 0.0
H3657 H 0.04085 0.64994 0.57046 0.0
H3658 H 0.0212 0.62483 0.54399 0.0
H3659 H 0.03294 0.59898 0.52713 0.0
H3660 H 0.65473 0.83962 0.87518 0.0
H3661 H 0.67675 0.84765 0.85323 0.0
H3662 H 0.66241 0.78974 0.82249 0.0
H3663 H 0.6397 0.78218 0.84362 0.0
H3664 H 0.70474 0.8369 0.84567 0.0
H3665 H 0.66232 0.81525 0.77977 0.0
H3666 H 0.653 0.81847 0.80203 0.0
H3667 H 0.65723 0.79581 0.79147 0.0
C3668 C 0.65652 0.82866 0.86378 0.0
C3669 C 0.64585 0.81028 0.86096 0.0
C3670 C 0.66882 0.83331 0.85114 0.0
C3671 C 0.67062 0.81952 0.83575 0.0
C3672 C 0.66055 0.80088 0.83365 0.0
H3673 H 0.74645 0.77578 0.80878 0.0
H3674 H 0.72016 0.78854 0.81445 0.0
C3675 C 0.64796 0.7964 0.84595 0.0
C3676 C 0.68436 0.82367 0.82296 0.0
H3677 H 0.69225 0.80572 0.77861 0.0
C3678 C 0.70196 0.831 0.83081 0.0
C3679 C 0.68086 0.81674 0.80343 0.0
C3680 C 0.66225 0.81139 0.79375 0.0
C3681 C 0.71608 0.82837 0.82022 0.0
C3682 C 0.71225 0.81766 0.8018 0.0
C3683 C 0.69497 0.81335 0.79302 0.0
C3684 C 0.72478 0.8066 0.79417 0.0
C3685 C 0.73486 0.83471 0.82952 0.0
C3686 C 0.73502 0.8116 0.77992 0.0
C3687 C 0.74939 0.80334 0.77587 0.0
C3688 C 0.75371 0.79046 0.78637 0.0
C3689 C 0.7429 0.78493 0.79998 0.0
C3690 C 0.72811 0.79247 0.8034 0.0
H3691 H 0.73619 0.84721 0.84107 0.0
H3692 H 0.73832 0.82307 0.83558 0.0
H3693 H 0.74452 0.83827 0.81926 0.0
H3694 H 0.73265 0.82265 0.77289 0.0
H3695 H 0.75799 0.80823 0.76569 0.0
H3696 H 0.44887 0.53647 0.70833 0.0
H3697 H 0.4644 0.53434 0.67978 0.0
H3698 H 0.47984 0.59527 0.68974 0.0
H3699 H 0.46559 0.59717 0.71906 0.0
H3700 H 0.46171 0.54083 0.64853 0.0
H3701 H 0.52588 0.59018 0.6755 0.0
H3702 H 0.50945 0.58305 0.69092 0.0
H3703 H 0.50792 0.60195 0.67879 0.0
C3704 C 0.45579 0.54944 0.70458 0.0
C3705 C 0.45598 0.56699 0.71639 0.0
C3706 C 0.46475 0.54825 0.68799 0.0
C3707 C 0.47407 0.56458 0.68208 0.0
C3708 C 0.47377 0.58218 0.69376 0.0
H3709 H 0.52748 0.58162 0.57745 0.0
H3710 H 0.51373 0.58583 0.60732 0.0
C3711 C 0.46528 0.58333 0.71067 0.0
C3712 C 0.48321 0.563 0.66356 0.0
H3713 H 0.52049 0.58084 0.64244 0.0
C3714 C 0.47466 0.54957 0.64751 0.0
C3715 C 0.50024 0.57421 0.66132 0.0
C3716 C 0.51148 0.588 0.67759 0.0
C3717 C 0.48213 0.54726 0.62997 0.0
C3718 C 0.49903 0.55856 0.62771 0.0
C3719 C 0.50757 0.5721 0.64363 0.0
C3720 C 0.50805 0.55623 0.60924 0.0
C3721 C 0.4714 0.53283 0.6138 0.0
C3722 C 0.5102 0.53837 0.59991 0.0
C3723 C 0.51782 0.53593 0.5826 0.0
C3724 C 0.52411 0.55125 0.57379 0.0
C3725 C 0.52276 0.56933 0.58346 0.0
C3726 C 0.51482 0.57175 0.60074 0.0
H3727 H 0.45698 0.52979 0.61583 0.0
H3728 H 0.47316 0.53767 0.60039 0.0
H3729 H 0.47584 0.51935 0.61278 0.0
H3730 H 0.50609 0.5261 0.60609 0.0
H3731 H 0.51912 0.52189 0.57638 0.0
H3732 H 0.77609 0.14794 0.95407 0.0
H3733 H 0.77047 0.16222 0.9276 0.0
H3734 H 0.79952 0.21678 0.95857 0.0
H3735 H 0.8046 0.2026 0.98566 0.0
H3736 H 0.76558 0.21613 0.94209 0.0
H3737 H 0.80484 0.18032 0.89089 0.0
H3738 H 0.78947 0.165 0.90204 0.0
H3739 H 0.80822 0.18142 0.91574 0.0
C3740 C 0.78176 0.16288 0.95507 0.0
C3741 C 0.79115 0.17418 0.97168 0.0
C3742 C 0.77848 0.17099 0.93996 0.0
C3743 C 0.78496 0.19039 0.94108 0.0
C3744 C 0.79462 0.2017 0.95752 0.0
H3745 H 0.7794 0.26787 0.86865 0.0
H3746 H 0.78965 0.24951 0.88999 0.0
C3747 C 0.79761 0.19364 0.97284 0.0
C3748 C 0.78075 0.19902 0.92542 0.0
H3749 H 0.78656 0.19869 0.87944 0.0
C3750 C 0.77026 0.21245 0.92843 0.0
C3751 C 0.78667 0.19381 0.90761 0.0
C3752 C 0.79804 0.17945 0.90384 0.0
C3753 C 0.76559 0.22098 0.91398 0.0
C3754 C 0.77179 0.21603 0.89631 0.0
C3755 C 0.78204 0.20242 0.89317 0.0
C3756 C 0.76772 0.2252 0.88109 0.0
C3757 C 0.75406 0.23521 0.91757 0.0
C3758 C 0.75241 0.21711 0.8688 0.0
C3759 C 0.7465 0.22754 0.85676 0.0
C3760 C 0.75593 0.24606 0.85691 0.0
C3761 C 0.772 0.25356 0.86827 0.0
C3762 C 0.77783 0.24316 0.88041 0.0
H3763 H 0.74907 0.23623 0.93164 0.0
H3764 H 0.76185 0.24938 0.91646 0.0
H3765 H 0.74248 0.2313 0.90685 0.0
H3766 H 0.74453 0.20321 0.86929 0.0
H3767 H 0.73415 0.22151 0.84795 0.0
H3768 H 0.15239 0.49436 0.17147 0.0
H3769 H 0.13076 0.49637 0.1467 0.0
H3770 H 0.1492 0.55726 0.15834 0.0
H3771 H 0.17147 0.55509 0.18227 0.0
H3772 H 0.10511 0.51501 0.15762 0.0
H3773 H 0.14093 0.54537 0.1022 0.0
H3774 H 0.15177 0.53544 0.1191 0.0
H3775 H 0.14784 0.55888 0.12544 0.0
C3776 C 0.15233 0.50798 0.16794 0.0
C3777 C 0.16348 0.52454 0.17826 0.0
C3778 C 0.13999 0.50917 0.15404 0.0
C3779 C 0.13851 0.52695 0.15086 0.0
C3780 C 0.15049 0.54342 0.16038 0.0
H3781 H 0.06373 0.55501 0.07825 0.0
H3782 H 0.07896 0.55725 0.10892 0.0
C3783 C 0.16315 0.54218 0.17395 0.0
C3784 C 0.12289 0.52839 0.13967 0.0
H3785 H 0.10986 0.5429 0.10094 0.0
C3786 C 0.10608 0.52111 0.1452 0.0
C3787 C 0.12443 0.5367 0.12382 0.0
C3788 C 0.14221 0.5444 0.11718 0.0
C3789 C 0.09056 0.52132 0.13474 0.0
C3790 C 0.09213 0.52912 0.11865 0.0
C3791 C 0.1089 0.53712 0.11355 0.0
C3792 C 0.07694 0.52707 0.10528 0.0
C3793 C 0.07267 0.51291 0.14064 0.0
C3794 C 0.0699 0.50918 0.0939 0.0
C3795 C 0.06118 0.50789 0.07646 0.0
C3796 C 0.05986 0.5245 0.07055 0.0
C3797 C 0.06504 0.54213 0.08275 0.0
C3798 C 0.07345 0.5434 0.10024 0.0
H3799 H 0.07356 0.5117 0.15555 0.0
H3800 H 0.06294 0.52161 0.1384 0.0
H3801 H 0.06752 0.49852 0.13198 0.0
H3802 H 0.07283 0.49652 0.09759 0.0
H3803 H 0.05701 0.49424 0.06702 0.0
H3804 H 0.81166 0.88149 0.4595 0.0
H3805 H 0.81278 0.86179 0.429 0.0
H3806 H 0.7837 0.81279 0.44734 0.0
H3807 H 0.78286 0.83256 0.4784 0.0
H3808 H 0.82528 0.82222 0.42153 0.0
H3809 H 0.75625 0.82424 0.39689 0.0
H3810 H 0.76924 0.84298 0.41494 0.0
H3811 H 0.76112 0.81998 0.41992 0.0
C3812 C 0.80557 0.8665 0.45712 0.0
C3813 C 0.79709 0.85854 0.47126 0.0
C3814 C 0.80631 0.85527 0.43973 0.0
C3815 C 0.79836 0.8359 0.43599 0.0
C3816 C 0.79001 0.82773 0.45008 0.0
H3817 H 0.79735 0.77503 0.31876 0.0
H3818 H 0.79773 0.7783 0.35299 0.0
C3819 C 0.78954 0.83898 0.46774 0.0
C3820 C 0.79824 0.82484 0.41687 0.0
H3821 H 0.77457 0.81426 0.37411 0.0
C3822 C 0.81403 0.81989 0.41121 0.0
C3823 C 0.78359 0.82209 0.40349 0.0
C3824 C 0.76652 0.82756 0.40895 0.0
C3825 C 0.81582 0.81314 0.39226 0.0
C3826 C 0.80154 0.81147 0.37881 0.0
C3827 C 0.78543 0.81541 0.38458 0.0
C3828 C 0.80398 0.80893 0.35866 0.0
C3829 C 0.83328 0.809 0.38647 0.0
C3830 C 0.80788 0.82505 0.35076 0.0
C3831 C 0.80762 0.82323 0.33146 0.0
C3832 C 0.80369 0.80527 0.31968 0.0
C3833 C 0.80074 0.78904 0.32761 0.0
C3834 C 0.80085 0.79088 0.34707 0.0
H3835 H 0.84257 0.8093 0.39868 0.0
H3836 H 0.83092 0.7949 0.37701 0.0
H3837 H 0.83967 0.81969 0.37857 0.0
H3838 H 0.81032 0.83907 0.35953 0.0
H3839 H 0.80976 0.83592 0.32563 0.0
H3840 H 0.44943 0.57839 0.84528 0.0
H3841 H 0.46214 0.57621 0.87639 0.0
H3842 H 0.49582 0.54159 0.84987 0.0
H3843 H 0.48387 0.54407 0.81949 0.0
H3844 H 0.46269 0.54783 0.89468 0.0
H3845 H 0.53338 0.57551 0.88648 0.0
H3846 H 0.51581 0.57718 0.87011 0.0
H3847 H 0.52362 0.55559 0.86824 0.0
C3848 C 0.45969 0.57051 0.84602 0.0
C3849 C 0.46549 0.56164 0.82928 0.0
C3850 C 0.46704 0.56919 0.86402 0.0
C3851 C 0.48058 0.55908 0.86609 0.0
C3852 C 0.48607 0.55012 0.84935 0.0
H3853 H 0.54229 0.53036 0.96104 0.0
H3854 H 0.53061 0.53402 0.93016 0.0
C3855 C 0.47889 0.55147 0.8316 0.0
C3856 C 0.48839 0.55695 0.88529 0.0
H3857 H 0.52761 0.55933 0.91164 0.0
C3858 C 0.47691 0.55058 0.89834 0.0
C3859 C 0.50704 0.56007 0.89058 0.0
C3860 C 0.52067 0.56763 0.87819 0.0
C3861 C 0.48321 0.54681 0.91565 0.0
C3862 C 0.50188 0.55014 0.92111 0.0
C3863 C 0.51338 0.55658 0.90805 0.0
C3864 C 0.50955 0.54755 0.94026 0.0
C3865 C 0.4694 0.53838 0.92743 0.0
C3866 C 0.50243 0.55414 0.95696 0.0
C3867 C 0.50854 0.55115 0.97446 0.0
C3868 C 0.52282 0.54219 0.97671 0.0
C3869 C 0.53091 0.53665 0.96024 0.0
C3870 C 0.52425 0.53903 0.94238 0.0
H3871 H 0.45706 0.53018 0.91867 0.0
H3872 H 0.47436 0.52883 0.93543 0.0
H3873 H 0.46567 0.54997 0.93733 0.0
H3874 H 0.49202 0.56187 0.95667 0.0
H3875 H 0.50201 0.55631 0.98649 0.0
H3876 H 0.74774 0.15169 0.08534 0.0
H3877 H 0.74594 0.17549 0.11303 0.0
H3878 H 0.79811 0.20739 0.10622 0.0
H3879 H 0.79978 0.18404 0.0783 0.0
H3880 H 0.76762 0.18914 0.146 0.0
H3881 H 0.76739 0.24592 0.10602 0.0
H3882 H 0.76373 0.22124 0.09488 0.0
H3883 H 0.78599 0.23511 0.10213 0.0
C3884 C 0.75888 0.16369 0.08991 0.0
C3885 C 0.77379 0.16629 0.07965 0.0
C3886 C 0.75779 0.17726 0.10559 0.0
C3887 C 0.77165 0.19338 0.11114 0.0
C3888 C 0.78704 0.19532 0.10165 0.0
H3889 H 0.81089 0.28028 0.20233 0.0
H3890 H 0.803 0.26106 0.17089 0.0
C3891 C 0.78803 0.18195 0.08586 0.0
C3892 C 0.77019 0.20831 0.12691 0.0
H3893 H 0.7741 0.25598 0.13935 0.0
C3894 C 0.76867 0.20369 0.14457 0.0
C3895 C 0.77145 0.22719 0.12477 0.0
C3896 C 0.77204 0.23264 0.10588 0.0
C3897 C 0.76951 0.21779 0.16046 0.0
C3898 C 0.77167 0.2368 0.1584 0.0
C3899 C 0.77241 0.24132 0.14069 0.0
C3900 C 0.7751 0.25221 0.17481 0.0
C3901 C 0.76904 0.21244 0.17943 0.0
C3902 C 0.76176 0.2543 0.18675 0.0
C3903 C 0.76626 0.26523 0.20468 0.0
C3904 C 0.7841 0.27421 0.21065 0.0
C3905 C 0.79708 0.27372 0.19796 0.0
C3906 C 0.79258 0.26268 0.18006 0.0
H3907 H 0.76958 0.19739 0.17868 0.0
H3908 H 0.78038 0.22155 0.18915 0.0
H3909 H 0.75656 0.21467 0.18545 0.0
H3910 H 0.74818 0.24634 0.18273 0.0
H3911 H 0.75604 0.26559 0.21429 0.0
H3912 H 0.14349 0.5705 0.28749 0.0
H3913 H 0.13682 0.57094 0.3199 0.0
H3914 H 0.15954 0.52239 0.32046 0.0
H3915 H 0.16681 0.52223 0.28823 0.0
H3916 H 0.11387 0.53304 0.32226 0.0
H3917 H 0.17271 0.55878 0.37533 0.0
H3918 H 0.17219 0.56829 0.35429 0.0
H3919 H 0.17406 0.5443 0.35285 0.0
C3920 C 0.14729 0.56014 0.29465 0.0
C3921 C 0.1552 0.54605 0.28539 0.0
C3922 C 0.1438 0.5606 0.31316 0.0
C3923 C 0.14788 0.54678 0.3224 0.0
C3924 C 0.15668 0.53335 0.31356 0.0
H3925 H 0.07691 0.52263 0.40775 0.0
H3926 H 0.10056 0.51758 0.3875 0.0
C3927 C 0.16053 0.53312 0.29514 0.0
C3928 C 0.13895 0.54378 0.33904 0.0
H3929 H 0.14411 0.55365 0.38662 0.0
C3930 C 0.12046 0.53717 0.33635 0.0
C3931 C 0.14785 0.54894 0.35717 0.0
C3932 C 0.16782 0.55547 0.36027 0.0
C3933 C 0.11031 0.53704 0.3515 0.0
C3934 C 0.11902 0.54339 0.3697 0.0
C3935 C 0.13766 0.5488 0.37251 0.0
C3936 C 0.10848 0.54698 0.3854 0.0
C3937 C 0.09025 0.53145 0.34793 0.0
C3938 C 0.10541 0.5652 0.39078 0.0
C3939 C 0.09172 0.56802 0.40186 0.0
C3940 C 0.08117 0.55265 0.40773 0.0
C3941 C 0.08487 0.53459 0.4031 0.0
C3942 C 0.09848 0.53176 0.39192 0.0
H3943 H 0.08565 0.52803 0.33279 0.0
H3944 H 0.08509 0.51886 0.35397 0.0
H3945 H 0.08432 0.54312 0.35485 0.0
H3946 H 0.11295 0.57698 0.38553 0.0
H3947 H 0.08928 0.58211 0.40574 0.0
H3948 H 0.77238 0.83317 0.57003 0.0
H3949 H 0.76619 0.82031 0.59819 0.0
H3950 H 0.81058 0.86236 0.62919 0.0
H3951 H 0.81638 0.87573 0.60132 0.0
H3952 H 0.78465 0.80514 0.62098 0.0
H3953 H 0.77143 0.87131 0.66131 0.0
H3954 H 0.77364 0.86784 0.63653 0.0
H3955 H 0.79312 0.87504 0.65307 0.0
C3956 C 0.7809 0.83959 0.58283 0.0
C3957 C 0.79478 0.85558 0.58351 0.0
C3958 C 0.7773 0.83225 0.59892 0.0
C3959 C 0.78759 0.84069 0.61596 0.0
C3960 C 0.80206 0.85602 0.61639 0.0
H3961 H 0.80087 0.82572 0.72739 0.0
H3962 H 0.80022 0.83549 0.69757 0.0
C3963 C 0.80548 0.86354 0.6004 0.0
C3964 C 0.78321 0.8336 0.63332 0.0
H3965 H 0.77576 0.84809 0.67883 0.0
C3966 C 0.7825 0.81446 0.63358 0.0
C3967 C 0.78014 0.8457 0.6497 0.0
C3968 C 0.77943 0.86606 0.65011 0.0
C3969 C 0.77984 0.80738 0.65006 0.0
C3970 C 0.7776 0.81974 0.66664 0.0
C3971 C 0.77759 0.83865 0.66615 0.0
C3972 C 0.77694 0.81393 0.68504 0.0
C3973 C 0.78026 0.78696 0.64974 0.0
C3974 C 0.76365 0.79893 0.68828 0.0
C3975 C 0.76406 0.79311 0.70547 0.0
C3976 C 0.77778 0.80217 0.71969 0.0
C3977 C 0.79032 0.81799 0.71672 0.0
C3978 C 0.78997 0.82369 0.6996 0.0
H3979 H 0.7857 0.78048 0.63697 0.0
H3980 H 0.78841 0.7857 0.6622 0.0
H3981 H 0.76651 0.7787 0.65 0.0
H3982 H 0.75306 0.79162 0.67748 0.0
H3983 H 0.75377 0.78142 0.70746 0.0
H3984 H 0.7493 0.42886 0.48829 0.0
H3985 H 0.72594 0.44664 0.4858 0.0
H3986 H 0.74131 0.47665 0.54288 0.0
H3987 H 0.76498 0.45967 0.54502 0.0
H3988 H 0.69758 0.44933 0.50594 0.0
H3989 H 0.74329 0.51961 0.5159 0.0
H3990 H 0.75102 0.49791 0.51065 0.0
H3991 H 0.74798 0.50802 0.53439 0.0
C3992 C 0.74736 0.43907 0.5003 0.0
C3993 C 0.75859 0.443 0.51688 0.0
C3994 C 0.73427 0.44928 0.49882 0.0
C3995 C 0.73238 0.46326 0.51398 0.0
C3996 C 0.74305 0.46636 0.53084 0.0
H3997 H 0.66681 0.52552 0.56773 0.0
H3998 H 0.68593 0.50431 0.55535 0.0
C3999 C 0.7563 0.45651 0.53217 0.0
C4000 C 0.71888 0.47434 0.51281 0.0
H4001 H 0.71344 0.51937 0.52568 0.0
C4002 C 0.70096 0.46468 0.50971 0.0
C4003 C 0.72349 0.49434 0.51746 0.0
C4004 C 0.74252 0.50552 0.51957 0.0
C4005 C 0.68746 0.47454 0.51296 0.0
C4006 C 0.69225 0.4943 0.51948 0.0
C4007 C 0.71003 0.50409 0.521 0.0
C4008 C 0.67932 0.50507 0.52642 0.0
C4009 C 0.6683 0.46381 0.51062 0.0
C4010 C 0.66958 0.51232 0.51409 0.0
C4011 C 0.65891 0.5245 0.52109 0.0
C4012 C 0.658 0.52958 0.54048 0.0
C4013 C 0.66764 0.52206 0.55278 0.0
C4014 C 0.67828 0.50983 0.54575 0.0
H4015 H 0.66678 0.44858 0.50428 0.0
H4016 H 0.66289 0.46497 0.52447 0.0
H4017 H 0.66024 0.47015 0.50165 0.0
H4018 H 0.67055 0.50887 0.49916 0.0
H4019 H 0.65152 0.53014 0.51138 0.0
H4020 H 0.24003 0.13273 0.47269 0.0
H4021 H 0.20968 0.11342 0.47114 0.0
H4022 H 0.20018 0.15079 0.52066 0.0
H4023 H 0.22995 0.17073 0.52136 0.0
H4024 H 0.19375 0.09324 0.49316 0.0
H4025 H 0.15653 0.14892 0.48971 0.0
H4026 H 0.18007 0.15279 0.48722 0.0
H4027 H 0.17204 0.15537 0.51011 0.0
C4028 C 0.2313 0.1369 0.48305 0.0
C4029 C 0.23717 0.15334 0.49696 0.0
C4030 C 0.21398 0.12586 0.4822 0.0
C4031 C 0.20234 0.13084 0.49549 0.0
C4032 C 0.2085 0.14701 0.50974 0.0
H4033 H 0.1014 0.08547 0.53097 0.0
H4034 H 0.13067 0.10256 0.52579 0.0
C4035 C 0.22559 0.15834 0.51024 0.0
C4036 C 0.18406 0.11878 0.49495 0.0
H4037 H 0.14042 0.12066 0.49818 0.0
C4038 C 0.18206 0.09921 0.49402 0.0
C4039 C 0.16869 0.12644 0.49591 0.0
C4040 C 0.16942 0.14699 0.49559 0.0
C4041 C 0.16537 0.08735 0.49496 0.0
C4042 C 0.15016 0.0952 0.49672 0.0
C4043 C 0.15207 0.11462 0.49701 0.0
C4044 C 0.13237 0.084 0.4996 0.0
C4045 C 0.16434 0.06667 0.4948 0.0
C4046 C 0.12336 0.06777 0.48656 0.0
C4047 C 0.1065 0.0577 0.48962 0.0
C4048 C 0.09825 0.06383 0.50565 0.0
C4049 C 0.10726 0.08021 0.51848 0.0
C4050 C 0.12407 0.09009 0.51553 0.0
H4051 H 0.17767 0.06385 0.49782 0.0
H4052 H 0.15549 0.06166 0.50521 0.0
H4053 H 0.1588 0.05822 0.48075 0.0
H4054 H 0.12923 0.06301 0.47391 0.0
H4055 H 0.09988 0.04529 0.47932 0.0
H4056 H 0.21928 0.96379 0.74752 0.0
H4057 H 0.23457 0.9378 0.74786 0.0
H4058 H 0.19384 0.91157 0.77885 0.0
H4059 H 0.17802 0.93672 0.77727 0.0
H4060 H 0.25178 0.92347 0.76772 0.0
H4061 H 0.19359 0.86395 0.74777 0.0
H4062 H 0.19193 0.88779 0.74723 0.0
H4063 H 0.1901 0.87904 0.76875 0.0
C4064 C 0.21335 0.95236 0.75422 0.0
C4065 C 0.19699 0.95274 0.76215 0.0
C4066 C 0.2223 0.93724 0.7545 0.0
C4067 C 0.21559 0.92158 0.76291 0.0
C4068 C 0.19945 0.92236 0.77132 0.0
H4069 H 0.258 0.8282 0.79692 0.0
H4070 H 0.2434 0.85367 0.79278 0.0
C4071 C 0.19031 0.93723 0.77066 0.0
C4072 C 0.22556 0.90511 0.76332 0.0
H4073 H 0.21949 0.85672 0.76123 0.0
C4074 C 0.24447 0.90893 0.76602 0.0
C4075 C 0.21683 0.88549 0.76098 0.0
C4076 C 0.19704 0.87879 0.75581 0.0
C4077 C 0.25432 0.89454 0.767 0.0
C4078 C 0.24548 0.87522 0.76549 0.0
C4079 C 0.22668 0.87129 0.76262 0.0
C4080 C 0.25528 0.85918 0.7677 0.0
C4081 C 0.27433 0.90025 0.77017 0.0
C4082 C 0.2672 0.85283 0.75503 0.0
C4083 C 0.27551 0.83754 0.75718 0.0
C4084 C 0.27272 0.82818 0.77242 0.0
C4085 C 0.26093 0.83478 0.78504 0.0
C4086 C 0.25238 0.8496 0.78266 0.0
H4087 H 0.27929 0.91587 0.77377 0.0
H4088 H 0.27919 0.894 0.78157 0.0
H4089 H 0.28011 0.89469 0.75727 0.0
H4090 H 0.26983 0.85941 0.74311 0.0
H4091 H 0.28393 0.83292 0.74671 0.0
H4092 H 0.36367 0.97824 0.99016 0.0
H4093 H 0.39562 0.9804 0.98999 0.0
H4094 H 0.39497 0.9522 0.03673 0.0
H4095 H 0.36282 0.94977 0.03687 0.0
H4096 H 0.41646 0.98909 0.04195 0.0
H4097 H 0.42985 0.94373 0.97747 0.0
H4098 H 0.41144 0.95438 0.97365 0.0
H4099 H 0.40995 0.93807 0.98929 0.0
C4100 C 0.37038 0.97262 0.00045 0.0
C4101 C 0.36107 0.96428 0.01379 0.0
C4102 C 0.38842 0.97333 0.99999 0.0
C4103 C 0.3973 0.9659 0.01299 0.0
C4104 C 0.38806 0.95749 0.02632 0.0
H4105 H 0.5109 1.00049 0.01482 0.0
H4106 H 0.48097 0.98063 0.0096 0.0
C4107 C 0.36992 0.95651 0.02661 0.0
C4108 C 0.41661 0.97115 0.0151 0.0
H4109 H 0.45122 0.97386 0.9881 0.0
C4110 C 0.42432 0.98538 0.0305 0.0
C4111 C 0.42662 0.96599 1.00022 0.0
C4112 C 0.41909 0.94954 0.98431 0.0
C4113 C 0.44145 0.99606 0.03055 0.0
C4114 C 0.4507 0.9925 0.01453 0.0
C4115 C 0.44365 0.97698 0.99995 0.0
C4116 C 0.4681 0.00428 0.01331 0.0
C4117 C 0.44913 0.01137 0.04752 0.0
C4118 C 0.47053 0.02405 0.01616 0.0
C4119 C 0.48759 0.03542 0.02011 0.0
C4120 C 0.50209 0.0269 0.01979 0.0
C4121 C 0.49967 0.00718 0.01496 0.0
C4122 C 0.48269 0.99587 0.01186 0.0
H4123 H 0.44266 0.00843 0.06022 0.0
H4124 H 0.46368 0.01283 0.05028 0.0
H4125 H 0.44673 0.02509 0.04513 0.0
H4126 H 0.45923 0.03062 0.0166 0.0
H4127 H 0.48944 0.05066 0.02362 0.0
H4128 H 0.85928 0.56899 0.81275 0.0
H4129 H 0.84369 0.59271 0.80576 0.0
H4130 H 0.89351 0.63403 0.8129 0.0
H4131 H 0.9093 0.61042 0.81986 0.0
H4132 H 0.84276 0.63289 0.82066 0.0
H4133 H 0.87593 0.6188 0.75504 0.0
H4134 H 0.87476 0.60382 0.77202 0.0
H4135 H 0.89016 0.62643 0.77656 0.0
C4136 C 0.86684 0.58335 0.81368 0.0
C4137 C 0.88551 0.58779 0.81631 0.0
C4138 C 0.85791 0.59685 0.80968 0.0
C4139 C 0.86762 0.61482 0.80845 0.0
C4140 C 0.88595 0.62007 0.81366 0.0
H4141 H 0.83077 0.69397 0.75034 0.0
H4142 H 0.84851 0.68 0.77025 0.0
C4143 C 0.8949 0.60659 0.81769 0.0
C4144 C 0.85911 0.62647 0.79842 0.0
H4145 H 0.85582 0.63864 0.75587 0.0
C4146 C 0.84572 0.63443 0.80661 0.0
C4147 C 0.86295 0.62797 0.77996 0.0
C4148 C 0.87663 0.61871 0.77024 0.0
C4149 C 0.83589 0.64388 0.79664 0.0
C4150 C 0.83961 0.64517 0.77818 0.0
C4151 C 0.85322 0.63757 0.77013 0.0
C4152 C 0.82893 0.65358 0.7666 0.0
C4153 C 0.82139 0.65217 0.80564 0.0
C4154 C 0.81239 0.64298 0.75786 0.0
C4155 C 0.80238 0.65077 0.74636 0.0
C4156 C 0.80887 0.66922 0.74368 0.0
C4157 C 0.82556 0.6797 0.75233 0.0
C4158 C 0.83562 0.67185 0.76368 0.0
H4159 H 0.82156 0.65186 0.82078 0.0
H4160 H 0.82285 0.66704 0.80389 0.0
H4161 H 0.80824 0.64399 0.79859 0.0
H4162 H 0.80725 0.62874 0.75997 0.0
H4163 H 0.78944 0.6426 0.73994 0.0
H4164 H 0.83931 0.64952 0.04055 0.0
H4165 H 0.86667 0.63797 0.03854 0.0
H4166 H 0.87167 0.6508 0.98364 0.0
H4167 H 0.84425 0.66288 0.98568 0.0
H4168 H 0.86749 0.60709 0.99705 0.0
H4169 H 0.92356 0.66869 0.02535 0.0
H4170 H 0.90261 0.66821 0.0354 0.0
H4171 H 0.90417 0.67062 0.01155 0.0
C4172 C 0.84636 0.65019 0.02815 0.0
C4173 C 0.83957 0.65689 0.01319 0.0
C4174 C 0.86202 0.6437 0.02709 0.0
C4175 C 0.87111 0.64362 0.01099 0.0
C4176 C 0.86484 0.65096 0.99624 0.0
H4177 H 0.9654 0.59579 0.02033 0.0
H4178 H 0.94558 0.61345 0.00823 0.0
C4179 C 0.84922 0.65779 0.99742 0.0
C4180 C 0.88568 0.63353 0.00909 0.0
H4181 H 0.92878 0.63807 0.0255 0.0
C4182 C 0.88105 0.61386 0.00279 0.0
C4183 C 0.90331 0.64249 0.01634 0.0
C4184 C 0.90888 0.66371 0.02248 0.0
C4185 C 0.89331 0.60269 0.00484 0.0
C4186 C 0.91047 0.61144 0.01397 0.0
C4187 C 0.91555 0.63131 0.01879 0.0
C4188 C 0.92247 0.60019 0.02043 0.0
C4189 C 0.88746 0.58157 0.99774 0.0
C4190 C 0.91617 0.58704 0.03151 0.0
C4191 C 0.92723 0.57644 0.0379 0.0
C4192 C 0.94516 0.57923 0.034 0.0
C4193 C 0.9516 0.59283 0.02327 0.0
C4194 C 0.94034 0.60314 0.01649 0.0
H4195 H 0.87768 0.57822 0.98524 0.0
H4196 H 0.89889 0.5751 0.99406 0.0
H4197 H 0.88073 0.57495 0.00871 0.0
H4198 H 0.90263 0.58499 0.03535 0.0
H4199 H 0.9216 0.566 0.04584 0.0
H4200 H 0.17173 0.08699 0.76608 0.0
H4201 H 0.19003 0.11849 0.76819 0.0
H4202 H 0.2372 0.09759 0.77686 0.0
H4203 H 0.21867 0.06538 0.77429 0.0
H4204 H 0.21057 0.14324 0.79427 0.0
H4205 H 0.25378 0.12706 0.73812 0.0
H4206 H 0.23449 0.10997 0.74178 0.0
H4207 H 0.255 0.11396 0.75631 0.0
C4208 C 0.18601 0.0888 0.76837 0.0
C4209 C 0.19347 0.0731 0.76991 0.0
C4210 C 0.1966 0.10716 0.76963 0.0
C4211 C 0.21529 0.11095 0.77242 0.0
C4212 C 0.22292 0.09539 0.77421 0.0
H4213 H 0.29661 0.21942 0.78208 0.0
H4214 H 0.28109 0.18673 0.78204 0.0
C4215 C 0.21223 0.07681 0.7729 0.0
C4216 C 0.22627 0.1312 0.77382 0.0
H4217 H 0.26065 0.15842 0.75579 0.0
C4218 C 0.22151 0.1464 0.78577 0.0
C4219 C 0.2407 0.13593 0.76288 0.0
C4220 C 0.24623 0.12093 0.74891 0.0
C4221 C 0.23054 0.16561 0.7872 0.0
C4222 C 0.24486 0.17036 0.77615 0.0
C4223 C 0.24981 0.15518 0.76438 0.0
C4224 C 0.25456 0.19083 0.77638 0.0
C4225 C 0.22476 0.18062 0.80096 0.0
C4226 C 0.24523 0.20459 0.77304 0.0
C4227 C 0.25418 0.22345 0.77306 0.0
C4228 C 0.27294 0.2295 0.77631 0.0
C4229 C 0.28228 0.21569 0.77958 0.0
C4230 C 0.2733 0.19676 0.77951 0.0
H4231 H 0.21803 0.17465 0.8123 0.0
H4232 H 0.23624 0.1923 0.80738 0.0
H4233 H 0.2151 0.18661 0.79357 0.0
H4234 H 0.2309 0.20071 0.77007 0.0
H4235 H 0.24625 0.23328 0.77029 0.0
H4236 H 0.39444 0.96736 0.25763 0.0
H4237 H 0.37411 0.93686 0.25672 0.0
H4238 H 0.35282 0.96047 0.3069 0.0
H4239 H 0.37297 0.99124 0.30779 0.0
H4240 H 0.37408 0.91928 0.29206 0.0
H4241 H 0.30906 0.93063 0.26526 0.0
H4242 H 0.32974 0.94464 0.26006 0.0
H4243 H 0.32345 0.94795 0.28349 0.0
C4244 C 0.38526 0.96609 0.2683 0.0
C4245 C 0.38504 0.98151 0.28266 0.0
C4246 C 0.3737 0.9488 0.26775 0.0
C4247 C 0.36199 0.94681 0.28162 0.0
C4248 C 0.36162 0.96213 0.29594 0.0
H4249 H 0.29227 0.8368 0.27858 0.0
H4250 H 0.30185 0.87127 0.28261 0.0
C4251 C 0.37306 0.97954 0.29639 0.0
C4252 C 0.3513 0.92809 0.28164 0.0
H4253 H 0.3111 0.89906 0.2649 0.0
C4254 C 0.36021 0.91482 0.28647 0.0
C4255 C 0.3332 0.92277 0.2748 0.0
C4256 C 0.32316 0.93717 0.27059 0.0
C4257 C 0.35168 0.89582 0.2835 0.0
C4258 C 0.33412 0.89007 0.27461 0.0
C4259 C 0.32475 0.90358 0.27113 0.0
C4260 C 0.32576 0.86999 0.26854 0.0
C4261 C 0.36174 0.88215 0.28967 0.0
C4262 C 0.33515 0.8581 0.25804 0.0
C4263 C 0.3309 0.83892 0.25797 0.0
C4264 C 0.31632 0.8314 0.26706 0.0
C4265 C 0.30469 0.84278 0.27371 0.0
C4266 C 0.30977 0.86228 0.27526 0.0
H4267 H 0.37196 0.88939 0.30147 0.0
H4268 H 0.35265 0.87027 0.2941 0.0
H4269 H 0.36882 0.87627 0.27793 0.0
H4270 H 0.34684 0.86387 0.25157 0.0
H4271 H 0.33936 0.83017 0.2513 0.0
H4272 H 0.55027 0.35666 0.58913 0.0
H4273 H 0.54512 0.38277 0.57512 0.0
H4274 H 0.59869 0.39177 0.55857 0.0
H4275 H 0.60322 0.36436 0.57124 0.0
H4276 H 0.55717 0.41662 0.58411 0.0
H4277 H 0.57665 0.39917 0.51231 0.0
H4278 H 0.57453 0.38246 0.52763 0.0
H4279 H 0.5946 0.40067 0.52942 0.0
C4280 C 0.56084 0.36399 0.58219 0.0
C4281 C 0.5771 0.35835 0.5812 0.0
C4282 C 0.55793 0.37905 0.57418 0.0
C4283 C 0.57137 0.38941 0.56541 0.0
C4284 C 0.58776 0.38381 0.56454 0.0
H4285 H 0.5713 0.50541 0.56468 0.0
H4286 H 0.57644 0.47527 0.56874 0.0
C4287 C 0.59045 0.36821 0.572 0.0
C4288 C 0.5684 0.40677 0.55871 0.0
H4289 H 0.57342 0.43104 0.52281 0.0
C4290 C 0.56053 0.41944 0.57053 0.0
C4291 C 0.57258 0.41081 0.54094 0.0
C4292 C 0.57988 0.39745 0.52678 0.0
C4293 C 0.55685 0.43574 0.56535 0.0
C4294 C 0.56199 0.44039 0.54814 0.0
C4295 C 0.56959 0.42768 0.53606 0.0
C4296 C 0.56061 0.45904 0.54347 0.0
C4297 C 0.54721 0.44771 0.57844 0.0
C4298 C 0.55124 0.46053 0.52693 0.0
C4299 C 0.54895 0.47834 0.52399 0.0
C4300 C 0.55535 0.4948 0.53791 0.0
C4301 C 0.56547 0.49314 0.55386 0.0
C4302 C 0.5684 0.47573 0.55634 0.0
H4303 H 0.53891 0.43916 0.58715 0.0
H4304 H 0.5571 0.459 0.58808 0.0
H4305 H 0.53849 0.45445 0.57065 0.0
H4306 H 0.5454 0.44792 0.5165 0.0
H4307 H 0.54193 0.47912 0.5111 0.0
H4308 H 0.47401 0.78148 0.36564 0.0
H4309 H 0.44491 0.78006 0.35071 0.0
H4310 H 0.42004 0.74955 0.39083 0.0
H4311 H 0.44967 0.75105 0.4063 0.0
H4312 H 0.41843 0.74811 0.33414 0.0
H4313 H 0.39323 0.79291 0.39205 0.0
H4314 H 0.41653 0.79254 0.39168 0.0
H4315 H 0.40105 0.77296 0.39724 0.0
C4316 C 0.46248 0.77441 0.37148 0.0
C4317 C 0.46443 0.76639 0.38736 0.0
C4318 C 0.4457 0.77362 0.3628 0.0
C4319 C 0.43011 0.76489 0.36962 0.0
C4320 C 0.43182 0.75666 0.38539 0.0
H4321 H 0.32086 0.76737 0.32725 0.0
H4322 H 0.34621 0.76228 0.34587 0.0
C4323 C 0.4488 0.75739 0.39417 0.0
C4324 C 0.41241 0.76436 0.35966 0.0
H4325 H 0.37527 0.78284 0.36356 0.0
C4326 C 0.40892 0.75556 0.34066 0.0
C4327 C 0.39981 0.77392 0.36806 0.0
C4328 C 0.40276 0.78375 0.38835 0.0
C4329 C 0.39351 0.75625 0.32982 0.0
C4330 C 0.38133 0.76671 0.33791 0.0
C4331 C 0.38452 0.77496 0.35714 0.0
C4332 C 0.36566 0.76974 0.32658 0.0
C4333 C 0.39046 0.74543 0.30983 0.0
C4334 C 0.36789 0.77604 0.30963 0.0
C4335 C 0.35333 0.77842 0.29878 0.0
C4336 C 0.33614 0.77525 0.30482 0.0
C4337 C 0.33391 0.7698 0.32214 0.0
C4338 C 0.34846 0.76692 0.33281 0.0
H4339 H 0.39668 0.73301 0.30808 0.0
H4340 H 0.37607 0.74034 0.3051 0.0
H4341 H 0.39679 0.75477 0.30062 0.0
H4342 H 0.38098 0.7793 0.30476 0.0
H4343 H 0.35564 0.78322 0.28581 0.0
H4344 H 0.04582 0.73678 0.08571 0.0
H4345 H 0.04201 0.70331 0.07068 0.0
H4346 H 0.09628 0.71466 0.05656 0.0
H4347 H 0.10013 0.74806 0.07182 0.0
H4348 H 0.04719 0.68096 0.03519 0.0
H4349 H 0.0951 0.6784 0.09337 0.0
H4350 H 0.08504 0.69831 0.09322 0.0
H4351 H 0.10328 0.69545 0.07943 0.0
C4352 C 0.0567 0.73223 0.07876 0.0
C4353 C 0.0732 0.74502 0.07969 0.0
C4354 C 0.05454 0.71309 0.07024 0.0
C4355 C 0.06893 0.70635 0.06271 0.0
C4356 C 0.08503 0.71945 0.06243 0.0
H4357 H 0.05953 0.58464 0.01299 0.0
H4358 H 0.06526 0.61916 0.01662 0.0
C4359 C 0.08719 0.73857 0.07098 0.0
C4360 C 0.06783 0.68553 0.05752 0.0
H4361 H 0.08458 0.65028 0.07114 0.0
C4362 C 0.05542 0.67422 0.04294 0.0
C4363 C 0.07834 0.67665 0.06785 0.0
C4364 C 0.09109 0.68774 0.08445 0.0
C4365 C 0.05323 0.65433 0.0385 0.0
C4366 C 0.06394 0.64551 0.04875 0.0
C4367 C 0.07645 0.65693 0.06315 0.0
C4368 C 0.06145 0.62445 0.04615 0.0
C4369 C 0.03899 0.64295 0.02338 0.0
C4370 C 0.05835 0.61581 0.06162 0.0
C4371 C 0.05576 0.59619 0.0597 0.0
C4372 C 0.05605 0.58454 0.04222 0.0
C4373 C 0.0595 0.59314 0.02673 0.0
C4374 C 0.06242 0.61292 0.02872 0.0
H4375 H 0.02919 0.65123 0.02011 0.0
H4376 H 0.04528 0.63876 0.01041 0.0
H4377 H 0.03174 0.62987 0.02752 0.0
H4378 H 0.05755 0.62426 0.07524 0.0
H4379 H 0.05295 0.59004 0.07187 0.0
H4380 H 0.05707 0.23946 0.87953 0.0
H4381 H 0.08468 0.24269 0.86413 0.0
H4382 H 0.10805 0.29302 0.90552 0.0
H4383 H 0.08087 0.28902 0.92159 0.0
H4384 H 0.09994 0.26719 0.84699 0.0
H4385 H 0.14909 0.26975 0.90551 0.0
H4386 H 0.12547 0.26359 0.9074 0.0
H4387 H 0.13714 0.28809 0.91103 0.0
C4388 C 0.06823 0.25103 0.8855 0.0
C4389 C 0.06681 0.26386 0.90188 0.0
C4390 C 0.08405 0.25292 0.87666 0.0
C4391 C 0.09883 0.26792 0.88373 0.0
C4392 C 0.09729 0.28088 0.90004 0.0
H4393 H 0.19334 0.31707 0.83434 0.0
H4394 H 0.16934 0.30978 0.85451 0.0
C4395 C 0.08162 0.27869 0.90917 0.0
C4396 C 0.11526 0.27055 0.87335 0.0
H4397 H 0.16093 0.27995 0.87847 0.0
C4398 C 0.11322 0.26972 0.85394 0.0
C4399 C 0.13279 0.27392 0.8822 0.0
C4400 C 0.13625 0.27369 0.90264 0.0
C4401 C 0.12796 0.27249 0.84335 0.0
C4402 C 0.14541 0.27628 0.85227 0.0
C4403 C 0.14757 0.27709 0.87161 0.0
C4404 C 0.16146 0.28003 0.84169 0.0
C4405 C 0.12479 0.27173 0.82266 0.0
C4406 C 0.16551 0.26562 0.82818 0.0
C4407 C 0.17945 0.26972 0.81686 0.0
C4408 C 0.18953 0.28833 0.81873 0.0
C4409 C 0.18591 0.30257 0.83273 0.0
C4410 C 0.17215 0.29843 0.84421 0.0
H4411 H 0.1108 0.27188 0.81845 0.0
H4412 H 0.13378 0.28388 0.81855 0.0
H4413 H 0.12775 0.25852 0.81478 0.0
H4414 H 0.15752 0.25131 0.82601 0.0
H4415 H 0.18175 0.25854 0.806 0.0
H4416 H 0.56761 0.7459 0.89531 0.0
H4417 H 0.56124 0.71927 0.91135 0.0
H4418 H 0.59629 0.7525 0.9592 0.0
H4419 H 0.60242 0.77931 0.94352 0.0
H4420 H 0.58474 0.69978 0.92597 0.0
H4421 H 0.54915 0.73555 0.98082 0.0
H4422 H 0.5541 0.74426 0.95975 0.0
H4423 H 0.57101 0.74904 0.97895 0.0
C4424 C 0.57387 0.74754 0.9093 0.0
C4425 C 0.58536 0.76468 0.9183 0.0
C4426 C 0.57029 0.73233 0.91834 0.0
C4427 C 0.57817 0.73411 0.93644 0.0
C4428 C 0.58988 0.75107 0.94532 0.0
H4429 H 0.57278 0.67027 0.02209 0.0
H4430 H 0.58271 0.69123 0.00048 0.0
C4431 C 0.59334 0.76633 0.93638 0.0
C4432 C 0.57391 0.7184 0.94631 0.0
H4433 H 0.55674 0.70724 0.98573 0.0
C4434 C 0.57853 0.70126 0.93899 0.0
C4435 C 0.56565 0.72051 0.96312 0.0
C4436 C 0.55952 0.73827 0.97104 0.0
C4437 C 0.57567 0.68627 0.94858 0.0
C4438 C 0.56794 0.68869 0.9657 0.0
C4439 C 0.56293 0.70565 0.97269 0.0
C4440 C 0.56476 0.67402 0.97697 0.0
C4441 C 0.58126 0.66824 0.94062 0.0
C4442 C 0.55172 0.65729 0.97063 0.0
C4443 C 0.54614 0.64534 0.98293 0.0
C4444 C 0.55333 0.6503 0.00166 0.0
C4445 C 0.5669 0.66654 0.00774 0.0
C4446 C 0.57267 0.6783 0.99542 0.0
H4447 H 0.59021 0.67009 0.92934 0.0
H4448 H 0.58813 0.66323 0.95175 0.0
H4449 H 0.56925 0.65706 0.93464 0.0
H4450 H 0.54526 0.654 0.95654 0.0
H4451 H 0.53574 0.63267 0.97806 0.0
H4452 H 0.05074 0.77073 0.69937 0.0
H4453 H 0.07858 0.76479 0.71129 0.0
H4454 H 0.09332 0.7515 0.65503 0.0
H4455 H 0.06528 0.7574 0.64279 0.0
H4456 H 0.09226 0.72914 0.69925 0.0
H4457 H 0.134 0.79686 0.68743 0.0
H4458 H 0.11034 0.79369 0.68926 0.0
H4459 H 0.11832 0.7821 0.66867 0.0
C4460 C 0.05989 0.7666 0.68949 0.0
C4461 C 0.05601 0.76474 0.67017 0.0
C4462 C 0.07569 0.76313 0.69633 0.0
C4463 C 0.08782 0.75787 0.68396 0.0
C4464 C 0.08399 0.75571 0.66466 0.0
H4465 H 0.18889 0.73417 0.71711 0.0
H4466 H 0.16301 0.73759 0.69828 0.0
C4467 C 0.06809 0.75913 0.65776 0.0
C4468 C 0.10476 0.75531 0.69162 0.0
H4469 H 0.14817 0.77819 0.70336 0.0
C4470 C 0.10457 0.73967 0.69995 0.0
C4471 C 0.12056 0.76929 0.69254 0.0
C4472 C 0.12097 0.78653 0.6841 0.0
C4473 C 0.11994 0.73784 0.70963 0.0
C4474 C 0.13561 0.75204 0.71095 0.0
C4475 C 0.13597 0.76742 0.7022 0.0
C4476 C 0.15161 0.75128 0.72198 0.0
C4477 C 0.11938 0.72102 0.71877 0.0
C4478 C 0.15348 0.75799 0.74136 0.0
C4479 C 0.16803 0.75587 0.75212 0.0
C4480 C 0.18081 0.74718 0.74345 0.0
C4481 C 0.17907 0.74087 0.72397 0.0
C4482 C 0.16446 0.74287 0.71326 0.0
H4483 H 0.10633 0.71071 0.71561 0.0
H4484 H 0.13002 0.71371 0.71398 0.0
H4485 H 0.12198 0.72595 0.73416 0.0
H4486 H 0.14354 0.76458 0.74813 0.0
H4487 H 0.1694 0.76109 0.76711 0.0
H4488 H 0.07266 0.36021 0.40703 0.0
H4489 H 0.06917 0.38912 0.42752 0.0
H4490 H 0.1236 0.41597 0.42221 0.0
H4491 H 0.12698 0.38697 0.40111 0.0
H4492 H 0.08998 0.40418 0.46154 0.0
H4493 H 0.0942 0.45501 0.41354 0.0
H4494 H 0.08922 0.42967 0.4053 0.0
H4495 H 0.11172 0.44231 0.41301 0.0
C4496 C 0.08376 0.37244 0.41006 0.0
C4497 C 0.10009 0.37166 0.40279 0.0
C4498 C 0.08177 0.3888 0.4217 0.0
C4499 C 0.09616 0.40444 0.42629 0.0
C4500 C 0.11236 0.40395 0.41853 0.0
H4501 H 0.10087 0.51109 0.50204 0.0
H4502 H 0.11041 0.48262 0.48681 0.0
C4503 C 0.11429 0.38755 0.40659 0.0
C4504 C 0.09435 0.42077 0.44011 0.0
H4505 H 0.09275 0.46708 0.44547 0.0
C4506 C 0.09077 0.41802 0.45816 0.0
C4507 C 0.0951 0.43853 0.43533 0.0
C4508 C 0.0976 0.44162 0.41571 0.0
C4509 C 0.08775 0.43279 0.47166 0.0
C4510 C 0.08873 0.45055 0.46689 0.0
C4511 C 0.09256 0.45339 0.44899 0.0
C4512 C 0.08354 0.46585 0.4793 0.0
C4513 C 0.08306 0.42933 0.49069 0.0
C4514 C 0.0654 0.46533 0.48008 0.0
C4515 C 0.06002 0.48149 0.48818 0.0
C4516 C 0.07278 0.49815 0.49558 0.0
C4517 C 0.09095 0.49833 0.49597 0.0
C4518 C 0.09636 0.48218 0.48756 0.0
H4519 H 0.08539 0.41556 0.49306 0.0
H4520 H 0.09095 0.44091 0.50182 0.0
H4521 H 0.06878 0.42928 0.49196 0.0
H4522 H 0.05544 0.45275 0.47358 0.0
H4523 H 0.04593 0.48101 0.48851 0.0
H4524 H 0.46536 0.2433 0.2196 0.0
H4525 H 0.4355 0.24172 0.22966 0.0
H4526 H 0.41768 0.25367 0.17725 0.0
H4527 H 0.44733 0.25519 0.16693 0.0
H4528 H 0.42723 0.28005 0.22681 0.0
H4529 H 0.37367 0.21659 0.19524 0.0
H4530 H 0.39646 0.21485 0.19974 0.0
H4531 H 0.39058 0.22569 0.18106 0.0
C4532 C 0.45498 0.24511 0.21003 0.0
C4533 C 0.45876 0.25013 0.19284 0.0
C4534 C 0.43794 0.24388 0.21567 0.0
C4535 C 0.42467 0.24756 0.20409 0.0
C4536 C 0.42787 0.25057 0.18616 0.0
H4537 H 0.32652 0.27858 0.22791 0.0
H4538 H 0.35442 0.27775 0.21377 0.0
C4539 C 0.44488 0.2518 0.18049 0.0
C4540 C 0.4098 0.25379 0.21255 0.0
H4541 H 0.36512 0.2421 0.21437 0.0
C4542 C 0.41363 0.27174 0.22431 0.0
C4543 C 0.39224 0.24304 0.20845 0.0
C4544 C 0.38785 0.22392 0.19546 0.0
C4545 C 0.40014 0.27914 0.23259 0.0
C4546 C 0.38265 0.26814 0.22907 0.0
C4547 C 0.37873 0.25037 0.21692 0.0
C4548 C 0.36821 0.274 0.23881 0.0
C4549 C 0.40444 0.29882 0.24441 0.0
C4550 C 0.36722 0.27261 0.2576 0.0
C4551 C 0.35134 0.27296 0.26563 0.0
C4552 C 0.3367 0.27508 0.2549 0.0
C4553 C 0.33799 0.27742 0.23641 0.0
C4554 C 0.35379 0.277 0.22839 0.0
H4555 H 0.41873 0.30588 0.24495 0.0
H4556 H 0.39631 0.30742 0.23847 0.0
H4557 H 0.401 0.29833 0.25889 0.0
H4558 H 0.37827 0.26991 0.26558 0.0
H4559 H 0.35027 0.27095 0.27987 0.0
H4560 H 0.60589 0.51815 0.31468 0.0
H4561 H 0.59459 0.51834 0.34519 0.0
H4562 H 0.64183 0.50333 0.36551 0.0
H4563 H 0.65341 0.50314 0.33455 0.0
H4564 H 0.5855 0.49166 0.36648 0.0
H4565 H 0.64032 0.54814 0.40694 0.0
H4566 H 0.63752 0.5432 0.38171 0.0
H4567 H 0.64696 0.528 0.39384 0.0
C4568 C 0.61408 0.51483 0.3255 0.0
C4569 C 0.63083 0.51072 0.32165 0.0
C4570 C 0.60744 0.51493 0.34321 0.0
C4571 C 0.61723 0.51121 0.35831 0.0
C4572 C 0.63389 0.50671 0.35455 0.0
H4573 H 0.5958 0.52307 0.47935 0.0
H4574 H 0.60887 0.51836 0.44931 0.0
C4575 C 0.64053 0.50641 0.33659 0.0
C4576 C 0.60972 0.51203 0.37756 0.0
H4577 H 0.61753 0.53488 0.42387 0.0
C4578 C 0.59262 0.50112 0.379 0.0
C4579 C 0.61868 0.52416 0.39434 0.0
C4580 C 0.63682 0.53669 0.39425 0.0
C4581 C 0.58455 0.50173 0.3962 0.0
C4582 C 0.59322 0.5144 0.41296 0.0
C4583 C 0.61045 0.52516 0.41149 0.0
C4584 C 0.58482 0.51678 0.43187 0.0
C4585 C 0.56698 0.48804 0.3961 0.0
C4586 C 0.56676 0.51776 0.43308 0.0
C4587 C 0.55908 0.51978 0.45041 0.0
C4588 C 0.56916 0.5217 0.46761 0.0
C4589 C 0.58736 0.52144 0.46659 0.0
C4590 C 0.59494 0.51883 0.44918 0.0
H4591 H 0.56559 0.47516 0.38499 0.0
H4592 H 0.56547 0.48355 0.4097 0.0
H4593 H 0.55597 0.49487 0.39303 0.0
H4594 H 0.55845 0.51737 0.42061 0.0
H4595 H 0.54525 0.52056 0.45032 0.0
H4596 H 0.34555 0.9119 0.06613 0.0
H4597 H 0.35008 0.90059 0.09517 0.0
H4598 H 0.29313 0.88279 0.09589 0.0
H4599 H 0.28865 0.89309 0.06638 0.0
H4600 H 0.33645 0.90773 0.13192 0.0
H4601 H 0.31234 0.83424 0.09046 0.0
H4602 H 0.31847 0.85441 0.07959 0.0
H4603 H 0.29735 0.84961 0.08915 0.0
C4604 C 0.33411 0.9055 0.0726 0.0
C4605 C 0.31682 0.90273 0.06414 0.0
C4606 C 0.33666 0.89937 0.08916 0.0
C4607 C 0.3219 0.89091 0.09738 0.0
C4608 C 0.30459 0.88918 0.08945 0.0
H4609 H 0.3048 0.821 0.17497 0.0
H4610 H 0.30441 0.8481 0.16079 0.0
C4611 C 0.30207 0.89478 0.07265 0.0
C4612 C 0.32457 0.88152 0.11273 0.0
H4613 H 0.31849 0.83772 0.12284 0.0
C4614 C 0.33258 0.89244 0.13008 0.0
C4615 C 0.31959 0.86161 0.1099 0.0
C4616 C 0.3116 0.84924 0.09124 0.0
C4617 C 0.33544 0.88369 0.14501 0.0
C4618 C 0.33023 0.86385 0.14211 0.0
C4619 C 0.32237 0.85304 0.12477 0.0
C4620 C 0.33242 0.85335 0.15664 0.0
C4621 C 0.34371 0.89545 0.16374 0.0
C4622 C 0.34848 0.84779 0.15921 0.0
C4623 C 0.34882 0.83225 0.16741 0.0
C4624 C 0.33304 0.82223 0.17285 0.0
C4625 C 0.31722 0.82859 0.17105 0.0
C4626 C 0.31698 0.84421 0.16324 0.0
H4627 H 0.34602 0.91088 0.16398 0.0
H4628 H 0.33496 0.89199 0.17479 0.0
H4629 H 0.35663 0.89193 0.16715 0.0
H4630 H 0.36037 0.85459 0.1537 0.0
H4631 H 0.3612 0.82779 0.16903 0.0
H4632 H 0.98082 0.5465 0.83455 0.0
H4633 H 0.99241 0.55334 0.8675 0.0
H4634 H 0.93979 0.53235 0.88295 0.0
H4635 H 0.928 0.52575 0.84997 0.0
H4636 H 0.97313 0.57681 0.90099 0.0
H4637 H 0.98131 0.50333 0.90095 0.0
H4638 H 0.9815 0.51196 0.87942 0.0
H4639 H 0.96124 0.50751 0.89042 0.0
C4640 C 0.97184 0.5431 0.84497 0.0
C4641 C 0.95367 0.53557 0.84 0.0
C4642 C 0.97836 0.54724 0.86365 0.0
C4643 C 0.96676 0.54358 0.87731 0.0
C4644 C 0.9487 0.53549 0.87239 0.0
H4645 H 0.00544 0.55853 0.99179 0.0
H4646 H 0.98797 0.56394 0.96551 0.0
C4647 C 0.94211 0.5316 0.85371 0.0
C4648 C 0.97415 0.54735 0.89661 0.0
H4649 H 0.99625 0.52748 0.92581 0.0
C4650 C 0.97794 0.56606 0.90673 0.0
C4651 C 0.98015 0.53309 0.9037 0.0
C4652 C 0.97589 0.51279 0.89316 0.0
C4653 C 0.98874 0.57112 0.92361 0.0
C4654 C 0.99582 0.5571 0.92993 0.0
C4655 C 0.99104 0.53818 0.92039 0.0
C4656 C 0.00827 0.56131 0.9465 0.0
C4657 C 0.99318 0.59135 0.93422 0.0
C4658 C 0.0257 0.55903 0.94444 0.0
C4659 C 0.0356 0.55566 0.95933 0.0
C4660 C 0.0279 0.55439 0.97608 0.0
C4661 C 0.01133 0.55895 0.9787 0.0
C4662 C 0.00148 0.56237 0.96389 0.0
H4663 H 0.98737 0.6008 0.92677 0.0
H4664 H 0.98803 0.59202 0.94818 0.0
H4665 H 0.00785 0.59668 0.93652 0.0
H4666 H 0.03091 0.55803 0.93089 0.0
H4667 H 0.04841 0.55233 0.95717 0.0
H4668 H 0.31957 0.20906 0.57683 0.0
H4669 H 0.32049 0.22807 0.6084 0.0
H4670 H 0.27575 0.24906 0.59058 0.0
H4671 H 0.27503 0.23028 0.55888 0.0
H4672 H 0.31931 0.26999 0.625 0.0
H4673 H 0.26053 0.21303 0.62988 0.0
H4674 H 0.27586 0.21014 0.6123 0.0
H4675 H 0.25991 0.22429 0.61009 0.0
C4676 C 0.31036 0.21827 0.57956 0.0
C4677 C 0.29729 0.21839 0.56557 0.0
C4678 C 0.31092 0.22913 0.59752 0.0
C4679 C 0.29818 0.23994 0.60177 0.0
C4680 C 0.28578 0.24093 0.58748 0.0
H4681 H 0.29208 0.29588 0.71971 0.0
H4682 H 0.29139 0.29178 0.68537 0.0
C4683 C 0.28538 0.23026 0.56944 0.0
C4684 C 0.29598 0.24733 0.62157 0.0
H4685 H 0.27056 0.23664 0.65656 0.0
C4686 C 0.30856 0.26293 0.63194 0.0
C4687 C 0.28209 0.23782 0.63053 0.0
C4688 C 0.26885 0.2203 0.62026 0.0
C4689 C 0.30777 0.26903 0.65128 0.0
C4690 C 0.2939 0.25936 0.66026 0.0
C4691 C 0.28106 0.24417 0.64964 0.0
C4692 C 0.29376 0.26256 0.68092 0.0
C4693 C 0.32226 0.28504 0.6621 0.0
C4694 C 0.29451 0.24736 0.68968 0.0
C4695 C 0.29415 0.24943 0.70892 0.0
C4696 C 0.29337 0.26688 0.72006 0.0
C4697 C 0.29241 0.28219 0.7114 0.0
C4698 C 0.29238 0.27996 0.69187 0.0
H4699 H 0.3333 0.28928 0.65349 0.0
H4700 H 0.31661 0.29754 0.66694 0.0
H4701 H 0.32777 0.28093 0.67464 0.0
H4702 H 0.29561 0.23382 0.68159 0.0
H4703 H 0.29507 0.23742 0.71518 0.0
H4704 H 0.61137 0.50698 0.21898 0.0
H4705 H 0.59639 0.51215 0.19044 0.0
H4706 H 0.64366 0.50935 0.16225 0.0
H4707 H 0.65859 0.50424 0.1906 0.0
H4708 H 0.6022 0.53969 0.16893 0.0
H4709 H 0.60737 0.47267 0.12376 0.0
H4710 H 0.6118 0.47709 0.14884 0.0
H4711 H 0.62872 0.4861 0.13468 0.0
C4712 C 0.61861 0.5073 0.20669 0.0
C4713 C 0.63637 0.50495 0.20745 0.0
C4714 C 0.60996 0.51039 0.1902 0.0
C4715 C 0.61852 0.51095 0.17355 0.0
C4716 C 0.63627 0.50865 0.17439 0.0
H4717 H 0.60146 0.52886 0.05942 0.0
H4718 H 0.61135 0.52404 0.08995 0.0
C4719 C 0.64496 0.50578 0.19088 0.0
C4720 C 0.60923 0.51405 0.15552 0.0
H4721 H 0.60031 0.49612 0.10809 0.0
C4722 C 0.60171 0.53 0.1557 0.0
C4723 C 0.60807 0.50156 0.13787 0.0
C4724 C 0.61423 0.48329 0.13623 0.0
C4725 C 0.59412 0.53414 0.13908 0.0
C4726 C 0.59361 0.52198 0.12134 0.0
C4727 C 0.60066 0.50578 0.12131 0.0
C4728 C 0.58696 0.52612 0.10259 0.0
C4729 C 0.58731 0.55202 0.14063 0.0
C4730 C 0.56969 0.52921 0.09869 0.0
C4731 C 0.56381 0.53195 0.08073 0.0
C4732 C 0.575 0.53181 0.06597 0.0
C4733 C 0.59227 0.52913 0.07014 0.0
C4734 C 0.59803 0.52627 0.08783 0.0
H4735 H 0.59231 0.56204 0.1541 0.0
H4736 H 0.59126 0.55927 0.12897 0.0
H4737 H 0.57256 0.54836 0.13985 0.0
H4738 H 0.56047 0.52894 0.10936 0.0
H4739 H 0.55037 0.53372 0.0783 0.0
H4740 H 0.29327 0.91119 0.93654 0.0
H4741 H 0.29946 0.88954 0.90916 0.0
H4742 H 0.3458 0.88256 0.94033 0.0
H4743 H 0.33908 0.90336 0.96794 0.0
H4744 H 0.32728 0.88729 0.88798 0.0
H4745 H 0.31501 0.82943 0.9283 0.0
H4746 H 0.31071 0.85243 0.93694 0.0
H4747 H 0.33313 0.8491 0.93797 0.0
C4748 C 0.30485 0.90514 0.93736 0.0
C4749 C 0.31545 0.9083 0.95421 0.0
C4750 C 0.30843 0.89292 0.92182 0.0
C4751 C 0.3228 0.88417 0.92304 0.0
C4752 C 0.33436 0.88879 0.9394 0.0
H4753 H 0.33813 0.80467 0.82442 0.0
H4754 H 0.34561 0.82456 0.85587 0.0
C4755 C 0.33053 0.9006 0.95505 0.0
C4756 C 0.3245 0.86886 0.9078 0.0
H4757 H 0.31959 0.82094 0.89667 0.0
C4758 C 0.32597 0.87284 0.88989 0.0
C4759 C 0.32251 0.85004 0.91051 0.0
C4760 C 0.3201 0.8449 0.92942 0.0
C4761 C 0.32476 0.85827 0.87435 0.0
C4762 C 0.32235 0.83948 0.87706 0.0
C4763 C 0.32167 0.83552 0.89497 0.0
C4764 C 0.31816 0.82373 0.86107 0.0
C4765 C 0.32487 0.86281 0.85504 0.0
C4766 C 0.30029 0.81618 0.85438 0.0
C4767 C 0.29603 0.80485 0.83663 0.0
C4768 C 0.30965 0.80107 0.82562 0.0
C4769 C 0.3275 0.80736 0.83295 0.0
C4770 C 0.33177 0.81863 0.85076 0.0
H4771 H 0.32756 0.87829 0.85547 0.0
H4772 H 0.33513 0.85692 0.84735 0.0
H4773 H 0.31176 0.85609 0.84702 0.0
H4774 H 0.28973 0.82036 0.86222 0.0
H4775 H 0.28227 0.80074 0.83093 0.0
H4776 H 0.9068 0.52196 0.73116 0.0
H4777 H 0.92029 0.51315 0.70215 0.0
H4778 H 0.96282 0.56311 0.71865 0.0
H4779 H 0.94979 0.57152 0.74802 0.0
H4780 H 0.93025 0.53134 0.67276 0.0
H4781 H 0.98856 0.51994 0.71293 0.0
H4782 H 0.96847 0.52306 0.72348 0.0
H4783 H 0.98482 0.54328 0.72017 0.0
C4784 C 0.91876 0.53129 0.72829 0.0
C4785 C 0.92731 0.54747 0.74155 0.0
C4786 C 0.92646 0.52619 0.71186 0.0
C4787 C 0.94262 0.53736 0.70858 0.0
C4788 C 0.9505 0.55418 0.72125 0.0
H4789 H 0.01595 0.54555 0.62905 0.0
H4790 H 0.99114 0.54945 0.64796 0.0
C4791 C 0.94302 0.55907 0.73783 0.0
C4792 C 0.95185 0.53098 0.69246 0.0
H4793 H 0.99151 0.52131 0.68091 0.0
C4794 C 0.94356 0.52891 0.67444 0.0
C4795 C 0.96905 0.52752 0.69491 0.0
C4796 C 0.97816 0.52837 0.71392 0.0
C4797 C 0.95258 0.52444 0.65867 0.0
C4798 C 0.97007 0.52205 0.66129 0.0
C4799 C 0.97803 0.52331 0.6792 0.0
C4800 C 0.98118 0.51936 0.64596 0.0
C4801 C 0.94371 0.52275 0.63941 0.0
C4802 C 0.98349 0.50117 0.63873 0.0
C4803 C 0.99782 0.49895 0.62839 0.0
C4804 C 0.00983 0.51496 0.62532 0.0
C4805 C 0.00688 0.5331 0.63164 0.0
C4806 C 0.99263 0.53531 0.64204 0.0
H4807 H 0.92956 0.52373 0.63973 0.0
H4808 H 0.95097 0.53419 0.63287 0.0
H4809 H 0.94438 0.50902 0.63046 0.0
H4810 H 0.97479 0.48882 0.64196 0.0
H4811 H -0.00029 0.48486 0.62305 0.0
H4812 H 0.28629 0.23604 0.46334 0.0
H4813 H 0.28933 0.24926 0.43499 0.0
H4814 H 0.31798 0.20727 0.41216 0.0
H4815 H 0.31451 0.19364 0.44013 0.0
H4816 H 0.31891 0.26417 0.41822 0.0
H4817 H 0.27812 0.19958 0.37145 0.0
H4818 H 0.27907 0.2029 0.39659 0.0
H4819 H 0.29677 0.19536 0.3843 0.0
C4820 C 0.29326 0.22967 0.45228 0.0
C4821 C 0.29999 0.21369 0.45384 0.0
C4822 C 0.295 0.23723 0.43613 0.0
C4823 C 0.30357 0.229 0.42135 0.0
C4824 C 0.3109 0.21351 0.4232 0.0
H4825 H 0.31677 0.24449 0.30825 0.0
H4826 H 0.31937 0.23575 0.33881 0.0
C4827 C 0.30898 0.2058 0.43922 0.0
C4828 C 0.30462 0.23641 0.40388 0.0
H4829 H 0.29297 0.22368 0.35692 0.0
C4830 C 0.31324 0.25537 0.40478 0.0
C4831 C 0.29717 0.22487 0.38642 0.0
C4832 C 0.28712 0.2046 0.3846 0.0
C4833 C 0.315 0.263 0.38858 0.0
C4834 C 0.30756 0.25142 0.37109 0.0
C4835 C 0.29883 0.23251 0.37029 0.0
C4836 C 0.30828 0.25844 0.35337 0.0
C4837 C 0.32514 0.28322 0.39038 0.0
C4838 C 0.30153 0.2743 0.35146 0.0
C4839 C 0.30056 0.2796 0.33414 0.0
C4840 C 0.30575 0.26871 0.3184 0.0
C4841 C 0.31268 0.25302 0.32028 0.0
C4842 C 0.31414 0.24805 0.33769 0.0
H4843 H 0.33474 0.28784 0.40308 0.0
H4844 H 0.33252 0.28514 0.37798 0.0
H4845 H 0.31561 0.29265 0.3917 0.0
H4846 H 0.29636 0.28216 0.36314 0.0
H4847 H 0.2949 0.2916 0.33283 0.0
H4848 H 0.31087 0.58154 0.51272 0.0
H4849 H 0.34054 0.57554 0.50809 0.0
H4850 H 0.36437 0.6279 0.54655 0.0
H4851 H 0.33466 0.63418 0.55091 0.0
H4852 H 0.37793 0.61657 0.50543 0.0
H4853 H 0.37379 0.56649 0.55431 0.0
H4854 H 0.35402 0.5649 0.5394 0.0
H4855 H 0.36235 0.58569 0.55722 0.0
C4856 C 0.32244 0.59147 0.52048 0.0
C4857 C 0.32076 0.60805 0.53243 0.0
C4858 C 0.33926 0.58823 0.51763 0.0
C4859 C 0.35435 0.60141 0.52694 0.0
C4860 C 0.3527 0.61779 0.53919 0.0
H4861 H 0.44944 0.55947 0.5257 0.0
H4862 H 0.43089 0.58175 0.53453 0.0
C4863 C 0.33588 0.62119 0.54183 0.0
C4864 C 0.37179 0.59738 0.52433 0.0
H4865 H 0.39608 0.56628 0.5333 0.0
C4866 C 0.38223 0.60587 0.51174 0.0
C4867 C 0.37716 0.58364 0.53285 0.0
C4868 C 0.36635 0.57467 0.54681 0.0
C4869 C 0.39768 0.59998 0.50659 0.0
C4870 C 0.40233 0.5852 0.5141 0.0
C4871 C 0.39239 0.57762 0.52755 0.0
C4872 C 0.41638 0.57593 0.50724 0.0
C4873 C 0.40861 0.60918 0.49288 0.0
C4874 C 0.41454 0.56565 0.48879 0.0
C4875 C 0.42537 0.55301 0.48353 0.0
C4876 C 0.43795 0.55044 0.49676 0.0
C4877 C 0.4401 0.56135 0.51504 0.0
C4878 C 0.42955 0.57413 0.52016 0.0
H4879 H 0.40666 0.6237 0.49304 0.0
H4880 H 0.42301 0.60993 0.496 0.0
H4881 H 0.40439 0.60066 0.47856 0.0
H4882 H 0.4041 0.56659 0.47878 0.0
H4883 H 0.42361 0.54494 0.46932 0.0
H4884 H 0.86246 0.90994 0.55265 0.0
H4885 H 0.89455 0.92488 0.55701 0.0
H4886 H 0.88652 0.96033 0.51819 0.0
H4887 H 0.8549 0.94577 0.51377 0.0
H4888 H 0.92034 0.92983 0.5256 0.0
H4889 H 0.91125 0.99674 0.5692 0.0
H4890 H 0.89525 0.97447 0.5669 0.0
H4891 H 0.89616 0.98751 0.54841 0.0
C4892 C 0.86756 0.92088 0.54503 0.0
C4893 C 0.85599 0.92677 0.53304 0.0
C4894 C 0.88589 0.92938 0.54752 0.0
C4895 C 0.89285 0.94389 0.53809 0.0
C4896 C 0.8814 0.94937 0.52581 0.0
H4897 H 0.98511 0.02653 0.52616 0.0
H4898 H 0.95573 0.00747 0.52926 0.0
C4899 C 0.86326 0.94098 0.52333 0.0
C4900 C 0.91197 0.95378 0.54097 0.0
H4901 H 0.93908 0.99761 0.55658 0.0
C4902 C 0.92459 0.94456 0.53264 0.0
C4903 C 0.91738 0.97303 0.54997 0.0
C4904 C 0.90436 0.98355 0.55927 0.0
C4905 C 0.9423 0.95438 0.5322 0.0
C4906 C 0.94767 0.97387 0.54086 0.0
C4907 C 0.9351 0.98277 0.54987 0.0
C4908 C 0.96578 0.98566 0.53972 0.0
C4909 C 0.95469 0.94398 0.52147 0.0
C4910 C 0.98139 0.9801 0.54486 0.0
C4911 C 0.99818 0.9908 0.5426 0.0
C4912 C -0.00028 0.00766 0.53593 0.0
C4913 C 0.98425 0.01372 0.5316 0.0
C4914 C 0.96746 0.00277 0.53334 0.0
H4915 H 0.94726 0.93112 0.51144 0.0
H4916 H 0.96331 0.9532 0.51358 0.0
H4917 H 0.96331 0.93934 0.53143 0.0
H4918 H 0.98062 0.96742 0.55048 0.0
H4919 H 0.00998 0.98591 0.54607 0.0
H4920 H 0.87714 0.10614 0.25014 0.0
H4921 H 0.86232 0.13234 0.24943 0.0
H4922 H 0.89807 0.16623 0.29628 0.0
H4923 H 0.91361 0.14049 0.29606 0.0
H4924 H 0.84293 0.15056 0.26596 0.0
H4925 H 0.90267 0.20838 0.27228 0.0
H4926 H 0.90432 0.18406 0.26904 0.0
H4927 H 0.90249 0.19728 0.29204 0.0
C4928 C 0.88207 0.11922 0.26025 0.0
C4929 C 0.89699 0.12072 0.27304 0.0
C4930 C 0.87339 0.13451 0.25989 0.0
C4931 C 0.87889 0.15233 0.27243 0.0
C4932 C 0.89352 0.15355 0.28563 0.0
H4933 H 0.82282 0.25094 0.2936 0.0
H4934 H 0.83784 0.22513 0.29739 0.0
C4935 C 0.90245 0.13839 0.28572 0.0
C4936 C 0.86913 0.16895 0.27182 0.0
H4937 H 0.87524 0.21766 0.27572 0.0
C4938 C 0.8503 0.16512 0.26806 0.0
C4939 C 0.87794 0.18859 0.27438 0.0
C4940 C 0.89795 0.19483 0.27696 0.0
C4941 C 0.84056 0.17956 0.26701 0.0
C4942 C 0.84935 0.19903 0.2699 0.0
C4943 C 0.86807 0.20302 0.27371 0.0
C4944 C 0.83945 0.21501 0.26789 0.0
C4945 C 0.82064 0.1739 0.2627 0.0
C4946 C 0.83481 0.21854 0.25014 0.0
C4947 C 0.82634 0.23352 0.24798 0.0
C4948 C 0.82153 0.24566 0.26338 0.0
C4949 C 0.82576 0.24193 0.28122 0.0
C4950 C 0.83462 0.22707 0.28341 0.0
H4951 H 0.81527 0.15866 0.26252 0.0
H4952 H 0.81416 0.18251 0.2732 0.0
H4953 H 0.81705 0.17683 0.24882 0.0
H4954 H 0.83807 0.20982 0.23774 0.0
H4955 H 0.82365 0.23574 0.23399 0.0
H4956 H 0.72867 0.09668 0.98786 0.0
H4957 H 0.69932 0.07847 0.99224 0.0
H4958 H 0.69018 0.12692 0.03049 0.0
H4959 H 0.71937 0.14533 0.02604 0.0
H4960 H 0.68912 0.07315 0.0302 0.0
H4961 H 0.64559 0.1073 0.99113 0.0
H4962 H 0.66866 0.1086 0.98706 0.0
H4963 H 0.66295 0.12288 0.00755 0.0
C4964 C 0.72021 0.10351 0.99689 0.0
C4965 C 0.72614 0.12227 0.00666 0.0
C4966 C 0.70365 0.09311 0.99948 0.0
C4967 C 0.69298 0.10144 0.01182 0.0
C4968 C 0.69844 0.12044 0.02091 0.0
H4969 H 0.58958 0.07176 0.03476 0.0
H4970 H 0.62113 0.08017 0.04469 0.0
C4971 C 0.71496 0.13091 0.01823 0.0
C4972 C 0.67617 0.09011 0.01543 0.0
H4973 H 0.63163 0.08471 0.00751 0.0
C4974 C 0.67646 0.07557 0.02533 0.0
C4975 C 0.65996 0.09355 0.00894 0.0
C4976 C 0.65915 0.10883 0.99796 0.0
C4977 C 0.66057 0.06431 0.02909 0.0
C4978 C 0.64442 0.06788 0.02264 0.0
C4979 C 0.64424 0.08232 0.01262 0.0
C4980 C 0.62709 0.05684 0.02532 0.0
C4981 C 0.66098 0.04896 0.03999 0.0
C4982 C 0.62001 0.03998 0.01233 0.0
C4983 C 0.60178 0.03483 0.00698 0.0
C4984 C 0.59084 0.04656 0.01473 0.0
C4985 C 0.59777 0.06227 0.02902 0.0
C4986 C 0.61575 0.06697 0.03484 0.0
H4987 H 0.67475 0.04884 0.04506 0.0
H4988 H 0.65304 0.05096 0.05216 0.0
H4989 H 0.65476 0.03497 0.03102 0.0
H4990 H 0.62872 0.03223 0.00464 0.0
H4991 H 0.59649 0.02267 0.99584 0.0
H4992 H 0.20054 0.4888 0.26963 0.0
H4993 H 0.21201 0.46128 0.27387 0.0
H4994 H 0.23232 0.45816 0.2196 0.0
H4995 H 0.22184 0.48654 0.21594 0.0
H4996 H 0.20385 0.42584 0.25348 0.0
H4997 H 0.27563 0.45911 0.25262 0.0
H4998 H 0.25869 0.47264 0.25407 0.0
H4999 H 0.26172 0.45862 0.23205 0.0
C5000 C 0.20773 0.48234 0.25883 0.0
C5001 C 0.21075 0.48965 0.24268 0.0
C5002 C 0.21408 0.46663 0.26113 0.0
C5003 C 0.22307 0.45793 0.24707 0.0
C5004 C 0.22575 0.46506 0.23072 0.0
H5005 H 0.28272 0.3757 0.26553 0.0
H5006 H 0.26332 0.38929 0.2475 0.0
C5007 C 0.21987 0.48115 0.22867 0.0
C5008 C 0.22996 0.44166 0.25 0.0
H5009 H 0.26862 0.4282 0.25784 0.0
C5010 C 0.21798 0.42614 0.25416 0.0
C5011 C 0.24839 0.44231 0.25084 0.0
C5012 C 0.26189 0.45911 0.24732 0.0
C5013 C 0.22411 0.41156 0.26015 0.0
C5014 C 0.24257 0.41261 0.2617 0.0
C5015 C 0.25442 0.4275 0.25638 0.0
C5016 C 0.25034 0.40017 0.27132 0.0
C5017 C 0.21094 0.39562 0.26549 0.0
C5018 C 0.24899 0.40151 0.29054 0.0
C5019 C 0.25992 0.39363 0.30089 0.0
C5020 C 0.27245 0.38458 0.29212 0.0
C5021 C 0.27301 0.38235 0.27264 0.0
C5022 C 0.26197 0.39009 0.2623 0.0
H5023 H 0.1975 0.39371 0.25821 0.0
H5024 H 0.21535 0.38209 0.26221 0.0
H5025 H 0.20981 0.39904 0.28077 0.0
H5026 H 0.24036 0.40971 0.29775 0.0
H5027 H 0.25911 0.39533 0.31584 0.0
H5028 H 0.24946 0.40272 0.00299 0.0
H5029 H 0.22423 0.41771 1.00002 0.0
H5030 H 0.2228 0.42799 0.05997 0.0
H5031 H 0.24865 0.41384 0.06293 0.0
H5032 H 0.19061 0.41023 0.00921 0.0
H5033 H 0.22666 0.48035 0.05067 0.0
H5034 H 0.23775 0.46142 0.04325 0.0
H5035 H 0.22489 0.46138 0.06312 0.0
C5036 C 0.24364 0.40813 0.01546 0.0
C5037 C 0.25087 0.4073 0.03316 0.0
C5038 C 0.22926 0.41665 0.01379 0.0
C5039 C 0.22183 0.4243 0.0298 0.0
C5040 C 0.22863 0.42268 0.04747 0.0
H5041 H 0.14232 0.4937 0.03696 0.0
H5042 H 0.16065 0.47217 0.04433 0.0
C5043 C 0.24325 0.41449 0.04916 0.0
C5044 C 0.20733 0.4344 0.02785 0.0
H5045 H 0.19686 0.47755 0.03966 0.0
C5046 C 0.19195 0.42492 0.01594 0.0
C5047 C 0.20905 0.45357 0.03669 0.0
C5048 C 0.22553 0.46485 0.04901 0.0
C5049 C 0.17838 0.43418 0.0124 0.0
C5050 C 0.18034 0.45345 0.02087 0.0
C5051 C 0.1954 0.46274 0.03324 0.0
C5052 C 0.16766 0.46472 0.01606 0.0
C5053 C 0.16213 0.42329 0.99955 0.0
C5054 C 0.16549 0.46756 0.99772 0.0
C5055 C 0.15508 0.47984 0.99349 0.0
C5056 C 0.14669 0.48956 0.00754 0.0
C5057 C 0.14849 0.48628 0.02581 0.0
C5058 C 0.15899 0.47405 0.03005 0.0
H5059 H 0.16007 0.40781 0.9989 0.0
H5060 H 0.14998 0.42793 0.00412 0.0
H5061 H 0.16395 0.42585 0.98521 0.0
H5062 H 0.17233 0.46077 0.98678 0.0
H5063 H 0.15381 0.48195 0.97926 0.0
H5064 H 0.87794 0.00966 0.27737 0.0
H5065 H 0.86024 0.97755 0.27747 0.0
H5066 H 0.90119 0.95335 0.2514 0.0
H5067 H 0.91879 0.98486 0.25157 0.0
H5068 H 0.8452 0.94556 0.25084 0.0
H5069 H 0.89663 0.92625 0.29381 0.0
H5070 H 0.89816 0.95021 0.29074 0.0
H5071 H 0.90482 0.93318 0.27306 0.0
C5072 C 0.88318 0.99753 0.2716 0.0
C5073 C 0.90009 1.00031 0.26461 0.0
C5074 C 0.87299 0.97899 0.27169 0.0
C5075 C 0.87936 0.96254 0.26491 0.0
C5076 C 0.89593 0.96541 0.25737 0.0
H5077 H 0.84576 0.83797 0.25533 0.0
H5078 H 0.86098 0.87063 0.25501 0.0
C5079 C 0.90604 0.98374 0.25733 0.0
C5080 C 0.86892 0.94248 0.26543 0.0
H5081 H 0.87276 0.90099 0.2788 0.0
C5082 C 0.85125 0.93593 0.25713 0.0
C5083 C 0.8765 0.92938 0.27342 0.0
C5084 C 0.895 0.93514 0.28342 0.0
C5085 C 0.8414 0.91701 0.25607 0.0
C5086 C 0.84898 0.90388 0.26406 0.0
C5087 C 0.86662 0.91055 0.27252 0.0
C5088 C 0.83911 0.88335 0.26376 0.0
C5089 C 0.82314 0.91118 0.24554 0.0
C5090 C 0.82151 0.87878 0.26889 0.0
C5091 C 0.81257 0.85983 0.26867 0.0
C5092 C 0.82091 0.84453 0.26377 0.0
C5093 C 0.83863 0.8491 0.25904 0.0
C5094 C 0.84747 0.86802 0.25895 0.0
H5095 H 0.82179 0.92013 0.23513 0.0
H5096 H 0.8202 0.89616 0.2381 0.0
H5097 H 0.81301 0.91304 0.25555 0.0
H5098 H 0.81466 0.88993 0.27351 0.0
H5099 H 0.79922 0.85729 0.27296 0.0
H5100 H 0.73117 0.08268 0.75407 0.0
H5101 H 0.7545 0.1114 0.76145 0.0
H5102 H 0.71547 0.145 0.75802 0.0
H5103 H 0.69166 0.11616 0.75055 0.0
H5104 H 0.75201 0.14049 0.73194 0.0
H5105 H 0.75774 0.16492 0.80938 0.0
H5106 H 0.75101 0.14012 0.79829 0.0
H5107 H 0.73592 0.15537 0.79706 0.0
C5108 C 0.72742 0.09616 0.75513 0.0
C5109 C 0.70964 0.0973 0.75158 0.0
C5110 C 0.74076 0.11244 0.75948 0.0
C5111 C 0.73642 0.12992 0.76044 0.0
C5112 C 0.71874 0.13134 0.75751 0.0
H5113 H 0.75281 0.23405 0.76094 0.0
H5114 H 0.75036 0.20014 0.7511 0.0
C5115 C 0.70529 0.11499 0.75307 0.0
C5116 C 0.75061 0.14648 0.76174 0.0
H5117 H 0.77214 0.18656 0.79171 0.0
C5118 C 0.75687 0.15045 0.74501 0.0
C5119 C 0.75687 0.15887 0.77892 0.0
C5120 C 0.75015 0.15468 0.79703 0.0
C5121 C 0.76811 0.1678 0.74484 0.0
C5122 C 0.7731 0.18104 0.76178 0.0
C5123 C 0.76843 0.1761 0.77878 0.0
C5124 C 0.77731 0.20117 0.76185 0.0
C5125 C 0.77335 0.17255 0.72652 0.0
C5126 C 0.79327 0.21269 0.77107 0.0
C5127 C 0.79473 0.23211 0.77636 0.0
C5128 C 0.78027 0.23985 0.77229 0.0
C5129 C 0.76436 0.22828 0.7632 0.0
C5130 C 0.76304 0.20906 0.75749 0.0
H5131 H 0.77119 0.15975 0.71518 0.0
H5132 H 0.76525 0.18215 0.72242 0.0
H5133 H 0.78759 0.17987 0.72819 0.0
H5134 H 0.80407 0.20656 0.77512 0.0
H5135 H 0.80687 0.24086 0.78407 0.0
loop_
_geom_bond_atom_site_label_1
_geom_bond_atom_site_label_2
_geom_bond_distance
_geom_bond_site_symmetry_2
_ccdc_geom_bond_type
C0 O1 1.306 . S
C0 O3 1.160 . S
O1 C0 1.306 . S
O1 Cd2 2.228 . S
Cd2 O1 2.228 . S
Cd2 O6 2.273 . S
Cd2 O10 2.277 . S
O3 C0 1.160 . S
O3 Cd4 2.203 . S
Cd4 O3 2.203 . S
Cd4 O6 2.411 . S
Cd4 O7 2.333 . S
Cd4 O8 2.352 . S
Cd4 O12 2.277 . S
Cd4 O13 2.356 . S
C5 O10 1.209 . S
C5 O12 1.226 . S
O6 Cd2 2.273 . S
O6 Cd4 2.411 . S
O6 C9 1.320 . S
O7 Cd4 2.333 . S
O7 C9 1.214 . S
O8 Cd4 2.352 . S
O8 C11 1.258 . S
C9 O6 1.320 . S
C9 O7 1.214 . S
O10 Cd2 2.277 . S
O10 C5 1.209 . S
C11 O8 1.258 . S
C11 O13 1.282 . S
O12 Cd4 2.277 . S
O12 C5 1.226 . S
O13 Cd4 2.356 . S
O13 C11 1.282 . S
C14 O15 1.306 . S
C14 O17 1.160 . S
O15 C14 1.306 . S
O15 Cd16 2.228 1_655 S
Cd16 O15 2.228 1_455 S
Cd16 O20 2.273 . S
Cd16 O24 2.277 1_455 S
O17 C14 1.160 . S
O17 Cd18 2.203 1_655 S
Cd18 O17 2.203 1_455 S
Cd18 O20 2.411 . S
Cd18 O21 2.333 . S
Cd18 O22 2.352 . S
Cd18 O26 2.277 1_455 S
Cd18 O27 2.356 . S
C19 O24 1.209 . S
C19 O26 1.226 . S
O20 Cd16 2.273 . S
O20 Cd18 2.411 . S
O20 C23 1.320 . S
O21 Cd18 2.333 . S
O21 C23 1.214 . S
O22 Cd18 2.352 . S
O22 C25 1.258 . S
C23 O20 1.320 . S
C23 O21 1.214 . S
O24 Cd16 2.277 1_655 S
O24 C19 1.209 . S
C25 O22 1.258 . S
C25 O27 1.282 . S
O26 Cd18 2.277 1_655 S
O26 C19 1.226 . S
O27 Cd18 2.356 . S
O27 C25 1.282 . S
C28 O29 1.306 . S
C28 O31 1.160 . S
O29 C28 1.306 . S
O29 Cd30 2.228 . S
Cd30 O29 2.228 . S
Cd30 O34 2.273 . S
Cd30 O38 2.277 . S
O31 C28 1.160 . S
O31 Cd32 2.203 . S
Cd32 O31 2.203 . S
Cd32 O34 2.411 . S
Cd32 O35 2.333 . S
Cd32 O36 2.352 . S
Cd32 O40 2.277 . S
Cd32 O41 2.356 . S
C33 O38 1.209 . S
C33 O40 1.226 . S
O34 Cd30 2.273 . S
O34 Cd32 2.411 . S
O34 C37 1.320 . S
O35 Cd32 2.333 . S
O35 C37 1.214 . S
O36 Cd32 2.352 . S
O36 C39 1.258 . S
C37 O34 1.320 . S
C37 O35 1.214 . S
O38 Cd30 2.277 . S
O38 C33 1.209 . S
C39 O36 1.258 . S
C39 O41 1.282 . S
O40 Cd32 2.277 . S
O40 C33 1.226 . S
O41 Cd32 2.356 . S
O41 C39 1.282 . S
C42 O43 1.306 . S
C42 O45 1.160 . S
O43 C42 1.306 . S
O43 Cd44 2.228 . S
Cd44 O43 2.228 . S
Cd44 O48 2.273 . S
Cd44 O52 2.277 . S
O45 C42 1.160 . S
O45 Cd46 2.203 . S
Cd46 O45 2.203 . S
Cd46 O48 2.411 . S
Cd46 O49 2.333 . S
Cd46 O50 2.352 . S
Cd46 O54 2.277 . S
Cd46 O55 2.356 . S
C47 O52 1.209 . S
C47 O54 1.226 . S
O48 Cd44 2.273 . S
O48 Cd46 2.411 . S
O48 C51 1.320 . S
O49 Cd46 2.333 . S
O49 C51 1.214 . S
O50 Cd46 2.352 . S
O50 C53 1.258 . S
C51 O48 1.320 . S
C51 O49 1.214 . S
O52 Cd44 2.277 . S
O52 C47 1.209 . S
C53 O50 1.258 . S
C53 O55 1.282 . S
O54 Cd46 2.277 . S
O54 C47 1.226 . S
O55 Cd46 2.356 . S
O55 C53 1.282 . S
C56 O57 1.306 . S
C56 O59 1.160 . S
O57 C56 1.306 . S
O57 Cd58 2.228 . S
Cd58 O57 2.228 . S
Cd58 O62 2.273 . S
Cd58 O66 2.277 . S
O59 C56 1.160 . S
O59 Cd60 2.203 . S
Cd60 O59 2.203 . S
Cd60 O62 2.411 . S
Cd60 O63 2.333 . S
Cd60 O64 2.352 . S
Cd60 O68 2.277 . S
Cd60 O69 2.356 . S
C61 O66 1.209 . S
C61 O68 1.226 . S
O62 Cd58 2.273 . S
O62 Cd60 2.411 . S
O62 C65 1.320 . S
O63 Cd60 2.333 . S
O63 C65 1.214 . S
O64 Cd60 2.352 . S
O64 C67 1.258 . S
C65 O62 1.320 . S
C65 O63 1.214 . S
O66 Cd58 2.277 . S
O66 C61 1.209 . S
C67 O64 1.258 . S
C67 O69 1.282 . S
O68 Cd60 2.277 . S
O68 C61 1.226 . S
O69 Cd60 2.356 . S
O69 C67 1.282 . S
C70 O71 1.306 . S
C70 O73 1.160 . S
O71 C70 1.306 . S
O71 Cd72 2.228 . S
Cd72 O71 2.228 . S
Cd72 O76 2.273 . S
Cd72 O80 2.277 . S
O73 C70 1.160 . S
O73 Cd74 2.203 . S
Cd74 O73 2.203 . S
Cd74 O76 2.411 . S
Cd74 O77 2.333 . S
Cd74 O78 2.352 . S
Cd74 O82 2.277 . S
Cd74 O83 2.356 . S
C75 O80 1.209 . S
C75 O82 1.226 . S
O76 Cd72 2.273 . S
O76 Cd74 2.411 . S
O76 C79 1.320 . S
O77 Cd74 2.333 . S
O77 C79 1.214 . S
O78 Cd74 2.352 . S
O78 C81 1.258 . S
C79 O76 1.320 . S
C79 O77 1.214 . S
O80 Cd72 2.277 . S
O80 C75 1.209 . S
C81 O78 1.258 . S
C81 O83 1.282 . S
O82 Cd74 2.277 . S
O82 C75 1.226 . S
O83 Cd74 2.356 . S
O83 C81 1.282 . S
C84 O85 1.306 . S
C84 O87 1.160 . S
O85 C84 1.306 . S
O85 Cd86 2.228 . S
Cd86 O85 2.228 . S
Cd86 O90 2.273 . S
Cd86 O94 2.277 . S
O87 C84 1.160 . S
O87 Cd88 2.203 . S
Cd88 O87 2.203 . S
Cd88 O90 2.411 . S
Cd88 O91 2.333 . S
Cd88 O92 2.352 . S
Cd88 O96 2.277 . S
Cd88 O97 2.356 . S
C89 O94 1.209 . S
C89 O96 1.226 . S
O90 Cd86 2.273 . S
O90 Cd88 2.411 . S
O90 C93 1.320 . S
O91 Cd88 2.333 . S
O91 C93 1.214 . S
O92 Cd88 2.352 . S
O92 C95 1.258 . S
C93 O90 1.320 . S
C93 O91 1.214 . S
O94 Cd86 2.277 . S
O94 C89 1.209 . S
C95 O92 1.258 . S
C95 O97 1.282 . S
O96 Cd88 2.277 . S
O96 C89 1.226 . S
O97 Cd88 2.356 . S
O97 C95 1.282 . S
C98 O99 1.306 . S
C98 O101 1.160 . S
O99 C98 1.306 . S
O99 Cd100 2.228 1_655 S
Cd100 O99 2.228 1_455 S
Cd100 O104 2.273 . S
Cd100 O108 2.277 . S
O101 C98 1.160 . S
O101 Cd102 2.203 1_655 S
Cd102 O101 2.203 1_455 S
Cd102 O104 2.411 . S
Cd102 O105 2.333 . S
Cd102 O106 2.352 . S
Cd102 O110 2.277 . S
Cd102 O111 2.356 . S
C103 O108 1.209 . S
C103 O110 1.226 . S
O104 Cd100 2.273 . S
O104 Cd102 2.411 . S
O104 C107 1.320 . S
O105 Cd102 2.333 . S
O105 C107 1.214 . S
O106 Cd102 2.352 . S
O106 C109 1.258 . S
C107 O104 1.320 . S
C107 O105 1.214 . S
O108 Cd100 2.277 . S
O108 C103 1.209 . S
C109 O106 1.258 . S
C109 O111 1.282 . S
O110 Cd102 2.277 . S
O110 C103 1.226 . S
O111 Cd102 2.356 . S
O111 C109 1.282 . S
C112 O113 1.306 . S
C112 O115 1.160 . S
O113 C112 1.306 . S
O113 Cd114 2.228 . S
Cd114 O113 2.228 . S
Cd114 O118 2.273 . S
Cd114 O122 2.277 1_545 S
O115 C112 1.160 . S
O115 Cd116 2.203 . S
Cd116 O115 2.203 . S
Cd116 O118 2.411 . S
Cd116 O119 2.333 . S
Cd116 O120 2.352 . S
Cd116 O124 2.277 . S
Cd116 O125 2.356 . S
C117 O122 1.209 . S
C117 O124 1.226 1_565 S
O118 Cd114 2.273 . S
O118 Cd116 2.411 . S
O118 C121 1.320 . S
O119 Cd116 2.333 . S
O119 C121 1.214 . S
O120 Cd116 2.352 . S
O120 C123 1.258 . S
C121 O118 1.320 . S
C121 O119 1.214 . S
O122 Cd114 2.277 1_565 S
O122 C117 1.209 . S
C123 O120 1.258 . S
C123 O125 1.282 . S
O124 Cd116 2.277 . S
O124 C117 1.226 1_545 S
O125 Cd116 2.356 . S
O125 C123 1.282 . S
C126 O127 1.306 . S
C126 O129 1.160 . S
O127 C126 1.306 . S
O127 Cd128 2.228 . S
Cd128 O127 2.228 . S
Cd128 O132 2.273 . S
Cd128 O136 2.277 . S
O129 C126 1.160 . S
O129 Cd130 2.203 . S
Cd130 O129 2.203 . S
Cd130 O132 2.411 . S
Cd130 O133 2.333 . S
Cd130 O134 2.352 . S
Cd130 O138 2.277 . S
Cd130 O139 2.356 . S
C131 O136 1.209 . S
C131 O138 1.226 . S
O132 Cd128 2.273 . S
O132 Cd130 2.411 . S
O132 C135 1.320 . S
O133 Cd130 2.333 . S
O133 C135 1.214 . S
O134 Cd130 2.352 . S
O134 C137 1.258 . S
C135 O132 1.320 . S
C135 O133 1.214 . S
O136 Cd128 2.277 . S
O136 C131 1.209 . S
C137 O134 1.258 . S
C137 O139 1.282 . S
O138 Cd130 2.277 . S
O138 C131 1.226 . S
O139 Cd130 2.356 . S
O139 C137 1.282 . S
C140 O141 1.306 . S
C140 O143 1.179 . S
O141 C140 1.306 . S
O141 Cd142 2.228 . S
Cd142 O141 2.228 . S
Cd142 O146 2.273 1_545 S
Cd142 O150 2.277 . S
O143 C140 1.179 . S
O143 Cd144 2.206 1_545 S
Cd144 O143 2.206 1_565 S
Cd144 O146 2.411 . S
Cd144 O147 2.333 . S
Cd144 O148 2.352 . S
Cd144 O152 2.277 1_565 S
Cd144 O153 2.356 . S
C145 O150 1.209 . S
C145 O152 1.226 . S
O146 Cd142 2.273 1_565 S
O146 Cd144 2.411 . S
O146 C149 1.320 . S
O147 Cd144 2.333 . S
O147 C149 1.214 . S
O148 Cd144 2.352 . S
O148 C151 1.258 . S
C149 O146 1.320 . S
C149 O147 1.214 . S
O150 Cd142 2.277 . S
O150 C145 1.209 . S
C151 O148 1.258 . S
C151 O153 1.282 . S
O152 Cd144 2.277 1_545 S
O152 C145 1.226 . S
O153 Cd144 2.356 . S
O153 C151 1.282 . S
C154 O155 1.306 . S
C154 O157 1.160 . S
O155 C154 1.306 . S
O155 Cd156 2.228 1_554 S
Cd156 O155 2.228 1_556 S
Cd156 O160 2.273 1_556 S
Cd156 O164 2.277 . S
O157 C154 1.160 . S
O157 Cd158 2.203 . S
Cd158 O157 2.203 . S
Cd158 O160 2.411 . S
Cd158 O161 2.333 . S
Cd158 O162 2.352 . S
Cd158 O166 2.277 1_554 S
Cd158 O167 2.356 . S
C159 O164 1.209 . S
C159 O166 1.226 . S
O160 Cd156 2.273 1_554 S
O160 Cd158 2.411 . S
O160 C163 1.320 . S
O161 Cd158 2.333 . S
O161 C163 1.214 . S
O162 Cd158 2.352 . S
O162 C165 1.258 . S
C163 O160 1.320 . S
C163 O161 1.214 . S
O164 Cd156 2.277 . S
O164 C159 1.209 . S
C165 O162 1.258 . S
C165 O167 1.282 . S
O166 Cd158 2.277 1_556 S
O166 C159 1.226 . S
O167 Cd158 2.356 . S
O167 C165 1.282 . S
C168 O169 1.306 . S
C168 O171 1.160 . S
O169 C168 1.306 . S
O169 Cd170 2.228 . S
Cd170 O169 2.228 . S
Cd170 O174 2.273 . S
Cd170 O178 2.277 . S
O171 C168 1.160 . S
O171 Cd172 2.203 . S
Cd172 O171 2.203 . S
Cd172 O174 2.411 . S
Cd172 O175 2.333 . S
Cd172 O176 2.352 . S
Cd172 O180 2.277 . S
Cd172 O181 2.356 . S
C173 O178 1.210 . S
C173 O180 1.270 . S
O174 Cd170 2.273 . S
O174 Cd172 2.411 . S
O174 C177 1.320 . S
O175 Cd172 2.333 . S
O175 C177 1.214 . S
O176 Cd172 2.352 . S
O176 C179 1.258 . S
C177 O174 1.320 . S
C177 O175 1.214 . S
O178 Cd170 2.277 . S
O178 C173 1.210 . S
C179 O176 1.258 . S
C179 O181 1.282 . S
O180 Cd172 2.277 . S
O180 C173 1.270 . S
O181 Cd172 2.356 . S
O181 C179 1.282 . S
C182 O183 1.306 . S
C182 O185 1.160 . S
O183 C182 1.306 . S
O183 Cd184 2.228 . S
Cd184 O183 2.228 . S
Cd184 O188 2.273 . S
Cd184 O192 2.277 . S
O185 C182 1.160 . S
O185 Cd186 2.203 . S
Cd186 O185 2.203 . S
Cd186 O188 2.411 . S
Cd186 O189 2.333 . S
Cd186 O190 2.352 1_554 S
Cd186 O194 2.277 . S
Cd186 O195 2.356 . S
C187 O192 1.209 . S
C187 O194 1.226 . S
O188 Cd184 2.273 . S
O188 Cd186 2.411 . S
O188 C191 1.320 . S
O189 Cd186 2.333 . S
O189 C191 1.214 . S
O190 Cd186 2.352 1_556 S
O190 C193 1.258 . S
C191 O188 1.320 . S
C191 O189 1.214 . S
O192 Cd184 2.277 . S
O192 C187 1.209 . S
C193 O190 1.258 . S
C193 O195 1.282 1_556 S
O194 Cd186 2.277 . S
O194 C187 1.226 . S
O195 Cd186 2.356 . S
O195 C193 1.282 1_554 S
C196 O197 1.306 . S
C196 O199 1.160 . S
O197 C196 1.306 . S
O197 Cd198 2.228 . S
Cd198 O197 2.228 . S
Cd198 O202 2.273 . S
Cd198 O206 2.277 . S
O199 C196 1.160 . S
O199 Cd200 2.203 . S
Cd200 O199 2.203 . S
Cd200 O202 2.411 . S
Cd200 O203 2.333 . S
Cd200 O204 2.352 . S
Cd200 O208 2.277 . S
Cd200 O209 2.356 . S
C201 O206 1.209 . S
C201 O208 1.226 . S
O202 Cd198 2.273 . S
O202 Cd200 2.411 . S
O202 C205 1.320 . S
O203 Cd200 2.333 . S
O203 C205 1.214 . S
O204 Cd200 2.352 . S
O204 C207 1.258 . S
C205 O202 1.320 . S
C205 O203 1.214 . S
O206 Cd198 2.277 . S
O206 C201 1.209 . S
C207 O204 1.258 . S
C207 O209 1.282 . S
O208 Cd200 2.277 . S
O208 C201 1.226 . S
O209 Cd200 2.356 . S
O209 C207 1.282 . S
C210 O211 1.306 . S
C210 O213 1.160 . S
O211 C210 1.306 . S
O211 Cd212 2.228 . S
Cd212 O211 2.228 . S
Cd212 O216 2.273 . S
Cd212 O220 2.277 . S
O213 C210 1.160 . S
O213 Cd214 2.203 . S
Cd214 O213 2.203 . S
Cd214 O216 2.411 . S
Cd214 O217 2.333 . S
Cd214 O218 2.352 . S
Cd214 O222 2.277 . S
Cd214 O223 2.356 . S
C215 O220 1.209 . S
C215 O222 1.226 . S
O216 Cd212 2.273 . S
O216 Cd214 2.411 . S
O216 C219 1.320 . S
O217 Cd214 2.333 . S
O217 C219 1.214 . S
O218 Cd214 2.352 . S
O218 C221 1.258 . S
C219 O216 1.320 . S
C219 O217 1.214 . S
O220 Cd212 2.277 . S
O220 C215 1.209 . S
C221 O218 1.258 . S
C221 O223 1.282 . S
O222 Cd214 2.277 . S
O222 C215 1.226 . S
O223 Cd214 2.356 . S
O223 C221 1.282 . S
C224 O225 1.306 . S
C224 O227 1.160 . S
O225 C224 1.306 . S
O225 Cd226 2.228 . S
Cd226 O225 2.228 . S
Cd226 O230 2.273 . S
Cd226 O234 2.277 . S
O227 C224 1.160 . S
O227 Cd228 2.203 . S
Cd228 O227 2.203 . S
Cd228 O230 2.411 . S
Cd228 O231 2.333 . S
Cd228 O232 2.352 . S
Cd228 O236 2.277 . S
Cd228 O237 2.356 . S
C229 O234 1.209 . S
C229 O236 1.226 . S
O230 Cd226 2.273 . S
O230 Cd228 2.411 . S
O230 C233 1.320 . S
O231 Cd228 2.333 . S
O231 C233 1.214 . S
O232 Cd228 2.352 . S
O232 C235 1.258 . S
C233 O230 1.320 . S
C233 O231 1.214 . S
O234 Cd226 2.277 . S
O234 C229 1.209 . S
C235 O232 1.258 . S
C235 O237 1.282 . S
O236 Cd228 2.277 . S
O236 C229 1.226 . S
O237 Cd228 2.356 . S
O237 C235 1.282 . S
C238 O239 1.306 . S
C238 O241 1.160 . S
O239 C238 1.306 . S
O239 Cd240 2.228 . S
Cd240 O239 2.228 . S
Cd240 O244 2.273 . S
Cd240 O248 2.277 . S
O241 C238 1.160 . S
O241 Cd242 2.203 . S
Cd242 O241 2.203 . S
Cd242 O244 2.411 . S
Cd242 O245 2.333 . S
Cd242 O246 2.352 . S
Cd242 O250 2.277 . S
Cd242 O251 2.356 . S
C243 O248 1.209 . S
C243 O250 1.226 . S
O244 Cd240 2.273 . S
O244 Cd242 2.411 . S
O244 C247 1.320 . S
O245 Cd242 2.333 . S
O245 C247 1.214 . S
O246 Cd242 2.352 . S
O246 C249 1.258 . S
C247 O244 1.320 . S
C247 O245 1.214 . S
O248 Cd240 2.277 . S
O248 C243 1.209 . S
C249 O246 1.258 . S
C249 O251 1.282 . S
O250 Cd242 2.277 . S
O250 C243 1.226 . S
O251 Cd242 2.356 . S
O251 C249 1.282 . S
C252 O253 1.306 . S
C252 O255 1.160 . S
O253 C252 1.306 . S
O253 Cd254 2.228 . S
Cd254 O253 2.228 . S
Cd254 O258 2.273 . S
Cd254 O262 2.277 . S
O255 C252 1.160 . S
O255 Cd256 2.203 . S
Cd256 O255 2.203 . S
Cd256 O258 2.411 . S
Cd256 O259 2.333 . S
Cd256 O260 2.352 . S
Cd256 O264 2.277 . S
Cd256 O265 2.356 . S
C257 O262 1.209 . S
C257 O264 1.226 . S
O258 Cd254 2.273 . S
O258 Cd256 2.411 . S
O258 C261 1.320 . S
O259 Cd256 2.333 . S
O259 C261 1.214 . S
O260 Cd256 2.352 . S
O260 C263 1.258 . S
C261 O258 1.320 . S
C261 O259 1.214 . S
O262 Cd254 2.277 . S
O262 C257 1.209 . S
C263 O260 1.258 . S
C263 O265 1.282 . S
O264 Cd256 2.277 . S
O264 C257 1.226 . S
O265 Cd256 2.356 . S
O265 C263 1.282 . S
C266 O267 1.306 . S
C266 O269 1.160 . S
O267 C266 1.306 . S
O267 Cd268 2.228 . S
Cd268 O267 2.228 . S
Cd268 O272 2.273 . S
Cd268 O276 2.277 . S
O269 C266 1.160 . S
O269 Cd270 2.203 . S
Cd270 O269 2.203 . S
Cd270 O272 2.411 . S
Cd270 O273 2.333 . S
Cd270 O274 2.352 . S
Cd270 O278 2.277 . S
Cd270 O279 2.356 . S
C271 O276 1.209 . S
C271 O278 1.226 . S
O272 Cd268 2.273 . S
O272 Cd270 2.411 . S
O272 C275 1.320 . S
O273 Cd270 2.333 . S
O273 C275 1.214 . S
O274 Cd270 2.352 . S
O274 C277 1.258 . S
C275 O272 1.320 . S
C275 O273 1.214 . S
O276 Cd268 2.277 . S
O276 C271 1.209 . S
C277 O274 1.258 . S
C277 O279 1.282 . S
O278 Cd270 2.277 . S
O278 C271 1.226 . S
O279 Cd270 2.356 . S
O279 C277 1.282 . S
C280 O281 1.306 . S
C280 O283 1.160 1_554 S
O281 C280 1.306 . S
O281 Cd282 2.228 . S
Cd282 O281 2.228 . S
Cd282 O286 2.273 1_554 S
Cd282 O290 2.277 . S
O283 C280 1.160 1_556 S
O283 Cd284 2.203 . S
Cd284 O283 2.203 . S
Cd284 O286 2.411 . S
Cd284 O287 2.333 . S
Cd284 O288 2.352 . S
Cd284 O292 2.277 1_556 S
Cd284 O293 2.356 . S
C285 O290 1.209 . S
C285 O292 1.226 . S
O286 Cd282 2.273 1_556 S
O286 Cd284 2.411 . S
O286 C289 1.320 . S
O287 Cd284 2.333 . S
O287 C289 1.214 . S
O288 Cd284 2.352 . S
O288 C291 1.258 . S
C289 O286 1.320 . S
C289 O287 1.214 . S
O290 Cd282 2.277 . S
O290 C285 1.209 . S
C291 O288 1.258 . S
C291 O293 1.282 . S
O292 Cd284 2.277 1_554 S
O292 C285 1.226 . S
O293 Cd284 2.356 . S
O293 C291 1.282 . S
C294 O295 1.306 . S
C294 O297 1.160 . S
O295 C294 1.306 . S
O295 Cd296 2.228 . S
Cd296 O295 2.228 . S
Cd296 O300 2.273 . S
Cd296 O304 2.277 . S
O297 C294 1.160 . S
O297 Cd298 2.203 . S
Cd298 O297 2.203 . S
Cd298 O300 2.411 . S
Cd298 O301 2.333 . S
Cd298 O302 2.352 . S
Cd298 O306 2.277 . S
Cd298 O307 2.356 . S
C299 O304 1.209 . S
C299 O306 1.226 . S
O300 Cd296 2.273 . S
O300 Cd298 2.411 . S
O300 C303 1.320 . S
O301 Cd298 2.333 . S
O301 C303 1.214 . S
O302 Cd298 2.352 . S
O302 C305 1.258 . S
C303 O300 1.320 . S
C303 O301 1.214 . S
O304 Cd296 2.277 . S
O304 C299 1.209 . S
C305 O302 1.258 . S
C305 O307 1.282 . S
O306 Cd298 2.277 . S
O306 C299 1.226 . S
O307 Cd298 2.356 . S
O307 C305 1.282 . S
C308 O309 1.306 . S
C308 O311 1.160 . S
O309 C308 1.306 . S
O309 Cd310 2.228 . S
Cd310 O309 2.228 . S
Cd310 O314 2.273 . S
Cd310 O318 2.277 . S
O311 C308 1.160 . S
O311 Cd312 2.203 . S
Cd312 O311 2.203 . S
Cd312 O314 2.411 . S
Cd312 O315 2.333 . S
Cd312 O316 2.352 . S
Cd312 O320 2.277 . S
Cd312 O321 2.356 . S
C313 O318 1.209 . S
C313 O320 1.226 . S
O314 Cd310 2.273 . S
O314 Cd312 2.411 . S
O314 C317 1.320 . S
O315 Cd312 2.333 . S
O315 C317 1.214 . S
O316 Cd312 2.352 . S
O316 C319 1.258 . S
C317 O314 1.320 . S
C317 O315 1.214 . S
O318 Cd310 2.277 . S
O318 C313 1.209 . S
C319 O316 1.258 . S
C319 O321 1.282 . S
O320 Cd312 2.277 . S
O320 C313 1.226 . S
O321 Cd312 2.356 . S
O321 C319 1.282 . S
C322 O323 1.306 . S
C322 O325 1.160 . S
O323 C322 1.306 . S
O323 Cd324 2.228 . S
Cd324 O323 2.228 . S
Cd324 O328 2.273 . S
Cd324 O332 2.277 . S
O325 C322 1.160 . S
O325 Cd326 2.203 . S
Cd326 O325 2.203 . S
Cd326 O328 2.411 . S
Cd326 O329 2.333 . S
Cd326 O330 2.352 . S
Cd326 O334 2.277 . S
Cd326 O335 2.356 . S
C327 O332 1.209 . S
C327 O334 1.226 . S
O328 Cd324 2.273 . S
O328 Cd326 2.411 . S
O328 C331 1.320 . S
O329 Cd326 2.333 . S
O329 C331 1.214 . S
O330 Cd326 2.352 . S
O330 C333 1.258 . S
C331 O328 1.320 . S
C331 O329 1.214 . S
O332 Cd324 2.277 . S
O332 C327 1.209 . S
C333 O330 1.258 . S
C333 O335 1.282 . S
O334 Cd326 2.277 . S
O334 C327 1.226 . S
O335 Cd326 2.356 . S
O335 C333 1.282 . S
Gd336 N367 2.661 . S
Gd336 N373 2.601 . S
Gd336 O380 2.545 . S
Gd336 O381 2.606 . S
Gd336 O383 2.429 . S
Gd336 O384 2.545 . S
Gd336 O385 2.412 . S
Gd336 O387 2.362 . S
Gd336 O388 2.322 1_554 S
Gd336 C395 2.828 . S
Gd337 N346 2.661 1_545 S
Gd337 N350 2.601 1_544 S
Gd337 O381 2.362 . S
Gd337 O382 2.324 . S
Gd337 O386 2.502 1_454 S
Gd337 O387 2.606 . S
Gd337 O389 2.429 1_554 S
Gd337 O390 2.545 . S
Gd337 O391 2.412 1_455 S
Gd337 C404 2.828 1_454 S
C338 C341 1.417 1_655 S
C338 C343 1.431 . S
C338 C344 1.412 . S
C339 C342 1.437 . S
C339 C343 1.317 1_556 S
C339 H358 0.929 . S
C340 C341 1.426 1_556 S
C340 C342 1.413 1_455 S
C340 N350 1.359 . S
C341 C338 1.417 1_455 S
C341 C340 1.426 1_554 S
C341 N346 1.350 . S
C342 C339 1.437 . S
C342 C340 1.413 1_655 S
C342 C352 1.391 . S
C343 C338 1.431 . S
C343 C339 1.317 1_554 S
C343 H354 0.930 . S
C344 C338 1.412 . S
C344 C345 1.355 1_655 S
C344 H356 0.930 . S
C345 C344 1.355 1_455 S
C345 C347 1.402 . S
C345 H357 0.930 . S
N346 Gd337 2.661 1_565 S
N346 C341 1.350 . S
N346 C347 1.307 . S
C347 C345 1.402 . S
C347 N346 1.307 . S
C347 H348 0.930 1_565 S
H348 C347 0.930 1_545 S
C349 N350 1.334 . S
C349 C351 1.394 . S
C349 H353 0.930 1_565 S
N350 Gd337 2.601 1_566 S
N350 C340 1.359 . S
N350 C349 1.334 . S
C351 C349 1.394 . S
C351 C352 1.359 1_455 S
C351 H363 0.930 . S
C352 C342 1.391 . S
C352 C351 1.359 1_655 S
C352 H364 0.929 . S
H353 C349 0.930 1_545 S
H354 C343 0.930 . S
H355 C372 0.923 1_556 S
H356 C344 0.930 . S
H357 C345 0.930 . S
H358 C339 0.929 . S
H359 C377 0.930 . S
H360 C368 0.910 1_556 S
H361 C369 0.930 . S
H362 C393 0.929 . S
H363 C351 0.930 . S
H364 C352 0.929 . S
H365 C394 0.930 . S
H366 C375 0.930 . S
N367 Gd336 2.661 . S
N367 C371 1.350 . S
N367 C372 1.322 . S
C368 H360 0.910 1_554 S
C368 C369 1.355 1_554 S
C368 C370 1.412 . S
C369 H361 0.930 . S
C369 C368 1.355 1_556 S
C369 C372 1.394 1_556 S
C370 C368 1.412 . S
C370 C371 1.417 . S
C370 C394 1.431 . S
C371 N367 1.350 . S
C371 C370 1.417 . S
C371 C374 1.426 . S
C372 H355 0.923 1_554 S
C372 N367 1.322 . S
C372 C369 1.394 1_554 S
N373 Gd336 2.601 . S
N373 C374 1.359 . S
N373 C377 1.334 . S
C374 C371 1.426 . S
C374 N373 1.359 . S
C374 C378 1.413 . S
C375 H366 0.930 . S
C375 C376 1.359 . S
C375 C377 1.394 . S
C376 C375 1.359 . S
C376 C378 1.391 . S
C376 H379 0.929 . S
C377 H359 0.930 . S
C377 N373 1.334 . S
C377 C375 1.394 . S
C378 C374 1.413 . S
C378 C376 1.391 . S
C378 C393 1.437 . S
H379 C376 0.929 . S
O380 Gd336 2.545 . S
O380 C395 1.258 . S
O381 Gd336 2.606 . S
O381 Gd337 2.362 . S
O381 C392 1.284 . S
O382 Gd337 2.324 . S
O382 C402 1.254 . S
O383 Gd336 2.429 . S
O383 C402 1.268 . S
O384 Gd336 2.545 . S
O384 C392 1.250 . S
O385 Gd336 2.412 . S
O385 C395 1.252 . S
O386 Gd337 2.502 1_656 S
O386 C404 1.297 . S
O387 Gd336 2.362 . S
O387 Gd337 2.606 . S
O387 C403 1.284 . S
O388 Gd336 2.322 1_556 S
O388 C411 1.254 . S
O389 Gd337 2.429 1_556 S
O389 C411 1.268 . S
O390 Gd337 2.545 . S
O390 C403 1.250 . S
O391 Gd337 2.412 1_655 S
O391 C404 1.252 1_554 S
C392 O381 1.284 . S
C392 O384 1.250 . S
C393 H362 0.929 . S
C393 C378 1.437 . S
C393 C394 1.317 . S
C394 H365 0.930 . S
C394 C370 1.431 . S
C394 C393 1.317 . S
C395 Gd336 2.828 . S
C395 O380 1.258 . S
C395 O385 1.252 . S
C395 C396 1.497 . S
C396 C395 1.497 . S
C396 C397 1.395 . S
C396 C398 1.380 . S
C397 C396 1.395 . S
C397 C400 1.398 . S
C397 H412 0.930 . S
C398 C396 1.380 . S
C398 C399 1.391 . S
C398 H413 0.930 . S
C399 C398 1.391 . S
C399 C401 1.387 . S
C400 C397 1.398 . S
C400 C401 1.380 . S
C400 H414 0.930 . S
C401 C399 1.387 . S
C401 C400 1.380 . S
C401 H415 0.930 . S
C402 O382 1.254 . S
C402 O383 1.268 . S
C403 O387 1.284 . S
C403 O390 1.250 . S
C404 Gd337 2.828 1_656 S
C404 O386 1.297 . S
C404 O391 1.252 1_556 S
C404 C405 1.497 . S
C405 C404 1.497 . S
C405 C406 1.395 . S
C405 C407 1.380 1_556 S
C406 C405 1.395 . S
C406 C409 1.398 . S
C406 H416 0.930 . S
C407 C405 1.380 1_554 S
C407 C408 1.391 . S
C407 H417 0.930 . S
C408 C407 1.391 . S
C408 C410 1.387 1_554 S
C409 C406 1.398 . S
C409 C410 1.380 . S
C409 H418 0.930 . S
C410 C408 1.387 1_556 S
C410 C409 1.380 . S
C410 H419 0.930 . S
C411 O388 1.254 . S
C411 O389 1.268 . S
H412 C397 0.930 . S
H413 C398 0.930 . S
H414 C400 0.930 . S
H415 C401 0.930 . S
H416 C406 0.930 . S
H417 C407 0.930 . S
H418 C409 0.930 . S
H419 C410 0.930 . S
Gd420 N451 2.661 . S
Gd420 N457 2.601 . S
Gd420 O464 2.545 . S
Gd420 O465 2.606 . S
Gd420 O467 2.429 . S
Gd420 O468 2.545 . S
Gd420 O469 2.412 . S
Gd420 O471 2.362 . S
Gd420 O472 2.324 . S
Gd420 C479 2.828 . S
Gd421 N430 2.661 . S
Gd421 N434 2.601 . S
Gd421 O465 2.362 . S
Gd421 O466 2.324 . S
Gd421 O470 2.545 . S
Gd421 O471 2.606 . S
Gd421 O473 2.429 . S
Gd421 O474 2.545 . S
Gd421 O475 2.412 . S
Gd421 C488 2.828 . S
C422 C425 1.417 . S
C422 C427 1.431 . S
C422 C428 1.412 . S
C423 C426 1.437 . S
C423 C427 1.317 . S
C423 H442 0.929 . S
C424 C425 1.426 . S
C424 C426 1.413 . S
C424 N434 1.359 . S
C425 C422 1.417 . S
C425 C424 1.426 . S
C425 N430 1.350 . S
C426 C423 1.437 . S
C426 C424 1.413 . S
C426 C436 1.391 . S
C427 C422 1.431 . S
C427 C423 1.317 . S
C427 H438 0.930 . S
C428 C422 1.412 . S
C428 C429 1.355 . S
C428 H440 0.930 . S
C429 C428 1.355 . S
C429 C431 1.402 . S
C429 H441 0.930 . S
N430 Gd421 2.661 . S
N430 C425 1.350 . S
N430 C431 1.307 . S
C431 C429 1.402 . S
C431 N430 1.307 . S
C431 H432 0.930 . S
H432 C431 0.930 . S
C433 N434 1.334 . S
C433 C435 1.394 . S
C433 H437 0.930 . S
N434 Gd421 2.601 . S
N434 C424 1.359 . S
N434 C433 1.334 . S
C435 C433 1.394 . S
C435 C436 1.359 . S
C435 H447 0.930 . S
C436 C426 1.391 . S
C436 C435 1.359 . S
C436 H448 0.929 . S
H437 C433 0.930 . S
H438 C427 0.930 . S
H439 C456 0.930 . S
H440 C428 0.930 . S
H441 C429 0.930 . S
H442 C423 0.929 . S
H443 C461 0.930 . S
H444 C452 0.930 . S
H445 C453 0.930 . S
H446 C477 0.929 . S
H447 C435 0.930 . S
H448 C436 0.929 . S
H449 C478 0.930 . S
H450 C459 0.930 . S
N451 Gd420 2.661 . S
N451 C455 1.350 . S
N451 C456 1.307 . S
C452 H444 0.930 . S
C452 C453 1.355 . S
C452 C454 1.412 . S
C453 H445 0.930 . S
C453 C452 1.355 . S
C453 C456 1.402 . S
C454 C452 1.412 . S
C454 C455 1.417 . S
C454 C478 1.431 . S
C455 N451 1.350 . S
C455 C454 1.417 . S
C455 C458 1.426 . S
C456 H439 0.930 . S
C456 N451 1.307 . S
C456 C453 1.402 . S
N457 Gd420 2.601 . S
N457 C458 1.359 . S
N457 C461 1.334 . S
C458 C455 1.426 . S
C458 N457 1.359 . S
C458 C462 1.413 . S
C459 H450 0.930 . S
C459 C460 1.359 . S
C459 C461 1.394 . S
C460 C459 1.359 . S
C460 C462 1.391 . S
C460 H463 0.929 . S
C461 H443 0.930 . S
C461 N457 1.334 . S
C461 C459 1.394 . S
C462 C458 1.413 . S
C462 C460 1.391 . S
C462 C477 1.437 . S
H463 C460 0.929 . S
O464 Gd420 2.545 . S
O464 C479 1.258 . S
O465 Gd420 2.606 . S
O465 Gd421 2.362 . S
O465 C476 1.284 . S
O466 Gd421 2.324 . S
O466 C486 1.254 . S
O467 Gd420 2.429 . S
O467 C486 1.268 . S
O468 Gd420 2.545 . S
O468 C476 1.250 . S
O469 Gd420 2.412 . S
O469 C479 1.252 . S
O470 Gd421 2.545 . S
O470 C488 1.258 . S
O471 Gd420 2.362 . S
O471 Gd421 2.606 . S
O471 C487 1.284 . S
O472 Gd420 2.324 . S
O472 C495 1.254 . S
O473 Gd421 2.429 . S
O473 C495 1.268 . S
O474 Gd421 2.545 . S
O474 C487 1.250 . S
O475 Gd421 2.412 . S
O475 C488 1.252 . S
C476 O465 1.284 . S
C476 O468 1.250 . S
C477 H446 0.929 . S
C477 C462 1.437 . S
C477 C478 1.317 . S
C478 H449 0.930 . S
C478 C454 1.431 . S
C478 C477 1.317 . S
C479 Gd420 2.828 . S
C479 O464 1.258 . S
C479 O469 1.252 . S
C479 C480 1.497 . S
C480 C479 1.497 . S
C480 C481 1.395 . S
C480 C482 1.380 . S
C481 C480 1.395 . S
C481 C484 1.398 . S
C481 H496 0.930 . S
C482 C480 1.380 . S
C482 C483 1.391 . S
C482 H497 0.930 . S
C483 C482 1.391 . S
C483 C485 1.387 . S
C484 C481 1.398 . S
C484 C485 1.380 . S
C484 H498 0.930 . S
C485 C483 1.387 . S
C485 C484 1.380 . S
C485 H499 0.930 . S
C486 O466 1.254 . S
C486 O467 1.268 . S
C487 O471 1.284 . S
C487 O474 1.250 . S
C488 Gd421 2.828 . S
C488 O470 1.258 . S
C488 O475 1.252 . S
C488 C489 1.497 . S
C489 C488 1.497 . S
C489 C490 1.395 . S
C489 C491 1.380 . S
C490 C489 1.395 . S
C490 C493 1.398 . S
C490 H500 0.930 . S
C491 C489 1.380 . S
C491 C492 1.391 . S
C491 H501 0.930 . S
C492 C491 1.391 . S
C492 C494 1.387 . S
C493 C490 1.398 . S
C493 C494 1.380 . S
C493 H502 0.930 . S
C494 C492 1.387 . S
C494 C493 1.380 . S
C494 H503 0.930 . S
C495 O472 1.254 . S
C495 O473 1.268 . S
H496 C481 0.930 . S
H497 C482 0.930 . S
H498 C484 0.930 . S
H499 C485 0.930 . S
H500 C490 0.930 . S
H501 C491 0.930 . S
H502 C493 0.930 . S
H503 C494 0.930 . S
Gd504 N535 2.661 1_545 S
Gd504 N541 2.601 . S
Gd504 O548 2.545 . S
Gd504 O549 2.606 . S
Gd504 O551 2.429 . S
Gd504 O552 2.545 . S
Gd504 O553 2.412 . S
Gd504 O555 2.362 . S
Gd504 O556 2.324 . S
Gd504 C563 2.828 . S
Gd505 N514 2.661 . S
Gd505 N518 2.601 . S
Gd505 O549 2.362 . S
Gd505 O550 2.324 . S
Gd505 O554 2.545 . S
Gd505 O555 2.606 . S
Gd505 O557 2.429 . S
Gd505 O558 2.545 1_545 S
Gd505 O559 2.412 . S
Gd505 C572 2.828 . S
C506 C509 1.417 . S
C506 C511 1.431 . S
C506 C512 1.412 . S
C507 C510 1.437 . S
C507 C511 1.317 . S
C507 H526 0.929 . S
C508 C509 1.426 . S
C508 C510 1.413 . S
C508 N518 1.359 . S
C509 C506 1.417 . S
C509 C508 1.426 . S
C509 N514 1.350 . S
C510 C507 1.437 . S
C510 C508 1.413 . S
C510 C520 1.391 . S
C511 C506 1.431 . S
C511 C507 1.317 . S
C511 H522 0.930 . S
C512 C506 1.412 . S
C512 C513 1.355 . S
C512 H524 0.930 . S
C513 C512 1.355 . S
C513 C515 1.402 . S
C513 H525 0.930 . S
N514 Gd505 2.661 . S
N514 C509 1.350 . S
N514 C515 1.307 . S
C515 C513 1.402 . S
C515 N514 1.307 . S
C515 H516 0.930 . S
H516 C515 0.930 . S
C517 N518 1.334 . S
C517 C519 1.394 . S
C517 H521 0.930 . S
N518 Gd505 2.601 . S
N518 C508 1.359 . S
N518 C517 1.334 . S
C519 C517 1.394 . S
C519 C520 1.359 . S
C519 H531 0.930 . S
C520 C510 1.391 . S
C520 C519 1.359 . S
C520 H532 0.929 . S
H521 C517 0.930 . S
H522 C511 0.930 . S
H523 C540 0.904 1_545 S
H524 C512 0.930 . S
H525 C513 0.930 . S
H526 C507 0.929 . S
H527 C545 0.930 . S
H528 C536 0.930 . S
H529 C537 0.930 . S
H530 C561 0.929 . S
H531 C519 0.930 . S
H532 C520 0.929 . S
H533 C562 0.930 . S
H534 C543 0.930 . S
N535 Gd504 2.661 1_565 S
N535 C539 1.350 . S
N535 C540 1.307 . S
C536 H528 0.930 . S
C536 C537 1.355 . S
C536 C538 1.412 . S
C537 H529 0.930 . S
C537 C536 1.355 . S
C537 C540 1.402 . S
C538 C536 1.412 . S
C538 C539 1.417 . S
C538 C562 1.431 . S
C539 N535 1.350 . S
C539 C538 1.417 . S
C539 C542 1.426 . S
C540 H523 0.904 1_565 S
C540 N535 1.307 . S
C540 C537 1.402 . S
N541 Gd504 2.601 . S
N541 C542 1.359 1_545 S
N541 C545 1.334 . S
C542 C539 1.426 . S
C542 N541 1.359 1_565 S
C542 C546 1.413 . S
C543 H534 0.930 . S
C543 C544 1.359 1_545 S
C543 C545 1.394 . S
C544 C543 1.359 1_565 S
C544 C546 1.391 . S
C544 H547 0.929 . S
C545 H527 0.930 . S
C545 N541 1.334 . S
C545 C543 1.394 . S
C546 C542 1.413 . S
C546 C544 1.391 . S
C546 C561 1.437 . S
H547 C544 0.929 . S
O548 Gd504 2.545 . S
O548 C563 1.258 . S
O549 Gd504 2.606 . S
O549 Gd505 2.362 . S
O549 C560 1.284 . S
O550 Gd505 2.324 . S
O550 C570 1.254 . S
O551 Gd504 2.429 . S
O551 C570 1.268 . S
O552 Gd504 2.545 . S
O552 C560 1.250 . S
O553 Gd504 2.412 . S
O553 C563 1.252 . S
O554 Gd505 2.545 . S
O554 C572 1.258 . S
O555 Gd504 2.362 . S
O555 Gd505 2.606 . S
O555 C571 1.284 1_545 S
O556 Gd504 2.324 . S
O556 C579 1.254 . S
O557 Gd505 2.429 . S
O557 C579 1.268 . S
O558 Gd505 2.545 1_565 S
O558 C571 1.250 . S
O559 Gd505 2.412 . S
O559 C572 1.252 . S
C560 O549 1.284 . S
C560 O552 1.250 . S
C561 H530 0.929 . S
C561 C546 1.437 . S
C561 C562 1.317 . S
C562 H533 0.930 . S
C562 C538 1.431 . S
C562 C561 1.317 . S
C563 Gd504 2.828 . S
C563 O548 1.258 . S
C563 O553 1.252 . S
C563 C564 1.497 . S
C564 C563 1.497 . S
C564 C565 1.395 . S
C564 C566 1.380 . S
C565 C564 1.395 . S
C565 C568 1.398 . S
C565 H580 0.930 . S
C566 C564 1.380 . S
C566 C567 1.391 . S
C566 H581 0.930 . S
C567 C566 1.391 . S
C567 C569 1.387 . S
C568 C565 1.398 . S
C568 C569 1.380 . S
C568 H582 0.930 . S
C569 C567 1.387 . S
C569 C568 1.380 . S
C569 H583 0.930 . S
C570 O550 1.254 . S
C570 O551 1.268 . S
C571 O555 1.284 1_565 S
C571 O558 1.250 . S
C572 Gd505 2.828 . S
C572 O554 1.258 . S
C572 O559 1.252 . S
C572 C573 1.497 . S
C573 C572 1.497 . S
C573 C574 1.395 . S
C573 C575 1.380 . S
C574 C573 1.395 . S
C574 C577 1.398 . S
C574 H584 0.930 . S
C575 C573 1.380 . S
C575 C576 1.391 1_545 S
C575 H585 0.930 . S
C576 C575 1.391 1_565 S
C576 C578 1.387 . S
C577 C574 1.398 . S
C577 C578 1.380 1_545 S
C577 H586 0.930 . S
C578 C576 1.387 . S
C578 C577 1.380 1_565 S
C578 H587 0.930 . S
C579 O556 1.254 . S
C579 O557 1.268 . S
H580 C565 0.930 . S
H581 C566 0.930 . S
H582 C568 0.930 . S
H583 C569 0.930 . S
H584 C574 0.930 . S
H585 C575 0.930 . S
H586 C577 0.930 . S
H587 C578 0.930 . S
Gd588 N619 2.661 . S
Gd588 N625 2.601 . S
Gd588 O632 2.545 . S
Gd588 O633 2.606 . S
Gd588 O635 2.429 . S
Gd588 O636 2.545 . S
Gd588 O637 2.412 . S
Gd588 O639 2.362 . S
Gd588 O640 2.324 . S
Gd588 C647 2.828 . S
Gd589 N598 2.661 . S
Gd589 N602 2.601 . S
Gd589 O633 2.362 . S
Gd589 O634 2.324 . S
Gd589 O638 2.545 . S
Gd589 O639 2.606 . S
Gd589 O641 2.429 . S
Gd589 O642 2.545 . S
Gd589 O643 2.412 . S
Gd589 C656 2.828 . S
C590 C593 1.417 . S
C590 C595 1.431 . S
C590 C596 1.412 . S
C591 C594 1.437 . S
C591 C595 1.317 . S
C591 H610 0.929 . S
C592 C593 1.426 . S
C592 C594 1.413 . S
C592 N602 1.359 . S
C593 C590 1.417 . S
C593 C592 1.426 . S
C593 N598 1.350 . S
C594 C591 1.437 . S
C594 C592 1.413 . S
C594 C604 1.391 . S
C595 C590 1.431 . S
C595 C591 1.317 . S
C595 H606 0.930 . S
C596 C590 1.412 . S
C596 C597 1.355 . S
C596 H608 0.930 . S
C597 C596 1.355 . S
C597 C599 1.402 . S
C597 H609 0.930 . S
N598 Gd589 2.661 . S
N598 C593 1.350 . S
N598 C599 1.307 . S
C599 C597 1.402 . S
C599 N598 1.307 . S
C599 H600 0.930 . S
H600 C599 0.930 . S
C601 N602 1.334 . S
C601 C603 1.394 . S
C601 H605 0.930 . S
N602 Gd589 2.601 . S
N602 C592 1.359 . S
N602 C601 1.334 . S
C603 C601 1.394 . S
C603 C604 1.359 . S
C603 H615 0.930 . S
C604 C594 1.391 . S
C604 C603 1.359 . S
C604 H616 0.929 . S
H605 C601 0.930 . S
H606 C595 0.930 . S
H607 C624 0.930 . S
H608 C596 0.930 . S
H609 C597 0.930 . S
H610 C591 0.929 . S
H611 C629 0.930 . S
H612 C620 0.930 . S
H613 C621 0.930 . S
H614 C645 0.929 . S
H615 C603 0.930 . S
H616 C604 0.929 . S
H617 C646 0.930 . S
H618 C627 0.930 . S
N619 Gd588 2.661 . S
N619 C623 1.350 . S
N619 C624 1.307 . S
C620 H612 0.930 . S
C620 C621 1.355 . S
C620 C622 1.412 . S
C621 H613 0.930 . S
C621 C620 1.355 . S
C621 C624 1.402 . S
C622 C620 1.412 . S
C622 C623 1.417 . S
C622 C646 1.431 . S
C623 N619 1.350 . S
C623 C622 1.417 . S
C623 C626 1.426 . S
C624 H607 0.930 . S
C624 N619 1.307 . S
C624 C621 1.402 . S
N625 Gd588 2.601 . S
N625 C626 1.359 . S
N625 C629 1.334 . S
C626 C623 1.426 . S
C626 N625 1.359 . S
C626 C630 1.413 . S
C627 H618 0.930 . S
C627 C628 1.359 . S
C627 C629 1.394 . S
C628 C627 1.359 . S
C628 C630 1.391 . S
C628 H631 0.929 . S
C629 H611 0.930 . S
C629 N625 1.334 . S
C629 C627 1.394 . S
C630 C626 1.413 . S
C630 C628 1.391 . S
C630 C645 1.437 . S
H631 C628 0.929 . S
O632 Gd588 2.545 . S
O632 C647 1.258 . S
O633 Gd588 2.606 . S
O633 Gd589 2.362 . S
O633 C644 1.284 . S
O634 Gd589 2.324 . S
O634 C654 1.254 . S
O635 Gd588 2.429 . S
O635 C654 1.268 . S
O636 Gd588 2.545 . S
O636 C644 1.250 . S
O637 Gd588 2.412 . S
O637 C647 1.252 . S
O638 Gd589 2.545 . S
O638 C656 1.258 . S
O639 Gd588 2.362 . S
O639 Gd589 2.606 . S
O639 C655 1.284 . S
O640 Gd588 2.324 . S
O640 C663 1.254 . S
O641 Gd589 2.429 . S
O641 C663 1.268 . S
O642 Gd589 2.545 . S
O642 C655 1.250 . S
O643 Gd589 2.412 . S
O643 C656 1.252 . S
C644 O633 1.284 . S
C644 O636 1.250 . S
C645 H614 0.929 . S
C645 C630 1.437 . S
C645 C646 1.317 . S
C646 H617 0.930 . S
C646 C622 1.431 . S
C646 C645 1.317 . S
C647 Gd588 2.828 . S
C647 O632 1.258 . S
C647 O637 1.252 . S
C647 C648 1.497 . S
C648 C647 1.497 . S
C648 C649 1.395 . S
C648 C650 1.380 . S
C649 C648 1.395 . S
C649 C652 1.398 . S
C649 H664 0.930 . S
C650 C648 1.380 . S
C650 C651 1.391 . S
C650 H665 0.930 . S
C651 C650 1.391 . S
C651 C653 1.387 . S
C652 C649 1.398 . S
C652 C653 1.380 . S
C652 H666 0.930 . S
C653 C651 1.387 . S
C653 C652 1.380 . S
C653 H667 0.930 . S
C654 O634 1.254 . S
C654 O635 1.268 . S
C655 O639 1.284 . S
C655 O642 1.250 . S
C656 Gd589 2.828 . S
C656 O638 1.258 . S
C656 O643 1.252 . S
C656 C657 1.497 . S
C657 C656 1.497 . S
C657 C658 1.395 . S
C657 C659 1.380 . S
C658 C657 1.395 . S
C658 C661 1.398 . S
C658 H668 0.930 . S
C659 C657 1.380 . S
C659 C660 1.391 . S
C659 H669 0.930 . S
C660 C659 1.391 . S
C660 C662 1.387 . S
C661 C658 1.398 . S
C661 C662 1.380 . S
C661 H670 0.930 . S
C662 C660 1.387 . S
C662 C661 1.380 . S
C662 H671 0.930 . S
C663 O640 1.254 . S
C663 O641 1.268 . S
H664 C649 0.930 . S
H665 C650 0.930 . S
H666 C652 0.930 . S
H667 C653 0.930 . S
H668 C658 0.930 . S
H669 C659 0.930 . S
H670 C661 0.930 . S
H671 C662 0.930 . S
Gd672 N703 2.661 1_545 S
Gd672 N709 2.601 1_545 S
Gd672 O716 2.545 1_545 S
Gd672 O717 2.606 . S
Gd672 O719 2.429 . S
Gd672 O720 2.545 . S
Gd672 O721 2.412 1_545 S
Gd672 O723 2.362 . S
Gd672 O724 2.324 . S
Gd672 C731 2.828 1_545 S
Gd673 N682 2.661 . S
Gd673 N686 2.601 . S
Gd673 O717 2.362 . S
Gd673 O718 2.324 . S
Gd673 O722 2.545 . S
Gd673 O723 2.606 . S
Gd673 O725 2.429 . S
Gd673 O726 2.545 . S
Gd673 O727 2.412 . S
Gd673 C740 2.828 . S
C674 C677 1.417 . S
C674 C679 1.431 . S
C674 C680 1.412 . S
C675 C678 1.437 . S
C675 C679 1.317 . S
C675 H694 0.929 . S
C676 C677 1.426 . S
C676 C678 1.413 . S
C676 N686 1.359 . S
C677 C674 1.417 . S
C677 C676 1.426 . S
C677 N682 1.350 . S
C678 C675 1.437 . S
C678 C676 1.413 . S
C678 C688 1.391 . S
C679 C674 1.431 . S
C679 C675 1.317 . S
C679 H690 0.930 . S
C680 C674 1.412 . S
C680 C681 1.355 . S
C680 H692 0.930 . S
C681 C680 1.355 . S
C681 C683 1.402 . S
C681 H693 0.930 . S
N682 Gd673 2.661 . S
N682 C677 1.350 . S
N682 C683 1.307 . S
C683 C681 1.402 . S
C683 N682 1.307 . S
C683 H684 0.930 . S
H684 C683 0.930 . S
C685 N686 1.334 . S
C685 C687 1.394 . S
C685 H689 0.930 . S
N686 Gd673 2.601 . S
N686 C676 1.359 . S
N686 C685 1.334 . S
C687 C685 1.394 . S
C687 C688 1.359 . S
C687 H699 0.930 1_455 S
C688 C678 1.391 . S
C688 C687 1.359 . S
C688 H700 0.929 . S
H689 C685 0.930 . S
H690 C679 0.930 . S
H691 C708 0.930 . S
H692 C680 0.930 . S
H693 C681 0.930 . S
H694 C675 0.929 . S
H695 C713 0.930 1_545 S
H696 C704 0.930 . S
H697 C705 0.930 1_655 S
H698 C729 0.929 . S
H699 C687 0.930 1_655 S
H700 C688 0.929 . S
H701 C730 0.930 . S
H702 C711 0.930 . S
N703 Gd672 2.661 1_565 S
N703 C707 1.350 . S
N703 C708 1.307 . S
C704 H696 0.930 . S
C704 C705 1.355 . S
C704 C706 1.412 . S
C705 H697 0.930 1_455 S
C705 C704 1.355 . S
C705 C708 1.402 . S
C706 C704 1.412 . S
C706 C707 1.417 . S
C706 C730 1.431 . S
C707 N703 1.350 . S
C707 C706 1.417 . S
C707 C710 1.426 . S
C708 H691 0.930 . S
C708 N703 1.307 . S
C708 C705 1.402 . S
N709 Gd672 2.601 1_565 S
N709 C710 1.359 . S
N709 C713 1.334 . S
C710 C707 1.426 . S
C710 N709 1.359 . S
C710 C714 1.413 . S
C711 H702 0.930 . S
C711 C712 1.359 . S
C711 C713 1.394 . S
C712 C711 1.359 . S
C712 C714 1.391 . S
C712 H715 0.929 . S
C713 H695 0.930 1_565 S
C713 N709 1.334 . S
C713 C711 1.394 . S
C714 C710 1.413 . S
C714 C712 1.391 . S
C714 C729 1.437 . S
H715 C712 0.929 . S
O716 Gd672 2.545 1_565 S
O716 C731 1.258 . S
O717 Gd672 2.606 . S
O717 Gd673 2.362 . S
O717 C728 1.284 . S
O718 Gd673 2.324 . S
O718 C738 1.254 . S
O719 Gd672 2.429 . S
O719 C738 1.268 . S
O720 Gd672 2.545 . S
O720 C728 1.250 . S
O721 Gd672 2.412 1_565 S
O721 C731 1.252 . S
O722 Gd673 2.545 . S
O722 C740 1.258 . S
O723 Gd672 2.362 . S
O723 Gd673 2.606 . S
O723 C739 1.284 . S
O724 Gd672 2.324 . S
O724 C747 1.254 . S
O725 Gd673 2.429 . S
O725 C747 1.268 . S
O726 Gd673 2.545 . S
O726 C739 1.250 . S
O727 Gd673 2.412 . S
O727 C740 1.252 . S
C728 O717 1.284 . S
C728 O720 1.250 . S
C729 H698 0.929 . S
C729 C714 1.437 . S
C729 C730 1.317 . S
C730 H701 0.930 . S
C730 C706 1.431 . S
C730 C729 1.317 . S
C731 Gd672 2.828 1_565 S
C731 O716 1.258 . S
C731 O721 1.252 . S
C731 C732 1.497 . S
C732 C731 1.497 . S
C732 C733 1.395 . S
C732 C734 1.380 . S
C733 C732 1.395 . S
C733 C736 1.398 . S
C733 H748 0.930 . S
C734 C732 1.380 . S
C734 C735 1.391 . S
C734 H749 0.930 . S
C735 C734 1.391 . S
C735 C737 1.387 . S
C736 C733 1.398 . S
C736 C737 1.380 . S
C736 H750 0.930 . S
C737 C735 1.387 . S
C737 C736 1.380 . S
C737 H751 0.930 . S
C738 O718 1.254 . S
C738 O719 1.268 . S
C739 O723 1.284 . S
C739 O726 1.250 . S
C740 Gd673 2.828 . S
C740 O722 1.258 . S
C740 O727 1.252 . S
C740 C741 1.497 . S
C741 C740 1.497 . S
C741 C742 1.395 . S
C741 C743 1.380 . S
C742 C741 1.395 . S
C742 C745 1.398 . S
C742 H752 0.930 . S
C743 C741 1.380 . S
C743 C744 1.391 . S
C743 H753 0.930 . S
C744 C743 1.391 . S
C744 C746 1.387 . S
C745 C742 1.398 . S
C745 C746 1.380 . S
C745 H754 0.930 . S
C746 C744 1.387 . S
C746 C745 1.380 . S
C746 H755 0.930 . S
C747 O724 1.254 . S
C747 O725 1.268 . S
H748 C733 0.930 . S
H749 C734 0.930 . S
H750 C736 0.930 . S
H751 C737 0.930 . S
H752 C742 0.930 . S
H753 C743 0.930 . S
H754 C745 0.930 . S
H755 C746 0.930 . S
Gd756 N787 2.661 . S
Gd756 N793 2.601 . S
Gd756 O800 2.545 . S
Gd756 O801 2.606 . S
Gd756 O803 2.429 . S
Gd756 O804 2.545 . S
Gd756 O805 2.412 . S
Gd756 O807 2.362 . S
Gd756 O808 2.324 . S
Gd756 C815 2.828 . S
Gd757 N766 2.661 . S
Gd757 N770 2.601 . S
Gd757 O801 2.362 . S
Gd757 O802 2.324 . S
Gd757 O806 2.545 . S
Gd757 O807 2.606 . S
Gd757 O809 2.429 . S
Gd757 O810 2.545 . S
Gd757 O811 2.412 . S
Gd757 C824 2.828 . S
C758 C761 1.417 . S
C758 C763 1.431 . S
C758 C764 1.412 . S
C759 C762 1.437 . S
C759 C763 1.317 . S
C759 H778 0.929 . S
C760 C761 1.426 . S
C760 C762 1.413 . S
C760 N770 1.359 . S
C761 C758 1.417 . S
C761 C760 1.426 . S
C761 N766 1.350 . S
C762 C759 1.437 . S
C762 C760 1.413 . S
C762 C772 1.391 . S
C763 C758 1.431 . S
C763 C759 1.317 . S
C763 H774 0.930 . S
C764 C758 1.412 . S
C764 C765 1.355 . S
C764 H776 0.930 . S
C765 C764 1.355 . S
C765 C767 1.402 . S
C765 H777 0.930 . S
N766 Gd757 2.661 . S
N766 C761 1.350 . S
N766 C767 1.307 . S
C767 C765 1.402 . S
C767 N766 1.307 . S
C767 H768 0.930 . S
H768 C767 0.930 . S
C769 N770 1.334 . S
C769 C771 1.394 . S
C769 H773 0.930 . S
N770 Gd757 2.601 . S
N770 C760 1.359 . S
N770 C769 1.334 . S
C771 C769 1.394 . S
C771 C772 1.359 . S
C771 H783 0.930 . S
C772 C762 1.391 . S
C772 C771 1.359 . S
C772 H784 0.929 . S
H773 C769 0.930 . S
H774 C763 0.930 . S
H775 C792 0.930 . S
H776 C764 0.930 . S
H777 C765 0.930 . S
H778 C759 0.929 . S
H779 C797 0.930 . S
H780 C788 0.930 . S
H781 C789 0.930 . S
H782 C813 0.929 . S
H783 C771 0.930 . S
H784 C772 0.929 . S
H785 C814 0.930 . S
H786 C795 0.930 . S
N787 Gd756 2.661 . S
N787 C791 1.350 . S
N787 C792 1.307 . S
C788 H780 0.930 . S
C788 C789 1.355 . S
C788 C790 1.412 . S
C789 H781 0.930 . S
C789 C788 1.355 . S
C789 C792 1.402 . S
C790 C788 1.412 . S
C790 C791 1.417 . S
C790 C814 1.431 . S
C791 N787 1.350 . S
C791 C790 1.417 . S
C791 C794 1.426 . S
C792 H775 0.930 . S
C792 N787 1.307 . S
C792 C789 1.402 . S
N793 Gd756 2.601 . S
N793 C794 1.359 . S
N793 C797 1.334 . S
C794 C791 1.426 . S
C794 N793 1.359 . S
C794 C798 1.413 . S
C795 H786 0.930 . S
C795 C796 1.359 . S
C795 C797 1.394 . S
C796 C795 1.359 . S
C796 C798 1.391 . S
C796 H799 0.929 . S
C797 H779 0.930 . S
C797 N793 1.334 . S
C797 C795 1.394 . S
C798 C794 1.413 . S
C798 C796 1.391 . S
C798 C813 1.437 . S
H799 C796 0.929 . S
O800 Gd756 2.545 . S
O800 C815 1.258 . S
O801 Gd756 2.606 . S
O801 Gd757 2.362 . S
O801 C812 1.284 . S
O802 Gd757 2.324 . S
O802 C822 1.254 . S
O803 Gd756 2.429 . S
O803 C822 1.268 . S
O804 Gd756 2.545 . S
O804 C812 1.250 . S
O805 Gd756 2.412 . S
O805 C815 1.252 . S
O806 Gd757 2.545 . S
O806 C824 1.258 . S
O807 Gd756 2.362 . S
O807 Gd757 2.606 . S
O807 C823 1.284 . S
O808 Gd756 2.324 . S
O808 C831 1.254 . S
O809 Gd757 2.429 . S
O809 C831 1.268 . S
O810 Gd757 2.545 . S
O810 C823 1.250 . S
O811 Gd757 2.412 . S
O811 C824 1.252 . S
C812 O801 1.284 . S
C812 O804 1.250 . S
C813 H782 0.929 . S
C813 C798 1.437 . S
C813 C814 1.317 . S
C814 H785 0.930 . S
C814 C790 1.431 . S
C814 C813 1.317 . S
C815 Gd756 2.828 . S
C815 O800 1.258 . S
C815 O805 1.252 . S
C815 C816 1.497 . S
C816 C815 1.497 . S
C816 C817 1.395 . S
C816 C818 1.380 . S
C817 C816 1.395 . S
C817 C820 1.398 . S
C817 H832 0.930 . S
C818 C816 1.380 . S
C818 C819 1.391 . S
C818 H833 0.930 . S
C819 C818 1.391 . S
C819 C821 1.387 . S
C820 C817 1.398 . S
C820 C821 1.380 . S
C820 H834 0.930 . S
C821 C819 1.387 . S
C821 C820 1.380 . S
C821 H835 0.930 . S
C822 O802 1.254 . S
C822 O803 1.268 . S
C823 O807 1.284 . S
C823 O810 1.250 . S
C824 Gd757 2.828 . S
C824 O806 1.258 . S
C824 O811 1.252 . S
C824 C825 1.497 . S
C825 C824 1.497 . S
C825 C826 1.395 . S
C825 C827 1.380 . S
C826 C825 1.395 . S
C826 C829 1.398 . S
C826 H836 0.930 . S
C827 C825 1.380 . S
C827 C828 1.391 . S
C827 H837 0.930 . S
C828 C827 1.391 . S
C828 C830 1.387 . S
C829 C826 1.398 . S
C829 C830 1.380 . S
C829 H838 0.930 . S
C830 C828 1.387 . S
C830 C829 1.380 . S
C830 H839 0.930 . S
C831 O808 1.254 . S
C831 O809 1.268 . S
H832 C817 0.930 . S
H833 C818 0.930 . S
H834 C820 0.930 . S
H835 C821 0.930 . S
H836 C826 0.930 . S
H837 C827 0.930 . S
H838 C829 0.930 . S
H839 C830 0.930 . S
Gd840 N871 2.661 . S
Gd840 N877 2.601 . S
Gd840 O884 2.545 . S
Gd840 O885 2.606 1_556 S
Gd840 O887 2.429 1_556 S
Gd840 O888 2.547 . S
Gd840 O889 2.412 . S
Gd840 O891 2.362 1_556 S
Gd840 O892 2.324 . S
Gd840 C899 2.828 . S
Gd841 N850 2.661 . S
Gd841 N854 2.601 . S
Gd841 O885 2.362 . S
Gd841 O886 2.324 . S
Gd841 O890 2.545 . S
Gd841 O891 2.606 . S
Gd841 O893 2.429 . S
Gd841 O894 2.545 . S
Gd841 O895 2.412 . S
Gd841 C908 2.828 . S
C842 C845 1.417 . S
C842 C847 1.431 . S
C842 C848 1.412 . S
C843 C846 1.437 . S
C843 C847 1.317 . S
C843 H862 0.929 . S
C844 C845 1.426 . S
C844 C846 1.413 . S
C844 N854 1.359 . S
C845 C842 1.417 . S
C845 C844 1.426 . S
C845 N850 1.350 . S
C846 C843 1.437 . S
C846 C844 1.413 . S
C846 C856 1.391 1_545 S
C847 C842 1.431 . S
C847 C843 1.317 . S
C847 H858 0.930 . S
C848 C842 1.412 . S
C848 C849 1.355 . S
C848 H860 0.930 . S
C849 C848 1.355 . S
C849 C851 1.402 . S
C849 H861 0.930 . S
N850 Gd841 2.661 . S
N850 C845 1.350 . S
N850 C851 1.307 . S
C851 C849 1.402 . S
C851 N850 1.307 . S
C851 H852 0.930 . S
H852 C851 0.930 . S
C853 N854 1.334 1_565 S
C853 C855 1.394 . S
C853 H857 0.930 . S
N854 Gd841 2.601 . S
N854 C844 1.359 . S
N854 C853 1.334 1_545 S
C855 C853 1.394 . S
C855 C856 1.359 . S
C855 H867 0.930 . S
C856 C846 1.391 1_565 S
C856 C855 1.359 . S
C856 H868 0.929 . S
H857 C853 0.930 . S
H858 C847 0.930 . S
H859 C876 0.910 1_565 S
H860 C848 0.930 . S
H861 C849 0.930 . S
H862 C843 0.929 . S
H863 C881 0.930 . S
H864 C872 0.930 . S
H865 C873 0.930 . S
H866 C897 0.929 . S
H867 C855 0.930 . S
H868 C856 0.929 . S
H869 C898 0.930 . S
H870 C879 0.930 . S
N871 Gd840 2.661 . S
N871 C875 1.350 . S
N871 C876 1.340 . S
C872 H864 0.930 . S
C872 C873 1.355 . S
C872 C874 1.412 1_565 S
C873 H865 0.930 . S
C873 C872 1.355 . S
C873 C876 1.389 1_565 S
C874 C872 1.412 1_545 S
C874 C875 1.417 . S
C874 C898 1.431 . S
C875 N871 1.350 . S
C875 C874 1.417 . S
C875 C878 1.426 . S
C876 H859 0.910 1_545 S
C876 N871 1.340 . S
C876 C873 1.389 1_545 S
N877 Gd840 2.601 . S
N877 C878 1.359 . S
N877 C881 1.334 . S
C878 C875 1.426 . S
C878 N877 1.359 . S
C878 C882 1.413 . S
C879 H870 0.930 . S
C879 C880 1.359 . S
C879 C881 1.394 . S
C880 C879 1.359 . S
C880 C882 1.391 . S
C880 H883 0.929 . S
C881 H863 0.930 . S
C881 N877 1.334 . S
C881 C879 1.394 . S
C882 C878 1.413 . S
C882 C880 1.391 . S
C882 C897 1.437 . S
H883 C880 0.929 . S
O884 Gd840 2.545 . S
O884 C899 1.258 . S
O885 Gd840 2.606 1_554 S
O885 Gd841 2.362 . S
O885 C896 1.284 . S
O886 Gd841 2.324 . S
O886 C906 1.254 . S
O887 Gd840 2.429 1_554 S
O887 C906 1.268 . S
O888 Gd840 2.547 . S
O888 C896 1.197 1_556 S
O889 Gd840 2.412 . S
O889 C899 1.252 . S
O890 Gd841 2.545 . S
O890 C908 1.258 . S
O891 Gd840 2.362 1_554 S
O891 Gd841 2.606 . S
O891 C907 1.284 . S
O892 Gd840 2.324 . S
O892 C915 1.254 1_556 S
O893 Gd841 2.429 . S
O893 C915 1.268 . S
O894 Gd841 2.545 . S
O894 C907 1.250 . S
O895 Gd841 2.412 . S
O895 C908 1.252 . S
C896 O885 1.284 . S
C896 O888 1.197 1_554 S
C897 H866 0.929 . S
C897 C882 1.437 . S
C897 C898 1.317 . S
C898 H869 0.930 . S
C898 C874 1.431 . S
C898 C897 1.317 . S
C899 Gd840 2.828 . S
C899 O884 1.258 . S
C899 O889 1.252 . S
C899 C900 1.497 . S
C900 C899 1.497 . S
C900 C901 1.395 . S
C900 C902 1.380 . S
C901 C900 1.395 . S
C901 C904 1.398 . S
C901 H916 0.930 . S
C902 C900 1.380 . S
C902 C903 1.391 . S
C902 H917 0.930 . S
C903 C902 1.391 . S
C903 C905 1.387 . S
C904 C901 1.398 . S
C904 C905 1.380 . S
C904 H918 0.930 . S
C905 C903 1.387 . S
C905 C904 1.380 . S
C905 H919 0.930 . S
C906 O886 1.254 . S
C906 O887 1.268 . S
C907 O891 1.284 . S
C907 O894 1.250 . S
C908 Gd841 2.828 . S
C908 O890 1.258 . S
C908 O895 1.252 . S
C908 C909 1.497 . S
C909 C908 1.497 . S
C909 C910 1.395 1_545 S
C909 C911 1.380 . S
C910 C909 1.395 1_565 S
C910 C913 1.398 . S
C910 H920 0.930 . S
C911 C909 1.380 . S
C911 C912 1.391 . S
C911 H921 0.930 . S
C912 C911 1.391 . S
C912 C914 1.387 . S
C913 C910 1.398 . S
C913 C914 1.380 1_565 S
C913 H922 0.930 . S
C914 C912 1.387 . S
C914 C913 1.380 1_545 S
C914 H923 0.930 . S
C915 O892 1.254 1_554 S
C915 O893 1.268 . S
H916 C901 0.930 . S
H917 C902 0.930 . S
H918 C904 0.930 . S
H919 C905 0.930 . S
H920 C910 0.930 . S
H921 C911 0.930 . S
H922 C913 0.930 . S
H923 C914 0.930 . S
Gd924 N955 2.661 . S
Gd924 N961 2.601 . S
Gd924 O968 2.545 . S
Gd924 O969 2.606 . S
Gd924 O971 2.429 . S
Gd924 O972 2.545 . S
Gd924 O973 2.412 . S
Gd924 O975 2.362 . S
Gd924 O976 2.324 . S
Gd924 C983 2.828 . S
Gd925 N934 2.661 . S
Gd925 N938 2.601 . S
Gd925 O969 2.362 . S
Gd925 O970 2.324 . S
Gd925 O974 2.545 . S
Gd925 O975 2.606 . S
Gd925 O977 2.429 . S
Gd925 O978 2.545 . S
Gd925 O979 2.412 . S
Gd925 C992 2.828 . S
C926 C929 1.417 . S
C926 C931 1.431 . S
C926 C932 1.412 . S
C927 C930 1.437 . S
C927 C931 1.317 . S
C927 H946 0.929 . S
C928 C929 1.426 . S
C928 C930 1.413 . S
C928 N938 1.359 . S
C929 C926 1.417 . S
C929 C928 1.426 . S
C929 N934 1.350 . S
C930 C927 1.437 . S
C930 C928 1.413 . S
C930 C940 1.391 . S
C931 C926 1.431 . S
C931 C927 1.317 . S
C931 H942 0.930 . S
C932 C926 1.412 . S
C932 C933 1.355 . S
C932 H944 0.930 . S
C933 C932 1.355 . S
C933 C935 1.402 . S
C933 H945 0.930 . S
N934 Gd925 2.661 . S
N934 C929 1.350 . S
N934 C935 1.307 . S
C935 C933 1.402 . S
C935 N934 1.307 . S
C935 H936 0.930 . S
H936 C935 0.930 . S
C937 N938 1.334 . S
C937 C939 1.394 . S
C937 H941 0.930 . S
N938 Gd925 2.601 . S
N938 C928 1.359 . S
N938 C937 1.334 . S
C939 C937 1.394 . S
C939 C940 1.359 . S
C939 H951 0.930 . S
C940 C930 1.391 . S
C940 C939 1.359 . S
C940 H952 0.929 . S
H941 C937 0.930 . S
H942 C931 0.930 . S
H943 C960 0.930 . S
H944 C932 0.930 . S
H945 C933 0.930 . S
H946 C927 0.929 . S
H947 C965 0.930 . S
H948 C956 0.930 . S
H949 C957 0.930 . S
H950 C981 0.929 . S
H951 C939 0.930 . S
H952 C940 0.929 . S
H953 C982 0.930 . S
H954 C963 0.930 . S
N955 Gd924 2.661 . S
N955 C959 1.350 . S
N955 C960 1.307 . S
C956 H948 0.930 . S
C956 C957 1.355 . S
C956 C958 1.412 . S
C957 H949 0.930 . S
C957 C956 1.355 . S
C957 C960 1.402 . S
C958 C956 1.412 . S
C958 C959 1.417 . S
C958 C982 1.431 . S
C959 N955 1.350 . S
C959 C958 1.417 . S
C959 C962 1.426 . S
C960 H943 0.930 . S
C960 N955 1.307 . S
C960 C957 1.402 . S
N961 Gd924 2.601 . S
N961 C962 1.359 . S
N961 C965 1.334 . S
C962 C959 1.426 . S
C962 N961 1.359 . S
C962 C966 1.413 . S
C963 H954 0.930 . S
C963 C964 1.359 . S
C963 C965 1.394 . S
C964 C963 1.359 . S
C964 C966 1.391 . S
C964 H967 0.929 . S
C965 H947 0.930 . S
C965 N961 1.334 . S
C965 C963 1.394 . S
C966 C962 1.413 . S
C966 C964 1.391 . S
C966 C981 1.437 . S
H967 C964 0.929 . S
O968 Gd924 2.545 . S
O968 C983 1.258 . S
O969 Gd924 2.606 . S
O969 Gd925 2.362 . S
O969 C980 1.284 . S
O970 Gd925 2.324 . S
O970 C990 1.254 . S
O971 Gd924 2.429 . S
O971 C990 1.268 . S
O972 Gd924 2.545 . S
O972 C980 1.250 . S
O973 Gd924 2.412 . S
O973 C983 1.252 . S
O974 Gd925 2.545 . S
O974 C992 1.258 . S
O975 Gd924 2.362 . S
O975 Gd925 2.606 . S
O975 C991 1.284 . S
O976 Gd924 2.324 . S
O976 C999 1.254 . S
O977 Gd925 2.429 . S
O977 C999 1.268 . S
O978 Gd925 2.545 . S
O978 C991 1.250 . S
O979 Gd925 2.412 . S
O979 C992 1.252 . S
C980 O969 1.284 . S
C980 O972 1.250 . S
C981 H950 0.929 . S
C981 C966 1.437 . S
C981 C982 1.317 . S
C982 H953 0.930 . S
C982 C958 1.431 . S
C982 C981 1.317 . S
C983 Gd924 2.828 . S
C983 O968 1.258 . S
C983 O973 1.252 . S
C983 C984 1.497 . S
C984 C983 1.497 . S
C984 C985 1.395 . S
C984 C986 1.380 . S
C985 C984 1.395 . S
C985 C988 1.398 . S
C985 H1000 0.930 . S
C986 C984 1.380 . S
C986 C987 1.391 . S
C986 H1001 0.930 . S
C987 C986 1.391 . S
C987 C989 1.387 . S
C988 C985 1.398 . S
C988 C989 1.380 . S
C988 H1002 0.930 . S
C989 C987 1.387 . S
C989 C988 1.380 . S
C989 H1003 0.930 . S
C990 O970 1.254 . S
C990 O971 1.268 . S
C991 O975 1.284 . S
C991 O978 1.250 . S
C992 Gd925 2.828 . S
C992 O974 1.258 . S
C992 O979 1.252 . S
C992 C993 1.497 . S
C993 C992 1.497 . S
C993 C994 1.395 . S
C993 C995 1.380 . S
C994 C993 1.395 . S
C994 C997 1.398 . S
C994 H1004 0.930 . S
C995 C993 1.380 . S
C995 C996 1.391 . S
C995 H1005 0.930 . S
C996 C995 1.391 . S
C996 C998 1.387 . S
C997 C994 1.398 . S
C997 C998 1.380 . S
C997 H1006 0.930 . S
C998 C996 1.387 . S
C998 C997 1.380 . S
C998 H1007 0.930 . S
C999 O976 1.254 . S
C999 O977 1.268 . S
H1000 C985 0.930 . S
H1001 C986 0.930 . S
H1002 C988 0.930 . S
H1003 C989 0.930 . S
H1004 C994 0.930 . S
H1005 C995 0.930 . S
H1006 C997 0.930 . S
H1007 C998 0.930 . S
Gd1008 N1039 2.661 1_554 S
Gd1008 N1045 2.601 1_554 S
Gd1008 O1052 2.545 . S
Gd1008 O1053 2.606 . S
Gd1008 O1055 2.429 . S
Gd1008 O1056 2.545 . S
Gd1008 O1057 2.412 . S
Gd1008 O1059 2.362 1_554 S
Gd1008 O1060 2.324 . S
Gd1008 C1067 2.828 . S
Gd1009 N1018 2.661 . S
Gd1009 N1022 2.601 . S
Gd1009 O1053 2.362 . S
Gd1009 O1054 2.324 . S
Gd1009 O1058 2.545 . S
Gd1009 O1059 2.606 1_554 S
Gd1009 O1061 2.429 . S
Gd1009 O1062 2.545 1_554 S
Gd1009 O1063 2.412 . S
Gd1009 C1076 2.828 . S
C1010 C1013 1.417 . S
C1010 C1015 1.431 . S
C1010 C1016 1.412 . S
C1011 C1014 1.437 . S
C1011 C1015 1.317 . S
C1011 H1030 0.929 . S
C1012 C1013 1.426 . S
C1012 C1014 1.413 . S
C1012 N1022 1.359 . S
C1013 C1010 1.417 . S
C1013 C1012 1.426 . S
C1013 N1018 1.350 . S
C1014 C1011 1.437 . S
C1014 C1012 1.413 . S
C1014 C1024 1.391 . S
C1015 C1010 1.431 . S
C1015 C1011 1.317 . S
C1015 H1026 0.930 . S
C1016 C1010 1.412 . S
C1016 C1017 1.355 . S
C1016 H1028 0.930 . S
C1017 C1016 1.355 . S
C1017 C1019 1.402 . S
C1017 H1029 0.930 . S
N1018 Gd1009 2.661 . S
N1018 C1013 1.350 . S
N1018 C1019 1.307 . S
C1019 C1017 1.402 . S
C1019 N1018 1.307 . S
C1019 H1020 0.930 . S
H1020 C1019 0.930 . S
C1021 N1022 1.334 . S
C1021 C1023 1.394 . S
C1021 H1025 0.930 . S
N1022 Gd1009 2.601 . S
N1022 C1012 1.359 . S
N1022 C1021 1.334 . S
C1023 C1021 1.394 . S
C1023 C1024 1.359 . S
C1023 H1035 0.930 . S
C1024 C1014 1.391 . S
C1024 C1023 1.359 . S
C1024 H1036 0.929 . S
H1025 C1021 0.930 . S
H1026 C1015 0.930 . S
H1027 C1044 0.930 . S
H1028 C1016 0.930 . S
H1029 C1017 0.930 . S
H1030 C1011 0.929 . S
H1031 C1049 0.930 . S
H1032 C1040 0.930 . S
H1033 C1041 0.930 . S
H1034 C1065 0.929 . S
H1035 C1023 0.930 . S
H1036 C1024 0.929 . S
H1037 C1066 0.930 . S
H1038 C1047 0.930 . S
N1039 Gd1008 2.661 1_556 S
N1039 C1043 1.350 . S
N1039 C1044 1.307 . S
C1040 H1032 0.930 . S
C1040 C1041 1.355 . S
C1040 C1042 1.412 . S
C1041 H1033 0.930 . S
C1041 C1040 1.355 . S
C1041 C1044 1.402 . S
C1042 C1040 1.412 . S
C1042 C1043 1.417 . S
C1042 C1066 1.431 . S
C1043 N1039 1.350 . S
C1043 C1042 1.417 . S
C1043 C1046 1.426 . S
C1044 H1027 0.930 . S
C1044 N1039 1.307 . S
C1044 C1041 1.402 . S
N1045 Gd1008 2.601 1_556 S
N1045 C1046 1.359 . S
N1045 C1049 1.334 . S
C1046 C1043 1.426 . S
C1046 N1045 1.359 . S
C1046 C1050 1.413 . S
C1047 H1038 0.930 . S
C1047 C1048 1.359 . S
C1047 C1049 1.394 . S
C1048 C1047 1.359 . S
C1048 C1050 1.391 . S
C1048 H1051 0.929 . S
C1049 H1031 0.930 . S
C1049 N1045 1.334 . S
C1049 C1047 1.394 . S
C1050 C1046 1.413 . S
C1050 C1048 1.391 . S
C1050 C1065 1.437 . S
H1051 C1048 0.929 . S
O1052 Gd1008 2.545 . S
O1052 C1067 1.258 . S
O1053 Gd1008 2.606 . S
O1053 Gd1009 2.362 . S
O1053 C1064 1.284 . S
O1054 Gd1009 2.324 . S
O1054 C1074 1.254 . S
O1055 Gd1008 2.429 . S
O1055 C1074 1.268 . S
O1056 Gd1008 2.545 . S
O1056 C1064 1.250 . S
O1057 Gd1008 2.412 . S
O1057 C1067 1.252 . S
O1058 Gd1009 2.545 . S
O1058 C1076 1.258 . S
O1059 Gd1008 2.362 1_556 S
O1059 Gd1009 2.606 1_556 S
O1059 C1075 1.284 . S
O1060 Gd1008 2.324 . S
O1060 C1083 1.254 . S
O1061 Gd1009 2.429 . S
O1061 C1083 1.268 . S
O1062 Gd1009 2.545 1_556 S
O1062 C1075 1.250 . S
O1063 Gd1009 2.412 . S
O1063 C1076 1.252 . S
C1064 O1053 1.284 . S
C1064 O1056 1.250 . S
C1065 H1034 0.929 . S
C1065 C1050 1.437 . S
C1065 C1066 1.317 . S
C1066 H1037 0.930 . S
C1066 C1042 1.431 . S
C1066 C1065 1.317 . S
C1067 Gd1008 2.828 . S
C1067 O1052 1.258 . S
C1067 O1057 1.252 . S
C1067 C1068 1.497 . S
C1068 C1067 1.497 . S
C1068 C1069 1.395 . S
C1068 C1070 1.380 . S
C1069 C1068 1.395 . S
C1069 C1072 1.398 . S
C1069 H1084 0.930 . S
C1070 C1068 1.380 . S
C1070 C1071 1.391 . S
C1070 H1085 0.930 . S
C1071 C1070 1.391 . S
C1071 C1073 1.387 . S
C1072 C1069 1.398 . S
C1072 C1073 1.380 . S
C1072 H1086 0.930 . S
C1073 C1071 1.387 . S
C1073 C1072 1.380 . S
C1073 H1087 0.930 . S
C1074 O1054 1.254 . S
C1074 O1055 1.268 . S
C1075 O1059 1.284 . S
C1075 O1062 1.250 . S
C1076 Gd1009 2.828 . S
C1076 O1058 1.258 . S
C1076 O1063 1.252 . S
C1076 C1077 1.497 . S
C1077 C1076 1.497 . S
C1077 C1078 1.395 . S
C1077 C1079 1.380 . S
C1078 C1077 1.395 . S
C1078 C1081 1.398 . S
C1078 H1088 0.930 . S
C1079 C1077 1.380 . S
C1079 C1080 1.391 1_554 S
C1079 H1089 0.930 . S
C1080 C1079 1.391 1_556 S
C1080 C1082 1.387 1_556 S
C1081 C1078 1.398 . S
C1081 C1082 1.380 . S
C1081 H1090 0.930 . S
C1082 C1080 1.387 1_554 S
C1082 C1081 1.380 . S
C1082 H1091 0.930 . S
C1083 O1060 1.254 . S
C1083 O1061 1.268 . S
H1084 C1069 0.930 . S
H1085 C1070 0.930 . S
H1086 C1072 0.930 . S
H1087 C1073 0.930 . S
H1088 C1078 0.930 . S
H1089 C1079 0.930 . S
H1090 C1081 0.930 . S
H1091 C1082 0.930 . S
Gd1092 N1123 2.661 . S
Gd1092 N1129 2.601 . S
Gd1092 O1136 2.545 . S
Gd1092 O1137 2.606 . S
Gd1092 O1139 2.429 . S
Gd1092 O1140 2.545 . S
Gd1092 O1141 2.412 . S
Gd1092 O1143 2.362 . S
Gd1092 O1144 2.324 . S
Gd1092 C1151 2.828 . S
Gd1093 N1102 2.661 . S
Gd1093 N1106 2.601 . S
Gd1093 O1137 2.362 . S
Gd1093 O1138 2.324 . S
Gd1093 O1142 2.545 . S
Gd1093 O1143 2.606 . S
Gd1093 O1145 2.429 . S
Gd1093 O1146 2.545 . S
Gd1093 O1147 2.412 . S
Gd1093 C1160 2.828 . S
C1094 C1097 1.417 . S
C1094 C1099 1.431 . S
C1094 C1100 1.412 . S
C1095 C1098 1.437 . S
C1095 C1099 1.317 . S
C1095 H1114 0.929 . S
C1096 C1097 1.426 . S
C1096 C1098 1.413 . S
C1096 N1106 1.359 . S
C1097 C1094 1.417 . S
C1097 C1096 1.426 . S
C1097 N1102 1.350 . S
C1098 C1095 1.437 . S
C1098 C1096 1.413 . S
C1098 C1108 1.391 . S
C1099 C1094 1.431 . S
C1099 C1095 1.317 . S
C1099 H1110 0.930 . S
C1100 C1094 1.412 . S
C1100 C1101 1.355 . S
C1100 H1112 0.930 . S
C1101 C1100 1.355 . S
C1101 C1103 1.402 . S
C1101 H1113 0.930 . S
N1102 Gd1093 2.661 . S
N1102 C1097 1.350 . S
N1102 C1103 1.307 . S
C1103 C1101 1.402 . S
C1103 N1102 1.307 . S
C1103 H1104 0.930 . S
H1104 C1103 0.930 . S
C1105 N1106 1.334 . S
C1105 C1107 1.394 . S
C1105 H1109 0.930 . S
N1106 Gd1093 2.601 . S
N1106 C1096 1.359 . S
N1106 C1105 1.334 . S
C1107 C1105 1.394 . S
C1107 C1108 1.359 . S
C1107 H1119 0.930 . S
C1108 C1098 1.391 . S
C1108 C1107 1.359 . S
C1108 H1120 0.929 . S
H1109 C1105 0.930 . S
H1110 C1099 0.930 . S
H1111 C1128 0.930 . S
H1112 C1100 0.930 . S
H1113 C1101 0.930 . S
H1114 C1095 0.929 . S
H1115 C1133 0.930 . S
H1116 C1124 0.930 . S
H1117 C1125 0.930 . S
H1118 C1149 0.929 . S
H1119 C1107 0.930 . S
H1120 C1108 0.929 . S
H1121 C1150 0.930 . S
H1122 C1131 0.930 . S
N1123 Gd1092 2.661 . S
N1123 C1127 1.350 . S
N1123 C1128 1.307 . S
C1124 H1116 0.930 . S
C1124 C1125 1.355 . S
C1124 C1126 1.412 . S
C1125 H1117 0.930 . S
C1125 C1124 1.355 . S
C1125 C1128 1.402 . S
C1126 C1124 1.412 . S
C1126 C1127 1.417 . S
C1126 C1150 1.431 . S
C1127 N1123 1.350 . S
C1127 C1126 1.417 . S
C1127 C1130 1.426 . S
C1128 H1111 0.930 . S
C1128 N1123 1.307 . S
C1128 C1125 1.402 . S
N1129 Gd1092 2.601 . S
N1129 C1130 1.359 . S
N1129 C1133 1.334 . S
C1130 C1127 1.426 . S
C1130 N1129 1.359 . S
C1130 C1134 1.413 . S
C1131 H1122 0.930 . S
C1131 C1132 1.359 . S
C1131 C1133 1.394 . S
C1132 C1131 1.359 . S
C1132 C1134 1.391 . S
C1132 H1135 0.929 . S
C1133 H1115 0.930 . S
C1133 N1129 1.334 . S
C1133 C1131 1.394 . S
C1134 C1130 1.413 . S
C1134 C1132 1.391 . S
C1134 C1149 1.437 . S
H1135 C1132 0.929 . S
O1136 Gd1092 2.545 . S
O1136 C1151 1.258 . S
O1137 Gd1092 2.606 . S
O1137 Gd1093 2.362 . S
O1137 C1148 1.284 . S
O1138 Gd1093 2.324 . S
O1138 C1158 1.254 . S
O1139 Gd1092 2.429 . S
O1139 C1158 1.268 . S
O1140 Gd1092 2.545 . S
O1140 C1148 1.250 . S
O1141 Gd1092 2.412 . S
O1141 C1151 1.252 . S
O1142 Gd1093 2.545 . S
O1142 C1160 1.258 . S
O1143 Gd1092 2.362 . S
O1143 Gd1093 2.606 . S
O1143 C1159 1.284 . S
O1144 Gd1092 2.324 . S
O1144 C1167 1.254 . S
O1145 Gd1093 2.429 . S
O1145 C1167 1.268 . S
O1146 Gd1093 2.545 . S
O1146 C1159 1.250 . S
O1147 Gd1093 2.412 . S
O1147 C1160 1.252 . S
C1148 O1137 1.284 . S
C1148 O1140 1.250 . S
C1149 H1118 0.929 . S
C1149 C1134 1.437 . S
C1149 C1150 1.317 . S
C1150 H1121 0.930 . S
C1150 C1126 1.431 . S
C1150 C1149 1.317 . S
C1151 Gd1092 2.828 . S
C1151 O1136 1.258 . S
C1151 O1141 1.252 . S
C1151 C1152 1.497 . S
C1152 C1151 1.497 . S
C1152 C1153 1.395 . S
C1152 C1154 1.380 . S
C1153 C1152 1.395 . S
C1153 C1156 1.398 . S
C1153 H1168 0.930 . S
C1154 C1152 1.380 . S
C1154 C1155 1.391 . S
C1154 H1169 0.930 . S
C1155 C1154 1.391 . S
C1155 C1157 1.387 . S
C1156 C1153 1.398 . S
C1156 C1157 1.380 . S
C1156 H1170 0.930 . S
C1157 C1155 1.387 . S
C1157 C1156 1.380 . S
C1157 H1171 0.930 . S
C1158 O1138 1.254 . S
C1158 O1139 1.268 . S
C1159 O1143 1.284 . S
C1159 O1146 1.250 . S
C1160 Gd1093 2.828 . S
C1160 O1142 1.258 . S
C1160 O1147 1.252 . S
C1160 C1161 1.497 . S
C1161 C1160 1.497 . S
C1161 C1162 1.395 . S
C1161 C1163 1.380 . S
C1162 C1161 1.395 . S
C1162 C1165 1.398 . S
C1162 H1172 0.930 . S
C1163 C1161 1.380 . S
C1163 C1164 1.391 . S
C1163 H1173 0.930 . S
C1164 C1163 1.391 . S
C1164 C1166 1.387 . S
C1165 C1162 1.398 . S
C1165 C1166 1.380 . S
C1165 H1174 0.930 . S
C1166 C1164 1.387 . S
C1166 C1165 1.380 . S
C1166 H1175 0.930 . S
C1167 O1144 1.254 . S
C1167 O1145 1.268 . S
H1168 C1153 0.930 . S
H1169 C1154 0.930 . S
H1170 C1156 0.930 . S
H1171 C1157 0.930 . S
H1172 C1162 0.930 . S
H1173 C1163 0.930 . S
H1174 C1165 0.930 . S
H1175 C1166 0.930 . S
Gd1176 N1207 2.661 . S
Gd1176 N1213 2.601 . S
Gd1176 O1220 2.545 . S
Gd1176 O1221 2.606 . S
Gd1176 O1223 2.429 . S
Gd1176 O1224 2.545 . S
Gd1176 O1225 2.412 . S
Gd1176 O1227 2.362 . S
Gd1176 O1228 2.324 . S
Gd1176 C1235 2.828 . S
Gd1177 N1186 2.661 . S
Gd1177 N1190 2.601 . S
Gd1177 O1221 2.362 . S
Gd1177 O1222 2.324 . S
Gd1177 O1226 2.545 . S
Gd1177 O1227 2.606 . S
Gd1177 O1229 2.429 . S
Gd1177 O1230 2.545 . S
Gd1177 O1231 2.412 . S
Gd1177 C1244 2.828 . S
C1178 C1181 1.417 . S
C1178 C1183 1.431 . S
C1178 C1184 1.412 . S
C1179 C1182 1.437 . S
C1179 C1183 1.317 . S
C1179 H1198 0.929 . S
C1180 C1181 1.426 . S
C1180 C1182 1.413 . S
C1180 N1190 1.359 . S
C1181 C1178 1.417 . S
C1181 C1180 1.426 . S
C1181 N1186 1.350 . S
C1182 C1179 1.437 . S
C1182 C1180 1.413 . S
C1182 C1192 1.391 . S
C1183 C1178 1.431 . S
C1183 C1179 1.317 . S
C1183 H1194 0.930 . S
C1184 C1178 1.412 . S
C1184 C1185 1.355 . S
C1184 H1196 0.930 . S
C1185 C1184 1.355 . S
C1185 C1187 1.402 . S
C1185 H1197 0.930 . S
N1186 Gd1177 2.661 . S
N1186 C1181 1.350 . S
N1186 C1187 1.307 . S
C1187 C1185 1.402 . S
C1187 N1186 1.307 . S
C1187 H1188 0.930 . S
H1188 C1187 0.930 . S
C1189 N1190 1.334 . S
C1189 C1191 1.394 . S
C1189 H1193 0.930 . S
N1190 Gd1177 2.601 . S
N1190 C1180 1.359 . S
N1190 C1189 1.334 . S
C1191 C1189 1.394 . S
C1191 C1192 1.359 . S
C1191 H1203 0.930 . S
C1192 C1182 1.391 . S
C1192 C1191 1.359 . S
C1192 H1204 0.929 . S
H1193 C1189 0.930 . S
H1194 C1183 0.930 . S
H1195 C1212 0.930 . S
H1196 C1184 0.930 . S
H1197 C1185 0.930 . S
H1198 C1179 0.929 . S
H1199 C1217 0.930 . S
H1200 C1208 0.930 . S
H1201 C1209 0.930 . S
H1202 C1233 0.929 . S
H1203 C1191 0.930 . S
H1204 C1192 0.929 . S
H1205 C1234 0.930 . S
H1206 C1215 0.930 . S
N1207 Gd1176 2.661 . S
N1207 C1211 1.350 . S
N1207 C1212 1.307 . S
C1208 H1200 0.930 . S
C1208 C1209 1.355 . S
C1208 C1210 1.412 . S
C1209 H1201 0.930 . S
C1209 C1208 1.355 . S
C1209 C1212 1.402 1_655 S
C1210 C1208 1.412 . S
C1210 C1211 1.417 1_655 S
C1210 C1234 1.431 . S
C1211 N1207 1.350 . S
C1211 C1210 1.417 1_455 S
C1211 C1214 1.426 . S
C1212 H1195 0.930 . S
C1212 N1207 1.307 . S
C1212 C1209 1.402 1_455 S
N1213 Gd1176 2.601 . S
N1213 C1214 1.359 . S
N1213 C1217 1.334 . S
C1214 C1211 1.426 . S
C1214 N1213 1.359 . S
C1214 C1218 1.413 1_455 S
C1215 H1206 0.930 . S
C1215 C1216 1.359 1_455 S
C1215 C1217 1.394 . S
C1216 C1215 1.359 1_655 S
C1216 C1218 1.391 . S
C1216 H1219 0.929 . S
C1217 H1199 0.930 . S
C1217 N1213 1.334 . S
C1217 C1215 1.394 . S
C1218 C1214 1.413 1_655 S
C1218 C1216 1.391 . S
C1218 C1233 1.437 . S
H1219 C1216 0.929 . S
O1220 Gd1176 2.545 . S
O1220 C1235 1.258 . S
O1221 Gd1176 2.606 . S
O1221 Gd1177 2.362 . S
O1221 C1232 1.284 . S
O1222 Gd1177 2.324 . S
O1222 C1242 1.254 . S
O1223 Gd1176 2.429 . S
O1223 C1242 1.268 . S
O1224 Gd1176 2.545 . S
O1224 C1232 1.250 . S
O1225 Gd1176 2.412 . S
O1225 C1235 1.252 . S
O1226 Gd1177 2.545 . S
O1226 C1244 1.258 . S
O1227 Gd1176 2.362 . S
O1227 Gd1177 2.606 . S
O1227 C1243 1.284 . S
O1228 Gd1176 2.324 . S
O1228 C1251 1.254 . S
O1229 Gd1177 2.429 . S
O1229 C1251 1.268 . S
O1230 Gd1177 2.545 . S
O1230 C1243 1.250 . S
O1231 Gd1177 2.412 . S
O1231 C1244 1.252 . S
C1232 O1221 1.284 . S
C1232 O1224 1.250 . S
C1233 H1202 0.929 . S
C1233 C1218 1.437 . S
C1233 C1234 1.317 . S
C1234 H1205 0.930 . S
C1234 C1210 1.431 . S
C1234 C1233 1.317 . S
C1235 Gd1176 2.828 . S
C1235 O1220 1.258 . S
C1235 O1225 1.252 . S
C1235 C1236 1.497 . S
C1236 C1235 1.497 . S
C1236 C1237 1.395 . S
C1236 C1238 1.380 . S
C1237 C1236 1.395 . S
C1237 C1240 1.398 . S
C1237 H1252 0.930 . S
C1238 C1236 1.380 . S
C1238 C1239 1.391 . S
C1238 H1253 0.930 . S
C1239 C1238 1.391 . S
C1239 C1241 1.387 . S
C1240 C1237 1.398 . S
C1240 C1241 1.380 . S
C1240 H1254 0.930 . S
C1241 C1239 1.387 . S
C1241 C1240 1.380 . S
C1241 H1255 0.930 . S
C1242 O1222 1.254 . S
C1242 O1223 1.268 . S
C1243 O1227 1.284 . S
C1243 O1230 1.250 . S
C1244 Gd1177 2.828 . S
C1244 O1226 1.258 . S
C1244 O1231 1.252 . S
C1244 C1245 1.497 . S
C1245 C1244 1.497 . S
C1245 C1246 1.395 . S
C1245 C1247 1.380 . S
C1246 C1245 1.395 . S
C1246 C1249 1.398 . S
C1246 H1256 0.930 . S
C1247 C1245 1.380 . S
C1247 C1248 1.391 . S
C1247 H1257 0.930 . S
C1248 C1247 1.391 . S
C1248 C1250 1.387 . S
C1249 C1246 1.398 . S
C1249 C1250 1.380 . S
C1249 H1258 0.930 . S
C1250 C1248 1.387 . S
C1250 C1249 1.380 . S
C1250 H1259 0.930 . S
C1251 O1228 1.254 . S
C1251 O1229 1.268 . S
H1252 C1237 0.930 . S
H1253 C1238 0.930 . S
H1254 C1240 0.930 . S
H1255 C1241 0.930 . S
H1256 C1246 0.930 . S
H1257 C1247 0.930 . S
H1258 C1249 0.930 . S
H1259 C1250 0.930 . S
Gd1260 N1291 2.661 . S
Gd1260 N1297 2.601 . S
Gd1260 O1304 2.545 . S
Gd1260 O1305 2.606 . S
Gd1260 O1307 2.429 . S
Gd1260 O1308 2.545 . S
Gd1260 O1309 2.412 . S
Gd1260 O1311 2.362 . S
Gd1260 O1312 2.324 . S
Gd1260 C1319 2.828 . S
Gd1261 N1270 2.661 . S
Gd1261 N1274 2.601 . S
Gd1261 O1305 2.362 . S
Gd1261 O1306 2.324 . S
Gd1261 O1310 2.545 . S
Gd1261 O1311 2.606 . S
Gd1261 O1313 2.429 . S
Gd1261 O1314 2.545 . S
Gd1261 O1315 2.412 . S
Gd1261 C1328 2.828 . S
C1262 C1265 1.417 . S
C1262 C1267 1.431 . S
C1262 C1268 1.412 . S
C1263 C1266 1.437 . S
C1263 C1267 1.317 . S
C1263 H1282 0.929 . S
C1264 C1265 1.426 . S
C1264 C1266 1.413 . S
C1264 N1274 1.359 . S
C1265 C1262 1.417 . S
C1265 C1264 1.426 . S
C1265 N1270 1.350 . S
C1266 C1263 1.437 . S
C1266 C1264 1.413 . S
C1266 C1276 1.391 . S
C1267 C1262 1.431 . S
C1267 C1263 1.317 . S
C1267 H1278 0.930 . S
C1268 C1262 1.412 . S
C1268 C1269 1.355 . S
C1268 H1280 0.930 . S
C1269 C1268 1.355 . S
C1269 C1271 1.402 . S
C1269 H1281 0.930 . S
N1270 Gd1261 2.661 . S
N1270 C1265 1.350 . S
N1270 C1271 1.307 . S
C1271 C1269 1.402 . S
C1271 N1270 1.307 . S
C1271 H1272 0.930 . S
H1272 C1271 0.930 . S
C1273 N1274 1.334 . S
C1273 C1275 1.394 . S
C1273 H1277 0.930 . S
N1274 Gd1261 2.601 . S
N1274 C1264 1.359 . S
N1274 C1273 1.334 . S
C1275 C1273 1.394 . S
C1275 C1276 1.359 . S
C1275 H1287 0.930 . S
C1276 C1266 1.391 . S
C1276 C1275 1.359 . S
C1276 H1288 0.929 . S
H1277 C1273 0.930 . S
H1278 C1267 0.930 . S
H1279 C1296 0.930 . S
H1280 C1268 0.930 . S
H1281 C1269 0.930 . S
H1282 C1263 0.929 . S
H1283 C1301 0.930 . S
H1284 C1292 0.930 . S
H1285 C1293 0.930 . S
H1286 C1317 0.929 . S
H1287 C1275 0.930 . S
H1288 C1276 0.929 . S
H1289 C1318 0.930 . S
H1290 C1299 0.930 . S
N1291 Gd1260 2.661 . S
N1291 C1295 1.350 . S
N1291 C1296 1.307 . S
C1292 H1284 0.930 . S
C1292 C1293 1.355 . S
C1292 C1294 1.412 . S
C1293 H1285 0.930 . S
C1293 C1292 1.355 . S
C1293 C1296 1.402 . S
C1294 C1292 1.412 . S
C1294 C1295 1.417 . S
C1294 C1318 1.431 . S
C1295 N1291 1.350 . S
C1295 C1294 1.417 . S
C1295 C1298 1.426 . S
C1296 H1279 0.930 . S
C1296 N1291 1.307 . S
C1296 C1293 1.402 . S
N1297 Gd1260 2.601 . S
N1297 C1298 1.359 . S
N1297 C1301 1.334 . S
C1298 C1295 1.426 . S
C1298 N1297 1.359 . S
C1298 C1302 1.413 . S
C1299 H1290 0.930 . S
C1299 C1300 1.359 . S
C1299 C1301 1.394 . S
C1300 C1299 1.359 . S
C1300 C1302 1.391 . S
C1300 H1303 0.929 . S
C1301 H1283 0.930 . S
C1301 N1297 1.334 . S
C1301 C1299 1.394 . S
C1302 C1298 1.413 . S
C1302 C1300 1.391 . S
C1302 C1317 1.437 . S
H1303 C1300 0.929 . S
O1304 Gd1260 2.545 . S
O1304 C1319 1.258 . S
O1305 Gd1260 2.606 . S
O1305 Gd1261 2.362 . S
O1305 C1316 1.284 . S
O1306 Gd1261 2.324 . S
O1306 C1326 1.254 . S
O1307 Gd1260 2.429 . S
O1307 C1326 1.268 . S
O1308 Gd1260 2.545 . S
O1308 C1316 1.250 . S
O1309 Gd1260 2.412 . S
O1309 C1319 1.252 . S
O1310 Gd1261 2.545 . S
O1310 C1328 1.258 . S
O1311 Gd1260 2.362 . S
O1311 Gd1261 2.606 . S
O1311 C1327 1.284 . S
O1312 Gd1260 2.324 . S
O1312 C1335 1.254 . S
O1313 Gd1261 2.429 . S
O1313 C1335 1.268 . S
O1314 Gd1261 2.545 . S
O1314 C1327 1.250 . S
O1315 Gd1261 2.412 . S
O1315 C1328 1.252 . S
C1316 O1305 1.284 . S
C1316 O1308 1.250 . S
C1317 H1286 0.929 . S
C1317 C1302 1.437 . S
C1317 C1318 1.317 . S
C1318 H1289 0.930 . S
C1318 C1294 1.431 . S
C1318 C1317 1.317 . S
C1319 Gd1260 2.828 . S
C1319 O1304 1.258 . S
C1319 O1309 1.252 . S
C1319 C1320 1.497 . S
C1320 C1319 1.497 . S
C1320 C1321 1.395 . S
C1320 C1322 1.380 . S
C1321 C1320 1.395 . S
C1321 C1324 1.398 . S
C1321 H1336 0.930 . S
C1322 C1320 1.380 . S
C1322 C1323 1.391 . S
C1322 H1337 0.930 . S
C1323 C1322 1.391 . S
C1323 C1325 1.387 . S
C1324 C1321 1.398 . S
C1324 C1325 1.380 . S
C1324 H1338 0.930 . S
C1325 C1323 1.387 . S
C1325 C1324 1.380 . S
C1325 H1339 0.930 . S
C1326 O1306 1.254 . S
C1326 O1307 1.268 . S
C1327 O1311 1.284 . S
C1327 O1314 1.250 . S
C1328 Gd1261 2.828 . S
C1328 O1310 1.258 . S
C1328 O1315 1.252 . S
C1328 C1329 1.497 . S
C1329 C1328 1.497 . S
C1329 C1330 1.395 . S
C1329 C1331 1.380 . S
C1330 C1329 1.395 . S
C1330 C1333 1.398 . S
C1330 H1340 0.930 . S
C1331 C1329 1.380 . S
C1331 C1332 1.391 . S
C1331 H1341 0.930 . S
C1332 C1331 1.391 . S
C1332 C1334 1.387 . S
C1333 C1330 1.398 . S
C1333 C1334 1.380 . S
C1333 H1342 0.930 . S
C1334 C1332 1.387 . S
C1334 C1333 1.380 . S
C1334 H1343 0.930 . S
C1335 O1312 1.254 . S
C1335 O1313 1.268 . S
H1336 C1321 0.930 . S
H1337 C1322 0.930 . S
H1338 C1324 0.930 . S
H1339 C1325 0.930 . S
H1340 C1330 0.930 . S
H1341 C1331 0.930 . S
H1342 C1333 0.930 . S
H1343 C1334 0.930 . S
Gd1344 N1375 2.661 . S
Gd1344 N1381 2.601 . S
Gd1344 O1388 2.545 . S
Gd1344 O1389 2.606 . S
Gd1344 O1391 2.429 . S
Gd1344 O1392 2.545 . S
Gd1344 O1393 2.412 . S
Gd1344 O1395 2.362 . S
Gd1344 O1396 2.324 . S
Gd1344 C1403 2.828 . S
Gd1345 N1354 2.661 . S
Gd1345 N1358 2.601 . S
Gd1345 O1389 2.362 . S
Gd1345 O1390 2.324 . S
Gd1345 O1394 2.545 . S
Gd1345 O1395 2.606 . S
Gd1345 O1397 2.429 . S
Gd1345 O1398 2.545 . S
Gd1345 O1399 2.412 . S
Gd1345 C1412 2.828 . S
C1346 C1349 1.417 . S
C1346 C1351 1.431 . S
C1346 C1352 1.412 . S
C1347 C1350 1.437 . S
C1347 C1351 1.317 . S
C1347 H1366 0.929 . S
C1348 C1349 1.426 . S
C1348 C1350 1.413 . S
C1348 N1358 1.359 . S
C1349 C1346 1.417 . S
C1349 C1348 1.426 . S
C1349 N1354 1.350 . S
C1350 C1347 1.437 . S
C1350 C1348 1.413 . S
C1350 C1360 1.391 . S
C1351 C1346 1.431 . S
C1351 C1347 1.317 . S
C1351 H1362 0.930 . S
C1352 C1346 1.412 . S
C1352 C1353 1.355 . S
C1352 H1364 0.930 . S
C1353 C1352 1.355 . S
C1353 C1355 1.402 . S
C1353 H1365 0.930 . S
N1354 Gd1345 2.661 . S
N1354 C1349 1.350 . S
N1354 C1355 1.307 . S
C1355 C1353 1.402 . S
C1355 N1354 1.307 . S
C1355 H1356 0.930 . S
H1356 C1355 0.930 . S
C1357 N1358 1.334 . S
C1357 C1359 1.394 . S
C1357 H1361 0.930 . S
N1358 Gd1345 2.601 . S
N1358 C1348 1.359 . S
N1358 C1357 1.334 . S
C1359 C1357 1.394 . S
C1359 C1360 1.359 . S
C1359 H1371 0.930 . S
C1360 C1350 1.391 . S
C1360 C1359 1.359 . S
C1360 H1372 0.929 . S
H1361 C1357 0.930 . S
H1362 C1351 0.930 . S
H1363 C1380 0.930 . S
H1364 C1352 0.930 . S
H1365 C1353 0.930 . S
H1366 C1347 0.929 . S
H1367 C1385 0.930 . S
H1368 C1376 0.930 . S
H1369 C1377 0.930 . S
H1370 C1401 0.929 . S
H1371 C1359 0.930 . S
H1372 C1360 0.929 . S
H1373 C1402 0.930 . S
H1374 C1383 0.930 . S
N1375 Gd1344 2.661 . S
N1375 C1379 1.350 . S
N1375 C1380 1.307 . S
C1376 H1368 0.930 . S
C1376 C1377 1.355 . S
C1376 C1378 1.412 . S
C1377 H1369 0.930 . S
C1377 C1376 1.355 . S
C1377 C1380 1.402 . S
C1378 C1376 1.412 . S
C1378 C1379 1.417 . S
C1378 C1402 1.431 . S
C1379 N1375 1.350 . S
C1379 C1378 1.417 . S
C1379 C1382 1.426 . S
C1380 H1363 0.930 . S
C1380 N1375 1.307 . S
C1380 C1377 1.402 . S
N1381 Gd1344 2.601 . S
N1381 C1382 1.359 . S
N1381 C1385 1.334 . S
C1382 C1379 1.426 . S
C1382 N1381 1.359 . S
C1382 C1386 1.413 . S
C1383 H1374 0.930 . S
C1383 C1384 1.359 . S
C1383 C1385 1.394 . S
C1384 C1383 1.359 . S
C1384 C1386 1.391 . S
C1384 H1387 0.929 . S
C1385 H1367 0.930 . S
C1385 N1381 1.334 . S
C1385 C1383 1.394 . S
C1386 C1382 1.413 . S
C1386 C1384 1.391 . S
C1386 C1401 1.437 . S
H1387 C1384 0.929 . S
O1388 Gd1344 2.545 . S
O1388 C1403 1.258 . S
O1389 Gd1344 2.606 . S
O1389 Gd1345 2.362 . S
O1389 C1400 1.284 . S
O1390 Gd1345 2.324 . S
O1390 C1410 1.254 . S
O1391 Gd1344 2.429 . S
O1391 C1410 1.268 . S
O1392 Gd1344 2.545 . S
O1392 C1400 1.250 . S
O1393 Gd1344 2.412 . S
O1393 C1403 1.252 . S
O1394 Gd1345 2.545 . S
O1394 C1412 1.258 . S
O1395 Gd1344 2.362 . S
O1395 Gd1345 2.606 . S
O1395 C1411 1.284 . S
O1396 Gd1344 2.324 . S
O1396 C1419 1.254 . S
O1397 Gd1345 2.429 . S
O1397 C1419 1.268 . S
O1398 Gd1345 2.545 . S
O1398 C1411 1.250 . S
O1399 Gd1345 2.412 . S
O1399 C1412 1.252 . S
C1400 O1389 1.284 . S
C1400 O1392 1.250 . S
C1401 H1370 0.929 . S
C1401 C1386 1.437 . S
C1401 C1402 1.317 . S
C1402 H1373 0.930 . S
C1402 C1378 1.431 . S
C1402 C1401 1.317 . S
C1403 Gd1344 2.828 . S
C1403 O1388 1.258 . S
C1403 O1393 1.252 . S
C1403 C1404 1.497 . S
C1404 C1403 1.497 . S
C1404 C1405 1.395 . S
C1404 C1406 1.380 . S
C1405 C1404 1.395 . S
C1405 C1408 1.398 . S
C1405 H1420 0.930 . S
C1406 C1404 1.380 . S
C1406 C1407 1.391 . S
C1406 H1421 0.930 . S
C1407 C1406 1.391 . S
C1407 C1409 1.387 . S
C1408 C1405 1.398 . S
C1408 C1409 1.380 . S
C1408 H1422 0.930 . S
C1409 C1407 1.387 . S
C1409 C1408 1.380 . S
C1409 H1423 0.930 . S
C1410 O1390 1.254 . S
C1410 O1391 1.268 . S
C1411 O1395 1.284 . S
C1411 O1398 1.250 . S
C1412 Gd1345 2.828 . S
C1412 O1394 1.258 . S
C1412 O1399 1.252 . S
C1412 C1413 1.497 . S
C1413 C1412 1.497 . S
C1413 C1414 1.395 . S
C1413 C1415 1.380 . S
C1414 C1413 1.395 . S
C1414 C1417 1.398 . S
C1414 H1424 0.930 . S
C1415 C1413 1.380 . S
C1415 C1416 1.391 . S
C1415 H1425 0.930 . S
C1416 C1415 1.391 . S
C1416 C1418 1.387 . S
C1417 C1414 1.398 . S
C1417 C1418 1.380 . S
C1417 H1426 0.930 . S
C1418 C1416 1.387 . S
C1418 C1417 1.380 . S
C1418 H1427 0.930 . S
C1419 O1396 1.254 . S
C1419 O1397 1.268 . S
H1420 C1405 0.930 . S
H1421 C1406 0.930 . S
H1422 C1408 0.930 . S
H1423 C1409 0.930 . S
H1424 C1414 0.930 . S
H1425 C1415 0.930 . S
H1426 C1417 0.930 . S
H1427 C1418 0.930 . S
Gd1428 N1459 2.661 . S
Gd1428 N1465 2.601 . S
Gd1428 O1472 2.545 . S
Gd1428 O1473 2.606 . S
Gd1428 O1475 2.429 . S
Gd1428 O1476 2.545 . S
Gd1428 O1477 2.412 . S
Gd1428 O1479 2.362 . S
Gd1428 O1480 2.324 . S
Gd1428 C1487 2.828 . S
Gd1429 N1438 2.661 . S
Gd1429 N1442 2.601 . S
Gd1429 O1473 2.362 . S
Gd1429 O1474 2.324 . S
Gd1429 O1478 2.545 . S
Gd1429 O1479 2.606 . S
Gd1429 O1481 2.429 . S
Gd1429 O1482 2.545 . S
Gd1429 O1483 2.412 . S
Gd1429 C1496 2.828 . S
C1430 C1433 1.417 . S
C1430 C1435 1.431 . S
C1430 C1436 1.412 . S
C1431 C1434 1.437 . S
C1431 C1435 1.317 . S
C1431 H1450 0.929 . S
C1432 C1433 1.426 . S
C1432 C1434 1.413 . S
C1432 N1442 1.359 . S
C1433 C1430 1.417 . S
C1433 C1432 1.426 . S
C1433 N1438 1.350 . S
C1434 C1431 1.437 . S
C1434 C1432 1.413 . S
C1434 C1444 1.391 . S
C1435 C1430 1.431 . S
C1435 C1431 1.317 . S
C1435 H1446 0.930 . S
C1436 C1430 1.412 . S
C1436 C1437 1.355 . S
C1436 H1448 0.930 . S
C1437 C1436 1.355 . S
C1437 C1439 1.402 . S
C1437 H1449 0.930 . S
N1438 Gd1429 2.661 . S
N1438 C1433 1.350 . S
N1438 C1439 1.307 . S
C1439 C1437 1.402 . S
C1439 N1438 1.307 . S
C1439 H1440 0.930 . S
H1440 C1439 0.930 . S
C1441 N1442 1.334 . S
C1441 C1443 1.394 . S
C1441 H1445 0.930 . S
N1442 Gd1429 2.601 . S
N1442 C1432 1.359 . S
N1442 C1441 1.334 . S
C1443 C1441 1.394 . S
C1443 C1444 1.359 . S
C1443 H1455 0.930 . S
C1444 C1434 1.391 . S
C1444 C1443 1.359 . S
C1444 H1456 0.929 . S
H1445 C1441 0.930 . S
H1446 C1435 0.930 . S
H1447 C1464 0.930 . S
H1448 C1436 0.930 . S
H1449 C1437 0.930 . S
H1450 C1431 0.929 . S
H1451 C1469 0.930 . S
H1452 C1460 0.930 . S
H1453 C1461 0.930 . S
H1454 C1485 0.929 . S
H1455 C1443 0.930 . S
H1456 C1444 0.929 . S
H1457 C1486 0.930 . S
H1458 C1467 0.930 . S
N1459 Gd1428 2.661 . S
N1459 C1463 1.350 . S
N1459 C1464 1.307 . S
C1460 H1452 0.930 . S
C1460 C1461 1.355 . S
C1460 C1462 1.412 . S
C1461 H1453 0.930 . S
C1461 C1460 1.355 . S
C1461 C1464 1.402 . S
C1462 C1460 1.412 . S
C1462 C1463 1.417 . S
C1462 C1486 1.431 . S
C1463 N1459 1.350 . S
C1463 C1462 1.417 . S
C1463 C1466 1.426 . S
C1464 H1447 0.930 . S
C1464 N1459 1.307 . S
C1464 C1461 1.402 . S
N1465 Gd1428 2.601 . S
N1465 C1466 1.359 . S
N1465 C1469 1.334 . S
C1466 C1463 1.426 . S
C1466 N1465 1.359 . S
C1466 C1470 1.413 . S
C1467 H1458 0.930 . S
C1467 C1468 1.359 . S
C1467 C1469 1.394 . S
C1468 C1467 1.359 . S
C1468 C1470 1.391 . S
C1468 H1471 0.929 . S
C1469 H1451 0.930 . S
C1469 N1465 1.334 . S
C1469 C1467 1.394 . S
C1470 C1466 1.413 . S
C1470 C1468 1.391 . S
C1470 C1485 1.437 . S
H1471 C1468 0.929 . S
O1472 Gd1428 2.545 . S
O1472 C1487 1.258 . S
O1473 Gd1428 2.606 . S
O1473 Gd1429 2.362 . S
O1473 C1484 1.284 . S
O1474 Gd1429 2.324 . S
O1474 C1494 1.254 . S
O1475 Gd1428 2.429 . S
O1475 C1494 1.268 . S
O1476 Gd1428 2.545 . S
O1476 C1484 1.250 . S
O1477 Gd1428 2.412 . S
O1477 C1487 1.252 . S
O1478 Gd1429 2.545 . S
O1478 C1496 1.258 . S
O1479 Gd1428 2.362 . S
O1479 Gd1429 2.606 . S
O1479 C1495 1.284 . S
O1480 Gd1428 2.324 . S
O1480 C1503 1.254 . S
O1481 Gd1429 2.429 . S
O1481 C1503 1.268 . S
O1482 Gd1429 2.545 . S
O1482 C1495 1.250 . S
O1483 Gd1429 2.412 . S
O1483 C1496 1.252 . S
C1484 O1473 1.284 . S
C1484 O1476 1.250 . S
C1485 H1454 0.929 . S
C1485 C1470 1.437 . S
C1485 C1486 1.317 . S
C1486 H1457 0.930 . S
C1486 C1462 1.431 . S
C1486 C1485 1.317 . S
C1487 Gd1428 2.828 . S
C1487 O1472 1.258 . S
C1487 O1477 1.252 . S
C1487 C1488 1.497 . S
C1488 C1487 1.497 . S
C1488 C1489 1.395 . S
C1488 C1490 1.380 . S
C1489 C1488 1.395 . S
C1489 C1492 1.398 . S
C1489 H1504 0.930 . S
C1490 C1488 1.380 . S
C1490 C1491 1.391 . S
C1490 H1505 0.930 . S
C1491 C1490 1.391 . S
C1491 C1493 1.387 . S
C1492 C1489 1.398 . S
C1492 C1493 1.380 . S
C1492 H1506 0.930 . S
C1493 C1491 1.387 . S
C1493 C1492 1.380 . S
C1493 H1507 0.930 . S
C1494 O1474 1.254 . S
C1494 O1475 1.268 . S
C1495 O1479 1.284 . S
C1495 O1482 1.250 . S
C1496 Gd1429 2.828 . S
C1496 O1478 1.258 . S
C1496 O1483 1.252 . S
C1496 C1497 1.497 . S
C1497 C1496 1.497 . S
C1497 C1498 1.395 . S
C1497 C1499 1.380 . S
C1498 C1497 1.395 . S
C1498 C1501 1.398 . S
C1498 H1508 0.930 . S
C1499 C1497 1.380 . S
C1499 C1500 1.391 . S
C1499 H1509 0.930 . S
C1500 C1499 1.391 . S
C1500 C1502 1.387 . S
C1501 C1498 1.398 . S
C1501 C1502 1.380 . S
C1501 H1510 0.930 . S
C1502 C1500 1.387 . S
C1502 C1501 1.380 . S
C1502 H1511 0.930 . S
C1503 O1480 1.254 . S
C1503 O1481 1.268 . S
H1504 C1489 0.930 . S
H1505 C1490 0.930 . S
H1506 C1492 0.930 . S
H1507 C1493 0.930 . S
H1508 C1498 0.930 . S
H1509 C1499 0.930 . S
H1510 C1501 0.930 . S
H1511 C1502 0.930 . S
Gd1512 N1543 2.661 . S
Gd1512 N1549 2.601 . S
Gd1512 O1556 2.545 . S
Gd1512 O1557 2.606 . S
Gd1512 O1559 2.429 . S
Gd1512 O1560 2.545 . S
Gd1512 O1561 2.412 . S
Gd1512 O1563 2.362 . S
Gd1512 O1564 2.324 . S
Gd1512 C1571 2.828 . S
Gd1513 N1522 2.661 . S
Gd1513 N1526 2.601 . S
Gd1513 O1557 2.362 . S
Gd1513 O1558 2.324 . S
Gd1513 O1562 2.545 . S
Gd1513 O1563 2.606 . S
Gd1513 O1565 2.429 . S
Gd1513 O1566 2.545 . S
Gd1513 O1567 2.412 . S
Gd1513 C1580 2.828 . S
C1514 C1517 1.417 . S
C1514 C1519 1.431 . S
C1514 C1520 1.412 . S
C1515 C1518 1.437 . S
C1515 C1519 1.317 . S
C1515 H1534 0.929 . S
C1516 C1517 1.426 . S
C1516 C1518 1.413 . S
C1516 N1526 1.359 . S
C1517 C1514 1.417 . S
C1517 C1516 1.426 . S
C1517 N1522 1.350 . S
C1518 C1515 1.437 . S
C1518 C1516 1.413 . S
C1518 C1528 1.391 . S
C1519 C1514 1.431 . S
C1519 C1515 1.317 . S
C1519 H1530 0.930 . S
C1520 C1514 1.412 . S
C1520 C1521 1.355 . S
C1520 H1532 0.930 . S
C1521 C1520 1.355 . S
C1521 C1523 1.402 . S
C1521 H1533 0.930 . S
N1522 Gd1513 2.661 . S
N1522 C1517 1.350 . S
N1522 C1523 1.307 . S
C1523 C1521 1.402 . S
C1523 N1522 1.307 . S
C1523 H1524 0.930 . S
H1524 C1523 0.930 . S
C1525 N1526 1.334 . S
C1525 C1527 1.394 . S
C1525 H1529 0.930 . S
N1526 Gd1513 2.601 . S
N1526 C1516 1.359 . S
N1526 C1525 1.334 . S
C1527 C1525 1.394 . S
C1527 C1528 1.359 . S
C1527 H1539 0.930 . S
C1528 C1518 1.391 . S
C1528 C1527 1.359 . S
C1528 H1540 0.929 . S
H1529 C1525 0.930 . S
H1530 C1519 0.930 . S
H1531 C1548 0.930 . S
H1532 C1520 0.930 . S
H1533 C1521 0.930 . S
H1534 C1515 0.929 . S
H1535 C1553 0.930 . S
H1536 C1544 0.930 . S
H1537 C1545 0.930 . S
H1538 C1569 0.929 . S
H1539 C1527 0.930 . S
H1540 C1528 0.929 . S
H1541 C1570 0.930 . S
H1542 C1551 0.930 . S
N1543 Gd1512 2.661 . S
N1543 C1547 1.350 . S
N1543 C1548 1.307 . S
C1544 H1536 0.930 . S
C1544 C1545 1.355 . S
C1544 C1546 1.412 . S
C1545 H1537 0.930 . S
C1545 C1544 1.355 . S
C1545 C1548 1.402 . S
C1546 C1544 1.412 . S
C1546 C1547 1.417 . S
C1546 C1570 1.431 . S
C1547 N1543 1.350 . S
C1547 C1546 1.417 . S
C1547 C1550 1.426 . S
C1548 H1531 0.930 . S
C1548 N1543 1.307 . S
C1548 C1545 1.402 . S
N1549 Gd1512 2.601 . S
N1549 C1550 1.359 . S
N1549 C1553 1.334 . S
C1550 C1547 1.426 . S
C1550 N1549 1.359 . S
C1550 C1554 1.413 . S
C1551 H1542 0.930 . S
C1551 C1552 1.359 . S
C1551 C1553 1.394 . S
C1552 C1551 1.359 . S
C1552 C1554 1.391 . S
C1552 H1555 0.929 . S
C1553 H1535 0.930 . S
C1553 N1549 1.334 . S
C1553 C1551 1.394 . S
C1554 C1550 1.413 . S
C1554 C1552 1.391 . S
C1554 C1569 1.437 . S
H1555 C1552 0.929 . S
O1556 Gd1512 2.545 . S
O1556 C1571 1.258 . S
O1557 Gd1512 2.606 . S
O1557 Gd1513 2.362 . S
O1557 C1568 1.284 . S
O1558 Gd1513 2.324 . S
O1558 C1578 1.254 . S
O1559 Gd1512 2.429 . S
O1559 C1578 1.268 . S
O1560 Gd1512 2.545 . S
O1560 C1568 1.250 . S
O1561 Gd1512 2.412 . S
O1561 C1571 1.252 . S
O1562 Gd1513 2.545 . S
O1562 C1580 1.258 . S
O1563 Gd1512 2.362 . S
O1563 Gd1513 2.606 . S
O1563 C1579 1.284 . S
O1564 Gd1512 2.324 . S
O1564 C1587 1.254 . S
O1565 Gd1513 2.429 . S
O1565 C1587 1.268 . S
O1566 Gd1513 2.545 . S
O1566 C1579 1.250 . S
O1567 Gd1513 2.412 . S
O1567 C1580 1.252 . S
C1568 O1557 1.284 . S
C1568 O1560 1.250 . S
C1569 H1538 0.929 . S
C1569 C1554 1.437 . S
C1569 C1570 1.317 . S
C1570 H1541 0.930 . S
C1570 C1546 1.431 . S
C1570 C1569 1.317 . S
C1571 Gd1512 2.828 . S
C1571 O1556 1.258 . S
C1571 O1561 1.252 . S
C1571 C1572 1.497 . S
C1572 C1571 1.497 . S
C1572 C1573 1.395 . S
C1572 C1574 1.380 . S
C1573 C1572 1.395 . S
C1573 C1576 1.398 . S
C1573 H1588 0.930 . S
C1574 C1572 1.380 . S
C1574 C1575 1.391 . S
C1574 H1589 0.930 . S
C1575 C1574 1.391 . S
C1575 C1577 1.387 . S
C1576 C1573 1.398 . S
C1576 C1577 1.380 . S
C1576 H1590 0.930 . S
C1577 C1575 1.387 . S
C1577 C1576 1.380 . S
C1577 H1591 0.930 . S
C1578 O1558 1.254 . S
C1578 O1559 1.268 . S
C1579 O1563 1.284 . S
C1579 O1566 1.250 . S
C1580 Gd1513 2.828 . S
C1580 O1562 1.258 . S
C1580 O1567 1.252 . S
C1580 C1581 1.497 . S
C1581 C1580 1.497 . S
C1581 C1582 1.395 . S
C1581 C1583 1.380 . S
C1582 C1581 1.395 . S
C1582 C1585 1.398 . S
C1582 H1592 0.930 . S
C1583 C1581 1.380 . S
C1583 C1584 1.391 . S
C1583 H1593 0.930 . S
C1584 C1583 1.391 . S
C1584 C1586 1.387 . S
C1585 C1582 1.398 . S
C1585 C1586 1.380 . S
C1585 H1594 0.930 . S
C1586 C1584 1.387 . S
C1586 C1585 1.380 . S
C1586 H1595 0.930 . S
C1587 O1564 1.254 . S
C1587 O1565 1.268 . S
H1588 C1573 0.930 . S
H1589 C1574 0.930 . S
H1590 C1576 0.930 . S
H1591 C1577 0.930 . S
H1592 C1582 0.930 . S
H1593 C1583 0.930 . S
H1594 C1585 0.930 . S
H1595 C1586 0.930 . S
Gd1596 N1627 2.661 . S
Gd1596 N1633 2.601 . S
Gd1596 O1640 2.545 . S
Gd1596 O1641 2.606 . S
Gd1596 O1643 2.429 . S
Gd1596 O1644 2.545 . S
Gd1596 O1645 2.412 1_455 S
Gd1596 O1647 2.362 . S
Gd1596 O1648 2.266 1_554 S
Gd1596 C1655 2.828 1_455 S
Gd1597 N1606 2.661 . S
Gd1597 N1610 2.601 1_554 S
Gd1597 O1641 2.362 . S
Gd1597 O1642 2.324 . S
Gd1597 O1646 2.545 1_554 S
Gd1597 O1647 2.606 . S
Gd1597 O1649 2.429 1_554 S
Gd1597 O1650 2.545 . S
Gd1597 O1651 2.412 . S
Gd1597 C1664 2.819 1_554 S
C1598 C1601 1.417 . S
C1598 C1603 1.431 . S
C1598 C1604 1.412 . S
C1599 C1602 1.437 . S
C1599 C1603 1.317 1_556 S
C1599 H1618 0.929 . S
C1600 C1601 1.426 1_556 S
C1600 C1602 1.413 . S
C1600 N1610 1.359 . S
C1601 C1598 1.417 . S
C1601 C1600 1.426 1_554 S
C1601 N1606 1.350 . S
C1602 C1599 1.437 . S
C1602 C1600 1.413 . S
C1602 C1612 1.391 . S
C1603 C1598 1.431 . S
C1603 C1599 1.317 1_554 S
C1603 H1614 0.930 . S
C1604 C1598 1.412 . S
C1604 C1605 1.355 . S
C1604 H1616 0.930 . S
C1605 C1604 1.355 . S
C1605 C1607 1.402 . S
C1605 H1617 0.930 . S
N1606 Gd1597 2.661 . S
N1606 C1601 1.350 . S
N1606 C1607 1.307 . S
C1607 C1605 1.402 . S
C1607 N1606 1.307 . S
C1607 H1608 0.930 . S
H1608 C1607 0.930 . S
C1609 N1610 1.334 . S
C1609 C1611 1.394 . S
C1609 H1613 0.930 . S
N1610 Gd1597 2.601 1_556 S
N1610 C1600 1.359 . S
N1610 C1609 1.334 . S
C1611 C1609 1.394 . S
C1611 C1612 1.359 . S
C1611 H1623 0.930 . S
C1612 C1602 1.391 . S
C1612 C1611 1.359 . S
C1612 H1624 0.929 . S
H1613 C1609 0.930 . S
H1614 C1603 0.930 . S
H1615 C1632 0.935 . S
H1616 C1604 0.930 . S
H1617 C1605 0.930 . S
H1618 C1599 0.929 . S
H1619 C1637 0.930 . S
H1620 C1628 0.930 . S
H1621 C1629 0.930 . S
H1622 C1653 0.929 . S
H1623 C1611 0.930 . S
H1624 C1612 0.929 . S
H1625 C1654 0.930 . S
H1626 C1635 0.930 . S
N1627 Gd1596 2.661 . S
N1627 C1631 1.350 1_455 S
N1627 C1632 1.308 1_554 S
C1628 H1620 0.930 . S
C1628 C1629 1.355 . S
C1628 C1630 1.412 1_556 S
C1629 H1621 0.930 . S
C1629 C1628 1.355 . S
C1629 C1632 1.397 1_655 S
C1630 C1628 1.412 1_554 S
C1630 C1631 1.417 . S
C1630 C1654 1.431 . S
C1631 N1627 1.350 1_655 S
C1631 C1630 1.417 . S
C1631 C1634 1.426 . S
C1632 H1615 0.935 . S
C1632 N1627 1.308 1_556 S
C1632 C1629 1.397 1_455 S
N1633 Gd1596 2.601 . S
N1633 C1634 1.359 1_455 S
N1633 C1637 1.334 . S
C1634 C1631 1.426 . S
C1634 N1633 1.359 1_655 S
C1634 C1638 1.413 . S
C1635 H1626 0.930 . S
C1635 C1636 1.359 1_455 S
C1635 C1637 1.394 . S
C1636 C1635 1.359 1_655 S
C1636 C1638 1.391 . S
C1636 H1639 0.929 . S
C1637 H1619 0.930 . S
C1637 N1633 1.334 . S
C1637 C1635 1.394 . S
C1638 C1634 1.413 . S
C1638 C1636 1.391 . S
C1638 C1653 1.437 . S
H1639 C1636 0.929 . S
O1640 Gd1596 2.545 . S
O1640 C1655 1.258 1_455 S
O1641 Gd1596 2.606 . S
O1641 Gd1597 2.362 . S
O1641 C1652 1.284 . S
O1642 Gd1597 2.324 . S
O1642 C1662 1.254 . S
O1643 Gd1596 2.429 . S
O1643 C1662 1.268 . S
O1644 Gd1596 2.545 . S
O1644 C1652 1.250 . S
O1645 Gd1596 2.412 1_655 S
O1645 C1655 1.252 . S
O1646 Gd1597 2.545 1_556 S
O1646 C1664 1.291 . S
O1647 Gd1596 2.362 . S
O1647 Gd1597 2.606 . S
O1647 C1663 1.284 . S
O1648 Gd1596 2.266 1_556 S
O1648 C1671 1.301 . S
O1649 Gd1597 2.429 1_556 S
O1649 C1671 1.268 . S
O1650 Gd1597 2.545 . S
O1650 C1663 1.250 . S
O1651 Gd1597 2.412 . S
O1651 C1664 1.212 1_554 S
C1652 O1641 1.284 . S
C1652 O1644 1.250 . S
C1653 H1622 0.929 . S
C1653 C1638 1.437 . S
C1653 C1654 1.317 . S
C1654 H1625 0.930 . S
C1654 C1630 1.431 . S
C1654 C1653 1.317 . S
C1655 Gd1596 2.828 1_655 S
C1655 O1640 1.258 1_655 S
C1655 O1645 1.252 . S
C1655 C1656 1.497 . S
C1656 C1655 1.497 . S
C1656 C1657 1.395 . S
C1656 C1658 1.380 . S
C1657 C1656 1.395 . S
C1657 C1660 1.398 . S
C1657 H1672 0.930 . S
C1658 C1656 1.380 . S
C1658 C1659 1.391 . S
C1658 H1673 0.930 . S
C1659 C1658 1.391 . S
C1659 C1661 1.387 . S
C1660 C1657 1.398 . S
C1660 C1661 1.380 . S
C1660 H1674 0.930 . S
C1661 C1659 1.387 . S
C1661 C1660 1.380 . S
C1661 H1675 0.930 . S
C1662 O1642 1.254 . S
C1662 O1643 1.268 . S
C1663 O1647 1.284 . S
C1663 O1650 1.250 . S
C1664 Gd1597 2.819 1_556 S
C1664 O1646 1.291 . S
C1664 O1651 1.212 1_556 S
C1664 C1665 1.504 . S
C1665 C1664 1.504 . S
C1665 C1666 1.395 . S
C1665 C1667 1.380 1_556 S
C1666 C1665 1.395 . S
C1666 C1669 1.398 . S
C1666 H1676 0.930 . S
C1667 C1665 1.380 1_554 S
C1667 C1668 1.391 . S
C1667 H1677 0.930 . S
C1668 C1667 1.391 . S
C1668 C1670 1.387 1_554 S
C1669 C1666 1.398 . S
C1669 C1670 1.380 . S
C1669 H1678 0.930 . S
C1670 C1668 1.387 1_556 S
C1670 C1669 1.380 . S
C1670 H1679 0.930 . S
C1671 O1648 1.301 . S
C1671 O1649 1.268 . S
H1672 C1657 0.930 . S
H1673 C1658 0.930 . S
H1674 C1660 0.930 . S
H1675 C1661 0.930 . S
H1676 C1666 0.930 . S
H1677 C1667 0.930 . S
H1678 C1669 0.930 . S
H1679 C1670 0.930 . S
H1680 C1688 0.929 . S
H1681 C1690 0.930 . S
H1682 C1692 0.930 . S
H1683 C1695 0.929 . S
H1684 C1698 0.881 1_655 S
H1685 C1700 0.960 . S
H1686 C1700 0.960 . S
H1687 C1700 0.960 . S
C1688 H1680 0.929 . S
C1688 C1689 1.377 . S
C1688 C1690 1.384 . S
C1689 C1688 1.377 . S
C1689 C1695 1.390 . S
C1690 H1681 0.930 . S
C1690 C1688 1.384 . S
C1690 C1691 1.372 . S
C1691 C1690 1.372 . S
C1691 C1692 1.400 . S
C1691 C1696 1.490 . S
C1692 H1682 0.930 . S
C1692 C1691 1.400 . S
C1692 C1695 1.386 . S
H1693 C1709 0.930 . S
H1694 C1710 0.931 . S
C1695 H1683 0.929 . S
C1695 C1689 1.390 . S
C1695 C1692 1.386 . S
C1696 C1691 1.490 . S
C1696 C1698 1.395 . S
C1696 C1699 1.403 . S
H1697 C1703 0.930 . S
C1698 H1684 0.881 1_455 S
C1698 C1696 1.395 . S
C1698 C1701 1.403 . S
C1699 C1696 1.403 . S
C1699 C1700 1.524 . S
C1699 C1703 1.400 . S
C1700 H1685 0.960 . S
C1700 H1686 0.960 . S
C1700 H1687 0.960 . S
C1700 C1699 1.524 . S
C1701 C1698 1.403 . S
C1701 C1702 1.392 . S
C1701 C1705 1.495 1_455 S
C1702 C1701 1.392 . S
C1702 C1703 1.385 . S
C1702 C1704 1.461 1_556 S
C1703 H1697 0.930 . S
C1703 C1699 1.400 . S
C1703 C1702 1.385 . S
C1704 C1702 1.461 1_554 S
C1704 C1706 1.414 . S
C1704 C1710 1.367 1_554 S
C1705 C1701 1.495 1_655 S
C1705 H1711 0.959 . S
C1705 H1712 0.961 . S
C1705 H1713 0.960 1_556 S
C1706 C1704 1.414 . S
C1706 C1707 1.394 . S
C1706 H1714 0.930 . S
C1707 C1706 1.394 . S
C1707 C1708 1.383 . S
C1707 H1715 0.929 . S
C1708 C1707 1.383 . S
C1708 C1709 1.377 1_554 S
C1709 H1693 0.930 . S
C1709 C1708 1.377 1_556 S
C1709 C1710 1.379 . S
C1710 H1694 0.931 . S
C1710 C1704 1.367 1_556 S
C1710 C1709 1.379 . S
H1711 C1705 0.959 . S
H1712 C1705 0.961 . S
H1713 C1705 0.960 1_554 S
H1714 C1706 0.930 . S
H1715 C1707 0.929 . S
H1716 C1724 0.929 . S
H1717 C1726 0.930 . S
H1718 C1728 0.930 . S
H1719 C1731 0.929 . S
H1720 C1734 0.930 . S
H1721 C1736 0.960 . S
H1722 C1736 0.960 . S
H1723 C1736 0.960 . S
C1724 H1716 0.929 . S
C1724 C1725 1.377 . S
C1724 C1726 1.384 . S
C1725 C1724 1.377 . S
C1725 C1731 1.390 . S
C1726 H1717 0.930 . S
C1726 C1724 1.384 . S
C1726 C1727 1.372 . S
C1727 C1726 1.372 . S
C1727 C1728 1.400 . S
C1727 C1732 1.490 . S
C1728 H1718 0.930 . S
C1728 C1727 1.400 . S
C1728 C1731 1.386 . S
H1729 C1745 0.930 . S
H1730 C1746 0.931 . S
C1731 H1719 0.929 . S
C1731 C1725 1.390 . S
C1731 C1728 1.386 . S
C1732 C1727 1.490 . S
C1732 C1734 1.395 . S
C1732 C1735 1.403 . S
H1733 C1739 0.930 . S
C1734 H1720 0.930 . S
C1734 C1732 1.395 . S
C1734 C1737 1.403 . S
C1735 C1732 1.403 . S
C1735 C1736 1.524 . S
C1735 C1739 1.400 . S
C1736 H1721 0.960 . S
C1736 H1722 0.960 . S
C1736 H1723 0.960 . S
C1736 C1735 1.524 . S
C1737 C1734 1.403 . S
C1737 C1738 1.392 . S
C1737 C1741 1.495 . S
C1738 C1737 1.392 . S
C1738 C1739 1.385 . S
C1738 C1740 1.478 . S
C1739 H1733 0.930 . S
C1739 C1735 1.400 . S
C1739 C1738 1.385 . S
C1740 C1738 1.478 . S
C1740 C1742 1.381 . S
C1740 C1746 1.383 . S
C1741 C1737 1.495 . S
C1741 H1747 0.959 . S
C1741 H1748 0.961 . S
C1741 H1749 0.960 . S
C1742 C1740 1.381 . S
C1742 C1743 1.394 . S
C1742 H1750 0.930 . S
C1743 C1742 1.394 . S
C1743 C1744 1.383 . S
C1743 H1751 0.929 . S
C1744 C1743 1.383 . S
C1744 C1745 1.377 . S
C1745 H1729 0.930 . S
C1745 C1744 1.377 . S
C1745 C1746 1.379 . S
C1746 H1730 0.931 . S
C1746 C1740 1.383 . S
C1746 C1745 1.379 . S
H1747 C1741 0.959 . S
H1748 C1741 0.961 . S
H1749 C1741 0.960 . S
H1750 C1742 0.930 . S
H1751 C1743 0.929 . S
H1752 C1760 0.929 . S
H1753 C1762 0.930 . S
H1754 C1764 0.930 . S
H1755 C1767 0.929 . S
H1756 C1770 0.930 . S
H1757 C1772 0.960 . S
H1758 C1772 0.960 . S
H1759 C1772 0.960 . S
C1760 H1752 0.929 . S
C1760 C1761 1.377 . S
C1760 C1762 1.384 . S
C1761 C1760 1.377 . S
C1761 C1767 1.390 . S
C1762 H1753 0.930 . S
C1762 C1760 1.384 . S
C1762 C1763 1.372 . S
C1763 C1762 1.372 . S
C1763 C1764 1.400 . S
C1763 C1768 1.490 . S
C1764 H1754 0.930 . S
C1764 C1763 1.400 . S
C1764 C1767 1.386 . S
H1765 C1781 0.930 . S
H1766 C1782 0.931 . S
C1767 H1755 0.929 . S
C1767 C1761 1.390 . S
C1767 C1764 1.386 . S
C1768 C1763 1.490 . S
C1768 C1770 1.395 . S
C1768 C1771 1.403 . S
H1769 C1775 0.930 . S
C1770 H1756 0.930 . S
C1770 C1768 1.395 . S
C1770 C1773 1.403 . S
C1771 C1768 1.403 . S
C1771 C1772 1.524 . S
C1771 C1775 1.400 . S
C1772 H1757 0.960 . S
C1772 H1758 0.960 . S
C1772 H1759 0.960 . S
C1772 C1771 1.524 . S
C1773 C1770 1.403 . S
C1773 C1774 1.392 . S
C1773 C1777 1.495 . S
C1774 C1773 1.392 . S
C1774 C1775 1.385 . S
C1774 C1776 1.478 . S
C1775 H1769 0.930 . S
C1775 C1771 1.400 . S
C1775 C1774 1.385 . S
C1776 C1774 1.478 . S
C1776 C1778 1.381 . S
C1776 C1782 1.383 . S
C1777 C1773 1.495 . S
C1777 H1783 0.959 . S
C1777 H1784 0.961 . S
C1777 H1785 0.960 . S
C1778 C1776 1.381 . S
C1778 C1779 1.394 . S
C1778 H1786 0.930 . S
C1779 C1778 1.394 . S
C1779 C1780 1.383 . S
C1779 H1787 0.929 . S
C1780 C1779 1.383 . S
C1780 C1781 1.377 . S
C1781 H1765 0.930 . S
C1781 C1780 1.377 . S
C1781 C1782 1.379 . S
C1782 H1766 0.931 . S
C1782 C1776 1.383 . S
C1782 C1781 1.379 . S
H1783 C1777 0.959 . S
H1784 C1777 0.961 . S
H1785 C1777 0.960 . S
H1786 C1778 0.930 . S
H1787 C1779 0.929 . S
H1788 C1796 0.929 . S
H1789 C1798 0.930 . S
H1790 C1800 0.930 . S
H1791 C1803 0.929 . S
H1792 C1806 0.930 . S
H1793 C1808 0.960 . S
H1794 C1808 0.960 . S
H1795 C1808 0.960 . S
C1796 H1788 0.929 . S
C1796 C1797 1.377 . S
C1796 C1798 1.384 . S
C1797 C1796 1.377 . S
C1797 C1803 1.390 . S
C1798 H1789 0.930 . S
C1798 C1796 1.384 . S
C1798 C1799 1.372 . S
C1799 C1798 1.372 . S
C1799 C1800 1.400 . S
C1799 C1804 1.490 . S
C1800 H1790 0.930 . S
C1800 C1799 1.400 . S
C1800 C1803 1.386 . S
H1801 C1817 0.930 . S
H1802 C1818 0.931 . S
C1803 H1791 0.929 . S
C1803 C1797 1.390 . S
C1803 C1800 1.386 . S
C1804 C1799 1.490 . S
C1804 C1806 1.395 . S
C1804 C1807 1.403 . S
H1805 C1811 0.930 . S
C1806 H1792 0.930 . S
C1806 C1804 1.395 . S
C1806 C1809 1.403 . S
C1807 C1804 1.403 . S
C1807 C1808 1.524 . S
C1807 C1811 1.400 . S
C1808 H1793 0.960 . S
C1808 H1794 0.960 . S
C1808 H1795 0.960 . S
C1808 C1807 1.524 . S
C1809 C1806 1.403 . S
C1809 C1810 1.392 . S
C1809 C1813 1.495 . S
C1810 C1809 1.392 . S
C1810 C1811 1.385 . S
C1810 C1812 1.478 . S
C1811 H1805 0.930 . S
C1811 C1807 1.400 . S
C1811 C1810 1.385 . S
C1812 C1810 1.478 . S
C1812 C1814 1.381 . S
C1812 C1818 1.383 . S
C1813 C1809 1.495 . S
C1813 H1819 0.959 . S
C1813 H1820 0.961 . S
C1813 H1821 0.960 . S
C1814 C1812 1.381 . S
C1814 C1815 1.394 . S
C1814 H1822 0.930 . S
C1815 C1814 1.394 . S
C1815 C1816 1.383 . S
C1815 H1823 0.929 . S
C1816 C1815 1.383 . S
C1816 C1817 1.377 . S
C1817 H1801 0.930 . S
C1817 C1816 1.377 . S
C1817 C1818 1.379 . S
C1818 H1802 0.931 . S
C1818 C1812 1.383 . S
C1818 C1817 1.379 . S
H1819 C1813 0.959 . S
H1820 C1813 0.961 . S
H1821 C1813 0.960 . S
H1822 C1814 0.930 . S
H1823 C1815 0.929 . S
H1824 C1832 0.929 . S
H1825 C1834 0.930 1_655 S
H1826 C1836 0.930 . S
H1827 C1839 0.929 . S
H1828 C1842 0.930 1_655 S
H1829 C1844 0.960 . S
H1830 C1844 0.960 . S
H1831 C1844 0.960 . S
C1832 H1824 0.929 . S
C1832 C1833 1.377 1_655 S
C1832 C1834 1.384 1_655 S
C1833 C1832 1.377 1_455 S
C1833 C1839 1.390 . S
C1834 H1825 0.930 1_455 S
C1834 C1832 1.384 1_455 S
C1834 C1835 1.372 . S
C1835 C1834 1.372 . S
C1835 C1836 1.400 . S
C1835 C1840 1.490 . S
C1836 H1826 0.930 . S
C1836 C1835 1.400 . S
C1836 C1839 1.386 . S
H1837 C1853 0.930 . S
H1838 C1854 0.931 . S
C1839 H1827 0.929 . S
C1839 C1833 1.390 . S
C1839 C1836 1.386 . S
C1840 C1835 1.490 . S
C1840 C1842 1.395 . S
C1840 C1843 1.403 . S
H1841 C1847 0.930 . S
C1842 H1828 0.930 1_455 S
C1842 C1840 1.395 . S
C1842 C1845 1.403 . S
C1843 C1840 1.403 . S
C1843 C1844 1.524 . S
C1843 C1847 1.400 . S
C1844 H1829 0.960 . S
C1844 H1830 0.960 . S
C1844 H1831 0.960 . S
C1844 C1843 1.524 . S
C1845 C1842 1.403 . S
C1845 C1846 1.392 . S
C1845 C1849 1.495 1_455 S
C1846 C1845 1.392 . S
C1846 C1847 1.385 . S
C1846 C1848 1.478 . S
C1847 H1841 0.930 . S
C1847 C1843 1.400 . S
C1847 C1846 1.385 . S
C1848 C1846 1.478 . S
C1848 C1850 1.381 . S
C1848 C1854 1.383 . S
C1849 C1845 1.495 1_655 S
C1849 H1855 0.959 . S
C1849 H1856 0.961 . S
C1849 H1857 0.960 . S
C1850 C1848 1.381 . S
C1850 C1851 1.394 . S
C1850 H1858 0.930 . S
C1851 C1850 1.394 . S
C1851 C1852 1.383 . S
C1851 H1859 0.929 . S
C1852 C1851 1.383 . S
C1852 C1853 1.377 . S
C1853 H1837 0.930 . S
C1853 C1852 1.377 . S
C1853 C1854 1.379 . S
C1854 H1838 0.931 . S
C1854 C1848 1.383 . S
C1854 C1853 1.379 . S
H1855 C1849 0.959 . S
H1856 C1849 0.961 . S
H1857 C1849 0.960 . S
H1858 C1850 0.930 . S
H1859 C1851 0.929 . S
H1860 C1868 0.929 . S
H1861 C1870 0.930 . S
H1862 C1872 0.930 . S
H1863 C1875 0.929 . S
H1864 C1878 0.930 . S
H1865 C1880 0.960 . S
H1866 C1880 0.960 . S
H1867 C1880 0.960 . S
C1868 H1860 0.929 . S
C1868 C1869 1.377 . S
C1868 C1870 1.384 . S
C1869 C1868 1.377 . S
C1869 C1875 1.390 . S
C1870 H1861 0.930 . S
C1870 C1868 1.384 . S
C1870 C1871 1.372 . S
C1871 C1870 1.372 . S
C1871 C1872 1.400 . S
C1871 C1876 1.490 . S
C1872 H1862 0.930 . S
C1872 C1871 1.400 . S
C1872 C1875 1.386 . S
H1873 C1889 0.930 . S
H1874 C1890 0.931 . S
C1875 H1863 0.929 . S
C1875 C1869 1.390 . S
C1875 C1872 1.386 . S
C1876 C1871 1.490 . S
C1876 C1878 1.395 . S
C1876 C1879 1.403 . S
H1877 C1883 0.930 . S
C1878 H1864 0.930 . S
C1878 C1876 1.395 . S
C1878 C1881 1.403 . S
C1879 C1876 1.403 . S
C1879 C1880 1.524 . S
C1879 C1883 1.400 . S
C1880 H1865 0.960 . S
C1880 H1866 0.960 . S
C1880 H1867 0.960 . S
C1880 C1879 1.524 . S
C1881 C1878 1.403 . S
C1881 C1882 1.392 . S
C1881 C1885 1.495 . S
C1882 C1881 1.392 . S
C1882 C1883 1.385 . S
C1882 C1884 1.478 . S
C1883 H1877 0.930 . S
C1883 C1879 1.400 . S
C1883 C1882 1.385 . S
C1884 C1882 1.478 . S
C1884 C1886 1.381 . S
C1884 C1890 1.383 . S
C1885 C1881 1.495 . S
C1885 H1891 0.959 . S
C1885 H1892 0.961 . S
C1885 H1893 0.960 . S
C1886 C1884 1.381 . S
C1886 C1887 1.394 . S
C1886 H1894 0.930 . S
C1887 C1886 1.394 . S
C1887 C1888 1.383 . S
C1887 H1895 0.929 . S
C1888 C1887 1.383 . S
C1888 C1889 1.377 . S
C1889 H1873 0.930 . S
C1889 C1888 1.377 . S
C1889 C1890 1.379 . S
C1890 H1874 0.931 . S
C1890 C1884 1.383 . S
C1890 C1889 1.379 . S
H1891 C1885 0.959 . S
H1892 C1885 0.961 . S
H1893 C1885 0.960 . S
H1894 C1886 0.930 . S
H1895 C1887 0.929 . S
H1896 C1904 0.929 . S
H1897 C1906 0.930 . S
H1898 C1908 0.930 . S
H1899 C1911 0.929 . S
H1900 C1914 0.930 . S
H1901 C1916 0.960 . S
H1902 C1916 0.960 . S
H1903 C1916 0.960 . S
C1904 H1896 0.929 . S
C1904 C1905 1.377 . S
C1904 C1906 1.384 . S
C1905 C1904 1.377 . S
C1905 C1911 1.390 . S
C1906 H1897 0.930 . S
C1906 C1904 1.384 . S
C1906 C1907 1.372 . S
C1907 C1906 1.372 . S
C1907 C1908 1.400 . S
C1907 C1912 1.490 . S
C1908 H1898 0.930 . S
C1908 C1907 1.400 . S
C1908 C1911 1.386 . S
H1909 C1925 0.930 . S
H1910 C1926 0.931 . S
C1911 H1899 0.929 . S
C1911 C1905 1.390 . S
C1911 C1908 1.386 . S
C1912 C1907 1.490 . S
C1912 C1914 1.395 . S
C1912 C1915 1.403 . S
H1913 C1919 0.930 . S
C1914 H1900 0.930 . S
C1914 C1912 1.395 . S
C1914 C1917 1.403 . S
C1915 C1912 1.403 . S
C1915 C1916 1.524 . S
C1915 C1919 1.400 . S
C1916 H1901 0.960 . S
C1916 H1902 0.960 . S
C1916 H1903 0.960 . S
C1916 C1915 1.524 . S
C1917 C1914 1.403 . S
C1917 C1918 1.392 . S
C1917 C1921 1.495 . S
C1918 C1917 1.392 . S
C1918 C1919 1.385 . S
C1918 C1920 1.478 . S
C1919 H1913 0.930 . S
C1919 C1915 1.400 . S
C1919 C1918 1.385 . S
C1920 C1918 1.478 . S
C1920 C1922 1.381 . S
C1920 C1926 1.383 . S
C1921 C1917 1.495 . S
C1921 H1927 0.959 . S
C1921 H1928 0.961 . S
C1921 H1929 0.960 . S
C1922 C1920 1.381 . S
C1922 C1923 1.394 . S
C1922 H1930 0.930 . S
C1923 C1922 1.394 . S
C1923 C1924 1.383 . S
C1923 H1931 0.929 . S
C1924 C1923 1.383 . S
C1924 C1925 1.377 . S
C1925 H1909 0.930 . S
C1925 C1924 1.377 . S
C1925 C1926 1.379 . S
C1926 H1910 0.931 . S
C1926 C1920 1.383 . S
C1926 C1925 1.379 . S
H1927 C1921 0.959 . S
H1928 C1921 0.961 . S
H1929 C1921 0.960 . S
H1930 C1922 0.930 . S
H1931 C1923 0.929 . S
H1932 C1940 0.929 . S
H1933 C1942 0.930 . S
H1934 C1944 0.930 . S
H1935 C1947 0.929 . S
H1936 C1950 0.930 . S
H1937 C1952 0.960 . S
H1938 C1952 0.960 . S
H1939 C1952 0.960 . S
C1940 H1932 0.929 . S
C1940 C1941 1.377 . S
C1940 C1942 1.384 . S
C1941 C1940 1.377 . S
C1941 C1947 1.390 . S
C1942 H1933 0.930 . S
C1942 C1940 1.384 . S
C1942 C1943 1.372 . S
C1943 C1942 1.372 . S
C1943 C1944 1.400 . S
C1943 C1948 1.490 . S
C1944 H1934 0.930 . S
C1944 C1943 1.400 . S
C1944 C1947 1.386 . S
H1945 C1961 0.930 . S
H1946 C1962 0.931 . S
C1947 H1935 0.929 . S
C1947 C1941 1.390 . S
C1947 C1944 1.386 . S
C1948 C1943 1.490 . S
C1948 C1950 1.395 . S
C1948 C1951 1.403 . S
H1949 C1955 0.930 . S
C1950 H1936 0.930 . S
C1950 C1948 1.395 . S
C1950 C1953 1.403 . S
C1951 C1948 1.403 . S
C1951 C1952 1.524 . S
C1951 C1955 1.400 . S
C1952 H1937 0.960 . S
C1952 H1938 0.960 . S
C1952 H1939 0.960 . S
C1952 C1951 1.524 . S
C1953 C1950 1.403 . S
C1953 C1954 1.392 . S
C1953 C1957 1.495 . S
C1954 C1953 1.392 . S
C1954 C1955 1.385 . S
C1954 C1956 1.478 . S
C1955 H1949 0.930 . S
C1955 C1951 1.400 . S
C1955 C1954 1.385 . S
C1956 C1954 1.478 . S
C1956 C1958 1.381 . S
C1956 C1962 1.383 . S
C1957 C1953 1.495 . S
C1957 H1963 0.959 . S
C1957 H1964 0.961 . S
C1957 H1965 0.960 . S
C1958 C1956 1.381 . S
C1958 C1959 1.394 . S
C1958 H1966 0.930 . S
C1959 C1958 1.394 . S
C1959 C1960 1.383 . S
C1959 H1967 0.929 . S
C1960 C1959 1.383 . S
C1960 C1961 1.377 . S
C1961 H1945 0.930 . S
C1961 C1960 1.377 . S
C1961 C1962 1.379 . S
C1962 H1946 0.931 . S
C1962 C1956 1.383 . S
C1962 C1961 1.379 . S
H1963 C1957 0.959 . S
H1964 C1957 0.961 . S
H1965 C1957 0.960 . S
H1966 C1958 0.930 . S
H1967 C1959 0.929 . S
H1968 C1976 0.929 . S
H1969 C1978 0.930 . S
H1970 C1980 0.993 . S
H1971 C1983 0.929 . S
H1972 C1986 0.930 . S
H1973 C1988 0.960 . S
H1974 C1988 0.960 . S
H1975 C1988 0.960 . S
C1976 H1968 0.929 . S
C1976 C1977 1.377 . S
C1976 C1978 1.384 . S
C1977 C1976 1.377 . S
C1977 C1983 1.390 . S
C1978 H1969 0.930 . S
C1978 C1976 1.384 . S
C1978 C1979 1.372 . S
C1979 C1978 1.372 . S
C1979 C1980 1.400 . S
C1979 C1984 1.490 . S
C1980 H1970 0.993 . S
C1980 C1979 1.400 . S
C1980 C1983 1.386 . S
H1981 C1997 0.930 . S
H1982 C1998 0.931 . S
C1983 H1971 0.929 . S
C1983 C1977 1.390 . S
C1983 C1980 1.386 . S
C1984 C1979 1.490 . S
C1984 C1986 1.395 . S
C1984 C1987 1.403 . S
H1985 C1991 0.926 1_455 S
C1986 H1972 0.930 . S
C1986 C1984 1.395 . S
C1986 C1989 1.403 . S
C1987 C1984 1.403 . S
C1987 C1988 1.524 . S
C1987 C1991 1.403 . S
C1988 H1973 0.960 . S
C1988 H1974 0.960 . S
C1988 H1975 0.960 . S
C1988 C1987 1.524 . S
C1989 C1986 1.403 . S
C1989 C1990 1.392 1_655 S
C1989 C1993 1.495 . S
C1990 C1989 1.392 1_455 S
C1990 C1991 1.385 1_455 S
C1990 C1992 1.478 . S
C1991 H1985 0.926 1_655 S
C1991 C1987 1.403 . S
C1991 C1990 1.385 1_655 S
C1992 C1990 1.478 . S
C1992 C1994 1.411 . S
C1992 C1998 1.383 . S
C1993 C1989 1.495 . S
C1993 H1999 0.959 . S
C1993 H2000 0.961 1_655 S
C1993 H2001 0.960 . S
C1994 C1992 1.411 . S
C1994 C1995 1.426 . S
C1994 H2002 0.869 1_455 S
C1995 C1994 1.426 . S
C1995 C1996 1.383 . S
C1995 H2003 0.929 . S
C1996 C1995 1.383 . S
C1996 C1997 1.377 . S
C1997 H1981 0.930 . S
C1997 C1996 1.377 . S
C1997 C1998 1.379 . S
C1998 H1982 0.931 . S
C1998 C1992 1.383 . S
C1998 C1997 1.379 . S
H1999 C1993 0.959 . S
H2000 C1993 0.961 1_455 S
H2001 C1993 0.960 . S
H2002 C1994 0.869 1_655 S
H2003 C1995 0.929 . S
H2004 C2012 0.929 . S
H2005 C2014 0.930 . S
H2006 C2016 0.930 . S
H2007 C2019 0.929 . S
H2008 C2022 0.930 . S
H2009 C2024 0.960 . S
H2010 C2024 0.960 . S
H2011 C2024 0.960 . S
C2012 H2004 0.929 . S
C2012 C2013 1.377 . S
C2012 C2014 1.384 . S
C2013 C2012 1.377 . S
C2013 C2019 1.390 . S
C2014 H2005 0.930 . S
C2014 C2012 1.384 . S
C2014 C2015 1.372 . S
C2015 C2014 1.372 . S
C2015 C2016 1.400 . S
C2015 C2020 1.490 . S
C2016 H2006 0.930 . S
C2016 C2015 1.400 . S
C2016 C2019 1.386 . S
H2017 C2033 0.930 . S
H2018 C2034 0.931 . S
C2019 H2007 0.929 . S
C2019 C2013 1.390 . S
C2019 C2016 1.386 . S
C2020 C2015 1.490 . S
C2020 C2022 1.395 . S
C2020 C2023 1.403 . S
H2021 C2027 0.930 . S
C2022 H2008 0.930 . S
C2022 C2020 1.395 . S
C2022 C2025 1.403 . S
C2023 C2020 1.403 . S
C2023 C2024 1.524 . S
C2023 C2027 1.400 . S
C2024 H2009 0.960 . S
C2024 H2010 0.960 . S
C2024 H2011 0.960 . S
C2024 C2023 1.524 . S
C2025 C2022 1.403 . S
C2025 C2026 1.392 . S
C2025 C2029 1.495 . S
C2026 C2025 1.392 . S
C2026 C2027 1.385 . S
C2026 C2028 1.478 . S
C2027 H2021 0.930 . S
C2027 C2023 1.400 . S
C2027 C2026 1.385 . S
C2028 C2026 1.478 . S
C2028 C2030 1.381 . S
C2028 C2034 1.383 . S
C2029 C2025 1.495 . S
C2029 H2035 0.959 . S
C2029 H2036 0.961 . S
C2029 H2037 0.960 . S
C2030 C2028 1.381 . S
C2030 C2031 1.394 . S
C2030 H2038 0.930 . S
C2031 C2030 1.394 . S
C2031 C2032 1.383 . S
C2031 H2039 0.929 . S
C2032 C2031 1.383 . S
C2032 C2033 1.377 . S
C2033 H2017 0.930 . S
C2033 C2032 1.377 . S
C2033 C2034 1.379 . S
C2034 H2018 0.931 . S
C2034 C2028 1.383 . S
C2034 C2033 1.379 . S
H2035 C2029 0.959 . S
H2036 C2029 0.961 . S
H2037 C2029 0.960 . S
H2038 C2030 0.930 . S
H2039 C2031 0.929 . S
H2040 C2048 0.929 . S
H2041 C2050 0.930 . S
H2042 C2052 0.930 . S
H2043 C2055 0.929 . S
H2044 C2058 0.930 . S
H2045 C2060 0.960 . S
H2046 C2060 0.960 . S
H2047 C2060 0.960 . S
C2048 H2040 0.929 . S
C2048 C2049 1.377 . S
C2048 C2050 1.384 . S
C2049 C2048 1.377 . S
C2049 C2055 1.390 . S
C2050 H2041 0.930 . S
C2050 C2048 1.384 . S
C2050 C2051 1.372 . S
C2051 C2050 1.372 . S
C2051 C2052 1.400 . S
C2051 C2056 1.490 . S
C2052 H2042 0.930 . S
C2052 C2051 1.400 . S
C2052 C2055 1.386 . S
H2053 C2069 0.930 . S
H2054 C2070 0.931 . S
C2055 H2043 0.929 . S
C2055 C2049 1.390 . S
C2055 C2052 1.386 . S
C2056 C2051 1.490 . S
C2056 C2058 1.395 . S
C2056 C2059 1.403 . S
H2057 C2063 0.930 . S
C2058 H2044 0.930 . S
C2058 C2056 1.395 . S
C2058 C2061 1.403 . S
C2059 C2056 1.403 . S
C2059 C2060 1.524 . S
C2059 C2063 1.400 . S
C2060 H2045 0.960 . S
C2060 H2046 0.960 . S
C2060 H2047 0.960 . S
C2060 C2059 1.524 . S
C2061 C2058 1.403 . S
C2061 C2062 1.392 . S
C2061 C2065 1.495 . S
C2062 C2061 1.392 . S
C2062 C2063 1.385 . S
C2062 C2064 1.478 . S
C2063 H2057 0.930 . S
C2063 C2059 1.400 . S
C2063 C2062 1.385 . S
C2064 C2062 1.478 . S
C2064 C2066 1.381 . S
C2064 C2070 1.383 . S
C2065 C2061 1.495 . S
C2065 H2071 0.959 . S
C2065 H2072 0.961 . S
C2065 H2073 0.960 . S
C2066 C2064 1.381 . S
C2066 C2067 1.394 . S
C2066 H2074 0.930 . S
C2067 C2066 1.394 . S
C2067 C2068 1.383 . S
C2067 H2075 0.929 . S
C2068 C2067 1.383 . S
C2068 C2069 1.377 . S
C2069 H2053 0.930 . S
C2069 C2068 1.377 . S
C2069 C2070 1.379 . S
C2070 H2054 0.931 . S
C2070 C2064 1.383 . S
C2070 C2069 1.379 . S
H2071 C2065 0.959 . S
H2072 C2065 0.961 . S
H2073 C2065 0.960 . S
H2074 C2066 0.930 . S
H2075 C2067 0.929 . S
H2076 C2084 0.929 . S
H2077 C2086 0.930 . S
H2078 C2088 0.930 . S
H2079 C2091 0.929 . S
H2080 C2094 0.930 . S
H2081 C2096 0.960 . S
H2082 C2096 0.960 . S
H2083 C2096 0.960 . S
C2084 H2076 0.929 . S
C2084 C2085 1.377 . S
C2084 C2086 1.384 . S
C2085 C2084 1.377 . S
C2085 C2091 1.390 . S
C2086 H2077 0.930 . S
C2086 C2084 1.384 . S
C2086 C2087 1.372 . S
C2087 C2086 1.372 . S
C2087 C2088 1.400 . S
C2087 C2092 1.490 . S
C2088 H2078 0.930 . S
C2088 C2087 1.400 . S
C2088 C2091 1.386 . S
H2089 C2105 0.930 . S
H2090 C2106 0.931 . S
C2091 H2079 0.929 . S
C2091 C2085 1.390 . S
C2091 C2088 1.386 . S
C2092 C2087 1.490 . S
C2092 C2094 1.395 . S
C2092 C2095 1.403 . S
H2093 C2099 0.930 . S
C2094 H2080 0.930 . S
C2094 C2092 1.395 . S
C2094 C2097 1.403 . S
C2095 C2092 1.403 . S
C2095 C2096 1.524 . S
C2095 C2099 1.400 . S
C2096 H2081 0.960 . S
C2096 H2082 0.960 . S
C2096 H2083 0.960 . S
C2096 C2095 1.524 . S
C2097 C2094 1.403 . S
C2097 C2098 1.392 . S
C2097 C2101 1.495 . S
C2098 C2097 1.392 . S
C2098 C2099 1.385 . S
C2098 C2100 1.478 . S
C2099 H2093 0.930 . S
C2099 C2095 1.400 . S
C2099 C2098 1.385 . S
C2100 C2098 1.478 . S
C2100 C2102 1.381 . S
C2100 C2106 1.383 . S
C2101 C2097 1.495 . S
C2101 H2107 0.959 . S
C2101 H2108 0.961 . S
C2101 H2109 0.960 . S
C2102 C2100 1.381 . S
C2102 C2103 1.394 . S
C2102 H2110 0.930 . S
C2103 C2102 1.394 . S
C2103 C2104 1.383 . S
C2103 H2111 0.929 . S
C2104 C2103 1.383 . S
C2104 C2105 1.377 . S
C2105 H2089 0.930 . S
C2105 C2104 1.377 . S
C2105 C2106 1.379 . S
C2106 H2090 0.931 . S
C2106 C2100 1.383 . S
C2106 C2105 1.379 . S
H2107 C2101 0.959 . S
H2108 C2101 0.961 . S
H2109 C2101 0.960 . S
H2110 C2102 0.930 . S
H2111 C2103 0.929 . S
H2112 C2120 0.929 . S
H2113 C2122 0.930 1_455 S
H2114 C2124 0.930 . S
H2115 C2127 0.929 . S
H2116 C2130 0.930 . S
H2117 C2132 0.960 1_455 S
H2118 C2132 0.960 1_455 S
H2119 C2132 0.960 . S
C2120 H2112 0.929 . S
C2120 C2121 1.377 . S
C2120 C2122 1.384 . S
C2121 C2120 1.377 . S
C2121 C2127 1.390 . S
C2122 H2113 0.930 1_655 S
C2122 C2120 1.384 . S
C2122 C2123 1.372 . S
C2123 C2122 1.372 . S
C2123 C2124 1.400 . S
C2123 C2128 1.490 . S
C2124 H2114 0.930 . S
C2124 C2123 1.400 . S
C2124 C2127 1.386 . S
H2125 C2141 0.930 . S
H2126 C2142 0.931 1_655 S
C2127 H2115 0.929 . S
C2127 C2121 1.390 . S
C2127 C2124 1.386 . S
C2128 C2123 1.490 . S
C2128 C2130 1.395 . S
C2128 C2131 1.431 . S
H2129 C2135 0.930 . S
C2130 H2116 0.930 . S
C2130 C2128 1.395 . S
C2130 C2133 1.403 1_655 S
C2131 C2128 1.431 . S
C2131 C2132 1.516 . S
C2131 C2135 1.379 1_655 S
C2132 H2117 0.960 1_655 S
C2132 H2118 0.960 1_655 S
C2132 H2119 0.960 . S
C2132 C2131 1.516 . S
C2133 C2130 1.403 1_455 S
C2133 C2134 1.392 . S
C2133 C2137 1.495 . S
C2134 C2133 1.392 . S
C2134 C2135 1.385 . S
C2134 C2136 1.478 . S
C2135 H2129 0.930 . S
C2135 C2131 1.379 1_455 S
C2135 C2134 1.385 . S
C2136 C2134 1.478 . S
C2136 C2138 1.381 . S
C2136 C2142 1.383 . S
C2137 C2133 1.495 . S
C2137 H2143 0.950 1_455 S
C2137 H2144 0.961 1_455 S
C2137 H2145 0.960 . S
C2138 C2136 1.381 . S
C2138 C2139 1.394 . S
C2138 H2146 0.930 . S
C2139 C2138 1.394 . S
C2139 C2140 1.383 . S
C2139 H2147 0.929 . S
C2140 C2139 1.383 . S
C2140 C2141 1.377 . S
C2141 H2125 0.930 . S
C2141 C2140 1.377 . S
C2141 C2142 1.379 . S
C2142 H2126 0.931 1_455 S
C2142 C2136 1.383 . S
C2142 C2141 1.379 . S
H2143 C2137 0.950 1_655 S
H2144 C2137 0.961 1_655 S
H2145 C2137 0.960 . S
H2146 C2138 0.930 . S
H2147 C2139 0.929 . S
H2148 C2156 0.929 . S
H2149 C2158 0.930 . S
H2150 C2160 0.930 . S
H2151 C2163 0.929 . S
H2152 C2166 0.930 . S
H2153 C2168 0.960 . S
H2154 C2168 0.960 . S
H2155 C2168 0.960 . S
C2156 H2148 0.929 . S
C2156 C2157 1.377 . S
C2156 C2158 1.384 . S
C2157 C2156 1.377 . S
C2157 C2163 1.390 . S
C2158 H2149 0.930 . S
C2158 C2156 1.384 . S
C2158 C2159 1.372 . S
C2159 C2158 1.372 . S
C2159 C2160 1.400 . S
C2159 C2164 1.490 . S
C2160 H2150 0.930 . S
C2160 C2159 1.400 . S
C2160 C2163 1.386 . S
H2161 C2177 0.930 . S
H2162 C2178 0.931 . S
C2163 H2151 0.929 . S
C2163 C2157 1.390 . S
C2163 C2160 1.386 . S
C2164 C2159 1.490 . S
C2164 C2166 1.395 . S
C2164 C2167 1.403 . S
H2165 C2171 0.930 . S
C2166 H2152 0.930 . S
C2166 C2164 1.395 . S
C2166 C2169 1.403 . S
C2167 C2164 1.403 . S
C2167 C2168 1.524 . S
C2167 C2171 1.400 . S
C2168 H2153 0.960 . S
C2168 H2154 0.960 . S
C2168 H2155 0.960 . S
C2168 C2167 1.524 . S
C2169 C2166 1.403 . S
C2169 C2170 1.392 . S
C2169 C2173 1.495 . S
C2170 C2169 1.392 . S
C2170 C2171 1.385 . S
C2170 C2172 1.478 . S
C2171 H2165 0.930 . S
C2171 C2167 1.400 . S
C2171 C2170 1.385 . S
C2172 C2170 1.478 . S
C2172 C2174 1.381 . S
C2172 C2178 1.383 . S
C2173 C2169 1.495 . S
C2173 H2179 0.959 . S
C2173 H2180 0.961 . S
C2173 H2181 0.960 . S
C2174 C2172 1.381 . S
C2174 C2175 1.394 . S
C2174 H2182 0.930 . S
C2175 C2174 1.394 . S
C2175 C2176 1.383 . S
C2175 H2183 0.929 . S
C2176 C2175 1.383 . S
C2176 C2177 1.377 . S
C2177 H2161 0.930 . S
C2177 C2176 1.377 . S
C2177 C2178 1.379 . S
C2178 H2162 0.931 . S
C2178 C2172 1.383 . S
C2178 C2177 1.379 . S
H2179 C2173 0.959 . S
H2180 C2173 0.961 . S
H2181 C2173 0.960 . S
H2182 C2174 0.930 . S
H2183 C2175 0.929 . S
H2184 C2192 0.929 . S
H2185 C2194 0.930 . S
H2186 C2196 0.930 . S
H2187 C2199 0.929 . S
H2188 C2202 0.930 . S
H2189 C2204 0.960 . S
H2190 C2204 0.960 . S
H2191 C2204 0.960 . S
C2192 H2184 0.929 . S
C2192 C2193 1.377 . S
C2192 C2194 1.384 . S
C2193 C2192 1.377 . S
C2193 C2199 1.390 . S
C2194 H2185 0.930 . S
C2194 C2192 1.384 . S
C2194 C2195 1.372 . S
C2195 C2194 1.372 . S
C2195 C2196 1.400 . S
C2195 C2200 1.490 . S
C2196 H2186 0.930 . S
C2196 C2195 1.400 . S
C2196 C2199 1.386 . S
H2197 C2213 0.930 . S
H2198 C2214 0.931 . S
C2199 H2187 0.929 . S
C2199 C2193 1.390 . S
C2199 C2196 1.386 . S
C2200 C2195 1.490 . S
C2200 C2202 1.395 . S
C2200 C2203 1.403 . S
H2201 C2207 0.930 . S
C2202 H2188 0.930 . S
C2202 C2200 1.395 . S
C2202 C2205 1.403 . S
C2203 C2200 1.403 . S
C2203 C2204 1.524 . S
C2203 C2207 1.400 . S
C2204 H2189 0.960 . S
C2204 H2190 0.960 . S
C2204 H2191 0.960 . S
C2204 C2203 1.524 . S
C2205 C2202 1.403 . S
C2205 C2206 1.392 . S
C2205 C2209 1.495 . S
C2206 C2205 1.392 . S
C2206 C2207 1.385 . S
C2206 C2208 1.478 . S
C2207 H2201 0.930 . S
C2207 C2203 1.400 . S
C2207 C2206 1.385 . S
C2208 C2206 1.478 . S
C2208 C2210 1.381 . S
C2208 C2214 1.383 . S
C2209 C2205 1.495 . S
C2209 H2215 0.959 . S
C2209 H2216 0.961 . S
C2209 H2217 0.960 . S
C2210 C2208 1.381 . S
C2210 C2211 1.394 . S
C2210 H2218 0.930 . S
C2211 C2210 1.394 . S
C2211 C2212 1.383 . S
C2211 H2219 0.929 . S
C2212 C2211 1.383 . S
C2212 C2213 1.377 . S
C2213 H2197 0.930 . S
C2213 C2212 1.377 . S
C2213 C2214 1.379 . S
C2214 H2198 0.931 . S
C2214 C2208 1.383 . S
C2214 C2213 1.379 . S
H2215 C2209 0.959 . S
H2216 C2209 0.961 . S
H2217 C2209 0.960 . S
H2218 C2210 0.930 . S
H2219 C2211 0.929 . S
H2220 C2228 0.929 . S
H2221 C2230 0.930 . S
H2222 C2232 0.930 . S
H2223 C2235 0.929 . S
H2224 C2238 0.930 . S
H2225 C2240 0.960 . S
H2226 C2240 0.960 . S
H2227 C2240 0.960 . S
C2228 H2220 0.929 . S
C2228 C2229 1.377 . S
C2228 C2230 1.384 . S
C2229 C2228 1.377 . S
C2229 C2235 1.390 . S
C2230 H2221 0.930 . S
C2230 C2228 1.384 . S
C2230 C2231 1.372 . S
C2231 C2230 1.372 . S
C2231 C2232 1.400 . S
C2231 C2236 1.490 . S
C2232 H2222 0.930 . S
C2232 C2231 1.400 . S
C2232 C2235 1.386 . S
H2233 C2249 0.930 . S
H2234 C2250 0.931 . S
C2235 H2223 0.929 . S
C2235 C2229 1.390 . S
C2235 C2232 1.386 . S
C2236 C2231 1.490 . S
C2236 C2238 1.395 . S
C2236 C2239 1.403 . S
H2237 C2243 0.930 . S
C2238 H2224 0.930 . S
C2238 C2236 1.395 . S
C2238 C2241 1.403 . S
C2239 C2236 1.403 . S
C2239 C2240 1.524 . S
C2239 C2243 1.400 . S
C2240 H2225 0.960 . S
C2240 H2226 0.960 . S
C2240 H2227 0.960 . S
C2240 C2239 1.524 . S
C2241 C2238 1.403 . S
C2241 C2242 1.392 . S
C2241 C2245 1.495 . S
C2242 C2241 1.392 . S
C2242 C2243 1.385 . S
C2242 C2244 1.478 . S
C2243 H2237 0.930 . S
C2243 C2239 1.400 . S
C2243 C2242 1.385 . S
C2244 C2242 1.478 . S
C2244 C2246 1.381 . S
C2244 C2250 1.383 . S
C2245 C2241 1.495 . S
C2245 H2251 0.959 . S
C2245 H2252 0.961 . S
C2245 H2253 0.960 . S
C2246 C2244 1.381 . S
C2246 C2247 1.394 . S
C2246 H2254 0.930 . S
C2247 C2246 1.394 . S
C2247 C2248 1.383 . S
C2247 H2255 0.929 . S
C2248 C2247 1.383 . S
C2248 C2249 1.377 . S
C2249 H2233 0.930 . S
C2249 C2248 1.377 . S
C2249 C2250 1.379 . S
C2250 H2234 0.931 . S
C2250 C2244 1.383 . S
C2250 C2249 1.379 . S
H2251 C2245 0.959 . S
H2252 C2245 0.961 . S
H2253 C2245 0.960 . S
H2254 C2246 0.930 . S
H2255 C2247 0.929 . S
H2256 C2264 0.929 . S
H2257 C2266 0.930 . S
H2258 C2268 0.930 . S
H2259 C2271 0.929 . S
H2260 C2274 0.930 1_556 S
H2261 C2276 0.960 . S
H2262 C2276 0.960 . S
H2263 C2276 0.960 . S
C2264 H2256 0.929 . S
C2264 C2265 1.377 . S
C2264 C2266 1.384 . S
C2265 C2264 1.377 . S
C2265 C2271 1.390 . S
C2266 H2257 0.930 . S
C2266 C2264 1.384 . S
C2266 C2267 1.372 . S
C2267 C2266 1.372 . S
C2267 C2268 1.400 . S
C2267 C2272 1.490 . S
C2268 H2258 0.930 . S
C2268 C2267 1.400 . S
C2268 C2271 1.386 . S
H2269 C2285 0.930 . S
H2270 C2286 0.931 . S
C2271 H2259 0.929 . S
C2271 C2265 1.390 . S
C2271 C2268 1.386 . S
C2272 C2267 1.490 . S
C2272 C2274 1.395 . S
C2272 C2275 1.403 . S
H2273 C2279 0.930 . S
C2274 H2260 0.930 1_554 S
C2274 C2272 1.395 . S
C2274 C2277 1.403 . S
C2275 C2272 1.403 . S
C2275 C2276 1.524 . S
C2275 C2279 1.400 . S
C2276 H2261 0.960 . S
C2276 H2262 0.960 . S
C2276 H2263 0.960 . S
C2276 C2275 1.524 . S
C2277 C2274 1.403 . S
C2277 C2278 1.392 . S
C2277 C2281 1.495 1_554 S
C2278 C2277 1.392 . S
C2278 C2279 1.385 . S
C2278 C2280 1.478 . S
C2279 H2273 0.930 . S
C2279 C2275 1.400 . S
C2279 C2278 1.385 . S
C2280 C2278 1.478 . S
C2280 C2282 1.381 1_565 S
C2280 C2286 1.383 . S
C2281 C2277 1.495 1_556 S
C2281 H2287 0.959 . S
C2281 H2288 0.961 . S
C2281 H2289 0.960 1_565 S
C2282 C2280 1.381 1_545 S
C2282 C2283 1.394 . S
C2282 H2290 0.930 . S
C2283 C2282 1.394 . S
C2283 C2284 1.383 . S
C2283 H2291 0.929 . S
C2284 C2283 1.383 . S
C2284 C2285 1.377 1_545 S
C2285 H2269 0.930 . S
C2285 C2284 1.377 1_565 S
C2285 C2286 1.379 . S
C2286 H2270 0.931 . S
C2286 C2280 1.383 . S
C2286 C2285 1.379 . S
H2287 C2281 0.959 . S
H2288 C2281 0.961 . S
H2289 C2281 0.960 1_545 S
H2290 C2282 0.930 . S
H2291 C2283 0.929 . S
H2292 C2300 0.929 . S
H2293 C2302 0.930 . S
H2294 C2304 0.930 . S
H2295 C2307 0.929 . S
H2296 C2310 0.930 . S
H2297 C2312 0.960 . S
H2298 C2312 0.960 1_554 S
H2299 C2312 0.960 . S
C2300 H2292 0.929 . S
C2300 C2301 1.377 1_554 S
C2300 C2302 1.384 . S
C2301 C2300 1.377 1_556 S
C2301 C2307 1.390 . S
C2302 H2293 0.930 . S
C2302 C2300 1.384 . S
C2302 C2303 1.372 . S
C2303 C2302 1.372 . S
C2303 C2304 1.399 1_554 S
C2303 C2308 1.490 . S
C2304 H2294 0.930 . S
C2304 C2303 1.399 1_556 S
C2304 C2307 1.386 . S
H2305 C2321 0.930 . S
H2306 C2322 0.931 . S
C2307 H2295 0.929 . S
C2307 C2301 1.390 . S
C2307 C2304 1.386 . S
C2308 C2303 1.490 . S
C2308 C2310 1.395 . S
C2308 C2311 1.410 1_554 S
H2309 C2315 0.929 . S
C2310 H2296 0.930 . S
C2310 C2308 1.395 . S
C2310 C2313 1.403 . S
C2311 C2308 1.410 1_556 S
C2311 C2312 1.527 . S
C2311 C2315 1.392 . S
C2312 H2297 0.960 . S
C2312 H2298 0.960 1_556 S
C2312 H2299 0.960 . S
C2312 C2311 1.527 . S
C2313 C2310 1.403 . S
C2313 C2314 1.392 . S
C2313 C2317 1.495 . S
C2314 C2313 1.392 . S
C2314 C2315 1.384 1_554 S
C2314 C2316 1.478 . S
C2315 H2309 0.929 . S
C2315 C2311 1.392 . S
C2315 C2314 1.384 1_556 S
C2316 C2314 1.478 . S
C2316 C2318 1.381 . S
C2316 C2322 1.383 1_554 S
C2317 C2313 1.495 . S
C2317 H2323 0.959 . S
C2317 H2324 0.961 1_554 S
C2317 H2325 0.960 . S
C2318 C2316 1.381 . S
C2318 C2319 1.394 . S
C2318 H2326 0.930 . S
C2319 C2318 1.394 . S
C2319 C2320 1.383 . S
C2319 H2327 0.929 . S
C2320 C2319 1.383 . S
C2320 C2321 1.377 1_554 S
C2321 H2305 0.930 . S
C2321 C2320 1.377 1_556 S
C2321 C2322 1.379 . S
C2322 H2306 0.931 . S
C2322 C2316 1.383 1_556 S
C2322 C2321 1.379 . S
H2323 C2317 0.959 . S
H2324 C2317 0.961 1_556 S
H2325 C2317 0.960 . S
H2326 C2318 0.930 . S
H2327 C2319 0.929 . S
H2328 C2336 0.929 . S
H2329 C2338 0.930 . S
H2330 C2340 0.930 . S
H2331 C2343 0.929 . S
H2332 C2346 0.930 . S
H2333 C2348 0.960 . S
H2334 C2348 0.960 . S
H2335 C2348 0.960 . S
C2336 H2328 0.929 . S
C2336 C2337 1.377 . S
C2336 C2338 1.384 . S
C2337 C2336 1.377 . S
C2337 C2343 1.390 . S
C2338 H2329 0.930 . S
C2338 C2336 1.384 . S
C2338 C2339 1.372 . S
C2339 C2338 1.372 . S
C2339 C2340 1.400 . S
C2339 C2344 1.490 . S
C2340 H2330 0.930 . S
C2340 C2339 1.400 . S
C2340 C2343 1.386 . S
H2341 C2357 0.930 . S
H2342 C2358 0.931 . S
C2343 H2331 0.929 . S
C2343 C2337 1.390 . S
C2343 C2340 1.386 . S
C2344 C2339 1.490 . S
C2344 C2346 1.395 . S
C2344 C2347 1.403 . S
H2345 C2351 0.930 . S
C2346 H2332 0.930 . S
C2346 C2344 1.395 . S
C2346 C2349 1.403 . S
C2347 C2344 1.403 . S
C2347 C2348 1.524 . S
C2347 C2351 1.400 . S
C2348 H2333 0.960 . S
C2348 H2334 0.960 . S
C2348 H2335 0.960 . S
C2348 C2347 1.524 . S
C2349 C2346 1.403 . S
C2349 C2350 1.392 . S
C2349 C2353 1.495 . S
C2350 C2349 1.392 . S
C2350 C2351 1.385 . S
C2350 C2352 1.478 . S
C2351 H2345 0.930 . S
C2351 C2347 1.400 . S
C2351 C2350 1.385 . S
C2352 C2350 1.478 . S
C2352 C2354 1.381 . S
C2352 C2358 1.383 . S
C2353 C2349 1.495 . S
C2353 H2359 0.959 . S
C2353 H2360 0.961 . S
C2353 H2361 0.960 . S
C2354 C2352 1.381 . S
C2354 C2355 1.394 . S
C2354 H2362 0.930 . S
C2355 C2354 1.394 . S
C2355 C2356 1.383 . S
C2355 H2363 0.929 . S
C2356 C2355 1.383 . S
C2356 C2357 1.377 . S
C2357 H2341 0.930 . S
C2357 C2356 1.377 . S
C2357 C2358 1.379 . S
C2358 H2342 0.931 . S
C2358 C2352 1.383 . S
C2358 C2357 1.379 . S
H2359 C2353 0.959 . S
H2360 C2353 0.961 . S
H2361 C2353 0.960 . S
H2362 C2354 0.930 . S
H2363 C2355 0.929 . S
H2364 C2372 0.929 . S
H2365 C2374 0.930 . S
H2366 C2376 0.930 . S
H2367 C2379 0.929 . S
H2368 C2382 0.930 . S
H2369 C2384 0.960 . S
H2370 C2384 0.960 . S
H2371 C2384 0.960 . S
C2372 H2364 0.929 . S
C2372 C2373 1.377 . S
C2372 C2374 1.384 . S
C2373 C2372 1.377 . S
C2373 C2379 1.390 . S
C2374 H2365 0.930 . S
C2374 C2372 1.384 . S
C2374 C2375 1.372 . S
C2375 C2374 1.372 . S
C2375 C2376 1.400 . S
C2375 C2380 1.490 . S
C2376 H2366 0.930 . S
C2376 C2375 1.400 . S
C2376 C2379 1.386 . S
H2377 C2393 0.922 1_455 S
H2378 C2394 0.931 . S
C2379 H2367 0.929 . S
C2379 C2373 1.390 . S
C2379 C2376 1.386 . S
C2380 C2375 1.490 . S
C2380 C2382 1.395 . S
C2380 C2383 1.403 . S
H2381 C2387 0.930 . S
C2382 H2368 0.930 . S
C2382 C2380 1.395 . S
C2382 C2385 1.403 . S
C2383 C2380 1.403 . S
C2383 C2384 1.524 . S
C2383 C2387 1.400 . S
C2384 H2369 0.960 . S
C2384 H2370 0.960 . S
C2384 H2371 0.960 . S
C2384 C2383 1.524 . S
C2385 C2382 1.403 . S
C2385 C2386 1.392 . S
C2385 C2389 1.495 . S
C2386 C2385 1.392 . S
C2386 C2387 1.385 . S
C2386 C2388 1.478 . S
C2387 H2381 0.930 . S
C2387 C2383 1.400 . S
C2387 C2386 1.385 . S
C2388 C2386 1.478 . S
C2388 C2390 1.381 . S
C2388 C2394 1.383 . S
C2389 C2385 1.495 . S
C2389 H2395 0.959 . S
C2389 H2396 0.961 . S
C2389 H2397 0.960 . S
C2390 C2388 1.381 . S
C2390 C2391 1.394 1_655 S
C2390 H2398 0.930 . S
C2391 C2390 1.394 1_455 S
C2391 C2392 1.383 . S
C2391 H2399 0.929 . S
C2392 C2391 1.383 . S
C2392 C2393 1.335 1_455 S
C2393 H2377 0.922 1_655 S
C2393 C2392 1.335 1_655 S
C2393 C2394 1.433 . S
C2394 H2378 0.931 . S
C2394 C2388 1.383 . S
C2394 C2393 1.433 . S
H2395 C2389 0.959 . S
H2396 C2389 0.961 . S
H2397 C2389 0.960 . S
H2398 C2390 0.930 . S
H2399 C2391 0.929 . S
H2400 C2408 0.929 . S
H2401 C2410 0.930 . S
H2402 C2412 0.930 . S
H2403 C2415 0.929 . S
H2404 C2418 0.930 . S
H2405 C2420 0.960 . S
H2406 C2420 0.960 . S
H2407 C2420 0.960 . S
C2408 H2400 0.929 . S
C2408 C2409 1.377 . S
C2408 C2410 1.384 . S
C2409 C2408 1.377 . S
C2409 C2415 1.390 . S
C2410 H2401 0.930 . S
C2410 C2408 1.384 . S
C2410 C2411 1.372 . S
C2411 C2410 1.372 . S
C2411 C2412 1.400 . S
C2411 C2416 1.490 . S
C2412 H2402 0.930 . S
C2412 C2411 1.400 . S
C2412 C2415 1.386 . S
H2413 C2429 0.930 . S
H2414 C2430 0.931 . S
C2415 H2403 0.929 . S
C2415 C2409 1.390 . S
C2415 C2412 1.386 . S
C2416 C2411 1.490 . S
C2416 C2418 1.395 . S
C2416 C2419 1.403 . S
H2417 C2423 0.930 . S
C2418 H2404 0.930 . S
C2418 C2416 1.395 . S
C2418 C2421 1.403 . S
C2419 C2416 1.403 . S
C2419 C2420 1.524 . S
C2419 C2423 1.400 . S
C2420 H2405 0.960 . S
C2420 H2406 0.960 . S
C2420 H2407 0.960 . S
C2420 C2419 1.524 . S
C2421 C2418 1.403 . S
C2421 C2422 1.392 . S
C2421 C2425 1.495 . S
C2422 C2421 1.392 . S
C2422 C2423 1.385 . S
C2422 C2424 1.478 . S
C2423 H2417 0.930 . S
C2423 C2419 1.400 . S
C2423 C2422 1.385 . S
C2424 C2422 1.478 . S
C2424 C2426 1.381 . S
C2424 C2430 1.383 . S
C2425 C2421 1.495 . S
C2425 H2431 0.959 . S
C2425 H2432 0.961 . S
C2425 H2433 0.960 . S
C2426 C2424 1.381 . S
C2426 C2427 1.394 . S
C2426 H2434 0.930 . S
C2427 C2426 1.394 . S
C2427 C2428 1.383 . S
C2427 H2435 0.929 . S
C2428 C2427 1.383 . S
C2428 C2429 1.377 . S
C2429 H2413 0.930 . S
C2429 C2428 1.377 . S
C2429 C2430 1.379 . S
C2430 H2414 0.931 . S
C2430 C2424 1.383 . S
C2430 C2429 1.379 . S
H2431 C2425 0.959 . S
H2432 C2425 0.961 . S
H2433 C2425 0.960 . S
H2434 C2426 0.930 . S
H2435 C2427 0.929 . S
H2436 C2444 0.929 . S
H2437 C2446 0.930 . S
H2438 C2448 0.930 . S
H2439 C2451 0.929 . S
H2440 C2454 0.930 . S
H2441 C2456 0.960 . S
H2442 C2456 0.960 . S
H2443 C2456 0.960 . S
C2444 H2436 0.929 . S
C2444 C2445 1.377 . S
C2444 C2446 1.384 . S
C2445 C2444 1.377 . S
C2445 C2451 1.390 . S
C2446 H2437 0.930 . S
C2446 C2444 1.384 . S
C2446 C2447 1.372 . S
C2447 C2446 1.372 . S
C2447 C2448 1.400 . S
C2447 C2452 1.490 . S
C2448 H2438 0.930 . S
C2448 C2447 1.400 . S
C2448 C2451 1.386 . S
H2449 C2465 0.930 . S
H2450 C2466 0.931 . S
C2451 H2439 0.929 . S
C2451 C2445 1.390 . S
C2451 C2448 1.386 . S
C2452 C2447 1.490 . S
C2452 C2454 1.395 . S
C2452 C2455 1.403 . S
H2453 C2459 0.930 . S
C2454 H2440 0.930 . S
C2454 C2452 1.395 . S
C2454 C2457 1.403 . S
C2455 C2452 1.403 . S
C2455 C2456 1.524 . S
C2455 C2459 1.400 . S
C2456 H2441 0.960 . S
C2456 H2442 0.960 . S
C2456 H2443 0.960 . S
C2456 C2455 1.524 . S
C2457 C2454 1.403 . S
C2457 C2458 1.392 . S
C2457 C2461 1.495 . S
C2458 C2457 1.392 . S
C2458 C2459 1.385 . S
C2458 C2460 1.478 . S
C2459 H2453 0.930 . S
C2459 C2455 1.400 . S
C2459 C2458 1.385 . S
C2460 C2458 1.478 . S
C2460 C2462 1.381 . S
C2460 C2466 1.383 . S
C2461 C2457 1.495 . S
C2461 H2467 0.959 . S
C2461 H2468 0.961 . S
C2461 H2469 0.960 . S
C2462 C2460 1.381 . S
C2462 C2463 1.394 . S
C2462 H2470 0.930 . S
C2463 C2462 1.394 . S
C2463 C2464 1.383 . S
C2463 H2471 0.929 . S
C2464 C2463 1.383 . S
C2464 C2465 1.377 . S
C2465 H2449 0.930 . S
C2465 C2464 1.377 . S
C2465 C2466 1.379 . S
C2466 H2450 0.931 . S
C2466 C2460 1.383 . S
C2466 C2465 1.379 . S
H2467 C2461 0.959 . S
H2468 C2461 0.961 . S
H2469 C2461 0.960 . S
H2470 C2462 0.930 . S
H2471 C2463 0.929 . S
H2472 C2480 0.929 . S
H2473 C2482 0.930 . S
H2474 C2484 0.930 . S
H2475 C2487 0.929 . S
H2476 C2490 0.930 . S
H2477 C2492 0.960 . S
H2478 C2492 0.960 . S
H2479 C2492 0.960 . S
C2480 H2472 0.929 . S
C2480 C2481 1.377 . S
C2480 C2482 1.384 . S
C2481 C2480 1.377 . S
C2481 C2487 1.390 . S
C2482 H2473 0.930 . S
C2482 C2480 1.384 . S
C2482 C2483 1.372 . S
C2483 C2482 1.372 . S
C2483 C2484 1.400 . S
C2483 C2488 1.490 . S
C2484 H2474 0.930 . S
C2484 C2483 1.400 . S
C2484 C2487 1.386 . S
H2485 C2501 0.930 . S
H2486 C2502 0.931 . S
C2487 H2475 0.929 . S
C2487 C2481 1.390 . S
C2487 C2484 1.386 . S
C2488 C2483 1.490 . S
C2488 C2490 1.395 . S
C2488 C2491 1.403 . S
H2489 C2495 0.930 . S
C2490 H2476 0.930 . S
C2490 C2488 1.395 . S
C2490 C2493 1.403 . S
C2491 C2488 1.403 . S
C2491 C2492 1.524 . S
C2491 C2495 1.400 . S
C2492 H2477 0.960 . S
C2492 H2478 0.960 . S
C2492 H2479 0.960 . S
C2492 C2491 1.524 . S
C2493 C2490 1.403 . S
C2493 C2494 1.392 . S
C2493 C2497 1.495 . S
C2494 C2493 1.392 . S
C2494 C2495 1.385 . S
C2494 C2496 1.478 . S
C2495 H2489 0.930 . S
C2495 C2491 1.400 . S
C2495 C2494 1.385 . S
C2496 C2494 1.478 . S
C2496 C2498 1.381 . S
C2496 C2502 1.383 . S
C2497 C2493 1.495 . S
C2497 H2503 0.959 . S
C2497 H2504 0.961 . S
C2497 H2505 0.960 . S
C2498 C2496 1.381 . S
C2498 C2499 1.394 . S
C2498 H2506 0.930 . S
C2499 C2498 1.394 . S
C2499 C2500 1.383 . S
C2499 H2507 0.929 . S
C2500 C2499 1.383 . S
C2500 C2501 1.377 . S
C2501 H2485 0.930 . S
C2501 C2500 1.377 . S
C2501 C2502 1.379 . S
C2502 H2486 0.931 . S
C2502 C2496 1.383 . S
C2502 C2501 1.379 . S
H2503 C2497 0.959 . S
H2504 C2497 0.961 . S
H2505 C2497 0.960 . S
H2506 C2498 0.930 . S
H2507 C2499 0.929 . S
H2508 C2516 0.929 . S
H2509 C2518 0.930 . S
H2510 C2520 0.930 . S
H2511 C2523 0.929 . S
H2512 C2526 0.930 . S
H2513 C2528 0.960 . S
H2514 C2528 0.960 . S
H2515 C2528 0.960 . S
C2516 H2508 0.929 . S
C2516 C2517 1.377 . S
C2516 C2518 1.384 . S
C2517 C2516 1.377 . S
C2517 C2523 1.390 . S
C2518 H2509 0.930 . S
C2518 C2516 1.384 . S
C2518 C2519 1.372 . S
C2519 C2518 1.372 . S
C2519 C2520 1.400 . S
C2519 C2524 1.490 . S
C2520 H2510 0.930 . S
C2520 C2519 1.400 . S
C2520 C2523 1.386 . S
H2521 C2537 0.930 . S
H2522 C2538 0.931 . S
C2523 H2511 0.929 . S
C2523 C2517 1.390 . S
C2523 C2520 1.386 . S
C2524 C2519 1.490 . S
C2524 C2526 1.395 . S
C2524 C2527 1.403 . S
H2525 C2531 0.930 . S
C2526 H2512 0.930 . S
C2526 C2524 1.395 . S
C2526 C2529 1.403 . S
C2527 C2524 1.403 . S
C2527 C2528 1.524 . S
C2527 C2531 1.400 . S
C2528 H2513 0.960 . S
C2528 H2514 0.960 . S
C2528 H2515 0.960 . S
C2528 C2527 1.524 . S
C2529 C2526 1.403 . S
C2529 C2530 1.392 . S
C2529 C2533 1.495 . S
C2530 C2529 1.392 . S
C2530 C2531 1.385 . S
C2530 C2532 1.478 . S
C2531 H2525 0.930 . S
C2531 C2527 1.400 . S
C2531 C2530 1.385 . S
C2532 C2530 1.478 . S
C2532 C2534 1.381 . S
C2532 C2538 1.383 . S
C2533 C2529 1.495 . S
C2533 H2539 0.959 . S
C2533 H2540 0.961 . S
C2533 H2541 0.960 . S
C2534 C2532 1.381 . S
C2534 C2535 1.394 . S
C2534 H2542 0.930 . S
C2535 C2534 1.394 . S
C2535 C2536 1.383 . S
C2535 H2543 0.929 . S
C2536 C2535 1.383 . S
C2536 C2537 1.377 . S
C2537 H2521 0.930 . S
C2537 C2536 1.377 . S
C2537 C2538 1.379 . S
C2538 H2522 0.931 . S
C2538 C2532 1.383 . S
C2538 C2537 1.379 . S
H2539 C2533 0.959 . S
H2540 C2533 0.961 . S
H2541 C2533 0.960 . S
H2542 C2534 0.930 . S
H2543 C2535 0.929 . S
H2544 C2552 0.929 . S
H2545 C2554 0.930 . S
H2546 C2556 0.930 . S
H2547 C2559 0.929 . S
H2548 C2562 0.930 . S
H2549 C2564 0.960 . S
H2550 C2564 0.960 . S
H2551 C2564 0.960 . S
C2552 H2544 0.929 . S
C2552 C2553 1.377 . S
C2552 C2554 1.384 . S
C2553 C2552 1.377 . S
C2553 C2559 1.390 . S
C2554 H2545 0.930 . S
C2554 C2552 1.384 . S
C2554 C2555 1.372 . S
C2555 C2554 1.372 . S
C2555 C2556 1.400 . S
C2555 C2560 1.490 . S
C2556 H2546 0.930 . S
C2556 C2555 1.400 . S
C2556 C2559 1.386 . S
H2557 C2573 0.930 . S
H2558 C2574 0.931 . S
C2559 H2547 0.929 . S
C2559 C2553 1.390 . S
C2559 C2556 1.386 . S
C2560 C2555 1.490 . S
C2560 C2562 1.395 . S
C2560 C2563 1.403 . S
H2561 C2567 0.930 . S
C2562 H2548 0.930 . S
C2562 C2560 1.395 . S
C2562 C2565 1.403 . S
C2563 C2560 1.403 . S
C2563 C2564 1.524 . S
C2563 C2567 1.400 . S
C2564 H2549 0.960 . S
C2564 H2550 0.960 . S
C2564 H2551 0.960 . S
C2564 C2563 1.524 . S
C2565 C2562 1.403 . S
C2565 C2566 1.392 . S
C2565 C2569 1.495 . S
C2566 C2565 1.392 . S
C2566 C2567 1.385 . S
C2566 C2568 1.478 . S
C2567 H2561 0.930 . S
C2567 C2563 1.400 . S
C2567 C2566 1.385 . S
C2568 C2566 1.478 . S
C2568 C2570 1.381 . S
C2568 C2574 1.383 . S
C2569 C2565 1.495 . S
C2569 H2575 0.959 . S
C2569 H2576 0.961 . S
C2569 H2577 0.960 . S
C2570 C2568 1.381 . S
C2570 C2571 1.394 . S
C2570 H2578 0.930 . S
C2571 C2570 1.394 . S
C2571 C2572 1.383 . S
C2571 H2579 0.929 . S
C2572 C2571 1.383 . S
C2572 C2573 1.377 . S
C2573 H2557 0.930 . S
C2573 C2572 1.377 . S
C2573 C2574 1.379 . S
C2574 H2558 0.931 . S
C2574 C2568 1.383 . S
C2574 C2573 1.379 . S
H2575 C2569 0.959 . S
H2576 C2569 0.961 . S
H2577 C2569 0.960 . S
H2578 C2570 0.930 . S
H2579 C2571 0.929 . S
H2580 C2588 0.929 . S
H2581 C2590 0.930 . S
H2582 C2592 0.930 . S
H2583 C2595 0.929 . S
H2584 C2598 0.930 . S
H2585 C2600 0.960 . S
H2586 C2600 0.960 . S
H2587 C2600 0.960 . S
C2588 H2580 0.929 . S
C2588 C2589 1.377 . S
C2588 C2590 1.384 . S
C2589 C2588 1.377 . S
C2589 C2595 1.390 . S
C2590 H2581 0.930 . S
C2590 C2588 1.384 . S
C2590 C2591 1.372 . S
C2591 C2590 1.372 . S
C2591 C2592 1.400 . S
C2591 C2596 1.490 . S
C2592 H2582 0.930 . S
C2592 C2591 1.400 . S
C2592 C2595 1.386 . S
H2593 C2609 0.930 . S
H2594 C2610 0.931 . S
C2595 H2583 0.929 . S
C2595 C2589 1.390 . S
C2595 C2592 1.386 . S
C2596 C2591 1.490 . S
C2596 C2598 1.395 . S
C2596 C2599 1.403 . S
H2597 C2603 0.930 . S
C2598 H2584 0.930 . S
C2598 C2596 1.395 . S
C2598 C2601 1.403 . S
C2599 C2596 1.403 . S
C2599 C2600 1.524 . S
C2599 C2603 1.400 . S
C2600 H2585 0.960 . S
C2600 H2586 0.960 . S
C2600 H2587 0.960 . S
C2600 C2599 1.524 . S
C2601 C2598 1.403 . S
C2601 C2602 1.392 . S
C2601 C2605 1.495 . S
C2602 C2601 1.392 . S
C2602 C2603 1.385 . S
C2602 C2604 1.478 . S
C2603 H2597 0.930 . S
C2603 C2599 1.400 . S
C2603 C2602 1.385 . S
C2604 C2602 1.478 . S
C2604 C2606 1.381 . S
C2604 C2610 1.383 . S
C2605 C2601 1.495 . S
C2605 H2611 0.959 . S
C2605 H2612 0.961 . S
C2605 H2613 0.960 . S
C2606 C2604 1.381 . S
C2606 C2607 1.394 . S
C2606 H2614 0.930 . S
C2607 C2606 1.394 . S
C2607 C2608 1.383 . S
C2607 H2615 0.929 . S
C2608 C2607 1.383 . S
C2608 C2609 1.377 . S
C2609 H2593 0.930 . S
C2609 C2608 1.377 . S
C2609 C2610 1.379 . S
C2610 H2594 0.931 . S
C2610 C2604 1.383 . S
C2610 C2609 1.379 . S
H2611 C2605 0.959 . S
H2612 C2605 0.961 . S
H2613 C2605 0.960 . S
H2614 C2606 0.930 . S
H2615 C2607 0.929 . S
H2616 C2624 0.929 . S
H2617 C2626 0.930 . S
H2618 C2628 0.930 . S
H2619 C2631 0.929 . S
H2620 C2634 0.930 . S
H2621 C2636 0.960 . S
H2622 C2636 0.960 . S
H2623 C2636 0.960 . S
C2624 H2616 0.929 . S
C2624 C2625 1.377 . S
C2624 C2626 1.384 . S
C2625 C2624 1.377 . S
C2625 C2631 1.390 . S
C2626 H2617 0.930 . S
C2626 C2624 1.384 . S
C2626 C2627 1.372 . S
C2627 C2626 1.372 . S
C2627 C2628 1.400 . S
C2627 C2632 1.490 . S
C2628 H2618 0.930 . S
C2628 C2627 1.400 . S
C2628 C2631 1.386 . S
H2629 C2645 0.930 . S
H2630 C2646 0.931 . S
C2631 H2619 0.929 . S
C2631 C2625 1.390 . S
C2631 C2628 1.386 . S
C2632 C2627 1.490 . S
C2632 C2634 1.395 . S
C2632 C2635 1.403 . S
H2633 C2639 0.930 . S
C2634 H2620 0.930 . S
C2634 C2632 1.395 . S
C2634 C2637 1.403 . S
C2635 C2632 1.403 . S
C2635 C2636 1.524 . S
C2635 C2639 1.400 . S
C2636 H2621 0.960 . S
C2636 H2622 0.960 . S
C2636 H2623 0.960 . S
C2636 C2635 1.524 . S
C2637 C2634 1.403 . S
C2637 C2638 1.392 . S
C2637 C2641 1.495 . S
C2638 C2637 1.392 . S
C2638 C2639 1.385 . S
C2638 C2640 1.478 . S
C2639 H2633 0.930 . S
C2639 C2635 1.400 . S
C2639 C2638 1.385 . S
C2640 C2638 1.478 . S
C2640 C2642 1.381 . S
C2640 C2646 1.383 . S
C2641 C2637 1.495 . S
C2641 H2647 0.959 . S
C2641 H2648 0.961 . S
C2641 H2649 0.960 . S
C2642 C2640 1.381 . S
C2642 C2643 1.394 . S
C2642 H2650 0.930 . S
C2643 C2642 1.394 . S
C2643 C2644 1.383 . S
C2643 H2651 0.929 . S
C2644 C2643 1.383 . S
C2644 C2645 1.377 . S
C2645 H2629 0.930 . S
C2645 C2644 1.377 . S
C2645 C2646 1.379 . S
C2646 H2630 0.931 . S
C2646 C2640 1.383 . S
C2646 C2645 1.379 . S
H2647 C2641 0.959 . S
H2648 C2641 0.961 . S
H2649 C2641 0.960 . S
H2650 C2642 0.930 . S
H2651 C2643 0.929 . S
H2652 C2660 0.929 . S
H2653 C2662 0.930 . S
H2654 C2664 0.930 . S
H2655 C2667 0.929 . S
H2656 C2670 0.930 . S
H2657 C2672 0.960 . S
H2658 C2672 0.960 . S
H2659 C2672 0.960 . S
C2660 H2652 0.929 . S
C2660 C2661 1.377 . S
C2660 C2662 1.384 . S
C2661 C2660 1.377 . S
C2661 C2667 1.390 . S
C2662 H2653 0.930 . S
C2662 C2660 1.384 . S
C2662 C2663 1.372 . S
C2663 C2662 1.372 . S
C2663 C2664 1.400 . S
C2663 C2668 1.490 . S
C2664 H2654 0.930 . S
C2664 C2663 1.400 . S
C2664 C2667 1.386 . S
H2665 C2681 0.930 . S
H2666 C2682 0.931 . S
C2667 H2655 0.929 . S
C2667 C2661 1.390 . S
C2667 C2664 1.386 . S
C2668 C2663 1.490 . S
C2668 C2670 1.395 . S
C2668 C2671 1.403 . S
H2669 C2675 0.930 . S
C2670 H2656 0.930 . S
C2670 C2668 1.395 . S
C2670 C2673 1.403 . S
C2671 C2668 1.403 . S
C2671 C2672 1.524 . S
C2671 C2675 1.400 . S
C2672 H2657 0.960 . S
C2672 H2658 0.960 . S
C2672 H2659 0.960 . S
C2672 C2671 1.524 . S
C2673 C2670 1.403 . S
C2673 C2674 1.392 . S
C2673 C2677 1.495 . S
C2674 C2673 1.392 . S
C2674 C2675 1.385 . S
C2674 C2676 1.478 . S
C2675 H2669 0.930 . S
C2675 C2671 1.400 . S
C2675 C2674 1.385 . S
C2676 C2674 1.478 . S
C2676 C2678 1.381 . S
C2676 C2682 1.383 . S
C2677 C2673 1.495 . S
C2677 H2683 0.959 . S
C2677 H2684 0.961 . S
C2677 H2685 0.960 . S
C2678 C2676 1.381 . S
C2678 C2679 1.394 . S
C2678 H2686 0.930 . S
C2679 C2678 1.394 . S
C2679 C2680 1.383 . S
C2679 H2687 0.929 . S
C2680 C2679 1.383 . S
C2680 C2681 1.377 . S
C2681 H2665 0.930 . S
C2681 C2680 1.377 . S
C2681 C2682 1.379 . S
C2682 H2666 0.931 . S
C2682 C2676 1.383 . S
C2682 C2681 1.379 . S
H2683 C2677 0.959 . S
H2684 C2677 0.961 . S
H2685 C2677 0.960 . S
H2686 C2678 0.930 . S
H2687 C2679 0.929 . S
H2688 C2696 0.929 . S
H2689 C2698 0.930 . S
H2690 C2700 0.930 . S
H2691 C2703 0.929 . S
H2692 C2706 0.930 . S
H2693 C2708 0.960 . S
H2694 C2708 0.960 . S
H2695 C2708 0.960 . S
C2696 H2688 0.929 . S
C2696 C2697 1.377 . S
C2696 C2698 1.384 . S
C2697 C2696 1.377 . S
C2697 C2703 1.390 . S
C2698 H2689 0.930 . S
C2698 C2696 1.384 . S
C2698 C2699 1.372 . S
C2699 C2698 1.372 . S
C2699 C2700 1.400 . S
C2699 C2704 1.490 . S
C2700 H2690 0.930 . S
C2700 C2699 1.400 . S
C2700 C2703 1.386 . S
H2701 C2717 0.930 . S
H2702 C2718 0.931 . S
C2703 H2691 0.929 . S
C2703 C2697 1.390 . S
C2703 C2700 1.386 . S
C2704 C2699 1.490 . S
C2704 C2706 1.395 . S
C2704 C2707 1.403 . S
H2705 C2711 0.930 . S
C2706 H2692 0.930 . S
C2706 C2704 1.395 . S
C2706 C2709 1.403 . S
C2707 C2704 1.403 . S
C2707 C2708 1.524 . S
C2707 C2711 1.400 . S
C2708 H2693 0.960 . S
C2708 H2694 0.960 . S
C2708 H2695 0.960 . S
C2708 C2707 1.524 . S
C2709 C2706 1.403 . S
C2709 C2710 1.392 . S
C2709 C2713 1.495 . S
C2710 C2709 1.392 . S
C2710 C2711 1.385 . S
C2710 C2712 1.478 . S
C2711 H2705 0.930 . S
C2711 C2707 1.400 . S
C2711 C2710 1.385 . S
C2712 C2710 1.478 . S
C2712 C2714 1.381 . S
C2712 C2718 1.383 . S
C2713 C2709 1.495 . S
C2713 H2719 0.959 . S
C2713 H2720 0.961 . S
C2713 H2721 0.960 . S
C2714 C2712 1.381 . S
C2714 C2715 1.394 . S
C2714 H2722 0.930 . S
C2715 C2714 1.394 . S
C2715 C2716 1.383 . S
C2715 H2723 0.929 . S
C2716 C2715 1.383 . S
C2716 C2717 1.377 . S
C2717 H2701 0.930 . S
C2717 C2716 1.377 . S
C2717 C2718 1.379 . S
C2718 H2702 0.931 . S
C2718 C2712 1.383 . S
C2718 C2717 1.379 . S
H2719 C2713 0.959 . S
H2720 C2713 0.961 . S
H2721 C2713 0.960 . S
H2722 C2714 0.930 . S
H2723 C2715 0.929 . S
H2724 C2732 0.929 . S
H2725 C2734 0.930 . S
H2726 C2736 0.930 . S
H2727 C2739 0.929 . S
H2728 C2742 0.930 . S
H2729 C2744 0.960 . S
H2730 C2744 0.960 . S
H2731 C2744 0.960 . S
C2732 H2724 0.929 . S
C2732 C2733 1.377 . S
C2732 C2734 1.384 . S
C2733 C2732 1.377 . S
C2733 C2739 1.390 . S
C2734 H2725 0.930 . S
C2734 C2732 1.384 . S
C2734 C2735 1.372 . S
C2735 C2734 1.372 . S
C2735 C2736 1.400 . S
C2735 C2740 1.490 . S
C2736 H2726 0.930 . S
C2736 C2735 1.400 . S
C2736 C2739 1.386 . S
H2737 C2753 0.930 . S
H2738 C2754 0.931 . S
C2739 H2727 0.929 . S
C2739 C2733 1.390 . S
C2739 C2736 1.386 . S
C2740 C2735 1.490 . S
C2740 C2742 1.395 . S
C2740 C2743 1.403 . S
H2741 C2747 0.930 . S
C2742 H2728 0.930 . S
C2742 C2740 1.395 . S
C2742 C2745 1.403 . S
C2743 C2740 1.403 . S
C2743 C2744 1.524 . S
C2743 C2747 1.400 . S
C2744 H2729 0.960 . S
C2744 H2730 0.960 . S
C2744 H2731 0.960 . S
C2744 C2743 1.524 . S
C2745 C2742 1.403 . S
C2745 C2746 1.392 . S
C2745 C2749 1.495 . S
C2746 C2745 1.392 . S
C2746 C2747 1.385 . S
C2746 C2748 1.478 . S
C2747 H2741 0.930 . S
C2747 C2743 1.400 . S
C2747 C2746 1.385 . S
C2748 C2746 1.478 . S
C2748 C2750 1.381 . S
C2748 C2754 1.383 . S
C2749 C2745 1.495 . S
C2749 H2755 0.959 . S
C2749 H2756 0.961 . S
C2749 H2757 0.960 . S
C2750 C2748 1.381 . S
C2750 C2751 1.394 . S
C2750 H2758 0.930 . S
C2751 C2750 1.394 . S
C2751 C2752 1.383 . S
C2751 H2759 0.929 . S
C2752 C2751 1.383 . S
C2752 C2753 1.377 . S
C2753 H2737 0.930 . S
C2753 C2752 1.377 . S
C2753 C2754 1.379 . S
C2754 H2738 0.931 . S
C2754 C2748 1.383 . S
C2754 C2753 1.379 . S
H2755 C2749 0.959 . S
H2756 C2749 0.961 . S
H2757 C2749 0.960 . S
H2758 C2750 0.930 . S
H2759 C2751 0.929 . S
H2760 C2768 0.929 . S
H2761 C2770 0.930 . S
H2762 C2772 0.930 . S
H2763 C2775 0.929 . S
H2764 C2778 0.930 . S
H2765 C2780 0.960 . S
H2766 C2780 0.960 . S
H2767 C2780 0.960 . S
C2768 H2760 0.929 . S
C2768 C2769 1.377 . S
C2768 C2770 1.384 . S
C2769 C2768 1.377 . S
C2769 C2775 1.390 . S
C2770 H2761 0.930 . S
C2770 C2768 1.384 . S
C2770 C2771 1.372 . S
C2771 C2770 1.372 . S
C2771 C2772 1.400 . S
C2771 C2776 1.490 . S
C2772 H2762 0.930 . S
C2772 C2771 1.400 . S
C2772 C2775 1.386 . S
H2773 C2789 0.934 . S
H2774 C2790 0.931 . S
C2775 H2763 0.929 . S
C2775 C2769 1.390 . S
C2775 C2772 1.386 . S
C2776 C2771 1.490 . S
C2776 C2778 1.395 . S
C2776 C2779 1.403 . S
H2777 C2783 0.930 . S
C2778 H2764 0.930 . S
C2778 C2776 1.395 . S
C2778 C2781 1.403 . S
C2779 C2776 1.403 . S
C2779 C2780 1.524 . S
C2779 C2783 1.400 . S
C2780 H2765 0.960 . S
C2780 H2766 0.960 . S
C2780 H2767 0.960 . S
C2780 C2779 1.524 . S
C2781 C2778 1.403 . S
C2781 C2782 1.392 . S
C2781 C2785 1.495 . S
C2782 C2781 1.392 . S
C2782 C2783 1.385 . S
C2782 C2784 1.478 . S
C2783 H2777 0.930 . S
C2783 C2779 1.400 . S
C2783 C2782 1.385 . S
C2784 C2782 1.478 . S
C2784 C2786 1.381 . S
C2784 C2790 1.383 . S
C2785 C2781 1.495 . S
C2785 H2791 0.959 . S
C2785 H2792 0.961 . S
C2785 H2793 0.960 . S
C2786 C2784 1.381 . S
C2786 C2787 1.402 . S
C2786 H2794 0.930 . S
C2787 C2786 1.402 . S
C2787 C2788 1.385 . S
C2787 H2795 0.919 1_565 S
C2788 C2787 1.385 . S
C2788 C2789 1.375 1_556 S
C2789 H2773 0.934 . S
C2789 C2788 1.375 1_554 S
C2789 C2790 1.377 1_554 S
C2790 H2774 0.931 . S
C2790 C2784 1.383 . S
C2790 C2789 1.377 1_556 S
H2791 C2785 0.959 . S
H2792 C2785 0.961 . S
H2793 C2785 0.960 . S
H2794 C2786 0.930 . S
H2795 C2787 0.919 1_545 S
H2796 C2804 0.929 . S
H2797 C2806 0.930 . S
H2798 C2808 0.930 . S
H2799 C2811 0.929 . S
H2800 C2814 0.930 . S
H2801 C2816 0.960 . S
H2802 C2816 0.960 . S
H2803 C2816 0.960 . S
C2804 H2796 0.929 . S
C2804 C2805 1.377 . S
C2804 C2806 1.384 . S
C2805 C2804 1.377 . S
C2805 C2811 1.390 . S
C2806 H2797 0.930 . S
C2806 C2804 1.384 . S
C2806 C2807 1.372 . S
C2807 C2806 1.372 . S
C2807 C2808 1.400 . S
C2807 C2812 1.490 . S
C2808 H2798 0.930 . S
C2808 C2807 1.400 . S
C2808 C2811 1.386 . S
H2809 C2825 0.930 . S
H2810 C2826 0.931 . S
C2811 H2799 0.929 . S
C2811 C2805 1.390 . S
C2811 C2808 1.386 . S
C2812 C2807 1.490 . S
C2812 C2814 1.395 . S
C2812 C2815 1.403 . S
H2813 C2819 0.930 . S
C2814 H2800 0.930 . S
C2814 C2812 1.395 . S
C2814 C2817 1.403 . S
C2815 C2812 1.403 . S
C2815 C2816 1.524 . S
C2815 C2819 1.400 . S
C2816 H2801 0.960 . S
C2816 H2802 0.960 . S
C2816 H2803 0.960 . S
C2816 C2815 1.524 . S
C2817 C2814 1.403 . S
C2817 C2818 1.392 . S
C2817 C2821 1.495 . S
C2818 C2817 1.392 . S
C2818 C2819 1.385 . S
C2818 C2820 1.478 . S
C2819 H2813 0.930 . S
C2819 C2815 1.400 . S
C2819 C2818 1.385 . S
C2820 C2818 1.478 . S
C2820 C2822 1.381 . S
C2820 C2826 1.383 . S
C2821 C2817 1.495 . S
C2821 H2827 0.959 . S
C2821 H2828 0.961 . S
C2821 H2829 0.960 . S
C2822 C2820 1.381 . S
C2822 C2823 1.394 . S
C2822 H2830 0.930 . S
C2823 C2822 1.394 . S
C2823 C2824 1.383 . S
C2823 H2831 0.929 . S
C2824 C2823 1.383 . S
C2824 C2825 1.377 . S
C2825 H2809 0.930 . S
C2825 C2824 1.377 . S
C2825 C2826 1.379 . S
C2826 H2810 0.931 . S
C2826 C2820 1.383 . S
C2826 C2825 1.379 . S
H2827 C2821 0.959 . S
H2828 C2821 0.961 . S
H2829 C2821 0.960 . S
H2830 C2822 0.930 . S
H2831 C2823 0.929 . S
H2832 C2840 0.929 . S
H2833 C2842 0.930 . S
H2834 C2844 0.930 . S
H2835 C2847 0.929 . S
H2836 C2850 0.930 . S
H2837 C2852 0.960 . S
H2838 C2852 0.960 1_545 S
H2839 C2852 0.960 . S
C2840 H2832 0.929 . S
C2840 C2841 1.377 . S
C2840 C2842 1.384 . S
C2841 C2840 1.377 . S
C2841 C2847 1.390 1_545 S
C2842 H2833 0.930 . S
C2842 C2840 1.384 . S
C2842 C2843 1.372 . S
C2843 C2842 1.372 . S
C2843 C2844 1.400 1_545 S
C2843 C2848 1.490 . S
C2844 H2834 0.930 . S
C2844 C2843 1.400 1_565 S
C2844 C2847 1.386 . S
H2845 C2861 0.946 . S
H2846 C2862 0.931 . S
C2847 H2835 0.929 . S
C2847 C2841 1.390 1_565 S
C2847 C2844 1.386 . S
C2848 C2843 1.490 . S
C2848 C2850 1.395 . S
C2848 C2851 1.403 . S
H2849 C2855 0.928 1_565 S
C2850 H2836 0.930 . S
C2850 C2848 1.395 . S
C2850 C2853 1.403 . S
C2851 C2848 1.403 . S
C2851 C2852 1.524 1_545 S
C2851 C2855 1.400 . S
C2852 H2837 0.960 . S
C2852 H2838 0.960 1_565 S
C2852 H2839 0.960 . S
C2852 C2851 1.524 1_565 S
C2853 C2850 1.403 . S
C2853 C2854 1.392 . S
C2853 C2857 1.495 . S
C2854 C2853 1.392 . S
C2854 C2855 1.385 . S
C2854 C2856 1.478 . S
C2855 H2849 0.928 1_545 S
C2855 C2851 1.400 . S
C2855 C2854 1.385 . S
C2856 C2854 1.478 . S
C2856 C2858 1.381 . S
C2856 C2862 1.383 1_545 S
C2857 C2853 1.495 . S
C2857 H2863 0.959 . S
C2857 H2864 0.961 . S
C2857 H2865 0.960 . S
C2858 C2856 1.381 . S
C2858 C2859 1.394 . S
C2858 H2866 0.930 . S
C2859 C2858 1.394 . S
C2859 C2860 1.383 . S
C2859 H2867 0.929 . S
C2860 C2859 1.383 . S
C2860 C2861 1.362 1_545 S
C2861 H2845 0.946 . S
C2861 C2860 1.362 1_565 S
C2861 C2862 1.379 . S
C2862 H2846 0.931 . S
C2862 C2856 1.383 1_565 S
C2862 C2861 1.379 . S
H2863 C2857 0.959 . S
H2864 C2857 0.961 . S
H2865 C2857 0.960 . S
H2866 C2858 0.930 . S
H2867 C2859 0.929 . S
H2868 C2876 0.929 . S
H2869 C2878 0.930 . S
H2870 C2880 0.930 . S
H2871 C2883 0.929 . S
H2872 C2886 0.930 . S
H2873 C2888 0.960 . S
H2874 C2888 0.960 . S
H2875 C2888 0.960 . S
C2876 H2868 0.929 . S
C2876 C2877 1.377 . S
C2876 C2878 1.384 . S
C2877 C2876 1.377 . S
C2877 C2883 1.390 . S
C2878 H2869 0.930 . S
C2878 C2876 1.384 . S
C2878 C2879 1.372 . S
C2879 C2878 1.372 . S
C2879 C2880 1.400 . S
C2879 C2884 1.490 . S
C2880 H2870 0.930 . S
C2880 C2879 1.400 . S
C2880 C2883 1.386 . S
H2881 C2897 0.930 . S
H2882 C2898 0.931 . S
C2883 H2871 0.929 . S
C2883 C2877 1.390 . S
C2883 C2880 1.386 . S
C2884 C2879 1.490 . S
C2884 C2886 1.395 . S
C2884 C2887 1.403 . S
H2885 C2891 0.930 . S
C2886 H2872 0.930 . S
C2886 C2884 1.395 . S
C2886 C2889 1.403 . S
C2887 C2884 1.403 . S
C2887 C2888 1.524 . S
C2887 C2891 1.400 . S
C2888 H2873 0.960 . S
C2888 H2874 0.960 . S
C2888 H2875 0.960 . S
C2888 C2887 1.524 . S
C2889 C2886 1.403 . S
C2889 C2890 1.392 . S
C2889 C2893 1.495 . S
C2890 C2889 1.392 . S
C2890 C2891 1.385 . S
C2890 C2892 1.478 . S
C2891 H2885 0.930 . S
C2891 C2887 1.400 . S
C2891 C2890 1.385 . S
C2892 C2890 1.478 . S
C2892 C2894 1.381 . S
C2892 C2898 1.383 . S
C2893 C2889 1.495 . S
C2893 H2899 0.959 . S
C2893 H2900 0.961 . S
C2893 H2901 0.960 . S
C2894 C2892 1.381 . S
C2894 C2895 1.394 . S
C2894 H2902 0.930 . S
C2895 C2894 1.394 . S
C2895 C2896 1.383 . S
C2895 H2903 0.929 . S
C2896 C2895 1.383 . S
C2896 C2897 1.377 . S
C2897 H2881 0.930 . S
C2897 C2896 1.377 . S
C2897 C2898 1.379 . S
C2898 H2882 0.931 . S
C2898 C2892 1.383 . S
C2898 C2897 1.379 . S
H2899 C2893 0.959 . S
H2900 C2893 0.961 . S
H2901 C2893 0.960 . S
H2902 C2894 0.930 . S
H2903 C2895 0.929 . S
H2904 C2912 0.929 . S
H2905 C2914 0.930 . S
H2906 C2916 0.930 . S
H2907 C2919 0.929 . S
H2908 C2922 0.930 . S
H2909 C2924 0.960 . S
H2910 C2924 0.960 . S
H2911 C2924 0.960 . S
C2912 H2904 0.929 . S
C2912 C2913 1.377 . S
C2912 C2914 1.384 . S
C2913 C2912 1.377 . S
C2913 C2919 1.390 . S
C2914 H2905 0.930 . S
C2914 C2912 1.384 . S
C2914 C2915 1.372 . S
C2915 C2914 1.372 . S
C2915 C2916 1.400 . S
C2915 C2920 1.490 . S
C2916 H2906 0.930 . S
C2916 C2915 1.400 . S
C2916 C2919 1.386 . S
H2917 C2933 0.930 . S
H2918 C2934 0.931 . S
C2919 H2907 0.929 . S
C2919 C2913 1.390 . S
C2919 C2916 1.386 . S
C2920 C2915 1.490 . S
C2920 C2922 1.395 . S
C2920 C2923 1.403 . S
H2921 C2927 0.930 . S
C2922 H2908 0.930 . S
C2922 C2920 1.395 . S
C2922 C2925 1.403 . S
C2923 C2920 1.403 . S
C2923 C2924 1.524 . S
C2923 C2927 1.400 . S
C2924 H2909 0.960 . S
C2924 H2910 0.960 . S
C2924 H2911 0.960 . S
C2924 C2923 1.524 . S
C2925 C2922 1.403 . S
C2925 C2926 1.392 . S
C2925 C2929 1.495 . S
C2926 C2925 1.392 . S
C2926 C2927 1.385 . S
C2926 C2928 1.478 . S
C2927 H2921 0.930 . S
C2927 C2923 1.400 . S
C2927 C2926 1.385 . S
C2928 C2926 1.478 . S
C2928 C2930 1.381 . S
C2928 C2934 1.383 . S
C2929 C2925 1.495 . S
C2929 H2935 0.959 . S
C2929 H2936 0.961 . S
C2929 H2937 0.960 . S
C2930 C2928 1.381 . S
C2930 C2931 1.394 . S
C2930 H2938 0.930 . S
C2931 C2930 1.394 . S
C2931 C2932 1.383 . S
C2931 H2939 0.929 . S
C2932 C2931 1.383 . S
C2932 C2933 1.377 . S
C2933 H2917 0.930 . S
C2933 C2932 1.377 . S
C2933 C2934 1.379 . S
C2934 H2918 0.931 . S
C2934 C2928 1.383 . S
C2934 C2933 1.379 . S
H2935 C2929 0.959 . S
H2936 C2929 0.961 . S
H2937 C2929 0.960 . S
H2938 C2930 0.930 . S
H2939 C2931 0.929 . S
H2940 C2948 0.929 . S
H2941 C2950 0.930 . S
H2942 C2952 0.930 . S
H2943 C2955 0.929 . S
H2944 C2958 0.930 . S
H2945 C2960 0.960 . S
H2946 C2960 0.960 . S
H2947 C2960 0.960 . S
C2948 H2940 0.929 . S
C2948 C2949 1.377 . S
C2948 C2950 1.384 . S
C2949 C2948 1.377 . S
C2949 C2955 1.390 . S
C2950 H2941 0.930 . S
C2950 C2948 1.384 . S
C2950 C2951 1.372 . S
C2951 C2950 1.372 . S
C2951 C2952 1.400 . S
C2951 C2956 1.490 . S
C2952 H2942 0.930 . S
C2952 C2951 1.400 . S
C2952 C2955 1.386 . S
H2953 C2969 0.930 . S
H2954 C2970 0.931 . S
C2955 H2943 0.929 . S
C2955 C2949 1.390 . S
C2955 C2952 1.386 . S
C2956 C2951 1.490 . S
C2956 C2958 1.395 . S
C2956 C2959 1.403 . S
H2957 C2963 0.930 . S
C2958 H2944 0.930 . S
C2958 C2956 1.395 . S
C2958 C2961 1.403 . S
C2959 C2956 1.403 . S
C2959 C2960 1.524 . S
C2959 C2963 1.400 . S
C2960 H2945 0.960 . S
C2960 H2946 0.960 . S
C2960 H2947 0.960 . S
C2960 C2959 1.524 . S
C2961 C2958 1.403 . S
C2961 C2962 1.392 . S
C2961 C2965 1.495 . S
C2962 C2961 1.392 . S
C2962 C2963 1.385 . S
C2962 C2964 1.478 . S
C2963 H2957 0.930 . S
C2963 C2959 1.400 . S
C2963 C2962 1.385 . S
C2964 C2962 1.478 . S
C2964 C2966 1.381 . S
C2964 C2970 1.383 . S
C2965 C2961 1.495 . S
C2965 H2971 0.959 . S
C2965 H2972 0.961 . S
C2965 H2973 0.960 . S
C2966 C2964 1.381 . S
C2966 C2967 1.394 . S
C2966 H2974 0.930 . S
C2967 C2966 1.394 . S
C2967 C2968 1.383 . S
C2967 H2975 0.929 . S
C2968 C2967 1.383 . S
C2968 C2969 1.377 . S
C2969 H2953 0.930 . S
C2969 C2968 1.377 . S
C2969 C2970 1.379 . S
C2970 H2954 0.931 . S
C2970 C2964 1.383 . S
C2970 C2969 1.379 . S
H2971 C2965 0.959 . S
H2972 C2965 0.961 . S
H2973 C2965 0.960 . S
H2974 C2966 0.930 . S
H2975 C2967 0.929 . S
H2976 C2984 0.929 . S
H2977 C2986 0.930 . S
H2978 C2988 0.930 . S
H2979 C2991 0.929 . S
H2980 C2994 0.930 . S
H2981 C2996 0.960 . S
H2982 C2996 0.960 . S
H2983 C2996 0.975 . S
C2984 H2976 0.929 . S
C2984 C2985 1.377 . S
C2984 C2986 1.384 . S
C2985 C2984 1.377 . S
C2985 C2991 1.390 1_565 S
C2986 H2977 0.930 . S
C2986 C2984 1.384 . S
C2986 C2987 1.372 1_565 S
C2987 C2986 1.372 1_545 S
C2987 C2988 1.400 . S
C2987 C2992 1.490 . S
C2988 H2978 0.930 . S
C2988 C2987 1.400 . S
C2988 C2991 1.386 . S
H2989 C3005 0.930 . S
H2990 C3006 0.931 . S
C2991 H2979 0.929 . S
C2991 C2985 1.390 1_545 S
C2991 C2988 1.386 . S
C2992 C2987 1.490 . S
C2992 C2994 1.395 . S
C2992 C2995 1.403 . S
H2993 C2999 0.930 . S
C2994 H2980 0.930 . S
C2994 C2992 1.395 . S
C2994 C2997 1.403 . S
C2995 C2992 1.403 . S
C2995 C2996 1.524 1_545 S
C2995 C2999 1.400 . S
C2996 H2981 0.960 . S
C2996 H2982 0.960 . S
C2996 H2983 0.975 . S
C2996 C2995 1.524 1_565 S
C2997 C2994 1.403 . S
C2997 C2998 1.392 . S
C2997 C3001 1.495 . S
C2998 C2997 1.392 . S
C2998 C2999 1.385 . S
C2998 C3000 1.478 . S
C2999 H2993 0.930 . S
C2999 C2995 1.400 . S
C2999 C2998 1.385 . S
C3000 C2998 1.478 . S
C3000 C3002 1.381 . S
C3000 C3006 1.383 . S
C3001 C2997 1.495 . S
C3001 H3007 0.959 . S
C3001 H3008 0.961 . S
C3001 H3009 0.960 . S
C3002 C3000 1.381 . S
C3002 C3003 1.394 . S
C3002 H3010 0.930 . S
C3003 C3002 1.394 . S
C3003 C3004 1.383 . S
C3003 H3011 0.929 . S
C3004 C3003 1.383 . S
C3004 C3005 1.377 . S
C3005 H2989 0.930 . S
C3005 C3004 1.377 . S
C3005 C3006 1.379 . S
C3006 H2990 0.931 . S
C3006 C3000 1.383 . S
C3006 C3005 1.379 . S
H3007 C3001 0.959 . S
H3008 C3001 0.961 . S
H3009 C3001 0.960 . S
H3010 C3002 0.930 . S
H3011 C3003 0.929 . S
H3012 C3020 0.929 . S
H3013 C3022 0.930 . S
H3014 C3024 0.930 . S
H3015 C3027 0.929 . S
H3016 C3030 0.930 . S
H3017 C3032 0.960 . S
H3018 C3032 0.960 . S
H3019 C3032 0.960 . S
C3020 H3012 0.929 . S
C3020 C3021 1.377 . S
C3020 C3022 1.384 . S
C3021 C3020 1.377 . S
C3021 C3027 1.390 . S
C3022 H3013 0.930 . S
C3022 C3020 1.384 . S
C3022 C3023 1.372 . S
C3023 C3022 1.372 . S
C3023 C3024 1.400 . S
C3023 C3028 1.490 . S
C3024 H3014 0.930 . S
C3024 C3023 1.400 . S
C3024 C3027 1.386 . S
H3025 C3041 0.930 . S
H3026 C3042 0.931 . S
C3027 H3015 0.929 . S
C3027 C3021 1.390 . S
C3027 C3024 1.386 . S
C3028 C3023 1.490 . S
C3028 C3030 1.395 . S
C3028 C3031 1.403 . S
H3029 C3035 0.930 . S
C3030 H3016 0.930 . S
C3030 C3028 1.395 . S
C3030 C3033 1.403 . S
C3031 C3028 1.403 . S
C3031 C3032 1.524 . S
C3031 C3035 1.400 . S
C3032 H3017 0.960 . S
C3032 H3018 0.960 . S
C3032 H3019 0.960 . S
C3032 C3031 1.524 . S
C3033 C3030 1.403 . S
C3033 C3034 1.392 . S
C3033 C3037 1.495 . S
C3034 C3033 1.392 . S
C3034 C3035 1.385 . S
C3034 C3036 1.478 . S
C3035 H3029 0.930 . S
C3035 C3031 1.400 . S
C3035 C3034 1.385 . S
C3036 C3034 1.478 . S
C3036 C3038 1.381 . S
C3036 C3042 1.383 . S
C3037 C3033 1.495 . S
C3037 H3043 0.959 . S
C3037 H3044 0.961 . S
C3037 H3045 0.960 . S
C3038 C3036 1.381 . S
C3038 C3039 1.394 . S
C3038 H3046 0.930 . S
C3039 C3038 1.394 . S
C3039 C3040 1.383 . S
C3039 H3047 0.929 . S
C3040 C3039 1.383 . S
C3040 C3041 1.377 . S
C3041 H3025 0.930 . S
C3041 C3040 1.377 . S
C3041 C3042 1.379 . S
C3042 H3026 0.931 . S
C3042 C3036 1.383 . S
C3042 C3041 1.379 . S
H3043 C3037 0.959 . S
H3044 C3037 0.961 . S
H3045 C3037 0.960 . S
H3046 C3038 0.930 . S
H3047 C3039 0.929 . S
H3048 C3056 0.929 . S
H3049 C3058 0.930 . S
H3050 C3060 0.930 . S
H3051 C3063 0.929 . S
H3052 C3066 0.930 1_565 S
H3053 C3068 0.960 . S
H3054 C3068 0.960 . S
H3055 C3068 0.960 . S
C3056 H3048 0.929 . S
C3056 C3057 1.377 . S
C3056 C3058 1.384 . S
C3057 C3056 1.377 . S
C3057 C3063 1.390 . S
C3058 H3049 0.930 . S
C3058 C3056 1.384 . S
C3058 C3059 1.372 . S
C3059 C3058 1.372 . S
C3059 C3060 1.400 . S
C3059 C3064 1.490 . S
C3060 H3050 0.930 . S
C3060 C3059 1.400 . S
C3060 C3063 1.386 . S
H3061 C3077 0.930 . S
H3062 C3078 0.931 . S
C3063 H3051 0.929 . S
C3063 C3057 1.390 . S
C3063 C3060 1.386 . S
C3064 C3059 1.490 . S
C3064 C3066 1.395 . S
C3064 C3067 1.403 . S
H3065 C3071 0.930 . S
C3066 H3052 0.930 1_545 S
C3066 C3064 1.395 . S
C3066 C3069 1.403 . S
C3067 C3064 1.403 . S
C3067 C3068 1.524 . S
C3067 C3071 1.400 . S
C3068 H3053 0.960 . S
C3068 H3054 0.960 . S
C3068 H3055 0.960 . S
C3068 C3067 1.524 . S
C3069 C3066 1.403 . S
C3069 C3070 1.392 . S
C3069 C3073 1.495 1_545 S
C3070 C3069 1.392 . S
C3070 C3071 1.385 . S
C3070 C3072 1.478 . S
C3071 H3065 0.930 . S
C3071 C3067 1.400 . S
C3071 C3070 1.385 . S
C3072 C3070 1.478 . S
C3072 C3074 1.381 . S
C3072 C3078 1.383 . S
C3073 C3069 1.495 1_565 S
C3073 H3079 0.959 . S
C3073 H3080 0.961 . S
C3073 H3081 0.960 . S
C3074 C3072 1.381 . S
C3074 C3075 1.394 . S
C3074 H3082 0.930 . S
C3075 C3074 1.394 . S
C3075 C3076 1.383 . S
C3075 H3083 0.929 . S
C3076 C3075 1.383 . S
C3076 C3077 1.377 . S
C3077 H3061 0.930 . S
C3077 C3076 1.377 . S
C3077 C3078 1.379 . S
C3078 H3062 0.931 . S
C3078 C3072 1.383 . S
C3078 C3077 1.379 . S
H3079 C3073 0.959 . S
H3080 C3073 0.961 . S
H3081 C3073 0.960 . S
H3082 C3074 0.930 . S
H3083 C3075 0.929 . S
H3084 C3092 0.929 . S
H3085 C3094 0.930 . S
H3086 C3096 0.930 . S
H3087 C3099 0.929 . S
H3088 C3102 0.930 . S
H3089 C3104 0.960 . S
H3090 C3104 0.960 . S
H3091 C3104 0.960 . S
C3092 H3084 0.929 . S
C3092 C3093 1.377 . S
C3092 C3094 1.384 . S
C3093 C3092 1.377 . S
C3093 C3099 1.390 . S
C3094 H3085 0.930 . S
C3094 C3092 1.384 . S
C3094 C3095 1.372 . S
C3095 C3094 1.372 . S
C3095 C3096 1.400 . S
C3095 C3100 1.490 . S
C3096 H3086 0.930 . S
C3096 C3095 1.400 . S
C3096 C3099 1.386 . S
H3097 C3113 0.930 . S
H3098 C3114 0.931 . S
C3099 H3087 0.929 . S
C3099 C3093 1.390 . S
C3099 C3096 1.386 . S
C3100 C3095 1.490 . S
C3100 C3102 1.395 . S
C3100 C3103 1.403 . S
H3101 C3107 0.930 . S
C3102 H3088 0.930 . S
C3102 C3100 1.395 . S
C3102 C3105 1.403 . S
C3103 C3100 1.403 . S
C3103 C3104 1.524 . S
C3103 C3107 1.400 . S
C3104 H3089 0.960 . S
C3104 H3090 0.960 . S
C3104 H3091 0.960 . S
C3104 C3103 1.524 . S
C3105 C3102 1.403 . S
C3105 C3106 1.392 . S
C3105 C3109 1.495 . S
C3106 C3105 1.392 . S
C3106 C3107 1.385 . S
C3106 C3108 1.478 . S
C3107 H3101 0.930 . S
C3107 C3103 1.400 . S
C3107 C3106 1.385 . S
C3108 C3106 1.478 . S
C3108 C3110 1.381 . S
C3108 C3114 1.383 . S
C3109 C3105 1.495 . S
C3109 H3115 0.959 . S
C3109 H3116 0.961 . S
C3109 H3117 0.960 . S
C3110 C3108 1.381 . S
C3110 C3111 1.394 . S
C3110 H3118 0.930 . S
C3111 C3110 1.394 . S
C3111 C3112 1.383 . S
C3111 H3119 0.929 . S
C3112 C3111 1.383 . S
C3112 C3113 1.377 . S
C3113 H3097 0.930 . S
C3113 C3112 1.377 . S
C3113 C3114 1.379 . S
C3114 H3098 0.931 . S
C3114 C3108 1.383 . S
C3114 C3113 1.379 . S
H3115 C3109 0.959 . S
H3116 C3109 0.961 . S
H3117 C3109 0.960 . S
H3118 C3110 0.930 . S
H3119 C3111 0.929 . S
H3120 C3128 0.929 . S
H3121 C3130 0.930 . S
H3122 C3132 0.930 . S
H3123 C3135 0.929 . S
H3124 C3138 0.930 . S
H3125 C3140 0.960 . S
H3126 C3140 0.960 . S
H3127 C3140 0.960 . S
C3128 H3120 0.929 . S
C3128 C3129 1.377 . S
C3128 C3130 1.384 . S
C3129 C3128 1.377 . S
C3129 C3135 1.390 . S
C3130 H3121 0.930 . S
C3130 C3128 1.384 . S
C3130 C3131 1.372 . S
C3131 C3130 1.372 . S
C3131 C3132 1.400 . S
C3131 C3136 1.490 . S
C3132 H3122 0.930 . S
C3132 C3131 1.400 . S
C3132 C3135 1.386 . S
H3133 C3149 0.930 . S
H3134 C3150 0.931 . S
C3135 H3123 0.929 . S
C3135 C3129 1.390 . S
C3135 C3132 1.386 . S
C3136 C3131 1.490 . S
C3136 C3138 1.395 . S
C3136 C3139 1.403 . S
H3137 C3143 0.930 1_556 S
C3138 H3124 0.930 . S
C3138 C3136 1.395 . S
C3138 C3141 1.403 . S
C3139 C3136 1.403 . S
C3139 C3140 1.524 1_554 S
C3139 C3143 1.400 . S
C3140 H3125 0.960 . S
C3140 H3126 0.960 . S
C3140 H3127 0.960 . S
C3140 C3139 1.524 1_556 S
C3141 C3138 1.403 . S
C3141 C3142 1.392 . S
C3141 C3145 1.495 . S
C3142 C3141 1.392 . S
C3142 C3143 1.385 . S
C3142 C3144 1.478 . S
C3143 H3137 0.930 1_554 S
C3143 C3139 1.400 . S
C3143 C3142 1.385 . S
C3144 C3142 1.478 . S
C3144 C3146 1.381 . S
C3144 C3150 1.383 . S
C3145 C3141 1.495 . S
C3145 H3151 0.959 . S
C3145 H3152 0.961 . S
C3145 H3153 0.960 . S
C3146 C3144 1.381 . S
C3146 C3147 1.394 . S
C3146 H3154 0.930 . S
C3147 C3146 1.394 . S
C3147 C3148 1.383 . S
C3147 H3155 0.929 . S
C3148 C3147 1.383 . S
C3148 C3149 1.377 . S
C3149 H3133 0.930 . S
C3149 C3148 1.377 . S
C3149 C3150 1.379 . S
C3150 H3134 0.931 . S
C3150 C3144 1.383 . S
C3150 C3149 1.379 . S
H3151 C3145 0.959 . S
H3152 C3145 0.961 . S
H3153 C3145 0.960 . S
H3154 C3146 0.930 . S
H3155 C3147 0.929 . S
H3156 C3164 0.929 . S
H3157 C3166 0.930 . S
H3158 C3168 0.930 . S
H3159 C3171 0.929 . S
H3160 C3174 0.930 . S
H3161 C3176 0.960 . S
H3162 C3176 0.960 . S
H3163 C3176 0.960 . S
C3164 H3156 0.929 . S
C3164 C3165 1.377 . S
C3164 C3166 1.384 . S
C3165 C3164 1.377 . S
C3165 C3171 1.390 . S
C3166 H3157 0.930 . S
C3166 C3164 1.384 . S
C3166 C3167 1.372 . S
C3167 C3166 1.372 . S
C3167 C3168 1.400 . S
C3167 C3172 1.490 . S
C3168 H3158 0.930 . S
C3168 C3167 1.400 . S
C3168 C3171 1.386 . S
H3169 C3185 0.930 . S
H3170 C3186 0.931 . S
C3171 H3159 0.929 . S
C3171 C3165 1.390 . S
C3171 C3168 1.386 . S
C3172 C3167 1.490 . S
C3172 C3174 1.395 . S
C3172 C3175 1.403 . S
H3173 C3179 0.930 . S
C3174 H3160 0.930 . S
C3174 C3172 1.395 . S
C3174 C3177 1.403 . S
C3175 C3172 1.403 . S
C3175 C3176 1.524 . S
C3175 C3179 1.400 . S
C3176 H3161 0.960 . S
C3176 H3162 0.960 . S
C3176 H3163 0.960 . S
C3176 C3175 1.524 . S
C3177 C3174 1.403 . S
C3177 C3178 1.392 . S
C3177 C3181 1.495 . S
C3178 C3177 1.392 . S
C3178 C3179 1.385 . S
C3178 C3180 1.478 . S
C3179 H3173 0.930 . S
C3179 C3175 1.400 . S
C3179 C3178 1.385 . S
C3180 C3178 1.478 . S
C3180 C3182 1.381 . S
C3180 C3186 1.383 . S
C3181 C3177 1.495 . S
C3181 H3187 0.959 . S
C3181 H3188 0.961 . S
C3181 H3189 0.960 . S
C3182 C3180 1.381 . S
C3182 C3183 1.394 . S
C3182 H3190 0.930 . S
C3183 C3182 1.394 . S
C3183 C3184 1.383 . S
C3183 H3191 0.929 . S
C3184 C3183 1.383 . S
C3184 C3185 1.377 . S
C3185 H3169 0.930 . S
C3185 C3184 1.377 . S
C3185 C3186 1.379 . S
C3186 H3170 0.931 . S
C3186 C3180 1.383 . S
C3186 C3185 1.379 . S
H3187 C3181 0.959 . S
H3188 C3181 0.961 . S
H3189 C3181 0.960 . S
H3190 C3182 0.930 . S
H3191 C3183 0.929 . S
H3192 C3200 0.929 . S
H3193 C3202 0.930 . S
H3194 C3204 0.930 . S
H3195 C3207 0.929 . S
H3196 C3210 0.930 . S
H3197 C3212 0.960 . S
H3198 C3212 0.960 . S
H3199 C3212 0.960 . S
C3200 H3192 0.929 . S
C3200 C3201 1.377 . S
C3200 C3202 1.384 . S
C3201 C3200 1.377 . S
C3201 C3207 1.390 . S
C3202 H3193 0.930 . S
C3202 C3200 1.384 . S
C3202 C3203 1.372 . S
C3203 C3202 1.372 . S
C3203 C3204 1.400 . S
C3203 C3208 1.490 . S
C3204 H3194 0.930 . S
C3204 C3203 1.400 . S
C3204 C3207 1.386 . S
H3205 C3221 0.930 . S
H3206 C3222 0.931 . S
C3207 H3195 0.929 . S
C3207 C3201 1.390 . S
C3207 C3204 1.386 . S
C3208 C3203 1.490 . S
C3208 C3210 1.395 . S
C3208 C3211 1.403 . S
H3209 C3215 0.930 . S
C3210 H3196 0.930 . S
C3210 C3208 1.395 . S
C3210 C3213 1.403 . S
C3211 C3208 1.403 . S
C3211 C3212 1.524 . S
C3211 C3215 1.400 . S
C3212 H3197 0.960 . S
C3212 H3198 0.960 . S
C3212 H3199 0.960 . S
C3212 C3211 1.524 . S
C3213 C3210 1.403 . S
C3213 C3214 1.392 . S
C3213 C3217 1.495 . S
C3214 C3213 1.392 . S
C3214 C3215 1.385 . S
C3214 C3216 1.478 . S
C3215 H3209 0.930 . S
C3215 C3211 1.400 . S
C3215 C3214 1.385 . S
C3216 C3214 1.478 . S
C3216 C3218 1.381 . S
C3216 C3222 1.383 . S
C3217 C3213 1.495 . S
C3217 H3223 0.959 . S
C3217 H3224 0.961 . S
C3217 H3225 0.960 . S
C3218 C3216 1.381 . S
C3218 C3219 1.394 . S
C3218 H3226 0.930 . S
C3219 C3218 1.394 . S
C3219 C3220 1.383 . S
C3219 H3227 0.929 . S
C3220 C3219 1.383 . S
C3220 C3221 1.377 . S
C3221 H3205 0.930 . S
C3221 C3220 1.377 . S
C3221 C3222 1.379 . S
C3222 H3206 0.931 . S
C3222 C3216 1.383 . S
C3222 C3221 1.379 . S
H3223 C3217 0.959 . S
H3224 C3217 0.961 . S
H3225 C3217 0.960 . S
H3226 C3218 0.930 . S
H3227 C3219 0.929 . S
H3228 C3236 0.929 . S
H3229 C3238 0.930 . S
H3230 C3240 0.930 . S
H3231 C3243 0.929 . S
H3232 C3246 0.930 . S
H3233 C3248 0.960 . S
H3234 C3248 0.960 . S
H3235 C3248 0.960 . S
C3236 H3228 0.929 . S
C3236 C3237 1.377 . S
C3236 C3238 1.384 . S
C3237 C3236 1.377 . S
C3237 C3243 1.390 . S
C3238 H3229 0.930 . S
C3238 C3236 1.384 . S
C3238 C3239 1.372 . S
C3239 C3238 1.372 . S
C3239 C3240 1.400 . S
C3239 C3244 1.490 . S
C3240 H3230 0.930 . S
C3240 C3239 1.400 . S
C3240 C3243 1.386 . S
H3241 C3257 0.930 . S
H3242 C3258 0.931 . S
C3243 H3231 0.929 . S
C3243 C3237 1.390 . S
C3243 C3240 1.386 . S
C3244 C3239 1.490 . S
C3244 C3246 1.395 . S
C3244 C3247 1.403 . S
H3245 C3251 0.930 . S
C3246 H3232 0.930 . S
C3246 C3244 1.395 . S
C3246 C3249 1.403 . S
C3247 C3244 1.403 . S
C3247 C3248 1.524 . S
C3247 C3251 1.400 . S
C3248 H3233 0.960 . S
C3248 H3234 0.960 . S
C3248 H3235 0.960 . S
C3248 C3247 1.524 . S
C3249 C3246 1.403 . S
C3249 C3250 1.392 . S
C3249 C3253 1.495 . S
C3250 C3249 1.392 . S
C3250 C3251 1.385 . S
C3250 C3252 1.478 . S
C3251 H3245 0.930 . S
C3251 C3247 1.400 . S
C3251 C3250 1.385 . S
C3252 C3250 1.478 . S
C3252 C3254 1.381 . S
C3252 C3258 1.383 . S
C3253 C3249 1.495 . S
C3253 H3259 0.959 . S
C3253 H3260 0.961 . S
C3253 H3261 0.960 . S
C3254 C3252 1.381 . S
C3254 C3255 1.394 . S
C3254 H3262 0.930 . S
C3255 C3254 1.394 . S
C3255 C3256 1.383 . S
C3255 H3263 0.929 . S
C3256 C3255 1.383 . S
C3256 C3257 1.377 . S
C3257 H3241 0.930 . S
C3257 C3256 1.377 . S
C3257 C3258 1.379 . S
C3258 H3242 0.931 . S
C3258 C3252 1.383 . S
C3258 C3257 1.379 . S
H3259 C3253 0.959 . S
H3260 C3253 0.961 . S
H3261 C3253 0.960 . S
H3262 C3254 0.930 . S
H3263 C3255 0.929 . S
H3264 C3272 0.929 1_545 S
H3265 C3274 0.930 . S
H3266 C3276 0.930 . S
H3267 C3279 0.929 . S
H3268 C3282 0.930 . S
H3269 C3284 0.960 . S
H3270 C3284 0.960 . S
H3271 C3284 0.960 . S
C3272 H3264 0.929 1_565 S
C3272 C3273 1.377 . S
C3272 C3274 1.384 . S
C3273 C3272 1.377 . S
C3273 C3279 1.390 . S
C3274 H3265 0.930 . S
C3274 C3272 1.384 . S
C3274 C3275 1.372 . S
C3275 C3274 1.372 . S
C3275 C3276 1.400 . S
C3275 C3280 1.490 . S
C3276 H3266 0.930 . S
C3276 C3275 1.400 . S
C3276 C3279 1.386 . S
H3277 C3293 0.930 . S
H3278 C3294 0.931 . S
C3279 H3267 0.929 . S
C3279 C3273 1.390 . S
C3279 C3276 1.386 . S
C3280 C3275 1.490 . S
C3280 C3282 1.395 . S
C3280 C3283 1.403 . S
H3281 C3287 0.930 . S
C3282 H3268 0.930 . S
C3282 C3280 1.395 . S
C3282 C3285 1.403 . S
C3283 C3280 1.403 . S
C3283 C3284 1.524 . S
C3283 C3287 1.400 . S
C3284 H3269 0.960 . S
C3284 H3270 0.960 . S
C3284 H3271 0.960 . S
C3284 C3283 1.524 . S
C3285 C3282 1.403 . S
C3285 C3286 1.392 . S
C3285 C3289 1.495 . S
C3286 C3285 1.392 . S
C3286 C3287 1.385 . S
C3286 C3288 1.478 . S
C3287 H3281 0.930 . S
C3287 C3283 1.400 . S
C3287 C3286 1.385 . S
C3288 C3286 1.478 . S
C3288 C3290 1.381 . S
C3288 C3294 1.383 . S
C3289 C3285 1.495 . S
C3289 H3295 0.959 . S
C3289 H3296 0.961 . S
C3289 H3297 0.960 . S
C3290 C3288 1.381 . S
C3290 C3291 1.394 . S
C3290 H3298 0.930 . S
C3291 C3290 1.394 . S
C3291 C3292 1.383 . S
C3291 H3299 0.929 . S
C3292 C3291 1.383 . S
C3292 C3293 1.377 . S
C3293 H3277 0.930 . S
C3293 C3292 1.377 . S
C3293 C3294 1.379 . S
C3294 H3278 0.931 . S
C3294 C3288 1.383 . S
C3294 C3293 1.379 . S
H3295 C3289 0.959 . S
H3296 C3289 0.961 . S
H3297 C3289 0.960 . S
H3298 C3290 0.930 . S
H3299 C3291 0.929 . S
H3300 C3308 0.929 . S
H3301 C3310 0.930 . S
H3302 C3312 0.930 . S
H3303 C3315 0.929 . S
H3304 C3318 0.930 . S
H3305 C3320 0.960 . S
H3306 C3320 0.960 . S
H3307 C3320 0.960 . S
C3308 H3300 0.929 . S
C3308 C3309 1.377 . S
C3308 C3310 1.384 . S
C3309 C3308 1.377 . S
C3309 C3315 1.390 . S
C3310 H3301 0.930 . S
C3310 C3308 1.384 . S
C3310 C3311 1.372 . S
C3311 C3310 1.372 . S
C3311 C3312 1.400 . S
C3311 C3316 1.490 . S
C3312 H3302 0.930 . S
C3312 C3311 1.400 . S
C3312 C3315 1.386 . S
H3313 C3329 0.930 . S
H3314 C3330 0.931 . S
C3315 H3303 0.929 . S
C3315 C3309 1.390 . S
C3315 C3312 1.386 . S
C3316 C3311 1.490 . S
C3316 C3318 1.395 . S
C3316 C3319 1.403 . S
H3317 C3323 0.930 . S
C3318 H3304 0.930 . S
C3318 C3316 1.395 . S
C3318 C3321 1.403 . S
C3319 C3316 1.403 . S
C3319 C3320 1.524 . S
C3319 C3323 1.400 . S
C3320 H3305 0.960 . S
C3320 H3306 0.960 . S
C3320 H3307 0.960 . S
C3320 C3319 1.524 . S
C3321 C3318 1.403 . S
C3321 C3322 1.392 . S
C3321 C3325 1.495 . S
C3322 C3321 1.392 . S
C3322 C3323 1.385 . S
C3322 C3324 1.478 . S
C3323 H3317 0.930 . S
C3323 C3319 1.400 . S
C3323 C3322 1.385 . S
C3324 C3322 1.478 . S
C3324 C3326 1.381 . S
C3324 C3330 1.383 . S
C3325 C3321 1.495 . S
C3325 H3331 0.959 . S
C3325 H3332 0.961 . S
C3325 H3333 0.960 . S
C3326 C3324 1.381 . S
C3326 C3327 1.394 . S
C3326 H3334 0.930 . S
C3327 C3326 1.394 . S
C3327 C3328 1.383 . S
C3327 H3335 0.929 . S
C3328 C3327 1.383 . S
C3328 C3329 1.377 . S
C3329 H3313 0.930 . S
C3329 C3328 1.377 . S
C3329 C3330 1.379 . S
C3330 H3314 0.931 . S
C3330 C3324 1.383 . S
C3330 C3329 1.379 . S
H3331 C3325 0.959 . S
H3332 C3325 0.961 . S
H3333 C3325 0.960 . S
H3334 C3326 0.930 . S
H3335 C3327 0.929 . S
H3336 C3344 0.929 . S
H3337 C3346 0.930 . S
H3338 C3348 0.930 . S
H3339 C3351 0.929 . S
H3340 C3354 0.930 . S
H3341 C3356 0.960 . S
H3342 C3356 0.960 . S
H3343 C3356 0.960 . S
C3344 H3336 0.929 . S
C3344 C3345 1.377 . S
C3344 C3346 1.384 . S
C3345 C3344 1.377 . S
C3345 C3351 1.390 . S
C3346 H3337 0.930 . S
C3346 C3344 1.384 . S
C3346 C3347 1.372 . S
C3347 C3346 1.372 . S
C3347 C3348 1.400 . S
C3347 C3352 1.490 . S
C3348 H3338 0.930 . S
C3348 C3347 1.400 . S
C3348 C3351 1.386 . S
H3349 C3365 0.930 . S
H3350 C3366 0.931 . S
C3351 H3339 0.929 . S
C3351 C3345 1.390 . S
C3351 C3348 1.386 . S
C3352 C3347 1.490 . S
C3352 C3354 1.395 . S
C3352 C3355 1.403 . S
H3353 C3359 0.930 . S
C3354 H3340 0.930 . S
C3354 C3352 1.395 . S
C3354 C3357 1.403 . S
C3355 C3352 1.403 . S
C3355 C3356 1.524 . S
C3355 C3359 1.400 . S
C3356 H3341 0.960 . S
C3356 H3342 0.960 . S
C3356 H3343 0.960 . S
C3356 C3355 1.524 . S
C3357 C3354 1.403 . S
C3357 C3358 1.392 . S
C3357 C3361 1.495 . S
C3358 C3357 1.392 . S
C3358 C3359 1.385 . S
C3358 C3360 1.478 . S
C3359 H3353 0.930 . S
C3359 C3355 1.400 . S
C3359 C3358 1.385 . S
C3360 C3358 1.478 . S
C3360 C3362 1.381 . S
C3360 C3366 1.383 . S
C3361 C3357 1.495 . S
C3361 H3367 0.959 . S
C3361 H3368 0.961 . S
C3361 H3369 0.960 . S
C3362 C3360 1.381 . S
C3362 C3363 1.394 . S
C3362 H3370 0.930 . S
C3363 C3362 1.394 . S
C3363 C3364 1.383 . S
C3363 H3371 0.929 . S
C3364 C3363 1.383 . S
C3364 C3365 1.377 . S
C3365 H3349 0.930 . S
C3365 C3364 1.377 . S
C3365 C3366 1.379 . S
C3366 H3350 0.931 . S
C3366 C3360 1.383 . S
C3366 C3365 1.379 . S
H3367 C3361 0.959 . S
H3368 C3361 0.961 . S
H3369 C3361 0.960 . S
H3370 C3362 0.930 . S
H3371 C3363 0.929 . S
H3372 C3380 0.929 . S
H3373 C3382 0.930 . S
H3374 C3384 0.930 . S
H3375 C3387 0.929 . S
H3376 C3390 0.930 . S
H3377 C3392 0.960 . S
H3378 C3392 0.960 . S
H3379 C3392 0.960 . S
C3380 H3372 0.929 . S
C3380 C3381 1.377 . S
C3380 C3382 1.384 . S
C3381 C3380 1.377 . S
C3381 C3387 1.390 . S
C3382 H3373 0.930 . S
C3382 C3380 1.384 . S
C3382 C3383 1.372 . S
C3383 C3382 1.372 . S
C3383 C3384 1.400 . S
C3383 C3388 1.490 . S
C3384 H3374 0.930 . S
C3384 C3383 1.400 . S
C3384 C3387 1.386 . S
H3385 C3401 0.930 . S
H3386 C3402 0.931 . S
C3387 H3375 0.929 . S
C3387 C3381 1.390 . S
C3387 C3384 1.386 . S
C3388 C3383 1.490 . S
C3388 C3390 1.395 . S
C3388 C3391 1.403 . S
H3389 C3395 0.930 . S
C3390 H3376 0.930 . S
C3390 C3388 1.395 . S
C3390 C3393 1.403 . S
C3391 C3388 1.403 . S
C3391 C3392 1.524 . S
C3391 C3395 1.400 . S
C3392 H3377 0.960 . S
C3392 H3378 0.960 . S
C3392 H3379 0.960 . S
C3392 C3391 1.524 . S
C3393 C3390 1.403 . S
C3393 C3394 1.392 . S
C3393 C3397 1.495 . S
C3394 C3393 1.392 . S
C3394 C3395 1.385 . S
C3394 C3396 1.478 . S
C3395 H3389 0.930 . S
C3395 C3391 1.400 . S
C3395 C3394 1.385 . S
C3396 C3394 1.478 . S
C3396 C3398 1.381 . S
C3396 C3402 1.383 . S
C3397 C3393 1.495 . S
C3397 H3403 0.959 . S
C3397 H3404 0.961 . S
C3397 H3405 0.960 . S
C3398 C3396 1.381 . S
C3398 C3399 1.394 . S
C3398 H3406 0.930 . S
C3399 C3398 1.394 . S
C3399 C3400 1.383 . S
C3399 H3407 0.929 . S
C3400 C3399 1.383 . S
C3400 C3401 1.377 . S
C3401 H3385 0.930 . S
C3401 C3400 1.377 . S
C3401 C3402 1.379 . S
C3402 H3386 0.931 . S
C3402 C3396 1.383 . S
C3402 C3401 1.379 . S
H3403 C3397 0.959 . S
H3404 C3397 0.961 . S
H3405 C3397 0.960 . S
H3406 C3398 0.930 . S
H3407 C3399 0.929 . S
H3408 C3416 0.929 . S
H3409 C3418 0.930 . S
H3410 C3420 0.930 . S
H3411 C3423 0.929 . S
H3412 C3426 0.930 . S
H3413 C3428 0.960 . S
H3414 C3428 0.960 . S
H3415 C3428 0.960 . S
C3416 H3408 0.929 . S
C3416 C3417 1.377 . S
C3416 C3418 1.384 . S
C3417 C3416 1.377 . S
C3417 C3423 1.390 . S
C3418 H3409 0.930 . S
C3418 C3416 1.384 . S
C3418 C3419 1.372 . S
C3419 C3418 1.372 . S
C3419 C3420 1.400 . S
C3419 C3424 1.490 . S
C3420 H3410 0.930 . S
C3420 C3419 1.400 . S
C3420 C3423 1.386 . S
H3421 C3437 0.930 . S
H3422 C3438 0.931 . S
C3423 H3411 0.929 . S
C3423 C3417 1.390 . S
C3423 C3420 1.386 . S
C3424 C3419 1.490 . S
C3424 C3426 1.395 . S
C3424 C3427 1.403 . S
H3425 C3431 0.930 . S
C3426 H3412 0.930 . S
C3426 C3424 1.395 . S
C3426 C3429 1.403 . S
C3427 C3424 1.403 . S
C3427 C3428 1.524 . S
C3427 C3431 1.400 . S
C3428 H3413 0.960 . S
C3428 H3414 0.960 . S
C3428 H3415 0.960 . S
C3428 C3427 1.524 . S
C3429 C3426 1.403 . S
C3429 C3430 1.392 . S
C3429 C3433 1.495 . S
C3430 C3429 1.392 . S
C3430 C3431 1.385 . S
C3430 C3432 1.478 . S
C3431 H3425 0.930 . S
C3431 C3427 1.400 . S
C3431 C3430 1.385 . S
C3432 C3430 1.478 . S
C3432 C3434 1.381 . S
C3432 C3438 1.383 . S
C3433 C3429 1.495 . S
C3433 H3439 0.959 . S
C3433 H3440 0.961 . S
C3433 H3441 0.960 . S
C3434 C3432 1.381 . S
C3434 C3435 1.394 . S
C3434 H3442 0.930 . S
C3435 C3434 1.394 . S
C3435 C3436 1.383 . S
C3435 H3443 0.929 . S
C3436 C3435 1.383 . S
C3436 C3437 1.377 . S
C3437 H3421 0.930 . S
C3437 C3436 1.377 . S
C3437 C3438 1.379 . S
C3438 H3422 0.931 . S
C3438 C3432 1.383 . S
C3438 C3437 1.379 . S
H3439 C3433 0.959 . S
H3440 C3433 0.961 . S
H3441 C3433 0.960 . S
H3442 C3434 0.930 . S
H3443 C3435 0.929 . S
H3444 C3452 0.929 . S
H3445 C3454 0.930 . S
H3446 C3456 0.930 . S
H3447 C3459 0.929 . S
H3448 C3462 0.930 . S
H3449 C3464 0.960 . S
H3450 C3464 0.960 . S
H3451 C3464 0.960 . S
C3452 H3444 0.929 . S
C3452 C3453 1.377 . S
C3452 C3454 1.384 . S
C3453 C3452 1.377 . S
C3453 C3459 1.390 . S
C3454 H3445 0.930 . S
C3454 C3452 1.384 . S
C3454 C3455 1.372 . S
C3455 C3454 1.372 . S
C3455 C3456 1.400 . S
C3455 C3460 1.490 . S
C3456 H3446 0.930 . S
C3456 C3455 1.400 . S
C3456 C3459 1.386 . S
H3457 C3473 0.930 . S
H3458 C3474 0.931 . S
C3459 H3447 0.929 . S
C3459 C3453 1.390 . S
C3459 C3456 1.386 . S
C3460 C3455 1.490 . S
C3460 C3462 1.395 . S
C3460 C3463 1.403 . S
H3461 C3467 0.930 . S
C3462 H3448 0.930 . S
C3462 C3460 1.395 . S
C3462 C3465 1.403 . S
C3463 C3460 1.403 . S
C3463 C3464 1.524 . S
C3463 C3467 1.400 . S
C3464 H3449 0.960 . S
C3464 H3450 0.960 . S
C3464 H3451 0.960 . S
C3464 C3463 1.524 . S
C3465 C3462 1.403 . S
C3465 C3466 1.392 . S
C3465 C3469 1.495 . S
C3466 C3465 1.392 . S
C3466 C3467 1.385 . S
C3466 C3468 1.478 . S
C3467 H3461 0.930 . S
C3467 C3463 1.400 . S
C3467 C3466 1.385 . S
C3468 C3466 1.478 . S
C3468 C3470 1.381 . S
C3468 C3474 1.383 . S
C3469 C3465 1.495 . S
C3469 H3475 0.959 . S
C3469 H3476 0.961 . S
C3469 H3477 0.960 . S
C3470 C3468 1.381 . S
C3470 C3471 1.394 . S
C3470 H3478 0.930 . S
C3471 C3470 1.394 . S
C3471 C3472 1.383 . S
C3471 H3479 0.929 . S
C3472 C3471 1.383 . S
C3472 C3473 1.377 . S
C3473 H3457 0.930 . S
C3473 C3472 1.377 . S
C3473 C3474 1.379 . S
C3474 H3458 0.931 . S
C3474 C3468 1.383 . S
C3474 C3473 1.379 . S
H3475 C3469 0.959 . S
H3476 C3469 0.961 . S
H3477 C3469 0.960 . S
H3478 C3470 0.930 . S
H3479 C3471 0.929 . S
H3480 C3488 0.929 . S
H3481 C3490 0.930 . S
H3482 C3492 0.930 . S
H3483 C3495 0.929 1_655 S
H3484 C3498 0.930 . S
H3485 C3500 0.960 . S
H3486 C3500 0.960 . S
H3487 C3500 0.960 . S
C3488 H3480 0.929 . S
C3488 C3489 1.377 . S
C3488 C3490 1.384 . S
C3489 C3488 1.377 . S
C3489 C3495 1.390 . S
C3490 H3481 0.930 . S
C3490 C3488 1.384 . S
C3490 C3491 1.372 . S
C3491 C3490 1.372 . S
C3491 C3492 1.400 . S
C3491 C3496 1.490 . S
C3492 H3482 0.930 . S
C3492 C3491 1.400 . S
C3492 C3495 1.386 . S
H3493 C3509 0.930 . S
H3494 C3510 0.938 . S
C3495 H3483 0.929 1_455 S
C3495 C3489 1.390 . S
C3495 C3492 1.386 . S
C3496 C3491 1.490 . S
C3496 C3498 1.395 . S
C3496 C3499 1.403 . S
H3497 C3503 0.930 . S
C3498 H3484 0.930 . S
C3498 C3496 1.395 . S
C3498 C3501 1.403 . S
C3499 C3496 1.403 . S
C3499 C3500 1.524 1_556 S
C3499 C3503 1.400 1_556 S
C3500 H3485 0.960 . S
C3500 H3486 0.960 . S
C3500 H3487 0.960 . S
C3500 C3499 1.524 1_554 S
C3501 C3498 1.403 . S
C3501 C3502 1.392 . S
C3501 C3505 1.495 . S
C3502 C3501 1.392 . S
C3502 C3503 1.385 1_556 S
C3502 C3504 1.478 . S
C3503 H3497 0.930 . S
C3503 C3499 1.400 1_554 S
C3503 C3502 1.385 1_554 S
C3504 C3502 1.478 . S
C3504 C3506 1.381 1_556 S
C3504 C3510 1.390 . S
C3505 C3501 1.495 . S
C3505 H3511 0.959 . S
C3505 H3512 0.961 . S
C3505 H3513 0.960 . S
C3506 C3504 1.381 1_554 S
C3506 C3507 1.394 . S
C3506 H3514 0.927 1_554 S
C3507 C3506 1.394 . S
C3507 C3508 1.383 . S
C3507 H3515 0.929 . S
C3508 C3507 1.383 . S
C3508 C3509 1.377 . S
C3509 H3493 0.930 . S
C3509 C3508 1.377 . S
C3509 C3510 1.370 1_554 S
C3510 H3494 0.938 . S
C3510 C3504 1.390 . S
C3510 C3509 1.370 1_556 S
H3511 C3505 0.959 . S
H3512 C3505 0.961 . S
H3513 C3505 0.960 . S
H3514 C3506 0.927 1_556 S
H3515 C3507 0.929 . S
H3516 C3524 0.929 . S
H3517 C3526 0.930 . S
H3518 C3528 0.930 1_655 S
H3519 C3531 0.929 . S
H3520 C3534 0.930 . S
H3521 C3536 0.960 . S
H3522 C3536 0.960 . S
H3523 C3536 0.960 . S
C3524 H3516 0.929 . S
C3524 C3525 1.377 . S
C3524 C3526 1.384 . S
C3525 C3524 1.377 . S
C3525 C3531 1.390 . S
C3526 H3517 0.930 . S
C3526 C3524 1.384 . S
C3526 C3527 1.372 1_455 S
C3527 C3526 1.372 1_655 S
C3527 C3528 1.400 1_655 S
C3527 C3532 1.490 . S
C3528 H3518 0.930 1_455 S
C3528 C3527 1.400 1_455 S
C3528 C3531 1.386 . S
H3529 C3545 0.930 . S
H3530 C3546 0.931 . S
C3531 H3519 0.929 . S
C3531 C3525 1.390 . S
C3531 C3528 1.386 . S
C3532 C3527 1.490 . S
C3532 C3534 1.395 . S
C3532 C3535 1.403 . S
H3533 C3539 0.930 . S
C3534 H3520 0.930 . S
C3534 C3532 1.395 . S
C3534 C3537 1.403 . S
C3535 C3532 1.403 . S
C3535 C3536 1.524 . S
C3535 C3539 1.400 . S
C3536 H3521 0.960 . S
C3536 H3522 0.960 . S
C3536 H3523 0.960 . S
C3536 C3535 1.524 . S
C3537 C3534 1.403 . S
C3537 C3538 1.392 . S
C3537 C3541 1.495 . S
C3538 C3537 1.392 . S
C3538 C3539 1.385 . S
C3538 C3540 1.478 . S
C3539 H3533 0.930 . S
C3539 C3535 1.400 . S
C3539 C3538 1.385 . S
C3540 C3538 1.478 . S
C3540 C3542 1.381 . S
C3540 C3546 1.383 . S
C3541 C3537 1.495 . S
C3541 H3547 0.959 . S
C3541 H3548 0.961 . S
C3541 H3549 0.960 . S
C3542 C3540 1.381 . S
C3542 C3543 1.394 . S
C3542 H3550 0.930 . S
C3543 C3542 1.394 . S
C3543 C3544 1.383 . S
C3543 H3551 0.929 . S
C3544 C3543 1.383 . S
C3544 C3545 1.377 . S
C3545 H3529 0.930 . S
C3545 C3544 1.377 . S
C3545 C3546 1.379 . S
C3546 H3530 0.931 . S
C3546 C3540 1.383 . S
C3546 C3545 1.379 . S
H3547 C3541 0.959 . S
H3548 C3541 0.961 . S
H3549 C3541 0.960 . S
H3550 C3542 0.930 . S
H3551 C3543 0.929 . S
H3552 C3560 0.929 . S
H3553 C3562 0.930 . S
H3554 C3564 0.930 . S
H3555 C3567 0.929 . S
H3556 C3570 0.930 . S
H3557 C3572 0.960 . S
H3558 C3572 0.960 . S
H3559 C3572 0.960 . S
C3560 H3552 0.929 . S
C3560 C3561 1.377 . S
C3560 C3562 1.384 . S
C3561 C3560 1.377 . S
C3561 C3567 1.390 . S
C3562 H3553 0.930 . S
C3562 C3560 1.384 . S
C3562 C3563 1.372 . S
C3563 C3562 1.372 . S
C3563 C3564 1.400 . S
C3563 C3568 1.490 . S
C3564 H3554 0.930 . S
C3564 C3563 1.400 . S
C3564 C3567 1.386 . S
H3565 C3581 0.930 . S
H3566 C3582 0.931 . S
C3567 H3555 0.929 . S
C3567 C3561 1.390 . S
C3567 C3564 1.386 . S
C3568 C3563 1.490 . S
C3568 C3570 1.395 . S
C3568 C3571 1.403 . S
H3569 C3575 0.930 . S
C3570 H3556 0.930 . S
C3570 C3568 1.395 . S
C3570 C3573 1.403 . S
C3571 C3568 1.403 . S
C3571 C3572 1.524 . S
C3571 C3575 1.400 . S
C3572 H3557 0.960 . S
C3572 H3558 0.960 . S
C3572 H3559 0.960 . S
C3572 C3571 1.524 . S
C3573 C3570 1.403 . S
C3573 C3574 1.392 . S
C3573 C3577 1.495 . S
C3574 C3573 1.392 . S
C3574 C3575 1.385 . S
C3574 C3576 1.478 . S
C3575 H3569 0.930 . S
C3575 C3571 1.400 . S
C3575 C3574 1.385 . S
C3576 C3574 1.478 . S
C3576 C3578 1.381 . S
C3576 C3582 1.383 . S
C3577 C3573 1.495 . S
C3577 H3583 0.959 . S
C3577 H3584 0.961 . S
C3577 H3585 0.960 . S
C3578 C3576 1.381 . S
C3578 C3579 1.394 . S
C3578 H3586 0.930 . S
C3579 C3578 1.394 . S
C3579 C3580 1.383 . S
C3579 H3587 0.929 . S
C3580 C3579 1.383 . S
C3580 C3581 1.377 . S
C3581 H3565 0.930 . S
C3581 C3580 1.377 . S
C3581 C3582 1.379 . S
C3582 H3566 0.931 . S
C3582 C3576 1.383 . S
C3582 C3581 1.379 . S
H3583 C3577 0.959 . S
H3584 C3577 0.961 . S
H3585 C3577 0.960 . S
H3586 C3578 0.930 . S
H3587 C3579 0.929 . S
H3588 C3596 0.929 . S
H3589 C3598 0.930 . S
H3590 C3600 0.930 . S
H3591 C3603 0.929 . S
H3592 C3606 0.930 . S
H3593 C3608 0.960 . S
H3594 C3608 0.960 . S
H3595 C3608 0.960 . S
C3596 H3588 0.929 . S
C3596 C3597 1.377 . S
C3596 C3598 1.384 . S
C3597 C3596 1.377 . S
C3597 C3603 1.390 . S
C3598 H3589 0.930 . S
C3598 C3596 1.384 . S
C3598 C3599 1.372 . S
C3599 C3598 1.372 . S
C3599 C3600 1.400 . S
C3599 C3604 1.490 1_455 S
C3600 H3590 0.930 . S
C3600 C3599 1.400 . S
C3600 C3603 1.386 . S
H3601 C3617 0.930 . S
H3602 C3618 0.931 . S
C3603 H3591 0.929 . S
C3603 C3597 1.390 . S
C3603 C3600 1.386 . S
C3604 C3599 1.490 1_655 S
C3604 C3606 1.395 . S
C3604 C3607 1.403 . S
H3605 C3611 0.930 . S
C3606 H3592 0.930 . S
C3606 C3604 1.395 . S
C3606 C3609 1.403 . S
C3607 C3604 1.403 . S
C3607 C3608 1.524 1_655 S
C3607 C3611 1.400 . S
C3608 H3593 0.960 . S
C3608 H3594 0.960 . S
C3608 H3595 0.960 . S
C3608 C3607 1.524 1_455 S
C3609 C3606 1.403 . S
C3609 C3610 1.392 . S
C3609 C3613 1.495 . S
C3610 C3609 1.392 . S
C3610 C3611 1.385 . S
C3610 C3612 1.478 . S
C3611 H3605 0.930 . S
C3611 C3607 1.400 . S
C3611 C3610 1.385 . S
C3612 C3610 1.478 . S
C3612 C3614 1.381 . S
C3612 C3618 1.383 . S
C3613 C3609 1.495 . S
C3613 H3619 0.959 . S
C3613 H3620 0.961 . S
C3613 H3621 0.960 . S
C3614 C3612 1.381 . S
C3614 C3615 1.394 . S
C3614 H3622 0.930 . S
C3615 C3614 1.394 . S
C3615 C3616 1.383 . S
C3615 H3623 0.929 . S
C3616 C3615 1.383 . S
C3616 C3617 1.377 . S
C3617 H3601 0.930 . S
C3617 C3616 1.377 . S
C3617 C3618 1.379 . S
C3618 H3602 0.931 . S
C3618 C3612 1.383 . S
C3618 C3617 1.379 . S
H3619 C3613 0.959 . S
H3620 C3613 0.961 . S
H3621 C3613 0.960 . S
H3622 C3614 0.930 . S
H3623 C3615 0.929 . S
H3624 C3632 0.929 . S
H3625 C3634 0.930 . S
H3626 C3636 0.930 . S
H3627 C3639 0.929 . S
H3628 C3642 0.930 . S
H3629 C3644 0.960 . S
H3630 C3644 0.960 . S
H3631 C3644 0.960 . S
C3632 H3624 0.929 . S
C3632 C3633 1.377 1_455 S
C3632 C3634 1.384 . S
C3633 C3632 1.377 1_655 S
C3633 C3639 1.390 . S
C3634 H3625 0.930 . S
C3634 C3632 1.384 . S
C3634 C3635 1.372 . S
C3635 C3634 1.372 . S
C3635 C3636 1.400 1_455 S
C3635 C3640 1.490 . S
C3636 H3626 0.930 . S
C3636 C3635 1.400 1_655 S
C3636 C3639 1.386 . S
H3637 C3653 0.930 . S
H3638 C3654 0.931 . S
C3639 H3627 0.929 . S
C3639 C3633 1.390 . S
C3639 C3636 1.386 . S
C3640 C3635 1.490 . S
C3640 C3642 1.395 . S
C3640 C3643 1.403 1_455 S
H3641 C3647 0.930 1_655 S
C3642 H3628 0.930 . S
C3642 C3640 1.395 . S
C3642 C3645 1.403 . S
C3643 C3640 1.403 1_655 S
C3643 C3644 1.524 . S
C3643 C3647 1.400 1_655 S
C3644 H3629 0.960 . S
C3644 H3630 0.960 . S
C3644 H3631 0.960 . S
C3644 C3643 1.524 . S
C3645 C3642 1.403 . S
C3645 C3646 1.392 . S
C3645 C3649 1.495 . S
C3646 C3645 1.392 . S
C3646 C3647 1.385 . S
C3646 C3648 1.478 . S
C3647 H3641 0.930 1_455 S
C3647 C3643 1.400 1_455 S
C3647 C3646 1.385 . S
C3648 C3646 1.478 . S
C3648 C3650 1.381 . S
C3648 C3654 1.383 . S
C3649 C3645 1.495 . S
C3649 H3655 0.959 . S
C3649 H3656 0.961 . S
C3649 H3657 0.960 . S
C3650 C3648 1.381 . S
C3650 C3651 1.394 . S
C3650 H3658 0.930 . S
C3651 C3650 1.394 . S
C3651 C3652 1.383 . S
C3651 H3659 0.929 . S
C3652 C3651 1.383 . S
C3652 C3653 1.377 . S
C3653 H3637 0.930 . S
C3653 C3652 1.377 . S
C3653 C3654 1.379 . S
C3654 H3638 0.931 . S
C3654 C3648 1.383 . S
C3654 C3653 1.379 . S
H3655 C3649 0.959 . S
H3656 C3649 0.961 . S
H3657 C3649 0.960 . S
H3658 C3650 0.930 . S
H3659 C3651 0.929 . S
H3660 C3668 0.929 . S
H3661 C3670 0.930 . S
H3662 C3672 0.930 . S
H3663 C3675 0.929 . S
H3664 C3678 0.930 . S
H3665 C3680 0.960 . S
H3666 C3680 0.960 . S
H3667 C3680 0.960 . S
C3668 H3660 0.929 . S
C3668 C3669 1.377 . S
C3668 C3670 1.384 . S
C3669 C3668 1.377 . S
C3669 C3675 1.390 . S
C3670 H3661 0.930 . S
C3670 C3668 1.384 . S
C3670 C3671 1.372 . S
C3671 C3670 1.372 . S
C3671 C3672 1.400 . S
C3671 C3676 1.490 . S
C3672 H3662 0.930 . S
C3672 C3671 1.400 . S
C3672 C3675 1.386 . S
H3673 C3689 0.930 . S
H3674 C3690 0.931 . S
C3675 H3663 0.929 . S
C3675 C3669 1.390 . S
C3675 C3672 1.386 . S
C3676 C3671 1.490 . S
C3676 C3678 1.395 . S
C3676 C3679 1.403 . S
H3677 C3683 0.930 . S
C3678 H3664 0.930 . S
C3678 C3676 1.395 . S
C3678 C3681 1.403 . S
C3679 C3676 1.403 . S
C3679 C3680 1.524 . S
C3679 C3683 1.400 . S
C3680 H3665 0.960 . S
C3680 H3666 0.960 . S
C3680 H3667 0.960 . S
C3680 C3679 1.524 . S
C3681 C3678 1.403 . S
C3681 C3682 1.392 . S
C3681 C3685 1.495 . S
C3682 C3681 1.392 . S
C3682 C3683 1.385 . S
C3682 C3684 1.478 . S
C3683 H3677 0.930 . S
C3683 C3679 1.400 . S
C3683 C3682 1.385 . S
C3684 C3682 1.478 . S
C3684 C3686 1.381 . S
C3684 C3690 1.383 . S
C3685 C3681 1.495 . S
C3685 H3691 0.959 . S
C3685 H3692 0.961 . S
C3685 H3693 0.960 . S
C3686 C3684 1.381 . S
C3686 C3687 1.394 . S
C3686 H3694 0.930 . S
C3687 C3686 1.394 . S
C3687 C3688 1.383 . S
C3687 H3695 0.929 . S
C3688 C3687 1.383 . S
C3688 C3689 1.377 . S
C3689 H3673 0.930 . S
C3689 C3688 1.377 . S
C3689 C3690 1.379 . S
C3690 H3674 0.931 . S
C3690 C3684 1.383 . S
C3690 C3689 1.379 . S
H3691 C3685 0.959 . S
H3692 C3685 0.961 . S
H3693 C3685 0.960 . S
H3694 C3686 0.930 . S
H3695 C3687 0.929 . S
H3696 C3704 0.929 . S
H3697 C3706 0.930 . S
H3698 C3708 0.930 . S
H3699 C3711 0.929 . S
H3700 C3714 0.930 . S
H3701 C3716 0.960 . S
H3702 C3716 0.960 . S
H3703 C3716 0.960 . S
C3704 H3696 0.929 . S
C3704 C3705 1.377 . S
C3704 C3706 1.384 . S
C3705 C3704 1.377 . S
C3705 C3711 1.390 . S
C3706 H3697 0.930 . S
C3706 C3704 1.384 . S
C3706 C3707 1.372 . S
C3707 C3706 1.372 . S
C3707 C3708 1.400 . S
C3707 C3712 1.490 . S
C3708 H3698 0.930 . S
C3708 C3707 1.400 . S
C3708 C3711 1.386 . S
H3709 C3725 0.930 . S
H3710 C3726 0.931 . S
C3711 H3699 0.929 . S
C3711 C3705 1.390 . S
C3711 C3708 1.386 . S
C3712 C3707 1.490 . S
C3712 C3714 1.395 . S
C3712 C3715 1.403 . S
H3713 C3719 0.930 . S
C3714 H3700 0.930 . S
C3714 C3712 1.395 . S
C3714 C3717 1.403 . S
C3715 C3712 1.403 . S
C3715 C3716 1.524 . S
C3715 C3719 1.400 . S
C3716 H3701 0.960 . S
C3716 H3702 0.960 . S
C3716 H3703 0.960 . S
C3716 C3715 1.524 . S
C3717 C3714 1.403 . S
C3717 C3718 1.392 . S
C3717 C3721 1.495 . S
C3718 C3717 1.392 . S
C3718 C3719 1.385 . S
C3718 C3720 1.478 . S
C3719 H3713 0.930 . S
C3719 C3715 1.400 . S
C3719 C3718 1.385 . S
C3720 C3718 1.478 . S
C3720 C3722 1.381 . S
C3720 C3726 1.383 . S
C3721 C3717 1.495 . S
C3721 H3727 0.959 . S
C3721 H3728 0.961 . S
C3721 H3729 0.960 . S
C3722 C3720 1.381 . S
C3722 C3723 1.394 . S
C3722 H3730 0.930 . S
C3723 C3722 1.394 . S
C3723 C3724 1.383 . S
C3723 H3731 0.929 . S
C3724 C3723 1.383 . S
C3724 C3725 1.377 . S
C3725 H3709 0.930 . S
C3725 C3724 1.377 . S
C3725 C3726 1.379 . S
C3726 H3710 0.931 . S
C3726 C3720 1.383 . S
C3726 C3725 1.379 . S
H3727 C3721 0.959 . S
H3728 C3721 0.961 . S
H3729 C3721 0.960 . S
H3730 C3722 0.930 . S
H3731 C3723 0.929 . S
H3732 C3740 0.929 . S
H3733 C3742 0.930 . S
H3734 C3744 0.930 . S
H3735 C3747 0.929 . S
H3736 C3750 0.930 . S
H3737 C3752 0.960 . S
H3738 C3752 0.960 . S
H3739 C3752 0.960 . S
C3740 H3732 0.929 . S
C3740 C3741 1.377 . S
C3740 C3742 1.384 . S
C3741 C3740 1.377 . S
C3741 C3747 1.390 . S
C3742 H3733 0.930 . S
C3742 C3740 1.384 . S
C3742 C3743 1.372 . S
C3743 C3742 1.372 . S
C3743 C3744 1.400 . S
C3743 C3748 1.490 . S
C3744 H3734 0.930 . S
C3744 C3743 1.400 . S
C3744 C3747 1.386 . S
H3745 C3761 0.930 . S
H3746 C3762 0.931 . S
C3747 H3735 0.929 . S
C3747 C3741 1.390 . S
C3747 C3744 1.386 . S
C3748 C3743 1.490 . S
C3748 C3750 1.395 . S
C3748 C3751 1.403 . S
H3749 C3755 0.930 . S
C3750 H3736 0.930 . S
C3750 C3748 1.395 . S
C3750 C3753 1.403 . S
C3751 C3748 1.403 . S
C3751 C3752 1.524 . S
C3751 C3755 1.400 . S
C3752 H3737 0.960 . S
C3752 H3738 0.960 . S
C3752 H3739 0.960 . S
C3752 C3751 1.524 . S
C3753 C3750 1.403 . S
C3753 C3754 1.392 . S
C3753 C3757 1.495 . S
C3754 C3753 1.392 . S
C3754 C3755 1.385 . S
C3754 C3756 1.478 . S
C3755 H3749 0.930 . S
C3755 C3751 1.400 . S
C3755 C3754 1.385 . S
C3756 C3754 1.478 . S
C3756 C3758 1.381 . S
C3756 C3762 1.383 . S
C3757 C3753 1.495 . S
C3757 H3763 0.959 . S
C3757 H3764 0.961 . S
C3757 H3765 0.960 . S
C3758 C3756 1.381 . S
C3758 C3759 1.394 . S
C3758 H3766 0.930 . S
C3759 C3758 1.394 . S
C3759 C3760 1.383 . S
C3759 H3767 0.929 . S
C3760 C3759 1.383 . S
C3760 C3761 1.377 . S
C3761 H3745 0.930 . S
C3761 C3760 1.377 . S
C3761 C3762 1.379 . S
C3762 H3746 0.931 . S
C3762 C3756 1.383 . S
C3762 C3761 1.379 . S
H3763 C3757 0.959 . S
H3764 C3757 0.961 . S
H3765 C3757 0.960 . S
H3766 C3758 0.930 . S
H3767 C3759 0.929 . S
H3768 C3776 0.929 . S
H3769 C3778 0.930 . S
H3770 C3780 0.930 . S
H3771 C3783 0.929 . S
H3772 C3786 0.930 . S
H3773 C3788 0.960 . S
H3774 C3788 0.960 . S
H3775 C3788 0.960 . S
C3776 H3768 0.929 . S
C3776 C3777 1.377 . S
C3776 C3778 1.384 . S
C3777 C3776 1.377 . S
C3777 C3783 1.390 . S
C3778 H3769 0.930 . S
C3778 C3776 1.384 . S
C3778 C3779 1.372 . S
C3779 C3778 1.372 . S
C3779 C3780 1.400 . S
C3779 C3784 1.490 . S
C3780 H3770 0.930 . S
C3780 C3779 1.400 . S
C3780 C3783 1.386 . S
H3781 C3797 0.930 . S
H3782 C3798 0.931 . S
C3783 H3771 0.929 . S
C3783 C3777 1.390 . S
C3783 C3780 1.386 . S
C3784 C3779 1.490 . S
C3784 C3786 1.395 . S
C3784 C3787 1.403 . S
H3785 C3791 0.930 . S
C3786 H3772 0.930 . S
C3786 C3784 1.395 . S
C3786 C3789 1.403 . S
C3787 C3784 1.403 . S
C3787 C3788 1.524 . S
C3787 C3791 1.400 . S
C3788 H3773 0.960 . S
C3788 H3774 0.960 . S
C3788 H3775 0.960 . S
C3788 C3787 1.524 . S
C3789 C3786 1.403 . S
C3789 C3790 1.392 . S
C3789 C3793 1.495 . S
C3790 C3789 1.392 . S
C3790 C3791 1.385 . S
C3790 C3792 1.478 . S
C3791 H3785 0.930 . S
C3791 C3787 1.400 . S
C3791 C3790 1.385 . S
C3792 C3790 1.478 . S
C3792 C3794 1.381 . S
C3792 C3798 1.383 . S
C3793 C3789 1.495 . S
C3793 H3799 0.959 . S
C3793 H3800 0.961 . S
C3793 H3801 0.960 . S
C3794 C3792 1.381 . S
C3794 C3795 1.394 . S
C3794 H3802 0.930 . S
C3795 C3794 1.394 . S
C3795 C3796 1.383 . S
C3795 H3803 0.929 . S
C3796 C3795 1.383 . S
C3796 C3797 1.377 . S
C3797 H3781 0.930 . S
C3797 C3796 1.377 . S
C3797 C3798 1.379 . S
C3798 H3782 0.931 . S
C3798 C3792 1.383 . S
C3798 C3797 1.379 . S
H3799 C3793 0.959 . S
H3800 C3793 0.961 . S
H3801 C3793 0.960 . S
H3802 C3794 0.930 . S
H3803 C3795 0.929 . S
H3804 C3812 0.929 . S
H3805 C3814 0.930 . S
H3806 C3816 0.930 . S
H3807 C3819 0.929 . S
H3808 C3822 0.930 . S
H3809 C3824 0.960 . S
H3810 C3824 0.960 . S
H3811 C3824 0.960 . S
C3812 H3804 0.929 . S
C3812 C3813 1.377 . S
C3812 C3814 1.384 . S
C3813 C3812 1.377 . S
C3813 C3819 1.390 . S
C3814 H3805 0.930 . S
C3814 C3812 1.384 . S
C3814 C3815 1.372 . S
C3815 C3814 1.372 . S
C3815 C3816 1.400 . S
C3815 C3820 1.490 . S
C3816 H3806 0.930 . S
C3816 C3815 1.400 . S
C3816 C3819 1.386 . S
H3817 C3833 0.930 . S
H3818 C3834 0.931 . S
C3819 H3807 0.929 . S
C3819 C3813 1.390 . S
C3819 C3816 1.386 . S
C3820 C3815 1.490 . S
C3820 C3822 1.395 . S
C3820 C3823 1.403 . S
H3821 C3827 0.930 . S
C3822 H3808 0.930 . S
C3822 C3820 1.395 . S
C3822 C3825 1.403 . S
C3823 C3820 1.403 . S
C3823 C3824 1.524 . S
C3823 C3827 1.400 . S
C3824 H3809 0.960 . S
C3824 H3810 0.960 . S
C3824 H3811 0.960 . S
C3824 C3823 1.524 . S
C3825 C3822 1.403 . S
C3825 C3826 1.392 . S
C3825 C3829 1.495 . S
C3826 C3825 1.392 . S
C3826 C3827 1.385 . S
C3826 C3828 1.478 . S
C3827 H3821 0.930 . S
C3827 C3823 1.400 . S
C3827 C3826 1.385 . S
C3828 C3826 1.478 . S
C3828 C3830 1.381 . S
C3828 C3834 1.383 . S
C3829 C3825 1.495 . S
C3829 H3835 0.959 . S
C3829 H3836 0.961 . S
C3829 H3837 0.960 . S
C3830 C3828 1.381 . S
C3830 C3831 1.394 . S
C3830 H3838 0.930 . S
C3831 C3830 1.394 . S
C3831 C3832 1.383 . S
C3831 H3839 0.929 . S
C3832 C3831 1.383 . S
C3832 C3833 1.377 . S
C3833 H3817 0.930 . S
C3833 C3832 1.377 . S
C3833 C3834 1.379 . S
C3834 H3818 0.931 . S
C3834 C3828 1.383 . S
C3834 C3833 1.379 . S
H3835 C3829 0.959 . S
H3836 C3829 0.961 . S
H3837 C3829 0.960 . S
H3838 C3830 0.930 . S
H3839 C3831 0.929 . S
H3840 C3848 0.929 . S
H3841 C3850 0.930 . S
H3842 C3852 0.930 . S
H3843 C3855 0.929 . S
H3844 C3858 0.930 . S
H3845 C3860 0.960 . S
H3846 C3860 0.960 . S
H3847 C3860 0.960 . S
C3848 H3840 0.929 . S
C3848 C3849 1.377 . S
C3848 C3850 1.384 . S
C3849 C3848 1.377 . S
C3849 C3855 1.390 . S
C3850 H3841 0.930 . S
C3850 C3848 1.384 . S
C3850 C3851 1.372 . S
C3851 C3850 1.372 . S
C3851 C3852 1.400 . S
C3851 C3856 1.490 . S
C3852 H3842 0.930 . S
C3852 C3851 1.400 . S
C3852 C3855 1.386 . S
H3853 C3869 0.930 . S
H3854 C3870 0.931 . S
C3855 H3843 0.929 . S
C3855 C3849 1.390 . S
C3855 C3852 1.386 . S
C3856 C3851 1.490 . S
C3856 C3858 1.395 . S
C3856 C3859 1.403 . S
H3857 C3863 0.930 . S
C3858 H3844 0.930 . S
C3858 C3856 1.395 . S
C3858 C3861 1.403 . S
C3859 C3856 1.403 . S
C3859 C3860 1.524 . S
C3859 C3863 1.400 . S
C3860 H3845 0.960 . S
C3860 H3846 0.960 . S
C3860 H3847 0.960 . S
C3860 C3859 1.524 . S
C3861 C3858 1.403 . S
C3861 C3862 1.392 . S
C3861 C3865 1.495 . S
C3862 C3861 1.392 . S
C3862 C3863 1.385 . S
C3862 C3864 1.478 . S
C3863 H3857 0.930 . S
C3863 C3859 1.400 . S
C3863 C3862 1.385 . S
C3864 C3862 1.478 . S
C3864 C3866 1.381 . S
C3864 C3870 1.383 . S
C3865 C3861 1.495 . S
C3865 H3871 0.959 . S
C3865 H3872 0.961 . S
C3865 H3873 0.960 . S
C3866 C3864 1.381 . S
C3866 C3867 1.394 . S
C3866 H3874 0.930 . S
C3867 C3866 1.394 . S
C3867 C3868 1.383 . S
C3867 H3875 0.929 . S
C3868 C3867 1.383 . S
C3868 C3869 1.377 . S
C3869 H3853 0.930 . S
C3869 C3868 1.377 . S
C3869 C3870 1.379 . S
C3870 H3854 0.931 . S
C3870 C3864 1.383 . S
C3870 C3869 1.379 . S
H3871 C3865 0.959 . S
H3872 C3865 0.961 . S
H3873 C3865 0.960 . S
H3874 C3866 0.930 . S
H3875 C3867 0.929 . S
H3876 C3884 0.929 . S
H3877 C3886 0.930 . S
H3878 C3888 0.930 . S
H3879 C3891 0.929 . S
H3880 C3894 0.930 . S
H3881 C3896 0.960 . S
H3882 C3896 0.960 . S
H3883 C3896 0.960 . S
C3884 H3876 0.929 . S
C3884 C3885 1.377 . S
C3884 C3886 1.384 . S
C3885 C3884 1.377 . S
C3885 C3891 1.390 . S
C3886 H3877 0.930 . S
C3886 C3884 1.384 . S
C3886 C3887 1.372 . S
C3887 C3886 1.372 . S
C3887 C3888 1.400 . S
C3887 C3892 1.490 . S
C3888 H3878 0.930 . S
C3888 C3887 1.400 . S
C3888 C3891 1.386 . S
H3889 C3905 0.930 . S
H3890 C3906 0.931 . S
C3891 H3879 0.929 . S
C3891 C3885 1.390 . S
C3891 C3888 1.386 . S
C3892 C3887 1.490 . S
C3892 C3894 1.395 . S
C3892 C3895 1.403 . S
H3893 C3899 0.930 . S
C3894 H3880 0.930 . S
C3894 C3892 1.395 . S
C3894 C3897 1.403 . S
C3895 C3892 1.403 . S
C3895 C3896 1.524 . S
C3895 C3899 1.400 . S
C3896 H3881 0.960 . S
C3896 H3882 0.960 . S
C3896 H3883 0.960 . S
C3896 C3895 1.524 . S
C3897 C3894 1.403 . S
C3897 C3898 1.392 . S
C3897 C3901 1.495 . S
C3898 C3897 1.392 . S
C3898 C3899 1.385 . S
C3898 C3900 1.478 . S
C3899 H3893 0.930 . S
C3899 C3895 1.400 . S
C3899 C3898 1.385 . S
C3900 C3898 1.478 . S
C3900 C3902 1.381 . S
C3900 C3906 1.383 . S
C3901 C3897 1.495 . S
C3901 H3907 0.959 . S
C3901 H3908 0.961 . S
C3901 H3909 0.960 . S
C3902 C3900 1.381 . S
C3902 C3903 1.394 . S
C3902 H3910 0.930 . S
C3903 C3902 1.394 . S
C3903 C3904 1.383 . S
C3903 H3911 0.929 . S
C3904 C3903 1.383 . S
C3904 C3905 1.377 . S
C3905 H3889 0.930 . S
C3905 C3904 1.377 . S
C3905 C3906 1.379 . S
C3906 H3890 0.931 . S
C3906 C3900 1.383 . S
C3906 C3905 1.379 . S
H3907 C3901 0.959 . S
H3908 C3901 0.961 . S
H3909 C3901 0.960 . S
H3910 C3902 0.930 . S
H3911 C3903 0.929 . S
H3912 C3920 0.929 . S
H3913 C3922 0.930 . S
H3914 C3924 0.930 . S
H3915 C3927 0.929 . S
H3916 C3930 0.930 . S
H3917 C3932 0.960 . S
H3918 C3932 0.960 . S
H3919 C3932 0.960 . S
C3920 H3912 0.929 . S
C3920 C3921 1.377 . S
C3920 C3922 1.384 . S
C3921 C3920 1.377 . S
C3921 C3927 1.390 . S
C3922 H3913 0.930 . S
C3922 C3920 1.384 . S
C3922 C3923 1.372 . S
C3923 C3922 1.372 . S
C3923 C3924 1.400 . S
C3923 C3928 1.490 . S
C3924 H3914 0.930 . S
C3924 C3923 1.400 . S
C3924 C3927 1.386 . S
H3925 C3941 0.930 . S
H3926 C3942 0.931 . S
C3927 H3915 0.929 . S
C3927 C3921 1.390 . S
C3927 C3924 1.386 . S
C3928 C3923 1.490 . S
C3928 C3930 1.395 . S
C3928 C3931 1.403 . S
H3929 C3935 0.930 . S
C3930 H3916 0.930 . S
C3930 C3928 1.395 . S
C3930 C3933 1.403 . S
C3931 C3928 1.403 . S
C3931 C3932 1.524 . S
C3931 C3935 1.400 . S
C3932 H3917 0.960 . S
C3932 H3918 0.960 . S
C3932 H3919 0.960 . S
C3932 C3931 1.524 . S
C3933 C3930 1.403 . S
C3933 C3934 1.392 . S
C3933 C3937 1.495 . S
C3934 C3933 1.392 . S
C3934 C3935 1.385 . S
C3934 C3936 1.478 . S
C3935 H3929 0.930 . S
C3935 C3931 1.400 . S
C3935 C3934 1.385 . S
C3936 C3934 1.478 . S
C3936 C3938 1.381 . S
C3936 C3942 1.383 . S
C3937 C3933 1.495 . S
C3937 H3943 0.959 . S
C3937 H3944 0.961 . S
C3937 H3945 0.960 . S
C3938 C3936 1.381 . S
C3938 C3939 1.394 . S
C3938 H3946 0.930 . S
C3939 C3938 1.394 . S
C3939 C3940 1.383 . S
C3939 H3947 0.929 . S
C3940 C3939 1.383 . S
C3940 C3941 1.377 . S
C3941 H3925 0.930 . S
C3941 C3940 1.377 . S
C3941 C3942 1.379 . S
C3942 H3926 0.931 . S
C3942 C3936 1.383 . S
C3942 C3941 1.379 . S
H3943 C3937 0.959 . S
H3944 C3937 0.961 . S
H3945 C3937 0.960 . S
H3946 C3938 0.930 . S
H3947 C3939 0.929 . S
H3948 C3956 0.929 . S
H3949 C3958 0.930 . S
H3950 C3960 0.930 . S
H3951 C3963 0.929 . S
H3952 C3966 0.930 . S
H3953 C3968 0.960 . S
H3954 C3968 0.960 . S
H3955 C3968 0.960 . S
C3956 H3948 0.929 . S
C3956 C3957 1.377 . S
C3956 C3958 1.384 . S
C3957 C3956 1.377 . S
C3957 C3963 1.390 . S
C3958 H3949 0.930 . S
C3958 C3956 1.384 . S
C3958 C3959 1.372 . S
C3959 C3958 1.372 . S
C3959 C3960 1.400 . S
C3959 C3964 1.490 . S
C3960 H3950 0.930 . S
C3960 C3959 1.400 . S
C3960 C3963 1.386 . S
H3961 C3977 0.930 . S
H3962 C3978 0.931 . S
C3963 H3951 0.929 . S
C3963 C3957 1.390 . S
C3963 C3960 1.386 . S
C3964 C3959 1.490 . S
C3964 C3966 1.395 . S
C3964 C3967 1.403 . S
H3965 C3971 0.930 . S
C3966 H3952 0.930 . S
C3966 C3964 1.395 . S
C3966 C3969 1.403 . S
C3967 C3964 1.403 . S
C3967 C3968 1.524 . S
C3967 C3971 1.400 . S
C3968 H3953 0.960 . S
C3968 H3954 0.960 . S
C3968 H3955 0.960 . S
C3968 C3967 1.524 . S
C3969 C3966 1.403 . S
C3969 C3970 1.392 . S
C3969 C3973 1.495 . S
C3970 C3969 1.392 . S
C3970 C3971 1.385 . S
C3970 C3972 1.478 . S
C3971 H3965 0.930 . S
C3971 C3967 1.400 . S
C3971 C3970 1.385 . S
C3972 C3970 1.478 . S
C3972 C3974 1.381 . S
C3972 C3978 1.383 . S
C3973 C3969 1.495 . S
C3973 H3979 0.959 . S
C3973 H3980 0.961 . S
C3973 H3981 0.960 . S
C3974 C3972 1.381 . S
C3974 C3975 1.394 . S
C3974 H3982 0.930 . S
C3975 C3974 1.394 . S
C3975 C3976 1.383 . S
C3975 H3983 0.929 . S
C3976 C3975 1.383 . S
C3976 C3977 1.377 . S
C3977 H3961 0.930 . S
C3977 C3976 1.377 . S
C3977 C3978 1.379 . S
C3978 H3962 0.931 . S
C3978 C3972 1.383 . S
C3978 C3977 1.379 . S
H3979 C3973 0.959 . S
H3980 C3973 0.961 . S
H3981 C3973 0.960 . S
H3982 C3974 0.930 . S
H3983 C3975 0.929 . S
H3984 C3992 0.929 . S
H3985 C3994 0.930 . S
H3986 C3996 0.930 . S
H3987 C3999 0.929 . S
H3988 C4002 0.930 . S
H3989 C4004 0.960 . S
H3990 C4004 0.960 . S
H3991 C4004 0.960 . S
C3992 H3984 0.929 . S
C3992 C3993 1.377 . S
C3992 C3994 1.384 . S
C3993 C3992 1.377 . S
C3993 C3999 1.390 . S
C3994 H3985 0.930 . S
C3994 C3992 1.384 . S
C3994 C3995 1.372 . S
C3995 C3994 1.372 . S
C3995 C3996 1.400 . S
C3995 C4000 1.490 . S
C3996 H3986 0.930 . S
C3996 C3995 1.400 . S
C3996 C3999 1.386 . S
H3997 C4013 0.930 . S
H3998 C4014 0.931 . S
C3999 H3987 0.929 . S
C3999 C3993 1.390 . S
C3999 C3996 1.386 . S
C4000 C3995 1.490 . S
C4000 C4002 1.395 . S
C4000 C4003 1.403 . S
H4001 C4007 0.930 . S
C4002 H3988 0.930 . S
C4002 C4000 1.395 . S
C4002 C4005 1.403 . S
C4003 C4000 1.403 . S
C4003 C4004 1.524 . S
C4003 C4007 1.400 . S
C4004 H3989 0.960 . S
C4004 H3990 0.960 . S
C4004 H3991 0.960 . S
C4004 C4003 1.524 . S
C4005 C4002 1.403 . S
C4005 C4006 1.392 . S
C4005 C4009 1.495 . S
C4006 C4005 1.392 . S
C4006 C4007 1.385 . S
C4006 C4008 1.478 . S
C4007 H4001 0.930 . S
C4007 C4003 1.400 . S
C4007 C4006 1.385 . S
C4008 C4006 1.478 . S
C4008 C4010 1.381 . S
C4008 C4014 1.383 . S
C4009 C4005 1.495 . S
C4009 H4015 0.959 . S
C4009 H4016 0.961 . S
C4009 H4017 0.960 . S
C4010 C4008 1.381 . S
C4010 C4011 1.394 . S
C4010 H4018 0.930 . S
C4011 C4010 1.394 . S
C4011 C4012 1.383 . S
C4011 H4019 0.929 . S
C4012 C4011 1.383 . S
C4012 C4013 1.377 . S
C4013 H3997 0.930 . S
C4013 C4012 1.377 . S
C4013 C4014 1.379 . S
C4014 H3998 0.931 . S
C4014 C4008 1.383 . S
C4014 C4013 1.379 . S
H4015 C4009 0.959 . S
H4016 C4009 0.961 . S
H4017 C4009 0.960 . S
H4018 C4010 0.930 . S
H4019 C4011 0.929 . S
H4020 C4028 0.929 . S
H4021 C4030 0.930 . S
H4022 C4032 0.930 . S
H4023 C4035 0.929 . S
H4024 C4038 0.930 . S
H4025 C4040 0.960 . S
H4026 C4040 0.960 . S
H4027 C4040 0.960 . S
C4028 H4020 0.929 . S
C4028 C4029 1.377 . S
C4028 C4030 1.384 . S
C4029 C4028 1.377 . S
C4029 C4035 1.390 . S
C4030 H4021 0.930 . S
C4030 C4028 1.384 . S
C4030 C4031 1.372 . S
C4031 C4030 1.372 . S
C4031 C4032 1.400 . S
C4031 C4036 1.490 . S
C4032 H4022 0.930 . S
C4032 C4031 1.400 . S
C4032 C4035 1.386 . S
H4033 C4049 0.930 . S
H4034 C4050 0.931 . S
C4035 H4023 0.929 . S
C4035 C4029 1.390 . S
C4035 C4032 1.386 . S
C4036 C4031 1.490 . S
C4036 C4038 1.395 . S
C4036 C4039 1.403 . S
H4037 C4043 0.930 . S
C4038 H4024 0.930 . S
C4038 C4036 1.395 . S
C4038 C4041 1.403 . S
C4039 C4036 1.403 . S
C4039 C4040 1.524 . S
C4039 C4043 1.400 . S
C4040 H4025 0.960 . S
C4040 H4026 0.960 . S
C4040 H4027 0.960 . S
C4040 C4039 1.524 . S
C4041 C4038 1.403 . S
C4041 C4042 1.392 . S
C4041 C4045 1.495 . S
C4042 C4041 1.392 . S
C4042 C4043 1.385 . S
C4042 C4044 1.478 . S
C4043 H4037 0.930 . S
C4043 C4039 1.400 . S
C4043 C4042 1.385 . S
C4044 C4042 1.478 . S
C4044 C4046 1.381 . S
C4044 C4050 1.383 . S
C4045 C4041 1.495 . S
C4045 H4051 0.959 . S
C4045 H4052 0.961 . S
C4045 H4053 0.960 . S
C4046 C4044 1.381 . S
C4046 C4047 1.394 . S
C4046 H4054 0.930 . S
C4047 C4046 1.394 . S
C4047 C4048 1.383 . S
C4047 H4055 0.929 . S
C4048 C4047 1.383 . S
C4048 C4049 1.377 . S
C4049 H4033 0.930 . S
C4049 C4048 1.377 . S
C4049 C4050 1.379 . S
C4050 H4034 0.931 . S
C4050 C4044 1.383 . S
C4050 C4049 1.379 . S
H4051 C4045 0.959 . S
H4052 C4045 0.961 . S
H4053 C4045 0.960 . S
H4054 C4046 0.930 . S
H4055 C4047 0.929 . S
H4056 C4064 0.929 . S
H4057 C4066 0.930 . S
H4058 C4068 0.930 . S
H4059 C4071 0.929 . S
H4060 C4074 0.930 . S
H4061 C4076 0.960 . S
H4062 C4076 0.960 . S
H4063 C4076 0.960 . S
C4064 H4056 0.929 . S
C4064 C4065 1.377 . S
C4064 C4066 1.384 . S
C4065 C4064 1.377 . S
C4065 C4071 1.390 . S
C4066 H4057 0.930 . S
C4066 C4064 1.384 . S
C4066 C4067 1.372 . S
C4067 C4066 1.372 . S
C4067 C4068 1.400 . S
C4067 C4072 1.490 . S
C4068 H4058 0.930 . S
C4068 C4067 1.400 . S
C4068 C4071 1.386 . S
H4069 C4085 0.930 . S
H4070 C4086 0.931 . S
C4071 H4059 0.929 . S
C4071 C4065 1.390 . S
C4071 C4068 1.386 . S
C4072 C4067 1.490 . S
C4072 C4074 1.395 . S
C4072 C4075 1.403 . S
H4073 C4079 0.930 . S
C4074 H4060 0.930 . S
C4074 C4072 1.395 . S
C4074 C4077 1.403 . S
C4075 C4072 1.403 . S
C4075 C4076 1.524 . S
C4075 C4079 1.400 . S
C4076 H4061 0.960 . S
C4076 H4062 0.960 . S
C4076 H4063 0.960 . S
C4076 C4075 1.524 . S
C4077 C4074 1.403 . S
C4077 C4078 1.392 . S
C4077 C4081 1.495 . S
C4078 C4077 1.392 . S
C4078 C4079 1.385 . S
C4078 C4080 1.478 . S
C4079 H4073 0.930 . S
C4079 C4075 1.400 . S
C4079 C4078 1.385 . S
C4080 C4078 1.478 . S
C4080 C4082 1.381 . S
C4080 C4086 1.383 . S
C4081 C4077 1.495 . S
C4081 H4087 0.959 . S
C4081 H4088 0.961 . S
C4081 H4089 0.960 . S
C4082 C4080 1.381 . S
C4082 C4083 1.394 . S
C4082 H4090 0.930 . S
C4083 C4082 1.394 . S
C4083 C4084 1.383 . S
C4083 H4091 0.929 . S
C4084 C4083 1.383 . S
C4084 C4085 1.377 . S
C4085 H4069 0.930 . S
C4085 C4084 1.377 . S
C4085 C4086 1.379 . S
C4086 H4070 0.931 . S
C4086 C4080 1.383 . S
C4086 C4085 1.379 . S
H4087 C4081 0.959 . S
H4088 C4081 0.961 . S
H4089 C4081 0.960 . S
H4090 C4082 0.930 . S
H4091 C4083 0.929 . S
H4092 C4100 0.929 . S
H4093 C4102 0.930 . S
H4094 C4104 0.930 . S
H4095 C4107 0.929 . S
H4096 C4110 0.908 1_545 S
H4097 C4112 0.960 . S
H4098 C4112 0.960 . S
H4099 C4112 0.960 1_554 S
C4100 H4092 0.929 . S
C4100 C4101 1.377 . S
C4100 C4102 1.384 . S
C4101 C4100 1.377 . S
C4101 C4107 1.390 . S
C4102 H4093 0.930 . S
C4102 C4100 1.384 . S
C4102 C4103 1.372 . S
C4103 C4102 1.372 . S
C4103 C4104 1.400 . S
C4103 C4108 1.490 . S
C4104 H4094 0.930 . S
C4104 C4103 1.400 . S
C4104 C4107 1.386 . S
H4105 C4121 0.930 . S
H4106 C4122 0.931 1_565 S
C4107 H4095 0.929 . S
C4107 C4101 1.390 . S
C4107 C4104 1.386 . S
C4108 C4103 1.490 . S
C4108 C4110 1.395 . S
C4108 C4111 1.403 . S
H4109 C4115 0.930 . S
C4110 H4096 0.908 1_565 S
C4110 C4108 1.395 . S
C4110 C4113 1.403 1_565 S
C4111 C4108 1.403 . S
C4111 C4112 1.524 1_554 S
C4111 C4115 1.400 . S
C4112 H4097 0.960 . S
C4112 H4098 0.960 . S
C4112 H4099 0.960 1_556 S
C4112 C4111 1.524 1_556 S
C4113 C4110 1.403 1_545 S
C4113 C4114 1.392 1_545 S
C4113 C4117 1.495 . S
C4114 C4113 1.392 1_565 S
C4114 C4115 1.385 . S
C4114 C4116 1.478 1_565 S
C4115 H4109 0.930 . S
C4115 C4111 1.400 . S
C4115 C4114 1.385 . S
C4116 C4114 1.478 1_545 S
C4116 C4118 1.381 . S
C4116 C4122 1.383 . S
C4117 C4113 1.495 . S
C4117 H4123 0.959 . S
C4117 H4124 0.961 . S
C4117 H4125 0.960 . S
C4118 C4116 1.381 . S
C4118 C4119 1.394 . S
C4118 H4126 0.930 . S
C4119 C4118 1.394 . S
C4119 C4120 1.383 . S
C4119 H4127 0.929 . S
C4120 C4119 1.383 . S
C4120 C4121 1.377 . S
C4121 H4105 0.930 . S
C4121 C4120 1.377 . S
C4121 C4122 1.379 . S
C4122 H4106 0.931 1_545 S
C4122 C4116 1.383 . S
C4122 C4121 1.379 . S
H4123 C4117 0.959 . S
H4124 C4117 0.961 . S
H4125 C4117 0.960 . S
H4126 C4118 0.930 . S
H4127 C4119 0.929 . S
H4128 C4136 0.929 . S
H4129 C4138 0.930 . S
H4130 C4140 0.930 . S
H4131 C4143 0.929 . S
H4132 C4146 0.930 . S
H4133 C4148 0.960 . S
H4134 C4148 0.960 . S
H4135 C4148 0.960 . S
C4136 H4128 0.929 . S
C4136 C4137 1.377 . S
C4136 C4138 1.384 . S
C4137 C4136 1.377 . S
C4137 C4143 1.390 . S
C4138 H4129 0.930 . S
C4138 C4136 1.384 . S
C4138 C4139 1.372 . S
C4139 C4138 1.372 . S
C4139 C4140 1.400 . S
C4139 C4144 1.490 . S
C4140 H4130 0.930 . S
C4140 C4139 1.400 . S
C4140 C4143 1.386 . S
H4141 C4157 0.930 . S
H4142 C4158 0.931 . S
C4143 H4131 0.929 . S
C4143 C4137 1.390 . S
C4143 C4140 1.386 . S
C4144 C4139 1.490 . S
C4144 C4146 1.395 . S
C4144 C4147 1.403 . S
H4145 C4151 0.930 . S
C4146 H4132 0.930 . S
C4146 C4144 1.395 . S
C4146 C4149 1.403 . S
C4147 C4144 1.403 . S
C4147 C4148 1.524 . S
C4147 C4151 1.400 . S
C4148 H4133 0.960 . S
C4148 H4134 0.960 . S
C4148 H4135 0.960 . S
C4148 C4147 1.524 . S
C4149 C4146 1.403 . S
C4149 C4150 1.392 . S
C4149 C4153 1.495 . S
C4150 C4149 1.392 . S
C4150 C4151 1.385 . S
C4150 C4152 1.478 . S
C4151 H4145 0.930 . S
C4151 C4147 1.400 . S
C4151 C4150 1.385 . S
C4152 C4150 1.478 . S
C4152 C4154 1.381 . S
C4152 C4158 1.383 . S
C4153 C4149 1.495 . S
C4153 H4159 0.959 . S
C4153 H4160 0.961 . S
C4153 H4161 0.960 . S
C4154 C4152 1.381 . S
C4154 C4155 1.394 . S
C4154 H4162 0.930 . S
C4155 C4154 1.394 . S
C4155 C4156 1.383 . S
C4155 H4163 0.929 . S
C4156 C4155 1.383 . S
C4156 C4157 1.377 . S
C4157 H4141 0.930 . S
C4157 C4156 1.377 . S
C4157 C4158 1.379 . S
C4158 H4142 0.931 . S
C4158 C4152 1.383 . S
C4158 C4157 1.379 . S
H4159 C4153 0.959 . S
H4160 C4153 0.961 . S
H4161 C4153 0.960 . S
H4162 C4154 0.930 . S
H4163 C4155 0.929 . S
H4164 C4172 0.929 . S
H4165 C4174 0.930 . S
H4166 C4176 0.930 . S
H4167 C4179 0.929 . S
H4168 C4182 0.930 . S
H4169 C4184 0.960 . S
H4170 C4184 0.960 . S
H4171 C4184 0.960 . S
C4172 H4164 0.929 . S
C4172 C4173 1.377 . S
C4172 C4174 1.384 . S
C4173 C4172 1.377 . S
C4173 C4179 1.390 1_554 S
C4174 H4165 0.930 . S
C4174 C4172 1.384 . S
C4174 C4175 1.372 . S
C4175 C4174 1.372 . S
C4175 C4176 1.400 1_554 S
C4175 C4180 1.490 . S
C4176 H4166 0.930 . S
C4176 C4175 1.400 1_556 S
C4176 C4179 1.386 . S
H4177 C4193 0.930 . S
H4178 C4194 0.931 1_556 S
C4179 H4167 0.929 . S
C4179 C4173 1.390 1_556 S
C4179 C4176 1.386 . S
C4180 C4175 1.490 . S
C4180 C4182 1.395 . S
C4180 C4183 1.403 . S
H4181 C4187 0.930 . S
C4182 H4168 0.930 . S
C4182 C4180 1.395 . S
C4182 C4185 1.403 . S
C4183 C4180 1.403 . S
C4183 C4184 1.524 . S
C4183 C4187 1.400 . S
C4184 H4169 0.960 . S
C4184 H4170 0.960 . S
C4184 H4171 0.960 . S
C4184 C4183 1.524 . S
C4185 C4182 1.403 . S
C4185 C4186 1.392 . S
C4185 C4189 1.495 . S
C4186 C4185 1.392 . S
C4186 C4187 1.385 . S
C4186 C4188 1.478 . S
C4187 H4181 0.930 . S
C4187 C4183 1.400 . S
C4187 C4186 1.385 . S
C4188 C4186 1.478 . S
C4188 C4190 1.381 . S
C4188 C4194 1.383 . S
C4189 C4185 1.495 . S
C4189 H4195 0.959 . S
C4189 H4196 0.961 . S
C4189 H4197 0.960 . S
C4190 C4188 1.381 . S
C4190 C4191 1.394 . S
C4190 H4198 0.930 . S
C4191 C4190 1.394 . S
C4191 C4192 1.383 . S
C4191 H4199 0.929 . S
C4192 C4191 1.383 . S
C4192 C4193 1.377 . S
C4193 H4177 0.930 . S
C4193 C4192 1.377 . S
C4193 C4194 1.379 . S
C4194 H4178 0.931 1_554 S
C4194 C4188 1.383 . S
C4194 C4193 1.379 . S
H4195 C4189 0.959 . S
H4196 C4189 0.961 . S
H4197 C4189 0.960 . S
H4198 C4190 0.930 . S
H4199 C4191 0.929 . S
H4200 C4208 0.929 . S
H4201 C4210 0.930 . S
H4202 C4212 0.930 . S
H4203 C4215 0.929 . S
H4204 C4218 0.930 . S
H4205 C4220 0.960 . S
H4206 C4220 0.960 . S
H4207 C4220 0.960 . S
C4208 H4200 0.929 . S
C4208 C4209 1.377 . S
C4208 C4210 1.384 . S
C4209 C4208 1.377 . S
C4209 C4215 1.390 . S
C4210 H4201 0.930 . S
C4210 C4208 1.384 . S
C4210 C4211 1.372 . S
C4211 C4210 1.372 . S
C4211 C4212 1.400 . S
C4211 C4216 1.490 . S
C4212 H4202 0.930 . S
C4212 C4211 1.400 . S
C4212 C4215 1.386 . S
H4213 C4229 0.930 . S
H4214 C4230 0.931 . S
C4215 H4203 0.929 . S
C4215 C4209 1.390 . S
C4215 C4212 1.386 . S
C4216 C4211 1.490 . S
C4216 C4218 1.395 . S
C4216 C4219 1.403 . S
H4217 C4223 0.930 . S
C4218 H4204 0.930 . S
C4218 C4216 1.395 . S
C4218 C4221 1.403 . S
C4219 C4216 1.403 . S
C4219 C4220 1.524 . S
C4219 C4223 1.400 . S
C4220 H4205 0.960 . S
C4220 H4206 0.960 . S
C4220 H4207 0.960 . S
C4220 C4219 1.524 . S
C4221 C4218 1.403 . S
C4221 C4222 1.392 . S
C4221 C4225 1.495 . S
C4222 C4221 1.392 . S
C4222 C4223 1.385 . S
C4222 C4224 1.478 . S
C4223 H4217 0.930 . S
C4223 C4219 1.400 . S
C4223 C4222 1.385 . S
C4224 C4222 1.478 . S
C4224 C4226 1.381 . S
C4224 C4230 1.383 . S
C4225 C4221 1.495 . S
C4225 H4231 0.959 . S
C4225 H4232 0.961 . S
C4225 H4233 0.960 . S
C4226 C4224 1.381 . S
C4226 C4227 1.394 . S
C4226 H4234 0.930 . S
C4227 C4226 1.394 . S
C4227 C4228 1.383 . S
C4227 H4235 0.929 . S
C4228 C4227 1.383 . S
C4228 C4229 1.377 . S
C4229 H4213 0.930 . S
C4229 C4228 1.377 . S
C4229 C4230 1.379 . S
C4230 H4214 0.931 . S
C4230 C4224 1.383 . S
C4230 C4229 1.379 . S
H4231 C4225 0.959 . S
H4232 C4225 0.961 . S
H4233 C4225 0.960 . S
H4234 C4226 0.930 . S
H4235 C4227 0.929 . S
H4236 C4244 0.929 . S
H4237 C4246 0.930 . S
H4238 C4248 0.930 . S
H4239 C4251 0.929 . S
H4240 C4254 0.930 . S
H4241 C4256 0.960 . S
H4242 C4256 0.960 . S
H4243 C4256 0.960 . S
C4244 H4236 0.929 . S
C4244 C4245 1.377 . S
C4244 C4246 1.384 . S
C4245 C4244 1.377 . S
C4245 C4251 1.390 . S
C4246 H4237 0.930 . S
C4246 C4244 1.384 . S
C4246 C4247 1.372 . S
C4247 C4246 1.372 . S
C4247 C4248 1.400 . S
C4247 C4252 1.490 . S
C4248 H4238 0.930 . S
C4248 C4247 1.400 . S
C4248 C4251 1.386 . S
H4249 C4265 0.930 . S
H4250 C4266 0.931 . S
C4251 H4239 0.929 . S
C4251 C4245 1.390 . S
C4251 C4248 1.386 . S
C4252 C4247 1.490 . S
C4252 C4254 1.395 . S
C4252 C4255 1.403 . S
H4253 C4259 0.930 . S
C4254 H4240 0.930 . S
C4254 C4252 1.395 . S
C4254 C4257 1.403 . S
C4255 C4252 1.403 . S
C4255 C4256 1.524 . S
C4255 C4259 1.400 . S
C4256 H4241 0.960 . S
C4256 H4242 0.960 . S
C4256 H4243 0.960 . S
C4256 C4255 1.524 . S
C4257 C4254 1.403 . S
C4257 C4258 1.392 . S
C4257 C4261 1.495 . S
C4258 C4257 1.392 . S
C4258 C4259 1.385 . S
C4258 C4260 1.478 . S
C4259 H4253 0.930 . S
C4259 C4255 1.400 . S
C4259 C4258 1.385 . S
C4260 C4258 1.478 . S
C4260 C4262 1.381 . S
C4260 C4266 1.383 . S
C4261 C4257 1.495 . S
C4261 H4267 0.959 . S
C4261 H4268 0.961 . S
C4261 H4269 0.960 . S
C4262 C4260 1.381 . S
C4262 C4263 1.394 . S
C4262 H4270 0.930 . S
C4263 C4262 1.394 . S
C4263 C4264 1.383 . S
C4263 H4271 0.929 . S
C4264 C4263 1.383 . S
C4264 C4265 1.377 . S
C4265 H4249 0.930 . S
C4265 C4264 1.377 . S
C4265 C4266 1.379 . S
C4266 H4250 0.931 . S
C4266 C4260 1.383 . S
C4266 C4265 1.379 . S
H4267 C4261 0.959 . S
H4268 C4261 0.961 . S
H4269 C4261 0.960 . S
H4270 C4262 0.930 . S
H4271 C4263 0.929 . S
H4272 C4280 0.929 . S
H4273 C4282 0.930 . S
H4274 C4284 0.930 . S
H4275 C4287 0.929 . S
H4276 C4290 0.930 . S
H4277 C4292 0.960 . S
H4278 C4292 0.960 . S
H4279 C4292 0.960 . S
C4280 H4272 0.929 . S
C4280 C4281 1.377 . S
C4280 C4282 1.384 . S
C4281 C4280 1.377 . S
C4281 C4287 1.390 . S
C4282 H4273 0.930 . S
C4282 C4280 1.384 . S
C4282 C4283 1.372 . S
C4283 C4282 1.372 . S
C4283 C4284 1.400 . S
C4283 C4288 1.490 . S
C4284 H4274 0.930 . S
C4284 C4283 1.400 . S
C4284 C4287 1.386 . S
H4285 C4301 0.930 . S
H4286 C4302 0.931 . S
C4287 H4275 0.929 . S
C4287 C4281 1.390 . S
C4287 C4284 1.386 . S
C4288 C4283 1.490 . S
C4288 C4290 1.395 . S
C4288 C4291 1.403 . S
H4289 C4295 0.930 . S
C4290 H4276 0.930 . S
C4290 C4288 1.395 . S
C4290 C4293 1.403 . S
C4291 C4288 1.403 . S
C4291 C4292 1.524 . S
C4291 C4295 1.400 . S
C4292 H4277 0.960 . S
C4292 H4278 0.960 . S
C4292 H4279 0.960 . S
C4292 C4291 1.524 . S
C4293 C4290 1.403 . S
C4293 C4294 1.392 . S
C4293 C4297 1.495 . S
C4294 C4293 1.392 . S
C4294 C4295 1.385 . S
C4294 C4296 1.478 . S
C4295 H4289 0.930 . S
C4295 C4291 1.400 . S
C4295 C4294 1.385 . S
C4296 C4294 1.478 . S
C4296 C4298 1.381 . S
C4296 C4302 1.383 . S
C4297 C4293 1.495 . S
C4297 H4303 0.959 . S
C4297 H4304 0.961 . S
C4297 H4305 0.960 . S
C4298 C4296 1.381 . S
C4298 C4299 1.394 . S
C4298 H4306 0.930 . S
C4299 C4298 1.394 . S
C4299 C4300 1.383 . S
C4299 H4307 0.929 . S
C4300 C4299 1.383 . S
C4300 C4301 1.377 . S
C4301 H4285 0.930 . S
C4301 C4300 1.377 . S
C4301 C4302 1.379 . S
C4302 H4286 0.931 . S
C4302 C4296 1.383 . S
C4302 C4301 1.379 . S
H4303 C4297 0.959 . S
H4304 C4297 0.961 . S
H4305 C4297 0.960 . S
H4306 C4298 0.930 . S
H4307 C4299 0.929 . S
H4308 C4316 0.929 . S
H4309 C4318 0.930 . S
H4310 C4320 0.930 . S
H4311 C4323 0.929 . S
H4312 C4326 0.930 . S
H4313 C4328 0.960 . S
H4314 C4328 0.960 . S
H4315 C4328 0.960 . S
C4316 H4308 0.929 . S
C4316 C4317 1.377 . S
C4316 C4318 1.384 . S
C4317 C4316 1.377 . S
C4317 C4323 1.390 . S
C4318 H4309 0.930 . S
C4318 C4316 1.384 . S
C4318 C4319 1.372 . S
C4319 C4318 1.372 . S
C4319 C4320 1.400 . S
C4319 C4324 1.490 . S
C4320 H4310 0.930 . S
C4320 C4319 1.400 . S
C4320 C4323 1.386 . S
H4321 C4337 0.930 . S
H4322 C4338 0.931 . S
C4323 H4311 0.929 . S
C4323 C4317 1.390 . S
C4323 C4320 1.386 . S
C4324 C4319 1.490 . S
C4324 C4326 1.395 . S
C4324 C4327 1.403 . S
H4325 C4331 0.930 . S
C4326 H4312 0.930 . S
C4326 C4324 1.395 . S
C4326 C4329 1.403 . S
C4327 C4324 1.403 . S
C4327 C4328 1.524 . S
C4327 C4331 1.400 . S
C4328 H4313 0.960 . S
C4328 H4314 0.960 . S
C4328 H4315 0.960 . S
C4328 C4327 1.524 . S
C4329 C4326 1.403 . S
C4329 C4330 1.392 . S
C4329 C4333 1.495 . S
C4330 C4329 1.392 . S
C4330 C4331 1.385 . S
C4330 C4332 1.478 . S
C4331 H4325 0.930 . S
C4331 C4327 1.400 . S
C4331 C4330 1.385 . S
C4332 C4330 1.478 . S
C4332 C4334 1.381 . S
C4332 C4338 1.383 . S
C4333 C4329 1.495 . S
C4333 H4339 0.959 . S
C4333 H4340 0.961 . S
C4333 H4341 0.960 . S
C4334 C4332 1.381 . S
C4334 C4335 1.394 . S
C4334 H4342 0.930 . S
C4335 C4334 1.394 . S
C4335 C4336 1.383 . S
C4335 H4343 0.929 . S
C4336 C4335 1.383 . S
C4336 C4337 1.377 . S
C4337 H4321 0.930 . S
C4337 C4336 1.377 . S
C4337 C4338 1.379 . S
C4338 H4322 0.931 . S
C4338 C4332 1.383 . S
C4338 C4337 1.379 . S
H4339 C4333 0.959 . S
H4340 C4333 0.961 . S
H4341 C4333 0.960 . S
H4342 C4334 0.930 . S
H4343 C4335 0.929 . S
H4344 C4352 0.929 . S
H4345 C4354 0.930 . S
H4346 C4356 0.930 . S
H4347 C4359 0.929 . S
H4348 C4362 0.930 . S
H4349 C4364 0.960 . S
H4350 C4364 0.960 . S
H4351 C4364 0.960 . S
C4352 H4344 0.929 . S
C4352 C4353 1.377 . S
C4352 C4354 1.384 . S
C4353 C4352 1.377 . S
C4353 C4359 1.390 . S
C4354 H4345 0.930 . S
C4354 C4352 1.384 . S
C4354 C4355 1.372 . S
C4355 C4354 1.372 . S
C4355 C4356 1.400 . S
C4355 C4360 1.490 . S
C4356 H4346 0.930 . S
C4356 C4355 1.400 . S
C4356 C4359 1.386 . S
H4357 C4373 0.930 . S
H4358 C4374 0.931 . S
C4359 H4347 0.929 . S
C4359 C4353 1.390 . S
C4359 C4356 1.386 . S
C4360 C4355 1.490 . S
C4360 C4362 1.395 . S
C4360 C4363 1.403 . S
H4361 C4367 0.930 . S
C4362 H4348 0.930 . S
C4362 C4360 1.395 . S
C4362 C4365 1.403 . S
C4363 C4360 1.403 . S
C4363 C4364 1.524 . S
C4363 C4367 1.400 . S
C4364 H4349 0.960 . S
C4364 H4350 0.960 . S
C4364 H4351 0.960 . S
C4364 C4363 1.524 . S
C4365 C4362 1.403 . S
C4365 C4366 1.392 . S
C4365 C4369 1.495 . S
C4366 C4365 1.392 . S
C4366 C4367 1.385 . S
C4366 C4368 1.478 . S
C4367 H4361 0.930 . S
C4367 C4363 1.400 . S
C4367 C4366 1.385 . S
C4368 C4366 1.478 . S
C4368 C4370 1.381 . S
C4368 C4374 1.383 . S
C4369 C4365 1.495 . S
C4369 H4375 0.959 . S
C4369 H4376 0.961 . S
C4369 H4377 0.960 . S
C4370 C4368 1.381 . S
C4370 C4371 1.394 . S
C4370 H4378 0.930 . S
C4371 C4370 1.394 . S
C4371 C4372 1.383 . S
C4371 H4379 0.929 . S
C4372 C4371 1.383 . S
C4372 C4373 1.377 . S
C4373 H4357 0.930 . S
C4373 C4372 1.377 . S
C4373 C4374 1.379 . S
C4374 H4358 0.931 . S
C4374 C4368 1.383 . S
C4374 C4373 1.379 . S
H4375 C4369 0.959 . S
H4376 C4369 0.961 . S
H4377 C4369 0.960 . S
H4378 C4370 0.930 . S
H4379 C4371 0.929 . S
H4380 C4388 0.929 . S
H4381 C4390 0.930 . S
H4382 C4392 0.930 . S
H4383 C4395 0.929 . S
H4384 C4398 0.930 . S
H4385 C4400 0.960 . S
H4386 C4400 0.960 . S
H4387 C4400 0.960 . S
C4388 H4380 0.929 . S
C4388 C4389 1.377 . S
C4388 C4390 1.384 . S
C4389 C4388 1.377 . S
C4389 C4395 1.390 . S
C4390 H4381 0.930 . S
C4390 C4388 1.384 . S
C4390 C4391 1.372 . S
C4391 C4390 1.372 . S
C4391 C4392 1.400 . S
C4391 C4396 1.490 . S
C4392 H4382 0.930 . S
C4392 C4391 1.400 . S
C4392 C4395 1.386 . S
H4393 C4409 0.930 . S
H4394 C4410 0.931 . S
C4395 H4383 0.929 . S
C4395 C4389 1.390 . S
C4395 C4392 1.386 . S
C4396 C4391 1.490 . S
C4396 C4398 1.395 . S
C4396 C4399 1.403 . S
H4397 C4403 0.930 . S
C4398 H4384 0.930 . S
C4398 C4396 1.395 . S
C4398 C4401 1.403 . S
C4399 C4396 1.403 . S
C4399 C4400 1.524 . S
C4399 C4403 1.400 . S
C4400 H4385 0.960 . S
C4400 H4386 0.960 . S
C4400 H4387 0.960 . S
C4400 C4399 1.524 . S
C4401 C4398 1.403 . S
C4401 C4402 1.392 . S
C4401 C4405 1.495 . S
C4402 C4401 1.392 . S
C4402 C4403 1.385 . S
C4402 C4404 1.478 . S
C4403 H4397 0.930 . S
C4403 C4399 1.400 . S
C4403 C4402 1.385 . S
C4404 C4402 1.478 . S
C4404 C4406 1.381 . S
C4404 C4410 1.383 . S
C4405 C4401 1.495 . S
C4405 H4411 0.959 . S
C4405 H4412 0.961 . S
C4405 H4413 0.960 . S
C4406 C4404 1.381 . S
C4406 C4407 1.394 . S
C4406 H4414 0.930 . S
C4407 C4406 1.394 . S
C4407 C4408 1.383 . S
C4407 H4415 0.929 . S
C4408 C4407 1.383 . S
C4408 C4409 1.377 . S
C4409 H4393 0.930 . S
C4409 C4408 1.377 . S
C4409 C4410 1.379 . S
C4410 H4394 0.931 . S
C4410 C4404 1.383 . S
C4410 C4409 1.379 . S
H4411 C4405 0.959 . S
H4412 C4405 0.961 . S
H4413 C4405 0.960 . S
H4414 C4406 0.930 . S
H4415 C4407 0.929 . S
H4416 C4424 0.929 . S
H4417 C4426 0.930 . S
H4418 C4428 0.930 . S
H4419 C4431 0.929 . S
H4420 C4434 0.930 . S
H4421 C4436 0.960 . S
H4422 C4436 0.960 . S
H4423 C4436 0.960 . S
C4424 H4416 0.929 . S
C4424 C4425 1.377 . S
C4424 C4426 1.384 . S
C4425 C4424 1.377 . S
C4425 C4431 1.390 . S
C4426 H4417 0.930 . S
C4426 C4424 1.384 . S
C4426 C4427 1.372 . S
C4427 C4426 1.372 . S
C4427 C4428 1.400 . S
C4427 C4432 1.490 . S
C4428 H4418 0.930 . S
C4428 C4427 1.400 . S
C4428 C4431 1.386 . S
H4429 C4445 0.930 1_554 S
H4430 C4446 0.931 . S
C4431 H4419 0.929 . S
C4431 C4425 1.390 . S
C4431 C4428 1.386 . S
C4432 C4427 1.490 . S
C4432 C4434 1.395 . S
C4432 C4435 1.403 . S
H4433 C4439 0.930 . S
C4434 H4420 0.930 . S
C4434 C4432 1.395 . S
C4434 C4437 1.403 . S
C4435 C4432 1.403 . S
C4435 C4436 1.524 . S
C4435 C4439 1.400 . S
C4436 H4421 0.960 . S
C4436 H4422 0.960 . S
C4436 H4423 0.960 . S
C4436 C4435 1.524 . S
C4437 C4434 1.403 . S
C4437 C4438 1.392 . S
C4437 C4441 1.495 . S
C4438 C4437 1.392 . S
C4438 C4439 1.385 . S
C4438 C4440 1.478 . S
C4439 H4433 0.930 . S
C4439 C4435 1.400 . S
C4439 C4438 1.385 . S
C4440 C4438 1.478 . S
C4440 C4442 1.381 . S
C4440 C4446 1.383 . S
C4441 C4437 1.495 . S
C4441 H4447 0.959 . S
C4441 H4448 0.961 . S
C4441 H4449 0.960 . S
C4442 C4440 1.381 . S
C4442 C4443 1.394 . S
C4442 H4450 0.930 . S
C4443 C4442 1.394 . S
C4443 C4444 1.383 . S
C4443 H4451 0.929 . S
C4444 C4443 1.383 . S
C4444 C4445 1.377 . S
C4445 H4429 0.930 1_556 S
C4445 C4444 1.377 . S
C4445 C4446 1.379 . S
C4446 H4430 0.931 . S
C4446 C4440 1.383 . S
C4446 C4445 1.379 . S
H4447 C4441 0.959 . S
H4448 C4441 0.961 . S
H4449 C4441 0.960 . S
H4450 C4442 0.930 . S
H4451 C4443 0.929 . S
H4452 C4460 0.929 . S
H4453 C4462 0.930 . S
H4454 C4464 0.930 . S
H4455 C4467 0.929 . S
H4456 C4470 0.930 . S
H4457 C4472 0.960 . S
H4458 C4472 0.960 . S
H4459 C4472 0.960 . S
C4460 H4452 0.929 . S
C4460 C4461 1.377 . S
C4460 C4462 1.384 . S
C4461 C4460 1.377 . S
C4461 C4467 1.390 . S
C4462 H4453 0.930 . S
C4462 C4460 1.384 . S
C4462 C4463 1.372 . S
C4463 C4462 1.372 . S
C4463 C4464 1.400 . S
C4463 C4468 1.490 . S
C4464 H4454 0.930 . S
C4464 C4463 1.400 . S
C4464 C4467 1.386 . S
H4465 C4481 0.930 . S
H4466 C4482 0.931 . S
C4467 H4455 0.929 . S
C4467 C4461 1.390 . S
C4467 C4464 1.386 . S
C4468 C4463 1.490 . S
C4468 C4470 1.395 . S
C4468 C4471 1.403 . S
H4469 C4475 0.930 . S
C4470 H4456 0.930 . S
C4470 C4468 1.395 . S
C4470 C4473 1.403 . S
C4471 C4468 1.403 . S
C4471 C4472 1.524 . S
C4471 C4475 1.400 . S
C4472 H4457 0.960 . S
C4472 H4458 0.960 . S
C4472 H4459 0.960 . S
C4472 C4471 1.524 . S
C4473 C4470 1.403 . S
C4473 C4474 1.392 . S
C4473 C4477 1.495 . S
C4474 C4473 1.392 . S
C4474 C4475 1.385 . S
C4474 C4476 1.478 . S
C4475 H4469 0.930 . S
C4475 C4471 1.400 . S
C4475 C4474 1.385 . S
C4476 C4474 1.478 . S
C4476 C4478 1.381 . S
C4476 C4482 1.383 . S
C4477 C4473 1.495 . S
C4477 H4483 0.959 . S
C4477 H4484 0.961 . S
C4477 H4485 0.960 . S
C4478 C4476 1.381 . S
C4478 C4479 1.394 . S
C4478 H4486 0.930 . S
C4479 C4478 1.394 . S
C4479 C4480 1.383 . S
C4479 H4487 0.929 . S
C4480 C4479 1.383 . S
C4480 C4481 1.377 . S
C4481 H4465 0.930 . S
C4481 C4480 1.377 . S
C4481 C4482 1.379 . S
C4482 H4466 0.931 . S
C4482 C4476 1.383 . S
C4482 C4481 1.379 . S
H4483 C4477 0.959 . S
H4484 C4477 0.961 . S
H4485 C4477 0.960 . S
H4486 C4478 0.930 . S
H4487 C4479 0.929 . S
H4488 C4496 0.929 . S
H4489 C4498 0.930 . S
H4490 C4500 0.930 . S
H4491 C4503 0.929 . S
H4492 C4506 0.930 . S
H4493 C4508 0.960 . S
H4494 C4508 0.960 . S
H4495 C4508 0.960 . S
C4496 H4488 0.929 . S
C4496 C4497 1.377 . S
C4496 C4498 1.384 . S
C4497 C4496 1.377 . S
C4497 C4503 1.390 . S
C4498 H4489 0.930 . S
C4498 C4496 1.384 . S
C4498 C4499 1.372 . S
C4499 C4498 1.372 . S
C4499 C4500 1.400 . S
C4499 C4504 1.490 . S
C4500 H4490 0.930 . S
C4500 C4499 1.400 . S
C4500 C4503 1.386 . S
H4501 C4517 0.930 . S
H4502 C4518 0.931 . S
C4503 H4491 0.929 . S
C4503 C4497 1.390 . S
C4503 C4500 1.386 . S
C4504 C4499 1.490 . S
C4504 C4506 1.395 . S
C4504 C4507 1.403 . S
H4505 C4511 0.930 . S
C4506 H4492 0.930 . S
C4506 C4504 1.395 . S
C4506 C4509 1.403 . S
C4507 C4504 1.403 . S
C4507 C4508 1.524 . S
C4507 C4511 1.400 . S
C4508 H4493 0.960 . S
C4508 H4494 0.960 . S
C4508 H4495 0.960 . S
C4508 C4507 1.524 . S
C4509 C4506 1.403 . S
C4509 C4510 1.392 . S
C4509 C4513 1.495 . S
C4510 C4509 1.392 . S
C4510 C4511 1.385 . S
C4510 C4512 1.478 . S
C4511 H4505 0.930 . S
C4511 C4507 1.400 . S
C4511 C4510 1.385 . S
C4512 C4510 1.478 . S
C4512 C4514 1.381 . S
C4512 C4518 1.383 . S
C4513 C4509 1.495 . S
C4513 H4519 0.959 . S
C4513 H4520 0.961 . S
C4513 H4521 0.960 . S
C4514 C4512 1.381 . S
C4514 C4515 1.394 . S
C4514 H4522 0.930 . S
C4515 C4514 1.394 . S
C4515 C4516 1.383 . S
C4515 H4523 0.929 . S
C4516 C4515 1.383 . S
C4516 C4517 1.377 . S
C4517 H4501 0.930 . S
C4517 C4516 1.377 . S
C4517 C4518 1.379 . S
C4518 H4502 0.931 . S
C4518 C4512 1.383 . S
C4518 C4517 1.379 . S
H4519 C4513 0.959 . S
H4520 C4513 0.961 . S
H4521 C4513 0.960 . S
H4522 C4514 0.930 . S
H4523 C4515 0.929 . S
H4524 C4532 0.929 . S
H4525 C4534 0.930 . S
H4526 C4536 0.930 . S
H4527 C4539 0.929 . S
H4528 C4542 0.930 . S
H4529 C4544 0.960 . S
H4530 C4544 0.960 . S
H4531 C4544 0.960 . S
C4532 H4524 0.929 . S
C4532 C4533 1.377 . S
C4532 C4534 1.384 . S
C4533 C4532 1.377 . S
C4533 C4539 1.390 . S
C4534 H4525 0.930 . S
C4534 C4532 1.384 . S
C4534 C4535 1.372 . S
C4535 C4534 1.372 . S
C4535 C4536 1.400 . S
C4535 C4540 1.490 . S
C4536 H4526 0.930 . S
C4536 C4535 1.400 . S
C4536 C4539 1.386 . S
H4537 C4553 0.930 . S
H4538 C4554 0.931 . S
C4539 H4527 0.929 . S
C4539 C4533 1.390 . S
C4539 C4536 1.386 . S
C4540 C4535 1.490 . S
C4540 C4542 1.395 . S
C4540 C4543 1.403 . S
H4541 C4547 0.930 . S
C4542 H4528 0.930 . S
C4542 C4540 1.395 . S
C4542 C4545 1.403 . S
C4543 C4540 1.403 . S
C4543 C4544 1.524 . S
C4543 C4547 1.400 . S
C4544 H4529 0.960 . S
C4544 H4530 0.960 . S
C4544 H4531 0.960 . S
C4544 C4543 1.524 . S
C4545 C4542 1.403 . S
C4545 C4546 1.392 . S
C4545 C4549 1.495 . S
C4546 C4545 1.392 . S
C4546 C4547 1.385 . S
C4546 C4548 1.478 . S
C4547 H4541 0.930 . S
C4547 C4543 1.400 . S
C4547 C4546 1.385 . S
C4548 C4546 1.478 . S
C4548 C4550 1.381 . S
C4548 C4554 1.383 . S
C4549 C4545 1.495 . S
C4549 H4555 0.959 . S
C4549 H4556 0.961 . S
C4549 H4557 0.960 . S
C4550 C4548 1.381 . S
C4550 C4551 1.394 . S
C4550 H4558 0.930 . S
C4551 C4550 1.394 . S
C4551 C4552 1.383 . S
C4551 H4559 0.929 . S
C4552 C4551 1.383 . S
C4552 C4553 1.377 . S
C4553 H4537 0.930 . S
C4553 C4552 1.377 . S
C4553 C4554 1.379 . S
C4554 H4538 0.931 . S
C4554 C4548 1.383 . S
C4554 C4553 1.379 . S
H4555 C4549 0.959 . S
H4556 C4549 0.961 . S
H4557 C4549 0.960 . S
H4558 C4550 0.930 . S
H4559 C4551 0.929 . S
H4560 C4568 0.929 . S
H4561 C4570 0.930 . S
H4562 C4572 0.930 . S
H4563 C4575 0.929 . S
H4564 C4578 0.930 . S
H4565 C4580 0.960 . S
H4566 C4580 0.960 . S
H4567 C4580 0.960 . S
C4568 H4560 0.929 . S
C4568 C4569 1.377 . S
C4568 C4570 1.384 . S
C4569 C4568 1.377 . S
C4569 C4575 1.390 . S
C4570 H4561 0.930 . S
C4570 C4568 1.384 . S
C4570 C4571 1.372 . S
C4571 C4570 1.372 . S
C4571 C4572 1.400 . S
C4571 C4576 1.490 . S
C4572 H4562 0.930 . S
C4572 C4571 1.400 . S
C4572 C4575 1.386 . S
H4573 C4589 0.930 . S
H4574 C4590 0.931 . S
C4575 H4563 0.929 . S
C4575 C4569 1.390 . S
C4575 C4572 1.386 . S
C4576 C4571 1.490 . S
C4576 C4578 1.395 . S
C4576 C4579 1.403 . S
H4577 C4583 0.930 . S
C4578 H4564 0.930 . S
C4578 C4576 1.395 . S
C4578 C4581 1.403 . S
C4579 C4576 1.403 . S
C4579 C4580 1.524 . S
C4579 C4583 1.400 . S
C4580 H4565 0.960 . S
C4580 H4566 0.960 . S
C4580 H4567 0.960 . S
C4580 C4579 1.524 . S
C4581 C4578 1.403 . S
C4581 C4582 1.392 . S
C4581 C4585 1.495 . S
C4582 C4581 1.392 . S
C4582 C4583 1.385 . S
C4582 C4584 1.478 . S
C4583 H4577 0.930 . S
C4583 C4579 1.400 . S
C4583 C4582 1.385 . S
C4584 C4582 1.478 . S
C4584 C4586 1.381 . S
C4584 C4590 1.383 . S
C4585 C4581 1.495 . S
C4585 H4591 0.959 . S
C4585 H4592 0.961 . S
C4585 H4593 0.960 . S
C4586 C4584 1.381 . S
C4586 C4587 1.394 . S
C4586 H4594 0.930 . S
C4587 C4586 1.394 . S
C4587 C4588 1.383 . S
C4587 H4595 0.929 . S
C4588 C4587 1.383 . S
C4588 C4589 1.377 . S
C4589 H4573 0.930 . S
C4589 C4588 1.377 . S
C4589 C4590 1.379 . S
C4590 H4574 0.931 . S
C4590 C4584 1.383 . S
C4590 C4589 1.379 . S
H4591 C4585 0.959 . S
H4592 C4585 0.961 . S
H4593 C4585 0.960 . S
H4594 C4586 0.930 . S
H4595 C4587 0.929 . S
H4596 C4604 0.929 . S
H4597 C4606 0.930 . S
H4598 C4608 0.930 . S
H4599 C4611 0.929 . S
H4600 C4614 0.930 . S
H4601 C4616 0.960 . S
H4602 C4616 0.960 . S
H4603 C4616 0.960 . S
C4604 H4596 0.929 . S
C4604 C4605 1.377 . S
C4604 C4606 1.384 . S
C4605 C4604 1.377 . S
C4605 C4611 1.390 . S
C4606 H4597 0.930 . S
C4606 C4604 1.384 . S
C4606 C4607 1.372 . S
C4607 C4606 1.372 . S
C4607 C4608 1.400 . S
C4607 C4612 1.490 . S
C4608 H4598 0.930 . S
C4608 C4607 1.400 . S
C4608 C4611 1.386 . S
H4609 C4625 0.930 . S
H4610 C4626 0.931 . S
C4611 H4599 0.929 . S
C4611 C4605 1.390 . S
C4611 C4608 1.386 . S
C4612 C4607 1.490 . S
C4612 C4614 1.395 . S
C4612 C4615 1.403 . S
H4613 C4619 0.930 . S
C4614 H4600 0.930 . S
C4614 C4612 1.395 . S
C4614 C4617 1.403 . S
C4615 C4612 1.403 . S
C4615 C4616 1.524 . S
C4615 C4619 1.400 . S
C4616 H4601 0.960 . S
C4616 H4602 0.960 . S
C4616 H4603 0.960 . S
C4616 C4615 1.524 . S
C4617 C4614 1.403 . S
C4617 C4618 1.392 . S
C4617 C4621 1.495 . S
C4618 C4617 1.392 . S
C4618 C4619 1.385 . S
C4618 C4620 1.478 . S
C4619 H4613 0.930 . S
C4619 C4615 1.400 . S
C4619 C4618 1.385 . S
C4620 C4618 1.478 . S
C4620 C4622 1.381 . S
C4620 C4626 1.383 . S
C4621 C4617 1.495 . S
C4621 H4627 0.959 . S
C4621 H4628 0.961 . S
C4621 H4629 0.960 . S
C4622 C4620 1.381 . S
C4622 C4623 1.394 . S
C4622 H4630 0.930 . S
C4623 C4622 1.394 . S
C4623 C4624 1.383 . S
C4623 H4631 0.929 . S
C4624 C4623 1.383 . S
C4624 C4625 1.377 . S
C4625 H4609 0.930 . S
C4625 C4624 1.377 . S
C4625 C4626 1.379 . S
C4626 H4610 0.931 . S
C4626 C4620 1.383 . S
C4626 C4625 1.379 . S
H4627 C4621 0.959 . S
H4628 C4621 0.961 . S
H4629 C4621 0.960 . S
H4630 C4622 0.930 . S
H4631 C4623 0.929 . S
H4632 C4640 0.929 . S
H4633 C4642 0.930 . S
H4634 C4644 0.930 . S
H4635 C4647 0.929 . S
H4636 C4650 0.930 . S
H4637 C4652 0.960 . S
H4638 C4652 0.960 . S
H4639 C4652 0.960 . S
C4640 H4632 0.929 . S
C4640 C4641 1.377 . S
C4640 C4642 1.384 . S
C4641 C4640 1.377 . S
C4641 C4647 1.390 . S
C4642 H4633 0.930 . S
C4642 C4640 1.384 . S
C4642 C4643 1.372 . S
C4643 C4642 1.372 . S
C4643 C4644 1.400 . S
C4643 C4648 1.490 . S
C4644 H4634 0.930 . S
C4644 C4643 1.400 . S
C4644 C4647 1.386 . S
H4645 C4661 0.930 . S
H4646 C4662 0.931 . S
C4647 H4635 0.929 . S
C4647 C4641 1.390 . S
C4647 C4644 1.386 . S
C4648 C4643 1.490 . S
C4648 C4650 1.395 . S
C4648 C4651 1.403 . S
H4649 C4655 0.930 . S
C4650 H4636 0.930 . S
C4650 C4648 1.395 . S
C4650 C4653 1.403 . S
C4651 C4648 1.403 . S
C4651 C4652 1.524 . S
C4651 C4655 1.400 . S
C4652 H4637 0.960 . S
C4652 H4638 0.960 . S
C4652 H4639 0.960 . S
C4652 C4651 1.524 . S
C4653 C4650 1.403 . S
C4653 C4654 1.392 . S
C4653 C4657 1.495 . S
C4654 C4653 1.392 . S
C4654 C4655 1.385 . S
C4654 C4656 1.478 1_655 S
C4655 H4649 0.930 . S
C4655 C4651 1.400 . S
C4655 C4654 1.385 . S
C4656 C4654 1.478 1_455 S
C4656 C4658 1.381 . S
C4656 C4662 1.383 1_455 S
C4657 C4653 1.495 . S
C4657 H4663 0.959 . S
C4657 H4664 0.961 . S
C4657 H4665 0.960 1_655 S
C4658 C4656 1.381 . S
C4658 C4659 1.394 . S
C4658 H4666 0.930 . S
C4659 C4658 1.394 . S
C4659 C4660 1.383 . S
C4659 H4667 0.929 . S
C4660 C4659 1.383 . S
C4660 C4661 1.377 . S
C4661 H4645 0.930 . S
C4661 C4660 1.377 . S
C4661 C4662 1.379 1_455 S
C4662 H4646 0.931 . S
C4662 C4656 1.383 1_655 S
C4662 C4661 1.379 1_655 S
H4663 C4657 0.959 . S
H4664 C4657 0.961 . S
H4665 C4657 0.960 1_455 S
H4666 C4658 0.930 . S
H4667 C4659 0.929 . S
H4668 C4676 0.929 . S
H4669 C4678 0.930 . S
H4670 C4680 0.930 . S
H4671 C4683 0.929 . S
H4672 C4686 0.930 . S
H4673 C4688 0.960 . S
H4674 C4688 0.960 . S
H4675 C4688 0.960 . S
C4676 H4668 0.929 . S
C4676 C4677 1.377 . S
C4676 C4678 1.384 . S
C4677 C4676 1.377 . S
C4677 C4683 1.390 . S
C4678 H4669 0.930 . S
C4678 C4676 1.384 . S
C4678 C4679 1.372 . S
C4679 C4678 1.372 . S
C4679 C4680 1.400 . S
C4679 C4684 1.490 . S
C4680 H4670 0.930 . S
C4680 C4679 1.400 . S
C4680 C4683 1.386 . S
H4681 C4697 0.930 . S
H4682 C4698 0.931 . S
C4683 H4671 0.929 . S
C4683 C4677 1.390 . S
C4683 C4680 1.386 . S
C4684 C4679 1.490 . S
C4684 C4686 1.395 . S
C4684 C4687 1.403 . S
H4685 C4691 0.930 . S
C4686 H4672 0.930 . S
C4686 C4684 1.395 . S
C4686 C4689 1.403 . S
C4687 C4684 1.403 . S
C4687 C4688 1.524 . S
C4687 C4691 1.400 . S
C4688 H4673 0.960 . S
C4688 H4674 0.960 . S
C4688 H4675 0.960 . S
C4688 C4687 1.524 . S
C4689 C4686 1.403 . S
C4689 C4690 1.392 . S
C4689 C4693 1.495 . S
C4690 C4689 1.392 . S
C4690 C4691 1.385 . S
C4690 C4692 1.478 . S
C4691 H4685 0.930 . S
C4691 C4687 1.400 . S
C4691 C4690 1.385 . S
C4692 C4690 1.478 . S
C4692 C4694 1.381 . S
C4692 C4698 1.383 . S
C4693 C4689 1.495 . S
C4693 H4699 0.959 . S
C4693 H4700 0.961 . S
C4693 H4701 0.960 . S
C4694 C4692 1.381 . S
C4694 C4695 1.394 . S
C4694 H4702 0.930 . S
C4695 C4694 1.394 . S
C4695 C4696 1.383 . S
C4695 H4703 0.929 . S
C4696 C4695 1.383 . S
C4696 C4697 1.377 . S
C4697 H4681 0.930 . S
C4697 C4696 1.377 . S
C4697 C4698 1.379 . S
C4698 H4682 0.931 . S
C4698 C4692 1.383 . S
C4698 C4697 1.379 . S
H4699 C4693 0.959 . S
H4700 C4693 0.961 . S
H4701 C4693 0.960 . S
H4702 C4694 0.930 . S
H4703 C4695 0.929 . S
H4704 C4712 0.929 . S
H4705 C4714 0.930 . S
H4706 C4716 0.930 . S
H4707 C4719 0.929 . S
H4708 C4722 0.930 . S
H4709 C4724 0.960 . S
H4710 C4724 0.960 . S
H4711 C4724 0.960 . S
C4712 H4704 0.929 . S
C4712 C4713 1.377 . S
C4712 C4714 1.384 . S
C4713 C4712 1.377 . S
C4713 C4719 1.390 . S
C4714 H4705 0.930 . S
C4714 C4712 1.384 . S
C4714 C4715 1.372 . S
C4715 C4714 1.372 . S
C4715 C4716 1.400 . S
C4715 C4720 1.490 . S
C4716 H4706 0.930 . S
C4716 C4715 1.400 . S
C4716 C4719 1.386 . S
H4717 C4733 0.930 . S
H4718 C4734 0.931 . S
C4719 H4707 0.929 . S
C4719 C4713 1.390 . S
C4719 C4716 1.386 . S
C4720 C4715 1.490 . S
C4720 C4722 1.395 . S
C4720 C4723 1.403 . S
H4721 C4727 0.930 . S
C4722 H4708 0.930 . S
C4722 C4720 1.395 . S
C4722 C4725 1.403 . S
C4723 C4720 1.403 . S
C4723 C4724 1.524 . S
C4723 C4727 1.400 . S
C4724 H4709 0.960 . S
C4724 H4710 0.960 . S
C4724 H4711 0.960 . S
C4724 C4723 1.524 . S
C4725 C4722 1.403 . S
C4725 C4726 1.392 . S
C4725 C4729 1.495 . S
C4726 C4725 1.392 . S
C4726 C4727 1.385 . S
C4726 C4728 1.478 . S
C4727 H4721 0.930 . S
C4727 C4723 1.400 . S
C4727 C4726 1.385 . S
C4728 C4726 1.478 . S
C4728 C4730 1.381 . S
C4728 C4734 1.383 . S
C4729 C4725 1.495 . S
C4729 H4735 0.959 . S
C4729 H4736 0.961 . S
C4729 H4737 0.960 . S
C4730 C4728 1.381 . S
C4730 C4731 1.394 . S
C4730 H4738 0.930 . S
C4731 C4730 1.394 . S
C4731 C4732 1.383 . S
C4731 H4739 0.929 . S
C4732 C4731 1.383 . S
C4732 C4733 1.377 . S
C4733 H4717 0.930 . S
C4733 C4732 1.377 . S
C4733 C4734 1.379 . S
C4734 H4718 0.931 . S
C4734 C4728 1.383 . S
C4734 C4733 1.379 . S
H4735 C4729 0.959 . S
H4736 C4729 0.961 . S
H4737 C4729 0.960 . S
H4738 C4730 0.930 . S
H4739 C4731 0.929 . S
H4740 C4748 0.929 . S
H4741 C4750 0.930 . S
H4742 C4752 0.930 . S
H4743 C4755 0.929 . S
H4744 C4758 0.930 . S
H4745 C4760 0.960 . S
H4746 C4760 0.960 . S
H4747 C4760 0.960 . S
C4748 H4740 0.929 . S
C4748 C4749 1.377 . S
C4748 C4750 1.384 . S
C4749 C4748 1.377 . S
C4749 C4755 1.390 . S
C4750 H4741 0.930 . S
C4750 C4748 1.384 . S
C4750 C4751 1.372 . S
C4751 C4750 1.372 . S
C4751 C4752 1.400 . S
C4751 C4756 1.490 . S
C4752 H4742 0.930 . S
C4752 C4751 1.400 . S
C4752 C4755 1.386 . S
H4753 C4769 0.930 . S
H4754 C4770 0.931 . S
C4755 H4743 0.929 . S
C4755 C4749 1.390 . S
C4755 C4752 1.386 . S
C4756 C4751 1.490 . S
C4756 C4758 1.395 . S
C4756 C4759 1.403 . S
H4757 C4763 0.930 . S
C4758 H4744 0.930 . S
C4758 C4756 1.395 . S
C4758 C4761 1.403 . S
C4759 C4756 1.403 . S
C4759 C4760 1.524 . S
C4759 C4763 1.400 . S
C4760 H4745 0.960 . S
C4760 H4746 0.960 . S
C4760 H4747 0.960 . S
C4760 C4759 1.524 . S
C4761 C4758 1.403 . S
C4761 C4762 1.392 . S
C4761 C4765 1.495 . S
C4762 C4761 1.392 . S
C4762 C4763 1.385 . S
C4762 C4764 1.478 . S
C4763 H4757 0.930 . S
C4763 C4759 1.400 . S
C4763 C4762 1.385 . S
C4764 C4762 1.478 . S
C4764 C4766 1.381 . S
C4764 C4770 1.383 . S
C4765 C4761 1.495 . S
C4765 H4771 0.959 . S
C4765 H4772 0.961 . S
C4765 H4773 0.960 . S
C4766 C4764 1.381 . S
C4766 C4767 1.394 . S
C4766 H4774 0.930 . S
C4767 C4766 1.394 . S
C4767 C4768 1.383 . S
C4767 H4775 0.929 . S
C4768 C4767 1.383 . S
C4768 C4769 1.377 . S
C4769 H4753 0.930 . S
C4769 C4768 1.377 . S
C4769 C4770 1.379 . S
C4770 H4754 0.931 . S
C4770 C4764 1.383 . S
C4770 C4769 1.379 . S
H4771 C4765 0.959 . S
H4772 C4765 0.961 . S
H4773 C4765 0.960 . S
H4774 C4766 0.930 . S
H4775 C4767 0.929 . S
H4776 C4784 0.929 . S
H4777 C4786 0.930 . S
H4778 C4788 0.930 . S
H4779 C4791 0.929 . S
H4780 C4794 0.930 . S
H4781 C4796 0.987 . S
H4782 C4796 0.960 . S
H4783 C4796 0.960 . S
C4784 H4776 0.929 . S
C4784 C4785 1.377 . S
C4784 C4786 1.384 . S
C4785 C4784 1.377 . S
C4785 C4791 1.390 . S
C4786 H4777 0.930 . S
C4786 C4784 1.384 . S
C4786 C4787 1.372 . S
C4787 C4786 1.372 . S
C4787 C4788 1.400 . S
C4787 C4792 1.490 . S
C4788 H4778 0.930 . S
C4788 C4787 1.400 . S
C4788 C4791 1.386 . S
H4789 C4805 0.930 . S
H4790 C4806 0.931 . S
C4791 H4779 0.929 . S
C4791 C4785 1.390 . S
C4791 C4788 1.386 . S
C4792 C4787 1.490 . S
C4792 C4794 1.395 . S
C4792 C4795 1.403 . S
H4793 C4799 0.930 . S
C4794 H4780 0.930 . S
C4794 C4792 1.395 . S
C4794 C4797 1.403 . S
C4795 C4792 1.403 . S
C4795 C4796 1.524 . S
C4795 C4799 1.400 . S
C4796 H4781 0.987 . S
C4796 H4782 0.960 . S
C4796 H4783 0.960 . S
C4796 C4795 1.524 . S
C4797 C4794 1.403 . S
C4797 C4798 1.392 . S
C4797 C4801 1.495 . S
C4798 C4797 1.392 . S
C4798 C4799 1.385 . S
C4798 C4800 1.478 . S
C4799 H4793 0.930 . S
C4799 C4795 1.400 . S
C4799 C4798 1.385 . S
C4800 C4798 1.478 . S
C4800 C4802 1.381 . S
C4800 C4806 1.383 . S
C4801 C4797 1.495 . S
C4801 H4807 0.959 . S
C4801 H4808 0.961 . S
C4801 H4809 0.960 . S
C4802 C4800 1.381 . S
C4802 C4803 1.394 . S
C4802 H4810 0.930 . S
C4803 C4802 1.394 . S
C4803 C4804 1.383 1_655 S
C4803 H4811 0.929 . S
C4804 C4803 1.383 1_455 S
C4804 C4805 1.377 . S
C4805 H4789 0.930 . S
C4805 C4804 1.377 . S
C4805 C4806 1.379 1_455 S
C4806 H4790 0.931 . S
C4806 C4800 1.383 . S
C4806 C4805 1.379 1_655 S
H4807 C4801 0.959 . S
H4808 C4801 0.961 . S
H4809 C4801 0.960 . S
H4810 C4802 0.930 . S
H4811 C4803 0.929 . S
H4812 C4820 0.929 . S
H4813 C4822 0.930 . S
H4814 C4824 0.930 . S
H4815 C4827 0.929 . S
H4816 C4830 0.930 . S
H4817 C4832 0.960 . S
H4818 C4832 0.960 . S
H4819 C4832 0.960 . S
C4820 H4812 0.929 . S
C4820 C4821 1.377 . S
C4820 C4822 1.384 . S
C4821 C4820 1.377 . S
C4821 C4827 1.390 . S
C4822 H4813 0.930 . S
C4822 C4820 1.384 . S
C4822 C4823 1.372 . S
C4823 C4822 1.372 . S
C4823 C4824 1.400 . S
C4823 C4828 1.490 . S
C4824 H4814 0.930 . S
C4824 C4823 1.400 . S
C4824 C4827 1.386 . S
H4825 C4841 0.930 . S
H4826 C4842 0.931 . S
C4827 H4815 0.929 . S
C4827 C4821 1.390 . S
C4827 C4824 1.386 . S
C4828 C4823 1.490 . S
C4828 C4830 1.395 . S
C4828 C4831 1.403 . S
H4829 C4835 0.930 . S
C4830 H4816 0.930 . S
C4830 C4828 1.395 . S
C4830 C4833 1.403 . S
C4831 C4828 1.403 . S
C4831 C4832 1.524 . S
C4831 C4835 1.400 . S
C4832 H4817 0.960 . S
C4832 H4818 0.960 . S
C4832 H4819 0.960 . S
C4832 C4831 1.524 . S
C4833 C4830 1.403 . S
C4833 C4834 1.392 . S
C4833 C4837 1.495 . S
C4834 C4833 1.392 . S
C4834 C4835 1.385 . S
C4834 C4836 1.478 . S
C4835 H4829 0.930 . S
C4835 C4831 1.400 . S
C4835 C4834 1.385 . S
C4836 C4834 1.478 . S
C4836 C4838 1.381 . S
C4836 C4842 1.383 . S
C4837 C4833 1.495 . S
C4837 H4843 0.959 . S
C4837 H4844 0.961 . S
C4837 H4845 0.960 . S
C4838 C4836 1.381 . S
C4838 C4839 1.394 . S
C4838 H4846 0.930 . S
C4839 C4838 1.394 . S
C4839 C4840 1.383 . S
C4839 H4847 0.929 . S
C4840 C4839 1.383 . S
C4840 C4841 1.377 . S
C4841 H4825 0.930 . S
C4841 C4840 1.377 . S
C4841 C4842 1.379 . S
C4842 H4826 0.931 . S
C4842 C4836 1.383 . S
C4842 C4841 1.379 . S
H4843 C4837 0.959 . S
H4844 C4837 0.961 . S
H4845 C4837 0.960 . S
H4846 C4838 0.930 . S
H4847 C4839 0.929 . S
H4848 C4856 0.929 . S
H4849 C4858 0.930 . S
H4850 C4860 0.930 . S
H4851 C4863 0.929 . S
H4852 C4866 0.930 . S
H4853 C4868 0.960 . S
H4854 C4868 0.960 . S
H4855 C4868 0.960 . S
C4856 H4848 0.929 . S
C4856 C4857 1.377 . S
C4856 C4858 1.384 . S
C4857 C4856 1.377 . S
C4857 C4863 1.390 . S
C4858 H4849 0.930 . S
C4858 C4856 1.384 . S
C4858 C4859 1.372 . S
C4859 C4858 1.372 . S
C4859 C4860 1.400 . S
C4859 C4864 1.490 . S
C4860 H4850 0.930 . S
C4860 C4859 1.400 . S
C4860 C4863 1.386 . S
H4861 C4877 0.930 . S
H4862 C4878 0.931 . S
C4863 H4851 0.929 . S
C4863 C4857 1.390 . S
C4863 C4860 1.386 . S
C4864 C4859 1.490 . S
C4864 C4866 1.395 . S
C4864 C4867 1.403 . S
H4865 C4871 0.930 . S
C4866 H4852 0.930 . S
C4866 C4864 1.395 . S
C4866 C4869 1.403 . S
C4867 C4864 1.403 . S
C4867 C4868 1.524 . S
C4867 C4871 1.400 . S
C4868 H4853 0.960 . S
C4868 H4854 0.960 . S
C4868 H4855 0.960 . S
C4868 C4867 1.524 . S
C4869 C4866 1.403 . S
C4869 C4870 1.392 . S
C4869 C4873 1.495 . S
C4870 C4869 1.392 . S
C4870 C4871 1.385 . S
C4870 C4872 1.478 . S
C4871 H4865 0.930 . S
C4871 C4867 1.400 . S
C4871 C4870 1.385 . S
C4872 C4870 1.478 . S
C4872 C4874 1.381 . S
C4872 C4878 1.383 . S
C4873 C4869 1.495 . S
C4873 H4879 0.959 . S
C4873 H4880 0.961 . S
C4873 H4881 0.960 . S
C4874 C4872 1.381 . S
C4874 C4875 1.394 . S
C4874 H4882 0.930 . S
C4875 C4874 1.394 . S
C4875 C4876 1.383 . S
C4875 H4883 0.929 . S
C4876 C4875 1.383 . S
C4876 C4877 1.377 . S
C4877 H4861 0.930 . S
C4877 C4876 1.377 . S
C4877 C4878 1.379 . S
C4878 H4862 0.931 . S
C4878 C4872 1.383 . S
C4878 C4877 1.379 . S
H4879 C4873 0.959 . S
H4880 C4873 0.961 . S
H4881 C4873 0.960 . S
H4882 C4874 0.930 . S
H4883 C4875 0.929 . S
H4884 C4892 0.929 . S
H4885 C4894 0.930 . S
H4886 C4896 0.930 . S
H4887 C4899 0.929 . S
H4888 C4902 0.930 . S
H4889 C4904 0.960 . S
H4890 C4904 0.960 . S
H4891 C4904 0.960 . S
C4892 H4884 0.929 . S
C4892 C4893 1.377 . S
C4892 C4894 1.384 . S
C4893 C4892 1.377 . S
C4893 C4899 1.390 . S
C4894 H4885 0.930 . S
C4894 C4892 1.384 . S
C4894 C4895 1.372 . S
C4895 C4894 1.372 . S
C4895 C4896 1.400 . S
C4895 C4900 1.490 . S
C4896 H4886 0.930 . S
C4896 C4895 1.400 . S
C4896 C4899 1.386 . S
H4897 C4913 0.930 . S
H4898 C4914 0.931 . S
C4899 H4887 0.929 . S
C4899 C4893 1.390 . S
C4899 C4896 1.386 . S
C4900 C4895 1.490 . S
C4900 C4902 1.395 . S
C4900 C4903 1.403 . S
H4901 C4907 0.930 . S
C4902 H4888 0.930 . S
C4902 C4900 1.395 . S
C4902 C4905 1.403 . S
C4903 C4900 1.403 . S
C4903 C4904 1.524 . S
C4903 C4907 1.400 . S
C4904 H4889 0.960 . S
C4904 H4890 0.960 . S
C4904 H4891 0.960 . S
C4904 C4903 1.524 . S
C4905 C4902 1.403 . S
C4905 C4906 1.392 . S
C4905 C4909 1.495 . S
C4906 C4905 1.392 . S
C4906 C4907 1.385 . S
C4906 C4908 1.478 . S
C4907 H4901 0.930 . S
C4907 C4903 1.400 . S
C4907 C4906 1.385 . S
C4908 C4906 1.478 . S
C4908 C4910 1.381 . S
C4908 C4914 1.383 . S
C4909 C4905 1.495 . S
C4909 H4915 0.959 . S
C4909 H4916 0.961 . S
C4909 H4917 0.960 . S
C4910 C4908 1.381 . S
C4910 C4911 1.394 . S
C4910 H4918 0.930 . S
C4911 C4910 1.394 . S
C4911 C4912 1.383 1_565 S
C4911 H4919 0.929 1_655 S
C4912 C4911 1.383 1_545 S
C4912 C4913 1.377 . S
C4913 H4897 0.930 . S
C4913 C4912 1.377 . S
C4913 C4914 1.379 1_545 S
C4914 H4898 0.931 . S
C4914 C4908 1.383 . S
C4914 C4913 1.379 1_565 S
H4915 C4909 0.959 . S
H4916 C4909 0.961 . S
H4917 C4909 0.960 . S
H4918 C4910 0.930 . S
H4919 C4911 0.929 1_455 S
H4920 C4928 0.929 . S
H4921 C4930 0.930 . S
H4922 C4932 0.930 . S
H4923 C4935 0.929 . S
H4924 C4938 0.930 . S
H4925 C4940 0.960 . S
H4926 C4940 0.960 . S
H4927 C4940 0.960 . S
C4928 H4920 0.929 . S
C4928 C4929 1.377 . S
C4928 C4930 1.384 . S
C4929 C4928 1.377 . S
C4929 C4935 1.390 . S
C4930 H4921 0.930 . S
C4930 C4928 1.384 . S
C4930 C4931 1.372 . S
C4931 C4930 1.372 . S
C4931 C4932 1.400 . S
C4931 C4936 1.490 . S
C4932 H4922 0.930 . S
C4932 C4931 1.400 . S
C4932 C4935 1.386 . S
H4933 C4949 0.930 . S
H4934 C4950 0.931 . S
C4935 H4923 0.929 . S
C4935 C4929 1.390 . S
C4935 C4932 1.386 . S
C4936 C4931 1.490 . S
C4936 C4938 1.395 . S
C4936 C4939 1.403 . S
H4937 C4943 0.930 . S
C4938 H4924 0.930 . S
C4938 C4936 1.395 . S
C4938 C4941 1.403 . S
C4939 C4936 1.403 . S
C4939 C4940 1.524 . S
C4939 C4943 1.400 . S
C4940 H4925 0.960 . S
C4940 H4926 0.960 . S
C4940 H4927 0.960 . S
C4940 C4939 1.524 . S
C4941 C4938 1.403 . S
C4941 C4942 1.392 . S
C4941 C4945 1.495 . S
C4942 C4941 1.392 . S
C4942 C4943 1.385 . S
C4942 C4944 1.478 . S
C4943 H4937 0.930 . S
C4943 C4939 1.400 . S
C4943 C4942 1.385 . S
C4944 C4942 1.478 . S
C4944 C4946 1.381 . S
C4944 C4950 1.383 . S
C4945 C4941 1.495 . S
C4945 H4951 0.959 . S
C4945 H4952 0.961 . S
C4945 H4953 0.960 . S
C4946 C4944 1.381 . S
C4946 C4947 1.394 . S
C4946 H4954 0.930 . S
C4947 C4946 1.394 . S
C4947 C4948 1.383 . S
C4947 H4955 0.929 . S
C4948 C4947 1.383 . S
C4948 C4949 1.377 . S
C4949 H4933 0.930 . S
C4949 C4948 1.377 . S
C4949 C4950 1.379 . S
C4950 H4934 0.931 . S
C4950 C4944 1.383 . S
C4950 C4949 1.379 . S
H4951 C4945 0.959 . S
H4952 C4945 0.961 . S
H4953 C4945 0.960 . S
H4954 C4946 0.930 . S
H4955 C4947 0.929 . S
H4956 C4964 0.931 . S
H4957 C4966 0.929 1_556 S
H4958 C4968 0.930 . S
H4959 C4971 0.929 . S
H4960 C4974 0.930 . S
H4961 C4976 0.960 . S
H4962 C4976 0.960 1_556 S
H4963 C4976 0.960 . S
C4964 H4956 0.931 . S
C4964 C4965 1.377 . S
C4964 C4966 1.384 . S
C4965 C4964 1.377 . S
C4965 C4971 1.390 . S
C4966 H4957 0.929 1_554 S
C4966 C4964 1.384 . S
C4966 C4967 1.372 . S
C4967 C4966 1.372 . S
C4967 C4968 1.400 . S
C4967 C4972 1.490 . S
C4968 H4958 0.930 . S
C4968 C4967 1.400 . S
C4968 C4971 1.386 . S
H4969 C4985 0.930 . S
H4970 C4986 0.931 . S
C4971 H4959 0.929 . S
C4971 C4965 1.390 . S
C4971 C4968 1.386 . S
C4972 C4967 1.490 . S
C4972 C4974 1.395 . S
C4972 C4975 1.403 . S
H4973 C4979 0.930 . S
C4974 H4960 0.930 . S
C4974 C4972 1.395 . S
C4974 C4977 1.403 . S
C4975 C4972 1.403 . S
C4975 C4976 1.524 . S
C4975 C4979 1.400 . S
C4976 H4961 0.960 . S
C4976 H4962 0.960 1_554 S
C4976 H4963 0.960 . S
C4976 C4975 1.524 . S
C4977 C4974 1.403 . S
C4977 C4978 1.392 . S
C4977 C4981 1.495 . S
C4978 C4977 1.392 . S
C4978 C4979 1.385 . S
C4978 C4980 1.478 . S
C4979 H4973 0.930 . S
C4979 C4975 1.400 . S
C4979 C4978 1.385 . S
C4980 C4978 1.478 . S
C4980 C4982 1.381 . S
C4980 C4986 1.383 . S
C4981 C4977 1.495 . S
C4981 H4987 0.959 . S
C4981 H4988 0.961 . S
C4981 H4989 0.960 . S
C4982 C4980 1.381 . S
C4982 C4983 1.394 . S
C4982 H4990 0.930 1_554 S
C4983 C4982 1.394 . S
C4983 C4984 1.383 . S
C4983 H4991 0.929 1_554 S
C4984 C4983 1.383 . S
C4984 C4985 1.377 . S
C4985 H4969 0.930 . S
C4985 C4984 1.377 . S
C4985 C4986 1.379 . S
C4986 H4970 0.931 . S
C4986 C4980 1.383 . S
C4986 C4985 1.379 . S
H4987 C4981 0.959 . S
H4988 C4981 0.961 . S
H4989 C4981 0.960 . S
H4990 C4982 0.930 1_556 S
H4991 C4983 0.929 1_556 S
H4992 C5000 0.929 . S
H4993 C5002 0.930 . S
H4994 C5004 0.930 . S
H4995 C5007 0.929 . S
H4996 C5010 0.930 . S
H4997 C5012 0.960 . S
H4998 C5012 0.960 . S
H4999 C5012 0.960 . S
C5000 H4992 0.929 . S
C5000 C5001 1.377 . S
C5000 C5002 1.384 . S
C5001 C5000 1.377 . S
C5001 C5007 1.390 . S
C5002 H4993 0.930 . S
C5002 C5000 1.384 . S
C5002 C5003 1.372 . S
C5003 C5002 1.372 . S
C5003 C5004 1.400 . S
C5003 C5008 1.490 . S
C5004 H4994 0.930 . S
C5004 C5003 1.400 . S
C5004 C5007 1.386 . S
H5005 C5021 0.930 . S
H5006 C5022 0.931 . S
C5007 H4995 0.929 . S
C5007 C5001 1.390 . S
C5007 C5004 1.386 . S
C5008 C5003 1.490 . S
C5008 C5010 1.395 . S
C5008 C5011 1.403 . S
H5009 C5015 0.930 . S
C5010 H4996 0.930 . S
C5010 C5008 1.395 . S
C5010 C5013 1.403 . S
C5011 C5008 1.403 . S
C5011 C5012 1.524 . S
C5011 C5015 1.400 . S
C5012 H4997 0.960 . S
C5012 H4998 0.960 . S
C5012 H4999 0.960 . S
C5012 C5011 1.524 . S
C5013 C5010 1.403 . S
C5013 C5014 1.392 . S
C5013 C5017 1.495 . S
C5014 C5013 1.392 . S
C5014 C5015 1.385 . S
C5014 C5016 1.478 . S
C5015 H5009 0.930 . S
C5015 C5011 1.400 . S
C5015 C5014 1.385 . S
C5016 C5014 1.478 . S
C5016 C5018 1.381 . S
C5016 C5022 1.383 . S
C5017 C5013 1.495 . S
C5017 H5023 0.959 . S
C5017 H5024 0.961 . S
C5017 H5025 0.960 . S
C5018 C5016 1.381 . S
C5018 C5019 1.394 . S
C5018 H5026 0.930 . S
C5019 C5018 1.394 . S
C5019 C5020 1.383 . S
C5019 H5027 0.929 . S
C5020 C5019 1.383 . S
C5020 C5021 1.377 . S
C5021 H5005 0.930 . S
C5021 C5020 1.377 . S
C5021 C5022 1.379 . S
C5022 H5006 0.931 . S
C5022 C5016 1.383 . S
C5022 C5021 1.379 . S
H5023 C5017 0.959 . S
H5024 C5017 0.961 . S
H5025 C5017 0.960 . S
H5026 C5018 0.930 . S
H5027 C5019 0.929 . S
H5028 C5036 0.929 . S
H5029 C5038 0.930 . S
H5030 C5040 0.930 . S
H5031 C5043 0.929 . S
H5032 C5046 0.930 . S
H5033 C5048 0.960 . S
H5034 C5048 0.960 . S
H5035 C5048 0.960 . S
C5036 H5028 0.929 . S
C5036 C5037 1.377 . S
C5036 C5038 1.384 . S
C5037 C5036 1.377 . S
C5037 C5043 1.390 . S
C5038 H5029 0.930 . S
C5038 C5036 1.384 . S
C5038 C5039 1.372 . S
C5039 C5038 1.372 . S
C5039 C5040 1.400 . S
C5039 C5044 1.490 . S
C5040 H5030 0.930 . S
C5040 C5039 1.400 . S
C5040 C5043 1.386 . S
H5041 C5057 0.930 . S
H5042 C5058 0.931 . S
C5043 H5031 0.929 . S
C5043 C5037 1.390 . S
C5043 C5040 1.386 . S
C5044 C5039 1.490 . S
C5044 C5046 1.395 . S
C5044 C5047 1.403 . S
H5045 C5051 0.930 . S
C5046 H5032 0.930 . S
C5046 C5044 1.395 . S
C5046 C5049 1.403 . S
C5047 C5044 1.403 . S
C5047 C5048 1.524 . S
C5047 C5051 1.400 . S
C5048 H5033 0.960 . S
C5048 H5034 0.960 . S
C5048 H5035 0.960 . S
C5048 C5047 1.524 . S
C5049 C5046 1.403 . S
C5049 C5050 1.392 . S
C5049 C5053 1.495 1_554 S
C5050 C5049 1.392 . S
C5050 C5051 1.385 . S
C5050 C5052 1.478 . S
C5051 H5045 0.930 . S
C5051 C5047 1.400 . S
C5051 C5050 1.385 . S
C5052 C5050 1.478 . S
C5052 C5054 1.365 1_554 S
C5052 C5058 1.383 . S
C5053 C5049 1.495 1_556 S
C5053 H5059 0.959 . S
C5053 H5060 0.946 1_556 S
C5053 H5061 0.960 . S
C5054 C5052 1.365 1_556 S
C5054 C5055 1.398 . S
C5054 H5062 0.943 . S
C5055 C5054 1.398 . S
C5055 C5056 1.383 1_556 S
C5055 H5063 0.929 . S
C5056 C5055 1.383 1_554 S
C5056 C5057 1.377 . S
C5057 H5041 0.930 . S
C5057 C5056 1.377 . S
C5057 C5058 1.379 . S
C5058 H5042 0.931 . S
C5058 C5052 1.383 . S
C5058 C5057 1.379 . S
H5059 C5053 0.959 . S
H5060 C5053 0.946 1_554 S
H5061 C5053 0.960 . S
H5062 C5054 0.943 . S
H5063 C5055 0.929 . S
H5064 C5072 0.929 1_545 S
H5065 C5074 0.930 . S
H5066 C5076 0.930 . S
H5067 C5079 0.929 . S
H5068 C5082 0.930 . S
H5069 C5084 0.960 . S
H5070 C5084 0.960 . S
H5071 C5084 0.960 . S
C5072 H5064 0.929 1_565 S
C5072 C5073 1.377 . S
C5072 C5074 1.384 . S
C5073 C5072 1.377 . S
C5073 C5079 1.390 . S
C5074 H5065 0.930 . S
C5074 C5072 1.384 . S
C5074 C5075 1.372 . S
C5075 C5074 1.372 . S
C5075 C5076 1.400 . S
C5075 C5080 1.490 . S
C5076 H5066 0.930 . S
C5076 C5075 1.400 . S
C5076 C5079 1.386 . S
H5077 C5093 0.930 . S
H5078 C5094 0.931 . S
C5079 H5067 0.929 . S
C5079 C5073 1.390 . S
C5079 C5076 1.386 . S
C5080 C5075 1.490 . S
C5080 C5082 1.395 . S
C5080 C5083 1.403 . S
H5081 C5087 0.930 . S
C5082 H5068 0.930 . S
C5082 C5080 1.395 . S
C5082 C5085 1.403 . S
C5083 C5080 1.403 . S
C5083 C5084 1.524 . S
C5083 C5087 1.400 . S
C5084 H5069 0.960 . S
C5084 H5070 0.960 . S
C5084 H5071 0.960 . S
C5084 C5083 1.524 . S
C5085 C5082 1.403 . S
C5085 C5086 1.392 . S
C5085 C5089 1.495 . S
C5086 C5085 1.392 . S
C5086 C5087 1.385 . S
C5086 C5088 1.478 . S
C5087 H5081 0.930 . S
C5087 C5083 1.400 . S
C5087 C5086 1.385 . S
C5088 C5086 1.478 . S
C5088 C5090 1.381 . S
C5088 C5094 1.383 . S
C5089 C5085 1.495 . S
C5089 H5095 0.959 . S
C5089 H5096 0.961 . S
C5089 H5097 0.960 . S
C5090 C5088 1.381 . S
C5090 C5091 1.394 . S
C5090 H5098 0.930 . S
C5091 C5090 1.394 . S
C5091 C5092 1.383 . S
C5091 H5099 0.929 . S
C5092 C5091 1.383 . S
C5092 C5093 1.377 . S
C5093 H5077 0.930 . S
C5093 C5092 1.377 . S
C5093 C5094 1.379 . S
C5094 H5078 0.931 . S
C5094 C5088 1.383 . S
C5094 C5093 1.379 . S
H5095 C5089 0.959 . S
H5096 C5089 0.961 . S
H5097 C5089 0.960 . S
H5098 C5090 0.930 . S
H5099 C5091 0.929 . S
H5100 C5108 0.929 . S
H5101 C5110 0.930 . S
H5102 C5112 0.930 . S
H5103 C5115 0.929 . S
H5104 C5118 0.930 . S
H5105 C5120 0.960 . S
H5106 C5120 0.960 . S
H5107 C5120 0.960 . S
C5108 H5100 0.929 . S
C5108 C5109 1.377 . S
C5108 C5110 1.384 . S
C5109 C5108 1.377 . S
C5109 C5115 1.390 . S
C5110 H5101 0.930 . S
C5110 C5108 1.384 . S
C5110 C5111 1.372 . S
C5111 C5110 1.372 . S
C5111 C5112 1.400 . S
C5111 C5116 1.490 . S
C5112 H5102 0.930 . S
C5112 C5111 1.400 . S
C5112 C5115 1.386 . S
H5113 C5129 0.930 . S
H5114 C5130 0.931 . S
C5115 H5103 0.929 . S
C5115 C5109 1.390 . S
C5115 C5112 1.386 . S
C5116 C5111 1.490 . S
C5116 C5118 1.395 . S
C5116 C5119 1.403 . S
H5117 C5123 0.930 . S
C5118 H5104 0.930 . S
C5118 C5116 1.395 . S
C5118 C5121 1.403 . S
C5119 C5116 1.403 . S
C5119 C5120 1.524 . S
C5119 C5123 1.400 . S
C5120 H5105 0.960 . S
C5120 H5106 0.960 . S
C5120 H5107 0.960 . S
C5120 C5119 1.524 . S
C5121 C5118 1.403 . S
C5121 C5122 1.392 . S
C5121 C5125 1.495 . S
C5122 C5121 1.392 . S
C5122 C5123 1.385 . S
C5122 C5124 1.478 . S
C5123 H5117 0.930 . S
C5123 C5119 1.400 . S
C5123 C5122 1.385 . S
C5124 C5122 1.478 . S
C5124 C5126 1.381 . S
C5124 C5130 1.383 . S
C5125 C5121 1.495 . S
C5125 H5131 0.959 . S
C5125 H5132 0.961 . S
C5125 H5133 0.960 . S
C5126 C5124 1.381 . S
C5126 C5127 1.394 . S
C5126 H5134 0.930 . S
C5127 C5126 1.394 . S
C5127 C5128 1.383 . S
C5127 H5135 0.929 . S
C5128 C5127 1.383 . S
C5128 C5129 1.377 . S
C5129 H5113 0.930 . S
C5129 C5128 1.377 . S
C5129 C5130 1.379 . S
C5130 H5114 0.931 . S
C5130 C5124 1.383 . S
C5130 C5129 1.379 . S
H5131 C5125 0.959 . S
H5132 C5125 0.961 . S
H5133 C5125 0.960 . S
H5134 C5126 0.930 . S
H5135 C5127 0.929 . S
C1689 C109 1.573 . S
C1708 C403 1.421 . S
C1725 C65 2.216 . S
C1744 C486 2.141 . S
C1761 C75 1.452 . S
C1780 C571 1.399 . S
C1816 C651 1.629 . S
C1797 C84 1.727 . S
C1833 C25 1.573 . S
C1852 C735 1.544 . S
C1888 C828 0.845 . S
C1869 C28 0.909 . S
C1924 C906 0.700 . S
C1905 C47 0.697 . S
C1941 C9 1.287 . S
C1960 C991 1.124 . S
C1996 C402 2.027 . S
C1977 C233 2.110 . S
C2013 C249 0.550 . S
C2032 C483 0.530 . S
C2068 C570 1.224 . S
C2049 C275 1.265 . S
C2104 C655 1.507 . S
C2085 C173 1.532 1_556 S
C2121 C224 2.066 . S
C2140 C739 1.906 . S
C2176 C831 1.053 . S
C2157 C243 1.140 . S
C2212 C903 0.728 . S
C2193 C266 0.733 . S
C2248 C990 1.307 . S
C2229 C179 1.377 . S
C2284 C399 1.492 . S
C2265 C163 1.576 . S
C2301 C289 2.012 . S
C2320 C1074 1.925 . S
C2356 C1148 2.107 . S
C2337 C333 2.263 . S
C2392 C1243 0.443 . S
C2373 C308 0.292 . S
C2409 C123 0.708 . S
C2428 C987 0.656 . S
C2445 C126 1.463 . S
C2464 C567 1.425 . S
C2481 C327 2.375 . S
C2500 C1326 2.261 . S
C2536 C1411 0.719 . S
C2517 C299 0.757 . S
C2572 C392 1.444 1_565 S
C2553 C67 1.602 . S
C2608 C1419 2.164 . S
C2589 C98 2.195 . S
C2625 C89 1.495 . S
C2644 C560 1.434 . S
C2661 C79 1.799 . S
C2680 C1332 1.657 . S
C2716 C744 1.532 . S
C2697 C11 1.600 . S
C2733 C51 0.958 . S
C2752 C1155 0.960 . S
C2788 C915 0.729 1_566 S
C2769 C33 0.767 . S
C2824 C1484 1.157 . S
C2805 C14 1.288 . S
C2860 C411 1.981 . S
C2841 C140 2.102 . S
C2896 C1416 0.532 . S
C2877 C319 0.552 . S
C2913 C112 1.257 . S
C2932 C579 1.236 . S
C2949 C285 1.612 . S
C2968 C1316 1.511 . S
C2985 C149 2.136 . S
C3004 C728 1.995 . S
C3040 C1158 1.112 . S
C3021 C313 1.182 . S
C3057 C121 0.797 . S
C3076 C912 0.720 . S
C3093 C291 1.427 . S
C3112 C1503 1.316 . S
C3129 C182 1.578 . S
C3148 C408 1.495 . S
C3165 C168 2.013 . S
C3184 C1083 1.946 . S
C3201 C263 2.321 . S
C3220 C823 2.134 . S
C3237 C247 0.324 . S
C3256 C1232 0.574 . S
C3292 C1500 0.711 . S
C3273 C277 0.674 1_565 S
C3309 C219 1.517 . S
C3328 C576 1.449 . S
C3364 C663 2.333 . S
C3345 C257 2.422 . S
C3400 C476 0.789 . S
C3381 C201 0.769 . S
C3417 C81 1.572 . S
C3436 C1579 1.433 . S
C3472 C1410 2.151 . S
C3453 C93 2.216 . S
C3489 C103 1.456 . S
C3508 C1663 1.328 . S
C3525 C56 1.730 . S
C3544 C1323 1.578 . S
C3561 C53 1.576 . S
C3580 C1071 1.534 . S
C3616 C1164 0.917 . S
C3597 C0 0.913 . S
C3652 C1242 0.642 . S
C3633 C19 0.690 . S
C3688 C1495 1.110 . S
C3669 C37 1.286 . S
C3724 C1578 1.996 . S
C3705 C261 2.112 . S
C3741 C193 0.550 . S
C3760 C1407 0.522 . S
C3796 C1662 1.230 . S
C3777 C205 1.266 . S
C3832 C1327 1.505 . S
C3813 C215 1.581 . S
C3868 C1075 1.920 . S
C3849 C252 2.070 . S
C3885 C187 1.137 . S
C3904 C1167 1.019 . S
C3940 C1239 0.693 . S
C3921 C196 0.729 . S
C3957 C221 1.375 . S
C3976 C1494 1.270 . S
C4012 C1575 1.490 . S
C3993 C317 1.577 . S
C4029 C135 2.013 . S
C4048 C738 1.924 . S
C4084 C812 2.111 . S
C4065 C151 2.270 . S
C4120 C907 0.522 . S
C4101 C154 0.270 . S
C4156 C1491 0.738 . S
C4137 C305 0.696 . S
C4173 C280 1.459 . S
C4192 C1659 1.396 . S
C4228 C654 2.293 . S
C4209 C145 2.367 . S
C4264 C487 0.693 . S
C4245 C117 0.757 . S
C4281 C95 1.602 . S
C4300 C1568 1.461 . S
C4336 C495 2.181 . S
C4317 C70 2.190 . S
C4353 C61 1.491 . S
C4372 C1652 1.408 . S
C4389 C107 1.798 . S
C4408 C660 1.624 . S
C4425 C39 1.597 . S
C4444 C1080 1.552 . S
C4480 C819 0.863 . S
C4461 C23 0.958 . S
C4497 C5 0.754 . S
C4516 C1251 0.752 . S
C4533 C42 1.291 . S
C4552 C980 1.217 . S
C4588 C1587 2.009 . S
C4569 C322 2.100 . S
C4605 C165 0.552 . S
C4624 C492 0.623 . S
C4660 C1671 1.257 . S
C4641 C294 1.253 . S
C4677 C131 1.611 . S
C4696 C644 1.505 . S
C4713 C331 2.136 . S
C4732 C1064 1.993 . S
C4768 C822 1.061 . S
C4749 C159 1.181 . S
C4785 C303 0.801 . S
C4804 C1248 0.830 . S
C4840 C999 1.336 . S
C4821 C137 1.426 . S
C4876 C1584 1.450 . S
C4857 C238 1.576 . S
C4912 C747 1.942 1_655 S
C4893 C210 2.013 . S
C4929 C235 2.322 . S
C4948 C1159 2.178 . S
C4984 C896 0.594 . S
C4965 C191 0.327 . S
C5001 C207 0.674 . S
C5020 C996 0.711 . S
C5037 C177 1.516 . S
C5056 C1668 1.423 . S
C5092 C1335 2.331 . S
C5073 C229 2.422 1_565 S
C5128 C1400 0.811 . S
C5109 C271 0.769 . S
