# Generated by pormake.
# Topology cml, (3,6)-cn, num edge types: 1
# Building blocks:
#     Node 0, Type 0, BuildingBlock: WUSLED_clean_sbu_0, # of connection points: 3
#     Node 1, Type 0, BuildingBlock: WUSLED_clean_sbu_0, # of connection points: 3
#     Node 2, Type 0, BuildingBlock: WUSLED_clean_sbu_0, # of connection points: 3
#     Node 3, Type 0, BuildingBlock: WUSLED_clean_sbu_0, # of connection points: 3
#     Node 4, Type 0, BuildingBlock: WUSLED_clean_sbu_0, # of connection points: 3
#     Node 5, Type 0, BuildingBlock: WUSLED_clean_sbu_0, # of connection points: 3
#     Node 6, Type 0, BuildingBlock: WUSLED_clean_sbu_0, # of connection points: 3
#     Node 7, Type 0, BuildingBlock: WUSLED_clean_sbu_0, # of connection points: 3
#     Node 8, Type 1, BuildingBlock: OJICUG_clean_sbu_0, # of connection points: 6
#     Node 9, Type 1, BuildingBlock: OJICUG_clean_sbu_0, # of connection points: 6
#     Node 10, Type 1, BuildingBlock: OJICUG_clean_sbu_0, # of connection points: 6
#     Node 11, Type 1, BuildingBlock: OJICUG_clean_sbu_0, # of connection points: 6
#     Edge 12, Type (0, 1), BuildingBlock: ZUJKAS_clean_linker_0, # of connection points: 2
#     Edge 13, Type (0, 1), BuildingBlock: ZUJKAS_clean_linker_0, # of connection points: 2
#     Edge 14, Type (0, 1), BuildingBlock: ZUJKAS_clean_linker_0, # of connection points: 2
#     Edge 15, Type (0, 1), BuildingBlock: ZUJKAS_clean_linker_0, # of connection points: 2
#     Edge 16, Type (0, 1), BuildingBlock: ZUJKAS_clean_linker_0, # of connection points: 2
#     Edge 17, Type (0, 1), BuildingBlock: ZUJKAS_clean_linker_0, # of connection points: 2
#     Edge 18, Type (0, 1), BuildingBlock: ZUJKAS_clean_linker_0, # of connection points: 2
#     Edge 19, Type (0, 1), BuildingBlock: ZUJKAS_clean_linker_0, # of connection points: 2
#     Edge 20, Type (0, 1), BuildingBlock: ZUJKAS_clean_linker_0, # of connection points: 2
#     Edge 21, Type (0, 1), BuildingBlock: ZUJKAS_clean_linker_0, # of connection points: 2
#     Edge 22, Type (0, 1), BuildingBlock: ZUJKAS_clean_linker_0, # of connection points: 2
#     Edge 23, Type (0, 1), BuildingBlock: ZUJKAS_clean_linker_0, # of connection points: 2
#     Edge 24, Type (0, 1), BuildingBlock: ZUJKAS_clean_linker_0, # of connection points: 2
#     Edge 25, Type (0, 1), BuildingBlock: ZUJKAS_clean_linker_0, # of connection points: 2
#     Edge 26, Type (0, 1), BuildingBlock: ZUJKAS_clean_linker_0, # of connection points: 2
#     Edge 27, Type (0, 1), BuildingBlock: ZUJKAS_clean_linker_0, # of connection points: 2
#     Edge 28, Type (0, 1), BuildingBlock: ZUJKAS_clean_linker_0, # of connection points: 2
#     Edge 29, Type (0, 1), BuildingBlock: ZUJKAS_clean_linker_0, # of connection points: 2
#     Edge 30, Type (0, 1), BuildingBlock: ZUJKAS_clean_linker_0, # of connection points: 2
#     Edge 31, Type (0, 1), BuildingBlock: ZUJKAS_clean_linker_0, # of connection points: 2
#     Edge 32, Type (0, 1), BuildingBlock: ZUJKAS_clean_linker_0, # of connection points: 2
#     Edge 33, Type (0, 1), BuildingBlock: ZUJKAS_clean_linker_0, # of connection points: 2
#     Edge 34, Type (0, 1), BuildingBlock: ZUJKAS_clean_linker_0, # of connection points: 2
#     Edge 35, Type (0, 1), BuildingBlock: ZUJKAS_clean_linker_0, # of connection points: 2
# Relax obj value: 0.069
# Max RMSD: 0.081
# Mean RMSD: 0.077
data_MOF--net-cml--node1-WUSLED_clean_sbu_0--node2-OJICUG_clean_sbu_0--edge1-ZUJKAS_clean_linker_0
_symmetry_space_group_name_H-M    P1
_symmetry_Int_Tables_number       1
_symmetry_cell_setting            triclinic
loop_
_symmetry_equiv_pos_as_xyz
'x, y, z'
_cell_length_a     61.595484
_cell_length_b     62.374581
_cell_length_c     58.690126
_cell_angle_alpha  90.341525
_cell_angle_beta   90.035718
_cell_angle_gamma 89.959253
loop_
_atom_site_label
_atom_site_type_symbol
_atom_site_fract_x
_atom_site_fract_y
_atom_site_fract_z
_atom_type_partial_charge
C0 C 0.29927 0.42628 0.95695 0.0
C1 C 0.31567 0.43471 0.97096 0.0
C2 C 0.32461 0.46116 0.94209 0.0
C3 C 0.32821 0.45199 0.96361 0.0
C4 C 0.30808 0.45264 0.92813 0.0
C5 C 0.29551 0.43534 0.93553 0.0
U6 U 0.2878 0.38484 1.00181 0.0
O7 O 0.25707 0.37247 0.01563 0.0
O8 O 0.2802 0.35048 0.99925 0.0
C9 C 0.26073 0.35292 0.00806 0.0
C10 C 0.28628 0.40795 0.96465 0.0
C11 C 0.24285 0.34306 0.99511 0.0
C12 C 0.22268 0.33789 0.95988 0.0
C13 C 0.23959 0.34772 0.97199 0.0
C14 C 0.21198 0.31889 0.99397 0.0
C15 C 0.20868 0.32333 0.97073 0.0
C16 C 0.22892 0.32866 0.00601 0.0
C17 C 0.32487 0.38736 0.05488 0.0
C18 C 0.32655 0.36095 0.08512 0.0
C19 C 0.34751 0.39372 0.08806 0.0
C20 C 0.33937 0.40034 0.06706 0.0
C21 C 0.34127 0.37392 0.09736 0.0
C22 C 0.31837 0.36765 0.06403 0.0
C23 C 0.31728 0.39464 0.03249 0.0
O24 O 0.29692 0.38973 0.96598 0.0
O25 O 0.274 0.41175 0.98253 0.0
O26 O 0.2979 0.40344 0.032 0.0
O27 O 0.32092 0.38154 0.01529 0.0
H28 H 0.31884 0.42782 0.98754 0.0
H29 H 0.34099 0.45793 0.97465 0.0
H30 H 0.30473 0.45947 0.91158 0.0
H31 H 0.28288 0.42903 0.92453 0.0
H32 H 0.22044 0.34183 0.94209 0.0
H33 H 0.25015 0.35891 0.96333 0.0
H34 H 0.20171 0.30756 0.00277 0.0
H35 H 0.23123 0.32487 0.02384 0.0
H36 H 0.32128 0.3457 0.09189 0.0
H37 H 0.35909 0.40393 0.09678 0.0
H38 H 0.34463 0.41557 0.06017 0.0
H39 H 0.30712 0.35744 0.05482 0.0
C40 C 0.70628 0.65584 0.56176 0.0
C41 C 0.68533 0.64702 0.56241 0.0
C42 C 0.68031 0.66045 0.60107 0.0
C43 C 0.67243 0.6494 0.58183 0.0
C44 C 0.7014 0.66908 0.60045 0.0
C45 C 0.71426 0.66684 0.5809 0.0
U46 U 0.71941 0.62435 0.50858 0.0
O47 O 0.72745 0.6343 0.47376 0.0
O48 O 0.75058 0.61476 0.49316 0.0
C49 C 0.74701 0.62587 0.47456 0.0
C50 C 0.71997 0.65302 0.54141 0.0
C51 C 0.76483 0.63994 0.46728 0.0
C52 C 0.78306 0.67449 0.46734 0.0
C53 C 0.76639 0.66117 0.47515 0.0
C54 C 0.79701 0.64534 0.44414 0.0
C55 C 0.7985 0.66678 0.4516 0.0
C56 C 0.78031 0.63209 0.45189 0.0
C57 C 0.68318 0.57505 0.49732 0.0
C58 C 0.67977 0.55552 0.46153 0.0
C59 C 0.66337 0.54148 0.49586 0.0
C60 C 0.67118 0.55905 0.50819 0.0
C61 C 0.66741 0.53956 0.47234 0.0
C62 C 0.68766 0.57312 0.47395 0.0
C63 C 0.69017 0.59383 0.51065 0.0
O64 O 0.73233 0.63584 0.54147 0.0
O65 O 0.71008 0.65607 0.52183 0.0
O66 O 0.68649 0.61262 0.50139 0.0
O67 O 0.70935 0.5924 0.52034 0.0
H68 H 0.67898 0.63819 0.54792 0.0
H69 H 0.6564 0.64228 0.58191 0.0
H70 H 0.70786 0.67777 0.61498 0.0
H71 H 0.73044 0.67364 0.58075 0.0
H72 H 0.78358 0.69095 0.47329 0.0
H73 H 0.75459 0.66751 0.4871 0.0
H74 H 0.80882 0.63872 0.43238 0.0
H75 H 0.77942 0.61569 0.44574 0.0
H76 H 0.68333 0.55441 0.44349 0.0
H77 H 0.65363 0.52968 0.50466 0.0
H78 H 0.66753 0.56033 0.52621 0.0
H79 H 0.69701 0.58532 0.46529 0.0
C80 C 0.70978 0.42652 0.95639 0.0
C81 C 0.69314 0.43496 0.97007 0.0
C82 C 0.68469 0.46143 0.94103 0.0
C83 C 0.68071 0.45225 0.96247 0.0
C84 C 0.70156 0.45299 0.92748 0.0
C85 C 0.714 0.43567 0.93512 0.0
U86 U 0.71998 0.38477 1.00124 0.0
O87 O 0.72627 0.3501 0.99846 0.0
O88 O 0.75008 0.37116 0.01515 0.0
C89 C 0.74575 0.35178 0.00745 0.0
C90 C 0.72232 0.40789 0.96414 0.0
C91 C 0.76329 0.34114 0.99467 0.0
C92 C 0.79137 0.34135 0.96556 0.0
C93 C 0.77453 0.35174 0.97726 0.0
C94 C 0.78562 0.30958 0.98833 0.0
C95 C 0.7972 0.32015 0.97103 0.0
C96 C 0.76888 0.32 1.00003 0.0
C97 C 0.68285 0.38826 0.05422 0.0
C98 C 0.67432 0.36024 0.08143 0.0
C99 C 0.66419 0.39706 0.08946 0.0
C100 C 0.67339 0.40341 0.06885 0.0
C101 C 0.66419 0.37536 0.09584 0.0
C102 C 0.68358 0.36665 0.06075 0.0
C103 C 0.69082 0.39541 0.03189 0.0
O104 O 0.73463 0.41133 0.98211 0.0
O105 O 0.71121 0.38996 0.96537 0.0
O106 O 0.68671 0.38269 0.01448 0.0
O107 O 0.71047 0.40356 0.03154 0.0
H108 H 0.68961 0.428 0.98653 0.0
H109 H 0.66767 0.45812 0.97319 0.0
H110 H 0.70521 0.45983 0.911 0.0
H111 H 0.72681 0.42934 0.92437 0.0
H112 H 0.80004 0.35004 0.95251 0.0
H113 H 0.77037 0.36807 0.97282 0.0
H114 H 0.78935 0.29315 0.99271 0.0
H115 H 0.76026 0.31153 0.01331 0.0
H116 H 0.67449 0.3434 0.08578 0.0
H117 H 0.65693 0.40917 0.10034 0.0
H118 H 0.67279 0.42018 0.06414 0.0
H119 H 0.69088 0.3547 0.04968 0.0
C120 C 0.29816 0.6535 0.56413 0.0
C121 C 0.31425 0.63822 0.56883 0.0
C122 C 0.32335 0.65679 0.60419 0.0
C123 C 0.32672 0.63984 0.58865 0.0
C124 C 0.30715 0.67207 0.59939 0.0
C125 C 0.29465 0.67041 0.5795 0.0
U126 U 0.28726 0.62428 0.50916 0.0
O127 O 0.2571 0.61545 0.49146 0.0
O128 O 0.28101 0.63594 0.4744 0.0
C129 C 0.26148 0.62748 0.47371 0.0
C130 C 0.28542 0.65185 0.54301 0.0
C131 C 0.24397 0.64187 0.46611 0.0
C132 C 0.2135 0.66559 0.47401 0.0
C133 C 0.2304 0.65248 0.48174 0.0
C134 C 0.22388 0.65803 0.43498 0.0
C135 C 0.20995 0.66845 0.45051 0.0
C136 C 0.24067 0.64485 0.44272 0.0
C137 C 0.3237 0.57495 0.49826 0.0
C138 C 0.3245 0.5539 0.4633 0.0
C139 C 0.34705 0.54374 0.49532 0.0
C140 C 0.33895 0.56104 0.50788 0.0
C141 C 0.34002 0.53998 0.47284 0.0
C142 C 0.31637 0.57126 0.47594 0.0
C143 C 0.31613 0.59337 0.51176 0.0
O144 O 0.29651 0.65531 0.52427 0.0
O145 O 0.27276 0.63494 0.54157 0.0
O146 O 0.29644 0.59185 0.52021 0.0
O147 O 0.32039 0.61236 0.50328 0.0
H148 H 0.31726 0.62511 0.55705 0.0
H149 H 0.33927 0.62801 0.59159 0.0
H150 H 0.304 0.68519 0.61109 0.0
H151 H 0.28228 0.68234 0.57612 0.0
H152 H 0.20299 0.67317 0.48646 0.0
H153 H 0.23273 0.65046 0.4999 0.0
H154 H 0.22193 0.66016 0.4168 0.0
H155 H 0.25108 0.63692 0.4304 0.0
H156 H 0.31861 0.55135 0.44611 0.0
H157 H 0.35925 0.53361 0.50308 0.0
H158 H 0.34482 0.56373 0.52507 0.0
H159 H 0.30453 0.58187 0.46829 0.0
C160 C 0.80024 0.92638 0.95728 0.0
C161 C 0.82028 0.93065 0.96774 0.0
C162 C 0.82592 0.96113 0.94272 0.0
C163 C 0.83304 0.9478 0.96047 0.0
C164 C 0.8057 0.95692 0.93244 0.0
C165 C 0.79299 0.93964 0.93965 0.0
U166 U 0.78767 0.88539 1.0023 0.0
O167 O 0.75658 0.87373 0.01602 0.0
O168 O 0.77945 0.85118 1.00007 0.0
C169 C 0.75995 0.85406 0.00869 0.0
C170 C 0.78676 0.90841 0.96507 0.0
C171 C 0.74191 0.84413 0.99599 0.0
C172 C 0.72431 0.83397 0.96041 0.0
C173 C 0.74123 0.84427 0.97207 0.0
C174 C 0.7083 0.8238 0.99644 0.0
C175 C 0.70771 0.82344 0.97246 0.0
C176 C 0.72524 0.834 0.00805 0.0
C177 C 0.82443 0.88735 0.05559 0.0
C178 C 0.82672 0.86027 0.08512 0.0
C179 C 0.84551 0.89414 0.0898 0.0
C180 C 0.83768 0.90084 0.06869 0.0
C181 C 0.84022 0.87375 0.09827 0.0
C182 C 0.81883 0.86705 0.06394 0.0
C183 C 0.81719 0.89473 0.0331 0.0
O184 O 0.79684 0.88987 0.96645 0.0
O185 O 0.77457 0.91261 0.98291 0.0
O186 O 0.79801 0.90394 0.03243 0.0
O187 O 0.82067 0.88153 0.01594 0.0
H188 H 0.82603 0.92071 0.98158 0.0
H189 H 0.84838 0.9508 0.96895 0.0
H190 H 0.79986 0.9668 0.91862 0.0
H191 H 0.77751 0.93663 0.93146 0.0
H192 H 0.7245 0.83387 0.94196 0.0
H193 H 0.75391 0.85209 0.96242 0.0
H194 H 0.6956 0.81626 0.0063 0.0
H195 H 0.72541 0.83386 0.02651 0.0
H196 H 0.8222 0.84455 0.09125 0.0
H197 H 0.85614 0.90478 0.09925 0.0
H198 H 0.84222 0.91653 0.06244 0.0
H199 H 0.80853 0.85644 0.05404 0.0
C200 C 0.20652 0.15543 0.5614 0.0
C201 C 0.1862 0.14534 0.56261 0.0
C202 C 0.18096 0.15912 0.60111 0.0
C203 C 0.1735 0.14725 0.58222 0.0
C204 C 0.20145 0.16902 0.59993 0.0
C205 C 0.21411 0.16723 0.58018 0.0
U206 U 0.21882 0.12518 0.50732 0.0
O207 O 0.22584 0.13612 0.47249 0.0
O208 O 0.24943 0.11607 0.49066 0.0
C209 C 0.24539 0.12768 0.4725 0.0
C210 C 0.21987 0.15325 0.54073 0.0
C211 C 0.26299 0.14191 0.46487 0.0
C212 C 0.29333 0.16579 0.47269 0.0
C213 C 0.27644 0.15272 0.48047 0.0
C214 C 0.28321 0.15772 0.43368 0.0
C215 C 0.29699 0.16839 0.44917 0.0
C216 C 0.26643 0.1446 0.44148 0.0
C217 C 0.18274 0.07572 0.49623 0.0
C218 C 0.18022 0.05574 0.46065 0.0
C219 C 0.16214 0.04263 0.49447 0.0
C220 C 0.16989 0.0602 0.50683 0.0
C221 C 0.1671 0.04021 0.4712 0.0
C222 C 0.18804 0.07335 0.4731 0.0
C223 C 0.18989 0.09438 0.50963 0.0
O224 O 0.23243 0.13621 0.54008 0.0
O225 O 0.2095 0.15656 0.52148 0.0
O226 O 0.18583 0.11325 0.50074 0.0
O227 O 0.20932 0.09297 0.51874 0.0
H228 H 0.18017 0.13592 0.54839 0.0
H229 H 0.15795 0.13916 0.58274 0.0
H230 H 0.20758 0.17835 0.61416 0.0
H231 H 0.22981 0.17503 0.57957 0.0
H232 H 0.30372 0.17357 0.48511 0.0
H233 H 0.274 0.15094 0.49864 0.0
H234 H 0.28524 0.15965 0.41548 0.0
H235 H 0.25612 0.1365 0.42918 0.0
H236 H 0.18447 0.05425 0.44281 0.0
H237 H 0.15179 0.0312 0.50305 0.0
H238 H 0.1656 0.06183 0.52467 0.0
H239 H 0.19804 0.08519 0.46467 0.0
C240 C 0.20893 0.9263 0.95747 0.0
C241 C 0.18871 0.93058 0.96753 0.0
C242 C 0.18349 0.96108 0.94244 0.0
C243 C 0.17607 0.94774 0.96002 0.0
C244 C 0.20396 0.95697 0.93268 0.0
C245 C 0.21655 0.93965 0.94011 0.0
U246 U 0.21978 0.88468 1.00216 0.0
O247 O 0.22664 0.85012 0.99952 0.0
O248 O 0.25002 0.87157 0.01634 0.0
C249 C 0.24601 0.8521 0.00869 0.0
C250 C 0.222 0.908 0.96522 0.0
C251 C 0.26379 0.84158 0.99618 0.0
C252 C 0.29204 0.84179 0.96726 0.0
C253 C 0.27509 0.85217 0.9788 0.0
C254 C 0.28628 0.81009 0.99012 0.0
C255 C 0.29791 0.82063 0.97284 0.0
C256 C 0.26944 0.82049 1.00167 0.0
C257 C 0.18191 0.8875 0.05462 0.0
C258 C 0.17427 0.85947 0.0821 0.0
C259 C 0.16221 0.89586 0.08933 0.0
C260 C 0.17145 0.90237 0.06881 0.0
C261 C 0.16317 0.87428 0.09607 0.0
C262 C 0.18357 0.86603 0.0615 0.0
C263 C 0.19004 0.89476 0.03242 0.0
O264 O 0.23402 0.9117 0.98334 0.0
O265 O 0.2115 0.88968 0.96616 0.0
O266 O 0.1864 0.88196 0.01496 0.0
O267 O 0.20957 0.90324 0.03236 0.0
H268 H 0.18266 0.92057 0.98115 0.0
H269 H 0.16054 0.95068 0.96811 0.0
H270 H 0.21004 0.9669 0.91902 0.0
H271 H 0.23216 0.93662 0.93223 0.0
H272 H 0.30074 0.85046 0.9542 0.0
H273 H 0.27088 0.86846 0.97426 0.0
H274 H 0.29003 0.79368 0.99458 0.0
H275 H 0.26077 0.81202 0.01492 0.0
H276 H 0.17521 0.84272 0.08674 0.0
H277 H 0.15419 0.90776 0.09989 0.0
H278 H 0.17013 0.91902 0.06383 0.0
H279 H 0.19166 0.85431 0.05077 0.0
C280 C 0.79823 0.1539 0.56375 0.0
C281 C 0.8149 0.13912 0.568 0.0
C282 C 0.82363 0.15737 0.60365 0.0
C283 C 0.82748 0.14084 0.58773 0.0
C284 C 0.8069 0.17219 0.59926 0.0
C285 C 0.79429 0.17045 0.57946 0.0
U286 U 0.7865 0.12394 0.50944 0.0
O287 O 0.75588 0.11468 0.49273 0.0
O288 O 0.77937 0.13485 0.47467 0.0
C289 C 0.75987 0.12628 0.47458 0.0
C290 C 0.78513 0.15195 0.5429 0.0
C291 C 0.74215 0.14049 0.4673 0.0
C292 C 0.72102 0.17321 0.47143 0.0
C293 C 0.73786 0.15983 0.47878 0.0
C294 C 0.71254 0.14795 0.44119 0.0
C295 C 0.70815 0.16742 0.45252 0.0
C296 C 0.72939 0.13463 0.44852 0.0
C297 C 0.82313 0.07473 0.49856 0.0
C298 C 0.82382 0.05339 0.46379 0.0
C299 C 0.84659 0.04357 0.49577 0.0
C300 C 0.83849 0.06095 0.50822 0.0
C301 C 0.83945 0.03961 0.47336 0.0
C302 C 0.8157 0.07083 0.47632 0.0
C303 C 0.81566 0.09329 0.5119 0.0
O304 O 0.79582 0.15524 0.52387 0.0
O305 O 0.77256 0.13495 0.54198 0.0
O306 O 0.79616 0.09174 0.5208 0.0
O307 O 0.81959 0.11217 0.503 0.0
H308 H 0.81822 0.12628 0.55598 0.0
H309 H 0.84044 0.12936 0.59035 0.0
H310 H 0.80338 0.18498 0.61126 0.0
H311 H 0.78145 0.18197 0.57644 0.0
H312 H 0.71792 0.18796 0.48069 0.0
H313 H 0.74753 0.16455 0.4934 0.0
H314 H 0.70316 0.14313 0.42641 0.0
H315 H 0.73252 0.11977 0.43944 0.0
H316 H 0.81785 0.05068 0.44665 0.0
H317 H 0.85886 0.03356 0.50355 0.0
H318 H 0.84446 0.06381 0.52534 0.0
H319 H 0.80378 0.08134 0.46864 0.0
Sc320 Sc 1.0031 0.81094 0.32529 0.0
Sc321 Sc 1.00277 0.86755 0.32543 0.0
Sc322 Sc 1.0031 0.83965 0.37739 0.0
O323 O 1.00299 0.83937 0.34269 0.0
C324 C 0.97064 0.80088 0.36644 0.0
C325 C 0.97053 0.83901 0.29517 0.0
C326 C 0.97044 0.87816 0.36657 0.0
C327 C 0.03525 0.83925 0.2951 0.0
C328 C 0.03587 0.80116 0.36637 0.0
C329 C 0.03524 0.87848 0.36634 0.0
O330 O 0.97787 0.79746 0.34643 0.0
O331 O 0.97765 0.85691 0.30247 0.0
O332 O 0.97779 0.86359 0.37956 0.0
O333 O 0.02819 0.82125 0.30203 0.0
O334 O 0.02849 0.81591 0.37927 0.0
O335 O 0.02784 0.88158 0.34639 0.0
O336 O 0.02826 0.79743 0.34657 0.0
O337 O 0.02766 0.85705 0.30216 0.0
O338 O 0.02798 0.86393 0.37936 0.0
O339 O 0.9781 0.82111 0.30181 0.0
O340 O 0.97824 0.81543 0.37945 0.0
O341 O 0.97783 0.88135 0.34666 0.0
Sc342 Sc 1.00389 0.19234 0.82468 0.0
Sc343 Sc 1.00419 0.13575 0.82259 0.0
Sc344 Sc 1.00431 0.1624 0.87563 0.0
O345 O 1.00413 0.16351 0.84096 0.0
C346 C 0.03671 0.20138 0.86602 0.0
C347 C 0.03652 0.16496 0.79358 0.0
C348 C 0.03664 0.12396 0.86317 0.0
C349 C 0.97168 0.16475 0.79339 0.0
C350 C 0.97149 0.20123 0.8663 0.0
C351 C 0.97178 0.1241 0.86319 0.0
O352 O 0.02908 0.20551 0.84636 0.0
O353 O 0.02933 0.14689 0.80007 0.0
O354 O 0.02944 0.13824 0.87677 0.0
O355 O 0.97883 0.18255 0.80099 0.0
O356 O 0.97926 0.18639 0.87866 0.0
O357 O 0.97913 0.12144 0.84312 0.0
O358 O 0.97862 0.2052 0.84641 0.0
O359 O 0.97921 0.14677 0.79976 0.0
O360 O 0.97916 0.13829 0.87681 0.0
O361 O 0.02895 0.18271 0.80092 0.0
O362 O 0.02944 0.18631 0.87835 0.0
O363 O 0.02913 0.12131 0.84317 0.0
Sc364 Sc 0.50381 0.31117 0.32481 0.0
Sc365 Sc 0.50329 0.36779 0.32494 0.0
Sc366 Sc 0.50327 0.33991 0.37689 0.0
O367 O 0.50346 0.33961 0.3422 0.0
C368 C 0.47102 0.3011 0.36575 0.0
C369 C 0.47114 0.33911 0.29468 0.0
C370 C 0.4708 0.37854 0.36587 0.0
C371 C 0.53589 0.33963 0.29465 0.0
C372 C 0.53625 0.30145 0.3661 0.0
C373 C 0.53564 0.37859 0.36604 0.0
O374 O 0.47876 0.2974 0.34601 0.0
O375 O 0.47832 0.35703 0.30187 0.0
O376 O 0.47815 0.36404 0.37894 0.0
O377 O 0.52876 0.32161 0.30144 0.0
O378 O 0.5284 0.31592 0.37905 0.0
O379 O 0.52823 0.38181 0.34612 0.0
O380 O 0.52914 0.29793 0.34606 0.0
O381 O 0.52836 0.3574 0.30184 0.0
O382 O 0.52835 0.36398 0.37899 0.0
O383 O 0.47866 0.32121 0.30141 0.0
O384 O 0.47815 0.31596 0.37866 0.0
O385 O 0.4782 0.38161 0.34594 0.0
Sc386 Sc 0.5034 0.69242 0.82545 0.0
Sc387 Sc 0.50377 0.63588 0.82269 0.0
Sc388 Sc 0.50419 0.66194 0.87605 0.0
O389 O 0.50379 0.66343 0.84139 0.0
C390 C 0.5365 0.70105 0.86666 0.0
C391 C 0.53575 0.66546 0.79366 0.0
C392 C 0.53653 0.6237 0.86285 0.0
C393 C 0.47094 0.66508 0.79416 0.0
C394 C 0.47131 0.70088 0.86739 0.0
C395 C 0.47166 0.62373 0.86345 0.0
O396 O 0.52868 0.70543 0.84714 0.0
O397 O 0.52859 0.64731 0.79994 0.0
O398 O 0.52924 0.63769 0.87674 0.0
O399 O 0.4782 0.68282 0.80182 0.0
O400 O 0.47918 0.68596 0.87957 0.0
O401 O 0.47894 0.62128 0.84332 0.0
O402 O 0.47827 0.70501 0.84748 0.0
O403 O 0.47851 0.64705 0.80032 0.0
O404 O 0.47906 0.63782 0.87716 0.0
O405 O 0.52832 0.6831 0.80139 0.0
O406 O 0.52938 0.68578 0.87882 0.0
O407 O 0.52903 0.62138 0.8428 0.0
H408 H 0.167 0.3159 0.98485 0.0
H409 H 0.13842 0.29625 0.96468 0.0
H410 H 0.18114 0.28711 0.90727 0.0
H411 H 0.21004 0.30629 0.92756 0.0
H412 H 0.11865 0.3041 0.92186 0.0
H413 H 0.16176 0.22579 0.92369 0.0
H414 H 0.16979 0.24826 0.94128 0.0
H415 H 0.17681 0.2476 0.91158 0.0
C416 C 0.17038 0.30961 0.96799 0.0
C417 C 0.19089 0.3125 0.95791 0.0
C418 C 0.15397 0.29852 0.95642 0.0
C419 C 0.15776 0.28998 0.93461 0.0
C420 C 0.17799 0.2933 0.92423 0.0
H421 H 0.05675 0.23582 0.84587 0.0
H422 H 0.08627 0.25777 0.86132 0.0
C423 C 0.19441 0.30444 0.93577 0.0
C424 C 0.1406 0.27727 0.92302 0.0
H425 H 0.12835 0.22685 0.90399 0.0
C426 C 0.12077 0.28723 0.91784 0.0
C427 C 0.14336 0.25521 0.91804 0.0
C428 C 0.16399 0.24346 0.92407 0.0
C429 C 0.10359 0.27571 0.90785 0.0
C430 C 0.10643 0.25369 0.90268 0.0
C431 C 0.12628 0.24376 0.90781 0.0
C432 C 0.08866 0.24039 0.89302 0.0
C433 C 0.08233 0.28702 0.90352 0.0
C434 C 0.08053 0.22304 0.90548 0.0
C435 C 0.06374 0.2104 0.89669 0.0
C436 C 0.05476 0.21476 0.87513 0.0
C437 C 0.06315 0.23204 0.86255 0.0
C438 C 0.07997 0.24469 0.8714 0.0
H439 H 0.08124 0.30248 0.91295 0.0
H440 H 0.08083 0.29044 0.88506 0.0
H441 H 0.06841 0.27677 0.90853 0.0
H442 H 0.08706 0.21939 0.92216 0.0
H443 H 0.0578 0.19723 0.90687 0.0
H444 H 0.82224 0.69692 0.4751 0.0
H445 H 0.85069 0.7204 0.46031 0.0
H446 H 0.84343 0.69176 0.3937 0.0
H447 H 0.81441 0.66888 0.40805 0.0
H448 H 0.88984 0.70942 0.44087 0.0
H449 H 0.83985 0.75524 0.3794 0.0
H450 H 0.82803 0.73867 0.40123 0.0
H451 H 0.83829 0.72673 0.37542 0.0
C452 C 0.82645 0.69584 0.45722 0.0
C453 C 0.81594 0.68104 0.44276 0.0
C454 C 0.84283 0.70917 0.44883 0.0
C455 C 0.84896 0.70807 0.42582 0.0
C456 C 0.83867 0.6932 0.41141 0.0
H457 H 0.94826 0.76924 0.34367 0.0
H458 H 0.91903 0.74666 0.35835 0.0
C459 C 0.82227 0.67992 0.41974 0.0
C460 C 0.86657 0.72202 0.41705 0.0
H461 H 0.87812 0.75987 0.37698 0.0
C462 C 0.88725 0.72055 0.427 0.0
C463 C 0.86317 0.73651 0.39891 0.0
C464 C 0.84109 0.73958 0.38824 0.0
C465 C 0.90471 0.73287 0.41903 0.0
C466 C 0.90133 0.74725 0.40082 0.0
C467 C 0.88066 0.74876 0.39088 0.0
C468 C 0.919 0.76102 0.39198 0.0
C469 C 0.92676 0.73009 0.42984 0.0
C470 C 0.92846 0.77677 0.40594 0.0
C471 C 0.94514 0.78974 0.39763 0.0
C472 C 0.95269 0.78725 0.37512 0.0
C473 C 0.94296 0.77157 0.3611 0.0
C474 C 0.92622 0.75865 0.36944 0.0
H475 H 0.92786 0.71496 0.43967 0.0
H476 H 0.93975 0.73011 0.41672 0.0
H477 H 0.92982 0.74364 0.44174 0.0
H478 H 0.92285 0.77912 0.42327 0.0
H479 H 0.95212 0.80168 0.40891 0.0
H480 H 0.8076 0.32172 0.92549 0.0
H481 H 0.83688 0.30256 0.90572 0.0
H482 H 0.8568 0.27414 0.96914 0.0
H483 H 0.828 0.29351 0.98914 0.0
H484 H 0.88374 0.30304 0.91543 0.0
H485 H 0.84635 0.22256 0.92472 0.0
H486 H 0.83105 0.24711 0.92795 0.0
H487 H 0.84827 0.23797 0.95062 0.0
C488 C 0.81835 0.31158 0.9353 0.0
C489 C 0.81529 0.30903 0.95891 0.0
C490 C 0.83499 0.30057 0.92394 0.0
C491 C 0.84876 0.28671 0.93593 0.0
C492 C 0.84607 0.28446 0.95951 0.0
H493 H 0.95479 0.20067 0.9095 0.0
H494 H 0.92515 0.22224 0.92492 0.0
C495 C 0.82953 0.29549 0.97089 0.0
C496 C 0.86598 0.27449 0.92391 0.0
H497 H 0.88274 0.22356 0.91157 0.0
C498 C 0.88349 0.28567 0.91437 0.0
C499 C 0.86554 0.25186 0.92259 0.0
C500 C 0.84673 0.23911 0.93183 0.0
C501 C 0.90102 0.27474 0.90427 0.0
C502 C 0.90075 0.25204 0.90328 0.0
C503 C 0.88297 0.24094 0.9124 0.0
C504 C 0.91904 0.23939 0.89363 0.0
C505 C 0.92003 0.28754 0.89554 0.0
C506 C 0.92541 0.24171 0.87081 0.0
C507 C 0.9425 0.22944 0.8619 0.0
C508 C 0.95341 0.21442 0.8756 0.0
C509 C 0.94681 0.21204 0.89841 0.0
C510 C 0.92983 0.22437 0.90729 0.0
H511 H 0.9202 0.30408 0.90269 0.0
H512 H 0.93564 0.27961 0.89981 0.0
H513 H 0.91889 0.28875 0.87673 0.0
H514 H 0.917 0.25284 0.85979 0.0
H515 H 0.947 0.23161 0.84423 0.0
H516 H 0.19519 0.70665 0.46823 0.0
H517 H 0.16511 0.72872 0.4545 0.0
H518 H 0.15409 0.68384 0.39954 0.0
H519 H 0.1834 0.6612 0.41371 0.0
H520 H 0.16026 0.74872 0.41355 0.0
H521 H 0.09368 0.69013 0.42563 0.0
H522 H 0.12027 0.68652 0.43796 0.0
H523 H 0.1155 0.67989 0.40849 0.0
C524 C 0.18615 0.70127 0.45344 0.0
C525 C 0.19171 0.68205 0.44216 0.0
C526 C 0.16905 0.714 0.44551 0.0
C527 C 0.15711 0.70778 0.4262 0.0
C528 C 0.16275 0.68876 0.41476 0.0
H529 H 0.05377 0.76536 0.34638 0.0
H530 H 0.08349 0.74318 0.36081 0.0
C531 C 0.17976 0.67597 0.42272 0.0
C532 C 0.13917 0.72149 0.41762 0.0
H533 H 0.08517 0.7213 0.40416 0.0
C534 C 0.14382 0.74277 0.41164 0.0
C535 C 0.1177 0.7137 0.41512 0.0
C536 C 0.11139 0.69138 0.42234 0.0
C537 C 0.12768 0.75633 0.40283 0.0
C538 C 0.10631 0.74847 0.40014 0.0
C539 C 0.10162 0.72723 0.40615 0.0
C540 C 0.08849 0.76212 0.39135 0.0
C541 C 0.13371 0.77885 0.39605 0.0
C542 C 0.08134 0.78 0.40385 0.0
C543 C 0.06432 0.79268 0.39573 0.0
C544 C 0.05406 0.78773 0.37489 0.0
C545 C 0.06129 0.76973 0.36243 0.0
C546 C 0.07826 0.757 0.37066 0.0
H547 H 0.15156 0.78084 0.39433 0.0
H548 H 0.12588 0.78322 0.37967 0.0
H549 H 0.12792 0.79024 0.40932 0.0
H550 H 0.0888 0.78403 0.42004 0.0
H551 H 0.0592 0.80637 0.40583 0.0
H552 H 0.6863 0.8353 0.93332 0.0
H553 H 0.65706 0.81603 0.91362 0.0
H554 H 0.65976 0.7662 0.96409 0.0
H555 H 0.68921 0.78499 0.9836 0.0
H556 H 0.65707 0.77237 0.89593 0.0
H557 H 0.59513 0.78537 0.96326 0.0
H558 H 0.61963 0.80116 0.96146 0.0
H559 H 0.62045 0.77467 0.97332 0.0
C560 C 0.68081 0.82015 0.94014 0.0
C561 C 0.69003 0.81181 0.96019 0.0
C562 C 0.66403 0.80923 0.92891 0.0
C563 C 0.65604 0.78987 0.93761 0.0
C564 C 0.6654 0.78134 0.95736 0.0
H565 H 0.55932 0.69518 0.90619 0.0
H566 H 0.58836 0.71741 0.92179 0.0
C567 C 0.6822 0.79217 0.96854 0.0
C568 C 0.63804 0.77838 0.92603 0.0
H569 H 0.58645 0.76004 0.93428 0.0
C570 C 0.64154 0.76982 0.90416 0.0
C571 C 0.61782 0.77512 0.93685 0.0
C572 C 0.61287 0.78471 0.95994 0.0
C573 C 0.6256 0.75735 0.89318 0.0
C574 C 0.60551 0.75374 0.90422 0.0
C575 C 0.60188 0.76274 0.92587 0.0
C576 C 0.58825 0.74008 0.89405 0.0
C577 C 0.6307 0.74751 0.87025 0.0
C578 C 0.57843 0.74547 0.87325 0.0
C579 C 0.5618 0.73271 0.86418 0.0
C580 C 0.55452 0.71441 0.87585 0.0
C581 C 0.56443 0.70913 0.8967 0.0
C582 C 0.58106 0.72184 0.90569 0.0
H583 H 0.64842 0.74748 0.86671 0.0
H584 H 0.62463 0.73078 0.86919 0.0
H585 H 0.62258 0.75695 0.85674 0.0
H586 H 0.5834 0.75972 0.86419 0.0
H587 H 0.55448 0.73736 0.84817 0.0
H588 H 0.31139 0.20686 0.46655 0.0
H589 H 0.34105 0.22921 0.45235 0.0
H590 H 0.35309 0.18351 0.39846 0.0
H591 H 0.32387 0.16079 0.41277 0.0
H592 H 0.38633 0.21693 0.44536 0.0
H593 H 0.34519 0.24214 0.36554 0.0
H594 H 0.33057 0.23121 0.38949 0.0
H595 H 0.34557 0.21377 0.3708 0.0
C596 C 0.32046 0.20143 0.4518 0.0
C597 C 0.31511 0.18204 0.44074 0.0
C598 C 0.33732 0.2143 0.44365 0.0
C599 C 0.34903 0.20815 0.42418 0.0
C600 C 0.34396 0.18874 0.41325 0.0
H601 H 0.45364 0.26504 0.34579 0.0
H602 H 0.42448 0.24234 0.36037 0.0
C603 C 0.32719 0.17581 0.42144 0.0
C604 C 0.36678 0.22187 0.41546 0.0
H605 H 0.38199 0.25217 0.36992 0.0
C606 C 0.38539 0.22473 0.42892 0.0
C607 C 0.3655 0.23188 0.39395 0.0
C608 C 0.34559 0.2298 0.37911 0.0
C609 C 0.40297 0.23708 0.42126 0.0
C610 C 0.40164 0.24726 0.3998 0.0
C611 C 0.383 0.24436 0.38635 0.0
C612 C 0.41935 0.26109 0.39103 0.0
C613 C 0.423 0.23865 0.43599 0.0
C614 C 0.42593 0.27937 0.40324 0.0
C615 C 0.44266 0.29234 0.39502 0.0
C616 C 0.45303 0.28743 0.37426 0.0
C617 C 0.44609 0.2693 0.36185 0.0
C618 C 0.42941 0.25629 0.37015 0.0
H619 H 0.42392 0.22528 0.44838 0.0
H620 H 0.43799 0.23854 0.42548 0.0
H621 H 0.42252 0.2539 0.44581 0.0
H622 H 0.41804 0.28371 0.41909 0.0
H623 H 0.44738 0.30626 0.40496 0.0
H624 H 0.30838 0.82203 0.92731 0.0
H625 H 0.3376 0.8027 0.90765 0.0
H626 H 0.35744 0.77452 0.97123 0.0
H627 H 0.32869 0.79407 0.99111 0.0
H628 H 0.3845 0.80302 0.9174 0.0
H629 H 0.34668 0.72277 0.92705 0.0
H630 H 0.3315 0.74741 0.93013 0.0
H631 H 0.34868 0.73831 0.95285 0.0
C632 C 0.3191 0.81192 0.93718 0.0
C633 C 0.31603 0.80948 0.9608 0.0
C634 C 0.33571 0.80081 0.92588 0.0
C635 C 0.34943 0.78695 0.93794 0.0
C636 C 0.34674 0.78483 0.96154 0.0
H637 H 0.45491 0.70013 0.91075 0.0
H638 H 0.42551 0.72181 0.92655 0.0
C639 C 0.33023 0.79597 0.97286 0.0
C640 C 0.36659 0.7746 0.92598 0.0
H641 H 0.38298 0.72354 0.91368 0.0
C642 C 0.38414 0.78565 0.91638 0.0
C643 C 0.36601 0.75197 0.92473 0.0
C644 C 0.34714 0.73935 0.93405 0.0
C645 C 0.40157 0.77459 0.90624 0.0
C646 C 0.40114 0.7519 0.90526 0.0
C647 C 0.38334 0.74092 0.91449 0.0
C648 C 0.41925 0.73913 0.8954 0.0
C649 C 0.42062 0.78727 0.89742 0.0
C650 C 0.42542 0.74151 0.87253 0.0
C651 C 0.44237 0.72919 0.86341 0.0
C652 C 0.45333 0.71406 0.87694 0.0
C653 C 0.44689 0.71159 0.89979 0.0
C654 C 0.43005 0.72398 0.90888 0.0
H655 H 0.42099 0.80377 0.90465 0.0
H656 H 0.4362 0.7792 0.90152 0.0
H657 H 0.41936 0.78859 0.87863 0.0
H658 H 0.41699 0.75273 0.86164 0.0
H659 H 0.44674 0.73141 0.84572 0.0
H660 H 0.70846 0.2112 0.44861 0.0
H661 H 0.67924 0.23441 0.43483 0.0
H662 H 0.63863 0.17904 0.42375 0.0
H663 H 0.6675 0.15579 0.43806 0.0
H664 H 0.65902 0.23369 0.39198 0.0
H665 H 0.59967 0.21926 0.46131 0.0
H666 H 0.62801 0.21222 0.46375 0.0
H667 H 0.60976 0.19527 0.44794 0.0
C668 C 0.6932 0.20399 0.44355 0.0
C669 C 0.69031 0.18163 0.44451 0.0
C670 C 0.67658 0.21726 0.43553 0.0
C671 C 0.65668 0.20848 0.42851 0.0
C672 C 0.65373 0.1862 0.42941 0.0
H673 H 0.55729 0.26816 0.34455 0.0
H674 H 0.58675 0.24599 0.35947 0.0
C675 C 0.67034 0.17291 0.43737 0.0
C676 C 0.63919 0.22257 0.41969 0.0
H677 H 0.58674 0.23813 0.42896 0.0
C678 C 0.64324 0.23473 0.40009 0.0
C679 C 0.6187 0.22407 0.43045 0.0
C680 C 0.61376 0.21218 0.45215 0.0
C681 C 0.6272 0.24809 0.39074 0.0
C682 C 0.60648 0.24908 0.40109 0.0
C683 C 0.60257 0.23719 0.42092 0.0
C684 C 0.58873 0.26261 0.39187 0.0
C685 C 0.63269 0.26129 0.37006 0.0
C686 C 0.57973 0.27903 0.4053 0.0
C687 C 0.56281 0.29167 0.3969 0.0
C688 C 0.55439 0.28808 0.37488 0.0
C689 C 0.5634 0.2715 0.36151 0.0
C690 C 0.58034 0.25886 0.36996 0.0
H691 H 0.65052 0.26292 0.36777 0.0
H692 H 0.62602 0.2533 0.35464 0.0
H693 H 0.62544 0.27755 0.37133 0.0
H694 H 0.5859 0.28215 0.42229 0.0
H695 H 0.55632 0.30424 0.40773 0.0
H696 H 0.3417 0.46745 0.89955 0.0
H697 H 0.36506 0.49682 0.88697 0.0
H698 H 0.36182 0.52529 0.954 0.0
H699 H 0.33835 0.49608 0.96671 0.0
H700 H 0.35742 0.54147 0.88686 0.0
H701 H 0.42733 0.5202 0.94222 0.0
H702 H 0.40507 0.50203 0.93691 0.0
H703 H 0.40199 0.52374 0.95692 0.0
C704 C 0.34578 0.48006 0.91157 0.0
C705 C 0.33825 0.47934 0.93418 0.0
C706 C 0.35921 0.49677 0.90438 0.0
C707 C 0.36544 0.51304 0.91965 0.0
C708 C 0.3576 0.51264 0.94208 0.0
H709 H 0.45271 0.62223 0.90576 0.0
H710 H 0.42565 0.59665 0.91935 0.0
C711 C 0.34419 0.49593 0.9493 0.0
C712 C 0.38016 0.53039 0.91205 0.0
H713 H 0.43026 0.55226 0.92118 0.0
C714 C 0.37335 0.54384 0.89434 0.0
C715 C 0.40091 0.53347 0.9219 0.0
C716 C 0.40941 0.51901 0.94041 0.0
C717 C 0.38669 0.5604 0.88629 0.0
C718 C 0.40754 0.56332 0.89595 0.0
C719 C 0.41424 0.55002 0.91384 0.0
C720 C 0.42299 0.57958 0.88728 0.0
C721 C 0.37825 0.57481 0.86771 0.0
C722 C 0.4305 0.57845 0.86475 0.0
C723 C 0.44595 0.59304 0.85689 0.0
C724 C 0.45435 0.60901 0.87147 0.0
C725 C 0.44661 0.6102 0.89402 0.0
C726 C 0.43115 0.59557 0.90185 0.0
H727 H 0.36023 0.57445 0.86675 0.0
H728 H 0.38357 0.59163 0.87044 0.0
H729 H 0.3847 0.56922 0.85105 0.0
H730 H 0.42476 0.56596 0.85334 0.0
H731 H 0.45156 0.59153 0.83947 0.0
H732 H 0.64811 0.54064 0.43026 0.0
H733 H 0.62919 0.51138 0.41056 0.0
H734 H 0.6459 0.46834 0.46503 0.0
H735 H 0.66507 0.49737 0.48472 0.0
H736 H 0.64354 0.4682 0.39666 0.0
H737 H 0.5782 0.46816 0.46203 0.0
H738 H 0.59701 0.49014 0.45896 0.0
H739 H 0.60543 0.4659 0.47277 0.0
C740 C 0.64812 0.52485 0.43785 0.0
C741 C 0.6579 0.52139 0.45919 0.0
C742 C 0.63724 0.50819 0.42661 0.0
C743 C 0.63589 0.48783 0.43654 0.0
C744 C 0.64646 0.48406 0.4573 0.0
H745 H 0.55868 0.37494 0.40582 0.0
H746 H 0.58485 0.40031 0.42178 0.0
C747 C 0.65734 0.50068 0.46854 0.0
C748 C 0.6225 0.47085 0.4258 0.0
H749 H 0.57637 0.44151 0.43347 0.0
C750 C 0.62885 0.46232 0.40465 0.0
C751 C 0.60337 0.46326 0.43632 0.0
C752 C 0.59542 0.4724 0.45868 0.0
C753 C 0.61668 0.44612 0.39386 0.0
C754 C 0.59743 0.43864 0.40433 0.0
C755 C 0.59117 0.44718 0.42552 0.0
C756 C 0.58315 0.42235 0.3935 0.0
C757 C 0.62475 0.43691 0.3716 0.0
C758 C 0.57356 0.42624 0.37222 0.0
C759 C 0.55865 0.4117 0.36297 0.0
C760 C 0.55279 0.3931 0.37496 0.0
C761 C 0.56273 0.3891 0.39612 0.0
C762 C 0.57772 0.40359 0.40528 0.0
H763 H 0.64246 0.43956 0.36943 0.0
H764 H 0.62142 0.41945 0.37041 0.0
H765 H 0.61629 0.44497 0.35731 0.0
H766 H 0.57708 0.44085 0.36306 0.0
H767 H 0.55124 0.4154 0.34671 0.0
H768 H 0.66957 0.49615 0.96515 0.0
H769 H 0.64535 0.52456 0.9518 0.0
H770 H 0.64499 0.4962 0.88463 0.0
H771 H 0.66862 0.46736 0.89797 0.0
H772 H 0.65082 0.55446 0.91654 0.0
H773 H 0.58032 0.50113 0.90023 0.0
H774 H 0.60353 0.4928 0.91676 0.0
H775 H 0.60485 0.49287 0.88616 0.0
C776 C 0.6642 0.49585 0.94758 0.0
C777 C 0.67092 0.47937 0.93268 0.0
C778 C 0.65048 0.51218 0.93995 0.0
C779 C 0.64311 0.5123 0.91733 0.0
C780 C 0.6502 0.4962 0.90227 0.0
H781 H 0.55644 0.59176 0.83833 0.0
H782 H 0.58325 0.5659 0.85173 0.0
C783 C 0.66391 0.47986 0.90986 0.0
C784 C 0.62794 0.5292 0.90951 0.0
H785 H 0.57729 0.53696 0.88735 0.0
C786 C 0.63471 0.55068 0.91024 0.0
C787 C 0.6069 0.5242 0.90138 0.0
C788 C 0.59833 0.50153 0.90124 0.0
C789 C 0.62117 0.56728 0.90252 0.0
C790 C 0.60022 0.56223 0.8942 0.0
C791 C 0.59341 0.54076 0.89363 0.0
C792 C 0.585 0.57891 0.88592 0.0
C793 C 0.62956 0.58999 0.90286 0.0
C794 C 0.57712 0.59486 0.90071 0.0
C795 C 0.56175 0.60974 0.89311 0.0
C796 C 0.55387 0.60885 0.8706 0.0
C797 C 0.56209 0.59298 0.85577 0.0
C798 C 0.57742 0.57814 0.86339 0.0
H799 H 0.64754 0.59053 0.90436 0.0
H800 H 0.62464 0.59865 0.88721 0.0
H801 H 0.6226 0.59862 0.91775 0.0
H802 H 0.58244 0.5955 0.91829 0.0
H803 H 0.55576 0.62166 0.90505 0.0
H804 H 0.34934 0.49927 0.48718 0.0
H805 H 0.36857 0.4711 0.46625 0.0
H806 H 0.37078 0.51136 0.40682 0.0
H807 H 0.35228 0.53997 0.42791 0.0
H808 H 0.35955 0.44888 0.42602 0.0
H809 H 0.43467 0.49753 0.41801 0.0
H810 H 0.41268 0.50506 0.43671 0.0
H811 H 0.41074 0.50996 0.40662 0.0
C812 C 0.35398 0.50219 0.46968 0.0
C813 C 0.34954 0.52202 0.45934 0.0
C814 C 0.36482 0.486 0.45769 0.0
C815 C 0.37147 0.48929 0.43513 0.0
C816 C 0.36616 0.50865 0.42437 0.0
H817 H 0.45293 0.41327 0.34444 0.0
H818 H 0.42703 0.43912 0.36002 0.0
C819 C 0.35537 0.5249 0.43638 0.0
C820 C 0.38465 0.47274 0.42325 0.0
H821 H 0.43453 0.46376 0.3997 0.0
C822 C 0.37593 0.45212 0.42022 0.0
C823 C 0.40606 0.477 0.4158 0.0
C824 C 0.41672 0.49851 0.4196 0.0
C825 C 0.38802 0.43567 0.40977 0.0
C826 C 0.40944 0.43993 0.40244 0.0
C827 C 0.41806 0.46059 0.40525 0.0
C828 C 0.42354 0.4231 0.39238 0.0
C829 C 0.37774 0.41393 0.40647 0.0
C830 C 0.4301 0.40543 0.4054 0.0
C831 C 0.44498 0.3906 0.39659 0.0
C832 C 0.45367 0.39321 0.37459 0.0
C833 C 0.44662 0.4107 0.36143 0.0
C834 C 0.4318 0.42553 0.37029 0.0
H835 H 0.35975 0.41475 0.40764 0.0
H836 H 0.38226 0.40692 0.38969 0.0
H837 H 0.38363 0.40297 0.41996 0.0
H838 H 0.42421 0.40347 0.42265 0.0
H839 H 0.45002 0.37738 0.40723 0.0
H840 H 0.86965 0.96112 0.93496 0.0
H841 H 0.89232 0.991 0.92257 0.0
H842 H 0.836 0.03208 0.92058 0.0
H843 H 0.81314 1.00212 0.93279 0.0
H844 H 0.86097 0.03679 0.88308 0.0
H845 H 0.91266 0.04164 0.96009 0.0
H846 H 0.91274 0.01533 0.9476 0.0
H847 H 0.88795 0.02614 0.95917 0.0
C848 C 0.86212 0.97657 0.9321 0.0
C849 C 0.83962 0.9793 0.93499 0.0
C850 C 0.87511 0.99366 0.92508 0.0
C851 C 0.86594 0.01391 0.92111 0.0
C852 C 0.84344 0.01662 0.92368 0.0
H853 H 0.94827 0.12682 0.90286 0.0
H854 H 0.92085 0.10175 0.91675 0.0
C855 C 0.8304 0.99948 0.93057 0.0
C856 C 0.87978 0.03203 0.91359 0.0
H857 H 0.92554 0.06021 0.9272 0.0
C858 C 0.87497 0.04205 0.89283 0.0
C859 C 0.89782 0.03919 0.92651 0.0
C860 C 0.90298 0.03017 0.94969 0.0
C861 C 0.88816 0.05849 0.88424 0.0
C862 C 0.90695 0.06474 0.8965 0.0
C863 C 0.9113 0.05526 0.91765 0.0
C864 C 0.92266 0.08061 0.88744 0.0
C865 C 0.88172 0.06909 0.8622 0.0
C866 C 0.93286 0.07705 0.86637 0.0
C867 C 0.94842 0.09142 0.8583 0.0
C868 C 0.95439 0.10952 0.87129 0.0
C869 C 0.94411 0.11306 0.89239 0.0
C870 C 0.92842 0.09874 0.90038 0.0
H871 H 0.86399 0.06761 0.85903 0.0
H872 H 0.88611 0.08635 0.86223 0.0
H873 H 0.89029 0.0611 0.84786 0.0
H874 H 0.92913 0.06289 0.85635 0.0
H875 H 0.9561 0.08803 0.84208 0.0
H876 H 0.16331 0.99839 0.48449 0.0
H877 H 0.14442 0.96931 0.46463 0.0
H878 H 0.13096 0.01144 0.40838 0.0
H879 H 0.14959 0.04073 0.42825 0.0
H880 H 0.10013 0.97185 0.45187 0.0
H881 H 0.15316 0.95595 0.37711 0.0
H882 H 0.16262 0.96995 0.40226 0.0
H883 H 0.14606 0.98359 0.38173 0.0
C884 C 0.15644 1.00145 0.46783 0.0
C885 C 0.15784 0.02194 0.45802 0.0
C886 C 0.14577 0.98478 0.45646 0.0
C887 C 0.13646 0.98817 0.43497 0.0
C888 C 0.1384 0.00837 0.42477 0.0
H889 H 0.05012 0.91572 0.34727 0.0
H890 H 0.0756 0.94149 0.3638 0.0
C891 C 0.14906 0.0251 0.43615 0.0
C892 C 0.12307 0.97116 0.42424 0.0
H893 H 0.11868 0.93891 0.37723 0.0
C894 C 0.10425 0.96451 0.43563 0.0
C895 C 0.12843 0.96181 0.40298 0.0
C896 C 0.14875 0.96801 0.39032 0.0
C897 C 0.09038 0.94902 0.42616 0.0
C898 C 0.09578 0.9395 0.40495 0.0
C899 C 0.11464 0.94614 0.39354 0.0
C900 C 0.08173 0.92299 0.3942 0.0
C901 C 0.06974 0.94348 0.43866 0.0
C902 C 0.07722 0.90373 0.40549 0.0
C903 C 0.06252 0.88902 0.39619 0.0
C904 C 0.05225 0.89316 0.37525 0.0
C905 C 0.05764 0.91202 0.36346 0.0
C906 C 0.07223 0.92679 0.37287 0.0
H907 H 0.0652 0.95611 0.45123 0.0
H908 H 0.05601 0.94123 0.42661 0.0
H909 H 0.07214 0.9283 0.44809 0.0
H910 H 0.08479 0.90024 0.42171 0.0
H911 H 0.059 0.87455 0.40561 0.0
H912 H 0.14007 0.96029 0.93319 0.0
H913 H 0.1172 0.98974 0.91996 0.0
H914 H 0.17268 0.0319 0.92024 0.0
H915 H 0.19575 1.00236 0.93321 0.0
H916 H 0.10799 0.0278 0.93999 0.0
H917 H 0.14861 0.0413 0.85691 0.0
H918 H 0.15387 0.01796 0.87407 0.0
H919 H 0.16646 0.04317 0.88103 0.0
C920 C 0.1474 0.97585 0.93046 0.0
C921 C 0.16973 0.979 0.93418 0.0
C922 C 0.13433 0.99265 0.92285 0.0
C923 C 0.14326 0.01297 0.9188 0.0
C924 C 0.16552 0.01624 0.92272 0.0
H925 H 0.0604 0.12641 0.90274 0.0
H926 H 0.0874 0.10084 0.91663 0.0
C927 C 0.17867 0.99937 0.93017 0.0
C928 C 0.12907 0.0307 0.91092 0.0
H929 H 0.12114 0.06602 0.86744 0.0
C930 C 0.11088 0.03619 0.92414 0.0
C931 C 0.13274 0.04148 0.89012 0.0
C932 C 0.15135 0.03559 0.87458 0.0
C933 C 0.09617 0.05203 0.91709 0.0
C934 C 0.10005 0.06308 0.89649 0.0
C935 C 0.11832 0.05769 0.88333 0.0
C936 C 0.08469 0.0794 0.88764 0.0
C937 C 0.07623 0.05623 0.93138 0.0
C938 C 0.07483 0.07631 0.86631 0.0
C939 C 0.05962 0.09102 0.85818 0.0
C940 C 0.05387 0.10916 0.87123 0.0
C941 C 0.06424 0.11252 0.89234 0.0
C942 C 0.0796 0.09785 0.90038 0.0
H943 H 0.07289 0.04282 0.94326 0.0
H944 H 0.07878 0.07096 0.94173 0.0
H945 H 0.06171 0.05868 0.92048 0.0
H946 H 0.07858 0.06224 0.85614 0.0
H947 H 0.05203 0.08788 0.84185 0.0
H948 H 0.84906 0.99906 0.48798 0.0
H949 H 0.86836 0.97084 0.46718 0.0
H950 H 0.87006 0.01069 0.40742 0.0
H951 H 0.8515 0.03934 0.42837 0.0
H952 H 0.85926 0.9483 0.42717 0.0
H953 H 0.93408 0.99727 0.41838 0.0
H954 H 0.91215 0.00481 0.43714 0.0
H955 H 0.91003 0.00949 0.40703 0.0
C956 C 0.8536 1.00187 0.47043 0.0
C957 C 0.849 0.0216 0.45995 0.0
C958 C 0.86448 0.98565 0.45852 0.0
C959 C 0.87101 0.98882 0.4359 0.0
C960 C 0.86554 0.00807 0.42501 0.0
H961 H 0.95231 0.91277 0.34517 0.0
H962 H 0.92641 0.93857 0.36083 0.0
C963 C 0.85471 0.02435 0.43694 0.0
C964 C 0.88422 0.97226 0.42408 0.0
H965 H 0.93402 0.96338 0.4003 0.0
C966 C 0.87559 0.95158 0.42125 0.0
C967 C 0.90557 0.97657 0.41648 0.0
C968 C 0.91614 0.99817 0.42006 0.0
C969 C 0.88771 0.93512 0.41084 0.0
C970 C 0.90906 0.93944 0.40335 0.0
C971 C 0.91759 0.96016 0.40598 0.0
C972 C 0.92318 0.92263 0.39327 0.0
C973 C 0.87751 0.91332 0.40774 0.0
C974 C 0.92988 0.90503 0.4063 0.0
C975 C 0.94476 0.89022 0.39744 0.0
C976 C 0.9533 0.8928 0.37538 0.0
C977 C 0.94612 0.91022 0.36221 0.0
C978 C 0.9313 0.92503 0.37112 0.0
H979 H 0.85953 0.91406 0.40901 0.0
H980 H 0.88197 0.90624 0.39097 0.0
H981 H 0.88353 0.90247 0.42126 0.0
H982 H 0.92411 0.9031 0.42359 0.0
H983 H 0.94992 0.87705 0.4081 0.0
H984 H 0.34843 0.39804 0.13573 0.0
H985 H 0.36731 0.38739 0.17048 0.0
H986 H 0.37354 0.32293 0.14433 0.0
H987 H 0.35538 0.33367 0.10905 0.0
H988 H 0.35874 0.35661 0.20309 0.0
H989 H 0.43628 0.3393 0.15803 0.0
H990 H 0.41406 0.3532 0.14459 0.0
H991 H 0.41315 0.32458 0.14783 0.0
C992 C 0.35389 0.38161 0.1373 0.0
C993 C 0.35067 0.36679 0.11944 0.0
C994 C 0.36453 0.37551 0.15726 0.0
C995 C 0.37219 0.35447 0.15983 0.0
C996 C 0.36814 0.33936 0.14251 0.0
H997 H 0.45711 0.30557 0.26794 0.0
H998 H 0.43108 0.30691 0.23639 0.0
C999 C 0.35754 0.34547 0.12246 0.0
C1000 C 0.38503 0.34878 0.18033 0.0
H1001 H 0.4358 0.33397 0.19768 0.0
C1002 C 0.37555 0.35151 0.20191 0.0
C1003 C 0.40697 0.34213 0.17876 0.0
C1004 C 0.41834 0.33978 0.1561 0.0
C1005 C 0.3875 0.34808 0.22195 0.0
C1006 C 0.40956 0.34197 0.22035 0.0
C1007 C 0.41885 0.33857 0.19881 0.0
C1008 C 0.42377 0.34061 0.24068 0.0
C1009 C 0.37649 0.35114 0.24469 0.0
C1010 C 0.42824 0.35911 0.25355 0.0
C1011 C 0.44316 0.35846 0.27146 0.0
C1012 C 0.45397 0.33926 0.2769 0.0
C1013 C 0.44904 0.3206 0.26431 0.0
C1014 C 0.4342 0.32133 0.24625 0.0
H1015 H 0.35855 0.34989 0.24317 0.0
H1016 H 0.38226 0.33913 0.2572 0.0
H1017 H 0.38041 0.36734 0.25144 0.0
H1018 H 0.42067 0.37425 0.24928 0.0
H1019 H 0.44651 0.37313 0.28077 0.0
H1020 H 0.6374 0.67137 0.60313 0.0
H1021 H 0.61429 0.67383 0.63692 0.0
H1022 H 0.66872 0.65664 0.67936 0.0
H1023 H 0.692 0.65446 0.64561 0.0
H1024 H 0.60371 0.64286 0.66634 0.0
H1025 H 0.64547 0.70852 0.71288 0.0
H1026 H 0.65113 0.70227 0.68341 0.0
H1027 H 0.6631 0.68656 0.70577 0.0
C1028 C 0.64446 0.66819 0.61968 0.0
C1029 C 0.66653 0.66276 0.62172 0.0
C1030 C 0.63126 0.66966 0.63898 0.0
C1031 C 0.63982 0.66572 0.66073 0.0
C1032 C 0.66187 0.6603 0.66284 0.0
H1033 H 0.56031 0.63201 0.77763 0.0
H1034 H 0.58626 0.63229 0.7462 0.0
C1035 C 0.67514 0.65899 0.64353 0.0
C1036 C 0.62536 0.66628 0.68098 0.0
H1037 H 0.6184 0.68941 0.73341 0.0
C1038 C 0.6069 0.6531 0.68097 0.0
C1039 C 0.62937 0.67983 0.69996 0.0
C1040 C 0.64822 0.69526 0.70049 0.0
C1041 C 0.59245 0.65292 0.69944 0.0
C1042 C 0.59687 0.66588 0.71877 0.0
C1043 C 0.61518 0.67928 0.7187 0.0
C1044 C 0.58238 0.66606 0.73899 0.0
C1045 C 0.57233 0.63919 0.69782 0.0
C1046 C 0.57233 0.68516 0.7461 0.0
C1047 C 0.55766 0.68513 0.76429 0.0
C1048 C 0.55273 0.66596 0.77571 0.0
C1049 C 0.56348 0.64701 0.76905 0.0
C1050 C 0.57825 0.64711 0.75099 0.0
H1051 H 0.56829 0.63511 0.67985 0.0
H1052 H 0.57514 0.62395 0.70703 0.0
H1053 H 0.55813 0.64738 0.70563 0.0
H1054 H 0.5754 0.70001 0.73718 0.0
H1055 H 0.54974 0.70003 0.76897 0.0
H1056 H 0.62509 0.38936 0.11191 0.0
H1057 H 0.60675 0.37918 0.14704 0.0
H1058 H 0.65869 0.33522 0.16253 0.0
H1059 H 0.67757 0.34583 0.12756 0.0
H1060 H 0.5925 0.33841 0.16042 0.0
H1061 H 0.65334 0.37226 0.22085 0.0
H1062 H 0.65282 0.37925 0.19105 0.0
H1063 H 0.66347 0.35378 0.19975 0.0
C1064 C 0.63279 0.37772 0.1229 0.0
C1065 C 0.65294 0.3686 0.11704 0.0
C1066 C 0.62219 0.37179 0.14289 0.0
C1067 C 0.63147 0.35664 0.15752 0.0
C1068 C 0.6514 0.34719 0.15163 0.0
H1069 H 0.55294 0.30574 0.27034 0.0
H1070 H 0.57808 0.30735 0.23808 0.0
C1071 C 0.66206 0.35312 0.13155 0.0
C1072 C 0.62 0.35088 0.17883 0.0
H1073 H 0.6225 0.35583 0.23678 0.0
C1074 C 0.59914 0.34198 0.17715 0.0
C1075 C 0.62867 0.35574 0.20058 0.0
C1076 C 0.65073 0.36593 0.20333 0.0
C1077 C 0.58646 0.33829 0.1966 0.0
C1078 C 0.59502 0.34335 0.21834 0.0
C1079 C 0.61609 0.3518 0.22008 0.0
C1080 C 0.58159 0.34184 0.23922 0.0
C1081 C 0.56363 0.32992 0.19365 0.0
C1082 C 0.57589 0.36061 0.25105 0.0
C1083 C 0.56161 0.35977 0.2695 0.0
C1084 C 0.55277 0.3401 0.27659 0.0
C1085 C 0.55931 0.32118 0.2653 0.0
C1086 C 0.5736 0.32206 0.24679 0.0
H1087 H 0.55815 0.33061 0.17563 0.0
H1088 H 0.56298 0.31296 0.1992 0.0
H1089 H 0.55208 0.33925 0.20433 0.0
H1090 H 0.58194 0.37603 0.24554 0.0
H1091 H 0.55712 0.37466 0.27784 0.0
H1092 H 0.34105 0.69305 0.62331 0.0
H1093 H 0.3648 0.69548 0.65673 0.0
H1094 H 0.36024 0.62708 0.66568 0.0
H1095 H 0.33634 0.6245 0.63251 0.0
H1096 H 0.35784 0.68219 0.7028 0.0
H1097 H 0.42611 0.63842 0.66184 0.0
H1098 H 0.40368 0.64929 0.64579 0.0
H1099 H 0.4006 0.62452 0.66094 0.0
C1100 C 0.34489 0.67855 0.63254 0.0
C1101 C 0.33693 0.65855 0.6251 0.0
C1102 C 0.35854 0.67996 0.65157 0.0
C1103 C 0.36456 0.66142 0.66343 0.0
C1104 C 0.35616 0.64153 0.65646 0.0
H1105 H 0.44939 0.63074 0.77571 0.0
H1106 H 0.42266 0.63083 0.74503 0.0
C1107 C 0.34253 0.64009 0.63748 0.0
C1108 C 0.37978 0.66276 0.68296 0.0
H1109 H 0.42939 0.64563 0.70138 0.0
C1110 C 0.37354 0.67431 0.70249 0.0
C1111 C 0.40025 0.65248 0.68246 0.0
C1112 C 0.40821 0.64063 0.66157 0.0
C1113 C 0.38703 0.67537 0.72181 0.0
C1114 C 0.40742 0.6649 0.72137 0.0
C1115 C 0.41371 0.65356 0.70172 0.0
C1116 C 0.42251 0.66528 0.74109 0.0
C1117 C 0.37909 0.68716 0.74272 0.0
C1118 C 0.43126 0.68467 0.74918 0.0
C1119 C 0.44656 0.68471 0.76683 0.0
C1120 C 0.45356 0.66532 0.77659 0.0
C1121 C 0.44447 0.64598 0.76862 0.0
C1122 C 0.42916 0.64597 0.75105 0.0
H1123 H 0.36121 0.6895 0.74239 0.0
H1124 H 0.38349 0.6784 0.75847 0.0
H1125 H 0.38682 0.70321 0.74347 0.0
H1126 H 0.42668 0.69973 0.74145 0.0
H1127 H 0.45327 0.6999 0.77242 0.0
H1128 H 0.85688 0.83426 0.10893 0.0
H1129 H 0.87468 0.82356 0.14443 0.0
H1130 H 0.86308 0.88653 0.17263 0.0
H1131 H 0.84462 0.89706 0.13765 0.0
H1132 H 0.91127 0.84138 0.16199 0.0
H1133 H 0.84495 0.84887 0.22502 0.0
H1134 H 0.84 0.84823 0.19469 0.0
H1135 H 0.84813 0.87279 0.20854 0.0
C1136 C 0.85764 0.84565 0.1229 0.0
C1137 C 0.84935 0.86654 0.12043 0.0
C1138 C 0.86794 0.83955 0.14313 0.0
C1139 C 0.86998 0.85414 0.16132 0.0
C1140 C 0.86131 0.87483 0.15905 0.0
H1141 H 0.94659 0.87324 0.28045 0.0
H1142 H 0.92102 0.87428 0.24866 0.0
C1143 C 0.85101 0.88093 0.13889 0.0
C1144 C 0.88277 0.84849 0.18189 0.0
H1145 H 0.88134 0.84892 0.24009 0.0
C1146 C 0.90463 0.84265 0.17906 0.0
C1147 C 0.87408 0.85016 0.20416 0.0
C1148 C 0.85044 0.85514 0.2083 0.0
C1149 C 0.91829 0.83943 0.19789 0.0
C1150 C 0.9098 0.84191 0.22013 0.0
C1151 C 0.8878 0.8471 0.223 0.0
C1152 C 0.92391 0.84055 0.24051 0.0
C1153 C 0.94195 0.83434 0.1939 0.0
C1154 C 0.93361 0.8211 0.24678 0.0
C1155 C 0.94824 0.8204 0.26502 0.0
C1156 C 0.95348 0.83919 0.27726 0.0
C1157 C 0.9431 0.85849 0.27134 0.0
C1158 C 0.92841 0.85912 0.25321 0.0
H1159 H 0.94667 0.83636 0.17577 0.0
H1160 H 0.95241 0.84482 0.20462 0.0
H1161 H 0.94517 0.81748 0.19877 0.0
H1162 H 0.93014 0.80654 0.23731 0.0
H1163 H 0.95587 0.80525 0.26911 0.0
H1164 H 0.1937 0.15506 0.64561 0.0
H1165 H 0.17075 0.15633 0.67971 0.0
H1166 H 0.11472 0.16895 0.63774 0.0
H1167 H 0.13748 0.16745 0.60365 0.0
H1168 H 0.14499 0.18772 0.69789 0.0
H1169 H 0.09499 0.11737 0.67372 0.0
H1170 H 0.11979 0.12412 0.6591 0.0
H1171 H 0.0949 0.13786 0.65241 0.0
C1172 C 0.17651 0.15824 0.64369 0.0
C1173 C 0.16735 0.16095 0.62194 0.0
C1174 C 0.16341 0.1589 0.66316 0.0
C1175 C 0.14094 0.16229 0.66124 0.0
C1176 C 0.13191 0.16571 0.6396 0.0
H1177 H 0.04999 0.19886 0.76759 0.0
H1178 H 0.07647 0.19835 0.73661 0.0
C1179 C 0.14494 0.1649 0.62014 0.0
C1180 C 0.12692 0.16224 0.68181 0.0
H1181 H 0.08215 0.13851 0.70482 0.0
C1182 C 0.13132 0.17688 0.69949 0.0
C1183 C 0.10931 0.14784 0.68407 0.0
C1184 C 0.10457 0.13076 0.66643 0.0
C1185 C 0.11827 0.17786 0.71911 0.0
C1186 C 0.10006 0.16413 0.72086 0.0
C1187 C 0.09597 0.14919 0.7034 0.0
C1188 C 0.08495 0.16489 0.74059 0.0
C1189 C 0.12435 0.19334 0.7379 0.0
C1190 C 0.08059 0.14618 0.75295 0.0
C1191 C 0.06522 0.14633 0.77045 0.0
C1192 C 0.05386 0.16523 0.77603 0.0
C1193 C 0.05856 0.18407 0.76391 0.0
C1194 C 0.07381 0.18384 0.74625 0.0
H1195 H 0.14183 0.19769 0.73715 0.0
H1196 H 0.11477 0.2083 0.73597 0.0
H1197 H 0.12084 0.18653 0.75494 0.0
H1198 H 0.08893 0.13135 0.74887 0.0
H1199 H 0.06209 0.13154 0.77945 0.0
H1200 H 0.12319 0.88657 0.11127 0.0
H1201 H 0.10504 0.87633 0.14649 0.0
H1202 H 0.15893 0.8353 0.16364 0.0
H1203 H 0.1776 0.84601 0.12857 0.0
H1204 H 0.09258 0.83551 0.16113 0.0
H1205 H 0.15162 0.87358 0.22069 0.0
H1206 H 0.151 0.87963 0.19066 0.0
H1207 H 0.16264 0.8549 0.2003 0.0
C1208 C 0.13134 0.87556 0.12263 0.0
C1209 C 0.15198 0.86732 0.11723 0.0
C1210 C 0.12085 0.86958 0.14267 0.0
C1211 C 0.13074 0.85526 0.15781 0.0
C1212 C 0.15116 0.84663 0.15234 0.0
H1213 H 0.05322 0.80514 0.27189 0.0
H1214 H 0.07845 0.80648 0.23969 0.0
C1215 C 0.16171 0.85261 0.13221 0.0
C1216 C 0.11944 0.8496 0.17924 0.0
H1217 H 0.1214 0.85643 0.237 0.0
C1218 C 0.09897 0.83983 0.17776 0.0
C1219 C 0.12778 0.85546 0.20086 0.0
C1220 C 0.14939 0.86662 0.20338 0.0
C1221 C 0.08632 0.83627 0.19726 0.0
C1222 C 0.09454 0.84235 0.21887 0.0
C1223 C 0.11525 0.85163 0.22042 0.0
C1224 C 0.08103 0.84107 0.23972 0.0
C1225 C 0.06385 0.82697 0.19447 0.0
C1226 C 0.07478 0.86 0.25092 0.0
C1227 C 0.06048 0.85932 0.26935 0.0
C1228 C 0.05213 0.83964 0.27704 0.0
C1229 C 0.05919 0.82059 0.26636 0.0
C1230 C 0.07353 0.82131 0.24788 0.0
H1231 H 0.05844 0.82697 0.1764 0.0
H1232 H 0.06383 0.81016 0.20053 0.0
H1233 H 0.05188 0.83614 0.20479 0.0
H1234 H 0.08045 0.87542 0.24494 0.0
H1235 H 0.05558 0.87432 0.2772 0.0
H1236 H 0.83782 0.12489 0.63109 0.0
H1237 H 0.86152 0.12752 0.66441 0.0
H1238 H 0.86382 0.19622 0.6571 0.0
H1239 H 0.84027 0.19374 0.62356 0.0
H1240 H 0.90368 0.14476 0.66539 0.0
H1241 H 0.84878 0.18828 0.72487 0.0
H1242 H 0.83905 0.175 0.69942 0.0
H1243 H 0.85229 0.20057 0.69751 0.0
C1244 C 0.84338 0.14057 0.63652 0.0
C1245 C 0.83716 0.1591 0.62461 0.0
C1246 C 0.85683 0.14205 0.65565 0.0
C1247 C 0.86422 0.16207 0.66339 0.0
C1248 C 0.85793 0.18064 0.6517 0.0
H1249 H 0.95398 0.19945 0.77144 0.0
H1250 H 0.92772 0.19909 0.74011 0.0
C1251 C 0.84447 0.17918 0.63253 0.0
C1252 C 0.87938 0.16332 0.683 0.0
H1253 H 0.88506 0.18301 0.73713 0.0
C1254 C 0.89959 0.15306 0.68111 0.0
C1255 C 0.87405 0.17429 0.70341 0.0
C1256 C 0.8523 0.18503 0.70661 0.0
C1257 C 0.91469 0.15359 0.69901 0.0
C1258 C 0.90926 0.1643 0.71956 0.0
C1259 C 0.88914 0.17476 0.72139 0.0
C1260 C 0.92424 0.16459 0.73937 0.0
C1261 C 0.93649 0.14298 0.6956 0.0
C1262 C 0.93053 0.14536 0.74973 0.0
C1263 C 0.94556 0.14547 0.76758 0.0
C1264 C 0.95451 0.16487 0.77558 0.0
C1265 C 0.94752 0.1842 0.76569 0.0
C1266 C 0.9325 0.18405 0.74778 0.0
H1267 H 0.94029 0.14068 0.67724 0.0
H1268 H 0.94967 0.15258 0.70356 0.0
H1269 H 0.93632 0.12696 0.70371 0.0
H1270 H 0.92397 0.13019 0.74385 0.0
H1271 H 0.95034 0.13028 0.77489 0.0
loop_
_geom_bond_atom_site_label_1
_geom_bond_atom_site_label_2
_geom_bond_distance
_geom_bond_site_symmetry_2
_ccdc_geom_bond_type
C0 C1 1.264 . S
C0 C5 1.479 . S
C0 C10 1.465 . S
C1 C0 1.264 . S
C1 C3 1.339 . S
C1 H28 0.931 1_556 S
C2 C3 1.395 . S
C2 C4 1.320 . S
C3 C1 1.339 . S
C3 C2 1.395 . S
C3 H29 0.929 . S
C4 C2 1.320 . S
C4 C5 1.405 . S
C4 H30 0.930 . S
C5 C0 1.479 . S
C5 C4 1.405 . S
C5 H31 0.931 . S
U6 O7 2.454 1_554 S
U6 O8 2.458 . S
U6 C9 2.984 1_554 S
U6 C10 2.847 1_554 S
U6 C23 2.882 . S
U6 O24 2.441 1_554 S
U6 O25 2.420 . S
U6 O26 2.455 . S
U6 O27 2.449 . S
O7 U6 2.454 1_556 S
O7 C9 1.353 . S
O8 U6 2.458 . S
O8 C9 1.286 1_554 S
C9 U6 2.984 1_556 S
C9 O7 1.353 . S
C9 O8 1.286 1_556 S
C9 C11 1.363 . S
C10 C0 1.465 . S
C10 U6 2.847 1_556 S
C10 O24 1.249 . S
C10 O25 1.202 1_556 S
C11 C9 1.363 . S
C11 C13 1.408 . S
C11 C16 1.342 . S
C12 C13 1.310 . S
C12 C15 1.461 . S
C12 H32 0.932 . S
C13 C11 1.408 . S
C13 C12 1.310 . S
C13 H33 0.930 . S
C14 C15 1.474 . S
C14 C16 1.285 . S
C14 H34 0.929 . S
C15 C12 1.461 . S
C15 C14 1.474 . S
C16 C11 1.342 . S
C16 C14 1.285 . S
C16 H35 0.930 1_556 S
C17 C20 1.424 . S
C17 C22 1.245 . S
C17 C23 1.428 . S
C18 C21 1.260 . S
C18 C22 1.477 . S
C18 H36 0.932 . S
C19 C20 1.384 . S
C19 C21 1.479 . S
C19 H37 0.929 . S
C20 C17 1.424 . S
C20 C19 1.384 . S
C20 H38 0.928 . S
C21 C18 1.260 . S
C21 C19 1.479 . S
C22 C17 1.245 . S
C22 C18 1.477 . S
C22 H39 0.932 . S
C23 U6 2.882 . S
C23 C17 1.428 . S
C23 O26 1.301 . S
C23 O27 1.282 . S
O24 U6 2.441 1_556 S
O24 C10 1.249 . S
O25 U6 2.420 . S
O25 C10 1.202 1_554 S
O26 U6 2.455 . S
O26 C23 1.301 . S
O27 U6 2.449 . S
O27 C23 1.282 . S
H28 C1 0.931 1_554 S
H29 C3 0.929 . S
H30 C4 0.930 . S
H31 C5 0.931 . S
H32 C12 0.932 . S
H33 C13 0.930 . S
H34 C14 0.929 . S
H35 C16 0.930 1_554 S
H36 C18 0.932 . S
H37 C19 0.929 . S
H38 C20 0.928 . S
H39 C22 0.932 . S
C40 C41 1.264 . S
C40 C45 1.479 . S
C40 C50 1.465 . S
C41 C40 1.264 . S
C41 C43 1.339 . S
C41 H68 0.931 . S
C42 C43 1.395 . S
C42 C44 1.320 . S
C43 C41 1.339 . S
C43 C42 1.395 . S
C43 H69 0.929 . S
C44 C42 1.320 . S
C44 C45 1.405 . S
C44 H70 0.930 . S
C45 C40 1.479 . S
C45 C44 1.405 . S
C45 H71 0.931 . S
U46 O47 2.454 . S
U46 O48 2.458 . S
U46 C49 2.984 . S
U46 C50 2.847 . S
U46 C63 2.882 . S
U46 O64 2.441 . S
U46 O65 2.420 . S
U46 O66 2.455 . S
U46 O67 2.449 . S
O47 U46 2.454 . S
O47 C49 1.353 . S
O48 U46 2.458 . S
O48 C49 1.286 . S
C49 U46 2.984 . S
C49 O47 1.353 . S
C49 O48 1.286 . S
C49 C51 1.363 . S
C50 C40 1.465 . S
C50 U46 2.847 . S
C50 O64 1.249 . S
C50 O65 1.202 . S
C51 C49 1.363 . S
C51 C53 1.408 . S
C51 C56 1.342 . S
C52 C53 1.310 . S
C52 C55 1.461 . S
C52 H72 0.932 . S
C53 C51 1.408 . S
C53 C52 1.310 . S
C53 H73 0.930 . S
C54 C55 1.474 . S
C54 C56 1.285 . S
C54 H74 0.929 . S
C55 C52 1.461 . S
C55 C54 1.474 . S
C56 C51 1.342 . S
C56 C54 1.285 . S
C56 H75 0.930 . S
C57 C60 1.424 . S
C57 C62 1.245 . S
C57 C63 1.428 . S
C58 C61 1.260 . S
C58 C62 1.477 . S
C58 H76 0.932 . S
C59 C60 1.384 . S
C59 C61 1.479 . S
C59 H77 0.929 . S
C60 C57 1.424 . S
C60 C59 1.384 . S
C60 H78 0.928 . S
C61 C58 1.260 . S
C61 C59 1.479 . S
C62 C57 1.245 . S
C62 C58 1.477 . S
C62 H79 0.932 . S
C63 U46 2.882 . S
C63 C57 1.428 . S
C63 O66 1.301 . S
C63 O67 1.282 . S
O64 U46 2.441 . S
O64 C50 1.249 . S
O65 U46 2.420 . S
O65 C50 1.202 . S
O66 U46 2.455 . S
O66 C63 1.301 . S
O67 U46 2.449 . S
O67 C63 1.282 . S
H68 C41 0.931 . S
H69 C43 0.929 . S
H70 C44 0.930 . S
H71 C45 0.931 . S
H72 C52 0.932 . S
H73 C53 0.930 . S
H74 C54 0.929 . S
H75 C56 0.930 . S
H76 C58 0.932 . S
H77 C59 0.929 . S
H78 C60 0.928 . S
H79 C62 0.932 . S
C80 C81 1.264 . S
C80 C85 1.479 . S
C80 C90 1.465 . S
C81 C80 1.264 . S
C81 C83 1.339 . S
C81 H108 0.931 . S
C82 C83 1.395 . S
C82 C84 1.320 . S
C83 C81 1.339 . S
C83 C82 1.395 . S
C83 H109 0.929 . S
C84 C82 1.320 . S
C84 C85 1.405 . S
C84 H110 0.930 . S
C85 C80 1.479 . S
C85 C84 1.405 . S
C85 H111 0.931 . S
U86 O87 2.454 1_554 S
U86 O88 2.458 . S
U86 C89 2.984 1_554 S
U86 C90 2.847 1_554 S
U86 C103 2.882 . S
U86 O104 2.441 1_554 S
U86 O105 2.420 1_554 S
U86 O106 2.455 . S
U86 O107 2.449 . S
O87 U86 2.454 1_556 S
O87 C89 1.353 . S
O88 U86 2.458 . S
O88 C89 1.286 1_554 S
C89 U86 2.984 1_556 S
C89 O87 1.353 . S
C89 O88 1.286 1_556 S
C89 C91 1.363 . S
C90 C80 1.465 . S
C90 U86 2.847 1_556 S
C90 O104 1.249 . S
C90 O105 1.202 . S
C91 C89 1.363 . S
C91 C93 1.408 . S
C91 C96 1.342 . S
C92 C93 1.310 . S
C92 C95 1.461 . S
C92 H112 0.932 . S
C93 C91 1.408 . S
C93 C92 1.310 . S
C93 H113 0.930 . S
C94 C95 1.474 . S
C94 C96 1.285 . S
C94 H114 0.936 . S
C95 C92 1.461 . S
C95 C94 1.474 . S
C96 C91 1.342 . S
C96 C94 1.285 . S
C96 H115 0.930 1_556 S
C97 C100 1.424 . S
C97 C102 1.245 . S
C97 C103 1.428 . S
C98 C101 1.260 . S
C98 C102 1.477 . S
C98 H116 0.932 . S
C99 C100 1.384 . S
C99 C101 1.479 . S
C99 H117 0.929 . S
C100 C97 1.424 . S
C100 C99 1.384 . S
C100 H118 0.928 . S
C101 C98 1.260 . S
C101 C99 1.479 . S
C102 C97 1.245 . S
C102 C98 1.477 . S
C102 H119 0.932 . S
C103 U86 2.882 . S
C103 C97 1.428 . S
C103 O106 1.301 . S
C103 O107 1.282 . S
O104 U86 2.441 1_556 S
O104 C90 1.249 . S
O105 U86 2.420 1_556 S
O105 C90 1.202 . S
O106 U86 2.455 . S
O106 C103 1.301 . S
O107 U86 2.449 . S
O107 C103 1.282 . S
H108 C81 0.931 . S
H109 C83 0.929 . S
H110 C84 0.930 . S
H111 C85 0.931 . S
H112 C92 0.932 . S
H113 C93 0.930 . S
H114 C94 0.936 . S
H115 C96 0.930 1_554 S
H116 C98 0.932 . S
H117 C99 0.929 . S
H118 C100 0.928 . S
H119 C102 0.932 . S
C120 C121 1.264 . S
C120 C125 1.479 . S
C120 C130 1.465 . S
C121 C120 1.264 . S
C121 C123 1.339 . S
C121 H148 0.931 . S
C122 C123 1.395 . S
C122 C124 1.320 . S
C123 C121 1.339 . S
C123 C122 1.395 . S
C123 H149 0.929 . S
C124 C122 1.320 . S
C124 C125 1.405 . S
C124 H150 0.930 . S
C125 C120 1.479 . S
C125 C124 1.405 . S
C125 H151 0.931 . S
U126 O127 2.454 . S
U126 O128 2.458 . S
U126 C129 2.984 . S
U126 C130 2.847 . S
U126 C143 2.882 . S
U126 O144 2.441 . S
U126 O145 2.420 . S
U126 O146 2.455 . S
U126 O147 2.449 . S
O127 U126 2.454 . S
O127 C129 1.353 . S
O128 U126 2.458 . S
O128 C129 1.286 . S
C129 U126 2.984 . S
C129 O127 1.353 . S
C129 O128 1.286 . S
C129 C131 1.363 . S
C130 C120 1.465 . S
C130 U126 2.847 . S
C130 O144 1.249 . S
C130 O145 1.202 . S
C131 C129 1.363 . S
C131 C133 1.408 . S
C131 C136 1.342 . S
C132 C133 1.310 . S
C132 C135 1.461 . S
C132 H152 0.932 . S
C133 C131 1.408 . S
C133 C132 1.310 . S
C133 H153 0.930 . S
C134 C135 1.474 . S
C134 C136 1.285 . S
C134 H154 0.929 . S
C135 C132 1.461 . S
C135 C134 1.474 . S
C136 C131 1.342 . S
C136 C134 1.285 . S
C136 H155 0.930 . S
C137 C140 1.424 . S
C137 C142 1.245 . S
C137 C143 1.428 . S
C138 C141 1.260 . S
C138 C142 1.477 . S
C138 H156 0.932 . S
C139 C140 1.384 . S
C139 C141 1.479 . S
C139 H157 0.929 . S
C140 C137 1.424 . S
C140 C139 1.384 . S
C140 H158 0.928 . S
C141 C138 1.260 . S
C141 C139 1.479 . S
C142 C137 1.245 . S
C142 C138 1.477 . S
C142 H159 0.932 . S
C143 U126 2.882 . S
C143 C137 1.428 . S
C143 O146 1.301 . S
C143 O147 1.282 . S
O144 U126 2.441 . S
O144 C130 1.249 . S
O145 U126 2.420 . S
O145 C130 1.202 . S
O146 U126 2.455 . S
O146 C143 1.301 . S
O147 U126 2.449 . S
O147 C143 1.282 . S
H148 C121 0.931 . S
H149 C123 0.929 . S
H150 C124 0.930 . S
H151 C125 0.931 . S
H152 C132 0.932 . S
H153 C133 0.930 . S
H154 C134 0.929 . S
H155 C136 0.930 . S
H156 C138 0.932 . S
H157 C139 0.929 . S
H158 C140 0.928 . S
H159 C142 0.932 . S
C160 C161 1.264 . S
C160 C165 1.479 . S
C160 C170 1.465 . S
C161 C160 1.264 . S
C161 C163 1.339 . S
C161 H188 0.931 1_556 S
C162 C163 1.395 . S
C162 C164 1.320 . S
C163 C161 1.339 . S
C163 C162 1.395 . S
C163 H189 0.929 . S
C164 C162 1.320 . S
C164 C165 1.405 . S
C164 H190 0.930 . S
C165 C160 1.479 . S
C165 C164 1.405 . S
C165 H191 0.931 . S
U166 O167 2.454 1_554 S
U166 O168 2.458 . S
U166 C169 2.984 1_554 S
U166 C170 2.847 1_554 S
U166 C183 2.882 . S
U166 O184 2.441 1_554 S
U166 O185 2.420 . S
U166 O186 2.455 . S
U166 O187 2.449 . S
O167 U166 2.454 1_556 S
O167 C169 1.353 . S
O168 U166 2.458 . S
O168 C169 1.286 1_554 S
C169 U166 2.984 1_556 S
C169 O167 1.353 . S
C169 O168 1.286 1_556 S
C169 C171 1.363 . S
C170 C160 1.465 . S
C170 U166 2.847 1_556 S
C170 O184 1.249 . S
C170 O185 1.202 1_556 S
C171 C169 1.363 . S
C171 C173 1.408 . S
C171 C176 1.342 . S
C172 C173 1.310 . S
C172 C175 1.461 . S
C172 H192 0.932 . S
C173 C171 1.408 . S
C173 C172 1.310 . S
C173 H193 0.930 . S
C174 C175 1.474 . S
C174 C176 1.285 . S
C174 H194 0.929 . S
C175 C172 1.461 . S
C175 C174 1.474 . S
C176 C171 1.342 . S
C176 C174 1.285 . S
C176 H195 0.930 1_556 S
C177 C180 1.424 . S
C177 C182 1.245 . S
C177 C183 1.428 . S
C178 C181 1.260 . S
C178 C182 1.477 . S
C178 H196 0.932 . S
C179 C180 1.384 . S
C179 C181 1.479 . S
C179 H197 0.929 . S
C180 C177 1.424 . S
C180 C179 1.384 . S
C180 H198 0.928 . S
C181 C178 1.260 . S
C181 C179 1.479 . S
C182 C177 1.245 . S
C182 C178 1.477 . S
C182 H199 0.932 . S
C183 U166 2.882 . S
C183 C177 1.428 . S
C183 O186 1.301 . S
C183 O187 1.282 . S
O184 U166 2.441 1_556 S
O184 C170 1.249 . S
O185 U166 2.420 . S
O185 C170 1.202 1_554 S
O186 U166 2.455 . S
O186 C183 1.301 . S
O187 U166 2.449 . S
O187 C183 1.282 . S
H188 C161 0.931 1_554 S
H189 C163 0.929 . S
H190 C164 0.930 . S
H191 C165 0.931 . S
H192 C172 0.932 . S
H193 C173 0.930 . S
H194 C174 0.929 . S
H195 C176 0.930 1_554 S
H196 C178 0.932 . S
H197 C179 0.929 . S
H198 C180 0.928 . S
H199 C182 0.932 . S
C200 C201 1.264 . S
C200 C205 1.479 . S
C200 C210 1.465 . S
C201 C200 1.264 . S
C201 C203 1.339 . S
C201 H228 0.931 . S
C202 C203 1.395 . S
C202 C204 1.320 . S
C203 C201 1.339 . S
C203 C202 1.395 . S
C203 H229 0.929 . S
C204 C202 1.320 . S
C204 C205 1.405 . S
C204 H230 0.930 . S
C205 C200 1.479 . S
C205 C204 1.405 . S
C205 H231 0.931 . S
U206 O207 2.454 . S
U206 O208 2.458 . S
U206 C209 2.984 . S
U206 C210 2.847 . S
U206 C223 2.882 . S
U206 O224 2.441 . S
U206 O225 2.420 . S
U206 O226 2.455 . S
U206 O227 2.449 . S
O207 U206 2.454 . S
O207 C209 1.353 . S
O208 U206 2.458 . S
O208 C209 1.286 . S
C209 U206 2.984 . S
C209 O207 1.353 . S
C209 O208 1.286 . S
C209 C211 1.363 . S
C210 C200 1.465 . S
C210 U206 2.847 . S
C210 O224 1.249 . S
C210 O225 1.202 . S
C211 C209 1.363 . S
C211 C213 1.408 . S
C211 C216 1.342 . S
C212 C213 1.310 . S
C212 C215 1.461 . S
C212 H232 0.932 . S
C213 C211 1.408 . S
C213 C212 1.310 . S
C213 H233 0.930 . S
C214 C215 1.474 . S
C214 C216 1.285 . S
C214 H234 0.929 . S
C215 C212 1.461 . S
C215 C214 1.474 . S
C216 C211 1.342 . S
C216 C214 1.285 . S
C216 H235 0.930 . S
C217 C220 1.424 . S
C217 C222 1.245 . S
C217 C223 1.428 . S
C218 C221 1.260 . S
C218 C222 1.477 . S
C218 H236 0.932 . S
C219 C220 1.384 . S
C219 C221 1.479 . S
C219 H237 0.929 . S
C220 C217 1.424 . S
C220 C219 1.384 . S
C220 H238 0.928 . S
C221 C218 1.260 . S
C221 C219 1.479 . S
C222 C217 1.245 . S
C222 C218 1.477 . S
C222 H239 0.932 . S
C223 U206 2.882 . S
C223 C217 1.428 . S
C223 O226 1.301 . S
C223 O227 1.282 . S
O224 U206 2.441 . S
O224 C210 1.249 . S
O225 U206 2.420 . S
O225 C210 1.202 . S
O226 U206 2.455 . S
O226 C223 1.301 . S
O227 U206 2.449 . S
O227 C223 1.282 . S
H228 C201 0.931 . S
H229 C203 0.929 . S
H230 C204 0.930 . S
H231 C205 0.931 . S
H232 C212 0.932 . S
H233 C213 0.930 . S
H234 C214 0.929 . S
H235 C216 0.930 . S
H236 C218 0.932 . S
H237 C219 0.929 . S
H238 C220 0.928 . S
H239 C222 0.932 . S
C240 C241 1.264 . S
C240 C245 1.479 . S
C240 C250 1.465 . S
C241 C240 1.264 . S
C241 C243 1.339 . S
C241 H268 0.931 . S
C242 C243 1.395 . S
C242 C244 1.320 . S
C243 C241 1.339 . S
C243 C242 1.395 . S
C243 H269 0.929 . S
C244 C242 1.320 . S
C244 C245 1.405 . S
C244 H270 0.930 . S
C245 C240 1.479 . S
C245 C244 1.405 . S
C245 H271 0.931 . S
U246 O247 2.454 1_554 S
U246 O248 2.458 . S
U246 C249 2.984 1_554 S
U246 C250 2.847 1_554 S
U246 C263 2.882 . S
U246 O264 2.441 1_554 S
U246 O265 2.420 1_554 S
U246 O266 2.455 . S
U246 O267 2.449 . S
O247 U246 2.454 1_556 S
O247 C249 1.353 . S
O248 U246 2.458 . S
O248 C249 1.286 1_554 S
C249 U246 2.984 1_556 S
C249 O247 1.353 . S
C249 O248 1.286 1_556 S
C249 C251 1.363 . S
C250 C240 1.465 . S
C250 U246 2.847 1_556 S
C250 O264 1.249 . S
C250 O265 1.202 . S
C251 C249 1.363 . S
C251 C253 1.408 . S
C251 C256 1.342 . S
C252 C253 1.310 . S
C252 C255 1.461 . S
C252 H272 0.932 . S
C253 C251 1.408 . S
C253 C252 1.310 . S
C253 H273 0.930 . S
C254 C255 1.474 . S
C254 C256 1.285 . S
C254 H274 0.936 . S
C255 C252 1.461 . S
C255 C254 1.474 . S
C256 C251 1.342 . S
C256 C254 1.285 . S
C256 H275 0.930 1_556 S
C257 C260 1.424 . S
C257 C262 1.245 . S
C257 C263 1.428 . S
C258 C261 1.260 . S
C258 C262 1.477 . S
C258 H276 0.932 . S
C259 C260 1.384 . S
C259 C261 1.479 . S
C259 H277 0.929 . S
C260 C257 1.424 . S
C260 C259 1.384 . S
C260 H278 0.928 . S
C261 C258 1.260 . S
C261 C259 1.479 . S
C262 C257 1.245 . S
C262 C258 1.477 . S
C262 H279 0.932 . S
C263 U246 2.882 . S
C263 C257 1.428 . S
C263 O266 1.301 . S
C263 O267 1.282 . S
O264 U246 2.441 1_556 S
O264 C250 1.249 . S
O265 U246 2.420 1_556 S
O265 C250 1.202 . S
O266 U246 2.455 . S
O266 C263 1.301 . S
O267 U246 2.449 . S
O267 C263 1.282 . S
H268 C241 0.931 . S
H269 C243 0.929 . S
H270 C244 0.930 . S
H271 C245 0.931 . S
H272 C252 0.932 . S
H273 C253 0.930 . S
H274 C254 0.936 . S
H275 C256 0.930 1_554 S
H276 C258 0.932 . S
H277 C259 0.929 . S
H278 C260 0.928 . S
H279 C262 0.932 . S
C280 C281 1.264 . S
C280 C285 1.479 . S
C280 C290 1.465 . S
C281 C280 1.264 . S
C281 C283 1.339 . S
C281 H308 0.931 . S
C282 C283 1.395 . S
C282 C284 1.320 . S
C283 C281 1.339 . S
C283 C282 1.395 . S
C283 H309 0.929 . S
C284 C282 1.320 . S
C284 C285 1.405 . S
C284 H310 0.930 . S
C285 C280 1.479 . S
C285 C284 1.405 . S
C285 H311 0.931 . S
U286 O287 2.454 . S
U286 O288 2.458 . S
U286 C289 2.984 . S
U286 C290 2.847 . S
U286 C303 2.882 . S
U286 O304 2.441 . S
U286 O305 2.420 . S
U286 O306 2.455 . S
U286 O307 2.449 . S
O287 U286 2.454 . S
O287 C289 1.353 . S
O288 U286 2.458 . S
O288 C289 1.286 . S
C289 U286 2.984 . S
C289 O287 1.353 . S
C289 O288 1.286 . S
C289 C291 1.363 . S
C290 C280 1.465 . S
C290 U286 2.847 . S
C290 O304 1.249 . S
C290 O305 1.202 . S
C291 C289 1.363 . S
C291 C293 1.408 . S
C291 C296 1.342 . S
C292 C293 1.310 . S
C292 C295 1.461 . S
C292 H312 0.932 . S
C293 C291 1.408 . S
C293 C292 1.310 . S
C293 H313 0.930 . S
C294 C295 1.474 . S
C294 C296 1.285 . S
C294 H314 0.929 . S
C295 C292 1.461 . S
C295 C294 1.474 . S
C296 C291 1.342 . S
C296 C294 1.285 . S
C296 H315 0.930 . S
C297 C300 1.424 . S
C297 C302 1.245 . S
C297 C303 1.428 . S
C298 C301 1.260 . S
C298 C302 1.477 . S
C298 H316 0.932 . S
C299 C300 1.384 . S
C299 C301 1.479 . S
C299 H317 0.929 . S
C300 C297 1.424 . S
C300 C299 1.384 . S
C300 H318 0.928 . S
C301 C298 1.260 . S
C301 C299 1.479 . S
C302 C297 1.245 . S
C302 C298 1.477 . S
C302 H319 0.932 . S
C303 U286 2.882 . S
C303 C297 1.428 . S
C303 O306 1.301 . S
C303 O307 1.282 . S
O304 U286 2.441 . S
O304 C290 1.249 . S
O305 U286 2.420 . S
O305 C290 1.202 . S
O306 U286 2.455 . S
O306 C303 1.301 . S
O307 U286 2.449 . S
O307 C303 1.282 . S
H308 C281 0.931 . S
H309 C283 0.929 . S
H310 C284 0.930 . S
H311 C285 0.931 . S
H312 C292 0.932 . S
H313 C293 0.930 . S
H314 C294 0.929 . S
H315 C296 0.930 . S
H316 C298 0.932 . S
H317 C299 0.929 . S
H318 C300 0.928 . S
H319 C302 0.932 . S
Sc320 O323 2.025 . S
Sc320 O330 2.105 1_455 S
Sc320 O333 2.105 . S
Sc320 O336 2.105 . S
Sc320 O339 2.105 1_455 S
Sc321 O323 2.025 . S
Sc321 O331 2.105 1_455 S
Sc321 O335 2.105 . S
Sc321 O337 2.105 . S
Sc321 O341 2.105 1_455 S
Sc322 O323 2.025 . S
Sc322 O332 2.105 1_455 S
Sc322 O334 2.105 . S
Sc322 O338 2.105 . S
Sc322 O340 2.105 1_455 S
O323 Sc320 2.025 . S
O323 Sc321 2.025 . S
O323 Sc322 2.025 . S
C324 O330 1.268 . S
C324 O340 1.268 . S
C325 O331 1.268 . S
C325 O339 1.268 . S
C326 O332 1.268 . S
C326 O341 1.268 . S
C327 O333 1.268 . S
C327 O337 1.268 . S
C328 O334 1.268 . S
C328 O336 1.268 . S
C329 O335 1.268 . S
C329 O338 1.268 . S
O330 Sc320 2.105 1_655 S
O330 C324 1.268 . S
O331 Sc321 2.105 1_655 S
O331 C325 1.268 . S
O332 Sc322 2.105 1_655 S
O332 C326 1.268 . S
O333 Sc320 2.105 . S
O333 C327 1.268 . S
O334 Sc322 2.105 . S
O334 C328 1.268 . S
O335 Sc321 2.105 . S
O335 C329 1.268 . S
O336 Sc320 2.105 . S
O336 C328 1.268 . S
O337 Sc321 2.105 . S
O337 C327 1.268 . S
O338 Sc322 2.105 . S
O338 C329 1.268 . S
O339 Sc320 2.105 1_655 S
O339 C325 1.268 . S
O340 Sc322 2.105 1_655 S
O340 C324 1.268 . S
O341 Sc321 2.105 1_655 S
O341 C326 1.268 . S
Sc342 O345 2.025 . S
Sc342 O352 2.105 . S
Sc342 O355 2.105 1_455 S
Sc342 O358 2.105 1_455 S
Sc342 O361 2.105 . S
Sc343 O345 2.025 . S
Sc343 O353 2.105 . S
Sc343 O357 2.105 1_455 S
Sc343 O359 2.105 1_455 S
Sc343 O363 2.105 . S
Sc344 O345 2.025 . S
Sc344 O354 2.105 . S
Sc344 O356 2.105 1_455 S
Sc344 O360 2.105 1_455 S
Sc344 O362 2.105 . S
O345 Sc342 2.025 . S
O345 Sc343 2.025 . S
O345 Sc344 2.025 . S
C346 O352 1.268 . S
C346 O362 1.268 . S
C347 O353 1.268 . S
C347 O361 1.268 . S
C348 O354 1.268 . S
C348 O363 1.268 . S
C349 O355 1.268 . S
C349 O359 1.268 . S
C350 O356 1.268 . S
C350 O358 1.268 . S
C351 O357 1.268 . S
C351 O360 1.268 . S
O352 Sc342 2.105 . S
O352 C346 1.268 . S
O353 Sc343 2.105 . S
O353 C347 1.268 . S
O354 Sc344 2.105 . S
O354 C348 1.268 . S
O355 Sc342 2.105 1_655 S
O355 C349 1.268 . S
O356 Sc344 2.105 1_655 S
O356 C350 1.268 . S
O357 Sc343 2.105 1_655 S
O357 C351 1.268 . S
O358 Sc342 2.105 1_655 S
O358 C350 1.268 . S
O359 Sc343 2.105 1_655 S
O359 C349 1.268 . S
O360 Sc344 2.105 1_655 S
O360 C351 1.268 . S
O361 Sc342 2.105 . S
O361 C347 1.268 . S
O362 Sc344 2.105 . S
O362 C346 1.268 . S
O363 Sc343 2.105 . S
O363 C348 1.268 . S
Sc364 O367 2.025 . S
Sc364 O374 2.105 . S
Sc364 O377 2.105 . S
Sc364 O380 2.105 . S
Sc364 O383 2.105 . S
Sc365 O367 2.025 . S
Sc365 O375 2.105 . S
Sc365 O379 2.105 . S
Sc365 O381 2.105 . S
Sc365 O385 2.105 . S
Sc366 O367 2.025 . S
Sc366 O376 2.105 . S
Sc366 O378 2.105 . S
Sc366 O382 2.105 . S
Sc366 O384 2.105 . S
O367 Sc364 2.025 . S
O367 Sc365 2.025 . S
O367 Sc366 2.025 . S
C368 O374 1.268 . S
C368 O384 1.268 . S
C369 O375 1.268 . S
C369 O383 1.268 . S
C370 O376 1.268 . S
C370 O385 1.268 . S
C371 O377 1.268 . S
C371 O381 1.268 . S
C372 O378 1.268 . S
C372 O380 1.268 . S
C373 O379 1.268 . S
C373 O382 1.268 . S
O374 Sc364 2.105 . S
O374 C368 1.268 . S
O375 Sc365 2.105 . S
O375 C369 1.268 . S
O376 Sc366 2.105 . S
O376 C370 1.268 . S
O377 Sc364 2.105 . S
O377 C371 1.268 . S
O378 Sc366 2.105 . S
O378 C372 1.268 . S
O379 Sc365 2.105 . S
O379 C373 1.268 . S
O380 Sc364 2.105 . S
O380 C372 1.268 . S
O381 Sc365 2.105 . S
O381 C371 1.268 . S
O382 Sc366 2.105 . S
O382 C373 1.268 . S
O383 Sc364 2.105 . S
O383 C369 1.268 . S
O384 Sc366 2.105 . S
O384 C368 1.268 . S
O385 Sc365 2.105 . S
O385 C370 1.268 . S
Sc386 O389 2.025 . S
Sc386 O396 2.105 . S
Sc386 O399 2.105 . S
Sc386 O402 2.105 . S
Sc386 O405 2.105 . S
Sc387 O389 2.025 . S
Sc387 O397 2.105 . S
Sc387 O401 2.105 . S
Sc387 O403 2.105 . S
Sc387 O407 2.105 . S
Sc388 O389 2.025 . S
Sc388 O398 2.105 . S
Sc388 O400 2.105 . S
Sc388 O404 2.105 . S
Sc388 O406 2.105 . S
O389 Sc386 2.025 . S
O389 Sc387 2.025 . S
O389 Sc388 2.025 . S
C390 O396 1.268 . S
C390 O406 1.268 . S
C391 O397 1.268 . S
C391 O405 1.268 . S
C392 O398 1.268 . S
C392 O407 1.268 . S
C393 O399 1.268 . S
C393 O403 1.268 . S
C394 O400 1.268 . S
C394 O402 1.268 . S
C395 O401 1.268 . S
C395 O404 1.268 . S
O396 Sc386 2.105 . S
O396 C390 1.268 . S
O397 Sc387 2.105 . S
O397 C391 1.268 . S
O398 Sc388 2.105 . S
O398 C392 1.268 . S
O399 Sc386 2.105 . S
O399 C393 1.268 . S
O400 Sc388 2.105 . S
O400 C394 1.268 . S
O401 Sc387 2.105 . S
O401 C395 1.268 . S
O402 Sc386 2.105 . S
O402 C394 1.268 . S
O403 Sc387 2.105 . S
O403 C393 1.268 . S
O404 Sc388 2.105 . S
O404 C395 1.268 . S
O405 Sc386 2.105 . S
O405 C391 1.268 . S
O406 Sc388 2.105 . S
O406 C390 1.268 . S
O407 Sc387 2.105 . S
O407 C392 1.268 . S
H408 C416 0.929 . S
H409 C418 0.930 . S
H410 C420 0.930 . S
H411 C423 0.929 . S
H412 C426 0.930 . S
H413 C428 0.960 . S
H414 C428 0.960 . S
H415 C428 0.960 . S
C416 H408 0.929 . S
C416 C417 1.377 . S
C416 C418 1.384 . S
C417 C416 1.377 . S
C417 C423 1.390 . S
C418 H409 0.930 . S
C418 C416 1.384 . S
C418 C419 1.372 . S
C419 C418 1.372 . S
C419 C420 1.400 . S
C419 C424 1.490 . S
C420 H410 0.930 . S
C420 C419 1.400 . S
C420 C423 1.386 . S
H421 C437 0.930 . S
H422 C438 0.931 . S
C423 H411 0.929 . S
C423 C417 1.390 . S
C423 C420 1.386 . S
C424 C419 1.490 . S
C424 C426 1.395 . S
C424 C427 1.403 . S
H425 C431 0.930 . S
C426 H412 0.930 . S
C426 C424 1.395 . S
C426 C429 1.403 . S
C427 C424 1.403 . S
C427 C428 1.524 . S
C427 C431 1.400 . S
C428 H413 0.960 . S
C428 H414 0.960 . S
C428 H415 0.960 . S
C428 C427 1.524 . S
C429 C426 1.403 . S
C429 C430 1.392 . S
C429 C433 1.495 . S
C430 C429 1.392 . S
C430 C431 1.385 . S
C430 C432 1.478 . S
C431 H425 0.930 . S
C431 C427 1.400 . S
C431 C430 1.385 . S
C432 C430 1.478 . S
C432 C434 1.381 . S
C432 C438 1.383 . S
C433 C429 1.495 . S
C433 H439 0.959 . S
C433 H440 0.961 . S
C433 H441 0.960 . S
C434 C432 1.381 . S
C434 C435 1.394 . S
C434 H442 0.930 . S
C435 C434 1.394 . S
C435 C436 1.383 . S
C435 H443 0.929 . S
C436 C435 1.383 . S
C436 C437 1.377 . S
C437 H421 0.930 . S
C437 C436 1.377 . S
C437 C438 1.379 . S
C438 H422 0.931 . S
C438 C432 1.383 . S
C438 C437 1.379 . S
H439 C433 0.959 . S
H440 C433 0.961 . S
H441 C433 0.960 . S
H442 C434 0.930 . S
H443 C435 0.929 . S
H444 C452 0.929 . S
H445 C454 0.930 . S
H446 C456 0.930 . S
H447 C459 0.929 . S
H448 C462 0.930 . S
H449 C464 0.960 . S
H450 C464 0.960 . S
H451 C464 0.960 . S
C452 H444 0.929 . S
C452 C453 1.377 . S
C452 C454 1.384 . S
C453 C452 1.377 . S
C453 C459 1.390 . S
C454 H445 0.930 . S
C454 C452 1.384 . S
C454 C455 1.372 . S
C455 C454 1.372 . S
C455 C456 1.400 . S
C455 C460 1.490 . S
C456 H446 0.930 . S
C456 C455 1.400 . S
C456 C459 1.386 . S
H457 C473 0.930 . S
H458 C474 0.931 . S
C459 H447 0.929 . S
C459 C453 1.390 . S
C459 C456 1.386 . S
C460 C455 1.490 . S
C460 C462 1.395 . S
C460 C463 1.403 . S
H461 C467 0.930 . S
C462 H448 0.930 . S
C462 C460 1.395 . S
C462 C465 1.403 . S
C463 C460 1.403 . S
C463 C464 1.524 . S
C463 C467 1.400 . S
C464 H449 0.960 . S
C464 H450 0.960 . S
C464 H451 0.960 . S
C464 C463 1.524 . S
C465 C462 1.403 . S
C465 C466 1.392 . S
C465 C469 1.495 . S
C466 C465 1.392 . S
C466 C467 1.385 . S
C466 C468 1.478 . S
C467 H461 0.930 . S
C467 C463 1.400 . S
C467 C466 1.385 . S
C468 C466 1.478 . S
C468 C470 1.381 . S
C468 C474 1.383 . S
C469 C465 1.495 . S
C469 H475 0.959 . S
C469 H476 0.961 . S
C469 H477 0.960 . S
C470 C468 1.381 . S
C470 C471 1.394 . S
C470 H478 0.930 . S
C471 C470 1.394 . S
C471 C472 1.383 . S
C471 H479 0.929 . S
C472 C471 1.383 . S
C472 C473 1.377 . S
C473 H457 0.930 . S
C473 C472 1.377 . S
C473 C474 1.379 . S
C474 H458 0.931 . S
C474 C468 1.383 . S
C474 C473 1.379 . S
H475 C469 0.959 . S
H476 C469 0.961 . S
H477 C469 0.960 . S
H478 C470 0.930 . S
H479 C471 0.929 . S
H480 C488 0.929 . S
H481 C490 0.930 . S
H482 C492 0.930 . S
H483 C495 0.929 . S
H484 C498 0.930 . S
H485 C500 0.960 . S
H486 C500 0.960 . S
H487 C500 0.960 . S
C488 H480 0.929 . S
C488 C489 1.377 . S
C488 C490 1.384 . S
C489 C488 1.377 . S
C489 C495 1.390 . S
C490 H481 0.930 . S
C490 C488 1.384 . S
C490 C491 1.372 . S
C491 C490 1.372 . S
C491 C492 1.400 . S
C491 C496 1.490 . S
C492 H482 0.930 . S
C492 C491 1.400 . S
C492 C495 1.386 . S
H493 C509 0.930 . S
H494 C510 0.931 . S
C495 H483 0.929 . S
C495 C489 1.390 . S
C495 C492 1.386 . S
C496 C491 1.490 . S
C496 C498 1.395 . S
C496 C499 1.403 . S
H497 C503 0.930 . S
C498 H484 0.930 . S
C498 C496 1.395 . S
C498 C501 1.403 . S
C499 C496 1.403 . S
C499 C500 1.524 . S
C499 C503 1.400 . S
C500 H485 0.960 . S
C500 H486 0.960 . S
C500 H487 0.960 . S
C500 C499 1.524 . S
C501 C498 1.403 . S
C501 C502 1.392 . S
C501 C505 1.495 . S
C502 C501 1.392 . S
C502 C503 1.385 . S
C502 C504 1.478 . S
C503 H497 0.930 . S
C503 C499 1.400 . S
C503 C502 1.385 . S
C504 C502 1.478 . S
C504 C506 1.381 . S
C504 C510 1.383 . S
C505 C501 1.495 . S
C505 H511 0.959 . S
C505 H512 0.961 . S
C505 H513 0.960 . S
C506 C504 1.381 . S
C506 C507 1.394 . S
C506 H514 0.930 . S
C507 C506 1.394 . S
C507 C508 1.383 . S
C507 H515 0.929 . S
C508 C507 1.383 . S
C508 C509 1.377 . S
C509 H493 0.930 . S
C509 C508 1.377 . S
C509 C510 1.379 . S
C510 H494 0.931 . S
C510 C504 1.383 . S
C510 C509 1.379 . S
H511 C505 0.959 . S
H512 C505 0.961 . S
H513 C505 0.960 . S
H514 C506 0.930 . S
H515 C507 0.929 . S
H516 C524 0.929 . S
H517 C526 0.930 . S
H518 C528 0.930 . S
H519 C531 0.929 . S
H520 C534 0.930 . S
H521 C536 0.960 . S
H522 C536 0.960 . S
H523 C536 0.960 . S
C524 H516 0.929 . S
C524 C525 1.377 . S
C524 C526 1.384 . S
C525 C524 1.377 . S
C525 C531 1.390 . S
C526 H517 0.930 . S
C526 C524 1.384 . S
C526 C527 1.372 . S
C527 C526 1.372 . S
C527 C528 1.400 . S
C527 C532 1.490 . S
C528 H518 0.930 . S
C528 C527 1.400 . S
C528 C531 1.386 . S
H529 C545 0.930 . S
H530 C546 0.931 . S
C531 H519 0.929 . S
C531 C525 1.390 . S
C531 C528 1.386 . S
C532 C527 1.490 . S
C532 C534 1.395 . S
C532 C535 1.403 . S
H533 C539 0.930 . S
C534 H520 0.930 . S
C534 C532 1.395 . S
C534 C537 1.403 . S
C535 C532 1.403 . S
C535 C536 1.524 . S
C535 C539 1.400 . S
C536 H521 0.960 . S
C536 H522 0.960 . S
C536 H523 0.960 . S
C536 C535 1.524 . S
C537 C534 1.403 . S
C537 C538 1.392 . S
C537 C541 1.495 . S
C538 C537 1.392 . S
C538 C539 1.385 . S
C538 C540 1.478 . S
C539 H533 0.930 . S
C539 C535 1.400 . S
C539 C538 1.385 . S
C540 C538 1.478 . S
C540 C542 1.381 . S
C540 C546 1.383 . S
C541 C537 1.495 . S
C541 H547 0.959 . S
C541 H548 0.961 . S
C541 H549 0.960 . S
C542 C540 1.381 . S
C542 C543 1.394 . S
C542 H550 0.930 . S
C543 C542 1.394 . S
C543 C544 1.383 . S
C543 H551 0.929 . S
C544 C543 1.383 . S
C544 C545 1.377 . S
C545 H529 0.930 . S
C545 C544 1.377 . S
C545 C546 1.379 . S
C546 H530 0.931 . S
C546 C540 1.383 . S
C546 C545 1.379 . S
H547 C541 0.959 . S
H548 C541 0.961 . S
H549 C541 0.960 . S
H550 C542 0.930 . S
H551 C543 0.929 . S
H552 C560 0.929 . S
H553 C562 0.930 . S
H554 C564 0.930 . S
H555 C567 0.929 . S
H556 C570 0.930 . S
H557 C572 0.960 . S
H558 C572 0.960 . S
H559 C572 0.960 . S
C560 H552 0.929 . S
C560 C561 1.377 . S
C560 C562 1.384 . S
C561 C560 1.377 . S
C561 C567 1.390 . S
C562 H553 0.930 . S
C562 C560 1.384 . S
C562 C563 1.372 . S
C563 C562 1.372 . S
C563 C564 1.400 . S
C563 C568 1.490 . S
C564 H554 0.930 . S
C564 C563 1.400 . S
C564 C567 1.386 . S
H565 C581 0.930 . S
H566 C582 0.931 . S
C567 H555 0.929 . S
C567 C561 1.390 . S
C567 C564 1.386 . S
C568 C563 1.490 . S
C568 C570 1.395 . S
C568 C571 1.403 . S
H569 C575 0.930 . S
C570 H556 0.930 . S
C570 C568 1.395 . S
C570 C573 1.403 . S
C571 C568 1.403 . S
C571 C572 1.524 . S
C571 C575 1.400 . S
C572 H557 0.960 . S
C572 H558 0.960 . S
C572 H559 0.960 . S
C572 C571 1.524 . S
C573 C570 1.403 . S
C573 C574 1.392 . S
C573 C577 1.495 . S
C574 C573 1.392 . S
C574 C575 1.385 . S
C574 C576 1.478 . S
C575 H569 0.930 . S
C575 C571 1.400 . S
C575 C574 1.385 . S
C576 C574 1.478 . S
C576 C578 1.381 . S
C576 C582 1.383 . S
C577 C573 1.495 . S
C577 H583 0.959 . S
C577 H584 0.961 . S
C577 H585 0.960 . S
C578 C576 1.381 . S
C578 C579 1.394 . S
C578 H586 0.930 . S
C579 C578 1.394 . S
C579 C580 1.383 . S
C579 H587 0.929 . S
C580 C579 1.383 . S
C580 C581 1.377 . S
C581 H565 0.930 . S
C581 C580 1.377 . S
C581 C582 1.379 . S
C582 H566 0.931 . S
C582 C576 1.383 . S
C582 C581 1.379 . S
H583 C577 0.959 . S
H584 C577 0.961 . S
H585 C577 0.960 . S
H586 C578 0.930 . S
H587 C579 0.929 . S
H588 C596 0.929 . S
H589 C598 0.930 . S
H590 C600 0.930 . S
H591 C603 0.929 . S
H592 C606 0.930 . S
H593 C608 0.960 . S
H594 C608 0.960 . S
H595 C608 0.960 . S
C596 H588 0.929 . S
C596 C597 1.377 . S
C596 C598 1.384 . S
C597 C596 1.377 . S
C597 C603 1.390 . S
C598 H589 0.930 . S
C598 C596 1.384 . S
C598 C599 1.372 . S
C599 C598 1.372 . S
C599 C600 1.400 . S
C599 C604 1.490 . S
C600 H590 0.930 . S
C600 C599 1.400 . S
C600 C603 1.386 . S
H601 C617 0.930 . S
H602 C618 0.931 . S
C603 H591 0.929 . S
C603 C597 1.390 . S
C603 C600 1.386 . S
C604 C599 1.490 . S
C604 C606 1.395 . S
C604 C607 1.403 . S
H605 C611 0.930 . S
C606 H592 0.930 . S
C606 C604 1.395 . S
C606 C609 1.403 . S
C607 C604 1.403 . S
C607 C608 1.524 . S
C607 C611 1.400 . S
C608 H593 0.960 . S
C608 H594 0.960 . S
C608 H595 0.960 . S
C608 C607 1.524 . S
C609 C606 1.403 . S
C609 C610 1.392 . S
C609 C613 1.495 . S
C610 C609 1.392 . S
C610 C611 1.385 . S
C610 C612 1.478 . S
C611 H605 0.930 . S
C611 C607 1.400 . S
C611 C610 1.385 . S
C612 C610 1.478 . S
C612 C614 1.381 . S
C612 C618 1.383 . S
C613 C609 1.495 . S
C613 H619 0.959 . S
C613 H620 0.961 . S
C613 H621 0.960 . S
C614 C612 1.381 . S
C614 C615 1.394 . S
C614 H622 0.930 . S
C615 C614 1.394 . S
C615 C616 1.383 . S
C615 H623 0.929 . S
C616 C615 1.383 . S
C616 C617 1.377 . S
C617 H601 0.930 . S
C617 C616 1.377 . S
C617 C618 1.379 . S
C618 H602 0.931 . S
C618 C612 1.383 . S
C618 C617 1.379 . S
H619 C613 0.959 . S
H620 C613 0.961 . S
H621 C613 0.960 . S
H622 C614 0.930 . S
H623 C615 0.929 . S
H624 C632 0.929 . S
H625 C634 0.930 . S
H626 C636 0.930 . S
H627 C639 0.929 . S
H628 C642 0.930 . S
H629 C644 0.960 . S
H630 C644 0.960 . S
H631 C644 0.960 . S
C632 H624 0.929 . S
C632 C633 1.377 . S
C632 C634 1.384 . S
C633 C632 1.377 . S
C633 C639 1.390 . S
C634 H625 0.930 . S
C634 C632 1.384 . S
C634 C635 1.372 . S
C635 C634 1.372 . S
C635 C636 1.400 . S
C635 C640 1.490 . S
C636 H626 0.930 . S
C636 C635 1.400 . S
C636 C639 1.386 . S
H637 C653 0.930 . S
H638 C654 0.931 . S
C639 H627 0.929 . S
C639 C633 1.390 . S
C639 C636 1.386 . S
C640 C635 1.490 . S
C640 C642 1.395 . S
C640 C643 1.403 . S
H641 C647 0.930 . S
C642 H628 0.930 . S
C642 C640 1.395 . S
C642 C645 1.403 . S
C643 C640 1.403 . S
C643 C644 1.524 . S
C643 C647 1.400 . S
C644 H629 0.960 . S
C644 H630 0.960 . S
C644 H631 0.960 . S
C644 C643 1.524 . S
C645 C642 1.403 . S
C645 C646 1.392 . S
C645 C649 1.495 . S
C646 C645 1.392 . S
C646 C647 1.385 . S
C646 C648 1.478 . S
C647 H641 0.930 . S
C647 C643 1.400 . S
C647 C646 1.385 . S
C648 C646 1.478 . S
C648 C650 1.381 . S
C648 C654 1.383 . S
C649 C645 1.495 . S
C649 H655 0.959 . S
C649 H656 0.961 . S
C649 H657 0.960 . S
C650 C648 1.381 . S
C650 C651 1.394 . S
C650 H658 0.930 . S
C651 C650 1.394 . S
C651 C652 1.383 . S
C651 H659 0.929 . S
C652 C651 1.383 . S
C652 C653 1.377 . S
C653 H637 0.930 . S
C653 C652 1.377 . S
C653 C654 1.379 . S
C654 H638 0.931 . S
C654 C648 1.383 . S
C654 C653 1.379 . S
H655 C649 0.959 . S
H656 C649 0.961 . S
H657 C649 0.960 . S
H658 C650 0.930 . S
H659 C651 0.929 . S
H660 C668 0.929 . S
H661 C670 0.930 . S
H662 C672 0.930 . S
H663 C675 0.929 . S
H664 C678 0.930 . S
H665 C680 0.960 . S
H666 C680 0.960 . S
H667 C680 0.960 . S
C668 H660 0.929 . S
C668 C669 1.377 . S
C668 C670 1.384 . S
C669 C668 1.377 . S
C669 C675 1.390 . S
C670 H661 0.930 . S
C670 C668 1.384 . S
C670 C671 1.372 . S
C671 C670 1.372 . S
C671 C672 1.400 . S
C671 C676 1.490 . S
C672 H662 0.930 . S
C672 C671 1.400 . S
C672 C675 1.386 . S
H673 C689 0.930 . S
H674 C690 0.931 . S
C675 H663 0.929 . S
C675 C669 1.390 . S
C675 C672 1.386 . S
C676 C671 1.490 . S
C676 C678 1.395 . S
C676 C679 1.403 . S
H677 C683 0.930 . S
C678 H664 0.930 . S
C678 C676 1.395 . S
C678 C681 1.403 . S
C679 C676 1.403 . S
C679 C680 1.524 . S
C679 C683 1.400 . S
C680 H665 0.960 . S
C680 H666 0.960 . S
C680 H667 0.960 . S
C680 C679 1.524 . S
C681 C678 1.403 . S
C681 C682 1.392 . S
C681 C685 1.495 . S
C682 C681 1.392 . S
C682 C683 1.385 . S
C682 C684 1.478 . S
C683 H677 0.930 . S
C683 C679 1.400 . S
C683 C682 1.385 . S
C684 C682 1.478 . S
C684 C686 1.381 . S
C684 C690 1.383 . S
C685 C681 1.495 . S
C685 H691 0.959 . S
C685 H692 0.961 . S
C685 H693 0.960 . S
C686 C684 1.381 . S
C686 C687 1.394 . S
C686 H694 0.930 . S
C687 C686 1.394 . S
C687 C688 1.383 . S
C687 H695 0.929 . S
C688 C687 1.383 . S
C688 C689 1.377 . S
C689 H673 0.930 . S
C689 C688 1.377 . S
C689 C690 1.379 . S
C690 H674 0.931 . S
C690 C684 1.383 . S
C690 C689 1.379 . S
H691 C685 0.959 . S
H692 C685 0.961 . S
H693 C685 0.960 . S
H694 C686 0.930 . S
H695 C687 0.929 . S
H696 C704 0.929 . S
H697 C706 0.930 . S
H698 C708 0.930 . S
H699 C711 0.929 . S
H700 C714 0.930 . S
H701 C716 0.960 . S
H702 C716 0.960 . S
H703 C716 0.960 . S
C704 H696 0.929 . S
C704 C705 1.377 . S
C704 C706 1.384 . S
C705 C704 1.377 . S
C705 C711 1.390 . S
C706 H697 0.930 . S
C706 C704 1.384 . S
C706 C707 1.372 . S
C707 C706 1.372 . S
C707 C708 1.400 . S
C707 C712 1.490 . S
C708 H698 0.930 . S
C708 C707 1.400 . S
C708 C711 1.386 . S
H709 C725 0.930 . S
H710 C726 0.931 . S
C711 H699 0.929 . S
C711 C705 1.390 . S
C711 C708 1.386 . S
C712 C707 1.490 . S
C712 C714 1.395 . S
C712 C715 1.403 . S
H713 C719 0.930 . S
C714 H700 0.930 . S
C714 C712 1.395 . S
C714 C717 1.403 . S
C715 C712 1.403 . S
C715 C716 1.524 . S
C715 C719 1.400 . S
C716 H701 0.960 . S
C716 H702 0.960 . S
C716 H703 0.960 . S
C716 C715 1.524 . S
C717 C714 1.403 . S
C717 C718 1.392 . S
C717 C721 1.495 . S
C718 C717 1.392 . S
C718 C719 1.385 . S
C718 C720 1.478 . S
C719 H713 0.930 . S
C719 C715 1.400 . S
C719 C718 1.385 . S
C720 C718 1.478 . S
C720 C722 1.381 . S
C720 C726 1.383 . S
C721 C717 1.495 . S
C721 H727 0.959 . S
C721 H728 0.961 . S
C721 H729 0.960 . S
C722 C720 1.381 . S
C722 C723 1.394 . S
C722 H730 0.930 . S
C723 C722 1.394 . S
C723 C724 1.383 . S
C723 H731 0.929 . S
C724 C723 1.383 . S
C724 C725 1.377 . S
C725 H709 0.930 . S
C725 C724 1.377 . S
C725 C726 1.379 . S
C726 H710 0.931 . S
C726 C720 1.383 . S
C726 C725 1.379 . S
H727 C721 0.959 . S
H728 C721 0.961 . S
H729 C721 0.960 . S
H730 C722 0.930 . S
H731 C723 0.929 . S
H732 C740 0.929 . S
H733 C742 0.930 . S
H734 C744 0.930 . S
H735 C747 0.929 . S
H736 C750 0.930 . S
H737 C752 0.960 . S
H738 C752 0.960 . S
H739 C752 0.960 . S
C740 H732 0.929 . S
C740 C741 1.377 . S
C740 C742 1.384 . S
C741 C740 1.377 . S
C741 C747 1.390 . S
C742 H733 0.930 . S
C742 C740 1.384 . S
C742 C743 1.372 . S
C743 C742 1.372 . S
C743 C744 1.400 . S
C743 C748 1.490 . S
C744 H734 0.930 . S
C744 C743 1.400 . S
C744 C747 1.386 . S
H745 C761 0.930 . S
H746 C762 0.931 . S
C747 H735 0.929 . S
C747 C741 1.390 . S
C747 C744 1.386 . S
C748 C743 1.490 . S
C748 C750 1.395 . S
C748 C751 1.403 . S
H749 C755 0.930 . S
C750 H736 0.930 . S
C750 C748 1.395 . S
C750 C753 1.403 . S
C751 C748 1.403 . S
C751 C752 1.524 . S
C751 C755 1.400 . S
C752 H737 0.960 . S
C752 H738 0.960 . S
C752 H739 0.960 . S
C752 C751 1.524 . S
C753 C750 1.403 . S
C753 C754 1.392 . S
C753 C757 1.495 . S
C754 C753 1.392 . S
C754 C755 1.385 . S
C754 C756 1.478 . S
C755 H749 0.930 . S
C755 C751 1.400 . S
C755 C754 1.385 . S
C756 C754 1.478 . S
C756 C758 1.381 . S
C756 C762 1.383 . S
C757 C753 1.495 . S
C757 H763 0.959 . S
C757 H764 0.961 . S
C757 H765 0.960 . S
C758 C756 1.381 . S
C758 C759 1.394 . S
C758 H766 0.930 . S
C759 C758 1.394 . S
C759 C760 1.383 . S
C759 H767 0.929 . S
C760 C759 1.383 . S
C760 C761 1.377 . S
C761 H745 0.930 . S
C761 C760 1.377 . S
C761 C762 1.379 . S
C762 H746 0.931 . S
C762 C756 1.383 . S
C762 C761 1.379 . S
H763 C757 0.959 . S
H764 C757 0.961 . S
H765 C757 0.960 . S
H766 C758 0.930 . S
H767 C759 0.929 . S
H768 C776 0.929 . S
H769 C778 0.930 . S
H770 C780 0.930 . S
H771 C783 0.929 . S
H772 C786 0.930 . S
H773 C788 0.960 . S
H774 C788 0.960 . S
H775 C788 0.960 . S
C776 H768 0.929 . S
C776 C777 1.377 . S
C776 C778 1.384 . S
C777 C776 1.377 . S
C777 C783 1.390 . S
C778 H769 0.930 . S
C778 C776 1.384 . S
C778 C779 1.372 . S
C779 C778 1.372 . S
C779 C780 1.400 . S
C779 C784 1.490 . S
C780 H770 0.930 . S
C780 C779 1.400 . S
C780 C783 1.386 . S
H781 C797 0.930 . S
H782 C798 0.931 . S
C783 H771 0.929 . S
C783 C777 1.390 . S
C783 C780 1.386 . S
C784 C779 1.490 . S
C784 C786 1.395 . S
C784 C787 1.403 . S
H785 C791 0.930 . S
C786 H772 0.930 . S
C786 C784 1.395 . S
C786 C789 1.403 . S
C787 C784 1.403 . S
C787 C788 1.524 . S
C787 C791 1.400 . S
C788 H773 0.960 . S
C788 H774 0.960 . S
C788 H775 0.960 . S
C788 C787 1.524 . S
C789 C786 1.403 . S
C789 C790 1.392 . S
C789 C793 1.495 . S
C790 C789 1.392 . S
C790 C791 1.385 . S
C790 C792 1.478 . S
C791 H785 0.930 . S
C791 C787 1.400 . S
C791 C790 1.385 . S
C792 C790 1.478 . S
C792 C794 1.381 . S
C792 C798 1.383 . S
C793 C789 1.495 . S
C793 H799 0.959 . S
C793 H800 0.961 . S
C793 H801 0.960 . S
C794 C792 1.381 . S
C794 C795 1.394 . S
C794 H802 0.930 . S
C795 C794 1.394 . S
C795 C796 1.383 . S
C795 H803 0.929 . S
C796 C795 1.383 . S
C796 C797 1.377 . S
C797 H781 0.930 . S
C797 C796 1.377 . S
C797 C798 1.379 . S
C798 H782 0.931 . S
C798 C792 1.383 . S
C798 C797 1.379 . S
H799 C793 0.959 . S
H800 C793 0.961 . S
H801 C793 0.960 . S
H802 C794 0.930 . S
H803 C795 0.929 . S
H804 C812 0.929 . S
H805 C814 0.930 . S
H806 C816 0.930 . S
H807 C819 0.929 . S
H808 C822 0.930 . S
H809 C824 0.960 . S
H810 C824 0.960 . S
H811 C824 0.960 . S
C812 H804 0.929 . S
C812 C813 1.377 . S
C812 C814 1.384 . S
C813 C812 1.377 . S
C813 C819 1.390 . S
C814 H805 0.930 . S
C814 C812 1.384 . S
C814 C815 1.372 . S
C815 C814 1.372 . S
C815 C816 1.400 . S
C815 C820 1.490 . S
C816 H806 0.930 . S
C816 C815 1.400 . S
C816 C819 1.386 . S
H817 C833 0.930 . S
H818 C834 0.931 . S
C819 H807 0.929 . S
C819 C813 1.390 . S
C819 C816 1.386 . S
C820 C815 1.490 . S
C820 C822 1.395 . S
C820 C823 1.403 . S
H821 C827 0.930 . S
C822 H808 0.930 . S
C822 C820 1.395 . S
C822 C825 1.403 . S
C823 C820 1.403 . S
C823 C824 1.524 . S
C823 C827 1.400 . S
C824 H809 0.960 . S
C824 H810 0.960 . S
C824 H811 0.960 . S
C824 C823 1.524 . S
C825 C822 1.403 . S
C825 C826 1.392 . S
C825 C829 1.495 . S
C826 C825 1.392 . S
C826 C827 1.385 . S
C826 C828 1.478 . S
C827 H821 0.930 . S
C827 C823 1.400 . S
C827 C826 1.385 . S
C828 C826 1.478 . S
C828 C830 1.381 . S
C828 C834 1.383 . S
C829 C825 1.495 . S
C829 H835 0.959 . S
C829 H836 0.961 . S
C829 H837 0.960 . S
C830 C828 1.381 . S
C830 C831 1.394 . S
C830 H838 0.930 . S
C831 C830 1.394 . S
C831 C832 1.383 . S
C831 H839 0.929 . S
C832 C831 1.383 . S
C832 C833 1.377 . S
C833 H817 0.930 . S
C833 C832 1.377 . S
C833 C834 1.379 . S
C834 H818 0.931 . S
C834 C828 1.383 . S
C834 C833 1.379 . S
H835 C829 0.959 . S
H836 C829 0.961 . S
H837 C829 0.960 . S
H838 C830 0.930 . S
H839 C831 0.929 . S
H840 C848 0.929 1_565 S
H841 C850 0.930 . S
H842 C852 0.930 . S
H843 C855 0.929 . S
H844 C858 0.930 . S
H845 C860 0.960 . S
H846 C860 0.960 . S
H847 C860 0.960 . S
C848 H840 0.929 1_545 S
C848 C849 1.377 . S
C848 C850 1.384 . S
C849 C848 1.377 . S
C849 C855 1.390 . S
C850 H841 0.930 . S
C850 C848 1.384 . S
C850 C851 1.372 . S
C851 C850 1.372 . S
C851 C852 1.400 . S
C851 C856 1.490 . S
C852 H842 0.930 . S
C852 C851 1.400 . S
C852 C855 1.386 . S
H853 C869 0.930 . S
H854 C870 0.931 . S
C855 H843 0.929 . S
C855 C849 1.390 . S
C855 C852 1.386 . S
C856 C851 1.490 . S
C856 C858 1.395 . S
C856 C859 1.403 . S
H857 C863 0.930 . S
C858 H844 0.930 . S
C858 C856 1.395 . S
C858 C861 1.403 . S
C859 C856 1.403 . S
C859 C860 1.524 . S
C859 C863 1.400 . S
C860 H845 0.960 . S
C860 H846 0.960 . S
C860 H847 0.960 . S
C860 C859 1.524 . S
C861 C858 1.403 . S
C861 C862 1.392 . S
C861 C865 1.495 . S
C862 C861 1.392 . S
C862 C863 1.385 . S
C862 C864 1.478 . S
C863 H857 0.930 . S
C863 C859 1.400 . S
C863 C862 1.385 . S
C864 C862 1.478 . S
C864 C866 1.381 . S
C864 C870 1.383 . S
C865 C861 1.495 . S
C865 H871 0.959 . S
C865 H872 0.961 . S
C865 H873 0.960 . S
C866 C864 1.381 . S
C866 C867 1.394 . S
C866 H874 0.930 . S
C867 C866 1.394 . S
C867 C868 1.383 . S
C867 H875 0.929 . S
C868 C867 1.383 . S
C868 C869 1.377 . S
C869 H853 0.930 . S
C869 C868 1.377 . S
C869 C870 1.379 . S
C870 H854 0.931 . S
C870 C864 1.383 . S
C870 C869 1.379 . S
H871 C865 0.959 . S
H872 C865 0.961 . S
H873 C865 0.960 . S
H874 C866 0.930 . S
H875 C867 0.929 . S
H876 C884 0.929 . S
H877 C886 0.930 . S
H878 C888 0.930 . S
H879 C891 0.929 1_545 S
H880 C894 0.930 . S
H881 C896 0.960 . S
H882 C896 0.960 . S
H883 C896 0.960 . S
C884 H876 0.929 . S
C884 C885 1.377 . S
C884 C886 1.384 . S
C885 C884 1.377 . S
C885 C891 1.390 . S
C886 H877 0.930 . S
C886 C884 1.384 . S
C886 C887 1.372 . S
C887 C886 1.372 . S
C887 C888 1.400 . S
C887 C892 1.490 . S
C888 H878 0.930 . S
C888 C887 1.400 . S
C888 C891 1.386 . S
H889 C905 0.930 . S
H890 C906 0.931 . S
C891 H879 0.929 1_565 S
C891 C885 1.390 . S
C891 C888 1.386 . S
C892 C887 1.490 . S
C892 C894 1.395 . S
C892 C895 1.403 . S
H893 C899 0.930 . S
C894 H880 0.930 . S
C894 C892 1.395 . S
C894 C897 1.403 . S
C895 C892 1.403 . S
C895 C896 1.524 . S
C895 C899 1.400 . S
C896 H881 0.960 . S
C896 H882 0.960 . S
C896 H883 0.960 . S
C896 C895 1.524 . S
C897 C894 1.403 . S
C897 C898 1.392 . S
C897 C901 1.495 . S
C898 C897 1.392 . S
C898 C899 1.385 . S
C898 C900 1.478 . S
C899 H893 0.930 . S
C899 C895 1.400 . S
C899 C898 1.385 . S
C900 C898 1.478 . S
C900 C902 1.381 . S
C900 C906 1.383 . S
C901 C897 1.495 . S
C901 H907 0.959 . S
C901 H908 0.961 . S
C901 H909 0.960 . S
C902 C900 1.381 . S
C902 C903 1.394 . S
C902 H910 0.930 . S
C903 C902 1.394 . S
C903 C904 1.383 . S
C903 H911 0.929 . S
C904 C903 1.383 . S
C904 C905 1.377 . S
C905 H889 0.930 . S
C905 C904 1.377 . S
C905 C906 1.379 . S
C906 H890 0.931 . S
C906 C900 1.383 . S
C906 C905 1.379 . S
H907 C901 0.959 . S
H908 C901 0.961 . S
H909 C901 0.960 . S
H910 C902 0.930 . S
H911 C903 0.929 . S
H912 C920 0.929 1_565 S
H913 C922 0.930 . S
H914 C924 0.930 . S
H915 C927 0.929 . S
H916 C930 0.930 . S
H917 C932 0.960 . S
H918 C932 0.960 . S
H919 C932 0.960 . S
C920 H912 0.929 1_545 S
C920 C921 1.377 . S
C920 C922 1.384 . S
C921 C920 1.377 . S
C921 C927 1.390 . S
C922 H913 0.930 . S
C922 C920 1.384 . S
C922 C923 1.372 . S
C923 C922 1.372 . S
C923 C924 1.400 . S
C923 C928 1.490 . S
C924 H914 0.930 . S
C924 C923 1.400 . S
C924 C927 1.386 . S
H925 C941 0.930 . S
H926 C942 0.931 . S
C927 H915 0.929 . S
C927 C921 1.390 . S
C927 C924 1.386 . S
C928 C923 1.490 . S
C928 C930 1.395 . S
C928 C931 1.403 . S
H929 C935 0.930 . S
C930 H916 0.930 . S
C930 C928 1.395 . S
C930 C933 1.403 . S
C931 C928 1.403 . S
C931 C932 1.524 . S
C931 C935 1.400 . S
C932 H917 0.960 . S
C932 H918 0.960 . S
C932 H919 0.960 . S
C932 C931 1.524 . S
C933 C930 1.403 . S
C933 C934 1.392 . S
C933 C937 1.495 . S
C934 C933 1.392 . S
C934 C935 1.385 . S
C934 C936 1.478 . S
C935 H929 0.930 . S
C935 C931 1.400 . S
C935 C934 1.385 . S
C936 C934 1.478 . S
C936 C938 1.381 . S
C936 C942 1.383 . S
C937 C933 1.495 . S
C937 H943 0.959 . S
C937 H944 0.961 . S
C937 H945 0.960 . S
C938 C936 1.381 . S
C938 C939 1.394 . S
C938 H946 0.930 . S
C939 C938 1.394 . S
C939 C940 1.383 . S
C939 H947 0.929 . S
C940 C939 1.383 . S
C940 C941 1.377 . S
C941 H925 0.930 . S
C941 C940 1.377 . S
C941 C942 1.379 . S
C942 H926 0.931 . S
C942 C936 1.383 . S
C942 C941 1.379 . S
H943 C937 0.959 . S
H944 C937 0.961 . S
H945 C937 0.960 . S
H946 C938 0.930 . S
H947 C939 0.929 . S
H948 C956 0.929 . S
H949 C958 0.930 . S
H950 C960 0.930 . S
H951 C963 0.929 1_545 S
H952 C966 0.930 . S
H953 C968 0.960 . S
H954 C968 0.960 . S
H955 C968 0.960 . S
C956 H948 0.929 . S
C956 C957 1.377 . S
C956 C958 1.384 . S
C957 C956 1.377 . S
C957 C963 1.390 . S
C958 H949 0.930 . S
C958 C956 1.384 . S
C958 C959 1.372 . S
C959 C958 1.372 . S
C959 C960 1.400 . S
C959 C964 1.490 . S
C960 H950 0.930 . S
C960 C959 1.400 . S
C960 C963 1.386 . S
H961 C977 0.930 . S
H962 C978 0.931 . S
C963 H951 0.929 1_565 S
C963 C957 1.390 . S
C963 C960 1.386 . S
C964 C959 1.490 . S
C964 C966 1.395 . S
C964 C967 1.403 . S
H965 C971 0.930 . S
C966 H952 0.930 . S
C966 C964 1.395 . S
C966 C969 1.403 . S
C967 C964 1.403 . S
C967 C968 1.524 . S
C967 C971 1.400 . S
C968 H953 0.960 . S
C968 H954 0.960 . S
C968 H955 0.960 . S
C968 C967 1.524 . S
C969 C966 1.403 . S
C969 C970 1.392 . S
C969 C973 1.495 . S
C970 C969 1.392 . S
C970 C971 1.385 . S
C970 C972 1.478 . S
C971 H965 0.930 . S
C971 C967 1.400 . S
C971 C970 1.385 . S
C972 C970 1.478 . S
C972 C974 1.381 . S
C972 C978 1.383 . S
C973 C969 1.495 . S
C973 H979 0.959 . S
C973 H980 0.961 . S
C973 H981 0.960 . S
C974 C972 1.381 . S
C974 C975 1.394 . S
C974 H982 0.930 . S
C975 C974 1.394 . S
C975 C976 1.383 . S
C975 H983 0.929 . S
C976 C975 1.383 . S
C976 C977 1.377 . S
C977 H961 0.930 . S
C977 C976 1.377 . S
C977 C978 1.379 . S
C978 H962 0.931 . S
C978 C972 1.383 . S
C978 C977 1.379 . S
H979 C973 0.959 . S
H980 C973 0.961 . S
H981 C973 0.960 . S
H982 C974 0.930 . S
H983 C975 0.929 . S
H984 C992 0.929 . S
H985 C994 0.930 . S
H986 C996 0.930 . S
H987 C999 0.929 . S
H988 C1002 0.930 . S
H989 C1004 0.960 . S
H990 C1004 0.960 . S
H991 C1004 0.960 . S
C992 H984 0.929 . S
C992 C993 1.377 . S
C992 C994 1.384 . S
C993 C992 1.377 . S
C993 C999 1.390 . S
C994 H985 0.930 . S
C994 C992 1.384 . S
C994 C995 1.372 . S
C995 C994 1.372 . S
C995 C996 1.400 . S
C995 C1000 1.490 . S
C996 H986 0.930 . S
C996 C995 1.400 . S
C996 C999 1.386 . S
H997 C1013 0.930 . S
H998 C1014 0.931 . S
C999 H987 0.929 . S
C999 C993 1.390 . S
C999 C996 1.386 . S
C1000 C995 1.490 . S
C1000 C1002 1.395 . S
C1000 C1003 1.403 . S
H1001 C1007 0.930 . S
C1002 H988 0.930 . S
C1002 C1000 1.395 . S
C1002 C1005 1.403 . S
C1003 C1000 1.403 . S
C1003 C1004 1.524 . S
C1003 C1007 1.400 . S
C1004 H989 0.960 . S
C1004 H990 0.960 . S
C1004 H991 0.960 . S
C1004 C1003 1.524 . S
C1005 C1002 1.403 . S
C1005 C1006 1.392 . S
C1005 C1009 1.495 . S
C1006 C1005 1.392 . S
C1006 C1007 1.385 . S
C1006 C1008 1.478 . S
C1007 H1001 0.930 . S
C1007 C1003 1.400 . S
C1007 C1006 1.385 . S
C1008 C1006 1.478 . S
C1008 C1010 1.381 . S
C1008 C1014 1.383 . S
C1009 C1005 1.495 . S
C1009 H1015 0.959 . S
C1009 H1016 0.961 . S
C1009 H1017 0.960 . S
C1010 C1008 1.381 . S
C1010 C1011 1.394 . S
C1010 H1018 0.930 . S
C1011 C1010 1.394 . S
C1011 C1012 1.383 . S
C1011 H1019 0.929 . S
C1012 C1011 1.383 . S
C1012 C1013 1.377 . S
C1013 H997 0.930 . S
C1013 C1012 1.377 . S
C1013 C1014 1.379 . S
C1014 H998 0.931 . S
C1014 C1008 1.383 . S
C1014 C1013 1.379 . S
H1015 C1009 0.959 . S
H1016 C1009 0.961 . S
H1017 C1009 0.960 . S
H1018 C1010 0.930 . S
H1019 C1011 0.929 . S
H1020 C1028 0.929 . S
H1021 C1030 0.930 . S
H1022 C1032 0.930 . S
H1023 C1035 0.929 . S
H1024 C1038 0.930 . S
H1025 C1040 0.960 . S
H1026 C1040 0.960 . S
H1027 C1040 0.960 . S
C1028 H1020 0.929 . S
C1028 C1029 1.377 . S
C1028 C1030 1.384 . S
C1029 C1028 1.377 . S
C1029 C1035 1.390 . S
C1030 H1021 0.930 . S
C1030 C1028 1.384 . S
C1030 C1031 1.372 . S
C1031 C1030 1.372 . S
C1031 C1032 1.400 . S
C1031 C1036 1.490 . S
C1032 H1022 0.930 . S
C1032 C1031 1.400 . S
C1032 C1035 1.386 . S
H1033 C1049 0.930 . S
H1034 C1050 0.931 . S
C1035 H1023 0.929 . S
C1035 C1029 1.390 . S
C1035 C1032 1.386 . S
C1036 C1031 1.490 . S
C1036 C1038 1.395 . S
C1036 C1039 1.403 . S
H1037 C1043 0.930 . S
C1038 H1024 0.930 . S
C1038 C1036 1.395 . S
C1038 C1041 1.403 . S
C1039 C1036 1.403 . S
C1039 C1040 1.524 . S
C1039 C1043 1.400 . S
C1040 H1025 0.960 . S
C1040 H1026 0.960 . S
C1040 H1027 0.960 . S
C1040 C1039 1.524 . S
C1041 C1038 1.403 . S
C1041 C1042 1.392 . S
C1041 C1045 1.495 . S
C1042 C1041 1.392 . S
C1042 C1043 1.385 . S
C1042 C1044 1.478 . S
C1043 H1037 0.930 . S
C1043 C1039 1.400 . S
C1043 C1042 1.385 . S
C1044 C1042 1.478 . S
C1044 C1046 1.381 . S
C1044 C1050 1.383 . S
C1045 C1041 1.495 . S
C1045 H1051 0.959 . S
C1045 H1052 0.961 . S
C1045 H1053 0.960 . S
C1046 C1044 1.381 . S
C1046 C1047 1.394 . S
C1046 H1054 0.930 . S
C1047 C1046 1.394 . S
C1047 C1048 1.383 . S
C1047 H1055 0.929 . S
C1048 C1047 1.383 . S
C1048 C1049 1.377 . S
C1049 H1033 0.930 . S
C1049 C1048 1.377 . S
C1049 C1050 1.379 . S
C1050 H1034 0.931 . S
C1050 C1044 1.383 . S
C1050 C1049 1.379 . S
H1051 C1045 0.959 . S
H1052 C1045 0.961 . S
H1053 C1045 0.960 . S
H1054 C1046 0.930 . S
H1055 C1047 0.929 . S
H1056 C1064 0.929 . S
H1057 C1066 0.930 . S
H1058 C1068 0.930 . S
H1059 C1071 0.929 . S
H1060 C1074 0.930 . S
H1061 C1076 0.960 . S
H1062 C1076 0.960 . S
H1063 C1076 0.960 . S
C1064 H1056 0.929 . S
C1064 C1065 1.377 . S
C1064 C1066 1.384 . S
C1065 C1064 1.377 . S
C1065 C1071 1.390 . S
C1066 H1057 0.930 . S
C1066 C1064 1.384 . S
C1066 C1067 1.372 . S
C1067 C1066 1.372 . S
C1067 C1068 1.400 . S
C1067 C1072 1.490 . S
C1068 H1058 0.930 . S
C1068 C1067 1.400 . S
C1068 C1071 1.386 . S
H1069 C1085 0.930 . S
H1070 C1086 0.931 . S
C1071 H1059 0.929 . S
C1071 C1065 1.390 . S
C1071 C1068 1.386 . S
C1072 C1067 1.490 . S
C1072 C1074 1.395 . S
C1072 C1075 1.403 . S
H1073 C1079 0.930 . S
C1074 H1060 0.930 . S
C1074 C1072 1.395 . S
C1074 C1077 1.403 . S
C1075 C1072 1.403 . S
C1075 C1076 1.524 . S
C1075 C1079 1.400 . S
C1076 H1061 0.960 . S
C1076 H1062 0.960 . S
C1076 H1063 0.960 . S
C1076 C1075 1.524 . S
C1077 C1074 1.403 . S
C1077 C1078 1.392 . S
C1077 C1081 1.495 . S
C1078 C1077 1.392 . S
C1078 C1079 1.385 . S
C1078 C1080 1.478 . S
C1079 H1073 0.930 . S
C1079 C1075 1.400 . S
C1079 C1078 1.385 . S
C1080 C1078 1.478 . S
C1080 C1082 1.381 . S
C1080 C1086 1.383 . S
C1081 C1077 1.495 . S
C1081 H1087 0.959 . S
C1081 H1088 0.961 . S
C1081 H1089 0.960 . S
C1082 C1080 1.381 . S
C1082 C1083 1.394 . S
C1082 H1090 0.930 . S
C1083 C1082 1.394 . S
C1083 C1084 1.383 . S
C1083 H1091 0.929 . S
C1084 C1083 1.383 . S
C1084 C1085 1.377 . S
C1085 H1069 0.930 . S
C1085 C1084 1.377 . S
C1085 C1086 1.379 . S
C1086 H1070 0.931 . S
C1086 C1080 1.383 . S
C1086 C1085 1.379 . S
H1087 C1081 0.959 . S
H1088 C1081 0.961 . S
H1089 C1081 0.960 . S
H1090 C1082 0.930 . S
H1091 C1083 0.929 . S
H1092 C1100 0.929 . S
H1093 C1102 0.930 . S
H1094 C1104 0.930 . S
H1095 C1107 0.929 . S
H1096 C1110 0.930 . S
H1097 C1112 0.960 . S
H1098 C1112 0.960 . S
H1099 C1112 0.960 . S
C1100 H1092 0.929 . S
C1100 C1101 1.377 . S
C1100 C1102 1.384 . S
C1101 C1100 1.377 . S
C1101 C1107 1.390 . S
C1102 H1093 0.930 . S
C1102 C1100 1.384 . S
C1102 C1103 1.372 . S
C1103 C1102 1.372 . S
C1103 C1104 1.400 . S
C1103 C1108 1.490 . S
C1104 H1094 0.930 . S
C1104 C1103 1.400 . S
C1104 C1107 1.386 . S
H1105 C1121 0.930 . S
H1106 C1122 0.931 . S
C1107 H1095 0.929 . S
C1107 C1101 1.390 . S
C1107 C1104 1.386 . S
C1108 C1103 1.490 . S
C1108 C1110 1.395 . S
C1108 C1111 1.403 . S
H1109 C1115 0.930 . S
C1110 H1096 0.930 . S
C1110 C1108 1.395 . S
C1110 C1113 1.403 . S
C1111 C1108 1.403 . S
C1111 C1112 1.524 . S
C1111 C1115 1.400 . S
C1112 H1097 0.960 . S
C1112 H1098 0.960 . S
C1112 H1099 0.960 . S
C1112 C1111 1.524 . S
C1113 C1110 1.403 . S
C1113 C1114 1.392 . S
C1113 C1117 1.495 . S
C1114 C1113 1.392 . S
C1114 C1115 1.385 . S
C1114 C1116 1.478 . S
C1115 H1109 0.930 . S
C1115 C1111 1.400 . S
C1115 C1114 1.385 . S
C1116 C1114 1.478 . S
C1116 C1118 1.381 . S
C1116 C1122 1.383 . S
C1117 C1113 1.495 . S
C1117 H1123 0.959 . S
C1117 H1124 0.961 . S
C1117 H1125 0.960 . S
C1118 C1116 1.381 . S
C1118 C1119 1.394 . S
C1118 H1126 0.930 . S
C1119 C1118 1.394 . S
C1119 C1120 1.383 . S
C1119 H1127 0.929 . S
C1120 C1119 1.383 . S
C1120 C1121 1.377 . S
C1121 H1105 0.930 . S
C1121 C1120 1.377 . S
C1121 C1122 1.379 . S
C1122 H1106 0.931 . S
C1122 C1116 1.383 . S
C1122 C1121 1.379 . S
H1123 C1117 0.959 . S
H1124 C1117 0.961 . S
H1125 C1117 0.960 . S
H1126 C1118 0.930 . S
H1127 C1119 0.929 . S
H1128 C1136 0.929 . S
H1129 C1138 0.930 . S
H1130 C1140 0.930 . S
H1131 C1143 0.929 . S
H1132 C1146 0.930 . S
H1133 C1148 0.960 . S
H1134 C1148 0.960 . S
H1135 C1148 0.960 . S
C1136 H1128 0.929 . S
C1136 C1137 1.377 . S
C1136 C1138 1.384 . S
C1137 C1136 1.377 . S
C1137 C1143 1.390 . S
C1138 H1129 0.930 . S
C1138 C1136 1.384 . S
C1138 C1139 1.372 . S
C1139 C1138 1.372 . S
C1139 C1140 1.400 . S
C1139 C1144 1.490 . S
C1140 H1130 0.930 . S
C1140 C1139 1.400 . S
C1140 C1143 1.386 . S
H1141 C1157 0.930 . S
H1142 C1158 0.931 . S
C1143 H1131 0.929 . S
C1143 C1137 1.390 . S
C1143 C1140 1.386 . S
C1144 C1139 1.490 . S
C1144 C1146 1.395 . S
C1144 C1147 1.403 . S
H1145 C1151 0.930 . S
C1146 H1132 0.930 . S
C1146 C1144 1.395 . S
C1146 C1149 1.403 . S
C1147 C1144 1.403 . S
C1147 C1148 1.524 . S
C1147 C1151 1.400 . S
C1148 H1133 0.960 . S
C1148 H1134 0.960 . S
C1148 H1135 0.960 . S
C1148 C1147 1.524 . S
C1149 C1146 1.403 . S
C1149 C1150 1.392 . S
C1149 C1153 1.495 . S
C1150 C1149 1.392 . S
C1150 C1151 1.385 . S
C1150 C1152 1.478 . S
C1151 H1145 0.930 . S
C1151 C1147 1.400 . S
C1151 C1150 1.385 . S
C1152 C1150 1.478 . S
C1152 C1154 1.381 . S
C1152 C1158 1.383 . S
C1153 C1149 1.495 . S
C1153 H1159 0.959 . S
C1153 H1160 0.961 . S
C1153 H1161 0.960 . S
C1154 C1152 1.381 . S
C1154 C1155 1.394 . S
C1154 H1162 0.930 . S
C1155 C1154 1.394 . S
C1155 C1156 1.383 . S
C1155 H1163 0.929 . S
C1156 C1155 1.383 . S
C1156 C1157 1.377 . S
C1157 H1141 0.930 . S
C1157 C1156 1.377 . S
C1157 C1158 1.379 . S
C1158 H1142 0.931 . S
C1158 C1152 1.383 . S
C1158 C1157 1.379 . S
H1159 C1153 0.959 . S
H1160 C1153 0.961 . S
H1161 C1153 0.960 . S
H1162 C1154 0.930 . S
H1163 C1155 0.929 . S
H1164 C1172 0.929 . S
H1165 C1174 0.930 . S
H1166 C1176 0.930 . S
H1167 C1179 0.929 . S
H1168 C1182 0.930 . S
H1169 C1184 0.960 . S
H1170 C1184 0.960 . S
H1171 C1184 0.960 . S
C1172 H1164 0.929 . S
C1172 C1173 1.377 . S
C1172 C1174 1.384 . S
C1173 C1172 1.377 . S
C1173 C1179 1.390 . S
C1174 H1165 0.930 . S
C1174 C1172 1.384 . S
C1174 C1175 1.372 . S
C1175 C1174 1.372 . S
C1175 C1176 1.400 . S
C1175 C1180 1.490 . S
C1176 H1166 0.930 . S
C1176 C1175 1.400 . S
C1176 C1179 1.386 . S
H1177 C1193 0.930 . S
H1178 C1194 0.931 . S
C1179 H1167 0.929 . S
C1179 C1173 1.390 . S
C1179 C1176 1.386 . S
C1180 C1175 1.490 . S
C1180 C1182 1.395 . S
C1180 C1183 1.403 . S
H1181 C1187 0.930 . S
C1182 H1168 0.930 . S
C1182 C1180 1.395 . S
C1182 C1185 1.403 . S
C1183 C1180 1.403 . S
C1183 C1184 1.524 . S
C1183 C1187 1.400 . S
C1184 H1169 0.960 . S
C1184 H1170 0.960 . S
C1184 H1171 0.960 . S
C1184 C1183 1.524 . S
C1185 C1182 1.403 . S
C1185 C1186 1.392 . S
C1185 C1189 1.495 . S
C1186 C1185 1.392 . S
C1186 C1187 1.385 . S
C1186 C1188 1.478 . S
C1187 H1181 0.930 . S
C1187 C1183 1.400 . S
C1187 C1186 1.385 . S
C1188 C1186 1.478 . S
C1188 C1190 1.381 . S
C1188 C1194 1.383 . S
C1189 C1185 1.495 . S
C1189 H1195 0.959 . S
C1189 H1196 0.961 . S
C1189 H1197 0.960 . S
C1190 C1188 1.381 . S
C1190 C1191 1.394 . S
C1190 H1198 0.930 . S
C1191 C1190 1.394 . S
C1191 C1192 1.383 . S
C1191 H1199 0.929 . S
C1192 C1191 1.383 . S
C1192 C1193 1.377 . S
C1193 H1177 0.930 . S
C1193 C1192 1.377 . S
C1193 C1194 1.379 . S
C1194 H1178 0.931 . S
C1194 C1188 1.383 . S
C1194 C1193 1.379 . S
H1195 C1189 0.959 . S
H1196 C1189 0.961 . S
H1197 C1189 0.960 . S
H1198 C1190 0.930 . S
H1199 C1191 0.929 . S
H1200 C1208 0.929 . S
H1201 C1210 0.930 . S
H1202 C1212 0.930 . S
H1203 C1215 0.929 . S
H1204 C1218 0.930 . S
H1205 C1220 0.960 . S
H1206 C1220 0.960 . S
H1207 C1220 0.960 . S
C1208 H1200 0.929 . S
C1208 C1209 1.377 . S
C1208 C1210 1.384 . S
C1209 C1208 1.377 . S
C1209 C1215 1.390 . S
C1210 H1201 0.930 . S
C1210 C1208 1.384 . S
C1210 C1211 1.372 . S
C1211 C1210 1.372 . S
C1211 C1212 1.400 . S
C1211 C1216 1.490 . S
C1212 H1202 0.930 . S
C1212 C1211 1.400 . S
C1212 C1215 1.386 . S
H1213 C1229 0.930 . S
H1214 C1230 0.931 . S
C1215 H1203 0.929 . S
C1215 C1209 1.390 . S
C1215 C1212 1.386 . S
C1216 C1211 1.490 . S
C1216 C1218 1.395 . S
C1216 C1219 1.403 . S
H1217 C1223 0.930 . S
C1218 H1204 0.930 . S
C1218 C1216 1.395 . S
C1218 C1221 1.403 . S
C1219 C1216 1.403 . S
C1219 C1220 1.524 . S
C1219 C1223 1.400 . S
C1220 H1205 0.960 . S
C1220 H1206 0.960 . S
C1220 H1207 0.960 . S
C1220 C1219 1.524 . S
C1221 C1218 1.403 . S
C1221 C1222 1.392 . S
C1221 C1225 1.495 . S
C1222 C1221 1.392 . S
C1222 C1223 1.385 . S
C1222 C1224 1.478 . S
C1223 H1217 0.930 . S
C1223 C1219 1.400 . S
C1223 C1222 1.385 . S
C1224 C1222 1.478 . S
C1224 C1226 1.381 . S
C1224 C1230 1.383 . S
C1225 C1221 1.495 . S
C1225 H1231 0.959 . S
C1225 H1232 0.961 . S
C1225 H1233 0.960 . S
C1226 C1224 1.381 . S
C1226 C1227 1.394 . S
C1226 H1234 0.930 . S
C1227 C1226 1.394 . S
C1227 C1228 1.383 . S
C1227 H1235 0.929 . S
C1228 C1227 1.383 . S
C1228 C1229 1.377 . S
C1229 H1213 0.930 . S
C1229 C1228 1.377 . S
C1229 C1230 1.379 . S
C1230 H1214 0.931 . S
C1230 C1224 1.383 . S
C1230 C1229 1.379 . S
H1231 C1225 0.959 . S
H1232 C1225 0.961 . S
H1233 C1225 0.960 . S
H1234 C1226 0.930 . S
H1235 C1227 0.929 . S
H1236 C1244 0.929 . S
H1237 C1246 0.930 . S
H1238 C1248 0.930 . S
H1239 C1251 0.929 . S
H1240 C1254 0.930 . S
H1241 C1256 0.960 . S
H1242 C1256 0.960 . S
H1243 C1256 0.960 . S
C1244 H1236 0.929 . S
C1244 C1245 1.377 . S
C1244 C1246 1.384 . S
C1245 C1244 1.377 . S
C1245 C1251 1.390 . S
C1246 H1237 0.930 . S
C1246 C1244 1.384 . S
C1246 C1247 1.372 . S
C1247 C1246 1.372 . S
C1247 C1248 1.400 . S
C1247 C1252 1.490 . S
C1248 H1238 0.930 . S
C1248 C1247 1.400 . S
C1248 C1251 1.386 . S
H1249 C1265 0.930 . S
H1250 C1266 0.931 . S
C1251 H1239 0.929 . S
C1251 C1245 1.390 . S
C1251 C1248 1.386 . S
C1252 C1247 1.490 . S
C1252 C1254 1.395 . S
C1252 C1255 1.403 . S
H1253 C1259 0.930 . S
C1254 H1240 0.930 . S
C1254 C1252 1.395 . S
C1254 C1257 1.403 . S
C1255 C1252 1.403 . S
C1255 C1256 1.524 . S
C1255 C1259 1.400 . S
C1256 H1241 0.960 . S
C1256 H1242 0.960 . S
C1256 H1243 0.960 . S
C1256 C1255 1.524 . S
C1257 C1254 1.403 . S
C1257 C1258 1.392 . S
C1257 C1261 1.495 . S
C1258 C1257 1.392 . S
C1258 C1259 1.385 . S
C1258 C1260 1.478 . S
C1259 H1253 0.930 . S
C1259 C1255 1.400 . S
C1259 C1258 1.385 . S
C1260 C1258 1.478 . S
C1260 C1262 1.381 . S
C1260 C1266 1.383 . S
C1261 C1257 1.495 . S
C1261 H1267 0.959 . S
C1261 H1268 0.961 . S
C1261 H1269 0.960 . S
C1262 C1260 1.381 . S
C1262 C1263 1.394 . S
C1262 H1270 0.930 . S
C1263 C1262 1.394 . S
C1263 C1264 1.383 . S
C1263 H1271 0.929 . S
C1264 C1263 1.383 . S
C1264 C1265 1.377 . S
C1265 H1249 0.930 . S
C1265 C1264 1.377 . S
C1265 C1266 1.379 . S
C1266 H1250 0.931 . S
C1266 C1260 1.383 . S
C1266 C1265 1.379 . S
H1267 C1261 0.959 . S
H1268 C1261 0.961 . S
H1269 C1261 0.960 . S
H1270 C1262 0.930 . S
H1271 C1263 0.929 . S
C417 C15 1.527 . S
C436 C346 1.483 . S
C472 C324 1.526 . S
C453 C55 1.576 . S
C508 C350 1.495 . S
C489 C95 1.522 . S
C544 C328 1.564 . S
C525 C135 1.575 . S
C580 C390 1.510 . S
C561 C175 1.527 . S
C616 C368 1.525 . S
C597 C215 1.571 . S
C633 C255 1.518 . S
C652 C394 1.490 . S
C688 C372 1.566 . S
C669 C295 1.577 . S
C705 C2 1.534 . S
C724 C395 1.532 . S
C760 C373 1.600 . S
C741 C61 1.550 . S
C777 C82 1.493 . S
C796 C392 1.532 . S
C813 C141 1.597 . S
C832 C370 1.611 . S
C868 C351 1.513 . S
C849 C162 1.537 1_545 S
C885 C221 1.560 1_565 S
C904 C329 1.585 . S
C940 C348 1.509 . S
C921 C242 1.487 1_545 S
C976 C326 1.610 . S
C957 C301 1.601 1_565 S
C1012 C369 1.531 . S
C993 C21 1.521 . S
C1048 C391 1.498 . S
C1029 C42 1.486 . S
C1065 C101 1.475 . S
C1084 C371 1.506 . S
C1120 C393 1.529 . S
C1101 C122 1.534 . S
C1156 C325 1.501 . S
C1137 C181 1.529 . S
C1173 C202 1.493 . S
C1192 C347 1.523 . S
C1209 C261 1.471 . S
C1228 C327 1.511 . S
C1245 C282 1.535 . S
C1264 C349 1.508 . S
