# Generated by pormake.
# Topology gar, (4,6)-cn, num edge types: 1
# Building blocks:
#     Node 0, Type 0, BuildingBlock: UXUYUI_clean_sbu_0, # of connection points: 4
#     Node 1, Type 0, BuildingBlock: UXUYUI_clean_sbu_0, # of connection points: 4
#     Node 2, Type 0, BuildingBlock: UXUYUI_clean_sbu_0, # of connection points: 4
#     Node 3, Type 0, BuildingBlock: UXUYUI_clean_sbu_0, # of connection points: 4
#     Node 4, Type 0, BuildingBlock: UXUYUI_clean_sbu_0, # of connection points: 4
#     Node 5, Type 0, BuildingBlock: UXUYUI_clean_sbu_0, # of connection points: 4
#     Node 6, Type 0, BuildingBlock: UXUYUI_clean_sbu_0, # of connection points: 4
#     Node 7, Type 0, BuildingBlock: UXUYUI_clean_sbu_0, # of connection points: 4
#     Node 8, Type 0, BuildingBlock: UXUYUI_clean_sbu_0, # of connection points: 4
#     Node 9, Type 0, BuildingBlock: UXUYUI_clean_sbu_0, # of connection points: 4
#     Node 10, Type 0, BuildingBlock: UXUYUI_clean_sbu_0, # of connection points: 4
#     Node 11, Type 0, BuildingBlock: UXUYUI_clean_sbu_0, # of connection points: 4
#     Node 12, Type 0, BuildingBlock: UXUYUI_clean_sbu_0, # of connection points: 4
#     Node 13, Type 0, BuildingBlock: UXUYUI_clean_sbu_0, # of connection points: 4
#     Node 14, Type 0, BuildingBlock: UXUYUI_clean_sbu_0, # of connection points: 4
#     Node 15, Type 0, BuildingBlock: UXUYUI_clean_sbu_0, # of connection points: 4
#     Node 16, Type 0, BuildingBlock: UXUYUI_clean_sbu_0, # of connection points: 4
#     Node 17, Type 0, BuildingBlock: UXUYUI_clean_sbu_0, # of connection points: 4
#     Node 18, Type 0, BuildingBlock: UXUYUI_clean_sbu_0, # of connection points: 4
#     Node 19, Type 0, BuildingBlock: UXUYUI_clean_sbu_0, # of connection points: 4
#     Node 20, Type 0, BuildingBlock: UXUYUI_clean_sbu_0, # of connection points: 4
#     Node 21, Type 0, BuildingBlock: UXUYUI_clean_sbu_0, # of connection points: 4
#     Node 22, Type 0, BuildingBlock: UXUYUI_clean_sbu_0, # of connection points: 4
#     Node 23, Type 0, BuildingBlock: UXUYUI_clean_sbu_0, # of connection points: 4
#     Node 24, Type 1, BuildingBlock: KUMBOL_clean_sbu_0, # of connection points: 6
#     Node 25, Type 1, BuildingBlock: KUMBOL_clean_sbu_0, # of connection points: 6
#     Node 26, Type 1, BuildingBlock: KUMBOL_clean_sbu_0, # of connection points: 6
#     Node 27, Type 1, BuildingBlock: KUMBOL_clean_sbu_0, # of connection points: 6
#     Node 28, Type 1, BuildingBlock: KUMBOL_clean_sbu_0, # of connection points: 6
#     Node 29, Type 1, BuildingBlock: KUMBOL_clean_sbu_0, # of connection points: 6
#     Node 30, Type 1, BuildingBlock: KUMBOL_clean_sbu_0, # of connection points: 6
#     Node 31, Type 1, BuildingBlock: KUMBOL_clean_sbu_0, # of connection points: 6
#     Node 32, Type 1, BuildingBlock: KUMBOL_clean_sbu_0, # of connection points: 6
#     Node 33, Type 1, BuildingBlock: KUMBOL_clean_sbu_0, # of connection points: 6
#     Node 34, Type 1, BuildingBlock: KUMBOL_clean_sbu_0, # of connection points: 6
#     Node 35, Type 1, BuildingBlock: KUMBOL_clean_sbu_0, # of connection points: 6
#     Node 36, Type 1, BuildingBlock: KUMBOL_clean_sbu_0, # of connection points: 6
#     Node 37, Type 1, BuildingBlock: KUMBOL_clean_sbu_0, # of connection points: 6
#     Node 38, Type 1, BuildingBlock: KUMBOL_clean_sbu_0, # of connection points: 6
#     Node 39, Type 1, BuildingBlock: KUMBOL_clean_sbu_0, # of connection points: 6
#     Edge 40, Type (0, 1), None
#     Edge 41, Type (0, 1), None
#     Edge 42, Type (0, 1), None
#     Edge 43, Type (0, 1), None
#     Edge 44, Type (0, 1), None
#     Edge 45, Type (0, 1), None
#     Edge 46, Type (0, 1), None
#     Edge 47, Type (0, 1), None
#     Edge 48, Type (0, 1), None
#     Edge 49, Type (0, 1), None
#     Edge 50, Type (0, 1), None
#     Edge 51, Type (0, 1), None
#     Edge 52, Type (0, 1), None
#     Edge 53, Type (0, 1), None
#     Edge 54, Type (0, 1), None
#     Edge 55, Type (0, 1), None
#     Edge 56, Type (0, 1), None
#     Edge 57, Type (0, 1), None
#     Edge 58, Type (0, 1), None
#     Edge 59, Type (0, 1), None
#     Edge 60, Type (0, 1), None
#     Edge 61, Type (0, 1), None
#     Edge 62, Type (0, 1), None
#     Edge 63, Type (0, 1), None
#     Edge 64, Type (0, 1), None
#     Edge 65, Type (0, 1), None
#     Edge 66, Type (0, 1), None
#     Edge 67, Type (0, 1), None
#     Edge 68, Type (0, 1), None
#     Edge 69, Type (0, 1), None
#     Edge 70, Type (0, 1), None
#     Edge 71, Type (0, 1), None
#     Edge 72, Type (0, 1), None
#     Edge 73, Type (0, 1), None
#     Edge 74, Type (0, 1), None
#     Edge 75, Type (0, 1), None
#     Edge 76, Type (0, 1), None
#     Edge 77, Type (0, 1), None
#     Edge 78, Type (0, 1), None
#     Edge 79, Type (0, 1), None
#     Edge 80, Type (0, 1), None
#     Edge 81, Type (0, 1), None
#     Edge 82, Type (0, 1), None
#     Edge 83, Type (0, 1), None
#     Edge 84, Type (0, 1), None
#     Edge 85, Type (0, 1), None
#     Edge 86, Type (0, 1), None
#     Edge 87, Type (0, 1), None
#     Edge 88, Type (0, 1), None
#     Edge 89, Type (0, 1), None
#     Edge 90, Type (0, 1), None
#     Edge 91, Type (0, 1), None
#     Edge 92, Type (0, 1), None
#     Edge 93, Type (0, 1), None
#     Edge 94, Type (0, 1), None
#     Edge 95, Type (0, 1), None
#     Edge 96, Type (0, 1), None
#     Edge 97, Type (0, 1), None
#     Edge 98, Type (0, 1), None
#     Edge 99, Type (0, 1), None
#     Edge 100, Type (0, 1), None
#     Edge 101, Type (0, 1), None
#     Edge 102, Type (0, 1), None
#     Edge 103, Type (0, 1), None
#     Edge 104, Type (0, 1), None
#     Edge 105, Type (0, 1), None
#     Edge 106, Type (0, 1), None
#     Edge 107, Type (0, 1), None
#     Edge 108, Type (0, 1), None
#     Edge 109, Type (0, 1), None
#     Edge 110, Type (0, 1), None
#     Edge 111, Type (0, 1), None
#     Edge 112, Type (0, 1), None
#     Edge 113, Type (0, 1), None
#     Edge 114, Type (0, 1), None
#     Edge 115, Type (0, 1), None
#     Edge 116, Type (0, 1), None
#     Edge 117, Type (0, 1), None
#     Edge 118, Type (0, 1), None
#     Edge 119, Type (0, 1), None
#     Edge 120, Type (0, 1), None
#     Edge 121, Type (0, 1), None
#     Edge 122, Type (0, 1), None
#     Edge 123, Type (0, 1), None
#     Edge 124, Type (0, 1), None
#     Edge 125, Type (0, 1), None
#     Edge 126, Type (0, 1), None
#     Edge 127, Type (0, 1), None
#     Edge 128, Type (0, 1), None
#     Edge 129, Type (0, 1), None
#     Edge 130, Type (0, 1), None
#     Edge 131, Type (0, 1), None
#     Edge 132, Type (0, 1), None
#     Edge 133, Type (0, 1), None
#     Edge 134, Type (0, 1), None
#     Edge 135, Type (0, 1), None
# Relax obj value: 0.181
# Max RMSD: 0.353
# Mean RMSD: 0.202
data_MOF--net-gar--node1-UXUYUI_clean_sbu_0--node2-KUMBOL_clean_sbu_0--edge1-none
_symmetry_space_group_name_H-M    P1
_symmetry_Int_Tables_number       1
_symmetry_cell_setting            triclinic
loop_
_symmetry_equiv_pos_as_xyz
'x, y, z'
_cell_length_a     44.354473
_cell_length_b     39.406658
_cell_length_c     39.508603
_cell_angle_alpha  101.62559
_cell_angle_beta   94.40214
_cell_angle_gamma 102.85679
loop_
_atom_site_label
_atom_site_type_symbol
_atom_site_fract_x
_atom_site_fract_y
_atom_site_fract_z
_atom_type_partial_charge
Li0 Li 0.13287 0.35015 0.35997 0.0
Li1 Li 0.1664 0.39337 0.41127 0.0
Li2 Li 0.18855 0.35173 0.36851 0.0
Li3 Li 0.15505 0.32856 0.41074 0.0
C4 C 0.18097 0.41218 0.34099 0.0
N5 N 0.20086 0.45821 0.29865 0.0
C6 C 0.19363 0.44848 0.35548 0.0
C7 C 0.17892 0.3992 0.30508 0.0
C8 C 0.20335 0.47137 0.33359 0.0
C9 C 0.18918 0.42289 0.2841 0.0
C10 C 0.10728 0.3693 0.43303 0.0
C11 C 0.09939 0.38937 0.49278 0.0
N12 N 0.0702 0.39156 0.48183 0.0
C13 C 0.07725 0.37187 0.42234 0.0
C14 C 0.11853 0.37837 0.46851 0.0
C15 C 0.05886 0.38319 0.44742 0.0
C16 C 0.0715 0.32314 0.3212 0.0
N17 N 0.09753 0.35041 0.3305 0.0
C18 C 0.07197 0.38958 0.30744 0.0
C19 C 0.09819 0.38302 0.3238 0.0
C20 C 0.04452 0.36235 0.29792 0.0
C21 C 0.04447 0.32855 0.3046 0.0
H22 H 0.07139 0.29785 0.32793 0.0
H23 H 0.11865 0.40465 0.33266 0.0
C24 C 0.17736 0.45657 0.46874 0.0
N25 N 0.16386 0.43833 0.43619 0.0
C26 C 0.16361 0.48158 0.48768 0.0
C27 C 0.12568 0.47235 0.43723 0.0
C28 C 0.13946 0.44682 0.4198 0.0
C29 C 0.13675 0.48847 0.47213 0.0
H30 H 0.19768 0.45084 0.48071 0.0
H31 H 0.12916 0.43163 0.39402 0.0
C32 C 0.14478 0.28187 0.33022 0.0
N33 N 0.12627 0.22681 0.27173 0.0
C34 C 0.14181 0.24661 0.3331 0.0
C35 C 0.13834 0.28921 0.29766 0.0
C36 C 0.13217 0.21913 0.30328 0.0
C37 C 0.12929 0.26102 0.26832 0.0
C38 C 0.2184 0.36576 0.44778 0.0
C39 C 0.24147 0.34711 0.44129 0.0
C40 C 0.21937 0.38698 0.48096 0.0
C41 C 0.26615 0.35195 0.46736 0.0
C42 C 0.24424 0.39091 0.50646 0.0
N43 N 0.26715 0.37376 0.49906 0.0
C44 C 0.25122 0.36827 0.36501 0.0
C45 C 0.2247 0.32982 0.31212 0.0
C46 C 0.2798 0.36564 0.35424 0.0
N47 N 0.2244 0.34891 0.34497 0.0
C48 C 0.25322 0.32822 0.29927 0.0
C49 C 0.2812 0.34447 0.32145 0.0
H50 H 0.25039 0.38497 0.39003 0.0
H51 H 0.203 0.31558 0.29605 0.0
C52 C 0.12265 0.26574 0.43022 0.0
N53 N 0.14442 0.29731 0.44107 0.0
C54 C 0.11058 0.24687 0.45463 0.0
C55 C 0.14398 0.29309 0.50041 0.0
C56 C 0.15553 0.31066 0.47528 0.0
C57 C 0.12066 0.26141 0.49024 0.0
H58 H 0.11335 0.2563 0.40298 0.0
H59 H 0.17204 0.33601 0.48348 0.0
O60 O 0.16854 0.39009 0.36159 0.0
O61 O 0.12582 0.35887 0.40879 0.0
O62 O 0.15241 0.30879 0.3595 0.0
O63 O 0.19614 0.365 0.42137 0.0
H64 H 0.19537 0.45902 0.38323 0.0
H65 H 0.16913 0.37126 0.29343 0.0
H66 H 0.2127 0.49962 0.34433 0.0
H67 H 0.18759 0.41325 0.25623 0.0
H68 H 0.10781 0.39631 0.52031 0.0
H69 H 0.06827 0.36533 0.39495 0.0
H70 H 0.14199 0.3776 0.47718 0.0
H71 H 0.03558 0.38535 0.43954 0.0
H72 H 0.07283 0.41628 0.30379 0.0
H73 H 0.02367 0.30686 0.29774 0.0
H74 H 0.1734 0.49477 0.5143 0.0
H75 H 0.10538 0.47754 0.4242 0.0
H76 H 0.14661 0.24049 0.35816 0.0
H77 H 0.13993 0.31628 0.29513 0.0
H78 H 0.12925 0.19164 0.30526 0.0
H79 H 0.12432 0.26629 0.24291 0.0
H80 H 0.24069 0.32962 0.41616 0.0
H81 H 0.20053 0.39921 0.48733 0.0
H82 H 0.28449 0.33839 0.46237 0.0
H83 H 0.24523 0.40742 0.53216 0.0
H84 H 0.30068 0.37992 0.37194 0.0
H85 H 0.25335 0.31338 0.2731 0.0
H86 H 0.09224 0.22258 0.44604 0.0
H87 H 0.15225 0.30495 0.52769 0.0
Li88 Li 0.02079 0.78162 0.64938 0.0
Li89 Li 0.04304 0.75947 0.69817 0.0
Li90 Li 1.01003 0.71856 0.64838 0.0
Li91 Li 0.98666 0.75395 0.6905 0.0
C92 C 0.06575 0.73976 0.62328 0.0
N93 N 0.09659 0.71412 0.56931 0.0
C94 C 0.09114 0.72542 0.62997 0.0
C95 C 0.05605 0.74106 0.58916 0.0
C96 C 0.10637 0.7125 0.6023 0.0
C97 C 0.07198 0.72802 0.56225 0.0
C98 C 0.03696 0.82444 0.72883 0.0
C99 C 0.0534 0.84394 0.79061 0.0
N100 N 0.06815 0.87648 0.7859 0.0
C101 C 0.05254 0.85795 0.72454 0.0
C102 C 0.03743 0.81727 0.76205 0.0
C103 C 0.06824 0.88393 0.75374 0.0
C104 C 0.01694 0.82218 0.59643 0.0
N105 N 0.03367 0.81655 0.62417 0.0
C106 C 0.07992 0.85526 0.61417 0.0
C107 C 0.06436 0.83285 0.63353 0.0
C108 C 0.06393 0.86026 0.58427 0.0
C109 C 0.03177 0.84427 0.57592 0.0
H110 H 0.99263 0.80832 0.58933 0.0
H111 H 0.07705 0.8272 0.65539 0.0
C112 C 0.08211 0.72826 0.72882 0.0
N113 N 0.07928 0.76153 0.72731 0.0
C114 C 0.10832 0.72354 0.74687 0.0
C115 C 0.12945 0.78757 0.76029 0.0
C116 C 0.10237 0.7911 0.74213 0.0
C117 C 0.13227 0.75337 0.76284 0.0
H118 H 0.06427 0.70519 0.71518 0.0
H119 H 0.10017 0.81712 0.73913 0.0
C120 C 0.95674 0.72185 0.61366 0.0
N121 N 0.91118 0.67313 0.56512 0.0
C122 C 0.93515 0.69549 0.62407 0.0
C123 C 0.95504 0.72355 0.57858 0.0
C124 C 0.91217 0.67127 0.59917 0.0
C125 C 0.93201 0.69845 0.55439 0.0
C126 C 0.99832 0.69414 0.7161 0.0
C127 C 0.97735 0.66179 0.69989 0.0
C128 C 1.01081 0.69986 0.75086 0.0
C129 C 0.97009 0.63511 0.71852 0.0
C130 C 1.0031 0.6725 0.7685 0.0
N131 N 0.98328 0.64086 0.75202 0.0
C132 C 0.02772 0.65637 0.63922 0.0
C133 C 1.00548 0.66521 0.58613 0.0
C134 C 0.04093 0.63039 0.62147 0.0
N135 N 1.01135 0.674 0.62143 0.0
C136 C 0.01812 0.63914 0.56727 0.0
C137 C 0.03753 0.62296 0.58506 0.0
H138 H 0.03313 0.66477 0.66712 0.0
H139 H 0.9937 0.68051 0.57243 0.0
C140 C 0.92534 0.75759 0.69869 0.0
N141 N 0.95231 0.7557 0.71601 0.0
C142 C 0.90002 0.76136 0.71657 0.0
C143 C 0.93042 0.76086 0.76988 0.0
C144 C 0.95513 0.75651 0.75077 0.0
C145 C 0.90284 0.76425 0.75277 0.0
H146 H 0.92382 0.75731 0.67119 0.0
H147 H 0.97675 0.75468 0.76389 0.0
O148 O 0.05052 0.75254 0.65001 0.0
O149 O 0.02072 0.79905 0.70074 0.0
O150 O 0.9789 0.74643 0.63777 0.0
O151 O 1.00915 0.71862 0.69714 0.0
H152 H 0.09895 0.72422 0.65624 0.0
H153 H 0.03621 0.75163 0.58345 0.0
H154 H 0.126 0.70122 0.60705 0.0
H155 H 0.06473 0.72889 0.53574 0.0
H156 H 0.05381 0.83891 0.81654 0.0
H157 H 0.05194 0.86416 0.69911 0.0
H158 H 0.02579 0.79136 0.7657 0.0
H159 H 0.08017 0.91012 0.75092 0.0
H160 H 0.1045 0.86767 0.62195 0.0
H161 H 0.01864 0.84735 0.55294 0.0
H162 H 0.11031 0.69674 0.74745 0.0
H163 H 0.14799 0.81099 0.77189 0.0
H164 H 0.936 0.6939 0.65113 0.0
H165 H 0.9716 0.74368 0.57003 0.0
H166 H 0.89521 0.65087 0.60685 0.0
H167 H 0.93065 0.69919 0.5271 0.0
H168 H 0.96775 0.65689 0.67286 0.0
H169 H 0.02705 0.7248 0.76377 0.0
H170 H 0.95434 0.60966 0.70631 0.0
H171 H 1.01317 0.67634 0.79515 0.0
H172 H 0.05555 0.61834 0.63618 0.0
H173 H 1.01417 0.63331 0.53914 0.0
H174 H 0.87914 0.76415 0.7025 0.0
H175 H 0.93322 0.76285 0.79774 0.0
Li176 Li 0.63302 0.85032 0.86038 0.0
Li177 Li 0.66644 0.89334 0.91177 0.0
Li178 Li 0.68884 0.8517 0.86873 0.0
Li179 Li 0.65522 0.82848 0.91095 0.0
C180 C 0.6794 0.91245 0.84093 0.0
N181 N 0.69388 0.95851 0.79725 0.0
C182 C 0.68981 0.9492 0.85471 0.0
C183 C 0.67721 0.89906 0.80507 0.0
C184 C 0.69676 0.97208 0.83216 0.0
C185 C 0.68466 0.92279 0.78339 0.0
C186 C 0.60734 0.86897 0.93339 0.0
C187 C 0.59943 0.88898 0.99315 0.0
N188 N 0.5702 0.89107 0.98221 0.0
C189 C 0.57726 0.87143 0.9227 0.0
C190 C 0.61859 0.87805 0.96886 0.0
C191 C 0.55885 0.88267 0.9478 0.0
C192 C 0.57167 0.82307 0.82157 0.0
N193 N 0.59753 0.85056 0.83101 0.0
C194 C 0.57153 0.88949 0.80816 0.0
C195 C 0.59785 0.8832 0.82457 0.0
C196 C 0.54429 0.86201 0.79845 0.0
C197 C 0.5445 0.82824 0.80503 0.0
H198 H 0.57179 0.79776 0.82814 0.0
H199 H 0.61807 0.90506 0.83368 0.0
C200 C 0.67724 0.95661 0.96925 0.0
N201 N 0.66362 0.93821 0.93678 0.0
C202 C 0.66352 0.98167 0.98818 0.0
C203 C 0.62524 0.972 0.93795 0.0
C204 C 0.63901 0.94646 0.92053 0.0
C205 C 0.63653 0.9884 0.97275 0.0
H206 H 0.69765 0.951 0.98115 0.0
H207 H 0.62859 0.93112 0.89484 0.0
C208 C 0.64484 0.78187 0.83047 0.0
N209 N 0.62627 0.72662 0.77214 0.0
C210 C 0.64203 0.74667 0.83345 0.0
C211 C 0.6382 0.78906 0.79788 0.0
C212 C 0.63236 0.71909 0.80371 0.0
C213 C 0.62912 0.76077 0.76862 0.0
C214 C 0.7186 0.86568 0.94803 0.0
C215 C 0.74158 0.8469 0.94149 0.0
C216 C 0.71967 0.88695 0.98119 0.0
C217 C 0.76625 0.85162 0.96754 0.0
C218 C 0.74452 0.89076 1.00667 0.0
N219 N 0.76733 0.87345 0.99924 0.0
C220 C 0.75151 0.86815 0.86511 0.0
C221 C 0.72488 0.82989 0.81219 0.0
C222 C 0.78005 0.86557 0.85423 0.0
N223 N 0.72465 0.84889 0.8451 0.0
C224 C 0.75338 0.82831 0.79923 0.0
C225 C 0.7814 0.84448 0.82136 0.0
H226 H 0.75073 0.88477 0.8902 0.0
H227 H 0.70315 0.8157 0.79614 0.0
C228 C 0.62268 0.76574 0.93036 0.0
N229 N 0.64461 0.79719 0.9412 0.0
C230 C 0.61052 0.74696 0.95478 0.0
C231 C 0.64417 0.79296 1.00054 0.0
C232 C 0.65582 0.81045 0.9754 0.0
C233 C 0.62067 0.76144 0.99038 0.0
H234 H 0.61332 0.75639 0.90313 0.0
H235 H 0.67244 0.83573 0.98359 0.0
O236 O 0.669 0.89016 0.86217 0.0
O237 O 0.62594 0.85874 0.90914 0.0
O238 O 0.65253 0.80888 0.85967 0.0
O239 O 0.69631 0.86496 0.92167 0.0
H240 H 0.69185 0.96005 0.88243 0.0
H241 H 0.66932 0.87075 0.79399 0.0
H242 H 0.70426 1.00065 0.84236 0.0
H243 H 0.68277 0.91287 0.75553 0.0
H244 H 0.60786 0.89596 0.02068 0.0
H245 H 0.56829 0.8649 0.89532 0.0
H246 H 0.64208 0.87736 0.97753 0.0
H247 H 0.53554 0.88474 0.93991 0.0
H248 H 0.57213 0.91617 0.80459 0.0
H249 H 0.5238 0.80641 0.7981 0.0
H250 H 0.67345 0.99504 0.01472 0.0
H251 H 0.60482 0.97703 0.92502 0.0
H252 H 0.64698 0.74066 0.85854 0.0
H253 H 0.63962 0.81607 0.79526 0.0
H254 H 0.62958 0.69164 0.80578 0.0
H255 H 0.624 0.76593 0.74319 0.0
H256 H 0.74074 0.8294 0.91635 0.0
H257 H 0.70092 0.89934 0.98757 0.0
H258 H 0.78453 0.83792 0.96254 0.0
H259 H 0.74558 0.9073 0.03237 0.0
H260 H 0.80096 0.8798 0.87191 0.0
H261 H 0.75345 0.81353 0.77303 0.0
H262 H 0.59204 0.72278 0.9462 0.0
H263 H 0.6525 0.80477 0.02782 0.0
Li264 Li 0.52051 0.28196 0.14942 0.0
Li265 Li 0.54293 0.25999 0.1982 0.0
Li266 Li 0.50987 0.21892 0.14862 0.0
Li267 Li 0.48657 0.2543 0.19071 0.0
C268 C 0.5655 0.24008 0.12332 0.0
N269 N 0.59618 0.21404 0.06938 0.0
C270 C 0.59085 0.22572 0.13007 0.0
C271 C 0.55577 0.24124 0.08916 0.0
C272 C 0.60601 0.21259 0.10241 0.0
C273 C 0.57161 0.22798 0.06226 0.0
C274 C 0.537 0.32472 0.22887 0.0
C275 C 0.55406 0.3438 0.29055 0.0
N276 N 0.56869 0.37643 0.28593 0.0
C277 C 0.55247 0.35832 0.22466 0.0
C278 C 0.53782 0.31731 0.26199 0.0
C279 C 0.56842 0.38412 0.25386 0.0
C280 C 0.51669 0.3224 0.09631 0.0
N281 N 0.53335 0.31684 0.12413 0.0
C282 C 0.57965 0.35551 0.11419 0.0
C283 C 0.56403 0.33316 0.13356 0.0
C284 C 0.56373 0.36045 0.08422 0.0
C285 C 0.53158 0.34445 0.07579 0.0
H286 H 0.49239 0.30853 0.08915 0.0
H287 H 0.57667 0.32756 0.15548 0.0
C288 C 0.58208 0.22902 0.22899 0.0
N289 N 0.57932 0.26224 0.22715 0.0
C290 C 0.60845 0.22437 0.24678 0.0
C291 C 0.62983 0.28832 0.25932 0.0
C292 C 0.60261 0.29179 0.24141 0.0
C293 C 0.6326 0.25419 0.26217 0.0
H294 H 0.56408 0.20593 0.21577 0.0
H295 H 0.60045 0.31774 0.23813 0.0
C296 C 0.45656 0.22204 0.11383 0.0
N297 N 0.41111 0.17327 0.06521 0.0
C298 C 0.43494 0.1957 0.12421 0.0
C299 C 0.45494 0.22371 0.07874 0.0
C300 C 0.412 0.17145 0.09927 0.0
C301 C 0.43197 0.19858 0.05452 0.0
C302 C 0.49823 0.1947 0.21646 0.0
C303 C 0.47719 0.16239 0.2003 0.0
C304 C 0.51057 0.20053 0.2513 0.0
C305 C 0.46962 0.13589 0.21909 0.0
C306 C 0.5025 0.17338 0.26912 0.0
N307 N 0.48258 0.14178 0.25271 0.0
C308 C 0.52795 0.15706 0.13961 0.0
C309 C 0.50542 0.16551 0.08648 0.0
C310 C 0.54149 0.13138 0.12191 0.0
N311 N 0.5113 0.17439 0.12178 0.0
C312 C 0.51834 0.1397 0.06767 0.0
C313 C 0.53806 0.12389 0.0855 0.0
H314 H 0.53332 0.16552 0.16752 0.0
H315 H 0.49342 0.1806 0.07274 0.0
C316 C 0.42525 0.25787 0.19898 0.0
N317 N 0.45225 0.25602 0.21628 0.0
C318 C 0.39994 0.26159 0.21687 0.0
C319 C 0.43035 0.26105 0.27015 0.0
C320 C 0.45509 0.25685 0.25105 0.0
C321 C 0.40273 0.26436 0.25305 0.0
H322 H 0.42372 0.25759 0.17149 0.0
H323 H 0.47676 0.25517 0.26418 0.0
O324 O 0.55028 0.25297 0.15003 0.0
O325 O 0.52052 0.2995 0.2008 0.0
O326 O 0.47866 0.24667 0.13798 0.0
O327 O 0.50919 0.21906 0.19742 0.0
H328 H 0.59869 0.22463 0.15637 0.0
H329 H 0.53594 0.25183 0.08341 0.0
H330 H 0.6256 0.20128 0.1072 0.0
H331 H 0.56431 0.22869 0.03572 0.0
H332 H 0.55475 0.33859 0.31641 0.0
H333 H 0.5516 0.36469 0.19931 0.0
H334 H 0.52622 0.29136 0.26557 0.0
H335 H 0.58027 0.41038 0.25112 0.0
H336 H 0.60423 0.36793 0.12203 0.0
H337 H 0.5185 0.3475 0.05276 0.0
H338 H 0.61038 0.1976 0.2476 0.0
H339 H 0.64853 0.31171 0.2705 0.0
H340 H 0.43572 0.19413 0.15128 0.0
H341 H 0.47153 0.24384 0.07021 0.0
H342 H 0.395 0.15108 0.10694 0.0
H343 H 0.43068 0.19928 0.02722 0.0
H344 H 0.46773 0.15739 0.17321 0.0
H345 H 0.5269 0.22542 0.26415 0.0
H346 H 0.45379 0.11048 0.20694 0.0
H347 H 0.51238 0.17732 0.29586 0.0
H348 H 0.55631 0.11959 0.13665 0.0
H349 H 0.51436 0.13381 0.03953 0.0
H350 H 0.37903 0.26434 0.20281 0.0
H351 H 0.43316 0.26304 0.29801 0.0
Li352 Li 0.13616 0.86259 0.09593 0.0
Li353 Li 0.17498 0.83703 0.14214 0.0
Li354 Li 0.13346 0.79082 0.09393 0.0
Li355 Li 0.11546 0.82977 0.14256 0.0
C356 C 0.18719 0.81787 0.06376 0.0
N357 N 0.2204 0.78771 0.01477 0.0
C358 C 0.21916 0.82157 0.07178 0.0
C359 C 0.17213 0.79925 0.03072 0.0
C360 C 0.23552 0.80596 0.04673 0.0
C361 C 0.18936 0.78414 1.0063 0.0
C362 C 0.14886 0.90106 0.17793 0.0
C363 C 0.15022 0.92038 0.24006 0.0
N364 N 0.14776 0.95315 0.23594 0.0
C365 C 0.147 0.93514 0.17441 0.0
C366 C 0.15106 0.89377 0.21106 0.0
C367 C 0.14623 0.96103 0.20398 0.0
C368 C 0.10386 0.92298 0.09263 0.0
N369 N 0.12525 0.90705 0.07667 0.0
C370 C 0.13161 0.95262 0.04179 0.0
C371 C 0.13872 0.92161 0.05106 0.0
C372 C 0.11017 0.97011 0.05844 0.0
C373 C 0.09714 0.95473 0.08503 0.0
H374 H 0.09294 0.91227 0.11306 0.0
H375 H 0.15596 0.91003 0.03824 0.0
C376 C 0.23113 0.81133 0.16018 0.0
N377 N 0.21615 0.83761 0.17134 0.0
C378 C 0.25747 0.80751 0.18047 0.0
C379 C 0.2528 0.85699 0.22452 0.0
C380 C 0.22675 0.86021 0.20322 0.0
C381 C 0.26897 0.83043 0.21342 0.0
H382 H 0.2221 0.79232 0.13573 0.0
H383 H 0.21457 0.88039 0.2128 0.0
C384 C 0.07637 0.80217 0.066 0.0
N385 N 0.02834 0.76784 0.01313 0.0
C386 C 0.05163 0.77586 0.07163 0.0
C387 C 0.07675 0.81102 0.0335 0.0
C388 C 0.02748 0.75892 0.04461 0.0
C389 C 0.05233 0.79315 1.00703 0.0
C390 C 0.1315 0.77129 0.16371 0.0
C391 C 0.10215 0.74761 0.15382 0.0
C392 C 0.15064 0.76909 0.19255 0.0
C393 C 0.09242 0.72192 0.17298 0.0
C394 C 0.14008 0.74297 0.21102 0.0
N395 N 0.11145 0.72012 0.20092 0.0
C396 C 0.1397 0.71711 0.09132 0.0
C397 C 0.10658 0.71695 0.042 0.0
C398 C 0.13083 0.67929 0.08468 0.0
N399 N 0.12639 0.73588 0.07134 0.0
C400 C 0.09868 0.67879 0.03327 0.0
C401 C 0.11048 0.65878 0.05485 0.0
H402 H 0.15561 0.73144 0.11441 0.0
H403 H 0.09531 0.73114 0.02618 0.0
C404 C 0.05323 0.82819 0.15812 0.0
N405 N 0.08226 0.82772 0.17184 0.0
C406 C 0.02739 0.81913 0.17582 0.0
C407 C 0.06218 0.81225 0.22263 0.0
C408 C 0.08719 0.82117 0.20404 0.0
C409 C 0.0316 0.80962 0.20795 0.0
H410 H 0.04981 0.83354 0.1325 0.0
H411 H 0.11026 0.82068 0.21449 0.0
O412 O 0.17076 0.83213 0.08838 0.0
O413 O 0.14962 0.87546 0.14916 0.0
O414 O 0.09999 0.8195 0.09223 0.0
O415 O 0.14183 0.79584 0.14461 0.0
H416 H 0.23123 0.83655 0.09702 0.0
H417 H 0.14738 0.79623 0.02418 0.0
H418 H 0.26027 0.80855 0.05261 0.0
H419 H 0.17804 0.76947 0.98065 0.0
H420 H 0.15166 0.91503 0.26587 0.0
H421 H 0.14681 0.9418 0.14921 0.0
H422 H 0.15359 0.8679 0.21433 0.0
H423 H 0.14465 0.98746 0.20155 0.0
H424 H 0.14428 0.96403 0.02275 0.0
H425 H 0.08257 0.96796 0.10104 0.0
H426 H 0.2678 0.78565 0.17088 0.0
H427 H 0.26004 0.87515 0.24979 0.0
H428 H 0.05093 0.76874 0.09665 0.0
H429 H 0.09569 0.83148 0.02881 0.0
H430 H 1.00808 0.73865 0.04865 0.0
H431 H 0.05234 0.79954 0.98168 0.0
H432 H 0.08722 0.74887 0.13139 0.0
H433 H 0.17346 0.78718 0.20043 0.0
H434 H 0.06981 0.70332 0.16556 0.0
H435 H 0.15469 0.74082 0.23331 0.0
H436 H 0.13833 0.66637 0.10438 0.0
H437 H 0.08122 0.66501 1.01123 0.0
H438 H 1.00423 0.81713 0.16339 0.0
H439 H 0.06651 0.80532 0.24742 0.0
Li440 Li 0.54433 0.81844 0.46892 0.0
Li441 Li 0.50294 0.77211 0.42003 0.0
Li442 Li 0.54053 0.74593 0.46452 0.0
Li443 Li 0.56259 0.77823 0.41876 0.0
C444 C 0.49361 0.7899 0.50235 0.0
N445 N 0.46725 0.81578 0.56019 0.0
C446 C 0.46736 0.80355 0.49854 0.0
C447 C 0.50633 0.78912 0.53555 0.0
C448 C 0.45444 0.81663 0.52808 0.0
C449 C 0.49265 0.80233 0.56449 0.0
C450 C 0.53182 0.83119 0.39329 0.0
C451 C 0.53811 0.84342 0.3366 0.0
N452 N 0.52631 0.87252 0.34571 0.0
C453 C 0.51882 0.86048 0.40164 0.0
C454 C 0.54096 0.82207 0.36029 0.0
C455 C 0.51664 0.88133 0.37747 0.0
C456 C 0.56955 0.8913 0.46631 0.0
N457 N 0.55553 0.87367 0.48952 0.0
C458 C 0.55714 0.93194 0.52655 0.0
C459 C 0.54991 0.89372 0.51996 0.0
C460 C 0.56727 0.95012 0.50042 0.0
C461 C 0.57406 0.92849 0.47031 0.0
H462 H 0.57636 0.87626 0.44343 0.0
H463 H 0.54001 0.88041 0.53942 0.0
C464 C 0.44759 0.74812 0.36155 0.0
N465 N 0.46189 0.77309 0.39106 0.0
C466 C 0.42246 0.75314 0.3402 0.0
C467 C 0.42431 0.80767 0.38102 0.0
C468 C 0.45031 0.80254 0.40067 0.0
C469 C 0.41022 0.78331 0.34963 0.0
H470 H 0.45564 0.72423 0.35394 0.0
H471 H 0.46174 0.82297 0.42333 0.0
C472 C 0.60281 0.79564 0.49272 0.0
N473 N 0.65666 0.81257 0.5389 0.0
C474 C 0.62911 0.78455 0.48226 0.0
C475 C 0.60364 0.81473 0.5268 0.0
C476 C 0.65625 0.79375 0.50591 0.0
C477 C 0.63107 0.82287 0.54984 0.0
C478 C 0.53523 0.70951 0.38409 0.0
C479 C 0.55964 0.69331 0.38971 0.0
C480 C 0.51872 0.7019 0.35078 0.0
C481 C 0.5661 0.66853 0.36232 0.0
C482 C 0.52596 0.67712 0.32402 0.0
N483 N 0.54922 0.66097 0.33033 0.0
C484 C 0.53841 0.66843 0.46067 0.0
C485 C 0.56317 0.70025 0.51602 0.0
C486 C 0.54488 0.63653 0.46728 0.0
N487 N 0.5482 0.70048 0.48419 0.0
C488 C 0.56823 0.66786 0.52455 0.0
C489 C 0.56038 0.63495 0.49947 0.0
H490 H 0.52528 0.66719 0.43611 0.0
H491 H 0.57082 0.72505 0.53547 0.0
C492 C 0.6215 0.81251 0.40478 0.0
N493 N 0.5969 0.78412 0.39105 0.0
C494 C 0.64654 0.82101 0.38593 0.0
C495 C 0.62073 0.77083 0.3392 0.0
C496 C 0.59632 0.76328 0.35889 0.0
C497 C 0.64594 0.80023 0.35252 0.0
H498 H 0.62123 0.82927 0.43001 0.0
H499 H 0.57635 0.74193 0.34744 0.0
O500 O 0.50667 0.77712 0.47373 0.0
O501 O 0.53697 0.81262 0.41794 0.0
O502 O 0.57671 0.78915 0.4694 0.0
O503 O 0.52778 0.73291 0.41089 0.0
H504 H 0.45683 0.80369 0.4731 0.0
H505 H 0.52655 0.77841 0.5389 0.0
H506 H 0.43415 0.82734 0.52547 0.0
H507 H 0.5022 0.80187 0.59037 0.0
H508 H 0.54548 0.83703 0.3111 0.0
H509 H 0.51121 0.86761 0.42692 0.0
H510 H 0.55032 0.79898 0.35309 0.0
H511 H 0.50759 0.90474 0.38428 0.0
H512 H 0.55497 0.94682 0.55189 0.0
H513 H 0.58349 0.94022 0.44966 0.0
H514 H 0.41253 0.73329 0.31646 0.0
H515 H 0.41635 0.83149 0.38991 0.0
H516 H 0.6287 0.76946 0.45604 0.0
H517 H 0.5834 0.82348 0.53521 0.0
H518 H 0.67696 0.78579 0.49808 0.0
H519 H 0.63211 0.83765 0.57631 0.0
H520 H 0.57359 0.69997 0.41491 0.0
H521 H 0.5011 0.71557 0.34536 0.0
H522 H 0.58468 0.65552 0.36643 0.0
H523 H 0.51326 0.67099 0.29816 0.0
H524 H 0.53655 0.61241 0.44699 0.0
H525 H 0.57715 0.66863 0.55095 0.0
H526 H 0.66539 0.8444 0.39661 0.0
H527 H 0.61932 0.75473 0.31317 0.0
Li528 Li 0.63444 0.36145 0.59776 0.0
Li529 Li 0.67192 0.33553 0.64519 0.0
Li530 Li 0.63083 0.28923 0.59609 0.0
Li531 Li 0.61279 0.32885 0.64407 0.0
C532 C 0.68595 0.3174 0.56691 0.0
N533 N 0.72083 0.29069 0.51787 0.0
C534 C 0.71753 0.31977 0.57614 0.0
C535 C 0.67213 0.30178 0.53271 0.0
C536 C 0.73477 0.30605 0.55098 0.0
C537 C 0.69018 0.28835 0.50829 0.0
C538 C 0.64674 0.4004 0.67967 0.0
C539 C 0.64876 0.42078 0.74177 0.0
N540 N 0.64688 0.45359 0.73721 0.0
C541 C 0.64551 0.43452 0.6757 0.0
C542 C 0.64897 0.3936 0.713 0.0
C543 C 0.64533 0.46097 0.70504 0.0
C544 C 0.60278 0.42236 0.59365 0.0
N545 N 0.6242 0.40613 0.57808 0.0
C546 C 0.63131 0.45157 0.54302 0.0
C547 C 0.63807 0.42052 0.55257 0.0
C548 C 0.60982 0.46933 0.55923 0.0
C549 C 0.59642 0.45416 0.58576 0.0
H550 H 0.59155 0.41182 0.61399 0.0
H551 H 0.65533 0.40875 0.54005 0.0
C552 C 0.72514 0.30748 0.66633 0.0
N553 N 0.71177 0.33544 0.67614 0.0
C554 C 0.75007 0.30231 0.68774 0.0
C555 C 0.74757 0.35422 0.73004 0.0
C556 C 0.72272 0.35862 0.70768 0.0
C557 C 0.76191 0.32566 0.72044 0.0
H558 H 0.71587 0.28827 0.64205 0.0
H559 H 0.71181 0.38029 0.71613 0.0
C560 C 0.57422 0.30115 0.56735 0.0
N561 N 0.52633 0.26652 0.51439 0.0
C562 C 0.54944 0.27488 0.57302 0.0
C563 C 0.57468 0.3098 0.53477 0.0
C564 C 0.52539 0.25777 0.54594 0.0
C565 C 0.55032 0.29182 0.50826 0.0
C566 C 0.62743 0.2696 0.66537 0.0
C567 C 0.59821 0.24584 0.65449 0.0
C568 C 0.64575 0.26728 0.69479 0.0
C569 C 0.58783 0.21994 0.67322 0.0
C570 C 0.63454 0.24099 0.71282 0.0
N571 N 0.60607 0.21805 0.70174 0.0
C572 C 0.63711 0.21537 0.59366 0.0
C573 C 0.60275 0.21503 0.54528 0.0
C574 C 0.62829 0.17752 0.58717 0.0
N575 N 0.62338 0.23407 0.57396 0.0
C576 C 0.59468 0.17687 0.5368 0.0
C577 C 0.60726 0.15695 0.55788 0.0
H578 H 0.65342 0.22981 0.61643 0.0
H579 H 0.59104 0.22916 0.52982 0.0
C580 C 0.55082 0.32754 0.65914 0.0
N581 N 0.57983 0.32728 0.67302 0.0
C582 C 0.52502 0.31832 0.67676 0.0
C583 C 0.55987 0.31178 0.72376 0.0
C584 C 0.58485 0.32091 0.70526 0.0
C585 C 0.52934 0.30887 0.70889 0.0
H586 H 0.54741 0.33272 0.63344 0.0
H587 H 0.60795 0.32058 0.71576 0.0
O588 O 0.66872 0.33028 0.59138 0.0
O589 O 0.64707 0.3743 0.65113 0.0
O590 O 0.59783 0.31854 0.59358 0.0
O591 O 0.6384 0.29443 0.64677 0.0
H592 H 0.72866 0.33236 0.60239 0.0
H593 H 0.64769 0.29982 0.52523 0.0
H594 H 0.75925 0.30775 0.55774 0.0
H595 H 0.67982 0.27603 0.48172 0.0
H596 H 0.65026 0.41584 0.76773 0.0
H597 H 0.64536 0.44079 0.65034 0.0
H598 H 0.65111 0.36772 0.71662 0.0
H599 H 0.64423 0.48744 0.70226 0.0
H600 H 0.64425 0.46279 0.52406 0.0
H601 H 0.5818 0.4676 0.60151 0.0
H602 H 0.75927 0.27935 0.67896 0.0
H603 H 0.75539 0.37314 0.75479 0.0
H604 H 0.54861 0.26793 0.59809 0.0
H605 H 0.59363 0.33023 0.53005 0.0
H606 H 0.50601 0.23752 0.54999 0.0
H607 H 0.55037 0.29811 0.48287 0.0
H608 H 0.58391 0.24715 0.63161 0.0
H609 H 0.66842 0.28547 0.70352 0.0
H610 H 0.56534 0.20125 0.66501 0.0
H611 H 0.6485 0.23878 0.73558 0.0
H612 H 0.63658 0.1646 0.60644 0.0
H613 H 0.57668 0.16305 0.51532 0.0
H614 H 0.50184 0.31605 0.66423 0.0
H615 H 0.56418 0.3048 0.74854 0.0
Li616 Li 0.0429 0.31901 0.9695 0.0
Li617 Li 1.00191 0.27182 0.92073 0.0
Li618 Li 0.03998 0.24661 0.96538 0.0
Li619 Li 0.06176 0.27888 0.91966 0.0
C620 C 0.9933 0.29008 1.00356 0.0
N621 N 0.96923 0.31789 0.06244 0.0
C622 C 0.96511 0.30016 1.0005 0.0
C623 C 1.00899 0.29353 0.03656 0.0
C624 C 0.95345 0.31444 0.03054 0.0
C625 C 0.99642 0.30766 0.06604 0.0
C626 C 0.0305 0.33192 0.89454 0.0
C627 C 0.03818 0.34685 0.83916 0.0
N628 N 0.02513 0.3749 0.84858 0.0
C629 C 0.01629 0.36017 0.9032 0.0
C630 C 0.04099 0.3247 0.86203 0.0
C631 C 1.01417 0.3819 0.87982 0.0
C632 C 0.0683 0.39203 0.96679 0.0
N633 N 0.05338 0.37449 0.98955 0.0
C634 C 0.05325 0.43287 0.02535 0.0
C635 C 0.04634 0.39465 0.0191 0.0
C636 C 0.06489 0.45103 0.99974 0.0
C637 C 0.07289 0.42923 0.97049 0.0
H638 H 0.07582 0.3769 0.94447 0.0
H639 H 0.03546 0.38142 0.03812 0.0
C640 C 0.94704 0.24859 0.86151 0.0
N641 N 0.96052 0.27213 0.89221 0.0
C642 C 0.9211 0.25344 0.84132 0.0
C643 C 0.92068 0.30463 0.8856 0.0
C644 C 0.94755 0.29998 0.90399 0.0
C645 C 0.90732 0.2819 0.85309 0.0
H646 H 0.9563 0.226 0.85202 0.0
H647 H 0.95844 0.31946 0.92753 0.0
C648 C 0.10226 0.29668 0.99304 0.0
N649 N 0.15689 0.31308 0.03792 0.0
C650 C 0.12801 0.28469 0.98199 0.0
C651 C 0.10407 0.31646 0.02703 0.0
C652 C 0.15556 0.29366 1.00497 0.0
C653 C 0.13185 0.32427 0.04943 0.0
C654 C 0.03518 0.20979 0.88528 0.0
C655 C 0.05986 0.1941 0.89133 0.0
C656 C 0.01883 0.20166 0.85185 0.0
C657 C 0.06674 0.16934 0.86422 0.0
C658 C 0.0265 0.17696 0.82537 0.0
N659 N 0.05003 0.16132 0.83209 0.0
C660 C 0.03778 0.16925 0.96149 0.0
C661 C 0.06319 0.20101 0.0166 0.0
C662 C 0.04433 0.13732 0.96786 0.0
N663 N 0.04788 0.20128 0.98498 0.0
C664 C 0.06831 0.16856 0.02495 0.0
C665 C 0.06017 0.13568 0.99983 0.0
H666 H 0.02439 0.16808 0.93711 0.0
H667 H 0.07108 0.22579 0.03603 0.0
C668 C 0.12029 0.31407 0.90559 0.0
N669 N 0.0961 0.28515 0.89205 0.0
C670 C 0.14532 0.32279 0.88679 0.0
C671 C 0.1204 0.27172 0.84058 0.0
C672 C 0.09594 0.26402 0.86015 0.0
C673 C 0.14519 0.30164 0.8537 0.0
H674 H 0.11968 0.33103 0.9306 0.0
H675 H 0.07626 0.24225 0.84881 0.0
O676 O 1.00562 0.27714 0.97441 0.0
O677 O 0.03558 0.31262 0.91852 0.0
O678 O 0.07576 0.29033 0.97037 0.0
O679 O 0.02734 0.2332 0.91178 0.0
H680 H 0.95217 0.29665 0.9753 0.0
H681 H 0.03069 0.28552 0.03934 0.0
H682 H 0.93176 0.32257 0.02851 0.0
H683 H 1.00832 0.31058 0.09178 0.0
H684 H 0.04657 0.34194 0.81406 0.0
H685 H 1.00779 0.36591 0.92817 0.0
H686 H 0.05141 0.30248 0.85461 0.0
H687 H 1.00412 0.40454 0.88681 0.0
H688 H 0.04967 0.44772 0.05006 0.0
H689 H 0.08331 0.44081 0.95024 0.0
H690 H 0.91176 0.23476 0.81671 0.0
H691 H 0.91125 0.32681 0.8965 0.0
H692 H 0.12687 0.26911 0.95581 0.0
H693 H 0.08431 0.32601 0.03588 0.0
H694 H 0.17587 0.28507 0.99666 0.0
H695 H 0.13362 0.33953 0.07584 0.0
H696 H 0.07369 0.20114 0.91662 0.0
H697 H 1.00098 0.21487 0.84612 0.0
H698 H 0.08553 0.15672 0.86866 0.0
H699 H 1.01394 0.17047 0.79942 0.0
H700 H 0.03579 0.11324 0.94757 0.0
H701 H 0.07748 0.16928 0.05123 0.0
H702 H 0.16384 0.34658 0.89729 0.0
H703 H 0.11935 0.25532 0.81476 0.0
Li704 Li 0.46392 0.05801 0.36052 0.0
Li705 Li 0.41886 1.01941 0.32151 0.0
Li706 Li 0.46469 0.04718 0.29721 0.0
Li707 Li 0.42841 0.08128 0.32705 0.0
C708 C 0.47517 0.98598 0.32679 0.0
N709 N 0.50201 0.92888 0.32442 0.0
C710 C 0.4593 0.95504 0.33616 0.0
C711 C 0.50562 0.98864 0.31862 0.0
C712 C 0.47293 0.92619 0.334 0.0
C713 C 0.51865 0.95935 0.31719 0.0
C714 C 0.40128 0.0389 0.38627 0.0
C715 C 0.35243 1.02075 0.40836 0.0
N716 N 0.36671 1.00557 0.43088 0.0
C717 C 0.4153 0.02275 0.40938 0.0
C718 C 0.36959 0.03817 0.3859 0.0
C719 C 0.39756 1.00636 0.43194 0.0
C720 C 0.50954 0.09725 0.41858 0.0
N721 N 0.49338 0.06469 0.39934 0.0
C722 C 0.52662 0.03546 0.42604 0.0
C723 C 0.50094 0.03421 0.4036 0.0
C724 C 0.5433 0.06832 0.44654 0.0
C725 C 0.53494 0.09969 0.44286 0.0
H726 H 0.50265 0.12111 0.41528 0.0
H727 H 0.48636 1.00867 0.39081 0.0
C728 C 0.40406 0.95515 0.28382 0.0
N729 N 0.39162 0.97395 0.30928 0.0
C730 C 0.39734 0.91842 0.27768 0.0
C731 C 0.3578 0.92054 0.31604 0.0
C732 C 0.36733 0.95779 0.32397 0.0
C733 C 0.3756 0.90089 0.29609 0.0
H734 H 0.42203 0.96896 0.27141 0.0
H735 H 0.35633 0.97324 0.34265 0.0
C736 C 0.50409 0.11569 0.3434 0.0
N737 N 0.5626 0.15998 0.36806 0.0
C738 C 0.50748 0.15212 0.35699 0.0
C739 C 0.53044 0.10173 0.34282 0.0
C740 C 0.53727 0.1741 0.36914 0.0
C741 C 0.55981 0.12453 0.35535 0.0
C742 C 0.39564 0.02665 0.25872 0.0
C743 C 0.40011 1.01139 0.22492 0.0
C744 C 0.36542 0.02328 0.26768 0.0
C745 C 0.37415 0.99304 0.20057 0.0
C746 C 0.34009 1.00487 0.24257 0.0
N747 N 0.34493 0.99026 0.2098 0.0
C748 C 0.4851 1.00288 0.2472 0.0
C749 C 0.51493 0.06292 0.25851 0.0
C750 C 0.50727 0.99101 0.22846 0.0
N751 N 0.48991 0.03796 0.26291 0.0
C752 C 0.53754 0.05227 0.23921 0.0
C753 C 0.53406 1.01578 0.22519 0.0
H754 H 0.46507 0.9837 0.25101 0.0
H755 H 0.51782 0.09073 0.27084 0.0
C756 C 0.37811 0.11048 0.31832 0.0
N757 N 0.40963 0.11675 0.32084 0.0
C758 C 0.36232 0.12372 0.29412 0.0
C759 C 0.41216 0.15233 0.27898 0.0
C760 C 0.42687 0.13881 0.30355 0.0
C761 C 0.37962 0.14277 0.27272 0.0
H762 H 0.36517 0.09174 0.33163 0.0
H763 H 0.45171 0.14195 0.30554 0.0
O764 O 0.46135 1.01392 0.32703 0.0
O765 O 0.41867 0.05647 0.36508 0.0
O766 O 0.47505 0.09383 0.33128 0.0
O767 O 0.42079 0.04456 0.28296 0.0
H768 H 0.43672 0.95333 0.34518 0.0
H769 H 0.51902 1.01281 0.31299 0.0
H770 H 0.46053 0.90178 0.34028 0.0
H771 H 0.54194 0.96079 0.31021 0.0
H772 H 0.32775 1.01915 0.40786 0.0
H773 H 0.43966 0.0231 0.41024 0.0
H774 H 0.35826 0.05043 0.36815 0.0
H775 H 0.40839 0.99433 0.45032 0.0
H776 H 0.53167 1.01065 0.42971 0.0
H777 H 0.54668 0.12525 0.45972 0.0
H778 H 0.41037 0.9043 0.2602 0.0
H779 H 0.33797 0.90771 0.32652 0.0
H780 H 0.48734 0.16335 0.35821 0.0
H781 H 0.52821 0.07353 0.33319 0.0
H782 H 0.54023 0.20239 0.37949 0.0
H783 H 0.58037 0.11403 0.35509 0.0
H784 H 0.42336 1.01366 0.21758 0.0
H785 H 0.3616 0.03416 0.29394 0.0
H786 H 0.37725 0.98099 0.17434 0.0
H787 H 0.31657 1.00202 0.24918 0.0
H788 H 0.50342 0.9629 0.21634 0.0
H789 H 0.55745 0.07205 0.23534 0.0
H790 H 0.33707 0.11626 0.28981 0.0
H791 H 0.42591 0.16762 0.26313 0.0
Li792 Li 0.31632 0.23871 0.55577 0.0
Li793 Li 0.33835 0.19278 0.51813 0.0
Li794 Li 0.3186 0.23517 0.48576 0.0
Li795 Li 0.2794 0.18583 0.50879 0.0
C796 C 0.37868 0.27247 0.5407 0.0
N797 N 0.43274 0.32498 0.56659 0.0
C798 C 0.39878 0.26915 0.56823 0.0
C799 C 0.38599 0.30259 0.5265 0.0
C800 C 0.42604 0.29596 0.58089 0.0
C801 C 0.41343 0.32884 0.53993 0.0
C802 C 0.31239 0.1666 0.57418 0.0
C803 C 0.29589 0.11629 0.60009 0.0
N804 N 0.3217 0.12887 0.62417 0.0
C805 C 0.33876 0.17905 0.59912 0.0
C806 C 0.29077 0.13499 0.57457 0.0
C807 C 0.34306 0.15957 0.62418 0.0
C808 C 0.29967 0.23777 0.62392 0.0
N809 N 0.31757 0.26069 0.6075 0.0
C810 C 0.33924 0.29948 0.66411 0.0
C811 C 0.3369 0.29164 0.62709 0.0
C812 C 0.32262 0.27463 0.68143 0.0
C813 C 0.30319 0.24321 0.66042 0.0
H814 H 0.28389 0.21366 0.60865 0.0
H815 H 0.35161 0.30959 0.6143 0.0
C816 C 0.39989 0.19083 0.51565 0.0
N817 N 0.37221 0.17088 0.52097 0.0
C818 C 0.42768 0.18268 0.52585 0.0
C819 C 0.3978 0.13101 0.54296 0.0
C820 C 0.37048 0.14048 0.53281 0.0
C821 C 0.42678 0.1533 0.54096 0.0
H822 H 0.40053 0.21443 0.5055 0.0
H823 H 0.34812 0.1248 0.53637 0.0
C824 C 0.26273 0.25964 0.51456 0.0
N825 N 0.22001 0.30034 0.51139 0.0
C826 C 0.23767 0.24853 0.48802 0.0
C827 C 0.26626 0.29137 0.53943 0.0
C828 C 0.21632 0.26958 0.48681 0.0
C829 C 0.24427 0.31152 0.53748 0.0
C830 C 0.30101 0.15418 0.44473 0.0
C831 C 0.28173 0.15772 0.41664 0.0
C832 C 0.31232 0.12354 0.44238 0.0
C833 C 0.27447 0.13065 0.3863 0.0
C834 C 0.30439 0.09701 0.41166 0.0
N835 N 0.28588 0.10111 0.38445 0.0
C836 C 0.33732 0.23305 0.41606 0.0
C837 C 0.32938 0.28977 0.43936 0.0
C838 C 0.34381 0.24278 0.38438 0.0
N839 N 0.32922 0.25588 0.44279 0.0
C840 C 0.33669 0.30101 0.4083 0.0
C841 C 0.34369 0.27721 0.37984 0.0
H842 H 0.33861 0.20676 0.41898 0.0
H843 H 0.32376 0.30822 0.46068 0.0
C844 C 0.21733 0.16863 0.52511 0.0
N845 N 0.2369 0.15384 0.50529 0.0
C846 C 0.18766 0.1485 0.52808 0.0
C847 C 0.19803 0.09748 0.4903 0.0
C848 C 0.22773 0.11879 0.48791 0.0
C849 C 0.17739 0.11217 0.51082 0.0
H850 H 0.22504 0.19614 0.5394 0.0
H851 H 0.24362 0.10701 0.47274 0.0
O852 O 0.3524 0.24602 0.52695 0.0
O853 O 0.30702 0.18609 0.55044 0.0
O854 O 0.28339 0.23908 0.51686 0.0
O855 O 0.31002 0.18135 0.47375 0.0
H856 H 0.39361 0.24594 0.5794 0.0
H857 H 0.37072 0.30555 0.50518 0.0
H858 H 0.44193 0.29362 0.60201 0.0
H859 H 0.41942 0.35222 0.52909 0.0
H860 H 0.27928 0.09186 0.60085 0.0
H861 H 0.35551 0.20367 0.59931 0.0
H862 H 0.27011 0.12524 0.5556 0.0
H863 H 0.3633 0.16894 0.64374 0.0
H864 H 0.35564 0.32345 0.67902 0.0
H865 H 0.29133 0.22223 0.67211 0.0
H866 H 0.44968 0.20009 0.52348 0.0
H867 H 0.39634 0.10805 0.55446 0.0
H868 H 0.23468 0.22382 0.46876 0.0
H869 H 0.28564 0.30015 0.56012 0.0
H870 H 0.19677 0.26137 0.46641 0.0
H871 H 0.24656 0.33613 0.5566 0.0
H872 H 0.27297 0.18146 0.41806 0.0
H873 H 0.32736 0.12048 0.46389 0.0
H874 H 0.2599 0.1332 0.36416 0.0
H875 H 0.31311 0.07329 0.40936 0.0
H876 H 0.34879 0.22327 0.36341 0.0
H877 H 0.33553 0.32764 0.40606 0.0
H878 H 0.17316 0.16143 0.54451 0.0
H879 H 0.19145 0.0698 0.47638 0.0
Li880 Li 0.23554 0.06882 0.78592 0.0
Li881 Li 0.18855 0.03024 0.81717 0.0
Li882 Li 0.23085 0.99333 0.77822 0.0
Li883 Li 0.18642 0.02504 0.73918 0.0
C884 C 0.2601 0.04798 0.85027 0.0
N885 N 0.30538 0.06962 0.90742 0.0
C886 C 0.25613 0.07177 0.88 0.0
C887 C 0.28725 0.03556 0.84935 0.0
C888 C 0.27921 0.08221 0.90873 0.0
C889 C 0.3099 0.04683 0.87854 0.0
C890 C 0.17008 0.08921 0.787 0.0
C891 C 0.11901 0.10072 0.78142 0.0
N892 N 0.13207 0.13631 0.79296 0.0
C893 C 0.18298 0.1258 0.79934 0.0
C894 C 0.13784 0.07646 0.77839 0.0
C895 C 0.16338 0.14922 0.80195 0.0
C896 C 0.25434 0.13788 0.76197 0.0
N897 N 0.26287 0.12205 0.78785 0.0
C898 C 0.30321 0.17745 0.81212 0.0
C899 C 0.28726 0.14166 0.81268 0.0
C900 C 0.29412 0.19474 0.78625 0.0
C901 C 0.26925 0.17357 0.76086 0.0
H902 H 0.2354 0.12289 0.74192 0.0
H903 H 0.29453 0.12983 0.83339 0.0
C904 C 0.17765 0.03369 0.89897 0.0
N905 N 0.16286 0.03395 0.86694 0.0
C906 C 0.16305 0.03697 0.93077 0.0
C907 C 0.11672 0.03939 0.89842 0.0
C908 C 0.13234 0.03683 0.86723 0.0
C909 C 0.13164 0.03986 0.93192 0.0
H910 H 0.20138 0.03092 0.90058 0.0
H911 H 0.11938 0.03721 0.84303 0.0
C912 C 0.25574 0.02964 0.7191 0.0
N913 N 0.29764 0.03344 0.67093 0.0
C914 C 0.24988 1.00402 0.68776 0.0
C915 C 0.28336 0.05656 0.72642 0.0
C916 C 0.2712 1.0066 0.66357 0.0
C917 C 0.30416 0.05816 0.70165 0.0
C918 C 0.16495 0.95232 0.77479 0.0
C919 C 0.16664 0.92234 0.74991 0.0
C920 C 0.14969 0.94802 0.80382 0.0
C921 C 0.15312 0.88836 0.75475 0.0
C922 C 0.13681 0.91369 0.80793 0.0
N923 N 0.13878 0.88478 0.78351 0.0
C924 C 0.25912 0.93262 0.80789 0.0
C925 C 0.27169 0.93065 0.75173 0.0
C926 C 0.27448 0.90416 0.81082 0.0
N927 N 0.25718 0.94642 0.77854 0.0
C928 C 0.28736 0.90175 0.75371 0.0
C929 C 0.2896 0.88711 0.7839 0.0
H930 H 0.24848 0.94348 0.82998 0.0
H931 H 0.27127 0.94001 0.72781 0.0
C932 C 0.13638 0.04557 0.68262 0.0
N933 N 0.16133 0.0301 0.68653 0.0
C934 C 0.12254 0.04903 0.64905 0.0
C935 C 0.15985 0.02215 0.6223 0.0
C936 C 0.17261 1.01869 0.65584 0.0
C937 C 0.13426 0.03785 0.61709 0.0
H938 H 0.12627 0.05527 0.70553 0.0
H939 H 0.19193 1.00633 0.65667 0.0
O940 O 0.23716 0.03608 0.82252 0.0
O941 O 0.18879 0.06581 0.78346 0.0
O942 O 0.2347 0.02816 0.74265 0.0
O943 O 0.18023 0.98571 0.77247 0.0
H944 H 0.23531 0.0818 0.88094 0.0
H945 H 0.29068 1.01721 0.82642 0.0
H946 H 0.2763 0.10029 0.9321 0.0
H947 H 0.33098 0.03733 0.8783 0.0
H948 H 0.09402 0.09127 0.77455 0.0
H949 H 0.20779 0.13604 0.80695 0.0
H950 H 0.12753 0.04811 0.76921 0.0
H951 H 0.17305 0.17766 0.81121 0.0
H952 H 0.32219 0.19178 0.8324 0.0
H953 H 0.26153 0.18406 0.73945 0.0
H954 H 0.17667 0.03682 0.95466 0.0
H955 H 0.0928 0.04162 0.89613 0.0
H956 H 0.2291 0.98233 0.68222 0.0
H957 H 0.28878 0.07593 0.75099 0.0
H958 H 0.26676 0.98721 0.639 0.0
H959 H 0.32552 0.07902 0.70687 0.0
H960 H 0.1788 0.92529 0.72754 0.0
H961 H 0.14824 0.97097 0.82325 0.0
H962 H 0.15435 0.86482 0.73587 0.0
H963 H 0.12516 0.91002 0.83047 0.0
H964 H 0.27423 0.89525 0.83501 0.0
H965 H 0.2974 0.89077 0.73115 0.0
H966 H 0.10204 0.05953 0.64837 0.0
H967 H 0.17021 1.01161 0.5998 0.0
Li968 Li 0.35294 1.00376 0.02144 0.0
Li969 Li 0.36755 0.95595 0.04259 0.0
Li970 Li 0.40569 0.99669 0.01713 0.0
Li971 Li 0.36138 0.95301 0.97997 0.0
C972 C 0.39665 0.03578 0.08609 0.0
N973 N 0.42072 0.09291 0.14166 0.0
C974 C 0.38759 0.03466 0.119 0.0
C975 C 0.41811 0.06579 0.08143 0.0
C976 C 0.39996 0.06388 0.14677 0.0
C977 C 0.43005 0.0944 0.10989 0.0
C978 C 0.30958 0.91793 1.00716 0.0
C979 C 0.30222 0.85389 0.99027 0.0
N980 N 0.27149 0.84954 0.99398 0.0
C981 C 0.27794 0.9127 1.01119 0.0
C982 C 0.32183 0.88818 0.99696 0.0
C983 C 0.25908 0.87796 1.00436 0.0
C984 C 0.29641 1.02093 0.02533 0.0
N985 N 0.32759 0.03557 0.03173 0.0
C986 C 0.31966 0.09057 0.06292 0.0
C987 C 0.33949 0.06994 0.04932 0.0
C988 C 0.28739 0.07533 0.05899 0.0
C989 C 0.27574 0.04032 0.03895 0.0
H990 H 0.28773 0.99354 1.01119 0.0
H991 H 0.36438 0.08088 0.05418 0.0
C992 C 0.39973 0.93912 0.09098 0.0
N993 N 0.36972 0.93061 0.07598 0.0
C994 C 0.41136 0.91426 0.10455 0.0
C995 C 0.35955 0.87453 0.09133 0.0
C996 C 0.349 0.9001 0.07747 0.0
C997 C 0.39138 0.8811 0.10311 0.0
H998 H 0.41507 0.96418 0.09 0.0
H999 H 0.32501 0.89465 0.06623 0.0
C1000 C 0.39037 0.02862 0.96321 0.0
N1001 N 0.41961 0.07807 0.9283 0.0
C1002 C 0.39866 1.0173 0.93017 0.0
C1003 C 0.39665 0.06508 0.9784 0.0
C1004 C 0.41343 0.0427 0.91294 0.0
C1005 C 0.41162 0.08968 0.96039 0.0
C1006 C 0.41362 0.92076 1.00056 0.0
C1007 C 0.43917 0.9285 0.98217 0.0
C1008 C 0.40771 0.88895 1.01223 0.0
C1009 C 0.45836 0.90479 0.97627 0.0
C1010 C 0.4274 0.86586 1.00575 0.0
N1011 N 0.45216 0.87422 0.98813 0.0
C1012 C 0.46377 0.99419 0.04053 0.0
C1013 C 0.46574 0.03508 1.00392 0.0
C1014 C 0.49466 0.99344 0.03778 0.0
N1015 N 0.44941 1.01277 0.02173 0.0
C1016 C 0.49739 0.03712 1.00278 0.0
C1017 C 0.51165 1.01419 0.01749 0.0
H1018 H 0.45045 0.97708 0.05493 0.0
H1019 H 0.45433 0.05058 0.99001 0.0
C1020 C 0.32451 0.89946 0.92338 0.0
N1021 N 0.35292 0.92124 0.93693 0.0
C1022 C 0.3223 0.87 0.89634 0.0
C1023 C 0.37815 0.888 0.8963 0.0
C1024 C 0.37914 0.91708 0.92295 0.0
C1025 C 0.34951 0.86372 0.88311 0.0
H1026 H 0.3038 0.90425 0.93421 0.0
H1027 H 0.40087 0.93629 0.93282 0.0
O1028 O 0.38592 1.00672 0.05908 0.0
O1029 O 0.32807 0.95198 0.01258 0.0
O1030 O 0.37541 1.00412 0.98011 0.0
O1031 O 0.39552 0.94484 1.00856 0.0
H1032 H 0.37133 1.01134 0.12304 0.0
H1033 H 0.42551 0.06697 0.05615 0.0
H1034 H 0.39328 0.0633 0.17244 0.0
H1035 H 0.44683 0.11772 0.10674 0.0
H1036 H 0.31141 0.83075 0.98193 0.0
H1037 H 0.26794 0.93519 0.01939 0.0
H1038 H 0.34604 0.89147 0.99348 0.0
H1039 H 0.23454 0.87358 1.00724 0.0
H1040 H 0.32965 0.11768 0.07753 0.0
H1041 H 0.25117 0.02719 0.0355 0.0
H1042 H 0.43557 0.92065 0.11577 0.0
H1043 H 0.34339 0.84977 0.09225 0.0
H1044 H 0.39343 0.98927 0.91771 0.0
H1045 H 0.3903 0.07426 1.00388 0.0
H1046 H 0.4198 0.03428 0.88726 0.0
H1047 H 0.41686 0.11799 0.97192 0.0
H1048 H 0.44447 0.95285 0.97279 0.0
H1049 H 0.38822 0.88204 0.02633 0.0
H1050 H 0.47829 0.91081 0.96239 0.0
H1051 H 0.42304 0.84132 0.01485 0.0
H1052 H 0.50498 0.9768 0.0515 0.0
H1053 H 0.51038 0.05645 0.99073 0.0
H1054 H 0.29956 0.85339 0.88517 0.0
H1055 H 0.39939 0.8851 0.88545 0.0
Li1056 Li 0.33892 0.41811 0.04309 0.0
Li1057 Li 0.3582 0.37512 0.07268 0.0
Li1058 Li 0.39737 0.4233 0.04778 0.0
Li1059 Li 0.35961 0.36966 1.00375 0.0
C1060 C 0.37049 0.45884 0.1108 0.0
N1061 N 0.37438 0.51915 0.16223 0.0
C1062 C 0.36086 0.45558 0.14309 0.0
C1063 C 0.38211 0.49272 0.10463 0.0
C1064 C 0.36304 0.48641 0.16877 0.0
C1065 C 0.38382 0.5229 0.13095 0.0
C1066 C 0.29594 0.34256 0.03426 0.0
C1067 C 0.26154 0.28356 0.01997 0.0
N1068 N 0.23987 0.29656 0.03763 0.0
C1069 C 0.27323 0.35544 0.05197 0.0
C1070 C 0.29004 0.30642 0.01793 0.0
C1071 C 0.24508 0.3317 0.05352 0.0
C1072 C 0.29142 0.43266 1.0051 0.0
N1073 N 0.3068 0.44264 0.03797 0.0
C1074 C 0.27863 0.48758 0.0531 0.0
C1075 C 0.30034 0.46893 0.06232 0.0
C1076 C 0.26415 0.47922 0.01857 0.0
C1077 C 0.27016 0.45088 0.99467 0.0
H1078 H 0.29657 0.41126 0.98657 0.0
H1079 H 0.31263 0.47623 0.08842 0.0
C1080 C 0.37454 0.3451 0.13246 0.0
N1081 N 0.35044 0.35336 0.11501 0.0
C1082 C 0.37148 0.33453 0.16436 0.0
C1083 C 0.31853 0.33972 0.1603 0.0
C1084 C 0.32266 0.35063 0.1285 0.0
C1085 C 0.34339 0.33218 0.17937 0.0
H1086 H 0.39664 0.34767 0.12217 0.0
H1087 H 0.30381 0.35823 0.11543 0.0
C1088 C 0.37383 0.44774 0.98921 0.0
N1089 N 0.38319 0.49873 0.94992 0.0
C1090 C 0.38607 0.44101 0.95767 0.0
C1091 C 0.36686 0.48065 1.00105 0.0
C1092 C 0.39053 0.46706 0.93813 0.0
C1093 C 0.37163 0.50603 0.98073 0.0
C1094 C 0.41069 0.34564 0.03167 0.0
C1095 C 0.43522 0.35391 0.01226 0.0
C1096 C 0.40389 0.31268 0.04095 0.0
C1097 C 0.45291 0.32916 1.00277 0.0
C1098 C 0.42203 0.28854 0.03082 0.0
N1099 N 0.44601 0.29723 1.01217 0.0
C1100 C 0.45545 0.48118 0.0782 0.0
C1101 C 0.45072 0.45324 0.01865 0.0
C1102 C 0.48454 0.50377 0.07588 0.0
N1103 N 0.43909 0.45629 0.0497 0.0
C1104 C 0.47956 0.47469 0.01531 0.0
C1105 C 0.49716 0.50051 0.04404 0.0
H1106 H 0.44607 0.48364 0.1028 0.0
H1107 H 0.43761 0.43384 0.99613 0.0
C1108 C 0.33597 0.36521 0.93598 0.0
N1109 N 0.3529 0.34676 0.95194 0.0
C1110 C 0.3321 0.3607 0.89979 0.0
C1111 C 0.35869 0.31353 0.89478 0.0
C1112 C 0.36393 0.32062 0.93193 0.0
C1113 C 0.34399 0.33515 0.87802 0.0
H1114 H 0.32681 0.38532 0.9516 0.0
H1115 H 0.37714 0.30555 0.94448 0.0
O1116 O 0.36979 0.42894 0.08595 0.0
O1117 O 0.32365 0.36529 0.0324 0.0
O1118 O 0.36774 0.4218 1.00781 0.0
O1119 O 0.39387 0.37 0.04238 0.0
H1120 H 0.35213 0.42951 0.14839 0.0
H1121 H 0.39006 0.49566 0.07994 0.0
H1122 H 0.35592 0.4843 0.19397 0.0
H1123 H 0.39281 0.54931 0.12657 0.0
H1124 H 0.25665 0.25549 1.00752 0.0
H1125 H 0.27744 0.38338 0.06471 0.0
H1126 H 0.30733 0.29616 1.00389 0.0
H1127 H 0.22738 0.34121 0.06738 0.0
H1128 H 0.27426 0.50923 0.07218 0.0
H1129 H 0.25914 0.44357 0.96792 0.0
H1130 H 0.3913 0.32839 0.17714 0.0
H1131 H 0.2965 0.33878 0.17058 0.0
H1132 H 0.39216 0.41595 0.94836 0.0
H1133 H 0.35759 0.48647 0.02547 0.0
H1134 H 0.39978 0.46201 0.91356 0.0
H1135 H 0.36604 0.53149 0.98938 0.0
H1136 H 0.4407 0.37916 1.00473 0.0
H1137 H 0.38493 0.30595 0.056 0.0
H1138 H 0.47222 0.33543 0.98813 0.0
H1139 H 0.41707 0.26295 0.03787 0.0
H1140 H 0.49715 0.52314 0.09886 0.0
H1141 H 0.4879 0.47087 0.99013 0.0
H1142 H 0.31973 0.37774 0.88909 0.0
H1143 H 0.36647 0.29186 0.87964 0.0
Li1144 Li 0.81404 0.17116 0.07046 0.0
Li1145 Li 0.82699 0.12141 0.03126 0.0
Li1146 Li 0.79829 0.15995 1.00848 0.0
Li1147 Li 0.77367 0.11845 0.04187 0.0
C1148 C 0.86744 0.19986 0.04702 0.0
N1149 N 0.91977 0.2527 0.07853 0.0
C1150 C 0.89431 0.19074 0.05923 0.0
C1151 C 0.86731 0.23585 0.05046 0.0
C1152 C 0.92055 0.21787 0.07506 0.0
C1153 C 0.89394 0.26217 0.06665 0.0
C1154 C 0.7976 0.1036 0.09999 0.0
C1155 C 0.77139 0.04875 0.11419 0.0
N1156 N 0.77373 0.06633 0.14799 0.0
C1157 C 0.7996 0.12115 0.13485 0.0
C1158 C 0.78337 0.06713 0.08956 0.0
C1159 C 0.78728 0.10184 0.1587 0.0
C1160 C 0.79453 0.21033 0.12543 0.0
N1161 N 0.82112 0.20589 0.11205 0.0
C1162 C 0.85217 0.24944 0.15977 0.0
C1163 C 0.84968 0.22422 0.12888 0.0
C1164 C 0.82505 0.25514 0.17354 0.0
C1165 C 0.79595 0.23497 0.15639 0.0
H1166 H 0.77214 0.19415 0.11242 0.0
H1167 H 0.87046 0.2186 0.1191 0.0
C1168 C 0.86999 0.10184 0.99092 0.0
N1169 N 0.85722 0.09639 0.02009 0.0
C1170 C 0.89105 0.0826 0.97824 0.0
C1171 C 0.88651 0.05374 0.0269 0.0
C1172 C 0.86533 0.07355 0.03864 0.0
C1173 C 0.89894 0.05779 0.99596 0.0
H1174 H 0.86294 0.12033 0.97694 0.0
H1175 H 0.85459 0.06989 0.06176 0.0
C1176 C 0.75794 0.193 0.04157 0.0
N1177 N 0.72495 0.24291 0.03228 0.0
C1178 C 0.72655 0.18198 0.02737 0.0
C1179 C 0.77259 0.22941 0.05082 0.0
C1180 C 0.71028 0.20759 0.02287 0.0
C1181 C 0.7555 0.25423 0.04603 0.0
C1182 C 0.78063 0.07573 0.97237 0.0
C1183 C 0.76982 0.07446 0.93778 0.0
C1184 C 0.7827 0.04412 0.98215 0.0
C1185 C 0.76031 0.04153 0.91396 0.0
C1186 C 0.77292 1.01166 0.95759 0.0
N1187 N 0.76193 1.01104 0.92431 0.0
C1188 C 0.80423 0.21009 0.96634 0.0
C1189 C 0.75803 0.16339 0.95595 0.0
C1190 C 0.79123 0.22682 0.9432 0.0
N1191 N 0.78716 0.17943 0.97254 0.0
C1192 C 0.74437 0.17868 0.93219 0.0
C1193 C 0.76064 0.21135 0.92639 0.0
H1194 H 0.82717 0.22231 0.98053 0.0
H1195 H 0.74486 0.13956 0.96257 0.0
C1196 C 0.72307 0.11597 0.07722 0.0
N1197 N 0.73259 0.09861 0.04811 0.0
C1198 C 0.69181 0.11693 0.07773 0.0
C1199 C 0.68074 0.08063 0.01914 0.0
C1200 C 0.71216 0.08068 0.01947 0.0
C1201 C 0.67023 0.09888 0.04852 0.0
H1202 H 0.7402 0.13219 0.09861 0.0
H1203 H 0.72062 0.06963 0.99579 0.0
O1204 O 0.84144 0.17373 0.0317 0.0
O1205 O 0.81083 0.12171 0.07663 0.0
O1206 O 0.77416 0.16829 0.04669 0.0
O1207 O 0.789 0.10775 0.99632 0.0
H1208 H 0.89483 0.16304 0.05682 0.0
H1209 H 0.84676 0.24342 0.0412 0.0
H1210 H 0.94146 0.21124 0.0848 0.0
H1211 H 0.89403 0.29011 0.06989 0.0
H1212 H 0.7603 1.0205 0.10647 0.0
H1213 H 0.81102 0.14919 0.1436 0.0
H1214 H 0.78158 0.05309 0.06283 0.0
H1215 H 0.78866 0.11503 0.18576 0.0
H1216 H 0.87499 0.26254 0.17369 0.0
H1217 H 0.77465 0.23768 0.1672 0.0
H1218 H 0.90003 0.08586 0.95404 0.0
H1219 H 0.89181 0.03421 0.04068 0.0
H1220 H 0.71493 0.15397 0.01951 0.0
H1221 H 0.79685 0.23845 0.0618 0.0
H1222 H 0.68599 0.19938 1.01186 0.0
H1223 H 0.76652 0.2825 0.05327 0.0
H1224 H 0.76885 0.09855 0.92918 0.0
H1225 H 0.79206 0.04461 1.00828 0.0
H1226 H 0.75174 0.04025 0.88723 0.0
H1227 H 0.77419 0.98697 0.96495 0.0
H1228 H 0.8044 0.25231 0.93986 0.0
H1229 H 0.72096 0.16569 0.91945 0.0
H1230 H 0.68504 0.13303 0.09991 0.0
H1231 H 0.66532 0.06862 0.99519 0.0
Li1232 Li 0.26106 0.608 0.23094 0.0
Li1233 Li 0.22382 0.59214 0.27093 0.0
Li1234 Li 0.24927 0.55132 0.24255 0.0
Li1235 Li 0.21125 0.56931 0.21013 0.0
C1236 C 0.29084 0.59465 0.30002 0.0
N1237 N 0.33748 0.59156 0.34893 0.0
C1238 C 0.28612 0.59834 0.33502 0.0
C1239 C 0.31912 0.58895 0.28983 0.0
C1240 C 0.31 0.5967 0.35936 0.0
C1241 C 0.34243 0.5875 0.31495 0.0
C1242 C 0.20208 0.64103 0.24875 0.0
C1243 C 0.15244 0.64997 0.26458 0.0
N1244 N 0.16573 0.68537 0.27708 0.0
C1245 C 0.21525 0.67746 0.262 0.0
C1246 C 0.17041 0.62713 0.25027 0.0
C1247 C 0.19649 0.69945 0.27612 0.0
C1248 C 0.2729 0.66636 0.20563 0.0
N1249 N 0.28816 0.64706 0.22245 0.0
C1250 C 0.32339 0.69925 0.25631 0.0
C1251 C 0.31418 0.66234 0.2456 0.0
C1252 C 0.30522 0.71963 0.24305 0.0
C1253 C 0.28086 0.70338 0.21612 0.0
H1254 H 0.25163 0.65309 0.18827 0.0
H1255 H 0.32512 0.64626 0.25921 0.0
C1256 C 0.18148 0.58213 0.31498 0.0
N1257 N 0.20669 0.60647 0.31019 0.0
C1258 C 0.16089 0.59296 0.33672 0.0
C1259 C 0.19418 0.65313 0.35035 0.0
C1260 C 0.21437 0.64097 0.32835 0.0
C1261 C 0.16679 0.62901 0.35353 0.0
H1262 H 0.17661 0.55474 0.3007 0.0
H1263 H 0.23497 0.65934 0.32399 0.0
C1264 C 0.26936 0.56897 0.17096 0.0
N1265 N 0.3045 0.57912 0.11752 0.0
C1266 C 0.25574 0.5747 0.14019 0.0
C1267 C 0.30096 0.56908 0.17485 0.0
C1268 C 0.27394 0.57987 0.11348 0.0
C1269 C 0.31826 0.57396 0.14741 0.0
C1270 C 0.18209 0.51229 0.23231 0.0
C1271 C 0.19005 0.48082 0.21688 0.0
C1272 C 0.15063 0.51273 0.23218 0.0
C1273 C 0.16642 0.45044 0.20146 0.0
C1274 C 0.1277 0.48182 0.21643 0.0
N1275 N 0.136 0.45157 0.20154 0.0
C1276 C 0.25978 0.51288 0.28641 0.0
C1277 C 0.28766 0.50455 0.23744 0.0
C1278 C 0.27919 0.49854 0.30535 0.0
N1279 N 0.26547 0.51697 0.25407 0.0
C1280 C 0.30753 0.4898 0.25528 0.0
C1281 C 0.30408 0.48837 0.29013 0.0
H1282 H 0.2423 0.52441 0.2987 0.0
H1283 H 0.29157 0.50899 0.21186 0.0
C1284 C 0.17012 0.58897 0.16977 0.0
N1285 N 0.17982 0.55979 0.17461 0.0
C1286 C 0.14459 0.5853 0.14616 0.0
C1287 C 0.14232 0.52201 0.12893 0.0
C1288 C 0.16695 0.52668 0.15457 0.0
C1289 C 0.13127 0.55176 0.12489 0.0
H1290 H 0.18266 0.61539 0.1833 0.0
H1291 H 0.17631 0.50434 0.15783 0.0
O1292 O 0.26827 0.59795 0.27617 0.0
O1293 O 0.22004 0.61897 0.23455 0.0
O1294 O 0.25141 0.56111 0.19625 0.0
O1295 O 0.2048 0.54252 0.24751 0.0
H1296 H 0.26436 0.60272 0.34337 0.0
H1297 H 0.32303 0.58571 0.2628 0.0
H1298 H 0.30675 0.59968 0.38657 0.0
H1299 H 0.36445 0.58317 0.30745 0.0
H1300 H 0.12795 0.63952 0.26591 0.0
H1301 H 0.23983 0.68855 0.26224 0.0
H1302 H 0.15988 0.59893 0.24071 0.0
H1303 H 0.20646 0.72766 0.28659 0.0
H1304 H 0.34231 0.7114 0.27729 0.0
H1305 H 0.26655 0.71878 0.20567 0.0
H1306 H 0.14038 0.57363 0.34005 0.0
H1307 H 0.19966 0.6808 0.36442 0.0
H1308 H 0.23128 0.5746 0.13674 0.0
H1309 H 0.31196 0.56509 0.19863 0.0
H1310 H 0.26368 0.58402 0.08937 0.0
H1311 H 0.3427 0.57395 0.14997 0.0
H1312 H 0.21413 0.47982 0.21625 0.0
H1313 H 0.14393 0.53679 0.24383 0.0
H1314 H 0.17227 0.42599 0.1893 0.0
H1315 H 0.1033 0.4819 0.21599 0.0
H1316 H 0.27605 0.49748 0.33207 0.0
H1317 H 0.3268 0.48227 0.24305 0.0
H1318 H 0.13736 0.60892 0.14225 0.0
H1319 H 0.13273 0.49597 0.11176 0.0
Li1320 Li 0.83879 0.91837 0.54265 0.0
Li1321 Li 0.85798 0.87517 0.57218 0.0
Li1322 Li 0.89728 0.92328 0.54746 0.0
Li1323 Li 0.8595 0.86976 0.50326 0.0
C1324 C 0.87057 0.95868 0.61069 0.0
N1325 N 0.87567 1.01852 0.66307 0.0
C1326 C 0.86069 0.9551 0.64281 0.0
C1327 C 0.88289 0.99265 0.60511 0.0
C1328 C 0.86346 0.98571 0.66898 0.0
C1329 C 0.88528 0.0226 0.63193 0.0
C1330 C 0.79585 0.84266 0.53396 0.0
C1331 C 0.76189 0.78342 0.52044 0.0
N1332 N 0.74011 0.79638 0.53791 0.0
C1333 C 0.77303 0.85549 0.55148 0.0
C1334 C 0.79023 0.80641 0.51812 0.0
C1335 C 0.74504 0.83162 0.55333 0.0
C1336 C 0.79152 0.93351 0.50468 0.0
N1337 N 0.80681 0.94322 0.53759 0.0
C1338 C 0.77883 0.98836 0.55292 0.0
C1339 C 0.80042 0.9695 0.56203 0.0
C1340 C 0.76437 0.98021 0.51838 0.0
C1341 C 0.77035 0.95191 0.49437 0.0
H1342 H 0.79668 0.9122 0.48603 0.0
H1343 H 0.8127 0.97663 0.58814 0.0
C1344 C 0.87464 0.84596 0.63231 0.0
N1345 N 0.85029 0.85352 0.6146 0.0
C1346 C 0.87177 0.8356 0.66433 0.0
C1347 C 0.81848 0.83953 0.65987 0.0
C1348 C 0.82243 0.85028 0.62797 0.0
C1349 C 0.84358 0.8327 0.67919 0.0
H1350 H 0.89681 0.84896 0.62213 0.0
H1351 H 0.80336 0.85735 0.61471 0.0
C1352 C 0.87389 0.94813 0.4891 0.0
N1353 N 0.88338 0.99958 0.45034 0.0
C1354 C 0.88596 0.94157 0.45744 0.0
C1355 C 0.8672 0.98111 0.50137 0.0
C1356 C 0.89047 0.96784 0.43817 0.0
C1357 C 0.87201 1.00673 0.48129 0.0
C1358 C 0.91057 0.84555 0.53145 0.0
C1359 C 0.93519 0.85373 0.51211 0.0
C1360 C 0.90379 0.81269 0.54094 0.0
C1361 C 0.95296 0.82899 0.50293 0.0
C1362 C 0.92201 0.78856 0.53109 0.0
N1363 N 0.94607 0.79716 0.51252 0.0
C1364 C 0.95551 0.98098 0.57809 0.0
C1365 C 0.95065 0.9533 0.51845 0.0
C1366 C 0.9846 1.00357 0.5758 0.0
N1367 N 0.93907 0.95624 0.54953 0.0
C1368 C 0.97949 0.97478 0.51514 0.0
C1369 C 0.99716 1.00046 0.54393 0.0
H1370 H 0.9462 0.9833 0.60273 0.0
H1371 H 0.9375 0.93397 0.49591 0.0
C1372 C 0.8362 0.86534 0.43519 0.0
N1373 N 0.85301 0.84693 0.45139 0.0
C1374 C 0.83263 0.86078 0.39897 0.0
C1375 C 0.85923 0.81365 0.39441 0.0
C1376 C 0.86417 0.82079 0.43157 0.0
C1377 C 0.84469 0.83523 0.3774 0.0
H1378 H 0.8269 0.88544 0.45065 0.0
H1379 H 0.87728 0.80575 0.4443 0.0
O1380 O 0.86959 0.92896 0.58549 0.0
O1381 O 0.82341 0.86551 0.53184 0.0
O1382 O 0.86773 0.92197 0.50743 0.0
O1383 O 0.89368 0.86993 0.54191 0.0
H1384 H 0.85135 0.92895 0.64763 0.0
H1385 H 0.89093 0.99583 0.58051 0.0
H1386 H 0.85612 0.98337 0.69406 0.0
H1387 H 0.89491 0.04907 0.62806 0.0
H1388 H 0.75722 0.75527 0.50836 0.0
H1389 H 0.77702 0.88351 0.56385 0.0
H1390 H 0.80761 0.79618 0.50423 0.0
H1391 H 0.72726 0.84109 0.56705 0.0
H1392 H 0.77458 1.01005 0.57208 0.0
H1393 H 0.75937 0.94477 0.46761 0.0
H1394 H 0.89179 0.83005 0.67727 0.0
H1395 H 0.79634 0.83813 0.67002 0.0
H1396 H 0.8919 0.91648 0.44785 0.0
H1397 H 0.85812 0.98682 0.52592 0.0
H1398 H 0.89959 0.96289 0.41351 0.0
H1399 H 0.86663 0.03225 0.49026 0.0
H1400 H 0.94068 0.8789 0.50442 0.0
H1401 H 0.88478 0.80602 0.55594 0.0
H1402 H 0.97235 0.83519 0.48836 0.0
H1403 H 0.91706 0.76305 0.53832 0.0
H1404 H 0.99729 0.02281 0.59883 0.0
H1405 H 0.98778 0.97108 0.48993 0.0
H1406 H 0.82036 0.87779 0.38809 0.0
H1407 H 0.86711 0.79196 0.37944 0.0
Li1408 Li 0.98682 0.08666 0.3214 0.0
Li1409 Li 0.93869 0.04381 0.27579 0.0
Li1410 Li 0.98552 0.08381 0.24495 0.0
Li1411 Li 0.94288 0.11953 0.28314 0.0
C1412 C 1.00517 0.02521 0.27739 0.0
N1413 N 0.04313 0.97816 0.273 0.0
C1414 C 0.9971 0.99467 0.29069 0.0
C1415 C 0.03304 0.03257 0.26302 0.0
C1416 C 0.01612 0.97065 0.28724 0.0
C1417 C 0.05206 1.00857 0.26125 0.0
C1418 C 0.91813 0.07439 0.34062 0.0
C1419 C 0.87243 0.0794 0.36861 0.0
N1420 N 0.87666 0.05358 0.38544 0.0
C1421 C 0.92192 0.0478 0.35792 0.0
C1422 C 0.89312 0.09024 0.34572 0.0
C1423 C 0.90075 0.03771 0.38051 0.0
C1424 C 0.99697 0.08627 0.40301 0.0
N1425 N 1.01188 0.0823 0.37366 0.0
C1426 C 0.05405 0.06956 0.41168 0.0
C1427 C 0.04041 0.07381 0.37841 0.0
C1428 C 0.03854 0.0726 0.4421 0.0
C1429 C 1.00937 0.08144 0.43611 0.0
H1430 H 0.97474 0.09318 0.40125 0.0
H1431 H 0.05323 0.07003 0.35629 0.0
C1432 C 0.92238 0.96152 0.2554 0.0
N1433 N 0.91129 0.98977 0.27136 0.0
C1434 C 0.90776 0.92533 0.25537 0.0
C1435 C 0.86837 0.94585 0.28565 0.0
C1436 C 0.88424 0.98184 0.28605 0.0
C1437 C 0.88008 0.91637 0.27061 0.0
H1438 H 0.9433 0.96683 0.24302 0.0
H1439 H 0.87483 1.00344 0.29877 0.0
C1440 C 0.01577 0.15823 0.298 0.0
N1441 N 0.0609 0.2217 0.31641 0.0
C1442 C 1.01295 0.18668 0.28288 0.0
C1443 C 0.04149 0.16191 0.32237 0.0
C1444 C 0.03614 0.21855 0.29243 0.0
C1445 C 0.06399 0.1943 0.33148 0.0
C1446 C 0.91474 0.07265 0.21194 0.0
C1447 C 0.92224 0.08996 0.18505 0.0
C1448 C 0.88447 0.0522 0.21103 0.0
C1449 C 0.89932 0.08619 0.15732 0.0
C1450 C 0.86215 0.04925 0.18293 0.0
N1451 N 0.87 0.06611 0.15686 0.0
C1452 C 0.99347 0.06309 0.16274 0.0
C1453 C 0.04166 0.09166 0.19532 0.0
C1454 C 1.00777 0.05934 0.13081 0.0
N1455 N 1.00998 0.07936 0.19524 0.0
C1456 C 0.05685 0.08768 0.16405 0.0
C1457 C 0.04045 0.07144 0.13002 0.0
H1458 H 0.9686 0.0524 0.16093 0.0
H1459 H 0.05595 0.10458 0.21996 0.0
C1460 C 0.9047 0.18414 0.30986 0.0
N1461 N 0.91687 0.16609 0.28224 0.0
C1462 C 0.88908 0.21289 0.30749 0.0
C1463 C 0.89751 0.20586 0.24846 0.0
C1464 C 0.91279 0.17749 0.25177 0.0
C1465 C 0.88463 0.22505 0.27614 0.0
H1466 H 0.90708 0.17684 0.33471 0.0
H1467 H 0.92168 0.16479 0.22909 0.0
O1468 O 0.98549 0.04733 0.27722 0.0
O1469 O 0.93893 0.08493 0.31886 0.0
O1470 O 0.99287 0.12731 0.29017 0.0
O1471 O 0.93686 0.07598 0.23922 0.0
H1472 H 0.97608 0.98919 0.3029 0.0
H1473 H 0.03979 0.05648 0.25318 0.0
H1474 H 1.00956 0.94617 0.29623 0.0
H1475 H 0.07371 1.01388 0.25014 0.0
H1476 H 0.85302 0.09151 0.373 0.0
H1477 H 0.94103 0.03508 0.35389 0.0
H1478 H 0.8898 0.1107 0.33221 0.0
H1479 H 0.90357 1.01723 0.39397 0.0
H1480 H 0.07672 0.06365 0.41324 0.0
H1481 H 0.99564 0.08492 0.45748 0.0
H1482 H 0.91816 0.90434 0.24316 0.0
H1483 H 0.84742 0.94134 0.29815 0.0
H1484 H 0.99297 0.18422 0.26419 0.0
H1485 H 0.04383 0.1401 0.33441 0.0
H1486 H 0.03436 0.24084 0.28095 0.0
H1487 H 0.08388 0.19767 0.35056 0.0
H1488 H 0.94553 0.10616 0.18563 0.0
H1489 H 0.87831 0.0388 0.23182 0.0
H1490 H 0.90482 0.09929 0.13621 0.0
H1491 H 0.8386 0.03354 0.18184 0.0
H1492 H 0.99286 0.04638 0.10657 0.0
H1493 H 0.08179 0.09738 0.16711 0.0
H1494 H 0.88089 0.22578 0.33062 0.0
H1495 H 0.89595 0.21293 0.2234 0.0
Li1496 Li 0.31473 0.66601 0.57858 0.0
Li1497 Li 0.32728 0.61776 0.53687 0.0
Li1498 Li 0.29988 0.65917 0.51756 0.0
Li1499 Li 0.27378 0.61544 0.54691 0.0
C1500 C 0.36931 0.69604 0.55581 0.0
N1501 N 0.42326 0.74741 0.58538 0.0
C1502 C 0.39629 0.6859 0.56593 0.0
C1503 C 0.36988 0.73238 0.56057 0.0
C1504 C 0.42332 0.71228 0.58083 0.0
C1505 C 0.39734 0.75791 0.57563 0.0
C1506 C 0.2962 0.59475 0.60227 0.0
C1507 C 0.27184 0.53691 0.61155 0.0
N1508 N 0.271 0.5521 0.64546 0.0
C1509 C 0.29483 0.60986 0.63711 0.0
C1510 C 0.2846 0.55804 0.58932 0.0
C1511 C 0.28197 0.58782 0.65855 0.0
C1512 C 0.2955 0.70409 0.63329 0.0
N1513 N 0.32219 0.69947 0.62036 0.0
C1514 C 0.35276 0.7472 0.66473 0.0
C1515 C 0.35062 0.71953 0.63599 0.0
C1516 C 0.32543 0.75356 0.67747 0.0
C1517 C 0.29656 0.73133 0.6619 0.0
H1518 H 0.27329 0.68667 0.62123 0.0
H1519 H 0.37155 0.71393 0.62656 0.0
C1520 C 0.36775 0.59789 0.49364 0.0
N1521 N 0.35703 0.5929 0.52396 0.0
C1522 C 0.38857 0.57906 0.47961 0.0
C1523 C 0.38813 0.55167 0.52932 0.0
C1524 C 0.36705 0.57099 0.54237 0.0
C1525 C 0.39841 0.55518 0.49721 0.0
H1526 H 0.35929 0.61576 0.47991 0.0
H1527 H 0.35799 0.56781 0.5665 0.0
C1528 C 0.25978 0.69179 0.55283 0.0
N1529 N 0.22873 0.74447 0.54762 0.0
C1530 C 0.22802 0.68267 0.54024 0.0
C1531 C 0.27573 0.7278 0.56263 0.0
C1532 C 0.21274 0.70962 0.53781 0.0
C1533 C 0.25963 0.75401 0.55987 0.0
C1534 C 0.27787 0.5772 0.47618 0.0
C1535 C 0.26248 0.57935 0.44471 0.0
C1536 C 0.28073 0.54399 0.48141 0.0
C1537 C 0.24957 0.54812 0.41932 0.0
C1538 C 0.26741 0.51332 0.45541 0.0
N1539 N 0.25221 0.516 0.42518 0.0
C1540 C 0.31305 0.71264 0.48249 0.0
C1541 C 0.2611 0.67647 0.47183 0.0
C1542 C 0.30391 0.73742 0.46636 0.0
N1543 N 0.29142 0.68363 0.4856 0.0
C1544 C 0.25085 0.7006 0.45562 0.0
C1545 C 0.27239 0.73163 0.45355 0.0
H1546 H 0.337 0.71694 0.49339 0.0
H1547 H 0.24465 0.65308 0.47534 0.0
C1548 C 0.22207 0.61179 0.58031 0.0
N1549 N 0.23211 0.59521 0.55119 0.0
C1550 C 0.19099 0.61379 0.5799 0.0
C1551 C 0.18095 0.57956 0.52052 0.0
C1552 C 0.21218 0.57862 0.52177 0.0
C1553 C 0.17002 0.59733 0.5498 0.0
H1554 H 0.23884 0.62692 0.60247 0.0
H1555 H 0.2209 0.56777 0.49828 0.0
O1556 O 0.34268 0.67055 0.54101 0.0
O1557 O 0.31019 0.61556 0.58142 0.0
O1558 O 0.27518 0.66561 0.55536 0.0
O1559 O 0.29016 0.60755 0.5015 0.0
H1560 H 0.39634 0.65797 0.56247 0.0
H1561 H 0.34929 0.74089 0.55323 0.0
H1562 H 0.44433 0.70482 0.58886 0.0
H1563 H 0.39801 0.78607 0.5797 0.0
H1564 H 0.26278 0.50842 0.60193 0.0
H1565 H 0.3041 0.63815 0.64767 0.0
H1566 H 0.28567 0.54595 0.56252 0.0
H1567 H 0.28087 0.59907 0.68563 0.0
H1568 H 0.3755 0.7619 0.67785 0.0
H1569 H 0.27516 0.73446 0.67228 0.0
H1570 H 0.39599 0.58201 0.45463 0.0
H1571 H 0.39506 0.53295 0.54312 0.0
H1572 H 0.21543 0.65508 0.53146 0.0
H1573 H 0.30027 0.73548 0.57237 0.0
H1574 H 0.18822 0.70281 0.52789 0.0
H1575 H 0.27172 0.78196 0.56745 0.0
H1576 H 0.26053 0.60483 0.43983 0.0
H1577 H 0.29322 0.54192 0.50517 0.0
H1578 H 0.23751 0.54947 0.39496 0.0
H1579 H 0.26925 0.48739 0.45921 0.0
H1580 H 0.32113 0.76064 0.46359 0.0
H1581 H 0.22668 0.695 0.44451 0.0
H1582 H 0.184 0.62963 0.60208 0.0
H1583 H 0.16605 0.56862 0.49605 0.0
Li1584 Li 0.43829 0.54378 0.776 0.0
Li1585 Li 0.48655 0.58658 0.82148 0.0
Li1586 Li 0.4426 0.61961 0.78347 0.0
Li1587 Li 0.48517 0.58368 0.74499 0.0
C1588 C 0.41794 0.57437 0.84091 0.0
N1589 N 0.37653 0.55343 0.88574 0.0
C1590 C 0.42174 0.5477 0.8581 0.0
C1591 C 0.39296 0.59022 0.84611 0.0
C1592 C 0.4006 0.53754 0.88069 0.0
C1593 C 0.37229 0.57933 0.86902 0.0
C1594 C 0.50483 0.52515 0.77751 0.0
C1595 C 0.55186 0.50873 0.76153 0.0
N1596 N 0.54296 0.47829 0.77325 0.0
C1597 C 0.49681 0.49457 0.79077 0.0
C1598 C 0.53275 0.53264 0.76324 0.0
C1599 C 0.51592 0.47066 0.78739 0.0
C1600 C 0.42176 0.46139 0.75585 0.0
N1601 N 0.41074 0.48975 0.77169 0.0
C1602 C 0.36769 0.44603 0.78605 0.0
C1603 C 0.38366 0.48196 0.78636 0.0
C1604 C 0.3793 0.41643 0.77111 0.0
C1605 C 0.40702 0.42524 0.7559 0.0
H1606 H 0.4427 0.46657 0.74349 0.0
H1607 H 0.37431 0.50365 0.799 0.0
C1608 C 0.49676 0.58628 0.90308 0.0
N1609 N 0.51167 0.58229 0.87372 0.0
C1610 C 0.50918 0.58149 0.93618 0.0
C1611 C 0.55386 0.56963 0.91175 0.0
C1612 C 0.5402 0.57383 0.87847 0.0
C1613 C 0.53835 0.57268 0.94217 0.0
H1614 H 0.47453 0.59319 0.90131 0.0
H1615 H 0.55303 0.57005 0.85636 0.0
C1616 C 0.41441 0.57266 0.71207 0.0
N1617 N 0.36984 0.56595 0.65676 0.0
C1618 C 0.42201 0.58991 0.68515 0.0
C1619 C 0.38413 0.5522 0.71107 0.0
C1620 C 0.39918 0.58605 0.65731 0.0
C1621 C 0.3619 0.54916 0.68285 0.0
C1622 C 0.51558 0.65809 0.79806 0.0
C1623 C 0.51279 0.68661 0.78303 0.0
C1624 C 0.54137 0.66164 0.82229 0.0
C1625 C 0.53607 0.7184 0.79253 0.0
C1626 C 0.56395 0.69396 0.83136 0.0
N1627 N 0.56089 0.72142 0.81638 0.0
C1628 C 0.40447 0.68418 0.81082 0.0
C1629 C 0.41259 0.67809 0.75278 0.0
C1630 C 0.38891 0.71306 0.8088 0.0
N1631 N 0.41664 0.66634 0.78306 0.0
C1632 C 0.39738 0.70661 0.74982 0.0
C1633 C 0.38453 0.72561 0.77767 0.0
H1634 H 0.40683 0.67661 0.83555 0.0
H1635 H 0.42146 0.66557 0.72999 0.0
C1636 C 0.4932 0.56287 0.66263 0.0
N1637 N 0.50969 0.57908 0.69516 0.0
C1638 C 0.50755 0.55902 0.63071 0.0
C1639 C 0.55662 0.58711 0.664 0.0
C1640 C 0.5414 0.5912 0.69526 0.0
C1641 C 0.54026 0.57094 0.62994 0.0
H1642 H 0.46831 0.55231 0.66077 0.0
H1643 H 0.5557 0.60406 0.7199 0.0
O1644 O 0.43869 0.58493 0.81911 0.0
O1645 O 0.48509 0.54718 0.77728 0.0
O1646 O 0.43646 0.57604 0.73945 0.0
O1647 O 0.49261 0.62724 0.79026 0.0
H1648 H 0.44084 0.53496 0.85398 0.0
H1649 H 0.38961 0.61071 0.83266 0.0
H1650 H 0.40341 0.51697 0.89405 0.0
H1651 H 0.3529 0.59144 0.87348 0.0
H1652 H 0.57353 0.51413 0.7505 0.0
H1653 H 0.47575 0.48901 0.8029 0.0
H1654 H 0.53947 0.55658 0.75345 0.0
H1655 H 0.5094 0.44617 0.79636 0.0
H1656 H 0.34672 0.44164 0.79853 0.0
H1657 H 0.41737 0.40417 0.74377 0.0
H1658 H 0.49545 0.58498 0.95755 0.0
H1659 H 0.57654 0.56374 0.91332 0.0
H1660 H 0.44532 0.6061 0.6858 0.0
H1661 H 0.3779 0.53884 0.73186 0.0
H1662 H 0.40476 0.59909 0.63618 0.0
H1663 H 0.33834 0.53345 0.68168 0.0
H1664 H 0.49277 0.68426 0.76444 0.0
H1665 H 0.54368 0.63977 0.83426 0.0
H1666 H 0.53431 0.74074 0.78112 0.0
H1667 H 0.58389 0.69722 0.85036 0.0
H1668 H 0.38075 0.72576 0.83203 0.0
H1669 H 0.39588 0.71397 0.72489 0.0
H1670 H 0.49263 0.54612 0.60645 0.0
H1671 H 0.58158 0.59666 0.6671 0.0
Li1672 Li 0.72238 0.08919 0.77264 0.0
Li1673 Li 0.76357 0.10676 0.73829 0.0
Li1674 Li 0.71293 0.07215 0.7112 0.0
Li1675 Li 0.74672 0.04637 0.74204 0.0
C1676 C 0.70217 0.14039 0.74988 0.0
N1677 N 0.65982 0.17953 0.77181 0.0
C1678 C 0.71189 0.17748 0.76191 0.0
C1679 C 0.67084 0.12327 0.74934 0.0
C1680 C 0.69017 0.19678 0.77284 0.0
C1681 C 0.6498 0.14349 0.76037 0.0
C1682 C 0.78904 0.092 0.80533 0.0
C1683 C 0.83964 0.08402 0.82353 0.0
N1684 N 0.83778 0.10069 0.85671 0.0
C1685 C 0.78757 0.10894 0.83962 0.0
C1686 C 0.8152 0.07926 0.79721 0.0
C1687 C 0.81246 0.11312 0.86522 0.0
C1688 C 0.68006 0.07616 0.81635 0.0
N1689 N 0.70429 0.10142 0.81101 0.0
C1690 C 0.68715 0.14805 0.84526 0.0
C1691 C 0.70938 0.13648 0.82645 0.0
C1692 C 0.66113 0.12291 0.84989 0.0
C1693 C 0.65795 0.08644 0.83621 0.0
H1694 H 0.67715 0.04843 0.80378 0.0
H1695 H 0.7292 0.1556 0.82152 0.0
C1696 C 0.78256 0.16951 0.72434 0.0
N1697 N 0.7952 0.14648 0.73848 0.0
C1698 C 0.79093 0.20558 0.74016 0.0
C1699 C 0.82833 0.19394 0.78153 0.0
C1700 C 0.8192 0.15792 0.76485 0.0
C1701 C 0.81297 0.21758 0.76988 0.0
H1702 H 0.76274 0.15934 0.70426 0.0
H1703 H 0.82879 0.13901 0.77556 0.0
C1704 C 0.6787 1.01195 0.73034 0.0
N1705 N 0.6311 0.95226 0.70095 0.0
C1706 C 0.68552 0.98053 0.71279 0.0
C1707 C 0.64762 1.01276 0.73328 0.0
C1708 C 0.66114 0.95071 0.69803 0.0
C1709 C 0.62391 0.98239 0.71813 0.0
C1710 C 0.77273 0.0706 0.67512 0.0
C1711 C 0.76108 0.07793 0.64423 0.0
C1712 C 0.80367 0.0684 0.68017 0.0
C1713 C 0.78057 0.08236 0.61851 0.0
C1714 C 0.82238 0.07297 0.65382 0.0
N1715 N 0.81056 0.07973 0.62377 0.0
C1716 C 0.67284 0.09474 0.67005 0.0
C1717 C 0.6688 0.03224 0.65625 0.0
C1718 C 0.64621 0.09059 0.6476 0.0
N1719 N 0.68259 0.06562 0.67505 0.0
C1720 C 0.6428 0.02695 0.63242 0.0
C1721 C 0.63157 0.05647 0.62816 0.0
H1722 H 0.68587 0.12125 0.68309 0.0
H1723 H 0.67838 1.01002 0.6592 0.0
C1724 C 0.75424 1.0059 0.78321 0.0
N1725 N 0.76003 1.00941 0.75079 0.0
C1726 C 0.77315 0.9912 0.80231 0.0
C1727 C 0.8016 0.98157 0.7524 0.0
C1728 C 0.78198 0.9964 0.73424 0.0
C1729 C 0.79812 0.98083 0.78744 0.0
H1730 H 0.73749 1.01868 0.79561 0.0
H1731 H 0.78647 1.0013 0.70892 0.0
O1732 O 0.72329 0.12079 0.73975 0.0
O1733 O 0.76504 0.08833 0.77989 0.0
O1734 O 0.70222 0.04153 0.74516 0.0
O1735 O 0.75329 0.06291 0.69913 0.0
H1736 H 0.73602 0.19123 0.76373 0.0
H1737 H 0.66294 0.0946 0.74071 0.0
H1738 H 0.6975 0.22545 0.78239 0.0
H1739 H 0.62555 0.13049 0.76007 0.0
H1740 H 0.8601 0.07446 0.81757 0.0
H1741 H 0.76753 0.119 0.8464 0.0
H1742 H 0.81689 0.06651 0.77073 0.0
H1743 H 0.81171 0.12634 0.89184 0.0
H1744 H 0.68998 0.17608 0.85573 0.0
H1745 H 0.63844 0.06639 0.84053 0.0
H1746 H 0.77824 0.22333 0.73123 0.0
H1747 H 0.8456 0.2028 0.80442 0.0
H1748 H 0.70925 0.97927 0.70976 0.0
H1749 H 0.64177 0.03657 0.74705 0.0
H1750 H 0.6661 0.92638 0.6841 0.0
H1751 H 0.59978 0.98277 0.72005 0.0
H1752 H 0.73707 0.07944 0.63987 0.0
H1753 H 0.81303 0.06282 0.704 0.0
H1754 H 0.77184 0.0877 0.59429 0.0
H1755 H 0.8464 0.0715 0.65739 0.0
H1756 H 0.63892 0.11398 0.64309 0.0
H1757 H 0.63256 1.00056 0.61618 0.0
H1758 H 0.77003 0.99083 0.82917 0.0
H1759 H 0.82106 0.97419 0.74043 0.0
Li1760 Li 0.81759 0.73803 0.05471 0.0
Li1761 Li 0.83741 0.69017 0.01684 0.0
Li1762 Li 0.81958 0.73413 0.98506 0.0
Li1763 Li 0.779 0.68626 1.00802 0.0
C1764 C 0.87903 0.77103 0.04005 0.0
N1765 N 0.9307 0.82666 0.067 0.0
C1766 C 0.90029 0.76836 0.06683 0.0
C1767 C 0.8839 0.80211 0.02723 0.0
C1768 C 0.92631 0.79675 0.08004 0.0
C1769 C 0.91018 0.82992 0.04114 0.0
C1770 C 0.81179 0.66643 0.07346 0.0
C1771 C 0.79545 0.61725 0.1009 0.0
N1772 N 0.8223 0.62913 0.12344 0.0
C1773 C 0.83921 0.67821 0.09686 0.0
C1774 C 0.7897 0.63575 0.07541 0.0
C1775 C 0.8441 0.65895 0.12195 0.0
C1776 C 0.80089 0.73786 0.12313 0.0
N1777 N 0.81929 0.76027 0.10663 0.0
C1778 C 0.84131 0.79895 0.16323 0.0
C1779 C 0.83904 0.79095 0.12619 0.0
C1780 C 0.82417 0.77453 0.18062 0.0
C1781 C 0.80436 0.74336 0.15963 0.0
H1782 H 0.78464 0.71408 0.10793 0.0
H1783 H 0.85408 0.80857 0.11339 0.0
C1784 C 0.89845 0.68001 0.02238 0.0
N1785 N 0.86774 0.66344 0.02004 0.0
C1786 C 0.92122 0.66476 0.03518 0.0
C1787 C 0.88035 0.61429 0.03954 0.0
C1788 C 0.85845 0.63031 0.02638 0.0
C1789 C 0.91191 0.63241 0.04551 0.0
H1790 H 0.90514 0.70625 0.0169 0.0
H1791 H 0.83388 0.61771 0.02409 0.0
C1792 C 0.76398 0.76018 0.01433 0.0
N1793 N 0.72057 0.80013 1.01179 0.0
C1794 C 0.73905 0.74915 0.98763 0.0
C1795 C 0.76702 0.79146 0.03967 0.0
C1796 C 0.71733 0.76981 0.98677 0.0
C1797 C 0.74471 0.81125 0.03802 0.0
C1798 C 0.79864 0.65469 0.94256 0.0
C1799 C 0.7794 0.66119 0.91614 0.0
C1800 C 0.80841 0.6229 0.93737 0.0
C1801 C 0.77059 0.63586 0.88461 0.0
C1802 C 0.79891 0.59816 0.90555 0.0
N1803 N 0.78045 0.60513 0.88002 0.0
C1804 C 0.83825 0.73223 0.91534 0.0
C1805 C 0.82987 0.78872 0.93881 0.0
C1806 C 0.8445 0.7421 0.88366 0.0
N1807 N 0.83012 0.7549 0.94217 0.0
C1808 C 0.83699 0.80011 0.90778 0.0
C1809 C 0.84409 0.7765 0.87925 0.0
H1810 H 0.83963 0.70592 0.91815 0.0
H1811 H 0.82399 0.80697 0.96011 0.0
C1812 C 0.71666 0.66957 0.02445 0.0
N1813 N 0.73629 0.65483 1.0047 0.0
C1814 C 0.68709 0.64927 0.02757 0.0
C1815 C 0.69771 0.59824 0.99006 0.0
C1816 C 0.72729 0.6197 0.98754 0.0
C1817 C 0.67701 0.61285 1.01053 0.0
H1818 H 0.72426 0.69713 0.03864 0.0
H1819 H 0.74327 0.60795 0.97249 0.0
O1820 O 0.85411 0.743 0.0256 0.0
O1821 O 0.8061 0.68555 0.04946 0.0
O1822 O 0.78496 0.73994 0.01633 0.0
O1823 O 0.80907 0.68008 0.97276 0.0
H1824 H 0.89693 0.74451 0.07706 0.0
H1825 H 0.86768 0.80461 1.00655 0.0
H1826 H 0.94308 0.79495 0.10058 0.0
H1827 H 0.91433 0.85403 0.03129 0.0
H1828 H 0.77853 0.5935 0.10284 0.0
H1829 H 0.85638 0.70208 0.09577 0.0
H1830 H 0.76826 0.62652 0.05761 0.0
H1831 H 0.86517 0.66779 0.1403 0.0
H1832 H 0.85802 0.82268 0.17811 0.0
H1833 H 0.79218 0.72258 0.17134 0.0
H1834 H 0.94544 0.67951 0.03986 0.0
H1835 H 0.87253 0.58941 0.04759 0.0
H1836 H 0.73641 0.72478 0.96801 0.0
H1837 H 0.78629 0.80017 0.0605 0.0
H1838 H 0.69785 0.76164 0.96628 0.0
H1839 H 0.74666 0.83553 0.05747 0.0
H1840 H 0.77185 0.68584 0.91974 0.0
H1841 H 0.82344 0.61756 0.95749 0.0
H1842 H 0.75603 0.6407 0.86373 0.0
H1843 H 0.80634 0.57353 0.90104 0.0
H1844 H 0.84952 0.72272 0.86259 0.0
H1845 H 0.83556 0.82667 0.9056 0.0
H1846 H 0.67253 0.66214 0.04397 0.0
H1847 H 0.69128 0.5705 0.97632 0.0
Li1848 Li 0.91965 0.5193 0.81888 0.0
Li1849 Li 0.96429 0.55787 0.85808 0.0
Li1850 Li 0.92905 0.58122 0.82449 0.0
Li1851 Li 0.9655 0.54732 0.795 0.0
C1852 C 0.90188 0.54138 0.88485 0.0
N1853 N 0.86784 0.51765 0.93476 0.0
C1854 C 0.91617 0.52958 0.9115 0.0
C1855 C 0.87014 0.54059 0.88333 0.0
C1856 C 0.89865 0.51806 0.93671 0.0
C1857 C 0.85324 0.52803 0.90855 0.0
C1858 C 0.97571 0.48587 0.82456 0.0
C1859 C 0.0192 0.45913 0.81559 0.0
N1860 N 1.00258 0.42895 0.82339 0.0
C1861 C 0.95986 0.45526 0.83449 0.0
C1862 C 1.00614 0.48832 0.81638 0.0
C1863 C 0.9735 0.42647 0.8329 0.0
C1864 C 0.90449 0.45396 0.78201 0.0
N1865 N 0.89245 0.47398 0.80696 0.0
C1866 C 0.85699 0.42214 0.81441 0.0
C1867 C 0.86773 0.45922 0.82184 0.0
C1868 C 0.87377 0.40106 0.79466 0.0
C1869 C 0.89637 0.41721 0.7763 0.0
H1870 H 0.92301 0.46667 0.76952 0.0
H1871 H 0.85727 0.47566 0.84027 0.0
C1872 C 1.00718 0.5976 0.91748 0.0
N1873 N 0.99312 0.56479 0.89723 0.0
C1874 C 0.0325 0.60133 0.94224 0.0
C1875 C 0.02871 0.53799 0.92356 0.0
C1876 C 1.00257 0.53521 0.90108 0.0
C1877 C 0.04337 0.57114 0.94489 0.0
H1878 H 0.99867 0.62061 0.9145 0.0
H1879 H 0.98922 0.5092 0.88793 0.0
C1880 C 0.89658 0.52564 0.75617 0.0
N1881 N 0.84619 0.48724 0.70761 0.0
C1882 C 0.90127 0.50948 0.72275 0.0
C1883 C 0.86628 0.52223 0.7649 0.0
C1884 C 0.87548 0.49012 0.69858 0.0
C1885 C 0.84111 0.50276 0.73998 0.0
C1886 C 1.00461 0.61558 0.84228 0.0
C1887 C 1.00794 0.65193 0.85627 0.0
C1888 C 0.03089 0.60149 0.84237 0.0
C1889 C 0.03762 0.67372 0.86941 0.0
C1890 C 0.06014 0.6241 0.8559 0.0
N1891 N 0.06288 0.65948 0.86894 0.0
C1892 C 0.87858 0.6101 0.81616 0.0
C1893 C 0.92726 0.63931 0.80193 0.0
C1894 C 0.86269 0.62345 0.7922 0.0
N1895 N 0.91012 0.61669 0.81878 0.0
C1896 C 0.91244 0.65288 0.77749 0.0
C1897 C 0.8799 0.64294 0.77108 0.0
H1898 H 0.86573 0.59105 0.82918 0.0
H1899 H 0.95215 0.64289 0.80419 0.0
C1900 C 0.98575 0.5034 0.74496 0.0
N1901 N 0.99108 0.53838 0.76119 0.0
C1902 C 1.00799 0.49118 0.72663 0.0
C1903 C 0.03953 0.552 0.73898 0.0
C1904 C 0.01679 0.56299 0.7578 0.0
C1905 C 0.03543 0.51553 0.72437 0.0
H1906 H 0.96515 0.48458 0.74801 0.0
H1907 H 0.02008 0.59075 0.77055 0.0
O1908 O 0.91933 0.55644 0.86219 0.0
O1909 O 0.96204 0.51389 0.82461 0.0
O1910 O 0.92156 0.54455 0.78025 0.0
O1911 O 0.9757 0.59392 0.82908 0.0
H1912 H 0.94062 0.53003 0.91329 0.0
H1913 H 0.85857 0.54929 0.86278 0.0
H1914 H 0.90955 0.50948 0.95785 0.0
H1915 H 0.82856 0.52653 0.90742 0.0
H1916 H 0.0425 0.46042 0.8087 0.0
H1917 H 0.93731 0.45375 0.84355 0.0
H1918 H 0.01957 0.51233 0.81047 0.0
H1919 H 0.96109 0.40228 0.83957 0.0
H1920 H 0.83704 0.41036 0.82516 0.0
H1921 H 0.90879 0.40193 0.75901 0.0
H1922 H 0.04255 0.6269 0.95997 0.0
H1923 H 0.03543 0.51388 0.92683 0.0
H1924 H 0.92457 0.51187 0.71554 0.0
H1925 H 0.86228 0.53388 0.79085 0.0
H1926 H 0.87875 0.47739 0.67264 0.0
H1927 H 0.81754 0.49983 0.74644 0.0
H1928 H 0.98784 0.66325 0.85697 0.0
H1929 H 0.02867 0.57333 0.83247 0.0
H1930 H 0.04054 0.70195 0.88004 0.0
H1931 H 0.08064 0.61351 0.85615 0.0
H1932 H 0.83744 0.61574 0.78779 0.0
H1933 H 0.92612 0.66854 0.76186 0.0
H1934 H 1.0037 0.46316 0.71399 0.0
H1935 H 0.05995 0.5715 0.73578 0.0
Li1936 Li 0.86776 0.4553 0.54129 0.0
Li1937 Li 0.85296 0.50311 0.5203 0.0
Li1938 Li 0.86156 0.45225 0.47859 0.0
Li1939 Li 0.9057 0.49616 0.51604 0.0
C1940 C 0.80961 0.41729 0.50567 0.0
N1941 N 0.77147 0.34898 0.49355 0.0
C1942 C 0.77806 0.4122 0.51017 0.0
C1943 C 0.82172 0.38743 0.49547 0.0
C1944 C 0.75918 0.37751 0.50387 0.0
C1945 C 0.80209 0.35319 0.48931 0.0
C1946 C 0.8968 0.53495 0.58517 0.0
C1947 C 0.93006 0.59367 0.60894 0.0
N1948 N 0.92105 0.59198 0.64082 0.0
C1949 C 0.8881 0.53361 0.61819 0.0
C1950 C 0.918 0.56514 0.58044 0.0
C1951 C 0.90054 0.56279 0.646 0.0
C1952 C 0.89935 0.43573 0.58918 0.0
N1953 N 0.86949 0.4296 0.57437 0.0
C1954 C 0.85554 0.37393 0.59 0.0
C1955 C 0.84711 0.40058 0.57616 0.0
C1956 C 0.887 0.37799 0.60214 0.0
C1957 C 0.90889 0.40975 0.60308 0.0
H1958 H 0.91605 0.45979 0.58808 0.0
H1959 H 0.82329 0.39718 0.56534 0.0
C1960 C 0.79636 0.52023 0.52437 0.0
N1961 N 0.82754 0.53486 0.5307 0.0
C1962 C 0.77571 0.53958 0.53816 0.0
C1963 C 0.81965 0.5898 0.56211 0.0
C1964 C 0.83946 0.5692 0.54835 0.0
C1965 C 0.78739 0.57455 0.55827 0.0
H1966 H 0.78765 0.49286 0.51016 0.0
H1967 H 0.86434 0.58015 0.55314 0.0
C1968 C 0.91377 0.42012 0.49959 0.0
N1969 N 0.95238 0.37359 0.48797 0.0
C1970 C 0.93953 0.4278 0.48151 0.0
C1971 C 0.9076 0.38831 0.51125 0.0
C1972 C 0.95877 0.40411 0.47603 0.0
C1973 C 0.92737 0.36525 0.50523 0.0
C1974 C 0.89046 0.52791 0.46204 0.0
C1975 C 0.89916 0.51646 0.42925 0.0
C1976 C 0.8964 0.56441 0.47694 0.0
C1977 C 0.91395 0.54177 0.41194 0.0
C1978 C 0.91142 0.58892 0.45889 0.0
N1979 N 0.91978 0.57719 0.42701 0.0
C1980 C 0.82459 0.39881 0.42176 0.0
C1981 C 0.87928 0.41577 0.42156 0.0
C1982 C 0.82217 0.36946 0.39449 0.0
N1983 N 0.8531 0.42028 0.43547 0.0
C1984 C 0.87807 0.38678 0.39468 0.0
C1985 C 0.84928 0.36291 0.38119 0.0
H1986 H 0.80393 0.4038 0.43259 0.0
H1987 H 0.90116 0.43465 0.43161 0.0
C1988 C 0.96376 0.494 0.53951 0.0
N1989 N 0.94937 0.5125 0.52065 0.0
C1990 C 0.99463 0.49323 0.53673 0.0
C1991 C 0.99734 0.53687 0.5017 0.0
C1992 C 0.96569 0.53482 0.50285 0.0
C1993 C 1.01158 0.51389 0.51635 0.0
H1994 H 0.95045 0.47697 0.55397 0.0
H1995 H 0.95427 0.55033 0.48897 0.0
O1996 O 0.82825 0.45127 0.51116 0.0
O1997 O 0.88593 0.506 0.55805 0.0
O1998 O 0.89571 0.44429 0.5073 0.0
O1999 O 0.8754 0.5035 0.47896 0.0
H2000 H 0.76818 0.43477 0.51846 0.0
H2001 H 0.84588 0.3906 0.49174 0.0
H2002 H 0.73473 0.37325 0.50718 0.0
H2003 H 0.81119 0.32997 0.48104 0.0
H2004 H 0.94664 0.61711 0.60574 0.0
H2005 H 0.87204 0.51017 0.62229 0.0
H2006 H 0.92511 0.56651 0.55507 0.0
H2007 H 0.89409 0.5621 0.67174 0.0
H2008 H 0.8379 0.35034 0.59106 0.0
H2009 H 0.93288 0.41436 0.61445 0.0
H2010 H 0.75115 0.52644 0.53475 0.0
H2011 H 0.82966 0.61689 0.57676 0.0
H2012 H 0.94495 0.4521 0.47205 0.0
H2013 H 0.88788 0.38139 0.52504 0.0
H2014 H 0.97888 0.41009 0.46243 0.0
H2015 H 0.92287 0.34076 0.51443 0.0
H2016 H 0.89424 0.48838 0.41704 0.0
H2017 H 0.88973 0.57368 0.50224 0.0
H2018 H 0.92061 0.53325 0.38644 0.0
H2019 H 0.9164 0.61727 0.47019 0.0
H2020 H 0.79933 0.35312 0.38322 0.0
H2021 H 0.8993 0.38366 0.3839 0.0
H2022 H 1.00496 0.47661 0.55048 0.0
H2023 H 1.01033 0.55622 0.4897 0.0
Li2024 Li 0.68883 0.53018 0.31698 0.0
Li2025 Li 0.73594 0.56879 0.28562 0.0
Li2026 Li 0.68665 0.52513 0.23899 0.0
Li2027 Li 0.73102 0.49317 0.27769 0.0
C2028 C 0.67047 0.58931 0.28677 0.0
N2029 N 0.63244 0.63638 0.29258 0.0
C2030 C 0.68341 0.62596 0.2985 0.0
C2031 C 0.6382 0.57649 0.27864 0.0
C2032 C 0.66379 0.64936 0.30106 0.0
C2033 C 0.61935 0.60074 0.2816 0.0
C2034 C 0.76033 0.5477 0.34997 0.0
C2035 C 0.81001 0.54645 0.37846 0.0
N2036 N 0.80543 0.56925 0.40729 0.0
C2037 C 0.75629 0.57149 0.37966 0.0
C2038 C 0.78746 0.53521 0.34918 0.0
C2039 C 0.77928 0.58189 0.40848 0.0
C2040 C 0.67786 0.53348 0.39891 0.0
N2041 N 0.66309 0.53375 0.36686 0.0
C2042 C 0.61687 0.53892 0.39834 0.0
C2043 C 0.63253 0.5365 0.36716 0.0
C2044 C 0.63176 0.53937 0.43185 0.0
C2045 C 0.66322 0.53663 0.43069 0.0
H2046 H 0.70162 0.53081 0.40053 0.0
H2047 H 0.61955 0.53687 0.34297 0.0
C2048 C 0.75543 0.63765 0.26124 0.0
N2049 N 0.76354 0.62201 0.28746 0.0
C2050 C 0.77056 0.67323 0.25997 0.0
C2051 C 0.80386 0.67745 0.31182 0.0
C2052 C 0.78772 0.64174 0.31251 0.0
C2053 C 0.79522 0.69453 0.28556 0.0
H2054 H 0.73666 0.62258 0.24101 0.0
H2055 H 0.79466 0.63009 0.3335 0.0
C2056 C 0.66519 0.45233 0.27452 0.0
N2057 N 0.63921 0.38479 0.28335 0.0
C2058 C 0.66688 0.42236 0.24963 0.0
C2059 C 0.65003 0.44802 0.30361 0.0
C2060 C 0.65346 0.38837 0.25453 0.0
C2061 C 0.63725 0.41368 0.30777 0.0
C2062 C 0.75593 0.52951 0.2187 0.0
C2063 C 0.74997 0.50391 0.18734 0.0
C2064 C 0.78364 0.55628 0.22604 0.0
C2065 C 0.77129 0.50639 0.16314 0.0
C2066 C 0.80444 0.55779 0.20126 0.0
N2067 N 0.79782 0.5331 0.17052 0.0
C2068 C 0.6365 0.54571 0.18261 0.0
C2069 C 0.67274 0.51891 0.15572 0.0
C2070 C 0.62261 0.5492 0.14907 0.0
N2071 N 0.66148 0.53027 0.18644 0.0
C2072 C 0.65993 0.52241 0.12222 0.0
C2073 C 0.63431 0.53808 0.11708 0.0
H2074 H 0.62641 0.55536 0.20556 0.0
H2075 H 0.69208 0.50659 0.15651 0.0
C2076 C 0.759 0.43177 0.30656 0.0
N2077 N 0.75726 0.44606 0.27751 0.0
C2078 C 0.77426 0.40315 0.30912 0.0
C2079 C 0.78745 0.40158 0.25222 0.0
C2080 C 0.77187 0.43062 0.2506 0.0
C2081 C 0.78948 0.38641 0.2821 0.0
H2082 H 0.74827 0.44235 0.3287 0.0
H2083 H 0.7716 0.44037 0.2269 0.0
O2084 O 0.68918 0.56591 0.28336 0.0
O2085 O 0.73749 0.53588 0.32212 0.0
O2086 O 0.68041 0.48573 0.27217 0.0
O2087 O 0.7349 0.52813 0.24226 0.0
H2088 H 0.70826 0.63626 0.30569 0.0
H2089 H 0.62787 0.5481 0.2699 0.0
H2090 H 0.67348 0.67784 0.30988 0.0
H2091 H 0.59433 0.59124 0.27512 0.0
H2092 H 0.83108 0.53691 0.37831 0.0
H2093 H 0.73549 0.58156 0.3805 0.0
H2094 H 0.79093 0.51685 0.32629 0.0
H2095 H 0.77631 0.59997 0.43182 0.0
H2096 H 0.59292 0.54105 0.39602 0.0
H2097 H 0.67685 0.53648 0.45458 0.0
H2098 H 0.76316 0.68355 0.23829 0.0
H2099 H 0.82263 0.69188 0.33231 0.0
H2100 H 0.67898 0.42532 0.22722 0.0
H2101 H 0.64857 0.47096 0.32305 0.0
H2102 H 0.6547 0.36485 0.23564 0.0
H2103 H 0.62567 0.41001 0.33037 0.0
H2104 H 0.72913 0.48231 0.18179 0.0
H2105 H 0.78914 0.57561 0.25063 0.0
H2106 H 0.76678 0.48702 0.13855 0.0
H2107 H 0.82586 0.57854 0.2065 0.0
H2108 H 0.6021 0.55968 0.14844 0.0
H2109 H 0.67028 0.51192 0.09969 0.0
H2110 H 0.77385 0.39384 0.3331 0.0
H2111 H 0.79757 0.39088 0.22961 0.0
Gd2112 Gd 0.12247 0.08203 0.05419 0.0
Gd2113 Gd 0.05033 0.02541 1.00841 0.0
C2114 C 0.03558 0.91327 0.02955 0.0
C2115 C 0.05146 0.88012 0.97835 0.0
C2116 C 0.05471 0.94381 0.98497 0.0
C2117 C 0.04413 0.94508 0.01734 0.0
C2118 C 0.05834 0.91105 0.96523 0.0
C2119 C 0.03967 0.88113 1.01016 0.0
C2120 C 0.0222 0.91423 0.06047 0.0
C2121 C 0.01709 0.94614 0.07831 0.0
N2122 N 0.04042 0.97659 0.03599 0.0
C2123 C 0.02599 0.9769 0.06555 0.0
H2124 H 0.01943 0.99991 0.07914 0.0
C2125 C 0.06188 0.96976 0.93651 0.0
N2126 N 0.05859 0.97335 0.97132 0.0
C2127 C 0.06851 0.93915 0.91728 0.0
C2128 C 0.06705 0.90966 0.93186 0.0
H2129 H 0.05889 0.99006 0.92272 0.0
H2130 H 0.03301 0.85674 0.01926 0.0
H2131 H 0.12536 0.10805 0.97599 0.0
H2132 H 0.01508 0.89033 0.07036 0.0
H2133 H 1.00576 0.94702 0.10168 0.0
H2134 H 0.05383 0.85489 0.96326 0.0
H2135 H 0.12523 0.11109 0.1424 0.0
H2136 H 0.15536 0.22054 0.99767 0.0
H2137 H 0.14167 0.16234 0.95588 0.0
H2138 H 0.15196 0.25643 0.11975 0.0
H2139 H 0.07263 0.93747 0.89039 0.0
H2140 H 0.0704 0.88516 0.91618 0.0
H2141 H 0.15983 0.25512 0.05889 0.0
H2142 H 0.12423 0.16613 0.18386 0.0
N2143 N 0.12981 0.13315 0.02986 0.0
C2144 C 0.1482 0.19637 1.00701 0.0
C2145 C 0.14056 0.1636 0.98337 0.0
C2146 C 0.14579 0.19757 0.04223 0.0
C2147 C 0.13647 0.16516 0.05311 0.0
C2148 C 0.13148 0.1323 0.99524 0.0
N2149 N 0.1255 0.13438 0.09797 0.0
C2150 C 0.133 0.1658 0.08777 0.0
C2151 C 0.12706 0.1666 0.15702 0.0
C2152 C 0.13338 0.19884 0.14663 0.0
C2153 C 0.12574 0.13502 0.13287 0.0
C2154 C 0.13788 0.19886 0.11205 0.0
H2155 H 0.136 0.22357 0.16577 0.0
O2156 O 0.16109 0.09433 0.09471 0.0
O2157 O 0.09383 0.02514 0.04062 0.0
O2158 O 0.03946 0.05166 0.06397 0.0
O2159 O 0.08782 0.07617 0.0964 0.0
O2160 O 0.13362 0.03462 0.07357 0.0
O2161 O 0.16993 0.0891 0.03993 0.0
O2162 O 1.01273 1.00107 0.96591 0.0
O2163 O 0.0777 0.08302 0.02311 0.0
O2164 O 0.13322 0.05718 0.99805 0.0
O2165 O 0.08426 0.03713 0.96615 0.0
O2166 O 0.0383 0.07131 0.98845 0.0
O2167 O 1.00246 1.01859 0.01883 0.0
C2168 C 0.11073 1.00918 0.05694 0.0
C2169 C 0.14753 0.23092 0.10132 0.0
C2170 C 0.15194 0.23022 0.06663 0.0
C2171 C 0.18147 0.09567 0.07272 0.0
C2172 C 0.21489 0.10459 0.08506 0.0
C2173 C 0.22603 0.12541 0.11877 0.0
C2174 C 0.2353 0.08984 0.06467 0.0
C2175 C 0.26651 0.09439 0.07848 0.0
C2176 C 0.25708 0.1308 0.13227 0.0
C2177 C 0.27708 0.11494 0.11253 0.0
C2178 C 0.05673 0.06646 0.09507 0.0
C2179 C 0.06015 0.09785 1.00585 0.0
C2180 C 0.99128 1.00339 0.9865 0.0
C2181 C 0.96116 1.00805 0.97262 0.0
C2182 C 0.9452 0.98331 0.94252 0.0
C2183 C 0.94615 0.0327 0.99087 0.0
C2184 C 0.9154 0.03211 0.97862 0.0
C2185 C 0.91431 0.98183 0.93145 0.0
C2186 C 0.8995 1.00628 0.94919 0.0
C2187 C 0.11547 0.04374 0.96705 0.0
H2188 H 0.21055 0.13688 0.13493 0.0
H2189 H 0.22654 0.07381 0.03865 0.0
H2190 H 0.26541 0.1464 0.1585 0.0
H2191 H 0.30051 0.11767 0.12439 0.0
H2192 H 0.95637 0.96421 0.92829 0.0
H2193 H 0.95801 0.05185 0.01439 0.0
H2194 H 0.90164 0.96116 0.90957 0.0
H2195 H 0.87544 1.00484 0.94022 0.0
Gd2196 Gd 0.31688 0.81406 0.31447 0.0
Gd2197 Gd 0.36593 0.80209 0.24515 0.0
C2198 C 0.3412 0.69554 0.16415 0.0
C2199 C 0.38026 0.66621 0.18234 0.0
C2200 C 0.38079 0.72658 0.2127 0.0
C2201 C 0.35449 0.72575 0.19133 0.0
C2202 C 0.39486 0.69745 0.20736 0.0
C2203 C 0.35355 0.6654 0.16062 0.0
C2204 C 0.31731 0.69741 0.13991 0.0
C2205 C 0.30946 0.72992 0.1412 0.0
N2206 N 0.34408 0.75598 0.19464 0.0
C2207 C 0.32415 0.75942 0.16796 0.0
H2208 H 0.31984 0.78494 0.1664 0.0
C2209 C 0.42501 0.76285 0.2503 0.0
N2210 N 0.39471 0.75754 0.23577 0.0
C2211 C 0.43982 0.73476 0.2462 0.0
C2212 C 0.42428 0.70152 0.22543 0.0
H2213 H 0.43739 0.78855 0.26642 0.0
H2214 H 0.34392 0.64235 0.13964 0.0
H2215 H 0.39102 0.86055 0.35737 0.0
H2216 H 0.30633 0.67471 0.11883 0.0
H2217 H 0.29269 0.73257 0.12109 0.0
H2218 H 0.39048 0.64341 0.17812 0.0
H2219 H 0.2462 0.82672 0.29422 0.0
H2220 H 0.37858 0.93419 0.44644 0.0
H2221 H 0.41276 0.90417 0.41124 0.0
H2222 H 0.27196 0.93769 0.42485 0.0
H2223 H 0.46322 0.73883 0.25901 0.0
H2224 H 0.43591 0.67984 0.22196 0.0
H2225 H 0.32613 0.94708 0.45092 0.0
H2226 H 0.21141 0.8627 0.31982 0.0
N2227 N 0.34349 0.86239 0.36183 0.0
C2228 C 0.36863 0.91459 0.42258 0.0
C2229 C 0.38791 0.89752 0.40296 0.0
C2230 C 0.337 0.90748 0.41023 0.0
C2231 C 0.325 0.88104 0.37938 0.0
C2232 C 0.37504 0.8719 0.3724 0.0
N2233 N 0.28474 0.85248 0.33353 0.0
C2234 C 0.29474 0.87622 0.36447 0.0
C2235 C 0.23491 0.86713 0.33247 0.0
C2236 C 0.24507 0.892 0.36404 0.0
C2237 C 0.25498 0.84727 0.31771 0.0
C2238 C 0.27529 0.89685 0.38045 0.0
H2239 H 0.22942 0.90724 0.37555 0.0
O2240 O 0.27218 0.78314 0.32201 0.0
O2241 O 0.33393 0.7766 0.27589 0.0
O2242 O 0.31692 0.80857 0.2236 0.0
O2243 O 0.29679 0.83665 0.27128 0.0
O2244 O 0.28595 0.76783 0.27411 0.0
O2245 O 0.31488 0.78162 0.35242 0.0
O2246 O 0.41059 0.82408 0.22967 0.0
O2247 O 0.34773 0.84028 0.28183 0.0
O2248 O 0.36129 0.80201 0.33892 0.0
O2249 O 0.38807 0.78599 0.29208 0.0
O2250 O 0.39544 0.84922 0.28421 0.0
O2251 O 0.36897 0.83934 0.212 0.0
C2252 C 0.30856 0.75622 0.26146 0.0
C2253 C 0.28663 0.92181 0.41207 0.0
C2254 C 0.31742 0.92706 0.42698 0.0
C2255 C 0.28442 0.77231 0.34754 0.0
C2256 C 0.26925 0.77444 0.37889 0.0
C2257 C 0.24713 0.79456 0.38649 0.0
C2258 C 0.27722 0.75451 0.4016 0.0
C2259 C 0.26351 0.7542 0.43189 0.0
C2260 C 0.23315 0.79417 0.41704 0.0
C2261 C 0.24113 0.77366 0.43976 0.0
C2262 C 0.29579 0.82531 0.23705 0.0
C2263 C 0.37276 0.86277 0.29408 0.0
C2264 C 0.39831 0.8408 0.20935 0.0
C2265 C 0.40655 0.8371 0.17423 0.0
C2266 C 0.42589 0.81528 0.16059 0.0
C2267 C 0.39488 0.8574 0.15417 0.0
C2268 C 0.40243 0.85673 0.12085 0.0
C2269 C 0.43372 0.81479 0.12684 0.0
C2270 C 0.42223 0.83589 0.10694 0.0
C2271 C 0.38493 0.79049 0.32572 0.0
H2272 H 0.24039 0.81008 0.36895 0.0
H2273 H 0.29397 0.73851 0.39537 0.0
H2274 H 0.21601 0.80948 0.42293 0.0
H2275 H 0.23011 0.77304 0.46324 0.0
H2276 H 0.43511 0.79911 0.17591 0.0
H2277 H 0.38034 0.87474 0.1649 0.0
H2278 H 0.44892 0.79846 0.11631 0.0
H2279 H 0.42879 0.83614 0.08114 0.0
Gd2280 Gd 0.54873 0.05218 0.55433 0.0
Gd2281 Gd 0.62035 0.05296 0.51553 0.0
C2282 C 0.6881 0.15821 0.51659 0.0
C2283 C 0.68725 0.15721 0.45477 0.0
C2284 C 0.65513 0.1079 0.47399 0.0
C2285 C 0.66579 0.12514 0.50848 0.0
C2286 C 0.66617 0.12346 0.44677 0.0
C2287 C 0.69818 0.17454 0.4896 0.0
C2288 C 0.70058 0.1731 0.55146 0.0
C2289 C 0.69154 0.15445 0.57702 0.0
N2290 N 0.65589 0.10852 0.53396 0.0
C2291 C 0.66903 0.12194 0.56768 0.0
H2292 H 0.66218 0.10751 0.58731 0.0
C2293 C 0.62665 0.05537 0.43366 0.0
N2294 N 0.63521 0.07504 0.46706 0.0
C2295 C 0.63676 0.06983 0.40578 0.0
C2296 C 0.65639 0.10415 0.41234 0.0
H2297 H 0.6116 0.02876 0.42863 0.0
H2298 H 0.71508 0.20011 0.49534 0.0
H2299 H 0.50508 0.99766 0.47963 0.0
H2300 H 0.71787 0.19839 0.55877 0.0
H2301 H 0.70163 0.16523 0.60394 0.0
H2302 H 0.69586 0.16971 0.43421 0.0
H2303 H 0.55723 0.06788 0.64299 0.0
H2304 H 0.45925 0.90031 0.50324 0.0
H2305 H 0.47134 0.93807 0.46089 0.0
H2306 H 0.48539 0.91944 0.62613 0.0
H2307 H 0.62955 0.05446 0.37929 0.0
H2308 H 0.66438 0.11517 0.39069 0.0
H2309 H 0.46445 0.89385 0.56473 0.0
H2310 H 0.54553 0.03444 0.68828 0.0
N2311 N 0.51571 0.99428 0.53257 0.0
C2312 C 0.47484 0.92668 0.5118 0.0
C2313 C 0.48171 0.9478 0.48782 0.0
C2314 C 0.48745 0.94019 0.54672 0.0
C2315 C 0.50789 0.97467 0.55661 0.0
C2316 C 0.50163 0.98186 0.49878 0.0
N2317 N 0.53844 0.02285 0.60052 0.0
C2318 C 0.52001 0.98905 0.59134 0.0
C2319 C 0.53873 1.02109 0.66111 0.0
C2320 C 0.52187 0.98558 0.65194 0.0
C2321 C 0.546 0.0397 0.6351 0.0
C2322 C 0.51152 0.96943 0.61686 0.0
H2323 H 0.51583 0.97137 0.67222 0.0
O2324 O 0.51342 0.06722 0.58488 0.0
O2325 O 0.59334 0.08744 0.5454 0.0
O2326 O 0.6231 0.04109 0.56815 0.0
O2327 O 0.58799 0.06739 0.59728 0.0
O2328 O 0.56386 0.11312 0.57059 0.0
O2329 O 0.51078 0.06963 0.53034 0.0
O2330 O 0.64295 1.0138 0.48861 0.0
O2331 O 0.57922 1.01561 0.53095 0.0
O2332 O 0.54399 0.04803 0.49742 0.0
O2333 O 0.59087 0.07701 0.4833 0.0
O2334 O 0.58971 1.00323 0.48042 0.0
O2335 O 0.66384 0.04667 0.53963 0.0
C2336 C 0.58967 0.11886 0.55758 0.0
C2337 C 0.49199 0.93484 0.60687 0.0
C2338 C 0.47999 0.92029 0.57192 0.0
C2339 C 0.4992 0.07678 0.5596 0.0
C2340 C 0.49092 0.11134 0.56841 0.0
C2341 C 0.50919 0.13977 0.59458 0.0
C2342 C 0.46396 0.11576 0.55063 0.0
C2343 C 0.45577 0.14862 0.5582 0.0
C2344 C 0.50141 0.17265 0.60163 0.0
C2345 C 0.4749 0.17714 0.58351 0.0
C2346 C 0.61211 0.05344 0.59662 0.0
C2347 C 0.57355 0.99067 0.50307 0.0
C2348 C 0.66623 1.02173 0.5135 0.0
C2349 C 0.69745 0.0232 0.50315 0.0
C2350 C 0.70832 0.04254 0.47854 0.0
C2351 C 0.71624 1.00376 0.51733 0.0
C2352 C 0.74536 1.00278 0.50609 0.0
C2353 C 0.73745 0.04194 0.46768 0.0
C2354 C 0.75577 1.02193 0.48111 0.0
C2355 C 0.56034 0.06708 0.47852 0.0
H2356 H 0.5293 0.13671 0.60985 0.0
H2357 H 0.44942 0.09374 0.53092 0.0
H2358 H 0.51572 0.19456 0.62151 0.0
H2359 H 0.46887 0.20266 0.58989 0.0
H2360 H 0.6942 0.05765 0.46743 0.0
H2361 H 0.7078 0.98853 0.53616 0.0
H2362 H 0.74568 0.05665 0.44846 0.0
H2363 H 0.77808 1.02129 0.47193 0.0
Gd2364 Gd 0.37302 0.29515 0.77887 0.0
Gd2365 Gd 0.29871 0.31597 0.77886 0.0
C2366 C 0.24417 0.29577 0.67004 0.0
C2367 C 0.24631 0.35605 0.66333 0.0
C2368 C 0.26978 0.34599 0.717 0.0
C2369 C 0.26165 0.30973 0.70336 0.0
C2370 C 0.26086 0.36949 0.69778 0.0
C2371 C 0.23797 0.31915 0.64944 0.0
C2372 C 0.23128 0.25897 0.65956 0.0
C2373 C 0.23417 0.2375 0.68301 0.0
N2374 N 0.26697 0.2881 0.72461 0.0
C2375 C 0.25176 0.25263 0.71563 0.0
H2376 H 0.25206 0.23558 0.73345 0.0
C2377 C 0.28306 0.39177 0.76819 0.0
N2378 N 0.28238 0.35772 0.75082 0.0
C2379 C 0.27529 0.4163 0.75014 0.0
C2380 C 0.26482 0.40531 0.71453 0.0
H2381 H 0.29115 0.40044 0.7958 0.0
H2382 H 0.22508 0.30893 0.62358 0.0
H2383 H 0.39669 0.37988 0.83163 0.0
H2384 H 0.21752 0.24724 0.63434 0.0
H2385 H 0.22282 0.20927 0.67606 0.0
H2386 H 0.23974 0.37374 0.64796 0.0
H2387 H 0.37643 0.20935 0.76734 0.0
H2388 H 0.45676 0.37585 0.91895 0.0
H2389 H 0.4304 0.40999 0.88561 0.0
H2390 H 0.45855 0.25285 0.90127 0.0
H2391 H 0.27722 0.44358 0.76375 0.0
H2392 H 0.25828 0.42421 0.70069 0.0
H2393 H 0.46727 0.31742 0.92428 0.0
H2394 H 0.40072 0.17165 0.7981 0.0
N2395 N 0.40338 0.32786 0.83241 0.0
C2396 C 0.44204 0.36219 0.89468 0.0
C2397 C 0.42726 0.38153 0.87594 0.0
C2398 C 0.43757 0.32542 0.88199 0.0
C2399 C 0.41793 0.30873 0.85035 0.0
C2400 C 0.40819 0.36403 0.84471 0.0
N2401 N 0.39366 0.25662 0.80726 0.0
C2402 C 0.41273 0.27214 0.83756 0.0
C2403 C 0.40403 0.19976 0.80971 0.0
C2404 C 0.42269 0.21502 0.84153 0.0
C2405 C 0.39006 0.22111 0.79259 0.0
C2406 C 0.42753 0.25162 0.85568 0.0
H2407 H 0.43371 0.19845 0.85466 0.0
O2408 O 0.39451 0.2697 0.73661 0.0
O2409 O 0.33437 0.30439 0.74447 0.0
O2410 O 0.29222 0.25515 0.77735 0.0
O2411 O 0.3407 0.24595 0.79226 0.0
O2412 O 0.34764 0.25713 0.72908 0.0
O2413 O 0.41964 0.32072 0.7688 0.0
O2414 O 0.27319 0.34117 0.81723 0.0
O2415 O 0.33686 0.30604 0.81389 0.0
O2416 O 0.38088 0.35388 0.77266 0.0
O2417 O 0.33296 0.36824 0.77409 0.0
O2418 O 0.32318 0.35311 0.82841 0.0
O2419 O 0.25621 0.28541 0.79327 0.0
C2420 C 0.3303 0.2768 0.71981 0.0
C2421 C 0.44704 0.26821 0.88704 0.0
C2422 C 0.45203 0.30499 0.90014 0.0
C2423 C 0.42035 0.29458 0.74296 0.0
C2424 C 0.44967 0.28257 0.74037 0.0
C2425 C 0.45135 0.24932 0.747 0.0
C2426 C 0.47536 0.3028 0.72823 0.0
C2427 C 0.5025 0.29003 0.72381 0.0
C2428 C 0.47817 0.23694 0.7432 0.0
C2429 C 0.50358 0.25708 0.73175 0.0
C2430 C 0.30987 0.23387 0.78543 0.0
C2431 C 0.33946 0.33311 0.83898 0.0
C2432 C 0.25086 0.31278 0.81417 0.0
C2433 C 0.219 0.31776 0.81035 0.0
C2434 C 0.20904 0.33254 0.78331 0.0
C2435 C 0.19841 0.30817 0.83413 0.0
C2436 C 0.16804 0.31328 0.8306 0.0
C2437 C 0.1791 0.33811 0.78017 0.0
C2438 C 0.15863 0.32845 0.80362 0.0
C2439 C 0.36347 0.37744 0.77229 0.0
H2440 H 0.43167 0.23211 0.75393 0.0
H2441 H 0.47408 0.32798 0.72182 0.0
H2442 H 0.47895 0.21116 0.74832 0.0
H2443 H 0.52377 0.2462 0.72792 0.0
H2444 H 0.22433 0.33977 0.7646 0.0
H2445 H 0.20579 0.29642 0.85493 0.0
H2446 H 0.17165 0.34972 0.75937 0.0
H2447 H 0.13532 0.3326 0.8006 0.0
Gd2448 Gd 0.09209 1.0154 0.50638 0.0
Gd2449 Gd 0.08011 0.09518 0.55074 0.0
C2450 C 0.11483 0.1386 0.66651 0.0
C2451 C 0.06697 0.14428 0.69061 0.0
C2452 C 0.0656 0.1197 0.62868 0.0
C2453 C 0.09759 0.12386 0.63317 0.0
C2454 C 0.04996 0.1301 0.65735 0.0
C2455 C 0.09932 0.14854 0.69517 0.0
C2456 C 0.1472 0.14319 0.67005 0.0
C2457 C 0.16165 0.13327 0.64081 0.0
N2458 N 0.11193 0.11393 0.60497 0.0
C2459 C 0.14365 0.1188 0.60834 0.0
H2460 H 0.15544 0.11105 0.58636 0.0
C2461 C 0.01857 0.10429 0.59027 0.0
N2462 N 0.04985 0.10646 0.59617 0.0
C2463 C 1.00203 0.11376 0.61791 0.0
C2464 C 0.01777 0.12661 0.65164 0.0
H2465 H 1.00645 0.09505 0.56403 0.0
H2466 H 0.11217 0.15979 0.72094 0.0
H2467 H 0.02376 0.99376 0.45263 0.0
H2468 H 0.16123 0.15442 0.69518 0.0
H2469 H 0.18668 0.13672 0.64322 0.0
H2470 H 0.05536 0.15241 0.71292 0.0
H2471 H 0.1641 1.00061 0.51352 0.0
H2472 H 0.0443 0.97215 0.34852 0.0
H2473 H 1.00607 0.9768 0.39032 0.0
H2474 H 0.15279 0.97695 0.36019 0.0
H2475 H 0.97723 0.11151 0.61312 0.0
H2476 H 1.00495 0.1343 0.67299 0.0
H2477 H 0.09896 0.9739 0.33723 0.0
H2478 H 0.2033 0.9879 0.47484 0.0
N2479 N 0.07225 1.00129 0.44706 0.0
C2480 C 0.05231 0.98044 0.37597 0.0
C2481 C 0.03071 0.98278 0.39954 0.0
C2482 C 0.08389 0.98666 0.38813 0.0
C2483 C 0.09333 0.99659 0.42439 0.0
C2484 C 0.04108 0.99273 0.43517 0.0
N2485 N 0.1312 1.00299 0.4724 0.0
C2486 C 0.12367 0.99768 0.4374 0.0
C2487 C 0.1811 0.99082 0.46402 0.0
C2488 C 0.17447 0.9873 0.42819 0.0
C2489 C 0.15884 0.99794 0.48582 0.0
C2490 C 0.14523 0.98978 0.41436 0.0
H2491 H 0.19163 0.98131 0.41132 0.0
O2492 O 0.08544 0.95909 0.48324 0.0
O2493 O 0.10211 0.0508 0.56084 0.0
O2494 O 0.12733 0.10859 0.53192 0.0
O2495 O 0.13739 0.05562 0.50376 0.0
O2496 O 0.12368 1.01043 0.55321 0.0
O2497 O 0.06761 0.97522 0.53172 0.0
O2498 O 0.05812 0.13883 0.54818 0.0
O2499 O 0.07681 0.06429 0.49393 0.0
O2500 O 0.04101 1.01239 0.51145 0.0
O2501 O 0.04391 0.05042 0.56385 0.0
O2502 O 0.03977 0.08464 0.50686 0.0
O2503 O 0.10891 0.14695 0.54861 0.0
C2504 C 0.11923 0.03501 0.57805 0.0
C2505 C 0.13645 0.98274 0.37825 0.0
C2506 C 0.10581 0.98105 0.36517 0.0
C2507 C 0.07301 0.94888 0.5094 0.0
C2508 C 0.08613 0.92336 0.52435 0.0
C2509 C 0.11593 0.91873 0.51841 0.0
C2510 C 0.06898 0.90411 0.54572 0.0
C2511 C 0.08146 0.88025 0.56109 0.0
C2512 C 0.12828 0.89485 0.53332 0.0
C2513 C 0.11118 0.87558 0.55439 0.0
C2514 C 0.14568 0.09075 0.51522 0.0
C2515 C 0.05083 0.06925 0.48024 0.0
C2516 C 0.08467 0.16035 0.54701 0.0
C2517 C 0.08722 0.19728 0.54496 0.0
C2518 C 0.07326 0.21879 0.5683 0.0
C2519 C 0.10283 0.21093 0.51921 0.0
C2520 C 0.10463 0.24637 0.5171 0.0
C2521 C 0.07532 0.25414 0.56643 0.0
C2522 C 0.09098 0.26797 0.54103 0.0
C2523 C 0.02868 0.02213 0.53999 0.0
H2524 H 0.12968 0.93344 0.50223 0.0
H2525 H 0.04624 0.90828 0.55088 0.0
H2526 H 0.15117 0.89121 0.52848 0.0
H2527 H 0.12117 0.85679 0.56524 0.0
H2528 H 0.06098 0.20828 0.58809 0.0
H2529 H 0.11341 0.19413 0.50094 0.0
H2530 H 0.06467 0.27082 0.58461 0.0
H2531 H 0.09214 0.29543 0.53977 0.0
Gd2532 Gd 0.30278 0.78059 0.78849 0.0
Gd2533 Gd 0.37231 0.83226 0.77335 0.0
C2534 C 0.36733 0.93432 0.73806 0.0
C2535 C 0.38436 0.92309 0.68075 0.0
C2536 C 0.38201 0.87903 0.7162 0.0
C2537 C 0.37065 0.90046 0.74193 0.0
C2538 C 0.39012 0.89077 0.68594 0.0
C2539 C 0.37302 0.94485 0.7068 0.0
C2540 C 0.36011 0.95743 0.76641 0.0
C2541 C 0.35777 0.94723 0.79808 0.0
N2542 N 0.36606 0.8899 0.77216 0.0
C2543 C 0.36123 0.91344 0.80066 0.0
H2544 H 0.3593 0.90634 0.82545 0.0
C2545 C 0.40635 0.83127 0.70216 0.0
N2546 N 0.38835 0.84858 0.7225 0.0
C2547 C 0.41429 0.84134 0.67143 0.0
C2548 C 0.40548 0.87076 0.66285 0.0
H2549 H 0.41407 0.8093 0.70944 0.0
H2550 H 0.3701 0.97051 0.70316 0.0
H2551 H 0.31384 0.70504 0.73743 0.0
H2552 H 0.35748 0.98369 0.7645 0.0
H2553 H 0.35316 0.96528 0.82052 0.0
H2554 H 0.39002 0.93231 0.65744 0.0
H2555 H 0.26094 0.80398 0.85297 0.0
H2556 H 0.32068 0.63148 0.80167 0.0
H2557 H 0.32147 0.64697 0.74408 0.0
H2558 H 0.29147 0.68622 0.90939 0.0
H2559 H 0.42751 0.82672 0.65464 0.0
H2560 H 0.41209 0.87889 0.63931 0.0
H2561 H 0.31078 0.64714 0.86387 0.0
H2562 H 0.2497 0.78844 0.90912 0.0
N2563 N 0.31 0.72372 0.79126 0.0
C2564 C 0.31742 0.6573 0.79899 0.0
C2565 C 0.31778 0.66586 0.76644 0.0
C2566 C 0.31113 0.68134 0.82725 0.0
C2567 C 0.3069 0.71456 0.82237 0.0
C2568 C 0.31357 0.69912 0.76289 0.0
N2569 N 0.28807 0.76595 0.84066 0.0
C2570 C 0.29574 0.73647 0.84795 0.0
C2571 C 0.26307 0.77395 0.89243 0.0
C2572 C 0.27347 0.74587 0.90203 0.0
C2573 C 0.26967 0.78289 0.86085 0.0
C2574 C 0.28897 0.72587 0.87911 0.0
H2575 H 0.2679 0.73861 0.92625 0.0
O2576 O 0.2578 0.78725 0.76789 0.0
O2577 O 0.31977 0.83336 0.77109 0.0
O2578 O 0.3654 0.84929 0.82842 0.0
O2579 O 0.32407 0.80963 0.84214 0.0
O2580 O 0.28949 0.83327 0.80814 0.0
O2581 O 0.26374 0.73485 0.76797 0.0
O2582 O 0.41787 0.82318 0.78737 0.0
O2583 O 0.35511 0.77963 0.79078 0.0
O2584 O 0.31125 0.76333 0.73359 0.0
O2585 O 0.34913 0.80708 0.71965 0.0
O2586 O 0.38428 0.77889 0.75278 0.0
O2587 O 0.41122 0.87632 0.79967 0.0
C2588 C 0.30352 0.85343 0.78908 0.0
C2589 C 0.29603 0.69449 0.88535 0.0
C2590 C 0.30703 0.67222 0.85943 0.0
C2591 C 0.24405 0.75383 0.76363 0.0
C2592 C 0.21492 0.74569 0.77916 0.0
C2593 C 0.21237 0.72661 0.80577 0.0
C2594 C 0.18899 0.75646 0.76663 0.0
C2595 C 0.16065 0.74771 0.78007 0.0
C2596 C 0.18446 0.71897 0.81994 0.0
C2597 C 0.15857 0.72918 0.80697 0.0
C2598 C 0.34739 0.83794 0.85048 0.0
C2599 C 0.37069 0.75915 0.77238 0.0
C2600 C 0.4312 0.85673 0.79866 0.0
C2601 C 0.46065 0.86939 0.78525 0.0
C2602 C 0.46266 0.89136 0.76118 0.0
C2603 C 0.48713 0.85871 0.79641 0.0
C2604 C 0.51556 0.86991 0.78377 0.0
C2605 C 0.49063 0.9019 0.74792 0.0
C2606 C 0.51697 0.89129 0.75911 0.0
C2607 C 0.32733 0.77731 0.71119 0.0
H2608 H 0.23175 0.71725 0.81544 0.0
H2609 H 0.19046 0.7702 0.74539 0.0
H2610 H 0.18269 0.70435 0.84044 0.0
H2611 H 0.1367 0.72191 0.8173 0.0
H2612 H 0.44272 0.90042 0.7526 0.0
H2613 H 0.48574 0.84252 0.81569 0.0
H2614 H 0.492 0.91861 0.72918 0.0
H2615 H 0.53854 0.90014 0.74875 0.0
Gd2616 Gd 0.58742 0.08012 0.99477 0.0
Gd2617 Gd 0.59419 0.03661 0.06813 0.0
C2618 C 0.67593 0.08929 0.15464 0.0
C2619 C 0.70211 0.04137 0.15439 0.0
C2620 C 0.65651 0.03303 0.11243 0.0
C2621 C 0.65403 0.06731 0.12652 0.0
C2622 C 0.68055 1.01969 0.12635 0.0
C2623 C 0.70001 0.07619 0.16831 0.0
C2624 C 0.67295 0.12376 0.16847 0.0
C2625 C 0.64888 0.13585 0.15399 0.0
N2626 N 0.63032 0.07916 0.11287 0.0
C2627 C 0.62794 0.11337 0.12599 0.0
H2628 H 0.61077 0.12461 0.11475 0.0
C2629 C 0.63496 0.97718 0.07361 0.0
N2630 N 0.63488 1.01222 0.08597 0.0
C2631 C 0.65874 0.96311 0.08593 0.0
C2632 C 0.68178 0.98454 0.11231 0.0
H2633 H 0.61658 0.96003 0.05396 0.0
H2634 H 0.71694 0.09265 0.18991 0.0
H2635 H 0.56154 0.98962 0.95451 0.0
H2636 H 0.68928 0.14136 0.19002 0.0
H2637 H 0.6467 0.16275 0.16402 0.0
H2638 H 0.72029 0.03124 0.16581 0.0
H2639 H 0.56728 0.15797 1.00889 0.0
H2640 H 0.49212 0.97908 0.87042 0.0
H2641 H 0.52597 0.95269 0.9044 0.0
H2642 H 0.47316 0.09542 0.88515 0.0
H2643 H 0.65898 0.93561 0.07543 0.0
H2644 H 0.70002 0.97347 0.12218 0.0
H2645 H 0.47294 0.03242 0.86324 0.0
H2646 H 0.53007 0.18636 0.98251 0.0
N2647 N 0.55105 0.039 0.9488 0.0
C2648 C 0.50854 0.99609 0.89221 0.0
C2649 C 0.5276 0.98112 0.91127 0.0
C2650 C 0.50992 0.03252 0.90241 0.0
C2651 C 0.53159 0.05357 0.93116 0.0
C2652 C 0.54848 1.00283 0.93966 0.0
N2653 N 0.55051 0.10766 0.97323 0.0
C2654 C 0.53132 0.08895 0.94381 0.0
C2655 C 0.53002 0.15888 0.9715 0.0
C2656 C 0.5095 0.13968 0.94188 0.0
C2657 C 0.55078 0.14257 0.98658 0.0
C2658 C 0.51 0.10435 0.9276 0.0
H2659 H 0.49337 0.15236 0.93025 0.0
O2660 O 0.61355 0.13059 0.98732 0.0
O2661 O 0.61741 0.07017 0.03645 0.0
O2662 O 0.56983 0.08162 0.08296 0.0
O2663 O 0.55842 0.10279 0.03331 0.0
O2664 O 0.62683 0.1212 0.03203 0.0
O2665 O 0.6154 0.08008 0.95283 0.0
O2666 O 0.57286 0.9874 0.08253 0.0
O2667 O 0.56391 0.04574 0.02663 0.0
O2668 O 0.60707 0.03241 0.97668 0.0
O2669 O 0.61999 1.01215 0.02652 0.0
O2670 O 0.55704 0.99407 0.03075 0.0
O2671 O 0.56562 0.03863 0.10941 0.0
C2672 C 0.63697 0.09919 0.04726 0.0
C2673 C 0.48954 0.08395 0.89805 0.0
C2674 C 0.48947 0.04812 0.88551 0.0
C2675 C 0.62335 0.11506 0.95941 0.0
C2676 C 0.62201 0.13065 0.92927 0.0
C2677 C 0.60523 0.15635 0.92575 0.0
C2678 C 0.63946 0.11971 0.9036 0.0
C2679 C 0.64052 0.13391 0.87427 0.0
C2680 C 0.60611 0.1706 0.89605 0.0
C2681 C 0.62405 0.15965 0.8703 0.0
C2682 C 0.55669 0.10195 0.06641 0.0
C2683 C 0.54515 1.0159 0.01681 0.0
C2684 C 0.56191 1.00464 0.10861 0.0
C2685 C 0.5674 0.99657 0.14247 0.0
C2686 C 0.58827 0.97623 0.15005 0.0
C2687 C 0.55105 1.01055 0.16815 0.0
C2688 C 0.55476 1.00403 0.20118 0.0
C2689 C 0.59201 0.96958 0.1834 0.0
C2690 C 0.57494 0.98311 0.20898 0.0
C2691 C 0.61971 1.01165 0.99291 0.0
H2692 H 0.59208 0.16589 0.94586 0.0
H2693 H 0.65312 0.10059 0.90694 0.0
H2694 H 0.5933 0.19046 0.89327 0.0
H2695 H 0.62522 0.17119 0.84762 0.0
H2696 H 0.60137 0.96534 0.13043 0.0
H2697 H 0.53463 0.02595 0.16216 0.0
H2698 H 0.60778 0.95359 0.18926 0.0
H2699 H 0.57721 0.9771 0.23448 0.0
Gd2700 Gd 0.314 0.26716 0.2622 0.0
Gd2701 Gd 0.37224 0.34888 0.29773 0.0
C2702 C 0.47812 0.37212 0.3073 0.0
C2703 C 0.49279 0.39287 0.36957 0.0
C2704 C 0.43816 0.36915 0.34582 0.0
C2705 C 0.44647 0.36198 0.31249 0.0
C2706 C 0.46141 0.38437 0.37472 0.0
C2707 C 0.50115 0.38749 0.33595 0.0
C2708 C 0.48562 0.36856 0.27338 0.0
C2709 C 0.46244 0.3533 0.24553 0.0
N2710 N 0.42363 0.34851 0.28496 0.0
C2711 C 0.43162 0.34371 0.25178 0.0
H2712 H 0.41481 0.33298 0.22933 0.0
C2713 C 0.39893 0.37674 0.38182 0.0
N2714 N 0.40747 0.3648 0.34971 0.0
C2715 C 0.42102 0.3893 0.41141 0.0
C2716 C 0.45246 0.39287 0.40789 0.0
H2717 H 0.3749 0.37639 0.38488 0.0
H2718 H 0.52543 0.39593 0.3324 0.0
H2719 H 0.2889 0.28589 0.34652 0.0
H2720 H 0.50908 0.37847 0.26841 0.0
H2721 H 0.46812 0.34996 0.21907 0.0
H2722 H 0.51052 0.40516 0.39146 0.0
H2723 H 0.28563 0.26055 0.17817 0.0
H2724 H 0.19906 0.21629 0.33658 0.0
H2725 H 0.2447 0.25946 0.37313 0.0
H2726 H 0.17127 0.17499 0.21364 0.0
H2727 H 0.41388 0.3976 0.43674 0.0
H2728 H 0.46973 0.40417 0.43068 0.0
H2729 H 0.17333 0.18228 0.27672 0.0
H2730 H 0.23895 0.22634 0.13906 0.0
N2731 N 0.27009 0.25788 0.29414 0.0
C2732 C 0.21851 0.22839 0.32445 0.0
C2733 C 0.24429 0.25241 0.34513 0.0
C2734 C 0.21765 0.22142 0.28828 0.0
C2735 C 0.24338 0.23828 0.27375 0.0
C2736 C 0.2699 0.26687 0.3296 0.0
N2737 N 0.26647 0.25257 0.22501 0.0
C2738 C 0.24157 0.23541 0.23812 0.0
C2739 C 0.23913 0.22921 0.16692 0.0
C2740 C 0.21397 0.21055 0.18005 0.0
C2741 C 0.26542 0.24971 0.18969 0.0
C2742 C 0.21491 0.21353 0.21597 0.0
H2743 H 0.19433 0.19332 0.16217 0.0
O2744 O 0.32374 0.23715 0.21361 0.0
O2745 O 0.36376 0.2956 0.26487 0.0
O2746 O 0.36694 0.33729 0.23839 0.0
O2747 O 0.31594 0.30519 0.22407 0.0
O2748 O 0.35622 0.24753 0.27837 0.0
O2749 O 0.29734 0.20964 0.24832 0.0
O2750 O 0.39833 0.40441 0.31164 0.0
O2751 O 0.32068 0.32512 0.28496 0.0
O2752 O 0.32736 0.26303 0.31765 0.0
O2753 O 0.3642 0.31707 0.34144 0.0
O2754 O 0.33709 0.36095 0.33256 0.0
O2755 O 0.3572 0.38807 0.27422 0.0
C2756 C 0.37738 0.27298 0.27238 0.0
C2757 C 0.19078 0.19384 0.2302 0.0
C2758 C 0.19206 0.19788 0.26624 0.0
C2759 C 0.31115 0.20642 0.22027 0.0
C2760 C 0.33017 0.18034 0.21608 0.0
C2761 C 0.33795 0.16724 0.18307 0.0
C2762 C 0.34261 0.17049 0.24524 0.0
C2763 C 0.36414 0.14961 0.24172 0.0
C2764 C 0.35824 0.14464 0.17929 0.0
C2765 C 0.37178 0.13633 0.20863 0.0
C2766 C 0.34157 0.32463 0.21548 0.0
C2767 C 0.31253 0.34105 0.31276 0.0
C2768 C 0.37813 0.41477 0.29344 0.0
C2769 C 0.36667 0.44464 0.31115 0.0
C2770 C 0.38307 0.46857 0.34163 0.0
C2771 C 0.33928 0.45007 0.29619 0.0
C2772 C 0.32831 0.47923 0.31089 0.0
C2773 C 0.37113 0.49688 0.35758 0.0
C2774 C 0.34357 0.50211 0.34241 0.0
C2775 C 0.3461 0.28602 0.34433 0.0
H2776 H 0.32873 0.175 0.16041 0.0
H2777 H 0.33683 0.18034 0.27098 0.0
H2778 H 0.36403 0.13424 0.15377 0.0
H2779 H 0.38831 0.1198 0.20568 0.0
H2780 H 0.40517 0.46564 0.35266 0.0
H2781 H 0.32701 0.43245 0.27195 0.0
H2782 H 0.38375 0.51553 0.38091 0.0
H2783 H 0.33518 0.52489 0.3542 0.0
Gd2784 Gd 0.59209 0.51567 1.00642 0.0
Gd2785 Gd 0.57994 0.59533 0.0508 0.0
C2786 C 0.61485 0.63871 0.16654 0.0
C2787 C 0.56703 0.64431 0.19078 0.0
C2788 C 0.56556 0.61981 0.12882 0.0
C2789 C 0.59756 0.62399 0.13322 0.0
C2790 C 0.54998 0.63016 0.15753 0.0
C2791 C 0.59939 0.6486 0.19526 0.0
C2792 C 0.64722 0.64333 0.17 0.0
C2793 C 0.66162 0.63347 0.1407 0.0
N2794 N 0.61185 0.6141 0.10497 0.0
C2795 C 0.64357 0.61902 0.10827 0.0
H2796 H 0.65533 0.61131 0.08623 0.0
C2797 C 0.51848 0.60441 0.09049 0.0
N2798 N 0.54977 0.6066 0.09633 0.0
C2799 C 0.50198 0.61382 0.11819 0.0
C2800 C 0.51777 0.62664 0.1519 0.0
H2801 H 0.50632 0.59518 0.06428 0.0
H2802 H 0.61227 0.65984 0.22101 0.0
H2803 H 0.52379 0.49385 0.95265 0.0
H2804 H 0.66129 0.65454 0.19511 0.0
H2805 H 0.68666 0.63694 0.14305 0.0
H2806 H 0.55546 0.6524 0.21313 0.0
H2807 H 0.66424 0.50125 0.01367 0.0
H2808 H 0.54439 0.47215 0.84855 0.0
H2809 H 0.50612 0.47678 0.89032 0.0
H2810 H 0.65294 0.4773 0.86032 0.0
H2811 H 0.47717 0.61154 0.11347 0.0
H2812 H 0.50498 0.63428 0.1733 0.0
H2813 H 0.59907 0.47403 0.83731 0.0
H2814 H 0.7035 0.48867 0.97505 0.0
N2815 N 0.57229 0.50149 0.94709 0.0
C2816 C 0.55238 0.4805 0.876 0.0
C2817 C 0.53077 0.48283 0.89956 0.0
C2818 C 0.58397 0.48682 0.88819 0.0
C2819 C 0.59339 0.49681 0.92445 0.0
C2820 C 0.54112 0.49285 0.93519 0.0
N2821 N 0.63127 0.5034 0.9725 0.0
C2822 C 0.62375 0.49801 0.93749 0.0
C2823 C 0.68126 0.49146 0.96419 0.0
C2824 C 0.67463 0.48784 0.92835 0.0
C2825 C 0.65897 0.49851 0.98596 0.0
C2826 C 0.64535 0.49017 0.91448 0.0
H2827 H 0.69182 0.48191 0.9115 0.0
O2828 O 0.58557 0.45938 0.98329 0.0
O2829 O 0.6021 0.55105 0.06088 0.0
O2830 O 0.62706 0.60895 0.03188 0.0
O2831 O 0.63726 0.55609 1.00365 0.0
O2832 O 0.62373 0.51072 0.0532 0.0
O2833 O 0.56762 0.47544 0.0317 0.0
O2834 O 0.55787 0.63889 0.04811 0.0
O2835 O 0.57667 0.56447 0.994 0.0
O2836 O 0.54099 0.51252 1.01153 0.0
O2837 O 0.54381 0.55054 0.06393 0.0
O2838 O 0.53956 0.58468 1.00694 0.0
O2839 O 0.60869 0.64713 0.04877 0.0
C2840 C 0.61925 0.53527 0.07806 0.0
C2841 C 0.63657 0.48305 0.87836 0.0
C2842 C 0.60591 0.48124 0.86525 0.0
C2843 C 0.57307 0.44913 1.00939 0.0
C2844 C 0.58615 0.4236 0.02438 0.0
C2845 C 0.61597 0.419 0.01856 0.0
C2846 C 0.56891 0.40431 0.04567 0.0
C2847 C 0.58133 0.38043 0.06106 0.0
C2848 C 0.62826 0.39508 0.03349 0.0
C2849 C 0.61107 0.37577 0.05447 0.0
C2850 C 0.64543 0.59124 0.0151 0.0
C2851 C 0.55065 0.56934 0.98031 0.0
C2852 C 0.58443 0.66047 0.04707 0.0
C2853 C 0.58697 0.69737 0.04498 0.0
C2854 C 0.57302 0.71891 0.06832 0.0
C2855 C 0.60266 0.71102 0.0193 0.0
C2856 C 0.60456 0.74647 0.01722 0.0
C2857 C 0.57518 0.75429 0.06649 0.0
C2858 C 0.59094 0.76811 0.04114 0.0
C2859 C 0.52864 0.52222 0.04008 0.0
H2860 H 0.6298 0.43375 1.00246 0.0
H2861 H 0.54615 0.40847 0.05074 0.0
H2862 H 0.65117 0.39145 0.02874 0.0
H2863 H 0.62102 0.35697 0.06534 0.0
H2864 H 0.5607 0.7084 0.08807 0.0
H2865 H 0.61324 0.69419 1.00105 0.0
H2866 H 0.56455 0.77099 0.08467 0.0
H2867 H 0.59218 0.7956 0.0399 0.0
Gd2868 Gd 0.80258 0.27959 0.28574 0.0
Gd2869 Gd 0.8722 0.33137 0.27151 0.0
C2870 C 0.86755 0.43449 0.23817 0.0
C2871 C 0.88467 0.42419 0.18084 0.0
C2872 C 0.88216 0.37936 0.21541 0.0
C2873 C 0.87081 0.40044 0.24144 0.0
C2874 C 0.89033 0.39164 0.18545 0.0
C2875 C 0.87333 0.4456 0.20719 0.0
C2876 C 0.86025 0.45716 0.26679 0.0
C2877 C 0.85773 0.44633 0.29814 0.0
N2878 N 0.8661 0.38929 0.27137 0.0
C2879 C 0.86113 0.41237 0.30013 0.0
H2880 H 0.85899 0.40475 0.32466 0.0
C2881 C 0.90624 0.33149 0.20044 0.0
N2882 N 0.88836 0.34864 0.22112 0.0
C2883 C 0.91426 0.34213 0.16998 0.0
C2884 C 0.90563 0.3719 0.16202 0.0
H2885 H 0.91371 0.30915 0.2072 0.0
H2886 H 0.87044 0.4714 0.204 0.0
H2887 H 0.81389 0.20406 0.2354 0.0
H2888 H 0.85764 0.48354 0.26534 0.0
H2889 H 0.85301 0.46402 0.32078 0.0
H2890 H 0.89037 0.43384 0.15775 0.0
H2891 H 0.76041 0.30306 0.3502 0.0
H2892 H 0.82171 0.13145 0.30052 0.0
H2893 H 0.82226 0.14637 0.2427 0.0
H2894 H 0.79237 0.18674 0.40794 0.0
H2895 H 0.92737 0.32765 0.15291 0.0
H2896 H 0.91228 0.38045 0.13868 0.0
H2897 H 0.81189 0.14755 0.36271 0.0
H2898 H 0.74947 0.28796 0.40657 0.0
N2899 N 0.81015 0.22306 0.28915 0.0
C2900 C 0.81816 0.15708 0.29757 0.0
C2901 C 0.81834 0.1653 0.26485 0.0
C2902 C 0.81176 0.18123 0.32565 0.0
C2903 C 0.80724 0.21422 0.32042 0.0
C2904 C 0.81376 0.19832 0.26094 0.0
N2905 N 0.78792 0.26535 0.33818 0.0
C2906 C 0.79594 0.23618 0.34583 0.0
C2907 C 0.76295 0.27353 0.38999 0.0
C2908 C 0.77372 0.24582 0.39993 0.0
C2909 C 0.76934 0.28217 0.35825 0.0
C2910 C 0.78937 0.22587 0.37717 0.0
H2911 H 0.76831 0.23879 0.42429 0.0
O2912 O 0.75769 0.2856 0.26401 0.0
O2913 O 0.81965 0.33262 0.26884 0.0
O2914 O 0.86599 0.3478 0.32689 0.0
O2915 O 0.82298 0.30968 0.33944 0.0
O2916 O 0.78897 0.33202 0.30549 0.0
O2917 O 0.76356 0.23362 0.26626 0.0
O2918 O 0.91793 0.32199 0.2836 0.0
O2919 O 0.85491 0.27871 0.2888 0.0
O2920 O 0.81115 0.26241 0.23043 0.0
O2921 O 0.84897 0.30704 0.21762 0.0
O2922 O 0.88396 0.27792 0.25068 0.0
O2923 O 0.91109 0.37486 0.2991 0.0
C2924 C 0.80322 0.35247 0.28683 0.0
C2925 C 0.79677 0.19478 0.38376 0.0
C2926 C 0.80788 0.17244 0.358 0.0
C2927 C 0.74387 0.25238 0.26112 0.0
C2928 C 0.71493 0.24515 0.27723 0.0
C2929 C 0.71247 0.22653 0.30421 0.0
C2930 C 0.68913 0.25634 0.265 0.0
C2931 C 0.66106 0.24851 0.27918 0.0
C2932 C 0.6849 0.21995 0.31917 0.0
C2933 C 0.65915 0.23062 0.30654 0.0
C2934 C 0.847 0.33718 0.34839 0.0
C2935 C 0.87053 0.25829 0.27045 0.0
C2936 C 0.93113 0.35529 0.29673 0.0
C2937 C 0.96071 0.3691 0.28419 0.0
C2938 C 0.96274 0.39162 0.26064 0.0
C2939 C 0.98727 0.35866 0.29546 0.0
C2940 C 0.01584 0.37051 0.28336 0.0
C2941 C 0.99089 0.40293 0.24799 0.0
C2942 C 0.0173 0.39247 0.2592 0.0
C2943 C 0.82732 0.27716 0.20842 0.0
H2944 H 0.73168 0.21675 0.31363 0.0
H2945 H 0.69045 0.26963 0.24343 0.0
H2946 H 0.68324 0.20576 0.33999 0.0
H2947 H 0.63747 0.22409 0.31745 0.0
H2948 H 0.94269 0.40043 0.25199 0.0
H2949 H 0.98577 0.34201 0.31434 0.0
H2950 H 0.99229 0.42005 0.22962 0.0
H2951 H 0.03894 0.40179 0.24918 0.0
Gd2952 Gd 0.08778 0.58019 0.49454 0.0
Gd2953 Gd 0.09357 0.53551 0.56739 0.0
C2954 C 0.17291 0.58876 0.65662 0.0
C2955 C 0.19974 0.54152 0.65719 0.0
C2956 C 0.15535 0.53291 0.61348 0.0
C2957 C 0.15195 0.56676 0.62768 0.0
C2958 C 0.17931 0.51994 0.62816 0.0
C2959 C 0.19678 0.57596 0.67117 0.0
C2960 C 0.16935 0.62303 0.67018 0.0
C2961 C 0.1458 0.63502 0.65451 0.0
N2962 N 0.12855 0.57839 0.61306 0.0
C2963 C 0.12582 0.61254 0.62574 0.0
H2964 H 0.10919 0.62381 0.61353 0.0
C2965 C 0.13586 0.47752 0.57328 0.0
N2966 N 0.13476 0.51217 0.58602 0.0
C2967 C 0.15964 0.46389 0.58632 0.0
C2968 C 0.18159 0.48527 0.6138 0.0
H2969 H 0.1182 0.46023 0.55293 0.0
H2970 H 0.21294 0.5924 0.69344 0.0
H2971 H 0.06209 0.48994 0.45339 0.0
H2972 H 0.18497 0.64065 0.69231 0.0
H2973 H 0.14332 0.66186 0.6642 0.0
H2974 H 0.21766 0.53158 0.66936 0.0
H2975 H 0.06762 0.65807 0.50934 0.0
H2976 H 0.99279 0.48012 0.36943 0.0
H2977 H 0.0266 0.45339 0.40306 0.0
H2978 H 0.97373 0.59646 0.38527 0.0
H2979 H 0.16065 0.4367 0.57556 0.0
H2980 H 0.19981 0.47451 0.62423 0.0
H2981 H 0.97364 0.53361 0.36275 0.0
H2982 H 0.03035 0.68664 0.48334 0.0
N2983 N 0.05159 0.53945 0.44819 0.0
C2984 C 1.00918 0.49697 0.39132 0.0
C2985 C 0.02822 0.48181 0.41017 0.0
C2986 C 1.01055 0.53338 0.40184 0.0
C2987 C 0.03217 0.5542 0.43073 0.0
C2988 C 0.04906 0.50331 0.4387 0.0
N2989 N 0.05094 0.60798 0.4733 0.0
C2990 C 0.03184 0.58951 0.44373 0.0
C2991 C 0.03035 0.65924 0.47209 0.0
C2992 C 1.00991 0.64027 0.44234 0.0
C2993 C 0.05113 0.64282 0.48697 0.0
C2994 C 1.01051 0.60505 0.42772 0.0
H2995 H 0.99378 0.65304 0.43087 0.0
O2996 O 0.11433 0.63071 0.48779 0.0
O2997 O 0.1171 0.5696 0.53643 0.0
O2998 O 0.06853 0.57989 0.58227 0.0
O2999 O 0.05876 0.60275 0.53322 0.0
O3000 O 0.12753 0.62059 0.53208 0.0
O3001 O 0.11563 0.58052 0.45233 0.0
O3002 O 0.07329 0.4856 0.5812 0.0
O3003 O 0.06385 0.54524 0.52575 0.0
O3004 O 0.10753 0.53267 0.47623 0.0
O3005 O 0.11959 0.51148 0.52575 0.0
O3006 O 0.05677 0.49338 0.52924 0.0
O3007 O 0.06364 0.53572 0.60738 0.0
C3008 C 0.13692 0.59833 0.54759 0.0
C3009 C 0.99012 0.58489 0.39802 0.0
C3010 C 0.99012 0.54913 0.38514 0.0
C3011 C 0.12426 0.61549 0.45981 0.0
C3012 C 0.12419 0.63233 0.43043 0.0
C3013 C 0.10572 0.65612 0.42568 0.0
C3014 C 0.14436 0.62446 0.40671 0.0
C3015 C 0.14624 0.63975 0.37805 0.0
C3016 C 0.1075 0.67144 0.39668 0.0
C3017 C 0.12792 0.66337 0.37275 0.0
C3018 C 0.05611 0.60094 0.56597 0.0
C3019 C 0.04505 0.51547 0.51553 0.0
C3020 C 0.06136 0.50201 0.60691 0.0
C3021 C 0.06738 0.49464 0.64104 0.0
C3022 C 0.08906 0.47536 0.64897 0.0
C3023 C 0.05117 0.50878 0.66679 0.0
C3024 C 0.05596 0.50364 0.70025 0.0
C3025 C 0.09384 0.47007 0.68275 0.0
C3026 C 0.07702 0.48389 0.70845 0.0
C3027 C 0.11982 0.51156 0.4923 0.0
H3028 H 0.09036 0.6632 0.44423 0.0
H3029 H 0.15881 0.60623 0.41055 0.0
H3030 H 0.09316 0.6896 0.39284 0.0
H3031 H 0.12916 0.67503 0.35014 0.0
H3032 H 0.10207 0.46433 0.62932 0.0
H3033 H 0.03415 0.52339 0.66061 0.0
H3034 H 0.11028 0.45493 0.68887 0.0
H3035 H 0.08013 0.47896 0.73433 0.0
Gd3036 Gd 0.87434 0.79517 0.27824 0.0
Gd3037 Gd 0.79978 0.81565 0.27808 0.0
C3038 C 0.74483 0.79539 0.16946 0.0
C3039 C 0.74652 0.85564 0.16295 0.0
C3040 C 0.77047 0.84562 0.21639 0.0
C3041 C 0.7625 0.80937 0.20269 0.0
C3042 C 0.76126 0.86908 0.19732 0.0
C3043 C 0.73831 0.81876 0.149 0.0
C3044 C 0.73205 0.75857 0.15897 0.0
C3045 C 0.73522 0.73709 0.18232 0.0
N3046 N 0.76809 0.78773 0.22382 0.0
C3047 C 0.753 0.75223 0.21484 0.0
H3048 H 0.75354 0.73512 0.23257 0.0
C3049 C 0.78381 0.89134 0.26763 0.0
N3050 N 0.78321 0.85735 0.25017 0.0
C3051 C 0.77575 0.91583 0.24972 0.0
C3052 C 0.76509 0.90486 0.21416 0.0
H3053 H 0.79201 0.9 0.29522 0.0
H3054 H 0.72527 0.80852 0.12323 0.0
H3055 H 0.89804 0.87977 0.33106 0.0
H3056 H 0.71815 0.74683 0.13383 0.0
H3057 H 0.72396 0.70883 0.17538 0.0
H3058 H 0.7397 0.8733 0.14771 0.0
H3059 H 0.87796 0.70936 0.2663 0.0
H3060 H 0.95685 0.87519 0.4192 0.0
H3061 H 0.93118 0.90962 0.38551 0.0
H3062 H 0.95828 0.75208 0.40143 0.0
H3063 H 0.77759 0.94307 0.26341 0.0
H3064 H 0.75832 0.92371 0.20043 0.0
H3065 H 0.96697 0.81661 0.42463 0.0
H3066 H 0.90171 0.67142 0.29731 0.0
N3067 N 0.9043 0.82762 0.33205 0.0
C3068 C 0.94237 0.86165 0.39475 0.0
C3069 C 0.92797 0.88115 0.37582 0.0
C3070 C 0.93786 0.82489 0.382 0.0
C3071 C 0.91853 0.80834 0.35013 0.0
C3072 C 0.90922 0.8638 0.34436 0.0
N3073 N 0.89468 0.75641 0.30661 0.0
C3074 C 0.91337 0.77177 0.3372 0.0
C3075 C 0.9049 0.69948 0.30903 0.0
C3076 C 0.92313 0.71457 0.34115 0.0
C3077 C 0.89124 0.72097 0.29177 0.0
C3078 C 0.92787 0.75112 0.35545 0.0
H3079 H 0.93392 0.6979 0.35439 0.0
O3080 O 0.89659 0.77049 0.23618 0.0
O3081 O 0.83559 0.80416 0.24375 0.0
O3082 O 0.79336 0.75494 0.27677 0.0
O3083 O 0.84192 0.74566 0.2912 0.0
O3084 O 0.84931 0.75719 0.22829 0.0
O3085 O 0.92112 0.82134 0.26894 0.0
O3086 O 0.77407 0.84068 0.31636 0.0
O3087 O 0.83805 0.80602 0.31325 0.0
O3088 O 0.8819 0.8539 0.27215 0.0
O3089 O 0.83385 0.86799 0.27331 0.0
O3090 O 0.82414 0.85298 0.32756 0.0
O3091 O 0.75743 0.78486 0.29256 0.0
C3092 C 0.83173 0.77664 0.21903 0.0
C3093 C 0.94701 0.76755 0.38709 0.0
C3094 C 0.95198 0.8043 0.4003 0.0
C3095 C 0.92229 0.79561 0.24292 0.0
C3096 C 0.95189 0.78399 0.24043 0.0
C3097 C 0.95404 0.75138 0.24827 0.0
C3098 C 0.97733 0.80378 0.22738 0.0
C3099 C 1.00465 0.79113 0.22321 0.0
C3100 C 0.98085 0.73901 0.24447 0.0
C3101 C 1.00594 0.75863 0.23209 0.0
C3102 C 0.81105 0.73363 0.28464 0.0
C3103 C 0.84048 0.83312 0.3383 0.0
C3104 C 0.75188 0.81217 0.31335 0.0
C3105 C 0.71991 0.81685 0.30941 0.0
C3106 C 0.70983 0.83129 0.28217 0.0
C3107 C 0.69931 0.80721 0.33319 0.0
C3108 C 0.66879 0.81187 0.3294 0.0
C3109 C 0.67974 0.83644 0.27879 0.0
C3110 C 0.65926 0.82668 0.30218 0.0
C3111 C 0.86437 0.87734 0.27169 0.0
H3112 H 0.93471 0.73464 0.25626 0.0
H3113 H 0.97578 0.82854 0.22021 0.0
H3114 H 0.98191 0.71364 0.25045 0.0
H3115 H 0.02613 0.7477 0.22844 0.0
H3116 H 0.72512 0.83858 0.26349 0.0
H3117 H 0.7068 0.79574 0.35415 0.0
H3118 H 0.67221 0.84779 0.25783 0.0
H3119 H 0.63585 0.83051 0.29898 0.0
Gd3120 Gd 0.81711 0.32037 0.82453 0.0
Gd3121 Gd 0.85692 0.29796 0.74943 0.0
C3122 C 0.84754 0.18724 0.67878 0.0
C3123 C 0.89537 0.17253 0.69798 0.0
C3124 C 0.88468 0.22921 0.72448 0.0
C3125 C 0.85644 0.21995 0.70379 0.0
C3126 C 0.90513 0.20629 0.72074 0.0
C3127 C 0.86669 0.16315 0.67683 0.0
C3128 C 0.82089 0.18083 0.65487 0.0
C3129 C 0.80505 0.20762 0.65482 0.0
N3130 N 0.83956 0.24482 0.70511 0.0
C3131 C 0.81532 0.23991 0.67952 0.0
H3132 H 0.80382 0.26074 0.67736 0.0
C3133 C 0.92467 0.27651 0.75808 0.0
N3134 N 0.89385 0.26261 0.74484 0.0
C3135 C 0.94569 0.25471 0.75578 0.0
C3136 C 0.93562 0.21908 0.7378 0.0
H3137 H 0.9326 0.30415 0.77197 0.0
H3138 H 0.86056 0.13829 0.65748 0.0
H3139 H 0.89814 0.35874 0.85204 0.0
H3140 H 0.81338 0.15621 0.63517 0.0
H3141 H 0.78531 0.20372 0.63534 0.0
H3142 H 0.91063 0.15443 0.69491 0.0
H3143 H 0.75312 0.3504 0.81108 0.0
H3144 H 0.90482 0.43971 0.94327 0.0
H3145 H 0.92961 0.40294 0.90117 0.0
H3146 H 0.80227 0.45883 0.9414 0.0
H3147 H 0.96962 0.26546 0.76771 0.0
H3148 H 0.95204 0.20233 0.73555 0.0
H3149 H 0.85638 0.45818 0.95963 0.0
H3150 H 0.728 0.39482 0.84183 0.0
N3151 N 0.85414 0.3676 0.86585 0.0
C3152 C 0.8905 0.41994 0.92153 0.0
C3153 C 0.90454 0.39926 0.89789 0.0
C3154 C 0.85844 0.4166 0.91539 0.0
C3155 C 0.84092 0.39078 0.88639 0.0
C3156 C 0.88612 0.37357 0.86996 0.0
N3157 N 0.7955 0.36861 0.84607 0.0
C3158 C 0.81056 0.39131 0.8761 0.0
C3159 C 0.75137 0.39444 0.85158 0.0
C3160 C 0.76653 0.41781 0.88258 0.0
C3161 C 0.76612 0.36975 0.83374 0.0
C3162 C 0.79652 0.41656 0.89514 0.0
H3163 H 0.75494 0.43675 0.89652 0.0
O3164 O 0.76794 0.29188 0.81709 0.0
O3165 O 0.81893 0.28044 0.77785 0.0
O3166 O 0.80602 0.29836 0.73104 0.0
O3167 O 0.79415 0.33691 0.77765 0.0
O3168 O 0.81622 0.26218 0.82361 0.0
O3169 O 0.79341 0.31462 0.86913 0.0
O3170 O 0.89558 0.33064 0.73178 0.0
O3171 O 0.84294 0.34143 0.78528 0.0
O3172 O 0.85992 0.30423 0.84693 0.0
O3173 O 0.88027 0.2815 0.79634 0.0
O3174 O 0.88995 0.34678 0.78217 0.0
O3175 O 0.84902 0.31834 0.70362 0.0
C3176 C 0.81657 0.25351 0.79037 0.0
C3177 C 0.8129 0.43982 0.92593 0.0
C3178 C 0.84371 0.43952 0.93625 0.0
C3179 C 0.76682 0.29732 0.85058 0.0
C3180 C 0.74782 0.26965 0.86461 0.0
C3181 C 0.7161 0.26849 0.86523 0.0
C3182 C 0.76194 0.24942 0.88312 0.0
C3183 C 0.74503 0.23015 0.90454 0.0
C3184 C 0.69897 0.24885 0.88603 0.0
C3185 C 0.71356 0.23063 0.90646 0.0
C3186 C 0.78842 0.31998 0.74412 0.0
C3187 C 0.86912 0.36284 0.79322 0.0
C3188 C 0.8784 0.33334 0.70495 0.0
C3189 C 0.89115 0.32994 0.67234 0.0
C3190 C 0.91401 0.31116 0.6639 0.0
C3191 C 0.88162 0.34976 0.65051 0.0
C3192 C 0.89548 0.35272 0.62076 0.0
C3193 C 0.92775 0.31361 0.63343 0.0
C3194 C 0.91889 0.335 0.61203 0.0
C3195 C 0.8809 0.2893 0.83099 0.0
H3196 H 0.70501 0.28422 0.85104 0.0
H3197 H 0.78642 0.25012 0.88205 0.0
H3198 H 0.67462 0.24858 0.88713 0.0
H3199 H 0.7001 0.21675 0.9235 0.0
H3200 H 0.92161 0.29556 0.68101 0.0
H3201 H 0.86442 0.36484 0.65782 0.0
H3202 H 0.94573 0.29973 0.62688 0.0
H3203 H 0.93025 0.33791 0.58911 0.0
Gd3204 Gd 0.81416 0.76728 0.76183 0.0
Gd3205 Gd 0.87252 0.84892 0.79774 0.0
C3206 C 0.97832 0.87327 0.80602 0.0
C3207 C 0.99347 0.89446 0.86818 0.0
C3208 C 0.93883 0.86954 0.84507 0.0
C3209 C 0.94684 0.86264 0.81162 0.0
C3210 C 0.96224 0.88518 0.87374 0.0
C3211 C 1.00151 0.88921 0.83442 0.0
C3212 C 0.98547 0.86946 0.77195 0.0
C3213 C 0.96211 0.85349 0.74439 0.0
N3214 N 0.92379 0.84868 0.78438 0.0
C3215 C 0.93144 0.84351 0.75108 0.0
H3216 H 0.91445 0.8321 0.72889 0.0
C3217 C 0.89979 0.87587 0.88162 0.0
N3218 N 0.90819 0.86443 0.84932 0.0
C3219 C 0.9221 0.88887 0.911 0.0
C3220 C 0.95354 0.89331 0.90708 0.0
H3221 H 0.87572 0.87501 0.88494 0.0
H3222 H 0.02565 0.89817 0.83057 0.0
H3223 H 0.78935 0.78593 0.84632 0.0
H3224 H 1.00878 0.87957 0.76662 0.0
H3225 H 0.96752 0.84985 0.71782 0.0
H3226 H 1.01128 0.90718 0.88987 0.0
H3227 H 0.78547 0.76099 0.67798 0.0
H3228 H 0.69948 0.71645 0.83666 0.0
H3229 H 0.74524 0.75952 0.87309 0.0
H3230 H 0.67128 0.67538 0.71376 0.0
H3231 H 0.9151 0.89689 0.93646 0.0
H3232 H 0.97094 0.90494 0.92969 0.0
H3233 H 0.67355 0.68255 0.77683 0.0
H3234 H 0.73873 0.72678 0.63899 0.0
N3235 N 0.77036 0.75801 0.79397 0.0
C3236 C 0.71889 0.72853 0.82447 0.0
C3237 C 0.74474 0.7525 0.84507 0.0
C3238 C 0.71791 0.7216 0.78828 0.0
C3239 C 0.74359 0.73846 0.77367 0.0
C3240 C 0.77029 0.76696 0.82945 0.0
N3241 N 0.76651 0.75285 0.72488 0.0
C3242 C 0.74167 0.73566 0.73805 0.0
C3243 C 0.73899 0.72959 0.66685 0.0
C3244 C 0.71391 0.71087 0.68004 0.0
C3245 C 0.76533 0.75009 0.68956 0.0
C3246 C 0.71494 0.71382 0.71597 0.0
H3247 H 0.69424 0.69362 0.6622 0.0
O3248 O 0.8238 0.73755 0.71305 0.0
O3249 O 0.86398 0.79567 0.7647 0.0
O3250 O 0.86705 0.83833 0.7384 0.0
O3251 O 0.81627 0.80535 0.72375 0.0
O3252 O 0.85626 0.74744 0.77789 0.0
O3253 O 0.79742 0.70977 0.74758 0.0
O3254 O 0.89705 0.90491 0.81477 0.0
O3255 O 0.8209 0.82524 0.78479 0.0
O3256 O 0.82753 0.76265 0.8171 0.0
O3257 O 0.86441 0.81662 0.84105 0.0
O3258 O 0.83727 0.86065 0.83255 0.0
O3259 O 0.85932 0.88833 0.77307 0.0
C3260 C 0.87751 0.77293 0.77209 0.0
C3261 C 0.69086 0.69415 0.73027 0.0
C3262 C 0.69225 0.69814 0.7663 0.0
C3263 C 0.81117 0.70672 0.71948 0.0
C3264 C 0.83014 0.6806 0.715 0.0
C3265 C 0.83769 0.66752 0.68187 0.0
C3266 C 0.84277 0.6707 0.74401 0.0
C3267 C 0.86432 0.64987 0.74023 0.0
C3268 C 0.85795 0.64488 0.67784 0.0
C3269 C 0.87171 0.63656 0.70704 0.0
C3270 C 0.84182 0.82512 0.71531 0.0
C3271 C 0.81272 0.84101 0.81263 0.0
C3272 C 0.87815 0.91512 0.79475 0.0
C3273 C 0.86428 0.94343 0.81133 0.0
C3274 C 0.87911 0.96838 0.8419 0.0
C3275 C 0.83611 0.94618 0.79551 0.0
C3276 C 0.82305 0.97394 0.80921 0.0
C3277 C 0.86505 0.99515 0.85696 0.0
C3278 C 0.83696 0.99797 0.8407 0.0
C3279 C 0.84634 0.7855 0.84381 0.0
H3280 H 0.82828 0.67527 0.65929 0.0
H3281 H 0.83711 0.68045 0.76983 0.0
H3282 H 0.8635 0.63442 0.65223 0.0
H3283 H 0.88817 0.61994 0.70388 0.0
H3284 H 0.90165 0.96745 0.85366 0.0
H3285 H 0.82484 0.92764 0.77134 0.0
H3286 H 0.87649 1.01456 0.88037 0.0
H3287 H 0.82712 1.01994 0.85162 0.0
Gd3288 Gd 0.62245 0.58121 0.55421 0.0
Gd3289 Gd 0.55041 0.52472 0.50838 0.0
C3290 C 0.5353 0.41264 0.52964 0.0
C3291 C 0.55134 0.37939 0.47863 0.0
C3292 C 0.55474 0.44311 0.48513 0.0
C3293 C 0.54403 0.44443 0.51744 0.0
C3294 C 0.55833 0.41029 0.46546 0.0
C3295 C 0.53939 0.38047 0.51035 0.0
C3296 C 0.5217 0.41364 0.56043 0.0
C3297 C 0.5166 0.44559 0.57819 0.0
N3298 N 0.54033 0.47597 0.53602 0.0
C3299 C 0.52573 0.47635 0.56548 0.0
H3300 H 0.5192 0.4994 0.579 0.0
C3301 C 0.56201 0.46893 0.43661 0.0
N3302 N 0.55873 0.47262 0.47143 0.0
C3303 C 0.56849 0.43821 0.4174 0.0
C3304 C 0.56703 0.40879 0.43207 0.0
H3305 H 0.55907 0.48922 0.42277 0.0
H3306 H 0.53258 0.3561 0.51945 0.0
H3307 H 0.62596 0.60752 0.4762 0.0
H3308 H 0.51442 0.38974 0.57028 0.0
H3309 H 0.50512 0.4465 0.60145 0.0
H3310 H 0.55371 0.35411 0.46362 0.0
H3311 H 0.62526 0.61003 0.64245 0.0
H3312 H 0.65507 0.72009 0.49817 0.0
H3313 H 0.64198 0.66196 0.45628 0.0
H3314 H 0.65115 0.75551 0.62017 0.0
H3315 H 0.57255 0.43644 0.39049 0.0
H3316 H 0.57033 0.38424 0.41644 0.0
H3317 H 0.65914 0.75445 0.55938 0.0
H3318 H 0.62401 0.66488 0.68403 0.0
N3319 N 0.6298 0.63246 0.53006 0.0
C3320 C 0.648 0.69585 0.50742 0.0
C3321 C 0.64069 0.66312 0.48373 0.0
C3322 C 0.64542 0.69691 0.54259 0.0
C3323 C 0.63621 0.66441 0.55336 0.0
C3324 C 0.63173 0.63174 0.49549 0.0
N3325 N 0.62538 0.63345 0.59811 0.0
C3326 C 0.63269 0.66492 0.58798 0.0
C3327 C 0.62682 0.66547 0.6572 0.0
C3328 C 0.63291 0.69775 0.6469 0.0
C3329 C 0.62568 0.63399 0.633 0.0
C3330 C 0.63738 0.69792 0.61233 0.0
H3331 H 0.63539 0.72242 0.66608 0.0
O3332 O 0.66121 0.59384 0.59462 0.0
O3333 O 0.59377 0.52432 0.5408 0.0
O3334 O 0.53938 0.55114 0.56384 0.0
O3335 O 0.5877 0.5754 0.59638 0.0
O3336 O 0.63345 0.53387 0.57391 0.0
O3337 O 0.66983 0.58793 0.53974 0.0
O3338 O 0.51294 0.50043 0.46573 0.0
O3339 O 0.57781 0.58233 0.52295 0.0
O3340 O 0.63325 0.55645 0.49803 0.0
O3341 O 0.58433 0.53643 0.46608 0.0
O3342 O 0.53831 0.57062 0.48845 0.0
O3343 O 0.50252 0.51754 0.51866 0.0
C3344 C 0.61056 0.50839 0.55733 0.0
C3345 C 0.64687 0.73005 0.60169 0.0
C3346 C 0.65135 0.72949 0.56704 0.0
C3347 C 0.6815 0.59486 0.57251 0.0
C3348 C 0.71495 0.60378 0.58471 0.0
C3349 C 0.7262 0.62468 0.61836 0.0
C3350 C 0.73529 0.589 0.56423 0.0
C3351 C 0.76654 0.59358 0.57789 0.0
C3352 C 0.75728 0.63007 0.63174 0.0
C3353 C 0.77721 0.61417 0.61191 0.0
C3354 C 0.5566 0.56586 0.595 0.0
C3355 C 0.56023 0.59715 0.50571 0.0
C3356 C 0.49143 0.50245 0.48628 0.0
C3357 C 0.4613 0.50706 0.47248 0.0
C3358 C 0.44561 0.48284 0.44195 0.0
C3359 C 0.44595 0.53098 0.49128 0.0
C3360 C 0.41516 0.53025 0.47915 0.0
C3361 C 0.41463 0.48109 0.43103 0.0
C3362 C 0.39951 0.50489 0.44928 0.0
C3363 C 0.61554 0.54311 0.46698 0.0
H3364 H 0.71079 0.63624 0.63458 0.0
H3365 H 0.72644 0.57294 0.53823 0.0
H3366 H 0.76569 0.64571 0.65794 0.0
H3367 H 0.80068 0.61694 0.62367 0.0
H3368 H 0.45704 0.46429 0.42728 0.0
H3369 H 0.4576 0.54969 0.51515 0.0
H3370 H 0.40212 0.46072 0.40886 0.0
H3371 H 0.3754 0.50329 0.44034 0.0
Gd3372 Gd 0.05017 0.55638 0.05465 0.0
Gd3373 Gd 0.12014 0.55171 0.01455 0.0
C3374 C 0.18872 0.6576 0.01961 0.0
C3375 C 0.18923 0.65864 0.95834 0.0
C3376 C 0.15645 0.60827 0.97542 0.0
C3377 C 0.1662 0.62468 1.01028 0.0
C3378 C 0.16845 0.62471 0.9491 0.0
C3379 C 0.1994 0.67502 0.99352 0.0
C3380 C 0.2011 0.67107 0.05469 0.0
C3381 C 0.19174 0.65117 0.07923 0.0
N3382 N 0.15571 0.60708 0.03492 0.0
C3383 C 0.16881 0.61907 0.06878 0.0
H3384 H 0.16174 0.60366 0.08758 0.0
C3385 C 0.13072 0.5556 0.9336 0.0
N3386 N 0.13713 0.57502 0.96728 0.0
C3387 C 0.14162 0.57102 0.90658 0.0
C3388 C 0.16024 0.60591 0.91431 0.0
H3389 H 0.11644 0.52853 0.92767 0.0
H3390 H 0.21637 0.70056 1.00022 0.0
H3391 H 1.00845 0.50772 0.97736 0.0
H3392 H 0.21865 0.69609 0.06288 0.0
H3393 H 0.20185 0.66074 0.10625 0.0
H3394 H 0.19849 0.67184 0.93847 0.0
H3395 H 0.06267 0.56344 0.14255 0.0
H3396 H 0.95305 0.4115 0.99478 0.0
H3397 H 0.97035 0.45097 0.95514 0.0
H3398 H 0.9772 0.42077 0.11667 0.0
H3399 H 0.13584 0.55594 0.87986 0.0
H3400 H 0.16897 0.61765 0.89335 0.0
H3401 H 0.95573 0.40061 0.05488 0.0
H3402 H 0.04758 0.527 0.18448 0.0
N3403 N 0.01483 0.50098 0.02948 0.0
C3404 C 0.97021 0.43658 1.00484 0.0
C3405 C 0.97996 0.4587 0.98238 0.0
C3406 C 0.98243 0.44725 0.04007 0.0
C3407 C 1.0049 0.48015 0.05192 0.0
C3408 C 1.00197 0.4911 0.99526 0.0
N3409 N 0.03881 0.52318 0.0978 0.0
C3410 C 0.01745 0.49132 0.08684 0.0
C3411 C 0.03938 0.5163 0.15704 0.0
C3412 C 0.01893 0.48274 0.1459 0.0
C3413 C 0.04855 0.53654 0.13276 0.0
C3414 C 1.00725 0.4701 0.11062 0.0
H3415 H 1.01157 0.46728 0.16489 0.0
O3416 O 0.02566 0.58042 0.09391 0.0
O3417 O 0.09528 0.58926 0.04413 0.0
O3418 O 0.11837 0.53361 0.06463 0.0
O3419 O 0.0906 0.56892 0.09545 0.0
O3420 O 0.066 0.61711 0.06767 0.0
O3421 O 1.00736 0.57102 0.03836 0.0
O3422 O 0.14258 0.51233 0.98766 0.0
O3423 O 0.0779 0.51665 0.0301 0.0
O3424 O 0.04272 0.56263 1.00062 0.0
O3425 O 0.08994 0.56947 0.97724 0.0
O3426 O 0.08787 0.5035 0.97932 0.0
O3427 O 0.16292 0.5441 0.03912 0.0
C3428 C 0.092 0.62123 0.05492 0.0
C3429 C 0.98518 0.43733 0.09875 0.0
C3430 C 0.97286 0.42592 0.06359 0.0
C3431 C 1.0041 0.58311 0.07092 0.0
C3432 C 0.9781 0.59835 0.08193 0.0
C3433 C 0.97357 0.6042 0.11728 0.0
C3434 C 0.95798 0.60755 0.05792 0.0
C3435 C 0.93336 0.62198 0.0694 0.0
C3436 C 0.94924 0.61875 0.12855 0.0
C3437 C 0.92915 0.62751 0.10476 0.0
C3438 C 0.11129 0.54993 0.09402 0.0
C3439 C 0.07134 0.49167 1.00209 0.0
C3440 C 0.16556 0.51963 0.01273 0.0
C3441 C 0.19696 0.5215 1.00276 0.0
C3442 C 0.20808 0.54131 0.97857 0.0
C3443 C 0.21575 0.50212 0.01697 0.0
C3444 C 0.2451 0.50165 1.00619 0.0
C3445 C 0.23742 0.54118 0.96813 0.0
C3446 C 0.25574 0.52121 0.98159 0.0
C3447 C 0.06047 0.57023 0.9768 0.0
H3448 H 0.98879 0.59747 0.1363 0.0
H3449 H 0.96133 0.60351 0.03063 0.0
H3450 H 0.94596 0.62326 0.15582 0.0
H3451 H 0.91041 0.63895 0.11399 0.0
H3452 H 0.19402 0.55647 0.96747 0.0
H3453 H 0.20717 0.48657 0.03552 0.0
H3454 H 0.24582 0.55623 0.94923 0.0
H3455 H 0.27824 0.52092 0.97276 0.0
loop_
_geom_bond_atom_site_label_1
_geom_bond_atom_site_label_2
_geom_bond_distance
_geom_bond_site_symmetry_2
_ccdc_geom_bond_type
Li0 N17 1.990 . S
Li0 O60 1.956 . S
Li0 O61 1.970 . S
Li0 O62 1.961 . S
Li1 N25 1.990 . S
Li1 O60 1.970 . S
Li1 O61 1.956 . S
Li1 O63 1.961 . S
Li2 N47 1.990 . S
Li2 O60 1.961 . S
Li2 O62 1.956 . S
Li2 O63 1.970 . S
Li3 N53 1.990 . S
Li3 O61 1.961 . S
Li3 O62 1.970 . S
Li3 O63 1.956 . S
C4 C6 1.348 . S
C4 C7 1.356 . S
C4 O60 1.325 . S
N5 C8 1.314 . S
N5 C9 1.279 . S
C6 C4 1.348 . S
C6 C8 1.353 . S
C6 H64 0.929 . S
C7 C4 1.356 . S
C7 C9 1.358 . S
C7 H65 0.930 . S
C8 N5 1.314 . S
C8 C6 1.353 . S
C8 H66 0.930 . S
C9 N5 1.279 . S
C9 C7 1.358 . S
C9 H67 0.930 . S
C10 C13 1.348 . S
C10 C14 1.356 . S
C10 O61 1.325 . S
C11 N12 1.279 . S
C11 C14 1.358 . S
C11 H68 0.930 . S
N12 C11 1.279 . S
N12 C15 1.314 . S
C13 C10 1.348 . S
C13 C15 1.353 . S
C13 H69 0.929 . S
C14 C10 1.356 . S
C14 C11 1.358 . S
C14 H70 0.930 . S
C15 N12 1.314 . S
C15 C13 1.353 . S
C15 H71 0.930 . S
C16 N17 1.314 . S
C16 C21 1.353 . S
C16 H22 0.930 . S
N17 Li0 1.990 . S
N17 C16 1.314 . S
N17 C19 1.279 . S
C18 C19 1.358 . S
C18 C20 1.356 . S
C18 H72 0.930 . S
C19 N17 1.279 . S
C19 C18 1.358 . S
C19 H23 0.930 . S
C20 C18 1.356 . S
C20 C21 1.348 . S
C21 C16 1.353 . S
C21 C20 1.348 . S
C21 H73 0.929 . S
H22 C16 0.930 . S
H23 C19 0.930 . S
C24 N25 1.314 . S
C24 C26 1.353 . S
C24 H30 0.930 . S
N25 Li1 1.990 . S
N25 C24 1.314 . S
N25 C28 1.279 . S
C26 C24 1.353 . S
C26 C29 1.348 . S
C26 H74 0.929 . S
C27 C28 1.358 . S
C27 C29 1.356 . S
C27 H75 0.930 . S
C28 N25 1.279 . S
C28 C27 1.358 . S
C28 H31 0.930 . S
C29 C26 1.348 . S
C29 C27 1.356 . S
H30 C24 0.930 . S
H31 C28 0.930 . S
C32 C34 1.348 . S
C32 C35 1.356 . S
C32 O62 1.325 . S
N33 C36 1.314 . S
N33 C37 1.279 . S
C34 C32 1.348 . S
C34 C36 1.353 . S
C34 H76 0.929 . S
C35 C32 1.356 . S
C35 C37 1.358 . S
C35 H77 0.930 . S
C36 N33 1.314 . S
C36 C34 1.353 . S
C36 H78 0.930 . S
C37 N33 1.279 . S
C37 C35 1.358 . S
C37 H79 0.930 . S
C38 C39 1.348 . S
C38 C40 1.356 . S
C38 O63 1.325 . S
C39 C38 1.348 . S
C39 C41 1.353 . S
C39 H80 0.929 . S
C40 C38 1.356 . S
C40 C42 1.358 . S
C40 H81 0.930 . S
C41 C39 1.353 . S
C41 N43 1.314 . S
C41 H82 0.930 . S
C42 C40 1.358 . S
C42 N43 1.279 . S
C42 H83 0.930 . S
N43 C41 1.314 . S
N43 C42 1.279 . S
C44 C46 1.353 . S
C44 N47 1.314 . S
C44 H50 0.930 . S
C45 N47 1.279 . S
C45 C48 1.358 . S
C45 H51 0.930 . S
C46 C44 1.353 . S
C46 C49 1.348 . S
C46 H84 0.929 . S
N47 Li2 1.990 . S
N47 C44 1.314 . S
N47 C45 1.279 . S
C48 C45 1.358 . S
C48 C49 1.356 . S
C48 H85 0.930 . S
C49 C46 1.348 . S
C49 C48 1.356 . S
H50 C44 0.930 . S
H51 C45 0.930 . S
C52 N53 1.314 . S
C52 C54 1.353 . S
C52 H58 0.930 . S
N53 Li3 1.990 . S
N53 C52 1.314 . S
N53 C56 1.279 . S
C54 C52 1.353 . S
C54 C57 1.348 . S
C54 H86 0.929 . S
C55 C56 1.358 . S
C55 C57 1.356 . S
C55 H87 0.930 . S
C56 N53 1.279 . S
C56 C55 1.358 . S
C56 H59 0.930 . S
C57 C54 1.348 . S
C57 C55 1.356 . S
H58 C52 0.930 . S
H59 C56 0.930 . S
O60 Li0 1.956 . S
O60 Li1 1.970 . S
O60 Li2 1.961 . S
O60 C4 1.325 . S
O61 Li0 1.970 . S
O61 Li1 1.956 . S
O61 Li3 1.961 . S
O61 C10 1.325 . S
O62 Li0 1.961 . S
O62 Li2 1.956 . S
O62 Li3 1.970 . S
O62 C32 1.325 . S
O63 Li1 1.961 . S
O63 Li2 1.970 . S
O63 Li3 1.956 . S
O63 C38 1.325 . S
H64 C6 0.929 . S
H65 C7 0.930 . S
H66 C8 0.930 . S
H67 C9 0.930 . S
H68 C11 0.930 . S
H69 C13 0.929 . S
H70 C14 0.930 . S
H71 C15 0.930 . S
H72 C18 0.930 . S
H73 C21 0.929 . S
H74 C26 0.929 . S
H75 C27 0.930 . S
H76 C34 0.929 . S
H77 C35 0.930 . S
H78 C36 0.930 . S
H79 C37 0.930 . S
H80 C39 0.929 . S
H81 C40 0.930 . S
H82 C41 0.930 . S
H83 C42 0.930 . S
H84 C46 0.929 . S
H85 C48 0.930 . S
H86 C54 0.929 . S
H87 C55 0.930 . S
Li88 N105 1.990 . S
Li88 O148 1.956 . S
Li88 O149 1.970 . S
Li88 O150 1.961 1_455 S
Li89 N113 1.990 . S
Li89 O148 1.970 . S
Li89 O149 1.956 . S
Li89 O151 1.961 1_455 S
Li90 N135 1.990 . S
Li90 O148 1.961 1_655 S
Li90 O150 1.956 . S
Li90 O151 1.970 . S
Li91 N141 1.990 . S
Li91 O149 1.961 1_655 S
Li91 O150 1.970 . S
Li91 O151 1.956 . S
C92 C94 1.348 . S
C92 C95 1.356 . S
C92 O148 1.325 . S
N93 C96 1.314 . S
N93 C97 1.279 . S
C94 C92 1.348 . S
C94 C96 1.353 . S
C94 H152 0.929 . S
C95 C92 1.356 . S
C95 C97 1.358 . S
C95 H153 0.930 . S
C96 N93 1.314 . S
C96 C94 1.353 . S
C96 H154 0.930 . S
C97 N93 1.279 . S
C97 C95 1.358 . S
C97 H155 0.930 . S
C98 C101 1.348 . S
C98 C102 1.356 . S
C98 O149 1.325 . S
C99 N100 1.279 . S
C99 C102 1.358 . S
C99 H156 0.930 . S
N100 C99 1.279 . S
N100 C103 1.314 . S
C101 C98 1.348 . S
C101 C103 1.353 . S
C101 H157 0.929 . S
C102 C98 1.356 . S
C102 C99 1.358 . S
C102 H158 0.930 . S
C103 N100 1.314 . S
C103 C101 1.353 . S
C103 H159 0.930 . S
C104 N105 1.314 1_655 S
C104 C109 1.353 . S
C104 H110 0.930 . S
N105 Li88 1.990 . S
N105 C104 1.314 1_455 S
N105 C107 1.279 . S
C106 C107 1.358 . S
C106 C108 1.356 . S
C106 H160 0.930 . S
C107 N105 1.279 . S
C107 C106 1.358 . S
C107 H111 0.930 . S
C108 C106 1.356 . S
C108 C109 1.348 1_455 S
C109 C104 1.353 . S
C109 C108 1.348 1_655 S
C109 H161 0.929 . S
H110 C104 0.930 . S
H111 C107 0.930 . S
C112 N113 1.314 . S
C112 C114 1.353 . S
C112 H118 0.930 . S
N113 Li89 1.990 . S
N113 C112 1.314 . S
N113 C116 1.279 . S
C114 C112 1.353 . S
C114 C117 1.348 . S
C114 H162 0.929 . S
C115 C116 1.358 . S
C115 C117 1.356 . S
C115 H163 0.930 . S
C116 N113 1.279 . S
C116 C115 1.358 . S
C116 H119 0.930 . S
C117 C114 1.348 . S
C117 C115 1.356 . S
H118 C112 0.930 . S
H119 C116 0.930 . S
C120 C122 1.348 . S
C120 C123 1.356 . S
C120 O150 1.325 . S
N121 C124 1.314 . S
N121 C125 1.279 . S
C122 C120 1.348 . S
C122 C124 1.353 . S
C122 H164 0.929 . S
C123 C120 1.356 . S
C123 C125 1.358 . S
C123 H165 0.930 . S
C124 N121 1.314 . S
C124 C122 1.353 . S
C124 H166 0.930 . S
C125 N121 1.279 . S
C125 C123 1.358 . S
C125 H167 0.930 . S
C126 C127 1.348 . S
C126 C128 1.356 1_655 S
C126 O151 1.325 . S
C127 C126 1.348 . S
C127 C129 1.353 . S
C127 H168 0.929 . S
C128 C126 1.356 1_455 S
C128 C130 1.358 . S
C128 H169 0.930 . S
C129 C127 1.353 . S
C129 N131 1.314 . S
C129 H170 0.930 . S
C130 C128 1.358 . S
C130 N131 1.279 1_455 S
C130 H171 0.932 . S
N131 C129 1.314 . S
N131 C130 1.279 1_655 S
C132 C134 1.353 . S
C132 N135 1.314 1_455 S
C132 H138 0.930 . S
C133 N135 1.279 . S
C133 C136 1.358 . S
C133 H139 0.930 . S
C134 C132 1.353 . S
C134 C137 1.348 1_455 S
C134 H172 0.929 . S
N135 Li90 1.990 . S
N135 C132 1.314 1_655 S
N135 C133 1.279 . S
C136 C133 1.358 . S
C136 C137 1.356 . S
C136 H173 0.930 . S
C137 C134 1.348 1_655 S
C137 C136 1.356 . S
H138 C132 0.930 . S
H139 C133 0.930 . S
C140 N141 1.314 . S
C140 C142 1.353 . S
C140 H146 0.930 . S
N141 Li91 1.990 . S
N141 C140 1.314 . S
N141 C144 1.279 . S
C142 C140 1.353 . S
C142 C145 1.348 . S
C142 H174 0.929 . S
C143 C144 1.358 . S
C143 C145 1.356 . S
C143 H175 0.930 . S
C144 N141 1.279 . S
C144 C143 1.358 . S
C144 H147 0.930 . S
C145 C142 1.348 . S
C145 C143 1.356 . S
H146 C140 0.930 . S
H147 C144 0.930 . S
O148 Li88 1.956 . S
O148 Li89 1.970 . S
O148 Li90 1.961 1_455 S
O148 C92 1.325 . S
O149 Li88 1.970 . S
O149 Li89 1.956 . S
O149 Li91 1.961 1_455 S
O149 C98 1.325 . S
O150 Li88 1.961 1_655 S
O150 Li90 1.956 . S
O150 Li91 1.970 . S
O150 C120 1.325 . S
O151 Li89 1.961 1_655 S
O151 Li90 1.970 . S
O151 Li91 1.956 . S
O151 C126 1.325 . S
H152 C94 0.929 . S
H153 C95 0.930 . S
H154 C96 0.930 . S
H155 C97 0.930 . S
H156 C99 0.930 . S
H157 C101 0.929 . S
H158 C102 0.930 . S
H159 C103 0.930 . S
H160 C106 0.930 . S
H161 C109 0.929 . S
H162 C114 0.929 . S
H163 C115 0.930 . S
H164 C122 0.929 . S
H165 C123 0.930 . S
H166 C124 0.930 . S
H167 C125 0.930 . S
H168 C127 0.929 . S
H169 C128 0.930 . S
H170 C129 0.930 . S
H171 C130 0.932 . S
H172 C134 0.929 . S
H173 C136 0.930 . S
H174 C142 0.929 . S
H175 C143 0.930 . S
Li176 N193 1.990 . S
Li176 O236 1.956 . S
Li176 O237 1.970 . S
Li176 O238 1.961 . S
Li177 N201 1.990 . S
Li177 O236 1.970 . S
Li177 O237 1.956 . S
Li177 O239 1.961 . S
Li178 N223 1.990 . S
Li178 O236 1.961 . S
Li178 O238 1.956 . S
Li178 O239 1.970 . S
Li179 N229 1.990 . S
Li179 O237 1.961 . S
Li179 O238 1.970 . S
Li179 O239 1.956 . S
C180 C182 1.348 . S
C180 C183 1.356 . S
C180 O236 1.325 . S
N181 C184 1.314 . S
N181 C185 1.279 . S
C182 C180 1.348 . S
C182 C184 1.353 . S
C182 H240 0.929 . S
C183 C180 1.356 . S
C183 C185 1.358 . S
C183 H241 0.930 . S
C184 N181 1.314 . S
C184 C182 1.353 . S
C184 H242 0.930 . S
C185 N181 1.279 . S
C185 C183 1.358 . S
C185 H243 0.930 . S
C186 C189 1.348 . S
C186 C190 1.356 . S
C186 O237 1.325 . S
C187 N188 1.279 . S
C187 C190 1.358 . S
C187 H244 0.930 1_556 S
N188 C187 1.279 . S
N188 C191 1.314 . S
C189 C186 1.348 . S
C189 C191 1.353 . S
C189 H245 0.929 . S
C190 C186 1.356 . S
C190 C187 1.358 . S
C190 H246 0.930 . S
C191 N188 1.314 . S
C191 C189 1.353 . S
C191 H247 0.930 . S
C192 N193 1.314 . S
C192 C197 1.353 . S
C192 H198 0.930 . S
N193 Li176 1.990 . S
N193 C192 1.314 . S
N193 C195 1.279 . S
C194 C195 1.358 . S
C194 C196 1.356 . S
C194 H248 0.930 . S
C195 N193 1.279 . S
C195 C194 1.358 . S
C195 H199 0.930 . S
C196 C194 1.356 . S
C196 C197 1.348 . S
C197 C192 1.353 . S
C197 C196 1.348 . S
C197 H249 0.929 . S
H198 C192 0.930 . S
H199 C195 0.930 . S
C200 N201 1.314 . S
C200 C202 1.353 . S
C200 H206 0.930 . S
N201 Li177 1.990 . S
N201 C200 1.314 . S
N201 C204 1.279 . S
C202 C200 1.353 . S
C202 C205 1.348 1_565 S
C202 H250 0.929 1_565 S
C203 C204 1.358 . S
C203 C205 1.356 1_565 S
C203 H251 0.928 1_556 S
C204 N201 1.279 . S
C204 C203 1.358 . S
C204 H207 0.930 . S
C205 C202 1.348 1_545 S
C205 C203 1.356 1_545 S
H206 C200 0.930 . S
H207 C204 0.930 . S
C208 C210 1.348 . S
C208 C211 1.356 . S
C208 O238 1.325 . S
N209 C212 1.314 . S
N209 C213 1.279 . S
C210 C208 1.348 . S
C210 C212 1.353 . S
C210 H252 0.929 . S
C211 C208 1.356 . S
C211 C213 1.358 . S
C211 H253 0.930 . S
C212 N209 1.314 . S
C212 C210 1.353 . S
C212 H254 0.930 . S
C213 N209 1.279 . S
C213 C211 1.358 . S
C213 H255 0.930 . S
C214 C215 1.348 . S
C214 C216 1.356 . S
C214 O239 1.325 . S
C215 C214 1.348 . S
C215 C217 1.353 . S
C215 H256 0.929 . S
C216 C214 1.356 . S
C216 C218 1.358 . S
C216 H257 0.930 . S
C217 C215 1.353 . S
C217 N219 1.314 . S
C217 H258 0.930 . S
C218 C216 1.358 . S
C218 N219 1.279 . S
C218 H259 0.930 1_556 S
N219 C217 1.314 . S
N219 C218 1.279 . S
C220 C222 1.353 . S
C220 N223 1.314 . S
C220 H226 0.930 . S
C221 N223 1.279 . S
C221 C224 1.358 . S
C221 H227 0.930 . S
C222 C220 1.353 . S
C222 C225 1.348 . S
C222 H260 0.929 . S
N223 Li178 1.990 . S
N223 C220 1.314 . S
N223 C221 1.279 . S
C224 C221 1.358 . S
C224 C225 1.356 . S
C224 H261 0.930 . S
C225 C222 1.348 . S
C225 C224 1.356 . S
H226 C220 0.930 . S
H227 C221 0.930 . S
C228 N229 1.314 . S
C228 C230 1.353 . S
C228 H234 0.930 . S
N229 Li179 1.990 . S
N229 C228 1.314 . S
N229 C232 1.279 . S
C230 C228 1.353 . S
C230 C233 1.348 . S
C230 H262 0.929 . S
C231 C232 1.358 . S
C231 C233 1.356 . S
C231 H263 0.930 . S
C232 N229 1.279 . S
C232 C231 1.358 . S
C232 H235 0.930 . S
C233 C230 1.348 . S
C233 C231 1.356 . S
H234 C228 0.930 . S
H235 C232 0.930 . S
O236 Li176 1.956 . S
O236 Li177 1.970 . S
O236 Li178 1.961 . S
O236 C180 1.325 . S
O237 Li176 1.970 . S
O237 Li177 1.956 . S
O237 Li179 1.961 . S
O237 C186 1.325 . S
O238 Li176 1.961 . S
O238 Li178 1.956 . S
O238 Li179 1.970 . S
O238 C208 1.325 . S
O239 Li177 1.961 . S
O239 Li178 1.970 . S
O239 Li179 1.956 . S
O239 C214 1.325 . S
H240 C182 0.929 . S
H241 C183 0.930 . S
H242 C184 0.930 . S
H243 C185 0.930 . S
H244 C187 0.930 1_554 S
H245 C189 0.929 . S
H246 C190 0.930 . S
H247 C191 0.930 . S
H248 C194 0.930 . S
H249 C197 0.929 . S
H250 C202 0.929 1_545 S
H251 C203 0.928 1_554 S
H252 C210 0.929 . S
H253 C211 0.930 . S
H254 C212 0.930 . S
H255 C213 0.930 . S
H256 C215 0.929 . S
H257 C216 0.930 . S
H258 C217 0.930 . S
H259 C218 0.930 1_554 S
H260 C222 0.929 . S
H261 C224 0.930 . S
H262 C230 0.929 . S
H263 C231 0.930 . S
Li264 N281 1.990 . S
Li264 O324 1.956 . S
Li264 O325 1.970 . S
Li264 O326 1.961 . S
Li265 N289 1.990 . S
Li265 O324 1.970 . S
Li265 O325 1.956 . S
Li265 O327 1.961 . S
Li266 N311 1.990 . S
Li266 O324 1.961 . S
Li266 O326 1.956 . S
Li266 O327 1.970 . S
Li267 N317 1.990 . S
Li267 O325 1.961 . S
Li267 O326 1.970 . S
Li267 O327 1.956 . S
C268 C270 1.348 . S
C268 C271 1.356 . S
C268 O324 1.325 . S
N269 C272 1.314 . S
N269 C273 1.279 . S
C270 C268 1.348 . S
C270 C272 1.353 . S
C270 H328 0.929 . S
C271 C268 1.356 . S
C271 C273 1.358 . S
C271 H329 0.930 . S
C272 N269 1.314 . S
C272 C270 1.353 . S
C272 H330 0.930 . S
C273 N269 1.279 . S
C273 C271 1.358 . S
C273 H331 0.930 . S
C274 C277 1.348 . S
C274 C278 1.356 . S
C274 O325 1.325 . S
C275 N276 1.279 . S
C275 C278 1.358 . S
C275 H332 0.930 . S
N276 C275 1.279 . S
N276 C279 1.314 . S
C277 C274 1.348 . S
C277 C279 1.353 . S
C277 H333 0.929 . S
C278 C274 1.356 . S
C278 C275 1.358 . S
C278 H334 0.930 . S
C279 N276 1.314 . S
C279 C277 1.353 . S
C279 H335 0.930 . S
C280 N281 1.314 . S
C280 C285 1.353 . S
C280 H286 0.930 . S
N281 Li264 1.990 . S
N281 C280 1.314 . S
N281 C283 1.279 . S
C282 C283 1.358 . S
C282 C284 1.356 . S
C282 H336 0.930 . S
C283 N281 1.279 . S
C283 C282 1.358 . S
C283 H287 0.930 . S
C284 C282 1.356 . S
C284 C285 1.348 . S
C285 C280 1.353 . S
C285 C284 1.348 . S
C285 H337 0.929 . S
H286 C280 0.930 . S
H287 C283 0.930 . S
C288 N289 1.314 . S
C288 C290 1.353 . S
C288 H294 0.930 . S
N289 Li265 1.990 . S
N289 C288 1.314 . S
N289 C292 1.279 . S
C290 C288 1.353 . S
C290 C293 1.348 . S
C290 H338 0.929 . S
C291 C292 1.358 . S
C291 C293 1.356 . S
C291 H339 0.930 . S
C292 N289 1.279 . S
C292 C291 1.358 . S
C292 H295 0.930 . S
C293 C290 1.348 . S
C293 C291 1.356 . S
H294 C288 0.930 . S
H295 C292 0.930 . S
C296 C298 1.348 . S
C296 C299 1.356 . S
C296 O326 1.325 . S
N297 C300 1.314 . S
N297 C301 1.279 . S
C298 C296 1.348 . S
C298 C300 1.353 . S
C298 H340 0.929 . S
C299 C296 1.356 . S
C299 C301 1.358 . S
C299 H341 0.930 . S
C300 N297 1.314 . S
C300 C298 1.353 . S
C300 H342 0.930 . S
C301 N297 1.279 . S
C301 C299 1.358 . S
C301 H343 0.930 . S
C302 C303 1.348 . S
C302 C304 1.356 . S
C302 O327 1.325 . S
C303 C302 1.348 . S
C303 C305 1.353 . S
C303 H344 0.929 . S
C304 C302 1.356 . S
C304 C306 1.358 . S
C304 H345 0.930 . S
C305 C303 1.353 . S
C305 N307 1.314 . S
C305 H346 0.930 . S
C306 C304 1.358 . S
C306 N307 1.279 . S
C306 H347 0.930 . S
N307 C305 1.314 . S
N307 C306 1.279 . S
C308 C310 1.353 . S
C308 N311 1.314 . S
C308 H314 0.930 . S
C309 N311 1.279 . S
C309 C312 1.358 . S
C309 H315 0.930 . S
C310 C308 1.353 . S
C310 C313 1.348 . S
C310 H348 0.929 . S
N311 Li266 1.990 . S
N311 C308 1.314 . S
N311 C309 1.279 . S
C312 C309 1.358 . S
C312 C313 1.356 . S
C312 H349 0.930 . S
C313 C310 1.348 . S
C313 C312 1.356 . S
H314 C308 0.930 . S
H315 C309 0.930 . S
C316 N317 1.314 . S
C316 C318 1.353 . S
C316 H322 0.930 . S
N317 Li267 1.990 . S
N317 C316 1.314 . S
N317 C320 1.279 . S
C318 C316 1.353 . S
C318 C321 1.348 . S
C318 H350 0.929 . S
C319 C320 1.358 . S
C319 C321 1.356 . S
C319 H351 0.930 . S
C320 N317 1.279 . S
C320 C319 1.358 . S
C320 H323 0.930 . S
C321 C318 1.348 . S
C321 C319 1.356 . S
H322 C316 0.930 . S
H323 C320 0.930 . S
O324 Li264 1.956 . S
O324 Li265 1.970 . S
O324 Li266 1.961 . S
O324 C268 1.325 . S
O325 Li264 1.970 . S
O325 Li265 1.956 . S
O325 Li267 1.961 . S
O325 C274 1.325 . S
O326 Li264 1.961 . S
O326 Li266 1.956 . S
O326 Li267 1.970 . S
O326 C296 1.325 . S
O327 Li265 1.961 . S
O327 Li266 1.970 . S
O327 Li267 1.956 . S
O327 C302 1.325 . S
H328 C270 0.929 . S
H329 C271 0.930 . S
H330 C272 0.930 . S
H331 C273 0.930 . S
H332 C275 0.930 . S
H333 C277 0.929 . S
H334 C278 0.930 . S
H335 C279 0.930 . S
H336 C282 0.930 . S
H337 C285 0.929 . S
H338 C290 0.929 . S
H339 C291 0.930 . S
H340 C298 0.929 . S
H341 C299 0.930 . S
H342 C300 0.930 . S
H343 C301 0.930 . S
H344 C303 0.929 . S
H345 C304 0.930 . S
H346 C305 0.930 . S
H347 C306 0.930 . S
H348 C310 0.929 . S
H349 C312 0.930 . S
H350 C318 0.929 . S
H351 C319 0.930 . S
Li352 N369 1.990 . S
Li352 O412 1.956 . S
Li352 O413 1.970 . S
Li352 O414 1.961 . S
Li353 N377 1.990 . S
Li353 O412 1.970 . S
Li353 O413 1.956 . S
Li353 O415 1.961 . S
Li354 N399 1.990 . S
Li354 O412 1.961 . S
Li354 O414 1.956 . S
Li354 O415 1.970 . S
Li355 N405 1.990 . S
Li355 O413 1.961 . S
Li355 O414 1.970 . S
Li355 O415 1.956 . S
C356 C358 1.348 . S
C356 C359 1.356 . S
C356 O412 1.325 . S
N357 C360 1.314 . S
N357 C361 1.279 1_554 S
C358 C356 1.348 . S
C358 C360 1.353 . S
C358 H416 0.929 . S
C359 C356 1.356 . S
C359 C361 1.358 1_554 S
C359 H417 0.930 . S
C360 N357 1.314 . S
C360 C358 1.353 . S
C360 H418 0.930 . S
C361 N357 1.279 1_556 S
C361 C359 1.358 1_556 S
C361 H419 0.930 . S
C362 C365 1.348 . S
C362 C366 1.356 . S
C362 O413 1.325 . S
C363 N364 1.279 . S
C363 C366 1.358 . S
C363 H420 0.930 . S
N364 C363 1.279 . S
N364 C367 1.314 . S
C365 C362 1.348 . S
C365 C367 1.353 . S
C365 H421 0.929 . S
C366 C362 1.356 . S
C366 C363 1.358 . S
C366 H422 0.930 . S
C367 N364 1.314 . S
C367 C365 1.353 . S
C367 H423 0.930 . S
C368 N369 1.314 . S
C368 C373 1.353 . S
C368 H374 0.930 . S
N369 Li352 1.990 . S
N369 C368 1.314 . S
N369 C371 1.279 . S
C370 C371 1.358 . S
C370 C372 1.356 . S
C370 H424 0.930 . S
C371 N369 1.279 . S
C371 C370 1.358 . S
C371 H375 0.930 . S
C372 C370 1.356 . S
C372 C373 1.348 . S
C373 C368 1.353 . S
C373 C372 1.348 . S
C373 H425 0.929 . S
H374 C368 0.930 . S
H375 C371 0.930 . S
C376 N377 1.314 . S
C376 C378 1.353 . S
C376 H382 0.930 . S
N377 Li353 1.990 . S
N377 C376 1.314 . S
N377 C380 1.279 . S
C378 C376 1.353 . S
C378 C381 1.348 . S
C378 H426 0.929 . S
C379 C380 1.358 . S
C379 C381 1.356 . S
C379 H427 0.930 . S
C380 N377 1.279 . S
C380 C379 1.358 . S
C380 H383 0.930 . S
C381 C378 1.348 . S
C381 C379 1.356 . S
H382 C376 0.930 . S
H383 C380 0.930 . S
C384 C386 1.348 . S
C384 C387 1.356 . S
C384 O414 1.325 . S
N385 C388 1.314 1_556 S
N385 C389 1.279 . S
C386 C384 1.348 . S
C386 C388 1.353 . S
C386 H428 0.929 . S
C387 C384 1.356 . S
C387 C389 1.358 1_554 S
C387 H429 0.930 . S
C388 N385 1.314 1_554 S
C388 C386 1.353 . S
C388 H430 0.930 1_455 S
C389 N385 1.279 . S
C389 C387 1.358 1_556 S
C389 H431 0.930 . S
C390 C391 1.348 . S
C390 C392 1.356 . S
C390 O415 1.325 . S
C391 C390 1.348 . S
C391 C393 1.353 . S
C391 H432 0.929 . S
C392 C390 1.356 . S
C392 C394 1.358 . S
C392 H433 0.930 . S
C393 C391 1.353 . S
C393 N395 1.314 . S
C393 H434 0.930 . S
C394 C392 1.358 . S
C394 N395 1.279 . S
C394 H435 0.930 . S
N395 C393 1.314 . S
N395 C394 1.279 . S
C396 C398 1.353 . S
C396 N399 1.314 . S
C396 H402 0.930 . S
C397 N399 1.279 . S
C397 C400 1.358 1_554 S
C397 H403 0.930 . S
C398 C396 1.353 . S
C398 C401 1.348 1_554 S
C398 H436 0.929 1_554 S
N399 Li354 1.990 . S
N399 C396 1.314 . S
N399 C397 1.279 . S
C400 C397 1.358 1_556 S
C400 C401 1.356 . S
C400 H437 0.930 . S
C401 C398 1.348 1_556 S
C401 C400 1.356 . S
H402 C396 0.930 . S
H403 C397 0.930 . S
C404 N405 1.314 . S
C404 C406 1.353 . S
C404 H410 0.930 . S
N405 Li355 1.990 . S
N405 C404 1.314 . S
N405 C408 1.279 . S
C406 C404 1.353 . S
C406 C409 1.348 . S
C406 H438 0.929 . S
C407 C408 1.358 . S
C407 C409 1.356 . S
C407 H439 0.930 . S
C408 N405 1.279 . S
C408 C407 1.358 . S
C408 H411 0.930 . S
C409 C406 1.348 . S
C409 C407 1.356 . S
H410 C404 0.930 . S
H411 C408 0.930 . S
O412 Li352 1.956 . S
O412 Li353 1.970 . S
O412 Li354 1.961 . S
O412 C356 1.325 . S
O413 Li352 1.970 . S
O413 Li353 1.956 . S
O413 Li355 1.961 . S
O413 C362 1.325 . S
O414 Li352 1.961 . S
O414 Li354 1.956 . S
O414 Li355 1.970 . S
O414 C384 1.325 . S
O415 Li353 1.961 . S
O415 Li354 1.970 . S
O415 Li355 1.956 . S
O415 C390 1.325 . S
H416 C358 0.929 . S
H417 C359 0.930 . S
H418 C360 0.930 . S
H419 C361 0.930 . S
H420 C363 0.930 . S
H421 C365 0.929 . S
H422 C366 0.930 . S
H423 C367 0.930 . S
H424 C370 0.930 . S
H425 C373 0.929 . S
H426 C378 0.929 . S
H427 C379 0.930 . S
H428 C386 0.929 . S
H429 C387 0.930 . S
H430 C388 0.930 1_655 S
H431 C389 0.930 . S
H432 C391 0.929 . S
H433 C392 0.930 . S
H434 C393 0.930 . S
H435 C394 0.930 . S
H436 C398 0.929 1_556 S
H437 C400 0.930 . S
H438 C406 0.929 . S
H439 C407 0.930 . S
Li440 N457 1.990 . S
Li440 O500 1.956 . S
Li440 O501 1.970 . S
Li440 O502 1.961 . S
Li441 N465 1.990 . S
Li441 O500 1.970 . S
Li441 O501 1.956 . S
Li441 O503 1.961 . S
Li442 N487 1.990 . S
Li442 O500 1.961 . S
Li442 O502 1.956 . S
Li442 O503 1.970 . S
Li443 N493 1.990 . S
Li443 O501 1.961 . S
Li443 O502 1.970 . S
Li443 O503 1.956 . S
C444 C446 1.348 . S
C444 C447 1.356 . S
C444 O500 1.325 . S
N445 C448 1.314 . S
N445 C449 1.279 . S
C446 C444 1.348 . S
C446 C448 1.353 . S
C446 H504 0.929 . S
C447 C444 1.356 . S
C447 C449 1.358 . S
C447 H505 0.930 . S
C448 N445 1.314 . S
C448 C446 1.353 . S
C448 H506 0.930 . S
C449 N445 1.279 . S
C449 C447 1.358 . S
C449 H507 0.930 . S
C450 C453 1.348 . S
C450 C454 1.356 . S
C450 O501 1.325 . S
C451 N452 1.279 . S
C451 C454 1.358 . S
C451 H508 0.930 . S
N452 C451 1.279 . S
N452 C455 1.314 . S
C453 C450 1.348 . S
C453 C455 1.353 . S
C453 H509 0.929 . S
C454 C450 1.356 . S
C454 C451 1.358 . S
C454 H510 0.930 . S
C455 N452 1.314 . S
C455 C453 1.353 . S
C455 H511 0.930 . S
C456 N457 1.314 . S
C456 C461 1.353 . S
C456 H462 0.930 . S
N457 Li440 1.990 . S
N457 C456 1.314 . S
N457 C459 1.279 . S
C458 C459 1.358 . S
C458 C460 1.356 . S
C458 H512 0.930 . S
C459 N457 1.279 . S
C459 C458 1.358 . S
C459 H463 0.930 . S
C460 C458 1.356 . S
C460 C461 1.348 . S
C461 C456 1.353 . S
C461 C460 1.348 . S
C461 H513 0.929 . S
H462 C456 0.930 . S
H463 C459 0.930 . S
C464 N465 1.314 . S
C464 C466 1.353 . S
C464 H470 0.930 . S
N465 Li441 1.990 . S
N465 C464 1.314 . S
N465 C468 1.279 . S
C466 C464 1.353 . S
C466 C469 1.348 . S
C466 H514 0.929 . S
C467 C468 1.358 . S
C467 C469 1.356 . S
C467 H515 0.930 . S
C468 N465 1.279 . S
C468 C467 1.358 . S
C468 H471 0.930 . S
C469 C466 1.348 . S
C469 C467 1.356 . S
H470 C464 0.930 . S
H471 C468 0.930 . S
C472 C474 1.348 . S
C472 C475 1.356 . S
C472 O502 1.325 . S
N473 C476 1.314 . S
N473 C477 1.279 . S
C474 C472 1.348 . S
C474 C476 1.353 . S
C474 H516 0.929 . S
C475 C472 1.356 . S
C475 C477 1.358 . S
C475 H517 0.930 . S
C476 N473 1.314 . S
C476 C474 1.353 . S
C476 H518 0.930 . S
C477 N473 1.279 . S
C477 C475 1.358 . S
C477 H519 0.930 . S
C478 C479 1.348 . S
C478 C480 1.356 . S
C478 O503 1.325 . S
C479 C478 1.348 . S
C479 C481 1.353 . S
C479 H520 0.929 . S
C480 C478 1.356 . S
C480 C482 1.358 . S
C480 H521 0.930 . S
C481 C479 1.353 . S
C481 N483 1.314 . S
C481 H522 0.930 . S
C482 C480 1.358 . S
C482 N483 1.279 . S
C482 H523 0.930 . S
N483 C481 1.314 . S
N483 C482 1.279 . S
C484 C486 1.353 . S
C484 N487 1.314 . S
C484 H490 0.930 . S
C485 N487 1.279 . S
C485 C488 1.358 . S
C485 H491 0.930 . S
C486 C484 1.353 . S
C486 C489 1.348 . S
C486 H524 0.929 . S
N487 Li442 1.990 . S
N487 C484 1.314 . S
N487 C485 1.279 . S
C488 C485 1.358 . S
C488 C489 1.356 . S
C488 H525 0.930 . S
C489 C486 1.348 . S
C489 C488 1.356 . S
H490 C484 0.930 . S
H491 C485 0.930 . S
C492 N493 1.314 . S
C492 C494 1.353 . S
C492 H498 0.930 . S
N493 Li443 1.990 . S
N493 C492 1.314 . S
N493 C496 1.279 . S
C494 C492 1.353 . S
C494 C497 1.348 . S
C494 H526 0.929 . S
C495 C496 1.358 . S
C495 C497 1.356 . S
C495 H527 0.930 . S
C496 N493 1.279 . S
C496 C495 1.358 . S
C496 H499 0.930 . S
C497 C494 1.348 . S
C497 C495 1.356 . S
H498 C492 0.930 . S
H499 C496 0.930 . S
O500 Li440 1.956 . S
O500 Li441 1.970 . S
O500 Li442 1.961 . S
O500 C444 1.325 . S
O501 Li440 1.970 . S
O501 Li441 1.956 . S
O501 Li443 1.961 . S
O501 C450 1.325 . S
O502 Li440 1.961 . S
O502 Li442 1.956 . S
O502 Li443 1.970 . S
O502 C472 1.325 . S
O503 Li441 1.961 . S
O503 Li442 1.970 . S
O503 Li443 1.956 . S
O503 C478 1.325 . S
H504 C446 0.929 . S
H505 C447 0.930 . S
H506 C448 0.930 . S
H507 C449 0.930 . S
H508 C451 0.930 . S
H509 C453 0.929 . S
H510 C454 0.930 . S
H511 C455 0.930 . S
H512 C458 0.930 . S
H513 C461 0.929 . S
H514 C466 0.929 . S
H515 C467 0.930 . S
H516 C474 0.929 . S
H517 C475 0.930 . S
H518 C476 0.930 . S
H519 C477 0.930 . S
H520 C479 0.929 . S
H521 C480 0.930 . S
H522 C481 0.930 . S
H523 C482 0.930 . S
H524 C486 0.929 . S
H525 C488 0.930 . S
H526 C494 0.929 . S
H527 C495 0.930 . S
Li528 N545 1.990 . S
Li528 O588 1.956 . S
Li528 O589 1.970 . S
Li528 O590 1.961 . S
Li529 N553 1.990 . S
Li529 O588 1.970 . S
Li529 O589 1.956 . S
Li529 O591 1.961 . S
Li530 N575 1.990 . S
Li530 O588 1.961 . S
Li530 O590 1.956 . S
Li530 O591 1.970 . S
Li531 N581 1.990 . S
Li531 O589 1.961 . S
Li531 O590 1.970 . S
Li531 O591 1.956 . S
C532 C534 1.348 . S
C532 C535 1.356 . S
C532 O588 1.325 . S
N533 C536 1.314 . S
N533 C537 1.279 . S
C534 C532 1.348 . S
C534 C536 1.353 . S
C534 H592 0.929 . S
C535 C532 1.356 . S
C535 C537 1.358 . S
C535 H593 0.930 . S
C536 N533 1.314 . S
C536 C534 1.353 . S
C536 H594 0.930 . S
C537 N533 1.279 . S
C537 C535 1.358 . S
C537 H595 0.930 . S
C538 C541 1.348 . S
C538 C542 1.356 . S
C538 O589 1.325 . S
C539 N540 1.279 . S
C539 C542 1.358 . S
C539 H596 0.930 . S
N540 C539 1.279 . S
N540 C543 1.314 . S
C541 C538 1.348 . S
C541 C543 1.353 . S
C541 H597 0.929 . S
C542 C538 1.356 . S
C542 C539 1.358 . S
C542 H598 0.930 . S
C543 N540 1.314 . S
C543 C541 1.353 . S
C543 H599 0.930 . S
C544 N545 1.314 . S
C544 C549 1.353 . S
C544 H550 0.930 . S
N545 Li528 1.990 . S
N545 C544 1.314 . S
N545 C547 1.279 . S
C546 C547 1.358 . S
C546 C548 1.356 . S
C546 H600 0.930 . S
C547 N545 1.279 . S
C547 C546 1.358 . S
C547 H551 0.930 . S
C548 C546 1.356 . S
C548 C549 1.348 . S
C549 C544 1.353 . S
C549 C548 1.348 . S
C549 H601 0.929 . S
H550 C544 0.930 . S
H551 C547 0.930 . S
C552 N553 1.314 . S
C552 C554 1.353 . S
C552 H558 0.930 . S
N553 Li529 1.990 . S
N553 C552 1.314 . S
N553 C556 1.279 . S
C554 C552 1.353 . S
C554 C557 1.348 . S
C554 H602 0.929 . S
C555 C556 1.358 . S
C555 C557 1.356 . S
C555 H603 0.930 . S
C556 N553 1.279 . S
C556 C555 1.358 . S
C556 H559 0.930 . S
C557 C554 1.348 . S
C557 C555 1.356 . S
H558 C552 0.930 . S
H559 C556 0.930 . S
C560 C562 1.348 . S
C560 C563 1.356 . S
C560 O590 1.325 . S
N561 C564 1.314 . S
N561 C565 1.279 . S
C562 C560 1.348 . S
C562 C564 1.353 . S
C562 H604 0.929 . S
C563 C560 1.356 . S
C563 C565 1.358 . S
C563 H605 0.930 . S
C564 N561 1.314 . S
C564 C562 1.353 . S
C564 H606 0.930 . S
C565 N561 1.279 . S
C565 C563 1.358 . S
C565 H607 0.930 . S
C566 C567 1.348 . S
C566 C568 1.356 . S
C566 O591 1.325 . S
C567 C566 1.348 . S
C567 C569 1.353 . S
C567 H608 0.929 . S
C568 C566 1.356 . S
C568 C570 1.358 . S
C568 H609 0.930 . S
C569 C567 1.353 . S
C569 N571 1.314 . S
C569 H610 0.930 . S
C570 C568 1.358 . S
C570 N571 1.279 . S
C570 H611 0.930 . S
N571 C569 1.314 . S
N571 C570 1.279 . S
C572 C574 1.353 . S
C572 N575 1.314 . S
C572 H578 0.930 . S
C573 N575 1.279 . S
C573 C576 1.358 . S
C573 H579 0.930 . S
C574 C572 1.353 . S
C574 C577 1.348 . S
C574 H612 0.929 . S
N575 Li530 1.990 . S
N575 C572 1.314 . S
N575 C573 1.279 . S
C576 C573 1.358 . S
C576 C577 1.356 . S
C576 H613 0.930 . S
C577 C574 1.348 . S
C577 C576 1.356 . S
H578 C572 0.930 . S
H579 C573 0.930 . S
C580 N581 1.314 . S
C580 C582 1.353 . S
C580 H586 0.930 . S
N581 Li531 1.990 . S
N581 C580 1.314 . S
N581 C584 1.279 . S
C582 C580 1.353 . S
C582 C585 1.348 . S
C582 H614 0.929 . S
C583 C584 1.358 . S
C583 C585 1.356 . S
C583 H615 0.930 . S
C584 N581 1.279 . S
C584 C583 1.358 . S
C584 H587 0.930 . S
C585 C582 1.348 . S
C585 C583 1.356 . S
H586 C580 0.930 . S
H587 C584 0.930 . S
O588 Li528 1.956 . S
O588 Li529 1.970 . S
O588 Li530 1.961 . S
O588 C532 1.325 . S
O589 Li528 1.970 . S
O589 Li529 1.956 . S
O589 Li531 1.961 . S
O589 C538 1.325 . S
O590 Li528 1.961 . S
O590 Li530 1.956 . S
O590 Li531 1.970 . S
O590 C560 1.325 . S
O591 Li529 1.961 . S
O591 Li530 1.970 . S
O591 Li531 1.956 . S
O591 C566 1.325 . S
H592 C534 0.929 . S
H593 C535 0.930 . S
H594 C536 0.930 . S
H595 C537 0.930 . S
H596 C539 0.930 . S
H597 C541 0.929 . S
H598 C542 0.930 . S
H599 C543 0.930 . S
H600 C546 0.930 . S
H601 C549 0.929 . S
H602 C554 0.929 . S
H603 C555 0.930 . S
H604 C562 0.929 . S
H605 C563 0.930 . S
H606 C564 0.930 . S
H607 C565 0.930 . S
H608 C567 0.929 . S
H609 C568 0.930 . S
H610 C569 0.930 . S
H611 C570 0.930 . S
H612 C574 0.929 . S
H613 C576 0.930 . S
H614 C582 0.929 . S
H615 C583 0.930 . S
Li616 N633 1.990 1_556 S
Li616 O676 1.933 1_455 S
Li616 O677 1.970 . S
Li616 O678 1.961 . S
Li617 N641 2.005 . S
Li617 O676 1.969 . S
Li617 O677 1.945 1_655 S
Li617 O679 1.947 1_655 S
Li618 N663 1.990 . S
Li618 O676 1.930 1_455 S
Li618 O678 1.956 . S
Li618 O679 1.970 . S
Li619 N669 1.990 . S
Li619 O677 1.961 . S
Li619 O678 1.970 . S
Li619 O679 1.956 . S
C620 C622 1.348 . S
C620 C623 1.356 1_556 S
C620 O676 1.355 . S
N621 C624 1.314 1_554 S
N621 C625 1.279 . S
C622 C620 1.348 . S
C622 C624 1.353 . S
C622 H680 0.929 . S
C623 C620 1.356 1_554 S
C623 C625 1.358 . S
C623 H681 0.930 . S
C624 N621 1.314 1_556 S
C624 C622 1.353 . S
C624 H682 0.930 . S
C625 N621 1.279 . S
C625 C623 1.358 . S
C625 H683 0.930 . S
C626 C629 1.348 . S
C626 C630 1.356 . S
C626 O677 1.325 . S
C627 N628 1.279 . S
C627 C630 1.358 . S
C627 H684 0.930 . S
N628 C627 1.279 . S
N628 C631 1.314 . S
C629 C626 1.348 . S
C629 C631 1.353 . S
C629 H685 0.929 . S
C630 C626 1.356 . S
C630 C627 1.358 . S
C630 H686 0.930 . S
C631 N628 1.314 . S
C631 C629 1.353 . S
C631 H687 0.930 . S
C632 N633 1.314 . S
C632 C637 1.353 . S
C632 H638 0.930 . S
N633 Li616 1.990 1_554 S
N633 C632 1.314 . S
N633 C635 1.279 . S
C634 C635 1.358 . S
C634 C636 1.356 . S
C634 H688 0.930 . S
C635 N633 1.279 . S
C635 C634 1.358 . S
C635 H639 0.930 . S
C636 C634 1.356 . S
C636 C637 1.348 . S
C637 C632 1.353 . S
C637 C636 1.348 . S
C637 H689 0.929 . S
H638 C632 0.930 . S
H639 C635 0.930 . S
C640 N641 1.314 . S
C640 C642 1.353 . S
C640 H646 0.930 . S
N641 Li617 2.005 . S
N641 C640 1.314 . S
N641 C644 1.279 . S
C642 C640 1.353 . S
C642 C645 1.348 . S
C642 H690 0.929 . S
C643 C644 1.358 . S
C643 C645 1.356 . S
C643 H691 0.930 . S
C644 N641 1.279 . S
C644 C643 1.358 . S
C644 H647 0.930 . S
C645 C642 1.348 . S
C645 C643 1.356 . S
H646 C640 0.930 . S
H647 C644 0.930 . S
C648 C650 1.348 . S
C648 C651 1.356 1_556 S
C648 O678 1.325 . S
N649 C652 1.314 . S
N649 C653 1.279 . S
C650 C648 1.348 . S
C650 C652 1.353 1_556 S
C650 H692 0.929 . S
C651 C648 1.356 1_554 S
C651 C653 1.358 . S
C651 H693 0.930 . S
C652 N649 1.314 . S
C652 C650 1.353 1_554 S
C652 H694 0.927 1_554 S
C653 N649 1.279 . S
C653 C651 1.358 . S
C653 H695 0.930 . S
C654 C655 1.348 . S
C654 C656 1.356 . S
C654 O679 1.325 . S
C655 C654 1.348 . S
C655 C657 1.353 . S
C655 H696 0.929 . S
C656 C654 1.356 . S
C656 C658 1.358 . S
C656 H697 0.930 . S
C657 C655 1.353 . S
C657 N659 1.314 . S
C657 H698 0.930 . S
C658 C656 1.358 . S
C658 N659 1.279 . S
C658 H699 0.930 . S
N659 C657 1.314 . S
N659 C658 1.279 . S
C660 C662 1.354 1_456 S
C660 N663 1.332 . S
C660 H666 0.909 1_455 S
C661 N663 1.279 1_554 S
C661 C664 1.358 . S
C661 H667 0.930 . S
C662 C660 1.354 1_654 S
C662 C665 1.348 1_655 S
C662 H700 0.929 . S
N663 Li618 1.990 . S
N663 C660 1.332 . S
N663 C661 1.279 1_556 S
C664 C661 1.358 . S
C664 C665 1.356 . S
C664 H701 0.930 . S
C665 C662 1.348 1_455 S
C665 C664 1.356 . S
H666 C660 0.909 1_655 S
H667 C661 0.930 . S
C668 N669 1.314 . S
C668 C670 1.353 . S
C668 H674 0.930 . S
N669 Li619 1.990 . S
N669 C668 1.314 . S
N669 C672 1.279 . S
C670 C668 1.353 . S
C670 C673 1.348 . S
C670 H702 0.929 . S
C671 C672 1.358 . S
C671 C673 1.356 . S
C671 H703 0.930 . S
C672 N669 1.279 . S
C672 C671 1.358 . S
C672 H675 0.930 . S
C673 C670 1.348 . S
C673 C671 1.356 . S
H674 C668 0.930 . S
H675 C672 0.930 . S
O676 Li616 1.933 1_655 S
O676 Li617 1.969 . S
O676 Li618 1.930 1_655 S
O676 C620 1.355 . S
O677 Li616 1.970 . S
O677 Li617 1.945 1_455 S
O677 Li619 1.961 . S
O677 C626 1.325 . S
O678 Li616 1.961 . S
O678 Li618 1.956 . S
O678 Li619 1.970 . S
O678 C648 1.325 . S
O679 Li617 1.947 1_455 S
O679 Li618 1.970 . S
O679 Li619 1.956 . S
O679 C654 1.325 . S
H680 C622 0.929 . S
H681 C623 0.930 . S
H682 C624 0.930 . S
H683 C625 0.930 . S
H684 C627 0.930 . S
H685 C629 0.929 . S
H686 C630 0.930 . S
H687 C631 0.930 . S
H688 C634 0.930 . S
H689 C637 0.929 . S
H690 C642 0.929 . S
H691 C643 0.930 . S
H692 C650 0.929 . S
H693 C651 0.930 . S
H694 C652 0.927 1_556 S
H695 C653 0.930 . S
H696 C655 0.929 . S
H697 C656 0.930 . S
H698 C657 0.930 . S
H699 C658 0.930 . S
H700 C662 0.929 . S
H701 C664 0.930 . S
H702 C670 0.929 . S
H703 C671 0.930 . S
Li704 N721 1.990 . S
Li704 O764 1.956 1_545 S
Li704 O765 1.970 . S
Li704 O766 1.961 . S
Li705 N729 1.990 . S
Li705 O764 1.970 . S
Li705 O765 1.956 1_565 S
Li705 O767 1.961 . S
Li706 N751 1.990 . S
Li706 O764 1.961 1_545 S
Li706 O766 1.956 . S
Li706 O767 1.970 1_545 S
Li707 N757 1.990 . S
Li707 O765 1.961 . S
Li707 O766 1.970 . S
Li707 O767 1.956 1_545 S
C708 C710 1.348 . S
C708 C711 1.356 . S
C708 O764 1.325 . S
N709 C712 1.314 . S
N709 C713 1.279 . S
C710 C708 1.348 . S
C710 C712 1.353 . S
C710 H768 0.929 . S
C711 C708 1.356 . S
C711 C713 1.358 . S
C711 H769 0.930 . S
C712 N709 1.314 . S
C712 C710 1.353 . S
C712 H770 0.930 . S
C713 N709 1.279 . S
C713 C711 1.358 . S
C713 H771 0.930 . S
C714 C717 1.348 1_545 S
C714 C718 1.356 . S
C714 O765 1.325 . S
C715 N716 1.277 1_545 S
C715 C718 1.358 . S
C715 H772 0.930 . S
N716 C715 1.277 1_565 S
N716 C719 1.317 . S
C717 C714 1.348 1_565 S
C717 C719 1.353 . S
C717 H773 0.929 . S
C718 C714 1.356 . S
C718 C715 1.358 . S
C718 H774 0.930 . S
C719 N716 1.317 . S
C719 C717 1.353 . S
C719 H775 0.930 . S
C720 N721 1.314 . S
C720 C725 1.353 . S
C720 H726 0.930 . S
N721 Li704 1.990 . S
N721 C720 1.314 . S
N721 C723 1.279 1_545 S
C722 C723 1.358 1_545 S
C722 C724 1.356 . S
C722 H776 0.930 1_545 S
C723 N721 1.279 1_565 S
C723 C722 1.358 1_565 S
C723 H727 0.930 . S
C724 C722 1.356 . S
C724 C725 1.348 . S
C725 C720 1.353 . S
C725 C724 1.348 . S
C725 H777 0.929 . S
H726 C720 0.930 . S
H727 C723 0.930 . S
C728 N729 1.314 . S
C728 C730 1.353 . S
C728 H734 0.930 . S
N729 Li705 1.990 . S
N729 C728 1.314 . S
N729 C732 1.279 . S
C730 C728 1.353 . S
C730 C733 1.348 . S
C730 H778 0.929 . S
C731 C732 1.358 . S
C731 C733 1.356 . S
C731 H779 0.930 . S
C732 N729 1.279 . S
C732 C731 1.358 . S
C732 H735 0.930 . S
C733 C730 1.348 . S
C733 C731 1.356 . S
H734 C728 0.930 . S
H735 C732 0.930 . S
C736 C738 1.348 . S
C736 C739 1.356 . S
C736 O766 1.325 . S
N737 C740 1.314 . S
N737 C741 1.279 . S
C738 C736 1.348 . S
C738 C740 1.353 . S
C738 H780 0.929 . S
C739 C736 1.356 . S
C739 C741 1.358 . S
C739 H781 0.930 . S
C740 N737 1.314 . S
C740 C738 1.353 . S
C740 H782 0.930 . S
C741 N737 1.279 . S
C741 C739 1.358 . S
C741 H783 0.930 . S
C742 C743 1.348 . S
C742 C744 1.356 . S
C742 O767 1.325 . S
C743 C742 1.348 . S
C743 C745 1.353 . S
C743 H784 0.929 1_565 S
C744 C742 1.356 . S
C744 C746 1.358 . S
C744 H785 0.930 . S
C745 C743 1.353 . S
C745 N747 1.314 . S
C745 H786 0.930 . S
C746 C744 1.358 . S
C746 N747 1.279 . S
C746 H787 0.930 . S
N747 C745 1.314 . S
N747 C746 1.279 . S
C748 C750 1.353 . S
C748 N751 1.314 1_565 S
C748 H754 0.930 . S
C749 N751 1.279 . S
C749 C752 1.358 . S
C749 H755 0.930 . S
C750 C748 1.353 . S
C750 C753 1.350 . S
C750 H788 0.929 . S
N751 Li706 1.990 . S
N751 C748 1.314 1_545 S
N751 C749 1.279 . S
C752 C749 1.358 . S
C752 C753 1.354 1_545 S
C752 H789 0.930 . S
C753 C750 1.350 . S
C753 C752 1.354 1_565 S
H754 C748 0.930 . S
H755 C749 0.930 . S
C756 N757 1.314 . S
C756 C758 1.353 . S
C756 H762 0.930 . S
N757 Li707 1.990 . S
N757 C756 1.314 . S
N757 C760 1.279 . S
C758 C756 1.353 . S
C758 C761 1.348 . S
C758 H790 0.929 . S
C759 C760 1.358 . S
C759 C761 1.356 . S
C759 H791 0.930 . S
C760 N757 1.279 . S
C760 C759 1.358 . S
C760 H763 0.930 . S
C761 C758 1.348 . S
C761 C759 1.356 . S
H762 C756 0.930 . S
H763 C760 0.930 . S
O764 Li704 1.956 1_565 S
O764 Li705 1.970 . S
O764 Li706 1.961 1_565 S
O764 C708 1.325 . S
O765 Li704 1.970 . S
O765 Li705 1.956 1_545 S
O765 Li707 1.961 . S
O765 C714 1.325 . S
O766 Li704 1.961 . S
O766 Li706 1.956 . S
O766 Li707 1.970 . S
O766 C736 1.325 . S
O767 Li705 1.961 . S
O767 Li706 1.970 1_565 S
O767 Li707 1.956 1_565 S
O767 C742 1.325 . S
H768 C710 0.929 . S
H769 C711 0.930 . S
H770 C712 0.930 . S
H771 C713 0.930 . S
H772 C715 0.930 . S
H773 C717 0.929 . S
H774 C718 0.930 . S
H775 C719 0.930 . S
H776 C722 0.930 1_565 S
H777 C725 0.929 . S
H778 C730 0.929 . S
H779 C731 0.930 . S
H780 C738 0.929 . S
H781 C739 0.930 . S
H782 C740 0.930 . S
H783 C741 0.930 . S
H784 C743 0.929 1_545 S
H785 C744 0.930 . S
H786 C745 0.930 . S
H787 C746 0.930 . S
H788 C750 0.929 . S
H789 C752 0.930 . S
H790 C758 0.929 . S
H791 C759 0.930 . S
Li792 N809 1.990 . S
Li792 O852 1.956 . S
Li792 O853 1.970 . S
Li792 O854 1.961 . S
Li793 N817 1.990 . S
Li793 O852 1.970 . S
Li793 O853 1.956 . S
Li793 O855 1.961 . S
Li794 N839 1.990 . S
Li794 O852 1.961 . S
Li794 O854 1.956 . S
Li794 O855 1.970 . S
Li795 N845 1.990 . S
Li795 O853 1.961 . S
Li795 O854 1.970 . S
Li795 O855 1.956 . S
C796 C798 1.348 . S
C796 C799 1.356 . S
C796 O852 1.325 . S
N797 C800 1.314 . S
N797 C801 1.279 . S
C798 C796 1.348 . S
C798 C800 1.353 . S
C798 H856 0.929 . S
C799 C796 1.356 . S
C799 C801 1.358 . S
C799 H857 0.930 . S
C800 N797 1.314 . S
C800 C798 1.353 . S
C800 H858 0.930 . S
C801 N797 1.279 . S
C801 C799 1.358 . S
C801 H859 0.930 . S
C802 C805 1.348 . S
C802 C806 1.356 . S
C802 O853 1.325 . S
C803 N804 1.279 . S
C803 C806 1.358 . S
C803 H860 0.930 . S
N804 C803 1.279 . S
N804 C807 1.314 . S
C805 C802 1.348 . S
C805 C807 1.353 . S
C805 H861 0.929 . S
C806 C802 1.356 . S
C806 C803 1.358 . S
C806 H862 0.930 . S
C807 N804 1.314 . S
C807 C805 1.353 . S
C807 H863 0.930 . S
C808 N809 1.314 . S
C808 C813 1.353 . S
C808 H814 0.930 . S
N809 Li792 1.990 . S
N809 C808 1.314 . S
N809 C811 1.279 . S
C810 C811 1.358 . S
C810 C812 1.356 . S
C810 H864 0.930 . S
C811 N809 1.279 . S
C811 C810 1.358 . S
C811 H815 0.930 . S
C812 C810 1.356 . S
C812 C813 1.348 . S
C813 C808 1.353 . S
C813 C812 1.348 . S
C813 H865 0.929 . S
H814 C808 0.930 . S
H815 C811 0.930 . S
C816 N817 1.314 . S
C816 C818 1.353 . S
C816 H822 0.930 . S
N817 Li793 1.990 . S
N817 C816 1.314 . S
N817 C820 1.279 . S
C818 C816 1.353 . S
C818 C821 1.348 . S
C818 H866 0.929 . S
C819 C820 1.358 . S
C819 C821 1.356 . S
C819 H867 0.930 . S
C820 N817 1.279 . S
C820 C819 1.358 . S
C820 H823 0.930 . S
C821 C818 1.348 . S
C821 C819 1.356 . S
H822 C816 0.930 . S
H823 C820 0.930 . S
C824 C826 1.348 . S
C824 C827 1.356 . S
C824 O854 1.325 . S
N825 C828 1.314 . S
N825 C829 1.279 . S
C826 C824 1.348 . S
C826 C828 1.353 . S
C826 H868 0.929 . S
C827 C824 1.356 . S
C827 C829 1.358 . S
C827 H869 0.930 . S
C828 N825 1.314 . S
C828 C826 1.353 . S
C828 H870 0.930 . S
C829 N825 1.279 . S
C829 C827 1.358 . S
C829 H871 0.930 . S
C830 C831 1.348 . S
C830 C832 1.356 . S
C830 O855 1.325 . S
C831 C830 1.348 . S
C831 C833 1.353 . S
C831 H872 0.929 . S
C832 C830 1.356 . S
C832 C834 1.358 . S
C832 H873 0.930 . S
C833 C831 1.353 . S
C833 N835 1.314 . S
C833 H874 0.930 . S
C834 C832 1.358 . S
C834 N835 1.279 . S
C834 H875 0.930 . S
N835 C833 1.314 . S
N835 C834 1.279 . S
C836 C838 1.353 . S
C836 N839 1.314 . S
C836 H842 0.930 . S
C837 N839 1.279 . S
C837 C840 1.358 . S
C837 H843 0.930 . S
C838 C836 1.353 . S
C838 C841 1.348 . S
C838 H876 0.929 . S
N839 Li794 1.990 . S
N839 C836 1.314 . S
N839 C837 1.279 . S
C840 C837 1.358 . S
C840 C841 1.356 . S
C840 H877 0.930 . S
C841 C838 1.348 . S
C841 C840 1.356 . S
H842 C836 0.930 . S
H843 C837 0.930 . S
C844 N845 1.314 . S
C844 C846 1.353 . S
C844 H850 0.930 . S
N845 Li795 1.990 . S
N845 C844 1.314 . S
N845 C848 1.279 . S
C846 C844 1.353 . S
C846 C849 1.348 . S
C846 H878 0.929 . S
C847 C848 1.358 . S
C847 C849 1.356 . S
C847 H879 0.930 . S
C848 N845 1.279 . S
C848 C847 1.358 . S
C848 H851 0.930 . S
C849 C846 1.348 . S
C849 C847 1.356 . S
H850 C844 0.930 . S
H851 C848 0.930 . S
O852 Li792 1.956 . S
O852 Li793 1.970 . S
O852 Li794 1.961 . S
O852 C796 1.325 . S
O853 Li792 1.970 . S
O853 Li793 1.956 . S
O853 Li795 1.961 . S
O853 C802 1.325 . S
O854 Li792 1.961 . S
O854 Li794 1.956 . S
O854 Li795 1.970 . S
O854 C824 1.325 . S
O855 Li793 1.961 . S
O855 Li794 1.970 . S
O855 Li795 1.956 . S
O855 C830 1.325 . S
H856 C798 0.929 . S
H857 C799 0.930 . S
H858 C800 0.930 . S
H859 C801 0.930 . S
H860 C803 0.930 . S
H861 C805 0.929 . S
H862 C806 0.930 . S
H863 C807 0.930 . S
H864 C810 0.930 . S
H865 C813 0.929 . S
H866 C818 0.929 . S
H867 C819 0.930 . S
H868 C826 0.929 . S
H869 C827 0.930 . S
H870 C828 0.930 . S
H871 C829 0.930 . S
H872 C831 0.929 . S
H873 C832 0.930 . S
H874 C833 0.930 . S
H875 C834 0.930 . S
H876 C838 0.929 . S
H877 C840 0.930 . S
H878 C846 0.929 . S
H879 C847 0.930 . S
Li880 N897 1.990 . S
Li880 O940 1.956 . S
Li880 O941 1.970 . S
Li880 O942 1.961 . S
Li881 N905 1.990 . S
Li881 O940 1.970 . S
Li881 O941 1.956 . S
Li881 O943 1.961 1_545 S
Li882 N927 1.990 . S
Li882 O940 1.961 1_565 S
Li882 O942 1.956 1_565 S
Li882 O943 1.970 . S
Li883 N933 1.990 . S
Li883 O941 1.961 1_565 S
Li883 O942 1.970 1_565 S
Li883 O943 1.956 . S
C884 C886 1.348 . S
C884 C887 1.356 . S
C884 O940 1.325 . S
N885 C888 1.314 . S
N885 C889 1.279 . S
C886 C884 1.348 . S
C886 C888 1.353 . S
C886 H944 0.929 . S
C887 C884 1.356 . S
C887 C889 1.358 . S
C887 H945 0.930 . S
C888 N885 1.314 . S
C888 C886 1.353 . S
C888 H946 0.930 . S
C889 N885 1.279 . S
C889 C887 1.358 . S
C889 H947 0.930 . S
C890 C893 1.348 . S
C890 C894 1.356 . S
C890 O941 1.325 . S
C891 N892 1.279 . S
C891 C894 1.358 . S
C891 H948 0.930 . S
N892 C891 1.279 . S
N892 C895 1.314 . S
C893 C890 1.348 . S
C893 C895 1.353 . S
C893 H949 0.929 . S
C894 C890 1.356 . S
C894 C891 1.358 . S
C894 H950 0.930 . S
C895 N892 1.314 . S
C895 C893 1.353 . S
C895 H951 0.930 . S
C896 N897 1.314 . S
C896 C901 1.353 . S
C896 H902 0.930 . S
N897 Li880 1.990 . S
N897 C896 1.314 . S
N897 C899 1.279 . S
C898 C899 1.358 . S
C898 C900 1.356 . S
C898 H952 0.930 . S
C899 N897 1.279 . S
C899 C898 1.358 . S
C899 H903 0.930 . S
C900 C898 1.356 . S
C900 C901 1.348 . S
C901 C896 1.353 . S
C901 C900 1.348 . S
C901 H953 0.929 . S
H902 C896 0.930 . S
H903 C899 0.930 . S
C904 N905 1.314 1_565 S
C904 C906 1.353 . S
C904 H910 0.930 . S
N905 Li881 1.990 . S
N905 C904 1.314 1_545 S
N905 C908 1.279 . S
C906 C904 1.353 . S
C906 C909 1.348 1_565 S
C906 H954 0.929 . S
C907 C908 1.358 . S
C907 C909 1.356 . S
C907 H955 0.930 . S
C908 N905 1.279 . S
C908 C907 1.358 . S
C908 H911 0.930 . S
C909 C906 1.348 1_545 S
C909 C907 1.356 . S
H910 C904 0.930 . S
H911 C908 0.930 . S
C912 C914 1.348 1_545 S
C912 C915 1.356 . S
C912 O942 1.325 . S
N913 C916 1.314 . S
N913 C917 1.279 1_565 S
C914 C912 1.348 1_565 S
C914 C916 1.353 . S
C914 H956 0.929 . S
C915 C912 1.356 . S
C915 C917 1.358 . S
C915 H957 0.930 . S
C916 N913 1.314 . S
C916 C914 1.353 . S
C916 H958 0.930 . S
C917 N913 1.279 1_545 S
C917 C915 1.358 . S
C917 H959 0.930 . S
C918 C919 1.348 . S
C918 C920 1.356 . S
C918 O943 1.325 . S
C919 C918 1.348 . S
C919 C921 1.353 . S
C919 H960 0.929 . S
C920 C918 1.356 . S
C920 C922 1.358 . S
C920 H961 0.930 . S
C921 C919 1.353 . S
C921 N923 1.314 . S
C921 H962 0.930 . S
C922 C920 1.358 . S
C922 N923 1.279 . S
C922 H963 0.930 . S
N923 C921 1.314 . S
N923 C922 1.279 . S
C924 C926 1.353 . S
C924 N927 1.314 . S
C924 H930 0.930 . S
C925 N927 1.279 . S
C925 C928 1.358 . S
C925 H931 0.930 . S
C926 C924 1.353 . S
C926 C929 1.348 . S
C926 H964 0.929 . S
N927 Li882 1.990 . S
N927 C924 1.314 . S
N927 C925 1.279 . S
C928 C925 1.358 . S
C928 C929 1.356 . S
C928 H965 0.930 . S
C929 C926 1.348 . S
C929 C928 1.356 . S
H930 C924 0.930 . S
H931 C925 0.930 . S
C932 N933 1.314 1_545 S
C932 C934 1.352 . S
C932 H938 0.930 . S
N933 Li883 1.990 . S
N933 C932 1.314 1_565 S
N933 C936 1.279 . S
C934 C932 1.352 . S
C934 C937 1.343 1_545 S
C934 H966 0.935 . S
C935 C936 1.358 . S
C935 C937 1.356 . S
C935 H967 0.930 . S
C936 N933 1.279 . S
C936 C935 1.358 . S
C936 H939 0.930 . S
C937 C934 1.343 1_565 S
C937 C935 1.356 . S
H938 C932 0.930 . S
H939 C936 0.930 . S
O940 Li880 1.956 . S
O940 Li881 1.970 . S
O940 Li882 1.961 1_545 S
O940 C884 1.325 . S
O941 Li880 1.970 . S
O941 Li881 1.956 . S
O941 Li883 1.961 1_545 S
O941 C890 1.325 . S
O942 Li880 1.961 . S
O942 Li882 1.956 1_545 S
O942 Li883 1.970 1_545 S
O942 C912 1.325 . S
O943 Li881 1.961 1_565 S
O943 Li882 1.970 . S
O943 Li883 1.956 . S
O943 C918 1.325 . S
H944 C886 0.929 . S
H945 C887 0.930 . S
H946 C888 0.930 . S
H947 C889 0.930 . S
H948 C891 0.930 . S
H949 C893 0.929 . S
H950 C894 0.930 . S
H951 C895 0.930 . S
H952 C898 0.930 . S
H953 C901 0.929 . S
H954 C906 0.929 . S
H955 C907 0.930 . S
H956 C914 0.929 . S
H957 C915 0.930 . S
H958 C916 0.930 . S
H959 C917 0.930 . S
H960 C919 0.929 . S
H961 C920 0.930 . S
H962 C921 0.930 . S
H963 C922 0.930 . S
H964 C926 0.929 . S
H965 C928 0.930 . S
H966 C934 0.935 . S
H967 C935 0.930 . S
Li968 N985 1.990 . S
Li968 O1028 1.956 . S
Li968 O1029 1.970 1_554 S
Li968 O1030 1.961 1_554 S
Li969 N993 1.990 . S
Li969 O1028 1.970 . S
Li969 O1029 1.956 1_554 S
Li969 O1031 1.961 1_554 S
Li970 N1015 1.990 1_565 S
Li970 O1028 1.961 . S
Li970 O1030 1.956 1_554 S
Li970 O1031 1.970 1_554 S
Li971 N1021 1.990 . S
Li971 O1029 1.961 . S
Li971 O1030 1.970 . S
Li971 O1031 1.956 . S
C972 C974 1.348 . S
C972 C975 1.356 1_565 S
C972 O1028 1.325 . S
N973 C976 1.314 . S
N973 C977 1.279 . S
C974 C972 1.348 . S
C974 C976 1.353 1_565 S
C974 H1032 0.929 . S
C975 C972 1.356 1_545 S
C975 C977 1.358 . S
C975 H1033 0.930 . S
C976 N973 1.314 . S
C976 C974 1.353 1_545 S
C976 H1034 0.930 . S
C977 N973 1.279 . S
C977 C975 1.358 . S
C977 H1035 0.930 . S
C978 C981 1.358 . S
C978 C982 1.356 . S
C978 O1029 1.325 . S
C979 N980 1.279 . S
C979 C982 1.358 . S
C979 H1036 0.930 . S
N980 C979 1.279 . S
N980 C983 1.314 . S
C981 C978 1.358 . S
C981 C983 1.350 . S
C981 H1037 0.923 1_556 S
C982 C978 1.356 . S
C982 C979 1.358 . S
C982 H1038 0.930 . S
C983 N980 1.314 . S
C983 C981 1.350 . S
C983 H1039 0.930 1_556 S
C984 N985 1.314 1_556 S
C984 C989 1.353 1_565 S
C984 H990 0.930 . S
N985 Li968 1.990 . S
N985 C984 1.314 1_554 S
N985 C987 1.279 1_565 S
C986 C987 1.358 . S
C986 C988 1.356 . S
C986 H1040 0.930 . S
C987 N985 1.279 1_545 S
C987 C986 1.358 . S
C987 H991 0.930 . S
C988 C986 1.356 . S
C988 C989 1.348 1_554 S
C989 C984 1.353 1_545 S
C989 C988 1.348 1_556 S
C989 H1041 0.929 . S
H990 C984 0.930 . S
H991 C987 0.930 . S
C992 N993 1.314 . S
C992 C994 1.353 . S
C992 H998 0.930 . S
N993 Li969 1.990 . S
N993 C992 1.314 . S
N993 C996 1.279 . S
C994 C992 1.353 . S
C994 C997 1.348 . S
C994 H1042 0.929 . S
C995 C996 1.358 . S
C995 C997 1.356 . S
C995 H1043 0.930 . S
C996 N993 1.279 . S
C996 C995 1.358 . S
C996 H999 0.930 . S
C997 C994 1.348 . S
C997 C995 1.356 . S
H998 C992 0.930 . S
H999 C996 0.930 . S
C1000 C1002 1.348 . S
C1000 C1003 1.356 1_565 S
C1000 O1030 1.325 . S
N1001 C1004 1.314 1_545 S
N1001 C1005 1.279 . S
C1002 C1000 1.348 . S
C1002 C1004 1.353 . S
C1002 H1044 0.929 . S
C1003 C1000 1.356 1_545 S
C1003 C1005 1.358 . S
C1003 H1045 0.930 . S
C1004 N1001 1.314 1_565 S
C1004 C1002 1.353 . S
C1004 H1046 0.930 . S
C1005 N1001 1.279 . S
C1005 C1003 1.358 . S
C1005 H1047 0.930 . S
C1006 C1007 1.348 . S
C1006 C1008 1.356 . S
C1006 O1031 1.325 . S
C1007 C1006 1.348 . S
C1007 C1009 1.353 . S
C1007 H1048 0.929 . S
C1008 C1006 1.356 . S
C1008 C1010 1.358 . S
C1008 H1049 0.930 . S
C1009 C1007 1.353 . S
C1009 N1011 1.314 . S
C1009 H1050 0.930 . S
C1010 C1008 1.358 . S
C1010 N1011 1.279 . S
C1010 H1051 0.930 . S
N1011 C1009 1.314 . S
N1011 C1010 1.279 . S
C1012 C1014 1.353 . S
C1012 N1015 1.314 . S
C1012 H1018 0.930 . S
C1013 N1015 1.279 1_556 S
C1013 C1016 1.358 . S
C1013 H1019 0.930 . S
C1014 C1012 1.353 . S
C1014 C1017 1.348 . S
C1014 H1052 0.929 . S
N1015 Li970 1.990 1_545 S
N1015 C1012 1.314 . S
N1015 C1013 1.279 1_554 S
C1016 C1013 1.358 . S
C1016 C1017 1.356 1_556 S
C1016 H1053 0.930 . S
C1017 C1014 1.348 . S
C1017 C1016 1.356 1_554 S
H1018 C1012 0.930 . S
H1019 C1013 0.930 . S
C1020 N1021 1.314 . S
C1020 C1022 1.353 . S
C1020 H1026 0.930 . S
N1021 Li971 1.990 . S
N1021 C1020 1.314 . S
N1021 C1024 1.279 . S
C1022 C1020 1.353 . S
C1022 C1025 1.348 . S
C1022 H1054 0.929 . S
C1023 C1024 1.358 . S
C1023 C1025 1.356 . S
C1023 H1055 0.930 . S
C1024 N1021 1.279 . S
C1024 C1023 1.358 . S
C1024 H1027 0.930 . S
C1025 C1022 1.348 . S
C1025 C1023 1.356 . S
H1026 C1020 0.930 . S
H1027 C1024 0.930 . S
O1028 Li968 1.956 . S
O1028 Li969 1.970 . S
O1028 Li970 1.961 . S
O1028 C972 1.325 . S
O1029 Li968 1.970 1_556 S
O1029 Li969 1.956 1_556 S
O1029 Li971 1.961 . S
O1029 C978 1.325 . S
O1030 Li968 1.961 1_556 S
O1030 Li970 1.956 1_556 S
O1030 Li971 1.970 . S
O1030 C1000 1.325 . S
O1031 Li969 1.961 1_556 S
O1031 Li970 1.970 1_556 S
O1031 Li971 1.956 . S
O1031 C1006 1.325 . S
H1032 C974 0.929 . S
H1033 C975 0.930 . S
H1034 C976 0.930 . S
H1035 C977 0.930 . S
H1036 C979 0.930 . S
H1037 C981 0.923 1_554 S
H1038 C982 0.930 . S
H1039 C983 0.930 1_554 S
H1040 C986 0.930 . S
H1041 C989 0.929 . S
H1042 C994 0.929 . S
H1043 C995 0.930 . S
H1044 C1002 0.929 . S
H1045 C1003 0.930 . S
H1046 C1004 0.930 . S
H1047 C1005 0.930 . S
H1048 C1007 0.929 . S
H1049 C1008 0.930 . S
H1050 C1009 0.930 . S
H1051 C1010 0.930 . S
H1052 C1014 0.929 . S
H1053 C1016 0.930 . S
H1054 C1022 0.929 . S
H1055 C1023 0.930 . S
Li1056 N1073 1.990 . S
Li1056 O1116 1.956 . S
Li1056 O1117 1.970 . S
Li1056 O1118 1.961 . S
Li1057 N1081 1.990 . S
Li1057 O1116 1.970 . S
Li1057 O1117 1.956 . S
Li1057 O1119 1.961 . S
Li1058 N1103 1.990 . S
Li1058 O1116 1.961 . S
Li1058 O1118 1.956 . S
Li1058 O1119 1.970 . S
Li1059 N1109 1.974 1_554 S
Li1059 O1117 1.976 . S
Li1059 O1118 1.967 . S
Li1059 O1119 1.971 . S
C1060 C1062 1.348 . S
C1060 C1063 1.356 . S
C1060 O1116 1.325 . S
N1061 C1064 1.314 . S
N1061 C1065 1.279 . S
C1062 C1060 1.348 . S
C1062 C1064 1.353 . S
C1062 H1120 0.929 . S
C1063 C1060 1.356 . S
C1063 C1065 1.358 . S
C1063 H1121 0.930 . S
C1064 N1061 1.314 . S
C1064 C1062 1.353 . S
C1064 H1122 0.930 . S
C1065 N1061 1.279 . S
C1065 C1063 1.358 . S
C1065 H1123 0.930 . S
C1066 C1069 1.348 . S
C1066 C1070 1.356 . S
C1066 O1117 1.325 . S
C1067 N1068 1.279 . S
C1067 C1070 1.358 . S
C1067 H1124 0.930 . S
N1068 C1067 1.279 . S
N1068 C1071 1.314 . S
C1069 C1066 1.348 . S
C1069 C1071 1.353 . S
C1069 H1125 0.929 . S
C1070 C1066 1.356 . S
C1070 C1067 1.358 . S
C1070 H1126 0.930 . S
C1071 N1068 1.314 . S
C1071 C1069 1.353 . S
C1071 H1127 0.930 . S
C1072 N1073 1.314 . S
C1072 C1077 1.353 . S
C1072 H1078 0.930 1_554 S
N1073 Li1056 1.990 . S
N1073 C1072 1.314 . S
N1073 C1075 1.279 . S
C1074 C1075 1.358 . S
C1074 C1076 1.356 . S
C1074 H1128 0.930 . S
C1075 N1073 1.279 . S
C1075 C1074 1.358 . S
C1075 H1079 0.930 . S
C1076 C1074 1.356 . S
C1076 C1077 1.348 . S
C1077 C1072 1.353 . S
C1077 C1076 1.348 . S
C1077 H1129 0.929 1_554 S
H1078 C1072 0.930 1_556 S
H1079 C1075 0.930 . S
C1080 N1081 1.314 . S
C1080 C1082 1.353 . S
C1080 H1086 0.930 . S
N1081 Li1057 1.990 . S
N1081 C1080 1.314 . S
N1081 C1084 1.279 . S
C1082 C1080 1.353 . S
C1082 C1085 1.348 . S
C1082 H1130 0.929 . S
C1083 C1084 1.358 . S
C1083 C1085 1.356 . S
C1083 H1131 0.930 . S
C1084 N1081 1.279 . S
C1084 C1083 1.358 . S
C1084 H1087 0.930 . S
C1085 C1082 1.348 . S
C1085 C1083 1.356 . S
H1086 C1080 0.930 . S
H1087 C1084 0.930 . S
C1088 C1090 1.348 . S
C1088 C1091 1.356 . S
C1088 O1118 1.325 1_556 S
N1089 C1092 1.314 . S
N1089 C1093 1.279 . S
C1090 C1088 1.348 . S
C1090 C1092 1.353 . S
C1090 H1132 0.929 . S
C1091 C1088 1.356 . S
C1091 C1093 1.358 . S
C1091 H1133 0.930 1_556 S
C1092 N1089 1.314 . S
C1092 C1090 1.353 . S
C1092 H1134 0.930 . S
C1093 N1089 1.279 . S
C1093 C1091 1.358 . S
C1093 H1135 0.930 . S
C1094 C1095 1.348 . S
C1094 C1096 1.356 . S
C1094 O1119 1.325 . S
C1095 C1094 1.348 . S
C1095 C1097 1.353 . S
C1095 H1136 0.929 . S
C1096 C1094 1.356 . S
C1096 C1098 1.358 . S
C1096 H1137 0.930 . S
C1097 C1095 1.353 . S
C1097 N1099 1.314 . S
C1097 H1138 0.930 . S
C1098 C1096 1.358 . S
C1098 N1099 1.279 . S
C1098 H1139 0.930 . S
N1099 C1097 1.314 . S
N1099 C1098 1.279 . S
C1100 C1102 1.353 . S
C1100 N1103 1.314 . S
C1100 H1106 0.930 . S
C1101 N1103 1.279 . S
C1101 C1104 1.358 . S
C1101 H1107 0.930 . S
C1102 C1100 1.353 . S
C1102 C1105 1.348 . S
C1102 H1140 0.929 . S
N1103 Li1058 1.990 . S
N1103 C1100 1.314 . S
N1103 C1101 1.279 . S
C1104 C1101 1.358 . S
C1104 C1105 1.356 . S
C1104 H1141 0.930 . S
C1105 C1102 1.348 . S
C1105 C1104 1.356 . S
H1106 C1100 0.930 . S
H1107 C1101 0.930 . S
C1108 N1109 1.314 . S
C1108 C1110 1.353 . S
C1108 H1114 0.930 . S
N1109 Li1059 1.974 1_556 S
N1109 C1108 1.314 . S
N1109 C1112 1.279 . S
C1110 C1108 1.353 . S
C1110 C1113 1.348 . S
C1110 H1142 0.929 . S
C1111 C1112 1.358 . S
C1111 C1113 1.356 . S
C1111 H1143 0.930 . S
C1112 N1109 1.279 . S
C1112 C1111 1.358 . S
C1112 H1115 0.930 . S
C1113 C1110 1.348 . S
C1113 C1111 1.356 . S
H1114 C1108 0.930 . S
H1115 C1112 0.930 . S
O1116 Li1056 1.956 . S
O1116 Li1057 1.970 . S
O1116 Li1058 1.961 . S
O1116 C1060 1.325 . S
O1117 Li1056 1.970 . S
O1117 Li1057 1.956 . S
O1117 Li1059 1.976 . S
O1117 C1066 1.325 . S
O1118 Li1056 1.961 . S
O1118 Li1058 1.956 . S
O1118 Li1059 1.967 . S
O1118 C1088 1.325 1_554 S
O1119 Li1057 1.961 . S
O1119 Li1058 1.970 . S
O1119 Li1059 1.971 . S
O1119 C1094 1.325 . S
H1120 C1062 0.929 . S
H1121 C1063 0.930 . S
H1122 C1064 0.930 . S
H1123 C1065 0.930 . S
H1124 C1067 0.930 . S
H1125 C1069 0.929 . S
H1126 C1070 0.930 . S
H1127 C1071 0.930 . S
H1128 C1074 0.930 . S
H1129 C1077 0.929 1_556 S
H1130 C1082 0.929 . S
H1131 C1083 0.930 . S
H1132 C1090 0.929 . S
H1133 C1091 0.930 1_554 S
H1134 C1092 0.930 . S
H1135 C1093 0.930 . S
H1136 C1095 0.929 . S
H1137 C1096 0.930 . S
H1138 C1097 0.930 . S
H1139 C1098 0.930 . S
H1140 C1102 0.929 . S
H1141 C1104 0.930 . S
H1142 C1110 0.929 . S
H1143 C1111 0.930 . S
Li1144 N1161 1.990 . S
Li1144 O1204 1.956 . S
Li1144 O1205 1.970 . S
Li1144 O1206 1.961 . S
Li1145 N1169 1.990 . S
Li1145 O1204 1.970 . S
Li1145 O1205 1.956 . S
Li1145 O1207 1.961 1_554 S
Li1146 N1191 1.990 1_554 S
Li1146 O1204 1.961 . S
Li1146 O1206 1.956 . S
Li1146 O1207 1.970 1_554 S
Li1147 N1197 1.990 . S
Li1147 O1205 1.961 . S
Li1147 O1206 1.970 . S
Li1147 O1207 1.956 1_554 S
C1148 C1150 1.348 . S
C1148 C1151 1.356 . S
C1148 O1204 1.325 . S
N1149 C1152 1.314 . S
N1149 C1153 1.279 . S
C1150 C1148 1.348 . S
C1150 C1152 1.353 . S
C1150 H1208 0.929 . S
C1151 C1148 1.356 . S
C1151 C1153 1.358 . S
C1151 H1209 0.930 . S
C1152 N1149 1.314 . S
C1152 C1150 1.353 . S
C1152 H1210 0.930 . S
C1153 N1149 1.279 . S
C1153 C1151 1.358 . S
C1153 H1211 0.930 . S
C1154 C1157 1.348 . S
C1154 C1158 1.356 . S
C1154 O1205 1.325 . S
C1155 N1156 1.279 . S
C1155 C1158 1.358 . S
C1155 H1212 0.930 . S
N1156 C1155 1.279 . S
N1156 C1159 1.314 . S
C1157 C1154 1.348 . S
C1157 C1159 1.353 . S
C1157 H1213 0.929 . S
C1158 C1154 1.356 . S
C1158 C1155 1.358 . S
C1158 H1214 0.930 . S
C1159 N1156 1.314 . S
C1159 C1157 1.353 . S
C1159 H1215 0.930 . S
C1160 N1161 1.314 . S
C1160 C1165 1.353 . S
C1160 H1166 0.930 . S
N1161 Li1144 1.990 . S
N1161 C1160 1.314 . S
N1161 C1163 1.279 . S
C1162 C1163 1.358 . S
C1162 C1164 1.356 . S
C1162 H1216 0.930 . S
C1163 N1161 1.279 . S
C1163 C1162 1.358 . S
C1163 H1167 0.930 . S
C1164 C1162 1.356 . S
C1164 C1165 1.348 . S
C1165 C1160 1.353 . S
C1165 C1164 1.348 . S
C1165 H1217 0.929 . S
H1166 C1160 0.930 . S
H1167 C1163 0.930 . S
C1168 N1169 1.314 . S
C1168 C1170 1.353 . S
C1168 H1174 0.930 1_554 S
N1169 Li1145 1.990 . S
N1169 C1168 1.314 . S
N1169 C1172 1.279 . S
C1170 C1168 1.353 . S
C1170 C1173 1.348 . S
C1170 H1218 0.929 1_554 S
C1171 C1172 1.358 . S
C1171 C1173 1.356 . S
C1171 H1219 0.930 . S
C1172 N1169 1.279 . S
C1172 C1171 1.358 . S
C1172 H1175 0.930 . S
C1173 C1170 1.348 . S
C1173 C1171 1.356 . S
H1174 C1168 0.930 1_556 S
H1175 C1172 0.930 . S
C1176 C1178 1.348 . S
C1176 C1179 1.356 . S
C1176 O1206 1.325 . S
N1177 C1180 1.314 . S
N1177 C1181 1.279 . S
C1178 C1176 1.348 . S
C1178 C1180 1.353 . S
C1178 H1220 0.929 . S
C1179 C1176 1.356 . S
C1179 C1181 1.358 . S
C1179 H1221 0.930 . S
C1180 N1177 1.314 . S
C1180 C1178 1.353 . S
C1180 H1222 0.930 . S
C1181 N1177 1.279 . S
C1181 C1179 1.358 . S
C1181 H1223 0.930 . S
C1182 C1183 1.348 . S
C1182 C1184 1.356 . S
C1182 O1207 1.325 . S
C1183 C1182 1.348 . S
C1183 C1185 1.353 . S
C1183 H1224 0.929 . S
C1184 C1182 1.356 . S
C1184 C1186 1.358 . S
C1184 H1225 0.930 . S
C1185 C1183 1.353 . S
C1185 N1187 1.314 . S
C1185 H1226 0.930 . S
C1186 C1184 1.358 . S
C1186 N1187 1.279 . S
C1186 H1227 0.930 1_545 S
N1187 C1185 1.314 . S
N1187 C1186 1.279 . S
C1188 C1190 1.353 . S
C1188 N1191 1.314 . S
C1188 H1194 0.930 . S
C1189 N1191 1.279 . S
C1189 C1192 1.358 . S
C1189 H1195 0.930 . S
C1190 C1188 1.353 . S
C1190 C1193 1.348 . S
C1190 H1228 0.929 . S
N1191 Li1146 1.990 1_556 S
N1191 C1188 1.314 . S
N1191 C1189 1.279 . S
C1192 C1189 1.358 . S
C1192 C1193 1.356 . S
C1192 H1229 0.930 . S
C1193 C1190 1.348 . S
C1193 C1192 1.356 . S
H1194 C1188 0.930 . S
H1195 C1189 0.930 . S
C1196 N1197 1.314 . S
C1196 C1198 1.353 . S
C1196 H1202 0.930 . S
N1197 Li1147 1.990 . S
N1197 C1196 1.314 . S
N1197 C1200 1.279 1_554 S
C1198 C1196 1.353 . S
C1198 C1201 1.348 . S
C1198 H1230 0.929 . S
C1199 C1200 1.358 . S
C1199 C1201 1.356 1_556 S
C1199 H1231 0.930 . S
C1200 N1197 1.279 1_556 S
C1200 C1199 1.358 . S
C1200 H1203 0.930 . S
C1201 C1198 1.348 . S
C1201 C1199 1.356 1_554 S
H1202 C1196 0.930 . S
H1203 C1200 0.930 . S
O1204 Li1144 1.956 . S
O1204 Li1145 1.970 . S
O1204 Li1146 1.961 . S
O1204 C1148 1.325 . S
O1205 Li1144 1.970 . S
O1205 Li1145 1.956 . S
O1205 Li1147 1.961 . S
O1205 C1154 1.325 . S
O1206 Li1144 1.961 . S
O1206 Li1146 1.956 . S
O1206 Li1147 1.970 . S
O1206 C1176 1.325 . S
O1207 Li1145 1.961 1_556 S
O1207 Li1146 1.970 1_556 S
O1207 Li1147 1.956 1_556 S
O1207 C1182 1.325 . S
H1208 C1150 0.929 . S
H1209 C1151 0.930 . S
H1210 C1152 0.930 . S
H1211 C1153 0.930 . S
H1212 C1155 0.930 . S
H1213 C1157 0.929 . S
H1214 C1158 0.930 . S
H1215 C1159 0.930 . S
H1216 C1162 0.930 . S
H1217 C1165 0.929 . S
H1218 C1170 0.929 1_556 S
H1219 C1171 0.930 . S
H1220 C1178 0.929 . S
H1221 C1179 0.930 . S
H1222 C1180 0.930 . S
H1223 C1181 0.930 . S
H1224 C1183 0.929 . S
H1225 C1184 0.930 . S
H1226 C1185 0.930 . S
H1227 C1186 0.930 1_565 S
H1228 C1190 0.929 . S
H1229 C1192 0.930 . S
H1230 C1198 0.929 . S
H1231 C1199 0.930 . S
Li1232 N1249 1.990 . S
Li1232 O1292 1.956 . S
Li1232 O1293 1.970 . S
Li1232 O1294 1.961 . S
Li1233 N1257 1.990 . S
Li1233 O1292 1.970 . S
Li1233 O1293 1.956 . S
Li1233 O1295 1.961 . S
Li1234 N1279 1.990 . S
Li1234 O1292 1.961 . S
Li1234 O1294 1.956 . S
Li1234 O1295 1.970 . S
Li1235 N1285 1.990 . S
Li1235 O1293 1.961 . S
Li1235 O1294 1.970 . S
Li1235 O1295 1.956 . S
C1236 C1238 1.348 . S
C1236 C1239 1.356 . S
C1236 O1292 1.325 . S
N1237 C1240 1.314 . S
N1237 C1241 1.279 . S
C1238 C1236 1.348 . S
C1238 C1240 1.353 . S
C1238 H1296 0.929 . S
C1239 C1236 1.356 . S
C1239 C1241 1.358 . S
C1239 H1297 0.930 . S
C1240 N1237 1.314 . S
C1240 C1238 1.353 . S
C1240 H1298 0.930 . S
C1241 N1237 1.279 . S
C1241 C1239 1.358 . S
C1241 H1299 0.930 . S
C1242 C1245 1.348 . S
C1242 C1246 1.356 . S
C1242 O1293 1.325 . S
C1243 N1244 1.279 . S
C1243 C1246 1.358 . S
C1243 H1300 0.930 . S
N1244 C1243 1.279 . S
N1244 C1247 1.314 . S
C1245 C1242 1.348 . S
C1245 C1247 1.353 . S
C1245 H1301 0.929 . S
C1246 C1242 1.356 . S
C1246 C1243 1.358 . S
C1246 H1302 0.930 . S
C1247 N1244 1.314 . S
C1247 C1245 1.353 . S
C1247 H1303 0.930 . S
C1248 N1249 1.314 . S
C1248 C1253 1.353 . S
C1248 H1254 0.930 . S
N1249 Li1232 1.990 . S
N1249 C1248 1.314 . S
N1249 C1251 1.279 . S
C1250 C1251 1.358 . S
C1250 C1252 1.356 . S
C1250 H1304 0.930 . S
C1251 N1249 1.279 . S
C1251 C1250 1.358 . S
C1251 H1255 0.930 . S
C1252 C1250 1.356 . S
C1252 C1253 1.348 . S
C1253 C1248 1.353 . S
C1253 C1252 1.348 . S
C1253 H1305 0.929 . S
H1254 C1248 0.930 . S
H1255 C1251 0.930 . S
C1256 N1257 1.314 . S
C1256 C1258 1.353 . S
C1256 H1262 0.930 . S
N1257 Li1233 1.990 . S
N1257 C1256 1.314 . S
N1257 C1260 1.279 . S
C1258 C1256 1.353 . S
C1258 C1261 1.348 . S
C1258 H1306 0.929 . S
C1259 C1260 1.358 . S
C1259 C1261 1.356 . S
C1259 H1307 0.930 . S
C1260 N1257 1.279 . S
C1260 C1259 1.358 . S
C1260 H1263 0.930 . S
C1261 C1258 1.348 . S
C1261 C1259 1.356 . S
H1262 C1256 0.930 . S
H1263 C1260 0.930 . S
C1264 C1266 1.348 . S
C1264 C1267 1.356 . S
C1264 O1294 1.325 . S
N1265 C1268 1.314 . S
N1265 C1269 1.279 . S
C1266 C1264 1.348 . S
C1266 C1268 1.353 . S
C1266 H1308 0.929 . S
C1267 C1264 1.356 . S
C1267 C1269 1.358 . S
C1267 H1309 0.930 . S
C1268 N1265 1.314 . S
C1268 C1266 1.353 . S
C1268 H1310 0.930 . S
C1269 N1265 1.279 . S
C1269 C1267 1.358 . S
C1269 H1311 0.930 . S
C1270 C1271 1.348 . S
C1270 C1272 1.356 . S
C1270 O1295 1.325 . S
C1271 C1270 1.348 . S
C1271 C1273 1.353 . S
C1271 H1312 0.929 . S
C1272 C1270 1.356 . S
C1272 C1274 1.358 . S
C1272 H1313 0.930 . S
C1273 C1271 1.353 . S
C1273 N1275 1.314 . S
C1273 H1314 0.930 . S
C1274 C1272 1.358 . S
C1274 N1275 1.279 . S
C1274 H1315 0.930 . S
N1275 C1273 1.314 . S
N1275 C1274 1.279 . S
C1276 C1278 1.353 . S
C1276 N1279 1.314 . S
C1276 H1282 0.930 . S
C1277 N1279 1.279 . S
C1277 C1280 1.358 . S
C1277 H1283 0.930 . S
C1278 C1276 1.353 . S
C1278 C1281 1.348 . S
C1278 H1316 0.929 . S
N1279 Li1234 1.990 . S
N1279 C1276 1.314 . S
N1279 C1277 1.279 . S
C1280 C1277 1.358 . S
C1280 C1281 1.356 . S
C1280 H1317 0.930 . S
C1281 C1278 1.348 . S
C1281 C1280 1.356 . S
H1282 C1276 0.930 . S
H1283 C1277 0.930 . S
C1284 N1285 1.314 . S
C1284 C1286 1.353 . S
C1284 H1290 0.930 . S
N1285 Li1235 1.990 . S
N1285 C1284 1.314 . S
N1285 C1288 1.279 . S
C1286 C1284 1.353 . S
C1286 C1289 1.348 . S
C1286 H1318 0.929 . S
C1287 C1288 1.358 . S
C1287 C1289 1.356 . S
C1287 H1319 0.930 . S
C1288 N1285 1.279 . S
C1288 C1287 1.358 . S
C1288 H1291 0.930 . S
C1289 C1286 1.348 . S
C1289 C1287 1.356 . S
H1290 C1284 0.930 . S
H1291 C1288 0.930 . S
O1292 Li1232 1.956 . S
O1292 Li1233 1.970 . S
O1292 Li1234 1.961 . S
O1292 C1236 1.325 . S
O1293 Li1232 1.970 . S
O1293 Li1233 1.956 . S
O1293 Li1235 1.961 . S
O1293 C1242 1.325 . S
O1294 Li1232 1.961 . S
O1294 Li1234 1.956 . S
O1294 Li1235 1.970 . S
O1294 C1264 1.325 . S
O1295 Li1233 1.961 . S
O1295 Li1234 1.970 . S
O1295 Li1235 1.956 . S
O1295 C1270 1.325 . S
H1296 C1238 0.929 . S
H1297 C1239 0.930 . S
H1298 C1240 0.930 . S
H1299 C1241 0.930 . S
H1300 C1243 0.930 . S
H1301 C1245 0.929 . S
H1302 C1246 0.930 . S
H1303 C1247 0.930 . S
H1304 C1250 0.930 . S
H1305 C1253 0.929 . S
H1306 C1258 0.929 . S
H1307 C1259 0.930 . S
H1308 C1266 0.929 . S
H1309 C1267 0.930 . S
H1310 C1268 0.930 . S
H1311 C1269 0.930 . S
H1312 C1271 0.929 . S
H1313 C1272 0.930 . S
H1314 C1273 0.930 . S
H1315 C1274 0.930 . S
H1316 C1278 0.929 . S
H1317 C1280 0.930 . S
H1318 C1286 0.929 . S
H1319 C1287 0.930 . S
Li1320 N1337 1.990 . S
Li1320 O1380 1.956 . S
Li1320 O1381 1.970 . S
Li1320 O1382 1.961 . S
Li1321 N1345 1.990 . S
Li1321 O1380 1.970 . S
Li1321 O1381 1.956 . S
Li1321 O1383 1.961 . S
Li1322 N1367 1.990 . S
Li1322 O1380 1.961 . S
Li1322 O1382 1.956 . S
Li1322 O1383 1.970 . S
Li1323 N1373 1.990 . S
Li1323 O1381 1.961 . S
Li1323 O1382 1.970 . S
Li1323 O1383 1.956 . S
C1324 C1326 1.348 . S
C1324 C1327 1.356 . S
C1324 O1380 1.325 . S
N1325 C1328 1.314 . S
N1325 C1329 1.279 . S
C1326 C1324 1.348 . S
C1326 C1328 1.353 . S
C1326 H1384 0.929 . S
C1327 C1324 1.356 . S
C1327 C1329 1.358 . S
C1327 H1385 0.930 . S
C1328 N1325 1.314 . S
C1328 C1326 1.353 . S
C1328 H1386 0.930 . S
C1329 N1325 1.279 . S
C1329 C1327 1.358 . S
C1329 H1387 0.930 1_565 S
C1330 C1333 1.348 . S
C1330 C1334 1.356 . S
C1330 O1381 1.325 . S
C1331 N1332 1.279 . S
C1331 C1334 1.358 . S
C1331 H1388 0.930 . S
N1332 C1331 1.279 . S
N1332 C1335 1.314 . S
C1333 C1330 1.348 . S
C1333 C1335 1.353 . S
C1333 H1389 0.929 . S
C1334 C1330 1.356 . S
C1334 C1331 1.358 . S
C1334 H1390 0.930 . S
C1335 N1332 1.314 . S
C1335 C1333 1.353 . S
C1335 H1391 0.930 . S
C1336 N1337 1.314 . S
C1336 C1341 1.353 . S
C1336 H1342 0.930 . S
N1337 Li1320 1.990 . S
N1337 C1336 1.314 . S
N1337 C1339 1.279 . S
C1338 C1339 1.358 . S
C1338 C1340 1.356 . S
C1338 H1392 0.930 . S
C1339 N1337 1.279 . S
C1339 C1338 1.358 . S
C1339 H1343 0.930 . S
C1340 C1338 1.356 . S
C1340 C1341 1.348 . S
C1341 C1336 1.353 . S
C1341 C1340 1.348 . S
C1341 H1393 0.929 . S
H1342 C1336 0.930 . S
H1343 C1339 0.930 . S
C1344 N1345 1.314 . S
C1344 C1346 1.353 . S
C1344 H1350 0.930 . S
N1345 Li1321 1.990 . S
N1345 C1344 1.314 . S
N1345 C1348 1.279 . S
C1346 C1344 1.353 . S
C1346 C1349 1.348 . S
C1346 H1394 0.929 . S
C1347 C1348 1.358 . S
C1347 C1349 1.356 . S
C1347 H1395 0.930 . S
C1348 N1345 1.279 . S
C1348 C1347 1.358 . S
C1348 H1351 0.930 . S
C1349 C1346 1.348 . S
C1349 C1347 1.356 . S
H1350 C1344 0.930 . S
H1351 C1348 0.930 . S
C1352 C1354 1.348 . S
C1352 C1355 1.356 . S
C1352 O1382 1.325 . S
N1353 C1356 1.314 . S
N1353 C1357 1.279 . S
C1354 C1352 1.348 . S
C1354 C1356 1.353 . S
C1354 H1396 0.929 . S
C1355 C1352 1.356 . S
C1355 C1357 1.358 . S
C1355 H1397 0.930 . S
C1356 N1353 1.314 . S
C1356 C1354 1.353 . S
C1356 H1398 0.930 . S
C1357 N1353 1.279 . S
C1357 C1355 1.358 . S
C1357 H1399 0.930 . S
C1358 C1359 1.348 . S
C1358 C1360 1.356 . S
C1358 O1383 1.325 . S
C1359 C1358 1.348 . S
C1359 C1361 1.353 . S
C1359 H1400 0.929 . S
C1360 C1358 1.356 . S
C1360 C1362 1.358 . S
C1360 H1401 0.930 . S
C1361 C1359 1.353 . S
C1361 N1363 1.314 . S
C1361 H1402 0.930 . S
C1362 C1360 1.358 . S
C1362 N1363 1.279 . S
C1362 H1403 0.930 . S
N1363 C1361 1.314 . S
N1363 C1362 1.279 . S
C1364 C1366 1.353 . S
C1364 N1367 1.314 . S
C1364 H1370 0.930 . S
C1365 N1367 1.279 . S
C1365 C1368 1.358 . S
C1365 H1371 0.930 . S
C1366 C1364 1.353 . S
C1366 C1369 1.348 . S
C1366 H1404 0.929 . S
N1367 Li1322 1.990 . S
N1367 C1364 1.314 . S
N1367 C1365 1.279 . S
C1368 C1365 1.358 . S
C1368 C1369 1.356 . S
C1368 H1405 0.930 . S
C1369 C1366 1.348 . S
C1369 C1368 1.356 . S
H1370 C1364 0.930 . S
H1371 C1365 0.930 . S
C1372 N1373 1.314 . S
C1372 C1374 1.353 . S
C1372 H1378 0.930 . S
N1373 Li1323 1.990 . S
N1373 C1372 1.314 . S
N1373 C1376 1.279 . S
C1374 C1372 1.353 . S
C1374 C1377 1.348 . S
C1374 H1406 0.929 . S
C1375 C1376 1.358 . S
C1375 C1377 1.356 . S
C1375 H1407 0.930 . S
C1376 N1373 1.279 . S
C1376 C1375 1.358 . S
C1376 H1379 0.930 . S
C1377 C1374 1.348 . S
C1377 C1375 1.356 . S
H1378 C1372 0.930 . S
H1379 C1376 0.930 . S
O1380 Li1320 1.956 . S
O1380 Li1321 1.970 . S
O1380 Li1322 1.961 . S
O1380 C1324 1.325 . S
O1381 Li1320 1.970 . S
O1381 Li1321 1.956 . S
O1381 Li1323 1.961 . S
O1381 C1330 1.325 . S
O1382 Li1320 1.961 . S
O1382 Li1322 1.956 . S
O1382 Li1323 1.970 . S
O1382 C1352 1.325 . S
O1383 Li1321 1.961 . S
O1383 Li1322 1.970 . S
O1383 Li1323 1.956 . S
O1383 C1358 1.325 . S
H1384 C1326 0.929 . S
H1385 C1327 0.930 . S
H1386 C1328 0.930 . S
H1387 C1329 0.930 1_545 S
H1388 C1331 0.930 . S
H1389 C1333 0.929 . S
H1390 C1334 0.930 . S
H1391 C1335 0.930 . S
H1392 C1338 0.930 . S
H1393 C1341 0.929 . S
H1394 C1346 0.929 . S
H1395 C1347 0.930 . S
H1396 C1354 0.929 . S
H1397 C1355 0.930 . S
H1398 C1356 0.930 . S
H1399 C1357 0.930 . S
H1400 C1359 0.929 . S
H1401 C1360 0.930 . S
H1402 C1361 0.930 . S
H1403 C1362 0.930 . S
H1404 C1366 0.929 . S
H1405 C1368 0.930 . S
H1406 C1374 0.929 . S
H1407 C1375 0.930 . S
Li1408 N1425 1.990 1_655 S
Li1408 O1468 1.956 . S
Li1408 O1469 1.970 . S
Li1408 O1470 1.961 . S
Li1409 N1433 1.990 1_545 S
Li1409 O1468 1.970 . S
Li1409 O1469 1.956 . S
Li1409 O1471 1.961 . S
Li1410 N1455 1.990 1_655 S
Li1410 O1468 1.961 . S
Li1410 O1470 1.956 . S
Li1410 O1471 1.970 . S
Li1411 N1461 1.990 . S
Li1411 O1469 1.961 . S
Li1411 O1470 1.970 . S
Li1411 O1471 1.956 . S
C1412 C1414 1.348 1_545 S
C1412 C1415 1.356 1_655 S
C1412 O1468 1.325 . S
N1413 C1416 1.314 . S
N1413 C1417 1.279 . S
C1414 C1412 1.348 1_565 S
C1414 C1416 1.353 1_655 S
C1414 H1472 0.929 . S
C1415 C1412 1.356 1_455 S
C1415 C1417 1.358 1_545 S
C1415 H1473 0.930 . S
C1416 N1413 1.314 . S
C1416 C1414 1.353 1_455 S
C1416 H1474 0.930 1_455 S
C1417 N1413 1.279 . S
C1417 C1415 1.358 1_565 S
C1417 H1475 0.930 . S
C1418 C1421 1.348 . S
C1418 C1422 1.356 . S
C1418 O1469 1.325 . S
C1419 N1420 1.279 . S
C1419 C1422 1.358 . S
C1419 H1476 0.930 . S
N1420 C1419 1.279 . S
N1420 C1423 1.314 . S
C1421 C1418 1.348 . S
C1421 C1423 1.353 . S
C1421 H1477 0.929 . S
C1422 C1418 1.356 . S
C1422 C1419 1.358 . S
C1422 H1478 0.930 . S
C1423 N1420 1.314 . S
C1423 C1421 1.353 . S
C1423 H1479 0.930 . S
C1424 N1425 1.314 . S
C1424 C1429 1.353 . S
C1424 H1430 0.930 . S
N1425 Li1408 1.990 1_455 S
N1425 C1424 1.314 . S
N1425 C1427 1.279 . S
C1426 C1427 1.358 . S
C1426 C1428 1.356 . S
C1426 H1480 0.930 . S
C1427 N1425 1.279 . S
C1427 C1426 1.358 . S
C1427 H1431 0.930 . S
C1428 C1426 1.356 . S
C1428 C1429 1.348 . S
C1429 C1424 1.353 . S
C1429 C1428 1.348 . S
C1429 H1481 0.929 . S
H1430 C1424 0.930 . S
H1431 C1427 0.930 . S
C1432 N1433 1.314 . S
C1432 C1434 1.353 . S
C1432 H1438 0.930 . S
N1433 Li1409 1.990 1_565 S
N1433 C1432 1.314 . S
N1433 C1436 1.279 . S
C1434 C1432 1.353 . S
C1434 C1437 1.348 . S
C1434 H1482 0.929 . S
C1435 C1436 1.358 . S
C1435 C1437 1.356 . S
C1435 H1483 0.930 . S
C1436 N1433 1.279 . S
C1436 C1435 1.358 . S
C1436 H1439 0.930 . S
C1437 C1434 1.348 . S
C1437 C1435 1.356 . S
H1438 C1432 0.930 . S
H1439 C1436 0.930 . S
C1440 C1442 1.348 . S
C1440 C1443 1.356 . S
C1440 O1470 1.325 1_455 S
N1441 C1444 1.314 . S
N1441 C1445 1.279 . S
C1442 C1440 1.348 . S
C1442 C1444 1.353 . S
C1442 H1484 0.929 1_455 S
C1443 C1440 1.356 . S
C1443 C1445 1.358 . S
C1443 H1485 0.930 . S
C1444 N1441 1.314 . S
C1444 C1442 1.353 . S
C1444 H1486 0.930 . S
C1445 N1441 1.279 . S
C1445 C1443 1.358 . S
C1445 H1487 0.930 . S
C1446 C1447 1.348 . S
C1446 C1448 1.356 . S
C1446 O1471 1.325 . S
C1447 C1446 1.348 . S
C1447 C1449 1.353 . S
C1447 H1488 0.929 . S
C1448 C1446 1.356 . S
C1448 C1450 1.358 . S
C1448 H1489 0.930 . S
C1449 C1447 1.353 . S
C1449 N1451 1.314 . S
C1449 H1490 0.930 . S
C1450 C1448 1.358 . S
C1450 N1451 1.279 . S
C1450 H1491 0.930 . S
N1451 C1449 1.314 . S
N1451 C1450 1.279 . S
C1452 C1454 1.353 . S
C1452 N1455 1.314 . S
C1452 H1458 0.930 1_455 S
C1453 N1455 1.279 . S
C1453 C1456 1.358 . S
C1453 H1459 0.930 . S
C1454 C1452 1.353 . S
C1454 C1457 1.348 . S
C1454 H1492 0.929 . S
N1455 Li1410 1.990 1_455 S
N1455 C1452 1.314 . S
N1455 C1453 1.279 . S
C1456 C1453 1.358 . S
C1456 C1457 1.356 . S
C1456 H1493 0.930 . S
C1457 C1454 1.348 . S
C1457 C1456 1.356 . S
H1458 C1452 0.930 1_655 S
H1459 C1453 0.930 . S
C1460 N1461 1.314 . S
C1460 C1462 1.353 . S
C1460 H1466 0.930 . S
N1461 Li1411 1.990 . S
N1461 C1460 1.314 . S
N1461 C1464 1.279 . S
C1462 C1460 1.353 . S
C1462 C1465 1.348 . S
C1462 H1494 0.929 . S
C1463 C1464 1.358 . S
C1463 C1465 1.356 . S
C1463 H1495 0.930 . S
C1464 N1461 1.279 . S
C1464 C1463 1.358 . S
C1464 H1467 0.930 . S
C1465 C1462 1.348 . S
C1465 C1463 1.356 . S
H1466 C1460 0.930 . S
H1467 C1464 0.930 . S
O1468 Li1408 1.956 . S
O1468 Li1409 1.970 . S
O1468 Li1410 1.961 . S
O1468 C1412 1.325 . S
O1469 Li1408 1.970 . S
O1469 Li1409 1.956 . S
O1469 Li1411 1.961 . S
O1469 C1418 1.325 . S
O1470 Li1408 1.961 . S
O1470 Li1410 1.956 . S
O1470 Li1411 1.970 . S
O1470 C1440 1.325 1_655 S
O1471 Li1409 1.961 . S
O1471 Li1410 1.970 . S
O1471 Li1411 1.956 . S
O1471 C1446 1.325 . S
H1472 C1414 0.929 . S
H1473 C1415 0.930 . S
H1474 C1416 0.930 1_655 S
H1475 C1417 0.930 . S
H1476 C1419 0.930 . S
H1477 C1421 0.929 . S
H1478 C1422 0.930 . S
H1479 C1423 0.930 . S
H1480 C1426 0.930 . S
H1481 C1429 0.929 . S
H1482 C1434 0.929 . S
H1483 C1435 0.930 . S
H1484 C1442 0.929 1_655 S
H1485 C1443 0.930 . S
H1486 C1444 0.930 . S
H1487 C1445 0.930 . S
H1488 C1447 0.929 . S
H1489 C1448 0.930 . S
H1490 C1449 0.930 . S
H1491 C1450 0.930 . S
H1492 C1454 0.929 . S
H1493 C1456 0.930 . S
H1494 C1462 0.929 . S
H1495 C1463 0.930 . S
Li1496 N1513 1.990 . S
Li1496 O1556 1.956 . S
Li1496 O1557 1.970 . S
Li1496 O1558 1.961 . S
Li1497 N1521 1.990 . S
Li1497 O1556 1.970 . S
Li1497 O1557 1.956 . S
Li1497 O1559 1.961 . S
Li1498 N1543 1.990 . S
Li1498 O1556 1.961 . S
Li1498 O1558 1.956 . S
Li1498 O1559 1.970 . S
Li1499 N1549 1.990 . S
Li1499 O1557 1.961 . S
Li1499 O1558 1.970 . S
Li1499 O1559 1.956 . S
C1500 C1502 1.348 . S
C1500 C1503 1.356 . S
C1500 O1556 1.325 . S
N1501 C1504 1.314 . S
N1501 C1505 1.279 . S
C1502 C1500 1.348 . S
C1502 C1504 1.353 . S
C1502 H1560 0.929 . S
C1503 C1500 1.356 . S
C1503 C1505 1.358 . S
C1503 H1561 0.930 . S
C1504 N1501 1.314 . S
C1504 C1502 1.353 . S
C1504 H1562 0.930 . S
C1505 N1501 1.279 . S
C1505 C1503 1.358 . S
C1505 H1563 0.930 . S
C1506 C1509 1.348 . S
C1506 C1510 1.356 . S
C1506 O1557 1.325 . S
C1507 N1508 1.279 . S
C1507 C1510 1.358 . S
C1507 H1564 0.930 . S
N1508 C1507 1.279 . S
N1508 C1511 1.314 . S
C1509 C1506 1.348 . S
C1509 C1511 1.353 . S
C1509 H1565 0.929 . S
C1510 C1506 1.356 . S
C1510 C1507 1.358 . S
C1510 H1566 0.930 . S
C1511 N1508 1.314 . S
C1511 C1509 1.353 . S
C1511 H1567 0.930 . S
C1512 N1513 1.314 . S
C1512 C1517 1.353 . S
C1512 H1518 0.930 . S
N1513 Li1496 1.990 . S
N1513 C1512 1.314 . S
N1513 C1515 1.279 . S
C1514 C1515 1.358 . S
C1514 C1516 1.356 . S
C1514 H1568 0.930 . S
C1515 N1513 1.279 . S
C1515 C1514 1.358 . S
C1515 H1519 0.930 . S
C1516 C1514 1.356 . S
C1516 C1517 1.348 . S
C1517 C1512 1.353 . S
C1517 C1516 1.348 . S
C1517 H1569 0.929 . S
H1518 C1512 0.930 . S
H1519 C1515 0.930 . S
C1520 N1521 1.314 . S
C1520 C1522 1.353 . S
C1520 H1526 0.930 . S
N1521 Li1497 1.990 . S
N1521 C1520 1.314 . S
N1521 C1524 1.279 . S
C1522 C1520 1.353 . S
C1522 C1525 1.348 . S
C1522 H1570 0.929 . S
C1523 C1524 1.358 . S
C1523 C1525 1.356 . S
C1523 H1571 0.930 . S
C1524 N1521 1.279 . S
C1524 C1523 1.358 . S
C1524 H1527 0.930 . S
C1525 C1522 1.348 . S
C1525 C1523 1.356 . S
H1526 C1520 0.930 . S
H1527 C1524 0.930 . S
C1528 C1530 1.348 . S
C1528 C1531 1.356 . S
C1528 O1558 1.325 . S
N1529 C1532 1.314 . S
N1529 C1533 1.279 . S
C1530 C1528 1.348 . S
C1530 C1532 1.353 . S
C1530 H1572 0.929 . S
C1531 C1528 1.356 . S
C1531 C1533 1.358 . S
C1531 H1573 0.930 . S
C1532 N1529 1.314 . S
C1532 C1530 1.353 . S
C1532 H1574 0.930 . S
C1533 N1529 1.279 . S
C1533 C1531 1.358 . S
C1533 H1575 0.930 . S
C1534 C1535 1.348 . S
C1534 C1536 1.356 . S
C1534 O1559 1.325 . S
C1535 C1534 1.348 . S
C1535 C1537 1.353 . S
C1535 H1576 0.929 . S
C1536 C1534 1.356 . S
C1536 C1538 1.358 . S
C1536 H1577 0.930 . S
C1537 C1535 1.353 . S
C1537 N1539 1.314 . S
C1537 H1578 0.930 . S
C1538 C1536 1.358 . S
C1538 N1539 1.279 . S
C1538 H1579 0.930 . S
N1539 C1537 1.314 . S
N1539 C1538 1.279 . S
C1540 C1542 1.353 . S
C1540 N1543 1.314 . S
C1540 H1546 0.930 . S
C1541 N1543 1.279 . S
C1541 C1544 1.358 . S
C1541 H1547 0.930 . S
C1542 C1540 1.353 . S
C1542 C1545 1.348 . S
C1542 H1580 0.929 . S
N1543 Li1498 1.990 . S
N1543 C1540 1.314 . S
N1543 C1541 1.279 . S
C1544 C1541 1.358 . S
C1544 C1545 1.356 . S
C1544 H1581 0.930 . S
C1545 C1542 1.348 . S
C1545 C1544 1.356 . S
H1546 C1540 0.930 . S
H1547 C1541 0.930 . S
C1548 N1549 1.314 . S
C1548 C1550 1.353 . S
C1548 H1554 0.930 . S
N1549 Li1499 1.990 . S
N1549 C1548 1.314 . S
N1549 C1552 1.279 . S
C1550 C1548 1.353 . S
C1550 C1553 1.348 . S
C1550 H1582 0.929 . S
C1551 C1552 1.358 . S
C1551 C1553 1.356 . S
C1551 H1583 0.930 . S
C1552 N1549 1.279 . S
C1552 C1551 1.358 . S
C1552 H1555 0.930 . S
C1553 C1550 1.348 . S
C1553 C1551 1.356 . S
H1554 C1548 0.930 . S
H1555 C1552 0.930 . S
O1556 Li1496 1.956 . S
O1556 Li1497 1.970 . S
O1556 Li1498 1.961 . S
O1556 C1500 1.325 . S
O1557 Li1496 1.970 . S
O1557 Li1497 1.956 . S
O1557 Li1499 1.961 . S
O1557 C1506 1.325 . S
O1558 Li1496 1.961 . S
O1558 Li1498 1.956 . S
O1558 Li1499 1.970 . S
O1558 C1528 1.325 . S
O1559 Li1497 1.961 . S
O1559 Li1498 1.970 . S
O1559 Li1499 1.956 . S
O1559 C1534 1.325 . S
H1560 C1502 0.929 . S
H1561 C1503 0.930 . S
H1562 C1504 0.930 . S
H1563 C1505 0.930 . S
H1564 C1507 0.930 . S
H1565 C1509 0.929 . S
H1566 C1510 0.930 . S
H1567 C1511 0.930 . S
H1568 C1514 0.930 . S
H1569 C1517 0.929 . S
H1570 C1522 0.929 . S
H1571 C1523 0.930 . S
H1572 C1530 0.929 . S
H1573 C1531 0.930 . S
H1574 C1532 0.930 . S
H1575 C1533 0.930 . S
H1576 C1535 0.929 . S
H1577 C1536 0.930 . S
H1578 C1537 0.930 . S
H1579 C1538 0.930 . S
H1580 C1542 0.929 . S
H1581 C1544 0.930 . S
H1582 C1550 0.929 . S
H1583 C1551 0.930 . S
Li1584 N1601 1.990 . S
Li1584 O1644 1.956 . S
Li1584 O1645 1.970 . S
Li1584 O1646 1.961 . S
Li1585 N1609 1.990 . S
Li1585 O1644 1.970 . S
Li1585 O1645 1.956 . S
Li1585 O1647 1.961 . S
Li1586 N1631 1.990 . S
Li1586 O1644 1.961 . S
Li1586 O1646 1.956 . S
Li1586 O1647 1.970 . S
Li1587 N1637 1.990 . S
Li1587 O1645 1.961 . S
Li1587 O1646 1.970 . S
Li1587 O1647 1.956 . S
C1588 C1590 1.348 . S
C1588 C1591 1.356 . S
C1588 O1644 1.325 . S
N1589 C1592 1.314 . S
N1589 C1593 1.279 . S
C1590 C1588 1.348 . S
C1590 C1592 1.353 . S
C1590 H1648 0.929 . S
C1591 C1588 1.356 . S
C1591 C1593 1.358 . S
C1591 H1649 0.930 . S
C1592 N1589 1.314 . S
C1592 C1590 1.353 . S
C1592 H1650 0.930 . S
C1593 N1589 1.279 . S
C1593 C1591 1.358 . S
C1593 H1651 0.930 . S
C1594 C1597 1.348 . S
C1594 C1598 1.356 . S
C1594 O1645 1.325 . S
C1595 N1596 1.279 . S
C1595 C1598 1.358 . S
C1595 H1652 0.930 . S
N1596 C1595 1.279 . S
N1596 C1599 1.314 . S
C1597 C1594 1.348 . S
C1597 C1599 1.353 . S
C1597 H1653 0.929 . S
C1598 C1594 1.356 . S
C1598 C1595 1.358 . S
C1598 H1654 0.930 . S
C1599 N1596 1.314 . S
C1599 C1597 1.353 . S
C1599 H1655 0.930 . S
C1600 N1601 1.314 . S
C1600 C1605 1.353 . S
C1600 H1606 0.930 . S
N1601 Li1584 1.990 . S
N1601 C1600 1.314 . S
N1601 C1603 1.279 . S
C1602 C1603 1.358 . S
C1602 C1604 1.356 . S
C1602 H1656 0.930 . S
C1603 N1601 1.279 . S
C1603 C1602 1.358 . S
C1603 H1607 0.930 . S
C1604 C1602 1.356 . S
C1604 C1605 1.348 . S
C1605 C1600 1.353 . S
C1605 C1604 1.348 . S
C1605 H1657 0.929 . S
H1606 C1600 0.930 . S
H1607 C1603 0.930 . S
C1608 N1609 1.314 . S
C1608 C1610 1.353 . S
C1608 H1614 0.930 . S
N1609 Li1585 1.990 . S
N1609 C1608 1.314 . S
N1609 C1612 1.279 . S
C1610 C1608 1.353 . S
C1610 C1613 1.348 . S
C1610 H1658 0.929 . S
C1611 C1612 1.358 . S
C1611 C1613 1.356 . S
C1611 H1659 0.930 . S
C1612 N1609 1.279 . S
C1612 C1611 1.358 . S
C1612 H1615 0.930 . S
C1613 C1610 1.348 . S
C1613 C1611 1.356 . S
H1614 C1608 0.930 . S
H1615 C1612 0.930 . S
C1616 C1618 1.348 . S
C1616 C1619 1.356 . S
C1616 O1646 1.325 . S
N1617 C1620 1.314 . S
N1617 C1621 1.279 . S
C1618 C1616 1.348 . S
C1618 C1620 1.353 . S
C1618 H1660 0.929 . S
C1619 C1616 1.356 . S
C1619 C1621 1.358 . S
C1619 H1661 0.930 . S
C1620 N1617 1.314 . S
C1620 C1618 1.353 . S
C1620 H1662 0.930 . S
C1621 N1617 1.279 . S
C1621 C1619 1.358 . S
C1621 H1663 0.930 . S
C1622 C1623 1.348 . S
C1622 C1624 1.356 . S
C1622 O1647 1.325 . S
C1623 C1622 1.348 . S
C1623 C1625 1.353 . S
C1623 H1664 0.929 . S
C1624 C1622 1.356 . S
C1624 C1626 1.358 . S
C1624 H1665 0.930 . S
C1625 C1623 1.353 . S
C1625 N1627 1.314 . S
C1625 H1666 0.930 . S
C1626 C1624 1.358 . S
C1626 N1627 1.279 . S
C1626 H1667 0.930 . S
N1627 C1625 1.314 . S
N1627 C1626 1.279 . S
C1628 C1630 1.353 . S
C1628 N1631 1.314 . S
C1628 H1634 0.930 . S
C1629 N1631 1.279 . S
C1629 C1632 1.358 . S
C1629 H1635 0.930 . S
C1630 C1628 1.353 . S
C1630 C1633 1.348 . S
C1630 H1668 0.929 . S
N1631 Li1586 1.990 . S
N1631 C1628 1.314 . S
N1631 C1629 1.279 . S
C1632 C1629 1.358 . S
C1632 C1633 1.356 . S
C1632 H1669 0.930 . S
C1633 C1630 1.348 . S
C1633 C1632 1.356 . S
H1634 C1628 0.930 . S
H1635 C1629 0.930 . S
C1636 N1637 1.314 . S
C1636 C1638 1.353 . S
C1636 H1642 0.930 . S
N1637 Li1587 1.990 . S
N1637 C1636 1.314 . S
N1637 C1640 1.279 . S
C1638 C1636 1.353 . S
C1638 C1641 1.348 . S
C1638 H1670 0.929 . S
C1639 C1640 1.358 . S
C1639 C1641 1.356 . S
C1639 H1671 0.930 . S
C1640 N1637 1.279 . S
C1640 C1639 1.358 . S
C1640 H1643 0.930 . S
C1641 C1638 1.348 . S
C1641 C1639 1.356 . S
H1642 C1636 0.930 . S
H1643 C1640 0.930 . S
O1644 Li1584 1.956 . S
O1644 Li1585 1.970 . S
O1644 Li1586 1.961 . S
O1644 C1588 1.325 . S
O1645 Li1584 1.970 . S
O1645 Li1585 1.956 . S
O1645 Li1587 1.961 . S
O1645 C1594 1.325 . S
O1646 Li1584 1.961 . S
O1646 Li1586 1.956 . S
O1646 Li1587 1.970 . S
O1646 C1616 1.325 . S
O1647 Li1585 1.961 . S
O1647 Li1586 1.970 . S
O1647 Li1587 1.956 . S
O1647 C1622 1.325 . S
H1648 C1590 0.929 . S
H1649 C1591 0.930 . S
H1650 C1592 0.930 . S
H1651 C1593 0.930 . S
H1652 C1595 0.930 . S
H1653 C1597 0.929 . S
H1654 C1598 0.930 . S
H1655 C1599 0.930 . S
H1656 C1602 0.930 . S
H1657 C1605 0.929 . S
H1658 C1610 0.929 . S
H1659 C1611 0.930 . S
H1660 C1618 0.929 . S
H1661 C1619 0.930 . S
H1662 C1620 0.930 . S
H1663 C1621 0.930 . S
H1664 C1623 0.929 . S
H1665 C1624 0.930 . S
H1666 C1625 0.930 . S
H1667 C1626 0.930 . S
H1668 C1630 0.929 . S
H1669 C1632 0.930 . S
H1670 C1638 0.929 . S
H1671 C1639 0.930 . S
Li1672 N1689 1.990 . S
Li1672 O1732 1.956 . S
Li1672 O1733 1.970 . S
Li1672 O1734 1.961 . S
Li1673 N1697 1.990 . S
Li1673 O1732 1.970 . S
Li1673 O1733 1.956 . S
Li1673 O1735 1.961 . S
Li1674 N1719 1.990 . S
Li1674 O1732 1.961 . S
Li1674 O1734 1.956 . S
Li1674 O1735 1.970 . S
Li1675 N1725 1.990 . S
Li1675 O1733 1.961 . S
Li1675 O1734 1.970 . S
Li1675 O1735 1.956 . S
C1676 C1678 1.348 . S
C1676 C1679 1.356 . S
C1676 O1732 1.325 . S
N1677 C1680 1.314 . S
N1677 C1681 1.279 . S
C1678 C1676 1.348 . S
C1678 C1680 1.353 . S
C1678 H1736 0.929 . S
C1679 C1676 1.356 . S
C1679 C1681 1.358 . S
C1679 H1737 0.930 . S
C1680 N1677 1.314 . S
C1680 C1678 1.353 . S
C1680 H1738 0.930 . S
C1681 N1677 1.279 . S
C1681 C1679 1.358 . S
C1681 H1739 0.930 . S
C1682 C1685 1.348 . S
C1682 C1686 1.356 . S
C1682 O1733 1.325 . S
C1683 N1684 1.279 . S
C1683 C1686 1.358 . S
C1683 H1740 0.930 . S
N1684 C1683 1.279 . S
N1684 C1687 1.314 . S
C1685 C1682 1.348 . S
C1685 C1687 1.353 . S
C1685 H1741 0.929 . S
C1686 C1682 1.356 . S
C1686 C1683 1.358 . S
C1686 H1742 0.930 . S
C1687 N1684 1.314 . S
C1687 C1685 1.353 . S
C1687 H1743 0.930 . S
C1688 N1689 1.314 . S
C1688 C1693 1.353 . S
C1688 H1694 0.930 . S
N1689 Li1672 1.990 . S
N1689 C1688 1.314 . S
N1689 C1691 1.279 . S
C1690 C1691 1.358 . S
C1690 C1692 1.356 . S
C1690 H1744 0.930 . S
C1691 N1689 1.279 . S
C1691 C1690 1.358 . S
C1691 H1695 0.930 . S
C1692 C1690 1.356 . S
C1692 C1693 1.348 . S
C1693 C1688 1.353 . S
C1693 C1692 1.348 . S
C1693 H1745 0.929 . S
H1694 C1688 0.930 . S
H1695 C1691 0.930 . S
C1696 N1697 1.314 . S
C1696 C1698 1.353 . S
C1696 H1702 0.930 . S
N1697 Li1673 1.990 . S
N1697 C1696 1.314 . S
N1697 C1700 1.279 . S
C1698 C1696 1.353 . S
C1698 C1701 1.348 . S
C1698 H1746 0.929 . S
C1699 C1700 1.358 . S
C1699 C1701 1.356 . S
C1699 H1747 0.930 . S
C1700 N1697 1.279 . S
C1700 C1699 1.358 . S
C1700 H1703 0.930 . S
C1701 C1698 1.348 . S
C1701 C1699 1.356 . S
H1702 C1696 0.930 . S
H1703 C1700 0.930 . S
C1704 C1706 1.348 . S
C1704 C1707 1.356 . S
C1704 O1734 1.325 1_565 S
N1705 C1708 1.314 . S
N1705 C1709 1.279 . S
C1706 C1704 1.348 . S
C1706 C1708 1.353 . S
C1706 H1748 0.929 . S
C1707 C1704 1.356 . S
C1707 C1709 1.358 . S
C1707 H1749 0.930 1_565 S
C1708 N1705 1.314 . S
C1708 C1706 1.353 . S
C1708 H1750 0.930 . S
C1709 N1705 1.279 . S
C1709 C1707 1.358 . S
C1709 H1751 0.930 . S
C1710 C1711 1.348 . S
C1710 C1712 1.356 . S
C1710 O1735 1.325 . S
C1711 C1710 1.348 . S
C1711 C1713 1.353 . S
C1711 H1752 0.929 . S
C1712 C1710 1.356 . S
C1712 C1714 1.358 . S
C1712 H1753 0.930 . S
C1713 C1711 1.353 . S
C1713 N1715 1.314 . S
C1713 H1754 0.930 . S
C1714 C1712 1.358 . S
C1714 N1715 1.279 . S
C1714 H1755 0.930 . S
N1715 C1713 1.314 . S
N1715 C1714 1.279 . S
C1716 C1718 1.353 . S
C1716 N1719 1.314 . S
C1716 H1722 0.930 . S
C1717 N1719 1.279 . S
C1717 C1720 1.358 . S
C1717 H1723 0.898 1_545 S
C1718 C1716 1.353 . S
C1718 C1721 1.348 . S
C1718 H1756 0.929 . S
N1719 Li1674 1.990 . S
N1719 C1716 1.314 . S
N1719 C1717 1.279 . S
C1720 C1717 1.358 . S
C1720 C1721 1.356 . S
C1720 H1757 0.930 1_545 S
C1721 C1718 1.348 . S
C1721 C1720 1.356 . S
H1722 C1716 0.930 . S
H1723 C1717 0.898 1_565 S
C1724 N1725 1.314 1_565 S
C1724 C1726 1.353 . S
C1724 H1730 0.930 . S
N1725 Li1675 1.990 . S
N1725 C1724 1.314 1_545 S
N1725 C1728 1.279 1_545 S
C1726 C1724 1.353 . S
C1726 C1729 1.348 . S
C1726 H1758 0.929 . S
C1727 C1728 1.358 . S
C1727 C1729 1.356 . S
C1727 H1759 0.930 . S
C1728 N1725 1.279 1_565 S
C1728 C1727 1.358 . S
C1728 H1731 0.933 . S
C1729 C1726 1.348 . S
C1729 C1727 1.356 . S
H1730 C1724 0.930 . S
H1731 C1728 0.933 . S
O1732 Li1672 1.956 . S
O1732 Li1673 1.970 . S
O1732 Li1674 1.961 . S
O1732 C1676 1.325 . S
O1733 Li1672 1.970 . S
O1733 Li1673 1.956 . S
O1733 Li1675 1.961 . S
O1733 C1682 1.325 . S
O1734 Li1672 1.961 . S
O1734 Li1674 1.956 . S
O1734 Li1675 1.970 . S
O1734 C1704 1.325 1_545 S
O1735 Li1673 1.961 . S
O1735 Li1674 1.970 . S
O1735 Li1675 1.956 . S
O1735 C1710 1.325 . S
H1736 C1678 0.929 . S
H1737 C1679 0.930 . S
H1738 C1680 0.930 . S
H1739 C1681 0.930 . S
H1740 C1683 0.930 . S
H1741 C1685 0.929 . S
H1742 C1686 0.930 . S
H1743 C1687 0.930 . S
H1744 C1690 0.930 . S
H1745 C1693 0.929 . S
H1746 C1698 0.929 . S
H1747 C1699 0.930 . S
H1748 C1706 0.929 . S
H1749 C1707 0.930 1_545 S
H1750 C1708 0.930 . S
H1751 C1709 0.930 . S
H1752 C1711 0.929 . S
H1753 C1712 0.930 . S
H1754 C1713 0.930 . S
H1755 C1714 0.930 . S
H1756 C1718 0.929 . S
H1757 C1720 0.930 1_565 S
H1758 C1726 0.929 . S
H1759 C1727 0.930 . S
Li1760 N1777 1.990 . S
Li1760 O1820 1.956 . S
Li1760 O1821 1.970 . S
Li1760 O1822 1.961 . S
Li1761 N1785 1.990 . S
Li1761 O1820 1.973 1_556 S
Li1761 O1821 1.941 1_556 S
Li1761 O1823 1.976 . S
Li1762 N1807 1.990 . S
Li1762 O1820 1.961 1_556 S
Li1762 O1822 1.956 1_556 S
Li1762 O1823 1.970 . S
Li1763 N1813 1.990 . S
Li1763 O1821 1.961 1_556 S
Li1763 O1822 1.970 1_556 S
Li1763 O1823 1.956 . S
C1764 C1766 1.348 . S
C1764 C1767 1.356 . S
C1764 O1820 1.325 . S
N1765 C1768 1.314 . S
N1765 C1769 1.279 . S
C1766 C1764 1.348 . S
C1766 C1768 1.353 . S
C1766 H1824 0.929 . S
C1767 C1764 1.356 . S
C1767 C1769 1.358 . S
C1767 H1825 0.930 . S
C1768 N1765 1.314 . S
C1768 C1766 1.353 . S
C1768 H1826 0.930 . S
C1769 N1765 1.279 . S
C1769 C1767 1.358 . S
C1769 H1827 0.930 . S
C1770 C1773 1.348 . S
C1770 C1774 1.356 . S
C1770 O1821 1.325 . S
C1771 N1772 1.279 . S
C1771 C1774 1.358 . S
C1771 H1828 0.930 . S
N1772 C1771 1.279 . S
N1772 C1775 1.314 . S
C1773 C1770 1.348 . S
C1773 C1775 1.353 . S
C1773 H1829 0.929 . S
C1774 C1770 1.356 . S
C1774 C1771 1.358 . S
C1774 H1830 0.930 . S
C1775 N1772 1.314 . S
C1775 C1773 1.353 . S
C1775 H1831 0.930 . S
C1776 N1777 1.314 . S
C1776 C1781 1.353 . S
C1776 H1782 0.930 . S
N1777 Li1760 1.990 . S
N1777 C1776 1.314 . S
N1777 C1779 1.279 . S
C1778 C1779 1.358 . S
C1778 C1780 1.356 . S
C1778 H1832 0.930 . S
C1779 N1777 1.279 . S
C1779 C1778 1.358 . S
C1779 H1783 0.930 . S
C1780 C1778 1.356 . S
C1780 C1781 1.348 . S
C1781 C1776 1.353 . S
C1781 C1780 1.348 . S
C1781 H1833 0.929 . S
H1782 C1776 0.930 . S
H1783 C1779 0.930 . S
C1784 N1785 1.314 . S
C1784 C1786 1.353 . S
C1784 H1790 0.930 . S
N1785 Li1761 1.990 . S
N1785 C1784 1.314 . S
N1785 C1788 1.279 1_556 S
C1786 C1784 1.353 . S
C1786 C1789 1.348 . S
C1786 H1834 0.929 . S
C1787 C1788 1.358 . S
C1787 C1789 1.356 1_554 S
C1787 H1835 0.930 . S
C1788 N1785 1.279 1_554 S
C1788 C1787 1.358 . S
C1788 H1791 0.930 . S
C1789 C1786 1.348 . S
C1789 C1787 1.356 1_556 S
H1790 C1784 0.930 . S
H1791 C1788 0.930 . S
C1792 C1794 1.348 1_554 S
C1792 C1795 1.356 . S
C1792 O1822 1.325 . S
N1793 C1796 1.314 1_554 S
N1793 C1797 1.279 . S
C1794 C1792 1.348 1_556 S
C1794 C1796 1.353 . S
C1794 H1836 0.929 . S
C1795 C1792 1.356 . S
C1795 C1797 1.358 . S
C1795 H1837 0.930 . S
C1796 N1793 1.314 1_556 S
C1796 C1794 1.353 . S
C1796 H1838 0.930 . S
C1797 N1793 1.279 . S
C1797 C1795 1.358 . S
C1797 H1839 0.930 . S
C1798 C1799 1.348 . S
C1798 C1800 1.356 . S
C1798 O1823 1.325 . S
C1799 C1798 1.348 . S
C1799 C1801 1.353 . S
C1799 H1840 0.929 . S
C1800 C1798 1.356 . S
C1800 C1802 1.358 . S
C1800 H1841 0.930 . S
C1801 C1799 1.353 . S
C1801 N1803 1.314 . S
C1801 H1842 0.930 . S
C1802 C1800 1.358 . S
C1802 N1803 1.279 . S
C1802 H1843 0.930 . S
N1803 C1801 1.314 . S
N1803 C1802 1.279 . S
C1804 C1806 1.353 . S
C1804 N1807 1.314 . S
C1804 H1810 0.930 . S
C1805 N1807 1.279 . S
C1805 C1808 1.358 . S
C1805 H1811 0.930 . S
C1806 C1804 1.353 . S
C1806 C1809 1.348 . S
C1806 H1844 0.929 . S
N1807 Li1762 1.990 . S
N1807 C1804 1.314 . S
N1807 C1805 1.279 . S
C1808 C1805 1.358 . S
C1808 C1809 1.356 . S
C1808 H1845 0.930 . S
C1809 C1806 1.348 . S
C1809 C1808 1.356 . S
H1810 C1804 0.930 . S
H1811 C1805 0.930 . S
C1812 N1813 1.314 1_554 S
C1812 C1814 1.353 . S
C1812 H1818 0.930 . S
N1813 Li1763 1.990 . S
N1813 C1812 1.314 1_556 S
N1813 C1816 1.279 . S
C1814 C1812 1.353 . S
C1814 C1817 1.348 1_554 S
C1814 H1846 0.929 . S
C1815 C1816 1.358 . S
C1815 C1817 1.356 . S
C1815 H1847 0.930 . S
C1816 N1813 1.279 . S
C1816 C1815 1.358 . S
C1816 H1819 0.930 . S
C1817 C1814 1.348 1_556 S
C1817 C1815 1.356 . S
H1818 C1812 0.930 . S
H1819 C1816 0.930 . S
O1820 Li1760 1.956 . S
O1820 Li1761 1.973 1_554 S
O1820 Li1762 1.961 1_554 S
O1820 C1764 1.325 . S
O1821 Li1760 1.970 . S
O1821 Li1761 1.941 1_554 S
O1821 Li1763 1.961 1_554 S
O1821 C1770 1.325 . S
O1822 Li1760 1.961 . S
O1822 Li1762 1.956 1_554 S
O1822 Li1763 1.970 1_554 S
O1822 C1792 1.325 . S
O1823 Li1761 1.976 . S
O1823 Li1762 1.970 . S
O1823 Li1763 1.956 . S
O1823 C1798 1.325 . S
H1824 C1766 0.929 . S
H1825 C1767 0.930 . S
H1826 C1768 0.930 . S
H1827 C1769 0.930 . S
H1828 C1771 0.930 . S
H1829 C1773 0.929 . S
H1830 C1774 0.930 . S
H1831 C1775 0.930 . S
H1832 C1778 0.930 . S
H1833 C1781 0.929 . S
H1834 C1786 0.929 . S
H1835 C1787 0.930 . S
H1836 C1794 0.929 . S
H1837 C1795 0.930 . S
H1838 C1796 0.930 . S
H1839 C1797 0.930 . S
H1840 C1799 0.929 . S
H1841 C1800 0.930 . S
H1842 C1801 0.930 . S
H1843 C1802 0.930 . S
H1844 C1806 0.929 . S
H1845 C1808 0.930 . S
H1846 C1814 0.929 . S
H1847 C1815 0.930 . S
Li1848 N1865 1.990 . S
Li1848 O1908 1.956 . S
Li1848 O1909 1.970 . S
Li1848 O1910 1.961 . S
Li1849 N1873 1.990 . S
Li1849 O1908 1.970 . S
Li1849 O1909 1.956 . S
Li1849 O1911 1.961 . S
Li1850 N1895 1.990 . S
Li1850 O1908 1.961 . S
Li1850 O1910 1.956 . S
Li1850 O1911 1.970 . S
Li1851 N1901 1.990 . S
Li1851 O1909 1.961 . S
Li1851 O1910 1.970 . S
Li1851 O1911 1.956 . S
C1852 C1854 1.348 . S
C1852 C1855 1.356 . S
C1852 O1908 1.325 . S
N1853 C1856 1.314 . S
N1853 C1857 1.279 . S
C1854 C1852 1.348 . S
C1854 C1856 1.353 . S
C1854 H1912 0.929 . S
C1855 C1852 1.356 . S
C1855 C1857 1.358 . S
C1855 H1913 0.930 . S
C1856 N1853 1.314 . S
C1856 C1854 1.353 . S
C1856 H1914 0.930 . S
C1857 N1853 1.279 . S
C1857 C1855 1.358 . S
C1857 H1915 0.930 . S
C1858 C1861 1.348 . S
C1858 C1862 1.356 . S
C1858 O1909 1.325 . S
C1859 N1860 1.279 1_455 S
C1859 C1862 1.358 1_455 S
C1859 H1916 0.930 . S
N1860 C1859 1.279 1_655 S
N1860 C1863 1.314 . S
C1861 C1858 1.348 . S
C1861 C1863 1.353 . S
C1861 H1917 0.929 . S
C1862 C1858 1.356 . S
C1862 C1859 1.358 1_655 S
C1862 H1918 0.930 1_655 S
C1863 N1860 1.314 . S
C1863 C1861 1.353 . S
C1863 H1919 0.930 . S
C1864 N1865 1.314 . S
C1864 C1869 1.353 . S
C1864 H1870 0.930 . S
N1865 Li1848 1.990 . S
N1865 C1864 1.314 . S
N1865 C1867 1.279 . S
C1866 C1867 1.358 . S
C1866 C1868 1.356 . S
C1866 H1920 0.930 . S
C1867 N1865 1.279 . S
C1867 C1866 1.358 . S
C1867 H1871 0.930 . S
C1868 C1866 1.356 . S
C1868 C1869 1.348 . S
C1869 C1864 1.353 . S
C1869 C1868 1.348 . S
C1869 H1921 0.929 . S
H1870 C1864 0.930 . S
H1871 C1867 0.930 . S
C1872 N1873 1.314 . S
C1872 C1874 1.353 1_655 S
C1872 H1878 0.930 . S
N1873 Li1849 1.990 . S
N1873 C1872 1.314 . S
N1873 C1876 1.279 . S
C1874 C1872 1.353 1_455 S
C1874 C1877 1.348 . S
C1874 H1922 0.929 . S
C1875 C1876 1.358 1_455 S
C1875 C1877 1.356 . S
C1875 H1923 0.930 . S
C1876 N1873 1.279 . S
C1876 C1875 1.358 1_655 S
C1876 H1879 0.930 . S
C1877 C1874 1.348 . S
C1877 C1875 1.356 . S
H1878 C1872 0.930 . S
H1879 C1876 0.930 . S
C1880 C1882 1.348 . S
C1880 C1883 1.356 . S
C1880 O1910 1.325 . S
N1881 C1884 1.314 . S
N1881 C1885 1.279 . S
C1882 C1880 1.348 . S
C1882 C1884 1.353 . S
C1882 H1924 0.929 . S
C1883 C1880 1.356 . S
C1883 C1885 1.358 . S
C1883 H1925 0.930 . S
C1884 N1881 1.314 . S
C1884 C1882 1.353 . S
C1884 H1926 0.930 . S
C1885 N1881 1.279 . S
C1885 C1883 1.358 . S
C1885 H1927 0.930 . S
C1886 C1887 1.348 . S
C1886 C1888 1.356 1_655 S
C1886 O1911 1.325 . S
C1887 C1886 1.348 . S
C1887 C1889 1.353 . S
C1887 H1928 0.929 . S
C1888 C1886 1.356 1_455 S
C1888 C1890 1.358 . S
C1888 H1929 0.930 . S
C1889 C1887 1.353 . S
C1889 N1891 1.314 1_655 S
C1889 H1930 0.930 . S
C1890 C1888 1.358 . S
C1890 N1891 1.279 . S
C1890 H1931 0.930 . S
N1891 C1889 1.314 1_455 S
N1891 C1890 1.279 . S
C1892 C1894 1.353 . S
C1892 N1895 1.314 . S
C1892 H1898 0.930 . S
C1893 N1895 1.279 . S
C1893 C1896 1.358 . S
C1893 H1899 0.930 . S
C1894 C1892 1.353 . S
C1894 C1897 1.348 . S
C1894 H1932 0.929 . S
N1895 Li1850 1.990 . S
N1895 C1892 1.314 . S
N1895 C1893 1.279 . S
C1896 C1893 1.358 . S
C1896 C1897 1.356 . S
C1896 H1933 0.930 . S
C1897 C1894 1.348 . S
C1897 C1896 1.356 . S
H1898 C1892 0.930 . S
H1899 C1893 0.930 . S
C1900 N1901 1.314 . S
C1900 C1902 1.353 . S
C1900 H1906 0.930 . S
N1901 Li1851 1.990 . S
N1901 C1900 1.314 . S
N1901 C1904 1.279 . S
C1902 C1900 1.353 . S
C1902 C1905 1.348 1_655 S
C1902 H1934 0.929 . S
C1903 C1904 1.358 1_455 S
C1903 C1905 1.356 . S
C1903 H1935 0.930 . S
C1904 N1901 1.279 . S
C1904 C1903 1.358 1_655 S
C1904 H1907 0.930 . S
C1905 C1902 1.348 1_455 S
C1905 C1903 1.356 . S
H1906 C1900 0.930 . S
H1907 C1904 0.930 . S
O1908 Li1848 1.956 . S
O1908 Li1849 1.970 . S
O1908 Li1850 1.961 . S
O1908 C1852 1.325 . S
O1909 Li1848 1.970 . S
O1909 Li1849 1.956 . S
O1909 Li1851 1.961 . S
O1909 C1858 1.325 . S
O1910 Li1848 1.961 . S
O1910 Li1850 1.956 . S
O1910 Li1851 1.970 . S
O1910 C1880 1.325 . S
O1911 Li1849 1.961 . S
O1911 Li1850 1.970 . S
O1911 Li1851 1.956 . S
O1911 C1886 1.325 . S
H1912 C1854 0.929 . S
H1913 C1855 0.930 . S
H1914 C1856 0.930 . S
H1915 C1857 0.930 . S
H1916 C1859 0.930 . S
H1917 C1861 0.929 . S
H1918 C1862 0.930 1_455 S
H1919 C1863 0.930 . S
H1920 C1866 0.930 . S
H1921 C1869 0.929 . S
H1922 C1874 0.929 . S
H1923 C1875 0.930 . S
H1924 C1882 0.929 . S
H1925 C1883 0.930 . S
H1926 C1884 0.930 . S
H1927 C1885 0.930 . S
H1928 C1887 0.929 . S
H1929 C1888 0.930 . S
H1930 C1889 0.930 . S
H1931 C1890 0.930 . S
H1932 C1894 0.929 . S
H1933 C1896 0.930 . S
H1934 C1902 0.929 . S
H1935 C1903 0.930 . S
Li1936 N1953 1.990 . S
Li1936 O1996 1.956 . S
Li1936 O1997 1.970 . S
Li1936 O1998 1.961 . S
Li1937 N1961 1.990 . S
Li1937 O1996 1.970 . S
Li1937 O1997 1.956 . S
Li1937 O1999 1.961 . S
Li1938 N1983 1.990 . S
Li1938 O1996 1.961 . S
Li1938 O1998 1.956 . S
Li1938 O1999 1.970 . S
Li1939 N1989 1.990 . S
Li1939 O1997 1.961 . S
Li1939 O1998 1.970 . S
Li1939 O1999 1.956 . S
C1940 C1942 1.348 . S
C1940 C1943 1.356 . S
C1940 O1996 1.325 . S
N1941 C1944 1.314 . S
N1941 C1945 1.279 . S
C1942 C1940 1.348 . S
C1942 C1944 1.353 . S
C1942 H2000 0.929 . S
C1943 C1940 1.356 . S
C1943 C1945 1.358 . S
C1943 H2001 0.930 . S
C1944 N1941 1.314 . S
C1944 C1942 1.353 . S
C1944 H2002 0.930 . S
C1945 N1941 1.279 . S
C1945 C1943 1.358 . S
C1945 H2003 0.930 . S
C1946 C1949 1.348 . S
C1946 C1950 1.356 . S
C1946 O1997 1.325 . S
C1947 N1948 1.279 . S
C1947 C1950 1.358 . S
C1947 H2004 0.930 . S
N1948 C1947 1.279 . S
N1948 C1951 1.314 . S
C1949 C1946 1.348 . S
C1949 C1951 1.353 . S
C1949 H2005 0.929 . S
C1950 C1946 1.356 . S
C1950 C1947 1.358 . S
C1950 H2006 0.930 . S
C1951 N1948 1.314 . S
C1951 C1949 1.353 . S
C1951 H2007 0.930 . S
C1952 N1953 1.314 . S
C1952 C1957 1.353 . S
C1952 H1958 0.930 . S
N1953 Li1936 1.990 . S
N1953 C1952 1.314 . S
N1953 C1955 1.279 . S
C1954 C1955 1.358 . S
C1954 C1956 1.356 . S
C1954 H2008 0.930 . S
C1955 N1953 1.279 . S
C1955 C1954 1.358 . S
C1955 H1959 0.930 . S
C1956 C1954 1.356 . S
C1956 C1957 1.348 . S
C1957 C1952 1.353 . S
C1957 C1956 1.348 . S
C1957 H2009 0.929 . S
H1958 C1952 0.930 . S
H1959 C1955 0.930 . S
C1960 N1961 1.314 . S
C1960 C1962 1.353 . S
C1960 H1966 0.930 . S
N1961 Li1937 1.990 . S
N1961 C1960 1.314 . S
N1961 C1964 1.279 . S
C1962 C1960 1.353 . S
C1962 C1965 1.348 . S
C1962 H2010 0.929 . S
C1963 C1964 1.358 . S
C1963 C1965 1.356 . S
C1963 H2011 0.930 . S
C1964 N1961 1.279 . S
C1964 C1963 1.358 . S
C1964 H1967 0.930 . S
C1965 C1962 1.348 . S
C1965 C1963 1.356 . S
H1966 C1960 0.930 . S
H1967 C1964 0.930 . S
C1968 C1970 1.348 . S
C1968 C1971 1.356 . S
C1968 O1998 1.325 . S
N1969 C1972 1.314 . S
N1969 C1973 1.279 . S
C1970 C1968 1.348 . S
C1970 C1972 1.353 . S
C1970 H2012 0.929 . S
C1971 C1968 1.356 . S
C1971 C1973 1.358 . S
C1971 H2013 0.930 . S
C1972 N1969 1.314 . S
C1972 C1970 1.353 . S
C1972 H2014 0.930 . S
C1973 N1969 1.279 . S
C1973 C1971 1.358 . S
C1973 H2015 0.930 . S
C1974 C1975 1.348 . S
C1974 C1976 1.356 . S
C1974 O1999 1.325 . S
C1975 C1974 1.348 . S
C1975 C1977 1.353 . S
C1975 H2016 0.929 . S
C1976 C1974 1.356 . S
C1976 C1978 1.358 . S
C1976 H2017 0.930 . S
C1977 C1975 1.353 . S
C1977 N1979 1.314 . S
C1977 H2018 0.930 . S
C1978 C1976 1.358 . S
C1978 N1979 1.279 . S
C1978 H2019 0.930 . S
N1979 C1977 1.314 . S
N1979 C1978 1.279 . S
C1980 C1982 1.353 . S
C1980 N1983 1.314 . S
C1980 H1986 0.930 . S
C1981 N1983 1.279 . S
C1981 C1984 1.358 . S
C1981 H1987 0.930 . S
C1982 C1980 1.353 . S
C1982 C1985 1.348 . S
C1982 H2020 0.929 . S
N1983 Li1938 1.990 . S
N1983 C1980 1.314 . S
N1983 C1981 1.279 . S
C1984 C1981 1.358 . S
C1984 C1985 1.356 . S
C1984 H2021 0.930 . S
C1985 C1982 1.348 . S
C1985 C1984 1.356 . S
H1986 C1980 0.930 . S
H1987 C1981 0.930 . S
C1988 N1989 1.314 . S
C1988 C1990 1.353 1_655 S
C1988 H1994 0.930 . S
N1989 Li1939 1.990 . S
N1989 C1988 1.314 . S
N1989 C1992 1.279 . S
C1990 C1988 1.353 1_455 S
C1990 C1993 1.348 . S
C1990 H2022 0.929 . S
C1991 C1992 1.358 . S
C1991 C1993 1.356 1_655 S
C1991 H2023 0.930 1_655 S
C1992 N1989 1.279 . S
C1992 C1991 1.358 . S
C1992 H1995 0.930 . S
C1993 C1990 1.348 . S
C1993 C1991 1.356 1_455 S
H1994 C1988 0.930 . S
H1995 C1992 0.930 . S
O1996 Li1936 1.956 . S
O1996 Li1937 1.970 . S
O1996 Li1938 1.961 . S
O1996 C1940 1.325 . S
O1997 Li1936 1.970 . S
O1997 Li1937 1.956 . S
O1997 Li1939 1.961 . S
O1997 C1946 1.325 . S
O1998 Li1936 1.961 . S
O1998 Li1938 1.956 . S
O1998 Li1939 1.970 . S
O1998 C1968 1.325 . S
O1999 Li1937 1.961 . S
O1999 Li1938 1.970 . S
O1999 Li1939 1.956 . S
O1999 C1974 1.325 . S
H2000 C1942 0.929 . S
H2001 C1943 0.930 . S
H2002 C1944 0.930 . S
H2003 C1945 0.930 . S
H2004 C1947 0.930 . S
H2005 C1949 0.929 . S
H2006 C1950 0.930 . S
H2007 C1951 0.930 . S
H2008 C1954 0.930 . S
H2009 C1957 0.929 . S
H2010 C1962 0.929 . S
H2011 C1963 0.930 . S
H2012 C1970 0.929 . S
H2013 C1971 0.930 . S
H2014 C1972 0.930 . S
H2015 C1973 0.930 . S
H2016 C1975 0.929 . S
H2017 C1976 0.930 . S
H2018 C1977 0.930 . S
H2019 C1978 0.930 . S
H2020 C1982 0.929 . S
H2021 C1984 0.930 . S
H2022 C1990 0.929 . S
H2023 C1991 0.930 1_455 S
Li2024 N2041 1.990 . S
Li2024 O2084 1.956 . S
Li2024 O2085 1.970 . S
Li2024 O2086 1.961 . S
Li2025 N2049 1.990 . S
Li2025 O2084 1.970 . S
Li2025 O2085 1.956 . S
Li2025 O2087 1.961 . S
Li2026 N2071 1.990 . S
Li2026 O2084 1.961 . S
Li2026 O2086 1.956 . S
Li2026 O2087 1.970 . S
Li2027 N2077 1.990 . S
Li2027 O2085 1.961 . S
Li2027 O2086 1.970 . S
Li2027 O2087 1.956 . S
C2028 C2030 1.348 . S
C2028 C2031 1.356 . S
C2028 O2084 1.325 . S
N2029 C2032 1.314 . S
N2029 C2033 1.279 . S
C2030 C2028 1.348 . S
C2030 C2032 1.353 . S
C2030 H2088 0.929 . S
C2031 C2028 1.356 . S
C2031 C2033 1.358 . S
C2031 H2089 0.930 . S
C2032 N2029 1.314 . S
C2032 C2030 1.353 . S
C2032 H2090 0.930 . S
C2033 N2029 1.279 . S
C2033 C2031 1.358 . S
C2033 H2091 0.930 . S
C2034 C2037 1.348 . S
C2034 C2038 1.356 . S
C2034 O2085 1.325 . S
C2035 N2036 1.279 . S
C2035 C2038 1.358 . S
C2035 H2092 0.930 . S
N2036 C2035 1.279 . S
N2036 C2039 1.314 . S
C2037 C2034 1.348 . S
C2037 C2039 1.353 . S
C2037 H2093 0.929 . S
C2038 C2034 1.356 . S
C2038 C2035 1.358 . S
C2038 H2094 0.930 . S
C2039 N2036 1.314 . S
C2039 C2037 1.353 . S
C2039 H2095 0.930 . S
C2040 N2041 1.314 . S
C2040 C2045 1.353 . S
C2040 H2046 0.930 . S
N2041 Li2024 1.990 . S
N2041 C2040 1.314 . S
N2041 C2043 1.279 . S
C2042 C2043 1.358 . S
C2042 C2044 1.356 . S
C2042 H2096 0.930 . S
C2043 N2041 1.279 . S
C2043 C2042 1.358 . S
C2043 H2047 0.930 . S
C2044 C2042 1.356 . S
C2044 C2045 1.348 . S
C2045 C2040 1.353 . S
C2045 C2044 1.348 . S
C2045 H2097 0.929 . S
H2046 C2040 0.930 . S
H2047 C2043 0.930 . S
C2048 N2049 1.314 . S
C2048 C2050 1.353 . S
C2048 H2054 0.930 . S
N2049 Li2025 1.990 . S
N2049 C2048 1.314 . S
N2049 C2052 1.279 . S
C2050 C2048 1.353 . S
C2050 C2053 1.348 . S
C2050 H2098 0.929 . S
C2051 C2052 1.358 . S
C2051 C2053 1.356 . S
C2051 H2099 0.930 . S
C2052 N2049 1.279 . S
C2052 C2051 1.358 . S
C2052 H2055 0.930 . S
C2053 C2050 1.348 . S
C2053 C2051 1.356 . S
H2054 C2048 0.930 . S
H2055 C2052 0.930 . S
C2056 C2058 1.348 . S
C2056 C2059 1.356 . S
C2056 O2086 1.325 . S
N2057 C2060 1.314 . S
N2057 C2061 1.279 . S
C2058 C2056 1.348 . S
C2058 C2060 1.353 . S
C2058 H2100 0.929 . S
C2059 C2056 1.356 . S
C2059 C2061 1.358 . S
C2059 H2101 0.930 . S
C2060 N2057 1.314 . S
C2060 C2058 1.353 . S
C2060 H2102 0.930 . S
C2061 N2057 1.279 . S
C2061 C2059 1.358 . S
C2061 H2103 0.930 . S
C2062 C2063 1.348 . S
C2062 C2064 1.356 . S
C2062 O2087 1.325 . S
C2063 C2062 1.348 . S
C2063 C2065 1.353 . S
C2063 H2104 0.929 . S
C2064 C2062 1.356 . S
C2064 C2066 1.358 . S
C2064 H2105 0.930 . S
C2065 C2063 1.353 . S
C2065 N2067 1.314 . S
C2065 H2106 0.930 . S
C2066 C2064 1.358 . S
C2066 N2067 1.279 . S
C2066 H2107 0.930 . S
N2067 C2065 1.314 . S
N2067 C2066 1.279 . S
C2068 C2070 1.353 . S
C2068 N2071 1.314 . S
C2068 H2074 0.930 . S
C2069 N2071 1.279 . S
C2069 C2072 1.358 . S
C2069 H2075 0.930 . S
C2070 C2068 1.353 . S
C2070 C2073 1.348 . S
C2070 H2108 0.929 . S
N2071 Li2026 1.990 . S
N2071 C2068 1.314 . S
N2071 C2069 1.279 . S
C2072 C2069 1.358 . S
C2072 C2073 1.356 . S
C2072 H2109 0.930 . S
C2073 C2070 1.348 . S
C2073 C2072 1.356 . S
H2074 C2068 0.930 . S
H2075 C2069 0.930 . S
C2076 N2077 1.314 . S
C2076 C2078 1.353 . S
C2076 H2082 0.930 . S
N2077 Li2027 1.990 . S
N2077 C2076 1.314 . S
N2077 C2080 1.279 . S
C2078 C2076 1.353 . S
C2078 C2081 1.348 . S
C2078 H2110 0.929 . S
C2079 C2080 1.358 . S
C2079 C2081 1.356 . S
C2079 H2111 0.930 . S
C2080 N2077 1.279 . S
C2080 C2079 1.358 . S
C2080 H2083 0.930 . S
C2081 C2078 1.348 . S
C2081 C2079 1.356 . S
H2082 C2076 0.930 . S
H2083 C2080 0.930 . S
O2084 Li2024 1.956 . S
O2084 Li2025 1.970 . S
O2084 Li2026 1.961 . S
O2084 C2028 1.325 . S
O2085 Li2024 1.970 . S
O2085 Li2025 1.956 . S
O2085 Li2027 1.961 . S
O2085 C2034 1.325 . S
O2086 Li2024 1.961 . S
O2086 Li2026 1.956 . S
O2086 Li2027 1.970 . S
O2086 C2056 1.325 . S
O2087 Li2025 1.961 . S
O2087 Li2026 1.970 . S
O2087 Li2027 1.956 . S
O2087 C2062 1.325 . S
H2088 C2030 0.929 . S
H2089 C2031 0.930 . S
H2090 C2032 0.930 . S
H2091 C2033 0.930 . S
H2092 C2035 0.930 . S
H2093 C2037 0.929 . S
H2094 C2038 0.930 . S
H2095 C2039 0.930 . S
H2096 C2042 0.930 . S
H2097 C2045 0.929 . S
H2098 C2050 0.929 . S
H2099 C2051 0.930 . S
H2100 C2058 0.929 . S
H2101 C2059 0.930 . S
H2102 C2060 0.930 . S
H2103 C2061 0.930 . S
H2104 C2063 0.929 . S
H2105 C2064 0.930 . S
H2106 C2065 0.930 . S
H2107 C2066 0.930 . S
H2108 C2070 0.929 . S
H2109 C2072 0.930 . S
H2110 C2078 0.929 . S
H2111 C2079 0.930 . S
Gd2112 N2143 2.661 . S
Gd2112 N2149 2.601 . S
Gd2112 O2156 2.545 . S
Gd2112 O2157 2.606 1_545 S
Gd2112 O2159 2.429 . S
Gd2112 O2160 2.545 1_545 S
Gd2112 O2161 2.412 . S
Gd2112 O2163 2.362 . S
Gd2112 O2164 2.324 1_554 S
Gd2112 C2171 2.828 . S
Gd2113 N2122 2.661 1_546 S
Gd2113 N2126 2.601 1_545 S
Gd2113 O2157 2.362 1_546 S
Gd2113 O2158 2.324 1_556 S
Gd2113 O2162 2.545 1_455 S
Gd2113 O2163 2.606 1_556 S
Gd2113 O2165 2.429 . S
Gd2113 O2166 2.545 . S
Gd2113 O2167 2.412 1_456 S
Gd2113 C2180 2.828 1_455 S
C2114 C2117 1.417 1_554 S
C2114 C2119 1.431 1_554 S
C2114 C2120 1.412 . S
C2115 C2118 1.437 . S
C2115 C2119 1.317 . S
C2115 H2134 0.929 . S
C2116 C2117 1.426 . S
C2116 C2118 1.413 . S
C2116 N2126 1.359 1_655 S
C2117 C2114 1.417 1_556 S
C2117 C2116 1.426 . S
C2117 N2122 1.350 1_656 S
C2118 C2115 1.437 . S
C2118 C2116 1.413 . S
C2118 C2128 1.391 . S
C2119 C2114 1.431 1_556 S
C2119 C2115 1.317 . S
C2119 H2130 0.930 . S
C2120 C2114 1.412 . S
C2120 C2121 1.355 1_655 S
C2120 H2132 0.930 . S
C2121 C2120 1.355 1_455 S
C2121 C2123 1.402 . S
C2121 H2133 0.930 . S
N2122 Gd2113 2.661 1_564 S
N2122 C2117 1.350 1_454 S
N2122 C2123 1.307 . S
C2123 C2121 1.402 . S
C2123 N2122 1.307 . S
C2123 H2124 0.930 . S
H2124 C2123 0.930 . S
C2125 N2126 1.334 . S
C2125 C2127 1.394 1_455 S
C2125 H2129 0.930 . S
N2126 Gd2113 2.601 1_565 S
N2126 C2116 1.359 1_455 S
N2126 C2125 1.334 . S
C2127 C2125 1.394 1_655 S
C2127 C2128 1.359 . S
C2127 H2139 0.930 . S
C2128 C2118 1.391 . S
C2128 C2127 1.359 . S
C2128 H2140 0.929 . S
H2129 C2125 0.930 . S
H2130 C2119 0.930 . S
H2131 C2148 0.930 . S
H2132 C2120 0.930 . S
H2133 C2121 0.930 . S
H2134 C2115 0.929 . S
H2135 C2153 0.930 . S
H2136 C2144 0.930 . S
H2137 C2145 0.930 . S
H2138 C2169 0.929 . S
H2139 C2127 0.930 . S
H2140 C2128 0.929 . S
H2141 C2170 0.930 . S
H2142 C2151 0.930 . S
N2143 Gd2112 2.661 . S
N2143 C2147 1.350 . S
N2143 C2148 1.307 1_554 S
C2144 H2136 0.930 . S
C2144 C2145 1.355 . S
C2144 C2146 1.412 1_556 S
C2145 H2137 0.930 . S
C2145 C2144 1.355 . S
C2145 C2148 1.402 . S
C2146 C2144 1.412 1_554 S
C2146 C2147 1.417 . S
C2146 C2170 1.431 . S
C2147 N2143 1.350 . S
C2147 C2146 1.417 . S
C2147 C2150 1.426 . S
C2148 H2131 0.930 . S
C2148 N2143 1.307 1_556 S
C2148 C2145 1.402 . S
N2149 Gd2112 2.601 . S
N2149 C2150 1.359 . S
N2149 C2153 1.334 . S
C2150 C2147 1.426 . S
C2150 N2149 1.359 . S
C2150 C2154 1.413 . S
C2151 H2142 0.930 . S
C2151 C2152 1.359 . S
C2151 C2153 1.394 . S
C2152 C2151 1.359 . S
C2152 C2154 1.391 . S
C2152 H2155 0.929 . S
C2153 H2135 0.930 . S
C2153 N2149 1.334 . S
C2153 C2151 1.394 . S
C2154 C2150 1.413 . S
C2154 C2152 1.391 . S
C2154 C2169 1.437 . S
H2155 C2152 0.929 . S
O2156 Gd2112 2.545 . S
O2156 C2171 1.258 . S
O2157 Gd2112 2.606 1_565 S
O2157 Gd2113 2.362 1_564 S
O2157 C2168 1.284 . S
O2158 Gd2113 2.324 1_554 S
O2158 C2178 1.254 . S
O2159 Gd2112 2.429 . S
O2159 C2178 1.268 . S
O2160 Gd2112 2.545 1_565 S
O2160 C2168 1.250 . S
O2161 Gd2112 2.412 . S
O2161 C2171 1.252 . S
O2162 Gd2113 2.545 1_655 S
O2162 C2180 1.258 . S
O2163 Gd2112 2.362 . S
O2163 Gd2113 2.606 1_554 S
O2163 C2179 1.284 . S
O2164 Gd2112 2.324 1_556 S
O2164 C2187 1.254 . S
O2165 Gd2113 2.429 . S
O2165 C2187 1.268 . S
O2166 Gd2113 2.545 . S
O2166 C2179 1.250 1_556 S
O2167 Gd2113 2.412 1_654 S
O2167 C2180 1.252 1_554 S
C2168 O2157 1.284 . S
C2168 O2160 1.250 . S
C2169 H2138 0.929 . S
C2169 C2154 1.437 . S
C2169 C2170 1.317 . S
C2170 H2141 0.930 . S
C2170 C2146 1.431 . S
C2170 C2169 1.317 . S
C2171 Gd2112 2.828 . S
C2171 O2156 1.258 . S
C2171 O2161 1.252 . S
C2171 C2172 1.497 . S
C2172 C2171 1.497 . S
C2172 C2173 1.395 . S
C2172 C2174 1.380 . S
C2173 C2172 1.395 . S
C2173 C2176 1.398 . S
C2173 H2188 0.930 . S
C2174 C2172 1.380 . S
C2174 C2175 1.391 . S
C2174 H2189 0.930 . S
C2175 C2174 1.391 . S
C2175 C2177 1.387 . S
C2176 C2173 1.398 . S
C2176 C2177 1.380 . S
C2176 H2190 0.930 . S
C2177 C2175 1.387 . S
C2177 C2176 1.380 . S
C2177 H2191 0.930 . S
C2178 O2158 1.254 . S
C2178 O2159 1.268 . S
C2179 O2163 1.284 . S
C2179 O2166 1.250 1_554 S
C2180 Gd2113 2.828 1_655 S
C2180 O2162 1.258 . S
C2180 O2167 1.252 1_556 S
C2180 C2181 1.497 . S
C2181 C2180 1.497 . S
C2181 C2182 1.395 . S
C2181 C2183 1.380 . S
C2182 C2181 1.395 . S
C2182 C2185 1.398 . S
C2182 H2192 0.930 1_545 S
C2183 C2181 1.380 . S
C2183 C2184 1.391 . S
C2183 H2193 0.930 1_556 S
C2184 C2183 1.391 . S
C2184 C2186 1.387 . S
C2185 C2182 1.398 . S
C2185 C2186 1.380 . S
C2185 H2194 0.930 1_545 S
C2186 C2184 1.387 . S
C2186 C2185 1.380 . S
C2186 H2195 0.930 . S
C2187 O2164 1.254 . S
C2187 O2165 1.268 . S
H2188 C2173 0.930 . S
H2189 C2174 0.930 . S
H2190 C2176 0.930 . S
H2191 C2177 0.930 . S
H2192 C2182 0.930 1_565 S
H2193 C2183 0.930 1_554 S
H2194 C2185 0.930 1_565 S
H2195 C2186 0.930 . S
Gd2196 N2227 2.661 . S
Gd2196 N2233 2.601 . S
Gd2196 O2240 2.545 . S
Gd2196 O2241 2.606 . S
Gd2196 O2243 2.429 . S
Gd2196 O2244 2.545 . S
Gd2196 O2245 2.412 . S
Gd2196 O2247 2.362 . S
Gd2196 O2248 2.324 . S
Gd2196 C2255 2.828 . S
Gd2197 N2206 2.661 . S
Gd2197 N2210 2.601 . S
Gd2197 O2241 2.362 . S
Gd2197 O2242 2.324 . S
Gd2197 O2246 2.545 . S
Gd2197 O2247 2.606 . S
Gd2197 O2249 2.429 . S
Gd2197 O2250 2.545 . S
Gd2197 O2251 2.412 . S
Gd2197 C2264 2.828 . S
C2198 C2201 1.417 . S
C2198 C2203 1.431 . S
C2198 C2204 1.412 . S
C2199 C2202 1.437 . S
C2199 C2203 1.317 . S
C2199 H2218 0.929 . S
C2200 C2201 1.426 . S
C2200 C2202 1.413 . S
C2200 N2210 1.359 . S
C2201 C2198 1.417 . S
C2201 C2200 1.426 . S
C2201 N2206 1.350 . S
C2202 C2199 1.437 . S
C2202 C2200 1.413 . S
C2202 C2212 1.391 . S
C2203 C2198 1.431 . S
C2203 C2199 1.317 . S
C2203 H2214 0.930 . S
C2204 C2198 1.412 . S
C2204 C2205 1.355 . S
C2204 H2216 0.930 . S
C2205 C2204 1.355 . S
C2205 C2207 1.402 . S
C2205 H2217 0.930 . S
N2206 Gd2197 2.661 . S
N2206 C2201 1.350 . S
N2206 C2207 1.307 . S
C2207 C2205 1.402 . S
C2207 N2206 1.307 . S
C2207 H2208 0.930 . S
H2208 C2207 0.930 . S
C2209 N2210 1.334 . S
C2209 C2211 1.394 . S
C2209 H2213 0.930 . S
N2210 Gd2197 2.601 . S
N2210 C2200 1.359 . S
N2210 C2209 1.334 . S
C2211 C2209 1.394 . S
C2211 C2212 1.359 . S
C2211 H2223 0.930 . S
C2212 C2202 1.391 . S
C2212 C2211 1.359 . S
C2212 H2224 0.929 . S
H2213 C2209 0.930 . S
H2214 C2203 0.930 . S
H2215 C2232 0.930 . S
H2216 C2204 0.930 . S
H2217 C2205 0.930 . S
H2218 C2199 0.929 . S
H2219 C2237 0.930 . S
H2220 C2228 0.930 . S
H2221 C2229 0.930 . S
H2222 C2253 0.929 . S
H2223 C2211 0.930 . S
H2224 C2212 0.929 . S
H2225 C2254 0.930 . S
H2226 C2235 0.930 . S
N2227 Gd2196 2.661 . S
N2227 C2231 1.350 . S
N2227 C2232 1.307 . S
C2228 H2220 0.930 . S
C2228 C2229 1.355 . S
C2228 C2230 1.412 . S
C2229 H2221 0.930 . S
C2229 C2228 1.355 . S
C2229 C2232 1.402 . S
C2230 C2228 1.412 . S
C2230 C2231 1.417 . S
C2230 C2254 1.431 . S
C2231 N2227 1.350 . S
C2231 C2230 1.417 . S
C2231 C2234 1.426 . S
C2232 H2215 0.930 . S
C2232 N2227 1.307 . S
C2232 C2229 1.402 . S
N2233 Gd2196 2.601 . S
N2233 C2234 1.359 . S
N2233 C2237 1.334 . S
C2234 C2231 1.426 . S
C2234 N2233 1.359 . S
C2234 C2238 1.413 . S
C2235 H2226 0.930 . S
C2235 C2236 1.359 . S
C2235 C2237 1.394 . S
C2236 C2235 1.359 . S
C2236 C2238 1.391 . S
C2236 H2239 0.929 . S
C2237 H2219 0.930 . S
C2237 N2233 1.334 . S
C2237 C2235 1.394 . S
C2238 C2234 1.413 . S
C2238 C2236 1.391 . S
C2238 C2253 1.437 . S
H2239 C2236 0.929 . S
O2240 Gd2196 2.545 . S
O2240 C2255 1.258 . S
O2241 Gd2196 2.606 . S
O2241 Gd2197 2.362 . S
O2241 C2252 1.284 . S
O2242 Gd2197 2.324 . S
O2242 C2262 1.254 . S
O2243 Gd2196 2.429 . S
O2243 C2262 1.268 . S
O2244 Gd2196 2.545 . S
O2244 C2252 1.250 . S
O2245 Gd2196 2.412 . S
O2245 C2255 1.252 . S
O2246 Gd2197 2.545 . S
O2246 C2264 1.258 . S
O2247 Gd2196 2.362 . S
O2247 Gd2197 2.606 . S
O2247 C2263 1.284 . S
O2248 Gd2196 2.324 . S
O2248 C2271 1.254 . S
O2249 Gd2197 2.429 . S
O2249 C2271 1.268 . S
O2250 Gd2197 2.545 . S
O2250 C2263 1.250 . S
O2251 Gd2197 2.412 . S
O2251 C2264 1.252 . S
C2252 O2241 1.284 . S
C2252 O2244 1.250 . S
C2253 H2222 0.929 . S
C2253 C2238 1.437 . S
C2253 C2254 1.317 . S
C2254 H2225 0.930 . S
C2254 C2230 1.431 . S
C2254 C2253 1.317 . S
C2255 Gd2196 2.828 . S
C2255 O2240 1.258 . S
C2255 O2245 1.252 . S
C2255 C2256 1.497 . S
C2256 C2255 1.497 . S
C2256 C2257 1.395 . S
C2256 C2258 1.380 . S
C2257 C2256 1.395 . S
C2257 C2260 1.398 . S
C2257 H2272 0.930 . S
C2258 C2256 1.380 . S
C2258 C2259 1.391 . S
C2258 H2273 0.930 . S
C2259 C2258 1.391 . S
C2259 C2261 1.387 . S
C2260 C2257 1.398 . S
C2260 C2261 1.380 . S
C2260 H2274 0.930 . S
C2261 C2259 1.387 . S
C2261 C2260 1.380 . S
C2261 H2275 0.930 . S
C2262 O2242 1.254 . S
C2262 O2243 1.268 . S
C2263 O2247 1.284 . S
C2263 O2250 1.250 . S
C2264 Gd2197 2.828 . S
C2264 O2246 1.258 . S
C2264 O2251 1.252 . S
C2264 C2265 1.497 . S
C2265 C2264 1.497 . S
C2265 C2266 1.395 . S
C2265 C2267 1.380 . S
C2266 C2265 1.395 . S
C2266 C2269 1.398 . S
C2266 H2276 0.930 . S
C2267 C2265 1.380 . S
C2267 C2268 1.391 . S
C2267 H2277 0.930 . S
C2268 C2267 1.391 . S
C2268 C2270 1.387 . S
C2269 C2266 1.398 . S
C2269 C2270 1.380 . S
C2269 H2278 0.930 . S
C2270 C2268 1.387 . S
C2270 C2269 1.380 . S
C2270 H2279 0.930 . S
C2271 O2248 1.254 . S
C2271 O2249 1.268 . S
H2272 C2257 0.930 . S
H2273 C2258 0.930 . S
H2274 C2260 0.930 . S
H2275 C2261 0.930 . S
H2276 C2266 0.930 . S
H2277 C2267 0.930 . S
H2278 C2269 0.930 . S
H2279 C2270 0.930 . S
Gd2280 N2311 2.661 1_545 S
Gd2280 N2317 2.594 1_545 S
Gd2280 O2324 2.545 . S
Gd2280 O2325 2.606 . S
Gd2280 O2327 2.429 . S
Gd2280 O2328 2.545 . S
Gd2280 O2329 2.412 . S
Gd2280 O2331 2.362 1_545 S
Gd2280 O2332 2.324 . S
Gd2280 C2339 2.828 . S
Gd2281 N2290 2.661 . S
Gd2281 N2294 2.601 . S
Gd2281 O2325 2.362 . S
Gd2281 O2326 2.324 . S
Gd2281 O2330 2.545 . S
Gd2281 O2331 2.606 1_545 S
Gd2281 O2333 2.429 . S
Gd2281 O2334 2.545 1_545 S
Gd2281 O2335 2.412 . S
Gd2281 C2348 2.828 . S
C2282 C2285 1.417 . S
C2282 C2287 1.431 . S
C2282 C2288 1.412 . S
C2283 C2286 1.437 . S
C2283 C2287 1.317 . S
C2283 H2302 0.929 . S
C2284 C2285 1.426 . S
C2284 C2286 1.413 . S
C2284 N2294 1.359 . S
C2285 C2282 1.417 . S
C2285 C2284 1.426 . S
C2285 N2290 1.350 . S
C2286 C2283 1.437 . S
C2286 C2284 1.413 . S
C2286 C2296 1.391 . S
C2287 C2282 1.431 . S
C2287 C2283 1.317 . S
C2287 H2298 0.930 . S
C2288 C2282 1.412 . S
C2288 C2289 1.355 . S
C2288 H2300 0.930 . S
C2289 C2288 1.355 . S
C2289 C2291 1.402 . S
C2289 H2301 0.930 . S
N2290 Gd2281 2.661 . S
N2290 C2285 1.350 . S
N2290 C2291 1.307 . S
C2291 C2289 1.402 . S
C2291 N2290 1.307 . S
C2291 H2292 0.930 . S
H2292 C2291 0.930 . S
C2293 N2294 1.334 . S
C2293 C2295 1.394 . S
C2293 H2297 0.930 . S
N2294 Gd2281 2.601 . S
N2294 C2284 1.359 . S
N2294 C2293 1.334 . S
C2295 C2293 1.394 . S
C2295 C2296 1.359 . S
C2295 H2307 0.930 . S
C2296 C2286 1.391 . S
C2296 C2295 1.359 . S
C2296 H2308 0.929 . S
H2297 C2293 0.930 . S
H2298 C2287 0.930 . S
H2299 C2316 0.930 . S
H2300 C2288 0.930 . S
H2301 C2289 0.930 . S
H2302 C2283 0.929 . S
H2303 C2321 0.930 . S
H2304 C2312 0.930 . S
H2305 C2313 0.930 . S
H2306 C2337 0.929 . S
H2307 C2295 0.930 . S
H2308 C2296 0.929 . S
H2309 C2338 0.930 . S
H2310 C2319 0.930 1_545 S
N2311 Gd2280 2.661 1_565 S
N2311 C2315 1.350 . S
N2311 C2316 1.307 . S
C2312 H2304 0.930 . S
C2312 C2313 1.355 . S
C2312 C2314 1.412 . S
C2313 H2305 0.930 . S
C2313 C2312 1.355 . S
C2313 C2316 1.402 . S
C2314 C2312 1.412 . S
C2314 C2315 1.417 . S
C2314 C2338 1.431 . S
C2315 N2311 1.350 . S
C2315 C2314 1.417 . S
C2315 C2318 1.426 . S
C2316 H2299 0.930 . S
C2316 N2311 1.307 . S
C2316 C2313 1.402 . S
N2317 Gd2280 2.594 1_565 S
N2317 C2318 1.367 . S
N2317 C2321 1.333 1_565 S
C2318 C2315 1.426 . S
C2318 N2317 1.367 . S
C2318 C2322 1.413 . S
C2319 H2310 0.930 1_565 S
C2319 C2320 1.359 . S
C2319 C2321 1.394 1_565 S
C2320 C2319 1.359 . S
C2320 C2322 1.391 . S
C2320 H2323 0.929 . S
C2321 H2303 0.930 . S
C2321 N2317 1.333 1_545 S
C2321 C2319 1.394 1_545 S
C2322 C2318 1.413 . S
C2322 C2320 1.391 . S
C2322 C2337 1.437 . S
H2323 C2320 0.929 . S
O2324 Gd2280 2.545 . S
O2324 C2339 1.258 . S
O2325 Gd2280 2.606 . S
O2325 Gd2281 2.362 . S
O2325 C2336 1.284 . S
O2326 Gd2281 2.324 . S
O2326 C2346 1.254 . S
O2327 Gd2280 2.429 . S
O2327 C2346 1.268 . S
O2328 Gd2280 2.545 . S
O2328 C2336 1.250 . S
O2329 Gd2280 2.412 . S
O2329 C2339 1.252 . S
O2330 Gd2281 2.545 . S
O2330 C2348 1.258 . S
O2331 Gd2280 2.362 1_565 S
O2331 Gd2281 2.606 1_565 S
O2331 C2347 1.284 . S
O2332 Gd2280 2.324 . S
O2332 C2355 1.254 . S
O2333 Gd2281 2.429 . S
O2333 C2355 1.268 . S
O2334 Gd2281 2.545 1_565 S
O2334 C2347 1.250 . S
O2335 Gd2281 2.412 . S
O2335 C2348 1.252 . S
C2336 O2325 1.284 . S
C2336 O2328 1.250 . S
C2337 H2306 0.929 . S
C2337 C2322 1.437 . S
C2337 C2338 1.317 . S
C2338 H2309 0.930 . S
C2338 C2314 1.431 . S
C2338 C2337 1.317 . S
C2339 Gd2280 2.828 . S
C2339 O2324 1.258 . S
C2339 O2329 1.252 . S
C2339 C2340 1.497 . S
C2340 C2339 1.497 . S
C2340 C2341 1.395 . S
C2340 C2342 1.380 . S
C2341 C2340 1.395 . S
C2341 C2344 1.398 . S
C2341 H2356 0.930 . S
C2342 C2340 1.380 . S
C2342 C2343 1.391 . S
C2342 H2357 0.930 . S
C2343 C2342 1.391 . S
C2343 C2345 1.387 . S
C2344 C2341 1.398 . S
C2344 C2345 1.380 . S
C2344 H2358 0.930 . S
C2345 C2343 1.387 . S
C2345 C2344 1.380 . S
C2345 H2359 0.930 . S
C2346 O2326 1.254 . S
C2346 O2327 1.268 . S
C2347 O2331 1.284 . S
C2347 O2334 1.250 . S
C2348 Gd2281 2.828 . S
C2348 O2330 1.258 . S
C2348 O2335 1.252 . S
C2348 C2349 1.497 1_545 S
C2349 C2348 1.497 1_565 S
C2349 C2350 1.395 . S
C2349 C2351 1.380 . S
C2350 C2349 1.395 . S
C2350 C2353 1.398 . S
C2350 H2360 0.930 . S
C2351 C2349 1.380 . S
C2351 C2352 1.391 . S
C2351 H2361 0.930 . S
C2352 C2351 1.391 . S
C2352 C2354 1.387 . S
C2353 C2350 1.398 . S
C2353 C2354 1.380 . S
C2353 H2362 0.930 . S
C2354 C2352 1.387 . S
C2354 C2353 1.380 . S
C2354 H2363 0.930 . S
C2355 O2332 1.254 . S
C2355 O2333 1.268 . S
H2356 C2341 0.930 . S
H2357 C2342 0.930 . S
H2358 C2344 0.930 . S
H2359 C2345 0.930 . S
H2360 C2350 0.930 . S
H2361 C2351 0.930 . S
H2362 C2353 0.930 . S
H2363 C2354 0.930 . S
Gd2364 N2395 2.661 . S
Gd2364 N2401 2.601 . S
Gd2364 O2408 2.545 . S
Gd2364 O2409 2.606 . S
Gd2364 O2411 2.429 . S
Gd2364 O2412 2.545 . S
Gd2364 O2413 2.412 . S
Gd2364 O2415 2.362 . S
Gd2364 O2416 2.324 . S
Gd2364 C2423 2.828 . S
Gd2365 N2374 2.661 . S
Gd2365 N2378 2.601 . S
Gd2365 O2409 2.362 . S
Gd2365 O2410 2.324 . S
Gd2365 O2414 2.545 . S
Gd2365 O2415 2.606 . S
Gd2365 O2417 2.429 . S
Gd2365 O2418 2.545 . S
Gd2365 O2419 2.412 . S
Gd2365 C2432 2.828 . S
C2366 C2369 1.417 . S
C2366 C2371 1.431 . S
C2366 C2372 1.412 . S
C2367 C2370 1.437 . S
C2367 C2371 1.317 . S
C2367 H2386 0.929 . S
C2368 C2369 1.426 . S
C2368 C2370 1.413 . S
C2368 N2378 1.359 . S
C2369 C2366 1.417 . S
C2369 C2368 1.426 . S
C2369 N2374 1.350 . S
C2370 C2367 1.437 . S
C2370 C2368 1.413 . S
C2370 C2380 1.391 . S
C2371 C2366 1.431 . S
C2371 C2367 1.317 . S
C2371 H2382 0.930 . S
C2372 C2366 1.412 . S
C2372 C2373 1.355 . S
C2372 H2384 0.930 . S
C2373 C2372 1.355 . S
C2373 C2375 1.402 . S
C2373 H2385 0.930 . S
N2374 Gd2365 2.661 . S
N2374 C2369 1.350 . S
N2374 C2375 1.307 . S
C2375 C2373 1.402 . S
C2375 N2374 1.307 . S
C2375 H2376 0.930 . S
H2376 C2375 0.930 . S
C2377 N2378 1.334 . S
C2377 C2379 1.394 . S
C2377 H2381 0.930 . S
N2378 Gd2365 2.601 . S
N2378 C2368 1.359 . S
N2378 C2377 1.334 . S
C2379 C2377 1.394 . S
C2379 C2380 1.359 . S
C2379 H2391 0.930 . S
C2380 C2370 1.391 . S
C2380 C2379 1.359 . S
C2380 H2392 0.929 . S
H2381 C2377 0.930 . S
H2382 C2371 0.930 . S
H2383 C2400 0.930 . S
H2384 C2372 0.930 . S
H2385 C2373 0.930 . S
H2386 C2367 0.929 . S
H2387 C2405 0.930 . S
H2388 C2396 0.930 . S
H2389 C2397 0.930 . S
H2390 C2421 0.929 . S
H2391 C2379 0.930 . S
H2392 C2380 0.929 . S
H2393 C2422 0.930 . S
H2394 C2403 0.930 . S
N2395 Gd2364 2.661 . S
N2395 C2399 1.350 . S
N2395 C2400 1.307 . S
C2396 H2388 0.930 . S
C2396 C2397 1.355 . S
C2396 C2398 1.412 . S
C2397 H2389 0.930 . S
C2397 C2396 1.355 . S
C2397 C2400 1.402 . S
C2398 C2396 1.412 . S
C2398 C2399 1.417 . S
C2398 C2422 1.431 . S
C2399 N2395 1.350 . S
C2399 C2398 1.417 . S
C2399 C2402 1.426 . S
C2400 H2383 0.930 . S
C2400 N2395 1.307 . S
C2400 C2397 1.402 . S
N2401 Gd2364 2.601 . S
N2401 C2402 1.359 . S
N2401 C2405 1.334 . S
C2402 C2399 1.426 . S
C2402 N2401 1.359 . S
C2402 C2406 1.413 . S
C2403 H2394 0.930 . S
C2403 C2404 1.359 . S
C2403 C2405 1.394 . S
C2404 C2403 1.359 . S
C2404 C2406 1.391 . S
C2404 H2407 0.929 . S
C2405 H2387 0.930 . S
C2405 N2401 1.334 . S
C2405 C2403 1.394 . S
C2406 C2402 1.413 . S
C2406 C2404 1.391 . S
C2406 C2421 1.437 . S
H2407 C2404 0.929 . S
O2408 Gd2364 2.545 . S
O2408 C2423 1.258 . S
O2409 Gd2364 2.606 . S
O2409 Gd2365 2.362 . S
O2409 C2420 1.284 . S
O2410 Gd2365 2.324 . S
O2410 C2430 1.254 . S
O2411 Gd2364 2.429 . S
O2411 C2430 1.268 . S
O2412 Gd2364 2.545 . S
O2412 C2420 1.250 . S
O2413 Gd2364 2.412 . S
O2413 C2423 1.252 . S
O2414 Gd2365 2.545 . S
O2414 C2432 1.258 . S
O2415 Gd2364 2.362 . S
O2415 Gd2365 2.606 . S
O2415 C2431 1.284 . S
O2416 Gd2364 2.324 . S
O2416 C2439 1.254 . S
O2417 Gd2365 2.429 . S
O2417 C2439 1.268 . S
O2418 Gd2365 2.545 . S
O2418 C2431 1.250 . S
O2419 Gd2365 2.412 . S
O2419 C2432 1.252 . S
C2420 O2409 1.284 . S
C2420 O2412 1.250 . S
C2421 H2390 0.929 . S
C2421 C2406 1.437 . S
C2421 C2422 1.317 . S
C2422 H2393 0.930 . S
C2422 C2398 1.431 . S
C2422 C2421 1.317 . S
C2423 Gd2364 2.828 . S
C2423 O2408 1.258 . S
C2423 O2413 1.252 . S
C2423 C2424 1.497 . S
C2424 C2423 1.497 . S
C2424 C2425 1.395 . S
C2424 C2426 1.380 . S
C2425 C2424 1.395 . S
C2425 C2428 1.398 . S
C2425 H2440 0.930 . S
C2426 C2424 1.380 . S
C2426 C2427 1.391 . S
C2426 H2441 0.930 . S
C2427 C2426 1.391 . S
C2427 C2429 1.387 . S
C2428 C2425 1.398 . S
C2428 C2429 1.380 . S
C2428 H2442 0.930 . S
C2429 C2427 1.387 . S
C2429 C2428 1.380 . S
C2429 H2443 0.930 . S
C2430 O2410 1.254 . S
C2430 O2411 1.268 . S
C2431 O2415 1.284 . S
C2431 O2418 1.250 . S
C2432 Gd2365 2.828 . S
C2432 O2414 1.258 . S
C2432 O2419 1.252 . S
C2432 C2433 1.497 . S
C2433 C2432 1.497 . S
C2433 C2434 1.395 . S
C2433 C2435 1.380 . S
C2434 C2433 1.395 . S
C2434 C2437 1.398 . S
C2434 H2444 0.930 . S
C2435 C2433 1.380 . S
C2435 C2436 1.391 . S
C2435 H2445 0.930 . S
C2436 C2435 1.391 . S
C2436 C2438 1.387 . S
C2437 C2434 1.398 . S
C2437 C2438 1.380 . S
C2437 H2446 0.930 . S
C2438 C2436 1.387 . S
C2438 C2437 1.380 . S
C2438 H2447 0.930 . S
C2439 O2416 1.254 . S
C2439 O2417 1.268 . S
H2440 C2425 0.930 . S
H2441 C2426 0.930 . S
H2442 C2428 0.930 . S
H2443 C2429 0.930 . S
H2444 C2434 0.930 . S
H2445 C2435 0.930 . S
H2446 C2437 0.930 . S
H2447 C2438 0.930 . S
Gd2448 N2479 2.661 . S
Gd2448 N2485 2.601 . S
Gd2448 O2492 2.545 . S
Gd2448 O2493 2.606 1_565 S
Gd2448 O2495 2.429 1_565 S
Gd2448 O2496 2.545 . S
Gd2448 O2497 2.412 . S
Gd2448 O2499 2.362 1_565 S
Gd2448 O2500 2.324 . S
Gd2448 C2507 2.828 . S
Gd2449 N2458 2.661 . S
Gd2449 N2462 2.601 . S
Gd2449 O2493 2.362 . S
Gd2449 O2494 2.324 . S
Gd2449 O2498 2.545 . S
Gd2449 O2499 2.606 . S
Gd2449 O2501 2.429 . S
Gd2449 O2502 2.545 . S
Gd2449 O2503 2.412 . S
Gd2449 C2516 2.828 . S
C2450 C2453 1.417 . S
C2450 C2455 1.431 . S
C2450 C2456 1.412 . S
C2451 C2454 1.437 . S
C2451 C2455 1.317 . S
C2451 H2470 0.929 . S
C2452 C2453 1.426 . S
C2452 C2454 1.413 . S
C2452 N2462 1.359 . S
C2453 C2450 1.417 . S
C2453 C2452 1.426 . S
C2453 N2458 1.350 . S
C2454 C2451 1.437 . S
C2454 C2452 1.413 . S
C2454 C2464 1.391 . S
C2455 C2450 1.431 . S
C2455 C2451 1.317 . S
C2455 H2466 0.930 . S
C2456 C2450 1.412 . S
C2456 C2457 1.355 . S
C2456 H2468 0.930 . S
C2457 C2456 1.355 . S
C2457 C2459 1.402 . S
C2457 H2469 0.930 . S
N2458 Gd2449 2.661 . S
N2458 C2453 1.350 . S
N2458 C2459 1.307 . S
C2459 C2457 1.402 . S
C2459 N2458 1.307 . S
C2459 H2460 0.930 . S
H2460 C2459 0.930 . S
C2461 N2462 1.334 . S
C2461 C2463 1.394 . S
C2461 H2465 0.930 . S
N2462 Gd2449 2.601 . S
N2462 C2452 1.359 . S
N2462 C2461 1.334 . S
C2463 C2461 1.394 . S
C2463 C2464 1.359 . S
C2463 H2475 0.930 1_455 S
C2464 C2454 1.391 . S
C2464 C2463 1.359 . S
C2464 H2476 0.929 . S
H2465 C2461 0.930 . S
H2466 C2455 0.930 . S
H2467 C2484 0.930 . S
H2468 C2456 0.930 . S
H2469 C2457 0.930 . S
H2470 C2451 0.929 . S
H2471 C2489 0.930 . S
H2472 C2480 0.930 1_655 S
H2473 C2481 0.930 . S
H2474 C2505 0.929 . S
H2475 C2463 0.930 1_655 S
H2476 C2464 0.929 . S
H2477 C2506 0.930 . S
H2478 C2487 0.930 . S
N2479 Gd2448 2.661 . S
N2479 C2483 1.350 . S
N2479 C2484 1.307 . S
C2480 H2472 0.930 1_455 S
C2480 C2481 1.355 1_455 S
C2480 C2482 1.412 . S
C2481 H2473 0.930 . S
C2481 C2480 1.355 1_655 S
C2481 C2484 1.402 1_655 S
C2482 C2480 1.412 . S
C2482 C2483 1.417 . S
C2482 C2506 1.431 . S
C2483 N2479 1.350 . S
C2483 C2482 1.417 . S
C2483 C2486 1.426 . S
C2484 H2467 0.930 . S
C2484 N2479 1.307 . S
C2484 C2481 1.402 1_455 S
N2485 Gd2448 2.601 . S
N2485 C2486 1.359 . S
N2485 C2489 1.334 . S
C2486 C2483 1.426 . S
C2486 N2485 1.359 . S
C2486 C2490 1.413 . S
C2487 H2478 0.930 . S
C2487 C2488 1.359 . S
C2487 C2489 1.394 . S
C2488 C2487 1.359 . S
C2488 C2490 1.391 . S
C2488 H2491 0.929 . S
C2489 H2471 0.930 . S
C2489 N2485 1.334 . S
C2489 C2487 1.394 . S
C2490 C2486 1.413 . S
C2490 C2488 1.391 . S
C2490 C2505 1.437 . S
H2491 C2488 0.929 . S
O2492 Gd2448 2.545 . S
O2492 C2507 1.258 . S
O2493 Gd2448 2.606 1_545 S
O2493 Gd2449 2.362 . S
O2493 C2504 1.284 . S
O2494 Gd2449 2.324 . S
O2494 C2514 1.254 . S
O2495 Gd2448 2.429 1_545 S
O2495 C2514 1.268 . S
O2496 Gd2448 2.545 . S
O2496 C2504 1.250 1_565 S
O2497 Gd2448 2.412 . S
O2497 C2507 1.252 . S
O2498 Gd2449 2.545 . S
O2498 C2516 1.258 . S
O2499 Gd2448 2.362 1_545 S
O2499 Gd2449 2.606 . S
O2499 C2515 1.284 . S
O2500 Gd2448 2.324 . S
O2500 C2523 1.254 1_565 S
O2501 Gd2449 2.429 . S
O2501 C2523 1.268 . S
O2502 Gd2449 2.545 . S
O2502 C2515 1.250 . S
O2503 Gd2449 2.412 . S
O2503 C2516 1.252 . S
C2504 O2493 1.284 . S
C2504 O2496 1.250 1_545 S
C2505 H2474 0.929 . S
C2505 C2490 1.437 . S
C2505 C2506 1.317 . S
C2506 H2477 0.930 . S
C2506 C2482 1.431 . S
C2506 C2505 1.317 . S
C2507 Gd2448 2.828 . S
C2507 O2492 1.258 . S
C2507 O2497 1.252 . S
C2507 C2508 1.497 . S
C2508 C2507 1.497 . S
C2508 C2509 1.395 . S
C2508 C2510 1.380 . S
C2509 C2508 1.395 . S
C2509 C2512 1.398 . S
C2509 H2524 0.930 . S
C2510 C2508 1.380 . S
C2510 C2511 1.391 . S
C2510 H2525 0.930 . S
C2511 C2510 1.391 . S
C2511 C2513 1.387 . S
C2512 C2509 1.398 . S
C2512 C2513 1.380 . S
C2512 H2526 0.930 . S
C2513 C2511 1.387 . S
C2513 C2512 1.380 . S
C2513 H2527 0.930 . S
C2514 O2494 1.254 . S
C2514 O2495 1.268 . S
C2515 O2499 1.284 . S
C2515 O2502 1.250 . S
C2516 Gd2449 2.828 . S
C2516 O2498 1.258 . S
C2516 O2503 1.252 . S
C2516 C2517 1.497 . S
C2517 C2516 1.497 . S
C2517 C2518 1.395 . S
C2517 C2519 1.380 . S
C2518 C2517 1.395 . S
C2518 C2521 1.398 . S
C2518 H2528 0.930 . S
C2519 C2517 1.380 . S
C2519 C2520 1.391 . S
C2519 H2529 0.930 . S
C2520 C2519 1.391 . S
C2520 C2522 1.387 . S
C2521 C2518 1.398 . S
C2521 C2522 1.380 . S
C2521 H2530 0.930 . S
C2522 C2520 1.387 . S
C2522 C2521 1.380 . S
C2522 H2531 0.930 . S
C2523 O2500 1.254 1_545 S
C2523 O2501 1.268 . S
H2524 C2509 0.930 . S
H2525 C2510 0.930 . S
H2526 C2512 0.930 . S
H2527 C2513 0.930 . S
H2528 C2518 0.930 . S
H2529 C2519 0.930 . S
H2530 C2521 0.930 . S
H2531 C2522 0.930 . S
Gd2532 N2563 2.661 . S
Gd2532 N2569 2.601 . S
Gd2532 O2576 2.545 . S
Gd2532 O2577 2.606 . S
Gd2532 O2579 2.429 . S
Gd2532 O2580 2.545 . S
Gd2532 O2581 2.412 . S
Gd2532 O2583 2.362 . S
Gd2532 O2584 2.324 . S
Gd2532 C2591 2.828 . S
Gd2533 N2542 2.661 . S
Gd2533 N2546 2.601 . S
Gd2533 O2577 2.362 . S
Gd2533 O2578 2.324 . S
Gd2533 O2582 2.545 . S
Gd2533 O2583 2.606 . S
Gd2533 O2585 2.429 . S
Gd2533 O2586 2.545 . S
Gd2533 O2587 2.412 . S
Gd2533 C2600 2.828 . S
C2534 C2537 1.417 . S
C2534 C2539 1.431 . S
C2534 C2540 1.412 . S
C2535 C2538 1.437 . S
C2535 C2539 1.317 . S
C2535 H2554 0.929 . S
C2536 C2537 1.426 . S
C2536 C2538 1.413 . S
C2536 N2546 1.359 . S
C2537 C2534 1.417 . S
C2537 C2536 1.426 . S
C2537 N2542 1.350 . S
C2538 C2535 1.437 . S
C2538 C2536 1.413 . S
C2538 C2548 1.391 . S
C2539 C2534 1.431 . S
C2539 C2535 1.317 . S
C2539 H2550 0.930 . S
C2540 C2534 1.412 . S
C2540 C2541 1.355 . S
C2540 H2552 0.930 . S
C2541 C2540 1.355 . S
C2541 C2543 1.402 . S
C2541 H2553 0.930 . S
N2542 Gd2533 2.661 . S
N2542 C2537 1.350 . S
N2542 C2543 1.307 . S
C2543 C2541 1.402 . S
C2543 N2542 1.307 . S
C2543 H2544 0.930 . S
H2544 C2543 0.930 . S
C2545 N2546 1.334 . S
C2545 C2547 1.394 . S
C2545 H2549 0.930 . S
N2546 Gd2533 2.601 . S
N2546 C2536 1.359 . S
N2546 C2545 1.334 . S
C2547 C2545 1.394 . S
C2547 C2548 1.359 . S
C2547 H2559 0.930 . S
C2548 C2538 1.391 . S
C2548 C2547 1.359 . S
C2548 H2560 0.929 . S
H2549 C2545 0.930 . S
H2550 C2539 0.930 . S
H2551 C2568 0.930 . S
H2552 C2540 0.930 . S
H2553 C2541 0.930 . S
H2554 C2535 0.929 . S
H2555 C2573 0.930 . S
H2556 C2564 0.930 . S
H2557 C2565 0.930 . S
H2558 C2589 0.929 . S
H2559 C2547 0.930 . S
H2560 C2548 0.929 . S
H2561 C2590 0.930 . S
H2562 C2571 0.930 . S
N2563 Gd2532 2.661 . S
N2563 C2567 1.350 . S
N2563 C2568 1.307 . S
C2564 H2556 0.930 . S
C2564 C2565 1.355 . S
C2564 C2566 1.412 . S
C2565 H2557 0.930 . S
C2565 C2564 1.355 . S
C2565 C2568 1.402 . S
C2566 C2564 1.412 . S
C2566 C2567 1.417 . S
C2566 C2590 1.431 . S
C2567 N2563 1.350 . S
C2567 C2566 1.417 . S
C2567 C2570 1.426 . S
C2568 H2551 0.930 . S
C2568 N2563 1.307 . S
C2568 C2565 1.402 . S
N2569 Gd2532 2.601 . S
N2569 C2570 1.359 . S
N2569 C2573 1.334 . S
C2570 C2567 1.426 . S
C2570 N2569 1.359 . S
C2570 C2574 1.413 . S
C2571 H2562 0.930 . S
C2571 C2572 1.359 . S
C2571 C2573 1.394 . S
C2572 C2571 1.359 . S
C2572 C2574 1.391 . S
C2572 H2575 0.929 . S
C2573 H2555 0.930 . S
C2573 N2569 1.334 . S
C2573 C2571 1.394 . S
C2574 C2570 1.413 . S
C2574 C2572 1.391 . S
C2574 C2589 1.437 . S
H2575 C2572 0.929 . S
O2576 Gd2532 2.545 . S
O2576 C2591 1.258 . S
O2577 Gd2532 2.606 . S
O2577 Gd2533 2.362 . S
O2577 C2588 1.284 . S
O2578 Gd2533 2.324 . S
O2578 C2598 1.254 . S
O2579 Gd2532 2.429 . S
O2579 C2598 1.268 . S
O2580 Gd2532 2.545 . S
O2580 C2588 1.250 . S
O2581 Gd2532 2.412 . S
O2581 C2591 1.252 . S
O2582 Gd2533 2.545 . S
O2582 C2600 1.258 . S
O2583 Gd2532 2.362 . S
O2583 Gd2533 2.606 . S
O2583 C2599 1.284 . S
O2584 Gd2532 2.324 . S
O2584 C2607 1.254 . S
O2585 Gd2533 2.429 . S
O2585 C2607 1.268 . S
O2586 Gd2533 2.545 . S
O2586 C2599 1.250 . S
O2587 Gd2533 2.412 . S
O2587 C2600 1.252 . S
C2588 O2577 1.284 . S
C2588 O2580 1.250 . S
C2589 H2558 0.929 . S
C2589 C2574 1.437 . S
C2589 C2590 1.317 . S
C2590 H2561 0.930 . S
C2590 C2566 1.431 . S
C2590 C2589 1.317 . S
C2591 Gd2532 2.828 . S
C2591 O2576 1.258 . S
C2591 O2581 1.252 . S
C2591 C2592 1.497 . S
C2592 C2591 1.497 . S
C2592 C2593 1.395 . S
C2592 C2594 1.380 . S
C2593 C2592 1.395 . S
C2593 C2596 1.398 . S
C2593 H2608 0.930 . S
C2594 C2592 1.380 . S
C2594 C2595 1.391 . S
C2594 H2609 0.930 . S
C2595 C2594 1.391 . S
C2595 C2597 1.387 . S
C2596 C2593 1.398 . S
C2596 C2597 1.380 . S
C2596 H2610 0.930 . S
C2597 C2595 1.387 . S
C2597 C2596 1.380 . S
C2597 H2611 0.930 . S
C2598 O2578 1.254 . S
C2598 O2579 1.268 . S
C2599 O2583 1.284 . S
C2599 O2586 1.250 . S
C2600 Gd2533 2.828 . S
C2600 O2582 1.258 . S
C2600 O2587 1.252 . S
C2600 C2601 1.497 . S
C2601 C2600 1.497 . S
C2601 C2602 1.395 . S
C2601 C2603 1.380 . S
C2602 C2601 1.395 . S
C2602 C2605 1.398 . S
C2602 H2612 0.930 . S
C2603 C2601 1.380 . S
C2603 C2604 1.391 . S
C2603 H2613 0.930 . S
C2604 C2603 1.391 . S
C2604 C2606 1.387 . S
C2605 C2602 1.398 . S
C2605 C2606 1.380 . S
C2605 H2614 0.930 . S
C2606 C2604 1.387 . S
C2606 C2605 1.380 . S
C2606 H2615 0.930 . S
C2607 O2584 1.254 . S
C2607 O2585 1.268 . S
H2608 C2593 0.930 . S
H2609 C2594 0.930 . S
H2610 C2596 0.930 . S
H2611 C2597 0.930 . S
H2612 C2602 0.930 . S
H2613 C2603 0.930 . S
H2614 C2605 0.930 . S
H2615 C2606 0.930 . S
Gd2616 N2647 2.661 . S
Gd2616 N2653 2.601 . S
Gd2616 O2660 2.545 . S
Gd2616 O2661 2.606 1_556 S
Gd2616 O2663 2.429 1_556 S
Gd2616 O2664 2.545 . S
Gd2616 O2665 2.412 . S
Gd2616 O2667 2.362 1_556 S
Gd2616 O2668 2.324 1_545 S
Gd2616 C2675 2.828 . S
Gd2617 N2626 2.661 . S
Gd2617 N2630 2.601 1_545 S
Gd2617 O2661 2.362 . S
Gd2617 O2662 2.324 . S
Gd2617 O2666 2.545 1_545 S
Gd2617 O2667 2.606 . S
Gd2617 O2669 2.429 1_545 S
Gd2617 O2670 2.545 1_545 S
Gd2617 O2671 2.412 . S
Gd2617 C2684 2.828 1_545 S
C2618 C2621 1.417 . S
C2618 C2623 1.431 . S
C2618 C2624 1.412 . S
C2619 C2622 1.437 . S
C2619 C2623 1.317 . S
C2619 H2638 0.929 . S
C2620 C2621 1.426 . S
C2620 C2622 1.413 . S
C2620 N2630 1.359 1_545 S
C2621 C2618 1.417 . S
C2621 C2620 1.426 . S
C2621 N2626 1.350 . S
C2622 C2619 1.437 . S
C2622 C2620 1.413 . S
C2622 C2632 1.391 1_545 S
C2623 C2618 1.431 . S
C2623 C2619 1.317 . S
C2623 H2634 0.930 . S
C2624 C2618 1.412 . S
C2624 C2625 1.355 . S
C2624 H2636 0.930 . S
C2625 C2624 1.355 . S
C2625 C2627 1.402 . S
C2625 H2637 0.930 . S
N2626 Gd2617 2.661 . S
N2626 C2621 1.350 . S
N2626 C2627 1.307 . S
C2627 C2625 1.402 . S
C2627 N2626 1.307 . S
C2627 H2628 0.930 . S
H2628 C2627 0.930 . S
C2629 N2630 1.334 . S
C2629 C2631 1.394 . S
C2629 H2633 0.930 . S
N2630 Gd2617 2.601 1_565 S
N2630 C2620 1.359 1_565 S
N2630 C2629 1.334 . S
C2631 C2629 1.394 . S
C2631 C2632 1.359 . S
C2631 H2643 0.930 . S
C2632 C2622 1.391 1_565 S
C2632 C2631 1.359 . S
C2632 H2644 0.929 . S
H2633 C2629 0.930 . S
H2634 C2623 0.930 . S
H2635 C2652 0.930 . S
H2636 C2624 0.930 . S
H2637 C2625 0.930 . S
H2638 C2619 0.929 . S
H2639 C2657 0.930 . S
H2640 C2648 0.930 . S
H2641 C2649 0.930 . S
H2642 C2673 0.929 . S
H2643 C2631 0.930 . S
H2644 C2632 0.929 . S
H2645 C2674 0.930 1_565 S
H2646 C2655 0.930 . S
N2647 Gd2616 2.661 . S
N2647 C2651 1.350 . S
N2647 C2652 1.307 1_545 S
C2648 H2640 0.930 . S
C2648 C2649 1.355 . S
C2648 C2650 1.412 . S
C2649 H2641 0.930 . S
C2649 C2648 1.355 . S
C2649 C2652 1.402 . S
C2650 C2648 1.412 . S
C2650 C2651 1.417 1_565 S
C2650 C2674 1.431 1_565 S
C2651 N2647 1.350 . S
C2651 C2650 1.417 1_545 S
C2651 C2654 1.426 . S
C2652 H2635 0.930 . S
C2652 N2647 1.307 1_565 S
C2652 C2649 1.402 . S
N2653 Gd2616 2.601 . S
N2653 C2654 1.359 . S
N2653 C2657 1.334 . S
C2654 C2651 1.426 . S
C2654 N2653 1.359 . S
C2654 C2658 1.413 . S
C2655 H2646 0.930 . S
C2655 C2656 1.359 . S
C2655 C2657 1.394 . S
C2656 C2655 1.359 . S
C2656 C2658 1.391 . S
C2656 H2659 0.929 . S
C2657 H2639 0.930 . S
C2657 N2653 1.334 . S
C2657 C2655 1.394 . S
C2658 C2654 1.413 . S
C2658 C2656 1.391 . S
C2658 C2673 1.437 . S
H2659 C2656 0.929 . S
O2660 Gd2616 2.545 . S
O2660 C2675 1.258 . S
O2661 Gd2616 2.606 1_554 S
O2661 Gd2617 2.362 . S
O2661 C2672 1.284 . S
O2662 Gd2617 2.324 . S
O2662 C2682 1.254 . S
O2663 Gd2616 2.429 1_554 S
O2663 C2682 1.268 . S
O2664 Gd2616 2.545 . S
O2664 C2672 1.250 1_556 S
O2665 Gd2616 2.412 . S
O2665 C2675 1.252 . S
O2666 Gd2617 2.545 1_565 S
O2666 C2684 1.258 . S
O2667 Gd2616 2.362 1_554 S
O2667 Gd2617 2.606 . S
O2667 C2683 1.284 . S
O2668 Gd2616 2.324 1_565 S
O2668 C2691 1.254 . S
O2669 Gd2617 2.429 1_565 S
O2669 C2691 1.268 1_554 S
O2670 Gd2617 2.545 1_565 S
O2670 C2683 1.250 1_565 S
O2671 Gd2617 2.412 . S
O2671 C2684 1.252 1_545 S
C2672 O2661 1.284 . S
C2672 O2664 1.250 1_554 S
C2673 H2642 0.929 . S
C2673 C2658 1.437 . S
C2673 C2674 1.317 . S
C2674 H2645 0.930 1_545 S
C2674 C2650 1.431 1_545 S
C2674 C2673 1.317 . S
C2675 Gd2616 2.828 . S
C2675 O2660 1.258 . S
C2675 O2665 1.252 . S
C2675 C2676 1.497 . S
C2676 C2675 1.497 . S
C2676 C2677 1.395 . S
C2676 C2678 1.380 . S
C2677 C2676 1.395 . S
C2677 C2680 1.398 . S
C2677 H2692 0.930 . S
C2678 C2676 1.380 . S
C2678 C2679 1.391 . S
C2678 H2693 0.930 . S
C2679 C2678 1.391 . S
C2679 C2681 1.387 . S
C2680 C2677 1.398 . S
C2680 C2681 1.380 . S
C2680 H2694 0.930 . S
C2681 C2679 1.387 . S
C2681 C2680 1.380 . S
C2681 H2695 0.930 . S
C2682 O2662 1.254 . S
C2682 O2663 1.268 . S
C2683 O2667 1.284 . S
C2683 O2670 1.250 1_545 S
C2684 Gd2617 2.828 1_565 S
C2684 O2666 1.258 . S
C2684 O2671 1.252 1_565 S
C2684 C2685 1.497 . S
C2685 C2684 1.497 . S
C2685 C2686 1.395 . S
C2685 C2687 1.380 1_565 S
C2686 C2685 1.395 . S
C2686 C2689 1.398 . S
C2686 H2696 0.930 . S
C2687 C2685 1.380 1_545 S
C2687 C2688 1.391 1_545 S
C2687 H2697 0.930 . S
C2688 C2687 1.391 1_565 S
C2688 C2690 1.387 . S
C2689 C2686 1.398 . S
C2689 C2690 1.380 . S
C2689 H2698 0.930 . S
C2690 C2688 1.387 . S
C2690 C2689 1.380 . S
C2690 H2699 0.930 . S
C2691 O2668 1.254 . S
C2691 O2669 1.268 1_556 S
H2692 C2677 0.930 . S
H2693 C2678 0.930 . S
H2694 C2680 0.930 . S
H2695 C2681 0.930 . S
H2696 C2686 0.930 . S
H2697 C2687 0.930 . S
H2698 C2689 0.930 . S
H2699 C2690 0.930 . S
Gd2700 N2731 2.661 . S
Gd2700 N2737 2.601 . S
Gd2700 O2744 2.545 . S
Gd2700 O2745 2.606 . S
Gd2700 O2747 2.429 . S
Gd2700 O2748 2.545 . S
Gd2700 O2749 2.412 . S
Gd2700 O2751 2.362 . S
Gd2700 O2752 2.324 . S
Gd2700 C2759 2.828 . S
Gd2701 N2710 2.661 . S
Gd2701 N2714 2.601 . S
Gd2701 O2745 2.362 . S
Gd2701 O2746 2.324 . S
Gd2701 O2750 2.545 . S
Gd2701 O2751 2.606 . S
Gd2701 O2753 2.429 . S
Gd2701 O2754 2.545 . S
Gd2701 O2755 2.412 . S
Gd2701 C2768 2.828 . S
C2702 C2705 1.417 . S
C2702 C2707 1.431 . S
C2702 C2708 1.412 . S
C2703 C2706 1.437 . S
C2703 C2707 1.317 . S
C2703 H2722 0.929 . S
C2704 C2705 1.426 . S
C2704 C2706 1.413 . S
C2704 N2714 1.359 . S
C2705 C2702 1.417 . S
C2705 C2704 1.426 . S
C2705 N2710 1.350 . S
C2706 C2703 1.437 . S
C2706 C2704 1.413 . S
C2706 C2716 1.391 . S
C2707 C2702 1.431 . S
C2707 C2703 1.317 . S
C2707 H2718 0.930 . S
C2708 C2702 1.412 . S
C2708 C2709 1.355 . S
C2708 H2720 0.930 . S
C2709 C2708 1.355 . S
C2709 C2711 1.402 . S
C2709 H2721 0.930 . S
N2710 Gd2701 2.661 . S
N2710 C2705 1.350 . S
N2710 C2711 1.307 . S
C2711 C2709 1.402 . S
C2711 N2710 1.307 . S
C2711 H2712 0.930 . S
H2712 C2711 0.930 . S
C2713 N2714 1.334 . S
C2713 C2715 1.394 . S
C2713 H2717 0.930 . S
N2714 Gd2701 2.601 . S
N2714 C2704 1.359 . S
N2714 C2713 1.334 . S
C2715 C2713 1.394 . S
C2715 C2716 1.359 . S
C2715 H2727 0.930 . S
C2716 C2706 1.391 . S
C2716 C2715 1.359 . S
C2716 H2728 0.929 . S
H2717 C2713 0.930 . S
H2718 C2707 0.930 . S
H2719 C2736 0.930 . S
H2720 C2708 0.930 . S
H2721 C2709 0.930 . S
H2722 C2703 0.929 . S
H2723 C2741 0.930 . S
H2724 C2732 0.930 . S
H2725 C2733 0.930 . S
H2726 C2757 0.929 . S
H2727 C2715 0.930 . S
H2728 C2716 0.929 . S
H2729 C2758 0.930 . S
H2730 C2739 0.930 . S
N2731 Gd2700 2.661 . S
N2731 C2735 1.350 . S
N2731 C2736 1.307 . S
C2732 H2724 0.930 . S
C2732 C2733 1.355 . S
C2732 C2734 1.412 . S
C2733 H2725 0.930 . S
C2733 C2732 1.355 . S
C2733 C2736 1.402 . S
C2734 C2732 1.412 . S
C2734 C2735 1.417 . S
C2734 C2758 1.431 . S
C2735 N2731 1.350 . S
C2735 C2734 1.417 . S
C2735 C2738 1.426 . S
C2736 H2719 0.930 . S
C2736 N2731 1.307 . S
C2736 C2733 1.402 . S
N2737 Gd2700 2.601 . S
N2737 C2738 1.359 . S
N2737 C2741 1.334 . S
C2738 C2735 1.426 . S
C2738 N2737 1.359 . S
C2738 C2742 1.413 . S
C2739 H2730 0.930 . S
C2739 C2740 1.359 . S
C2739 C2741 1.394 . S
C2740 C2739 1.359 . S
C2740 C2742 1.391 . S
C2740 H2743 0.929 . S
C2741 H2723 0.930 . S
C2741 N2737 1.334 . S
C2741 C2739 1.394 . S
C2742 C2738 1.413 . S
C2742 C2740 1.391 . S
C2742 C2757 1.437 . S
H2743 C2740 0.929 . S
O2744 Gd2700 2.545 . S
O2744 C2759 1.258 . S
O2745 Gd2700 2.606 . S
O2745 Gd2701 2.362 . S
O2745 C2756 1.284 . S
O2746 Gd2701 2.324 . S
O2746 C2766 1.254 . S
O2747 Gd2700 2.429 . S
O2747 C2766 1.268 . S
O2748 Gd2700 2.545 . S
O2748 C2756 1.250 . S
O2749 Gd2700 2.412 . S
O2749 C2759 1.252 . S
O2750 Gd2701 2.545 . S
O2750 C2768 1.258 . S
O2751 Gd2700 2.362 . S
O2751 Gd2701 2.606 . S
O2751 C2767 1.284 . S
O2752 Gd2700 2.324 . S
O2752 C2775 1.254 . S
O2753 Gd2701 2.429 . S
O2753 C2775 1.268 . S
O2754 Gd2701 2.545 . S
O2754 C2767 1.250 . S
O2755 Gd2701 2.412 . S
O2755 C2768 1.252 . S
C2756 O2745 1.284 . S
C2756 O2748 1.250 . S
C2757 H2726 0.929 . S
C2757 C2742 1.437 . S
C2757 C2758 1.317 . S
C2758 H2729 0.930 . S
C2758 C2734 1.431 . S
C2758 C2757 1.317 . S
C2759 Gd2700 2.828 . S
C2759 O2744 1.258 . S
C2759 O2749 1.252 . S
C2759 C2760 1.497 . S
C2760 C2759 1.497 . S
C2760 C2761 1.395 . S
C2760 C2762 1.380 . S
C2761 C2760 1.395 . S
C2761 C2764 1.398 . S
C2761 H2776 0.930 . S
C2762 C2760 1.380 . S
C2762 C2763 1.391 . S
C2762 H2777 0.930 . S
C2763 C2762 1.391 . S
C2763 C2765 1.387 . S
C2764 C2761 1.398 . S
C2764 C2765 1.380 . S
C2764 H2778 0.930 . S
C2765 C2763 1.387 . S
C2765 C2764 1.380 . S
C2765 H2779 0.930 . S
C2766 O2746 1.254 . S
C2766 O2747 1.268 . S
C2767 O2751 1.284 . S
C2767 O2754 1.250 . S
C2768 Gd2701 2.828 . S
C2768 O2750 1.258 . S
C2768 O2755 1.252 . S
C2768 C2769 1.497 . S
C2769 C2768 1.497 . S
C2769 C2770 1.395 . S
C2769 C2771 1.380 . S
C2770 C2769 1.395 . S
C2770 C2773 1.398 . S
C2770 H2780 0.930 . S
C2771 C2769 1.380 . S
C2771 C2772 1.391 . S
C2771 H2781 0.930 . S
C2772 C2771 1.391 . S
C2772 C2774 1.387 . S
C2773 C2770 1.398 . S
C2773 C2774 1.380 . S
C2773 H2782 0.930 . S
C2774 C2772 1.387 . S
C2774 C2773 1.380 . S
C2774 H2783 0.930 . S
C2775 O2752 1.254 . S
C2775 O2753 1.268 . S
H2776 C2761 0.930 . S
H2777 C2762 0.930 . S
H2778 C2764 0.930 . S
H2779 C2765 0.930 . S
H2780 C2770 0.930 . S
H2781 C2771 0.930 . S
H2782 C2773 0.930 . S
H2783 C2774 0.930 . S
Gd2784 N2815 2.661 1_554 S
Gd2784 N2821 2.601 1_554 S
Gd2784 O2828 2.545 . S
Gd2784 O2829 2.606 . S
Gd2784 O2831 2.429 . S
Gd2784 O2832 2.545 . S
Gd2784 O2833 2.412 . S
Gd2784 O2835 2.362 1_554 S
Gd2784 O2836 2.324 . S
Gd2784 C2843 2.828 . S
Gd2785 N2794 2.661 . S
Gd2785 N2798 2.601 . S
Gd2785 O2829 2.362 . S
Gd2785 O2830 2.324 . S
Gd2785 O2834 2.545 . S
Gd2785 O2835 2.606 1_554 S
Gd2785 O2837 2.429 . S
Gd2785 O2838 2.545 1_554 S
Gd2785 O2839 2.412 . S
Gd2785 C2852 2.828 . S
C2786 C2789 1.417 . S
C2786 C2791 1.431 . S
C2786 C2792 1.412 . S
C2787 C2790 1.437 . S
C2787 C2791 1.317 . S
C2787 H2806 0.929 . S
C2788 C2789 1.426 . S
C2788 C2790 1.413 . S
C2788 N2798 1.359 . S
C2789 C2786 1.417 . S
C2789 C2788 1.426 . S
C2789 N2794 1.350 . S
C2790 C2787 1.437 . S
C2790 C2788 1.413 . S
C2790 C2800 1.391 . S
C2791 C2786 1.431 . S
C2791 C2787 1.317 . S
C2791 H2802 0.930 . S
C2792 C2786 1.412 . S
C2792 C2793 1.355 . S
C2792 H2804 0.930 . S
C2793 C2792 1.355 . S
C2793 C2795 1.402 . S
C2793 H2805 0.930 . S
N2794 Gd2785 2.661 . S
N2794 C2789 1.350 . S
N2794 C2795 1.307 . S
C2795 C2793 1.402 . S
C2795 N2794 1.307 . S
C2795 H2796 0.930 . S
H2796 C2795 0.930 . S
C2797 N2798 1.334 . S
C2797 C2799 1.394 . S
C2797 H2801 0.930 . S
N2798 Gd2785 2.601 . S
N2798 C2788 1.359 . S
N2798 C2797 1.334 . S
C2799 C2797 1.394 . S
C2799 C2800 1.359 . S
C2799 H2811 0.930 . S
C2800 C2790 1.391 . S
C2800 C2799 1.359 . S
C2800 H2812 0.929 . S
H2801 C2797 0.930 . S
H2802 C2791 0.930 . S
H2803 C2820 0.930 . S
H2804 C2792 0.930 . S
H2805 C2793 0.930 . S
H2806 C2787 0.929 . S
H2807 C2825 0.930 . S
H2808 C2816 0.930 . S
H2809 C2817 0.930 . S
H2810 C2841 0.929 . S
H2811 C2799 0.930 . S
H2812 C2800 0.929 . S
H2813 C2842 0.930 . S
H2814 C2823 0.930 . S
N2815 Gd2784 2.661 1_556 S
N2815 C2819 1.350 . S
N2815 C2820 1.307 . S
C2816 H2808 0.930 . S
C2816 C2817 1.355 . S
C2816 C2818 1.412 . S
C2817 H2809 0.930 . S
C2817 C2816 1.355 . S
C2817 C2820 1.402 . S
C2818 C2816 1.412 . S
C2818 C2819 1.417 . S
C2818 C2842 1.431 . S
C2819 N2815 1.350 . S
C2819 C2818 1.417 . S
C2819 C2822 1.426 . S
C2820 H2803 0.930 . S
C2820 N2815 1.307 . S
C2820 C2817 1.402 . S
N2821 Gd2784 2.601 1_556 S
N2821 C2822 1.359 . S
N2821 C2825 1.334 . S
C2822 C2819 1.426 . S
C2822 N2821 1.359 . S
C2822 C2826 1.413 . S
C2823 H2814 0.930 . S
C2823 C2824 1.359 . S
C2823 C2825 1.394 . S
C2824 C2823 1.359 . S
C2824 C2826 1.391 . S
C2824 H2827 0.929 . S
C2825 H2807 0.930 . S
C2825 N2821 1.334 . S
C2825 C2823 1.394 . S
C2826 C2822 1.413 . S
C2826 C2824 1.391 . S
C2826 C2841 1.437 . S
H2827 C2824 0.929 . S
O2828 Gd2784 2.545 . S
O2828 C2843 1.258 . S
O2829 Gd2784 2.606 . S
O2829 Gd2785 2.362 . S
O2829 C2840 1.284 . S
O2830 Gd2785 2.324 . S
O2830 C2850 1.254 . S
O2831 Gd2784 2.429 . S
O2831 C2850 1.268 . S
O2832 Gd2784 2.545 . S
O2832 C2840 1.250 . S
O2833 Gd2784 2.412 . S
O2833 C2843 1.252 . S
O2834 Gd2785 2.545 . S
O2834 C2852 1.258 . S
O2835 Gd2784 2.362 1_556 S
O2835 Gd2785 2.606 1_556 S
O2835 C2851 1.284 . S
O2836 Gd2784 2.324 . S
O2836 C2859 1.254 . S
O2837 Gd2785 2.429 . S
O2837 C2859 1.268 . S
O2838 Gd2785 2.545 1_556 S
O2838 C2851 1.250 . S
O2839 Gd2785 2.412 . S
O2839 C2852 1.252 . S
C2840 O2829 1.284 . S
C2840 O2832 1.250 . S
C2841 H2810 0.929 . S
C2841 C2826 1.437 . S
C2841 C2842 1.317 . S
C2842 H2813 0.930 . S
C2842 C2818 1.431 . S
C2842 C2841 1.317 . S
C2843 Gd2784 2.828 . S
C2843 O2828 1.258 . S
C2843 O2833 1.252 . S
C2843 C2844 1.497 . S
C2844 C2843 1.497 . S
C2844 C2845 1.395 . S
C2844 C2846 1.380 . S
C2845 C2844 1.395 . S
C2845 C2848 1.398 . S
C2845 H2860 0.930 1_554 S
C2846 C2844 1.380 . S
C2846 C2847 1.391 . S
C2846 H2861 0.930 . S
C2847 C2846 1.391 . S
C2847 C2849 1.387 . S
C2848 C2845 1.398 . S
C2848 C2849 1.380 . S
C2848 H2862 0.930 . S
C2849 C2847 1.387 . S
C2849 C2848 1.380 . S
C2849 H2863 0.930 . S
C2850 O2830 1.254 . S
C2850 O2831 1.268 . S
C2851 O2835 1.284 . S
C2851 O2838 1.250 . S
C2852 Gd2785 2.828 . S
C2852 O2834 1.258 . S
C2852 O2839 1.252 . S
C2852 C2853 1.497 . S
C2853 C2852 1.497 . S
C2853 C2854 1.395 . S
C2853 C2855 1.380 . S
C2854 C2853 1.395 . S
C2854 C2857 1.398 . S
C2854 H2864 0.930 . S
C2855 C2853 1.380 . S
C2855 C2856 1.391 1_554 S
C2855 H2865 0.930 1_554 S
C2856 C2855 1.391 1_556 S
C2856 C2858 1.387 1_556 S
C2857 C2854 1.398 . S
C2857 C2858 1.380 . S
C2857 H2866 0.930 . S
C2858 C2856 1.387 1_554 S
C2858 C2857 1.380 . S
C2858 H2867 0.930 . S
C2859 O2836 1.254 . S
C2859 O2837 1.268 . S
H2860 C2845 0.930 1_556 S
H2861 C2846 0.930 . S
H2862 C2848 0.930 . S
H2863 C2849 0.930 . S
H2864 C2854 0.930 . S
H2865 C2855 0.930 1_556 S
H2866 C2857 0.930 . S
H2867 C2858 0.930 . S
Gd2868 N2899 2.661 . S
Gd2868 N2905 2.601 . S
Gd2868 O2912 2.545 . S
Gd2868 O2913 2.606 . S
Gd2868 O2915 2.429 . S
Gd2868 O2916 2.545 . S
Gd2868 O2917 2.412 . S
Gd2868 O2919 2.362 . S
Gd2868 O2920 2.324 . S
Gd2868 C2927 2.828 . S
Gd2869 N2878 2.661 . S
Gd2869 N2882 2.601 . S
Gd2869 O2913 2.362 . S
Gd2869 O2914 2.324 . S
Gd2869 O2918 2.545 . S
Gd2869 O2919 2.606 . S
Gd2869 O2921 2.429 . S
Gd2869 O2922 2.545 . S
Gd2869 O2923 2.412 . S
Gd2869 C2936 2.828 . S
C2870 C2873 1.417 . S
C2870 C2875 1.431 . S
C2870 C2876 1.412 . S
C2871 C2874 1.437 . S
C2871 C2875 1.317 . S
C2871 H2890 0.929 . S
C2872 C2873 1.426 . S
C2872 C2874 1.413 . S
C2872 N2882 1.359 . S
C2873 C2870 1.417 . S
C2873 C2872 1.426 . S
C2873 N2878 1.350 . S
C2874 C2871 1.437 . S
C2874 C2872 1.413 . S
C2874 C2884 1.391 . S
C2875 C2870 1.431 . S
C2875 C2871 1.317 . S
C2875 H2886 0.930 . S
C2876 C2870 1.412 . S
C2876 C2877 1.355 . S
C2876 H2888 0.930 . S
C2877 C2876 1.355 . S
C2877 C2879 1.402 . S
C2877 H2889 0.930 . S
N2878 Gd2869 2.661 . S
N2878 C2873 1.350 . S
N2878 C2879 1.307 . S
C2879 C2877 1.402 . S
C2879 N2878 1.307 . S
C2879 H2880 0.930 . S
H2880 C2879 0.930 . S
C2881 N2882 1.334 . S
C2881 C2883 1.394 . S
C2881 H2885 0.930 . S
N2882 Gd2869 2.601 . S
N2882 C2872 1.359 . S
N2882 C2881 1.334 . S
C2883 C2881 1.394 . S
C2883 C2884 1.359 . S
C2883 H2895 0.930 . S
C2884 C2874 1.391 . S
C2884 C2883 1.359 . S
C2884 H2896 0.929 . S
H2885 C2881 0.930 . S
H2886 C2875 0.930 . S
H2887 C2904 0.930 . S
H2888 C2876 0.930 . S
H2889 C2877 0.930 . S
H2890 C2871 0.929 . S
H2891 C2909 0.930 . S
H2892 C2900 0.930 . S
H2893 C2901 0.930 . S
H2894 C2925 0.929 . S
H2895 C2883 0.930 . S
H2896 C2884 0.929 . S
H2897 C2926 0.930 . S
H2898 C2907 0.930 . S
N2899 Gd2868 2.661 . S
N2899 C2903 1.350 . S
N2899 C2904 1.307 . S
C2900 H2892 0.930 . S
C2900 C2901 1.355 . S
C2900 C2902 1.412 . S
C2901 H2893 0.930 . S
C2901 C2900 1.355 . S
C2901 C2904 1.402 . S
C2902 C2900 1.412 . S
C2902 C2903 1.417 . S
C2902 C2926 1.431 . S
C2903 N2899 1.350 . S
C2903 C2902 1.417 . S
C2903 C2906 1.426 . S
C2904 H2887 0.930 . S
C2904 N2899 1.307 . S
C2904 C2901 1.402 . S
N2905 Gd2868 2.601 . S
N2905 C2906 1.359 . S
N2905 C2909 1.334 . S
C2906 C2903 1.426 . S
C2906 N2905 1.359 . S
C2906 C2910 1.413 . S
C2907 H2898 0.930 . S
C2907 C2908 1.359 . S
C2907 C2909 1.394 . S
C2908 C2907 1.359 . S
C2908 C2910 1.391 . S
C2908 H2911 0.929 . S
C2909 H2891 0.930 . S
C2909 N2905 1.334 . S
C2909 C2907 1.394 . S
C2910 C2906 1.413 . S
C2910 C2908 1.391 . S
C2910 C2925 1.437 . S
H2911 C2908 0.929 . S
O2912 Gd2868 2.545 . S
O2912 C2927 1.258 . S
O2913 Gd2868 2.606 . S
O2913 Gd2869 2.362 . S
O2913 C2924 1.284 . S
O2914 Gd2869 2.324 . S
O2914 C2934 1.254 . S
O2915 Gd2868 2.429 . S
O2915 C2934 1.268 . S
O2916 Gd2868 2.545 . S
O2916 C2924 1.250 . S
O2917 Gd2868 2.412 . S
O2917 C2927 1.252 . S
O2918 Gd2869 2.545 . S
O2918 C2936 1.258 . S
O2919 Gd2868 2.362 . S
O2919 Gd2869 2.606 . S
O2919 C2935 1.284 . S
O2920 Gd2868 2.324 . S
O2920 C2943 1.254 . S
O2921 Gd2869 2.429 . S
O2921 C2943 1.268 . S
O2922 Gd2869 2.545 . S
O2922 C2935 1.250 . S
O2923 Gd2869 2.412 . S
O2923 C2936 1.252 . S
C2924 O2913 1.284 . S
C2924 O2916 1.250 . S
C2925 H2894 0.929 . S
C2925 C2910 1.437 . S
C2925 C2926 1.317 . S
C2926 H2897 0.930 . S
C2926 C2902 1.431 . S
C2926 C2925 1.317 . S
C2927 Gd2868 2.828 . S
C2927 O2912 1.258 . S
C2927 O2917 1.252 . S
C2927 C2928 1.497 . S
C2928 C2927 1.497 . S
C2928 C2929 1.395 . S
C2928 C2930 1.380 . S
C2929 C2928 1.395 . S
C2929 C2932 1.398 . S
C2929 H2944 0.930 . S
C2930 C2928 1.380 . S
C2930 C2931 1.391 . S
C2930 H2945 0.930 . S
C2931 C2930 1.391 . S
C2931 C2933 1.387 . S
C2932 C2929 1.398 . S
C2932 C2933 1.380 . S
C2932 H2946 0.930 . S
C2933 C2931 1.387 . S
C2933 C2932 1.380 . S
C2933 H2947 0.930 . S
C2934 O2914 1.254 . S
C2934 O2915 1.268 . S
C2935 O2919 1.284 . S
C2935 O2922 1.250 . S
C2936 Gd2869 2.828 . S
C2936 O2918 1.258 . S
C2936 O2923 1.252 . S
C2936 C2937 1.497 . S
C2937 C2936 1.497 . S
C2937 C2938 1.395 . S
C2937 C2939 1.380 . S
C2938 C2937 1.395 . S
C2938 C2941 1.398 1_655 S
C2938 H2948 0.930 . S
C2939 C2937 1.380 . S
C2939 C2940 1.391 1_655 S
C2939 H2949 0.930 . S
C2940 C2939 1.391 1_455 S
C2940 C2942 1.387 . S
C2941 C2938 1.398 1_455 S
C2941 C2942 1.380 . S
C2941 H2950 0.930 . S
C2942 C2940 1.387 . S
C2942 C2941 1.380 . S
C2942 H2951 0.930 . S
C2943 O2920 1.254 . S
C2943 O2921 1.268 . S
H2944 C2929 0.930 . S
H2945 C2930 0.930 . S
H2946 C2932 0.930 . S
H2947 C2933 0.930 . S
H2948 C2938 0.930 . S
H2949 C2939 0.930 . S
H2950 C2941 0.930 . S
H2951 C2942 0.930 . S
Gd2952 N2983 2.661 . S
Gd2952 N2989 2.601 . S
Gd2952 O2996 2.545 . S
Gd2952 O2997 2.606 . S
Gd2952 O2999 2.429 . S
Gd2952 O3000 2.545 . S
Gd2952 O3001 2.412 . S
Gd2952 O3003 2.362 . S
Gd2952 O3004 2.324 . S
Gd2952 C3011 2.828 . S
Gd2953 N2962 2.661 . S
Gd2953 N2966 2.601 . S
Gd2953 O2997 2.362 . S
Gd2953 O2998 2.324 . S
Gd2953 O3002 2.545 . S
Gd2953 O3003 2.606 . S
Gd2953 O3005 2.429 . S
Gd2953 O3006 2.545 . S
Gd2953 O3007 2.412 . S
Gd2953 C3020 2.828 . S
C2954 C2957 1.417 . S
C2954 C2959 1.431 . S
C2954 C2960 1.412 . S
C2955 C2958 1.437 . S
C2955 C2959 1.317 . S
C2955 H2974 0.929 . S
C2956 C2957 1.426 . S
C2956 C2958 1.413 . S
C2956 N2966 1.359 . S
C2957 C2954 1.417 . S
C2957 C2956 1.426 . S
C2957 N2962 1.350 . S
C2958 C2955 1.437 . S
C2958 C2956 1.413 . S
C2958 C2968 1.391 . S
C2959 C2954 1.431 . S
C2959 C2955 1.317 . S
C2959 H2970 0.930 . S
C2960 C2954 1.412 . S
C2960 C2961 1.355 . S
C2960 H2972 0.930 . S
C2961 C2960 1.355 . S
C2961 C2963 1.402 . S
C2961 H2973 0.930 . S
N2962 Gd2953 2.661 . S
N2962 C2957 1.350 . S
N2962 C2963 1.307 . S
C2963 C2961 1.402 . S
C2963 N2962 1.307 . S
C2963 H2964 0.930 . S
H2964 C2963 0.930 . S
C2965 N2966 1.334 . S
C2965 C2967 1.394 . S
C2965 H2969 0.930 . S
N2966 Gd2953 2.601 . S
N2966 C2956 1.359 . S
N2966 C2965 1.334 . S
C2967 C2965 1.394 . S
C2967 C2968 1.359 . S
C2967 H2979 0.930 . S
C2968 C2958 1.391 . S
C2968 C2967 1.359 . S
C2968 H2980 0.929 . S
H2969 C2965 0.930 . S
H2970 C2959 0.930 . S
H2971 C2988 0.930 . S
H2972 C2960 0.930 . S
H2973 C2961 0.930 . S
H2974 C2955 0.929 . S
H2975 C2993 0.930 . S
H2976 C2984 0.930 . S
H2977 C2985 0.930 . S
H2978 C3009 0.929 . S
H2979 C2967 0.930 . S
H2980 C2968 0.929 . S
H2981 C3010 0.930 . S
H2982 C2991 0.930 . S
N2983 Gd2952 2.661 . S
N2983 C2987 1.350 . S
N2983 C2988 1.307 . S
C2984 H2976 0.930 . S
C2984 C2985 1.355 . S
C2984 C2986 1.412 . S
C2985 H2977 0.930 . S
C2985 C2984 1.355 . S
C2985 C2988 1.402 1_655 S
C2986 C2984 1.412 . S
C2986 C2987 1.417 1_655 S
C2986 C3010 1.431 . S
C2987 N2983 1.350 . S
C2987 C2986 1.417 1_455 S
C2987 C2990 1.426 . S
C2988 H2971 0.930 . S
C2988 N2983 1.307 . S
C2988 C2985 1.402 1_455 S
N2989 Gd2952 2.601 . S
N2989 C2990 1.359 . S
N2989 C2993 1.334 . S
C2990 C2987 1.426 . S
C2990 N2989 1.359 . S
C2990 C2994 1.413 1_455 S
C2991 H2982 0.930 . S
C2991 C2992 1.359 1_455 S
C2991 C2993 1.394 . S
C2992 C2991 1.359 1_655 S
C2992 C2994 1.391 . S
C2992 H2995 0.929 . S
C2993 H2975 0.930 . S
C2993 N2989 1.334 . S
C2993 C2991 1.394 . S
C2994 C2990 1.413 1_655 S
C2994 C2992 1.391 . S
C2994 C3009 1.437 . S
H2995 C2992 0.929 . S
O2996 Gd2952 2.545 . S
O2996 C3011 1.258 . S
O2997 Gd2952 2.606 . S
O2997 Gd2953 2.362 . S
O2997 C3008 1.284 . S
O2998 Gd2953 2.324 . S
O2998 C3018 1.254 . S
O2999 Gd2952 2.429 . S
O2999 C3018 1.268 . S
O3000 Gd2952 2.545 . S
O3000 C3008 1.250 . S
O3001 Gd2952 2.412 . S
O3001 C3011 1.252 . S
O3002 Gd2953 2.545 . S
O3002 C3020 1.258 . S
O3003 Gd2952 2.362 . S
O3003 Gd2953 2.606 . S
O3003 C3019 1.284 . S
O3004 Gd2952 2.324 . S
O3004 C3027 1.254 . S
O3005 Gd2953 2.429 . S
O3005 C3027 1.268 . S
O3006 Gd2953 2.545 . S
O3006 C3019 1.250 . S
O3007 Gd2953 2.412 . S
O3007 C3020 1.252 . S
C3008 O2997 1.284 . S
C3008 O3000 1.250 . S
C3009 H2978 0.929 . S
C3009 C2994 1.437 . S
C3009 C3010 1.317 . S
C3010 H2981 0.930 . S
C3010 C2986 1.431 . S
C3010 C3009 1.317 . S
C3011 Gd2952 2.828 . S
C3011 O2996 1.258 . S
C3011 O3001 1.252 . S
C3011 C3012 1.497 . S
C3012 C3011 1.497 . S
C3012 C3013 1.395 . S
C3012 C3014 1.380 . S
C3013 C3012 1.395 . S
C3013 C3016 1.398 . S
C3013 H3028 0.930 . S
C3014 C3012 1.380 . S
C3014 C3015 1.391 . S
C3014 H3029 0.930 . S
C3015 C3014 1.391 . S
C3015 C3017 1.387 . S
C3016 C3013 1.398 . S
C3016 C3017 1.380 . S
C3016 H3030 0.930 . S
C3017 C3015 1.387 . S
C3017 C3016 1.380 . S
C3017 H3031 0.930 . S
C3018 O2998 1.254 . S
C3018 O2999 1.268 . S
C3019 O3003 1.284 . S
C3019 O3006 1.250 . S
C3020 Gd2953 2.828 . S
C3020 O3002 1.258 . S
C3020 O3007 1.252 . S
C3020 C3021 1.497 . S
C3021 C3020 1.497 . S
C3021 C3022 1.395 . S
C3021 C3023 1.380 . S
C3022 C3021 1.395 . S
C3022 C3025 1.398 . S
C3022 H3032 0.930 . S
C3023 C3021 1.380 . S
C3023 C3024 1.391 . S
C3023 H3033 0.930 . S
C3024 C3023 1.391 . S
C3024 C3026 1.387 . S
C3025 C3022 1.398 . S
C3025 C3026 1.380 . S
C3025 H3034 0.930 . S
C3026 C3024 1.387 . S
C3026 C3025 1.380 . S
C3026 H3035 0.920 1_455 S
C3027 O3004 1.254 . S
C3027 O3005 1.268 . S
H3028 C3013 0.930 . S
H3029 C3014 0.930 . S
H3030 C3016 0.930 . S
H3031 C3017 0.930 . S
H3032 C3022 0.930 . S
H3033 C3023 0.930 . S
H3034 C3025 0.930 . S
H3035 C3026 0.920 1_655 S
Gd3036 N3067 2.661 . S
Gd3036 N3073 2.601 . S
Gd3036 O3080 2.545 . S
Gd3036 O3081 2.606 . S
Gd3036 O3083 2.429 . S
Gd3036 O3084 2.545 . S
Gd3036 O3085 2.412 . S
Gd3036 O3087 2.362 . S
Gd3036 O3088 2.324 . S
Gd3036 C3095 2.828 . S
Gd3037 N3046 2.661 . S
Gd3037 N3050 2.601 . S
Gd3037 O3081 2.362 . S
Gd3037 O3082 2.324 . S
Gd3037 O3086 2.545 . S
Gd3037 O3087 2.606 . S
Gd3037 O3089 2.429 . S
Gd3037 O3090 2.545 . S
Gd3037 O3091 2.412 . S
Gd3037 C3104 2.828 . S
C3038 C3041 1.417 . S
C3038 C3043 1.431 . S
C3038 C3044 1.412 . S
C3039 C3042 1.437 . S
C3039 C3043 1.317 . S
C3039 H3058 0.929 . S
C3040 C3041 1.426 . S
C3040 C3042 1.413 . S
C3040 N3050 1.359 . S
C3041 C3038 1.417 . S
C3041 C3040 1.426 . S
C3041 N3046 1.350 . S
C3042 C3039 1.437 . S
C3042 C3040 1.413 . S
C3042 C3052 1.391 . S
C3043 C3038 1.431 . S
C3043 C3039 1.317 . S
C3043 H3054 0.930 . S
C3044 C3038 1.412 . S
C3044 C3045 1.355 . S
C3044 H3056 0.930 . S
C3045 C3044 1.355 . S
C3045 C3047 1.402 . S
C3045 H3057 0.930 . S
N3046 Gd3037 2.661 . S
N3046 C3041 1.350 . S
N3046 C3047 1.307 . S
C3047 C3045 1.402 . S
C3047 N3046 1.307 . S
C3047 H3048 0.930 . S
H3048 C3047 0.930 . S
C3049 N3050 1.334 . S
C3049 C3051 1.394 . S
C3049 H3053 0.930 . S
N3050 Gd3037 2.601 . S
N3050 C3040 1.359 . S
N3050 C3049 1.334 . S
C3051 C3049 1.394 . S
C3051 C3052 1.359 . S
C3051 H3063 0.930 . S
C3052 C3042 1.391 . S
C3052 C3051 1.359 . S
C3052 H3064 0.929 . S
H3053 C3049 0.930 . S
H3054 C3043 0.930 . S
H3055 C3072 0.930 . S
H3056 C3044 0.930 . S
H3057 C3045 0.930 . S
H3058 C3039 0.929 . S
H3059 C3077 0.930 . S
H3060 C3068 0.930 . S
H3061 C3069 0.930 . S
H3062 C3093 0.929 . S
H3063 C3051 0.930 . S
H3064 C3052 0.929 . S
H3065 C3094 0.930 . S
H3066 C3075 0.930 . S
N3067 Gd3036 2.661 . S
N3067 C3071 1.350 . S
N3067 C3072 1.307 . S
C3068 H3060 0.930 . S
C3068 C3069 1.355 . S
C3068 C3070 1.412 . S
C3069 H3061 0.930 . S
C3069 C3068 1.355 . S
C3069 C3072 1.402 . S
C3070 C3068 1.412 . S
C3070 C3071 1.417 . S
C3070 C3094 1.431 . S
C3071 N3067 1.350 . S
C3071 C3070 1.417 . S
C3071 C3074 1.426 . S
C3072 H3055 0.930 . S
C3072 N3067 1.307 . S
C3072 C3069 1.402 . S
N3073 Gd3036 2.601 . S
N3073 C3074 1.359 . S
N3073 C3077 1.334 . S
C3074 C3071 1.426 . S
C3074 N3073 1.359 . S
C3074 C3078 1.413 . S
C3075 H3066 0.930 . S
C3075 C3076 1.359 . S
C3075 C3077 1.394 . S
C3076 C3075 1.359 . S
C3076 C3078 1.391 . S
C3076 H3079 0.929 . S
C3077 H3059 0.930 . S
C3077 N3073 1.334 . S
C3077 C3075 1.394 . S
C3078 C3074 1.413 . S
C3078 C3076 1.391 . S
C3078 C3093 1.437 . S
H3079 C3076 0.929 . S
O3080 Gd3036 2.545 . S
O3080 C3095 1.258 . S
O3081 Gd3036 2.606 . S
O3081 Gd3037 2.362 . S
O3081 C3092 1.284 . S
O3082 Gd3037 2.324 . S
O3082 C3102 1.254 . S
O3083 Gd3036 2.429 . S
O3083 C3102 1.268 . S
O3084 Gd3036 2.545 . S
O3084 C3092 1.250 . S
O3085 Gd3036 2.412 . S
O3085 C3095 1.252 . S
O3086 Gd3037 2.545 . S
O3086 C3104 1.258 . S
O3087 Gd3036 2.362 . S
O3087 Gd3037 2.606 . S
O3087 C3103 1.284 . S
O3088 Gd3036 2.324 . S
O3088 C3111 1.254 . S
O3089 Gd3037 2.429 . S
O3089 C3111 1.268 . S
O3090 Gd3037 2.545 . S
O3090 C3103 1.250 . S
O3091 Gd3037 2.412 . S
O3091 C3104 1.252 . S
C3092 O3081 1.284 . S
C3092 O3084 1.250 . S
C3093 H3062 0.929 . S
C3093 C3078 1.437 . S
C3093 C3094 1.317 . S
C3094 H3065 0.930 . S
C3094 C3070 1.431 . S
C3094 C3093 1.317 . S
C3095 Gd3036 2.828 . S
C3095 O3080 1.258 . S
C3095 O3085 1.252 . S
C3095 C3096 1.497 . S
C3096 C3095 1.497 . S
C3096 C3097 1.395 . S
C3096 C3098 1.380 . S
C3097 C3096 1.395 . S
C3097 C3100 1.398 . S
C3097 H3112 0.930 . S
C3098 C3096 1.380 . S
C3098 C3099 1.391 . S
C3098 H3113 0.930 . S
C3099 C3098 1.391 . S
C3099 C3101 1.387 . S
C3100 C3097 1.398 . S
C3100 C3101 1.380 . S
C3100 H3114 0.930 . S
C3101 C3099 1.387 . S
C3101 C3100 1.380 . S
C3101 H3115 0.930 1_655 S
C3102 O3082 1.254 . S
C3102 O3083 1.268 . S
C3103 O3087 1.284 . S
C3103 O3090 1.250 . S
C3104 Gd3037 2.828 . S
C3104 O3086 1.258 . S
C3104 O3091 1.252 . S
C3104 C3105 1.497 . S
C3105 C3104 1.497 . S
C3105 C3106 1.395 . S
C3105 C3107 1.380 . S
C3106 C3105 1.395 . S
C3106 C3109 1.398 . S
C3106 H3116 0.930 . S
C3107 C3105 1.380 . S
C3107 C3108 1.391 . S
C3107 H3117 0.930 . S
C3108 C3107 1.391 . S
C3108 C3110 1.387 . S
C3109 C3106 1.398 . S
C3109 C3110 1.380 . S
C3109 H3118 0.930 . S
C3110 C3108 1.387 . S
C3110 C3109 1.380 . S
C3110 H3119 0.930 . S
C3111 O3088 1.254 . S
C3111 O3089 1.268 . S
H3112 C3097 0.930 . S
H3113 C3098 0.930 . S
H3114 C3100 0.930 . S
H3115 C3101 0.930 1_455 S
H3116 C3106 0.930 . S
H3117 C3107 0.930 . S
H3118 C3109 0.930 . S
H3119 C3110 0.930 . S
Gd3120 N3151 2.661 . S
Gd3120 N3157 2.601 . S
Gd3120 O3164 2.545 . S
Gd3120 O3165 2.606 . S
Gd3120 O3167 2.429 . S
Gd3120 O3168 2.545 . S
Gd3120 O3169 2.412 . S
Gd3120 O3171 2.362 . S
Gd3120 O3172 2.324 . S
Gd3120 C3179 2.828 . S
Gd3121 N3130 2.661 . S
Gd3121 N3134 2.601 . S
Gd3121 O3165 2.362 . S
Gd3121 O3166 2.324 . S
Gd3121 O3170 2.545 . S
Gd3121 O3171 2.606 . S
Gd3121 O3173 2.429 . S
Gd3121 O3174 2.545 . S
Gd3121 O3175 2.412 . S
Gd3121 C3188 2.828 . S
C3122 C3125 1.417 . S
C3122 C3127 1.431 . S
C3122 C3128 1.412 . S
C3123 C3126 1.437 . S
C3123 C3127 1.317 . S
C3123 H3142 0.929 . S
C3124 C3125 1.426 . S
C3124 C3126 1.413 . S
C3124 N3134 1.359 . S
C3125 C3122 1.417 . S
C3125 C3124 1.426 . S
C3125 N3130 1.350 . S
C3126 C3123 1.437 . S
C3126 C3124 1.413 . S
C3126 C3136 1.391 . S
C3127 C3122 1.431 . S
C3127 C3123 1.317 . S
C3127 H3138 0.930 . S
C3128 C3122 1.412 . S
C3128 C3129 1.355 . S
C3128 H3140 0.930 . S
C3129 C3128 1.355 . S
C3129 C3131 1.402 . S
C3129 H3141 0.930 . S
N3130 Gd3121 2.661 . S
N3130 C3125 1.350 . S
N3130 C3131 1.307 . S
C3131 C3129 1.402 . S
C3131 N3130 1.307 . S
C3131 H3132 0.930 . S
H3132 C3131 0.930 . S
C3133 N3134 1.334 . S
C3133 C3135 1.394 . S
C3133 H3137 0.930 . S
N3134 Gd3121 2.601 . S
N3134 C3124 1.359 . S
N3134 C3133 1.334 . S
C3135 C3133 1.394 . S
C3135 C3136 1.359 . S
C3135 H3147 0.930 . S
C3136 C3126 1.391 . S
C3136 C3135 1.359 . S
C3136 H3148 0.929 . S
H3137 C3133 0.930 . S
H3138 C3127 0.930 . S
H3139 C3156 0.930 . S
H3140 C3128 0.930 . S
H3141 C3129 0.930 . S
H3142 C3123 0.929 . S
H3143 C3161 0.930 . S
H3144 C3152 0.930 . S
H3145 C3153 0.930 . S
H3146 C3177 0.929 . S
H3147 C3135 0.930 . S
H3148 C3136 0.929 . S
H3149 C3178 0.930 . S
H3150 C3159 0.930 . S
N3151 Gd3120 2.661 . S
N3151 C3155 1.350 . S
N3151 C3156 1.307 . S
C3152 H3144 0.930 . S
C3152 C3153 1.355 . S
C3152 C3154 1.412 . S
C3153 H3145 0.930 . S
C3153 C3152 1.355 . S
C3153 C3156 1.402 . S
C3154 C3152 1.412 . S
C3154 C3155 1.417 . S
C3154 C3178 1.431 . S
C3155 N3151 1.350 . S
C3155 C3154 1.417 . S
C3155 C3158 1.426 . S
C3156 H3139 0.930 . S
C3156 N3151 1.307 . S
C3156 C3153 1.402 . S
N3157 Gd3120 2.601 . S
N3157 C3158 1.359 . S
N3157 C3161 1.334 . S
C3158 C3155 1.426 . S
C3158 N3157 1.359 . S
C3158 C3162 1.413 . S
C3159 H3150 0.930 . S
C3159 C3160 1.359 . S
C3159 C3161 1.394 . S
C3160 C3159 1.359 . S
C3160 C3162 1.391 . S
C3160 H3163 0.929 . S
C3161 H3143 0.930 . S
C3161 N3157 1.334 . S
C3161 C3159 1.394 . S
C3162 C3158 1.413 . S
C3162 C3160 1.391 . S
C3162 C3177 1.437 . S
H3163 C3160 0.929 . S
O3164 Gd3120 2.545 . S
O3164 C3179 1.258 . S
O3165 Gd3120 2.606 . S
O3165 Gd3121 2.362 . S
O3165 C3176 1.284 . S
O3166 Gd3121 2.324 . S
O3166 C3186 1.254 . S
O3167 Gd3120 2.429 . S
O3167 C3186 1.268 . S
O3168 Gd3120 2.545 . S
O3168 C3176 1.250 . S
O3169 Gd3120 2.412 . S
O3169 C3179 1.252 . S
O3170 Gd3121 2.545 . S
O3170 C3188 1.258 . S
O3171 Gd3120 2.362 . S
O3171 Gd3121 2.606 . S
O3171 C3187 1.284 . S
O3172 Gd3120 2.324 . S
O3172 C3195 1.254 . S
O3173 Gd3121 2.429 . S
O3173 C3195 1.268 . S
O3174 Gd3121 2.545 . S
O3174 C3187 1.250 . S
O3175 Gd3121 2.412 . S
O3175 C3188 1.252 . S
C3176 O3165 1.284 . S
C3176 O3168 1.250 . S
C3177 H3146 0.929 . S
C3177 C3162 1.437 . S
C3177 C3178 1.317 . S
C3178 H3149 0.930 . S
C3178 C3154 1.431 . S
C3178 C3177 1.317 . S
C3179 Gd3120 2.828 . S
C3179 O3164 1.258 . S
C3179 O3169 1.252 . S
C3179 C3180 1.497 . S
C3180 C3179 1.497 . S
C3180 C3181 1.395 . S
C3180 C3182 1.380 . S
C3181 C3180 1.395 . S
C3181 C3184 1.398 . S
C3181 H3196 0.930 . S
C3182 C3180 1.380 . S
C3182 C3183 1.391 . S
C3182 H3197 0.930 . S
C3183 C3182 1.391 . S
C3183 C3185 1.387 . S
C3184 C3181 1.398 . S
C3184 C3185 1.380 . S
C3184 H3198 0.930 . S
C3185 C3183 1.387 . S
C3185 C3184 1.380 . S
C3185 H3199 0.930 . S
C3186 O3166 1.254 . S
C3186 O3167 1.268 . S
C3187 O3171 1.284 . S
C3187 O3174 1.250 . S
C3188 Gd3121 2.828 . S
C3188 O3170 1.258 . S
C3188 O3175 1.252 . S
C3188 C3189 1.497 . S
C3189 C3188 1.497 . S
C3189 C3190 1.395 . S
C3189 C3191 1.380 . S
C3190 C3189 1.395 . S
C3190 C3193 1.398 . S
C3190 H3200 0.930 . S
C3191 C3189 1.380 . S
C3191 C3192 1.391 . S
C3191 H3201 0.930 . S
C3192 C3191 1.391 . S
C3192 C3194 1.387 . S
C3193 C3190 1.398 . S
C3193 C3194 1.380 . S
C3193 H3202 0.930 . S
C3194 C3192 1.387 . S
C3194 C3193 1.380 . S
C3194 H3203 0.930 . S
C3195 O3172 1.254 . S
C3195 O3173 1.268 . S
H3196 C3181 0.930 . S
H3197 C3182 0.930 . S
H3198 C3184 0.930 . S
H3199 C3185 0.930 . S
H3200 C3190 0.930 . S
H3201 C3191 0.930 . S
H3202 C3193 0.930 . S
H3203 C3194 0.930 . S
Gd3204 N3235 2.661 . S
Gd3204 N3241 2.601 . S
Gd3204 O3248 2.545 . S
Gd3204 O3249 2.606 . S
Gd3204 O3251 2.429 . S
Gd3204 O3252 2.545 . S
Gd3204 O3253 2.412 . S
Gd3204 O3255 2.362 . S
Gd3204 O3256 2.324 . S
Gd3204 C3263 2.828 . S
Gd3205 N3214 2.661 . S
Gd3205 N3218 2.601 . S
Gd3205 O3249 2.362 . S
Gd3205 O3250 2.324 . S
Gd3205 O3254 2.545 . S
Gd3205 O3255 2.606 . S
Gd3205 O3257 2.429 . S
Gd3205 O3258 2.545 . S
Gd3205 O3259 2.412 . S
Gd3205 C3272 2.828 . S
C3206 C3209 1.417 . S
C3206 C3211 1.431 . S
C3206 C3212 1.412 . S
C3207 C3210 1.437 . S
C3207 C3211 1.317 . S
C3207 H3226 0.929 . S
C3208 C3209 1.426 . S
C3208 C3210 1.413 . S
C3208 N3218 1.359 . S
C3209 C3206 1.417 . S
C3209 C3208 1.426 . S
C3209 N3214 1.350 . S
C3210 C3207 1.437 . S
C3210 C3208 1.413 . S
C3210 C3220 1.391 . S
C3211 C3206 1.431 . S
C3211 C3207 1.317 . S
C3211 H3222 0.930 . S
C3212 C3206 1.412 . S
C3212 C3213 1.355 . S
C3212 H3224 0.930 . S
C3213 C3212 1.355 . S
C3213 C3215 1.402 . S
C3213 H3225 0.930 . S
N3214 Gd3205 2.661 . S
N3214 C3209 1.350 . S
N3214 C3215 1.307 . S
C3215 C3213 1.402 . S
C3215 N3214 1.307 . S
C3215 H3216 0.930 . S
H3216 C3215 0.930 . S
C3217 N3218 1.334 . S
C3217 C3219 1.394 . S
C3217 H3221 0.930 . S
N3218 Gd3205 2.601 . S
N3218 C3208 1.359 . S
N3218 C3217 1.334 . S
C3219 C3217 1.394 . S
C3219 C3220 1.359 . S
C3219 H3231 0.930 . S
C3220 C3210 1.391 . S
C3220 C3219 1.359 . S
C3220 H3232 0.929 . S
H3221 C3217 0.930 . S
H3222 C3211 0.930 . S
H3223 C3240 0.930 . S
H3224 C3212 0.930 . S
H3225 C3213 0.930 . S
H3226 C3207 0.929 . S
H3227 C3245 0.930 . S
H3228 C3236 0.930 . S
H3229 C3237 0.930 . S
H3230 C3261 0.929 . S
H3231 C3219 0.930 . S
H3232 C3220 0.929 . S
H3233 C3262 0.930 . S
H3234 C3243 0.930 . S
N3235 Gd3204 2.661 . S
N3235 C3239 1.350 . S
N3235 C3240 1.307 . S
C3236 H3228 0.930 . S
C3236 C3237 1.355 . S
C3236 C3238 1.412 . S
C3237 H3229 0.930 . S
C3237 C3236 1.355 . S
C3237 C3240 1.402 . S
C3238 C3236 1.412 . S
C3238 C3239 1.417 . S
C3238 C3262 1.431 . S
C3239 N3235 1.350 . S
C3239 C3238 1.417 . S
C3239 C3242 1.426 . S
C3240 H3223 0.930 . S
C3240 N3235 1.307 . S
C3240 C3237 1.402 . S
N3241 Gd3204 2.601 . S
N3241 C3242 1.359 . S
N3241 C3245 1.334 . S
C3242 C3239 1.426 . S
C3242 N3241 1.359 . S
C3242 C3246 1.413 . S
C3243 H3234 0.930 . S
C3243 C3244 1.359 . S
C3243 C3245 1.394 . S
C3244 C3243 1.359 . S
C3244 C3246 1.391 . S
C3244 H3247 0.929 . S
C3245 H3227 0.930 . S
C3245 N3241 1.334 . S
C3245 C3243 1.394 . S
C3246 C3242 1.413 . S
C3246 C3244 1.391 . S
C3246 C3261 1.437 . S
H3247 C3244 0.929 . S
O3248 Gd3204 2.545 . S
O3248 C3263 1.258 . S
O3249 Gd3204 2.606 . S
O3249 Gd3205 2.362 . S
O3249 C3260 1.284 . S
O3250 Gd3205 2.324 . S
O3250 C3270 1.254 . S
O3251 Gd3204 2.429 . S
O3251 C3270 1.268 . S
O3252 Gd3204 2.545 . S
O3252 C3260 1.250 . S
O3253 Gd3204 2.412 . S
O3253 C3263 1.252 . S
O3254 Gd3205 2.545 . S
O3254 C3272 1.258 . S
O3255 Gd3204 2.362 . S
O3255 Gd3205 2.606 . S
O3255 C3271 1.284 . S
O3256 Gd3204 2.324 . S
O3256 C3279 1.254 . S
O3257 Gd3205 2.429 . S
O3257 C3279 1.268 . S
O3258 Gd3205 2.545 . S
O3258 C3271 1.250 . S
O3259 Gd3205 2.412 . S
O3259 C3272 1.252 . S
C3260 O3249 1.284 . S
C3260 O3252 1.250 . S
C3261 H3230 0.929 . S
C3261 C3246 1.437 . S
C3261 C3262 1.317 . S
C3262 H3233 0.930 . S
C3262 C3238 1.431 . S
C3262 C3261 1.317 . S
C3263 Gd3204 2.828 . S
C3263 O3248 1.258 . S
C3263 O3253 1.252 . S
C3263 C3264 1.497 . S
C3264 C3263 1.497 . S
C3264 C3265 1.395 . S
C3264 C3266 1.380 . S
C3265 C3264 1.395 . S
C3265 C3268 1.398 . S
C3265 H3280 0.930 . S
C3266 C3264 1.380 . S
C3266 C3267 1.391 . S
C3266 H3281 0.930 . S
C3267 C3266 1.391 . S
C3267 C3269 1.387 . S
C3268 C3265 1.398 . S
C3268 C3269 1.380 . S
C3268 H3282 0.930 . S
C3269 C3267 1.387 . S
C3269 C3268 1.380 . S
C3269 H3283 0.930 . S
C3270 O3250 1.254 . S
C3270 O3251 1.268 . S
C3271 O3255 1.284 . S
C3271 O3258 1.250 . S
C3272 Gd3205 2.828 . S
C3272 O3254 1.258 . S
C3272 O3259 1.252 . S
C3272 C3273 1.497 . S
C3273 C3272 1.497 . S
C3273 C3274 1.395 . S
C3273 C3275 1.380 . S
C3274 C3273 1.395 . S
C3274 C3277 1.398 . S
C3274 H3284 0.930 . S
C3275 C3273 1.380 . S
C3275 C3276 1.391 . S
C3275 H3285 0.930 . S
C3276 C3275 1.391 . S
C3276 C3278 1.387 1_565 S
C3277 C3274 1.398 . S
C3277 C3278 1.380 1_565 S
C3277 H3286 0.930 1_565 S
C3278 C3276 1.387 1_545 S
C3278 C3277 1.380 1_545 S
C3278 H3287 0.930 . S
C3279 O3256 1.254 . S
C3279 O3257 1.268 . S
H3280 C3265 0.930 . S
H3281 C3266 0.930 . S
H3282 C3268 0.930 . S
H3283 C3269 0.930 . S
H3284 C3274 0.930 . S
H3285 C3275 0.930 . S
H3286 C3277 0.930 1_545 S
H3287 C3278 0.930 . S
Gd3288 N3319 2.661 . S
Gd3288 N3325 2.601 . S
Gd3288 O3332 2.545 . S
Gd3288 O3333 2.606 . S
Gd3288 O3335 2.429 . S
Gd3288 O3336 2.545 . S
Gd3288 O3337 2.412 . S
Gd3288 O3339 2.362 . S
Gd3288 O3340 2.324 . S
Gd3288 C3347 2.828 . S
Gd3289 N3298 2.661 . S
Gd3289 N3302 2.601 . S
Gd3289 O3333 2.362 . S
Gd3289 O3334 2.324 . S
Gd3289 O3338 2.545 . S
Gd3289 O3339 2.606 . S
Gd3289 O3341 2.429 . S
Gd3289 O3342 2.545 . S
Gd3289 O3343 2.412 . S
Gd3289 C3356 2.828 . S
C3290 C3293 1.417 . S
C3290 C3295 1.431 . S
C3290 C3296 1.412 . S
C3291 C3294 1.437 . S
C3291 C3295 1.317 . S
C3291 H3310 0.929 . S
C3292 C3293 1.426 . S
C3292 C3294 1.413 . S
C3292 N3302 1.359 . S
C3293 C3290 1.417 . S
C3293 C3292 1.426 . S
C3293 N3298 1.350 . S
C3294 C3291 1.437 . S
C3294 C3292 1.413 . S
C3294 C3304 1.391 . S
C3295 C3290 1.431 . S
C3295 C3291 1.317 . S
C3295 H3306 0.930 . S
C3296 C3290 1.412 . S
C3296 C3297 1.355 . S
C3296 H3308 0.930 . S
C3297 C3296 1.355 . S
C3297 C3299 1.402 . S
C3297 H3309 0.930 . S
N3298 Gd3289 2.661 . S
N3298 C3293 1.350 . S
N3298 C3299 1.307 . S
C3299 C3297 1.402 . S
C3299 N3298 1.307 . S
C3299 H3300 0.930 . S
H3300 C3299 0.930 . S
C3301 N3302 1.334 . S
C3301 C3303 1.394 . S
C3301 H3305 0.930 . S
N3302 Gd3289 2.601 . S
N3302 C3292 1.359 . S
N3302 C3301 1.334 . S
C3303 C3301 1.394 . S
C3303 C3304 1.359 . S
C3303 H3315 0.930 . S
C3304 C3294 1.391 . S
C3304 C3303 1.359 . S
C3304 H3316 0.929 . S
H3305 C3301 0.930 . S
H3306 C3295 0.930 . S
H3307 C3324 0.930 . S
H3308 C3296 0.930 . S
H3309 C3297 0.930 . S
H3310 C3291 0.929 . S
H3311 C3329 0.930 . S
H3312 C3320 0.930 . S
H3313 C3321 0.930 . S
H3314 C3345 0.929 . S
H3315 C3303 0.930 . S
H3316 C3304 0.929 . S
H3317 C3346 0.930 . S
H3318 C3327 0.930 . S
N3319 Gd3288 2.661 . S
N3319 C3323 1.350 . S
N3319 C3324 1.307 . S
C3320 H3312 0.930 . S
C3320 C3321 1.355 . S
C3320 C3322 1.412 . S
C3321 H3313 0.930 . S
C3321 C3320 1.355 . S
C3321 C3324 1.402 . S
C3322 C3320 1.412 . S
C3322 C3323 1.417 . S
C3322 C3346 1.431 . S
C3323 N3319 1.350 . S
C3323 C3322 1.417 . S
C3323 C3326 1.426 . S
C3324 H3307 0.930 . S
C3324 N3319 1.307 . S
C3324 C3321 1.402 . S
N3325 Gd3288 2.601 . S
N3325 C3326 1.359 . S
N3325 C3329 1.334 . S
C3326 C3323 1.426 . S
C3326 N3325 1.359 . S
C3326 C3330 1.413 . S
C3327 H3318 0.930 . S
C3327 C3328 1.359 . S
C3327 C3329 1.394 . S
C3328 C3327 1.359 . S
C3328 C3330 1.391 . S
C3328 H3331 0.929 . S
C3329 H3311 0.930 . S
C3329 N3325 1.334 . S
C3329 C3327 1.394 . S
C3330 C3326 1.413 . S
C3330 C3328 1.391 . S
C3330 C3345 1.437 . S
H3331 C3328 0.929 . S
O3332 Gd3288 2.545 . S
O3332 C3347 1.258 . S
O3333 Gd3288 2.606 . S
O3333 Gd3289 2.362 . S
O3333 C3344 1.284 . S
O3334 Gd3289 2.324 . S
O3334 C3354 1.254 . S
O3335 Gd3288 2.429 . S
O3335 C3354 1.268 . S
O3336 Gd3288 2.545 . S
O3336 C3344 1.250 . S
O3337 Gd3288 2.412 . S
O3337 C3347 1.252 . S
O3338 Gd3289 2.545 . S
O3338 C3356 1.258 . S
O3339 Gd3288 2.362 . S
O3339 Gd3289 2.606 . S
O3339 C3355 1.284 . S
O3340 Gd3288 2.324 . S
O3340 C3363 1.254 . S
O3341 Gd3289 2.429 . S
O3341 C3363 1.268 . S
O3342 Gd3289 2.545 . S
O3342 C3355 1.250 . S
O3343 Gd3289 2.412 . S
O3343 C3356 1.252 . S
C3344 O3333 1.284 . S
C3344 O3336 1.250 . S
C3345 H3314 0.929 . S
C3345 C3330 1.437 . S
C3345 C3346 1.317 . S
C3346 H3317 0.930 . S
C3346 C3322 1.431 . S
C3346 C3345 1.317 . S
C3347 Gd3288 2.828 . S
C3347 O3332 1.258 . S
C3347 O3337 1.252 . S
C3347 C3348 1.497 . S
C3348 C3347 1.497 . S
C3348 C3349 1.395 . S
C3348 C3350 1.380 . S
C3349 C3348 1.395 . S
C3349 C3352 1.398 . S
C3349 H3364 0.930 . S
C3350 C3348 1.380 . S
C3350 C3351 1.391 . S
C3350 H3365 0.930 . S
C3351 C3350 1.391 . S
C3351 C3353 1.387 . S
C3352 C3349 1.398 . S
C3352 C3353 1.380 . S
C3352 H3366 0.930 . S
C3353 C3351 1.387 . S
C3353 C3352 1.380 . S
C3353 H3367 0.930 . S
C3354 O3334 1.254 . S
C3354 O3335 1.268 . S
C3355 O3339 1.284 . S
C3355 O3342 1.250 . S
C3356 Gd3289 2.828 . S
C3356 O3338 1.258 . S
C3356 O3343 1.252 . S
C3356 C3357 1.497 . S
C3357 C3356 1.497 . S
C3357 C3358 1.395 . S
C3357 C3359 1.380 . S
C3358 C3357 1.395 . S
C3358 C3361 1.398 . S
C3358 H3368 0.930 . S
C3359 C3357 1.380 . S
C3359 C3360 1.391 . S
C3359 H3369 0.930 . S
C3360 C3359 1.391 . S
C3360 C3362 1.387 . S
C3361 C3358 1.398 . S
C3361 C3362 1.380 . S
C3361 H3370 0.930 . S
C3362 C3360 1.387 . S
C3362 C3361 1.380 . S
C3362 H3371 0.930 . S
C3363 O3340 1.254 . S
C3363 O3341 1.268 . S
H3364 C3349 0.930 . S
H3365 C3350 0.930 . S
H3366 C3352 0.930 . S
H3367 C3353 0.930 . S
H3368 C3358 0.930 . S
H3369 C3359 0.930 . S
H3370 C3361 0.930 . S
H3371 C3362 0.930 . S
Gd3372 N3403 2.661 1_455 S
Gd3372 N3409 2.601 . S
Gd3372 O3416 2.545 . S
Gd3372 O3417 2.606 . S
Gd3372 O3419 2.429 . S
Gd3372 O3420 2.545 . S
Gd3372 O3421 2.412 1_455 S
Gd3372 O3423 2.362 . S
Gd3372 O3424 2.324 1_554 S
Gd3372 C3431 2.828 1_455 S
Gd3373 N3382 2.661 1_556 S
Gd3373 N3386 2.601 . S
Gd3373 O3417 2.362 1_556 S
Gd3373 O3418 2.324 1_556 S
Gd3373 O3422 2.545 . S
Gd3373 O3423 2.606 1_556 S
Gd3373 O3425 2.429 . S
Gd3373 O3426 2.545 . S
Gd3373 O3427 2.412 1_556 S
Gd3373 C3440 2.828 . S
C3374 C3377 1.416 1_554 S
C3374 C3379 1.431 1_554 S
C3374 C3380 1.412 . S
C3375 C3378 1.437 . S
C3375 C3379 1.317 . S
C3375 H3394 0.929 . S
C3376 C3377 1.449 . S
C3376 C3378 1.413 . S
C3376 N3386 1.359 . S
C3377 C3374 1.416 1_556 S
C3377 C3376 1.449 . S
C3377 N3382 1.331 1_556 S
C3378 C3375 1.437 . S
C3378 C3376 1.413 . S
C3378 C3388 1.391 . S
C3379 C3374 1.431 1_556 S
C3379 C3375 1.317 . S
C3379 H3390 0.930 . S
C3380 C3374 1.412 . S
C3380 C3381 1.355 . S
C3380 H3392 0.930 . S
C3381 C3380 1.355 . S
C3381 C3383 1.402 . S
C3381 H3393 0.930 . S
N3382 Gd3373 2.661 1_554 S
N3382 C3377 1.331 1_554 S
N3382 C3383 1.307 . S
C3383 C3381 1.402 . S
C3383 N3382 1.307 . S
C3383 H3384 0.930 . S
H3384 C3383 0.930 . S
C3385 N3386 1.334 . S
C3385 C3387 1.394 . S
C3385 H3389 0.930 . S
N3386 Gd3373 2.601 . S
N3386 C3376 1.359 . S
N3386 C3385 1.334 . S
C3387 C3385 1.394 . S
C3387 C3388 1.359 . S
C3387 H3399 0.930 . S
C3388 C3378 1.391 . S
C3388 C3387 1.359 . S
C3388 H3400 0.929 . S
H3389 C3385 0.930 . S
H3390 C3379 0.930 . S
H3391 C3408 0.930 . S
H3392 C3380 0.930 . S
H3393 C3381 0.930 . S
H3394 C3375 0.929 . S
H3395 C3413 0.930 . S
H3396 C3404 0.930 . S
H3397 C3405 0.930 . S
H3398 C3429 0.929 . S
H3399 C3387 0.930 . S
H3400 C3388 0.929 . S
H3401 C3430 0.930 . S
H3402 C3411 0.930 . S
N3403 Gd3372 2.661 1_655 S
N3403 C3407 1.350 . S
N3403 C3408 1.307 1_554 S
C3404 H3396 0.930 . S
C3404 C3405 1.355 . S
C3404 C3406 1.412 1_556 S
C3405 H3397 0.930 . S
C3405 C3404 1.355 . S
C3405 C3408 1.402 . S
C3406 C3404 1.412 1_554 S
C3406 C3407 1.417 . S
C3406 C3430 1.431 . S
C3407 N3403 1.350 . S
C3407 C3406 1.417 . S
C3407 C3410 1.426 . S
C3408 H3391 0.930 . S
C3408 N3403 1.307 1_556 S
C3408 C3405 1.402 . S
N3409 Gd3372 2.601 . S
N3409 C3410 1.359 1_455 S
N3409 C3413 1.334 . S
C3410 C3407 1.426 . S
C3410 N3409 1.359 1_655 S
C3410 C3414 1.413 . S
C3411 H3402 0.930 . S
C3411 C3412 1.359 1_455 S
C3411 C3413 1.394 . S
C3412 C3411 1.359 1_655 S
C3412 C3414 1.391 . S
C3412 H3415 0.929 . S
C3413 H3395 0.930 . S
C3413 N3409 1.334 . S
C3413 C3411 1.394 . S
C3414 C3410 1.413 . S
C3414 C3412 1.391 . S
C3414 C3429 1.437 . S
H3415 C3412 0.929 . S
O3416 Gd3372 2.545 . S
O3416 C3431 1.258 1_455 S
O3417 Gd3372 2.606 . S
O3417 Gd3373 2.362 1_554 S
O3417 C3428 1.284 . S
O3418 Gd3373 2.324 1_554 S
O3418 C3438 1.254 . S
O3419 Gd3372 2.429 . S
O3419 C3438 1.268 . S
O3420 Gd3372 2.545 . S
O3420 C3428 1.250 . S
O3421 Gd3372 2.412 1_655 S
O3421 C3431 1.252 . S
O3422 Gd3373 2.545 . S
O3422 C3440 1.258 . S
O3423 Gd3372 2.362 . S
O3423 Gd3373 2.606 1_554 S
O3423 C3439 1.284 . S
O3424 Gd3372 2.324 1_556 S
O3424 C3447 1.254 . S
O3425 Gd3373 2.429 . S
O3425 C3447 1.268 . S
O3426 Gd3373 2.545 . S
O3426 C3439 1.250 1_556 S
O3427 Gd3373 2.412 1_554 S
O3427 C3440 1.252 1_554 S
C3428 O3417 1.284 . S
C3428 O3420 1.250 . S
C3429 H3398 0.929 . S
C3429 C3414 1.437 . S
C3429 C3430 1.317 . S
C3430 H3401 0.930 . S
C3430 C3406 1.431 . S
C3430 C3429 1.317 . S
C3431 Gd3372 2.828 1_655 S
C3431 O3416 1.258 1_655 S
C3431 O3421 1.252 . S
C3431 C3432 1.497 . S
C3432 C3431 1.497 . S
C3432 C3433 1.395 . S
C3432 C3434 1.380 . S
C3433 C3432 1.395 . S
C3433 C3436 1.398 . S
C3433 H3448 0.930 . S
C3434 C3432 1.380 . S
C3434 C3435 1.391 . S
C3434 H3449 0.930 . S
C3435 C3434 1.391 . S
C3435 C3437 1.387 . S
C3436 C3433 1.398 . S
C3436 C3437 1.380 . S
C3436 H3450 0.930 . S
C3437 C3435 1.387 . S
C3437 C3436 1.380 . S
C3437 H3451 0.930 . S
C3438 O3418 1.254 . S
C3438 O3419 1.268 . S
C3439 O3423 1.284 . S
C3439 O3426 1.250 1_554 S
C3440 Gd3373 2.828 . S
C3440 O3422 1.258 . S
C3440 O3427 1.252 1_556 S
C3440 C3441 1.497 . S
C3441 C3440 1.497 . S
C3441 C3442 1.395 . S
C3441 C3443 1.380 . S
C3442 C3441 1.395 . S
C3442 C3445 1.398 . S
C3442 H3452 0.930 . S
C3443 C3441 1.380 . S
C3443 C3444 1.391 . S
C3443 H3453 0.930 1_556 S
C3444 C3443 1.391 . S
C3444 C3446 1.387 . S
C3445 C3442 1.398 . S
C3445 C3446 1.380 . S
C3445 H3454 0.930 . S
C3446 C3444 1.387 . S
C3446 C3445 1.380 . S
C3446 H3455 0.930 . S
C3447 O3424 1.254 . S
C3447 O3425 1.268 . S
H3448 C3433 0.930 . S
H3449 C3434 0.930 . S
H3450 C3436 0.930 . S
H3451 C3437 0.930 . S
H3452 C3442 0.930 . S
H3453 C3443 0.930 1_554 S
H3454 C3445 0.930 . S
H3455 C3446 0.930 . S
C665 C2179 3.180 . S
C381 C2262 3.274 . S
C460 C2347 3.298 . S
C2427 C585 1.383 . S
C108 C2511 2.798 . S
C2604 C196 1.308 . S
C2682 C313 3.531 . S
C49 C2767 2.410 . S
C2178 C1457 2.794 . S
C1545 C2259 0.685 . S
C2346 C1721 1.076 . S
C2431 C1113 2.970 . S
C1428 C2515 3.336 . S
C2607 C1516 1.043 . S
C2679 C1692 0.287 . S
C2766 C1085 2.460 . S
C2175 C988 2.063 . S
C1817 C2850 2.343 1_556 S
C2924 C2081 3.191 . S
C3019 C1993 2.052 . S
C761 C2763 3.364 . S
C821 C2343 2.665 . S
C2053 C3102 3.004 . S
C3187 C1868 1.270 . S
C2168 C372 3.181 . S
C3195 C645 3.262 . S
C577 C2336 3.286 . S
C497 C3108 1.389 . S
C2520 C57 2.815 . S
C293 C2931 1.310 . S
C2691 C205 3.515 1_565 S
C3260 C145 2.426 . S
C2187 C909 2.788 . S
C3192 C1956 0.708 . S
C724 C2355 1.077 . S
C1780 C3092 2.959 . S
C937 C2504 3.341 1_565 S
C2934 C1985 1.049 . S
C753 C2688 0.300 . S
C1809 C3279 2.459 . S
C1173 C2184 2.078 1_554 S
C1105 C2859 2.332 . S
C1633 C2599 3.186 . S
C1553 C3008 2.037 . S
C3276 C1729 3.389 . S
C1340 C2352 2.680 . S
C2439 C1604 2.996 . S
C2252 C1252 1.251 . S
C489 C3355 3.180 . S
C3186 C557 3.273 . S
C636 C3439 3.298 . S
C409 C3099 1.383 1_455 S
C284 C2847 2.802 . S
C2940 C20 1.307 . S
C3018 C137 3.526 1_455 S
C3271 C225 2.410 . S
C3354 C1641 2.795 . S
C1193 C3183 0.686 . S
C3438 C1289 1.076 . S
C3103 C1377 2.970 . S
C2851 C1613 3.336 . S
C1164 C2943 1.043 . S
C3015 C1261 0.288 . S
C1349 C3270 2.460 . S
C3351 C1965 2.068 . S
C849 C2514 2.343 . S
C2588 C929 3.190 . S
C2683 C1017 2.054 . S
C3267 C1897 3.362 . S
C1789 C3435 2.664 1_556 S
C2430 C900 3.004 . S
C2263 C733 1.270 . S
C548 C3344 3.181 . S
C2271 C469 3.262 . S
C401 C3428 3.286 1_556 S
C673 C2436 1.390 . S
C233 C2856 2.815 . S
C2595 C117 1.307 . S
C29 C3027 3.514 . S
C321 C2756 2.424 . S
C3363 C2044 2.788 . S
C997 C2268 0.712 . S
C3447 C1877 1.077 . S
C812 C2420 2.960 . S
C2073 C2840 3.340 . S
C2598 C1025 1.054 . S
C1905 C3024 0.299 . S
C2775 C841 2.459 . S
C3360 C1525 2.078 . S
C2523 C1369 2.332 1_445 S
C1465 C2935 3.185 . S
C2672 C1201 2.038 . S
C1281 C2772 3.387 . S
C1076 C3444 2.680 1_554 S
C3111 C1437 2.996 . S
C3176 C1701 1.250 . S
