# Generated by pormake.
# Topology scu, (8,4)-cn, num edge types: 1
# Building blocks:
#     Node 0, Type 0, BuildingBlock: VETTIZ_charged_sbu_0, # of connection points: 8
#     Node 1, Type 1, BuildingBlock: MUDLON_clean_sbu_0, # of connection points: 4
#     Node 2, Type 1, BuildingBlock: MUDLON_clean_sbu_0, # of connection points: 4
#     Edge 3, Type (0, 1), BuildingBlock: TEMPAE_clean_linker_10, # of connection points: 2
#     Edge 4, Type (0, 1), BuildingBlock: TEMPAE_clean_linker_10, # of connection points: 2
#     Edge 5, Type (0, 1), BuildingBlock: TEMPAE_clean_linker_10, # of connection points: 2
#     Edge 6, Type (0, 1), BuildingBlock: TEMPAE_clean_linker_10, # of connection points: 2
#     Edge 7, Type (0, 1), BuildingBlock: TEMPAE_clean_linker_10, # of connection points: 2
#     Edge 8, Type (0, 1), BuildingBlock: TEMPAE_clean_linker_10, # of connection points: 2
#     Edge 9, Type (0, 1), BuildingBlock: TEMPAE_clean_linker_10, # of connection points: 2
#     Edge 10, Type (0, 1), BuildingBlock: TEMPAE_clean_linker_10, # of connection points: 2
# Relax obj value: 0.036
# Max RMSD: 0.093
# Mean RMSD: 0.083
data_MOF--net-scu--node1-VETTIZ_charged_sbu_0--node2-MUDLON_clean_sbu_0--edge1-TEMPAE_clean_linker_10
_symmetry_space_group_name_H-M    P1
_symmetry_Int_Tables_number       1
_symmetry_cell_setting            triclinic
loop_
_symmetry_equiv_pos_as_xyz
'x, y, z'
_cell_length_a     25.510355
_cell_length_b     24.764832
_cell_length_c     20.710809
_cell_angle_alpha  89.651823
_cell_angle_beta   90.802337
_cell_angle_gamma 90.602094
loop_
_atom_site_label
_atom_site_type_symbol
_atom_site_fract_x
_atom_site_fract_y
_atom_site_fract_z
_atom_type_partial_charge
Fe0 Fe 1.00013 0.02099 0.08239 0.0
O1 O 0.95066 0.0294 0.00709 0.0
Fe2 Fe 0.10744 0.95991 0.00994 0.0
Fe3 Fe 0.89768 0.08614 0.99818 0.0
O4 O 0.0543 1.01671 0.01359 0.0
O5 O 0.05451 1.017 0.00673 0.0
O6 O 0.95093 0.02985 1.00059 0.0
Fe7 Fe 0.00455 0.02395 0.9321 0.0
C8 C 0.88515 0.02998 0.12952 0.0
O9 O 0.01168 0.10352 0.08953 0.0
O10 O 0.93104 0.13423 0.0683 0.0
O11 O 0.06914 0.01944 0.86988 0.0
O12 O 0.13969 1.00747 0.93919 0.0
O13 O 0.13561 1.00071 0.09015 0.0
O14 O 0.06098 1.01076 0.15141 0.0
O15 O 0.93458 0.13267 0.92756 0.0
O16 O 0.01715 0.10576 0.93082 0.0
C17 C 0.11171 1.0085 0.1443 0.0
O18 O 0.99173 0.94228 0.93003 0.0
O19 O 0.07403 0.91479 0.93516 0.0
O20 O 0.93514 0.02686 0.14343 0.0
O21 O 0.86533 0.04312 0.07348 0.0
C22 C 0.97646 0.13954 0.09389 0.0
C23 C 0.98292 0.14034 0.91501 0.0
C24 C 0.89288 0.02485 0.87177 0.0
O25 O 0.86932 0.03928 0.92391 0.0
O26 O 0.94328 0.02883 0.86233 0.0
C27 C 0.11919 0.02146 0.88392 0.0
O28 O 0.07073 0.9102 0.07497 0.0
O29 O 0.98817 0.93812 0.0829 0.0
C30 C 0.02618 0.90728 0.9186 0.0
C31 C 0.02353 0.90266 0.09195 0.0
Mg32 Mg 0.00751 0.51967 0.51661 0.0
C33 C 0.00737 0.44306 0.41585 0.0
O34 O 0.05425 0.46511 0.42197 0.0
C35 C 0.99246 0.61717 0.5901 0.0
O36 O 0.03628 0.62339 0.55828 0.0
C37 C 0.05208 0.46833 0.63898 0.0
O38 O 0.03096 0.51099 0.66501 0.0
O39 O 0.05537 0.4662 0.57769 0.0
O40 O 0.97154 0.45843 0.45385 0.0
O41 O 0.03697 0.57655 0.44316 0.0
C42 C 0.99974 0.58996 0.40469 0.0
O43 O 0.95349 0.5672 0.41246 0.0
O44 O 0.96619 0.57345 0.58255 0.0
Mg45 Mg 0.4997 1.01167 0.51802 0.0
C46 C 0.43517 0.97704 0.40509 0.0
O47 O 0.46346 1.01627 0.38003 0.0
C48 C 0.58245 0.94293 0.59171 0.0
O49 O 0.58127 0.91174 0.54072 0.0
C50 C 0.40683 0.03187 0.58374 0.0
O51 O 0.41588 0.97974 0.5833 0.0
O52 O 0.4415 0.06377 0.56091 0.0
O53 O 0.44659 0.96007 0.46163 0.0
O54 O 0.55925 0.0445 0.45463 0.0
C55 C 0.5806 1.00605 0.42461 0.0
O56 O 0.55884 0.95783 0.42727 0.0
O57 O 0.54835 0.97981 0.59691 0.0
C58 C 0.95492 0.23338 0.12714 0.0
C59 C 0.98547 0.18701 0.13606 0.0
C60 C 0.95703 0.27596 0.17152 0.0
C61 C 0.99003 0.27197 0.22679 0.0
C62 C 0.02188 0.22581 0.23542 0.0
C63 C 0.01951 0.18402 0.18968 0.0
C64 C 0.92337 0.32494 0.15966 0.0
C65 C 0.05752 0.21998 0.29379 0.0
C66 C 0.03268 0.40027 0.31285 0.0
C67 C 0.9989 0.40127 0.36576 0.0
C68 C 0.02966 0.35893 0.26702 0.0
C69 C 0.99231 0.31687 0.27449 0.0
C70 C 0.95734 0.318 0.32719 0.0
C71 C 0.96075 0.36055 0.37205 0.0
C72 C 0.06696 0.35998 0.21098 0.0
C73 C 0.91718 0.27363 0.33691 0.0
H74 H 0.92861 0.23604 0.0857 0.0
H75 H 0.0427 0.14805 0.19735 0.0
H76 H 0.89539 0.3295 0.19973 0.0
H77 H 0.94822 0.36196 0.15854 0.0
H78 H 0.90077 0.32234 0.11351 0.0
H79 H 0.07977 0.18166 0.29342 0.0
H80 H 0.08583 0.25424 0.29594 0.0
H81 H 0.03403 0.2212 0.33845 0.0
H82 H 0.06201 0.43191 0.30735 0.0
H83 H 0.93485 0.36095 0.41309 0.0
H84 H 0.04464 0.3587 0.16464 0.0
H85 H 0.09218 0.32377 0.2128 0.0
H86 H 0.09258 0.39654 0.21103 0.0
H87 H 0.89114 0.27043 0.29372 0.0
H88 H 0.89265 0.28053 0.37993 0.0
H89 H 0.93719 0.23429 0.34279 0.0
C90 C 0.85946 0.0332 0.24596 0.0
C91 C 0.84677 0.02149 0.18141 0.0
C92 C 0.8205 0.03254 0.29337 0.0
C93 C 0.76805 0.01975 0.27544 0.0
C94 C 0.75562 1.00598 0.21081 0.0
C95 C 0.79509 1.0069 0.16477 0.0
C96 C 0.83509 0.04694 0.36205 0.0
C97 C 0.70029 0.99132 0.18983 0.0
C98 C 0.66418 0.96758 0.38785 0.0
C99 C 0.63159 1.01258 0.39284 0.0
C100 C 0.7112 0.97063 0.35407 0.0
C101 C 0.7255 0.01966 0.32353 0.0
C102 C 0.69427 0.06615 0.33142 0.0
C103 C 0.64766 0.06216 0.36663 0.0
C104 C 0.74381 0.9204 0.34776 0.0
C105 C 0.70833 0.1191 0.29931 0.0
H106 H 0.89928 0.04491 0.25893 0.0
H107 H 0.78515 0.99717 0.11508 0.0
H108 H 0.81593 0.08525 0.37526 0.0
H109 H 0.82075 1.01531 0.39582 0.0
H110 H 0.87813 0.05191 0.36905 0.0
H111 H 0.6973 0.98175 0.13756 0.0
H112 H 0.68614 0.95578 0.21767 0.0
H113 H 0.67362 0.02526 0.19993 0.0
H114 H 0.6525 0.92944 0.40958 0.0
H115 H 0.6227 0.09707 0.3711 0.0
H116 H 0.78594 0.9298 0.3563 0.0
H117 H 0.73966 0.90452 0.29795 0.0
H118 H 0.73159 0.88814 0.38208 0.0
H119 H 0.75022 0.12936 0.30829 0.0
H120 H 0.68388 0.15281 0.31656 0.0
H121 H 0.70257 0.11541 0.2463 0.0
C122 C 0.97876 0.85452 0.18306 0.0
C123 C 0.01254 0.85327 0.13032 0.0
C124 C 0.97636 0.81098 0.22705 0.0
C125 C 0.00786 0.7649 0.21737 0.0
C126 C 0.04005 0.76254 0.16239 0.0
C127 C 0.04227 0.80683 0.11992 0.0
C128 C 0.94171 0.81517 0.28524 0.0
C129 C 0.07333 0.71383 0.14932 0.0
C130 C 0.04315 0.67401 0.36083 0.0
C131 C 0.00558 0.6326 0.35461 0.0
C132 C 0.04422 0.71756 0.3167 0.0
C133 C 0.00742 0.71914 0.26467 0.0
C134 C 0.97053 0.67652 0.25726 0.0
C135 C 0.96983 0.63412 0.30248 0.0
C136 C 0.08402 0.76243 0.32641 0.0
C137 C 0.93143 0.67591 0.20181 0.0
H138 H 0.95634 0.89063 0.19186 0.0
H139 H 0.06843 0.80568 0.07913 0.0
H140 H 0.9143 0.78016 0.28728 0.0
H141 H 0.96617 0.81411 0.32995 0.0
H142 H 0.91853 0.85291 0.28485 0.0
H143 H 0.09383 0.71705 0.10245 0.0
H144 H 0.10315 0.70911 0.18838 0.0
H145 H 0.0487 0.67664 0.14904 0.0
H146 H 0.07049 0.67333 0.40136 0.0
H147 H 0.94083 0.60207 0.29717 0.0
H148 H 0.06369 0.80151 0.33185 0.0
H149 H 0.10923 0.76612 0.28337 0.0
H150 H 0.10945 0.75563 0.36962 0.0
H151 H 0.90588 0.71179 0.20432 0.0
H152 H 0.90624 0.63904 0.20192 0.0
H153 H 0.95225 0.67821 0.15518 0.0
C154 C 0.15249 0.95323 0.23008 0.0
C155 C 0.14536 1.00427 0.20205 0.0
C156 C 0.19543 0.94315 0.2714 0.0
C157 C 0.2315 0.98548 0.28543 0.0
C158 C 0.22166 0.03826 0.26144 0.0
C159 C 0.17911 0.04682 0.21894 0.0
C160 C 0.20458 0.88625 0.29519 0.0
C161 C 0.2582 0.0849 0.27685 0.0
C162 C 0.33819 0.97212 0.41457 0.0
C163 C 0.38283 0.96641 0.3766 0.0
C164 C 0.28809 0.97649 0.38599 0.0
C165 C 0.28262 0.97364 0.31796 0.0
C166 C 0.3273 0.96373 0.27996 0.0
C167 C 0.37702 0.96134 0.30967 0.0
C168 C 0.24192 0.98844 0.42819 0.0
C169 C 0.32302 0.95858 0.20746 0.0
H170 H 0.12678 0.92013 0.21564 0.0
H171 H 0.17385 0.08602 0.19626 0.0
H172 H 0.23767 0.86866 0.26849 0.0
H173 H 0.21554 0.88595 0.34719 0.0
H174 H 0.16946 0.85996 0.28788 0.0
H175 H 0.24106 0.12434 0.26258 0.0
H176 H 0.26779 0.08567 0.32927 0.0
H177 H 0.29548 0.07992 0.25068 0.0
H178 H 0.34289 0.97739 0.46619 0.0
H179 H 0.41165 0.95744 0.28034 0.0
H180 H 0.20699 0.96424 0.41344 0.0
H181 H 0.23162 0.03167 0.42276 0.0
H182 H 0.25073 0.9803 0.47996 0.0
H183 H 0.29109 0.92982 0.19408 0.0
H184 H 0.36012 0.94457 0.186 0.0
H185 H 0.31312 0.99833 0.18579 0.0
C186 C 0.04721 0.81856 0.86746 0.0
C187 C 0.01102 0.85951 0.87896 0.0
C188 C 0.03533 0.77631 0.82452 0.0
C189 C 0.9861 0.77491 0.79188 0.0
C190 C 0.9483 0.81448 0.80586 0.0
C191 C 0.96116 0.85621 0.84922 0.0
C192 C 0.07672 0.73477 0.81141 0.0
C193 C 0.89535 0.81474 0.77233 0.0
C194 C 0.9955 0.71223 0.62631 0.0
C195 C 0.97909 0.65888 0.63786 0.0
C196 C 0.99474 0.75115 0.67506 0.0
C197 C 0.97746 0.7364 0.73743 0.0
C198 C 0.95732 0.68352 0.74827 0.0
C199 C 0.95823 0.64523 0.69812 0.0
C200 C 0.01586 0.80714 0.6608 0.0
C201 C 0.938 0.66643 0.81386 0.0
H202 H 0.08555 0.82029 0.89063 0.0
H203 H 0.93266 0.88743 0.85783 0.0
H204 H 0.0599 0.69341 0.81533 0.0
H205 H 0.09105 0.74 0.76139 0.0
H206 H 0.11075 0.73823 0.84525 0.0
H207 H 0.86726 0.84142 0.79696 0.0
H208 H 0.89987 0.82953 0.72202 0.0
H209 H 0.87839 0.77336 0.76993 0.0
H210 H 0.01129 0.72302 0.57956 0.0
H211 H 0.94585 0.60392 0.70736 0.0
H212 H 0.05326 0.81362 0.68781 0.0
H213 H 0.98799 0.83816 0.67703 0.0
H214 H 0.02325 0.81351 0.60856 0.0
H215 H 0.9719 0.66248 0.84765 0.0
H216 H 0.91668 0.62711 0.81213 0.0
H217 H 0.91174 0.69741 0.83381 0.0
C218 C 0.20938 0.02382 0.84022 0.0
C219 C 0.15664 0.03855 0.83353 0.0
C220 C 0.24592 0.03694 0.79295 0.0
C221 C 0.2297 0.06609 0.73728 0.0
C222 C 0.17723 0.08409 0.7318 0.0
C223 C 0.14102 0.06952 0.77977 0.0
C224 C 0.30134 1.01653 0.80108 0.0
C225 C 0.15853 0.11675 0.67443 0.0
C226 C 0.35206 0.09843 0.64385 0.0
C227 C 0.3564 0.0503 0.60925 0.0
C228 C 0.307 0.10822 0.68047 0.0
C229 C 0.26612 0.06896 0.68192 0.0
C230 C 0.26786 0.02405 0.64025 0.0
C231 C 0.31317 1.01504 0.60503 0.0
C232 C 0.3054 0.15774 0.7223 0.0
C233 C 0.22463 0.98187 0.63873 0.0
H234 H 0.22206 1.00014 0.88165 0.0
H235 H 0.10058 0.08216 0.77497 0.0
H236 H 0.30929 0.98609 0.76344 0.0
H237 H 0.32997 0.05011 0.79506 0.0
H238 H 0.30833 0.99754 0.84913 0.0
H239 H 0.12573 0.14347 0.68781 0.0
H240 H 0.19054 0.14186 0.65386 0.0
H241 H 0.14383 0.08896 0.63631 0.0
H242 H 0.38516 0.12617 0.64641 0.0
H243 H 0.31597 0.97826 0.57726 0.0
H244 H 0.31761 0.14687 0.7723 0.0
H245 H 0.26503 0.17392 0.72419 0.0
H246 H 0.33234 0.18989 0.7045 0.0
H247 H 0.22526 0.95851 0.68465 0.0
H248 H 0.22896 0.95315 0.59819 0.0
H249 H 0.1858 1.00131 0.63414 0.0
C250 C 0.05221 0.19688 0.8604 0.0
C251 C 0.99931 0.18851 0.87638 0.0
C252 C 0.06791 0.24095 0.82172 0.0
C253 C 0.02987 0.27762 0.79806 0.0
C254 C 0.97648 0.26936 0.81392 0.0
C255 C 0.96193 0.22519 0.85297 0.0
C256 C 0.12522 0.24825 0.80625 0.0
C257 C 0.93448 0.307 0.78907 0.0
C258 C 0.06053 0.42213 0.74648 0.0
C259 C 0.05786 0.41852 0.6789 0.0
C260 C 0.0549 0.376 0.78584 0.0
C261 C 0.04536 0.325 0.75709 0.0
C262 C 0.04572 0.32062 0.68888 0.0
C263 C 0.05242 0.36733 0.65063 0.0
C264 C 0.05616 0.38239 0.85829 0.0
C265 C 0.03533 0.2672 0.65608 0.0
H266 H 0.08154 0.16877 0.87784 0.0
H267 H 0.92098 0.21911 0.86454 0.0
H268 H 0.13061 0.24875 0.7532 0.0
H269 H 0.13959 0.28771 0.82486 0.0
H270 H 0.14981 0.21571 0.82748 0.0
H271 H 0.89464 0.29435 0.8045 0.0
H272 H 0.94234 0.34853 0.80676 0.0
H273 H 0.935 0.3086 0.73552 0.0
H274 H 0.06496 0.46145 0.76876 0.0
H275 H 0.04991 0.36407 0.5985 0.0
H276 H 0.08191 0.3516 0.88098 0.0
H277 H 0.01617 0.37596 0.87748 0.0
H278 H 0.07026 0.42313 0.87308 0.0
H279 H 0.06036 0.23523 0.6775 0.0
H280 H 0.04245 0.26935 0.60333 0.0
H281 H 0.99391 0.25482 0.66357 0.0
C282 C 0.85332 0.02321 0.76055 0.0
C283 C 0.85876 1.0001 0.82201 0.0
C284 C 0.81171 1.00727 0.71923 0.0
C285 C 0.77546 0.96712 0.74008 0.0
C286 C 0.78391 0.94058 0.79993 0.0
C287 C 0.82518 0.95778 0.84038 0.0
C288 C 0.80423 0.03629 0.65557 0.0
C289 C 0.74708 0.89686 0.82358 0.0
C290 C 0.63381 0.98197 0.68445 0.0
C291 C 0.62967 0.944 0.63459 0.0
C292 C 0.68094 0.98951 0.7191 0.0
C293 C 0.72517 0.95808 0.70401 0.0
C294 C 0.72083 0.91824 0.65547 0.0
C295 C 0.67316 0.91173 0.62122 0.0
C296 C 0.68372 0.03212 0.77097 0.0
C297 C 0.7669 0.88352 0.63856 0.0
H298 H 0.87919 0.05617 0.74669 0.0
H299 H 0.82979 0.93975 0.88797 0.0
H300 H 0.79598 1.00702 0.6163 0.0
H301 H 0.76992 0.06331 0.6585 0.0
H302 H 0.83914 0.06105 0.64262 0.0
H303 H 0.76345 0.87493 0.86613 0.0
H304 H 0.70941 0.91519 0.83752 0.0
H305 H 0.73836 0.8673 0.78477 0.0
H306 H 0.60058 1.00712 0.69524 0.0
H307 H 0.67055 0.88243 0.58263 0.0
H308 H 0.71425 0.06268 0.75896 0.0
H309 H 0.69509 1.01351 0.8179 0.0
H310 H 0.64582 0.05309 0.77689 0.0
H311 H 0.7984 0.90914 0.61769 0.0
H312 H 0.75606 0.85163 0.60317 0.0
H313 H 0.78342 0.86403 0.68261 0.0
loop_
_geom_bond_atom_site_label_1
_geom_bond_atom_site_label_2
_geom_bond_distance
_geom_bond_site_symmetry_2
_ccdc_geom_bond_type
Fe0 O1 1.906 . S
Fe0 O4 1.694 1_645 S
Fe0 O9 2.098 1_655 S
Fe0 O14 1.922 1_655 S
Fe0 O20 2.094 1_545 S
Fe0 O29 1.916 1_545 S
O1 Fe0 1.906 . S
O1 Fe3 1.715 . S
Fe2 O4 1.886 . S
Fe2 O5 1.715 1_554 S
Fe2 O12 1.935 1_554 S
Fe2 O13 2.077 . S
Fe2 O19 1.935 1_554 S
Fe2 O28 2.077 . S
Fe3 O1 1.715 . S
Fe3 O6 1.886 1_554 S
Fe3 O10 1.935 . S
Fe3 O15 2.077 1_554 S
Fe3 O21 1.935 . S
Fe3 O25 2.077 1_554 S
O4 Fe0 1.694 1_465 S
O4 Fe2 1.886 . S
O5 Fe2 1.715 1_556 S
O5 Fe7 1.906 . S
O6 Fe3 1.886 1_556 S
O6 Fe7 1.694 1_645 S
Fe7 O5 1.906 . S
Fe7 O6 1.694 1_465 S
Fe7 O11 2.098 1_565 S
Fe7 O16 1.922 1_565 S
Fe7 O18 2.094 1_455 S
Fe7 O26 1.916 1_455 S
C8 O20 1.381 1_545 S
C8 O21 1.421 . S
O9 Fe0 2.098 1_455 S
O9 C22 1.381 1_455 S
O10 Fe3 1.935 . S
O10 C22 1.421 . S
O11 Fe7 2.098 1_545 S
O11 C27 1.381 1_545 S
O12 Fe2 1.935 1_556 S
O12 C27 1.421 . S
O13 Fe2 2.077 . S
O13 C17 1.381 . S
O14 Fe0 1.922 1_455 S
O14 C17 1.421 1_545 S
O15 Fe3 2.077 1_556 S
O15 C23 1.381 . S
O16 Fe7 1.922 1_545 S
O16 C23 1.421 1_455 S
C17 O13 1.381 . S
C17 O14 1.421 1_565 S
O18 Fe7 2.094 1_655 S
O18 C30 1.381 1_655 S
O19 Fe2 1.935 1_556 S
O19 C30 1.421 . S
O20 Fe0 2.094 1_565 S
O20 C8 1.381 1_565 S
O21 Fe3 1.935 . S
O21 C8 1.421 . S
C22 O9 1.381 1_655 S
C22 O10 1.421 . S
C23 O15 1.381 . S
C23 O16 1.421 1_655 S
C24 O25 1.381 . S
C24 O26 1.421 1_545 S
O25 Fe3 2.077 1_556 S
O25 C24 1.381 . S
O26 Fe7 1.916 1_655 S
O26 C24 1.421 1_565 S
C27 O11 1.381 1_565 S
C27 O12 1.421 . S
O28 Fe2 2.077 . S
O28 C31 1.381 . S
O29 Fe0 1.916 1_565 S
O29 C31 1.421 1_655 S
C30 O18 1.381 1_455 S
C30 O19 1.421 . S
C31 O28 1.381 . S
C31 O29 1.421 1_455 S
Mg32 O39 2.141 . S
Mg32 O40 2.048 . S
Mg32 O41 2.048 . S
Mg32 O44 2.141 . S
C33 O34 1.313 . S
C33 O40 1.195 1_455 S
O34 C33 1.313 . S
C35 O36 1.245 . S
C35 O44 1.289 1_455 S
O36 C35 1.245 . S
C37 O38 1.245 . S
C37 O39 1.289 1_455 S
O38 C37 1.245 . S
O39 Mg32 2.141 . S
O39 C37 1.289 1_655 S
O40 Mg32 2.048 . S
O40 C33 1.195 1_655 S
O41 Mg32 2.048 . S
O41 C42 1.195 1_655 S
C42 O41 1.195 1_455 S
C42 O43 1.313 . S
O43 C42 1.313 . S
O44 Mg32 2.141 . S
O44 C35 1.289 1_655 S
Mg45 O52 2.141 . S
Mg45 O53 2.048 . S
Mg45 O54 2.048 . S
Mg45 O57 2.141 . S
C46 O47 1.313 . S
C46 O53 1.195 1_565 S
O47 C46 1.313 . S
C48 O49 1.245 . S
C48 O57 1.289 1_565 S
O49 C48 1.245 . S
C50 O51 1.245 . S
C50 O52 1.289 1_565 S
O51 C50 1.245 . S
O52 Mg45 2.141 . S
O52 C50 1.289 1_545 S
O53 Mg45 2.048 . S
O53 C46 1.195 1_545 S
O54 Mg45 2.048 . S
O54 C55 1.195 1_545 S
C55 O54 1.195 1_565 S
C55 O56 1.313 . S
O56 C55 1.313 . S
O57 Mg45 2.141 . S
O57 C48 1.289 1_545 S
C58 C59 1.391 1_455 S
C58 C60 1.394 . S
C58 H74 0.931 . S
C59 C58 1.391 1_655 S
C59 C63 1.376 . S
C60 C58 1.394 . S
C60 C61 1.369 1_455 S
C60 C64 1.531 . S
C61 C60 1.369 1_655 S
C61 C62 1.410 . S
C61 C69 1.503 . S
C62 C61 1.410 . S
C62 C63 1.392 . S
C62 C65 1.511 . S
C63 C59 1.376 . S
C63 C62 1.392 . S
C63 H75 0.929 . S
C64 C60 1.531 . S
C64 H76 0.960 1_455 S
C64 H77 0.962 . S
C64 H78 0.960 . S
C65 C62 1.511 . S
C65 H79 0.961 . S
C65 H80 0.961 . S
C65 H81 0.961 . S
C66 C67 1.370 1_455 S
C66 C68 1.363 . S
C66 H82 0.931 . S
C67 C66 1.370 1_655 S
C67 C71 1.408 . S
C68 C66 1.363 . S
C68 C69 1.370 1_455 S
C68 C72 1.524 . S
C69 C61 1.503 . S
C69 C68 1.370 1_655 S
C69 C70 1.403 . S
C70 C69 1.403 . S
C70 C71 1.404 . S
C70 C73 1.539 . S
C71 C67 1.408 . S
C71 C70 1.404 . S
C71 H83 0.930 . S
C72 C68 1.524 . S
C72 H84 0.956 . S
C72 H85 0.961 . S
C72 H86 0.961 . S
C73 C70 1.539 . S
C73 H87 0.958 . S
C73 H88 0.961 . S
C73 H89 0.960 . S
H74 C58 0.931 . S
H75 C63 0.929 . S
H76 C64 0.960 1_655 S
H77 C64 0.962 . S
H78 C64 0.960 . S
H79 C65 0.961 . S
H80 C65 0.961 . S
H81 C65 0.961 . S
H82 C66 0.931 . S
H83 C71 0.930 . S
H84 C72 0.956 . S
H85 C72 0.961 . S
H86 C72 0.961 . S
H87 C73 0.958 . S
H88 C73 0.961 . S
H89 C73 0.960 . S
C90 C91 1.391 . S
C90 C92 1.394 . S
C90 H106 0.931 . S
C91 C90 1.391 . S
C91 C95 1.376 . S
C92 C90 1.394 . S
C92 C93 1.369 . S
C92 C96 1.531 . S
C93 C92 1.369 . S
C93 C94 1.410 . S
C93 C101 1.503 . S
C94 C93 1.410 . S
C94 C95 1.392 . S
C94 C97 1.511 . S
C95 C91 1.376 . S
C95 C94 1.392 . S
C95 H107 0.929 . S
C96 C92 1.531 . S
C96 H108 0.960 . S
C96 H109 0.962 1_545 S
C96 H110 0.960 . S
C97 C94 1.511 . S
C97 H111 0.961 1_545 S
C97 H112 0.961 1_545 S
C97 H113 0.961 . S
C98 C99 1.370 1_565 S
C98 C100 1.363 . S
C98 H114 0.931 . S
C99 C98 1.370 1_545 S
C99 C103 1.408 . S
C100 C98 1.363 . S
C100 C101 1.370 1_565 S
C100 C104 1.524 . S
C101 C93 1.503 . S
C101 C100 1.370 1_545 S
C101 C102 1.403 . S
C102 C101 1.403 . S
C102 C103 1.404 . S
C102 C105 1.539 . S
C103 C99 1.408 . S
C103 C102 1.404 . S
C103 H115 0.930 . S
C104 C100 1.524 . S
C104 H116 0.956 . S
C104 H117 0.961 . S
C104 H118 0.961 . S
C105 C102 1.539 . S
C105 H119 0.958 . S
C105 H120 0.961 . S
C105 H121 0.960 . S
H106 C90 0.931 . S
H107 C95 0.929 . S
H108 C96 0.960 . S
H109 C96 0.962 1_565 S
H110 C96 0.960 . S
H111 C97 0.961 1_565 S
H112 C97 0.961 1_565 S
H113 C97 0.961 . S
H114 C98 0.931 . S
H115 C103 0.930 . S
H116 C104 0.956 . S
H117 C104 0.961 . S
H118 C104 0.961 . S
H119 C105 0.958 . S
H120 C105 0.961 . S
H121 C105 0.960 . S
C122 C123 1.373 1_655 S
C122 C124 1.394 . S
C122 H138 0.931 . S
C123 C122 1.373 1_455 S
C123 C127 1.395 . S
C124 C122 1.394 . S
C124 C125 1.369 1_655 S
C124 C128 1.531 . S
C125 C124 1.369 1_455 S
C125 C126 1.410 . S
C125 C133 1.503 . S
C126 C125 1.410 . S
C126 C127 1.392 . S
C126 C129 1.511 . S
C127 C123 1.395 . S
C127 C126 1.392 . S
C127 H139 0.929 . S
C128 C124 1.531 . S
C128 H140 0.960 . S
C128 H141 0.962 . S
C128 H142 0.960 . S
C129 C126 1.511 . S
C129 H143 0.961 . S
C129 H144 0.961 . S
C129 H145 0.961 . S
C130 C131 1.366 1_655 S
C130 C132 1.363 . S
C130 H146 0.931 . S
C131 C130 1.366 1_455 S
C131 C135 1.412 . S
C132 C130 1.363 . S
C132 C133 1.370 1_655 S
C132 C136 1.524 . S
C133 C125 1.503 . S
C133 C132 1.370 1_455 S
C133 C134 1.403 . S
C134 C133 1.403 . S
C134 C135 1.404 . S
C134 C137 1.539 . S
C135 C131 1.412 . S
C135 C134 1.404 . S
C135 H147 0.930 . S
C136 C132 1.524 . S
C136 H148 0.956 . S
C136 H149 0.961 1_655 S
C136 H150 0.961 . S
C137 C134 1.539 . S
C137 H151 0.958 1_455 S
C137 H152 0.961 . S
C137 H153 0.960 . S
H138 C122 0.931 . S
H139 C127 0.929 . S
H140 C128 0.960 . S
H141 C128 0.962 . S
H142 C128 0.960 . S
H143 C129 0.961 . S
H144 C129 0.961 . S
H145 C129 0.961 . S
H146 C130 0.931 . S
H147 C135 0.930 . S
H148 C136 0.956 . S
H149 C136 0.961 1_455 S
H150 C136 0.961 . S
H151 C137 0.958 1_655 S
H152 C137 0.961 . S
H153 C137 0.960 . S
C154 C155 1.391 . S
C154 C156 1.394 . S
C154 H170 0.931 . S
C155 C154 1.391 . S
C155 C159 1.376 1_565 S
C156 C154 1.394 . S
C156 C157 1.369 . S
C156 C160 1.531 . S
C157 C156 1.369 . S
C157 C158 1.410 1_565 S
C157 C165 1.503 . S
C158 C157 1.410 1_545 S
C158 C159 1.392 . S
C158 C161 1.511 . S
C159 C155 1.376 1_545 S
C159 C158 1.392 . S
C159 H171 0.929 . S
C160 C156 1.531 . S
C160 H172 0.960 . S
C160 H173 0.962 . S
C160 H174 0.960 . S
C161 C158 1.511 . S
C161 H175 0.961 . S
C161 H176 0.961 . S
C161 H177 0.961 . S
C162 C163 1.362 1_545 S
C162 C164 1.363 . S
C162 H178 0.931 . S
C163 C162 1.362 1_565 S
C163 C167 1.417 . S
C164 C162 1.363 . S
C164 C165 1.370 1_545 S
C164 C168 1.524 . S
C165 C157 1.503 . S
C165 C164 1.370 1_565 S
C165 C166 1.403 . S
C166 C165 1.403 . S
C166 C167 1.404 . S
C166 C169 1.539 . S
C167 C163 1.417 . S
C167 C166 1.404 . S
C167 H179 0.930 . S
C168 C164 1.524 . S
C168 H180 0.956 . S
C168 H181 0.961 . S
C168 H182 0.961 . S
C169 C166 1.539 . S
C169 H183 0.958 . S
C169 H184 0.961 . S
C169 H185 0.960 . S
H170 C154 0.931 . S
H171 C159 0.929 . S
H172 C160 0.960 . S
H173 C160 0.962 . S
H174 C160 0.960 . S
H175 C161 0.961 . S
H176 C161 0.961 . S
H177 C161 0.961 . S
H178 C162 0.931 . S
H179 C167 0.930 . S
H180 C168 0.956 . S
H181 C168 0.961 . S
H182 C168 0.961 . S
H183 C169 0.958 . S
H184 C169 0.961 . S
H185 C169 0.960 . S
C186 C187 1.391 1_455 S
C186 C188 1.394 . S
C186 H202 0.931 . S
C187 C186 1.391 1_655 S
C187 C191 1.376 . S
C188 C186 1.394 . S
C188 C189 1.369 1_455 S
C188 C192 1.531 . S
C189 C188 1.369 1_655 S
C189 C190 1.410 . S
C189 C197 1.503 . S
C190 C189 1.410 . S
C190 C191 1.392 . S
C190 C193 1.511 . S
C191 C187 1.376 . S
C191 C190 1.392 . S
C191 H203 0.929 . S
C192 C188 1.531 . S
C192 H204 0.960 . S
C192 H205 0.962 . S
C192 H206 0.960 . S
C193 C190 1.511 . S
C193 H207 0.961 . S
C193 H208 0.961 . S
C193 H209 0.961 . S
C194 C195 1.365 1_455 S
C194 C196 1.363 . S
C194 H210 0.931 . S
C195 C194 1.365 1_655 S
C195 C199 1.414 . S
C196 C194 1.363 . S
C196 C197 1.370 1_455 S
C196 C200 1.524 . S
C197 C189 1.503 . S
C197 C196 1.370 1_655 S
C197 C198 1.403 . S
C198 C197 1.403 . S
C198 C199 1.404 . S
C198 C201 1.539 . S
C199 C195 1.414 . S
C199 C198 1.404 . S
C199 H211 0.930 . S
C200 C196 1.524 . S
C200 H212 0.956 . S
C200 H213 0.961 . S
C200 H214 0.961 . S
C201 C198 1.539 . S
C201 H215 0.958 . S
C201 H216 0.961 . S
C201 H217 0.960 . S
H202 C186 0.931 . S
H203 C191 0.929 . S
H204 C192 0.960 . S
H205 C192 0.962 . S
H206 C192 0.960 . S
H207 C193 0.961 . S
H208 C193 0.961 . S
H209 C193 0.961 . S
H210 C194 0.931 . S
H211 C199 0.930 . S
H212 C200 0.956 . S
H213 C200 0.961 . S
H214 C200 0.961 . S
H215 C201 0.958 . S
H216 C201 0.961 . S
H217 C201 0.960 . S
C218 C219 1.391 . S
C218 C220 1.394 . S
C218 H234 0.931 . S
C219 C218 1.391 . S
C219 C223 1.376 1_565 S
C220 C218 1.394 . S
C220 C221 1.369 . S
C220 C224 1.531 . S
C221 C220 1.369 . S
C221 C222 1.410 1_565 S
C221 C229 1.503 . S
C222 C221 1.410 1_545 S
C222 C223 1.392 . S
C222 C225 1.511 . S
C223 C219 1.376 1_545 S
C223 C222 1.392 . S
C223 H235 0.929 . S
C224 C220 1.531 . S
C224 H236 0.960 . S
C224 H237 0.962 . S
C224 H238 0.960 . S
C225 C222 1.511 . S
C225 H239 0.961 . S
C225 H240 0.961 . S
C225 H241 0.961 1_545 S
C226 C227 1.370 1_545 S
C226 C228 1.363 . S
C226 H242 0.931 . S
C227 C226 1.370 1_565 S
C227 C231 1.408 . S
C228 C226 1.363 . S
C228 C229 1.370 1_545 S
C228 C232 1.524 . S
C229 C221 1.503 . S
C229 C228 1.370 1_565 S
C229 C230 1.403 . S
C230 C229 1.403 . S
C230 C231 1.404 . S
C230 C233 1.539 . S
C231 C227 1.408 . S
C231 C230 1.404 . S
C231 H243 0.930 . S
C232 C228 1.524 . S
C232 H244 0.956 . S
C232 H245 0.961 . S
C232 H246 0.961 . S
C233 C230 1.539 . S
C233 H247 0.958 . S
C233 H248 0.961 . S
C233 H249 0.960 . S
H234 C218 0.931 . S
H235 C223 0.929 . S
H236 C224 0.960 . S
H237 C224 0.962 . S
H238 C224 0.960 . S
H239 C225 0.961 . S
H240 C225 0.961 . S
H241 C225 0.961 1_565 S
H242 C226 0.931 . S
H243 C231 0.930 . S
H244 C232 0.956 . S
H245 C232 0.961 . S
H246 C232 0.961 . S
H247 C233 0.958 . S
H248 C233 0.961 . S
H249 C233 0.960 . S
C250 C251 1.391 1_455 S
C250 C252 1.394 . S
C250 H266 0.931 . S
C251 C250 1.391 1_655 S
C251 C255 1.376 . S
C252 C250 1.394 . S
C252 C253 1.369 1_455 S
C252 C256 1.531 . S
C253 C252 1.369 1_655 S
C253 C254 1.410 . S
C253 C261 1.503 . S
C254 C253 1.410 . S
C254 C255 1.392 . S
C254 C257 1.511 . S
C255 C251 1.376 . S
C255 C254 1.392 . S
C255 H267 0.929 . S
C256 C252 1.531 . S
C256 H268 0.960 . S
C256 H269 0.962 . S
C256 H270 0.960 . S
C257 C254 1.511 . S
C257 H271 0.961 . S
C257 H272 0.961 . S
C257 H273 0.961 . S
C258 C259 1.366 1_455 S
C258 C260 1.363 . S
C258 H274 0.931 . S
C259 C258 1.366 1_655 S
C259 C263 1.412 . S
C260 C258 1.363 . S
C260 C261 1.370 1_455 S
C260 C264 1.524 . S
C261 C253 1.503 . S
C261 C260 1.370 1_655 S
C261 C262 1.403 . S
C262 C261 1.403 . S
C262 C263 1.404 . S
C262 C265 1.539 . S
C263 C259 1.412 . S
C263 C262 1.404 . S
C263 H275 0.930 . S
C264 C260 1.524 . S
C264 H276 0.956 . S
C264 H277 0.961 1_455 S
C264 H278 0.961 . S
C265 C262 1.539 . S
C265 H279 0.958 . S
C265 H280 0.961 . S
C265 H281 0.960 . S
H266 C250 0.931 . S
H267 C255 0.929 . S
H268 C256 0.960 . S
H269 C256 0.962 . S
H270 C256 0.960 . S
H271 C257 0.961 . S
H272 C257 0.961 . S
H273 C257 0.961 . S
H274 C258 0.931 . S
H275 C263 0.930 . S
H276 C264 0.956 . S
H277 C264 0.961 1_655 S
H278 C264 0.961 . S
H279 C265 0.958 . S
H280 C265 0.961 . S
H281 C265 0.960 . S
C282 C283 1.391 . S
C282 C284 1.394 . S
C282 H298 0.931 . S
C283 C282 1.391 . S
C283 C287 1.376 1_565 S
C284 C282 1.394 . S
C284 C285 1.369 . S
C284 C288 1.531 . S
C285 C284 1.369 . S
C285 C286 1.410 . S
C285 C293 1.503 . S
C286 C285 1.410 . S
C286 C287 1.392 1_565 S
C286 C289 1.511 1_565 S
C287 C283 1.376 1_545 S
C287 C286 1.392 1_545 S
C287 H299 0.929 . S
C288 C284 1.531 . S
C288 H300 0.960 . S
C288 H301 0.978 . S
C288 H302 0.960 . S
C289 C286 1.511 1_545 S
C289 H303 0.961 . S
C289 H304 0.961 . S
C289 H305 0.961 1_545 S
C290 C291 1.370 1_545 S
C290 C292 1.363 . S
C290 H306 0.931 . S
C291 C290 1.370 1_565 S
C291 C295 1.408 . S
C292 C290 1.363 . S
C292 C293 1.370 1_545 S
C292 C296 1.524 . S
C293 C285 1.503 . S
C293 C292 1.370 1_565 S
C293 C294 1.403 . S
C294 C293 1.403 . S
C294 C295 1.404 . S
C294 C297 1.539 . S
C295 C291 1.408 . S
C295 C294 1.404 . S
C295 H307 0.930 . S
C296 C292 1.524 . S
C296 H308 0.956 . S
C296 H309 0.961 . S
C296 H310 0.961 . S
C297 C294 1.539 . S
C297 H311 0.958 . S
C297 H312 0.961 . S
C297 H313 0.960 . S
H298 C282 0.931 . S
H299 C287 0.929 . S
H300 C288 0.960 . S
H301 C288 0.978 . S
H302 C288 0.960 . S
H303 C289 0.961 . S
H304 C289 0.961 . S
H305 C289 0.961 1_565 S
H306 C290 0.931 . S
H307 C295 0.930 . S
H308 C296 0.956 . S
H309 C296 0.961 . S
H310 C296 0.961 . S
H311 C297 0.958 . S
H312 C297 0.961 . S
H313 C297 0.960 . S
C59 C22 1.391 . S
C67 C33 1.469 1_655 S
C91 C8 1.387 . S
C99 C55 1.473 1_545 S
C123 C31 1.434 . S
C131 C42 1.469 . S
C155 C17 1.418 . S
C163 C46 1.465 . S
C187 C30 1.370 1_655 S
C195 C35 1.393 1_655 S
C219 C27 1.312 . S
C227 C50 1.383 . S
C259 C37 1.390 1_655 S
C251 C23 1.310 . S
C283 C24 1.372 1_565 S
C291 C48 1.387 . S
