# Generated by pormake.
# Topology gar, (4,6)-cn, num edge types: 1
# Building blocks:
#     Node 0, Type 0, BuildingBlock: QUQFOY_clean_sbu_3, # of connection points: 4
#     Node 1, Type 0, BuildingBlock: QUQFOY_clean_sbu_3, # of connection points: 4
#     Node 2, Type 0, BuildingBlock: QUQFOY_clean_sbu_3, # of connection points: 4
#     Node 3, Type 0, BuildingBlock: QUQFOY_clean_sbu_3, # of connection points: 4
#     Node 4, Type 0, BuildingBlock: QUQFOY_clean_sbu_3, # of connection points: 4
#     Node 5, Type 0, BuildingBlock: QUQFOY_clean_sbu_3, # of connection points: 4
#     Node 6, Type 0, BuildingBlock: QUQFOY_clean_sbu_3, # of connection points: 4
#     Node 7, Type 0, BuildingBlock: QUQFOY_clean_sbu_3, # of connection points: 4
#     Node 8, Type 0, BuildingBlock: QUQFOY_clean_sbu_3, # of connection points: 4
#     Node 9, Type 0, BuildingBlock: QUQFOY_clean_sbu_3, # of connection points: 4
#     Node 10, Type 0, BuildingBlock: QUQFOY_clean_sbu_3, # of connection points: 4
#     Node 11, Type 0, BuildingBlock: QUQFOY_clean_sbu_3, # of connection points: 4
#     Node 12, Type 0, BuildingBlock: QUQFOY_clean_sbu_3, # of connection points: 4
#     Node 13, Type 0, BuildingBlock: QUQFOY_clean_sbu_3, # of connection points: 4
#     Node 14, Type 0, BuildingBlock: QUQFOY_clean_sbu_3, # of connection points: 4
#     Node 15, Type 0, BuildingBlock: QUQFOY_clean_sbu_3, # of connection points: 4
#     Node 16, Type 0, BuildingBlock: QUQFOY_clean_sbu_3, # of connection points: 4
#     Node 17, Type 0, BuildingBlock: QUQFOY_clean_sbu_3, # of connection points: 4
#     Node 18, Type 0, BuildingBlock: QUQFOY_clean_sbu_3, # of connection points: 4
#     Node 19, Type 0, BuildingBlock: QUQFOY_clean_sbu_3, # of connection points: 4
#     Node 20, Type 0, BuildingBlock: QUQFOY_clean_sbu_3, # of connection points: 4
#     Node 21, Type 0, BuildingBlock: QUQFOY_clean_sbu_3, # of connection points: 4
#     Node 22, Type 0, BuildingBlock: QUQFOY_clean_sbu_3, # of connection points: 4
#     Node 23, Type 0, BuildingBlock: QUQFOY_clean_sbu_3, # of connection points: 4
#     Node 24, Type 1, BuildingBlock: BETDAH_clean_sbu_0, # of connection points: 6
#     Node 25, Type 1, BuildingBlock: BETDAH_clean_sbu_0, # of connection points: 6
#     Node 26, Type 1, BuildingBlock: BETDAH_clean_sbu_0, # of connection points: 6
#     Node 27, Type 1, BuildingBlock: BETDAH_clean_sbu_0, # of connection points: 6
#     Node 28, Type 1, BuildingBlock: BETDAH_clean_sbu_0, # of connection points: 6
#     Node 29, Type 1, BuildingBlock: BETDAH_clean_sbu_0, # of connection points: 6
#     Node 30, Type 1, BuildingBlock: BETDAH_clean_sbu_0, # of connection points: 6
#     Node 31, Type 1, BuildingBlock: BETDAH_clean_sbu_0, # of connection points: 6
#     Node 32, Type 1, BuildingBlock: BETDAH_clean_sbu_0, # of connection points: 6
#     Node 33, Type 1, BuildingBlock: BETDAH_clean_sbu_0, # of connection points: 6
#     Node 34, Type 1, BuildingBlock: BETDAH_clean_sbu_0, # of connection points: 6
#     Node 35, Type 1, BuildingBlock: BETDAH_clean_sbu_0, # of connection points: 6
#     Node 36, Type 1, BuildingBlock: BETDAH_clean_sbu_0, # of connection points: 6
#     Node 37, Type 1, BuildingBlock: BETDAH_clean_sbu_0, # of connection points: 6
#     Node 38, Type 1, BuildingBlock: BETDAH_clean_sbu_0, # of connection points: 6
#     Node 39, Type 1, BuildingBlock: BETDAH_clean_sbu_0, # of connection points: 6
#     Edge 40, Type (0, 1), BuildingBlock: ZUJKAS_clean_linker_0, # of connection points: 2
#     Edge 41, Type (0, 1), BuildingBlock: ZUJKAS_clean_linker_0, # of connection points: 2
#     Edge 42, Type (0, 1), BuildingBlock: ZUJKAS_clean_linker_0, # of connection points: 2
#     Edge 43, Type (0, 1), BuildingBlock: ZUJKAS_clean_linker_0, # of connection points: 2
#     Edge 44, Type (0, 1), BuildingBlock: ZUJKAS_clean_linker_0, # of connection points: 2
#     Edge 45, Type (0, 1), BuildingBlock: ZUJKAS_clean_linker_0, # of connection points: 2
#     Edge 46, Type (0, 1), BuildingBlock: ZUJKAS_clean_linker_0, # of connection points: 2
#     Edge 47, Type (0, 1), BuildingBlock: ZUJKAS_clean_linker_0, # of connection points: 2
#     Edge 48, Type (0, 1), BuildingBlock: ZUJKAS_clean_linker_0, # of connection points: 2
#     Edge 49, Type (0, 1), BuildingBlock: ZUJKAS_clean_linker_0, # of connection points: 2
#     Edge 50, Type (0, 1), BuildingBlock: ZUJKAS_clean_linker_0, # of connection points: 2
#     Edge 51, Type (0, 1), BuildingBlock: ZUJKAS_clean_linker_0, # of connection points: 2
#     Edge 52, Type (0, 1), BuildingBlock: ZUJKAS_clean_linker_0, # of connection points: 2
#     Edge 53, Type (0, 1), BuildingBlock: ZUJKAS_clean_linker_0, # of connection points: 2
#     Edge 54, Type (0, 1), BuildingBlock: ZUJKAS_clean_linker_0, # of connection points: 2
#     Edge 55, Type (0, 1), BuildingBlock: ZUJKAS_clean_linker_0, # of connection points: 2
#     Edge 56, Type (0, 1), BuildingBlock: ZUJKAS_clean_linker_0, # of connection points: 2
#     Edge 57, Type (0, 1), BuildingBlock: ZUJKAS_clean_linker_0, # of connection points: 2
#     Edge 58, Type (0, 1), BuildingBlock: ZUJKAS_clean_linker_0, # of connection points: 2
#     Edge 59, Type (0, 1), BuildingBlock: ZUJKAS_clean_linker_0, # of connection points: 2
#     Edge 60, Type (0, 1), BuildingBlock: ZUJKAS_clean_linker_0, # of connection points: 2
#     Edge 61, Type (0, 1), BuildingBlock: ZUJKAS_clean_linker_0, # of connection points: 2
#     Edge 62, Type (0, 1), BuildingBlock: ZUJKAS_clean_linker_0, # of connection points: 2
#     Edge 63, Type (0, 1), BuildingBlock: ZUJKAS_clean_linker_0, # of connection points: 2
#     Edge 64, Type (0, 1), BuildingBlock: ZUJKAS_clean_linker_0, # of connection points: 2
#     Edge 65, Type (0, 1), BuildingBlock: ZUJKAS_clean_linker_0, # of connection points: 2
#     Edge 66, Type (0, 1), BuildingBlock: ZUJKAS_clean_linker_0, # of connection points: 2
#     Edge 67, Type (0, 1), BuildingBlock: ZUJKAS_clean_linker_0, # of connection points: 2
#     Edge 68, Type (0, 1), BuildingBlock: ZUJKAS_clean_linker_0, # of connection points: 2
#     Edge 69, Type (0, 1), BuildingBlock: ZUJKAS_clean_linker_0, # of connection points: 2
#     Edge 70, Type (0, 1), BuildingBlock: ZUJKAS_clean_linker_0, # of connection points: 2
#     Edge 71, Type (0, 1), BuildingBlock: ZUJKAS_clean_linker_0, # of connection points: 2
#     Edge 72, Type (0, 1), BuildingBlock: ZUJKAS_clean_linker_0, # of connection points: 2
#     Edge 73, Type (0, 1), BuildingBlock: ZUJKAS_clean_linker_0, # of connection points: 2
#     Edge 74, Type (0, 1), BuildingBlock: ZUJKAS_clean_linker_0, # of connection points: 2
#     Edge 75, Type (0, 1), BuildingBlock: ZUJKAS_clean_linker_0, # of connection points: 2
#     Edge 76, Type (0, 1), BuildingBlock: ZUJKAS_clean_linker_0, # of connection points: 2
#     Edge 77, Type (0, 1), BuildingBlock: ZUJKAS_clean_linker_0, # of connection points: 2
#     Edge 78, Type (0, 1), BuildingBlock: ZUJKAS_clean_linker_0, # of connection points: 2
#     Edge 79, Type (0, 1), BuildingBlock: ZUJKAS_clean_linker_0, # of connection points: 2
#     Edge 80, Type (0, 1), BuildingBlock: ZUJKAS_clean_linker_0, # of connection points: 2
#     Edge 81, Type (0, 1), BuildingBlock: ZUJKAS_clean_linker_0, # of connection points: 2
#     Edge 82, Type (0, 1), BuildingBlock: ZUJKAS_clean_linker_0, # of connection points: 2
#     Edge 83, Type (0, 1), BuildingBlock: ZUJKAS_clean_linker_0, # of connection points: 2
#     Edge 84, Type (0, 1), BuildingBlock: ZUJKAS_clean_linker_0, # of connection points: 2
#     Edge 85, Type (0, 1), BuildingBlock: ZUJKAS_clean_linker_0, # of connection points: 2
#     Edge 86, Type (0, 1), BuildingBlock: ZUJKAS_clean_linker_0, # of connection points: 2
#     Edge 87, Type (0, 1), BuildingBlock: ZUJKAS_clean_linker_0, # of connection points: 2
#     Edge 88, Type (0, 1), BuildingBlock: ZUJKAS_clean_linker_0, # of connection points: 2
#     Edge 89, Type (0, 1), BuildingBlock: ZUJKAS_clean_linker_0, # of connection points: 2
#     Edge 90, Type (0, 1), BuildingBlock: ZUJKAS_clean_linker_0, # of connection points: 2
#     Edge 91, Type (0, 1), BuildingBlock: ZUJKAS_clean_linker_0, # of connection points: 2
#     Edge 92, Type (0, 1), BuildingBlock: ZUJKAS_clean_linker_0, # of connection points: 2
#     Edge 93, Type (0, 1), BuildingBlock: ZUJKAS_clean_linker_0, # of connection points: 2
#     Edge 94, Type (0, 1), BuildingBlock: ZUJKAS_clean_linker_0, # of connection points: 2
#     Edge 95, Type (0, 1), BuildingBlock: ZUJKAS_clean_linker_0, # of connection points: 2
#     Edge 96, Type (0, 1), BuildingBlock: ZUJKAS_clean_linker_0, # of connection points: 2
#     Edge 97, Type (0, 1), BuildingBlock: ZUJKAS_clean_linker_0, # of connection points: 2
#     Edge 98, Type (0, 1), BuildingBlock: ZUJKAS_clean_linker_0, # of connection points: 2
#     Edge 99, Type (0, 1), BuildingBlock: ZUJKAS_clean_linker_0, # of connection points: 2
#     Edge 100, Type (0, 1), BuildingBlock: ZUJKAS_clean_linker_0, # of connection points: 2
#     Edge 101, Type (0, 1), BuildingBlock: ZUJKAS_clean_linker_0, # of connection points: 2
#     Edge 102, Type (0, 1), BuildingBlock: ZUJKAS_clean_linker_0, # of connection points: 2
#     Edge 103, Type (0, 1), BuildingBlock: ZUJKAS_clean_linker_0, # of connection points: 2
#     Edge 104, Type (0, 1), BuildingBlock: ZUJKAS_clean_linker_0, # of connection points: 2
#     Edge 105, Type (0, 1), BuildingBlock: ZUJKAS_clean_linker_0, # of connection points: 2
#     Edge 106, Type (0, 1), BuildingBlock: ZUJKAS_clean_linker_0, # of connection points: 2
#     Edge 107, Type (0, 1), BuildingBlock: ZUJKAS_clean_linker_0, # of connection points: 2
#     Edge 108, Type (0, 1), BuildingBlock: ZUJKAS_clean_linker_0, # of connection points: 2
#     Edge 109, Type (0, 1), BuildingBlock: ZUJKAS_clean_linker_0, # of connection points: 2
#     Edge 110, Type (0, 1), BuildingBlock: ZUJKAS_clean_linker_0, # of connection points: 2
#     Edge 111, Type (0, 1), BuildingBlock: ZUJKAS_clean_linker_0, # of connection points: 2
#     Edge 112, Type (0, 1), BuildingBlock: ZUJKAS_clean_linker_0, # of connection points: 2
#     Edge 113, Type (0, 1), BuildingBlock: ZUJKAS_clean_linker_0, # of connection points: 2
#     Edge 114, Type (0, 1), BuildingBlock: ZUJKAS_clean_linker_0, # of connection points: 2
#     Edge 115, Type (0, 1), BuildingBlock: ZUJKAS_clean_linker_0, # of connection points: 2
#     Edge 116, Type (0, 1), BuildingBlock: ZUJKAS_clean_linker_0, # of connection points: 2
#     Edge 117, Type (0, 1), BuildingBlock: ZUJKAS_clean_linker_0, # of connection points: 2
#     Edge 118, Type (0, 1), BuildingBlock: ZUJKAS_clean_linker_0, # of connection points: 2
#     Edge 119, Type (0, 1), BuildingBlock: ZUJKAS_clean_linker_0, # of connection points: 2
#     Edge 120, Type (0, 1), BuildingBlock: ZUJKAS_clean_linker_0, # of connection points: 2
#     Edge 121, Type (0, 1), BuildingBlock: ZUJKAS_clean_linker_0, # of connection points: 2
#     Edge 122, Type (0, 1), BuildingBlock: ZUJKAS_clean_linker_0, # of connection points: 2
#     Edge 123, Type (0, 1), BuildingBlock: ZUJKAS_clean_linker_0, # of connection points: 2
#     Edge 124, Type (0, 1), BuildingBlock: ZUJKAS_clean_linker_0, # of connection points: 2
#     Edge 125, Type (0, 1), BuildingBlock: ZUJKAS_clean_linker_0, # of connection points: 2
#     Edge 126, Type (0, 1), BuildingBlock: ZUJKAS_clean_linker_0, # of connection points: 2
#     Edge 127, Type (0, 1), BuildingBlock: ZUJKAS_clean_linker_0, # of connection points: 2
#     Edge 128, Type (0, 1), BuildingBlock: ZUJKAS_clean_linker_0, # of connection points: 2
#     Edge 129, Type (0, 1), BuildingBlock: ZUJKAS_clean_linker_0, # of connection points: 2
#     Edge 130, Type (0, 1), BuildingBlock: ZUJKAS_clean_linker_0, # of connection points: 2
#     Edge 131, Type (0, 1), BuildingBlock: ZUJKAS_clean_linker_0, # of connection points: 2
#     Edge 132, Type (0, 1), BuildingBlock: ZUJKAS_clean_linker_0, # of connection points: 2
#     Edge 133, Type (0, 1), BuildingBlock: ZUJKAS_clean_linker_0, # of connection points: 2
#     Edge 134, Type (0, 1), BuildingBlock: ZUJKAS_clean_linker_0, # of connection points: 2
#     Edge 135, Type (0, 1), BuildingBlock: ZUJKAS_clean_linker_0, # of connection points: 2
# Relax obj value: 0.160
# Max RMSD: 0.292
# Mean RMSD: 0.148
data_MOF--net-gar--node1-QUQFOY_clean_sbu_3--node2-BETDAH_clean_sbu_0--edge1-ZUJKAS_clean_linker_0
_symmetry_space_group_name_H-M    P1
_symmetry_Int_Tables_number       1
_symmetry_cell_setting            triclinic
loop_
_symmetry_equiv_pos_as_xyz
'x, y, z'
_cell_length_a     78.444649
_cell_length_b     74.217465
_cell_length_c     73.761347
_cell_angle_alpha  99.273899
_cell_angle_beta   94.963572
_cell_angle_gamma 102.73739
loop_
_atom_site_label
_atom_site_type_symbol
_atom_site_fract_x
_atom_site_fract_y
_atom_site_fract_z
_atom_type_partial_charge
C0 C 0.06132 0.30336 0.33566 0.0
O1 O 0.07449 0.31273 0.32963 0.0
Cd2 Cd 0.10232 0.32591 0.34771 0.0
O3 O 0.06256 0.30002 0.35211 0.0
Cd4 Cd 0.08543 0.30585 0.37927 0.0
C5 C 0.08925 0.35264 0.38388 0.0
O6 O 0.10805 0.30026 0.36122 0.0
O7 O 0.11778 0.31376 0.38935 0.0
O8 O 0.07258 0.27464 0.38506 0.0
C9 C 0.12099 0.30608 0.3738 0.0
O10 O 0.09777 0.35242 0.36994 0.0
C11 C 0.07251 0.27994 0.4023 0.0
O12 O 0.08271 0.33749 0.38933 0.0
O13 O 0.07821 0.29739 0.40875 0.0
C14 C 0.96838 0.73943 0.67636 0.0
O15 O 0.98123 0.73643 0.68615 0.0
Cd16 Cd 0.01079 0.74209 0.67928 0.0
O17 O 0.97067 0.74653 0.66186 0.0
Cd18 Cd 0.99558 0.75786 0.64477 0.0
C19 C 0.00292 0.71413 0.63634 0.0
O20 O 0.01617 0.77295 0.67209 0.0
O21 O 0.0277 0.77038 0.64673 0.0
O22 O 0.98274 0.78334 0.63719 0.0
C23 C 0.0297 0.77676 0.66398 0.0
O24 O 0.01017 0.71716 0.65302 0.0
C25 C 0.98467 0.78024 0.62012 0.0
O26 O 0.99586 0.72622 0.63027 0.0
O27 O 0.99093 0.76626 0.6145 0.0
C28 C 0.5594 0.8096 0.83927 0.0
O29 O 0.57017 0.8222 0.83347 0.0
Cd30 Cd 0.59916 0.83747 0.84837 0.0
O31 O 0.56342 0.8043 0.85435 0.0
Cd32 Cd 0.58828 0.81067 0.87943 0.0
C33 C 0.58869 0.85717 0.89013 0.0
O34 O 0.60891 0.81189 0.8578 0.0
O35 O 0.62104 0.81834 0.88606 0.0
O36 O 0.57814 0.77773 0.88159 0.0
C37 C 0.62289 0.81631 0.869 0.0
O38 O 0.59502 0.85955 0.87512 0.0
C39 C 0.57852 0.78075 0.89908 0.0
O40 O 0.58436 0.84086 0.89416 0.0
O41 O 0.58372 0.79772 0.90746 0.0
C42 C 0.46723 0.23631 0.17832 0.0
O43 O 0.47988 0.23256 0.18775 0.0
Cd44 Cd 0.50939 0.23801 0.18053 0.0
O45 O 0.46973 0.24401 0.1642 0.0
Cd46 Cd 0.49477 0.25566 0.14749 0.0
C47 C 0.50155 0.21184 0.13678 0.0
O48 O 0.51543 0.26952 0.17506 0.0
O49 O 0.52693 0.26769 0.14958 0.0
O50 O 0.48313 0.28247 0.14172 0.0
C51 C 0.52891 0.27363 0.16694 0.0
O52 O 0.50886 0.21407 0.15334 0.0
C53 C 0.48451 0.27984 0.12451 0.0
O54 O 0.49453 0.22433 0.1315 0.0
O55 O 0.48982 0.26546 0.11794 0.0
C56 C 0.04586 0.80245 0.15511 0.0
O57 O 0.05696 0.79633 0.16448 0.0
Cd58 Cd 0.08529 0.79366 0.15698 0.0
O59 O 0.04973 0.80888 0.14052 0.0
Cd60 Cd 0.07598 0.81469 0.12259 0.0
C61 C 0.07191 0.76719 0.11262 0.0
O62 O 0.09829 0.823 0.14948 0.0
O63 O 0.10854 0.81831 0.12359 0.0
O64 O 0.06918 0.84503 0.12003 0.0
C65 C 0.11165 0.8227 0.1411 0.0
O66 O 0.07825 0.76897 0.12949 0.0
C67 C 0.0705 0.84406 0.10289 0.0
O68 O 0.06886 0.78134 0.10621 0.0
O69 O 0.07417 0.82925 0.09462 0.0
C70 C 0.47092 0.7618 0.36734 0.0
O71 O 0.48277 0.77006 0.3588 0.0
Cd72 Cd 0.5139 0.7776 0.36691 0.0
O73 O 0.47522 0.75554 0.38185 0.0
Cd74 Cd 0.50457 0.75533 0.39986 0.0
C75 C 0.51548 0.80332 0.41063 0.0
O76 O 0.52212 0.75056 0.37422 0.0
O77 O 0.53698 0.76138 0.40115 0.0
O78 O 0.49676 0.72193 0.40235 0.0
C79 C 0.53697 0.75504 0.38413 0.0
O80 O 0.5193 0.80239 0.39412 0.0
C81 C 0.49948 0.7244 0.41989 0.0
O82 O 0.5086 0.78842 0.41651 0.0
O83 O 0.50348 0.74137 0.42844 0.0
C84 C 0.54984 0.30424 0.65513 0.0
O85 O 0.56107 0.2985 0.66473 0.0
Cd86 Cd 0.58918 0.29503 0.65696 0.0
O87 O 0.55349 0.31 0.64016 0.0
Cd88 Cd 0.57928 0.3152 0.62159 0.0
C89 C 0.57508 0.26758 0.61297 0.0
O90 O 0.60235 0.32328 0.64767 0.0
O91 O 0.61155 0.31761 0.62129 0.0
O92 O 0.57479 0.34658 0.61965 0.0
C93 C 0.61526 0.32209 0.63876 0.0
O94 O 0.5816 0.26989 0.62986 0.0
C95 C 0.57373 0.34481 0.60216 0.0
O96 O 0.57191 0.28144 0.60608 0.0
O97 O 0.57508 0.32906 0.59336 0.0
C98 C 0.97467 0.26451 0.86971 0.0
O99 O 0.98677 0.27293 0.86156 0.0
Cd100 Cd 0.01781 0.27964 0.86984 0.0
O101 O 0.97858 0.25767 0.88396 0.0
Cd102 Cd 0.0076 0.25664 0.90203 0.0
C103 C 0.01934 0.30458 0.91383 0.0
O104 O 0.02482 0.25169 0.8762 0.0
O105 O 0.03998 0.26157 0.90307 0.0
O106 O 0.99895 0.22325 0.90439 0.0
C107 C 0.03969 0.25541 0.88595 0.0
O108 O 0.02343 0.30402 0.89744 0.0
C109 C 0.00183 0.22568 0.92192 0.0
O110 O 0.0121 0.28951 0.91922 0.0
O111 O 0.00628 0.24264 0.9305 0.0
C112 C 0.46567 0.05544 0.31178 0.0
O113 O 0.47316 0.04591 0.30053 0.0
Cd114 Cd 0.45976 0.02749 0.27116 0.0
O115 O 0.44984 0.0564 0.30757 0.0
Cd116 Cd 0.42656 0.04425 0.28079 0.0
C117 C 0.42443 0.99942 0.28536 0.0
O118 O 0.44428 0.04606 0.25568 0.0
O119 O 0.41762 0.02934 0.24824 0.0
O120 O 0.41855 0.07422 0.28263 0.0
C121 C 0.43223 0.03637 0.2431 0.0
O122 O 0.43888 1.00085 0.27842 0.0
C123 C 0.40242 0.06771 0.28396 0.0
O124 O 0.41759 0.01346 0.28872 0.0
O125 O 0.39766 0.05034 0.28457 0.0
C126 C 0.29613 0.14334 0.48943 0.0
O127 O 0.28421 0.13311 0.49641 0.0
Cd128 Cd 0.25639 0.13916 0.50222 0.0
O129 O 0.29353 0.15815 0.48403 0.0
Cd130 Cd 0.26857 0.17463 0.48192 0.0
C131 C 0.26992 0.18393 0.52901 0.0
O132 O 0.24406 0.14684 0.47487 0.0
O133 O 0.23674 0.17289 0.48317 0.0
O134 O 0.27242 0.17688 0.44971 0.0
C135 C 0.23186 0.15524 0.47764 0.0
O136 O 0.26287 0.16644 0.52712 0.0
C137 C 0.27488 0.19459 0.45164 0.0
O138 O 0.27457 0.1911 0.51502 0.0
O139 O 0.27484 0.20343 0.46792 0.0
C140 C 0.13555 0.01996 0.80714 0.0
O141 O 0.12758 0.02812 0.79647 0.0
Cd142 Cd 0.13552 0.03415 0.76648 0.0
O143 O 0.14853 0.0133 0.80134 0.0
Cd144 Cd 0.16421 0.0105 0.76854 0.0
C145 C 0.17831 0.06095 0.77086 0.0
O146 O 0.13629 0.0064 0.74475 0.0
O147 O 0.16073 0.01267 0.73383 0.0
O148 O 0.16661 0.97534 0.76688 0.0
C149 C 0.14404 0.00915 0.7306 0.0
O150 O 0.16179 0.05983 0.7685 0.0
C151 C 0.18327 0.97757 0.76794 0.0
O152 O 0.18368 0.04593 0.77244 0.0
O153 O 0.19145 0.99472 0.76938 0.0
C154 C 0.33795 0.9625 0.01803 0.0
O155 O 0.33105 0.97004 0.00593 0.0
Cd156 Cd 0.30078 0.95728 0.99235 0.0
O157 O 0.32945 0.94747 0.02237 0.0
Cd158 Cd 0.30138 0.92402 0.01584 0.0
C159 C 0.30255 0.91415 0.96914 0.0
O160 O 0.28639 0.94893 0.01852 0.0
O161 O 0.26932 0.9212 0.01505 0.0
O162 O 0.31287 0.92015 0.04612 0.0
C163 C 0.27089 0.93882 0.01697 0.0
O164 O 0.30053 0.9305 0.96796 0.0
C165 C 0.30888 0.90232 0.04241 0.0
O166 O 0.30388 0.90913 0.98477 0.0
O167 O 0.30023 0.89454 0.02668 0.0
C168 C 0.33462 0.42425 0.02719 0.0
O169 O 0.32491 0.43234 0.01831 0.0
Cd170 Cd 0.29374 0.42234 0.01053 0.0
O171 O 0.32779 0.40959 0.03348 0.0
Cd172 Cd 0.29704 0.38996 0.03361 0.0
C173 C 0.29179 0.37784 0.98648 0.0
O174 O 0.28199 0.41566 0.03796 0.0
O175 O 0.26496 0.38795 0.02978 0.0
O176 O 0.30507 0.38927 0.06629 0.0
C177 C 0.26644 0.40542 0.03495 0.0
O178 O 0.2894 0.39431 0.98681 0.0
C179 C 0.29941 0.37168 0.06511 0.0
O180 O 0.29595 0.37245 1.00151 0.0
O181 O 0.29324 0.36222 0.04902 0.0
C182 C 0.79091 0.10058 0.03404 0.0
O183 O 0.77787 0.09278 0.04138 0.0
Cd184 Cd 0.75068 0.10245 0.03977 0.0
O185 O 0.78994 0.11418 0.0258 0.0
Cd186 Cd 0.76748 0.13163 0.01968 0.0
C187 C 0.76286 0.14687 0.0639 0.0
O188 O 0.74241 0.10498 0.00801 0.0
O189 O 0.73654 0.13223 0.01433 0.0
O190 O 0.77689 0.13597 0.98974 0.0
C191 C 0.73159 0.11518 0.0063 0.0
O192 O 0.7535 0.13044 0.06354 0.0
C193 C 0.77931 0.15372 0.99322 0.0
O194 O 0.77066 0.15062 0.05012 0.0
O195 O 0.77719 0.16111 0.00934 0.0
C196 C 0.12732 0.52889 0.25804 0.0
O197 O 0.11695 0.53107 0.24478 0.0
Cd198 Cd 0.12259 0.52711 0.21333 0.0
O199 O 0.14104 0.52293 0.25497 0.0
Cd200 Cd 0.15666 0.51234 0.22909 0.0
C201 C 0.16367 0.55749 0.22263 0.0
O202 O 0.1306 0.49762 0.2081 0.0
O203 O 0.15429 0.50085 0.19519 0.0
O204 O 0.16383 0.48914 0.24658 0.0
C205 C 0.13765 0.49506 0.19343 0.0
O206 O 0.14767 0.55416 0.21538 0.0
C207 C 0.18018 0.49342 0.24503 0.0
O208 O 0.16971 0.54486 0.22891 0.0
O209 O 0.18532 0.50597 0.23553 0.0
C210 C 0.83439 0.92535 0.52843 0.0
O211 O 0.82439 0.93369 0.52029 0.0
Cd212 Cd 0.79323 0.92331 0.51329 0.0
O213 O 0.82785 0.91053 0.53461 0.0
Cd214 Cd 0.7973 0.89123 0.53622 0.0
C215 C 0.79124 0.8788 0.48915 0.0
O216 O 0.78235 0.91691 0.54118 0.0
O217 O 0.7651 0.88933 0.53333 0.0
O218 O 0.80666 0.89095 0.56871 0.0
C219 C 0.76675 0.90684 0.53851 0.0
O220 O 0.78886 0.89528 0.48951 0.0
C221 C 0.80093 0.87342 0.56788 0.0
O222 O 0.7955 0.87344 0.50416 0.0
O223 O 0.79407 0.8638 0.55204 0.0
C224 C 0.94519 0.05071 0.2908 0.0
O225 O 0.95115 0.04043 0.27866 0.0
Cd226 Cd 0.94159 0.03341 0.24584 0.0
O227 O 0.9335 0.05926 0.28526 0.0
Cd228 Cd 0.91625 0.05963 0.25078 0.0
C229 C 0.89936 0.00918 0.24639 0.0
O230 O 0.94274 0.06067 0.23119 0.0
O231 O 0.91777 0.0523 0.21479 0.0
O232 O 0.91432 0.09519 0.25861 0.0
C233 C 0.9344 0.05656 0.21491 0.0
O234 O 0.91454 0.00841 0.24192 0.0
C235 C 0.89782 0.09318 0.25432 0.0
O236 O 0.89604 0.02546 0.25119 0.0
O237 O 0.88959 0.07605 0.24871 0.0
C238 C 0.29535 0.60392 0.53655 0.0
O239 O 0.28183 0.59698 0.5437 0.0
Cd240 Cd 0.25524 0.60774 0.54113 0.0
O241 O 0.2953 0.61725 0.52767 0.0
Cd242 Cd 0.27442 0.63563 0.51922 0.0
C243 C 0.26934 0.65347 0.56265 0.0
O244 O 0.24828 0.60991 0.50925 0.0
O245 O 0.24423 0.63805 0.51264 0.0
O246 O 0.284 0.63571 0.48881 0.0
C247 C 0.23816 0.62063 0.50654 0.0
O248 O 0.25963 0.63734 0.56284 0.0
C249 C 0.28709 0.65342 0.49022 0.0
O250 O 0.27752 0.6564 0.54886 0.0
O251 O 0.28563 0.66285 0.50572 0.0
C252 C 0.44518 0.55149 0.7905 0.0
O253 O 0.45156 0.54163 0.7784 0.0
Cd254 Cd 0.4418 0.53416 0.74563 0.0
O255 O 0.43309 0.55952 0.78489 0.0
Cd256 Cd 0.4158 0.55989 0.7504 0.0
C257 C 0.39951 0.50944 0.7462 0.0
O258 O 0.4422 0.56103 0.73061 0.0
O259 O 0.41708 0.55245 0.71447 0.0
O260 O 0.41393 0.59546 0.75838 0.0
C261 C 0.43369 0.55672 0.71439 0.0
O262 O 0.41493 0.50905 0.74226 0.0
C263 C 0.39744 0.59351 0.75403 0.0
O264 O 0.39573 0.52555 0.75055 0.0
O265 O 0.38918 0.5764 0.74832 0.0
C266 C 0.62505 0.04084 0.7626 0.0
O267 O 0.61769 0.04606 0.749 0.0
Cd268 Cd 0.62441 0.04013 0.71809 0.0
O269 O 0.63674 0.03144 0.76037 0.0
Cd270 Cd 0.65224 0.01929 0.73496 0.0
C271 C 0.6673 0.06436 0.72937 0.0
O272 O 0.62619 0.0079 0.71311 0.0
O273 O 0.65012 0.00812 0.70097 0.0
O274 O 0.65481 0.99274 0.75007 0.0
C275 C 0.63341 1.00372 0.69888 0.0
O276 O 0.65229 0.06343 0.72067 0.0
C277 C 0.67129 0.99521 0.74942 0.0
O278 O 0.67022 0.0506 0.73637 0.0
O279 O 0.67863 0.00868 0.74197 0.0
C280 C 0.79725 0.64427 0.99662 0.0
O281 O 0.78513 0.63464 0.00387 0.0
Cd282 Cd 0.75643 0.63983 0.00671 0.0
O283 O 0.79464 0.65823 0.98957 0.0
Cd284 Cd 0.76962 0.67413 0.9851 0.0
C285 C 0.76811 0.68531 0.03164 0.0
O286 O 0.74561 0.6459 0.97793 0.0
O287 O 0.73745 0.67178 0.98385 0.0
O288 O 0.77511 0.6753 0.9531 0.0
C289 C 0.73305 0.65402 0.97912 0.0
O290 O 0.76076 0.66795 0.03018 0.0
C291 C 0.77726 0.69292 0.9543 0.0
O292 O 0.77414 0.69173 0.01779 0.0
O293 O 0.77636 0.70222 0.97011 0.0
C294 C 0.96994 0.55555 0.80747 0.0
O295 O 0.97627 0.54736 0.79411 0.0
Cd296 Cd 0.96198 0.53506 0.76322 0.0
O297 O 0.95451 0.55838 0.80521 0.0
Cd298 Cd 0.93013 0.55161 0.77953 0.0
C299 C 0.92624 0.50468 0.77423 0.0
O300 O 0.94662 0.55694 0.75395 0.0
O301 O 0.91952 0.54187 0.74651 0.0
O302 O 0.92259 0.58172 0.78727 0.0
C303 C 0.93404 0.54893 0.74124 0.0
O304 O 0.94 0.5071 0.76605 0.0
C305 C 0.9066 0.57468 0.78883 0.0
O306 O 0.92066 0.51863 0.7817 0.0
O307 O 0.90188 0.55691 0.78701 0.0
C308 C 0.83167 0.45863 0.51729 0.0
O309 O 0.82481 0.46672 0.50567 0.0
Cd310 Cd 0.79466 0.45317 0.49186 0.0
O311 O 0.82306 0.44336 0.52104 0.0
Cd312 Cd 0.79526 0.4199 0.51489 0.0
C313 C 0.79793 0.4106 0.4686 0.0
O314 O 0.77978 0.44446 0.51783 0.0
O315 O 0.76333 0.41626 0.51365 0.0
O316 O 0.80705 0.41682 0.54528 0.0
C317 C 0.76448 0.43385 0.51619 0.0
O318 O 0.7958 0.42689 0.46735 0.0
C319 C 0.80356 0.39899 0.5418 0.0
O320 O 0.79861 0.40538 0.48416 0.0
O321 O 0.79491 0.39081 0.52617 0.0
C322 C 0.63454 0.51878 0.30633 0.0
O323 O 0.62656 0.52687 0.29559 0.0
Cd324 Cd 0.63445 0.53283 0.26558 0.0
O325 O 0.64755 0.51213 0.30057 0.0
Cd326 Cd 0.66325 0.50924 0.26781 0.0
C327 C 0.67723 0.55976 0.27033 0.0
O328 O 0.63535 0.50506 0.24395 0.0
O329 O 0.65978 0.51142 0.23306 0.0
O330 O 0.66581 0.47411 0.26652 0.0
C331 C 0.64309 0.50784 0.2298 0.0
O332 O 0.66071 0.55857 0.26774 0.0
C333 C 0.68246 0.47639 0.26735 0.0
O334 O 0.68263 0.54478 0.27199 0.0
O335 O 0.69055 0.49353 0.26851 0.0
Ho336 Ho 0.02015 0.02432 1.00188 0.0
Ho337 Ho 0.05588 0.04744 0.02317 0.0
C338 C 0.03031 0.06941 0.00464 0.0
C339 C 0.9871 0.00834 0.99312 0.0
C340 C 0.97117 0.01301 0.99932 0.0
C341 C 0.97247 0.02929 0.0125 0.0
C342 C 0.95728 0.03446 0.01761 0.0
C343 C 0.94059 0.02353 0.00944 0.0
C344 C 0.93936 0.00707 0.99642 0.0
C345 C 0.95459 1.00182 0.99142 0.0
C346 C 0.04519 0.0243 0.97707 0.0
C347 C 0.04516 1.00254 0.02167 0.0
C348 C 0.08924 0.06195 0.03147 0.0
C349 C 0.10416 0.05377 0.02748 0.0
C350 C 0.10116 0.03642 0.01543 0.0
C351 C 0.11467 0.02711 0.01346 0.0
C352 C 0.13137 0.03489 0.02368 0.0
C353 C 0.13449 0.0526 0.03532 0.0
C354 C 0.12092 0.06196 0.03723 0.0
C355 C 0.03083 0.04762 0.04794 0.0
O356 O 0.01746 0.05411 0.00302 0.0
O357 O 0.04677 0.06981 0.01063 0.0
O358 O 0.99585 0.02028 0.98403 0.0
O359 O 0.9973 1.00344 0.00548 0.0
O360 O 0.02869 0.01574 0.97369 0.0
O361 O 0.04754 0.03208 0.9942 0.0
O362 O 0.05813 0.01771 0.02343 0.0
O363 O 0.02889 1.00225 0.01515 0.0
O364 O 0.07945 0.05378 0.04266 0.0
O365 O 0.07991 0.06495 0.01714 0.0
O366 O 0.04727 0.0565 0.05122 0.0
O367 O 0.02841 0.03969 0.03084 0.0
H368 H 0.98524 0.03821 0.01849 0.0
H369 H 0.95862 0.04735 0.02747 0.0
H370 H 0.92664 0.99834 0.99002 0.0
H371 H 0.95344 0.98925 0.98117 0.0
H372 H 0.0882 0.02977 0.00801 0.0
H373 H 0.11193 0.01363 0.00419 0.0
H374 H 0.14718 0.05885 0.0435 0.0
H375 H 0.12334 0.07522 0.0468 0.0
Ho376 Ho 0.28967 0.77873 0.24059 0.0
Ho377 Ho 0.27922 0.79055 0.28046 0.0
C378 C 0.31003 0.81837 0.26658 0.0
C379 C 0.29116 0.77429 0.20556 0.0
C380 C 0.30475 0.77897 0.19347 0.0
C381 C 0.31684 0.79653 0.19726 0.0
C382 C 0.32784 0.8019 0.18423 0.0
C383 C 0.32708 0.78973 0.16728 0.0
C384 C 0.31611 0.77148 0.16437 0.0
C385 C 0.30493 0.76621 0.17733 0.0
C386 C 0.31243 0.77128 0.26698 0.0
C387 C 0.26384 0.74839 0.25749 0.0
C388 C 0.27016 0.79293 0.31327 0.0
C389 C 0.26646 0.77906 0.32524 0.0
C390 C 0.27301 0.76286 0.32219 0.0
C391 C 0.26928 0.74944 0.33336 0.0
C392 C 0.25886 0.75194 0.3477 0.0
C393 C 0.25198 0.76801 0.35042 0.0
C394 C 0.25576 0.78149 0.33922 0.0
C395 C 0.26291 0.80192 0.25196 0.0
O396 O 0.30457 0.80902 0.2494 0.0
O397 O 0.30369 0.81265 0.28127 0.0
O398 O 0.29284 0.7613 0.21523 0.0
O399 O 0.28639 0.78856 0.21495 0.0
O400 O 0.3136 0.76805 0.24938 0.0
O401 O 0.29932 0.77816 0.269 0.0
O402 O 0.26913 0.75902 0.2741 0.0
O403 O 0.2679 0.7544 0.24217 0.0
O404 O 0.25883 0.7897 0.29835 0.0
O405 O 0.28658 0.79768 0.31004 0.0
O406 O 0.26765 0.81201 0.26843 0.0
O407 O 0.26657 0.78622 0.25176 0.0
H408 H 0.31714 0.8065 0.20982 0.0
H409 H 0.33595 0.81612 0.18694 0.0
H410 H 0.31546 0.76164 0.15163 0.0
H411 H 0.29588 0.75246 0.17436 0.0
H412 H 0.28117 0.7607 0.31129 0.0
H413 H 0.27504 0.7374 0.33111 0.0
H414 H 0.24379 0.77021 0.36128 0.0
H415 H 0.2504 0.79382 0.34151 0.0
Ho416 Ho 0.55876 0.03836 0.51188 0.0
Ho417 Ho 0.51772 0.03167 0.5086 0.0
C418 C 0.53344 0.99659 0.49523 0.0
C419 C 0.59159 0.03771 0.5175 0.0
C420 C 0.60236 0.02466 0.52213 0.0
C421 C 0.61606 0.03086 0.53686 0.0
C422 C 0.62761 0.01957 0.5404 0.0
C423 C 0.62579 1.00185 0.52918 0.0
C424 C 0.61157 0.99533 0.5149 0.0
C425 C 0.59996 0.0066 0.51142 0.0
C426 C 0.54325 0.04995 0.48345 0.0
C427 C 0.54301 0.07315 0.52664 0.0
C428 C 0.48509 0.03257 0.5012 0.0
C429 C 0.47367 0.04592 0.49991 0.0
C430 C 0.47281 0.05521 0.48477 0.0
C431 C 0.46043 0.06605 0.48287 0.0
C432 C 0.4486 0.06773 0.496 0.0
C433 C 0.44994 0.05894 0.51142 0.0
C434 C 0.46224 0.04812 0.51329 0.0
C435 C 0.53279 0.01976 0.53712 0.0
O436 O 0.54889 0.00666 0.50416 0.0
O437 O 0.51972 1.00401 0.49283 0.0
O438 O 0.58238 0.03356 0.50107 0.0
O439 O 0.58313 0.04442 0.53053 0.0
O440 O 0.55873 0.05847 0.49206 0.0
O441 O 0.53744 0.03514 0.48942 0.0
O442 O 0.52743 0.06316 0.51803 0.0
O443 O 0.55686 0.06579 0.52828 0.0
O444 O 0.49238 0.03223 0.51776 0.0
O445 O 0.49557 0.03063 0.4885 0.0
O446 O 0.51685 0.01212 0.52917 0.0
O447 O 0.53905 0.03438 0.53096 0.0
H448 H 0.61811 0.04467 0.54538 0.0
H449 H 0.63817 0.02489 0.55175 0.0
H450 H 0.60981 0.98183 0.5059 0.0
H451 H 0.58945 1.00139 0.50001 0.0
H452 H 0.48135 0.0537 0.47412 0.0
H453 H 0.45968 0.07252 0.47077 0.0
H454 H 0.44125 0.06019 0.52196 0.0
H455 H 0.4625 0.04106 0.52504 0.0
Ho456 Ho 0.26896 0.28793 0.75599 0.0
Ho457 Ho 0.30751 0.28425 0.76047 0.0
C458 C 0.29002 0.2932 0.7973 0.0
C459 C 0.23598 0.28718 0.75776 0.0
C460 C 0.2223 0.28354 0.77023 0.0
C461 C 0.21659 0.26582 0.7751 0.0
C462 C 0.20263 0.2625 0.78573 0.0
C463 C 0.19408 0.27681 0.79167 0.0
C464 C 0.20018 0.29463 0.78716 0.0
C465 C 0.21406 0.29791 0.77652 0.0
C466 C 0.29365 0.31892 0.75129 0.0
C467 C 0.28493 0.27354 0.71956 0.0
C468 C 0.34131 0.29364 0.76024 0.0
C469 C 0.35507 0.29078 0.74819 0.0
C470 C 0.3606 0.30374 0.73666 0.0
C471 C 0.37472 0.30249 0.72661 0.0
C472 C 0.38381 0.28831 0.72787 0.0
C473 C 0.37809 0.2751 0.73913 0.0
C474 C 0.3639 0.27635 0.74922 0.0
C475 C 0.28545 0.24936 0.76018 0.0
O476 O 0.27462 0.28923 0.78677 0.0
O477 O 0.30501 0.29381 0.79023 0.0
O478 O 0.24865 0.30236 0.76319 0.0
O479 O 0.24156 0.2729 0.74971 0.0
O480 O 0.27828 0.31237 0.74157 0.0
O481 O 0.29504 0.3086 0.76331 0.0
O482 O 0.30065 0.27897 0.72951 0.0
O483 O 0.27025 0.27369 0.72709 0.0
O484 O 0.33352 0.27969 0.76777 0.0
O485 O 0.33043 0.30324 0.75463 0.0
O486 O 0.30255 0.25295 0.76161 0.0
O487 O 0.2813 0.26472 0.75871 0.0
H488 H 0.22265 0.25441 0.77042 0.0
H489 H 0.19821 0.24857 0.78883 0.0
H490 H 0.19417 0.30609 0.79178 0.0
H491 H 0.21818 0.31168 0.77295 0.0
H492 H 0.35435 0.31526 0.73577 0.0
H493 H 0.37893 0.31312 0.7184 0.0
H494 H 0.3847 0.2639 0.74031 0.0
H495 H 0.3601 0.26626 0.7581 0.0
Ho496 Ho 0.03913 0.05175 0.52168 0.0
Ho497 Ho 0.03842 0.01166 0.50618 0.0
C498 C 0.023 0.03756 0.47844 0.0
C499 C 0.0481 0.08727 0.53544 0.0
C500 C 0.04942 0.10481 0.52804 0.0
C501 C 0.06398 0.11197 0.51926 0.0
C502 C 0.06482 0.12822 0.51179 0.0
C503 C 0.05116 0.13766 0.51298 0.0
C504 C 0.03679 0.13074 0.52207 0.0
C505 C 0.03598 0.11453 0.52963 0.0
C506 C 0.00914 0.02684 0.52403 0.0
C507 C 0.05509 0.02636 0.5492 0.0
C508 C 0.02764 0.97613 0.49279 0.0
C509 C 0.02194 0.95958 0.50123 0.0
C510 C 0.02371 0.96136 0.52055 0.0
C511 C 0.01741 0.94586 0.52864 0.0
C512 C 0.00922 0.92829 0.51755 0.0
C513 C 0.00762 0.92655 0.49816 0.0
C514 C 0.0139 0.94212 0.49006 0.0
C515 C 0.06827 0.03654 0.50312 0.0
O516 O 0.0294 0.05254 0.49178 0.0
O517 O 0.02438 0.02058 0.48131 0.0
O518 O 0.03221 0.07685 0.53493 0.0
O519 O 0.05944 0.0773 0.53085 0.0
O520 O 0.00969 0.04355 0.52066 0.0
O521 O 0.02451 0.02457 0.52704 0.0
O522 O 0.04769 0.01125 0.53635 0.0
O523 O 0.05448 0.04336 0.54589 0.0
O524 O 0.04432 0.98482 0.49679 0.0
O525 O 0.01724 0.98772 0.49388 0.0
O526 O 0.06783 0.0196 0.50578 0.0
O527 O 0.05285 0.03874 0.50066 0.0
H528 H 0.07465 0.10493 0.51792 0.0
H529 H 0.07598 0.13313 0.5047 0.0
H530 H 0.02618 0.13787 0.52337 0.0
H531 H 0.02473 0.1095 0.53655 0.0
H532 H 0.02984 0.97477 0.52937 0.0
H533 H 0.0191 0.94761 0.5436 0.0
H534 H 1.00124 0.91324 0.48926 0.0
H535 H 0.01231 0.94058 0.47511 0.0
Ho536 Ho 0.30883 0.80066 0.7639 0.0
Ho537 Ho 0.2746 0.77329 0.76475 0.0
C538 C 0.30875 0.75522 0.76468 0.0
C539 C 0.3411 0.81944 0.77129 0.0
C540 C 0.35767 0.81324 0.77219 0.0
C541 C 0.36006 0.79948 0.78257 0.0
C542 C 0.37544 0.79303 0.78264 0.0
C543 C 0.38871 0.80008 0.77224 0.0
C544 C 0.38622 0.81372 0.76171 0.0
C545 C 0.37084 0.82027 0.76174 0.0
C546 C 0.29097 0.78441 0.73047 0.0
C547 C 0.2747 0.81856 0.76347 0.0
C548 C 0.24232 0.75442 0.75695 0.0
C549 C 0.2262 0.76054 0.75219 0.0
C550 C 0.22654 0.77454 0.74138 0.0
C551 C 0.21151 0.78101 0.73752 0.0
C552 C 0.19581 0.77358 0.74433 0.0
C553 C 0.19549 0.75963 0.75524 0.0
C554 C 0.21061 0.75316 0.75914 0.0
C555 C 0.29254 0.7898 0.79816 0.0
O556 O 0.31791 0.77312 0.76666 0.0
O557 O 0.29121 0.7514 0.76262 0.0
O558 O 0.33222 0.81622 0.75479 0.0
O559 O 0.33106 0.81548 0.7841 0.0
O560 O 0.29999 0.80177 0.73433 0.0
O561 O 0.29277 0.77657 0.74418 0.0
O562 O 0.26562 0.80058 0.76076 0.0
O563 O 0.29222 0.8225 0.7666 0.0
O564 O 0.24998 0.76073 0.77395 0.0
O565 O 0.2535 0.75545 0.74477 0.0
O566 O 0.28372 0.77233 0.79433 0.0
O567 O 0.29058 0.79751 0.78439 0.0
H568 H 0.35004 0.79363 0.79063 0.0
H569 H 0.37705 0.78278 0.79117 0.0
H570 H 0.39612 0.81928 0.75339 0.0
H571 H 0.36915 0.83071 0.75346 0.0
H572 H 0.23846 0.7806 0.73597 0.0
H573 H 0.21222 0.79194 0.7293 0.0
H574 H 0.18351 0.7535 0.7605 0.0
H575 H 0.21015 0.74245 0.7676 0.0
Ho576 Ho 0.55004 0.04414 0.02954 0.0
Ho577 Ho 0.52613 0.01973 0.99507 0.0
C578 C 0.51348 0.01416 0.03281 0.0
C579 C 0.56022 0.06381 0.06214 0.0
C580 C 0.55039 0.06209 0.07824 0.0
C581 C 0.53688 0.0716 0.08089 0.0
C582 C 0.52397 0.0657 0.09196 0.0
C583 C 0.52439 0.05021 0.10055 0.0
C584 C 0.53878 0.04192 0.09939 0.0
C585 C 0.55176 0.04792 0.08847 0.0
C586 C 0.55935 0.01268 0.01523 0.0
C587 C 0.56213 0.05067 0.99121 0.0
C588 C 0.51535 1.00024 0.96257 0.0
C589 C 0.52053 0.00642 0.94551 0.0
C590 C 0.52662 0.99445 0.93226 0.0
C591 C 0.53577 1.0017 0.91857 0.0
C592 C 0.53901 0.02103 0.91807 0.0
C593 C 0.53214 0.03277 0.93082 0.0
C594 C 0.52302 0.02555 0.94442 0.0
C595 C 0.5171 0.05156 0.0091 0.0
O596 O 0.52456 0.03064 0.0395 0.0
O597 O 0.51399 1.00477 0.01615 0.0
O598 O 0.56633 0.04926 0.05588 0.0
O599 O 0.55278 0.07021 0.04875 0.0
O600 O 0.57068 0.02838 0.02229 0.0
O601 O 0.54389 0.01429 0.0169 0.0
O602 O 0.55008 0.03505 0.98388 0.0
O603 O 0.56347 0.05871 0.00879 0.0
O604 O 0.50562 0.00977 0.97175 0.0
O605 O 0.52838 0.99748 0.97324 0.0
O606 O 0.50564 0.03607 1.00178 0.0
O607 O 0.53241 0.04952 0.0076 0.0
H608 H 0.5355 0.08267 0.07332 0.0
H609 H 0.51305 0.07241 0.09274 0.0
H610 H 0.53962 0.03029 0.10633 0.0
H611 H 0.56213 0.04047 0.08698 0.0
H612 H 0.52515 0.97976 0.9331 0.0
H613 H 0.54073 0.99228 0.90872 0.0
H614 H 0.53462 0.04774 0.93093 0.0
H615 H 0.5189 0.03523 0.95479 0.0
Ho616 Ho 0.30186 0.30719 0.26646 0.0
Ho617 Ho 0.27528 0.26655 0.25361 0.0
C618 C 0.26061 0.30065 0.273 0.0
C619 C 0.3177 0.34143 0.26639 0.0
C620 C 0.31486 0.35916 0.27603 0.0
C621 C 0.30227 0.35877 0.28841 0.0
C622 C 0.29624 0.37481 0.29426 0.0
C623 C 0.30288 0.39159 0.28796 0.0
C624 C 0.31674 0.39231 0.27694 0.0
C625 C 0.32255 0.37613 0.27085 0.0
C626 C 0.29693 0.28877 0.29548 0.0
C627 C 0.31774 0.27196 0.25393 0.0
C628 C 0.26088 0.23111 0.24801 0.0
C629 C 0.26856 0.21567 0.25206 0.0
C630 C 0.28376 0.21964 0.26491 0.0
C631 C 0.29254 0.20567 0.26732 0.0
C632 C 0.28636 0.18745 0.25684 0.0
C633 C 0.27078 0.18329 0.24439 0.0
C634 C 0.26197 0.19738 0.24195 0.0
C635 C 0.27808 0.29 0.22893 0.0
O636 O 0.27526 0.31262 0.27089 0.0
O637 O 0.25808 0.28214 0.26878 0.0
O638 O 0.32387 0.331 0.27684 0.0
O639 O 0.30447 0.3318 0.25402 0.0
O640 O 0.30703 0.3055 0.297 0.0
O641 O 0.29048 0.28347 0.27878 0.0
O642 O 0.3023 0.26071 0.25485 0.0
O643 O 0.32038 0.29044 0.25598 0.0
O644 O 0.26777 0.23958 0.23517 0.0
O645 O 0.25894 0.24293 0.26249 0.0
O646 O 0.26357 0.27809 0.23027 0.0
O647 O 0.29037 0.28805 0.24008 0.0
H648 H 0.29625 0.34573 0.29256 0.0
H649 H 0.28547 0.37356 0.30257 0.0
H650 H 0.32244 0.40511 0.27218 0.0
H651 H 0.33233 0.37664 0.26131 0.0
H652 H 0.28917 0.23369 0.27275 0.0
H653 H 0.30435 0.20922 0.27721 0.0
H654 H 0.2658 0.16936 0.23607 0.0
H655 H 0.25036 0.19414 0.23182 0.0
Ho656 Ho 0.53784 0.55062 0.02226 0.0
Ho657 Ho 0.53833 0.51149 0.0043 0.0
C658 C 0.52249 0.53587 0.97745 0.0
C659 C 0.54102 0.58643 0.03101 0.0
C660 C 0.54085 0.60142 0.02031 0.0
C661 C 0.54465 0.59912 1.00196 0.0
C662 C 0.54463 0.61348 0.99189 0.0
C663 C 0.54077 0.63039 0.99998 0.0
C664 C 0.53675 0.63251 0.01831 0.0
C665 C 0.53678 0.6181 0.02839 0.0
C666 C 0.51161 0.52329 0.02914 0.0
C667 C 0.55444 0.5268 0.04884 0.0
C668 C 0.53324 0.47541 0.99572 0.0
C669 C 0.5281 0.45996 0.00577 0.0
C670 C 0.52046 0.46283 0.02218 0.0
C671 C 0.51485 0.44788 0.03126 0.0
C672 C 0.5169 0.42983 0.02412 0.0
C673 C 0.52473 0.42711 0.00775 0.0
C674 C 0.53026 0.44207 0.99863 0.0
C675 C 0.56501 0.53847 0.99765 0.0
O676 O 0.52825 0.55028 0.99159 0.0
O677 O 0.52387 0.51876 0.97942 0.0
O678 O 0.52605 0.57408 0.02976 0.0
O679 O 0.55444 0.5787 0.02981 0.0
O680 O 0.51941 0.53817 0.04125 0.0
O681 O 0.51742 0.52423 0.01385 0.0
O682 O 0.54732 0.51208 0.03529 0.0
O683 O 0.55397 0.54401 0.04632 0.0
O684 O 0.54883 0.48664 1.0013 0.0
O685 O 0.52109 0.48448 0.99265 0.0
O686 O 0.5577 0.5232 0.98582 0.0
O687 O 0.55883 0.53779 0.01278 0.0
H688 H 0.54784 0.58631 0.99549 0.0
H689 H 0.54804 0.61151 0.9779 0.0
H690 H 0.53353 0.64527 0.02484 0.0
H691 H 0.5337 0.62001 0.04251 0.0
H692 H 0.51871 0.47661 0.02789 0.0
H693 H 0.50908 0.45047 0.04396 0.0
H694 H 0.52631 0.41333 1.00182 0.0
H695 H 0.53605 0.43963 0.98592 0.0
Ho696 Ho 0.80807 0.29955 0.26302 0.0
Ho697 Ho 0.77429 0.27228 0.26595 0.0
C698 C 0.80851 0.25435 0.26475 0.0
C699 C 0.84012 0.31934 0.26925 0.0
C700 C 0.85724 0.3144 0.27017 0.0
C701 C 0.85953 0.29872 0.27762 0.0
C702 C 0.87568 0.29381 0.27805 0.0
C703 C 0.88988 0.30455 0.27116 0.0
C704 C 0.88752 0.32018 0.26357 0.0
C705 C 0.87128 0.32504 0.26306 0.0
C706 C 0.78908 0.28199 0.23043 0.0
C707 C 0.77368 0.31707 0.26329 0.0
C708 C 0.74204 0.25321 0.26027 0.0
C709 C 0.72575 0.259 0.25547 0.0
C710 C 0.72552 0.27185 0.24345 0.0
C711 C 0.71034 0.27801 0.23947 0.0
C712 C 0.6951 0.27147 0.24745 0.0
C713 C 0.69538 0.25875 0.25963 0.0
C714 C 0.71063 0.25254 0.2636 0.0
C715 C 0.79365 0.28953 0.29841 0.0
O716 O 0.81753 0.2722 0.26588 0.0
O717 O 0.79099 0.2505 0.26357 0.0
O718 O 0.83087 0.31507 0.25287 0.0
O719 O 0.83063 0.31517 0.28243 0.0
O720 O 0.79813 0.29934 0.23334 0.0
O721 O 0.79151 0.27489 0.2445 0.0
O722 O 0.76476 0.29911 0.26134 0.0
O723 O 0.79121 0.32116 0.26569 0.0
O724 O 0.7503 0.2607 0.27684 0.0
O725 O 0.75268 0.25321 0.24755 0.0
O726 O 0.78498 0.27202 0.29519 0.0
O727 O 0.79088 0.29692 0.28458 0.0
H728 H 0.84888 0.29027 0.28318 0.0
H729 H 0.87703 0.28156 0.28377 0.0
H730 H 0.8983 0.32886 0.25838 0.0
H731 H 0.8697 0.33715 0.2572 0.0
H732 H 0.7371 0.27724 0.23716 0.0
H733 H 0.71056 0.288 0.23023 0.0
H734 H 0.68373 0.25337 0.26583 0.0
H735 H 0.71064 0.24276 0.27304 0.0
Ho736 Ho 0.04634 0.53237 0.52833 0.0
Ho737 Ho 0.02253 0.51999 0.49111 0.0
C738 C 0.00767 0.50299 0.52431 0.0
C739 C 0.05844 0.54163 0.56289 0.0
C740 C 0.05179 0.53243 0.57789 0.0
C741 C 0.0512 0.54323 0.59511 0.0
C742 C 0.0412 0.53522 0.60783 0.0
C743 C 0.03156 0.51635 0.60337 0.0
C744 C 0.03318 0.50526 0.58662 0.0
C745 C 0.04322 0.51323 0.57398 0.0
C746 C 0.05429 0.50512 0.50445 0.0
C747 C 0.06046 0.54967 0.49531 0.0
C748 C 0.01173 0.50974 0.45635 0.0
C749 C 0.02217 0.512 0.44091 0.0
C750 C 0.03877 0.50771 0.44151 0.0
C751 C 0.05017 0.51322 0.42891 0.0
C752 C 0.0453 0.52328 0.41557 0.0
C753 C 0.02843 0.52694 0.41452 0.0
C754 C 0.01695 0.52132 0.4271 0.0
C755 C 0.0154 0.54806 0.51482 0.0
O756 O 0.02075 0.51553 0.53511 0.0
O757 O 0.00659 0.50016 0.50608 0.0
O758 O 0.06555 0.53161 0.55085 0.0
O759 O 0.0475 0.54993 0.55504 0.0
O760 O 0.066 0.5182 0.51555 0.0
O761 O 0.03898 0.5065 0.50729 0.0
O762 O 0.04902 0.53519 0.48472 0.0
O763 O 0.05998 0.55386 0.51333 0.0
O764 O 0.01011 0.52555 0.46598 0.0
O765 O 0.01535 0.49803 0.46679 0.0
O766 O 0.00326 0.53523 0.50386 0.0
O767 O 0.03041 0.54593 0.5118 0.0
H768 H 0.05753 0.5581 0.59823 0.0
H769 H 0.03999 0.54417 0.62055 0.0
H770 H 0.02595 0.49068 0.58289 0.0
H771 H 0.04338 0.50464 0.56067 0.0
H772 H 0.04328 0.50077 0.45216 0.0
H773 H 0.06294 0.50985 0.42983 0.0
H774 H 0.02435 0.53477 0.40444 0.0
H775 H 0.00433 0.52503 0.4266 0.0
Ho776 Ho 0.76856 0.78881 0.25877 0.0
Ho777 Ho 0.80653 0.7842 0.26366 0.0
C778 C 0.78888 0.79378 0.30022 0.0
C779 C 0.73574 0.78923 0.26012 0.0
C780 C 0.72199 0.78583 0.27245 0.0
C781 C 0.72003 0.77093 0.28229 0.0
C782 C 0.70637 0.7678 0.29334 0.0
C783 C 0.69455 0.7796 0.29485 0.0
C784 C 0.69677 0.79461 0.28514 0.0
C785 C 0.71031 0.79766 0.27406 0.0
C786 C 0.7939 0.81929 0.25413 0.0
C787 C 0.78434 0.7736 0.22256 0.0
C788 C 0.84042 0.79275 0.26428 0.0
C789 C 0.85444 0.78813 0.25365 0.0
C790 C 0.85135 0.78199 0.23436 0.0
C791 C 0.86544 0.78053 0.22421 0.0
C792 C 0.88284 0.78515 0.23317 0.0
C793 C 0.88571 0.79054 0.25259 0.0
C794 C 0.87165 0.79203 0.2627 0.0
C795 C 0.78409 0.74951 0.2631 0.0
O796 O 0.77359 0.78982 0.28955 0.0
O797 O 0.8039 0.79436 0.29327 0.0
O798 O 0.74874 0.80403 0.26588 0.0
O799 O 0.74096 0.77466 0.25212 0.0
O800 O 0.7787 0.81285 0.24408 0.0
O801 O 0.79483 0.8091 0.26634 0.0
O802 O 0.8 0.77854 0.23263 0.0
O803 O 0.7697 0.7744 0.22995 0.0
O804 O 0.83224 0.78019 0.27317 0.0
O805 O 0.82982 0.80128 0.25624 0.0
O806 O 0.80118 0.75293 0.26472 0.0
O807 O 0.78003 0.76492 0.2616 0.0
H808 H 0.72897 0.76167 0.28136 0.0
H809 H 0.70513 0.75622 0.30077 0.0
H810 H 0.68777 0.80381 0.28576 0.0
H811 H 0.71155 0.80919 0.26655 0.0
H812 H 0.83815 0.77894 0.2271 0.0
H813 H 0.86273 0.77609 0.20931 0.0
H814 H 0.89892 0.79445 0.25995 0.0
H815 H 0.87432 0.79697 0.27754 0.0
Ho816 Ho 0.79429 0.27964 0.73915 0.0
Ho817 Ho 0.78515 0.29444 0.77901 0.0
C818 C 0.81344 0.32167 0.76112 0.0
C819 C 0.79443 0.27206 0.70394 0.0
C820 C 0.80752 0.27678 0.69137 0.0
C821 C 0.81967 0.29428 0.6951 0.0
C822 C 0.83035 0.29976 0.68186 0.0
C823 C 0.82922 0.28773 0.66474 0.0
C824 C 0.81819 0.2695 0.66185 0.0
C825 C 0.80731 0.26413 0.67503 0.0
C826 C 0.81875 0.27578 0.76602 0.0
C827 C 0.77169 0.25055 0.76002 0.0
C828 C 0.77828 0.29979 0.81265 0.0
C829 C 0.77667 0.28782 0.82659 0.0
C830 C 0.78335 0.27169 0.8243 0.0
C831 C 0.78138 0.25992 0.83727 0.0
C832 C 0.77264 0.26408 0.8527 0.0
C833 C 0.76588 0.28024 0.85487 0.0
C834 C 0.76786 0.29203 0.84185 0.0
C835 C 0.76663 0.30209 0.74966 0.0
O836 O 0.80803 0.31037 0.7448 0.0
O837 O 0.80807 0.3174 0.77676 0.0
O838 O 0.79768 0.26069 0.71494 0.0
O839 O 0.78869 0.28618 0.71224 0.0
O840 O 0.81935 0.27109 0.74841 0.0
O841 O 0.80542 0.28232 0.76774 0.0
O842 O 0.77685 0.26287 0.77571 0.0
O843 O 0.77436 0.25504 0.74374 0.0
O844 O 0.76604 0.29416 0.79836 0.0
O845 O 0.79415 0.30497 0.80803 0.0
O846 O 0.77148 0.31347 0.76545 0.0
O847 O 0.77119 0.28699 0.75058 0.0
H848 H 0.82025 0.30412 0.70782 0.0
H849 H 0.83849 0.31396 0.68458 0.0
H850 H 0.81727 0.25975 0.64898 0.0
H851 H 0.79822 0.25041 0.67213 0.0
H852 H 0.79013 0.26822 0.81251 0.0
H853 H 0.78698 0.24776 0.83538 0.0
H854 H 0.75895 0.28368 0.86655 0.0
H855 H 0.76249 0.30436 0.84364 0.0
Ho856 Ho 0.80454 0.80557 0.77043 0.0
Ho857 Ho 0.77783 0.76855 0.75631 0.0
C858 C 0.7629 0.80285 0.77262 0.0
C859 C 0.81989 0.84076 0.77699 0.0
C860 C 0.81169 0.857 0.77845 0.0
C861 C 0.80427 0.86189 0.76243 0.0
C862 C 0.79352 0.87459 0.7638 0.0
C863 C 0.78999 0.88274 0.7812 0.0
C864 C 0.79821 0.87872 0.79725 0.0
C865 C 0.80904 0.86605 0.79589 0.0
C866 C 0.80091 0.78187 0.79481 0.0
C867 C 0.81979 0.7714 0.75588 0.0
C868 C 0.76196 0.73349 0.75056 0.0
C869 C 0.76916 0.71807 0.75559 0.0
C870 C 0.78255 0.72197 0.77057 0.0
C871 C 0.79141 0.70836 0.77405 0.0
C872 C 0.78719 0.6906 0.76251 0.0
C873 C 0.7733 0.68639 0.74794 0.0
C874 C 0.76437 0.70012 0.74444 0.0
C875 C 0.78172 0.79221 0.73188 0.0
O876 O 0.77852 0.81352 0.77159 0.0
O877 O 0.75955 0.78436 0.76887 0.0
O878 O 0.81745 0.83083 0.79008 0.0
O879 O 0.8178 0.83018 0.76055 0.0
O880 O 0.81573 0.79312 0.79328 0.0
O881 O 0.78865 0.78459 0.78412 0.0
O882 O 0.80419 0.76083 0.75732 0.0
O883 O 0.8229 0.78985 0.75819 0.0
O884 O 0.76954 0.74152 0.73784 0.0
O885 O 0.7598 0.74571 0.76454 0.0
O886 O 0.76685 0.78097 0.73327 0.0
O887 O 0.79383 0.78934 0.74263 0.0
H888 H 0.80603 0.85524 0.74876 0.0
H889 H 0.78729 0.87731 0.75117 0.0
H890 H 0.79595 0.88505 0.81084 0.0
H891 H 0.81467 0.86268 0.80848 0.0
H892 H 0.78664 0.7358 0.77922 0.0
H893 H 0.80189 0.7119 0.78553 0.0
H894 H 0.76987 0.67281 0.73879 0.0
H895 H 0.75422 0.69696 0.73268 0.0
Ho896 Ho 0.51939 0.52348 0.50107 0.0
Ho897 Ho 0.55455 0.5473 0.52243 0.0
C898 C 0.52873 0.56856 0.50329 0.0
C899 C 0.48651 0.50674 0.49253 0.0
C900 C 0.4706 0.51107 0.49913 0.0
C901 C 0.47195 0.52722 0.51248 0.0
C902 C 0.45682 0.53193 0.51829 0.0
C903 C 0.4401 0.52066 0.51065 0.0
C904 C 0.43881 0.50438 0.49737 0.0
C905 C 0.45402 0.49958 0.49168 0.0
C906 C 0.54442 0.52379 0.47633 0.0
C907 C 0.54494 0.50231 0.5211 0.0
C908 C 0.58777 0.56228 0.53105 0.0
C909 C 0.60262 0.55366 0.5282 0.0
C910 C 0.59986 0.53652 0.51586 0.0
C911 C 0.61279 0.52633 0.51536 0.0
C912 C 0.62863 0.53301 0.52739 0.0
C913 C 0.63164 0.55056 0.53926 0.0
C914 C 0.61866 0.56081 0.53969 0.0
C915 C 0.52947 0.54723 0.54709 0.0
O916 O 0.51611 0.55303 0.5015 0.0
O917 O 0.54517 0.56938 0.50971 0.0
O918 O 0.49488 0.51888 0.48338 0.0
O919 O 0.49704 0.50203 0.5047 0.0
O920 O 0.52799 0.51499 0.47295 0.0
O921 O 0.54675 0.53176 0.49341 0.0
O922 O 0.55749 0.51795 0.52365 0.0
O923 O 0.52875 0.50144 0.51386 0.0
O924 O 0.57775 0.55511 0.54258 0.0
O925 O 0.57869 0.56432 0.51608 0.0
O926 O 0.54578 0.55652 0.55028 0.0
O927 O 0.52706 0.53907 0.53005 0.0
H928 H 0.48472 0.53636 0.51813 0.0
H929 H 0.45818 0.54472 0.52832 0.0
H930 H 0.42606 0.49544 0.49135 0.0
H931 H 0.45283 0.48709 0.48131 0.0
H932 H 0.5874 0.53059 0.50716 0.0
H933 H 0.6102 0.51301 0.50586 0.0
H934 H 0.64367 0.55597 0.54879 0.0
H935 H 0.62083 0.57386 0.54955 0.0
Ho936 Ho 0.05905 0.5385 0.01844 0.0
Ho937 Ho 0.01847 0.53178 0.00888 0.0
C938 C 0.03492 0.49633 1.0005 0.0
C939 C 0.09061 0.53779 0.03128 0.0
C940 C 0.10163 0.5242 0.03238 0.0
C941 C 0.11476 0.52758 0.04748 0.0
C942 C 0.12641 0.51585 0.04822 0.0
C943 C 0.12516 0.50049 0.03382 0.0
C944 C 0.11147 0.49666 0.01906 0.0
C945 C 0.09979 0.50842 0.01835 0.0
C946 C 0.0477 0.54531 0.98545 0.0
C947 C 0.04262 0.57416 0.02653 0.0
C948 C 0.98669 0.53199 0.99623 0.0
C949 C 0.97413 0.54416 0.99738 0.0
C950 C 0.97949 0.5637 0.99844 0.0
C951 C 0.96701 0.57465 0.99901 0.0
C952 C 0.949 0.56625 0.99862 0.0
C953 C 0.94381 0.54668 0.99763 0.0
C954 C 0.95624 0.5358 0.99703 0.0
C955 C 0.03017 0.52552 0.04217 0.0
O956 O 0.04967 0.5067 0.01066 0.0
O957 O 0.0217 0.50369 0.99561 0.0
O958 O 0.08648 0.5413 0.01485 0.0
O959 O 0.07748 0.53634 0.04115 0.0
O960 O 0.06218 0.55513 0.99549 0.0
O961 O 0.04063 0.53187 0.99283 0.0
O962 O 0.02753 0.56355 0.01723 0.0
O963 O 0.05623 0.56709 0.03076 0.0
O964 O 0.99054 0.52557 0.01118 0.0
O965 O 1.00039 0.53695 0.98759 0.0
O966 O 0.01577 0.51539 0.03223 0.0
O967 O 0.0369 0.53868 0.03433 0.0
H968 H 0.11626 0.53956 0.05854 0.0
H969 H 0.13655 0.51897 0.05997 0.0
H970 H 0.11017 0.48499 0.00772 0.0
H971 H 0.08963 0.50548 0.00662 0.0
H972 H 0.99326 0.57046 0.99873 0.0
H973 H 0.97147 0.58969 0.99992 0.0
H974 H 0.93005 0.53967 0.99696 0.0
H975 H 0.95182 0.52073 0.9961 0.0
H976 H 1.001 0.22496 0.95902 0.0
H977 H 0.00332 0.19888 0.97495 0.0
H978 H 0.006 0.16434 0.92279 0.0
H979 H 0.00268 0.18991 0.90678 0.0
H980 H 0.9874 0.14363 0.94186 0.0
H981 H 0.04734 0.18405 0.98869 0.0
H982 H 0.02888 0.19429 0.99171 0.0
H983 H 0.03798 0.19326 0.97006 0.0
C984 C 0.0019 0.21172 0.95095 0.0
C985 C 1.00171 0.20956 0.93163 0.0
C986 C 0.00345 0.19686 0.96011 0.0
C987 C 0.00538 0.17969 0.95022 0.0
C988 C 0.00464 0.17739 0.93085 0.0
H989 H 0.053 0.09831 0.99409 0.0
H990 H 0.04603 0.1247 0.98156 0.0
C991 C 0.00272 0.19207 0.92167 0.0
C992 C 0.00832 0.16411 0.95985 0.0
H993 H 0.0348 0.15362 0.99402 0.0
C994 C 0.9978 0.14585 0.95326 0.0
C995 C 0.02205 0.1668 0.97458 0.0
C996 C 0.03482 0.18561 0.98155 0.0
C997 C 1.00069 0.13031 0.96073 0.0
C998 C 0.01405 0.1331 0.97585 0.0
C999 C 0.02444 0.15139 0.98259 0.0
C1000 C 0.01818 0.1172 0.98421 0.0
C1001 C 0.98985 0.11099 0.95171 0.0
C1002 C 0.005 0.10423 0.99033 0.0
C1003 C 0.00892 0.08883 0.99718 0.0
C1004 C 0.02623 0.08636 0.9986 0.0
C1005 C 0.03954 0.09979 0.99326 0.0
C1006 C 0.03555 0.11494 0.98606 0.0
H1007 H 0.98429 0.11069 0.93726 0.0
H1008 H 0.99782 0.10033 0.95147 0.0
H1009 H 0.97865 0.10693 0.9596 0.0
H1010 H 0.99162 0.10591 0.98973 0.0
H1011 H 0.99839 0.07886 1.00136 0.0
H1012 H 0.12057 0.82832 0.1785 0.0
H1013 H 0.14819 0.82653 0.19534 0.0
H1014 H 0.16952 0.8161 0.14377 0.0
H1015 H 0.1419 0.81803 0.12676 0.0
H1016 H 0.16253 0.79505 0.1912 0.0
H1017 H 0.20923 0.85742 0.17643 0.0
H1018 H 0.18563 0.85449 0.17305 0.0
H1019 H 0.19619 0.84174 0.15647 0.0
C1020 C 0.1312 0.8259 0.17072 0.0
C1021 C 0.12901 0.82331 0.15127 0.0
C1022 C 0.14698 0.82484 0.18038 0.0
C1023 C 0.16098 0.82132 0.17085 0.0
C1024 C 0.15901 0.81914 0.15145 0.0
H1025 H 0.24652 0.77889 0.21956 0.0
H1026 H 0.22271 0.78371 0.19843 0.0
C1027 C 0.14318 0.82017 0.14174 0.0
C1028 C 0.17714 0.81879 0.18123 0.0
H1029 H 0.22151 0.83707 0.19244 0.0
C1030 C 0.17543 0.80421 0.19143 0.0
C1031 C 0.19394 0.83083 0.18162 0.0
C1032 C 0.19644 0.84711 0.17145 0.0
C1033 C 0.19002 0.80134 0.20202 0.0
C1034 C 0.20687 0.81323 0.20224 0.0
C1035 C 0.20861 0.82785 0.19208 0.0
C1036 C 0.22262 0.81115 0.2137 0.0
C1037 C 0.18721 0.78591 0.2133 0.0
C1038 C 0.23095 0.82529 0.22885 0.0
C1039 C 0.24457 0.82259 0.24089 0.0
C1040 C 0.25015 0.80573 0.23795 0.0
C1041 C 0.24242 0.79198 0.22224 0.0
C1042 C 0.22877 0.79468 0.21021 0.0
H1043 H 0.17307 0.78074 0.21474 0.0
H1044 H 0.19197 0.77389 0.20635 0.0
H1045 H 0.19474 0.79088 0.22734 0.0
H1046 H 0.22646 0.83813 0.23175 0.0
H1047 H 0.25035 0.83346 0.25284 0.0
H1048 H 0.5366 0.8359 0.40536 0.0
H1049 H 0.53957 0.86762 0.42231 0.0
H1050 H 0.50381 0.84591 0.45918 0.0
H1051 H 0.50101 0.81379 0.44235 0.0
H1052 H 0.51329 0.88562 0.42519 0.0
H1053 H 0.54335 0.8826 0.49529 0.0
H1054 H 0.54272 0.86476 0.4753 0.0
H1055 H 0.52338 0.86496 0.48664 0.0
C1056 C 0.5295 0.83776 0.41721 0.0
C1057 C 0.5185 0.82225 0.42244 0.0
C1058 C 0.53122 0.85597 0.42691 0.0
C1059 C 0.52198 0.85923 0.44208 0.0
C1060 C 0.51132 0.84376 0.44771 0.0
H1061 H 0.50322 0.97045 0.47936 0.0
H1062 H 0.4998 0.937 0.4675 0.0
C1063 C 0.50968 0.8254 0.43805 0.0
C1064 C 0.52277 0.87895 0.45097 0.0
H1065 H 0.53492 0.91071 0.49163 0.0
C1066 C 0.51799 0.89108 0.43974 0.0
C1067 C 0.52906 0.88614 0.46991 0.0
C1068 C 0.53508 0.87402 0.4825 0.0
C1069 C 0.51944 0.91016 0.44681 0.0
C1070 C 0.52545 0.91732 0.46581 0.0
C1071 C 0.53019 0.9052 0.4771 0.0
C1072 C 0.52734 0.93746 0.47402 0.0
C1073 C 0.51503 0.9226 0.43368 0.0
C1074 C 0.54386 0.9488 0.48222 0.0
C1075 C 0.54585 0.96796 0.48918 0.0
C1076 C 0.53134 0.9762 0.4881 0.0
C1077 C 0.51474 0.96469 0.48023 0.0
C1078 C 0.51275 0.94553 0.47338 0.0
H1079 H 0.51527 0.91624 0.41902 0.0
H1080 H 0.50158 0.92461 0.43508 0.0
H1081 H 0.52441 0.93662 0.43688 0.0
H1082 H 0.5553 0.94289 0.48294 0.0
H1083 H 0.55881 0.97633 0.49525 0.0
H1084 H 0.52081 0.31251 0.63751 0.0
H1085 H 0.49172 0.31054 0.64814 0.0
H1086 H 0.51 0.2923 0.69731 0.0
H1087 H 0.5389 0.29435 0.68703 0.0
H1088 H 0.46834 0.27845 0.65695 0.0
H1089 H 0.4892 0.33646 0.71773 0.0
H1090 H 0.50254 0.33346 0.69922 0.0
H1091 H 0.50234 0.31944 0.71698 0.0
C1092 C 0.51867 0.30822 0.65065 0.0
C1093 C 0.53227 0.3037 0.66144 0.0
C1094 C 0.50203 0.30706 0.65667 0.0
C1095 C 0.49879 0.30153 0.67364 0.0
C1096 C 0.5123 0.29694 0.68434 0.0
H1097 H 0.41492 0.28122 0.74115 0.0
H1098 H 0.44195 0.28355 0.72657 0.0
C1099 C 0.52883 0.29805 0.67837 0.0
C1100 C 0.48124 0.30007 0.68017 0.0
H1101 H 0.46104 0.31575 0.71669 0.0
C1102 C 0.46665 0.28674 0.66989 0.0
C1103 C 0.4791 0.31088 0.69709 0.0
C1104 C 0.49408 0.326 0.70833 0.0
C1105 C 0.45013 0.28343 0.67645 0.0
C1106 C 0.44811 0.29395 0.6936 0.0
C1107 C 0.46262 0.30758 0.70363 0.0
C1108 C 0.43117 0.291 0.70159 0.0
C1109 C 0.43516 0.26824 0.66531 0.0
C1110 C 0.41605 0.29424 0.69233 0.0
C1111 C 0.4005 0.29274 0.70056 0.0
C1112 C 0.39978 0.28811 0.71832 0.0
C1113 C 0.41488 0.28452 0.72738 0.0
C1114 C 0.43041 0.28601 0.71912 0.0
H1115 H 0.43994 0.25839 0.6551 0.0
H1116 H 0.42743 0.26007 0.67448 0.0
H1117 H 0.42619 0.27482 0.65757 0.0
H1118 H 0.4164 0.29842 0.67893 0.0
H1119 H 0.3891 0.29544 0.69311 0.0
H1120 H 0.9913 0.77906 0.5843 0.0
H1121 H 0.99081 0.80346 0.56576 0.0
H1122 H 0.97045 0.8354 0.60932 0.0
H1123 H 0.97125 0.81123 0.62817 0.0
H1124 H 0.96511 0.82072 0.55254 0.0
H1125 H 0.01694 0.87088 0.60403 0.0
H1126 H 0.01091 0.84606 0.6044 0.0
H1127 H 0.99727 0.86109 0.61328 0.0
C1128 C 0.98647 0.79114 0.58985 0.0
C1129 C 0.98155 0.79336 0.60781 0.0
C1130 C 0.98618 0.80505 0.57921 0.0
C1131 C 0.98096 0.82139 0.58635 0.0
C1132 C 0.9749 0.82306 0.60375 0.0
H1133 H 0.99124 0.92743 0.54766 0.0
H1134 H 0.98232 0.90101 0.56353 0.0
C1135 C 0.97527 0.8092 0.61445 0.0
C1136 C 0.98309 0.83718 0.57611 0.0
H1137 H 0.00607 0.88246 0.57863 0.0
C1138 C 0.97399 0.83426 0.55824 0.0
C1139 C 0.99482 0.85476 0.58357 0.0
C1140 C 0.00569 0.85841 0.60229 0.0
C1141 C 0.97625 0.84854 0.54765 0.0
C1142 C 0.98804 0.86605 0.5551 0.0
C1143 C 0.99696 0.86902 0.57303 0.0
C1144 C 0.99188 0.88138 0.5444 0.0
C1145 C 0.96594 0.84484 0.52865 0.0
C1146 C 1.00018 0.87905 0.52836 0.0
C1147 C 0.00541 0.89415 0.51934 0.0
C1148 C 0.00255 0.91188 0.52629 0.0
C1149 C 0.99387 0.91403 0.54212 0.0
C1150 C 0.98865 0.89893 0.55113 0.0
H1151 H 0.95431 0.83277 0.52692 0.0
H1152 H 0.96141 0.85744 0.52597 0.0
H1153 H 0.97455 0.84146 0.51807 0.0
H1154 H 0.00314 0.86572 0.52319 0.0
H1155 H 0.01227 0.89212 0.50732 0.0
H1156 H 0.53491 0.77868 0.84394 0.0
H1157 H 0.50522 0.76621 0.8272 0.0
H1158 H 0.51454 0.80962 0.79422 0.0
H1159 H 0.54424 0.82173 0.81037 0.0
H1160 H 0.48015 0.78418 0.82795 0.0
H1161 H 0.48994 0.76596 0.75491 0.0
H1162 H 0.50761 0.76985 0.77356 0.0
H1163 H 0.50251 0.78937 0.76425 0.0
C1164 C 0.53071 0.78536 0.8329 0.0
C1165 C 0.54189 0.80124 0.82852 0.0
C1166 C 0.51379 0.77816 0.82329 0.0
C1167 C 0.50778 0.78673 0.80918 0.0
C1168 C 0.51906 0.80235 0.80459 0.0
H1169 H 0.42196 0.82189 0.77421 0.0
H1170 H 0.44971 0.81294 0.78016 0.0
C1171 C 0.536 0.80943 0.81403 0.0
C1172 C 0.48907 0.78123 0.80102 0.0
H1173 H 0.46282 0.77658 0.76033 0.0
C1174 C 0.47626 0.78185 0.81312 0.0
C1175 C 0.48395 0.77804 0.78167 0.0
C1176 C 0.49676 0.77556 0.7679 0.0
C1177 C 0.45883 0.78117 0.80649 0.0
C1178 C 0.45419 0.7799 0.78733 0.0
C1179 C 0.46657 0.77773 0.77506 0.0
C1180 C 0.43752 0.78388 0.78044 0.0
C1181 C 0.44576 0.78331 0.82007 0.0
C1182 C 0.42161 0.77027 0.77813 0.0
C1183 C 0.40567 0.77528 0.77452 0.0
C1184 C 0.4055 0.79401 0.77336 0.0
C1185 C 0.4216 0.80732 0.77479 0.0
C1186 C 0.43747 0.80226 0.77825 0.0
H1187 H 0.4514 0.78379 0.83453 0.0
H1188 H 0.44134 0.79645 0.81943 0.0
H1189 H 0.43396 0.77139 0.81629 0.0
H1190 H 0.42151 0.75602 0.77981 0.0
H1191 H 0.39348 0.76463 0.77315 0.0
H1192 H 0.48144 0.19891 0.10314 0.0
H1193 H 0.48072 0.17033 0.08112 0.0
H1194 H 0.52014 0.15729 0.11801 0.0
H1195 H 0.52053 0.18554 0.14039 0.0
H1196 H 0.50627 0.16158 0.06314 0.0
H1197 H 0.48485 0.10751 0.10544 0.0
H1198 H 0.48372 0.13165 0.11231 0.0
H1199 H 0.50415 0.12485 0.11668 0.0
C1200 C 0.48987 0.18989 0.10664 0.0
C1201 C 0.50103 0.19447 0.12353 0.0
C1202 C 0.48941 0.17354 0.09405 0.0
C1203 C 0.50014 0.1615 0.09806 0.0
C1204 C 0.51137 0.16608 0.11486 0.0
H1205 H 0.53905 0.08593 0.02109 0.0
H1206 H 0.53354 0.11238 0.04219 0.0
C1207 C 0.51169 0.18233 0.12757 0.0
C1208 C 0.50042 0.14483 0.08414 0.0
H1209 H 0.49751 0.09763 0.07816 0.0
C1210 C 0.50414 0.14756 0.06637 0.0
C1211 C 0.49738 0.1265 0.08826 0.0
C1212 C 0.49211 0.1224 0.10665 0.0
C1213 C 0.50549 0.13258 0.0528 0.0
C1214 C 0.50353 0.11448 0.05729 0.0
C1215 C 0.4992 0.11159 0.07483 0.0
C1216 C 0.50661 0.09855 0.04424 0.0
C1217 C 0.50898 0.13631 0.03377 0.0
C1218 C 0.49342 0.08185 0.03875 0.0
C1219 C 0.49664 0.06661 0.02688 0.0
C1220 C 0.51313 0.06789 0.02051 0.0
C1221 C 0.52623 0.08464 0.02587 0.0
C1222 C 0.52305 0.09979 0.03778 0.0
H1223 H 0.50454 0.14889 0.03086 0.0
H1224 H 0.52336 0.13901 0.03299 0.0
H1225 H 0.50224 0.12408 0.02283 0.0
H1226 H 0.48068 0.08059 0.0437 0.0
H1227 H 0.48638 0.05375 0.02302 0.0
H1228 H 0.13149 0.28381 0.34666 0.0
H1229 H 0.15906 0.29068 0.33335 0.0
H1230 H 0.17821 0.34061 0.3753 0.0
H1231 H 0.15052 0.3336 0.38898 0.0
H1232 H 0.16892 0.32734 0.32096 0.0
H1233 H 0.22048 0.31333 0.37019 0.0
H1234 H 0.19753 0.30169 0.36924 0.0
H1235 H 0.20497 0.32627 0.37879 0.0
C1236 C 0.14175 0.29599 0.35335 0.0
C1237 C 0.13892 0.30824 0.36874 0.0
C1238 C 0.15743 0.29992 0.34572 0.0
C1239 C 0.1705 0.3162 0.3533 0.0
C1240 C 0.16824 0.32792 0.36938 0.0
H1241 H 0.26506 0.33437 0.2963 0.0
H1242 H 0.24398 0.344 0.31619 0.0
C1243 C 0.1525 0.32388 0.37718 0.0
C1244 C 0.18553 0.32146 0.34301 0.0
H1245 H 0.22793 0.31811 0.34081 0.0
C1246 C 0.18198 0.32579 0.32545 0.0
C1247 C 0.2025 0.31959 0.34906 0.0
C1248 C 0.20676 0.31494 0.36783 0.0
C1249 C 0.19463 0.32686 0.31317 0.0
C1250 C 0.21111 0.32345 0.31864 0.0
C1251 C 0.2152 0.32071 0.33675 0.0
C1252 C 0.22299 0.31944 0.30496 0.0
C1253 C 0.18997 0.33057 0.29406 0.0
C1254 C 0.21794 0.30265 0.29193 0.0
C1255 C 0.22993 0.29702 0.28073 0.0
C1256 C 0.24713 0.30818 0.28233 0.0
C1257 C 0.25185 0.32555 0.29467 0.0
C1258 C 0.23989 0.33105 0.30608 0.0
H1259 H 0.17905 0.33788 0.2937 0.0
H1260 H 0.20158 0.33917 0.28927 0.0
H1261 H 0.18563 0.31697 0.28421 0.0
H1262 H 0.20497 0.29344 0.29106 0.0
H1263 H 0.22592 0.2836 0.27132 0.0
H1264 H 0.91987 0.04215 0.17801 0.0
H1265 H 0.93451 0.03938 0.14989 0.0
H1266 H 0.98448 0.06629 0.18259 0.0
H1267 H 0.96998 0.06824 0.21071 0.0
H1268 H 0.95106 0.05953 0.12924 0.0
H1269 H 0.00191 0.02627 0.15543 0.0
H1270 H 0.98412 0.02986 0.16836 0.0
H1271 H 0.00357 0.04861 0.16979 0.0
C1272 C 0.93403 0.04738 0.17934 0.0
C1273 C 0.94353 0.05528 0.19713 0.0
C1274 C 0.94253 0.04582 0.16299 0.0
C1275 C 0.96104 0.05208 0.16346 0.0
C1276 C 0.97043 0.06048 0.18123 0.0
H1277 H 0.03925 0.06517 0.08404 0.0
H1278 H 0.02197 0.0653 0.10991 0.0
C1279 C 0.96197 0.06183 0.19759 0.0
C1280 C 0.97029 0.05014 0.1456 0.0
H1281 H 0.00665 0.03846 0.12783 0.0
C1282 C 0.96313 0.05472 0.12908 0.0
C1283 C 0.98613 0.0437 0.14449 0.0
C1284 C 0.99427 0.03664 0.16039 0.0
C1285 C 0.97136 0.05376 0.11242 0.0
C1286 C 0.98747 0.04791 0.11158 0.0
C1287 C 0.99448 0.0431 0.12797 0.0
C1288 C 0.99777 0.04763 0.09451 0.0
C1289 C 0.96293 0.05967 0.09593 0.0
C1290 C 0.99052 0.03752 0.07639 0.0
C1291 C 1.00071 0.03727 0.06113 0.0
C1292 C 0.01859 0.04727 0.06327 0.0
C1293 C 0.02563 0.05729 0.08137 0.0
C1294 C 0.01563 0.05736 0.09648 0.0
H1295 H 0.95313 0.0679 0.09984 0.0
H1296 H 0.97302 0.06826 0.08914 0.0
H1297 H 0.95599 0.04696 0.08567 0.0
H1298 H 0.97699 0.02942 0.07403 0.0
H1299 H 0.99462 0.02904 0.04775 0.0
H1300 H 0.28437 0.63595 0.45422 0.0
H1301 H 0.27873 0.6496 0.42694 0.0
H1302 H 0.28729 0.70423 0.46163 0.0
H1303 H 0.29278 0.69073 0.48901 0.0
H1304 H 0.25294 0.68949 0.43967 0.0
H1305 H 0.30869 0.68646 0.39818 0.0
H1306 H 0.29899 0.66563 0.40669 0.0
H1307 H 0.31083 0.68631 0.42274 0.0
C1308 C 0.28565 0.65098 0.45599 0.0
C1309 C 0.28881 0.66225 0.47376 0.0
C1310 C 0.2824 0.65873 0.44038 0.0
C1311 C 0.2825 0.67784 0.44238 0.0
C1312 C 0.2871 0.6894 0.45992 0.0
H1313 H 0.2609 0.76037 0.38524 0.0
H1314 H 0.26261 0.7392 0.40698 0.0
C1315 C 0.29031 0.68169 0.47551 0.0
C1316 C 0.27575 0.6854 0.42672 0.0
H1317 H 0.28549 0.69802 0.38575 0.0
C1318 C 0.25998 0.69128 0.4278 0.0
C1319 C 0.28482 0.6873 0.41119 0.0
C1320 C 0.30183 0.68121 0.40954 0.0
C1321 C 0.25334 0.69968 0.41398 0.0
C1322 C 0.2629 0.70248 0.39891 0.0
C1323 C 0.27822 0.69579 0.39737 0.0
C1324 C 0.25852 0.71427 0.3858 0.0
C1325 C 0.23633 0.70575 0.41574 0.0
C1326 C 0.25535 0.70715 0.36673 0.0
C1327 C 0.25427 0.71923 0.35423 0.0
C1328 C 0.2566 0.73862 0.36069 0.0
C1329 C 0.2588 0.74548 0.37984 0.0
C1330 C 0.2598 0.7334 0.39229 0.0
H1331 H 0.22797 0.69744 0.42435 0.0
H1332 H 0.23936 0.72075 0.42257 0.0
H1333 H 0.22872 0.70426 0.40194 0.0
H1334 H 0.25438 0.6924 0.36152 0.0
H1335 H 0.25231 0.71353 0.33953 0.0
H1336 H 0.64491 0.00619 0.66511 0.0
H1337 H 0.62644 1.00314 0.63566 0.0
H1338 H 0.57982 0.98637 0.66171 0.0
H1339 H 0.59808 0.98969 0.69116 0.0
H1340 H 0.5983 0.97387 0.61285 0.0
H1341 H 0.57586 0.03615 0.6452 0.0
H1342 H 0.59459 0.02927 0.65545 0.0
H1343 H 0.57261 0.01697 0.65759 0.0
C1344 C 0.63074 1.00148 0.66444 0.0
C1345 C 0.62289 0.9985 0.68046 0.0
C1346 C 0.62023 0.99974 0.64764 0.0
C1347 C 0.6018 0.9949 0.64669 0.0
C1348 C 0.59402 0.99045 0.6623 0.0
H1349 H 0.51889 0.0057 0.56583 0.0
H1350 H 0.5348 0.99653 0.5917 0.0
C1351 C 0.60447 0.99233 0.67908 0.0
C1352 C 0.59067 0.99634 0.63003 0.0
H1353 H 0.56259 0.0215 0.61501 0.0
C1354 C 0.59045 0.98423 0.61327 0.0
C1355 C 0.58054 0.00996 0.63069 0.0
C1356 C 0.58097 0.02396 0.64813 0.0
C1357 C 0.58013 0.98527 0.5971 0.0
C1358 C 0.57003 0.99893 0.5978 0.0
C1359 C 0.5702 0.01092 0.6146 0.0
C1360 C 0.55999 1.00197 0.58113 0.0
C1361 C 0.58003 0.9717 0.57949 0.0
C1362 C 0.56885 0.00781 0.5666 0.0
C1363 C 0.55979 0.01306 0.55198 0.0
C1364 C 0.54188 0.01282 0.55178 0.0
C1365 C 0.5328 0.00618 0.56585 0.0
C1366 C 0.54185 1.00095 0.58055 0.0
H1367 H 0.58402 0.95889 0.5824 0.0
H1368 H 0.56679 0.96744 0.57123 0.0
H1369 H 0.58955 0.97862 0.57097 0.0
H1370 H 0.58286 0.00887 0.56682 0.0
H1371 H 0.56674 0.01717 0.54078 0.0
H1372 H 0.27827 0.38326 0.95309 0.0
H1373 H 0.27839 0.36521 0.92253 0.0
H1374 H 0.30278 0.32673 0.94714 0.0
H1375 H 0.30255 0.34476 0.97813 0.0
H1376 H 0.30848 0.35978 0.90752 0.0
H1377 H 0.26241 0.29157 0.90937 0.0
H1378 H 0.26333 0.31275 0.92577 0.0
H1379 H 0.28014 0.30003 0.92808 0.0
C1380 C 0.28352 0.37085 0.95213 0.0
C1381 C 0.29048 0.36553 0.96814 0.0
C1382 C 0.28357 0.36054 0.93458 0.0
C1383 C 0.29053 0.34458 0.9325 0.0
C1384 C 0.29711 0.33885 0.94842 0.0
H1385 H 0.31875 0.30174 0.82391 0.0
H1386 H 0.31973 0.31234 0.85723 0.0
C1387 C 0.29701 0.3492 0.96612 0.0
C1388 C 0.29173 0.33488 0.91354 0.0
H1389 H 0.27578 0.29404 0.88209 0.0
C1390 C 0.30144 0.34535 0.902 0.0
C1391 C 0.28242 0.31612 0.90632 0.0
C1392 C 0.27136 0.30442 0.91792 0.0
C1393 C 0.30185 0.33774 0.88339 0.0
C1394 C 0.29254 0.31897 0.87613 0.0
C1395 C 0.28301 0.30837 0.88772 0.0
C1396 C 0.29177 0.3106 0.85626 0.0
C1397 C 0.31167 0.35014 0.87147 0.0
C1398 C 0.27561 0.30536 0.84473 0.0
C1399 C 0.27497 0.29919 0.82567 0.0
C1400 C 0.29049 0.29808 0.81773 0.0
C1401 C 0.30655 0.30258 0.82947 0.0
C1402 C 0.30717 0.30871 0.84854 0.0
H1403 H 0.31468 0.36526 0.87797 0.0
H1404 H 0.32434 0.34628 0.86939 0.0
H1405 H 0.30395 0.34823 0.85766 0.0
H1406 H 0.26355 0.30665 0.85039 0.0
H1407 H 0.26234 0.29576 0.81711 0.0
H1408 H 0.94547 0.0767 0.32397 0.0
H1409 H 0.95834 0.0763 0.35575 0.0
H1410 H 0.97194 0.02418 0.33581 0.0
H1411 H 0.95999 0.02488 0.3046 0.0
H1412 H 0.9536 0.05535 0.38183 0.0
H1413 H 0.01859 0.04987 0.36219 0.0
H1414 H 0.00204 0.05443 0.34623 0.0
H1415 H 0.00191 0.03066 0.34899 0.0
C1416 C 0.95126 0.06519 0.32632 0.0
C1417 C 0.95177 0.05102 0.31116 0.0
C1418 C 0.95872 0.06494 0.34468 0.0
C1419 C 0.96695 0.05051 0.34866 0.0
C1420 C 0.96663 0.03604 0.3336 0.0
H1421 H 0.01373 0.01184 0.44514 0.0
H1422 H 1.00044 0.0157 0.41501 0.0
C1423 C 0.95948 0.0364 0.31545 0.0
C1424 C 0.97564 0.0501 0.36817 0.0
H1425 H 0.01238 0.0415 0.39139 0.0
C1426 C 0.96655 0.05254 0.3838 0.0
C1427 C 0.99272 0.04652 0.37148 0.0
C1428 C 0.00444 0.04543 0.35637 0.0
C1429 C 0.97354 0.05085 0.40186 0.0
C1430 C 0.9903 0.04663 0.40494 0.0
C1431 C 0.99949 0.04448 0.38942 0.0
C1432 C 0.99849 0.04432 0.42394 0.0
C1433 C 0.96257 0.05305 0.4175 0.0
C1434 C 0.00235 0.05905 0.43956 0.0
C1435 C 0.01026 0.05692 0.45694 0.0
C1436 C 0.01457 0.0399 0.45963 0.0
C1437 C 0.01068 0.02518 0.44398 0.0
C1438 C 0.00301 0.02741 0.42654 0.0
H1439 H 0.94856 0.05188 0.41236 0.0
H1440 H 0.96318 0.0423 0.42625 0.0
H1441 H 0.96783 0.06712 0.42635 0.0
H1442 H 0.99947 0.07243 0.43828 0.0
H1443 H 0.01296 0.06873 0.46837 0.0
H1444 H 0.2858 0.6906 0.56545 0.0
H1445 H 0.28864 0.7161 0.59199 0.0
H1446 H 0.25946 0.67705 0.62202 0.0
H1447 H 0.25644 0.65147 0.59567 0.0
H1448 H 0.25605 0.72484 0.61433 0.0
H1449 H 0.31248 0.70582 0.65159 0.0
H1450 H 0.30781 0.7009 0.62662 0.0
H1451 H 0.29428 0.68693 0.64007 0.0
C1452 C 0.27995 0.68743 0.57768 0.0
C1453 C 0.27097 0.66898 0.5785 0.0
C1454 C 0.28151 0.70202 0.59274 0.0
C1455 C 0.27422 0.69833 0.60881 0.0
C1456 C 0.26511 0.68006 0.60963 0.0
H1457 H 0.27597 0.74718 0.72052 0.0
H1458 H 0.27066 0.72816 0.6895 0.0
C1459 C 0.26345 0.66549 0.59459 0.0
C1460 C 0.27678 0.71329 0.6252 0.0
H1461 H 0.29962 0.72805 0.66841 0.0
C1462 C 0.26569 0.72579 0.62612 0.0
C1463 C 0.28941 0.71435 0.64038 0.0
C1464 C 0.3018 0.70139 0.63972 0.0
C1465 C 0.26646 0.73893 0.64235 0.0
C1466 C 0.2787 0.73952 0.65778 0.0
C1467 C 0.29019 0.72744 0.65653 0.0
C1468 C 0.27926 0.75167 0.67583 0.0
C1469 C 0.25375 0.75153 0.64322 0.0
C1470 C 0.2854 0.77125 0.67829 0.0
C1471 C 0.28833 0.78223 0.69608 0.0
C1472 C 0.28529 0.77366 0.71153 0.0
C1473 C 0.27835 0.75417 0.70886 0.0
C1474 C 0.27537 0.74328 0.69116 0.0
H1475 H 0.24341 0.74741 0.63105 0.0
H1476 H 0.2473 0.75119 0.65603 0.0
H1477 H 0.26109 0.76623 0.64366 0.0
H1478 H 0.28869 0.77792 0.66661 0.0
H1479 H 0.29373 0.79724 0.69781 0.0
H1480 H 0.63186 0.02579 0.79311 0.0
H1481 H 0.62016 0.03111 0.82266 0.0
H1482 H 0.59513 0.07215 0.80379 0.0
H1483 H 0.6064 0.06663 0.77403 0.0
H1484 H 0.62115 0.06331 0.85056 0.0
H1485 H 0.55411 0.03067 0.81236 0.0
H1486 H 0.57387 0.02966 0.80184 0.0
H1487 H 0.56631 0.05098 0.80482 0.0
C1488 C 0.62403 0.0361 0.79532 0.0
C1489 C 0.6197 0.04548 0.78112 0.0
C1490 C 0.61746 0.0392 0.81223 0.0
C1491 C 0.6066 0.0518 0.81521 0.0
C1492 C 0.60327 0.06214 0.80157 0.0
H1493 H 0.53365 0.04752 0.89785 0.0
H1494 H 0.55184 0.06022 0.87542 0.0
C1495 C 0.60966 0.05891 0.78458 0.0
C1496 C 0.59719 0.05238 0.83166 0.0
H1497 H 0.55642 0.03831 0.84454 0.0
C1498 C 0.60697 0.05809 0.84932 0.0
C1499 C 0.5787 0.04561 0.8299 0.0
C1500 C 0.56759 0.03874 0.81124 0.0
C1501 C 0.59871 0.05667 0.86533 0.0
C1502 C 0.58034 0.04903 0.86348 0.0
C1503 C 0.57051 0.0442 0.84588 0.0
C1504 C 0.57115 0.04391 0.87921 0.0
C1505 C 0.60974 0.06307 0.88402 0.0
C1506 C 0.57607 0.03062 0.88879 0.0
C1507 C 0.56575 0.02338 0.90161 0.0
C1508 C 0.55022 0.02915 0.90488 0.0
C1509 C 0.54558 0.04285 0.89564 0.0
C1510 C 0.55595 0.05015 0.88287 0.0
H1511 H 0.62167 0.07422 0.88352 0.0
H1512 H 0.60211 0.06851 0.89475 0.0
H1513 H 0.61421 0.051 0.88823 0.0
H1514 H 0.58751 0.02527 0.88584 0.0
H1515 H 0.56982 0.01311 0.90881 0.0
H1516 H 0.2864 0.3347 0.06741 0.0
H1517 H 0.28346 0.3212 0.09556 0.0
H1518 H 0.30846 0.3754 0.12894 0.0
H1519 H 0.31131 0.38902 0.10098 0.0
H1520 H 0.30874 0.31974 0.12467 0.0
H1521 H 0.2616 0.36082 0.15003 0.0
H1522 H 0.26697 0.35875 0.12659 0.0
H1523 H 0.28181 0.37485 0.14509 0.0
C1524 C 0.29138 0.34372 0.08073 0.0
C1525 C 0.29899 0.36297 0.08192 0.0
C1526 C 0.28968 0.33598 0.09682 0.0
C1527 C 0.29544 0.34736 0.11439 0.0
C1528 C 0.30358 0.36643 0.11557 0.0
H1529 H 0.30912 0.3094 0.21986 0.0
H1530 H 0.31358 0.32369 0.19236 0.0
C1531 C 0.3053 0.37416 0.09953 0.0
C1532 C 0.29276 0.33939 0.13149 0.0
H1533 H 0.27245 0.34331 0.17064 0.0
C1534 C 0.3008 0.32487 0.13472 0.0
C1535 C 0.2822 0.34592 0.14449 0.0
C1536 C 0.2725 0.36082 0.14136 0.0
C1537 C 0.29878 0.31692 0.15072 0.0
C1538 C 0.28864 0.32385 0.16399 0.0
C1539 C 0.28039 0.33816 0.1606 0.0
C1540 C 0.28598 0.31602 0.18118 0.0
C1541 C 0.30724 0.30092 0.15309 0.0
C1542 C 0.26893 0.30758 0.18444 0.0
C1543 C 0.26635 0.29956 0.20022 0.0
C1544 C 0.28075 0.29993 0.21313 0.0
C1545 C 0.29776 0.30889 0.21016 0.0
C1546 C 0.30034 0.3169 0.19436 0.0
H1547 H 0.31074 0.29424 0.13978 0.0
H1548 H 0.31953 0.30636 0.16292 0.0
H1549 H 0.29835 0.29 0.15882 0.0
H1550 H 0.25764 0.30683 0.17455 0.0
H1551 H 0.25309 0.29279 0.20215 0.0
H1552 H 0.23614 0.92123 0.01614 0.0
H1553 H 0.21095 0.93585 0.0164 0.0
H1554 H 0.24602 0.99006 0.01874 0.0
H1555 H 0.27113 0.97569 0.01844 0.0
H1556 H 0.20633 0.96654 0.04425 0.0
H1557 H 0.20785 0.98437 0.97405 0.0
H1558 H 0.21849 0.96702 0.98133 0.0
H1559 H 0.22873 0.99163 0.98846 0.0
C1560 C 0.23844 0.93625 0.01666 0.0
C1561 C 0.25558 0.94731 0.01721 0.0
C1562 C 0.22408 0.94455 0.01682 0.0
C1563 C 0.22668 0.96395 0.01733 0.0
C1564 C 0.24376 0.97501 0.01803 0.0
H1565 H 0.16654 0.04795 0.02185 0.0
H1566 H 0.18921 0.02992 0.02076 0.0
C1567 C 0.25809 0.96677 0.01795 0.0
C1568 C 0.21166 0.97291 0.01756 0.0
H1569 H 0.19018 0.99877 0.99369 0.0
C1570 C 0.20262 0.97342 0.03314 0.0
C1571 C 0.20699 0.98187 0.00302 0.0
C1572 C 0.2159 0.9811 0.98568 0.0
C1573 C 0.18935 0.98331 0.03488 0.0
C1574 C 0.18491 0.99258 0.02048 0.0
C1575 C 0.19373 0.99172 0.00473 0.0
C1576 C 0.17124 1.00343 0.02152 0.0
C1577 C 0.18063 0.98428 0.05234 0.0
C1578 C 0.15367 0.99442 0.02216 0.0
C1579 C 0.14076 1.00467 0.0229 0.0
C1580 C 0.14517 0.0241 0.02284 0.0
C1581 C 0.16278 0.03306 0.0221 0.0
C1582 C 0.17571 0.02278 0.02138 0.0
H1583 H 0.1884 0.98034 0.06375 0.0
H1584 H 0.17878 0.99863 0.05705 0.0
H1585 H 0.16746 0.97436 0.04953 0.0
H1586 H 0.14994 0.97944 0.02199 0.0
H1587 H 0.12734 0.99741 0.02369 0.0
H1588 H 0.7206 0.61591 0.97146 0.0
H1589 H 0.69093 0.59785 0.97336 0.0
H1590 H 0.67439 0.64935 0.98846 0.0
H1591 H 0.70402 0.66756 0.98634 0.0
H1592 H 0.674 0.59875 0.00459 0.0
H1593 H 0.63504 0.61882 0.94792 0.0
H1594 H 0.65875 0.62296 0.95002 0.0
H1595 H 0.64852 0.63829 0.96443 0.0
C1596 C 0.7106 0.62342 0.97495 0.0
C1597 C 0.71468 0.64318 0.97875 0.0
C1598 C 0.69365 0.61307 0.97606 0.0
C1599 C 0.68039 0.62223 0.9809 0.0
C1600 C 0.68431 0.64197 0.98438 0.0
H1601 H 0.58534 0.56776 0.0233 0.0
H1602 H 0.61279 0.58929 0.01942 0.0
C1603 C 0.70129 0.65236 0.98324 0.0
C1604 C 0.66282 0.61105 0.98334 0.0
H1605 H 0.6189 0.60092 0.96746 0.0
C1606 C 0.66195 0.59923 0.99647 0.0
C1607 C 0.64713 0.6116 0.97265 0.0
C1608 C 0.64733 0.62346 0.95784 0.0
C1609 C 0.64585 0.58794 0.99922 0.0
C1610 C 0.63012 0.58873 0.98877 0.0
C1611 C 0.63096 0.6005 0.97559 0.0
C1612 C 0.61278 0.57677 0.99081 0.0
C1613 C 0.64589 0.57491 0.01296 0.0
C1614 C 0.60333 0.56305 0.97583 0.0
C1615 C 0.5876 0.55085 0.97798 0.0
C1616 C 0.581 0.5522 0.99513 0.0
C1617 C 0.59014 0.56636 0.00994 0.0
C1618 C 0.60588 0.57859 0.00777 0.0
H1619 H 0.65926 0.57276 0.01655 0.0
H1620 H 0.64142 0.58109 0.02589 0.0
H1621 H 0.63676 0.561 0.00742 0.0
H1622 H 0.60838 0.56146 0.96259 0.0
H1623 H 0.58076 0.54013 0.96629 0.0
H1624 H 0.66819 0.43778 0.26442 0.0
H1625 H 0.68303 0.41179 0.26385 0.0
H1626 H 0.73323 0.45102 0.26819 0.0
H1627 H 0.71844 0.47699 0.26908 0.0
H1628 H 0.702 0.39499 0.24219 0.0
H1629 H 0.74733 0.42419 0.30681 0.0
H1630 H 0.72968 0.43468 0.30012 0.0
H1631 H 0.75015 0.43967 0.29042 0.0
C1632 C 0.68242 0.44103 0.26539 0.0
C1633 C 0.69185 0.45999 0.26697 0.0
C1634 C 0.69105 0.42591 0.26501 0.0
C1635 C 0.70965 0.42882 0.26638 0.0
C1636 C 0.71904 0.44778 0.26769 0.0
H1637 H 0.78727 0.3558 0.26674 0.0
H1638 H 0.77198 0.38132 0.26709 0.0
C1639 C 0.71042 0.46289 0.26804 0.0
C1640 C 0.71896 0.41223 0.26605 0.0
H1641 H 0.75287 0.3975 0.28802 0.0
C1642 C 0.71306 0.39568 0.25238 0.0
C1643 C 0.7336 0.41235 0.27909 0.0
C1644 C 0.74047 0.42857 0.29505 0.0
C1645 C 0.7213 0.38012 0.25109 0.0
C1646 C 0.73597 0.38026 0.26411 0.0
C1647 C 0.74183 0.3968 0.27781 0.0
C1648 C 0.74548 0.36381 0.26371 0.0
C1649 C 0.71442 0.36391 0.23512 0.0
C1650 C 0.73632 0.34469 0.26194 0.0
C1651 C 0.74523 0.32979 0.26164 0.0
C1652 C 0.76386 0.3331 0.26328 0.0
C1653 C 0.77302 0.35221 0.26531 0.0
C1654 C 0.76412 0.36708 0.26558 0.0
H1655 H 0.70753 0.3683 0.22338 0.0
H1656 H 0.72521 0.35783 0.23001 0.0
H1657 H 0.70476 0.3528 0.23975 0.0
H1658 H 0.72211 0.34114 0.26109 0.0
H1659 H 0.73739 0.31556 0.26029 0.0
H1660 H 0.84644 0.45094 0.54896 0.0
H1661 H 0.87747 0.45992 0.56178 0.0
H1662 H 0.88935 0.4917 0.51844 0.0
H1663 H 0.85818 0.4832 0.50583 0.0
H1664 H 0.90228 0.44927 0.54425 0.0
H1665 H 0.92 0.52662 0.56213 0.0
H1666 H 0.89737 0.51321 0.55813 0.0
H1667 H 0.90886 0.51922 0.53898 0.0
C1668 C 0.85562 0.46017 0.54237 0.0
C1669 C 0.84995 0.46626 0.52628 0.0
C1670 C 0.87332 0.46532 0.54976 0.0
C1671 C 0.8857 0.47661 0.5412 0.0
C1672 C 0.87996 0.48337 0.52558 0.0
H1673 H 0.98025 0.47397 0.50775 0.0
H1674 H 0.95172 0.46534 0.51856 0.0
C1675 C 0.86217 0.47839 0.51827 0.0
C1676 C 0.90474 0.47917 0.5469 0.0
H1677 H 0.94373 0.51185 0.55303 0.0
C1678 C 0.91134 0.46301 0.54669 0.0
C1679 C 0.91657 0.49706 0.5506 0.0
C1680 C 0.91029 0.515 0.55269 0.0
C1681 C 0.92948 0.46419 0.54821 0.0
C1682 C 0.94121 0.4819 0.54957 0.0
C1683 C 0.93471 0.4982 0.5517 0.0
C1684 C 0.95952 0.48366 0.54539 0.0
C1685 C 0.93585 0.44637 0.54747 0.0
C1686 C 0.97354 0.49649 0.55705 0.0
C1687 C 0.98993 0.50156 0.55082 0.0
C1688 C 0.99237 0.49407 0.53271 0.0
C1689 C 0.97874 0.48007 0.5217 0.0
C1690 C 0.96244 0.47498 0.52796 0.0
H1691 H 0.92703 0.43605 0.55394 0.0
H1692 H 0.93562 0.43984 0.53279 0.0
H1693 H 0.94949 0.44916 0.55459 0.0
H1694 H 0.97149 0.50341 0.5705 0.0
H1695 H 1.0002 0.51236 0.55967 0.0
H1696 H 0.36687 0.05715 0.28478 0.0
H1697 H 0.34525 0.07575 0.2799 0.0
H1698 H 0.38717 0.12322 0.27658 0.0
H1699 H 0.40885 0.10476 0.2813 0.0
H1700 H 0.3423 0.11137 0.29985 0.0
H1701 H 0.35434 0.11359 0.22708 0.0
H1702 H 0.36154 0.09728 0.23992 0.0
H1703 H 0.37386 0.12133 0.24362 0.0
C1704 C 0.3715 0.07161 0.2832 0.0
C1705 C 0.38954 0.07946 0.28326 0.0
C1706 C 0.35913 0.08218 0.28039 0.0
C1707 C 0.36464 0.10067 0.27752 0.0
C1708 C 0.38268 0.10882 0.27841 0.0
H1709 H 0.32178 0.19227 0.25743 0.0
H1710 H 0.33932 0.16961 0.26201 0.0
C1711 C 0.39504 0.09829 0.28122 0.0
C1712 C 0.35156 0.11143 0.27324 0.0
H1713 H 0.33708 0.13376 0.2402 0.0
C1714 C 0.34097 0.11613 0.28676 0.0
C1715 C 0.34988 0.11744 0.25607 0.0
C1716 C 0.36038 0.11203 0.24075 0.0
C1717 C 0.32922 0.12746 0.28386 0.0
C1718 C 0.32791 0.13391 0.26689 0.0
C1719 C 0.33815 0.12876 0.25318 0.0
C1720 C 0.31694 0.14714 0.26358 0.0
C1721 C 0.31885 0.13309 0.29922 0.0
C1722 C 0.29853 0.14184 0.26261 0.0
C1723 C 0.28844 0.15481 0.26007 0.0
C1724 C 0.29669 0.17323 0.2585 0.0
C1725 C 0.3151 0.17827 0.25896 0.0
C1726 C 0.32512 0.16533 0.26146 0.0
H1727 H 0.32377 0.12977 0.31258 0.0
H1728 H 0.31942 0.14837 0.30119 0.0
H1729 H 0.30484 0.12539 0.29547 0.0
H1730 H 0.29199 0.12773 0.26392 0.0
H1731 H 0.27428 0.15058 0.25975 0.0
H1732 H 0.32641 0.16249 0.47791 0.0
H1733 H 0.35418 0.15255 0.47547 0.0
H1734 H 0.33184 0.10171 0.49476 0.0
H1735 H 0.30431 0.11133 0.49717 0.0
H1736 H 0.37636 0.14309 0.50434 0.0
H1737 H 0.35064 0.0829 0.44644 0.0
H1738 H 0.33946 0.10155 0.45187 0.0
H1739 H 0.33719 0.08284 0.46492 0.0
C1740 C 0.32741 0.14916 0.48154 0.0
C1741 C 0.31306 0.13769 0.48765 0.0
C1742 C 0.34328 0.14352 0.48016 0.0
C1743 C 0.34496 0.12625 0.48465 0.0
C1744 C 0.33073 0.11491 0.49088 0.0
H1745 H 0.41428 0.0567 0.50187 0.0
H1746 H 0.39071 0.07286 0.49783 0.0
C1747 C 0.31498 0.12053 0.49233 0.0
C1748 C 0.36161 0.11997 0.4834 0.0
H1749 H 0.3774 0.0827 0.46473 0.0
C1750 C 0.37675 0.1301 0.49543 0.0
C1751 C 0.36208 0.10303 0.47173 0.0
C1752 C 0.34652 0.09203 0.45787 0.0
C1753 C 0.392 0.12309 0.49691 0.0
C1754 C 0.39212 0.10564 0.4859 0.0
C1755 C 0.37726 0.09602 0.47324 0.0
C1756 C 0.40684 0.09628 0.4884 0.0
C1757 C 0.4075 0.13385 0.51094 0.0
C1758 C 0.42377 0.10401 0.48431 0.0
C1759 C 0.43739 0.0948 0.48671 0.0
C1760 C 0.4343 0.07772 0.49329 0.0
C1761 C 0.41725 0.07 0.49716 0.0
C1762 C 0.4037 0.07915 0.49471 0.0
H1763 H 0.40424 0.14549 0.52043 0.0
H1764 H 0.41218 0.12432 0.51932 0.0
H1765 H 0.41851 0.13998 0.50361 0.0
H1766 H 0.42642 0.11708 0.47915 0.0
H1767 H 0.45037 0.10114 0.48363 0.0
H1768 H 0.66812 0.59329 0.26952 0.0
H1769 H 0.68623 0.62409 0.2684 0.0
H1770 H 0.73267 0.6022 0.27116 0.0
H1771 H 0.7143 0.57076 0.27188 0.0
H1772 H 0.71071 0.64926 0.29075 0.0
H1773 H 0.7418 0.62853 0.22864 0.0
H1774 H 0.72385 0.61265 0.23583 0.0
H1775 H 0.74597 0.61636 0.24706 0.0
C1776 C 0.68219 0.59477 0.26987 0.0
C1777 C 0.68949 0.57903 0.27072 0.0
C1778 C 0.69267 0.6127 0.26926 0.0
C1779 C 0.71105 0.61595 0.26934 0.0
C1780 C 0.71855 0.60038 0.27055 0.0
H1781 H 0.79414 0.71694 0.2653 0.0
H1782 H 0.77652 0.68585 0.26689 0.0
C1783 C 0.70798 0.58225 0.27118 0.0
C1784 C 0.72192 0.63562 0.26836 0.0
H1785 H 0.75203 0.66006 0.24435 0.0
C1786 C 0.71968 0.65149 0.2805 0.0
C1787 C 0.73379 0.63912 0.25507 0.0
C1788 C 0.73641 0.62332 0.24078 0.0
C1789 C 0.72893 0.67019 0.28001 0.0
C1790 C 0.74077 0.67368 0.2667 0.0
C1791 C 0.74306 0.65782 0.25459 0.0
C1792 C 0.7514 0.69339 0.26556 0.0
C1793 C 0.72627 0.686 0.29426 0.0
C1794 C 0.74355 0.70866 0.264 0.0
C1795 C 0.75381 0.72682 0.26308 0.0
C1796 C 0.7723 0.73035 0.26359 0.0
C1797 C 0.78001 0.71502 0.26489 0.0
C1798 C 0.76983 0.69701 0.26577 0.0
H1799 H 0.72099 0.68081 0.30646 0.0
H1800 H 0.73879 0.69676 0.29912 0.0
H1801 H 0.71661 0.69284 0.28798 0.0
H1802 H 0.7294 0.70655 0.26331 0.0
H1803 H 0.74725 0.73808 0.26201 0.0
H1804 H 0.93375 0.47163 0.7591 0.0
H1805 H 0.91542 0.43985 0.75634 0.0
H1806 H 0.87729 0.46211 0.78594 0.0
H1807 H 0.89539 0.49399 0.78866 0.0
H1808 H 0.90276 0.41996 0.78416 0.0
H1809 H 0.84867 0.43114 0.73673 0.0
H1810 H 0.87033 0.44685 0.74139 0.0
H1811 H 0.85485 0.44819 0.75786 0.0
C1812 C 0.92151 0.46979 0.76513 0.0
C1813 C 0.91596 0.48537 0.77398 0.0
C1814 C 0.91108 0.45163 0.76352 0.0
C1815 C 0.89491 0.44875 0.77065 0.0
C1816 C 0.88959 0.46415 0.78004 0.0
H1817 H 0.82827 0.3481 0.79191 0.0
H1818 H 0.8488 0.37833 0.7934 0.0
C1819 C 0.90001 0.48233 0.78167 0.0
C1820 C 0.88351 0.42962 0.76812 0.0
H1821 H 0.84301 0.40276 0.7486 0.0
C1822 C 0.88973 0.41613 0.77633 0.0
C1823 C 0.86667 0.42468 0.75762 0.0
C1824 C 0.85974 0.4384 0.74773 0.0
C1825 C 0.87927 0.39788 0.77475 0.0
C1826 C 0.86213 0.39318 0.7649 0.0
C1827 C 0.85612 0.40651 0.75625 0.0
C1828 C 0.85001 0.37467 0.76389 0.0
C1829 C 0.88666 0.38376 0.78355 0.0
C1830 C 0.84363 0.3628 0.74672 0.0
C1831 C 0.83179 0.3455 0.74576 0.0
C1832 C 0.82605 0.33989 0.76198 0.0
C1833 C 0.83244 0.35192 0.77914 0.0
C1834 C 0.84427 0.36917 0.78006 0.0
H1835 H 0.90128 0.3879 0.78614 0.0
H1836 H 0.88161 0.38288 0.79705 0.0
H1837 H 0.88252 0.36957 0.77467 0.0
H1838 H 0.84786 0.36693 0.73407 0.0
H1839 H 0.8271 0.3366 0.73232 0.0
H1840 H 0.05782 0.87448 0.11592 0.0
H1841 H 0.05432 0.90041 0.10043 0.0
H1842 H 0.07517 0.87551 0.05293 0.0
H1843 H 0.07814 0.84915 0.06814 0.0
H1844 H 0.07773 0.92636 0.08927 0.0
H1845 H 0.03164 0.88525 0.02792 0.0
H1846 H 0.03702 0.8751 0.04765 0.0
H1847 H 0.05186 0.87786 0.03046 0.0
C1848 C 0.06153 0.87442 0.10211 0.0
C1849 C 0.06814 0.85964 0.09323 0.0
C1850 C 0.05956 0.88931 0.09327 0.0
C1851 C 0.06421 0.88988 0.07535 0.0
C1852 C 0.07103 0.87523 0.06653 0.0
H1853 H 0.07726 0.99508 0.03122 0.0
H1854 H 0.08284 0.96771 0.04318 0.0
C1855 C 0.07282 0.86019 0.0753 0.0
C1856 C 0.06228 0.90605 0.06626 0.0
H1857 H 0.04306 0.91756 0.02769 0.0
C1858 C 0.07014 0.92441 0.0758 0.0
C1859 C 0.05223 0.90361 0.04874 0.0
C1860 C 0.04255 0.88441 0.03816 0.0
C1861 C 0.06815 0.9403 0.06845 0.0
C1862 C 0.05843 0.93786 0.05075 0.0
C1863 C 0.05066 0.9195 0.04116 0.0
C1864 C 0.05529 0.9541 0.04242 0.0
C1865 C 0.07596 0.95954 0.08009 0.0
C1866 C 0.03798 0.95528 0.03717 0.0
C1867 C 0.03476 0.97074 0.03002 0.0
C1868 C 0.04877 0.9855 0.02798 0.0
C1869 C 0.06613 0.98409 0.03278 0.0
C1870 C 0.06935 0.96848 0.03976 0.0
H1871 H 0.07864 0.95887 0.09498 0.0
H1872 H 0.08865 0.9657 0.07539 0.0
H1873 H 0.06704 0.9691 0.07873 0.0
H1874 H 0.02689 0.94438 0.03898 0.0
H1875 H 0.02121 0.97131 0.0265 0.0
H1876 H 0.9632 0.27884 0.8405 0.0
H1877 H 0.93335 0.27946 0.82942 0.0
H1878 H 0.91352 0.24931 0.87144 0.0
H1879 H 0.94381 0.24863 0.88291 0.0
H1880 H 0.89446 0.23562 0.83408 0.0
H1881 H 0.90308 0.31229 0.85593 0.0
H1882 H 0.92055 0.30652 0.8437 0.0
H1883 H 0.91755 0.29945 0.86565 0.0
C1884 C 0.95261 0.2723 0.84752 0.0
C1885 C 0.95604 0.26376 0.86273 0.0
C1886 C 0.93548 0.27279 0.84118 0.0
C1887 C 0.92122 0.2648 0.84981 0.0
C1888 C 0.92438 0.25577 0.8647 0.0
H1889 H 0.82095 0.28682 0.80393 0.0
H1890 H 0.84334 0.28288 0.82763 0.0
C1891 C 0.94168 0.25536 0.87121 0.0
C1892 C 0.90315 0.26566 0.84262 0.0
H1893 H 0.87993 0.29693 0.83092 0.0
C1894 C 0.89109 0.24899 0.83375 0.0
C1895 C 0.89859 0.28306 0.84242 0.0
C1896 C 0.91055 0.30134 0.8526 0.0
C1897 C 0.87524 0.2494 0.82348 0.0
C1898 C 0.87148 0.26693 0.82184 0.0
C1899 C 0.88287 0.28349 0.83196 0.0
C1900 C 0.85714 0.2685 0.80799 0.0
C1901 C 0.86293 0.23105 0.81398 0.0
C1902 C 0.85757 0.262 0.78914 0.0
C1903 C 0.84498 0.26435 0.77572 0.0
C1904 C 0.83163 0.27332 0.78078 0.0
C1905 C 0.83107 0.27982 0.79966 0.0
C1906 C 0.84382 0.27754 0.81317 0.0
H1907 H 0.86432 0.21947 0.82142 0.0
H1908 H 0.84898 0.2321 0.81301 0.0
H1909 H 0.86623 0.2273 0.79975 0.0
H1910 H 0.86793 0.25544 0.78472 0.0
H1911 H 0.84582 0.25925 0.76129 0.0
H1912 H 0.57995 0.2357 0.62429 0.0
H1913 H 0.57277 0.20379 0.60673 0.0
H1914 H 0.55334 0.223 0.55866 0.0
H1915 H 0.56064 0.25541 0.57625 0.0
H1916 H 0.5391 0.1825 0.58938 0.0
H1917 H 0.58841 0.19165 0.53961 0.0
H1918 H 0.59005 0.20841 0.56073 0.0
H1919 H 0.57417 0.20768 0.54144 0.0
C1920 C 0.57422 0.2333 0.60996 0.0
C1921 C 0.5709 0.24825 0.60171 0.0
C1922 C 0.57008 0.21496 0.59994 0.0
C1923 C 0.56261 0.211 0.58137 0.0
C1924 C 0.5593 0.22579 0.57294 0.0
H1925 H 0.51805 0.09381 0.52537 0.0
H1926 H 0.52176 0.12735 0.53724 0.0
C1927 C 0.56342 0.24429 0.58303 0.0
C1928 C 0.55812 0.19122 0.57126 0.0
H1929 H 0.57055 0.16121 0.53755 0.0
C1930 C 0.54582 0.17785 0.5779 0.0
C1931 C 0.56706 0.18519 0.55644 0.0
C1932 C 0.58076 0.19889 0.54913 0.0
C1933 C 0.54246 0.15858 0.57039 0.0
C1934 C 0.5515 0.15251 0.55567 0.0
C1935 C 0.56358 0.16591 0.54879 0.0
C1936 C 0.54927 0.13224 0.54792 0.0
C1937 C 0.52978 0.14481 0.57877 0.0
C1938 C 0.56359 0.12389 0.54967 0.0
C1939 C 0.56154 0.1047 0.54289 0.0
C1940 C 0.54512 0.09346 0.53412 0.0
C1941 C 0.53085 0.10196 0.53219 0.0
C1942 C 0.53292 0.12115 0.539 0.0
H1943 H 0.52681 0.15134 0.59241 0.0
H1944 H 0.51721 0.13965 0.56934 0.0
H1945 H 0.53517 0.13249 0.5806 0.0
H1946 H 0.57633 0.13219 0.5565 0.0
H1947 H 0.57285 0.09872 0.54455 0.0
H1948 H 0.57083 0.76744 0.40157 0.0
H1949 H 0.59817 0.77062 0.38735 0.0
H1950 H 0.56816 0.74742 0.33366 0.0
H1951 H 0.54077 0.74444 0.34771 0.0
H1952 H 0.6125 0.74426 0.36599 0.0
H1953 H 0.59808 0.79764 0.32609 0.0
H1954 H 0.58587 0.79101 0.34459 0.0
H1955 H 0.58111 0.77627 0.32202 0.0
C1956 C 0.57004 0.76296 0.38674 0.0
C1957 C 0.5536 0.75585 0.37575 0.0
C1958 C 0.58569 0.76476 0.37864 0.0
C1959 C 0.5852 0.75956 0.3594 0.0
C1960 C 0.56884 0.75189 0.34848 0.0
H1961 H 0.67243 0.74591 0.29684 0.0
H1962 H 0.64658 0.7407 0.31345 0.0
C1963 C 0.5532 0.75011 0.35656 0.0
C1964 C 0.60178 0.76249 0.35073 0.0
H1965 H 0.62287 0.78556 0.31947 0.0
C1966 C 0.6148 0.75331 0.35584 0.0
C1967 C 0.60488 0.77453 0.33769 0.0
C1968 C 0.59184 0.78558 0.33237 0.0
C1969 C 0.63072 0.75561 0.34804 0.0
C1970 C 0.63357 0.76719 0.33458 0.0
C1971 C 0.62064 0.77657 0.32968 0.0
C1972 C 0.64992 0.77005 0.32549 0.0
C1973 C 0.64446 0.7459 0.35455 0.0
C1974 C 0.66035 0.78827 0.32658 0.0
C1975 C 0.67507 0.79129 0.31704 0.0
C1976 C 0.67967 0.77615 0.30611 0.0
C1977 C 0.66941 0.75785 0.30533 0.0
C1978 C 0.65463 0.75485 0.31484 0.0
H1979 H 0.64236 0.74187 0.36821 0.0
H1980 H 0.64366 0.73287 0.34439 0.0
H1981 H 0.65792 0.75503 0.35566 0.0
H1982 H 0.657 0.80022 0.3347 0.0
H1983 H 0.6828 0.80554 0.31814 0.0
H1984 H 0.07452 0.28681 0.44003 0.0
H1985 H 0.06866 0.2636 0.46021 0.0
H1986 H 0.05212 0.21921 0.41229 0.0
H1987 H 0.05822 0.24224 0.39201 0.0
H1988 H 0.03844 0.23564 0.46348 0.0
H1989 H 0.09342 0.20525 0.44059 0.0
H1990 H 0.09041 0.22747 0.43567 0.0
H1991 H 0.07719 0.2058 0.42208 0.0
C1992 C 0.06947 0.27212 0.43379 0.0
C1993 C 0.06706 0.2663 0.41444 0.0
C1994 C 0.06609 0.25891 0.44533 0.0
C1995 C 0.06027 0.23971 0.43771 0.0
C1996 C 0.05693 0.23396 0.41841 0.0
H1997 H 0.02449 0.14529 0.49148 0.0
H1998 H 0.02615 0.17136 0.47469 0.0
C1999 C 0.06038 0.24713 0.40686 0.0
C2000 C 0.05869 0.22563 0.44989 0.0
H2001 H 0.07546 0.18923 0.45995 0.0
C2002 C 0.04653 0.2255 0.46277 0.0
C2003 C 0.06952 0.21267 0.44911 0.0
C2004 C 0.08349 0.21285 0.43625 0.0
C2005 C 0.04467 0.21243 0.47471 0.0
C2006 C 0.0551 0.19908 0.47348 0.0
C2007 C 0.06743 0.19944 0.46079 0.0
C2008 C 0.05348 0.18446 0.48509 0.0
C2009 C 0.03177 0.21319 0.48868 0.0
C2010 C 0.06832 0.18314 0.4964 0.0
C2011 C 0.06744 0.16821 0.50587 0.0
C2012 C 0.0517 0.15431 0.50418 0.0
C2013 C 0.03672 0.15594 0.49324 0.0
C2014 C 0.03763 0.17084 0.48369 0.0
H2015 H 0.02848 0.22712 0.49129 0.0
H2016 H 0.01939 0.2024 0.48329 0.0
H2017 H 0.0371 0.21022 0.50204 0.0
H2018 H 0.08069 0.19349 0.4976 0.0
H2019 H 0.07913 0.1674 0.51436 0.0
H2020 H 0.53665 0.28606 0.20419 0.0
H2021 H 0.56571 0.29451 0.22245 0.0
H2022 H 0.58985 0.28674 0.17229 0.0
H2023 H 0.56087 0.27853 0.15391 0.0
H2024 H 0.58578 0.2688 0.22161 0.0
H2025 H 0.62352 0.33384 0.20274 0.0
H2026 H 0.59975 0.32654 0.19849 0.0
H2027 H 0.61296 0.3165 0.18278 0.0
C2028 C 0.54818 0.28656 0.19702 0.0
C2029 C 0.5465 0.28142 0.17762 0.0
C2030 C 0.56475 0.29146 0.20748 0.0
C2031 C 0.5799 0.29142 0.19871 0.0
C2032 C 0.57834 0.28727 0.17931 0.0
H2033 H 0.68102 0.27343 0.21304 0.0
H2034 H 0.6534 0.28169 0.20435 0.0
C2035 C 0.56177 0.2824 0.16883 0.0
C2036 C 0.5969 0.29275 0.20975 0.0
H2037 H 0.64068 0.31405 0.21488 0.0
C2038 C 0.59775 0.27896 0.22053 0.0
C2039 C 0.61243 0.30602 0.20824 0.0
C2040 C 0.61211 0.32168 0.19758 0.0
C2041 C 0.61391 0.27723 0.22881 0.0
C2042 C 0.62956 0.2899 0.22651 0.0
C2043 C 0.62862 0.30435 0.21657 0.0
C2044 C 0.64703 0.28694 0.23239 0.0
C2045 C 0.61418 0.26109 0.23889 0.0
C2046 C 0.65269 0.28749 0.25108 0.0
C2047 C 0.66844 0.28264 0.25609 0.0
C2048 C 0.6788 0.27741 0.24246 0.0
C2049 C 0.67336 0.27755 0.22384 0.0
C2050 C 0.65762 0.28227 0.21886 0.0
H2051 H 0.60126 0.2507 0.23653 0.0
H2052 H 0.6244 0.25372 0.2344 0.0
H2053 H 0.61742 0.26662 0.25398 0.0
H2054 H 0.6448 0.29135 0.26173 0.0
H2055 H 0.6725 0.28293 0.27057 0.0
H2056 H 0.57581 0.8573 0.9234 0.0
H2057 H 0.57193 0.88432 0.9449 0.0
H2058 H 0.59274 0.92113 0.90829 0.0
H2059 H 0.59655 0.89416 0.88652 0.0
H2060 H 0.5979 0.91708 0.96255 0.0
H2061 H 0.54484 0.93326 0.9174 0.0
H2062 H 0.55109 0.91109 0.91313 0.0
H2063 H 0.56453 0.93165 0.90711 0.0
C2064 C 0.57953 0.87112 0.91985 0.0
C2065 C 0.5864 0.87355 0.90317 0.0
C2066 C 0.57734 0.88653 0.93218 0.0
C2067 C 0.58187 0.90462 0.92804 0.0
C2068 C 0.58891 0.90719 0.91155 0.0
H2069 H 0.59071 0.01062 1.00289 0.0
H2070 H 0.59701 0.98421 0.98218 0.0
C2071 C 0.59113 0.89178 0.89918 0.0
C2072 C 0.57925 0.92077 0.94109 0.0
H2073 H 0.55559 0.95432 0.94575 0.0
C2074 C 0.58868 0.92527 0.95891 0.0
C2075 C 0.5671 0.93124 0.93625 0.0
C2076 C 0.55617 0.92654 0.91749 0.0
C2077 C 0.5863 0.94007 0.97209 0.0
C2078 C 0.57429 0.95066 0.96718 0.0
C2079 C 0.56485 0.94616 0.94937 0.0
C2080 C 0.57093 0.96618 0.98046 0.0
C2081 C 0.59632 0.94406 0.99127 0.0
C2082 C 0.55421 0.96469 0.98626 0.0
C2083 C 0.55061 0.97967 0.99807 0.0
C2084 C 0.56364 0.99642 0.00406 0.0
C2085 C 0.58048 0.99779 0.99852 0.0
C2086 C 0.5841 0.98276 0.98673 0.0
H2087 H 0.60237 0.93238 0.9939 0.0
H2088 H 0.60701 0.957 0.99284 0.0
H2089 H 0.58751 0.94648 1.00194 0.0
H2090 H 0.54391 0.95198 0.98151 0.0
H2091 H 0.53755 0.97828 1.00224 0.0
H2092 H 0.93652 0.73575 0.65605 0.0
H2093 H 0.90792 0.73331 0.66761 0.0
H2094 H 0.93214 0.73296 0.72231 0.0
H2095 H 0.96052 0.73458 0.71075 0.0
H2096 H 0.89871 0.71048 0.71494 0.0
H2097 H 0.90072 0.78104 0.69738 0.0
H2098 H 0.9006 0.76297 0.67799 0.0
H2099 H 0.91915 0.77031 0.69586 0.0
C2100 C 0.93567 0.73487 0.67047 0.0
C2101 C 0.95079 0.73573 0.68259 0.0
C2102 C 0.91936 0.73348 0.67704 0.0
C2103 C 0.91805 0.73342 0.69589 0.0
C2104 C 0.93289 0.73304 0.70772 0.0
H2105 H 0.85497 0.78649 0.76296 0.0
H2106 H 0.87808 0.77393 0.74923 0.0
C2107 C 0.94912 0.73409 0.70111 0.0
C2108 C 0.90194 0.73601 0.70387 0.0
H2109 H 0.87695 0.76792 0.71193 0.0
C2110 C 0.89381 0.72294 0.7142 0.0
C2111 C 0.89579 0.75244 0.70304 0.0
C2112 C 0.90458 0.76759 0.69313 0.0
C2113 C 0.87995 0.72615 0.72415 0.0
C2114 C 0.87398 0.74266 0.72339 0.0
C2115 C 0.88168 0.75531 0.71252 0.0
C2116 C 0.86048 0.74799 0.73449 0.0
C2117 C 0.87232 0.71231 0.73594 0.0
C2118 C 0.84306 0.73716 0.73136 0.0
C2119 C 0.82983 0.74422 0.73946 0.0
C2120 C 0.83388 0.76233 0.7504 0.0
C2121 C 0.85148 0.77259 0.75438 0.0
C2122 C 0.86468 0.76542 0.74658 0.0
H2123 H 0.88093 0.70263 0.73823 0.0
H2124 H 0.87027 0.71975 0.74959 0.0
H2125 H 0.85933 0.70372 0.72888 0.0
H2126 H 0.83952 0.7238 0.72186 0.0
H2127 H 0.81632 0.73605 0.73617 0.0
H2128 H 0.10181 0.01771 0.81544 0.0
H2129 H 0.09 0.01831 0.84506 0.0
H2130 H 0.1413 0.02063 0.87249 0.0
H2131 H 0.15328 0.01959 0.84241 0.0
H2132 H 0.09065 0.99236 0.87257 0.0
H2133 H 0.12432 0.06633 0.90345 0.0
H2134 H 0.1207 0.05806 0.87868 0.0
H2135 H 0.1371 0.05118 0.89266 0.0
C2136 C 0.11074 0.01816 0.82765 0.0
C2137 C 0.12869 0.01846 0.826 0.0
C2138 C 0.10384 0.01857 0.84483 0.0
C2139 C 0.11453 0.01977 0.86157 0.0
C2140 C 0.13251 0.01991 0.8601 0.0
H2141 H 0.08258 0.03808 0.97794 0.0
H2142 H 0.10011 0.03654 0.95157 0.0
C2143 C 0.13941 0.01911 0.84269 0.0
C2144 C 0.10656 0.02058 0.88008 0.0
H2145 H 0.10457 0.05004 0.92089 0.0
C2146 C 0.09385 0.00502 0.8831 0.0
C2147 C 0.11053 0.03684 0.89437 0.0
C2148 C 0.12384 0.05417 0.89229 0.0
C2149 C 0.08528 0.00517 0.89944 0.0
C2150 C 0.08853 0.02177 0.91342 0.0
C2151 C 0.1016 0.03724 0.91057 0.0
C2152 C 0.07801 0.02335 0.93032 0.0
C2153 C 0.07315 0.98704 0.90165 0.0
C2154 C 0.05947 0.01713 0.92797 0.0
C2155 C 0.04953 0.01767 0.9431 0.0
C2156 C 0.05731 0.02496 0.96165 0.0
C2157 C 0.07584 0.03205 0.96417 0.0
C2158 C 0.08596 0.03123 0.94884 0.0
H2159 H 0.07727 0.97468 0.89441 0.0
H2160 H 0.07285 0.98587 0.91643 0.0
H2161 H 0.05962 0.98635 0.89528 0.0
H2162 H 0.05242 0.01181 0.9142 0.0
H2163 H 0.03538 0.01233 0.94009 0.0
H2164 H 0.82828 0.41311 0.57198 0.0
H2165 H 0.84258 0.39543 0.59123 0.0
H2166 H 0.80968 0.34347 0.55969 0.0
H2167 H 0.79572 0.36102 0.54002 0.0
H2168 H 0.82881 0.37312 0.61311 0.0
H2169 H 0.85723 0.33152 0.56017 0.0
H2170 H 0.84887 0.35143 0.55579 0.0
H2171 H 0.83413 0.32857 0.55347 0.0
C2172 C 0.82407 0.39791 0.56917 0.0
C2173 C 0.81088 0.38841 0.5545 0.0
C2174 C 0.83236 0.38784 0.58008 0.0
C2175 C 0.82757 0.36813 0.57653 0.0
C2176 C 0.81405 0.35865 0.56223 0.0
H2177 H 0.81427 0.28057 0.62874 0.0
H2178 H 0.82126 0.30046 0.60612 0.0
C2179 C 0.80588 0.3687 0.55119 0.0
C2180 C 0.83559 0.35745 0.58872 0.0
H2181 H 0.85166 0.31822 0.58791 0.0
C2182 C 0.8343 0.36146 0.60771 0.0
C2183 C 0.84295 0.34239 0.58167 0.0
C2184 C 0.84606 0.33838 0.56168 0.0
C2185 C 0.83866 0.34977 0.61957 0.0
C2186 C 0.84458 0.33376 0.61218 0.0
C2187 C 0.84712 0.33052 0.59348 0.0
C2188 C 0.8446 0.3186 0.62284 0.0
C2189 C 0.83551 0.35376 0.63958 0.0
C2190 C 0.85625 0.32141 0.63911 0.0
C2191 C 0.8524 0.30985 0.65214 0.0
C2192 C 0.83676 0.29553 0.64906 0.0
C2193 C 0.82644 0.29139 0.63167 0.0
C2194 C 0.83038 0.30282 0.61865 0.0
H2195 H 0.82953 0.36598 0.64268 0.0
H2196 H 0.82668 0.34128 0.64314 0.0
H2197 H 0.84822 0.35679 0.64868 0.0
H2198 H 0.86743 0.33344 0.64241 0.0
H2199 H 0.86088 0.31308 0.6652 0.0
H2200 H 0.45552 0.07942 0.33883 0.0
H2201 H 0.46899 0.08971 0.37114 0.0
H2202 H 0.50923 0.05965 0.35958 0.0
H2203 H 0.49642 0.05007 0.32742 0.0
H2204 H 0.471 0.06842 0.39512 0.0
H2205 H 0.53895 0.10555 0.39159 0.0
H2206 H 0.52209 0.10061 0.37198 0.0
H2207 H 0.53453 0.08351 0.37595 0.0
C2208 C 0.46751 0.07543 0.34311 0.0
C2209 C 0.47488 0.06389 0.33057 0.0
C2210 C 0.47519 0.08133 0.36157 0.0
C2211 C 0.49031 0.07574 0.36777 0.0
C2212 C 0.49795 0.06472 0.35507 0.0
H2213 H 0.51569 0.02993 0.45814 0.0
H2214 H 0.50137 0.04082 0.43274 0.0
C2215 C 0.49046 0.05906 0.33665 0.0
C2216 C 0.49688 0.07906 0.38776 0.0
H2217 H 0.53512 0.08705 0.41664 0.0
C2218 C 0.48499 0.07302 0.39997 0.0
C2219 C 0.51503 0.08564 0.3944 0.0
C2220 C 0.52829 0.09439 0.38278 0.0
C2221 C 0.49097 0.07156 0.41802 0.0
C2222 C 0.50931 0.07555 0.42369 0.0
C2223 C 0.52105 0.08345 0.41217 0.0
C2224 C 0.51667 0.06968 0.44036 0.0
C2225 C 0.47757 0.06527 0.43061 0.0
C2226 C 0.53034 0.08211 0.45288 0.0
C2227 C 0.53885 0.07573 0.46711 0.0
C2228 C 0.53371 0.05687 0.4691 0.0
C2229 C 0.51974 0.04458 0.45696 0.0
C2230 C 0.51142 0.05087 0.44257 0.0
H2231 H 0.46546 0.07029 0.42766 0.0
H2232 H 0.47369 0.04969 0.4281 0.0
H2233 H 0.48289 0.07054 0.44542 0.0
H2234 H 0.53469 0.09663 0.45138 0.0
H2235 H 0.54956 0.08548 0.47643 0.0
H2236 H 0.74894 0.67838 0.05974 0.0
H2237 H 0.75269 0.69659 0.09092 0.0
H2238 H 0.79477 0.73818 0.07698 0.0
H2239 H 0.79085 0.72 0.04527 0.0
H2240 H 0.78257 0.70434 0.11559 0.0
H2241 H 0.76501 0.7705 0.10376 0.0
H2242 H 0.75957 0.74938 0.08627 0.0
H2243 H 0.78169 0.76369 0.09083 0.0
C2244 C 0.75892 0.6915 0.06316 0.0
C2245 C 0.76968 0.69767 0.04999 0.0
C2246 C 0.76102 0.70191 0.08105 0.0
C2247 C 0.77396 0.71879 0.08634 0.0
C2248 C 0.7845 0.72534 0.07315 0.0
H2249 H 0.81125 0.76791 0.2027 0.0
H2250 H 0.8095 0.75595 0.16957 0.0
C2251 C 0.7823 0.71492 0.05505 0.0
C2252 C 0.77691 0.72857 0.10602 0.0
H2253 H 0.77458 0.76885 0.13467 0.0
C2254 C 0.78091 0.71848 0.11973 0.0
C2255 C 0.77462 0.74699 0.11144 0.0
C2256 C 0.76985 0.75829 0.09736 0.0
C2257 C 0.78248 0.72617 0.13865 0.0
C2258 C 0.78022 0.74456 0.14407 0.0
C2259 C 0.77637 0.75477 0.13043 0.0
C2260 C 0.78143 0.75309 0.16392 0.0
C2261 C 0.7861 0.71438 0.15274 0.0
C2262 C 0.76625 0.75573 0.17169 0.0
C2263 C 0.76716 0.7625 0.19071 0.0
C2264 C 0.78332 0.76689 0.20228 0.0
C2265 C 0.79856 0.76463 0.19429 0.0
C2266 C 0.79761 0.75779 0.17532 0.0
H2267 H 0.78446 0.6994 0.14632 0.0
H2268 H 0.79984 0.71989 0.15964 0.0
H2269 H 0.77715 0.71518 0.16357 0.0
H2270 H 0.75363 0.75215 0.16311 0.0
H2271 H 0.75518 0.76414 0.19633 0.0
H2272 H 0.10804 1.00393 0.71941 0.0
H2273 H 0.09309 0.00608 0.68937 0.0
H2274 H 0.14328 0.01947 0.66897 0.0
H2275 H 0.15814 0.01694 0.69871 0.0
H2276 H 0.09223 0.03259 0.66976 0.0
H2277 H 0.11874 0.98046 0.62594 0.0
H2278 H 0.12163 0.98354 0.65085 0.0
H2279 H 0.13601 0.99907 0.63923 0.0
C2280 C 0.11595 0.00715 0.70851 0.0
C2281 C 0.13448 0.01003 0.71182 0.0
C2282 C 0.10731 0.00847 0.69114 0.0
C2283 C 0.11674 0.01259 0.67619 0.0
C2284 C 0.13528 0.01569 0.67963 0.0
H2285 H 0.07259 0.05413 0.57907 0.0
H2286 H 0.08696 0.05094 0.60883 0.0
C2287 C 0.14391 0.01436 0.69695 0.0
C2288 C 0.10735 0.01408 0.65741 0.0
H2289 H 0.10436 0.99961 0.61008 0.0
C2290 C 0.09495 0.02528 0.65678 0.0
C2291 C 0.11028 1.00446 0.64001 0.0
C2292 C 0.12224 0.99105 0.63899 0.0
C2293 C 0.086 0.0274 0.63984 0.0
C2294 C 0.08949 0.01841 0.62242 0.0
C2295 C 0.10158 0.00687 0.62306 0.0
C2296 C 0.08064 0.0205 0.60359 0.0
C2297 C 0.07241 0.03896 0.64095 0.0
C2298 C 0.0725 1.00467 0.58971 0.0
C2299 C 0.0643 0.0065 0.57234 0.0
C2300 C 0.06392 0.02429 0.56792 0.0
C2301 C 0.07228 0.04012 0.58169 0.0
C2302 C 0.08049 0.03828 0.59903 0.0
H2303 H 0.06718 0.0397 0.6545 0.0
H2304 H 0.07861 0.05353 0.63951 0.0
H2305 H 0.0612 0.03309 0.62978 0.0
H2306 H 0.07229 0.99069 0.59235 0.0
H2307 H 0.05819 0.99385 0.56235 0.0
H2308 H 0.7997 0.4172 0.43317 0.0
H2309 H 0.80277 0.39513 0.4058 0.0
H2310 H 0.80373 0.35249 0.43899 0.0
H2311 H 0.80064 0.37428 0.46636 0.0
H2312 H 0.83097 0.37335 0.40153 0.0
H2313 H 0.76251 0.3294 0.39522 0.0
H2314 H 0.76895 0.35325 0.408 0.0
H2315 H 0.77537 0.3347 0.41766 0.0
C2316 C 0.80055 0.40313 0.43465 0.0
C2317 C 0.79982 0.39748 0.45193 0.0
C2318 C 0.80238 0.39059 0.41904 0.0
C2319 C 0.80337 0.37222 0.42045 0.0
C2320 C 0.80284 0.36659 0.43766 0.0
H2321 H 0.79486 0.27692 0.33119 0.0
H2322 H 0.80069 0.29621 0.36236 0.0
C2323 C 0.80109 0.37909 0.45326 0.0
C2324 C 0.80452 0.35876 0.40383 0.0
H2325 H 0.78062 0.31989 0.37369 0.0
C2326 C 0.82003 0.36159 0.39543 0.0
C2327 C 0.79027 0.34337 0.39615 0.0
C2328 C 0.77326 0.33995 0.40459 0.0
C2329 C 0.82157 0.34946 0.3793 0.0
C2330 C 0.80707 0.33444 0.37122 0.0
C2331 C 0.79176 0.33136 0.37996 0.0
C2332 C 0.80672 0.32276 0.35286 0.0
C2333 C 0.83871 0.35283 0.37111 0.0
C2334 C 0.80857 0.33129 0.33727 0.0
C2335 C 0.80534 0.32034 0.31955 0.0
C2336 C 0.79996 0.30067 0.31711 0.0
C2337 C 0.79895 0.29207 0.33272 0.0
C2338 C 0.80227 0.30306 0.35049 0.0
H2339 H 0.84997 0.3601 0.3819 0.0
H2340 H 0.84132 0.33945 0.36418 0.0
H2341 H 0.83805 0.36199 0.3607 0.0
H2342 H 0.81157 0.34645 0.33872 0.0
H2343 H 0.80617 0.32734 0.30774 0.0
H2344 H 0.46246 0.04885 0.22896 0.0
H2345 H 0.46931 0.03966 0.19777 0.0
H2346 H 0.41749 1.00264 0.18271 0.0
H2347 H 0.41034 0.01196 0.21416 0.0
H2348 H 0.46709 1.0005 0.1791 0.0
H2349 H 0.42431 0.03796 0.14287 0.0
H2350 H 0.43048 0.04461 0.1676 0.0
H2351 H 0.41562 0.02239 0.15803 0.0
C2352 C 0.45249 0.03883 0.21908 0.0
C2353 C 0.43591 0.03117 0.22398 0.0
C2354 C 0.45642 0.0335 0.20128 0.0
C2355 C 0.4439 0.02044 0.18806 0.0
C2356 C 0.42726 0.01277 0.19278 0.0
H2357 H 0.50759 0.01319 0.09643 0.0
H2358 H 0.48283 0.99948 0.11194 0.0
C2359 C 0.42328 0.01816 0.21068 0.0
C2360 C 0.44874 0.01552 0.16938 0.0
H2361 H 0.449 0.03227 0.12907 0.0
C2362 C 0.46279 0.00678 0.16777 0.0
C2363 C 0.44281 0.02353 0.15467 0.0
C2364 C 0.42746 0.03266 0.15571 0.0
C2365 C 0.47271 0.00818 0.15294 0.0
C2366 C 0.4681 0.01831 0.13934 0.0
C2367 C 0.45257 0.02473 0.13969 0.0
C2368 C 0.48114 0.02615 0.12766 0.0
C2369 C 0.48912 1.0007 0.15313 0.0
C2370 C 0.48789 0.04571 0.13084 0.0
C2371 C 0.5018 0.05357 0.12187 0.0
C2372 C 0.50934 0.04196 0.10972 0.0
C2373 C 0.50225 0.0224 0.10611 0.0
C2374 C 0.48808 0.01456 0.11486 0.0
H2375 H 0.49159 0.99473 0.16571 0.0
H2376 H 0.48777 0.98945 0.14085 0.0
H2377 H 0.50081 0.01206 0.15248 0.0
H2378 H 0.48276 0.0549 0.14078 0.0
H2379 H 0.50701 0.06867 0.12487 0.0
H2380 H 0.78611 0.73059 0.95284 0.0
H2381 H 0.79002 0.74493 0.92532 0.0
H2382 H 0.77801 0.68983 0.89088 0.0
H2383 H 0.7747 0.67547 0.91831 0.0
H2384 H 0.80487 0.71163 0.88009 0.0
H2385 H 0.75238 0.75037 0.88777 0.0
H2386 H 0.76878 0.75668 0.90767 0.0
H2387 H 0.75522 0.73308 0.90163 0.0
C2388 C 0.78432 0.72154 0.9394 0.0
C2389 C 0.78004 0.70188 0.9378 0.0
C2390 C 0.78641 0.72976 0.92363 0.0
C2391 C 0.78394 0.7185 0.90589 0.0
C2392 C 0.77991 0.69886 0.90434 0.0
H2393 H 0.77001 0.76098 0.80276 0.0
H2394 H 0.76573 0.74434 0.8288 0.0
C2395 C 0.77801 0.69066 0.92008 0.0
C2396 C 0.78585 0.72703 0.88895 0.0
H2397 H 0.77144 0.75795 0.86522 0.0
C2398 C 0.79749 0.7217 0.87682 0.0
C2399 C 0.77597 0.73989 0.88437 0.0
C2400 C 0.76225 0.7452 0.89593 0.0
C2401 C 0.79979 0.7291 0.86056 0.0
C2402 C 0.79059 0.74268 0.8565 0.0
C2403 C 0.77867 0.74772 0.8684 0.0
C2404 C 0.79329 0.75202 0.84016 0.0
C2405 C 0.8118 0.72198 0.84771 0.0
C2406 C 0.81017 0.76191 0.83781 0.0
C2407 C 0.81264 0.77123 0.82284 0.0
C2408 C 0.79826 0.77112 0.81003 0.0
C2409 C 0.78135 0.76125 0.81236 0.0
C2410 C 0.7789 0.75179 0.82727 0.0
H2411 H 0.81319 0.70777 0.84953 0.0
H2412 H 0.80684 0.7213 0.83299 0.0
H2413 H 0.8251 0.73163 0.85089 0.0
H2414 H 0.82143 0.76275 0.84776 0.0
H2415 H 0.82581 0.77882 0.82149 0.0
H2416 H 0.79817 0.07282 0.05153 0.0
H2417 H 0.82419 0.05981 0.05058 0.0
H2418 H 0.84579 0.09858 0.01604 0.0
H2419 H 0.82004 0.11191 0.01716 0.0
H2420 H 0.83507 0.04258 0.01946 0.0
H2421 H 0.88729 0.10432 0.05539 0.0
H2422 H 0.86415 0.10301 0.05643 0.0
H2423 H 0.87411 0.10931 0.03656 0.0
C2424 C 0.80855 0.07874 0.04391 0.0
C2425 C 0.80704 0.09341 0.03443 0.0
C2426 C 0.82339 0.07128 0.04339 0.0
C2427 C 0.83698 0.07841 0.03345 0.0
C2428 C 0.83562 0.09318 0.02413 0.0
H2429 H 0.91294 0.02487 0.98513 0.0
H2430 H 0.88735 0.03723 0.99205 0.0
C2431 C 0.82083 0.10069 0.0247 0.0
C2432 C 0.85204 0.06959 0.03178 0.0
H2433 H 0.89691 0.07902 0.03822 0.0
C2434 C 0.84859 0.05048 0.02374 0.0
C2435 C 0.86962 0.07991 0.03755 0.0
C2436 C 0.87404 0.10023 0.04713 0.0
C2437 C 0.86233 0.04151 0.0208 0.0
C2438 C 0.87994 0.05206 0.02576 0.0
C2439 C 0.88338 0.07102 0.03431 0.0
C2440 C 0.89501 0.04384 0.02172 0.0
C2441 C 0.85785 0.02083 0.01247 0.0
C2442 C 0.90792 0.0438 0.03609 0.0
C2443 C 0.92261 0.03686 0.03217 0.0
C2444 C 0.92458 0.02987 0.01379 0.0
C2445 C 0.91156 0.02982 0.99945 0.0
C2446 C 0.89695 0.03686 0.00337 0.0
H2447 H 0.84434 0.01377 0.01463 0.0
H2448 H 0.85841 0.01912 0.99732 0.0
H2449 H 0.86735 0.01362 0.01849 0.0
H2450 H 0.90667 0.04923 0.05033 0.0
H2451 H 0.93243 0.03698 0.04349 0.0
H2452 H 0.36041 0.41287 0.04727 0.0
H2453 H 0.39234 0.42676 0.05178 0.0
H2454 H 0.38447 0.46668 0.01732 0.0
H2455 H 0.35288 0.45328 0.01299 0.0
H2456 H 0.41691 0.43155 0.02607 0.0
H2457 H 0.41224 0.50026 0.06462 0.0
H2458 H 0.39422 0.47963 0.06082 0.0
H2459 H 0.39801 0.49357 0.04306 0.0
C2460 C 0.3655 0.42465 0.04071 0.0
C2461 C 0.35401 0.43207 0.02994 0.0
C2462 C 0.38374 0.43253 0.04327 0.0
C2463 C 0.39074 0.44799 0.03517 0.0
C2464 C 0.37934 0.45506 0.02407 0.0
H2465 H 0.48973 0.49586 1.00293 0.0
H2466 H 0.46179 0.47535 0.00676 0.0
C2467 C 0.36122 0.44729 0.02156 0.0
C2468 C 0.40991 0.45695 0.03808 0.0
H2469 H 0.43875 0.49988 0.05064 0.0
C2470 C 0.42177 0.44643 0.03172 0.0
C2471 C 0.41635 0.47626 0.04582 0.0
C2472 C 0.40456 0.48804 0.05415 0.0
C2473 C 0.43971 0.45499 0.03189 0.0
C2474 C 0.44579 0.47464 0.0382 0.0
C2475 C 0.43411 0.48487 0.04556 0.0
C2476 C 0.46383 0.48522 0.03634 0.0
C2477 C 0.45189 0.44292 0.02522 0.0
C2478 C 0.47431 0.49775 0.05162 0.0
C2479 C 0.49015 0.50972 0.04937 0.0
C2480 C 0.4958 0.5094 0.0318 0.0
C2481 C 0.4857 0.49637 0.01665 0.0
C2482 C 0.46979 0.4845 0.01887 0.0
H2483 H 0.44712 0.42824 0.0273 0.0
H2484 H 0.45231 0.44249 0.01016 0.0
H2485 H 0.4655 0.44856 0.03249 0.0
H2486 H 0.46998 0.49863 0.06522 0.0
H2487 H 0.49774 0.51956 0.06131 0.0
H2488 H 0.41218 0.63229 0.76432 0.0
H2489 H 0.39781 0.65874 0.76633 0.0
H2490 H 0.34748 0.61984 0.74841 0.0
H2491 H 0.36178 0.59345 0.74661 0.0
H2492 H 0.37979 0.67404 0.74328 0.0
H2493 H 0.33258 0.65025 0.7907 0.0
H2494 H 0.3503 0.63908 0.78581 0.0
H2495 H 0.33029 0.6332 0.76991 0.0
C2496 C 0.39801 0.62922 0.76089 0.0
C2497 C 0.38839 0.61023 0.75541 0.0
C2498 C 0.38967 0.6446 0.76201 0.0
C2499 C 0.37117 0.64194 0.75795 0.0
C2500 C 0.36159 0.62294 0.75226 0.0
H2501 H 0.29473 0.71631 0.75764 0.0
H2502 H 0.30969 0.69044 0.7559 0.0
C2503 C 0.36993 0.60757 0.75106 0.0
C2504 C 0.36214 0.65879 0.7593 0.0
H2505 H 0.32804 0.67584 0.7769 0.0
C2506 C 0.36853 0.67432 0.75077 0.0
C2507 C 0.34724 0.65989 0.76894 0.0
C2508 C 0.33978 0.64483 0.77952 0.0
C2509 C 0.36052 0.68999 0.75111 0.0
C2510 C 0.34562 0.69112 0.76078 0.0
C2511 C 0.33928 0.6756 0.76937 0.0
C2512 C 0.33631 0.7078 0.76196 0.0
C2513 C 0.3679 0.70487 0.7403 0.0
C2514 C 0.34565 0.727 0.76626 0.0
C2515 C 0.33694 0.74209 0.76713 0.0
C2516 C 0.31833 0.73894 0.76406 0.0
C2517 C 0.30898 0.71978 0.76013 0.0
C2518 C 0.31769 0.70471 0.75915 0.0
H2519 H 0.37488 0.69925 0.72902 0.0
H2520 H 0.35737 0.71066 0.73408 0.0
H2521 H 0.3776 0.7165 0.74971 0.0
H2522 H 0.35985 0.73052 0.76926 0.0
H2523 H 0.34492 0.75636 0.77035 0.0
H2524 H 0.21257 0.63989 0.50317 0.0
H2525 H 0.18139 0.62678 0.49178 0.0
H2526 H 0.1912 0.57154 0.47829 0.0
H2527 H 0.22241 0.58446 0.49003 0.0
H2528 H 0.16107 0.60363 0.45788 0.0
H2529 H 0.15845 0.56842 0.51924 0.0
H2530 H 0.17719 0.58648 0.51676 0.0
H2531 H 0.17385 0.56307 0.50374 0.0
C2532 C 0.20814 0.62498 0.49759 0.0
C2533 C 0.2198 0.6131 0.49787 0.0
C2534 C 0.19037 0.61757 0.49093 0.0
C2535 C 0.18406 0.59821 0.48439 0.0
C2536 C 0.19588 0.5865 0.48347 0.0
H2537 H 0.07392 0.53706 0.46413 0.0
H2538 H 0.10328 0.54984 0.45619 0.0
C2539 C 0.21364 0.59388 0.49026 0.0
C2540 C 0.16492 0.59009 0.48115 0.0
H2541 H 0.13188 0.56515 0.50064 0.0
C2542 C 0.15464 0.595 0.46703 0.0
C2543 C 0.15668 0.57902 0.4933 0.0
C2544 C 0.16704 0.57401 0.50921 0.0
C2545 C 0.13616 0.58936 0.46502 0.0
C2546 C 0.12805 0.57875 0.47749 0.0
C2547 C 0.13833 0.57332 0.49114 0.0
C2548 C 0.10895 0.57433 0.47804 0.0
C2549 C 0.12532 0.59523 0.45017 0.0
C2550 C 0.10236 0.58433 0.49248 0.0
C2551 C 0.08579 0.57699 0.49722 0.0
C2552 C 0.07562 0.55958 0.4875 0.0
C2553 C 0.08151 0.55053 0.47184 0.0
C2554 C 0.09822 0.55782 0.46722 0.0
H2555 H 0.13365 0.60313 0.44124 0.0
H2556 H 0.11627 0.5826 0.44137 0.0
H2557 H 0.11706 0.60419 0.45668 0.0
H2558 H 0.11062 0.59704 0.50103 0.0
H2559 H 0.08146 0.58433 0.50922 0.0
H2560 H 0.70667 0.9988 0.75115 0.0
H2561 H 0.72373 0.978 0.76202 0.0
H2562 H 0.67653 0.94321 0.77545 0.0
H2563 H 0.6592 0.964 0.76442 0.0
H2564 H 0.72702 0.96666 0.79765 0.0
H2565 H 0.69741 0.90722 0.73907 0.0
H2566 H 0.69546 0.93091 0.73848 0.0
H2567 H 0.68268 0.91722 0.75272 0.0
C2568 C 0.69988 0.98678 0.75646 0.0
C2569 C 0.68156 0.98294 0.75678 0.0
C2570 C 0.70967 0.97496 0.76275 0.0
C2571 C 0.70135 0.95905 0.7694 0.0
C2572 C 0.68313 0.95536 0.77018 0.0
H2573 H 0.76382 0.88176 0.80352 0.0
H2574 H 0.7409 0.89958 0.80362 0.0
C2575 C 0.67328 0.96724 0.76391 0.0
C2576 C 0.7119 0.94606 0.77464 0.0
H2577 H 0.72135 0.90406 0.75864 0.0
C2578 C 0.72558 0.9528 0.78939 0.0
C2579 C 0.70997 0.92805 0.76373 0.0
C2580 C 0.69567 0.92035 0.74754 0.0
C2581 C 0.73789 0.94229 0.79299 0.0
C2582 C 0.73643 0.92474 0.78153 0.0
C2583 C 0.72229 0.91756 0.76739 0.0
C2584 C 0.75063 0.91474 0.78249 0.0
C2585 C 0.75292 0.95031 0.80836 0.0
C2586 C 0.76366 0.91764 0.77071 0.0
C2587 C 0.77676 0.90764 0.77068 0.0
C2588 C 0.777 0.89453 0.78242 0.0
C2589 C 0.76409 0.89194 0.7945 0.0
C2590 C 0.75095 0.90198 0.79451 0.0
H2591 H 0.75165 0.9637 0.81672 0.0
H2592 H 0.75352 0.94 0.81763 0.0
H2593 H 0.76556 0.95291 0.80238 0.0
H2594 H 0.76355 0.92751 0.76138 0.0
H2595 H 0.78662 0.91006 0.76136 0.0
H2596 H 0.73166 0.88899 0.53136 0.0
H2597 H 0.70647 0.90353 0.53014 0.0
H2598 H 0.74187 0.95846 0.54508 0.0
H2599 H 0.76706 0.94413 0.54623 0.0
H2600 H 0.69595 0.92943 0.55813 0.0
H2601 H 0.71253 0.96024 0.4963 0.0
H2602 H 0.72189 0.94182 0.50311 0.0
H2603 H 0.73036 0.96576 0.51481 0.0
C2604 C 0.73406 0.90414 0.53444 0.0
C2605 C 0.75137 0.91539 0.53875 0.0
C2606 C 0.71966 0.91242 0.53376 0.0
C2607 C 0.72233 0.93207 0.53723 0.0
C2608 C 0.73954 0.94329 0.54203 0.0
H2609 H 0.66152 0.01511 0.53707 0.0
H2610 H 0.68388 0.99717 0.53973 0.0
C2611 C 0.75391 0.93505 0.54275 0.0
C2612 C 0.70721 0.94096 0.53568 0.0
H2613 H 0.69045 0.97063 0.51232 0.0
C2614 C 0.69462 0.93832 0.54803 0.0
C2615 C 0.70551 0.95249 0.52244 0.0
C2616 C 0.71818 0.95515 0.50828 0.0
C2617 C 0.68073 0.9475 0.54795 0.0
C2618 C 0.67925 0.95935 0.53494 0.0
C2619 C 0.69164 0.96163 0.52235 0.0
C2620 C 0.66533 0.97004 0.53444 0.0
C2621 C 0.66812 0.94497 0.56218 0.0
C2622 C 0.64741 0.96078 0.53063 0.0
C2623 C 0.6345 0.97105 0.52929 0.0
C2624 C 0.63929 0.9908 0.53163 0.0
C2625 C 0.65728 0.99998 0.53555 0.0
C2626 C 0.67013 0.98972 0.53692 0.0
H2627 H 0.67348 0.93917 0.57381 0.0
H2628 H 0.66508 0.95852 0.56788 0.0
H2629 H 0.65561 0.935 0.55553 0.0
H2630 H 0.6434 0.94558 0.52834 0.0
H2631 H 0.62079 0.96352 0.52636 0.0
H2632 H 0.36689 0.5012 0.7603 0.0
H2633 H 0.34846 0.47002 0.76184 0.0
H2634 H 0.38539 0.44349 0.73462 0.0
H2635 H 0.4034 0.47413 0.73275 0.0
H2636 H 0.35404 0.42406 0.72058 0.0
H2637 H 0.3542 0.43476 0.7966 0.0
H2638 H 0.34533 0.45143 0.78601 0.0
H2639 H 0.36818 0.45125 0.78551 0.0
C2640 C 0.37104 0.48875 0.75453 0.0
C2641 C 0.38687 0.4906 0.74641 0.0
C2642 C 0.36053 0.47074 0.75562 0.0
C2643 C 0.36547 0.45391 0.74868 0.0
C2644 C 0.38103 0.45587 0.74023 0.0
H2645 H 0.32495 0.33917 0.77363 0.0
H2646 H 0.34211 0.37123 0.7731 0.0
C2647 C 0.39146 0.47369 0.73918 0.0
C2648 C 0.35463 0.43427 0.74968 0.0
H2649 H 0.33627 0.40609 0.77928 0.0
C2650 C 0.35018 0.42028 0.73349 0.0
C2651 C 0.34965 0.42868 0.76645 0.0
C2652 C 0.35471 0.44222 0.78468 0.0
C2653 C 0.34103 0.40148 0.73349 0.0
C2654 C 0.33553 0.39602 0.75012 0.0
C2655 C 0.34016 0.40992 0.7664 0.0
C2656 C 0.32494 0.37617 0.75076 0.0
C2657 C 0.33789 0.38748 0.71557 0.0
C2658 C 0.30925 0.36781 0.73867 0.0
C2659 C 0.29954 0.34939 0.73884 0.0
C2660 C 0.30486 0.33849 0.7513 0.0
C2661 C 0.32039 0.34688 0.76369 0.0
C2662 C 0.33022 0.36539 0.76344 0.0
H2663 H 0.34762 0.39189 0.70609 0.0
H2664 H 0.33863 0.37329 0.71802 0.0
H2665 H 0.3246 0.38654 0.70842 0.0
H2666 H 0.3043 0.37561 0.72907 0.0
H2667 H 0.28763 0.34373 0.72919 0.0
H2668 H 0.15542 0.58861 0.21209 0.0
H2669 H 0.17335 0.62093 0.21944 0.0
H2670 H 0.21498 0.60237 0.24757 0.0
H2671 H 0.19739 0.57006 0.24005 0.0
H2672 H 0.18648 0.64217 0.25501 0.0
H2673 H 0.24042 0.63351 0.2127 0.0
H2674 H 0.21966 0.6163 0.20948 0.0
H2675 H 0.23615 0.61735 0.22838 0.0
C2676 C 0.16849 0.59135 0.21961 0.0
C2677 C 0.17499 0.57673 0.22541 0.0
C2678 C 0.17866 0.60982 0.22388 0.0
C2679 C 0.1955 0.61395 0.23393 0.0
C2680 C 0.20212 0.5994 0.23954 0.0
H2681 H 0.25617 0.72807 0.28504 0.0
H2682 H 0.23963 0.69521 0.28112 0.0
C2683 C 0.19201 0.58094 0.23524 0.0
C2684 C 0.20595 0.63358 0.23896 0.0
H2685 H 0.24409 0.66286 0.2325 0.0
C2686 C 0.19909 0.64674 0.25014 0.0
C2687 C 0.22237 0.63938 0.23254 0.0
C2688 C 0.23006 0.62596 0.21998 0.0
C2689 C 0.20817 0.66571 0.25488 0.0
C2690 C 0.22458 0.67149 0.24843 0.0
C2691 C 0.23155 0.65827 0.23751 0.0
C2692 C 0.23402 0.69145 0.25131 0.0
C2693 C 0.19991 0.67951 0.26619 0.0
C2694 C 0.23636 0.70006 0.23586 0.0
C2695 C 0.24582 0.71862 0.23801 0.0
C2696 C 0.25317 0.729 0.25569 0.0
C2697 C 0.25061 0.72045 0.27125 0.0
C2698 C 0.24113 0.70174 0.26906 0.0
H2699 H 0.18586 0.67336 0.26728 0.0
H2700 H 0.20717 0.68383 0.28039 0.0
H2701 H 0.20077 0.69233 0.26002 0.0
H2702 H 0.23092 0.69233 0.22207 0.0
H2703 H 0.24743 0.72476 0.22572 0.0
H2704 H 0.49829 0.72351 0.45694 0.0
H2705 H 0.50073 0.69747 0.4729 0.0
H2706 H 0.50466 0.66337 0.42093 0.0
H2707 H 0.50122 0.68888 0.40489 0.0
H2708 H 0.48591 0.64227 0.43946 0.0
H2709 H 0.54475 0.68317 0.48765 0.0
H2710 H 0.52603 0.69305 0.49026 0.0
H2711 H 0.53562 0.69238 0.46889 0.0
C2712 C 0.49951 0.71038 0.44892 0.0
C2713 C 0.4996 0.70832 0.42964 0.0
C2714 C 0.50112 0.69554 0.45809 0.0
C2715 C 0.50342 0.67849 0.44828 0.0
C2716 C 0.50301 0.67631 0.42894 0.0
H2717 H 0.55133 0.59787 0.49327 0.0
H2718 H 0.54422 0.62409 0.48054 0.0
C2719 C 0.50102 0.69097 0.41974 0.0
C2720 C 0.50634 0.6629 0.45792 0.0
H2721 H 0.53232 0.65257 0.49263 0.0
C2722 C 0.49609 0.64456 0.45108 0.0
C2723 C 0.51979 0.66568 0.47296 0.0
C2724 C 0.53229 0.68459 0.48025 0.0
C2725 C 0.499 0.62903 0.45857 0.0
C2726 C 0.51208 0.6319 0.47398 0.0
C2727 C 0.52218 0.65027 0.48097 0.0
C2728 C 0.51624 0.61601 0.48238 0.0
C2729 C 0.4885 0.60966 0.44927 0.0
C2730 C 0.50302 0.60273 0.48809 0.0
C2731 C 0.50703 0.58742 0.49505 0.0
C2732 C 0.52446 0.58533 0.497 0.0
C2733 C 0.53777 0.59905 0.49204 0.0
C2734 C 0.5337 0.6141 0.48472 0.0
H2735 H 0.48323 0.6094 0.43473 0.0
H2736 H 0.49662 0.59915 0.44921 0.0
H2737 H 0.47711 0.60535 0.45684 0.0
H2738 H 0.48954 0.60413 0.48711 0.0
H2739 H 0.49648 0.57723 0.49893 0.0
H2740 H 0.64452 0.31573 0.62327 0.0
H2741 H 0.67198 0.31213 0.63931 0.0
H2742 H 0.65257 0.3237 0.69181 0.0
H2743 H 0.62514 0.32721 0.67598 0.0
H2744 H 0.69738 0.33716 0.66782 0.0
H2745 H 0.66474 0.2722 0.69114 0.0
H2746 H 0.65432 0.28152 0.67318 0.0
H2747 H 0.65476 0.29157 0.69713 0.0
C2748 C 0.64615 0.31765 0.63824 0.0
C2749 C 0.63257 0.32162 0.64833 0.0
C2750 C 0.66185 0.31557 0.64738 0.0
C2751 C 0.66418 0.3173 0.66673 0.0
C2752 C 0.65091 0.32194 0.67685 0.0
H2753 H 0.75424 0.33324 0.7476 0.0
H2754 H 0.73064 0.33656 0.72539 0.0
C2755 C 0.63527 0.32405 0.66777 0.0
C2756 C 0.68032 0.314 0.67643 0.0
H2757 H 0.69415 0.28673 0.70503 0.0
C2758 C 0.69672 0.32605 0.67583 0.0
C2759 C 0.6795 0.29929 0.68662 0.0
C2760 C 0.66242 0.28527 0.68696 0.0
C2761 C 0.7122 0.32423 0.68578 0.0
C2762 C 0.71121 0.31013 0.69676 0.0
C2763 C 0.69491 0.29763 0.69674 0.0
C2764 C 0.72667 0.30863 0.70912 0.0
C2765 C 0.72947 0.33744 0.68445 0.0
C2766 C 0.73227 0.29177 0.70748 0.0
C2767 C 0.74576 0.28981 0.72024 0.0
C2768 C 0.75373 0.30462 0.73498 0.0
C2769 C 0.74838 0.32161 0.73635 0.0
C2770 C 0.73496 0.32357 0.72358 0.0
H2771 H 0.72896 0.34333 0.67155 0.0
H2772 H 0.73237 0.34935 0.69637 0.0
H2773 H 0.74046 0.33024 0.68486 0.0
H2774 H 0.726 0.28001 0.6965 0.0
H2775 H 0.74959 0.27654 0.71888 0.0
H2776 H 0.00498 0.31404 0.94586 0.0
H2777 H 0.00736 0.34585 0.96331 0.0
H2778 H 0.04275 0.36904 0.92684 0.0
H2779 H 0.04029 0.33763 0.9093 0.0
H2780 H 0.03618 0.37557 0.9818 0.0
H2781 H 0.00237 0.39542 0.92163 0.0
H2782 H 0.0025 0.37135 0.92283 0.0
H2783 H 0.02122 0.38658 0.91624 0.0
C2784 C 0.01341 0.32591 0.94171 0.0
C2785 C 0.02224 0.32328 0.92602 0.0
C2786 C 0.01475 0.34407 0.95167 0.0
C2787 C 0.02492 0.35985 0.9461 0.0
C2788 C 0.03448 0.35713 0.93111 0.0
H2789 H 0.06074 0.47667 1.0017 0.0
H2790 H 0.05785 0.44324 0.98986 0.0
C2791 C 0.03309 0.3391 0.92113 0.0
C2792 C 0.0251 0.37927 0.95531 0.0
H2793 H 0.01673 0.42041 0.94631 0.0
C2794 C 0.0318 0.38536 0.97411 0.0
C2795 C 0.01911 0.39196 0.94536 0.0
C2796 C 0.01073 0.38597 0.92545 0.0
C2797 C 0.03319 0.40399 0.98306 0.0
C2798 C 0.02804 0.41693 0.97282 0.0
C2799 C 0.02087 0.41062 0.95416 0.0
C2800 C 0.02979 0.43707 0.98102 0.0
C2801 C 0.03994 0.40951 0.00344 0.0
C2802 C 0.0151 0.44494 0.97967 0.0
C2803 C 0.01679 0.4641 0.98609 0.0
C2804 C 0.0332 0.4759 0.9941 0.0
C2805 C 0.04788 0.46799 0.9957 0.0
C2806 C 0.04621 0.4488 0.98907 0.0
H2807 H 0.03812 0.39707 0.01031 0.0
H2808 H 0.05426 0.41615 0.00516 0.0
H2809 H 0.03317 0.41973 0.01059 0.0
H2810 H 0.0023 0.43623 0.97347 0.0
H2811 H 0.00517 0.46966 0.98473 0.0
H2812 H 0.01757 0.8133 0.13896 0.0
H2813 H 0.98861 0.81163 0.14989 0.0
H2814 H 0.00534 0.78785 0.19598 0.0
H2815 H 0.03407 0.7896 0.18545 0.0
H2816 H 0.96354 0.7796 0.15645 0.0
H2817 H 0.98756 0.83251 0.22077 0.0
H2818 H 1.00051 0.83017 0.20183 0.0
H2819 H 0.99958 0.81449 0.21815 0.0
C2820 C 0.01509 0.80781 0.15147 0.0
C2821 C 0.02824 0.80173 0.16138 0.0
C2822 C 0.99854 0.80682 0.15766 0.0
C2823 C 0.99494 0.7999 0.17392 0.0
C2824 C 0.00794 0.79361 0.18363 0.0
H2825 H 0.91297 0.77356 0.24151 0.0
H2826 H 0.93922 0.77716 0.22552 0.0
C2827 C 0.02439 0.79456 0.1775 0.0
C2828 C 0.97759 0.79888 0.18085 0.0
H2829 H 0.95896 0.8123 0.2194 0.0
C2830 C 0.96244 0.78695 0.17009 0.0
C2831 C 0.97621 0.80851 0.19864 0.0
C2832 C 0.9918 0.82229 0.21046 0.0
C2833 C 0.9461 0.7837 0.17705 0.0
C2834 C 0.94491 0.79279 0.19513 0.0
C2835 C 0.95994 0.80519 0.20561 0.0
C2836 C 0.92838 0.78932 0.20378 0.0
C2837 C 0.93041 0.77004 0.16533 0.0
C2838 C 0.91351 0.79483 0.19678 0.0
C2839 C 0.89849 0.79289 0.20596 0.0
C2840 C 0.89809 0.78547 0.22238 0.0
C2841 C 0.91289 0.77954 0.22906 0.0
C2842 C 0.92788 0.78151 0.21989 0.0
H2843 H 0.93428 0.76145 0.15331 0.0
H2844 H 0.92317 0.76047 0.17371 0.0
H2845 H 0.92124 0.77796 0.15996 0.0
H2846 H 0.91372 0.8012 0.18456 0.0
H2847 H 0.88746 0.79788 0.20059 0.0
H2848 H 0.4874 0.27812 0.08769 0.0
H2849 H 0.48876 0.30371 0.07033 0.0
H2850 H 0.47779 0.33914 0.11806 0.0
H2851 H 0.47654 0.31366 0.13563 0.0
H2852 H 0.4652 0.32743 0.06237 0.0
H2853 H 0.52743 0.36592 0.10733 0.0
H2854 H 0.51782 0.34133 0.10662 0.0
H2855 H 0.50863 0.35896 0.11913 0.0
C2856 C 0.48495 0.29123 0.09441 0.0
C2857 C 0.48209 0.29396 0.11311 0.0
C2858 C 0.4857 0.30581 0.08445 0.0
C2859 C 0.48367 0.32335 0.09304 0.0
C2860 C 0.47964 0.32575 0.1113 0.0
H2861 H 0.4863 0.42085 0.03952 0.0
H2862 H 0.47714 0.39504 0.0562 0.0
C2863 C 0.47886 0.31116 0.12128 0.0
C2864 C 0.48736 0.33952 0.0834 0.0
H2865 H 0.51733 0.38073 0.08408 0.0
C2866 C 0.4765 0.33918 0.06714 0.0
C2867 C 0.5023 0.35462 0.08958 0.0
C2868 C 0.51484 0.35527 0.10653 0.0
C2869 C 0.48022 0.35362 0.05685 0.0
C2870 C 0.4951 0.36877 0.06311 0.0
C2871 C 0.50589 0.36912 0.07941 0.0
C2872 C 0.50022 0.38404 0.0526 0.0
C2873 C 0.46856 0.35232 0.03909 0.0
C2874 C 0.51634 0.38653 0.04533 0.0
C2875 C 0.52167 0.4013 0.03595 0.0
C2876 C 0.51102 0.41395 0.03379 0.0
C2877 C 0.49485 0.41142 0.0411 0.0
C2878 C 0.48951 0.39658 0.05045 0.0
H2879 H 0.45981 0.33804 0.03432 0.0
H2880 H 0.46014 0.36249 0.04135 0.0
H2881 H 0.47661 0.35598 0.02796 0.0
H2882 H 0.52484 0.37705 0.04698 0.0
H2883 H 0.5343 0.40303 0.0307 0.0
H2884 H 0.02931 0.28745 0.34526 0.0
H2885 H 1.0006 0.2815 0.3269 0.0
H2886 H 0.0257 0.29945 0.28092 0.0
H2887 H 0.05451 0.30579 0.29929 0.0
H2888 H 1.0015 0.31854 0.29086 0.0
H2889 H 0.97238 0.24249 0.2838 0.0
H2890 H 0.98071 0.25314 0.30741 0.0
H2891 H 0.99569 0.25265 0.29025 0.0
C2892 C 0.02877 0.28977 0.33112 0.0
C2893 C 0.04418 0.29728 0.32381 0.0
C2894 C 0.01235 0.28618 0.32057 0.0
C2895 C 0.01106 0.2898 0.30246 0.0
C2896 C 0.02645 0.29645 0.29482 0.0
H2897 H 0.91294 0.30452 0.24527 0.0
H2898 H 0.94255 0.29872 0.24892 0.0
C2899 C 0.04289 0.30013 0.30538 0.0
C2900 C 0.99366 0.28925 0.29268 0.0
H2901 H 0.95167 0.26228 0.28159 0.0
C2902 C 0.99068 0.30612 0.28836 0.0
C2903 C 0.97963 0.27302 0.28945 0.0
C2904 C 0.98231 0.25426 0.2928 0.0
C2905 C 0.97374 0.30757 0.28217 0.0
C2906 C 0.95953 0.29163 0.28004 0.0
C2907 C 0.96265 0.27446 0.28331 0.0
C2908 C 0.94117 0.2932 0.27674 0.0
C2909 C 0.97099 0.32644 0.27917 0.0
C2910 C 0.93058 0.29157 0.29102 0.0
C2911 C 0.91381 0.29493 0.28904 0.0
C2912 C 0.9073 0.29993 0.27268 0.0
C2913 C 0.91774 0.30098 0.25814 0.0
C2914 C 0.93457 0.29759 0.26015 0.0
H2915 H 0.98304 0.33792 0.28393 0.0
H2916 H 0.96725 0.32584 0.26419 0.0
H2917 H 0.96011 0.32998 0.28663 0.0
H2918 H 0.93554 0.28831 0.30398 0.0
H2919 H 0.90618 0.29424 0.30057 0.0
H2920 H 0.01857 0.68611 0.64357 0.0
H2921 H 0.0183 0.6569 0.62266 0.0
H2922 H 0.98573 0.67222 0.58037 0.0
H2923 H 0.98613 0.7016 0.60101 0.0
H2924 H 0.98992 0.62729 0.60452 0.0
H2925 H 0.02824 0.66286 0.55491 0.0
H2926 H 0.02654 0.67488 0.57774 0.0
H2927 H 0.00864 0.67062 0.55945 0.0
C2928 C 0.01135 0.68329 0.62982 0.0
C2929 C 0.00252 0.69628 0.62389 0.0
C2930 C 0.01116 0.66657 0.61794 0.0
C2931 C 0.00218 0.66257 0.59994 0.0
C2932 C 0.99299 0.67524 0.59411 0.0
H2933 H 0.9839 0.55478 0.52336 0.0
H2934 H 0.97932 0.58211 0.54432 0.0
C2935 C 0.99323 0.69201 0.60595 0.0
C2936 C 0.00281 0.64532 0.58714 0.0
H2937 H 0.01759 0.62995 0.54672 0.0
C2938 C 0.99592 0.62781 0.59184 0.0
C2939 C 0.01079 0.64616 0.57073 0.0
C2940 C 0.01912 0.66462 0.56543 0.0
C2941 C 0.99688 0.61102 0.58055 0.0
C2942 C 0.00473 0.61189 0.56408 0.0
C2943 C 0.01147 0.62939 0.55932 0.0
C2944 C 0.00714 0.59493 0.55207 0.0
C2945 C 0.99002 0.59257 0.5866 0.0
C2946 C 0.02425 0.59328 0.5494 0.0
C2947 C 0.02685 0.57791 0.53738 0.0
C2948 C 0.01239 0.5639 0.52784 0.0
C2949 C 0.99524 0.56541 0.53062 0.0
C2950 C 0.99263 0.5809 0.54264 0.0
H2951 H 0.98775 0.5946 0.60137 0.0
H2952 H 0.9773 0.58518 0.57806 0.0
H2953 H 0.99937 0.58338 0.58456 0.0
H2954 H 0.0356 0.60401 0.55652 0.0
H2955 H 0.04021 0.57713 0.5354 0.0
H2956 H 0.62919 0.81308 0.8333 0.0
H2957 H 0.65737 0.82074 0.82156 0.0
H2958 H 0.68386 0.83925 0.87743 0.0
H2959 H 0.65542 0.83121 0.88946 0.0
H2960 H 0.68394 0.85436 0.82628 0.0
H2961 H 0.70654 0.79729 0.85516 0.0
H2962 H 0.68393 0.79902 0.85437 0.0
H2963 H 0.70061 0.81534 0.87096 0.0
C2964 C 0.64097 0.81881 0.84316 0.0
C2965 C 0.64014 0.82133 0.86231 0.0
C2966 C 0.65705 0.82336 0.8364 0.0
C2967 C 0.67265 0.83053 0.84863 0.0
C2968 C 0.67192 0.83359 0.8678 0.0
H2969 H 0.76795 0.83878 0.79184 0.0
H2970 H 0.74786 0.8506 0.8117 0.0
C2971 C 0.65573 0.82894 0.87463 0.0
C2972 C 0.68952 0.83295 0.84084 0.0
H2973 H 0.72181 0.80979 0.83257 0.0
C2974 C 0.69258 0.84502 0.82798 0.0
C2975 C 0.70067 0.82069 0.84315 0.0
C2976 C 0.69784 0.80726 0.85657 0.0
C2977 C 0.70566 0.84403 0.81629 0.0
C2978 C 0.71578 0.8307 0.81765 0.0
C2979 C 0.71379 0.81986 0.83157 0.0
C2980 C 0.72667 0.82564 0.80331 0.0
C2981 C 0.70771 0.85609 0.80164 0.0
C2982 C 0.72106 0.808 0.79165 0.0
C2983 C 0.73247 0.80112 0.78047 0.0
C2984 C 0.74967 0.81182 0.78079 0.0
C2985 C 0.75476 0.83018 0.79132 0.0
C2986 C 0.74334 0.837 0.80267 0.0
H2987 H 0.69873 0.86578 0.8024 0.0
H2988 H 0.7215 0.86455 0.80325 0.0
H2989 H 0.70498 0.84701 0.7877 0.0
H2990 H 0.70815 0.79913 0.79197 0.0
H2991 H 0.72812 0.78702 0.77238 0.0
H2992 H 0.46932 0.56725 0.70963 0.0
H2993 H 0.48331 0.56491 0.68107 0.0
H2994 H 0.43257 0.53943 0.64936 0.0
H2995 H 0.41857 0.5425 0.67776 0.0
H2996 H 0.48909 0.53993 0.65632 0.0
H2997 H 0.44699 0.5733 0.61548 0.0
H2998 H 0.44564 0.57328 0.63973 0.0
H2999 H 0.43424 0.55307 0.62253 0.0
C3000 C 0.46102 0.56131 0.69659 0.0
C3001 C 0.44256 0.5553 0.69646 0.0
C3002 C 0.46915 0.55989 0.67999 0.0
C3003 C 0.4593 0.55237 0.66227 0.0
C3004 C 0.44086 0.54601 0.66225 0.0
H3005 H 0.4937 0.52744 0.54759 0.0
H3006 H 0.47629 0.52799 0.57412 0.0
C3007 C 0.43272 0.5476 0.67881 0.0
C3008 C 0.46836 0.55073 0.64428 0.0
H3009 H 0.46608 0.55797 0.59892 0.0
C3010 C 0.48392 0.54403 0.64392 0.0
C3011 C 0.46213 0.55585 0.62745 0.0
C3012 C 0.44645 0.56446 0.62632 0.0
C3013 C 0.49296 0.54221 0.62792 0.0
C3014 C 0.48673 0.54731 0.61116 0.0
C3015 C 0.47109 0.5538 0.61135 0.0
C3016 C 0.49692 0.54713 0.59405 0.0
C3017 C 0.50917 0.53447 0.6291 0.0
C3018 C 0.51438 0.55787 0.59556 0.0
C3019 C 0.52421 0.55779 0.58031 0.0
C3020 C 0.5173 0.54693 0.56249 0.0
C3021 C 0.49969 0.53621 0.56075 0.0
C3022 C 0.48967 0.53648 0.57615 0.0
H3023 H 0.50935 0.5261 0.64028 0.0
H3024 H 0.51003 0.52548 0.61579 0.0
H3025 H 0.52105 0.54632 0.63224 0.0
H3026 H 0.52056 0.56658 0.60871 0.0
H3027 H 0.53757 0.56636 0.58266 0.0
H3028 H 0.78578 0.19183 0.99712 0.0
H3029 H 0.78489 0.20997 0.97235 0.0
H3030 H 0.77755 0.15935 0.93155 0.0
H3031 H 0.77867 0.14108 0.95625 0.0
H3032 H 0.80074 0.19104 0.92329 0.0
H3033 H 0.73748 0.20627 0.94146 0.0
H3034 H 0.75495 0.21307 0.96043 0.0
H3035 H 0.7466 0.18863 0.9503 0.0
C3036 C 0.78428 0.1846 0.98289 0.0
C3037 C 0.78209 0.16502 0.97859 0.0
C3038 C 0.78364 0.19495 0.96878 0.0
C3039 C 0.78067 0.18586 0.95021 0.0
C3040 C 0.77965 0.16653 0.94585 0.0
H3041 H 0.76444 0.2257 0.84685 0.0
H3042 H 0.76529 0.20577 0.87016 0.0
C3043 C 0.78037 0.15615 0.95996 0.0
C3044 C 0.77792 0.19641 0.93536 0.0
H3045 H 0.75122 0.2225 0.91929 0.0
C3046 C 0.78987 0.19783 0.9223 0.0
C3047 C 0.7636 0.20506 0.93412 0.0
C3048 C 0.74981 0.20307 0.94721 0.0
C3049 C 0.7882 0.20826 0.9083 0.0
C3050 C 0.77411 0.21724 0.90733 0.0
C3051 C 0.76201 0.21559 0.9202 0.0
C3052 C 0.77215 0.22899 0.8934 0.0
C3053 C 0.80173 0.21003 0.89493 0.0
C3054 C 0.77514 0.2485 0.89894 0.0
C3055 C 0.77474 0.25991 0.88571 0.0
C3056 C 0.77126 0.25191 0.86677 0.0
C3057 C 0.76749 0.23225 0.86134 0.0
C3058 C 0.76792 0.22087 0.87459 0.0
H3059 H 0.81345 0.20506 0.89959 0.0
H3060 H 0.79574 0.20145 0.88119 0.0
H3061 H 0.80612 0.22486 0.89318 0.0
H3062 H 0.77837 0.25494 0.91346 0.0
H3063 H 0.77784 0.27502 0.89028 0.0
H3064 H 0.14794 0.50431 0.16091 0.0
H3065 H 0.12846 0.50517 0.13343 0.0
H3066 H 0.08347 0.47868 0.15745 0.0
H3067 H 0.10278 0.47828 0.18516 0.0
H3068 H 0.10261 0.48008 0.10717 0.0
H3069 H 0.0743 0.5299 0.15285 0.0
H3070 H 0.09382 0.5227 0.16043 0.0
H3071 H 0.07238 0.50752 0.1598 0.0
C3072 C 0.13394 0.49826 0.16014 0.0
C3073 C 0.12681 0.49152 0.17528 0.0
C3074 C 0.12283 0.49878 0.14445 0.0
C3075 C 0.10451 0.49244 0.14366 0.0
C3076 C 0.09755 0.48407 0.15801 0.0
H3077 H 0.02616 0.49056 0.05085 0.0
H3078 H 0.04394 0.48142 0.07534 0.0
C3079 C 0.1086 0.48376 0.17377 0.0
C3080 C 0.09263 0.49633 0.12885 0.0
H3081 H 0.06131 0.52077 0.12169 0.0
C3082 C 0.0935 0.48888 0.1103 0.0
C3083 C 0.08107 0.5082 0.13302 0.0
C3084 C 0.08041 0.51771 0.15257 0.0
C3085 C 0.08295 0.49286 0.0958 0.0
C3086 C 0.07106 0.50427 0.10006 0.0
C3087 C 0.07027 0.51178 0.11856 0.0
C3088 C 0.06003 0.50956 0.08551 0.0
C3089 C 0.08497 0.48538 0.07602 0.0
C3090 C 0.06287 0.52845 0.08359 0.0
C3091 C 0.05271 0.53367 0.0698 0.0
C3092 C 0.03953 0.52009 0.05775 0.0
C3093 C 0.03626 0.50127 0.06003 0.0
C3094 C 0.0465 0.49602 0.07383 0.0
H3095 H 0.09696 0.47981 0.07505 0.0
H3096 H 0.07332 0.47383 0.06994 0.0
H3097 H 0.08566 0.49657 0.06757 0.0
H3098 H 0.07316 0.5391 0.09259 0.0
H3099 H 0.05538 0.54829 0.06832 0.0
H3100 H 0.80034 0.84474 0.48104 0.0
H3101 H 0.8007 0.82658 0.45013 0.0
H3102 H 0.77967 0.86695 0.42501 0.0
H3103 H 0.77929 0.88508 0.45548 0.0
H3104 H 0.77281 0.81074 0.41881 0.0
H3105 H 0.82647 0.86605 0.40292 0.0
H3106 H 0.82135 0.86504 0.42619 0.0
H3107 H 0.80826 0.87471 0.41086 0.0
C3108 C 0.79564 0.84964 0.46893 0.0
C3109 C 0.78998 0.8665 0.4708 0.0
C3110 C 0.79587 0.83925 0.45129 0.0
C3111 C 0.79052 0.84562 0.43528 0.0
C3112 C 0.78417 0.86197 0.43716 0.0
H3113 H 0.76123 0.79727 0.31983 0.0
H3114 H 0.76231 0.8076 0.35315 0.0
C3115 C 0.78394 0.8723 0.45466 0.0
C3116 C 0.79193 0.83571 0.4165 0.0
H3117 H 0.81061 0.8428 0.37733 0.0
C3118 C 0.78122 0.81762 0.40978 0.0
C3119 C 0.8031 0.84458 0.40483 0.0
C3120 C 0.81558 0.86359 0.41159 0.0
C3121 C 0.78083 0.80852 0.3914 0.0
C3122 C 0.79123 0.8179 0.37939 0.0
C3123 C 0.8025 0.83565 0.38643 0.0
C3124 C 0.79029 0.81 0.35935 0.0
C3125 C 0.76928 0.78897 0.38503 0.0
C3126 C 0.80569 0.80812 0.3516 0.0
C3127 C 0.80517 0.80242 0.33248 0.0
C3128 C 0.78922 0.79852 0.32065 0.0
C3129 C 0.77374 0.80005 0.32849 0.0
C3130 C 0.7743 0.80582 0.34761 0.0
H3131 H 0.76674 0.78163 0.39688 0.0
H3132 H 0.75639 0.78989 0.37826 0.0
H3133 H 0.77534 0.78038 0.3749 0.0
H3134 H 0.81821 0.81137 0.36034 0.0
H3135 H 0.81734 0.80139 0.32698 0.0
H3136 H 0.46316 0.52791 0.80422 0.0
H3137 H 0.47478 0.52737 0.83558 0.0
H3138 H 0.45529 0.57581 0.85567 0.0
H3139 H 0.44277 0.57588 0.82379 0.0
H3140 H 0.49884 0.547 0.85922 0.0
H3141 H 0.43989 0.54867 0.89488 0.0
H3142 H 0.43878 0.54563 0.87003 0.0
H3143 H 0.44645 0.56872 0.88418 0.0
C3144 C 0.46111 0.53853 0.81517 0.0
C3145 C 0.45178 0.55196 0.8109 0.0
C3146 C 0.46795 0.5382 0.83345 0.0
C3147 C 0.46605 0.55135 0.84876 0.0
C3148 C 0.45678 0.56497 0.84464 0.0
H3149 H 0.51243 0.56751 0.96823 0.0
H3150 H 0.49907 0.57187 0.93825 0.0
C3151 C 0.44964 0.56516 0.82615 0.0
C3152 C 0.4743 0.55069 0.86843 0.0
H3153 H 0.46652 0.55102 0.91393 0.0
C3154 C 0.49155 0.54782 0.87102 0.0
C3155 C 0.46532 0.55177 0.88447 0.0
C3156 C 0.44654 0.55368 0.88329 0.0
C3157 C 0.49974 0.54599 0.88845 0.0
C3158 C 0.49075 0.54697 0.90438 0.0
C3159 C 0.47368 0.55024 0.90201 0.0
C3160 C 0.49873 0.5442 0.92326 0.0
C3161 C 0.51825 0.54323 0.88968 0.0
C3162 C 0.5031 0.52714 0.92553 0.0
C3163 C 0.51062 0.52452 0.94286 0.0
C3164 C 0.51433 0.53889 0.9588 0.0
C3165 C 0.50995 0.55599 0.95653 0.0
C3166 C 0.50218 0.55852 0.93922 0.0
H3167 H 0.52499 0.54735 0.87781 0.0
H3168 H 0.52622 0.55152 0.90275 0.0
H3169 H 0.51778 0.52816 0.88958 0.0
H3170 H 0.50055 0.51562 0.91384 0.0
H3171 H 0.51362 0.5111 0.94369 0.0
H3172 H 0.77779 0.18432 0.06712 0.0
H3173 H 0.78077 0.20916 0.09418 0.0
H3174 H 0.75467 0.16846 0.12454 0.0
H3175 H 0.75153 0.14344 0.09754 0.0
H3176 H 0.75147 0.2185 0.116 0.0
H3177 H 0.80488 0.19646 0.15504 0.0
H3178 H 0.79976 0.19014 0.13014 0.0
H3179 H 0.78581 0.17815 0.14469 0.0
C3180 C 0.77267 0.18062 0.07954 0.0
C3181 C 0.76451 0.16187 0.08023 0.0
C3182 C 0.77432 0.19485 0.09492 0.0
C3183 C 0.768 0.19054 0.11126 0.0
C3184 C 0.75969 0.17195 0.11199 0.0
H3185 H 0.77321 0.24493 0.22275 0.0
H3186 H 0.76645 0.22422 0.19264 0.0
C3187 C 0.75791 0.15771 0.09658 0.0
C3188 C 0.77055 0.20539 0.1278 0.0
H3189 H 0.79304 0.22001 0.17118 0.0
C3190 C 0.7606 0.21898 0.12808 0.0
C3191 C 0.78259 0.20592 0.14334 0.0
C3192 C 0.79401 0.192 0.14336 0.0
C3193 C 0.76192 0.23276 0.14395 0.0
C3194 C 0.77368 0.23299 0.15966 0.0
C3195 C 0.78395 0.21969 0.15911 0.0
C3196 C 0.77515 0.2463 0.17724 0.0
C3197 C 0.75035 0.24652 0.14402 0.0
C3198 C 0.78181 0.2657 0.17849 0.0
C3199 C 0.78546 0.2777 0.19579 0.0
C3200 C 0.78268 0.27034 0.21197 0.0
C3201 C 0.77532 0.25104 0.21052 0.0
C3202 C 0.77154 0.23916 0.19333 0.0
H3203 H 0.73952 0.24204 0.13231 0.0
H3204 H 0.74454 0.24822 0.15721 0.0
H3205 H 0.75844 0.26046 0.14278 0.0
H3206 H 0.78494 0.27142 0.16625 0.0
H3207 H 0.79123 0.29252 0.19657 0.0
H3208 H 0.09744 0.53739 0.26951 0.0
H3209 H 0.09091 0.5444 0.30116 0.0
H3210 H 0.14233 0.53891 0.32183 0.0
H3211 H 0.14885 0.53136 0.29004 0.0
H3212 H 0.11737 0.51878 0.337 0.0
H3213 H 0.10547 0.58968 0.34179 0.0
H3214 H 0.09267 0.57464 0.32147 0.0
H3215 H 0.1164 0.57965 0.32352 0.0
C3216 C 0.10745 0.53786 0.28076 0.0
C3217 C 0.12362 0.53372 0.27726 0.0
C3218 C 0.10379 0.54212 0.29888 0.0
C3219 C 0.11631 0.54266 0.31387 0.0
C3220 C 0.13258 0.53881 0.31045 0.0
H3221 H 0.08073 0.53889 0.42395 0.0
H3222 H 0.10182 0.54753 0.40232 0.0
C3223 C 0.13622 0.53438 0.29229 0.0
C3224 C 0.11137 0.54491 0.33283 0.0
H3225 H 0.0889 0.56963 0.36103 0.0
C3226 C 0.11168 0.53022 0.34259 0.0
C3227 C 0.10414 0.55996 0.34021 0.0
C3228 C 0.10485 0.57696 0.33125 0.0
C3229 C 0.10336 0.52924 0.35856 0.0
C3230 C 0.09456 0.54329 0.36479 0.0
C3231 C 0.09554 0.5588 0.356 0.0
C3232 C 0.08205 0.54039 0.37836 0.0
C3233 C 0.10277 0.51245 0.36785 0.0
C3234 C 0.06405 0.53385 0.37193 0.0
C3235 C 0.05204 0.52866 0.3841 0.0
C3236 C 0.05788 0.53001 0.40292 0.0
C3237 C 0.07591 0.53732 0.40944 0.0
C3238 C 0.08794 0.54244 0.3972 0.0
H3239 H 0.11009 0.50258 0.36106 0.0
H3240 H 0.10856 0.51726 0.38257 0.0
H3241 H 0.08887 0.50475 0.36759 0.0
H3242 H 0.05938 0.53209 0.35734 0.0
H3243 H 0.0383 0.52294 0.37864 0.0
H3244 H 0.81448 0.89112 0.60327 0.0
H3245 H 0.81306 0.87793 0.63156 0.0
H3246 H 0.78626 0.82365 0.59945 0.0
H3247 H 0.7878 0.8367 0.571 0.0
H3248 H 0.78316 0.86193 0.64565 0.0
H3249 H 0.82472 0.81084 0.63252 0.0
H3250 H 0.82462 0.82932 0.61934 0.0
H3251 H 0.80722 0.80824 0.61421 0.0
C3252 C 0.80848 0.87631 0.60216 0.0
C3253 C 0.8013 0.86496 0.58482 0.0
C3254 C 0.80764 0.8688 0.61839 0.0
C3255 C 0.79971 0.84975 0.61767 0.0
C3256 C 0.79274 0.8383 0.60036 0.0
H3257 H 0.75697 0.79677 0.70586 0.0
H3258 H 0.76181 0.81164 0.67882 0.0
C3259 C 0.79357 0.84581 0.58409 0.0
C3260 C 0.79795 0.84218 0.63511 0.0
H3261 H 0.80812 0.80859 0.65796 0.0
C3262 C 0.78869 0.85032 0.64837 0.0
C3263 C 0.80535 0.82719 0.6388 0.0
C3264 C 0.81618 0.81848 0.62557 0.0
C3265 C 0.7863 0.84363 0.66498 0.0
C3266 C 0.79314 0.82819 0.66836 0.0
C3267 C 0.80275 0.82032 0.65531 0.0
C3268 C 0.79022 0.8198 0.68519 0.0
C3269 C 0.77661 0.85327 0.67886 0.0
C3270 C 0.80457 0.81925 0.69771 0.0
C3271 C 0.80183 0.81071 0.71318 0.0
C3272 C 0.78467 0.8024 0.7163 0.0
C3273 C 0.77033 0.80312 0.70385 0.0
C3274 C 0.77308 0.81168 0.68843 0.0
H3275 H 0.77647 0.86769 0.67662 0.0
H3276 H 0.76275 0.84507 0.67738 0.0
H3277 H 0.78268 0.85416 0.69325 0.0
H3278 H 0.81791 0.82536 0.69546 0.0
H3279 H 0.81314 0.8103 0.72248 0.0
H3280 H 0.73024 0.415 0.51621 0.0
H3281 H 0.70476 0.42877 0.52005 0.0
H3282 H 0.73829 0.48415 0.52413 0.0
H3283 H 0.76373 0.47068 0.52056 0.0
H3284 H 0.71566 0.48077 0.55204 0.0
H3285 H 0.68008 0.45193 0.48099 0.0
H3286 H 0.68623 0.43532 0.49399 0.0
H3287 H 0.70302 0.45236 0.48678 0.0
C3288 C 0.73214 0.4301 0.51786 0.0
C3289 C 0.74895 0.44176 0.51806 0.0
C3290 C 0.7176 0.43792 0.52 0.0
C3291 C 0.7197 0.45745 0.52223 0.0
C3292 C 0.73645 0.46907 0.52244 0.0
H3293 H 0.66451 0.5442 0.52979 0.0
H3294 H 0.68566 0.52443 0.53039 0.0
C3295 C 0.75094 0.46131 0.52036 0.0
C3296 C 0.70461 0.46608 0.52447 0.0
H3297 H 0.66736 0.47174 0.50093 0.0
C3298 C 0.705 0.47869 0.54095 0.0
C3299 C 0.69072 0.4632 0.50997 0.0
C3300 C 0.68993 0.45008 0.49186 0.0
C3301 C 0.69207 0.48893 0.54314 0.0
C3302 C 0.67862 0.48665 0.52835 0.0
C3303 C 0.67779 0.47346 0.51218 0.0
C3304 C 0.6659 0.4986 0.52893 0.0
C3305 C 0.69299 0.50223 0.56116 0.0
C3306 C 0.64783 0.49051 0.52768 0.0
C3307 C 0.63575 0.50174 0.52735 0.0
C3308 C 0.64155 0.52123 0.52807 0.0
C3309 C 0.65969 0.52928 0.52942 0.0
C3310 C 0.67176 0.51803 0.52979 0.0
H3311 H 0.70091 0.49856 0.57264 0.0
H3312 H 0.69934 0.51672 0.55959 0.0
H3313 H 0.67961 0.50218 0.56502 0.0
H3314 H 0.64311 0.47552 0.52696 0.0
H3315 H 0.62187 0.49518 0.52663 0.0
H3316 H 0.20462 0.16879 0.49083 0.0
H3317 H 0.1754 0.15054 0.49448 0.0
H3318 H 0.18864 0.09958 0.46962 0.0
H3319 H 0.21787 0.11763 0.46598 0.0
H3320 H 0.15295 0.10496 0.45693 0.0
H3321 H 0.16934 0.11382 0.53335 0.0
H3322 H 0.17381 0.13466 0.52329 0.0
H3323 H 0.18612 0.11719 0.51809 0.0
C3324 C 0.20125 0.15372 0.48596 0.0
C3325 C 0.21361 0.14463 0.47822 0.0
C3326 C 0.18459 0.14333 0.48813 0.0
C3327 C 0.17997 0.12372 0.48248 0.0
C3328 C 0.192 0.1147 0.4741 0.0
H3329 H 0.10222 0.03346 0.50801 0.0
H3330 H 0.12873 0.05573 0.50301 0.0
C3331 C 0.20869 0.12504 0.47206 0.0
C3332 C 0.16289 0.11242 0.48593 0.0
H3333 H 0.14093 0.09616 0.5203 0.0
C3334 C 0.15022 0.10314 0.47078 0.0
C3335 C 0.1595 0.10998 0.50401 0.0
C3336 C 0.1729 0.11931 0.52068 0.0
C3337 C 0.13424 0.09137 0.47325 0.0
C3338 C 0.1309 0.08886 0.49132 0.0
C3339 C 0.14352 0.09823 0.50648 0.0
C3340 C 0.11477 0.07575 0.49468 0.0
C3341 C 0.12123 0.08125 0.45651 0.0
C3342 C 0.09819 0.07978 0.49187 0.0
C3343 C 0.08303 0.06711 0.49478 0.0
C3344 C 0.08425 0.0502 0.50049 0.0
C3345 C 0.10089 0.04634 0.50352 0.0
C3346 C 0.11603 0.05905 0.50071 0.0
H3347 H 0.12689 0.08252 0.44335 0.0
H3348 H 0.11673 0.06611 0.45714 0.0
H3349 H 0.10949 0.0873 0.45637 0.0
H3350 H 0.09698 0.09272 0.48744 0.0
H3351 H 0.07036 0.07048 0.49243 0.0
H3352 H 0.21927 0.97799 0.77065 0.0
H3353 H 0.23382 0.95173 0.76964 0.0
H3354 H 0.18321 0.91285 0.76355 0.0
H3355 H 0.16869 0.939 0.76426 0.0
H3356 H 0.23744 0.92622 0.78993 0.0
H3357 H 0.20204 0.8841 0.72341 0.0
H3358 H 0.20025 0.9078 0.73139 0.0
H3359 H 0.18732 0.88847 0.73996 0.0
C3360 C 0.21112 0.96386 0.76898 0.0
C3361 C 0.19253 0.96108 0.76742 0.0
C3362 C 0.21958 0.9486 0.76843 0.0
C3363 C 0.20997 0.92961 0.76607 0.0
C3364 C 0.19138 0.92689 0.76478 0.0
H3365 H 0.23845 0.81739 0.75937 0.0
H3366 H 0.2235 0.84333 0.76027 0.0
C3367 C 0.18293 0.94214 0.76537 0.0
C3368 C 0.21929 0.91303 0.76543 0.0
H3369 H 0.21948 0.86908 0.74104 0.0
C3370 C 0.23345 0.91385 0.77907 0.0
C3371 C 0.21452 0.89633 0.75153 0.0
C3372 C 0.20033 0.89413 0.73564 0.0
C3373 C 0.24234 0.89894 0.77949 0.0
C3374 C 0.23766 0.88228 0.76552 0.0
C3375 C 0.22347 0.88144 0.75189 0.0
C3376 C 0.24716 0.86582 0.76478 0.0
C3377 C 0.25635 0.90107 0.79555 0.0
C3378 C 0.26578 0.86885 0.76659 0.0
C3379 C 0.27446 0.85381 0.76612 0.0
C3380 C 0.26509 0.83474 0.76358 0.0
C3381 C 0.24645 0.83161 0.76139 0.0
C3382 C 0.23776 0.8467 0.7619 0.0
H3383 H 0.25431 0.91081 0.80783 0.0
H3384 H 0.25654 0.88734 0.7996 0.0
H3385 H 0.26942 0.90709 0.79155 0.0
H3386 H 0.27383 0.88299 0.76817 0.0
H3387 H 0.28872 0.85724 0.76772 0.0
H3388 H 0.3517 0.95884 0.05198 0.0
H3389 H 0.38199 0.97124 0.06693 0.0
H3390 H 0.39529 0.99666 0.01973 0.0
H3391 H 0.3648 0.98513 0.0052 0.0
H3392 H 0.40965 0.96258 0.05722 0.0
H3393 H 0.42074 0.03853 0.05953 0.0
H3394 H 0.39889 0.02325 0.05463 0.0
H3395 H 0.41228 0.02706 0.03623 0.0
C3396 C 0.36105 0.96736 0.04495 0.0
C3397 C 0.35595 0.97104 0.02742 0.0
C3398 C 0.37833 0.97447 0.05353 0.0
C3399 C 0.39089 0.98519 0.04466 0.0
C3400 C 0.38573 0.98902 0.0272 0.0
H3401 H 0.48878 0.98094 0.02394 0.0
H3402 H 0.46016 0.97405 0.0347 0.0
C3403 C 0.36835 0.98225 0.01878 0.0
C3404 C 0.40975 0.99058 0.05249 0.0
H3405 H 0.44673 0.0254 0.05511 0.0
C3406 C 0.4177 0.97649 0.05727 0.0
C3407 C 0.4203 0.00888 0.05343 0.0
C3408 C 0.4125 0.0253 0.0509 0.0
C3409 C 0.43606 0.97967 0.06083 0.0
C3410 C 0.44668 0.99709 0.05877 0.0
C3411 C 0.43867 0.01182 0.0562 0.0
C3412 C 0.4654 0.9993 0.05575 0.0
C3413 C 0.44385 0.96407 0.066 0.0
C3414 C 0.47809 0.01572 0.06406 0.0
C3415 C 0.49446 0.01991 0.05758 0.0
C3416 C 0.49835 0.00775 0.04267 0.0
C3417 C 0.48619 0.99062 0.03542 0.0
C3418 C 0.46983 0.98653 0.04178 0.0
H3419 H 0.43562 0.95635 0.07512 0.0
H3420 H 0.44397 0.95383 0.05329 0.0
H3421 H 0.4575 0.96946 0.07321 0.0
H3422 H 0.47495 0.02584 0.07479 0.0
H3423 H 0.50353 0.03325 0.06341 0.0
H3424 H 0.87107 0.56295 0.78893 0.0
H3425 H 0.84918 0.58154 0.78572 0.0
H3426 H 0.89079 0.63121 0.78879 0.0
H3427 H 0.91278 0.61275 0.79181 0.0
H3428 H 0.84374 0.61541 0.80733 0.0
H3429 H 0.86147 0.6242 0.73745 0.0
H3430 H 0.86821 0.60714 0.74957 0.0
H3431 H 0.87975 0.63148 0.75556 0.0
C3432 C 0.87558 0.5779 0.78925 0.0
C3433 C 0.89364 0.58636 0.79038 0.0
C3434 C 0.86305 0.58847 0.7874 0.0
C3435 C 0.86842 0.60759 0.78662 0.0
C3436 C 0.88644 0.61635 0.78901 0.0
H3437 H 0.82289 0.69792 0.76789 0.0
H3438 H 0.84126 0.67632 0.77357 0.0
C3439 C 0.89897 0.60581 0.79083 0.0
C3440 C 0.85524 0.61818 0.78217 0.0
H3441 H 0.84216 0.64211 0.74986 0.0
C3442 C 0.84325 0.62114 0.79472 0.0
C3443 C 0.85459 0.6254 0.76558 0.0
C3444 C 0.86657 0.62178 0.75116 0.0
C3445 C 0.83106 0.63191 0.79146 0.0
C3446 C 0.83078 0.63958 0.77513 0.0
C3447 C 0.84247 0.63618 0.76237 0.0
C3448 C 0.81934 0.65228 0.77157 0.0
C3449 C 0.81901 0.63559 0.80577 0.0
C3450 C 0.80094 0.64577 0.76827 0.0
C3451 C 0.79037 0.65812 0.76505 0.0
C3452 C 0.79811 0.67712 0.76516 0.0
C3453 C 0.81656 0.68343 0.76809 0.0
C3454 C 0.82707 0.67111 0.77123 0.0
H3455 H 0.82292 0.63132 0.81898 0.0
H3456 H 0.81896 0.65074 0.80866 0.0
H3457 H 0.80536 0.62752 0.80037 0.0
H3458 H 0.7948 0.63117 0.76819 0.0
H3459 H 0.77618 0.65293 0.7628 0.0
H3460 H 0.82574 0.65853 0.97933 0.0
H3461 H 0.85327 0.64795 0.97803 0.0
H3462 H 0.83506 0.60749 0.0122 0.0
H3463 H 0.80768 0.61766 0.01341 0.0
H3464 H 0.87934 0.64601 0.00688 0.0
H3465 H 0.84666 0.57536 0.96647 0.0
H3466 H 0.83598 0.59466 0.96874 0.0
H3467 H 0.83675 0.58127 0.98695 0.0
C3468 C 0.82763 0.6474 0.98658 0.0
C3469 C 0.81438 0.63881 0.99629 0.0
C3470 C 0.84337 0.64139 0.98583 0.0
C3471 C 0.84606 0.62668 0.99472 0.0
C3472 C 0.8331 0.61856 0.00489 0.0
H3473 H 0.92042 0.56286 0.01771 0.0
H3474 H 0.8967 0.57924 0.01599 0.0
C3475 C 0.81744 0.62447 0.0056 0.0
C3476 C 0.86223 0.61949 0.99342 0.0
H3477 H 0.87578 0.57897 0.98157 0.0
C3478 C 0.87865 0.63143 1.0011 0.0
C3479 C 0.8613 0.60049 0.98577 0.0
C3480 C 0.84425 0.58725 0.97634 0.0
C3481 C 0.89401 0.62458 1.0022 0.0
C3482 C 0.89287 0.60537 0.99531 0.0
C3483 C 0.87658 0.59365 0.987 0.0
C3484 C 0.90816 0.59678 0.99732 0.0
C3485 C 0.9112 0.63767 0.01139 0.0
C3486 C 0.92258 0.60132 0.9875 0.0
C3487 C 0.93616 0.59185 0.98833 0.0
C3488 C 0.93548 0.57759 0.99894 0.0
C3489 C 0.92123 0.57351 0.00916 0.0
C3490 C 0.9077 0.58294 0.00828 0.0
H3491 H 0.90935 0.65134 0.01855 0.0
H3492 H 0.91778 0.6311 0.0216 0.0
H3493 H 0.92013 0.64045 1.00076 0.0
H3494 H 0.92306 0.61177 0.97874 0.0
H3495 H 0.94683 0.5952 0.98014 0.0
H3496 H 0.21515 0.0715 0.77023 0.0
H3497 H 0.23344 0.10291 0.76898 0.0
H3498 H 0.18735 0.12541 0.76986 0.0
H3499 H 0.16937 0.09472 0.77142 0.0
H3500 H 0.23359 0.12665 0.74399 0.0
H3501 H 0.21899 0.16436 0.8094 0.0
H3502 H 0.21328 0.13904 0.80339 0.0
H3503 H 0.19925 0.15252 0.79419 0.0
C3504 C 0.20893 0.08317 0.77042 0.0
C3505 C 0.19058 0.08017 0.77112 0.0
C3506 C 0.21945 0.10127 0.76961 0.0
C3507 C 0.21207 0.11709 0.76969 0.0
C3508 C 0.19379 0.11397 0.77031 0.0
H3509 H 0.24887 0.23815 0.76104 0.0
H3510 H 0.23124 0.20661 0.7629 0.0
C3511 C 0.18336 0.09606 0.77107 0.0
C3512 C 0.22304 0.13664 0.76857 0.0
H3513 H 0.23193 0.18355 0.78878 0.0
C3514 C 0.2333 0.139 0.75395 0.0
C3515 C 0.22284 0.15321 0.78132 0.0
C3516 C 0.21315 0.15218 0.79806 0.0
C3517 C 0.24275 0.15699 0.7515 0.0
C3518 C 0.24247 0.17356 0.76419 0.0
C3519 C 0.23226 0.1712 0.77885 0.0
C3520 C 0.25312 0.19318 0.76288 0.0
C3521 C 0.25257 0.15807 0.73486 0.0
C3522 C 0.27148 0.19677 0.76252 0.0
C3523 C 0.28154 0.2148 0.7615 0.0
C3524 C 0.27378 0.2302 0.76084 0.0
C3525 C 0.25541 0.22678 0.76135 0.0
C3526 C 0.24529 0.20862 0.76248 0.0
H3527 H 0.24709 0.14568 0.72363 0.0
H3528 H 0.25209 0.171 0.72928 0.0
H3529 H 0.26656 0.15826 0.73895 0.0
H3530 H 0.27823 0.18562 0.76332 0.0
H3531 H 0.29561 0.21668 0.76132 0.0
H3532 H 0.38957 0.98837 0.28878 0.0
H3533 H 0.37273 0.95665 0.28894 0.0
H3534 H 0.4204 0.9367 0.28837 0.0
H3535 H 0.43729 0.96838 0.28744 0.0
H3536 H 0.39603 0.91536 0.26274 0.0
H3537 H 0.36629 0.925 0.32767 0.0
H3538 H 0.36146 0.94113 0.31348 0.0
H3539 H 0.38398 0.94274 0.32248 0.0
C3540 C 0.39654 0.97732 0.28906 0.0
C3541 C 0.41474 0.98084 0.28806 0.0
C3542 C 0.3869 0.95919 0.28927 0.0
C3543 C 0.39534 0.94435 0.28897 0.0
C3544 C 0.41364 0.94797 0.28867 0.0
H3545 H 0.33278 0.83424 0.29787 0.0
H3546 H 0.35526 0.86374 0.30343 0.0
C3547 C 0.42326 0.96606 0.28815 0.0
C3548 C 0.38482 0.92484 0.28716 0.0
H3549 H 0.35149 0.89781 0.30458 0.0
C3550 C 0.38649 0.91143 0.27208 0.0
C3551 C 0.37257 0.91963 0.29948 0.0
C3552 C 0.37112 0.93286 0.31679 0.0
C3553 C 0.37575 0.89315 0.26855 0.0
C3554 C 0.36258 0.88839 0.28006 0.0
C3555 C 0.3614 0.90156 0.29557 0.0
C3556 C 0.34968 0.86997 0.27616 0.0
C3557 C 0.37873 0.87916 0.25259 0.0
C3558 C 0.33908 0.86366 0.25896 0.0
C3559 C 0.32641 0.84663 0.25564 0.0
C3560 C 0.32384 0.83593 0.26964 0.0
C3561 C 0.3344 0.8423 0.28686 0.0
C3562 C 0.34726 0.85912 0.29005 0.0
H3563 H 0.39254 0.88277 0.24945 0.0
H3564 H 0.37578 0.86466 0.25553 0.0
H3565 H 0.37 0.87943 0.24001 0.0
H3566 H 0.34035 0.87207 0.24823 0.0
H3567 H 0.31832 0.84212 0.2423 0.0
H3568 H 0.57158 0.37999 0.61811 0.0
H3569 H 0.56733 0.40583 0.60287 0.0
H3570 H 0.56569 0.37125 0.54955 0.0
H3571 H 0.57025 0.3453 0.56478 0.0
H3572 H 0.58606 0.40752 0.55219 0.0
H3573 H 0.52129 0.4097 0.57583 0.0
H3574 H 0.53829 0.41181 0.5945 0.0
H3575 H 0.53148 0.39039 0.5776 0.0
C3576 C 0.57028 0.37781 0.60313 0.0
C3577 C 0.57113 0.36047 0.59268 0.0
C3578 C 0.56775 0.39261 0.59442 0.0
C3579 C 0.56586 0.39044 0.57502 0.0
C3580 C 0.56701 0.37326 0.56453 0.0
H3581 H 0.52343 0.46688 0.51593 0.0
H3582 H 0.52919 0.43955 0.52761 0.0
C3583 C 0.56957 0.35841 0.57325 0.0
C3584 C 0.56274 0.40614 0.5658 0.0
H3585 H 0.535 0.43544 0.56249 0.0
C3586 C 0.57484 0.41357 0.55435 0.0
C3587 C 0.54798 0.41391 0.56838 0.0
C3588 C 0.53392 0.40594 0.57959 0.0
C3589 C 0.5728 0.42876 0.54578 0.0
C3590 C 0.5584 0.43701 0.54897 0.0
C3591 C 0.54613 0.4293 0.56013 0.0
C3592 C 0.55558 0.45346 0.54079 0.0
C3593 C 0.58593 0.43558 0.53314 0.0
C3594 C 0.5685 0.47051 0.54416 0.0
C3595 C 0.56529 0.48621 0.53734 0.0
C3596 C 0.54896 0.48531 0.52719 0.0
C3597 C 0.53614 0.46817 0.52368 0.0
C3598 C 0.53941 0.45248 0.5304 0.0
H3599 H 0.59276 0.42457 0.52783 0.0
H3600 H 0.57946 0.43997 0.52116 0.0
H3601 H 0.59609 0.44788 0.54098 0.0
H3602 H 0.58094 0.47186 0.55249 0.0
H3603 H 0.57545 0.49917 0.54043 0.0
H3604 H 0.45862 0.77485 0.33759 0.0
H3605 H 0.42851 0.77497 0.32692 0.0
H3606 H 0.41 0.74644 0.37049 0.0
H3607 H 0.44055 0.74628 0.38154 0.0
H3608 H 0.39008 0.73161 0.33353 0.0
H3609 H 0.39879 0.80852 0.35353 0.0
H3610 H 0.41588 0.8023 0.34092 0.0
H3611 H 0.41356 0.79601 0.36329 0.0
C3612 C 0.44826 0.76855 0.34503 0.0
C3613 C 0.45215 0.76063 0.36056 0.0
C3614 C 0.43098 0.76875 0.33891 0.0
C3615 C 0.41702 0.76107 0.3481 0.0
C3616 C 0.42063 0.75264 0.36331 0.0
H3617 H 0.31553 0.78241 0.30497 0.0
H3618 H 0.33854 0.77859 0.32806 0.0
C3619 C 0.43808 0.75252 0.36958 0.0
C3620 C 0.39878 0.76172 0.34123 0.0
H3621 H 0.37489 0.79247 0.32962 0.0
C3622 C 0.38659 0.74489 0.33303 0.0
C3623 C 0.39406 0.77901 0.34081 0.0
C3624 C 0.40619 0.79749 0.35028 0.0
C3625 C 0.3704 0.745 0.32324 0.0
C3626 C 0.36639 0.76238 0.3214 0.0
C3627 C 0.37798 0.77913 0.33083 0.0
C3628 C 0.35148 0.76356 0.308 0.0
C3629 C 0.35795 0.72648 0.31447 0.0
C3630 C 0.35115 0.75656 0.28911 0.0
C3631 C 0.3382 0.75883 0.27604 0.0
C3632 C 0.32523 0.76821 0.28148 0.0
C3633 C 0.32531 0.77505 0.30041 0.0
C3634 C 0.33845 0.77287 0.31358 0.0
H3635 H 0.35973 0.71518 0.32215 0.0
H3636 H 0.344 0.72747 0.31395 0.0
H3637 H 0.36075 0.72234 0.30009 0.0
H3638 H 0.36126 0.74976 0.28436 0.0
H3639 H 0.33854 0.75347 0.26155 0.0
H3640 H 0.05972 0.75669 0.07524 0.0
H3641 H 0.05214 0.7247 0.05663 0.0
H3642 H 0.06678 0.70279 0.1048 0.0
H3643 H 0.07434 0.73429 0.12335 0.0
H3644 H 0.07462 0.69786 0.05142 0.0
H3645 H 0.01583 0.67143 0.08481 0.0
H3646 H 0.02523 0.6962 0.08606 0.0
H3647 H 0.03499 0.6833 0.101 0.0
C3648 C 0.06131 0.74505 0.08185 0.0
C3649 C 0.06758 0.74812 0.10083 0.0
C3650 C 0.05698 0.7268 0.0712 0.0
C3651 C 0.05864 0.71136 0.07943 0.0
C3652 C 0.06511 0.71445 0.09825 0.0
H3653 H 0.07162 0.60068 0.04476 0.0
H3654 H 0.07433 0.63422 0.05506 0.0
C3655 C 0.06951 0.73256 0.10882 0.0
C3656 C 0.05399 0.69191 0.06857 0.0
H3657 H 0.02832 0.64816 0.06808 0.0
C3658 C 0.06432 0.68702 0.05483 0.0
C3659 C 0.04041 0.67783 0.07287 0.0
C3660 C 0.02835 0.68244 0.08687 0.0
C3661 C 0.06203 0.66823 0.04599 0.0
C3662 C 0.04924 0.65397 0.05122 0.0
C3663 C 0.03827 0.65904 0.06422 0.0
C3664 C 0.04765 0.63365 0.04419 0.0
C3665 C 0.07348 0.66379 0.03129 0.0
C3666 C 0.03161 0.62202 0.03504 0.0
C3667 C 0.02995 0.60272 0.02921 0.0
C3668 C 0.04428 0.59464 0.0326 0.0
C3669 C 0.06031 0.60636 0.04185 0.0
C3670 C 0.06195 0.62563 0.04762 0.0
H3671 H 0.07848 0.6762 0.02493 0.0
H3672 H 0.08503 0.65967 0.03768 0.0
H3673 H 0.06617 0.65197 0.0202 0.0
H3674 H 0.02035 0.62788 0.0324 0.0
H3675 H 0.01741 0.59415 0.02217 0.0
H3676 H 0.07374 0.26598 0.90304 0.0
H3677 H 0.1008 0.26795 0.88841 0.0
H3678 H 0.06992 0.2474 0.83482 0.0
H3679 H 0.04282 0.2452 0.84933 0.0
H3680 H 0.09877 0.23083 0.84034 0.0
H3681 H 0.1188 0.30885 0.85827 0.0
H3682 H 0.1147 0.29709 0.87749 0.0
H3683 H 0.09688 0.29569 0.85989 0.0
C3684 C 0.0727 0.26179 0.88815 0.0
C3685 C 0.05612 0.25559 0.87733 0.0
C3686 C 0.08819 0.263 0.87981 0.0
C3687 C 0.08737 0.25809 0.8605 0.0
C3688 C 0.07085 0.25133 0.84974 0.0
H3689 H 0.16391 0.28929 0.78748 0.0
H3690 H 0.13867 0.28401 0.80476 0.0
C3691 C 0.05537 0.25013 0.85806 0.0
C3692 C 0.10368 0.26043 0.85139 0.0
H3693 H 0.1385 0.29358 0.84323 0.0
C3694 C 0.10752 0.24453 0.84103 0.0
C3695 C 0.11496 0.27835 0.85214 0.0
C3696 C 0.11112 0.29602 0.8624 0.0
C3697 C 0.12233 0.24608 0.83139 0.0
C3698 C 0.13367 0.26398 0.83228 0.0
C3699 C 0.12986 0.27986 0.84268 0.0
C3700 C 0.14907 0.26675 0.82175 0.0
C3701 C 0.12545 0.22864 0.81988 0.0
C3702 C 0.16338 0.25887 0.82562 0.0
C3703 C 0.17797 0.26199 0.81581 0.0
C3704 C 0.17854 0.27314 0.80203 0.0
C3705 C 0.1641 0.28092 0.7982 0.0
C3706 C 0.14958 0.27782 0.808 0.0
H3707 H 0.11363 0.21671 0.81756 0.0
H3708 H 0.12918 0.23142 0.80623 0.0
H3709 H 0.13645 0.22435 0.82716 0.0
H3710 H 0.16339 0.25054 0.83639 0.0
H3711 H 0.18893 0.25598 0.81929 0.0
H3712 H 0.56393 0.74379 0.88444 0.0
H3713 H 0.55457 0.71817 0.90119 0.0
H3714 H 0.57154 0.75692 0.95316 0.0
H3715 H 0.58058 0.78269 0.93652 0.0
H3716 H 0.57485 0.70518 0.92541 0.0
H3717 H 0.52231 0.73017 0.96035 0.0
H3718 H 0.53155 0.74005 0.94153 0.0
H3719 H 0.54304 0.74722 0.96467 0.0
C3720 C 0.56558 0.74688 0.89944 0.0
C3721 C 0.57295 0.76526 0.90918 0.0
C3722 C 0.5602 0.73224 0.90898 0.0
C3723 C 0.56207 0.73572 0.9284 0.0
C3724 C 0.56955 0.75402 0.93816 0.0
H3725 H 0.55482 0.6679 0.01276 0.0
H3726 H 0.55837 0.69322 0.99486 0.0
C3727 C 0.57485 0.7687 0.92864 0.0
C3728 C 0.5571 0.72 0.93844 0.0
H3729 H 0.53195 0.7049 0.97108 0.0
C3730 C 0.56534 0.70502 0.93525 0.0
C3731 C 0.54468 0.71986 0.95126 0.0
C3732 C 0.53475 0.7351 0.95455 0.0
C3733 C 0.56185 0.69012 0.94494 0.0
C3734 C 0.54969 0.69016 0.95798 0.0
C3735 C 0.54129 0.705 0.96105 0.0
C3736 C 0.54599 0.67511 0.96896 0.0
C3737 C 0.57156 0.67469 0.94153 0.0
C3738 C 0.53744 0.65669 0.96034 0.0
C3739 C 0.53529 0.64222 0.97052 0.0
C3740 C 0.54165 0.64596 0.9895 0.0
C3741 C 0.54963 0.66459 0.99821 0.0
C3742 C 0.55174 0.67905 0.98801 0.0
H3743 H 0.58285 0.67854 0.93365 0.0
H3744 H 0.57654 0.67135 0.95484 0.0
H3745 H 0.56238 0.66178 0.93343 0.0
H3746 H 0.5327 0.65349 0.94567 0.0
H3747 H 0.52879 0.62808 0.9635 0.0
H3748 H 0.06165 0.77993 0.6511 0.0
H3749 H 0.09052 0.78735 0.66967 0.0
H3750 H 0.0665 0.79806 0.71948 0.0
H3751 H 0.03752 0.7904 0.70107 0.0
H3752 H 0.1106 0.81891 0.69788 0.0
H3753 H 0.08812 0.75261 0.72457 0.0
H3754 H 0.07621 0.75792 0.70486 0.0
H3755 H 0.07494 0.76957 0.72782 0.0
C3756 C 0.06254 0.78418 0.66597 0.0
C3757 C 0.04732 0.78424 0.67468 0.0
C3758 C 0.07904 0.78848 0.67655 0.0
C3759 C 0.08052 0.79293 0.69592 0.0
C3760 C 0.06553 0.79437 0.70455 0.0
H3761 H 0.17161 0.78185 0.76699 0.0
H3762 H 0.14415 0.79072 0.75821 0.0
C3763 C 0.04902 0.79 0.694 0.0
C3764 C 0.09739 0.79395 0.70699 0.0
H3765 H 0.11762 0.76869 0.73288 0.0
C3766 C 0.11214 0.80812 0.70577 0.0
C3767 C 0.09925 0.77985 0.71733 0.0
C3768 C 0.08386 0.76403 0.7187 0.0
C3769 C 0.12892 0.8082 0.71415 0.0
C3770 C 0.13091 0.79352 0.72361 0.0
C3771 C 0.11601 0.77993 0.72563 0.0
C3772 C 0.14839 0.79057 0.72959 0.0
C3773 C 0.14437 0.8238 0.71251 0.0
C3774 C 0.15975 0.78746 0.71637 0.0
C3775 C 0.17529 0.7823 0.72129 0.0
C3776 C 0.17971 0.77998 0.73951 0.0
C3777 C 0.16844 0.78336 0.75282 0.0
C3778 C 0.15287 0.78858 0.74787 0.0
H3779 H 0.14011 0.83685 0.71095 0.0
H3780 H 0.15453 0.82697 0.72478 0.0
H3781 H 0.15046 0.81947 0.7 0.0
H3782 H 0.15626 0.7883 0.70205 0.0
H3783 H 0.18355 0.77947 0.71066 0.0
H3784 H 0.0992 0.38792 0.37545 0.0
H3785 H 0.09545 0.41754 0.39302 0.0
H3786 H 0.07028 0.3875 0.43268 0.0
H3787 H 0.07392 0.35803 0.41543 0.0
H3788 H 0.06205 0.42642 0.40408 0.0
H3789 H 0.11227 0.42979 0.46311 0.0
H3790 H 0.11162 0.41574 0.44053 0.0
H3791 H 0.09679 0.40738 0.45626 0.0
C3792 C 0.09288 0.38764 0.38792 0.0
C3793 C 0.08695 0.37062 0.39409 0.0
C3794 C 0.09072 0.40453 0.39787 0.0
C3795 C 0.08277 0.40462 0.41418 0.0
C3796 C 0.07665 0.38768 0.42022 0.0
H3797 H 0.03246 0.47359 0.48332 0.0
H3798 H 0.04028 0.4515 0.4588 0.0
C3799 C 0.07871 0.37085 0.41029 0.0
C3800 C 0.08081 0.4223 0.42519 0.0
H3801 H 0.09173 0.4489 0.46854 0.0
C3802 C 0.06871 0.43158 0.41807 0.0
C3803 C 0.08974 0.42907 0.4433 0.0
C3804 C 0.10346 0.4201 0.45123 0.0
C3805 C 0.06459 0.44693 0.42908 0.0
C3806 C 0.07264 0.45284 0.44763 0.0
C3807 C 0.08545 0.4442 0.45435 0.0
C3808 C 0.06736 0.46722 0.46076 0.0
C3809 C 0.05155 0.45654 0.42089 0.0
C3810 C 0.08002 0.48322 0.47002 0.0
C3811 C 0.07563 0.49566 0.4841 0.0
C3812 C 0.05852 0.49226 0.48914 0.0
C3813 C 0.04572 0.4765 0.47959 0.0
C3814 C 0.05014 0.46401 0.46552 0.0
H3815 H 0.05058 0.45413 0.40554 0.0
H3816 H 0.03832 0.45078 0.4247 0.0
H3817 H 0.05525 0.47191 0.42633 0.0
H3818 H 0.0934 0.48586 0.4666 0.0
H3819 H 0.08569 0.50785 0.49116 0.0
H3820 H 0.45934 0.23322 0.21304 0.0
H3821 H 0.43089 0.2319 0.22426 0.0
H3822 H 0.4068 0.22948 0.16875 0.0
H3823 H 0.43552 0.23178 0.1576 0.0
H3824 H 0.39941 0.25605 0.19067 0.0
H3825 H 0.38648 0.19416 0.22435 0.0
H3826 H 0.40787 0.20874 0.23343 0.0
H3827 H 0.40336 0.19784 0.20927 0.0
C3828 C 0.44791 0.23202 0.20316 0.0
C3829 C 0.44964 0.23279 0.18449 0.0
C3830 C 0.43159 0.23104 0.20956 0.0
C3831 C 0.41661 0.23028 0.19731 0.0
C3832 C 0.41817 0.22999 0.17844 0.0
H3833 H 0.3156 0.23551 0.23787 0.0
H3834 H 0.33892 0.22315 0.22402 0.0
C3835 C 0.43457 0.23137 0.1721 0.0
C3836 C 0.40016 0.23279 0.20466 0.0
H3837 H 0.3725 0.21935 0.2359 0.0
C3838 C 0.39334 0.24773 0.20026 0.0
C3839 C 0.39204 0.22184 0.21701 0.0
C3840 C 0.39773 0.20463 0.2211 0.0
C3841 C 0.37927 0.25265 0.20856 0.0
C3842 C 0.37224 0.24281 0.22216 0.0
C3843 C 0.37828 0.22717 0.22582 0.0
C3844 C 0.35894 0.24907 0.23294 0.0
C3845 C 0.3722 0.26852 0.2028 0.0
C3846 C 0.3628 0.26737 0.24331 0.0
C3847 C 0.34953 0.27455 0.251 0.0
C3848 C 0.33226 0.2634 0.24871 0.0
C3849 C 0.32877 0.2445 0.23972 0.0
C3850 C 0.34205 0.2374 0.23181 0.0
H3851 H 0.37508 0.27047 0.18867 0.0
H3852 H 0.35774 0.26595 0.20306 0.0
H3853 H 0.37863 0.28181 0.21252 0.0
H3854 H 0.37593 0.2764 0.24475 0.0
H3855 H 0.35268 0.28904 0.25815 0.0
H3856 H 0.60091 0.51706 0.31475 0.0
H3857 H 0.58918 0.51784 0.34442 0.0
H3858 H 0.64034 0.51938 0.37166 0.0
H3859 H 0.65224 0.51816 0.34153 0.0
H3860 H 0.59064 0.49123 0.3725 0.0
H3861 H 0.62264 0.56602 0.40191 0.0
H3862 H 0.61837 0.55752 0.37717 0.0
H3863 H 0.63547 0.55118 0.39064 0.0
C3864 C 0.60982 0.51738 0.32692 0.0
C3865 C 0.62771 0.51741 0.32521 0.0
C3866 C 0.60297 0.51789 0.34413 0.0
C3867 C 0.61365 0.5189 0.36082 0.0
C3868 C 0.63156 0.51877 0.35929 0.0
H3869 H 0.58168 0.53845 0.47707 0.0
H3870 H 0.59923 0.53689 0.45071 0.0
C3871 C 0.63842 0.51789 0.34185 0.0
C3872 C 0.60574 0.51982 0.37935 0.0
H3873 H 0.60303 0.54981 0.41951 0.0
C3874 C 0.59351 0.50407 0.38276 0.0
C3875 C 0.60929 0.53635 0.39327 0.0
C3876 C 0.6221 0.55385 0.39074 0.0
C3877 C 0.58498 0.50433 0.39913 0.0
C3878 C 0.58779 0.52116 0.41272 0.0
C3879 C 0.6004 0.53683 0.40949 0.0
C3880 C 0.57726 0.52277 0.4296 0.0
C3881 C 0.57337 0.48608 0.40178 0.0
C3882 C 0.55877 0.51602 0.4273 0.0
C3883 C 0.54883 0.51661 0.44242 0.0
C3884 C 0.55654 0.52442 0.4609 0.0
C3885 C 0.575 0.53201 0.46335 0.0
C3886 C 0.58512 0.53117 0.44804 0.0
H3887 H 0.57786 0.47383 0.39484 0.0
H3888 H 0.57321 0.48527 0.41666 0.0
H3889 H 0.55973 0.48481 0.39537 0.0
H3890 H 0.55176 0.51026 0.41357 0.0
H3891 H 0.53473 0.51086 0.43945 0.0
H3892 H 0.33339 0.91529 0.0729 0.0
H3893 H 0.34606 0.89672 0.09248 0.0
H3894 H 0.31185 0.84588 0.06029 0.0
H3895 H 0.29953 0.8643 0.04028 0.0
H3896 H 0.33037 0.87519 0.11397 0.0
H3897 H 0.35809 0.83102 0.06254 0.0
H3898 H 0.35101 0.85149 0.05765 0.0
H3899 H 0.33529 0.82924 0.05524 0.0
C3900 C 0.32856 0.90014 0.07 0.0
C3901 C 0.31545 0.89122 0.05508 0.0
C3902 C 0.33592 0.88956 0.0811 0.0
C3903 C 0.33026 0.86989 0.07752 0.0
C3904 C 0.31688 0.86099 0.06289 0.0
H3905 H 0.31273 0.78241 0.13108 0.0
H3906 H 0.32049 0.80187 0.10825 0.0
C3907 C 0.30965 0.87155 0.05165 0.0
C3908 C 0.33714 0.85876 0.09006 0.0
H3909 H 0.35132 0.81849 0.09038 0.0
C3910 C 0.33543 0.8631 0.10893 0.0
C3911 C 0.3439 0.8431 0.08346 0.0
C3912 C 0.34736 0.83858 0.06364 0.0
C3913 C 0.33887 0.85132 0.12109 0.0
C3914 C 0.34432 0.83486 0.11418 0.0
C3915 C 0.34717 0.83115 0.09559 0.0
C3916 C 0.34373 0.81992 0.12522 0.0
C3917 C 0.33532 0.8558 0.14093 0.0
C3918 C 0.35503 0.82283 0.14176 0.0
C3919 C 0.35071 0.81154 0.15493 0.0
C3920 C 0.33498 0.79736 0.15169 0.0
C3921 C 0.32496 0.79312 0.13412 0.0
C3922 C 0.32935 0.8043 0.12099 0.0
H3923 H 0.32953 0.86821 0.14355 0.0
H3924 H 0.32616 0.84358 0.14454 0.0
H3925 H 0.34784 0.85878 0.15033 0.0
H3926 H 0.36633 0.83473 0.14511 0.0
H3927 H 0.35894 0.81485 0.16816 0.0
H3928 H 0.9977 0.54208 0.81917 0.0
H3929 H 0.01151 0.54571 0.85079 0.0
H3930 H 0.9792 0.58324 0.86984 0.0
H3931 H 0.96463 0.57894 0.83816 0.0
H3932 H 0.03014 0.57368 0.87625 0.0
H3933 H 0.96683 0.54414 0.90109 0.0
H3934 H 0.96874 0.54408 0.87692 0.0
H3935 H 0.96725 0.56519 0.89194 0.0
C3936 C 0.99361 0.55126 0.83003 0.0
C3937 C 0.97989 0.56002 0.82621 0.0
C3938 C 1.00155 0.55333 0.84813 0.0
C3939 C 0.99611 0.56439 0.86275 0.0
C3940 C 0.98322 0.57417 0.85884 0.0
H3941 H 0.05556 0.57843 0.97312 0.0
H3942 H 0.04286 0.58554 0.94433 0.0
C3943 C 0.97501 0.57182 0.84073 0.0
C3944 C 0.00346 0.56474 0.88204 0.0
H3945 H 0.99218 0.55288 0.92296 0.0
C3946 C 0.02185 0.56924 0.88653 0.0
C3947 C 0.9926 0.55873 0.89534 0.0
C3948 C 0.97277 0.55259 0.89108 0.0
C3949 C 0.02971 0.56727 0.90368 0.0
C3950 C 0.01884 0.56133 0.91699 0.0
C3951 C 1.00046 0.55749 0.91275 0.0
C3952 C 0.02614 0.55757 0.93482 0.0
C3953 C 0.04952 0.5706 0.90692 0.0
C3954 C 0.02045 0.53973 0.93939 0.0
C3955 C 0.02738 0.53581 0.95596 0.0
C3956 C 0.04024 0.5496 0.96816 0.0
C3957 C 0.04582 0.5675 0.96375 0.0
C3958 C 0.03865 0.57153 0.9473 0.0
H3959 H 0.0554 0.57012 0.89373 0.0
H3960 H 0.05513 0.58473 0.91554 0.0
H3961 H 0.05352 0.55998 0.9143 0.0
H3962 H 0.01078 0.52875 0.93 0.0
H3963 H 0.02285 0.52191 0.95912 0.0
H3964 H 0.28448 0.22212 0.54012 0.0
H3965 H 0.2888 0.24059 0.57175 0.0
H3966 H 0.26534 0.1907 0.59198 0.0
H3967 H 0.26114 0.17228 0.56089 0.0
H3968 H 0.26345 0.24554 0.59705 0.0
H3969 H 0.31298 0.21087 0.6249 0.0
H3970 H 0.30713 0.20929 0.60038 0.0
H3971 H 0.29331 0.19447 0.61304 0.0
C3972 C 0.2803 0.2151 0.55133 0.0
C3973 C 0.2726 0.19565 0.5479 0.0
C3974 C 0.28273 0.22568 0.56938 0.0
C3975 C 0.27765 0.21695 0.58427 0.0
C3976 C 0.26969 0.19767 0.58079 0.0
H3977 H 0.25547 0.25744 0.69425 0.0
H3978 H 0.25432 0.24563 0.6611 0.0
C3979 C 0.26725 0.18716 0.5629 0.0
C3980 C 0.28045 0.22771 0.60356 0.0
H3981 H 0.29927 0.22803 0.64717 0.0
C3982 C 0.27145 0.2419 0.608 0.0
C3983 C 0.29105 0.22311 0.61782 0.0
C3984 C 0.30181 0.20873 0.61381 0.0
C3985 C 0.27222 0.25108 0.62642 0.0
C3986 C 0.28202 0.2457 0.64081 0.0
C3987 C 0.29157 0.23203 0.63622 0.0
C3988 C 0.28253 0.25384 0.66074 0.0
C3989 C 0.26258 0.26649 0.63027 0.0
C3990 C 0.29876 0.26207 0.67174 0.0
C3991 C 0.29948 0.26862 0.69073 0.0
C3992 C 0.28396 0.26706 0.69924 0.0
C3993 C 0.26768 0.25898 0.68818 0.0
C3994 C 0.26698 0.25234 0.66915 0.0
H3995 H 0.26036 0.27273 0.61781 0.0
H3996 H 0.24951 0.26053 0.63431 0.0
H3997 H 0.26997 0.27784 0.64176 0.0
H3998 H 0.31094 0.26332 0.66563 0.0
H3999 H 0.31227 0.27479 0.69874 0.0
H4000 H 0.60706 0.50227 0.21853 0.0
H4001 H 0.59207 0.50439 0.1885 0.0
H4002 H 0.64226 0.51846 0.16824 0.0
H4003 H 0.65716 0.51594 0.19797 0.0
H4004 H 0.59077 0.53076 0.16907 0.0
H4005 H 0.61821 0.47977 0.12489 0.0
H4006 H 0.6211 0.48264 0.14978 0.0
H4007 H 0.63528 0.49851 0.1383 0.0
C4008 C 0.61496 0.50564 0.20766 0.0
C4009 C 0.63351 0.5087 0.21101 0.0
C4010 C 0.60629 0.50693 0.1903 0.0
C4011 C 0.61571 0.51123 0.17538 0.0
C4012 C 0.63427 0.51452 0.17887 0.0
H4013 H 0.57152 0.55383 0.07932 0.0
H4014 H 0.5857 0.55002 0.10885 0.0
C4015 C 0.64292 0.51321 0.19618 0.0
C4016 C 0.60628 0.51275 0.15661 0.0
H4017 H 0.6036 0.49891 0.10921 0.0
C4018 C 0.59365 0.52369 0.15606 0.0
C4019 C 0.60939 0.50343 0.13915 0.0
C4020 C 0.62158 0.49027 0.138 0.0
C4021 C 0.58466 0.52586 0.13916 0.0
C4022 C 0.58836 0.51722 0.12168 0.0
C4023 C 0.60066 0.50591 0.12223 0.0
C4024 C 0.57962 0.5196 0.10291 0.0
C4025 C 0.57083 0.5371 0.14037 0.0
C4026 C 0.57169 0.50399 0.08867 0.0
C4027 C 0.56357 0.50619 0.07138 0.0
C4028 C 0.5631 0.52413 0.06741 0.0
C4029 C 0.57126 0.53971 0.08156 0.0
C4030 C 0.57937 0.53751 0.09878 0.0
H4031 H 0.56543 0.5374 0.15383 0.0
H4032 H 0.57686 0.55183 0.1393 0.0
H4033 H 0.55975 0.53128 0.12905 0.0
H4034 H 0.57157 0.48992 0.09097 0.0
H4035 H 0.55761 0.49372 0.06109 0.0
H4036 H 0.30146 0.92002 0.93336 0.0
H4037 H 0.30172 0.8973 0.90547 0.0
H4038 H 0.30498 0.85504 0.9386 0.0
H4039 H 0.30501 0.87767 0.9666 0.0
H4040 H 0.328 0.85611 0.91169 0.0
H4041 H 0.25999 0.85377 0.88175 0.0
H4042 H 0.27398 0.87708 0.88749 0.0
H4043 H 0.26848 0.86405 0.90559 0.0
C4044 C 0.30224 0.9059 0.93474 0.0
C4045 C 0.30309 0.90064 0.95221 0.0
C4046 C 0.30231 0.89292 0.91878 0.0
C4047 C 0.30308 0.87443 0.91998 0.0
C4048 C 0.3043 0.86923 0.9374 0.0
H4049 H 0.28959 0.77723 0.83095 0.0
H4050 H 0.29399 0.79678 0.86202 0.0
C4051 C 0.30428 0.88219 0.95337 0.0
C4052 C 0.3025 0.86049 0.90305 0.0
H4053 H 0.27742 0.83921 0.86187 0.0
C4054 C 0.31689 0.85227 0.90086 0.0
C4055 C 0.28788 0.85537 0.88906 0.0
C4056 C 0.27163 0.86287 0.89112 0.0
C4057 C 0.31728 0.83956 0.88467 0.0
C4058 C 0.30296 0.83505 0.87049 0.0
C4059 C 0.28841 0.84286 0.87284 0.0
C4060 C 0.30305 0.82297 0.85261 0.0
C4061 C 0.33308 0.83134 0.8825 0.0
C4062 C 0.30709 0.83132 0.8373 0.0
C4063 C 0.3046 0.82028 0.81967 0.0
C4064 C 0.29792 0.80073 0.81709 0.0
C4065 C 0.29476 0.79227 0.83259 0.0
C4066 C 0.29726 0.80337 0.85028 0.0
H4067 H 0.34324 0.83634 0.89482 0.0
H4068 H 0.32887 0.81577 0.8802 0.0
H4069 H 0.33906 0.83516 0.87012 0.0
H4070 H 0.31149 0.84645 0.83891 0.0
H4071 H 0.30715 0.82717 0.80797 0.0
H4072 H 0.9624 0.56351 0.72498 0.0
H4073 H 0.971 0.54978 0.69576 0.0
H4074 H 0.92301 0.50615 0.68593 0.0
H4075 H 0.91407 0.51998 0.715 0.0
H4076 H 0.96174 0.49755 0.68856 0.0
H4077 H 0.94519 0.54103 0.63798 0.0
H4078 H 0.95367 0.5534 0.66121 0.0
H4079 H 0.93268 0.53678 0.65701 0.0
C4080 C 0.95348 0.55127 0.71638 0.0
C4081 C 0.93763 0.54277 0.72227 0.0
C4082 C 0.95839 0.54347 0.69974 0.0
C4083 C 0.9476 0.52701 0.68886 0.0
C4084 C 0.9314 0.51892 0.69421 0.0
H4085 H 0.99763 0.49727 0.59145 0.0
H4086 H 0.97344 0.49236 0.61025 0.0
C4087 C 0.92634 0.52688 0.71075 0.0
C4088 C 0.95439 0.51748 0.67302 0.0
H4089 H 0.96766 0.52467 0.63156 0.0
C4090 C 0.96264 0.50302 0.6758 0.0
C4091 C 0.95529 0.52457 0.65644 0.0
C4092 C 0.94614 0.53972 0.65281 0.0
C4093 C 0.97322 0.49667 0.66304 0.0
C4094 C 0.97557 0.50513 0.64732 0.0
C4095 C 0.96589 0.51826 0.6437 0.0
C4096 C 0.99014 0.50333 0.63636 0.0
C4097 C 0.98258 0.48176 0.66696 0.0
C4098 C 0.00756 0.51059 0.64491 0.0
C4099 C 0.02137 0.51357 0.63421 0.0
C4100 C 0.01793 0.50929 0.61482 0.0
C4101 C 1.00066 0.5006 0.60637 0.0
C4102 C 0.98682 0.49779 0.61707 0.0
H4103 H 0.97512 0.47244 0.67543 0.0
H4104 H 0.98453 0.47306 0.65393 0.0
H4105 H 0.9957 0.48862 0.67492 0.0
H4106 H 0.01033 0.51528 0.65978 0.0
H4107 H 0.03457 0.52018 0.64104 0.0
H4108 H 0.28348 0.23256 0.45149 0.0
H4109 H 0.28676 0.24802 0.4245 0.0
H4110 H 0.2745 0.19393 0.38834 0.0
H4111 H 0.27138 0.17836 0.41512 0.0
H4112 H 0.311 0.23697 0.39257 0.0
H4113 H 0.23946 0.22926 0.37136 0.0
H4114 H 0.24823 0.2311 0.39525 0.0
H4115 H 0.24672 0.20995 0.37895 0.0
C4116 C 0.28151 0.22395 0.43781 0.0
C4117 C 0.27718 0.20421 0.43549 0.0
C4118 C 0.28338 0.23281 0.42241 0.0
C4119 C 0.28076 0.2221 0.40444 0.0
C4120 C 0.27649 0.20243 0.40208 0.0
H4121 H 0.27692 0.25308 0.29464 0.0
H4122 H 0.27328 0.23621 0.32064 0.0
C4123 C 0.27476 0.19358 0.41744 0.0
C4124 C 0.28274 0.2314 0.3881 0.0
H4125 H 0.25925 0.24327 0.35253 0.0
C4126 C 0.29972 0.23842 0.38382 0.0
C4127 C 0.26798 0.23295 0.37658 0.0
C4128 C 0.2495 0.2255 0.38066 0.0
C4129 C 0.30234 0.24697 0.36827 0.0
C4130 C 0.28758 0.24906 0.35697 0.0
C4131 C 0.27057 0.24177 0.36117 0.0
C4132 C 0.28958 0.25919 0.34108 0.0
C4133 C 0.32093 0.25327 0.36388 0.0
C4134 C 0.29961 0.27781 0.34387 0.0
C4135 C 0.30186 0.28727 0.329 0.0
C4136 C 0.29391 0.27848 0.311 0.0
C4137 C 0.28339 0.26008 0.30825 0.0
C4138 C 0.28126 0.25049 0.32315 0.0
H4139 H 0.3298 0.24538 0.3699 0.0
H4140 H 0.32139 0.25138 0.3487 0.0
H4141 H 0.32613 0.26839 0.36996 0.0
H4142 H 0.30571 0.28509 0.3576 0.0
H4143 H 0.30986 0.30155 0.33163 0.0
H4144 H 0.30055 0.576 0.55498 0.0
H4145 H 0.32555 0.56132 0.55494 0.0
H4146 H 0.35002 0.59849 0.52031 0.0
H4147 H 0.32532 0.61348 0.52051 0.0
H4148 H 0.33591 0.5427 0.52426 0.0
H4149 H 0.39039 0.60209 0.56017 0.0
H4150 H 0.36749 0.60235 0.56091 0.0
H4151 H 0.37815 0.60795 0.54119 0.0
C4152 C 0.31136 0.58123 0.54756 0.0
C4153 C 0.31095 0.5959 0.53774 0.0
C4154 C 0.32562 0.57282 0.54756 0.0
C4155 C 0.3397 0.579 0.53783 0.0
C4156 C 0.33946 0.59382 0.52826 0.0
H4157 H 0.4116 0.52192 0.48753 0.0
H4158 H 0.38647 0.53454 0.49574 0.0
C4159 C 0.32526 0.60227 0.52829 0.0
C4160 C 0.35402 0.56907 0.53647 0.0
H4161 H 0.39872 0.57608 0.5424 0.0
C4162 C 0.34964 0.54991 0.52847 0.0
C4163 C 0.37187 0.57849 0.54215 0.0
C4164 C 0.37726 0.59881 0.55176 0.0
C4165 C 0.36273 0.54005 0.5253 0.0
C4166 C 0.38062 0.54976 0.52999 0.0
C4167 C 0.38497 0.56873 0.53868 0.0
C4168 C 0.39507 0.54079 0.52525 0.0
C4169 C 0.35728 0.5194 0.51688 0.0
C4170 C 0.40831 0.54035 0.53911 0.0
C4171 C 0.42274 0.53328 0.53444 0.0
C4172 C 0.42413 0.52657 0.51582 0.0
C4173 C 0.41068 0.52669 0.50201 0.0
C4174 C 0.39632 0.53386 0.50668 0.0
H4175 H 0.34375 0.51296 0.51953 0.0
H4176 H 0.35731 0.51767 0.50166 0.0
H4177 H 0.36651 0.51162 0.52243 0.0
H4178 H 0.40759 0.54573 0.55351 0.0
H4179 H 0.43291 0.53326 0.54534 0.0
H4180 H 0.86098 0.91053 0.54245 0.0
H4181 H 0.8929 0.92252 0.54299 0.0
H4182 H 0.88339 0.96881 0.51832 0.0
H4183 H 0.85181 0.95706 0.51762 0.0
H4184 H 0.90637 0.9483 0.50039 0.0
H4185 H 0.92601 0.97053 0.57661 0.0
H4186 H 0.91281 0.94708 0.5679 0.0
H4187 H 0.9035 0.96685 0.56628 0.0
C4188 C 0.86572 0.92334 0.53729 0.0
C4189 C 0.85378 0.93279 0.52997 0.0
C4190 C 0.88395 0.93018 0.53765 0.0
C4191 C 0.89049 0.94659 0.53075 0.0
C4192 C 0.87862 0.95611 0.52368 0.0
H4193 H 0.97569 0.02943 0.51487 0.0
H4194 H 0.9483 0.00676 0.5164 0.0
C4195 C 0.86052 0.94935 0.52333 0.0
C4196 C 0.9096 0.95389 0.53021 0.0
H4197 H 0.94771 0.9787 0.55734 0.0
C4198 C 0.9155 0.95464 0.51285 0.0
C4199 C 0.9215 0.96205 0.54648 0.0
C4200 C 0.91574 0.96174 0.56543 0.0
C4201 C 0.93271 0.96417 0.51132 0.0
C4202 C 0.94426 0.97337 0.52754 0.0
C4203 C 0.93877 0.97164 0.54493 0.0
C4204 C 0.96112 0.98671 0.52661 0.0
C4205 C 0.93826 0.96493 0.49232 0.0
C4206 C 0.97741 0.98301 0.53204 0.0
C4207 C 0.99315 0.99598 0.53111 0.0
C4208 C 0.99275 0.01288 0.52496 0.0
C4209 C 0.97641 0.01654 0.51967 0.0
C4210 C 0.96076 1.00357 0.52048 0.0
H4211 H 0.92982 0.95337 0.48167 0.0
H4212 H 0.93706 0.97849 0.48846 0.0
H4213 H 0.95221 0.96408 0.49219 0.0
H4214 H 0.97794 0.97009 0.53687 0.0
H4215 H 0.0056 0.99288 0.53533 0.0
H4216 H 0.91253 0.13202 0.26364 0.0
H4217 H 0.89804 0.15838 0.26555 0.0
H4218 H 0.84761 0.11922 0.24958 0.0
H4219 H 0.86204 0.0929 0.24779 0.0
H4220 H 0.87891 0.17271 0.24206 0.0
H4221 H 0.83421 0.15078 0.29244 0.0
H4222 H 0.85189 0.13964 0.28719 0.0
H4223 H 0.83139 0.13312 0.27201 0.0
C4224 C 0.89832 0.12887 0.26061 0.0
C4225 C 0.8887 0.10984 0.25566 0.0
C4226 C 0.8899 0.1442 0.26168 0.0
C4227 C 0.87135 0.14143 0.25812 0.0
C4228 C 0.86177 0.12239 0.253 0.0
H4229 H 0.79457 0.2155 0.25935 0.0
H4230 H 0.80957 0.18968 0.25758 0.0
C4231 C 0.87018 0.10707 0.25181 0.0
C4232 C 0.86225 0.15821 0.25941 0.0
H4233 H 0.82897 0.17584 0.27821 0.0
C4234 C 0.86805 0.17329 0.2501 0.0
C4235 C 0.84785 0.15967 0.26974 0.0
C4236 C 0.84105 0.14506 0.28107 0.0
C4237 C 0.85991 0.18886 0.25036 0.0
C4238 C 0.84554 0.19038 0.26076 0.0
C4239 C 0.8398 0.1753 0.27012 0.0
C4240 C 0.83619 0.20702 0.26194 0.0
C4241 C 0.86654 0.20317 0.23865 0.0
C4242 C 0.84552 0.22622 0.26531 0.0
C4243 C 0.83678 0.24128 0.26619 0.0
C4244 C 0.81816 0.23813 0.26407 0.0
C4245 C 0.80883 0.21899 0.26108 0.0
C4246 C 0.81757 0.20394 0.26008 0.0
H4247 H 0.87294 0.19709 0.22708 0.0
H4248 H 0.85569 0.20871 0.23272 0.0
H4249 H 0.87656 0.21504 0.24734 0.0
H4250 H 0.85976 0.22976 0.26756 0.0
H4251 H 0.84476 0.25553 0.26864 0.0
H4252 H 0.70278 0.12963 0.00899 0.0
H4253 H 0.6733 0.11643 0.9922 0.0
H4254 H 0.69167 0.07134 0.96157 0.0
H4255 H 0.72106 0.08401 0.97909 0.0
H4256 H 0.65909 0.10831 0.9561 0.0
H4257 H 0.65302 0.04236 0.98484 0.0
H4258 H 0.67121 0.06244 0.99293 0.0
H4259 H 0.67042 0.04765 0.97087 0.0
C4260 C 0.70052 0.1169 0.99869 0.0
C4261 C 0.71404 0.10761 0.99559 0.0
C4262 C 0.68373 0.10945 0.98898 0.0
C4263 C 0.68023 0.09274 0.97582 0.0
C4264 C 0.69398 0.08397 0.97199 0.0
H4265 H 0.57053 0.03287 0.95897 0.0
H4266 H 0.5976 0.04249 0.94522 0.0
C4267 C 0.71072 0.09121 0.982 0.0
C4268 C 0.66181 0.08396 0.96754 0.0
H4269 H 0.62757 0.0478 0.97073 0.0
C4270 C 0.65224 0.09485 0.95888 0.0
C4271 C 0.65292 0.06625 0.97089 0.0
C4272 C 0.66233 0.054 0.98048 0.0
C4273 C 0.63381 0.08935 0.9552 0.0
C4274 C 0.62488 0.07261 0.9603 0.0
C4275 C 0.63454 0.06068 0.96687 0.0
C4276 C 0.60627 0.06947 0.96362 0.0
C4277 C 0.62396 0.10207 0.94708 0.0
C4278 C 0.60188 0.08181 0.97798 0.0
C4279 C 0.58667 0.07625 0.98609 0.0
C4280 C 0.57557 0.05828 0.97989 0.0
C4281 C 0.57895 0.04675 0.96417 0.0
C4282 C 0.59434 0.05225 0.95619 0.0
H4283 H 0.63194 0.11011 0.93799 0.0
H4284 H 0.61122 0.09394 0.93898 0.0
H4285 H 0.6212 0.11234 0.95847 0.0
H4286 H 0.61104 0.09503 0.98414 0.0
H4287 H 0.58425 0.08552 0.99802 0.0
H4288 H 0.17415 0.47027 0.27034 0.0
H4289 H 0.19552 0.45656 0.28616 0.0
H4290 H 0.23588 0.4829 0.25616 0.0
H4291 H 0.21482 0.497 0.24075 0.0
H4292 H 0.21298 0.43227 0.27144 0.0
H4293 H 0.26169 0.49621 0.30768 0.0
H4294 H 0.24 0.49685 0.29779 0.0
H4295 H 0.25759 0.49698 0.28357 0.0
C4296 C 0.18761 0.47321 0.26722 0.0
C4297 C 0.19283 0.48472 0.25433 0.0
C4298 C 0.19982 0.46546 0.27634 0.0
C4299 C 0.21741 0.46911 0.27271 0.0
C4300 C 0.22254 0.48043 0.25968 0.0
H4301 H 0.29626 0.41332 0.26291 0.0
H4302 H 0.27632 0.43419 0.26432 0.0
C4303 C 0.21042 0.48829 0.2507 0.0
C4304 C 0.23011 0.4598 0.28116 0.0
H4305 H 0.27286 0.46794 0.30064 0.0
C4306 C 0.22589 0.44009 0.2783 0.0
C4307 C 0.24691 0.47001 0.29031 0.0
C4308 C 0.25172 0.49119 0.29519 0.0
C4309 C 0.2385 0.43032 0.283 0.0
C4310 C 0.25571 0.44054 0.2906 0.0
C4311 C 0.25963 0.46021 0.29466 0.0
C4312 C 0.27017 0.43091 0.29177 0.0
C4313 C 0.23377 0.40911 0.27872 0.0
C4314 C 0.27376 0.42279 0.3071 0.0
C4315 C 0.28546 0.411 0.30651 0.0
C4316 C 0.29354 0.40705 0.29047 0.0
C4317 C 0.2906 0.41622 0.27562 0.0
C4318 C 0.27907 0.42807 0.27631 0.0
H4319 H 0.21947 0.40325 0.27411 0.0
H4320 H 0.24125 0.40413 0.26762 0.0
H4321 H 0.23754 0.40352 0.29117 0.0
H4322 H 0.26694 0.4249 0.31914 0.0
H4323 H 0.28761 0.40441 0.31829 0.0
H4324 H 0.26624 0.44252 0.04386 0.0
H4325 H 0.24078 0.45647 0.04328 0.0
H4326 H 0.20609 0.40136 0.02559 0.0
H4327 H 0.23152 0.38722 0.02636 0.0
H4328 H 0.21615 0.45406 0.01281 0.0
H4329 H 0.18375 0.42428 0.06913 0.0
H4330 H 0.20628 0.42419 0.06587 0.0
H4331 H 0.18845 0.40739 0.05109 0.0
C4332 C 0.25319 0.43332 0.03998 0.0
C4333 C 0.25091 0.41374 0.03519 0.0
C4334 C 0.23865 0.44133 0.03963 0.0
C4335 C 0.22152 0.42995 0.03459 0.0
C4336 C 0.21916 0.41039 0.02985 0.0
H4337 H 0.12034 0.46214 0.02418 0.0
H4338 H 0.14308 0.44408 0.02332 0.0
C4339 C 0.23372 0.40234 0.03021 0.0
C4340 C 0.20627 0.43876 0.03366 0.0
H4341 H 0.16865 0.44218 0.05274 0.0
C4342 C 0.20576 0.45144 0.02153 0.0
C4343 C 0.19265 0.43522 0.04495 0.0
C4344 C 0.1928 0.42215 0.05862 0.0
C4345 C 0.19207 0.46078 0.02046 0.0
C4346 C 0.17869 0.4576 0.03206 0.0
C4347 C 0.17895 0.44459 0.04388 0.0
C4348 C 0.16483 0.46837 0.03272 0.0
C4349 C 0.19202 0.47393 0.00685 0.0
C4350 C 0.16951 0.48795 0.03856 0.0
C4351 C 0.15661 0.49827 0.03903 0.0
C4352 C 0.13871 0.48923 0.03376 0.0
C4353 C 0.13402 0.46955 0.02814 0.0
C4354 C 0.14697 0.45921 0.02773 0.0
H4355 H 0.20011 0.47087 0.99562 0.0
H4356 H 0.17841 0.47299 1.00052 0.0
H4357 H 0.19768 0.4886 0.01421 0.0
H4358 H 0.18319 0.49528 0.04274 0.0
H4359 H 0.16073 0.51341 0.04322 0.0
H4360 H 0.90003 0.97392 0.22879 0.0
H4361 H 0.88196 0.94338 0.23108 0.0
H4362 H 0.85182 0.97051 0.26812 0.0
H4363 H 0.86973 1.00146 0.26537 0.0
H4364 H 0.87799 0.92457 0.257 0.0
H4365 H 0.81152 0.93414 0.23672 0.0
H4366 H 0.83124 0.95096 0.23433 0.0
H4367 H 0.82313 0.95114 0.25646 0.0
C4368 C 0.8894 0.97358 0.23727 0.0
C4369 C 0.88646 0.99057 0.24674 0.0
C4370 C 0.87901 0.95585 0.23866 0.0
C4371 C 0.86512 0.95406 0.24965 0.0
C4372 C 0.862 0.97103 0.25909 0.0
H4373 H 0.82199 0.84134 0.27992 0.0
H4374 H 0.83896 0.8735 0.28003 0.0
C4375 C 0.87237 0.98893 0.25755 0.0
C4376 C 0.85462 0.93448 0.25145 0.0
H4377 H 0.81278 0.9063 0.24806 0.0
C4378 C 0.86371 0.92071 0.25502 0.0
C4379 C 0.83587 0.92879 0.24871 0.0
C4380 C 0.82484 0.94194 0.24366 0.0
C4381 C 0.85491 0.90196 0.25586 0.0
C4382 C 0.83617 0.8964 0.25359 0.0
C4383 C 0.82706 0.91017 0.25003 0.0
C4384 C 0.82578 0.87636 0.25393 0.0
C4385 C 0.86599 0.88812 0.25846 0.0
C4386 C 0.81213 0.86679 0.23963 0.0
C4387 C 0.80223 0.84841 0.23972 0.0
C4388 C 0.80547 0.83867 0.25411 0.0
C4389 C 0.81913 0.84812 0.26846 0.0
C4390 C 0.82899 0.86665 0.26844 0.0
H4391 H 0.87932 0.89269 0.25431 0.0
H4392 H 0.86769 0.88708 0.27331 0.0
H4393 H 0.85965 0.87393 0.25027 0.0
H4394 H 0.80909 0.87352 0.22819 0.0
H4395 H 0.79187 0.84181 0.22841 0.0
H4396 H 0.69931 0.07265 0.75073 0.0
H4397 H 0.71956 0.10356 0.76076 0.0
H4398 H 0.68613 0.12767 0.72717 0.0
H4399 H 0.66565 0.09695 0.71725 0.0
H4400 H 0.73815 0.12845 0.74124 0.0
H4401 H 0.69047 0.15983 0.77876 0.0
H4402 H 0.68715 0.13479 0.77114 0.0
H4403 H 0.68173 0.14928 0.75521 0.0
C4404 C 0.69632 0.08448 0.74533 0.0
C4405 C 0.68075 0.08237 0.73333 0.0
C4406 C 0.70789 0.10213 0.75114 0.0
C4407 C 0.70405 0.11792 0.7451 0.0
C4408 C 0.68903 0.1157 0.73239 0.0
H4409 H 0.76094 0.22169 0.73063 0.0
H4410 H 0.7467 0.18921 0.73076 0.0
C4411 C 0.67744 0.0981 0.7266 0.0
C4412 C 0.71576 0.13677 0.75189 0.0
H4413 H 0.71529 0.18159 0.77116 0.0
C4414 C 0.73326 0.14002 0.74807 0.0
C4415 C 0.70949 0.1517 0.76127 0.0
C4416 C 0.69124 0.14871 0.76703 0.0
C4417 C 0.74427 0.15817 0.75212 0.0
C4418 C 0.73744 0.17338 0.75988 0.0
C4419 C 0.7204 0.16991 0.765 0.0
C4420 C 0.74685 0.19305 0.76048 0.0
C4421 C 0.76294 0.16101 0.74755 0.0
C4422 C 0.75121 0.20613 0.77717 0.0
C4423 C 0.75933 0.22493 0.77718 0.0
C4424 C 0.76297 0.23086 0.76044 0.0
C4425 C 0.7584 0.21766 0.7438 0.0
C4426 C 0.7504 0.19899 0.74383 0.0
H4427 H 0.76788 0.14811 0.74783 0.0
H4428 H 0.76332 0.16417 0.73337 0.0
H4429 H 0.77194 0.1729 0.75737 0.0
H4430 H 0.74834 0.20178 0.79013 0.0
H4431 H 0.76268 0.23477 0.79022 0.0
loop_
_geom_bond_atom_site_label_1
_geom_bond_atom_site_label_2
_geom_bond_distance
_geom_bond_site_symmetry_2
_ccdc_geom_bond_type
C0 O1 1.306 . S
C0 O3 1.160 . S
O1 C0 1.306 . S
O1 Cd2 2.228 . S
Cd2 O1 2.228 . S
Cd2 O6 2.273 . S
Cd2 O10 2.277 . S
O3 C0 1.160 . S
O3 Cd4 2.203 . S
Cd4 O3 2.203 . S
Cd4 O6 2.411 . S
Cd4 O7 2.333 . S
Cd4 O8 2.352 . S
Cd4 O12 2.277 . S
Cd4 O13 2.356 . S
C5 O10 1.209 . S
C5 O12 1.226 . S
O6 Cd2 2.273 . S
O6 Cd4 2.411 . S
O6 C9 1.320 . S
O7 Cd4 2.333 . S
O7 C9 1.214 . S
O8 Cd4 2.352 . S
O8 C11 1.258 . S
C9 O6 1.320 . S
C9 O7 1.214 . S
O10 Cd2 2.277 . S
O10 C5 1.209 . S
C11 O8 1.258 . S
C11 O13 1.282 . S
O12 Cd4 2.277 . S
O12 C5 1.226 . S
O13 Cd4 2.356 . S
O13 C11 1.282 . S
C14 O15 1.306 . S
C14 O17 1.160 . S
O15 C14 1.306 . S
O15 Cd16 2.228 1_655 S
Cd16 O15 2.228 1_455 S
Cd16 O20 2.273 . S
Cd16 O24 2.277 1_455 S
O17 C14 1.160 . S
O17 Cd18 2.149 1_655 S
Cd18 O17 2.149 1_455 S
Cd18 O20 2.438 . S
Cd18 O21 2.389 . S
Cd18 O22 2.343 . S
Cd18 O26 2.281 1_455 S
Cd18 O27 2.360 . S
C19 O24 1.209 . S
C19 O26 1.226 . S
O20 Cd16 2.273 . S
O20 Cd18 2.438 . S
O20 C23 1.320 . S
O21 Cd18 2.389 . S
O21 C23 1.214 . S
O22 Cd18 2.343 . S
O22 C25 1.258 . S
C23 O20 1.320 . S
C23 O21 1.214 . S
O24 Cd16 2.277 1_655 S
O24 C19 1.209 . S
C25 O22 1.258 . S
C25 O27 1.282 . S
O26 Cd18 2.281 1_655 S
O26 C19 1.226 . S
O27 Cd18 2.360 . S
O27 C25 1.282 . S
C28 O29 1.306 . S
C28 O31 1.160 . S
O29 C28 1.306 . S
O29 Cd30 2.228 . S
Cd30 O29 2.228 . S
Cd30 O34 2.273 . S
Cd30 O38 2.277 . S
O31 C28 1.160 . S
O31 Cd32 2.203 . S
Cd32 O31 2.203 . S
Cd32 O34 2.411 . S
Cd32 O35 2.333 . S
Cd32 O36 2.352 . S
Cd32 O40 2.277 . S
Cd32 O41 2.356 . S
C33 O38 1.209 . S
C33 O40 1.226 . S
O34 Cd30 2.273 . S
O34 Cd32 2.411 . S
O34 C37 1.320 . S
O35 Cd32 2.333 . S
O35 C37 1.214 . S
O36 Cd32 2.352 . S
O36 C39 1.258 . S
C37 O34 1.320 . S
C37 O35 1.214 . S
O38 Cd30 2.277 . S
O38 C33 1.209 . S
C39 O36 1.258 . S
C39 O41 1.282 . S
O40 Cd32 2.277 . S
O40 C33 1.226 . S
O41 Cd32 2.356 . S
O41 C39 1.282 . S
C42 O43 1.306 . S
C42 O45 1.160 . S
O43 C42 1.306 . S
O43 Cd44 2.228 . S
Cd44 O43 2.228 . S
Cd44 O48 2.273 . S
Cd44 O52 2.277 . S
O45 C42 1.160 . S
O45 Cd46 2.203 . S
Cd46 O45 2.203 . S
Cd46 O48 2.411 . S
Cd46 O49 2.333 . S
Cd46 O50 2.352 . S
Cd46 O54 2.277 . S
Cd46 O55 2.356 . S
C47 O52 1.209 . S
C47 O54 1.226 . S
O48 Cd44 2.273 . S
O48 Cd46 2.411 . S
O48 C51 1.320 . S
O49 Cd46 2.333 . S
O49 C51 1.214 . S
O50 Cd46 2.352 . S
O50 C53 1.258 . S
C51 O48 1.320 . S
C51 O49 1.214 . S
O52 Cd44 2.277 . S
O52 C47 1.209 . S
C53 O50 1.258 . S
C53 O55 1.282 . S
O54 Cd46 2.277 . S
O54 C47 1.226 . S
O55 Cd46 2.356 . S
O55 C53 1.282 . S
C56 O57 1.306 . S
C56 O59 1.160 . S
O57 C56 1.306 . S
O57 Cd58 2.228 . S
Cd58 O57 2.228 . S
Cd58 O62 2.273 . S
Cd58 O66 2.277 . S
O59 C56 1.160 . S
O59 Cd60 2.203 . S
Cd60 O59 2.203 . S
Cd60 O62 2.411 . S
Cd60 O63 2.333 . S
Cd60 O64 2.352 . S
Cd60 O68 2.277 . S
Cd60 O69 2.356 . S
C61 O66 1.209 . S
C61 O68 1.226 . S
O62 Cd58 2.273 . S
O62 Cd60 2.411 . S
O62 C65 1.320 . S
O63 Cd60 2.333 . S
O63 C65 1.214 . S
O64 Cd60 2.352 . S
O64 C67 1.258 . S
C65 O62 1.320 . S
C65 O63 1.214 . S
O66 Cd58 2.277 . S
O66 C61 1.209 . S
C67 O64 1.258 . S
C67 O69 1.282 . S
O68 Cd60 2.277 . S
O68 C61 1.226 . S
O69 Cd60 2.356 . S
O69 C67 1.282 . S
C70 O71 1.306 . S
C70 O73 1.160 . S
O71 C70 1.306 . S
O71 Cd72 2.228 . S
Cd72 O71 2.228 . S
Cd72 O76 2.273 . S
Cd72 O80 2.277 . S
O73 C70 1.160 . S
O73 Cd74 2.203 . S
Cd74 O73 2.203 . S
Cd74 O76 2.411 . S
Cd74 O77 2.333 . S
Cd74 O78 2.352 . S
Cd74 O82 2.277 . S
Cd74 O83 2.356 . S
C75 O80 1.209 . S
C75 O82 1.226 . S
O76 Cd72 2.273 . S
O76 Cd74 2.411 . S
O76 C79 1.320 . S
O77 Cd74 2.333 . S
O77 C79 1.214 . S
O78 Cd74 2.352 . S
O78 C81 1.258 . S
C79 O76 1.320 . S
C79 O77 1.214 . S
O80 Cd72 2.277 . S
O80 C75 1.209 . S
C81 O78 1.258 . S
C81 O83 1.282 . S
O82 Cd74 2.277 . S
O82 C75 1.226 . S
O83 Cd74 2.356 . S
O83 C81 1.282 . S
C84 O85 1.306 . S
C84 O87 1.160 . S
O85 C84 1.306 . S
O85 Cd86 2.228 . S
Cd86 O85 2.228 . S
Cd86 O90 2.273 . S
Cd86 O94 2.277 . S
O87 C84 1.160 . S
O87 Cd88 2.203 . S
Cd88 O87 2.203 . S
Cd88 O90 2.411 . S
Cd88 O91 2.333 . S
Cd88 O92 2.352 . S
Cd88 O96 2.277 . S
Cd88 O97 2.356 . S
C89 O94 1.209 . S
C89 O96 1.226 . S
O90 Cd86 2.273 . S
O90 Cd88 2.411 . S
O90 C93 1.320 . S
O91 Cd88 2.333 . S
O91 C93 1.214 . S
O92 Cd88 2.352 . S
O92 C95 1.258 . S
C93 O90 1.320 . S
C93 O91 1.214 . S
O94 Cd86 2.277 . S
O94 C89 1.209 . S
C95 O92 1.258 . S
C95 O97 1.282 . S
O96 Cd88 2.277 . S
O96 C89 1.226 . S
O97 Cd88 2.356 . S
O97 C95 1.282 . S
C98 O99 1.306 . S
C98 O101 1.160 . S
O99 C98 1.306 . S
O99 Cd100 2.228 1_655 S
Cd100 O99 2.228 1_455 S
Cd100 O104 2.273 . S
Cd100 O108 2.277 . S
O101 C98 1.160 . S
O101 Cd102 2.203 1_655 S
Cd102 O101 2.203 1_455 S
Cd102 O104 2.411 . S
Cd102 O105 2.333 . S
Cd102 O106 2.352 . S
Cd102 O110 2.277 . S
Cd102 O111 2.356 . S
C103 O108 1.209 . S
C103 O110 1.226 . S
O104 Cd100 2.273 . S
O104 Cd102 2.411 . S
O104 C107 1.320 . S
O105 Cd102 2.333 . S
O105 C107 1.214 . S
O106 Cd102 2.352 . S
O106 C109 1.258 . S
C107 O104 1.320 . S
C107 O105 1.214 . S
O108 Cd100 2.277 . S
O108 C103 1.209 . S
C109 O106 1.258 . S
C109 O111 1.282 . S
O110 Cd102 2.277 . S
O110 C103 1.226 . S
O111 Cd102 2.356 . S
O111 C109 1.282 . S
C112 O113 1.306 . S
C112 O115 1.160 . S
O113 C112 1.306 . S
O113 Cd114 2.228 1_545 S
Cd114 O113 2.228 1_565 S
Cd114 O118 2.273 1_565 S
Cd114 O122 2.277 . S
O115 C112 1.160 . S
O115 Cd116 2.203 . S
Cd116 O115 2.203 . S
Cd116 O118 2.411 . S
Cd116 O119 2.333 . S
Cd116 O120 2.352 . S
Cd116 O124 2.277 1_545 S
Cd116 O125 2.356 . S
C117 O122 1.209 . S
C117 O124 1.226 . S
O118 Cd114 2.273 1_545 S
O118 Cd116 2.411 . S
O118 C121 1.320 . S
O119 Cd116 2.333 . S
O119 C121 1.214 . S
O120 Cd116 2.352 . S
O120 C123 1.258 . S
C121 O118 1.320 . S
C121 O119 1.214 . S
O122 Cd114 2.277 . S
O122 C117 1.209 . S
C123 O120 1.258 . S
C123 O125 1.282 . S
O124 Cd116 2.277 1_565 S
O124 C117 1.226 . S
O125 Cd116 2.356 . S
O125 C123 1.282 . S
C126 O127 1.306 . S
C126 O129 1.160 . S
O127 C126 1.306 . S
O127 Cd128 2.228 . S
Cd128 O127 2.228 . S
Cd128 O132 2.273 . S
Cd128 O136 2.277 . S
O129 C126 1.160 . S
O129 Cd130 2.203 . S
Cd130 O129 2.203 . S
Cd130 O132 2.411 . S
Cd130 O133 2.333 . S
Cd130 O134 2.352 . S
Cd130 O138 2.277 . S
Cd130 O139 2.356 . S
C131 O136 1.209 . S
C131 O138 1.226 . S
O132 Cd128 2.273 . S
O132 Cd130 2.411 . S
O132 C135 1.320 . S
O133 Cd130 2.333 . S
O133 C135 1.214 . S
O134 Cd130 2.352 . S
O134 C137 1.258 . S
C135 O132 1.320 . S
C135 O133 1.214 . S
O136 Cd128 2.277 . S
O136 C131 1.209 . S
C137 O134 1.258 . S
C137 O139 1.282 . S
O138 Cd130 2.277 . S
O138 C131 1.226 . S
O139 Cd130 2.356 . S
O139 C137 1.282 . S
C140 O141 1.306 . S
C140 O143 1.171 . S
O141 C140 1.306 . S
O141 Cd142 2.228 . S
Cd142 O141 2.228 . S
Cd142 O146 2.273 1_545 S
Cd142 O150 2.277 . S
O143 C140 1.171 . S
O143 Cd144 2.204 1_545 S
Cd144 O143 2.204 1_565 S
Cd144 O146 2.411 . S
Cd144 O147 2.333 . S
Cd144 O148 2.352 . S
Cd144 O152 2.277 1_565 S
Cd144 O153 2.356 . S
C145 O150 1.209 . S
C145 O152 1.226 . S
O146 Cd142 2.273 1_565 S
O146 Cd144 2.411 . S
O146 C149 1.320 . S
O147 Cd144 2.333 . S
O147 C149 1.214 . S
O148 Cd144 2.352 . S
O148 C151 1.258 . S
C149 O146 1.320 . S
C149 O147 1.214 . S
O150 Cd142 2.277 . S
O150 C145 1.209 . S
C151 O148 1.258 . S
C151 O153 1.282 . S
O152 Cd144 2.277 1_545 S
O152 C145 1.226 . S
O153 Cd144 2.356 . S
O153 C151 1.282 . S
C154 O155 1.306 . S
C154 O157 1.160 . S
O155 C154 1.306 . S
O155 Cd156 2.228 1_554 S
Cd156 O155 2.228 1_556 S
Cd156 O160 2.273 1_556 S
Cd156 O164 2.277 . S
O157 C154 1.160 . S
O157 Cd158 2.203 . S
Cd158 O157 2.203 . S
Cd158 O160 2.411 . S
Cd158 O161 2.333 . S
Cd158 O162 2.352 . S
Cd158 O166 2.277 1_554 S
Cd158 O167 2.356 . S
C159 O164 1.209 . S
C159 O166 1.226 . S
O160 Cd156 2.273 1_554 S
O160 Cd158 2.411 . S
O160 C163 1.320 . S
O161 Cd158 2.333 . S
O161 C163 1.214 . S
O162 Cd158 2.352 . S
O162 C165 1.258 . S
C163 O160 1.320 . S
C163 O161 1.214 . S
O164 Cd156 2.277 . S
O164 C159 1.209 . S
C165 O162 1.258 . S
C165 O167 1.282 . S
O166 Cd158 2.277 1_556 S
O166 C159 1.226 . S
O167 Cd158 2.356 . S
O167 C165 1.282 . S
C168 O169 1.306 . S
C168 O171 1.160 . S
O169 C168 1.306 . S
O169 Cd170 2.228 1_554 S
Cd170 O169 2.228 1_556 S
Cd170 O174 2.273 1_556 S
Cd170 O178 2.277 . S
O171 C168 1.160 . S
O171 Cd172 2.203 . S
Cd172 O171 2.203 . S
Cd172 O174 2.411 . S
Cd172 O175 2.333 . S
Cd172 O176 2.352 . S
Cd172 O180 2.277 1_554 S
Cd172 O181 2.356 . S
C173 O178 1.209 . S
C173 O180 1.226 . S
O174 Cd170 2.273 1_554 S
O174 Cd172 2.411 . S
O174 C177 1.320 . S
O175 Cd172 2.333 . S
O175 C177 1.214 . S
O176 Cd172 2.352 . S
O176 C179 1.258 . S
C177 O174 1.320 . S
C177 O175 1.214 . S
O178 Cd170 2.277 . S
O178 C173 1.209 . S
C179 O176 1.258 . S
C179 O181 1.282 . S
O180 Cd172 2.277 1_556 S
O180 C173 1.226 . S
O181 Cd172 2.356 . S
O181 C179 1.282 . S
C182 O183 1.306 . S
C182 O185 1.160 . S
O183 C182 1.306 . S
O183 Cd184 2.228 . S
Cd184 O183 2.228 . S
Cd184 O188 2.273 . S
Cd184 O192 2.277 . S
O185 C182 1.160 . S
O185 Cd186 2.203 . S
Cd186 O185 2.203 . S
Cd186 O188 2.411 . S
Cd186 O189 2.333 . S
Cd186 O190 2.352 1_554 S
Cd186 O194 2.277 . S
Cd186 O195 2.356 1_554 S
C187 O192 1.209 . S
C187 O194 1.226 . S
O188 Cd184 2.273 . S
O188 Cd186 2.411 . S
O188 C191 1.320 . S
O189 Cd186 2.333 . S
O189 C191 1.214 . S
O190 Cd186 2.352 1_556 S
O190 C193 1.258 . S
C191 O188 1.320 . S
C191 O189 1.214 . S
O192 Cd184 2.277 . S
O192 C187 1.209 . S
C193 O190 1.258 . S
C193 O195 1.282 . S
O194 Cd186 2.277 . S
O194 C187 1.226 . S
O195 Cd186 2.356 1_556 S
O195 C193 1.282 . S
C196 O197 1.306 . S
C196 O199 1.160 . S
O197 C196 1.306 . S
O197 Cd198 2.228 . S
Cd198 O197 2.228 . S
Cd198 O202 2.273 . S
Cd198 O206 2.277 . S
O199 C196 1.160 . S
O199 Cd200 2.203 . S
Cd200 O199 2.203 . S
Cd200 O202 2.411 . S
Cd200 O203 2.333 . S
Cd200 O204 2.352 . S
Cd200 O208 2.277 . S
Cd200 O209 2.356 . S
C201 O206 1.209 . S
C201 O208 1.226 . S
O202 Cd198 2.273 . S
O202 Cd200 2.411 . S
O202 C205 1.320 . S
O203 Cd200 2.333 . S
O203 C205 1.214 . S
O204 Cd200 2.352 . S
O204 C207 1.258 . S
C205 O202 1.320 . S
C205 O203 1.214 . S
O206 Cd198 2.277 . S
O206 C201 1.209 . S
C207 O204 1.258 . S
C207 O209 1.282 . S
O208 Cd200 2.277 . S
O208 C201 1.226 . S
O209 Cd200 2.356 . S
O209 C207 1.282 . S
C210 O211 1.306 . S
C210 O213 1.160 . S
O211 C210 1.306 . S
O211 Cd212 2.228 . S
Cd212 O211 2.228 . S
Cd212 O216 2.273 . S
Cd212 O220 2.277 . S
O213 C210 1.160 . S
O213 Cd214 2.203 . S
Cd214 O213 2.203 . S
Cd214 O216 2.411 . S
Cd214 O217 2.333 . S
Cd214 O218 2.352 . S
Cd214 O222 2.277 . S
Cd214 O223 2.356 . S
C215 O220 1.209 . S
C215 O222 1.226 . S
O216 Cd212 2.273 . S
O216 Cd214 2.411 . S
O216 C219 1.320 . S
O217 Cd214 2.333 . S
O217 C219 1.214 . S
O218 Cd214 2.352 . S
O218 C221 1.258 . S
C219 O216 1.320 . S
C219 O217 1.214 . S
O220 Cd212 2.277 . S
O220 C215 1.209 . S
C221 O218 1.258 . S
C221 O223 1.282 . S
O222 Cd214 2.277 . S
O222 C215 1.226 . S
O223 Cd214 2.356 . S
O223 C221 1.282 . S
C224 O225 1.306 . S
C224 O227 1.160 . S
O225 C224 1.306 . S
O225 Cd226 2.228 . S
Cd226 O225 2.228 . S
Cd226 O230 2.273 . S
Cd226 O234 2.277 . S
O227 C224 1.160 . S
O227 Cd228 2.203 . S
Cd228 O227 2.203 . S
Cd228 O230 2.411 . S
Cd228 O231 2.333 . S
Cd228 O232 2.352 . S
Cd228 O236 2.277 . S
Cd228 O237 2.356 . S
C229 O234 1.209 . S
C229 O236 1.226 . S
O230 Cd226 2.273 . S
O230 Cd228 2.411 . S
O230 C233 1.320 . S
O231 Cd228 2.333 . S
O231 C233 1.214 . S
O232 Cd228 2.352 . S
O232 C235 1.258 . S
C233 O230 1.320 . S
C233 O231 1.214 . S
O234 Cd226 2.277 . S
O234 C229 1.209 . S
C235 O232 1.258 . S
C235 O237 1.282 . S
O236 Cd228 2.277 . S
O236 C229 1.226 . S
O237 Cd228 2.356 . S
O237 C235 1.282 . S
C238 O239 1.306 . S
C238 O241 1.160 . S
O239 C238 1.306 . S
O239 Cd240 2.228 . S
Cd240 O239 2.228 . S
Cd240 O244 2.273 . S
Cd240 O248 2.277 . S
O241 C238 1.160 . S
O241 Cd242 2.203 . S
Cd242 O241 2.203 . S
Cd242 O244 2.411 . S
Cd242 O245 2.333 . S
Cd242 O246 2.352 . S
Cd242 O250 2.277 . S
Cd242 O251 2.356 . S
C243 O248 1.209 . S
C243 O250 1.226 . S
O244 Cd240 2.273 . S
O244 Cd242 2.411 . S
O244 C247 1.320 . S
O245 Cd242 2.333 . S
O245 C247 1.214 . S
O246 Cd242 2.352 . S
O246 C249 1.258 . S
C247 O244 1.320 . S
C247 O245 1.214 . S
O248 Cd240 2.277 . S
O248 C243 1.209 . S
C249 O246 1.258 . S
C249 O251 1.282 . S
O250 Cd242 2.277 . S
O250 C243 1.226 . S
O251 Cd242 2.356 . S
O251 C249 1.282 . S
C252 O253 1.306 . S
C252 O255 1.160 . S
O253 C252 1.306 . S
O253 Cd254 2.228 . S
Cd254 O253 2.228 . S
Cd254 O258 2.273 . S
Cd254 O262 2.277 . S
O255 C252 1.160 . S
O255 Cd256 2.203 . S
Cd256 O255 2.203 . S
Cd256 O258 2.411 . S
Cd256 O259 2.333 . S
Cd256 O260 2.352 . S
Cd256 O264 2.277 . S
Cd256 O265 2.356 . S
C257 O262 1.209 . S
C257 O264 1.226 . S
O258 Cd254 2.273 . S
O258 Cd256 2.411 . S
O258 C261 1.320 . S
O259 Cd256 2.333 . S
O259 C261 1.214 . S
O260 Cd256 2.352 . S
O260 C263 1.258 . S
C261 O258 1.320 . S
C261 O259 1.214 . S
O262 Cd254 2.277 . S
O262 C257 1.209 . S
C263 O260 1.258 . S
C263 O265 1.282 . S
O264 Cd256 2.277 . S
O264 C257 1.226 . S
O265 Cd256 2.356 . S
O265 C263 1.282 . S
C266 O267 1.306 . S
C266 O269 1.160 . S
O267 C266 1.306 . S
O267 Cd268 2.228 . S
Cd268 O267 2.228 . S
Cd268 O272 2.273 . S
Cd268 O276 2.277 . S
O269 C266 1.160 . S
O269 Cd270 2.203 . S
Cd270 O269 2.203 . S
Cd270 O272 2.411 . S
Cd270 O273 2.333 . S
Cd270 O274 2.352 . S
Cd270 O278 2.277 . S
Cd270 O279 2.356 . S
C271 O276 1.209 . S
C271 O278 1.226 . S
O272 Cd268 2.273 . S
O272 Cd270 2.411 . S
O272 C275 1.320 . S
O273 Cd270 2.333 . S
O273 C275 1.214 . S
O274 Cd270 2.352 . S
O274 C277 1.258 . S
C275 O272 1.320 . S
C275 O273 1.214 . S
O276 Cd268 2.277 . S
O276 C271 1.209 . S
C277 O274 1.258 . S
C277 O279 1.282 . S
O278 Cd270 2.277 . S
O278 C271 1.226 . S
O279 Cd270 2.356 . S
O279 C277 1.282 . S
C280 O281 1.306 . S
C280 O283 1.160 . S
O281 C280 1.306 . S
O281 Cd282 2.228 . S
Cd282 O281 2.228 . S
Cd282 O286 2.273 . S
Cd282 O290 2.277 . S
O283 C280 1.160 . S
O283 Cd284 2.203 . S
Cd284 O283 2.203 . S
Cd284 O286 2.411 . S
Cd284 O287 2.334 1_554 S
Cd284 O288 2.352 1_554 S
Cd284 O292 2.277 . S
Cd284 O293 2.356 1_554 S
C285 O290 1.209 . S
C285 O292 1.226 . S
O286 Cd282 2.273 . S
O286 Cd284 2.411 . S
O286 C289 1.320 . S
O287 Cd284 2.334 1_556 S
O287 C289 1.209 1_556 S
O288 Cd284 2.352 1_556 S
O288 C291 1.258 . S
C289 O286 1.320 . S
C289 O287 1.209 1_554 S
O290 Cd282 2.277 . S
O290 C285 1.209 . S
C291 O288 1.258 . S
C291 O293 1.282 . S
O292 Cd284 2.277 . S
O292 C285 1.226 . S
O293 Cd284 2.356 1_556 S
O293 C291 1.282 . S
C294 O295 1.306 . S
C294 O297 1.160 . S
O295 C294 1.306 . S
O295 Cd296 2.228 . S
Cd296 O295 2.228 . S
Cd296 O300 2.273 . S
Cd296 O304 2.277 . S
O297 C294 1.160 . S
O297 Cd298 2.203 . S
Cd298 O297 2.203 . S
Cd298 O300 2.411 . S
Cd298 O301 2.333 . S
Cd298 O302 2.352 . S
Cd298 O306 2.277 . S
Cd298 O307 2.356 . S
C299 O304 1.209 . S
C299 O306 1.226 . S
O300 Cd296 2.273 . S
O300 Cd298 2.411 . S
O300 C303 1.320 . S
O301 Cd298 2.333 . S
O301 C303 1.214 . S
O302 Cd298 2.352 . S
O302 C305 1.258 . S
C303 O300 1.320 . S
C303 O301 1.214 . S
O304 Cd296 2.277 . S
O304 C299 1.209 . S
C305 O302 1.258 . S
C305 O307 1.282 . S
O306 Cd298 2.277 . S
O306 C299 1.226 . S
O307 Cd298 2.356 . S
O307 C305 1.282 . S
C308 O309 1.306 . S
C308 O311 1.160 . S
O309 C308 1.306 . S
O309 Cd310 2.228 . S
Cd310 O309 2.228 . S
Cd310 O314 2.273 . S
Cd310 O318 2.277 . S
O311 C308 1.160 . S
O311 Cd312 2.203 . S
Cd312 O311 2.203 . S
Cd312 O314 2.411 . S
Cd312 O315 2.333 . S
Cd312 O316 2.352 . S
Cd312 O320 2.277 . S
Cd312 O321 2.356 . S
C313 O318 1.209 . S
C313 O320 1.226 . S
O314 Cd310 2.273 . S
O314 Cd312 2.411 . S
O314 C317 1.320 . S
O315 Cd312 2.333 . S
O315 C317 1.214 . S
O316 Cd312 2.352 . S
O316 C319 1.258 . S
C317 O314 1.320 . S
C317 O315 1.214 . S
O318 Cd310 2.277 . S
O318 C313 1.209 . S
C319 O316 1.258 . S
C319 O321 1.282 . S
O320 Cd312 2.277 . S
O320 C313 1.226 . S
O321 Cd312 2.356 . S
O321 C319 1.282 . S
C322 O323 1.306 . S
C322 O325 1.160 . S
O323 C322 1.306 . S
O323 Cd324 2.228 . S
Cd324 O323 2.228 . S
Cd324 O328 2.273 . S
Cd324 O332 2.277 . S
O325 C322 1.160 . S
O325 Cd326 2.203 . S
Cd326 O325 2.203 . S
Cd326 O328 2.411 . S
Cd326 O329 2.333 . S
Cd326 O330 2.352 . S
Cd326 O334 2.277 . S
Cd326 O335 2.356 . S
C327 O332 1.209 . S
C327 O334 1.226 . S
O328 Cd324 2.273 . S
O328 Cd326 2.411 . S
O328 C331 1.320 . S
O329 Cd326 2.333 . S
O329 C331 1.214 . S
O330 Cd326 2.352 . S
O330 C333 1.258 . S
C331 O328 1.320 . S
C331 O329 1.214 . S
O332 Cd324 2.277 . S
O332 C327 1.209 . S
C333 O330 1.258 . S
C333 O335 1.282 . S
O334 Cd326 2.277 . S
O334 C327 1.226 . S
O335 Cd326 2.356 . S
O335 C333 1.282 . S
Ho336 C339 2.811 1_454 S
Ho336 O356 2.321 1_554 S
Ho336 O358 2.378 1_454 S
Ho336 O359 2.524 1_455 S
Ho336 O360 2.380 1_554 S
Ho336 O361 2.669 1_554 S
Ho336 O363 2.346 1_545 S
Ho336 O367 2.305 . S
Ho337 C348 2.811 . S
Ho337 O357 2.346 . S
Ho337 O361 2.305 1_554 S
Ho337 O362 2.322 . S
Ho337 O364 2.378 . S
Ho337 O365 2.524 . S
Ho337 O366 2.381 . S
Ho337 O367 2.669 . S
C338 O356 1.259 1_554 S
C338 O357 1.268 . S
C339 Ho336 2.811 1_656 S
C339 C340 1.488 . S
C339 O358 1.215 . S
C339 O359 1.289 1_556 S
C340 C339 1.488 . S
C340 C341 1.348 1_556 S
C340 C345 1.413 . S
C341 C340 1.348 1_554 S
C341 C342 1.442 1_554 S
C341 H368 0.930 . S
C342 C341 1.442 1_556 S
C342 C343 1.381 . S
C342 H369 0.931 1_556 S
C343 C342 1.381 . S
C343 C344 1.321 . S
C344 C343 1.321 . S
C344 C345 1.403 . S
C344 H370 0.934 . S
C345 C340 1.413 . S
C345 C344 1.403 . S
C345 H371 0.930 . S
C346 O360 1.275 . S
C346 O361 1.256 . S
C347 O362 1.259 1_565 S
C347 O363 1.268 . S
C348 Ho337 2.811 . S
C348 C349 1.488 . S
C348 O364 1.215 . S
C348 O365 1.289 . S
C349 C348 1.488 . S
C349 C350 1.348 . S
C349 C354 1.413 . S
C350 C349 1.348 . S
C350 C351 1.442 1_545 S
C350 H372 0.930 1_545 S
C351 C350 1.442 1_565 S
C351 C352 1.380 1_565 S
C351 H373 0.931 . S
C352 C351 1.380 1_545 S
C352 C353 1.342 . S
C353 C352 1.342 . S
C353 C354 1.403 . S
C353 H374 0.934 . S
C354 C349 1.413 . S
C354 C353 1.403 . S
C354 H375 0.930 . S
C355 O366 1.275 . S
C355 O367 1.256 . S
O356 Ho336 2.321 1_556 S
O356 C338 1.259 1_556 S
O357 Ho337 2.346 . S
O357 C338 1.268 . S
O358 Ho336 2.378 1_656 S
O358 C339 1.215 . S
O359 Ho336 2.524 1_655 S
O359 C339 1.289 1_554 S
O360 Ho336 2.380 1_556 S
O360 C346 1.275 . S
O361 Ho336 2.669 1_556 S
O361 Ho337 2.305 1_556 S
O361 C346 1.256 . S
O362 Ho337 2.322 . S
O362 C347 1.259 1_545 S
O363 Ho336 2.346 1_565 S
O363 C347 1.268 . S
O364 Ho337 2.378 . S
O364 C348 1.215 . S
O365 Ho337 2.524 . S
O365 C348 1.289 . S
O366 Ho337 2.381 . S
O366 C355 1.275 . S
O367 Ho336 2.305 . S
O367 Ho337 2.669 . S
O367 C355 1.256 . S
H368 C341 0.930 . S
H369 C342 0.931 1_554 S
H370 C344 0.934 . S
H371 C345 0.930 . S
H372 C350 0.930 1_565 S
H373 C351 0.931 . S
H374 C353 0.934 . S
H375 C354 0.930 . S
Ho376 C379 2.811 . S
Ho376 O396 2.322 . S
Ho376 O398 2.378 . S
Ho376 O399 2.524 . S
Ho376 O400 2.381 . S
Ho376 O401 2.669 . S
Ho376 O403 2.346 . S
Ho376 O407 2.305 . S
Ho377 C388 2.811 . S
Ho377 O397 2.346 . S
Ho377 O401 2.305 . S
Ho377 O402 2.322 . S
Ho377 O404 2.378 . S
Ho377 O405 2.524 . S
Ho377 O406 2.381 . S
Ho377 O407 2.669 . S
C378 O396 1.259 . S
C378 O397 1.268 . S
C379 Ho376 2.811 . S
C379 C380 1.488 . S
C379 O398 1.215 . S
C379 O399 1.289 . S
C380 C379 1.488 . S
C380 C381 1.348 . S
C380 C385 1.413 . S
C381 C380 1.348 . S
C381 C382 1.442 . S
C381 H408 0.930 . S
C382 C381 1.442 . S
C382 C383 1.381 . S
C382 H409 0.931 . S
C383 C382 1.381 . S
C383 C384 1.321 . S
C384 C383 1.321 . S
C384 C385 1.403 . S
C384 H410 0.934 . S
C385 C380 1.413 . S
C385 C384 1.403 . S
C385 H411 0.930 . S
C386 O400 1.275 . S
C386 O401 1.256 . S
C387 O402 1.259 . S
C387 O403 1.268 . S
C388 Ho377 2.811 . S
C388 C389 1.488 . S
C388 O404 1.215 . S
C388 O405 1.289 . S
C389 C388 1.488 . S
C389 C390 1.348 . S
C389 C394 1.413 . S
C390 C389 1.348 . S
C390 C391 1.442 . S
C390 H412 0.930 . S
C391 C390 1.442 . S
C391 C392 1.381 . S
C391 H413 0.931 . S
C392 C391 1.381 . S
C392 C393 1.321 . S
C393 C392 1.321 . S
C393 C394 1.403 . S
C393 H414 0.934 . S
C394 C389 1.413 . S
C394 C393 1.403 . S
C394 H415 0.930 . S
C395 O406 1.275 . S
C395 O407 1.256 . S
O396 Ho376 2.322 . S
O396 C378 1.259 . S
O397 Ho377 2.346 . S
O397 C378 1.268 . S
O398 Ho376 2.378 . S
O398 C379 1.215 . S
O399 Ho376 2.524 . S
O399 C379 1.289 . S
O400 Ho376 2.381 . S
O400 C386 1.275 . S
O401 Ho376 2.669 . S
O401 Ho377 2.305 . S
O401 C386 1.256 . S
O402 Ho377 2.322 . S
O402 C387 1.259 . S
O403 Ho376 2.346 . S
O403 C387 1.268 . S
O404 Ho377 2.378 . S
O404 C388 1.215 . S
O405 Ho377 2.524 . S
O405 C388 1.289 . S
O406 Ho377 2.381 . S
O406 C395 1.275 . S
O407 Ho376 2.305 . S
O407 Ho377 2.669 . S
O407 C395 1.256 . S
H408 C381 0.930 . S
H409 C382 0.931 . S
H410 C384 0.934 . S
H411 C385 0.930 . S
H412 C390 0.930 . S
H413 C391 0.931 . S
H414 C393 0.934 . S
H415 C394 0.930 . S
Ho416 C419 2.811 . S
Ho416 O436 2.324 1_545 S
Ho416 O438 2.378 . S
Ho416 O439 2.524 . S
Ho416 O440 2.381 . S
Ho416 O441 2.669 . S
Ho416 O443 2.346 . S
Ho416 O447 2.305 . S
Ho417 C428 2.811 . S
Ho417 O437 2.346 1_545 S
Ho417 O441 2.305 . S
Ho417 O442 2.322 . S
Ho417 O444 2.378 . S
Ho417 O445 2.524 . S
Ho417 O446 2.381 . S
Ho417 O447 2.669 . S
C418 O436 1.258 . S
C418 O437 1.268 . S
C419 Ho416 2.811 . S
C419 C420 1.488 1_545 S
C419 O438 1.215 . S
C419 O439 1.289 . S
C420 C419 1.488 1_565 S
C420 C421 1.348 . S
C420 C425 1.413 . S
C421 C420 1.348 . S
C421 C422 1.442 . S
C421 H448 0.930 . S
C422 C421 1.442 . S
C422 C423 1.381 . S
C422 H449 0.931 . S
C423 C422 1.381 . S
C423 C424 1.321 . S
C424 C423 1.321 . S
C424 C425 1.403 . S
C424 H450 0.934 . S
C425 C420 1.413 . S
C425 C424 1.403 . S
C425 H451 0.948 . S
C426 O440 1.275 . S
C426 O441 1.256 . S
C427 O442 1.259 . S
C427 O443 1.268 . S
C428 Ho417 2.811 . S
C428 C429 1.488 . S
C428 O444 1.215 . S
C428 O445 1.289 . S
C429 C428 1.488 . S
C429 C430 1.348 . S
C429 C434 1.413 . S
C430 C429 1.348 . S
C430 C431 1.442 . S
C430 H452 0.930 . S
C431 C430 1.442 . S
C431 C432 1.381 . S
C431 H453 0.931 . S
C432 C431 1.381 . S
C432 C433 1.321 . S
C433 C432 1.321 . S
C433 C434 1.403 . S
C433 H454 0.934 . S
C434 C429 1.413 . S
C434 C433 1.403 . S
C434 H455 0.930 . S
C435 O446 1.275 . S
C435 O447 1.256 . S
O436 Ho416 2.324 1_565 S
O436 C418 1.258 . S
O437 Ho417 2.346 1_565 S
O437 C418 1.268 . S
O438 Ho416 2.378 . S
O438 C419 1.215 . S
O439 Ho416 2.524 . S
O439 C419 1.289 . S
O440 Ho416 2.381 . S
O440 C426 1.275 . S
O441 Ho416 2.669 . S
O441 Ho417 2.305 . S
O441 C426 1.256 . S
O442 Ho417 2.322 . S
O442 C427 1.259 . S
O443 Ho416 2.346 . S
O443 C427 1.268 . S
O444 Ho417 2.378 . S
O444 C428 1.215 . S
O445 Ho417 2.524 . S
O445 C428 1.289 . S
O446 Ho417 2.381 . S
O446 C435 1.275 . S
O447 Ho416 2.305 . S
O447 Ho417 2.669 . S
O447 C435 1.256 . S
H448 C421 0.930 . S
H449 C422 0.931 . S
H450 C424 0.934 . S
H451 C425 0.948 . S
H452 C430 0.930 . S
H453 C431 0.931 . S
H454 C433 0.934 . S
H455 C434 0.930 . S
Ho456 C459 2.811 . S
Ho456 O476 2.322 . S
Ho456 O478 2.378 . S
Ho456 O479 2.524 . S
Ho456 O480 2.381 . S
Ho456 O481 2.669 . S
Ho456 O483 2.346 . S
Ho456 O487 2.305 . S
Ho457 C468 2.811 . S
Ho457 O477 2.346 . S
Ho457 O481 2.305 . S
Ho457 O482 2.322 . S
Ho457 O484 2.378 . S
Ho457 O485 2.524 . S
Ho457 O486 2.381 . S
Ho457 O487 2.669 . S
C458 O476 1.259 . S
C458 O477 1.268 . S
C459 Ho456 2.811 . S
C459 C460 1.488 . S
C459 O478 1.215 . S
C459 O479 1.289 . S
C460 C459 1.488 . S
C460 C461 1.348 . S
C460 C465 1.413 . S
C461 C460 1.348 . S
C461 C462 1.442 . S
C461 H488 0.930 . S
C462 C461 1.442 . S
C462 C463 1.381 . S
C462 H489 0.931 . S
C463 C462 1.381 . S
C463 C464 1.321 . S
C464 C463 1.321 . S
C464 C465 1.403 . S
C464 H490 0.934 . S
C465 C460 1.413 . S
C465 C464 1.403 . S
C465 H491 0.930 . S
C466 O480 1.275 . S
C466 O481 1.256 . S
C467 O482 1.259 . S
C467 O483 1.268 . S
C468 Ho457 2.811 . S
C468 C469 1.488 . S
C468 O484 1.215 . S
C468 O485 1.289 . S
C469 C468 1.488 . S
C469 C470 1.348 . S
C469 C474 1.413 . S
C470 C469 1.348 . S
C470 C471 1.442 . S
C470 H492 0.930 . S
C471 C470 1.442 . S
C471 C472 1.381 . S
C471 H493 0.931 . S
C472 C471 1.381 . S
C472 C473 1.321 . S
C473 C472 1.321 . S
C473 C474 1.403 . S
C473 H494 0.934 . S
C474 C469 1.413 . S
C474 C473 1.403 . S
C474 H495 0.930 . S
C475 O486 1.275 . S
C475 O487 1.256 . S
O476 Ho456 2.322 . S
O476 C458 1.259 . S
O477 Ho457 2.346 . S
O477 C458 1.268 . S
O478 Ho456 2.378 . S
O478 C459 1.215 . S
O479 Ho456 2.524 . S
O479 C459 1.289 . S
O480 Ho456 2.381 . S
O480 C466 1.275 . S
O481 Ho456 2.669 . S
O481 Ho457 2.305 . S
O481 C466 1.256 . S
O482 Ho457 2.322 . S
O482 C467 1.259 . S
O483 Ho456 2.346 . S
O483 C467 1.268 . S
O484 Ho457 2.378 . S
O484 C468 1.215 . S
O485 Ho457 2.524 . S
O485 C468 1.289 . S
O486 Ho457 2.381 . S
O486 C475 1.275 . S
O487 Ho456 2.305 . S
O487 Ho457 2.669 . S
O487 C475 1.256 . S
H488 C461 0.930 . S
H489 C462 0.931 . S
H490 C464 0.934 . S
H491 C465 0.930 . S
H492 C470 0.930 . S
H493 C471 0.931 . S
H494 C473 0.934 . S
H495 C474 0.930 . S
Ho496 C499 2.811 . S
Ho496 O516 2.322 . S
Ho496 O518 2.378 . S
Ho496 O519 2.524 . S
Ho496 O520 2.381 . S
Ho496 O521 2.669 . S
Ho496 O523 2.346 . S
Ho496 O527 2.305 . S
Ho497 C508 2.811 1_545 S
Ho497 O517 2.346 . S
Ho497 O521 2.305 . S
Ho497 O522 2.322 . S
Ho497 O524 2.378 1_545 S
Ho497 O525 2.524 1_545 S
Ho497 O526 2.381 . S
Ho497 O527 2.669 . S
C498 O516 1.259 . S
C498 O517 1.268 . S
C499 Ho496 2.811 . S
C499 C500 1.488 . S
C499 O518 1.215 . S
C499 O519 1.289 . S
C500 C499 1.488 . S
C500 C501 1.348 . S
C500 C505 1.413 . S
C501 C500 1.348 . S
C501 C502 1.442 . S
C501 H528 0.930 . S
C502 C501 1.442 . S
C502 C503 1.381 . S
C502 H529 0.931 . S
C503 C502 1.381 . S
C503 C504 1.321 . S
C504 C503 1.321 . S
C504 C505 1.403 . S
C504 H530 0.934 . S
C505 C500 1.413 . S
C505 C504 1.403 . S
C505 H531 0.930 . S
C506 O520 1.275 . S
C506 O521 1.256 . S
C507 O522 1.259 . S
C507 O523 1.268 . S
C508 Ho497 2.811 1_565 S
C508 C509 1.488 . S
C508 O524 1.215 . S
C508 O525 1.289 . S
C509 C508 1.488 . S
C509 C510 1.348 . S
C509 C514 1.413 . S
C510 C509 1.348 . S
C510 C511 1.442 . S
C510 H532 0.930 . S
C511 C510 1.442 . S
C511 C512 1.381 . S
C511 H533 0.931 . S
C512 C511 1.381 . S
C512 C513 1.321 . S
C513 C512 1.321 . S
C513 C514 1.403 . S
C513 H534 0.934 . S
C514 C509 1.413 . S
C514 C513 1.403 . S
C514 H535 0.930 . S
C515 O526 1.275 . S
C515 O527 1.256 . S
O516 Ho496 2.322 . S
O516 C498 1.259 . S
O517 Ho497 2.346 . S
O517 C498 1.268 . S
O518 Ho496 2.378 . S
O518 C499 1.215 . S
O519 Ho496 2.524 . S
O519 C499 1.289 . S
O520 Ho496 2.381 . S
O520 C506 1.275 . S
O521 Ho496 2.669 . S
O521 Ho497 2.305 . S
O521 C506 1.256 . S
O522 Ho497 2.322 . S
O522 C507 1.259 . S
O523 Ho496 2.346 . S
O523 C507 1.268 . S
O524 Ho497 2.378 1_565 S
O524 C508 1.215 . S
O525 Ho497 2.524 1_565 S
O525 C508 1.289 . S
O526 Ho497 2.381 . S
O526 C515 1.275 . S
O527 Ho496 2.305 . S
O527 Ho497 2.669 . S
O527 C515 1.256 . S
H528 C501 0.930 . S
H529 C502 0.931 . S
H530 C504 0.934 . S
H531 C505 0.930 . S
H532 C510 0.930 . S
H533 C511 0.931 . S
H534 C513 0.934 . S
H535 C514 0.930 . S
Ho536 C539 2.811 . S
Ho536 O556 2.322 . S
Ho536 O558 2.378 . S
Ho536 O559 2.524 . S
Ho536 O560 2.381 . S
Ho536 O561 2.669 . S
Ho536 O563 2.346 . S
Ho536 O567 2.305 . S
Ho537 C548 2.811 . S
Ho537 O557 2.346 . S
Ho537 O561 2.305 . S
Ho537 O562 2.322 . S
Ho537 O564 2.378 . S
Ho537 O565 2.524 . S
Ho537 O566 2.381 . S
Ho537 O567 2.669 . S
C538 O556 1.259 . S
C538 O557 1.268 . S
C539 Ho536 2.811 . S
C539 C540 1.488 . S
C539 O558 1.215 . S
C539 O559 1.289 . S
C540 C539 1.488 . S
C540 C541 1.348 . S
C540 C545 1.413 . S
C541 C540 1.348 . S
C541 C542 1.442 . S
C541 H568 0.930 . S
C542 C541 1.442 . S
C542 C543 1.381 . S
C542 H569 0.931 . S
C543 C542 1.381 . S
C543 C544 1.321 . S
C544 C543 1.321 . S
C544 C545 1.403 . S
C544 H570 0.934 . S
C545 C540 1.413 . S
C545 C544 1.403 . S
C545 H571 0.930 . S
C546 O560 1.275 . S
C546 O561 1.256 . S
C547 O562 1.259 . S
C547 O563 1.268 . S
C548 Ho537 2.811 . S
C548 C549 1.488 . S
C548 O564 1.215 . S
C548 O565 1.289 . S
C549 C548 1.488 . S
C549 C550 1.348 . S
C549 C554 1.413 . S
C550 C549 1.348 . S
C550 C551 1.442 . S
C550 H572 0.930 . S
C551 C550 1.442 . S
C551 C552 1.381 . S
C551 H573 0.931 . S
C552 C551 1.381 . S
C552 C553 1.321 . S
C553 C552 1.321 . S
C553 C554 1.403 . S
C553 H574 0.934 . S
C554 C549 1.413 . S
C554 C553 1.403 . S
C554 H575 0.930 . S
C555 O566 1.275 . S
C555 O567 1.256 . S
O556 Ho536 2.322 . S
O556 C538 1.259 . S
O557 Ho537 2.346 . S
O557 C538 1.268 . S
O558 Ho536 2.378 . S
O558 C539 1.215 . S
O559 Ho536 2.524 . S
O559 C539 1.289 . S
O560 Ho536 2.381 . S
O560 C546 1.275 . S
O561 Ho536 2.669 . S
O561 Ho537 2.305 . S
O561 C546 1.256 . S
O562 Ho537 2.322 . S
O562 C547 1.259 . S
O563 Ho536 2.346 . S
O563 C547 1.268 . S
O564 Ho537 2.378 . S
O564 C548 1.215 . S
O565 Ho537 2.524 . S
O565 C548 1.289 . S
O566 Ho537 2.381 . S
O566 C555 1.275 . S
O567 Ho536 2.305 . S
O567 Ho537 2.669 . S
O567 C555 1.256 . S
H568 C541 0.930 . S
H569 C542 0.931 . S
H570 C544 0.934 . S
H571 C545 0.930 . S
H572 C550 0.930 . S
H573 C551 0.931 . S
H574 C553 0.934 . S
H575 C554 0.930 . S
Ho576 C579 2.811 . S
Ho576 O596 2.322 . S
Ho576 O598 2.378 . S
Ho576 O599 2.524 . S
Ho576 O600 2.381 1_545 S
Ho576 O601 2.669 1_554 S
Ho576 O603 2.346 . S
Ho576 O607 2.305 . S
Ho577 C588 2.811 . S
Ho577 O597 2.346 . S
Ho577 O601 2.305 . S
Ho577 O602 2.322 . S
Ho577 O604 2.378 . S
Ho577 O605 2.524 . S
Ho577 O606 2.381 1_556 S
Ho577 O607 2.669 1_556 S
C578 O596 1.259 . S
C578 O597 1.268 1_554 S
C579 Ho576 2.811 . S
C579 C580 1.488 . S
C579 O598 1.215 . S
C579 O599 1.289 . S
C580 C579 1.488 . S
C580 C581 1.348 . S
C580 C585 1.413 1_545 S
C581 C580 1.348 . S
C581 C582 1.442 . S
C581 H608 0.930 . S
C582 C581 1.442 . S
C582 C583 1.381 1_545 S
C582 H609 0.931 . S
C583 C582 1.381 1_565 S
C583 C584 1.321 . S
C584 C583 1.321 . S
C584 C585 1.403 . S
C584 H610 0.934 . S
C585 C580 1.413 1_565 S
C585 C584 1.403 . S
C585 H611 0.930 . S
C586 O600 1.270 1_556 S
C586 O601 1.258 1_565 S
C587 O602 1.259 1_554 S
C587 O603 1.268 . S
C588 Ho577 2.811 . S
C588 C589 1.488 . S
C588 O604 1.215 . S
C588 O605 1.289 . S
C589 C588 1.488 . S
C589 C590 1.348 . S
C589 C594 1.413 . S
C590 C589 1.348 . S
C590 C591 1.442 . S
C590 H612 0.930 . S
C591 C590 1.442 . S
C591 C592 1.381 . S
C591 H613 0.931 . S
C592 C591 1.381 . S
C592 C593 1.321 . S
C593 C592 1.321 . S
C593 C594 1.403 . S
C593 H614 0.934 . S
C594 C589 1.413 . S
C594 C593 1.403 . S
C594 H615 0.930 . S
C595 O606 1.275 . S
C595 O607 1.256 . S
O596 Ho576 2.322 . S
O596 C578 1.259 . S
O597 Ho577 2.346 . S
O597 C578 1.268 1_556 S
O598 Ho576 2.378 . S
O598 C579 1.215 . S
O599 Ho576 2.524 . S
O599 C579 1.289 . S
O600 Ho576 2.381 1_565 S
O600 C586 1.270 1_554 S
O601 Ho576 2.669 1_556 S
O601 Ho577 2.305 . S
O601 C586 1.258 1_545 S
O602 Ho577 2.322 . S
O602 C587 1.259 1_556 S
O603 Ho576 2.346 . S
O603 C587 1.268 . S
O604 Ho577 2.378 . S
O604 C588 1.215 . S
O605 Ho577 2.524 . S
O605 C588 1.289 . S
O606 Ho577 2.381 1_554 S
O606 C595 1.275 . S
O607 Ho576 2.305 . S
O607 Ho577 2.669 1_554 S
O607 C595 1.256 . S
H608 C581 0.930 . S
H609 C582 0.931 . S
H610 C584 0.934 . S
H611 C585 0.930 . S
H612 C590 0.930 . S
H613 C591 0.931 . S
H614 C593 0.934 . S
H615 C594 0.930 . S
Ho616 C619 2.811 . S
Ho616 O636 2.322 . S
Ho616 O638 2.378 . S
Ho616 O639 2.524 . S
Ho616 O640 2.381 . S
Ho616 O641 2.669 . S
Ho616 O643 2.346 . S
Ho616 O647 2.305 . S
Ho617 C628 2.811 . S
Ho617 O637 2.346 . S
Ho617 O641 2.305 . S
Ho617 O642 2.322 . S
Ho617 O644 2.378 . S
Ho617 O645 2.524 . S
Ho617 O646 2.381 . S
Ho617 O647 2.669 . S
C618 O636 1.259 . S
C618 O637 1.268 . S
C619 Ho616 2.811 . S
C619 C620 1.488 . S
C619 O638 1.215 . S
C619 O639 1.289 . S
C620 C619 1.488 . S
C620 C621 1.348 . S
C620 C625 1.413 . S
C621 C620 1.348 . S
C621 C622 1.442 . S
C621 H648 0.930 . S
C622 C621 1.442 . S
C622 C623 1.381 . S
C622 H649 0.931 . S
C623 C622 1.381 . S
C623 C624 1.321 . S
C624 C623 1.321 . S
C624 C625 1.403 . S
C624 H650 0.934 . S
C625 C620 1.413 . S
C625 C624 1.403 . S
C625 H651 0.930 . S
C626 O640 1.275 . S
C626 O641 1.256 . S
C627 O642 1.259 . S
C627 O643 1.268 . S
C628 Ho617 2.811 . S
C628 C629 1.488 . S
C628 O644 1.215 . S
C628 O645 1.289 . S
C629 C628 1.488 . S
C629 C630 1.348 . S
C629 C634 1.413 . S
C630 C629 1.348 . S
C630 C631 1.442 . S
C630 H652 0.930 . S
C631 C630 1.442 . S
C631 C632 1.381 . S
C631 H653 0.931 . S
C632 C631 1.381 . S
C632 C633 1.321 . S
C633 C632 1.321 . S
C633 C634 1.403 . S
C633 H654 0.934 . S
C634 C629 1.413 . S
C634 C633 1.403 . S
C634 H655 0.930 . S
C635 O646 1.275 . S
C635 O647 1.256 . S
O636 Ho616 2.322 . S
O636 C618 1.259 . S
O637 Ho617 2.346 . S
O637 C618 1.268 . S
O638 Ho616 2.378 . S
O638 C619 1.215 . S
O639 Ho616 2.524 . S
O639 C619 1.289 . S
O640 Ho616 2.381 . S
O640 C626 1.275 . S
O641 Ho616 2.669 . S
O641 Ho617 2.305 . S
O641 C626 1.256 . S
O642 Ho617 2.322 . S
O642 C627 1.259 . S
O643 Ho616 2.346 . S
O643 C627 1.268 . S
O644 Ho617 2.378 . S
O644 C628 1.215 . S
O645 Ho617 2.524 . S
O645 C628 1.289 . S
O646 Ho617 2.381 . S
O646 C635 1.275 . S
O647 Ho616 2.305 . S
O647 Ho617 2.669 . S
O647 C635 1.256 . S
H648 C621 0.930 . S
H649 C622 0.931 . S
H650 C624 0.934 . S
H651 C625 0.930 . S
H652 C630 0.930 . S
H653 C631 0.931 . S
H654 C633 0.934 . S
H655 C634 0.930 . S
Ho656 C659 2.780 1_554 S
Ho656 O676 2.322 1_554 S
Ho656 O678 2.378 . S
Ho656 O679 2.524 1_554 S
Ho656 O680 2.381 . S
Ho656 O681 2.669 . S
Ho656 O683 2.346 . S
Ho656 O687 2.305 . S
Ho657 C668 2.832 . S
Ho657 O677 2.315 1_554 S
Ho657 O681 2.318 . S
Ho657 O682 2.354 . S
Ho657 O684 2.390 . S
Ho657 O685 2.550 . S
Ho657 O686 2.376 . S
Ho657 O687 2.667 . S
C658 O676 1.259 . S
C658 O677 1.268 . S
C659 Ho656 2.780 1_556 S
C659 C660 1.520 . S
C659 O678 1.180 1_556 S
C659 O679 1.297 . S
C660 C659 1.520 . S
C660 C661 1.348 . S
C660 C665 1.413 . S
C661 C660 1.348 . S
C661 C662 1.442 . S
C661 H688 0.930 . S
C662 C661 1.442 . S
C662 C663 1.381 . S
C662 H689 0.931 . S
C663 C662 1.381 . S
C663 C664 1.321 . S
C664 C663 1.321 . S
C664 C665 1.403 . S
C664 H690 0.934 . S
C665 C660 1.413 . S
C665 C664 1.403 . S
C665 H691 0.930 . S
C666 O680 1.275 . S
C666 O681 1.256 . S
C667 O682 1.259 . S
C667 O683 1.268 . S
C668 Ho657 2.832 . S
C668 C669 1.488 . S
C668 O684 1.215 . S
C668 O685 1.289 . S
C669 C668 1.488 . S
C669 C670 1.348 . S
C669 C674 1.413 . S
C670 C669 1.348 . S
C670 C671 1.442 . S
C670 H692 0.930 . S
C671 C670 1.442 . S
C671 C672 1.381 . S
C671 H693 0.931 . S
C672 C671 1.381 . S
C672 C673 1.321 . S
C673 C672 1.321 . S
C673 C674 1.403 . S
C673 H694 0.934 . S
C674 C669 1.413 . S
C674 C673 1.403 . S
C674 H695 0.930 . S
C675 O686 1.275 . S
C675 O687 1.256 . S
O676 Ho656 2.322 1_556 S
O676 C658 1.259 . S
O677 Ho657 2.315 1_556 S
O677 C658 1.268 . S
O678 Ho656 2.378 . S
O678 C659 1.180 1_554 S
O679 Ho656 2.524 1_556 S
O679 C659 1.297 . S
O680 Ho656 2.381 . S
O680 C666 1.275 . S
O681 Ho656 2.669 . S
O681 Ho657 2.318 . S
O681 C666 1.256 . S
O682 Ho657 2.354 . S
O682 C667 1.259 . S
O683 Ho656 2.346 . S
O683 C667 1.268 . S
O684 Ho657 2.390 . S
O684 C668 1.215 . S
O685 Ho657 2.550 . S
O685 C668 1.289 . S
O686 Ho657 2.376 . S
O686 C675 1.275 . S
O687 Ho656 2.305 . S
O687 Ho657 2.667 . S
O687 C675 1.256 . S
H688 C661 0.930 . S
H689 C662 0.931 . S
H690 C664 0.934 . S
H691 C665 0.930 . S
H692 C670 0.930 . S
H693 C671 0.931 . S
H694 C673 0.934 . S
H695 C674 0.930 . S
Ho696 C699 2.811 . S
Ho696 O716 2.322 . S
Ho696 O718 2.378 . S
Ho696 O719 2.524 . S
Ho696 O720 2.381 . S
Ho696 O721 2.669 . S
Ho696 O723 2.346 . S
Ho696 O727 2.305 . S
Ho697 C708 2.811 . S
Ho697 O717 2.346 . S
Ho697 O721 2.305 . S
Ho697 O722 2.322 . S
Ho697 O724 2.378 . S
Ho697 O725 2.524 . S
Ho697 O726 2.381 . S
Ho697 O727 2.669 . S
C698 O716 1.259 . S
C698 O717 1.268 . S
C699 Ho696 2.811 . S
C699 C700 1.488 . S
C699 O718 1.215 . S
C699 O719 1.289 . S
C700 C699 1.488 . S
C700 C701 1.348 . S
C700 C705 1.413 . S
C701 C700 1.348 . S
C701 C702 1.442 . S
C701 H728 0.930 . S
C702 C701 1.442 . S
C702 C703 1.381 . S
C702 H729 0.931 . S
C703 C702 1.381 . S
C703 C704 1.321 . S
C704 C703 1.321 . S
C704 C705 1.403 . S
C704 H730 0.934 . S
C705 C700 1.413 . S
C705 C704 1.403 . S
C705 H731 0.930 . S
C706 O720 1.275 . S
C706 O721 1.256 . S
C707 O722 1.259 . S
C707 O723 1.268 . S
C708 Ho697 2.811 . S
C708 C709 1.488 . S
C708 O724 1.215 . S
C708 O725 1.289 . S
C709 C708 1.488 . S
C709 C710 1.348 . S
C709 C714 1.413 . S
C710 C709 1.348 . S
C710 C711 1.442 . S
C710 H732 0.930 . S
C711 C710 1.442 . S
C711 C712 1.381 . S
C711 H733 0.931 . S
C712 C711 1.381 . S
C712 C713 1.321 . S
C713 C712 1.321 . S
C713 C714 1.403 . S
C713 H734 0.934 . S
C714 C709 1.413 . S
C714 C713 1.403 . S
C714 H735 0.930 . S
C715 O726 1.275 . S
C715 O727 1.256 . S
O716 Ho696 2.322 . S
O716 C698 1.259 . S
O717 Ho697 2.346 . S
O717 C698 1.268 . S
O718 Ho696 2.378 . S
O718 C699 1.215 . S
O719 Ho696 2.524 . S
O719 C699 1.289 . S
O720 Ho696 2.381 . S
O720 C706 1.275 . S
O721 Ho696 2.669 . S
O721 Ho697 2.305 . S
O721 C706 1.256 . S
O722 Ho697 2.322 . S
O722 C707 1.259 . S
O723 Ho696 2.346 . S
O723 C707 1.268 . S
O724 Ho697 2.378 . S
O724 C708 1.215 . S
O725 Ho697 2.524 . S
O725 C708 1.289 . S
O726 Ho697 2.381 . S
O726 C715 1.275 . S
O727 Ho696 2.305 . S
O727 Ho697 2.669 . S
O727 C715 1.256 . S
H728 C701 0.930 . S
H729 C702 0.931 . S
H730 C704 0.934 . S
H731 C705 0.930 . S
H732 C710 0.930 . S
H733 C711 0.931 . S
H734 C713 0.934 . S
H735 C714 0.930 . S
Ho736 C739 2.811 . S
Ho736 O756 2.322 . S
Ho736 O758 2.378 . S
Ho736 O759 2.524 . S
Ho736 O760 2.381 . S
Ho736 O761 2.669 . S
Ho736 O763 2.346 . S
Ho736 O767 2.305 . S
Ho737 C748 2.811 . S
Ho737 O757 2.346 . S
Ho737 O761 2.305 . S
Ho737 O762 2.322 . S
Ho737 O764 2.378 . S
Ho737 O765 2.524 . S
Ho737 O766 2.381 . S
Ho737 O767 2.669 . S
C738 O756 1.259 . S
C738 O757 1.268 . S
C739 Ho736 2.811 . S
C739 C740 1.488 . S
C739 O758 1.215 . S
C739 O759 1.289 . S
C740 C739 1.488 . S
C740 C741 1.348 1_455 S
C740 C745 1.413 . S
C741 C740 1.348 1_655 S
C741 C742 1.442 . S
C741 H768 0.930 . S
C742 C741 1.442 . S
C742 C743 1.381 . S
C742 H769 0.931 . S
C743 C742 1.381 . S
C743 C744 1.321 1_655 S
C744 C743 1.321 1_455 S
C744 C745 1.403 . S
C744 H770 0.934 . S
C745 C740 1.413 . S
C745 C744 1.403 . S
C745 H771 0.930 . S
C746 O760 1.275 . S
C746 O761 1.256 . S
C747 O762 1.259 . S
C747 O763 1.268 . S
C748 Ho737 2.811 . S
C748 C749 1.488 . S
C748 O764 1.215 . S
C748 O765 1.289 . S
C749 C748 1.488 . S
C749 C750 1.348 . S
C749 C754 1.413 . S
C750 C749 1.348 . S
C750 C751 1.442 . S
C750 H772 0.930 . S
C751 C750 1.442 . S
C751 C752 1.381 . S
C751 H773 0.931 . S
C752 C751 1.381 . S
C752 C753 1.321 . S
C753 C752 1.321 . S
C753 C754 1.403 . S
C753 H774 0.934 . S
C754 C749 1.413 . S
C754 C753 1.403 . S
C754 H775 0.930 . S
C755 O766 1.275 . S
C755 O767 1.256 . S
O756 Ho736 2.322 . S
O756 C738 1.259 . S
O757 Ho737 2.346 . S
O757 C738 1.268 . S
O758 Ho736 2.378 . S
O758 C739 1.215 . S
O759 Ho736 2.524 . S
O759 C739 1.289 . S
O760 Ho736 2.381 . S
O760 C746 1.275 . S
O761 Ho736 2.669 . S
O761 Ho737 2.305 . S
O761 C746 1.256 . S
O762 Ho737 2.322 . S
O762 C747 1.259 . S
O763 Ho736 2.346 . S
O763 C747 1.268 . S
O764 Ho737 2.378 . S
O764 C748 1.215 . S
O765 Ho737 2.524 . S
O765 C748 1.289 . S
O766 Ho737 2.381 . S
O766 C755 1.275 . S
O767 Ho736 2.305 . S
O767 Ho737 2.669 . S
O767 C755 1.256 . S
H768 C741 0.930 . S
H769 C742 0.931 . S
H770 C744 0.934 . S
H771 C745 0.930 . S
H772 C750 0.930 . S
H773 C751 0.931 . S
H774 C753 0.934 . S
H775 C754 0.930 . S
Ho776 C779 2.811 . S
Ho776 O796 2.322 . S
Ho776 O798 2.378 . S
Ho776 O799 2.524 . S
Ho776 O800 2.381 . S
Ho776 O801 2.669 . S
Ho776 O803 2.346 . S
Ho776 O807 2.305 . S
Ho777 C788 2.811 . S
Ho777 O797 2.346 . S
Ho777 O801 2.305 . S
Ho777 O802 2.322 . S
Ho777 O804 2.378 . S
Ho777 O805 2.524 . S
Ho777 O806 2.381 . S
Ho777 O807 2.669 . S
C778 O796 1.259 . S
C778 O797 1.268 . S
C779 Ho776 2.811 . S
C779 C780 1.488 . S
C779 O798 1.215 . S
C779 O799 1.289 . S
C780 C779 1.488 . S
C780 C781 1.348 . S
C780 C785 1.413 . S
C781 C780 1.348 . S
C781 C782 1.442 . S
C781 H808 0.930 . S
C782 C781 1.442 . S
C782 C783 1.381 . S
C782 H809 0.931 . S
C783 C782 1.381 . S
C783 C784 1.321 . S
C784 C783 1.321 . S
C784 C785 1.403 . S
C784 H810 0.934 . S
C785 C780 1.413 . S
C785 C784 1.403 . S
C785 H811 0.930 . S
C786 O800 1.275 . S
C786 O801 1.256 . S
C787 O802 1.259 . S
C787 O803 1.268 . S
C788 Ho777 2.811 . S
C788 C789 1.488 . S
C788 O804 1.215 . S
C788 O805 1.289 . S
C789 C788 1.488 . S
C789 C790 1.348 . S
C789 C794 1.413 . S
C790 C789 1.348 . S
C790 C791 1.442 . S
C790 H812 0.930 . S
C791 C790 1.442 . S
C791 C792 1.381 . S
C791 H813 0.931 . S
C792 C791 1.381 . S
C792 C793 1.321 . S
C793 C792 1.321 . S
C793 C794 1.403 . S
C793 H814 0.934 . S
C794 C789 1.413 . S
C794 C793 1.403 . S
C794 H815 0.930 . S
C795 O806 1.275 . S
C795 O807 1.256 . S
O796 Ho776 2.322 . S
O796 C778 1.259 . S
O797 Ho777 2.346 . S
O797 C778 1.268 . S
O798 Ho776 2.378 . S
O798 C779 1.215 . S
O799 Ho776 2.524 . S
O799 C779 1.289 . S
O800 Ho776 2.381 . S
O800 C786 1.275 . S
O801 Ho776 2.669 . S
O801 Ho777 2.305 . S
O801 C786 1.256 . S
O802 Ho777 2.322 . S
O802 C787 1.259 . S
O803 Ho776 2.346 . S
O803 C787 1.268 . S
O804 Ho777 2.378 . S
O804 C788 1.215 . S
O805 Ho777 2.524 . S
O805 C788 1.289 . S
O806 Ho777 2.381 . S
O806 C795 1.275 . S
O807 Ho776 2.305 . S
O807 Ho777 2.669 . S
O807 C795 1.256 . S
H808 C781 0.930 . S
H809 C782 0.931 . S
H810 C784 0.934 . S
H811 C785 0.930 . S
H812 C790 0.930 . S
H813 C791 0.931 . S
H814 C793 0.934 . S
H815 C794 0.930 . S
Ho816 C819 2.811 . S
Ho816 O836 2.322 . S
Ho816 O838 2.378 . S
Ho816 O839 2.524 . S
Ho816 O840 2.381 . S
Ho816 O841 2.669 . S
Ho816 O843 2.346 . S
Ho816 O847 2.305 . S
Ho817 C828 2.811 . S
Ho817 O837 2.346 . S
Ho817 O841 2.305 . S
Ho817 O842 2.322 . S
Ho817 O844 2.378 . S
Ho817 O845 2.524 . S
Ho817 O846 2.381 . S
Ho817 O847 2.669 . S
C818 O836 1.259 . S
C818 O837 1.268 . S
C819 Ho816 2.811 . S
C819 C820 1.488 . S
C819 O838 1.215 . S
C819 O839 1.289 . S
C820 C819 1.488 . S
C820 C821 1.348 . S
C820 C825 1.413 . S
C821 C820 1.348 . S
C821 C822 1.442 . S
C821 H848 0.930 . S
C822 C821 1.442 . S
C822 C823 1.381 . S
C822 H849 0.931 . S
C823 C822 1.381 . S
C823 C824 1.321 . S
C824 C823 1.321 . S
C824 C825 1.403 . S
C824 H850 0.934 . S
C825 C820 1.413 . S
C825 C824 1.403 . S
C825 H851 0.930 . S
C826 O840 1.275 . S
C826 O841 1.256 . S
C827 O842 1.259 . S
C827 O843 1.268 . S
C828 Ho817 2.811 . S
C828 C829 1.488 . S
C828 O844 1.215 . S
C828 O845 1.289 . S
C829 C828 1.488 . S
C829 C830 1.348 . S
C829 C834 1.413 . S
C830 C829 1.348 . S
C830 C831 1.442 . S
C830 H852 0.930 . S
C831 C830 1.442 . S
C831 C832 1.381 . S
C831 H853 0.931 . S
C832 C831 1.381 . S
C832 C833 1.321 . S
C833 C832 1.321 . S
C833 C834 1.403 . S
C833 H854 0.934 . S
C834 C829 1.413 . S
C834 C833 1.403 . S
C834 H855 0.930 . S
C835 O846 1.275 . S
C835 O847 1.256 . S
O836 Ho816 2.322 . S
O836 C818 1.259 . S
O837 Ho817 2.346 . S
O837 C818 1.268 . S
O838 Ho816 2.378 . S
O838 C819 1.215 . S
O839 Ho816 2.524 . S
O839 C819 1.289 . S
O840 Ho816 2.381 . S
O840 C826 1.275 . S
O841 Ho816 2.669 . S
O841 Ho817 2.305 . S
O841 C826 1.256 . S
O842 Ho817 2.322 . S
O842 C827 1.259 . S
O843 Ho816 2.346 . S
O843 C827 1.268 . S
O844 Ho817 2.378 . S
O844 C828 1.215 . S
O845 Ho817 2.524 . S
O845 C828 1.289 . S
O846 Ho817 2.381 . S
O846 C835 1.275 . S
O847 Ho816 2.305 . S
O847 Ho817 2.669 . S
O847 C835 1.256 . S
H848 C821 0.930 . S
H849 C822 0.931 . S
H850 C824 0.934 . S
H851 C825 0.930 . S
H852 C830 0.930 . S
H853 C831 0.931 . S
H854 C833 0.934 . S
H855 C834 0.930 . S
Ho856 C859 2.811 . S
Ho856 O876 2.322 . S
Ho856 O878 2.378 . S
Ho856 O879 2.524 . S
Ho856 O880 2.381 . S
Ho856 O881 2.669 . S
Ho856 O883 2.346 . S
Ho856 O887 2.305 . S
Ho857 C868 2.811 . S
Ho857 O877 2.346 . S
Ho857 O881 2.305 . S
Ho857 O882 2.322 . S
Ho857 O884 2.378 . S
Ho857 O885 2.524 . S
Ho857 O886 2.381 . S
Ho857 O887 2.669 . S
C858 O876 1.259 . S
C858 O877 1.268 . S
C859 Ho856 2.811 . S
C859 C860 1.488 . S
C859 O878 1.215 . S
C859 O879 1.289 . S
C860 C859 1.488 . S
C860 C861 1.348 . S
C860 C865 1.413 . S
C861 C860 1.348 . S
C861 C862 1.442 . S
C861 H888 0.930 . S
C862 C861 1.442 . S
C862 C863 1.381 . S
C862 H889 0.931 . S
C863 C862 1.381 . S
C863 C864 1.321 . S
C864 C863 1.321 . S
C864 C865 1.403 . S
C864 H890 0.934 . S
C865 C860 1.413 . S
C865 C864 1.403 . S
C865 H891 0.930 . S
C866 O880 1.275 . S
C866 O881 1.256 . S
C867 O882 1.259 . S
C867 O883 1.268 . S
C868 Ho857 2.811 . S
C868 C869 1.488 . S
C868 O884 1.215 . S
C868 O885 1.289 . S
C869 C868 1.488 . S
C869 C870 1.348 . S
C869 C874 1.413 . S
C870 C869 1.348 . S
C870 C871 1.442 . S
C870 H892 0.930 . S
C871 C870 1.442 . S
C871 C872 1.381 . S
C871 H893 0.931 . S
C872 C871 1.381 . S
C872 C873 1.321 . S
C873 C872 1.321 . S
C873 C874 1.403 . S
C873 H894 0.934 . S
C874 C869 1.413 . S
C874 C873 1.403 . S
C874 H895 0.930 . S
C875 O886 1.275 . S
C875 O887 1.256 . S
O876 Ho856 2.322 . S
O876 C858 1.259 . S
O877 Ho857 2.346 . S
O877 C858 1.268 . S
O878 Ho856 2.378 . S
O878 C859 1.215 . S
O879 Ho856 2.524 . S
O879 C859 1.289 . S
O880 Ho856 2.381 . S
O880 C866 1.275 . S
O881 Ho856 2.669 . S
O881 Ho857 2.305 . S
O881 C866 1.256 . S
O882 Ho857 2.322 . S
O882 C867 1.259 . S
O883 Ho856 2.346 . S
O883 C867 1.268 . S
O884 Ho857 2.378 . S
O884 C868 1.215 . S
O885 Ho857 2.524 . S
O885 C868 1.289 . S
O886 Ho857 2.381 . S
O886 C875 1.275 . S
O887 Ho856 2.305 . S
O887 Ho857 2.669 . S
O887 C875 1.256 . S
H888 C861 0.930 . S
H889 C862 0.931 . S
H890 C864 0.934 . S
H891 C865 0.930 . S
H892 C870 0.930 . S
H893 C871 0.931 . S
H894 C873 0.934 . S
H895 C874 0.930 . S
Ho896 C899 2.811 . S
Ho896 O916 2.322 . S
Ho896 O918 2.378 . S
Ho896 O919 2.524 . S
Ho896 O920 2.381 . S
Ho896 O921 2.669 . S
Ho896 O923 2.346 . S
Ho896 O927 2.305 . S
Ho897 C908 2.811 . S
Ho897 O917 2.346 . S
Ho897 O921 2.305 . S
Ho897 O922 2.322 . S
Ho897 O924 2.378 . S
Ho897 O925 2.524 . S
Ho897 O926 2.381 . S
Ho897 O927 2.669 . S
C898 O916 1.259 . S
C898 O917 1.268 . S
C899 Ho896 2.811 . S
C899 C900 1.488 . S
C899 O918 1.215 . S
C899 O919 1.289 . S
C900 C899 1.488 . S
C900 C901 1.348 . S
C900 C905 1.413 . S
C901 C900 1.348 . S
C901 C902 1.442 . S
C901 H928 0.930 . S
C902 C901 1.442 . S
C902 C903 1.381 . S
C902 H929 0.931 . S
C903 C902 1.381 . S
C903 C904 1.321 . S
C904 C903 1.321 . S
C904 C905 1.403 . S
C904 H930 0.934 . S
C905 C900 1.413 . S
C905 C904 1.403 . S
C905 H931 0.930 . S
C906 O920 1.275 . S
C906 O921 1.256 . S
C907 O922 1.259 . S
C907 O923 1.268 . S
C908 Ho897 2.811 . S
C908 C909 1.488 . S
C908 O924 1.215 . S
C908 O925 1.289 . S
C909 C908 1.488 . S
C909 C910 1.348 . S
C909 C914 1.413 . S
C910 C909 1.348 . S
C910 C911 1.442 . S
C910 H932 0.930 . S
C911 C910 1.442 . S
C911 C912 1.381 . S
C911 H933 0.931 . S
C912 C911 1.381 . S
C912 C913 1.321 . S
C913 C912 1.321 . S
C913 C914 1.403 . S
C913 H934 0.934 . S
C914 C909 1.413 . S
C914 C913 1.403 . S
C914 H935 0.930 . S
C915 O926 1.275 . S
C915 O927 1.256 . S
O916 Ho896 2.322 . S
O916 C898 1.259 . S
O917 Ho897 2.346 . S
O917 C898 1.268 . S
O918 Ho896 2.378 . S
O918 C899 1.215 . S
O919 Ho896 2.524 . S
O919 C899 1.289 . S
O920 Ho896 2.381 . S
O920 C906 1.275 . S
O921 Ho896 2.669 . S
O921 Ho897 2.305 . S
O921 C906 1.256 . S
O922 Ho897 2.322 . S
O922 C907 1.259 . S
O923 Ho896 2.346 . S
O923 C907 1.268 . S
O924 Ho897 2.378 . S
O924 C908 1.215 . S
O925 Ho897 2.524 . S
O925 C908 1.289 . S
O926 Ho897 2.381 . S
O926 C915 1.275 . S
O927 Ho896 2.305 . S
O927 Ho897 2.669 . S
O927 C915 1.256 . S
H928 C901 0.930 . S
H929 C902 0.931 . S
H930 C904 0.934 . S
H931 C905 0.930 . S
H932 C910 0.930 . S
H933 C911 0.931 . S
H934 C913 0.934 . S
H935 C914 0.930 . S
Ho936 C939 2.811 1_554 S
Ho936 O956 2.322 1_554 S
Ho936 O958 2.378 1_554 S
Ho936 O959 2.524 . S
Ho936 O960 2.381 1_554 S
Ho936 O961 2.669 1_554 S
Ho936 O963 2.346 . S
Ho936 O967 2.305 . S
Ho937 C948 2.811 1_455 S
Ho937 O957 2.346 . S
Ho937 O961 2.305 1_554 S
Ho937 O962 2.322 . S
Ho937 O964 2.378 1_455 S
Ho937 O965 2.524 1_455 S
Ho937 O966 2.381 . S
Ho937 O967 2.669 . S
C938 O956 1.259 1_554 S
C938 O957 1.268 . S
C939 Ho936 2.811 1_556 S
C939 C940 1.488 . S
C939 O958 1.215 . S
C939 O959 1.289 1_556 S
C940 C939 1.488 . S
C940 C941 1.348 1_556 S
C940 C945 1.413 . S
C941 C940 1.348 1_554 S
C941 C942 1.442 . S
C941 H968 0.930 . S
C942 C941 1.442 . S
C942 C943 1.381 1_554 S
C942 H969 0.931 . S
C943 C942 1.381 1_556 S
C943 C944 1.321 . S
C944 C943 1.321 . S
C944 C945 1.403 . S
C944 H970 0.934 . S
C945 C940 1.413 . S
C945 C944 1.403 . S
C945 H971 0.930 . S
C946 O960 1.275 . S
C946 O961 1.256 . S
C947 O962 1.259 . S
C947 O963 1.268 . S
C948 Ho937 2.811 1_655 S
C948 C949 1.488 . S
C948 O964 1.215 . S
C948 O965 1.289 . S
C949 C948 1.488 . S
C949 C950 1.348 . S
C949 C954 1.413 . S
C950 C949 1.348 . S
C950 C951 1.442 . S
C950 H972 0.930 . S
C951 C950 1.442 . S
C951 C952 1.381 . S
C951 H973 0.931 . S
C952 C951 1.381 . S
C952 C953 1.321 . S
C953 C952 1.321 . S
C953 C954 1.403 . S
C953 H974 0.934 . S
C954 C949 1.413 . S
C954 C953 1.403 . S
C954 H975 0.930 . S
C955 O966 1.275 . S
C955 O967 1.256 . S
O956 Ho936 2.322 1_556 S
O956 C938 1.259 1_556 S
O957 Ho937 2.346 . S
O957 C938 1.268 . S
O958 Ho936 2.378 1_556 S
O958 C939 1.215 . S
O959 Ho936 2.524 . S
O959 C939 1.289 1_554 S
O960 Ho936 2.381 1_556 S
O960 C946 1.275 . S
O961 Ho936 2.669 1_556 S
O961 Ho937 2.305 1_556 S
O961 C946 1.256 . S
O962 Ho937 2.322 . S
O962 C947 1.259 . S
O963 Ho936 2.346 . S
O963 C947 1.268 . S
O964 Ho937 2.378 1_655 S
O964 C948 1.215 . S
O965 Ho937 2.524 1_655 S
O965 C948 1.289 . S
O966 Ho937 2.381 . S
O966 C955 1.275 . S
O967 Ho936 2.305 . S
O967 Ho937 2.669 . S
O967 C955 1.256 . S
H968 C941 0.930 . S
H969 C942 0.931 . S
H970 C944 0.934 . S
H971 C945 0.930 . S
H972 C950 0.930 . S
H973 C951 0.931 . S
H974 C953 0.934 . S
H975 C954 0.930 . S
H976 C984 0.929 1_655 S
H977 C986 0.930 . S
H978 C988 0.930 . S
H979 C991 0.929 . S
H980 C994 0.930 1_655 S
H981 C996 0.960 . S
H982 C996 0.960 . S
H983 C996 0.960 . S
C984 H976 0.929 1_455 S
C984 C985 1.377 . S
C984 C986 1.384 . S
C985 C984 1.377 . S
C985 C991 1.390 . S
C986 H977 0.930 . S
C986 C984 1.384 . S
C986 C987 1.372 . S
C987 C986 1.372 . S
C987 C988 1.400 . S
C987 C992 1.490 . S
C988 H978 0.930 . S
C988 C987 1.400 . S
C988 C991 1.386 . S
H989 C1005 0.930 . S
H990 C1006 0.931 . S
C991 H979 0.929 . S
C991 C985 1.390 . S
C991 C988 1.386 . S
C992 C987 1.490 . S
C992 C994 1.395 . S
C992 C995 1.403 . S
H993 C999 0.930 . S
C994 H980 0.930 1_455 S
C994 C992 1.395 . S
C994 C997 1.403 . S
C995 C992 1.403 . S
C995 C996 1.524 . S
C995 C999 1.400 . S
C996 H981 0.960 . S
C996 H982 0.960 . S
C996 H983 0.960 . S
C996 C995 1.524 . S
C997 C994 1.403 . S
C997 C998 1.392 . S
C997 C1001 1.495 1_455 S
C998 C997 1.392 . S
C998 C999 1.385 . S
C998 C1000 1.478 . S
C999 H993 0.930 . S
C999 C995 1.400 . S
C999 C998 1.385 . S
C1000 C998 1.478 . S
C1000 C1002 1.357 1_556 S
C1000 C1006 1.383 . S
C1001 C997 1.495 1_655 S
C1001 H1007 0.959 . S
C1001 H1008 0.961 . S
C1001 H1009 0.960 . S
C1002 C1000 1.357 1_554 S
C1002 C1003 1.407 . S
C1002 H1010 0.942 . S
C1003 C1002 1.407 . S
C1003 C1004 1.383 1_554 S
C1003 H1011 0.929 . S
C1004 C1003 1.383 1_556 S
C1004 C1005 1.377 . S
C1005 H989 0.930 . S
C1005 C1004 1.377 . S
C1005 C1006 1.379 . S
C1006 H990 0.931 . S
C1006 C1000 1.383 . S
C1006 C1005 1.379 . S
H1007 C1001 0.959 . S
H1008 C1001 0.961 . S
H1009 C1001 0.960 . S
H1010 C1002 0.942 . S
H1011 C1003 0.929 . S
H1012 C1020 0.929 . S
H1013 C1022 0.930 . S
H1014 C1024 0.930 . S
H1015 C1027 0.929 . S
H1016 C1030 0.930 . S
H1017 C1032 0.960 . S
H1018 C1032 0.960 . S
H1019 C1032 0.960 . S
C1020 H1012 0.929 . S
C1020 C1021 1.377 . S
C1020 C1022 1.384 . S
C1021 C1020 1.377 . S
C1021 C1027 1.390 . S
C1022 H1013 0.930 . S
C1022 C1020 1.384 . S
C1022 C1023 1.372 . S
C1023 C1022 1.372 . S
C1023 C1024 1.400 . S
C1023 C1028 1.490 . S
C1024 H1014 0.930 . S
C1024 C1023 1.400 . S
C1024 C1027 1.386 . S
H1025 C1041 0.930 . S
H1026 C1042 0.931 . S
C1027 H1015 0.929 . S
C1027 C1021 1.390 . S
C1027 C1024 1.386 . S
C1028 C1023 1.490 . S
C1028 C1030 1.395 . S
C1028 C1031 1.403 . S
H1029 C1035 0.930 . S
C1030 H1016 0.930 . S
C1030 C1028 1.395 . S
C1030 C1033 1.403 . S
C1031 C1028 1.403 . S
C1031 C1032 1.524 . S
C1031 C1035 1.400 . S
C1032 H1017 0.960 . S
C1032 H1018 0.960 . S
C1032 H1019 0.960 . S
C1032 C1031 1.524 . S
C1033 C1030 1.403 . S
C1033 C1034 1.392 . S
C1033 C1037 1.495 . S
C1034 C1033 1.392 . S
C1034 C1035 1.385 . S
C1034 C1036 1.478 . S
C1035 H1029 0.930 . S
C1035 C1031 1.400 . S
C1035 C1034 1.385 . S
C1036 C1034 1.478 . S
C1036 C1038 1.381 . S
C1036 C1042 1.383 . S
C1037 C1033 1.495 . S
C1037 H1043 0.959 . S
C1037 H1044 0.961 . S
C1037 H1045 0.960 . S
C1038 C1036 1.381 . S
C1038 C1039 1.394 . S
C1038 H1046 0.930 . S
C1039 C1038 1.394 . S
C1039 C1040 1.383 . S
C1039 H1047 0.929 . S
C1040 C1039 1.383 . S
C1040 C1041 1.377 . S
C1041 H1025 0.930 . S
C1041 C1040 1.377 . S
C1041 C1042 1.379 . S
C1042 H1026 0.931 . S
C1042 C1036 1.383 . S
C1042 C1041 1.379 . S
H1043 C1037 0.959 . S
H1044 C1037 0.961 . S
H1045 C1037 0.960 . S
H1046 C1038 0.930 . S
H1047 C1039 0.929 . S
H1048 C1056 0.929 . S
H1049 C1058 0.930 . S
H1050 C1060 0.930 . S
H1051 C1063 0.929 . S
H1052 C1066 0.930 . S
H1053 C1068 0.960 . S
H1054 C1068 0.960 . S
H1055 C1068 0.960 . S
C1056 H1048 0.929 . S
C1056 C1057 1.377 . S
C1056 C1058 1.384 . S
C1057 C1056 1.377 . S
C1057 C1063 1.390 . S
C1058 H1049 0.930 . S
C1058 C1056 1.384 . S
C1058 C1059 1.372 . S
C1059 C1058 1.372 . S
C1059 C1060 1.400 . S
C1059 C1064 1.490 . S
C1060 H1050 0.930 . S
C1060 C1059 1.400 . S
C1060 C1063 1.386 . S
H1061 C1077 0.930 . S
H1062 C1078 0.931 . S
C1063 H1051 0.929 . S
C1063 C1057 1.390 . S
C1063 C1060 1.386 . S
C1064 C1059 1.490 . S
C1064 C1066 1.395 . S
C1064 C1067 1.403 . S
H1065 C1071 0.930 . S
C1066 H1052 0.930 . S
C1066 C1064 1.395 . S
C1066 C1069 1.403 . S
C1067 C1064 1.403 . S
C1067 C1068 1.524 . S
C1067 C1071 1.400 . S
C1068 H1053 0.960 . S
C1068 H1054 0.960 . S
C1068 H1055 0.960 . S
C1068 C1067 1.524 . S
C1069 C1066 1.403 . S
C1069 C1070 1.392 . S
C1069 C1073 1.495 . S
C1070 C1069 1.392 . S
C1070 C1071 1.385 . S
C1070 C1072 1.478 . S
C1071 H1065 0.930 . S
C1071 C1067 1.400 . S
C1071 C1070 1.385 . S
C1072 C1070 1.478 . S
C1072 C1074 1.381 . S
C1072 C1078 1.383 . S
C1073 C1069 1.495 . S
C1073 H1079 0.959 . S
C1073 H1080 0.961 . S
C1073 H1081 0.960 . S
C1074 C1072 1.381 . S
C1074 C1075 1.394 . S
C1074 H1082 0.930 . S
C1075 C1074 1.394 . S
C1075 C1076 1.383 . S
C1075 H1083 0.929 . S
C1076 C1075 1.383 . S
C1076 C1077 1.377 . S
C1077 H1061 0.930 . S
C1077 C1076 1.377 . S
C1077 C1078 1.379 . S
C1078 H1062 0.931 . S
C1078 C1072 1.383 . S
C1078 C1077 1.379 . S
H1079 C1073 0.959 . S
H1080 C1073 0.961 . S
H1081 C1073 0.960 . S
H1082 C1074 0.930 . S
H1083 C1075 0.929 . S
H1084 C1092 0.929 . S
H1085 C1094 0.930 . S
H1086 C1096 0.930 . S
H1087 C1099 0.929 . S
H1088 C1102 0.930 . S
H1089 C1104 0.960 . S
H1090 C1104 0.960 . S
H1091 C1104 0.960 . S
C1092 H1084 0.929 . S
C1092 C1093 1.377 . S
C1092 C1094 1.384 . S
C1093 C1092 1.377 . S
C1093 C1099 1.390 . S
C1094 H1085 0.930 . S
C1094 C1092 1.384 . S
C1094 C1095 1.372 . S
C1095 C1094 1.372 . S
C1095 C1096 1.400 . S
C1095 C1100 1.490 . S
C1096 H1086 0.930 . S
C1096 C1095 1.400 . S
C1096 C1099 1.386 . S
H1097 C1113 0.930 . S
H1098 C1114 0.931 . S
C1099 H1087 0.929 . S
C1099 C1093 1.390 . S
C1099 C1096 1.386 . S
C1100 C1095 1.490 . S
C1100 C1102 1.395 . S
C1100 C1103 1.403 . S
H1101 C1107 0.930 . S
C1102 H1088 0.930 . S
C1102 C1100 1.395 . S
C1102 C1105 1.403 . S
C1103 C1100 1.403 . S
C1103 C1104 1.524 . S
C1103 C1107 1.400 . S
C1104 H1089 0.960 . S
C1104 H1090 0.960 . S
C1104 H1091 0.960 . S
C1104 C1103 1.524 . S
C1105 C1102 1.403 . S
C1105 C1106 1.392 . S
C1105 C1109 1.495 . S
C1106 C1105 1.392 . S
C1106 C1107 1.385 . S
C1106 C1108 1.478 . S
C1107 H1101 0.930 . S
C1107 C1103 1.400 . S
C1107 C1106 1.385 . S
C1108 C1106 1.478 . S
C1108 C1110 1.381 . S
C1108 C1114 1.383 . S
C1109 C1105 1.495 . S
C1109 H1115 0.959 . S
C1109 H1116 0.961 . S
C1109 H1117 0.960 . S
C1110 C1108 1.381 . S
C1110 C1111 1.394 . S
C1110 H1118 0.930 . S
C1111 C1110 1.394 . S
C1111 C1112 1.383 . S
C1111 H1119 0.929 . S
C1112 C1111 1.383 . S
C1112 C1113 1.377 . S
C1113 H1097 0.930 . S
C1113 C1112 1.377 . S
C1113 C1114 1.379 . S
C1114 H1098 0.931 . S
C1114 C1108 1.383 . S
C1114 C1113 1.379 . S
H1115 C1109 0.959 . S
H1116 C1109 0.961 . S
H1117 C1109 0.960 . S
H1118 C1110 0.930 . S
H1119 C1111 0.929 . S
H1120 C1128 0.929 . S
H1121 C1130 0.930 . S
H1122 C1132 0.930 1_655 S
H1123 C1135 0.929 . S
H1124 C1138 0.930 . S
H1125 C1140 0.960 . S
H1126 C1140 0.960 . S
H1127 C1140 0.960 . S
C1128 H1120 0.929 . S
C1128 C1129 1.377 . S
C1128 C1130 1.384 . S
C1129 C1128 1.377 . S
C1129 C1135 1.390 1_455 S
C1130 H1121 0.930 . S
C1130 C1128 1.384 . S
C1130 C1131 1.372 . S
C1131 C1130 1.372 . S
C1131 C1132 1.400 . S
C1131 C1136 1.490 . S
C1132 H1122 0.930 1_455 S
C1132 C1131 1.400 . S
C1132 C1135 1.386 1_455 S
H1133 C1149 0.930 . S
H1134 C1150 0.931 . S
C1135 H1123 0.929 . S
C1135 C1129 1.390 1_655 S
C1135 C1132 1.386 1_655 S
C1136 C1131 1.490 . S
C1136 C1138 1.395 . S
C1136 C1139 1.403 . S
H1137 C1143 0.930 . S
C1138 H1124 0.930 . S
C1138 C1136 1.395 . S
C1138 C1141 1.403 . S
C1139 C1136 1.403 . S
C1139 C1140 1.524 . S
C1139 C1143 1.400 . S
C1140 H1125 0.960 . S
C1140 H1126 0.960 . S
C1140 H1127 0.960 . S
C1140 C1139 1.524 . S
C1141 C1138 1.403 . S
C1141 C1142 1.392 . S
C1141 C1145 1.495 . S
C1142 C1141 1.392 . S
C1142 C1143 1.385 . S
C1142 C1144 1.478 . S
C1143 H1137 0.930 . S
C1143 C1139 1.400 . S
C1143 C1142 1.385 . S
C1144 C1142 1.478 . S
C1144 C1146 1.381 . S
C1144 C1150 1.383 . S
C1145 C1141 1.495 . S
C1145 H1151 0.959 . S
C1145 H1152 0.961 . S
C1145 H1153 0.960 . S
C1146 C1144 1.381 . S
C1146 C1147 1.394 . S
C1146 H1154 0.930 . S
C1147 C1146 1.394 . S
C1147 C1148 1.383 . S
C1147 H1155 0.929 . S
C1148 C1147 1.383 . S
C1148 C1149 1.377 . S
C1149 H1133 0.930 . S
C1149 C1148 1.377 . S
C1149 C1150 1.379 . S
C1150 H1134 0.931 . S
C1150 C1144 1.383 . S
C1150 C1149 1.379 . S
H1151 C1145 0.959 . S
H1152 C1145 0.961 . S
H1153 C1145 0.960 . S
H1154 C1146 0.930 . S
H1155 C1147 0.929 . S
H1156 C1164 0.929 . S
H1157 C1166 0.930 . S
H1158 C1168 0.930 . S
H1159 C1171 0.929 . S
H1160 C1174 0.930 . S
H1161 C1176 0.960 . S
H1162 C1176 0.960 . S
H1163 C1176 0.960 . S
C1164 H1156 0.929 . S
C1164 C1165 1.377 . S
C1164 C1166 1.384 . S
C1165 C1164 1.377 . S
C1165 C1171 1.390 . S
C1166 H1157 0.930 . S
C1166 C1164 1.384 . S
C1166 C1167 1.372 . S
C1167 C1166 1.372 . S
C1167 C1168 1.400 . S
C1167 C1172 1.490 . S
C1168 H1158 0.930 . S
C1168 C1167 1.400 . S
C1168 C1171 1.386 . S
H1169 C1185 0.930 . S
H1170 C1186 0.931 . S
C1171 H1159 0.929 . S
C1171 C1165 1.390 . S
C1171 C1168 1.386 . S
C1172 C1167 1.490 . S
C1172 C1174 1.395 . S
C1172 C1175 1.403 . S
H1173 C1179 0.930 . S
C1174 H1160 0.930 . S
C1174 C1172 1.395 . S
C1174 C1177 1.403 . S
C1175 C1172 1.403 . S
C1175 C1176 1.524 . S
C1175 C1179 1.400 . S
C1176 H1161 0.960 . S
C1176 H1162 0.960 . S
C1176 H1163 0.960 . S
C1176 C1175 1.524 . S
C1177 C1174 1.403 . S
C1177 C1178 1.392 . S
C1177 C1181 1.495 . S
C1178 C1177 1.392 . S
C1178 C1179 1.385 . S
C1178 C1180 1.478 . S
C1179 H1173 0.930 . S
C1179 C1175 1.400 . S
C1179 C1178 1.385 . S
C1180 C1178 1.478 . S
C1180 C1182 1.381 . S
C1180 C1186 1.383 . S
C1181 C1177 1.495 . S
C1181 H1187 0.959 . S
C1181 H1188 0.961 . S
C1181 H1189 0.960 . S
C1182 C1180 1.381 . S
C1182 C1183 1.394 . S
C1182 H1190 0.930 . S
C1183 C1182 1.394 . S
C1183 C1184 1.383 . S
C1183 H1191 0.929 . S
C1184 C1183 1.383 . S
C1184 C1185 1.377 . S
C1185 H1169 0.930 . S
C1185 C1184 1.377 . S
C1185 C1186 1.379 . S
C1186 H1170 0.931 . S
C1186 C1180 1.383 . S
C1186 C1185 1.379 . S
H1187 C1181 0.959 . S
H1188 C1181 0.961 . S
H1189 C1181 0.960 . S
H1190 C1182 0.930 . S
H1191 C1183 0.929 . S
H1192 C1200 0.929 . S
H1193 C1202 0.930 . S
H1194 C1204 0.930 . S
H1195 C1207 0.929 . S
H1196 C1210 0.930 . S
H1197 C1212 0.960 . S
H1198 C1212 0.960 . S
H1199 C1212 0.960 . S
C1200 H1192 0.929 . S
C1200 C1201 1.377 . S
C1200 C1202 1.384 . S
C1201 C1200 1.377 . S
C1201 C1207 1.390 . S
C1202 H1193 0.930 . S
C1202 C1200 1.384 . S
C1202 C1203 1.372 . S
C1203 C1202 1.372 . S
C1203 C1204 1.400 . S
C1203 C1208 1.490 . S
C1204 H1194 0.930 . S
C1204 C1203 1.400 . S
C1204 C1207 1.386 . S
H1205 C1221 0.930 . S
H1206 C1222 0.931 . S
C1207 H1195 0.929 . S
C1207 C1201 1.390 . S
C1207 C1204 1.386 . S
C1208 C1203 1.490 . S
C1208 C1210 1.395 . S
C1208 C1211 1.403 . S
H1209 C1215 0.930 . S
C1210 H1196 0.930 . S
C1210 C1208 1.395 . S
C1210 C1213 1.403 . S
C1211 C1208 1.403 . S
C1211 C1212 1.524 . S
C1211 C1215 1.400 . S
C1212 H1197 0.960 . S
C1212 H1198 0.960 . S
C1212 H1199 0.960 . S
C1212 C1211 1.524 . S
C1213 C1210 1.403 . S
C1213 C1214 1.392 . S
C1213 C1217 1.495 . S
C1214 C1213 1.392 . S
C1214 C1215 1.385 . S
C1214 C1216 1.478 . S
C1215 H1209 0.930 . S
C1215 C1211 1.400 . S
C1215 C1214 1.385 . S
C1216 C1214 1.478 . S
C1216 C1218 1.381 . S
C1216 C1222 1.383 . S
C1217 C1213 1.495 . S
C1217 H1223 0.959 . S
C1217 H1224 0.961 . S
C1217 H1225 0.960 . S
C1218 C1216 1.381 . S
C1218 C1219 1.394 . S
C1218 H1226 0.930 . S
C1219 C1218 1.394 . S
C1219 C1220 1.383 . S
C1219 H1227 0.929 . S
C1220 C1219 1.383 . S
C1220 C1221 1.377 . S
C1221 H1205 0.930 . S
C1221 C1220 1.377 . S
C1221 C1222 1.379 . S
C1222 H1206 0.931 . S
C1222 C1216 1.383 . S
C1222 C1221 1.379 . S
H1223 C1217 0.959 . S
H1224 C1217 0.961 . S
H1225 C1217 0.960 . S
H1226 C1218 0.930 . S
H1227 C1219 0.929 . S
H1228 C1236 0.929 . S
H1229 C1238 0.930 . S
H1230 C1240 0.930 . S
H1231 C1243 0.929 . S
H1232 C1246 0.930 . S
H1233 C1248 0.960 . S
H1234 C1248 0.960 . S
H1235 C1248 0.960 . S
C1236 H1228 0.929 . S
C1236 C1237 1.377 . S
C1236 C1238 1.384 . S
C1237 C1236 1.377 . S
C1237 C1243 1.390 . S
C1238 H1229 0.930 . S
C1238 C1236 1.384 . S
C1238 C1239 1.372 . S
C1239 C1238 1.372 . S
C1239 C1240 1.400 . S
C1239 C1244 1.490 . S
C1240 H1230 0.930 . S
C1240 C1239 1.400 . S
C1240 C1243 1.386 . S
H1241 C1257 0.930 . S
H1242 C1258 0.931 . S
C1243 H1231 0.929 . S
C1243 C1237 1.390 . S
C1243 C1240 1.386 . S
C1244 C1239 1.490 . S
C1244 C1246 1.395 . S
C1244 C1247 1.403 . S
H1245 C1251 0.930 . S
C1246 H1232 0.930 . S
C1246 C1244 1.395 . S
C1246 C1249 1.403 . S
C1247 C1244 1.403 . S
C1247 C1248 1.524 . S
C1247 C1251 1.400 . S
C1248 H1233 0.960 . S
C1248 H1234 0.960 . S
C1248 H1235 0.960 . S
C1248 C1247 1.524 . S
C1249 C1246 1.403 . S
C1249 C1250 1.392 . S
C1249 C1253 1.495 . S
C1250 C1249 1.392 . S
C1250 C1251 1.385 . S
C1250 C1252 1.478 . S
C1251 H1245 0.930 . S
C1251 C1247 1.400 . S
C1251 C1250 1.385 . S
C1252 C1250 1.478 . S
C1252 C1254 1.381 . S
C1252 C1258 1.383 . S
C1253 C1249 1.495 . S
C1253 H1259 0.959 . S
C1253 H1260 0.961 . S
C1253 H1261 0.960 . S
C1254 C1252 1.381 . S
C1254 C1255 1.394 . S
C1254 H1262 0.930 . S
C1255 C1254 1.394 . S
C1255 C1256 1.383 . S
C1255 H1263 0.929 . S
C1256 C1255 1.383 . S
C1256 C1257 1.377 . S
C1257 H1241 0.930 . S
C1257 C1256 1.377 . S
C1257 C1258 1.379 . S
C1258 H1242 0.931 . S
C1258 C1252 1.383 . S
C1258 C1257 1.379 . S
H1259 C1253 0.959 . S
H1260 C1253 0.961 . S
H1261 C1253 0.960 . S
H1262 C1254 0.930 . S
H1263 C1255 0.929 . S
H1264 C1272 0.929 . S
H1265 C1274 0.930 . S
H1266 C1276 0.930 . S
H1267 C1279 0.929 . S
H1268 C1282 0.930 . S
H1269 C1284 0.960 . S
H1270 C1284 0.960 . S
H1271 C1284 0.960 . S
C1272 H1264 0.929 . S
C1272 C1273 1.377 . S
C1272 C1274 1.384 . S
C1273 C1272 1.377 . S
C1273 C1279 1.390 . S
C1274 H1265 0.930 . S
C1274 C1272 1.384 . S
C1274 C1275 1.372 . S
C1275 C1274 1.372 . S
C1275 C1276 1.400 . S
C1275 C1280 1.490 . S
C1276 H1266 0.930 . S
C1276 C1275 1.400 . S
C1276 C1279 1.386 . S
H1277 C1293 0.930 . S
H1278 C1294 0.931 . S
C1279 H1267 0.929 . S
C1279 C1273 1.390 . S
C1279 C1276 1.386 . S
C1280 C1275 1.490 . S
C1280 C1282 1.395 . S
C1280 C1283 1.403 . S
H1281 C1287 0.930 . S
C1282 H1268 0.930 . S
C1282 C1280 1.395 . S
C1282 C1285 1.403 . S
C1283 C1280 1.403 . S
C1283 C1284 1.524 . S
C1283 C1287 1.400 . S
C1284 H1269 0.960 . S
C1284 H1270 0.960 . S
C1284 H1271 0.960 . S
C1284 C1283 1.524 . S
C1285 C1282 1.403 . S
C1285 C1286 1.392 . S
C1285 C1289 1.495 1_655 S
C1286 C1285 1.392 . S
C1286 C1287 1.385 . S
C1286 C1288 1.478 1_655 S
C1287 H1281 0.930 . S
C1287 C1283 1.400 . S
C1287 C1286 1.385 . S
C1288 C1286 1.478 1_455 S
C1288 C1290 1.381 1_455 S
C1288 C1294 1.383 . S
C1289 C1285 1.495 1_455 S
C1289 H1295 0.959 . S
C1289 H1296 0.961 . S
C1289 H1297 0.945 1_455 S
C1290 C1288 1.381 1_655 S
C1290 C1291 1.394 1_655 S
C1290 H1298 0.930 . S
C1291 C1290 1.394 1_455 S
C1291 C1292 1.383 . S
C1291 H1299 0.957 . S
C1292 C1291 1.383 . S
C1292 C1293 1.377 . S
C1293 H1277 0.930 . S
C1293 C1292 1.377 . S
C1293 C1294 1.379 . S
C1294 H1278 0.931 . S
C1294 C1288 1.383 . S
C1294 C1293 1.379 . S
H1295 C1289 0.959 . S
H1296 C1289 0.961 . S
H1297 C1289 0.945 1_655 S
H1298 C1290 0.930 . S
H1299 C1291 0.957 . S
H1300 C1308 0.929 . S
H1301 C1310 0.930 . S
H1302 C1312 0.930 . S
H1303 C1315 0.929 . S
H1304 C1318 0.930 . S
H1305 C1320 0.960 . S
H1306 C1320 0.960 . S
H1307 C1320 0.960 . S
C1308 H1300 0.929 . S
C1308 C1309 1.377 . S
C1308 C1310 1.384 . S
C1309 C1308 1.377 . S
C1309 C1315 1.390 . S
C1310 H1301 0.930 . S
C1310 C1308 1.384 . S
C1310 C1311 1.372 . S
C1311 C1310 1.372 . S
C1311 C1312 1.400 . S
C1311 C1316 1.490 . S
C1312 H1302 0.930 . S
C1312 C1311 1.400 . S
C1312 C1315 1.386 . S
H1313 C1329 0.930 . S
H1314 C1330 0.931 . S
C1315 H1303 0.929 . S
C1315 C1309 1.390 . S
C1315 C1312 1.386 . S
C1316 C1311 1.490 . S
C1316 C1318 1.395 . S
C1316 C1319 1.403 . S
H1317 C1323 0.930 . S
C1318 H1304 0.930 . S
C1318 C1316 1.395 . S
C1318 C1321 1.403 . S
C1319 C1316 1.403 . S
C1319 C1320 1.524 . S
C1319 C1323 1.400 . S
C1320 H1305 0.960 . S
C1320 H1306 0.960 . S
C1320 H1307 0.960 . S
C1320 C1319 1.524 . S
C1321 C1318 1.403 . S
C1321 C1322 1.392 . S
C1321 C1325 1.495 . S
C1322 C1321 1.392 . S
C1322 C1323 1.385 . S
C1322 C1324 1.478 . S
C1323 H1317 0.930 . S
C1323 C1319 1.400 . S
C1323 C1322 1.385 . S
C1324 C1322 1.478 . S
C1324 C1326 1.381 . S
C1324 C1330 1.383 . S
C1325 C1321 1.495 . S
C1325 H1331 0.959 . S
C1325 H1332 0.961 . S
C1325 H1333 0.960 . S
C1326 C1324 1.381 . S
C1326 C1327 1.394 . S
C1326 H1334 0.930 . S
C1327 C1326 1.394 . S
C1327 C1328 1.383 . S
C1327 H1335 0.929 . S
C1328 C1327 1.383 . S
C1328 C1329 1.377 . S
C1329 H1313 0.930 . S
C1329 C1328 1.377 . S
C1329 C1330 1.379 . S
C1330 H1314 0.931 . S
C1330 C1324 1.383 . S
C1330 C1329 1.379 . S
H1331 C1325 0.959 . S
H1332 C1325 0.961 . S
H1333 C1325 0.960 . S
H1334 C1326 0.930 . S
H1335 C1327 0.929 . S
H1336 C1344 0.929 . S
H1337 C1346 0.930 . S
H1338 C1348 0.930 . S
H1339 C1351 0.929 . S
H1340 C1354 0.930 . S
H1341 C1356 0.960 . S
H1342 C1356 0.960 . S
H1343 C1356 0.960 . S
C1344 H1336 0.929 . S
C1344 C1345 1.377 . S
C1344 C1346 1.384 . S
C1345 C1344 1.377 . S
C1345 C1351 1.390 . S
C1346 H1337 0.930 . S
C1346 C1344 1.384 . S
C1346 C1347 1.372 . S
C1347 C1346 1.372 . S
C1347 C1348 1.400 . S
C1347 C1352 1.490 . S
C1348 H1338 0.930 . S
C1348 C1347 1.400 . S
C1348 C1351 1.386 . S
H1349 C1365 0.930 . S
H1350 C1366 0.931 . S
C1351 H1339 0.929 . S
C1351 C1345 1.390 . S
C1351 C1348 1.386 . S
C1352 C1347 1.490 . S
C1352 C1354 1.395 . S
C1352 C1355 1.403 . S
H1353 C1359 0.930 . S
C1354 H1340 0.930 . S
C1354 C1352 1.395 . S
C1354 C1357 1.403 . S
C1355 C1352 1.403 . S
C1355 C1356 1.524 . S
C1355 C1359 1.400 . S
C1356 H1341 0.960 . S
C1356 H1342 0.960 . S
C1356 H1343 0.960 . S
C1356 C1355 1.524 . S
C1357 C1354 1.403 . S
C1357 C1358 1.392 . S
C1357 C1361 1.495 1_545 S
C1358 C1357 1.392 . S
C1358 C1359 1.385 . S
C1358 C1360 1.478 . S
C1359 H1353 0.930 . S
C1359 C1355 1.400 . S
C1359 C1358 1.385 . S
C1360 C1358 1.478 . S
C1360 C1362 1.381 . S
C1360 C1366 1.383 . S
C1361 C1357 1.495 1_565 S
C1361 H1367 0.959 . S
C1361 H1368 0.961 . S
C1361 H1369 0.960 . S
C1362 C1360 1.381 . S
C1362 C1363 1.394 . S
C1362 H1370 0.930 . S
C1363 C1362 1.394 . S
C1363 C1364 1.383 . S
C1363 H1371 0.929 . S
C1364 C1363 1.383 . S
C1364 C1365 1.377 . S
C1365 H1349 0.930 . S
C1365 C1364 1.377 . S
C1365 C1366 1.379 . S
C1366 H1350 0.931 . S
C1366 C1360 1.383 . S
C1366 C1365 1.379 . S
H1367 C1361 0.959 . S
H1368 C1361 0.961 . S
H1369 C1361 0.960 . S
H1370 C1362 0.930 . S
H1371 C1363 0.929 . S
H1372 C1380 0.929 . S
H1373 C1382 0.930 . S
H1374 C1384 0.930 . S
H1375 C1387 0.929 . S
H1376 C1390 0.930 . S
H1377 C1392 0.960 . S
H1378 C1392 0.960 . S
H1379 C1392 0.960 . S
C1380 H1372 0.929 . S
C1380 C1381 1.377 . S
C1380 C1382 1.384 . S
C1381 C1380 1.377 . S
C1381 C1387 1.390 . S
C1382 H1373 0.930 . S
C1382 C1380 1.384 . S
C1382 C1383 1.372 . S
C1383 C1382 1.372 . S
C1383 C1384 1.400 . S
C1383 C1388 1.490 . S
C1384 H1374 0.930 . S
C1384 C1383 1.400 . S
C1384 C1387 1.386 . S
H1385 C1401 0.930 . S
H1386 C1402 0.931 . S
C1387 H1375 0.929 . S
C1387 C1381 1.390 . S
C1387 C1384 1.386 . S
C1388 C1383 1.490 . S
C1388 C1390 1.395 . S
C1388 C1391 1.403 . S
H1389 C1395 0.930 . S
C1390 H1376 0.930 . S
C1390 C1388 1.395 . S
C1390 C1393 1.403 . S
C1391 C1388 1.403 . S
C1391 C1392 1.524 . S
C1391 C1395 1.400 . S
C1392 H1377 0.960 . S
C1392 H1378 0.960 . S
C1392 H1379 0.960 . S
C1392 C1391 1.524 . S
C1393 C1390 1.403 . S
C1393 C1394 1.392 . S
C1393 C1397 1.495 . S
C1394 C1393 1.392 . S
C1394 C1395 1.385 . S
C1394 C1396 1.478 . S
C1395 H1389 0.930 . S
C1395 C1391 1.400 . S
C1395 C1394 1.385 . S
C1396 C1394 1.478 . S
C1396 C1398 1.381 . S
C1396 C1402 1.383 . S
C1397 C1393 1.495 . S
C1397 H1403 0.959 . S
C1397 H1404 0.961 . S
C1397 H1405 0.960 . S
C1398 C1396 1.381 . S
C1398 C1399 1.394 . S
C1398 H1406 0.930 . S
C1399 C1398 1.394 . S
C1399 C1400 1.383 . S
C1399 H1407 0.929 . S
C1400 C1399 1.383 . S
C1400 C1401 1.377 . S
C1401 H1385 0.930 . S
C1401 C1400 1.377 . S
C1401 C1402 1.379 . S
C1402 H1386 0.931 . S
C1402 C1396 1.383 . S
C1402 C1401 1.379 . S
H1403 C1397 0.959 . S
H1404 C1397 0.961 . S
H1405 C1397 0.960 . S
H1406 C1398 0.930 . S
H1407 C1399 0.929 . S
H1408 C1416 0.929 . S
H1409 C1418 0.930 . S
H1410 C1420 0.930 . S
H1411 C1423 0.929 . S
H1412 C1426 0.930 . S
H1413 C1428 0.969 . S
H1414 C1428 0.959 . S
H1415 C1428 0.960 . S
C1416 H1408 0.929 . S
C1416 C1417 1.377 . S
C1416 C1418 1.384 . S
C1417 C1416 1.377 . S
C1417 C1423 1.390 . S
C1418 H1409 0.930 . S
C1418 C1416 1.384 . S
C1418 C1419 1.372 . S
C1419 C1418 1.372 . S
C1419 C1420 1.400 . S
C1419 C1424 1.490 . S
C1420 H1410 0.930 . S
C1420 C1419 1.400 . S
C1420 C1423 1.386 . S
H1421 C1437 0.930 . S
H1422 C1438 0.931 . S
C1423 H1411 0.929 . S
C1423 C1417 1.390 . S
C1423 C1420 1.386 . S
C1424 C1419 1.490 . S
C1424 C1426 1.395 . S
C1424 C1427 1.403 . S
H1425 C1431 0.930 1_455 S
C1426 H1412 0.930 . S
C1426 C1424 1.395 . S
C1426 C1429 1.403 . S
C1427 C1424 1.403 . S
C1427 C1428 1.524 . S
C1427 C1431 1.400 . S
C1428 H1413 0.969 . S
C1428 H1414 0.959 . S
C1428 H1415 0.960 . S
C1428 C1427 1.524 . S
C1429 C1426 1.403 . S
C1429 C1430 1.392 . S
C1429 C1433 1.495 . S
C1430 C1429 1.392 . S
C1430 C1431 1.385 . S
C1430 C1432 1.478 1_655 S
C1431 H1425 0.930 1_655 S
C1431 C1427 1.400 . S
C1431 C1430 1.385 . S
C1432 C1430 1.478 1_455 S
C1432 C1434 1.381 . S
C1432 C1438 1.383 1_455 S
C1433 C1429 1.495 . S
C1433 H1439 0.959 . S
C1433 H1440 0.961 . S
C1433 H1441 0.960 . S
C1434 C1432 1.381 . S
C1434 C1435 1.394 . S
C1434 H1442 0.930 . S
C1435 C1434 1.394 . S
C1435 C1436 1.383 . S
C1435 H1443 0.929 . S
C1436 C1435 1.383 . S
C1436 C1437 1.377 . S
C1437 H1421 0.930 . S
C1437 C1436 1.377 . S
C1437 C1438 1.379 1_455 S
C1438 H1422 0.931 . S
C1438 C1432 1.383 1_655 S
C1438 C1437 1.379 1_655 S
H1439 C1433 0.959 . S
H1440 C1433 0.961 . S
H1441 C1433 0.960 . S
H1442 C1434 0.930 . S
H1443 C1435 0.929 . S
H1444 C1452 0.929 . S
H1445 C1454 0.930 . S
H1446 C1456 0.930 . S
H1447 C1459 0.929 . S
H1448 C1462 0.930 . S
H1449 C1464 0.960 . S
H1450 C1464 0.960 . S
H1451 C1464 0.960 . S
C1452 H1444 0.929 . S
C1452 C1453 1.377 . S
C1452 C1454 1.384 . S
C1453 C1452 1.377 . S
C1453 C1459 1.390 . S
C1454 H1445 0.930 . S
C1454 C1452 1.384 . S
C1454 C1455 1.372 . S
C1455 C1454 1.372 . S
C1455 C1456 1.400 . S
C1455 C1460 1.490 . S
C1456 H1446 0.930 . S
C1456 C1455 1.400 . S
C1456 C1459 1.386 . S
H1457 C1473 0.930 . S
H1458 C1474 0.931 . S
C1459 H1447 0.929 . S
C1459 C1453 1.390 . S
C1459 C1456 1.386 . S
C1460 C1455 1.490 . S
C1460 C1462 1.395 . S
C1460 C1463 1.403 . S
H1461 C1467 0.930 . S
C1462 H1448 0.930 . S
C1462 C1460 1.395 . S
C1462 C1465 1.403 . S
C1463 C1460 1.403 . S
C1463 C1464 1.524 . S
C1463 C1467 1.400 . S
C1464 H1449 0.960 . S
C1464 H1450 0.960 . S
C1464 H1451 0.960 . S
C1464 C1463 1.524 . S
C1465 C1462 1.403 . S
C1465 C1466 1.392 . S
C1465 C1469 1.495 . S
C1466 C1465 1.392 . S
C1466 C1467 1.385 . S
C1466 C1468 1.478 . S
C1467 H1461 0.930 . S
C1467 C1463 1.400 . S
C1467 C1466 1.385 . S
C1468 C1466 1.478 . S
C1468 C1470 1.381 . S
C1468 C1474 1.383 . S
C1469 C1465 1.495 . S
C1469 H1475 0.959 . S
C1469 H1476 0.961 . S
C1469 H1477 0.960 . S
C1470 C1468 1.381 . S
C1470 C1471 1.394 . S
C1470 H1478 0.930 . S
C1471 C1470 1.394 . S
C1471 C1472 1.383 . S
C1471 H1479 0.929 . S
C1472 C1471 1.383 . S
C1472 C1473 1.377 . S
C1473 H1457 0.930 . S
C1473 C1472 1.377 . S
C1473 C1474 1.379 . S
C1474 H1458 0.931 . S
C1474 C1468 1.383 . S
C1474 C1473 1.379 . S
H1475 C1469 0.959 . S
H1476 C1469 0.961 . S
H1477 C1469 0.960 . S
H1478 C1470 0.930 . S
H1479 C1471 0.929 . S
H1480 C1488 0.929 . S
H1481 C1490 0.930 . S
H1482 C1492 0.930 . S
H1483 C1495 0.929 . S
H1484 C1498 0.930 . S
H1485 C1500 0.960 . S
H1486 C1500 0.960 . S
H1487 C1500 0.960 . S
C1488 H1480 0.929 . S
C1488 C1489 1.377 . S
C1488 C1490 1.384 . S
C1489 C1488 1.377 . S
C1489 C1495 1.390 . S
C1490 H1481 0.930 . S
C1490 C1488 1.384 . S
C1490 C1491 1.372 . S
C1491 C1490 1.372 . S
C1491 C1492 1.400 . S
C1491 C1496 1.490 . S
C1492 H1482 0.930 . S
C1492 C1491 1.400 . S
C1492 C1495 1.386 . S
H1493 C1509 0.930 . S
H1494 C1510 0.931 . S
C1495 H1483 0.929 . S
C1495 C1489 1.390 . S
C1495 C1492 1.386 . S
C1496 C1491 1.490 . S
C1496 C1498 1.395 . S
C1496 C1499 1.403 . S
H1497 C1503 0.930 . S
C1498 H1484 0.930 . S
C1498 C1496 1.395 . S
C1498 C1501 1.403 . S
C1499 C1496 1.403 . S
C1499 C1500 1.524 . S
C1499 C1503 1.400 . S
C1500 H1485 0.960 . S
C1500 H1486 0.960 . S
C1500 H1487 0.960 . S
C1500 C1499 1.524 . S
C1501 C1498 1.403 . S
C1501 C1502 1.392 . S
C1501 C1505 1.495 . S
C1502 C1501 1.392 . S
C1502 C1503 1.385 . S
C1502 C1504 1.478 . S
C1503 H1497 0.930 . S
C1503 C1499 1.400 . S
C1503 C1502 1.385 . S
C1504 C1502 1.478 . S
C1504 C1506 1.381 . S
C1504 C1510 1.383 . S
C1505 C1501 1.495 . S
C1505 H1511 0.959 . S
C1505 H1512 0.961 . S
C1505 H1513 0.960 . S
C1506 C1504 1.381 . S
C1506 C1507 1.394 . S
C1506 H1514 0.930 . S
C1507 C1506 1.394 . S
C1507 C1508 1.383 . S
C1507 H1515 0.929 . S
C1508 C1507 1.383 . S
C1508 C1509 1.377 . S
C1509 H1493 0.930 . S
C1509 C1508 1.377 . S
C1509 C1510 1.379 . S
C1510 H1494 0.931 . S
C1510 C1504 1.383 . S
C1510 C1509 1.379 . S
H1511 C1505 0.959 . S
H1512 C1505 0.961 . S
H1513 C1505 0.960 . S
H1514 C1506 0.930 . S
H1515 C1507 0.929 . S
H1516 C1524 0.929 . S
H1517 C1526 0.930 . S
H1518 C1528 0.930 . S
H1519 C1531 0.929 . S
H1520 C1534 0.930 . S
H1521 C1536 0.960 . S
H1522 C1536 0.960 . S
H1523 C1536 0.960 . S
C1524 H1516 0.929 . S
C1524 C1525 1.377 . S
C1524 C1526 1.384 . S
C1525 C1524 1.377 . S
C1525 C1531 1.390 . S
C1526 H1517 0.930 . S
C1526 C1524 1.384 . S
C1526 C1527 1.372 . S
C1527 C1526 1.372 . S
C1527 C1528 1.400 . S
C1527 C1532 1.490 . S
C1528 H1518 0.930 . S
C1528 C1527 1.400 . S
C1528 C1531 1.386 . S
H1529 C1545 0.930 . S
H1530 C1546 0.931 . S
C1531 H1519 0.929 . S
C1531 C1525 1.390 . S
C1531 C1528 1.386 . S
C1532 C1527 1.490 . S
C1532 C1534 1.395 . S
C1532 C1535 1.403 . S
H1533 C1539 0.930 . S
C1534 H1520 0.930 . S
C1534 C1532 1.395 . S
C1534 C1537 1.403 . S
C1535 C1532 1.403 . S
C1535 C1536 1.524 . S
C1535 C1539 1.400 . S
C1536 H1521 0.960 . S
C1536 H1522 0.960 . S
C1536 H1523 0.960 . S
C1536 C1535 1.524 . S
C1537 C1534 1.403 . S
C1537 C1538 1.392 . S
C1537 C1541 1.495 . S
C1538 C1537 1.392 . S
C1538 C1539 1.385 . S
C1538 C1540 1.478 . S
C1539 H1533 0.930 . S
C1539 C1535 1.400 . S
C1539 C1538 1.385 . S
C1540 C1538 1.478 . S
C1540 C1542 1.381 . S
C1540 C1546 1.383 . S
C1541 C1537 1.495 . S
C1541 H1547 0.959 . S
C1541 H1548 0.961 . S
C1541 H1549 0.960 . S
C1542 C1540 1.381 . S
C1542 C1543 1.394 . S
C1542 H1550 0.930 . S
C1543 C1542 1.394 . S
C1543 C1544 1.383 . S
C1543 H1551 0.929 . S
C1544 C1543 1.383 . S
C1544 C1545 1.377 . S
C1545 H1529 0.930 . S
C1545 C1544 1.377 . S
C1545 C1546 1.379 . S
C1546 H1530 0.931 . S
C1546 C1540 1.383 . S
C1546 C1545 1.379 . S
H1547 C1541 0.959 . S
H1548 C1541 0.961 . S
H1549 C1541 0.960 . S
H1550 C1542 0.930 . S
H1551 C1543 0.929 . S
H1552 C1560 0.920 1_556 S
H1553 C1562 0.930 . S
H1554 C1564 0.930 . S
H1555 C1567 0.929 . S
H1556 C1570 0.930 . S
H1557 C1572 0.959 . S
H1558 C1572 0.960 1_556 S
H1559 C1572 0.960 . S
C1560 H1552 0.920 1_554 S
C1560 C1561 1.377 . S
C1560 C1562 1.384 . S
C1561 C1560 1.377 . S
C1561 C1567 1.390 . S
C1562 H1553 0.930 . S
C1562 C1560 1.384 . S
C1562 C1563 1.372 . S
C1563 C1562 1.372 . S
C1563 C1564 1.400 . S
C1563 C1568 1.490 . S
C1564 H1554 0.930 . S
C1564 C1563 1.400 . S
C1564 C1567 1.386 . S
H1565 C1581 0.930 . S
H1566 C1582 0.931 1_545 S
C1567 H1555 0.929 . S
C1567 C1561 1.390 . S
C1567 C1564 1.386 . S
C1568 C1563 1.490 . S
C1568 C1570 1.395 . S
C1568 C1571 1.403 . S
H1569 C1575 0.930 . S
C1570 H1556 0.930 . S
C1570 C1568 1.395 . S
C1570 C1573 1.403 . S
C1571 C1568 1.403 . S
C1571 C1572 1.524 . S
C1571 C1575 1.400 . S
C1572 H1557 0.959 . S
C1572 H1558 0.960 1_554 S
C1572 H1559 0.960 . S
C1572 C1571 1.524 . S
C1573 C1570 1.403 . S
C1573 C1574 1.392 . S
C1573 C1577 1.495 . S
C1574 C1573 1.392 . S
C1574 C1575 1.385 . S
C1574 C1576 1.478 . S
C1575 H1569 0.930 . S
C1575 C1571 1.400 . S
C1575 C1574 1.385 . S
C1576 C1574 1.478 . S
C1576 C1578 1.381 . S
C1576 C1582 1.383 . S
C1577 C1573 1.495 . S
C1577 H1583 0.959 . S
C1577 H1584 0.961 . S
C1577 H1585 0.960 . S
C1578 C1576 1.381 . S
C1578 C1579 1.394 . S
C1578 H1586 0.930 . S
C1579 C1578 1.394 . S
C1579 C1580 1.383 . S
C1579 H1587 0.929 . S
C1580 C1579 1.383 . S
C1580 C1581 1.377 1_565 S
C1581 H1565 0.930 . S
C1581 C1580 1.377 1_545 S
C1581 C1582 1.379 1_545 S
C1582 H1566 0.931 1_565 S
C1582 C1576 1.383 . S
C1582 C1581 1.379 1_565 S
H1583 C1577 0.959 . S
H1584 C1577 0.961 . S
H1585 C1577 0.960 . S
H1586 C1578 0.930 . S
H1587 C1579 0.929 . S
H1588 C1596 0.929 . S
H1589 C1598 0.930 . S
H1590 C1600 0.930 . S
H1591 C1603 0.929 . S
H1592 C1606 0.930 . S
H1593 C1608 0.960 . S
H1594 C1608 0.960 1_556 S
H1595 C1608 0.960 . S
C1596 H1588 0.929 . S
C1596 C1597 1.376 . S
C1596 C1598 1.384 . S
C1597 C1596 1.376 . S
C1597 C1603 1.392 1_556 S
C1598 H1589 0.930 . S
C1598 C1596 1.384 . S
C1598 C1599 1.380 . S
C1599 C1598 1.380 . S
C1599 C1600 1.394 1_556 S
C1599 C1604 1.487 . S
C1600 H1590 0.930 . S
C1600 C1599 1.394 1_554 S
C1600 C1603 1.386 . S
H1601 C1617 0.930 . S
H1602 C1618 0.931 . S
C1603 H1591 0.929 . S
C1603 C1597 1.392 1_554 S
C1603 C1600 1.386 . S
C1604 C1599 1.487 . S
C1604 C1606 1.395 . S
C1604 C1607 1.404 1_556 S
H1605 C1611 0.930 . S
C1606 H1592 0.930 . S
C1606 C1604 1.395 . S
C1606 C1609 1.403 . S
C1607 C1604 1.404 1_554 S
C1607 C1608 1.524 . S
C1607 C1611 1.400 . S
C1608 H1593 0.960 . S
C1608 H1594 0.960 1_554 S
C1608 H1595 0.960 . S
C1608 C1607 1.524 . S
C1609 C1606 1.403 . S
C1609 C1610 1.386 1_556 S
C1609 C1613 1.495 . S
C1610 C1609 1.386 1_554 S
C1610 C1611 1.384 . S
C1610 C1612 1.486 . S
C1611 H1605 0.930 . S
C1611 C1607 1.400 . S
C1611 C1610 1.384 . S
C1612 C1610 1.486 . S
C1612 C1614 1.381 1_554 S
C1612 C1618 1.383 . S
C1613 C1609 1.495 . S
C1613 H1619 0.959 . S
C1613 H1620 0.961 1_556 S
C1613 H1621 0.960 . S
C1614 C1612 1.381 1_556 S
C1614 C1615 1.394 . S
C1614 H1622 0.930 . S
C1615 C1614 1.394 . S
C1615 C1616 1.383 1_556 S
C1615 H1623 0.929 . S
C1616 C1615 1.383 1_554 S
C1616 C1617 1.377 . S
C1617 H1601 0.930 . S
C1617 C1616 1.377 . S
C1617 C1618 1.379 . S
C1618 H1602 0.931 . S
C1618 C1612 1.383 . S
C1618 C1617 1.379 . S
H1619 C1613 0.959 . S
H1620 C1613 0.961 1_554 S
H1621 C1613 0.960 . S
H1622 C1614 0.930 . S
H1623 C1615 0.929 . S
H1624 C1632 0.929 . S
H1625 C1634 0.930 . S
H1626 C1636 0.930 . S
H1627 C1639 0.929 . S
H1628 C1642 0.930 . S
H1629 C1644 0.960 . S
H1630 C1644 0.960 . S
H1631 C1644 0.960 . S
C1632 H1624 0.929 . S
C1632 C1633 1.377 . S
C1632 C1634 1.384 . S
C1633 C1632 1.377 . S
C1633 C1639 1.390 . S
C1634 H1625 0.930 . S
C1634 C1632 1.384 . S
C1634 C1635 1.372 . S
C1635 C1634 1.372 . S
C1635 C1636 1.400 . S
C1635 C1640 1.490 . S
C1636 H1626 0.930 . S
C1636 C1635 1.400 . S
C1636 C1639 1.386 . S
H1637 C1653 0.930 . S
H1638 C1654 0.931 . S
C1639 H1627 0.929 . S
C1639 C1633 1.390 . S
C1639 C1636 1.386 . S
C1640 C1635 1.490 . S
C1640 C1642 1.395 . S
C1640 C1643 1.403 . S
H1641 C1647 0.930 . S
C1642 H1628 0.930 . S
C1642 C1640 1.395 . S
C1642 C1645 1.403 . S
C1643 C1640 1.403 . S
C1643 C1644 1.524 . S
C1643 C1647 1.400 . S
C1644 H1629 0.960 . S
C1644 H1630 0.960 . S
C1644 H1631 0.960 . S
C1644 C1643 1.524 . S
C1645 C1642 1.403 . S
C1645 C1646 1.392 . S
C1645 C1649 1.495 . S
C1646 C1645 1.392 . S
C1646 C1647 1.385 . S
C1646 C1648 1.478 . S
C1647 H1641 0.930 . S
C1647 C1643 1.400 . S
C1647 C1646 1.385 . S
C1648 C1646 1.478 . S
C1648 C1650 1.381 . S
C1648 C1654 1.383 . S
C1649 C1645 1.495 . S
C1649 H1655 0.959 . S
C1649 H1656 0.961 . S
C1649 H1657 0.960 . S
C1650 C1648 1.381 . S
C1650 C1651 1.394 . S
C1650 H1658 0.930 . S
C1651 C1650 1.394 . S
C1651 C1652 1.383 . S
C1651 H1659 0.929 . S
C1652 C1651 1.383 . S
C1652 C1653 1.377 . S
C1653 H1637 0.930 . S
C1653 C1652 1.377 . S
C1653 C1654 1.379 . S
C1654 H1638 0.931 . S
C1654 C1648 1.383 . S
C1654 C1653 1.379 . S
H1655 C1649 0.959 . S
H1656 C1649 0.961 . S
H1657 C1649 0.960 . S
H1658 C1650 0.930 . S
H1659 C1651 0.929 . S
H1660 C1668 0.929 . S
H1661 C1670 0.930 . S
H1662 C1672 0.930 . S
H1663 C1675 0.929 . S
H1664 C1678 0.930 . S
H1665 C1680 0.960 . S
H1666 C1680 0.960 . S
H1667 C1680 0.960 . S
C1668 H1660 0.929 . S
C1668 C1669 1.377 . S
C1668 C1670 1.384 . S
C1669 C1668 1.377 . S
C1669 C1675 1.390 . S
C1670 H1661 0.930 . S
C1670 C1668 1.384 . S
C1670 C1671 1.372 . S
C1671 C1670 1.372 . S
C1671 C1672 1.400 . S
C1671 C1676 1.490 . S
C1672 H1662 0.930 . S
C1672 C1671 1.400 . S
C1672 C1675 1.386 . S
H1673 C1689 0.930 . S
H1674 C1690 0.931 . S
C1675 H1663 0.929 . S
C1675 C1669 1.390 . S
C1675 C1672 1.386 . S
C1676 C1671 1.490 . S
C1676 C1678 1.395 . S
C1676 C1679 1.403 . S
H1677 C1683 0.930 . S
C1678 H1664 0.930 . S
C1678 C1676 1.395 . S
C1678 C1681 1.403 . S
C1679 C1676 1.403 . S
C1679 C1680 1.524 . S
C1679 C1683 1.400 . S
C1680 H1665 0.960 . S
C1680 H1666 0.960 . S
C1680 H1667 0.960 . S
C1680 C1679 1.524 . S
C1681 C1678 1.403 . S
C1681 C1682 1.392 . S
C1681 C1685 1.495 . S
C1682 C1681 1.392 . S
C1682 C1683 1.385 . S
C1682 C1684 1.478 . S
C1683 H1677 0.930 . S
C1683 C1679 1.400 . S
C1683 C1682 1.385 . S
C1684 C1682 1.478 . S
C1684 C1686 1.381 . S
C1684 C1690 1.383 . S
C1685 C1681 1.495 . S
C1685 H1691 0.959 . S
C1685 H1692 0.961 . S
C1685 H1693 0.960 . S
C1686 C1684 1.381 . S
C1686 C1687 1.394 . S
C1686 H1694 0.930 . S
C1687 C1686 1.394 . S
C1687 C1688 1.383 . S
C1687 H1695 0.929 1_655 S
C1688 C1687 1.383 . S
C1688 C1689 1.377 . S
C1689 H1673 0.930 . S
C1689 C1688 1.377 . S
C1689 C1690 1.379 . S
C1690 H1674 0.931 . S
C1690 C1684 1.383 . S
C1690 C1689 1.379 . S
H1691 C1685 0.959 . S
H1692 C1685 0.961 . S
H1693 C1685 0.960 . S
H1694 C1686 0.930 . S
H1695 C1687 0.929 1_455 S
H1696 C1704 0.929 . S
H1697 C1706 0.930 . S
H1698 C1708 0.930 . S
H1699 C1711 0.929 . S
H1700 C1714 0.930 . S
H1701 C1716 0.960 . S
H1702 C1716 0.960 . S
H1703 C1716 0.960 . S
C1704 H1696 0.929 . S
C1704 C1705 1.377 . S
C1704 C1706 1.384 . S
C1705 C1704 1.377 . S
C1705 C1711 1.390 . S
C1706 H1697 0.930 . S
C1706 C1704 1.384 . S
C1706 C1707 1.372 . S
C1707 C1706 1.372 . S
C1707 C1708 1.400 . S
C1707 C1712 1.490 . S
C1708 H1698 0.930 . S
C1708 C1707 1.400 . S
C1708 C1711 1.386 . S
H1709 C1725 0.930 . S
H1710 C1726 0.931 . S
C1711 H1699 0.929 . S
C1711 C1705 1.390 . S
C1711 C1708 1.386 . S
C1712 C1707 1.490 . S
C1712 C1714 1.395 . S
C1712 C1715 1.403 . S
H1713 C1719 0.930 . S
C1714 H1700 0.930 . S
C1714 C1712 1.395 . S
C1714 C1717 1.403 . S
C1715 C1712 1.403 . S
C1715 C1716 1.524 . S
C1715 C1719 1.400 . S
C1716 H1701 0.960 . S
C1716 H1702 0.960 . S
C1716 H1703 0.960 . S
C1716 C1715 1.524 . S
C1717 C1714 1.403 . S
C1717 C1718 1.392 . S
C1717 C1721 1.495 . S
C1718 C1717 1.392 . S
C1718 C1719 1.385 . S
C1718 C1720 1.478 . S
C1719 H1713 0.930 . S
C1719 C1715 1.400 . S
C1719 C1718 1.385 . S
C1720 C1718 1.478 . S
C1720 C1722 1.381 . S
C1720 C1726 1.383 . S
C1721 C1717 1.495 . S
C1721 H1727 0.959 . S
C1721 H1728 0.961 . S
C1721 H1729 0.960 . S
C1722 C1720 1.381 . S
C1722 C1723 1.394 . S
C1722 H1730 0.930 . S
C1723 C1722 1.394 . S
C1723 C1724 1.383 . S
C1723 H1731 0.929 . S
C1724 C1723 1.383 . S
C1724 C1725 1.377 . S
C1725 H1709 0.930 . S
C1725 C1724 1.377 . S
C1725 C1726 1.379 . S
C1726 H1710 0.931 . S
C1726 C1720 1.383 . S
C1726 C1725 1.379 . S
H1727 C1721 0.959 . S
H1728 C1721 0.961 . S
H1729 C1721 0.960 . S
H1730 C1722 0.930 . S
H1731 C1723 0.929 . S
H1732 C1740 0.929 . S
H1733 C1742 0.930 . S
H1734 C1744 0.930 . S
H1735 C1747 0.929 . S
H1736 C1750 0.930 . S
H1737 C1752 0.960 . S
H1738 C1752 0.960 . S
H1739 C1752 0.960 . S
C1740 H1732 0.929 . S
C1740 C1741 1.377 . S
C1740 C1742 1.384 . S
C1741 C1740 1.377 . S
C1741 C1747 1.390 . S
C1742 H1733 0.930 . S
C1742 C1740 1.384 . S
C1742 C1743 1.372 . S
C1743 C1742 1.372 . S
C1743 C1744 1.400 . S
C1743 C1748 1.490 . S
C1744 H1734 0.930 . S
C1744 C1743 1.400 . S
C1744 C1747 1.386 . S
H1745 C1761 0.930 . S
H1746 C1762 0.931 . S
C1747 H1735 0.929 . S
C1747 C1741 1.390 . S
C1747 C1744 1.386 . S
C1748 C1743 1.490 . S
C1748 C1750 1.395 . S
C1748 C1751 1.403 . S
H1749 C1755 0.930 . S
C1750 H1736 0.930 . S
C1750 C1748 1.395 . S
C1750 C1753 1.403 . S
C1751 C1748 1.403 . S
C1751 C1752 1.524 . S
C1751 C1755 1.400 . S
C1752 H1737 0.960 . S
C1752 H1738 0.960 . S
C1752 H1739 0.960 . S
C1752 C1751 1.524 . S
C1753 C1750 1.403 . S
C1753 C1754 1.392 . S
C1753 C1757 1.495 . S
C1754 C1753 1.392 . S
C1754 C1755 1.385 . S
C1754 C1756 1.478 . S
C1755 H1749 0.930 . S
C1755 C1751 1.400 . S
C1755 C1754 1.385 . S
C1756 C1754 1.478 . S
C1756 C1758 1.381 . S
C1756 C1762 1.383 . S
C1757 C1753 1.495 . S
C1757 H1763 0.959 . S
C1757 H1764 0.961 . S
C1757 H1765 0.960 . S
C1758 C1756 1.381 . S
C1758 C1759 1.394 . S
C1758 H1766 0.930 . S
C1759 C1758 1.394 . S
C1759 C1760 1.383 . S
C1759 H1767 0.929 . S
C1760 C1759 1.383 . S
C1760 C1761 1.377 . S
C1761 H1745 0.930 . S
C1761 C1760 1.377 . S
C1761 C1762 1.379 . S
C1762 H1746 0.931 . S
C1762 C1756 1.383 . S
C1762 C1761 1.379 . S
H1763 C1757 0.959 . S
H1764 C1757 0.961 . S
H1765 C1757 0.960 . S
H1766 C1758 0.930 . S
H1767 C1759 0.929 . S
H1768 C1776 0.929 . S
H1769 C1778 0.930 . S
H1770 C1780 0.930 . S
H1771 C1783 0.929 . S
H1772 C1786 0.930 . S
H1773 C1788 0.960 . S
H1774 C1788 0.960 . S
H1775 C1788 0.960 . S
C1776 H1768 0.929 . S
C1776 C1777 1.377 . S
C1776 C1778 1.384 . S
C1777 C1776 1.377 . S
C1777 C1783 1.390 . S
C1778 H1769 0.930 . S
C1778 C1776 1.384 . S
C1778 C1779 1.372 . S
C1779 C1778 1.372 . S
C1779 C1780 1.400 . S
C1779 C1784 1.490 . S
C1780 H1770 0.930 . S
C1780 C1779 1.400 . S
C1780 C1783 1.386 . S
H1781 C1797 0.930 . S
H1782 C1798 0.931 . S
C1783 H1771 0.929 . S
C1783 C1777 1.390 . S
C1783 C1780 1.386 . S
C1784 C1779 1.490 . S
C1784 C1786 1.395 . S
C1784 C1787 1.403 . S
H1785 C1791 0.930 . S
C1786 H1772 0.930 . S
C1786 C1784 1.395 . S
C1786 C1789 1.403 . S
C1787 C1784 1.403 . S
C1787 C1788 1.524 . S
C1787 C1791 1.400 . S
C1788 H1773 0.960 . S
C1788 H1774 0.960 . S
C1788 H1775 0.960 . S
C1788 C1787 1.524 . S
C1789 C1786 1.403 . S
C1789 C1790 1.392 . S
C1789 C1793 1.495 . S
C1790 C1789 1.392 . S
C1790 C1791 1.385 . S
C1790 C1792 1.478 . S
C1791 H1785 0.930 . S
C1791 C1787 1.400 . S
C1791 C1790 1.385 . S
C1792 C1790 1.478 . S
C1792 C1794 1.381 . S
C1792 C1798 1.383 . S
C1793 C1789 1.495 . S
C1793 H1799 0.959 . S
C1793 H1800 0.961 . S
C1793 H1801 0.960 . S
C1794 C1792 1.381 . S
C1794 C1795 1.394 . S
C1794 H1802 0.930 . S
C1795 C1794 1.394 . S
C1795 C1796 1.383 . S
C1795 H1803 0.929 . S
C1796 C1795 1.383 . S
C1796 C1797 1.377 . S
C1797 H1781 0.930 . S
C1797 C1796 1.377 . S
C1797 C1798 1.379 . S
C1798 H1782 0.931 . S
C1798 C1792 1.383 . S
C1798 C1797 1.379 . S
H1799 C1793 0.959 . S
H1800 C1793 0.961 . S
H1801 C1793 0.960 . S
H1802 C1794 0.930 . S
H1803 C1795 0.929 . S
H1804 C1812 0.929 . S
H1805 C1814 0.930 . S
H1806 C1816 0.930 . S
H1807 C1819 0.929 . S
H1808 C1822 0.930 . S
H1809 C1824 0.960 . S
H1810 C1824 0.960 . S
H1811 C1824 0.960 . S
C1812 H1804 0.929 . S
C1812 C1813 1.377 . S
C1812 C1814 1.384 . S
C1813 C1812 1.377 . S
C1813 C1819 1.390 . S
C1814 H1805 0.930 . S
C1814 C1812 1.384 . S
C1814 C1815 1.372 . S
C1815 C1814 1.372 . S
C1815 C1816 1.400 . S
C1815 C1820 1.490 . S
C1816 H1806 0.930 . S
C1816 C1815 1.400 . S
C1816 C1819 1.386 . S
H1817 C1833 0.930 . S
H1818 C1834 0.931 . S
C1819 H1807 0.929 . S
C1819 C1813 1.390 . S
C1819 C1816 1.386 . S
C1820 C1815 1.490 . S
C1820 C1822 1.395 . S
C1820 C1823 1.403 . S
H1821 C1827 0.930 . S
C1822 H1808 0.930 . S
C1822 C1820 1.395 . S
C1822 C1825 1.403 . S
C1823 C1820 1.403 . S
C1823 C1824 1.524 . S
C1823 C1827 1.400 . S
C1824 H1809 0.960 . S
C1824 H1810 0.960 . S
C1824 H1811 0.960 . S
C1824 C1823 1.524 . S
C1825 C1822 1.403 . S
C1825 C1826 1.392 . S
C1825 C1829 1.495 . S
C1826 C1825 1.392 . S
C1826 C1827 1.385 . S
C1826 C1828 1.478 . S
C1827 H1821 0.930 . S
C1827 C1823 1.400 . S
C1827 C1826 1.385 . S
C1828 C1826 1.478 . S
C1828 C1830 1.381 . S
C1828 C1834 1.383 . S
C1829 C1825 1.495 . S
C1829 H1835 0.959 . S
C1829 H1836 0.961 . S
C1829 H1837 0.960 . S
C1830 C1828 1.381 . S
C1830 C1831 1.394 . S
C1830 H1838 0.930 . S
C1831 C1830 1.394 . S
C1831 C1832 1.383 . S
C1831 H1839 0.929 . S
C1832 C1831 1.383 . S
C1832 C1833 1.377 . S
C1833 H1817 0.930 . S
C1833 C1832 1.377 . S
C1833 C1834 1.379 . S
C1834 H1818 0.931 . S
C1834 C1828 1.383 . S
C1834 C1833 1.379 . S
H1835 C1829 0.959 . S
H1836 C1829 0.961 . S
H1837 C1829 0.960 . S
H1838 C1830 0.930 . S
H1839 C1831 0.929 . S
H1840 C1848 0.929 . S
H1841 C1850 0.930 . S
H1842 C1852 0.930 . S
H1843 C1855 0.929 . S
H1844 C1858 0.930 . S
H1845 C1860 0.960 . S
H1846 C1860 0.960 . S
H1847 C1860 0.960 . S
C1848 H1840 0.929 . S
C1848 C1849 1.377 . S
C1848 C1850 1.384 . S
C1849 C1848 1.377 . S
C1849 C1855 1.390 . S
C1850 H1841 0.930 . S
C1850 C1848 1.384 . S
C1850 C1851 1.372 . S
C1851 C1850 1.372 . S
C1851 C1852 1.400 . S
C1851 C1856 1.490 . S
C1852 H1842 0.930 . S
C1852 C1851 1.400 . S
C1852 C1855 1.386 . S
H1853 C1869 0.930 . S
H1854 C1870 0.931 . S
C1855 H1843 0.929 . S
C1855 C1849 1.390 . S
C1855 C1852 1.386 . S
C1856 C1851 1.490 . S
C1856 C1858 1.395 . S
C1856 C1859 1.403 . S
H1857 C1863 0.930 . S
C1858 H1844 0.930 . S
C1858 C1856 1.395 . S
C1858 C1861 1.403 . S
C1859 C1856 1.403 . S
C1859 C1860 1.524 . S
C1859 C1863 1.400 . S
C1860 H1845 0.960 . S
C1860 H1846 0.960 . S
C1860 H1847 0.960 . S
C1860 C1859 1.524 . S
C1861 C1858 1.403 . S
C1861 C1862 1.392 . S
C1861 C1865 1.495 . S
C1862 C1861 1.392 . S
C1862 C1863 1.385 . S
C1862 C1864 1.478 . S
C1863 H1857 0.930 . S
C1863 C1859 1.400 . S
C1863 C1862 1.385 . S
C1864 C1862 1.478 . S
C1864 C1866 1.381 . S
C1864 C1870 1.383 . S
C1865 C1861 1.495 . S
C1865 H1871 0.959 . S
C1865 H1872 0.961 . S
C1865 H1873 0.960 . S
C1866 C1864 1.381 . S
C1866 C1867 1.394 . S
C1866 H1874 0.930 . S
C1867 C1866 1.394 . S
C1867 C1868 1.383 . S
C1867 H1875 0.929 . S
C1868 C1867 1.383 . S
C1868 C1869 1.377 . S
C1869 H1853 0.930 . S
C1869 C1868 1.377 . S
C1869 C1870 1.379 . S
C1870 H1854 0.931 . S
C1870 C1864 1.383 . S
C1870 C1869 1.379 . S
H1871 C1865 0.959 . S
H1872 C1865 0.961 . S
H1873 C1865 0.960 . S
H1874 C1866 0.930 . S
H1875 C1867 0.929 . S
H1876 C1884 0.929 . S
H1877 C1886 0.930 . S
H1878 C1888 0.930 . S
H1879 C1891 0.929 . S
H1880 C1894 0.930 . S
H1881 C1896 0.960 . S
H1882 C1896 0.960 . S
H1883 C1896 0.960 . S
C1884 H1876 0.929 . S
C1884 C1885 1.377 . S
C1884 C1886 1.384 . S
C1885 C1884 1.377 . S
C1885 C1891 1.390 . S
C1886 H1877 0.930 . S
C1886 C1884 1.384 . S
C1886 C1887 1.372 . S
C1887 C1886 1.372 . S
C1887 C1888 1.400 . S
C1887 C1892 1.490 . S
C1888 H1878 0.930 . S
C1888 C1887 1.400 . S
C1888 C1891 1.386 . S
H1889 C1905 0.930 . S
H1890 C1906 0.931 . S
C1891 H1879 0.929 . S
C1891 C1885 1.390 . S
C1891 C1888 1.386 . S
C1892 C1887 1.490 . S
C1892 C1894 1.395 . S
C1892 C1895 1.403 . S
H1893 C1899 0.930 . S
C1894 H1880 0.930 . S
C1894 C1892 1.395 . S
C1894 C1897 1.403 . S
C1895 C1892 1.403 . S
C1895 C1896 1.524 . S
C1895 C1899 1.400 . S
C1896 H1881 0.960 . S
C1896 H1882 0.960 . S
C1896 H1883 0.960 . S
C1896 C1895 1.524 . S
C1897 C1894 1.403 . S
C1897 C1898 1.392 . S
C1897 C1901 1.495 . S
C1898 C1897 1.392 . S
C1898 C1899 1.385 . S
C1898 C1900 1.478 . S
C1899 H1893 0.930 . S
C1899 C1895 1.400 . S
C1899 C1898 1.385 . S
C1900 C1898 1.478 . S
C1900 C1902 1.381 . S
C1900 C1906 1.383 . S
C1901 C1897 1.495 . S
C1901 H1907 0.959 . S
C1901 H1908 0.961 . S
C1901 H1909 0.960 . S
C1902 C1900 1.381 . S
C1902 C1903 1.394 . S
C1902 H1910 0.930 . S
C1903 C1902 1.394 . S
C1903 C1904 1.383 . S
C1903 H1911 0.929 . S
C1904 C1903 1.383 . S
C1904 C1905 1.377 . S
C1905 H1889 0.930 . S
C1905 C1904 1.377 . S
C1905 C1906 1.379 . S
C1906 H1890 0.931 . S
C1906 C1900 1.383 . S
C1906 C1905 1.379 . S
H1907 C1901 0.959 . S
H1908 C1901 0.961 . S
H1909 C1901 0.960 . S
H1910 C1902 0.930 . S
H1911 C1903 0.929 . S
H1912 C1920 0.929 . S
H1913 C1922 0.930 . S
H1914 C1924 0.930 . S
H1915 C1927 0.929 . S
H1916 C1930 0.930 . S
H1917 C1932 0.960 . S
H1918 C1932 0.960 . S
H1919 C1932 0.960 . S
C1920 H1912 0.929 . S
C1920 C1921 1.377 . S
C1920 C1922 1.384 . S
C1921 C1920 1.377 . S
C1921 C1927 1.390 . S
C1922 H1913 0.930 . S
C1922 C1920 1.384 . S
C1922 C1923 1.372 . S
C1923 C1922 1.372 . S
C1923 C1924 1.400 . S
C1923 C1928 1.490 . S
C1924 H1914 0.930 . S
C1924 C1923 1.400 . S
C1924 C1927 1.386 . S
H1925 C1941 0.930 . S
H1926 C1942 0.931 . S
C1927 H1915 0.929 . S
C1927 C1921 1.390 . S
C1927 C1924 1.386 . S
C1928 C1923 1.490 . S
C1928 C1930 1.395 . S
C1928 C1931 1.403 . S
H1929 C1935 0.930 . S
C1930 H1916 0.930 . S
C1930 C1928 1.395 . S
C1930 C1933 1.403 . S
C1931 C1928 1.403 . S
C1931 C1932 1.524 . S
C1931 C1935 1.400 . S
C1932 H1917 0.960 . S
C1932 H1918 0.960 . S
C1932 H1919 0.960 . S
C1932 C1931 1.524 . S
C1933 C1930 1.403 . S
C1933 C1934 1.392 . S
C1933 C1937 1.495 . S
C1934 C1933 1.392 . S
C1934 C1935 1.385 . S
C1934 C1936 1.478 . S
C1935 H1929 0.930 . S
C1935 C1931 1.400 . S
C1935 C1934 1.385 . S
C1936 C1934 1.478 . S
C1936 C1938 1.381 . S
C1936 C1942 1.383 . S
C1937 C1933 1.495 . S
C1937 H1943 0.959 . S
C1937 H1944 0.961 . S
C1937 H1945 0.960 . S
C1938 C1936 1.381 . S
C1938 C1939 1.394 . S
C1938 H1946 0.930 . S
C1939 C1938 1.394 . S
C1939 C1940 1.383 . S
C1939 H1947 0.929 . S
C1940 C1939 1.383 . S
C1940 C1941 1.377 . S
C1941 H1925 0.930 . S
C1941 C1940 1.377 . S
C1941 C1942 1.379 . S
C1942 H1926 0.931 . S
C1942 C1936 1.383 . S
C1942 C1941 1.379 . S
H1943 C1937 0.959 . S
H1944 C1937 0.961 . S
H1945 C1937 0.960 . S
H1946 C1938 0.930 . S
H1947 C1939 0.929 . S
H1948 C1956 0.929 . S
H1949 C1958 0.930 . S
H1950 C1960 0.930 . S
H1951 C1963 0.929 . S
H1952 C1966 0.930 . S
H1953 C1968 0.960 . S
H1954 C1968 0.960 . S
H1955 C1968 0.960 . S
C1956 H1948 0.929 . S
C1956 C1957 1.377 . S
C1956 C1958 1.384 . S
C1957 C1956 1.377 . S
C1957 C1963 1.390 . S
C1958 H1949 0.930 . S
C1958 C1956 1.384 . S
C1958 C1959 1.372 . S
C1959 C1958 1.372 . S
C1959 C1960 1.400 . S
C1959 C1964 1.490 . S
C1960 H1950 0.930 . S
C1960 C1959 1.400 . S
C1960 C1963 1.386 . S
H1961 C1977 0.930 . S
H1962 C1978 0.931 . S
C1963 H1951 0.929 . S
C1963 C1957 1.390 . S
C1963 C1960 1.386 . S
C1964 C1959 1.490 . S
C1964 C1966 1.395 . S
C1964 C1967 1.403 . S
H1965 C1971 0.930 . S
C1966 H1952 0.930 . S
C1966 C1964 1.395 . S
C1966 C1969 1.403 . S
C1967 C1964 1.403 . S
C1967 C1968 1.524 . S
C1967 C1971 1.400 . S
C1968 H1953 0.960 . S
C1968 H1954 0.960 . S
C1968 H1955 0.960 . S
C1968 C1967 1.524 . S
C1969 C1966 1.403 . S
C1969 C1970 1.392 . S
C1969 C1973 1.495 . S
C1970 C1969 1.392 . S
C1970 C1971 1.385 . S
C1970 C1972 1.478 . S
C1971 H1965 0.930 . S
C1971 C1967 1.400 . S
C1971 C1970 1.385 . S
C1972 C1970 1.478 . S
C1972 C1974 1.381 . S
C1972 C1978 1.383 . S
C1973 C1969 1.495 . S
C1973 H1979 0.959 . S
C1973 H1980 0.961 . S
C1973 H1981 0.960 . S
C1974 C1972 1.381 . S
C1974 C1975 1.394 . S
C1974 H1982 0.930 . S
C1975 C1974 1.394 . S
C1975 C1976 1.383 . S
C1975 H1983 0.929 . S
C1976 C1975 1.383 . S
C1976 C1977 1.377 . S
C1977 H1961 0.930 . S
C1977 C1976 1.377 . S
C1977 C1978 1.379 . S
C1978 H1962 0.931 . S
C1978 C1972 1.383 . S
C1978 C1977 1.379 . S
H1979 C1973 0.959 . S
H1980 C1973 0.961 . S
H1981 C1973 0.960 . S
H1982 C1974 0.930 . S
H1983 C1975 0.929 . S
H1984 C1992 0.929 . S
H1985 C1994 0.930 . S
H1986 C1996 0.930 . S
H1987 C1999 0.929 . S
H1988 C2002 0.930 . S
H1989 C2004 0.960 . S
H1990 C2004 0.960 . S
H1991 C2004 0.960 . S
C1992 H1984 0.929 . S
C1992 C1993 1.377 . S
C1992 C1994 1.384 . S
C1993 C1992 1.377 . S
C1993 C1999 1.390 . S
C1994 H1985 0.930 . S
C1994 C1992 1.384 . S
C1994 C1995 1.372 . S
C1995 C1994 1.372 . S
C1995 C1996 1.400 . S
C1995 C2000 1.490 . S
C1996 H1986 0.930 . S
C1996 C1995 1.400 . S
C1996 C1999 1.386 . S
H1997 C2013 0.930 . S
H1998 C2014 0.931 . S
C1999 H1987 0.929 . S
C1999 C1993 1.390 . S
C1999 C1996 1.386 . S
C2000 C1995 1.490 . S
C2000 C2002 1.395 . S
C2000 C2003 1.403 . S
H2001 C2007 0.930 . S
C2002 H1988 0.930 . S
C2002 C2000 1.395 . S
C2002 C2005 1.403 . S
C2003 C2000 1.403 . S
C2003 C2004 1.524 . S
C2003 C2007 1.400 . S
C2004 H1989 0.960 . S
C2004 H1990 0.960 . S
C2004 H1991 0.960 . S
C2004 C2003 1.524 . S
C2005 C2002 1.403 . S
C2005 C2006 1.392 . S
C2005 C2009 1.495 . S
C2006 C2005 1.392 . S
C2006 C2007 1.385 . S
C2006 C2008 1.478 . S
C2007 H2001 0.930 . S
C2007 C2003 1.400 . S
C2007 C2006 1.385 . S
C2008 C2006 1.478 . S
C2008 C2010 1.381 . S
C2008 C2014 1.383 . S
C2009 C2005 1.495 . S
C2009 H2015 0.959 . S
C2009 H2016 0.961 . S
C2009 H2017 0.960 . S
C2010 C2008 1.381 . S
C2010 C2011 1.394 . S
C2010 H2018 0.930 . S
C2011 C2010 1.394 . S
C2011 C2012 1.383 . S
C2011 H2019 0.929 . S
C2012 C2011 1.383 . S
C2012 C2013 1.377 . S
C2013 H1997 0.930 . S
C2013 C2012 1.377 . S
C2013 C2014 1.379 . S
C2014 H1998 0.931 . S
C2014 C2008 1.383 . S
C2014 C2013 1.379 . S
H2015 C2009 0.959 . S
H2016 C2009 0.961 . S
H2017 C2009 0.960 . S
H2018 C2010 0.930 . S
H2019 C2011 0.929 . S
H2020 C2028 0.929 . S
H2021 C2030 0.930 . S
H2022 C2032 0.930 . S
H2023 C2035 0.929 . S
H2024 C2038 0.930 . S
H2025 C2040 0.960 . S
H2026 C2040 0.960 . S
H2027 C2040 0.960 . S
C2028 H2020 0.929 . S
C2028 C2029 1.377 . S
C2028 C2030 1.384 . S
C2029 C2028 1.377 . S
C2029 C2035 1.390 . S
C2030 H2021 0.930 . S
C2030 C2028 1.384 . S
C2030 C2031 1.372 . S
C2031 C2030 1.372 . S
C2031 C2032 1.400 . S
C2031 C2036 1.490 . S
C2032 H2022 0.930 . S
C2032 C2031 1.400 . S
C2032 C2035 1.386 . S
H2033 C2049 0.930 . S
H2034 C2050 0.931 . S
C2035 H2023 0.929 . S
C2035 C2029 1.390 . S
C2035 C2032 1.386 . S
C2036 C2031 1.490 . S
C2036 C2038 1.395 . S
C2036 C2039 1.403 . S
H2037 C2043 0.930 . S
C2038 H2024 0.930 . S
C2038 C2036 1.395 . S
C2038 C2041 1.403 . S
C2039 C2036 1.403 . S
C2039 C2040 1.524 . S
C2039 C2043 1.400 . S
C2040 H2025 0.960 . S
C2040 H2026 0.960 . S
C2040 H2027 0.960 . S
C2040 C2039 1.524 . S
C2041 C2038 1.403 . S
C2041 C2042 1.392 . S
C2041 C2045 1.495 . S
C2042 C2041 1.392 . S
C2042 C2043 1.385 . S
C2042 C2044 1.478 . S
C2043 H2037 0.930 . S
C2043 C2039 1.400 . S
C2043 C2042 1.385 . S
C2044 C2042 1.478 . S
C2044 C2046 1.381 . S
C2044 C2050 1.383 . S
C2045 C2041 1.495 . S
C2045 H2051 0.959 . S
C2045 H2052 0.961 . S
C2045 H2053 0.960 . S
C2046 C2044 1.381 . S
C2046 C2047 1.394 . S
C2046 H2054 0.930 . S
C2047 C2046 1.394 . S
C2047 C2048 1.383 . S
C2047 H2055 0.929 . S
C2048 C2047 1.383 . S
C2048 C2049 1.377 . S
C2049 H2033 0.930 . S
C2049 C2048 1.377 . S
C2049 C2050 1.379 . S
C2050 H2034 0.931 . S
C2050 C2044 1.383 . S
C2050 C2049 1.379 . S
H2051 C2045 0.959 . S
H2052 C2045 0.961 . S
H2053 C2045 0.960 . S
H2054 C2046 0.930 . S
H2055 C2047 0.929 . S
H2056 C2064 0.929 . S
H2057 C2066 0.930 . S
H2058 C2068 0.930 . S
H2059 C2071 0.929 . S
H2060 C2074 0.930 . S
H2061 C2076 0.960 . S
H2062 C2076 0.960 . S
H2063 C2076 0.960 . S
C2064 H2056 0.929 . S
C2064 C2065 1.377 . S
C2064 C2066 1.384 . S
C2065 C2064 1.377 . S
C2065 C2071 1.390 . S
C2066 H2057 0.930 . S
C2066 C2064 1.384 . S
C2066 C2067 1.372 . S
C2067 C2066 1.372 . S
C2067 C2068 1.400 . S
C2067 C2072 1.490 . S
C2068 H2058 0.930 . S
C2068 C2067 1.400 . S
C2068 C2071 1.386 . S
H2069 C2085 0.930 . S
H2070 C2086 0.931 . S
C2071 H2059 0.929 . S
C2071 C2065 1.390 . S
C2071 C2068 1.386 . S
C2072 C2067 1.490 . S
C2072 C2074 1.395 . S
C2072 C2075 1.403 . S
H2073 C2079 0.930 . S
C2074 H2060 0.930 . S
C2074 C2072 1.395 . S
C2074 C2077 1.403 . S
C2075 C2072 1.403 . S
C2075 C2076 1.524 . S
C2075 C2079 1.400 . S
C2076 H2061 0.960 . S
C2076 H2062 0.960 . S
C2076 H2063 0.960 . S
C2076 C2075 1.524 . S
C2077 C2074 1.403 . S
C2077 C2078 1.392 . S
C2077 C2081 1.495 . S
C2078 C2077 1.392 . S
C2078 C2079 1.385 . S
C2078 C2080 1.478 . S
C2079 H2073 0.930 . S
C2079 C2075 1.400 . S
C2079 C2078 1.385 . S
C2080 C2078 1.478 . S
C2080 C2082 1.381 . S
C2080 C2086 1.383 . S
C2081 C2077 1.495 . S
C2081 H2087 0.959 . S
C2081 H2088 0.961 . S
C2081 H2089 0.960 . S
C2082 C2080 1.381 . S
C2082 C2083 1.394 . S
C2082 H2090 0.930 . S
C2083 C2082 1.394 . S
C2083 C2084 1.383 . S
C2083 H2091 0.929 . S
C2084 C2083 1.383 . S
C2084 C2085 1.377 . S
C2085 H2069 0.930 . S
C2085 C2084 1.377 . S
C2085 C2086 1.379 . S
C2086 H2070 0.931 . S
C2086 C2080 1.383 . S
C2086 C2085 1.379 . S
H2087 C2081 0.959 . S
H2088 C2081 0.961 . S
H2089 C2081 0.960 . S
H2090 C2082 0.930 . S
H2091 C2083 0.929 . S
H2092 C2100 0.929 . S
H2093 C2102 0.930 . S
H2094 C2104 0.930 . S
H2095 C2107 0.929 . S
H2096 C2110 0.930 . S
H2097 C2112 0.960 . S
H2098 C2112 0.960 . S
H2099 C2112 0.960 . S
C2100 H2092 0.929 . S
C2100 C2101 1.377 . S
C2100 C2102 1.384 . S
C2101 C2100 1.377 . S
C2101 C2107 1.390 . S
C2102 H2093 0.930 . S
C2102 C2100 1.384 . S
C2102 C2103 1.372 . S
C2103 C2102 1.372 . S
C2103 C2104 1.400 . S
C2103 C2108 1.490 . S
C2104 H2094 0.930 . S
C2104 C2103 1.400 . S
C2104 C2107 1.386 . S
H2105 C2121 0.930 . S
H2106 C2122 0.931 . S
C2107 H2095 0.929 . S
C2107 C2101 1.390 . S
C2107 C2104 1.386 . S
C2108 C2103 1.490 . S
C2108 C2110 1.395 . S
C2108 C2111 1.403 . S
H2109 C2115 0.930 . S
C2110 H2096 0.930 . S
C2110 C2108 1.395 . S
C2110 C2113 1.403 . S
C2111 C2108 1.403 . S
C2111 C2112 1.524 . S
C2111 C2115 1.400 . S
C2112 H2097 0.960 . S
C2112 H2098 0.960 . S
C2112 H2099 0.960 . S
C2112 C2111 1.524 . S
C2113 C2110 1.403 . S
C2113 C2114 1.392 . S
C2113 C2117 1.495 . S
C2114 C2113 1.392 . S
C2114 C2115 1.385 . S
C2114 C2116 1.478 . S
C2115 H2109 0.930 . S
C2115 C2111 1.400 . S
C2115 C2114 1.385 . S
C2116 C2114 1.478 . S
C2116 C2118 1.381 . S
C2116 C2122 1.383 . S
C2117 C2113 1.495 . S
C2117 H2123 0.959 . S
C2117 H2124 0.961 . S
C2117 H2125 0.960 . S
C2118 C2116 1.381 . S
C2118 C2119 1.394 . S
C2118 H2126 0.930 . S
C2119 C2118 1.394 . S
C2119 C2120 1.383 . S
C2119 H2127 0.929 . S
C2120 C2119 1.383 . S
C2120 C2121 1.377 . S
C2121 H2105 0.930 . S
C2121 C2120 1.377 . S
C2121 C2122 1.379 . S
C2122 H2106 0.931 . S
C2122 C2116 1.383 . S
C2122 C2121 1.379 . S
H2123 C2117 0.959 . S
H2124 C2117 0.961 . S
H2125 C2117 0.960 . S
H2126 C2118 0.930 . S
H2127 C2119 0.929 . S
H2128 C2136 0.929 . S
H2129 C2138 0.930 . S
H2130 C2140 0.930 1_565 S
H2131 C2143 0.932 1_565 S
H2132 C2146 0.930 . S
H2133 C2148 0.960 . S
H2134 C2148 0.960 . S
H2135 C2148 0.960 . S
C2136 H2128 0.929 . S
C2136 C2137 1.377 . S
C2136 C2138 1.384 . S
C2137 C2136 1.377 . S
C2137 C2143 1.387 . S
C2138 H2129 0.930 . S
C2138 C2136 1.384 . S
C2138 C2139 1.372 . S
C2139 C2138 1.372 . S
C2139 C2140 1.400 . S
C2139 C2144 1.490 . S
C2140 H2130 0.930 1_545 S
C2140 C2139 1.400 . S
C2140 C2143 1.385 . S
H2141 C2157 0.930 . S
H2142 C2158 0.895 1_565 S
C2143 H2131 0.932 1_545 S
C2143 C2137 1.387 . S
C2143 C2140 1.385 . S
C2144 C2139 1.490 . S
C2144 C2146 1.395 1_545 S
C2144 C2147 1.403 . S
H2145 C2151 0.930 . S
C2146 H2132 0.930 . S
C2146 C2144 1.395 1_565 S
C2146 C2149 1.403 . S
C2147 C2144 1.403 . S
C2147 C2148 1.524 . S
C2147 C2151 1.400 . S
C2148 H2133 0.960 . S
C2148 H2134 0.960 . S
C2148 H2135 0.960 . S
C2148 C2147 1.524 . S
C2149 C2146 1.403 . S
C2149 C2150 1.392 1_565 S
C2149 C2153 1.495 . S
C2150 C2149 1.392 1_545 S
C2150 C2151 1.385 . S
C2150 C2152 1.478 . S
C2151 H2145 0.930 . S
C2151 C2147 1.400 . S
C2151 C2150 1.385 . S
C2152 C2150 1.478 . S
C2152 C2154 1.381 . S
C2152 C2158 1.383 . S
C2153 C2149 1.495 . S
C2153 H2159 0.959 . S
C2153 H2160 0.961 . S
C2153 H2161 0.960 . S
C2154 C2152 1.381 . S
C2154 C2155 1.394 . S
C2154 H2162 0.930 . S
C2155 C2154 1.394 . S
C2155 C2156 1.383 . S
C2155 H2163 0.929 . S
C2156 C2155 1.383 . S
C2156 C2157 1.377 . S
C2157 H2141 0.930 . S
C2157 C2156 1.377 . S
C2157 C2158 1.379 . S
C2158 H2142 0.895 1_545 S
C2158 C2152 1.383 . S
C2158 C2157 1.379 . S
H2159 C2153 0.959 . S
H2160 C2153 0.961 . S
H2161 C2153 0.960 . S
H2162 C2154 0.930 . S
H2163 C2155 0.929 . S
H2164 C2172 0.929 . S
H2165 C2174 0.930 . S
H2166 C2176 0.930 . S
H2167 C2179 0.929 . S
H2168 C2182 0.930 . S
H2169 C2184 0.960 . S
H2170 C2184 0.960 . S
H2171 C2184 0.960 . S
C2172 H2164 0.929 . S
C2172 C2173 1.377 . S
C2172 C2174 1.384 . S
C2173 C2172 1.377 . S
C2173 C2179 1.390 . S
C2174 H2165 0.930 . S
C2174 C2172 1.384 . S
C2174 C2175 1.372 . S
C2175 C2174 1.372 . S
C2175 C2176 1.400 . S
C2175 C2180 1.490 . S
C2176 H2166 0.930 . S
C2176 C2175 1.400 . S
C2176 C2179 1.386 . S
H2177 C2193 0.930 . S
H2178 C2194 0.931 . S
C2179 H2167 0.929 . S
C2179 C2173 1.390 . S
C2179 C2176 1.386 . S
C2180 C2175 1.490 . S
C2180 C2182 1.395 . S
C2180 C2183 1.403 . S
H2181 C2187 0.930 . S
C2182 H2168 0.930 . S
C2182 C2180 1.395 . S
C2182 C2185 1.403 . S
C2183 C2180 1.403 . S
C2183 C2184 1.524 . S
C2183 C2187 1.400 . S
C2184 H2169 0.960 . S
C2184 H2170 0.960 . S
C2184 H2171 0.960 . S
C2184 C2183 1.524 . S
C2185 C2182 1.403 . S
C2185 C2186 1.392 . S
C2185 C2189 1.495 . S
C2186 C2185 1.392 . S
C2186 C2187 1.385 . S
C2186 C2188 1.478 . S
C2187 H2181 0.930 . S
C2187 C2183 1.400 . S
C2187 C2186 1.385 . S
C2188 C2186 1.478 . S
C2188 C2190 1.381 . S
C2188 C2194 1.383 . S
C2189 C2185 1.495 . S
C2189 H2195 0.959 . S
C2189 H2196 0.961 . S
C2189 H2197 0.960 . S
C2190 C2188 1.381 . S
C2190 C2191 1.394 . S
C2190 H2198 0.930 . S
C2191 C2190 1.394 . S
C2191 C2192 1.383 . S
C2191 H2199 0.929 . S
C2192 C2191 1.383 . S
C2192 C2193 1.377 . S
C2193 H2177 0.930 . S
C2193 C2192 1.377 . S
C2193 C2194 1.379 . S
C2194 H2178 0.931 . S
C2194 C2188 1.383 . S
C2194 C2193 1.379 . S
H2195 C2189 0.959 . S
H2196 C2189 0.961 . S
H2197 C2189 0.960 . S
H2198 C2190 0.930 . S
H2199 C2191 0.929 . S
H2200 C2208 0.929 . S
H2201 C2210 0.930 . S
H2202 C2212 0.919 1_565 S
H2203 C2215 0.929 . S
H2204 C2218 0.930 . S
H2205 C2220 0.960 . S
H2206 C2220 0.960 . S
H2207 C2220 0.960 . S
C2208 H2200 0.929 . S
C2208 C2209 1.377 . S
C2208 C2210 1.384 . S
C2209 C2208 1.377 . S
C2209 C2215 1.390 1_545 S
C2210 H2201 0.930 . S
C2210 C2208 1.384 . S
C2210 C2211 1.372 . S
C2211 C2210 1.372 . S
C2211 C2212 1.409 . S
C2211 C2216 1.490 . S
C2212 H2202 0.919 1_545 S
C2212 C2211 1.409 . S
C2212 C2215 1.388 1_545 S
H2213 C2229 0.931 1_565 S
H2214 C2230 0.931 1_565 S
C2215 H2203 0.929 . S
C2215 C2209 1.390 1_565 S
C2215 C2212 1.388 1_565 S
C2216 C2211 1.490 . S
C2216 C2218 1.395 . S
C2216 C2219 1.403 . S
H2217 C2223 0.930 . S
C2218 H2204 0.930 . S
C2218 C2216 1.395 . S
C2218 C2221 1.403 . S
C2219 C2216 1.403 . S
C2219 C2220 1.524 . S
C2219 C2223 1.400 . S
C2220 H2205 0.960 . S
C2220 H2206 0.960 . S
C2220 H2207 0.960 . S
C2220 C2219 1.524 . S
C2221 C2218 1.403 . S
C2221 C2222 1.392 . S
C2221 C2225 1.495 . S
C2222 C2221 1.392 . S
C2222 C2223 1.385 . S
C2222 C2224 1.478 . S
C2223 H2217 0.930 . S
C2223 C2219 1.400 . S
C2223 C2222 1.385 . S
C2224 C2222 1.478 . S
C2224 C2226 1.381 . S
C2224 C2230 1.383 . S
C2225 C2221 1.495 . S
C2225 H2231 0.959 . S
C2225 H2232 0.961 . S
C2225 H2233 0.960 . S
C2226 C2224 1.381 . S
C2226 C2227 1.394 . S
C2226 H2234 0.930 . S
C2227 C2226 1.394 . S
C2227 C2228 1.383 . S
C2227 H2235 0.929 . S
C2228 C2227 1.383 . S
C2228 C2229 1.377 . S
C2229 H2213 0.931 1_545 S
C2229 C2228 1.377 . S
C2229 C2230 1.379 . S
C2230 H2214 0.931 1_545 S
C2230 C2224 1.383 . S
C2230 C2229 1.379 . S
H2231 C2225 0.959 . S
H2232 C2225 0.961 . S
H2233 C2225 0.960 . S
H2234 C2226 0.930 . S
H2235 C2227 0.929 . S
H2236 C2244 0.929 . S
H2237 C2246 0.930 . S
H2238 C2248 0.930 . S
H2239 C2251 0.929 . S
H2240 C2254 0.930 . S
H2241 C2256 0.960 . S
H2242 C2256 0.960 . S
H2243 C2256 0.960 . S
C2244 H2236 0.929 . S
C2244 C2245 1.377 . S
C2244 C2246 1.384 . S
C2245 C2244 1.377 . S
C2245 C2251 1.390 . S
C2246 H2237 0.930 . S
C2246 C2244 1.384 . S
C2246 C2247 1.372 . S
C2247 C2246 1.372 . S
C2247 C2248 1.400 . S
C2247 C2252 1.490 . S
C2248 H2238 0.930 . S
C2248 C2247 1.400 . S
C2248 C2251 1.386 . S
H2249 C2265 0.930 . S
H2250 C2266 0.931 . S
C2251 H2239 0.929 . S
C2251 C2245 1.390 . S
C2251 C2248 1.386 . S
C2252 C2247 1.490 . S
C2252 C2254 1.395 . S
C2252 C2255 1.403 . S
H2253 C2259 0.930 . S
C2254 H2240 0.930 . S
C2254 C2252 1.395 . S
C2254 C2257 1.403 . S
C2255 C2252 1.403 . S
C2255 C2256 1.524 . S
C2255 C2259 1.400 . S
C2256 H2241 0.960 . S
C2256 H2242 0.960 . S
C2256 H2243 0.960 . S
C2256 C2255 1.524 . S
C2257 C2254 1.403 . S
C2257 C2258 1.392 . S
C2257 C2261 1.495 . S
C2258 C2257 1.392 . S
C2258 C2259 1.385 . S
C2258 C2260 1.478 . S
C2259 H2253 0.930 . S
C2259 C2255 1.400 . S
C2259 C2258 1.385 . S
C2260 C2258 1.478 . S
C2260 C2262 1.381 . S
C2260 C2266 1.383 . S
C2261 C2257 1.495 . S
C2261 H2267 0.959 . S
C2261 H2268 0.961 . S
C2261 H2269 0.960 . S
C2262 C2260 1.381 . S
C2262 C2263 1.394 . S
C2262 H2270 0.930 . S
C2263 C2262 1.394 . S
C2263 C2264 1.383 . S
C2263 H2271 0.929 . S
C2264 C2263 1.383 . S
C2264 C2265 1.377 . S
C2265 H2249 0.930 . S
C2265 C2264 1.377 . S
C2265 C2266 1.379 . S
C2266 H2250 0.931 . S
C2266 C2260 1.383 . S
C2266 C2265 1.379 . S
H2267 C2261 0.959 . S
H2268 C2261 0.961 . S
H2269 C2261 0.960 . S
H2270 C2262 0.930 . S
H2271 C2263 0.929 . S
H2272 C2280 0.929 . S
H2273 C2282 0.930 . S
H2274 C2284 0.930 . S
H2275 C2287 0.929 . S
H2276 C2290 0.930 . S
H2277 C2292 0.960 . S
H2278 C2292 0.960 . S
H2279 C2292 0.960 . S
C2280 H2272 0.929 . S
C2280 C2281 1.377 . S
C2280 C2282 1.384 . S
C2281 C2280 1.377 . S
C2281 C2287 1.390 1_565 S
C2282 H2273 0.930 . S
C2282 C2280 1.384 . S
C2282 C2283 1.372 1_565 S
C2283 C2282 1.372 1_545 S
C2283 C2284 1.400 . S
C2283 C2288 1.490 . S
C2284 H2274 0.930 . S
C2284 C2283 1.400 . S
C2284 C2287 1.386 . S
H2285 C2301 0.930 . S
H2286 C2302 0.931 . S
C2287 H2275 0.929 . S
C2287 C2281 1.390 1_545 S
C2287 C2284 1.386 . S
C2288 C2283 1.490 . S
C2288 C2290 1.395 1_545 S
C2288 C2291 1.403 . S
H2289 C2295 0.930 . S
C2290 H2276 0.930 . S
C2290 C2288 1.395 1_565 S
C2290 C2293 1.403 . S
C2291 C2288 1.403 . S
C2291 C2292 1.524 . S
C2291 C2295 1.400 . S
C2292 H2277 0.960 . S
C2292 H2278 0.960 . S
C2292 H2279 0.960 . S
C2292 C2291 1.524 . S
C2293 C2290 1.403 . S
C2293 C2294 1.392 1_565 S
C2293 C2297 1.495 . S
C2294 C2293 1.392 1_545 S
C2294 C2295 1.385 . S
C2294 C2296 1.478 . S
C2295 H2289 0.930 . S
C2295 C2291 1.400 . S
C2295 C2294 1.385 . S
C2296 C2294 1.478 . S
C2296 C2298 1.381 1_545 S
C2296 C2302 1.383 . S
C2297 C2293 1.495 . S
C2297 H2303 0.959 . S
C2297 H2304 0.961 . S
C2297 H2305 0.960 . S
C2298 C2296 1.381 1_565 S
C2298 C2299 1.394 1_565 S
C2298 H2306 0.930 . S
C2299 C2298 1.394 1_545 S
C2299 C2300 1.383 . S
C2299 H2307 0.929 1_545 S
C2300 C2299 1.383 . S
C2300 C2301 1.377 . S
C2301 H2285 0.930 . S
C2301 C2300 1.377 . S
C2301 C2302 1.379 . S
C2302 H2286 0.931 . S
C2302 C2296 1.383 . S
C2302 C2301 1.379 . S
H2303 C2297 0.959 . S
H2304 C2297 0.961 . S
H2305 C2297 0.960 . S
H2306 C2298 0.930 . S
H2307 C2299 0.929 1_565 S
H2308 C2316 0.929 . S
H2309 C2318 0.930 . S
H2310 C2320 0.930 . S
H2311 C2323 0.929 . S
H2312 C2326 0.930 . S
H2313 C2328 0.960 . S
H2314 C2328 0.960 . S
H2315 C2328 0.960 . S
C2316 H2308 0.929 . S
C2316 C2317 1.377 . S
C2316 C2318 1.384 . S
C2317 C2316 1.377 . S
C2317 C2323 1.390 . S
C2318 H2309 0.930 . S
C2318 C2316 1.384 . S
C2318 C2319 1.372 . S
C2319 C2318 1.372 . S
C2319 C2320 1.400 . S
C2319 C2324 1.490 . S
C2320 H2310 0.930 . S
C2320 C2319 1.400 . S
C2320 C2323 1.386 . S
H2321 C2337 0.930 . S
H2322 C2338 0.931 . S
C2323 H2311 0.929 . S
C2323 C2317 1.390 . S
C2323 C2320 1.386 . S
C2324 C2319 1.490 . S
C2324 C2326 1.395 . S
C2324 C2327 1.403 . S
H2325 C2331 0.930 . S
C2326 H2312 0.930 . S
C2326 C2324 1.395 . S
C2326 C2329 1.403 . S
C2327 C2324 1.403 . S
C2327 C2328 1.524 . S
C2327 C2331 1.400 . S
C2328 H2313 0.960 . S
C2328 H2314 0.960 . S
C2328 H2315 0.960 . S
C2328 C2327 1.524 . S
C2329 C2326 1.403 . S
C2329 C2330 1.392 . S
C2329 C2333 1.495 . S
C2330 C2329 1.392 . S
C2330 C2331 1.385 . S
C2330 C2332 1.478 . S
C2331 H2325 0.930 . S
C2331 C2327 1.400 . S
C2331 C2330 1.385 . S
C2332 C2330 1.478 . S
C2332 C2334 1.381 . S
C2332 C2338 1.383 . S
C2333 C2329 1.495 . S
C2333 H2339 0.959 . S
C2333 H2340 0.961 . S
C2333 H2341 0.960 . S
C2334 C2332 1.381 . S
C2334 C2335 1.394 . S
C2334 H2342 0.930 . S
C2335 C2334 1.394 . S
C2335 C2336 1.383 . S
C2335 H2343 0.929 . S
C2336 C2335 1.383 . S
C2336 C2337 1.377 . S
C2337 H2321 0.930 . S
C2337 C2336 1.377 . S
C2337 C2338 1.379 . S
C2338 H2322 0.931 . S
C2338 C2332 1.383 . S
C2338 C2337 1.379 . S
H2339 C2333 0.959 . S
H2340 C2333 0.961 . S
H2341 C2333 0.960 . S
H2342 C2334 0.930 . S
H2343 C2335 0.929 . S
H2344 C2352 0.929 . S
H2345 C2354 0.930 . S
H2346 C2356 0.930 . S
H2347 C2359 0.929 . S
H2348 C2362 0.930 . S
H2349 C2364 0.960 . S
H2350 C2364 0.960 . S
H2351 C2364 0.960 . S
C2352 H2344 0.929 . S
C2352 C2353 1.377 . S
C2352 C2354 1.384 . S
C2353 C2352 1.377 . S
C2353 C2359 1.390 1_545 S
C2354 H2345 0.930 . S
C2354 C2352 1.384 . S
C2354 C2355 1.372 . S
C2355 C2354 1.372 . S
C2355 C2356 1.400 1_545 S
C2355 C2360 1.490 . S
C2356 H2346 0.930 . S
C2356 C2355 1.400 1_565 S
C2356 C2359 1.386 . S
H2357 C2373 0.930 . S
H2358 C2374 0.931 . S
C2359 H2347 0.929 . S
C2359 C2353 1.390 1_565 S
C2359 C2356 1.386 . S
C2360 C2355 1.490 . S
C2360 C2362 1.395 . S
C2360 C2363 1.403 1_545 S
H2361 C2367 0.930 . S
C2362 H2348 0.930 . S
C2362 C2360 1.395 . S
C2362 C2365 1.403 . S
C2363 C2360 1.403 1_565 S
C2363 C2364 1.524 . S
C2363 C2367 1.400 . S
C2364 H2349 0.960 . S
C2364 H2350 0.960 . S
C2364 H2351 0.960 . S
C2364 C2363 1.524 . S
C2365 C2362 1.403 . S
C2365 C2366 1.386 1_545 S
C2365 C2369 1.495 . S
C2366 C2365 1.386 1_565 S
C2366 C2367 1.391 . S
C2366 C2368 1.479 . S
C2367 H2361 0.930 . S
C2367 C2363 1.400 . S
C2367 C2366 1.391 . S
C2368 C2366 1.479 . S
C2368 C2370 1.381 1_565 S
C2368 C2374 1.383 . S
C2369 C2365 1.495 . S
C2369 H2375 0.959 . S
C2369 H2376 0.961 . S
C2369 H2377 0.960 . S
C2370 C2368 1.381 1_545 S
C2370 C2371 1.394 . S
C2370 H2378 0.930 . S
C2371 C2370 1.394 . S
C2371 C2372 1.383 1_545 S
C2371 H2379 0.929 . S
C2372 C2371 1.383 1_565 S
C2372 C2373 1.377 . S
C2373 H2357 0.930 . S
C2373 C2372 1.377 . S
C2373 C2374 1.379 . S
C2374 H2358 0.931 . S
C2374 C2368 1.383 . S
C2374 C2373 1.379 . S
H2375 C2369 0.959 . S
H2376 C2369 0.961 . S
H2377 C2369 0.960 . S
H2378 C2370 0.930 . S
H2379 C2371 0.929 . S
H2380 C2388 0.929 . S
H2381 C2390 0.930 . S
H2382 C2392 0.930 . S
H2383 C2395 0.929 . S
H2384 C2398 0.930 . S
H2385 C2400 0.960 . S
H2386 C2400 0.960 . S
H2387 C2400 0.960 . S
C2388 H2380 0.929 . S
C2388 C2389 1.377 . S
C2388 C2390 1.384 . S
C2389 C2388 1.377 . S
C2389 C2395 1.390 . S
C2390 H2381 0.930 . S
C2390 C2388 1.384 . S
C2390 C2391 1.372 . S
C2391 C2390 1.372 . S
C2391 C2392 1.400 . S
C2391 C2396 1.490 . S
C2392 H2382 0.930 . S
C2392 C2391 1.400 . S
C2392 C2395 1.386 . S
H2393 C2409 0.930 . S
H2394 C2410 0.931 . S
C2395 H2383 0.929 . S
C2395 C2389 1.390 . S
C2395 C2392 1.386 . S
C2396 C2391 1.490 . S
C2396 C2398 1.395 . S
C2396 C2399 1.403 . S
H2397 C2403 0.930 . S
C2398 H2384 0.930 . S
C2398 C2396 1.395 . S
C2398 C2401 1.403 . S
C2399 C2396 1.403 . S
C2399 C2400 1.524 . S
C2399 C2403 1.400 . S
C2400 H2385 0.960 . S
C2400 H2386 0.960 . S
C2400 H2387 0.960 . S
C2400 C2399 1.524 . S
C2401 C2398 1.403 . S
C2401 C2402 1.392 . S
C2401 C2405 1.495 . S
C2402 C2401 1.392 . S
C2402 C2403 1.385 . S
C2402 C2404 1.478 . S
C2403 H2397 0.930 . S
C2403 C2399 1.400 . S
C2403 C2402 1.385 . S
C2404 C2402 1.478 . S
C2404 C2406 1.381 . S
C2404 C2410 1.383 . S
C2405 C2401 1.495 . S
C2405 H2411 0.959 . S
C2405 H2412 0.961 . S
C2405 H2413 0.960 . S
C2406 C2404 1.381 . S
C2406 C2407 1.394 . S
C2406 H2414 0.930 . S
C2407 C2406 1.394 . S
C2407 C2408 1.383 . S
C2407 H2415 0.929 . S
C2408 C2407 1.383 . S
C2408 C2409 1.377 . S
C2409 H2393 0.930 . S
C2409 C2408 1.377 . S
C2409 C2410 1.379 . S
C2410 H2394 0.931 . S
C2410 C2404 1.383 . S
C2410 C2409 1.379 . S
H2411 C2405 0.959 . S
H2412 C2405 0.961 . S
H2413 C2405 0.960 . S
H2414 C2406 0.930 . S
H2415 C2407 0.929 . S
H2416 C2424 0.929 . S
H2417 C2426 0.930 . S
H2418 C2428 0.930 . S
H2419 C2431 0.929 . S
H2420 C2434 0.930 1_554 S
H2421 C2436 0.960 . S
H2422 C2436 0.960 1_554 S
H2423 C2436 0.960 . S
C2424 H2416 0.929 . S
C2424 C2425 1.377 . S
C2424 C2426 1.384 . S
C2425 C2424 1.377 . S
C2425 C2431 1.390 1_554 S
C2426 H2417 0.930 . S
C2426 C2424 1.384 . S
C2426 C2427 1.372 . S
C2427 C2426 1.372 . S
C2427 C2428 1.400 1_554 S
C2427 C2432 1.490 1_554 S
C2428 H2418 0.930 . S
C2428 C2427 1.400 1_556 S
C2428 C2431 1.386 . S
H2429 C2445 0.930 . S
H2430 C2446 0.931 . S
C2431 H2419 0.929 . S
C2431 C2425 1.390 1_556 S
C2431 C2428 1.386 . S
C2432 C2427 1.490 1_556 S
C2432 C2434 1.395 . S
C2432 C2435 1.403 . S
H2433 C2439 0.930 . S
C2434 H2420 0.930 1_556 S
C2434 C2432 1.395 . S
C2434 C2437 1.403 . S
C2435 C2432 1.403 . S
C2435 C2436 1.524 . S
C2435 C2439 1.400 . S
C2436 H2421 0.960 . S
C2436 H2422 0.960 1_556 S
C2436 H2423 0.960 . S
C2436 C2435 1.524 . S
C2437 C2434 1.403 . S
C2437 C2438 1.392 . S
C2437 C2441 1.495 . S
C2438 C2437 1.392 . S
C2438 C2439 1.385 . S
C2438 C2440 1.478 . S
C2439 H2433 0.930 . S
C2439 C2435 1.400 . S
C2439 C2438 1.385 . S
C2440 C2438 1.478 . S
C2440 C2442 1.358 1_556 S
C2440 C2446 1.383 . S
C2441 C2437 1.495 . S
C2441 H2447 0.960 . S
C2441 H2448 0.961 . S
C2441 H2449 0.960 1_556 S
C2442 C2440 1.358 1_554 S
C2442 C2443 1.388 1_554 S
C2442 H2450 0.961 . S
C2443 C2442 1.388 1_556 S
C2443 C2444 1.383 . S
C2443 H2451 0.929 1_556 S
C2444 C2443 1.383 . S
C2444 C2445 1.377 . S
C2445 H2429 0.930 . S
C2445 C2444 1.377 . S
C2445 C2446 1.379 . S
C2446 H2430 0.931 . S
C2446 C2440 1.383 . S
C2446 C2445 1.379 . S
H2447 C2441 0.960 . S
H2448 C2441 0.961 . S
H2449 C2441 0.960 1_554 S
H2450 C2442 0.961 . S
H2451 C2443 0.929 1_554 S
H2452 C2460 0.929 . S
H2453 C2462 0.930 . S
H2454 C2464 0.930 1_556 S
H2455 C2467 0.929 1_556 S
H2456 C2470 0.930 . S
H2457 C2472 0.960 . S
H2458 C2472 0.960 . S
H2459 C2472 0.960 . S
C2460 H2452 0.929 . S
C2460 C2461 1.377 . S
C2460 C2462 1.384 . S
C2461 C2460 1.377 . S
C2461 C2467 1.390 . S
C2462 H2453 0.930 . S
C2462 C2460 1.384 . S
C2462 C2463 1.372 . S
C2463 C2462 1.372 . S
C2463 C2464 1.400 . S
C2463 C2468 1.490 . S
C2464 H2454 0.930 1_554 S
C2464 C2463 1.400 . S
C2464 C2467 1.386 . S
H2465 C2481 0.930 1_556 S
H2466 C2482 0.931 1_556 S
C2467 H2455 0.929 1_554 S
C2467 C2461 1.390 . S
C2467 C2464 1.386 . S
C2468 C2463 1.490 . S
C2468 C2470 1.395 . S
C2468 C2471 1.403 . S
H2469 C2475 0.930 1_556 S
C2470 H2456 0.930 . S
C2470 C2468 1.395 . S
C2470 C2473 1.403 . S
C2471 C2468 1.403 . S
C2471 C2472 1.524 1_554 S
C2471 C2475 1.400 . S
C2472 H2457 0.960 . S
C2472 H2458 0.960 . S
C2472 H2459 0.960 . S
C2472 C2471 1.524 1_556 S
C2473 C2470 1.403 . S
C2473 C2474 1.392 . S
C2473 C2477 1.495 . S
C2474 C2473 1.392 . S
C2474 C2475 1.385 . S
C2474 C2476 1.478 . S
C2475 H2469 0.930 1_554 S
C2475 C2471 1.400 . S
C2475 C2474 1.385 . S
C2476 C2474 1.478 . S
C2476 C2478 1.381 . S
C2476 C2482 1.383 . S
C2477 C2473 1.495 . S
C2477 H2483 0.959 . S
C2477 H2484 0.961 . S
C2477 H2485 0.960 . S
C2478 C2476 1.381 . S
C2478 C2479 1.394 . S
C2478 H2486 0.930 . S
C2479 C2478 1.394 . S
C2479 C2480 1.383 . S
C2479 H2487 0.929 . S
C2480 C2479 1.383 . S
C2480 C2481 1.377 . S
C2481 H2465 0.930 1_554 S
C2481 C2480 1.377 . S
C2481 C2482 1.379 . S
C2482 H2466 0.931 1_554 S
C2482 C2476 1.383 . S
C2482 C2481 1.379 . S
H2483 C2477 0.959 . S
H2484 C2477 0.961 . S
H2485 C2477 0.960 . S
H2486 C2478 0.930 . S
H2487 C2479 0.929 . S
H2488 C2496 0.929 . S
H2489 C2498 0.930 . S
H2490 C2500 0.930 . S
H2491 C2503 0.929 . S
H2492 C2506 0.930 . S
H2493 C2508 0.960 . S
H2494 C2508 0.960 . S
H2495 C2508 0.960 . S
C2496 H2488 0.929 . S
C2496 C2497 1.377 . S
C2496 C2498 1.384 . S
C2497 C2496 1.377 . S
C2497 C2503 1.390 . S
C2498 H2489 0.930 . S
C2498 C2496 1.384 . S
C2498 C2499 1.372 . S
C2499 C2498 1.372 . S
C2499 C2500 1.400 . S
C2499 C2504 1.490 . S
C2500 H2490 0.930 . S
C2500 C2499 1.400 . S
C2500 C2503 1.386 . S
H2501 C2517 0.930 . S
H2502 C2518 0.931 . S
C2503 H2491 0.929 . S
C2503 C2497 1.390 . S
C2503 C2500 1.386 . S
C2504 C2499 1.490 . S
C2504 C2506 1.395 . S
C2504 C2507 1.403 . S
H2505 C2511 0.930 . S
C2506 H2492 0.930 . S
C2506 C2504 1.395 . S
C2506 C2509 1.403 . S
C2507 C2504 1.403 . S
C2507 C2508 1.524 . S
C2507 C2511 1.400 . S
C2508 H2493 0.960 . S
C2508 H2494 0.960 . S
C2508 H2495 0.960 . S
C2508 C2507 1.524 . S
C2509 C2506 1.403 . S
C2509 C2510 1.392 . S
C2509 C2513 1.495 . S
C2510 C2509 1.392 . S
C2510 C2511 1.385 . S
C2510 C2512 1.478 . S
C2511 H2505 0.930 . S
C2511 C2507 1.400 . S
C2511 C2510 1.385 . S
C2512 C2510 1.478 . S
C2512 C2514 1.381 . S
C2512 C2518 1.383 . S
C2513 C2509 1.495 . S
C2513 H2519 0.959 . S
C2513 H2520 0.961 . S
C2513 H2521 0.960 . S
C2514 C2512 1.381 . S
C2514 C2515 1.394 . S
C2514 H2522 0.930 . S
C2515 C2514 1.394 . S
C2515 C2516 1.383 . S
C2515 H2523 0.929 . S
C2516 C2515 1.383 . S
C2516 C2517 1.377 . S
C2517 H2501 0.930 . S
C2517 C2516 1.377 . S
C2517 C2518 1.379 . S
C2518 H2502 0.931 . S
C2518 C2512 1.383 . S
C2518 C2517 1.379 . S
H2519 C2513 0.959 . S
H2520 C2513 0.961 . S
H2521 C2513 0.960 . S
H2522 C2514 0.930 . S
H2523 C2515 0.929 . S
H2524 C2532 0.929 . S
H2525 C2534 0.930 . S
H2526 C2536 0.930 . S
H2527 C2539 0.929 . S
H2528 C2542 0.930 . S
H2529 C2544 0.960 . S
H2530 C2544 0.960 . S
H2531 C2544 0.960 . S
C2532 H2524 0.929 . S
C2532 C2533 1.377 . S
C2532 C2534 1.384 . S
C2533 C2532 1.377 . S
C2533 C2539 1.390 . S
C2534 H2525 0.930 . S
C2534 C2532 1.384 . S
C2534 C2535 1.372 . S
C2535 C2534 1.372 . S
C2535 C2536 1.400 . S
C2535 C2540 1.490 . S
C2536 H2526 0.930 . S
C2536 C2535 1.400 . S
C2536 C2539 1.386 . S
H2537 C2553 0.930 . S
H2538 C2554 0.931 . S
C2539 H2527 0.929 . S
C2539 C2533 1.390 . S
C2539 C2536 1.386 . S
C2540 C2535 1.490 . S
C2540 C2542 1.395 . S
C2540 C2543 1.403 . S
H2541 C2547 0.930 . S
C2542 H2528 0.930 . S
C2542 C2540 1.395 . S
C2542 C2545 1.403 . S
C2543 C2540 1.403 . S
C2543 C2544 1.524 . S
C2543 C2547 1.400 . S
C2544 H2529 0.960 . S
C2544 H2530 0.960 . S
C2544 H2531 0.960 . S
C2544 C2543 1.524 . S
C2545 C2542 1.403 . S
C2545 C2546 1.392 . S
C2545 C2549 1.495 . S
C2546 C2545 1.392 . S
C2546 C2547 1.385 . S
C2546 C2548 1.478 . S
C2547 H2541 0.930 . S
C2547 C2543 1.400 . S
C2547 C2546 1.385 . S
C2548 C2546 1.478 . S
C2548 C2550 1.381 . S
C2548 C2554 1.383 . S
C2549 C2545 1.495 . S
C2549 H2555 0.959 . S
C2549 H2556 0.961 . S
C2549 H2557 0.960 . S
C2550 C2548 1.381 . S
C2550 C2551 1.394 . S
C2550 H2558 0.930 . S
C2551 C2550 1.394 . S
C2551 C2552 1.383 . S
C2551 H2559 0.929 . S
C2552 C2551 1.383 . S
C2552 C2553 1.377 . S
C2553 H2537 0.930 . S
C2553 C2552 1.377 . S
C2553 C2554 1.379 . S
C2554 H2538 0.931 . S
C2554 C2548 1.383 . S
C2554 C2553 1.379 . S
H2555 C2549 0.959 . S
H2556 C2549 0.961 . S
H2557 C2549 0.960 . S
H2558 C2550 0.930 . S
H2559 C2551 0.929 . S
H2560 C2568 0.951 . S
H2561 C2570 0.930 . S
H2562 C2572 0.930 . S
H2563 C2575 0.929 . S
H2564 C2578 0.930 . S
H2565 C2580 0.960 . S
H2566 C2580 0.960 . S
H2567 C2580 0.960 . S
C2568 H2560 0.951 . S
C2568 C2569 1.385 . S
C2568 C2570 1.356 1_545 S
C2569 C2568 1.385 . S
C2569 C2575 1.390 1_545 S
C2570 H2561 0.930 . S
C2570 C2568 1.356 1_565 S
C2570 C2571 1.372 . S
C2571 C2570 1.372 . S
C2571 C2572 1.400 . S
C2571 C2576 1.490 . S
C2572 H2562 0.930 . S
C2572 C2571 1.400 . S
C2572 C2575 1.386 . S
H2573 C2589 0.930 . S
H2574 C2590 0.931 . S
C2575 H2563 0.929 . S
C2575 C2569 1.390 1_565 S
C2575 C2572 1.386 . S
C2576 C2571 1.490 . S
C2576 C2578 1.395 . S
C2576 C2579 1.403 . S
H2577 C2583 0.930 . S
C2578 H2564 0.930 . S
C2578 C2576 1.395 . S
C2578 C2581 1.403 . S
C2579 C2576 1.403 . S
C2579 C2580 1.524 . S
C2579 C2583 1.400 . S
C2580 H2565 0.960 . S
C2580 H2566 0.960 . S
C2580 H2567 0.960 . S
C2580 C2579 1.524 . S
C2581 C2578 1.403 . S
C2581 C2582 1.392 . S
C2581 C2585 1.495 . S
C2582 C2581 1.392 . S
C2582 C2583 1.385 . S
C2582 C2584 1.478 . S
C2583 H2577 0.930 . S
C2583 C2579 1.400 . S
C2583 C2582 1.385 . S
C2584 C2582 1.478 . S
C2584 C2586 1.381 . S
C2584 C2590 1.383 . S
C2585 C2581 1.495 . S
C2585 H2591 0.959 . S
C2585 H2592 0.961 . S
C2585 H2593 0.960 . S
C2586 C2584 1.381 . S
C2586 C2587 1.394 . S
C2586 H2594 0.930 . S
C2587 C2586 1.394 . S
C2587 C2588 1.383 . S
C2587 H2595 0.929 . S
C2588 C2587 1.383 . S
C2588 C2589 1.377 . S
C2589 H2573 0.930 . S
C2589 C2588 1.377 . S
C2589 C2590 1.379 . S
C2590 H2574 0.931 . S
C2590 C2584 1.383 . S
C2590 C2589 1.379 . S
H2591 C2585 0.959 . S
H2592 C2585 0.961 . S
H2593 C2585 0.960 . S
H2594 C2586 0.930 . S
H2595 C2587 0.929 . S
H2596 C2604 0.929 . S
H2597 C2606 0.930 . S
H2598 C2608 0.930 . S
H2599 C2611 0.929 . S
H2600 C2614 0.930 . S
H2601 C2616 0.960 . S
H2602 C2616 0.960 . S
H2603 C2616 0.960 . S
C2604 H2596 0.929 . S
C2604 C2605 1.377 . S
C2604 C2606 1.384 . S
C2605 C2604 1.377 . S
C2605 C2611 1.390 . S
C2606 H2597 0.930 . S
C2606 C2604 1.384 . S
C2606 C2607 1.372 . S
C2607 C2606 1.372 . S
C2607 C2608 1.400 . S
C2607 C2612 1.490 . S
C2608 H2598 0.930 . S
C2608 C2607 1.400 . S
C2608 C2611 1.386 . S
H2609 C2625 0.930 . S
H2610 C2626 0.931 . S
C2611 H2599 0.929 . S
C2611 C2605 1.390 . S
C2611 C2608 1.386 . S
C2612 C2607 1.490 . S
C2612 C2614 1.395 . S
C2612 C2615 1.403 . S
H2613 C2619 0.930 . S
C2614 H2600 0.930 . S
C2614 C2612 1.395 . S
C2614 C2617 1.403 . S
C2615 C2612 1.403 . S
C2615 C2616 1.524 . S
C2615 C2619 1.400 . S
C2616 H2601 0.960 . S
C2616 H2602 0.960 . S
C2616 H2603 0.960 . S
C2616 C2615 1.524 . S
C2617 C2614 1.403 . S
C2617 C2618 1.392 . S
C2617 C2621 1.495 . S
C2618 C2617 1.392 . S
C2618 C2619 1.385 . S
C2618 C2620 1.478 . S
C2619 H2613 0.930 . S
C2619 C2615 1.400 . S
C2619 C2618 1.385 . S
C2620 C2618 1.478 . S
C2620 C2622 1.381 . S
C2620 C2626 1.383 . S
C2621 C2617 1.495 . S
C2621 H2627 0.959 . S
C2621 H2628 0.961 . S
C2621 H2629 0.960 . S
C2622 C2620 1.381 . S
C2622 C2623 1.394 . S
C2622 H2630 0.930 . S
C2623 C2622 1.394 . S
C2623 C2624 1.383 . S
C2623 H2631 0.929 . S
C2624 C2623 1.383 . S
C2624 C2625 1.377 . S
C2625 H2609 0.930 . S
C2625 C2624 1.377 . S
C2625 C2626 1.379 . S
C2626 H2610 0.931 . S
C2626 C2620 1.383 . S
C2626 C2625 1.379 . S
H2627 C2621 0.959 . S
H2628 C2621 0.961 . S
H2629 C2621 0.960 . S
H2630 C2622 0.930 . S
H2631 C2623 0.929 . S
H2632 C2640 0.929 . S
H2633 C2642 0.930 . S
H2634 C2644 0.930 . S
H2635 C2647 0.929 . S
H2636 C2650 0.930 . S
H2637 C2652 0.960 . S
H2638 C2652 0.960 . S
H2639 C2652 0.960 . S
C2640 H2632 0.929 . S
C2640 C2641 1.377 . S
C2640 C2642 1.384 . S
C2641 C2640 1.377 . S
C2641 C2647 1.390 . S
C2642 H2633 0.930 . S
C2642 C2640 1.384 . S
C2642 C2643 1.372 . S
C2643 C2642 1.372 . S
C2643 C2644 1.400 . S
C2643 C2648 1.490 . S
C2644 H2634 0.930 . S
C2644 C2643 1.400 . S
C2644 C2647 1.386 . S
H2645 C2661 0.930 . S
H2646 C2662 0.931 . S
C2647 H2635 0.929 . S
C2647 C2641 1.390 . S
C2647 C2644 1.386 . S
C2648 C2643 1.490 . S
C2648 C2650 1.395 . S
C2648 C2651 1.403 . S
H2649 C2655 0.930 . S
C2650 H2636 0.930 . S
C2650 C2648 1.395 . S
C2650 C2653 1.403 . S
C2651 C2648 1.403 . S
C2651 C2652 1.524 . S
C2651 C2655 1.400 . S
C2652 H2637 0.960 . S
C2652 H2638 0.960 . S
C2652 H2639 0.960 . S
C2652 C2651 1.524 . S
C2653 C2650 1.403 . S
C2653 C2654 1.392 . S
C2653 C2657 1.495 . S
C2654 C2653 1.392 . S
C2654 C2655 1.385 . S
C2654 C2656 1.478 . S
C2655 H2649 0.930 . S
C2655 C2651 1.400 . S
C2655 C2654 1.385 . S
C2656 C2654 1.478 . S
C2656 C2658 1.381 . S
C2656 C2662 1.383 . S
C2657 C2653 1.495 . S
C2657 H2663 0.959 . S
C2657 H2664 0.961 . S
C2657 H2665 0.960 . S
C2658 C2656 1.381 . S
C2658 C2659 1.394 . S
C2658 H2666 0.930 . S
C2659 C2658 1.394 . S
C2659 C2660 1.383 . S
C2659 H2667 0.929 . S
C2660 C2659 1.383 . S
C2660 C2661 1.377 . S
C2661 H2645 0.930 . S
C2661 C2660 1.377 . S
C2661 C2662 1.379 . S
C2662 H2646 0.931 . S
C2662 C2656 1.383 . S
C2662 C2661 1.379 . S
H2663 C2657 0.959 . S
H2664 C2657 0.961 . S
H2665 C2657 0.960 . S
H2666 C2658 0.930 . S
H2667 C2659 0.929 . S
H2668 C2676 0.929 . S
H2669 C2678 0.930 . S
H2670 C2680 0.930 . S
H2671 C2683 0.929 . S
H2672 C2686 0.930 . S
H2673 C2688 0.960 . S
H2674 C2688 0.960 . S
H2675 C2688 0.960 . S
C2676 H2668 0.929 . S
C2676 C2677 1.377 . S
C2676 C2678 1.384 . S
C2677 C2676 1.377 . S
C2677 C2683 1.390 . S
C2678 H2669 0.930 . S
C2678 C2676 1.384 . S
C2678 C2679 1.372 . S
C2679 C2678 1.372 . S
C2679 C2680 1.400 . S
C2679 C2684 1.490 . S
C2680 H2670 0.930 . S
C2680 C2679 1.400 . S
C2680 C2683 1.386 . S
H2681 C2697 0.930 . S
H2682 C2698 0.931 . S
C2683 H2671 0.929 . S
C2683 C2677 1.390 . S
C2683 C2680 1.386 . S
C2684 C2679 1.490 . S
C2684 C2686 1.395 . S
C2684 C2687 1.403 . S
H2685 C2691 0.930 . S
C2686 H2672 0.930 . S
C2686 C2684 1.395 . S
C2686 C2689 1.403 . S
C2687 C2684 1.403 . S
C2687 C2688 1.524 . S
C2687 C2691 1.400 . S
C2688 H2673 0.960 . S
C2688 H2674 0.960 . S
C2688 H2675 0.960 . S
C2688 C2687 1.524 . S
C2689 C2686 1.403 . S
C2689 C2690 1.392 . S
C2689 C2693 1.495 . S
C2690 C2689 1.392 . S
C2690 C2691 1.385 . S
C2690 C2692 1.478 . S
C2691 H2685 0.930 . S
C2691 C2687 1.400 . S
C2691 C2690 1.385 . S
C2692 C2690 1.478 . S
C2692 C2694 1.381 . S
C2692 C2698 1.383 . S
C2693 C2689 1.495 . S
C2693 H2699 0.959 . S
C2693 H2700 0.961 . S
C2693 H2701 0.960 . S
C2694 C2692 1.381 . S
C2694 C2695 1.394 . S
C2694 H2702 0.930 . S
C2695 C2694 1.394 . S
C2695 C2696 1.383 . S
C2695 H2703 0.929 . S
C2696 C2695 1.383 . S
C2696 C2697 1.377 . S
C2697 H2681 0.930 . S
C2697 C2696 1.377 . S
C2697 C2698 1.379 . S
C2698 H2682 0.931 . S
C2698 C2692 1.383 . S
C2698 C2697 1.379 . S
H2699 C2693 0.959 . S
H2700 C2693 0.961 . S
H2701 C2693 0.960 . S
H2702 C2694 0.930 . S
H2703 C2695 0.929 . S
H2704 C2712 0.929 . S
H2705 C2714 0.930 . S
H2706 C2716 0.930 . S
H2707 C2719 0.929 . S
H2708 C2722 0.930 . S
H2709 C2724 0.960 . S
H2710 C2724 0.960 . S
H2711 C2724 0.960 . S
C2712 H2704 0.929 . S
C2712 C2713 1.377 . S
C2712 C2714 1.384 . S
C2713 C2712 1.377 . S
C2713 C2719 1.390 . S
C2714 H2705 0.930 . S
C2714 C2712 1.384 . S
C2714 C2715 1.372 . S
C2715 C2714 1.372 . S
C2715 C2716 1.400 . S
C2715 C2720 1.490 . S
C2716 H2706 0.930 . S
C2716 C2715 1.400 . S
C2716 C2719 1.386 . S
H2717 C2733 0.930 . S
H2718 C2734 0.931 . S
C2719 H2707 0.929 . S
C2719 C2713 1.390 . S
C2719 C2716 1.386 . S
C2720 C2715 1.490 . S
C2720 C2722 1.395 . S
C2720 C2723 1.403 . S
H2721 C2727 0.930 . S
C2722 H2708 0.930 . S
C2722 C2720 1.395 . S
C2722 C2725 1.403 . S
C2723 C2720 1.403 . S
C2723 C2724 1.524 . S
C2723 C2727 1.400 . S
C2724 H2709 0.960 . S
C2724 H2710 0.960 . S
C2724 H2711 0.960 . S
C2724 C2723 1.524 . S
C2725 C2722 1.403 . S
C2725 C2726 1.392 . S
C2725 C2729 1.495 . S
C2726 C2725 1.392 . S
C2726 C2727 1.385 . S
C2726 C2728 1.478 . S
C2727 H2721 0.930 . S
C2727 C2723 1.400 . S
C2727 C2726 1.385 . S
C2728 C2726 1.478 . S
C2728 C2730 1.381 . S
C2728 C2734 1.383 . S
C2729 C2725 1.495 . S
C2729 H2735 0.959 . S
C2729 H2736 0.961 . S
C2729 H2737 0.960 . S
C2730 C2728 1.381 . S
C2730 C2731 1.394 . S
C2730 H2738 0.930 . S
C2731 C2730 1.394 . S
C2731 C2732 1.383 . S
C2731 H2739 0.929 . S
C2732 C2731 1.383 . S
C2732 C2733 1.377 . S
C2733 H2717 0.930 . S
C2733 C2732 1.377 . S
C2733 C2734 1.379 . S
C2734 H2718 0.931 . S
C2734 C2728 1.383 . S
C2734 C2733 1.379 . S
H2735 C2729 0.959 . S
H2736 C2729 0.961 . S
H2737 C2729 0.960 . S
H2738 C2730 0.930 . S
H2739 C2731 0.929 . S
H2740 C2748 0.929 . S
H2741 C2750 0.930 . S
H2742 C2752 0.930 . S
H2743 C2755 0.929 . S
H2744 C2758 0.930 . S
H2745 C2760 0.960 . S
H2746 C2760 0.960 . S
H2747 C2760 0.960 . S
C2748 H2740 0.929 . S
C2748 C2749 1.377 . S
C2748 C2750 1.384 . S
C2749 C2748 1.377 . S
C2749 C2755 1.390 . S
C2750 H2741 0.930 . S
C2750 C2748 1.384 . S
C2750 C2751 1.372 . S
C2751 C2750 1.372 . S
C2751 C2752 1.400 . S
C2751 C2756 1.490 . S
C2752 H2742 0.930 . S
C2752 C2751 1.400 . S
C2752 C2755 1.386 . S
H2753 C2769 0.930 . S
H2754 C2770 0.931 . S
C2755 H2743 0.929 . S
C2755 C2749 1.390 . S
C2755 C2752 1.386 . S
C2756 C2751 1.490 . S
C2756 C2758 1.395 . S
C2756 C2759 1.403 . S
H2757 C2763 0.930 . S
C2758 H2744 0.930 . S
C2758 C2756 1.395 . S
C2758 C2761 1.403 . S
C2759 C2756 1.403 . S
C2759 C2760 1.524 . S
C2759 C2763 1.400 . S
C2760 H2745 0.960 . S
C2760 H2746 0.960 . S
C2760 H2747 0.960 . S
C2760 C2759 1.524 . S
C2761 C2758 1.403 . S
C2761 C2762 1.392 . S
C2761 C2765 1.495 . S
C2762 C2761 1.392 . S
C2762 C2763 1.385 . S
C2762 C2764 1.478 . S
C2763 H2757 0.930 . S
C2763 C2759 1.400 . S
C2763 C2762 1.385 . S
C2764 C2762 1.478 . S
C2764 C2766 1.381 . S
C2764 C2770 1.383 . S
C2765 C2761 1.495 . S
C2765 H2771 0.959 . S
C2765 H2772 0.961 . S
C2765 H2773 0.960 . S
C2766 C2764 1.381 . S
C2766 C2767 1.394 . S
C2766 H2774 0.930 . S
C2767 C2766 1.394 . S
C2767 C2768 1.383 . S
C2767 H2775 0.929 . S
C2768 C2767 1.383 . S
C2768 C2769 1.377 . S
C2769 H2753 0.930 . S
C2769 C2768 1.377 . S
C2769 C2770 1.379 . S
C2770 H2754 0.931 . S
C2770 C2764 1.383 . S
C2770 C2769 1.379 . S
H2771 C2765 0.959 . S
H2772 C2765 0.961 . S
H2773 C2765 0.960 . S
H2774 C2766 0.930 . S
H2775 C2767 0.929 . S
H2776 C2784 0.903 1_655 S
H2777 C2786 0.930 . S
H2778 C2788 0.930 . S
H2779 C2791 0.929 . S
H2780 C2794 0.930 . S
H2781 C2796 0.960 . S
H2782 C2796 0.960 . S
H2783 C2796 0.960 . S
C2784 H2776 0.903 1_455 S
C2784 C2785 1.377 . S
C2784 C2786 1.384 . S
C2785 C2784 1.377 . S
C2785 C2791 1.390 . S
C2786 H2777 0.930 . S
C2786 C2784 1.384 . S
C2786 C2787 1.372 . S
C2787 C2786 1.372 . S
C2787 C2788 1.400 . S
C2787 C2792 1.490 . S
C2788 H2778 0.930 . S
C2788 C2787 1.400 . S
C2788 C2791 1.386 . S
H2789 C2805 0.930 . S
H2790 C2806 0.931 . S
C2791 H2779 0.929 . S
C2791 C2785 1.390 . S
C2791 C2788 1.386 . S
C2792 C2787 1.490 . S
C2792 C2794 1.395 . S
C2792 C2795 1.403 . S
H2793 C2799 0.930 . S
C2794 H2780 0.930 . S
C2794 C2792 1.395 . S
C2794 C2797 1.403 . S
C2795 C2792 1.403 . S
C2795 C2796 1.524 . S
C2795 C2799 1.400 . S
C2796 H2781 0.960 . S
C2796 H2782 0.960 . S
C2796 H2783 0.960 . S
C2796 C2795 1.524 . S
C2797 C2794 1.403 . S
C2797 C2798 1.392 . S
C2797 C2801 1.495 1_556 S
C2798 C2797 1.392 . S
C2798 C2799 1.385 . S
C2798 C2800 1.478 . S
C2799 H2793 0.930 . S
C2799 C2795 1.400 . S
C2799 C2798 1.385 . S
C2800 C2798 1.478 . S
C2800 C2802 1.384 . S
C2800 C2806 1.383 . S
C2801 C2797 1.495 1_554 S
C2801 H2807 0.959 . S
C2801 H2808 0.961 . S
C2801 H2809 0.960 . S
C2802 C2800 1.384 . S
C2802 C2803 1.393 1_556 S
C2802 H2810 0.928 1_556 S
C2803 C2802 1.393 1_554 S
C2803 C2804 1.383 . S
C2803 H2811 0.929 . S
C2804 C2803 1.383 . S
C2804 C2805 1.377 1_554 S
C2805 H2789 0.930 . S
C2805 C2804 1.377 1_556 S
C2805 C2806 1.379 . S
C2806 H2790 0.931 . S
C2806 C2800 1.383 . S
C2806 C2805 1.379 . S
H2807 C2801 0.959 . S
H2808 C2801 0.961 . S
H2809 C2801 0.960 . S
H2810 C2802 0.928 1_554 S
H2811 C2803 0.929 . S
H2812 C2820 0.929 . S
H2813 C2822 0.930 . S
H2814 C2824 0.930 . S
H2815 C2827 0.929 . S
H2816 C2830 0.930 . S
H2817 C2832 0.960 . S
H2818 C2832 0.960 . S
H2819 C2832 0.960 . S
C2820 H2812 0.929 . S
C2820 C2821 1.377 . S
C2820 C2822 1.384 1_455 S
C2821 C2820 1.377 . S
C2821 C2827 1.390 . S
C2822 H2813 0.930 . S
C2822 C2820 1.384 1_655 S
C2822 C2823 1.372 . S
C2823 C2822 1.372 . S
C2823 C2824 1.400 . S
C2823 C2828 1.490 . S
C2824 H2814 0.930 . S
C2824 C2823 1.400 . S
C2824 C2827 1.386 1_655 S
H2825 C2841 0.930 . S
H2826 C2842 0.931 . S
C2827 H2815 0.929 . S
C2827 C2821 1.390 . S
C2827 C2824 1.386 1_455 S
C2828 C2823 1.490 . S
C2828 C2830 1.395 . S
C2828 C2831 1.403 . S
H2829 C2835 0.930 . S
C2830 H2816 0.930 . S
C2830 C2828 1.395 . S
C2830 C2833 1.403 . S
C2831 C2828 1.403 . S
C2831 C2832 1.524 . S
C2831 C2835 1.400 . S
C2832 H2817 0.960 . S
C2832 H2818 0.960 . S
C2832 H2819 0.960 . S
C2832 C2831 1.524 . S
C2833 C2830 1.403 . S
C2833 C2834 1.392 . S
C2833 C2837 1.495 . S
C2834 C2833 1.392 . S
C2834 C2835 1.385 . S
C2834 C2836 1.478 . S
C2835 H2829 0.930 . S
C2835 C2831 1.400 . S
C2835 C2834 1.385 . S
C2836 C2834 1.478 . S
C2836 C2838 1.381 . S
C2836 C2842 1.383 . S
C2837 C2833 1.495 . S
C2837 H2843 0.959 . S
C2837 H2844 0.961 . S
C2837 H2845 0.960 . S
C2838 C2836 1.381 . S
C2838 C2839 1.394 . S
C2838 H2846 0.930 . S
C2839 C2838 1.394 . S
C2839 C2840 1.383 . S
C2839 H2847 0.929 . S
C2840 C2839 1.383 . S
C2840 C2841 1.377 . S
C2841 H2825 0.930 . S
C2841 C2840 1.377 . S
C2841 C2842 1.379 . S
C2842 H2826 0.931 . S
C2842 C2836 1.383 . S
C2842 C2841 1.379 . S
H2843 C2837 0.959 . S
H2844 C2837 0.961 . S
H2845 C2837 0.960 . S
H2846 C2838 0.930 . S
H2847 C2839 0.929 . S
H2848 C2856 0.929 . S
H2849 C2858 0.930 . S
H2850 C2860 0.930 . S
H2851 C2863 0.929 . S
H2852 C2866 0.930 . S
H2853 C2868 0.960 . S
H2854 C2868 0.960 . S
H2855 C2868 0.960 . S
C2856 H2848 0.929 . S
C2856 C2857 1.377 . S
C2856 C2858 1.384 . S
C2857 C2856 1.377 . S
C2857 C2863 1.390 . S
C2858 H2849 0.930 . S
C2858 C2856 1.384 . S
C2858 C2859 1.372 . S
C2859 C2858 1.372 . S
C2859 C2860 1.400 . S
C2859 C2864 1.490 . S
C2860 H2850 0.930 . S
C2860 C2859 1.400 . S
C2860 C2863 1.386 . S
H2861 C2877 0.930 . S
H2862 C2878 0.931 . S
C2863 H2851 0.929 . S
C2863 C2857 1.390 . S
C2863 C2860 1.386 . S
C2864 C2859 1.490 . S
C2864 C2866 1.395 . S
C2864 C2867 1.403 . S
H2865 C2871 0.930 . S
C2866 H2852 0.930 . S
C2866 C2864 1.395 . S
C2866 C2869 1.403 . S
C2867 C2864 1.403 . S
C2867 C2868 1.524 . S
C2867 C2871 1.400 . S
C2868 H2853 0.960 . S
C2868 H2854 0.960 . S
C2868 H2855 0.960 . S
C2868 C2867 1.524 . S
C2869 C2866 1.403 . S
C2869 C2870 1.392 . S
C2869 C2873 1.495 . S
C2870 C2869 1.392 . S
C2870 C2871 1.385 . S
C2870 C2872 1.478 . S
C2871 H2865 0.930 . S
C2871 C2867 1.400 . S
C2871 C2870 1.385 . S
C2872 C2870 1.478 . S
C2872 C2874 1.381 . S
C2872 C2878 1.383 . S
C2873 C2869 1.495 . S
C2873 H2879 0.959 . S
C2873 H2880 0.961 . S
C2873 H2881 0.960 . S
C2874 C2872 1.381 . S
C2874 C2875 1.394 . S
C2874 H2882 0.930 . S
C2875 C2874 1.394 . S
C2875 C2876 1.383 . S
C2875 H2883 0.929 . S
C2876 C2875 1.383 . S
C2876 C2877 1.377 . S
C2877 H2861 0.930 . S
C2877 C2876 1.377 . S
C2877 C2878 1.379 . S
C2878 H2862 0.931 . S
C2878 C2872 1.383 . S
C2878 C2877 1.379 . S
H2879 C2873 0.959 . S
H2880 C2873 0.961 . S
H2881 C2873 0.960 . S
H2882 C2874 0.930 . S
H2883 C2875 0.929 . S
H2884 C2892 0.929 . S
H2885 C2894 0.930 . S
H2886 C2896 0.930 . S
H2887 C2899 0.929 . S
H2888 C2902 0.930 . S
H2889 C2904 0.960 . S
H2890 C2904 0.960 . S
H2891 C2904 0.960 . S
C2892 H2884 0.929 . S
C2892 C2893 1.377 . S
C2892 C2894 1.384 . S
C2893 C2892 1.377 . S
C2893 C2899 1.390 . S
C2894 H2885 0.930 . S
C2894 C2892 1.384 . S
C2894 C2895 1.372 . S
C2895 C2894 1.372 . S
C2895 C2896 1.400 . S
C2895 C2900 1.490 1_455 S
C2896 H2886 0.930 . S
C2896 C2895 1.400 . S
C2896 C2899 1.386 . S
H2897 C2913 0.930 . S
H2898 C2914 0.931 . S
C2899 H2887 0.929 . S
C2899 C2893 1.390 . S
C2899 C2896 1.386 . S
C2900 C2895 1.490 1_655 S
C2900 C2902 1.395 . S
C2900 C2903 1.403 . S
H2901 C2907 0.930 . S
C2902 H2888 0.930 . S
C2902 C2900 1.395 . S
C2902 C2905 1.403 . S
C2903 C2900 1.403 . S
C2903 C2904 1.524 . S
C2903 C2907 1.400 . S
C2904 H2889 0.960 . S
C2904 H2890 0.960 . S
C2904 H2891 0.960 . S
C2904 C2903 1.524 . S
C2905 C2902 1.403 . S
C2905 C2906 1.392 . S
C2905 C2909 1.495 . S
C2906 C2905 1.392 . S
C2906 C2907 1.385 . S
C2906 C2908 1.478 . S
C2907 H2901 0.930 . S
C2907 C2903 1.400 . S
C2907 C2906 1.385 . S
C2908 C2906 1.478 . S
C2908 C2910 1.381 . S
C2908 C2914 1.383 . S
C2909 C2905 1.495 . S
C2909 H2915 0.959 . S
C2909 H2916 0.961 . S
C2909 H2917 0.960 . S
C2910 C2908 1.381 . S
C2910 C2911 1.394 . S
C2910 H2918 0.930 . S
C2911 C2910 1.394 . S
C2911 C2912 1.383 . S
C2911 H2919 0.929 . S
C2912 C2911 1.383 . S
C2912 C2913 1.377 . S
C2913 H2897 0.930 . S
C2913 C2912 1.377 . S
C2913 C2914 1.379 . S
C2914 H2898 0.931 . S
C2914 C2908 1.383 . S
C2914 C2913 1.379 . S
H2915 C2909 0.959 . S
H2916 C2909 0.961 . S
H2917 C2909 0.960 . S
H2918 C2910 0.930 . S
H2919 C2911 0.929 . S
H2920 C2928 0.929 . S
H2921 C2930 0.930 . S
H2922 C2932 0.930 . S
H2923 C2935 0.929 . S
H2924 C2938 0.930 1_655 S
H2925 C2940 0.960 . S
H2926 C2940 0.960 . S
H2927 C2940 0.960 . S
C2928 H2920 0.929 . S
C2928 C2929 1.377 1_455 S
C2928 C2930 1.384 . S
C2929 C2928 1.377 1_655 S
C2929 C2935 1.390 . S
C2930 H2921 0.930 . S
C2930 C2928 1.384 . S
C2930 C2931 1.372 . S
C2931 C2930 1.372 . S
C2931 C2932 1.400 1_455 S
C2931 C2936 1.490 . S
C2932 H2922 0.930 . S
C2932 C2931 1.400 1_655 S
C2932 C2935 1.386 . S
H2933 C2949 0.930 . S
H2934 C2950 0.931 . S
C2935 H2923 0.929 . S
C2935 C2929 1.390 . S
C2935 C2932 1.386 . S
C2936 C2931 1.490 . S
C2936 C2938 1.395 . S
C2936 C2939 1.403 . S
H2937 C2943 0.930 . S
C2938 H2924 0.930 1_455 S
C2938 C2936 1.395 . S
C2938 C2941 1.403 . S
C2939 C2936 1.403 . S
C2939 C2940 1.524 . S
C2939 C2943 1.400 . S
C2940 H2925 0.960 . S
C2940 H2926 0.960 . S
C2940 H2927 0.960 . S
C2940 C2939 1.524 . S
C2941 C2938 1.403 . S
C2941 C2942 1.392 . S
C2941 C2945 1.495 1_455 S
C2942 C2941 1.392 . S
C2942 C2943 1.385 . S
C2942 C2944 1.478 . S
C2943 H2937 0.930 . S
C2943 C2939 1.400 . S
C2943 C2942 1.385 . S
C2944 C2942 1.478 . S
C2944 C2946 1.381 . S
C2944 C2950 1.383 . S
C2945 C2941 1.495 1_655 S
C2945 H2951 0.959 . S
C2945 H2952 0.961 . S
C2945 H2953 0.960 1_655 S
C2946 C2944 1.381 . S
C2946 C2947 1.394 . S
C2946 H2954 0.930 . S
C2947 C2946 1.394 . S
C2947 C2948 1.383 . S
C2947 H2955 0.929 . S
C2948 C2947 1.383 . S
C2948 C2949 1.377 . S
C2949 H2933 0.930 . S
C2949 C2948 1.377 . S
C2949 C2950 1.379 . S
C2950 H2934 0.931 . S
C2950 C2944 1.383 . S
C2950 C2949 1.379 . S
H2951 C2945 0.959 . S
H2952 C2945 0.961 . S
H2953 C2945 0.960 1_455 S
H2954 C2946 0.930 . S
H2955 C2947 0.929 . S
H2956 C2964 0.929 . S
H2957 C2966 0.930 . S
H2958 C2968 0.930 . S
H2959 C2971 0.929 . S
H2960 C2974 0.930 . S
H2961 C2976 0.960 . S
H2962 C2976 0.960 . S
H2963 C2976 0.960 . S
C2964 H2956 0.929 . S
C2964 C2965 1.377 . S
C2964 C2966 1.384 . S
C2965 C2964 1.377 . S
C2965 C2971 1.390 . S
C2966 H2957 0.930 . S
C2966 C2964 1.384 . S
C2966 C2967 1.372 . S
C2967 C2966 1.372 . S
C2967 C2968 1.400 . S
C2967 C2972 1.490 . S
C2968 H2958 0.930 . S
C2968 C2967 1.400 . S
C2968 C2971 1.386 . S
H2969 C2985 0.930 . S
H2970 C2986 0.931 . S
C2971 H2959 0.929 . S
C2971 C2965 1.390 . S
C2971 C2968 1.386 . S
C2972 C2967 1.490 . S
C2972 C2974 1.395 . S
C2972 C2975 1.403 . S
H2973 C2979 0.930 . S
C2974 H2960 0.930 . S
C2974 C2972 1.395 . S
C2974 C2977 1.403 . S
C2975 C2972 1.403 . S
C2975 C2976 1.524 . S
C2975 C2979 1.400 . S
C2976 H2961 0.960 . S
C2976 H2962 0.960 . S
C2976 H2963 0.960 . S
C2976 C2975 1.524 . S
C2977 C2974 1.403 . S
C2977 C2978 1.392 . S
C2977 C2981 1.495 . S
C2978 C2977 1.392 . S
C2978 C2979 1.385 . S
C2978 C2980 1.478 . S
C2979 H2973 0.930 . S
C2979 C2975 1.400 . S
C2979 C2978 1.385 . S
C2980 C2978 1.478 . S
C2980 C2982 1.381 . S
C2980 C2986 1.383 . S
C2981 C2977 1.495 . S
C2981 H2987 0.959 . S
C2981 H2988 0.961 . S
C2981 H2989 0.960 . S
C2982 C2980 1.381 . S
C2982 C2983 1.394 . S
C2982 H2990 0.930 . S
C2983 C2982 1.394 . S
C2983 C2984 1.383 . S
C2983 H2991 0.929 . S
C2984 C2983 1.383 . S
C2984 C2985 1.377 . S
C2985 H2969 0.930 . S
C2985 C2984 1.377 . S
C2985 C2986 1.379 . S
C2986 H2970 0.931 . S
C2986 C2980 1.383 . S
C2986 C2985 1.379 . S
H2987 C2981 0.959 . S
H2988 C2981 0.961 . S
H2989 C2981 0.960 . S
H2990 C2982 0.930 . S
H2991 C2983 0.929 . S
H2992 C3000 0.929 . S
H2993 C3002 0.930 . S
H2994 C3004 0.930 . S
H2995 C3007 0.929 . S
H2996 C3010 0.930 . S
H2997 C3012 0.960 . S
H2998 C3012 0.960 . S
H2999 C3012 0.960 . S
C3000 H2992 0.929 . S
C3000 C3001 1.377 . S
C3000 C3002 1.384 . S
C3001 C3000 1.377 . S
C3001 C3007 1.390 . S
C3002 H2993 0.930 . S
C3002 C3000 1.384 . S
C3002 C3003 1.372 . S
C3003 C3002 1.372 . S
C3003 C3004 1.400 . S
C3003 C3008 1.490 . S
C3004 H2994 0.930 . S
C3004 C3003 1.400 . S
C3004 C3007 1.386 . S
H3005 C3021 0.930 . S
H3006 C3022 0.931 . S
C3007 H2995 0.929 . S
C3007 C3001 1.390 . S
C3007 C3004 1.386 . S
C3008 C3003 1.490 . S
C3008 C3010 1.395 . S
C3008 C3011 1.403 . S
H3009 C3015 0.930 . S
C3010 H2996 0.930 . S
C3010 C3008 1.395 . S
C3010 C3013 1.403 . S
C3011 C3008 1.403 . S
C3011 C3012 1.524 . S
C3011 C3015 1.400 . S
C3012 H2997 0.960 . S
C3012 H2998 0.960 . S
C3012 H2999 0.960 . S
C3012 C3011 1.524 . S
C3013 C3010 1.403 . S
C3013 C3014 1.392 . S
C3013 C3017 1.495 . S
C3014 C3013 1.392 . S
C3014 C3015 1.385 . S
C3014 C3016 1.478 . S
C3015 H3009 0.930 . S
C3015 C3011 1.400 . S
C3015 C3014 1.385 . S
C3016 C3014 1.478 . S
C3016 C3018 1.381 . S
C3016 C3022 1.383 . S
C3017 C3013 1.495 . S
C3017 H3023 0.959 . S
C3017 H3024 0.961 . S
C3017 H3025 0.960 . S
C3018 C3016 1.381 . S
C3018 C3019 1.394 . S
C3018 H3026 0.930 . S
C3019 C3018 1.394 . S
C3019 C3020 1.383 . S
C3019 H3027 0.929 . S
C3020 C3019 1.383 . S
C3020 C3021 1.377 . S
C3021 H3005 0.930 . S
C3021 C3020 1.377 . S
C3021 C3022 1.379 . S
C3022 H3006 0.931 . S
C3022 C3016 1.383 . S
C3022 C3021 1.379 . S
H3023 C3017 0.959 . S
H3024 C3017 0.961 . S
H3025 C3017 0.960 . S
H3026 C3018 0.930 . S
H3027 C3019 0.929 . S
H3028 C3036 0.929 . S
H3029 C3038 0.930 . S
H3030 C3040 0.930 . S
H3031 C3043 0.929 . S
H3032 C3046 0.930 . S
H3033 C3048 0.960 . S
H3034 C3048 0.960 . S
H3035 C3048 0.960 . S
C3036 H3028 0.929 . S
C3036 C3037 1.377 . S
C3036 C3038 1.384 . S
C3037 C3036 1.377 . S
C3037 C3043 1.390 . S
C3038 H3029 0.930 . S
C3038 C3036 1.384 . S
C3038 C3039 1.372 . S
C3039 C3038 1.372 . S
C3039 C3040 1.400 . S
C3039 C3044 1.490 . S
C3040 H3030 0.930 . S
C3040 C3039 1.400 . S
C3040 C3043 1.386 . S
H3041 C3057 0.930 . S
H3042 C3058 0.931 . S
C3043 H3031 0.929 . S
C3043 C3037 1.390 . S
C3043 C3040 1.386 . S
C3044 C3039 1.490 . S
C3044 C3046 1.395 . S
C3044 C3047 1.403 . S
H3045 C3051 0.930 . S
C3046 H3032 0.930 . S
C3046 C3044 1.395 . S
C3046 C3049 1.403 . S
C3047 C3044 1.403 . S
C3047 C3048 1.524 . S
C3047 C3051 1.400 . S
C3048 H3033 0.960 . S
C3048 H3034 0.960 . S
C3048 H3035 0.960 . S
C3048 C3047 1.524 . S
C3049 C3046 1.403 . S
C3049 C3050 1.392 . S
C3049 C3053 1.495 . S
C3050 C3049 1.392 . S
C3050 C3051 1.385 . S
C3050 C3052 1.478 . S
C3051 H3045 0.930 . S
C3051 C3047 1.400 . S
C3051 C3050 1.385 . S
C3052 C3050 1.478 . S
C3052 C3054 1.381 . S
C3052 C3058 1.383 . S
C3053 C3049 1.495 . S
C3053 H3059 0.959 . S
C3053 H3060 0.961 . S
C3053 H3061 0.960 . S
C3054 C3052 1.381 . S
C3054 C3055 1.394 . S
C3054 H3062 0.930 . S
C3055 C3054 1.394 . S
C3055 C3056 1.383 . S
C3055 H3063 0.929 . S
C3056 C3055 1.383 . S
C3056 C3057 1.377 . S
C3057 H3041 0.930 . S
C3057 C3056 1.377 . S
C3057 C3058 1.379 . S
C3058 H3042 0.931 . S
C3058 C3052 1.383 . S
C3058 C3057 1.379 . S
H3059 C3053 0.959 . S
H3060 C3053 0.961 . S
H3061 C3053 0.960 . S
H3062 C3054 0.930 . S
H3063 C3055 0.929 . S
H3064 C3072 0.929 . S
H3065 C3074 0.930 . S
H3066 C3076 0.930 . S
H3067 C3079 0.929 . S
H3068 C3082 0.930 . S
H3069 C3084 0.960 . S
H3070 C3084 0.960 . S
H3071 C3084 0.960 . S
C3072 H3064 0.929 . S
C3072 C3073 1.377 . S
C3072 C3074 1.384 . S
C3073 C3072 1.377 . S
C3073 C3079 1.390 . S
C3074 H3065 0.930 . S
C3074 C3072 1.384 . S
C3074 C3075 1.372 . S
C3075 C3074 1.372 . S
C3075 C3076 1.400 . S
C3075 C3080 1.490 . S
C3076 H3066 0.930 . S
C3076 C3075 1.400 . S
C3076 C3079 1.386 . S
H3077 C3093 0.930 . S
H3078 C3094 0.931 . S
C3079 H3067 0.929 . S
C3079 C3073 1.390 . S
C3079 C3076 1.386 . S
C3080 C3075 1.490 . S
C3080 C3082 1.395 . S
C3080 C3083 1.403 . S
H3081 C3087 0.930 . S
C3082 H3068 0.930 . S
C3082 C3080 1.395 . S
C3082 C3085 1.403 . S
C3083 C3080 1.403 . S
C3083 C3084 1.524 . S
C3083 C3087 1.400 . S
C3084 H3069 0.960 . S
C3084 H3070 0.960 . S
C3084 H3071 0.960 . S
C3084 C3083 1.524 . S
C3085 C3082 1.403 . S
C3085 C3086 1.392 . S
C3085 C3089 1.495 . S
C3086 C3085 1.392 . S
C3086 C3087 1.385 . S
C3086 C3088 1.478 . S
C3087 H3081 0.930 . S
C3087 C3083 1.400 . S
C3087 C3086 1.385 . S
C3088 C3086 1.478 . S
C3088 C3090 1.381 . S
C3088 C3094 1.383 . S
C3089 C3085 1.495 . S
C3089 H3095 0.959 . S
C3089 H3096 0.961 . S
C3089 H3097 0.960 . S
C3090 C3088 1.381 . S
C3090 C3091 1.394 . S
C3090 H3098 0.930 . S
C3091 C3090 1.394 . S
C3091 C3092 1.383 . S
C3091 H3099 0.929 . S
C3092 C3091 1.383 . S
C3092 C3093 1.377 . S
C3093 H3077 0.930 . S
C3093 C3092 1.377 . S
C3093 C3094 1.379 . S
C3094 H3078 0.931 . S
C3094 C3088 1.383 . S
C3094 C3093 1.379 . S
H3095 C3089 0.959 . S
H3096 C3089 0.961 . S
H3097 C3089 0.960 . S
H3098 C3090 0.930 . S
H3099 C3091 0.929 . S
H3100 C3108 0.929 . S
H3101 C3110 0.930 . S
H3102 C3112 0.930 . S
H3103 C3115 0.929 . S
H3104 C3118 0.930 . S
H3105 C3120 0.960 . S
H3106 C3120 0.960 . S
H3107 C3120 0.960 . S
C3108 H3100 0.929 . S
C3108 C3109 1.377 . S
C3108 C3110 1.384 . S
C3109 C3108 1.377 . S
C3109 C3115 1.390 . S
C3110 H3101 0.930 . S
C3110 C3108 1.384 . S
C3110 C3111 1.372 . S
C3111 C3110 1.372 . S
C3111 C3112 1.400 . S
C3111 C3116 1.490 . S
C3112 H3102 0.930 . S
C3112 C3111 1.400 . S
C3112 C3115 1.386 . S
H3113 C3129 0.930 . S
H3114 C3130 0.931 . S
C3115 H3103 0.929 . S
C3115 C3109 1.390 . S
C3115 C3112 1.386 . S
C3116 C3111 1.490 . S
C3116 C3118 1.395 . S
C3116 C3119 1.403 . S
H3117 C3123 0.930 . S
C3118 H3104 0.930 . S
C3118 C3116 1.395 . S
C3118 C3121 1.403 . S
C3119 C3116 1.403 . S
C3119 C3120 1.524 . S
C3119 C3123 1.400 . S
C3120 H3105 0.960 . S
C3120 H3106 0.960 . S
C3120 H3107 0.960 . S
C3120 C3119 1.524 . S
C3121 C3118 1.403 . S
C3121 C3122 1.392 . S
C3121 C3125 1.495 . S
C3122 C3121 1.392 . S
C3122 C3123 1.385 . S
C3122 C3124 1.478 . S
C3123 H3117 0.930 . S
C3123 C3119 1.400 . S
C3123 C3122 1.385 . S
C3124 C3122 1.478 . S
C3124 C3126 1.381 . S
C3124 C3130 1.383 . S
C3125 C3121 1.495 . S
C3125 H3131 0.959 . S
C3125 H3132 0.961 . S
C3125 H3133 0.960 . S
C3126 C3124 1.381 . S
C3126 C3127 1.394 . S
C3126 H3134 0.930 . S
C3127 C3126 1.394 . S
C3127 C3128 1.383 . S
C3127 H3135 0.929 . S
C3128 C3127 1.383 . S
C3128 C3129 1.377 . S
C3129 H3113 0.930 . S
C3129 C3128 1.377 . S
C3129 C3130 1.379 . S
C3130 H3114 0.931 . S
C3130 C3124 1.383 . S
C3130 C3129 1.379 . S
H3131 C3125 0.959 . S
H3132 C3125 0.961 . S
H3133 C3125 0.960 . S
H3134 C3126 0.930 . S
H3135 C3127 0.929 . S
H3136 C3144 0.929 . S
H3137 C3146 0.930 . S
H3138 C3148 0.930 . S
H3139 C3151 0.929 . S
H3140 C3154 0.930 . S
H3141 C3156 0.960 . S
H3142 C3156 0.960 . S
H3143 C3156 0.960 . S
C3144 H3136 0.929 . S
C3144 C3145 1.377 . S
C3144 C3146 1.384 . S
C3145 C3144 1.377 . S
C3145 C3151 1.390 . S
C3146 H3137 0.930 . S
C3146 C3144 1.384 . S
C3146 C3147 1.372 . S
C3147 C3146 1.372 . S
C3147 C3148 1.400 . S
C3147 C3152 1.490 . S
C3148 H3138 0.930 . S
C3148 C3147 1.400 . S
C3148 C3151 1.386 . S
H3149 C3165 0.930 . S
H3150 C3166 0.931 . S
C3151 H3139 0.929 . S
C3151 C3145 1.390 . S
C3151 C3148 1.386 . S
C3152 C3147 1.490 . S
C3152 C3154 1.395 . S
C3152 C3155 1.403 . S
H3153 C3159 0.930 . S
C3154 H3140 0.930 . S
C3154 C3152 1.395 . S
C3154 C3157 1.403 . S
C3155 C3152 1.403 . S
C3155 C3156 1.524 . S
C3155 C3159 1.400 . S
C3156 H3141 0.960 . S
C3156 H3142 0.960 . S
C3156 H3143 0.960 . S
C3156 C3155 1.524 . S
C3157 C3154 1.403 . S
C3157 C3158 1.392 . S
C3157 C3161 1.495 . S
C3158 C3157 1.392 . S
C3158 C3159 1.385 . S
C3158 C3160 1.478 . S
C3159 H3153 0.930 . S
C3159 C3155 1.400 . S
C3159 C3158 1.385 . S
C3160 C3158 1.478 . S
C3160 C3162 1.381 . S
C3160 C3166 1.383 . S
C3161 C3157 1.495 . S
C3161 H3167 0.959 . S
C3161 H3168 0.961 . S
C3161 H3169 0.960 . S
C3162 C3160 1.381 . S
C3162 C3163 1.394 . S
C3162 H3170 0.930 . S
C3163 C3162 1.394 . S
C3163 C3164 1.383 . S
C3163 H3171 0.929 . S
C3164 C3163 1.383 . S
C3164 C3165 1.377 . S
C3165 H3149 0.930 . S
C3165 C3164 1.377 . S
C3165 C3166 1.379 . S
C3166 H3150 0.931 . S
C3166 C3160 1.383 . S
C3166 C3165 1.379 . S
H3167 C3161 0.959 . S
H3168 C3161 0.961 . S
H3169 C3161 0.960 . S
H3170 C3162 0.930 . S
H3171 C3163 0.929 . S
H3172 C3180 0.929 . S
H3173 C3182 0.930 . S
H3174 C3184 0.930 . S
H3175 C3187 0.929 . S
H3176 C3190 0.930 . S
H3177 C3192 0.960 . S
H3178 C3192 0.960 . S
H3179 C3192 0.960 . S
C3180 H3172 0.929 . S
C3180 C3181 1.377 . S
C3180 C3182 1.384 . S
C3181 C3180 1.377 . S
C3181 C3187 1.390 . S
C3182 H3173 0.930 . S
C3182 C3180 1.384 . S
C3182 C3183 1.372 . S
C3183 C3182 1.372 . S
C3183 C3184 1.400 . S
C3183 C3188 1.490 . S
C3184 H3174 0.930 . S
C3184 C3183 1.400 . S
C3184 C3187 1.386 . S
H3185 C3201 0.930 . S
H3186 C3202 0.931 . S
C3187 H3175 0.929 . S
C3187 C3181 1.390 . S
C3187 C3184 1.386 . S
C3188 C3183 1.490 . S
C3188 C3190 1.395 . S
C3188 C3191 1.403 . S
H3189 C3195 0.930 . S
C3190 H3176 0.930 . S
C3190 C3188 1.395 . S
C3190 C3193 1.403 . S
C3191 C3188 1.403 . S
C3191 C3192 1.524 . S
C3191 C3195 1.400 . S
C3192 H3177 0.960 . S
C3192 H3178 0.960 . S
C3192 H3179 0.960 . S
C3192 C3191 1.524 . S
C3193 C3190 1.403 . S
C3193 C3194 1.392 . S
C3193 C3197 1.495 . S
C3194 C3193 1.392 . S
C3194 C3195 1.385 . S
C3194 C3196 1.478 . S
C3195 H3189 0.930 . S
C3195 C3191 1.400 . S
C3195 C3194 1.385 . S
C3196 C3194 1.478 . S
C3196 C3198 1.381 . S
C3196 C3202 1.383 . S
C3197 C3193 1.495 . S
C3197 H3203 0.959 . S
C3197 H3204 0.961 . S
C3197 H3205 0.960 . S
C3198 C3196 1.381 . S
C3198 C3199 1.394 . S
C3198 H3206 0.930 . S
C3199 C3198 1.394 . S
C3199 C3200 1.383 . S
C3199 H3207 0.929 . S
C3200 C3199 1.383 . S
C3200 C3201 1.377 . S
C3201 H3185 0.930 . S
C3201 C3200 1.377 . S
C3201 C3202 1.379 . S
C3202 H3186 0.931 . S
C3202 C3196 1.383 . S
C3202 C3201 1.379 . S
H3203 C3197 0.959 . S
H3204 C3197 0.961 . S
H3205 C3197 0.960 . S
H3206 C3198 0.930 . S
H3207 C3199 0.929 . S
H3208 C3216 0.929 . S
H3209 C3218 0.930 . S
H3210 C3220 0.930 . S
H3211 C3223 0.929 . S
H3212 C3226 0.930 . S
H3213 C3228 0.960 . S
H3214 C3228 0.960 . S
H3215 C3228 0.960 . S
C3216 H3208 0.929 . S
C3216 C3217 1.377 . S
C3216 C3218 1.384 . S
C3217 C3216 1.377 . S
C3217 C3223 1.390 . S
C3218 H3209 0.930 . S
C3218 C3216 1.384 . S
C3218 C3219 1.372 . S
C3219 C3218 1.372 . S
C3219 C3220 1.400 . S
C3219 C3224 1.490 . S
C3220 H3210 0.930 . S
C3220 C3219 1.400 . S
C3220 C3223 1.386 . S
H3221 C3237 0.930 . S
H3222 C3238 0.931 . S
C3223 H3211 0.929 . S
C3223 C3217 1.390 . S
C3223 C3220 1.386 . S
C3224 C3219 1.490 . S
C3224 C3226 1.395 . S
C3224 C3227 1.403 . S
H3225 C3231 0.930 . S
C3226 H3212 0.930 . S
C3226 C3224 1.395 . S
C3226 C3229 1.403 . S
C3227 C3224 1.403 . S
C3227 C3228 1.524 . S
C3227 C3231 1.400 . S
C3228 H3213 0.960 . S
C3228 H3214 0.960 . S
C3228 H3215 0.960 . S
C3228 C3227 1.524 . S
C3229 C3226 1.403 . S
C3229 C3230 1.392 . S
C3229 C3233 1.495 . S
C3230 C3229 1.392 . S
C3230 C3231 1.385 . S
C3230 C3232 1.478 . S
C3231 H3225 0.930 . S
C3231 C3227 1.400 . S
C3231 C3230 1.385 . S
C3232 C3230 1.478 . S
C3232 C3234 1.381 . S
C3232 C3238 1.383 . S
C3233 C3229 1.495 . S
C3233 H3239 0.959 . S
C3233 H3240 0.961 . S
C3233 H3241 0.960 . S
C3234 C3232 1.381 . S
C3234 C3235 1.394 . S
C3234 H3242 0.930 . S
C3235 C3234 1.394 . S
C3235 C3236 1.383 . S
C3235 H3243 0.929 . S
C3236 C3235 1.383 . S
C3236 C3237 1.377 . S
C3237 H3221 0.930 . S
C3237 C3236 1.377 . S
C3237 C3238 1.379 . S
C3238 H3222 0.931 . S
C3238 C3232 1.383 . S
C3238 C3237 1.379 . S
H3239 C3233 0.959 . S
H3240 C3233 0.961 . S
H3241 C3233 0.960 . S
H3242 C3234 0.930 . S
H3243 C3235 0.929 . S
H3244 C3252 0.929 . S
H3245 C3254 0.930 . S
H3246 C3256 0.930 . S
H3247 C3259 0.929 . S
H3248 C3262 0.930 . S
H3249 C3264 0.960 . S
H3250 C3264 0.960 . S
H3251 C3264 0.960 . S
C3252 H3244 0.929 . S
C3252 C3253 1.377 . S
C3252 C3254 1.384 . S
C3253 C3252 1.377 . S
C3253 C3259 1.390 . S
C3254 H3245 0.930 . S
C3254 C3252 1.384 . S
C3254 C3255 1.372 . S
C3255 C3254 1.372 . S
C3255 C3256 1.400 . S
C3255 C3260 1.490 . S
C3256 H3246 0.930 . S
C3256 C3255 1.400 . S
C3256 C3259 1.386 . S
H3257 C3273 0.930 . S
H3258 C3274 0.931 . S
C3259 H3247 0.929 . S
C3259 C3253 1.390 . S
C3259 C3256 1.386 . S
C3260 C3255 1.490 . S
C3260 C3262 1.395 . S
C3260 C3263 1.403 . S
H3261 C3267 0.930 . S
C3262 H3248 0.930 . S
C3262 C3260 1.395 . S
C3262 C3265 1.403 . S
C3263 C3260 1.403 . S
C3263 C3264 1.524 . S
C3263 C3267 1.400 . S
C3264 H3249 0.960 . S
C3264 H3250 0.960 . S
C3264 H3251 0.960 . S
C3264 C3263 1.524 . S
C3265 C3262 1.403 . S
C3265 C3266 1.392 . S
C3265 C3269 1.495 . S
C3266 C3265 1.392 . S
C3266 C3267 1.385 . S
C3266 C3268 1.478 . S
C3267 H3261 0.930 . S
C3267 C3263 1.400 . S
C3267 C3266 1.385 . S
C3268 C3266 1.478 . S
C3268 C3270 1.381 . S
C3268 C3274 1.383 . S
C3269 C3265 1.495 . S
C3269 H3275 0.959 . S
C3269 H3276 0.961 . S
C3269 H3277 0.960 . S
C3270 C3268 1.381 . S
C3270 C3271 1.394 . S
C3270 H3278 0.930 . S
C3271 C3270 1.394 . S
C3271 C3272 1.383 . S
C3271 H3279 0.929 . S
C3272 C3271 1.383 . S
C3272 C3273 1.377 . S
C3273 H3257 0.930 . S
C3273 C3272 1.377 . S
C3273 C3274 1.379 . S
C3274 H3258 0.931 . S
C3274 C3268 1.383 . S
C3274 C3273 1.379 . S
H3275 C3269 0.959 . S
H3276 C3269 0.961 . S
H3277 C3269 0.960 . S
H3278 C3270 0.930 . S
H3279 C3271 0.929 . S
H3280 C3288 0.929 . S
H3281 C3290 0.930 . S
H3282 C3292 0.930 . S
H3283 C3295 0.929 . S
H3284 C3298 0.930 . S
H3285 C3300 0.960 . S
H3286 C3300 0.960 . S
H3287 C3300 0.960 . S
C3288 H3280 0.929 . S
C3288 C3289 1.377 . S
C3288 C3290 1.384 . S
C3289 C3288 1.377 . S
C3289 C3295 1.390 . S
C3290 H3281 0.930 . S
C3290 C3288 1.384 . S
C3290 C3291 1.372 . S
C3291 C3290 1.372 . S
C3291 C3292 1.400 . S
C3291 C3296 1.490 . S
C3292 H3282 0.930 . S
C3292 C3291 1.400 . S
C3292 C3295 1.386 . S
H3293 C3309 0.930 . S
H3294 C3310 0.931 . S
C3295 H3283 0.929 . S
C3295 C3289 1.390 . S
C3295 C3292 1.386 . S
C3296 C3291 1.490 . S
C3296 C3298 1.395 . S
C3296 C3299 1.403 . S
H3297 C3303 0.930 . S
C3298 H3284 0.930 . S
C3298 C3296 1.395 . S
C3298 C3301 1.403 . S
C3299 C3296 1.403 . S
C3299 C3300 1.524 . S
C3299 C3303 1.400 . S
C3300 H3285 0.960 . S
C3300 H3286 0.960 . S
C3300 H3287 0.960 . S
C3300 C3299 1.524 . S
C3301 C3298 1.403 . S
C3301 C3302 1.392 . S
C3301 C3305 1.495 . S
C3302 C3301 1.392 . S
C3302 C3303 1.385 . S
C3302 C3304 1.478 . S
C3303 H3297 0.930 . S
C3303 C3299 1.400 . S
C3303 C3302 1.385 . S
C3304 C3302 1.478 . S
C3304 C3306 1.381 . S
C3304 C3310 1.383 . S
C3305 C3301 1.495 . S
C3305 H3311 0.959 . S
C3305 H3312 0.961 . S
C3305 H3313 0.960 . S
C3306 C3304 1.381 . S
C3306 C3307 1.394 . S
C3306 H3314 0.930 . S
C3307 C3306 1.394 . S
C3307 C3308 1.383 . S
C3307 H3315 0.929 . S
C3308 C3307 1.383 . S
C3308 C3309 1.377 . S
C3309 H3293 0.930 . S
C3309 C3308 1.377 . S
C3309 C3310 1.379 . S
C3310 H3294 0.931 . S
C3310 C3304 1.383 . S
C3310 C3309 1.379 . S
H3311 C3305 0.959 . S
H3312 C3305 0.961 . S
H3313 C3305 0.960 . S
H3314 C3306 0.930 . S
H3315 C3307 0.929 . S
H3316 C3324 0.929 . S
H3317 C3326 0.930 . S
H3318 C3328 0.930 . S
H3319 C3331 0.929 . S
H3320 C3334 0.930 . S
H3321 C3336 0.960 . S
H3322 C3336 0.960 . S
H3323 C3336 0.960 . S
C3324 H3316 0.929 . S
C3324 C3325 1.377 . S
C3324 C3326 1.384 . S
C3325 C3324 1.377 . S
C3325 C3331 1.390 . S
C3326 H3317 0.930 . S
C3326 C3324 1.384 . S
C3326 C3327 1.372 . S
C3327 C3326 1.372 . S
C3327 C3328 1.400 . S
C3327 C3332 1.490 . S
C3328 H3318 0.930 . S
C3328 C3327 1.400 . S
C3328 C3331 1.386 . S
H3329 C3345 0.930 . S
H3330 C3346 0.931 . S
C3331 H3319 0.929 . S
C3331 C3325 1.390 . S
C3331 C3328 1.386 . S
C3332 C3327 1.490 . S
C3332 C3334 1.395 . S
C3332 C3335 1.403 . S
H3333 C3339 0.930 . S
C3334 H3320 0.930 . S
C3334 C3332 1.395 . S
C3334 C3337 1.403 . S
C3335 C3332 1.403 . S
C3335 C3336 1.524 . S
C3335 C3339 1.400 . S
C3336 H3321 0.960 . S
C3336 H3322 0.960 . S
C3336 H3323 0.960 . S
C3336 C3335 1.524 . S
C3337 C3334 1.403 . S
C3337 C3338 1.392 . S
C3337 C3341 1.495 . S
C3338 C3337 1.392 . S
C3338 C3339 1.385 . S
C3338 C3340 1.478 . S
C3339 H3333 0.930 . S
C3339 C3335 1.400 . S
C3339 C3338 1.385 . S
C3340 C3338 1.478 . S
C3340 C3342 1.381 . S
C3340 C3346 1.383 . S
C3341 C3337 1.495 . S
C3341 H3347 0.959 . S
C3341 H3348 0.961 . S
C3341 H3349 0.960 . S
C3342 C3340 1.381 . S
C3342 C3343 1.394 . S
C3342 H3350 0.930 . S
C3343 C3342 1.394 . S
C3343 C3344 1.383 . S
C3343 H3351 0.929 . S
C3344 C3343 1.383 . S
C3344 C3345 1.377 . S
C3345 H3329 0.930 . S
C3345 C3344 1.377 . S
C3345 C3346 1.379 . S
C3346 H3330 0.931 . S
C3346 C3340 1.383 . S
C3346 C3345 1.379 . S
H3347 C3341 0.959 . S
H3348 C3341 0.961 . S
H3349 C3341 0.960 . S
H3350 C3342 0.930 . S
H3351 C3343 0.929 . S
H3352 C3360 0.929 . S
H3353 C3362 0.930 . S
H3354 C3364 0.930 . S
H3355 C3367 0.929 . S
H3356 C3370 0.930 . S
H3357 C3372 0.960 . S
H3358 C3372 0.960 . S
H3359 C3372 0.960 . S
C3360 H3352 0.929 . S
C3360 C3361 1.377 . S
C3360 C3362 1.384 . S
C3361 C3360 1.377 . S
C3361 C3367 1.390 . S
C3362 H3353 0.930 . S
C3362 C3360 1.384 . S
C3362 C3363 1.372 . S
C3363 C3362 1.372 . S
C3363 C3364 1.400 . S
C3363 C3368 1.490 . S
C3364 H3354 0.930 . S
C3364 C3363 1.400 . S
C3364 C3367 1.386 . S
H3365 C3381 0.930 . S
H3366 C3382 0.931 . S
C3367 H3355 0.929 . S
C3367 C3361 1.390 . S
C3367 C3364 1.386 . S
C3368 C3363 1.490 . S
C3368 C3370 1.395 . S
C3368 C3371 1.403 . S
H3369 C3375 0.930 . S
C3370 H3356 0.930 . S
C3370 C3368 1.395 . S
C3370 C3373 1.403 . S
C3371 C3368 1.403 . S
C3371 C3372 1.524 . S
C3371 C3375 1.400 . S
C3372 H3357 0.960 . S
C3372 H3358 0.960 . S
C3372 H3359 0.960 . S
C3372 C3371 1.524 . S
C3373 C3370 1.403 . S
C3373 C3374 1.392 . S
C3373 C3377 1.495 . S
C3374 C3373 1.392 . S
C3374 C3375 1.385 . S
C3374 C3376 1.478 . S
C3375 H3369 0.930 . S
C3375 C3371 1.400 . S
C3375 C3374 1.385 . S
C3376 C3374 1.478 . S
C3376 C3378 1.381 . S
C3376 C3382 1.383 . S
C3377 C3373 1.495 . S
C3377 H3383 0.959 . S
C3377 H3384 0.961 . S
C3377 H3385 0.960 . S
C3378 C3376 1.381 . S
C3378 C3379 1.394 . S
C3378 H3386 0.930 . S
C3379 C3378 1.394 . S
C3379 C3380 1.383 . S
C3379 H3387 0.929 . S
C3380 C3379 1.383 . S
C3380 C3381 1.377 . S
C3381 H3365 0.930 . S
C3381 C3380 1.377 . S
C3381 C3382 1.379 . S
C3382 H3366 0.931 . S
C3382 C3376 1.383 . S
C3382 C3381 1.379 . S
H3383 C3377 0.959 . S
H3384 C3377 0.961 . S
H3385 C3377 0.960 . S
H3386 C3378 0.930 . S
H3387 C3379 0.929 . S
H3388 C3396 0.929 . S
H3389 C3398 0.930 . S
H3390 C3400 0.930 . S
H3391 C3403 0.929 . S
H3392 C3406 0.930 . S
H3393 C3408 0.960 1_545 S
H3394 C3408 0.960 . S
H3395 C3408 0.960 1_556 S
C3396 H3388 0.929 . S
C3396 C3397 1.377 . S
C3396 C3398 1.384 . S
C3397 C3396 1.377 . S
C3397 C3403 1.390 1_554 S
C3398 H3389 0.930 . S
C3398 C3396 1.384 . S
C3398 C3399 1.372 . S
C3399 C3398 1.372 . S
C3399 C3400 1.400 1_554 S
C3399 C3404 1.490 . S
C3400 H3390 0.930 . S
C3400 C3399 1.400 1_556 S
C3400 C3403 1.386 . S
H3401 C3417 0.930 . S
H3402 C3418 0.931 . S
C3403 H3391 0.929 . S
C3403 C3397 1.390 1_556 S
C3403 C3400 1.386 . S
C3404 C3399 1.490 . S
C3404 C3406 1.395 . S
C3404 C3407 1.403 . S
H3405 C3411 0.930 1_545 S
C3406 H3392 0.930 . S
C3406 C3404 1.395 . S
C3406 C3409 1.403 . S
C3407 C3404 1.403 . S
C3407 C3408 1.524 . S
C3407 C3411 1.400 . S
C3408 H3393 0.960 1_565 S
C3408 H3394 0.960 . S
C3408 H3395 0.960 1_554 S
C3408 C3407 1.524 . S
C3409 C3406 1.403 . S
C3409 C3410 1.392 . S
C3409 C3413 1.495 . S
C3410 C3409 1.392 . S
C3410 C3411 1.385 . S
C3410 C3412 1.478 . S
C3411 H3405 0.930 1_565 S
C3411 C3407 1.400 . S
C3411 C3410 1.385 . S
C3412 C3410 1.478 . S
C3412 C3414 1.384 . S
C3412 C3418 1.383 1_554 S
C3413 C3409 1.495 . S
C3413 H3419 0.959 . S
C3413 H3420 0.961 . S
C3413 H3421 0.960 . S
C3414 C3412 1.384 . S
C3414 C3415 1.384 1_565 S
C3414 H3422 0.938 . S
C3415 C3414 1.384 1_545 S
C3415 C3416 1.383 . S
C3415 H3423 0.929 . S
C3416 C3415 1.383 . S
C3416 C3417 1.377 1_554 S
C3417 H3401 0.930 . S
C3417 C3416 1.377 1_556 S
C3417 C3418 1.379 1_545 S
C3418 H3402 0.931 . S
C3418 C3412 1.383 1_556 S
C3418 C3417 1.379 1_565 S
H3419 C3413 0.959 . S
H3420 C3413 0.961 . S
H3421 C3413 0.960 . S
H3422 C3414 0.938 . S
H3423 C3415 0.929 . S
H3424 C3432 0.929 . S
H3425 C3434 0.930 . S
H3426 C3436 0.930 . S
H3427 C3439 0.929 . S
H3428 C3442 0.930 . S
H3429 C3444 0.960 . S
H3430 C3444 0.960 . S
H3431 C3444 0.960 . S
C3432 H3424 0.929 . S
C3432 C3433 1.377 . S
C3432 C3434 1.384 . S
C3433 C3432 1.377 . S
C3433 C3439 1.390 . S
C3434 H3425 0.930 . S
C3434 C3432 1.384 . S
C3434 C3435 1.372 . S
C3435 C3434 1.372 . S
C3435 C3436 1.400 . S
C3435 C3440 1.490 . S
C3436 H3426 0.930 . S
C3436 C3435 1.400 . S
C3436 C3439 1.386 . S
H3437 C3453 0.930 . S
H3438 C3454 0.931 . S
C3439 H3427 0.929 . S
C3439 C3433 1.390 . S
C3439 C3436 1.386 . S
C3440 C3435 1.490 . S
C3440 C3442 1.395 . S
C3440 C3443 1.403 . S
H3441 C3447 0.930 . S
C3442 H3428 0.930 . S
C3442 C3440 1.395 . S
C3442 C3445 1.403 . S
C3443 C3440 1.403 . S
C3443 C3444 1.524 . S
C3443 C3447 1.400 . S
C3444 H3429 0.960 . S
C3444 H3430 0.960 . S
C3444 H3431 0.960 . S
C3444 C3443 1.524 . S
C3445 C3442 1.403 . S
C3445 C3446 1.392 . S
C3445 C3449 1.495 . S
C3446 C3445 1.392 . S
C3446 C3447 1.385 . S
C3446 C3448 1.478 . S
C3447 H3441 0.930 . S
C3447 C3443 1.400 . S
C3447 C3446 1.385 . S
C3448 C3446 1.478 . S
C3448 C3450 1.381 . S
C3448 C3454 1.383 . S
C3449 C3445 1.495 . S
C3449 H3455 0.959 . S
C3449 H3456 0.961 . S
C3449 H3457 0.960 . S
C3450 C3448 1.381 . S
C3450 C3451 1.394 . S
C3450 H3458 0.930 . S
C3451 C3450 1.394 . S
C3451 C3452 1.383 . S
C3451 H3459 0.929 . S
C3452 C3451 1.383 . S
C3452 C3453 1.377 . S
C3453 H3437 0.930 . S
C3453 C3452 1.377 . S
C3453 C3454 1.379 . S
C3454 H3438 0.931 . S
C3454 C3448 1.383 . S
C3454 C3453 1.379 . S
H3455 C3449 0.959 . S
H3456 C3449 0.961 . S
H3457 C3449 0.960 . S
H3458 C3450 0.930 . S
H3459 C3451 0.929 . S
H3460 C3468 0.929 . S
H3461 C3470 0.930 . S
H3462 C3472 0.930 . S
H3463 C3475 0.929 . S
H3464 C3478 0.930 . S
H3465 C3480 0.960 . S
H3466 C3480 0.960 . S
H3467 C3480 0.960 . S
C3468 H3460 0.929 . S
C3468 C3469 1.377 1_556 S
C3468 C3470 1.384 . S
C3469 C3468 1.377 1_554 S
C3469 C3475 1.390 . S
C3470 H3461 0.930 . S
C3470 C3468 1.384 . S
C3470 C3471 1.372 1_556 S
C3471 C3470 1.372 1_554 S
C3471 C3472 1.400 . S
C3471 C3476 1.490 . S
C3472 H3462 0.930 . S
C3472 C3471 1.400 . S
C3472 C3475 1.386 . S
H3473 C3489 0.930 . S
H3474 C3490 0.931 . S
C3475 H3463 0.929 . S
C3475 C3469 1.390 . S
C3475 C3472 1.386 . S
C3476 C3471 1.490 . S
C3476 C3478 1.395 . S
C3476 C3479 1.403 . S
H3477 C3483 0.930 . S
C3478 H3464 0.930 . S
C3478 C3476 1.395 . S
C3478 C3481 1.403 . S
C3479 C3476 1.403 . S
C3479 C3480 1.524 . S
C3479 C3483 1.400 . S
C3480 H3465 0.960 . S
C3480 H3466 0.960 . S
C3480 H3467 0.960 . S
C3480 C3479 1.524 . S
C3481 C3478 1.403 . S
C3481 C3482 1.392 . S
C3481 C3485 1.495 . S
C3482 C3481 1.392 . S
C3482 C3483 1.385 . S
C3482 C3484 1.478 . S
C3483 H3477 0.930 . S
C3483 C3479 1.400 . S
C3483 C3482 1.385 . S
C3484 C3482 1.478 . S
C3484 C3486 1.381 . S
C3484 C3490 1.383 . S
C3485 C3481 1.495 . S
C3485 H3491 0.959 . S
C3485 H3492 0.961 . S
C3485 H3493 0.960 . S
C3486 C3484 1.381 . S
C3486 C3487 1.394 . S
C3486 H3494 0.930 . S
C3487 C3486 1.394 . S
C3487 C3488 1.383 . S
C3487 H3495 0.929 . S
C3488 C3487 1.383 . S
C3488 C3489 1.377 . S
C3489 H3473 0.930 . S
C3489 C3488 1.377 . S
C3489 C3490 1.379 . S
C3490 H3474 0.931 . S
C3490 C3484 1.383 . S
C3490 C3489 1.379 . S
H3491 C3485 0.959 . S
H3492 C3485 0.961 . S
H3493 C3485 0.960 . S
H3494 C3486 0.930 . S
H3495 C3487 0.929 . S
H3496 C3504 0.929 . S
H3497 C3506 0.930 . S
H3498 C3508 0.930 . S
H3499 C3511 0.929 . S
H3500 C3514 0.930 . S
H3501 C3516 0.960 . S
H3502 C3516 0.960 . S
H3503 C3516 0.960 . S
C3504 H3496 0.929 . S
C3504 C3505 1.377 . S
C3504 C3506 1.384 . S
C3505 C3504 1.377 . S
C3505 C3511 1.390 . S
C3506 H3497 0.930 . S
C3506 C3504 1.384 . S
C3506 C3507 1.372 . S
C3507 C3506 1.372 . S
C3507 C3508 1.400 . S
C3507 C3512 1.490 . S
C3508 H3498 0.930 . S
C3508 C3507 1.400 . S
C3508 C3511 1.386 . S
H3509 C3525 0.930 . S
H3510 C3526 0.931 . S
C3511 H3499 0.929 . S
C3511 C3505 1.390 . S
C3511 C3508 1.386 . S
C3512 C3507 1.490 . S
C3512 C3514 1.395 . S
C3512 C3515 1.403 . S
H3513 C3519 0.930 . S
C3514 H3500 0.930 . S
C3514 C3512 1.395 . S
C3514 C3517 1.403 . S
C3515 C3512 1.403 . S
C3515 C3516 1.524 . S
C3515 C3519 1.400 . S
C3516 H3501 0.960 . S
C3516 H3502 0.960 . S
C3516 H3503 0.960 . S
C3516 C3515 1.524 . S
C3517 C3514 1.403 . S
C3517 C3518 1.392 . S
C3517 C3521 1.495 . S
C3518 C3517 1.392 . S
C3518 C3519 1.385 . S
C3518 C3520 1.478 . S
C3519 H3513 0.930 . S
C3519 C3515 1.400 . S
C3519 C3518 1.385 . S
C3520 C3518 1.478 . S
C3520 C3522 1.381 . S
C3520 C3526 1.383 . S
C3521 C3517 1.495 . S
C3521 H3527 0.959 . S
C3521 H3528 0.961 . S
C3521 H3529 0.960 . S
C3522 C3520 1.381 . S
C3522 C3523 1.394 . S
C3522 H3530 0.930 . S
C3523 C3522 1.394 . S
C3523 C3524 1.383 . S
C3523 H3531 0.929 . S
C3524 C3523 1.383 . S
C3524 C3525 1.377 . S
C3525 H3509 0.930 . S
C3525 C3524 1.377 . S
C3525 C3526 1.379 . S
C3526 H3510 0.931 . S
C3526 C3520 1.383 . S
C3526 C3525 1.379 . S
H3527 C3521 0.959 . S
H3528 C3521 0.961 . S
H3529 C3521 0.960 . S
H3530 C3522 0.930 . S
H3531 C3523 0.929 . S
H3532 C3540 0.929 . S
H3533 C3542 0.930 . S
H3534 C3544 0.930 . S
H3535 C3547 0.929 . S
H3536 C3550 0.930 . S
H3537 C3552 0.960 . S
H3538 C3552 0.960 . S
H3539 C3552 0.960 . S
C3540 H3532 0.929 . S
C3540 C3541 1.377 . S
C3540 C3542 1.384 . S
C3541 C3540 1.377 . S
C3541 C3547 1.390 . S
C3542 H3533 0.930 . S
C3542 C3540 1.384 . S
C3542 C3543 1.372 . S
C3543 C3542 1.372 . S
C3543 C3544 1.400 . S
C3543 C3548 1.490 . S
C3544 H3534 0.930 . S
C3544 C3543 1.400 . S
C3544 C3547 1.386 . S
H3545 C3561 0.930 . S
H3546 C3562 0.931 . S
C3547 H3535 0.929 . S
C3547 C3541 1.390 . S
C3547 C3544 1.386 . S
C3548 C3543 1.490 . S
C3548 C3550 1.395 . S
C3548 C3551 1.403 . S
H3549 C3555 0.930 . S
C3550 H3536 0.930 . S
C3550 C3548 1.395 . S
C3550 C3553 1.403 . S
C3551 C3548 1.403 . S
C3551 C3552 1.524 . S
C3551 C3555 1.400 . S
C3552 H3537 0.960 . S
C3552 H3538 0.960 . S
C3552 H3539 0.960 . S
C3552 C3551 1.524 . S
C3553 C3550 1.403 . S
C3553 C3554 1.392 . S
C3553 C3557 1.495 . S
C3554 C3553 1.392 . S
C3554 C3555 1.385 . S
C3554 C3556 1.478 . S
C3555 H3549 0.930 . S
C3555 C3551 1.400 . S
C3555 C3554 1.385 . S
C3556 C3554 1.478 . S
C3556 C3558 1.381 . S
C3556 C3562 1.383 . S
C3557 C3553 1.495 . S
C3557 H3563 0.959 . S
C3557 H3564 0.961 . S
C3557 H3565 0.960 . S
C3558 C3556 1.381 . S
C3558 C3559 1.394 . S
C3558 H3566 0.930 . S
C3559 C3558 1.394 . S
C3559 C3560 1.383 . S
C3559 H3567 0.929 . S
C3560 C3559 1.383 . S
C3560 C3561 1.377 . S
C3561 H3545 0.930 . S
C3561 C3560 1.377 . S
C3561 C3562 1.379 . S
C3562 H3546 0.931 . S
C3562 C3556 1.383 . S
C3562 C3561 1.379 . S
H3563 C3557 0.959 . S
H3564 C3557 0.961 . S
H3565 C3557 0.960 . S
H3566 C3558 0.930 . S
H3567 C3559 0.929 . S
H3568 C3576 0.929 . S
H3569 C3578 0.930 . S
H3570 C3580 0.930 . S
H3571 C3583 0.929 . S
H3572 C3586 0.930 . S
H3573 C3588 0.960 . S
H3574 C3588 0.960 . S
H3575 C3588 0.960 . S
C3576 H3568 0.929 . S
C3576 C3577 1.377 . S
C3576 C3578 1.384 . S
C3577 C3576 1.377 . S
C3577 C3583 1.390 . S
C3578 H3569 0.930 . S
C3578 C3576 1.384 . S
C3578 C3579 1.372 . S
C3579 C3578 1.372 . S
C3579 C3580 1.400 . S
C3579 C3584 1.490 . S
C3580 H3570 0.930 . S
C3580 C3579 1.400 . S
C3580 C3583 1.386 . S
H3581 C3597 0.930 . S
H3582 C3598 0.931 . S
C3583 H3571 0.929 . S
C3583 C3577 1.390 . S
C3583 C3580 1.386 . S
C3584 C3579 1.490 . S
C3584 C3586 1.395 . S
C3584 C3587 1.403 . S
H3585 C3591 0.930 . S
C3586 H3572 0.930 . S
C3586 C3584 1.395 . S
C3586 C3589 1.403 . S
C3587 C3584 1.403 . S
C3587 C3588 1.524 . S
C3587 C3591 1.400 . S
C3588 H3573 0.960 . S
C3588 H3574 0.960 . S
C3588 H3575 0.960 . S
C3588 C3587 1.524 . S
C3589 C3586 1.403 . S
C3589 C3590 1.392 . S
C3589 C3593 1.495 . S
C3590 C3589 1.392 . S
C3590 C3591 1.385 . S
C3590 C3592 1.478 . S
C3591 H3585 0.930 . S
C3591 C3587 1.400 . S
C3591 C3590 1.385 . S
C3592 C3590 1.478 . S
C3592 C3594 1.381 . S
C3592 C3598 1.383 . S
C3593 C3589 1.495 . S
C3593 H3599 0.959 . S
C3593 H3600 0.961 . S
C3593 H3601 0.960 . S
C3594 C3592 1.381 . S
C3594 C3595 1.394 . S
C3594 H3602 0.930 . S
C3595 C3594 1.394 . S
C3595 C3596 1.383 . S
C3595 H3603 0.929 . S
C3596 C3595 1.383 . S
C3596 C3597 1.377 . S
C3597 H3581 0.930 . S
C3597 C3596 1.377 . S
C3597 C3598 1.379 . S
C3598 H3582 0.931 . S
C3598 C3592 1.383 . S
C3598 C3597 1.379 . S
H3599 C3593 0.959 . S
H3600 C3593 0.961 . S
H3601 C3593 0.960 . S
H3602 C3594 0.930 . S
H3603 C3595 0.929 . S
H3604 C3612 0.929 . S
H3605 C3614 0.930 . S
H3606 C3616 0.930 . S
H3607 C3619 0.929 . S
H3608 C3622 0.930 . S
H3609 C3624 0.960 . S
H3610 C3624 0.960 . S
H3611 C3624 0.960 . S
C3612 H3604 0.929 . S
C3612 C3613 1.377 . S
C3612 C3614 1.384 . S
C3613 C3612 1.377 . S
C3613 C3619 1.390 . S
C3614 H3605 0.930 . S
C3614 C3612 1.384 . S
C3614 C3615 1.372 . S
C3615 C3614 1.372 . S
C3615 C3616 1.400 . S
C3615 C3620 1.490 . S
C3616 H3606 0.930 . S
C3616 C3615 1.400 . S
C3616 C3619 1.386 . S
H3617 C3633 0.930 . S
H3618 C3634 0.931 . S
C3619 H3607 0.929 . S
C3619 C3613 1.390 . S
C3619 C3616 1.386 . S
C3620 C3615 1.490 . S
C3620 C3622 1.395 . S
C3620 C3623 1.403 . S
H3621 C3627 0.930 . S
C3622 H3608 0.930 . S
C3622 C3620 1.395 . S
C3622 C3625 1.403 . S
C3623 C3620 1.403 . S
C3623 C3624 1.524 . S
C3623 C3627 1.400 . S
C3624 H3609 0.960 . S
C3624 H3610 0.960 . S
C3624 H3611 0.960 . S
C3624 C3623 1.524 . S
C3625 C3622 1.403 . S
C3625 C3626 1.392 . S
C3625 C3629 1.495 . S
C3626 C3625 1.392 . S
C3626 C3627 1.385 . S
C3626 C3628 1.478 . S
C3627 H3621 0.930 . S
C3627 C3623 1.400 . S
C3627 C3626 1.385 . S
C3628 C3626 1.478 . S
C3628 C3630 1.381 . S
C3628 C3634 1.383 . S
C3629 C3625 1.495 . S
C3629 H3635 0.959 . S
C3629 H3636 0.961 . S
C3629 H3637 0.960 . S
C3630 C3628 1.381 . S
C3630 C3631 1.394 . S
C3630 H3638 0.930 . S
C3631 C3630 1.394 . S
C3631 C3632 1.383 . S
C3631 H3639 0.929 . S
C3632 C3631 1.383 . S
C3632 C3633 1.377 . S
C3633 H3617 0.930 . S
C3633 C3632 1.377 . S
C3633 C3634 1.379 . S
C3634 H3618 0.931 . S
C3634 C3628 1.383 . S
C3634 C3633 1.379 . S
H3635 C3629 0.959 . S
H3636 C3629 0.961 . S
H3637 C3629 0.960 . S
H3638 C3630 0.930 . S
H3639 C3631 0.929 . S
H3640 C3648 0.929 . S
H3641 C3650 0.930 . S
H3642 C3652 0.930 . S
H3643 C3655 0.929 . S
H3644 C3658 0.930 . S
H3645 C3660 0.960 . S
H3646 C3660 0.960 . S
H3647 C3660 0.960 . S
C3648 H3640 0.929 . S
C3648 C3649 1.377 . S
C3648 C3650 1.384 . S
C3649 C3648 1.377 . S
C3649 C3655 1.390 . S
C3650 H3641 0.930 . S
C3650 C3648 1.384 . S
C3650 C3651 1.372 . S
C3651 C3650 1.372 . S
C3651 C3652 1.400 . S
C3651 C3656 1.490 . S
C3652 H3642 0.930 . S
C3652 C3651 1.400 . S
C3652 C3655 1.386 . S
H3653 C3669 0.930 . S
H3654 C3670 0.931 . S
C3655 H3643 0.929 . S
C3655 C3649 1.390 . S
C3655 C3652 1.386 . S
C3656 C3651 1.490 . S
C3656 C3658 1.395 . S
C3656 C3659 1.403 . S
H3657 C3663 0.930 . S
C3658 H3644 0.930 . S
C3658 C3656 1.395 . S
C3658 C3661 1.403 . S
C3659 C3656 1.403 . S
C3659 C3660 1.524 . S
C3659 C3663 1.400 . S
C3660 H3645 0.960 . S
C3660 H3646 0.960 . S
C3660 H3647 0.960 . S
C3660 C3659 1.524 . S
C3661 C3658 1.403 . S
C3661 C3662 1.392 . S
C3661 C3665 1.495 . S
C3662 C3661 1.392 . S
C3662 C3663 1.385 . S
C3662 C3664 1.478 . S
C3663 H3657 0.930 . S
C3663 C3659 1.400 . S
C3663 C3662 1.385 . S
C3664 C3662 1.478 . S
C3664 C3666 1.381 . S
C3664 C3670 1.383 . S
C3665 C3661 1.495 . S
C3665 H3671 0.959 . S
C3665 H3672 0.961 . S
C3665 H3673 0.960 . S
C3666 C3664 1.381 . S
C3666 C3667 1.394 . S
C3666 H3674 0.930 . S
C3667 C3666 1.394 . S
C3667 C3668 1.383 . S
C3667 H3675 0.929 1_554 S
C3668 C3667 1.383 . S
C3668 C3669 1.377 . S
C3669 H3653 0.930 . S
C3669 C3668 1.377 . S
C3669 C3670 1.379 . S
C3670 H3654 0.931 . S
C3670 C3664 1.383 . S
C3670 C3669 1.379 . S
H3671 C3665 0.959 . S
H3672 C3665 0.961 . S
H3673 C3665 0.960 . S
H3674 C3666 0.930 . S
H3675 C3667 0.929 1_556 S
H3676 C3684 0.929 . S
H3677 C3686 0.930 . S
H3678 C3688 0.930 . S
H3679 C3691 0.929 . S
H3680 C3694 0.930 . S
H3681 C3696 0.960 . S
H3682 C3696 0.960 . S
H3683 C3696 0.960 . S
C3684 H3676 0.929 . S
C3684 C3685 1.377 . S
C3684 C3686 1.384 . S
C3685 C3684 1.377 . S
C3685 C3691 1.390 . S
C3686 H3677 0.930 . S
C3686 C3684 1.384 . S
C3686 C3687 1.372 . S
C3687 C3686 1.372 . S
C3687 C3688 1.400 . S
C3687 C3692 1.490 . S
C3688 H3678 0.930 . S
C3688 C3687 1.400 . S
C3688 C3691 1.386 . S
H3689 C3705 0.930 . S
H3690 C3706 0.931 . S
C3691 H3679 0.929 . S
C3691 C3685 1.390 . S
C3691 C3688 1.386 . S
C3692 C3687 1.490 . S
C3692 C3694 1.395 . S
C3692 C3695 1.403 . S
H3693 C3699 0.930 . S
C3694 H3680 0.930 . S
C3694 C3692 1.395 . S
C3694 C3697 1.403 . S
C3695 C3692 1.403 . S
C3695 C3696 1.524 . S
C3695 C3699 1.400 . S
C3696 H3681 0.960 . S
C3696 H3682 0.960 . S
C3696 H3683 0.960 . S
C3696 C3695 1.524 . S
C3697 C3694 1.403 . S
C3697 C3698 1.392 . S
C3697 C3701 1.495 . S
C3698 C3697 1.392 . S
C3698 C3699 1.385 . S
C3698 C3700 1.478 . S
C3699 H3693 0.930 . S
C3699 C3695 1.400 . S
C3699 C3698 1.385 . S
C3700 C3698 1.478 . S
C3700 C3702 1.381 . S
C3700 C3706 1.383 . S
C3701 C3697 1.495 . S
C3701 H3707 0.959 . S
C3701 H3708 0.961 . S
C3701 H3709 0.960 . S
C3702 C3700 1.381 . S
C3702 C3703 1.394 . S
C3702 H3710 0.930 . S
C3703 C3702 1.394 . S
C3703 C3704 1.383 . S
C3703 H3711 0.929 . S
C3704 C3703 1.383 . S
C3704 C3705 1.377 . S
C3705 H3689 0.930 . S
C3705 C3704 1.377 . S
C3705 C3706 1.379 . S
C3706 H3690 0.931 . S
C3706 C3700 1.383 . S
C3706 C3705 1.379 . S
H3707 C3701 0.959 . S
H3708 C3701 0.961 . S
H3709 C3701 0.960 . S
H3710 C3702 0.930 . S
H3711 C3703 0.929 . S
H3712 C3720 0.929 . S
H3713 C3722 0.930 . S
H3714 C3724 0.930 . S
H3715 C3727 0.929 . S
H3716 C3730 0.930 . S
H3717 C3732 0.960 . S
H3718 C3732 0.960 . S
H3719 C3732 0.960 . S
C3720 H3712 0.929 . S
C3720 C3721 1.377 . S
C3720 C3722 1.384 . S
C3721 C3720 1.377 . S
C3721 C3727 1.390 . S
C3722 H3713 0.930 . S
C3722 C3720 1.384 . S
C3722 C3723 1.372 . S
C3723 C3722 1.372 . S
C3723 C3724 1.400 . S
C3723 C3728 1.490 . S
C3724 H3714 0.930 . S
C3724 C3723 1.400 . S
C3724 C3727 1.386 . S
H3725 C3741 0.930 . S
H3726 C3742 0.931 . S
C3727 H3715 0.929 . S
C3727 C3721 1.390 . S
C3727 C3724 1.386 . S
C3728 C3723 1.490 . S
C3728 C3730 1.395 . S
C3728 C3731 1.403 . S
H3729 C3735 0.930 . S
C3730 H3716 0.930 . S
C3730 C3728 1.395 . S
C3730 C3733 1.403 . S
C3731 C3728 1.403 . S
C3731 C3732 1.524 . S
C3731 C3735 1.400 . S
C3732 H3717 0.960 . S
C3732 H3718 0.960 . S
C3732 H3719 0.960 . S
C3732 C3731 1.524 . S
C3733 C3730 1.403 . S
C3733 C3734 1.392 . S
C3733 C3737 1.495 . S
C3734 C3733 1.392 . S
C3734 C3735 1.385 . S
C3734 C3736 1.478 . S
C3735 H3729 0.930 . S
C3735 C3731 1.400 . S
C3735 C3734 1.385 . S
C3736 C3734 1.478 . S
C3736 C3738 1.381 . S
C3736 C3742 1.383 . S
C3737 C3733 1.495 . S
C3737 H3743 0.959 . S
C3737 H3744 0.961 . S
C3737 H3745 0.960 . S
C3738 C3736 1.381 . S
C3738 C3739 1.394 . S
C3738 H3746 0.930 . S
C3739 C3738 1.394 . S
C3739 C3740 1.383 . S
C3739 H3747 0.929 . S
C3740 C3739 1.383 . S
C3740 C3741 1.377 . S
C3741 H3725 0.930 . S
C3741 C3740 1.377 . S
C3741 C3742 1.379 . S
C3742 H3726 0.931 . S
C3742 C3736 1.383 . S
C3742 C3741 1.379 . S
H3743 C3737 0.959 . S
H3744 C3737 0.961 . S
H3745 C3737 0.960 . S
H3746 C3738 0.930 . S
H3747 C3739 0.929 . S
H3748 C3756 0.929 . S
H3749 C3758 0.930 . S
H3750 C3760 0.930 . S
H3751 C3763 0.929 . S
H3752 C3766 0.930 . S
H3753 C3768 0.960 . S
H3754 C3768 0.960 . S
H3755 C3768 0.960 . S
C3756 H3748 0.929 . S
C3756 C3757 1.377 . S
C3756 C3758 1.384 . S
C3757 C3756 1.377 . S
C3757 C3763 1.390 . S
C3758 H3749 0.930 . S
C3758 C3756 1.384 . S
C3758 C3759 1.372 . S
C3759 C3758 1.372 . S
C3759 C3760 1.400 . S
C3759 C3764 1.490 . S
C3760 H3750 0.930 . S
C3760 C3759 1.400 . S
C3760 C3763 1.386 . S
H3761 C3777 0.930 . S
H3762 C3778 0.931 . S
C3763 H3751 0.929 . S
C3763 C3757 1.390 . S
C3763 C3760 1.386 . S
C3764 C3759 1.490 . S
C3764 C3766 1.395 . S
C3764 C3767 1.403 . S
H3765 C3771 0.930 . S
C3766 H3752 0.930 . S
C3766 C3764 1.395 . S
C3766 C3769 1.403 . S
C3767 C3764 1.403 . S
C3767 C3768 1.524 . S
C3767 C3771 1.400 . S
C3768 H3753 0.960 . S
C3768 H3754 0.960 . S
C3768 H3755 0.960 . S
C3768 C3767 1.524 . S
C3769 C3766 1.403 . S
C3769 C3770 1.392 . S
C3769 C3773 1.495 . S
C3770 C3769 1.392 . S
C3770 C3771 1.385 . S
C3770 C3772 1.478 . S
C3771 H3765 0.930 . S
C3771 C3767 1.400 . S
C3771 C3770 1.385 . S
C3772 C3770 1.478 . S
C3772 C3774 1.381 . S
C3772 C3778 1.383 . S
C3773 C3769 1.495 . S
C3773 H3779 0.959 . S
C3773 H3780 0.961 . S
C3773 H3781 0.960 . S
C3774 C3772 1.381 . S
C3774 C3775 1.394 . S
C3774 H3782 0.930 . S
C3775 C3774 1.394 . S
C3775 C3776 1.383 . S
C3775 H3783 0.929 . S
C3776 C3775 1.383 . S
C3776 C3777 1.377 . S
C3777 H3761 0.930 . S
C3777 C3776 1.377 . S
C3777 C3778 1.379 . S
C3778 H3762 0.931 . S
C3778 C3772 1.383 . S
C3778 C3777 1.379 . S
H3779 C3773 0.959 . S
H3780 C3773 0.961 . S
H3781 C3773 0.960 . S
H3782 C3774 0.930 . S
H3783 C3775 0.929 . S
H3784 C3792 0.929 . S
H3785 C3794 0.930 . S
H3786 C3796 0.930 . S
H3787 C3799 0.929 . S
H3788 C3802 0.930 . S
H3789 C3804 0.960 . S
H3790 C3804 0.960 . S
H3791 C3804 0.960 . S
C3792 H3784 0.929 . S
C3792 C3793 1.377 . S
C3792 C3794 1.384 . S
C3793 C3792 1.377 . S
C3793 C3799 1.390 . S
C3794 H3785 0.930 . S
C3794 C3792 1.384 . S
C3794 C3795 1.372 . S
C3795 C3794 1.372 . S
C3795 C3796 1.400 . S
C3795 C3800 1.490 . S
C3796 H3786 0.930 . S
C3796 C3795 1.400 . S
C3796 C3799 1.386 . S
H3797 C3813 0.930 . S
H3798 C3814 0.931 . S
C3799 H3787 0.929 . S
C3799 C3793 1.390 . S
C3799 C3796 1.386 . S
C3800 C3795 1.490 . S
C3800 C3802 1.395 . S
C3800 C3803 1.403 . S
H3801 C3807 0.930 . S
C3802 H3788 0.930 . S
C3802 C3800 1.395 . S
C3802 C3805 1.403 . S
C3803 C3800 1.403 . S
C3803 C3804 1.524 . S
C3803 C3807 1.400 . S
C3804 H3789 0.960 . S
C3804 H3790 0.960 . S
C3804 H3791 0.960 . S
C3804 C3803 1.524 . S
C3805 C3802 1.403 . S
C3805 C3806 1.392 . S
C3805 C3809 1.495 . S
C3806 C3805 1.392 . S
C3806 C3807 1.385 . S
C3806 C3808 1.478 . S
C3807 H3801 0.930 . S
C3807 C3803 1.400 . S
C3807 C3806 1.385 . S
C3808 C3806 1.478 . S
C3808 C3810 1.381 . S
C3808 C3814 1.383 . S
C3809 C3805 1.495 . S
C3809 H3815 0.959 . S
C3809 H3816 0.961 . S
C3809 H3817 0.960 . S
C3810 C3808 1.381 . S
C3810 C3811 1.394 . S
C3810 H3818 0.930 . S
C3811 C3810 1.394 . S
C3811 C3812 1.383 . S
C3811 H3819 0.929 . S
C3812 C3811 1.383 . S
C3812 C3813 1.377 . S
C3813 H3797 0.930 . S
C3813 C3812 1.377 . S
C3813 C3814 1.379 . S
C3814 H3798 0.931 . S
C3814 C3808 1.383 . S
C3814 C3813 1.379 . S
H3815 C3809 0.959 . S
H3816 C3809 0.961 . S
H3817 C3809 0.960 . S
H3818 C3810 0.930 . S
H3819 C3811 0.929 . S
H3820 C3828 0.929 . S
H3821 C3830 0.930 . S
H3822 C3832 0.930 . S
H3823 C3835 0.929 . S
H3824 C3838 0.930 . S
H3825 C3840 0.960 . S
H3826 C3840 0.960 . S
H3827 C3840 0.960 . S
C3828 H3820 0.929 . S
C3828 C3829 1.377 . S
C3828 C3830 1.384 . S
C3829 C3828 1.377 . S
C3829 C3835 1.390 . S
C3830 H3821 0.930 . S
C3830 C3828 1.384 . S
C3830 C3831 1.372 . S
C3831 C3830 1.372 . S
C3831 C3832 1.400 . S
C3831 C3836 1.490 . S
C3832 H3822 0.930 . S
C3832 C3831 1.400 . S
C3832 C3835 1.386 . S
H3833 C3849 0.930 . S
H3834 C3850 0.931 . S
C3835 H3823 0.929 . S
C3835 C3829 1.390 . S
C3835 C3832 1.386 . S
C3836 C3831 1.490 . S
C3836 C3838 1.395 . S
C3836 C3839 1.403 . S
H3837 C3843 0.930 . S
C3838 H3824 0.930 . S
C3838 C3836 1.395 . S
C3838 C3841 1.403 . S
C3839 C3836 1.403 . S
C3839 C3840 1.524 . S
C3839 C3843 1.400 . S
C3840 H3825 0.960 . S
C3840 H3826 0.960 . S
C3840 H3827 0.960 . S
C3840 C3839 1.524 . S
C3841 C3838 1.403 . S
C3841 C3842 1.392 . S
C3841 C3845 1.495 . S
C3842 C3841 1.392 . S
C3842 C3843 1.385 . S
C3842 C3844 1.478 . S
C3843 H3837 0.930 . S
C3843 C3839 1.400 . S
C3843 C3842 1.385 . S
C3844 C3842 1.478 . S
C3844 C3846 1.381 . S
C3844 C3850 1.383 . S
C3845 C3841 1.495 . S
C3845 H3851 0.959 . S
C3845 H3852 0.961 . S
C3845 H3853 0.960 . S
C3846 C3844 1.381 . S
C3846 C3847 1.394 . S
C3846 H3854 0.930 . S
C3847 C3846 1.394 . S
C3847 C3848 1.383 . S
C3847 H3855 0.929 . S
C3848 C3847 1.383 . S
C3848 C3849 1.377 . S
C3849 H3833 0.930 . S
C3849 C3848 1.377 . S
C3849 C3850 1.379 . S
C3850 H3834 0.931 . S
C3850 C3844 1.383 . S
C3850 C3849 1.379 . S
H3851 C3845 0.959 . S
H3852 C3845 0.961 . S
H3853 C3845 0.960 . S
H3854 C3846 0.930 . S
H3855 C3847 0.929 . S
H3856 C3864 0.929 . S
H3857 C3866 0.930 . S
H3858 C3868 0.930 . S
H3859 C3871 0.929 . S
H3860 C3874 0.930 . S
H3861 C3876 0.960 . S
H3862 C3876 0.960 . S
H3863 C3876 0.960 . S
C3864 H3856 0.929 . S
C3864 C3865 1.377 . S
C3864 C3866 1.384 . S
C3865 C3864 1.377 . S
C3865 C3871 1.390 . S
C3866 H3857 0.930 . S
C3866 C3864 1.384 . S
C3866 C3867 1.372 . S
C3867 C3866 1.372 . S
C3867 C3868 1.400 . S
C3867 C3872 1.490 . S
C3868 H3858 0.930 . S
C3868 C3867 1.400 . S
C3868 C3871 1.386 . S
H3869 C3885 0.930 . S
H3870 C3886 0.931 . S
C3871 H3859 0.929 . S
C3871 C3865 1.390 . S
C3871 C3868 1.386 . S
C3872 C3867 1.490 . S
C3872 C3874 1.395 . S
C3872 C3875 1.403 . S
H3873 C3879 0.930 . S
C3874 H3860 0.930 . S
C3874 C3872 1.395 . S
C3874 C3877 1.403 . S
C3875 C3872 1.403 . S
C3875 C3876 1.524 . S
C3875 C3879 1.400 . S
C3876 H3861 0.960 . S
C3876 H3862 0.960 . S
C3876 H3863 0.960 . S
C3876 C3875 1.524 . S
C3877 C3874 1.403 . S
C3877 C3878 1.392 . S
C3877 C3881 1.495 . S
C3878 C3877 1.392 . S
C3878 C3879 1.385 . S
C3878 C3880 1.478 . S
C3879 H3873 0.930 . S
C3879 C3875 1.400 . S
C3879 C3878 1.385 . S
C3880 C3878 1.478 . S
C3880 C3882 1.381 . S
C3880 C3886 1.383 . S
C3881 C3877 1.495 . S
C3881 H3887 0.959 . S
C3881 H3888 0.961 . S
C3881 H3889 0.960 . S
C3882 C3880 1.381 . S
C3882 C3883 1.394 . S
C3882 H3890 0.930 . S
C3883 C3882 1.394 . S
C3883 C3884 1.383 . S
C3883 H3891 0.929 . S
C3884 C3883 1.383 . S
C3884 C3885 1.377 . S
C3885 H3869 0.930 . S
C3885 C3884 1.377 . S
C3885 C3886 1.379 . S
C3886 H3870 0.931 . S
C3886 C3880 1.383 . S
C3886 C3885 1.379 . S
H3887 C3881 0.959 . S
H3888 C3881 0.961 . S
H3889 C3881 0.960 . S
H3890 C3882 0.930 . S
H3891 C3883 0.929 . S
H3892 C3900 0.929 . S
H3893 C3902 0.930 . S
H3894 C3904 0.930 . S
H3895 C3907 0.929 . S
H3896 C3910 0.930 . S
H3897 C3912 0.960 . S
H3898 C3912 0.960 . S
H3899 C3912 0.960 . S
C3900 H3892 0.929 . S
C3900 C3901 1.377 . S
C3900 C3902 1.384 . S
C3901 C3900 1.377 . S
C3901 C3907 1.390 . S
C3902 H3893 0.930 . S
C3902 C3900 1.384 . S
C3902 C3903 1.372 . S
C3903 C3902 1.372 . S
C3903 C3904 1.400 . S
C3903 C3908 1.490 . S
C3904 H3894 0.930 . S
C3904 C3903 1.400 . S
C3904 C3907 1.386 . S
H3905 C3921 0.930 . S
H3906 C3922 0.931 . S
C3907 H3895 0.929 . S
C3907 C3901 1.390 . S
C3907 C3904 1.386 . S
C3908 C3903 1.490 . S
C3908 C3910 1.395 . S
C3908 C3911 1.403 . S
H3909 C3915 0.930 . S
C3910 H3896 0.930 . S
C3910 C3908 1.395 . S
C3910 C3913 1.403 . S
C3911 C3908 1.403 . S
C3911 C3912 1.524 . S
C3911 C3915 1.400 . S
C3912 H3897 0.960 . S
C3912 H3898 0.960 . S
C3912 H3899 0.960 . S
C3912 C3911 1.524 . S
C3913 C3910 1.403 . S
C3913 C3914 1.392 . S
C3913 C3917 1.495 . S
C3914 C3913 1.392 . S
C3914 C3915 1.385 . S
C3914 C3916 1.478 . S
C3915 H3909 0.930 . S
C3915 C3911 1.400 . S
C3915 C3914 1.385 . S
C3916 C3914 1.478 . S
C3916 C3918 1.381 . S
C3916 C3922 1.383 . S
C3917 C3913 1.495 . S
C3917 H3923 0.959 . S
C3917 H3924 0.961 . S
C3917 H3925 0.960 . S
C3918 C3916 1.381 . S
C3918 C3919 1.394 . S
C3918 H3926 0.930 . S
C3919 C3918 1.394 . S
C3919 C3920 1.383 . S
C3919 H3927 0.929 . S
C3920 C3919 1.383 . S
C3920 C3921 1.377 . S
C3921 H3905 0.930 . S
C3921 C3920 1.377 . S
C3921 C3922 1.379 . S
C3922 H3906 0.931 . S
C3922 C3916 1.383 . S
C3922 C3921 1.379 . S
H3923 C3917 0.959 . S
H3924 C3917 0.961 . S
H3925 C3917 0.960 . S
H3926 C3918 0.930 . S
H3927 C3919 0.929 . S
H3928 C3936 0.929 . S
H3929 C3938 0.930 . S
H3930 C3940 0.930 . S
H3931 C3943 0.929 . S
H3932 C3946 0.930 . S
H3933 C3948 0.960 . S
H3934 C3948 0.960 . S
H3935 C3948 0.960 . S
C3936 H3928 0.929 . S
C3936 C3937 1.377 . S
C3936 C3938 1.384 . S
C3937 C3936 1.377 . S
C3937 C3943 1.390 . S
C3938 H3929 0.930 . S
C3938 C3936 1.384 . S
C3938 C3939 1.372 . S
C3939 C3938 1.372 . S
C3939 C3940 1.400 . S
C3939 C3944 1.490 . S
C3940 H3930 0.930 . S
C3940 C3939 1.400 . S
C3940 C3943 1.386 . S
H3941 C3957 0.930 . S
H3942 C3958 0.931 1_655 S
C3943 H3931 0.929 . S
C3943 C3937 1.390 . S
C3943 C3940 1.386 . S
C3944 C3939 1.490 . S
C3944 C3946 1.395 . S
C3944 C3947 1.403 . S
H3945 C3951 0.930 . S
C3946 H3932 0.930 . S
C3946 C3944 1.395 . S
C3946 C3949 1.370 1_655 S
C3947 C3944 1.403 . S
C3947 C3948 1.524 . S
C3947 C3951 1.400 . S
C3948 H3933 0.960 . S
C3948 H3934 0.960 . S
C3948 H3935 0.960 . S
C3948 C3947 1.524 . S
C3949 C3946 1.370 1_455 S
C3949 C3950 1.360 1_455 S
C3949 C3953 1.562 . S
C3950 C3949 1.360 1_655 S
C3950 C3951 1.385 . S
C3950 C3952 1.478 1_655 S
C3951 H3945 0.930 . S
C3951 C3947 1.400 . S
C3951 C3950 1.385 . S
C3952 C3950 1.478 1_455 S
C3952 C3954 1.381 . S
C3952 C3958 1.383 . S
C3953 C3949 1.562 . S
C3953 H3959 0.959 . S
C3953 H3960 0.961 . S
C3953 H3961 0.960 . S
C3954 C3952 1.381 . S
C3954 C3955 1.394 . S
C3954 H3962 0.930 . S
C3955 C3954 1.394 . S
C3955 C3956 1.383 . S
C3955 H3963 0.929 . S
C3956 C3955 1.383 . S
C3956 C3957 1.377 . S
C3957 H3941 0.930 . S
C3957 C3956 1.377 . S
C3957 C3958 1.379 . S
C3958 H3942 0.931 1_455 S
C3958 C3952 1.383 . S
C3958 C3957 1.379 . S
H3959 C3953 0.959 . S
H3960 C3953 0.961 . S
H3961 C3953 0.960 . S
H3962 C3954 0.930 . S
H3963 C3955 0.929 . S
H3964 C3972 0.929 . S
H3965 C3974 0.930 . S
H3966 C3976 0.930 . S
H3967 C3979 0.929 . S
H3968 C3982 0.930 . S
H3969 C3984 0.960 . S
H3970 C3984 0.960 . S
H3971 C3984 0.960 . S
C3972 H3964 0.929 . S
C3972 C3973 1.377 . S
C3972 C3974 1.384 . S
C3973 C3972 1.377 . S
C3973 C3979 1.390 . S
C3974 H3965 0.930 . S
C3974 C3972 1.384 . S
C3974 C3975 1.372 . S
C3975 C3974 1.372 . S
C3975 C3976 1.400 . S
C3975 C3980 1.490 . S
C3976 H3966 0.930 . S
C3976 C3975 1.400 . S
C3976 C3979 1.386 . S
H3977 C3993 0.930 . S
H3978 C3994 0.931 . S
C3979 H3967 0.929 . S
C3979 C3973 1.390 . S
C3979 C3976 1.386 . S
C3980 C3975 1.490 . S
C3980 C3982 1.395 . S
C3980 C3983 1.403 . S
H3981 C3987 0.930 . S
C3982 H3968 0.930 . S
C3982 C3980 1.395 . S
C3982 C3985 1.403 . S
C3983 C3980 1.403 . S
C3983 C3984 1.524 . S
C3983 C3987 1.400 . S
C3984 H3969 0.960 . S
C3984 H3970 0.960 . S
C3984 H3971 0.960 . S
C3984 C3983 1.524 . S
C3985 C3982 1.403 . S
C3985 C3986 1.392 . S
C3985 C3989 1.495 . S
C3986 C3985 1.392 . S
C3986 C3987 1.385 . S
C3986 C3988 1.478 . S
C3987 H3981 0.930 . S
C3987 C3983 1.400 . S
C3987 C3986 1.385 . S
C3988 C3986 1.478 . S
C3988 C3990 1.381 . S
C3988 C3994 1.383 . S
C3989 C3985 1.495 . S
C3989 H3995 0.959 . S
C3989 H3996 0.961 . S
C3989 H3997 0.960 . S
C3990 C3988 1.381 . S
C3990 C3991 1.394 . S
C3990 H3998 0.930 . S
C3991 C3990 1.394 . S
C3991 C3992 1.383 . S
C3991 H3999 0.929 . S
C3992 C3991 1.383 . S
C3992 C3993 1.377 . S
C3993 H3977 0.930 . S
C3993 C3992 1.377 . S
C3993 C3994 1.379 . S
C3994 H3978 0.931 . S
C3994 C3988 1.383 . S
C3994 C3993 1.379 . S
H3995 C3989 0.959 . S
H3996 C3989 0.961 . S
H3997 C3989 0.960 . S
H3998 C3990 0.930 . S
H3999 C3991 0.929 . S
H4000 C4008 0.929 . S
H4001 C4010 0.930 . S
H4002 C4012 0.930 . S
H4003 C4015 0.929 . S
H4004 C4018 0.930 . S
H4005 C4020 0.960 . S
H4006 C4020 0.960 . S
H4007 C4020 0.960 . S
C4008 H4000 0.929 . S
C4008 C4009 1.377 . S
C4008 C4010 1.384 . S
C4009 C4008 1.377 . S
C4009 C4015 1.390 . S
C4010 H4001 0.930 . S
C4010 C4008 1.384 . S
C4010 C4011 1.372 . S
C4011 C4010 1.372 . S
C4011 C4012 1.400 . S
C4011 C4016 1.490 . S
C4012 H4002 0.930 . S
C4012 C4011 1.400 . S
C4012 C4015 1.386 . S
H4013 C4029 0.930 . S
H4014 C4030 0.931 . S
C4015 H4003 0.929 . S
C4015 C4009 1.390 . S
C4015 C4012 1.386 . S
C4016 C4011 1.490 . S
C4016 C4018 1.395 . S
C4016 C4019 1.403 . S
H4017 C4023 0.930 . S
C4018 H4004 0.930 . S
C4018 C4016 1.395 . S
C4018 C4021 1.403 . S
C4019 C4016 1.403 . S
C4019 C4020 1.524 . S
C4019 C4023 1.400 . S
C4020 H4005 0.960 . S
C4020 H4006 0.960 . S
C4020 H4007 0.960 . S
C4020 C4019 1.524 . S
C4021 C4018 1.403 . S
C4021 C4022 1.392 . S
C4021 C4025 1.495 . S
C4022 C4021 1.392 . S
C4022 C4023 1.385 . S
C4022 C4024 1.478 . S
C4023 H4017 0.930 . S
C4023 C4019 1.400 . S
C4023 C4022 1.385 . S
C4024 C4022 1.478 . S
C4024 C4026 1.381 . S
C4024 C4030 1.383 . S
C4025 C4021 1.495 . S
C4025 H4031 0.959 . S
C4025 H4032 0.961 . S
C4025 H4033 0.960 . S
C4026 C4024 1.381 . S
C4026 C4027 1.394 . S
C4026 H4034 0.930 . S
C4027 C4026 1.394 . S
C4027 C4028 1.383 . S
C4027 H4035 0.929 . S
C4028 C4027 1.383 . S
C4028 C4029 1.377 . S
C4029 H4013 0.930 . S
C4029 C4028 1.377 . S
C4029 C4030 1.379 . S
C4030 H4014 0.931 . S
C4030 C4024 1.383 . S
C4030 C4029 1.379 . S
H4031 C4025 0.959 . S
H4032 C4025 0.961 . S
H4033 C4025 0.960 . S
H4034 C4026 0.930 . S
H4035 C4027 0.929 . S
H4036 C4044 0.929 . S
H4037 C4046 0.930 . S
H4038 C4048 0.930 . S
H4039 C4051 0.929 . S
H4040 C4054 0.930 . S
H4041 C4056 0.960 . S
H4042 C4056 0.960 . S
H4043 C4056 0.960 . S
C4044 H4036 0.929 . S
C4044 C4045 1.377 . S
C4044 C4046 1.384 . S
C4045 C4044 1.377 . S
C4045 C4051 1.390 . S
C4046 H4037 0.930 . S
C4046 C4044 1.384 . S
C4046 C4047 1.372 . S
C4047 C4046 1.372 . S
C4047 C4048 1.400 . S
C4047 C4052 1.490 . S
C4048 H4038 0.930 . S
C4048 C4047 1.400 . S
C4048 C4051 1.386 . S
H4049 C4065 0.930 . S
H4050 C4066 0.931 . S
C4051 H4039 0.929 . S
C4051 C4045 1.390 . S
C4051 C4048 1.386 . S
C4052 C4047 1.490 . S
C4052 C4054 1.395 . S
C4052 C4055 1.403 . S
H4053 C4059 0.930 . S
C4054 H4040 0.930 . S
C4054 C4052 1.395 . S
C4054 C4057 1.403 . S
C4055 C4052 1.403 . S
C4055 C4056 1.524 . S
C4055 C4059 1.400 . S
C4056 H4041 0.960 . S
C4056 H4042 0.960 . S
C4056 H4043 0.960 . S
C4056 C4055 1.524 . S
C4057 C4054 1.403 . S
C4057 C4058 1.392 . S
C4057 C4061 1.495 . S
C4058 C4057 1.392 . S
C4058 C4059 1.385 . S
C4058 C4060 1.478 . S
C4059 H4053 0.930 . S
C4059 C4055 1.400 . S
C4059 C4058 1.385 . S
C4060 C4058 1.478 . S
C4060 C4062 1.381 . S
C4060 C4066 1.383 . S
C4061 C4057 1.495 . S
C4061 H4067 0.959 . S
C4061 H4068 0.961 . S
C4061 H4069 0.960 . S
C4062 C4060 1.381 . S
C4062 C4063 1.394 . S
C4062 H4070 0.930 . S
C4063 C4062 1.394 . S
C4063 C4064 1.383 . S
C4063 H4071 0.929 . S
C4064 C4063 1.383 . S
C4064 C4065 1.377 . S
C4065 H4049 0.930 . S
C4065 C4064 1.377 . S
C4065 C4066 1.379 . S
C4066 H4050 0.931 . S
C4066 C4060 1.383 . S
C4066 C4065 1.379 . S
H4067 C4061 0.959 . S
H4068 C4061 0.961 . S
H4069 C4061 0.960 . S
H4070 C4062 0.930 . S
H4071 C4063 0.929 . S
H4072 C4080 0.929 . S
H4073 C4082 0.930 . S
H4074 C4084 0.930 . S
H4075 C4087 0.929 . S
H4076 C4090 0.930 . S
H4077 C4092 0.960 . S
H4078 C4092 0.960 . S
H4079 C4092 0.960 . S
C4080 H4072 0.929 . S
C4080 C4081 1.377 . S
C4080 C4082 1.384 . S
C4081 C4080 1.377 . S
C4081 C4087 1.390 . S
C4082 H4073 0.930 . S
C4082 C4080 1.384 . S
C4082 C4083 1.372 . S
C4083 C4082 1.372 . S
C4083 C4084 1.400 . S
C4083 C4088 1.490 . S
C4084 H4074 0.930 . S
C4084 C4083 1.400 . S
C4084 C4087 1.386 . S
H4085 C4101 0.930 . S
H4086 C4102 0.931 . S
C4087 H4075 0.929 . S
C4087 C4081 1.390 . S
C4087 C4084 1.386 . S
C4088 C4083 1.490 . S
C4088 C4090 1.395 . S
C4088 C4091 1.403 . S
H4089 C4095 0.930 . S
C4090 H4076 0.930 . S
C4090 C4088 1.395 . S
C4090 C4093 1.403 . S
C4091 C4088 1.403 . S
C4091 C4092 1.524 . S
C4091 C4095 1.400 . S
C4092 H4077 0.960 . S
C4092 H4078 0.960 . S
C4092 H4079 0.960 . S
C4092 C4091 1.524 . S
C4093 C4090 1.403 . S
C4093 C4094 1.392 . S
C4093 C4097 1.493 . S
C4094 C4093 1.392 . S
C4094 C4095 1.385 . S
C4094 C4096 1.478 . S
C4095 H4089 0.930 . S
C4095 C4091 1.400 . S
C4095 C4094 1.385 . S
C4096 C4094 1.478 . S
C4096 C4098 1.381 . S
C4096 C4102 1.383 . S
C4097 C4093 1.493 . S
C4097 H4103 0.960 1_655 S
C4097 H4104 0.963 1_655 S
C4097 H4105 0.960 1_655 S
C4098 C4096 1.381 . S
C4098 C4099 1.394 . S
C4098 H4106 0.930 . S
C4099 C4098 1.394 . S
C4099 C4100 1.383 . S
C4099 H4107 0.912 1_655 S
C4100 C4099 1.383 . S
C4100 C4101 1.377 . S
C4101 H4085 0.930 . S
C4101 C4100 1.377 . S
C4101 C4102 1.379 . S
C4102 H4086 0.931 . S
C4102 C4096 1.383 . S
C4102 C4101 1.379 . S
H4103 C4097 0.960 1_455 S
H4104 C4097 0.963 1_455 S
H4105 C4097 0.960 1_455 S
H4106 C4098 0.930 . S
H4107 C4099 0.912 1_455 S
H4108 C4116 0.929 . S
H4109 C4118 0.930 . S
H4110 C4120 0.930 . S
H4111 C4123 0.929 . S
H4112 C4126 0.930 . S
H4113 C4128 0.960 . S
H4114 C4128 0.960 . S
H4115 C4128 0.960 . S
C4116 H4108 0.929 . S
C4116 C4117 1.377 . S
C4116 C4118 1.384 . S
C4117 C4116 1.377 . S
C4117 C4123 1.390 . S
C4118 H4109 0.930 . S
C4118 C4116 1.384 . S
C4118 C4119 1.372 . S
C4119 C4118 1.372 . S
C4119 C4120 1.400 . S
C4119 C4124 1.490 . S
C4120 H4110 0.930 . S
C4120 C4119 1.400 . S
C4120 C4123 1.386 . S
H4121 C4137 0.930 . S
H4122 C4138 0.931 . S
C4123 H4111 0.929 . S
C4123 C4117 1.390 . S
C4123 C4120 1.386 . S
C4124 C4119 1.490 . S
C4124 C4126 1.395 . S
C4124 C4127 1.403 . S
H4125 C4131 0.930 . S
C4126 H4112 0.930 . S
C4126 C4124 1.395 . S
C4126 C4129 1.403 . S
C4127 C4124 1.403 . S
C4127 C4128 1.524 . S
C4127 C4131 1.400 . S
C4128 H4113 0.960 . S
C4128 H4114 0.960 . S
C4128 H4115 0.960 . S
C4128 C4127 1.524 . S
C4129 C4126 1.403 . S
C4129 C4130 1.392 . S
C4129 C4133 1.495 . S
C4130 C4129 1.392 . S
C4130 C4131 1.385 . S
C4130 C4132 1.478 . S
C4131 H4125 0.930 . S
C4131 C4127 1.400 . S
C4131 C4130 1.385 . S
C4132 C4130 1.478 . S
C4132 C4134 1.381 . S
C4132 C4138 1.383 . S
C4133 C4129 1.495 . S
C4133 H4139 0.959 . S
C4133 H4140 0.961 . S
C4133 H4141 0.960 . S
C4134 C4132 1.381 . S
C4134 C4135 1.394 . S
C4134 H4142 0.930 . S
C4135 C4134 1.394 . S
C4135 C4136 1.383 . S
C4135 H4143 0.929 . S
C4136 C4135 1.383 . S
C4136 C4137 1.377 . S
C4137 H4121 0.930 . S
C4137 C4136 1.377 . S
C4137 C4138 1.379 . S
C4138 H4122 0.931 . S
C4138 C4132 1.383 . S
C4138 C4137 1.379 . S
H4139 C4133 0.959 . S
H4140 C4133 0.961 . S
H4141 C4133 0.960 . S
H4142 C4134 0.930 . S
H4143 C4135 0.929 . S
H4144 C4152 0.929 . S
H4145 C4154 0.930 . S
H4146 C4156 0.930 . S
H4147 C4159 0.929 . S
H4148 C4162 0.930 . S
H4149 C4164 0.960 . S
H4150 C4164 0.960 . S
H4151 C4164 0.960 . S
C4152 H4144 0.929 . S
C4152 C4153 1.377 . S
C4152 C4154 1.384 . S
C4153 C4152 1.377 . S
C4153 C4159 1.390 . S
C4154 H4145 0.930 . S
C4154 C4152 1.384 . S
C4154 C4155 1.372 . S
C4155 C4154 1.372 . S
C4155 C4156 1.400 . S
C4155 C4160 1.490 . S
C4156 H4146 0.930 . S
C4156 C4155 1.400 . S
C4156 C4159 1.386 . S
H4157 C4173 0.930 . S
H4158 C4174 0.931 . S
C4159 H4147 0.929 . S
C4159 C4153 1.390 . S
C4159 C4156 1.386 . S
C4160 C4155 1.490 . S
C4160 C4162 1.395 . S
C4160 C4163 1.403 . S
H4161 C4167 0.930 . S
C4162 H4148 0.930 . S
C4162 C4160 1.395 . S
C4162 C4165 1.403 . S
C4163 C4160 1.403 . S
C4163 C4164 1.524 . S
C4163 C4167 1.400 . S
C4164 H4149 0.960 . S
C4164 H4150 0.960 . S
C4164 H4151 0.960 . S
C4164 C4163 1.524 . S
C4165 C4162 1.403 . S
C4165 C4166 1.392 . S
C4165 C4169 1.495 . S
C4166 C4165 1.392 . S
C4166 C4167 1.385 . S
C4166 C4168 1.478 . S
C4167 H4161 0.930 . S
C4167 C4163 1.400 . S
C4167 C4166 1.385 . S
C4168 C4166 1.478 . S
C4168 C4170 1.381 . S
C4168 C4174 1.383 . S
C4169 C4165 1.495 . S
C4169 H4175 0.959 . S
C4169 H4176 0.961 . S
C4169 H4177 0.960 . S
C4170 C4168 1.381 . S
C4170 C4171 1.394 . S
C4170 H4178 0.930 . S
C4171 C4170 1.394 . S
C4171 C4172 1.383 . S
C4171 H4179 0.929 . S
C4172 C4171 1.383 . S
C4172 C4173 1.377 . S
C4173 H4157 0.930 . S
C4173 C4172 1.377 . S
C4173 C4174 1.379 . S
C4174 H4158 0.931 . S
C4174 C4168 1.383 . S
C4174 C4173 1.379 . S
H4175 C4169 0.959 . S
H4176 C4169 0.961 . S
H4177 C4169 0.960 . S
H4178 C4170 0.930 . S
H4179 C4171 0.929 . S
H4180 C4188 0.929 . S
H4181 C4190 0.930 . S
H4182 C4192 0.930 . S
H4183 C4195 0.929 . S
H4184 C4198 0.930 . S
H4185 C4200 0.960 . S
H4186 C4200 0.960 . S
H4187 C4200 0.960 . S
C4188 H4180 0.929 . S
C4188 C4189 1.377 . S
C4188 C4190 1.384 . S
C4189 C4188 1.377 . S
C4189 C4195 1.390 . S
C4190 H4181 0.930 . S
C4190 C4188 1.384 . S
C4190 C4191 1.372 . S
C4191 C4190 1.372 . S
C4191 C4192 1.400 . S
C4191 C4196 1.490 . S
C4192 H4182 0.930 . S
C4192 C4191 1.400 . S
C4192 C4195 1.386 . S
H4193 C4209 0.930 . S
H4194 C4210 0.922 1_545 S
C4195 H4183 0.929 . S
C4195 C4189 1.390 . S
C4195 C4192 1.386 . S
C4196 C4191 1.490 . S
C4196 C4198 1.395 . S
C4196 C4199 1.403 . S
H4197 C4203 0.930 . S
C4198 H4184 0.930 . S
C4198 C4196 1.395 . S
C4198 C4201 1.403 . S
C4199 C4196 1.403 . S
C4199 C4200 1.524 . S
C4199 C4203 1.400 . S
C4200 H4185 0.960 . S
C4200 H4186 0.960 . S
C4200 H4187 0.960 . S
C4200 C4199 1.524 . S
C4201 C4198 1.403 . S
C4201 C4202 1.392 . S
C4201 C4205 1.495 . S
C4202 C4201 1.392 . S
C4202 C4203 1.385 . S
C4202 C4204 1.478 . S
C4203 H4197 0.930 . S
C4203 C4199 1.400 . S
C4203 C4202 1.385 . S
C4204 C4202 1.478 . S
C4204 C4206 1.381 . S
C4204 C4210 1.383 . S
C4205 C4201 1.495 . S
C4205 H4211 0.959 . S
C4205 H4212 0.961 . S
C4205 H4213 0.960 . S
C4206 C4204 1.381 . S
C4206 C4207 1.394 . S
C4206 H4214 0.930 . S
C4207 C4206 1.394 . S
C4207 C4208 1.359 1_565 S
C4207 H4215 0.929 . S
C4208 C4207 1.359 1_545 S
C4208 C4209 1.390 . S
C4209 H4193 0.930 . S
C4209 C4208 1.390 . S
C4209 C4210 1.379 1_545 S
C4210 H4194 0.922 1_565 S
C4210 C4204 1.383 . S
C4210 C4209 1.379 1_565 S
H4211 C4205 0.959 . S
H4212 C4205 0.961 . S
H4213 C4205 0.960 . S
H4214 C4206 0.930 . S
H4215 C4207 0.929 . S
H4216 C4224 0.929 . S
H4217 C4226 0.930 . S
H4218 C4228 0.930 . S
H4219 C4231 0.929 . S
H4220 C4234 0.930 . S
H4221 C4236 0.960 . S
H4222 C4236 0.960 . S
H4223 C4236 0.960 . S
C4224 H4216 0.929 . S
C4224 C4225 1.377 . S
C4224 C4226 1.384 . S
C4225 C4224 1.377 . S
C4225 C4231 1.390 . S
C4226 H4217 0.930 . S
C4226 C4224 1.384 . S
C4226 C4227 1.372 . S
C4227 C4226 1.372 . S
C4227 C4228 1.400 . S
C4227 C4232 1.490 . S
C4228 H4218 0.930 . S
C4228 C4227 1.400 . S
C4228 C4231 1.386 . S
H4229 C4245 0.930 . S
H4230 C4246 0.931 . S
C4231 H4219 0.929 . S
C4231 C4225 1.390 . S
C4231 C4228 1.386 . S
C4232 C4227 1.490 . S
C4232 C4234 1.395 . S
C4232 C4235 1.403 . S
H4233 C4239 0.930 . S
C4234 H4220 0.930 . S
C4234 C4232 1.395 . S
C4234 C4237 1.403 . S
C4235 C4232 1.403 . S
C4235 C4236 1.524 . S
C4235 C4239 1.400 . S
C4236 H4221 0.960 . S
C4236 H4222 0.960 . S
C4236 H4223 0.960 . S
C4236 C4235 1.524 . S
C4237 C4234 1.403 . S
C4237 C4238 1.392 . S
C4237 C4241 1.495 . S
C4238 C4237 1.392 . S
C4238 C4239 1.385 . S
C4238 C4240 1.478 . S
C4239 H4233 0.930 . S
C4239 C4235 1.400 . S
C4239 C4238 1.385 . S
C4240 C4238 1.478 . S
C4240 C4242 1.381 . S
C4240 C4246 1.383 . S
C4241 C4237 1.495 . S
C4241 H4247 0.959 . S
C4241 H4248 0.961 . S
C4241 H4249 0.960 . S
C4242 C4240 1.381 . S
C4242 C4243 1.394 . S
C4242 H4250 0.930 . S
C4243 C4242 1.394 . S
C4243 C4244 1.383 . S
C4243 H4251 0.929 . S
C4244 C4243 1.383 . S
C4244 C4245 1.377 . S
C4245 H4229 0.930 . S
C4245 C4244 1.377 . S
C4245 C4246 1.379 . S
C4246 H4230 0.931 . S
C4246 C4240 1.383 . S
C4246 C4245 1.379 . S
H4247 C4241 0.959 . S
H4248 C4241 0.961 . S
H4249 C4241 0.960 . S
H4250 C4242 0.930 . S
H4251 C4243 0.929 . S
H4252 C4260 0.929 . S
H4253 C4262 0.930 . S
H4254 C4264 0.930 . S
H4255 C4267 0.929 . S
H4256 C4270 0.919 1_556 S
H4257 C4272 0.960 . S
H4258 C4272 0.960 . S
H4259 C4272 0.960 . S
C4260 H4252 0.929 . S
C4260 C4261 1.377 . S
C4260 C4262 1.384 . S
C4261 C4260 1.377 . S
C4261 C4267 1.390 1_554 S
C4262 H4253 0.930 . S
C4262 C4260 1.384 . S
C4262 C4263 1.372 . S
C4263 C4262 1.372 . S
C4263 C4264 1.400 1_554 S
C4263 C4268 1.490 . S
C4264 H4254 0.930 . S
C4264 C4263 1.400 1_556 S
C4264 C4267 1.386 . S
H4265 C4281 0.930 . S
H4266 C4282 0.931 . S
C4267 H4255 0.929 . S
C4267 C4261 1.390 1_556 S
C4267 C4264 1.386 . S
C4268 C4263 1.490 . S
C4268 C4270 1.395 . S
C4268 C4271 1.403 . S
H4269 C4275 0.930 . S
C4270 H4256 0.919 1_554 S
C4270 C4268 1.395 . S
C4270 C4273 1.403 . S
C4271 C4268 1.403 . S
C4271 C4272 1.524 . S
C4271 C4275 1.400 . S
C4272 H4257 0.960 . S
C4272 H4258 0.960 . S
C4272 H4259 0.960 . S
C4272 C4271 1.524 . S
C4273 C4270 1.403 . S
C4273 C4274 1.392 . S
C4273 C4277 1.495 1_554 S
C4274 C4273 1.392 . S
C4274 C4275 1.385 . S
C4274 C4276 1.478 . S
C4275 H4269 0.930 . S
C4275 C4271 1.400 . S
C4275 C4274 1.385 . S
C4276 C4274 1.478 . S
C4276 C4278 1.381 . S
C4276 C4282 1.383 1_554 S
C4277 C4273 1.495 1_556 S
C4277 H4283 0.959 . S
C4277 H4284 0.961 . S
C4277 H4285 0.960 1_556 S
C4278 C4276 1.381 . S
C4278 C4279 1.394 . S
C4278 H4286 0.930 . S
C4279 C4278 1.394 . S
C4279 C4280 1.383 . S
C4279 H4287 0.929 . S
C4280 C4279 1.383 . S
C4280 C4281 1.377 1_554 S
C4281 H4265 0.930 . S
C4281 C4280 1.377 1_556 S
C4281 C4282 1.379 . S
C4282 H4266 0.931 . S
C4282 C4276 1.383 1_556 S
C4282 C4281 1.379 . S
H4283 C4277 0.959 . S
H4284 C4277 0.961 . S
H4285 C4277 0.960 1_554 S
H4286 C4278 0.930 . S
H4287 C4279 0.929 . S
H4288 C4296 0.929 . S
H4289 C4298 0.930 . S
H4290 C4300 0.930 . S
H4291 C4303 0.929 . S
H4292 C4306 0.930 . S
H4293 C4308 0.960 . S
H4294 C4308 0.960 . S
H4295 C4308 0.960 . S
C4296 H4288 0.929 . S
C4296 C4297 1.377 . S
C4296 C4298 1.384 . S
C4297 C4296 1.377 . S
C4297 C4303 1.390 . S
C4298 H4289 0.930 . S
C4298 C4296 1.384 . S
C4298 C4299 1.372 . S
C4299 C4298 1.372 . S
C4299 C4300 1.400 . S
C4299 C4304 1.490 . S
C4300 H4290 0.930 . S
C4300 C4299 1.400 . S
C4300 C4303 1.386 . S
H4301 C4317 0.930 . S
H4302 C4318 0.931 . S
C4303 H4291 0.929 . S
C4303 C4297 1.390 . S
C4303 C4300 1.386 . S
C4304 C4299 1.490 . S
C4304 C4306 1.395 . S
C4304 C4307 1.403 . S
H4305 C4311 0.930 . S
C4306 H4292 0.930 . S
C4306 C4304 1.395 . S
C4306 C4309 1.403 . S
C4307 C4304 1.403 . S
C4307 C4308 1.524 . S
C4307 C4311 1.400 . S
C4308 H4293 0.960 . S
C4308 H4294 0.960 . S
C4308 H4295 0.960 . S
C4308 C4307 1.524 . S
C4309 C4306 1.403 . S
C4309 C4310 1.392 . S
C4309 C4313 1.495 . S
C4310 C4309 1.392 . S
C4310 C4311 1.385 . S
C4310 C4312 1.478 . S
C4311 H4305 0.930 . S
C4311 C4307 1.400 . S
C4311 C4310 1.385 . S
C4312 C4310 1.478 . S
C4312 C4314 1.381 . S
C4312 C4318 1.383 . S
C4313 C4309 1.495 . S
C4313 H4319 0.959 . S
C4313 H4320 0.961 . S
C4313 H4321 0.960 . S
C4314 C4312 1.381 . S
C4314 C4315 1.394 . S
C4314 H4322 0.930 . S
C4315 C4314 1.394 . S
C4315 C4316 1.383 . S
C4315 H4323 0.929 . S
C4316 C4315 1.383 . S
C4316 C4317 1.377 . S
C4317 H4301 0.930 . S
C4317 C4316 1.377 . S
C4317 C4318 1.379 . S
C4318 H4302 0.931 . S
C4318 C4312 1.383 . S
C4318 C4317 1.379 . S
H4319 C4313 0.959 . S
H4320 C4313 0.961 . S
H4321 C4313 0.960 . S
H4322 C4314 0.930 . S
H4323 C4315 0.929 . S
H4324 C4332 0.929 . S
H4325 C4334 0.930 . S
H4326 C4336 0.930 . S
H4327 C4339 0.929 . S
H4328 C4342 0.940 . S
H4329 C4344 0.960 . S
H4330 C4344 0.960 . S
H4331 C4344 0.960 . S
C4332 H4324 0.929 . S
C4332 C4333 1.377 . S
C4332 C4334 1.384 . S
C4333 C4332 1.377 . S
C4333 C4339 1.390 1_554 S
C4334 H4325 0.930 . S
C4334 C4332 1.384 . S
C4334 C4335 1.372 . S
C4335 C4334 1.372 . S
C4335 C4336 1.400 1_554 S
C4335 C4340 1.490 . S
C4336 H4326 0.930 . S
C4336 C4335 1.400 1_556 S
C4336 C4339 1.386 . S
H4337 C4353 0.930 . S
H4338 C4354 0.931 . S
C4339 H4327 0.929 . S
C4339 C4333 1.390 1_556 S
C4339 C4336 1.386 . S
C4340 C4335 1.490 . S
C4340 C4342 1.375 1_554 S
C4340 C4343 1.403 . S
H4341 C4347 0.927 . S
C4342 H4328 0.940 . S
C4342 C4340 1.375 1_556 S
C4342 C4345 1.416 . S
C4343 C4340 1.403 . S
C4343 C4344 1.524 . S
C4343 C4347 1.403 . S
C4344 H4329 0.960 . S
C4344 H4330 0.960 . S
C4344 H4331 0.960 . S
C4344 C4343 1.524 . S
C4345 C4342 1.416 . S
C4345 C4346 1.392 . S
C4345 C4349 1.495 . S
C4346 C4345 1.392 . S
C4346 C4347 1.379 1_556 S
C4346 C4348 1.478 . S
C4347 H4341 0.927 . S
C4347 C4343 1.403 . S
C4347 C4346 1.379 1_554 S
C4348 C4346 1.478 . S
C4348 C4350 1.381 1_556 S
C4348 C4354 1.383 . S
C4349 C4345 1.495 . S
C4349 H4355 0.959 . S
C4349 H4356 0.961 . S
C4349 H4357 0.974 . S
C4350 C4348 1.381 1_554 S
C4350 C4351 1.394 . S
C4350 H4358 0.930 . S
C4351 C4350 1.394 . S
C4351 C4352 1.383 1_554 S
C4351 H4359 0.929 . S
C4352 C4351 1.383 1_556 S
C4352 C4353 1.377 . S
C4353 H4337 0.930 . S
C4353 C4352 1.377 . S
C4353 C4354 1.379 . S
C4354 H4338 0.931 . S
C4354 C4348 1.383 . S
C4354 C4353 1.379 . S
H4355 C4349 0.959 . S
H4356 C4349 0.961 . S
H4357 C4349 0.974 . S
H4358 C4350 0.930 . S
H4359 C4351 0.929 . S
H4360 C4368 0.929 . S
H4361 C4370 0.930 . S
H4362 C4372 0.930 . S
H4363 C4375 0.929 . S
H4364 C4378 0.930 . S
H4365 C4380 0.960 . S
H4366 C4380 0.960 . S
H4367 C4380 0.960 . S
C4368 H4360 0.929 . S
C4368 C4369 1.377 . S
C4368 C4370 1.384 . S
C4369 C4368 1.377 . S
C4369 C4375 1.390 . S
C4370 H4361 0.930 . S
C4370 C4368 1.384 . S
C4370 C4371 1.372 . S
C4371 C4370 1.372 . S
C4371 C4372 1.400 . S
C4371 C4376 1.490 . S
C4372 H4362 0.930 . S
C4372 C4371 1.400 . S
C4372 C4375 1.386 . S
H4373 C4389 0.930 . S
H4374 C4390 0.931 . S
C4375 H4363 0.929 . S
C4375 C4369 1.390 . S
C4375 C4372 1.386 . S
C4376 C4371 1.490 . S
C4376 C4378 1.395 . S
C4376 C4379 1.403 . S
H4377 C4383 0.930 . S
C4378 H4364 0.930 . S
C4378 C4376 1.395 . S
C4378 C4381 1.403 . S
C4379 C4376 1.403 . S
C4379 C4380 1.524 . S
C4379 C4383 1.400 . S
C4380 H4365 0.960 . S
C4380 H4366 0.960 . S
C4380 H4367 0.960 . S
C4380 C4379 1.524 . S
C4381 C4378 1.403 . S
C4381 C4382 1.392 . S
C4381 C4385 1.495 . S
C4382 C4381 1.392 . S
C4382 C4383 1.385 . S
C4382 C4384 1.478 . S
C4383 H4377 0.930 . S
C4383 C4379 1.400 . S
C4383 C4382 1.385 . S
C4384 C4382 1.478 . S
C4384 C4386 1.381 . S
C4384 C4390 1.383 . S
C4385 C4381 1.495 . S
C4385 H4391 0.959 . S
C4385 H4392 0.961 . S
C4385 H4393 0.960 . S
C4386 C4384 1.381 . S
C4386 C4387 1.394 . S
C4386 H4394 0.930 . S
C4387 C4386 1.394 . S
C4387 C4388 1.383 . S
C4387 H4395 0.929 . S
C4388 C4387 1.383 . S
C4388 C4389 1.377 . S
C4389 H4373 0.930 . S
C4389 C4388 1.377 . S
C4389 C4390 1.379 . S
C4390 H4374 0.931 . S
C4390 C4384 1.383 . S
C4390 C4389 1.379 . S
H4391 C4385 0.959 . S
H4392 C4385 0.961 . S
H4393 C4385 0.960 . S
H4394 C4386 0.930 . S
H4395 C4387 0.929 . S
H4396 C4404 0.929 . S
H4397 C4406 0.930 . S
H4398 C4408 0.930 . S
H4399 C4411 0.929 . S
H4400 C4414 0.930 . S
H4401 C4416 0.960 . S
H4402 C4416 0.960 . S
H4403 C4416 0.960 . S
C4404 H4396 0.929 . S
C4404 C4405 1.377 . S
C4404 C4406 1.384 . S
C4405 C4404 1.377 . S
C4405 C4411 1.390 . S
C4406 H4397 0.930 . S
C4406 C4404 1.384 . S
C4406 C4407 1.372 . S
C4407 C4406 1.372 . S
C4407 C4408 1.400 . S
C4407 C4412 1.490 . S
C4408 H4398 0.930 . S
C4408 C4407 1.400 . S
C4408 C4411 1.386 . S
H4409 C4425 0.930 . S
H4410 C4426 0.931 . S
C4411 H4399 0.929 . S
C4411 C4405 1.390 . S
C4411 C4408 1.386 . S
C4412 C4407 1.490 . S
C4412 C4414 1.395 . S
C4412 C4415 1.403 . S
H4413 C4419 0.930 . S
C4414 H4400 0.930 . S
C4414 C4412 1.395 . S
C4414 C4417 1.403 . S
C4415 C4412 1.403 . S
C4415 C4416 1.524 . S
C4415 C4419 1.400 . S
C4416 H4401 0.960 . S
C4416 H4402 0.960 . S
C4416 H4403 0.960 . S
C4416 C4415 1.524 . S
C4417 C4414 1.403 . S
C4417 C4418 1.392 . S
C4417 C4421 1.495 . S
C4418 C4417 1.392 . S
C4418 C4419 1.385 . S
C4418 C4420 1.478 . S
C4419 H4413 0.930 . S
C4419 C4415 1.400 . S
C4419 C4418 1.385 . S
C4420 C4418 1.478 . S
C4420 C4422 1.381 . S
C4420 C4426 1.383 . S
C4421 C4417 1.495 . S
C4421 H4427 0.959 . S
C4421 H4428 0.961 . S
C4421 H4429 0.960 . S
C4422 C4420 1.381 . S
C4422 C4423 1.394 . S
C4422 H4430 0.930 . S
C4423 C4422 1.394 . S
C4423 C4424 1.383 . S
C4423 H4431 0.929 . S
C4424 C4423 1.383 . S
C4424 C4425 1.377 . S
C4425 H4409 0.930 . S
C4425 C4424 1.377 . S
C4425 C4426 1.379 . S
C4426 H4410 0.931 . S
C4426 C4420 1.383 . S
C4426 C4425 1.379 . S
H4427 C4421 0.959 . S
H4428 C4421 0.961 . S
H4429 C4421 0.960 . S
H4430 C4422 0.930 . S
H4431 C4423 0.929 . S
C985 C109 2.161 . S
C1004 C338 2.125 1_556 S
C1021 C65 2.074 . S
C1040 C395 2.059 . S
C1057 C75 1.036 . S
C1076 C418 1.002 . S
C1112 C472 1.442 . S
C1093 C84 1.441 . S
C1129 C25 1.204 . S
C1148 C512 1.202 . S
C1184 C543 0.237 . S
C1165 C28 0.267 . S
C1220 C595 1.171 . S
C1201 C47 1.175 . S
C1237 C9 1.733 . S
C1256 C618 1.705 . S
C1292 C355 2.497 . S
C1273 C233 2.514 . S
C1309 C249 0.312 . S
C1328 C392 0.455 . S
C1364 C435 1.391 . S
C1345 C275 1.400 . S
C1400 C458 1.136 . S
C1381 C173 1.179 . S
C1417 C224 1.788 . S
C1436 C498 1.779 . S
C1472 C546 1.484 . S
C1453 C243 1.491 . S
C1508 C592 0.332 . S
C1489 C266 0.204 . S
C1544 C635 1.898 . S
C1525 C179 1.923 . S
C1580 C352 1.474 1_565 S
C1561 C163 1.496 . S
C1597 C289 1.995 1_556 S
C1616 C675 1.979 . S
C1652 C707 2.536 . S
C1633 C333 2.577 . S
C1688 C738 0.429 1_655 S
C1669 C308 0.474 . S
C1705 C123 1.322 . S
C1724 C632 1.301 . S
C1741 C126 1.553 . S
C1760 C432 1.560 . S
C1777 C327 2.344 . S
C1796 C795 2.318 . S
C1832 C818 0.483 . S
C1813 C299 0.505 . S
C1868 C347 2.125 . S
C1849 C67 2.181 . S
C1904 C826 2.098 . S
C1885 C98 2.072 . S
C1921 C89 1.072 . S
C1940 C427 1.046 . S
C1957 C79 1.500 . S
C1976 C783 1.478 . S
C2012 C503 1.211 . S
C1993 C11 1.217 . S
C2029 C51 0.275 . S
C2048 C712 0.344 . S
C2084 C586 1.247 . S
C2065 C33 1.242 . S
C2120 C867 1.677 . S
C2101 C14 1.744 . S
C2156 C346 2.478 . S
C2137 C140 2.490 . S
C2192 C823 0.260 . S
C2173 C319 0.267 . S
C2209 C112 1.416 . S
C2228 C426 1.424 . S
C2245 C285 1.209 . S
C2264 C787 1.170 . S
C2281 C149 1.847 . S
C2300 C507 1.831 . S
C2336 C715 1.520 . S
C2317 C313 1.534 . S
C2353 C121 0.130 . S
C2372 C583 0.244 . S
C2389 C291 1.963 . S
C2408 C866 1.953 . S
C2425 C182 1.503 . S
C2444 C343 1.466 . S
C2461 C168 1.995 . S
C2480 C666 2.016 . S
C2497 C263 2.630 . S
C2516 C538 2.593 . S
C2533 C247 0.537 . S
C2552 C747 0.561 . S
C2588 C863 1.315 . S
C2569 C277 1.322 . S
C2605 C219 1.596 . S
C2624 C423 1.561 . S
C2660 C466 2.371 . S
C2641 C257 2.393 . S
C2696 C387 0.506 . S
C2677 C201 0.513 . S
C2713 C81 2.161 . S
C2732 C898 2.117 . S
C2768 C835 2.070 . S
C2749 C93 2.072 . S
C2785 C103 1.033 . S
C2804 C938 1.045 . S
C2821 C56 1.440 . S
C2840 C792 1.437 . S
C2857 C53 1.204 . S
C2876 C672 1.198 . S
C2912 C703 0.324 . S
C2893 C0 0.276 . S
C2948 C755 1.189 . S
C2929 C19 1.164 . S
C2984 C858 1.702 . S
C2965 C37 1.733 . S
C3020 C915 2.492 . S
C3001 C261 2.514 . S
C3037 C193 0.291 . S
C3056 C832 0.317 . S
C3092 C955 1.401 . S
C3073 C205 1.401 . S
C3128 C778 1.183 . S
C3109 C215 1.176 . S
C3164 C658 1.796 . S
C3145 C252 1.789 . S
C3181 C187 1.491 . S
C3200 C706 1.482 . S
C3236 C752 0.189 . S
C3217 C196 0.165 . S
C3253 C221 1.924 . S
C3272 C875 1.916 . S
C3308 C912 1.498 . S
C3289 C317 1.493 . S
C3325 C135 1.996 . S
C3344 C515 1.984 . S
C3380 C547 2.533 . S
C3361 C151 2.584 . S
C3416 C578 0.444 . S
C3397 C154 0.471 . S
C3452 C872 1.313 . S
C3433 C305 1.323 . S
C3469 C280 1.550 . S
C3488 C952 1.547 . S
C3524 C475 2.330 . S
C3505 C145 2.336 . S
C3560 C378 0.588 . S
C3541 C117 0.500 . S
C3577 C95 2.183 . S
C3596 C907 2.147 . S
C3632 C386 2.098 . S
C3613 C70 2.072 . S
C3649 C61 1.075 . S
C3668 C947 1.046 . S
C3685 C107 1.500 . S
C3704 C463 1.474 . S
C3721 C39 1.212 . S
C3740 C663 1.169 . S
C3776 C552 0.257 . S
C3757 C23 0.269 . S
C3793 C5 1.251 . S
C3812 C746 1.274 . S
C3829 C42 1.735 . S
C3848 C627 1.667 . S
C3884 C906 2.481 . S
C3865 C322 2.489 . S
C3901 C165 0.255 . S
C3920 C383 0.310 . S
C3956 C946 1.400 . S
C3937 C294 1.414 . S
C3973 C131 1.210 . S
C3992 C467 1.202 . S
C4009 C331 1.849 . S
C4028 C667 1.833 . S
C4064 C555 1.513 . S
C4045 C159 1.534 . S
C4081 C303 0.132 . S
C4100 C743 0.274 . S
C4136 C626 1.939 . S
C4117 C137 1.964 . S
C4172 C903 1.469 . S
C4153 C238 1.503 . S
C4208 C506 2.025 1_655 S
C4189 C210 2.000 . S
C4225 C235 2.631 . S
C4244 C698 2.584 . S
C4280 C587 0.529 . S
C4261 C191 0.540 . S
C4297 C207 1.316 . S
C4316 C623 1.278 . S
C4333 C177 1.598 . S
C4352 C943 1.576 . S
C4388 C786 2.380 . S
C4369 C229 2.394 1_565 S
C4424 C827 0.602 . S
C4405 C271 0.520 . S
