# Generated by pormake.
# Topology pts, (4,4)-cn, num edge types: 1
# Building blocks:
#     Node 0, Type 0, BuildingBlock: NAWXER_clean_sbu_0, # of connection points: 4
#     Node 1, Type 0, BuildingBlock: NAWXER_clean_sbu_0, # of connection points: 4
#     Node 2, Type 1, BuildingBlock: UXUYUI_clean_sbu_0, # of connection points: 4
#     Node 3, Type 1, BuildingBlock: UXUYUI_clean_sbu_0, # of connection points: 4
#     Edge 4, Type (0, 1), BuildingBlock: FUNLAD_clean_linker_0, # of connection points: 2
#     Edge 5, Type (0, 1), BuildingBlock: FUNLAD_clean_linker_0, # of connection points: 2
#     Edge 6, Type (0, 1), BuildingBlock: FUNLAD_clean_linker_0, # of connection points: 2
#     Edge 7, Type (0, 1), BuildingBlock: FUNLAD_clean_linker_0, # of connection points: 2
#     Edge 8, Type (0, 1), BuildingBlock: FUNLAD_clean_linker_0, # of connection points: 2
#     Edge 9, Type (0, 1), BuildingBlock: FUNLAD_clean_linker_0, # of connection points: 2
#     Edge 10, Type (0, 1), BuildingBlock: FUNLAD_clean_linker_0, # of connection points: 2
#     Edge 11, Type (0, 1), BuildingBlock: FUNLAD_clean_linker_0, # of connection points: 2
# Relax obj value: 0.015
# Max RMSD: 0.059
# Mean RMSD: 0.051
data_MOF--net-pts--node1-NAWXER_clean_sbu_0--node2-UXUYUI_clean_sbu_0--edge1-FUNLAD_clean_linker_0
_symmetry_space_group_name_H-M    P1
_symmetry_Int_Tables_number       1
_symmetry_cell_setting            triclinic
loop_
_symmetry_equiv_pos_as_xyz
'x, y, z'
_cell_length_a     32.708605
_cell_length_b     32.710274
_cell_length_c     52.289106
_cell_angle_alpha  90.057145
_cell_angle_beta   90.038755
_cell_angle_gamma 90.125324
loop_
_atom_site_label
_atom_site_type_symbol
_atom_site_fract_x
_atom_site_fract_y
_atom_site_fract_z
_atom_type_partial_charge
C0 C 0.45824 0.03639 0.97076 0.0
C1 C 0.55557 0.04036 0.04218 0.0
O2 O 0.47044 1.00111 0.9781 0.0
Zn3 Zn 0.5089 0.9747 0.00643 0.0
O4 O 0.47081 0.06825 0.98235 0.0
Zn5 Zn 0.50592 0.04062 0.00706 0.0
O6 O 0.55309 0.01498 0.9838 0.0
O7 O 0.54984 0.94753 0.9853 0.0
O8 O 0.53829 0.07114 0.03195 0.0
O9 O 0.54669 1.00429 0.03429 0.0
O10 O 0.47046 0.94378 0.0276 0.0
O11 O 0.46272 0.01052 0.03079 0.0
C12 C 0.56699 0.97996 0.9771 0.0
C13 C 0.45186 0.97432 0.03718 0.0
C14 C 0.0438 0.55749 0.47186 0.0
C15 C 0.03228 0.45505 0.54003 0.0
O16 O 0.007 0.54786 0.47758 0.0
Zn17 Zn 0.97468 0.50953 0.50318 0.0
O18 O 0.07325 0.54074 0.48377 0.0
Zn19 Zn 0.04034 0.50588 0.50621 0.0
O20 O 0.01265 0.46243 0.48103 0.0
O21 O 0.94592 0.47277 0.47989 0.0
O22 O 0.06552 0.46912 0.53083 0.0
O23 O 0.99794 0.46786 0.53132 0.0
O24 O 0.94533 0.54914 0.52424 0.0
O25 O 0.01193 0.54879 0.5312 0.0
C26 C 0.97711 0.45262 0.47268 0.0
C27 C 0.97628 0.56262 0.53641 0.0
Li28 Li 0.00854 0.04617 0.27207 0.0
Li29 Li 0.00789 0.97104 0.27455 0.0
Li30 Li 0.04382 0.00743 0.23924 0.0
Li31 Li 0.9689 1.00496 0.23935 0.0
C32 C 0.08027 0.02628 0.29436 0.0
N33 N 0.12868 0.06345 0.33096 0.0
C34 C 0.08381 0.00911 0.31873 0.0
C35 C 0.10167 0.06208 0.28852 0.0
C36 C 0.10837 0.02843 0.33699 0.0
C37 C 0.12587 0.0805 0.30732 0.0
C38 C 0.92827 1.0007 0.29223 0.0
C39 C 0.86162 0.97062 0.29858 0.0
N40 N 0.86156 0.9846 0.32308 0.0
C41 C 0.92726 0.01525 0.31736 0.0
C42 C 0.89495 0.97862 0.28264 0.0
C43 C 0.89339 0.00658 0.3327 0.0
C44 C 0.99209 0.12979 0.27993 0.0
N45 N 1.0051 0.09525 0.29184 0.0
C46 C 0.00583 0.12969 0.3322 0.0
C47 C 0.01206 0.09463 0.31747 0.0
C48 C 0.99154 0.1657 0.32057 0.0
C49 C 0.98508 0.1655 0.29397 0.0
H50 H 0.98604 0.12927 0.2596 0.0
H51 H 0.02146 0.06663 0.32665 0.0
C52 C 0.03042 0.8909 0.28865 0.0
N53 N 0.01115 0.92513 0.29713 0.0
C54 C 0.03455 0.8569 0.3046 0.0
C55 C 0.99996 0.89435 0.33799 0.0
C56 C 0.9964 0.92756 0.32137 0.0
C57 C 0.0191 0.85827 0.32966 0.0
H58 H 0.04269 0.89001 0.26946 0.0
H59 H 0.98259 0.95552 0.32801 0.0
C60 C 0.02061 0.07361 0.21393 0.0
N61 N 0.05391 0.11297 0.17211 0.0
C62 C 0.00586 0.06534 0.18937 0.0
C63 C 0.05191 0.10225 0.21728 0.0
C64 C 0.0232 0.08547 0.16845 0.0
C65 C 0.06845 0.12173 0.19588 0.0
C66 C 0.99077 0.92226 0.22931 0.0
C67 C 1.0054 0.90231 0.20752 0.0
C68 C 0.95879 0.9049 0.2433 0.0
C69 C 0.98739 0.86548 0.19992 0.0
C70 C 0.94161 0.86802 0.23511 0.0
N71 N 0.95611 0.84926 0.21374 0.0
C72 C 0.12816 0.00979 0.22463 0.0
C73 C 0.08071 0.99424 0.19175 0.0
C74 C 0.16079 0.00567 0.20754 0.0
N75 N 0.08909 1.00422 0.21643 0.0
C76 C 0.11227 0.99014 0.174 0.0
C77 C 0.15298 0.99582 0.18181 0.0
H78 H 0.13405 0.0171 0.24445 0.0
H79 H 0.04939 0.98919 0.18588 0.0
C80 C 0.89502 0.03816 0.22235 0.0
N81 N 0.9212 0.00657 0.21836 0.0
C82 C 0.86139 0.04387 0.20623 0.0
C83 C 0.88183 0.98389 0.18253 0.0
C84 C 0.91522 0.97958 0.19893 0.0
C85 C 0.85463 0.01676 0.18577 0.0
H86 H 0.90092 0.05955 0.23772 0.0
H87 H 0.93677 0.95523 0.19569 0.0
O88 O 0.0562 0.00792 0.27629 0.0
O89 O 0.96091 0.00946 0.27679 0.0
O90 O 1.00452 0.05371 0.23459 0.0
O91 O 0.00804 0.95841 0.23692 0.0
H92 H 0.06767 0.98127 0.32351 0.0
H93 H 0.09944 0.0756 0.26972 0.0
H94 H 0.11127 0.01559 0.35596 0.0
H95 H 0.14243 0.10836 0.3031 0.0
H96 H 0.83572 0.95344 0.29143 0.0
H97 H 0.95254 0.03267 0.32504 0.0
H98 H 0.89459 0.96799 0.26306 0.0
H99 H 0.89241 0.01737 0.35226 0.0
H100 H 0.01186 0.12839 0.35254 0.0
H101 H 0.97351 0.19221 0.28416 0.0
H102 H 0.04925 0.82969 0.29724 0.0
H103 H 0.98838 0.89718 0.35731 0.0
H104 H 0.98161 0.04327 0.18646 0.0
H105 H 0.0633 0.10934 0.23619 0.0
H106 H 0.0123 0.07916 0.14931 0.0
H107 H 0.09284 0.14383 0.19816 0.0
H108 H 0.03033 0.91519 0.19656 0.0
H109 H 0.94772 0.91945 0.26048 0.0
H110 H 0.99829 0.84979 0.18303 0.0
H111 H 0.91684 0.85424 0.24578 0.0
H112 H 0.19171 0.01059 0.2143 0.0
H113 H 0.10491 0.98197 0.15445 0.0
H114 H 0.84168 0.06995 0.20934 0.0
H115 H 0.87762 0.96177 0.16733 0.0
Li116 Li 0.97294 0.00565 0.77291 0.0
Li117 Li 0.04711 0.00577 0.77202 0.0
Li118 Li 0.00742 0.04292 0.73949 0.0
Li119 Li 0.00822 0.96847 0.73821 0.0
C120 C 0.99323 0.07872 0.79415 0.0
N121 N 0.95737 0.12969 0.8298 0.0
C122 C 0.01166 0.08474 0.818 0.0
C123 C 0.95681 0.09895 0.78835 0.0
C124 C 0.99299 0.11056 0.83578 0.0
C125 C 0.93907 0.12448 0.80665 0.0
C126 C 0.00661 0.94016 0.79944 0.0
C127 C 0.98829 0.88288 0.82611 0.0
N128 N 0.99785 0.90525 0.84723 0.0
C129 C 0.0163 0.96254 0.8214 0.0
C130 C 0.99253 0.89998 0.80178 0.0
C131 C 0.01165 0.94439 0.84539 0.0
C132 C 0.89121 0.98549 0.78397 0.0
N133 N 0.92575 1.00145 0.79454 0.0
C134 C 0.89313 0.00598 0.83535 0.0
C135 C 0.92731 0.01148 0.81977 0.0
C136 C 0.85702 0.98956 0.825 0.0
C137 C 0.85632 0.97923 0.79892 0.0
H138 H 0.89091 0.97717 0.76395 0.0
H139 H 0.95522 0.02312 0.82802 0.0
C140 C 0.11199 0.04775 0.7939 0.0
N141 N 0.09611 0.00951 0.79162 0.0
C142 C 0.14619 0.05478 0.80925 0.0
C143 C 0.14803 0.98258 0.819 0.0
C144 C 0.11368 0.97695 0.80341 0.0
C145 C 0.16442 0.02206 0.82235 0.0
H146 H 0.09752 0.07299 0.7841 0.0
H147 H 0.10054 0.94679 0.80116 0.0
C148 C 0.93703 0.02152 0.71713 0.0
N149 N 0.89062 0.05601 0.67866 0.0
C150 C 0.94413 0.01096 0.69162 0.0
C151 C 0.90592 0.04911 0.72312 0.0
C152 C 0.92047 0.02888 0.67243 0.0
C153 C 0.88289 0.06635 0.70338 0.0
C154 C 0.09025 0.98563 0.72798 0.0
C155 C 0.11873 1.00266 0.71116 0.0
C156 C 0.0977 0.94727 0.73878 0.0
C157 C 0.1543 0.98097 0.70539 0.0
C158 C 0.13365 0.92657 0.73253 0.0
N159 N 0.16097 0.9437 0.71611 0.0
C160 C 0.0088 0.12805 0.72848 0.0
C161 C 0.01717 0.08436 0.69273 0.0
C162 C 0.01484 0.16248 0.71315 0.0
N163 N 0.00995 0.08998 0.71808 0.0
C164 C 0.02305 0.11792 0.67664 0.0
C165 C 0.02232 0.15773 0.68682 0.0
H166 H 1.00452 0.13175 0.74882 0.0
H167 H 0.01927 0.05371 0.68509 0.0
C168 C 0.97722 0.89236 0.72315 0.0
N169 N 1.00381 0.9223 0.71618 0.0
C170 C 0.96951 0.85944 0.70679 0.0
C171 C 0.01667 0.88886 0.67632 0.0
C172 C 0.02356 0.92116 0.69332 0.0
C173 C 0.98907 0.85756 0.68289 0.0
H174 H 0.96113 0.89467 0.74114 0.0
H175 H 0.04387 0.94584 0.688 0.0
O176 O 0.0109 0.05334 0.77654 0.0
O177 O 0.01066 0.95744 0.77576 0.0
O178 O 0.9601 1.00456 0.73616 0.0
O179 O 0.05537 0.00667 0.7338 0.0
H180 H 0.0399 0.06944 0.82282 0.0
H181 H 0.94241 0.09494 0.76992 0.0
H182 H 0.00679 0.11534 0.85435 0.0
H183 H 0.91079 0.14018 0.80244 0.0
H184 H 0.97741 0.8518 0.82821 0.0
H185 H 0.02695 0.99375 0.81997 0.0
H186 H 0.98499 0.88215 0.78498 0.0
H187 H 0.01892 0.96145 0.86254 0.0
H188 H 0.89526 0.01373 0.85546 0.0
H189 H 0.82904 0.96672 0.79012 0.0
H190 H 0.15818 0.08556 0.81087 0.0
H191 H 0.1609 0.9565 0.82884 0.0
H192 H 0.96796 0.98951 0.68666 0.0
H193 H 0.89943 0.05694 0.74279 0.0
H194 H 0.92586 0.02125 0.65258 0.0
H195 H 0.8588 0.08786 0.70774 0.0
H196 H 0.11335 0.03233 0.70265 0.0
H197 H 0.07602 0.93352 0.75179 0.0
H198 H 0.17662 0.99378 0.69239 0.0
H199 H 0.13982 0.89687 0.74074 0.0
H200 H 0.0149 0.19239 0.72202 0.0
H201 H 0.02832 0.11265 0.65647 0.0
H202 H 0.94753 0.83639 0.71248 0.0
H203 H 0.03265 0.88849 0.65819 0.0
C204 C 0.39746 1.00436 0.06473 0.0
C205 C 0.41759 0.96937 0.0555 0.0
C206 C 0.36494 1.00097 0.08177 0.0
C207 C 0.35128 0.96241 0.09 0.0
C208 C 0.37187 0.92734 0.08131 0.0
C209 C 0.40458 0.93073 0.06406 0.0
C210 C 0.31653 0.95861 0.10822 0.0
C211 C 0.28557 0.9858 0.10857 0.0
C212 C 0.25145 0.9855 0.12733 0.0
C213 C 0.21532 0.00634 0.12108 0.0
C214 C 0.18335 0.0093 0.13865 0.0
C215 C 0.18691 0.99188 0.16309 0.0
H216 H 0.28276 0.95236 0.15755 0.0
C217 C 0.22307 0.97103 0.16946 0.0
C218 C 0.25503 0.96778 0.15176 0.0
H219 H 0.22662 0.95713 0.18812 0.0
H220 H 0.40683 0.03471 0.05885 0.0
H221 H 0.351 0.0288 0.08876 0.0
H222 H 0.3623 0.89728 0.08764 0.0
H223 H 0.41962 0.9032 0.05746 0.0
H224 H 0.31605 0.93246 0.12098 0.0
H225 H 0.28452 0.00937 0.09395 0.0
H226 H 0.2119 0.02071 0.10254 0.0
H227 H 0.15613 0.02603 0.13327 0.0
C228 C 0.06788 0.40346 0.56817 0.0
C229 C 0.03201 0.42352 0.56038 0.0
C230 C 0.0662 0.37234 0.58662 0.0
C231 C 0.0285 0.36079 0.59757 0.0
C232 C 0.99305 0.38172 0.59018 0.0
C233 C 0.9947 0.41247 0.57181 0.0
C234 C 0.0241 0.32755 0.61681 0.0
C235 C 0.0516 0.29752 0.62062 0.0
C236 C 0.04428 0.26264 0.63841 0.0
C237 C 0.06608 0.22618 0.63472 0.0
C238 C 0.05909 0.19225 0.6504 0.0
C239 C 0.0301 0.19396 0.67025 0.0
H240 H 0.99964 0.29254 0.663 0.0
C241 C 0.00893 0.23076 0.6743 0.0
C242 C 0.01613 0.26475 0.65876 0.0
H243 H 0.98632 0.23327 0.68934 0.0
H244 H 0.09712 0.41145 0.55983 0.0
H245 H 0.09444 0.35779 0.59226 0.0
H246 H 0.96365 0.37386 0.59838 0.0
H247 H 0.96643 0.42742 0.56648 0.0
H248 H 0.99517 0.32638 0.62692 0.0
H249 H 0.07913 0.29659 0.60907 0.0
H250 H 0.08833 0.22373 0.61946 0.0
H251 H 0.07673 0.16479 0.64706 0.0
C252 C 0.60864 0.01027 0.07072 0.0
C253 C 0.58744 0.04505 0.06217 0.0
C254 C 0.64032 0.01376 0.08839 0.0
C255 C 0.65181 0.05218 0.09806 0.0
C256 C 0.62976 0.0869 0.09036 0.0
C257 C 0.59805 0.08346 0.07236 0.0
C258 C 0.68641 0.05598 0.11636 0.0
C259 C 0.71981 0.03211 0.11435 0.0
C260 C 0.75438 0.03208 0.13276 0.0
C261 C 0.79262 0.01825 0.12433 0.0
C262 C 0.82519 0.01416 0.14138 0.0
C263 C 0.82017 0.0231 0.16751 0.0
H264 H 0.72004 0.05187 0.16605 0.0
C265 C 0.78195 0.03757 0.17594 0.0
C266 C 0.74938 0.04208 0.15875 0.0
H267 H 0.77675 0.04425 0.19595 0.0
H268 H 0.60117 0.9801 0.06352 0.0
H269 H 0.6557 0.98618 0.09455 0.0
H270 H 0.63771 0.11679 0.09782 0.0
H271 H 0.58217 0.1108 0.0663 0.0
H272 H 0.68486 0.07944 0.13104 0.0
H273 H 0.72249 0.01177 0.09798 0.0
H274 H 0.7973 0.01026 0.10442 0.0
H275 H 0.85434 1.00389 0.13401 0.0
C276 C 0.93996 0.62163 0.55753 0.0
C277 C 0.97234 0.59348 0.55696 0.0
C278 C 0.93888 0.65236 0.57629 0.0
C279 C 0.9699 0.6549 0.59496 0.0
C280 C 1.00119 0.62571 0.59486 0.0
C281 C 1.00267 0.59569 0.57596 0.0
C282 C 0.97106 0.68723 0.61493 0.0
C283 C 0.95713 0.72549 0.61125 0.0
C284 C 0.96386 0.75892 0.63017 0.0
C285 C 0.96692 0.79938 0.62143 0.0
C286 C 0.97518 0.83133 0.63848 0.0
C287 C 0.9801 0.8236 0.66476 0.0
H288 H 0.96447 0.7207 0.66418 0.0
C289 C 0.97593 0.78323 0.67361 0.0
C290 C 0.96782 0.75127 0.65655 0.0
H291 H 0.9795 0.7762 0.69372 0.0
H292 H 0.91611 0.62052 0.54316 0.0
H293 H 0.91376 0.67384 0.57622 0.0
H294 H 0.02523 0.62669 0.60912 0.0
H295 H 0.02779 0.57415 0.57624 0.0
H296 H 0.98792 0.68023 0.63228 0.0
H297 H 0.94386 0.7336 0.5929 0.0
H298 H 0.9636 0.80623 0.60127 0.0
H299 H 0.97737 0.86218 0.63109 0.0
C300 C 0.40243 0.07189 0.9461 0.0
C301 C 0.42926 0.03874 0.94907 0.0
C302 C 0.37264 0.07134 0.92677 0.0
C303 C 0.36961 0.03777 0.90994 0.0
C304 C 0.39772 0.00571 0.91228 0.0
C305 C 0.42688 0.00595 0.93174 0.0
C306 C 0.33762 0.03441 0.88983 0.0
C307 C 0.30003 0.05082 0.89201 0.0
C308 C 0.26645 0.04326 0.87328 0.0
C309 C 0.23347 0.07062 0.87243 0.0
C310 C 0.2006 0.06389 0.85583 0.0
C311 C 0.19971 0.02937 0.83977 0.0
H312 H 0.28938 0.98579 0.85789 0.0
C313 C 0.23252 1.00175 0.84074 0.0
C314 C 0.26543 0.0085 0.85732 0.0
H315 H 0.23288 0.97491 0.8286 0.0
H316 H 0.40369 0.09763 0.95913 0.0
H317 H 0.35219 0.09715 0.92507 0.0
H318 H 0.39639 0.97969 0.89946 0.0
H319 H 0.44739 0.98012 0.93333 0.0
H320 H 0.34481 0.01541 0.87343 0.0
H321 H 0.29302 0.06996 0.9084 0.0
H322 H 0.23305 0.0973 0.88473 0.0
H323 H 0.17549 0.08542 0.85594 0.0
C324 C 0.94313 0.4131 0.43707 0.0
C325 C 0.97327 0.41615 0.45615 0.0
C326 C 0.94164 0.37865 0.42104 0.0
C327 C 0.96969 0.34646 0.42435 0.0
C328 C 0.99884 0.34919 0.44391 0.0
C329 C 1.00101 0.38384 0.45938 0.0
C330 C 0.96925 0.30916 0.40822 0.0
C331 C 0.96193 0.30971 0.38289 0.0
C332 C 0.96733 0.27269 0.36672 0.0
C333 C 0.98248 0.27683 0.34175 0.0
C334 C 0.99031 0.24226 0.32673 0.0
C335 C 0.9825 0.20275 0.33623 0.0
H336 H 0.94549 0.2291 0.39487 0.0
C337 C 0.96585 0.19884 0.36093 0.0
C338 C 0.95843 0.23334 0.376 0.0
H339 H 0.95821 0.16908 0.36863 0.0
H340 H 0.92135 0.43758 0.43426 0.0
H341 H 0.91833 0.37696 0.40636 0.0
H342 H 0.02055 0.3247 0.44697 0.0
H343 H 0.0243 0.38514 0.47411 0.0
H344 H 0.97963 0.28099 0.4171 0.0
H345 H 0.95586 0.33866 0.37345 0.0
H346 H 0.98943 0.30682 0.33411 0.0
H347 H 1.00333 0.24655 0.30789 0.0
C348 C 0.61394 0.9443 0.94592 0.0
C349 C 0.60404 0.97859 0.96089 0.0
C350 C 0.64877 0.94481 0.9302 0.0
C351 C 0.67446 0.97946 0.92962 0.0
C352 C 0.66492 0.01307 0.9451 0.0
C353 C 0.63002 0.01286 0.96032 0.0
C354 C 0.71189 0.98213 0.91366 0.0
C355 C 0.71646 0.96343 0.89087 0.0
C356 C 0.75254 0.97074 0.87404 0.0
C357 C 0.76336 0.94116 0.85578 0.0
C358 C 0.79703 0.94727 0.83968 0.0
C359 C 0.8205 0.98325 0.84144 0.0
H360 H 0.76716 0.03179 0.88809 0.0
C361 C 0.80908 0.01325 0.85926 0.0
C362 C 0.77542 0.00726 0.87523 0.0
H363 H 0.82589 0.04175 0.86064 0.0
H364 H 0.59455 0.91742 0.94609 0.0
H365 H 0.65577 0.91799 0.9189 0.0
H366 H 0.68428 0.04001 0.94517 0.0
H367 H 0.62359 0.03963 0.97183 0.0
H368 H 0.73571 1.00248 0.92057 0.0
H369 H 0.69298 0.94255 0.88407 0.0
H370 H 0.74602 0.91301 0.85418 0.0
H371 H 0.80513 0.9235 0.82618 0.0
C372 C 0.01845 0.59922 0.4354 0.0
C373 C 0.05056 0.58923 0.45212 0.0
C374 C 0.022 0.63194 0.41851 0.0
C375 C 0.0576 0.6561 0.41813 0.0
C376 C 0.09068 0.64479 0.4338 0.0
C377 C 0.08721 0.61163 0.45071 0.0
C378 C 0.06056 0.69317 0.40168 0.0
C379 C 0.02733 0.7156 0.39556 0.0
C380 C 0.02747 0.75276 0.37911 0.0
C381 C 0.99223 0.77725 0.3788 0.0
C382 C 0.98972 0.81149 0.36297 0.0
C383 C 0.02241 0.8222 0.34689 0.0
H384 H 0.0878 0.74512 0.36226 0.0
C385 C 0.05783 0.79782 0.34718 0.0
C386 C 0.06036 0.76343 0.36306 0.0
H387 H 0.08373 0.80536 0.33517 0.0
H388 H 0.99009 0.58203 0.43558 0.0
H389 H 0.99656 0.6383 0.40588 0.0
H390 H 0.11875 0.66243 0.43356 0.0
H391 H 0.11255 0.60453 0.46327 0.0
H392 H 0.09078 0.70304 0.39577 0.0
H393 H 0.99799 0.70705 0.40369 0.0
H394 H 0.96623 0.76968 0.39074 0.0
H395 H 0.96171 0.82909 0.36297 0.0
loop_
_geom_bond_atom_site_label_1
_geom_bond_atom_site_label_2
_geom_bond_distance
_geom_bond_site_symmetry_2
_ccdc_geom_bond_type
C0 O2 1.245 . S
C0 O4 1.260 1_565 S
C1 O8 1.251 . S
C1 O9 1.254 1_545 S
O2 C0 1.245 . S
O2 Zn3 2.028 1_556 S
Zn3 O2 2.028 1_554 S
Zn3 O7 2.035 1_554 S
Zn3 O9 2.035 . S
Zn3 O10 2.028 . S
O4 C0 1.260 1_545 S
O4 Zn5 2.035 1_556 S
Zn5 O4 2.035 1_554 S
Zn5 O6 2.028 1_554 S
Zn5 O8 2.028 . S
Zn5 O11 2.035 . S
O6 Zn5 2.028 1_556 S
O6 C12 1.251 . S
O7 Zn3 2.035 1_556 S
O7 C12 1.254 1_565 S
O8 C1 1.251 . S
O8 Zn5 2.028 . S
O9 C1 1.254 1_565 S
O9 Zn3 2.035 . S
O10 Zn3 2.028 . S
O10 C13 1.245 . S
O11 Zn5 2.035 . S
O11 C13 1.260 1_545 S
C12 O6 1.251 . S
C12 O7 1.254 1_545 S
C13 O10 1.245 . S
C13 O11 1.260 1_565 S
C14 O16 1.245 . S
C14 O18 1.260 1_655 S
C15 O22 1.251 . S
C15 O23 1.254 1_455 S
O16 C14 1.245 . S
O16 Zn17 2.028 . S
Zn17 O16 2.028 . S
Zn17 O21 2.035 . S
Zn17 O23 2.035 . S
Zn17 O24 2.028 . S
O18 C14 1.260 1_455 S
O18 Zn19 2.035 . S
Zn19 O18 2.035 . S
Zn19 O20 2.028 . S
Zn19 O22 2.028 . S
Zn19 O25 2.035 . S
O20 Zn19 2.028 . S
O20 C26 1.251 . S
O21 Zn17 2.035 . S
O21 C26 1.254 1_655 S
O22 C15 1.251 . S
O22 Zn19 2.028 . S
O23 C15 1.254 1_655 S
O23 Zn17 2.035 . S
O24 Zn17 2.028 . S
O24 C27 1.245 . S
O25 Zn19 2.035 . S
O25 C27 1.260 1_455 S
C26 O20 1.251 . S
C26 O21 1.254 1_455 S
C27 O24 1.245 . S
C27 O25 1.260 1_655 S
Li28 N45 1.990 . S
Li28 O88 1.956 1_545 S
Li28 O89 1.970 1_455 S
Li28 O90 1.961 1_455 S
Li29 N53 1.990 . S
Li29 O88 1.970 1_655 S
Li29 O89 1.956 1_565 S
Li29 O91 1.961 1_655 S
Li30 N75 1.990 . S
Li30 O88 1.961 1_545 S
Li30 O90 1.956 1_455 S
Li30 O91 1.970 1_545 S
Li31 N81 1.990 . S
Li31 O89 1.961 1_565 S
Li31 O90 1.970 1_565 S
Li31 O91 1.956 1_655 S
C32 C34 1.348 1_545 S
C32 C35 1.356 . S
C32 O88 1.325 1_545 S
N33 C36 1.314 1_545 S
N33 C37 1.279 . S
C34 C32 1.348 1_565 S
C34 C36 1.353 . S
C34 H92 0.929 . S
C35 C32 1.356 . S
C35 C37 1.358 . S
C35 H93 0.930 . S
C36 N33 1.314 1_565 S
C36 C34 1.353 . S
C36 H94 0.930 . S
C37 N33 1.279 . S
C37 C35 1.358 . S
C37 H95 0.930 . S
C38 C41 1.348 . S
C38 C42 1.356 1_545 S
C38 O89 1.325 . S
C39 N40 1.279 . S
C39 C42 1.358 . S
C39 H96 0.930 . S
N40 C39 1.279 . S
N40 C43 1.314 1_565 S
C41 C38 1.348 . S
C41 C43 1.353 . S
C41 H97 0.929 . S
C42 C38 1.356 1_565 S
C42 C39 1.358 . S
C42 H98 0.930 . S
C43 N40 1.314 1_545 S
C43 C41 1.353 . S
C43 H99 0.930 . S
C44 N45 1.314 1_655 S
C44 C49 1.353 . S
C44 H50 0.930 . S
N45 Li28 1.990 . S
N45 C44 1.314 1_455 S
N45 C47 1.279 . S
C46 C47 1.358 . S
C46 C48 1.356 . S
C46 H100 0.930 . S
C47 N45 1.279 . S
C47 C46 1.358 . S
C47 H51 0.930 . S
C48 C46 1.356 . S
C48 C49 1.348 1_455 S
C49 C44 1.353 . S
C49 C48 1.348 1_655 S
C49 H101 0.929 . S
H50 C44 0.930 . S
H51 C47 0.930 . S
C52 N53 1.314 1_455 S
C52 C54 1.353 . S
C52 H58 0.930 . S
N53 Li29 1.990 . S
N53 C52 1.314 1_655 S
N53 C56 1.279 . S
C54 C52 1.353 . S
C54 C57 1.348 . S
C54 H102 0.929 . S
C55 C56 1.358 . S
C55 C57 1.356 1_655 S
C55 H103 0.930 . S
C56 N53 1.279 . S
C56 C55 1.358 . S
C56 H59 0.930 . S
C57 C54 1.348 . S
C57 C55 1.356 1_455 S
H58 C52 0.930 . S
H59 C56 0.930 . S
C60 C62 1.348 1_455 S
C60 C63 1.356 . S
C60 O90 1.325 1_455 S
N61 C64 1.314 1_455 S
N61 C65 1.279 . S
C62 C60 1.348 1_655 S
C62 C64 1.353 . S
C62 H104 0.929 . S
C63 C60 1.356 . S
C63 C65 1.358 . S
C63 H105 0.930 . S
C64 N61 1.314 1_655 S
C64 C62 1.353 . S
C64 H106 0.930 . S
C65 N61 1.279 . S
C65 C63 1.358 . S
C65 H107 0.930 . S
C66 C67 1.348 . S
C66 C68 1.356 1_455 S
C66 O91 1.325 . S
C67 C66 1.348 . S
C67 C69 1.353 . S
C67 H108 0.929 . S
C68 C66 1.356 1_655 S
C68 C70 1.358 . S
C68 H109 0.930 . S
C69 C67 1.353 . S
C69 N71 1.314 1_455 S
C69 H110 0.930 . S
C70 C68 1.358 . S
C70 N71 1.279 . S
C70 H111 0.930 . S
N71 C69 1.314 1_655 S
N71 C70 1.279 . S
C72 C74 1.353 . S
C72 N75 1.314 1_565 S
C72 H78 0.930 . S
C73 N75 1.279 . S
C73 C76 1.358 . S
C73 H79 0.930 . S
C74 C72 1.353 . S
C74 C77 1.348 1_565 S
C74 H112 0.929 . S
N75 Li30 1.990 . S
N75 C72 1.314 1_545 S
N75 C73 1.279 . S
C76 C73 1.358 . S
C76 C77 1.356 . S
C76 H113 0.930 . S
C77 C74 1.348 1_545 S
C77 C76 1.356 . S
H78 C72 0.930 . S
H79 C73 0.930 . S
C80 N81 1.314 1_545 S
C80 C82 1.353 . S
C80 H86 0.930 . S
N81 Li31 1.990 . S
N81 C80 1.314 1_565 S
N81 C84 1.279 . S
C82 C80 1.353 . S
C82 C85 1.348 . S
C82 H114 0.929 . S
C83 C84 1.358 . S
C83 C85 1.356 1_565 S
C83 H115 0.930 . S
C84 N81 1.279 . S
C84 C83 1.358 . S
C84 H87 0.930 . S
C85 C82 1.348 . S
C85 C83 1.356 1_545 S
H86 C80 0.930 . S
H87 C84 0.930 . S
O88 Li28 1.956 1_565 S
O88 Li29 1.970 1_455 S
O88 Li30 1.961 1_565 S
O88 C32 1.325 1_565 S
O89 Li28 1.970 1_655 S
O89 Li29 1.956 1_545 S
O89 Li31 1.961 1_545 S
O89 C38 1.325 . S
O90 Li28 1.961 1_655 S
O90 Li30 1.956 1_655 S
O90 Li31 1.970 1_545 S
O90 C60 1.325 1_655 S
O91 Li29 1.961 1_455 S
O91 Li30 1.970 1_565 S
O91 Li31 1.956 1_455 S
O91 C66 1.325 . S
H92 C34 0.929 . S
H93 C35 0.930 . S
H94 C36 0.930 . S
H95 C37 0.930 . S
H96 C39 0.930 . S
H97 C41 0.929 . S
H98 C42 0.930 . S
H99 C43 0.930 . S
H100 C46 0.930 . S
H101 C49 0.929 . S
H102 C54 0.929 . S
H103 C55 0.930 . S
H104 C62 0.929 . S
H105 C63 0.930 . S
H106 C64 0.930 . S
H107 C65 0.930 . S
H108 C67 0.929 . S
H109 C68 0.930 . S
H110 C69 0.930 . S
H111 C70 0.930 . S
H112 C74 0.929 . S
H113 C76 0.930 . S
H114 C82 0.929 . S
H115 C83 0.930 . S
Li116 N133 1.990 . S
Li116 O176 1.956 1_655 S
Li116 O177 1.970 1_545 S
Li116 O178 1.961 1_545 S
Li117 N141 1.990 . S
Li117 O176 1.970 1_565 S
Li117 O177 1.956 1_455 S
Li117 O179 1.961 1_565 S
Li118 N163 1.990 . S
Li118 O176 1.961 1_655 S
Li118 O178 1.956 1_545 S
Li118 O179 1.970 1_655 S
Li119 N169 1.990 . S
Li119 O177 1.961 1_455 S
Li119 O178 1.970 1_455 S
Li119 O179 1.956 1_565 S
C120 C122 1.348 . S
C120 C123 1.356 1_455 S
C120 O176 1.325 . S
N121 C124 1.314 1_655 S
N121 C125 1.279 . S
C122 C120 1.348 . S
C122 C124 1.353 . S
C122 H180 0.929 . S
C123 C120 1.356 1_655 S
C123 C125 1.358 . S
C123 H181 0.930 . S
C124 N121 1.314 1_455 S
C124 C122 1.353 . S
C124 H182 0.930 . S
C125 N121 1.279 . S
C125 C123 1.358 . S
C125 H183 0.930 . S
C126 C129 1.348 1_455 S
C126 C130 1.356 . S
C126 O177 1.325 1_455 S
C127 N128 1.279 . S
C127 C130 1.358 . S
C127 H184 0.930 . S
N128 C127 1.279 . S
N128 C131 1.314 1_455 S
C129 C126 1.348 1_655 S
C129 C131 1.353 . S
C129 H185 0.929 . S
C130 C126 1.356 . S
C130 C127 1.358 . S
C130 H186 0.930 . S
C131 N128 1.314 1_655 S
C131 C129 1.353 . S
C131 H187 0.930 . S
C132 N133 1.314 1_565 S
C132 C137 1.353 . S
C132 H138 0.930 . S
N133 Li116 1.990 . S
N133 C132 1.314 1_545 S
N133 C135 1.279 . S
C134 C135 1.358 . S
C134 C136 1.356 . S
C134 H188 0.930 . S
C135 N133 1.279 . S
C135 C134 1.358 . S
C135 H139 0.930 . S
C136 C134 1.356 . S
C136 C137 1.348 1_545 S
C137 C132 1.353 . S
C137 C136 1.348 1_565 S
C137 H189 0.929 . S
H138 C132 0.930 . S
H139 C135 0.930 . S
C140 N141 1.314 1_545 S
C140 C142 1.353 . S
C140 H146 0.930 . S
N141 Li117 1.990 . S
N141 C140 1.314 1_565 S
N141 C144 1.279 . S
C142 C140 1.353 . S
C142 C145 1.348 . S
C142 H190 0.929 . S
C143 C144 1.358 . S
C143 C145 1.355 1_565 S
C143 H191 0.930 . S
C144 N141 1.279 . S
C144 C143 1.358 . S
C144 H147 0.930 . S
C145 C142 1.348 . S
C145 C143 1.355 1_545 S
H146 C140 0.930 . S
H147 C144 0.930 . S
C148 C150 1.348 1_545 S
C148 C151 1.356 . S
C148 O178 1.325 1_545 S
N149 C152 1.314 1_545 S
N149 C153 1.279 . S
C150 C148 1.348 1_565 S
C150 C152 1.353 . S
C150 H192 0.929 . S
C151 C148 1.356 . S
C151 C153 1.358 . S
C151 H193 0.930 . S
C152 N149 1.314 1_565 S
C152 C150 1.353 . S
C152 H194 0.930 . S
C153 N149 1.279 . S
C153 C151 1.358 . S
C153 H195 0.930 . S
C154 C155 1.348 . S
C154 C156 1.356 1_545 S
C154 O179 1.325 . S
C155 C154 1.348 . S
C155 C157 1.353 . S
C155 H196 0.929 . S
C156 C154 1.356 1_565 S
C156 C158 1.358 . S
C156 H197 0.930 . S
C157 C155 1.353 . S
C157 N159 1.314 1_545 S
C157 H198 0.930 . S
C158 C156 1.358 . S
C158 N159 1.279 . S
C158 H199 0.930 . S
N159 C157 1.314 1_565 S
N159 C158 1.279 . S
C160 C162 1.353 . S
C160 N163 1.314 1_455 S
C160 H166 0.930 . S
C161 N163 1.279 . S
C161 C164 1.358 . S
C161 H167 0.930 . S
C162 C160 1.353 . S
C162 C165 1.348 . S
C162 H200 0.929 . S
N163 Li118 1.990 . S
N163 C160 1.314 1_655 S
N163 C161 1.279 . S
C164 C161 1.358 . S
C164 C165 1.356 1_655 S
C164 H201 0.930 . S
C165 C162 1.348 . S
C165 C164 1.356 1_455 S
H166 C160 0.930 . S
H167 C161 0.930 . S
C168 N169 1.314 1_655 S
C168 C170 1.353 . S
C168 H174 0.930 . S
N169 Li119 1.990 . S
N169 C168 1.314 1_455 S
N169 C172 1.279 . S
C170 C168 1.353 . S
C170 C173 1.348 1_655 S
C170 H202 0.929 . S
C171 C172 1.358 . S
C171 C173 1.356 . S
C171 H203 0.930 . S
C172 N169 1.279 . S
C172 C171 1.358 . S
C172 H175 0.930 . S
C173 C170 1.348 1_455 S
C173 C171 1.356 . S
H174 C168 0.930 . S
H175 C172 0.930 . S
O176 Li116 1.956 1_455 S
O176 Li117 1.970 1_545 S
O176 Li118 1.961 1_455 S
O176 C120 1.325 . S
O177 Li116 1.970 1_565 S
O177 Li117 1.956 1_655 S
O177 Li119 1.961 1_655 S
O177 C126 1.325 1_655 S
O178 Li116 1.961 1_565 S
O178 Li118 1.956 1_565 S
O178 Li119 1.970 1_655 S
O178 C148 1.325 1_565 S
O179 Li117 1.961 1_545 S
O179 Li118 1.970 1_455 S
O179 Li119 1.956 1_545 S
O179 C154 1.325 . S
H180 C122 0.929 . S
H181 C123 0.930 . S
H182 C124 0.930 . S
H183 C125 0.930 . S
H184 C127 0.930 . S
H185 C129 0.929 . S
H186 C130 0.930 . S
H187 C131 0.930 . S
H188 C134 0.930 . S
H189 C137 0.929 . S
H190 C142 0.929 . S
H191 C143 0.930 . S
H192 C150 0.929 . S
H193 C151 0.930 . S
H194 C152 0.930 . S
H195 C153 0.930 . S
H196 C155 0.929 . S
H197 C156 0.930 . S
H198 C157 0.930 . S
H199 C158 0.930 . S
H200 C162 0.929 . S
H201 C164 0.930 . S
H202 C170 0.929 . S
H203 C171 0.930 . S
C204 C205 1.386 1_545 S
C204 C206 1.383 . S
C204 H220 0.951 . S
C205 C204 1.386 1_565 S
C205 C209 1.383 . S
C206 C204 1.383 . S
C206 C207 1.402 1_545 S
C206 H221 0.951 . S
C207 C206 1.402 1_565 S
C207 C208 1.375 . S
C207 C210 1.481 . S
C208 C207 1.375 . S
C208 C209 1.367 . S
C208 H222 0.951 . S
C209 C205 1.383 . S
C209 C208 1.367 . S
C209 H223 0.950 . S
C210 C207 1.481 . S
C210 C211 1.302 . S
C210 H224 0.950 . S
C211 C210 1.302 . S
C211 C212 1.480 . S
C211 H225 0.944 1_565 S
C212 C211 1.480 . S
C212 C213 1.375 1_565 S
C212 C218 1.404 . S
C213 C212 1.375 1_545 S
C213 C214 1.369 . S
C213 H226 0.950 . S
C214 C213 1.369 . S
C214 C215 1.392 1_545 S
C214 H227 0.951 . S
C215 C214 1.392 1_565 S
C215 C217 1.384 . S
H216 C218 0.949 . S
C217 C215 1.384 . S
C217 C218 1.385 . S
C217 H219 0.950 . S
C218 C212 1.404 . S
C218 H216 0.949 . S
C218 C217 1.385 . S
H219 C217 0.950 . S
H220 C204 0.951 . S
H221 C206 0.951 . S
H222 C208 0.951 . S
H223 C209 0.950 . S
H224 C210 0.950 . S
H225 C211 0.944 1_545 S
H226 C213 0.950 . S
H227 C214 0.951 . S
C228 C229 1.380 1_455 S
C228 C230 1.383 . S
C228 H244 0.951 . S
C229 C228 1.380 1_655 S
C229 C233 1.389 . S
C230 C228 1.383 . S
C230 C231 1.402 1_455 S
C230 H245 0.951 . S
C231 C230 1.402 1_655 S
C231 C232 1.375 . S
C231 C234 1.481 . S
C232 C231 1.375 . S
C232 C233 1.367 . S
C232 H246 0.951 . S
C233 C229 1.389 . S
C233 C232 1.367 . S
C233 H247 0.950 . S
C234 C231 1.481 . S
C234 C235 1.297 1_655 S
C234 H248 0.950 . S
C235 C234 1.297 1_455 S
C235 C236 1.479 . S
C235 H249 0.950 . S
C236 C235 1.479 . S
C236 C237 1.375 . S
C236 C242 1.404 1_455 S
C237 C236 1.375 . S
C237 C238 1.369 . S
C237 H250 0.950 . S
C238 C237 1.369 . S
C238 C239 1.392 . S
C238 H251 0.951 . S
C239 C238 1.392 . S
C239 C241 1.384 1_455 S
H240 C242 0.949 . S
C241 C239 1.384 1_655 S
C241 C242 1.385 . S
C241 H243 0.950 . S
C242 C236 1.404 1_655 S
C242 H240 0.949 . S
C242 C241 1.385 . S
H243 C241 0.950 . S
H244 C228 0.951 . S
H245 C230 0.951 . S
H246 C232 0.951 . S
H247 C233 0.950 . S
H248 C234 0.950 . S
H249 C235 0.950 . S
H250 C237 0.950 . S
H251 C238 0.951 . S
C252 C253 1.386 1_565 S
C252 C254 1.383 1_565 S
C252 H268 0.951 . S
C253 C252 1.386 1_545 S
C253 C257 1.383 . S
C254 C252 1.383 1_545 S
C254 C255 1.402 . S
C254 H269 0.951 1_545 S
C255 C254 1.402 . S
C255 C256 1.375 . S
C255 C258 1.481 . S
C256 C255 1.375 . S
C256 C257 1.367 . S
C256 H270 0.951 . S
C257 C253 1.383 . S
C257 C256 1.367 . S
C257 H271 0.950 . S
C258 C255 1.481 . S
C258 C259 1.297 . S
C258 H272 0.950 . S
C259 C258 1.297 . S
C259 C260 1.479 . S
C259 H273 0.950 . S
C260 C259 1.479 . S
C260 C261 1.375 . S
C260 C266 1.404 . S
C261 C260 1.375 . S
C261 C262 1.369 1_545 S
C261 H274 0.950 1_545 S
C262 C261 1.369 1_565 S
C262 C263 1.392 1_565 S
C262 H275 0.951 . S
C263 C262 1.392 1_545 S
C263 C265 1.384 . S
H264 C266 0.949 . S
C265 C263 1.384 . S
C265 C266 1.385 . S
C265 H267 0.950 . S
C266 C260 1.404 . S
C266 H264 0.949 . S
C266 C265 1.385 . S
H267 C265 0.950 . S
H268 C252 0.951 . S
H269 C254 0.951 1_565 S
H270 C256 0.951 . S
H271 C257 0.950 . S
H272 C258 0.950 . S
H273 C259 0.950 . S
H274 C261 0.950 1_565 S
H275 C262 0.951 . S
C276 C277 1.391 . S
C276 C278 1.383 . S
C276 H292 0.951 . S
C277 C276 1.391 . S
C277 C281 1.378 1_655 S
C278 C276 1.383 . S
C278 C279 1.402 . S
C278 H293 0.951 . S
C279 C278 1.402 . S
C279 C280 1.375 1_655 S
C279 C282 1.481 . S
C280 C279 1.375 1_455 S
C280 C281 1.367 . S
C280 H294 0.951 . S
C281 C277 1.378 1_455 S
C281 C280 1.367 . S
C281 H295 0.950 . S
C282 C279 1.481 . S
C282 C283 1.297 . S
C282 H296 0.950 1_655 S
C283 C282 1.297 . S
C283 C284 1.479 . S
C283 H297 0.950 . S
C284 C283 1.479 . S
C284 C285 1.375 . S
C284 C290 1.393 1_655 S
C285 C284 1.375 . S
C285 C286 1.369 . S
C285 H298 0.950 . S
C286 C285 1.369 . S
C286 C287 1.392 . S
C286 H299 0.951 . S
C287 C286 1.392 . S
C287 C289 1.384 1_655 S
H288 C290 0.956 . S
C289 C287 1.384 1_455 S
C289 C290 1.388 . S
C289 H291 0.950 . S
C290 C284 1.393 1_455 S
C290 H288 0.956 . S
C290 C289 1.388 . S
H291 C289 0.950 . S
H292 C276 0.951 . S
H293 C278 0.951 . S
H294 C280 0.951 . S
H295 C281 0.950 . S
H296 C282 0.950 1_455 S
H297 C283 0.950 . S
H298 C285 0.950 . S
H299 C286 0.951 . S
C300 C301 1.375 1_545 S
C300 C302 1.383 . S
C300 H316 0.951 . S
C301 C300 1.375 1_565 S
C301 C305 1.394 . S
C302 C300 1.383 . S
C302 C303 1.402 1_545 S
C302 H317 0.951 . S
C303 C302 1.402 1_565 S
C303 C304 1.375 . S
C303 C306 1.481 . S
C304 C303 1.375 . S
C304 C305 1.367 . S
C304 H318 0.951 . S
C305 C301 1.394 . S
C305 C304 1.367 . S
C305 H319 0.950 . S
C306 C303 1.481 . S
C306 C307 1.297 1_565 S
C306 H320 0.950 . S
C307 C306 1.297 1_545 S
C307 C308 1.479 . S
C307 H321 0.950 . S
C308 C307 1.479 . S
C308 C309 1.375 . S
C308 C314 1.404 1_545 S
C309 C308 1.375 . S
C309 C310 1.369 . S
C309 H322 0.950 . S
C310 C309 1.369 . S
C310 C311 1.392 . S
C310 H323 0.951 . S
C311 C310 1.392 . S
C311 C313 1.384 1_545 S
H312 C314 0.949 . S
C313 C311 1.384 1_565 S
C313 C314 1.385 . S
C313 H315 0.950 . S
C314 C308 1.404 1_565 S
C314 H312 0.949 . S
C314 C313 1.385 . S
H315 C313 0.950 . S
H316 C300 0.951 . S
H317 C302 0.951 . S
H318 C304 0.951 . S
H319 C305 0.950 . S
H320 C306 0.950 . S
H321 C307 0.950 . S
H322 C309 0.950 . S
H323 C310 0.951 . S
C324 C325 1.386 1_655 S
C324 C326 1.383 . S
C324 H340 0.951 . S
C325 C324 1.386 1_455 S
C325 C329 1.383 . S
C326 C324 1.383 . S
C326 C327 1.402 1_655 S
C326 H341 0.951 . S
C327 C326 1.402 1_455 S
C327 C328 1.375 . S
C327 C330 1.481 . S
C328 C327 1.375 . S
C328 C329 1.367 . S
C328 H342 0.951 . S
C329 C325 1.383 . S
C329 C328 1.367 . S
C329 H343 0.950 . S
C330 C327 1.481 . S
C330 C331 1.297 . S
C330 H344 0.950 . S
C331 C330 1.297 . S
C331 C332 1.479 . S
C331 H345 0.950 1_455 S
C332 C331 1.479 . S
C332 C333 1.375 1_455 S
C332 C338 1.404 . S
C333 C332 1.375 1_655 S
C333 C334 1.369 . S
C333 H346 0.950 . S
C334 C333 1.369 . S
C334 C335 1.392 1_655 S
C334 H347 0.951 . S
C335 C334 1.392 1_455 S
C335 C337 1.384 . S
H336 C338 0.949 . S
C337 C335 1.384 . S
C337 C338 1.385 . S
C337 H339 0.950 . S
C338 C332 1.404 . S
C338 H336 0.949 . S
C338 C337 1.385 . S
H339 C337 0.950 . S
H340 C324 0.951 . S
H341 C326 0.951 . S
H342 C328 0.951 . S
H343 C329 0.950 . S
H344 C330 0.950 . S
H345 C331 0.950 1_655 S
H346 C333 0.950 . S
H347 C334 0.951 . S
C348 C349 1.386 1_565 S
C348 C350 1.383 . S
C348 H364 0.951 . S
C349 C348 1.386 1_545 S
C349 C353 1.383 . S
C350 C348 1.383 . S
C350 C351 1.402 1_565 S
C350 H365 0.951 . S
C351 C350 1.402 1_545 S
C351 C352 1.375 . S
C351 C354 1.481 . S
C352 C351 1.375 . S
C352 C353 1.367 . S
C352 H366 0.951 . S
C353 C349 1.383 . S
C353 C352 1.367 . S
C353 H367 0.950 . S
C354 C351 1.481 . S
C354 C355 1.297 . S
C354 H368 0.950 . S
C355 C354 1.297 . S
C355 C356 1.479 . S
C355 H369 0.950 1_545 S
C356 C355 1.479 . S
C356 C357 1.375 1_545 S
C356 C362 1.404 . S
C357 C356 1.375 1_565 S
C357 C358 1.369 . S
C357 H370 0.950 . S
C358 C357 1.369 . S
C358 C359 1.392 1_565 S
C358 H371 0.951 . S
C359 C358 1.392 1_545 S
C359 C361 1.384 . S
H360 C362 0.949 . S
C361 C359 1.384 . S
C361 C362 1.385 . S
C361 H363 0.950 . S
C362 C356 1.404 . S
C362 H360 0.949 . S
C362 C361 1.385 . S
H363 C361 0.950 . S
H364 C348 0.951 . S
H365 C350 0.951 . S
H366 C352 0.951 . S
H367 C353 0.950 . S
H368 C354 0.950 . S
H369 C355 0.950 1_565 S
H370 C357 0.950 . S
H371 C358 0.951 . S
C372 C373 1.386 1_655 S
C372 C374 1.383 . S
C372 H388 0.951 . S
C373 C372 1.386 1_455 S
C373 C377 1.383 . S
C374 C372 1.383 . S
C374 C375 1.402 1_655 S
C374 H389 0.951 . S
C375 C374 1.402 1_455 S
C375 C376 1.375 . S
C375 C378 1.481 . S
C376 C375 1.375 . S
C376 C377 1.367 . S
C376 H390 0.951 . S
C377 C373 1.383 . S
C377 C376 1.367 . S
C377 H391 0.950 . S
C378 C375 1.481 . S
C378 C379 1.297 1_455 S
C378 H392 0.950 . S
C379 C378 1.297 1_655 S
C379 C380 1.479 . S
C379 H393 0.950 . S
C380 C379 1.479 . S
C380 C381 1.375 . S
C380 C386 1.404 1_655 S
C381 C380 1.375 . S
C381 C382 1.369 . S
C381 H394 0.950 . S
C382 C381 1.369 . S
C382 C383 1.393 1_655 S
C382 H395 0.951 . S
C383 C382 1.393 1_455 S
C383 C385 1.384 . S
H384 C386 0.949 . S
C385 C383 1.384 . S
C385 C386 1.385 . S
C385 H387 0.950 . S
C386 C380 1.404 1_455 S
C386 H384 0.949 . S
C386 C385 1.385 . S
H387 C385 0.950 . S
H388 C372 0.951 . S
H389 C374 0.951 . S
H390 C376 0.951 . S
H391 C377 0.950 . S
H392 C378 0.950 . S
H393 C379 0.950 . S
H394 C381 0.950 . S
H395 C382 0.951 . S
C215 C77 1.436 1_565 S
C205 C13 1.444 . S
C239 C165 1.449 . S
C229 C15 1.445 1_655 S
C263 C85 1.443 . S
C253 C1 1.445 . S
C287 C173 1.448 1_655 S
C277 C27 1.445 . S
C311 C145 1.450 . S
C301 C0 1.446 . S
C335 C48 1.443 . S
C325 C26 1.451 . S
C359 C136 1.444 . S
C349 C12 1.456 . S
C373 C14 1.452 1_455 S
C383 C57 1.433 . S
