# Generated by pormake.
# Topology tph, (6,8)-cn, num edge types: 1
# Building blocks:
#     Node 0, Type 0, BuildingBlock: IZENUY_clean_sbu_0, # of connection points: 6
#     Node 1, Type 0, BuildingBlock: IZENUY_clean_sbu_0, # of connection points: 6
#     Node 2, Type 0, BuildingBlock: IZENUY_clean_sbu_0, # of connection points: 6
#     Node 3, Type 0, BuildingBlock: IZENUY_clean_sbu_0, # of connection points: 6
#     Node 4, Type 0, BuildingBlock: IZENUY_clean_sbu_0, # of connection points: 6
#     Node 5, Type 0, BuildingBlock: IZENUY_clean_sbu_0, # of connection points: 6
#     Node 6, Type 0, BuildingBlock: IZENUY_clean_sbu_0, # of connection points: 6
#     Node 7, Type 0, BuildingBlock: IZENUY_clean_sbu_0, # of connection points: 6
#     Node 8, Type 0, BuildingBlock: IZENUY_clean_sbu_0, # of connection points: 6
#     Node 9, Type 0, BuildingBlock: IZENUY_clean_sbu_0, # of connection points: 6
#     Node 10, Type 0, BuildingBlock: IZENUY_clean_sbu_0, # of connection points: 6
#     Node 11, Type 0, BuildingBlock: IZENUY_clean_sbu_0, # of connection points: 6
#     Node 12, Type 0, BuildingBlock: IZENUY_clean_sbu_0, # of connection points: 6
#     Node 13, Type 0, BuildingBlock: IZENUY_clean_sbu_0, # of connection points: 6
#     Node 14, Type 0, BuildingBlock: IZENUY_clean_sbu_0, # of connection points: 6
#     Node 15, Type 0, BuildingBlock: IZENUY_clean_sbu_0, # of connection points: 6
#     Node 16, Type 1, BuildingBlock: TAGTUT_clean_sbu_3, # of connection points: 8
#     Node 17, Type 1, BuildingBlock: TAGTUT_clean_sbu_3, # of connection points: 8
#     Node 18, Type 1, BuildingBlock: TAGTUT_clean_sbu_3, # of connection points: 8
#     Node 19, Type 1, BuildingBlock: TAGTUT_clean_sbu_3, # of connection points: 8
#     Node 20, Type 1, BuildingBlock: TAGTUT_clean_sbu_3, # of connection points: 8
#     Node 21, Type 1, BuildingBlock: TAGTUT_clean_sbu_3, # of connection points: 8
#     Node 22, Type 1, BuildingBlock: TAGTUT_clean_sbu_3, # of connection points: 8
#     Node 23, Type 1, BuildingBlock: TAGTUT_clean_sbu_3, # of connection points: 8
#     Node 24, Type 1, BuildingBlock: TAGTUT_clean_sbu_3, # of connection points: 8
#     Node 25, Type 1, BuildingBlock: TAGTUT_clean_sbu_3, # of connection points: 8
#     Node 26, Type 1, BuildingBlock: TAGTUT_clean_sbu_3, # of connection points: 8
#     Node 27, Type 1, BuildingBlock: TAGTUT_clean_sbu_3, # of connection points: 8
#     Edge 28, Type (0, 1), BuildingBlock: AJUNOK_clean_linker_0, # of connection points: 2
#     Edge 29, Type (0, 1), BuildingBlock: AJUNOK_clean_linker_0, # of connection points: 2
#     Edge 30, Type (0, 1), BuildingBlock: AJUNOK_clean_linker_0, # of connection points: 2
#     Edge 31, Type (0, 1), BuildingBlock: AJUNOK_clean_linker_0, # of connection points: 2
#     Edge 32, Type (0, 1), BuildingBlock: AJUNOK_clean_linker_0, # of connection points: 2
#     Edge 33, Type (0, 1), BuildingBlock: AJUNOK_clean_linker_0, # of connection points: 2
#     Edge 34, Type (0, 1), BuildingBlock: AJUNOK_clean_linker_0, # of connection points: 2
#     Edge 35, Type (0, 1), BuildingBlock: AJUNOK_clean_linker_0, # of connection points: 2
#     Edge 36, Type (0, 1), BuildingBlock: AJUNOK_clean_linker_0, # of connection points: 2
#     Edge 37, Type (0, 1), BuildingBlock: AJUNOK_clean_linker_0, # of connection points: 2
#     Edge 38, Type (0, 1), BuildingBlock: AJUNOK_clean_linker_0, # of connection points: 2
#     Edge 39, Type (0, 1), BuildingBlock: AJUNOK_clean_linker_0, # of connection points: 2
#     Edge 40, Type (0, 1), BuildingBlock: AJUNOK_clean_linker_0, # of connection points: 2
#     Edge 41, Type (0, 1), BuildingBlock: AJUNOK_clean_linker_0, # of connection points: 2
#     Edge 42, Type (0, 1), BuildingBlock: AJUNOK_clean_linker_0, # of connection points: 2
#     Edge 43, Type (0, 1), BuildingBlock: AJUNOK_clean_linker_0, # of connection points: 2
#     Edge 44, Type (0, 1), BuildingBlock: AJUNOK_clean_linker_0, # of connection points: 2
#     Edge 45, Type (0, 1), BuildingBlock: AJUNOK_clean_linker_0, # of connection points: 2
#     Edge 46, Type (0, 1), BuildingBlock: AJUNOK_clean_linker_0, # of connection points: 2
#     Edge 47, Type (0, 1), BuildingBlock: AJUNOK_clean_linker_0, # of connection points: 2
#     Edge 48, Type (0, 1), BuildingBlock: AJUNOK_clean_linker_0, # of connection points: 2
#     Edge 49, Type (0, 1), BuildingBlock: AJUNOK_clean_linker_0, # of connection points: 2
#     Edge 50, Type (0, 1), BuildingBlock: AJUNOK_clean_linker_0, # of connection points: 2
#     Edge 51, Type (0, 1), BuildingBlock: AJUNOK_clean_linker_0, # of connection points: 2
#     Edge 52, Type (0, 1), BuildingBlock: AJUNOK_clean_linker_0, # of connection points: 2
#     Edge 53, Type (0, 1), BuildingBlock: AJUNOK_clean_linker_0, # of connection points: 2
#     Edge 54, Type (0, 1), BuildingBlock: AJUNOK_clean_linker_0, # of connection points: 2
#     Edge 55, Type (0, 1), BuildingBlock: AJUNOK_clean_linker_0, # of connection points: 2
#     Edge 56, Type (0, 1), BuildingBlock: AJUNOK_clean_linker_0, # of connection points: 2
#     Edge 57, Type (0, 1), BuildingBlock: AJUNOK_clean_linker_0, # of connection points: 2
#     Edge 58, Type (0, 1), BuildingBlock: AJUNOK_clean_linker_0, # of connection points: 2
#     Edge 59, Type (0, 1), BuildingBlock: AJUNOK_clean_linker_0, # of connection points: 2
#     Edge 60, Type (0, 1), BuildingBlock: AJUNOK_clean_linker_0, # of connection points: 2
#     Edge 61, Type (0, 1), BuildingBlock: AJUNOK_clean_linker_0, # of connection points: 2
#     Edge 62, Type (0, 1), BuildingBlock: AJUNOK_clean_linker_0, # of connection points: 2
#     Edge 63, Type (0, 1), BuildingBlock: AJUNOK_clean_linker_0, # of connection points: 2
#     Edge 64, Type (0, 1), BuildingBlock: AJUNOK_clean_linker_0, # of connection points: 2
#     Edge 65, Type (0, 1), BuildingBlock: AJUNOK_clean_linker_0, # of connection points: 2
#     Edge 66, Type (0, 1), BuildingBlock: AJUNOK_clean_linker_0, # of connection points: 2
#     Edge 67, Type (0, 1), BuildingBlock: AJUNOK_clean_linker_0, # of connection points: 2
#     Edge 68, Type (0, 1), BuildingBlock: AJUNOK_clean_linker_0, # of connection points: 2
#     Edge 69, Type (0, 1), BuildingBlock: AJUNOK_clean_linker_0, # of connection points: 2
#     Edge 70, Type (0, 1), BuildingBlock: AJUNOK_clean_linker_0, # of connection points: 2
#     Edge 71, Type (0, 1), BuildingBlock: AJUNOK_clean_linker_0, # of connection points: 2
#     Edge 72, Type (0, 1), BuildingBlock: AJUNOK_clean_linker_0, # of connection points: 2
#     Edge 73, Type (0, 1), BuildingBlock: AJUNOK_clean_linker_0, # of connection points: 2
#     Edge 74, Type (0, 1), BuildingBlock: AJUNOK_clean_linker_0, # of connection points: 2
#     Edge 75, Type (0, 1), BuildingBlock: AJUNOK_clean_linker_0, # of connection points: 2
#     Edge 76, Type (0, 1), BuildingBlock: AJUNOK_clean_linker_0, # of connection points: 2
#     Edge 77, Type (0, 1), BuildingBlock: AJUNOK_clean_linker_0, # of connection points: 2
#     Edge 78, Type (0, 1), BuildingBlock: AJUNOK_clean_linker_0, # of connection points: 2
#     Edge 79, Type (0, 1), BuildingBlock: AJUNOK_clean_linker_0, # of connection points: 2
#     Edge 80, Type (0, 1), BuildingBlock: AJUNOK_clean_linker_0, # of connection points: 2
#     Edge 81, Type (0, 1), BuildingBlock: AJUNOK_clean_linker_0, # of connection points: 2
#     Edge 82, Type (0, 1), BuildingBlock: AJUNOK_clean_linker_0, # of connection points: 2
#     Edge 83, Type (0, 1), BuildingBlock: AJUNOK_clean_linker_0, # of connection points: 2
#     Edge 84, Type (0, 1), BuildingBlock: AJUNOK_clean_linker_0, # of connection points: 2
#     Edge 85, Type (0, 1), BuildingBlock: AJUNOK_clean_linker_0, # of connection points: 2
#     Edge 86, Type (0, 1), BuildingBlock: AJUNOK_clean_linker_0, # of connection points: 2
#     Edge 87, Type (0, 1), BuildingBlock: AJUNOK_clean_linker_0, # of connection points: 2
#     Edge 88, Type (0, 1), BuildingBlock: AJUNOK_clean_linker_0, # of connection points: 2
#     Edge 89, Type (0, 1), BuildingBlock: AJUNOK_clean_linker_0, # of connection points: 2
#     Edge 90, Type (0, 1), BuildingBlock: AJUNOK_clean_linker_0, # of connection points: 2
#     Edge 91, Type (0, 1), BuildingBlock: AJUNOK_clean_linker_0, # of connection points: 2
#     Edge 92, Type (0, 1), BuildingBlock: AJUNOK_clean_linker_0, # of connection points: 2
#     Edge 93, Type (0, 1), BuildingBlock: AJUNOK_clean_linker_0, # of connection points: 2
#     Edge 94, Type (0, 1), BuildingBlock: AJUNOK_clean_linker_0, # of connection points: 2
#     Edge 95, Type (0, 1), BuildingBlock: AJUNOK_clean_linker_0, # of connection points: 2
#     Edge 96, Type (0, 1), BuildingBlock: AJUNOK_clean_linker_0, # of connection points: 2
#     Edge 97, Type (0, 1), BuildingBlock: AJUNOK_clean_linker_0, # of connection points: 2
#     Edge 98, Type (0, 1), BuildingBlock: AJUNOK_clean_linker_0, # of connection points: 2
#     Edge 99, Type (0, 1), BuildingBlock: AJUNOK_clean_linker_0, # of connection points: 2
#     Edge 100, Type (0, 1), BuildingBlock: AJUNOK_clean_linker_0, # of connection points: 2
#     Edge 101, Type (0, 1), BuildingBlock: AJUNOK_clean_linker_0, # of connection points: 2
#     Edge 102, Type (0, 1), BuildingBlock: AJUNOK_clean_linker_0, # of connection points: 2
#     Edge 103, Type (0, 1), BuildingBlock: AJUNOK_clean_linker_0, # of connection points: 2
#     Edge 104, Type (0, 1), BuildingBlock: AJUNOK_clean_linker_0, # of connection points: 2
#     Edge 105, Type (0, 1), BuildingBlock: AJUNOK_clean_linker_0, # of connection points: 2
#     Edge 106, Type (0, 1), BuildingBlock: AJUNOK_clean_linker_0, # of connection points: 2
#     Edge 107, Type (0, 1), BuildingBlock: AJUNOK_clean_linker_0, # of connection points: 2
#     Edge 108, Type (0, 1), BuildingBlock: AJUNOK_clean_linker_0, # of connection points: 2
#     Edge 109, Type (0, 1), BuildingBlock: AJUNOK_clean_linker_0, # of connection points: 2
#     Edge 110, Type (0, 1), BuildingBlock: AJUNOK_clean_linker_0, # of connection points: 2
#     Edge 111, Type (0, 1), BuildingBlock: AJUNOK_clean_linker_0, # of connection points: 2
#     Edge 112, Type (0, 1), BuildingBlock: AJUNOK_clean_linker_0, # of connection points: 2
#     Edge 113, Type (0, 1), BuildingBlock: AJUNOK_clean_linker_0, # of connection points: 2
#     Edge 114, Type (0, 1), BuildingBlock: AJUNOK_clean_linker_0, # of connection points: 2
#     Edge 115, Type (0, 1), BuildingBlock: AJUNOK_clean_linker_0, # of connection points: 2
#     Edge 116, Type (0, 1), BuildingBlock: AJUNOK_clean_linker_0, # of connection points: 2
#     Edge 117, Type (0, 1), BuildingBlock: AJUNOK_clean_linker_0, # of connection points: 2
#     Edge 118, Type (0, 1), BuildingBlock: AJUNOK_clean_linker_0, # of connection points: 2
#     Edge 119, Type (0, 1), BuildingBlock: AJUNOK_clean_linker_0, # of connection points: 2
#     Edge 120, Type (0, 1), BuildingBlock: AJUNOK_clean_linker_0, # of connection points: 2
#     Edge 121, Type (0, 1), BuildingBlock: AJUNOK_clean_linker_0, # of connection points: 2
#     Edge 122, Type (0, 1), BuildingBlock: AJUNOK_clean_linker_0, # of connection points: 2
#     Edge 123, Type (0, 1), BuildingBlock: AJUNOK_clean_linker_0, # of connection points: 2
# Relax obj value: 0.185
# Max RMSD: 0.260
# Mean RMSD: 0.254
data_MOF--net-tph--node1-IZENUY_clean_sbu_0--node2-TAGTUT_clean_sbu_3--edge1-AJUNOK_clean_linker_0
_symmetry_space_group_name_H-M    P1
_symmetry_Int_Tables_number       1
_symmetry_cell_setting            triclinic
loop_
_symmetry_equiv_pos_as_xyz
'x, y, z'
_cell_length_a     36.022751
_cell_length_b     36.120386
_cell_length_c     36.071988
_cell_angle_alpha  89.176785
_cell_angle_beta   89.90957
_cell_angle_gamma 89.03579
loop_
_atom_site_label
_atom_site_type_symbol
_atom_site_fract_x
_atom_site_fract_y
_atom_site_fract_z
_atom_type_partial_charge
Fe0 Fe 0.20467 0.21987 0.15592 0.0
Fe1 Fe 0.15212 0.2232 0.222 0.0
O2 O 0.18905 0.20111 0.1984 0.0
Fe3 Fe 0.21019 0.1604 0.21658 0.0
O4 O 0.19845 0.13466 0.17588 0.0
O5 O 0.22018 0.17511 0.13606 0.0
O6 O 0.16074 0.21184 0.13514 0.0
C7 C 0.13054 0.22488 0.14701 0.0
C8 C 0.27023 0.20126 0.1842 0.0
O9 O 0.1282 0.23921 0.17892 0.0
C10 C 0.19926 0.19667 0.28092 0.0
O11 O 0.19159 0.26818 0.16689 0.0
O12 O 0.17806 0.26514 0.22594 0.0
O13 O 0.25681 0.17152 0.19772 0.0
O14 O 0.24917 0.22802 0.17557 0.0
C15 C 0.13366 0.15081 0.22867 0.0
O16 O 0.16842 0.20935 0.26891 0.0
O17 O 0.22288 0.18314 0.2589 0.0
C18 C 0.18621 0.28401 0.19761 0.0
O19 O 0.12456 0.18311 0.21886 0.0
O20 O 0.16694 0.14227 0.23711 0.0
C21 C 0.21013 0.14247 0.14395 0.0
Fe22 Fe 0.47808 0.56245 0.10243 0.0
Fe23 Fe 0.46602 0.60835 0.03151 0.0
O24 O 0.44934 0.57629 0.06471 0.0
Fe25 Fe 0.40392 0.55911 0.06228 0.0
O26 O 0.3928 0.57729 0.10703 0.0
O27 O 0.43959 0.55113 0.13507 0.0
O28 O 0.47611 0.60862 0.11957 0.0
C29 C 0.48454 0.63687 0.10072 0.0
C30 C 0.45116 0.49624 0.08408 0.0
O31 O 0.49162 0.63517 0.06624 0.0
C32 C 0.42131 0.55941 0.98896 0.0
O33 O 0.52274 0.57171 0.07835 0.0
O34 O 0.50553 0.57869 0.02091 0.0
O35 O 0.41886 0.51172 0.08049 0.0
O36 O 0.47989 0.51577 0.08592 0.0
C37 C 0.39529 0.6358 0.04289 0.0
O38 O 0.4408 0.58821 0.99218 0.0
O39 O 0.411 0.54101 0.01679 0.0
C40 C 0.53127 0.57485 0.04429 0.0
O41 O 0.42943 0.64027 0.04023 0.0
O42 O 0.38205 0.60328 0.04448 0.0
C43 C 0.40777 0.56647 0.1364 0.0
Fe44 Fe 0.78592 0.2933 0.13751 0.0
Fe45 Fe 0.84781 0.28973 0.19513 0.0
O46 O 0.80712 0.31091 0.17727 0.0
Fe47 Fe 0.7878 0.34963 0.19952 0.0
O48 O 0.79443 0.37751 0.15927 0.0
O49 O 0.76874 0.34011 0.11988 0.0
O50 O 0.82704 0.30075 0.11048 0.0
C51 C 0.85632 0.28219 0.11609 0.0
C52 C 0.72385 0.31075 0.17485 0.0
O53 O 0.86479 0.27217 0.14915 0.0
C54 C 0.80855 0.31327 0.26062 0.0
O55 O 0.79978 0.24376 0.14866 0.0
O56 O 0.82323 0.24794 0.20471 0.0
O57 O 0.73892 0.33988 0.18663 0.0
O58 O 0.7436 0.28483 0.16234 0.0
C59 C 0.86549 0.36129 0.20169 0.0
O60 O 0.83844 0.30335 0.24419 0.0
O61 O 0.78091 0.32328 0.24154 0.0
C62 C 0.80994 0.22861 0.17942 0.0
O63 O 0.87387 0.33105 0.18659 0.0
O64 O 0.83322 0.36717 0.21489 0.0
C65 C 0.77821 0.37272 0.12916 0.0
Fe66 Fe 0.54096 0.95263 0.11148 0.0
Fe67 Fe 0.57144 0.89142 0.06087 0.0
O68 O 0.57438 0.93615 0.07944 0.0
Fe69 Fe 0.61252 0.96446 0.06755 0.0
O70 O 0.62868 0.96141 0.11438 0.0
O71 O 0.57515 0.97798 0.1392 0.0
O72 O 0.55023 0.91579 0.14297 0.0
C73 C 0.55492 0.88205 0.13743 0.0
C74 C 0.55343 0.01726 0.07866 0.0
O75 O 0.55413 0.8694 0.1046 0.0
C76 C 0.59629 0.93895 0.99996 0.0
O77 O 0.50169 0.92833 0.09078 0.0
O78 O 0.52525 0.89976 0.04251 0.0
O79 O 0.58769 0.00874 0.07653 0.0
O80 O 0.53018 0.99189 0.08191 0.0
C81 C 0.64609 0.89421 0.07119 0.0
O82 O 0.58997 0.90689 0.01441 0.0
O83 O 0.5979 0.96728 0.02002 0.0
C84 C 0.49754 0.91054 0.06104 0.0
O85 O 0.61629 0.87864 0.07863 0.0
O86 O 0.64561 0.92638 0.05711 0.0
C87 C 0.60944 0.96993 0.14218 0.0
Fe88 Fe 0.19589 0.84988 0.27618 0.0
Fe89 Fe 0.18572 0.80112 0.34523 0.0
O90 O 0.17348 0.81346 0.29943 0.0
Fe91 Fe 0.13841 0.78871 0.27698 0.0
O92 O 0.10993 0.82905 0.27337 0.0
O93 O 0.15277 0.86581 0.25047 0.0
O94 O 0.18266 0.88274 0.31082 0.0
C95 C 0.19131 0.8794 0.34437 0.0
C96 C 0.1882 0.80586 0.21772 0.0
O97 O 0.19911 0.84803 0.35865 0.0
C98 C 0.17066 0.73178 0.31173 0.0
O99 O 0.24198 0.84008 0.29893 0.0
O100 O 0.23249 0.78935 0.33197 0.0
O101 O 0.15649 0.79647 0.2294 0.0
O102 O 0.21095 0.81934 0.23983 0.0
C103 C 0.11151 0.79587 0.34992 0.0
O104 O 0.17427 0.75165 0.34026 0.0
O105 O 0.16587 0.74689 0.2804 0.0
C106 C 0.25451 0.81235 0.31795 0.0
O107 O 0.13963 0.81283 0.36063 0.0
O108 O 0.11239 0.77786 0.32002 0.0
C109 C 0.1186 0.85785 0.25587 0.0
Fe110 Fe 0.11319 0.53545 0.96102 0.0
Fe111 Fe 0.06476 0.56042 0.89493 0.0
O112 O 0.08381 0.56875 0.93888 0.0
Fe113 Fe 0.07529 0.61174 0.9606 0.0
O114 O 0.1233 0.62253 0.95626 0.0
O115 O 0.14293 0.57067 0.98273 0.0
O116 O 0.1456 0.53719 0.92443 0.0
C117 C 0.14013 0.53812 0.89029 0.0
C118 C 0.07961 0.55961 0.02217 0.0
O119 O 0.1073 0.53674 0.87722 0.0
C120 C 0.00633 0.59689 0.9372 0.0
O121 O 0.09064 0.49457 0.94105 0.0
O122 O 0.04331 0.51796 0.91006 0.0
O123 O 0.0817 0.59258 0.009 0.0
O124 O 0.08201 0.5329 1.00015 0.0
C125 C 0.07995 0.63333 0.88462 0.0
O126 O 0.01967 0.58454 0.90661 0.0
O127 O 0.02694 0.6025 0.96468 0.0
C128 C 0.06076 0.49032 0.92308 0.0
O129 O 0.08543 0.60077 0.87501 0.0
O130 O 0.06748 0.63965 0.91692 0.0
C131 C 0.14919 0.6028 0.96952 0.0
Fe132 Fe 0.79369 0.64689 0.30233 0.0
Fe133 Fe 0.85139 0.70691 0.30554 0.0
O134 O 0.81037 0.68727 0.32241 0.0
Fe135 Fe 0.78625 0.7075 0.3597 0.0
O136 O 0.74534 0.71509 0.33157 0.0
O137 O 0.74312 0.65771 0.31304 0.0
O138 O 0.78726 0.66993 0.25832 0.0
C139 C 0.8151 0.67968 0.23971 0.0
C140 C 0.77975 0.62889 0.37237 0.0
O141 O 0.84392 0.6912 0.25654 0.0
C142 C 0.85558 0.71751 0.38483 0.0
O143 O 0.84094 0.62836 0.28855 0.0
O144 O 0.87799 0.66589 0.31722 0.0
O145 O 0.76841 0.66202 0.37858 0.0
O146 O 0.80039 0.62272 0.34516 0.0
C147 C 0.81396 0.76988 0.31717 0.0
O148 O 0.86597 0.72579 0.3518 0.0
O149 O 0.82554 0.7009 0.38979 0.0
C150 C 0.87328 0.6361 0.30045 0.0
O151 O 0.82679 0.74861 0.29299 0.0
O152 O 0.80058 0.75614 0.3472 0.0
C153 C 0.72645 0.68821 0.32101 0.0
Fe154 Fe 0.89692 0.96228 0.95667 0.0
Fe155 Fe 0.95694 0.94067 0.89999 0.0
O156 O 0.93572 0.93487 0.94379 0.0
Fe157 Fe 0.95301 0.89997 0.97456 0.0
O158 O 0.91117 0.87512 0.97091 0.0
O159 O 0.87315 0.92264 0.98052 0.0
O160 O 0.87091 0.94842 0.91793 0.0
C161 C 0.8795 0.94723 0.88451 0.0
C162 C 0.9269 0.95595 0.02436 0.0
O163 O 0.91292 0.95297 0.87446 0.0
C164 C 0.01808 0.92548 0.95109 0.0
O165 O 0.9138 0.00543 0.93276 0.0
O166 O 0.96767 0.98823 0.90869 0.0
O167 O 0.93654 0.92277 0.01755 0.0
O168 O 0.91978 0.9778 0.99789 0.0
C169 C 0.9576 0.86594 0.90559 0.0
O170 O 0.00483 0.9278 0.91805 0.0
O171 O 0.99626 0.92367 0.97841 0.0
C172 C 0.94462 0.01338 0.91706 0.0
O173 O 0.94653 0.89408 0.8881 0.0
O174 O 0.97117 0.86899 0.93776 0.0
C175 C 0.87907 0.88794 0.97594 0.0
Fe176 Fe 0.3972 0.45634 0.44972 0.0
Fe177 Fe 0.4645 0.4428 0.39956 0.0
O178 O 0.43991 0.43353 0.44104 0.0
Fe179 Fe 0.45817 0.40046 0.47277 0.0
O180 O 0.41913 0.37217 0.46794 0.0
O181 O 0.37503 0.41484 0.47174 0.0
O182 O 0.37745 0.43917 0.40814 0.0
C183 C 0.38971 0.44324 0.37606 0.0
C184 C 0.42412 0.45435 0.51998 0.0
O185 O 0.42248 0.45505 0.37121 0.0
C186 C 0.52271 0.42956 0.45326 0.0
O187 O 0.41276 0.50127 0.42766 0.0
O188 O 0.4713 0.48988 0.41264 0.0
O189 O 0.43846 0.4226 0.51442 0.0
O190 O 0.41317 0.47425 0.49315 0.0
C191 C 0.46735 0.36818 0.4034 0.0
O192 O 0.51142 0.43106 0.4197 0.0
O193 O 0.49909 0.42748 0.47877 0.0
C194 C 0.44535 0.5127 0.41919 0.0
O195 O 0.45783 0.39644 0.38498 0.0
O196 O 0.47923 0.37085 0.43638 0.0
C197 C 0.38552 0.3809 0.47057 0.0
Fe198 Fe 0.28014 0.78954 0.63963 0.0
Fe199 Fe 0.28634 0.85122 0.69562 0.0
O200 O 0.30349 0.80977 0.6767 0.0
Fe201 Fe 0.3439 0.78869 0.69513 0.0
O202 O 0.31887 0.74775 0.70815 0.0
O203 O 0.29367 0.74067 0.65341 0.0
O204 O 0.23874 0.78454 0.66731 0.0
C205 C 0.22069 0.8124 0.67839 0.0
C206 C 0.34989 0.77633 0.61642 0.0
O207 O 0.23715 0.84235 0.68487 0.0
C208 C 0.36421 0.85993 0.69605 0.0
O209 O 0.26351 0.83508 0.61899 0.0
O210 O 0.29301 0.87527 0.65271 0.0
O211 O 0.35944 0.76822 0.64976 0.0
O212 O 0.32002 0.79378 0.61038 0.0
C213 C 0.30613 0.81876 0.75922 0.0
O214 O 0.33245 0.86809 0.70912 0.0
O215 O 0.37074 0.82849 0.68283 0.0
C216 C 0.27495 0.86798 0.62416 0.0
O217 O 0.27907 0.82878 0.7395 0.0
O218 O 0.33556 0.80602 0.74359 0.0
C219 C 0.30545 0.7269 0.68416 0.0
Fe220 Fe 0.07658 0.38545 0.55699 0.0
Fe221 Fe 0.11117 0.46085 0.57502 0.0
O222 O 0.07524 0.42824 0.58065 0.0
Fe223 Fe 0.03855 0.4367 0.61245 0.0
O224 O 0.03067 0.38827 0.62296 0.0
O225 O 0.07906 0.35975 0.60196 0.0
O226 O 0.12665 0.381 0.55547 0.0
C227 C 0.15155 0.39543 0.57452 0.0
C228 C 0.99971 0.40662 0.55644 0.0
O229 O 0.14734 0.42712 0.5881 0.0
C230 C 0.05336 0.50908 0.58504 0.0
O231 O 0.07679 0.40893 0.51149 0.0
O232 O 0.11751 0.45177 0.52567 0.0
O233 O 0.00444 0.43538 0.57555 0.0
O234 O 0.02549 0.38234 0.55335 0.0
C235 C 0.09861 0.45904 0.65187 0.0
O236 O 0.07844 0.49821 0.56285 0.0
O237 O 0.03923 0.48682 0.60803 0.0
C238 C 0.09983 0.43371 0.50176 0.0
O239 O 0.11081 0.47485 0.62306 0.0
O240 O 0.07125 0.43783 0.65092 0.0
C241 C 0.05604 0.36476 0.628 0.0
Fe242 Fe 0.978 0.05573 0.60898 0.0
Fe243 Fe 0.96474 0.10518 0.54055 0.0
O244 O 0.94874 0.07131 0.57231 0.0
Fe245 Fe 0.90339 0.05414 0.56948 0.0
O246 O 0.89269 0.07026 0.6152 0.0
O247 O 0.94007 0.04321 0.64152 0.0
O248 O 0.97632 0.10127 0.62825 0.0
C249 C 0.98444 0.13037 0.61054 0.0
C250 C 0.95032 0.99049 0.58737 0.0
O251 O 0.99122 0.13003 0.57599 0.0
C252 C 0.92095 0.05738 0.49581 0.0
O253 O 0.02215 0.0659 0.58453 0.0
O254 O 0.00391 0.07601 0.52777 0.0
O255 O 0.91819 0.00636 0.58563 0.0
O256 O 0.97933 0.00956 0.5905 0.0
C257 C 0.89419 0.13125 0.5555 0.0
O258 O 0.93906 0.08688 0.50054 0.0
O259 O 0.91027 0.03804 0.52295 0.0
C260 C 0.03002 0.0707 0.55049 0.0
O261 O 0.92817 0.13678 0.55187 0.0
O262 O 0.88156 0.09864 0.55372 0.0
C263 C 0.9084 0.05863 0.64395 0.0
Fe264 Fe 0.70307 0.71232 0.65394 0.0
Fe265 Fe 0.70936 0.65704 0.71842 0.0
O266 O 0.68717 0.69565 0.69712 0.0
Fe267 Fe 0.64897 0.71786 0.71854 0.0
O268 O 0.67367 0.76084 0.72062 0.0
O269 O 0.68893 0.76089 0.66181 0.0
O270 O 0.74739 0.72274 0.67321 0.0
C271 C 0.76881 0.69723 0.68454 0.0
C272 C 0.62923 0.71646 0.64279 0.0
O273 O 0.75578 0.66826 0.69985 0.0
C274 C 0.63265 0.64615 0.73224 0.0
O275 O 0.71987 0.66707 0.63726 0.0
O276 O 0.69968 0.62795 0.67934 0.0
O277 O 0.62568 0.73121 0.67438 0.0
O278 O 0.65966 0.70206 0.63317 0.0
C279 C 0.69552 0.69701 0.77982 0.0
O280 O 0.66648 0.6389 0.73957 0.0
O281 O 0.6226 0.67641 0.71751 0.0
C282 C 0.71157 0.6345 0.64714 0.0
O283 O 0.72035 0.68347 0.75916 0.0
O284 O 0.66446 0.7073 0.76636 0.0
C285 C 0.68312 0.77812 0.69164 0.0
Fe286 Fe 0.69774 0.35217 0.78924 0.0
Fe287 Fe 0.69596 0.29219 0.84928 0.0
O288 O 0.68046 0.30999 0.80607 0.0
Fe289 Fe 0.6475 0.28518 0.78068 0.0
O290 O 0.61493 0.32242 0.78149 0.0
O291 O 0.65243 0.36773 0.76725 0.0
O292 O 0.68209 0.37627 0.82989 0.0
C293 C 0.69561 0.36933 0.86126 0.0
C294 C 0.69388 0.31659 0.72412 0.0
O295 O 0.70761 0.33712 0.86903 0.0
C296 C 0.68336 0.22683 0.80826 0.0
O297 O 0.74573 0.34294 0.80885 0.0
O298 O 0.74244 0.28612 0.83194 0.0
O299 O 0.66467 0.30013 0.73437 0.0
O300 O 0.71455 0.33124 0.74746 0.0
C301 C 0.62207 0.28273 0.85461 0.0
O302 O 0.68701 0.24355 0.83858 0.0
O303 O 0.67844 0.24556 0.779 0.0
C304 C 0.76169 0.31332 0.82172 0.0
O305 O 0.65009 0.29821 0.86783 0.0
O306 O 0.62292 0.26811 0.82275 0.0
C307 C 0.61962 0.3549 0.77034 0.0
Fe308 Fe 0.61043 0.03163 0.45299 0.0
Fe309 Fe 0.559 0.06049 0.39066 0.0
O310 O 0.58002 0.06598 0.43431 0.0
Fe311 Fe 0.57228 0.10738 0.45908 0.0
O312 O 0.62016 0.1187 0.45359 0.0
O313 O 0.64115 0.06531 0.47543 0.0
O314 O 0.64096 0.03544 0.41462 0.0
C315 C 0.63338 0.03565 0.38076 0.0
C316 C 0.58015 0.05199 0.51737 0.0
O317 O 0.59995 0.03714 0.36937 0.0
C318 C 0.50234 0.09438 0.43728 0.0
O319 O 0.58652 0.99218 0.43195 0.0
O320 O 0.53781 0.01732 0.40428 0.0
O321 O 0.58078 0.08562 0.50599 0.0
O322 O 0.58151 0.02659 0.49376 0.0
C323 C 0.5744 0.13374 0.38465 0.0
O324 O 0.51476 0.08437 0.40548 0.0
O325 O 0.52395 0.09765 0.46446 0.0
C326 C 0.55567 0.98904 0.41538 0.0
O327 O 0.57957 0.10197 0.37248 0.0
O328 O 0.56266 0.13761 0.41759 0.0
C329 C 0.64661 0.09845 0.46487 0.0
Fe330 Fe 0.29797 0.14335 0.80266 0.0
Fe331 Fe 0.35472 0.20436 0.80434 0.0
O332 O 0.31407 0.18447 0.82171 0.0
Fe333 Fe 0.28969 0.20525 0.85853 0.0
O334 O 0.24876 0.21179 0.83009 0.0
O335 O 0.24728 0.15385 0.81316 0.0
O336 O 0.29109 0.16519 0.75814 0.0
C337 C 0.31849 0.17557 0.73923 0.0
C338 C 0.28395 0.12694 0.87307 0.0
O339 O 0.34723 0.18782 0.75565 0.0
C340 C 0.35882 0.21652 0.88349 0.0
O341 O 0.34545 0.12523 0.789 0.0
O342 O 0.3819 0.16397 0.81656 0.0
O343 O 0.27223 0.1601 0.87827 0.0
O344 O 0.305 0.12031 0.84621 0.0
C345 C 0.31716 0.26707 0.8152 0.0
O346 O 0.36922 0.22416 0.85029 0.0
O347 O 0.32899 0.1996 0.88875 0.0
C348 C 0.3778 0.13392 0.80017 0.0
O349 O 0.32944 0.24543 0.79115 0.0
O350 O 0.30366 0.25372 0.8453 0.0
C351 C 0.23018 0.18431 0.82044 0.0
C352 C 0.07968 0.20622 0.88068 0.0
C353 C 0.03761 0.23885 0.01911 0.0
C354 C 0.93171 0.23655 0.98197 0.0
Mg355 Mg 0.03786 0.21557 0.80696 0.0
Mg356 Mg 0.98436 0.2866 0.79027 0.0
O357 O 0.98993 0.244 0.81931 0.0
Mg358 Mg 0.99941 0.25197 0.87403 0.0
O359 O 0.0136 0.25284 0.92797 0.0
Mg360 Mg 0.0104 0.19852 0.94198 0.0
Mg361 Mg 0.99151 0.28502 0.96114 0.0
C362 C 0.92032 0.29723 0.84967 0.0
O363 O 0.01734 0.31579 0.87265 0.0
O364 O 0.01354 0.20694 0.75018 0.0
O365 O 0.00282 0.33461 0.9308 0.0
O366 O 0.06687 0.26481 0.77658 0.0
O367 O 0.98156 0.25978 0.73662 0.0
O368 O 0.03591 0.31304 0.79679 0.0
O369 O 0.98213 0.19077 0.8849 0.0
O370 O 0.00764 0.16536 0.83495 0.0
C371 C 0.98861 0.16222 0.865 0.0
C372 C 0.99508 0.22803 0.72777 0.0
O373 O 0.93691 0.27603 0.87422 0.0
O374 O 0.03801 0.21172 0.99662 0.0
O375 O 0.93565 0.30673 0.81889 0.0
O376 O 0.95479 0.20951 0.97687 0.0
O377 O 0.02144 0.26986 0.0113 0.0
O378 O 0.93645 0.26772 0.96611 0.0
O379 O 0.05859 0.22983 0.86416 0.0
O380 O 0.06854 0.19004 0.91062 0.0
C381 C 0.06115 0.29976 0.77611 0.0
C382 C 0.01428 0.34108 0.89777 0.0
C383 C 0.57412 0.70733 0.37838 0.0
C384 C 0.53626 0.74113 0.51476 0.0
C385 C 0.42813 0.73646 0.48285 0.0
Mg386 Mg 0.5303 0.71224 0.30526 0.0
Mg387 Mg 0.47685 0.78258 0.28664 0.0
O388 O 0.48274 0.7411 0.31701 0.0
Mg389 Mg 0.49252 0.75109 0.37116 0.0
O390 O 0.50696 0.75332 0.42501 0.0
Mg391 Mg 0.50548 0.69917 0.43997 0.0
Mg392 Mg 0.48737 0.78636 0.45886 0.0
C393 C 0.41304 0.79461 0.34556 0.0
O394 O 0.50994 0.81483 0.36781 0.0
O395 O 0.50642 0.70187 0.24891 0.0
O396 O 0.49648 0.83498 0.42583 0.0
O397 O 0.55787 0.76069 0.2735 0.0
O398 O 0.47556 0.75494 0.23374 0.0
O399 O 0.52717 0.81148 0.28922 0.0
O400 O 0.4759 0.69059 0.38379 0.0
O401 O 0.5011 0.66224 0.33515 0.0
C402 C 0.48179 0.66125 0.36512 0.0
C403 C 0.48932 0.72311 0.22557 0.0
O404 O 0.42996 0.77475 0.37099 0.0
O405 O 0.53418 0.71346 0.49316 0.0
O406 O 0.42827 0.80311 0.31446 0.0
O407 O 0.45054 0.70941 0.47557 0.0
O408 O 0.52079 0.77256 0.50729 0.0
O409 O 0.43309 0.76875 0.46947 0.0
O410 O 0.55172 0.72924 0.36135 0.0
O411 O 0.56375 0.69134 0.40861 0.0
C412 C 0.55351 0.79576 0.27169 0.0
C413 C 0.5069 0.84074 0.39229 0.0
C414 C 0.97887 0.83869 0.63801 0.0
C415 C 0.97525 0.78209 0.77688 0.0
C416 C 0.05168 0.7084 0.74649 0.0
Mg417 Mg 0.0037 0.80254 0.56236 0.0
Mg418 Mg 0.9924 0.71672 0.54239 0.0
O419 O 0.01164 0.74891 0.57646 0.0
Mg420 Mg 0.99642 0.74923 0.63074 0.0
O421 O 0.98473 0.757 0.68552 0.0
Mg422 Mg 0.02713 0.78916 0.70063 0.0
Mg423 Mg 0.9746 0.71893 0.71891 0.0
C424 C 0.01848 0.66208 0.60664 0.0
O425 O 0.93849 0.72351 0.62717 0.0
O426 O 0.03221 0.79218 0.50756 0.0
O427 O 0.9342 0.69458 0.6834 0.0
O428 O 0.94906 0.78987 0.52668 0.0
O429 O 0.02058 0.73366 0.49196 0.0
O430 O 0.93587 0.73069 0.53659 0.0
O431 O 0.05132 0.77331 0.64345 0.0
O432 O 0.06054 0.81001 0.59425 0.0
C433 C 0.0714 0.79579 0.62537 0.0
C434 C 0.03354 0.76571 0.48442 0.0
O435 O 0.01849 0.68662 0.6326 0.0
O436 O 0.99802 0.79972 0.756 0.0
O437 O 0.00776 0.66863 0.57333 0.0
O438 O 0.05662 0.74212 0.73641 0.0
O439 O 0.96061 0.75147 0.7675 0.0
O440 O 0.02433 0.6903 0.73439 0.0
O441 O 0.97524 0.80918 0.61919 0.0
O442 O 0.99606 0.83782 0.66915 0.0
C443 C 0.92859 0.76163 0.52087 0.0
C444 C 0.92178 0.70221 0.65071 0.0
C445 C 0.86171 0.9925 0.16816 0.0
C446 C 0.72566 0.99447 0.23769 0.0
C447 C 0.77193 0.06131 0.30437 0.0
Mg448 Mg 0.93678 0.01757 0.20253 0.0
Mg449 Mg 0.96102 0.99813 0.28866 0.0
O450 O 0.9247 0.01759 0.25735 0.0
Mg451 Mg 0.87113 0.00285 0.25736 0.0
O452 O 0.81677 0.99169 0.25005 0.0
Mg453 Mg 0.80171 0.03889 0.22095 0.0
Mg454 Mg 0.7911 0.98852 0.29485 0.0
C455 C 0.89628 0.01491 0.3457 0.0
O456 O 0.87391 0.94108 0.28079 0.0
O457 O 0.98918 0.04804 0.21627 0.0
O458 O 0.82184 0.94165 0.31617 0.0
O459 O 0.97407 0.96453 0.20832 0.0
O460 O 0.0048 0.03605 0.27561 0.0
O461 O 0.97805 0.9462 0.26756 0.0
O462 O 0.85797 0.06151 0.23541 0.0
O463 O 0.90322 0.07333 0.19566 0.0
C464 C 0.87314 0.08314 0.21194 0.0
C465 C 0.01044 0.05211 0.24428 0.0
O466 O 0.87084 0.01943 0.32064 0.0
O467 O 0.74614 0.01199 0.21438 0.0
O468 O 0.92957 0.00393 0.33876 0.0
O469 O 0.77051 0.06699 0.26954 0.0
O470 O 0.73662 0.98349 0.26991 0.0
O471 O 0.79853 0.04162 0.31688 0.0
O472 O 0.88122 0.9871 0.19717 0.0
O473 O 0.83053 0.01028 0.16978 0.0
C474 C 0.98613 0.94215 0.23348 0.0
C475 C 0.8511 0.92528 0.30383 0.0
C476 C 0.21484 0.87479 0.07486 0.0
C477 C 0.2429 0.01353 0.05417 0.0
C478 C 0.24066 0.99262 0.94236 0.0
Mg479 Mg 0.22206 0.80452 0.02949 0.0
Mg480 Mg 0.29137 0.7911 0.97584 0.0
O481 O 0.24881 0.81994 0.98192 0.0
Mg482 Mg 0.25771 0.87399 0.9947 0.0
O483 O 0.25817 0.92693 0.01266 0.0
Mg484 Mg 0.20366 0.94125 0.01275 0.0
Mg485 Mg 0.29131 0.96398 0.00219 0.0
C486 C 0.30087 0.85351 0.91497 0.0
O487 O 0.32142 0.87043 0.01245 0.0
O488 O 0.21226 0.74889 0.00377 0.0
O489 O 0.34032 0.93018 0.00953 0.0
O490 O 0.2728 0.77151 0.05532 0.0
O491 O 0.26573 0.73692 0.97308 0.0
O492 O 0.32022 0.79529 0.02606 0.0
O493 O 0.19658 0.88693 0.97923 0.0
O494 O 0.17067 0.83557 1.00174 0.0
C495 C 0.16794 0.867 0.98447 0.0
C496 C 0.23426 0.72697 0.98626 0.0
O497 O 0.28039 0.87757 0.93259 0.0
O498 O 0.21537 0.99274 0.04725 0.0
O499 O 0.31074 0.82206 0.92907 0.0
O500 O 0.21291 0.981 0.9614 0.0
O501 O 0.27537 0.00699 0.04101 0.0
O502 O 0.27402 0.98284 0.94963 0.0
O503 O 0.23754 0.8601 0.05226 0.0
O504 O 0.19747 0.905 0.06654 0.0
C505 C 0.30779 0.77261 0.04989 0.0
C506 C 0.34669 0.89544 0.01459 0.0
C507 C 0.1313 0.43387 0.20749 0.0
C508 C 0.99312 0.44541 0.24263 0.0
C509 C 0.00888 0.55646 0.26135 0.0
Mg510 Mg 0.20381 0.48206 0.21553 0.0
Mg511 Mg 0.22059 0.53603 0.28492 0.0
O512 O 0.18573 0.52057 0.25107 0.0
Mg513 Mg 0.13246 0.50482 0.26056 0.0
O514 O 0.07932 0.48696 0.26097 0.0
Mg515 Mg 0.06237 0.49704 0.20897 0.0
Mg516 Mg 0.04258 0.48641 0.29657 0.0
C517 C 0.14752 0.57944 0.31046 0.0
O518 O 0.13814 0.47779 0.3222 0.0
O519 O 0.25501 0.51625 0.20189 0.0
O520 O 0.07819 0.47223 0.34142 0.0
O521 O 0.24483 0.45446 0.26041 0.0
O522 O 0.26456 0.55599 0.24806 0.0
O523 O 0.24378 0.48855 0.31154 0.0
O524 O 0.1169 0.52977 0.20242 0.0
O525 O 0.16724 0.51215 0.17063 0.0
C526 C 0.13513 0.52803 0.17187 0.0
C527 C 0.27391 0.5417 0.21696 0.0
O528 O 0.12473 0.56106 0.29038 0.0
O529 O 0.01113 0.46143 0.21665 0.0
O530 O 0.18219 0.57117 0.31388 0.0
O531 O 0.02241 0.54685 0.22959 0.0
O532 O 1.00246 0.44787 0.27665 0.0
O533 O 0.01711 0.5391 0.29132 0.0
O534 O 0.14934 0.45189 0.23152 0.0
O535 O 0.09898 0.44462 0.19612 0.0
C536 C 0.2564 0.46116 0.29334 0.0
C537 C 0.1132 0.46891 0.34681 0.0
C538 C 0.67672 0.64172 0.02001 0.0
C539 C 0.74094 0.77429 0.04123 0.0
C540 C 0.8116 0.747 0.96406 0.0
Mg541 Mg 0.70966 0.56956 0.98829 0.0
Mg542 Mg 0.79651 0.54148 0.98947 0.0
O543 O 0.76394 0.58097 0.98457 0.0
Mg544 Mg 0.76621 0.63263 0.00557 0.0
O545 O 0.75978 0.68501 0.02329 0.0
Mg546 Mg 0.72874 0.70728 0.98143 0.0
Mg547 Mg 0.80181 0.71215 0.03347 0.0
C548 C 0.85202 0.60744 0.97454 0.0
O549 O 0.79099 0.62272 0.06657 0.0
O550 O 0.71666 0.51994 0.95077 0.0
O551 O 0.82606 0.67389 0.07235 0.0
O552 O 0.72164 0.52626 0.03684 0.0
O553 O 0.77661 0.50269 0.94974 0.0
O554 O 0.78346 0.51816 0.04148 0.0
O555 O 0.74277 0.65356 0.94985 0.0
O556 O 0.7021 0.60947 0.93741 0.0
C557 C 0.7183 0.6398 0.92877 0.0
C558 C 0.74288 0.49842 0.93996 0.0
O559 O 0.82885 0.63398 0.98298 0.0
O560 O 0.72004 0.75752 0.0183 0.0
O561 O 0.84454 0.57299 0.97778 0.0
O562 O 0.77682 0.74427 0.958 0.0
O563 O 0.7732 0.76232 0.05103 0.0
O564 O 0.82827 0.72141 0.98214 0.0
O565 O 0.706 0.62167 0.02407 0.0
O566 O 0.67863 0.67456 0.00614 0.0
C567 C 0.75051 0.51089 0.05185 0.0
C568 C 0.81393 0.64302 0.08492 0.0
C569 C 0.17378 0.14012 0.52711 0.0
C570 C 0.24031 0.27367 0.54778 0.0
C571 C 0.3036 0.24405 0.46205 0.0
Mg572 Mg 0.20495 0.06913 0.49043 0.0
Mg573 Mg 0.29036 0.04211 0.47547 0.0
O574 O 0.25891 0.08102 0.48654 0.0
Mg575 Mg 0.26225 0.13263 0.50743 0.0
O576 O 0.25636 0.18442 0.52725 0.0
Mg577 Mg 0.22241 0.20769 0.48829 0.0
Mg578 Mg 0.29966 0.21089 0.53279 0.0
C579 C 0.34676 0.10918 0.46973 0.0
O580 O 0.29007 0.12163 0.5665 0.0
O581 O 0.20864 0.02153 0.44954 0.0
O582 O 0.32621 0.17223 0.5701 0.0
O583 O 0.22046 0.02365 0.53574 0.0
O584 O 0.26677 0.0154 0.42864 0.0
O585 O 0.27879 0.00546 0.52049 0.0
O586 O 0.23534 0.15546 0.45336 0.0
O587 O 0.19603 0.11021 0.44107 0.0
C588 C 0.21086 0.14123 0.43258 0.0
C589 C 0.23257 0.00687 0.42789 0.0
O590 O 0.32431 0.13472 0.48221 0.0
O591 O 0.21654 0.25686 0.52775 0.0
O592 O 0.3384 0.07492 0.46775 0.0
O593 O 0.26823 0.24492 0.46207 0.0
O594 O 0.27391 0.26213 0.55231 0.0
O595 O 0.32025 0.21725 0.47832 0.0
O596 O 0.20332 0.12016 0.52841 0.0
O597 O 0.17455 0.17366 0.51497 0.0
C598 C 0.24905 0.00191 0.53952 0.0
C599 C 0.31418 0.14166 0.58357 0.0
C600 C 0.37227 0.5809 0.7119 0.0
C601 C 0.51062 0.54956 0.75327 0.0
C602 C 0.48551 0.44009 0.73971 0.0
Mg603 Mg 0.30119 0.53281 0.71712 0.0
Mg604 Mg 0.29089 0.48117 0.78872 0.0
O605 O 0.31787 0.48599 0.74512 0.0
Mg606 Mg 0.371 0.49992 0.75525 0.0
O607 O 0.42347 0.51745 0.75895 0.0
Mg608 Mg 0.43973 0.51748 0.70532 0.0
Mg609 Mg 0.4566 0.49542 0.79175 0.0
C610 C 0.35348 0.42158 0.80112 0.0
O611 O 0.36583 0.5161 0.81799 0.0
O612 O 0.24622 0.50345 0.70863 0.0
O613 O 0.42283 0.49964 0.83979 0.0
O614 O 0.26853 0.55896 0.76566 0.0
O615 O 0.23709 0.47379 0.7635 0.0
O616 O 0.29387 0.53278 0.8147 0.0
O617 O 0.38488 0.48575 0.69531 0.0
O618 O 0.33301 0.50614 0.6674 0.0
C619 C 0.36545 0.49076 0.66601 0.0
C620 C 0.22607 0.48458 0.73127 0.0
O621 O 0.37632 0.43827 0.7788 0.0
O622 O 0.49131 0.54876 0.72344 0.0
O623 O 0.3227 0.43631 0.8116 0.0
O624 O 0.47835 0.46387 0.7138 0.0
O625 O 0.50248 0.53162 0.78292 0.0
O626 O 0.47134 0.44315 0.77179 0.0
O627 O 0.35634 0.55781 0.7334 0.0
O628 O 0.40407 0.57294 0.69767 0.0
C629 C 0.2708 0.55572 0.80075 0.0
C630 C 0.38933 0.51088 0.84465 0.0
C631 C 0.71546 0.37481 0.57494 0.0
C632 C 0.74703 0.50861 0.555 0.0
C633 C 0.74357 0.49235 0.44219 0.0
Mg634 Mg 0.72152 0.30242 0.53129 0.0
Mg635 Mg 0.78993 0.28494 0.47695 0.0
O636 O 0.7494 0.31627 0.4844 0.0
Mg637 Mg 0.75918 0.3702 0.49532 0.0
O638 O 0.76045 0.4239 0.51052 0.0
Mg639 Mg 0.7064 0.43931 0.51072 0.0
Mg640 Mg 0.79439 0.46061 0.50168 0.0
C641 C 0.80141 0.34724 0.41597 0.0
O642 O 0.82287 0.36591 0.51302 0.0
O643 O 0.70926 0.24745 0.50561 0.0
O644 O 0.84247 0.42536 0.50762 0.0
O645 O 0.77154 0.26858 0.55776 0.0
O646 O 0.76094 0.23258 0.47346 0.0
O647 O 0.82147 0.28418 0.52612 0.0
O648 O 0.69869 0.38419 0.4789 0.0
O649 O 0.67117 0.33463 0.50358 0.0
C650 C 0.66954 0.36548 0.48528 0.0
C651 C 0.72925 0.22438 0.48734 0.0
O652 O 0.78161 0.37205 0.43322 0.0
O653 O 0.7189 0.48988 0.54545 0.0
O654 O 0.80988 0.31541 0.43007 0.0
O655 O 0.71565 0.47862 0.4594 0.0
O656 O 0.77983 0.50122 0.54319 0.0
O657 O 0.77707 0.48421 0.45074 0.0
O658 O 0.73829 0.35773 0.55404 0.0
O659 O 0.70004 0.40525 0.56439 0.0
C660 C 0.80659 0.26602 0.55243 0.0
C661 C 0.8485 0.39069 0.51357 0.0
C662 C 0.63705 0.02097 0.66766 0.0
C663 C 0.77576 0.03077 0.72367 0.0
C664 C 0.74638 0.95209 0.79757 0.0
Mg665 Mg 0.5634 0.99198 0.70374 0.0
Mg666 Mg 0.54159 0.98284 0.79169 0.0
O667 O 0.57871 0.98335 0.75648 0.0
Mg668 Mg 0.63124 0.00167 0.75686 0.0
O669 O 0.6847 0.01712 0.74846 0.0
Mg670 Mg 0.70319 0.97577 0.71597 0.0
Mg671 Mg 0.71638 0.02746 0.78706 0.0
C672 C 0.61086 0.96702 0.84382 0.0
O673 O 0.623 0.05908 0.78373 0.0
O674 O 0.51301 0.9558 0.71129 0.0
O675 O 0.6786 0.06583 0.81233 0.0
O676 O 0.52322 0.04243 0.72351 0.0
O677 O 0.50172 0.94461 0.7713 0.0
O678 O 0.51719 0.03555 0.78537 0.0
O679 O 0.64773 0.94799 0.73075 0.0
O680 O 0.60064 0.93933 0.6917 0.0
C681 C 0.63163 0.92872 0.70645 0.0
C682 C 0.49434 0.94025 0.73704 0.0
O683 O 0.63585 0.9766 0.81956 0.0
O684 O 0.75614 0.00817 0.70521 0.0
O685 O 0.57591 0.96909 0.83769 0.0
O686 O 0.74052 0.94762 0.7629 0.0
O687 O 0.76568 0.04311 0.7554 0.0
O688 O 0.72944 0.97747 0.81523 0.0
O689 O 0.61781 0.0246 0.69744 0.0
O690 O 0.66928 0.00516 0.66856 0.0
C691 C 0.50987 0.05281 0.75515 0.0
C692 C 0.64526 0.07669 0.805 0.0
C693 C 0.48194 0.34399 0.13658 0.0
C694 C 0.47463 0.28687 0.27433 0.0
C695 C 0.54658 0.2096 0.24608 0.0
Mg696 Mg 0.50478 0.30632 0.05972 0.0
Mg697 Mg 0.48959 0.22056 0.04367 0.0
O698 O 0.51239 0.25294 0.07538 0.0
Mg699 Mg 0.49693 0.25482 0.12927 0.0
O700 O 0.48447 0.26279 0.18335 0.0
Mg701 Mg 0.52825 0.292 0.1995 0.0
Mg702 Mg 0.47157 0.22509 0.21593 0.0
C703 C 0.5126 0.16641 0.10906 0.0
O704 O 0.43839 0.23009 0.12412 0.0
O705 O 0.53329 0.29226 0.00502 0.0
O706 O 0.43197 0.20113 0.17997 0.0
O707 O 0.45032 0.29422 0.02362 0.0
O708 O 0.51885 0.23332 0.99289 0.0
O709 O 0.4337 0.23703 0.03775 0.0
O710 O 0.55361 0.27803 0.14231 0.0
O711 O 0.5609 0.31419 0.09188 0.0
C712 C 0.57238 0.30139 0.12343 0.0
C713 C 0.53358 0.26415 0.98366 0.0
O714 O 0.51666 0.19202 0.13343 0.0
O715 O 0.49895 0.30295 0.25409 0.0
O716 O 0.50081 0.17246 0.07606 0.0
O717 O 0.55482 0.24285 0.23634 0.0
O718 O 0.45744 0.25799 0.26404 0.0
O719 O 0.51921 0.19355 0.23147 0.0
O720 O 0.47661 0.31517 0.11698 0.0
O721 O 0.49922 0.34119 0.1677 0.0
C722 C 0.42845 0.26682 0.01935 0.0
C723 C 0.42093 0.20857 0.14684 0.0
C724 C 0.082 0.31685 0.67369 0.0
C725 C 0.06118 0.34941 0.66639 0.0
C726 C 0.08523 0.30225 0.7101 0.0
C727 C 0.06861 0.32028 0.74067 0.0
H728 H 0.09432 0.30164 0.651 0.0
H729 H 0.09921 0.27571 0.71398 0.0
S730 S 0.01569 0.40942 0.73729 0.0
N731 N 0.02487 0.39996 0.69369 0.0
N732 N 0.03562 0.37556 0.76136 0.0
C733 C 0.05092 0.35471 0.73393 0.0
C734 C 0.04565 0.36827 0.69705 0.0
C735 C 0.60474 0.69911 0.58201 0.0
C736 C 0.60112 0.72131 0.61352 0.0
C737 C 0.58362 0.70612 0.55054 0.0
C738 C 0.55756 0.73542 0.54917 0.0
H739 H 0.62499 0.67659 0.58106 0.0
H740 H 0.58849 0.68865 0.52678 0.0
S741 S 0.53283 0.798 0.62637 0.0
N742 N 0.5667 0.77134 0.64318 0.0
N743 N 0.52609 0.78441 0.58339 0.0
C744 C 0.55194 0.75672 0.58113 0.0
C745 C 0.57375 0.7495 0.61357 0.0
C746 C 0.95367 0.17553 0.65087 0.0
C747 C 0.98567 0.16459 0.63123 0.0
C748 C 0.95593 0.20043 0.68003 0.0
C749 C 0.99035 0.21446 0.69029 0.0
H750 H 0.92734 0.16252 0.64554 0.0
H751 H 0.93146 0.20579 0.69677 0.0
S752 S 0.08091 0.19859 0.64384 0.0
N753 N 0.05151 0.17304 0.62062 0.0
N754 N 0.05607 0.21956 0.67615 0.0
C755 C 0.0218 0.20648 0.66858 0.0
C756 C 0.01939 0.1815 0.63864 0.0
C757 C 0.35293 0.76647 0.54786 0.0
C758 C 0.36917 0.76061 0.58322 0.0
C759 C 0.37022 0.75433 0.51535 0.0
C760 C 0.40445 0.73537 0.51643 0.0
H761 H 0.32701 0.78184 0.54479 0.0
H762 H 0.35782 0.76199 0.48891 0.0
S763 S 0.45792 0.71005 0.60133 0.0
N764 N 0.42067 0.73205 0.61712 0.0
N765 N 0.45341 0.70939 0.55576 0.0
C766 C 0.42012 0.72719 0.55152 0.0
C767 C 0.40251 0.73981 0.5849 0.0
C768 C 0.05038 0.6865 0.8494 0.0
C769 C 0.08014 0.66125 0.8538 0.0
C770 C 0.0433 0.70374 0.81482 0.0
C771 C 0.06568 0.69649 0.78347 0.0
H772 H 0.03063 0.69053 0.87172 0.0
H773 H 0.0186 0.72102 0.81199 0.0
S774 S 0.15058 0.63778 0.78193 0.0
N775 N 0.13522 0.63398 0.82501 0.0
N776 N 0.12109 0.66602 0.76017 0.0
C777 C 0.09719 0.6739 0.78823 0.0
C778 C 0.10466 0.65652 0.82342 0.0
C779 C 0.86011 0.72188 0.45411 0.0
C780 C 0.87387 0.73245 0.41883 0.0
C781 C 0.87549 0.73487 0.48706 0.0
C782 C 0.90543 0.7593 0.48675 0.0
H783 H 0.83762 0.70248 0.45663 0.0
H784 H 0.86506 0.72406 0.5132 0.0
S785 S 0.95083 0.79782 0.40236 0.0
N786 N 0.91821 0.77094 0.38594 0.0
N787 N 0.94752 0.79496 0.448 0.0
C788 C 0.91856 0.7716 0.45183 0.0
C789 C 0.90285 0.75819 0.41797 0.0
C790 C 0.99782 0.82564 0.86829 0.0
C791 C 0.96257 0.83279 0.88327 0.0
C792 C 1.00156 0.80744 0.83446 0.0
C793 C 0.97022 0.7955 0.81492 0.0
H794 H 0.02222 0.83752 0.88067 0.0
H795 H 0.02907 0.80438 0.82257 0.0
S796 S 0.87239 0.80289 0.8457 0.0
N797 N 0.89619 0.82337 0.87849 0.0
N798 N 0.90338 0.78791 0.81531 0.0
C799 C 0.93521 0.79908 0.83155 0.0
C800 C 0.93137 0.81807 0.86575 0.0
C801 C 0.07716 0.75187 0.3898 0.0
C802 C 0.08347 0.78848 0.37814 0.0
C803 C 0.05986 0.74451 0.42387 0.0
C804 C 0.04861 0.7736 0.44712 0.0
H805 H 0.08806 0.72887 0.3739 0.0
H806 H 0.05696 0.71594 0.43278 0.0
S807 S 0.05338 0.87433 0.42495 0.0
N808 N 0.07355 0.85384 0.38945 0.0
N809 N 0.04027 0.84054 0.45306 0.0
C810 C 0.0522 0.81036 0.434 0.0
C811 C 0.06983 0.81766 0.39953 0.0
C812 C 0.69936 0.02201 0.36885 0.0
C813 C 0.66573 0.03753 0.35572 0.0
C814 C 0.7333 0.03163 0.35336 0.0
C815 C 0.73545 0.0565 0.32306 0.0
H816 H 0.69964 0.00337 0.39268 0.0
H817 H 0.75804 0.01884 0.36524 0.0
S818 S 0.65515 0.10339 0.27659 0.0
N819 N 0.6362 0.07828 0.31002 0.0
N820 N 0.70038 0.09556 0.27947 0.0
C821 C 0.70185 0.07134 0.30862 0.0
C822 C 0.66696 0.06179 0.32499 0.0
C823 C 0.26722 0.06037 0.87006 0.0
C824 C 0.26535 0.09413 0.88953 0.0
C825 C 0.25372 0.02751 0.88525 0.0
C826 C 0.23726 0.02693 0.92032 0.0
H827 H 0.28076 0.05868 0.84329 0.0
H828 H 0.25902 0.00184 0.87079 0.0
S829 S 0.22001 0.1079 0.98059 0.0
N830 N 0.24153 0.1254 0.944 0.0
N831 N 0.21595 0.06317 0.97278 0.0
C832 C 0.2319 0.06081 0.93872 0.0
C833 C 0.24605 0.09452 0.92332 0.0
C834 C 0.33199 0.41548 0.35121 0.0
C835 C 0.36166 0.44031 0.34611 0.0
C836 C 0.29852 0.41959 0.33136 0.0
C837 C 0.29396 0.44805 0.3049 0.0
H838 H 0.33361 0.39442 0.37284 0.0
H839 H 0.27537 0.40215 0.33863 0.0
S840 S 0.36438 0.51759 0.2781 0.0
N841 N 0.3852 0.49207 0.31043 0.0
N842 N 0.32302 0.49941 0.27255 0.0
C843 C 0.32468 0.47074 0.29718 0.0
C844 C 0.35851 0.46683 0.3177 0.0
C845 C 0.68656 0.43417 0.88158 0.0
C846 C 0.70706 0.40081 0.88367 0.0
C847 C 0.69894 0.46587 0.89913 0.0
C848 C 0.73256 0.46551 0.91893 0.0
H849 H 0.66084 0.43585 0.86606 0.0
H850 H 0.68201 0.49089 0.89706 0.0
S851 S 0.79687 0.38503 0.93227 0.0
N852 N 0.76276 0.36914 0.90684 0.0
N853 N 0.78612 0.42888 0.93983 0.0
C854 C 0.75346 0.43232 0.92114 0.0
C855 C 0.7406 0.39987 0.90363 0.0
C856 C 0.63474 0.00918 0.19092 0.0
C857 C 0.62915 0.97377 0.17695 0.0
C858 C 0.66458 0.01532 0.21464 0.0
C859 C 0.68841 0.98598 0.22559 0.0
H860 H 0.61881 0.03272 0.18029 0.0
H861 H 0.67106 0.0435 0.22168 0.0
S862 S 0.6813 0.8875 0.20115 0.0
N863 N 0.64717 0.90859 0.17823 0.0
N864 N 0.70176 0.92002 0.22505 0.0
C865 C 0.68032 0.94992 0.21534 0.0
C866 C 0.6509 0.94382 0.19026 0.0
C867 C 0.19592 0.07981 0.12075 0.0
C868 C 0.21801 0.11147 0.11864 0.0
C869 C 0.20445 0.04837 0.10001 0.0
C870 C 0.2358 0.047 0.07668 0.0
H871 H 0.17185 0.07922 0.13881 0.0
H872 H 0.18644 0.02475 0.10267 0.0
S873 S 0.30256 0.12296 0.06102 0.0
N874 N 0.27236 0.13995 0.09107 0.0
N875 N 0.28873 0.08062 0.05217 0.0
C876 C 0.25811 0.07862 0.07413 0.0
C877 C 0.24906 0.11094 0.09496 0.0
C878 C 0.36632 0.5243 0.16963 0.0
C879 C 0.3816 0.55966 0.16685 0.0
C880 C 0.33149 0.51915 0.18594 0.0
C881 C 0.31101 0.549 0.20099 0.0
H882 H 0.37988 0.50099 0.1563 0.0
H883 H 0.32028 0.4915 0.1863 0.0
S884 S 0.34071 0.64651 0.20372 0.0
N885 N 0.3748 0.62472 0.18183 0.0
N886 N 0.31011 0.61459 0.21478 0.0
C887 C 0.32722 0.58404 0.20081 0.0
C888 C 0.36233 0.58946 0.18317 0.0
C889 C 0.77453 0.44178 0.1258 0.0
C890 C 0.76597 0.40747 0.10943 0.0
C891 C 0.76557 0.47567 0.10878 0.0
C892 C 0.74712 0.47716 0.0748 0.0
H893 H 0.78957 0.44289 0.15173 0.0
H894 H 0.77508 0.5009 0.12131 0.0
S895 S 0.71683 0.39676 0.02014 0.0
N896 N 0.73637 0.3778 0.05743 0.0
N897 N 0.71965 0.44206 0.02511 0.0
C898 C 0.73675 0.44354 0.05858 0.0
C899 C 0.74613 0.40863 0.07593 0.0
C900 C 0.33447 0.67012 0.05585 0.0
C901 C 0.37223 0.67056 0.04577 0.0
C902 C 0.31399 0.70341 0.06063 0.0
C903 C 0.33066 0.73837 0.05612 0.0
H904 H 0.32054 0.644 0.05969 0.0
H905 H 0.28457 0.7017 0.06634 0.0
S906 S 0.42949 0.75538 0.03382 0.0
N907 N 0.42556 0.71004 0.03278 0.0
N908 N 0.38787 0.77116 0.04498 0.0
C909 C 0.36878 0.73906 0.04836 0.0
C910 C 0.3892 0.70567 0.04201 0.0
C911 C 0.37605 0.31459 0.48338 0.0
C912 C 0.36026 0.34884 0.47192 0.0
C913 C 0.35855 0.28128 0.47733 0.0
C914 C 0.32323 0.28006 0.46097 0.0
H915 H 0.40322 0.31317 0.49625 0.0
H916 H 0.37288 0.25624 0.48667 0.0
S917 S 0.26821 0.36194 0.42749 0.0
N918 N 0.30684 0.37979 0.44362 0.0
N919 N 0.2722 0.31666 0.43414 0.0
C920 C 0.30622 0.31416 0.45023 0.0
C921 C 0.32488 0.34858 0.4556 0.0
C922 C 0.58624 0.40913 0.73806 0.0
C923 C 0.5851 0.37561 0.75846 0.0
C924 C 0.55321 0.42832 0.72779 0.0
C925 C 0.51795 0.41455 0.73742 0.0
H926 H 0.61269 0.42111 0.73086 0.0
H927 H 0.55537 0.45532 0.71457 0.0
S928 S 0.4988 0.32729 0.78833 0.0
N929 N 0.54446 0.32899 0.78626 0.0
N930 N 0.48373 0.36481 0.76618 0.0
C931 C 0.51641 0.38032 0.75586 0.0
C932 C 0.54955 0.36102 0.76668 0.0
C933 C 0.70242 0.13245 0.44787 0.0
C934 C 0.67934 0.11836 0.47599 0.0
C935 C 0.72107 0.1658 0.45256 0.0
C936 C 0.71587 0.1863 0.48499 0.0
H937 H 0.70311 0.11959 0.4209 0.0
H938 H 0.73686 0.17708 0.42957 0.0
S939 S 0.66266 0.15768 0.56864 0.0
N940 N 0.65669 0.124 0.53892 0.0
N941 N 0.68985 0.18766 0.54742 0.0
C942 C 0.69547 0.17063 0.51445 0.0
C943 C 0.67783 0.13616 0.51009 0.0
C944 C 0.94095 0.62112 0.3077 0.0
C945 C 0.90763 0.61592 0.28809 0.0
C946 C 0.97461 0.60484 0.29635 0.0
C947 C 0.97692 0.58282 0.26456 0.0
H948 H 0.94098 0.6374 0.33269 0.0
H949 H 0.99883 0.60809 0.31372 0.0
S950 S 0.89878 0.56255 0.20143 0.0
N951 N 0.87972 0.5888 0.23368 0.0
N952 N 0.94313 0.5579 0.21253 0.0
C953 C 0.94428 0.57858 0.24364 0.0
C954 C 0.90965 0.595 0.25543 0.0
C955 C 0.20904 0.3727 0.54594 0.0
C956 C 0.18646 0.3744 0.57768 0.0
C957 C 0.23012 0.34077 0.53834 0.0
C958 C 0.22913 0.30983 0.5623 0.0
H959 H 0.20697 0.39425 0.52479 0.0
H960 H 0.24441 0.33897 0.51195 0.0
S961 S 0.17989 0.30316 0.65209 0.0
N962 N 0.16856 0.34479 0.63567 0.0
N963 N 0.20831 0.28456 0.62125 0.0
C964 C 0.21009 0.31275 0.59601 0.0
C965 C 0.18877 0.34532 0.60384 0.0
C966 C 0.60769 0.58253 0.73707 0.0
C967 C 0.60355 0.6206 0.74359 0.0
C968 C 0.57752 0.55895 0.74171 0.0
C969 C 0.54296 0.57298 0.75348 0.0
H970 H 0.63362 0.57136 0.72637 0.0
H971 H 0.58078 0.52997 0.73479 0.0
S972 S 0.51946 0.6693 0.77895 0.0
N973 N 0.56336 0.6705 0.76577 0.0
N974 N 0.50687 0.62581 0.7747 0.0
C975 C 0.53914 0.61036 0.76226 0.0
C976 C 0.56953 0.63435 0.7573 0.0
C977 C 0.39835 0.89984 0.73932 0.0
C978 C 0.39617 0.88272 0.70469 0.0
C979 C 0.43076 0.9175 0.75012 0.0
C980 C 0.4617 0.91902 0.72637 0.0
H981 H 0.37533 0.8986 0.75866 0.0
H982 H 0.43136 0.93047 0.777 0.0
S983 S 0.46912 0.87914 0.63228 0.0
N984 N 0.42698 0.86861 0.64653 0.0
N985 N 0.4879 0.90224 0.66647 0.0
C986 C 0.45956 0.90238 0.69142 0.0
C987 C 0.42675 0.88411 0.68066 0.0
C988 C 0.56073 0.81972 0.17024 0.0
C989 C 0.56118 0.85858 0.17128 0.0
C990 C 0.56312 0.79843 0.20318 0.0
C991 C 0.56635 0.81536 0.23809 0.0
H992 H 0.55655 0.80579 0.14422 0.0
H993 H 0.55933 0.76883 0.20151 0.0
S994 S 0.57624 0.91512 0.2559 0.0
N995 N 0.57021 0.91252 0.21073 0.0
N996 N 0.57558 0.87198 0.27135 0.0
C997 C 0.57066 0.85357 0.23912 0.0
C998 C 0.56766 0.87533 0.2061 0.0
C999 C 0.08253 0.26053 0.11133 0.0
C1000 C 0.09994 0.22666 0.12055 0.0
C1001 C 0.06106 0.26406 0.07902 0.0
C1002 C 0.05644 0.23377 0.05528 0.0
H1003 H 0.08765 0.2849 0.12762 0.0
H1004 H 0.0495 0.29109 0.07181 0.0
S1005 S 0.09194 0.1376 0.07179 0.0
N1006 N 0.10835 0.16159 0.1065 0.0
N1007 N 0.06712 0.16745 0.04672 0.0
C1008 C 0.07135 0.199 0.06632 0.0
C1009 C 0.09336 0.19567 0.09876 0.0
C1010 C 0.52196 0.67615 0.13964 0.0
C1011 C 0.48848 0.6709 0.12103 0.0
C1012 C 0.52239 0.69601 0.17249 0.0
C1013 C 0.48942 0.71134 0.18712 0.0
H1014 H 0.54697 0.66146 0.13112 0.0
H1015 H 0.54813 0.69708 0.18793 0.0
S1016 S 0.39614 0.71059 0.14493 0.0
N1017 N 0.42262 0.6857 0.11698 0.0
N1018 N 0.42392 0.72507 0.1779 0.0
C1019 C 0.45678 0.71017 0.1664 0.0
C1020 C 0.4562 0.68928 0.13338 0.0
C1021 C 0.85975 0.27388 0.04727 0.0
C1022 C 0.87499 0.26606 0.08269 0.0
C1023 C 0.87595 0.26025 0.01481 0.0
C1024 C 0.90825 0.238 0.01585 0.0
H1025 H 0.83541 0.29168 0.04419 0.0
H1026 H 0.86434 0.26916 0.98838 0.0
S1027 S 0.95817 0.20656 0.10103 0.0
N1028 N 0.92317 0.23206 0.11669 0.0
N1029 N 0.95407 0.2069 0.05541 0.0
C1030 C 0.92282 0.22808 0.051 0.0
C1031 C 0.90621 0.24208 0.08438 0.0
C1032 C 0.59932 0.16824 0.32949 0.0
C1033 C 0.5706 0.16315 0.35577 0.0
C1034 C 0.59247 0.18518 0.29451 0.0
C1035 C 0.55636 0.19649 0.28433 0.0
H1036 H 0.62683 0.15712 0.3353 0.0
H1037 H 0.61496 0.18736 0.27468 0.0
S1038 S 0.47223 0.19174 0.3442 0.0
N1039 N 0.50572 0.17366 0.37022 0.0
N1040 N 0.49219 0.20345 0.30463 0.0
C1041 C 0.52801 0.19322 0.31129 0.0
C1042 C 0.53527 0.17717 0.347 0.0
C1043 C 0.36181 0.22404 0.95255 0.0
C1044 C 0.37647 0.23289 0.91717 0.0
C1045 C 0.37637 0.23854 0.9852 0.0
C1046 C 0.40648 0.26277 0.98456 0.0
H1047 H 0.33913 0.20489 0.95544 0.0
H1048 H 0.36511 0.22907 0.0115 0.0
S1049 S 0.454 0.29729 0.89956 0.0
N1050 N 0.42172 0.26973 0.88365 0.0
N1051 N 0.44963 0.29651 0.94519 0.0
C1052 C 0.42055 0.27338 0.94943 0.0
C1053 C 0.40558 0.25848 0.91585 0.0
C1054 C 0.50398 0.32563 0.36568 0.0
C1055 C 0.46993 0.3341 0.38247 0.0
C1056 C 0.50501 0.30822 0.33137 0.0
C1057 C 0.47205 0.29864 0.31307 0.0
H1058 H 0.52952 0.33628 0.37688 0.0
H1059 H 0.53174 0.30427 0.31801 0.0
S1060 S 0.37649 0.30854 0.34968 0.0
N1061 N 0.40301 0.32707 0.38157 0.0
N1062 N 0.40504 0.29338 0.3171 0.0
C1063 C 0.43822 0.3028 0.33179 0.0
C1064 C 0.43718 0.32077 0.36667 0.0
C1065 C 0.58638 0.24126 0.89587 0.0
C1066 C 0.59137 0.27654 0.88007 0.0
C1067 C 0.56602 0.23705 0.92876 0.0
C1068 C 0.55067 0.26811 0.94673 0.0
H1069 H 0.60054 0.21732 0.88436 0.0
H1070 H 0.56422 0.2097 0.94128 0.0
S1071 S 0.55091 0.36535 0.9118 0.0
N1072 N 0.57589 0.34202 0.88135 0.0
N1073 N 0.53735 0.33448 0.94299 0.0
C1074 C 0.55309 0.30307 0.92922 0.0
C1075 C 0.57356 0.30717 0.89584 0.0
C1076 C 0.17051 0.54864 0.82817 0.0
C1077 C 0.17328 0.54532 0.86688 0.0
C1078 C 0.20184 0.5567 0.80651 0.0
C1079 C 0.23691 0.5619 0.82279 0.0
H1080 H 0.14426 0.54426 0.81442 0.0
H1081 H 0.19903 0.55655 0.77674 0.0
S1082 S 0.25883 0.56084 0.9229 0.0
N1083 N 0.21441 0.55081 0.9207 0.0
N1084 N 0.27192 0.5673 0.87955 0.0
C1085 C 0.23948 0.56149 0.8614 0.0
C1086 C 0.20815 0.55253 0.8835 0.0
C1087 C 0.76473 0.56191 0.36925 0.0
C1088 C 0.76221 0.59554 0.38898 0.0
C1089 C 0.75377 0.52831 0.38494 0.0
C1090 C 0.73896 0.52686 0.42066 0.0
H1091 H 0.77709 0.56094 0.34188 0.0
H1092 H 0.75957 0.50296 0.37012 0.0
S1093 S 0.72124 0.60664 0.4824 0.0
N1094 N 0.73988 0.62538 0.44482 0.0
N1095 N 0.71876 0.56179 0.47443 0.0
C1096 C 0.73292 0.5604 0.43953 0.0
C1097 C 0.74459 0.59487 0.42365 0.0
C1098 C 0.81249 0.93345 0.87489 0.0
C1099 C 0.8476 0.94087 0.85883 0.0
C1100 C 0.78017 0.9318 0.85378 0.0
C1101 C 0.78092 0.93753 0.81537 0.0
H1102 H 0.80912 0.93081 0.90464 0.0
H1103 H 0.75386 0.92915 0.86814 0.0
S1104 S 0.86597 0.94934 0.75817 0.0
N1105 N 0.88166 0.94753 0.80116 0.0
N1106 N 0.82041 0.94495 0.76097 0.0
C1107 C 0.81606 0.94102 0.79818 0.0
C1108 C 0.84943 0.9427 0.81999 0.0
C1109 C 0.18652 0.9185 0.4002 0.0
C1110 C 0.20051 0.91288 0.36445 0.0
C1111 C 0.19612 0.94994 0.41999 0.0
C1112 C 0.22085 0.97599 0.40498 0.0
H1113 H 0.16806 0.89856 0.41285 0.0
H1114 H 0.18501 0.95326 0.4477 0.0
S1115 S 0.26559 0.97303 0.31258 0.0
N1116 N 0.24 0.93553 0.31456 0.0
N1117 N 0.2591 0.99408 0.35249 0.0
C1118 C 0.23514 0.9705 0.36932 0.0
C1119 C 0.22465 0.93902 0.34881 0.0
C1120 C 0.13959 0.43588 0.70177 0.0
C1121 C 0.11912 0.4655 0.68585 0.0
C1122 C 0.1735 0.44232 0.71947 0.0
C1123 C 0.18752 0.47834 0.72085 0.0
H1124 H 0.1317 0.40757 0.69671 0.0
H1125 H 0.19028 0.41888 0.72894 0.0
S1126 S 0.13985 0.56529 0.69055 0.0
N1127 N 0.11125 0.5321 0.67915 0.0
N1128 N 0.17577 0.54414 0.71044 0.0
C1129 C 0.16512 0.50827 0.70888 0.0
C1130 C 0.13036 0.50181 0.69215 0.0
C1131 C 0.70148 0.57002 0.62647 0.0
C1132 C 0.72134 0.60304 0.62319 0.0
C1133 C 0.71056 0.53942 0.60474 0.0
C1134 C 0.74032 0.54044 0.57944 0.0
H1135 H 0.67841 0.56793 0.64567 0.0
H1136 H 0.69408 0.51473 0.60781 0.0
S1137 S 0.8021 0.61984 0.56144 0.0
N1138 N 0.77273 0.63477 0.59331 0.0
N1139 N 0.7901 0.5769 0.55276 0.0
C1140 C 0.76095 0.573 0.5764 0.0
C1141 C 0.75131 0.60444 0.59812 0.0
C1142 C 0.86805 0.0152 0.67634 0.0
C1143 C 0.88311 0.05066 0.67472 0.0
C1144 C 0.83344 0.00932 0.69268 0.0
C1145 C 0.81337 0.03833 0.70951 0.0
H1146 H 0.88134 0.99259 0.66177 0.0
H1147 H 0.82181 0.98193 0.69112 0.0
S1148 S 0.84259 0.13584 0.71543 0.0
N1149 N 0.87642 0.11507 0.69223 0.0
N1150 N 0.8124 0.10333 0.72594 0.0
C1151 C 0.82948 0.07339 0.71069 0.0
C1152 C 0.8642 0.07969 0.69264 0.0
C1153 C 0.25758 0.93508 0.61998 0.0
C1154 C 0.26138 0.9005 0.60215 0.0
C1155 C 0.25034 0.96796 0.60002 0.0
C1156 C 0.24653 0.96744 0.56152 0.0
H1157 H 0.26162 0.93707 0.64963 0.0
H1158 H 0.24995 0.99405 0.61448 0.0
S1159 S 0.24917 0.88454 0.50186 0.0
N1160 N 0.25694 0.8678 0.54408 0.0
N1161 N 0.24363 0.92977 0.5063 0.0
C1162 C 0.24769 0.93301 0.54356 0.0
C1163 C 0.25487 0.89943 0.56395 0.0
C1164 C 0.88709 0.19984 0.56112 0.0
C1165 C 0.87017 0.16481 0.56078 0.0
C1166 C 0.86623 0.23266 0.5632 0.0
C1167 C 0.82735 0.23227 0.56507 0.0
H1168 H 0.91689 0.20237 0.55831 0.0
H1169 H 0.8806 0.2587 0.56066 0.0
S1170 S 0.76988 0.14803 0.57402 0.0
N1171 N 0.81263 0.13168 0.56907 0.0
N1172 N 0.77294 0.19364 0.57275 0.0
C1173 C 0.81015 0.19749 0.56866 0.0
C1174 C 0.83163 0.16376 0.56639 0.0
C1175 C 0.83068 0.84977 0.9473 0.0
C1176 C 0.85042 0.85952 0.97933 0.0
C1177 C 0.81761 0.81354 0.94257 0.0
C1178 C 0.82532 0.78538 0.96896 0.0
H1179 H 0.82803 0.8693 0.92442 0.0
H1180 H 0.8031 0.80708 0.91725 0.0
S1181 S 0.87352 0.79791 0.05913 0.0
N1182 N 0.87394 0.83926 0.03914 0.0
N1183 N 0.8518 0.77108 0.02989 0.0
C1184 C 0.84361 0.79545 0.0019 0.0
C1185 C 0.85536 0.83251 0.00719 0.0
C1186 C 0.05214 0.86163 0.23717 0.0
C1187 C 0.0869 0.87928 0.23962 0.0
C1188 C 0.01917 0.88173 0.23123 0.0
C1189 C 0.01978 0.92004 0.22605 0.0
H1190 H 0.04987 0.83215 0.24247 0.0
H1191 H 0.99293 0.86757 0.23316 0.0
S1192 S 0.10311 0.97911 0.22341 0.0
N1193 N 0.11986 0.93697 0.23199 0.0
N1194 N 0.05771 0.97481 0.21928 0.0
C1195 C 0.05441 0.93766 0.22438 0.0
C1196 C 0.08811 0.91724 0.23133 0.0
C1197 C 0.20064 0.63908 0.94523 0.0
C1198 C 0.18366 0.62207 0.97612 0.0
C1199 C 0.22072 0.6716 0.94903 0.0
C1200 C 0.22327 0.68829 0.9837 0.0
H1201 H 0.19496 0.62947 0.91751 0.0
H1202 H 0.23086 0.68563 0.92436 0.0
S1203 S 0.18952 0.65099 0.07372 0.0
N1204 N 0.17566 0.62087 0.04283 0.0
N1205 N 0.21246 0.68283 0.05014 0.0
C1206 C 0.20991 0.66941 0.01524 0.0
C1207 C 0.19035 0.63586 0.01142 0.0
C1208 C 0.41155 0.09015 0.7565 0.0
C1209 C 0.41237 0.11474 0.78653 0.0
C1210 C 0.44441 0.07334 0.74274 0.0
C1211 C 0.47938 0.08067 0.75828 0.0
H1212 H 0.38531 0.08335 0.74388 0.0
H1213 H 0.44212 0.05258 0.72152 0.0
S1214 S 0.49768 0.14455 0.83534 0.0
N1215 N 0.45222 0.14675 0.82989 0.0
N1216 N 0.51306 0.11542 0.80378 0.0
C1217 C 0.48074 0.10645 0.78694 0.0
C1218 C 0.44758 0.12331 0.80115 0.0
C1219 C 0.70359 0.87133 0.0402 0.0
C1220 C 0.67947 0.8703 0.07082 0.0
C1221 C 0.72687 0.8409 0.03255 0.0
C1222 C 0.72697 0.80928 0.05571 0.0
H1223 H 0.70173 0.89386 0.0201 0.0
H1224 H 0.74259 0.84086 0.0069 0.0
S1225 S 0.67401 0.79584 0.14252 0.0
N1226 N 0.66084 0.83721 0.12694 0.0
N1227 N 0.70514 0.78044 0.11254 0.0
C1228 C 0.70619 0.80964 0.08839 0.0
C1229 C 0.68232 0.84026 0.09605 0.0
C1230 C 0.10455 0.09515 0.25787 0.0
C1231 C 0.10379 0.12386 0.23125 0.0
C1232 C 0.07401 0.07194 0.26229 0.0
C1233 C 0.04229 0.07658 0.2398 0.0
H1234 H 0.1283 0.09129 0.27599 0.0
H1235 H 0.0753 0.05021 0.28329 0.0
S1236 S 0.0277 0.14691 0.16488 0.0
N1237 N 0.06946 0.15484 0.18123 0.0
N1238 N 0.01238 0.11159 0.18959 0.0
C1239 C 0.04174 0.10471 0.21254 0.0
C1240 C 0.07248 0.12824 0.20821 0.0
C1241 C 0.91803 0.37348 0.24345 0.0
C1242 C 0.89598 0.38458 0.21308 0.0
C1243 C 0.94917 0.39371 0.25343 0.0
C1244 C 0.95951 0.42513 0.23274 0.0
H1245 H 0.9114 0.34873 0.25925 0.0
H1246 H 0.96576 0.38416 0.27682 0.0
S1247 S 0.90904 0.46625 0.15191 0.0
N1248 N 0.88496 0.42932 0.16351 0.0
N1249 N 0.94391 0.46742 0.18155 0.0
C1250 C 0.93707 0.43677 0.20262 0.0
C1251 C 0.90512 0.41642 0.19293 0.0
C1252 C 0.16975 0.21963 0.82585 0.0
C1253 C 0.18946 0.18578 0.82999 0.0
C1254 C 0.13434 0.22525 0.84161 0.0
C1255 C 0.11693 0.1977 0.86333 0.0
H1256 H 0.18239 0.24258 0.81116 0.0
H1257 H 0.12105 0.25216 0.83779 0.0
S1258 S 0.15506 0.10296 0.88094 0.0
N1259 N 0.18739 0.1232 0.85561 0.0
N1260 N 0.1215 0.13422 0.88621 0.0
C1261 C 0.13572 0.16327 0.86692 0.0
C1262 C 0.17162 0.1572 0.84999 0.0
C1263 C 0.42561 0.57749 0.39744 0.0
C1264 C 0.45333 0.55262 0.41067 0.0
C1265 C 0.43473 0.61304 0.38344 0.0
C1266 C 0.47187 0.62477 0.38175 0.0
H1267 H 0.39696 0.56895 0.39647 0.0
H1268 H 0.41273 0.631 0.37278 0.0
S1269 S 0.55418 0.57278 0.41709 0.0
N1270 N 0.51924 0.54463 0.42465 0.0
N1271 N 0.53582 0.6103 0.39737 0.0
C1272 C 0.49944 0.60099 0.39629 0.0
C1273 C 0.49031 0.56529 0.411 0.0
C1274 C 0.8173 0.27976 0.84948 0.0
C1275 C 0.80218 0.31195 0.83189 0.0
C1276 C 0.85506 0.27668 0.8592 0.0
C1277 C 0.87968 0.30551 0.85159 0.0
H1278 H 0.80007 0.25604 0.85506 0.0
H1279 H 0.86547 0.25051 0.87037 0.0
S1280 S 0.85429 0.39752 0.81085 0.0
N1281 N 0.81486 0.37482 0.81117 0.0
N1282 N 0.88581 0.3687 0.82865 0.0
C1283 C 0.86473 0.33863 0.83606 0.0
C1284 C 0.82614 0.34191 0.82637 0.0
C1285 C 0.56861 0.92202 0.40118 0.0
C1286 C 0.54286 0.95167 0.40433 0.0
C1287 C 0.55724 0.88631 0.39166 0.0
C1288 C 0.51969 0.87875 0.38505 0.0
H1289 H 0.59772 0.92614 0.407 0.0
H1290 H 0.57759 0.86387 0.39233 0.0
S1291 S 0.44145 0.94658 0.38717 0.0
N1292 N 0.4782 0.97118 0.39737 0.0
N1293 N 0.45705 0.9039 0.38065 0.0
C1294 C 0.49399 0.90838 0.38626 0.0
C1295 C 0.50549 0.94483 0.39557 0.0
C1296 C 0.15989 0.78186 0.68025 0.0
C1297 C 0.18061 0.81305 0.67084 0.0
C1298 C 0.1242 0.77748 0.66619 0.0
C1299 C 0.10814 0.80371 0.64136 0.0
H1300 H 0.17193 0.75997 0.69749 0.0
H1301 H 0.10979 0.75236 0.67366 0.0
S1302 S 0.15062 0.89133 0.60946 0.0
N1303 N 0.18215 0.87177 0.63695 0.0
N1304 N 0.11515 0.86292 0.6095 0.0
C1305 C 0.12812 0.83569 0.63264 0.0
C1306 C 0.16432 0.84057 0.64773 0.0
C1307 C 0.01301 0.55976 0.60995 0.0
C1308 C 0.04616 0.54897 0.59183 0.0
C1309 C 0.00609 0.59662 0.61983 0.0
C1310 C 0.03225 0.62408 0.61255 0.0
H1311 H 0.99171 0.53965 0.61575 0.0
H1312 H 0.97904 0.60412 0.6309 0.0
S1313 S 0.12469 0.61042 0.56906 0.0
N1314 N 0.10661 0.56868 0.56971 0.0
N1315 N 0.09321 0.63812 0.58795 0.0
C1316 C 0.06617 0.61351 0.59615 0.0
C1317 C 0.07319 0.57601 0.58575 0.0
C1318 C 0.83071 0.666 0.679 0.0
C1319 C 0.80728 0.69637 0.67026 0.0
C1320 C 0.86747 0.66485 0.66678 0.0
C1321 C 0.8823 0.6943 0.6459 0.0
H1322 H 0.82117 0.64357 0.69665 0.0
H1323 H 0.8854 0.6425 0.67683 0.0
S1324 S 0.83041 0.77564 0.60775 0.0
N1325 N 0.79978 0.75322 0.63324 0.0
N1326 N 0.86928 0.75101 0.61096 0.0
C1327 C 0.85815 0.72249 0.63311 0.0
C1328 C 0.82063 0.72381 0.64555 0.0
C1329 C 0.92808 0.93011 0.61557 0.0
C1330 C 0.95442 0.9497 0.59434 0.0
C1331 C 0.9356 0.89373 0.62883 0.0
C1332 C 0.96941 0.87539 0.62077 0.0
H1333 H 0.90228 0.94353 0.62356 0.0
H1334 H 0.91527 0.88026 0.64634 0.0
S1335 S 0.04548 0.91249 0.56245 0.0
N1336 N 0.01422 0.9464 0.56324 0.0
N1337 N 0.02794 0.87859 0.58777 0.0
C1338 C 0.99488 0.89388 0.59789 0.0
C1339 C 0.98746 0.9308 0.58469 0.0
C1340 C 0.83956 0.16936 0.15736 0.0
C1341 C 0.81749 0.18821 0.18358 0.0
C1342 C 0.85727 0.13518 0.16632 0.0
C1343 C 0.85346 0.11861 0.20178 0.0
H1344 H 0.84521 0.18225 0.13068 0.0
H1345 H 0.87469 0.12209 0.14563 0.0
S1346 S 0.7985 0.15701 0.28002 0.0
N1347 N 0.79213 0.18733 0.24588 0.0
N1348 N 0.82573 0.12419 0.263 0.0
C1349 C 0.83048 0.13679 0.22765 0.0
C1350 C 0.81241 0.1712 0.21847 0.0
C1351 C 0.42992 0.90218 0.07496 0.0
C1352 C 0.45943 0.90014 0.04933 0.0
C1353 C 0.39326 0.89542 0.06431 0.0
C1354 C 0.38449 0.88634 0.02765 0.0
H1355 H 0.4349 0.91037 0.10327 0.0
H1356 H 0.37122 0.90012 0.08428 0.0
S1357 S 0.45113 0.87395 0.95045 0.0
N1358 N 0.47731 0.88506 0.98604 0.0
N1359 N 0.40805 0.87335 0.9662 0.0
C1360 C 0.41369 0.88196 0.00227 0.0
C1361 C 0.45123 0.88857 0.01307 0.0
C1362 C 0.13545 0.33021 0.20407 0.0
C1363 C 0.17317 0.32266 0.1968 0.0
C1364 C 0.12156 0.36653 0.20455 0.0
C1365 C 0.14511 0.39654 0.19848 0.0
H1366 H 0.11658 0.30782 0.20998 0.0
H1367 H 0.09264 0.37118 0.21171 0.0
S1368 S 0.24532 0.3912 0.17479 0.0
N1369 N 0.23317 0.34753 0.18031 0.0
N1370 N 0.20735 0.41634 0.18225 0.0
C1371 C 0.18261 0.38931 0.18974 0.0
C1372 C 0.1966 0.35215 0.18855 0.0
C1373 C 0.59996 0.57916 0.05713 0.0
C1374 C 0.56916 0.5886 0.03463 0.0
C1375 C 0.63465 0.59603 0.05192 0.0
C1376 C 0.63977 0.62398 0.02479 0.0
H1377 H 0.59708 0.55893 0.07937 0.0
H1378 H 0.65742 0.58777 0.06997 0.0
S1379 S 0.56873 0.65827 0.9576 0.0
N1380 N 0.54693 0.62701 0.98291 0.0
N1381 N 0.61141 0.65917 0.97408 0.0
C1382 C 0.60945 0.63331 1.00173 0.0
C1383 C 0.57443 0.61552 0.00637 0.0
C1384 C 0.82355 0.83291 0.34489 0.0
C1385 C 0.82497 0.80962 0.31397 0.0
C1386 C 0.83613 0.86959 0.34261 0.0
C1387 C 0.85115 0.88447 0.30951 0.0
H1388 H 0.81229 0.82296 0.37098 0.0
H1389 H 0.83243 0.88708 0.36654 0.0
S1390 S 0.86281 0.83502 0.22086 0.0
N1391 N 0.84392 0.80434 0.24915 0.0
N1392 N 0.86789 0.87263 0.24563 0.0
C1393 C 0.85437 0.86106 0.27897 0.0
C1394 C 0.84104 0.82398 0.28095 0.0
C1395 C 0.0635 0.8858 0.98694 0.0
C1396 C 0.05711 0.91206 0.9581 0.0
C1397 C 0.09904 0.8712 0.9947 0.0
C1398 C 0.13034 0.88252 0.97451 0.0
H1399 H 0.04061 0.87581 0.0036 0.0
H1400 H 0.10199 0.85117 0.01719 0.0
S1401 S 0.12943 0.95039 0.89598 0.0
N1402 N 0.08542 0.94824 0.90876 0.0
N1403 N 0.15261 0.92171 0.92395 0.0
C1404 C 0.12461 0.90887 0.9456 0.0
C1405 C 0.088 0.92327 0.93717 0.0
C1406 C 0.13514 0.67789 0.2896 0.0
C1407 C 0.15844 0.69325 0.31652 0.0
C1408 C 0.12489 0.64083 0.29174 0.0
C1409 C 0.13843 0.6177 0.32034 0.0
H1410 H 0.12588 0.69411 0.26576 0.0
H1411 H 0.11023 0.62937 0.26844 0.0
S1412 S 0.19202 0.64634 0.40242 0.0
N1413 N 0.18823 0.68431 0.37653 0.0
N1414 N 0.16966 0.61402 0.37996 0.0
C1415 C 0.15741 0.63382 0.34993 0.0
C1416 C 0.16766 0.6717 0.34795 0.0
C1417 C 0.93947 0.58837 0.92069 0.0
C1418 C 0.96627 0.60674 0.94132 0.0
C1419 C 0.90165 0.59214 0.92938 0.0
C1420 C 0.88914 0.61461 0.95878 0.0
H1421 H 0.94782 0.56903 0.89944 0.0
H1422 H 0.88216 0.57527 0.91457 0.0
S1423 S 0.94728 0.67422 0.01649 0.0
N1424 N 0.97707 0.65288 0.98886 0.0
N1425 N 0.90586 0.65917 0.00509 0.0
C1426 C 0.91513 0.63592 0.97716 0.0
C1427 C 0.95376 0.63207 0.96851 0.0
C1428 C 0.16457 0.83534 0.15916 0.0
C1429 C 0.19322 0.81597 0.1782 0.0
C1430 C 0.17152 0.85446 0.1257 0.0
C1431 C 0.20719 0.8543 0.10985 0.0
H1432 H 0.13712 0.83769 0.17131 0.0
H1433 H 0.14898 0.86978 0.11243 0.0
S1434 S 0.29111 0.80611 0.1478 0.0
N1435 N 0.25805 0.79674 0.1781 0.0
N1436 N 0.27113 0.83191 0.1151 0.0
C1437 C 0.23561 0.83366 0.12784 0.0
C1438 C 0.22862 0.81467 0.16199 0.0
C1439 C 0.20331 0.14625 0.32808 0.0
C1440 C 0.20164 0.18448 0.32013 0.0
C1441 C 0.20455 0.13276 0.36464 0.0
C1442 C 0.205 0.15697 0.3948 0.0
H1443 H 0.20345 0.12648 0.30576 0.0
H1444 H 0.2064 0.10307 0.36923 0.0
S1445 S 0.19967 0.2596 0.38888 0.0
N1446 N 0.19878 0.24643 0.34518 0.0
N1447 N 0.20257 0.22117 0.41423 0.0
C1448 C 0.20301 0.19534 0.38728 0.0
C1449 C 0.20084 0.20909 0.34986 0.0
C1450 C 0.39944 0.51075 0.94624 0.0
C1451 C 0.40707 0.54827 0.95242 0.0
C1452 C 0.38744 0.49889 0.91157 0.0
C1453 C 0.38194 0.52417 0.88208 0.0
H1454 H 0.40472 0.49007 0.96773 0.0
H1455 H 0.38563 0.4694 0.90684 0.0
S1456 S 0.39118 0.626 0.88569 0.0
N1457 N 0.40327 0.61122 0.9276 0.0
N1458 N 0.38046 0.58865 0.86233 0.0
C1459 C 0.38591 0.56204 0.88888 0.0
C1460 C 0.3988 0.57417 0.92401 0.0
C1461 C 0.77761 0.34315 0.31542 0.0
C1462 C 0.80902 0.32476 0.30025 0.0
C1463 C 0.77706 0.35539 0.35218 0.0
C1464 C 0.80778 0.3496 0.37552 0.0
H1465 H 0.75268 0.34744 0.29907 0.0
H1466 H 0.75135 0.36674 0.36319 0.0
S1467 S 0.89832 0.307 0.34915 0.0
N1468 N 0.87291 0.30458 0.31123 0.0
N1469 N 0.87159 0.32732 0.38032 0.0
C1470 C 0.84011 0.33342 0.36024 0.0
C1471 C 0.84075 0.32091 0.32279 0.0
C1472 C 0.09839 0.41529 0.43461 0.0
C1473 C 0.10907 0.44051 0.46177 0.0
C1474 C 0.10505 0.42235 0.39679 0.0
C1475 C 0.12261 0.4549 0.38438 0.0
H1476 H 0.08362 0.39049 0.44242 0.0
H1477 H 0.0937 0.40352 0.37678 0.0
S1478 S 0.15872 0.52871 0.44376 0.0
N1479 N 0.14089 0.49845 0.47327 0.0
N1480 N 0.15245 0.51144 0.40215 0.0
C1481 C 0.13558 0.47916 0.41115 0.0
C1482 C 0.12893 0.4721 0.44978 0.0
C1483 C 0.28775 0.14852 0.68345 0.0
C1484 C 0.31981 0.16355 0.69966 0.0
C1485 C 0.28759 0.13604 0.64674 0.0
C1486 C 0.31938 0.13828 0.6243 0.0
H1487 H 0.26196 0.14729 0.69887 0.0
H1488 H 0.26145 0.12758 0.63499 0.0
S1489 S 0.41203 0.17 0.65416 0.0
N1490 N 0.38554 0.17558 0.69114 0.0
N1491 N 0.38488 0.15303 0.62193 0.0
C1492 C 0.35228 0.15081 0.64078 0.0
C1493 C 0.35255 0.16339 0.6783 0.0
C1494 C 0.38507 0.49297 0.56254 0.0
C1495 C 0.41276 0.46529 0.55806 0.0
C1496 C 0.36997 0.50088 0.59741 0.0
C1497 C 0.38222 0.48188 0.62949 0.0
H1498 H 0.37396 0.50804 0.53876 0.0
H1499 H 0.34845 0.52212 0.59916 0.0
S1500 S 0.45536 0.40817 0.63363 0.0
N1501 N 0.45272 0.41971 0.58923 0.0
N1502 N 0.42452 0.4348 0.65484 0.0
C1503 C 0.41064 0.45489 0.62573 0.0
C1504 C 0.42584 0.44655 0.59007 0.0
C1505 C 0.58696 0.06876 0.58545 0.0
C1506 C 0.59027 0.0424 0.55698 0.0
C1507 C 0.60073 0.0614 0.62165 0.0
C1508 C 0.6194 0.02782 0.63056 0.0
H1509 H 0.57427 0.09559 0.57956 0.0
H1510 H 0.59801 0.08269 0.64237 0.0
S1511 S 0.63437 0.94879 0.56738 0.0
N1512 N 0.61229 0.98022 0.54173 0.0
N1513 N 0.63896 0.96747 0.60855 0.0
C1514 C 0.62219 1.00105 0.60275 0.0
C1515 C 0.60746 0.00802 0.56639 0.0
C1516 C 0.66793 0.66176 0.35021 0.0
C1517 C 0.68559 0.69021 0.32977 0.0
C1518 C 0.63208 0.66706 0.366 0.0
C1519 C 0.61217 0.70089 0.36169 0.0
H1520 H 0.68264 0.63585 0.35563 0.0
H1521 H 0.62004 0.64461 0.38192 0.0
S1522 S 0.64613 0.78416 0.31092 0.0
N1523 N 0.67999 0.75325 0.30622 0.0
N1524 N 0.61368 0.76327 0.33543 0.0
C1525 C 0.62942 0.72913 0.34068 0.0
C1526 C 0.66569 0.72379 0.32492 0.0
C1527 C 0.94551 0.08372 0.92419 0.0
C1528 C 0.95296 0.05183 0.90321 0.0
C1529 C 0.95685 0.11924 0.91177 0.0
C1530 C 0.97578 0.12446 0.87766 0.0
H1531 H 0.93181 0.08111 0.95082 0.0
H1532 H 0.95104 0.14273 0.9293 0.0
S1533 S 0.99829 0.05008 0.81053 0.0
N1534 N 0.97806 0.02832 0.8454 0.0
N1535 N 0.99887 0.09403 0.82223 0.0
C1536 C 0.98209 0.09274 0.856 0.0
C1537 C 0.97082 0.05685 0.86869 0.0
C1538 C 0.32006 0.83603 0.31667 0.0
C1539 C 0.2947 0.80923 0.32872 0.0
C1540 C 0.35796 0.83303 0.3257 0.0
C1541 C 0.37242 0.80315 0.34727 0.0
H1542 H 0.31083 0.8591 0.29931 0.0
H1543 H 0.37651 0.85344 0.31402 0.0
S1544 S 0.31758 0.7275 0.38937 0.0
N1545 N 0.28671 0.75318 0.36647 0.0
N1546 N 0.35779 0.74786 0.38287 0.0
C1547 C 0.34715 0.77745 0.36151 0.0
C1548 C 0.30847 0.78031 0.35223 0.0
C1549 C 0.07455 0.42249 0.91364 0.0
C1550 C 0.04892 0.45242 0.91242 0.0
C1551 C 0.06425 0.38658 0.90365 0.0
C1552 C 0.02795 0.37902 0.89197 0.0
H1553 H 0.10267 0.42659 0.92312 0.0
H1554 H 0.08416 0.36405 0.90761 0.0
S1555 S 0.95053 0.44721 0.88215 0.0
N1556 N 0.98575 0.47192 0.89654 0.0
N1557 N 0.96661 0.40429 0.8788 0.0
C1558 C 1.00249 0.40875 0.88918 0.0
C1559 C 0.0129 0.44542 0.89909 0.0
C1560 C 0.67679 0.30282 0.1256 0.0
C1561 C 0.68476 0.3121 0.16255 0.0
C1562 C 0.64026 0.30189 0.11258 0.0
C1563 C 0.61026 0.30958 0.13618 0.0
H1564 H 0.69905 0.29579 0.10658 0.0
H1565 H 0.63544 0.29337 0.08433 0.0
S1566 S 0.61621 0.33906 0.23413 0.0
N1567 N 0.65992 0.33221 0.22159 0.0
N1568 N 0.59086 0.32978 0.19737 0.0
C1569 C 0.6178 0.3204 0.17275 0.0
C1570 C 0.6552 0.32196 0.18585 0.0
C1571 C 0.57006 0.082 0.09606 0.0
C1572 C 0.54259 0.05516 0.09079 0.0
C1573 C 0.56081 0.11769 0.10831 0.0
C1574 C 0.52385 0.12784 0.11597 0.0
H1575 H 0.59887 0.07586 0.08962 0.0
H1576 H 0.58226 0.13837 0.10869 0.0
S1577 S 0.44181 0.06781 0.11049 0.0
N1578 N 0.47687 0.04103 0.09735 0.0
N1579 N 0.46005 0.10815 0.12015 0.0
C1580 C 0.49654 0.10081 0.11329 0.0
C1581 C 0.50571 0.06457 0.10057 0.0
C1582 C 0.33118 0.16946 0.17296 0.0
C1583 C 0.30794 0.20075 0.16794 0.0
C1584 C 0.36746 0.16907 0.15923 0.0
C1585 C 0.38186 0.20019 0.14061 0.0
H1586 H 0.32201 0.14577 0.18906 0.0
H1587 H 0.38564 0.14598 0.16688 0.0
S1588 S 0.32973 0.28481 0.11141 0.0
N1589 N 0.29981 0.26061 0.13605 0.0
N1590 N 0.36831 0.25957 0.11094 0.0
C1591 C 0.35756 0.22936 0.13092 0.0
C1592 C 0.32064 0.23 0.14495 0.0
C1593 C 0.48175 0.44898 0.1253 0.0
C1594 C 0.45587 0.45683 0.09686 0.0
C1595 C 0.48941 0.41276 0.13772 0.0
C1596 C 0.47197 0.38207 0.12214 0.0
H1597 H 0.49645 0.47124 0.13836 0.0
H1598 H 0.50978 0.40892 0.15956 0.0
S1599 S 0.40127 0.38703 0.04718 0.0
N1600 N 0.412 0.43077 0.05384 0.0
N1601 N 0.42674 0.36218 0.07677 0.0
C1602 C 0.44568 0.38932 0.09376 0.0
C1603 C 0.43745 0.4267 0.08137 0.0
C1604 C 0.33707 0.66889 0.66101 0.0
C1605 C 0.31552 0.68685 0.68833 0.0
C1606 C 0.35544 0.63467 0.66849 0.0
C1607 C 0.35255 0.61687 0.70341 0.0
H1608 H 0.34156 0.68238 0.6344 0.0
H1609 H 0.37233 0.6223 0.64695 0.0
S1610 S 0.2993 0.65235 0.78421 0.0
N1611 N 0.29228 0.68402 0.7514 0.0
N1612 N 0.32605 0.62014 0.76537 0.0
C1613 C 0.33018 0.63417 0.73047 0.0
C1614 C 0.31191 0.66896 0.72297 0.0
C1615 C 0.93233 0.40318 0.57131 0.0
C1616 C 0.96142 0.3967 0.54609 0.0
C1617 C 0.8955 0.39575 0.56205 0.0
C1618 C 0.88619 0.38201 0.52706 0.0
H1619 H 0.93795 0.41499 0.59814 0.0
H1620 H 0.87377 0.40363 0.58137 0.0
S1621 S 0.95216 0.35789 0.45203 0.0
N1622 N 0.97886 0.37276 0.48577 0.0
N1623 N 0.90906 0.36054 0.46772 0.0
C1624 C 0.91509 0.37356 0.50229 0.0
C1625 C 0.95287 0.38044 0.51199 0.0
C1626 C 0.68537 0.83918 0.72146 0.0
C1627 C 0.67608 0.81832 0.69053 0.0
C1628 C 0.67228 0.87551 0.72509 0.0
C1629 C 0.64851 0.89212 0.69836 0.0
H1630 H 0.70173 0.82682 0.74375 0.0
H1631 H 0.6794 0.88991 0.75018 0.0
S1632 S 0.61872 0.85001 0.6104 0.0
N1633 N 0.64447 0.8175 0.63094 0.0
N1634 N 0.61851 0.88569 0.63855 0.0
C1635 C 0.64032 0.87208 0.66642 0.0
C1636 C 0.65452 0.83522 0.66226 0.0
C1637 C 0.09821 0.07673 0.56444 0.0
C1638 C 0.06779 0.08463 0.54087 0.0
C1639 C 0.13248 0.09442 0.55961 0.0
C1640 C 0.13743 0.12157 0.53173 0.0
H1641 H 0.0953 0.05724 0.58732 0.0
H1642 H 0.15499 0.0875 0.5785 0.0
S1643 S 0.06808 0.15076 0.46076 0.0
N1644 N 0.04626 0.12005 0.48675 0.0
N1645 N 0.11005 0.15367 0.47862 0.0
C1646 C 0.10775 0.12905 0.50736 0.0
C1647 C 0.07318 0.11048 0.51164 0.0
C1648 C 0.32621 0.33011 0.84269 0.0
C1649 C 0.32954 0.30635 0.81229 0.0
C1650 C 0.33891 0.36666 0.84062 0.0
C1651 C 0.35567 0.38108 0.80816 0.0
H1652 H 0.31302 0.32073 0.86806 0.0
H1653 H 0.33336 0.38464 0.86385 0.0
S1654 S 0.37514 0.32952 0.72211 0.0
N1655 N 0.35408 0.29943 0.74945 0.0
N1656 N 0.37785 0.36782 0.74625 0.0
C1657 C 0.36165 0.35697 0.7786 0.0
C1658 C 0.34838 0.31987 0.78038 0.0
C1659 C 0.58879 0.41339 0.43438 0.0
C1660 C 0.56184 0.41778 0.46247 0.0
C1661 C 0.62384 0.39698 0.44197 0.0
C1662 C 0.63289 0.38335 0.47766 0.0
H1663 H 0.58251 0.42188 0.40613 0.0
H1664 H 0.64361 0.39394 0.41951 0.0
S1665 S 0.57482 0.39135 0.56204 0.0
N1666 N 0.54903 0.41005 0.52871 0.0
N1667 N 0.61384 0.37798 0.54187 0.0
C1668 C 0.607 0.38859 0.50618 0.0
C1669 C 0.57183 0.40614 0.49888 0.0
C1670 C 0.65079 0.17434 0.7786 0.0
C1671 C 0.66877 0.18875 0.80982 0.0
C1672 C 0.63592 0.13884 0.77944 0.0
C1673 C 0.6392 0.11619 0.81124 0.0
H1674 H 0.64908 0.19008 0.75286 0.0
H1675 H 0.62563 0.12766 0.75376 0.0
S1676 S 0.67697 0.14261 0.90229 0.0
N1677 N 0.68368 0.17918 0.87526 0.0
N1678 N 0.65624 0.11207 0.87613 0.0
C1679 C 0.65346 0.13148 0.84366 0.0
C1680 C 0.66858 0.16763 0.84299 0.0
C1681 C 0.43554 0.0946 0.41698 0.0
C1682 C 0.46249 0.10532 0.44259 0.0
C1683 C 0.39756 0.10024 0.42415 0.0
C1684 C 0.3849 0.11717 0.45698 0.0
H1685 H 0.44363 0.07981 0.39226 0.0
H1686 H 0.37775 0.08882 0.40502 0.0
S1687 S 0.44379 0.15625 0.53005 0.0
N1688 N 0.47361 0.13855 0.50001 0.0
N1689 N 0.40214 0.14842 0.51311 0.0
C1690 C 0.41139 0.13106 0.48115 0.0
C1691 C 0.45018 0.12521 0.47409 0.0
C1692 C 0.70167 0.30677 0.65558 0.0
C1693 C 0.6971 0.33063 0.68563 0.0
C1694 C 0.70728 0.32108 0.61952 0.0
C1695 C 0.70731 0.35962 0.61236 0.0
H1696 H 0.70201 0.27705 0.6601 0.0
H1697 H 0.71161 0.30178 0.59728 0.0
S1698 S 0.69488 0.43353 0.68178 0.0
N1699 N 0.69247 0.39451 0.70593 0.0
N1700 N 0.70135 0.42109 0.6384 0.0
C1701 C 0.70152 0.38355 0.64216 0.0
C1702 C 0.69684 0.36912 0.67874 0.0
C1703 C 0.73276 0.69231 0.83817 0.0
C1704 C 0.69848 0.68902 0.8201 0.0
C1705 C 0.73818 0.67804 0.87419 0.0
C1706 C 0.7099 0.65882 0.89299 0.0
H1707 H 0.75592 0.70492 0.82388 0.0
H1708 H 0.7654 0.6804 0.8866 0.0
S1709 S 0.61438 0.64425 0.85855 0.0
N1710 N 0.63505 0.66715 0.82462 0.0
N1711 N 0.64578 0.63908 0.89162 0.0
C1712 C 0.67512 0.65643 0.87573 0.0
C1713 C 0.66926 0.67188 0.83949 0.0
C1714 C 0.90652 0.07338 0.42929 0.0
C1715 C 0.9094 0.04659 0.45796 0.0
C1716 C 0.89702 0.06347 0.39304 0.0
C1717 C 0.8902 0.02645 0.38413 0.0
H1718 H 0.91259 0.10208 0.43464 0.0
H1719 H 0.89776 0.08447 0.3713 0.0
S1720 S 0.89219 0.94595 0.4488 0.0
N1721 N 0.90247 0.98151 0.47495 0.0
N1722 N 0.88558 0.9632 0.40663 0.0
C1723 C 0.89127 0.99973 0.41267 0.0
C1724 C 0.90061 0.00971 0.44962 0.0
C1725 C 0.33726 0.82551 0.82144 0.0
C1726 C 0.30616 0.83164 0.79854 0.0
C1727 C 0.3373 0.83722 0.85847 0.0
C1728 C 0.30637 0.85583 0.87421 0.0
H1729 H 0.36136 0.81054 0.81112 0.0
H1730 H 0.36086 0.82948 0.87572 0.0
S1731 S 0.21964 0.88309 0.82529 0.0
N1732 N 0.24462 0.8611 0.79388 0.0
N1733 N 0.24532 0.8828 0.8631 0.0
C1734 C 0.27631 0.86466 0.85097 0.0
C1735 C 0.27594 0.85244 0.81339 0.0
C1736 C 0.59689 0.91645 0.934 0.0
C1737 C 0.60693 0.94314 0.95996 0.0
C1738 C 0.6031 0.92221 0.89584 0.0
C1739 C 0.62014 0.95455 0.88202 0.0
H1740 H 0.58217 0.89198 0.94292 0.0
H1741 H 0.59183 0.9025 0.87666 0.0
S1742 S 0.65717 0.03024 0.93834 0.0
N1743 N 0.6393 1.00123 0.96906 0.0
N1744 N 0.65033 0.0116 0.89745 0.0
C1745 C 0.63321 0.97982 0.90774 0.0
C1746 C 0.62667 0.97428 0.94662 0.0
C1747 C 0.78476 0.65282 0.18354 0.0
C1748 C 0.81697 0.66681 0.20041 0.0
C1749 C 0.78519 0.63934 0.14717 0.0
C1750 C 0.81778 0.63944 0.12576 0.0
H1751 H 0.75846 0.65321 0.19814 0.0
H1752 H 0.75905 0.6319 0.13471 0.0
S1753 S 0.91089 0.66759 0.15786 0.0
N1754 N 0.88349 0.67551 0.19374 0.0
N1755 N 0.88398 0.65098 0.12522 0.0
C1756 C 0.85071 0.65082 0.14303 0.0
C1757 C 0.85036 0.66451 0.18015 0.0
C1758 C 0.88836 0.9965 0.06603 0.0
C1759 C 0.91329 0.96615 0.06208 0.0
C1760 C 0.87113 0.00434 0.10005 0.0
C1761 C 0.87849 0.98258 0.13184 0.0
H1762 H 0.8812 0.014 0.04238 0.0
H1763 H 0.85224 0.02793 0.10151 0.0
S1764 S 0.94192 0.90046 0.13722 0.0
N1765 N 0.94453 0.91445 0.09352 0.0
N1766 N 0.91269 0.92951 0.15749 0.0
C1767 C 0.90378 0.95254 0.1286 0.0
C1768 C 0.92101 0.94426 0.09381 0.0
C1769 C 0.09534 0.58039 0.08737 0.0
C1770 C 0.08713 0.55163 0.06263 0.0
C1771 C 0.10922 0.57281 0.12344 0.0
C1772 C 0.11595 0.53622 0.13599 0.0
H1773 H 0.09251 0.60902 0.07835 0.0
H1774 H 0.11628 0.59575 0.14095 0.0
S1775 S 0.09649 0.45075 0.08436 0.0
N1776 N 0.08394 0.48465 0.05565 0.0
N1777 N 0.11165 0.47111 0.12193 0.0
C1778 C 0.10665 0.50735 0.11231 0.0
C1779 C 0.09175 0.51485 0.07614 0.0
loop_
_geom_bond_atom_site_label_1
_geom_bond_atom_site_label_2
_geom_bond_distance
_geom_bond_site_symmetry_2
_ccdc_geom_bond_type
Fe0 O2 1.918 . S
Fe0 O5 1.997 . S
Fe0 O6 2.002 . S
Fe0 O11 1.976 . S
Fe0 O14 1.996 . S
Fe1 O2 1.918 . S
Fe1 O9 1.997 . S
Fe1 O12 1.996 . S
Fe1 O16 1.976 . S
Fe1 O19 2.002 . S
O2 Fe0 1.918 . S
O2 Fe1 1.918 . S
O2 Fe3 1.918 . S
Fe3 O2 1.918 . S
Fe3 O4 2.002 . S
Fe3 O13 1.976 . S
Fe3 O17 1.996 . S
Fe3 O20 1.997 . S
O4 Fe3 2.002 . S
O4 C21 1.295 . S
O5 Fe0 1.997 . S
O5 C21 1.235 . S
O6 Fe0 2.002 . S
O6 C7 1.295 . S
C7 O6 1.295 . S
C7 O9 1.235 . S
C8 O13 1.287 . S
C8 O14 1.255 . S
O9 Fe1 1.997 . S
O9 C7 1.235 . S
C10 O16 1.287 . S
C10 O17 1.255 . S
O11 Fe0 1.976 . S
O11 C18 1.287 . S
O12 Fe1 1.996 . S
O12 C18 1.255 . S
O13 Fe3 1.976 . S
O13 C8 1.287 . S
O14 Fe0 1.996 . S
O14 C8 1.255 . S
C15 O19 1.295 . S
C15 O20 1.235 . S
O16 Fe1 1.976 . S
O16 C10 1.287 . S
O17 Fe3 1.996 . S
O17 C10 1.255 . S
C18 O11 1.287 . S
C18 O12 1.255 . S
O19 Fe1 2.002 . S
O19 C15 1.295 . S
O20 Fe3 1.997 . S
O20 C15 1.235 . S
C21 O4 1.295 . S
C21 O5 1.235 . S
Fe22 O24 1.918 . S
Fe22 O27 1.997 . S
Fe22 O28 2.002 . S
Fe22 O33 1.976 . S
Fe22 O36 1.996 . S
Fe23 O24 1.918 . S
Fe23 O31 1.997 . S
Fe23 O34 1.996 . S
Fe23 O38 1.976 . S
Fe23 O41 2.002 . S
O24 Fe22 1.918 . S
O24 Fe23 1.918 . S
O24 Fe25 1.918 . S
Fe25 O24 1.918 . S
Fe25 O26 2.002 . S
Fe25 O35 1.976 . S
Fe25 O39 1.996 . S
Fe25 O42 1.997 . S
O26 Fe25 2.002 . S
O26 C43 1.295 . S
O27 Fe22 1.997 . S
O27 C43 1.235 . S
O28 Fe22 2.002 . S
O28 C29 1.295 . S
C29 O28 1.295 . S
C29 O31 1.235 . S
C30 O35 1.287 . S
C30 O36 1.255 . S
O31 Fe23 1.997 . S
O31 C29 1.235 . S
C32 O38 1.287 1_556 S
C32 O39 1.255 1_556 S
O33 Fe22 1.976 . S
O33 C40 1.287 . S
O34 Fe23 1.996 . S
O34 C40 1.255 . S
O35 Fe25 1.976 . S
O35 C30 1.287 . S
O36 Fe22 1.996 . S
O36 C30 1.255 . S
C37 O41 1.295 . S
C37 O42 1.235 . S
O38 Fe23 1.976 . S
O38 C32 1.287 1_554 S
O39 Fe25 1.996 . S
O39 C32 1.255 1_554 S
C40 O33 1.287 . S
C40 O34 1.255 . S
O41 Fe23 2.002 . S
O41 C37 1.295 . S
O42 Fe25 1.997 . S
O42 C37 1.235 . S
C43 O26 1.295 . S
C43 O27 1.235 . S
Fe44 O46 1.918 . S
Fe44 O49 1.997 . S
Fe44 O50 2.002 . S
Fe44 O55 1.976 . S
Fe44 O58 1.996 . S
Fe45 O46 1.918 . S
Fe45 O53 1.997 . S
Fe45 O56 1.996 . S
Fe45 O60 1.976 . S
Fe45 O63 2.002 . S
O46 Fe44 1.918 . S
O46 Fe45 1.918 . S
O46 Fe47 1.918 . S
Fe47 O46 1.918 . S
Fe47 O48 2.002 . S
Fe47 O57 1.976 . S
Fe47 O61 1.996 . S
Fe47 O64 1.997 . S
O48 Fe47 2.002 . S
O48 C65 1.295 . S
O49 Fe44 1.997 . S
O49 C65 1.235 . S
O50 Fe44 2.002 . S
O50 C51 1.295 . S
C51 O50 1.295 . S
C51 O53 1.235 . S
C52 O57 1.287 . S
C52 O58 1.255 . S
O53 Fe45 1.997 . S
O53 C51 1.235 . S
C54 O60 1.287 . S
C54 O61 1.255 . S
O55 Fe44 1.976 . S
O55 C62 1.287 . S
O56 Fe45 1.996 . S
O56 C62 1.255 . S
O57 Fe47 1.976 . S
O57 C52 1.287 . S
O58 Fe44 1.996 . S
O58 C52 1.255 . S
C59 O63 1.295 . S
C59 O64 1.235 . S
O60 Fe45 1.976 . S
O60 C54 1.287 . S
O61 Fe47 1.996 . S
O61 C54 1.255 . S
C62 O55 1.287 . S
C62 O56 1.255 . S
O63 Fe45 2.002 . S
O63 C59 1.295 . S
O64 Fe47 1.997 . S
O64 C59 1.235 . S
C65 O48 1.295 . S
C65 O49 1.235 . S
Fe66 O68 1.918 . S
Fe66 O71 1.997 . S
Fe66 O72 2.002 . S
Fe66 O77 1.976 . S
Fe66 O80 1.996 . S
Fe67 O68 1.918 . S
Fe67 O75 1.997 . S
Fe67 O78 1.996 . S
Fe67 O82 1.976 . S
Fe67 O85 2.002 . S
O68 Fe66 1.918 . S
O68 Fe67 1.918 . S
O68 Fe69 1.918 . S
Fe69 O68 1.918 . S
Fe69 O70 2.002 . S
Fe69 O79 1.976 . S
Fe69 O83 1.996 . S
Fe69 O86 1.997 . S
O70 Fe69 2.002 . S
O70 C87 1.295 . S
O71 Fe66 1.997 . S
O71 C87 1.235 . S
O72 Fe66 2.002 . S
O72 C73 1.295 . S
C73 O72 1.295 . S
C73 O75 1.235 . S
C74 O79 1.287 1_545 S
C74 O80 1.255 1_545 S
O75 Fe67 1.997 . S
O75 C73 1.235 . S
C76 O82 1.287 1_556 S
C76 O83 1.255 1_556 S
O77 Fe66 1.976 . S
O77 C84 1.287 . S
O78 Fe67 1.996 . S
O78 C84 1.255 . S
O79 Fe69 1.976 . S
O79 C74 1.287 1_565 S
O80 Fe66 1.996 . S
O80 C74 1.255 1_565 S
C81 O85 1.295 . S
C81 O86 1.235 . S
O82 Fe67 1.976 . S
O82 C76 1.287 1_554 S
O83 Fe69 1.996 . S
O83 C76 1.255 1_554 S
C84 O77 1.287 . S
C84 O78 1.255 . S
O85 Fe67 2.002 . S
O85 C81 1.295 . S
O86 Fe69 1.997 . S
O86 C81 1.235 . S
C87 O70 1.295 . S
C87 O71 1.235 . S
Fe88 O90 1.918 . S
Fe88 O93 1.997 . S
Fe88 O94 2.002 . S
Fe88 O99 1.976 . S
Fe88 O102 1.996 . S
Fe89 O90 1.918 . S
Fe89 O97 1.997 . S
Fe89 O100 1.996 . S
Fe89 O104 1.976 . S
Fe89 O107 2.002 . S
O90 Fe88 1.918 . S
O90 Fe89 1.918 . S
O90 Fe91 1.918 . S
Fe91 O90 1.918 . S
Fe91 O92 2.002 . S
Fe91 O101 1.976 . S
Fe91 O105 1.996 . S
Fe91 O108 1.997 . S
O92 Fe91 2.002 . S
O92 C109 1.295 . S
O93 Fe88 1.997 . S
O93 C109 1.235 . S
O94 Fe88 2.002 . S
O94 C95 1.295 . S
C95 O94 1.295 . S
C95 O97 1.235 . S
C96 O101 1.287 . S
C96 O102 1.255 . S
O97 Fe89 1.997 . S
O97 C95 1.235 . S
C98 O104 1.287 . S
C98 O105 1.255 . S
O99 Fe88 1.976 . S
O99 C106 1.287 . S
O100 Fe89 1.996 . S
O100 C106 1.255 . S
O101 Fe91 1.976 . S
O101 C96 1.287 . S
O102 Fe88 1.996 . S
O102 C96 1.255 . S
C103 O107 1.295 . S
C103 O108 1.235 . S
O104 Fe89 1.976 . S
O104 C98 1.287 . S
O105 Fe91 1.996 . S
O105 C98 1.255 . S
C106 O99 1.287 . S
C106 O100 1.255 . S
O107 Fe89 2.002 . S
O107 C103 1.295 . S
O108 Fe91 1.997 . S
O108 C103 1.235 . S
C109 O92 1.295 . S
C109 O93 1.235 . S
Fe110 O112 1.918 . S
Fe110 O115 1.997 . S
Fe110 O116 2.002 . S
Fe110 O121 1.976 . S
Fe110 O124 1.996 . S
Fe111 O112 1.918 . S
Fe111 O119 1.997 . S
Fe111 O122 1.996 . S
Fe111 O126 1.976 . S
Fe111 O129 2.002 . S
O112 Fe110 1.918 . S
O112 Fe111 1.918 . S
O112 Fe113 1.918 . S
Fe113 O112 1.918 . S
Fe113 O114 2.002 . S
Fe113 O123 1.976 . S
Fe113 O127 1.996 . S
Fe113 O130 1.997 . S
O114 Fe113 2.002 . S
O114 C131 1.295 . S
O115 Fe110 1.997 . S
O115 C131 1.235 . S
O116 Fe110 2.002 . S
O116 C117 1.295 . S
C117 O116 1.295 . S
C117 O119 1.235 . S
C118 O123 1.287 1_554 S
C118 O124 1.255 1_554 S
O119 Fe111 1.997 . S
O119 C117 1.235 . S
C120 O126 1.287 1_655 S
C120 O127 1.255 1_655 S
O121 Fe110 1.976 . S
O121 C128 1.287 . S
O122 Fe111 1.996 . S
O122 C128 1.255 . S
O123 Fe113 1.976 . S
O123 C118 1.287 1_556 S
O124 Fe110 1.996 . S
O124 C118 1.255 1_556 S
C125 O129 1.295 . S
C125 O130 1.235 . S
O126 Fe111 1.976 . S
O126 C120 1.287 1_455 S
O127 Fe113 1.996 . S
O127 C120 1.255 1_455 S
C128 O121 1.287 . S
C128 O122 1.255 . S
O129 Fe111 2.002 . S
O129 C125 1.295 . S
O130 Fe113 1.997 . S
O130 C125 1.235 . S
C131 O114 1.295 . S
C131 O115 1.235 . S
Fe132 O134 1.918 . S
Fe132 O137 1.997 . S
Fe132 O138 2.002 . S
Fe132 O143 1.976 . S
Fe132 O146 1.996 . S
Fe133 O134 1.918 . S
Fe133 O141 1.997 . S
Fe133 O144 1.996 . S
Fe133 O148 1.976 . S
Fe133 O151 2.002 . S
O134 Fe132 1.918 . S
O134 Fe133 1.918 . S
O134 Fe135 1.918 . S
Fe135 O134 1.918 . S
Fe135 O136 2.002 . S
Fe135 O145 1.976 . S
Fe135 O149 1.996 . S
Fe135 O152 1.997 . S
O136 Fe135 2.002 . S
O136 C153 1.295 . S
O137 Fe132 1.997 . S
O137 C153 1.235 . S
O138 Fe132 2.002 . S
O138 C139 1.295 . S
C139 O138 1.295 . S
C139 O141 1.235 . S
C140 O145 1.287 . S
C140 O146 1.255 . S
O141 Fe133 1.997 . S
O141 C139 1.235 . S
C142 O148 1.287 . S
C142 O149 1.255 . S
O143 Fe132 1.976 . S
O143 C150 1.287 . S
O144 Fe133 1.996 . S
O144 C150 1.255 . S
O145 Fe135 1.976 . S
O145 C140 1.287 . S
O146 Fe132 1.996 . S
O146 C140 1.255 . S
C147 O151 1.295 . S
C147 O152 1.235 . S
O148 Fe133 1.976 . S
O148 C142 1.287 . S
O149 Fe135 1.996 . S
O149 C142 1.255 . S
C150 O143 1.287 . S
C150 O144 1.255 . S
O151 Fe133 2.002 . S
O151 C147 1.295 . S
O152 Fe135 1.997 . S
O152 C147 1.235 . S
C153 O136 1.295 . S
C153 O137 1.235 . S
Fe154 O156 1.918 . S
Fe154 O159 1.997 . S
Fe154 O160 2.002 . S
Fe154 O165 1.976 . S
Fe154 O168 1.996 . S
Fe155 O156 1.918 . S
Fe155 O163 1.997 . S
Fe155 O166 1.996 . S
Fe155 O170 1.976 . S
Fe155 O173 2.002 . S
O156 Fe154 1.918 . S
O156 Fe155 1.918 . S
O156 Fe157 1.918 . S
Fe157 O156 1.918 . S
Fe157 O158 2.002 . S
Fe157 O167 1.976 . S
Fe157 O171 1.996 . S
Fe157 O174 1.997 . S
O158 Fe157 2.002 . S
O158 C175 1.295 . S
O159 Fe154 1.997 . S
O159 C175 1.235 . S
O160 Fe154 2.002 . S
O160 C161 1.295 . S
C161 O160 1.295 . S
C161 O163 1.235 . S
C162 O167 1.287 1_554 S
C162 O168 1.255 1_554 S
O163 Fe155 1.997 . S
O163 C161 1.235 . S
C164 O170 1.287 1_455 S
C164 O171 1.255 1_455 S
O165 Fe154 1.976 . S
O165 C172 1.287 1_565 S
O166 Fe155 1.996 . S
O166 C172 1.255 1_565 S
O167 Fe157 1.976 . S
O167 C162 1.287 1_556 S
O168 Fe154 1.996 . S
O168 C162 1.255 1_556 S
C169 O173 1.295 . S
C169 O174 1.235 . S
O170 Fe155 1.976 . S
O170 C164 1.287 1_655 S
O171 Fe157 1.996 . S
O171 C164 1.255 1_655 S
C172 O165 1.287 1_545 S
C172 O166 1.255 1_545 S
O173 Fe155 2.002 . S
O173 C169 1.295 . S
O174 Fe157 1.997 . S
O174 C169 1.235 . S
C175 O158 1.295 . S
C175 O159 1.235 . S
Fe176 O178 1.918 . S
Fe176 O181 1.997 . S
Fe176 O182 2.002 . S
Fe176 O187 1.976 . S
Fe176 O190 1.996 . S
Fe177 O178 1.918 . S
Fe177 O185 1.997 . S
Fe177 O188 1.996 . S
Fe177 O192 1.976 . S
Fe177 O195 2.002 . S
O178 Fe176 1.918 . S
O178 Fe177 1.918 . S
O178 Fe179 1.918 . S
Fe179 O178 1.918 . S
Fe179 O180 2.002 . S
Fe179 O189 1.976 . S
Fe179 O193 1.996 . S
Fe179 O196 1.997 . S
O180 Fe179 2.002 . S
O180 C197 1.295 . S
O181 Fe176 1.997 . S
O181 C197 1.235 . S
O182 Fe176 2.002 . S
O182 C183 1.295 . S
C183 O182 1.295 . S
C183 O185 1.235 . S
C184 O189 1.287 . S
C184 O190 1.255 . S
O185 Fe177 1.997 . S
O185 C183 1.235 . S
C186 O192 1.287 . S
C186 O193 1.255 . S
O187 Fe176 1.976 . S
O187 C194 1.287 . S
O188 Fe177 1.996 . S
O188 C194 1.255 . S
O189 Fe179 1.976 . S
O189 C184 1.287 . S
O190 Fe176 1.996 . S
O190 C184 1.255 . S
C191 O195 1.295 . S
C191 O196 1.235 . S
O192 Fe177 1.976 . S
O192 C186 1.287 . S
O193 Fe179 1.996 . S
O193 C186 1.255 . S
C194 O187 1.287 . S
C194 O188 1.255 . S
O195 Fe177 2.002 . S
O195 C191 1.295 . S
O196 Fe179 1.997 . S
O196 C191 1.235 . S
C197 O180 1.295 . S
C197 O181 1.235 . S
Fe198 O200 1.918 . S
Fe198 O203 1.997 . S
Fe198 O204 2.002 . S
Fe198 O209 1.976 . S
Fe198 O212 1.996 . S
Fe199 O200 1.918 . S
Fe199 O207 1.997 . S
Fe199 O210 1.996 . S
Fe199 O214 1.976 . S
Fe199 O217 2.002 . S
O200 Fe198 1.918 . S
O200 Fe199 1.918 . S
O200 Fe201 1.918 . S
Fe201 O200 1.918 . S
Fe201 O202 2.002 . S
Fe201 O211 1.976 . S
Fe201 O215 1.996 . S
Fe201 O218 1.997 . S
O202 Fe201 2.002 . S
O202 C219 1.295 . S
O203 Fe198 1.997 . S
O203 C219 1.235 . S
O204 Fe198 2.002 . S
O204 C205 1.295 . S
C205 O204 1.295 . S
C205 O207 1.235 . S
C206 O211 1.287 . S
C206 O212 1.255 . S
O207 Fe199 1.997 . S
O207 C205 1.235 . S
C208 O214 1.287 . S
C208 O215 1.255 . S
O209 Fe198 1.976 . S
O209 C216 1.287 . S
O210 Fe199 1.996 . S
O210 C216 1.255 . S
O211 Fe201 1.976 . S
O211 C206 1.287 . S
O212 Fe198 1.996 . S
O212 C206 1.255 . S
C213 O217 1.295 . S
C213 O218 1.235 . S
O214 Fe199 1.976 . S
O214 C208 1.287 . S
O215 Fe201 1.996 . S
O215 C208 1.255 . S
C216 O209 1.287 . S
C216 O210 1.255 . S
O217 Fe199 2.002 . S
O217 C213 1.295 . S
O218 Fe201 1.997 . S
O218 C213 1.235 . S
C219 O202 1.295 . S
C219 O203 1.235 . S
Fe220 O222 1.918 . S
Fe220 O225 1.997 . S
Fe220 O226 2.002 . S
Fe220 O231 1.976 . S
Fe220 O234 1.996 . S
Fe221 O222 1.918 . S
Fe221 O229 1.997 . S
Fe221 O232 1.996 . S
Fe221 O236 1.976 . S
Fe221 O239 2.002 . S
O222 Fe220 1.918 . S
O222 Fe221 1.918 . S
O222 Fe223 1.918 . S
Fe223 O222 1.918 . S
Fe223 O224 2.002 . S
Fe223 O233 1.976 . S
Fe223 O237 1.996 . S
Fe223 O240 1.997 . S
O224 Fe223 2.002 . S
O224 C241 1.295 . S
O225 Fe220 1.997 . S
O225 C241 1.235 . S
O226 Fe220 2.002 . S
O226 C227 1.295 . S
C227 O226 1.295 . S
C227 O229 1.235 . S
C228 O233 1.287 1_655 S
C228 O234 1.255 1_655 S
O229 Fe221 1.997 . S
O229 C227 1.235 . S
C230 O236 1.287 . S
C230 O237 1.255 . S
O231 Fe220 1.976 . S
O231 C238 1.287 . S
O232 Fe221 1.996 . S
O232 C238 1.255 . S
O233 Fe223 1.976 . S
O233 C228 1.287 1_455 S
O234 Fe220 1.996 . S
O234 C228 1.255 1_455 S
C235 O239 1.295 . S
C235 O240 1.235 . S
O236 Fe221 1.976 . S
O236 C230 1.287 . S
O237 Fe223 1.996 . S
O237 C230 1.255 . S
C238 O231 1.287 . S
C238 O232 1.255 . S
O239 Fe221 2.002 . S
O239 C235 1.295 . S
O240 Fe223 1.997 . S
O240 C235 1.235 . S
C241 O224 1.295 . S
C241 O225 1.235 . S
Fe242 O244 1.918 . S
Fe242 O247 1.997 . S
Fe242 O248 2.002 . S
Fe242 O253 1.976 . S
Fe242 O256 1.996 . S
Fe243 O244 1.918 . S
Fe243 O251 1.997 . S
Fe243 O254 1.996 . S
Fe243 O258 1.976 . S
Fe243 O261 2.002 . S
O244 Fe242 1.918 . S
O244 Fe243 1.918 . S
O244 Fe245 1.918 . S
Fe245 O244 1.918 . S
Fe245 O246 2.002 . S
Fe245 O255 1.976 . S
Fe245 O259 1.996 . S
Fe245 O262 1.997 . S
O246 Fe245 2.002 . S
O246 C263 1.295 . S
O247 Fe242 1.997 . S
O247 C263 1.235 . S
O248 Fe242 2.002 . S
O248 C249 1.295 . S
C249 O248 1.295 . S
C249 O251 1.235 . S
C250 O255 1.287 1_565 S
C250 O256 1.255 1_565 S
O251 Fe243 1.997 . S
O251 C249 1.235 . S
C252 O258 1.287 . S
C252 O259 1.255 . S
O253 Fe242 1.976 . S
O253 C260 1.287 1_655 S
O254 Fe243 1.996 . S
O254 C260 1.255 1_655 S
O255 Fe245 1.976 . S
O255 C250 1.287 1_545 S
O256 Fe242 1.996 . S
O256 C250 1.255 1_545 S
C257 O261 1.295 . S
C257 O262 1.235 . S
O258 Fe243 1.976 . S
O258 C252 1.287 . S
O259 Fe245 1.996 . S
O259 C252 1.255 . S
C260 O253 1.287 1_455 S
C260 O254 1.255 1_455 S
O261 Fe243 2.002 . S
O261 C257 1.295 . S
O262 Fe245 1.997 . S
O262 C257 1.235 . S
C263 O246 1.295 . S
C263 O247 1.235 . S
Fe264 O266 1.918 . S
Fe264 O269 1.997 . S
Fe264 O270 2.002 . S
Fe264 O275 1.976 . S
Fe264 O278 1.996 . S
Fe265 O266 1.918 . S
Fe265 O273 1.997 . S
Fe265 O276 1.996 . S
Fe265 O280 1.976 . S
Fe265 O283 2.002 . S
O266 Fe264 1.918 . S
O266 Fe265 1.918 . S
O266 Fe267 1.918 . S
Fe267 O266 1.918 . S
Fe267 O268 2.002 . S
Fe267 O277 1.976 . S
Fe267 O281 1.996 . S
Fe267 O284 1.997 . S
O268 Fe267 2.002 . S
O268 C285 1.295 . S
O269 Fe264 1.997 . S
O269 C285 1.235 . S
O270 Fe264 2.002 . S
O270 C271 1.295 . S
C271 O270 1.295 . S
C271 O273 1.235 . S
C272 O277 1.287 . S
C272 O278 1.255 . S
O273 Fe265 1.997 . S
O273 C271 1.235 . S
C274 O280 1.287 . S
C274 O281 1.255 . S
O275 Fe264 1.976 . S
O275 C282 1.287 . S
O276 Fe265 1.996 . S
O276 C282 1.255 . S
O277 Fe267 1.976 . S
O277 C272 1.287 . S
O278 Fe264 1.996 . S
O278 C272 1.255 . S
C279 O283 1.295 . S
C279 O284 1.235 . S
O280 Fe265 1.976 . S
O280 C274 1.287 . S
O281 Fe267 1.996 . S
O281 C274 1.255 . S
C282 O275 1.287 . S
C282 O276 1.255 . S
O283 Fe265 2.002 . S
O283 C279 1.295 . S
O284 Fe267 1.997 . S
O284 C279 1.235 . S
C285 O268 1.295 . S
C285 O269 1.235 . S
Fe286 O288 1.918 . S
Fe286 O291 1.997 . S
Fe286 O292 2.002 . S
Fe286 O297 1.976 . S
Fe286 O300 1.996 . S
Fe287 O288 1.918 . S
Fe287 O295 1.997 . S
Fe287 O298 1.996 . S
Fe287 O302 1.976 . S
Fe287 O305 2.002 . S
O288 Fe286 1.918 . S
O288 Fe287 1.918 . S
O288 Fe289 1.918 . S
Fe289 O288 1.918 . S
Fe289 O290 2.002 . S
Fe289 O299 1.976 . S
Fe289 O303 1.996 . S
Fe289 O306 1.997 . S
O290 Fe289 2.002 . S
O290 C307 1.295 . S
O291 Fe286 1.997 . S
O291 C307 1.235 . S
O292 Fe286 2.002 . S
O292 C293 1.295 . S
C293 O292 1.295 . S
C293 O295 1.235 . S
C294 O299 1.287 . S
C294 O300 1.255 . S
O295 Fe287 1.997 . S
O295 C293 1.235 . S
C296 O302 1.287 . S
C296 O303 1.255 . S
O297 Fe286 1.976 . S
O297 C304 1.287 . S
O298 Fe287 1.996 . S
O298 C304 1.255 . S
O299 Fe289 1.976 . S
O299 C294 1.287 . S
O300 Fe286 1.996 . S
O300 C294 1.255 . S
C301 O305 1.295 . S
C301 O306 1.235 . S
O302 Fe287 1.976 . S
O302 C296 1.287 . S
O303 Fe289 1.996 . S
O303 C296 1.255 . S
C304 O297 1.287 . S
C304 O298 1.255 . S
O305 Fe287 2.002 . S
O305 C301 1.295 . S
O306 Fe289 1.997 . S
O306 C301 1.235 . S
C307 O290 1.295 . S
C307 O291 1.235 . S
Fe308 O310 1.918 . S
Fe308 O313 1.997 . S
Fe308 O314 2.002 . S
Fe308 O319 1.976 . S
Fe308 O322 1.996 . S
Fe309 O310 1.918 . S
Fe309 O317 1.997 . S
Fe309 O320 1.996 . S
Fe309 O324 1.976 . S
Fe309 O327 2.002 . S
O310 Fe308 1.918 . S
O310 Fe309 1.918 . S
O310 Fe311 1.918 . S
Fe311 O310 1.918 . S
Fe311 O312 2.002 . S
Fe311 O321 1.976 . S
Fe311 O325 1.996 . S
Fe311 O328 1.997 . S
O312 Fe311 2.002 . S
O312 C329 1.295 . S
O313 Fe308 1.997 . S
O313 C329 1.235 . S
O314 Fe308 2.002 . S
O314 C315 1.295 . S
C315 O314 1.295 . S
C315 O317 1.235 . S
C316 O321 1.287 . S
C316 O322 1.255 . S
O317 Fe309 1.997 . S
O317 C315 1.235 . S
C318 O324 1.287 . S
C318 O325 1.255 . S
O319 Fe308 1.976 . S
O319 C326 1.287 1_545 S
O320 Fe309 1.996 . S
O320 C326 1.255 1_545 S
O321 Fe311 1.976 . S
O321 C316 1.287 . S
O322 Fe308 1.996 . S
O322 C316 1.255 . S
C323 O327 1.295 . S
C323 O328 1.235 . S
O324 Fe309 1.976 . S
O324 C318 1.287 . S
O325 Fe311 1.996 . S
O325 C318 1.255 . S
C326 O319 1.287 1_565 S
C326 O320 1.255 1_565 S
O327 Fe309 2.002 . S
O327 C323 1.295 . S
O328 Fe311 1.997 . S
O328 C323 1.235 . S
C329 O312 1.295 . S
C329 O313 1.235 . S
Fe330 O332 1.918 . S
Fe330 O335 1.997 . S
Fe330 O336 2.002 . S
Fe330 O341 1.976 . S
Fe330 O344 1.996 . S
Fe331 O332 1.918 . S
Fe331 O339 1.997 . S
Fe331 O342 1.996 . S
Fe331 O346 1.976 . S
Fe331 O349 2.002 . S
O332 Fe330 1.918 . S
O332 Fe331 1.918 . S
O332 Fe333 1.918 . S
Fe333 O332 1.918 . S
Fe333 O334 2.002 . S
Fe333 O343 1.976 . S
Fe333 O347 1.996 . S
Fe333 O350 1.997 . S
O334 Fe333 2.002 . S
O334 C351 1.295 . S
O335 Fe330 1.997 . S
O335 C351 1.235 . S
O336 Fe330 2.002 . S
O336 C337 1.295 . S
C337 O336 1.295 . S
C337 O339 1.235 . S
C338 O343 1.287 . S
C338 O344 1.255 . S
O339 Fe331 1.997 . S
O339 C337 1.235 . S
C340 O346 1.287 . S
C340 O347 1.255 . S
O341 Fe330 1.976 . S
O341 C348 1.287 . S
O342 Fe331 1.996 . S
O342 C348 1.255 . S
O343 Fe333 1.976 . S
O343 C338 1.287 . S
O344 Fe330 1.996 . S
O344 C338 1.255 . S
C345 O349 1.295 . S
C345 O350 1.235 . S
O346 Fe331 1.976 . S
O346 C340 1.287 . S
O347 Fe333 1.996 . S
O347 C340 1.255 . S
C348 O341 1.287 . S
C348 O342 1.255 . S
O349 Fe331 2.002 . S
O349 C345 1.295 . S
O350 Fe333 1.997 . S
O350 C345 1.235 . S
C351 O334 1.295 . S
C351 O335 1.235 . S
C352 O379 1.312 . S
C352 O380 1.208 . S
C353 O374 1.331 1_554 S
C353 O377 1.244 1_554 S
C354 O376 1.264 . S
C354 O378 1.273 . S
Mg355 O357 1.936 1_455 S
Mg355 O364 2.081 1_455 S
Mg355 O366 2.023 . S
Mg355 O370 2.042 . S
Mg355 O379 2.291 . S
Mg356 O357 1.963 . S
Mg356 O367 1.942 . S
Mg356 O368 1.955 1_655 S
Mg356 O375 1.986 . S
O357 Mg355 1.936 1_655 S
O357 Mg356 1.963 . S
O357 Mg358 1.915 . S
Mg358 O357 1.915 . S
Mg358 O359 1.915 1_655 S
Mg358 O363 2.013 1_655 S
Mg358 O369 2.114 . S
Mg358 O373 2.013 . S
Mg358 O379 2.114 1_655 S
O359 Mg358 1.915 1_455 S
O359 Mg360 1.936 . S
O359 Mg361 1.963 1_455 S
Mg360 O359 1.936 . S
Mg360 O369 2.291 1_455 S
Mg360 O374 2.081 . S
Mg360 O376 2.023 1_455 S
Mg360 O380 2.031 . S
Mg361 O359 1.963 1_655 S
Mg361 O365 1.986 1_655 S
Mg361 O377 1.942 1_655 S
Mg361 O378 1.955 . S
C362 O373 1.191 . S
C362 O375 1.307 . S
O363 Mg358 2.013 1_455 S
O363 C382 1.191 . S
O364 Mg355 2.081 1_655 S
O364 C372 1.331 . S
O365 Mg361 1.986 1_455 S
O365 C382 1.307 . S
O366 Mg355 2.023 . S
O366 C381 1.264 . S
O367 Mg356 1.942 . S
O367 C372 1.244 . S
O368 Mg356 1.955 1_455 S
O368 C381 1.273 . S
O369 Mg358 2.114 . S
O369 Mg360 2.291 1_655 S
O369 C371 1.312 . S
O370 Mg355 2.042 . S
O370 C371 1.198 1_455 S
C371 O369 1.312 . S
C371 O370 1.198 1_655 S
C372 O364 1.331 . S
C372 O367 1.244 . S
O373 Mg358 2.013 . S
O373 C362 1.191 . S
O374 C353 1.331 1_556 S
O374 Mg360 2.081 . S
O375 Mg356 1.986 . S
O375 C362 1.307 . S
O376 C354 1.264 . S
O376 Mg360 2.023 1_655 S
O377 C353 1.244 1_556 S
O377 Mg361 1.942 1_455 S
O378 C354 1.273 . S
O378 Mg361 1.955 . S
O379 C352 1.312 . S
O379 Mg355 2.291 . S
O379 Mg358 2.114 1_455 S
O380 C352 1.208 . S
O380 Mg360 2.031 . S
C381 O366 1.264 . S
C381 O368 1.273 . S
C382 O363 1.191 . S
C382 O365 1.307 . S
C383 O410 1.312 . S
C383 O411 1.208 . S
C384 O405 1.331 . S
C384 O408 1.244 . S
C385 O407 1.264 . S
C385 O409 1.273 . S
Mg386 O388 1.936 . S
Mg386 O395 2.081 . S
Mg386 O397 2.023 . S
Mg386 O401 2.031 . S
Mg386 O410 2.291 . S
Mg387 O388 1.963 . S
Mg387 O398 1.942 . S
Mg387 O399 1.955 . S
Mg387 O406 1.986 . S
O388 Mg386 1.936 . S
O388 Mg387 1.963 . S
O388 Mg389 1.915 . S
Mg389 O388 1.915 . S
Mg389 O390 1.915 . S
Mg389 O394 2.013 . S
Mg389 O400 2.114 . S
Mg389 O404 2.013 . S
Mg389 O410 2.114 . S
O390 Mg389 1.915 . S
O390 Mg391 1.936 . S
O390 Mg392 1.963 . S
Mg391 O390 1.936 . S
Mg391 O400 2.291 . S
Mg391 O405 2.081 . S
Mg391 O407 2.023 . S
Mg391 O411 2.031 . S
Mg392 O390 1.963 . S
Mg392 O396 1.986 . S
Mg392 O408 1.942 . S
Mg392 O409 1.955 . S
C393 O404 1.191 . S
C393 O406 1.307 . S
O394 Mg389 2.013 . S
O394 C413 1.191 . S
O395 Mg386 2.081 . S
O395 C403 1.331 . S
O396 Mg392 1.986 . S
O396 C413 1.307 . S
O397 Mg386 2.023 . S
O397 C412 1.264 . S
O398 Mg387 1.942 . S
O398 C403 1.244 . S
O399 Mg387 1.955 . S
O399 C412 1.273 . S
O400 Mg389 2.114 . S
O400 Mg391 2.291 . S
O400 C402 1.312 . S
O401 Mg386 2.031 . S
O401 C402 1.208 . S
C402 O400 1.312 . S
C402 O401 1.208 . S
C403 O395 1.331 . S
C403 O398 1.244 . S
O404 Mg389 2.013 . S
O404 C393 1.191 . S
O405 C384 1.331 . S
O405 Mg391 2.081 . S
O406 Mg387 1.986 . S
O406 C393 1.307 . S
O407 C385 1.264 . S
O407 Mg391 2.023 . S
O408 C384 1.244 . S
O408 Mg392 1.942 . S
O409 C385 1.273 . S
O409 Mg392 1.955 . S
O410 C383 1.312 . S
O410 Mg386 2.291 . S
O410 Mg389 2.114 . S
O411 C383 1.208 . S
O411 Mg391 2.031 . S
C412 O397 1.264 . S
C412 O399 1.273 . S
C413 O394 1.191 . S
C413 O396 1.307 . S
C414 O441 1.312 . S
C414 O442 1.204 1_655 S
C415 O436 1.331 . S
C415 O439 1.244 . S
C416 O438 1.264 . S
C416 O440 1.273 . S
Mg417 O419 1.936 . S
Mg417 O426 2.081 . S
Mg417 O428 2.023 1_455 S
Mg417 O432 2.031 . S
Mg417 O441 2.291 1_455 S
Mg418 O419 1.963 1_655 S
Mg418 O429 1.942 1_655 S
Mg418 O430 1.955 . S
Mg418 O437 1.986 1_655 S
O419 Mg417 1.936 . S
O419 Mg418 1.963 1_455 S
O419 Mg420 1.915 1_455 S
Mg420 O419 1.915 1_655 S
Mg420 O421 1.915 . S
Mg420 O425 2.013 . S
Mg420 O431 2.114 1_655 S
Mg420 O435 2.013 1_655 S
Mg420 O441 2.114 . S
O421 Mg420 1.915 . S
O421 Mg422 1.936 1_655 S
O421 Mg423 1.963 . S
Mg422 O421 1.936 1_455 S
Mg422 O431 2.291 . S
Mg422 O436 2.081 1_455 S
Mg422 O438 2.023 . S
Mg422 O442 2.035 . S
Mg423 O421 1.963 . S
Mg423 O427 1.986 . S
Mg423 O439 1.942 . S
Mg423 O440 1.955 1_655 S
C424 O435 1.191 . S
C424 O437 1.307 . S
O425 Mg420 2.013 . S
O425 C444 1.191 . S
O426 Mg417 2.081 . S
O426 C434 1.331 . S
O427 Mg423 1.986 . S
O427 C444 1.307 . S
O428 Mg417 2.023 1_655 S
O428 C443 1.264 . S
O429 Mg418 1.942 1_455 S
O429 C434 1.244 . S
O430 Mg418 1.955 . S
O430 C443 1.273 . S
O431 Mg420 2.114 1_455 S
O431 Mg422 2.291 . S
O431 C433 1.312 . S
O432 Mg417 2.031 . S
O432 C433 1.208 . S
C433 O431 1.312 . S
C433 O432 1.208 . S
C434 O426 1.331 . S
C434 O429 1.244 . S
O435 Mg420 2.013 1_455 S
O435 C424 1.191 . S
O436 C415 1.331 . S
O436 Mg422 2.081 1_655 S
O437 Mg418 1.986 1_455 S
O437 C424 1.307 . S
O438 C416 1.264 . S
O438 Mg422 2.023 . S
O439 C415 1.244 . S
O439 Mg423 1.942 . S
O440 C416 1.273 . S
O440 Mg423 1.955 1_455 S
O441 C414 1.312 . S
O441 Mg417 2.291 1_655 S
O441 Mg420 2.114 . S
O442 C414 1.204 1_455 S
O442 Mg422 2.035 . S
C443 O428 1.264 . S
C443 O430 1.273 . S
C444 O425 1.191 . S
C444 O427 1.307 . S
C445 O472 1.312 . S
C445 O473 1.201 1_565 S
C446 O467 1.331 . S
C446 O470 1.244 . S
C447 O469 1.264 . S
C447 O471 1.273 . S
Mg448 O450 1.936 . S
Mg448 O457 2.081 . S
Mg448 O459 2.023 1_545 S
Mg448 O463 2.031 . S
Mg448 O472 2.291 1_545 S
Mg449 O450 1.963 1_565 S
Mg449 O460 1.942 1_565 S
Mg449 O461 1.955 . S
Mg449 O468 1.986 1_565 S
O450 Mg448 1.936 . S
O450 Mg449 1.963 1_545 S
O450 Mg451 1.915 1_545 S
Mg451 O450 1.915 1_565 S
Mg451 O452 1.915 . S
Mg451 O456 2.013 . S
Mg451 O462 2.114 1_565 S
Mg451 O466 2.013 1_565 S
Mg451 O472 2.114 . S
O452 Mg451 1.915 . S
O452 Mg453 1.936 1_565 S
O452 Mg454 1.963 . S
Mg453 O452 1.936 1_545 S
Mg453 O462 2.291 . S
Mg453 O467 2.081 1_545 S
Mg453 O469 2.023 . S
Mg453 O473 2.039 . S
Mg454 O452 1.963 . S
Mg454 O458 1.986 . S
Mg454 O470 1.942 . S
Mg454 O471 1.955 1_565 S
C455 O466 1.191 . S
C455 O468 1.307 . S
O456 Mg451 2.013 . S
O456 C475 1.191 . S
O457 Mg448 2.081 . S
O457 C465 1.327 1_655 S
O458 Mg454 1.986 . S
O458 C475 1.307 . S
O459 Mg448 2.023 1_565 S
O459 C474 1.264 . S
O460 Mg449 1.942 1_545 S
O460 C465 1.242 1_655 S
O461 Mg449 1.955 . S
O461 C474 1.273 . S
O462 Mg451 2.114 1_545 S
O462 Mg453 2.291 . S
O462 C464 1.312 . S
O463 Mg448 2.031 . S
O463 C464 1.208 . S
C464 O462 1.312 . S
C464 O463 1.208 . S
C465 O457 1.327 1_455 S
C465 O460 1.242 1_455 S
O466 Mg451 2.013 1_545 S
O466 C455 1.191 . S
O467 C446 1.331 . S
O467 Mg453 2.081 1_565 S
O468 Mg449 1.986 1_545 S
O468 C455 1.307 . S
O469 C447 1.264 . S
O469 Mg453 2.023 . S
O470 C446 1.244 . S
O470 Mg454 1.942 . S
O471 C447 1.273 . S
O471 Mg454 1.955 1_545 S
O472 C445 1.312 . S
O472 Mg448 2.291 1_565 S
O472 Mg451 2.114 . S
O473 C445 1.201 1_545 S
O473 Mg453 2.039 . S
C474 O459 1.264 . S
C474 O461 1.273 . S
C475 O456 1.191 . S
C475 O458 1.307 . S
C476 O503 1.312 . S
C476 O504 1.208 . S
C477 O498 1.327 1_545 S
C477 O501 1.242 1_545 S
C478 O500 1.264 . S
C478 O502 1.273 . S
Mg479 O481 1.936 1_554 S
Mg479 O488 2.081 1_554 S
Mg479 O490 2.023 . S
Mg479 O494 2.036 . S
Mg479 O503 2.291 . S
Mg480 O481 1.963 . S
Mg480 O491 1.942 . S
Mg480 O492 1.955 1_556 S
Mg480 O499 1.986 . S
O481 Mg479 1.936 1_556 S
O481 Mg480 1.963 . S
O481 Mg482 1.915 . S
Mg482 O481 1.915 . S
Mg482 O483 1.915 1_556 S
Mg482 O487 2.013 1_556 S
Mg482 O493 2.114 . S
Mg482 O497 2.013 . S
Mg482 O503 2.114 1_556 S
O483 Mg482 1.915 1_554 S
O483 Mg484 1.936 . S
O483 Mg485 1.963 1_554 S
Mg484 O483 1.936 . S
Mg484 O493 2.291 1_554 S
Mg484 O498 2.081 . S
Mg484 O500 2.023 1_554 S
Mg484 O504 2.031 . S
Mg485 O483 1.963 1_556 S
Mg485 O489 1.986 1_556 S
Mg485 O501 1.942 1_556 S
Mg485 O502 1.955 . S
C486 O497 1.191 . S
C486 O499 1.307 . S
O487 Mg482 2.013 1_554 S
O487 C506 1.191 . S
O488 Mg479 2.081 1_556 S
O488 C496 1.331 . S
O489 Mg485 1.986 1_554 S
O489 C506 1.307 . S
O490 Mg479 2.023 . S
O490 C505 1.264 . S
O491 Mg480 1.942 . S
O491 C496 1.244 . S
O492 Mg480 1.955 1_554 S
O492 C505 1.273 . S
O493 Mg482 2.114 . S
O493 Mg484 2.291 1_556 S
O493 C495 1.312 . S
O494 Mg479 2.036 . S
O494 C495 1.203 1_554 S
C495 O493 1.312 . S
C495 O494 1.203 1_556 S
C496 O488 1.331 . S
C496 O491 1.244 . S
O497 Mg482 2.013 . S
O497 C486 1.191 . S
O498 C477 1.327 1_565 S
O498 Mg484 2.081 . S
O499 Mg480 1.986 . S
O499 C486 1.307 . S
O500 C478 1.264 . S
O500 Mg484 2.023 1_556 S
O501 C477 1.242 1_565 S
O501 Mg485 1.942 1_554 S
O502 C478 1.273 . S
O502 Mg485 1.955 . S
O503 C476 1.312 . S
O503 Mg479 2.291 . S
O503 Mg482 2.114 1_554 S
O504 C476 1.208 . S
O504 Mg484 2.031 . S
C505 O490 1.264 . S
C505 O492 1.273 . S
C506 O487 1.191 . S
C506 O489 1.307 . S
C507 O534 1.312 . S
C507 O535 1.208 . S
C508 O529 1.333 . S
C508 O532 1.246 . S
C509 O531 1.264 . S
C509 O533 1.273 . S
Mg510 O512 1.936 . S
Mg510 O519 2.081 . S
Mg510 O521 2.023 . S
Mg510 O525 2.031 . S
Mg510 O534 2.291 . S
Mg511 O512 1.963 . S
Mg511 O522 1.942 . S
Mg511 O523 1.955 . S
Mg511 O530 1.986 . S
O512 Mg510 1.936 . S
O512 Mg511 1.963 . S
O512 Mg513 1.915 . S
Mg513 O512 1.915 . S
Mg513 O514 1.915 . S
Mg513 O518 2.013 . S
Mg513 O524 2.114 . S
Mg513 O528 2.013 . S
Mg513 O534 2.114 . S
O514 Mg513 1.915 . S
O514 Mg515 1.936 . S
O514 Mg516 1.963 . S
Mg515 O514 1.936 . S
Mg515 O524 2.291 . S
Mg515 O529 2.081 . S
Mg515 O531 2.023 . S
Mg515 O535 2.031 . S
Mg516 O514 1.963 . S
Mg516 O520 1.986 . S
Mg516 O532 1.942 . S
Mg516 O533 1.955 . S
C517 O528 1.191 . S
C517 O530 1.307 . S
O518 Mg513 2.013 . S
O518 C537 1.191 . S
O519 Mg510 2.081 . S
O519 C527 1.331 . S
O520 Mg516 1.986 . S
O520 C537 1.307 . S
O521 Mg510 2.023 . S
O521 C536 1.264 . S
O522 Mg511 1.942 . S
O522 C527 1.244 . S
O523 Mg511 1.955 . S
O523 C536 1.273 . S
O524 Mg513 2.114 . S
O524 Mg515 2.291 . S
O524 C526 1.312 . S
O525 Mg510 2.031 . S
O525 C526 1.208 . S
C526 O524 1.312 . S
C526 O525 1.208 . S
C527 O519 1.331 . S
C527 O522 1.244 . S
O528 Mg513 2.013 . S
O528 C517 1.191 . S
O529 C508 1.333 . S
O529 Mg515 2.081 . S
O530 Mg511 1.986 . S
O530 C517 1.307 . S
O531 C509 1.264 . S
O531 Mg515 2.023 . S
O532 C508 1.246 . S
O532 Mg516 1.942 . S
O533 C509 1.273 . S
O533 Mg516 1.955 . S
O534 C507 1.312 . S
O534 Mg510 2.291 . S
O534 Mg513 2.114 . S
O535 C507 1.208 . S
O535 Mg515 2.031 . S
C536 O521 1.264 . S
C536 O523 1.273 . S
C537 O518 1.191 . S
C537 O520 1.307 . S
C538 O565 1.312 . S
C538 O566 1.208 . S
C539 O560 1.331 . S
C539 O563 1.244 . S
C540 O562 1.264 . S
C540 O564 1.273 . S
Mg541 O543 1.936 . S
Mg541 O550 2.081 . S
Mg541 O552 2.023 1_556 S
Mg541 O556 2.031 . S
Mg541 O565 2.291 1_556 S
Mg542 O543 1.963 1_554 S
Mg542 O553 1.942 1_554 S
Mg542 O554 1.955 . S
Mg542 O561 1.986 1_554 S
O543 Mg541 1.936 . S
O543 Mg542 1.963 1_556 S
O543 Mg544 1.915 1_556 S
Mg544 O543 1.915 1_554 S
Mg544 O545 1.915 . S
Mg544 O549 2.013 . S
Mg544 O555 2.114 1_554 S
Mg544 O559 2.013 1_554 S
Mg544 O565 2.114 . S
O545 Mg544 1.915 . S
O545 Mg546 1.936 1_554 S
O545 Mg547 1.963 . S
Mg546 O545 1.936 1_556 S
Mg546 O555 2.291 . S
Mg546 O560 2.081 1_556 S
Mg546 O562 2.023 . S
Mg546 O566 2.031 1_556 S
Mg547 O545 1.963 . S
Mg547 O551 1.986 . S
Mg547 O563 1.942 . S
Mg547 O564 1.955 1_554 S
C548 O559 1.191 . S
C548 O561 1.307 . S
O549 Mg544 2.013 . S
O549 C568 1.191 . S
O550 Mg541 2.081 . S
O550 C558 1.331 . S
O551 Mg547 1.986 . S
O551 C568 1.307 . S
O552 Mg541 2.023 1_554 S
O552 C567 1.264 . S
O553 Mg542 1.942 1_556 S
O553 C558 1.244 . S
O554 Mg542 1.955 . S
O554 C567 1.273 . S
O555 Mg544 2.114 1_556 S
O555 Mg546 2.291 . S
O555 C557 1.312 . S
O556 Mg541 2.031 . S
O556 C557 1.208 . S
C557 O555 1.312 . S
C557 O556 1.208 . S
C558 O550 1.331 . S
C558 O553 1.244 . S
O559 Mg544 2.013 1_556 S
O559 C548 1.191 . S
O560 C539 1.331 . S
O560 Mg546 2.081 1_554 S
O561 Mg542 1.986 1_556 S
O561 C548 1.307 . S
O562 C540 1.264 . S
O562 Mg546 2.023 . S
O563 C539 1.244 . S
O563 Mg547 1.942 . S
O564 C540 1.273 . S
O564 Mg547 1.955 1_556 S
O565 C538 1.312 . S
O565 Mg541 2.291 1_554 S
O565 Mg544 2.114 . S
O566 C538 1.208 . S
O566 Mg546 2.031 1_554 S
C567 O552 1.264 . S
C567 O554 1.273 . S
C568 O549 1.191 . S
C568 O551 1.307 . S
C569 O596 1.312 . S
C569 O597 1.208 . S
C570 O591 1.331 . S
C570 O594 1.244 . S
C571 O593 1.264 . S
C571 O595 1.273 . S
Mg572 O574 1.936 . S
Mg572 O581 2.081 . S
Mg572 O583 2.023 . S
Mg572 O587 2.031 . S
Mg572 O596 2.291 . S
Mg573 O574 1.963 . S
Mg573 O584 1.942 . S
Mg573 O585 1.955 . S
Mg573 O592 1.986 . S
O574 Mg572 1.936 . S
O574 Mg573 1.963 . S
O574 Mg575 1.915 . S
Mg575 O574 1.915 . S
Mg575 O576 1.915 . S
Mg575 O580 2.013 . S
Mg575 O586 2.114 . S
Mg575 O590 2.013 . S
Mg575 O596 2.114 . S
O576 Mg575 1.915 . S
O576 Mg577 1.936 . S
O576 Mg578 1.963 . S
Mg577 O576 1.936 . S
Mg577 O586 2.291 . S
Mg577 O591 2.081 . S
Mg577 O593 2.023 . S
Mg577 O597 2.031 . S
Mg578 O576 1.963 . S
Mg578 O582 1.986 . S
Mg578 O594 1.942 . S
Mg578 O595 1.955 . S
C579 O590 1.191 . S
C579 O592 1.307 . S
O580 Mg575 2.013 . S
O580 C599 1.191 . S
O581 Mg572 2.081 . S
O581 C589 1.331 . S
O582 Mg578 1.986 . S
O582 C599 1.307 . S
O583 Mg572 2.023 . S
O583 C598 1.264 . S
O584 Mg573 1.942 . S
O584 C589 1.244 . S
O585 Mg573 1.955 . S
O585 C598 1.273 . S
O586 Mg575 2.114 . S
O586 Mg577 2.291 . S
O586 C588 1.312 . S
O587 Mg572 2.031 . S
O587 C588 1.208 . S
C588 O586 1.312 . S
C588 O587 1.208 . S
C589 O581 1.331 . S
C589 O584 1.244 . S
O590 Mg575 2.013 . S
O590 C579 1.191 . S
O591 C570 1.331 . S
O591 Mg577 2.081 . S
O592 Mg573 1.986 . S
O592 C579 1.307 . S
O593 C571 1.264 . S
O593 Mg577 2.023 . S
O594 C570 1.244 . S
O594 Mg578 1.942 . S
O595 C571 1.273 . S
O595 Mg578 1.955 . S
O596 C569 1.312 . S
O596 Mg572 2.291 . S
O596 Mg575 2.114 . S
O597 C569 1.208 . S
O597 Mg577 2.031 . S
C598 O583 1.264 . S
C598 O585 1.273 . S
C599 O580 1.191 . S
C599 O582 1.307 . S
C600 O627 1.312 . S
C600 O628 1.208 . S
C601 O622 1.331 . S
C601 O625 1.244 . S
C602 O624 1.264 . S
C602 O626 1.273 . S
Mg603 O605 1.936 . S
Mg603 O612 2.081 . S
Mg603 O614 2.023 . S
Mg603 O618 2.031 . S
Mg603 O627 2.291 . S
Mg604 O605 1.963 . S
Mg604 O615 1.942 . S
Mg604 O616 1.955 . S
Mg604 O623 1.986 . S
O605 Mg603 1.936 . S
O605 Mg604 1.963 . S
O605 Mg606 1.915 . S
Mg606 O605 1.915 . S
Mg606 O607 1.915 . S
Mg606 O611 2.013 . S
Mg606 O617 2.114 . S
Mg606 O621 2.013 . S
Mg606 O627 2.114 . S
O607 Mg606 1.915 . S
O607 Mg608 1.936 . S
O607 Mg609 1.963 . S
Mg608 O607 1.936 . S
Mg608 O617 2.291 . S
Mg608 O622 2.081 . S
Mg608 O624 2.023 . S
Mg608 O628 2.031 . S
Mg609 O607 1.963 . S
Mg609 O613 1.986 . S
Mg609 O625 1.942 . S
Mg609 O626 1.955 . S
C610 O621 1.191 . S
C610 O623 1.307 . S
O611 Mg606 2.013 . S
O611 C630 1.191 . S
O612 Mg603 2.081 . S
O612 C620 1.331 . S
O613 Mg609 1.986 . S
O613 C630 1.307 . S
O614 Mg603 2.023 . S
O614 C629 1.264 . S
O615 Mg604 1.942 . S
O615 C620 1.244 . S
O616 Mg604 1.955 . S
O616 C629 1.273 . S
O617 Mg606 2.114 . S
O617 Mg608 2.291 . S
O617 C619 1.312 . S
O618 Mg603 2.031 . S
O618 C619 1.208 . S
C619 O617 1.312 . S
C619 O618 1.208 . S
C620 O612 1.331 . S
C620 O615 1.244 . S
O621 Mg606 2.013 . S
O621 C610 1.191 . S
O622 C601 1.331 . S
O622 Mg608 2.081 . S
O623 Mg604 1.986 . S
O623 C610 1.307 . S
O624 C602 1.264 . S
O624 Mg608 2.023 . S
O625 C601 1.244 . S
O625 Mg609 1.942 . S
O626 C602 1.273 . S
O626 Mg609 1.955 . S
O627 C600 1.312 . S
O627 Mg603 2.291 . S
O627 Mg606 2.114 . S
O628 C600 1.208 . S
O628 Mg608 2.031 . S
C629 O614 1.264 . S
C629 O616 1.273 . S
C630 O611 1.191 . S
C630 O613 1.307 . S
C631 O658 1.312 . S
C631 O659 1.208 . S
C632 O653 1.331 . S
C632 O656 1.244 . S
C633 O655 1.264 . S
C633 O657 1.273 . S
Mg634 O636 1.936 . S
Mg634 O643 2.081 . S
Mg634 O645 2.023 . S
Mg634 O649 2.031 . S
Mg634 O658 2.291 . S
Mg635 O636 1.963 . S
Mg635 O646 1.942 . S
Mg635 O647 1.955 . S
Mg635 O654 1.986 . S
O636 Mg634 1.936 . S
O636 Mg635 1.963 . S
O636 Mg637 1.915 . S
Mg637 O636 1.915 . S
Mg637 O638 1.915 . S
Mg637 O642 2.013 . S
Mg637 O648 2.114 . S
Mg637 O652 2.013 . S
Mg637 O658 2.114 . S
O638 Mg637 1.915 . S
O638 Mg639 1.936 . S
O638 Mg640 1.963 . S
Mg639 O638 1.936 . S
Mg639 O648 2.291 . S
Mg639 O653 2.081 . S
Mg639 O655 2.023 . S
Mg639 O659 2.031 . S
Mg640 O638 1.963 . S
Mg640 O644 1.986 . S
Mg640 O656 1.942 . S
Mg640 O657 1.955 . S
C641 O652 1.191 . S
C641 O654 1.307 . S
O642 Mg637 2.013 . S
O642 C661 1.191 . S
O643 Mg634 2.081 . S
O643 C651 1.331 . S
O644 Mg640 1.986 . S
O644 C661 1.307 . S
O645 Mg634 2.023 . S
O645 C660 1.264 . S
O646 Mg635 1.942 . S
O646 C651 1.244 . S
O647 Mg635 1.955 . S
O647 C660 1.273 . S
O648 Mg637 2.114 . S
O648 Mg639 2.291 . S
O648 C650 1.312 . S
O649 Mg634 2.031 . S
O649 C650 1.208 . S
C650 O648 1.312 . S
C650 O649 1.208 . S
C651 O643 1.331 . S
C651 O646 1.244 . S
O652 Mg637 2.013 . S
O652 C641 1.191 . S
O653 C632 1.331 . S
O653 Mg639 2.081 . S
O654 Mg635 1.986 . S
O654 C641 1.307 . S
O655 C633 1.264 . S
O655 Mg639 2.023 . S
O656 C632 1.244 . S
O656 Mg640 1.942 . S
O657 C633 1.273 . S
O657 Mg640 1.955 . S
O658 C631 1.312 . S
O658 Mg634 2.291 . S
O658 Mg637 2.114 . S
O659 C631 1.208 . S
O659 Mg639 2.031 . S
C660 O645 1.264 . S
C660 O647 1.273 . S
C661 O642 1.191 . S
C661 O644 1.307 . S
C662 O689 1.312 . S
C662 O690 1.208 . S
C663 O684 1.331 . S
C663 O687 1.244 . S
C664 O686 1.264 . S
C664 O688 1.273 . S
Mg665 O667 1.936 . S
Mg665 O674 2.081 . S
Mg665 O676 2.023 1_565 S
Mg665 O680 2.031 . S
Mg665 O689 2.291 1_565 S
Mg666 O667 1.963 1_545 S
Mg666 O677 1.942 1_545 S
Mg666 O678 1.955 . S
Mg666 O685 1.986 1_545 S
O667 Mg665 1.936 . S
O667 Mg666 1.963 1_565 S
O667 Mg668 1.915 1_565 S
Mg668 O667 1.915 1_545 S
Mg668 O669 1.915 . S
Mg668 O673 2.013 . S
Mg668 O679 2.114 1_545 S
Mg668 O683 2.013 1_545 S
Mg668 O689 2.114 . S
O669 Mg668 1.915 . S
O669 Mg670 1.936 1_545 S
O669 Mg671 1.963 . S
Mg670 O669 1.936 1_565 S
Mg670 O679 2.291 . S
Mg670 O684 2.081 1_565 S
Mg670 O686 2.023 . S
Mg670 O690 2.031 1_565 S
Mg671 O669 1.963 . S
Mg671 O675 1.986 . S
Mg671 O687 1.942 . S
Mg671 O688 1.955 1_545 S
C672 O683 1.191 . S
C672 O685 1.307 . S
O673 Mg668 2.013 . S
O673 C692 1.191 . S
O674 Mg665 2.081 . S
O674 C682 1.331 . S
O675 Mg671 1.986 . S
O675 C692 1.307 . S
O676 Mg665 2.023 1_545 S
O676 C691 1.264 . S
O677 Mg666 1.942 1_565 S
O677 C682 1.244 . S
O678 Mg666 1.955 . S
O678 C691 1.273 . S
O679 Mg668 2.114 1_565 S
O679 Mg670 2.291 . S
O679 C681 1.312 . S
O680 Mg665 2.031 . S
O680 C681 1.208 . S
C681 O679 1.312 . S
C681 O680 1.208 . S
C682 O674 1.331 . S
C682 O677 1.244 . S
O683 Mg668 2.013 1_565 S
O683 C672 1.191 . S
O684 C663 1.331 . S
O684 Mg670 2.081 1_545 S
O685 Mg666 1.986 1_565 S
O685 C672 1.307 . S
O686 C664 1.264 . S
O686 Mg670 2.023 . S
O687 C663 1.244 . S
O687 Mg671 1.942 . S
O688 C664 1.273 . S
O688 Mg671 1.955 1_565 S
O689 C662 1.312 . S
O689 Mg665 2.291 1_545 S
O689 Mg668 2.114 . S
O690 C662 1.208 . S
O690 Mg670 2.031 1_545 S
C691 O676 1.264 . S
C691 O678 1.273 . S
C692 O673 1.191 . S
C692 O675 1.307 . S
C693 O720 1.312 . S
C693 O721 1.208 . S
C694 O715 1.331 . S
C694 O718 1.244 . S
C695 O717 1.264 . S
C695 O719 1.273 . S
Mg696 O698 1.936 . S
Mg696 O705 2.081 . S
Mg696 O707 2.023 . S
Mg696 O711 2.031 . S
Mg696 O720 2.291 . S
Mg697 O698 1.963 . S
Mg697 O708 1.942 . S
Mg697 O709 1.955 . S
Mg697 O716 1.986 . S
O698 Mg696 1.936 . S
O698 Mg697 1.963 . S
O698 Mg699 1.915 . S
Mg699 O698 1.915 . S
Mg699 O700 1.915 . S
Mg699 O704 2.013 . S
Mg699 O710 2.114 . S
Mg699 O714 2.013 . S
Mg699 O720 2.114 . S
O700 Mg699 1.915 . S
O700 Mg701 1.936 . S
O700 Mg702 1.963 . S
Mg701 O700 1.936 . S
Mg701 O710 2.291 . S
Mg701 O715 2.081 . S
Mg701 O717 2.023 . S
Mg701 O721 2.031 . S
Mg702 O700 1.963 . S
Mg702 O706 1.986 . S
Mg702 O718 1.942 . S
Mg702 O719 1.955 . S
C703 O714 1.191 . S
C703 O716 1.307 . S
O704 Mg699 2.013 . S
O704 C723 1.191 . S
O705 Mg696 2.081 . S
O705 C713 1.331 . S
O706 Mg702 1.986 . S
O706 C723 1.307 . S
O707 Mg696 2.023 . S
O707 C722 1.264 . S
O708 Mg697 1.942 . S
O708 C713 1.244 . S
O709 Mg697 1.955 . S
O709 C722 1.273 . S
O710 Mg699 2.114 . S
O710 Mg701 2.291 . S
O710 C712 1.312 . S
O711 Mg696 2.031 . S
O711 C712 1.208 . S
C712 O710 1.312 . S
C712 O711 1.208 . S
C713 O705 1.331 . S
C713 O708 1.244 . S
O714 Mg699 2.013 . S
O714 C703 1.191 . S
O715 C694 1.331 . S
O715 Mg701 2.081 . S
O716 Mg697 1.986 . S
O716 C703 1.307 . S
O717 C695 1.264 . S
O717 Mg701 2.023 . S
O718 C694 1.244 . S
O718 Mg702 1.942 . S
O719 C695 1.273 . S
O719 Mg702 1.955 . S
O720 C693 1.312 . S
O720 Mg696 2.291 . S
O720 Mg699 2.114 . S
O721 C693 1.208 . S
O721 Mg701 2.031 . S
C722 O707 1.264 . S
C722 O709 1.273 . S
C723 O704 1.191 . S
C723 O706 1.307 . S
C724 C725 1.369 . S
C724 C726 1.419 . S
C724 H728 0.930 . S
C725 C724 1.369 . S
C725 C734 1.429 . S
C726 C724 1.419 . S
C726 C727 1.363 . S
C726 H729 0.929 . S
C727 C726 1.363 . S
C727 C733 1.428 . S
H728 C724 0.930 . S
H729 C726 0.929 . S
S730 N731 1.613 . S
S730 N732 1.610 . S
N731 S730 1.613 . S
N731 C734 1.350 . S
N732 S730 1.610 . S
N732 C733 1.351 . S
C733 C727 1.428 . S
C733 N732 1.351 . S
C733 C734 1.434 . S
C734 C725 1.429 . S
C734 N731 1.350 . S
C734 C733 1.434 . S
C735 C736 1.369 . S
C735 C737 1.419 . S
C735 H739 0.930 . S
C736 C735 1.369 . S
C736 C745 1.429 . S
C737 C735 1.419 . S
C737 C738 1.363 . S
C737 H740 0.929 . S
C738 C737 1.363 . S
C738 C744 1.428 . S
H739 C735 0.930 . S
H740 C737 0.929 . S
S741 N742 1.613 . S
S741 N743 1.610 . S
N742 S741 1.613 . S
N742 C745 1.350 . S
N743 S741 1.610 . S
N743 C744 1.351 . S
C744 C738 1.428 . S
C744 N743 1.351 . S
C744 C745 1.434 . S
C745 C736 1.429 . S
C745 N742 1.350 . S
C745 C744 1.434 . S
C746 C747 1.369 . S
C746 C748 1.419 . S
C746 H750 0.930 . S
C747 C746 1.369 . S
C747 C756 1.429 . S
C748 C746 1.419 . S
C748 C749 1.363 . S
C748 H751 0.929 . S
C749 C748 1.363 . S
C749 C755 1.428 . S
H750 C746 0.930 . S
H751 C748 0.929 . S
S752 N753 1.613 . S
S752 N754 1.610 . S
N753 S752 1.613 . S
N753 C756 1.350 . S
N754 S752 1.610 . S
N754 C755 1.351 . S
C755 C749 1.428 . S
C755 N754 1.351 . S
C755 C756 1.434 . S
C756 C747 1.429 . S
C756 N753 1.350 . S
C756 C755 1.434 . S
C757 C758 1.369 . S
C757 C759 1.419 . S
C757 H761 0.930 . S
C758 C757 1.369 . S
C758 C767 1.429 . S
C759 C757 1.419 . S
C759 C760 1.363 . S
C759 H762 0.929 . S
C760 C759 1.363 . S
C760 C766 1.428 . S
H761 C757 0.930 . S
H762 C759 0.929 . S
S763 N764 1.613 . S
S763 N765 1.610 . S
N764 S763 1.613 . S
N764 C767 1.350 . S
N765 S763 1.610 . S
N765 C766 1.351 . S
C766 C760 1.428 . S
C766 N765 1.351 . S
C766 C767 1.434 . S
C767 C758 1.429 . S
C767 N764 1.350 . S
C767 C766 1.434 . S
C768 C769 1.369 . S
C768 C770 1.419 . S
C768 H772 0.930 . S
C769 C768 1.369 . S
C769 C778 1.429 . S
C770 C768 1.419 . S
C770 C771 1.363 . S
C770 H773 0.929 . S
C771 C770 1.363 . S
C771 C777 1.428 . S
H772 C768 0.930 . S
H773 C770 0.929 . S
S774 N775 1.613 . S
S774 N776 1.610 . S
N775 S774 1.613 . S
N775 C778 1.350 . S
N776 S774 1.610 . S
N776 C777 1.351 . S
C777 C771 1.428 . S
C777 N776 1.351 . S
C777 C778 1.434 . S
C778 C769 1.429 . S
C778 N775 1.350 . S
C778 C777 1.434 . S
C779 C780 1.369 . S
C779 C781 1.419 . S
C779 H783 0.930 . S
C780 C779 1.369 . S
C780 C789 1.429 . S
C781 C779 1.419 . S
C781 C782 1.363 . S
C781 H784 0.929 . S
C782 C781 1.363 . S
C782 C788 1.428 . S
H783 C779 0.930 . S
H784 C781 0.929 . S
S785 N786 1.593 1_455 S
S785 N787 1.603 1_455 S
N786 S785 1.593 1_655 S
N786 C789 1.350 . S
N787 S785 1.603 1_655 S
N787 C788 1.351 . S
C788 C782 1.428 . S
C788 N787 1.351 . S
C788 C789 1.434 . S
C789 C780 1.429 . S
C789 N786 1.350 . S
C789 C788 1.434 . S
C790 C791 1.369 . S
C790 C792 1.419 . S
C790 H794 0.930 . S
C791 C790 1.369 . S
C791 C800 1.429 . S
C792 C790 1.419 . S
C792 C793 1.363 . S
C792 H795 0.929 . S
C793 C792 1.363 . S
C793 C799 1.428 . S
H794 C790 0.930 . S
H795 C792 0.929 . S
S796 N797 1.613 . S
S796 N798 1.610 . S
N797 S796 1.613 . S
N797 C800 1.350 . S
N798 S796 1.610 . S
N798 C799 1.351 . S
C799 C793 1.428 . S
C799 N798 1.351 . S
C799 C800 1.434 . S
C800 C791 1.429 . S
C800 N797 1.350 . S
C800 C799 1.434 . S
C801 C802 1.369 . S
C801 C803 1.419 . S
C801 H805 0.930 . S
C802 C801 1.369 . S
C802 C811 1.429 . S
C803 C801 1.419 . S
C803 C804 1.363 . S
C803 H806 0.929 . S
C804 C803 1.363 . S
C804 C810 1.428 . S
H805 C801 0.930 . S
H806 C803 0.929 . S
S807 N808 1.613 . S
S807 N809 1.610 . S
N808 S807 1.613 . S
N808 C811 1.350 . S
N809 S807 1.610 . S
N809 C810 1.351 . S
C810 C804 1.428 . S
C810 N809 1.351 . S
C810 C811 1.434 . S
C811 C802 1.429 . S
C811 N808 1.350 . S
C811 C810 1.434 . S
C812 C813 1.369 . S
C812 C814 1.419 . S
C812 H816 0.930 . S
C813 C812 1.369 . S
C813 C822 1.429 . S
C814 C812 1.419 . S
C814 C815 1.363 . S
C814 H817 0.929 . S
C815 C814 1.363 . S
C815 C821 1.428 . S
H816 C812 0.930 . S
H817 C814 0.929 . S
S818 N819 1.613 . S
S818 N820 1.610 . S
N819 S818 1.613 . S
N819 C822 1.350 . S
N820 S818 1.610 . S
N820 C821 1.351 . S
C821 C815 1.428 . S
C821 N820 1.351 . S
C821 C822 1.434 . S
C822 C813 1.429 . S
C822 N819 1.350 . S
C822 C821 1.434 . S
C823 C824 1.369 . S
C823 C825 1.419 . S
C823 H827 0.930 . S
C824 C823 1.369 . S
C824 C833 1.429 . S
C825 C823 1.419 . S
C825 C826 1.363 . S
C825 H828 0.929 . S
C826 C825 1.363 . S
C826 C832 1.428 . S
H827 C823 0.930 . S
H828 C825 0.929 . S
S829 N830 1.613 . S
S829 N831 1.610 . S
N830 S829 1.613 . S
N830 C833 1.350 . S
N831 S829 1.610 . S
N831 C832 1.351 . S
C832 C826 1.428 . S
C832 N831 1.351 . S
C832 C833 1.434 . S
C833 C824 1.429 . S
C833 N830 1.350 . S
C833 C832 1.434 . S
C834 C835 1.369 . S
C834 C836 1.419 . S
C834 H838 0.930 . S
C835 C834 1.369 . S
C835 C844 1.429 . S
C836 C834 1.419 . S
C836 C837 1.363 . S
C836 H839 0.929 . S
C837 C836 1.363 . S
C837 C843 1.428 . S
H838 C834 0.930 . S
H839 C836 0.929 . S
S840 N841 1.613 . S
S840 N842 1.610 . S
N841 S840 1.613 . S
N841 C844 1.350 . S
N842 S840 1.610 . S
N842 C843 1.351 . S
C843 C837 1.428 . S
C843 N842 1.351 . S
C843 C844 1.434 . S
C844 C835 1.429 . S
C844 N841 1.350 . S
C844 C843 1.434 . S
C845 C846 1.369 . S
C845 C847 1.419 . S
C845 H849 0.930 . S
C846 C845 1.369 . S
C846 C855 1.429 . S
C847 C845 1.419 . S
C847 C848 1.363 . S
C847 H850 0.929 . S
C848 C847 1.363 . S
C848 C854 1.428 . S
H849 C845 0.930 . S
H850 C847 0.929 . S
S851 N852 1.613 . S
S851 N853 1.610 . S
N852 S851 1.613 . S
N852 C855 1.350 . S
N853 S851 1.610 . S
N853 C854 1.351 . S
C854 C848 1.428 . S
C854 N853 1.351 . S
C854 C855 1.434 . S
C855 C846 1.429 . S
C855 N852 1.350 . S
C855 C854 1.434 . S
C856 C857 1.369 . S
C856 C858 1.419 . S
C856 H860 0.929 . S
C857 C856 1.369 . S
C857 C866 1.429 . S
C858 C856 1.419 . S
C858 C859 1.363 . S
C858 H861 0.929 . S
C859 C858 1.363 . S
C859 C865 1.428 . S
H860 C856 0.929 . S
H861 C858 0.929 . S
S862 N863 1.613 . S
S862 N864 1.610 . S
N863 S862 1.613 . S
N863 C866 1.350 . S
N864 S862 1.610 . S
N864 C865 1.351 . S
C865 C859 1.428 . S
C865 N864 1.351 . S
C865 C866 1.434 . S
C866 C857 1.429 . S
C866 N863 1.350 . S
C866 C865 1.434 . S
C867 C868 1.369 . S
C867 C869 1.419 . S
C867 H871 0.930 . S
C868 C867 1.369 . S
C868 C877 1.429 . S
C869 C867 1.419 . S
C869 C870 1.363 . S
C869 H872 0.929 . S
C870 C869 1.363 . S
C870 C876 1.428 . S
H871 C867 0.930 . S
H872 C869 0.929 . S
S873 N874 1.613 . S
S873 N875 1.610 . S
N874 S873 1.613 . S
N874 C877 1.350 . S
N875 S873 1.610 . S
N875 C876 1.351 . S
C876 C870 1.428 . S
C876 N875 1.351 . S
C876 C877 1.434 . S
C877 C868 1.429 . S
C877 N874 1.350 . S
C877 C876 1.434 . S
C878 C879 1.369 . S
C878 C880 1.419 . S
C878 H882 0.930 . S
C879 C878 1.369 . S
C879 C888 1.429 . S
C880 C878 1.419 . S
C880 C881 1.363 . S
C880 H883 0.929 . S
C881 C880 1.363 . S
C881 C887 1.428 . S
H882 C878 0.930 . S
H883 C880 0.929 . S
S884 N885 1.613 . S
S884 N886 1.610 . S
N885 S884 1.613 . S
N885 C888 1.350 . S
N886 S884 1.610 . S
N886 C887 1.351 . S
C887 C881 1.428 . S
C887 N886 1.351 . S
C887 C888 1.434 . S
C888 C879 1.429 . S
C888 N885 1.350 . S
C888 C887 1.434 . S
C889 C890 1.369 . S
C889 C891 1.419 . S
C889 H893 0.930 . S
C890 C889 1.369 . S
C890 C899 1.429 . S
C891 C889 1.419 . S
C891 C892 1.363 . S
C891 H894 0.929 . S
C892 C891 1.363 . S
C892 C898 1.428 . S
H893 C889 0.930 . S
H894 C891 0.929 . S
S895 N896 1.613 . S
S895 N897 1.610 . S
N896 S895 1.613 . S
N896 C899 1.350 . S
N897 S895 1.610 . S
N897 C898 1.351 . S
C898 C892 1.428 . S
C898 N897 1.351 . S
C898 C899 1.434 . S
C899 C890 1.429 . S
C899 N896 1.350 . S
C899 C898 1.434 . S
C900 C901 1.369 . S
C900 C902 1.419 . S
C900 H904 0.930 . S
C901 C900 1.369 . S
C901 C910 1.429 . S
C902 C900 1.419 . S
C902 C903 1.363 . S
C902 H905 0.929 . S
C903 C902 1.363 . S
C903 C909 1.428 . S
H904 C900 0.930 . S
H905 C902 0.929 . S
S906 N907 1.613 . S
S906 N908 1.610 . S
N907 S906 1.613 . S
N907 C910 1.350 . S
N908 S906 1.610 . S
N908 C909 1.351 . S
C909 C903 1.428 . S
C909 N908 1.351 . S
C909 C910 1.434 . S
C910 C901 1.429 . S
C910 N907 1.350 . S
C910 C909 1.434 . S
C911 C912 1.369 . S
C911 C913 1.419 . S
C911 H915 0.930 . S
C912 C911 1.369 . S
C912 C921 1.429 . S
C913 C911 1.419 . S
C913 C914 1.363 . S
C913 H916 0.929 . S
C914 C913 1.363 . S
C914 C920 1.428 . S
H915 C911 0.930 . S
H916 C913 0.929 . S
S917 N918 1.613 . S
S917 N919 1.610 . S
N918 S917 1.613 . S
N918 C921 1.350 . S
N919 S917 1.610 . S
N919 C920 1.351 . S
C920 C914 1.428 . S
C920 N919 1.351 . S
C920 C921 1.434 . S
C921 C912 1.429 . S
C921 N918 1.350 . S
C921 C920 1.434 . S
C922 C923 1.369 . S
C922 C924 1.419 . S
C922 H926 0.930 . S
C923 C922 1.369 . S
C923 C932 1.429 . S
C924 C922 1.419 . S
C924 C925 1.363 . S
C924 H927 0.929 . S
C925 C924 1.363 . S
C925 C931 1.428 . S
H926 C922 0.930 . S
H927 C924 0.929 . S
S928 N929 1.613 . S
S928 N930 1.610 . S
N929 S928 1.613 . S
N929 C932 1.350 . S
N930 S928 1.610 . S
N930 C931 1.351 . S
C931 C925 1.428 . S
C931 N930 1.351 . S
C931 C932 1.434 . S
C932 C923 1.429 . S
C932 N929 1.350 . S
C932 C931 1.434 . S
C933 C934 1.369 . S
C933 C935 1.419 . S
C933 H937 0.930 . S
C934 C933 1.369 . S
C934 C943 1.429 . S
C935 C933 1.419 . S
C935 C936 1.363 . S
C935 H938 0.929 . S
C936 C935 1.363 . S
C936 C942 1.428 . S
H937 C933 0.930 . S
H938 C935 0.929 . S
S939 N940 1.613 . S
S939 N941 1.610 . S
N940 S939 1.613 . S
N940 C943 1.350 . S
N941 S939 1.610 . S
N941 C942 1.351 . S
C942 C936 1.428 . S
C942 N941 1.351 . S
C942 C943 1.434 . S
C943 C934 1.429 . S
C943 N940 1.350 . S
C943 C942 1.434 . S
C944 C945 1.369 . S
C944 C946 1.419 . S
C944 H948 0.930 . S
C945 C944 1.369 . S
C945 C954 1.429 . S
C946 C944 1.419 . S
C946 C947 1.363 . S
C946 H949 0.929 . S
C947 C946 1.363 . S
C947 C953 1.428 . S
H948 C944 0.930 . S
H949 C946 0.929 . S
S950 N951 1.613 . S
S950 N952 1.610 . S
N951 S950 1.613 . S
N951 C954 1.350 . S
N952 S950 1.610 . S
N952 C953 1.351 . S
C953 C947 1.428 . S
C953 N952 1.351 . S
C953 C954 1.434 . S
C954 C945 1.429 . S
C954 N951 1.350 . S
C954 C953 1.434 . S
C955 C956 1.369 . S
C955 C957 1.419 . S
C955 H959 0.930 . S
C956 C955 1.369 . S
C956 C965 1.429 . S
C957 C955 1.419 . S
C957 C958 1.363 . S
C957 H960 0.929 . S
C958 C957 1.363 . S
C958 C964 1.428 . S
H959 C955 0.930 . S
H960 C957 0.929 . S
S961 N962 1.613 . S
S961 N963 1.610 . S
N962 S961 1.613 . S
N962 C965 1.350 . S
N963 S961 1.610 . S
N963 C964 1.351 . S
C964 C958 1.428 . S
C964 N963 1.351 . S
C964 C965 1.434 . S
C965 C956 1.429 . S
C965 N962 1.350 . S
C965 C964 1.434 . S
C966 C967 1.369 . S
C966 C968 1.419 . S
C966 H970 0.930 . S
C967 C966 1.369 . S
C967 C976 1.429 . S
C968 C966 1.419 . S
C968 C969 1.363 . S
C968 H971 0.929 . S
C969 C968 1.363 . S
C969 C975 1.428 . S
H970 C966 0.930 . S
H971 C968 0.929 . S
S972 N973 1.613 . S
S972 N974 1.610 . S
N973 S972 1.613 . S
N973 C976 1.350 . S
N974 S972 1.610 . S
N974 C975 1.351 . S
C975 C969 1.428 . S
C975 N974 1.351 . S
C975 C976 1.434 . S
C976 C967 1.429 . S
C976 N973 1.350 . S
C976 C975 1.434 . S
C977 C978 1.369 . S
C977 C979 1.419 . S
C977 H981 0.930 . S
C978 C977 1.369 . S
C978 C987 1.429 . S
C979 C977 1.419 . S
C979 C980 1.363 . S
C979 H982 0.929 . S
C980 C979 1.363 . S
C980 C986 1.428 . S
H981 C977 0.930 . S
H982 C979 0.929 . S
S983 N984 1.613 . S
S983 N985 1.610 . S
N984 S983 1.613 . S
N984 C987 1.350 . S
N985 S983 1.610 . S
N985 C986 1.351 . S
C986 C980 1.428 . S
C986 N985 1.351 . S
C986 C987 1.434 . S
C987 C978 1.429 . S
C987 N984 1.350 . S
C987 C986 1.434 . S
C988 C989 1.369 . S
C988 C990 1.419 . S
C988 H992 0.930 . S
C989 C988 1.369 . S
C989 C998 1.429 . S
C990 C988 1.419 . S
C990 C991 1.363 . S
C990 H993 0.929 . S
C991 C990 1.363 . S
C991 C997 1.428 . S
H992 C988 0.930 . S
H993 C990 0.929 . S
S994 N995 1.613 . S
S994 N996 1.610 . S
N995 S994 1.613 . S
N995 C998 1.350 . S
N996 S994 1.610 . S
N996 C997 1.351 . S
C997 C991 1.428 . S
C997 N996 1.351 . S
C997 C998 1.434 . S
C998 C989 1.429 . S
C998 N995 1.350 . S
C998 C997 1.434 . S
C999 C1000 1.369 . S
C999 C1001 1.419 . S
C999 H1003 0.930 . S
C1000 C999 1.369 . S
C1000 C1009 1.429 . S
C1001 C999 1.419 . S
C1001 C1002 1.363 . S
C1001 H1004 0.929 . S
C1002 C1001 1.363 . S
C1002 C1008 1.428 . S
H1003 C999 0.930 . S
H1004 C1001 0.929 . S
S1005 N1006 1.613 . S
S1005 N1007 1.610 . S
N1006 S1005 1.613 . S
N1006 C1009 1.350 . S
N1007 S1005 1.610 . S
N1007 C1008 1.351 . S
C1008 C1002 1.428 . S
C1008 N1007 1.351 . S
C1008 C1009 1.434 . S
C1009 C1000 1.429 . S
C1009 N1006 1.350 . S
C1009 C1008 1.434 . S
C1010 C1011 1.369 . S
C1010 C1012 1.419 . S
C1010 H1014 0.930 . S
C1011 C1010 1.369 . S
C1011 C1020 1.429 . S
C1012 C1010 1.419 . S
C1012 C1013 1.363 . S
C1012 H1015 0.929 . S
C1013 C1012 1.363 . S
C1013 C1019 1.428 . S
H1014 C1010 0.930 . S
H1015 C1012 0.929 . S
S1016 N1017 1.613 . S
S1016 N1018 1.610 . S
N1017 S1016 1.613 . S
N1017 C1020 1.350 . S
N1018 S1016 1.610 . S
N1018 C1019 1.351 . S
C1019 C1013 1.428 . S
C1019 N1018 1.351 . S
C1019 C1020 1.434 . S
C1020 C1011 1.429 . S
C1020 N1017 1.350 . S
C1020 C1019 1.434 . S
C1021 C1022 1.369 . S
C1021 C1023 1.419 . S
C1021 H1025 0.930 . S
C1022 C1021 1.369 . S
C1022 C1031 1.429 . S
C1023 C1021 1.419 . S
C1023 C1024 1.363 . S
C1023 H1026 0.929 . S
C1024 C1023 1.363 . S
C1024 C1030 1.428 . S
H1025 C1021 0.930 . S
H1026 C1023 0.929 . S
S1027 N1028 1.613 . S
S1027 N1029 1.610 . S
N1028 S1027 1.613 . S
N1028 C1031 1.350 . S
N1029 S1027 1.610 . S
N1029 C1030 1.351 . S
C1030 C1024 1.428 . S
C1030 N1029 1.351 . S
C1030 C1031 1.434 . S
C1031 C1022 1.429 . S
C1031 N1028 1.350 . S
C1031 C1030 1.434 . S
C1032 C1033 1.369 . S
C1032 C1034 1.419 . S
C1032 H1036 0.930 . S
C1033 C1032 1.369 . S
C1033 C1042 1.429 . S
C1034 C1032 1.419 . S
C1034 C1035 1.363 . S
C1034 H1037 0.929 . S
C1035 C1034 1.363 . S
C1035 C1041 1.428 . S
H1036 C1032 0.930 . S
H1037 C1034 0.929 . S
S1038 N1039 1.613 . S
S1038 N1040 1.610 . S
N1039 S1038 1.613 . S
N1039 C1042 1.350 . S
N1040 S1038 1.610 . S
N1040 C1041 1.351 . S
C1041 C1035 1.428 . S
C1041 N1040 1.351 . S
C1041 C1042 1.434 . S
C1042 C1033 1.429 . S
C1042 N1039 1.350 . S
C1042 C1041 1.434 . S
C1043 C1044 1.369 . S
C1043 C1045 1.419 . S
C1043 H1047 0.930 . S
C1044 C1043 1.369 . S
C1044 C1053 1.429 . S
C1045 C1043 1.419 . S
C1045 C1046 1.363 . S
C1045 H1048 0.929 . S
C1046 C1045 1.363 . S
C1046 C1052 1.428 . S
H1047 C1043 0.930 . S
H1048 C1045 0.929 . S
S1049 N1050 1.613 . S
S1049 N1051 1.610 . S
N1050 S1049 1.613 . S
N1050 C1053 1.350 . S
N1051 S1049 1.610 . S
N1051 C1052 1.351 . S
C1052 C1046 1.428 . S
C1052 N1051 1.351 . S
C1052 C1053 1.434 . S
C1053 C1044 1.429 . S
C1053 N1050 1.350 . S
C1053 C1052 1.434 . S
C1054 C1055 1.369 . S
C1054 C1056 1.419 . S
C1054 H1058 0.930 . S
C1055 C1054 1.369 . S
C1055 C1064 1.429 . S
C1056 C1054 1.419 . S
C1056 C1057 1.363 . S
C1056 H1059 0.929 . S
C1057 C1056 1.363 . S
C1057 C1063 1.428 . S
H1058 C1054 0.930 . S
H1059 C1056 0.929 . S
S1060 N1061 1.613 . S
S1060 N1062 1.610 . S
N1061 S1060 1.613 . S
N1061 C1064 1.350 . S
N1062 S1060 1.610 . S
N1062 C1063 1.351 . S
C1063 C1057 1.428 . S
C1063 N1062 1.351 . S
C1063 C1064 1.434 . S
C1064 C1055 1.429 . S
C1064 N1061 1.350 . S
C1064 C1063 1.434 . S
C1065 C1066 1.369 . S
C1065 C1067 1.419 . S
C1065 H1069 0.930 . S
C1066 C1065 1.369 . S
C1066 C1075 1.429 . S
C1067 C1065 1.419 . S
C1067 C1068 1.363 . S
C1067 H1070 0.929 . S
C1068 C1067 1.363 . S
C1068 C1074 1.428 . S
H1069 C1065 0.930 . S
H1070 C1067 0.929 . S
S1071 N1072 1.613 . S
S1071 N1073 1.610 . S
N1072 S1071 1.613 . S
N1072 C1075 1.350 . S
N1073 S1071 1.610 . S
N1073 C1074 1.351 . S
C1074 C1068 1.428 . S
C1074 N1073 1.351 . S
C1074 C1075 1.434 . S
C1075 C1066 1.429 . S
C1075 N1072 1.350 . S
C1075 C1074 1.434 . S
C1076 C1077 1.369 . S
C1076 C1078 1.419 . S
C1076 H1080 0.930 . S
C1077 C1076 1.369 . S
C1077 C1086 1.429 . S
C1078 C1076 1.419 . S
C1078 C1079 1.363 . S
C1078 H1081 0.929 . S
C1079 C1078 1.363 . S
C1079 C1085 1.428 . S
H1080 C1076 0.930 . S
H1081 C1078 0.929 . S
S1082 N1083 1.613 . S
S1082 N1084 1.610 . S
N1083 S1082 1.613 . S
N1083 C1086 1.350 . S
N1084 S1082 1.610 . S
N1084 C1085 1.351 . S
C1085 C1079 1.428 . S
C1085 N1084 1.351 . S
C1085 C1086 1.434 . S
C1086 C1077 1.429 . S
C1086 N1083 1.350 . S
C1086 C1085 1.434 . S
C1087 C1088 1.369 . S
C1087 C1089 1.419 . S
C1087 H1091 0.930 . S
C1088 C1087 1.369 . S
C1088 C1097 1.429 . S
C1089 C1087 1.419 . S
C1089 C1090 1.363 . S
C1089 H1092 0.929 . S
C1090 C1089 1.363 . S
C1090 C1096 1.428 . S
H1091 C1087 0.930 . S
H1092 C1089 0.929 . S
S1093 N1094 1.613 . S
S1093 N1095 1.610 . S
N1094 S1093 1.613 . S
N1094 C1097 1.350 . S
N1095 S1093 1.610 . S
N1095 C1096 1.351 . S
C1096 C1090 1.428 . S
C1096 N1095 1.351 . S
C1096 C1097 1.434 . S
C1097 C1088 1.429 . S
C1097 N1094 1.350 . S
C1097 C1096 1.434 . S
C1098 C1099 1.369 . S
C1098 C1100 1.419 . S
C1098 H1102 0.930 . S
C1099 C1098 1.369 . S
C1099 C1108 1.429 . S
C1100 C1098 1.419 . S
C1100 C1101 1.363 . S
C1100 H1103 0.929 . S
C1101 C1100 1.363 . S
C1101 C1107 1.428 . S
H1102 C1098 0.930 . S
H1103 C1100 0.929 . S
S1104 N1105 1.613 . S
S1104 N1106 1.610 . S
N1105 S1104 1.613 . S
N1105 C1108 1.350 . S
N1106 S1104 1.610 . S
N1106 C1107 1.351 . S
C1107 C1101 1.428 . S
C1107 N1106 1.351 . S
C1107 C1108 1.434 . S
C1108 C1099 1.429 . S
C1108 N1105 1.350 . S
C1108 C1107 1.434 . S
C1109 C1110 1.369 . S
C1109 C1111 1.419 . S
C1109 H1113 0.930 . S
C1110 C1109 1.369 . S
C1110 C1119 1.429 . S
C1111 C1109 1.419 . S
C1111 C1112 1.363 . S
C1111 H1114 0.929 . S
C1112 C1111 1.363 . S
C1112 C1118 1.428 . S
H1113 C1109 0.930 . S
H1114 C1111 0.929 . S
S1115 N1116 1.613 . S
S1115 N1117 1.610 . S
N1116 S1115 1.613 . S
N1116 C1119 1.350 . S
N1117 S1115 1.610 . S
N1117 C1118 1.351 . S
C1118 C1112 1.428 . S
C1118 N1117 1.351 . S
C1118 C1119 1.434 . S
C1119 C1110 1.429 . S
C1119 N1116 1.350 . S
C1119 C1118 1.434 . S
C1120 C1121 1.369 . S
C1120 C1122 1.419 . S
C1120 H1124 0.930 . S
C1121 C1120 1.369 . S
C1121 C1130 1.429 . S
C1122 C1120 1.419 . S
C1122 C1123 1.363 . S
C1122 H1125 0.929 . S
C1123 C1122 1.363 . S
C1123 C1129 1.428 . S
H1124 C1120 0.930 . S
H1125 C1122 0.929 . S
S1126 N1127 1.613 . S
S1126 N1128 1.610 . S
N1127 S1126 1.613 . S
N1127 C1130 1.350 . S
N1128 S1126 1.610 . S
N1128 C1129 1.351 . S
C1129 C1123 1.428 . S
C1129 N1128 1.351 . S
C1129 C1130 1.434 . S
C1130 C1121 1.429 . S
C1130 N1127 1.350 . S
C1130 C1129 1.434 . S
C1131 C1132 1.369 . S
C1131 C1133 1.419 . S
C1131 H1135 0.930 . S
C1132 C1131 1.369 . S
C1132 C1141 1.429 . S
C1133 C1131 1.419 . S
C1133 C1134 1.363 . S
C1133 H1136 0.929 . S
C1134 C1133 1.363 . S
C1134 C1140 1.428 . S
H1135 C1131 0.930 . S
H1136 C1133 0.929 . S
S1137 N1138 1.613 . S
S1137 N1139 1.610 . S
N1138 S1137 1.613 . S
N1138 C1141 1.350 . S
N1139 S1137 1.610 . S
N1139 C1140 1.351 . S
C1140 C1134 1.428 . S
C1140 N1139 1.351 . S
C1140 C1141 1.434 . S
C1141 C1132 1.429 . S
C1141 N1138 1.350 . S
C1141 C1140 1.434 . S
C1142 C1143 1.369 . S
C1142 C1144 1.419 . S
C1142 H1146 0.930 . S
C1143 C1142 1.369 . S
C1143 C1152 1.429 . S
C1144 C1142 1.419 . S
C1144 C1145 1.363 . S
C1144 H1147 0.929 . S
C1145 C1144 1.363 . S
C1145 C1151 1.428 . S
H1146 C1142 0.930 . S
H1147 C1144 0.929 . S
S1148 N1149 1.613 . S
S1148 N1150 1.610 . S
N1149 S1148 1.613 . S
N1149 C1152 1.350 . S
N1150 S1148 1.610 . S
N1150 C1151 1.351 . S
C1151 C1145 1.428 . S
C1151 N1150 1.351 . S
C1151 C1152 1.434 . S
C1152 C1143 1.429 . S
C1152 N1149 1.350 . S
C1152 C1151 1.434 . S
C1153 C1154 1.369 . S
C1153 C1155 1.419 . S
C1153 H1157 0.930 . S
C1154 C1153 1.369 . S
C1154 C1163 1.429 . S
C1155 C1153 1.419 . S
C1155 C1156 1.363 . S
C1155 H1158 0.929 . S
C1156 C1155 1.363 . S
C1156 C1162 1.428 . S
H1157 C1153 0.930 . S
H1158 C1155 0.929 . S
S1159 N1160 1.613 . S
S1159 N1161 1.610 . S
N1160 S1159 1.613 . S
N1160 C1163 1.350 . S
N1161 S1159 1.610 . S
N1161 C1162 1.351 . S
C1162 C1156 1.428 . S
C1162 N1161 1.351 . S
C1162 C1163 1.434 . S
C1163 C1154 1.429 . S
C1163 N1160 1.350 . S
C1163 C1162 1.434 . S
C1164 C1165 1.369 . S
C1164 C1166 1.419 . S
C1164 H1168 0.930 . S
C1165 C1164 1.369 . S
C1165 C1174 1.429 . S
C1166 C1164 1.419 . S
C1166 C1167 1.363 . S
C1166 H1169 0.929 . S
C1167 C1166 1.363 . S
C1167 C1173 1.428 . S
H1168 C1164 0.930 . S
H1169 C1166 0.929 . S
S1170 N1171 1.613 . S
S1170 N1172 1.610 . S
N1171 S1170 1.613 . S
N1171 C1174 1.350 . S
N1172 S1170 1.610 . S
N1172 C1173 1.351 . S
C1173 C1167 1.428 . S
C1173 N1172 1.351 . S
C1173 C1174 1.434 . S
C1174 C1165 1.429 . S
C1174 N1171 1.350 . S
C1174 C1173 1.434 . S
C1175 C1176 1.369 . S
C1175 C1177 1.419 . S
C1175 H1179 0.930 . S
C1176 C1175 1.369 . S
C1176 C1185 1.429 . S
C1177 C1175 1.419 . S
C1177 C1178 1.363 . S
C1177 H1180 0.929 . S
C1178 C1177 1.363 . S
C1178 C1184 1.428 . S
H1179 C1175 0.930 . S
H1180 C1177 0.929 . S
S1181 N1182 1.613 . S
S1181 N1183 1.610 . S
N1182 S1181 1.613 . S
N1182 C1185 1.350 1_554 S
N1183 S1181 1.610 . S
N1183 C1184 1.351 1_554 S
C1184 C1178 1.428 . S
C1184 N1183 1.351 1_556 S
C1184 C1185 1.434 . S
C1185 C1176 1.429 . S
C1185 N1182 1.350 1_556 S
C1185 C1184 1.434 . S
C1186 C1187 1.369 . S
C1186 C1188 1.419 . S
C1186 H1190 0.930 . S
C1187 C1186 1.369 . S
C1187 C1196 1.429 . S
C1188 C1186 1.419 . S
C1188 C1189 1.363 . S
C1188 H1191 0.929 . S
C1189 C1188 1.363 . S
C1189 C1195 1.428 . S
H1190 C1186 0.930 . S
H1191 C1188 0.929 . S
S1192 N1193 1.623 . S
S1192 N1194 1.614 . S
N1193 S1192 1.623 . S
N1193 C1196 1.350 . S
N1194 S1192 1.614 . S
N1194 C1195 1.351 . S
C1195 C1189 1.428 . S
C1195 N1194 1.351 . S
C1195 C1196 1.434 . S
C1196 C1187 1.429 . S
C1196 N1193 1.350 . S
C1196 C1195 1.434 . S
C1197 C1198 1.369 . S
C1197 C1199 1.419 . S
C1197 H1201 0.930 . S
C1198 C1197 1.369 . S
C1198 C1207 1.429 . S
C1199 C1197 1.419 . S
C1199 C1200 1.363 . S
C1199 H1202 0.929 . S
C1200 C1199 1.363 . S
C1200 C1206 1.428 . S
H1201 C1197 0.930 . S
H1202 C1199 0.929 . S
S1203 N1204 1.613 . S
S1203 N1205 1.610 . S
N1204 S1203 1.613 . S
N1204 C1207 1.350 1_554 S
N1205 S1203 1.610 . S
N1205 C1206 1.351 1_554 S
C1206 C1200 1.428 . S
C1206 N1205 1.351 1_556 S
C1206 C1207 1.434 . S
C1207 C1198 1.429 . S
C1207 N1204 1.350 1_556 S
C1207 C1206 1.434 . S
C1208 C1209 1.369 . S
C1208 C1210 1.419 . S
C1208 H1212 0.930 . S
C1209 C1208 1.369 . S
C1209 C1218 1.429 . S
C1210 C1208 1.419 . S
C1210 C1211 1.363 . S
C1210 H1213 0.929 . S
C1211 C1210 1.363 . S
C1211 C1217 1.428 . S
H1212 C1208 0.930 . S
H1213 C1210 0.929 . S
S1214 N1215 1.613 . S
S1214 N1216 1.610 . S
N1215 S1214 1.613 . S
N1215 C1218 1.350 . S
N1216 S1214 1.610 . S
N1216 C1217 1.351 . S
C1217 C1211 1.428 . S
C1217 N1216 1.351 . S
C1217 C1218 1.434 . S
C1218 C1209 1.429 . S
C1218 N1215 1.350 . S
C1218 C1217 1.434 . S
C1219 C1220 1.369 . S
C1219 C1221 1.419 . S
C1219 H1223 0.930 . S
C1220 C1219 1.369 . S
C1220 C1229 1.429 . S
C1221 C1219 1.419 . S
C1221 C1222 1.363 . S
C1221 H1224 0.929 . S
C1222 C1221 1.363 . S
C1222 C1228 1.428 . S
H1223 C1219 0.930 . S
H1224 C1221 0.929 . S
S1225 N1226 1.613 . S
S1225 N1227 1.610 . S
N1226 S1225 1.613 . S
N1226 C1229 1.350 . S
N1227 S1225 1.610 . S
N1227 C1228 1.351 . S
C1228 C1222 1.428 . S
C1228 N1227 1.351 . S
C1228 C1229 1.434 . S
C1229 C1220 1.429 . S
C1229 N1226 1.350 . S
C1229 C1228 1.434 . S
C1230 C1231 1.369 . S
C1230 C1232 1.419 . S
C1230 H1234 0.930 . S
C1231 C1230 1.369 . S
C1231 C1240 1.429 . S
C1232 C1230 1.419 . S
C1232 C1233 1.363 . S
C1232 H1235 0.929 . S
C1233 C1232 1.363 . S
C1233 C1239 1.428 . S
H1234 C1230 0.930 . S
H1235 C1232 0.929 . S
S1236 N1237 1.613 . S
S1236 N1238 1.602 1_455 S
N1237 S1236 1.613 . S
N1237 C1240 1.350 . S
N1238 S1236 1.602 1_655 S
N1238 C1239 1.325 1_655 S
C1239 C1233 1.428 . S
C1239 N1238 1.325 1_455 S
C1239 C1240 1.434 . S
C1240 C1231 1.429 . S
C1240 N1237 1.350 . S
C1240 C1239 1.434 . S
C1241 C1242 1.369 . S
C1241 C1243 1.419 . S
C1241 H1245 0.930 . S
C1242 C1241 1.369 . S
C1242 C1251 1.429 . S
C1243 C1241 1.419 . S
C1243 C1244 1.363 . S
C1243 H1246 0.929 . S
C1244 C1243 1.363 . S
C1244 C1250 1.428 . S
H1245 C1241 0.930 . S
H1246 C1243 0.929 . S
S1247 N1248 1.613 . S
S1247 N1249 1.610 . S
N1248 S1247 1.613 . S
N1248 C1251 1.350 . S
N1249 S1247 1.610 . S
N1249 C1250 1.351 . S
C1250 C1244 1.428 . S
C1250 N1249 1.351 . S
C1250 C1251 1.434 . S
C1251 C1242 1.429 . S
C1251 N1248 1.350 . S
C1251 C1250 1.434 . S
C1252 C1253 1.369 . S
C1252 C1254 1.419 . S
C1252 H1256 0.930 . S
C1253 C1252 1.369 . S
C1253 C1262 1.429 . S
C1254 C1252 1.419 . S
C1254 C1255 1.363 . S
C1254 H1257 0.929 . S
C1255 C1254 1.363 . S
C1255 C1261 1.428 . S
H1256 C1252 0.930 . S
H1257 C1254 0.929 . S
S1258 N1259 1.613 . S
S1258 N1260 1.610 . S
N1259 S1258 1.613 . S
N1259 C1262 1.350 . S
N1260 S1258 1.610 . S
N1260 C1261 1.351 . S
C1261 C1255 1.428 . S
C1261 N1260 1.351 . S
C1261 C1262 1.434 . S
C1262 C1253 1.429 . S
C1262 N1259 1.350 . S
C1262 C1261 1.434 . S
C1263 C1264 1.369 . S
C1263 C1265 1.419 . S
C1263 H1267 0.930 . S
C1264 C1263 1.369 . S
C1264 C1273 1.429 . S
C1265 C1263 1.419 . S
C1265 C1266 1.363 . S
C1265 H1268 0.929 . S
C1266 C1265 1.363 . S
C1266 C1272 1.428 . S
H1267 C1263 0.930 . S
H1268 C1265 0.929 . S
S1269 N1270 1.613 . S
S1269 N1271 1.610 . S
N1270 S1269 1.613 . S
N1270 C1273 1.350 . S
N1271 S1269 1.610 . S
N1271 C1272 1.351 . S
C1272 C1266 1.428 . S
C1272 N1271 1.351 . S
C1272 C1273 1.434 . S
C1273 C1264 1.429 . S
C1273 N1270 1.350 . S
C1273 C1272 1.434 . S
C1274 C1275 1.369 . S
C1274 C1276 1.419 . S
C1274 H1278 0.930 . S
C1275 C1274 1.369 . S
C1275 C1284 1.429 . S
C1276 C1274 1.419 . S
C1276 C1277 1.363 . S
C1276 H1279 0.929 . S
C1277 C1276 1.363 . S
C1277 C1283 1.428 . S
H1278 C1274 0.930 . S
H1279 C1276 0.929 . S
S1280 N1281 1.613 . S
S1280 N1282 1.610 . S
N1281 S1280 1.613 . S
N1281 C1284 1.350 . S
N1282 S1280 1.610 . S
N1282 C1283 1.351 . S
C1283 C1277 1.428 . S
C1283 N1282 1.351 . S
C1283 C1284 1.434 . S
C1284 C1275 1.429 . S
C1284 N1281 1.350 . S
C1284 C1283 1.434 . S
C1285 C1286 1.369 . S
C1285 C1287 1.419 . S
C1285 H1289 0.930 . S
C1286 C1285 1.369 . S
C1286 C1295 1.429 . S
C1287 C1285 1.419 . S
C1287 C1288 1.363 . S
C1287 H1290 0.929 . S
C1288 C1287 1.363 . S
C1288 C1294 1.428 . S
H1289 C1285 0.930 . S
H1290 C1287 0.929 . S
S1291 N1292 1.613 . S
S1291 N1293 1.610 . S
N1292 S1291 1.613 . S
N1292 C1295 1.350 . S
N1293 S1291 1.610 . S
N1293 C1294 1.351 . S
C1294 C1288 1.428 . S
C1294 N1293 1.351 . S
C1294 C1295 1.434 . S
C1295 C1286 1.429 . S
C1295 N1292 1.350 . S
C1295 C1294 1.434 . S
C1296 C1297 1.369 . S
C1296 C1298 1.419 . S
C1296 H1300 0.930 . S
C1297 C1296 1.369 . S
C1297 C1306 1.429 . S
C1298 C1296 1.419 . S
C1298 C1299 1.363 . S
C1298 H1301 0.929 . S
C1299 C1298 1.363 . S
C1299 C1305 1.428 . S
H1300 C1296 0.930 . S
H1301 C1298 0.929 . S
S1302 N1303 1.613 . S
S1302 N1304 1.610 . S
N1303 S1302 1.613 . S
N1303 C1306 1.350 . S
N1304 S1302 1.610 . S
N1304 C1305 1.351 . S
C1305 C1299 1.428 . S
C1305 N1304 1.351 . S
C1305 C1306 1.434 . S
C1306 C1297 1.429 . S
C1306 N1303 1.350 . S
C1306 C1305 1.434 . S
C1307 C1308 1.369 . S
C1307 C1309 1.419 . S
C1307 H1311 0.930 . S
C1308 C1307 1.369 . S
C1308 C1317 1.429 . S
C1309 C1307 1.419 . S
C1309 C1310 1.363 . S
C1309 H1312 0.929 . S
C1310 C1309 1.363 . S
C1310 C1316 1.428 . S
H1311 C1307 0.930 . S
H1312 C1309 0.929 . S
S1313 N1314 1.613 . S
S1313 N1315 1.610 . S
N1314 S1313 1.613 . S
N1314 C1317 1.350 . S
N1315 S1313 1.610 . S
N1315 C1316 1.351 . S
C1316 C1310 1.428 . S
C1316 N1315 1.351 . S
C1316 C1317 1.434 . S
C1317 C1308 1.429 . S
C1317 N1314 1.350 . S
C1317 C1316 1.434 . S
C1318 C1319 1.369 . S
C1318 C1320 1.419 . S
C1318 H1322 0.930 . S
C1319 C1318 1.369 . S
C1319 C1328 1.429 . S
C1320 C1318 1.419 . S
C1320 C1321 1.363 . S
C1320 H1323 0.929 . S
C1321 C1320 1.363 . S
C1321 C1327 1.428 . S
H1322 C1318 0.930 . S
H1323 C1320 0.929 . S
S1324 N1325 1.613 . S
S1324 N1326 1.610 . S
N1325 S1324 1.613 . S
N1325 C1328 1.350 . S
N1326 S1324 1.610 . S
N1326 C1327 1.351 . S
C1327 C1321 1.428 . S
C1327 N1326 1.351 . S
C1327 C1328 1.434 . S
C1328 C1319 1.429 . S
C1328 N1325 1.350 . S
C1328 C1327 1.434 . S
C1329 C1330 1.369 . S
C1329 C1331 1.419 . S
C1329 H1333 0.930 . S
C1330 C1329 1.369 . S
C1330 C1339 1.429 . S
C1331 C1329 1.419 . S
C1331 C1332 1.363 . S
C1331 H1334 0.929 . S
C1332 C1331 1.363 . S
C1332 C1338 1.428 . S
H1333 C1329 0.930 . S
H1334 C1331 0.929 . S
S1335 N1336 1.608 1_455 S
S1335 N1337 1.610 . S
N1336 S1335 1.608 1_655 S
N1336 C1339 1.354 . S
N1337 S1335 1.610 . S
N1337 C1338 1.351 1_455 S
C1338 C1332 1.428 . S
C1338 N1337 1.351 1_655 S
C1338 C1339 1.434 . S
C1339 C1330 1.429 . S
C1339 N1336 1.354 . S
C1339 C1338 1.434 . S
C1340 C1341 1.369 . S
C1340 C1342 1.419 . S
C1340 H1344 0.930 . S
C1341 C1340 1.369 . S
C1341 C1350 1.429 . S
C1342 C1340 1.419 . S
C1342 C1343 1.363 . S
C1342 H1345 0.929 . S
C1343 C1342 1.363 . S
C1343 C1349 1.428 . S
H1344 C1340 0.930 . S
H1345 C1342 0.929 . S
S1346 N1347 1.613 . S
S1346 N1348 1.610 . S
N1347 S1346 1.613 . S
N1347 C1350 1.350 . S
N1348 S1346 1.610 . S
N1348 C1349 1.351 . S
C1349 C1343 1.428 . S
C1349 N1348 1.351 . S
C1349 C1350 1.434 . S
C1350 C1341 1.429 . S
C1350 N1347 1.350 . S
C1350 C1349 1.434 . S
C1351 C1352 1.369 . S
C1351 C1353 1.419 . S
C1351 H1355 0.930 . S
C1352 C1351 1.369 . S
C1352 C1361 1.429 . S
C1353 C1351 1.419 . S
C1353 C1354 1.363 . S
C1353 H1356 0.929 . S
C1354 C1353 1.363 . S
C1354 C1360 1.428 . S
H1355 C1351 0.930 . S
H1356 C1353 0.929 . S
S1357 N1358 1.613 1_556 S
S1357 N1359 1.610 . S
N1358 S1357 1.613 1_554 S
N1358 C1361 1.350 . S
N1359 S1357 1.610 . S
N1359 C1360 1.351 1_556 S
C1360 C1354 1.428 . S
C1360 N1359 1.351 1_554 S
C1360 C1361 1.434 . S
C1361 C1352 1.429 . S
C1361 N1358 1.350 . S
C1361 C1360 1.434 . S
C1362 C1363 1.369 . S
C1362 C1364 1.419 . S
C1362 H1366 0.930 . S
C1363 C1362 1.369 . S
C1363 C1372 1.429 . S
C1364 C1362 1.419 . S
C1364 C1365 1.363 . S
C1364 H1367 0.929 . S
C1365 C1364 1.363 . S
C1365 C1371 1.428 . S
H1366 C1362 0.930 . S
H1367 C1364 0.929 . S
S1368 N1369 1.613 . S
S1368 N1370 1.610 . S
N1369 S1368 1.613 . S
N1369 C1372 1.350 . S
N1370 S1368 1.610 . S
N1370 C1371 1.351 . S
C1371 C1365 1.428 . S
C1371 N1370 1.351 . S
C1371 C1372 1.434 . S
C1372 C1363 1.429 . S
C1372 N1369 1.350 . S
C1372 C1371 1.434 . S
C1373 C1374 1.369 . S
C1373 C1375 1.419 . S
C1373 H1377 0.930 . S
C1374 C1373 1.369 . S
C1374 C1383 1.429 . S
C1375 C1373 1.419 . S
C1375 C1376 1.363 . S
C1375 H1378 0.929 . S
C1376 C1375 1.363 . S
C1376 C1382 1.428 . S
H1377 C1373 0.930 . S
H1378 C1375 0.929 . S
S1379 N1380 1.613 . S
S1379 N1381 1.610 . S
N1380 S1379 1.613 . S
N1380 C1383 1.350 . S
N1381 S1379 1.610 . S
N1381 C1382 1.351 . S
C1382 C1376 1.428 . S
C1382 N1381 1.351 . S
C1382 C1383 1.434 . S
C1383 C1374 1.429 . S
C1383 N1380 1.350 . S
C1383 C1382 1.434 . S
C1384 C1385 1.369 . S
C1384 C1386 1.419 . S
C1384 H1388 0.930 . S
C1385 C1384 1.369 . S
C1385 C1394 1.429 . S
C1386 C1384 1.419 . S
C1386 C1387 1.363 . S
C1386 H1389 0.929 . S
C1387 C1386 1.363 . S
C1387 C1393 1.428 . S
H1388 C1384 0.930 . S
H1389 C1386 0.929 . S
S1390 N1391 1.613 . S
S1390 N1392 1.610 . S
N1391 S1390 1.613 . S
N1391 C1394 1.350 . S
N1392 S1390 1.610 . S
N1392 C1393 1.351 . S
C1393 C1387 1.428 . S
C1393 N1392 1.351 . S
C1393 C1394 1.434 . S
C1394 C1385 1.429 . S
C1394 N1391 1.350 . S
C1394 C1393 1.434 . S
C1395 C1396 1.369 . S
C1395 C1397 1.419 . S
C1395 H1399 0.930 . S
C1396 C1395 1.369 . S
C1396 C1405 1.429 . S
C1397 C1395 1.419 . S
C1397 C1398 1.363 . S
C1397 H1400 0.929 1_556 S
C1398 C1397 1.363 . S
C1398 C1404 1.428 . S
H1399 C1395 0.930 . S
H1400 C1397 0.929 1_554 S
S1401 N1402 1.613 . S
S1401 N1403 1.610 . S
N1402 S1401 1.613 . S
N1402 C1405 1.350 . S
N1403 S1401 1.610 . S
N1403 C1404 1.351 . S
C1404 C1398 1.428 . S
C1404 N1403 1.351 . S
C1404 C1405 1.434 . S
C1405 C1396 1.429 . S
C1405 N1402 1.350 . S
C1405 C1404 1.434 . S
C1406 C1407 1.369 . S
C1406 C1408 1.419 . S
C1406 H1410 0.930 . S
C1407 C1406 1.369 . S
C1407 C1416 1.429 . S
C1408 C1406 1.419 . S
C1408 C1409 1.363 . S
C1408 H1411 0.929 . S
C1409 C1408 1.363 . S
C1409 C1415 1.428 . S
H1410 C1406 0.930 . S
H1411 C1408 0.929 . S
S1412 N1413 1.613 . S
S1412 N1414 1.610 . S
N1413 S1412 1.613 . S
N1413 C1416 1.350 . S
N1414 S1412 1.610 . S
N1414 C1415 1.351 . S
C1415 C1409 1.428 . S
C1415 N1414 1.351 . S
C1415 C1416 1.434 . S
C1416 C1407 1.429 . S
C1416 N1413 1.350 . S
C1416 C1415 1.434 . S
C1417 C1418 1.369 . S
C1417 C1419 1.419 . S
C1417 H1421 0.930 . S
C1418 C1417 1.369 . S
C1418 C1427 1.429 . S
C1419 C1417 1.419 . S
C1419 C1420 1.363 . S
C1419 H1422 0.929 . S
C1420 C1419 1.363 . S
C1420 C1426 1.428 . S
H1421 C1417 0.930 . S
H1422 C1419 0.929 . S
S1423 N1424 1.613 1_554 S
S1423 N1425 1.610 . S
N1424 S1423 1.613 1_556 S
N1424 C1427 1.350 . S
N1425 S1423 1.610 . S
N1425 C1426 1.351 1_554 S
C1426 C1420 1.428 . S
C1426 N1425 1.351 1_556 S
C1426 C1427 1.434 . S
C1427 C1418 1.429 . S
C1427 N1424 1.350 . S
C1427 C1426 1.434 . S
C1428 C1429 1.369 . S
C1428 C1430 1.419 . S
C1428 H1432 0.930 . S
C1429 C1428 1.369 . S
C1429 C1438 1.429 . S
C1430 C1428 1.419 . S
C1430 C1431 1.363 . S
C1430 H1433 0.929 . S
C1431 C1430 1.363 . S
C1431 C1437 1.428 . S
H1432 C1428 0.930 . S
H1433 C1430 0.929 . S
S1434 N1435 1.613 . S
S1434 N1436 1.610 . S
N1435 S1434 1.613 . S
N1435 C1438 1.350 . S
N1436 S1434 1.610 . S
N1436 C1437 1.351 . S
C1437 C1431 1.428 . S
C1437 N1436 1.351 . S
C1437 C1438 1.434 . S
C1438 C1429 1.429 . S
C1438 N1435 1.350 . S
C1438 C1437 1.434 . S
C1439 C1440 1.369 . S
C1439 C1441 1.419 . S
C1439 H1443 0.930 . S
C1440 C1439 1.369 . S
C1440 C1449 1.429 . S
C1441 C1439 1.419 . S
C1441 C1442 1.363 . S
C1441 H1444 0.929 . S
C1442 C1441 1.363 . S
C1442 C1448 1.428 . S
H1443 C1439 0.930 . S
H1444 C1441 0.929 . S
S1445 N1446 1.613 . S
S1445 N1447 1.610 . S
N1446 S1445 1.613 . S
N1446 C1449 1.350 . S
N1447 S1445 1.610 . S
N1447 C1448 1.351 . S
C1448 C1442 1.428 . S
C1448 N1447 1.351 . S
C1448 C1449 1.434 . S
C1449 C1440 1.429 . S
C1449 N1446 1.350 . S
C1449 C1448 1.434 . S
C1450 C1451 1.369 . S
C1450 C1452 1.419 . S
C1450 H1454 0.930 . S
C1451 C1450 1.369 . S
C1451 C1460 1.429 . S
C1452 C1450 1.419 . S
C1452 C1453 1.363 . S
C1452 H1455 0.929 . S
C1453 C1452 1.363 . S
C1453 C1459 1.428 . S
H1454 C1450 0.930 . S
H1455 C1452 0.929 . S
S1456 N1457 1.613 . S
S1456 N1458 1.610 . S
N1457 S1456 1.613 . S
N1457 C1460 1.350 . S
N1458 S1456 1.610 . S
N1458 C1459 1.351 . S
C1459 C1453 1.428 . S
C1459 N1458 1.351 . S
C1459 C1460 1.434 . S
C1460 C1451 1.429 . S
C1460 N1457 1.350 . S
C1460 C1459 1.434 . S
C1461 C1462 1.369 . S
C1461 C1463 1.419 . S
C1461 H1465 0.930 . S
C1462 C1461 1.369 . S
C1462 C1471 1.429 . S
C1463 C1461 1.419 . S
C1463 C1464 1.363 . S
C1463 H1466 0.929 . S
C1464 C1463 1.363 . S
C1464 C1470 1.428 . S
H1465 C1461 0.930 . S
H1466 C1463 0.929 . S
S1467 N1468 1.613 . S
S1467 N1469 1.610 . S
N1468 S1467 1.613 . S
N1468 C1471 1.350 . S
N1469 S1467 1.610 . S
N1469 C1470 1.351 . S
C1470 C1464 1.428 . S
C1470 N1469 1.351 . S
C1470 C1471 1.434 . S
C1471 C1462 1.429 . S
C1471 N1468 1.350 . S
C1471 C1470 1.434 . S
C1472 C1473 1.369 . S
C1472 C1474 1.419 . S
C1472 H1476 0.930 . S
C1473 C1472 1.369 . S
C1473 C1482 1.429 . S
C1474 C1472 1.419 . S
C1474 C1475 1.363 . S
C1474 H1477 0.929 . S
C1475 C1474 1.363 . S
C1475 C1481 1.428 . S
H1476 C1472 0.930 . S
H1477 C1474 0.929 . S
S1478 N1479 1.613 . S
S1478 N1480 1.610 . S
N1479 S1478 1.613 . S
N1479 C1482 1.350 . S
N1480 S1478 1.610 . S
N1480 C1481 1.351 . S
C1481 C1475 1.428 . S
C1481 N1480 1.351 . S
C1481 C1482 1.434 . S
C1482 C1473 1.429 . S
C1482 N1479 1.350 . S
C1482 C1481 1.434 . S
C1483 C1484 1.369 . S
C1483 C1485 1.419 . S
C1483 H1487 0.930 . S
C1484 C1483 1.369 . S
C1484 C1493 1.429 . S
C1485 C1483 1.419 . S
C1485 C1486 1.363 . S
C1485 H1488 0.929 . S
C1486 C1485 1.363 . S
C1486 C1492 1.428 . S
H1487 C1483 0.930 . S
H1488 C1485 0.929 . S
S1489 N1490 1.613 . S
S1489 N1491 1.610 . S
N1490 S1489 1.613 . S
N1490 C1493 1.350 . S
N1491 S1489 1.610 . S
N1491 C1492 1.351 . S
C1492 C1486 1.428 . S
C1492 N1491 1.351 . S
C1492 C1493 1.434 . S
C1493 C1484 1.429 . S
C1493 N1490 1.350 . S
C1493 C1492 1.434 . S
C1494 C1495 1.369 . S
C1494 C1496 1.419 . S
C1494 H1498 0.930 . S
C1495 C1494 1.369 . S
C1495 C1504 1.429 . S
C1496 C1494 1.419 . S
C1496 C1497 1.363 . S
C1496 H1499 0.929 . S
C1497 C1496 1.363 . S
C1497 C1503 1.428 . S
H1498 C1494 0.930 . S
H1499 C1496 0.929 . S
S1500 N1501 1.613 . S
S1500 N1502 1.610 . S
N1501 S1500 1.613 . S
N1501 C1504 1.350 . S
N1502 S1500 1.610 . S
N1502 C1503 1.351 . S
C1503 C1497 1.428 . S
C1503 N1502 1.351 . S
C1503 C1504 1.434 . S
C1504 C1495 1.429 . S
C1504 N1501 1.350 . S
C1504 C1503 1.434 . S
C1505 C1506 1.369 . S
C1505 C1507 1.419 . S
C1505 H1509 0.930 . S
C1506 C1505 1.369 . S
C1506 C1515 1.429 . S
C1507 C1505 1.419 . S
C1507 C1508 1.363 . S
C1507 H1510 0.929 . S
C1508 C1507 1.363 . S
C1508 C1514 1.428 . S
H1509 C1505 0.930 . S
H1510 C1507 0.929 . S
S1511 N1512 1.613 . S
S1511 N1513 1.610 . S
N1512 S1511 1.613 . S
N1512 C1515 1.350 . S
N1513 S1511 1.610 . S
N1513 C1514 1.351 . S
C1514 C1508 1.428 . S
C1514 N1513 1.351 . S
C1514 C1515 1.434 . S
C1515 C1506 1.429 . S
C1515 N1512 1.350 . S
C1515 C1514 1.434 . S
C1516 C1517 1.369 . S
C1516 C1518 1.419 . S
C1516 H1520 0.930 . S
C1517 C1516 1.369 . S
C1517 C1526 1.429 . S
C1518 C1516 1.419 . S
C1518 C1519 1.363 . S
C1518 H1521 0.929 . S
C1519 C1518 1.363 . S
C1519 C1525 1.428 . S
H1520 C1516 0.930 . S
H1521 C1518 0.929 . S
S1522 N1523 1.613 . S
S1522 N1524 1.610 . S
N1523 S1522 1.613 . S
N1523 C1526 1.350 . S
N1524 S1522 1.610 . S
N1524 C1525 1.351 . S
C1525 C1519 1.428 . S
C1525 N1524 1.351 . S
C1525 C1526 1.434 . S
C1526 C1517 1.429 . S
C1526 N1523 1.350 . S
C1526 C1525 1.434 . S
C1527 C1528 1.369 . S
C1527 C1529 1.419 . S
C1527 H1531 0.930 . S
C1528 C1527 1.369 . S
C1528 C1537 1.429 . S
C1529 C1527 1.419 . S
C1529 C1530 1.363 . S
C1529 H1532 0.929 . S
C1530 C1529 1.363 . S
C1530 C1536 1.428 . S
H1531 C1527 0.930 . S
H1532 C1529 0.929 . S
S1533 N1534 1.613 . S
S1533 N1535 1.610 . S
N1534 S1533 1.613 . S
N1534 C1537 1.350 . S
N1535 S1533 1.610 . S
N1535 C1536 1.351 . S
C1536 C1530 1.428 . S
C1536 N1535 1.351 . S
C1536 C1537 1.434 . S
C1537 C1528 1.429 . S
C1537 N1534 1.350 . S
C1537 C1536 1.434 . S
C1538 C1539 1.369 . S
C1538 C1540 1.419 . S
C1538 H1542 0.930 . S
C1539 C1538 1.369 . S
C1539 C1548 1.429 . S
C1540 C1538 1.419 . S
C1540 C1541 1.363 . S
C1540 H1543 0.929 . S
C1541 C1540 1.363 . S
C1541 C1547 1.428 . S
H1542 C1538 0.930 . S
H1543 C1540 0.929 . S
S1544 N1545 1.613 . S
S1544 N1546 1.610 . S
N1545 S1544 1.613 . S
N1545 C1548 1.350 . S
N1546 S1544 1.610 . S
N1546 C1547 1.351 . S
C1547 C1541 1.428 . S
C1547 N1546 1.351 . S
C1547 C1548 1.434 . S
C1548 C1539 1.429 . S
C1548 N1545 1.350 . S
C1548 C1547 1.434 . S
C1549 C1550 1.369 . S
C1549 C1551 1.419 . S
C1549 H1553 0.930 . S
C1550 C1549 1.369 . S
C1550 C1559 1.429 . S
C1551 C1549 1.419 . S
C1551 C1552 1.363 . S
C1551 H1554 0.929 . S
C1552 C1551 1.363 . S
C1552 C1558 1.428 . S
H1553 C1549 0.930 . S
H1554 C1551 0.929 . S
S1555 N1556 1.613 1_655 S
S1555 N1557 1.610 . S
N1556 S1555 1.613 1_455 S
N1556 C1559 1.350 . S
N1557 S1555 1.610 . S
N1557 C1558 1.351 1_655 S
C1558 C1552 1.428 . S
C1558 N1557 1.351 1_455 S
C1558 C1559 1.434 . S
C1559 C1550 1.429 . S
C1559 N1556 1.350 . S
C1559 C1558 1.434 . S
C1560 C1561 1.369 . S
C1560 C1562 1.419 . S
C1560 H1564 0.930 . S
C1561 C1560 1.369 . S
C1561 C1570 1.429 . S
C1562 C1560 1.419 . S
C1562 C1563 1.363 . S
C1562 H1565 0.929 . S
C1563 C1562 1.363 . S
C1563 C1569 1.428 . S
H1564 C1560 0.930 . S
H1565 C1562 0.929 . S
S1566 N1567 1.613 . S
S1566 N1568 1.610 . S
N1567 S1566 1.613 . S
N1567 C1570 1.350 . S
N1568 S1566 1.610 . S
N1568 C1569 1.351 . S
C1569 C1563 1.428 . S
C1569 N1568 1.351 . S
C1569 C1570 1.434 . S
C1570 C1561 1.429 . S
C1570 N1567 1.350 . S
C1570 C1569 1.434 . S
C1571 C1572 1.369 . S
C1571 C1573 1.419 . S
C1571 H1575 0.930 . S
C1572 C1571 1.369 . S
C1572 C1581 1.429 . S
C1573 C1571 1.419 . S
C1573 C1574 1.363 . S
C1573 H1576 0.929 . S
C1574 C1573 1.363 . S
C1574 C1580 1.428 . S
H1575 C1571 0.930 . S
H1576 C1573 0.929 . S
S1577 N1578 1.613 . S
S1577 N1579 1.610 . S
N1578 S1577 1.613 . S
N1578 C1581 1.350 . S
N1579 S1577 1.610 . S
N1579 C1580 1.351 . S
C1580 C1574 1.428 . S
C1580 N1579 1.351 . S
C1580 C1581 1.434 . S
C1581 C1572 1.429 . S
C1581 N1578 1.350 . S
C1581 C1580 1.434 . S
C1582 C1583 1.369 . S
C1582 C1584 1.419 . S
C1582 H1586 0.930 . S
C1583 C1582 1.369 . S
C1583 C1592 1.429 . S
C1584 C1582 1.419 . S
C1584 C1585 1.363 . S
C1584 H1587 0.929 . S
C1585 C1584 1.363 . S
C1585 C1591 1.428 . S
H1586 C1582 0.930 . S
H1587 C1584 0.929 . S
S1588 N1589 1.613 . S
S1588 N1590 1.610 . S
N1589 S1588 1.613 . S
N1589 C1592 1.350 . S
N1590 S1588 1.610 . S
N1590 C1591 1.351 . S
C1591 C1585 1.428 . S
C1591 N1590 1.351 . S
C1591 C1592 1.434 . S
C1592 C1583 1.429 . S
C1592 N1589 1.350 . S
C1592 C1591 1.434 . S
C1593 C1594 1.369 . S
C1593 C1595 1.419 . S
C1593 H1597 0.930 . S
C1594 C1593 1.369 . S
C1594 C1603 1.429 . S
C1595 C1593 1.419 . S
C1595 C1596 1.363 . S
C1595 H1598 0.929 . S
C1596 C1595 1.363 . S
C1596 C1602 1.428 . S
H1597 C1593 0.930 . S
H1598 C1595 0.929 . S
S1599 N1600 1.613 . S
S1599 N1601 1.610 . S
N1600 S1599 1.613 . S
N1600 C1603 1.350 . S
N1601 S1599 1.610 . S
N1601 C1602 1.351 . S
C1602 C1596 1.428 . S
C1602 N1601 1.351 . S
C1602 C1603 1.434 . S
C1603 C1594 1.429 . S
C1603 N1600 1.350 . S
C1603 C1602 1.434 . S
C1604 C1605 1.369 . S
C1604 C1606 1.419 . S
C1604 H1608 0.930 . S
C1605 C1604 1.369 . S
C1605 C1614 1.429 . S
C1606 C1604 1.419 . S
C1606 C1607 1.363 . S
C1606 H1609 0.929 . S
C1607 C1606 1.363 . S
C1607 C1613 1.428 . S
H1608 C1604 0.930 . S
H1609 C1606 0.929 . S
S1610 N1611 1.613 . S
S1610 N1612 1.610 . S
N1611 S1610 1.613 . S
N1611 C1614 1.350 . S
N1612 S1610 1.610 . S
N1612 C1613 1.351 . S
C1613 C1607 1.428 . S
C1613 N1612 1.351 . S
C1613 C1614 1.434 . S
C1614 C1605 1.429 . S
C1614 N1611 1.350 . S
C1614 C1613 1.434 . S
C1615 C1616 1.369 . S
C1615 C1617 1.419 . S
C1615 H1619 0.930 . S
C1616 C1615 1.369 . S
C1616 C1625 1.429 . S
C1617 C1615 1.419 . S
C1617 C1618 1.363 . S
C1617 H1620 0.929 . S
C1618 C1617 1.363 . S
C1618 C1624 1.428 . S
H1619 C1615 0.930 . S
H1620 C1617 0.929 . S
S1621 N1622 1.613 . S
S1621 N1623 1.610 . S
N1622 S1621 1.613 . S
N1622 C1625 1.350 . S
N1623 S1621 1.610 . S
N1623 C1624 1.351 . S
C1624 C1618 1.428 . S
C1624 N1623 1.351 . S
C1624 C1625 1.434 . S
C1625 C1616 1.429 . S
C1625 N1622 1.350 . S
C1625 C1624 1.434 . S
C1626 C1627 1.369 . S
C1626 C1628 1.419 . S
C1626 H1630 0.930 . S
C1627 C1626 1.369 . S
C1627 C1636 1.429 . S
C1628 C1626 1.419 . S
C1628 C1629 1.363 . S
C1628 H1631 0.929 . S
C1629 C1628 1.363 . S
C1629 C1635 1.428 . S
H1630 C1626 0.930 . S
H1631 C1628 0.929 . S
S1632 N1633 1.613 . S
S1632 N1634 1.610 . S
N1633 S1632 1.613 . S
N1633 C1636 1.350 . S
N1634 S1632 1.610 . S
N1634 C1635 1.351 . S
C1635 C1629 1.428 . S
C1635 N1634 1.351 . S
C1635 C1636 1.434 . S
C1636 C1627 1.429 . S
C1636 N1633 1.350 . S
C1636 C1635 1.434 . S
C1637 C1638 1.369 . S
C1637 C1639 1.419 . S
C1637 H1641 0.930 . S
C1638 C1637 1.369 . S
C1638 C1647 1.429 . S
C1639 C1637 1.419 . S
C1639 C1640 1.363 . S
C1639 H1642 0.929 . S
C1640 C1639 1.363 . S
C1640 C1646 1.428 . S
H1641 C1637 0.930 . S
H1642 C1639 0.929 . S
S1643 N1644 1.613 . S
S1643 N1645 1.610 . S
N1644 S1643 1.613 . S
N1644 C1647 1.350 . S
N1645 S1643 1.610 . S
N1645 C1646 1.351 . S
C1646 C1640 1.428 . S
C1646 N1645 1.351 . S
C1646 C1647 1.434 . S
C1647 C1638 1.429 . S
C1647 N1644 1.350 . S
C1647 C1646 1.434 . S
C1648 C1649 1.369 . S
C1648 C1650 1.419 . S
C1648 H1652 0.930 . S
C1649 C1648 1.369 . S
C1649 C1658 1.429 . S
C1650 C1648 1.419 . S
C1650 C1651 1.363 . S
C1650 H1653 0.929 . S
C1651 C1650 1.363 . S
C1651 C1657 1.428 . S
H1652 C1648 0.930 . S
H1653 C1650 0.929 . S
S1654 N1655 1.613 . S
S1654 N1656 1.610 . S
N1655 S1654 1.613 . S
N1655 C1658 1.350 . S
N1656 S1654 1.610 . S
N1656 C1657 1.351 . S
C1657 C1651 1.428 . S
C1657 N1656 1.351 . S
C1657 C1658 1.434 . S
C1658 C1649 1.429 . S
C1658 N1655 1.350 . S
C1658 C1657 1.434 . S
C1659 C1660 1.369 . S
C1659 C1661 1.419 . S
C1659 H1663 0.930 . S
C1660 C1659 1.369 . S
C1660 C1669 1.429 . S
C1661 C1659 1.419 . S
C1661 C1662 1.363 . S
C1661 H1664 0.929 . S
C1662 C1661 1.363 . S
C1662 C1668 1.428 . S
H1663 C1659 0.930 . S
H1664 C1661 0.929 . S
S1665 N1666 1.613 . S
S1665 N1667 1.610 . S
N1666 S1665 1.613 . S
N1666 C1669 1.350 . S
N1667 S1665 1.610 . S
N1667 C1668 1.351 . S
C1668 C1662 1.428 . S
C1668 N1667 1.351 . S
C1668 C1669 1.434 . S
C1669 C1660 1.429 . S
C1669 N1666 1.350 . S
C1669 C1668 1.434 . S
C1670 C1671 1.369 . S
C1670 C1672 1.419 . S
C1670 H1674 0.930 . S
C1671 C1670 1.369 . S
C1671 C1680 1.429 . S
C1672 C1670 1.419 . S
C1672 C1673 1.363 . S
C1672 H1675 0.929 . S
C1673 C1672 1.363 . S
C1673 C1679 1.428 . S
H1674 C1670 0.930 . S
H1675 C1672 0.929 . S
S1676 N1677 1.613 . S
S1676 N1678 1.610 . S
N1677 S1676 1.613 . S
N1677 C1680 1.350 . S
N1678 S1676 1.610 . S
N1678 C1679 1.351 . S
C1679 C1673 1.428 . S
C1679 N1678 1.351 . S
C1679 C1680 1.434 . S
C1680 C1671 1.429 . S
C1680 N1677 1.350 . S
C1680 C1679 1.434 . S
C1681 C1682 1.369 . S
C1681 C1683 1.419 . S
C1681 H1685 0.930 . S
C1682 C1681 1.369 . S
C1682 C1691 1.429 . S
C1683 C1681 1.419 . S
C1683 C1684 1.363 . S
C1683 H1686 0.929 . S
C1684 C1683 1.363 . S
C1684 C1690 1.428 . S
H1685 C1681 0.930 . S
H1686 C1683 0.929 . S
S1687 N1688 1.613 . S
S1687 N1689 1.610 . S
N1688 S1687 1.613 . S
N1688 C1691 1.350 . S
N1689 S1687 1.610 . S
N1689 C1690 1.351 . S
C1690 C1684 1.428 . S
C1690 N1689 1.351 . S
C1690 C1691 1.434 . S
C1691 C1682 1.429 . S
C1691 N1688 1.350 . S
C1691 C1690 1.434 . S
C1692 C1693 1.369 . S
C1692 C1694 1.419 . S
C1692 H1696 0.930 . S
C1693 C1692 1.369 . S
C1693 C1702 1.429 . S
C1694 C1692 1.419 . S
C1694 C1695 1.363 . S
C1694 H1697 0.929 . S
C1695 C1694 1.363 . S
C1695 C1701 1.428 . S
H1696 C1692 0.930 . S
H1697 C1694 0.929 . S
S1698 N1699 1.613 . S
S1698 N1700 1.610 . S
N1699 S1698 1.613 . S
N1699 C1702 1.350 . S
N1700 S1698 1.610 . S
N1700 C1701 1.351 . S
C1701 C1695 1.428 . S
C1701 N1700 1.351 . S
C1701 C1702 1.434 . S
C1702 C1693 1.429 . S
C1702 N1699 1.350 . S
C1702 C1701 1.434 . S
C1703 C1704 1.369 . S
C1703 C1705 1.419 . S
C1703 H1707 0.930 . S
C1704 C1703 1.369 . S
C1704 C1713 1.429 . S
C1705 C1703 1.419 . S
C1705 C1706 1.363 . S
C1705 H1708 0.929 . S
C1706 C1705 1.363 . S
C1706 C1712 1.428 . S
H1707 C1703 0.930 . S
H1708 C1705 0.929 . S
S1709 N1710 1.613 . S
S1709 N1711 1.610 . S
N1710 S1709 1.613 . S
N1710 C1713 1.350 . S
N1711 S1709 1.610 . S
N1711 C1712 1.351 . S
C1712 C1706 1.428 . S
C1712 N1711 1.351 . S
C1712 C1713 1.434 . S
C1713 C1704 1.429 . S
C1713 N1710 1.350 . S
C1713 C1712 1.434 . S
C1714 C1715 1.369 . S
C1714 C1716 1.419 . S
C1714 H1718 0.930 . S
C1715 C1714 1.369 . S
C1715 C1724 1.429 . S
C1716 C1714 1.419 . S
C1716 C1717 1.363 . S
C1716 H1719 0.929 . S
C1717 C1716 1.363 . S
C1717 C1723 1.428 . S
H1718 C1714 0.930 . S
H1719 C1716 0.929 . S
S1720 N1721 1.613 1_565 S
S1720 N1722 1.610 . S
N1721 S1720 1.613 1_545 S
N1721 C1724 1.350 . S
N1722 S1720 1.610 . S
N1722 C1723 1.351 1_565 S
C1723 C1717 1.428 . S
C1723 N1722 1.351 1_545 S
C1723 C1724 1.434 . S
C1724 C1715 1.429 . S
C1724 N1721 1.350 . S
C1724 C1723 1.434 . S
C1725 C1726 1.369 . S
C1725 C1727 1.419 . S
C1725 H1729 0.930 . S
C1726 C1725 1.369 . S
C1726 C1735 1.429 . S
C1727 C1725 1.419 . S
C1727 C1728 1.363 . S
C1727 H1730 0.929 . S
C1728 C1727 1.363 . S
C1728 C1734 1.428 . S
H1729 C1725 0.930 . S
H1730 C1727 0.929 . S
S1731 N1732 1.613 . S
S1731 N1733 1.610 . S
N1732 S1731 1.613 . S
N1732 C1735 1.350 . S
N1733 S1731 1.610 . S
N1733 C1734 1.351 . S
C1734 C1728 1.428 . S
C1734 N1733 1.351 . S
C1734 C1735 1.434 . S
C1735 C1726 1.429 . S
C1735 N1732 1.350 . S
C1735 C1734 1.434 . S
C1736 C1737 1.369 . S
C1736 C1738 1.419 . S
C1736 H1740 0.930 . S
C1737 C1736 1.369 . S
C1737 C1746 1.429 . S
C1738 C1736 1.419 . S
C1738 C1739 1.363 . S
C1738 H1741 0.929 . S
C1739 C1738 1.363 . S
C1739 C1745 1.428 . S
H1740 C1736 0.930 . S
H1741 C1738 0.929 . S
S1742 N1743 1.613 . S
S1742 N1744 1.610 . S
N1743 S1742 1.613 . S
N1743 C1746 1.350 . S
N1744 S1742 1.610 . S
N1744 C1745 1.351 . S
C1745 C1739 1.428 . S
C1745 N1744 1.351 . S
C1745 C1746 1.434 . S
C1746 C1737 1.429 . S
C1746 N1743 1.350 . S
C1746 C1745 1.434 . S
C1747 C1748 1.369 . S
C1747 C1749 1.419 . S
C1747 H1751 0.930 . S
C1748 C1747 1.369 . S
C1748 C1757 1.429 . S
C1749 C1747 1.419 . S
C1749 C1750 1.363 . S
C1749 H1752 0.929 . S
C1750 C1749 1.363 . S
C1750 C1756 1.428 . S
H1751 C1747 0.930 . S
H1752 C1749 0.929 . S
S1753 N1754 1.613 . S
S1753 N1755 1.610 . S
N1754 S1753 1.613 . S
N1754 C1757 1.350 . S
N1755 S1753 1.610 . S
N1755 C1756 1.351 . S
C1756 C1750 1.428 . S
C1756 N1755 1.351 . S
C1756 C1757 1.434 . S
C1757 C1748 1.429 . S
C1757 N1754 1.350 . S
C1757 C1756 1.434 . S
C1758 C1759 1.369 . S
C1758 C1760 1.419 . S
C1758 H1762 0.930 . S
C1759 C1758 1.369 . S
C1759 C1768 1.429 . S
C1760 C1758 1.419 . S
C1760 C1761 1.363 . S
C1760 H1763 0.929 1_565 S
C1761 C1760 1.363 . S
C1761 C1767 1.428 . S
H1762 C1758 0.930 . S
H1763 C1760 0.929 1_545 S
S1764 N1765 1.613 . S
S1764 N1766 1.610 . S
N1765 S1764 1.613 . S
N1765 C1768 1.350 . S
N1766 S1764 1.610 . S
N1766 C1767 1.351 . S
C1767 C1761 1.428 . S
C1767 N1766 1.351 . S
C1767 C1768 1.434 . S
C1768 C1759 1.429 . S
C1768 N1765 1.350 . S
C1768 C1767 1.434 . S
C1769 C1770 1.369 . S
C1769 C1771 1.419 . S
C1769 H1773 0.930 . S
C1770 C1769 1.369 . S
C1770 C1779 1.429 . S
C1771 C1769 1.419 . S
C1771 C1772 1.363 . S
C1771 H1774 0.929 . S
C1772 C1771 1.363 . S
C1772 C1778 1.428 . S
H1773 C1769 0.930 . S
H1774 C1771 0.929 . S
S1775 N1776 1.613 . S
S1775 N1777 1.610 . S
N1776 S1775 1.613 . S
N1776 C1779 1.350 . S
N1777 S1775 1.610 . S
N1777 C1778 1.351 . S
C1778 C1772 1.428 . S
C1778 N1777 1.351 . S
C1778 C1779 1.434 . S
C1779 C1770 1.429 . S
C1779 N1776 1.350 . S
C1779 C1778 1.434 . S
C727 C381 1.236 . S
C725 C241 1.341 . S
C738 C384 1.481 . S
C736 C272 1.604 . S
C749 C372 1.138 . S
C747 C249 1.221 . S
C758 C206 1.769 . S
C760 C385 1.605 . S
C771 C416 1.246 . S
C769 C125 1.339 . S
C780 C142 1.792 . S
C782 C443 1.613 . S
C793 C415 1.134 . S
C791 C169 1.210 . S
C802 C103 1.662 . S
C804 C434 1.526 . S
C813 C315 1.361 . S
C815 C447 1.251 . S
C824 C338 1.728 . S
C826 C478 1.568 1_545 S
C837 C536 1.246 . S
C835 C183 1.359 . S
C848 C558 1.569 . S
C846 C293 1.692 . S
C859 C446 1.137 . S
C857 C87 1.214 . S
C870 C477 1.573 . S
C868 C21 1.682 . S
C879 C43 1.208 . S
C881 C527 1.124 . S
C890 C65 1.755 . S
C892 C567 1.609 . S
C901 C37 1.360 . S
C903 C505 1.257 . S
C914 C571 1.273 . S
C912 C197 1.386 . S
C923 C307 1.767 . S
C925 C602 1.636 . S
C936 C651 1.116 . S
C934 C329 1.196 . S
C945 C150 1.766 . S
C947 C509 1.586 1_655 S
C958 C570 1.106 . S
C956 C227 1.177 . S
C969 C601 1.496 . S
C967 C274 1.619 . S
C980 C682 1.503 . S
C978 C208 1.657 . S
C989 C73 1.339 . S
C991 C412 1.232 . S
C1000 C7 1.626 . S
C1002 C353 1.508 . S
C1013 C403 1.139 . S
C1011 C29 1.215 . S
C1022 C51 1.787 . S
C1024 C354 1.635 1_554 S
C1033 C323 1.349 . S
C1035 C695 1.242 . S
C1044 C340 1.778 . S
C1046 C722 1.611 1_556 S
C1057 C694 1.134 . S
C1055 C191 1.220 . S
C1066 C301 1.653 . S
C1068 C713 1.519 1_556 S
C1077 C117 1.345 . S
C1079 C629 1.249 . S
C1090 C633 1.564 . S
C1088 C140 1.734 . S
C1101 C664 1.239 . S
C1099 C161 1.352 . S
C1112 C589 1.574 1_565 S
C1110 C95 1.693 . S
C1123 C620 1.124 . S
C1121 C235 1.206 . S
C1132 C282 1.647 . S
C1134 C632 1.523 . S
C1143 C263 1.198 . S
C1145 C663 1.125 . S
C1156 C598 1.561 1_565 S
C1154 C216 1.722 . S
C1165 C257 1.364 . S
C1167 C660 1.249 . S
C1178 C540 1.269 . S
C1176 C175 1.381 . S
C1187 C109 1.761 . S
C1189 C474 1.616 1_455 S
C1198 C131 1.194 . S
C1200 C496 1.114 . S
C1209 C348 1.773 . S
C1211 C691 1.609 . S
C1220 C81 1.178 . S
C1222 C539 1.107 . S
C1231 C15 1.641 . S
C1233 C465 1.538 . S
C1244 C508 1.534 1_655 S
C1242 C59 1.679 . S
C1255 C352 1.659 . S
C1253 C351 1.582 . S
C1266 C402 1.932 . S
C1264 C194 1.874 . S
C1277 C362 1.412 . S
C1275 C304 1.491 . S
C1288 C413 1.754 . S
C1286 C326 1.773 . S
C1299 C433 1.624 . S
C1297 C205 1.539 . S
C1308 C230 1.752 . S
C1310 C424 1.718 . S
C1319 C271 1.469 . S
C1321 C444 1.440 . S
C1330 C250 1.827 . S
C1332 C414 1.876 . S
C1343 C464 1.584 . S
C1341 C62 1.518 . S
C1354 C506 1.742 . S
C1352 C84 1.755 . S
C1363 C18 1.508 . S
C1365 C507 1.564 . S
C1376 C538 1.874 . S
C1374 C40 1.825 . S
C1385 C147 1.514 . S
C1387 C475 1.475 . S
C1398 C495 1.895 . S
C1396 C164 1.851 . S
C1409 C517 1.408 . S
C1407 C98 1.492 . S
C1418 C120 1.778 . S
C1420 C548 1.765 . S
C1431 C476 1.531 . S
C1429 C96 1.466 . S
C1440 C10 1.483 . S
C1442 C588 1.533 . S
C1451 C32 1.754 . S
C1453 C630 1.741 . S
C1462 C54 1.527 . S
C1464 C641 1.458 . S
C1475 C537 1.775 . S
C1473 C238 1.797 . S
C1486 C599 1.498 . S
C1484 C337 1.547 . S
C1495 C184 1.833 . S
C1497 C619 1.882 . S
C1508 C662 1.901 . S
C1506 C316 1.855 . S
C1519 C383 1.660 . S
C1517 C153 1.573 . S
C1528 C172 1.866 . S
C1530 C371 1.927 . S
C1539 C106 1.485 . S
C1541 C393 1.411 . S
C1550 C128 1.768 . S
C1552 C382 1.754 . S
C1563 C712 1.570 . S
C1561 C52 1.526 . S
C1574 C703 1.724 . S
C1572 C74 1.752 . S
C1583 C8 1.456 . S
C1585 C723 1.378 . S
C1594 C30 1.835 . S
C1596 C693 1.879 . S
C1605 C219 1.545 . S
C1607 C600 1.632 . S
C1618 C661 1.729 . S
C1616 C228 1.744 . S
C1629 C681 1.610 . S
C1627 C285 1.528 . S
C1638 C260 1.815 . S
C1640 C569 1.863 . S
C1651 C610 1.477 . S
C1649 C345 1.511 . S
C1660 C186 1.866 . S
C1662 C650 1.911 . S
C1673 C692 1.409 . S
C1671 C296 1.494 . S
C1682 C318 1.796 . S
C1684 C579 1.785 . S
C1693 C294 1.464 . S
C1695 C631 1.525 . S
C1704 C279 1.497 . S
C1706 C557 1.587 . S
C1717 C455 1.754 . S
C1715 C252 1.766 . S
C1726 C213 1.544 . S
C1728 C486 1.511 . S
C1737 C76 1.780 . S
C1739 C672 1.763 . S
C1748 C139 1.557 . S
C1750 C568 1.498 . S
C1761 C445 1.866 . S
C1759 C162 1.815 . S
C1770 C118 1.844 . S
C1772 C526 1.886 . S
