# Generated by pormake.
# Topology ssa, (4,4)-cn, num edge types: 1
# Building blocks:
#     Node 0, Type 0, BuildingBlock: KOZSID_clean_sbu_0, # of connection points: 4
#     Node 1, Type 0, BuildingBlock: KOZSID_clean_sbu_0, # of connection points: 4
#     Node 2, Type 0, BuildingBlock: KOZSID_clean_sbu_0, # of connection points: 4
#     Node 3, Type 0, BuildingBlock: KOZSID_clean_sbu_0, # of connection points: 4
#     Node 4, Type 0, BuildingBlock: KOZSID_clean_sbu_0, # of connection points: 4
#     Node 5, Type 0, BuildingBlock: KOZSID_clean_sbu_0, # of connection points: 4
#     Node 6, Type 1, BuildingBlock: MUDLON_clean_sbu_0, # of connection points: 4
#     Node 7, Type 1, BuildingBlock: MUDLON_clean_sbu_0, # of connection points: 4
#     Node 8, Type 1, BuildingBlock: MUDLON_clean_sbu_0, # of connection points: 4
#     Node 9, Type 1, BuildingBlock: MUDLON_clean_sbu_0, # of connection points: 4
#     Node 10, Type 1, BuildingBlock: MUDLON_clean_sbu_0, # of connection points: 4
#     Node 11, Type 1, BuildingBlock: MUDLON_clean_sbu_0, # of connection points: 4
#     Edge 12, Type (0, 1), BuildingBlock: EZIPEK_clean_linker_0, # of connection points: 2
#     Edge 13, Type (0, 1), BuildingBlock: EZIPEK_clean_linker_0, # of connection points: 2
#     Edge 14, Type (0, 1), BuildingBlock: EZIPEK_clean_linker_0, # of connection points: 2
#     Edge 15, Type (0, 1), BuildingBlock: EZIPEK_clean_linker_0, # of connection points: 2
#     Edge 16, Type (0, 1), BuildingBlock: EZIPEK_clean_linker_0, # of connection points: 2
#     Edge 17, Type (0, 1), BuildingBlock: EZIPEK_clean_linker_0, # of connection points: 2
#     Edge 18, Type (0, 1), BuildingBlock: EZIPEK_clean_linker_0, # of connection points: 2
#     Edge 19, Type (0, 1), BuildingBlock: EZIPEK_clean_linker_0, # of connection points: 2
#     Edge 20, Type (0, 1), BuildingBlock: EZIPEK_clean_linker_0, # of connection points: 2
#     Edge 21, Type (0, 1), BuildingBlock: EZIPEK_clean_linker_0, # of connection points: 2
#     Edge 22, Type (0, 1), BuildingBlock: EZIPEK_clean_linker_0, # of connection points: 2
#     Edge 23, Type (0, 1), BuildingBlock: EZIPEK_clean_linker_0, # of connection points: 2
#     Edge 24, Type (0, 1), BuildingBlock: EZIPEK_clean_linker_0, # of connection points: 2
#     Edge 25, Type (0, 1), BuildingBlock: EZIPEK_clean_linker_0, # of connection points: 2
#     Edge 26, Type (0, 1), BuildingBlock: EZIPEK_clean_linker_0, # of connection points: 2
#     Edge 27, Type (0, 1), BuildingBlock: EZIPEK_clean_linker_0, # of connection points: 2
#     Edge 28, Type (0, 1), BuildingBlock: EZIPEK_clean_linker_0, # of connection points: 2
#     Edge 29, Type (0, 1), BuildingBlock: EZIPEK_clean_linker_0, # of connection points: 2
#     Edge 30, Type (0, 1), BuildingBlock: EZIPEK_clean_linker_0, # of connection points: 2
#     Edge 31, Type (0, 1), BuildingBlock: EZIPEK_clean_linker_0, # of connection points: 2
#     Edge 32, Type (0, 1), BuildingBlock: EZIPEK_clean_linker_0, # of connection points: 2
#     Edge 33, Type (0, 1), BuildingBlock: EZIPEK_clean_linker_0, # of connection points: 2
#     Edge 34, Type (0, 1), BuildingBlock: EZIPEK_clean_linker_0, # of connection points: 2
#     Edge 35, Type (0, 1), BuildingBlock: EZIPEK_clean_linker_0, # of connection points: 2
# Relax obj value: 0.017
# Max RMSD: 0.037
# Mean RMSD: 0.023
data_MOF--net-ssa--node1-KOZSID_clean_sbu_0--node2-MUDLON_clean_sbu_0--edge1-EZIPEK_clean_linker_0
_symmetry_space_group_name_H-M    P1
_symmetry_Int_Tables_number       1
_symmetry_cell_setting            triclinic
loop_
_symmetry_equiv_pos_as_xyz
'x, y, z'
_cell_length_a     36.315438
_cell_length_b     37.692429
_cell_length_c     34.267277
_cell_angle_alpha  86.222975
_cell_angle_beta   90.431399
_cell_angle_gamma 123.79924
loop_
_atom_site_label
_atom_site_type_symbol
_atom_site_fract_x
_atom_site_fract_y
_atom_site_fract_z
_atom_type_partial_charge
C0 C 0.95228 0.52339 1.00515 0.0
C1 C 0.9121 0.51428 0.01963 0.0
C2 C 0.90493 0.49358 0.05598 0.0
C3 C 0.94081 0.49089 0.06158 0.0
N4 N 0.97022 0.50869 0.03111 0.0
Co5 Co 0.02487 0.50876 0.02596 0.0
N6 N 0.00493 0.46298 0.0695 0.0
C7 C 0.97122 0.45004 0.09538 0.0
C8 C 0.96655 0.4206 0.1241 0.0
C9 C 1.00004 0.41524 0.11659 0.0
C10 C 0.02337 0.44167 0.08339 0.0
N11 N 0.07977 0.50914 0.02027 0.0
C12 C 0.09039 0.48217 0.03654 0.0
C13 C 0.13171 0.49354 0.02272 0.0
C14 C 0.14843 0.52994 0.9985 0.0
C15 C 0.11629 0.53845 0.99837 0.0
N16 N 0.04449 0.55423 0.98252 0.0
C17 C 0.08598 0.58034 0.96714 0.0
C18 C 0.08948 0.60841 0.93735 0.0
C19 C 0.04751 0.59934 0.93361 0.0
C20 C 0.02075 0.56608 0.96134 0.0
N21 N 0.05448 0.55335 0.06422 0.0
C22 C 0.10288 0.6178 0.11668 0.0
C23 C 0.08071 0.62356 0.08563 0.0
C24 C 0.05667 0.59094 0.05978 0.0
C25 C 0.09866 0.57869 0.12165 0.0
C26 C 0.07403 0.54712 0.09581 0.0
N27 N 0.99538 0.46448 0.98799 0.0
C28 C 0.99368 0.44032 0.92394 0.0
C29 C 0.9506 0.40418 0.93172 0.0
C30 C 0.93108 0.39797 0.96881 0.0
C31 C 0.95369 0.42865 0.99622 0.0
C32 C 0.01561 0.46972 0.95252 0.0
H33 H 0.93689 0.42365 0.02378 0.0
H34 H 0.04854 0.49727 0.94537 0.0
H35 H 0.04006 0.59629 0.0362 0.0
H36 H 0.07118 0.51769 0.10186 0.0
C37 C 0.94361 0.46492 0.09081 0.0
C38 C 0.97318 0.54716 0.9673 0.0
C39 C 0.06698 0.45134 0.07053 0.0
C40 C 0.11794 0.57165 0.97584 0.0
H41 H 0.88998 0.52133 1.00535 0.0
H42 H 0.8758 0.47997 0.07504 0.0
H43 H 0.9422 0.4054 0.1481 0.0
H44 H 0.00762 0.39569 0.13477 0.0
H45 H 0.14904 0.47853 0.03119 0.0
H46 H 0.18031 0.54813 0.98298 0.0
H47 H 0.11851 0.63116 0.9191 0.0
H48 H 0.03755 0.61494 0.9126 0.0
H49 H 0.0824 0.65314 0.08115 0.0
H50 H 0.11444 0.57244 0.1456 0.0
H51 H 0.01002 0.44615 0.89569 0.0
H52 H 0.89786 0.37036 0.976 0.0
C53 C 0.57242 0.00872 0.60562 0.0
C54 C 0.56943 0.98647 0.64063 0.0
C55 C 0.52803 0.94948 0.64299 0.0
C56 C 0.50816 0.95114 0.60935 0.0
N57 N 0.53462 0.9867 0.58539 0.0
Co58 Co 0.51816 0.00228 0.53406 0.0
N59 N 0.45559 0.95058 0.53984 0.0
C60 C 0.43683 0.92264 0.57169 0.0
C61 C 0.39387 0.88942 0.56659 0.0
C62 C 0.38502 0.89607 0.52899 0.0
C63 C 0.42329 0.93298 0.51319 0.0
N64 N 0.50228 0.01623 0.48161 0.0
C65 C 0.46671 0.99118 0.45957 0.0
C66 C 0.47121 0.01087 0.42262 0.0
C67 C 0.51136 0.04924 0.4209 0.0
C68 C 0.52915 0.05073 0.45667 0.0
N69 N 0.58016 0.055 0.52905 0.0
C70 C 0.59701 0.0861 0.49952 0.0
C71 C 0.63917 0.12027 0.50546 0.0
C72 C 0.64954 0.11096 0.54141 0.0
C73 C 0.61299 0.07147 0.55531 0.0
N74 N 0.53598 0.96886 0.50705 0.0
C75 C 0.54629 0.91771 0.45841 0.0
C76 C 0.57058 0.962 0.45064 0.0
C77 C 0.56498 0.9869 0.47525 0.0
C78 C 0.51984 0.89977 0.4926 0.0
C79 C 0.51567 0.9259 0.51672 0.0
N80 N 0.50029 0.03619 0.56105 0.0
C81 C 0.50016 0.10034 0.56349 0.0
C82 C 0.48781 0.09097 0.60323 0.0
C83 C 0.47945 0.0526 0.62092 0.0
C84 C 0.4849 0.02552 0.59931 0.0
C85 C 0.50647 0.07293 0.54319 0.0
H86 H 0.47742 0.99661 0.6146 0.0
H87 H 0.517 0.0826 0.51326 0.0
H88 H 0.58317 0.02042 0.4672 0.0
H89 H 0.49444 0.91043 0.54218 0.0
C90 C 0.46299 0.92363 0.60233 0.0
C91 C 0.61012 0.05228 0.59464 0.0
C92 C 0.42881 0.94799 0.47185 0.0
C93 C 0.57219 0.08229 0.46677 0.0
H94 H 0.59395 0.99679 0.66293 0.0
H95 H 0.51331 0.92544 0.66735 0.0
H96 H 0.37264 0.86194 0.5868 0.0
H97 H 0.35472 0.87497 0.51418 0.0
H98 H 0.44841 0.99823 0.39897 0.0
H99 H 0.52659 0.07242 0.39595 0.0
H100 H 0.65958 0.14897 0.48631 0.0
H101 H 0.68006 0.13131 0.55623 0.0
H102 H 0.59243 0.97706 0.42489 0.0
H103 H 0.50159 0.86559 0.50009 0.0
H104 H 0.50578 0.1292 0.54837 0.0
H105 H 0.46874 0.04355 0.65146 0.0
C106 C 0.58615 0.56137 0.95949 0.0
C107 C 0.59979 0.59004 0.92672 0.0
C108 C 0.56688 0.59663 0.91995 0.0
C109 C 0.53534 0.57196 0.949 0.0
N110 N 0.54666 0.55098 0.97462 0.0
Co111 Co 0.50995 0.51067 0.02061 0.0
N112 N 0.45981 0.51747 0.00899 0.0
C113 C 0.45785 0.541 0.97848 0.0
C114 C 0.42197 0.54392 0.98078 0.0
C115 C 0.40027 0.52189 0.01523 0.0
C116 C 0.42399 0.50633 0.03192 0.0
N117 N 0.47319 0.47043 0.06662 0.0
C118 C 0.43476 0.46171 0.08279 0.0
C119 C 0.42123 0.4334 0.11581 0.0
C120 C 0.45314 0.42523 0.1216 0.0
C121 C 0.48403 0.44873 0.09179 0.0
N122 N 0.56008 0.50395 0.03236 0.0
C123 C 0.56163 0.47986 0.06258 0.0
C124 C 0.59757 0.47705 0.06044 0.0
C125 C 0.61986 0.49989 0.02646 0.0
C126 C 0.59645 0.51589 0.00988 0.0
N127 N 0.53484 0.55941 0.05451 0.0
C128 C 0.55296 0.62169 0.10649 0.0
C129 C 0.55295 0.58564 0.11911 0.0
C130 C 0.54475 0.55549 0.09258 0.0
C131 C 0.54785 0.62795 0.0668 0.0
C132 C 0.5385 0.59651 0.0416 0.0
N133 N 0.48541 0.46198 0.98649 0.0
C134 C 0.48078 0.39768 0.97163 0.0
C135 C 0.47866 0.4063 0.93175 0.0
C136 C 0.47324 0.43944 0.92052 0.0
C137 C 0.47595 0.46631 0.94836 0.0
C138 C 0.48415 0.42581 0.99835 0.0
H139 H 0.47294 0.49183 0.93796 0.0
H140 H 0.48799 0.41876 0.02807 0.0
H141 H 0.54471 0.52842 0.10387 0.0
H142 H 0.53287 0.60239 0.01212 0.0
C143 C 0.49369 0.56569 0.95179 0.0
C144 C 0.60875 0.54056 0.97186 0.0
C145 C 0.41266 0.48301 0.07053 0.0
C146 C 0.52558 0.45486 0.08896 0.0
H147 H 0.62939 0.60301 0.90844 0.0
H148 H 0.56531 0.61569 0.89579 0.0
H149 H 0.41417 0.56234 0.96107 0.0
H150 H 0.37127 0.51909 0.02734 0.0
H151 H 0.39243 0.42164 0.13482 0.0
H152 H 0.45479 0.40628 0.14582 0.0
H153 H 0.6051 0.45829 0.07995 0.0
H154 H 0.64908 0.50291 0.01466 0.0
H155 H 0.55803 0.58017 0.14952 0.0
H156 H 0.54908 0.65618 0.05561 0.0
H157 H 0.48266 0.37092 0.98182 0.0
H158 H 0.46938 0.44603 0.89005 0.0
C159 C 0.91211 0.42662 0.52956 0.0
C160 C 0.87011 0.39808 0.51617 0.0
C161 C 0.86859 0.41424 0.47958 0.0
C162 C 0.90944 0.45187 0.47277 0.0
N163 N 0.93665 0.4602 0.5027 0.0
Co164 Co 0.9966 0.51325 0.50715 0.0
N165 N 0.98599 0.54562 0.46518 0.0
C166 C 0.953 0.52795 0.43966 0.0
C167 C 0.955 0.55732 0.41236 0.0
C168 C 0.99213 0.59585 0.42054 0.0
C169 C 0.01082 0.58788 0.45259 0.0
N170 N 0.05676 0.56602 0.51216 0.0
C171 C 0.07461 0.60683 0.49709 0.0
C172 C 0.11767 0.63391 0.50917 0.0
C173 C 0.12769 0.60892 0.53122 0.0
C174 C 0.09021 0.56818 0.53179 0.0
N175 N 0.0065 0.48088 0.54944 0.0
C176 C 0.04591 0.49149 0.5632 0.0
C177 C 0.04202 0.46327 0.59305 0.0
C178 C 0.99734 0.43315 0.59849 0.0
C179 C 0.97649 0.44485 0.57165 0.0
N180 N 0.02106 0.49496 0.46761 0.0
C181 C 0.06612 0.47595 0.41551 0.0
C182 C 0.04092 0.44718 0.44745 0.0
C183 C 0.01804 0.45701 0.47286 0.0
C184 C 0.0663 0.51283 0.40896 0.0
C185 C 0.0436 0.52153 0.43503 0.0
N186 N 0.97258 0.53137 0.54633 0.0
C187 C 0.97195 0.54913 0.61232 0.0
C188 C 0.93075 0.54358 0.60727 0.0
C189 C 0.91304 0.53578 0.56997 0.0
C190 C 0.934 0.52896 0.54014 0.0
C191 C 0.99261 0.5436 0.58135 0.0
H192 H 0.918 0.52013 0.51259 0.0
H193 H 0.02357 0.54686 0.58656 0.0
H194 H 0.99852 0.43416 0.49698 0.0
H195 H 0.04523 0.55036 0.42852 0.0
C196 C 0.91934 0.48424 0.44388 0.0
C197 C 0.92832 0.42062 0.5673 0.0
C198 C 0.05574 0.61954 0.46542 0.0
C199 C 0.08385 0.53226 0.5535 0.0
H200 H 0.84312 0.36906 0.53141 0.0
H201 H 0.84002 0.40157 0.46138 0.0
H202 H 0.9324 0.55141 0.38904 0.0
H203 H 0.00508 0.62602 0.40369 0.0
H204 H 0.14029 0.66777 0.50099 0.0
H205 H 0.1586 0.61927 0.54521 0.0
H206 H 0.06826 0.46566 0.61037 0.0
H207 H 0.98179 0.4061 0.62006 0.0
H208 H 0.03917 0.41764 0.45279 0.0
H209 H 0.08463 0.53533 0.38407 0.0
H210 H 0.98722 0.55593 0.64052 0.0
H211 H 0.88195 0.53262 0.56456 0.0
C212 C 0.44592 0.01749 0.10106 0.0
C213 C 0.4467 0.04319 0.12871 0.0
C214 C 0.48524 0.08252 0.12185 0.0
C215 C 0.50545 0.07874 0.09027 0.0
N216 N 0.48206 0.0395 0.07636 0.0
Co217 Co 0.49761 0.02164 0.02871 0.0
N218 N 0.55484 0.07908 0.01949 0.0
C219 C 0.57281 0.11129 0.04362 0.0
C220 C 0.61264 0.14677 0.02981 0.0
C221 C 0.62022 0.13689 0.99443 0.0
C222 C 0.58421 0.09591 0.98854 0.0
N223 N 0.51182 0.00513 0.97927 0.0
C224 C 0.54276 0.03016 0.95032 0.0
C225 C 0.53712 0.00734 0.91811 0.0
C226 C 0.50127 0.9666 0.92684 0.0
C227 C 0.48681 0.96693 0.96356 0.0
N228 N 0.44156 0.96342 0.03931 0.0
C229 C 0.4274 0.92894 0.01863 0.0
C230 C 0.39043 0.89209 0.03489 0.0
C231 C 0.38068 0.90353 0.06829 0.0
C232 C 0.41211 0.94705 0.07029 0.0
N233 N 0.46604 0.04163 0.99631 0.0
C234 C 0.43364 0.07314 0.93877 0.0
C235 C 0.41586 0.02944 0.94412 0.0
C236 C 0.43244 0.01442 0.97293 0.0
C237 C 0.46475 0.10027 0.96496 0.0
C238 C 0.48006 0.08385 0.99371 0.0
N239 N 0.5292 1.00101 0.06105 0.0
C240 C 0.54427 0.9466 0.07679 0.0
C241 C 0.56232 0.96377 0.11224 0.0
C242 C 0.5662 0.00153 0.12055 0.0
C243 C 0.54957 0.0195 0.09476 0.0
C244 C 0.52848 0.96576 0.05169 0.0
H245 H 0.55242 0.04761 0.10331 0.0
H246 H 0.51464 0.95057 0.02542 0.0
H247 H 0.41888 0.98095 0.97456 0.0
H248 H 0.50463 0.10617 0.01243 0.0
C249 C 0.5479 0.1101 0.07509 0.0
C250 C 0.41286 0.97134 0.10233 0.0
C251 C 0.57771 0.0757 0.95192 0.0
C252 C 0.44885 0.9326 0.98344 0.0
H253 H 0.42274 0.03393 0.15237 0.0
H254 H 0.4977 0.11015 0.13865 0.0
H255 H 0.63246 0.17715 0.04277 0.0
H256 H 0.64811 0.15815 0.97446 0.0
H257 H 0.55645 0.0191 0.89086 0.0
H258 H 0.48666 0.94024 0.90814 0.0
H259 H 0.3728 0.86059 0.02388 0.0
H260 H 0.35357 0.8821 0.08888 0.0
H261 H 0.3911 0.00737 0.92472 0.0
H262 H 0.47867 0.13431 0.9621 0.0
H263 H 0.54097 0.91757 0.06904 0.0
H264 H 0.58029 0.01607 0.14767 0.0
C265 C 0.54899 0.60855 0.48361 0.0
C266 C 0.54048 0.63899 0.49171 0.0
C267 C 0.51372 0.62354 0.5247 0.0
C268 C 0.50708 0.58455 0.53473 0.0
N269 N 0.52858 0.57438 0.51051 0.0
Co270 Co 0.52421 0.51877 0.51208 0.0
N271 N 0.47946 0.49344 0.55688 0.0
C272 C 0.46295 0.51271 0.57512 0.0
C273 C 0.434 0.48795 0.60584 0.0
C274 C 0.43252 0.45088 0.60782 0.0
C275 C 0.46081 0.4553 0.57811 0.0
N276 N 0.51987 0.46323 0.51338 0.0
C277 C 0.49768 0.42813 0.53899 0.0
C278 C 0.50529 0.39722 0.53037 0.0
C279 C 0.53369 0.41353 0.49846 0.0
C280 C 0.54188 0.45333 0.48951 0.0
N281 N 0.56912 0.54419 0.46734 0.0
C282 C 0.58663 0.52542 0.4498 0.0
C283 C 0.61644 0.55059 0.41973 0.0
C284 C 0.61739 0.58736 0.41733 0.0
C285 C 0.58781 0.58233 0.44607 0.0
N286 N 0.57256 0.53989 0.55069 0.0
C287 C 0.62794 0.54947 0.6145 0.0
C288 C 0.63447 0.53963 0.57718 0.0
C289 C 0.60604 0.53374 0.54667 0.0
C290 C 0.59982 0.56431 0.61499 0.0
C291 C 0.57204 0.5583 0.58368 0.0
N292 N 0.47528 0.49685 0.47407 0.0
C293 C 0.44029 0.4607 0.41538 0.0
C294 C 0.40553 0.46594 0.42081 0.0
C295 C 0.40624 0.48685 0.45319 0.0
C296 C 0.441 0.50184 0.47921 0.0
C297 C 0.47459 0.47628 0.44215 0.0
H298 H 0.43951 0.51759 0.50322 0.0
H299 H 0.50038 0.47164 0.43631 0.0
H300 H 0.61142 0.52353 0.5203 0.0
H301 H 0.54993 0.56818 0.58712 0.0
C302 C 0.47711 0.55489 0.56398 0.0
C303 C 0.57506 0.61261 0.44916 0.0
C304 C 0.47162 0.42386 0.57333 0.0
C305 C 0.57252 0.48327 0.46086 0.0
H306 H 0.55138 0.66878 0.47502 0.0
H307 H 0.49917 0.63812 0.53865 0.0
H308 H 0.41705 0.49636 0.62523 0.0
H309 H 0.41388 0.42413 0.6294 0.0
H310 H 0.49266 0.36656 0.54615 0.0
H311 H 0.54794 0.39875 0.48433 0.0
H312 H 0.63422 0.54257 0.40094 0.0
H313 H 0.63628 0.61417 0.39585 0.0
H314 H 0.66121 0.53603 0.57074 0.0
H315 H 0.59864 0.58074 0.63906 0.0
H316 H 0.44119 0.44502 0.39037 0.0
H317 H 0.3801 0.49187 0.45827 0.0
Mg318 Mg 0.222 0.44161 0.24936 0.0
C319 C 0.15438 0.39734 0.18079 0.0
O320 O 0.17855 0.38436 0.16787 0.0
C321 C 0.25579 0.41825 0.3231 0.0
O322 O 0.23082 0.42759 0.34101 0.0
C323 C 0.16722 0.44721 0.30707 0.0
O324 O 0.14689 0.40641 0.30114 0.0
O325 O 0.20409 0.47391 0.28871 0.0
O326 O 0.1612 0.41184 0.21457 0.0
O327 O 0.27558 0.47932 0.20473 0.0
C328 C 0.28417 0.45575 0.18721 0.0
O329 O 0.26203 0.41469 0.19798 0.0
O330 O 0.25258 0.41458 0.28623 0.0
Mg331 Mg 0.77331 0.2319 0.7618 0.0
C332 C 0.71766 0.14689 0.72394 0.0
O333 O 0.69223 0.13781 0.75503 0.0
C334 C 0.86146 0.29722 0.80208 0.0
O335 O 0.87264 0.31886 0.76785 0.0
C336 C 0.71439 0.18766 0.83318 0.0
O337 O 0.75282 0.1956 0.84422 0.0
O338 O 0.71225 0.20259 0.79926 0.0
O339 O 0.75677 0.18096 0.72221 0.0
O340 O 0.79251 0.28456 0.71687 0.0
C341 C 0.82235 0.29007 0.69284 0.0
O342 O 0.83654 0.26477 0.69758 0.0
O343 O 0.82636 0.2594 0.80558 0.0
Mg344 Mg 0.58436 0.79429 0.2771 0.0
C345 C 0.58173 0.84983 0.21801 0.0
O346 O 0.54165 0.81504 0.2241 0.0
C347 C 0.58788 0.73224 0.32728 0.0
O348 O 0.5467 0.71549 0.31707 0.0
C349 C 0.5479 0.80283 0.3548 0.0
O350 O 0.55299 0.77291 0.36968 0.0
O351 O 0.55192 0.81162 0.31795 0.0
O352 O 0.61351 0.85198 0.23655 0.0
O353 O 0.55023 0.74242 0.23828 0.0
C354 C 0.57789 0.74679 0.21252 0.0
O355 O 0.61816 0.78178 0.21073 0.0
O356 O 0.61735 0.77033 0.31365 0.0
Mg357 Mg 0.79655 0.56114 0.80339 0.0
C358 C 0.73906 0.55852 0.74314 0.0
O359 O 0.72541 0.51912 0.75521 0.0
C360 C 0.8559 0.559 0.8593 0.0
O361 O 0.82245 0.51939 0.8556 0.0
C362 C 0.7427 0.55873 0.86498 0.0
O363 O 0.77529 0.59897 0.85721 0.0
O364 O 0.74187 0.53009 0.84642 0.0
O365 O 0.77267 0.58928 0.75927 0.0
O366 O 0.81302 0.52796 0.76488 0.0
C367 C 0.84014 0.55615 0.73873 0.0
O368 O 0.85043 0.59547 0.73973 0.0
O369 O 0.85592 0.58919 0.83976 0.0
Mg370 Mg 0.23375 0.80451 0.29451 0.0
C371 C 0.2192 0.74092 0.22834 0.0
O372 O 0.26234 0.76126 0.22319 0.0
C373 C 0.30735 0.86197 0.34637 0.0
O374 O 0.30046 0.88803 0.32531 0.0
C375 C 0.17563 0.77604 0.36822 0.0
O376 O 0.21441 0.79598 0.38428 0.0
O377 O 0.17399 0.78207 0.33131 0.0
O378 O 0.20337 0.75056 0.25572 0.0
O379 O 0.26339 0.85951 0.25096 0.0
C380 C 0.29898 0.86608 0.23607 0.0
O381 O 0.3131 0.84262 0.25026 0.0
O382 O 0.28617 0.82276 0.33815 0.0
Mg383 Mg 0.44452 0.23936 0.75547 0.0
C384 C 0.46002 0.20066 0.69281 0.0
O385 O 0.42315 0.19805 0.68493 0.0
C386 C 0.49802 0.32004 0.8067 0.0
O387 O 0.52814 0.3416 0.77837 0.0
C388 C 0.43002 0.17578 0.8119 0.0
O389 O 0.47258 0.20572 0.80745 0.0
O390 O 0.4029 0.17915 0.79071 0.0
O391 O 0.48223 0.22169 0.72156 0.0
O392 O 0.42169 0.26887 0.71336 0.0
C393 C 0.45452 0.29975 0.69295 0.0
O394 O 0.4941 0.3075 0.69869 0.0
O395 O 0.46703 0.28111 0.80366 0.0
C396 C 0.07579 0.39346 0.10253 0.0
C397 C 0.09136 0.43753 0.09699 0.0
C398 C 0.15155 0.45468 0.14201 0.0
C399 C 0.13233 0.41041 0.15165 0.0
N400 N 0.07431 0.33712 0.14313 0.0
N401 N 0.14323 0.5102 0.11506 0.0
C402 C 0.09402 0.37961 0.13228 0.0
C403 C 0.12893 0.46808 0.11773 0.0
N404 N 0.04425 0.36501 0.07864 0.0
N405 N 0.19307 0.48434 0.15413 0.0
H406 H 0.13305 0.52374 0.09411 0.0
H407 H 0.16461 0.53178 0.13484 0.0
H408 H 0.21154 0.47638 0.1713 0.0
H409 H 0.21126 0.51647 0.14379 0.0
H410 H 0.03444 0.33329 0.07841 0.0
H411 H 0.03048 0.3741 0.05661 0.0
H412 H 0.04369 0.31309 0.13332 0.0
H413 H 0.08718 0.32612 0.16433 0.0
C414 C 0.67763 0.07705 0.63627 0.0
C415 C 0.64112 0.07944 0.62549 0.0
C416 C 0.66275 0.13351 0.67276 0.0
C417 C 0.69537 0.1269 0.68728 0.0
N418 N 0.73322 0.09126 0.68436 0.0
N419 N 0.59567 0.10618 0.63687 0.0
C420 C 0.70297 0.09861 0.66919 0.0
C421 C 0.63295 0.1068 0.64457 0.0
N422 N 0.68818 0.05444 0.61476 0.0
N423 N 0.66118 0.16649 0.685 0.0
H424 H 0.57412 0.08886 0.61507 0.0
H425 H 0.58435 0.12013 0.65425 0.0
H426 H 0.6832 0.18757 0.70484 0.0
H427 H 0.64119 0.17567 0.67251 0.0
H428 H 0.66984 0.03792 0.59104 0.0
H429 H 0.71668 0.05451 0.61852 0.0
H430 H 0.73717 0.06766 0.67547 0.0
H431 H 0.75291 0.10746 0.70762 0.0
C432 C 0.52402 0.66026 0.13947 0.0
C433 C 0.55794 0.65259 0.13468 0.0
C434 C 0.59844 0.69906 0.1873 0.0
C435 C 0.56805 0.71152 0.18812 0.0
N436 N 0.50509 0.70851 0.16065 0.0
N437 N 0.63218 0.67248 0.14856 0.0
C438 C 0.53147 0.69317 0.16322 0.0
C439 C 0.59645 0.67407 0.15716 0.0
N440 N 0.48423 0.63555 0.12221 0.0
N441 N 0.62851 0.70999 0.21604 0.0
H442 H 0.63303 0.65616 0.12553 0.0
H443 H 0.66266 0.69114 0.16155 0.0
H444 H 0.63007 0.72692 0.23958 0.0
H445 H 0.64839 0.69808 0.21891 0.0
H446 H 0.45676 0.63648 0.12844 0.0
H447 H 0.47722 0.61138 0.10432 0.0
H448 H 0.48113 0.69973 0.13967 0.0
H449 H 0.50962 0.7328 0.17719 0.0
C450 C 0.86222 0.51003 0.65248 0.0
C451 C 0.90625 0.54507 0.64135 0.0
C452 C 0.90879 0.57835 0.70103 0.0
C453 C 0.86285 0.54755 0.70858 0.0
N454 N 0.79392 0.48653 0.68781 0.0
N455 N 0.96665 0.61773 0.651 0.0
C456 C 0.83895 0.51382 0.68348 0.0
C457 C 0.92823 0.5807 0.66453 0.0
N458 N 0.84291 0.47259 0.63454 0.0
N459 N 0.93423 0.6049 0.72913 0.0
H460 H 0.9806 0.62195 0.62319 0.0
H461 H 0.98168 0.64574 0.66558 0.0
H462 H 0.92158 0.60257 0.75713 0.0
H463 H 0.96864 0.6255 0.72611 0.0
H464 H 0.81312 0.44478 0.64467 0.0
H465 H 0.85838 0.46775 0.61204 0.0
H466 H 0.77451 0.46489 0.66728 0.0
H467 H 0.77539 0.48779 0.71004 0.0
C468 C 0.33638 0.92888 0.13573 0.0
C469 C 0.38285 0.94855 0.1381 0.0
C470 C 0.37255 0.92638 0.20822 0.0
C471 C 0.32601 0.89972 0.20404 0.0
N472 N 0.26336 0.87273 0.16208 0.0
N473 N 0.44512 0.96255 0.17642 0.0
C474 C 0.30765 0.9006 0.16748 0.0
C475 C 0.40099 0.94662 0.1744 0.0
N476 N 0.31976 0.93736 0.10321 0.0
N477 N 0.38953 0.93283 0.24476 0.0
H478 H 0.46709 0.97671 0.15224 0.0
H479 H 0.45926 0.95839 0.20136 0.0
H480 H 0.36941 0.91945 0.27019 0.0
H481 H 0.42282 0.95503 0.24999 0.0
H482 H 0.28668 0.92722 0.10132 0.0
H483 H 0.33993 0.95784 0.07952 0.0
H484 H 0.2493 0.86847 0.13474 0.0
H485 H 0.24104 0.85141 0.18424 0.0
C486 C 0.42772 0.34779 0.60421 0.0
C487 C 0.46238 0.39157 0.60641 0.0
C488 C 0.4797 0.37453 0.67122 0.0
C489 C 0.45081 0.33019 0.66602 0.0
N490 N 0.39879 0.27396 0.6261 0.0
N491 N 0.52531 0.4461 0.6401 0.0
C492 C 0.42462 0.3165 0.63235 0.0
C493 C 0.48932 0.40488 0.63952 0.0
N494 N 0.39792 0.33625 0.5752 0.0
N495 N 0.49706 0.38766 0.70698 0.0
H496 H 0.53364 0.46942 0.61744 0.0
H497 H 0.54905 0.45613 0.66145 0.0
H498 H 0.48869 0.36613 0.7313 0.0
H499 H 0.51529 0.41962 0.71353 0.0
H500 H 0.36946 0.30552 0.57411 0.0
H501 H 0.39981 0.35841 0.55395 0.0
H502 H 0.38305 0.26244 0.59997 0.0
H503 H 0.39536 0.25019 0.64612 0.0
C504 C 0.52181 0.87793 0.39725 0.0
C505 C 0.54823 0.88995 0.43081 0.0
C506 C 0.57947 0.85067 0.4106 0.0
C507 C 0.54765 0.83271 0.38095 0.0
N508 N 0.48425 0.8253 0.34945 0.0
N509 N 0.59929 0.8844 0.4719 0.0
C510 C 0.51772 0.84541 0.37505 0.0
C511 C 0.5759 0.87499 0.4384 0.0
N512 N 0.50141 0.89817 0.38601 0.0
N513 N 0.61521 0.84754 0.41046 0.0
H514 H 0.59964 0.90422 0.49196 0.0
H515 H 0.61585 0.87009 0.481 0.0
H516 H 0.62184 0.83398 0.38835 0.0
H517 H 0.64136 0.86332 0.4293 0.0
H518 H 0.48621 0.89425 0.35927 0.0
H519 H 0.50312 0.92181 0.40168 0.0
H520 H 0.45901 0.83052 0.34682 0.0
H521 H 0.47922 0.80038 0.33355 0.0
C522 C 0.6879 0.56562 0.95495 0.0
C523 C 0.64277 0.54311 0.94478 0.0
C524 C 0.66293 0.53054 0.88109 0.0
C525 C 0.70696 0.54871 0.89342 0.0
N526 N 0.75915 0.57566 0.94514 0.0
N527 N 0.58623 0.50007 0.89958 0.0
C528 C 0.71872 0.56384 0.93133 0.0
C529 C 0.62998 0.5242 0.90827 0.0
N530 N 0.70175 0.59021 0.98626 0.0
N531 N 0.65306 0.52162 0.84289 0.0
H532 H 0.56135 0.49457 0.91887 0.0
H533 H 0.57422 0.48239 0.87509 0.0
H534 H 0.67611 0.52594 0.82193 0.0
H535 H 0.62304 0.51337 0.83101 0.0
H536 H 0.73503 0.61077 0.99262 0.0
H537 H 0.6803 0.59311 1.00375 0.0
H538 H 0.76796 0.58313 0.97391 0.0
H539 H 0.78208 0.57362 0.92899 0.0
C540 C 0.11647 0.66226 0.41238 0.0
C541 C 0.08577 0.66012 0.4397 0.0
C542 C 0.11206 0.73458 0.41814 0.0
C543 C 0.13997 0.73508 0.38905 0.0
N544 N 0.16247 0.69654 0.3535 0.0
N545 N 0.05089 0.69267 0.46592 0.0
C546 C 0.13979 0.69787 0.38445 0.0
C547 C 0.08243 0.69584 0.44164 0.0
N548 N 0.12577 0.6317 0.41435 0.0
N549 N 0.1148 0.77149 0.42393 0.0
H550 H 0.0302 0.66568 0.48481 0.0
H551 H 0.04337 0.7156 0.46575 0.0
H552 H 0.13467 0.79962 0.40607 0.0
H553 H 0.09933 0.77495 0.44743 0.0
H554 H 0.15151 0.63434 0.39827 0.0
H555 H 0.11186 0.60612 0.43527 0.0
H556 H 0.1586 0.66843 0.34569 0.0
H557 H 0.18228 0.72249 0.33343 0.0
C558 C 0.44192 0.09417 0.86657 0.0
C559 C 0.42313 0.09126 0.90384 0.0
C560 C 0.39685 0.13518 0.87709 0.0
C561 C 0.41657 0.13878 0.84022 0.0
N562 N 0.44601 0.11229 0.79676 0.0
N563 N 0.37359 0.09945 0.94249 0.0
C564 C 0.43486 0.11476 0.83401 0.0
C565 C 0.39741 0.10857 0.90835 0.0
N566 N 0.46901 0.07993 0.86271 0.0
N567 N 0.3801 0.15919 0.88285 0.0
H568 H 0.37356 0.08013 0.96577 0.0
H569 H 0.35107 0.10785 0.94651 0.0
H570 H 0.37788 0.17776 0.86022 0.0
H571 H 0.3703 0.16226 0.9102 0.0
H572 H 0.48796 0.08602 0.83743 0.0
H573 H 0.47545 0.06481 0.88569 0.0
H574 H 0.4557 0.09214 0.78958 0.0
H575 H 0.4413 0.12743 0.77251 0.0
C576 C 0.33105 0.40893 0.39535 0.0
C577 C 0.36939 0.45158 0.39198 0.0
C578 C 0.33527 0.47049 0.33944 0.0
C579 C 0.29692 0.42782 0.34275 0.0
N580 N 0.26087 0.35472 0.36835 0.0
N581 N 0.41159 0.52085 0.35663 0.0
C582 C 0.29572 0.39647 0.36901 0.0
C583 C 0.37258 0.48162 0.36256 0.0
N584 N 0.32781 0.38086 0.42473 0.0
N585 N 0.33517 0.50097 0.31551 0.0
H586 H 0.43883 0.5306 0.37405 0.0
H587 H 0.41826 0.54258 0.33295 0.0
H588 H 0.30941 0.49404 0.29698 0.0
H589 H 0.35936 0.53362 0.31543 0.0
H590 H 0.29911 0.3508 0.43176 0.0
H591 H 0.3534 0.38859 0.44375 0.0
H592 H 0.25931 0.32931 0.38405 0.0
H593 H 0.23476 0.34504 0.34943 0.0
C594 C 0.89155 0.3757 0.88098 0.0
C595 C 0.92539 0.3741 0.90046 0.0
C596 C 0.91216 0.31674 0.85944 0.0
C597 C 0.88146 0.32132 0.83769 0.0
N598 N 0.84228 0.35563 0.82642 0.0
N599 N 0.96901 0.34411 0.90828 0.0
C600 C 0.87115 0.35081 0.84827 0.0
C601 C 0.93588 0.34474 0.88974 0.0
N602 N 0.87836 0.40059 0.89415 0.0
N603 N 0.91814 0.2852 0.85132 0.0
H604 H 0.98511 0.36212 0.93201 0.0
H605 H 0.98207 0.3273 0.89936 0.0
H606 H 0.90193 0.26498 0.8289 0.0
H607 H 0.93669 0.27702 0.86809 0.0
H608 H 0.85046 0.39943 0.88466 0.0
H609 H 0.89365 0.42088 0.91661 0.0
H610 H 0.83801 0.38054 0.82858 0.0
H611 H 0.8237 0.3357 0.80448 0.0
C612 C 0.93813 0.53621 0.90093 0.0
C613 C 0.94805 0.55585 0.93698 0.0
C614 C 0.90456 0.58611 0.91835 0.0
C615 C 0.89406 0.56579 0.8827 0.0
N616 N 0.91125 0.53249 0.83513 0.0
N617 N 0.95201 0.60975 0.97436 0.0
C618 C 0.91434 0.5444 0.87248 0.0
C619 C 0.93487 0.58415 0.94385 0.0
N620 N 0.95 0.50843 0.89442 0.0
N621 N 0.884 0.60549 0.92879 0.0
H622 H 0.97449 0.60933 0.99321 0.0
H623 H 0.94709 0.6339 0.97885 0.0
H624 H 0.86297 0.60878 0.91031 0.0
H625 H 0.88587 0.61616 0.95646 0.0
H626 H 0.94016 0.48989 0.87048 0.0
H627 H 0.96722 0.50148 0.91449 0.0
H628 H 0.92853 0.52036 0.82437 0.0
H629 H 0.89481 0.53889 0.81358 0.0
C630 C 0.39511 0.88946 0.42413 0.0
C631 C 0.39395 0.92127 0.44305 0.0
C632 C 0.32786 0.90332 0.40667 0.0
C633 C 0.33444 0.87794 0.38227 0.0
N634 N 0.37723 0.84928 0.36656 0.0
N635 N 0.35956 0.95957 0.45164 0.0
C636 C 0.36848 0.87112 0.39098 0.0
C637 C 0.36032 0.92842 0.43415 0.0
N638 N 0.42116 0.87625 0.4382 0.0
N639 N 0.28938 0.9018 0.40502 0.0
H640 H 0.3812 0.97701 0.47343 0.0
H641 H 0.3394 0.97 0.44273 0.0
H642 H 0.26356 0.88194 0.38712 0.0
H643 H 0.28081 0.91627 0.4246 0.0
H644 H 0.41945 0.84966 0.42879 0.0
H645 H 0.44159 0.88958 0.46177 0.0
H646 H 0.40428 0.8468 0.36948 0.0
H647 H 0.35957 0.8364 0.3415 0.0
C648 C 0.52322 0.38367 0.89691 0.0
C649 C 0.48311 0.38178 0.90159 0.0
C650 C 0.45575 0.34371 0.8418 0.0
C651 C 0.4941 0.34258 0.83881 0.0
N652 N 0.56105 0.35526 0.86676 0.0
N653 N 0.40721 0.35064 0.88391 0.0
C654 C 0.52696 0.36085 0.86728 0.0
C655 C 0.44821 0.35903 0.87558 0.0
N656 N 0.55844 0.40848 0.91969 0.0
N657 N 0.42729 0.33177 0.81158 0.0
H658 H 0.4 0.36013 0.90907 0.0
H659 H 0.37931 0.33045 0.86815 0.0
H660 H 0.43194 0.32128 0.78582 0.0
H661 H 0.40153 0.33636 0.81039 0.0
H662 H 0.59004 0.41534 0.91433 0.0
H663 H 0.5575 0.42544 0.94199 0.0
H664 H 0.58322 0.36336 0.88927 0.0
H665 H 0.56512 0.33928 0.84522 0.0
C666 C 0.07303 0.44707 0.35401 0.0
C667 C 0.09254 0.4684 0.38832 0.0
C668 C 0.16387 0.48078 0.36761 0.0
C669 C 0.14454 0.46046 0.3327 0.0
N670 N 0.08457 0.4343 0.28816 0.0
N671 N 0.15778 0.51161 0.42535 0.0
C672 C 0.10015 0.44647 0.32466 0.0
C673 C 0.1384 0.4871 0.39436 0.0
N674 N 0.02835 0.42681 0.34974 0.0
N675 N 0.20591 0.49256 0.376 0.0
H676 H 0.13989 0.5153 0.44651 0.0
H677 H 0.19188 0.53043 0.4289 0.0
H678 H 0.22655 0.491 0.3563 0.0
H679 H 0.21977 0.50209 0.40314 0.0
H680 H 0.01126 0.40666 0.32756 0.0
H681 H 0.00759 0.42735 0.37021 0.0
H682 H 0.0541 0.42775 0.27903 0.0
H683 H 0.10412 0.43511 0.26549 0.0
C684 C 0.60743 0.13467 0.89716 0.0
C685 C 0.60885 0.10128 0.91737 0.0
C686 C 0.67001 0.11772 0.87332 0.0
C687 C 0.67403 0.15577 0.858 0.0
N688 N 0.64808 0.20243 0.85789 0.0
N689 N 0.64656 0.06546 0.92844 0.0
C690 C 0.64277 0.16459 0.87018 0.0
C691 C 0.64146 0.09392 0.9064 0.0
N692 N 0.57223 0.13768 0.90372 0.0
N693 N 0.69253 0.10351 0.85548 0.0
H694 H 0.62676 0.04768 0.95326 0.0
H695 H 0.67299 0.06237 0.92406 0.0
H696 H 0.71203 0.11881 0.82994 0.0
H697 H 0.68767 0.07396 0.86331 0.0
H698 H 0.56697 0.15859 0.88722 0.0
H699 H 0.54613 0.11645 0.92339 0.0
H700 H 0.62925 0.21267 0.86923 0.0
H701 H 0.67354 0.22519 0.83846 0.0
C702 C 0.5642 0.6308 0.37938 0.0
C703 C 0.58509 0.64488 0.41551 0.0
C704 C 0.61818 0.71971 0.39051 0.0
C705 C 0.59689 0.70538 0.35445 0.0
N706 N 0.56382 0.64905 0.31032 0.0
N707 N 0.64261 0.70249 0.45076 0.0
C708 C 0.57474 0.66142 0.34756 0.0
C709 C 0.61573 0.68934 0.41945 0.0
N710 N 0.53266 0.5884 0.37587 0.0
N711 N 0.63855 0.76158 0.39825 0.0
H712 H 0.64148 0.68102 0.47235 0.0
H713 H 0.66851 0.73423 0.45341 0.0
H714 H 0.64292 0.78523 0.37763 0.0
H715 H 0.64917 0.77248 0.42592 0.0
H716 H 0.51389 0.57694 0.3511 0.0
H717 H 0.52242 0.56495 0.39884 0.0
H718 H 0.5514 0.61811 0.3027 0.0
H719 H 0.57186 0.67098 0.28635 0.0
C720 C 0.51826 0.1625 0.63198 0.0
C721 C 0.48185 0.12007 0.62611 0.0
C722 C 0.43556 0.12893 0.67073 0.0
C723 C 0.4699 0.17288 0.67259 0.0
N724 N 0.54235 0.23323 0.65061 0.0
N725 N 0.40303 0.06691 0.63301 0.0
C726 C 0.51099 0.19017 0.65219 0.0
C727 C 0.4397 0.10441 0.64359 0.0
N728 N 0.56 0.1761 0.61926 0.0
N729 N 0.39943 0.11001 0.69591 0.0
H730 H 0.40415 0.04876 0.61193 0.0
H731 H 0.37089 0.05629 0.64197 0.0
H732 H 0.39577 0.12627 0.71741 0.0
H733 H 0.37566 0.07711 0.6984 0.0
H734 H 0.58838 0.20471 0.62666 0.0
H735 H 0.56681 0.15729 0.60396 0.0
H736 H 0.57082 0.24838 0.63254 0.0
H737 H 0.53826 0.2544 0.66501 0.0
C738 C 0.33411 0.45736 0.09105 0.0
C739 C 0.38007 0.48195 0.09834 0.0
C740 C 0.36384 0.49582 0.16321 0.0
C741 C 0.3182 0.47266 0.15493 0.0
N742 N 0.2621 0.44344 0.10684 0.0
N743 N 0.43952 0.53144 0.13805 0.0
C744 C 0.3041 0.45731 0.11744 0.0
C745 C 0.39517 0.50353 0.1334 0.0
N746 N 0.31875 0.43236 0.06003 0.0
N747 N 0.37704 0.50866 0.20002 0.0
H748 H 0.46285 0.53811 0.11638 0.0
H749 H 0.45287 0.5508 0.16137 0.0
H750 H 0.35517 0.50476 0.22207 0.0
H751 H 0.40905 0.52098 0.2094 0.0
H752 H 0.28514 0.4104 0.05577 0.0
H753 H 0.33958 0.43086 0.04041 0.0
H754 H 0.2508 0.43495 0.07876 0.0
H755 H 0.24063 0.44569 0.12491 0.0
C756 C 0.87624 0.34288 0.59322 0.0
C757 C 0.89749 0.387 0.59886 0.0
C758 C 0.86549 0.36807 0.66642 0.0
C759 C 0.84216 0.32392 0.65962 0.0
N760 N 0.81641 0.27005 0.61335 0.0
N761 N 0.90951 0.4419 0.63951 0.0
C762 C 0.84482 0.31167 0.62195 0.0
C763 C 0.89108 0.39958 0.63512 0.0
N764 N 0.88779 0.33061 0.56139 0.0
N765 N 0.86482 0.37999 0.70309 0.0
H766 H 0.92816 0.46525 0.61717 0.0
H767 H 0.9038 0.45375 0.66366 0.0
H768 H 0.84448 0.35848 0.72606 0.0
H769 H 0.88584 0.41101 0.71155 0.0
H770 H 0.8769 0.29899 0.5579 0.0
H771 H 0.91156 0.35246 0.54026 0.0
H772 H 0.81382 0.25986 0.58532 0.0
H773 H 0.79205 0.24664 0.63331 0.0
C774 C 0.60759 0.93393 0.13424 0.0
C775 C 0.57297 0.93989 0.14187 0.0
C776 C 0.5575 0.89949 0.20549 0.0
C777 C 0.58624 0.8871 0.19491 0.0
N778 N 0.63742 0.89063 0.14798 0.0
N779 N 0.50938 0.92099 0.18218 0.0
C780 C 0.61151 0.90425 0.15913 0.0
C781 C 0.5467 0.92108 0.17703 0.0
N782 N 0.63692 0.95695 0.10351 0.0
N783 N 0.54047 0.89054 0.24296 0.0
H784 H 0.49855 0.93398 0.16102 0.0
H785 H 0.4866 0.90389 0.20547 0.0
H786 H 0.54863 0.87561 0.26478 0.0
H787 H 0.52241 0.90209 0.25329 0.0
H788 H 0.66521 0.95704 0.09847 0.0
H789 H 0.635 0.97896 0.08502 0.0
H790 H 0.65255 0.89802 0.12026 0.0
H791 H 0.64164 0.86971 0.1658 0.0
C792 C 0.68137 0.533 0.64811 0.0
C793 C 0.65317 0.548 0.65045 0.0
C794 C 0.68303 0.57221 0.71579 0.0
C795 C 0.7163 0.56437 0.7092 0.0
N796 N 0.75113 0.54346 0.66526 0.0
N797 N 0.60858 0.5504 0.70076 0.0
C798 C 0.71689 0.54719 0.67392 0.0
C799 C 0.64881 0.5598 0.68814 0.0
N800 N 0.6691 0.49867 0.62721 0.0
N801 N 0.68329 0.59043 0.749 0.0
H802 H 0.57985 0.53077 0.68563 0.0
H803 H 0.60217 0.55502 0.7289 0.0
H804 H 0.70728 0.59893 0.76998 0.0
H805 H 0.66231 0.60056 0.75373 0.0
H806 H 0.68661 0.48419 0.6273 0.0
H807 H 0.63776 0.48066 0.61538 0.0
H808 H 0.75438 0.53356 0.63851 0.0
H809 H 0.77829 0.55463 0.68315 0.0
C810 C 0.17085 0.6903 0.13139 0.0
C811 C 0.13054 0.65164 0.14451 0.0
C812 C 0.1503 0.6696 0.21271 0.0
C813 C 0.18863 0.71001 0.1995 0.0
N814 N 0.22792 0.76291 0.14521 0.0
N815 N 0.07723 0.60967 0.19747 0.0
C816 C 0.19681 0.72156 0.15852 0.0
C817 C 0.11884 0.64297 0.18517 0.0
N818 N 0.18556 0.69665 0.09338 0.0
N819 N 0.1449 0.65552 0.25133 0.0
H820 H 0.05305 0.59017 0.17811 0.0
H821 H 0.06535 0.60425 0.2263 0.0
H822 H 0.16811 0.67305 0.27208 0.0
H823 H 0.1199 0.62464 0.26197 0.0
H824 H 0.21706 0.72206 0.08342 0.0
H825 H 0.16809 0.67457 0.07259 0.0
H826 H 0.232 0.77384 0.11581 0.0
H827 H 0.2462 0.78742 0.16372 0.0
loop_
_geom_bond_atom_site_label_1
_geom_bond_atom_site_label_2
_geom_bond_distance
_geom_bond_site_symmetry_2
_ccdc_geom_bond_type
C0 C1 1.443 . S
C0 N4 1.376 1_556 S
C0 C38 1.389 . S
C1 C0 1.443 . S
C1 C2 1.340 1_556 S
C1 H41 0.951 . S
C2 C1 1.340 1_554 S
C2 C3 1.439 . S
C2 H42 0.950 . S
C3 C2 1.439 . S
C3 N4 1.374 . S
C3 C37 1.395 . S
N4 C0 1.376 1_554 S
N4 C3 1.374 . S
N4 Co5 2.008 1_655 S
Co5 N4 2.008 1_455 S
Co5 N6 1.995 1_455 S
Co5 N11 2.008 . S
Co5 N16 1.995 1_554 S
Co5 N21 2.282 . S
Co5 N27 2.282 1_454 S
N6 Co5 1.995 1_655 S
N6 C7 1.376 . S
N6 C10 1.383 1_655 S
C7 N6 1.376 . S
C7 C8 1.446 . S
C7 C37 1.391 . S
C8 C7 1.446 . S
C8 C9 1.339 . S
C8 H43 0.949 . S
C9 C8 1.339 . S
C9 C10 1.439 1_655 S
C9 H44 0.950 1_655 S
C10 N6 1.383 1_455 S
C10 C9 1.439 1_455 S
C10 C39 1.392 . S
N11 Co5 2.008 . S
N11 C12 1.376 . S
N11 C15 1.374 1_554 S
C12 N11 1.376 . S
C12 C13 1.443 . S
C12 C39 1.389 . S
C13 C12 1.443 . S
C13 C14 1.340 . S
C13 H45 0.951 . S
C14 C13 1.340 . S
C14 C15 1.439 1_554 S
C14 H46 0.950 1_554 S
C15 N11 1.374 1_556 S
C15 C14 1.439 1_556 S
C15 C40 1.395 . S
N16 Co5 1.995 1_556 S
N16 C17 1.376 . S
N16 C20 1.383 . S
C17 N16 1.376 . S
C17 C18 1.446 . S
C17 C40 1.391 . S
C18 C17 1.446 . S
C18 C19 1.339 . S
C18 H47 0.949 . S
C19 C18 1.339 . S
C19 C20 1.439 . S
C19 H48 0.950 . S
C20 N16 1.383 . S
C20 C19 1.439 . S
C20 C38 1.392 1_455 S
N21 Co5 2.282 . S
N21 C24 1.332 . S
N21 C26 1.332 . S
C22 C23 1.386 . S
C22 C25 1.388 . S
C23 C22 1.386 . S
C23 C24 1.382 . S
C23 H49 0.950 . S
C24 N21 1.332 . S
C24 C23 1.382 . S
C24 H35 0.952 . S
C25 C22 1.388 . S
C25 C26 1.382 . S
C25 H50 0.950 . S
C26 N21 1.332 . S
C26 C25 1.382 . S
C26 H36 0.948 . S
N27 Co5 2.282 1_656 S
N27 C31 1.332 . S
N27 C32 1.323 1_655 S
C28 C29 1.388 . S
C28 C32 1.378 1_655 S
C28 H51 0.950 . S
C29 C28 1.388 . S
C29 C30 1.386 . S
C30 C29 1.386 . S
C30 C31 1.382 . S
C30 H52 0.950 . S
C31 N27 1.332 . S
C31 C30 1.382 . S
C31 H33 0.952 1_556 S
C32 N27 1.323 1_455 S
C32 C28 1.378 1_455 S
C32 H34 0.963 . S
H33 C31 0.952 1_554 S
H34 C32 0.963 . S
H35 C24 0.952 . S
H36 C26 0.948 . S
C37 C3 1.395 . S
C37 C7 1.391 . S
C38 C0 1.389 . S
C38 C20 1.392 1_655 S
C39 C10 1.392 . S
C39 C12 1.389 . S
C40 C15 1.395 . S
C40 C17 1.391 . S
H41 C1 0.951 . S
H42 C2 0.950 . S
H43 C8 0.949 . S
H44 C9 0.950 1_455 S
H45 C13 0.951 . S
H46 C14 0.950 1_556 S
H47 C18 0.949 . S
H48 C19 0.950 . S
H49 C23 0.950 . S
H50 C25 0.950 . S
H51 C28 0.950 . S
H52 C30 0.950 . S
C53 C54 1.443 . S
C53 N57 1.376 . S
C53 C91 1.389 . S
C54 C53 1.443 . S
C54 C55 1.340 1_545 S
C54 H94 0.951 . S
C55 C54 1.340 1_565 S
C55 C56 1.439 . S
C55 H95 0.950 . S
C56 C55 1.439 . S
C56 N57 1.374 1_565 S
C56 C90 1.395 . S
N57 C53 1.376 . S
N57 C56 1.374 1_545 S
N57 Co58 2.008 . S
Co58 N57 2.008 . S
Co58 N59 1.995 1_545 S
Co58 N64 2.008 . S
Co58 N69 1.995 . S
Co58 N74 2.282 1_545 S
Co58 N80 2.282 . S
N59 Co58 1.995 1_565 S
N59 C60 1.376 . S
N59 C63 1.383 . S
C60 N59 1.376 . S
C60 C61 1.446 . S
C60 C90 1.391 . S
C61 C60 1.446 . S
C61 C62 1.339 . S
C61 H96 0.949 . S
C62 C61 1.339 . S
C62 C63 1.439 . S
C62 H97 0.950 . S
C63 N59 1.383 . S
C63 C62 1.439 . S
C63 C92 1.392 . S
N64 Co58 2.008 . S
N64 C65 1.376 . S
N64 C68 1.374 . S
C65 N64 1.376 . S
C65 C66 1.443 . S
C65 C92 1.389 1_545 S
C66 C65 1.443 . S
C66 C67 1.340 . S
C66 H98 0.951 . S
C67 C66 1.340 . S
C67 C68 1.439 . S
C67 H99 0.950 . S
C68 N64 1.374 . S
C68 C67 1.439 . S
C68 C93 1.395 . S
N69 Co58 1.995 . S
N69 C70 1.376 . S
N69 C73 1.383 . S
C70 N69 1.376 . S
C70 C71 1.446 . S
C70 C93 1.391 . S
C71 C70 1.446 . S
C71 C72 1.339 . S
C71 H100 0.949 . S
C72 C71 1.339 . S
C72 C73 1.439 . S
C72 H101 0.950 . S
C73 N69 1.383 . S
C73 C72 1.439 . S
C73 C91 1.392 . S
N74 Co58 2.282 1_565 S
N74 C77 1.332 1_565 S
N74 C79 1.332 . S
C75 C76 1.386 . S
C75 C78 1.388 . S
C76 C75 1.386 . S
C76 C77 1.382 1_565 S
C76 H102 0.950 1_565 S
C77 N74 1.332 1_545 S
C77 C76 1.382 1_545 S
C77 H88 0.952 . S
C78 C75 1.388 . S
C78 C79 1.382 . S
C78 H103 0.950 . S
C79 N74 1.332 . S
C79 C78 1.382 . S
C79 H89 0.948 . S
N80 Co58 2.282 . S
N80 C84 1.332 . S
N80 C85 1.332 . S
C81 C82 1.388 . S
C81 C85 1.382 . S
C81 H104 0.950 . S
C82 C81 1.388 . S
C82 C83 1.386 . S
C83 C82 1.386 . S
C83 C84 1.382 . S
C83 H105 0.950 . S
C84 N80 1.332 . S
C84 C83 1.382 . S
C84 H86 0.952 1_545 S
C85 N80 1.332 . S
C85 C81 1.382 . S
C85 H87 0.948 . S
H86 C84 0.952 1_565 S
H87 C85 0.948 . S
H88 C77 0.952 . S
H89 C79 0.948 . S
C90 C56 1.395 . S
C90 C60 1.391 . S
C91 C53 1.389 . S
C91 C73 1.392 . S
C92 C63 1.392 . S
C92 C65 1.389 1_565 S
C93 C68 1.395 . S
C93 C70 1.391 . S
H94 C54 0.951 . S
H95 C55 0.950 . S
H96 C61 0.949 . S
H97 C62 0.950 . S
H98 C66 0.951 . S
H99 C67 0.950 . S
H100 C71 0.949 . S
H101 C72 0.950 . S
H102 C76 0.950 1_545 S
H103 C78 0.950 . S
H104 C81 0.950 . S
H105 C83 0.950 . S
C106 C107 1.443 . S
C106 N110 1.376 . S
C106 C144 1.389 . S
C107 C106 1.443 . S
C107 C108 1.340 . S
C107 H147 0.951 . S
C108 C107 1.340 . S
C108 C109 1.439 . S
C108 H148 0.950 . S
C109 C108 1.439 . S
C109 N110 1.374 . S
C109 C143 1.395 . S
N110 C106 1.376 . S
N110 C109 1.374 . S
N110 Co111 2.008 1_556 S
Co111 N110 2.008 1_554 S
Co111 N112 1.995 . S
Co111 N117 2.008 . S
Co111 N122 1.995 . S
Co111 N127 2.282 . S
Co111 N133 2.282 1_554 S
N112 Co111 1.995 . S
N112 C113 1.376 1_554 S
N112 C116 1.383 . S
C113 N112 1.376 1_556 S
C113 C114 1.446 . S
C113 C143 1.391 . S
C114 C113 1.446 . S
C114 C115 1.339 1_556 S
C114 H149 0.949 . S
C115 C114 1.339 1_554 S
C115 C116 1.439 . S
C115 H150 0.950 . S
C116 N112 1.383 . S
C116 C115 1.439 . S
C116 C145 1.392 . S
N117 Co111 2.008 . S
N117 C118 1.376 . S
N117 C121 1.374 . S
C118 N117 1.376 . S
C118 C119 1.443 . S
C118 C145 1.389 . S
C119 C118 1.443 . S
C119 C120 1.340 . S
C119 H151 0.951 . S
C120 C119 1.340 . S
C120 C121 1.439 . S
C120 H152 0.950 . S
C121 N117 1.374 . S
C121 C120 1.439 . S
C121 C146 1.395 . S
N122 Co111 1.995 . S
N122 C123 1.376 . S
N122 C126 1.383 1_554 S
C123 N122 1.376 . S
C123 C124 1.446 . S
C123 C146 1.391 . S
C124 C123 1.446 . S
C124 C125 1.339 1_554 S
C124 H153 0.949 . S
C125 C124 1.339 1_556 S
C125 C126 1.439 . S
C125 H154 0.950 . S
C126 N122 1.383 1_556 S
C126 C125 1.439 . S
C126 C144 1.392 . S
N127 Co111 2.282 . S
N127 C130 1.332 . S
N127 C132 1.332 . S
C128 C129 1.386 . S
C128 C131 1.388 . S
C129 C128 1.386 . S
C129 C130 1.382 . S
C129 H155 0.950 . S
C130 N127 1.332 . S
C130 C129 1.382 . S
C130 H141 0.952 . S
C131 C128 1.388 . S
C131 C132 1.382 . S
C131 H156 0.950 . S
C132 N127 1.332 . S
C132 C131 1.382 . S
C132 H142 0.948 . S
N133 Co111 2.282 1_556 S
N133 C137 1.332 . S
N133 C138 1.332 . S
C134 C135 1.388 . S
C134 C138 1.382 . S
C134 H157 0.950 . S
C135 C134 1.388 . S
C135 C136 1.386 . S
C136 C135 1.386 . S
C136 C137 1.382 . S
C136 H158 0.950 . S
C137 N133 1.332 . S
C137 C136 1.382 . S
C137 H139 0.952 . S
C138 N133 1.332 . S
C138 C134 1.382 . S
C138 H140 0.948 . S
H139 C137 0.952 . S
H140 C138 0.948 . S
H141 C130 0.952 . S
H142 C132 0.948 . S
C143 C109 1.395 . S
C143 C113 1.391 . S
C144 C106 1.389 . S
C144 C126 1.392 . S
C145 C116 1.392 . S
C145 C118 1.389 . S
C146 C121 1.395 . S
C146 C123 1.391 . S
H147 C107 0.951 . S
H148 C108 0.950 . S
H149 C114 0.949 . S
H150 C115 0.950 . S
H151 C119 0.951 . S
H152 C120 0.950 . S
H153 C124 0.949 . S
H154 C125 0.950 . S
H155 C129 0.950 . S
H156 C131 0.950 . S
H157 C134 0.950 . S
H158 C136 0.950 . S
C159 C160 1.443 . S
C159 N163 1.376 . S
C159 C197 1.389 . S
C160 C159 1.443 . S
C160 C161 1.340 . S
C160 H200 0.951 . S
C161 C160 1.340 . S
C161 C162 1.439 . S
C161 H201 0.950 . S
C162 C161 1.439 . S
C162 N163 1.374 . S
C162 C196 1.395 . S
N163 C159 1.376 . S
N163 C162 1.374 . S
N163 Co164 2.008 1_655 S
Co164 N163 2.008 1_455 S
Co164 N165 1.995 1_455 S
Co164 N170 2.008 . S
Co164 N175 1.995 . S
Co164 N180 2.282 . S
Co164 N186 2.282 1_455 S
N165 Co164 1.995 1_655 S
N165 C166 1.376 . S
N165 C169 1.383 1_655 S
C166 N165 1.376 . S
C166 C167 1.446 . S
C166 C196 1.391 . S
C167 C166 1.446 . S
C167 C168 1.339 . S
C167 H202 0.949 . S
C168 C167 1.339 . S
C168 C169 1.439 1_655 S
C168 H203 0.950 1_655 S
C169 N165 1.383 1_455 S
C169 C168 1.439 1_455 S
C169 C198 1.392 . S
N170 Co164 2.008 . S
N170 C171 1.376 . S
N170 C174 1.374 . S
C171 N170 1.376 . S
C171 C172 1.443 . S
C171 C198 1.389 . S
C172 C171 1.443 . S
C172 C173 1.340 . S
C172 H204 0.951 . S
C173 C172 1.340 . S
C173 C174 1.439 . S
C173 H205 0.950 . S
C174 N170 1.374 . S
C174 C173 1.439 . S
C174 C199 1.395 . S
N175 Co164 1.995 . S
N175 C176 1.376 . S
N175 C179 1.383 1_455 S
C176 N175 1.376 . S
C176 C177 1.446 . S
C176 C199 1.391 . S
C177 C176 1.446 . S
C177 C178 1.339 . S
C177 H206 0.949 . S
C178 C177 1.339 . S
C178 C179 1.439 1_455 S
C178 H207 0.950 1_455 S
C179 N175 1.383 1_655 S
C179 C178 1.439 1_655 S
C179 C197 1.392 . S
N180 Co164 2.282 . S
N180 C183 1.332 . S
N180 C185 1.332 . S
C181 C182 1.386 . S
C181 C184 1.388 . S
C182 C181 1.386 . S
C182 C183 1.382 . S
C182 H208 0.950 . S
C183 N180 1.332 . S
C183 C182 1.382 . S
C183 H194 0.952 . S
C184 C181 1.388 . S
C184 C185 1.382 . S
C184 H209 0.950 . S
C185 N180 1.332 . S
C185 C184 1.382 . S
C185 H195 0.948 1_455 S
N186 Co164 2.282 1_655 S
N186 C190 1.332 . S
N186 C191 1.332 . S
C187 C188 1.388 . S
C187 C191 1.382 . S
C187 H210 0.950 . S
C188 C187 1.388 . S
C188 C189 1.386 . S
C189 C188 1.386 . S
C189 C190 1.382 . S
C189 H211 0.950 . S
C190 N186 1.332 . S
C190 C189 1.382 . S
C190 H192 0.952 . S
C191 N186 1.332 . S
C191 C187 1.382 . S
C191 H193 0.948 1_655 S
H192 C190 0.952 . S
H193 C191 0.948 1_455 S
H194 C183 0.952 . S
H195 C185 0.948 1_655 S
C196 C162 1.395 . S
C196 C166 1.391 . S
C197 C159 1.389 . S
C197 C179 1.392 . S
C198 C169 1.392 . S
C198 C171 1.389 . S
C199 C174 1.395 . S
C199 C176 1.391 . S
H200 C160 0.951 . S
H201 C161 0.950 . S
H202 C167 0.949 . S
H203 C168 0.950 1_455 S
H204 C172 0.951 . S
H205 C173 0.950 . S
H206 C177 0.949 . S
H207 C178 0.950 1_655 S
H208 C182 0.950 . S
H209 C184 0.950 . S
H210 C187 0.950 . S
H211 C189 0.950 . S
C212 C213 1.443 1_565 S
C212 N216 1.376 1_565 S
C212 C250 1.389 . S
C213 C212 1.443 1_545 S
C213 C214 1.340 . S
C213 H253 0.951 1_545 S
C214 C213 1.340 . S
C214 C215 1.439 . S
C214 H254 0.950 . S
C215 C214 1.439 . S
C215 N216 1.374 . S
C215 C249 1.395 . S
N216 C212 1.376 1_545 S
N216 C215 1.374 . S
N216 Co217 2.008 . S
Co217 N216 2.008 . S
Co217 N218 1.995 . S
Co217 N223 2.008 1_544 S
Co217 N228 1.995 1_545 S
Co217 N233 2.282 1_554 S
Co217 N239 2.282 1_545 S
N218 Co217 1.995 . S
N218 C219 1.376 . S
N218 C222 1.383 1_554 S
C219 N218 1.376 . S
C219 C220 1.446 . S
C219 C249 1.391 . S
C220 C219 1.446 . S
C220 C221 1.339 1_554 S
C220 H255 0.949 . S
C221 C220 1.339 1_556 S
C221 C222 1.439 . S
C221 H256 0.950 . S
C222 N218 1.383 1_556 S
C222 C221 1.439 . S
C222 C251 1.392 . S
N223 Co217 2.008 1_566 S
N223 C224 1.376 1_565 S
N223 C227 1.374 . S
C224 N223 1.376 1_545 S
C224 C225 1.443 1_545 S
C224 C251 1.389 . S
C225 C224 1.443 1_565 S
C225 C226 1.340 . S
C225 H257 0.951 1_565 S
C226 C225 1.340 . S
C226 C227 1.439 . S
C226 H258 0.950 . S
C227 N223 1.374 . S
C227 C226 1.439 . S
C227 C252 1.395 . S
N228 Co217 1.995 1_565 S
N228 C229 1.376 1_554 S
N228 C232 1.383 . S
C229 N228 1.376 1_556 S
C229 C230 1.446 1_556 S
C229 C252 1.391 . S
C230 C229 1.446 1_554 S
C230 C231 1.339 . S
C230 H259 0.949 1_554 S
C231 C230 1.339 . S
C231 C232 1.439 . S
C231 H260 0.950 . S
C232 N228 1.383 . S
C232 C231 1.439 . S
C232 C250 1.392 . S
N233 Co217 2.282 1_556 S
N233 C236 1.332 . S
N233 C238 1.332 . S
C234 C235 1.386 . S
C234 C237 1.388 . S
C235 C234 1.386 . S
C235 C236 1.382 . S
C235 H261 0.950 . S
C236 N233 1.332 . S
C236 C235 1.382 . S
C236 H247 0.952 1_545 S
C237 C234 1.388 . S
C237 C238 1.382 . S
C237 H262 0.950 . S
C238 N233 1.332 . S
C238 C237 1.382 . S
C238 H248 0.948 . S
N239 Co217 2.282 1_565 S
N239 C243 1.332 . S
N239 C244 1.332 . S
C240 C241 1.388 . S
C240 C244 1.382 . S
C240 H263 0.950 . S
C241 C240 1.388 . S
C241 C242 1.386 . S
C242 C241 1.386 . S
C242 C243 1.382 . S
C242 H264 0.950 . S
C243 N239 1.332 . S
C243 C242 1.382 . S
C243 H245 0.952 1_565 S
C244 N239 1.332 . S
C244 C240 1.382 . S
C244 H246 0.948 . S
H245 C243 0.952 1_545 S
H246 C244 0.948 . S
H247 C236 0.952 1_565 S
H248 C238 0.948 . S
C249 C215 1.395 . S
C249 C219 1.391 . S
C250 C212 1.389 . S
C250 C232 1.392 . S
C251 C222 1.392 . S
C251 C224 1.389 . S
C252 C227 1.395 . S
C252 C229 1.391 . S
H253 C213 0.951 1_565 S
H254 C214 0.950 . S
H255 C220 0.949 . S
H256 C221 0.950 . S
H257 C225 0.951 1_545 S
H258 C226 0.950 . S
H259 C230 0.949 1_556 S
H260 C231 0.950 . S
H261 C235 0.950 . S
H262 C237 0.950 . S
H263 C240 0.950 . S
H264 C242 0.950 . S
C265 C266 1.443 . S
C265 N269 1.376 . S
C265 C303 1.389 . S
C266 C265 1.443 . S
C266 C267 1.340 . S
C266 H306 0.951 . S
C267 C266 1.340 . S
C267 C268 1.439 . S
C267 H307 0.950 . S
C268 C267 1.439 . S
C268 N269 1.374 . S
C268 C302 1.395 . S
N269 C265 1.376 . S
N269 C268 1.374 . S
N269 Co270 2.008 . S
Co270 N269 2.008 . S
Co270 N271 1.995 . S
Co270 N276 2.008 . S
Co270 N281 1.995 . S
Co270 N286 2.282 . S
Co270 N292 2.282 . S
N271 Co270 1.995 . S
N271 C272 1.376 . S
N271 C275 1.383 . S
C272 N271 1.376 . S
C272 C273 1.446 . S
C272 C302 1.391 . S
C273 C272 1.446 . S
C273 C274 1.339 . S
C273 H308 0.949 . S
C274 C273 1.339 . S
C274 C275 1.439 . S
C274 H309 0.950 . S
C275 N271 1.383 . S
C275 C274 1.439 . S
C275 C304 1.392 . S
N276 Co270 2.008 . S
N276 C277 1.376 . S
N276 C280 1.374 . S
C277 N276 1.376 . S
C277 C278 1.443 . S
C277 C304 1.389 . S
C278 C277 1.443 . S
C278 C279 1.340 . S
C278 H310 0.951 . S
C279 C278 1.340 . S
C279 C280 1.439 . S
C279 H311 0.950 . S
C280 N276 1.374 . S
C280 C279 1.439 . S
C280 C305 1.395 . S
N281 Co270 1.995 . S
N281 C282 1.376 . S
N281 C285 1.383 . S
C282 N281 1.376 . S
C282 C283 1.446 . S
C282 C305 1.391 . S
C283 C282 1.446 . S
C283 C284 1.339 . S
C283 H312 0.949 . S
C284 C283 1.339 . S
C284 C285 1.439 . S
C284 H313 0.950 . S
C285 N281 1.383 . S
C285 C284 1.439 . S
C285 C303 1.392 . S
N286 Co270 2.282 . S
N286 C289 1.332 . S
N286 C291 1.332 . S
C287 C288 1.386 . S
C287 C290 1.388 . S
C288 C287 1.386 . S
C288 C289 1.382 . S
C288 H314 0.950 . S
C289 N286 1.332 . S
C289 C288 1.382 . S
C289 H300 0.952 . S
C290 C287 1.388 . S
C290 C291 1.382 . S
C290 H315 0.950 . S
C291 N286 1.332 . S
C291 C290 1.382 . S
C291 H301 0.948 . S
N292 Co270 2.282 . S
N292 C296 1.332 . S
N292 C297 1.332 . S
C293 C294 1.388 . S
C293 C297 1.382 . S
C293 H316 0.950 . S
C294 C293 1.388 . S
C294 C295 1.386 . S
C295 C294 1.386 . S
C295 C296 1.382 . S
C295 H317 0.950 . S
C296 N292 1.332 . S
C296 C295 1.382 . S
C296 H298 0.952 . S
C297 N292 1.332 . S
C297 C293 1.382 . S
C297 H299 0.948 . S
H298 C296 0.952 . S
H299 C297 0.948 . S
H300 C289 0.952 . S
H301 C291 0.948 . S
C302 C268 1.395 . S
C302 C272 1.391 . S
C303 C265 1.389 . S
C303 C285 1.392 . S
C304 C275 1.392 . S
C304 C277 1.389 . S
C305 C280 1.395 . S
C305 C282 1.391 . S
H306 C266 0.951 . S
H307 C267 0.950 . S
H308 C273 0.949 . S
H309 C274 0.950 . S
H310 C278 0.951 . S
H311 C279 0.950 . S
H312 C283 0.949 . S
H313 C284 0.950 . S
H314 C288 0.950 . S
H315 C290 0.950 . S
H316 C293 0.950 . S
H317 C295 0.950 . S
Mg318 O325 2.141 . S
Mg318 O326 2.048 . S
Mg318 O327 2.048 . S
Mg318 O330 2.141 . S
C319 O320 1.313 . S
C319 O326 1.195 . S
O320 C319 1.313 . S
C321 O322 1.245 . S
C321 O330 1.289 . S
O322 C321 1.245 . S
C323 O324 1.245 . S
C323 O325 1.289 . S
O324 C323 1.245 . S
O325 Mg318 2.141 . S
O325 C323 1.289 . S
O326 Mg318 2.048 . S
O326 C319 1.195 . S
O327 Mg318 2.048 . S
O327 C328 1.195 . S
C328 O327 1.195 . S
C328 O329 1.313 . S
O329 C328 1.313 . S
O330 Mg318 2.141 . S
O330 C321 1.289 . S
Mg331 O338 2.141 . S
Mg331 O339 2.048 . S
Mg331 O340 2.048 . S
Mg331 O343 2.141 . S
C332 O333 1.313 . S
C332 O339 1.195 . S
O333 C332 1.313 . S
C334 O335 1.245 . S
C334 O343 1.289 . S
O335 C334 1.245 . S
C336 O337 1.245 . S
C336 O338 1.289 . S
O337 C336 1.245 . S
O338 Mg331 2.141 . S
O338 C336 1.289 . S
O339 Mg331 2.048 . S
O339 C332 1.195 . S
O340 Mg331 2.048 . S
O340 C341 1.195 . S
C341 O340 1.195 . S
C341 O342 1.313 . S
O342 C341 1.313 . S
O343 Mg331 2.141 . S
O343 C334 1.289 . S
Mg344 O351 2.141 . S
Mg344 O352 2.048 . S
Mg344 O353 2.048 . S
Mg344 O356 2.141 . S
C345 O346 1.313 . S
C345 O352 1.195 . S
O346 C345 1.313 . S
C347 O348 1.245 . S
C347 O356 1.289 . S
O348 C347 1.245 . S
C349 O350 1.245 . S
C349 O351 1.289 . S
O350 C349 1.245 . S
O351 Mg344 2.141 . S
O351 C349 1.289 . S
O352 Mg344 2.048 . S
O352 C345 1.195 . S
O353 Mg344 2.048 . S
O353 C354 1.195 . S
C354 O353 1.195 . S
C354 O355 1.313 . S
O355 C354 1.313 . S
O356 Mg344 2.141 . S
O356 C347 1.289 . S
Mg357 O364 2.141 . S
Mg357 O365 2.048 . S
Mg357 O366 2.048 . S
Mg357 O369 2.141 . S
C358 O359 1.313 . S
C358 O365 1.195 . S
O359 C358 1.313 . S
C360 O361 1.245 . S
C360 O369 1.289 . S
O361 C360 1.245 . S
C362 O363 1.245 . S
C362 O364 1.289 . S
O363 C362 1.245 . S
O364 Mg357 2.141 . S
O364 C362 1.289 . S
O365 Mg357 2.048 . S
O365 C358 1.195 . S
O366 Mg357 2.048 . S
O366 C367 1.195 . S
C367 O366 1.195 . S
C367 O368 1.313 . S
O368 C367 1.313 . S
O369 Mg357 2.141 . S
O369 C360 1.289 . S
Mg370 O377 2.141 . S
Mg370 O378 2.048 . S
Mg370 O379 2.048 . S
Mg370 O382 2.141 . S
C371 O372 1.313 . S
C371 O378 1.195 . S
O372 C371 1.313 . S
C373 O374 1.245 . S
C373 O382 1.289 . S
O374 C373 1.245 . S
C375 O376 1.245 . S
C375 O377 1.289 . S
O376 C375 1.245 . S
O377 Mg370 2.141 . S
O377 C375 1.289 . S
O378 Mg370 2.048 . S
O378 C371 1.195 . S
O379 Mg370 2.048 . S
O379 C380 1.195 . S
C380 O379 1.195 . S
C380 O381 1.313 . S
O381 C380 1.313 . S
O382 Mg370 2.141 . S
O382 C373 1.289 . S
Mg383 O390 2.141 . S
Mg383 O391 2.048 . S
Mg383 O392 2.048 . S
Mg383 O395 2.141 . S
C384 O385 1.313 . S
C384 O391 1.195 . S
O385 C384 1.313 . S
C386 O387 1.245 . S
C386 O395 1.289 . S
O387 C386 1.245 . S
C388 O389 1.245 . S
C388 O390 1.289 . S
O389 C388 1.245 . S
O390 Mg383 2.141 . S
O390 C388 1.289 . S
O391 Mg383 2.048 . S
O391 C384 1.195 . S
O392 Mg383 2.048 . S
O392 C393 1.195 . S
C393 O392 1.195 . S
C393 O394 1.313 . S
O394 C393 1.313 . S
O395 Mg383 2.141 . S
O395 C386 1.289 . S
C396 C397 1.363 . S
C396 C402 1.379 . S
C396 N404 1.356 . S
C397 C396 1.363 . S
C397 C403 1.363 . S
C398 C399 1.363 . S
C398 C403 1.379 . S
C398 N405 1.356 . S
C399 C398 1.363 . S
C399 C402 1.363 . S
N400 C402 1.356 . S
N400 H412 0.984 . S
N400 H413 0.985 . S
N401 C403 1.356 . S
N401 H406 0.984 . S
N401 H407 0.985 . S
C402 C396 1.379 . S
C402 C399 1.363 . S
C402 N400 1.356 . S
C403 C397 1.363 . S
C403 C398 1.379 . S
C403 N401 1.356 . S
N404 C396 1.356 . S
N404 H410 0.984 . S
N404 H411 0.984 . S
N405 C398 1.356 . S
N405 H408 0.984 . S
N405 H409 0.985 . S
H406 N401 0.984 . S
H407 N401 0.985 . S
H408 N405 0.984 . S
H409 N405 0.985 . S
H410 N404 0.984 . S
H411 N404 0.984 . S
H412 N400 0.984 . S
H413 N400 0.985 . S
C414 C415 1.363 . S
C414 C420 1.379 . S
C414 N422 1.356 . S
C415 C414 1.363 . S
C415 C421 1.363 . S
C416 C417 1.363 . S
C416 C421 1.379 . S
C416 N423 1.356 . S
C417 C416 1.363 . S
C417 C420 1.363 . S
N418 C420 1.356 . S
N418 H430 0.984 . S
N418 H431 0.985 . S
N419 C421 1.356 . S
N419 H424 0.984 . S
N419 H425 0.985 . S
C420 C414 1.379 . S
C420 C417 1.363 . S
C420 N418 1.356 . S
C421 C415 1.363 . S
C421 C416 1.379 . S
C421 N419 1.356 . S
N422 C414 1.356 . S
N422 H428 0.984 . S
N422 H429 0.984 . S
N423 C416 1.356 . S
N423 H426 0.984 . S
N423 H427 0.985 . S
H424 N419 0.984 . S
H425 N419 0.985 . S
H426 N423 0.984 . S
H427 N423 0.985 . S
H428 N422 0.984 . S
H429 N422 0.984 . S
H430 N418 0.984 . S
H431 N418 0.985 . S
C432 C433 1.363 . S
C432 C438 1.379 . S
C432 N440 1.356 . S
C433 C432 1.363 . S
C433 C439 1.363 . S
C434 C435 1.363 . S
C434 C439 1.379 . S
C434 N441 1.356 . S
C435 C434 1.363 . S
C435 C438 1.363 . S
N436 C438 1.356 . S
N436 H448 0.984 . S
N436 H449 0.985 . S
N437 C439 1.356 . S
N437 H442 0.984 . S
N437 H443 0.985 . S
C438 C432 1.379 . S
C438 C435 1.363 . S
C438 N436 1.356 . S
C439 C433 1.363 . S
C439 C434 1.379 . S
C439 N437 1.356 . S
N440 C432 1.356 . S
N440 H446 0.984 . S
N440 H447 0.984 . S
N441 C434 1.356 . S
N441 H444 0.984 . S
N441 H445 0.985 . S
H442 N437 0.984 . S
H443 N437 0.985 . S
H444 N441 0.984 . S
H445 N441 0.985 . S
H446 N440 0.984 . S
H447 N440 0.984 . S
H448 N436 0.984 . S
H449 N436 0.985 . S
C450 C451 1.363 . S
C450 C456 1.379 . S
C450 N458 1.356 . S
C451 C450 1.363 . S
C451 C457 1.363 . S
C452 C453 1.363 . S
C452 C457 1.379 . S
C452 N459 1.356 . S
C453 C452 1.363 . S
C453 C456 1.363 . S
N454 C456 1.356 . S
N454 H466 0.984 . S
N454 H467 0.985 . S
N455 C457 1.356 . S
N455 H460 0.984 . S
N455 H461 0.985 . S
C456 C450 1.379 . S
C456 C453 1.363 . S
C456 N454 1.356 . S
C457 C451 1.363 . S
C457 C452 1.379 . S
C457 N455 1.356 . S
N458 C450 1.356 . S
N458 H464 0.984 . S
N458 H465 0.984 . S
N459 C452 1.356 . S
N459 H462 0.984 . S
N459 H463 0.985 . S
H460 N455 0.984 . S
H461 N455 0.985 . S
H462 N459 0.984 . S
H463 N459 0.985 . S
H464 N458 0.984 . S
H465 N458 0.984 . S
H466 N454 0.984 . S
H467 N454 0.985 . S
C468 C469 1.363 . S
C468 C474 1.379 . S
C468 N476 1.356 . S
C469 C468 1.363 . S
C469 C475 1.363 . S
C470 C471 1.363 . S
C470 C475 1.379 . S
C470 N477 1.356 . S
C471 C470 1.363 . S
C471 C474 1.363 . S
N472 C474 1.356 . S
N472 H484 0.984 . S
N472 H485 0.985 . S
N473 C475 1.356 . S
N473 H478 0.984 . S
N473 H479 0.985 . S
C474 C468 1.379 . S
C474 C471 1.363 . S
C474 N472 1.356 . S
C475 C469 1.363 . S
C475 C470 1.379 . S
C475 N473 1.356 . S
N476 C468 1.356 . S
N476 H482 0.984 . S
N476 H483 0.984 . S
N477 C470 1.356 . S
N477 H480 0.984 . S
N477 H481 0.985 . S
H478 N473 0.984 . S
H479 N473 0.985 . S
H480 N477 0.984 . S
H481 N477 0.985 . S
H482 N476 0.984 . S
H483 N476 0.984 . S
H484 N472 0.984 . S
H485 N472 0.985 . S
C486 C487 1.363 . S
C486 C492 1.379 . S
C486 N494 1.356 . S
C487 C486 1.363 . S
C487 C493 1.363 . S
C488 C489 1.363 . S
C488 C493 1.379 . S
C488 N495 1.356 . S
C489 C488 1.363 . S
C489 C492 1.363 . S
N490 C492 1.356 . S
N490 H502 0.984 . S
N490 H503 0.985 . S
N491 C493 1.356 . S
N491 H496 0.984 . S
N491 H497 0.985 . S
C492 C486 1.379 . S
C492 C489 1.363 . S
C492 N490 1.356 . S
C493 C487 1.363 . S
C493 C488 1.379 . S
C493 N491 1.356 . S
N494 C486 1.356 . S
N494 H500 0.984 . S
N494 H501 0.984 . S
N495 C488 1.356 . S
N495 H498 0.984 . S
N495 H499 0.985 . S
H496 N491 0.984 . S
H497 N491 0.985 . S
H498 N495 0.984 . S
H499 N495 0.985 . S
H500 N494 0.984 . S
H501 N494 0.984 . S
H502 N490 0.984 . S
H503 N490 0.985 . S
C504 C505 1.363 . S
C504 C510 1.379 . S
C504 N512 1.356 . S
C505 C504 1.363 . S
C505 C511 1.363 . S
C506 C507 1.363 . S
C506 C511 1.379 . S
C506 N513 1.356 . S
C507 C506 1.363 . S
C507 C510 1.363 . S
N508 C510 1.356 . S
N508 H520 0.984 . S
N508 H521 0.985 . S
N509 C511 1.356 . S
N509 H514 0.984 . S
N509 H515 0.985 . S
C510 C504 1.379 . S
C510 C507 1.363 . S
C510 N508 1.356 . S
C511 C505 1.363 . S
C511 C506 1.379 . S
C511 N509 1.356 . S
N512 C504 1.356 . S
N512 H518 0.984 . S
N512 H519 0.984 . S
N513 C506 1.356 . S
N513 H516 0.984 . S
N513 H517 0.985 . S
H514 N509 0.984 . S
H515 N509 0.985 . S
H516 N513 0.984 . S
H517 N513 0.985 . S
H518 N512 0.984 . S
H519 N512 0.984 . S
H520 N508 0.984 . S
H521 N508 0.985 . S
C522 C523 1.363 . S
C522 C528 1.379 . S
C522 N530 1.356 . S
C523 C522 1.363 . S
C523 C529 1.363 . S
C524 C525 1.363 . S
C524 C529 1.379 . S
C524 N531 1.356 . S
C525 C524 1.363 . S
C525 C528 1.363 . S
N526 C528 1.356 . S
N526 H538 0.984 . S
N526 H539 0.985 . S
N527 C529 1.356 . S
N527 H532 0.984 . S
N527 H533 0.985 . S
C528 C522 1.379 . S
C528 C525 1.363 . S
C528 N526 1.356 . S
C529 C523 1.363 . S
C529 C524 1.379 . S
C529 N527 1.356 . S
N530 C522 1.356 . S
N530 H536 0.984 . S
N530 H537 0.984 . S
N531 C524 1.356 . S
N531 H534 0.984 . S
N531 H535 0.985 . S
H532 N527 0.984 . S
H533 N527 0.985 . S
H534 N531 0.984 . S
H535 N531 0.985 . S
H536 N530 0.984 . S
H537 N530 0.984 . S
H538 N526 0.984 . S
H539 N526 0.985 . S
C540 C541 1.363 . S
C540 C546 1.379 . S
C540 N548 1.356 . S
C541 C540 1.363 . S
C541 C547 1.363 . S
C542 C543 1.363 . S
C542 C547 1.379 . S
C542 N549 1.356 . S
C543 C542 1.363 . S
C543 C546 1.363 . S
N544 C546 1.356 . S
N544 H556 0.984 . S
N544 H557 0.985 . S
N545 C547 1.356 . S
N545 H550 0.984 . S
N545 H551 0.985 . S
C546 C540 1.379 . S
C546 C543 1.363 . S
C546 N544 1.356 . S
C547 C541 1.363 . S
C547 C542 1.379 . S
C547 N545 1.356 . S
N548 C540 1.356 . S
N548 H554 0.984 . S
N548 H555 0.984 . S
N549 C542 1.356 . S
N549 H552 0.984 . S
N549 H553 0.985 . S
H550 N545 0.984 . S
H551 N545 0.985 . S
H552 N549 0.984 . S
H553 N549 0.985 . S
H554 N548 0.984 . S
H555 N548 0.984 . S
H556 N544 0.984 . S
H557 N544 0.985 . S
C558 C559 1.363 . S
C558 C564 1.379 . S
C558 N566 1.356 . S
C559 C558 1.363 . S
C559 C565 1.363 . S
C560 C561 1.363 . S
C560 C565 1.379 . S
C560 N567 1.356 . S
C561 C560 1.363 . S
C561 C564 1.363 . S
N562 C564 1.356 . S
N562 H574 0.984 . S
N562 H575 0.985 . S
N563 C565 1.356 . S
N563 H568 0.984 . S
N563 H569 0.985 . S
C564 C558 1.379 . S
C564 C561 1.363 . S
C564 N562 1.356 . S
C565 C559 1.363 . S
C565 C560 1.379 . S
C565 N563 1.356 . S
N566 C558 1.356 . S
N566 H572 0.984 . S
N566 H573 0.984 . S
N567 C560 1.356 . S
N567 H570 0.984 . S
N567 H571 0.985 . S
H568 N563 0.984 . S
H569 N563 0.985 . S
H570 N567 0.984 . S
H571 N567 0.985 . S
H572 N566 0.984 . S
H573 N566 0.984 . S
H574 N562 0.984 . S
H575 N562 0.985 . S
C576 C577 1.363 . S
C576 C582 1.379 . S
C576 N584 1.356 . S
C577 C576 1.363 . S
C577 C583 1.363 . S
C578 C579 1.363 . S
C578 C583 1.379 . S
C578 N585 1.356 . S
C579 C578 1.363 . S
C579 C582 1.363 . S
N580 C582 1.356 . S
N580 H592 0.984 . S
N580 H593 0.985 . S
N581 C583 1.356 . S
N581 H586 0.984 . S
N581 H587 0.985 . S
C582 C576 1.379 . S
C582 C579 1.363 . S
C582 N580 1.356 . S
C583 C577 1.363 . S
C583 C578 1.379 . S
C583 N581 1.356 . S
N584 C576 1.356 . S
N584 H590 0.984 . S
N584 H591 0.984 . S
N585 C578 1.356 . S
N585 H588 0.984 . S
N585 H589 0.985 . S
H586 N581 0.984 . S
H587 N581 0.985 . S
H588 N585 0.984 . S
H589 N585 0.985 . S
H590 N584 0.984 . S
H591 N584 0.984 . S
H592 N580 0.984 . S
H593 N580 0.985 . S
C594 C595 1.363 . S
C594 C600 1.379 . S
C594 N602 1.356 . S
C595 C594 1.363 . S
C595 C601 1.363 . S
C596 C597 1.363 . S
C596 C601 1.379 . S
C596 N603 1.356 . S
C597 C596 1.363 . S
C597 C600 1.363 . S
N598 C600 1.356 . S
N598 H610 0.984 . S
N598 H611 0.985 . S
N599 C601 1.356 . S
N599 H604 0.984 . S
N599 H605 0.985 . S
C600 C594 1.379 . S
C600 C597 1.363 . S
C600 N598 1.356 . S
C601 C595 1.363 . S
C601 C596 1.379 . S
C601 N599 1.356 . S
N602 C594 1.356 . S
N602 H608 0.984 . S
N602 H609 0.984 . S
N603 C596 1.356 . S
N603 H606 0.984 . S
N603 H607 0.985 . S
H604 N599 0.984 . S
H605 N599 0.985 . S
H606 N603 0.984 . S
H607 N603 0.985 . S
H608 N602 0.984 . S
H609 N602 0.984 . S
H610 N598 0.984 . S
H611 N598 0.985 . S
C612 C613 1.363 . S
C612 C618 1.379 . S
C612 N620 1.356 . S
C613 C612 1.363 . S
C613 C619 1.363 . S
C614 C615 1.363 . S
C614 C619 1.379 . S
C614 N621 1.356 . S
C615 C614 1.363 . S
C615 C618 1.363 . S
N616 C618 1.356 . S
N616 H628 0.984 . S
N616 H629 0.985 . S
N617 C619 1.356 . S
N617 H622 0.984 . S
N617 H623 0.985 . S
C618 C612 1.379 . S
C618 C615 1.363 . S
C618 N616 1.356 . S
C619 C613 1.363 . S
C619 C614 1.379 . S
C619 N617 1.356 . S
N620 C612 1.356 . S
N620 H626 0.984 . S
N620 H627 0.984 . S
N621 C614 1.356 . S
N621 H624 0.984 . S
N621 H625 0.985 . S
H622 N617 0.984 . S
H623 N617 0.985 . S
H624 N621 0.984 . S
H625 N621 0.985 . S
H626 N620 0.984 . S
H627 N620 0.984 . S
H628 N616 0.984 . S
H629 N616 0.985 . S
C630 C631 1.363 . S
C630 C636 1.379 . S
C630 N638 1.356 . S
C631 C630 1.363 . S
C631 C637 1.363 . S
C632 C633 1.363 . S
C632 C637 1.379 . S
C632 N639 1.356 . S
C633 C632 1.363 . S
C633 C636 1.363 . S
N634 C636 1.356 . S
N634 H646 0.984 . S
N634 H647 0.985 . S
N635 C637 1.356 1_545 S
N635 H640 0.984 . S
N635 H641 0.985 . S
C636 C630 1.379 . S
C636 C633 1.363 . S
C636 N634 1.356 . S
C637 C631 1.363 . S
C637 C632 1.379 . S
C637 N635 1.356 1_565 S
N638 C630 1.356 . S
N638 H644 0.984 . S
N638 H645 0.984 . S
N639 C632 1.356 . S
N639 H642 0.984 . S
N639 H643 0.985 . S
H640 N635 0.984 . S
H641 N635 0.985 . S
H642 N639 0.984 . S
H643 N639 0.985 . S
H644 N638 0.984 . S
H645 N638 0.984 . S
H646 N634 0.984 . S
H647 N634 0.985 . S
C648 C649 1.363 . S
C648 C654 1.379 . S
C648 N656 1.356 . S
C649 C648 1.363 . S
C649 C655 1.363 . S
C650 C651 1.363 . S
C650 C655 1.379 . S
C650 N657 1.356 . S
C651 C650 1.363 . S
C651 C654 1.363 . S
N652 C654 1.356 . S
N652 H664 0.984 . S
N652 H665 0.985 . S
N653 C655 1.356 . S
N653 H658 0.984 . S
N653 H659 0.985 . S
C654 C648 1.379 . S
C654 C651 1.363 . S
C654 N652 1.356 . S
C655 C649 1.363 . S
C655 C650 1.379 . S
C655 N653 1.356 . S
N656 C648 1.356 . S
N656 H662 0.984 . S
N656 H663 0.984 . S
N657 C650 1.356 . S
N657 H660 0.984 . S
N657 H661 0.985 . S
H658 N653 0.984 . S
H659 N653 0.985 . S
H660 N657 0.984 . S
H661 N657 0.985 . S
H662 N656 0.984 . S
H663 N656 0.984 . S
H664 N652 0.984 . S
H665 N652 0.985 . S
C666 C667 1.363 . S
C666 C672 1.379 . S
C666 N674 1.356 . S
C667 C666 1.363 . S
C667 C673 1.363 . S
C668 C669 1.363 . S
C668 C673 1.379 . S
C668 N675 1.356 . S
C669 C668 1.363 . S
C669 C672 1.363 . S
N670 C672 1.356 . S
N670 H682 0.984 . S
N670 H683 0.985 . S
N671 C673 1.356 . S
N671 H676 0.984 . S
N671 H677 0.985 . S
C672 C666 1.379 . S
C672 C669 1.363 . S
C672 N670 1.356 . S
C673 C667 1.363 . S
C673 C668 1.379 . S
C673 N671 1.356 . S
N674 C666 1.356 . S
N674 H680 0.984 1_455 S
N674 H681 0.984 . S
N675 C668 1.356 . S
N675 H678 0.984 . S
N675 H679 0.985 . S
H676 N671 0.984 . S
H677 N671 0.985 . S
H678 N675 0.984 . S
H679 N675 0.985 . S
H680 N674 0.984 1_655 S
H681 N674 0.984 . S
H682 N670 0.984 . S
H683 N670 0.985 . S
C684 C685 1.363 . S
C684 C690 1.379 . S
C684 N692 1.356 . S
C685 C684 1.363 . S
C685 C691 1.363 . S
C686 C687 1.363 . S
C686 C691 1.379 . S
C686 N693 1.356 . S
C687 C686 1.363 . S
C687 C690 1.363 . S
N688 C690 1.356 . S
N688 H700 0.984 . S
N688 H701 0.985 . S
N689 C691 1.356 . S
N689 H694 0.984 . S
N689 H695 0.985 1_545 S
C690 C684 1.379 . S
C690 C687 1.363 . S
C690 N688 1.356 . S
C691 C685 1.363 . S
C691 C686 1.379 . S
C691 N689 1.356 . S
N692 C684 1.356 . S
N692 H698 0.984 . S
N692 H699 0.984 . S
N693 C686 1.356 . S
N693 H696 0.984 . S
N693 H697 0.985 . S
H694 N689 0.984 . S
H695 N689 0.985 1_565 S
H696 N693 0.984 . S
H697 N693 0.985 . S
H698 N692 0.984 . S
H699 N692 0.984 . S
H700 N688 0.984 . S
H701 N688 0.985 . S
C702 C703 1.363 . S
C702 C708 1.379 . S
C702 N710 1.356 . S
C703 C702 1.363 . S
C703 C709 1.363 . S
C704 C705 1.363 . S
C704 C709 1.379 . S
C704 N711 1.356 . S
C705 C704 1.363 . S
C705 C708 1.363 . S
N706 C708 1.356 . S
N706 H718 0.984 . S
N706 H719 0.985 . S
N707 C709 1.356 . S
N707 H712 0.984 . S
N707 H713 0.985 . S
C708 C702 1.379 . S
C708 C705 1.363 . S
C708 N706 1.356 . S
C709 C703 1.363 . S
C709 C704 1.379 . S
C709 N707 1.356 . S
N710 C702 1.356 . S
N710 H716 0.984 . S
N710 H717 0.984 . S
N711 C704 1.356 . S
N711 H714 0.984 . S
N711 H715 0.985 . S
H712 N707 0.984 . S
H713 N707 0.985 . S
H714 N711 0.984 . S
H715 N711 0.985 . S
H716 N710 0.984 . S
H717 N710 0.984 . S
H718 N706 0.984 . S
H719 N706 0.985 . S
C720 C721 1.363 . S
C720 C726 1.379 . S
C720 N728 1.356 . S
C721 C720 1.363 . S
C721 C727 1.363 . S
C722 C723 1.363 . S
C722 C727 1.379 . S
C722 N729 1.356 . S
C723 C722 1.363 . S
C723 C726 1.363 . S
N724 C726 1.356 . S
N724 H736 0.984 . S
N724 H737 0.985 . S
N725 C727 1.356 . S
N725 H730 0.984 . S
N725 H731 0.985 . S
C726 C720 1.379 . S
C726 C723 1.363 . S
C726 N724 1.356 . S
C727 C721 1.363 . S
C727 C722 1.379 . S
C727 N725 1.356 . S
N728 C720 1.356 . S
N728 H734 0.984 . S
N728 H735 0.984 . S
N729 C722 1.356 . S
N729 H732 0.984 . S
N729 H733 0.985 . S
H730 N725 0.984 . S
H731 N725 0.985 . S
H732 N729 0.984 . S
H733 N729 0.985 . S
H734 N728 0.984 . S
H735 N728 0.984 . S
H736 N724 0.984 . S
H737 N724 0.985 . S
C738 C739 1.363 . S
C738 C744 1.379 . S
C738 N746 1.356 . S
C739 C738 1.363 . S
C739 C745 1.363 . S
C740 C741 1.363 . S
C740 C745 1.379 . S
C740 N747 1.356 . S
C741 C740 1.363 . S
C741 C744 1.363 . S
N742 C744 1.356 . S
N742 H754 0.984 . S
N742 H755 0.985 . S
N743 C745 1.356 . S
N743 H748 0.984 . S
N743 H749 0.985 . S
C744 C738 1.379 . S
C744 C741 1.363 . S
C744 N742 1.356 . S
C745 C739 1.363 . S
C745 C740 1.379 . S
C745 N743 1.356 . S
N746 C738 1.356 . S
N746 H752 0.984 . S
N746 H753 0.984 . S
N747 C740 1.356 . S
N747 H750 0.984 . S
N747 H751 0.985 . S
H748 N743 0.984 . S
H749 N743 0.985 . S
H750 N747 0.984 . S
H751 N747 0.985 . S
H752 N746 0.984 . S
H753 N746 0.984 . S
H754 N742 0.984 . S
H755 N742 0.985 . S
C756 C757 1.363 . S
C756 C762 1.379 . S
C756 N764 1.356 . S
C757 C756 1.363 . S
C757 C763 1.363 . S
C758 C759 1.363 . S
C758 C763 1.379 . S
C758 N765 1.356 . S
C759 C758 1.363 . S
C759 C762 1.363 . S
N760 C762 1.356 . S
N760 H772 0.984 . S
N760 H773 0.985 . S
N761 C763 1.356 . S
N761 H766 0.984 . S
N761 H767 0.985 1_655 S
C762 C756 1.379 . S
C762 C759 1.363 . S
C762 N760 1.356 . S
C763 C757 1.363 . S
C763 C758 1.379 . S
C763 N761 1.356 . S
N764 C756 1.356 . S
N764 H770 0.984 . S
N764 H771 0.984 . S
N765 C758 1.356 . S
N765 H768 0.984 . S
N765 H769 0.985 . S
H766 N761 0.984 . S
H767 N761 0.985 1_455 S
H768 N765 0.984 . S
H769 N765 0.985 . S
H770 N764 0.984 . S
H771 N764 0.984 . S
H772 N760 0.984 . S
H773 N760 0.985 . S
C774 C775 1.363 . S
C774 C780 1.379 . S
C774 N782 1.356 . S
C775 C774 1.363 . S
C775 C781 1.363 . S
C776 C777 1.363 . S
C776 C781 1.379 . S
C776 N783 1.356 . S
C777 C776 1.363 . S
C777 C780 1.363 . S
N778 C780 1.356 . S
N778 H790 0.984 . S
N778 H791 0.985 . S
N779 C781 1.356 . S
N779 H784 0.984 . S
N779 H785 0.985 . S
C780 C774 1.379 . S
C780 C777 1.363 . S
C780 N778 1.356 . S
C781 C775 1.363 . S
C781 C776 1.379 . S
C781 N779 1.356 . S
N782 C774 1.356 . S
N782 H788 0.984 . S
N782 H789 0.984 . S
N783 C776 1.356 . S
N783 H786 0.984 . S
N783 H787 0.985 . S
H784 N779 0.984 . S
H785 N779 0.985 . S
H786 N783 0.984 . S
H787 N783 0.985 . S
H788 N782 0.984 . S
H789 N782 0.984 . S
H790 N778 0.984 . S
H791 N778 0.985 . S
C792 C793 1.363 . S
C792 C798 1.379 . S
C792 N800 1.356 . S
C793 C792 1.363 . S
C793 C799 1.363 . S
C794 C795 1.363 . S
C794 C799 1.379 . S
C794 N801 1.356 . S
C795 C794 1.363 . S
C795 C798 1.363 . S
N796 C798 1.356 . S
N796 H808 0.984 . S
N796 H809 0.985 . S
N797 C799 1.356 . S
N797 H802 0.984 . S
N797 H803 0.985 . S
C798 C792 1.379 . S
C798 C795 1.363 . S
C798 N796 1.356 . S
C799 C793 1.363 . S
C799 C794 1.379 . S
C799 N797 1.356 . S
N800 C792 1.356 . S
N800 H806 0.984 . S
N800 H807 0.984 . S
N801 C794 1.356 . S
N801 H804 0.984 . S
N801 H805 0.985 . S
H802 N797 0.984 . S
H803 N797 0.985 . S
H804 N801 0.984 . S
H805 N801 0.985 . S
H806 N800 0.984 . S
H807 N800 0.984 . S
H808 N796 0.984 . S
H809 N796 0.985 . S
C810 C811 1.363 . S
C810 C816 1.379 . S
C810 N818 1.356 . S
C811 C810 1.363 . S
C811 C817 1.363 . S
C812 C813 1.363 . S
C812 C817 1.379 . S
C812 N819 1.356 . S
C813 C812 1.363 . S
C813 C816 1.363 . S
N814 C816 1.356 . S
N814 H826 0.984 . S
N814 H827 0.985 . S
N815 C817 1.356 . S
N815 H820 0.984 . S
N815 H821 0.985 . S
C816 C810 1.379 . S
C816 C813 1.363 . S
C816 N814 1.356 . S
C817 C811 1.363 . S
C817 C812 1.379 . S
C817 N815 1.356 . S
N818 C810 1.356 . S
N818 H824 0.984 . S
N818 H825 0.984 . S
N819 C812 1.356 . S
N819 H822 0.984 . S
N819 H823 0.985 . S
H820 N815 0.984 . S
H821 N815 0.985 . S
H822 N819 0.984 . S
H823 N819 0.985 . S
H824 N818 0.984 . S
H825 N818 0.984 . S
H826 N814 0.984 . S
H827 N814 0.985 . S
C397 C39 1.737 . S
C399 C319 1.731 . S
C415 C91 1.745 . S
C417 C332 1.741 . S
C435 C354 1.516 . S
C433 C128 1.590 . S
C453 C367 1.490 . S
C451 C188 1.556 . S
C471 C380 1.614 . S
C469 C250 1.686 . S
C489 C393 1.621 . S
C487 C304 1.711 . S
C505 C75 1.590 . S
C507 C349 1.505 . S
C523 C144 1.714 . S
C525 C362 1.626 . S
C543 C375 1.593 . S
C541 C198 1.673 . S
C561 C388 1.438 . S
C559 C234 1.522 . S
C577 C294 1.534 . S
C579 C321 1.533 . S
C597 C334 1.563 . S
C595 C29 1.561 . S
C615 C360 1.635 . S
C613 C38 1.725 . S
C631 C92 1.739 . S
C633 C373 1.660 . S
C651 C386 1.498 . S
C649 C135 1.583 . S
C667 C181 1.547 . S
C669 C323 1.547 . S
C685 C251 1.676 . S
C687 C336 1.674 . S
C703 C303 1.697 . S
C705 C347 1.593 . S
C721 C82 1.599 . S
C723 C384 1.526 . S
C741 C328 1.719 . S
C739 C145 1.725 . S
C757 C197 1.686 . S
C759 C341 1.682 . S
C775 C241 1.535 . S
C777 C345 1.461 . S
C793 C287 1.543 . S
C795 C358 1.479 . S
C811 C22 1.567 . S
C813 C371 1.511 . S
