# Generated by pormake.
# Topology ctn, (3,4)-cn, num edge types: 1
# Building blocks:
#     Node 0, Type 0, BuildingBlock: WUSLED_clean_sbu_0, # of connection points: 3
#     Node 1, Type 0, BuildingBlock: WUSLED_clean_sbu_0, # of connection points: 3
#     Node 2, Type 0, BuildingBlock: WUSLED_clean_sbu_0, # of connection points: 3
#     Node 3, Type 0, BuildingBlock: WUSLED_clean_sbu_0, # of connection points: 3
#     Node 4, Type 0, BuildingBlock: WUSLED_clean_sbu_0, # of connection points: 3
#     Node 5, Type 0, BuildingBlock: WUSLED_clean_sbu_0, # of connection points: 3
#     Node 6, Type 0, BuildingBlock: WUSLED_clean_sbu_0, # of connection points: 3
#     Node 7, Type 0, BuildingBlock: WUSLED_clean_sbu_0, # of connection points: 3
#     Node 8, Type 0, BuildingBlock: WUSLED_clean_sbu_0, # of connection points: 3
#     Node 9, Type 0, BuildingBlock: WUSLED_clean_sbu_0, # of connection points: 3
#     Node 10, Type 0, BuildingBlock: WUSLED_clean_sbu_0, # of connection points: 3
#     Node 11, Type 0, BuildingBlock: WUSLED_clean_sbu_0, # of connection points: 3
#     Node 12, Type 0, BuildingBlock: WUSLED_clean_sbu_0, # of connection points: 3
#     Node 13, Type 0, BuildingBlock: WUSLED_clean_sbu_0, # of connection points: 3
#     Node 14, Type 0, BuildingBlock: WUSLED_clean_sbu_0, # of connection points: 3
#     Node 15, Type 0, BuildingBlock: WUSLED_clean_sbu_0, # of connection points: 3
#     Node 16, Type 1, BuildingBlock: AZAVOO_clean_sbu_0, # of connection points: 4
#     Node 17, Type 1, BuildingBlock: AZAVOO_clean_sbu_0, # of connection points: 4
#     Node 18, Type 1, BuildingBlock: AZAVOO_clean_sbu_0, # of connection points: 4
#     Node 19, Type 1, BuildingBlock: AZAVOO_clean_sbu_0, # of connection points: 4
#     Node 20, Type 1, BuildingBlock: AZAVOO_clean_sbu_0, # of connection points: 4
#     Node 21, Type 1, BuildingBlock: AZAVOO_clean_sbu_0, # of connection points: 4
#     Node 22, Type 1, BuildingBlock: AZAVOO_clean_sbu_0, # of connection points: 4
#     Node 23, Type 1, BuildingBlock: AZAVOO_clean_sbu_0, # of connection points: 4
#     Node 24, Type 1, BuildingBlock: AZAVOO_clean_sbu_0, # of connection points: 4
#     Node 25, Type 1, BuildingBlock: AZAVOO_clean_sbu_0, # of connection points: 4
#     Node 26, Type 1, BuildingBlock: AZAVOO_clean_sbu_0, # of connection points: 4
#     Node 27, Type 1, BuildingBlock: AZAVOO_clean_sbu_0, # of connection points: 4
#     Edge 28, Type (0, 1), None
#     Edge 29, Type (0, 1), None
#     Edge 30, Type (0, 1), None
#     Edge 31, Type (0, 1), None
#     Edge 32, Type (0, 1), None
#     Edge 33, Type (0, 1), None
#     Edge 34, Type (0, 1), None
#     Edge 35, Type (0, 1), None
#     Edge 36, Type (0, 1), None
#     Edge 37, Type (0, 1), None
#     Edge 38, Type (0, 1), None
#     Edge 39, Type (0, 1), None
#     Edge 40, Type (0, 1), None
#     Edge 41, Type (0, 1), None
#     Edge 42, Type (0, 1), None
#     Edge 43, Type (0, 1), None
#     Edge 44, Type (0, 1), None
#     Edge 45, Type (0, 1), None
#     Edge 46, Type (0, 1), None
#     Edge 47, Type (0, 1), None
#     Edge 48, Type (0, 1), None
#     Edge 49, Type (0, 1), None
#     Edge 50, Type (0, 1), None
#     Edge 51, Type (0, 1), None
#     Edge 52, Type (0, 1), None
#     Edge 53, Type (0, 1), None
#     Edge 54, Type (0, 1), None
#     Edge 55, Type (0, 1), None
#     Edge 56, Type (0, 1), None
#     Edge 57, Type (0, 1), None
#     Edge 58, Type (0, 1), None
#     Edge 59, Type (0, 1), None
#     Edge 60, Type (0, 1), None
#     Edge 61, Type (0, 1), None
#     Edge 62, Type (0, 1), None
#     Edge 63, Type (0, 1), None
#     Edge 64, Type (0, 1), None
#     Edge 65, Type (0, 1), None
#     Edge 66, Type (0, 1), None
#     Edge 67, Type (0, 1), None
#     Edge 68, Type (0, 1), None
#     Edge 69, Type (0, 1), None
#     Edge 70, Type (0, 1), None
#     Edge 71, Type (0, 1), None
#     Edge 72, Type (0, 1), None
#     Edge 73, Type (0, 1), None
#     Edge 74, Type (0, 1), None
#     Edge 75, Type (0, 1), None
# Relax obj value: 0.003
# Max RMSD: 0.041
# Mean RMSD: 0.026
data_MOF--net-ctn--node1-WUSLED_clean_sbu_0--node2-AZAVOO_clean_sbu_0--edge1-none
_symmetry_space_group_name_H-M    P1
_symmetry_Int_Tables_number       1
_symmetry_cell_setting            triclinic
loop_
_symmetry_equiv_pos_as_xyz
'x, y, z'
_cell_length_a     39.107434
_cell_length_b     40.6127
_cell_length_c     40.445063
_cell_angle_alpha  91.044441
_cell_angle_beta   93.176212
_cell_angle_gamma 93.27076
loop_
_atom_site_label
_atom_site_type_symbol
_atom_site_fract_x
_atom_site_fract_y
_atom_site_fract_z
_atom_type_partial_charge
C0 C 1.01584 0.01926 0.12168 0.0
C1 C 0.02539 1.00398 0.15124 0.0
C2 C 0.97633 0.02488 0.17788 0.0
C3 C 1.00602 1.00682 0.17899 0.0
C4 C 0.96639 0.03987 0.14798 0.0
C5 C 0.98607 0.03715 0.12006 0.0
U6 U 0.05566 0.04943 0.04103 0.0
O7 O 1.01398 0.07443 1.01454 0.0
O8 O 0.05199 0.10296 0.04713 0.0
C9 C 0.02508 0.10374 0.02627 0.0
C10 C 0.03838 0.01681 0.09375 0.0
C11 C 0.02544 0.13114 1.00286 0.0
C12 C 1.00348 0.1838 0.98741 0.0
C13 C 1.00178 0.1554 1.00634 0.0
C14 C 0.05164 0.16342 0.95977 0.0
C15 C 0.02882 0.18855 0.96434 0.0
C16 C 0.05006 0.13494 0.97902 0.0
C17 C 0.1271 0.99956 1.0095 0.0
C18 C 0.17576 0.96996 0.99206 0.0
C19 C 0.1438 0.95031 0.03809 0.0
C20 C 0.12215 0.97643 0.03436 0.0
C21 C 0.17097 0.94676 0.01707 0.0
C22 C 0.154 0.99612 0.98833 0.0
C23 C 0.1049 0.02766 1.00619 0.0
O24 O 0.06419 0.03896 0.09391 0.0
O25 O 0.0236 1.01078 0.06409 0.0
O26 O 0.07215 0.01996 0.99911 0.0
O27 O 0.11009 0.05056 0.02957 0.0
H28 H 0.04835 0.99023 0.15308 0.0
H29 H 1.01495 0.99541 0.20156 0.0
H30 H 0.94386 0.05419 0.14633 0.0
H31 H 0.97836 0.04934 0.09748 0.0
H32 H 0.98557 0.2025 0.99179 0.0
H33 H 0.98262 0.15293 0.02464 0.0
H34 H 0.07162 0.16636 0.94237 0.0
H35 H 0.06863 0.11647 0.97604 0.0
H36 H 0.19639 0.96801 0.97547 0.0
H37 H 0.13929 0.933 0.05765 0.0
H38 H 0.10163 0.97872 0.05105 0.0
H39 H 0.1583 1.01381 0.96905 0.0
C40 C 0.30192 0.78838 0.15349 0.0
C41 C 0.28858 0.81957 0.15769 0.0
C42 C 0.29066 0.8295 0.0985 0.0
C43 C 0.28313 0.83994 0.1305 0.0
C44 C 0.30603 0.79928 0.09472 0.0
C45 C 0.31148 0.77895 0.12185 0.0
U46 U 0.33016 0.74454 0.23573 0.0
O47 O 0.29592 0.72242 0.27185 0.0
O48 O 0.32914 0.69129 0.24444 0.0
C49 C 0.30422 0.69224 0.2649 0.0
C50 C 0.30036 0.76343 0.17989 0.0
C51 C 0.27593 0.66626 0.2602 0.0
C52 C 0.22023 0.64282 0.27538 0.0
C53 C 0.24452 0.66956 0.27499 0.0
C54 C 0.25761 0.60939 0.24504 0.0
C55 C 0.227 0.61212 0.2613 0.0
C56 C 0.28176 0.63607 0.24455 0.0
C57 C 0.40701 0.77081 0.29386 0.0
C58 C 0.41331 0.75113 0.35022 0.0
C59 C 0.46167 0.77916 0.32565 0.0
C60 C 0.44146 0.78274 0.29633 0.0
C61 C 0.44769 0.76373 0.35317 0.0
C62 C 0.39326 0.75449 0.32085 0.0
C63 C 0.38557 0.77567 0.26329 0.0
O64 O 0.3241 0.74174 0.18121 0.0
O65 O 0.29156 0.77312 0.20929 0.0
O66 O 0.35434 0.78472 0.26766 0.0
O67 O 0.38651 0.75263 0.24016 0.0
H68 H 0.28061 0.82757 0.18161 0.0
H69 H 0.27123 0.86305 0.13432 0.0
H70 H 0.31211 0.79038 0.07047 0.0
H71 H 0.3214 0.75495 0.11764 0.0
H72 H 0.19701 0.64573 0.28827 0.0
H73 H 0.2393 0.69234 0.28759 0.0
H74 H 0.26385 0.58615 0.23408 0.0
H75 H 0.30576 0.63243 0.23323 0.0
H76 H 0.40168 0.73894 0.37075 0.0
H77 H 0.48798 0.7892 0.32699 0.0
H78 H 0.45262 0.79521 0.2757 0.0
H79 H 0.36684 0.74472 0.31938 0.0
C80 C 0.97459 0.4306 0.99822 0.0
C81 C 0.95006 0.40417 0.99962 0.0
C82 C 0.98773 0.36724 0.97297 0.0
C83 C 0.95656 0.37292 0.98734 0.0
C84 C 1.01211 0.39387 0.97087 0.0
C85 C 1.00565 0.42523 0.98344 0.0
U86 U 0.98979 0.50509 0.05904 0.0
O87 O 0.98653 0.55818 0.04964 0.0
O88 O 0.95231 0.53371 0.08407 0.0
C89 C 0.96011 0.56079 0.06808 0.0
C90 C 0.96652 0.46344 1.0114 0.0
C91 C 0.93125 0.57942 0.05409 0.0
C92 C 0.87001 0.58804 0.04639 0.0
C93 C 0.89674 0.56772 0.05539 0.0
C94 C 0.91174 0.63142 0.03323 0.0
C95 C 0.87724 0.62049 0.03607 0.0
C96 C 0.93834 0.61119 0.04221 0.0
C97 C 0.0674 0.5039 0.12457 0.0
C98 C 0.08553 0.50702 0.18349 0.0
C99 C 0.12477 0.5259 0.14276 0.0
C100 C 0.09974 0.51798 0.11744 0.0
C101 C 0.11836 0.51984 0.17608 0.0
C102 C 0.06039 0.49893 0.15799 0.0
C103 C 0.04356 0.49053 0.09694 0.0
O104 O 0.95419 0.46386 0.041 0.0
O105 O 0.98867 0.48832 1.00689 0.0
O106 O 0.04569 0.50492 0.0682 0.0
O107 O 1.01182 0.48171 0.10361 0.0
H108 H 0.92573 0.40765 1.01042 0.0
H109 H 0.93704 0.35313 0.98925 0.0
H110 H 0.0364 0.39038 0.96006 0.0
H111 H 0.02505 0.44515 0.98171 0.0
H112 H 0.84376 0.57882 0.0489 0.0
H113 H 0.89033 0.54334 0.06446 0.0
H114 H 0.91835 0.65617 0.02526 0.0
H115 H 0.96462 0.62093 0.04106 0.0
H116 H 0.07971 0.50193 0.20883 0.0
H117 H 0.14962 0.53592 0.136 0.0
H118 H 0.1063 0.52176 0.09206 0.0
H119 H 0.03593 0.4877 0.16441 0.0
C120 C 0.72112 0.75411 0.178 0.0
C121 C 0.7192 0.76781 0.14631 0.0
C122 C 0.74482 0.71993 0.12286 0.0
C123 C 0.73089 0.75091 0.11909 0.0
C124 C 0.74605 0.70589 0.15436 0.0
C125 C 0.73416 0.72272 0.18159 0.0
U126 U 0.73349 0.82466 0.24241 0.0
O127 O 0.69593 0.85487 0.26561 0.0
O128 O 0.72874 0.82415 0.29631 0.0
C129 C 0.70242 0.84292 0.29515 0.0
C130 C 0.71003 0.77221 0.20742 0.0
C131 C 0.67231 0.82998 0.31224 0.0
C132 C 0.62886 0.78618 0.3208 0.0
C133 C 0.65624 0.7991 0.30323 0.0
C134 C 0.63263 0.83527 0.35604 0.0
C135 C 0.61696 0.80392 0.34769 0.0
C136 C 0.66009 0.84812 0.33848 0.0
C137 C 0.81643 0.88251 0.2329 0.0
C138 C 0.83592 0.9405 0.24078 0.0
C139 C 0.87727 0.89838 0.2404 0.0
C140 C 0.85072 0.87411 0.23556 0.0
C141 C 0.8704 0.93196 0.24268 0.0
C142 C 0.80912 0.91596 0.23575 0.0
C143 C 0.78994 0.8558 0.22407 0.0
O144 O 0.73007 0.77076 0.23447 0.0
O145 O 0.69893 0.80183 0.20255 0.0
O146 O 0.75904 0.86376 0.21377 0.0
O147 O 0.78976 0.82993 0.24313 0.0
H148 H 0.70914 0.79183 0.1425 0.0
H149 H 0.72973 0.76256 0.09523 0.0
H150 H 0.75658 0.68205 0.1581 0.0
H151 H 0.73562 0.71137 0.20562 0.0
H152 H 0.6174 0.76202 0.31361 0.0
H153 H 0.66526 0.78475 0.28295 0.0
H154 H 0.62417 0.8496 0.37657 0.0
H155 H 0.67215 0.87203 0.34575 0.0
H156 H 0.82968 0.96609 0.24249 0.0
H157 H 0.90335 0.89065 0.24198 0.0
H158 H 0.85712 0.84859 0.23312 0.0
H159 H 0.78289 0.92321 0.23353 0.0
C160 C 1.00407 0.97045 0.42251 0.0
C161 C 0.99173 1.00175 0.41601 0.0
C162 C 0.97714 0.9851 0.35839 0.0
C163 C 0.97817 1.00897 0.38416 0.0
C164 C 0.98863 0.95366 0.36548 0.0
C165 C 1.00175 0.94644 0.39709 0.0
U166 U 0.06612 0.98368 0.50067 0.0
O167 O 0.05727 0.96745 0.55167 0.0
O168 O 0.09929 0.94835 0.52474 0.0
C169 C 0.08066 0.94545 0.55072 0.0
C170 C 1.01939 0.96147 0.45516 0.0
C171 C 0.06993 0.91111 0.5595 0.0
C172 C 0.05013 0.87138 0.60002 0.0
C173 C 0.05866 0.90407 0.59118 0.0
C174 C 0.06399 0.85236 0.54562 0.0
C175 C 0.05317 0.84506 0.57743 0.0
C176 C 0.07203 0.88484 0.53671 0.0
C177 C 0.12528 0.06583 0.50713 0.0
C178 C 0.1854 0.08602 0.51482 0.0
C179 C 0.1403 0.12266 0.5249 0.0
C180 C 0.11561 0.09712 0.51691 0.0
C181 C 0.17553 0.11776 0.52325 0.0
C182 C 0.16053 0.06035 0.50665 0.0
C183 C 0.0983 0.04152 0.49293 0.0
O184 O 0.05163 0.95389 0.45558 0.0
O185 O 1.01219 0.979 0.48126 0.0
O186 O 0.06975 0.0377 0.50857 0.0
O187 O 0.1081 1.01383 0.48014 0.0
H188 H 0.99307 0.02073 0.43528 0.0
H189 H 0.96974 0.03347 0.3794 0.0
H190 H 0.98798 0.93458 0.34634 0.0
H191 H 1.01068 0.92204 0.40156 0.0
H192 H 0.04182 0.86669 0.62469 0.0
H193 H 0.0568 0.92382 0.60924 0.0
H194 H 0.06627 0.83288 0.52735 0.0
H195 H 0.08029 0.88926 0.51197 0.0
H196 H 0.21226 0.0813 0.51333 0.0
H197 H 0.13157 0.14661 0.53154 0.0
H198 H 0.08874 0.10229 0.5171 0.0
H199 H 0.16893 0.03661 0.49887 0.0
C200 C 0.23508 0.78815 0.8527 0.0
C201 C 0.26506 0.77825 0.86931 0.0
C202 C 0.25862 0.81831 0.91408 0.0
C203 C 0.27675 0.7932 0.89962 0.0
C204 C 0.22903 0.82871 0.89682 0.0
C205 C 0.21739 0.81373 0.86642 0.0
U206 U 0.23656 0.71913 0.78701 0.0
O207 O 0.19389 0.69051 0.76024 0.0
O208 O 0.22999 0.72118 0.73257 0.0
C209 C 0.20154 0.70221 0.73129 0.0
C210 C 0.22163 0.77146 0.82157 0.0
C211 C 0.17284 0.71278 0.70929 0.0
C212 C 0.11405 0.72893 0.69934 0.0
C213 C 0.1416 0.72188 0.72138 0.0
C214 C 0.14891 0.71866 0.65304 0.0
C215 C 0.11723 0.727 0.66482 0.0
C216 C 0.17626 0.71162 0.67499 0.0
C217 C 0.30509 0.65463 0.79676 0.0
C218 C 0.32258 0.61873 0.75269 0.0
C219 C 0.34511 0.61204 0.80898 0.0
C220 C 0.32575 0.63786 0.81955 0.0
C221 C 0.34429 0.60254 0.77529 0.0
C222 C 0.30315 0.64448 0.76332 0.0
C223 C 0.2875 0.68374 0.80802 0.0
O224 O 0.24227 0.7727 0.79701 0.0
O225 O 0.20651 0.74203 0.8248 0.0
O226 O 0.25585 0.67835 0.81681 0.0
O227 O 0.29157 0.7103 0.79022 0.0
H228 H 0.27911 0.75858 0.8591 0.0
H229 H 0.29963 0.78445 0.91206 0.0
H230 H 0.21434 0.84783 0.90715 0.0
H231 H 0.1942 0.82174 0.8539 0.0
H232 H 0.09014 0.73538 0.70935 0.0
H233 H 0.13825 0.72299 0.74777 0.0
H234 H 0.15254 0.71702 0.62672 0.0
H235 H 0.20003 0.70457 0.66506 0.0
H236 H 0.32118 0.61206 0.72658 0.0
H237 H 0.36149 0.60019 0.82708 0.0
H238 H 0.32759 0.6453 0.84548 0.0
H239 H 0.28728 0.657 0.7453 0.0
C240 C 0.98309 0.60162 0.5458 0.0
C241 C 0.99759 0.62909 0.52982 0.0
C242 C 0.9972 0.66237 0.58077 0.0
C243 C 1.00463 0.65923 0.5472 0.0
C244 C 0.98386 0.63442 0.5968 0.0
C245 C 0.97693 0.60445 0.57951 0.0
U246 U 0.98922 0.53162 0.47943 0.0
O247 O 0.98166 0.47807 0.48607 0.0
O248 O 0.94685 0.50318 0.45176 0.0
C249 C 0.95362 0.4755 0.46651 0.0
C250 C 0.97215 0.5703 0.528 0.0
C251 C 0.92446 0.45502 0.47867 0.0
C252 C 0.86407 0.44539 0.49027 0.0
C253 C 0.89145 0.46669 0.48117 0.0
C254 C 0.90248 0.40086 0.49507 0.0
C255 C 0.86918 0.41203 0.49692 0.0
C256 C 0.92962 0.42202 0.48603 0.0
C257 C 0.06393 0.53364 0.41922 0.0
C258 C 0.07629 0.52716 0.3609 0.0
C259 C 0.11866 0.51389 0.40367 0.0
C260 C 0.09633 0.52209 0.42796 0.0
C261 C 0.10936 0.51715 0.36985 0.0
C262 C 0.05387 0.53549 0.38533 0.0
C263 C 0.04324 0.54717 0.4456 0.0
O264 O 0.95967 0.57227 0.49727 0.0
O265 O 0.99216 0.54568 0.53247 0.0
O266 O 0.04493 0.53242 0.47426 0.0
O267 O 1.01227 0.55633 0.43713 0.0
H268 H 1.00268 0.62747 0.50381 0.0
H269 H 1.01482 0.68029 0.53409 0.0
H270 H 0.97788 0.63584 0.6226 0.0
H271 H 0.9658 0.58361 0.59235 0.0
H272 H 0.83884 0.45489 0.49146 0.0
H273 H 0.88664 0.49205 0.47559 0.0
H274 H 0.90766 0.37547 0.50011 0.0
H275 H 0.95471 0.41232 0.48416 0.0
H276 H 0.06835 0.53013 0.3351 0.0
H277 H 0.14385 0.50621 0.41155 0.0
H278 H 0.1051 0.52066 0.45376 0.0
H279 H 0.02922 0.54454 0.37763 0.0
C280 C 0.77629 0.76042 0.8807 0.0
C281 C 0.80504 0.75024 0.89946 0.0
C282 C 0.76759 0.72585 0.93993 0.0
C283 C 0.80068 0.7328 0.92884 0.0
C284 C 0.73906 0.73439 0.91993 0.0
C285 C 0.74338 0.75132 0.89062 0.0
U286 U 0.81438 0.80187 0.80252 0.0
O287 O 0.78391 0.8191 0.75925 0.0
O288 O 0.81591 0.8545 0.79092 0.0
C289 C 0.7933 0.85023 0.76571 0.0
C290 C 0.77896 0.78353 0.85307 0.0
C291 C 0.76634 0.8742 0.76313 0.0
C292 C 0.73052 0.91393 0.78823 0.0
C293 C 0.75111 0.88673 0.79109 0.0
C294 C 0.73858 0.91478 0.72931 0.0
C295 C 0.72532 0.92906 0.75747 0.0
C296 C 0.75878 0.88762 0.73212 0.0
C297 C 0.89359 0.77829 0.75929 0.0
C298 C 0.90369 0.79498 0.70302 0.0
C299 C 0.948 0.76858 0.73524 0.0
C300 C 0.9267 0.7666 0.76204 0.0
C301 C 0.93638 0.78206 0.70512 0.0
C302 C 0.8826 0.79325 0.72986 0.0
C303 C 0.87019 0.77367 0.78651 0.0
O304 O 0.80406 0.80659 0.85526 0.0
O305 O 0.77248 0.77129 0.82293 0.0
O306 O 0.83902 0.76179 0.77746 0.0
O307 O 0.8705 0.7982 0.8082 0.0
H308 H 0.83071 0.75702 0.89226 0.0
H309 H 0.82313 0.72678 0.94392 0.0
H310 H 0.71327 0.7293 0.92777 0.0
H311 H 0.72087 0.75887 0.87655 0.0
H312 H 0.7209 0.92455 0.81039 0.0
H313 H 0.75659 0.87666 0.8153 0.0
H314 H 0.73492 0.9258 0.70526 0.0
H315 H 0.77016 0.87829 0.71026 0.0
H316 H 0.89397 0.80567 0.68029 0.0
H317 H 0.97294 0.7583 0.73768 0.0
H318 H 0.93574 0.75514 0.78461 0.0
H319 H 0.85728 0.80276 0.72729 0.0
C320 C 0.27549 0.25687 0.3779 0.0
C321 C 0.30419 0.24706 0.397 0.0
C322 C 0.26658 0.22238 0.43722 0.0
C323 C 0.29973 0.22965 0.42639 0.0
C324 C 0.23813 0.23054 0.4169 0.0
C325 C 0.24256 0.24741 0.38755 0.0
U326 U 0.31192 0.29909 0.29894 0.0
O327 O 0.28029 0.31781 0.25719 0.0
O328 O 0.31383 0.35207 0.28871 0.0
C329 C 0.29033 0.3487 0.26418 0.0
C330 C 0.27816 0.28029 0.35045 0.0
C331 C 0.26374 0.37318 0.26288 0.0
C332 C 0.23117 0.41485 0.28933 0.0
C333 C 0.25129 0.38725 0.29159 0.0
C334 C 0.23407 0.41308 0.22969 0.0
C335 C 0.22366 0.42885 0.25838 0.0
C336 C 0.25377 0.38552 0.23193 0.0
C337 C 0.3893 0.27436 0.25247 0.0
C338 C 0.39908 0.29112 0.19612 0.0
C339 C 0.44352 0.26458 0.22797 0.0
C340 C 0.42236 0.26252 0.25489 0.0
C341 C 0.43187 0.27835 0.19801 0.0
C342 C 0.3781 0.28926 0.22307 0.0
C343 C 0.36634 0.27007 0.28017 0.0
O344 O 0.3038 0.30278 0.35225 0.0
O345 O 0.27036 0.26872 0.32024 0.0
O346 O 0.33468 0.25917 0.27176 0.0
O347 O 0.36796 0.29422 0.30239 0.0
H348 H 0.32989 0.25414 0.39008 0.0
H349 H 0.32213 0.22395 0.44171 0.0
H350 H 0.21229 0.22523 0.42452 0.0
H351 H 0.22006 0.25471 0.37327 0.0
H352 H 0.22385 0.42669 0.31187 0.0
H353 H 0.25862 0.37807 0.31579 0.0
H354 H 0.22868 0.42328 0.20551 0.0
H355 H 0.26298 0.37504 0.20948 0.0
H356 H 0.38928 0.30204 0.17353 0.0
H357 H 0.46854 0.25445 0.23031 0.0
H358 H 0.43158 0.25105 0.2774 0.0
H359 H 0.3528 0.29885 0.2207 0.0
C360 C 0.47377 0.92829 0.49814 0.0
C361 C 0.44926 0.90182 0.49945 0.0
C362 C 0.48719 0.86493 0.47309 0.0
C363 C 0.4559 0.87056 0.48726 0.0
C364 C 0.51155 0.8916 0.47114 0.0
C365 C 0.50496 0.92295 0.48361 0.0
U366 U 0.48902 1.00278 0.55882 0.0
O367 O 0.45172 0.03173 0.58371 0.0
O368 O 0.48623 0.0559 0.54935 0.0
C369 C 0.45982 0.05875 0.56775 0.0
C370 C 0.46563 0.96115 0.51122 0.0
C371 C 0.43122 0.07766 0.55372 0.0
C372 C 0.37009 0.08639 0.54512 0.0
C373 C 0.39665 0.0659 0.55419 0.0
C374 C 0.41215 0.13007 0.53356 0.0
C375 C 0.37756 0.11905 0.53555 0.0
C376 C 0.43857 0.10967 0.54261 0.0
C377 C 0.56632 1.00143 0.62455 0.0
C378 C 0.58425 1.00452 0.6835 0.0
C379 C 0.62336 0.02412 0.64297 0.0
C380 C 0.59851 0.01596 0.61755 0.0
C381 C 0.61693 0.01786 0.67624 0.0
C382 C 0.55928 0.9962 0.65791 0.0
C383 C 0.5426 0.98799 0.59685 0.0
O384 O 0.45325 0.96165 0.5408 0.0
O385 O 0.48782 0.986 0.50669 0.0
O386 O 0.54489 1.00228 0.56808 0.0
O387 O 0.5108 0.97931 0.60344 0.0
H388 H 0.42485 0.90528 0.51009 0.0
H389 H 0.43641 0.85073 0.48906 0.0
H390 H 0.53594 0.88816 0.4605 0.0
H391 H 0.52436 0.94288 0.48197 0.0
H392 H 0.34377 0.07709 0.54695 0.0
H393 H 0.39005 0.04132 0.56263 0.0
H394 H 0.41894 0.155 0.52619 0.0
H395 H 0.46491 0.11944 0.54211 0.0
H396 H 0.5784 0.99926 0.7088 0.0
H397 H 0.64811 0.03452 0.63632 0.0
H398 H 0.60509 0.01995 0.59221 0.0
H399 H 0.53494 0.98463 0.66423 0.0
C400 C 0.22138 0.25374 0.67562 0.0
C401 C 0.21825 0.26661 0.64361 0.0
C402 C 0.24454 0.21888 0.62058 0.0
C403 C 0.22969 0.24938 0.61645 0.0
C404 C 0.24697 0.20564 0.65243 0.0
C405 C 0.23535 0.2228 0.6796 0.0
U406 U 0.23329 0.32418 0.74062 0.0
O407 O 0.19535 0.35423 0.7635 0.0
O408 O 0.22766 0.32323 0.79438 0.0
C409 C 0.20148 0.34217 0.79305 0.0
C410 C 0.21014 0.27203 0.70491 0.0
C411 C 0.17114 0.32951 0.81005 0.0
C412 C 0.12797 0.2857 0.81955 0.0
C413 C 0.1554 0.29831 0.80182 0.0
C414 C 0.131 0.33574 0.85333 0.0
C415 C 0.1157 0.30408 0.84583 0.0
C416 C 0.15849 0.34828 0.83562 0.0
C417 C 0.31676 0.38195 0.73309 0.0
C418 C 0.33681 0.43994 0.73975 0.0
C419 C 0.37754 0.39727 0.74292 0.0
C420 C 0.35082 0.3732 0.73775 0.0
C421 C 0.37109 0.43102 0.74354 0.0
C422 C 0.30985 0.4156 0.73437 0.0
C423 C 0.29026 0.35538 0.72357 0.0
O424 O 0.2297 0.27034 0.73224 0.0
O425 O 0.19943 0.30178 0.69995 0.0
O426 O 0.25957 0.36352 0.71281 0.0
O427 O 0.2896 0.32927 0.7423 0.0
H428 H 0.20734 0.29021 0.63948 0.0
H429 H 0.22756 0.2604 0.5923 0.0
H430 H 0.25822 0.18219 0.65648 0.0
H431 H 0.23769 0.212 0.70386 0.0
H432 H 0.11682 0.26127 0.81301 0.0
H433 H 0.16474 0.28346 0.78208 0.0
H434 H 0.12225 0.35057 0.87337 0.0
H435 H 0.17029 0.37245 0.8423 0.0
H436 H 0.3309 0.46567 0.74014 0.0
H437 H 0.40345 0.38926 0.74599 0.0
H438 H 0.35697 0.34754 0.73651 0.0
H439 H 0.28384 0.42316 0.73056 0.0
C440 C 0.79818 0.28698 0.65623 0.0
C441 C 0.78771 0.31937 0.66011 0.0
C442 C 0.79026 0.32805 0.60072 0.0
C443 C 0.78393 0.33974 0.63264 0.0
C444 C 0.80264 0.2964 0.59728 0.0
C445 C 0.80647 0.27614 0.62465 0.0
U446 U 0.82456 0.24453 0.73945 0.0
O447 O 0.7897 0.22307 0.77554 0.0
O448 O 0.82357 0.19158 0.74936 0.0
C449 C 0.79819 0.1928 0.76926 0.0
C450 C 0.79538 0.26263 0.68304 0.0
C451 C 0.77002 0.16671 0.7643 0.0
C452 C 0.71577 0.14134 0.7812 0.0
C453 C 0.73973 0.16843 0.78136 0.0
C454 C 0.75122 0.11081 0.74593 0.0
C455 C 0.72183 0.11183 0.76434 0.0
C456 C 0.77497 0.13783 0.7459 0.0
C457 C 0.90251 0.27138 0.7963 0.0
C458 C 0.91028 0.25267 0.85286 0.0
C459 C 0.95798 0.27999 0.8266 0.0
C460 C 0.937 0.28316 0.7977 0.0
C461 C 0.94473 0.26511 0.85473 0.0
C462 C 0.88946 0.25564 0.82392 0.0
C463 C 0.88042 0.27568 0.76605 0.0
O464 O 0.8185 0.24035 0.68504 0.0
O465 O 0.78659 0.2732 0.71215 0.0
O466 O 0.84932 0.2849 0.77079 0.0
O467 O 0.88092 0.25222 0.74331 0.0
H468 H 0.78083 0.32849 0.68402 0.0
H469 H 0.77426 0.36394 0.63618 0.0
H470 H 0.80766 0.28645 0.57315 0.0
H471 H 0.81418 0.25123 0.62072 0.0
H472 H 0.69352 0.14292 0.79583 0.0
H473 H 0.73527 0.19015 0.79607 0.0
H474 H 0.75689 0.08857 0.73273 0.0
H475 H 0.79805 0.13538 0.73265 0.0
H476 H 0.8992 0.24089 0.8739 0.0
H477 H 0.98432 0.28988 0.82711 0.0
H478 H 0.94763 0.29518 0.77655 0.0
H479 H 0.86301 0.24599 0.82325 0.0
C480 C 0.51978 0.51765 0.62266 0.0
C481 C 0.52796 0.50097 0.65177 0.0
C482 C 0.47903 0.52255 0.67811 0.0
C483 C 0.50795 0.50344 0.67917 0.0
C484 C 0.47037 0.53881 0.64857 0.0
C485 C 0.49067 0.53645 0.62106 0.0
U486 U 0.5603 0.54897 0.54278 0.0
O487 O 0.51812 0.57278 0.51576 0.0
O488 O 0.55498 0.60232 0.54865 0.0
C489 C 0.52825 0.60236 0.52747 0.0
C490 C 0.54306 0.51581 0.59523 0.0
C491 C 0.52814 0.62964 0.5039 0.0
C492 C 0.50493 0.6816 0.48776 0.0
C493 C 0.50379 0.65333 0.50694 0.0
C494 C 0.55395 0.66217 0.46079 0.0
C495 C 0.53043 0.68678 0.46492 0.0
C496 C 0.55291 0.63384 0.48026 0.0
C497 C 0.63364 0.50113 0.51153 0.0
C498 C 0.68322 0.47288 0.49402 0.0
C499 C 0.65059 0.45127 0.53878 0.0
C500 C 0.62861 0.47717 0.53557 0.0
C501 C 0.67821 0.44874 0.51809 0.0
C502 C 0.6611 0.49884 0.4908 0.0
C503 C 0.61068 0.52869 0.50842 0.0
O504 O 0.56823 0.53867 0.59578 0.0
O505 O 0.52899 0.50943 0.56535 0.0
O506 O 0.61501 0.5514 0.53208 0.0
O507 O 0.57815 0.52026 0.50097 0.0
H508 H 0.55038 0.48646 0.65359 0.0
H509 H 0.51582 0.49094 0.70145 0.0
H510 H 0.44845 0.55394 0.64697 0.0
H511 H 0.484 0.5497 0.59883 0.0
H512 H 0.48648 0.69991 0.49178 0.0
H513 H 0.48448 0.65054 0.52506 0.0
H514 H 0.57406 0.66546 0.44358 0.0
H515 H 0.57199 0.61581 0.4776 0.0
H516 H 0.70418 0.47172 0.4777 0.0
H517 H 0.64588 0.43322 0.55764 0.0
H518 H 0.60768 0.47854 0.55192 0.0
H519 H 0.66547 0.51718 0.47214 0.0
C520 C 0.50278 0.47327 0.92511 0.0
C521 C 0.48954 0.50393 0.91738 0.0
C522 C 0.47748 0.4857 0.8598 0.0
C523 C 0.47679 0.51002 0.88496 0.0
C524 C 0.48991 0.45489 0.86806 0.0
C525 C 0.50222 0.44875 0.90024 0.0
U526 U 0.56386 0.4905 1.00305 0.0
O527 O 0.55583 0.47732 0.05501 0.0
O528 O 0.5977 0.45687 0.02889 0.0
C529 C 0.57996 0.45598 0.05555 0.0
C530 C 0.51752 0.46564 0.95845 0.0
C531 C 0.57169 0.42234 0.06795 0.0
C532 C 0.53209 0.37961 0.08853 0.0
C533 C 0.53914 0.41233 0.07885 0.0
C534 C 0.59015 0.36693 0.07763 0.0
C535 C 0.55734 0.35638 0.08712 0.0
C536 C 0.59729 0.39946 0.06849 0.0
C537 C 0.6233 0.57176 1.0062 0.0
C538 C 0.68372 0.59028 0.01584 0.0
C539 C 0.63945 0.62851 0.02343 0.0
C540 C 0.61426 0.60357 1.01489 0.0
C541 C 0.67456 0.62247 0.02339 0.0
C542 C 0.65836 0.5652 1.00719 0.0
C543 C 0.59604 0.54765 0.99224 0.0
O544 O 0.54977 0.45805 0.95973 0.0
O545 O 0.50998 0.48437 0.9836 0.0
O546 O 0.56735 0.54481 1.00777 0.0
O547 O 0.60558 0.51936 0.98066 0.0
H548 H 0.48953 0.5233 0.93613 0.0
H549 H 0.46757 0.53405 0.87936 0.0
H550 H 0.49058 0.43546 0.84943 0.0
H551 H 0.51189 0.42483 0.90561 0.0
H552 H 0.5065 0.37213 0.09551 0.0
H553 H 0.51891 0.42944 0.07913 0.0
H554 H 0.61025 0.34971 0.07648 0.0
H555 H 0.62278 0.40651 0.06089 0.0
H556 H 0.71046 0.58469 0.01559 0.0
H557 H 0.63123 0.65285 0.02931 0.0
H558 H 0.58757 0.60953 1.01398 0.0
H559 H 0.66628 0.54101 1.00034 0.0
C560 C 0.73036 0.28477 0.35507 0.0
C561 C 0.75883 0.27255 0.37231 0.0
C562 C 0.75474 0.31333 0.41688 0.0
C563 C 0.77091 0.28667 0.40283 0.0
C564 C 0.72664 0.326 0.39907 0.0
C565 C 0.71456 0.31179 0.36843 0.0
U566 U 0.73157 0.21714 0.28835 0.0
O567 O 0.68887 0.18968 0.2603 0.0
O568 O 0.72639 0.22008 0.23397 0.0
C569 C 0.69746 0.20181 0.23178 0.0
C570 C 0.71674 0.26906 0.32355 0.0
C571 C 0.6697 0.2136 0.20933 0.0
C572 C 0.61061 0.2281 0.19712 0.0
C573 C 0.63688 0.21955 0.21998 0.0
C574 C 0.64978 0.22544 0.15301 0.0
C575 C 0.61665 0.23079 0.16323 0.0
C576 C 0.67583 0.21692 0.17572 0.0
C577 C 0.80003 0.15237 0.29822 0.0
C578 C 0.81821 0.117 0.25405 0.0
C579 C 0.84128 0.1108 0.31023 0.0
C580 C 0.82128 0.13609 0.32091 0.0
C581 C 0.84052 0.10136 0.27654 0.0
C582 C 0.79817 0.14224 0.26478 0.0
C583 C 0.78199 0.18117 0.30955 0.0
O584 O 0.73762 0.27055 0.29919 0.0
O585 O 0.70118 0.23972 0.32605 0.0
O586 O 0.75008 0.17555 0.3175 0.0
O587 O 0.78649 0.20807 0.29236 0.0
H588 H 0.77143 0.25176 0.36236 0.0
H589 H 0.79264 0.2762 0.41566 0.0
H590 H 0.7135 0.34638 0.40909 0.0
H591 H 0.69256 0.32159 0.35539 0.0
H592 H 0.5855 0.23212 0.20594 0.0
H593 H 0.63136 0.21714 0.24579 0.0
H594 H 0.65564 0.22736 0.12723 0.0
H595 H 0.70079 0.21231 0.16683 0.0
H596 H 0.81684 0.11036 0.22794 0.0
H597 H 0.85809 0.09936 0.32825 0.0
H598 H 0.82311 0.14356 0.34684 0.0
H599 H 0.78191 0.15443 0.24684 0.0
C600 C 0.51403 0.1207 0.01642 0.0
C601 C 0.52738 0.15213 1.0085 0.0
C602 C 0.5105 0.17485 0.06097 0.0
C603 C 0.52559 0.17889 0.03042 0.0
C604 C 0.49708 0.14323 0.06895 0.0
C605 C 0.49881 0.11635 0.04684 0.0
U606 U 0.48571 0.03623 0.97378 0.0
O607 O 0.46258 1.00874 1.01405 0.0
O608 O 0.42956 0.03359 0.97789 0.0
C609 C 0.43101 1.01371 1.00315 0.0
C610 C 0.51686 0.09322 0.99248 0.0
C611 C 0.40638 0.9846 1.00147 0.0
C612 C 0.34821 0.96167 1.00773 0.0
C613 C 0.37175 0.98891 1.00681 0.0
C614 C 0.39351 0.92523 0.99743 0.0
C615 C 0.35886 0.92941 1.00352 0.0
C616 C 0.417 0.95253 0.99632 0.0
C617 C 0.53885 1.0081 0.90321 0.0
C618 C 0.56885 0.99291 0.85442 0.0
C619 C 0.59075 0.03935 0.88929 0.0
C620 C 0.56358 0.03404 0.91002 0.0
C621 C 0.59375 0.01891 0.86118 0.0
C622 C 0.54165 0.98757 0.8753 0.0
C623 C 0.50991 1.00269 0.92479 0.0
O624 O 0.49283 0.09006 0.96843 0.0
O625 O 0.52541 0.06485 1.00466 0.0
O626 O 0.48522 0.02311 0.92065 0.0
O627 O 0.51833 0.99784 0.95618 0.0
H628 H 0.53918 0.15604 0.98516 0.0
H629 H 0.53574 0.20285 0.02313 0.0
H630 H 0.48508 0.13928 0.09216 0.0
H631 H 0.48825 0.09227 0.05344 0.0
H632 H 0.32182 0.96593 1.01246 0.0
H633 H 0.363 1.01342 1.01088 0.0
H634 H 0.40266 0.90082 0.99388 0.0
H635 H 0.44354 0.94851 0.99201 0.0
H636 H 0.57034 0.97673 0.83302 0.0
H637 H 0.60934 0.05966 0.89529 0.0
H638 H 0.5618 0.05027 0.93135 0.0
H639 H 0.52273 0.96745 0.86959 0.0
Mg640 Mg 0.25309 0.87202 0.01588 0.0
O641 O 0.30258 0.90477 1.00983 0.0
O642 O 0.3459 0.87151 1.00701 0.0
Mg643 Mg 0.32512 0.81811 1.01389 0.0
C644 C 0.33435 0.9003 1.00662 0.0
C645 C 0.19411 0.91915 0.0218 0.0
O646 O 0.18894 0.89797 0.04545 0.0
O647 O 0.25199 0.8534 0.96153 0.0
O648 O 0.2937 0.8179 0.96396 0.0
O649 O 0.26138 0.8738 0.0715 0.0
O650 O 0.2812 0.83579 0.03948 0.0
C651 C 0.26914 0.8313 0.94807 0.0
C652 C 0.27841 0.84755 0.06889 0.0
O653 O 0.21936 0.91557 1.00369 0.0
Mg654 Mg 0.17444 0.52756 0.28245 0.0
O655 O 0.14069 0.52398 0.23284 0.0
O656 O 0.17744 0.52777 0.1925 0.0
Mg657 Mg 0.23262 0.53328 0.21408 0.0
C658 C 0.14688 0.5246 0.20206 0.0
C659 C 0.13569 0.51396 0.34492 0.0
O660 O 0.16828 0.51484 0.35492 0.0
O661 O 0.19028 0.4736 0.2757 0.0
O662 O 0.22669 0.48148 0.23529 0.0
O663 O 0.17731 0.58332 0.28341 0.0
O664 O 0.21459 0.55333 0.25997 0.0
C665 C 0.21185 0.46282 0.25592 0.0
C666 C 0.20497 0.58211 0.26742 0.0
O667 O 0.1281 0.51532 0.31395 0.0
Mg668 Mg 0.78329 0.67817 0.04288 0.0
O669 O 0.73282 0.64484 0.03289 0.0
O670 O 0.69033 0.67946 0.03114 0.0
Mg671 Mg 0.71151 0.73276 0.03798 0.0
C672 C 0.70083 0.65029 0.02974 0.0
C673 C 0.84976 0.64421 0.03171 0.0
O674 O 0.85823 0.67587 0.02979 0.0
O675 O 0.78209 0.69484 0.98837 0.0
O676 O 0.73864 0.72841 0.9893 0.0
O677 O 0.77709 0.6775 0.09793 0.0
O678 O 0.75633 0.715 0.06509 0.0
C679 C 0.76231 0.71504 0.97417 0.0
C680 C 0.75971 0.7035 0.09439 0.0
O681 O 0.81828 0.63534 0.03443 0.0
Mg682 Mg 0.9299 0.03486 0.26442 0.0
O683 O 0.89427 0.98739 0.25335 0.0
O684 O 0.92975 0.94757 0.24334 0.0
Mg685 Mg 0.98549 0.96747 0.24568 0.0
C686 C 0.89958 0.95723 0.24657 0.0
C687 C 0.86449 0.07718 0.2644 0.0
O688 O 0.86658 0.07212 0.23243 0.0
O689 O 0.94662 1.01526 0.31632 0.0
O690 O 0.98148 0.97654 0.30111 0.0
O691 O 0.93117 0.04707 0.20963 0.0
O692 O 0.96795 0.01655 0.23577 0.0
C693 C 0.96752 0.99288 0.32348 0.0
C694 C 0.95768 0.02952 0.20857 0.0
O695 O 0.88558 0.06364 0.28435 0.0
Mg696 Mg 0.28297 0.17627 0.54091 0.0
O697 O 0.23327 0.14171 0.53179 0.0
O698 O 0.18981 0.17519 0.52951 0.0
Mg699 Mg 0.20982 0.22902 0.5351 0.0
C700 C 0.20109 0.14631 0.52872 0.0
C701 C 0.35014 0.1428 0.53102 0.0
O702 O 0.3586 0.1745 0.52955 0.0
O703 O 0.28131 0.19205 0.48609 0.0
O704 O 0.23708 0.22471 0.48637 0.0
O705 O 0.27712 0.17649 0.596 0.0
O706 O 0.25532 0.213 0.56264 0.0
C707 C 0.26113 0.21165 0.4715 0.0
C708 C 0.25922 0.20211 0.59216 0.0
O709 O 0.31859 0.13383 0.53306 0.0
Mg710 Mg 0.43176 0.5336 0.7641 0.0
O711 O 0.39551 0.48641 0.7534 0.0
O712 O 0.43064 0.44592 0.74489 0.0
Mg713 Mg 0.48664 0.46523 0.74737 0.0
C714 C 0.40054 0.45602 0.74743 0.0
C715 C 0.36765 0.57774 0.76329 0.0
O716 O 0.37017 0.57291 0.73134 0.0
O717 O 0.44765 0.51473 0.81646 0.0
O718 O 0.48246 0.47543 0.80274 0.0
O719 O 0.43371 0.54515 0.70927 0.0
O720 O 0.46979 0.51433 0.73598 0.0
C721 C 0.46831 0.49242 0.82449 0.0
C722 C 0.45997 0.52724 0.70857 0.0
O723 O 0.38791 0.5634 0.78341 0.0
Mg724 Mg 0.75699 0.37187 0.51711 0.0
O725 O 0.81014 0.39824 0.50785 0.0
O726 O 0.8466 0.35783 0.50689 0.0
Mg727 Mg 0.81967 0.30783 0.51681 0.0
C728 C 0.84031 0.38825 0.50456 0.0
C729 C 0.70119 0.42088 0.52202 0.0
O730 O 0.69486 0.39835 0.54413 0.0
O731 O 0.75222 0.35082 0.46338 0.0
O732 O 0.7883 0.31006 0.46724 0.0
O733 O 0.76656 0.375 0.57286 0.0
O734 O 0.78048 0.33354 0.54174 0.0
C735 C 0.76602 0.32595 0.45079 0.0
C736 C 0.77978 0.34659 0.57083 0.0
O737 O 0.72708 0.41796 0.50456 0.0
Mg738 Mg 0.67196 0.025 0.78301 0.0
O739 O 0.63889 0.02161 0.73308 0.0
O740 O 0.67577 0.02748 0.69305 0.0
Mg741 Mg 0.73062 0.03458 0.71531 0.0
C742 C 0.64522 0.02307 0.70238 0.0
C743 C 0.62267 0.02525 0.83929 0.0
O744 O 0.64585 0.04929 0.84693 0.0
O745 O 0.69007 0.97218 0.7749 0.0
O746 O 0.72676 0.98212 0.73516 0.0
O747 O 0.67283 0.08086 0.78548 0.0
O748 O 0.71133 0.05285 0.7615 0.0
C749 C 0.71229 0.96257 0.75524 0.0
C750 C 0.70067 0.08103 0.76963 0.0
O751 O 0.62558 1.00831 0.81284 0.0
Mg752 Mg 0.04247 0.27979 0.92725 0.0
O753 O 0.99804 0.27217 0.88697 0.0
O754 O 0.9508 0.2569 0.91278 0.0
Mg755 Mg 0.96444 0.25314 0.96831 0.0
C756 C 0.96588 0.26415 0.88643 0.0
C757 C 0.08854 0.28943 0.86635 0.0
O758 O 0.07749 0.25846 0.8615 0.0
O759 O 1.02046 0.32851 0.94428 0.0
O760 O 0.97525 0.30939 0.97126 0.0
O761 O 0.05533 0.22605 0.9256 0.0
O762 O 1.01814 0.24614 0.95818 0.0
C763 C 0.99485 0.33329 0.96185 0.0
C764 C 0.03363 0.22101 0.94825 0.0
O765 O 0.07763 0.30563 0.8905 0.0
Mg766 Mg 0.54339 0.77816 0.4282 0.0
O767 O 0.50011 0.77056 0.38681 0.0
O768 O 0.45214 0.7549 0.41122 0.0
Mg769 Mg 0.46442 0.75063 0.46701 0.0
C770 C 0.46795 0.76244 0.38536 0.0
C771 C 0.58972 0.78897 0.36787 0.0
O772 O 0.57818 0.75826 0.3621 0.0
O773 O 0.52055 0.82646 0.44492 0.0
O774 O 0.47472 0.80702 0.4708 0.0
O775 O 0.5569 0.72467 0.42655 0.0
O776 O 0.51861 0.74408 0.45835 0.0
C777 C 0.4945 0.83104 0.46195 0.0
C778 C 0.53475 0.71923 0.44872 0.0
O779 O 0.5791 0.80463 0.39249 0.0
Mg780 Mg 1.00608 0.7517 0.6271 0.0
O781 O 0.05904 0.74035 0.65168 0.0
O782 O 0.092 0.72908 0.61001 0.0
Mg783 Mg 0.06111 0.73145 0.56026 0.0
C784 C 0.08781 0.7327 0.64095 0.0
C785 C 0.95622 0.77953 0.67494 0.0
O786 O 0.94044 0.78196 0.64562 0.0
O787 O 0.02779 0.80293 0.61116 0.0
O788 O 0.05695 0.78753 0.56798 0.0
O789 O 0.98848 0.69838 0.62748 0.0
O790 O 1.01366 0.72105 0.58552 0.0
C791 C 0.04561 0.81001 0.58632 0.0
C792 C 1.00041 0.6949 0.59852 0.0
O793 O 0.98686 0.77033 0.67645 0.0
Mg794 Mg 0.507 0.25602 0.11993 0.0
O795 O 0.55883 0.24384 0.14716 0.0
O796 O 0.59614 0.23871 0.10774 0.0
Mg797 Mg 0.5703 0.24712 0.05688 0.0
C798 C 0.58893 0.23836 0.13815 0.0
C799 C 0.45231 0.27725 0.16803 0.0
O800 O 0.43763 0.28287 0.13882 0.0
O801 O 0.52745 0.31008 0.11164 0.0
O802 O 0.56404 0.30092 0.07225 0.0
O803 O 0.49236 0.20171 0.11088 0.0
O804 O 0.52067 0.23249 0.07626 0.0
C805 C 0.54921 0.32055 0.09109 0.0
C806 C 0.5077 0.20388 0.08341 0.0
O807 O 0.48285 0.26773 0.16945 0.0
loop_
_geom_bond_atom_site_label_1
_geom_bond_atom_site_label_2
_geom_bond_distance
_geom_bond_site_symmetry_2
_ccdc_geom_bond_type
C0 C1 1.264 1_545 S
C0 C5 1.479 . S
C0 C10 1.465 . S
C1 C0 1.264 1_565 S
C1 C3 1.339 . S
C1 H28 0.931 . S
C2 C3 1.395 1_545 S
C2 C4 1.320 . S
C3 C1 1.339 . S
C3 C2 1.395 1_565 S
C3 H29 0.929 . S
C4 C2 1.320 . S
C4 C5 1.405 . S
C4 H30 0.930 . S
C5 C0 1.479 . S
C5 C4 1.405 . S
C5 H31 0.931 . S
U6 O7 2.444 1_455 S
U6 O8 2.458 1_554 S
U6 C9 2.984 1_554 S
U6 C10 2.847 1_455 S
U6 C23 2.882 1_545 S
U6 O24 2.441 1_455 S
U6 O25 2.408 1_445 S
U6 O26 2.455 1_554 S
U6 O27 2.449 1_545 S
O7 U6 2.444 1_655 S
O7 C9 1.336 1_654 S
O8 U6 2.458 1_556 S
O8 C9 1.286 . S
C9 U6 2.984 1_556 S
C9 O7 1.336 1_456 S
C9 O8 1.286 . S
C9 C11 1.363 . S
C10 C0 1.465 . S
C10 U6 2.847 1_655 S
C10 O24 1.249 . S
C10 O25 1.184 1_545 S
C11 C9 1.363 . S
C11 C13 1.408 1_455 S
C11 C16 1.342 . S
C12 C13 1.310 . S
C12 C15 1.461 1_655 S
C12 H32 0.932 . S
C13 C11 1.408 1_655 S
C13 C12 1.310 . S
C13 H33 0.930 . S
C14 C15 1.474 . S
C14 C16 1.285 . S
C14 H34 0.929 . S
C15 C12 1.461 1_455 S
C15 C14 1.474 . S
C16 C11 1.342 . S
C16 C14 1.285 . S
C16 H35 0.930 . S
C17 C20 1.424 . S
C17 C22 1.245 1_554 S
C17 C23 1.428 . S
C18 C21 1.260 1_556 S
C18 C22 1.477 . S
C18 H36 0.932 . S
C19 C20 1.384 . S
C19 C21 1.479 . S
C19 H37 0.929 . S
C20 C17 1.424 . S
C20 C19 1.384 . S
C20 H38 0.928 . S
C21 C18 1.260 1_554 S
C21 C19 1.479 . S
C22 C17 1.245 1_556 S
C22 C18 1.477 . S
C22 H39 0.932 . S
C23 U6 2.882 1_565 S
C23 C17 1.428 . S
C23 O26 1.301 1_564 S
C23 O27 1.282 . S
O24 U6 2.441 1_655 S
O24 C10 1.249 . S
O25 U6 2.408 1_665 S
O25 C10 1.184 1_565 S
O26 U6 2.455 1_556 S
O26 C23 1.301 1_546 S
O27 U6 2.449 1_565 S
O27 C23 1.282 . S
H28 C1 0.931 . S
H29 C3 0.929 . S
H30 C4 0.930 . S
H31 C5 0.931 . S
H32 C12 0.932 . S
H33 C13 0.930 . S
H34 C14 0.929 . S
H35 C16 0.930 . S
H36 C18 0.932 . S
H37 C19 0.929 . S
H38 C20 0.928 . S
H39 C22 0.932 . S
C40 C41 1.264 . S
C40 C45 1.479 . S
C40 C50 1.465 . S
C41 C40 1.264 . S
C41 C43 1.339 . S
C41 H68 0.931 . S
C42 C43 1.395 . S
C42 C44 1.320 . S
C43 C41 1.339 . S
C43 C42 1.395 . S
C43 H69 0.929 . S
C44 C42 1.320 . S
C44 C45 1.405 . S
C44 H70 0.930 . S
C45 C40 1.479 . S
C45 C44 1.405 . S
C45 H71 0.931 . S
U46 O47 2.454 . S
U46 O48 2.458 . S
U46 C49 2.984 . S
U46 C50 2.847 . S
U46 C63 2.882 . S
U46 O64 2.441 . S
U46 O65 2.420 . S
U46 O66 2.455 . S
U46 O67 2.449 . S
O47 U46 2.454 . S
O47 C49 1.353 . S
O48 U46 2.458 . S
O48 C49 1.286 . S
C49 U46 2.984 . S
C49 O47 1.353 . S
C49 O48 1.286 . S
C49 C51 1.363 . S
C50 C40 1.465 . S
C50 U46 2.847 . S
C50 O64 1.249 . S
C50 O65 1.202 . S
C51 C49 1.363 . S
C51 C53 1.408 . S
C51 C56 1.342 . S
C52 C53 1.310 . S
C52 C55 1.461 . S
C52 H72 0.932 . S
C53 C51 1.408 . S
C53 C52 1.310 . S
C53 H73 0.930 . S
C54 C55 1.474 . S
C54 C56 1.285 . S
C54 H74 0.929 . S
C55 C52 1.461 . S
C55 C54 1.474 . S
C56 C51 1.342 . S
C56 C54 1.285 . S
C56 H75 0.930 . S
C57 C60 1.424 . S
C57 C62 1.245 . S
C57 C63 1.428 . S
C58 C61 1.260 . S
C58 C62 1.477 . S
C58 H76 0.932 . S
C59 C60 1.384 . S
C59 C61 1.479 . S
C59 H77 0.929 . S
C60 C57 1.424 . S
C60 C59 1.384 . S
C60 H78 0.928 . S
C61 C58 1.260 . S
C61 C59 1.479 . S
C62 C57 1.245 . S
C62 C58 1.477 . S
C62 H79 0.932 . S
C63 U46 2.882 . S
C63 C57 1.428 . S
C63 O66 1.301 . S
C63 O67 1.282 . S
O64 U46 2.441 . S
O64 C50 1.249 . S
O65 U46 2.420 . S
O65 C50 1.202 . S
O66 U46 2.455 . S
O66 C63 1.301 . S
O67 U46 2.449 . S
O67 C63 1.282 . S
H68 C41 0.931 . S
H69 C43 0.929 . S
H70 C44 0.930 . S
H71 C45 0.931 . S
H72 C52 0.932 . S
H73 C53 0.930 . S
H74 C54 0.929 . S
H75 C56 0.930 . S
H76 C58 0.932 . S
H77 C59 0.929 . S
H78 C60 0.928 . S
H79 C62 0.932 . S
C80 C81 1.264 . S
C80 C85 1.479 1_455 S
C80 C90 1.465 1_455 S
C81 C80 1.264 . S
C81 C83 1.339 . S
C81 H108 0.931 . S
C82 C83 1.395 . S
C82 C84 1.320 1_455 S
C83 C81 1.339 . S
C83 C82 1.395 . S
C83 H109 0.929 . S
C84 C82 1.320 1_655 S
C84 C85 1.405 . S
C84 H110 0.930 . S
C85 C80 1.479 1_655 S
C85 C84 1.405 . S
C85 H111 0.931 . S
U86 O87 2.454 . S
U86 O88 2.458 . S
U86 C89 2.984 . S
U86 C90 2.847 1_554 S
U86 C103 2.882 1_655 S
U86 O104 2.441 1_554 S
U86 O105 2.420 1_655 S
U86 O106 2.455 1_655 S
U86 O107 2.449 1_655 S
O87 U86 2.454 . S
O87 C89 1.353 . S
O88 U86 2.458 . S
O88 C89 1.286 . S
C89 U86 2.984 . S
C89 O87 1.353 . S
C89 O88 1.286 . S
C89 C91 1.363 . S
C90 C80 1.465 1_655 S
C90 U86 2.847 1_556 S
C90 O104 1.249 . S
C90 O105 1.202 1_656 S
C91 C89 1.363 . S
C91 C93 1.417 . S
C91 C96 1.342 . S
C92 C93 1.309 1_556 S
C92 C95 1.461 1_556 S
C92 H112 0.932 . S
C93 C91 1.417 . S
C93 C92 1.309 1_554 S
C93 H113 0.922 1_554 S
C94 C95 1.474 . S
C94 C96 1.285 . S
C94 H114 0.929 . S
C95 C92 1.461 1_554 S
C95 C94 1.474 . S
C96 C91 1.342 . S
C96 C94 1.285 . S
C96 H115 0.930 . S
C97 C100 1.424 . S
C97 C102 1.245 . S
C97 C103 1.428 . S
C98 C101 1.260 . S
C98 C102 1.477 . S
C98 H116 0.932 . S
C99 C100 1.384 . S
C99 C101 1.479 . S
C99 H117 0.929 . S
C100 C97 1.424 . S
C100 C99 1.384 . S
C100 H118 0.928 . S
C101 C98 1.260 . S
C101 C99 1.479 . S
C102 C97 1.245 . S
C102 C98 1.477 . S
C102 H119 0.932 . S
C103 U86 2.882 1_455 S
C103 C97 1.428 . S
C103 O106 1.301 . S
C103 O107 1.282 . S
O104 U86 2.441 1_556 S
O104 C90 1.249 . S
O105 U86 2.420 1_455 S
O105 C90 1.202 1_454 S
O106 U86 2.455 1_455 S
O106 C103 1.301 . S
O107 U86 2.449 1_455 S
O107 C103 1.282 . S
H108 C81 0.931 . S
H109 C83 0.929 . S
H110 C84 0.930 . S
H111 C85 0.931 . S
H112 C92 0.932 . S
H113 C93 0.922 1_556 S
H114 C94 0.929 . S
H115 C96 0.930 . S
H116 C98 0.932 . S
H117 C99 0.929 . S
H118 C100 0.928 . S
H119 C102 0.932 . S
C120 C121 1.264 . S
C120 C125 1.479 . S
C120 C130 1.465 . S
C121 C120 1.264 . S
C121 C123 1.339 . S
C121 H148 0.931 . S
C122 C123 1.395 . S
C122 C124 1.320 . S
C123 C121 1.339 . S
C123 C122 1.395 . S
C123 H149 0.929 . S
C124 C122 1.320 . S
C124 C125 1.405 . S
C124 H150 0.930 . S
C125 C120 1.479 . S
C125 C124 1.405 . S
C125 H151 0.931 . S
U126 O127 2.454 . S
U126 O128 2.458 . S
U126 C129 2.984 . S
U126 C130 2.847 . S
U126 C143 2.882 . S
U126 O144 2.441 . S
U126 O145 2.420 . S
U126 O146 2.455 . S
U126 O147 2.449 . S
O127 U126 2.454 . S
O127 C129 1.353 . S
O128 U126 2.458 . S
O128 C129 1.286 . S
C129 U126 2.984 . S
C129 O127 1.353 . S
C129 O128 1.286 . S
C129 C131 1.363 . S
C130 C120 1.465 . S
C130 U126 2.847 . S
C130 O144 1.249 . S
C130 O145 1.202 . S
C131 C129 1.363 . S
C131 C133 1.408 . S
C131 C136 1.342 . S
C132 C133 1.310 . S
C132 C135 1.461 . S
C132 H152 0.932 . S
C133 C131 1.408 . S
C133 C132 1.310 . S
C133 H153 0.930 . S
C134 C135 1.474 . S
C134 C136 1.285 . S
C134 H154 0.929 . S
C135 C132 1.461 . S
C135 C134 1.474 . S
C136 C131 1.342 . S
C136 C134 1.285 . S
C136 H155 0.930 . S
C137 C140 1.424 . S
C137 C142 1.245 . S
C137 C143 1.428 . S
C138 C141 1.260 . S
C138 C142 1.477 . S
C138 H156 0.932 . S
C139 C140 1.384 . S
C139 C141 1.479 . S
C139 H157 0.929 . S
C140 C137 1.424 . S
C140 C139 1.384 . S
C140 H158 0.928 . S
C141 C138 1.260 . S
C141 C139 1.479 . S
C142 C137 1.245 . S
C142 C138 1.477 . S
C142 H159 0.932 . S
C143 U126 2.882 . S
C143 C137 1.428 . S
C143 O146 1.301 . S
C143 O147 1.282 . S
O144 U126 2.441 . S
O144 C130 1.249 . S
O145 U126 2.420 . S
O145 C130 1.202 . S
O146 U126 2.455 . S
O146 C143 1.301 . S
O147 U126 2.449 . S
O147 C143 1.282 . S
H148 C121 0.931 . S
H149 C123 0.929 . S
H150 C124 0.930 . S
H151 C125 0.931 . S
H152 C132 0.932 . S
H153 C133 0.930 . S
H154 C134 0.929 . S
H155 C136 0.930 . S
H156 C138 0.932 . S
H157 C139 0.929 . S
H158 C140 0.928 . S
H159 C142 0.932 . S
C160 C161 1.264 1_565 S
C160 C165 1.479 . S
C160 C170 1.465 . S
C161 C160 1.264 1_545 S
C161 C163 1.339 . S
C161 H188 0.931 1_655 S
C162 C163 1.395 . S
C162 C164 1.320 1_545 S
C163 C161 1.339 . S
C163 C162 1.395 . S
C163 H189 0.929 . S
C164 C162 1.320 1_565 S
C164 C165 1.405 . S
C164 H190 0.930 . S
C165 C160 1.479 . S
C165 C164 1.405 . S
C165 H191 0.931 . S
U166 O167 2.454 . S
U166 O168 2.458 . S
U166 C169 2.984 . S
U166 C170 2.847 1_455 S
U166 C183 2.882 1_565 S
U166 O184 2.441 1_455 S
U166 O185 2.420 1_565 S
U166 O186 2.455 1_565 S
U166 O187 2.449 1_565 S
O167 U166 2.454 . S
O167 C169 1.353 . S
O168 U166 2.458 . S
O168 C169 1.286 . S
C169 U166 2.984 . S
C169 O167 1.353 . S
C169 O168 1.286 . S
C169 C171 1.363 . S
C170 C160 1.465 . S
C170 U166 2.847 1_655 S
C170 O184 1.249 . S
C170 O185 1.202 1_665 S
C171 C169 1.363 . S
C171 C173 1.408 . S
C171 C176 1.342 . S
C172 C173 1.308 1_655 S
C172 C175 1.447 1_655 S
C172 H192 0.948 . S
C173 C171 1.408 . S
C173 C172 1.308 1_455 S
C173 H193 0.930 1_455 S
C174 C175 1.474 . S
C174 C176 1.285 . S
C174 H194 0.929 . S
C175 C172 1.447 1_455 S
C175 C174 1.474 . S
C176 C171 1.342 . S
C176 C174 1.285 . S
C176 H195 0.930 . S
C177 C180 1.424 . S
C177 C182 1.245 . S
C177 C183 1.428 . S
C178 C181 1.260 . S
C178 C182 1.477 . S
C178 H196 0.932 . S
C179 C180 1.384 . S
C179 C181 1.479 . S
C179 H197 0.929 . S
C180 C177 1.424 . S
C180 C179 1.384 . S
C180 H198 0.928 . S
C181 C178 1.260 . S
C181 C179 1.479 . S
C182 C177 1.245 . S
C182 C178 1.477 . S
C182 H199 0.932 . S
C183 U166 2.882 1_545 S
C183 C177 1.428 . S
C183 O186 1.301 . S
C183 O187 1.282 . S
O184 U166 2.441 1_655 S
O184 C170 1.249 . S
O185 U166 2.420 1_545 S
O185 C170 1.202 1_445 S
O186 U166 2.455 1_545 S
O186 C183 1.301 . S
O187 U166 2.449 1_545 S
O187 C183 1.282 . S
H188 C161 0.931 1_455 S
H189 C163 0.929 . S
H190 C164 0.930 . S
H191 C165 0.931 . S
H192 C172 0.948 . S
H193 C173 0.930 1_655 S
H194 C174 0.929 . S
H195 C176 0.930 . S
H196 C178 0.932 . S
H197 C179 0.929 . S
H198 C180 0.928 . S
H199 C182 0.932 . S
C200 C201 1.264 . S
C200 C205 1.479 . S
C200 C210 1.465 . S
C201 C200 1.264 . S
C201 C203 1.339 . S
C201 H228 0.931 . S
C202 C203 1.395 . S
C202 C204 1.320 . S
C203 C201 1.339 . S
C203 C202 1.395 . S
C203 H229 0.929 . S
C204 C202 1.320 . S
C204 C205 1.405 . S
C204 H230 0.930 . S
C205 C200 1.479 . S
C205 C204 1.405 . S
C205 H231 0.931 . S
U206 O207 2.454 . S
U206 O208 2.458 . S
U206 C209 2.984 . S
U206 C210 2.847 . S
U206 C223 2.882 . S
U206 O224 2.441 . S
U206 O225 2.420 . S
U206 O226 2.455 . S
U206 O227 2.449 . S
O207 U206 2.454 . S
O207 C209 1.353 . S
O208 U206 2.458 . S
O208 C209 1.286 . S
C209 U206 2.984 . S
C209 O207 1.353 . S
C209 O208 1.286 . S
C209 C211 1.363 . S
C210 C200 1.465 . S
C210 U206 2.847 . S
C210 O224 1.249 . S
C210 O225 1.202 . S
C211 C209 1.363 . S
C211 C213 1.408 . S
C211 C216 1.342 . S
C212 C213 1.310 . S
C212 C215 1.461 . S
C212 H232 0.932 . S
C213 C211 1.408 . S
C213 C212 1.310 . S
C213 H233 0.930 . S
C214 C215 1.474 . S
C214 C216 1.285 . S
C214 H234 0.929 . S
C215 C212 1.461 . S
C215 C214 1.474 . S
C216 C211 1.342 . S
C216 C214 1.285 . S
C216 H235 0.930 . S
C217 C220 1.424 . S
C217 C222 1.245 . S
C217 C223 1.428 . S
C218 C221 1.260 . S
C218 C222 1.477 . S
C218 H236 0.932 . S
C219 C220 1.384 . S
C219 C221 1.479 . S
C219 H237 0.929 . S
C220 C217 1.424 . S
C220 C219 1.384 . S
C220 H238 0.928 . S
C221 C218 1.260 . S
C221 C219 1.479 . S
C222 C217 1.245 . S
C222 C218 1.477 . S
C222 H239 0.932 . S
C223 U206 2.882 . S
C223 C217 1.428 . S
C223 O226 1.301 . S
C223 O227 1.282 . S
O224 U206 2.441 . S
O224 C210 1.249 . S
O225 U206 2.420 . S
O225 C210 1.202 . S
O226 U206 2.455 . S
O226 C223 1.301 . S
O227 U206 2.449 . S
O227 C223 1.282 . S
H228 C201 0.931 . S
H229 C203 0.929 . S
H230 C204 0.930 . S
H231 C205 0.931 . S
H232 C212 0.932 . S
H233 C213 0.930 . S
H234 C214 0.929 . S
H235 C216 0.930 . S
H236 C218 0.932 . S
H237 C219 0.929 . S
H238 C220 0.928 . S
H239 C222 0.932 . S
C240 C241 1.264 1_655 S
C240 C245 1.479 . S
C240 C250 1.465 . S
C241 C240 1.264 1_455 S
C241 C243 1.339 . S
C241 H268 0.931 . S
C242 C243 1.395 1_655 S
C242 C244 1.320 . S
C243 C241 1.339 . S
C243 C242 1.395 1_455 S
C243 H269 0.929 . S
C244 C242 1.320 . S
C244 C245 1.405 . S
C244 H270 0.930 . S
C245 C240 1.479 . S
C245 C244 1.405 . S
C245 H271 0.931 . S
U246 O247 2.454 . S
U246 O248 2.458 . S
U246 C249 2.984 . S
U246 C250 2.847 . S
U246 C263 2.882 1_655 S
U246 O264 2.441 . S
U246 O265 2.420 1_655 S
U246 O266 2.455 . S
U246 O267 2.449 1_655 S
O247 U246 2.454 . S
O247 C249 1.353 . S
O248 U246 2.458 . S
O248 C249 1.286 . S
C249 U246 2.984 . S
C249 O247 1.353 . S
C249 O248 1.286 . S
C249 C251 1.363 . S
C250 C240 1.465 . S
C250 U246 2.847 . S
C250 O264 1.249 . S
C250 O265 1.202 1_655 S
C251 C249 1.363 . S
C251 C253 1.408 . S
C251 C256 1.342 . S
C252 C253 1.310 . S
C252 C255 1.461 . S
C252 H272 0.932 . S
C253 C251 1.408 . S
C253 C252 1.310 . S
C253 H273 0.930 . S
C254 C255 1.474 . S
C254 C256 1.285 . S
C254 H274 0.929 . S
C255 C252 1.461 . S
C255 C254 1.474 . S
C256 C251 1.342 . S
C256 C254 1.285 . S
C256 H275 0.930 . S
C257 C260 1.424 . S
C257 C262 1.245 . S
C257 C263 1.428 . S
C258 C261 1.260 . S
C258 C262 1.477 . S
C258 H276 0.932 . S
C259 C260 1.384 . S
C259 C261 1.479 . S
C259 H277 0.929 . S
C260 C257 1.424 . S
C260 C259 1.384 . S
C260 H278 0.928 . S
C261 C258 1.260 . S
C261 C259 1.479 . S
C262 C257 1.245 . S
C262 C258 1.477 . S
C262 H279 0.932 . S
C263 U246 2.882 1_455 S
C263 C257 1.428 . S
C263 O266 1.301 1_455 S
C263 O267 1.282 . S
O264 U246 2.441 . S
O264 C250 1.249 . S
O265 U246 2.420 1_455 S
O265 C250 1.202 1_455 S
O266 U246 2.455 . S
O266 C263 1.301 1_655 S
O267 U246 2.449 1_455 S
O267 C263 1.282 . S
H268 C241 0.931 . S
H269 C243 0.929 . S
H270 C244 0.930 . S
H271 C245 0.931 . S
H272 C252 0.932 . S
H273 C253 0.930 . S
H274 C254 0.929 . S
H275 C256 0.930 . S
H276 C258 0.932 . S
H277 C259 0.929 . S
H278 C260 0.928 . S
H279 C262 0.932 . S
C280 C281 1.264 . S
C280 C285 1.479 . S
C280 C290 1.465 . S
C281 C280 1.264 . S
C281 C283 1.339 . S
C281 H308 0.931 . S
C282 C283 1.395 . S
C282 C284 1.320 . S
C283 C281 1.339 . S
C283 C282 1.395 . S
C283 H309 0.929 . S
C284 C282 1.320 . S
C284 C285 1.405 . S
C284 H310 0.930 . S
C285 C280 1.479 . S
C285 C284 1.405 . S
C285 H311 0.931 . S
U286 O287 2.454 . S
U286 O288 2.458 . S
U286 C289 2.984 . S
U286 C290 2.847 . S
U286 C303 2.882 . S
U286 O304 2.441 . S
U286 O305 2.420 . S
U286 O306 2.455 . S
U286 O307 2.449 . S
O287 U286 2.454 . S
O287 C289 1.353 . S
O288 U286 2.458 . S
O288 C289 1.286 . S
C289 U286 2.984 . S
C289 O287 1.353 . S
C289 O288 1.286 . S
C289 C291 1.363 . S
C290 C280 1.465 . S
C290 U286 2.847 . S
C290 O304 1.249 . S
C290 O305 1.202 . S
C291 C289 1.363 . S
C291 C293 1.408 . S
C291 C296 1.342 . S
C292 C293 1.310 . S
C292 C295 1.461 . S
C292 H312 0.932 . S
C293 C291 1.408 . S
C293 C292 1.310 . S
C293 H313 0.930 . S
C294 C295 1.474 . S
C294 C296 1.285 . S
C294 H314 0.929 . S
C295 C292 1.461 . S
C295 C294 1.474 . S
C296 C291 1.342 . S
C296 C294 1.285 . S
C296 H315 0.930 . S
C297 C300 1.424 . S
C297 C302 1.245 . S
C297 C303 1.428 . S
C298 C301 1.260 . S
C298 C302 1.477 . S
C298 H316 0.932 . S
C299 C300 1.384 . S
C299 C301 1.479 . S
C299 H317 0.929 . S
C300 C297 1.424 . S
C300 C299 1.384 . S
C300 H318 0.928 . S
C301 C298 1.260 . S
C301 C299 1.479 . S
C302 C297 1.245 . S
C302 C298 1.477 . S
C302 H319 0.932 . S
C303 U286 2.882 . S
C303 C297 1.428 . S
C303 O306 1.301 . S
C303 O307 1.282 . S
O304 U286 2.441 . S
O304 C290 1.249 . S
O305 U286 2.420 . S
O305 C290 1.202 . S
O306 U286 2.455 . S
O306 C303 1.301 . S
O307 U286 2.449 . S
O307 C303 1.282 . S
H308 C281 0.931 . S
H309 C283 0.929 . S
H310 C284 0.930 . S
H311 C285 0.931 . S
H312 C292 0.932 . S
H313 C293 0.930 . S
H314 C294 0.929 . S
H315 C296 0.930 . S
H316 C298 0.932 . S
H317 C299 0.929 . S
H318 C300 0.928 . S
H319 C302 0.932 . S
C320 C321 1.264 . S
C320 C325 1.479 . S
C320 C330 1.465 . S
C321 C320 1.264 . S
C321 C323 1.339 . S
C321 H348 0.931 . S
C322 C323 1.395 . S
C322 C324 1.320 . S
C323 C321 1.339 . S
C323 C322 1.395 . S
C323 H349 0.929 . S
C324 C322 1.320 . S
C324 C325 1.405 . S
C324 H350 0.930 . S
C325 C320 1.479 . S
C325 C324 1.405 . S
C325 H351 0.931 . S
U326 O327 2.454 . S
U326 O328 2.458 . S
U326 C329 2.984 . S
U326 C330 2.847 . S
U326 C343 2.882 . S
U326 O344 2.441 . S
U326 O345 2.420 . S
U326 O346 2.455 . S
U326 O347 2.449 . S
O327 U326 2.454 . S
O327 C329 1.353 . S
O328 U326 2.458 . S
O328 C329 1.286 . S
C329 U326 2.984 . S
C329 O327 1.353 . S
C329 O328 1.286 . S
C329 C331 1.363 . S
C330 C320 1.465 . S
C330 U326 2.847 . S
C330 O344 1.249 . S
C330 O345 1.202 . S
C331 C329 1.363 . S
C331 C333 1.408 . S
C331 C336 1.342 . S
C332 C333 1.310 . S
C332 C335 1.461 . S
C332 H352 0.932 . S
C333 C331 1.408 . S
C333 C332 1.310 . S
C333 H353 0.930 . S
C334 C335 1.474 . S
C334 C336 1.285 . S
C334 H354 0.929 . S
C335 C332 1.461 . S
C335 C334 1.474 . S
C336 C331 1.342 . S
C336 C334 1.285 . S
C336 H355 0.930 . S
C337 C340 1.424 . S
C337 C342 1.245 . S
C337 C343 1.428 . S
C338 C341 1.260 . S
C338 C342 1.477 . S
C338 H356 0.932 . S
C339 C340 1.384 . S
C339 C341 1.479 . S
C339 H357 0.929 . S
C340 C337 1.424 . S
C340 C339 1.384 . S
C340 H358 0.928 . S
C341 C338 1.260 . S
C341 C339 1.479 . S
C342 C337 1.245 . S
C342 C338 1.477 . S
C342 H359 0.932 . S
C343 U326 2.882 . S
C343 C337 1.428 . S
C343 O346 1.301 . S
C343 O347 1.282 . S
O344 U326 2.441 . S
O344 C330 1.249 . S
O345 U326 2.420 . S
O345 C330 1.202 . S
O346 U326 2.455 . S
O346 C343 1.301 . S
O347 U326 2.449 . S
O347 C343 1.282 . S
H348 C321 0.931 . S
H349 C323 0.929 . S
H350 C324 0.930 . S
H351 C325 0.931 . S
H352 C332 0.932 . S
H353 C333 0.930 . S
H354 C334 0.929 . S
H355 C336 0.930 . S
H356 C338 0.932 . S
H357 C339 0.929 . S
H358 C340 0.928 . S
H359 C342 0.932 . S
C360 C361 1.264 . S
C360 C365 1.479 . S
C360 C370 1.465 . S
C361 C360 1.264 . S
C361 C363 1.339 . S
C361 H388 0.931 . S
C362 C363 1.395 . S
C362 C364 1.320 . S
C363 C361 1.339 . S
C363 C362 1.395 . S
C363 H389 0.929 . S
C364 C362 1.320 . S
C364 C365 1.405 . S
C364 H390 0.930 . S
C365 C360 1.479 . S
C365 C364 1.405 . S
C365 H391 0.931 . S
U366 O367 2.454 . S
U366 O368 2.458 1_565 S
U366 C369 2.984 1_565 S
U366 C370 2.847 . S
U366 C383 2.882 . S
U366 O384 2.441 . S
U366 O385 2.420 . S
U366 O386 2.455 1_565 S
U366 O387 2.449 . S
O367 U366 2.454 . S
O367 C369 1.353 1_565 S
O368 U366 2.458 1_545 S
O368 C369 1.286 . S
C369 U366 2.984 1_545 S
C369 O367 1.353 1_545 S
C369 O368 1.286 . S
C369 C371 1.363 . S
C370 C360 1.465 . S
C370 U366 2.847 . S
C370 O384 1.249 . S
C370 O385 1.202 . S
C371 C369 1.363 . S
C371 C373 1.408 . S
C371 C376 1.342 . S
C372 C373 1.310 . S
C372 C375 1.461 . S
C372 H392 0.932 . S
C373 C371 1.408 . S
C373 C372 1.310 . S
C373 H393 0.930 . S
C374 C375 1.474 . S
C374 C376 1.285 . S
C374 H394 0.929 . S
C375 C372 1.461 . S
C375 C374 1.474 . S
C376 C371 1.342 . S
C376 C374 1.285 . S
C376 H395 0.930 . S
C377 C380 1.424 . S
C377 C382 1.245 1_565 S
C377 C383 1.428 . S
C378 C381 1.260 1_545 S
C378 C382 1.477 . S
C378 H396 0.932 . S
C379 C380 1.384 . S
C379 C381 1.479 . S
C379 H397 0.929 . S
C380 C377 1.424 . S
C380 C379 1.384 . S
C380 H398 0.928 . S
C381 C378 1.260 1_565 S
C381 C379 1.479 . S
C382 C377 1.245 1_545 S
C382 C378 1.477 . S
C382 H399 0.932 . S
C383 U366 2.882 . S
C383 C377 1.428 . S
C383 O386 1.301 1_565 S
C383 O387 1.282 . S
O384 U366 2.441 . S
O384 C370 1.249 . S
O385 U366 2.420 . S
O385 C370 1.202 . S
O386 U366 2.455 1_545 S
O386 C383 1.301 1_545 S
O387 U366 2.449 . S
O387 C383 1.282 . S
H388 C361 0.931 . S
H389 C363 0.929 . S
H390 C364 0.930 . S
H391 C365 0.931 . S
H392 C372 0.932 . S
H393 C373 0.930 . S
H394 C374 0.929 . S
H395 C376 0.930 . S
H396 C378 0.932 . S
H397 C379 0.929 . S
H398 C380 0.928 . S
H399 C382 0.932 . S
C400 C401 1.264 . S
C400 C405 1.479 . S
C400 C410 1.465 . S
C401 C400 1.264 . S
C401 C403 1.339 . S
C401 H428 0.931 . S
C402 C403 1.395 . S
C402 C404 1.320 . S
C403 C401 1.339 . S
C403 C402 1.395 . S
C403 H429 0.929 . S
C404 C402 1.320 . S
C404 C405 1.405 . S
C404 H430 0.930 . S
C405 C400 1.479 . S
C405 C404 1.405 . S
C405 H431 0.931 . S
U406 O407 2.454 . S
U406 O408 2.458 . S
U406 C409 2.984 . S
U406 C410 2.847 . S
U406 C423 2.882 . S
U406 O424 2.441 . S
U406 O425 2.420 . S
U406 O426 2.455 . S
U406 O427 2.449 . S
O407 U406 2.454 . S
O407 C409 1.353 . S
O408 U406 2.458 . S
O408 C409 1.286 . S
C409 U406 2.984 . S
C409 O407 1.353 . S
C409 O408 1.286 . S
C409 C411 1.363 . S
C410 C400 1.465 . S
C410 U406 2.847 . S
C410 O424 1.249 . S
C410 O425 1.202 . S
C411 C409 1.363 . S
C411 C413 1.408 . S
C411 C416 1.342 . S
C412 C413 1.310 . S
C412 C415 1.461 . S
C412 H432 0.932 . S
C413 C411 1.408 . S
C413 C412 1.310 . S
C413 H433 0.930 . S
C414 C415 1.474 . S
C414 C416 1.285 . S
C414 H434 0.929 . S
C415 C412 1.461 . S
C415 C414 1.474 . S
C416 C411 1.342 . S
C416 C414 1.285 . S
C416 H435 0.930 . S
C417 C420 1.424 . S
C417 C422 1.245 . S
C417 C423 1.428 . S
C418 C421 1.260 . S
C418 C422 1.477 . S
C418 H436 0.932 . S
C419 C420 1.384 . S
C419 C421 1.479 . S
C419 H437 0.929 . S
C420 C417 1.424 . S
C420 C419 1.384 . S
C420 H438 0.928 . S
C421 C418 1.260 . S
C421 C419 1.479 . S
C422 C417 1.245 . S
C422 C418 1.477 . S
C422 H439 0.932 . S
C423 U406 2.882 . S
C423 C417 1.428 . S
C423 O426 1.301 . S
C423 O427 1.282 . S
O424 U406 2.441 . S
O424 C410 1.249 . S
O425 U406 2.420 . S
O425 C410 1.202 . S
O426 U406 2.455 . S
O426 C423 1.301 . S
O427 U406 2.449 . S
O427 C423 1.282 . S
H428 C401 0.931 . S
H429 C403 0.929 . S
H430 C404 0.930 . S
H431 C405 0.931 . S
H432 C412 0.932 . S
H433 C413 0.930 . S
H434 C414 0.929 . S
H435 C416 0.930 . S
H436 C418 0.932 . S
H437 C419 0.929 . S
H438 C420 0.928 . S
H439 C422 0.932 . S
C440 C441 1.264 . S
C440 C445 1.479 . S
C440 C450 1.465 . S
C441 C440 1.264 . S
C441 C443 1.339 . S
C441 H468 0.931 . S
C442 C443 1.395 . S
C442 C444 1.320 . S
C443 C441 1.339 . S
C443 C442 1.395 . S
C443 H469 0.929 . S
C444 C442 1.320 . S
C444 C445 1.405 . S
C444 H470 0.930 . S
C445 C440 1.479 . S
C445 C444 1.405 . S
C445 H471 0.931 . S
U446 O447 2.454 . S
U446 O448 2.458 . S
U446 C449 2.984 . S
U446 C450 2.847 . S
U446 C463 2.882 . S
U446 O464 2.441 . S
U446 O465 2.420 . S
U446 O466 2.455 . S
U446 O467 2.449 . S
O447 U446 2.454 . S
O447 C449 1.353 . S
O448 U446 2.458 . S
O448 C449 1.286 . S
C449 U446 2.984 . S
C449 O447 1.353 . S
C449 O448 1.286 . S
C449 C451 1.363 . S
C450 C440 1.465 . S
C450 U446 2.847 . S
C450 O464 1.249 . S
C450 O465 1.202 . S
C451 C449 1.363 . S
C451 C453 1.408 . S
C451 C456 1.342 . S
C452 C453 1.310 . S
C452 C455 1.461 . S
C452 H472 0.932 . S
C453 C451 1.408 . S
C453 C452 1.310 . S
C453 H473 0.930 . S
C454 C455 1.474 . S
C454 C456 1.285 . S
C454 H474 0.929 . S
C455 C452 1.461 . S
C455 C454 1.474 . S
C456 C451 1.342 . S
C456 C454 1.285 . S
C456 H475 0.930 . S
C457 C460 1.424 . S
C457 C462 1.245 . S
C457 C463 1.428 . S
C458 C461 1.260 . S
C458 C462 1.477 . S
C458 H476 0.932 . S
C459 C460 1.384 . S
C459 C461 1.479 . S
C459 H477 0.929 . S
C460 C457 1.424 . S
C460 C459 1.384 . S
C460 H478 0.928 . S
C461 C458 1.260 . S
C461 C459 1.479 . S
C462 C457 1.245 . S
C462 C458 1.477 . S
C462 H479 0.932 . S
C463 U446 2.882 . S
C463 C457 1.428 . S
C463 O466 1.301 . S
C463 O467 1.282 . S
O464 U446 2.441 . S
O464 C450 1.249 . S
O465 U446 2.420 . S
O465 C450 1.202 . S
O466 U446 2.455 . S
O466 C463 1.301 . S
O467 U446 2.449 . S
O467 C463 1.282 . S
H468 C441 0.931 . S
H469 C443 0.929 . S
H470 C444 0.930 . S
H471 C445 0.931 . S
H472 C452 0.932 . S
H473 C453 0.930 . S
H474 C454 0.929 . S
H475 C456 0.930 . S
H476 C458 0.932 . S
H477 C459 0.929 . S
H478 C460 0.928 . S
H479 C462 0.932 . S
C480 C481 1.264 . S
C480 C485 1.479 . S
C480 C490 1.465 . S
C481 C480 1.264 . S
C481 C483 1.339 . S
C481 H508 0.931 . S
C482 C483 1.395 . S
C482 C484 1.320 . S
C483 C481 1.339 . S
C483 C482 1.395 . S
C483 H509 0.929 . S
C484 C482 1.320 . S
C484 C485 1.405 . S
C484 H510 0.930 . S
C485 C480 1.479 . S
C485 C484 1.405 . S
C485 H511 0.931 . S
U486 O487 2.454 . S
U486 O488 2.458 . S
U486 C489 2.984 . S
U486 C490 2.847 . S
U486 C503 2.882 . S
U486 O504 2.441 . S
U486 O505 2.420 . S
U486 O506 2.455 . S
U486 O507 2.449 . S
O487 U486 2.454 . S
O487 C489 1.353 . S
O488 U486 2.458 . S
O488 C489 1.286 . S
C489 U486 2.984 . S
C489 O487 1.353 . S
C489 O488 1.286 . S
C489 C491 1.363 . S
C490 C480 1.465 . S
C490 U486 2.847 . S
C490 O504 1.249 . S
C490 O505 1.202 . S
C491 C489 1.363 . S
C491 C493 1.408 . S
C491 C496 1.342 . S
C492 C493 1.310 . S
C492 C495 1.461 . S
C492 H512 0.932 . S
C493 C491 1.408 . S
C493 C492 1.310 . S
C493 H513 0.930 . S
C494 C495 1.474 . S
C494 C496 1.285 . S
C494 H514 0.929 . S
C495 C492 1.461 . S
C495 C494 1.474 . S
C496 C491 1.342 . S
C496 C494 1.285 . S
C496 H515 0.930 . S
C497 C500 1.424 . S
C497 C502 1.245 . S
C497 C503 1.428 . S
C498 C501 1.260 . S
C498 C502 1.477 . S
C498 H516 0.932 . S
C499 C500 1.384 . S
C499 C501 1.479 . S
C499 H517 0.929 . S
C500 C497 1.424 . S
C500 C499 1.384 . S
C500 H518 0.928 . S
C501 C498 1.260 . S
C501 C499 1.479 . S
C502 C497 1.245 . S
C502 C498 1.477 . S
C502 H519 0.932 . S
C503 U486 2.882 . S
C503 C497 1.428 . S
C503 O506 1.301 . S
C503 O507 1.282 . S
O504 U486 2.441 . S
O504 C490 1.249 . S
O505 U486 2.420 . S
O505 C490 1.202 . S
O506 U486 2.455 . S
O506 C503 1.301 . S
O507 U486 2.449 . S
O507 C503 1.282 . S
H508 C481 0.931 . S
H509 C483 0.929 . S
H510 C484 0.930 . S
H511 C485 0.931 . S
H512 C492 0.932 . S
H513 C493 0.930 . S
H514 C494 0.929 . S
H515 C496 0.930 . S
H516 C498 0.932 . S
H517 C499 0.929 . S
H518 C500 0.928 . S
H519 C502 0.932 . S
C520 C521 1.264 . S
C520 C525 1.479 . S
C520 C530 1.465 . S
C521 C520 1.264 . S
C521 C523 1.339 . S
C521 H548 0.931 . S
C522 C523 1.395 . S
C522 C524 1.320 . S
C523 C521 1.339 . S
C523 C522 1.395 . S
C523 H549 0.929 . S
C524 C522 1.320 . S
C524 C525 1.405 . S
C524 H550 0.930 . S
C525 C520 1.479 . S
C525 C524 1.405 . S
C525 H551 0.931 . S
U526 O527 2.454 . S
U526 O528 2.458 1_556 S
U526 C529 2.984 1_556 S
U526 C530 2.847 . S
U526 C543 2.882 . S
U526 O544 2.441 . S
U526 O545 2.420 . S
U526 O546 2.455 1_556 S
U526 O547 2.449 . S
O527 U526 2.454 . S
O527 C529 1.353 1_556 S
O528 U526 2.458 1_554 S
O528 C529 1.286 . S
C529 U526 2.984 1_554 S
C529 O527 1.353 1_554 S
C529 O528 1.286 . S
C529 C531 1.363 . S
C530 C520 1.465 . S
C530 U526 2.847 . S
C530 O544 1.249 . S
C530 O545 1.202 . S
C531 C529 1.363 . S
C531 C533 1.408 . S
C531 C536 1.342 . S
C532 C533 1.310 . S
C532 C535 1.461 . S
C532 H552 0.932 . S
C533 C531 1.408 . S
C533 C532 1.310 . S
C533 H553 0.930 . S
C534 C535 1.474 . S
C534 C536 1.285 . S
C534 H554 0.929 . S
C535 C532 1.461 . S
C535 C534 1.474 . S
C536 C531 1.342 . S
C536 C534 1.285 . S
C536 H555 0.930 . S
C537 C540 1.424 . S
C537 C542 1.245 1_556 S
C537 C543 1.428 . S
C538 C541 1.260 1_554 S
C538 C542 1.477 . S
C538 H556 0.932 . S
C539 C540 1.384 . S
C539 C541 1.479 . S
C539 H557 0.929 . S
C540 C537 1.424 . S
C540 C539 1.384 . S
C540 H558 0.928 . S
C541 C538 1.260 1_556 S
C541 C539 1.479 . S
C542 C537 1.245 1_554 S
C542 C538 1.477 . S
C542 H559 0.932 . S
C543 U526 2.882 . S
C543 C537 1.428 . S
C543 O546 1.301 1_556 S
C543 O547 1.282 . S
O544 U526 2.441 . S
O544 C530 1.249 . S
O545 U526 2.420 . S
O545 C530 1.202 . S
O546 U526 2.455 1_554 S
O546 C543 1.301 1_554 S
O547 U526 2.449 . S
O547 C543 1.282 . S
H548 C521 0.931 . S
H549 C523 0.929 . S
H550 C524 0.930 . S
H551 C525 0.931 . S
H552 C532 0.932 . S
H553 C533 0.930 . S
H554 C534 0.929 . S
H555 C536 0.930 . S
H556 C538 0.932 . S
H557 C539 0.929 . S
H558 C540 0.928 . S
H559 C542 0.932 . S
C560 C561 1.264 . S
C560 C565 1.479 . S
C560 C570 1.465 . S
C561 C560 1.264 . S
C561 C563 1.339 . S
C561 H588 0.931 . S
C562 C563 1.395 . S
C562 C564 1.320 . S
C563 C561 1.339 . S
C563 C562 1.395 . S
C563 H589 0.929 . S
C564 C562 1.320 . S
C564 C565 1.405 . S
C564 H590 0.930 . S
C565 C560 1.479 . S
C565 C564 1.405 . S
C565 H591 0.931 . S
U566 O567 2.454 . S
U566 O568 2.458 . S
U566 C569 2.984 . S
U566 C570 2.847 . S
U566 C583 2.882 . S
U566 O584 2.441 . S
U566 O585 2.420 . S
U566 O586 2.455 . S
U566 O587 2.449 . S
O567 U566 2.454 . S
O567 C569 1.353 . S
O568 U566 2.458 . S
O568 C569 1.286 . S
C569 U566 2.984 . S
C569 O567 1.353 . S
C569 O568 1.286 . S
C569 C571 1.363 . S
C570 C560 1.465 . S
C570 U566 2.847 . S
C570 O584 1.249 . S
C570 O585 1.202 . S
C571 C569 1.363 . S
C571 C573 1.408 . S
C571 C576 1.342 . S
C572 C573 1.310 . S
C572 C575 1.461 . S
C572 H592 0.932 . S
C573 C571 1.408 . S
C573 C572 1.310 . S
C573 H593 0.930 . S
C574 C575 1.474 . S
C574 C576 1.285 . S
C574 H594 0.929 . S
C575 C572 1.461 . S
C575 C574 1.474 . S
C576 C571 1.342 . S
C576 C574 1.285 . S
C576 H595 0.930 . S
C577 C580 1.424 . S
C577 C582 1.245 . S
C577 C583 1.428 . S
C578 C581 1.260 . S
C578 C582 1.477 . S
C578 H596 0.932 . S
C579 C580 1.384 . S
C579 C581 1.479 . S
C579 H597 0.929 . S
C580 C577 1.424 . S
C580 C579 1.384 . S
C580 H598 0.928 . S
C581 C578 1.260 . S
C581 C579 1.479 . S
C582 C577 1.245 . S
C582 C578 1.477 . S
C582 H599 0.932 . S
C583 U566 2.882 . S
C583 C577 1.428 . S
C583 O586 1.301 . S
C583 O587 1.282 . S
O584 U566 2.441 . S
O584 C570 1.249 . S
O585 U566 2.420 . S
O585 C570 1.202 . S
O586 U566 2.455 . S
O586 C583 1.301 . S
O587 U566 2.449 . S
O587 C583 1.282 . S
H588 C561 0.931 . S
H589 C563 0.929 . S
H590 C564 0.930 . S
H591 C565 0.931 . S
H592 C572 0.932 . S
H593 C573 0.930 . S
H594 C574 0.929 . S
H595 C576 0.930 . S
H596 C578 0.932 . S
H597 C579 0.929 . S
H598 C580 0.928 . S
H599 C582 0.932 . S
C600 C601 1.264 . S
C600 C605 1.479 . S
C600 C610 1.465 . S
C601 C600 1.264 . S
C601 C603 1.339 . S
C601 H628 0.931 . S
C602 C603 1.395 . S
C602 C604 1.320 . S
C603 C601 1.339 . S
C603 C602 1.395 . S
C603 H629 0.929 . S
C604 C602 1.320 . S
C604 C605 1.405 . S
C604 H630 0.930 . S
C605 C600 1.479 . S
C605 C604 1.405 . S
C605 H631 0.931 . S
U606 O607 2.454 1_556 S
U606 O608 2.458 1_545 S
U606 C609 2.984 1_545 S
U606 C610 2.847 1_556 S
U606 C623 2.882 . S
U606 O624 2.441 1_556 S
U606 O625 2.420 1_556 S
U606 O626 2.455 1_545 S
U606 O627 2.449 . S
O607 U606 2.454 1_554 S
O607 C609 1.353 1_544 S
O608 U606 2.458 1_565 S
O608 C609 1.286 . S
C609 U606 2.984 1_565 S
C609 O607 1.353 1_566 S
C609 O608 1.286 . S
C609 C611 1.363 . S
C610 C600 1.465 . S
C610 U606 2.847 1_554 S
C610 O624 1.249 . S
C610 O625 1.202 . S
C611 C609 1.363 . S
C611 C613 1.408 1_556 S
C611 C616 1.342 . S
C612 C613 1.310 . S
C612 C615 1.461 1_554 S
C612 H632 0.932 . S
C613 C611 1.408 1_554 S
C613 C612 1.310 . S
C613 H633 0.930 . S
C614 C615 1.474 . S
C614 C616 1.285 . S
C614 H634 0.929 . S
C615 C612 1.461 1_556 S
C615 C614 1.474 . S
C616 C611 1.342 . S
C616 C614 1.285 . S
C616 H635 0.930 . S
C617 C620 1.424 . S
C617 C622 1.245 1_545 S
C617 C623 1.428 . S
C618 C621 1.260 1_565 S
C618 C622 1.477 . S
C618 H636 0.932 . S
C619 C620 1.384 . S
C619 C621 1.479 . S
C619 H637 0.929 . S
C620 C617 1.424 . S
C620 C619 1.384 . S
C620 H638 0.928 . S
C621 C618 1.260 1_545 S
C621 C619 1.479 . S
C622 C617 1.245 1_565 S
C622 C618 1.477 . S
C622 H639 0.932 . S
C623 U606 2.882 . S
C623 C617 1.428 . S
C623 O626 1.301 1_545 S
C623 O627 1.282 . S
O624 U606 2.441 1_554 S
O624 C610 1.249 . S
O625 U606 2.420 1_554 S
O625 C610 1.202 . S
O626 U606 2.455 1_565 S
O626 C623 1.301 1_565 S
O627 U606 2.449 . S
O627 C623 1.282 . S
H628 C601 0.931 . S
H629 C603 0.929 . S
H630 C604 0.930 . S
H631 C605 0.931 . S
H632 C612 0.932 . S
H633 C613 0.930 . S
H634 C614 0.929 . S
H635 C616 0.930 . S
H636 C618 0.932 . S
H637 C619 0.929 . S
H638 C620 0.928 . S
H639 C622 0.932 . S
Mg640 O641 2.028 . S
Mg640 O647 1.986 1_554 S
Mg640 O649 2.114 . S
Mg640 O650 2.251 . S
Mg640 O653 2.010 . S
O641 Mg640 2.028 . S
O641 C644 1.250 . S
O642 Mg643 2.029 . S
O642 C644 1.246 1_556 S
Mg643 O642 2.029 . S
Mg643 O648 2.032 . S
Mg643 O650 2.079 1_556 S
C644 O641 1.250 . S
C644 O642 1.246 1_554 S
C645 O646 1.264 . S
C645 O653 1.249 . S
O646 C645 1.264 . S
O647 Mg640 1.986 1_556 S
O647 C651 1.246 . S
O648 Mg643 2.032 . S
O648 C651 1.259 . S
O649 Mg640 2.114 . S
O649 C652 1.252 . S
O650 Mg640 2.251 . S
O650 Mg643 2.079 1_554 S
O650 C652 1.273 . S
C651 O647 1.246 . S
C651 O648 1.259 . S
C652 O649 1.252 . S
C652 O650 1.273 . S
O653 Mg640 2.010 . S
O653 C645 1.249 . S
Mg654 O655 2.028 . S
Mg654 O661 1.986 . S
Mg654 O663 2.114 . S
Mg654 O664 2.251 . S
Mg654 O667 2.010 . S
O655 Mg654 2.028 . S
O655 C658 1.250 . S
O656 Mg657 2.028 . S
O656 C658 1.248 . S
Mg657 O656 2.028 . S
Mg657 O662 2.032 . S
Mg657 O664 2.079 . S
C658 O655 1.250 . S
C658 O656 1.248 . S
C659 O660 1.264 . S
C659 O667 1.249 . S
O660 C659 1.264 . S
O661 Mg654 1.986 . S
O661 C665 1.246 . S
O662 Mg657 2.032 . S
O662 C665 1.259 . S
O663 Mg654 2.114 . S
O663 C666 1.252 . S
O664 Mg654 2.251 . S
O664 Mg657 2.079 . S
O664 C666 1.273 . S
C665 O661 1.246 . S
C665 O662 1.259 . S
C666 O663 1.252 . S
C666 O664 1.273 . S
O667 Mg654 2.010 . S
O667 C659 1.249 . S
Mg668 O669 2.028 . S
Mg668 O675 1.986 1_554 S
Mg668 O677 2.114 . S
Mg668 O678 2.251 . S
Mg668 O681 2.010 . S
O669 Mg668 2.028 . S
O669 C672 1.250 1_554 S
O670 Mg671 2.028 . S
O670 C672 1.248 . S
Mg671 O670 2.028 . S
Mg671 O676 2.032 . S
Mg671 O678 2.079 1_556 S
C672 O669 1.250 1_556 S
C672 O670 1.248 . S
C673 O674 1.264 . S
C673 O681 1.249 . S
O674 C673 1.264 . S
O675 Mg668 1.986 1_556 S
O675 C679 1.246 . S
O676 Mg671 2.032 . S
O676 C679 1.259 . S
O677 Mg668 2.114 . S
O677 C680 1.252 . S
O678 Mg668 2.251 . S
O678 Mg671 2.079 1_554 S
O678 C680 1.273 . S
C679 O675 1.246 . S
C679 O676 1.259 . S
C680 O677 1.252 . S
C680 O678 1.273 . S
O681 Mg668 2.010 . S
O681 C673 1.249 . S
Mg682 O683 2.028 1_545 S
Mg682 O689 1.986 . S
Mg682 O691 2.114 . S
Mg682 O692 2.251 . S
Mg682 O695 2.010 . S
O683 Mg682 2.028 1_565 S
O683 C686 1.250 . S
O684 Mg685 2.028 . S
O684 C686 1.248 . S
Mg685 O684 2.028 . S
Mg685 O690 2.032 . S
Mg685 O692 2.079 1_565 S
C686 O683 1.250 . S
C686 O684 1.248 . S
C687 O688 1.264 . S
C687 O695 1.249 . S
O688 C687 1.264 . S
O689 Mg682 1.986 . S
O689 C693 1.246 1_545 S
O690 Mg685 2.032 . S
O690 C693 1.259 . S
O691 Mg682 2.114 . S
O691 C694 1.252 . S
O692 Mg682 2.251 . S
O692 Mg685 2.079 1_545 S
O692 C694 1.273 . S
C693 O689 1.246 1_565 S
C693 O690 1.259 . S
C694 O691 1.252 . S
C694 O692 1.273 . S
O695 Mg682 2.010 . S
O695 C687 1.249 . S
Mg696 O697 2.028 . S
Mg696 O703 1.986 . S
Mg696 O705 2.114 . S
Mg696 O706 2.251 . S
Mg696 O709 2.010 . S
O697 Mg696 2.028 . S
O697 C700 1.250 . S
O698 Mg699 2.028 . S
O698 C700 1.248 . S
Mg699 O698 2.028 . S
Mg699 O704 2.032 . S
Mg699 O706 2.079 . S
C700 O697 1.250 . S
C700 O698 1.248 . S
C701 O702 1.264 . S
C701 O709 1.249 . S
O702 C701 1.264 . S
O703 Mg696 1.986 . S
O703 C707 1.246 . S
O704 Mg699 2.032 . S
O704 C707 1.259 . S
O705 Mg696 2.114 . S
O705 C708 1.252 . S
O706 Mg696 2.251 . S
O706 Mg699 2.079 . S
O706 C708 1.273 . S
C707 O703 1.246 . S
C707 O704 1.259 . S
C708 O705 1.252 . S
C708 O706 1.273 . S
O709 Mg696 2.010 . S
O709 C701 1.249 . S
Mg710 O711 2.028 . S
Mg710 O717 1.986 . S
Mg710 O719 2.114 . S
Mg710 O720 2.251 . S
Mg710 O723 2.010 . S
O711 Mg710 2.028 . S
O711 C714 1.250 . S
O712 Mg713 2.028 . S
O712 C714 1.248 . S
Mg713 O712 2.028 . S
Mg713 O718 2.032 . S
Mg713 O720 2.079 . S
C714 O711 1.250 . S
C714 O712 1.248 . S
C715 O716 1.264 . S
C715 O723 1.249 . S
O716 C715 1.264 . S
O717 Mg710 1.986 . S
O717 C721 1.246 . S
O718 Mg713 2.032 . S
O718 C721 1.259 . S
O719 Mg710 2.114 . S
O719 C722 1.252 . S
O720 Mg710 2.251 . S
O720 Mg713 2.079 . S
O720 C722 1.273 . S
C721 O717 1.246 . S
C721 O718 1.259 . S
C722 O719 1.252 . S
C722 O720 1.273 . S
O723 Mg710 2.010 . S
O723 C715 1.249 . S
Mg724 O725 2.028 . S
Mg724 O731 1.986 . S
Mg724 O733 2.114 . S
Mg724 O734 2.251 . S
Mg724 O737 2.010 . S
O725 Mg724 2.028 . S
O725 C728 1.250 . S
O726 Mg727 2.028 . S
O726 C728 1.248 . S
Mg727 O726 2.028 . S
Mg727 O732 2.032 . S
Mg727 O734 2.079 . S
C728 O725 1.250 . S
C728 O726 1.248 . S
C729 O730 1.264 . S
C729 O737 1.249 . S
O730 C729 1.264 . S
O731 Mg724 1.986 . S
O731 C735 1.246 . S
O732 Mg727 2.032 . S
O732 C735 1.259 . S
O733 Mg724 2.114 . S
O733 C736 1.252 . S
O734 Mg724 2.251 . S
O734 Mg727 2.079 . S
O734 C736 1.273 . S
C735 O731 1.246 . S
C735 O732 1.259 . S
C736 O733 1.252 . S
C736 O734 1.273 . S
O737 Mg724 2.010 . S
O737 C729 1.249 . S
Mg738 O739 2.028 1_545 S
Mg738 O745 1.986 1_545 S
Mg738 O747 2.114 . S
Mg738 O748 2.251 . S
Mg738 O751 2.010 . S
O739 Mg738 2.028 1_565 S
O739 C742 1.250 . S
O740 Mg741 2.028 . S
O740 C742 1.248 . S
Mg741 O740 2.028 . S
Mg741 O746 2.032 . S
Mg741 O748 2.079 1_565 S
C742 O739 1.250 . S
C742 O740 1.248 . S
C743 O744 1.264 . S
C743 O751 1.249 . S
O744 C743 1.264 . S
O745 Mg738 1.986 1_565 S
O745 C749 1.246 . S
O746 Mg741 2.032 . S
O746 C749 1.259 . S
O747 Mg738 2.114 . S
O747 C750 1.252 . S
O748 Mg738 2.251 . S
O748 Mg741 2.079 1_545 S
O748 C750 1.273 . S
C749 O745 1.246 . S
C749 O746 1.259 . S
C750 O747 1.252 . S
C750 O748 1.273 . S
O751 Mg738 2.010 . S
O751 C743 1.249 . S
Mg752 O753 2.028 1_455 S
Mg752 O759 1.986 . S
Mg752 O761 2.114 . S
Mg752 O762 2.251 . S
Mg752 O765 2.010 . S
O753 Mg752 2.028 1_655 S
O753 C756 1.250 . S
O754 Mg755 2.028 . S
O754 C756 1.248 . S
Mg755 O754 2.028 . S
Mg755 O760 2.032 . S
Mg755 O762 2.079 1_655 S
C756 O753 1.250 . S
C756 O754 1.248 . S
C757 O758 1.264 . S
C757 O765 1.249 . S
O758 C757 1.264 . S
O759 Mg752 1.986 . S
O759 C763 1.262 . S
O760 Mg755 2.032 . S
O760 C763 1.241 1_655 S
O761 Mg752 2.114 . S
O761 C764 1.252 . S
O762 Mg752 2.251 . S
O762 Mg755 2.079 1_455 S
O762 C764 1.273 . S
C763 O759 1.262 . S
C763 O760 1.241 1_455 S
C764 O761 1.252 . S
C764 O762 1.273 . S
O765 Mg752 2.010 . S
O765 C757 1.249 . S
Mg766 O767 2.028 . S
Mg766 O773 1.986 . S
Mg766 O775 2.114 . S
Mg766 O776 2.251 . S
Mg766 O779 2.010 . S
O767 Mg766 2.028 . S
O767 C770 1.250 . S
O768 Mg769 2.028 . S
O768 C770 1.248 . S
Mg769 O768 2.028 . S
Mg769 O774 2.032 . S
Mg769 O776 2.079 . S
C770 O767 1.250 . S
C770 O768 1.248 . S
C771 O772 1.264 . S
C771 O779 1.249 . S
O772 C771 1.264 . S
O773 Mg766 1.986 . S
O773 C777 1.246 . S
O774 Mg769 2.032 . S
O774 C777 1.259 . S
O775 Mg766 2.114 . S
O775 C778 1.252 . S
O776 Mg766 2.251 . S
O776 Mg769 2.079 . S
O776 C778 1.273 . S
C777 O773 1.246 . S
C777 O774 1.259 . S
C778 O775 1.252 . S
C778 O776 1.273 . S
O779 Mg766 2.010 . S
O779 C771 1.249 . S
Mg780 O781 2.028 1_655 S
Mg780 O787 1.988 . S
Mg780 O789 2.114 . S
Mg780 O790 2.251 1_655 S
Mg780 O793 2.010 . S
O781 Mg780 2.028 1_455 S
O781 C784 1.250 . S
O782 Mg783 2.028 . S
O782 C784 1.248 . S
Mg783 O782 2.028 . S
Mg783 O788 2.032 . S
Mg783 O790 2.079 . S
C784 O781 1.250 . S
C784 O782 1.248 . S
C785 O786 1.264 . S
C785 O793 1.249 . S
O786 C785 1.264 . S
O787 Mg780 1.988 . S
O787 C791 1.240 1_655 S
O788 Mg783 2.032 . S
O788 C791 1.259 . S
O789 Mg780 2.114 . S
O789 C792 1.252 . S
O790 Mg780 2.251 1_455 S
O790 Mg783 2.079 . S
O790 C792 1.273 1_455 S
C791 O787 1.240 1_455 S
C791 O788 1.259 . S
C792 O789 1.252 . S
C792 O790 1.273 1_655 S
O793 Mg780 2.010 . S
O793 C785 1.249 . S
Mg794 O795 2.028 . S
Mg794 O801 1.986 . S
Mg794 O803 2.114 . S
Mg794 O804 2.251 . S
Mg794 O807 2.010 . S
O795 Mg794 2.028 . S
O795 C798 1.250 . S
O796 Mg797 2.028 . S
O796 C798 1.248 . S
Mg797 O796 2.028 . S
Mg797 O802 2.032 . S
Mg797 O804 2.079 . S
C798 O795 1.250 . S
C798 O796 1.248 . S
C799 O800 1.264 . S
C799 O807 1.249 . S
O800 C799 1.264 . S
O801 Mg794 1.986 . S
O801 C805 1.246 . S
O802 Mg797 2.032 . S
O802 C805 1.259 . S
O803 Mg794 2.114 . S
O803 C806 1.252 . S
O804 Mg794 2.251 . S
O804 Mg797 2.079 . S
O804 C806 1.273 . S
C805 O801 1.246 . S
C805 O802 1.259 . S
C806 O803 1.252 . S
C806 O804 1.273 . S
O807 Mg794 2.010 . S
O807 C799 1.249 . S
C651 C202 1.374 . S
C659 C261 1.210 . S
C282 C679 1.511 . S
C693 C162 1.591 1_565 S
C708 C402 1.490 . S
C722 C482 1.694 . S
C442 C736 1.636 . S
C742 C381 1.391 . S
C461 C756 1.626 . S
C777 C362 1.564 . S
C415 C757 1.176 . S
C778 C495 1.680 . S
C301 C785 1.193 . S
C175 C791 1.589 . S
C215 C784 1.383 . S
C242 C792 1.518 . S
C141 C686 1.492 . S
C581 C687 1.277 . S
C644 C615 1.443 1_554 S
C665 C335 1.467 . S
C181 C700 1.512 . S
C750 C455 1.532 . S
C701 C375 1.064 . S
C729 C501 1.350 . S
C735 C562 1.374 . S
C621 C743 1.210 . S
C322 C707 1.511 . S
C721 C522 1.591 . S
C122 C680 1.490 . S
C694 C2 1.695 . S
C652 C42 1.635 . S
C658 C101 1.391 . S
C61 C770 1.626 . S
C82 C763 1.566 . S
C135 C771 1.176 . S
C15 C764 1.680 . S
C799 C341 1.193 . S
C805 C535 1.589 . S
C798 C575 1.383 . S
C602 C806 1.518 . S
C421 C714 1.492 . S
C715 C221 1.277 . S
C728 C255 1.443 . S
C749 C295 1.470 . S
C541 C672 1.513 . S
C666 C55 1.534 . S
C95 C673 1.064 . S
C645 C21 1.350 . S
