# Generated by pormake.
# Topology pth, (4,4)-cn, num edge types: 1
# Building blocks:
#     Node 0, Type 0, BuildingBlock: UXUYUI_clean_sbu_0, # of connection points: 4
#     Node 1, Type 0, BuildingBlock: UXUYUI_clean_sbu_0, # of connection points: 4
#     Node 2, Type 0, BuildingBlock: UXUYUI_clean_sbu_0, # of connection points: 4
#     Node 3, Type 1, BuildingBlock: KOZSID_clean_sbu_0, # of connection points: 4
#     Node 4, Type 1, BuildingBlock: KOZSID_clean_sbu_0, # of connection points: 4
#     Node 5, Type 1, BuildingBlock: KOZSID_clean_sbu_0, # of connection points: 4
#     Edge 6, Type (0, 1), None
#     Edge 7, Type (0, 1), None
#     Edge 8, Type (0, 1), None
#     Edge 9, Type (0, 1), None
#     Edge 10, Type (0, 1), None
#     Edge 11, Type (0, 1), None
#     Edge 12, Type (0, 1), None
#     Edge 13, Type (0, 1), None
#     Edge 14, Type (0, 1), None
#     Edge 15, Type (0, 1), None
#     Edge 16, Type (0, 1), None
#     Edge 17, Type (0, 1), None
# Relax obj value: 0.074
# Max RMSD: 0.218
# Mean RMSD: 0.113
data_MOF--net-pth--node1-UXUYUI_clean_sbu_0--node2-KOZSID_clean_sbu_0--edge1-none
_symmetry_space_group_name_H-M    P1
_symmetry_Int_Tables_number       1
_symmetry_cell_setting            triclinic
loop_
_symmetry_equiv_pos_as_xyz
'x, y, z'
_cell_length_a     18.883871
_cell_length_b     18.878841
_cell_length_c     42.756353
_cell_angle_alpha  86.481996
_cell_angle_beta   86.453503
_cell_angle_gamma 119.95827
loop_
_atom_site_label
_atom_site_type_symbol
_atom_site_fract_x
_atom_site_fract_y
_atom_site_fract_z
_atom_type_partial_charge
Li0 Li 0.18921 0.14876 0.03541 0.0
Li1 Li 0.0808 0.14025 0.07261 0.0
Li2 Li 0.11654 0.02573 0.07702 0.0
Li3 Li 0.04001 0.03318 0.03476 0.0
C4 C 0.25685 0.18281 0.0955 0.0
N5 N 0.40215 0.25857 0.12299 0.0
C6 C 0.28262 0.25821 0.10749 0.0
C7 C 0.30408 0.14508 0.09819 0.0
C8 C 0.35655 0.29582 0.12108 0.0
C9 C 0.37755 0.18454 0.11199 0.0
C10 C 0.06219 0.20464 0.01497 0.0
C11 C 0.95021 0.22908 0.00784 0.0
N12 N 1.00478 0.30607 0.99393 0.0
C13 C 0.11711 0.28367 1.00029 0.0
C14 C 0.97803 0.17679 0.01853 0.0
C15 C 0.0869 0.33416 0.98995 0.0
C16 C 0.31197 0.22826 0.98183 0.0
N17 N 0.28761 0.23684 0.01127 0.0
C18 C 0.39206 0.37972 1.00547 0.0
C19 C 0.32577 0.31094 0.0231 0.0
C20 C 0.41818 0.37278 0.97503 0.0
C21 C 0.37729 0.29578 0.96321 0.0
H22 H 0.2793 0.16953 0.97251 0.0
H23 H 0.30295 0.31758 0.04583 0.0
C24 C 0.02182 0.19587 0.12387 0.0
N25 N 0.06612 0.21792 0.09511 0.0
C26 C 0.0258 0.25629 0.14238 0.0
C27 C 0.11882 0.36067 0.101 0.0
C28 C 0.11356 0.29843 0.08345 0.0
C29 C 0.07615 0.34018 0.13124 0.0
H30 H 0.98636 0.13166 0.13305 0.0
H31 H 0.15155 0.31478 0.06131 0.0
C32 C 0.19501 0.99789 0.0247 0.0
N33 N 0.29867 0.93677 0.01237 0.0
C34 C 0.16404 0.91922 0.01506 0.0
C35 C 0.27906 0.04611 0.02733 0.0
C36 C 0.21729 0.8892 0.00917 0.0
C37 C 0.33039 0.01399 0.02119 0.0
C38 C 0.92407 0.96802 0.08613 0.0
C39 C 0.89005 0.88287 0.09121 0.0
C40 C 0.87246 1.00121 0.08658 0.0
C41 C 0.80466 0.83209 0.09576 0.0
C42 C 0.78736 0.94841 0.09127 0.0
N43 N 0.7555 0.86563 0.09565 0.0
C44 C 0.14007 0.95766 0.13523 0.0
C45 C 0.0879 0.86653 0.09602 0.0
C46 C 0.13371 0.89436 0.15635 0.0
N47 N 0.11785 0.94292 0.10557 0.0
C48 C 0.08087 0.80176 0.11627 0.0
C49 C 0.10309 0.8151 0.14698 0.0
H50 H 0.16183 0.01827 0.14264 0.0
H51 H 0.06791 0.85536 0.0728 0.0
C52 C 0.9261 0.97855 0.9862 0.0
N53 N 0.95919 0.95643 0.0096 0.0
C54 C 0.87123 0.91932 0.96808 0.0
C55 C 0.88588 0.81592 0.99819 0.0
C56 C 0.94007 0.87689 0.01571 0.0
C57 C 0.85059 0.8365 0.97384 0.0
H58 H 0.94321 0.04224 0.98119 0.0
H59 H 0.96763 0.86074 0.03418 0.0
O60 O 0.18426 0.14483 0.08229 0.0
O61 O 0.09075 0.15454 0.02539 0.0
O62 O 0.1438 0.0285 0.03042 0.0
O63 O 0.00752 0.01878 0.08155 0.0
H64 H 0.24624 0.28771 0.10615 0.0
H65 H 0.28381 0.08543 0.0901 0.0
H66 H 0.37756 0.35455 0.13017 0.0
H67 H 0.41479 0.1561 0.1141 0.0
H68 H 0.88521 0.20836 0.01052 0.0
H69 H 0.18242 0.30598 0.99708 0.0
H70 H 0.93461 0.11528 0.02921 0.0
H71 H 0.12875 0.39564 0.97874 0.0
H72 H 0.42143 0.43819 0.01522 0.0
H73 H 0.39506 0.28826 0.93962 0.0
H74 H 0.99137 0.23755 0.16549 0.0
H75 H 0.15955 0.42425 0.09168 0.0
H76 H 0.09951 0.88155 0.01222 0.0
H77 H 0.30463 0.1079 0.03388 0.0
H78 H 0.19396 0.82815 1.00197 0.0
H79 H 0.39549 0.05058 0.02332 0.0
H80 H 0.92914 0.85622 0.09153 0.0
H81 H 0.89784 0.06708 0.08355 0.0
H82 H 0.77748 0.76602 0.09944 0.0
H83 H 0.74666 0.97325 0.09152 0.0
H84 H 0.15251 0.90706 0.17976 0.0
H85 H 0.05849 0.74183 0.10801 0.0
H86 H 0.84671 0.93865 0.94929 0.0
H87 H 0.8714 0.75311 1.00386 0.0
Li88 Li 0.06844 0.04272 0.36863 0.0
Li89 Li 0.15104 0.12535 0.4075 0.0
Li90 Li 1.00019 0.09007 0.40849 0.0
Li91 Li 0.10363 0.19355 0.36765 0.0
C92 C 1.00163 0.932 0.42195 0.0
N93 N 0.90984 0.76277 0.43458 0.0
C94 C 0.04067 0.88635 0.42642 0.0
C95 C 0.91582 0.89161 0.42457 0.0
C96 C 0.99324 0.80085 0.43257 0.0
C97 C 0.87051 0.80604 0.4308 0.0
C98 C 0.26173 0.19235 0.35413 0.0
C99 C 0.38744 0.32367 0.34519 0.0
N100 N 0.43087 0.28451 0.34136 0.0
C101 C 0.30753 0.15348 0.34961 0.0
C102 C 0.30191 0.27817 0.35149 0.0
C103 C 0.39299 0.2011 0.34339 0.0
C104 C 0.01467 0.92793 0.32025 0.0
N105 N 0.06399 0.95785 0.34373 0.0
C106 C 0.12619 0.87707 0.33189 0.0
C107 C 0.11878 0.93318 0.34974 0.0
C108 C 0.07623 0.84497 0.30754 0.0
C109 C 0.01928 0.87066 0.30201 0.0
H110 H 0.97284 0.94948 0.31522 0.0
H111 H 0.15775 0.95794 0.36829 0.0
C112 C 0.2656 0.17889 0.45596 0.0
N113 N 0.23588 0.12977 0.43241 0.0
C114 C 0.32274 0.17416 0.47422 0.0
C115 C 0.31665 0.06755 0.4442 0.0
C116 C 0.26068 0.07509 0.42632 0.0
C117 C 0.34851 0.11728 0.46864 0.0
H118 H 0.24395 0.22063 0.46106 0.0
H119 H 0.2361 0.03629 0.40771 0.0
C120 C 0.92337 0.0638 0.35111 0.0
N121 N 0.77036 0.00457 0.32995 0.0
C122 C 0.90308 0.11781 0.33577 0.0
C123 C 0.86635 0.97955 0.35515 0.0
C124 C 0.82525 0.08672 0.32542 0.0
C125 C 0.78921 0.95082 0.34442 0.0
C126 C 0.13003 0.27044 0.42504 0.0
C127 C 0.07616 0.29091 0.44037 0.0
C128 C 0.21431 0.3273 0.42103 0.0
C129 C 0.1074 0.36876 0.45075 0.0
C130 C 0.2432 0.40447 0.43178 0.0
N131 N 0.18958 0.4235 0.44624 0.0
C132 C 0.88377 0.04466 0.46356 0.0
C133 C 0.86605 0.11639 0.4202 0.0
C134 C 0.82117 0.04678 0.48214 0.0
N135 N 0.90484 0.07898 0.4331 0.0
C136 C 0.80229 0.11872 0.43775 0.0
C137 C 0.77953 0.08417 0.46921 0.0
H138 H 0.91707 0.01762 0.47369 0.0
H139 H 0.88659 0.14734 0.39661 0.0
C140 C 0.14851 0.30946 0.31249 0.0
N141 N 0.11459 0.28879 0.34301 0.0
C142 C 0.14616 0.37184 0.29386 0.0
C143 C 0.07479 0.3913 0.3383 0.0
C144 C 0.07735 0.32775 0.35591 0.0
C145 C 0.10895 0.41366 0.3068 0.0
H146 H 0.17538 0.276 0.30237 0.0
H147 H 0.0467 0.30751 0.37955 0.0
O148 O 0.04693 0.01587 0.41594 0.0
O149 O 0.17788 0.14685 0.36019 0.0
O150 O 0.9991 0.09335 0.36166 0.0
O151 O 0.10034 0.19467 0.41448 0.0
H152 H 0.10685 0.91642 0.4252 0.0
H153 H 0.8844 0.92592 0.42187 0.0
H154 H 0.02274 0.76478 0.43584 0.0
H155 H 0.80407 0.77406 0.43271 0.0
H156 H 0.41927 0.39013 0.34327 0.0
H157 H 0.27761 0.08729 0.35084 0.0
H158 H 0.26748 0.30945 0.35424 0.0
H159 H 0.42918 0.17173 0.34008 0.0
H160 H 0.17032 0.85861 0.33727 0.0
H161 H 0.9801 0.84831 0.28324 0.0
H162 H 0.34493 0.21317 0.49306 0.0
H163 H 0.3352 0.02349 0.43876 0.0
H164 H 0.94666 0.18313 0.33212 0.0
H165 H 0.88176 0.93664 0.36612 0.0
H166 H 0.80851 0.12791 0.31376 0.0
H167 H 0.74444 0.88575 0.34749 0.0
H168 H 0.01082 0.24744 0.44401 0.0
H169 H 0.25712 0.31175 0.41006 0.0
H170 H 0.06631 0.38564 0.46241 0.0
H171 H 0.30829 0.44912 0.42873 0.0
H172 H 0.80606 0.02039 0.50651 0.0
H173 H 0.77235 0.1489 0.42711 0.0
H174 H 0.17226 0.38666 0.26945 0.0
H175 H 0.04476 0.42139 0.34895 0.0
Li176 Li 0.17008 0.08085 0.69942 0.0
Li177 Li 0.16686 0.16652 0.73903 0.0
Li178 Li 0.05213 0.01591 0.74328 0.0
Li179 Li 0.05546 0.11583 0.70308 0.0
C180 C 0.20954 0.02053 0.75462 0.0
N181 N 0.28309 0.93167 0.77261 0.0
C182 C 0.28958 0.06092 0.76323 0.0
C183 C 0.16622 0.93481 0.75591 0.0
C184 C 0.32593 0.01497 0.77202 0.0
C185 C 0.20463 0.89101 0.76487 0.0
C186 C 0.22321 0.27177 0.6835 0.0
C187 C 0.2367 0.40576 0.67594 0.0
N188 N 0.31784 0.439 0.66594 0.0
C189 C 0.30641 0.30701 0.67269 0.0
C190 C 0.18774 0.32127 0.68477 0.0
C191 C 0.35336 0.39176 0.66412 0.0
C192 C 0.23506 0.0491 0.64229 0.0
N193 N 0.25148 0.07623 0.67121 0.0
C194 C 0.39316 0.1159 0.65972 0.0
C195 C 0.32896 0.11001 0.67997 0.0
C196 C 0.37834 0.08932 0.62965 0.0
C197 C 0.29792 0.0548 0.62108 0.0
H198 H 0.17352 0.0243 0.63547 0.0
H199 H 0.34149 0.1343 0.70245 0.0
C200 C 0.22126 0.27001 0.78943 0.0
N201 N 0.2448 0.25114 0.76197 0.0
C202 C 0.28041 0.3228 0.80795 0.0
C203 C 0.38692 0.33709 0.76939 0.0
C204 C 0.32578 0.2836 0.75176 0.0
C205 C 0.36465 0.35619 0.79824 0.0
H206 H 0.15664 0.24177 0.79756 0.0
H207 H 0.34304 0.26492 0.7306 0.0
C208 C 0.01239 0.93276 0.68695 0.0
N209 N 0.938 0.77821 0.66636 0.0
C210 C 0.93487 0.89989 0.67612 0.0
C211 C 0.0528 0.88775 0.68666 0.0
C212 C 0.89804 0.82142 0.66602 0.0
C213 C 0.01401 0.80955 0.67633 0.0
C214 C 0.99815 0.14765 0.75953 0.0
C215 C 0.91694 0.09503 0.77256 0.0
C216 C 0.03057 0.23266 0.75713 0.0
C217 C 0.86883 0.12839 0.78228 0.0
C218 C 0.98056 0.26366 0.76716 0.0
N219 N 0.90135 0.21132 0.77938 0.0
C220 C 0.98237 0.90791 0.80137 0.0
C221 C 0.89328 0.87978 0.76141 0.0
C222 C 0.91757 0.84697 0.82256 0.0
N223 N 0.96918 0.92307 0.77138 0.0
C224 C 0.82727 0.81788 0.78163 0.0
C225 C 0.83858 0.80191 0.81283 0.0
H226 H 0.04271 0.94432 0.80905 0.0
H227 H 0.88321 0.89493 0.73799 0.0
C228 C 0.99767 0.17147 0.65162 0.0
N229 N 0.97625 0.12676 0.68027 0.0
C230 C 0.93683 0.16681 0.63326 0.0
C231 C 0.83319 0.07191 0.67448 0.0
C232 C 0.8959 0.07786 0.6919 0.0
C233 C 0.85314 0.11537 0.64442 0.0
H234 H 0.0618 0.20816 0.64247 0.0
H235 H 0.88022 0.03989 0.71402 0.0
O236 O 0.17277 0.06453 0.74619 0.0
O237 O 0.17623 0.18888 0.69194 0.0
O238 O 0.04963 0.00983 0.69667 0.0
O239 O 0.04625 0.11607 0.75002 0.0
H240 H 0.32348 0.12713 0.76296 0.0
H241 H 0.10336 0.90232 0.7503 0.0
H242 H 0.38813 0.04551 0.77845 0.0
H243 H 0.17193 0.82466 0.76581 0.0
H244 H 0.21011 0.44487 0.67693 0.0
H245 H 0.33452 0.26935 0.67107 0.0
H246 H 0.12296 0.29465 0.69224 0.0
H247 H 0.41799 0.41996 0.65595 0.0
H248 H 0.45391 0.1412 0.66747 0.0
H249 H 0.28402 0.03257 0.59821 0.0
H250 H 0.26034 0.33615 0.82996 0.0
H251 H 0.45082 0.36005 0.76123 0.0
H252 H 0.90325 0.93441 0.6757 0.0
H253 H 0.11388 0.91325 0.69396 0.0
H254 H 0.83776 0.79496 0.65784 0.0
H255 H 0.04451 0.77395 0.67608 0.0
H256 H 0.89118 0.02908 0.77501 0.0
H257 H 0.09392 0.2743 0.74792 0.0
H258 H 0.8057 0.08835 0.79219 0.0
H259 H 1.00481 0.32935 0.76536 0.0
H260 H 0.92877 0.83539 0.84636 0.0
H261 H 0.76773 0.78325 0.77303 0.0
H262 H 0.95511 0.20181 0.61026 0.0
H263 H 0.76975 0.03042 0.68379 0.0
C264 C 0.17941 0.75217 0.17297 0.0
C265 C 0.2544 0.81019 0.1566 0.0
C266 C 0.31148 0.79161 0.16626 0.0
C267 C 0.2683 0.7234 0.18776 0.0
N268 N 0.18748 0.69751 0.19227 0.0
Co269 Co 0.10316 0.60058 0.22104 0.0
N270 N 0.18902 0.59501 0.24433 0.0
C271 C 0.2705 0.63624 0.23517 0.0
C272 C 0.31546 0.62173 0.25591 0.0
C273 C 0.25886 0.56629 0.27936 0.0
C274 C 0.1821 0.54916 0.27132 0.0
N275 N 0.01868 0.50276 0.24967 0.0
C276 C 0.0265 0.46203 0.27542 0.0
C277 C 0.95171 0.39242 0.28646 0.0
C278 C 0.89583 0.38864 0.26675 0.0
C279 C 0.93915 0.45562 0.24476 0.0
N280 N 0.01843 0.60739 0.19755 0.0
C281 C 0.93917 0.54812 0.19837 0.0
C282 C 0.89457 0.5714 0.18065 0.0
C283 C 0.94926 0.65023 0.16774 0.0
C284 C 0.02463 0.67051 0.17817 0.0
N285 N 0.1074 0.52586 0.19172 0.0
C286 C 0.08839 0.40567 0.15182 0.0
C287 C 0.09275 0.47891 0.13994 0.0
C288 C 0.10233 0.53811 0.16023 0.0
C289 C 0.09786 0.3961 0.18372 0.0
C290 C 0.1078 0.45669 0.20305 0.0
N291 N 0.09655 0.67429 0.25025 0.0
C292 C 0.01345 0.71598 0.28026 0.0
C293 C 0.08367 0.78536 0.28805 0.0
C294 C 0.16076 0.7969 0.277 0.0
C295 C 0.16585 0.74104 0.25807 0.0
C296 C 0.02117 0.66123 0.26169 0.0
H297 H 0.22588 0.7527 0.24933 0.0
H298 H 0.96561 0.60889 0.25622 0.0
H299 H 0.10333 0.59275 0.15055 0.0
H300 H 0.11373 0.44587 0.22737 0.0
C301 C 0.30322 0.69217 0.20814 0.0
C302 C 0.10151 0.74842 0.16824 0.0
C303 C 0.105 0.47971 0.28704 0.0
C304 C 0.90647 0.47841 0.22021 0.0
H305 H 0.2667 0.86082 0.13954 0.0
H306 H 0.37715 0.82602 0.15949 0.0
H307 H 0.38149 0.64815 0.25416 0.0
H308 H 0.27225 0.53865 0.29937 0.0
H309 H 0.93923 0.34693 0.30589 0.0
H310 H 0.83148 0.342 0.2681 0.0
H311 H 0.82927 0.53678 0.17855 0.0
H312 H 0.93492 0.68838 0.15261 0.0
H313 H 0.08658 0.48956 0.11534 0.0
H314 H 0.09772 0.34199 0.19383 0.0
H315 H 0.95261 0.70357 0.28863 0.0
H316 H 0.21691 0.84981 0.28229 0.0
C317 C 0.44137 0.0132 0.60337 0.0
C318 C 0.38378 0.93815 0.61983 0.0
C319 C 0.40222 0.88114 0.60996 0.0
C320 C 0.46999 0.9244 0.58827 0.0
N321 N 0.49575 0.00522 0.58384 0.0
Co322 Co 0.59258 0.08965 0.55505 0.0
N323 N 0.59802 0.00389 0.5316 0.0
C324 C 0.55677 0.92236 0.54068 0.0
C325 C 0.57121 0.87749 0.51987 0.0
C326 C 0.62664 0.9342 0.49644 0.0
C327 C 0.64384 0.01093 0.50458 0.0
N328 N 0.69036 0.17424 0.52641 0.0
C329 C 0.73106 0.16652 0.50062 0.0
C330 C 0.80066 0.24137 0.48961 0.0
C331 C 0.80445 0.29717 0.50936 0.0
C332 C 0.7375 0.25376 0.53136 0.0
N333 N 0.58588 0.17429 0.5787 0.0
C334 C 0.64502 0.25367 0.57777 0.0
C335 C 0.62155 0.29844 0.5953 0.0
C336 C 0.54276 0.24377 0.60821 0.0
C337 C 0.52272 0.16812 0.59806 0.0
N338 N 0.66734 0.08512 0.58426 0.0
C339 C 0.78743 0.10315 0.624 0.0
C340 C 0.71435 0.09889 0.63602 0.0
C341 C 0.65522 0.08988 0.6158 0.0
C342 C 0.79689 0.09408 0.59206 0.0
C343 C 0.73635 0.08459 0.57281 0.0
N344 N 0.51884 0.0965 0.52594 0.0
C345 C 0.47732 0.17982 0.49599 0.0
C346 C 0.40796 0.10967 0.48814 0.0
C347 C 0.39632 0.0325 0.49915 0.0
C348 C 0.45207 0.02726 0.51809 0.0
C349 C 0.53197 0.17196 0.51456 0.0
H350 H 0.44034 0.96718 0.52679 0.0
H351 H 0.58432 0.22748 0.52005 0.0
H352 H 0.60073 0.08904 0.62556 0.0
H353 H 0.74709 0.07891 0.54846 0.0
C354 C 0.50104 0.88956 0.56777 0.0
C355 C 0.44502 0.09106 0.60824 0.0
C356 C 0.71339 0.08807 0.48893 0.0
C357 C 0.71467 0.28638 0.55591 0.0
H358 H 0.33355 0.92573 0.63712 0.0
H359 H 0.36807 0.81547 0.61676 0.0
H360 H 0.54481 0.81145 0.52156 0.0
H361 H 0.65428 0.92091 0.4764 0.0
H362 H 0.84613 0.25393 0.47015 0.0
H363 H 0.85106 0.36154 0.50804 0.0
H364 H 0.65595 0.36386 0.5972 0.0
H365 H 0.50451 0.25846 0.62311 0.0
H366 H 0.70386 0.10479 0.66067 0.0
H367 H 0.85094 0.09426 0.58184 0.0
H368 H 0.4898 0.24073 0.48766 0.0
H369 H 0.34342 0.97641 0.49381 0.0
C370 C 0.77147 0.65841 0.84229 0.0
C371 C 0.82999 0.64261 0.82846 0.0
C372 C 0.8095 0.56521 0.84055 0.0
C373 C 0.73971 0.53801 0.86084 0.0
N374 N 0.7146 0.5932 0.86231 0.0
Co375 Co 0.6156 0.57759 0.88832 0.0
N376 N 0.60627 0.48229 0.91516 0.0
C377 C 0.6475 0.44259 0.90903 0.0
C378 C 0.63 0.37991 0.9317 0.0
C379 C 0.57257 0.37836 0.95321 0.0
C380 C 0.5574 0.43978 0.94217 0.0
N381 N 0.51556 0.5611 0.91411 0.0
C382 C 0.47177 0.50901 0.94043 0.0
C383 C 0.40192 0.51346 0.94884 0.0
C384 C 0.40114 0.56878 0.92687 0.0
C385 C 0.47004 0.59494 0.90623 0.0
N386 N 0.62634 0.6732 0.8614 0.0
C387 C 0.56824 0.69423 0.85951 0.0
C388 C 0.59447 0.76544 0.84018 0.0
C389 C 0.67404 0.79075 0.82908 0.0
C390 C 0.69176 0.73285 0.84206 0.0
N391 N 0.54397 0.50261 0.85928 0.0
C392 C 0.42833 0.40639 0.81899 0.0
C393 C 0.50265 0.47699 0.80687 0.0
C394 C 0.55954 0.52413 0.82737 0.0
C395 C 0.4154 0.38311 0.85146 0.0
C396 C 0.47375 0.43134 0.87098 0.0
N397 N 0.68625 0.65381 0.91717 0.0
C398 C 0.72415 0.77344 0.94489 0.0
C399 C 0.79307 0.77221 0.95458 0.0
C400 C 0.80619 0.70891 0.94558 0.0
C401 C 0.75229 0.65058 0.92694 0.0
C402 C 0.6718 0.71401 0.92643 0.0
H403 H 0.76495 0.60377 0.91999 0.0
H404 H 0.62014 0.71787 0.91928 0.0
H405 H 0.61507 0.57923 0.81745 0.0
H406 H 0.46029 0.41135 0.8957 0.0
C407 C 0.70585 0.46897 0.88289 0.0
C408 C 0.76956 0.73405 0.8345 0.0
C409 C 0.48701 0.44585 0.95512 0.0
C410 C 0.49634 0.65441 0.88034 0.0
H411 H 0.88218 0.68283 0.81149 0.0
H412 H 0.8436 0.53409 0.83615 0.0
H413 H 0.65566 0.33988 0.93244 0.0
H414 H 0.54233 0.33444 0.97391 0.0
H415 H 0.3544 0.47801 0.96806 0.0
H416 H 0.35529 0.58706 0.92589 0.0
H417 H 0.56123 0.79742 0.83589 0.0
H418 H 0.71431 0.84592 0.81347 0.0
H419 H 0.51581 0.49707 0.78185 0.0
H420 H 0.36026 0.32774 0.86187 0.0
H421 H 0.7102 0.81986 0.95163 0.0
H422 H 0.85883 0.70538 0.95223 0.0
loop_
_geom_bond_atom_site_label_1
_geom_bond_atom_site_label_2
_geom_bond_distance
_geom_bond_site_symmetry_2
_ccdc_geom_bond_type
Li0 N17 1.993 . S
Li0 O60 1.956 . S
Li0 O61 1.970 . S
Li0 O62 1.961 . S
Li1 N25 1.990 . S
Li1 O60 1.970 . S
Li1 O61 1.956 . S
Li1 O63 1.961 . S
Li2 N47 1.990 1_545 S
Li2 O60 1.961 . S
Li2 O62 1.956 . S
Li2 O63 1.970 . S
Li3 N53 1.990 1_445 S
Li3 O61 1.961 . S
Li3 O62 1.970 . S
Li3 O63 1.956 . S
C4 C6 1.348 . S
C4 C7 1.356 . S
C4 O60 1.325 . S
N5 C8 1.314 . S
N5 C9 1.279 . S
C6 C4 1.348 . S
C6 C8 1.353 . S
C6 H64 0.929 . S
C7 C4 1.356 . S
C7 C9 1.358 . S
C7 H65 0.930 . S
C8 N5 1.314 . S
C8 C6 1.353 . S
C8 H66 0.930 . S
C9 N5 1.279 . S
C9 C7 1.358 . S
C9 H67 0.930 . S
C10 C13 1.348 1_554 S
C10 C14 1.356 . S
C10 O61 1.325 . S
C11 N12 1.279 . S
C11 C14 1.358 1_556 S
C11 H68 0.930 1_455 S
N12 C11 1.279 . S
N12 C15 1.314 . S
C13 C10 1.348 1_556 S
C13 C15 1.353 . S
C13 H69 0.929 . S
C14 C10 1.356 . S
C14 C11 1.358 1_554 S
C14 H70 0.930 1_455 S
C15 N12 1.314 . S
C15 C13 1.353 . S
C15 H71 0.930 . S
C16 N17 1.308 1_556 S
C16 C21 1.353 . S
C16 H22 0.930 . S
N17 Li0 1.993 . S
N17 C16 1.308 1_554 S
N17 C19 1.282 . S
C18 C19 1.358 1_556 S
C18 C20 1.356 . S
C18 H72 0.930 . S
C19 N17 1.282 . S
C19 C18 1.358 1_554 S
C19 H23 0.930 . S
C20 C18 1.356 . S
C20 C21 1.348 . S
C21 C16 1.353 . S
C21 C20 1.348 . S
C21 H73 0.929 . S
H22 C16 0.930 . S
H23 C19 0.930 . S
C24 N25 1.314 . S
C24 C26 1.353 . S
C24 H30 0.930 . S
N25 Li1 1.990 . S
N25 C24 1.314 . S
N25 C28 1.279 . S
C26 C24 1.353 . S
C26 C29 1.348 . S
C26 H74 0.929 1_455 S
C27 C28 1.358 . S
C27 C29 1.356 . S
C27 H75 0.930 . S
C28 N25 1.279 . S
C28 C27 1.358 . S
C28 H31 0.930 . S
C29 C26 1.348 . S
C29 C27 1.356 . S
H30 C24 0.930 . S
H31 C28 0.930 . S
C32 C34 1.348 1_554 S
C32 C35 1.356 . S
C32 O62 1.325 1_565 S
N33 C36 1.314 . S
N33 C37 1.279 . S
C34 C32 1.348 1_556 S
C34 C36 1.353 . S
C34 H76 0.930 . S
C35 C32 1.356 . S
C35 C37 1.358 1_554 S
C35 H77 0.930 1_565 S
C36 N33 1.314 . S
C36 C34 1.353 . S
C36 H78 0.930 . S
C37 N33 1.279 . S
C37 C35 1.358 1_556 S
C37 H79 0.930 . S
C38 C39 1.348 . S
C38 C40 1.356 . S
C38 O63 1.325 1_665 S
C39 C38 1.348 . S
C39 C41 1.353 . S
C39 H80 0.929 . S
C40 C38 1.356 . S
C40 C42 1.358 . S
C40 H81 0.930 1_565 S
C41 C39 1.353 . S
C41 N43 1.314 . S
C41 H82 0.930 . S
C42 C40 1.358 . S
C42 N43 1.279 . S
C42 H83 0.930 . S
N43 C41 1.314 . S
N43 C42 1.279 . S
C44 C46 1.353 . S
C44 N47 1.314 . S
C44 H50 0.927 1_565 S
C45 N47 1.279 . S
C45 C48 1.358 . S
C45 H51 0.930 . S
C46 C44 1.353 . S
C46 C49 1.348 . S
C46 H84 0.929 . S
N47 Li2 1.990 1_565 S
N47 C44 1.314 . S
N47 C45 1.279 . S
C48 C45 1.358 . S
C48 C49 1.356 . S
C48 H85 0.930 . S
C49 C46 1.348 . S
C49 C48 1.356 . S
H50 C44 0.927 1_545 S
H51 C45 0.930 . S
C52 N53 1.314 1_556 S
C52 C54 1.353 . S
C52 H58 0.930 1_665 S
N53 Li3 1.990 1_665 S
N53 C52 1.314 1_554 S
N53 C56 1.279 . S
C54 C52 1.353 . S
C54 C57 1.348 . S
C54 H86 0.929 . S
C55 C56 1.358 1_556 S
C55 C57 1.356 . S
C55 H87 0.930 1_556 S
C56 N53 1.279 . S
C56 C55 1.358 1_554 S
C56 H59 0.930 . S
C57 C54 1.348 . S
C57 C55 1.356 . S
H58 C52 0.930 1_445 S
H59 C56 0.930 . S
O60 Li0 1.956 . S
O60 Li1 1.970 . S
O60 Li2 1.961 . S
O60 C4 1.325 . S
O61 Li0 1.970 . S
O61 Li1 1.956 . S
O61 Li3 1.961 . S
O61 C10 1.325 . S
O62 Li0 1.961 . S
O62 Li2 1.956 . S
O62 Li3 1.970 . S
O62 C32 1.325 1_545 S
O63 Li1 1.961 . S
O63 Li2 1.970 . S
O63 Li3 1.956 . S
O63 C38 1.325 1_445 S
H64 C6 0.929 . S
H65 C7 0.930 . S
H66 C8 0.930 . S
H67 C9 0.930 . S
H68 C11 0.930 1_655 S
H69 C13 0.929 . S
H70 C14 0.930 1_655 S
H71 C15 0.930 . S
H72 C18 0.930 . S
H73 C21 0.929 . S
H74 C26 0.929 1_655 S
H75 C27 0.930 . S
H76 C34 0.930 . S
H77 C35 0.930 1_545 S
H78 C36 0.930 . S
H79 C37 0.930 . S
H80 C39 0.929 . S
H81 C40 0.930 1_545 S
H82 C41 0.930 . S
H83 C42 0.930 . S
H84 C46 0.929 . S
H85 C48 0.930 . S
H86 C54 0.929 . S
H87 C55 0.930 1_554 S
Li88 N105 1.990 1_545 S
Li88 O148 1.956 . S
Li88 O149 1.970 . S
Li88 O150 1.961 1_455 S
Li89 N113 1.990 . S
Li89 O148 1.970 . S
Li89 O149 1.956 . S
Li89 O151 1.961 . S
Li90 N135 1.990 . S
Li90 O148 1.961 1_655 S
Li90 O150 1.956 . S
Li90 O151 1.970 1_655 S
Li91 N141 1.990 . S
Li91 O149 1.961 . S
Li91 O150 1.970 1_455 S
Li91 O151 1.956 . S
C92 C94 1.348 . S
C92 C95 1.356 1_455 S
C92 O148 1.325 1_565 S
N93 C96 1.314 1_655 S
N93 C97 1.279 . S
C94 C92 1.348 . S
C94 C96 1.353 . S
C94 H152 0.929 . S
C95 C92 1.356 1_655 S
C95 C97 1.358 . S
C95 H153 0.930 . S
C96 N93 1.314 1_455 S
C96 C94 1.353 . S
C96 H154 0.930 . S
C97 N93 1.279 . S
C97 C95 1.358 . S
C97 H155 0.930 . S
C98 C101 1.348 . S
C98 C102 1.356 . S
C98 O149 1.325 . S
C99 N100 1.279 . S
C99 C102 1.358 . S
C99 H156 0.930 . S
N100 C99 1.279 . S
N100 C103 1.314 . S
C101 C98 1.348 . S
C101 C103 1.353 . S
C101 H157 0.929 . S
C102 C98 1.356 . S
C102 C99 1.358 . S
C102 H158 0.930 . S
C103 N100 1.314 . S
C103 C101 1.353 . S
C103 H159 0.930 . S
C104 N105 1.314 1_655 S
C104 C109 1.353 . S
C104 H110 0.930 . S
N105 Li88 1.990 1_565 S
N105 C104 1.314 1_455 S
N105 C107 1.279 . S
C106 C107 1.358 1_655 S
C106 C108 1.356 . S
C106 H160 0.930 . S
C107 N105 1.279 . S
C107 C106 1.358 1_455 S
C107 H111 0.930 . S
C108 C106 1.356 . S
C108 C109 1.348 . S
C109 C104 1.353 . S
C109 C108 1.348 . S
C109 H161 0.929 . S
H110 C104 0.930 . S
H111 C107 0.930 . S
C112 N113 1.314 . S
C112 C114 1.353 . S
C112 H118 0.930 . S
N113 Li89 1.990 . S
N113 C112 1.314 . S
N113 C116 1.279 . S
C114 C112 1.353 . S
C114 C117 1.348 . S
C114 H162 0.929 . S
C115 C116 1.358 . S
C115 C117 1.356 . S
C115 H163 0.930 . S
C116 N113 1.279 . S
C116 C115 1.358 . S
C116 H119 0.930 . S
C117 C114 1.348 . S
C117 C115 1.356 . S
H118 C112 0.930 . S
H119 C116 0.930 . S
C120 C122 1.348 . S
C120 C123 1.356 . S
C120 O150 1.325 . S
N121 C124 1.314 . S
N121 C125 1.279 1_545 S
C122 C120 1.348 . S
C122 C124 1.353 . S
C122 H164 0.929 . S
C123 C120 1.356 . S
C123 C125 1.358 1_545 S
C123 H165 0.930 1_545 S
C124 N121 1.314 . S
C124 C122 1.353 . S
C124 H166 0.930 . S
C125 N121 1.279 1_565 S
C125 C123 1.358 1_565 S
C125 H167 0.930 . S
C126 C127 1.348 . S
C126 C128 1.356 . S
C126 O151 1.325 . S
C127 C126 1.348 . S
C127 C129 1.353 . S
C127 H168 0.929 1_455 S
C128 C126 1.356 . S
C128 C130 1.358 . S
C128 H169 0.930 . S
C129 C127 1.353 . S
C129 N131 1.314 . S
C129 H170 0.930 . S
C130 C128 1.358 . S
C130 N131 1.279 . S
C130 H171 0.930 . S
N131 C129 1.314 . S
N131 C130 1.279 . S
C132 C134 1.353 . S
C132 N135 1.314 . S
C132 H138 0.930 . S
C133 N135 1.279 . S
C133 C136 1.358 . S
C133 H139 0.930 . S
C134 C132 1.353 . S
C134 C137 1.348 . S
C134 H172 0.929 . S
N135 Li90 1.990 . S
N135 C132 1.314 . S
N135 C133 1.279 . S
C136 C133 1.358 . S
C136 C137 1.356 . S
C136 H173 0.930 . S
C137 C134 1.348 . S
C137 C136 1.356 . S
H138 C132 0.930 . S
H139 C133 0.930 . S
C140 N141 1.314 . S
C140 C142 1.353 . S
C140 H146 0.930 . S
N141 Li91 1.990 . S
N141 C140 1.314 . S
N141 C144 1.279 . S
C142 C140 1.353 . S
C142 C145 1.348 . S
C142 H174 0.929 . S
C143 C144 1.358 . S
C143 C145 1.356 . S
C143 H175 0.930 . S
C144 N141 1.279 . S
C144 C143 1.358 . S
C144 H147 0.930 . S
C145 C142 1.348 . S
C145 C143 1.356 . S
H146 C140 0.930 . S
H147 C144 0.930 . S
O148 Li88 1.956 . S
O148 Li89 1.970 . S
O148 Li90 1.961 1_455 S
O148 C92 1.325 1_545 S
O149 Li88 1.970 . S
O149 Li89 1.956 . S
O149 Li91 1.961 . S
O149 C98 1.325 . S
O150 Li88 1.961 1_655 S
O150 Li90 1.956 . S
O150 Li91 1.970 1_655 S
O150 C120 1.325 . S
O151 Li89 1.961 . S
O151 Li90 1.970 1_455 S
O151 Li91 1.956 . S
O151 C126 1.325 . S
H152 C94 0.929 . S
H153 C95 0.930 . S
H154 C96 0.930 . S
H155 C97 0.930 . S
H156 C99 0.930 . S
H157 C101 0.929 . S
H158 C102 0.930 . S
H159 C103 0.930 . S
H160 C106 0.930 . S
H161 C109 0.929 . S
H162 C114 0.929 . S
H163 C115 0.930 . S
H164 C122 0.929 . S
H165 C123 0.930 1_565 S
H166 C124 0.930 . S
H167 C125 0.930 . S
H168 C127 0.929 1_655 S
H169 C128 0.930 . S
H170 C129 0.930 . S
H171 C130 0.930 . S
H172 C134 0.929 . S
H173 C136 0.930 . S
H174 C142 0.929 . S
H175 C143 0.930 . S
Li176 N193 1.990 . S
Li176 O236 1.956 . S
Li176 O237 1.970 . S
Li176 O238 1.961 1_545 S
Li177 N201 1.990 . S
Li177 O236 1.970 . S
Li177 O237 1.956 . S
Li177 O239 1.961 . S
Li178 N223 1.990 1_455 S
Li178 O236 1.961 1_565 S
Li178 O238 1.956 . S
Li178 O239 1.970 1_565 S
Li179 N229 1.990 1_455 S
Li179 O237 1.961 . S
Li179 O238 1.970 1_545 S
Li179 O239 1.956 . S
C180 C182 1.348 . S
C180 C183 1.356 1_545 S
C180 O236 1.325 . S
N181 C184 1.314 1_565 S
N181 C185 1.279 . S
C182 C180 1.348 . S
C182 C184 1.353 . S
C182 H240 0.929 . S
C183 C180 1.356 1_565 S
C183 C185 1.358 . S
C183 H241 0.930 . S
C184 N181 1.314 1_545 S
C184 C182 1.353 . S
C184 H242 0.930 . S
C185 N181 1.279 . S
C185 C183 1.358 . S
C185 H243 0.930 . S
C186 C189 1.348 . S
C186 C190 1.356 . S
C186 O237 1.325 . S
C187 N188 1.279 . S
C187 C190 1.358 . S
C187 H244 0.930 . S
N188 C187 1.279 . S
N188 C191 1.314 . S
C189 C186 1.348 . S
C189 C191 1.353 . S
C189 H245 0.929 . S
C190 C186 1.356 . S
C190 C187 1.358 . S
C190 H246 0.930 . S
C191 N188 1.314 . S
C191 C189 1.353 . S
C191 H247 0.930 . S
C192 N193 1.314 . S
C192 C197 1.353 . S
C192 H198 0.930 . S
N193 Li176 1.990 . S
N193 C192 1.314 . S
N193 C195 1.279 . S
C194 C195 1.358 . S
C194 C196 1.356 . S
C194 H248 0.930 . S
C195 N193 1.279 . S
C195 C194 1.358 . S
C195 H199 0.930 . S
C196 C194 1.356 . S
C196 C197 1.348 . S
C197 C192 1.353 . S
C197 C196 1.348 . S
C197 H249 0.929 1_545 S
H198 C192 0.930 . S
H199 C195 0.930 . S
C200 N201 1.314 . S
C200 C202 1.353 . S
C200 H206 0.930 . S
N201 Li177 1.990 . S
N201 C200 1.314 . S
N201 C204 1.279 . S
C202 C200 1.353 . S
C202 C205 1.348 . S
C202 H250 0.929 . S
C203 C204 1.358 . S
C203 C205 1.356 . S
C203 H251 0.930 . S
C204 N201 1.279 . S
C204 C203 1.358 . S
C204 H207 0.930 . S
C205 C202 1.348 . S
C205 C203 1.356 . S
H206 C200 0.930 . S
H207 C204 0.930 . S
C208 C210 1.348 1_455 S
C208 C211 1.356 . S
C208 O238 1.325 . S
N209 C212 1.314 . S
N209 C213 1.279 . S
C210 C208 1.348 1_655 S
C210 C212 1.353 . S
C210 H252 0.929 . S
C211 C208 1.356 . S
C211 C213 1.358 1_455 S
C211 H253 0.930 . S
C212 N209 1.314 . S
C212 C210 1.353 . S
C212 H254 0.930 . S
C213 N209 1.279 . S
C213 C211 1.358 1_655 S
C213 H255 0.930 . S
C214 C215 1.348 . S
C214 C216 1.356 1_655 S
C214 O239 1.325 1_655 S
C215 C214 1.348 . S
C215 C217 1.353 . S
C215 H256 0.929 1_545 S
C216 C214 1.356 1_455 S
C216 C218 1.358 1_455 S
C216 H257 0.930 . S
C217 C215 1.353 . S
C217 N219 1.314 . S
C217 H258 0.930 . S
C218 C216 1.358 1_655 S
C218 N219 1.279 . S
C218 H259 0.930 . S
N219 C217 1.314 . S
N219 C218 1.279 . S
C220 C222 1.353 . S
C220 N223 1.314 . S
C220 H226 0.930 1_655 S
C221 N223 1.279 . S
C221 C224 1.358 . S
C221 H227 0.930 . S
C222 C220 1.353 . S
C222 C225 1.348 . S
C222 H260 0.929 . S
N223 Li178 1.990 1_655 S
N223 C220 1.314 . S
N223 C221 1.279 . S
C224 C221 1.358 . S
C224 C225 1.356 . S
C224 H261 0.930 . S
C225 C222 1.348 . S
C225 C224 1.356 . S
H226 C220 0.930 1_455 S
H227 C221 0.930 . S
C228 N229 1.314 1_455 S
C228 C230 1.353 1_455 S
C228 H234 0.930 . S
N229 Li179 1.990 1_655 S
N229 C228 1.314 1_655 S
N229 C232 1.279 . S
C230 C228 1.353 1_655 S
C230 C233 1.348 . S
C230 H262 0.929 . S
C231 C232 1.358 . S
C231 C233 1.356 . S
C231 H263 0.930 . S
C232 N229 1.279 . S
C232 C231 1.358 . S
C232 H235 0.930 . S
C233 C230 1.348 . S
C233 C231 1.356 . S
H234 C228 0.930 . S
H235 C232 0.930 . S
O236 Li176 1.956 . S
O236 Li177 1.970 . S
O236 Li178 1.961 1_545 S
O236 C180 1.325 . S
O237 Li176 1.970 . S
O237 Li177 1.956 . S
O237 Li179 1.961 . S
O237 C186 1.325 . S
O238 Li176 1.961 1_565 S
O238 Li178 1.956 . S
O238 Li179 1.970 1_565 S
O238 C208 1.325 . S
O239 Li177 1.961 . S
O239 Li178 1.970 1_545 S
O239 Li179 1.956 . S
O239 C214 1.325 1_455 S
H240 C182 0.929 . S
H241 C183 0.930 . S
H242 C184 0.930 . S
H243 C185 0.930 . S
H244 C187 0.930 . S
H245 C189 0.929 . S
H246 C190 0.930 . S
H247 C191 0.930 . S
H248 C194 0.930 . S
H249 C197 0.929 1_565 S
H250 C202 0.929 . S
H251 C203 0.930 . S
H252 C210 0.929 . S
H253 C211 0.930 . S
H254 C212 0.930 . S
H255 C213 0.930 . S
H256 C215 0.929 1_565 S
H257 C216 0.930 . S
H258 C217 0.930 . S
H259 C218 0.930 . S
H260 C222 0.929 . S
H261 C224 0.930 . S
H262 C230 0.929 . S
H263 C231 0.930 . S
C264 C265 1.443 . S
C264 N268 1.376 . S
C264 C302 1.389 . S
C265 C264 1.443 . S
C265 C266 1.340 . S
C265 H305 0.951 . S
C266 C265 1.340 . S
C266 C267 1.439 . S
C266 H306 0.950 . S
C267 C266 1.439 . S
C267 N268 1.374 . S
C267 C301 1.395 . S
N268 C264 1.376 . S
N268 C267 1.374 . S
N268 Co269 2.008 . S
Co269 N268 2.008 . S
Co269 N270 1.995 . S
Co269 N275 2.008 1_455 S
Co269 N280 1.995 1_455 S
Co269 N285 2.282 . S
Co269 N291 2.282 . S
N270 Co269 1.995 . S
N270 C271 1.376 . S
N270 C274 1.383 . S
C271 N270 1.376 . S
C271 C272 1.446 . S
C271 C301 1.391 . S
C272 C271 1.446 . S
C272 C273 1.339 . S
C272 H307 0.949 . S
C273 C272 1.339 . S
C273 C274 1.439 . S
C273 H308 0.950 . S
C274 N270 1.383 . S
C274 C273 1.439 . S
C274 C303 1.392 . S
N275 Co269 2.008 1_655 S
N275 C276 1.376 . S
N275 C279 1.374 . S
C276 N275 1.376 . S
C276 C277 1.443 . S
C276 C303 1.389 1_655 S
C277 C276 1.443 . S
C277 C278 1.340 . S
C277 H309 0.951 . S
C278 C277 1.340 . S
C278 C279 1.439 . S
C278 H310 0.950 . S
C279 N275 1.374 . S
C279 C278 1.439 . S
C279 C304 1.395 . S
N280 Co269 1.995 1_655 S
N280 C281 1.376 . S
N280 C284 1.383 . S
C281 N280 1.376 . S
C281 C282 1.446 . S
C281 C304 1.391 . S
C282 C281 1.446 . S
C282 C283 1.339 . S
C282 H311 0.949 . S
C283 C282 1.339 . S
C283 C284 1.439 . S
C283 H312 0.950 . S
C284 N280 1.383 . S
C284 C283 1.439 . S
C284 C302 1.392 1_655 S
N285 Co269 2.282 . S
N285 C288 1.332 . S
N285 C290 1.332 . S
C286 C287 1.379 1_455 S
C286 C289 1.388 . S
C287 C286 1.379 1_655 S
C287 C288 1.384 1_655 S
C287 H313 0.955 . S
C288 N285 1.332 . S
C288 C287 1.384 1_455 S
C288 H299 0.952 1_455 S
C289 C286 1.388 . S
C289 C290 1.382 . S
C289 H314 0.950 . S
C290 N285 1.332 . S
C290 C289 1.382 . S
C290 H300 0.948 . S
N291 Co269 2.282 . S
N291 C295 1.332 . S
N291 C296 1.332 1_455 S
C292 C293 1.388 1_655 S
C292 C296 1.382 . S
C292 H315 0.950 . S
C293 C292 1.388 1_455 S
C293 C294 1.386 . S
C294 C293 1.386 . S
C294 C295 1.382 . S
C294 H316 0.950 . S
C295 N291 1.332 . S
C295 C294 1.382 . S
C295 H297 0.952 . S
C296 N291 1.332 1_655 S
C296 C292 1.382 . S
C296 H298 0.948 . S
H297 C295 0.952 . S
H298 C296 0.948 . S
H299 C288 0.952 1_655 S
H300 C290 0.948 . S
C301 C267 1.395 . S
C301 C271 1.391 . S
C302 C264 1.389 . S
C302 C284 1.392 1_455 S
C303 C274 1.392 . S
C303 C276 1.389 1_455 S
C304 C279 1.395 . S
C304 C281 1.391 . S
H305 C265 0.951 . S
H306 C266 0.950 . S
H307 C272 0.949 . S
H308 C273 0.950 . S
H309 C277 0.951 . S
H310 C278 0.950 . S
H311 C282 0.949 . S
H312 C283 0.950 . S
H313 C287 0.955 . S
H314 C289 0.950 . S
H315 C292 0.950 . S
H316 C294 0.950 . S
C317 C318 1.443 1_545 S
C317 N321 1.376 . S
C317 C355 1.389 . S
C318 C317 1.443 1_565 S
C318 C319 1.340 . S
C318 H358 0.951 . S
C319 C318 1.340 . S
C319 C320 1.439 . S
C319 H359 0.950 . S
C320 C319 1.439 . S
C320 N321 1.374 1_565 S
C320 C354 1.395 . S
N321 C317 1.376 . S
N321 C320 1.374 1_545 S
N321 Co322 2.008 . S
Co322 N321 2.008 . S
Co322 N323 1.995 . S
Co322 N328 2.008 . S
Co322 N333 1.995 . S
Co322 N338 2.282 . S
Co322 N344 2.282 . S
N323 Co322 1.995 . S
N323 C324 1.376 1_545 S
N323 C327 1.383 . S
C324 N323 1.376 1_565 S
C324 C325 1.446 . S
C324 C354 1.391 . S
C325 C324 1.446 . S
C325 C326 1.339 . S
C325 H360 0.949 . S
C326 C325 1.339 . S
C326 C327 1.439 1_565 S
C326 H361 0.950 . S
C327 N323 1.383 . S
C327 C326 1.439 1_545 S
C327 C356 1.392 . S
N328 Co322 2.008 . S
N328 C329 1.376 . S
N328 C332 1.374 . S
C329 N328 1.376 . S
C329 C330 1.443 . S
C329 C356 1.389 . S
C330 C329 1.443 . S
C330 C331 1.340 . S
C330 H362 0.951 . S
C331 C330 1.340 . S
C331 C332 1.439 . S
C331 H363 0.950 . S
C332 N328 1.374 . S
C332 C331 1.439 . S
C332 C357 1.395 . S
N333 Co322 1.995 . S
N333 C334 1.376 . S
N333 C337 1.383 . S
C334 N333 1.376 . S
C334 C335 1.446 . S
C334 C357 1.391 . S
C335 C334 1.446 . S
C335 C336 1.339 . S
C335 H364 0.949 . S
C336 C335 1.339 . S
C336 C337 1.439 . S
C336 H365 0.950 . S
C337 N333 1.383 . S
C337 C336 1.439 . S
C337 C355 1.392 . S
N338 Co322 2.282 . S
N338 C341 1.332 . S
N338 C343 1.332 . S
C339 C340 1.386 . S
C339 C342 1.388 . S
C340 C339 1.386 . S
C340 C341 1.382 . S
C340 H366 0.950 . S
C341 N338 1.332 . S
C341 C340 1.382 . S
C341 H352 0.952 . S
C342 C339 1.388 . S
C342 C343 1.382 . S
C342 H367 0.950 . S
C343 N338 1.332 . S
C343 C342 1.382 . S
C343 H353 0.948 . S
N344 Co322 2.282 . S
N344 C348 1.332 . S
N344 C349 1.332 . S
C345 C346 1.388 . S
C345 C349 1.382 . S
C345 H368 0.950 . S
C346 C345 1.388 . S
C346 C347 1.386 . S
C347 C346 1.386 . S
C347 C348 1.382 . S
C347 H369 0.950 . S
C348 N344 1.332 . S
C348 C347 1.382 . S
C348 H350 0.952 . S
C349 N344 1.332 . S
C349 C345 1.382 . S
C349 H351 0.948 . S
H350 C348 0.952 . S
H351 C349 0.948 . S
H352 C341 0.952 . S
H353 C343 0.948 . S
C354 C320 1.395 . S
C354 C324 1.391 . S
C355 C317 1.389 . S
C355 C337 1.392 . S
C356 C327 1.392 . S
C356 C329 1.389 . S
C357 C332 1.395 . S
C357 C334 1.391 . S
H358 C318 0.951 . S
H359 C319 0.950 . S
H360 C325 0.949 . S
H361 C326 0.950 . S
H362 C330 0.951 . S
H363 C331 0.950 . S
H364 C335 0.949 . S
H365 C336 0.950 . S
H366 C340 0.950 . S
H367 C342 0.950 . S
H368 C345 0.950 . S
H369 C347 0.950 . S
C370 C371 1.443 . S
C370 N374 1.376 . S
C370 C408 1.389 . S
C371 C370 1.443 . S
C371 C372 1.340 . S
C371 H411 0.951 . S
C372 C371 1.340 . S
C372 C373 1.439 . S
C372 H412 0.950 . S
C373 C372 1.439 . S
C373 N374 1.374 . S
C373 C407 1.395 . S
N374 C370 1.376 . S
N374 C373 1.374 . S
N374 Co375 2.008 . S
Co375 N374 2.008 . S
Co375 N376 1.995 . S
Co375 N381 2.008 . S
Co375 N386 1.995 . S
Co375 N391 2.282 . S
Co375 N397 2.282 . S
N376 Co375 1.995 . S
N376 C377 1.376 . S
N376 C380 1.383 . S
C377 N376 1.376 . S
C377 C378 1.446 . S
C377 C407 1.391 . S
C378 C377 1.446 . S
C378 C379 1.339 . S
C378 H413 0.949 . S
C379 C378 1.339 . S
C379 C380 1.439 . S
C379 H414 0.950 . S
C380 N376 1.383 . S
C380 C379 1.439 . S
C380 C409 1.392 . S
N381 Co375 2.008 . S
N381 C382 1.376 . S
N381 C385 1.374 . S
C382 N381 1.376 . S
C382 C383 1.443 . S
C382 C409 1.389 . S
C383 C382 1.443 . S
C383 C384 1.340 . S
C383 H415 0.951 . S
C384 C383 1.340 . S
C384 C385 1.439 . S
C384 H416 0.950 . S
C385 N381 1.374 . S
C385 C384 1.439 . S
C385 C410 1.395 . S
N386 Co375 1.995 . S
N386 C387 1.376 . S
N386 C390 1.383 . S
C387 N386 1.376 . S
C387 C388 1.446 . S
C387 C410 1.391 . S
C388 C387 1.446 . S
C388 C389 1.339 . S
C388 H417 0.949 . S
C389 C388 1.339 . S
C389 C390 1.439 . S
C389 H418 0.950 . S
C390 N386 1.383 . S
C390 C389 1.439 . S
C390 C408 1.392 . S
N391 Co375 2.282 . S
N391 C394 1.332 . S
N391 C396 1.332 . S
C392 C393 1.386 . S
C392 C395 1.388 . S
C393 C392 1.386 . S
C393 C394 1.382 . S
C393 H419 0.950 . S
C394 N391 1.332 . S
C394 C393 1.382 . S
C394 H405 0.952 . S
C395 C392 1.388 . S
C395 C396 1.382 . S
C395 H420 0.950 . S
C396 N391 1.332 . S
C396 C395 1.382 . S
C396 H406 0.948 . S
N397 Co375 2.282 . S
N397 C401 1.332 . S
N397 C402 1.332 . S
C398 C399 1.388 . S
C398 C402 1.382 . S
C398 H421 0.950 . S
C399 C398 1.388 . S
C399 C400 1.386 . S
C400 C399 1.386 . S
C400 C401 1.382 . S
C400 H422 0.950 . S
C401 N397 1.332 . S
C401 C400 1.382 . S
C401 H403 0.952 . S
C402 N397 1.332 . S
C402 C398 1.382 . S
C402 H404 0.948 . S
H403 C401 0.952 . S
H404 C402 0.948 . S
H405 C394 0.952 . S
H406 C396 0.948 . S
C407 C373 1.395 . S
C407 C377 1.391 . S
C408 C370 1.389 . S
C408 C390 1.392 . S
C409 C380 1.392 . S
C409 C382 1.389 . S
C410 C385 1.395 . S
C410 C387 1.391 . S
H411 C371 0.951 . S
H412 C372 0.950 . S
H413 C378 0.949 . S
H414 C379 0.950 . S
H415 C383 0.951 . S
H416 C384 0.950 . S
H417 C388 0.949 . S
H418 C389 0.950 . S
H419 C393 0.950 . S
H420 C395 0.950 . S
H421 C398 0.950 . S
H422 C400 0.950 . S
C286 C29 1.707 . S
C137 C356 2.235 . S
C225 C408 2.217 . S
C49 C302 2.309 . S
C346 C117 1.779 . S
C205 C392 1.783 . S
C339 C233 1.707 . S
C57 C399 1.767 . S
C293 C108 1.779 1_455 S
C355 C196 2.308 . S
C409 C20 2.242 . S
C145 C303 2.235 . S
