# Generated by pormake.
# Topology nia, (6,6)-cn, num edge types: 1
# Building blocks:
#     Node 0, Type 0, BuildingBlock: BETFAJ_clean_sbu_0, # of connection points: 6
#     Node 1, Type 0, BuildingBlock: BETFAJ_clean_sbu_0, # of connection points: 6
#     Node 2, Type 1, BuildingBlock: MIDCAF_clean_sbu_0, # of connection points: 6
#     Node 3, Type 1, BuildingBlock: MIDCAF_clean_sbu_0, # of connection points: 6
#     Edge 4, Type (0, 1), BuildingBlock: UVAHIK_clean_linker_0, # of connection points: 2
#     Edge 5, Type (0, 1), BuildingBlock: UVAHIK_clean_linker_0, # of connection points: 2
#     Edge 6, Type (0, 1), BuildingBlock: UVAHIK_clean_linker_0, # of connection points: 2
#     Edge 7, Type (0, 1), BuildingBlock: UVAHIK_clean_linker_0, # of connection points: 2
#     Edge 8, Type (0, 1), BuildingBlock: UVAHIK_clean_linker_0, # of connection points: 2
#     Edge 9, Type (0, 1), BuildingBlock: UVAHIK_clean_linker_0, # of connection points: 2
#     Edge 10, Type (0, 1), BuildingBlock: UVAHIK_clean_linker_0, # of connection points: 2
#     Edge 11, Type (0, 1), BuildingBlock: UVAHIK_clean_linker_0, # of connection points: 2
#     Edge 12, Type (0, 1), BuildingBlock: UVAHIK_clean_linker_0, # of connection points: 2
#     Edge 13, Type (0, 1), BuildingBlock: UVAHIK_clean_linker_0, # of connection points: 2
#     Edge 14, Type (0, 1), BuildingBlock: UVAHIK_clean_linker_0, # of connection points: 2
#     Edge 15, Type (0, 1), BuildingBlock: UVAHIK_clean_linker_0, # of connection points: 2
# Relax obj value: 0.294
# Max RMSD: 0.261
# Mean RMSD: 0.239
data_MOF--net-nia--node1-BETFAJ_clean_sbu_0--node2-MIDCAF_clean_sbu_0--edge1-UVAHIK_clean_linker_0
_symmetry_space_group_name_H-M    P1
_symmetry_Int_Tables_number       1
_symmetry_cell_setting            triclinic
loop_
_symmetry_equiv_pos_as_xyz
'x, y, z'
_cell_length_a     31.865955
_cell_length_b     34.808639
_cell_length_c     43.047732
_cell_angle_alpha  76.211835
_cell_angle_beta   99.916873
_cell_angle_gamma 127.16405
loop_
_atom_site_label
_atom_site_type_symbol
_atom_site_fract_x
_atom_site_fract_y
_atom_site_fract_z
_atom_type_partial_charge
Sm0 Sm 0.0742 0.05374 0.02498 0.0
Sm1 Sm 0.98862 0.95108 0.99604 0.0
C2 C 0.14924 0.14504 0.03034 0.0
C3 C 0.14217 0.18088 0.03522 0.0
C4 C 0.18402 0.23061 0.03244 0.0
C5 C 0.17563 0.26394 0.03701 0.0
C6 C 0.12545 0.24753 0.04465 0.0
C7 C 0.08349 0.19787 0.04665 0.0
C8 C 0.09171 0.16489 0.04165 0.0
C9 C 0.98021 0.99428 0.05715 0.0
C10 C 0.97858 0.04252 0.97359 0.0
C11 C 0.91414 0.8623 0.98492 0.0
C12 C 0.91853 0.8296 0.9714 0.0
C13 C 0.92959 0.79821 0.99156 0.0
C14 C 0.94376 0.77442 0.97871 0.0
C15 C 0.94708 0.78153 0.94546 0.0
C16 C 0.93305 0.81059 0.92526 0.0
C17 C 0.91869 0.83418 0.93806 0.0
C18 C 0.08343 0.01168 0.96423 0.0
C19 C 0.08031 0.96065 0.05066 0.0
O20 O 0.13083 0.13063 1.00251 0.0
O21 O 0.13596 0.10886 0.05447 0.0
O22 O 0.99227 0.98625 0.03437 0.0
O23 O 0.02039 0.03607 0.06448 0.0
O24 O 0.02614 0.07215 0.98635 0.0
O25 O 0.95388 0.9946 0.97717 0.0
O26 O 0.93622 0.87126 0.01351 0.0
O27 O 0.92295 0.90147 0.96517 0.0
O28 O 0.07003 0.01818 0.98706 0.0
O29 O 0.04369 0.97019 0.95633 0.0
O30 O 0.03302 0.93162 0.03725 0.0
O31 O 0.10657 0.00888 0.04643 0.0
H32 H 0.22299 0.24348 0.02706 0.0
H33 H 0.20861 0.30217 0.03569 0.0
H34 H 0.04453 0.18457 0.05241 0.0
H35 H 0.05865 0.12675 0.04305 0.0
H36 H 0.92943 0.79358 0.01735 0.0
H37 H 0.95386 0.75181 0.99484 0.0
H38 H 0.93365 0.81545 0.89949 0.0
H39 H 0.9097 0.85751 0.92178 0.0
Sm40 Sm 0.99838 0.0246 0.52251 0.0
Sm41 Sm 0.06159 0.98535 0.50402 0.0
C42 C 0.96596 0.07691 0.52726 0.0
C43 C 0.94393 0.08377 0.55092 0.0
C44 C 0.94892 0.12747 0.54649 0.0
C45 C 0.92674 0.13449 0.56786 0.0
C46 C 0.89909 0.09782 0.5941 0.0
C47 C 0.89532 0.05441 0.59899 0.0
C48 C 0.91759 0.0474 0.57749 0.0
C49 C 0.96508 0.93275 0.55803 0.0
C50 C 0.95867 0.96814 0.46053 0.0
C51 C 0.09481 0.93365 0.49941 0.0
C52 C 0.11807 0.92705 0.47629 0.0
C53 C 0.15748 0.92027 0.48727 0.0
C54 C 0.17887 0.91155 0.46653 0.0
C55 C 0.16105 0.90915 0.4343 0.0
C56 C 0.1225 0.91739 0.42305 0.0
C57 C 0.10114 0.92631 0.4439 0.0
C58 C 0.09428 0.07672 0.46814 0.0
C59 C 0.10253 0.04332 0.56559 0.0
O60 O 0.93538 0.03498 0.51686 0.0
O61 O 0.01528 0.0925 0.53232 0.0
O62 O 0.99932 0.95901 0.53713 0.0
O63 O 0.94621 0.9559 0.56099 0.0
O64 O 0.9622 0.00121 0.47326 0.0
O65 O 0.98708 0.95119 0.47126 0.0
O66 O 0.12503 0.9752 0.51023 0.0
O67 O 0.04544 0.91796 0.4941 0.0
O68 O 0.06058 0.0508 0.48937 0.0
O69 O 0.11277 0.05337 0.46492 0.0
O70 O 0.09992 0.01096 0.55254 0.0
O71 O 0.07243 0.05859 0.55553 0.0
H72 H 0.96961 0.15607 0.52628 0.0
H73 H 0.9312 0.16869 0.56381 0.0
H74 H 0.87412 0.02548 0.61893 0.0
H75 H 0.9137 0.01348 0.58136 0.0
H76 H 0.17133 0.92114 0.51209 0.0
H77 H 0.20927 0.9064 0.47583 0.0
H78 H 0.10781 0.91558 0.39841 0.0
H79 H 0.07095 0.93184 0.43486 0.0
Zn80 Zn 0.38674 0.71713 0.16876 0.0
Zn81 Zn 0.39159 0.66381 0.30977 0.0
Zn82 Zn 0.37982 0.67529 0.24856 0.0
C83 C 0.49084 0.714 0.28636 0.0
C84 C 0.3217 0.56897 0.29953 0.0
O85 O 0.3454 0.71853 0.22866 0.0
O86 O 0.36442 0.75516 0.17736 0.0
C87 C 0.4836 0.73661 0.19899 0.0
O88 O 0.4641 0.71078 0.25982 0.0
O89 O 0.46825 0.69493 0.31271 0.0
O90 O 0.34406 0.59256 0.3224 0.0
O91 O 0.3299 0.59238 0.27028 0.0
O92 O 0.46173 0.744 0.1732 0.0
O93 O 0.45877 0.71357 0.22562 0.0
O94 O 0.32295 0.60242 0.23776 0.0
O95 O 0.34257 0.65116 0.19246 0.0
C96 C 0.31407 0.60865 0.20768 0.0
O97 O 0.35408 0.71406 0.26329 0.0
O98 O 0.36618 0.70118 0.31578 0.0
C99 C 0.34377 0.74654 0.2031 0.0
C100 C 0.35175 0.71949 0.29131 0.0
Zn101 Zn 0.69727 0.32507 0.83836 0.0
Zn102 Zn 0.67442 0.34401 0.71559 0.0
Zn103 Zn 0.68534 0.33473 0.77785 0.0
C104 C 0.73764 0.43926 0.72502 0.0
C105 C 0.57375 0.28913 0.7405 0.0
O106 O 0.71948 0.29201 0.79628 0.0
O107 O 0.70547 0.27128 0.84813 0.0
C108 C 0.77486 0.42224 0.8119 0.0
O109 O 0.73163 0.41605 0.75423 0.0
O110 O 0.71561 0.41557 0.70218 0.0
O111 O 0.59647 0.30439 0.71449 0.0
O112 O 0.60044 0.29788 0.76724 0.0
O113 O 0.76447 0.39171 0.83745 0.0
O114 O 0.74511 0.40907 0.78658 0.0
O115 O 0.60727 0.29828 0.80034 0.0
O116 O 0.63116 0.31072 0.85029 0.0
C117 C 0.59548 0.29526 0.82853 0.0
O118 O 0.7102 0.29482 0.76273 0.0
O119 O 0.70608 0.31201 0.70991 0.0
C120 C 0.72124 0.26881 0.82424 0.0
C121 C 0.71668 0.29145 0.73501 0.0
C122 C 0.1585 0.96667 0.0808 0.0
C123 C 0.10497 0.93786 0.07115 0.0
C124 C 0.18188 0.94496 0.09953 0.0
C125 C 0.16056 0.82387 0.1258 0.0
H126 H 0.27724 0.89481 0.18487 0.0
C127 C 0.26103 0.73894 0.20512 0.0
C128 C 0.31579 0.7686 0.20178 0.0
C129 C 0.2324 0.75859 0.19428 0.0
C130 C 0.24458 0.87448 0.16854 0.0
H131 H 0.03385 0.86349 0.07421 0.0
H132 H 0.0738 0.82593 0.10773 0.0
H133 H 0.23282 0.93062 0.15537 0.0
H134 H 0.38387 0.84206 0.18614 0.0
H135 H 0.33457 0.87673 0.1685 0.0
H136 H 0.17237 0.76757 0.13939 0.0
C137 C 0.09844 0.86521 0.10013 0.0
C138 C 0.2193 0.89519 0.15132 0.0
C139 C 0.07528 0.88686 0.08102 0.0
C140 C 0.34177 0.81867 0.18947 0.0
C141 C 0.31347 0.83844 0.17928 0.0
C142 C 0.18537 0.80289 0.1434 0.0
C143 C 0.15221 0.89385 0.10956 0.0
C144 C 0.1774 0.87058 0.12928 0.0
C145 C 0.25827 0.80833 0.18046 0.0
C146 C 0.22815 0.82824 0.16463 0.0
H147 H 0.18272 0.00604 0.07346 0.0
H148 H 0.22357 0.9684 0.10558 0.0
H149 H 0.12924 0.80393 0.10874 0.0
H150 H 0.23999 0.7 0.21384 0.0
H151 H 0.18988 0.73455 0.19563 0.0
C152 C 0.14956 0.10197 0.6048 0.0
C153 C 0.14139 0.06387 0.59241 0.0
C154 C 0.18815 0.12301 0.62891 0.0
C155 C 0.27397 0.10387 0.69042 0.0
H156 H 0.37015 0.24553 0.67528 0.0
C157 C 0.48991 0.2102 0.73302 0.0
C158 C 0.51612 0.25747 0.73944 0.0
C159 C 0.43653 0.18323 0.72401 0.0
C160 C 0.34302 0.20601 0.68046 0.0
H161 H 0.16648 0.01708 0.59659 0.0
H162 H 0.23377 0.0539 0.63835 0.0
H163 H 0.2908 0.20458 0.64138 0.0
H164 H 0.50774 0.31333 0.7432 0.0
H165 H 0.41352 0.26593 0.72753 0.0
H166 H 0.32724 0.10532 0.72882 0.0
C167 C 0.21009 0.0673 0.6296 0.0
C168 C 0.29754 0.18248 0.66089 0.0
C169 C 0.17172 0.04643 0.60541 0.0
C170 C 0.48778 0.27657 0.73863 0.0
C171 C 0.43418 0.24963 0.72941 0.0
C172 C 0.31935 0.1274 0.71007 0.0
C173 C 0.21927 0.10627 0.64135 0.0
C174 C 0.26334 0.1311 0.665 0.0
C175 C 0.40845 0.20333 0.72087 0.0
C176 C 0.35531 0.17871 0.70465 0.0
H177 H 0.1268 0.11624 0.59553 0.0
H178 H 0.19389 0.15264 0.63767 0.0
H179 H 0.24786 0.06426 0.69462 0.0
H180 H 0.51152 0.19526 0.73311 0.0
H181 H 0.4184 0.1481 0.71723 0.0
C182 C 0.13279 0.32517 0.03346 0.0
C183 C 0.11806 0.28117 0.05373 0.0
C184 C 0.1324 0.35972 0.0443 0.0
C185 C 0.10348 0.38339 0.11622 0.0
H186 H 0.23753 0.50896 0.09616 0.0
C187 C 0.24492 0.52002 0.20295 0.0
C188 C 0.27165 0.56986 0.18995 0.0
C189 C 0.20921 0.48478 0.18361 0.0
C190 C 0.19945 0.47441 0.10167 0.0
H191 H 0.08836 0.23696 0.10015 0.0
H192 H 0.09033 0.29776 0.11978 0.0
H193 H 0.20327 0.44707 0.06389 0.0
H194 H 0.27827 0.62196 0.14766 0.0
H195 H 0.21709 0.56089 0.11439 0.0
H196 H 0.10285 0.4105 0.15595 0.0
C197 C 0.10047 0.30557 0.09521 0.0
C198 C 0.17942 0.43886 0.08293 0.0
C199 C 0.09983 0.27077 0.08413 0.0
C200 C 0.25927 0.58377 0.15825 0.0
C201 C 0.22393 0.5489 0.13915 0.0
C202 C 0.12417 0.41888 0.13541 0.0
C203 C 0.11877 0.35131 0.07592 0.0
C204 C 0.13223 0.39216 0.0907 0.0
C205 C 0.20007 0.49925 0.15123 0.0
C206 C 0.17314 0.46407 0.1288 0.0
H207 H 0.14613 0.33338 0.00968 0.0
H208 H 0.14538 0.394 0.02847 0.0
H209 H 0.06632 0.34826 0.12239 0.0
H210 H 0.25333 0.50843 0.22739 0.0
H211 H 0.19131 0.44653 0.19337 0.0
C212 C 0.87721 0.09286 0.64908 0.0
C213 C 0.87333 0.10483 0.61563 0.0
C214 C 0.855 0.10213 0.66908 0.0
C215 C 0.7584 0.12876 0.66876 0.0
H216 H 0.84924 0.20362 0.73566 0.0
C217 C 0.76777 0.28057 0.70523 0.0
C218 C 0.73693 0.26426 0.73152 0.0
C219 C 0.78206 0.25267 0.69874 0.0
C220 C 0.82303 0.18165 0.71761 0.0
H221 H 0.84135 0.13395 0.57691 0.0
H222 H 0.80338 0.15059 0.61156 0.0
H223 H 0.87653 0.16793 0.70846 0.0
H224 H 0.69699 0.2061 0.77174 0.0
H225 H 0.72302 0.15707 0.76047 0.0
H226 H 0.70672 0.14542 0.67653 0.0
C227 C 0.82321 0.13383 0.62248 0.0
C228 C 0.83853 0.16127 0.70203 0.0
C229 C 0.84558 0.12489 0.60259 0.0
C230 C 0.72199 0.22008 0.75188 0.0
C231 C 0.73635 0.19191 0.7453 0.0
C232 C 0.74298 0.14904 0.68434 0.0
C233 C 0.82799 0.12296 0.65594 0.0
C234 C 0.80726 0.13623 0.67659 0.0
C235 C 0.7657 0.20784 0.71832 0.0
C236 C 0.7759 0.17678 0.70818 0.0
H237 H 0.89857 0.07755 0.65979 0.0
H238 H 0.85917 0.09325 0.69478 0.0
H239 H 0.73314 0.10907 0.64958 0.0
H240 H 0.77978 0.31446 0.68914 0.0
H241 H 0.80453 0.26535 0.67776 0.0
C242 C 0.92011 0.98339 0.09368 0.0
C243 C 0.92925 0.96353 0.07312 0.0
C244 C 0.87299 0.95556 0.10963 0.0
C245 C 0.7356 0.84054 0.11077 0.0
H246 H 0.73862 0.86892 0.19332 0.0
C247 C 0.54996 0.72762 0.18631 0.0
C248 C 0.53889 0.75562 0.19699 0.0
C249 C 0.59935 0.74969 0.17433 0.0
C250 C 0.73711 0.8606 0.17028 0.0
H251 H 0.89611 0.89889 0.05294 0.0
H252 H 0.81414 0.849 0.08192 0.0
H253 H 0.82026 0.91235 0.16592 0.0
H254 H 0.57023 0.82847 0.20322 0.0
H255 H 0.65743 0.86673 0.18397 0.0
H256 H 0.65217 0.78788 0.1158 0.0
C257 C 0.84291 0.88668 0.08518 0.0
C258 C 0.78397 0.88581 0.15431 0.0
C259 C 0.89002 0.91506 0.06868 0.0
C260 C 0.57862 0.80569 0.19656 0.0
C261 C 0.6283 0.82764 0.18514 0.0
C262 C 0.68879 0.81472 0.12705 0.0
C263 C 0.8338 0.90651 0.10607 0.0
C264 C 0.78393 0.87689 0.124 0.0
C265 C 0.63868 0.80019 0.17292 0.0
C266 C 0.68893 0.82494 0.1568 0.0
H267 H 0.94938 0.02089 0.09731 0.0
H268 H 0.86731 0.97302 0.12451 0.0
H269 H 0.73343 0.83287 0.08739 0.0
H270 H 0.51928 0.68932 0.18527 0.0
H271 H 0.6062 0.72755 0.16519 0.0
C272 C 0.91063 0.86181 0.60042 0.0
C273 C 0.94785 0.88393 0.57679 0.0
C274 C 0.89268 0.8157 0.61843 0.0
C275 C 0.88145 0.70301 0.61845 0.0
H276 H 0.85005 0.67473 0.70765 0.0
C277 C 0.81198 0.51523 0.69462 0.0
C278 C 0.77241 0.49346 0.71657 0.0
C279 C 0.83794 0.56441 0.68027 0.0
C280 C 0.85802 0.68165 0.68271 0.0
H281 H 0.99581 0.87489 0.55361 0.0
H282 H 0.96467 0.79397 0.58527 0.0
H283 H 0.88659 0.75652 0.67708 0.0
H284 H 0.72916 0.50642 0.74089 0.0
H285 H 0.77429 0.59264 0.7158 0.0
H286 H 0.85214 0.62814 0.62378 0.0
C287 C 0.94888 0.81226 0.58968 0.0
C288 C 0.87912 0.72881 0.66507 0.0
C289 C 0.96702 0.85877 0.5716 0.0
C290 C 0.7605 0.52256 0.72471 0.0
C291 C 0.78631 0.572 0.71011 0.0
C292 C 0.86022 0.65586 0.63603 0.0
C293 C 0.9114 0.79006 0.61342 0.0
C294 C 0.89097 0.7402 0.63261 0.0
C295 C 0.82444 0.59332 0.68693 0.0
C296 C 0.84809 0.64429 0.66849 0.0
H297 H 0.89494 0.88012 0.605 0.0
H298 H 0.86324 0.7998 0.63594 0.0
H299 H 0.88903 0.70986 0.59344 0.0
H300 H 0.82155 0.49351 0.68762 0.0
H301 H 0.86786 0.57937 0.66331 0.0
C302 C 0.1895 0.85982 0.42524 0.0
C303 C 0.18159 0.8963 0.41317 0.0
C304 C 0.21091 0.84867 0.40636 0.0
C305 C 0.23099 0.85194 0.32466 0.0
H306 H 0.33571 0.83228 0.36764 0.0
C307 C 0.34316 0.78906 0.27727 0.0
C308 C 0.32971 0.74444 0.29626 0.0
C309 C 0.32653 0.81462 0.28533 0.0
C310 C 0.30704 0.83831 0.35519 0.0
H311 H 0.18852 0.94867 0.37129 0.0
H312 H 0.22575 0.92853 0.33792 0.0
H313 H 0.30518 0.8654 0.39414 0.0
H314 H 0.28739 0.69082 0.33778 0.0
H315 H 0.25962 0.73571 0.35216 0.0
H316 H 0.23208 0.82295 0.28606 0.0
C317 C 0.21541 0.9089 0.36219 0.0
C318 C 0.28931 0.85691 0.37039 0.0
C319 C 0.19406 0.9203 0.38125 0.0
C320 C 0.29835 0.72518 0.32276 0.0
C321 C 0.28237 0.75071 0.33095 0.0
C322 C 0.24904 0.83336 0.3093 0.0
C323 C 0.22488 0.87353 0.37482 0.0
C324 C 0.24963 0.8621 0.35588 0.0
C325 C 0.29723 0.79606 0.31279 0.0
C326 C 0.28587 0.82492 0.32503 0.0
H327 H 0.17897 0.83964 0.44938 0.0
H328 H 0.21642 0.8203 0.41649 0.0
H329 H 0.20037 0.85561 0.31295 0.0
H330 H 0.36891 0.80541 0.25747 0.0
H331 H 0.33877 0.84984 0.2712 0.0
C332 C 0.17823 0.08558 0.96112 0.0
C333 C 0.13508 0.04408 0.94886 0.0
C334 C 0.2271 0.11491 0.94656 0.0
C335 C 0.28979 0.14141 0.87089 0.0
H336 H 0.41721 0.19581 0.92469 0.0
C337 C 0.49685 0.23254 0.8231 0.0
C338 C 0.5406 0.27187 0.83703 0.0
C339 C 0.44625 0.2066 0.8349 0.0
C340 C 0.38216 0.18158 0.90915 0.0
H341 H 0.10926 0.00047 0.91196 0.0
H342 H 0.19414 0.05074 0.88698 0.0
H343 H 0.33231 0.14807 0.949 0.0
H344 H 0.56515 0.31576 0.87357 0.0
H345 H 0.4777 0.27171 0.89356 0.0
H346 H 0.3399 0.17472 0.83103 0.0
C347 C 0.19043 0.06158 0.90735 0.0
C348 C 0.33324 0.15408 0.92319 0.0
C349 C 0.14174 0.03246 0.92184 0.0
C350 C 0.53235 0.28558 0.86229 0.0
C351 C 0.4821 0.25992 0.87399 0.0
C352 C 0.33882 0.16897 0.85682 0.0
C353 C 0.23394 0.10323 0.91948 0.0
C354 C 0.28627 0.13355 0.90431 0.0
C355 C 0.43843 0.21932 0.86103 0.0
C356 C 0.38578 0.18961 0.87574 0.0
H357 H 0.17441 0.0951 0.98211 0.0
H358 H 0.25943 0.14691 0.95646 0.0
H359 H 0.25463 0.12682 0.85545 0.0
H360 H 0.50207 0.22006 0.80435 0.0
H361 H 0.41377 0.17529 0.82444 0.0
C362 C 0.14434 0.14521 0.42347 0.0
C363 C 0.11067 0.12504 0.44894 0.0
C364 C 0.162 0.19114 0.40526 0.0
C365 C 0.18279 0.3071 0.40789 0.0
H366 H 0.19802 0.3311 0.3164 0.0
C367 C 0.25118 0.49499 0.33333 0.0
C368 C 0.28538 0.5148 0.30822 0.0
C369 C 0.22524 0.44598 0.34789 0.0
C370 C 0.1947 0.32541 0.34195 0.0
H371 H 0.0687 0.13729 0.47517 0.0
H372 H 0.09971 0.21811 0.44333 0.0
H373 H 0.16172 0.24938 0.34717 0.0
H374 H 0.31801 0.49801 0.27801 0.0
H375 H 0.27325 0.41199 0.30377 0.0
H376 H 0.21693 0.38301 0.40312 0.0
C377 C 0.11272 0.19828 0.43755 0.0
C378 C 0.17365 0.27829 0.35967 0.0
C379 C 0.09466 0.15187 0.45572 0.0
C380 C 0.29115 0.4836 0.29692 0.0
C381 C 0.26557 0.43426 0.3119 0.0
C382 C 0.20418 0.35422 0.39027 0.0
C383 C 0.14675 0.21858 0.41205 0.0
C384 C 0.1674 0.26844 0.39292 0.0
C385 C 0.23341 0.41509 0.33832 0.0
C386 C 0.21035 0.36426 0.35693 0.0
H387 H 0.15747 0.12552 0.41762 0.0
H388 H 0.18867 0.20559 0.38624 0.0
H389 H 0.17965 0.30134 0.43349 0.0
H390 H 0.24603 0.51816 0.34264 0.0
H391 H 0.19967 0.43277 0.3673 0.0
C392 C 0.98015 0.11493 0.94392 0.0
C393 C 0.95162 0.06414 0.95482 0.0
C394 C 0.95475 0.13545 0.9265 0.0
C395 C 0.82705 0.11524 0.91488 0.0
H396 H 0.88171 0.20743 0.83571 0.0
C397 C 0.71501 0.19274 0.84619 0.0
C398 C 0.74391 0.24108 0.8298 0.0
C399 C 0.73905 0.16896 0.85753 0.0
C400 C 0.86611 0.18237 0.858 0.0
H401 H 0.87378 0.99521 0.95599 0.0
H402 H 0.82938 0.03126 0.92618 0.0
H403 H 0.92708 0.17184 0.86409 0.0
H404 H 0.82028 0.30241 0.81171 0.0
H405 H 0.86344 0.26225 0.83289 0.0
H406 H 0.76796 0.12714 0.9103 0.0
C407 C 0.87152 0.05505 0.93095 0.0
C408 C 0.89212 0.16175 0.87417 0.0
C409 C 0.89703 0.03441 0.94791 0.0
C410 C 0.79698 0.26478 0.8239 0.0
C411 C 0.82162 0.24151 0.83611 0.0
C412 C 0.80172 0.13657 0.89917 0.0
C413 C 0.90009 0.10579 0.92004 0.0
C414 C 0.87269 0.12777 0.9027 0.0
C415 C 0.79335 0.19356 0.85394 0.0
C416 C 0.82049 0.1703 0.8703 0.0
H417 H 0.02224 0.13895 0.94876 0.0
H418 H 0.97771 0.17469 0.91864 0.0
H419 H 0.81158 0.08973 0.93708 0.0
H420 H 0.67396 0.17373 0.85101 0.0
H421 H 0.715 0.13156 0.8699 0.0
C422 C 0.90433 0.97668 0.41381 0.0
C423 C 0.92105 0.94923 0.4331 0.0
C424 C 0.86699 0.95803 0.3888 0.0
C425 C 0.79265 0.85475 0.34183 0.0
H426 H 0.68781 0.87997 0.33309 0.0
C427 C 0.57411 0.72369 0.30544 0.0
C428 C 0.54851 0.74352 0.28711 0.0
C429 C 0.62776 0.75419 0.31348 0.0
C430 C 0.71732 0.87336 0.33465 0.0
H431 H 0.91261 0.88105 0.44083 0.0
H432 H 0.84572 0.84742 0.39835 0.0
H433 H 0.7657 0.92323 0.36721 0.0
H434 H 0.5583 0.80991 0.26178 0.0
H435 H 0.65255 0.8637 0.27587 0.0
H436 H 0.74142 0.80199 0.31083 0.0
C437 C 0.86247 0.88407 0.40171 0.0
C438 C 0.76225 0.89827 0.35427 0.0
C439 C 0.90058 0.90317 0.42635 0.0
C440 C 0.57776 0.79386 0.27527 0.0
C441 C 0.63137 0.82455 0.28362 0.0
C442 C 0.74716 0.82924 0.32255 0.0
C443 C 0.84456 0.91096 0.38283 0.0
C444 C 0.80007 0.88858 0.35877 0.0
C445 C 0.65633 0.80514 0.30386 0.0
C446 C 0.70859 0.83763 0.31932 0.0
H447 H 0.92005 0.01268 0.41805 0.0
H448 H 0.85535 0.98046 0.37438 0.0
H449 H 0.82135 0.84704 0.34403 0.0
H450 H 0.55189 0.68494 0.31516 0.0
H451 H 0.64578 0.73827 0.32937 0.0
C452 C 0.94282 0.70851 0.94216 0.0
C453 C 0.96405 0.7581 0.93156 0.0
C454 C 0.95273 0.68459 0.92602 0.0
C455 C 0.97312 0.69021 0.8446 0.0
H456 H 0.95634 0.56966 0.88415 0.0
C457 C 0.8696 0.48024 0.82522 0.0
C458 C 0.82227 0.47243 0.81166 0.0
C459 C 0.91228 0.52651 0.83132 0.0
C460 C 0.96244 0.60371 0.87224 0.0
H461 H 0.01669 0.82289 0.89797 0.0
H462 H 0.03375 0.78085 0.8695 0.0
H463 H 0.99075 0.63245 0.91593 0.0
H464 H 0.78282 0.50642 0.79183 0.0
H465 H 0.85633 0.58704 0.80321 0.0
H466 H 0.94282 0.66066 0.80119 0.0
C467 C 0.00874 0.76031 0.88993 0.0
C468 C 0.98171 0.63958 0.89071 0.0
C469 C 0.99873 0.78425 0.90609 0.0
C470 C 0.81933 0.51204 0.80188 0.0
C471 C 0.86172 0.55825 0.80841 0.0
C472 C 0.95431 0.65452 0.82602 0.0
C473 C 0.98421 0.70978 0.89897 0.0
C474 C 0.98334 0.68145 0.87766 0.0
C475 C 0.90775 0.56544 0.82471 0.0
C476 C 0.94493 0.60933 0.84026 0.0
H477 H 0.91588 0.68741 0.96165 0.0
H478 H 0.93249 0.64549 0.9334 0.0
H479 H 0.97445 0.72233 0.83363 0.0
H480 H 0.87266 0.44997 0.83254 0.0
H481 H 0.94748 0.53094 0.84314 0.0
loop_
_geom_bond_atom_site_label_1
_geom_bond_atom_site_label_2
_geom_bond_distance
_geom_bond_site_symmetry_2
_ccdc_geom_bond_type
Sm0 C2 2.846 . S
Sm0 O20 2.543 . S
Sm0 O21 2.450 . S
Sm0 O22 2.681 1_445 S
Sm0 O23 2.464 1_445 S
Sm0 O24 2.396 . S
Sm0 O28 2.386 1_554 S
Sm0 O31 2.408 1_545 S
Sm1 C11 2.846 . S
Sm1 O22 2.386 1_556 S
Sm1 O25 2.408 1_565 S
Sm1 O26 2.543 . S
Sm1 O27 2.450 . S
Sm1 O28 2.681 1_665 S
Sm1 O29 2.464 1_665 S
Sm1 O30 2.396 1_656 S
C2 Sm0 2.846 . S
C2 C3 1.506 . S
C2 O20 1.261 . S
C2 O21 1.242 . S
C3 C2 1.506 . S
C3 C4 1.358 . S
C3 C8 1.382 . S
C4 C3 1.358 . S
C4 C5 1.385 . S
C4 H32 0.930 . S
C5 C4 1.385 . S
C5 C6 1.395 . S
C5 H33 0.929 . S
C6 C5 1.395 . S
C6 C7 1.335 . S
C7 C6 1.335 . S
C7 C8 1.398 . S
C7 H34 0.930 . S
C8 C3 1.382 . S
C8 C7 1.398 . S
C8 H35 0.929 . S
C9 O22 1.271 . S
C9 O23 1.251 . S
C10 O24 1.252 1_656 S
C10 O25 1.272 . S
C11 Sm1 2.846 . S
C11 C12 1.506 . S
C11 O26 1.261 . S
C11 O27 1.242 . S
C12 C11 1.506 . S
C12 C13 1.358 . S
C12 C17 1.382 . S
C13 C12 1.358 . S
C13 C14 1.385 . S
C13 H36 0.930 . S
C14 C13 1.385 . S
C14 C15 1.395 . S
C14 H37 0.929 . S
C15 C14 1.395 . S
C15 C16 1.335 . S
C16 C15 1.335 . S
C16 C17 1.398 . S
C16 H38 0.930 . S
C17 C12 1.382 . S
C17 C16 1.398 . S
C17 H39 0.929 . S
C18 O28 1.271 . S
C18 O29 1.251 . S
C19 O30 1.252 . S
C19 O31 1.272 . S
O20 Sm0 2.543 . S
O20 C2 1.261 . S
O21 Sm0 2.450 . S
O21 C2 1.242 . S
O22 Sm0 2.681 1_665 S
O22 Sm1 2.386 1_554 S
O22 C9 1.271 . S
O23 Sm0 2.464 1_665 S
O23 C9 1.251 . S
O24 Sm0 2.396 . S
O24 C10 1.252 1_454 S
O25 Sm1 2.408 1_545 S
O25 C10 1.272 . S
O26 Sm1 2.543 . S
O26 C11 1.261 . S
O27 Sm1 2.450 . S
O27 C11 1.242 . S
O28 Sm0 2.386 1_556 S
O28 Sm1 2.681 1_445 S
O28 C18 1.271 . S
O29 Sm1 2.464 1_445 S
O29 C18 1.251 . S
O30 Sm1 2.396 1_454 S
O30 C19 1.252 . S
O31 Sm0 2.408 1_565 S
O31 C19 1.272 . S
H32 C4 0.930 . S
H33 C5 0.929 . S
H34 C7 0.930 . S
H35 C8 0.929 . S
H36 C13 0.930 . S
H37 C14 0.929 . S
H38 C16 0.930 . S
H39 C17 0.929 . S
Sm40 C42 2.846 1_455 S
Sm40 O60 2.543 1_455 S
Sm40 O61 2.450 1_455 S
Sm40 O62 2.681 1_545 S
Sm40 O63 2.464 1_445 S
Sm40 O64 2.396 1_445 S
Sm40 O68 2.386 . S
Sm40 O71 2.408 . S
Sm41 C51 2.846 . S
Sm41 O62 2.386 . S
Sm41 O65 2.408 1_455 S
Sm41 O66 2.543 . S
Sm41 O67 2.450 1_565 S
Sm41 O68 2.681 1_565 S
Sm41 O69 2.464 1_565 S
Sm41 O70 2.396 1_565 S
C42 Sm40 2.846 1_655 S
C42 C43 1.506 . S
C42 O60 1.261 . S
C42 O61 1.242 . S
C43 C42 1.506 . S
C43 C44 1.358 . S
C43 C48 1.382 . S
C44 C43 1.358 . S
C44 C45 1.385 . S
C44 H72 0.930 . S
C45 C44 1.385 . S
C45 C46 1.395 . S
C45 H73 0.929 . S
C46 C45 1.395 . S
C46 C47 1.335 . S
C47 C46 1.335 . S
C47 C48 1.398 . S
C47 H74 0.930 . S
C48 C43 1.382 . S
C48 C47 1.398 . S
C48 H75 0.929 . S
C49 O62 1.271 1_655 S
C49 O63 1.251 . S
C50 O64 1.252 . S
C50 O65 1.272 . S
C51 Sm41 2.846 . S
C51 C52 1.506 . S
C51 O66 1.261 . S
C51 O67 1.242 1_565 S
C52 C51 1.506 . S
C52 C53 1.358 . S
C52 C57 1.382 . S
C53 C52 1.358 . S
C53 C54 1.385 . S
C53 H76 0.930 . S
C54 C53 1.385 . S
C54 C55 1.395 . S
C54 H77 0.929 . S
C55 C54 1.395 . S
C55 C56 1.335 . S
C56 C55 1.335 . S
C56 C57 1.398 . S
C56 H78 0.930 1_565 S
C57 C52 1.382 . S
C57 C56 1.398 . S
C57 H79 0.929 1_565 S
C58 O68 1.271 . S
C58 O69 1.251 . S
C59 O70 1.252 . S
C59 O71 1.272 . S
O60 Sm40 2.543 1_655 S
O60 C42 1.261 . S
O61 Sm40 2.450 1_655 S
O61 C42 1.242 . S
O62 Sm40 2.681 1_565 S
O62 Sm41 2.386 . S
O62 C49 1.271 1_455 S
O63 Sm40 2.464 1_665 S
O63 C49 1.251 . S
O64 Sm40 2.396 1_665 S
O64 C50 1.252 . S
O65 Sm41 2.408 1_655 S
O65 C50 1.272 . S
O66 Sm41 2.543 . S
O66 C51 1.261 . S
O67 Sm41 2.450 1_545 S
O67 C51 1.242 1_545 S
O68 Sm40 2.386 . S
O68 Sm41 2.681 1_545 S
O68 C58 1.271 . S
O69 Sm41 2.464 1_545 S
O69 C58 1.251 . S
O70 Sm41 2.396 1_545 S
O70 C59 1.252 . S
O71 Sm40 2.408 . S
O71 C59 1.272 . S
H72 C44 0.930 . S
H73 C45 0.929 . S
H74 C47 0.930 . S
H75 C48 0.929 . S
H76 C53 0.930 . S
H77 C54 0.929 . S
H78 C56 0.930 1_545 S
H79 C57 0.929 1_545 S
Zn80 O86 1.920 . S
Zn80 O92 1.898 . S
Zn80 O95 1.905 . S
Zn81 O89 1.905 . S
Zn81 O90 1.898 . S
Zn81 O98 1.920 . S
Zn82 O85 2.080 . S
Zn82 O88 2.114 . S
Zn82 O91 2.120 . S
Zn82 O93 2.120 . S
Zn82 O94 2.114 . S
Zn82 O97 2.080 . S
C83 O88 1.166 . S
C83 O89 1.182 . S
C84 O90 1.167 . S
C84 O91 1.299 . S
O85 Zn82 2.080 . S
O85 C99 1.305 . S
O86 Zn80 1.920 . S
O86 C99 1.234 . S
C87 O92 1.167 . S
C87 O93 1.299 . S
O88 Zn82 2.114 . S
O88 C83 1.166 . S
O89 Zn81 1.905 . S
O89 C83 1.182 . S
O90 Zn81 1.898 . S
O90 C84 1.167 . S
O91 Zn82 2.120 . S
O91 C84 1.299 . S
O92 Zn80 1.898 . S
O92 C87 1.167 . S
O93 Zn82 2.120 . S
O93 C87 1.299 . S
O94 Zn82 2.114 . S
O94 C96 1.166 . S
O95 Zn80 1.905 . S
O95 C96 1.182 . S
C96 O94 1.166 . S
C96 O95 1.182 . S
O97 Zn82 2.080 . S
O97 C100 1.305 . S
O98 Zn81 1.920 . S
O98 C100 1.234 . S
C99 O85 1.305 . S
C99 O86 1.234 . S
C100 O97 1.305 . S
C100 O98 1.234 . S
Zn101 O107 1.920 . S
Zn101 O113 1.898 . S
Zn101 O116 1.905 . S
Zn102 O110 1.905 . S
Zn102 O111 1.898 . S
Zn102 O119 1.920 . S
Zn103 O106 2.080 . S
Zn103 O109 2.114 . S
Zn103 O112 2.120 . S
Zn103 O114 2.120 . S
Zn103 O115 2.114 . S
Zn103 O118 2.080 . S
C104 O109 1.166 . S
C104 O110 1.182 . S
C105 O111 1.167 . S
C105 O112 1.299 . S
O106 Zn103 2.080 . S
O106 C120 1.305 . S
O107 Zn101 1.920 . S
O107 C120 1.234 . S
C108 O113 1.167 . S
C108 O114 1.299 . S
O109 Zn103 2.114 . S
O109 C104 1.166 . S
O110 Zn102 1.905 . S
O110 C104 1.182 . S
O111 Zn102 1.898 . S
O111 C105 1.167 . S
O112 Zn103 2.120 . S
O112 C105 1.299 . S
O113 Zn101 1.898 . S
O113 C108 1.167 . S
O114 Zn103 2.120 . S
O114 C108 1.299 . S
O115 Zn103 2.114 . S
O115 C117 1.166 . S
O116 Zn101 1.905 . S
O116 C117 1.182 . S
C117 O115 1.166 . S
C117 O116 1.182 . S
O118 Zn103 2.080 . S
O118 C121 1.305 . S
O119 Zn102 1.920 . S
O119 C121 1.234 . S
C120 O106 1.305 . S
C120 O107 1.234 . S
C121 O118 1.305 . S
C121 O119 1.234 . S
C122 C123 1.349 . S
C122 C124 1.327 . S
C122 H147 0.950 . S
C123 C122 1.349 . S
C123 C139 1.349 . S
C124 C122 1.327 . S
C124 C143 1.429 . S
C124 H148 0.950 . S
C125 C142 1.574 . S
C125 C144 1.368 . S
C125 H149 0.949 . S
H126 C130 0.949 . S
C127 C128 1.349 . S
C127 C129 1.327 . S
C127 H150 0.950 . S
C128 C127 1.349 . S
C128 C140 1.349 . S
C129 C127 1.327 . S
C129 C145 1.429 . S
C129 H151 0.950 . S
C130 H126 0.949 . S
C130 C138 1.574 . S
C130 C146 1.368 . S
H131 C139 0.950 . S
H132 C137 0.950 . S
H133 C138 0.949 . S
H134 C140 0.950 . S
H135 C141 0.950 . S
H136 C142 0.949 . S
C137 H132 0.950 . S
C137 C139 1.327 . S
C137 C143 1.429 . S
C138 C130 1.574 . S
C138 H133 0.949 . S
C138 C144 1.368 . S
C139 C123 1.349 . S
C139 H131 0.950 . S
C139 C137 1.327 . S
C140 C128 1.349 . S
C140 H134 0.950 . S
C140 C141 1.327 . S
C141 H135 0.950 . S
C141 C140 1.327 . S
C141 C145 1.429 . S
C142 C125 1.574 . S
C142 H136 0.949 . S
C142 C146 1.368 . S
C143 C124 1.429 . S
C143 C137 1.429 . S
C143 C144 1.523 . S
C144 C125 1.368 . S
C144 C138 1.368 . S
C144 C143 1.523 . S
C145 C129 1.429 . S
C145 C141 1.429 . S
C145 C146 1.523 . S
C146 C130 1.368 . S
C146 C142 1.368 . S
C146 C145 1.523 . S
H147 C122 0.950 . S
H148 C124 0.950 . S
H149 C125 0.949 . S
H150 C127 0.950 . S
H151 C129 0.950 . S
C152 C153 1.349 . S
C152 C154 1.327 . S
C152 H177 0.950 . S
C153 C152 1.349 . S
C153 C169 1.349 . S
C154 C152 1.327 . S
C154 C173 1.429 . S
C154 H178 0.950 . S
C155 C172 1.574 . S
C155 C174 1.368 . S
C155 H179 0.949 . S
H156 C160 0.949 . S
C157 C158 1.349 . S
C157 C159 1.327 . S
C157 H180 0.950 . S
C158 C157 1.349 . S
C158 C170 1.349 . S
C159 C157 1.327 . S
C159 C175 1.429 . S
C159 H181 0.950 . S
C160 H156 0.949 . S
C160 C168 1.574 . S
C160 C176 1.368 . S
H161 C169 0.950 1_565 S
H162 C167 0.950 . S
H163 C168 0.949 . S
H164 C170 0.950 . S
H165 C171 0.950 . S
H166 C172 0.949 . S
C167 H162 0.950 . S
C167 C169 1.327 . S
C167 C173 1.429 . S
C168 C160 1.574 . S
C168 H163 0.949 . S
C168 C174 1.368 . S
C169 C153 1.349 . S
C169 H161 0.950 1_545 S
C169 C167 1.327 . S
C170 C158 1.349 . S
C170 H164 0.950 . S
C170 C171 1.327 . S
C171 H165 0.950 . S
C171 C170 1.327 . S
C171 C175 1.429 . S
C172 C155 1.574 . S
C172 H166 0.949 . S
C172 C176 1.368 . S
C173 C154 1.429 . S
C173 C167 1.429 . S
C173 C174 1.523 . S
C174 C155 1.368 . S
C174 C168 1.368 . S
C174 C173 1.523 . S
C175 C159 1.429 . S
C175 C171 1.429 . S
C175 C176 1.523 . S
C176 C160 1.368 . S
C176 C172 1.368 . S
C176 C175 1.523 . S
H177 C152 0.950 . S
H178 C154 0.950 . S
H179 C155 0.949 . S
H180 C157 0.950 . S
H181 C159 0.950 . S
C182 C183 1.349 . S
C182 C184 1.327 . S
C182 H207 0.950 . S
C183 C182 1.349 . S
C183 C199 1.349 . S
C184 C182 1.327 . S
C184 C203 1.429 . S
C184 H208 0.950 . S
C185 C202 1.574 . S
C185 C204 1.368 . S
C185 H209 0.949 . S
H186 C190 0.949 . S
C187 C188 1.349 . S
C187 C189 1.327 . S
C187 H210 0.950 . S
C188 C187 1.349 . S
C188 C200 1.349 . S
C189 C187 1.327 . S
C189 C205 1.429 . S
C189 H211 0.950 . S
C190 H186 0.949 . S
C190 C198 1.574 . S
C190 C206 1.368 . S
H191 C199 0.950 . S
H192 C197 0.950 . S
H193 C198 0.949 . S
H194 C200 0.950 . S
H195 C201 0.950 . S
H196 C202 0.949 . S
C197 H192 0.950 . S
C197 C199 1.327 . S
C197 C203 1.429 . S
C198 C190 1.574 . S
C198 H193 0.949 . S
C198 C204 1.368 . S
C199 C183 1.349 . S
C199 H191 0.950 . S
C199 C197 1.327 . S
C200 C188 1.349 . S
C200 H194 0.950 . S
C200 C201 1.327 . S
C201 H195 0.950 . S
C201 C200 1.327 . S
C201 C205 1.429 . S
C202 C185 1.574 . S
C202 H196 0.949 . S
C202 C206 1.368 . S
C203 C184 1.429 . S
C203 C197 1.429 . S
C203 C204 1.523 . S
C204 C185 1.368 . S
C204 C198 1.368 . S
C204 C203 1.523 . S
C205 C189 1.429 . S
C205 C201 1.429 . S
C205 C206 1.523 . S
C206 C190 1.368 . S
C206 C202 1.368 . S
C206 C205 1.523 . S
H207 C182 0.950 . S
H208 C184 0.950 . S
H209 C185 0.949 . S
H210 C187 0.950 . S
H211 C189 0.950 . S
C212 C213 1.349 . S
C212 C214 1.327 . S
C212 H237 0.950 . S
C213 C212 1.349 . S
C213 C229 1.349 . S
C214 C212 1.327 . S
C214 C233 1.429 . S
C214 H238 0.950 . S
C215 C232 1.574 . S
C215 C234 1.368 . S
C215 H239 0.949 . S
H216 C220 0.949 . S
C217 C218 1.349 . S
C217 C219 1.327 . S
C217 H240 0.950 . S
C218 C217 1.349 . S
C218 C230 1.349 . S
C219 C217 1.327 . S
C219 C235 1.429 . S
C219 H241 0.950 . S
C220 H216 0.949 . S
C220 C228 1.574 . S
C220 C236 1.368 . S
H221 C229 0.950 . S
H222 C227 0.950 . S
H223 C228 0.949 . S
H224 C230 0.950 . S
H225 C231 0.950 . S
H226 C232 0.949 . S
C227 H222 0.950 . S
C227 C229 1.327 . S
C227 C233 1.429 . S
C228 C220 1.574 . S
C228 H223 0.949 . S
C228 C234 1.368 . S
C229 C213 1.349 . S
C229 H221 0.950 . S
C229 C227 1.327 . S
C230 C218 1.349 . S
C230 H224 0.950 . S
C230 C231 1.327 . S
C231 H225 0.950 . S
C231 C230 1.327 . S
C231 C235 1.429 . S
C232 C215 1.574 . S
C232 H226 0.949 . S
C232 C236 1.368 . S
C233 C214 1.429 . S
C233 C227 1.429 . S
C233 C234 1.523 . S
C234 C215 1.368 . S
C234 C228 1.368 . S
C234 C233 1.523 . S
C235 C219 1.429 . S
C235 C231 1.429 . S
C235 C236 1.523 . S
C236 C220 1.368 . S
C236 C232 1.368 . S
C236 C235 1.523 . S
H237 C212 0.950 . S
H238 C214 0.950 . S
H239 C215 0.949 . S
H240 C217 0.950 . S
H241 C219 0.950 . S
C242 C243 1.349 . S
C242 C244 1.327 . S
C242 H267 0.950 . S
C243 C242 1.349 . S
C243 C259 1.349 . S
C244 C242 1.327 . S
C244 C263 1.429 . S
C244 H268 0.950 . S
C245 C262 1.574 . S
C245 C264 1.368 . S
C245 H269 0.949 . S
H246 C250 0.949 . S
C247 C248 1.349 . S
C247 C249 1.327 . S
C247 H270 0.950 . S
C248 C247 1.349 . S
C248 C260 1.349 . S
C249 C247 1.327 . S
C249 C265 1.429 . S
C249 H271 0.950 . S
C250 H246 0.949 . S
C250 C258 1.574 . S
C250 C266 1.368 . S
H251 C259 0.950 . S
H252 C257 0.950 . S
H253 C258 0.949 . S
H254 C260 0.950 . S
H255 C261 0.950 . S
H256 C262 0.949 . S
C257 H252 0.950 . S
C257 C259 1.327 . S
C257 C263 1.429 . S
C258 C250 1.574 . S
C258 H253 0.949 . S
C258 C264 1.368 . S
C259 C243 1.349 . S
C259 H251 0.950 . S
C259 C257 1.327 . S
C260 C248 1.349 . S
C260 H254 0.950 . S
C260 C261 1.327 . S
C261 H255 0.950 . S
C261 C260 1.327 . S
C261 C265 1.429 . S
C262 C245 1.574 . S
C262 H256 0.949 . S
C262 C266 1.368 . S
C263 C244 1.429 . S
C263 C257 1.429 . S
C263 C264 1.523 . S
C264 C245 1.368 . S
C264 C258 1.368 . S
C264 C263 1.523 . S
C265 C249 1.429 . S
C265 C261 1.429 . S
C265 C266 1.523 . S
C266 C250 1.368 . S
C266 C262 1.368 . S
C266 C265 1.523 . S
H267 C242 0.950 . S
H268 C244 0.950 . S
H269 C245 0.949 . S
H270 C247 0.950 . S
H271 C249 0.950 . S
C272 C273 1.349 . S
C272 C274 1.327 . S
C272 H297 0.950 . S
C273 C272 1.349 . S
C273 C289 1.349 . S
C274 C272 1.327 . S
C274 C293 1.429 . S
C274 H298 0.950 . S
C275 C292 1.574 . S
C275 C294 1.368 . S
C275 H299 0.949 . S
H276 C280 0.949 . S
C277 C278 1.349 . S
C277 C279 1.327 . S
C277 H300 0.950 . S
C278 C277 1.349 . S
C278 C290 1.349 . S
C279 C277 1.327 . S
C279 C295 1.429 . S
C279 H301 0.950 . S
C280 H276 0.949 . S
C280 C288 1.574 . S
C280 C296 1.368 . S
H281 C289 0.950 . S
H282 C287 0.950 . S
H283 C288 0.949 . S
H284 C290 0.950 . S
H285 C291 0.950 . S
H286 C292 0.949 . S
C287 H282 0.950 . S
C287 C289 1.327 . S
C287 C293 1.429 . S
C288 C280 1.574 . S
C288 H283 0.949 . S
C288 C294 1.368 . S
C289 C273 1.349 . S
C289 H281 0.950 . S
C289 C287 1.327 . S
C290 C278 1.349 . S
C290 H284 0.950 . S
C290 C291 1.327 . S
C291 H285 0.950 . S
C291 C290 1.327 . S
C291 C295 1.429 . S
C292 C275 1.574 . S
C292 H286 0.949 . S
C292 C296 1.368 . S
C293 C274 1.429 . S
C293 C287 1.429 . S
C293 C294 1.523 . S
C294 C275 1.368 . S
C294 C288 1.368 . S
C294 C293 1.523 . S
C295 C279 1.429 . S
C295 C291 1.429 . S
C295 C296 1.523 . S
C296 C280 1.368 . S
C296 C292 1.368 . S
C296 C295 1.523 . S
H297 C272 0.950 . S
H298 C274 0.950 . S
H299 C275 0.949 . S
H300 C277 0.950 . S
H301 C279 0.950 . S
C302 C303 1.349 . S
C302 C304 1.327 . S
C302 H327 0.950 . S
C303 C302 1.349 . S
C303 C319 1.349 . S
C304 C302 1.327 . S
C304 C323 1.429 . S
C304 H328 0.950 . S
C305 C322 1.574 . S
C305 C324 1.368 . S
C305 H329 0.949 . S
H306 C310 0.949 . S
C307 C308 1.349 . S
C307 C309 1.327 . S
C307 H330 0.950 . S
C308 C307 1.349 . S
C308 C320 1.349 . S
C309 C307 1.327 . S
C309 C325 1.429 . S
C309 H331 0.950 . S
C310 H306 0.949 . S
C310 C318 1.574 . S
C310 C326 1.368 . S
H311 C319 0.950 1_545 S
H312 C317 0.950 . S
H313 C318 0.949 . S
H314 C320 0.950 . S
H315 C321 0.950 . S
H316 C322 0.949 . S
C317 H312 0.950 . S
C317 C319 1.327 . S
C317 C323 1.429 . S
C318 C310 1.574 . S
C318 H313 0.949 . S
C318 C324 1.368 . S
C319 C303 1.349 . S
C319 H311 0.950 1_565 S
C319 C317 1.327 . S
C320 C308 1.349 . S
C320 H314 0.950 . S
C320 C321 1.327 . S
C321 H315 0.950 . S
C321 C320 1.327 . S
C321 C325 1.429 . S
C322 C305 1.574 . S
C322 H316 0.949 . S
C322 C326 1.368 . S
C323 C304 1.429 . S
C323 C317 1.429 . S
C323 C324 1.523 . S
C324 C305 1.368 . S
C324 C318 1.368 . S
C324 C323 1.523 . S
C325 C309 1.429 . S
C325 C321 1.429 . S
C325 C326 1.523 . S
C326 C310 1.368 . S
C326 C322 1.368 . S
C326 C325 1.523 . S
H327 C302 0.950 . S
H328 C304 0.950 . S
H329 C305 0.949 . S
H330 C307 0.950 . S
H331 C309 0.950 . S
C332 C333 1.349 . S
C332 C334 1.327 . S
C332 H357 0.950 . S
C333 C332 1.349 . S
C333 C349 1.349 . S
C334 C332 1.327 . S
C334 C353 1.429 . S
C334 H358 0.950 . S
C335 C352 1.574 . S
C335 C354 1.368 . S
C335 H359 0.949 . S
H336 C340 0.949 . S
C337 C338 1.349 . S
C337 C339 1.327 . S
C337 H360 0.950 . S
C338 C337 1.349 . S
C338 C350 1.349 . S
C339 C337 1.327 . S
C339 C355 1.429 . S
C339 H361 0.950 . S
C340 H336 0.949 . S
C340 C348 1.574 . S
C340 C356 1.368 . S
H341 C349 0.950 . S
H342 C347 0.950 . S
H343 C348 0.949 . S
H344 C350 0.950 . S
H345 C351 0.950 . S
H346 C352 0.949 . S
C347 H342 0.950 . S
C347 C349 1.327 . S
C347 C353 1.429 . S
C348 C340 1.574 . S
C348 H343 0.949 . S
C348 C354 1.368 . S
C349 C333 1.349 . S
C349 H341 0.950 . S
C349 C347 1.327 . S
C350 C338 1.349 . S
C350 H344 0.950 . S
C350 C351 1.327 . S
C351 H345 0.950 . S
C351 C350 1.327 . S
C351 C355 1.429 . S
C352 C335 1.574 . S
C352 H346 0.949 . S
C352 C356 1.368 . S
C353 C334 1.429 . S
C353 C347 1.429 . S
C353 C354 1.523 . S
C354 C335 1.368 . S
C354 C348 1.368 . S
C354 C353 1.523 . S
C355 C339 1.429 . S
C355 C351 1.429 . S
C355 C356 1.523 . S
C356 C340 1.368 . S
C356 C352 1.368 . S
C356 C355 1.523 . S
H357 C332 0.950 . S
H358 C334 0.950 . S
H359 C335 0.949 . S
H360 C337 0.950 . S
H361 C339 0.950 . S
C362 C363 1.349 . S
C362 C364 1.327 . S
C362 H387 0.950 . S
C363 C362 1.349 . S
C363 C379 1.349 . S
C364 C362 1.327 . S
C364 C383 1.429 . S
C364 H388 0.950 . S
C365 C382 1.574 . S
C365 C384 1.368 . S
C365 H389 0.949 . S
H366 C370 0.949 . S
C367 C368 1.349 . S
C367 C369 1.327 . S
C367 H390 0.950 . S
C368 C367 1.349 . S
C368 C380 1.349 . S
C369 C367 1.327 . S
C369 C385 1.429 . S
C369 H391 0.950 . S
C370 H366 0.949 . S
C370 C378 1.574 . S
C370 C386 1.368 . S
H371 C379 0.950 . S
H372 C377 0.950 . S
H373 C378 0.949 . S
H374 C380 0.950 . S
H375 C381 0.950 . S
H376 C382 0.949 . S
C377 H372 0.950 . S
C377 C379 1.327 . S
C377 C383 1.429 . S
C378 C370 1.574 . S
C378 H373 0.949 . S
C378 C384 1.368 . S
C379 C363 1.349 . S
C379 H371 0.950 . S
C379 C377 1.327 . S
C380 C368 1.349 . S
C380 H374 0.950 . S
C380 C381 1.327 . S
C381 H375 0.950 . S
C381 C380 1.327 . S
C381 C385 1.429 . S
C382 C365 1.574 . S
C382 H376 0.949 . S
C382 C386 1.368 . S
C383 C364 1.429 . S
C383 C377 1.429 . S
C383 C384 1.523 . S
C384 C365 1.368 . S
C384 C378 1.368 . S
C384 C383 1.523 . S
C385 C369 1.429 . S
C385 C381 1.429 . S
C385 C386 1.523 . S
C386 C370 1.368 . S
C386 C382 1.368 . S
C386 C385 1.523 . S
H387 C362 0.950 . S
H388 C364 0.950 . S
H389 C365 0.949 . S
H390 C367 0.950 . S
H391 C369 0.950 . S
C392 C393 1.349 . S
C392 C394 1.327 . S
C392 H417 0.945 1_655 S
C393 C392 1.349 . S
C393 C409 1.349 . S
C394 C392 1.327 . S
C394 C413 1.429 . S
C394 H418 0.950 . S
C395 C412 1.574 . S
C395 C414 1.368 . S
C395 H419 0.949 . S
H396 C400 0.949 . S
C397 C398 1.349 . S
C397 C399 1.327 . S
C397 H420 0.950 . S
C398 C397 1.349 . S
C398 C410 1.349 . S
C399 C397 1.327 . S
C399 C415 1.429 . S
C399 H421 0.950 . S
C400 H396 0.949 . S
C400 C408 1.574 . S
C400 C416 1.368 . S
H401 C409 0.950 . S
H402 C407 0.950 . S
H403 C408 0.949 . S
H404 C410 0.950 . S
H405 C411 0.950 . S
H406 C412 0.949 . S
C407 H402 0.950 . S
C407 C409 1.327 . S
C407 C413 1.429 . S
C408 C400 1.574 . S
C408 H403 0.949 . S
C408 C414 1.368 . S
C409 C393 1.349 . S
C409 H401 0.950 . S
C409 C407 1.327 . S
C410 C398 1.349 . S
C410 H404 0.950 . S
C410 C411 1.327 . S
C411 H405 0.950 . S
C411 C410 1.327 . S
C411 C415 1.429 . S
C412 C395 1.574 . S
C412 H406 0.949 . S
C412 C416 1.368 . S
C413 C394 1.429 . S
C413 C407 1.429 . S
C413 C414 1.523 . S
C414 C395 1.368 . S
C414 C408 1.368 . S
C414 C413 1.523 . S
C415 C399 1.429 . S
C415 C411 1.429 . S
C415 C416 1.523 . S
C416 C400 1.368 . S
C416 C412 1.368 . S
C416 C415 1.523 . S
H417 C392 0.945 1_455 S
H418 C394 0.950 . S
H419 C395 0.949 . S
H420 C397 0.950 . S
H421 C399 0.950 . S
C422 C423 1.349 . S
C422 C424 1.327 . S
C422 H447 0.950 . S
C423 C422 1.349 . S
C423 C439 1.349 . S
C424 C422 1.327 . S
C424 C443 1.429 . S
C424 H448 0.950 . S
C425 C442 1.574 . S
C425 C444 1.368 . S
C425 H449 0.949 . S
H426 C430 0.949 . S
C427 C428 1.349 . S
C427 C429 1.327 . S
C427 H450 0.950 . S
C428 C427 1.349 . S
C428 C440 1.349 . S
C429 C427 1.327 . S
C429 C445 1.429 . S
C429 H451 0.950 . S
C430 H426 0.949 . S
C430 C438 1.574 . S
C430 C446 1.368 . S
H431 C439 0.950 . S
H432 C437 0.950 . S
H433 C438 0.949 . S
H434 C440 0.950 . S
H435 C441 0.950 . S
H436 C442 0.949 . S
C437 H432 0.950 . S
C437 C439 1.327 . S
C437 C443 1.429 . S
C438 C430 1.574 . S
C438 H433 0.949 . S
C438 C444 1.368 . S
C439 C423 1.349 . S
C439 H431 0.950 . S
C439 C437 1.327 . S
C440 C428 1.349 . S
C440 H434 0.950 . S
C440 C441 1.327 . S
C441 H435 0.950 . S
C441 C440 1.327 . S
C441 C445 1.429 . S
C442 C425 1.574 . S
C442 H436 0.949 . S
C442 C446 1.368 . S
C443 C424 1.429 . S
C443 C437 1.429 . S
C443 C444 1.523 . S
C444 C425 1.368 . S
C444 C438 1.368 . S
C444 C443 1.523 . S
C445 C429 1.429 . S
C445 C441 1.429 . S
C445 C446 1.523 . S
C446 C430 1.368 . S
C446 C442 1.368 . S
C446 C445 1.523 . S
H447 C422 0.950 . S
H448 C424 0.950 . S
H449 C425 0.949 . S
H450 C427 0.950 . S
H451 C429 0.950 . S
C452 C453 1.349 . S
C452 C454 1.327 . S
C452 H477 0.950 . S
C453 C452 1.349 . S
C453 C469 1.349 . S
C454 C452 1.327 . S
C454 C473 1.429 . S
C454 H478 0.950 . S
C455 C472 1.574 . S
C455 C474 1.368 . S
C455 H479 0.949 . S
H456 C460 0.949 . S
C457 C458 1.349 . S
C457 C459 1.327 . S
C457 H480 0.950 . S
C458 C457 1.349 . S
C458 C470 1.349 . S
C459 C457 1.327 . S
C459 C475 1.429 . S
C459 H481 0.950 . S
C460 H456 0.949 . S
C460 C468 1.574 . S
C460 C476 1.368 . S
H461 C469 0.950 . S
H462 C467 0.950 . S
H463 C468 0.949 . S
H464 C470 0.950 . S
H465 C471 0.950 . S
H466 C472 0.949 . S
C467 H462 0.950 . S
C467 C469 1.327 . S
C467 C473 1.429 . S
C468 C460 1.574 . S
C468 H463 0.949 . S
C468 C474 1.368 . S
C469 C453 1.349 . S
C469 H461 0.950 . S
C469 C467 1.327 . S
C470 C458 1.349 . S
C470 H464 0.950 . S
C470 C471 1.327 . S
C471 H465 0.950 . S
C471 C470 1.327 . S
C471 C475 1.429 . S
C472 C455 1.574 . S
C472 H466 0.949 . S
C472 C476 1.368 . S
C473 C454 1.429 . S
C473 C467 1.429 . S
C473 C474 1.523 . S
C474 C455 1.368 . S
C474 C468 1.368 . S
C474 C473 1.523 . S
C475 C459 1.429 . S
C475 C471 1.429 . S
C475 C476 1.523 . S
C476 C460 1.368 . S
C476 C472 1.368 . S
C476 C475 1.523 . S
H477 C452 0.950 . S
H478 C454 0.950 . S
H479 C455 0.949 . S
H480 C457 0.950 . S
H481 C459 0.950 . S
C123 C19 1.882 . S
C128 C99 1.811 . S
C153 C59 1.121 . S
C158 C105 1.052 . S
C183 C6 0.762 . S
C188 C96 0.758 . S
C213 C46 1.267 . S
C218 C121 1.162 . S
C243 C9 2.105 . S
C248 C87 1.993 . S
C278 C104 2.289 . S
C273 C49 2.370 . S
C303 C55 1.174 . S
C308 C100 1.096 . S
C338 C117 1.791 . S
C333 C18 1.864 . S
C368 C84 2.128 . S
C363 C58 2.229 . S
C398 C120 1.988 . S
C393 C10 2.052 . S
C428 C83 1.255 . S
C423 C50 1.327 . S
C458 C108 0.757 . S
C453 C15 0.761 . S
