# Generated by pormake.
# Topology myd, (4,6)-cn, num edge types: 1
# Building blocks:
#     Node 0, Type 0, BuildingBlock: NAWXER_clean_sbu_0, # of connection points: 4
#     Node 1, Type 0, BuildingBlock: NAWXER_clean_sbu_0, # of connection points: 4
#     Node 2, Type 0, BuildingBlock: NAWXER_clean_sbu_0, # of connection points: 4
#     Node 3, Type 0, BuildingBlock: NAWXER_clean_sbu_0, # of connection points: 4
#     Node 4, Type 0, BuildingBlock: NAWXER_clean_sbu_0, # of connection points: 4
#     Node 5, Type 0, BuildingBlock: NAWXER_clean_sbu_0, # of connection points: 4
#     Node 6, Type 0, BuildingBlock: NAWXER_clean_sbu_0, # of connection points: 4
#     Node 7, Type 0, BuildingBlock: NAWXER_clean_sbu_0, # of connection points: 4
#     Node 8, Type 0, BuildingBlock: NAWXER_clean_sbu_0, # of connection points: 4
#     Node 9, Type 0, BuildingBlock: NAWXER_clean_sbu_0, # of connection points: 4
#     Node 10, Type 0, BuildingBlock: NAWXER_clean_sbu_0, # of connection points: 4
#     Node 11, Type 0, BuildingBlock: NAWXER_clean_sbu_0, # of connection points: 4
#     Node 12, Type 1, BuildingBlock: CUWYAW_clean_sbu_0, # of connection points: 6
#     Node 13, Type 1, BuildingBlock: CUWYAW_clean_sbu_0, # of connection points: 6
#     Node 14, Type 1, BuildingBlock: CUWYAW_clean_sbu_0, # of connection points: 6
#     Node 15, Type 1, BuildingBlock: CUWYAW_clean_sbu_0, # of connection points: 6
#     Node 16, Type 1, BuildingBlock: CUWYAW_clean_sbu_0, # of connection points: 6
#     Node 17, Type 1, BuildingBlock: CUWYAW_clean_sbu_0, # of connection points: 6
#     Node 18, Type 1, BuildingBlock: CUWYAW_clean_sbu_0, # of connection points: 6
#     Node 19, Type 1, BuildingBlock: CUWYAW_clean_sbu_0, # of connection points: 6
#     Edge 20, Type (0, 1), BuildingBlock: XIVTED_clean_linker_0, # of connection points: 2
#     Edge 21, Type (0, 1), BuildingBlock: XIVTED_clean_linker_0, # of connection points: 2
#     Edge 22, Type (0, 1), BuildingBlock: XIVTED_clean_linker_0, # of connection points: 2
#     Edge 23, Type (0, 1), BuildingBlock: XIVTED_clean_linker_0, # of connection points: 2
#     Edge 24, Type (0, 1), BuildingBlock: XIVTED_clean_linker_0, # of connection points: 2
#     Edge 25, Type (0, 1), BuildingBlock: XIVTED_clean_linker_0, # of connection points: 2
#     Edge 26, Type (0, 1), BuildingBlock: XIVTED_clean_linker_0, # of connection points: 2
#     Edge 27, Type (0, 1), BuildingBlock: XIVTED_clean_linker_0, # of connection points: 2
#     Edge 28, Type (0, 1), BuildingBlock: XIVTED_clean_linker_0, # of connection points: 2
#     Edge 29, Type (0, 1), BuildingBlock: XIVTED_clean_linker_0, # of connection points: 2
#     Edge 30, Type (0, 1), BuildingBlock: XIVTED_clean_linker_0, # of connection points: 2
#     Edge 31, Type (0, 1), BuildingBlock: XIVTED_clean_linker_0, # of connection points: 2
#     Edge 32, Type (0, 1), BuildingBlock: XIVTED_clean_linker_0, # of connection points: 2
#     Edge 33, Type (0, 1), BuildingBlock: XIVTED_clean_linker_0, # of connection points: 2
#     Edge 34, Type (0, 1), BuildingBlock: XIVTED_clean_linker_0, # of connection points: 2
#     Edge 35, Type (0, 1), BuildingBlock: XIVTED_clean_linker_0, # of connection points: 2
#     Edge 36, Type (0, 1), BuildingBlock: XIVTED_clean_linker_0, # of connection points: 2
#     Edge 37, Type (0, 1), BuildingBlock: XIVTED_clean_linker_0, # of connection points: 2
#     Edge 38, Type (0, 1), BuildingBlock: XIVTED_clean_linker_0, # of connection points: 2
#     Edge 39, Type (0, 1), BuildingBlock: XIVTED_clean_linker_0, # of connection points: 2
#     Edge 40, Type (0, 1), BuildingBlock: XIVTED_clean_linker_0, # of connection points: 2
#     Edge 41, Type (0, 1), BuildingBlock: XIVTED_clean_linker_0, # of connection points: 2
#     Edge 42, Type (0, 1), BuildingBlock: XIVTED_clean_linker_0, # of connection points: 2
#     Edge 43, Type (0, 1), BuildingBlock: XIVTED_clean_linker_0, # of connection points: 2
#     Edge 44, Type (0, 1), BuildingBlock: XIVTED_clean_linker_0, # of connection points: 2
#     Edge 45, Type (0, 1), BuildingBlock: XIVTED_clean_linker_0, # of connection points: 2
#     Edge 46, Type (0, 1), BuildingBlock: XIVTED_clean_linker_0, # of connection points: 2
#     Edge 47, Type (0, 1), BuildingBlock: XIVTED_clean_linker_0, # of connection points: 2
#     Edge 48, Type (0, 1), BuildingBlock: XIVTED_clean_linker_0, # of connection points: 2
#     Edge 49, Type (0, 1), BuildingBlock: XIVTED_clean_linker_0, # of connection points: 2
#     Edge 50, Type (0, 1), BuildingBlock: XIVTED_clean_linker_0, # of connection points: 2
#     Edge 51, Type (0, 1), BuildingBlock: XIVTED_clean_linker_0, # of connection points: 2
#     Edge 52, Type (0, 1), BuildingBlock: XIVTED_clean_linker_0, # of connection points: 2
#     Edge 53, Type (0, 1), BuildingBlock: XIVTED_clean_linker_0, # of connection points: 2
#     Edge 54, Type (0, 1), BuildingBlock: XIVTED_clean_linker_0, # of connection points: 2
#     Edge 55, Type (0, 1), BuildingBlock: XIVTED_clean_linker_0, # of connection points: 2
#     Edge 56, Type (0, 1), BuildingBlock: XIVTED_clean_linker_0, # of connection points: 2
#     Edge 57, Type (0, 1), BuildingBlock: XIVTED_clean_linker_0, # of connection points: 2
#     Edge 58, Type (0, 1), BuildingBlock: XIVTED_clean_linker_0, # of connection points: 2
#     Edge 59, Type (0, 1), BuildingBlock: XIVTED_clean_linker_0, # of connection points: 2
#     Edge 60, Type (0, 1), BuildingBlock: XIVTED_clean_linker_0, # of connection points: 2
#     Edge 61, Type (0, 1), BuildingBlock: XIVTED_clean_linker_0, # of connection points: 2
#     Edge 62, Type (0, 1), BuildingBlock: XIVTED_clean_linker_0, # of connection points: 2
#     Edge 63, Type (0, 1), BuildingBlock: XIVTED_clean_linker_0, # of connection points: 2
#     Edge 64, Type (0, 1), BuildingBlock: XIVTED_clean_linker_0, # of connection points: 2
#     Edge 65, Type (0, 1), BuildingBlock: XIVTED_clean_linker_0, # of connection points: 2
#     Edge 66, Type (0, 1), BuildingBlock: XIVTED_clean_linker_0, # of connection points: 2
#     Edge 67, Type (0, 1), BuildingBlock: XIVTED_clean_linker_0, # of connection points: 2
# Relax obj value: 0.386
# Max RMSD: 0.405
# Mean RMSD: 0.182
data_MOF--net-myd--node1-NAWXER_clean_sbu_0--node2-CUWYAW_clean_sbu_0--edge1-XIVTED_clean_linker_0
_symmetry_space_group_name_H-M    P1
_symmetry_Int_Tables_number       1
_symmetry_cell_setting            triclinic
loop_
_symmetry_equiv_pos_as_xyz
'x, y, z'
_cell_length_a     49.508669
_cell_length_b     48.204131
_cell_length_c     48.671738
_cell_angle_alpha  86.945971
_cell_angle_beta   87.98332
_cell_angle_gamma 83.524243
loop_
_atom_site_label
_atom_site_type_symbol
_atom_site_fract_x
_atom_site_fract_y
_atom_site_fract_z
_atom_type_partial_charge
C0 C 0.07149 0.29263 0.31862 0.0
C1 C 0.05227 0.36037 0.39074 0.0
O2 O 0.08911 0.30656 0.32834 0.0
Zn3 Zn 0.06323 0.32592 0.35386 0.0
O4 O 0.04661 0.29647 0.32697 0.0
Zn5 Zn 0.02113 0.3199 0.356 0.0
O6 O 0.99701 0.34199 0.32938 0.0
O7 O 0.03942 0.35123 0.32367 0.0
O8 O 0.03082 0.34989 0.38421 0.0
O9 O 0.0748 0.35209 0.37893 0.0
O10 O 0.0544 0.28895 0.37809 0.0
O11 O 0.01011 0.28737 0.37897 0.0
C12 C 0.01473 0.35499 0.31598 0.0
C13 C 0.03379 0.27606 0.38521 0.0
C14 C 0.98668 0.77848 0.30141 0.0
C15 C 1.00108 0.70754 0.23329 0.0
O16 O 0.01174 0.76842 0.29897 0.0
Zn17 Zn 0.03608 0.73827 0.27407 0.0
O18 O 0.96895 0.76967 0.28682 0.0
Zn19 Zn 0.9942 0.74361 0.26747 0.0
O20 O 1.00741 0.71294 0.30002 0.0
O21 O 0.05195 0.71262 0.30179 0.0
O22 O 0.97953 0.72246 0.24051 0.0
O23 O 0.02363 0.71123 0.24403 0.0
O24 O 0.06008 0.76186 0.2546 0.0
O25 O 0.01707 0.7731 0.24457 0.0
C26 C 0.03012 0.70351 0.31091 0.0
C27 C 0.04198 0.77807 0.24215 0.0
C28 C 0.39008 0.04069 0.27054 0.0
C29 C 0.31988 0.02367 0.3408 0.0
O30 O 0.38437 1.01703 0.28041 0.0
Zn31 Zn 0.35696 0.02985 0.30843 0.0
O32 O 0.37946 0.0629 0.28184 0.0
Zn33 Zn 0.35191 0.07403 0.31507 0.0
O34 O 0.37342 0.08566 0.34577 0.0
O35 O 0.37793 0.03995 0.34357 0.0
O36 O 0.32508 0.04907 0.33784 0.0
O37 O 0.33345 1.00459 0.32721 0.0
O38 O 0.32571 0.0542 0.28486 0.0
O39 O 0.32349 0.0986 0.29461 0.0
C40 C 0.38243 0.06164 0.35601 0.0
C41 C 0.3145 0.07941 0.28154 0.0
C42 C 0.72336 0.51011 0.34502 0.0
C43 C 0.64829 0.52027 0.41439 0.0
O44 O 0.71143 0.49021 0.35637 0.0
Zn45 Zn 0.68414 0.51329 0.37809 0.0
O46 O 0.71514 0.53537 0.35075 0.0
Zn47 Zn 0.68413 0.55799 0.37483 0.0
O48 O 0.70464 0.57673 0.3998 0.0
O49 O 0.70778 0.5308 0.40701 0.0
O50 O 0.65527 0.54334 0.40375 0.0
O51 O 0.65889 0.49725 0.40493 0.0
O52 O 0.65994 0.53417 0.34619 0.0
O53 O 0.66281 0.57947 0.34731 0.0
C54 C 0.71318 0.55476 0.41402 0.0
C55 C 0.65395 0.55917 0.33617 0.0
C56 C 0.33661 0.39001 1.0107 0.0
C57 C 0.40994 0.31187 1.01233 0.0
O58 O 0.34631 0.37654 0.99011 0.0
Zn59 Zn 0.37707 0.35475 1.00865 0.0
O60 O 0.34914 0.38663 0.03345 0.0
Zn61 Zn 0.38303 0.36066 0.05093 0.0
O62 O 0.40901 0.38547 0.05975 0.0
O63 O 0.40642 0.38349 1.01486 0.0
O64 O 0.40676 0.32418 0.03514 0.0
O65 O 0.39764 0.32302 0.99126 0.0
O66 O 0.35411 0.33185 0.03834 0.0
O67 O 0.36279 0.34277 0.0806 0.0
C68 C 0.4168 0.39313 0.0357 0.0
C69 C 0.35023 0.32908 0.06444 0.0
C70 C 0.29744 0.82541 0.53654 0.0
C71 C 0.37427 0.75553 0.56392 0.0
O72 O 0.30712 0.80982 0.51716 0.0
Zn73 Zn 0.33813 0.77548 0.51087 0.0
O74 O 0.30757 0.82138 0.56031 0.0
Zn75 Zn 0.33448 0.78951 0.55207 0.0
O76 O 0.36256 0.80866 0.52487 0.0
O77 O 0.36189 0.7919 0.48338 0.0
O78 O 0.35946 0.7714 0.57988 0.0
O79 O 0.36796 0.75513 0.53862 0.0
O80 O 0.31723 0.7459 0.50115 0.0
O81 O 0.30912 0.75814 0.54392 0.0
C82 C 0.37131 0.80781 0.49982 0.0
C83 C 0.3042 0.74333 0.52395 0.0
C84 C 0.83332 0.88302 0.53444 0.0
C85 C 0.90623 0.80668 0.52847 0.0
O86 O 0.84284 0.88074 0.50967 0.0
Zn87 Zn 0.876 0.85581 0.48905 0.0
O88 O 0.84594 0.86922 0.55396 0.0
Zn89 Zn 0.87372 0.84862 0.53197 0.0
O90 O 0.90155 0.87821 0.51947 0.0
O91 O 0.90155 0.88107 0.47427 0.0
O92 O 0.8963 0.81811 0.55006 0.0
O93 O 0.90063 0.81851 0.50477 0.0
O94 O 0.85425 0.83892 0.46357 0.0
O95 O 0.8483 0.82582 0.50757 0.0
C96 C 0.91054 0.88842 0.49653 0.0
C97 C 0.84279 0.8243 0.48215 0.0
C98 C 0.5145 0.8568 0.811 0.0
C99 C 0.53151 0.78092 0.88338 0.0
O100 O 0.49684 0.84375 0.82436 0.0
Zn101 Zn 0.52052 0.82259 0.85146 0.0
O102 O 0.53911 0.85349 0.81899 0.0
Zn103 Zn 0.56236 0.82899 0.85038 0.0
O104 O 0.58905 0.8082 0.82643 0.0
O105 O 0.54677 0.79815 0.82391 0.0
O106 O 0.55232 0.79382 0.87693 0.0
O107 O 0.5084 0.79102 0.8744 0.0
O108 O 0.52943 0.85342 0.87947 0.0
O109 O 0.57334 0.8564 0.87453 0.0
C110 C 0.57186 0.79403 0.81635 0.0
C111 C 0.55057 0.86453 0.88597 0.0
C112 C 0.51984 0.20531 0.80364 0.0
C113 C 0.52663 0.284 0.73758 0.0
O114 O 0.4966 0.21533 0.79434 0.0
Zn115 Zn 0.48107 0.24747 0.76429 0.0
O116 O 0.54131 0.21483 0.79387 0.0
Zn117 Zn 0.52384 0.24199 0.768 0.0
O118 O 0.50125 0.26975 0.79597 0.0
O119 O 0.45744 0.27224 0.78711 0.0
O120 O 0.54592 0.26734 0.74763 0.0
O121 O 0.50207 0.27838 0.7417 0.0
O122 O 0.46498 0.22705 0.73724 0.0
O123 O 0.50936 0.21631 0.73832 0.0
C124 C 0.47652 0.27957 0.80099 0.0
C125 C 0.48634 0.21256 0.7287 0.0
C126 C 0.81883 0.57731 0.78259 0.0
C127 C 0.8876 0.55951 0.85649 0.0
O128 O 0.82951 0.59654 0.79397 0.0
Zn129 Zn 0.85654 0.57164 0.81633 0.0
O130 O 0.82815 0.5518 0.78782 0.0
Zn131 Zn 0.85777 0.52694 0.81201 0.0
O132 O 0.83282 0.50513 0.83393 0.0
O133 O 0.82896 0.55026 0.84155 0.0
O134 O 0.8821 0.53782 0.84458 0.0
O135 O 0.87823 0.5836 0.8466 0.0
O136 O 0.88494 0.55584 0.78518 0.0
O137 O 0.88284 0.5105 0.78401 0.0
C138 C 0.82161 0.52591 0.84693 0.0
C139 C 0.89267 0.53242 0.77443 0.0
C140 C 0.21558 0.02006 0.8445 0.0
C141 C 0.14331 0.02716 0.91612 0.0
O142 O 0.20757 0.99999 0.85955 0.0
Zn143 Zn 0.17783 0.02204 0.87851 0.0
O144 O 0.20336 0.04484 0.84651 0.0
Zn145 Zn 0.16961 0.06594 0.86925 0.0
O146 O 0.18756 0.09312 0.88754 0.0
O147 O 0.19912 0.04886 0.90137 0.0
O148 O 0.14556 0.05049 0.90283 0.0
O149 O 0.15715 1.00502 0.90822 0.0
O150 O 0.15122 0.03293 0.84523 0.0
O151 O 0.14471 0.07893 0.84082 0.0
C152 C 0.20077 0.075 0.90332 0.0
C153 C 0.14066 0.05527 0.83249 0.0
C154 C 0.80039 0.24654 0.02404 0.0
C155 C 0.86913 0.30977 1.00296 0.0
O156 O 0.80534 0.26067 0.04451 0.0
Zn157 Zn 0.83073 0.29162 0.05385 0.0
O158 O 0.81328 0.24988 1.00127 0.0
Zn159 Zn 0.83445 0.27868 1.01228 0.0
O160 O 0.86307 0.25647 0.04035 0.0
O161 O 0.85482 0.27242 0.08178 0.0
O162 O 0.85935 0.29489 0.98581 0.0
O163 O 0.85993 0.31029 0.02786 0.0
O164 O 0.80413 0.32356 0.06245 0.0
O165 O 0.80373 0.31325 0.01894 0.0
C166 C 0.86911 0.25613 0.0658 0.0
C167 C 0.79412 0.32837 0.0387 0.0
C168 C 0.06611 0.06817 0.19556 0.0
Eu169 Eu 0.08391 0.10206 0.15718 0.0
C170 C 0.06454 0.03781 0.19797 0.0
C171 C 0.06092 0.02283 0.17464 0.0
C172 C 0.0602 0.9939 0.17704 0.0
C173 C 0.06339 0.97937 0.20274 0.0
C174 C 0.06713 0.99445 0.22603 0.0
C175 C 0.06764 0.02344 0.22365 0.0
C176 C 0.0925 0.08182 0.10574 0.0
C177 C 0.14924 0.10572 0.16242 0.0
C178 C 0.12773 0.16859 0.077 0.0
Eu179 Eu 0.11012 0.13868 0.1185 0.0
C180 C 0.14909 0.18735 0.07521 0.0
C181 C 0.16048 0.19458 0.09943 0.0
C182 C 0.18065 0.21247 0.09838 0.0
C183 C 0.19008 0.22329 0.07299 0.0
C184 C 0.1786 0.21618 0.04861 0.0
C185 C 0.15808 0.19836 0.04974 0.0
C186 C 0.10554 0.15929 0.16912 0.0
C187 C 0.04497 0.14566 0.12451 0.0
O188 O 0.09055 0.07592 0.19495 0.0
O189 O 0.0505 0.08242 0.17751 0.0
O190 O 0.07038 0.08047 0.1202 0.0
O191 O 0.10917 0.09316 0.1189 0.0
O192 O 0.12647 0.09869 0.1745 0.0
O193 O 0.14895 0.11913 0.13803 0.0
O194 O 0.10673 0.17697 0.09264 0.0
O195 O 0.13597 0.142 0.08143 0.0
O196 O 0.12571 0.16172 0.15203 0.0
O197 O 0.08714 0.14764 0.15836 0.0
O198 O 0.06552 0.14327 0.1064 0.0
O199 O 0.04885 0.13538 0.14984 0.0
H200 H 0.05882 0.03345 0.15453 0.0
H201 H 0.0576 0.98283 0.15869 0.0
H202 H 0.06936 0.98387 0.24616 0.0
H203 H 0.07057 0.03463 0.24184 0.0
H204 H 0.15401 0.18622 0.11925 0.0
H205 H 0.18948 0.2171 0.11744 0.0
H206 H 0.18555 0.22431 0.02874 0.0
H207 H 0.14941 0.19305 0.03084 0.0
C208 C 0.89396 0.51631 0.10103 0.0
Eu209 Eu 0.94592 0.50173 0.09591 0.0
C210 C 0.87661 0.51536 0.12645 0.0
C211 C 0.88755 0.51921 0.15207 0.0
C212 C 0.87213 0.51619 0.17645 0.0
C213 C 0.84527 0.50931 0.17595 0.0
C214 C 0.83432 0.5055 0.15023 0.0
C215 C 0.84987 0.50845 0.12575 0.0
C216 C 0.96784 0.46934 0.13986 0.0
C217 C 0.98476 0.54413 0.11748 0.0
C218 C 0.0606 0.47878 0.0843 0.0
Eu219 Eu 1.00765 0.48904 0.08374 0.0
C220 C 0.08646 0.46733 0.07066 0.0
C221 C 0.09395 0.47545 0.04347 0.0
C222 C 0.12033 0.46741 0.03287 0.0
C223 C 0.13977 0.45148 0.04939 0.0
C224 C 0.13173 0.44248 0.0761 0.0
C225 C 0.10546 0.45028 0.08655 0.0
C226 C 0.97908 0.5104 0.0388 0.0
C227 C 0.9681 0.44927 0.06042 0.0
O228 O 0.91194 0.53436 0.10007 0.0
O229 O 0.90415 0.49196 0.09234 0.0
O230 O 0.94268 0.4787 0.13739 0.0
O231 O 0.98069 0.47756 0.11861 0.0
O232 O 0.9598 0.54055 0.11116 0.0
O233 O 1.00583 0.52601 0.11114 0.0
O234 O 0.04418 0.46133 0.09507 0.0
O235 O 0.04776 0.50206 0.07401 0.0
O236 O 1.00091 0.49284 0.03809 0.0
O237 O 0.97415 0.51793 0.06333 0.0
O238 O 0.99221 0.44916 0.0714 0.0
O239 O 0.9485 0.46987 0.06371 0.0
H240 H 0.90826 0.52415 0.15334 0.0
H241 H 0.8815 0.5188 0.19578 0.0
H242 H 0.81365 0.50047 0.14898 0.0
H243 H 0.84109 0.50509 0.10629 0.0
H244 H 0.07976 0.48872 0.03075 0.0
H245 H 0.12589 0.47474 1.01224 0.0
H246 H 0.14603 0.42985 0.08923 0.0
H247 H 0.10029 0.44382 0.10757 0.0
C248 C 0.12391 0.05491 0.5438 0.0
Eu249 Eu 0.1102 0.03522 0.49804 0.0
C250 C 0.12046 0.05065 0.57394 0.0
C251 C 0.09712 0.06297 0.5878 0.0
C252 C 0.09516 0.06138 0.61648 0.0
C253 C 0.1165 0.04753 0.63194 0.0
C254 C 0.13951 0.03449 0.61812 0.0
C255 C 0.14153 0.03616 0.58938 0.0
C256 C 0.06373 1.00927 0.49468 0.0
C257 C 0.14299 0.97393 0.48902 0.0
C258 C 0.0875 0.98887 0.40135 0.0
Eu259 Eu 0.10456 1.00995 0.4451 0.0
C260 C 0.06256 0.98145 0.38964 0.0
C261 C 0.06413 0.9707 0.36342 0.0
C262 C 0.04328 0.95638 0.35466 0.0
C263 C 0.02076 0.95224 0.37222 0.0
C264 C 0.0182 0.96512 0.39758 0.0
C265 C 0.03887 0.97996 0.40607 0.0
C266 C 0.15348 0.02829 0.44879 0.0
C267 C 0.0827 0.07563 0.45206 0.0
O268 O 0.13921 0.03568 0.53071 0.0
O269 O 0.10245 0.06501 0.53011 0.0
O270 O 0.06484 0.0317 0.50779 0.0
O271 O 0.08705 1.00086 0.48593 0.0
O272 O 0.14038 0.9965 0.50347 0.0
O273 O 0.12867 0.9727 0.46675 0.0
O274 O 0.09518 0.97425 0.42357 0.0
O275 O 0.09063 1.0153 0.40261 0.0
O276 O 0.14878 1.00718 0.43518 0.0
O277 O 0.13145 0.04155 0.45718 0.0
O278 O 0.07757 0.05223 0.44107 0.0
O279 O 0.09969 0.07456 0.47229 0.0
H280 H 0.08058 0.07444 0.57656 0.0
H281 H 0.07706 0.07135 0.6266 0.0
H282 H 0.1564 0.02392 0.62952 0.0
H283 H 0.15991 0.02676 0.57929 0.0
H284 H 0.08234 0.97159 0.35053 0.0
H285 H 0.04596 0.94648 0.33512 0.0
H286 H 1.00096 0.96241 0.41141 0.0
H287 H 0.0372 0.98867 0.42615 0.0
C288 C 0.0752 0.58808 0.56733 0.0
Eu289 Eu 0.03432 0.56811 0.54591 0.0
C290 C 0.09843 0.60346 0.55796 0.0
C291 C 0.12418 0.58903 0.55235 0.0
C292 C 0.14653 0.60368 0.54551 0.0
C293 C 0.14365 0.63306 0.54444 0.0
C294 C 0.11777 0.64745 0.54934 0.0
C295 C 0.09544 0.63285 0.55607 0.0
C296 C 0.03968 0.51912 0.51961 0.0
C297 C 0.02258 0.58191 0.48318 0.0
C298 C 0.94145 0.53518 0.50446 0.0
Eu299 Eu 0.98293 0.55251 0.52643 0.0
C300 C 0.91231 0.53899 0.51245 0.0
C301 C 0.89546 0.56124 0.50021 0.0
C302 C 0.86815 0.56585 0.50802 0.0
C303 C 0.85681 0.54815 0.5281 0.0
C304 C 0.87372 0.52614 0.54079 0.0
C305 C 0.90128 0.52161 0.53305 0.0
C306 C 0.97723 0.60432 0.54759 0.0
C307 C 0.99082 0.54364 0.59056 0.0
O308 O 0.05087 0.60165 0.5657 0.0
O309 O 0.07584 0.56211 0.5606 0.0
O310 O 0.0569 0.53749 0.51711 0.0
O311 O 0.02096 0.52667 0.53684 0.0
O312 O 0.03398 0.59108 0.50452 0.0
O313 O 1.00591 0.56237 0.48655 0.0
O314 O 0.95752 0.5192 0.52093 0.0
O315 O 0.95187 0.55788 0.49567 0.0
O316 O 0.95966 0.5864 0.55091 0.0
O317 O 0.99681 0.59424 0.53263 0.0
O318 O 0.97795 0.53544 0.5698 0.0
O319 O 0.01181 0.55819 0.58637 0.0
H320 H 0.12722 0.5664 0.55385 0.0
H321 H 0.16626 0.592 0.54212 0.0
H322 H 0.11485 0.67009 0.54834 0.0
H323 H 0.07595 0.64466 0.56032 0.0
H324 H 0.9033 0.57499 0.48427 0.0
H325 H 0.85564 0.58248 0.49714 0.0
H326 H 0.86552 0.51204 0.55616 0.0
H327 H 0.91381 0.50436 0.54301 0.0
C328 C 0.38354 1.01521 0.59941 0.0
Eu329 Eu 0.43545 1.00207 0.59434 0.0
C330 C 0.36708 1.0162 0.62534 0.0
C331 C 0.37906 0.0218 0.64991 0.0
C332 C 0.36463 0.02034 0.67504 0.0
C333 C 0.33786 1.0131 0.6763 0.0
C334 C 0.3259 1.0074 0.65165 0.0
C335 C 0.34041 1.00892 0.62641 0.0
C336 C 0.4611 0.97051 0.63688 0.0
C337 C 0.4736 0.04587 0.61622 0.0
C338 C 0.55296 0.97709 0.58799 0.0
Eu339 Eu 0.50118 0.99254 0.58251 0.0
C340 C 0.5798 0.96727 0.5752 0.0
C341 C 0.59575 0.98599 0.56081 0.0
C342 C 0.62297 0.97759 0.55341 0.0
C343 C 0.63493 0.95038 0.5605 0.0
C344 C 0.61855 0.93135 0.57367 0.0
C345 C 0.59138 0.9397 0.58098 0.0
C346 C 0.47402 0.02068 0.53865 0.0
C347 C 0.46209 0.95415 0.55381 0.0
O348 O 0.40074 0.03408 0.59577 0.0
O349 O 0.39433 0.99013 0.59314 0.0
O350 O 0.43524 0.97719 0.63529 0.0
O351 O 0.47193 0.98105 0.6155 0.0
O352 O 0.44913 0.04182 0.60829 0.0
O353 O 0.49553 0.02808 0.61161 0.0
O354 O 0.53437 0.95965 0.591 0.0
O355 O 0.54273 1.00312 0.58295 0.0
O356 O 0.50028 1.01431 0.53898 0.0
O357 O 0.46475 1.01256 0.56175 0.0
O358 O 0.48669 0.95514 0.56349 0.0
O359 O 0.4407 0.97204 0.56016 0.0
H360 H 0.39986 0.02683 0.64978 0.0
H361 H 0.37467 0.0244 0.6936 0.0
H362 H 0.30525 1.00199 0.65184 0.0
H363 H 0.33092 1.00408 0.60778 0.0
H364 H 0.58762 1.00749 0.55627 0.0
H365 H 0.63502 0.99283 0.54341 0.0
H366 H 0.62696 0.9101 0.57903 0.0
H367 H 0.57976 0.92484 0.59225 0.0
C368 C 0.56264 0.57203 0.6825 0.0
Eu369 Eu 0.59262 0.60368 0.65226 0.0
C370 C 0.56165 0.5418 0.6878 0.0
C371 C 0.57674 0.5224 0.67115 0.0
C372 C 0.5743 0.49381 0.67518 0.0
C373 C 0.55663 0.48411 0.69589 0.0
C374 C 0.54191 0.50366 0.71282 0.0
C375 C 0.54441 0.53223 0.70879 0.0
C376 C 0.61299 0.58396 0.60304 0.0
C377 C 0.65605 0.60443 0.66021 0.0
C378 C 0.64347 0.67135 0.57636 0.0
Eu379 Eu 0.62056 0.64418 0.61617 0.0
C380 C 0.65652 0.68704 0.55369 0.0
C381 C 0.65744 0.71594 0.555 0.0
C382 C 0.6742 0.72997 0.53666 0.0
C383 C 0.69033 0.71538 0.51657 0.0
C384 C 0.68776 0.68687 0.51399 0.0
C385 C 0.67107 0.67282 0.53242 0.0
C386 C 0.6161 0.65892 0.66918 0.0
C387 C 0.55505 0.65401 0.62021 0.0
O388 O 0.58349 0.58266 0.6919 0.0
O389 O 0.55673 0.58159 0.65754 0.0
O390 O 0.61508 0.56962 0.62618 0.0
O391 O 0.60056 0.60751 0.6071 0.0
O392 O 0.63288 0.60008 0.67308 0.0
O393 O 0.65629 0.61613 0.63492 0.0
O394 O 0.64664 0.64393 0.57901 0.0
O395 O 0.6272 0.68388 0.59486 0.0
O396 O 0.6365 0.66297 0.65268 0.0
O397 O 0.59794 0.64862 0.65662 0.0
O398 O 0.57699 0.65949 0.60554 0.0
O399 O 0.55664 0.6355 0.64131 0.0
H400 H 0.59004 0.52938 0.6547 0.0
H401 H 0.58569 0.47939 0.6616 0.0
H402 H 0.52842 0.49686 0.72921 0.0
H403 H 0.53259 0.5469 0.72184 0.0
H404 H 0.6465 0.72743 0.57124 0.0
H405 H 0.67584 0.75185 0.53946 0.0
H406 H 0.69953 0.67512 0.49845 0.0
H407 H 0.67057 0.65056 0.53079 0.0
C408 C 0.62558 0.57473 0.04702 0.0
Eu409 Eu 0.61353 0.54371 1.008 0.0
C410 C 0.62623 0.57268 0.07716 0.0
C411 C 0.60921 0.55603 0.0927 0.0
C412 C 0.60932 0.5552 0.12142 0.0
C413 C 0.62656 0.57089 0.13505 0.0
C414 C 0.64403 0.587 0.1193 0.0
C415 C 0.64381 0.58791 0.09059 0.0
C416 C 0.56958 0.51454 1.01476 0.0
C417 C 0.64138 0.4821 1.00202 0.0
C418 C 0.58114 0.4855 0.92422 0.0
Eu419 Eu 0.59895 0.5189 0.95814 0.0
C420 C 0.55722 0.47513 0.9128 0.0
C421 C 0.55723 0.47057 0.88456 0.0
C422 C 0.53837 0.45456 0.87424 0.0
C423 C 0.51942 0.44273 0.89213 0.0
C424 C 0.51811 0.44909 0.91997 0.0
C425 C 0.53685 0.46516 0.93022 0.0
C426 C 0.64606 0.54277 0.95037 0.0
C427 C 0.58375 0.58364 0.9606 0.0
O428 O 0.64371 0.55803 0.03398 0.0
O429 O 0.60151 0.57643 0.03642 0.0
O430 O 0.58846 0.51403 0.03253 0.0
O431 O 0.574 0.5311 0.99463 0.0
O432 O 0.64134 0.50454 1.01628 0.0
O433 O 0.6261 0.48253 0.98001 0.0
O434 O 0.58583 0.47892 0.95014 0.0
O435 O 0.58713 0.51053 0.91651 0.0
O436 O 0.62766 0.54305 0.93206 0.0
O437 O 0.63879 0.52926 0.97166 0.0
O438 O 0.57355 0.56121 0.95279 0.0
O439 O 0.60386 0.5806 0.9779 0.0
H440 H 0.59558 0.54399 0.08263 0.0
H441 H 0.59549 0.54274 0.13292 0.0
H442 H 0.65796 0.59885 0.12914 0.0
H443 H 0.65724 0.60066 0.07885 0.0
H444 H 0.57297 0.47775 0.87081 0.0
H445 H 0.53997 0.44963 0.85274 0.0
H446 H 0.50364 0.4402 0.93412 0.0
H447 H 0.53655 0.46803 0.95208 0.0
C448 C 0.56365 0.10183 0.05909 0.0
Eu449 Eu 0.52692 0.07487 0.03843 0.0
C450 C 0.58898 0.11446 0.05119 0.0
C451 C 0.61368 0.0982 0.04497 0.0
C452 C 0.63756 0.11097 0.03944 0.0
C453 C 0.6372 0.14013 0.04031 0.0
C454 C 0.61235 0.1563 0.04576 0.0
C455 C 0.58861 0.14363 0.05122 0.0
C456 C 0.53787 0.02527 1.01299 0.0
C457 C 0.51325 0.08318 0.9752 0.0
C458 C 0.44389 1.0137 1.00913 0.0
Eu459 Eu 0.4777 0.04945 0.01889 0.0
C460 C 0.41452 1.01432 1.01342 0.0
C461 C 0.39956 0.0386 0.02272 0.0
C462 C 0.37132 0.0418 0.02175 0.0
C463 C 0.35773 0.02072 1.01137 0.0
C464 C 0.37268 0.99507 1.00518 0.0
C465 C 0.40104 0.99201 1.00591 0.0
C466 C 0.46773 0.10548 0.0213 0.0
C467 C 0.48238 0.05424 0.08411 0.0
O468 O 0.54118 0.11409 0.04842 0.0
O469 O 0.56445 0.07451 0.06094 0.0
O470 O 0.55323 0.04538 1.01042 0.0
O471 O 0.51868 0.03178 0.02984 0.0
O472 O 0.52253 0.09516 0.99616 0.0
O473 O 0.49976 0.06093 0.97882 0.0
O474 O 0.45785 1.01246 0.03148 0.0
O475 O 0.45156 0.03218 0.99072 0.0
O476 O 0.45465 0.09053 1.00603 0.0
O477 O 0.4825 0.08976 0.03793 0.0
O478 O 0.46622 0.05083 0.06387 0.0
O479 O 0.50738 0.06118 0.07951 0.0
H480 H 0.6147 0.07565 0.04486 0.0
H481 H 0.65645 0.09795 0.03548 0.0
H482 H 0.61131 0.17885 0.04618 0.0
H483 H 0.56994 0.1567 0.05599 0.0
H484 H 0.40983 0.05589 0.02886 0.0
H485 H 0.36051 0.06184 0.02652 0.0
H486 H 0.36263 0.97829 0.9976 0.0
H487 H 0.41242 0.97296 0.99905 0.0
H488 H 0.0739 0.2373 0.36808 0.0
H489 H 0.05879 0.11842 0.482 0.0
H490 H 1.00497 0.24626 0.42477 0.0
H491 H 0.0804 0.09741 0.39858 0.0
H492 H 0.04414 0.16677 0.46558 0.0
H493 H 0.08254 0.18784 0.38297 0.0
C494 C 0.06067 0.22892 0.38389 0.0
C495 C 0.03876 0.24614 0.39535 0.0
C496 C 0.05171 0.15149 0.45084 0.0
C497 C 0.04886 0.18925 0.41272 0.0
C498 C 0.06005 0.1239 0.46015 0.0
C499 C 0.07045 0.10372 0.44157 0.0
C500 C 0.05474 0.15935 0.42282 0.0
C501 C 0.07206 0.11213 0.41354 0.0
C502 C 0.06552 0.20059 0.39216 0.0
C503 C 0.0221 0.23386 0.41543 0.0
N504 N 0.06478 0.13938 0.40509 0.0
N505 N 0.02775 0.20628 0.42381 0.0
H506 H 0.09227 0.3918 0.40422 0.0
H507 H 1.00229 0.48097 0.51636 0.0
H508 H 1.00838 0.38032 0.42338 0.0
H509 H 0.07968 0.50154 0.48275 0.0
H510 H 1.00479 0.44182 0.48551 0.0
H511 H 0.08889 0.42955 0.43608 0.0
C512 C 0.07314 0.39708 0.41522 0.0
C513 C 0.0506 0.38272 0.41101 0.0
C514 C 0.02122 0.4549 0.48495 0.0
C515 C 0.04655 0.42627 0.44781 0.0
C516 C 0.01981 0.47722 0.50258 0.0
C517 C 0.04081 0.49457 0.50216 0.0
C518 C 0.04395 0.44974 0.46699 0.0
C519 C 0.06304 0.4887 0.48387 0.0
C520 C 0.07119 0.41878 0.4334 0.0
C521 C 0.02632 0.39075 0.4259 0.0
N522 N 0.06405 0.46685 0.46716 0.0
N523 N 0.02495 0.41191 0.44364 0.0
H524 H 0.00984 0.81504 0.20937 0.0
H525 H 0.09712 0.9404 0.23196 0.0
H526 H 0.08839 0.80337 0.24666 0.0
H527 H 0.02811 0.94832 0.17926 0.0
H528 H 0.09464 0.88997 0.23703 0.0
H529 H 0.017 0.86337 0.19645 0.0
C530 C 0.02883 0.82247 0.21438 0.0
C531 C 0.04849 0.80512 0.22924 0.0
C532 C 0.08017 0.9027 0.22417 0.0
C533 C 0.05656 0.86069 0.21504 0.0
C534 C 0.08144 0.93151 0.22146 0.0
C535 C 0.0627 0.94861 0.20527 0.0
C536 C 0.05983 0.89088 0.21084 0.0
C537 C 0.04307 0.93591 0.1918 0.0
C538 C 0.03286 0.85013 0.20708 0.0
C539 C 0.07269 0.81594 0.23519 0.0
N540 N 0.042 0.90786 0.19507 0.0
N541 N 0.07587 0.84314 0.22843 0.0
H542 H 0.95658 0.69485 0.20697 0.0
H543 H 0.03246 0.55958 0.13667 0.0
H544 H 0.04233 0.66879 0.2155 0.0
H545 H 0.94623 0.58576 0.13338 0.0
H546 H 0.03762 0.60044 0.16326 0.0
H547 H 0.95362 0.65619 0.1775 0.0
C548 C 0.97487 0.68109 0.20252 0.0
C549 C 0.99973 0.6851 0.21385 0.0
C550 C 0.01762 0.59721 0.15661 0.0
C551 C 0.99644 0.64039 0.18001 0.0
C552 C 0.01465 0.57391 0.14141 0.0
C553 C 0.98885 0.56911 0.13277 0.0
C554 C 0.99464 0.61584 0.16316 0.0
C555 C 0.96653 0.58844 0.13955 0.0
C556 C 0.97315 0.65891 0.18568 0.0
C557 C 0.02273 0.6665 0.20725 0.0
N558 N 0.96996 0.61081 0.15432 0.0
N559 N 0.02051 0.64487 0.19084 0.0
H560 H 0.38451 0.08344 0.23181 0.0
H561 H 0.50829 0.03561 0.13197 0.0
H562 H 0.43135 1.00379 0.2491 0.0
H563 H 0.43013 0.06903 0.1009 0.0
H564 H 0.4872 0.03184 0.17862 0.0
H565 H 0.40821 0.08689 0.187 0.0
C566 C 0.40009 0.06684 0.22637 0.0
C567 C 0.40601 0.04329 0.24428 0.0
C568 C 0.47482 0.03996 0.16147 0.0
C569 C 0.43347 0.04743 0.19313 0.0
C570 C 0.4868 0.04226 0.135 0.0
C571 C 0.47087 0.05244 0.11258 0.0
C572 C 0.44701 0.04881 0.16552 0.0
C573 C 0.4431 0.0608 0.11756 0.0
C574 C 0.41345 0.06879 0.20074 0.0
C575 C 0.42616 0.02226 0.23589 0.0
N576 N 0.43213 0.05907 0.1435 0.0
N577 N 0.43938 0.02492 0.21095 0.0
H578 H 0.6318 0.52052 0.30752 0.0
H579 H 0.62964 0.61501 0.16763 0.0
H580 H 0.64788 0.60689 0.30264 0.0
H581 H 0.62239 0.52645 0.17206 0.0
H582 H 0.63036 0.61407 0.21778 0.0
H583 H 0.62069 0.52452 0.25899 0.0
C584 C 0.63248 0.54052 0.29639 0.0
C585 C 0.64114 0.56332 0.30909 0.0
C586 C 0.62843 0.59488 0.20779 0.0
C587 C 0.62884 0.56788 0.25336 0.0
C588 C 0.62826 0.59534 0.17913 0.0
C589 C 0.62617 0.57072 0.16556 0.0
C590 C 0.62647 0.56962 0.22306 0.0
C591 C 0.62381 0.54598 0.1816 0.0
C592 C 0.62629 0.54272 0.26861 0.0
C593 C 0.64145 0.58872 0.29366 0.0
N594 N 0.62418 0.54604 0.20949 0.0
N595 N 0.63578 0.59021 0.26648 0.0
H596 H 0.37772 0.01905 0.39429 0.0
H597 H 0.49192 0.05025 0.49363 0.0
H598 H 0.41565 0.09508 0.38125 0.0
H599 H 0.42131 1.0132 0.52559 0.0
H600 H 0.46873 0.06262 0.45009 0.0
H601 H 0.3979 1.01167 0.43971 0.0
C602 C 0.39044 0.03418 0.40089 0.0
C603 C 0.39507 0.05771 0.38369 0.0
C604 C 0.45824 0.05199 0.46671 0.0
C605 C 0.41864 0.04903 0.43593 0.0
C606 C 0.47144 0.04489 0.49159 0.0
C607 C 0.45859 0.03067 0.51344 0.0
C608 C 0.43222 0.04404 0.46313 0.0
C609 C 0.43206 0.02417 0.50945 0.0
C610 C 0.40178 0.03 0.42697 0.0
C611 C 0.4115 0.07668 0.3937 0.0
N612 N 0.41997 0.03045 0.48469 0.0
N613 N 0.42301 0.07172 0.41894 0.0
H614 H 0.65737 0.4854 0.46035 0.0
H615 H 0.5996 0.61042 0.554 0.0
H616 H 0.60874 0.56009 0.43072 0.0
H617 H 0.63316 0.53055 0.58936 0.0
H618 H 0.60234 0.59089 0.50877 0.0
H619 H 0.64637 0.49874 0.50783 0.0
C620 C 0.64341 0.50394 0.46383 0.0
C621 C 0.6339 0.52165 0.44153 0.0
C622 C 0.60902 0.57747 0.52634 0.0
C623 C 0.62217 0.53758 0.49564 0.0
C624 C 0.60763 0.58871 0.55221 0.0
C625 C 0.61618 0.57209 0.5755 0.0
C626 C 0.61932 0.54936 0.52345 0.0
C627 C 0.62641 0.54409 0.5719 0.0
C628 C 0.63752 0.5118 0.49094 0.0
C629 C 0.61649 0.54581 0.44728 0.0
N630 N 0.62783 0.5336 0.54632 0.0
N631 N 0.61157 0.55326 0.47365 0.0
H632 H 0.31506 0.42814 0.04703 0.0
H633 H 0.16089 0.43259 0.99939 0.0
H634 H 0.29448 0.3868 0.97543 0.0
H635 H 0.18499 0.45762 0.07783 0.0
H636 H 0.20931 0.42169 0.98602 0.0
H637 H 0.26746 0.4461 0.05359 0.0
C638 C 0.30059 0.42322 0.03234 0.0
C639 C 0.30891 0.40576 1.01072 0.0
C640 C 0.20392 0.42967 1.0061 0.0
C641 C 0.25375 0.42596 0.0185 0.0
C642 C 0.17632 0.43597 1.0137 0.0
C643 C 0.16882 0.44572 0.03993 0.0
C644 C 0.22413 0.4336 0.02469 0.0
C645 C 0.18971 0.44968 0.05763 0.0
C646 C 0.27327 0.43336 0.03622 0.0
C647 C 0.28906 0.40025 0.99233 0.0
N648 N 0.21622 0.44362 0.04971 0.0
N649 N 0.26235 0.41003 0.99682 0.0
H650 H 0.26819 0.73993 0.56728 0.0
H651 H 0.18628 0.62432 0.50681 0.0
H652 H 0.28921 0.70558 0.48819 0.0
H653 H 0.15617 0.6771 0.57258 0.0
H654 H 0.22651 0.64994 0.50155 0.0
H655 H 0.22976 0.71264 0.57173 0.0
C656 C 0.26488 0.72647 0.55088 0.0
C657 C 0.282 0.72512 0.52727 0.0
C658 C 0.21099 0.65592 0.51702 0.0
C659 C 0.23768 0.69373 0.53227 0.0
C660 C 0.18813 0.64127 0.52011 0.0
C661 C 0.16778 0.64867 0.54008 0.0
C662 C 0.21365 0.67783 0.5343 0.0
C663 C 0.17112 0.67091 0.55666 0.0
C664 C 0.24277 0.71097 0.5534 0.0
C665 C 0.27651 0.70731 0.50672 0.0
N666 N 0.19362 0.68457 0.55347 0.0
N667 N 0.25479 0.69226 0.50969 0.0
H668 H 0.92243 0.92194 0.53726 0.0
H669 H 0.06084 0.96167 0.4679 0.0
H670 H 0.9475 0.89887 0.45503 0.0
H671 H 0.014 0.01778 0.52217 0.0
H672 H 0.02268 0.93361 0.46745 0.0
H673 H 0.95888 0.95262 0.53668 0.0
C674 C 0.93555 0.92336 0.51908 0.0
C675 C 0.93185 0.90785 0.49613 0.0
C676 C 0.02071 0.95209 0.47941 0.0
C677 C 0.97383 0.94248 0.49559 0.0
C678 C 0.04247 0.96813 0.47971 0.0
C679 C 0.04046 0.99234 0.49479 0.0
C680 C 0.99696 0.95973 0.49505 0.0
C681 C 0.0163 0.99944 0.51004 0.0
C682 C 0.95625 0.94093 0.51875 0.0
C683 C 0.94948 0.91055 0.47311 0.0
N684 N 0.99553 0.98306 0.50998 0.0
N685 N 0.96987 0.92725 0.47355 0.0
H686 H 0.41702 0.73474 0.53163 0.0
H687 H 0.50761 0.65862 0.65176 0.0
H688 H 0.39123 0.74048 0.61695 0.0
H689 H 0.5408 0.68409 0.57244 0.0
H690 H 0.46328 0.68327 0.63913 0.0
H691 H 0.46056 0.71058 0.54587 0.0
C692 C 0.42036 0.73069 0.55342 0.0
C693 C 0.40023 0.7396 0.57311 0.0
C694 C 0.48032 0.68351 0.62458 0.0
C695 C 0.45049 0.71171 0.58959 0.0
C696 C 0.50563 0.66936 0.6317 0.0
C697 C 0.52809 0.66923 0.61313 0.0
C698 C 0.47724 0.69722 0.5985 0.0
C699 C 0.5242 0.68363 0.58747 0.0
C700 C 0.4454 0.71704 0.56153 0.0
C701 C 0.40609 0.73399 0.60106 0.0
N702 N 0.49931 0.69681 0.58088 0.0
N703 N 0.43062 0.72024 0.60848 0.0
H704 H 0.49832 0.73812 0.88561 0.0
H705 H 0.60643 0.63139 0.96852 0.0
H706 H 0.57522 0.75849 0.91313 0.0
H707 H 0.5396 0.6026 0.92765 0.0
H708 H 0.59203 0.67876 0.95162 0.0
H709 H 0.50956 0.6898 0.90431 0.0
C710 C 0.51731 0.73265 0.896 0.0
C711 C 0.53575 0.75265 0.89791 0.0
C712 C 0.5804 0.66222 0.94625 0.0
C713 C 0.54886 0.69718 0.91909 0.0
C714 C 0.58862 0.63492 0.95597 0.0
C715 C 0.57428 0.61262 0.94958 0.0
C716 C 0.5574 0.66785 0.92995 0.0
C717 C 0.55136 0.61899 0.9331 0.0
C718 C 0.52383 0.70495 0.90642 0.0
C719 C 0.56026 0.74402 0.91118 0.0
N720 N 0.54359 0.646 0.92391 0.0
N721 N 0.56602 0.71716 0.92117 0.0
H722 H 0.5063 0.88377 0.91845 0.0
H723 H 0.57793 1.00985 0.97509 0.0
H724 H 0.58948 0.89775 0.89875 0.0
H725 H 0.50257 0.98521 1.01001 0.0
H726 H 0.58089 0.97057 0.94486 0.0
H727 H 0.50288 0.92229 0.94988 0.0
C728 C 0.52389 0.89484 0.92075 0.0
C729 C 0.54827 0.88733 0.90587 0.0
C730 C 0.56368 0.97367 0.95914 0.0
C731 C 0.54437 0.93176 0.94177 0.0
C732 C 0.56199 0.99614 0.97643 0.0
C733 C 0.53997 1.00089 0.99515 0.0
C734 C 0.54306 0.95578 0.96026 0.0
C735 C 0.51986 0.98242 0.99587 0.0
C736 C 0.5219 0.91684 0.93875 0.0
C737 C 0.5703 0.90259 0.90977 0.0
N738 N 0.52181 0.96079 0.97863 0.0
N739 N 0.56777 0.92404 0.92715 0.0
H740 H 0.48893 0.32674 0.72072 0.0
H741 H 0.59578 0.43889 0.69397 0.0
H742 H 0.57559 0.30536 0.72742 0.0
H743 H 0.50927 0.4603 0.70558 0.0
H744 H 0.58912 0.38927 0.69996 0.0
H745 H 0.49654 0.37487 0.70816 0.0
C746 C 0.50964 0.332 0.71909 0.0
C747 C 0.53166 0.31187 0.72528 0.0
C748 C 0.57162 0.40486 0.70117 0.0
C749 C 0.54047 0.36734 0.71112 0.0
C750 C 0.57538 0.43317 0.69764 0.0
C751 C 0.55306 0.45385 0.69942 0.0
C752 C 0.54533 0.39711 0.70626 0.0
C753 C 0.52713 0.44517 0.70445 0.0
C754 C 0.51394 0.35962 0.7121 0.0
C755 C 0.558 0.32014 0.72288 0.0
N756 N 0.52399 0.41752 0.70766 0.0
N757 N 0.56167 0.34728 0.71615 0.0
H758 H 0.44076 0.19708 0.70587 0.0
H759 H 0.52019 0.06409 0.63464 0.0
H760 H 0.52781 0.17622 0.7081 0.0
H761 H 0.4332 0.08583 0.63245 0.0
H762 H 0.52373 0.1058 0.66021 0.0
H763 H 0.43798 0.15741 0.6773 0.0
C764 C 0.45933 0.18432 0.70017 0.0
C765 C 0.48456 0.19003 0.70946 0.0
C766 C 0.50389 0.10146 0.65406 0.0
C767 C 0.48149 0.14432 0.67685 0.0
C768 C 0.50183 0.0776 0.63947 0.0
C769 C 0.47634 0.07132 0.63135 0.0
C770 C 0.48029 0.11919 0.66067 0.0
C771 C 0.45331 0.08972 0.6382 0.0
C772 C 0.45772 0.16159 0.6839 0.0
C773 C 0.50791 0.17265 0.70144 0.0
N774 N 0.45584 0.11272 0.65247 0.0
N775 N 0.5058 0.15054 0.68571 0.0
H776 H 0.92481 0.57221 0.75469 0.0
H777 H 0.95488 0.50675 0.60851 0.0
H778 H 0.90152 0.49169 0.73663 0.0
H779 H 1.00057 0.57 0.63734 0.0
H780 H 0.93344 0.50217 0.65439 0.0
H781 H 0.95103 0.57312 0.71112 0.0
C782 C 0.92542 0.55457 0.74171 0.0
C783 C 0.91095 0.53178 0.74946 0.0
C784 C 0.94837 0.51683 0.65076 0.0
C785 C 0.94067 0.53295 0.69917 0.0
C786 C 0.96063 0.51949 0.62454 0.0
C787 C 0.9797 0.53871 0.619 0.0
C788 C 0.9548 0.53386 0.6716 0.0
C789 C 0.98619 0.55474 0.64065 0.0
C790 C 0.94043 0.55511 0.71682 0.0
C791 C 0.91247 0.50959 0.73166 0.0
N792 N 0.97357 0.55216 0.66586 0.0
N793 N 0.92678 0.51087 0.70726 0.0
H794 H 0.13532 1.0079 0.80564 0.0
H795 H 0.10036 0.09209 0.66321 0.0
H796 H 0.1199 0.0979 0.79707 0.0
H797 H 0.13048 1.00449 0.66975 0.0
H798 H 0.10025 0.09342 0.71328 0.0
H799 H 0.12548 1.00524 0.75721 0.0
C800 C 0.12928 0.02711 0.79376 0.0
C801 C 0.12868 0.05322 0.80541 0.0
C802 C 0.10668 0.07386 0.7038 0.0
C803 C 0.11775 0.05024 0.74981 0.0
C804 C 0.10662 0.07304 0.67523 0.0
C805 C 0.11538 0.04811 0.66234 0.0
C806 C 0.11549 0.04955 0.71963 0.0
C807 C 0.12377 0.02418 0.67888 0.0
C808 C 0.12388 0.02554 0.76602 0.0
C809 C 0.12074 0.07734 0.78894 0.0
N810 N 0.12365 0.0255 0.7067 0.0
N811 N 0.11586 0.07528 0.76188 0.0
H812 H 0.89004 0.59639 0.89847 0.0
H813 H 0.97994 0.48165 0.99285 0.0
H814 H 0.91785 0.51235 0.87617 0.0
H815 H 0.94235 0.55803 0.02645 0.0
H816 H 0.95822 0.49483 0.94949 0.0
H817 H 0.91038 0.58562 0.94404 0.0
C818 C 0.90072 0.57587 0.9029 0.0
C819 C 0.90233 0.55535 0.88313 0.0
C820 C 0.9545 0.50887 0.96618 0.0
C821 C 0.92536 0.54277 0.93548 0.0
C822 C 0.96699 0.50131 0.99114 0.0
C823 C 0.96315 0.51874 1.01349 0.0
C824 C 0.93803 0.53446 0.96285 0.0
C825 C 0.94586 0.54387 1.00984 0.0
C826 C 0.91209 0.56965 0.92906 0.0
C827 C 0.91605 0.52898 0.89044 0.0
N828 N 0.93411 0.55111 0.98492 0.0
N829 N 0.92691 0.52358 0.91573 0.0
H830 H 0.09704 0.05953 0.93187 0.0
H831 H 0.14187 0.06413 0.08244 0.0
H832 H 0.16037 0.9985 0.96316 0.0
H833 H 0.05601 0.07322 0.06708 0.0
H834 H 0.15099 0.04543 0.03667 0.0
H835 H 0.08219 0.06946 0.97941 0.0
C836 C 0.10728 0.04765 0.94875 0.0
C837 C 0.12973 0.02792 0.94363 0.0
C838 C 0.13016 0.0513 0.04347 0.0
C839 C 0.11377 0.04013 0.99773 0.0
C840 C 0.12497 0.06212 0.06942 0.0
C841 C 0.09816 0.07009 0.07846 0.0
C842 C 0.10845 0.04928 0.02616 0.0
C843 C 0.07695 0.06711 0.06083 0.0
C844 C 0.09891 0.05343 0.97579 0.0
C845 C 0.14268 1.01351 0.96622 0.0
N846 N 0.08256 0.05733 0.03527 0.0
N847 N 0.13493 0.02037 0.99232 0.0
H848 H 0.80359 0.88584 0.58303 0.0
H849 H 0.66763 0.96218 0.51518 0.0
H850 H 0.79973 0.91341 0.49727 0.0
H851 H 0.67036 0.92084 0.59603 0.0
H852 H 0.71682 0.94916 0.50932 0.0
H853 H 0.75586 0.904 0.58944 0.0
C854 C 0.79288 0.89612 0.56561 0.0
C855 C 0.80581 0.898 0.53954 0.0
C856 C 0.70661 0.94295 0.52832 0.0
C857 C 0.75078 0.91861 0.5467 0.0
C858 C 0.67854 0.95043 0.53171 0.0
C859 C 0.66472 0.9424 0.55606 0.0
C860 C 0.72105 0.9276 0.54955 0.0
C861 C 0.67997 0.92707 0.57671 0.0
C862 C 0.7655 0.90632 0.56925 0.0
C863 C 0.79067 0.91145 0.51775 0.0
N864 N 0.7072 0.92024 0.57301 0.0
N865 N 0.76396 0.9211 0.52178 0.0
H866 H 0.76608 0.24007 0.06826 0.0
H867 H 0.67965 0.13123 1.00223 0.0
H868 H 0.78438 0.21101 0.98655 0.0
H869 H 0.653 0.17995 0.07199 0.0
H870 H 0.72116 0.15509 0.99825 0.0
H871 H 0.72788 0.21252 0.07223 0.0
C872 C 0.76222 0.22772 0.05115 0.0
C873 C 0.77844 0.22802 0.02694 0.0
C874 C 0.70614 0.1605 1.01437 0.0
C875 C 0.73435 0.1963 0.0314 0.0
C876 C 0.68256 0.14683 1.01673 0.0
C877 C 0.66272 0.15377 0.03735 0.0
C878 C 0.70999 0.18088 0.03301 0.0
C879 C 0.66748 0.17422 0.05551 0.0
C880 C 0.74025 0.21204 0.05342 0.0
C881 C 0.77232 0.2115 1.00554 0.0
N882 N 0.69057 0.18696 0.05294 0.0
N883 N 0.75068 0.19631 1.00823 0.0
H884 H 0.43386 0.4201 0.9879 0.0
H885 H 0.55866 0.47805 0.05722 0.0
H886 H 0.44897 0.40984 0.07485 0.0
H887 H 0.52737 0.51304 0.97979 0.0
H888 H 0.52092 0.44939 0.06211 0.0
H889 H 0.47032 0.45075 0.98251 0.0
C890 C 0.44475 0.42432 1.00586 0.0
C891 C 0.43827 0.41235 0.0319 0.0
C892 C 0.52219 0.46341 0.04409 0.0
C893 C 0.48011 0.4472 0.02578 0.0
C894 C 0.54376 0.47977 0.04127 0.0
C895 C 0.54617 0.49791 0.01803 0.0
C896 C 0.50293 0.46492 0.0234 0.0
C897 C 0.52626 0.49927 0.99801 0.0
C898 C 0.4655 0.44188 1.00276 0.0
C899 C 0.45313 0.4186 0.0544 0.0
N900 N 0.50555 0.48284 1.00104 0.0
N901 N 0.4734 0.4354 0.05079 0.0
H902 H 0.90805 0.22724 0.03416 0.0
H903 H 1.00113 0.1626 0.1583 0.0
H904 H 0.88757 0.24489 0.11885 0.0
H905 H 0.02788 0.16389 0.07297 0.0
H906 H 0.95784 0.18895 0.14494 0.0
H907 H 0.95003 0.20016 0.04872 0.0
C908 C 0.91221 0.22526 0.05592 0.0
C909 C 0.89401 0.23838 0.0753 0.0
C910 C 0.97319 0.18343 0.12917 0.0
C911 C 0.9426 0.20713 0.09219 0.0
C912 C 0.99789 0.16828 0.13674 0.0
C913 C 0.01826 0.16092 0.11672 0.0
C914 C 0.96861 0.19106 0.10131 0.0
C915 C 0.01287 0.16905 0.08914 0.0
C916 C 0.93638 0.20984 0.0642 0.0
C917 C 0.90089 0.23513 0.10317 0.0
N918 N 0.98863 0.18354 0.08229 0.0
N919 N 0.92459 0.21978 0.11079 0.0
H920 H 0.0417 0.25109 0.3077 0.0
H921 H 0.143 0.18794 0.19054 0.0
H922 H 0.11767 0.28364 0.28523 0.0
H923 H 0.0607 0.16756 0.20373 0.0
H924 H 0.13672 0.21854 0.22907 0.0
H925 H 0.05128 0.21608 0.2738 0.0
C926 C 0.06046 0.25095 0.29553 0.0
C927 C 0.07876 0.27067 0.29894 0.0
C928 C 0.12008 0.2073 0.22365 0.0
C929 C 0.08985 0.23027 0.26002 0.0
C930 C 0.12361 0.18981 0.20171 0.0
C931 C 0.10216 0.17552 0.19386 0.0
C932 C 0.09497 0.21038 0.23792 0.0
C933 C 0.07764 0.17838 0.2091 0.0
C934 C 0.0659 0.23082 0.2762 0.0
C935 C 0.10297 0.26894 0.28307 0.0
N936 N 0.07465 0.19568 0.2304 0.0
N937 N 0.10776 0.24914 0.26405 0.0
H938 H 0.96482 0.36836 0.29224 0.0
H939 H 0.02087 0.4519 0.15752 0.0
H940 H 0.04936 0.38119 0.28036 0.0
H941 H 0.93628 0.44573 0.17837 0.0
H942 H 0.03306 0.42398 0.20048 0.0
H943 H 0.95499 0.39498 0.24886 0.0
C944 C 0.98131 0.3769 0.28066 0.0
C945 C 1.00792 0.37257 0.29028 0.0
C946 C 0.01185 0.42876 0.19547 0.0
C947 C 0.99687 0.40307 0.23996 0.0
C948 C 1.00495 0.44457 0.17091 0.0
C949 C 0.97751 0.45127 0.16426 0.0
C950 C 0.99117 0.41949 0.21328 0.0
C951 C 0.95772 0.44127 0.18252 0.0
C952 C 0.97573 0.39209 0.25573 0.0
C953 C 0.02846 0.38408 0.27399 0.0
N954 N 0.96489 0.42605 0.20593 0.0
N955 N 0.02255 0.39869 0.24972 0.0
H956 H 1.00522 0.78669 0.35188 0.0
H957 H 0.99625 0.94542 0.32371 0.0
H958 H 0.95405 0.82624 0.28793 0.0
H959 H 1.00635 0.90933 0.40622 0.0
H960 H 0.97758 0.90314 0.31085 0.0
H961 H 1.00304 0.83142 0.3738 0.0
C962 C 0.99291 0.8047 0.34292 0.0
C963 C 0.97981 0.80294 0.31814 0.0
C964 C 0.98313 0.90483 0.33198 0.0
C965 C 0.97804 0.85424 0.34239 0.0
C966 C 0.99382 0.9289 0.33928 0.0
C967 C 1.00307 0.93073 0.36597 0.0
C968 C 0.98236 0.88223 0.35133 0.0
C969 C 0.99945 0.90878 0.38542 0.0
C970 C 0.99165 0.8302 0.35539 0.0
C971 C 0.96427 0.82682 0.30716 0.0
N972 N 0.99 0.88513 0.37754 0.0
N973 N 0.9644 0.85175 0.31897 0.0
H974 H 0.07209 0.6875 0.34543 0.0
H975 H 0.99121 0.58055 0.43821 0.0
H976 H 0.98946 0.67306 0.33066 0.0
H977 H 0.06125 0.61581 0.46593 0.0
H978 H 0.99407 0.60823 0.3948 0.0
H979 H 0.07194 0.65534 0.38598 0.0
C980 C 0.05398 0.67741 0.35058 0.0
C981 C 0.03071 0.68303 0.33466 0.0
C982 C 0.00893 0.60971 0.41032 0.0
C983 C 0.03049 0.64614 0.38098 0.0
C984 C 1.00745 0.59377 0.43501 0.0
C985 C 0.02602 0.5959 0.45573 0.0
C986 C 0.02931 0.62765 0.40619 0.0
C987 C 0.04647 0.6136 0.45055 0.0
C988 C 0.05389 0.65914 0.37379 0.0
C989 C 1.0078 0.66942 0.34241 0.0
N990 N 0.04756 0.62881 0.4263 0.0
N991 N 1.00827 0.65158 0.36502 0.0
H992 H 0.27957 0.04217 0.27066 0.0
H993 H 0.19336 0.13592 0.15758 0.0
H994 H 0.29325 0.12813 0.25266 0.0
H995 H 0.16273 0.06713 0.20448 0.0
H996 H 0.23328 0.13121 0.18696 0.0
H997 H 0.24006 0.04884 0.24163 0.0
C998 C 0.27434 0.06252 0.26051 0.0
C999 C 0.28998 0.0846 0.26412 0.0
C1000 C 0.21785 0.11712 0.1907 0.0
C1001 C 0.24442 0.09228 0.23026 0.0
C1002 C 0.19519 0.11956 0.17376 0.0
C1003 C 0.17473 0.10167 0.17834 0.0
C1004 C 0.22037 0.09627 0.21207 0.0
C1005 C 0.178 0.08128 0.20004 0.0
C1006 C 0.25161 0.06631 0.24398 0.0
C1007 C 0.28182 0.11054 0.25054 0.0
N1008 N 0.20038 0.07901 0.21586 0.0
N1009 N 0.25976 0.1136 0.23398 0.0
H1010 H 0.76428 0.54206 0.33276 0.0
H1011 H 0.80887 0.47122 0.19075 0.0
H1012 H 0.73186 0.46815 0.30813 0.0
H1013 H 0.84413 0.54107 0.22125 0.0
H1014 H 0.78186 0.46797 0.23382 0.0
H1015 H 0.79579 0.53947 0.2932 0.0
C1016 C 0.76404 0.52502 0.31914 0.0
C1017 C 0.74533 0.50535 0.32371 0.0
C1018 C 0.79565 0.48387 0.23111 0.0
C1019 C 0.78115 0.50256 0.2777 0.0
C1020 C 0.81093 0.48592 0.20641 0.0
C1021 C 0.82885 0.50653 0.20217 0.0
C1022 C 0.79815 0.50266 0.25175 0.0
C1023 C 0.83092 0.52463 0.22352 0.0
C1024 C 0.78203 0.52359 0.29645 0.0
C1025 C 0.74605 0.48366 0.30544 0.0
N1026 N 0.81574 0.52233 0.24718 0.0
N1027 N 0.76342 0.48305 0.28299 0.0
H1028 H 0.2681 0.0318 0.32558 0.0
H1029 H 0.20094 1.01152 0.47292 0.0
H1030 H 0.3183 1.00858 0.3954 0.0
H1031 H 0.16426 0.06724 0.40925 0.0
H1032 H 0.24447 1.00961 0.44721 0.0
H1033 H 0.22853 0.04022 0.35671 0.0
C1034 C 0.27046 0.02739 0.34749 0.0
C1035 C 0.2961 0.01862 0.35805 0.0
C1036 C 0.22716 0.02308 0.43934 0.0
C1037 C 0.25149 0.02964 0.39382 0.0
C1038 C 0.20251 0.02467 0.45429 0.0
C1039 C 0.17921 0.03978 0.4432 0.0
C1040 C 0.22807 0.03618 0.41296 0.0
C1041 C 0.18194 0.05569 0.41859 0.0
C1042 C 0.24811 0.03289 0.36527 0.0
C1043 C 0.29856 1.01443 0.3866 0.0
N1044 N 0.20579 0.05286 0.40384 0.0
N1045 N 0.27643 0.01995 0.40363 0.0
H1046 H 0.72963 0.60081 0.43716 0.0
H1047 H 0.8251 0.50513 0.53196 0.0
H1048 H 0.72652 0.51198 0.45138 0.0
H1049 H 0.81985 0.59513 0.53104 0.0
H1050 H 0.77931 0.50874 0.51521 0.0
H1051 H 0.75406 0.60107 0.48002 0.0
C1052 C 0.73401 0.58143 0.44929 0.0
C1053 C 0.72698 0.5562 0.44015 0.0
C1054 C 0.78778 0.5278 0.51934 0.0
C1055 C 0.75435 0.55635 0.48928 0.0
C1056 C 0.81395 0.52571 0.52932 0.0
C1057 C 0.82684 0.54993 0.53135 0.0
C1058 C 0.77498 0.55421 0.51073 0.0
C1059 C 0.81106 0.57594 0.52821 0.0
C1060 C 0.74762 0.58162 0.47394 0.0
C1061 C 0.73238 0.53182 0.45708 0.0
N1062 N 0.78627 0.5775 0.51687 0.0
N1063 N 0.74607 0.53245 0.48056 0.0
H1064 H 0.30667 0.3404 0.09995 0.0
H1065 H 0.23515 0.21783 0.03929 0.0
H1066 H 0.3472 0.27702 0.04904 0.0
H1067 H 0.19806 0.26627 0.10548 0.0
H1068 H 0.27564 0.24185 0.04156 0.0
H1069 H 0.26658 0.3143 0.10367 0.0
C1070 C 0.30744 0.32047 0.09048 0.0
C1071 C 0.33009 0.31061 0.07429 0.0
C1072 C 0.25868 0.24727 0.05564 0.0
C1073 C 0.28454 0.28149 0.07752 0.0
C1074 C 0.23542 0.23382 0.05405 0.0
C1075 C 0.2133 0.24007 0.07222 0.0
C1076 C 0.25982 0.26726 0.07545 0.0
C1077 C 0.21487 0.26071 0.09128 0.0
C1078 C 0.28452 0.30583 0.09224 0.0
C1079 C 0.33002 0.28517 0.06175 0.0
N1080 N 0.2378 0.27363 0.09241 0.0
N1081 N 0.30748 0.27165 0.06336 0.0
H1082 H 0.27296 0.86578 0.57056 0.0
H1083 H 0.16234 0.92816 0.45974 0.0
H1084 H 0.26897 0.83529 0.4892 0.0
H1085 H 0.1724 0.96661 0.53624 0.0
H1086 H 0.19946 0.8921 0.47178 0.0
H1087 H 0.23464 0.90127 0.55984 0.0
C1088 C 0.26408 0.86649 0.55049 0.0
C1089 C 0.27433 0.84742 0.5308 0.0
C1090 C 0.19348 0.90834 0.48602 0.0
C1091 C 0.23027 0.88795 0.51841 0.0
C1092 C 0.17211 0.9289 0.4792 0.0
C1093 C 0.16405 0.95051 0.49698 0.0
C1094 C 0.20693 0.90918 0.51092 0.0
C1095 C 0.17782 0.9504 0.52183 0.0
C1096 C 0.24219 0.88678 0.54436 0.0
C1097 C 0.26191 0.84948 0.50509 0.0
N1098 N 0.1985 0.93014 0.52804 0.0
N1099 N 0.24062 0.86923 0.49971 0.0
H1100 H 0.90462 0.76588 0.49241 0.0
H1101 H 1.00803 0.64696 0.55566 0.0
H1102 H 0.93944 0.78198 0.56921 0.0
H1103 H 0.92678 0.63063 0.53769 0.0
H1104 H 0.99297 0.69767 0.55147 0.0
H1105 H 0.92331 0.71669 0.49822 0.0
C1106 C 0.91672 0.7592 0.51019 0.0
C1107 C 0.92058 0.77802 0.53035 0.0
C1108 C 0.97855 0.68281 0.54868 0.0
C1109 C 0.94217 0.72199 0.53683 0.0
C1110 C 0.98706 0.65405 0.55107 0.0
C1111 C 0.96852 0.63468 0.54734 0.0
C1112 C 0.9517 0.692 0.54148 0.0
C1113 C 0.94163 0.64486 0.54109 0.0
C1114 C 0.92714 0.73116 0.51355 0.0
C1115 C 0.93603 0.76809 0.55323 0.0
N1116 N 0.93413 0.6728 0.53794 0.0
N1117 N 0.94647 0.74069 0.55582 0.0
H1118 H 0.36817 0.8557 0.46735 0.0
H1119 H 0.48932 0.90144 0.5504 0.0
H1120 H 0.423 0.79926 0.51626 0.0
H1121 H 0.4246 0.95741 0.51408 0.0
H1122 H 0.47518 0.86339 0.52459 0.0
H1123 H 0.399 0.89182 0.46986 0.0
C1124 C 0.38736 0.85057 0.47748 0.0
C1125 C 0.39325 0.8247 0.49161 0.0
C1126 C 0.46446 0.88417 0.52186 0.0
C1127 C 0.42787 0.86588 0.49562 0.0
C1128 C 0.47253 0.90583 0.53656 0.0
C1129 C 0.45757 0.93231 0.53494 0.0
C1130 C 0.44142 0.88922 0.50543 0.0
C1131 C 0.43617 0.93704 0.51653 0.0
C1132 C 0.4048 0.87122 0.47924 0.0
C1133 C 0.41797 0.8191 0.50506 0.0
N1134 N 0.42849 0.91562 0.5028 0.0
N1135 N 0.43418 0.83973 0.50722 0.0
H1136 H 0.53958 0.75789 0.79719 0.0
H1137 H 0.65279 0.68407 0.69641 0.0
H1138 H 0.62209 0.77927 0.79115 0.0
H1139 H 0.56862 0.66839 0.69959 0.0
H1140 H 0.64354 0.71493 0.73468 0.0
H1141 H 0.55144 0.72178 0.76483 0.0
C1142 C 0.56029 0.75507 0.78902 0.0
C1143 C 0.57984 0.77194 0.79676 0.0
C1144 C 0.62714 0.70458 0.72718 0.0
C1145 C 0.59357 0.73015 0.75944 0.0
C1146 C 0.63239 0.68692 0.70541 0.0
C1147 C 0.6113 0.67402 0.69467 0.0
C1148 C 0.60061 0.70934 0.73827 0.0
C1149 C 0.58538 0.6781 0.70719 0.0
C1150 C 0.56704 0.73427 0.77053 0.0
C1151 C 0.60635 0.76689 0.78564 0.0
N1152 N 0.5807 0.69565 0.72819 0.0
N1153 N 0.61243 0.74649 0.76737 0.0
H1154 H 0.46519 0.8663 0.78603 0.0
H1155 H 0.51454 0.96154 0.65635 0.0
H1156 H 0.54788 0.88631 0.77659 0.0
H1157 H 0.43389 0.93699 0.67043 0.0
H1158 H 0.52893 0.93359 0.69875 0.0
H1159 H 0.45459 0.89232 0.74274 0.0
C1160 C 0.48113 0.87631 0.77497 0.0
C1161 C 0.50744 0.87409 0.78524 0.0
C1162 C 0.50815 0.93429 0.69231 0.0
C1163 C 0.49546 0.90412 0.73492 0.0
C1164 C 0.50003 0.95007 0.66803 0.0
C1165 C 0.47293 0.95174 0.65981 0.0
C1166 C 0.48899 0.92018 0.70823 0.0
C1167 C 0.45494 0.93659 0.67591 0.0
C1168 C 0.47511 0.89116 0.75005 0.0
C1169 C 0.52724 0.8875 0.76962 0.0
N1170 N 0.46321 0.92172 0.69912 0.0
N1171 N 0.52088 0.90191 0.74532 0.0
H1172 H 0.49682 0.279 0.8518 0.0
H1173 H 0.48616 0.44364 0.84793 0.0
H1174 H 0.44699 0.33063 0.79398 0.0
H1175 H 0.52 0.39033 0.91499 0.0
H1176 H 0.46687 0.40343 0.8304 0.0
H1177 H 0.50005 0.31972 0.87864 0.0
C1178 C 0.48588 0.29887 0.84528 0.0
C1179 C 0.47161 0.30162 0.82079 0.0
C1180 C 0.47811 0.40067 0.84921 0.0
C1181 C 0.47614 0.34859 0.8506 0.0
C1182 C 0.48914 0.42355 0.85911 0.0
C1183 C 0.50455 0.42018 0.88291 0.0
C1184 C 0.48317 0.37424 0.8629 0.0
C1185 C 0.50794 0.39382 0.89673 0.0
C1186 C 0.48784 0.32218 0.86046 0.0
C1187 C 0.45798 0.32775 0.81295 0.0
N1188 N 0.49768 0.3718 0.88632 0.0
N1189 N 0.46109 0.35047 0.8275 0.0
H1190 H 0.56249 0.18876 0.83737 0.0
H1191 H 0.48198 0.08093 0.93018 0.0
H1192 H 0.48017 0.17336 0.8225 0.0
H1193 H 0.55211 0.11629 0.95742 0.0
H1194 H 0.4851 0.10815 0.88635 0.0
H1195 H 0.56287 0.15581 0.87745 0.0
C1196 C 0.54461 0.17823 0.84234 0.0
C1197 C 0.52123 0.18389 0.82662 0.0
C1198 C 0.49995 0.1097 0.90185 0.0
C1199 C 0.52157 0.14614 0.87235 0.0
C1200 C 0.4983 0.09402 0.92674 0.0
C1201 C 0.51677 0.09642 0.94743 0.0
C1202 C 0.52042 0.12758 0.89756 0.0
C1203 C 0.53735 0.11395 0.94205 0.0
C1204 C 0.5448 0.15952 0.86528 0.0
C1205 C 0.49859 0.16973 0.83412 0.0
N1206 N 0.5386 0.12889 0.91766 0.0
N1207 N 0.49931 0.15153 0.85645 0.0
H1208 H 0.78098 0.54228 0.77483 0.0
H1209 H 0.70235 0.63124 0.65328 0.0
H1210 H 0.80126 0.62471 0.74954 0.0
H1211 H 0.66726 0.56802 0.70444 0.0
H1212 H 0.74179 0.62656 0.68337 0.0
H1213 H 0.74241 0.54896 0.74468 0.0
C1214 C 0.77737 0.56188 0.76288 0.0
C1215 C 0.79462 0.58293 0.76477 0.0
C1216 C 0.7255 0.61365 0.68786 0.0
C1217 C 0.75007 0.59061 0.72957 0.0
C1218 C 0.70313 0.61604 0.67052 0.0
C1219 C 0.68153 0.59974 0.67611 0.0
C1220 C 0.72655 0.59446 0.71069 0.0
C1221 C 0.68343 0.58088 0.69915 0.0
C1222 C 0.75517 0.56569 0.74567 0.0
C1223 C 0.78853 0.60794 0.74884 0.0
N1224 N 0.70551 0.57865 0.71539 0.0
N1225 N 0.7669 0.611 0.73169 0.0
H1226 H 0.23148 0.97266 0.8162 0.0
H1227 H 0.3369 0.04916 0.71808 0.0
H1228 H 0.24967 0.05718 0.82445 0.0
H1229 H 0.30391 0.9745 0.69608 0.0
H1230 H 0.31102 0.04789 0.7616 0.0
H1231 H 0.26394 0.9686 0.77674 0.0
C1232 C 0.24265 0.99015 0.81003 0.0
C1233 C 0.23774 1.01538 0.82345 0.0
C1234 C 0.30947 0.03172 0.74731 0.0
C1235 C 0.27471 1.01092 0.7785 0.0
C1236 C 0.32438 0.03233 0.72246 0.0
C1237 C 0.3225 1.01201 0.7032 0.0
C1238 C 0.29249 1.01058 0.75319 0.0
C1239 C 0.30565 0.99088 0.71006 0.0
C1240 C 0.26099 0.9879 0.78741 0.0
C1241 C 0.25261 0.03745 0.81451 0.0
N1242 N 0.29126 0.99074 0.73446 0.0
N1243 N 0.27032 0.03473 0.79262 0.0
H1244 H 0.78776 0.48406 0.85579 0.0
H1245 H 0.67688 0.58368 0.93233 0.0
H1246 H 0.80474 0.56312 0.88518 0.0
H1247 H 0.67873 0.49439 0.9457 0.0
H1248 H 0.72277 0.5768 0.91116 0.0
H1249 H 0.74642 0.48656 0.88577 0.0
C1250 C 0.78309 0.5016 0.86882 0.0
C1251 C 0.79939 0.52363 0.86763 0.0
C1252 C 0.71326 0.55874 0.9191 0.0
C1253 C 0.75244 0.52683 0.90121 0.0
C1254 C 0.68723 0.56272 0.93114 0.0
C1255 C 0.67451 0.53961 0.94092 0.0
C1256 C 0.72606 0.53142 0.91616 0.0
C1257 C 0.6883 0.5127 0.93861 0.0
C1258 C 0.75957 0.50306 0.88581 0.0
C1259 C 0.79245 0.54592 0.88495 0.0
N1260 N 0.7133 0.50926 0.92607 0.0
N1261 N 0.76931 0.54717 0.90065 0.0
H1262 H 0.19365 0.0739 0.95862 0.0
H1263 H 0.34007 1.00813 0.96201 0.0
H1264 H 0.25112 0.08924 0.8926 0.0
H1265 H 0.31339 0.05181 0.03514 0.0
H1266 H 0.30007 0.03017 0.93888 0.0
H1267 H 0.23147 0.0634 0.99029 0.0
C1268 C 0.21415 0.0766 0.95123 0.0
C1269 C 0.21955 0.08263 0.92319 0.0
C1270 C 0.30295 0.03478 0.96006 0.0
C1271 C 0.26227 0.06924 0.95843 0.0
C1272 C 0.32545 0.02174 0.97354 0.0
C1273 C 0.3302 0.02826 1.00056 0.0
C1274 C 0.28488 0.05426 0.97366 0.0
C1275 C 0.31057 0.04651 1.01417 0.0
C1276 C 0.2356 0.0703 0.96916 0.0
C1277 C 0.2463 0.08503 0.91419 0.0
N1278 N 0.28858 0.05907 1.0005 0.0
N1279 N 0.26686 0.07746 0.93164 0.0
H1280 H 0.79447 0.83912 0.45713 0.0
H1281 H 0.74232 0.69268 0.50488 0.0
H1282 H 0.84426 0.76882 0.49398 0.0
H1283 H 0.68859 0.76918 0.49369 0.0
H1284 H 0.78015 0.71709 0.48695 0.0
H1285 H 0.75632 0.81043 0.4571 0.0
C1286 C 0.79756 0.81735 0.46429 0.0
C1287 C 0.82236 0.8061 0.47548 0.0
C1288 C 0.76 0.72844 0.48801 0.0
C1289 C 0.7792 0.77351 0.47577 0.0
C1290 C 0.73827 0.71445 0.49803 0.0
C1291 C 0.71219 0.72894 0.50112 0.0
C1292 C 0.75575 0.75719 0.48105 0.0
C1293 C 0.70844 0.7573 0.49218 0.0
C1294 C 0.77581 0.80112 0.46452 0.0
C1295 C 0.82536 0.77809 0.48513 0.0
N1296 N 0.73006 0.7706 0.48285 0.0
N1297 N 0.80399 0.76278 0.48519 0.0
H1298 H 0.76574 0.34035 0.99139 0.0
H1299 H 0.67039 0.47133 0.04903 0.0
H1300 H 0.7697 0.36733 0.07413 0.0
H1301 H 0.65944 0.43739 0.97045 0.0
H1302 H 0.70691 0.43389 0.05838 0.0
H1303 H 0.72766 0.37631 0.98307 0.0
C1304 C 0.75867 0.35385 1.00786 0.0
C1305 C 0.7711 0.35067 0.03356 0.0
C1306 C 0.69643 0.43446 0.03917 0.0
C1307 C 0.72713 0.39217 0.02404 0.0
C1308 C 0.67547 0.45587 0.03379 0.0
C1309 C 0.66164 0.4576 1.00889 0.0
C1310 C 0.70398 0.41457 0.01944 0.0
C1311 C 0.66931 0.43687 0.99 0.0
C1312 C 0.73678 0.37438 1.00307 0.0
C1313 C 0.76084 0.36889 0.05402 0.0
N1314 N 0.69003 0.41639 0.99558 0.0
N1315 N 0.73956 0.38884 0.0488 0.0
H1316 H 0.43933 0.28263 0.05351 0.0
H1317 H 0.43988 0.13767 0.98276 0.0
H1318 H 0.41334 0.27489 0.97084 0.0
H1319 H 0.48513 0.1441 0.05585 0.0
H1320 H 0.43036 0.18813 0.97899 0.0
H1321 H 0.45711 0.23303 0.0553 0.0
C1322 C 0.43773 0.27067 0.03554 0.0
C1323 C 0.42465 0.28311 1.01198 0.0
C1324 C 0.44253 0.17873 0.99581 0.0
C1325 C 0.4447 0.22602 1.01416 0.0
C1326 C 0.44791 0.14976 0.9981 0.0
C1327 C 0.46319 0.13651 0.01977 0.0
C1328 C 0.45217 0.19504 1.01553 0.0
C1329 C 0.47315 0.15343 0.03887 0.0
C1330 C 0.44788 0.24229 0.03665 0.0
C1331 C 0.42319 0.26639 0.98944 0.0
N1332 N 0.46725 0.18189 0.03645 0.0
N1333 N 0.43278 0.23876 0.99123 0.0
H1334 H 0.87016 0.35786 0.97112 0.0
H1335 H 0.99045 0.39426 0.06103 0.0
H1336 H 0.9198 0.29752 0.02138 0.0
H1337 H 0.9337 0.45441 0.01801 0.0
H1338 H 0.97465 0.35714 0.03503 0.0
H1339 H 0.90346 0.39126 0.9753 0.0
C1340 C 0.88873 0.3513 0.98196 0.0
C1341 C 0.89244 0.32515 0.99596 0.0
C1342 C 0.96606 0.37857 0.03094 0.0
C1343 C 0.92983 0.36325 1.00192 0.0
C1344 C 0.97507 0.39968 0.04578 0.0
C1345 C 0.96272 0.42718 0.04224 0.0
C1346 C 0.94474 0.38524 1.01248 0.0
C1347 C 0.94314 0.43327 0.02199 0.0
C1348 C 0.90759 0.37039 0.98467 0.0
C1349 C 0.91643 0.31764 1.0103 0.0
N1350 N 0.93449 0.41243 1.00817 0.0
N1351 N 0.93401 0.33682 1.01341 0.0
loop_
_geom_bond_atom_site_label_1
_geom_bond_atom_site_label_2
_geom_bond_distance
_geom_bond_site_symmetry_2
_ccdc_geom_bond_type
C0 O2 1.247 . S
C0 O4 1.258 . S
C1 O8 1.247 1_455 S
C1 O9 1.258 . S
O2 C0 1.247 . S
O2 Zn3 2.028 . S
Zn3 O2 2.028 . S
Zn3 O7 2.035 . S
Zn3 O9 2.035 . S
Zn3 O10 2.028 . S
O4 C0 1.258 . S
O4 Zn5 2.035 1_455 S
Zn5 O4 2.035 1_655 S
Zn5 O6 2.028 . S
Zn5 O8 2.028 . S
Zn5 O11 2.035 1_655 S
O6 Zn5 2.028 . S
O6 C12 1.247 1_655 S
O7 Zn3 2.035 . S
O7 C12 1.258 . S
O8 C1 1.247 1_655 S
O8 Zn5 2.028 . S
O9 C1 1.258 . S
O9 Zn3 2.035 . S
O10 Zn3 2.028 . S
O10 C13 1.247 . S
O11 Zn5 2.035 1_455 S
O11 C13 1.258 . S
C12 O6 1.247 1_455 S
C12 O7 1.258 . S
C13 O10 1.247 . S
C13 O11 1.258 . S
C14 O16 1.247 . S
C14 O18 1.258 1_455 S
C15 O22 1.247 . S
C15 O23 1.258 1_655 S
O16 C14 1.247 . S
O16 Zn17 2.028 . S
Zn17 O16 2.028 . S
Zn17 O21 2.035 . S
Zn17 O23 2.035 . S
Zn17 O24 2.028 . S
O18 C14 1.258 1_655 S
O18 Zn19 2.035 . S
Zn19 O18 2.035 . S
Zn19 O20 2.028 . S
Zn19 O22 2.028 . S
Zn19 O25 2.035 . S
O20 Zn19 2.028 . S
O20 C26 1.247 . S
O21 Zn17 2.035 . S
O21 C26 1.258 1_455 S
O22 C15 1.247 . S
O22 Zn19 2.028 . S
O23 C15 1.258 1_455 S
O23 Zn17 2.035 . S
O24 Zn17 2.028 . S
O24 C27 1.247 . S
O25 Zn19 2.035 . S
O25 C27 1.258 1_655 S
C26 O20 1.247 . S
C26 O21 1.258 1_655 S
C27 O24 1.247 . S
C27 O25 1.258 1_455 S
C28 O30 1.247 1_545 S
C28 O32 1.258 . S
C29 O36 1.247 1_565 S
C29 O37 1.258 . S
O30 C28 1.247 1_565 S
O30 Zn31 2.028 . S
Zn31 O30 2.028 . S
Zn31 O35 2.035 . S
Zn31 O37 2.035 . S
Zn31 O38 2.028 . S
O32 C28 1.258 . S
O32 Zn33 2.035 . S
Zn33 O32 2.035 . S
Zn33 O34 2.028 . S
Zn33 O36 2.028 . S
Zn33 O39 2.035 . S
O34 Zn33 2.028 . S
O34 C40 1.247 1_545 S
O35 Zn31 2.035 . S
O35 C40 1.258 . S
O36 C29 1.247 1_545 S
O36 Zn33 2.028 . S
O37 C29 1.258 . S
O37 Zn31 2.035 . S
O38 Zn31 2.028 . S
O38 C41 1.247 1_565 S
O39 Zn33 2.035 . S
O39 C41 1.258 . S
C40 O34 1.247 1_565 S
C40 O35 1.258 . S
C41 O38 1.247 1_545 S
C41 O39 1.258 . S
C42 O44 1.247 . S
C42 O46 1.258 . S
C43 O50 1.247 . S
C43 O51 1.258 . S
O44 C42 1.247 . S
O44 Zn45 2.028 . S
Zn45 O44 2.028 . S
Zn45 O49 2.035 . S
Zn45 O51 2.035 . S
Zn45 O52 2.028 . S
O46 C42 1.258 . S
O46 Zn47 2.035 . S
Zn47 O46 2.035 . S
Zn47 O48 2.028 . S
Zn47 O50 2.028 . S
Zn47 O53 2.035 . S
O48 Zn47 2.028 . S
O48 C54 1.247 . S
O49 Zn45 2.035 . S
O49 C54 1.258 . S
O50 C43 1.247 . S
O50 Zn47 2.028 . S
O51 C43 1.258 . S
O51 Zn45 2.035 . S
O52 Zn45 2.028 . S
O52 C55 1.247 . S
O53 Zn47 2.035 . S
O53 C55 1.258 . S
C54 O48 1.247 . S
C54 O49 1.258 . S
C55 O52 1.247 . S
C55 O53 1.258 . S
C56 O58 1.247 1_554 S
C56 O60 1.258 . S
C57 O64 1.247 1_556 S
C57 O65 1.258 . S
O58 C56 1.247 1_556 S
O58 Zn59 2.028 . S
Zn59 O58 2.028 . S
Zn59 O63 2.035 . S
Zn59 O65 2.035 . S
Zn59 O66 2.028 . S
O60 C56 1.258 . S
O60 Zn61 2.035 . S
Zn61 O60 2.035 . S
Zn61 O62 2.028 . S
Zn61 O64 2.028 . S
Zn61 O67 2.035 . S
O62 Zn61 2.028 . S
O62 C68 1.247 1_554 S
O63 Zn59 2.035 . S
O63 C68 1.258 . S
O64 C57 1.247 1_554 S
O64 Zn61 2.028 . S
O65 C57 1.258 . S
O65 Zn59 2.035 . S
O66 Zn59 2.028 . S
O66 C69 1.247 1_556 S
O67 Zn61 2.035 . S
O67 C69 1.258 . S
C68 O62 1.247 1_556 S
C68 O63 1.258 . S
C69 O66 1.247 1_554 S
C69 O67 1.258 . S
C70 O72 1.247 . S
C70 O74 1.258 . S
C71 O78 1.247 . S
C71 O79 1.258 . S
O72 C70 1.247 . S
O72 Zn73 2.028 . S
Zn73 O72 2.028 . S
Zn73 O77 2.035 . S
Zn73 O79 2.035 . S
Zn73 O80 2.028 . S
O74 C70 1.258 . S
O74 Zn75 2.035 . S
Zn75 O74 2.035 . S
Zn75 O76 2.028 . S
Zn75 O78 2.028 . S
Zn75 O81 2.035 . S
O76 Zn75 2.028 . S
O76 C82 1.247 . S
O77 Zn73 2.035 . S
O77 C82 1.258 . S
O78 C71 1.247 . S
O78 Zn75 2.028 . S
O79 C71 1.258 . S
O79 Zn73 2.035 . S
O80 Zn73 2.028 . S
O80 C83 1.247 . S
O81 Zn75 2.035 . S
O81 C83 1.258 . S
C82 O76 1.247 . S
C82 O77 1.258 . S
C83 O80 1.247 . S
C83 O81 1.258 . S
C84 O86 1.247 . S
C84 O88 1.258 . S
C85 O92 1.247 . S
C85 O93 1.258 . S
O86 C84 1.247 . S
O86 Zn87 2.028 . S
Zn87 O86 2.028 . S
Zn87 O91 2.035 . S
Zn87 O93 2.035 . S
Zn87 O94 2.028 . S
O88 C84 1.258 . S
O88 Zn89 2.035 . S
Zn89 O88 2.035 . S
Zn89 O90 2.028 . S
Zn89 O92 2.028 . S
Zn89 O95 2.035 . S
O90 Zn89 2.028 . S
O90 C96 1.247 . S
O91 Zn87 2.035 . S
O91 C96 1.258 . S
O92 C85 1.247 . S
O92 Zn89 2.028 . S
O93 C85 1.258 . S
O93 Zn87 2.035 . S
O94 Zn87 2.028 . S
O94 C97 1.247 . S
O95 Zn89 2.035 . S
O95 C97 1.258 . S
C96 O90 1.247 . S
C96 O91 1.258 . S
C97 O94 1.247 . S
C97 O95 1.258 . S
C98 O100 1.247 . S
C98 O102 1.258 . S
C99 O106 1.247 . S
C99 O107 1.258 . S
O100 C98 1.247 . S
O100 Zn101 2.028 . S
Zn101 O100 2.028 . S
Zn101 O105 2.035 . S
Zn101 O107 2.035 . S
Zn101 O108 2.028 . S
O102 C98 1.258 . S
O102 Zn103 2.035 . S
Zn103 O102 2.035 . S
Zn103 O104 2.028 . S
Zn103 O106 2.028 . S
Zn103 O109 2.035 . S
O104 Zn103 2.028 . S
O104 C110 1.247 . S
O105 Zn101 2.035 . S
O105 C110 1.258 . S
O106 C99 1.247 . S
O106 Zn103 2.028 . S
O107 C99 1.258 . S
O107 Zn101 2.035 . S
O108 Zn101 2.028 . S
O108 C111 1.247 . S
O109 Zn103 2.035 . S
O109 C111 1.258 . S
C110 O104 1.247 . S
C110 O105 1.258 . S
C111 O108 1.247 . S
C111 O109 1.258 . S
C112 O114 1.247 . S
C112 O116 1.258 . S
C113 O120 1.247 . S
C113 O121 1.258 . S
O114 C112 1.247 . S
O114 Zn115 2.028 . S
Zn115 O114 2.028 . S
Zn115 O119 2.035 . S
Zn115 O121 2.035 . S
Zn115 O122 2.028 . S
O116 C112 1.258 . S
O116 Zn117 2.035 . S
Zn117 O116 2.035 . S
Zn117 O118 2.028 . S
Zn117 O120 2.028 . S
Zn117 O123 2.035 . S
O118 Zn117 2.028 . S
O118 C124 1.247 . S
O119 Zn115 2.035 . S
O119 C124 1.258 . S
O120 C113 1.247 . S
O120 Zn117 2.028 . S
O121 C113 1.258 . S
O121 Zn115 2.035 . S
O122 Zn115 2.028 . S
O122 C125 1.247 . S
O123 Zn117 2.035 . S
O123 C125 1.258 . S
C124 O118 1.247 . S
C124 O119 1.258 . S
C125 O122 1.247 . S
C125 O123 1.258 . S
C126 O128 1.247 . S
C126 O130 1.258 . S
C127 O134 1.247 . S
C127 O135 1.258 . S
O128 C126 1.247 . S
O128 Zn129 2.028 . S
Zn129 O128 2.028 . S
Zn129 O133 2.035 . S
Zn129 O135 2.035 . S
Zn129 O136 2.028 . S
O130 C126 1.258 . S
O130 Zn131 2.035 . S
Zn131 O130 2.035 . S
Zn131 O132 2.028 . S
Zn131 O134 2.028 . S
Zn131 O137 2.035 . S
O132 Zn131 2.028 . S
O132 C138 1.247 . S
O133 Zn129 2.035 . S
O133 C138 1.258 . S
O134 C127 1.247 . S
O134 Zn131 2.028 . S
O135 C127 1.258 . S
O135 Zn129 2.035 . S
O136 Zn129 2.028 . S
O136 C139 1.247 . S
O137 Zn131 2.035 . S
O137 C139 1.258 . S
C138 O132 1.247 . S
C138 O133 1.258 . S
C139 O136 1.247 . S
C139 O137 1.258 . S
C140 O142 1.247 . S
C140 O144 1.258 1_565 S
C141 O148 1.247 . S
C141 O149 1.258 1_545 S
O142 C140 1.247 . S
O142 Zn143 2.028 . S
Zn143 O142 2.028 . S
Zn143 O147 2.035 . S
Zn143 O149 2.035 . S
Zn143 O150 2.028 . S
O144 C140 1.258 1_545 S
O144 Zn145 2.035 . S
Zn145 O144 2.035 . S
Zn145 O146 2.028 . S
Zn145 O148 2.028 . S
Zn145 O151 2.035 . S
O146 Zn145 2.028 . S
O146 C152 1.247 . S
O147 Zn143 2.035 . S
O147 C152 1.258 1_565 S
O148 C141 1.247 . S
O148 Zn145 2.028 . S
O149 C141 1.258 1_565 S
O149 Zn143 2.035 . S
O150 Zn143 2.028 . S
O150 C153 1.247 . S
O151 Zn145 2.035 . S
O151 C153 1.258 1_545 S
C152 O146 1.247 . S
C152 O147 1.258 1_545 S
C153 O150 1.247 . S
C153 O151 1.258 1_565 S
C154 O156 1.247 1_556 S
C154 O158 1.258 . S
C155 O162 1.247 1_554 S
C155 O163 1.258 . S
O156 C154 1.247 1_554 S
O156 Zn157 2.028 . S
Zn157 O156 2.028 . S
Zn157 O161 2.035 . S
Zn157 O163 2.035 . S
Zn157 O164 2.028 . S
O158 C154 1.258 . S
O158 Zn159 2.035 . S
Zn159 O158 2.035 . S
Zn159 O160 2.028 . S
Zn159 O162 2.028 . S
Zn159 O165 2.035 . S
O160 Zn159 2.028 . S
O160 C166 1.247 1_556 S
O161 Zn157 2.035 . S
O161 C166 1.258 . S
O162 C155 1.247 1_556 S
O162 Zn159 2.028 . S
O163 C155 1.258 . S
O163 Zn157 2.035 . S
O164 Zn157 2.028 . S
O164 C167 1.247 1_554 S
O165 Zn159 2.035 . S
O165 C167 1.258 . S
C166 O160 1.247 1_554 S
C166 O161 1.258 . S
C167 O164 1.247 1_556 S
C167 O165 1.258 . S
C168 Eu169 2.835 . S
C168 C170 1.500 1_545 S
C168 O188 1.257 . S
C168 O189 1.260 . S
Eu169 C168 2.835 . S
Eu169 O188 2.473 . S
Eu169 O189 2.480 . S
Eu169 O190 2.430 . S
Eu169 O191 2.670 . S
Eu169 O192 2.394 . S
Eu169 O197 2.355 . S
Eu169 O199 2.374 . S
C170 C168 1.500 1_565 S
C170 C171 1.377 . S
C170 C175 1.377 . S
C171 C170 1.377 . S
C171 C172 1.395 . S
C171 H200 0.931 . S
C172 C171 1.395 . S
C172 C173 1.383 . S
C172 H201 0.931 . S
C173 C172 1.383 . S
C173 C174 1.394 . S
C174 C173 1.394 . S
C174 C175 1.378 . S
C174 H202 0.931 . S
C175 C170 1.377 . S
C175 C174 1.378 . S
C175 H203 0.931 1_565 S
C176 O190 1.259 . S
C176 O191 1.270 . S
C177 O192 1.251 . S
C177 O193 1.251 . S
C178 Eu179 2.835 . S
C178 C180 1.500 . S
C178 O194 1.257 . S
C178 O195 1.260 . S
Eu179 C178 2.835 . S
Eu179 O191 2.355 . S
Eu179 O193 2.374 . S
Eu179 O194 2.473 . S
Eu179 O195 2.480 . S
Eu179 O196 2.430 . S
Eu179 O197 2.670 . S
Eu179 O198 2.394 . S
C180 C178 1.500 . S
C180 C181 1.377 . S
C180 C185 1.377 . S
C181 C180 1.377 . S
C181 C182 1.395 . S
C181 H204 0.931 . S
C182 C181 1.395 . S
C182 C183 1.383 . S
C182 H205 0.931 . S
C183 C182 1.383 . S
C183 C184 1.394 . S
C184 C183 1.394 . S
C184 C185 1.378 . S
C184 H206 0.931 1_554 S
C185 C180 1.377 . S
C185 C184 1.378 . S
C185 H207 0.931 . S
C186 O196 1.259 . S
C186 O197 1.270 . S
C187 O198 1.251 . S
C187 O199 1.251 . S
O188 C168 1.257 . S
O188 Eu169 2.473 . S
O189 C168 1.260 . S
O189 Eu169 2.480 . S
O190 Eu169 2.430 . S
O190 C176 1.259 . S
O191 Eu169 2.670 . S
O191 C176 1.270 . S
O191 Eu179 2.355 . S
O192 Eu169 2.394 . S
O192 C177 1.251 . S
O193 C177 1.251 . S
O193 Eu179 2.374 . S
O194 C178 1.257 . S
O194 Eu179 2.473 . S
O195 C178 1.260 . S
O195 Eu179 2.480 . S
O196 Eu179 2.430 . S
O196 C186 1.259 . S
O197 Eu169 2.355 . S
O197 Eu179 2.670 . S
O197 C186 1.270 . S
O198 Eu179 2.394 . S
O198 C187 1.251 . S
O199 Eu169 2.374 . S
O199 C187 1.251 . S
H200 C171 0.931 . S
H201 C172 0.931 . S
H202 C174 0.931 . S
H203 C175 0.931 1_545 S
H204 C181 0.931 . S
H205 C182 0.931 . S
H206 C184 0.931 1_556 S
H207 C185 0.931 . S
C208 Eu209 2.835 . S
C208 C210 1.500 . S
C208 O228 1.257 . S
C208 O229 1.260 . S
Eu209 C208 2.835 . S
Eu209 O228 2.473 . S
Eu209 O229 2.480 . S
Eu209 O230 2.430 . S
Eu209 O231 2.670 . S
Eu209 O232 2.394 . S
Eu209 O237 2.355 . S
Eu209 O239 2.374 . S
C210 C208 1.500 . S
C210 C211 1.377 . S
C210 C215 1.377 . S
C211 C210 1.377 . S
C211 C212 1.395 . S
C211 H240 0.931 . S
C212 C211 1.395 . S
C212 C213 1.383 . S
C212 H241 0.931 . S
C213 C212 1.383 . S
C213 C214 1.394 . S
C214 C213 1.394 . S
C214 C215 1.378 . S
C214 H242 0.931 . S
C215 C210 1.377 . S
C215 C214 1.378 . S
C215 H243 0.931 . S
C216 O230 1.259 . S
C216 O231 1.270 . S
C217 O232 1.251 . S
C217 O233 1.251 1_655 S
C218 Eu219 2.835 . S
C218 C220 1.500 . S
C218 O234 1.257 . S
C218 O235 1.260 . S
Eu219 C218 2.835 . S
Eu219 O231 2.355 1_455 S
Eu219 O233 2.374 . S
Eu219 O234 2.473 . S
Eu219 O235 2.480 . S
Eu219 O236 2.430 1_455 S
Eu219 O237 2.670 1_455 S
Eu219 O238 2.394 1_455 S
C220 C218 1.500 . S
C220 C221 1.377 . S
C220 C225 1.377 . S
C221 C220 1.377 . S
C221 C222 1.395 1_554 S
C221 H244 0.923 1_554 S
C222 C221 1.395 1_556 S
C222 C223 1.383 1_556 S
C222 H245 0.931 . S
C223 C222 1.383 1_554 S
C223 C224 1.394 . S
C224 C223 1.394 . S
C224 C225 1.378 . S
C224 H246 0.931 . S
C225 C220 1.377 . S
C225 C224 1.378 . S
C225 H247 0.931 . S
C226 O236 1.259 . S
C226 O237 1.270 . S
C227 O238 1.251 . S
C227 O239 1.251 . S
O228 C208 1.257 . S
O228 Eu209 2.473 . S
O229 C208 1.260 . S
O229 Eu209 2.480 . S
O230 Eu209 2.430 . S
O230 C216 1.259 . S
O231 Eu209 2.670 . S
O231 C216 1.270 . S
O231 Eu219 2.355 1_655 S
O232 Eu209 2.394 . S
O232 C217 1.251 . S
O233 C217 1.251 1_455 S
O233 Eu219 2.374 . S
O234 C218 1.257 . S
O234 Eu219 2.473 . S
O235 C218 1.260 . S
O235 Eu219 2.480 . S
O236 Eu219 2.430 1_655 S
O236 C226 1.259 . S
O237 Eu209 2.355 . S
O237 Eu219 2.670 1_655 S
O237 C226 1.270 . S
O238 Eu219 2.394 1_655 S
O238 C227 1.251 . S
O239 Eu209 2.374 . S
O239 C227 1.251 . S
H240 C211 0.931 . S
H241 C212 0.931 . S
H242 C214 0.931 . S
H243 C215 0.931 . S
H244 C221 0.923 1_556 S
H245 C222 0.931 . S
H246 C224 0.931 . S
H247 C225 0.931 . S
C248 Eu249 2.835 . S
C248 C250 1.500 . S
C248 O268 1.257 . S
C248 O269 1.260 . S
Eu249 C248 2.835 . S
Eu249 O268 2.473 . S
Eu249 O269 2.480 . S
Eu249 O270 2.430 1_545 S
Eu249 O271 2.670 1_545 S
Eu249 O272 2.394 1_545 S
Eu249 O277 2.350 1_545 S
Eu249 O279 2.374 . S
C250 C248 1.500 . S
C250 C251 1.377 . S
C250 C255 1.377 . S
C251 C250 1.377 . S
C251 C252 1.395 . S
C251 H280 0.931 . S
C252 C251 1.395 . S
C252 C253 1.383 . S
C252 H281 0.931 . S
C253 C252 1.383 . S
C253 C254 1.394 . S
C254 C253 1.394 . S
C254 C255 1.378 . S
C254 H282 0.931 . S
C255 C250 1.377 . S
C255 C254 1.378 . S
C255 H283 0.931 . S
C256 O270 1.259 . S
C256 O271 1.270 . S
C257 O272 1.251 . S
C257 O273 1.251 . S
C258 Eu259 2.835 . S
C258 C260 1.500 . S
C258 O274 1.257 . S
C258 O275 1.260 . S
Eu259 C258 2.835 . S
Eu259 O271 2.355 . S
Eu259 O273 2.374 . S
Eu259 O274 2.473 . S
Eu259 O275 2.480 . S
Eu259 O276 2.430 . S
Eu259 O277 2.686 . S
Eu259 O278 2.394 1_565 S
C260 C258 1.500 . S
C260 C261 1.377 . S
C260 C265 1.377 . S
C261 C260 1.377 . S
C261 C262 1.395 . S
C261 H284 0.931 . S
C262 C261 1.395 . S
C262 C263 1.383 . S
C262 H285 0.931 . S
C263 C262 1.383 . S
C263 C264 1.394 . S
C264 C263 1.394 . S
C264 C265 1.378 . S
C264 H286 0.931 1_455 S
C265 C260 1.377 . S
C265 C264 1.378 . S
C265 H287 0.931 . S
C266 O276 1.259 1_545 S
C266 O277 1.265 1_545 S
C267 O278 1.251 . S
C267 O279 1.251 . S
O268 C248 1.257 . S
O268 Eu249 2.473 . S
O269 C248 1.260 . S
O269 Eu249 2.480 . S
O270 Eu249 2.430 1_565 S
O270 C256 1.259 . S
O271 Eu249 2.670 1_565 S
O271 C256 1.270 . S
O271 Eu259 2.355 . S
O272 Eu249 2.394 1_565 S
O272 C257 1.251 . S
O273 C257 1.251 . S
O273 Eu259 2.374 . S
O274 C258 1.257 . S
O274 Eu259 2.473 . S
O275 C258 1.260 . S
O275 Eu259 2.480 . S
O276 Eu259 2.430 . S
O276 C266 1.259 1_565 S
O277 Eu249 2.350 1_565 S
O277 Eu259 2.686 . S
O277 C266 1.265 1_565 S
O278 Eu259 2.394 1_545 S
O278 C267 1.251 . S
O279 Eu249 2.374 . S
O279 C267 1.251 . S
H280 C251 0.931 . S
H281 C252 0.931 . S
H282 C254 0.931 . S
H283 C255 0.931 . S
H284 C261 0.931 . S
H285 C262 0.931 . S
H286 C264 0.931 1_655 S
H287 C265 0.931 . S
C288 Eu289 2.835 . S
C288 C290 1.500 . S
C288 O308 1.257 . S
C288 O309 1.260 . S
Eu289 C288 2.835 . S
Eu289 O308 2.473 . S
Eu289 O309 2.480 . S
Eu289 O310 2.430 . S
Eu289 O311 2.670 . S
Eu289 O312 2.394 . S
Eu289 O317 2.355 1_455 S
Eu289 O319 2.374 1_455 S
C290 C288 1.500 . S
C290 C291 1.377 . S
C290 C295 1.377 . S
C291 C290 1.377 . S
C291 C292 1.395 . S
C291 H320 0.931 . S
C292 C291 1.395 . S
C292 C293 1.383 . S
C292 H321 0.931 . S
C293 C292 1.383 . S
C293 C294 1.394 . S
C294 C293 1.394 . S
C294 C295 1.378 . S
C294 H322 0.931 . S
C295 C290 1.377 . S
C295 C294 1.378 . S
C295 H323 0.931 . S
C296 O310 1.259 . S
C296 O311 1.270 . S
C297 O312 1.251 . S
C297 O313 1.251 . S
C298 Eu299 2.835 . S
C298 C300 1.500 . S
C298 O314 1.257 . S
C298 O315 1.260 . S
Eu299 C298 2.835 . S
Eu299 O311 2.355 1_655 S
Eu299 O313 2.374 1_655 S
Eu299 O314 2.473 . S
Eu299 O315 2.480 . S
Eu299 O316 2.430 . S
Eu299 O317 2.670 . S
Eu299 O318 2.394 . S
C300 C298 1.500 . S
C300 C301 1.377 . S
C300 C305 1.377 . S
C301 C300 1.377 . S
C301 C302 1.395 . S
C301 H324 0.931 . S
C302 C301 1.395 . S
C302 C303 1.383 . S
C302 H325 0.931 . S
C303 C302 1.383 . S
C303 C304 1.394 . S
C304 C303 1.394 . S
C304 C305 1.378 . S
C304 H326 0.931 . S
C305 C300 1.377 . S
C305 C304 1.378 . S
C305 H327 0.931 . S
C306 O316 1.259 . S
C306 O317 1.270 . S
C307 O318 1.251 . S
C307 O319 1.251 . S
O308 C288 1.257 . S
O308 Eu289 2.473 . S
O309 C288 1.260 . S
O309 Eu289 2.480 . S
O310 Eu289 2.430 . S
O310 C296 1.259 . S
O311 Eu289 2.670 . S
O311 C296 1.270 . S
O311 Eu299 2.355 1_455 S
O312 Eu289 2.394 . S
O312 C297 1.251 . S
O313 C297 1.251 . S
O313 Eu299 2.374 1_455 S
O314 C298 1.257 . S
O314 Eu299 2.473 . S
O315 C298 1.260 . S
O315 Eu299 2.480 . S
O316 Eu299 2.430 . S
O316 C306 1.259 . S
O317 Eu289 2.355 1_655 S
O317 Eu299 2.670 . S
O317 C306 1.270 . S
O318 Eu299 2.394 . S
O318 C307 1.251 . S
O319 Eu289 2.374 1_655 S
O319 C307 1.251 . S
H320 C291 0.931 . S
H321 C292 0.931 . S
H322 C294 0.931 . S
H323 C295 0.931 . S
H324 C301 0.931 . S
H325 C302 0.931 . S
H326 C304 0.931 . S
H327 C305 0.931 . S
C328 Eu329 2.835 1_545 S
C328 C330 1.500 . S
C328 O348 1.257 . S
C328 O349 1.260 . S
Eu329 C328 2.835 1_565 S
Eu329 O348 2.473 1_565 S
Eu329 O349 2.480 1_565 S
Eu329 O350 2.430 . S
Eu329 O351 2.670 . S
Eu329 O352 2.394 1_565 S
Eu329 O357 2.355 1_565 S
Eu329 O359 2.374 . S
C330 C328 1.500 . S
C330 C331 1.377 . S
C330 C335 1.377 . S
C331 C330 1.377 . S
C331 C332 1.395 . S
C331 H360 0.931 . S
C332 C331 1.395 . S
C332 C333 1.383 . S
C332 H361 0.931 . S
C333 C332 1.383 . S
C333 C334 1.394 . S
C334 C333 1.394 . S
C334 C335 1.378 . S
C334 H362 0.931 . S
C335 C330 1.377 . S
C335 C334 1.378 . S
C335 H363 0.931 . S
C336 O350 1.259 . S
C336 O351 1.270 . S
C337 O352 1.251 . S
C337 O353 1.251 . S
C338 Eu339 2.835 1_565 S
C338 C340 1.500 . S
C338 O354 1.257 . S
C338 O355 1.260 . S
Eu339 C338 2.835 1_545 S
Eu339 O351 2.355 1_545 S
Eu339 O353 2.374 . S
Eu339 O354 2.473 1_545 S
Eu339 O355 2.480 1_545 S
Eu339 O356 2.430 . S
Eu339 O357 2.670 . S
Eu339 O358 2.394 1_545 S
C340 C338 1.500 . S
C340 C341 1.377 . S
C340 C345 1.377 . S
C341 C340 1.377 . S
C341 C342 1.395 . S
C341 H364 0.931 . S
C342 C341 1.395 . S
C342 C343 1.383 . S
C342 H365 0.931 . S
C343 C342 1.383 . S
C343 C344 1.394 . S
C344 C343 1.394 . S
C344 C345 1.378 . S
C344 H366 0.931 . S
C345 C340 1.377 . S
C345 C344 1.378 . S
C345 H367 0.931 . S
C346 O356 1.259 . S
C346 O357 1.270 . S
C347 O358 1.251 . S
C347 O359 1.251 . S
O348 C328 1.257 . S
O348 Eu329 2.473 1_545 S
O349 C328 1.260 . S
O349 Eu329 2.480 1_545 S
O350 Eu329 2.430 . S
O350 C336 1.259 . S
O351 Eu329 2.670 . S
O351 C336 1.270 . S
O351 Eu339 2.355 1_565 S
O352 Eu329 2.394 1_545 S
O352 C337 1.251 . S
O353 C337 1.251 . S
O353 Eu339 2.374 . S
O354 C338 1.257 . S
O354 Eu339 2.473 1_565 S
O355 C338 1.260 . S
O355 Eu339 2.480 1_565 S
O356 Eu339 2.430 . S
O356 C346 1.259 . S
O357 Eu329 2.355 1_545 S
O357 Eu339 2.670 . S
O357 C346 1.270 . S
O358 Eu339 2.394 1_565 S
O358 C347 1.251 . S
O359 Eu329 2.374 . S
O359 C347 1.251 . S
H360 C331 0.931 . S
H361 C332 0.931 . S
H362 C334 0.931 . S
H363 C335 0.931 . S
H364 C341 0.931 . S
H365 C342 0.931 . S
H366 C344 0.931 . S
H367 C345 0.931 . S
C368 Eu369 2.835 . S
C368 C370 1.500 . S
C368 O388 1.257 . S
C368 O389 1.260 . S
Eu369 C368 2.835 . S
Eu369 O388 2.473 . S
Eu369 O389 2.480 . S
Eu369 O390 2.430 . S
Eu369 O391 2.670 . S
Eu369 O392 2.394 . S
Eu369 O397 2.355 . S
Eu369 O399 2.374 . S
C370 C368 1.500 . S
C370 C371 1.377 . S
C370 C375 1.377 . S
C371 C370 1.377 . S
C371 C372 1.395 . S
C371 H400 0.931 . S
C372 C371 1.395 . S
C372 C373 1.383 . S
C372 H401 0.931 . S
C373 C372 1.383 . S
C373 C374 1.394 . S
C374 C373 1.394 . S
C374 C375 1.378 . S
C374 H402 0.931 . S
C375 C370 1.377 . S
C375 C374 1.378 . S
C375 H403 0.931 . S
C376 O390 1.259 . S
C376 O391 1.270 . S
C377 O392 1.251 . S
C377 O393 1.251 . S
C378 Eu379 2.835 . S
C378 C380 1.500 . S
C378 O394 1.257 . S
C378 O395 1.260 . S
Eu379 C378 2.835 . S
Eu379 O391 2.355 . S
Eu379 O393 2.374 . S
Eu379 O394 2.473 . S
Eu379 O395 2.480 . S
Eu379 O396 2.430 . S
Eu379 O397 2.670 . S
Eu379 O398 2.394 . S
C380 C378 1.500 . S
C380 C381 1.377 . S
C380 C385 1.377 . S
C381 C380 1.377 . S
C381 C382 1.395 . S
C381 H404 0.931 . S
C382 C381 1.395 . S
C382 C383 1.383 . S
C382 H405 0.931 . S
C383 C382 1.383 . S
C383 C384 1.394 . S
C384 C383 1.394 . S
C384 C385 1.378 . S
C384 H406 0.931 . S
C385 C380 1.377 . S
C385 C384 1.378 . S
C385 H407 0.931 . S
C386 O396 1.259 . S
C386 O397 1.270 . S
C387 O398 1.251 . S
C387 O399 1.251 . S
O388 C368 1.257 . S
O388 Eu369 2.473 . S
O389 C368 1.260 . S
O389 Eu369 2.480 . S
O390 Eu369 2.430 . S
O390 C376 1.259 . S
O391 Eu369 2.670 . S
O391 C376 1.270 . S
O391 Eu379 2.355 . S
O392 Eu369 2.394 . S
O392 C377 1.251 . S
O393 C377 1.251 . S
O393 Eu379 2.374 . S
O394 C378 1.257 . S
O394 Eu379 2.473 . S
O395 C378 1.260 . S
O395 Eu379 2.480 . S
O396 Eu379 2.430 . S
O396 C386 1.259 . S
O397 Eu369 2.355 . S
O397 Eu379 2.670 . S
O397 C386 1.270 . S
O398 Eu379 2.394 . S
O398 C387 1.251 . S
O399 Eu369 2.374 . S
O399 C387 1.251 . S
H400 C371 0.931 . S
H401 C372 0.931 . S
H402 C374 0.931 . S
H403 C375 0.931 . S
H404 C381 0.931 . S
H405 C382 0.931 . S
H406 C384 0.931 . S
H407 C385 0.931 . S
C408 Eu409 2.835 . S
C408 C410 1.500 . S
C408 O428 1.257 . S
C408 O429 1.260 . S
Eu409 C408 2.835 . S
Eu409 O428 2.473 . S
Eu409 O429 2.480 . S
Eu409 O430 2.430 . S
Eu409 O431 2.670 1_554 S
Eu409 O432 2.394 . S
Eu409 O437 2.355 1_554 S
Eu409 O439 2.374 1_554 S
C410 C408 1.500 . S
C410 C411 1.377 . S
C410 C415 1.377 . S
C411 C410 1.377 . S
C411 C412 1.395 . S
C411 H440 0.931 . S
C412 C411 1.395 . S
C412 C413 1.383 . S
C412 H441 0.931 . S
C413 C412 1.383 . S
C413 C414 1.394 . S
C414 C413 1.394 . S
C414 C415 1.378 . S
C414 H442 0.931 . S
C415 C410 1.377 . S
C415 C414 1.378 . S
C415 H443 0.931 . S
C416 O430 1.259 . S
C416 O431 1.270 1_554 S
C417 O432 1.251 . S
C417 O433 1.251 1_554 S
C418 Eu419 2.835 . S
C418 C420 1.500 . S
C418 O434 1.257 . S
C418 O435 1.260 . S
Eu419 C418 2.835 . S
Eu419 O431 2.355 . S
Eu419 O433 2.374 . S
Eu419 O434 2.473 . S
Eu419 O435 2.480 . S
Eu419 O436 2.430 . S
Eu419 O437 2.670 . S
Eu419 O438 2.394 . S
C420 C418 1.500 . S
C420 C421 1.377 . S
C420 C425 1.377 . S
C421 C420 1.377 . S
C421 C422 1.395 . S
C421 H444 0.931 . S
C422 C421 1.395 . S
C422 C423 1.383 . S
C422 H445 0.931 . S
C423 C422 1.383 . S
C423 C424 1.394 . S
C424 C423 1.394 . S
C424 C425 1.378 . S
C424 H446 0.931 . S
C425 C420 1.377 . S
C425 C424 1.378 . S
C425 H447 0.931 . S
C426 O436 1.259 . S
C426 O437 1.270 . S
C427 O438 1.251 . S
C427 O439 1.251 . S
O428 C408 1.257 . S
O428 Eu409 2.473 . S
O429 C408 1.260 . S
O429 Eu409 2.480 . S
O430 Eu409 2.430 . S
O430 C416 1.259 . S
O431 Eu409 2.670 1_556 S
O431 C416 1.270 1_556 S
O431 Eu419 2.355 . S
O432 Eu409 2.394 . S
O432 C417 1.251 . S
O433 C417 1.251 1_556 S
O433 Eu419 2.374 . S
O434 C418 1.257 . S
O434 Eu419 2.473 . S
O435 C418 1.260 . S
O435 Eu419 2.480 . S
O436 Eu419 2.430 . S
O436 C426 1.259 . S
O437 Eu409 2.355 1_556 S
O437 Eu419 2.670 . S
O437 C426 1.270 . S
O438 Eu419 2.394 . S
O438 C427 1.251 . S
O439 Eu409 2.374 1_556 S
O439 C427 1.251 . S
H440 C411 0.931 . S
H441 C412 0.931 . S
H442 C414 0.931 . S
H443 C415 0.931 . S
H444 C421 0.931 . S
H445 C422 0.931 . S
H446 C424 0.931 . S
H447 C425 0.931 . S
C448 Eu449 2.835 . S
C448 C450 1.500 . S
C448 O468 1.257 . S
C448 O469 1.260 . S
Eu449 C448 2.835 . S
Eu449 O468 2.473 . S
Eu449 O469 2.480 . S
Eu449 O470 2.430 1_554 S
Eu449 O471 2.670 1_554 S
Eu449 O472 2.394 1_554 S
Eu449 O477 2.355 . S
Eu449 O479 2.374 . S
C450 C448 1.500 . S
C450 C451 1.378 . S
C450 C455 1.377 . S
C451 C450 1.378 . S
C451 C452 1.397 1_554 S
C451 H480 0.929 1_554 S
C452 C451 1.397 1_556 S
C452 C453 1.383 . S
C452 H481 0.933 . S
C453 C452 1.383 . S
C453 C454 1.394 1_556 S
C454 C453 1.394 1_554 S
C454 C455 1.379 . S
C454 H482 0.931 . S
C455 C450 1.377 . S
C455 C454 1.379 . S
C455 H483 0.931 . S
C456 O470 1.259 . S
C456 O471 1.270 . S
C457 O472 1.251 . S
C457 O473 1.251 . S
C458 Eu459 2.835 . S
C458 C460 1.500 . S
C458 O474 1.257 . S
C458 O475 1.260 . S
Eu459 C458 2.835 . S
Eu459 O471 2.355 . S
Eu459 O473 2.374 . S
Eu459 O474 2.473 . S
Eu459 O475 2.480 . S
Eu459 O476 2.430 1_556 S
Eu459 O477 2.670 1_556 S
Eu459 O478 2.394 1_556 S
C460 C458 1.500 . S
C460 C461 1.379 . S
C460 C465 1.377 1_545 S
C461 C460 1.379 . S
C461 C462 1.397 1_556 S
C461 H484 0.929 1_556 S
C462 C461 1.397 1_554 S
C462 C463 1.383 1_545 S
C462 H485 0.932 . S
C463 C462 1.383 1_565 S
C463 C464 1.393 1_554 S
C464 C463 1.393 1_556 S
C464 C465 1.378 . S
C464 H486 0.931 . S
C465 C460 1.377 1_565 S
C465 C464 1.378 . S
C465 H487 0.931 . S
C466 O476 1.259 . S
C466 O477 1.270 . S
C467 O478 1.251 . S
C467 O479 1.251 . S
O468 C448 1.257 . S
O468 Eu449 2.473 . S
O469 C448 1.260 . S
O469 Eu449 2.480 . S
O470 Eu449 2.430 1_556 S
O470 C456 1.259 . S
O471 Eu449 2.670 1_556 S
O471 C456 1.270 . S
O471 Eu459 2.355 . S
O472 Eu449 2.394 1_556 S
O472 C457 1.251 . S
O473 C457 1.251 . S
O473 Eu459 2.374 . S
O474 C458 1.257 . S
O474 Eu459 2.473 . S
O475 C458 1.260 . S
O475 Eu459 2.480 . S
O476 Eu459 2.430 1_554 S
O476 C466 1.259 . S
O477 Eu449 2.355 . S
O477 Eu459 2.670 1_554 S
O477 C466 1.270 . S
O478 Eu459 2.394 1_554 S
O478 C467 1.251 . S
O479 Eu449 2.374 . S
O479 C467 1.251 . S
H480 C451 0.929 1_556 S
H481 C452 0.933 . S
H482 C454 0.931 . S
H483 C455 0.931 . S
H484 C461 0.929 1_554 S
H485 C462 0.932 . S
H486 C464 0.931 . S
H487 C465 0.931 . S
H488 C494 0.930 . S
H489 C498 0.930 . S
H490 C503 0.929 . S
H491 C501 0.929 . S
H492 C496 0.929 . S
H493 C502 0.929 . S
C494 H488 0.930 . S
C494 C495 1.367 . S
C494 C502 1.378 . S
C495 C494 1.367 . S
C495 C503 1.433 . S
C496 H492 0.929 . S
C496 C498 1.378 . S
C496 C500 1.350 . S
C497 C500 1.463 . S
C497 C502 1.350 . S
C497 N505 1.427 . S
C498 H489 0.930 . S
C498 C496 1.378 . S
C498 C499 1.367 . S
C499 C498 1.367 . S
C499 C501 1.433 . S
C500 C496 1.350 . S
C500 C497 1.463 . S
C500 N504 1.427 . S
C501 H491 0.929 . S
C501 C499 1.433 . S
C501 N504 1.384 . S
C502 H493 0.929 . S
C502 C494 1.378 . S
C502 C497 1.350 . S
C503 H490 0.929 . S
C503 C495 1.433 . S
C503 N505 1.384 . S
N504 C500 1.427 . S
N504 C501 1.384 . S
N505 C497 1.427 . S
N505 C503 1.384 . S
H506 C512 0.930 . S
H507 C516 0.930 . S
H508 C521 0.929 . S
H509 C519 0.929 . S
H510 C514 0.929 . S
H511 C520 0.929 . S
C512 H506 0.930 . S
C512 C513 1.367 . S
C512 C520 1.378 . S
C513 C512 1.367 . S
C513 C521 1.433 1_455 S
C514 H510 0.929 . S
C514 C516 1.378 . S
C514 C518 1.350 1_655 S
C515 C518 1.463 . S
C515 C520 1.350 . S
C515 N523 1.427 1_455 S
C516 H507 0.930 . S
C516 C514 1.378 . S
C516 C517 1.367 1_655 S
C517 C516 1.367 1_455 S
C517 C519 1.433 . S
C518 C514 1.350 1_455 S
C518 C515 1.463 . S
C518 N522 1.427 . S
C519 H509 0.929 . S
C519 C517 1.433 . S
C519 N522 1.384 . S
C520 H511 0.929 . S
C520 C512 1.378 . S
C520 C515 1.350 . S
C521 H508 0.929 . S
C521 C513 1.433 1_655 S
C521 N523 1.384 . S
N522 C518 1.427 . S
N522 C519 1.384 . S
N523 C515 1.427 1_655 S
N523 C521 1.384 . S
H524 C530 0.930 . S
H525 C534 0.930 . S
H526 C539 0.929 . S
H527 C537 0.929 . S
H528 C532 0.929 . S
H529 C538 0.950 . S
C530 H524 0.930 . S
C530 C531 1.367 1_655 S
C530 C538 1.387 . S
C531 C530 1.367 1_455 S
C531 C539 1.433 . S
C532 H528 0.929 . S
C532 C534 1.378 . S
C532 C536 1.350 . S
C533 C536 1.463 . S
C533 C538 1.320 1_455 S
C533 N541 1.427 . S
C534 H525 0.930 . S
C534 C532 1.378 . S
C534 C535 1.367 . S
C535 C534 1.367 . S
C535 C537 1.433 . S
C536 C532 1.350 . S
C536 C533 1.463 . S
C536 N540 1.427 . S
C537 H527 0.929 . S
C537 C535 1.433 . S
C537 N540 1.384 . S
C538 H529 0.950 . S
C538 C530 1.387 . S
C538 C533 1.320 1_655 S
C539 H526 0.929 . S
C539 C531 1.433 . S
C539 N541 1.384 . S
N540 C536 1.427 . S
N540 C537 1.384 . S
N541 C533 1.427 . S
N541 C539 1.384 . S
H542 C548 0.930 . S
H543 C552 0.930 1_455 S
H544 C557 0.929 . S
H545 C555 0.929 . S
H546 C550 0.929 1_455 S
H547 C556 0.929 . S
C548 H542 0.930 . S
C548 C549 1.367 . S
C548 C556 1.378 . S
C549 C548 1.367 . S
C549 C557 1.433 1_655 S
C550 H546 0.929 1_655 S
C550 C552 1.378 . S
C550 C554 1.350 . S
C551 C554 1.463 . S
C551 C556 1.350 . S
C551 N559 1.402 1_655 S
C552 H543 0.930 1_655 S
C552 C550 1.378 . S
C552 C553 1.367 . S
C553 C552 1.367 . S
C553 C555 1.433 . S
C554 C550 1.350 . S
C554 C551 1.463 . S
C554 N558 1.427 . S
C555 H545 0.929 . S
C555 C553 1.433 . S
C555 N558 1.384 . S
C556 H547 0.929 . S
C556 C548 1.378 . S
C556 C551 1.350 . S
C557 H544 0.929 . S
C557 C549 1.433 1_455 S
C557 N559 1.391 . S
N558 C554 1.427 . S
N558 C555 1.384 . S
N559 C551 1.402 1_455 S
N559 C557 1.391 . S
H560 C566 0.930 . S
H561 C570 0.930 . S
H562 C575 0.929 . S
H563 C573 0.929 . S
H564 C568 0.929 . S
H565 C574 0.929 . S
C566 H560 0.930 . S
C566 C567 1.367 . S
C566 C574 1.378 . S
C567 C566 1.367 . S
C567 C575 1.433 . S
C568 H564 0.929 . S
C568 C570 1.378 . S
C568 C572 1.350 . S
C569 C572 1.463 . S
C569 C574 1.350 . S
C569 N577 1.427 . S
C570 H561 0.930 . S
C570 C568 1.378 . S
C570 C571 1.367 . S
C571 C570 1.367 . S
C571 C573 1.433 . S
C572 C568 1.350 . S
C572 C569 1.463 . S
C572 N576 1.427 . S
C573 H563 0.929 . S
C573 C571 1.433 . S
C573 N576 1.384 . S
C574 H565 0.929 . S
C574 C566 1.378 . S
C574 C569 1.350 . S
C575 H562 0.929 . S
C575 C567 1.433 . S
C575 N577 1.384 . S
N576 C572 1.427 . S
N576 C573 1.384 . S
N577 C569 1.427 . S
N577 C575 1.384 . S
H578 C584 0.930 . S
H579 C588 0.930 . S
H580 C593 0.929 . S
H581 C591 0.929 . S
H582 C586 0.929 . S
H583 C592 0.929 . S
C584 H578 0.930 . S
C584 C585 1.367 . S
C584 C592 1.378 . S
C585 C584 1.367 . S
C585 C593 1.433 . S
C586 H582 0.929 . S
C586 C588 1.378 . S
C586 C590 1.350 . S
C587 C590 1.463 . S
C587 C592 1.350 . S
C587 N595 1.427 . S
C588 H579 0.930 . S
C588 C586 1.378 . S
C588 C589 1.367 . S
C589 C588 1.367 . S
C589 C591 1.433 . S
C590 C586 1.350 . S
C590 C587 1.463 . S
C590 N594 1.427 . S
C591 H581 0.929 . S
C591 C589 1.433 . S
C591 N594 1.384 . S
C592 H583 0.929 . S
C592 C584 1.378 . S
C592 C587 1.350 . S
C593 H580 0.929 . S
C593 C585 1.433 . S
C593 N595 1.384 . S
N594 C590 1.427 . S
N594 C591 1.384 . S
N595 C587 1.427 . S
N595 C593 1.384 . S
H596 C602 0.930 . S
H597 C606 0.930 . S
H598 C611 0.929 . S
H599 C609 0.929 . S
H600 C604 0.929 . S
H601 C610 0.929 . S
C602 H596 0.930 . S
C602 C603 1.367 . S
C602 C610 1.378 1_565 S
C603 C602 1.367 . S
C603 C611 1.432 1_565 S
C604 H600 0.929 . S
C604 C606 1.378 . S
C604 C608 1.350 . S
C605 C608 1.463 . S
C605 C610 1.350 . S
C605 N613 1.427 . S
C606 H597 0.930 . S
C606 C604 1.378 . S
C606 C607 1.367 . S
C607 C606 1.367 . S
C607 C609 1.433 . S
C608 C604 1.350 . S
C608 C605 1.463 . S
C608 N612 1.427 . S
C609 H599 0.929 . S
C609 C607 1.433 . S
C609 N612 1.384 . S
C610 H601 0.929 . S
C610 C602 1.378 1_545 S
C610 C605 1.350 . S
C611 H598 0.929 . S
C611 C603 1.432 1_545 S
C611 N613 1.384 . S
N612 C608 1.427 . S
N612 C609 1.384 . S
N613 C605 1.427 . S
N613 C611 1.384 . S
H614 C620 0.930 . S
H615 C624 0.930 . S
H616 C629 0.929 . S
H617 C627 0.929 . S
H618 C622 0.929 . S
H619 C628 0.929 . S
C620 H614 0.930 . S
C620 C621 1.367 . S
C620 C628 1.378 . S
C621 C620 1.367 . S
C621 C629 1.433 . S
C622 H618 0.929 . S
C622 C624 1.378 . S
C622 C626 1.350 . S
C623 C626 1.463 . S
C623 C628 1.350 . S
C623 N631 1.427 . S
C624 H615 0.930 . S
C624 C622 1.378 . S
C624 C625 1.367 . S
C625 C624 1.367 . S
C625 C627 1.433 . S
C626 C622 1.350 . S
C626 C623 1.463 . S
C626 N630 1.427 . S
C627 H617 0.929 . S
C627 C625 1.433 . S
C627 N630 1.384 . S
C628 H619 0.929 . S
C628 C620 1.378 . S
C628 C623 1.350 . S
C629 H616 0.929 . S
C629 C621 1.433 . S
C629 N631 1.384 . S
N630 C626 1.427 . S
N630 C627 1.384 . S
N631 C623 1.427 . S
N631 C629 1.384 . S
H632 C638 0.930 . S
H633 C642 0.930 . S
H634 C647 0.929 . S
H635 C645 0.929 . S
H636 C640 0.929 . S
H637 C646 0.929 . S
C638 H632 0.930 . S
C638 C639 1.367 . S
C638 C646 1.378 . S
C639 C638 1.367 . S
C639 C647 1.433 1_554 S
C640 H636 0.929 . S
C640 C642 1.378 . S
C640 C644 1.350 1_556 S
C641 C644 1.463 . S
C641 C646 1.350 . S
C641 N649 1.427 1_554 S
C642 H633 0.930 . S
C642 C640 1.378 . S
C642 C643 1.374 . S
C643 C642 1.374 . S
C643 C645 1.425 1_556 S
C644 C640 1.350 1_554 S
C644 C641 1.463 . S
C644 N648 1.427 . S
C645 H635 0.929 . S
C645 C643 1.425 1_554 S
C645 N648 1.384 . S
C646 H637 0.929 . S
C646 C638 1.378 . S
C646 C641 1.350 . S
C647 H634 0.929 . S
C647 C639 1.433 1_556 S
C647 N649 1.384 . S
N648 C644 1.427 . S
N648 C645 1.384 . S
N649 C641 1.427 1_556 S
N649 C647 1.384 . S
H650 C656 0.930 . S
H651 C660 0.930 . S
H652 C665 0.929 . S
H653 C663 0.929 . S
H654 C658 0.929 . S
H655 C664 0.929 . S
C656 H650 0.930 . S
C656 C657 1.367 . S
C656 C664 1.378 . S
C657 C656 1.367 . S
C657 C665 1.433 . S
C658 H654 0.929 . S
C658 C660 1.378 . S
C658 C662 1.350 . S
C659 C662 1.463 . S
C659 C664 1.350 . S
C659 N667 1.427 . S
C660 H651 0.930 . S
C660 C658 1.378 . S
C660 C661 1.367 . S
C661 C660 1.367 . S
C661 C663 1.433 . S
C662 C658 1.350 . S
C662 C659 1.463 . S
C662 N666 1.427 . S
C663 H653 0.929 . S
C663 C661 1.433 . S
C663 N666 1.384 . S
C664 H655 0.929 . S
C664 C656 1.378 . S
C664 C659 1.350 . S
C665 H652 0.929 . S
C665 C657 1.433 . S
C665 N667 1.384 . S
N666 C662 1.427 . S
N666 C663 1.384 . S
N667 C659 1.427 . S
N667 C665 1.384 . S
H668 C674 0.930 . S
H669 C678 0.930 . S
H670 C683 0.929 . S
H671 C681 0.929 1_455 S
H672 C676 0.929 . S
H673 C682 0.929 . S
C674 H668 0.930 . S
C674 C675 1.367 . S
C674 C682 1.378 . S
C675 C674 1.367 . S
C675 C683 1.433 . S
C676 H672 0.929 . S
C676 C678 1.378 1_655 S
C676 C680 1.350 . S
C677 C680 1.463 . S
C677 C682 1.350 . S
C677 N685 1.427 . S
C678 H669 0.930 . S
C678 C676 1.378 1_455 S
C678 C679 1.367 . S
C679 C678 1.367 . S
C679 C681 1.434 1_455 S
C680 C676 1.350 . S
C680 C677 1.463 . S
C680 N684 1.427 . S
C681 H671 0.929 1_655 S
C681 C679 1.434 1_655 S
C681 N684 1.383 . S
C682 H673 0.929 . S
C682 C674 1.378 . S
C682 C677 1.350 . S
C683 H670 0.929 . S
C683 C675 1.433 . S
C683 N685 1.384 . S
N684 C680 1.427 . S
N684 C681 1.383 . S
N685 C677 1.427 . S
N685 C683 1.384 . S
H686 C692 0.930 . S
H687 C696 0.930 . S
H688 C701 0.929 . S
H689 C699 0.929 . S
H690 C694 0.929 . S
H691 C700 0.929 . S
C692 H686 0.930 . S
C692 C693 1.367 . S
C692 C700 1.378 . S
C693 C692 1.367 . S
C693 C701 1.433 . S
C694 H690 0.929 . S
C694 C696 1.378 . S
C694 C698 1.350 . S
C695 C698 1.463 . S
C695 C700 1.350 . S
C695 N703 1.427 . S
C696 H687 0.930 . S
C696 C694 1.378 . S
C696 C697 1.367 . S
C697 C696 1.367 . S
C697 C699 1.433 . S
C698 C694 1.350 . S
C698 C695 1.463 . S
C698 N702 1.427 . S
C699 H689 0.929 . S
C699 C697 1.433 . S
C699 N702 1.384 . S
C700 H691 0.929 . S
C700 C692 1.378 . S
C700 C695 1.350 . S
C701 H688 0.929 . S
C701 C693 1.433 . S
C701 N703 1.384 . S
N702 C698 1.427 . S
N702 C699 1.384 . S
N703 C695 1.427 . S
N703 C701 1.384 . S
H704 C710 0.930 . S
H705 C714 0.930 . S
H706 C719 0.929 . S
H707 C717 0.929 . S
H708 C712 0.929 . S
H709 C718 0.929 . S
C710 H704 0.930 . S
C710 C711 1.367 . S
C710 C718 1.378 . S
C711 C710 1.367 . S
C711 C719 1.433 . S
C712 H708 0.929 . S
C712 C714 1.378 . S
C712 C716 1.350 . S
C713 C716 1.463 . S
C713 C718 1.350 . S
C713 N721 1.427 . S
C714 H705 0.930 . S
C714 C712 1.378 . S
C714 C715 1.367 . S
C715 C714 1.367 . S
C715 C717 1.433 . S
C716 C712 1.350 . S
C716 C713 1.463 . S
C716 N720 1.427 . S
C717 H707 0.929 . S
C717 C715 1.433 . S
C717 N720 1.384 . S
C718 H709 0.929 . S
C718 C710 1.378 . S
C718 C713 1.350 . S
C719 H706 0.929 . S
C719 C711 1.433 . S
C719 N721 1.384 . S
N720 C716 1.427 . S
N720 C717 1.384 . S
N721 C713 1.427 . S
N721 C719 1.384 . S
H722 C728 0.930 . S
H723 C732 0.930 . S
H724 C737 0.929 . S
H725 C735 0.929 . S
H726 C730 0.929 . S
H727 C736 0.929 . S
C728 H722 0.930 . S
C728 C729 1.367 . S
C728 C736 1.378 . S
C729 C728 1.367 . S
C729 C737 1.433 . S
C730 H726 0.929 . S
C730 C732 1.378 . S
C730 C734 1.350 . S
C731 C734 1.463 . S
C731 C736 1.350 . S
C731 N739 1.427 . S
C732 H723 0.930 . S
C732 C730 1.378 . S
C732 C733 1.367 . S
C733 C732 1.367 . S
C733 C735 1.433 . S
C734 C730 1.350 . S
C734 C731 1.463 . S
C734 N738 1.427 . S
C735 H725 0.929 . S
C735 C733 1.433 . S
C735 N738 1.384 . S
C736 H727 0.929 . S
C736 C728 1.378 . S
C736 C731 1.350 . S
C737 H724 0.929 . S
C737 C729 1.433 . S
C737 N739 1.384 . S
N738 C734 1.427 . S
N738 C735 1.384 . S
N739 C731 1.427 . S
N739 C737 1.384 . S
H740 C746 0.930 . S
H741 C750 0.930 . S
H742 C755 0.929 . S
H743 C753 0.929 . S
H744 C748 0.929 . S
H745 C754 0.929 . S
C746 H740 0.930 . S
C746 C747 1.367 . S
C746 C754 1.378 . S
C747 C746 1.367 . S
C747 C755 1.433 . S
C748 H744 0.929 . S
C748 C750 1.378 . S
C748 C752 1.350 . S
C749 C752 1.463 . S
C749 C754 1.350 . S
C749 N757 1.427 . S
C750 H741 0.930 . S
C750 C748 1.378 . S
C750 C751 1.367 . S
C751 C750 1.367 . S
C751 C753 1.433 . S
C752 C748 1.350 . S
C752 C749 1.463 . S
C752 N756 1.427 . S
C753 H743 0.929 . S
C753 C751 1.433 . S
C753 N756 1.384 . S
C754 H745 0.929 . S
C754 C746 1.378 . S
C754 C749 1.350 . S
C755 H742 0.929 . S
C755 C747 1.433 . S
C755 N757 1.384 . S
N756 C752 1.427 . S
N756 C753 1.384 . S
N757 C749 1.427 . S
N757 C755 1.384 . S
H758 C764 0.930 . S
H759 C768 0.930 . S
H760 C773 0.929 . S
H761 C771 0.929 . S
H762 C766 0.929 . S
H763 C772 0.929 . S
C764 H758 0.930 . S
C764 C765 1.367 . S
C764 C772 1.378 . S
C765 C764 1.367 . S
C765 C773 1.433 . S
C766 H762 0.929 . S
C766 C768 1.378 . S
C766 C770 1.350 . S
C767 C770 1.463 . S
C767 C772 1.350 . S
C767 N775 1.427 . S
C768 H759 0.930 . S
C768 C766 1.378 . S
C768 C769 1.367 . S
C769 C768 1.367 . S
C769 C771 1.433 . S
C770 C766 1.350 . S
C770 C767 1.463 . S
C770 N774 1.427 . S
C771 H761 0.929 . S
C771 C769 1.433 . S
C771 N774 1.384 . S
C772 H763 0.929 . S
C772 C764 1.378 . S
C772 C767 1.350 . S
C773 H760 0.929 . S
C773 C765 1.433 . S
C773 N775 1.384 . S
N774 C770 1.427 . S
N774 C771 1.384 . S
N775 C767 1.427 . S
N775 C773 1.384 . S
H776 C782 0.930 . S
H777 C786 0.930 . S
H778 C791 0.929 . S
H779 C789 0.929 . S
H780 C784 0.929 . S
H781 C790 0.929 . S
C782 H776 0.930 . S
C782 C783 1.367 . S
C782 C790 1.378 . S
C783 C782 1.367 . S
C783 C791 1.433 . S
C784 H780 0.929 . S
C784 C786 1.378 . S
C784 C788 1.350 . S
C785 C788 1.463 . S
C785 C790 1.350 . S
C785 N793 1.427 . S
C786 H777 0.930 . S
C786 C784 1.378 . S
C786 C787 1.367 . S
C787 C786 1.367 . S
C787 C789 1.433 . S
C788 C784 1.350 . S
C788 C785 1.463 . S
C788 N792 1.427 . S
C789 H779 0.929 . S
C789 C787 1.433 . S
C789 N792 1.384 . S
C790 H781 0.929 . S
C790 C782 1.378 . S
C790 C785 1.350 . S
C791 H778 0.929 . S
C791 C783 1.433 . S
C791 N793 1.384 . S
N792 C788 1.427 . S
N792 C789 1.384 . S
N793 C785 1.427 . S
N793 C791 1.384 . S
H794 C800 0.930 . S
H795 C804 0.930 . S
H796 C809 0.929 . S
H797 C807 0.929 . S
H798 C802 0.929 . S
H799 C808 0.929 . S
C800 H794 0.930 . S
C800 C801 1.367 . S
C800 C808 1.378 . S
C801 C800 1.367 . S
C801 C809 1.433 1_565 S
C802 H798 0.929 . S
C802 C804 1.378 . S
C802 C806 1.350 . S
C803 C806 1.463 . S
C803 C808 1.350 1_545 S
C803 N811 1.427 . S
C804 H795 0.930 . S
C804 C802 1.378 . S
C804 C805 1.367 . S
C805 C804 1.367 . S
C805 C807 1.433 1_545 S
C806 C802 1.350 . S
C806 C803 1.463 . S
C806 N810 1.427 1_545 S
C807 H797 0.929 . S
C807 C805 1.433 1_565 S
C807 N810 1.384 . S
C808 H799 0.929 . S
C808 C800 1.378 . S
C808 C803 1.350 1_565 S
C809 H796 0.929 . S
C809 C801 1.433 1_545 S
C809 N811 1.384 . S
N810 C806 1.427 1_565 S
N810 C807 1.384 . S
N811 C803 1.427 . S
N811 C809 1.384 . S
H812 C818 0.930 . S
H813 C822 0.930 . S
H814 C827 0.929 . S
H815 C825 0.929 . S
H816 C820 0.929 . S
H817 C826 0.929 . S
C818 H812 0.930 . S
C818 C819 1.367 . S
C818 C826 1.378 . S
C819 C818 1.367 . S
C819 C827 1.433 . S
C820 H816 0.929 . S
C820 C822 1.378 . S
C820 C824 1.350 . S
C821 C824 1.463 . S
C821 C826 1.350 . S
C821 N829 1.427 . S
C822 H813 0.930 . S
C822 C820 1.378 . S
C822 C823 1.367 1_556 S
C823 C822 1.367 1_554 S
C823 C825 1.433 . S
C824 C820 1.350 . S
C824 C821 1.463 . S
C824 N828 1.427 . S
C825 H815 0.929 . S
C825 C823 1.433 . S
C825 N828 1.384 1_554 S
C826 H817 0.929 . S
C826 C818 1.378 . S
C826 C821 1.350 . S
C827 H814 0.929 . S
C827 C819 1.433 . S
C827 N829 1.384 . S
N828 C824 1.427 . S
N828 C825 1.384 1_556 S
N829 C821 1.427 . S
N829 C827 1.384 . S
H830 C836 0.930 . S
H831 C840 0.930 . S
H832 C845 0.929 . S
H833 C843 0.929 . S
H834 C838 0.929 . S
H835 C844 0.929 . S
C836 H830 0.930 . S
C836 C837 1.367 . S
C836 C844 1.378 . S
C837 C836 1.367 . S
C837 C845 1.433 1_545 S
C838 H834 0.929 . S
C838 C840 1.378 . S
C838 C842 1.350 1_554 S
C839 C842 1.463 . S
C839 C844 1.350 . S
C839 N847 1.427 . S
C840 H831 0.930 . S
C840 C838 1.378 . S
C840 C841 1.367 . S
C841 C840 1.367 . S
C841 C843 1.433 . S
C842 C838 1.350 1_556 S
C842 C839 1.463 . S
C842 N846 1.432 . S
C843 H833 0.929 . S
C843 C841 1.433 . S
C843 N846 1.351 1_554 S
C844 H835 0.929 . S
C844 C836 1.378 . S
C844 C839 1.350 . S
C845 H832 0.929 . S
C845 C837 1.433 1_565 S
C845 N847 1.384 1_565 S
N846 C842 1.432 . S
N846 C843 1.351 1_556 S
N847 C839 1.427 . S
N847 C845 1.384 1_545 S
H848 C854 0.930 . S
H849 C858 0.930 . S
H850 C863 0.929 . S
H851 C861 0.929 . S
H852 C856 0.929 . S
H853 C862 0.929 . S
C854 H848 0.930 . S
C854 C855 1.367 . S
C854 C862 1.378 . S
C855 C854 1.367 . S
C855 C863 1.433 . S
C856 H852 0.929 . S
C856 C858 1.378 . S
C856 C860 1.350 . S
C857 C860 1.463 . S
C857 C862 1.350 . S
C857 N865 1.427 . S
C858 H849 0.930 . S
C858 C856 1.378 . S
C858 C859 1.367 . S
C859 C858 1.367 . S
C859 C861 1.433 . S
C860 C856 1.350 . S
C860 C857 1.463 . S
C860 N864 1.427 . S
C861 H851 0.929 . S
C861 C859 1.433 . S
C861 N864 1.384 . S
C862 H853 0.929 . S
C862 C854 1.378 . S
C862 C857 1.350 . S
C863 H850 0.929 . S
C863 C855 1.433 . S
C863 N865 1.384 . S
N864 C860 1.427 . S
N864 C861 1.384 . S
N865 C857 1.427 . S
N865 C863 1.384 . S
H866 C872 0.930 . S
H867 C876 0.930 . S
H868 C881 0.929 . S
H869 C879 0.929 . S
H870 C874 0.929 . S
H871 C880 0.929 . S
C872 H866 0.930 . S
C872 C873 1.367 1_554 S
C872 C880 1.378 . S
C873 C872 1.367 1_556 S
C873 C881 1.433 . S
C874 H870 0.929 . S
C874 C876 1.378 . S
C874 C878 1.350 . S
C875 C878 1.463 . S
C875 C880 1.350 1_556 S
C875 N883 1.427 . S
C876 H867 0.930 . S
C876 C874 1.378 . S
C876 C877 1.367 . S
C877 C876 1.367 . S
C877 C879 1.433 1_556 S
C878 C874 1.350 . S
C878 C875 1.463 . S
C878 N882 1.427 1_556 S
C879 H869 0.929 . S
C879 C877 1.433 1_554 S
C879 N882 1.384 . S
C880 H871 0.929 . S
C880 C872 1.378 . S
C880 C875 1.350 1_554 S
C881 H868 0.929 . S
C881 C873 1.433 . S
C881 N883 1.384 . S
N882 C878 1.427 1_554 S
N882 C879 1.384 . S
N883 C875 1.427 . S
N883 C881 1.384 . S
H884 C890 0.930 . S
H885 C894 0.930 . S
H886 C899 0.929 . S
H887 C897 0.929 . S
H888 C892 0.929 . S
H889 C898 0.929 . S
C890 H884 0.930 . S
C890 C891 1.367 . S
C890 C898 1.378 . S
C891 C890 1.367 . S
C891 C899 1.433 1_556 S
C892 H888 0.929 . S
C892 C894 1.378 . S
C892 C896 1.350 . S
C893 C896 1.461 . S
C893 C898 1.353 1_554 S
C893 N901 1.425 . S
C894 H885 0.930 . S
C894 C892 1.378 . S
C894 C895 1.367 . S
C895 C894 1.367 . S
C895 C897 1.433 1_554 S
C896 C892 1.350 . S
C896 C893 1.461 . S
C896 N900 1.427 1_554 S
C897 H887 0.929 . S
C897 C895 1.433 1_556 S
C897 N900 1.384 . S
C898 H889 0.929 . S
C898 C890 1.378 . S
C898 C893 1.353 1_556 S
C899 H886 0.929 . S
C899 C891 1.433 1_554 S
C899 N901 1.384 . S
N900 C896 1.427 1_556 S
N900 C897 1.384 . S
N901 C893 1.425 . S
N901 C899 1.384 . S
H902 C908 0.930 1_556 S
H903 C912 0.930 . S
H904 C917 0.929 . S
H905 C915 0.929 . S
H906 C910 0.929 . S
H907 C916 0.929 . S
C908 H902 0.930 1_554 S
C908 C909 1.367 . S
C908 C916 1.378 . S
C909 C908 1.367 . S
C909 C917 1.433 . S
C910 H906 0.929 . S
C910 C912 1.378 . S
C910 C914 1.350 1_455 S
C911 C914 1.463 . S
C911 C916 1.350 . S
C911 N919 1.427 . S
C912 H903 0.930 . S
C912 C910 1.378 . S
C912 C913 1.367 . S
C913 C912 1.367 . S
C913 C915 1.433 . S
C914 C910 1.350 1_655 S
C914 C911 1.463 . S
C914 N918 1.427 1_655 S
C915 H905 0.929 . S
C915 C913 1.433 . S
C915 N918 1.384 . S
C916 H907 0.929 . S
C916 C908 1.378 . S
C916 C911 1.350 . S
C917 H904 0.929 . S
C917 C909 1.433 . S
C917 N919 1.384 . S
N918 C914 1.427 1_455 S
N918 C915 1.384 . S
N919 C911 1.427 . S
N919 C917 1.384 . S
H920 C926 0.930 . S
H921 C930 0.930 . S
H922 C935 0.929 . S
H923 C933 0.929 . S
H924 C928 0.929 . S
H925 C934 0.929 . S
C926 H920 0.930 . S
C926 C927 1.367 . S
C926 C934 1.378 . S
C927 C926 1.367 . S
C927 C935 1.433 . S
C928 H924 0.929 . S
C928 C930 1.378 . S
C928 C932 1.350 . S
C929 C932 1.463 . S
C929 C934 1.350 . S
C929 N937 1.427 . S
C930 H921 0.930 . S
C930 C928 1.378 . S
C930 C931 1.367 . S
C931 C930 1.367 . S
C931 C933 1.433 . S
C932 C928 1.350 . S
C932 C929 1.463 . S
C932 N936 1.427 . S
C933 H923 0.929 . S
C933 C931 1.433 . S
C933 N936 1.384 . S
C934 H925 0.929 . S
C934 C926 1.378 . S
C934 C929 1.350 . S
C935 H922 0.929 . S
C935 C927 1.433 . S
C935 N937 1.384 . S
N936 C932 1.427 . S
N936 C933 1.384 . S
N937 C929 1.427 . S
N937 C935 1.384 . S
H938 C944 0.930 . S
H939 C948 0.930 . S
H940 C953 0.929 . S
H941 C951 0.928 1_655 S
H942 C946 0.929 . S
H943 C952 0.929 . S
C944 H938 0.930 . S
C944 C945 1.367 . S
C944 C952 1.378 . S
C945 C944 1.367 . S
C945 C953 1.433 . S
C946 H942 0.929 . S
C946 C948 1.378 . S
C946 C950 1.350 . S
C947 C950 1.463 . S
C947 C952 1.350 . S
C947 N955 1.427 . S
C948 H939 0.930 . S
C948 C946 1.378 . S
C948 C949 1.367 . S
C949 C948 1.367 . S
C949 C951 1.433 . S
C950 C946 1.350 . S
C950 C947 1.463 . S
C950 N954 1.427 . S
C951 H941 0.928 1_455 S
C951 C949 1.433 . S
C951 N954 1.384 . S
C952 H943 0.929 . S
C952 C944 1.378 . S
C952 C947 1.350 . S
C953 H940 0.929 . S
C953 C945 1.433 . S
C953 N955 1.384 . S
N954 C950 1.427 . S
N954 C951 1.384 . S
N955 C947 1.427 . S
N955 C953 1.384 . S
H956 C962 0.930 . S
H957 C966 0.930 1_655 S
H958 C971 0.923 1_655 S
H959 C969 0.929 . S
H960 C964 0.929 1_655 S
H961 C970 0.929 . S
C962 H956 0.930 . S
C962 C963 1.367 . S
C962 C970 1.378 . S
C963 C962 1.367 . S
C963 C971 1.439 . S
C964 H960 0.929 1_455 S
C964 C966 1.378 . S
C964 C968 1.350 . S
C965 C968 1.463 . S
C965 C970 1.350 . S
C965 N973 1.442 . S
C966 H957 0.930 1_455 S
C966 C964 1.378 . S
C966 C967 1.367 . S
C967 C966 1.367 . S
C967 C969 1.433 . S
C968 C964 1.350 . S
C968 C965 1.463 . S
C968 N972 1.427 . S
C969 H959 0.929 . S
C969 C967 1.433 . S
C969 N972 1.384 . S
C970 H961 0.929 . S
C970 C962 1.378 . S
C970 C965 1.350 . S
C971 H958 0.923 1_455 S
C971 C963 1.439 . S
C971 N973 1.382 . S
N972 C968 1.427 . S
N972 C969 1.384 . S
N973 C965 1.442 . S
N973 C971 1.382 . S
H974 C980 0.930 . S
H975 C984 0.930 1_655 S
H976 C989 0.929 . S
H977 C987 0.929 . S
H978 C982 0.929 1_655 S
H979 C988 0.929 . S
C980 H974 0.930 . S
C980 C981 1.367 1_455 S
C980 C988 1.378 . S
C981 C980 1.367 1_655 S
C981 C989 1.433 . S
C982 H978 0.929 1_455 S
C982 C984 1.378 . S
C982 C986 1.350 . S
C983 C986 1.463 . S
C983 C988 1.350 . S
C983 N991 1.427 1_455 S
C984 H975 0.930 1_455 S
C984 C982 1.378 . S
C984 C985 1.367 . S
C985 C984 1.367 . S
C985 C987 1.433 . S
C986 C982 1.350 . S
C986 C983 1.463 . S
C986 N990 1.427 . S
C987 H977 0.929 . S
C987 C985 1.433 . S
C987 N990 1.384 . S
C988 H979 0.929 . S
C988 C980 1.378 . S
C988 C983 1.350 . S
C989 H976 0.929 . S
C989 C981 1.433 . S
C989 N991 1.384 . S
N990 C986 1.427 . S
N990 C987 1.384 . S
N991 C983 1.427 1_655 S
N991 C989 1.384 . S
H992 C998 0.930 . S
H993 C1002 0.930 . S
H994 C1007 0.929 . S
H995 C1005 0.929 . S
H996 C1000 0.929 . S
H997 C1006 0.929 1_565 S
C998 H992 0.930 . S
C998 C999 1.367 1_565 S
C998 C1006 1.378 1_565 S
C999 C998 1.367 1_545 S
C999 C1007 1.433 . S
C1000 H996 0.929 . S
C1000 C1002 1.378 . S
C1000 C1004 1.350 . S
C1001 C1004 1.463 . S
C1001 C1006 1.350 . S
C1001 N1009 1.427 . S
C1002 H993 0.930 . S
C1002 C1000 1.378 . S
C1002 C1003 1.367 . S
C1003 C1002 1.367 . S
C1003 C1005 1.433 . S
C1004 C1000 1.350 . S
C1004 C1001 1.463 . S
C1004 N1008 1.427 . S
C1005 H995 0.929 . S
C1005 C1003 1.433 . S
C1005 N1008 1.384 . S
C1006 H997 0.929 1_545 S
C1006 C998 1.378 1_545 S
C1006 C1001 1.350 . S
C1007 H994 0.929 . S
C1007 C999 1.433 . S
C1007 N1009 1.384 . S
N1008 C1004 1.427 . S
N1008 C1005 1.384 . S
N1009 C1001 1.427 . S
N1009 C1007 1.384 . S
H1010 C1016 0.930 . S
H1011 C1020 0.930 . S
H1012 C1025 0.929 . S
H1013 C1023 0.929 . S
H1014 C1018 0.929 . S
H1015 C1024 0.929 . S
C1016 H1010 0.930 . S
C1016 C1017 1.367 . S
C1016 C1024 1.378 . S
C1017 C1016 1.367 . S
C1017 C1025 1.433 . S
C1018 H1014 0.929 . S
C1018 C1020 1.378 . S
C1018 C1022 1.350 . S
C1019 C1022 1.463 . S
C1019 C1024 1.350 . S
C1019 N1027 1.427 . S
C1020 H1011 0.930 . S
C1020 C1018 1.378 . S
C1020 C1021 1.367 . S
C1021 C1020 1.367 . S
C1021 C1023 1.433 . S
C1022 C1018 1.350 . S
C1022 C1019 1.463 . S
C1022 N1026 1.427 . S
C1023 H1013 0.929 . S
C1023 C1021 1.433 . S
C1023 N1026 1.384 . S
C1024 H1015 0.929 . S
C1024 C1016 1.378 . S
C1024 C1019 1.350 . S
C1025 H1012 0.929 . S
C1025 C1017 1.433 . S
C1025 N1027 1.384 . S
N1026 C1022 1.427 . S
N1026 C1023 1.384 . S
N1027 C1019 1.427 . S
N1027 C1025 1.384 . S
H1028 C1034 0.930 . S
H1029 C1038 0.930 . S
H1030 C1043 0.928 . S
H1031 C1041 0.929 . S
H1032 C1036 0.929 . S
H1033 C1042 0.930 . S
C1034 H1028 0.930 . S
C1034 C1035 1.367 . S
C1034 C1042 1.378 1_565 S
C1035 C1034 1.367 . S
C1035 C1043 1.439 . S
C1036 H1032 0.929 . S
C1036 C1038 1.378 . S
C1036 C1040 1.350 . S
C1037 C1040 1.463 . S
C1037 C1042 1.350 . S
C1037 N1045 1.427 . S
C1038 H1029 0.930 . S
C1038 C1036 1.378 . S
C1038 C1039 1.367 . S
C1039 C1038 1.367 . S
C1039 C1041 1.433 . S
C1040 C1036 1.350 . S
C1040 C1037 1.463 . S
C1040 N1044 1.427 . S
C1041 H1031 0.929 . S
C1041 C1039 1.433 . S
C1041 N1044 1.384 . S
C1042 H1033 0.930 . S
C1042 C1034 1.378 1_545 S
C1042 C1037 1.350 . S
C1043 H1030 0.928 . S
C1043 C1035 1.439 . S
C1043 N1045 1.381 1_565 S
N1044 C1040 1.427 . S
N1044 C1041 1.384 . S
N1045 C1037 1.427 . S
N1045 C1043 1.381 1_545 S
H1046 C1052 0.930 . S
H1047 C1056 0.930 . S
H1048 C1061 0.929 . S
H1049 C1059 0.929 . S
H1050 C1054 0.929 . S
H1051 C1060 0.929 . S
C1052 H1046 0.930 . S
C1052 C1053 1.367 . S
C1052 C1060 1.378 . S
C1053 C1052 1.367 . S
C1053 C1061 1.433 . S
C1054 H1050 0.929 . S
C1054 C1056 1.378 . S
C1054 C1058 1.350 . S
C1055 C1058 1.463 . S
C1055 C1060 1.350 . S
C1055 N1063 1.427 . S
C1056 H1047 0.930 . S
C1056 C1054 1.378 . S
C1056 C1057 1.367 . S
C1057 C1056 1.367 . S
C1057 C1059 1.433 . S
C1058 C1054 1.350 . S
C1058 C1055 1.463 . S
C1058 N1062 1.427 . S
C1059 H1049 0.929 . S
C1059 C1057 1.433 . S
C1059 N1062 1.384 . S
C1060 H1051 0.929 . S
C1060 C1052 1.378 . S
C1060 C1055 1.350 . S
C1061 H1048 0.929 . S
C1061 C1053 1.433 . S
C1061 N1063 1.384 . S
N1062 C1058 1.427 . S
N1062 C1059 1.384 . S
N1063 C1055 1.427 . S
N1063 C1061 1.384 . S
H1064 C1070 0.930 . S
H1065 C1074 0.930 . S
H1066 C1079 0.929 . S
H1067 C1077 0.929 . S
H1068 C1072 0.929 . S
H1069 C1078 0.929 . S
C1070 H1064 0.930 . S
C1070 C1071 1.367 . S
C1070 C1078 1.378 . S
C1071 C1070 1.367 . S
C1071 C1079 1.433 1_554 S
C1072 H1068 0.929 . S
C1072 C1074 1.378 . S
C1072 C1076 1.350 1_556 S
C1073 C1076 1.463 . S
C1073 C1078 1.350 . S
C1073 N1081 1.427 1_554 S
C1074 H1065 0.930 . S
C1074 C1072 1.378 . S
C1074 C1075 1.367 1_556 S
C1075 C1074 1.367 1_554 S
C1075 C1077 1.433 . S
C1076 C1072 1.350 1_554 S
C1076 C1073 1.463 . S
C1076 N1080 1.427 . S
C1077 H1067 0.929 . S
C1077 C1075 1.433 . S
C1077 N1080 1.384 . S
C1078 H1069 0.929 . S
C1078 C1070 1.378 . S
C1078 C1073 1.350 . S
C1079 H1066 0.929 . S
C1079 C1071 1.433 1_556 S
C1079 N1081 1.384 . S
N1080 C1076 1.427 . S
N1080 C1077 1.384 . S
N1081 C1073 1.427 1_556 S
N1081 C1079 1.384 . S
H1082 C1088 0.930 . S
H1083 C1092 0.930 . S
H1084 C1097 0.929 . S
H1085 C1095 0.929 . S
H1086 C1090 0.929 . S
H1087 C1096 0.929 . S
C1088 H1082 0.930 . S
C1088 C1089 1.367 . S
C1088 C1096 1.378 . S
C1089 C1088 1.367 . S
C1089 C1097 1.433 . S
C1090 H1086 0.929 . S
C1090 C1092 1.378 . S
C1090 C1094 1.350 . S
C1091 C1094 1.463 . S
C1091 C1096 1.350 . S
C1091 N1099 1.427 . S
C1092 H1083 0.930 . S
C1092 C1090 1.378 . S
C1092 C1093 1.367 . S
C1093 C1092 1.367 . S
C1093 C1095 1.433 . S
C1094 C1090 1.350 . S
C1094 C1091 1.463 . S
C1094 N1098 1.427 . S
C1095 H1085 0.929 . S
C1095 C1093 1.433 . S
C1095 N1098 1.384 . S
C1096 H1087 0.929 . S
C1096 C1088 1.378 . S
C1096 C1091 1.350 . S
C1097 H1084 0.929 . S
C1097 C1089 1.433 . S
C1097 N1099 1.384 . S
N1098 C1094 1.427 . S
N1098 C1095 1.384 . S
N1099 C1091 1.427 . S
N1099 C1097 1.384 . S
H1100 C1106 0.930 . S
H1101 C1110 0.930 . S
H1102 C1115 0.929 . S
H1103 C1113 0.929 . S
H1104 C1108 0.929 . S
H1105 C1114 0.929 . S
C1106 H1100 0.930 . S
C1106 C1107 1.367 . S
C1106 C1114 1.378 . S
C1107 C1106 1.367 . S
C1107 C1115 1.433 . S
C1108 H1104 0.929 . S
C1108 C1110 1.378 . S
C1108 C1112 1.350 . S
C1109 C1112 1.463 . S
C1109 C1114 1.350 . S
C1109 N1117 1.427 . S
C1110 H1101 0.930 . S
C1110 C1108 1.378 . S
C1110 C1111 1.367 . S
C1111 C1110 1.367 . S
C1111 C1113 1.433 . S
C1112 C1108 1.350 . S
C1112 C1109 1.463 . S
C1112 N1116 1.427 . S
C1113 H1103 0.929 . S
C1113 C1111 1.433 . S
C1113 N1116 1.384 . S
C1114 H1105 0.929 . S
C1114 C1106 1.378 . S
C1114 C1109 1.350 . S
C1115 H1102 0.929 . S
C1115 C1107 1.433 . S
C1115 N1117 1.384 . S
N1116 C1112 1.427 . S
N1116 C1113 1.384 . S
N1117 C1109 1.427 . S
N1117 C1115 1.384 . S
H1118 C1124 0.930 . S
H1119 C1128 0.930 . S
H1120 C1133 0.929 . S
H1121 C1131 0.929 . S
H1122 C1126 0.929 . S
H1123 C1132 0.929 . S
C1124 H1118 0.930 . S
C1124 C1125 1.367 . S
C1124 C1132 1.378 . S
C1125 C1124 1.367 . S
C1125 C1133 1.433 . S
C1126 H1122 0.929 . S
C1126 C1128 1.378 . S
C1126 C1130 1.350 . S
C1127 C1130 1.463 . S
C1127 C1132 1.350 . S
C1127 N1135 1.427 . S
C1128 H1119 0.930 . S
C1128 C1126 1.378 . S
C1128 C1129 1.367 . S
C1129 C1128 1.367 . S
C1129 C1131 1.433 . S
C1130 C1126 1.350 . S
C1130 C1127 1.463 . S
C1130 N1134 1.427 . S
C1131 H1121 0.929 . S
C1131 C1129 1.433 . S
C1131 N1134 1.384 . S
C1132 H1123 0.929 . S
C1132 C1124 1.378 . S
C1132 C1127 1.350 . S
C1133 H1120 0.929 . S
C1133 C1125 1.433 . S
C1133 N1135 1.384 . S
N1134 C1130 1.427 . S
N1134 C1131 1.384 . S
N1135 C1127 1.427 . S
N1135 C1133 1.384 . S
H1136 C1142 0.930 . S
H1137 C1146 0.930 . S
H1138 C1151 0.929 . S
H1139 C1149 0.929 . S
H1140 C1144 0.929 . S
H1141 C1150 0.929 . S
C1142 H1136 0.930 . S
C1142 C1143 1.367 . S
C1142 C1150 1.378 . S
C1143 C1142 1.367 . S
C1143 C1151 1.433 . S
C1144 H1140 0.929 . S
C1144 C1146 1.378 . S
C1144 C1148 1.350 . S
C1145 C1148 1.463 . S
C1145 C1150 1.350 . S
C1145 N1153 1.427 . S
C1146 H1137 0.930 . S
C1146 C1144 1.378 . S
C1146 C1147 1.367 . S
C1147 C1146 1.367 . S
C1147 C1149 1.433 . S
C1148 C1144 1.350 . S
C1148 C1145 1.463 . S
C1148 N1152 1.427 . S
C1149 H1139 0.929 . S
C1149 C1147 1.433 . S
C1149 N1152 1.384 . S
C1150 H1141 0.929 . S
C1150 C1142 1.378 . S
C1150 C1145 1.350 . S
C1151 H1138 0.929 . S
C1151 C1143 1.433 . S
C1151 N1153 1.384 . S
N1152 C1148 1.427 . S
N1152 C1149 1.384 . S
N1153 C1145 1.427 . S
N1153 C1151 1.384 . S
H1154 C1160 0.930 . S
H1155 C1164 0.930 . S
H1156 C1169 0.929 . S
H1157 C1167 0.929 . S
H1158 C1162 0.929 . S
H1159 C1168 0.929 . S
C1160 H1154 0.930 . S
C1160 C1161 1.367 . S
C1160 C1168 1.378 . S
C1161 C1160 1.367 . S
C1161 C1169 1.433 . S
C1162 H1158 0.929 . S
C1162 C1164 1.378 . S
C1162 C1166 1.350 . S
C1163 C1166 1.463 . S
C1163 C1168 1.350 . S
C1163 N1171 1.427 . S
C1164 H1155 0.930 . S
C1164 C1162 1.378 . S
C1164 C1165 1.367 . S
C1165 C1164 1.367 . S
C1165 C1167 1.433 . S
C1166 C1162 1.350 . S
C1166 C1163 1.463 . S
C1166 N1170 1.427 . S
C1167 H1157 0.929 . S
C1167 C1165 1.433 . S
C1167 N1170 1.384 . S
C1168 H1159 0.929 . S
C1168 C1160 1.378 . S
C1168 C1163 1.350 . S
C1169 H1156 0.929 . S
C1169 C1161 1.433 . S
C1169 N1171 1.384 . S
N1170 C1166 1.427 . S
N1170 C1167 1.384 . S
N1171 C1163 1.427 . S
N1171 C1169 1.384 . S
H1172 C1178 0.930 . S
H1173 C1182 0.930 . S
H1174 C1187 0.929 . S
H1175 C1185 0.929 . S
H1176 C1180 0.929 . S
H1177 C1186 0.929 . S
C1178 H1172 0.930 . S
C1178 C1179 1.367 . S
C1178 C1186 1.378 . S
C1179 C1178 1.367 . S
C1179 C1187 1.433 . S
C1180 H1176 0.929 . S
C1180 C1182 1.378 . S
C1180 C1184 1.350 . S
C1181 C1184 1.463 . S
C1181 C1186 1.350 . S
C1181 N1189 1.427 . S
C1182 H1173 0.930 . S
C1182 C1180 1.378 . S
C1182 C1183 1.367 . S
C1183 C1182 1.367 . S
C1183 C1185 1.433 . S
C1184 C1180 1.350 . S
C1184 C1181 1.463 . S
C1184 N1188 1.427 . S
C1185 H1175 0.929 . S
C1185 C1183 1.433 . S
C1185 N1188 1.384 . S
C1186 H1177 0.929 . S
C1186 C1178 1.378 . S
C1186 C1181 1.350 . S
C1187 H1174 0.929 . S
C1187 C1179 1.433 . S
C1187 N1189 1.384 . S
N1188 C1184 1.427 . S
N1188 C1185 1.384 . S
N1189 C1181 1.427 . S
N1189 C1187 1.384 . S
H1190 C1196 0.930 . S
H1191 C1200 0.930 . S
H1192 C1205 0.929 . S
H1193 C1203 0.929 . S
H1194 C1198 0.929 . S
H1195 C1204 0.929 . S
C1196 H1190 0.930 . S
C1196 C1197 1.367 . S
C1196 C1204 1.378 . S
C1197 C1196 1.367 . S
C1197 C1205 1.433 . S
C1198 H1194 0.929 . S
C1198 C1200 1.378 . S
C1198 C1202 1.350 . S
C1199 C1202 1.463 . S
C1199 C1204 1.350 . S
C1199 N1207 1.427 . S
C1200 H1191 0.930 . S
C1200 C1198 1.378 . S
C1200 C1201 1.367 . S
C1201 C1200 1.367 . S
C1201 C1203 1.433 . S
C1202 C1198 1.350 . S
C1202 C1199 1.463 . S
C1202 N1206 1.427 . S
C1203 H1193 0.929 . S
C1203 C1201 1.433 . S
C1203 N1206 1.384 . S
C1204 H1195 0.929 . S
C1204 C1196 1.378 . S
C1204 C1199 1.350 . S
C1205 H1192 0.929 . S
C1205 C1197 1.433 . S
C1205 N1207 1.384 . S
N1206 C1202 1.427 . S
N1206 C1203 1.384 . S
N1207 C1199 1.427 . S
N1207 C1205 1.384 . S
H1208 C1214 0.930 . S
H1209 C1218 0.930 . S
H1210 C1223 0.929 . S
H1211 C1221 0.929 . S
H1212 C1216 0.929 . S
H1213 C1222 0.929 . S
C1214 H1208 0.930 . S
C1214 C1215 1.367 . S
C1214 C1222 1.378 . S
C1215 C1214 1.367 . S
C1215 C1223 1.433 . S
C1216 H1212 0.929 . S
C1216 C1218 1.378 . S
C1216 C1220 1.350 . S
C1217 C1220 1.463 . S
C1217 C1222 1.350 . S
C1217 N1225 1.427 . S
C1218 H1209 0.930 . S
C1218 C1216 1.378 . S
C1218 C1219 1.367 . S
C1219 C1218 1.367 . S
C1219 C1221 1.433 . S
C1220 C1216 1.350 . S
C1220 C1217 1.463 . S
C1220 N1224 1.427 . S
C1221 H1211 0.929 . S
C1221 C1219 1.433 . S
C1221 N1224 1.384 . S
C1222 H1213 0.929 . S
C1222 C1214 1.378 . S
C1222 C1217 1.350 . S
C1223 H1210 0.929 . S
C1223 C1215 1.433 . S
C1223 N1225 1.384 . S
N1224 C1220 1.427 . S
N1224 C1221 1.384 . S
N1225 C1217 1.427 . S
N1225 C1223 1.384 . S
H1226 C1232 0.930 1_565 S
H1227 C1236 0.930 . S
H1228 C1241 0.929 . S
H1229 C1239 0.929 . S
H1230 C1234 0.929 . S
H1231 C1240 0.929 . S
C1232 H1226 0.930 1_545 S
C1232 C1233 1.369 . S
C1232 C1240 1.378 . S
C1233 C1232 1.369 . S
C1233 C1241 1.441 . S
C1234 H1230 0.929 . S
C1234 C1236 1.378 . S
C1234 C1238 1.350 . S
C1235 C1238 1.463 . S
C1235 C1240 1.350 . S
C1235 N1243 1.427 . S
C1236 H1227 0.930 . S
C1236 C1234 1.378 . S
C1236 C1237 1.367 . S
C1237 C1236 1.367 . S
C1237 C1239 1.433 . S
C1238 C1234 1.350 . S
C1238 C1235 1.463 . S
C1238 N1242 1.427 . S
C1239 H1229 0.929 . S
C1239 C1237 1.433 . S
C1239 N1242 1.384 . S
C1240 H1231 0.929 . S
C1240 C1232 1.378 . S
C1240 C1235 1.350 . S
C1241 H1228 0.929 . S
C1241 C1233 1.441 . S
C1241 N1243 1.384 . S
N1242 C1238 1.427 . S
N1242 C1239 1.384 . S
N1243 C1235 1.427 . S
N1243 C1241 1.384 . S
H1244 C1250 0.930 . S
H1245 C1254 0.930 . S
H1246 C1259 0.929 . S
H1247 C1257 0.929 . S
H1248 C1252 0.929 . S
H1249 C1258 0.929 . S
C1250 H1244 0.930 . S
C1250 C1251 1.367 . S
C1250 C1258 1.378 . S
C1251 C1250 1.367 . S
C1251 C1259 1.433 . S
C1252 H1248 0.929 . S
C1252 C1254 1.378 . S
C1252 C1256 1.350 . S
C1253 C1256 1.463 . S
C1253 C1258 1.350 . S
C1253 N1261 1.427 . S
C1254 H1245 0.930 . S
C1254 C1252 1.378 . S
C1254 C1255 1.367 . S
C1255 C1254 1.367 . S
C1255 C1257 1.433 . S
C1256 C1252 1.350 . S
C1256 C1253 1.463 . S
C1256 N1260 1.427 . S
C1257 H1247 0.929 . S
C1257 C1255 1.433 . S
C1257 N1260 1.384 . S
C1258 H1249 0.929 . S
C1258 C1250 1.378 . S
C1258 C1253 1.350 . S
C1259 H1246 0.929 . S
C1259 C1251 1.433 . S
C1259 N1261 1.384 . S
N1260 C1256 1.427 . S
N1260 C1257 1.384 . S
N1261 C1253 1.427 . S
N1261 C1259 1.384 . S
H1262 C1268 0.930 . S
H1263 C1272 0.930 . S
H1264 C1277 0.929 . S
H1265 C1275 0.930 . S
H1266 C1270 0.929 . S
H1267 C1276 0.929 . S
C1268 H1262 0.930 . S
C1268 C1269 1.367 . S
C1268 C1276 1.378 . S
C1269 C1268 1.367 . S
C1269 C1277 1.433 1_545 S
C1270 H1266 0.929 . S
C1270 C1272 1.378 . S
C1270 C1274 1.350 . S
C1271 C1274 1.463 . S
C1271 C1276 1.350 1_565 S
C1271 N1279 1.427 . S
C1272 H1263 0.930 . S
C1272 C1270 1.378 . S
C1272 C1273 1.367 . S
C1273 C1272 1.367 . S
C1273 C1275 1.433 1_556 S
C1274 C1270 1.350 . S
C1274 C1271 1.463 . S
C1274 N1278 1.434 . S
C1275 H1265 0.930 . S
C1275 C1273 1.433 1_554 S
C1275 N1278 1.386 1_554 S
C1276 H1267 0.929 . S
C1276 C1268 1.378 . S
C1276 C1271 1.350 1_545 S
C1277 H1264 0.929 . S
C1277 C1269 1.433 1_565 S
C1277 N1279 1.384 . S
N1278 C1274 1.434 . S
N1278 C1275 1.386 1_556 S
N1279 C1271 1.427 . S
N1279 C1277 1.384 . S
H1280 C1286 0.930 . S
H1281 C1290 0.930 . S
H1282 C1295 0.929 . S
H1283 C1293 0.929 . S
H1284 C1288 0.929 . S
H1285 C1294 0.929 . S
C1286 H1280 0.930 . S
C1286 C1287 1.367 . S
C1286 C1294 1.378 . S
C1287 C1286 1.367 . S
C1287 C1295 1.433 . S
C1288 H1284 0.929 . S
C1288 C1290 1.378 . S
C1288 C1292 1.350 . S
C1289 C1292 1.463 . S
C1289 C1294 1.350 . S
C1289 N1297 1.427 . S
C1290 H1281 0.930 . S
C1290 C1288 1.378 . S
C1290 C1291 1.367 . S
C1291 C1290 1.367 . S
C1291 C1293 1.433 . S
C1292 C1288 1.350 . S
C1292 C1289 1.463 . S
C1292 N1296 1.427 . S
C1293 H1283 0.929 . S
C1293 C1291 1.433 . S
C1293 N1296 1.384 . S
C1294 H1285 0.929 . S
C1294 C1286 1.378 . S
C1294 C1289 1.350 . S
C1295 H1282 0.929 . S
C1295 C1287 1.433 . S
C1295 N1297 1.384 . S
N1296 C1292 1.427 . S
N1296 C1293 1.384 . S
N1297 C1289 1.427 . S
N1297 C1295 1.384 . S
H1298 C1304 0.930 . S
H1299 C1308 0.930 . S
H1300 C1313 0.929 . S
H1301 C1311 0.929 . S
H1302 C1306 0.929 . S
H1303 C1312 0.929 . S
C1304 H1298 0.930 . S
C1304 C1305 1.367 . S
C1304 C1312 1.378 . S
C1305 C1304 1.367 . S
C1305 C1313 1.433 1_556 S
C1306 H1302 0.929 . S
C1306 C1308 1.378 . S
C1306 C1310 1.350 . S
C1307 C1310 1.463 . S
C1307 C1312 1.350 1_554 S
C1307 N1315 1.427 . S
C1308 H1299 0.930 . S
C1308 C1306 1.378 . S
C1308 C1309 1.367 . S
C1309 C1308 1.367 . S
C1309 C1311 1.433 1_554 S
C1310 C1306 1.350 . S
C1310 C1307 1.463 . S
C1310 N1314 1.427 1_554 S
C1311 H1301 0.929 . S
C1311 C1309 1.433 1_556 S
C1311 N1314 1.384 . S
C1312 H1303 0.929 . S
C1312 C1304 1.378 . S
C1312 C1307 1.350 1_556 S
C1313 H1300 0.929 . S
C1313 C1305 1.433 1_554 S
C1313 N1315 1.384 . S
N1314 C1310 1.427 1_556 S
N1314 C1311 1.384 . S
N1315 C1307 1.427 . S
N1315 C1313 1.384 . S
H1316 C1322 0.930 . S
H1317 C1326 0.930 . S
H1318 C1331 0.929 . S
H1319 C1329 0.929 . S
H1320 C1324 0.929 . S
H1321 C1330 0.929 . S
C1322 H1316 0.930 . S
C1322 C1323 1.367 1_554 S
C1322 C1330 1.378 . S
C1323 C1322 1.367 1_556 S
C1323 C1331 1.433 . S
C1324 H1320 0.929 . S
C1324 C1326 1.378 . S
C1324 C1328 1.350 1_556 S
C1325 C1328 1.463 . S
C1325 C1330 1.350 . S
C1325 N1333 1.427 1_554 S
C1326 H1317 0.930 . S
C1326 C1324 1.378 . S
C1326 C1327 1.367 1_556 S
C1327 C1326 1.367 1_554 S
C1327 C1329 1.433 . S
C1328 C1324 1.350 1_554 S
C1328 C1325 1.463 . S
C1328 N1332 1.427 . S
C1329 H1319 0.929 . S
C1329 C1327 1.433 . S
C1329 N1332 1.384 . S
C1330 H1321 0.929 . S
C1330 C1322 1.378 . S
C1330 C1325 1.350 . S
C1331 H1318 0.929 . S
C1331 C1323 1.433 . S
C1331 N1333 1.384 . S
N1332 C1328 1.427 . S
N1332 C1329 1.384 . S
N1333 C1325 1.427 1_556 S
N1333 C1331 1.384 . S
H1334 C1340 0.930 . S
H1335 C1344 0.930 1_455 S
H1336 C1349 0.929 1_556 S
H1337 C1347 0.929 . S
H1338 C1342 0.929 . S
H1339 C1348 0.929 . S
C1340 H1334 0.930 . S
C1340 C1341 1.367 . S
C1340 C1348 1.378 . S
C1341 C1340 1.367 . S
C1341 C1349 1.433 . S
C1342 H1338 0.929 . S
C1342 C1344 1.378 . S
C1342 C1346 1.350 . S
C1343 C1346 1.463 . S
C1343 C1348 1.350 . S
C1343 N1351 1.427 . S
C1344 H1335 0.930 1_655 S
C1344 C1342 1.378 . S
C1344 C1345 1.367 . S
C1345 C1344 1.367 . S
C1345 C1347 1.433 . S
C1346 C1342 1.350 . S
C1346 C1343 1.463 . S
C1346 N1350 1.427 . S
C1347 H1337 0.929 . S
C1347 C1345 1.433 . S
C1347 N1350 1.384 . S
C1348 H1339 0.929 . S
C1348 C1340 1.378 . S
C1348 C1343 1.350 . S
C1349 H1336 0.929 1_554 S
C1349 C1341 1.433 . S
C1349 N1351 1.384 . S
N1350 C1346 1.427 . S
N1350 C1347 1.384 . S
N1351 C1343 1.427 . S
N1351 C1349 1.384 . S
C495 C13 2.340 . S
C499 C267 2.185 . S
C517 C296 2.990 . S
C513 C1 2.978 . S
C535 C173 1.213 . S
C531 C27 1.212 . S
C549 C15 1.544 . S
C553 C217 1.531 . S
C567 C28 3.173 . S
C571 C467 3.081 . S
C585 C55 1.678 . S
C589 C413 1.696 . S
C607 C346 2.636 . S
C603 C40 2.725 . S
C621 C43 0.798 . S
C625 C376 0.791 . S
C643 C223 1.728 1_556 S
C639 C56 1.760 . S
C661 C293 2.185 . S
C657 C83 2.176 . S
C675 C96 1.914 . S
C679 C256 1.936 . S
C693 C71 1.800 . S
C697 C387 1.742 . S
C715 C427 2.359 . S
C711 C99 2.534 . S
C733 C456 2.695 1_565 S
C729 C111 2.683 . S
C747 C113 1.212 . S
C751 C373 1.216 . S
C769 C337 1.774 . S
C765 C125 1.770 . S
C783 C139 2.892 . S
C787 C307 2.815 . S
C801 C153 1.555 . S
C805 C253 1.582 . S
C823 C226 2.730 . S
C819 C127 2.817 . S
C837 C141 1.046 . S
C841 C176 1.030 . S
C859 C343 1.632 . S
C855 C84 1.638 . S
C877 C453 2.058 . S
C873 C154 2.048 . S
C891 C68 1.606 . S
C895 C416 1.613 . S
C909 C166 1.793 . S
C913 C187 1.730 . S
C931 C186 1.320 . S
C927 C0 1.419 . S
C945 C12 2.097 . S
C949 C216 1.912 1_455 S
C967 C263 1.270 . S
C963 C14 1.487 . S
C985 C297 1.830 . S
C981 C26 1.879 . S
C999 C41 1.969 . S
C1003 C177 1.920 . S
C1017 C42 1.710 . S
C1021 C213 1.576 . S
C1039 C266 1.087 . S
C1035 C29 1.238 . S
C1053 C54 0.991 . S
C1057 C303 0.917 . S
C1071 C69 1.510 . S
C1075 C183 1.351 . S
C1093 C257 2.432 . S
C1089 C70 2.515 . S
C1107 C85 2.070 . S
C1111 C306 1.889 . S
C1125 C82 0.976 . S
C1129 C347 0.944 . S
C1147 C386 1.214 . S
C1143 C110 1.305 . S
C1161 C98 2.146 . S
C1165 C336 1.951 . S
C1179 C124 1.445 . S
C1183 C423 1.277 . S
C1197 C112 1.992 . S
C1201 C457 1.917 . S
C1215 C126 2.159 . S
C1219 C377 2.110 . S
C1237 C333 1.559 . S
C1233 C140 1.692 1_545 S
C1251 C138 1.122 . S
C1255 C426 1.009 . S
C1273 C463 0.836 1_556 S
C1269 C152 0.895 . S
C1291 C383 1.262 . S
C1287 C97 1.382 . S
C1309 C417 2.544 . S
C1305 C167 2.612 . S
C1327 C466 1.722 . S
C1323 C57 1.854 . S
C1341 C155 0.803 . S
C1345 C227 0.814 . S
