# Generated by pormake.
# Topology pth, (4,4)-cn, num edge types: 1
# Building blocks:
#     Node 0, Type 0, BuildingBlock: UXUYUI_clean_sbu_0, # of connection points: 4
#     Node 1, Type 0, BuildingBlock: UXUYUI_clean_sbu_0, # of connection points: 4
#     Node 2, Type 0, BuildingBlock: UXUYUI_clean_sbu_0, # of connection points: 4
#     Node 3, Type 1, BuildingBlock: NAWXER_clean_sbu_0, # of connection points: 4
#     Node 4, Type 1, BuildingBlock: NAWXER_clean_sbu_0, # of connection points: 4
#     Node 5, Type 1, BuildingBlock: NAWXER_clean_sbu_0, # of connection points: 4
#     Edge 6, Type (0, 1), BuildingBlock: FUNLAD_clean_linker_0, # of connection points: 2
#     Edge 7, Type (0, 1), BuildingBlock: FUNLAD_clean_linker_0, # of connection points: 2
#     Edge 8, Type (0, 1), BuildingBlock: FUNLAD_clean_linker_0, # of connection points: 2
#     Edge 9, Type (0, 1), BuildingBlock: FUNLAD_clean_linker_0, # of connection points: 2
#     Edge 10, Type (0, 1), BuildingBlock: FUNLAD_clean_linker_0, # of connection points: 2
#     Edge 11, Type (0, 1), BuildingBlock: FUNLAD_clean_linker_0, # of connection points: 2
#     Edge 12, Type (0, 1), BuildingBlock: FUNLAD_clean_linker_0, # of connection points: 2
#     Edge 13, Type (0, 1), BuildingBlock: FUNLAD_clean_linker_0, # of connection points: 2
#     Edge 14, Type (0, 1), BuildingBlock: FUNLAD_clean_linker_0, # of connection points: 2
#     Edge 15, Type (0, 1), BuildingBlock: FUNLAD_clean_linker_0, # of connection points: 2
#     Edge 16, Type (0, 1), BuildingBlock: FUNLAD_clean_linker_0, # of connection points: 2
#     Edge 17, Type (0, 1), BuildingBlock: FUNLAD_clean_linker_0, # of connection points: 2
# Relax obj value: 0.086
# Max RMSD: 0.218
# Mean RMSD: 0.120
data_MOF--net-pth--node1-UXUYUI_clean_sbu_0--node2-NAWXER_clean_sbu_0--edge1-FUNLAD_clean_linker_0
_symmetry_space_group_name_H-M    P1
_symmetry_Int_Tables_number       1
_symmetry_cell_setting            triclinic
loop_
_symmetry_equiv_pos_as_xyz
'x, y, z'
_cell_length_a     31.981928
_cell_length_b     31.943633
_cell_length_c     80.088724
_cell_angle_alpha  89.986052
_cell_angle_beta   90.012352
_cell_angle_gamma 120.09341
loop_
_atom_site_label
_atom_site_type_symbol
_atom_site_fract_x
_atom_site_fract_y
_atom_site_fract_z
_atom_type_partial_charge
Li0 Li 0.03786 0.03671 0.07215 0.0
Li1 Li 0.98159 0.02823 0.09329 0.0
Li2 Li 0.01692 0.97575 0.09291 0.0
Li3 Li 0.95962 0.96515 0.07134 0.0
C4 C 0.09692 0.06241 0.10069 0.0
N5 N 0.19186 0.09448 0.10938 0.0
C6 C 0.11746 0.09286 0.11445 0.0
C7 C 0.12463 0.04818 0.09135 0.0
C8 C 0.16553 0.10872 0.11864 0.0
C9 C 0.17256 0.06481 0.09595 0.0
C10 C 0.98653 0.07234 0.05904 0.0
C11 C 0.99136 0.10748 0.03195 0.0
N12 N 0.01538 0.1524 0.03885 0.0
C13 C 0.01098 0.11885 0.06589 0.0
C14 C 0.97638 0.06655 0.04195 0.0
C15 C 0.02535 0.15887 0.05547 0.0
C16 C 0.08998 0.07672 0.04204 0.0
N17 N 0.0878 0.08539 0.05855 0.0
C18 C 0.15087 0.16755 0.05538 0.0
C19 C 0.11745 0.12966 0.06532 0.0
C20 C 0.15355 0.16002 0.03824 0.0
C21 C 0.12269 0.1138 0.03158 0.0
H22 H 0.06542 0.04134 0.03695 0.0
H23 H 0.11399 0.13613 0.07836 0.0
C24 C 0.97404 0.06086 0.12435 0.0
N25 N 0.96198 0.06131 0.10813 0.0
C26 C 0.96797 0.08959 0.13608 0.0
C27 C 0.93524 0.11731 0.11431 0.0
C28 C 0.9415 0.08752 0.103 0.0
C29 C 0.94991 0.11968 0.13102 0.0
H30 H 0.99005 0.03939 0.12803 0.0
H31 H 0.93195 0.08691 0.09002 0.0
C32 C 0.01588 0.92436 0.06484 0.0
N33 N 1.00036 0.83315 0.05744 0.0
C34 C 0.98185 0.88414 0.07387 0.0
C35 C 0.04197 0.91815 0.05204 0.0
C36 C 0.97454 0.83835 0.06994 0.0
C37 C 0.03362 0.87175 0.0485 0.0
C38 C 0.90119 0.94001 0.10047 0.0
C39 C 0.87987 0.90558 0.11315 0.0
C40 C 0.87411 0.95723 0.09232 0.0
C41 C 0.83169 0.88883 0.11744 0.0
C42 C 0.82606 0.93959 0.09699 0.0
N43 N 0.80602 0.90605 0.10935 0.0
C44 C 0.01245 0.92994 0.12251 0.0
C45 C 0.06611 0.92482 0.10329 0.0
C46 C 0.01685 0.89843 0.13343 0.0
N47 N 0.03572 0.94128 0.10759 0.0
C48 C 0.07178 0.89322 0.11393 0.0
C49 C 0.04572 0.87855 0.12898 0.0
H50 H 0.98899 0.94407 0.12564 0.0
H51 H 0.08425 0.93447 0.09134 0.0
C52 C 0.91663 0.92051 0.04059 0.0
N53 N 0.9107 0.91599 0.05743 0.0
C54 C 0.88457 0.88331 0.03002 0.0
C55 C 0.84144 0.83708 0.05433 0.0
C56 C 0.8743 0.875 0.06439 0.0
C57 C 0.84629 0.84085 0.03689 0.0
H58 H 0.94705 0.95248 0.03537 0.0
H59 H 0.87154 0.87068 0.07776 0.0
O60 O 0.04981 0.04656 0.09655 0.0
O61 O 0.97329 0.03279 0.06899 0.0
O62 O 0.02365 0.96967 0.0683 0.0
O63 O 0.94841 0.95678 0.0962 0.0
H64 H 0.09641 0.1041 0.12182 0.0
H65 H 0.10944 0.02467 0.08066 0.0
H66 H 0.18191 0.13233 0.12926 0.0
H67 H 0.19442 0.05411 0.08883 0.0
H68 H 0.98395 0.10353 0.01869 0.0
H69 H 0.01979 0.12406 0.07905 0.0
H70 H 0.95729 0.0309 0.03645 0.0
H71 H 0.04472 0.19506 0.06058 0.0
H72 H 0.17339 0.20278 0.06097 0.0
H73 H 0.12384 0.1064 0.01844 0.0
H74 H 0.97868 0.08929 0.14889 0.0
H75 H 0.92138 0.13997 0.10981 0.0
H76 H 0.96131 0.88812 0.08383 0.0
H77 H 0.06838 0.94892 0.04492 0.0
H78 H 0.94834 0.80695 0.07684 0.0
H79 H 0.05357 0.86643 0.03862 0.0
H80 H 0.90024 0.89175 0.11955 0.0
H81 H 0.88982 0.98379 0.08247 0.0
H82 H 0.81471 0.86212 0.12721 0.0
H83 H 0.80468 0.95257 0.09078 0.0
H84 H 0.99681 0.88865 0.14505 0.0
H85 H 0.09428 0.87854 0.11004 0.0
H86 H 0.88972 0.88776 0.01664 0.0
H87 H 0.8133 0.80454 0.0602 0.0
Li88 Li 0.97978 0.96141 0.40024 0.0
Li89 Li 0.03613 0.00674 0.42263 0.0
Li90 Li 0.95772 0.00523 0.42167 0.0
Li91 Li 0.02045 0.05015 0.40166 0.0
C92 C 0.92791 0.9102 0.4295 0.0
N93 N 0.84207 0.83045 0.43929 0.0
C94 C 0.92552 0.88652 0.44444 0.0
C95 C 0.88664 0.89347 0.41956 0.0
C96 C 0.88178 0.8462 0.44916 0.0
C97 C 0.84359 0.85306 0.42472 0.0
C98 C 0.09069 0.00662 0.3983 0.0
C99 C 0.17766 0.04566 0.39813 0.0
N100 N 0.17443 1.00167 0.39941 0.0
C101 C 0.0882 0.96177 0.39944 0.0
C102 C 0.13572 0.04892 0.3975 0.0
C103 C 0.13096 0.96004 0.40006 0.0
C104 C 0.95979 0.91041 0.36964 0.0
N105 N 0.95982 0.90559 0.3865 0.0
C106 C 0.94202 0.82372 0.38365 0.0
C107 C 0.95118 0.8633 0.39361 0.0
C108 C 0.94242 0.8278 0.36618 0.0
C109 C 0.95085 0.87174 0.35919 0.0
H110 H 0.96858 0.94486 0.36427 0.0
H111 H 0.95304 0.8607 0.407 0.0
C112 C 0.11542 0.04173 0.44549 0.0
N113 N 0.07999 0.0021 0.43762 0.0
C114 C 0.14491 0.03686 0.45726 0.0
C115 C 0.10132 0.95052 0.4525 0.0
C116 C 0.07258 0.95707 0.44085 0.0
C117 C 0.13771 0.99072 0.46104 0.0
H118 H 0.12032 0.07703 0.4429 0.0
H119 H 0.04374 0.92609 0.43453 0.0
C120 C 0.93717 0.03033 0.38748 0.0
N121 N 0.91424 0.08758 0.36804 0.0
C122 C 0.92274 0.0606 0.39498 0.0
C123 C 0.93997 0.02929 0.37008 0.0
C124 C 0.9112 0.08916 0.38494 0.0
C125 C 0.9283 0.05852 0.36048 0.0
C126 C 0.04887 0.10903 0.42877 0.0
C127 C 0.02693 0.13315 0.43591 0.0
C128 C 0.09741 0.13533 0.42401 0.0
C129 C 0.05396 0.18325 0.43812 0.0
C130 C 0.12319 0.18538 0.42641 0.0
N131 N 0.10112 0.20811 0.43336 0.0
C132 C 0.9196 0.02069 0.45089 0.0
C133 C 0.86224 0.98538 0.42905 0.0
C134 C 0.88565 0.02361 0.46101 0.0
N135 N 0.90767 0.00274 0.43515 0.0
C136 C 0.82701 0.98734 0.43878 0.0
C137 C 0.83879 0.00735 0.45491 0.0
H138 H 0.95588 0.03363 0.45546 0.0
H139 H 0.85374 0.97109 0.41649 0.0
C140 C 0.069 0.10731 0.37324 0.0
N141 N 0.04596 0.10657 0.3876 0.0
C142 C 0.08286 0.1451 0.36177 0.0
C143 C 0.05037 0.1813 0.38034 0.0
C144 C 0.03654 0.14261 0.39127 0.0
C145 C 0.07327 0.18257 0.36527 0.0
H146 H 0.0752 0.07774 0.37043 0.0
H147 H 0.01643 0.14049 0.40234 0.0
O148 O 0.97034 0.95004 0.42482 0.0
O149 O 0.04925 0.00912 0.39805 0.0
O150 O 0.94947 0.00275 0.39714 0.0
O151 O 0.02288 0.06 0.42644 0.0
H152 H 0.95715 0.8992 0.4523 0.0
H153 H 0.88781 0.91147 0.40798 0.0
H154 H 0.8794 0.82745 0.46069 0.0
H155 H 0.81137 0.8397 0.41715 0.0
H156 H 0.21277 0.07811 0.39758 0.0
H157 H 0.05364 0.92871 0.40009 0.0
H158 H 0.13827 0.08386 0.39634 0.0
H159 H 0.12958 0.9256 0.40109 0.0
H160 H 0.9355 0.79052 0.3896 0.0
H161 H 0.95256 0.87693 0.3458 0.0
H162 H 0.17294 0.06892 0.46339 0.0
H163 H 0.09418 0.91427 0.45514 0.0
H164 H 0.92165 0.06307 0.40841 0.0
H165 H 0.95153 0.00661 0.36403 0.0
H166 H 0.90029 0.11294 0.3906 0.0
H167 H 0.93055 0.05821 0.347 0.0
H168 H 0.98929 0.11359 0.4395 0.0
H169 H 0.11482 0.11735 0.41835 0.0
H170 H 0.03738 0.20239 0.44356 0.0
H171 H 0.16072 0.20616 0.42271 0.0
H172 H 0.89594 0.03839 0.47348 0.0
H173 H 0.79136 0.97453 0.43358 0.0
H174 H 0.10033 0.14475 0.35023 0.0
H175 H 0.04124 0.20883 0.38332 0.0
Li176 Li 0.03573 0.9901 0.73548 0.0
Li177 Li 0.02931 0.04155 0.75655 0.0
Li178 Li 0.96955 0.95331 0.75606 0.0
Li179 Li 0.96816 0.00502 0.73452 0.0
C180 C 0.07171 0.97745 0.76806 0.0
N181 N 0.13678 0.95977 0.78488 0.0
C182 C 0.11847 0.01529 0.77134 0.0
C183 C 0.05778 0.93076 0.77363 0.0
C184 C 0.15091 0.00559 0.77978 0.0
C185 C 0.09128 0.92251 0.78202 0.0
C186 C 0.04317 0.09633 0.72753 0.0
C187 C 0.02583 0.16081 0.73185 0.0
N188 N 0.05326 0.18426 0.7183 0.0
C189 C 0.07113 0.12101 0.71364 0.0
C190 C 0.02027 0.11631 0.73673 0.0
C191 C 0.07582 0.16545 0.70918 0.0
C192 C 0.07327 0.96291 0.70765 0.0
N193 N 0.08411 0.98818 0.72221 0.0
C194 C 0.16859 0.02685 0.71617 0.0
C195 C 0.13061 0.01966 0.72658 0.0
C196 C 0.15863 0.002 0.70091 0.0
C197 C 0.11021 0.96908 0.69681 0.0
H198 H 0.03597 0.93951 0.70411 0.0
H199 H 0.1381 0.04112 0.73776 0.0
C200 C 0.06224 0.09001 0.7874 0.0
N201 N 0.07036 0.09405 0.77066 0.0
C202 C 0.09705 0.12363 0.7983 0.0
C203 C 0.1471 0.16548 0.77448 0.0
C204 C 0.11157 0.13098 0.76407 0.0
C205 C 0.14052 0.16157 0.79187 0.0
H206 H 0.02967 0.05951 0.7923 0.0
H207 H 0.11809 0.13227 0.75079 0.0
C208 C 0.95733 0.89706 0.72746 0.0
N209 N 0.93896 0.80512 0.71965 0.0
C210 C 0.91831 0.86709 0.71718 0.0
C211 C 0.98716 0.88039 0.73367 0.0
C212 C 0.90956 0.82068 0.7134 0.0
C213 C 0.97727 0.83378 0.7296 0.0
C214 C 0.90994 0.99128 0.76266 0.0
C215 C 0.87396 0.95261 0.75357 0.0
C216 C 0.89702 0.0113 0.77578 0.0
C217 C 0.82552 0.93466 0.75776 0.0
C218 C 0.84816 0.99233 0.77959 0.0
N219 N 0.81373 0.95472 0.77058 0.0
C220 C 0.93417 0.9084 0.78701 0.0
C221 C 0.88979 0.86024 0.76391 0.0
C222 C 0.8997 0.87524 0.7981 0.0
N223 N 0.92833 0.90063 0.77027 0.0
C224 C 0.8546 0.82613 0.77452 0.0
C225 C 0.85879 0.83382 0.79185 0.0
H226 H 0.9646 0.9414 0.7917 0.0
H227 H 0.88473 0.85566 0.75058 0.0
C228 C 0.91991 0.98805 0.70455 0.0
N229 N 0.9258 0.01109 0.71935 0.0
C230 C 0.8849 0.98388 0.69324 0.0
C231 C 0.86359 0.02873 0.71238 0.0
C232 C 0.89928 0.0322 0.72333 0.0
C233 C 0.85555 0.00362 0.69721 0.0
H234 H 0.94141 0.97144 0.70178 0.0
H235 H 0.90468 0.05026 0.73522 0.0
O236 O 0.03904 0.9863 0.7601 0.0
O237 O 0.03811 0.05267 0.73195 0.0
O238 O 0.96599 0.94242 0.73134 0.0
O239 O 0.95769 0.00909 0.75898 0.0
H240 H 0.1297 0.0518 0.76741 0.0
H241 H 0.0214 0.90119 0.77156 0.0
H242 H 0.18729 0.03451 0.78231 0.0
H243 H 0.08103 0.88651 0.78633 0.0
H244 H 0.00833 0.17671 0.73885 0.0
H245 H 0.08902 0.10593 0.7064 0.0
H246 H 0.99849 0.09779 0.74751 0.0
H247 H 0.09738 0.18498 0.69846 0.0
H248 H 0.20521 0.05341 0.71966 0.0
H249 H 0.10092 0.94912 0.68518 0.0
H250 H 0.0904 0.11948 0.81162 0.0
H251 H 0.18039 0.19356 0.769 0.0
H252 H 0.89483 0.87947 0.71227 0.0
H253 H 0.01797 0.90339 0.74136 0.0
H254 H 0.87937 0.79702 0.70552 0.0
H255 H 1.00013 0.82046 0.73432 0.0
H256 H 0.88328 0.93653 0.7434 0.0
H257 H 0.9245 0.04113 0.78298 0.0
H258 H 0.79732 0.90474 0.75084 0.0
H259 H 0.83761 0.00747 0.78973 0.0
H260 H 0.90458 0.8824 0.81138 0.0
H261 H 0.82328 0.79522 0.76913 0.0
H262 H 0.87966 0.96377 0.6818 0.0
H263 H 0.84216 0.04498 0.71583 0.0
C264 C 0.97376 0.53993 0.27083 0.0
C265 C 0.9625 0.43267 0.22555 0.0
O266 O 0.01546 0.54869 0.26577 0.0
Zn267 Zn 0.04418 0.52085 0.24733 0.0
O268 O 0.93601 0.50589 0.26411 0.0
Zn269 Zn 0.96784 0.4859 0.24819 0.0
O270 O 0.99964 0.45361 0.26342 0.0
O271 O 0.07877 0.49751 0.26058 0.0
O272 O 0.92814 0.43359 0.23318 0.0
O273 O 0.00638 0.46292 0.22959 0.0
O274 O 0.081 0.57619 0.23304 0.0
O275 O 0.00232 0.54724 0.23167 0.0
C276 C 0.04207 0.46133 0.26696 0.0
C277 C 0.04535 0.57837 0.22705 0.0
C278 C 0.55178 0.98029 0.5963 0.0
C279 C 0.42399 0.96795 0.55927 0.0
O280 O 0.51527 0.9412 0.5913 0.0
Zn281 Zn 0.48582 0.97127 0.57829 0.0
O282 O 0.55641 0.02109 0.59208 0.0
Zn283 Zn 0.51995 0.04914 0.57769 0.0
O284 O 0.50107 0.08136 0.5942 0.0
O285 O 0.46337 0.00202 0.59736 0.0
O286 O 0.45625 0.01136 0.56299 0.0
O287 O 0.42652 0.93266 0.56554 0.0
O288 O 0.53778 0.00671 0.55886 0.0
O289 O 0.56874 0.08587 0.56092 0.0
C290 C 0.47124 0.0436 0.60216 0.0
C291 C 0.56673 0.0496 0.55354 0.0
C292 C 0.427 0.46511 0.93592 0.0
C293 C 0.53949 0.5703 0.89266 0.0
O294 O 0.42687 0.5011 0.92913 0.0
Zn295 Zn 0.48143 0.519 0.91413 0.0
O296 O 0.45842 0.45371 0.93137 0.0
Zn297 Zn 0.51692 0.47641 0.91432 0.0
O298 O 0.57166 0.49483 0.9293 0.0
O299 O 0.54043 0.54259 0.93104 0.0
O300 O 0.54617 0.53578 0.8974 0.0
O301 O 0.50513 0.57427 0.89901 0.0
O302 O 0.4523 0.45935 0.89742 0.0
O303 O 0.49297 0.42058 0.89941 0.0
C304 C 0.57191 0.53142 0.93573 0.0
C305 C 0.45886 0.42463 0.89288 0.0
C306 C 0.91338 0.16777 0.14261 0.0
C307 C 0.95025 0.15595 0.14278 0.0
C308 C 0.91563 0.20378 0.1532 0.0
C309 C 0.95485 0.22863 0.16425 0.0
C310 C 0.99132 0.21641 0.16444 0.0
C311 C 0.98916 0.18074 0.15387 0.0
C312 C 0.96091 0.26873 0.17534 0.0
C313 C 0.92699 0.28111 0.1783 0.0
C314 C 0.93609 0.32181 0.18961 0.0
C315 C 0.89742 0.32045 0.1984 0.0
C316 C 0.90556 0.35701 0.20981 0.0
C317 C 0.9526 0.39581 0.21257 0.0
H318 H 0.01322 0.36551 0.18473 0.0
C319 C 0.9909 0.39821 0.20322 0.0
C320 C 0.98275 0.3619 0.1918 0.0
H321 H 0.02747 0.42801 0.2048 0.0
H322 H 0.88279 0.14926 0.13427 0.0
H323 H 0.887 0.21232 0.1524 0.0
H324 H 0.02219 0.23505 0.17268 0.0
H325 H 0.01885 0.17356 0.15411 0.0
H326 H 0.9953 0.28837 0.18181 0.0
H327 H 0.89097 0.25977 0.17313 0.0
H328 H 0.86101 0.29039 0.19676 0.0
H329 H 0.8752 0.35425 0.21674 0.0
C330 C 0.81587 0.05376 0.47458 0.0
C331 C 0.80261 0.01156 0.46529 0.0
C332 C 0.78203 0.05742 0.48461 0.0
C333 C 0.73409 0.01882 0.48553 0.0
C334 C 0.72096 0.97674 0.47622 0.0
C335 C 0.75469 0.97321 0.46614 0.0
C336 C 0.69743 0.0195 0.49676 0.0
C337 C 0.69921 0.06009 0.50253 0.0
C338 C 0.66286 0.05903 0.51442 0.0
C339 C 0.67573 0.09897 0.52494 0.0
C340 C 0.64372 0.09726 0.53725 0.0
C341 C 0.59836 0.05545 0.53923 0.0
H342 H 0.60345 0.98813 0.50736 0.0
C343 C 0.58447 0.01675 0.52809 0.0
C344 C 0.61603 0.01867 0.51573 0.0
H345 H 0.54925 0.98444 0.52908 0.0
H346 H 0.85249 0.08407 0.4741 0.0
H347 H 0.79404 0.08999 0.49189 0.0
H348 H 0.68443 0.94626 0.47681 0.0
H349 H 0.74348 0.94002 0.45928 0.0
H350 H 0.66787 0.9844 0.50047 0.0
H351 H 0.72903 0.09529 0.49902 0.0
H352 H 0.71126 0.13088 0.52404 0.0
H353 H 0.65529 0.12769 0.54564 0.0
C354 C 0.80397 0.81726 0.81653 0.0
C355 C 0.8196 0.79982 0.8032 0.0
C356 C 0.76609 0.78526 0.8269 0.0
C357 C 0.74286 0.73501 0.8241 0.0
C358 C 0.75887 0.71772 0.81087 0.0
C359 C 0.7966 0.74966 0.80052 0.0
C360 C 0.70392 0.69915 0.83515 0.0
C361 C 0.67734 0.70944 0.84569 0.0
C362 C 0.6411 0.67285 0.85734 0.0
C363 C 0.60282 0.67839 0.86336 0.0
C364 C 0.5691 0.64494 0.87468 0.0
C365 C 0.57336 0.60553 0.88028 0.0
H366 H 0.67531 0.62891 0.85941 0.0
C367 C 0.6119 0.60038 0.87432 0.0
C368 C 0.64542 0.63363 0.86313 0.0
H369 H 0.61683 0.57088 0.87849 0.0
H370 H 0.82064 0.85575 0.81885 0.0
H371 H 0.75586 0.80015 0.83719 0.0
H372 H 0.74215 0.67922 0.80853 0.0
H373 H 0.80811 0.73498 0.79049 0.0
H374 H 0.69629 0.66207 0.8342 0.0
H375 H 0.68125 0.7452 0.84564 0.0
H376 H 0.59896 0.70862 0.85929 0.0
H377 H 0.54005 0.65016 0.87913 0.0
C378 C 0.0881 0.84018 0.1435 0.0
C379 C 0.04523 0.83993 0.13941 0.0
C380 C 0.08668 0.80343 0.1535 0.0
C381 C 0.04219 0.76558 0.15941 0.0
C382 C 0.99949 0.76501 0.15495 0.0
C383 C 1.00096 0.80181 0.14518 0.0
C384 C 0.03795 0.72549 0.17004 0.0
C385 C 0.0731 0.72874 0.18018 0.0
C386 C 0.06538 0.6894 0.19198 0.0
C387 C 0.10523 0.68602 0.19757 0.0
C388 C 0.09902 0.64992 0.20891 0.0
C389 C 0.05275 0.61664 0.21497 0.0
H390 H 0.98776 0.65893 0.19496 0.0
C391 C 0.01304 0.62049 0.20954 0.0
C392 C 0.01924 0.65652 0.1983 0.0
H393 H 0.97696 0.59595 0.21412 0.0
H394 H 0.12269 0.86904 0.13913 0.0
H395 H 0.12028 0.80451 0.15632 0.0
H396 H 0.96471 0.73613 0.15919 0.0
H397 H 0.96724 0.8001 0.14196 0.0
H398 H 0.00307 0.69244 0.16996 0.0
H399 H 0.10842 0.76124 0.18014 0.0
H400 H 0.14125 0.71125 0.1931 0.0
H401 H 0.13042 0.64812 0.21292 0.0
C402 C 0.18488 0.9527 0.47194 0.0
C403 C 0.16708 0.98463 0.47418 0.0
C404 C 0.21387 0.94846 0.48417 0.0
C405 C 0.22531 0.97587 0.49897 0.0
C406 C 0.2067 0.00702 0.50126 0.0
C407 C 0.1779 0.01129 0.48907 0.0
C408 C 0.25937 0.9764 0.51173 0.0
C409 C 0.27369 0.94333 0.51301 0.0
C410 C 0.31185 0.94933 0.52502 0.0
C411 C 0.31205 0.90858 0.53157 0.0
C412 C 0.34817 0.91406 0.54281 0.0
C413 C 0.38499 0.96049 0.54753 0.0
H414 H 0.35174 0.02797 0.52426 0.0
C415 C 0.38508 1.00107 0.54068 0.0
C416 C 0.34929 0.99562 0.52954 0.0
H417 H 0.41316 0.03746 0.5438 0.0
H418 H 0.17756 0.93201 0.46052 0.0
H419 H 0.22831 0.92488 0.48168 0.0
H420 H 0.21494 0.02869 0.51249 0.0
H421 H 0.16408 0.03557 0.49133 0.0
H422 H 0.27341 0.00607 0.52063 0.0
H423 H 0.25694 0.91091 0.50538 0.0
H424 H 0.28401 0.87249 0.5281 0.0
H425 H 0.34728 0.88207 0.54776 0.0
C426 C 0.19204 0.17878 0.81751 0.0
C427 C 0.17986 0.19568 0.80314 0.0
C428 C 0.23025 0.21071 0.82778 0.0
C429 C 0.25718 0.26031 0.82385 0.0
C430 C 0.24455 0.27712 0.80959 0.0
C431 C 0.20655 0.24524 0.79932 0.0
C432 C 0.29657 0.2962 0.83473 0.0
C433 C 0.32085 0.28518 0.84606 0.0
C434 C 0.35745 0.32195 0.85756 0.0
C435 C 0.3939 0.31479 0.86442 0.0
C436 C 0.42768 0.34833 0.8757 0.0
C437 C 0.42524 0.38942 0.88045 0.0
H438 H 0.32661 0.3691 0.85801 0.0
C439 C 0.3886 0.39628 0.8736 0.0
C440 C 0.35507 0.36298 0.86243 0.0
H441 H 0.38515 0.42719 0.87706 0.0
H442 H 0.17241 0.14072 0.82073 0.0
H443 H 0.23785 0.19641 0.83888 0.0
H444 H 0.26418 0.3152 0.80637 0.0
H445 H 0.19776 0.25951 0.78844 0.0
H446 H 0.30656 0.3338 0.83299 0.0
H447 H 0.31462 0.24856 0.84681 0.0
H448 H 0.39622 0.28317 0.86105 0.0
H449 H 0.45523 0.3418 0.88083 0.0
C450 C 0.82254 0.99934 0.66842 0.0
C451 C 0.81572 0.99622 0.68581 0.0
C452 C 0.78455 0.99022 0.65764 0.0
C453 C 0.73882 0.97812 0.66401 0.0
C454 C 0.73187 0.97454 0.68137 0.0
C455 C 0.76994 0.98376 0.69217 0.0
C456 C 0.69774 0.96882 0.6529 0.0
C457 C 0.70426 0.98977 0.63781 0.0
C458 C 0.6641 0.98491 0.62715 0.0
C459 C 0.67304 0.02361 0.61666 0.0
C460 C 0.63645 0.02156 0.60664 0.0
C461 C 0.59014 0.98025 0.6066 0.0
H462 H 0.61027 0.91207 0.63465 0.0
C463 C 0.58133 0.94064 0.61668 0.0
C464 C 0.61798 0.94304 0.62699 0.0
H465 H 0.546 0.9083 0.61683 0.0
H466 H 0.85735 0.00887 0.66311 0.0
H467 H 0.7911 0.992 0.64433 0.0
H468 H 0.69694 0.96489 0.68662 0.0
H469 H 0.76324 0.98015 0.7055 0.0
H470 H 0.66136 0.94722 0.65783 0.0
H471 H 0.74068 0.01518 0.63362 0.0
H472 H 0.70832 0.05606 0.61641 0.0
H473 H 0.6446 0.05252 0.59888 0.0
C474 C 0.82762 0.78627 0.01193 0.0
C475 C 0.81166 0.80044 0.02606 0.0
C476 C 0.79468 0.74818 0.0018 0.0
C477 C 0.74502 0.7234 0.00565 0.0
C478 C 0.72928 0.73767 0.01978 0.0
C479 C 0.76211 0.77555 0.02988 0.0
C480 C 0.7079 0.68517 0.99472 0.0
C481 C 0.71694 0.66038 0.983 0.0
C482 C 0.67882 0.62607 0.97135 0.0
C483 C 0.68209 0.58751 0.96428 0.0
C484 C 0.64707 0.55584 0.95289 0.0
C485 C 0.60848 0.56265 0.94826 0.0
H486 H 0.63733 0.66307 0.97117 0.0
C487 C 0.6056 0.60145 0.9553 0.0
C488 C 0.6403 0.63281 0.96658 0.0
H489 H 0.57672 0.60825 0.95193 0.0
H490 H 0.86563 0.8045 0.00872 0.0
H491 H 0.80827 0.7392 0.99082 0.0
H492 H 0.69123 0.71972 0.02295 0.0
H493 H 0.74847 0.78593 0.04053 0.0
H494 H 0.67089 0.67686 0.99662 0.0
H495 H 0.75269 0.66461 0.98196 0.0
H496 H 0.71175 0.58186 0.96757 0.0
H497 H 0.65054 0.52654 0.9476 0.0
C498 C 0.95953 0.76094 0.35959 0.0
C499 C 0.93699 0.78759 0.3553 0.0
C500 C 0.9567 0.72483 0.34901 0.0
C501 C 0.93155 0.71476 0.33376 0.0
C502 C 0.90773 0.74028 0.32972 0.0
C503 C 0.91061 0.77647 0.34031 0.0
C504 C 0.92948 0.67806 0.32181 0.0
C505 C 0.96426 0.66602 0.32087 0.0
C506 C 0.96487 0.63221 0.30822 0.0
C507 C 0.00937 0.63614 0.30413 0.0
C508 C 0.01208 0.6059 0.29213 0.0
C509 C 0.97018 0.57049 0.28403 0.0
H510 H 0.88749 0.59089 0.30356 0.0
C511 C 0.92536 0.5656 0.28841 0.0
C512 C 0.92267 0.5961 0.30039 0.0
H513 H 0.89234 0.53847 0.28249 0.0
H514 H 0.98037 0.76867 0.37098 0.0
H515 H 0.97422 0.70495 0.35288 0.0
H516 H 0.88758 0.73287 0.31817 0.0
H517 H 0.89217 0.79577 0.33675 0.0
H518 H 0.9003 0.66341 0.31275 0.0
H519 H 0.99569 0.68425 0.32892 0.0
H520 H 0.0424 0.66327 0.31006 0.0
H521 H 0.04719 0.61054 0.28914 0.0
C522 C 0.243 0.01971 0.69467 0.0
C523 C 0.19837 0.01275 0.68897 0.0
C524 C 0.28098 0.03172 0.6835 0.0
C525 C 0.27508 0.03684 0.66634 0.0
C526 C 0.2307 0.03047 0.6607 0.0
C527 C 0.19268 0.01832 0.67185 0.0
C528 C 0.3142 0.04876 0.65397 0.0
C529 C 0.34876 0.03694 0.65618 0.0
C530 C 0.3835 0.04249 0.64289 0.0
C531 C 0.3983 0.00804 0.64192 0.0
C532 C 0.42789 0.00945 0.6289 0.0
C533 C 0.44435 0.04608 0.61675 0.0
H534 H 0.39152 0.10816 0.63178 0.0
C535 C 0.43185 0.08227 0.61818 0.0
C536 C 0.40132 0.08032 0.6311 0.0
H537 H 0.44415 0.11094 0.609 0.0
H538 H 0.24858 0.01577 0.70778 0.0
H539 H 0.315 0.03761 0.68844 0.0
H540 H 0.22525 0.03456 0.64758 0.0
H541 H 0.15913 0.01422 0.66709 0.0
H542 H 0.31184 0.06378 0.64207 0.0
H543 H 0.34841 0.01755 0.66737 0.0
H544 H 0.38553 0.97886 0.65093 0.0
H545 H 0.43735 0.98133 0.6282 0.0
C546 C 0.17412 0.20841 0.01166 0.0
C547 C 0.18819 0.20041 0.02743 0.0
C548 C 0.20696 0.24661 0.00156 0.0
C549 C 0.25463 0.27755 0.00705 0.0
C550 C 0.26853 0.26937 0.02279 0.0
C551 C 0.2357 0.23148 0.0329 0.0
C552 C 0.29196 0.31615 0.9963 0.0
C553 C 0.28229 0.33704 0.98336 0.0
C554 C 0.32075 0.37188 0.97193 0.0
C555 C 0.31458 0.40679 0.96332 0.0
C556 C 0.34956 0.43833 0.95191 0.0
C557 C 0.39095 0.43487 0.94873 0.0
H558 H 0.36785 0.34147 0.97466 0.0
C559 C 0.39698 0.39997 0.9574 0.0
C560 C 0.36239 0.36885 0.96878 0.0
H561 H 0.42826 0.39602 0.95523 0.0
H562 H 0.13764 0.18523 0.00716 0.0
H563 H 0.19515 0.25087 0.98934 0.0
H564 H 0.30515 0.29221 0.02725 0.0
H565 H 0.24782 0.22595 0.0449 0.0
H566 H 0.32939 0.3282 0.9994 0.0
H567 H 0.24551 0.32896 0.98112 0.0
H568 H 0.28256 0.40954 0.96537 0.0
H569 H 0.34368 0.46457 0.94534 0.0
C570 C 0.06953 0.2094 0.33618 0.0
C571 C 0.08379 0.22121 0.35291 0.0
C572 C 0.07399 0.24501 0.32498 0.0
C573 C 0.09298 0.29319 0.3303 0.0
C574 C 0.10971 0.3054 0.34677 0.0
C575 C 0.10474 0.26971 0.35802 0.0
C576 C 0.0944 0.33107 0.31915 0.0
C577 C 0.05965 0.32112 0.30776 0.0
C578 C 0.05676 0.35861 0.29766 0.0
C579 C 0.01129 0.34889 0.29195 0.0
C580 C 0.00662 0.38265 0.28227 0.0
C581 C 0.0475 0.42679 0.27783 0.0
H582 H 0.13362 0.41112 0.29712 0.0
C583 C 0.09322 0.43654 0.28342 0.0
C584 C 0.09784 0.40283 0.29328 0.0
H585 H 0.12546 0.47007 0.28011 0.0
H586 H 0.05317 0.1723 0.33191 0.0
H587 H 0.06202 0.23461 0.31223 0.0
H588 H 0.12498 0.34233 0.35113 0.0
H589 H 0.1165 0.27988 0.37081 0.0
H590 H 0.12185 0.36839 0.32155 0.0
H591 H 0.02967 0.28425 0.30667 0.0
H592 H 0.9791 0.31505 0.29505 0.0
H593 H 0.97088 0.37374 0.27809 0.0
loop_
_geom_bond_atom_site_label_1
_geom_bond_atom_site_label_2
_geom_bond_distance
_geom_bond_site_symmetry_2
_ccdc_geom_bond_type
Li0 N17 1.990 . S
Li0 O60 1.956 . S
Li0 O61 1.970 1_455 S
Li0 O62 1.961 1_545 S
Li1 N25 1.990 . S
Li1 O60 1.970 1_655 S
Li1 O61 1.956 . S
Li1 O63 1.961 1_545 S
Li2 N47 1.990 . S
Li2 O60 1.961 1_565 S
Li2 O62 1.956 . S
Li2 O63 1.970 1_455 S
Li3 N53 1.990 . S
Li3 O61 1.961 1_565 S
Li3 O62 1.970 1_655 S
Li3 O63 1.956 . S
C4 C6 1.348 . S
C4 C7 1.356 . S
C4 O60 1.325 . S
N5 C8 1.314 . S
N5 C9 1.279 . S
C6 C4 1.348 . S
C6 C8 1.353 . S
C6 H64 0.929 . S
C7 C4 1.356 . S
C7 C9 1.358 . S
C7 H65 0.930 . S
C8 N5 1.314 . S
C8 C6 1.353 . S
C8 H66 0.930 . S
C9 N5 1.279 . S
C9 C7 1.358 . S
C9 H67 0.930 . S
C10 C13 1.348 1_655 S
C10 C14 1.356 . S
C10 O61 1.325 . S
C11 N12 1.279 . S
C11 C14 1.358 . S
C11 H68 0.930 . S
N12 C11 1.279 . S
N12 C15 1.314 . S
C13 C10 1.348 1_455 S
C13 C15 1.353 1_455 S
C13 H69 0.929 . S
C14 C10 1.356 . S
C14 C11 1.358 . S
C14 H70 0.930 . S
C15 N12 1.314 . S
C15 C13 1.353 1_655 S
C15 H71 0.930 1_655 S
C16 N17 1.314 . S
C16 C21 1.353 . S
C16 H22 0.930 . S
N17 Li0 1.990 . S
N17 C16 1.314 . S
N17 C19 1.279 . S
C18 C19 1.358 . S
C18 C20 1.356 . S
C18 H72 0.930 . S
C19 N17 1.279 . S
C19 C18 1.358 . S
C19 H23 0.930 . S
C20 C18 1.356 . S
C20 C21 1.348 . S
C21 C16 1.353 . S
C21 C20 1.348 . S
C21 H73 0.929 . S
H22 C16 0.930 . S
H23 C19 0.930 . S
C24 N25 1.314 . S
C24 C26 1.353 . S
C24 H30 0.930 . S
N25 Li1 1.990 . S
N25 C24 1.314 . S
N25 C28 1.279 . S
C26 C24 1.353 . S
C26 C29 1.348 . S
C26 H74 0.929 . S
C27 C28 1.358 . S
C27 C29 1.356 . S
C27 H75 0.930 . S
C28 N25 1.279 . S
C28 C27 1.358 . S
C28 H31 0.930 . S
C29 C26 1.348 . S
C29 C27 1.356 . S
H30 C24 0.930 . S
H31 C28 0.930 . S
C32 C34 1.348 1_455 S
C32 C35 1.356 . S
C32 O62 1.325 . S
N33 C36 1.314 . S
N33 C37 1.279 . S
C34 C32 1.348 1_655 S
C34 C36 1.353 1_655 S
C34 H76 0.929 . S
C35 C32 1.356 . S
C35 C37 1.358 . S
C35 H77 0.930 . S
C36 N33 1.314 . S
C36 C34 1.353 1_455 S
C36 H78 0.930 1_455 S
C37 N33 1.279 . S
C37 C35 1.358 . S
C37 H79 0.930 . S
C38 C39 1.348 . S
C38 C40 1.356 . S
C38 O63 1.325 . S
C39 C38 1.348 . S
C39 C41 1.353 . S
C39 H80 0.929 . S
C40 C38 1.356 . S
C40 C42 1.358 . S
C40 H81 0.930 . S
C41 C39 1.353 . S
C41 N43 1.314 . S
C41 H82 0.930 . S
C42 C40 1.358 . S
C42 N43 1.279 . S
C42 H83 0.930 . S
N43 C41 1.314 . S
N43 C42 1.279 . S
C44 C46 1.353 . S
C44 N47 1.314 . S
C44 H50 0.930 . S
C45 N47 1.279 . S
C45 C48 1.358 . S
C45 H51 0.930 . S
C46 C44 1.353 . S
C46 C49 1.348 . S
C46 H84 0.929 . S
N47 Li2 1.990 . S
N47 C44 1.314 . S
N47 C45 1.279 . S
C48 C45 1.358 . S
C48 C49 1.356 . S
C48 H85 0.930 . S
C49 C46 1.348 . S
C49 C48 1.356 . S
H50 C44 0.930 . S
H51 C45 0.930 . S
C52 N53 1.314 . S
C52 C54 1.353 . S
C52 H58 0.930 . S
N53 Li3 1.990 . S
N53 C52 1.314 . S
N53 C56 1.279 . S
C54 C52 1.353 . S
C54 C57 1.348 . S
C54 H86 0.929 . S
C55 C56 1.358 . S
C55 C57 1.356 . S
C55 H87 0.930 . S
C56 N53 1.279 . S
C56 C55 1.358 . S
C56 H59 0.930 . S
C57 C54 1.348 . S
C57 C55 1.356 . S
H58 C52 0.930 . S
H59 C56 0.930 . S
O60 Li0 1.956 . S
O60 Li1 1.970 1_455 S
O60 Li2 1.961 1_545 S
O60 C4 1.325 . S
O61 Li0 1.970 1_655 S
O61 Li1 1.956 . S
O61 Li3 1.961 1_545 S
O61 C10 1.325 . S
O62 Li0 1.961 1_565 S
O62 Li2 1.956 . S
O62 Li3 1.970 1_455 S
O62 C32 1.325 . S
O63 Li1 1.961 1_565 S
O63 Li2 1.970 1_655 S
O63 Li3 1.956 . S
O63 C38 1.325 . S
H64 C6 0.929 . S
H65 C7 0.930 . S
H66 C8 0.930 . S
H67 C9 0.930 . S
H68 C11 0.930 . S
H69 C13 0.929 . S
H70 C14 0.930 . S
H71 C15 0.930 1_455 S
H72 C18 0.930 . S
H73 C21 0.929 . S
H74 C26 0.929 . S
H75 C27 0.930 . S
H76 C34 0.929 . S
H77 C35 0.930 . S
H78 C36 0.930 1_655 S
H79 C37 0.930 . S
H80 C39 0.929 . S
H81 C40 0.930 . S
H82 C41 0.930 . S
H83 C42 0.930 . S
H84 C46 0.929 . S
H85 C48 0.930 . S
H86 C54 0.929 . S
H87 C55 0.930 . S
Li88 N105 1.990 . S
Li88 O148 1.956 . S
Li88 O149 1.970 1_665 S
Li88 O150 1.961 . S
Li89 N113 1.990 . S
Li89 O148 1.970 1_445 S
Li89 O149 1.956 . S
Li89 O151 1.961 . S
Li90 N135 1.990 . S
Li90 O148 1.961 . S
Li90 O150 1.956 . S
Li90 O151 1.970 1_665 S
Li91 N141 1.990 . S
Li91 O149 1.961 . S
Li91 O150 1.970 1_445 S
Li91 O151 1.956 . S
C92 C94 1.348 1_655 S
C92 C95 1.356 . S
C92 O148 1.325 . S
N93 C96 1.314 . S
N93 C97 1.279 . S
C94 C92 1.348 1_455 S
C94 C96 1.353 1_455 S
C94 H152 0.929 . S
C95 C92 1.356 . S
C95 C97 1.358 . S
C95 H153 0.930 . S
C96 N93 1.314 . S
C96 C94 1.353 1_655 S
C96 H154 0.930 1_655 S
C97 N93 1.279 . S
C97 C95 1.358 . S
C97 H155 0.930 . S
C98 C101 1.348 1_545 S
C98 C102 1.356 . S
C98 O149 1.325 . S
C99 N100 1.279 . S
C99 C102 1.358 . S
C99 H156 0.930 . S
N100 C99 1.279 . S
N100 C103 1.314 . S
C101 C98 1.348 1_565 S
C101 C103 1.353 1_565 S
C101 H157 0.929 . S
C102 C98 1.356 . S
C102 C99 1.358 . S
C102 H158 0.930 . S
C103 N100 1.314 . S
C103 C101 1.353 1_545 S
C103 H159 0.930 1_545 S
C104 N105 1.314 . S
C104 C109 1.353 . S
C104 H110 0.930 . S
N105 Li88 1.990 . S
N105 C104 1.314 . S
N105 C107 1.279 . S
C106 C107 1.358 . S
C106 C108 1.356 . S
C106 H160 0.930 . S
C107 N105 1.279 . S
C107 C106 1.358 . S
C107 H111 0.930 . S
C108 C106 1.356 . S
C108 C109 1.348 . S
C109 C104 1.353 . S
C109 C108 1.348 . S
C109 H161 0.929 . S
H110 C104 0.930 . S
H111 C107 0.930 . S
C112 N113 1.314 . S
C112 C114 1.353 . S
C112 H118 0.930 . S
N113 Li89 1.990 . S
N113 C112 1.314 . S
N113 C116 1.279 . S
C114 C112 1.353 . S
C114 C117 1.348 . S
C114 H162 0.929 . S
C115 C116 1.358 . S
C115 C117 1.356 . S
C115 H163 0.930 . S
C116 N113 1.279 . S
C116 C115 1.358 . S
C116 H119 0.930 . S
C117 C114 1.348 . S
C117 C115 1.356 . S
H118 C112 0.930 . S
H119 C116 0.930 . S
C120 C122 1.348 1_565 S
C120 C123 1.356 . S
C120 O150 1.325 . S
N121 C124 1.314 . S
N121 C125 1.279 . S
C122 C120 1.348 1_545 S
C122 C124 1.353 1_545 S
C122 H164 0.929 . S
C123 C120 1.356 . S
C123 C125 1.358 . S
C123 H165 0.930 . S
C124 N121 1.314 . S
C124 C122 1.353 1_565 S
C124 H166 0.930 1_565 S
C125 N121 1.279 . S
C125 C123 1.358 . S
C125 H167 0.930 . S
C126 C127 1.348 1_455 S
C126 C128 1.356 . S
C126 O151 1.325 . S
C127 C126 1.348 1_655 S
C127 C129 1.353 1_655 S
C127 H168 0.929 . S
C128 C126 1.356 . S
C128 C130 1.358 . S
C128 H169 0.930 . S
C129 C127 1.353 1_455 S
C129 N131 1.314 . S
C129 H170 0.930 1_455 S
C130 C128 1.358 . S
C130 N131 1.279 . S
C130 H171 0.930 . S
N131 C129 1.314 . S
N131 C130 1.279 . S
C132 C134 1.353 . S
C132 N135 1.314 . S
C132 H138 0.930 . S
C133 N135 1.279 . S
C133 C136 1.358 . S
C133 H139 0.930 . S
C134 C132 1.353 . S
C134 C137 1.348 . S
C134 H172 0.929 . S
N135 Li90 1.990 . S
N135 C132 1.314 . S
N135 C133 1.279 . S
C136 C133 1.358 . S
C136 C137 1.356 . S
C136 H173 0.930 . S
C137 C134 1.348 . S
C137 C136 1.356 . S
H138 C132 0.930 . S
H139 C133 0.930 . S
C140 N141 1.314 . S
C140 C142 1.353 . S
C140 H146 0.930 . S
N141 Li91 1.990 . S
N141 C140 1.314 . S
N141 C144 1.279 . S
C142 C140 1.353 . S
C142 C145 1.348 . S
C142 H174 0.929 . S
C143 C144 1.358 . S
C143 C145 1.356 . S
C143 H175 0.930 . S
C144 N141 1.279 . S
C144 C143 1.358 . S
C144 H147 0.930 . S
C145 C142 1.348 . S
C145 C143 1.356 . S
H146 C140 0.930 . S
H147 C144 0.930 . S
O148 Li88 1.956 . S
O148 Li89 1.970 1_665 S
O148 Li90 1.961 . S
O148 C92 1.325 . S
O149 Li88 1.970 1_445 S
O149 Li89 1.956 . S
O149 Li91 1.961 . S
O149 C98 1.325 . S
O150 Li88 1.961 . S
O150 Li90 1.956 . S
O150 Li91 1.970 1_665 S
O150 C120 1.325 . S
O151 Li89 1.961 . S
O151 Li90 1.970 1_445 S
O151 Li91 1.956 . S
O151 C126 1.325 . S
H152 C94 0.929 . S
H153 C95 0.930 . S
H154 C96 0.930 1_455 S
H155 C97 0.930 . S
H156 C99 0.930 . S
H157 C101 0.929 . S
H158 C102 0.930 . S
H159 C103 0.930 1_565 S
H160 C106 0.930 . S
H161 C109 0.929 . S
H162 C114 0.929 . S
H163 C115 0.930 . S
H164 C122 0.929 . S
H165 C123 0.930 . S
H166 C124 0.930 1_545 S
H167 C125 0.930 . S
H168 C127 0.929 . S
H169 C128 0.930 . S
H170 C129 0.930 1_655 S
H171 C130 0.930 . S
H172 C134 0.929 . S
H173 C136 0.930 . S
H174 C142 0.929 . S
H175 C143 0.930 . S
Li176 N193 1.990 . S
Li176 O236 1.956 . S
Li176 O237 1.970 1_565 S
Li176 O238 1.961 1_455 S
Li177 N201 1.990 . S
Li177 O236 1.970 1_545 S
Li177 O237 1.956 . S
Li177 O239 1.961 1_455 S
Li178 N223 1.990 . S
Li178 O236 1.961 1_655 S
Li178 O238 1.956 . S
Li178 O239 1.970 1_565 S
Li179 N229 1.990 . S
Li179 O237 1.961 1_655 S
Li179 O238 1.970 1_545 S
Li179 O239 1.956 . S
C180 C182 1.348 1_565 S
C180 C183 1.356 . S
C180 O236 1.325 . S
N181 C184 1.314 . S
N181 C185 1.279 . S
C182 C180 1.348 1_545 S
C182 C184 1.353 1_545 S
C182 H240 0.929 . S
C183 C180 1.356 . S
C183 C185 1.358 . S
C183 H241 0.930 . S
C184 N181 1.314 . S
C184 C182 1.353 1_565 S
C184 H242 0.930 1_565 S
C185 N181 1.279 . S
C185 C183 1.358 . S
C185 H243 0.930 . S
C186 C189 1.348 . S
C186 C190 1.356 . S
C186 O237 1.325 . S
C187 N188 1.279 . S
C187 C190 1.358 . S
C187 H244 0.930 . S
N188 C187 1.279 . S
N188 C191 1.314 . S
C189 C186 1.348 . S
C189 C191 1.353 . S
C189 H245 0.929 . S
C190 C186 1.356 . S
C190 C187 1.358 . S
C190 H246 0.930 . S
C191 N188 1.314 . S
C191 C189 1.353 . S
C191 H247 0.930 . S
C192 N193 1.314 . S
C192 C197 1.353 . S
C192 H198 0.930 . S
N193 Li176 1.990 . S
N193 C192 1.314 . S
N193 C195 1.279 . S
C194 C195 1.358 . S
C194 C196 1.356 . S
C194 H248 0.930 . S
C195 N193 1.279 . S
C195 C194 1.358 . S
C195 H199 0.930 . S
C196 C194 1.356 . S
C196 C197 1.348 . S
C197 C192 1.353 . S
C197 C196 1.348 . S
C197 H249 0.929 . S
H198 C192 0.930 . S
H199 C195 0.930 . S
C200 N201 1.314 . S
C200 C202 1.353 . S
C200 H206 0.930 . S
N201 Li177 1.990 . S
N201 C200 1.314 . S
N201 C204 1.279 . S
C202 C200 1.353 . S
C202 C205 1.348 . S
C202 H250 0.929 . S
C203 C204 1.358 . S
C203 C205 1.356 . S
C203 H251 0.930 . S
C204 N201 1.279 . S
C204 C203 1.358 . S
C204 H207 0.930 . S
C205 C202 1.348 . S
C205 C203 1.356 . S
H206 C200 0.930 . S
H207 C204 0.930 . S
C208 C210 1.348 . S
C208 C211 1.356 . S
C208 O238 1.325 . S
N209 C212 1.314 . S
N209 C213 1.279 . S
C210 C208 1.348 . S
C210 C212 1.353 . S
C210 H252 0.929 . S
C211 C208 1.356 . S
C211 C213 1.358 . S
C211 H253 0.930 . S
C212 N209 1.314 . S
C212 C210 1.353 . S
C212 H254 0.930 . S
C213 N209 1.279 . S
C213 C211 1.358 . S
C213 H255 0.930 . S
C214 C215 1.348 1_545 S
C214 C216 1.356 . S
C214 O239 1.325 . S
C215 C214 1.348 1_565 S
C215 C217 1.353 1_565 S
C215 H256 0.929 . S
C216 C214 1.356 . S
C216 C218 1.358 . S
C216 H257 0.930 . S
C217 C215 1.353 1_545 S
C217 N219 1.314 . S
C217 H258 0.930 1_545 S
C218 C216 1.358 . S
C218 N219 1.279 . S
C218 H259 0.930 . S
N219 C217 1.314 . S
N219 C218 1.279 . S
C220 C222 1.353 . S
C220 N223 1.314 . S
C220 H226 0.930 . S
C221 N223 1.279 . S
C221 C224 1.358 . S
C221 H227 0.930 . S
C222 C220 1.353 . S
C222 C225 1.348 . S
C222 H260 0.929 . S
N223 Li178 1.990 . S
N223 C220 1.314 . S
N223 C221 1.279 . S
C224 C221 1.358 . S
C224 C225 1.356 . S
C224 H261 0.930 . S
C225 C222 1.348 . S
C225 C224 1.356 . S
H226 C220 0.930 . S
H227 C221 0.930 . S
C228 N229 1.314 . S
C228 C230 1.353 . S
C228 H234 0.930 . S
N229 Li179 1.990 . S
N229 C228 1.314 . S
N229 C232 1.279 . S
C230 C228 1.353 . S
C230 C233 1.348 . S
C230 H262 0.929 . S
C231 C232 1.358 . S
C231 C233 1.356 . S
C231 H263 0.930 . S
C232 N229 1.279 . S
C232 C231 1.358 . S
C232 H235 0.930 . S
C233 C230 1.348 . S
C233 C231 1.356 . S
H234 C228 0.930 . S
H235 C232 0.930 . S
O236 Li176 1.956 . S
O236 Li177 1.970 1_565 S
O236 Li178 1.961 1_455 S
O236 C180 1.325 . S
O237 Li176 1.970 1_545 S
O237 Li177 1.956 . S
O237 Li179 1.961 1_455 S
O237 C186 1.325 . S
O238 Li176 1.961 1_655 S
O238 Li178 1.956 . S
O238 Li179 1.970 1_565 S
O238 C208 1.325 . S
O239 Li177 1.961 1_655 S
O239 Li178 1.970 1_545 S
O239 Li179 1.956 . S
O239 C214 1.325 . S
H240 C182 0.929 . S
H241 C183 0.930 . S
H242 C184 0.930 1_545 S
H243 C185 0.930 . S
H244 C187 0.930 . S
H245 C189 0.929 . S
H246 C190 0.930 . S
H247 C191 0.930 . S
H248 C194 0.930 . S
H249 C197 0.929 . S
H250 C202 0.929 . S
H251 C203 0.930 . S
H252 C210 0.929 . S
H253 C211 0.930 . S
H254 C212 0.930 . S
H255 C213 0.930 . S
H256 C215 0.929 . S
H257 C216 0.930 . S
H258 C217 0.930 1_565 S
H259 C218 0.930 . S
H260 C222 0.929 . S
H261 C224 0.930 . S
H262 C230 0.929 . S
H263 C231 0.930 . S
C264 O266 1.252 . S
C264 O268 1.255 1_455 S
C265 O272 1.246 . S
C265 O273 1.259 1_655 S
O266 C264 1.252 . S
O266 Zn267 2.028 . S
Zn267 O266 2.028 . S
Zn267 O271 2.035 . S
Zn267 O273 2.035 . S
Zn267 O274 2.028 . S
O268 C264 1.255 1_655 S
O268 Zn269 2.035 . S
Zn269 O268 2.035 . S
Zn269 O270 2.028 . S
Zn269 O272 2.028 . S
Zn269 O275 2.035 . S
O270 Zn269 2.028 . S
O270 C276 1.246 . S
O271 Zn267 2.035 . S
O271 C276 1.259 1_455 S
O272 C265 1.246 . S
O272 Zn269 2.028 . S
O273 C265 1.259 1_455 S
O273 Zn267 2.035 . S
O274 Zn267 2.028 . S
O274 C277 1.252 . S
O275 Zn269 2.035 . S
O275 C277 1.255 1_655 S
C276 O270 1.246 . S
C276 O271 1.259 1_655 S
C277 O274 1.252 . S
C277 O275 1.255 1_455 S
C278 O280 1.246 . S
C278 O282 1.259 1_565 S
C279 O286 1.250 . S
C279 O287 1.253 1_545 S
O280 C278 1.246 . S
O280 Zn281 2.028 . S
Zn281 O280 2.028 . S
Zn281 O285 2.035 . S
Zn281 O287 2.035 . S
Zn281 O288 2.028 . S
O282 C278 1.259 1_545 S
O282 Zn283 2.035 . S
Zn283 O282 2.035 . S
Zn283 O284 2.028 . S
Zn283 O286 2.028 . S
Zn283 O289 2.035 . S
O284 Zn283 2.028 . S
O284 C290 1.250 . S
O285 Zn281 2.035 . S
O285 C290 1.253 1_565 S
O286 C279 1.250 . S
O286 Zn283 2.028 . S
O287 C279 1.253 1_565 S
O287 Zn281 2.035 . S
O288 Zn281 2.028 . S
O288 C291 1.246 . S
O289 Zn283 2.035 . S
O289 C291 1.259 1_545 S
C290 O284 1.250 . S
C290 O285 1.253 1_545 S
C291 O288 1.246 . S
C291 O289 1.259 1_565 S
C292 O294 1.247 . S
C292 O296 1.258 . S
C293 O300 1.247 . S
C293 O301 1.258 . S
O294 C292 1.247 . S
O294 Zn295 2.028 . S
Zn295 O294 2.028 . S
Zn295 O299 2.035 . S
Zn295 O301 2.035 . S
Zn295 O302 2.028 . S
O296 C292 1.258 . S
O296 Zn297 2.035 . S
Zn297 O296 2.035 . S
Zn297 O298 2.028 . S
Zn297 O300 2.028 . S
Zn297 O303 2.035 . S
O298 Zn297 2.028 . S
O298 C304 1.247 . S
O299 Zn295 2.035 . S
O299 C304 1.258 . S
O300 C293 1.247 . S
O300 Zn297 2.028 . S
O301 C293 1.258 . S
O301 Zn295 2.035 . S
O302 Zn295 2.028 . S
O302 C305 1.247 . S
O303 Zn297 2.035 . S
O303 C305 1.258 . S
C304 O298 1.247 . S
C304 O299 1.258 . S
C305 O302 1.247 . S
C305 O303 1.258 . S
C306 C307 1.386 . S
C306 C308 1.383 . S
C306 H322 0.951 . S
C307 C306 1.386 . S
C307 C311 1.383 . S
C308 C306 1.383 . S
C308 C309 1.402 . S
C308 H323 0.951 . S
C309 C308 1.402 . S
C309 C310 1.375 . S
C309 C312 1.481 . S
C310 C309 1.375 . S
C310 C311 1.367 . S
C310 H324 0.951 . S
C311 C307 1.383 . S
C311 C310 1.367 . S
C311 H325 0.950 . S
C312 C309 1.481 . S
C312 C313 1.297 . S
C312 H326 0.950 . S
C313 C312 1.297 . S
C313 C314 1.479 . S
C313 H327 0.950 . S
C314 C313 1.479 . S
C314 C315 1.375 . S
C314 C320 1.404 . S
C315 C314 1.375 . S
C315 C316 1.369 . S
C315 H328 0.950 . S
C316 C315 1.369 . S
C316 C317 1.392 . S
C316 H329 0.951 . S
C317 C316 1.392 . S
C317 C319 1.384 . S
H318 C320 0.949 . S
C319 C317 1.384 . S
C319 C320 1.385 . S
C319 H321 0.950 1_655 S
C320 C314 1.404 . S
C320 H318 0.949 . S
C320 C319 1.385 . S
H321 C319 0.950 1_455 S
H322 C306 0.951 . S
H323 C308 0.951 . S
H324 C310 0.951 . S
H325 C311 0.950 . S
H326 C312 0.950 . S
H327 C313 0.950 . S
H328 C315 0.950 . S
H329 C316 0.951 . S
C330 C331 1.386 . S
C330 C332 1.383 . S
C330 H346 0.951 . S
C331 C330 1.386 . S
C331 C335 1.383 . S
C332 C330 1.383 . S
C332 C333 1.402 . S
C332 H347 0.951 1_565 S
C333 C332 1.402 . S
C333 C334 1.375 . S
C333 C336 1.481 . S
C334 C333 1.375 . S
C334 C335 1.367 . S
C334 H348 0.951 . S
C335 C331 1.383 . S
C335 C334 1.367 . S
C335 H349 0.950 . S
C336 C333 1.481 . S
C336 C337 1.302 . S
C336 H350 0.950 . S
C337 C336 1.302 . S
C337 C338 1.475 1_565 S
C337 H351 0.949 1_565 S
C338 C337 1.475 1_545 S
C338 C339 1.375 . S
C338 C344 1.404 1_545 S
C339 C338 1.375 . S
C339 C340 1.369 . S
C339 H352 0.950 . S
C340 C339 1.369 . S
C340 C341 1.392 . S
C340 H353 0.951 . S
C341 C340 1.392 . S
C341 C343 1.384 1_545 S
H342 C344 0.949 . S
C343 C341 1.384 1_565 S
C343 C344 1.385 . S
C343 H345 0.950 . S
C344 C338 1.404 1_565 S
C344 H342 0.949 . S
C344 C343 1.385 . S
H345 C343 0.950 . S
H346 C330 0.951 . S
H347 C332 0.951 1_545 S
H348 C334 0.951 . S
H349 C335 0.950 . S
H350 C336 0.950 . S
H351 C337 0.949 1_545 S
H352 C339 0.950 . S
H353 C340 0.951 . S
C354 C355 1.386 . S
C354 C356 1.383 . S
C354 H370 0.951 . S
C355 C354 1.386 . S
C355 C359 1.383 . S
C356 C354 1.383 . S
C356 C357 1.402 . S
C356 H371 0.951 . S
C357 C356 1.402 . S
C357 C358 1.375 . S
C357 C360 1.481 . S
C358 C357 1.375 . S
C358 C359 1.367 . S
C358 H372 0.951 . S
C359 C355 1.383 . S
C359 C358 1.367 . S
C359 H373 0.950 . S
C360 C357 1.481 . S
C360 C361 1.297 . S
C360 H374 0.950 . S
C361 C360 1.297 . S
C361 C362 1.479 . S
C361 H375 0.950 . S
C362 C361 1.479 . S
C362 C363 1.375 . S
C362 C368 1.404 . S
C363 C362 1.375 . S
C363 C364 1.369 . S
C363 H376 0.950 . S
C364 C363 1.369 . S
C364 C365 1.392 . S
C364 H377 0.951 . S
C365 C364 1.392 . S
C365 C367 1.384 . S
H366 C368 0.949 . S
C367 C365 1.384 . S
C367 C368 1.385 . S
C367 H369 0.950 . S
C368 C362 1.404 . S
C368 H366 0.949 . S
C368 C367 1.385 . S
H369 C367 0.950 . S
H370 C354 0.951 . S
H371 C356 0.951 . S
H372 C358 0.951 . S
H373 C359 0.950 . S
H374 C360 0.950 . S
H375 C361 0.950 . S
H376 C363 0.950 . S
H377 C364 0.951 . S
C378 C379 1.386 . S
C378 C380 1.383 . S
C378 H394 0.951 . S
C379 C378 1.386 . S
C379 C383 1.383 . S
C380 C378 1.383 . S
C380 C381 1.402 . S
C380 H395 0.951 . S
C381 C380 1.402 . S
C381 C382 1.375 1_455 S
C381 C384 1.481 . S
C382 C381 1.375 1_655 S
C382 C383 1.367 1_655 S
C382 H396 0.951 . S
C383 C379 1.383 . S
C383 C382 1.367 1_455 S
C383 H397 0.950 1_455 S
C384 C381 1.481 . S
C384 C385 1.297 . S
C384 H398 0.950 1_455 S
C385 C384 1.297 . S
C385 C386 1.479 . S
C385 H399 0.950 . S
C386 C385 1.479 . S
C386 C387 1.375 . S
C386 C392 1.404 1_455 S
C387 C386 1.375 . S
C387 C388 1.369 . S
C387 H400 0.950 . S
C388 C387 1.369 . S
C388 C389 1.392 . S
C388 H401 0.951 . S
C389 C388 1.392 . S
C389 C391 1.384 1_455 S
H390 C392 0.949 . S
C391 C389 1.384 1_655 S
C391 C392 1.385 . S
C391 H393 0.950 . S
C392 C386 1.404 1_655 S
C392 H390 0.949 . S
C392 C391 1.385 . S
H393 C391 0.950 . S
H394 C378 0.951 . S
H395 C380 0.951 . S
H396 C382 0.951 . S
H397 C383 0.950 1_655 S
H398 C384 0.950 1_655 S
H399 C385 0.950 . S
H400 C387 0.950 . S
H401 C388 0.951 . S
C402 C403 1.386 . S
C402 C404 1.383 . S
C402 H418 0.951 . S
C403 C402 1.386 . S
C403 C407 1.383 . S
C404 C402 1.383 . S
C404 C405 1.402 . S
C404 H419 0.951 . S
C405 C404 1.402 . S
C405 C406 1.375 . S
C405 C408 1.481 . S
C406 C405 1.375 . S
C406 C407 1.367 . S
C406 H420 0.951 . S
C407 C403 1.383 . S
C407 C406 1.367 . S
C407 H421 0.950 . S
C408 C405 1.481 . S
C408 C409 1.297 . S
C408 H422 0.950 . S
C409 C408 1.297 . S
C409 C410 1.479 . S
C409 H423 0.950 . S
C410 C409 1.479 . S
C410 C411 1.375 . S
C410 C416 1.404 . S
C411 C410 1.375 . S
C411 C412 1.369 . S
C411 H424 0.950 . S
C412 C411 1.369 . S
C412 C413 1.392 . S
C412 H425 0.951 . S
C413 C412 1.392 . S
C413 C415 1.384 . S
H414 C416 0.949 . S
C415 C413 1.384 . S
C415 C416 1.385 . S
C415 H417 0.950 . S
C416 C410 1.404 . S
C416 H414 0.949 . S
C416 C415 1.385 . S
H417 C415 0.950 . S
H418 C402 0.951 . S
H419 C404 0.951 . S
H420 C406 0.951 . S
H421 C407 0.950 . S
H422 C408 0.950 . S
H423 C409 0.950 . S
H424 C411 0.950 . S
H425 C412 0.951 . S
C426 C427 1.386 . S
C426 C428 1.383 . S
C426 H442 0.951 . S
C427 C426 1.386 . S
C427 C431 1.383 . S
C428 C426 1.383 . S
C428 C429 1.402 . S
C428 H443 0.951 . S
C429 C428 1.402 . S
C429 C430 1.375 . S
C429 C432 1.481 . S
C430 C429 1.375 . S
C430 C431 1.367 . S
C430 H444 0.951 . S
C431 C427 1.383 . S
C431 C430 1.367 . S
C431 H445 0.950 . S
C432 C429 1.481 . S
C432 C433 1.297 . S
C432 H446 0.950 . S
C433 C432 1.297 . S
C433 C434 1.479 . S
C433 H447 0.950 . S
C434 C433 1.479 . S
C434 C435 1.375 . S
C434 C440 1.404 . S
C435 C434 1.375 . S
C435 C436 1.369 . S
C435 H448 0.950 . S
C436 C435 1.369 . S
C436 C437 1.392 . S
C436 H449 0.951 . S
C437 C436 1.392 . S
C437 C439 1.384 . S
H438 C440 0.949 . S
C439 C437 1.384 . S
C439 C440 1.385 . S
C439 H441 0.950 . S
C440 C434 1.404 . S
C440 H438 0.949 . S
C440 C439 1.385 . S
H441 C439 0.950 . S
H442 C426 0.951 . S
H443 C428 0.951 . S
H444 C430 0.951 . S
H445 C431 0.950 . S
H446 C432 0.950 . S
H447 C433 0.950 . S
H448 C435 0.950 . S
H449 C436 0.951 . S
C450 C451 1.386 . S
C450 C452 1.383 . S
C450 H466 0.951 . S
C451 C450 1.386 . S
C451 C455 1.383 . S
C452 C450 1.383 . S
C452 C453 1.402 . S
C452 H467 0.951 . S
C453 C452 1.402 . S
C453 C454 1.375 . S
C453 C456 1.481 . S
C454 C453 1.375 . S
C454 C455 1.367 . S
C454 H468 0.951 . S
C455 C451 1.383 . S
C455 C454 1.367 . S
C455 H469 0.950 . S
C456 C453 1.481 . S
C456 C457 1.297 . S
C456 H470 0.950 1_545 S
C457 C456 1.297 . S
C457 C458 1.480 1_545 S
C457 H471 0.950 . S
C458 C457 1.480 1_565 S
C458 C459 1.375 1_565 S
C458 C464 1.404 . S
C459 C458 1.375 1_545 S
C459 C460 1.369 . S
C459 H472 0.950 . S
C460 C459 1.369 . S
C460 C461 1.392 1_545 S
C460 H473 0.951 . S
C461 C460 1.392 1_565 S
C461 C463 1.384 . S
H462 C464 0.949 . S
C463 C461 1.384 . S
C463 C464 1.385 . S
C463 H465 0.950 . S
C464 C458 1.404 . S
C464 H462 0.949 . S
C464 C463 1.385 . S
H465 C463 0.950 . S
H466 C450 0.951 . S
H467 C452 0.951 . S
H468 C454 0.951 . S
H469 C455 0.950 . S
H470 C456 0.950 1_565 S
H471 C457 0.950 . S
H472 C459 0.950 . S
H473 C460 0.951 . S
C474 C475 1.386 . S
C474 C476 1.383 1_554 S
C474 H490 0.951 . S
C475 C474 1.386 . S
C475 C479 1.383 . S
C476 C474 1.383 1_556 S
C476 C477 1.402 1_556 S
C476 H491 0.951 . S
C477 C476 1.402 1_554 S
C477 C478 1.375 . S
C477 C480 1.481 1_554 S
C478 C477 1.375 . S
C478 C479 1.367 . S
C478 H492 0.951 . S
C479 C475 1.383 . S
C479 C478 1.367 . S
C479 H493 0.950 . S
C480 C477 1.481 1_556 S
C480 C481 1.297 . S
C480 H494 0.950 . S
C481 C480 1.297 . S
C481 C482 1.479 . S
C481 H495 0.950 . S
C482 C481 1.479 . S
C482 C483 1.375 . S
C482 C488 1.404 . S
C483 C482 1.375 . S
C483 C484 1.369 . S
C483 H496 0.950 . S
C484 C483 1.369 . S
C484 C485 1.392 . S
C484 H497 0.951 . S
C485 C484 1.392 . S
C485 C487 1.384 . S
H486 C488 0.949 . S
C487 C485 1.384 . S
C487 C488 1.385 . S
C487 H489 0.950 . S
C488 C482 1.404 . S
C488 H486 0.949 . S
C488 C487 1.385 . S
H489 C487 0.950 . S
H490 C474 0.951 . S
H491 C476 0.951 . S
H492 C478 0.951 . S
H493 C479 0.950 . S
H494 C480 0.950 . S
H495 C481 0.950 . S
H496 C483 0.950 . S
H497 C484 0.951 . S
C498 C499 1.386 . S
C498 C500 1.383 . S
C498 H514 0.951 1_655 S
C499 C498 1.386 . S
C499 C503 1.383 . S
C500 C498 1.383 . S
C500 C501 1.402 . S
C500 H515 0.951 1_655 S
C501 C500 1.402 . S
C501 C502 1.375 . S
C501 C504 1.481 . S
C502 C501 1.375 . S
C502 C503 1.367 . S
C502 H516 0.951 . S
C503 C499 1.383 . S
C503 C502 1.367 . S
C503 H517 0.950 . S
C504 C501 1.481 . S
C504 C505 1.297 . S
C504 H518 0.950 . S
C505 C504 1.297 . S
C505 C506 1.479 . S
C505 H519 0.950 . S
C506 C505 1.479 . S
C506 C507 1.375 1_655 S
C506 C512 1.404 . S
C507 C506 1.375 1_455 S
C507 C508 1.369 . S
C507 H520 0.950 . S
C508 C507 1.369 . S
C508 C509 1.392 1_455 S
C508 H521 0.951 . S
C509 C508 1.392 1_655 S
C509 C511 1.384 . S
H510 C512 0.949 . S
C511 C509 1.384 . S
C511 C512 1.385 . S
C511 H513 0.950 . S
C512 C506 1.404 . S
C512 H510 0.949 . S
C512 C511 1.385 . S
H513 C511 0.950 . S
H514 C498 0.951 1_455 S
H515 C500 0.951 1_455 S
H516 C502 0.951 . S
H517 C503 0.950 . S
H518 C504 0.950 . S
H519 C505 0.950 . S
H520 C507 0.950 . S
H521 C508 0.951 . S
C522 C523 1.386 . S
C522 C524 1.383 . S
C522 H538 0.951 . S
C523 C522 1.386 . S
C523 C527 1.383 . S
C524 C522 1.383 . S
C524 C525 1.402 . S
C524 H539 0.951 . S
C525 C524 1.402 . S
C525 C526 1.375 . S
C525 C528 1.481 . S
C526 C525 1.375 . S
C526 C527 1.367 . S
C526 H540 0.951 1_565 S
C527 C523 1.383 . S
C527 C526 1.367 . S
C527 H541 0.950 . S
C528 C525 1.481 . S
C528 C529 1.297 . S
C528 H542 0.950 . S
C529 C528 1.297 . S
C529 C530 1.479 . S
C529 H543 0.950 . S
C530 C529 1.479 . S
C530 C531 1.375 . S
C530 C536 1.404 . S
C531 C530 1.375 . S
C531 C532 1.369 . S
C531 H544 0.950 . S
C532 C531 1.369 . S
C532 C533 1.392 . S
C532 H545 0.951 . S
C533 C532 1.392 . S
C533 C535 1.384 1_565 S
H534 C536 0.949 1_545 S
C535 C533 1.384 1_545 S
C535 C536 1.385 1_545 S
C535 H537 0.950 . S
C536 C530 1.404 . S
C536 H534 0.949 1_565 S
C536 C535 1.385 1_565 S
H537 C535 0.950 . S
H538 C522 0.951 . S
H539 C524 0.951 . S
H540 C526 0.951 1_545 S
H541 C527 0.950 . S
H542 C528 0.950 . S
H543 C529 0.950 . S
H544 C531 0.950 . S
H545 C532 0.951 . S
C546 C547 1.386 . S
C546 C548 1.362 1_554 S
C546 H562 0.951 . S
C547 C546 1.386 . S
C547 C551 1.383 . S
C548 C546 1.362 1_556 S
C548 C549 1.394 1_556 S
C548 H563 0.981 . S
C549 C548 1.394 1_554 S
C549 C550 1.375 . S
C549 C552 1.481 1_554 S
C550 C549 1.375 . S
C550 C551 1.367 . S
C550 H564 0.951 . S
C551 C547 1.383 . S
C551 C550 1.367 . S
C551 H565 0.950 . S
C552 C549 1.481 1_556 S
C552 C553 1.297 . S
C552 H566 0.950 . S
C553 C552 1.297 . S
C553 C554 1.479 . S
C553 H567 0.950 . S
C554 C553 1.479 . S
C554 C555 1.375 . S
C554 C560 1.404 . S
C555 C554 1.375 . S
C555 C556 1.369 . S
C555 H568 0.950 . S
C556 C555 1.369 . S
C556 C557 1.392 . S
C556 H569 0.951 . S
C557 C556 1.392 . S
C557 C559 1.384 . S
H558 C560 0.949 . S
C559 C557 1.384 . S
C559 C560 1.385 . S
C559 H561 0.950 . S
C560 C554 1.404 . S
C560 H558 0.949 . S
C560 C559 1.385 . S
H561 C559 0.950 . S
H562 C546 0.951 . S
H563 C548 0.981 . S
H564 C550 0.951 . S
H565 C551 0.950 . S
H566 C552 0.950 . S
H567 C553 0.950 . S
H568 C555 0.950 . S
H569 C556 0.951 . S
C570 C571 1.386 . S
C570 C572 1.383 . S
C570 H586 0.951 1_455 S
C571 C570 1.386 . S
C571 C575 1.383 . S
C572 C570 1.383 . S
C572 C573 1.402 . S
C572 H587 0.951 1_455 S
C573 C572 1.402 . S
C573 C574 1.375 . S
C573 C576 1.481 . S
C574 C573 1.375 . S
C574 C575 1.367 . S
C574 H588 0.951 . S
C575 C571 1.383 . S
C575 C574 1.367 . S
C575 H589 0.950 . S
C576 C573 1.481 . S
C576 C577 1.297 . S
C576 H590 0.950 . S
C577 C576 1.297 . S
C577 C578 1.479 1_455 S
C577 H591 0.950 1_455 S
C578 C577 1.479 1_655 S
C578 C579 1.375 . S
C578 C584 1.404 1_655 S
C579 C578 1.375 . S
C579 C580 1.369 . S
C579 H592 0.950 . S
C580 C579 1.369 . S
C580 C581 1.392 . S
C580 H593 0.951 . S
C581 C580 1.392 . S
C581 C583 1.384 1_655 S
H582 C584 0.949 . S
C583 C581 1.384 1_455 S
C583 C584 1.385 . S
C583 H585 0.950 . S
C584 C578 1.404 1_455 S
C584 H582 0.949 . S
C584 C583 1.385 . S
H585 C583 0.950 . S
H586 C570 0.951 1_655 S
H587 C572 0.951 1_655 S
H588 C574 0.951 . S
H589 C575 0.950 . S
H590 C576 0.950 . S
H591 C577 0.950 1_655 S
H592 C579 0.950 . S
H593 C580 0.951 . S
C317 C265 1.402 . S
C307 C29 1.403 . S
C331 C137 1.407 . S
C341 C291 1.423 1_545 S
C355 C225 1.400 . S
C365 C293 1.428 . S
C379 C49 1.392 . S
C389 C277 1.417 . S
C413 C279 1.400 . S
C403 C117 1.412 . S
C427 C205 1.398 . S
C437 C305 1.425 . S
C461 C278 1.429 . S
C451 C233 1.395 . S
C475 C57 1.402 . S
C485 C304 1.427 . S
C509 C264 1.395 1_655 S
C499 C108 1.427 . S
C533 C290 1.409 1_565 S
C523 C196 1.399 . S
C557 C292 1.418 . S
C547 C20 1.408 . S
C571 C145 1.412 . S
C581 C276 1.414 . S
