# Generated by pormake.
# Topology pto, (3,4)-cn, num edge types: 1
# Building blocks:
#     Node 0, Type 0, BuildingBlock: OLANEW_clean_sbu_2, # of connection points: 3
#     Node 1, Type 0, BuildingBlock: OLANEW_clean_sbu_2, # of connection points: 3
#     Node 2, Type 0, BuildingBlock: OLANEW_clean_sbu_2, # of connection points: 3
#     Node 3, Type 0, BuildingBlock: OLANEW_clean_sbu_2, # of connection points: 3
#     Node 4, Type 0, BuildingBlock: OLANEW_clean_sbu_2, # of connection points: 3
#     Node 5, Type 0, BuildingBlock: OLANEW_clean_sbu_2, # of connection points: 3
#     Node 6, Type 0, BuildingBlock: OLANEW_clean_sbu_2, # of connection points: 3
#     Node 7, Type 0, BuildingBlock: OLANEW_clean_sbu_2, # of connection points: 3
#     Node 8, Type 1, BuildingBlock: KOZSID_clean_sbu_0, # of connection points: 4
#     Node 9, Type 1, BuildingBlock: KOZSID_clean_sbu_0, # of connection points: 4
#     Node 10, Type 1, BuildingBlock: KOZSID_clean_sbu_0, # of connection points: 4
#     Node 11, Type 1, BuildingBlock: KOZSID_clean_sbu_0, # of connection points: 4
#     Node 12, Type 1, BuildingBlock: KOZSID_clean_sbu_0, # of connection points: 4
#     Node 13, Type 1, BuildingBlock: KOZSID_clean_sbu_0, # of connection points: 4
#     Edge 14, Type (0, 1), BuildingBlock: UVAHIK_clean_linker_0, # of connection points: 2
#     Edge 15, Type (0, 1), BuildingBlock: UVAHIK_clean_linker_0, # of connection points: 2
#     Edge 16, Type (0, 1), BuildingBlock: UVAHIK_clean_linker_0, # of connection points: 2
#     Edge 17, Type (0, 1), BuildingBlock: UVAHIK_clean_linker_0, # of connection points: 2
#     Edge 18, Type (0, 1), BuildingBlock: UVAHIK_clean_linker_0, # of connection points: 2
#     Edge 19, Type (0, 1), BuildingBlock: UVAHIK_clean_linker_0, # of connection points: 2
#     Edge 20, Type (0, 1), BuildingBlock: UVAHIK_clean_linker_0, # of connection points: 2
#     Edge 21, Type (0, 1), BuildingBlock: UVAHIK_clean_linker_0, # of connection points: 2
#     Edge 22, Type (0, 1), BuildingBlock: UVAHIK_clean_linker_0, # of connection points: 2
#     Edge 23, Type (0, 1), BuildingBlock: UVAHIK_clean_linker_0, # of connection points: 2
#     Edge 24, Type (0, 1), BuildingBlock: UVAHIK_clean_linker_0, # of connection points: 2
#     Edge 25, Type (0, 1), BuildingBlock: UVAHIK_clean_linker_0, # of connection points: 2
#     Edge 26, Type (0, 1), BuildingBlock: UVAHIK_clean_linker_0, # of connection points: 2
#     Edge 27, Type (0, 1), BuildingBlock: UVAHIK_clean_linker_0, # of connection points: 2
#     Edge 28, Type (0, 1), BuildingBlock: UVAHIK_clean_linker_0, # of connection points: 2
#     Edge 29, Type (0, 1), BuildingBlock: UVAHIK_clean_linker_0, # of connection points: 2
#     Edge 30, Type (0, 1), BuildingBlock: UVAHIK_clean_linker_0, # of connection points: 2
#     Edge 31, Type (0, 1), BuildingBlock: UVAHIK_clean_linker_0, # of connection points: 2
#     Edge 32, Type (0, 1), BuildingBlock: UVAHIK_clean_linker_0, # of connection points: 2
#     Edge 33, Type (0, 1), BuildingBlock: UVAHIK_clean_linker_0, # of connection points: 2
#     Edge 34, Type (0, 1), BuildingBlock: UVAHIK_clean_linker_0, # of connection points: 2
#     Edge 35, Type (0, 1), BuildingBlock: UVAHIK_clean_linker_0, # of connection points: 2
#     Edge 36, Type (0, 1), BuildingBlock: UVAHIK_clean_linker_0, # of connection points: 2
#     Edge 37, Type (0, 1), BuildingBlock: UVAHIK_clean_linker_0, # of connection points: 2
# Relax obj value: 0.008
# Max RMSD: 0.121
# Mean RMSD: 0.053
data_MOF--net-pto--node1-OLANEW_clean_sbu_2--node2-KOZSID_clean_sbu_0--edge1-UVAHIK_clean_linker_0
_symmetry_space_group_name_H-M    P1
_symmetry_Int_Tables_number       1
_symmetry_cell_setting            triclinic
loop_
_symmetry_equiv_pos_as_xyz
'x, y, z'
_cell_length_a     49.71673
_cell_length_b     69.842947
_cell_length_c     59.235301
_cell_angle_alpha  91.025921
_cell_angle_beta   87.622368
_cell_angle_gamma 107.46185
loop_
_atom_site_label
_atom_site_type_symbol
_atom_site_fract_x
_atom_site_fract_y
_atom_site_fract_z
_atom_type_partial_charge
O0 O 0.30693 0.30469 0.29302 0.0
Cd1 Cd 0.28443 0.29522 0.33016 0.0
O2 O 0.31731 0.33636 0.30288 0.0
Cd3 Cd 0.32927 0.36852 0.29633 0.0
O4 O 0.31352 0.39449 0.29618 0.0
C5 C 0.29334 0.39316 0.28318 0.0
O6 O 0.28525 0.3774 0.26984 0.0
C7 C 0.31786 0.32308 0.28809 0.0
C8 C 0.30746 0.26889 0.35139 0.0
O9 O 0.28731 0.26246 0.33774 0.0
O10 O 0.31671 0.28784 0.35506 0.0
O11 O 0.26501 0.9029 0.82704 0.0
Cd12 Cd 0.23162 0.91251 0.80417 0.0
O13 O 0.25567 0.87484 0.80787 0.0
Cd14 Cd 0.25652 0.84533 0.79526 0.0
O15 O 0.24156 0.81438 0.78302 0.0
C16 C 0.22956 0.80068 0.79712 0.0
O17 O 0.22795 0.80553 0.81857 0.0
C18 C 0.26941 0.88611 0.82327 0.0
C19 C 0.26036 0.93522 0.76762 0.0
O20 O 0.25605 0.94363 0.78627 0.0
O21 O 0.25073 0.91605 0.76619 0.0
O22 O 0.80216 0.78514 0.31553 0.0
Cd23 Cd 0.79198 0.76001 0.28529 0.0
O24 O 0.75878 0.77478 0.32993 0.0
Cd25 Cd 0.74332 0.75648 0.30027 0.0
O26 O 0.72675 0.7533 0.2664 0.0
C27 C 0.73929 0.76673 0.25213 0.0
O28 O 0.76198 0.78087 0.25814 0.0
C29 C 0.78405 0.78614 0.33096 0.0
C30 C 0.81812 0.73046 0.29164 0.0
O31 O 0.83003 0.7459 0.27946 0.0
O32 O 0.79378 0.72897 0.30082 0.0
O33 O 0.74193 0.3135 0.66102 0.0
Cd34 Cd 0.70509 0.28126 0.65972 0.0
O35 O 0.73712 0.31006 0.6977 0.0
Cd36 Cd 0.7414 0.31972 0.733 0.0
O37 O 0.72767 0.32308 0.76793 0.0
C38 C 0.70272 0.3242 0.77084 0.0
O39 O 0.68772 0.32391 0.75301 0.0
C40 C 0.74894 0.32042 0.6806 0.0
C41 C 0.72325 0.25016 0.64112 0.0
O42 O 0.71276 0.26082 0.6288 0.0
O43 O 0.72554 0.25441 0.66223 0.0
O44 O 0.72041 0.764 0.61923 0.0
Cd45 Cd 0.70348 0.72911 0.63175 0.0
O46 O 0.70995 0.7723 0.65343 0.0
Cd47 Cd 0.70168 0.79009 0.68221 0.0
O48 O 0.69046 0.79872 0.7161 0.0
C49 C 0.66566 0.79954 0.72082 0.0
O50 O 0.64729 0.79598 0.70477 0.0
C51 C 0.71908 0.77759 0.6334 0.0
C52 C 0.74603 0.71252 0.64182 0.0
O53 O 0.73629 0.711 0.62194 0.0
O54 O 0.73593 0.72218 0.65684 0.0
O55 O 0.84385 0.27587 0.29959 0.0
Cd56 Cd 0.81854 0.24265 0.28488 0.0
O57 O 0.80579 0.28157 0.31465 0.0
Cd58 Cd 0.77704 0.25628 0.29739 0.0
O59 O 0.74904 0.25326 0.26926 0.0
C60 C 0.75893 0.26591 0.25358 0.0
O61 O 0.78471 0.2781 0.2551 0.0
C62 C 0.83241 0.28701 0.31121 0.0
C63 C 0.81791 0.21166 0.31426 0.0
O64 O 0.83866 0.21869 0.30015 0.0
O65 O 0.79751 0.21936 0.31458 0.0
O66 O 0.32042 0.38827 0.77866 0.0
Cd67 Cd 0.30562 0.39944 0.74369 0.0
O68 O 0.34018 0.37001 0.75728 0.0
Cd69 Cd 0.36208 0.34759 0.74981 0.0
O70 O 0.37425 0.32272 0.73407 0.0
C71 C 0.36042 0.30479 0.73929 0.0
O72 O 0.33996 0.30175 0.75483 0.0
C73 C 0.33509 0.3762 0.77685 0.0
C74 C 0.26262 0.41728 0.74973 0.0
O75 O 0.25701 0.39861 0.74462 0.0
O76 O 0.28849 0.42739 0.7523 0.0
O77 O 0.35368 0.83906 0.2735 0.0
Cd78 Cd 0.32464 0.83201 0.30849 0.0
O79 O 0.32255 0.84859 0.2549 0.0
Cd80 Cd 0.28996 0.83652 0.281 0.0
O81 O 0.26053 0.80864 0.29377 0.0
C82 C 0.26908 0.79332 0.29083 0.0
O83 O 0.29445 0.79579 0.28173 0.0
C84 C 0.34685 0.84618 0.25573 0.0
C85 C 0.33349 0.86628 0.33557 0.0
O86 O 0.34822 0.85421 0.33765 0.0
O87 O 0.3145 0.86209 0.32073 0.0
C88 C 0.07263 0.58327 0.33259 0.0
C89 C 0.08358 0.59272 0.35247 0.0
C90 C 0.07016 0.58043 0.36973 0.0
C91 C 0.05199 0.56422 0.35945 0.0
N92 N 0.05307 0.56531 0.33663 0.0
Co93 Co 0.03045 0.54489 0.31504 0.0
N94 N 0.00995 0.5272 0.34054 0.0
C95 C 0.01269 0.5311 0.36292 0.0
C96 C 0.99654 0.51588 0.37638 0.0
C97 C 0.98288 0.50123 0.36175 0.0
C98 C 0.99147 0.50845 0.3401 0.0
N99 N 0.00826 0.52423 0.29344 0.0
C100 C 0.99033 0.50563 0.29751 0.0
C101 C 0.98016 0.49574 0.27765 0.0
C102 C 0.99256 0.50836 0.26035 0.0
C103 C 0.00947 0.52517 0.27059 0.0
N104 N 0.05058 0.56274 0.28951 0.0
C105 C 0.04651 0.55943 0.26714 0.0
C106 C 0.06264 0.57471 0.25373 0.0
C107 C 0.07778 0.58873 0.26837 0.0
C108 C 0.07004 0.58111 0.28997 0.0
N109 N 0.06002 0.5311 0.31416 0.0
C110 C 0.10044 0.51012 0.31228 0.0
C111 C 0.09032 0.51566 0.29257 0.0
C112 C 0.07035 0.52602 0.29388 0.0
C113 C 0.09046 0.51568 0.33302 0.0
C114 C 0.07035 0.52608 0.33357 0.0
N115 N 0.00095 0.55886 0.3158 0.0
C116 C 0.97149 0.57414 0.29562 0.0
C117 C 0.96522 0.58344 0.3153 0.0
C118 C 0.97562 0.57922 0.33556 0.0
C119 C 0.9933 0.56693 0.33543 0.0
C120 C 0.98902 0.56192 0.29627 0.0
H121 H 0.00108 0.56461 0.35131 0.0
H122 H 0.99308 0.55554 0.2806 0.0
H123 H 0.06346 0.52962 0.27821 0.0
H124 H 0.06325 0.52971 0.34986 0.0
C125 C 0.0327 0.54826 0.37077 0.0
C126 C 0.08108 0.59218 0.31037 0.0
C127 C 0.98293 0.4965 0.31974 0.0
C128 C 0.0274 0.5418 0.25923 0.0
H129 H 0.0994 0.60713 0.35432 0.0
H130 H 0.07297 0.58315 0.38765 0.0
H131 H 0.99571 0.51517 0.39464 0.0
H132 H 0.96891 0.48666 0.36656 0.0
H133 H 0.9656 0.48081 0.27585 0.0
H134 H 0.99 0.50546 0.24244 0.0
H135 H 0.06315 0.57562 0.23549 0.0
H136 H 0.0926 0.60305 0.26368 0.0
H137 H 0.09783 0.51206 0.27608 0.0
H138 H 0.09761 0.51164 0.34877 0.0
H139 H 0.96321 0.5765 0.27961 0.0
H140 H 0.97107 0.58597 0.3513 0.0
C141 C 0.03183 0.59821 0.74519 0.0
C142 C 0.03316 0.6057 0.76714 0.0
C143 C 0.01178 0.59276 0.7794 0.0
C144 C 0.99873 0.57815 0.76435 0.0
N145 N 0.01061 0.58083 0.74322 0.0
Co146 Co 0.99798 0.56329 0.71607 0.0
N147 N 0.96665 0.54419 0.73423 0.0
C148 C 0.96032 0.54552 0.75654 0.0
C149 C 0.93781 0.53013 0.76435 0.0
C150 C 0.92944 0.51805 0.74604 0.0
C151 C 0.94756 0.52675 0.72805 0.0
N152 N 0.98483 0.54603 0.68879 0.0
C153 C 0.96393 0.52843 0.68687 0.0
C154 C 0.96239 0.52117 0.66482 0.0
C155 C 0.98288 0.53468 0.65236 0.0
C156 C 0.99584 0.54931 0.66742 0.0
N157 N 0.02987 0.58209 0.69807 0.0
C158 C 0.03671 0.58042 0.67593 0.0
C159 C 0.05969 0.59555 0.66826 0.0
C160 C 0.06807 0.60766 0.68658 0.0
C161 C 0.04964 0.59915 0.70444 0.0
N162 N 0.02319 0.54709 0.72324 0.0
C163 C 0.0586 0.5238 0.73317 0.0
C164 C 0.05498 0.52839 0.7109 0.0
C165 C 0.03752 0.54009 0.70636 0.0
C166 C 0.04429 0.53106 0.75043 0.0
C167 C 0.0266 0.54243 0.74512 0.0
N168 N 0.97275 0.57951 0.70887 0.0
C169 C 0.95621 0.59903 0.68237 0.0
C170 C 0.93729 0.60278 0.69867 0.0
C171 C 0.9364 0.59467 0.72016 0.0
C172 C 0.95421 0.58325 0.72488 0.0
C173 C 0.97352 0.58743 0.68776 0.0
H174 H 0.95265 0.5777 0.74163 0.0
H175 H 0.98731 0.58509 0.67453 0.0
H176 H 0.03603 0.54328 0.68906 0.0
H177 H 0.01587 0.54722 0.759 0.0
C178 C 0.97569 0.56152 0.76967 0.0
C179 C 0.05112 0.60825 0.72688 0.0
C180 C 0.946 0.51765 0.70557 0.0
C181 C 0.02007 0.5652 0.66245 0.0
H182 H 0.04805 0.61914 0.77364 0.0
H183 H 0.00643 0.59385 0.79718 0.0
H184 H 0.92863 0.52794 0.78136 0.0
H185 H 0.91204 0.50431 0.74599 0.0
H186 H 0.94842 0.5073 0.65842 0.0
H187 H 0.98833 0.53359 0.6346 0.0
H188 H 0.06888 0.59775 0.65126 0.0
H189 H 0.0855 0.62138 0.68668 0.0
H190 H 0.06597 0.52325 0.69701 0.0
H191 H 0.04639 0.52772 0.76795 0.0
H192 H 0.95744 0.6048 0.66538 0.0
H193 H 0.92229 0.59735 0.73344 0.0
C194 C 0.39734 0.07102 0.5678 0.0
C195 C 0.42262 0.06945 0.57539 0.0
C196 C 0.4436 0.0822 0.56253 0.0
C197 C 0.42998 0.0908 0.54793 0.0
N198 N 0.40152 0.08423 0.55056 0.0
Co199 Co 0.3735 0.09318 0.53334 0.0
N200 N 0.40442 0.11233 0.51482 0.0
C201 C 0.43251 0.11522 0.51587 0.0
C202 C 0.4485 0.12915 0.50086 0.0
C203 C 0.42954 0.13556 0.48948 0.0
C204 C 0.40297 0.12518 0.49834 0.0
N205 N 0.34546 0.10233 0.51642 0.0
C206 C 0.34964 0.11638 0.50011 0.0
C207 C 0.3243 0.11872 0.49351 0.0
C208 C 0.30337 0.10553 0.50589 0.0
C209 C 0.31702 0.09604 0.5194 0.0
N210 N 0.34254 0.07384 0.55159 0.0
C211 C 0.31439 0.07019 0.54977 0.0
C212 C 0.29836 0.05599 0.56447 0.0
C213 C 0.31736 0.05023 0.57649 0.0
C214 C 0.344 0.06134 0.56839 0.0
N215 N 0.37506 0.1145 0.55632 0.0
C216 C 0.3771 0.14441 0.58938 0.0
C217 C 0.35134 0.13164 0.58244 0.0
C218 C 0.35081 0.11696 0.56602 0.0
C219 C 0.40185 0.14203 0.57939 0.0
C220 C 0.40036 0.12706 0.56308 0.0
N221 N 0.37192 0.07177 0.51039 0.0
C222 C 0.34486 0.04487 0.48669 0.0
C223 C 0.36923 0.04033 0.47913 0.0
C224 C 0.39505 0.05203 0.4872 0.0
C225 C 0.39591 0.06756 0.50264 0.0
C226 C 0.34668 0.06051 0.50212 0.0
H227 H 0.41622 0.07587 0.5081 0.0
H228 H 0.32729 0.06305 0.50723 0.0
H229 H 0.33049 0.1078 0.56146 0.0
H230 H 0.41996 0.1259 0.55625 0.0
C231 C 0.44326 0.10503 0.53158 0.0
C232 C 0.36996 0.05978 0.57762 0.0
C233 C 0.37704 0.12796 0.49043 0.0
C234 C 0.30364 0.081 0.53483 0.0
H235 H 0.42555 0.06009 0.58887 0.0
H236 H 0.46611 0.08494 0.56375 0.0
H237 H 0.47125 0.13412 0.49854 0.0
H238 H 0.43467 0.14664 0.47618 0.0
H239 H 0.32118 0.12894 0.48108 0.0
H240 H 0.28089 0.10316 0.50516 0.0
H241 H 0.27559 0.0507 0.56644 0.0
H242 H 0.31218 0.03924 0.58989 0.0
H243 H 0.33155 0.1331 0.58942 0.0
H244 H 0.42234 0.15146 0.58435 0.0
H245 H 0.32428 0.03613 0.48113 0.0
H246 H 0.41461 0.04934 0.48157 0.0
C247 C 0.52601 0.84787 0.04137 0.0
C248 C 0.53313 0.86741 0.04968 0.0
C249 C 0.55544 0.87837 0.03658 0.0
C250 C 0.56061 0.86499 0.02107 0.0
N251 N 0.54303 0.8461 0.0235 0.0
Co252 Co 0.54248 0.8222 0.004 0.0
N253 N 0.57532 0.83839 0.98482 0.0
C254 C 0.591 0.8576 0.98838 0.0
C255 C 0.61197 0.86477 0.9722 0.0
C256 C 0.60938 0.84928 0.95728 0.0
C257 C 0.58688 0.83347 0.96528 0.0
N258 N 0.54093 0.79861 0.98369 0.0
C259 C 0.55486 0.79777 0.96372 0.0
C260 C 0.54626 0.77871 0.95417 0.0
C261 C 0.52572 0.76717 0.96839 0.0
C262 C 0.52297 0.7798 0.98572 0.0
N263 N 0.51046 0.80577 0.0238 0.0
C264 C 0.49751 0.78579 0.02218 0.0
C265 C 0.47691 0.77856 0.03863 0.0
C266 C 0.47682 0.79485 0.05166 0.0
C267 C 0.49745 0.81115 0.04234 0.0
N268 N 0.51578 0.8293 0.98427 0.0
C269 C 0.47769 0.83897 0.95589 0.0
C270 C 0.47126 0.82004 0.9658 0.0
C271 C 0.49047 0.81553 0.97968 0.0
C272 C 0.5036 0.85301 0.96054 0.0
C273 C 0.52213 0.84793 0.97475 0.0
N274 N 0.56917 0.81498 0.02398 0.0
C275 C 0.58328 0.78975 0.04378 0.0
C276 C 0.60236 0.80442 0.05629 0.0
C277 C 0.60564 0.82453 0.05148 0.0
C278 C 0.58913 0.82942 0.03529 0.0
C279 C 0.56712 0.79529 0.02787 0.0
H280 H 0.59257 0.84501 0.03263 0.0
H281 H 0.55282 0.78326 0.01928 0.0
H282 H 0.48434 0.80079 0.98656 0.0
H283 H 0.54153 0.85928 0.97776 0.0
C284 C 0.58287 0.86938 0.00499 0.0
C285 C 0.50367 0.83143 0.05158 0.0
C286 C 0.57592 0.81466 0.95297 0.0
C287 C 0.5037 0.77454 0.00407 0.0
H288 H 0.52347 0.87308 0.06395 0.0
H289 H 0.56685 0.89414 0.03839 0.0
H290 H 0.62645 0.8798 0.97077 0.0
H291 H 0.62199 0.84987 0.94183 0.0
H292 H 0.55385 0.77376 0.9384 0.0
H293 H 0.5139 0.75153 0.9662 0.0
H294 H 0.46326 0.76333 0.04068 0.0
H295 H 0.46298 0.79478 0.06627 0.0
H296 H 0.45129 0.80873 0.96314 0.0
H297 H 0.50979 0.86782 0.9531 0.0
H298 H 0.58054 0.77395 0.04636 0.0
H299 H 0.6202 0.83652 0.06066 0.0
C300 C 0.80434 0.9942 0.54921 0.0
C301 C 0.82715 0.99381 0.56171 0.0
C302 C 0.84996 0.00841 0.55309 0.0
C303 C 0.83982 0.01677 0.53584 0.0
N304 N 0.81175 0.00876 0.5333 0.0
Co305 Co 0.78867 0.01481 0.50892 0.0
N306 N 0.82296 0.03361 0.49363 0.0
C307 C 0.84988 0.03833 0.50034 0.0
C308 C 0.8688 0.05205 0.48672 0.0
C309 C 0.85299 0.05664 0.47056 0.0
C310 C 0.8252 0.04547 0.47535 0.0
N311 N 0.76552 0.02061 0.48442 0.0
C312 C 0.77324 0.03369 0.46697 0.0
C313 C 0.7502 0.0337 0.45447 0.0
C314 C 0.72716 0.02026 0.46439 0.0
C315 C 0.73727 0.01287 0.48237 0.0
N316 N 0.75439 0.99611 0.52427 0.0
C317 C 0.72724 0.99207 0.51841 0.0
C318 C 0.70859 0.97783 0.53167 0.0
C319 C 0.7249 0.97205 0.54653 0.0
C320 C 0.7526 0.98313 0.54135 0.0
N321 N 0.78306 0.03776 0.52687 0.0
C322 C 0.77614 0.07244 0.54826 0.0
C323 C 0.75346 0.0583 0.53853 0.0
C324 C 0.7573 0.04118 0.52818 0.0
C325 C 0.80209 0.06855 0.548 0.0
C326 C 0.80507 0.05127 0.53727 0.0
N327 N 0.79426 0.99195 0.49103 0.0
C328 C 0.77478 0.96098 0.47054 0.0
C329 C 0.80114 0.95768 0.46869 0.0
C330 C 0.82417 0.97213 0.4777 0.0
C331 C 0.8203 0.98905 0.48866 0.0
C332 C 0.77185 0.97806 0.48164 0.0
H333 H 0.83859 0.9994 0.49541 0.0
H334 H 0.75117 0.97958 0.48266 0.0
H335 H 0.73915 0.03116 0.52105 0.0
H336 H 0.82552 0.04942 0.53724 0.0
C337 C 0.85655 0.03027 0.52002 0.0
C338 C 0.77665 0.97938 0.55154 0.0
C339 C 0.80162 0.04729 0.46257 0.0
C340 C 0.72045 -7e-05 0.49865 0.0
H341 H 0.82754 0.98352 0.57503 0.0
H342 H 0.87164 0.01174 0.55796 0.0
H343 H 0.89132 0.05831 0.48861 0.0
H344 H 0.86092 0.06731 0.45703 0.0
H345 H 0.74978 0.04291 0.44008 0.0
H346 H 0.70545 0.01684 0.45956 0.0
H347 H 0.68606 0.97157 0.52992 0.0
H348 H 0.71749 0.96035 0.55905 0.0
H349 H 0.73276 0.06046 0.53878 0.0
H350 H 0.82028 0.07911 0.5554 0.0
H351 H 0.75638 0.95047 0.46339 0.0
H352 H 0.84502 0.97023 0.47677 0.0
C353 C 0.49882 0.35277 0.07143 0.0
C354 C 0.50256 0.37219 0.07941 0.0
C355 C 0.52582 0.38419 0.06816 0.0
C356 C 0.53473 0.37154 0.05382 0.0
N357 N 0.51855 0.35216 0.05516 0.0
Co358 Co 0.52282 0.32918 0.03605 0.0
N359 N 0.5579 0.34674 0.02038 0.0
C360 C 0.57131 0.36623 0.02499 0.0
C361 C 0.59492 0.3743 0.01149 0.0
C362 C 0.59663 0.35911 0.99727 0.0
C363 C 0.57383 0.34258 0.00296 0.0
N364 N 0.52631 0.30644 0.01614 0.0
C365 C 0.54438 0.3064 0.99837 0.0
C366 C 0.53856 0.28762 0.98818 0.0
C367 C 0.51568 0.27541 -0.00031 0.0
C368 C 0.50889 0.28738 0.01615 0.0
N369 N 0.48854 0.3114 0.05251 0.0
C370 C 0.47697 0.29139 0.04952 0.0
C371 C 0.45498 0.28289 0.06439 0.0
C372 C 0.4524 0.29833 0.07782 0.0
C373 C 0.47283 0.31554 0.07014 0.0
N374 N 0.49905 0.33578 0.01309 0.0
C375 C 0.46843 0.34358 0.97729 0.0
C376 C 0.45945 0.32529 0.98861 0.0
C377 C 0.47503 0.32168 0.00624 0.0
C378 C 0.49231 0.35822 0.98472 0.0
C379 C 0.50698 0.35414 0.00274 0.0
N380 N 0.54671 0.32247 0.05888 0.0
C381 C 0.56168 0.29776 0.07885 0.0
C382 C 0.58118 0.31275 0.09069 0.0
C383 C 0.58291 0.33272 0.0865 0.0
C384 C 0.56562 0.33721 0.07068 0.0
C385 C 0.54485 0.3029 0.06319 0.0
H386 H 0.56804 0.35272 0.06821 0.0
H387 H 0.53052 0.29071 0.05483 0.0
H388 H 0.46753 0.3072 0.0137 0.0
H389 H 0.52493 0.36596 0.00772 0.0
C390 C 0.55926 0.37714 0.04008 0.0
C391 C 0.47667 0.33539 0.08027 0.0
C392 C 0.56703 0.32376 0.99032 0.0
C393 C 0.48668 0.28112 0.03214 0.0
H394 H 0.48999 0.37717 0.09224 0.0
H395 H 0.53537 0.40017 0.07043 0.0
H396 H 0.60854 0.38965 0.01133 0.0
H397 H 0.61235 0.3603 0.98375 0.0
H398 H 0.54962 0.28326 0.97381 0.0
H399 H 0.50516 0.2597 0.99638 0.0
H400 H 0.44239 0.26729 0.0654 0.0
H401 H 0.43723 0.29694 0.09179 0.0
H402 H 0.44104 0.31352 0.98334 0.0
H403 H 0.4997 0.37274 0.9766 0.0
H404 H 0.55912 0.28203 0.08177 0.0
H405 H 0.59787 0.34491 0.09511 0.0
C406 C 0.25358 0.40523 0.27136 0.0
C407 C 0.27679 0.4076 0.28504 0.0
C408 C 0.23586 0.41727 0.27472 0.0
C409 C 0.22985 0.46424 0.30084 0.0
H410 H 0.14969 0.43613 0.30063 0.0
C411 C 0.14408 0.50283 0.32498 0.0
C412 C 0.12085 0.49833 0.31094 0.0
C413 C 0.16371 0.49206 0.32292 0.0
C414 C 0.17199 0.44425 0.30055 0.0
H415 H 0.30034 0.42512 0.31234 0.0
H416 H 0.26924 0.44617 0.31822 0.0
H417 H 0.18355 0.41752 0.294 0.0
H418 H 0.09958 0.47863 0.28421 0.0
H419 H 0.13391 0.46018 0.28034 0.0
H420 H 0.21815 0.49104 0.30723 0.0
C421 C 0.26484 0.43499 0.30486 0.0
C422 C 0.1914 0.43359 0.29671 0.0
C423 C 0.2826 0.42289 0.30152 0.0
C424 C 0.11744 0.48265 0.29508 0.0
C425 C 0.13696 0.47191 0.29305 0.0
C426 C 0.21037 0.47496 0.30463 0.0
C427 C 0.24092 0.43198 0.29182 0.0
C428 C 0.22054 0.44347 0.29654 0.0
C429 C 0.16037 0.4765 0.30688 0.0
C430 C 0.18121 0.4651 0.30426 0.0
H431 H 0.24862 0.39371 0.25838 0.0
H432 H 0.21793 0.41487 0.26408 0.0
H433 H 0.25218 0.47228 0.30071 0.0
H434 H 0.14737 0.51491 0.33726 0.0
H435 H 0.1814 0.49583 0.33396 0.0
C436 C 0.21494 0.77502 0.76619 0.0
C437 C 0.2152 0.78 0.78931 0.0
C438 C 0.19923 0.75598 0.75873 0.0
C439 C 0.13734 0.71415 0.77585 0.0
H440 H 0.16328 0.6848 0.7278 0.0
C441 C 0.06177 0.64502 0.73417 0.0
C442 C 0.07149 0.62826 0.73107 0.0
C443 C 0.08039 0.66358 0.74008 0.0
C444 C 0.15581 0.69279 0.7413 0.0
H445 H 0.20012 0.76856 0.8228 0.0
H446 H 0.17293 0.73539 0.8098 0.0
H447 H 0.19482 0.71666 0.74124 0.0
H448 H 0.10794 0.61746 0.73113 0.0
H449 H 0.1408 0.65004 0.74148 0.0
H450 H 0.0985 0.69031 0.77614 0.0
C451 C 0.1845 0.7463 0.7974 0.0
C452 C 0.17378 0.71109 0.74887 0.0
C453 C 0.20023 0.76529 0.80486 0.0
C454 C 0.10018 0.63033 0.73334 0.0
C455 C 0.11889 0.64893 0.73919 0.0
C456 C 0.11939 0.69596 0.76823 0.0
C457 C 0.1834 0.74155 0.77423 0.0
C458 C 0.16473 0.72195 0.76627 0.0
C459 C 0.10909 0.66568 0.74298 0.0
C460 C 0.12837 0.68508 0.75085 0.0
H461 H 0.22627 0.786 0.75376 0.0
H462 H 0.19868 0.75282 0.74076 0.0
H463 H 0.12958 0.72226 0.78908 0.0
H464 H 0.03965 0.64363 0.73246 0.0
H465 H 0.07228 0.67626 0.74255 0.0
C466 C 0.85655 0.71501 0.28206 0.0
C467 C 0.83206 0.71479 0.29492 0.0
C468 C 0.86959 0.70012 0.2849 0.0
C469 C 0.87782 0.66326 0.3252 0.0
H470 H 0.90137 0.63857 0.27188 0.0
C471 C 0.92703 0.5978 0.33 0.0
C472 C 0.94907 0.59812 0.31424 0.0
C473 C 0.91152 0.61144 0.32827 0.0
C474 C 0.89525 0.64546 0.28696 0.0
H475 H 0.80225 0.6989 0.32104 0.0
H476 H 0.82529 0.67295 0.32613 0.0
H477 H 0.87688 0.66362 0.26769 0.0
H478 H 0.97301 0.6135 0.285 0.0
H479 H 0.9465 0.63741 0.28222 0.0
H480 H 0.89677 0.64543 0.34448 0.0
C481 C 0.83431 0.68467 0.31385 0.0
C482 C 0.88114 0.65978 0.28453 0.0
C483 C 0.82106 0.69946 0.31084 0.0
C484 C 0.95573 0.6126 0.29709 0.0
C485 C 0.94045 0.62628 0.29547 0.0
C486 C 0.89219 0.64903 0.32764 0.0
C487 C 0.85861 0.68479 0.30081 0.0
C488 C 0.87252 0.66897 0.3036 0.0
C489 C 0.91793 0.62575 0.31086 0.0
C490 C 0.90137 0.64012 0.30852 0.0
H491 H 0.86558 0.72662 0.26967 0.0
H492 H 0.88849 0.70072 0.27479 0.0
H493 H 0.87157 0.67022 0.34019 0.0
H494 H 0.92139 0.58673 0.34333 0.0
H495 H 0.89418 0.6105 0.3403 0.0
C496 C 0.77057 0.35569 0.66771 0.0
C497 C 0.7694 0.34051 0.68325 0.0
C498 C 0.78985 0.37477 0.67007 0.0
C499 C 0.83736 0.40758 0.71162 0.0
H500 H 0.86993 0.43832 0.65801 0.0
C501 C 0.93092 0.48074 0.7131 0.0
C502 C 0.92659 0.49711 0.70205 0.0
C503 C 0.91203 0.46152 0.7107 0.0
C504 C 0.86087 0.42991 0.6731 0.0
H505 H 0.78819 0.33302 0.71286 0.0
H506 H 0.82247 0.36609 0.71668 0.0
H507 H 0.83693 0.40477 0.65404 0.0
H508 H 0.89943 0.50649 0.67991 0.0
H509 H 0.8667 0.47263 0.67506 0.0
H510 H 0.86218 0.43266 0.73055 0.0
C511 C 0.80781 0.36361 0.70315 0.0
C512 C 0.84182 0.41072 0.67089 0.0
C513 C 0.78817 0.34463 0.70099 0.0
C514 C 0.90327 0.49399 0.68836 0.0
C515 C 0.88465 0.4747 0.68562 0.0
C516 C 0.85678 0.42663 0.7138 0.0
C517 C 0.80886 0.37899 0.68776 0.0
C518 C 0.82963 0.39932 0.69012 0.0
C519 C 0.88874 0.45833 0.69692 0.0
C520 C 0.86857 0.43801 0.69457 0.0
H521 H 0.75622 0.35292 0.65391 0.0
H522 H 0.78955 0.38625 0.65813 0.0
H523 H 0.82809 0.39949 0.72684 0.0
H524 H 0.94879 0.4829 0.72377 0.0
H525 H 0.91571 0.44911 0.71948 0.0
C526 C 0.33715 0.2612 0.38103 0.0
C527 C 0.31934 0.25477 0.36281 0.0
C528 C 0.34724 0.24759 0.3925 0.0
C529 C 0.33048 0.19314 0.40284 0.0
H530 H 0.40428 0.20854 0.42891 0.0
C531 C 0.36852 0.13639 0.45112 0.0
C532 C 0.37818 0.14287 0.47267 0.0
C533 C 0.36536 0.15018 0.43545 0.0
C534 C 0.38362 0.20407 0.42172 0.0
H535 H 0.29904 0.22924 0.34174 0.0
H536 H 0.31719 0.20564 0.3613 0.0
H537 H 0.39086 0.2324 0.40547 0.0
H538 H 0.39349 0.16859 0.49461 0.0
H539 H 0.3882 0.1929 0.4671 0.0
H540 H 0.32319 0.16488 0.41913 0.0
C541 C 0.32279 0.22105 0.36718 0.0
C542 C 0.37586 0.21774 0.40837 0.0
C543 C 0.31247 0.2346 0.35588 0.0
C544 C 0.38613 0.1634 0.47798 0.0
C545 C 0.38315 0.17723 0.46225 0.0
C546 C 0.33832 0.17947 0.41597 0.0
C547 C 0.33994 0.22729 0.38586 0.0
C548 C 0.34906 0.2125 0.39897 0.0
C549 C 0.37196 0.17067 0.44106 0.0
C550 C 0.36484 0.18483 0.42573 0.0
H551 H 0.34278 0.27665 0.38679 0.0
H552 H 0.36008 0.25289 0.40698 0.0
H553 H 0.30947 0.18869 0.3963 0.0
H554 H 0.36232 0.12057 0.4468 0.0
H555 H 0.35702 0.14475 0.41915 0.0
C556 C 0.29065 0.86053 0.83832 0.0
C557 C 0.29071 0.88057 0.83635 0.0
C558 C 0.3111 0.85578 0.85074 0.0
C559 C 0.35885 0.87421 0.89699 0.0
H560 H 0.40088 0.83988 0.8714 0.0
C561 C 0.45382 0.86324 0.94165 0.0
C562 C 0.45731 0.84399 0.94108 0.0
C563 C 0.43394 0.86769 0.92833 0.0
C564 C 0.38908 0.84926 0.87895 0.0
H565 H 0.312 0.91128 0.84634 0.0
H566 H 0.34723 0.90291 0.86828 0.0
H567 H 0.36447 0.84706 0.84959 0.0
H568 H 0.44306 0.8145 0.92542 0.0
H569 H 0.40766 0.82198 0.90304 0.0
H570 H 0.38279 0.87613 0.92651 0.0
C571 C 0.3315 0.89091 0.86007 0.0
C572 C 0.36829 0.8534 0.86641 0.0
C573 C 0.31132 0.89567 0.84747 0.0
C574 C 0.44065 0.82939 0.92662 0.0
C575 C 0.42059 0.83378 0.91348 0.0
C576 C 0.37938 0.8699 0.90963 0.0
C577 C 0.33166 0.87093 0.86178 0.0
C578 C 0.35311 0.86601 0.87527 0.0
C579 C 0.41685 0.85295 0.91426 0.0
C580 C 0.3949 0.85746 0.90074 0.0
H581 H 0.27449 0.84843 0.83086 0.0
H582 H 0.31047 0.8402 0.85214 0.0
H583 H 0.34718 0.88378 0.90433 0.0
H584 H 0.46604 0.87482 0.95272 0.0
H585 H 0.43201 0.88273 0.9291 0.0
C586 C 0.81771 0.81672 0.34792 0.0
C587 C 0.79161 0.80158 0.34898 0.0
C588 C 0.82337 0.83272 0.36332 0.0
C589 C 0.79955 0.85012 0.41787 0.0
H590 H 0.82615 0.90274 0.39031 0.0
C591 C 0.78362 0.92069 0.46074 0.0
C592 C 0.80441 0.93927 0.45746 0.0
C593 C 0.7859 0.90351 0.44942 0.0
C594 C 0.81925 0.88821 0.39842 0.0
H595 H 0.75164 0.79081 0.36782 0.0
H596 H 0.76153 0.81867 0.39461 0.0
H597 H 0.82389 0.87301 0.36752 0.0
H598 H 0.84428 0.95422 0.44009 0.0
H599 H 0.84858 0.92411 0.4207 0.0
H600 H 0.79444 0.86531 0.44871 0.0
C601 C 0.77764 0.81817 0.38193 0.0
C602 C 0.81794 0.87115 0.38533 0.0
C603 C 0.77191 0.80225 0.36647 0.0
C604 C 0.82795 0.94013 0.44308 0.0
C605 C 0.83027 0.92291 0.43178 0.0
C606 C 0.80099 0.8672 0.43102 0.0
C607 C 0.80315 0.83382 0.38019 0.0
C608 C 0.80756 0.8519 0.3948 0.0
C609 C 0.80909 0.90444 0.43461 0.0
C610 C 0.81031 0.88643 0.42133 0.0
H611 H 0.83341 0.81663 0.33472 0.0
H612 H 0.84336 0.84444 0.36174 0.0
H613 H 0.79182 0.83549 0.42571 0.0
H614 H 0.76545 0.91943 0.472 0.0
H615 H 0.76903 0.88961 0.45182 0.0
C616 C 0.70522 0.32387 0.8131 0.0
C617 C 0.69009 0.32479 0.79382 0.0
C618 C 0.69262 0.32355 0.83472 0.0
C619 C 0.62259 0.31145 0.86403 0.0
H620 H 0.66368 0.3426 0.91333 0.0
C621 C 0.56752 0.32347 0.94822 0.0
C622 C 0.58146 0.32282 0.96813 0.0
C623 C 0.58119 0.32313 0.92722 0.0
C624 C 0.65204 0.33362 0.8998 0.0
H625 H 0.65008 0.32653 0.78216 0.0
H626 H 0.62831 0.32619 0.81975 0.0
H627 H 0.6871 0.34348 0.87613 0.0
H628 H 0.62006 0.32102 0.98216 0.0
H629 H 0.64417 0.32027 0.94531 0.0
H630 H 0.58752 0.30165 0.88761 0.0
C631 C 0.64973 0.32537 0.81819 0.0
C632 C 0.66545 0.33413 0.8785 0.0
C633 C 0.6623 0.32571 0.79663 0.0
C634 C 0.60911 0.32161 0.96687 0.0
C635 C 0.62285 0.3213 0.94585 0.0
C636 C 0.6092 0.31094 0.8853 0.0
C637 C 0.66463 0.32411 0.83748 0.0
C638 C 0.65079 0.32317 0.86033 0.0
C639 C 0.60906 0.32212 0.92578 0.0
C640 C 0.62369 0.32213 0.90339 0.0
H641 H 0.72666 0.32313 0.81151 0.0
H642 H 0.70459 0.32242 0.84923 0.0
H643 H 0.61087 0.30252 0.85051 0.0
H644 H 0.54617 0.32448 0.94897 0.0
H645 H 0.57011 0.32404 0.9121 0.0
C646 C 0.28551 0.96834 0.74981 0.0
C647 C 0.27603 0.94729 0.74835 0.0
C648 C 0.30003 0.97976 0.73153 0.0
C649 C 0.30993 0.97729 0.66976 0.0
H650 H 0.37163 0.02591 0.6788 0.0
C651 C 0.36513 0.02648 0.5947 0.0
C652 C 0.36803 0.04694 0.59756 0.0
C653 C 0.35859 0.01368 0.61331 0.0
C654 C 0.3544 0.01238 0.67603 0.0
H655 H 0.27482 0.92169 0.72667 0.0
H656 H 0.30037 0.94164 0.69483 0.0
H657 H 0.3507 0.00451 0.71103 0.0
H658 H 0.36743 0.07044 0.62161 0.0
H659 H 0.35594 0.04812 0.65431 0.0
H660 H 0.3132 0.98532 0.63488 0.0
C661 C 0.29624 0.94932 0.71001 0.0
C662 C 0.34236 0.00016 0.69448 0.0
C663 C 0.28168 0.93789 0.72829 0.0
C664 C 0.36555 0.05468 0.61925 0.0
C665 C 0.35906 0.04191 0.63788 0.0
C666 C 0.32198 0.98948 0.65133 0.0
C667 C 0.30545 0.9704 0.71138 0.0
C668 C 0.3197 0.98263 0.6916 0.0
C669 C 0.35479 0.02118 0.63503 0.0
C670 C 0.34407 0.00731 0.6543 0.0
H671 H 0.28149 0.97604 0.76502 0.0
H672 H 0.30645 0.99597 0.73303 0.0
H673 H 0.29225 0.96405 0.66699 0.0
H674 H 0.36681 0.02032 0.57797 0.0
H675 H 0.35576 0.99782 0.61063 0.0
C676 C 0.70076 0.75434 0.22458 0.0
C677 C 0.72711 0.76767 0.22994 0.0
C678 C 0.68812 0.75651 0.20453 0.0
C679 C 0.70213 0.7805 0.14822 0.0
H680 H 0.62322 0.77814 0.15375 0.0
C681 C 0.64587 0.80967 0.07888 0.0
C682 C 0.61774 0.79874 0.07482 0.0
C683 C 0.65977 0.80467 0.09689 0.0
C684 C 0.64515 0.77856 0.15179 0.0
H685 H 0.76134 0.79325 0.21799 0.0
H686 H 0.73925 0.79706 0.18311 0.0
H687 H 0.64655 0.77091 0.18642 0.0
H688 H 0.58221 0.77394 0.08661 0.0
H689 H 0.60663 0.76491 0.11749 0.0
H690 H 0.70074 0.78829 0.11357 0.0
C691 C 0.72841 0.78487 0.19434 0.0
C692 C 0.65852 0.7744 0.17054 0.0
C693 C 0.741 0.78274 0.21441 0.0
C694 C 0.60399 0.78254 0.08902 0.0
C695 C 0.61788 0.77751 0.10695 0.0
C696 C 0.68872 0.7846 0.12941 0.0
C697 C 0.70161 0.77201 0.18936 0.0
C698 C 0.6872 0.77543 0.16902 0.0
C699 C 0.64585 0.78861 0.11125 0.0
C700 C 0.66009 0.78378 0.13101 0.0
H701 H 0.68954 0.74251 0.23613 0.0
H702 H 0.66762 0.74619 0.20101 0.0
H703 H 0.72418 0.7812 0.14646 0.0
H704 H 0.65719 0.82211 0.06814 0.0
H705 H 0.68123 0.81365 0.09984 0.0
C706 C 0.72532 0.22683 0.60898 0.0
C707 C 0.73153 0.23301 0.63138 0.0
C708 C 0.7316 0.20994 0.60013 0.0
C709 C 0.77557 0.17669 0.60738 0.0
H710 H 0.71675 0.13821 0.57493 0.0
C711 C 0.78372 0.09864 0.57895 0.0
C712 C 0.77273 0.09134 0.55794 0.0
C713 C 0.77966 0.11621 0.58817 0.0
C714 C 0.73358 0.14891 0.58366 0.0
H715 H 0.74994 0.22661 0.66186 0.0
H716 H 0.76106 0.19711 0.64629 0.0
H717 H 0.70845 0.16861 0.59015 0.0
H718 H 0.74998 0.09708 0.52968 0.0
H719 H 0.74333 0.1278 0.54547 0.0
H720 H 0.80086 0.15708 0.60063 0.0
C721 C 0.75133 0.20539 0.63562 0.0
C722 C 0.72877 0.16632 0.59242 0.0
C723 C 0.74484 0.22221 0.64455 0.0
C724 C 0.75819 0.10214 0.54612 0.0
C725 C 0.75433 0.11973 0.55521 0.0
C726 C 0.78049 0.15931 0.59844 0.0
C727 C 0.74442 0.19893 0.61342 0.0
C728 C 0.74973 0.18043 0.60429 0.0
C729 C 0.76472 0.12688 0.57646 0.0
C730 C 0.75957 0.14525 0.58638 0.0
H731 H 0.71514 0.23484 0.59837 0.0
H732 H 0.72636 0.20546 0.58287 0.0
H733 H 0.79218 0.18739 0.61632 0.0
H734 H 0.79488 0.09054 0.58848 0.0
H735 H 0.7877 0.12116 0.60467 0.0
C736 C 0.35658 0.34354 0.26247 0.0
C737 C 0.3306 0.32861 0.26534 0.0
C738 C 0.37053 0.34671 0.24123 0.0
C739 C 0.37111 0.3201 0.18607 0.0
H740 H 0.4256 0.37061 0.16844 0.0
C741 C 0.42954 0.33348 0.09862 0.0
C742 C 0.45883 0.33775 0.10027 0.0
C743 C 0.41261 0.33439 0.1178 0.0
C744 C 0.41033 0.35647 0.1732 0.0
H745 H 0.29776 0.30623 0.24827 0.0
H746 H 0.3209 0.31261 0.21099 0.0
H747 H 0.39691 0.36887 0.20331 0.0
H748 H 0.49368 0.34713 0.12276 0.0
H749 H 0.46407 0.34945 0.1563 0.0
H750 H 0.38419 0.30796 0.15553 0.0
C751 C 0.33147 0.32124 0.22515 0.0
C752 C 0.39403 0.35537 0.19325 0.0
C753 C 0.31798 0.3177 0.24647 0.0
C754 C 0.47111 0.34379 0.12116 0.0
C755 C 0.45426 0.34516 0.14024 0.0
C756 C 0.3869 0.32135 0.16582 0.0
C757 C 0.35841 0.3353 0.22231 0.0
C758 C 0.37443 0.33707 0.20015 0.0
C759 C 0.42485 0.34011 0.13877 0.0
C760 C 0.40687 0.33944 0.15938 0.0
H761 H 0.36685 0.35199 0.27687 0.0
H762 H 0.39134 0.35748 0.23996 0.0
H763 H 0.35694 0.30559 0.1909 0.0
H764 H 0.41973 0.32898 0.08259 0.0
H765 H 0.38995 0.33047 0.11634 0.0
C766 C 0.77632 0.69052 0.63159 0.0
C767 C 0.76766 0.70289 0.64744 0.0
C768 C 0.79576 0.68067 0.63723 0.0
C769 C 0.82511 0.66348 0.68666 0.0
H770 H 0.88122 0.65659 0.64243 0.0
C771 C 0.89009 0.60902 0.70068 0.0
C772 C 0.91858 0.61498 0.69325 0.0
C773 C 0.87238 0.62036 0.69533 0.0
C774 C 0.86588 0.65854 0.65507 0.0
H775 H 0.77312 0.71499 0.6815 0.0
H776 H 0.80742 0.69811 0.69121 0.0
H777 H 0.85 0.67595 0.63271 0.0
H778 H 0.95098 0.63775 0.67477 0.0
H779 H 0.92019 0.65767 0.66562 0.0
H780 H 0.84138 0.64643 0.70919 0.0
C781 C 0.79878 0.69569 0.67455 0.0
C782 C 0.84773 0.66944 0.6494 0.0
C783 C 0.77924 0.70548 0.66893 0.0
C784 C 0.92902 0.63261 0.68047 0.0
C785 C 0.91135 0.644 0.6752 0.0
C786 C 0.84332 0.65263 0.69237 0.0
C787 C 0.80709 0.68302 0.65883 0.0
C788 C 0.82701 0.67195 0.66508 0.0
C789 C 0.88279 0.63799 0.6825 0.0
C790 C 0.86383 0.64993 0.6766 0.0
H791 H 0.76772 0.68814 0.61491 0.0
H792 H 0.80138 0.67082 0.62481 0.0
H793 H 0.80921 0.66491 0.69908 0.0
H794 H 0.88132 0.59536 0.71029 0.0
H795 H 0.8504 0.61509 0.7009 0.0
C796 C 0.8784 0.31454 0.31243 0.0
C797 C 0.84945 0.30732 0.31838 0.0
C798 C 0.89344 0.3347 0.316 0.0
C799 C 0.88109 0.38378 0.31994 0.0
H800 H 0.95872 0.40277 0.33807 0.0
C801 C 0.93949 0.46821 0.32936 0.0
C802 C 0.96773 0.47475 0.32154 0.0
C803 C 0.92526 0.4477 0.33103 0.0
C804 C 0.93712 0.3977 0.33277 0.0
H805 H 0.81409 0.31538 0.33411 0.0
H806 H 0.84039 0.35043 0.34045 0.0
H807 H 0.93383 0.36683 0.33844 0.0
H808 H 0.00334 0.46543 0.30903 0.0
H809 H 0.97838 0.42948 0.3114 0.0
H810 H 0.88443 0.41447 0.31374 0.0
C811 C 0.85132 0.34058 0.33266 0.0
C812 C 0.92285 0.37712 0.33306 0.0
C813 C 0.8363 0.32044 0.32916 0.0
C814 C 0.98155 0.46059 0.31523 0.0
C815 C 0.96731 0.44007 0.31678 0.0
C816 C 0.89536 0.40431 0.31956 0.0
C817 C 0.87984 0.34806 0.32555 0.0
C818 C 0.89471 0.36993 0.32655 0.0
C819 C 0.93897 0.43337 0.3247 0.0
C820 C 0.9236 0.41153 0.32585 0.0
H821 H 0.8892 0.30485 0.30413 0.0
H822 H 0.91536 0.34001 0.31024 0.0
H823 H 0.85959 0.37871 0.3144 0.0
H824 H 0.92852 0.47899 0.33424 0.0
H825 H 0.90357 0.44309 0.33743 0.0
C826 C 0.24518 0.44605 0.76203 0.0
C827 C 0.24007 0.42707 0.75177 0.0
C828 C 0.2244 0.45582 0.76285 0.0
C829 C 0.14772 0.44776 0.75416 0.0
H830 H 0.1726 0.50538 0.74518 0.0
C831 C 0.07551 0.49377 0.72641 0.0
C832 C 0.07751 0.51173 0.73823 0.0
C833 C 0.09417 0.48283 0.73042 0.0
C834 C 0.16537 0.48932 0.74795 0.0
H835 H 0.20909 0.40333 0.73457 0.0
H836 H 0.17325 0.42063 0.7352 0.0
H837 H 0.20744 0.48743 0.7476 0.0
H838 H 0.10033 0.53229 0.7636 0.0
H839 H 0.13339 0.51329 0.77034 0.0
H840 H 0.10553 0.44976 0.75346 0.0
C841 C 0.19296 0.42781 0.7432 0.0
C842 C 0.18532 0.479 0.74945 0.0
C843 C 0.2136 0.41791 0.7427 0.0
C844 C 0.09828 0.51843 0.75435 0.0
C845 C 0.11724 0.50765 0.7581 0.0
C846 C 0.12777 0.45808 0.75231 0.0
C847 C 0.19817 0.44699 0.7531 0.0
C848 C 0.17679 0.45805 0.75248 0.0
C849 C 0.11544 0.48981 0.74608 0.0
C850 C 0.13643 0.47894 0.7491 0.0
H851 H 0.2653 0.4534 0.76937 0.0
H852 H 0.22901 0.47035 0.77109 0.0
H853 H 0.14029 0.43172 0.75691 0.0
H854 H 0.05955 0.48824 0.71399 0.0
H855 H 0.09246 0.46919 0.72082 0.0
C856 C 0.22199 0.76971 0.30309 0.0
C857 C 0.2502 0.77287 0.29563 0.0
C858 C 0.20374 0.75022 0.30584 0.0
C859 C 0.19474 0.69853 0.2858 0.0
H860 H 0.14045 0.6835 0.33615 0.0
C861 C 0.12866 0.61641 0.30183 0.0
C862 C 0.1003 0.61295 0.30865 0.0
C863 C 0.14691 0.63599 0.30069 0.0
C864 C 0.15529 0.68753 0.32186 0.0
H865 H 0.28161 0.75803 0.28604 0.0
H866 H 0.24992 0.72416 0.29103 0.0
H867 H 0.17253 0.71767 0.33395 0.0
H868 H 0.06842 0.62674 0.31964 0.0
H869 H 0.10019 0.66115 0.3174 0.0
H870 H 0.17748 0.66851 0.2736 0.0
C871 C 0.24175 0.73671 0.29437 0.0
C872 C 0.17367 0.70709 0.32062 0.0
C873 C 0.25996 0.75615 0.29164 0.0
C874 C 0.09032 0.62923 0.31433 0.0
C875 C 0.10853 0.64882 0.31319 0.0
C876 C 0.17636 0.67902 0.28701 0.0
C877 C 0.21333 0.7335 0.30115 0.0
C878 C 0.19367 0.71278 0.3026 0.0
C879 C 0.13706 0.65244 0.30637 0.0
C880 C 0.15646 0.67326 0.30508 0.0
H881 H 0.21382 0.78228 0.30631 0.0
H882 H 0.18191 0.74823 0.31097 0.0
H883 H 0.20954 0.70255 0.27147 0.0
H884 H 0.13668 0.60394 0.29756 0.0
H885 H 0.16883 0.63823 0.29567 0.0
C886 C 0.72583 0.80306 0.60299 0.0
C887 C 0.72657 0.79877 0.62601 0.0
C888 C 0.73216 0.82285 0.59565 0.0
C889 C 0.76738 0.87558 0.61208 0.0
H890 H 0.72193 0.88694 0.56544 0.0
C891 C 0.77408 0.95629 0.58409 0.0
C892 C 0.77349 0.95922 0.56079 0.0
C893 C 0.76934 0.93695 0.59264 0.0
C894 C 0.735 0.88399 0.57832 0.0
H895 H 0.73638 0.8121 0.65913 0.0
H896 H 0.74638 0.84666 0.64649 0.0
H897 H 0.71159 0.85286 0.57947 0.0
H898 H 0.76771 0.94468 0.52804 0.0
H899 H 0.75946 0.91084 0.54285 0.0
H900 H 0.79062 0.90687 0.61096 0.0
C901 C 0.74082 0.83466 0.63411 0.0
C902 C 0.7291 0.86444 0.58636 0.0
C903 C 0.73454 0.8148 0.64145 0.0
C904 C 0.76828 0.94266 0.5461 0.0
C905 C 0.76342 0.92335 0.5546 0.0
C906 C 0.77321 0.8952 0.60409 0.0
C907 C 0.73943 0.83891 0.61113 0.0
C908 C 0.74536 0.85993 0.60319 0.0
C909 C 0.76365 0.92025 0.57798 0.0
C910 C 0.75723 0.89957 0.58697 0.0
H911 H 0.72002 0.79107 0.5906 0.0
H912 H 0.73148 0.82555 0.57777 0.0
H913 H 0.78052 0.8726 0.62488 0.0
H914 H 0.77772 0.96892 0.59567 0.0
H915 H 0.76937 0.93501 0.61073 0.0
C916 C 0.71237 0.25727 0.23475 0.0
C917 C 0.74102 0.26849 0.23521 0.0
C918 C 0.69506 0.26116 0.2185 0.0
C919 C 0.69018 0.30176 0.18159 0.0
H920 H 0.63359 0.25951 0.15155 0.0
C921 C 0.60538 0.31801 0.12775 0.0
C922 C 0.59954 0.30749 0.10719 0.0
C923 C 0.62242 0.31288 0.14331 0.0
C924 C 0.64941 0.27148 0.15971 0.0
H925 H 0.77419 0.29205 0.2184 0.0
H926 H 0.74412 0.29867 0.19006 0.0
H927 H 0.66425 0.25076 0.17814 0.0
H928 H 0.60753 0.28354 0.08673 0.0
H929 H 0.63712 0.27456 0.11391 0.0
H930 H 0.67565 0.32248 0.163 0.0
C931 C 0.73489 0.28711 0.20247 0.0
C932 C 0.66677 0.26646 0.17509 0.0
C933 C 0.75217 0.28321 0.21865 0.0
C934 C 0.61119 0.29174 0.10256 0.0
C935 C 0.62816 0.28658 0.11814 0.0
C936 C 0.67277 0.30677 0.1663 0.0
C937 C 0.70605 0.27638 0.20244 0.0
C938 C 0.68743 0.28155 0.18613 0.0
C939 C 0.63397 0.29708 0.13869 0.0
C940 C 0.65222 0.2917 0.15514 0.0
H941 H 0.70313 0.24583 0.24729 0.0
H942 H 0.67287 0.2527 0.21899 0.0
H943 H 0.70564 0.31375 0.19003 0.0
H944 H 0.59641 0.33002 0.132 0.0
H945 H 0.6262 0.32109 0.15913 0.0
C946 C 0.3859 0.29087 0.70879 0.0
C947 C 0.36557 0.28764 0.72668 0.0
C948 C 0.38909 0.27477 0.69571 0.0
C949 C 0.34904 0.2236 0.67861 0.0
H950 H 0.42191 0.22045 0.65597 0.0
C951 C 0.35947 0.15598 0.62587 0.0
C952 C 0.37799 0.16016 0.60678 0.0
C953 C 0.35941 0.17097 0.64178 0.0
C954 C 0.40139 0.22121 0.66201 0.0
H955 H 0.33344 0.26483 0.7454 0.0
H956 H 0.3392 0.23677 0.72272 0.0
H957 H 0.41947 0.2476 0.68177 0.0
H958 H 0.41117 0.18335 0.58956 0.0
H959 H 0.41096 0.20958 0.61727 0.0
H960 H 0.33089 0.19745 0.65867 0.0
C961 C 0.35235 0.25179 0.71857 0.0
C962 C 0.4 0.23675 0.67681 0.0
C963 C 0.34917 0.26788 0.73165 0.0
C964 C 0.39685 0.1796 0.6042 0.0
C965 C 0.39675 0.19462 0.62011 0.0
C966 C 0.35043 0.2081 0.66382 0.0
C967 C 0.37202 0.25508 0.70022 0.0
C968 C 0.37379 0.23817 0.68521 0.0
C969 C 0.37782 0.19054 0.63898 0.0
C970 C 0.3766 0.20675 0.65526 0.0
H971 H 0.3989 0.30591 0.70451 0.0
H972 H 0.40427 0.27785 0.68158 0.0
H973 H 0.32848 0.22445 0.68442 0.0
H974 H 0.34504 0.14107 0.62856 0.0
H975 H 0.34494 0.16721 0.65633 0.0
C976 C 0.39134 0.84474 0.23527 0.0
C977 C 0.36604 0.84984 0.23541 0.0
C978 C 0.40771 0.84577 0.21533 0.0
C979 C 0.4004 0.84361 0.15373 0.0
H980 H 0.4821 0.85817 0.15237 0.0
C981 C 0.46644 0.84375 0.07107 0.0
C982 C 0.48843 0.83516 0.07238 0.0
C983 C 0.45227 0.84745 0.09076 0.0
C984 C 0.45927 0.85394 0.15253 0.0
H985 H 0.33893 0.86108 0.21493 0.0
H986 H 0.36775 0.86317 0.18022 0.0
H987 H 0.45656 0.86231 0.1873 0.0
H988 H 0.51324 0.82376 0.09472 0.0
H989 H 0.48834 0.83004 0.12931 0.0
H990 H 0.40309 0.83503 0.11905 0.0
C991 C 0.37461 0.85797 0.19545 0.0
C992 C 0.44465 0.85633 0.17252 0.0
C993 C 0.35819 0.8569 0.21539 0.0
C994 C 0.49625 0.83039 0.09351 0.0
C995 C 0.48217 0.83414 0.11321 0.0
C996 C 0.41503 0.84128 0.13374 0.0
C997 C 0.39922 0.85197 0.19507 0.0
C998 C 0.41501 0.85097 0.17343 0.0
C999 C 0.45998 0.84268 0.11205 0.0
C1000 C 0.4446 0.8462 0.13298 0.0
H1001 H 0.39802 0.83924 0.25039 0.0
H1002 H 0.42639 0.84086 0.21562 0.0
H1003 H 0.37756 0.839 0.15392 0.0
H1004 H 0.46031 0.84759 0.05483 0.0
H1005 H 0.43547 0.85422 0.08934 0.0
C1006 C 0.79246 0.18474 0.34166 0.0
C1007 C 0.81738 0.19499 0.32954 0.0
C1008 C 0.79178 0.1687 0.35569 0.0
C1009 C 0.83659 0.14728 0.38841 0.0
H1010 H 0.77479 0.09791 0.38475 0.0
C1011 C 0.81263 0.08399 0.45495 0.0
C1012 C 0.80602 0.06425 0.44666 0.0
C1013 C 0.8156 0.09997 0.44022 0.0
C1014 C 0.79225 0.11156 0.38586 0.0
H1015 H 0.86124 0.19661 0.32286 0.0
H1016 H 0.86011 0.16875 0.34765 0.0
H1017 H 0.77658 0.1259 0.35993 0.0
H1018 H 0.7982 0.04558 0.41667 0.0
H1019 H 0.80288 0.07355 0.39079 0.0
H1020 H 0.8521 0.13299 0.41452 0.0
C1021 C 0.84111 0.17312 0.34621 0.0
C1022 C 0.79314 0.12762 0.37181 0.0
C1023 C 0.8417 0.189 0.33195 0.0
C1024 C 0.80303 0.06072 0.42338 0.0
C1025 C 0.80563 0.07667 0.40867 0.0
C1026 C 0.8355 0.1313 0.40267 0.0
C1027 C 0.8161 0.16273 0.35811 0.0
C1028 C 0.81531 0.14565 0.37295 0.0
C1029 C 0.81175 0.09644 0.41697 0.0
C1030 C 0.81332 0.11328 0.40153 0.0
H1031 H 0.77336 0.18897 0.34016 0.0
H1032 H 0.77228 0.16107 0.36483 0.0
H1033 H 0.85383 0.16105 0.38973 0.0
H1034 H 0.81504 0.08698 0.47289 0.0
H1035 H 0.82014 0.11503 0.4471 0.0
C1036 C 0.33128 0.36793 0.81793 0.0
C1037 C 0.34649 0.37003 0.79716 0.0
C1038 C 0.34295 0.36357 0.83755 0.0
C1039 C 0.40257 0.34687 0.85779 0.0
H1040 H 0.3871 0.37198 0.91376 0.0
C1041 C 0.46894 0.35372 0.93698 0.0
C1042 C 0.45365 0.34698 0.95726 0.0
C1043 C 0.45495 0.35584 0.91765 0.0
C1044 C 0.39143 0.36478 0.89827 0.0
H1045 H 0.38606 0.36976 0.78066 0.0
H1046 H 0.4068 0.36273 0.81482 0.0
H1047 H 0.3643 0.37658 0.8795 0.0
H1048 H 0.41193 0.33758 0.97346 0.0
H1049 H 0.38745 0.34181 0.93966 0.0
H1050 H 0.43064 0.3358 0.87661 0.0
C1051 C 0.38542 0.36362 0.81599 0.0
C1052 C 0.37824 0.36727 0.87862 0.0
C1053 C 0.37354 0.36763 0.79632 0.0
C1054 C 0.42416 0.34276 0.95799 0.0
C1055 C 0.41021 0.34524 0.93874 0.0
C1056 C 0.41611 0.34468 0.87736 0.0
C1057 C 0.37039 0.36167 0.83693 0.0
C1058 C 0.38368 0.3584 0.85807 0.0
C1059 C 0.42547 0.35159 0.91834 0.0
C1060 C 0.41071 0.35365 0.89774 0.0
H1061 H 0.31035 0.3697 0.819 0.0
H1062 H 0.33046 0.36179 0.85321 0.0
H1063 H 0.40689 0.33945 0.84248 0.0
H1064 H 0.49167 0.3569 0.93595 0.0
H1065 H 0.46719 0.3609 0.90215 0.0
C1066 C 0.35863 0.88872 0.36649 0.0
C1067 C 0.33826 0.88452 0.34987 0.0
C1068 C 0.36307 0.90591 0.38003 0.0
C1069 C 0.35221 0.95597 0.38247 0.0
H1070 H 0.3614 0.95204 0.44674 0.0
C1071 C 0.34881 0.01936 0.44547 0.0
C1072 C 0.36758 0.02328 0.46329 0.0
C1073 C 0.34643 0.00286 0.43116 0.0
C1074 C 0.35927 0.95347 0.42877 0.0
H1075 H 0.30661 0.89512 0.33439 0.0
H1076 H 0.31424 0.92502 0.35811 0.0
H1077 H 0.35491 0.92239 0.42276 0.0
H1078 H 0.39869 0.01293 0.4799 0.0
H1079 H 0.39497 0.9844 0.45462 0.0
H1080 H 0.3565 0.98704 0.38849 0.0
C1081 C 0.32699 0.91513 0.36052 0.0
C1082 C 0.35551 0.93646 0.41503 0.0
C1083 C 0.3225 0.89792 0.34702 0.0
C1084 C 0.38422 0.01047 0.46623 0.0
C1085 C 0.38183 0.99396 0.4519 0.0
C1086 C 0.35601 0.97299 0.3962 0.0
C1087 C 0.3473 0.91931 0.37721 0.0
C1088 C 0.35182 0.9375 0.39173 0.0
C1089 C 0.36276 0.98988 0.43429 0.0
C1090 C 0.35947 0.97193 0.41954 0.0
H1091 H 0.37119 0.87873 0.36908 0.0
H1092 H 0.3791 0.90881 0.39256 0.0
H1093 H 0.34987 0.95734 0.36452 0.0
H1094 H 0.33592 0.02906 0.44257 0.0
H1095 H 0.33134 6e-05 0.4179 0.0
C1096 C 0.62961 0.80394 0.74968 0.0
C1097 C 0.65702 0.80301 0.7444 0.0
C1098 C 0.62093 0.80604 0.77209 0.0
C1099 C 0.64786 0.82079 0.82931 0.0
H1100 H 0.57278 0.78873 0.84915 0.0
C1101 C 0.61205 0.81165 0.92352 0.0
C1102 C 0.58502 0.81303 0.92906 0.0
C1103 C 0.62078 0.81068 0.9009 0.0
C1104 C 0.5937 0.79793 0.84382 0.0
H1105 H 0.69696 0.80392 0.75853 0.0
H1106 H 0.6817 0.8073 0.79759 0.0
H1107 H 0.58829 0.78719 0.80977 0.0
H1108 H 0.54561 0.81409 0.91586 0.0
H1109 H 0.56073 0.81236 0.87616 0.0
H1110 H 0.65332 0.83136 0.86347 0.0
C1111 C 0.66701 0.80667 0.7844 0.0
C1112 C 0.60258 0.79709 0.82123 0.0
C1113 C 0.67572 0.80463 0.76199 0.0
C1114 C 0.56658 0.81304 0.9118 0.0
C1115 C 0.57521 0.81198 0.88919 0.0
C1116 C 0.63901 0.82157 0.85192 0.0
C1117 C 0.63942 0.80721 0.78976 0.0
C1118 C 0.62979 0.80848 0.8137 0.0
C1119 C 0.60248 0.81091 0.88348 0.0
C1120 C 0.61185 0.81013 0.85943 0.0
H1121 H 0.61472 0.80284 0.73652 0.0
H1122 H 0.59968 0.80674 0.77558 0.0
H1123 H 0.66879 0.82999 0.82401 0.0
H1124 H 0.62644 0.81146 0.9367 0.0
H1125 H 0.64175 0.80957 0.89706 0.0
loop_
_geom_bond_atom_site_label_1
_geom_bond_atom_site_label_2
_geom_bond_distance
_geom_bond_site_symmetry_2
_ccdc_geom_bond_type
O0 Cd1 2.300 . S
O0 C7 1.275 . S
Cd1 O0 2.300 . S
Cd1 O9 2.381 . S
Cd1 O10 2.378 . S
O2 Cd3 2.385 . S
O2 C7 1.255 . S
Cd3 O2 2.385 . S
Cd3 O4 2.317 . S
O4 Cd3 2.317 . S
O4 C5 1.232 . S
C5 O4 1.232 . S
C5 O6 1.218 . S
O6 C5 1.218 . S
C7 O0 1.275 . S
C7 O2 1.255 . S
C8 O9 1.258 . S
C8 O10 1.256 . S
O9 Cd1 2.381 . S
O9 C8 1.258 . S
O10 Cd1 2.378 . S
O10 C8 1.256 . S
O11 Cd12 2.300 . S
O11 C18 1.275 . S
Cd12 O11 2.300 . S
Cd12 O20 2.381 . S
Cd12 O21 2.378 . S
O13 Cd14 2.385 . S
O13 C18 1.255 . S
Cd14 O13 2.385 . S
Cd14 O15 2.317 . S
O15 Cd14 2.317 . S
O15 C16 1.232 . S
C16 O15 1.232 . S
C16 O17 1.218 . S
O17 C16 1.218 . S
C18 O11 1.275 . S
C18 O13 1.255 . S
C19 O20 1.258 . S
C19 O21 1.256 . S
O20 Cd12 2.381 . S
O20 C19 1.258 . S
O21 Cd12 2.378 . S
O21 C19 1.256 . S
O22 Cd23 2.300 . S
O22 C29 1.275 . S
Cd23 O22 2.300 . S
Cd23 O31 2.381 . S
Cd23 O32 2.378 . S
O24 Cd25 2.385 . S
O24 C29 1.255 . S
Cd25 O24 2.385 . S
Cd25 O26 2.317 . S
O26 Cd25 2.317 . S
O26 C27 1.232 . S
C27 O26 1.232 . S
C27 O28 1.218 . S
O28 C27 1.218 . S
C29 O22 1.275 . S
C29 O24 1.255 . S
C30 O31 1.258 . S
C30 O32 1.256 . S
O31 Cd23 2.381 . S
O31 C30 1.258 . S
O32 Cd23 2.378 . S
O32 C30 1.256 . S
O33 Cd34 2.300 . S
O33 C40 1.275 . S
Cd34 O33 2.300 . S
Cd34 O42 2.381 . S
Cd34 O43 2.378 . S
O35 Cd36 2.385 . S
O35 C40 1.255 . S
Cd36 O35 2.385 . S
Cd36 O37 2.317 . S
O37 Cd36 2.317 . S
O37 C38 1.232 . S
C38 O37 1.232 . S
C38 O39 1.218 . S
O39 C38 1.218 . S
C40 O33 1.275 . S
C40 O35 1.255 . S
C41 O42 1.258 . S
C41 O43 1.256 . S
O42 Cd34 2.381 . S
O42 C41 1.258 . S
O43 Cd34 2.378 . S
O43 C41 1.256 . S
O44 Cd45 2.300 . S
O44 C51 1.275 . S
Cd45 O44 2.300 . S
Cd45 O53 2.381 . S
Cd45 O54 2.378 . S
O46 Cd47 2.385 . S
O46 C51 1.255 . S
Cd47 O46 2.385 . S
Cd47 O48 2.317 . S
O48 Cd47 2.317 . S
O48 C49 1.232 . S
C49 O48 1.232 . S
C49 O50 1.218 . S
O50 C49 1.218 . S
C51 O44 1.275 . S
C51 O46 1.255 . S
C52 O53 1.258 . S
C52 O54 1.256 . S
O53 Cd45 2.381 . S
O53 C52 1.258 . S
O54 Cd45 2.378 . S
O54 C52 1.256 . S
O55 Cd56 2.300 . S
O55 C62 1.275 . S
Cd56 O55 2.300 . S
Cd56 O64 2.381 . S
Cd56 O65 2.378 . S
O57 Cd58 2.385 . S
O57 C62 1.255 . S
Cd58 O57 2.385 . S
Cd58 O59 2.317 . S
O59 Cd58 2.317 . S
O59 C60 1.232 . S
C60 O59 1.232 . S
C60 O61 1.218 . S
O61 C60 1.218 . S
C62 O55 1.275 . S
C62 O57 1.255 . S
C63 O64 1.258 . S
C63 O65 1.256 . S
O64 Cd56 2.381 . S
O64 C63 1.258 . S
O65 Cd56 2.378 . S
O65 C63 1.256 . S
O66 Cd67 2.300 . S
O66 C73 1.275 . S
Cd67 O66 2.300 . S
Cd67 O75 2.381 . S
Cd67 O76 2.378 . S
O68 Cd69 2.385 . S
O68 C73 1.255 . S
Cd69 O68 2.385 . S
Cd69 O70 2.317 . S
O70 Cd69 2.317 . S
O70 C71 1.232 . S
C71 O70 1.232 . S
C71 O72 1.218 . S
O72 C71 1.218 . S
C73 O66 1.275 . S
C73 O68 1.255 . S
C74 O75 1.258 . S
C74 O76 1.256 . S
O75 Cd67 2.381 . S
O75 C74 1.258 . S
O76 Cd67 2.378 . S
O76 C74 1.256 . S
O77 Cd78 2.300 . S
O77 C84 1.275 . S
Cd78 O77 2.300 . S
Cd78 O86 2.381 . S
Cd78 O87 2.378 . S
O79 Cd80 2.385 . S
O79 C84 1.255 . S
Cd80 O79 2.385 . S
Cd80 O81 2.317 . S
O81 Cd80 2.317 . S
O81 C82 1.232 . S
C82 O81 1.232 . S
C82 O83 1.218 . S
O83 C82 1.218 . S
C84 O77 1.275 . S
C84 O79 1.255 . S
C85 O86 1.258 . S
C85 O87 1.256 . S
O86 Cd78 2.381 . S
O86 C85 1.258 . S
O87 Cd78 2.378 . S
O87 C85 1.256 . S
C88 C89 1.443 . S
C88 N92 1.376 . S
C88 C126 1.389 . S
C89 C88 1.443 . S
C89 C90 1.340 . S
C89 H129 0.951 . S
C90 C89 1.340 . S
C90 C91 1.439 . S
C90 H130 0.950 . S
C91 C90 1.439 . S
C91 N92 1.374 . S
C91 C125 1.395 . S
N92 C88 1.376 . S
N92 C91 1.374 . S
N92 Co93 2.008 . S
Co93 N92 2.008 . S
Co93 N94 1.995 . S
Co93 N99 2.008 . S
Co93 N104 1.995 . S
Co93 N109 2.282 . S
Co93 N115 2.282 . S
N94 Co93 1.995 . S
N94 C95 1.376 . S
N94 C98 1.383 . S
C95 N94 1.376 . S
C95 C96 1.446 . S
C95 C125 1.391 . S
C96 C95 1.446 . S
C96 C97 1.339 1_455 S
C96 H131 0.949 . S
C97 C96 1.339 1_655 S
C97 C98 1.439 1_655 S
C97 H132 0.950 . S
C98 N94 1.383 . S
C98 C97 1.439 1_455 S
C98 C127 1.392 . S
N99 Co93 2.008 . S
N99 C100 1.376 . S
N99 C103 1.374 . S
C100 N99 1.376 . S
C100 C101 1.443 . S
C100 C127 1.389 . S
C101 C100 1.443 . S
C101 C102 1.340 . S
C101 H133 0.951 . S
C102 C101 1.340 . S
C102 C103 1.439 . S
C102 H134 0.950 . S
C103 N99 1.374 . S
C103 C102 1.439 . S
C103 C128 1.395 . S
N104 Co93 1.995 . S
N104 C105 1.376 . S
N104 C108 1.383 . S
C105 N104 1.376 . S
C105 C106 1.446 . S
C105 C128 1.391 . S
C106 C105 1.446 . S
C106 C107 1.339 . S
C106 H135 0.949 . S
C107 C106 1.339 . S
C107 C108 1.439 . S
C107 H136 0.950 . S
C108 N104 1.383 . S
C108 C107 1.439 . S
C108 C126 1.392 . S
N109 Co93 2.282 . S
N109 C112 1.332 . S
N109 C114 1.332 . S
C110 C111 1.386 . S
C110 C113 1.388 . S
C111 C110 1.386 . S
C111 C112 1.382 . S
C111 H137 0.950 . S
C112 N109 1.332 . S
C112 C111 1.382 . S
C112 H123 0.952 . S
C113 C110 1.388 . S
C113 C114 1.382 . S
C113 H138 0.950 . S
C114 N109 1.332 . S
C114 C113 1.382 . S
C114 H124 0.948 . S
N115 Co93 2.282 . S
N115 C119 1.332 . S
N115 C120 1.332 . S
C116 C117 1.388 1_455 S
C116 C120 1.382 . S
C116 H139 0.950 . S
C117 C116 1.388 1_655 S
C117 C118 1.386 . S
C118 C117 1.386 . S
C118 C119 1.382 1_655 S
C118 H140 0.950 . S
C119 N115 1.332 . S
C119 C118 1.382 1_455 S
C119 H121 0.952 . S
C120 N115 1.332 . S
C120 C116 1.382 . S
C120 H122 0.948 . S
H121 C119 0.952 . S
H122 C120 0.948 . S
H123 C112 0.952 . S
H124 C114 0.948 . S
C125 C91 1.395 . S
C125 C95 1.391 . S
C126 C88 1.389 . S
C126 C108 1.392 . S
C127 C98 1.392 . S
C127 C100 1.389 . S
C128 C103 1.395 . S
C128 C105 1.391 . S
H129 C89 0.951 . S
H130 C90 0.950 . S
H131 C96 0.949 . S
H132 C97 0.950 . S
H133 C101 0.951 . S
H134 C102 0.950 . S
H135 C106 0.949 . S
H136 C107 0.950 . S
H137 C111 0.950 . S
H138 C113 0.950 . S
H139 C116 0.950 . S
H140 C118 0.950 . S
C141 C142 1.443 . S
C141 N145 1.376 . S
C141 C179 1.389 . S
C142 C141 1.443 . S
C142 C143 1.340 . S
C142 H182 0.951 . S
C143 C142 1.340 . S
C143 C144 1.439 . S
C143 H183 0.950 . S
C144 C143 1.439 . S
C144 N145 1.374 . S
C144 C178 1.395 1_455 S
N145 C141 1.376 . S
N145 C144 1.374 . S
N145 Co146 2.008 . S
Co146 N145 2.008 . S
Co146 N147 1.995 1_455 S
Co146 N152 2.008 1_455 S
Co146 N157 1.995 . S
Co146 N162 2.282 . S
Co146 N168 2.282 1_455 S
N147 Co146 1.995 1_655 S
N147 C148 1.376 . S
N147 C151 1.383 . S
C148 N147 1.376 . S
C148 C149 1.446 . S
C148 C178 1.391 . S
C149 C148 1.446 . S
C149 C150 1.339 . S
C149 H184 0.949 . S
C150 C149 1.339 . S
C150 C151 1.439 . S
C150 H185 0.950 . S
C151 N147 1.383 . S
C151 C150 1.439 . S
C151 C180 1.392 . S
N152 Co146 2.008 1_655 S
N152 C153 1.376 . S
N152 C156 1.374 . S
C153 N152 1.376 . S
C153 C154 1.443 . S
C153 C180 1.389 . S
C154 C153 1.443 . S
C154 C155 1.340 . S
C154 H186 0.951 . S
C155 C154 1.340 . S
C155 C156 1.439 . S
C155 H187 0.950 . S
C156 N152 1.374 . S
C156 C155 1.439 . S
C156 C181 1.395 1_655 S
N157 Co146 1.995 . S
N157 C158 1.376 . S
N157 C161 1.383 . S
C158 N157 1.376 . S
C158 C159 1.446 . S
C158 C181 1.391 . S
C159 C158 1.446 . S
C159 C160 1.339 . S
C159 H188 0.949 . S
C160 C159 1.339 . S
C160 C161 1.439 . S
C160 H189 0.950 . S
C161 N157 1.383 . S
C161 C160 1.439 . S
C161 C179 1.392 . S
N162 Co146 2.282 . S
N162 C165 1.332 . S
N162 C167 1.332 . S
C163 C164 1.386 . S
C163 C166 1.388 . S
C164 C163 1.386 . S
C164 C165 1.382 . S
C164 H190 0.950 . S
C165 N162 1.332 . S
C165 C164 1.382 . S
C165 H176 0.952 . S
C166 C163 1.388 . S
C166 C167 1.382 . S
C166 H191 0.950 . S
C167 N162 1.332 . S
C167 C166 1.382 . S
C167 H177 0.948 . S
N168 Co146 2.282 1_655 S
N168 C172 1.332 . S
N168 C173 1.332 . S
C169 C170 1.388 . S
C169 C173 1.382 . S
C169 H192 0.950 . S
C170 C169 1.388 . S
C170 C171 1.386 . S
C171 C170 1.386 . S
C171 C172 1.382 . S
C171 H193 0.950 . S
C172 N168 1.332 . S
C172 C171 1.382 . S
C172 H174 0.952 . S
C173 N168 1.332 . S
C173 C169 1.382 . S
C173 H175 0.948 . S
H174 C172 0.952 . S
H175 C173 0.948 . S
H176 C165 0.952 . S
H177 C167 0.948 . S
C178 C144 1.395 1_655 S
C178 C148 1.391 . S
C179 C141 1.389 . S
C179 C161 1.392 . S
C180 C151 1.392 . S
C180 C153 1.389 . S
C181 C156 1.395 1_455 S
C181 C158 1.391 . S
H182 C142 0.951 . S
H183 C143 0.950 . S
H184 C149 0.949 . S
H185 C150 0.950 . S
H186 C154 0.951 . S
H187 C155 0.950 . S
H188 C159 0.949 . S
H189 C160 0.950 . S
H190 C164 0.950 . S
H191 C166 0.950 . S
H192 C169 0.950 . S
H193 C171 0.950 . S
C194 C195 1.443 . S
C194 N198 1.376 . S
C194 C232 1.389 . S
C195 C194 1.443 . S
C195 C196 1.340 . S
C195 H235 0.951 . S
C196 C195 1.340 . S
C196 C197 1.439 . S
C196 H236 0.950 . S
C197 C196 1.439 . S
C197 N198 1.374 . S
C197 C231 1.395 . S
N198 C194 1.376 . S
N198 C197 1.374 . S
N198 Co199 2.008 . S
Co199 N198 2.008 . S
Co199 N200 1.995 . S
Co199 N205 2.008 . S
Co199 N210 1.995 . S
Co199 N215 2.282 . S
Co199 N221 2.282 . S
N200 Co199 1.995 . S
N200 C201 1.376 . S
N200 C204 1.383 . S
C201 N200 1.376 . S
C201 C202 1.446 . S
C201 C231 1.391 . S
C202 C201 1.446 . S
C202 C203 1.339 . S
C202 H237 0.949 . S
C203 C202 1.339 . S
C203 C204 1.439 . S
C203 H238 0.950 . S
C204 N200 1.383 . S
C204 C203 1.439 . S
C204 C233 1.392 . S
N205 Co199 2.008 . S
N205 C206 1.376 . S
N205 C209 1.374 . S
C206 N205 1.376 . S
C206 C207 1.443 . S
C206 C233 1.389 . S
C207 C206 1.443 . S
C207 C208 1.340 . S
C207 H239 0.951 . S
C208 C207 1.340 . S
C208 C209 1.439 . S
C208 H240 0.950 . S
C209 N205 1.374 . S
C209 C208 1.439 . S
C209 C234 1.395 . S
N210 Co199 1.995 . S
N210 C211 1.376 . S
N210 C214 1.383 . S
C211 N210 1.376 . S
C211 C212 1.446 . S
C211 C234 1.391 . S
C212 C211 1.446 . S
C212 C213 1.339 . S
C212 H241 0.949 . S
C213 C212 1.339 . S
C213 C214 1.439 . S
C213 H242 0.950 . S
C214 N210 1.383 . S
C214 C213 1.439 . S
C214 C232 1.392 . S
N215 Co199 2.282 . S
N215 C218 1.332 . S
N215 C220 1.332 . S
C216 C217 1.386 . S
C216 C219 1.388 . S
C217 C216 1.386 . S
C217 C218 1.382 . S
C217 H243 0.950 . S
C218 N215 1.332 . S
C218 C217 1.382 . S
C218 H229 0.952 . S
C219 C216 1.388 . S
C219 C220 1.382 . S
C219 H244 0.950 . S
C220 N215 1.332 . S
C220 C219 1.382 . S
C220 H230 0.948 . S
N221 Co199 2.282 . S
N221 C225 1.332 . S
N221 C226 1.332 . S
C222 C223 1.388 . S
C222 C226 1.382 . S
C222 H245 0.950 . S
C223 C222 1.388 . S
C223 C224 1.386 . S
C224 C223 1.386 . S
C224 C225 1.382 . S
C224 H246 0.950 . S
C225 N221 1.332 . S
C225 C224 1.382 . S
C225 H227 0.952 . S
C226 N221 1.332 . S
C226 C222 1.382 . S
C226 H228 0.948 . S
H227 C225 0.952 . S
H228 C226 0.948 . S
H229 C218 0.952 . S
H230 C220 0.948 . S
C231 C197 1.395 . S
C231 C201 1.391 . S
C232 C194 1.389 . S
C232 C214 1.392 . S
C233 C204 1.392 . S
C233 C206 1.389 . S
C234 C209 1.395 . S
C234 C211 1.391 . S
H235 C195 0.951 . S
H236 C196 0.950 . S
H237 C202 0.949 . S
H238 C203 0.950 . S
H239 C207 0.951 . S
H240 C208 0.950 . S
H241 C212 0.949 . S
H242 C213 0.950 . S
H243 C217 0.950 . S
H244 C219 0.950 . S
H245 C222 0.950 . S
H246 C224 0.950 . S
C247 C248 1.443 . S
C247 N251 1.376 . S
C247 C285 1.389 . S
C248 C247 1.443 . S
C248 C249 1.340 . S
C248 H288 0.951 . S
C249 C248 1.340 . S
C249 C250 1.439 . S
C249 H289 0.950 . S
C250 C249 1.439 . S
C250 N251 1.374 . S
C250 C284 1.395 . S
N251 C247 1.376 . S
N251 C250 1.374 . S
N251 Co252 2.008 . S
Co252 N251 2.008 . S
Co252 N253 1.995 1_554 S
Co252 N258 2.008 1_554 S
Co252 N263 1.995 . S
Co252 N268 2.282 1_554 S
Co252 N274 2.282 . S
N253 Co252 1.995 1_556 S
N253 C254 1.376 1_556 S
N253 C257 1.383 . S
C254 N253 1.376 1_554 S
C254 C255 1.446 1_554 S
C254 C284 1.391 . S
C255 C254 1.446 1_556 S
C255 C256 1.339 . S
C255 H290 0.949 . S
C256 C255 1.339 . S
C256 C257 1.439 . S
C256 H291 0.950 . S
C257 N253 1.383 . S
C257 C256 1.439 . S
C257 C286 1.392 . S
N258 Co252 2.008 1_556 S
N258 C259 1.376 . S
N258 C262 1.374 . S
C259 N258 1.376 . S
C259 C260 1.443 . S
C259 C286 1.389 . S
C260 C259 1.443 . S
C260 C261 1.340 . S
C260 H292 0.951 . S
C261 C260 1.340 . S
C261 C262 1.439 . S
C261 H293 0.950 . S
C262 N258 1.374 . S
C262 C261 1.439 . S
C262 C287 1.395 1_556 S
N263 Co252 1.995 . S
N263 C264 1.376 . S
N263 C267 1.383 . S
C264 N263 1.376 . S
C264 C265 1.446 . S
C264 C287 1.391 . S
C265 C264 1.446 . S
C265 C266 1.339 . S
C265 H294 0.949 . S
C266 C265 1.339 . S
C266 C267 1.439 . S
C266 H295 0.950 . S
C267 N263 1.383 . S
C267 C266 1.439 . S
C267 C285 1.392 . S
N268 Co252 2.282 1_556 S
N268 C271 1.332 . S
N268 C273 1.332 . S
C269 C270 1.386 . S
C269 C272 1.388 . S
C270 C269 1.386 . S
C270 C271 1.382 . S
C270 H296 0.950 . S
C271 N268 1.332 . S
C271 C270 1.382 . S
C271 H282 0.952 . S
C272 C269 1.388 . S
C272 C273 1.382 . S
C272 H297 0.950 . S
C273 N268 1.332 . S
C273 C272 1.382 . S
C273 H283 0.948 . S
N274 Co252 2.282 . S
N274 C278 1.332 . S
N274 C279 1.332 . S
C275 C276 1.388 . S
C275 C279 1.382 . S
C275 H298 0.950 . S
C276 C275 1.388 . S
C276 C277 1.386 . S
C277 C276 1.386 . S
C277 C278 1.382 . S
C277 H299 0.950 . S
C278 N274 1.332 . S
C278 C277 1.382 . S
C278 H280 0.952 . S
C279 N274 1.332 . S
C279 C275 1.382 . S
C279 H281 0.948 . S
H280 C278 0.952 . S
H281 C279 0.948 . S
H282 C271 0.952 . S
H283 C273 0.948 . S
C284 C250 1.395 . S
C284 C254 1.391 . S
C285 C247 1.389 . S
C285 C267 1.392 . S
C286 C257 1.392 . S
C286 C259 1.389 . S
C287 C262 1.395 1_554 S
C287 C264 1.391 . S
H288 C248 0.951 . S
H289 C249 0.950 . S
H290 C255 0.949 . S
H291 C256 0.950 . S
H292 C260 0.951 . S
H293 C261 0.950 . S
H294 C265 0.949 . S
H295 C266 0.950 . S
H296 C270 0.950 . S
H297 C272 0.950 . S
H298 C275 0.950 . S
H299 C277 0.950 . S
C300 C301 1.443 . S
C300 N304 1.376 1_565 S
C300 C338 1.389 . S
C301 C300 1.443 . S
C301 C302 1.340 . S
C301 H341 0.951 . S
C302 C301 1.340 . S
C302 C303 1.439 1_565 S
C302 H342 0.950 . S
C303 C302 1.439 1_545 S
C303 N304 1.374 . S
C303 C337 1.395 . S
N304 C300 1.376 1_545 S
N304 C303 1.374 . S
N304 Co305 2.008 . S
Co305 N304 2.008 . S
Co305 N306 1.995 . S
Co305 N311 2.008 . S
Co305 N316 1.995 1_545 S
Co305 N321 2.282 . S
Co305 N327 2.282 1_545 S
N306 Co305 1.995 . S
N306 C307 1.376 . S
N306 C310 1.383 . S
C307 N306 1.376 . S
C307 C308 1.446 . S
C307 C337 1.391 . S
C308 C307 1.446 . S
C308 C309 1.339 . S
C308 H343 0.949 . S
C309 C308 1.339 . S
C309 C310 1.439 . S
C309 H344 0.950 . S
C310 N306 1.383 . S
C310 C309 1.439 . S
C310 C339 1.392 . S
N311 Co305 2.008 . S
N311 C312 1.376 . S
N311 C315 1.374 . S
C312 N311 1.376 . S
C312 C313 1.443 . S
C312 C339 1.389 . S
C313 C312 1.443 . S
C313 C314 1.340 . S
C313 H345 0.951 . S
C314 C313 1.340 . S
C314 C315 1.439 . S
C314 H346 0.950 . S
C315 N311 1.374 . S
C315 C314 1.439 . S
C315 C340 1.395 . S
N316 Co305 1.995 1_565 S
N316 C317 1.376 . S
N316 C320 1.383 . S
C317 N316 1.376 . S
C317 C318 1.446 . S
C317 C340 1.391 1_565 S
C318 C317 1.446 . S
C318 C319 1.339 . S
C318 H347 0.949 . S
C319 C318 1.339 . S
C319 C320 1.439 . S
C319 H348 0.950 . S
C320 N316 1.383 . S
C320 C319 1.439 . S
C320 C338 1.392 . S
N321 Co305 2.282 . S
N321 C324 1.332 . S
N321 C326 1.332 . S
C322 C323 1.386 . S
C322 C325 1.388 . S
C323 C322 1.386 . S
C323 C324 1.382 . S
C323 H349 0.950 . S
C324 N321 1.332 . S
C324 C323 1.382 . S
C324 H335 0.952 . S
C325 C322 1.388 . S
C325 C326 1.382 . S
C325 H350 0.950 . S
C326 N321 1.332 . S
C326 C325 1.382 . S
C326 H336 0.948 . S
N327 Co305 2.282 1_565 S
N327 C331 1.332 . S
N327 C332 1.332 . S
C328 C329 1.388 . S
C328 C332 1.382 . S
C328 H351 0.950 . S
C329 C328 1.388 . S
C329 C330 1.386 . S
C330 C329 1.386 . S
C330 C331 1.382 . S
C330 H352 0.950 . S
C331 N327 1.332 . S
C331 C330 1.382 . S
C331 H333 0.952 . S
C332 N327 1.332 . S
C332 C328 1.382 . S
C332 H334 0.948 . S
H333 C331 0.952 . S
H334 C332 0.948 . S
H335 C324 0.952 . S
H336 C326 0.948 . S
C337 C303 1.395 . S
C337 C307 1.391 . S
C338 C300 1.389 . S
C338 C320 1.392 . S
C339 C310 1.392 . S
C339 C312 1.389 . S
C340 C315 1.395 . S
C340 C317 1.391 1_545 S
H341 C301 0.951 . S
H342 C302 0.950 . S
H343 C308 0.949 . S
H344 C309 0.950 . S
H345 C313 0.951 . S
H346 C314 0.950 . S
H347 C318 0.949 . S
H348 C319 0.950 . S
H349 C323 0.950 . S
H350 C325 0.950 . S
H351 C328 0.950 . S
H352 C330 0.950 . S
C353 C354 1.443 . S
C353 N357 1.376 . S
C353 C391 1.389 . S
C354 C353 1.443 . S
C354 C355 1.340 . S
C354 H394 0.951 . S
C355 C354 1.340 . S
C355 C356 1.439 . S
C355 H395 0.950 . S
C356 C355 1.439 . S
C356 N357 1.374 . S
C356 C390 1.395 . S
N357 C353 1.376 . S
N357 C356 1.374 . S
N357 Co358 2.008 . S
Co358 N357 2.008 . S
Co358 N359 1.995 . S
Co358 N364 2.008 . S
Co358 N369 1.995 . S
Co358 N374 2.282 1_554 S
Co358 N380 2.282 . S
N359 Co358 1.995 . S
N359 C360 1.376 . S
N359 C363 1.383 1_554 S
C360 N359 1.376 . S
C360 C361 1.446 1_554 S
C360 C390 1.391 . S
C361 C360 1.446 1_556 S
C361 C362 1.339 . S
C361 H396 0.949 . S
C362 C361 1.339 . S
C362 C363 1.439 . S
C362 H397 0.950 . S
C363 N359 1.383 1_556 S
C363 C362 1.439 . S
C363 C392 1.392 . S
N364 Co358 2.008 . S
N364 C365 1.376 1_554 S
N364 C368 1.374 . S
C365 N364 1.376 1_556 S
C365 C366 1.443 . S
C365 C392 1.389 . S
C366 C365 1.443 . S
C366 C367 1.340 . S
C366 H398 0.951 . S
C367 C366 1.340 . S
C367 C368 1.439 1_556 S
C367 H399 0.950 . S
C368 N364 1.374 . S
C368 C367 1.439 1_554 S
C368 C393 1.395 . S
N369 Co358 1.995 . S
N369 C370 1.376 . S
N369 C373 1.383 . S
C370 N369 1.376 . S
C370 C371 1.446 . S
C370 C393 1.391 . S
C371 C370 1.446 . S
C371 C372 1.339 . S
C371 H400 0.949 . S
C372 C371 1.339 . S
C372 C373 1.439 . S
C372 H401 0.950 . S
C373 N369 1.383 . S
C373 C372 1.439 . S
C373 C391 1.392 . S
N374 Co358 2.282 1_556 S
N374 C377 1.332 . S
N374 C379 1.332 . S
C375 C376 1.386 . S
C375 C378 1.388 . S
C376 C375 1.386 . S
C376 C377 1.382 . S
C376 H402 0.950 . S
C377 N374 1.332 . S
C377 C376 1.382 . S
C377 H388 0.952 1_556 S
C378 C375 1.388 . S
C378 C379 1.382 . S
C378 H403 0.950 . S
C379 N374 1.332 . S
C379 C378 1.382 . S
C379 H389 0.948 . S
N380 Co358 2.282 . S
N380 C384 1.332 . S
N380 C385 1.332 . S
C381 C382 1.388 . S
C381 C385 1.382 . S
C381 H404 0.950 . S
C382 C381 1.388 . S
C382 C383 1.386 . S
C383 C382 1.386 . S
C383 C384 1.382 . S
C383 H405 0.950 . S
C384 N380 1.332 . S
C384 C383 1.382 . S
C384 H386 0.952 . S
C385 N380 1.332 . S
C385 C381 1.382 . S
C385 H387 0.948 . S
H386 C384 0.952 . S
H387 C385 0.948 . S
H388 C377 0.952 1_554 S
H389 C379 0.948 . S
C390 C356 1.395 . S
C390 C360 1.391 . S
C391 C353 1.389 . S
C391 C373 1.392 . S
C392 C363 1.392 . S
C392 C365 1.389 . S
C393 C368 1.395 . S
C393 C370 1.391 . S
H394 C354 0.951 . S
H395 C355 0.950 . S
H396 C361 0.949 . S
H397 C362 0.950 . S
H398 C366 0.951 . S
H399 C367 0.950 . S
H400 C371 0.949 . S
H401 C372 0.950 . S
H402 C376 0.950 . S
H403 C378 0.950 . S
H404 C381 0.950 . S
H405 C383 0.950 . S
C406 C407 1.349 . S
C406 C408 1.327 . S
C406 H431 0.950 . S
C407 C406 1.349 . S
C407 C423 1.349 . S
C408 C406 1.327 . S
C408 C427 1.429 . S
C408 H432 0.950 . S
C409 C426 1.574 . S
C409 C428 1.368 . S
C409 H433 0.949 . S
H410 C414 0.949 . S
C411 C412 1.349 . S
C411 C413 1.327 . S
C411 H434 0.950 . S
C412 C411 1.349 . S
C412 C424 1.349 . S
C413 C411 1.327 . S
C413 C429 1.429 . S
C413 H435 0.950 . S
C414 H410 0.949 . S
C414 C422 1.574 . S
C414 C430 1.368 . S
H415 C423 0.950 . S
H416 C421 0.950 . S
H417 C422 0.949 . S
H418 C424 0.950 . S
H419 C425 0.950 . S
H420 C426 0.949 . S
C421 H416 0.950 . S
C421 C423 1.327 . S
C421 C427 1.429 . S
C422 C414 1.574 . S
C422 H417 0.949 . S
C422 C428 1.368 . S
C423 C407 1.349 . S
C423 H415 0.950 . S
C423 C421 1.327 . S
C424 C412 1.349 . S
C424 H418 0.950 . S
C424 C425 1.327 . S
C425 H419 0.950 . S
C425 C424 1.327 . S
C425 C429 1.429 . S
C426 C409 1.574 . S
C426 H420 0.949 . S
C426 C430 1.368 . S
C427 C408 1.429 . S
C427 C421 1.429 . S
C427 C428 1.523 . S
C428 C409 1.368 . S
C428 C422 1.368 . S
C428 C427 1.523 . S
C429 C413 1.429 . S
C429 C425 1.429 . S
C429 C430 1.523 . S
C430 C414 1.368 . S
C430 C426 1.368 . S
C430 C429 1.523 . S
H431 C406 0.950 . S
H432 C408 0.950 . S
H433 C409 0.949 . S
H434 C411 0.950 . S
H435 C413 0.950 . S
C436 C437 1.349 . S
C436 C438 1.327 . S
C436 H461 0.950 . S
C437 C436 1.349 . S
C437 C453 1.349 . S
C438 C436 1.327 . S
C438 C457 1.429 . S
C438 H462 0.950 . S
C439 C456 1.574 . S
C439 C458 1.368 . S
C439 H463 0.949 . S
H440 C444 0.949 . S
C441 C442 1.349 . S
C441 C443 1.327 . S
C441 H464 0.950 . S
C442 C441 1.349 . S
C442 C454 1.349 . S
C443 C441 1.327 . S
C443 C459 1.429 . S
C443 H465 0.950 . S
C444 H440 0.949 . S
C444 C452 1.574 . S
C444 C460 1.368 . S
H445 C453 0.950 . S
H446 C451 0.950 . S
H447 C452 0.949 . S
H448 C454 0.950 . S
H449 C455 0.950 . S
H450 C456 0.949 . S
C451 H446 0.950 . S
C451 C453 1.327 . S
C451 C457 1.429 . S
C452 C444 1.574 . S
C452 H447 0.949 . S
C452 C458 1.368 . S
C453 C437 1.349 . S
C453 H445 0.950 . S
C453 C451 1.327 . S
C454 C442 1.349 . S
C454 H448 0.950 . S
C454 C455 1.327 . S
C455 H449 0.950 . S
C455 C454 1.327 . S
C455 C459 1.429 . S
C456 C439 1.574 . S
C456 H450 0.949 . S
C456 C460 1.368 . S
C457 C438 1.429 . S
C457 C451 1.429 . S
C457 C458 1.523 . S
C458 C439 1.368 . S
C458 C452 1.368 . S
C458 C457 1.523 . S
C459 C443 1.429 . S
C459 C455 1.429 . S
C459 C460 1.523 . S
C460 C444 1.368 . S
C460 C456 1.368 . S
C460 C459 1.523 . S
H461 C436 0.950 . S
H462 C438 0.950 . S
H463 C439 0.949 . S
H464 C441 0.950 . S
H465 C443 0.950 . S
C466 C467 1.349 . S
C466 C468 1.327 . S
C466 H491 0.950 . S
C467 C466 1.349 . S
C467 C483 1.349 . S
C468 C466 1.327 . S
C468 C487 1.429 . S
C468 H492 0.950 . S
C469 C486 1.574 . S
C469 C488 1.368 . S
C469 H493 0.949 . S
H470 C474 0.949 . S
C471 C472 1.349 . S
C471 C473 1.327 . S
C471 H494 0.950 . S
C472 C471 1.349 . S
C472 C484 1.349 . S
C473 C471 1.327 . S
C473 C489 1.429 . S
C473 H495 0.950 . S
C474 H470 0.949 . S
C474 C482 1.574 . S
C474 C490 1.368 . S
H475 C483 0.950 . S
H476 C481 0.950 . S
H477 C482 0.949 . S
H478 C484 0.950 . S
H479 C485 0.950 . S
H480 C486 0.949 . S
C481 H476 0.950 . S
C481 C483 1.327 . S
C481 C487 1.429 . S
C482 C474 1.574 . S
C482 H477 0.949 . S
C482 C488 1.368 . S
C483 C467 1.349 . S
C483 H475 0.950 . S
C483 C481 1.327 . S
C484 C472 1.349 . S
C484 H478 0.950 . S
C484 C485 1.327 . S
C485 H479 0.950 . S
C485 C484 1.327 . S
C485 C489 1.429 . S
C486 C469 1.574 . S
C486 H480 0.949 . S
C486 C490 1.368 . S
C487 C468 1.429 . S
C487 C481 1.429 . S
C487 C488 1.523 . S
C488 C469 1.368 . S
C488 C482 1.368 . S
C488 C487 1.523 . S
C489 C473 1.429 . S
C489 C485 1.429 . S
C489 C490 1.523 . S
C490 C474 1.368 . S
C490 C486 1.368 . S
C490 C489 1.523 . S
H491 C466 0.950 . S
H492 C468 0.950 . S
H493 C469 0.949 . S
H494 C471 0.950 . S
H495 C473 0.950 . S
C496 C497 1.349 . S
C496 C498 1.327 . S
C496 H521 0.950 . S
C497 C496 1.349 . S
C497 C513 1.349 . S
C498 C496 1.327 . S
C498 C517 1.429 . S
C498 H522 0.950 . S
C499 C516 1.574 . S
C499 C518 1.368 . S
C499 H523 0.949 . S
H500 C504 0.949 . S
C501 C502 1.349 . S
C501 C503 1.327 . S
C501 H524 0.950 . S
C502 C501 1.349 . S
C502 C514 1.349 . S
C503 C501 1.327 . S
C503 C519 1.429 . S
C503 H525 0.950 . S
C504 H500 0.949 . S
C504 C512 1.574 . S
C504 C520 1.368 . S
H505 C513 0.950 . S
H506 C511 0.950 . S
H507 C512 0.949 . S
H508 C514 0.950 . S
H509 C515 0.950 . S
H510 C516 0.949 . S
C511 H506 0.950 . S
C511 C513 1.327 . S
C511 C517 1.429 . S
C512 C504 1.574 . S
C512 H507 0.949 . S
C512 C518 1.368 . S
C513 C497 1.349 . S
C513 H505 0.950 . S
C513 C511 1.327 . S
C514 C502 1.349 . S
C514 H508 0.950 . S
C514 C515 1.327 . S
C515 H509 0.950 . S
C515 C514 1.327 . S
C515 C519 1.429 . S
C516 C499 1.574 . S
C516 H510 0.949 . S
C516 C520 1.368 . S
C517 C498 1.429 . S
C517 C511 1.429 . S
C517 C518 1.523 . S
C518 C499 1.368 . S
C518 C512 1.368 . S
C518 C517 1.523 . S
C519 C503 1.429 . S
C519 C515 1.429 . S
C519 C520 1.523 . S
C520 C504 1.368 . S
C520 C516 1.368 . S
C520 C519 1.523 . S
H521 C496 0.950 . S
H522 C498 0.950 . S
H523 C499 0.949 . S
H524 C501 0.950 . S
H525 C503 0.950 . S
C526 C527 1.349 . S
C526 C528 1.327 . S
C526 H551 0.950 . S
C527 C526 1.349 . S
C527 C543 1.349 . S
C528 C526 1.327 . S
C528 C547 1.429 . S
C528 H552 0.950 . S
C529 C546 1.574 . S
C529 C548 1.368 . S
C529 H553 0.949 . S
H530 C534 0.949 . S
C531 C532 1.349 . S
C531 C533 1.327 . S
C531 H554 0.950 . S
C532 C531 1.349 . S
C532 C544 1.349 . S
C533 C531 1.327 . S
C533 C549 1.429 . S
C533 H555 0.950 . S
C534 H530 0.949 . S
C534 C542 1.574 . S
C534 C550 1.368 . S
H535 C543 0.950 . S
H536 C541 0.950 . S
H537 C542 0.949 . S
H538 C544 0.950 . S
H539 C545 0.950 . S
H540 C546 0.949 . S
C541 H536 0.950 . S
C541 C543 1.327 . S
C541 C547 1.429 . S
C542 C534 1.574 . S
C542 H537 0.949 . S
C542 C548 1.368 . S
C543 C527 1.349 . S
C543 H535 0.950 . S
C543 C541 1.327 . S
C544 C532 1.349 . S
C544 H538 0.950 . S
C544 C545 1.327 . S
C545 H539 0.950 . S
C545 C544 1.327 . S
C545 C549 1.429 . S
C546 C529 1.574 . S
C546 H540 0.949 . S
C546 C550 1.368 . S
C547 C528 1.429 . S
C547 C541 1.429 . S
C547 C548 1.523 . S
C548 C529 1.368 . S
C548 C542 1.368 . S
C548 C547 1.523 . S
C549 C533 1.429 . S
C549 C545 1.429 . S
C549 C550 1.523 . S
C550 C534 1.368 . S
C550 C546 1.368 . S
C550 C549 1.523 . S
H551 C526 0.950 . S
H552 C528 0.950 . S
H553 C529 0.949 . S
H554 C531 0.950 . S
H555 C533 0.950 . S
C556 C557 1.349 . S
C556 C558 1.327 . S
C556 H581 0.950 . S
C557 C556 1.349 . S
C557 C573 1.349 . S
C558 C556 1.327 . S
C558 C577 1.429 . S
C558 H582 0.950 . S
C559 C576 1.574 . S
C559 C578 1.368 . S
C559 H583 0.949 . S
H560 C564 0.949 . S
C561 C562 1.349 . S
C561 C563 1.327 . S
C561 H584 0.950 . S
C562 C561 1.349 . S
C562 C574 1.349 . S
C563 C561 1.327 . S
C563 C579 1.429 . S
C563 H585 0.950 . S
C564 H560 0.949 . S
C564 C572 1.574 . S
C564 C580 1.368 . S
H565 C573 0.950 . S
H566 C571 0.950 . S
H567 C572 0.949 . S
H568 C574 0.950 . S
H569 C575 0.950 . S
H570 C576 0.949 . S
C571 H566 0.950 . S
C571 C573 1.327 . S
C571 C577 1.429 . S
C572 C564 1.574 . S
C572 H567 0.949 . S
C572 C578 1.368 . S
C573 C557 1.349 . S
C573 H565 0.950 . S
C573 C571 1.327 . S
C574 C562 1.349 . S
C574 H568 0.950 . S
C574 C575 1.327 . S
C575 H569 0.950 . S
C575 C574 1.327 . S
C575 C579 1.429 . S
C576 C559 1.574 . S
C576 H570 0.949 . S
C576 C580 1.368 . S
C577 C558 1.429 . S
C577 C571 1.429 . S
C577 C578 1.523 . S
C578 C559 1.368 . S
C578 C572 1.368 . S
C578 C577 1.523 . S
C579 C563 1.429 . S
C579 C575 1.429 . S
C579 C580 1.523 . S
C580 C564 1.368 . S
C580 C576 1.368 . S
C580 C579 1.523 . S
H581 C556 0.950 . S
H582 C558 0.950 . S
H583 C559 0.949 . S
H584 C561 0.950 . S
H585 C563 0.950 . S
C586 C587 1.349 . S
C586 C588 1.327 . S
C586 H611 0.950 . S
C587 C586 1.349 . S
C587 C603 1.349 . S
C588 C586 1.327 . S
C588 C607 1.429 . S
C588 H612 0.950 . S
C589 C606 1.574 . S
C589 C608 1.368 . S
C589 H613 0.949 . S
H590 C594 0.949 . S
C591 C592 1.349 . S
C591 C593 1.327 . S
C591 H614 0.950 . S
C592 C591 1.349 . S
C592 C604 1.349 . S
C593 C591 1.327 . S
C593 C609 1.429 . S
C593 H615 0.950 . S
C594 H590 0.949 . S
C594 C602 1.574 . S
C594 C610 1.368 . S
H595 C603 0.950 . S
H596 C601 0.950 . S
H597 C602 0.949 . S
H598 C604 0.950 . S
H599 C605 0.950 . S
H600 C606 0.949 . S
C601 H596 0.950 . S
C601 C603 1.327 . S
C601 C607 1.429 . S
C602 C594 1.574 . S
C602 H597 0.949 . S
C602 C608 1.368 . S
C603 C587 1.349 . S
C603 H595 0.950 . S
C603 C601 1.327 . S
C604 C592 1.349 . S
C604 H598 0.950 . S
C604 C605 1.327 . S
C605 H599 0.950 . S
C605 C604 1.327 . S
C605 C609 1.429 . S
C606 C589 1.574 . S
C606 H600 0.949 . S
C606 C610 1.368 . S
C607 C588 1.429 . S
C607 C601 1.429 . S
C607 C608 1.523 . S
C608 C589 1.368 . S
C608 C602 1.368 . S
C608 C607 1.523 . S
C609 C593 1.429 . S
C609 C605 1.429 . S
C609 C610 1.523 . S
C610 C594 1.368 . S
C610 C606 1.368 . S
C610 C609 1.523 . S
H611 C586 0.950 . S
H612 C588 0.950 . S
H613 C589 0.949 . S
H614 C591 0.950 . S
H615 C593 0.950 . S
C616 C617 1.349 . S
C616 C618 1.327 . S
C616 H641 0.950 . S
C617 C616 1.349 . S
C617 C633 1.349 . S
C618 C616 1.327 . S
C618 C637 1.429 . S
C618 H642 0.950 . S
C619 C636 1.574 . S
C619 C638 1.368 . S
C619 H643 0.949 . S
H620 C624 0.949 . S
C621 C622 1.349 . S
C621 C623 1.327 . S
C621 H644 0.950 . S
C622 C621 1.349 . S
C622 C634 1.349 . S
C623 C621 1.327 . S
C623 C639 1.429 . S
C623 H645 0.950 . S
C624 H620 0.949 . S
C624 C632 1.574 . S
C624 C640 1.368 . S
H625 C633 0.950 . S
H626 C631 0.950 . S
H627 C632 0.949 . S
H628 C634 0.950 . S
H629 C635 0.950 . S
H630 C636 0.949 . S
C631 H626 0.950 . S
C631 C633 1.327 . S
C631 C637 1.429 . S
C632 C624 1.574 . S
C632 H627 0.949 . S
C632 C638 1.368 . S
C633 C617 1.349 . S
C633 H625 0.950 . S
C633 C631 1.327 . S
C634 C622 1.349 . S
C634 H628 0.950 . S
C634 C635 1.327 . S
C635 H629 0.950 . S
C635 C634 1.327 . S
C635 C639 1.429 . S
C636 C619 1.574 . S
C636 H630 0.949 . S
C636 C640 1.368 . S
C637 C618 1.429 . S
C637 C631 1.429 . S
C637 C638 1.523 . S
C638 C619 1.368 . S
C638 C632 1.368 . S
C638 C637 1.523 . S
C639 C623 1.429 . S
C639 C635 1.429 . S
C639 C640 1.523 . S
C640 C624 1.368 . S
C640 C636 1.368 . S
C640 C639 1.523 . S
H641 C616 0.950 . S
H642 C618 0.950 . S
H643 C619 0.949 . S
H644 C621 0.950 . S
H645 C623 0.950 . S
C646 C647 1.349 . S
C646 C648 1.327 . S
C646 H671 0.950 . S
C647 C646 1.349 . S
C647 C663 1.349 . S
C648 C646 1.327 . S
C648 C667 1.429 . S
C648 H672 0.950 . S
C649 C666 1.574 . S
C649 C668 1.368 . S
C649 H673 0.949 . S
H650 C654 0.949 . S
C651 C652 1.349 . S
C651 C653 1.327 . S
C651 H674 0.950 . S
C652 C651 1.349 . S
C652 C664 1.349 . S
C653 C651 1.327 . S
C653 C669 1.429 . S
C653 H675 0.950 . S
C654 H650 0.949 . S
C654 C662 1.574 1_545 S
C654 C670 1.372 . S
H655 C663 0.950 . S
H656 C661 0.950 . S
H657 C662 0.949 . S
H658 C664 0.950 . S
H659 C665 0.950 . S
H660 C666 0.949 . S
C661 H656 0.950 . S
C661 C663 1.327 . S
C661 C667 1.429 . S
C662 C654 1.574 1_565 S
C662 H657 0.949 . S
C662 C668 1.368 . S
C663 C647 1.349 . S
C663 H655 0.950 . S
C663 C661 1.327 . S
C664 C652 1.349 . S
C664 H658 0.950 . S
C664 C665 1.327 . S
C665 H659 0.950 . S
C665 C664 1.327 . S
C665 C669 1.429 . S
C666 C649 1.574 . S
C666 H660 0.949 . S
C666 C670 1.343 1_565 S
C667 C648 1.429 . S
C667 C661 1.429 . S
C667 C668 1.523 . S
C668 C649 1.368 . S
C668 C662 1.368 . S
C668 C667 1.523 . S
C669 C653 1.429 . S
C669 C665 1.429 . S
C669 C670 1.553 . S
C670 C654 1.372 . S
C670 C666 1.343 1_545 S
C670 C669 1.553 . S
H671 C646 0.950 . S
H672 C648 0.950 . S
H673 C649 0.949 . S
H674 C651 0.950 . S
H675 C653 0.950 . S
C676 C677 1.349 . S
C676 C678 1.327 . S
C676 H701 0.950 . S
C677 C676 1.349 . S
C677 C693 1.349 . S
C678 C676 1.327 . S
C678 C697 1.429 . S
C678 H702 0.950 . S
C679 C696 1.574 . S
C679 C698 1.368 . S
C679 H703 0.949 . S
H680 C684 0.949 . S
C681 C682 1.349 . S
C681 C683 1.327 . S
C681 H704 0.950 . S
C682 C681 1.349 . S
C682 C694 1.349 . S
C683 C681 1.327 . S
C683 C699 1.429 . S
C683 H705 0.950 . S
C684 H680 0.949 . S
C684 C692 1.574 . S
C684 C700 1.368 . S
H685 C693 0.950 . S
H686 C691 0.950 . S
H687 C692 0.949 . S
H688 C694 0.950 . S
H689 C695 0.950 . S
H690 C696 0.949 . S
C691 H686 0.950 . S
C691 C693 1.327 . S
C691 C697 1.429 . S
C692 C684 1.574 . S
C692 H687 0.949 . S
C692 C698 1.368 . S
C693 C677 1.349 . S
C693 H685 0.950 . S
C693 C691 1.327 . S
C694 C682 1.349 . S
C694 H688 0.950 . S
C694 C695 1.327 . S
C695 H689 0.950 . S
C695 C694 1.327 . S
C695 C699 1.429 . S
C696 C679 1.574 . S
C696 H690 0.949 . S
C696 C700 1.368 . S
C697 C678 1.429 . S
C697 C691 1.429 . S
C697 C698 1.523 . S
C698 C679 1.368 . S
C698 C692 1.368 . S
C698 C697 1.523 . S
C699 C683 1.429 . S
C699 C695 1.429 . S
C699 C700 1.523 . S
C700 C684 1.368 . S
C700 C696 1.368 . S
C700 C699 1.523 . S
H701 C676 0.950 . S
H702 C678 0.950 . S
H703 C679 0.949 . S
H704 C681 0.950 . S
H705 C683 0.950 . S
C706 C707 1.349 . S
C706 C708 1.327 . S
C706 H731 0.950 . S
C707 C706 1.349 . S
C707 C723 1.349 . S
C708 C706 1.327 . S
C708 C727 1.429 . S
C708 H732 0.950 . S
C709 C726 1.574 . S
C709 C728 1.368 . S
C709 H733 0.949 . S
H710 C714 0.949 . S
C711 C712 1.349 . S
C711 C713 1.327 . S
C711 H734 0.950 . S
C712 C711 1.349 . S
C712 C724 1.349 . S
C713 C711 1.327 . S
C713 C729 1.429 . S
C713 H735 0.950 . S
C714 H710 0.949 . S
C714 C722 1.574 . S
C714 C730 1.368 . S
H715 C723 0.950 . S
H716 C721 0.950 . S
H717 C722 0.949 . S
H718 C724 0.950 . S
H719 C725 0.950 . S
H720 C726 0.949 . S
C721 H716 0.950 . S
C721 C723 1.327 . S
C721 C727 1.429 . S
C722 C714 1.574 . S
C722 H717 0.949 . S
C722 C728 1.368 . S
C723 C707 1.349 . S
C723 H715 0.950 . S
C723 C721 1.327 . S
C724 C712 1.349 . S
C724 H718 0.950 . S
C724 C725 1.327 . S
C725 H719 0.950 . S
C725 C724 1.327 . S
C725 C729 1.429 . S
C726 C709 1.574 . S
C726 H720 0.949 . S
C726 C730 1.368 . S
C727 C708 1.429 . S
C727 C721 1.429 . S
C727 C728 1.523 . S
C728 C709 1.368 . S
C728 C722 1.368 . S
C728 C727 1.523 . S
C729 C713 1.429 . S
C729 C725 1.429 . S
C729 C730 1.523 . S
C730 C714 1.368 . S
C730 C726 1.368 . S
C730 C729 1.523 . S
H731 C706 0.950 . S
H732 C708 0.950 . S
H733 C709 0.949 . S
H734 C711 0.950 . S
H735 C713 0.950 . S
C736 C737 1.349 . S
C736 C738 1.327 . S
C736 H761 0.950 . S
C737 C736 1.349 . S
C737 C753 1.349 . S
C738 C736 1.327 . S
C738 C757 1.429 . S
C738 H762 0.950 . S
C739 C756 1.574 . S
C739 C758 1.368 . S
C739 H763 0.949 . S
H740 C744 0.949 . S
C741 C742 1.349 . S
C741 C743 1.327 . S
C741 H764 0.950 . S
C742 C741 1.349 . S
C742 C754 1.349 . S
C743 C741 1.327 . S
C743 C759 1.429 . S
C743 H765 0.950 . S
C744 H740 0.949 . S
C744 C752 1.574 . S
C744 C760 1.368 . S
H745 C753 0.950 . S
H746 C751 0.950 . S
H747 C752 0.949 . S
H748 C754 0.950 . S
H749 C755 0.950 . S
H750 C756 0.949 . S
C751 H746 0.950 . S
C751 C753 1.327 . S
C751 C757 1.429 . S
C752 C744 1.574 . S
C752 H747 0.949 . S
C752 C758 1.368 . S
C753 C737 1.349 . S
C753 H745 0.950 . S
C753 C751 1.327 . S
C754 C742 1.349 . S
C754 H748 0.950 . S
C754 C755 1.327 . S
C755 H749 0.950 . S
C755 C754 1.327 . S
C755 C759 1.429 . S
C756 C739 1.574 . S
C756 H750 0.949 . S
C756 C760 1.368 . S
C757 C738 1.429 . S
C757 C751 1.429 . S
C757 C758 1.523 . S
C758 C739 1.368 . S
C758 C752 1.368 . S
C758 C757 1.523 . S
C759 C743 1.429 . S
C759 C755 1.429 . S
C759 C760 1.523 . S
C760 C744 1.368 . S
C760 C756 1.368 . S
C760 C759 1.523 . S
H761 C736 0.950 . S
H762 C738 0.950 . S
H763 C739 0.949 . S
H764 C741 0.950 . S
H765 C743 0.950 . S
C766 C767 1.349 . S
C766 C768 1.327 . S
C766 H791 0.950 . S
C767 C766 1.349 . S
C767 C783 1.349 . S
C768 C766 1.327 . S
C768 C787 1.429 . S
C768 H792 0.950 . S
C769 C786 1.574 . S
C769 C788 1.368 . S
C769 H793 0.949 . S
H770 C774 0.949 . S
C771 C772 1.349 . S
C771 C773 1.327 . S
C771 H794 0.950 . S
C772 C771 1.349 . S
C772 C784 1.349 . S
C773 C771 1.327 . S
C773 C789 1.429 . S
C773 H795 0.950 . S
C774 H770 0.949 . S
C774 C782 1.574 . S
C774 C790 1.368 . S
H775 C783 0.950 . S
H776 C781 0.950 . S
H777 C782 0.949 . S
H778 C784 0.950 . S
H779 C785 0.950 . S
H780 C786 0.949 . S
C781 H776 0.950 . S
C781 C783 1.327 . S
C781 C787 1.429 . S
C782 C774 1.574 . S
C782 H777 0.949 . S
C782 C788 1.368 . S
C783 C767 1.349 . S
C783 H775 0.950 . S
C783 C781 1.327 . S
C784 C772 1.349 . S
C784 H778 0.950 . S
C784 C785 1.327 . S
C785 H779 0.950 . S
C785 C784 1.327 . S
C785 C789 1.429 . S
C786 C769 1.574 . S
C786 H780 0.949 . S
C786 C790 1.368 . S
C787 C768 1.429 . S
C787 C781 1.429 . S
C787 C788 1.523 . S
C788 C769 1.368 . S
C788 C782 1.368 . S
C788 C787 1.523 . S
C789 C773 1.429 . S
C789 C785 1.429 . S
C789 C790 1.523 . S
C790 C774 1.368 . S
C790 C786 1.368 . S
C790 C789 1.523 . S
H791 C766 0.950 . S
H792 C768 0.950 . S
H793 C769 0.949 . S
H794 C771 0.950 . S
H795 C773 0.950 . S
C796 C797 1.349 . S
C796 C798 1.327 . S
C796 H821 0.950 . S
C797 C796 1.349 . S
C797 C813 1.349 . S
C798 C796 1.327 . S
C798 C817 1.429 . S
C798 H822 0.950 . S
C799 C816 1.574 . S
C799 C818 1.368 . S
C799 H823 0.949 . S
H800 C804 0.949 . S
C801 C802 1.349 . S
C801 C803 1.327 . S
C801 H824 0.950 . S
C802 C801 1.349 . S
C802 C814 1.349 . S
C803 C801 1.327 . S
C803 C819 1.429 . S
C803 H825 0.950 . S
C804 H800 0.949 . S
C804 C812 1.574 . S
C804 C820 1.368 . S
H805 C813 0.950 . S
H806 C811 0.950 . S
H807 C812 0.949 . S
H808 C814 0.950 1_455 S
H809 C815 0.950 . S
H810 C816 0.949 . S
C811 H806 0.950 . S
C811 C813 1.327 . S
C811 C817 1.429 . S
C812 C804 1.574 . S
C812 H807 0.949 . S
C812 C818 1.368 . S
C813 C797 1.349 . S
C813 H805 0.950 . S
C813 C811 1.327 . S
C814 C802 1.349 . S
C814 H808 0.950 1_655 S
C814 C815 1.327 . S
C815 H809 0.950 . S
C815 C814 1.327 . S
C815 C819 1.429 . S
C816 C799 1.574 . S
C816 H810 0.949 . S
C816 C820 1.368 . S
C817 C798 1.429 . S
C817 C811 1.429 . S
C817 C818 1.523 . S
C818 C799 1.368 . S
C818 C812 1.368 . S
C818 C817 1.523 . S
C819 C803 1.429 . S
C819 C815 1.429 . S
C819 C820 1.523 . S
C820 C804 1.368 . S
C820 C816 1.368 . S
C820 C819 1.523 . S
H821 C796 0.950 . S
H822 C798 0.950 . S
H823 C799 0.949 . S
H824 C801 0.950 . S
H825 C803 0.950 . S
C826 C827 1.349 . S
C826 C828 1.327 . S
C826 H851 0.950 . S
C827 C826 1.349 . S
C827 C843 1.349 . S
C828 C826 1.327 . S
C828 C847 1.429 . S
C828 H852 0.950 . S
C829 C846 1.574 . S
C829 C848 1.368 . S
C829 H853 0.949 . S
H830 C834 0.949 . S
C831 C832 1.349 . S
C831 C833 1.327 . S
C831 H854 0.950 . S
C832 C831 1.349 . S
C832 C844 1.349 . S
C833 C831 1.327 . S
C833 C849 1.429 . S
C833 H855 0.950 . S
C834 H830 0.949 . S
C834 C842 1.574 . S
C834 C850 1.368 . S
H835 C843 0.950 . S
H836 C841 0.950 . S
H837 C842 0.949 . S
H838 C844 0.950 . S
H839 C845 0.950 . S
H840 C846 0.949 . S
C841 H836 0.950 . S
C841 C843 1.327 . S
C841 C847 1.429 . S
C842 C834 1.574 . S
C842 H837 0.949 . S
C842 C848 1.368 . S
C843 C827 1.349 . S
C843 H835 0.950 . S
C843 C841 1.327 . S
C844 C832 1.349 . S
C844 H838 0.950 . S
C844 C845 1.327 . S
C845 H839 0.950 . S
C845 C844 1.327 . S
C845 C849 1.429 . S
C846 C829 1.574 . S
C846 H840 0.949 . S
C846 C850 1.368 . S
C847 C828 1.429 . S
C847 C841 1.429 . S
C847 C848 1.523 . S
C848 C829 1.368 . S
C848 C842 1.368 . S
C848 C847 1.523 . S
C849 C833 1.429 . S
C849 C845 1.429 . S
C849 C850 1.523 . S
C850 C834 1.368 . S
C850 C846 1.368 . S
C850 C849 1.523 . S
H851 C826 0.950 . S
H852 C828 0.950 . S
H853 C829 0.949 . S
H854 C831 0.950 . S
H855 C833 0.950 . S
C856 C857 1.349 . S
C856 C858 1.327 . S
C856 H881 0.950 . S
C857 C856 1.349 . S
C857 C873 1.349 . S
C858 C856 1.327 . S
C858 C877 1.429 . S
C858 H882 0.950 . S
C859 C876 1.574 . S
C859 C878 1.368 . S
C859 H883 0.949 . S
H860 C864 0.949 . S
C861 C862 1.349 . S
C861 C863 1.327 . S
C861 H884 0.950 . S
C862 C861 1.349 . S
C862 C874 1.349 . S
C863 C861 1.327 . S
C863 C879 1.429 . S
C863 H885 0.950 . S
C864 H860 0.949 . S
C864 C872 1.574 . S
C864 C880 1.368 . S
H865 C873 0.950 . S
H866 C871 0.950 . S
H867 C872 0.949 . S
H868 C874 0.950 . S
H869 C875 0.950 . S
H870 C876 0.949 . S
C871 H866 0.950 . S
C871 C873 1.327 . S
C871 C877 1.429 . S
C872 C864 1.574 . S
C872 H867 0.949 . S
C872 C878 1.368 . S
C873 C857 1.349 . S
C873 H865 0.950 . S
C873 C871 1.327 . S
C874 C862 1.349 . S
C874 H868 0.950 . S
C874 C875 1.327 . S
C875 H869 0.950 . S
C875 C874 1.327 . S
C875 C879 1.429 . S
C876 C859 1.574 . S
C876 H870 0.949 . S
C876 C880 1.368 . S
C877 C858 1.429 . S
C877 C871 1.429 . S
C877 C878 1.523 . S
C878 C859 1.368 . S
C878 C872 1.368 . S
C878 C877 1.523 . S
C879 C863 1.429 . S
C879 C875 1.429 . S
C879 C880 1.523 . S
C880 C864 1.368 . S
C880 C876 1.368 . S
C880 C879 1.523 . S
H881 C856 0.950 . S
H882 C858 0.950 . S
H883 C859 0.949 . S
H884 C861 0.950 . S
H885 C863 0.950 . S
C886 C887 1.349 . S
C886 C888 1.327 . S
C886 H911 0.950 . S
C887 C886 1.349 . S
C887 C903 1.349 . S
C888 C886 1.327 . S
C888 C907 1.429 . S
C888 H912 0.950 . S
C889 C906 1.574 . S
C889 C908 1.368 . S
C889 H913 0.949 . S
H890 C894 0.949 . S
C891 C892 1.349 . S
C891 C893 1.327 . S
C891 H914 0.950 . S
C892 C891 1.349 . S
C892 C904 1.349 . S
C893 C891 1.327 . S
C893 C909 1.429 . S
C893 H915 0.950 . S
C894 H890 0.949 . S
C894 C902 1.574 . S
C894 C910 1.368 . S
H895 C903 0.950 . S
H896 C901 0.950 . S
H897 C902 0.949 . S
H898 C904 0.950 . S
H899 C905 0.950 . S
H900 C906 0.949 . S
C901 H896 0.950 . S
C901 C903 1.327 . S
C901 C907 1.429 . S
C902 C894 1.574 . S
C902 H897 0.949 . S
C902 C908 1.368 . S
C903 C887 1.349 . S
C903 H895 0.950 . S
C903 C901 1.327 . S
C904 C892 1.349 . S
C904 H898 0.950 . S
C904 C905 1.327 . S
C905 H899 0.950 . S
C905 C904 1.327 . S
C905 C909 1.429 . S
C906 C889 1.574 . S
C906 H900 0.949 . S
C906 C910 1.368 . S
C907 C888 1.429 . S
C907 C901 1.429 . S
C907 C908 1.523 . S
C908 C889 1.368 . S
C908 C902 1.368 . S
C908 C907 1.523 . S
C909 C893 1.429 . S
C909 C905 1.429 . S
C909 C910 1.523 . S
C910 C894 1.368 . S
C910 C906 1.368 . S
C910 C909 1.523 . S
H911 C886 0.950 . S
H912 C888 0.950 . S
H913 C889 0.949 . S
H914 C891 0.950 . S
H915 C893 0.950 . S
C916 C917 1.349 . S
C916 C918 1.327 . S
C916 H941 0.950 . S
C917 C916 1.349 . S
C917 C933 1.349 . S
C918 C916 1.327 . S
C918 C937 1.429 . S
C918 H942 0.950 . S
C919 C936 1.574 . S
C919 C938 1.368 . S
C919 H943 0.949 . S
H920 C924 0.949 . S
C921 C922 1.349 . S
C921 C923 1.327 . S
C921 H944 0.950 . S
C922 C921 1.349 . S
C922 C934 1.349 . S
C923 C921 1.327 . S
C923 C939 1.429 . S
C923 H945 0.950 . S
C924 H920 0.949 . S
C924 C932 1.574 . S
C924 C940 1.368 . S
H925 C933 0.950 . S
H926 C931 0.950 . S
H927 C932 0.949 . S
H928 C934 0.950 . S
H929 C935 0.950 . S
H930 C936 0.949 . S
C931 H926 0.950 . S
C931 C933 1.327 . S
C931 C937 1.429 . S
C932 C924 1.574 . S
C932 H927 0.949 . S
C932 C938 1.368 . S
C933 C917 1.349 . S
C933 H925 0.950 . S
C933 C931 1.327 . S
C934 C922 1.349 . S
C934 H928 0.950 . S
C934 C935 1.327 . S
C935 H929 0.950 . S
C935 C934 1.327 . S
C935 C939 1.429 . S
C936 C919 1.574 . S
C936 H930 0.949 . S
C936 C940 1.368 . S
C937 C918 1.429 . S
C937 C931 1.429 . S
C937 C938 1.523 . S
C938 C919 1.368 . S
C938 C932 1.368 . S
C938 C937 1.523 . S
C939 C923 1.429 . S
C939 C935 1.429 . S
C939 C940 1.523 . S
C940 C924 1.368 . S
C940 C936 1.368 . S
C940 C939 1.523 . S
H941 C916 0.950 . S
H942 C918 0.950 . S
H943 C919 0.949 . S
H944 C921 0.950 . S
H945 C923 0.950 . S
C946 C947 1.349 . S
C946 C948 1.327 . S
C946 H971 0.950 . S
C947 C946 1.349 . S
C947 C963 1.349 . S
C948 C946 1.327 . S
C948 C967 1.429 . S
C948 H972 0.950 . S
C949 C966 1.574 . S
C949 C968 1.368 . S
C949 H973 0.949 . S
H950 C954 0.949 . S
C951 C952 1.349 . S
C951 C953 1.327 . S
C951 H974 0.950 . S
C952 C951 1.349 . S
C952 C964 1.349 . S
C953 C951 1.327 . S
C953 C969 1.429 . S
C953 H975 0.950 . S
C954 H950 0.949 . S
C954 C962 1.574 . S
C954 C970 1.368 . S
H955 C963 0.950 . S
H956 C961 0.950 . S
H957 C962 0.949 . S
H958 C964 0.950 . S
H959 C965 0.950 . S
H960 C966 0.949 . S
C961 H956 0.950 . S
C961 C963 1.327 . S
C961 C967 1.429 . S
C962 C954 1.574 . S
C962 H957 0.949 . S
C962 C968 1.368 . S
C963 C947 1.349 . S
C963 H955 0.950 . S
C963 C961 1.327 . S
C964 C952 1.349 . S
C964 H958 0.950 . S
C964 C965 1.327 . S
C965 H959 0.950 . S
C965 C964 1.327 . S
C965 C969 1.429 . S
C966 C949 1.574 . S
C966 H960 0.949 . S
C966 C970 1.368 . S
C967 C948 1.429 . S
C967 C961 1.429 . S
C967 C968 1.523 . S
C968 C949 1.368 . S
C968 C962 1.368 . S
C968 C967 1.523 . S
C969 C953 1.429 . S
C969 C965 1.429 . S
C969 C970 1.523 . S
C970 C954 1.368 . S
C970 C966 1.368 . S
C970 C969 1.523 . S
H971 C946 0.950 . S
H972 C948 0.950 . S
H973 C949 0.949 . S
H974 C951 0.950 . S
H975 C953 0.950 . S
C976 C977 1.349 . S
C976 C978 1.327 . S
C976 H1001 0.950 . S
C977 C976 1.349 . S
C977 C993 1.349 . S
C978 C976 1.327 . S
C978 C997 1.429 . S
C978 H1002 0.950 . S
C979 C996 1.574 . S
C979 C998 1.368 . S
C979 H1003 0.949 . S
H980 C984 0.949 . S
C981 C982 1.349 . S
C981 C983 1.327 . S
C981 H1004 0.950 . S
C982 C981 1.349 . S
C982 C994 1.349 . S
C983 C981 1.327 . S
C983 C999 1.429 . S
C983 H1005 0.950 . S
C984 H980 0.949 . S
C984 C992 1.574 . S
C984 C1000 1.368 . S
H985 C993 0.950 . S
H986 C991 0.950 . S
H987 C992 0.949 . S
H988 C994 0.950 . S
H989 C995 0.950 . S
H990 C996 0.949 . S
C991 H986 0.950 . S
C991 C993 1.327 . S
C991 C997 1.429 . S
C992 C984 1.574 . S
C992 H987 0.949 . S
C992 C998 1.368 . S
C993 C977 1.349 . S
C993 H985 0.950 . S
C993 C991 1.327 . S
C994 C982 1.349 . S
C994 H988 0.950 . S
C994 C995 1.327 . S
C995 H989 0.950 . S
C995 C994 1.327 . S
C995 C999 1.429 . S
C996 C979 1.574 . S
C996 H990 0.949 . S
C996 C1000 1.368 . S
C997 C978 1.429 . S
C997 C991 1.429 . S
C997 C998 1.523 . S
C998 C979 1.368 . S
C998 C992 1.368 . S
C998 C997 1.523 . S
C999 C983 1.429 . S
C999 C995 1.429 . S
C999 C1000 1.523 . S
C1000 C984 1.368 . S
C1000 C996 1.368 . S
C1000 C999 1.523 . S
H1001 C976 0.950 . S
H1002 C978 0.950 . S
H1003 C979 0.949 . S
H1004 C981 0.950 . S
H1005 C983 0.950 . S
C1006 C1007 1.349 . S
C1006 C1008 1.327 . S
C1006 H1031 0.950 . S
C1007 C1006 1.349 . S
C1007 C1023 1.349 . S
C1008 C1006 1.327 . S
C1008 C1027 1.429 . S
C1008 H1032 0.950 . S
C1009 C1026 1.574 . S
C1009 C1028 1.368 . S
C1009 H1033 0.949 . S
H1010 C1014 0.949 . S
C1011 C1012 1.349 . S
C1011 C1013 1.327 . S
C1011 H1034 0.950 . S
C1012 C1011 1.349 . S
C1012 C1024 1.349 . S
C1013 C1011 1.327 . S
C1013 C1029 1.429 . S
C1013 H1035 0.950 . S
C1014 H1010 0.949 . S
C1014 C1022 1.574 . S
C1014 C1030 1.368 . S
H1015 C1023 0.950 . S
H1016 C1021 0.950 . S
H1017 C1022 0.949 . S
H1018 C1024 0.950 . S
H1019 C1025 0.950 . S
H1020 C1026 0.949 . S
C1021 H1016 0.950 . S
C1021 C1023 1.327 . S
C1021 C1027 1.429 . S
C1022 C1014 1.574 . S
C1022 H1017 0.949 . S
C1022 C1028 1.368 . S
C1023 C1007 1.349 . S
C1023 H1015 0.950 . S
C1023 C1021 1.327 . S
C1024 C1012 1.349 . S
C1024 H1018 0.950 . S
C1024 C1025 1.327 . S
C1025 H1019 0.950 . S
C1025 C1024 1.327 . S
C1025 C1029 1.429 . S
C1026 C1009 1.574 . S
C1026 H1020 0.949 . S
C1026 C1030 1.368 . S
C1027 C1008 1.429 . S
C1027 C1021 1.429 . S
C1027 C1028 1.523 . S
C1028 C1009 1.368 . S
C1028 C1022 1.368 . S
C1028 C1027 1.523 . S
C1029 C1013 1.429 . S
C1029 C1025 1.429 . S
C1029 C1030 1.523 . S
C1030 C1014 1.368 . S
C1030 C1026 1.368 . S
C1030 C1029 1.523 . S
H1031 C1006 0.950 . S
H1032 C1008 0.950 . S
H1033 C1009 0.949 . S
H1034 C1011 0.950 . S
H1035 C1013 0.950 . S
C1036 C1037 1.349 . S
C1036 C1038 1.327 . S
C1036 H1061 0.950 . S
C1037 C1036 1.349 . S
C1037 C1053 1.349 . S
C1038 C1036 1.327 . S
C1038 C1057 1.429 . S
C1038 H1062 0.950 . S
C1039 C1056 1.574 . S
C1039 C1058 1.368 . S
C1039 H1063 0.949 . S
H1040 C1044 0.949 . S
C1041 C1042 1.349 . S
C1041 C1043 1.327 . S
C1041 H1064 0.950 . S
C1042 C1041 1.349 . S
C1042 C1054 1.349 . S
C1043 C1041 1.327 . S
C1043 C1059 1.429 . S
C1043 H1065 0.950 . S
C1044 H1040 0.949 . S
C1044 C1052 1.574 . S
C1044 C1060 1.368 . S
H1045 C1053 0.950 . S
H1046 C1051 0.950 . S
H1047 C1052 0.949 . S
H1048 C1054 0.950 . S
H1049 C1055 0.950 . S
H1050 C1056 0.949 . S
C1051 H1046 0.950 . S
C1051 C1053 1.327 . S
C1051 C1057 1.429 . S
C1052 C1044 1.574 . S
C1052 H1047 0.949 . S
C1052 C1058 1.368 . S
C1053 C1037 1.349 . S
C1053 H1045 0.950 . S
C1053 C1051 1.327 . S
C1054 C1042 1.349 . S
C1054 H1048 0.950 . S
C1054 C1055 1.327 . S
C1055 H1049 0.950 . S
C1055 C1054 1.327 . S
C1055 C1059 1.429 . S
C1056 C1039 1.574 . S
C1056 H1050 0.949 . S
C1056 C1060 1.368 . S
C1057 C1038 1.429 . S
C1057 C1051 1.429 . S
C1057 C1058 1.523 . S
C1058 C1039 1.368 . S
C1058 C1052 1.368 . S
C1058 C1057 1.523 . S
C1059 C1043 1.429 . S
C1059 C1055 1.429 . S
C1059 C1060 1.523 . S
C1060 C1044 1.368 . S
C1060 C1056 1.368 . S
C1060 C1059 1.523 . S
H1061 C1036 0.950 . S
H1062 C1038 0.950 . S
H1063 C1039 0.949 . S
H1064 C1041 0.950 . S
H1065 C1043 0.950 . S
C1066 C1067 1.349 . S
C1066 C1068 1.327 . S
C1066 H1091 0.950 . S
C1067 C1066 1.349 . S
C1067 C1083 1.349 . S
C1068 C1066 1.327 . S
C1068 C1087 1.429 . S
C1068 H1092 0.950 . S
C1069 C1086 1.574 . S
C1069 C1088 1.368 . S
C1069 H1093 0.949 . S
H1070 C1074 0.949 . S
C1071 C1072 1.349 . S
C1071 C1073 1.327 . S
C1071 H1094 0.950 . S
C1072 C1071 1.349 . S
C1072 C1084 1.349 . S
C1073 C1071 1.327 . S
C1073 C1089 1.429 1_545 S
C1073 H1095 0.950 . S
C1074 H1070 0.949 . S
C1074 C1082 1.574 . S
C1074 C1090 1.368 . S
H1075 C1083 0.950 . S
H1076 C1081 0.950 . S
H1077 C1082 0.949 . S
H1078 C1084 0.950 . S
H1079 C1085 0.976 . S
H1080 C1086 0.949 . S
C1081 H1076 0.950 . S
C1081 C1083 1.327 . S
C1081 C1087 1.429 . S
C1082 C1074 1.574 . S
C1082 H1077 0.949 . S
C1082 C1088 1.368 . S
C1083 C1067 1.349 . S
C1083 H1075 0.950 . S
C1083 C1081 1.327 . S
C1084 C1072 1.349 . S
C1084 H1078 0.950 . S
C1084 C1085 1.305 1_545 S
C1085 H1079 0.976 . S
C1085 C1084 1.305 1_565 S
C1085 C1089 1.426 . S
C1086 C1069 1.574 . S
C1086 H1080 0.949 . S
C1086 C1090 1.368 . S
C1087 C1068 1.429 . S
C1087 C1081 1.429 . S
C1087 C1088 1.523 . S
C1088 C1069 1.368 . S
C1088 C1082 1.368 . S
C1088 C1087 1.523 . S
C1089 C1073 1.429 1_565 S
C1089 C1085 1.426 . S
C1089 C1090 1.523 . S
C1090 C1074 1.368 . S
C1090 C1086 1.368 . S
C1090 C1089 1.523 . S
H1091 C1066 0.950 . S
H1092 C1068 0.950 . S
H1093 C1069 0.949 . S
H1094 C1071 0.950 . S
H1095 C1073 0.950 . S
C1096 C1097 1.349 . S
C1096 C1098 1.327 . S
C1096 H1121 0.950 . S
C1097 C1096 1.349 . S
C1097 C1113 1.349 . S
C1098 C1096 1.327 . S
C1098 C1117 1.429 . S
C1098 H1122 0.950 . S
C1099 C1116 1.574 . S
C1099 C1118 1.368 . S
C1099 H1123 0.949 . S
H1100 C1104 0.949 . S
C1101 C1102 1.349 . S
C1101 C1103 1.327 . S
C1101 H1124 0.950 . S
C1102 C1101 1.349 . S
C1102 C1114 1.349 . S
C1103 C1101 1.327 . S
C1103 C1119 1.429 . S
C1103 H1125 0.950 . S
C1104 H1100 0.949 . S
C1104 C1112 1.574 . S
C1104 C1120 1.368 . S
H1105 C1113 0.950 . S
H1106 C1111 0.950 . S
H1107 C1112 0.949 . S
H1108 C1114 0.950 . S
H1109 C1115 0.950 . S
H1110 C1116 0.949 . S
C1111 H1106 0.950 . S
C1111 C1113 1.327 . S
C1111 C1117 1.429 . S
C1112 C1104 1.574 . S
C1112 H1107 0.949 . S
C1112 C1118 1.368 . S
C1113 C1097 1.349 . S
C1113 H1105 0.950 . S
C1113 C1111 1.327 . S
C1114 C1102 1.349 . S
C1114 H1108 0.950 . S
C1114 C1115 1.327 . S
C1115 H1109 0.950 . S
C1115 C1114 1.327 . S
C1115 C1119 1.429 . S
C1116 C1099 1.574 . S
C1116 H1110 0.949 . S
C1116 C1120 1.368 . S
C1117 C1098 1.429 . S
C1117 C1111 1.429 . S
C1117 C1118 1.523 . S
C1118 C1099 1.368 . S
C1118 C1112 1.368 . S
C1118 C1117 1.523 . S
C1119 C1103 1.429 . S
C1119 C1115 1.429 . S
C1119 C1120 1.523 . S
C1120 C1104 1.368 . S
C1120 C1116 1.368 . S
C1120 C1119 1.523 . S
H1121 C1096 0.950 . S
H1122 C1098 0.950 . S
H1123 C1099 0.949 . S
H1124 C1101 0.950 . S
H1125 C1103 0.950 . S
C412 C110 1.548 . S
C407 C5 1.377 . S
C442 C179 1.478 . S
C437 C16 1.253 . S
C472 C117 1.730 . S
C467 C30 1.730 . S
C502 C180 1.620 . S
C497 C40 1.565 . S
C532 C233 1.429 . S
C527 C8 1.430 . S
C562 C269 1.478 . S
C557 C18 1.415 . S
C587 C29 1.747 . S
C592 C329 1.770 . S
C622 C392 1.558 . S
C617 C38 1.312 . S
C652 C232 1.380 . S
C647 C19 1.368 . S
C677 C27 1.491 . S
C682 C276 1.648 . S
C712 C322 1.598 . S
C707 C41 1.575 . S
C742 C391 1.535 . S
C737 C7 1.488 . S
C767 C52 1.546 . S
C772 C170 1.573 . S
C802 C127 1.609 1_655 S
C797 C62 1.572 . S
C827 C74 1.352 . S
C832 C163 1.360 . S
C857 C82 1.206 . S
C862 C126 1.397 . S
C892 C338 1.839 . S
C887 C51 1.744 . S
C922 C382 1.609 . S
C917 C60 1.369 . S
C952 C216 1.485 . S
C947 C71 1.260 . S
C977 C84 1.433 . S
C982 C285 1.485 . S
C1012 C339 1.716 . S
C1007 C63 1.709 . S
C1042 C375 1.480 . S
C1037 C73 1.434 . S
C1072 C223 1.524 . S
C1067 C85 1.531 . S
C1097 C49 1.389 . S
C1102 C286 1.675 . S
