# Generated by pormake.
# Topology anh, (6,3)-cn, num edge types: 1
# Building blocks:
#     Node 0, Type 0, BuildingBlock: HISSIN_clean_sbu_0, # of connection points: 6
#     Node 1, Type 0, BuildingBlock: HISSIN_clean_sbu_0, # of connection points: 6
#     Node 2, Type 0, BuildingBlock: HISSIN_clean_sbu_0, # of connection points: 6
#     Node 3, Type 1, BuildingBlock: WUSLED_clean_sbu_0, # of connection points: 3
#     Node 4, Type 1, BuildingBlock: WUSLED_clean_sbu_0, # of connection points: 3
#     Node 5, Type 1, BuildingBlock: WUSLED_clean_sbu_0, # of connection points: 3
#     Node 6, Type 1, BuildingBlock: WUSLED_clean_sbu_0, # of connection points: 3
#     Node 7, Type 1, BuildingBlock: WUSLED_clean_sbu_0, # of connection points: 3
#     Node 8, Type 1, BuildingBlock: WUSLED_clean_sbu_0, # of connection points: 3
#     Edge 9, Type (0, 1), BuildingBlock: TEMPAE_clean_linker_10, # of connection points: 2
#     Edge 10, Type (0, 1), BuildingBlock: TEMPAE_clean_linker_10, # of connection points: 2
#     Edge 11, Type (0, 1), BuildingBlock: TEMPAE_clean_linker_10, # of connection points: 2
#     Edge 12, Type (0, 1), BuildingBlock: TEMPAE_clean_linker_10, # of connection points: 2
#     Edge 13, Type (0, 1), BuildingBlock: TEMPAE_clean_linker_10, # of connection points: 2
#     Edge 14, Type (0, 1), BuildingBlock: TEMPAE_clean_linker_10, # of connection points: 2
#     Edge 15, Type (0, 1), BuildingBlock: TEMPAE_clean_linker_10, # of connection points: 2
#     Edge 16, Type (0, 1), BuildingBlock: TEMPAE_clean_linker_10, # of connection points: 2
#     Edge 17, Type (0, 1), BuildingBlock: TEMPAE_clean_linker_10, # of connection points: 2
#     Edge 18, Type (0, 1), BuildingBlock: TEMPAE_clean_linker_10, # of connection points: 2
#     Edge 19, Type (0, 1), BuildingBlock: TEMPAE_clean_linker_10, # of connection points: 2
#     Edge 20, Type (0, 1), BuildingBlock: TEMPAE_clean_linker_10, # of connection points: 2
#     Edge 21, Type (0, 1), BuildingBlock: TEMPAE_clean_linker_10, # of connection points: 2
#     Edge 22, Type (0, 1), BuildingBlock: TEMPAE_clean_linker_10, # of connection points: 2
#     Edge 23, Type (0, 1), BuildingBlock: TEMPAE_clean_linker_10, # of connection points: 2
#     Edge 24, Type (0, 1), BuildingBlock: TEMPAE_clean_linker_10, # of connection points: 2
#     Edge 25, Type (0, 1), BuildingBlock: TEMPAE_clean_linker_10, # of connection points: 2
#     Edge 26, Type (0, 1), BuildingBlock: TEMPAE_clean_linker_10, # of connection points: 2
# Relax obj value: 0.216
# Max RMSD: 0.182
# Mean RMSD: 0.147
data_MOF--net-anh--node1-HISSIN_clean_sbu_0--node2-WUSLED_clean_sbu_0--edge1-TEMPAE_clean_linker_10
_symmetry_space_group_name_H-M    P1
_symmetry_Int_Tables_number       1
_symmetry_cell_setting            triclinic
loop_
_symmetry_equiv_pos_as_xyz
'x, y, z'
_cell_length_a     41.426144
_cell_length_b     41.352307
_cell_length_c     71.432618
_cell_angle_alpha  92.615774
_cell_angle_beta   90.460896
_cell_angle_gamma 119.99044
loop_
_atom_site_label
_atom_site_type_symbol
_atom_site_fract_x
_atom_site_fract_y
_atom_site_fract_z
_atom_type_partial_charge
Eu0 Eu 1.03528 0.49725 0.16642 0.0
Eu1 Eu 0.06821 0.57884 0.17004 0.0
C2 C 0.05152 0.53589 0.2083 0.0
C3 C 0.96441 0.40112 0.16332 0.0
C4 C 0.94836 0.41158 0.1779 0.0
C5 C 0.90346 0.35609 0.15055 0.0
C6 C 0.91015 0.39426 0.17887 0.0
C7 C 0.94197 0.37349 0.14958 0.0
C8 C 0.88778 0.36655 0.16524 0.0
C9 C 1.003 0.42607 0.15986 0.0
O10 O 0.12105 0.57253 0.16253 0.0
O11 O 0.09706 0.51276 0.17059 0.0
C12 C 0.12639 0.54374 0.16545 0.0
O13 O 0.06307 0.51957 0.13939 0.0
O14 O 0.09073 0.63407 0.18414 0.0
O15 O 0.08407 0.62696 0.1538 0.0
O16 O 1.04158 0.5588 0.14132 0.0
C17 C 0.05319 0.54047 0.13094 0.0
O18 O 0.98223 0.50456 0.16083 0.0
O19 O 1.00648 0.56325 0.17387 0.0
O20 O 0.07458 0.5666 0.2002 0.0
O21 O 1.007 0.44892 0.14696 0.0
O22 O 1.02438 0.44286 0.17481 0.0
O23 O 1.02823 0.5061 0.19774 0.0
C24 C 0.13883 0.67662 0.16577 0.0
C25 C 0.14963 0.69407 0.14872 0.0
C26 C 0.20327 0.70189 0.1753 0.0
C27 C 0.18715 0.71593 0.14513 0.0
C28 C 0.16585 0.67989 0.17886 0.0
C29 C 0.21391 0.72079 0.15869 0.0
C30 C 0.09971 0.6503 0.16823 0.0
C31 C 0.97699 0.53303 0.16622 0.0
H32 H 0.96528 0.43417 0.18815 0.0
H33 H 0.88595 0.33416 0.14014 0.0
H34 H 0.89797 0.40216 0.19031 0.0
H35 H 0.95419 0.36648 0.13784 0.0
H36 H 0.12901 0.69075 0.13821 0.0
H37 H 0.22394 0.706 0.18598 0.0
H38 H 0.19523 0.7309 0.13238 0.0
H39 H 0.15823 0.66574 0.19186 0.0
Eu40 Eu 0.60548 1.02635 0.50237 0.0
Eu41 Eu 0.55522 0.05833 0.50273 0.0
C42 C 0.58248 0.04615 0.54311 0.0
C43 C 0.62655 0.95112 0.49685 0.0
C44 C 0.62024 0.92979 0.5125 0.0
C45 C 0.59222 0.89461 0.47694 0.0
C46 C 0.60007 0.89119 0.5104 0.0
C47 C 0.61247 0.93327 0.47902 0.0
C48 C 0.5864 0.87343 0.49257 0.0
C49 C 0.64224 0.99134 0.49963 0.0
O50 O 0.61593 0.11289 0.50032 0.0
O51 O 0.65323 0.08722 0.50134 0.0
C52 C 0.65036 0.11732 0.49972 0.0
O53 O 0.60963 0.05042 0.47444 0.0
O54 O 0.52025 0.0791 0.51444 0.0
O55 O 0.52785 0.07838 0.48444 0.0
O56 O 0.54875 1.02938 0.47428 0.0
C57 C 0.57873 0.03923 0.46497 0.0
O58 O 0.54471 0.97222 0.49631 0.0
O59 O 0.50828 0.99702 0.50406 0.0
O60 O 0.55761 0.05078 0.53397 0.0
O61 O 0.6367 1.00724 0.48563 0.0
O62 O 0.63565 1.00271 0.51573 0.0
O63 O 0.60668 0.04063 0.53378 0.0
C64 C 0.53297 0.13194 0.49831 0.0
C65 C 0.52776 0.14713 0.48219 0.0
C66 C 0.58016 0.1933 0.51029 0.0
C67 C 0.54868 0.18543 0.48016 0.0
C68 C 0.55943 0.15524 0.51232 0.0
C69 C 0.57464 0.20852 0.49431 0.0
C70 C 0.51753 0.09186 0.49848 0.0
C71 C 0.51042 0.9671 0.49897 0.0
H72 H 0.63056 0.94294 0.52639 0.0
H73 H 0.5824 0.88119 0.46306 0.0
H74 H 0.59687 0.87525 0.52257 0.0
H75 H 0.61669 0.94905 0.46669 0.0
H76 H 0.50839 0.12923 0.47098 0.0
H77 H 0.60022 0.21099 0.52132 0.0
H78 H 0.54404 0.1971 0.46784 0.0
H79 H 0.56499 0.1441 0.52459 0.0
Eu80 Eu 0.52821 0.52797 0.83529 0.0
Eu81 Eu 0.61045 0.57189 0.84066 0.0
C82 C 0.56132 0.54947 0.87755 0.0
C83 C 0.4337 0.50424 0.82699 0.0
C84 C 0.44395 0.53735 0.83782 0.0
C85 C 0.38643 0.51065 0.8105 0.0
C86 C 0.42557 0.55692 0.83505 0.0
C87 C 0.40545 0.49127 0.81304 0.0
C88 C 0.39649 0.54331 0.8216 0.0
C89 C 0.45752 0.48815 0.82815 0.0
O90 O 0.60602 0.51358 0.83369 0.0
O91 O 0.5429 0.47981 0.83451 0.0
C92 C 0.57501 0.48027 0.83274 0.0
O93 O 0.55111 0.55117 0.80737 0.0
O94 O 0.66031 0.59153 0.85826 0.0
O95 O 0.66269 0.61931 0.8328 0.0
O96 O 0.60423 0.54964 0.81096 0.0
C97 C 0.57941 0.55031 0.79999 0.0
O98 O 0.53337 0.58726 0.83458 0.0
O99 O 0.59652 0.61949 0.83507 0.0
O100 O 0.59191 0.55417 0.87006 0.0
O101 O 0.48181 0.49855 0.81506 0.0
O102 O 0.47233 0.49103 0.84477 0.0
O103 O 0.53366 0.54491 0.86658 0.0
C104 C 0.70816 0.60298 0.8384 0.0
C105 C 0.70915 0.59564 0.81902 0.0
C106 C 0.74557 0.57497 0.84482 0.0
C107 C 0.72857 0.57833 0.81262 0.0
C108 C 0.72677 0.59284 0.85121 0.0
C109 C 0.74665 0.56785 0.82552 0.0
C110 C 0.68144 0.61306 0.84547 0.0
C111 C 0.56472 0.61986 0.8335 0.0
H112 H 0.4663 0.54826 0.84842 0.0
H113 H 0.36317 0.49959 0.80043 0.0
H114 H 0.43268 0.58156 0.84407 0.0
H115 H 0.39826 0.46643 0.80421 0.0
H116 H 0.69437 0.6025 0.8088 0.0
H117 H 0.76062 0.56811 0.8549 0.0
H118 H 0.73025 0.57387 0.79768 0.0
H119 H 0.72572 0.59766 0.86619 0.0
C120 C 0.57183 0.11312 0.20207 0.0
C121 C 0.59945 0.14015 0.21445 0.0
C122 C 0.63264 0.17462 0.18812 0.0
C123 C 0.62974 0.17082 0.2075 0.0
C124 C 0.6054 0.14713 0.17566 0.0
C125 C 0.57476 0.11632 0.18268 0.0
U126 U 0.52676 0.06497 0.24467 0.0
O127 O 0.46773 0.0365 0.25205 0.0
O128 O 0.49826 1.00564 0.25072 0.0
C129 C 0.46561 1.00367 0.25011 0.0
C130 C 0.5401 0.08207 0.20983 0.0
C131 C 0.44239 0.97995 0.23418 0.0
C132 C 0.439 0.9712 0.20024 0.0
C133 C 0.45102 0.99467 0.21637 0.0
C134 C 0.4059 0.91811 0.21948 0.0
C135 C 0.41746 0.93262 0.20171 0.0
C136 C 0.41882 0.94168 0.2357 0.0
C137 C 0.57406 0.09918 0.29149 0.0
C138 C 0.53946 0.06445 0.31774 0.0
C139 C 0.60668 0.1047 0.32075 0.0
C140 C 0.60731 0.11461 0.30228 0.0
C141 C 0.57274 0.07947 0.32852 0.0
C142 C 0.54015 0.07401 0.29926 0.0
C143 C 0.57492 0.10563 0.27157 0.0
O144 O 0.54794 0.05846 0.21755 0.0
O145 O 0.5204 0.09211 0.2204 0.0
O146 O 0.54915 0.11268 0.26539 0.0
O147 O 0.57812 0.0807 0.26093 0.0
H148 H 0.59743 0.13751 0.22949 0.0
H149 H 0.65114 0.19135 0.21726 0.0
H150 H 0.60775 0.14972 0.16064 0.0
H151 H 0.55348 0.09523 0.17309 0.0
H152 H 0.44787 0.98307 0.18674 0.0
H153 H 0.46913 1.0242 0.21495 0.0
H154 H 0.38785 0.88838 0.22087 0.0
H155 H 0.41206 0.9299 0.24932 0.0
H156 H 0.51309 0.04472 0.32348 0.0
H157 H 0.63258 0.1167 0.32897 0.0
H158 H 0.63371 0.13361 0.29631 0.0
H159 H 0.51434 0.06114 0.2909 0.0
C160 C 0.61881 0.60341 0.53341 0.0
C161 C 0.61686 0.62978 0.54559 0.0
C162 C 0.61382 0.6619 0.51896 0.0
C163 C 0.6143 0.65888 0.5384 0.0
C164 C 0.61703 0.63613 0.50676 0.0
C165 C 0.61949 0.60675 0.51402 0.0
U166 U 0.61148 0.55278 0.57596 0.0
O167 O 0.58072 0.49268 0.5808 0.0
O168 O 0.64182 0.52474 0.58469 0.0
C169 C 0.61199 0.49168 0.58142 0.0
C170 C 0.61731 0.57125 0.54124 0.0
C171 C 0.6161 0.47077 0.56556 0.0
C172 C 0.62129 0.46681 0.53183 0.0
C173 C 0.61109 0.48003 0.54751 0.0
C174 C 0.63992 0.43282 0.55194 0.0
C175 C 0.63592 0.44318 0.53387 0.0
C176 C 0.63049 0.44701 0.56778 0.0
C177 C 0.60581 0.58967 0.62305 0.0
C178 C 0.60029 0.55046 0.64837 0.0
C179 C 0.61102 0.61321 0.65517 0.0
C180 C 0.61115 0.61844 0.636 0.0
C181 C 0.60558 0.57914 0.66149 0.0
C182 C 0.60047 0.55573 0.62929 0.0
C183 C 0.60782 0.5951 0.60303 0.0
O184 O 0.64632 0.5792 0.55214 0.0
O185 O 0.58513 0.54905 0.54862 0.0
O186 O 0.57826 0.56997 0.59307 0.0
O187 O 0.63953 0.60137 0.59599 0.0
H188 H 0.61599 0.62702 0.56063 0.0
H189 H 0.6111 0.67808 0.548 0.0
H190 H 0.61678 0.63831 0.49171 0.0
H191 H 0.62091 0.58626 0.50459 0.0
H192 H 0.61768 0.47505 0.51814 0.0
H193 H 0.60006 0.49835 0.54552 0.0
H194 H 0.64994 0.41346 0.55384 0.0
H195 H 0.6349 0.43995 0.58162 0.0
H196 H 0.59649 0.52414 0.65286 0.0
H197 H 0.61478 0.6356 0.66505 0.0
H198 H 0.61559 0.64487 0.63129 0.0
H199 H 0.59683 0.53345 0.61935 0.0
C200 C 1.03935 0.57372 0.8648 0.0
C201 C 1.00755 0.56233 0.87538 0.0
C202 C 0.97835 0.57594 0.85005 0.0
C203 C 0.9771 0.56313 0.868 0.0
C204 C 1.0104 0.58773 0.83948 0.0
C205 C 1.04101 0.58662 0.84689 0.0
U206 U 0.0835 0.56866 0.90848 0.0
O207 O 0.11184 0.53732 0.91488 0.0
O208 O 0.14123 0.59855 0.91968 0.0
C209 C 0.14418 0.56846 0.91708 0.0
C210 C 0.0709 0.57338 0.87323 0.0
C211 C 0.17036 0.57264 0.90272 0.0
C212 C 0.18694 0.58685 0.8705 0.0
C213 C 0.16112 0.57663 0.88436 0.0
C214 C 0.23107 0.58633 0.89289 0.0
C215 C 0.22239 0.59252 0.87472 0.0
C216 C 0.20517 0.57681 0.90696 0.0
C217 C 1.04187 0.56566 0.95388 0.0
C218 C 0.0782 0.56482 0.98036 0.0
C219 C 1.01947 0.56332 0.98513 0.0
C220 C 1.015 0.56474 0.96587 0.0
C221 C 0.05099 0.5631 0.99242 0.0
C222 C 0.07358 0.56594 0.96117 0.0
C223 C 1.03776 0.5666 0.93374 0.0
O224 O 0.09179 0.60295 0.88444 0.0
O225 O 0.0623 0.54152 0.88053 0.0
O226 O 1.03288 0.5364 0.92421 0.0
O227 O 0.0632 0.59794 0.92694 0.0
H228 H 1.00625 0.55266 0.88936 0.0
H229 H 0.95238 0.55323 0.87623 0.0
H230 H 1.01173 0.59785 0.82562 0.0
H231 H 0.0658 0.5959 0.83878 0.0
H232 H 0.17943 0.59112 0.85664 0.0
H233 H 0.13426 0.57324 0.8809 0.0
H234 H 0.25793 0.58912 0.89624 0.0
H235 H 0.2125 0.57352 0.92105 0.0
H236 H 0.10252 0.5644 0.98574 0.0
H237 H 0.99838 0.56232 0.99434 0.0
H238 H 0.99062 0.56487 0.96035 0.0
H239 H 0.09459 0.56675 0.95195 0.0
C240 C 0.98032 0.44317 0.47054 0.0
C241 C 0.94675 0.43261 0.4601 0.0
C242 C 0.90798 0.37197 0.47628 0.0
C243 C 0.9121 0.39833 0.46277 0.0
C244 C 0.94194 0.38296 0.48661 0.0
C245 C 0.97643 0.41697 0.48386 0.0
U246 U 0.07481 0.53899 0.45182 0.0
O247 O 0.1049 0.59747 0.46527 0.0
O248 O 0.13343 0.56571 0.46429 0.0
C249 C 0.13633 0.59815 0.46929 0.0
C250 C 1.01816 0.48159 0.46946 0.0
C251 C 0.17525 0.63581 0.47023 0.0
C252 C 0.23868 0.67614 0.48607 0.0
C253 C 0.20378 0.64156 0.48342 0.0
C254 C 0.21957 0.70242 0.46237 0.0
C255 C 0.24842 0.70838 0.47571 0.0
C256 C 0.18436 0.66767 0.45982 0.0
C257 C 0.06806 0.53639 0.39361 0.0
C258 C 0.0767 0.56917 0.36458 0.0
C259 C 0.05245 0.5026 0.36267 0.0
C260 C 0.05515 0.50304 0.38244 0.0
C261 C 0.06334 0.5357 0.35318 0.0
C262 C 0.07862 0.5694 0.38436 0.0
C263 C 0.0703 0.53676 0.41472 0.0
O264 O 1.04931 0.48279 0.46458 0.0
O265 O 1.0188 0.51258 0.46519 0.0
O266 O 0.05768 0.5542 0.42559 0.0
O267 O 0.08538 0.52038 0.42384 0.0
H268 H 0.947 0.45112 0.44979 0.0
H269 H 0.88822 0.39312 0.45419 0.0
H270 H 0.9425 0.36528 0.49713 0.0
H271 H 1.00048 0.42308 0.49262 0.0
H272 H 0.25792 0.677 0.49662 0.0
H273 H 0.19888 0.61897 0.4922 0.0
H274 H 0.22365 0.72482 0.45372 0.0
H275 H 0.16403 0.66598 0.44962 0.0
H276 H 0.08632 0.59563 0.35829 0.0
H277 H 1.04119 0.4759 0.3549 0.0
H278 H 1.04645 0.47699 0.38904 0.0
H279 H 0.08899 0.5957 0.39246 0.0
C280 C 0.57273 0.95298 0.80452 0.0
C281 C 0.54987 0.91956 0.79328 0.0
C282 C 0.57104 0.88011 0.81017 0.0
C283 C 0.54924 0.88469 0.79591 0.0
C284 C 0.59383 0.91392 0.82131 0.0
C285 C 0.59457 0.94863 0.8186 0.0
U286 U 0.57316 0.04905 0.78617 0.0
O287 O 0.54189 0.07617 0.79864 0.0
O288 O 0.60213 0.10732 0.79986 0.0
C289 C 0.57165 0.10833 0.80386 0.0
C290 C 0.57203 0.99088 0.80353 0.0
C291 C 0.57098 0.14633 0.80488 0.0
C292 C 0.55444 0.19013 0.82249 0.0
C293 C 0.55435 0.15528 0.82016 0.0
C294 C 0.58868 0.21054 0.79458 0.0
C295 C 0.57178 0.21926 0.80988 0.0
C296 C 0.58818 0.1753 0.79211 0.0
C297 C 0.57725 0.04788 0.72805 0.0
C298 C 0.55972 0.0619 0.69779 0.0
C299 C 0.59832 1.03352 0.69835 0.0
C300 C 0.59745 0.03399 0.71815 0.0
C301 C 0.57963 0.04765 0.68774 0.0
C302 C 0.55827 0.06166 0.71755 0.0
C303 C 0.57605 0.04809 0.74914 0.0
O304 O 0.60238 1.0229 0.80077 0.0
O305 O 0.54232 0.9915 0.79734 0.0
O306 O 0.54458 0.03399 0.75801 0.0
O307 O 0.6061 0.06268 0.76022 0.0
H308 H 0.53187 0.92008 0.78238 0.0
H309 H 0.53071 0.86099 0.78667 0.0
H310 H 0.61169 0.91416 0.83247 0.0
H311 H 0.6123 0.97248 0.82803 0.0
H312 H 0.54133 0.19456 0.83463 0.0
H313 H 0.54131 0.1351 0.83074 0.0
H314 H 0.60227 0.2311 0.78424 0.0
H315 H 0.60161 0.17092 0.78012 0.0
H316 H 0.54467 0.07279 0.69034 0.0
H317 H 0.61422 1.02255 0.69136 0.0
H318 H 0.61237 1.0231 0.72573 0.0
H319 H 0.54251 0.07268 0.72467 0.0
C320 C 0.64716 0.53688 0.13856 0.0
C321 C 0.67695 0.55349 0.12598 0.0
C322 C 0.71964 0.53684 0.14384 0.0
C323 C 0.71165 0.55329 0.12846 0.0
C324 C 0.68946 0.52051 0.15634 0.0
C325 C 0.65494 0.52054 0.15378 0.0
U326 U 0.55184 0.54009 0.11978 0.0
O327 O 0.49374 0.5101 0.13073 0.0
O328 O 0.52543 0.5704 0.1343 0.0
C329 C 0.4931 0.54027 0.13689 0.0
C330 C 0.60946 0.53789 0.13745 0.0
C331 C 0.45545 0.54142 0.1376 0.0
C332 C 0.41592 0.56365 0.1542 0.0
C333 C 0.45048 0.56381 0.15169 0.0
C334 C 0.38805 0.51855 0.12851 0.0
C335 C 0.3829 0.54102 0.14277 0.0
C336 C 0.42279 0.51855 0.12611 0.0
C337 C 0.55381 0.54363 0.06188 0.0
C338 C 0.52237 0.53699 0.0315 0.0
C339 C 0.58708 0.55353 0.03252 0.0
C340 C 0.5865 0.55269 0.05226 0.0
C341 C 0.55503 0.54579 0.02165 0.0
C342 C 0.52175 0.5357 0.05122 0.0
C343 C 0.55312 0.54235 0.08286 0.0
O344 O 0.60906 0.56862 0.13381 0.0
O345 O 0.57751 0.50821 0.13193 0.0
O346 O 0.53636 0.51086 0.09142 0.0
O347 O 0.56914 0.57264 0.09415 0.0
H348 H 0.67361 0.56697 0.11407 0.0
H349 H 0.73236 0.56655 0.11806 0.0
H350 H 0.69197 0.5074 0.16855 0.0
H351 H 0.634 0.50777 0.1642 0.0
H352 H 0.41567 0.58163 0.16555 0.0
H353 H 0.47367 0.5815 0.16133 0.0
H354 H 0.36505 0.50025 0.11898 0.0
H355 H 0.42381 0.50013 0.11517 0.0
H356 H 0.49716 0.53153 0.02403 0.0
H357 H 0.61271 0.55974 0.0258 0.0
H358 H 0.61165 0.55873 0.06003 0.0
H359 H 0.49614 0.52883 0.05818 0.0
C360 C 0.17288 0.51865 0.1704 0.0
C361 C 0.16453 0.54444 0.16217 0.0
C362 C 0.2068 0.5175 0.16729 0.0
C363 C 0.23475 0.54207 0.15506 0.0
C364 C 0.22615 0.56768 0.14638 0.0
C365 C 0.19234 0.56888 0.15012 0.0
C366 C 0.21286 0.48974 0.17747 0.0
C367 C 0.25274 0.59384 0.13267 0.0
C368 C 0.3403 0.56428 0.15986 0.0
C369 C 0.34448 0.541 0.14582 0.0
C370 C 0.30596 0.56471 0.16288 0.0
C371 C 0.27259 0.54154 0.15175 0.0
C372 C 0.27618 0.51785 0.1376 0.0
C373 C 0.31089 0.5178 0.13492 0.0
C374 C 0.30542 0.59037 0.17839 0.0
C375 C 0.24281 0.49194 0.12508 0.0
H376 H 0.15268 0.49909 0.17966 0.0
H377 H 0.18734 0.58874 0.14312 0.0
H378 H 0.21898 0.47249 0.16737 0.0
H379 H 0.23742 0.50496 0.18728 0.0
H380 H 0.18831 0.47089 0.18556 0.0
H381 H 0.24263 0.61156 0.12658 0.0
H382 H 0.28041 0.61224 0.13972 0.0
H383 H 0.25675 0.57747 0.1211 0.0
H384 H 0.36409 0.58283 0.16889 0.0
H385 H 0.31122 0.499 0.12401 0.0
H386 H 0.28418 0.57368 0.1886 0.0
H387 H 0.29729 0.6098 0.17256 0.0
H388 H 0.33287 0.60705 0.18596 0.0
H389 H 0.22059 0.47088 0.13359 0.0
H390 H 0.2497 0.47701 0.11391 0.0
H391 H 0.23125 0.5079 0.11843 0.0
C392 C 0.69389 0.19161 0.50248 0.0
C393 C 0.68704 0.15559 0.49609 0.0
C394 C 0.72877 0.22589 0.49976 0.0
C395 C 0.75879 0.22626 0.48959 0.0
C396 C 0.7515 0.19002 0.48273 0.0
C397 C 0.71713 0.1562 0.48629 0.0
C398 C 0.73366 0.2622 0.50815 0.0
C399 C 0.78035 0.18665 0.47143 0.0
C400 C 0.83704 0.32021 0.46765 0.0
C401 C 0.86955 0.33432 0.47965 0.0
C402 C 0.80212 0.28631 0.47062 0.0
C403 C 0.79712 0.26371 0.48619 0.0
C404 C 0.82967 0.27732 0.49826 0.0
C405 C 0.86424 0.31135 0.49501 0.0
C406 C 0.77017 0.27427 0.45666 0.0
C407 C 0.82797 0.25595 0.51511 0.0
H408 H 0.67221 0.19312 0.51017 0.0
H409 H 0.71363 0.12963 0.48099 0.0
H410 H 0.76024 0.2774 0.51657 0.0
H411 H 0.73529 0.28028 0.49677 0.0
H412 H 0.71035 0.25787 0.51723 0.0
H413 H 0.76934 0.15811 0.46477 0.0
H414 H 0.79042 0.20706 0.4603 0.0
H415 H 0.80474 0.1932 0.48068 0.0
H416 H 0.83857 0.33548 0.4555 0.0
H417 H 0.88721 0.31991 0.50497 0.0
H418 H 0.74595 0.27302 0.46383 0.0
H419 H 0.76122 0.24571 0.45061 0.0
H420 H 0.77759 0.29351 0.44507 0.0
H421 H 0.80828 0.25717 0.52517 0.0
H422 H 0.85565 0.2673 0.52237 0.0
H423 H 0.81722 0.22605 0.51092 0.0
C424 C 0.59459 0.68775 0.82096 0.0
C425 C 0.56498 0.65768 0.82999 0.0
C426 C 0.59543 0.72238 0.81729 0.0
C427 C 0.56674 0.72995 0.82329 0.0
C428 C 0.53702 0.69992 0.83267 0.0
C429 C 0.53613 0.66489 0.83548 0.0
C430 C 0.62752 0.75112 0.80671 0.0
C431 C 0.50571 0.70488 0.84003 0.0
C432 C 0.58778 0.83583 0.82924 0.0
C433 C 0.56996 0.84139 0.81348 0.0
C434 C 0.58697 0.80102 0.83246 0.0
C435 C 0.56783 0.76851 0.81987 0.0
C436 C 0.5499 0.7737 0.80395 0.0
C437 C 0.55117 0.80885 0.80103 0.0
C438 C 0.60702 0.79916 0.84972 0.0
C439 C 0.52975 0.74195 0.78938 0.0
H440 H 0.61736 0.68397 0.81627 0.0
H441 H 0.51275 0.64318 0.84248 0.0
H442 H 0.6171 0.76133 0.79534 0.0
H443 H 0.64575 0.77553 0.81636 0.0
H444 H 0.64462 0.73984 0.80048 0.0
H445 H 0.48623 0.6812 0.84835 0.0
H446 H 0.51721 0.73121 0.84897 0.0
H447 H 0.48977 0.70727 0.82814 0.0
H448 H 0.60262 0.85881 0.83953 0.0
H449 H 0.5373 0.81053 0.78854 0.0
H450 H 0.63055 0.79515 0.84552 0.0
H451 H 0.58788 0.77478 0.85771 0.0
H452 H 0.61822 0.82493 0.85908 0.0
H453 H 0.55052 0.73793 0.78145 0.0
H454 H 0.51264 0.74736 0.77932 0.0
H455 H 0.51137 0.71544 0.79609 0.0
C456 C 0.93331 0.5624 0.16994 0.0
C457 C 0.9387 0.53265 0.16298 0.0
C458 C 0.89935 0.56372 0.1668 0.0
C459 C 0.86786 0.53474 0.15611 0.0
C460 C 0.87315 0.50474 0.14889 0.0
C461 C 0.90741 0.50398 0.15236 0.0
C462 C 0.89723 0.59667 0.17519 0.0
C463 C 0.84225 0.47302 0.13714 0.0
C464 C 0.76526 0.51991 0.16231 0.0
C465 C 0.75803 0.53659 0.14691 0.0
C466 C 0.7996 0.51924 0.16531 0.0
C467 C 0.82992 0.53549 0.15283 0.0
C468 C 0.82325 0.55257 0.13733 0.0
C469 C 0.7886 0.55295 0.13466 0.0
C470 C 0.80346 0.50092 0.18227 0.0
C471 C 0.85328 0.57115 0.12336 0.0
H472 H 0.95609 0.58532 0.17808 0.0
H473 H 0.90969 0.48064 0.14646 0.0
H474 H 0.88907 0.60961 0.16421 0.0
H475 H 0.87541 0.58703 0.18582 0.0
H476 H 0.92413 0.61834 0.18199 0.0
H477 H 0.84964 0.45172 0.13228 0.0
H478 H 0.8166 0.45926 0.14533 0.0
H479 H 0.83561 0.48409 0.12471 0.0
H480 H 0.74395 0.50691 0.17245 0.0
H481 H 0.78589 0.5665 0.12266 0.0
H482 H 0.82739 0.52177 0.19136 0.0
H483 H 0.80946 0.47843 0.17786 0.0
H484 H 0.77799 0.48873 0.19067 0.0
H485 H 0.87771 0.59596 0.13031 0.0
H486 H 0.84369 0.58035 0.11119 0.0
H487 H 0.86285 0.55176 0.11816 0.0
C488 C 0.4394 0.92115 0.50431 0.0
C489 C 0.47297 0.92819 0.49566 0.0
C490 C 0.40409 0.88683 0.50117 0.0
C491 C 0.39978 0.85698 0.48846 0.0
C492 C 0.4334 0.86407 0.4794 0.0
C493 C 0.46874 0.89841 0.48318 0.0
C494 C 0.37103 0.88245 0.51184 0.0
C495 C 0.43193 0.83526 0.46521 0.0
C496 C 0.31537 0.75242 0.49257 0.0
C497 C 0.2874 0.74685 0.47889 0.0
C498 C 0.35071 0.78684 0.49565 0.0
C499 C 0.36094 0.81888 0.48499 0.0
C500 C 0.33314 0.81388 0.47123 0.0
C501 C 0.29786 0.77911 0.46845 0.0
C502 C 0.37745 0.78896 0.51073 0.0
C503 C 0.34056 0.84577 0.45923 0.0
H504 H 0.44069 0.94282 0.51394 0.0
H505 H 0.49311 0.90225 0.47586 0.0
H506 H 0.34726 0.87533 0.502 0.0
H507 H 0.36188 0.859 0.52124 0.0
H508 H 0.37746 0.90817 0.52044 0.0
H509 H 0.45931 0.84433 0.45883 0.0
H510 H 0.4229 0.80855 0.47196 0.0
H511 H 0.41093 0.82962 0.4539 0.0
H512 H 0.31005 0.72974 0.50128 0.0
H513 H 0.27842 0.77767 0.45782 0.0
H514 H 0.38317 0.8119 0.52129 0.0
H515 H 0.40444 0.79564 0.50456 0.0
H516 H 0.36656 0.76246 0.51797 0.0
H517 H 0.34247 0.86936 0.46817 0.0
H518 H 0.31836 0.83763 0.44821 0.0
H519 H 0.36772 0.85612 0.45242 0.0
C520 C 0.57175 0.41884 0.844 0.0
C521 C 0.57557 0.44248 0.82935 0.0
C522 C 0.57099 0.38353 0.84103 0.0
C523 C 0.57352 0.36922 0.82273 0.0
C524 C 0.57678 0.39277 0.80784 0.0
C525 C 0.57799 0.42822 0.81125 0.0
C526 C 0.56789 0.36155 0.85782 0.0
C527 C 0.57831 0.38007 0.78794 0.0
C528 C 0.60566 0.29295 0.81506 0.0
C529 C 0.57224 0.25777 0.81284 0.0
C530 C 0.60639 0.32817 0.8185 0.0
C531 C 0.57298 0.33047 0.81925 0.0
C532 C 0.53913 0.29505 0.81664 0.0
C533 C 0.53918 0.26009 0.81394 0.0
C534 C 0.64359 0.36337 0.8217 0.0
C535 C 0.50221 0.29391 0.81659 0.0
H536 H 0.56947 0.4281 0.85811 0.0
H537 H 0.58034 0.44475 0.79945 0.0
H538 H 0.54477 0.33228 0.85552 0.0
H539 H 0.594 0.36059 0.85979 0.0
H540 H 0.56308 0.37396 0.87087 0.0
H541 H 0.58057 0.40051 0.77773 0.0
H542 H 0.6025 0.37567 0.78651 0.0
H543 H 0.55281 0.35281 0.7843 0.0
H544 H 0.63181 0.29299 0.81458 0.0
H545 H 0.51276 0.23418 0.81233 0.0
H546 H 0.64444 0.37722 0.83553 0.0
H547 H 0.64741 0.38327 0.81087 0.0
H548 H 0.66721 0.35785 0.82131 0.0
H549 H 0.49781 0.30329 0.83064 0.0
H550 H 0.47847 0.26543 0.81289 0.0
H551 H 0.5022 0.31344 0.80644 0.0
C552 C 0.55133 0.80898 0.50282 0.0
C553 C 0.57482 0.83401 0.48997 0.0
C554 C 0.55247 0.77647 0.50568 0.0
C555 C 0.57743 0.76948 0.49526 0.0
C556 C 0.59784 0.79251 0.48079 0.0
C557 C 0.5959 0.82453 0.47815 0.0
C558 C 0.53059 0.75228 0.52131 0.0
C559 C 0.62546 0.78618 0.46982 0.0
C560 C 0.62595 0.72667 0.51965 0.0
C561 C 0.60671 0.69015 0.51166 0.0
C562 C 0.61609 0.75278 0.51468 0.0
C563 C 0.58666 0.74178 0.50125 0.0
C564 C 0.56764 0.70521 0.49286 0.0
C565 C 0.57792 0.67956 0.49822 0.0
C566 C 0.63702 0.79191 0.52383 0.0
C567 C 0.53622 0.69325 0.47849 0.0
H568 H 0.53512 0.81675 0.51188 0.0
H569 H 0.61444 0.84433 0.4684 0.0
H570 H 0.5179 0.7222 0.51692 0.0
H571 H 0.54967 0.75796 0.53358 0.0
H572 H 0.50823 0.75797 0.52587 0.0
H573 H 0.63578 0.80414 0.45768 0.0
H574 H 0.64979 0.79271 0.47914 0.0
H575 H 0.61276 0.7565 0.46466 0.0
H576 H 0.64828 0.73453 0.53003 0.0
H577 H 0.56269 0.65096 0.49238 0.0
H578 H 0.61735 0.79869 0.53106 0.0
H579 H 0.65062 0.81259 0.51301 0.0
H580 H 0.65878 0.79541 0.53423 0.0
H581 H 0.51335 0.69612 0.48483 0.0
H582 H 0.52483 0.66387 0.473 0.0
H583 H 0.54606 0.71175 0.46655 0.0
C584 C 0.80638 0.58735 0.81199 0.0
C585 C 0.77429 0.5585 0.81931 0.0
C586 C 0.84027 0.58851 0.8142 0.0
C587 C 0.84102 0.5591 0.8231 0.0
C588 C 0.80772 0.52733 0.82816 0.0
C589 C 0.77431 0.52752 0.8263 0.0
C590 C 0.87557 0.62354 0.8095 0.0
C591 C 0.80795 0.49558 0.83769 0.0
C592 C 0.93123 0.55864 0.82441 0.0
C593 C 0.94526 0.57514 0.84234 0.0
C594 C 0.897 0.55323 0.81788 0.0
C595 C 0.87686 0.56446 0.82967 0.0
C596 C 0.89129 0.58196 0.84765 0.0
C597 C 0.92574 0.58746 0.8537 0.0
C598 C 0.8819 0.53476 0.79862 0.0
C599 C 0.87024 0.59435 0.86057 0.0
H600 H 0.80596 0.6115 0.80694 0.0
H601 H 0.74915 0.50557 0.8321 0.0
H602 H 0.8901 0.63995 0.82268 0.0
H603 H 0.89489 0.61646 0.80214 0.0
H604 H 0.86978 0.64159 0.80065 0.0
H605 H 0.77965 0.47048 0.83764 0.0
H606 H 0.82717 0.48777 0.83077 0.0
H607 H 0.81802 0.50458 0.85249 0.0
H608 H 0.94633 0.54875 0.8158 0.0
H609 H 0.93709 0.60062 0.8675 0.0
H610 H 0.87608 0.55316 0.7901 0.0
H611 H 0.85507 0.50837 0.79987 0.0
H612 H 0.90152 0.52834 0.79105 0.0
H613 H 0.86497 0.61492 0.85374 0.0
H614 H 0.88561 0.60728 0.87415 0.0
H615 H 0.84271 0.57009 0.86351 0.0
C616 C 0.27508 0.75623 0.1437 0.0
C617 C 0.25105 0.75282 0.15804 0.0
C618 C 0.31047 0.78818 0.14352 0.0
C619 C 0.32113 0.81641 0.15805 0.0
C620 C 0.29569 0.8134 0.17201 0.0
C621 C 0.26096 0.78152 0.17174 0.0
C622 C 0.33649 0.79117 0.1282 0.0
C623 C 0.30511 0.84298 0.1877 0.0
C624 C 0.40616 0.87343 0.18579 0.0
C625 C 0.40624 0.90717 0.18488 0.0
C626 C 0.38256 0.84291 0.17377 0.0
C627 C 0.35967 0.84731 0.16053 0.0
C628 C 0.36677 0.88345 0.15665 0.0
C629 C 0.38976 0.91335 0.16927 0.0
C630 C 0.37584 0.80481 0.1784 0.0
C631 C 0.34397 0.88902 0.14192 0.0
H632 H 0.26639 0.73386 0.13292 0.0
H633 H 0.24129 0.77882 0.18236 0.0
H634 H 0.35249 0.82023 0.12367 0.0
H635 H 0.35682 0.78348 0.13352 0.0
H636 H 0.32113 0.77207 0.11583 0.0
H637 H 0.28151 0.83567 0.19714 0.0
H638 H 0.32919 0.84675 0.19636 0.0
H639 H 0.31256 0.87012 0.18186 0.0
H640 H 0.42062 0.86947 0.1974 0.0
H641 H 0.39087 0.93995 0.16818 0.0
H642 H 0.36821 0.78584 0.16566 0.0
H643 H 0.35237 0.79217 0.1881 0.0
H644 H 0.40077 0.80674 0.18547 0.0
H645 H 0.33703 0.86891 0.12967 0.0
H646 H 0.359 0.918 0.13716 0.0
H647 H 0.31739 0.88421 0.14793 0.0
C648 C 0.58596 0.26762 0.50902 0.0
C649 C 0.59187 0.24886 0.49396 0.0
C650 C 0.6008 0.30596 0.50939 0.0
C651 C 0.6221 0.32593 0.49414 0.0
C652 C 0.62794 0.30702 0.47873 0.0
C653 C 0.6126 0.26821 0.47882 0.0
C654 C 0.59305 0.32462 0.52612 0.0
C655 C 0.65028 0.32759 0.46232 0.0
C656 C 0.61527 0.40913 0.50272 0.0
C657 C 0.64277 0.42567 0.51716 0.0
C658 C 0.61266 0.37959 0.49127 0.0
C659 C 0.63762 0.36655 0.49496 0.0
C660 C 0.66997 0.38852 0.50651 0.0
C661 C 0.67229 0.41839 0.51753 0.0
C662 C 0.57836 0.35728 0.47861 0.0
C663 C 0.69736 0.37561 0.51065 0.0
H664 H 0.56913 0.252 0.52046 0.0
H665 H 0.61684 0.25305 0.46722 0.0
H666 H 0.61954 0.34681 0.53294 0.0
H667 H 0.57679 0.33768 0.52154 0.0
H668 H 0.5769 0.3046 0.53687 0.0
H669 H 0.64805 0.30814 0.45047 0.0
H670 H 0.64088 0.34662 0.45728 0.0
H671 H 0.68008 0.34512 0.46678 0.0
H672 H 0.59278 0.41533 0.50202 0.0
H673 H 0.69448 0.43256 0.52817 0.0
H674 H 0.55574 0.33566 0.48675 0.0
H675 H 0.58387 0.34284 0.46666 0.0
H676 H 0.56823 0.37546 0.47313 0.0
H677 H 0.68687 0.35617 0.5222 0.0
H678 H 0.72506 0.39957 0.51524 0.0
H679 H 0.70067 0.3605 0.49827 0.0
C680 C 0.34369 0.54157 0.83641 0.0
C681 C 0.37095 0.55732 0.82317 0.0
C682 C 0.32198 0.55732 0.84107 0.0
C683 C 0.32732 0.58908 0.83171 0.0
C684 C 0.35443 0.60465 0.81793 0.0
C685 C 0.37666 0.58871 0.81396 0.0
C686 C 0.29403 0.54023 0.8563 0.0
C687 C 0.36007 0.63807 0.80765 0.0
C688 C 0.23942 0.58447 0.84228 0.0
C689 C 0.24984 0.60324 0.86004 0.0
C690 C 0.26657 0.58588 0.83039 0.0
C691 C 0.30417 0.60532 0.83696 0.0
C692 C 0.31503 0.6295 0.8533 0.0
C693 C 0.28737 0.62847 0.86462 0.0
C694 C 0.25439 0.56054 0.81275 0.0
C695 C 0.35475 0.65023 0.861 0.0
H696 H 0.34054 0.51772 0.8437 0.0
H697 H 0.39872 0.60093 0.80402 0.0
H698 H 0.29881 0.56173 0.86753 0.0
H699 H 0.26531 0.52876 0.85038 0.0
H700 H 0.29562 0.51717 0.86284 0.0
H701 H 0.38272 0.64692 0.79748 0.0
H702 H 0.33383 0.63129 0.8 0.0
H703 H 0.3669 0.66198 0.81774 0.0
H704 H 0.21027 0.56545 0.83851 0.0
H705 H 0.29516 0.64425 0.87804 0.0
H706 H 0.25076 0.53295 0.81605 0.0
H707 H 0.27562 0.57226 0.80188 0.0
H708 H 0.22731 0.55585 0.80698 0.0
H709 H 0.35934 0.63154 0.86996 0.0
H710 H 0.36028 0.6754 0.86984 0.0
H711 H 0.37512 0.65881 0.84971 0.0
C712 C 0.83764 0.3221 0.18358 0.0
C713 C 0.8485 0.34437 0.16823 0.0
C714 C 0.80029 0.29696 0.18596 0.0
C715 C 0.77377 0.295 0.17271 0.0
C716 C 0.78456 0.31894 0.15768 0.0
C717 C 0.82241 0.34344 0.15545 0.0
C718 C 0.78965 0.27116 0.20195 0.0
C719 C 0.75632 0.3175 0.14368 0.0
C720 C 0.68814 0.20072 0.16888 0.0
C721 C 0.66539 0.20663 0.18122 0.0
C722 C 0.72328 0.23016 0.16515 0.0
C723 C 0.73508 0.26582 0.17395 0.0
C724 C 0.71138 0.27235 0.1856 0.0
C725 C 0.67644 0.24241 0.18908 0.0
C726 C 0.74878 0.22254 0.15303 0.0
C727 C 0.72399 0.31012 0.19544 0.0
H728 H 0.85862 0.32328 0.19324 0.0
H729 H 0.83167 0.36127 0.14368 0.0
H730 H 0.76729 0.27185 0.21007 0.0
H731 H 0.77868 0.24199 0.19627 0.0
H732 H 0.81372 0.27863 0.2117 0.0
H733 H 0.76923 0.34 0.13365 0.0
H734 H 0.7426 0.29006 0.13564 0.0
H735 H 0.7342 0.32009 0.15108 0.0
H736 H 0.67945 0.1727 0.16316 0.0
H737 H 0.65843 0.24647 0.19866 0.0
H738 H 0.77289 0.22623 0.16168 0.0
H739 H 0.76006 0.24279 0.14188 0.0
H740 H 0.73436 0.19375 0.14637 0.0
H741 H 0.7464 0.31648 0.20605 0.0
H742 H 0.70087 0.31122 0.20265 0.0
H743 H 0.73582 0.3324 0.18528 0.0
C744 C 0.07186 0.52715 0.09973 0.0
C745 C 0.05609 0.54443 0.11059 0.0
C746 C 0.07445 0.53066 0.08031 0.0
C747 C 0.06084 0.55184 0.07171 0.0
C748 C 1.04554 0.56991 0.08266 0.0
C749 C 1.04335 0.56597 0.10201 0.0
C750 C 0.09114 0.5113 0.06896 0.0
C751 C 1.03071 0.59269 0.07388 0.0
C752 C 0.08714 0.58515 0.02281 0.0
C753 C 0.05469 0.5595 0.01253 0.0
C754 C 0.09013 0.58248 0.04215 0.0
C755 C 0.0601 0.55319 0.05112 0.0
C756 C 1.02792 0.52643 0.04059 0.0
C757 C 1.02552 0.53008 0.02137 0.0
C758 C 0.1247 0.61163 0.05305 0.0
C759 C 0.9956 0.49452 0.04967 0.0
H760 H 0.08204 0.51075 0.10638 0.0
H761 H 1.03128 0.5795 0.11039 0.0
H762 H 0.07033 0.49113 0.0583 0.0
H763 H 0.11527 0.53208 0.0613 0.0
H764 H 0.10063 0.49605 0.07783 0.0
H765 H 1.02132 0.60638 0.0845 0.0
H766 H 0.05251 0.61458 0.06554 0.0
H767 H 1.00679 0.57439 0.06412 0.0
H768 H 0.10967 0.60782 0.0158 0.0
H769 H 1.0008 0.50994 0.0132 0.0
H770 H 0.13657 0.59802 0.06154 0.0
H771 H 0.11732 0.62822 0.06293 0.0
H772 H 0.14648 0.63106 0.04375 0.0
H773 H 1.00554 0.47859 0.05766 0.0
H774 H 0.97364 0.47495 0.03925 0.0
H775 H 0.9829 0.50572 0.05978 0.0
C776 C 0.60558 0.0733 0.43643 0.0
C777 C 0.57833 0.04126 0.44457 0.0
C778 C 0.60425 0.07708 0.4171 0.0
C779 C 0.57583 0.0474 0.40571 0.0
C780 C 0.54931 1.01417 0.41381 0.0
C781 C 0.55037 1.01183 0.43331 0.0
C782 C 0.63228 0.1134 0.40902 0.0
C783 C 0.5197 0.98138 0.40192 0.0
C784 C 0.54955 0.07465 0.36073 0.0
C785 C 0.57193 0.06904 0.34796 0.0
C786 C 0.54994 0.06687 0.37955 0.0
C787 C 0.57261 0.05235 0.38552 0.0
C788 C 0.59397 0.04504 0.37243 0.0
C789 C 0.59378 0.05403 0.35377 0.0
C790 C 0.52725 0.0756 0.39317 0.0
C791 C 0.61769 1.02864 0.37818 0.0
H792 H 0.62702 0.09606 0.44529 0.0
H793 H 0.52962 0.98692 0.43975 0.0
H794 H 0.64726 0.10803 0.3976 0.0
H795 H 0.61756 0.12681 0.40282 0.0
H796 H 0.65313 0.13336 0.41976 0.0
H797 H 0.5031 0.95657 0.41023 0.0
H798 H 0.50048 0.98923 0.3953 0.0
H799 H 0.53279 0.97352 0.39043 0.0
H800 H 0.53271 0.0863 0.35608 0.0
H801 H 0.61065 0.0493 0.34369 0.0
H802 H 0.54609 0.09708 0.40401 0.0
H803 H 0.50803 0.05026 0.4005 0.0
H804 H 0.51055 0.0861 0.38613 0.0
H805 H 0.64221 0.04991 0.38677 0.0
H806 H 0.62788 1.01939 0.36587 0.0
H807 H 0.60171 1.00443 0.38692 0.0
C808 C 0.56742 0.56831 0.76906 0.0
C809 C 0.58476 0.55319 0.77965 0.0
C810 C 0.57287 0.57222 0.7498 0.0
C811 C 0.59557 0.55996 0.74089 0.0
C812 C 0.6129 0.54434 0.75146 0.0
C813 C 0.60759 0.54149 0.77082 0.0
C814 C 0.55447 0.5896 0.73898 0.0
C815 C 0.63693 0.53064 0.7423 0.0
C816 C 0.57673 0.53983 0.6886 0.0
C817 C 0.60476 0.57319 0.68172 0.0
C818 C 0.57437 0.53448 0.70785 0.0
C819 C 0.60062 0.56327 0.72044 0.0
C820 C 0.62985 0.59643 0.71351 0.0
C821 C 0.63151 0.60103 0.69417 0.0
C822 C 0.54295 0.49865 0.71473 0.0
C823 C 0.65843 0.62774 0.7265 0.0
H824 H 0.55007 0.57773 0.77589 0.0
H825 H 0.62093 0.52969 0.779 0.0
H826 H 0.57589 0.61439 0.732 0.0
H827 H 0.53533 0.56936 0.72781 0.0
H828 H 0.53834 0.59844 0.7481 0.0
H829 H 0.64769 0.51838 0.75244 0.0
H830 H 0.6207 0.50919 0.7309 0.0
H831 H 0.66096 0.55411 0.73581 0.0
H832 H 0.55591 0.51835 0.67896 0.0
H833 H 0.65357 0.62656 0.68879 0.0
H834 H 0.52352 0.50476 0.72267 0.0
H835 H 0.55402 0.48603 0.72444 0.0
H836 H 0.52692 0.4778 0.70304 0.0
H837 H 0.64514 0.64201 0.73389 0.0
H838 H 0.68241 0.64881 0.71881 0.0
H839 H 0.66911 0.61668 0.7373 0.0
C840 C 0.61584 0.05818 0.57498 0.0
C841 C 0.58277 0.04652 0.5643 0.0
C842 C 0.61633 0.05909 0.59489 0.0
C843 C 0.5827 0.04671 0.60465 0.0
C844 C 0.54911 0.0341 0.59387 0.0
C845 C 0.54966 0.0348 0.57404 0.0
C846 C 0.65306 0.07363 0.60549 0.0
C847 C 0.51232 1.01955 0.6033 0.0
C848 C 0.57848 1.017 0.65562 0.0
C849 C 0.58084 0.04754 0.66643 0.0
C850 C 0.579 1.01632 0.63574 0.0
C851 C 0.58256 0.04716 0.62603 0.0
C852 C 0.58542 0.07825 0.63687 0.0
C853 C 0.58427 0.07796 0.65672 0.0
C854 C 0.57516 0.98218 0.62506 0.0
C855 C 0.59011 0.1122 0.62746 0.0
H856 H 0.64166 0.0674 0.56776 0.0
H857 H 0.52381 1.02531 0.56607 0.0
H858 H 0.6571 0.09572 0.61622 0.0
H859 H 0.65301 0.05069 0.61297 0.0
H860 H 0.67709 0.08532 0.59609 0.0
H861 H 0.48838 1.00834 0.59304 0.0
H862 H 0.50801 0.99707 0.61262 0.0
H863 H 0.51251 0.04233 0.61221 0.0
H864 H 0.5754 0.99306 0.66271 0.0
H865 H 0.5867 0.10205 0.66469 0.0
H866 H 0.60004 0.99003 0.61657 0.0
H867 H 0.55058 0.97026 0.61519 0.0
H868 H 0.57193 0.96019 0.63449 0.0
H869 H 0.61569 0.12414 0.61917 0.0
H870 H 0.59213 0.13423 0.6377 0.0
H871 H 0.56621 0.10413 0.61754 0.0
C872 C 0.56897 0.5262 0.90836 0.0
C873 C 0.55838 0.54826 0.8985 0.0
C874 C 0.56786 0.52542 0.92814 0.0
C875 C 0.55731 0.54844 0.93868 0.0
C876 C 0.54724 0.57134 0.92875 0.0
C877 C 0.5472 0.57044 0.90886 0.0
C878 C 0.57776 0.49964 0.93776 0.0
C879 C 0.53728 0.59751 0.93918 0.0
C880 C 0.52351 0.5232 0.98896 0.0
C881 C 0.5556 0.54677 0.00032 0.0
C882 C 0.52362 0.52375 0.96913 0.0
C883 C 0.55665 0.5483 0.95998 0.0
C884 C 0.58915 0.57216 0.97127 0.0
C885 C 0.58822 0.57119 0.99109 0.0
C886 C 0.48826 0.4976 0.95789 0.0
C887 C 0.62513 0.59886 0.96239 0.0
H888 H 0.5777 0.509 0.9005 0.0
H889 H 0.53962 0.58809 0.90143 0.0
H890 H 0.60155 0.51596 0.9479 0.0
H891 H 0.5538 0.47972 0.94584 0.0
H892 H 0.58528 0.48343 0.92767 0.0
H893 H 0.53013 0.61354 0.92957 0.0
H894 H 0.51327 0.58153 0.94817 0.0
H895 H 0.56111 0.61758 0.94857 0.0
H896 H 0.49814 0.50358 0.99551 0.0
H897 H 0.61322 0.59015 -0.00065 0.0
H898 H 0.49311 0.47868 0.94831 0.0
H899 H 0.48002 0.51383 0.94905 0.0
H900 H 0.46474 0.48036 0.96695 0.0
H901 H 0.63491 0.58292 0.95354 0.0
H902 H 0.64754 0.61684 0.97298 0.0
H903 H 0.62052 0.61703 0.95307 0.0
C904 C 1.0199 0.51397 0.2394 0.0
C905 C 0.05246 0.53511 0.22947 0.0
C906 C 1.02065 0.51422 0.25932 0.0
C907 C 0.05497 0.53503 0.26983 0.0
C908 C 0.08797 0.55588 0.25978 0.0
C909 C 0.08622 0.55618 0.23994 0.0
C910 C 0.98446 0.49257 0.26915 0.0
C911 C 0.12543 0.57766 0.27 0.0
C912 C 0.05608 0.56233 0.32256 0.0
C913 C 0.06084 0.53536 0.33173 0.0
C914 C 0.05416 0.56257 0.30271 0.0
C915 C 0.0565 0.53489 0.29121 0.0
C916 C 0.06094 0.5074 0.30027 0.0
C917 C 0.06326 0.50808 0.32015 0.0
C918 C 1.04956 0.59265 0.294 0.0
C919 C 0.06348 0.47714 0.2889 0.0
H920 H 0.99355 0.49787 0.2316 0.0
H921 H 0.11166 0.57248 0.23255 0.0
H922 H 0.98572 0.47184 0.27799 0.0
H923 H 0.98002 0.51193 0.27862 0.0
H924 H 0.96012 0.47768 0.25915 0.0
H925 H 0.14853 0.59255 0.26031 0.0
H926 H 0.12535 0.59844 0.28035 0.0
H927 H 0.13104 0.55841 0.27791 0.0
H928 H 0.05332 0.5833 0.33087 0.0
H929 H 0.06761 0.48728 0.32654 0.0
H930 H 1.02393 0.57973 0.28483 0.0
H931 H 0.07345 0.60918 0.28503 0.0
H932 H 1.0478 0.61203 0.30468 0.0
H933 H 1.03751 0.46017 0.2802 0.0
H934 H 0.06773 0.45822 0.29785 0.0
H935 H 0.08685 0.48986 0.27918 0.0
loop_
_geom_bond_atom_site_label_1
_geom_bond_atom_site_label_2
_geom_bond_distance
_geom_bond_site_symmetry_2
_ccdc_geom_bond_type
Eu0 C9 2.828 . S
Eu0 O11 2.392 1_655 S
Eu0 O13 2.418 . S
Eu0 O18 2.373 . S
Eu0 O21 2.488 . S
Eu0 O22 2.471 . S
Eu0 O23 2.349 . S
Eu1 O10 2.373 . S
Eu1 O14 2.488 . S
Eu1 O15 2.471 . S
Eu1 O16 2.349 . S
Eu1 O19 2.392 1_455 S
Eu1 O20 2.418 . S
Eu1 C30 2.828 . S
C2 O20 1.244 . S
C2 O23 1.265 1_455 S
C3 C4 1.379 . S
C3 C7 1.373 . S
C3 C9 1.505 . S
C4 C3 1.379 . S
C4 C6 1.369 . S
C4 H32 0.930 . S
C5 C7 1.383 . S
C5 C8 1.382 . S
C5 H33 0.930 . S
C6 C4 1.369 . S
C6 C8 1.392 . S
C6 H34 0.930 . S
C7 C3 1.373 . S
C7 C5 1.383 . S
C7 H35 0.931 . S
C8 C5 1.382 . S
C8 C6 1.392 . S
C9 Eu0 2.828 . S
C9 C3 1.505 . S
C9 O21 1.249 . S
C9 O22 1.244 . S
O10 Eu1 2.373 . S
O10 C12 1.258 . S
O11 Eu0 2.392 1_455 S
O11 C12 1.242 . S
C12 O10 1.258 . S
C12 O11 1.242 . S
O13 Eu0 2.418 . S
O13 C17 1.244 . S
O14 Eu1 2.488 . S
O14 C30 1.249 . S
O15 Eu1 2.471 . S
O15 C30 1.244 . S
O16 Eu1 2.349 . S
O16 C17 1.265 1_455 S
C17 O13 1.244 . S
C17 O16 1.265 1_655 S
O18 Eu0 2.373 . S
O18 C31 1.258 . S
O19 Eu1 2.392 1_655 S
O19 C31 1.242 . S
O20 Eu1 2.418 . S
O20 C2 1.244 . S
O21 Eu0 2.488 . S
O21 C9 1.249 . S
O22 Eu0 2.471 . S
O22 C9 1.244 . S
O23 Eu0 2.349 . S
O23 C2 1.265 1_655 S
C24 C25 1.379 . S
C24 C28 1.373 . S
C24 C30 1.505 . S
C25 C24 1.379 . S
C25 C27 1.369 . S
C25 H36 0.930 . S
C26 C28 1.383 . S
C26 C29 1.382 . S
C26 H37 0.930 . S
C27 C25 1.369 . S
C27 C29 1.392 . S
C27 H38 0.930 . S
C28 C24 1.373 . S
C28 C26 1.383 . S
C28 H39 0.931 . S
C29 C26 1.382 . S
C29 C27 1.392 . S
C30 Eu1 2.828 . S
C30 O14 1.249 . S
C30 O15 1.244 . S
C30 C24 1.505 . S
C31 O18 1.258 . S
C31 O19 1.242 . S
H32 C4 0.930 . S
H33 C5 0.930 . S
H34 C6 0.930 . S
H35 C7 0.931 . S
H36 C25 0.930 . S
H37 C26 0.930 . S
H38 C27 0.930 . S
H39 C28 0.931 . S
Eu40 C49 2.828 . S
Eu40 O51 2.392 1_565 S
Eu40 O53 2.418 . S
Eu40 O58 2.373 . S
Eu40 O61 2.488 . S
Eu40 O62 2.471 . S
Eu40 O63 2.331 1_565 S
Eu41 O50 2.373 . S
Eu41 O54 2.488 . S
Eu41 O55 2.471 . S
Eu41 O56 2.349 . S
Eu41 O59 2.392 1_545 S
Eu41 O60 2.418 . S
Eu41 C70 2.828 . S
C42 O60 1.244 . S
C42 O63 1.284 . S
C43 C44 1.379 . S
C43 C47 1.373 . S
C43 C49 1.505 . S
C44 C43 1.379 . S
C44 C46 1.369 . S
C44 H72 0.930 . S
C45 C47 1.383 . S
C45 C48 1.382 . S
C45 H73 0.930 . S
C46 C44 1.369 . S
C46 C48 1.392 . S
C46 H74 0.930 . S
C47 C43 1.373 . S
C47 C45 1.383 . S
C47 H75 0.931 . S
C48 C45 1.382 . S
C48 C46 1.392 . S
C49 Eu40 2.828 . S
C49 C43 1.505 . S
C49 O61 1.249 . S
C49 O62 1.244 . S
O50 Eu41 2.373 . S
O50 C52 1.258 . S
O51 Eu40 2.392 1_545 S
O51 C52 1.242 . S
C52 O50 1.258 . S
C52 O51 1.242 . S
O53 Eu40 2.418 . S
O53 C57 1.244 1_565 S
O54 Eu41 2.488 . S
O54 C70 1.249 . S
O55 Eu41 2.471 . S
O55 C70 1.244 . S
O56 Eu41 2.349 . S
O56 C57 1.265 . S
C57 O53 1.244 1_545 S
C57 O56 1.265 . S
O58 Eu40 2.373 . S
O58 C71 1.258 . S
O59 Eu41 2.392 1_565 S
O59 C71 1.242 . S
O60 Eu41 2.418 . S
O60 C42 1.244 . S
O61 Eu40 2.488 . S
O61 C49 1.249 . S
O62 Eu40 2.471 . S
O62 C49 1.244 . S
O63 Eu40 2.331 1_545 S
O63 C42 1.284 . S
C64 C65 1.379 . S
C64 C68 1.373 . S
C64 C70 1.505 . S
C65 C64 1.379 . S
C65 C67 1.369 . S
C65 H76 0.930 . S
C66 C68 1.383 . S
C66 C69 1.382 . S
C66 H77 0.930 . S
C67 C65 1.369 . S
C67 C69 1.392 . S
C67 H78 0.930 . S
C68 C64 1.373 . S
C68 C66 1.383 . S
C68 H79 0.931 . S
C69 C66 1.382 . S
C69 C67 1.392 . S
C70 Eu41 2.828 . S
C70 O54 1.249 . S
C70 O55 1.244 . S
C70 C64 1.505 . S
C71 O58 1.258 . S
C71 O59 1.242 . S
H72 C44 0.930 . S
H73 C45 0.930 . S
H74 C46 0.930 . S
H75 C47 0.931 . S
H76 C65 0.930 . S
H77 C66 0.930 . S
H78 C67 0.930 . S
H79 C68 0.931 . S
Eu80 C89 2.828 . S
Eu80 O91 2.392 . S
Eu80 O93 2.418 . S
Eu80 O98 2.373 . S
Eu80 O101 2.488 . S
Eu80 O102 2.471 . S
Eu80 O103 2.349 . S
Eu81 O90 2.373 . S
Eu81 O94 2.488 . S
Eu81 O95 2.471 . S
Eu81 O96 2.349 . S
Eu81 O99 2.392 . S
Eu81 O100 2.418 . S
Eu81 C110 2.828 . S
C82 O100 1.244 . S
C82 O103 1.265 . S
C83 C84 1.379 . S
C83 C87 1.373 . S
C83 C89 1.505 . S
C84 C83 1.379 . S
C84 C86 1.369 . S
C84 H112 0.930 . S
C85 C87 1.383 . S
C85 C88 1.382 . S
C85 H113 0.930 . S
C86 C84 1.369 . S
C86 C88 1.392 . S
C86 H114 0.930 . S
C87 C83 1.373 . S
C87 C85 1.383 . S
C87 H115 0.931 . S
C88 C85 1.382 . S
C88 C86 1.392 . S
C89 Eu80 2.828 . S
C89 C83 1.505 . S
C89 O101 1.249 . S
C89 O102 1.244 . S
O90 Eu81 2.373 . S
O90 C92 1.258 . S
O91 Eu80 2.392 . S
O91 C92 1.242 . S
C92 O90 1.258 . S
C92 O91 1.242 . S
O93 Eu80 2.418 . S
O93 C97 1.244 . S
O94 Eu81 2.488 . S
O94 C110 1.249 . S
O95 Eu81 2.471 . S
O95 C110 1.244 . S
O96 Eu81 2.349 . S
O96 C97 1.265 . S
C97 O93 1.244 . S
C97 O96 1.265 . S
O98 Eu80 2.373 . S
O98 C111 1.258 . S
O99 Eu81 2.392 . S
O99 C111 1.242 . S
O100 Eu81 2.418 . S
O100 C82 1.244 . S
O101 Eu80 2.488 . S
O101 C89 1.249 . S
O102 Eu80 2.471 . S
O102 C89 1.244 . S
O103 Eu80 2.349 . S
O103 C82 1.265 . S
C104 C105 1.379 . S
C104 C108 1.373 . S
C104 C110 1.505 . S
C105 C104 1.379 . S
C105 C107 1.369 . S
C105 H116 0.930 . S
C106 C108 1.383 . S
C106 C109 1.382 . S
C106 H117 0.930 . S
C107 C105 1.369 . S
C107 C109 1.392 . S
C107 H118 0.930 . S
C108 C104 1.373 . S
C108 C106 1.383 . S
C108 H119 0.931 . S
C109 C106 1.382 . S
C109 C107 1.392 . S
C110 Eu81 2.828 . S
C110 O94 1.249 . S
C110 O95 1.244 . S
C110 C104 1.505 . S
C111 O98 1.258 . S
C111 O99 1.242 . S
H112 C84 0.930 . S
H113 C85 0.930 . S
H114 C86 0.930 . S
H115 C87 0.931 . S
H116 C105 0.930 . S
H117 C106 0.930 . S
H118 C107 0.930 . S
H119 C108 0.931 . S
C120 C121 1.264 . S
C120 C125 1.479 . S
C120 C130 1.465 . S
C121 C120 1.264 . S
C121 C123 1.339 . S
C121 H148 0.931 . S
C122 C123 1.395 . S
C122 C124 1.320 . S
C123 C121 1.339 . S
C123 C122 1.395 . S
C123 H149 0.929 . S
C124 C122 1.320 . S
C124 C125 1.405 . S
C124 H150 0.930 . S
C125 C120 1.479 . S
C125 C124 1.405 . S
C125 H151 0.931 . S
U126 O127 2.454 1_545 S
U126 O128 2.458 1_545 S
U126 C129 2.984 1_545 S
U126 C130 2.847 . S
U126 C143 2.882 . S
U126 O144 2.441 . S
U126 O145 2.420 . S
U126 O146 2.455 . S
U126 O147 2.449 . S
O127 U126 2.454 1_565 S
O127 C129 1.353 . S
O128 U126 2.458 1_565 S
O128 C129 1.286 . S
C129 U126 2.984 1_565 S
C129 O127 1.353 . S
C129 O128 1.286 . S
C129 C131 1.363 . S
C130 C120 1.465 . S
C130 U126 2.847 . S
C130 O144 1.249 . S
C130 O145 1.202 . S
C131 C129 1.363 . S
C131 C133 1.408 . S
C131 C136 1.342 . S
C132 C133 1.310 . S
C132 C135 1.461 . S
C132 H152 0.932 . S
C133 C131 1.408 . S
C133 C132 1.310 . S
C133 H153 0.930 . S
C134 C135 1.474 . S
C134 C136 1.285 . S
C134 H154 0.929 . S
C135 C132 1.461 . S
C135 C134 1.474 . S
C136 C131 1.342 . S
C136 C134 1.285 . S
C136 H155 0.930 . S
C137 C140 1.424 . S
C137 C142 1.245 . S
C137 C143 1.428 . S
C138 C141 1.260 . S
C138 C142 1.477 . S
C138 H156 0.932 1_545 S
C139 C140 1.384 . S
C139 C141 1.479 . S
C139 H157 0.929 . S
C140 C137 1.424 . S
C140 C139 1.384 . S
C140 H158 0.928 . S
C141 C138 1.260 . S
C141 C139 1.479 . S
C142 C137 1.245 . S
C142 C138 1.477 . S
C142 H159 0.932 1_545 S
C143 U126 2.882 . S
C143 C137 1.428 . S
C143 O146 1.301 . S
C143 O147 1.282 . S
O144 U126 2.441 . S
O144 C130 1.249 . S
O145 U126 2.420 . S
O145 C130 1.202 . S
O146 U126 2.455 . S
O146 C143 1.301 . S
O147 U126 2.449 . S
O147 C143 1.282 . S
H148 C121 0.931 . S
H149 C123 0.929 . S
H150 C124 0.930 . S
H151 C125 0.931 . S
H152 C132 0.932 . S
H153 C133 0.930 . S
H154 C134 0.929 . S
H155 C136 0.930 . S
H156 C138 0.932 1_565 S
H157 C139 0.929 . S
H158 C140 0.928 . S
H159 C142 0.932 1_565 S
C160 C161 1.264 . S
C160 C165 1.479 . S
C160 C170 1.465 . S
C161 C160 1.264 . S
C161 C163 1.339 . S
C161 H188 0.931 . S
C162 C163 1.395 . S
C162 C164 1.320 . S
C163 C161 1.339 . S
C163 C162 1.395 . S
C163 H189 0.929 . S
C164 C162 1.320 . S
C164 C165 1.405 . S
C164 H190 0.930 . S
C165 C160 1.479 . S
C165 C164 1.405 . S
C165 H191 0.931 . S
U166 O167 2.454 . S
U166 O168 2.458 . S
U166 C169 2.984 . S
U166 C170 2.847 . S
U166 C183 2.882 . S
U166 O184 2.441 . S
U166 O185 2.420 . S
U166 O186 2.455 . S
U166 O187 2.449 . S
O167 U166 2.454 . S
O167 C169 1.353 . S
O168 U166 2.458 . S
O168 C169 1.286 . S
C169 U166 2.984 . S
C169 O167 1.353 . S
C169 O168 1.286 . S
C169 C171 1.363 . S
C170 C160 1.465 . S
C170 U166 2.847 . S
C170 O184 1.249 . S
C170 O185 1.202 . S
C171 C169 1.363 . S
C171 C173 1.408 . S
C171 C176 1.342 . S
C172 C173 1.310 . S
C172 C175 1.461 . S
C172 H192 0.932 . S
C173 C171 1.408 . S
C173 C172 1.310 . S
C173 H193 0.930 . S
C174 C175 1.474 . S
C174 C176 1.285 . S
C174 H194 0.929 . S
C175 C172 1.461 . S
C175 C174 1.474 . S
C176 C171 1.342 . S
C176 C174 1.285 . S
C176 H195 0.930 . S
C177 C180 1.424 . S
C177 C182 1.245 . S
C177 C183 1.428 . S
C178 C181 1.260 . S
C178 C182 1.477 . S
C178 H196 0.932 . S
C179 C180 1.384 . S
C179 C181 1.479 . S
C179 H197 0.929 . S
C180 C177 1.424 . S
C180 C179 1.384 . S
C180 H198 0.928 . S
C181 C178 1.260 . S
C181 C179 1.479 . S
C182 C177 1.245 . S
C182 C178 1.477 . S
C182 H199 0.932 . S
C183 U166 2.882 . S
C183 C177 1.428 . S
C183 O186 1.301 . S
C183 O187 1.282 . S
O184 U166 2.441 . S
O184 C170 1.249 . S
O185 U166 2.420 . S
O185 C170 1.202 . S
O186 U166 2.455 . S
O186 C183 1.301 . S
O187 U166 2.449 . S
O187 C183 1.282 . S
H188 C161 0.931 . S
H189 C163 0.929 . S
H190 C164 0.930 . S
H191 C165 0.931 . S
H192 C172 0.932 . S
H193 C173 0.930 . S
H194 C174 0.929 . S
H195 C176 0.930 . S
H196 C178 0.932 . S
H197 C179 0.929 . S
H198 C180 0.928 . S
H199 C182 0.932 . S
C200 C201 1.264 . S
C200 C205 1.479 . S
C200 C210 1.465 . S
C201 C200 1.264 . S
C201 C203 1.339 . S
C201 H228 0.931 . S
C202 C203 1.395 . S
C202 C204 1.320 . S
C203 C201 1.339 . S
C203 C202 1.395 . S
C203 H229 0.929 . S
C204 C202 1.320 . S
C204 C205 1.405 . S
C204 H230 0.930 . S
C205 C200 1.479 . S
C205 C204 1.405 . S
C205 H231 0.931 . S
U206 O207 2.454 . S
U206 O208 2.458 . S
U206 C209 2.984 . S
U206 C210 2.847 1_455 S
U206 C223 2.882 . S
U206 O224 2.441 1_455 S
U206 O225 2.420 1_455 S
U206 O226 2.455 . S
U206 O227 2.449 1_455 S
O207 U206 2.454 . S
O207 C209 1.353 . S
O208 U206 2.458 . S
O208 C209 1.286 . S
C209 U206 2.984 . S
C209 O207 1.353 . S
C209 O208 1.286 . S
C209 C211 1.363 . S
C210 C200 1.465 . S
C210 U206 2.847 1_655 S
C210 O224 1.249 . S
C210 O225 1.202 . S
C211 C209 1.363 . S
C211 C213 1.408 . S
C211 C216 1.342 . S
C212 C213 1.310 . S
C212 C215 1.461 . S
C212 H232 0.932 . S
C213 C211 1.408 . S
C213 C212 1.310 . S
C213 H233 0.930 . S
C214 C215 1.474 . S
C214 C216 1.285 . S
C214 H234 0.929 . S
C215 C212 1.461 . S
C215 C214 1.474 . S
C216 C211 1.342 . S
C216 C214 1.285 . S
C216 H235 0.930 . S
C217 C220 1.418 1_455 S
C217 C222 1.245 . S
C217 C223 1.428 . S
C218 C221 1.243 1_556 S
C218 C222 1.477 . S
C218 H236 0.932 . S
C219 C220 1.385 . S
C219 C221 1.462 1_656 S
C219 H237 0.929 . S
C220 C217 1.418 1_655 S
C220 C219 1.385 . S
C220 H238 0.934 . S
C221 C218 1.243 1_554 S
C221 C219 1.462 1_454 S
C222 C217 1.245 . S
C222 C218 1.477 . S
C222 H239 0.932 . S
C223 U206 2.882 . S
C223 C217 1.428 . S
C223 O226 1.301 . S
C223 O227 1.282 1_455 S
O224 U206 2.441 1_655 S
O224 C210 1.249 . S
O225 U206 2.420 1_655 S
O225 C210 1.202 . S
O226 U206 2.455 . S
O226 C223 1.301 . S
O227 U206 2.449 1_655 S
O227 C223 1.282 1_655 S
H228 C201 0.931 . S
H229 C203 0.929 . S
H230 C204 0.930 . S
H231 C205 0.931 . S
H232 C212 0.932 . S
H233 C213 0.930 . S
H234 C214 0.929 . S
H235 C216 0.930 . S
H236 C218 0.932 . S
H237 C219 0.929 . S
H238 C220 0.934 . S
H239 C222 0.932 . S
C240 C241 1.264 . S
C240 C245 1.479 . S
C240 C250 1.465 . S
C241 C240 1.264 . S
C241 C243 1.339 . S
C241 H268 0.931 . S
C242 C243 1.395 . S
C242 C244 1.320 . S
C243 C241 1.339 . S
C243 C242 1.395 . S
C243 H269 0.929 . S
C244 C242 1.320 . S
C244 C245 1.405 . S
C244 H270 0.930 . S
C245 C240 1.479 . S
C245 C244 1.405 . S
C245 H271 0.931 . S
U246 O247 2.454 . S
U246 O248 2.458 . S
U246 C249 2.984 . S
U246 C250 2.847 1_455 S
U246 C263 2.882 . S
U246 O264 2.441 1_455 S
U246 O265 2.420 1_455 S
U246 O266 2.455 . S
U246 O267 2.449 1_455 S
O247 U246 2.454 . S
O247 C249 1.353 . S
O248 U246 2.458 . S
O248 C249 1.286 . S
C249 U246 2.984 . S
C249 O247 1.353 . S
C249 O248 1.286 . S
C249 C251 1.363 . S
C250 C240 1.465 . S
C250 U246 2.847 1_655 S
C250 O264 1.249 . S
C250 O265 1.202 . S
C251 C249 1.363 . S
C251 C253 1.408 . S
C251 C256 1.342 . S
C252 C253 1.310 . S
C252 C255 1.461 . S
C252 H272 0.932 . S
C253 C251 1.408 . S
C253 C252 1.310 . S
C253 H273 0.930 . S
C254 C255 1.474 . S
C254 C256 1.285 . S
C254 H274 0.929 . S
C255 C252 1.461 . S
C255 C254 1.474 . S
C256 C251 1.342 . S
C256 C254 1.285 . S
C256 H275 0.930 . S
C257 C260 1.424 1_455 S
C257 C262 1.245 . S
C257 C263 1.428 . S
C258 C261 1.260 . S
C258 C262 1.477 . S
C258 H276 0.932 . S
C259 C260 1.384 . S
C259 C261 1.479 1_655 S
C259 H277 0.929 . S
C260 C257 1.424 1_655 S
C260 C259 1.384 . S
C260 H278 0.928 . S
C261 C258 1.260 . S
C261 C259 1.479 1_455 S
C262 C257 1.245 . S
C262 C258 1.477 . S
C262 H279 0.932 . S
C263 U246 2.882 . S
C263 C257 1.428 . S
C263 O266 1.301 . S
C263 O267 1.282 1_455 S
O264 U246 2.441 1_655 S
O264 C250 1.249 . S
O265 U246 2.420 1_655 S
O265 C250 1.202 . S
O266 U246 2.455 . S
O266 C263 1.301 . S
O267 U246 2.449 1_655 S
O267 C263 1.282 1_655 S
H268 C241 0.931 . S
H269 C243 0.929 . S
H270 C244 0.930 . S
H271 C245 0.931 . S
H272 C252 0.932 . S
H273 C253 0.930 . S
H274 C254 0.929 . S
H275 C256 0.930 . S
H276 C258 0.932 . S
H277 C259 0.929 . S
H278 C260 0.928 . S
H279 C262 0.932 . S
C280 C281 1.264 . S
C280 C285 1.479 . S
C280 C290 1.465 . S
C281 C280 1.264 . S
C281 C283 1.339 . S
C281 H308 0.931 . S
C282 C283 1.395 . S
C282 C284 1.320 . S
C283 C281 1.339 . S
C283 C282 1.395 . S
C283 H309 0.929 . S
C284 C282 1.320 . S
C284 C285 1.405 . S
C284 H310 0.930 . S
C285 C280 1.479 . S
C285 C284 1.405 . S
C285 H311 0.931 . S
U286 O287 2.454 . S
U286 O288 2.458 . S
U286 C289 2.984 . S
U286 C290 2.847 1_545 S
U286 C303 2.882 . S
U286 O304 2.441 1_545 S
U286 O305 2.420 1_545 S
U286 O306 2.455 . S
U286 O307 2.449 1_545 S
O287 U286 2.454 . S
O287 C289 1.353 . S
O288 U286 2.458 . S
O288 C289 1.286 . S
C289 U286 2.984 . S
C289 O287 1.353 . S
C289 O288 1.286 . S
C289 C291 1.363 . S
C290 C280 1.465 . S
C290 U286 2.847 1_565 S
C290 O304 1.249 . S
C290 O305 1.202 . S
C291 C289 1.363 . S
C291 C293 1.408 . S
C291 C296 1.342 . S
C292 C293 1.310 . S
C292 C295 1.461 . S
C292 H312 0.932 . S
C293 C291 1.408 . S
C293 C292 1.310 . S
C293 H313 0.930 . S
C294 C295 1.474 . S
C294 C296 1.285 . S
C294 H314 0.929 . S
C295 C292 1.461 . S
C295 C294 1.474 . S
C296 C291 1.342 . S
C296 C294 1.285 . S
C296 H315 0.930 . S
C297 C300 1.424 1_545 S
C297 C302 1.245 . S
C297 C303 1.428 . S
C298 C301 1.260 . S
C298 C302 1.477 . S
C298 H316 0.932 . S
C299 C300 1.384 . S
C299 C301 1.479 1_565 S
C299 H317 0.929 . S
C300 C297 1.424 1_565 S
C300 C299 1.384 . S
C300 H318 0.928 . S
C301 C298 1.260 . S
C301 C299 1.479 1_545 S
C302 C297 1.245 . S
C302 C298 1.477 . S
C302 H319 0.932 . S
C303 U286 2.882 . S
C303 C297 1.428 . S
C303 O306 1.301 . S
C303 O307 1.282 1_545 S
O304 U286 2.441 1_565 S
O304 C290 1.249 . S
O305 U286 2.420 1_565 S
O305 C290 1.202 . S
O306 U286 2.455 . S
O306 C303 1.301 . S
O307 U286 2.449 1_565 S
O307 C303 1.282 1_565 S
H308 C281 0.931 . S
H309 C283 0.929 . S
H310 C284 0.930 . S
H311 C285 0.931 . S
H312 C292 0.932 . S
H313 C293 0.930 . S
H314 C294 0.929 . S
H315 C296 0.930 . S
H316 C298 0.932 . S
H317 C299 0.929 . S
H318 C300 0.928 . S
H319 C302 0.932 . S
C320 C321 1.264 . S
C320 C325 1.479 . S
C320 C330 1.465 . S
C321 C320 1.264 . S
C321 C323 1.339 . S
C321 H348 0.931 . S
C322 C323 1.395 . S
C322 C324 1.320 . S
C323 C321 1.339 . S
C323 C322 1.395 . S
C323 H349 0.929 . S
C324 C322 1.320 . S
C324 C325 1.405 . S
C324 H350 0.930 . S
C325 C320 1.479 . S
C325 C324 1.405 . S
C325 H351 0.931 . S
U326 O327 2.454 . S
U326 O328 2.458 . S
U326 C329 2.984 . S
U326 C330 2.847 . S
U326 C343 2.882 . S
U326 O344 2.441 . S
U326 O345 2.420 . S
U326 O346 2.455 . S
U326 O347 2.449 . S
O327 U326 2.454 . S
O327 C329 1.353 . S
O328 U326 2.458 . S
O328 C329 1.286 . S
C329 U326 2.984 . S
C329 O327 1.353 . S
C329 O328 1.286 . S
C329 C331 1.363 . S
C330 C320 1.465 . S
C330 U326 2.847 . S
C330 O344 1.249 . S
C330 O345 1.202 . S
C331 C329 1.363 . S
C331 C333 1.408 . S
C331 C336 1.342 . S
C332 C333 1.310 . S
C332 C335 1.461 . S
C332 H352 0.932 . S
C333 C331 1.408 . S
C333 C332 1.310 . S
C333 H353 0.930 . S
C334 C335 1.474 . S
C334 C336 1.285 . S
C334 H354 0.929 . S
C335 C332 1.461 . S
C335 C334 1.474 . S
C336 C331 1.342 . S
C336 C334 1.285 . S
C336 H355 0.930 . S
C337 C340 1.424 . S
C337 C342 1.245 . S
C337 C343 1.428 . S
C338 C341 1.260 . S
C338 C342 1.477 . S
C338 H356 0.932 . S
C339 C340 1.384 . S
C339 C341 1.479 . S
C339 H357 0.929 . S
C340 C337 1.424 . S
C340 C339 1.384 . S
C340 H358 0.928 . S
C341 C338 1.260 . S
C341 C339 1.479 . S
C342 C337 1.245 . S
C342 C338 1.477 . S
C342 H359 0.932 . S
C343 U326 2.882 . S
C343 C337 1.428 . S
C343 O346 1.301 . S
C343 O347 1.282 . S
O344 U326 2.441 . S
O344 C330 1.249 . S
O345 U326 2.420 . S
O345 C330 1.202 . S
O346 U326 2.455 . S
O346 C343 1.301 . S
O347 U326 2.449 . S
O347 C343 1.282 . S
H348 C321 0.931 . S
H349 C323 0.929 . S
H350 C324 0.930 . S
H351 C325 0.931 . S
H352 C332 0.932 . S
H353 C333 0.930 . S
H354 C334 0.929 . S
H355 C336 0.930 . S
H356 C338 0.932 . S
H357 C339 0.929 . S
H358 C340 0.928 . S
H359 C342 0.932 . S
C360 C361 1.391 . S
C360 C362 1.394 . S
C360 H376 0.931 . S
C361 C360 1.391 . S
C361 C365 1.376 . S
C362 C360 1.394 . S
C362 C363 1.369 . S
C362 C366 1.531 . S
C363 C362 1.369 . S
C363 C364 1.410 . S
C363 C371 1.503 . S
C364 C363 1.410 . S
C364 C365 1.392 . S
C364 C367 1.511 . S
C365 C361 1.376 . S
C365 C364 1.392 . S
C365 H377 0.929 . S
C366 C362 1.531 . S
C366 H378 0.960 . S
C366 H379 0.962 . S
C366 H380 0.960 . S
C367 C364 1.511 . S
C367 H381 0.961 . S
C367 H382 0.961 . S
C367 H383 0.961 . S
C368 C369 1.370 . S
C368 C370 1.363 . S
C368 H384 0.931 . S
C369 C368 1.370 . S
C369 C373 1.408 . S
C370 C368 1.363 . S
C370 C371 1.370 . S
C370 C374 1.524 . S
C371 C363 1.503 . S
C371 C370 1.370 . S
C371 C372 1.403 . S
C372 C371 1.403 . S
C372 C373 1.404 . S
C372 C375 1.539 . S
C373 C369 1.408 . S
C373 C372 1.404 . S
C373 H385 0.930 . S
C374 C370 1.524 . S
C374 H386 0.956 . S
C374 H387 0.961 . S
C374 H388 0.961 . S
C375 C372 1.539 . S
C375 H389 0.958 . S
C375 H390 0.961 . S
C375 H391 0.960 . S
H376 C360 0.931 . S
H377 C365 0.929 . S
H378 C366 0.960 . S
H379 C366 0.962 . S
H380 C366 0.960 . S
H381 C367 0.961 . S
H382 C367 0.961 . S
H383 C367 0.961 . S
H384 C368 0.931 . S
H385 C373 0.930 . S
H386 C374 0.956 . S
H387 C374 0.961 . S
H388 C374 0.961 . S
H389 C375 0.958 . S
H390 C375 0.961 . S
H391 C375 0.960 . S
C392 C393 1.391 . S
C392 C394 1.394 . S
C392 H408 0.931 . S
C393 C392 1.391 . S
C393 C397 1.376 . S
C394 C392 1.394 . S
C394 C395 1.369 . S
C394 C398 1.531 . S
C395 C394 1.369 . S
C395 C396 1.410 . S
C395 C403 1.503 . S
C396 C395 1.410 . S
C396 C397 1.392 . S
C396 C399 1.511 . S
C397 C393 1.376 . S
C397 C396 1.392 . S
C397 H409 0.929 . S
C398 C394 1.531 . S
C398 H410 0.960 . S
C398 H411 0.962 . S
C398 H412 0.960 . S
C399 C396 1.511 . S
C399 H413 0.961 . S
C399 H414 0.961 . S
C399 H415 0.961 . S
C400 C401 1.370 . S
C400 C402 1.363 . S
C400 H416 0.931 . S
C401 C400 1.370 . S
C401 C405 1.408 . S
C402 C400 1.363 . S
C402 C403 1.370 . S
C402 C406 1.524 . S
C403 C395 1.503 . S
C403 C402 1.370 . S
C403 C404 1.403 . S
C404 C403 1.403 . S
C404 C405 1.404 . S
C404 C407 1.539 . S
C405 C401 1.408 . S
C405 C404 1.404 . S
C405 H417 0.930 . S
C406 C402 1.524 . S
C406 H418 0.956 . S
C406 H419 0.961 . S
C406 H420 0.961 . S
C407 C404 1.539 . S
C407 H421 0.958 . S
C407 H422 0.961 . S
C407 H423 0.960 . S
H408 C392 0.931 . S
H409 C397 0.929 . S
H410 C398 0.960 . S
H411 C398 0.962 . S
H412 C398 0.960 . S
H413 C399 0.961 . S
H414 C399 0.961 . S
H415 C399 0.961 . S
H416 C400 0.931 . S
H417 C405 0.930 . S
H418 C406 0.956 . S
H419 C406 0.961 . S
H420 C406 0.961 . S
H421 C407 0.958 . S
H422 C407 0.961 . S
H423 C407 0.960 . S
C424 C425 1.391 . S
C424 C426 1.394 . S
C424 H440 0.931 . S
C425 C424 1.391 . S
C425 C429 1.376 . S
C426 C424 1.394 . S
C426 C427 1.369 . S
C426 C430 1.531 . S
C427 C426 1.369 . S
C427 C428 1.410 . S
C427 C435 1.503 . S
C428 C427 1.410 . S
C428 C429 1.392 . S
C428 C431 1.511 . S
C429 C425 1.376 . S
C429 C428 1.392 . S
C429 H441 0.929 . S
C430 C426 1.531 . S
C430 H442 0.960 . S
C430 H443 0.962 . S
C430 H444 0.960 . S
C431 C428 1.511 . S
C431 H445 0.961 . S
C431 H446 0.961 . S
C431 H447 0.961 . S
C432 C433 1.370 . S
C432 C434 1.363 . S
C432 H448 0.931 . S
C433 C432 1.370 . S
C433 C437 1.408 . S
C434 C432 1.363 . S
C434 C435 1.370 . S
C434 C438 1.524 . S
C435 C427 1.503 . S
C435 C434 1.370 . S
C435 C436 1.403 . S
C436 C435 1.403 . S
C436 C437 1.404 . S
C436 C439 1.539 . S
C437 C433 1.408 . S
C437 C436 1.404 . S
C437 H449 0.930 . S
C438 C434 1.524 . S
C438 H450 0.956 . S
C438 H451 0.961 . S
C438 H452 0.961 . S
C439 C436 1.539 . S
C439 H453 0.958 . S
C439 H454 0.961 . S
C439 H455 0.960 . S
H440 C424 0.931 . S
H441 C429 0.929 . S
H442 C430 0.960 . S
H443 C430 0.962 . S
H444 C430 0.960 . S
H445 C431 0.961 . S
H446 C431 0.961 . S
H447 C431 0.961 . S
H448 C432 0.931 . S
H449 C437 0.930 . S
H450 C438 0.956 . S
H451 C438 0.961 . S
H452 C438 0.961 . S
H453 C439 0.958 . S
H454 C439 0.961 . S
H455 C439 0.960 . S
C456 C457 1.391 . S
C456 C458 1.394 . S
C456 H472 0.931 . S
C457 C456 1.391 . S
C457 C461 1.376 . S
C458 C456 1.394 . S
C458 C459 1.369 . S
C458 C462 1.531 . S
C459 C458 1.369 . S
C459 C460 1.410 . S
C459 C467 1.503 . S
C460 C459 1.410 . S
C460 C461 1.392 . S
C460 C463 1.511 . S
C461 C457 1.376 . S
C461 C460 1.392 . S
C461 H473 0.929 . S
C462 C458 1.531 . S
C462 H474 0.960 . S
C462 H475 0.962 . S
C462 H476 0.960 . S
C463 C460 1.511 . S
C463 H477 0.961 . S
C463 H478 0.961 . S
C463 H479 0.961 . S
C464 C465 1.370 . S
C464 C466 1.363 . S
C464 H480 0.931 . S
C465 C464 1.370 . S
C465 C469 1.408 . S
C466 C464 1.363 . S
C466 C467 1.370 . S
C466 C470 1.524 . S
C467 C459 1.503 . S
C467 C466 1.370 . S
C467 C468 1.403 . S
C468 C467 1.403 . S
C468 C469 1.404 . S
C468 C471 1.539 . S
C469 C465 1.408 . S
C469 C468 1.404 . S
C469 H481 0.930 . S
C470 C466 1.524 . S
C470 H482 0.956 . S
C470 H483 0.961 . S
C470 H484 0.961 . S
C471 C468 1.539 . S
C471 H485 0.958 . S
C471 H486 0.961 . S
C471 H487 0.960 . S
H472 C456 0.931 . S
H473 C461 0.929 . S
H474 C462 0.960 . S
H475 C462 0.962 . S
H476 C462 0.960 . S
H477 C463 0.961 . S
H478 C463 0.961 . S
H479 C463 0.961 . S
H480 C464 0.931 . S
H481 C469 0.930 . S
H482 C470 0.956 . S
H483 C470 0.961 . S
H484 C470 0.961 . S
H485 C471 0.958 . S
H486 C471 0.961 . S
H487 C471 0.960 . S
C488 C489 1.391 . S
C488 C490 1.394 . S
C488 H504 0.931 . S
C489 C488 1.391 . S
C489 C493 1.376 . S
C490 C488 1.394 . S
C490 C491 1.369 . S
C490 C494 1.531 . S
C491 C490 1.369 . S
C491 C492 1.410 . S
C491 C499 1.503 . S
C492 C491 1.410 . S
C492 C493 1.392 . S
C492 C495 1.511 . S
C493 C489 1.376 . S
C493 C492 1.392 . S
C493 H505 0.929 . S
C494 C490 1.531 . S
C494 H506 0.960 . S
C494 H507 0.962 . S
C494 H508 0.960 . S
C495 C492 1.511 . S
C495 H509 0.961 . S
C495 H510 0.961 . S
C495 H511 0.961 . S
C496 C497 1.370 . S
C496 C498 1.363 . S
C496 H512 0.931 . S
C497 C496 1.370 . S
C497 C501 1.408 . S
C498 C496 1.363 . S
C498 C499 1.370 . S
C498 C502 1.524 . S
C499 C491 1.503 . S
C499 C498 1.370 . S
C499 C500 1.403 . S
C500 C499 1.403 . S
C500 C501 1.404 . S
C500 C503 1.539 . S
C501 C497 1.408 . S
C501 C500 1.404 . S
C501 H513 0.930 . S
C502 C498 1.524 . S
C502 H514 0.956 . S
C502 H515 0.961 . S
C502 H516 0.961 . S
C503 C500 1.539 . S
C503 H517 0.958 . S
C503 H518 0.961 . S
C503 H519 0.960 . S
H504 C488 0.931 . S
H505 C493 0.929 . S
H506 C494 0.960 . S
H507 C494 0.962 . S
H508 C494 0.960 . S
H509 C495 0.961 . S
H510 C495 0.961 . S
H511 C495 0.961 . S
H512 C496 0.931 . S
H513 C501 0.930 . S
H514 C502 0.956 . S
H515 C502 0.961 . S
H516 C502 0.961 . S
H517 C503 0.958 . S
H518 C503 0.961 . S
H519 C503 0.960 . S
C520 C521 1.391 . S
C520 C522 1.394 . S
C520 H536 0.931 . S
C521 C520 1.391 . S
C521 C525 1.376 . S
C522 C520 1.394 . S
C522 C523 1.369 . S
C522 C526 1.531 . S
C523 C522 1.369 . S
C523 C524 1.410 . S
C523 C531 1.503 . S
C524 C523 1.410 . S
C524 C525 1.392 . S
C524 C527 1.511 . S
C525 C521 1.376 . S
C525 C524 1.392 . S
C525 H537 0.929 . S
C526 C522 1.531 . S
C526 H538 0.960 . S
C526 H539 0.962 . S
C526 H540 0.960 . S
C527 C524 1.511 . S
C527 H541 0.961 . S
C527 H542 0.961 . S
C527 H543 0.961 . S
C528 C529 1.370 . S
C528 C530 1.363 . S
C528 H544 0.931 . S
C529 C528 1.370 . S
C529 C533 1.408 . S
C530 C528 1.363 . S
C530 C531 1.370 . S
C530 C534 1.524 . S
C531 C523 1.503 . S
C531 C530 1.370 . S
C531 C532 1.403 . S
C532 C531 1.403 . S
C532 C533 1.404 . S
C532 C535 1.539 . S
C533 C529 1.408 . S
C533 C532 1.404 . S
C533 H545 0.930 . S
C534 C530 1.524 . S
C534 H546 0.956 . S
C534 H547 0.961 . S
C534 H548 0.961 . S
C535 C532 1.539 . S
C535 H549 0.958 . S
C535 H550 0.961 . S
C535 H551 0.960 . S
H536 C520 0.931 . S
H537 C525 0.929 . S
H538 C526 0.960 . S
H539 C526 0.962 . S
H540 C526 0.960 . S
H541 C527 0.961 . S
H542 C527 0.961 . S
H543 C527 0.961 . S
H544 C528 0.931 . S
H545 C533 0.930 . S
H546 C534 0.956 . S
H547 C534 0.961 . S
H548 C534 0.961 . S
H549 C535 0.958 . S
H550 C535 0.961 . S
H551 C535 0.960 . S
C552 C553 1.391 . S
C552 C554 1.394 . S
C552 H568 0.931 . S
C553 C552 1.391 . S
C553 C557 1.376 . S
C554 C552 1.394 . S
C554 C555 1.369 . S
C554 C558 1.531 . S
C555 C554 1.369 . S
C555 C556 1.410 . S
C555 C563 1.503 . S
C556 C555 1.410 . S
C556 C557 1.392 . S
C556 C559 1.511 . S
C557 C553 1.376 . S
C557 C556 1.392 . S
C557 H569 0.929 . S
C558 C554 1.531 . S
C558 H570 0.960 . S
C558 H571 0.962 . S
C558 H572 0.960 . S
C559 C556 1.511 . S
C559 H573 0.961 . S
C559 H574 0.961 . S
C559 H575 0.961 . S
C560 C561 1.370 . S
C560 C562 1.363 . S
C560 H576 0.931 . S
C561 C560 1.370 . S
C561 C565 1.408 . S
C562 C560 1.363 . S
C562 C563 1.370 . S
C562 C566 1.524 . S
C563 C555 1.503 . S
C563 C562 1.370 . S
C563 C564 1.403 . S
C564 C563 1.403 . S
C564 C565 1.404 . S
C564 C567 1.539 . S
C565 C561 1.408 . S
C565 C564 1.404 . S
C565 H577 0.930 . S
C566 C562 1.524 . S
C566 H578 0.956 . S
C566 H579 0.961 . S
C566 H580 0.961 . S
C567 C564 1.539 . S
C567 H581 0.958 . S
C567 H582 0.961 . S
C567 H583 0.960 . S
H568 C552 0.931 . S
H569 C557 0.929 . S
H570 C558 0.960 . S
H571 C558 0.962 . S
H572 C558 0.960 . S
H573 C559 0.961 . S
H574 C559 0.961 . S
H575 C559 0.961 . S
H576 C560 0.931 . S
H577 C565 0.930 . S
H578 C566 0.956 . S
H579 C566 0.961 . S
H580 C566 0.961 . S
H581 C567 0.958 . S
H582 C567 0.961 . S
H583 C567 0.960 . S
C584 C585 1.391 . S
C584 C586 1.394 . S
C584 H600 0.931 . S
C585 C584 1.391 . S
C585 C589 1.376 . S
C586 C584 1.394 . S
C586 C587 1.369 . S
C586 C590 1.531 . S
C587 C586 1.369 . S
C587 C588 1.410 . S
C587 C595 1.503 . S
C588 C587 1.410 . S
C588 C589 1.392 . S
C588 C591 1.511 . S
C589 C585 1.376 . S
C589 C588 1.392 . S
C589 H601 0.929 . S
C590 C586 1.531 . S
C590 H602 0.960 . S
C590 H603 0.962 . S
C590 H604 0.960 . S
C591 C588 1.511 . S
C591 H605 0.961 . S
C591 H606 0.961 . S
C591 H607 0.961 . S
C592 C593 1.370 . S
C592 C594 1.363 . S
C592 H608 0.931 . S
C593 C592 1.370 . S
C593 C597 1.408 . S
C594 C592 1.363 . S
C594 C595 1.370 . S
C594 C598 1.524 . S
C595 C587 1.503 . S
C595 C594 1.370 . S
C595 C596 1.403 . S
C596 C595 1.403 . S
C596 C597 1.404 . S
C596 C599 1.539 . S
C597 C593 1.408 . S
C597 C596 1.404 . S
C597 H609 0.930 . S
C598 C594 1.524 . S
C598 H610 0.956 . S
C598 H611 0.961 . S
C598 H612 0.961 . S
C599 C596 1.539 . S
C599 H613 0.958 . S
C599 H614 0.961 . S
C599 H615 0.960 . S
H600 C584 0.931 . S
H601 C589 0.929 . S
H602 C590 0.960 . S
H603 C590 0.962 . S
H604 C590 0.960 . S
H605 C591 0.961 . S
H606 C591 0.961 . S
H607 C591 0.961 . S
H608 C592 0.931 . S
H609 C597 0.930 . S
H610 C598 0.956 . S
H611 C598 0.961 . S
H612 C598 0.961 . S
H613 C599 0.958 . S
H614 C599 0.961 . S
H615 C599 0.960 . S
C616 C617 1.391 . S
C616 C618 1.394 . S
C616 H632 0.931 . S
C617 C616 1.391 . S
C617 C621 1.376 . S
C618 C616 1.394 . S
C618 C619 1.369 . S
C618 C622 1.531 . S
C619 C618 1.369 . S
C619 C620 1.410 . S
C619 C627 1.503 . S
C620 C619 1.410 . S
C620 C621 1.392 . S
C620 C623 1.511 . S
C621 C617 1.376 . S
C621 C620 1.392 . S
C621 H633 0.929 . S
C622 C618 1.531 . S
C622 H634 0.960 . S
C622 H635 0.962 . S
C622 H636 0.960 . S
C623 C620 1.511 . S
C623 H637 0.961 . S
C623 H638 0.961 . S
C623 H639 0.961 . S
C624 C625 1.370 . S
C624 C626 1.363 . S
C624 H640 0.931 . S
C625 C624 1.370 . S
C625 C629 1.408 . S
C626 C624 1.363 . S
C626 C627 1.370 . S
C626 C630 1.524 . S
C627 C619 1.503 . S
C627 C626 1.370 . S
C627 C628 1.403 . S
C628 C627 1.403 . S
C628 C629 1.404 . S
C628 C631 1.539 . S
C629 C625 1.408 . S
C629 C628 1.404 . S
C629 H641 0.930 . S
C630 C626 1.524 . S
C630 H642 0.956 . S
C630 H643 0.961 . S
C630 H644 0.961 . S
C631 C628 1.539 . S
C631 H645 0.958 . S
C631 H646 0.961 . S
C631 H647 0.960 . S
H632 C616 0.931 . S
H633 C621 0.929 . S
H634 C622 0.960 . S
H635 C622 0.962 . S
H636 C622 0.960 . S
H637 C623 0.961 . S
H638 C623 0.961 . S
H639 C623 0.961 . S
H640 C624 0.931 . S
H641 C629 0.930 . S
H642 C630 0.956 . S
H643 C630 0.961 . S
H644 C630 0.961 . S
H645 C631 0.958 . S
H646 C631 0.961 . S
H647 C631 0.960 . S
C648 C649 1.391 . S
C648 C650 1.394 . S
C648 H664 0.931 . S
C649 C648 1.391 . S
C649 C653 1.376 . S
C650 C648 1.394 . S
C650 C651 1.369 . S
C650 C654 1.531 . S
C651 C650 1.369 . S
C651 C652 1.410 . S
C651 C659 1.503 . S
C652 C651 1.410 . S
C652 C653 1.392 . S
C652 C655 1.511 . S
C653 C649 1.376 . S
C653 C652 1.392 . S
C653 H665 0.929 . S
C654 C650 1.531 . S
C654 H666 0.960 . S
C654 H667 0.962 . S
C654 H668 0.960 . S
C655 C652 1.511 . S
C655 H669 0.961 . S
C655 H670 0.961 . S
C655 H671 0.961 . S
C656 C657 1.370 . S
C656 C658 1.363 . S
C656 H672 0.931 . S
C657 C656 1.370 . S
C657 C661 1.408 . S
C658 C656 1.363 . S
C658 C659 1.370 . S
C658 C662 1.524 . S
C659 C651 1.503 . S
C659 C658 1.370 . S
C659 C660 1.403 . S
C660 C659 1.403 . S
C660 C661 1.404 . S
C660 C663 1.539 . S
C661 C657 1.408 . S
C661 C660 1.404 . S
C661 H673 0.930 . S
C662 C658 1.524 . S
C662 H674 0.956 . S
C662 H675 0.961 . S
C662 H676 0.961 . S
C663 C660 1.539 . S
C663 H677 0.958 . S
C663 H678 0.961 . S
C663 H679 0.960 . S
H664 C648 0.931 . S
H665 C653 0.929 . S
H666 C654 0.960 . S
H667 C654 0.962 . S
H668 C654 0.960 . S
H669 C655 0.961 . S
H670 C655 0.961 . S
H671 C655 0.961 . S
H672 C656 0.931 . S
H673 C661 0.930 . S
H674 C662 0.956 . S
H675 C662 0.961 . S
H676 C662 0.961 . S
H677 C663 0.958 . S
H678 C663 0.961 . S
H679 C663 0.960 . S
C680 C681 1.391 . S
C680 C682 1.394 . S
C680 H696 0.931 . S
C681 C680 1.391 . S
C681 C685 1.376 . S
C682 C680 1.394 . S
C682 C683 1.369 . S
C682 C686 1.531 . S
C683 C682 1.369 . S
C683 C684 1.410 . S
C683 C691 1.503 . S
C684 C683 1.410 . S
C684 C685 1.392 . S
C684 C687 1.511 . S
C685 C681 1.376 . S
C685 C684 1.392 . S
C685 H697 0.929 . S
C686 C682 1.531 . S
C686 H698 0.960 . S
C686 H699 0.962 . S
C686 H700 0.960 . S
C687 C684 1.511 . S
C687 H701 0.961 . S
C687 H702 0.961 . S
C687 H703 0.961 . S
C688 C689 1.370 . S
C688 C690 1.363 . S
C688 H704 0.931 . S
C689 C688 1.370 . S
C689 C693 1.408 . S
C690 C688 1.363 . S
C690 C691 1.370 . S
C690 C694 1.524 . S
C691 C683 1.503 . S
C691 C690 1.370 . S
C691 C692 1.403 . S
C692 C691 1.403 . S
C692 C693 1.404 . S
C692 C695 1.539 . S
C693 C689 1.408 . S
C693 C692 1.404 . S
C693 H705 0.930 . S
C694 C690 1.524 . S
C694 H706 0.956 . S
C694 H707 0.961 . S
C694 H708 0.961 . S
C695 C692 1.539 . S
C695 H709 0.958 . S
C695 H710 0.961 . S
C695 H711 0.960 . S
H696 C680 0.931 . S
H697 C685 0.929 . S
H698 C686 0.960 . S
H699 C686 0.962 . S
H700 C686 0.960 . S
H701 C687 0.961 . S
H702 C687 0.961 . S
H703 C687 0.961 . S
H704 C688 0.931 . S
H705 C693 0.930 . S
H706 C694 0.956 . S
H707 C694 0.961 . S
H708 C694 0.961 . S
H709 C695 0.958 . S
H710 C695 0.961 . S
H711 C695 0.960 . S
C712 C713 1.391 . S
C712 C714 1.394 . S
C712 H728 0.931 . S
C713 C712 1.391 . S
C713 C717 1.376 . S
C714 C712 1.394 . S
C714 C715 1.369 . S
C714 C718 1.531 . S
C715 C714 1.369 . S
C715 C716 1.410 . S
C715 C723 1.503 . S
C716 C715 1.410 . S
C716 C717 1.392 . S
C716 C719 1.511 . S
C717 C713 1.376 . S
C717 C716 1.392 . S
C717 H729 0.929 . S
C718 C714 1.531 . S
C718 H730 0.960 . S
C718 H731 0.962 . S
C718 H732 0.960 . S
C719 C716 1.511 . S
C719 H733 0.961 . S
C719 H734 0.961 . S
C719 H735 0.961 . S
C720 C721 1.370 . S
C720 C722 1.363 . S
C720 H736 0.931 . S
C721 C720 1.370 . S
C721 C725 1.408 . S
C722 C720 1.363 . S
C722 C723 1.370 . S
C722 C726 1.524 . S
C723 C715 1.503 . S
C723 C722 1.370 . S
C723 C724 1.403 . S
C724 C723 1.403 . S
C724 C725 1.404 . S
C724 C727 1.539 . S
C725 C721 1.408 . S
C725 C724 1.404 . S
C725 H737 0.930 . S
C726 C722 1.524 . S
C726 H738 0.956 . S
C726 H739 0.961 . S
C726 H740 0.961 . S
C727 C724 1.539 . S
C727 H741 0.958 . S
C727 H742 0.961 . S
C727 H743 0.960 . S
H728 C712 0.931 . S
H729 C717 0.929 . S
H730 C718 0.960 . S
H731 C718 0.962 . S
H732 C718 0.960 . S
H733 C719 0.961 . S
H734 C719 0.961 . S
H735 C719 0.961 . S
H736 C720 0.931 . S
H737 C725 0.930 . S
H738 C726 0.956 . S
H739 C726 0.961 . S
H740 C726 0.961 . S
H741 C727 0.958 . S
H742 C727 0.961 . S
H743 C727 0.960 . S
C744 C745 1.391 . S
C744 C746 1.394 . S
C744 H760 0.931 . S
C745 C744 1.391 . S
C745 C749 1.376 1_455 S
C746 C744 1.394 . S
C746 C747 1.369 . S
C746 C750 1.531 . S
C747 C746 1.369 . S
C747 C748 1.410 1_455 S
C747 C755 1.503 . S
C748 C747 1.410 1_655 S
C748 C749 1.392 . S
C748 C751 1.511 . S
C749 C745 1.376 1_655 S
C749 C748 1.392 . S
C749 H761 0.929 . S
C750 C746 1.531 . S
C750 H762 0.960 . S
C750 H763 0.962 . S
C750 H764 0.960 . S
C751 C748 1.511 . S
C751 H765 0.961 . S
C751 H766 0.961 . S
C751 H767 0.961 . S
C752 C753 1.370 . S
C752 C754 1.363 . S
C752 H768 0.931 . S
C753 C752 1.370 . S
C753 C757 1.408 1_455 S
C754 C752 1.363 . S
C754 C755 1.370 . S
C754 C758 1.524 . S
C755 C747 1.503 . S
C755 C754 1.370 . S
C755 C756 1.403 1_455 S
C756 C755 1.403 1_655 S
C756 C757 1.404 . S
C756 C759 1.539 . S
C757 C753 1.408 1_655 S
C757 C756 1.404 . S
C757 H769 0.930 . S
C758 C754 1.524 . S
C758 H770 0.956 . S
C758 H771 0.961 . S
C758 H772 0.961 . S
C759 C756 1.539 . S
C759 H773 0.958 . S
C759 H774 0.961 . S
C759 H775 0.960 . S
H760 C744 0.931 . S
H761 C749 0.929 . S
H762 C750 0.960 . S
H763 C750 0.962 . S
H764 C750 0.960 . S
H765 C751 0.961 . S
H766 C751 0.961 . S
H767 C751 0.961 . S
H768 C752 0.931 . S
H769 C757 0.930 . S
H770 C758 0.956 . S
H771 C758 0.961 . S
H772 C758 0.961 . S
H773 C759 0.958 . S
H774 C759 0.961 . S
H775 C759 0.960 . S
C776 C777 1.391 . S
C776 C778 1.394 . S
C776 H792 0.931 . S
C777 C776 1.391 . S
C777 C781 1.376 1_545 S
C778 C776 1.394 . S
C778 C779 1.369 . S
C778 C782 1.531 . S
C779 C778 1.369 . S
C779 C780 1.410 1_545 S
C779 C787 1.503 . S
C780 C779 1.410 1_565 S
C780 C781 1.392 . S
C780 C783 1.511 . S
C781 C777 1.376 1_565 S
C781 C780 1.392 . S
C781 H793 0.929 . S
C782 C778 1.531 . S
C782 H794 0.960 . S
C782 H795 0.962 . S
C782 H796 0.960 . S
C783 C780 1.511 . S
C783 H797 0.961 . S
C783 H798 0.961 . S
C783 H799 0.961 . S
C784 C785 1.370 . S
C784 C786 1.363 . S
C784 H800 0.931 . S
C785 C784 1.370 . S
C785 C789 1.408 . S
C786 C784 1.363 . S
C786 C787 1.370 . S
C786 C790 1.524 . S
C787 C779 1.503 . S
C787 C786 1.370 . S
C787 C788 1.403 . S
C788 C787 1.403 . S
C788 C789 1.404 . S
C788 C791 1.535 1_545 S
C789 C785 1.408 . S
C789 C788 1.404 . S
C789 H801 0.930 . S
C790 C786 1.524 . S
C790 H802 0.956 . S
C790 H803 0.961 . S
C790 H804 0.961 . S
C791 C788 1.535 1_565 S
C791 H805 0.956 1_565 S
C791 H806 0.965 . S
C791 H807 0.962 . S
H792 C776 0.931 . S
H793 C781 0.929 . S
H794 C782 0.960 . S
H795 C782 0.962 . S
H796 C782 0.960 . S
H797 C783 0.961 . S
H798 C783 0.961 . S
H799 C783 0.961 . S
H800 C784 0.931 . S
H801 C789 0.930 . S
H802 C790 0.956 . S
H803 C790 0.961 . S
H804 C790 0.961 . S
H805 C791 0.956 1_545 S
H806 C791 0.965 . S
H807 C791 0.962 . S
C808 C809 1.391 . S
C808 C810 1.394 . S
C808 H824 0.931 . S
C809 C808 1.391 . S
C809 C813 1.376 . S
C810 C808 1.394 . S
C810 C811 1.369 . S
C810 C814 1.531 . S
C811 C810 1.369 . S
C811 C812 1.410 . S
C811 C819 1.503 . S
C812 C811 1.410 . S
C812 C813 1.392 . S
C812 C815 1.511 . S
C813 C809 1.376 . S
C813 C812 1.392 . S
C813 H825 0.929 . S
C814 C810 1.531 . S
C814 H826 0.960 . S
C814 H827 0.962 . S
C814 H828 0.960 . S
C815 C812 1.511 . S
C815 H829 0.961 . S
C815 H830 0.961 . S
C815 H831 0.961 . S
C816 C817 1.370 . S
C816 C818 1.363 . S
C816 H832 0.931 . S
C817 C816 1.370 . S
C817 C821 1.408 . S
C818 C816 1.363 . S
C818 C819 1.370 . S
C818 C822 1.524 . S
C819 C811 1.503 . S
C819 C818 1.370 . S
C819 C820 1.403 . S
C820 C819 1.403 . S
C820 C821 1.404 . S
C820 C823 1.539 . S
C821 C817 1.408 . S
C821 C820 1.404 . S
C821 H833 0.930 . S
C822 C818 1.524 . S
C822 H834 0.956 . S
C822 H835 0.961 . S
C822 H836 0.961 . S
C823 C820 1.539 . S
C823 H837 0.958 . S
C823 H838 0.961 . S
C823 H839 0.960 . S
H824 C808 0.931 . S
H825 C813 0.929 . S
H826 C814 0.960 . S
H827 C814 0.962 . S
H828 C814 0.960 . S
H829 C815 0.961 . S
H830 C815 0.961 . S
H831 C815 0.961 . S
H832 C816 0.931 . S
H833 C821 0.930 . S
H834 C822 0.956 . S
H835 C822 0.961 . S
H836 C822 0.961 . S
H837 C823 0.958 . S
H838 C823 0.961 . S
H839 C823 0.960 . S
C840 C841 1.391 . S
C840 C842 1.394 . S
C840 H856 0.931 . S
C841 C840 1.391 . S
C841 C845 1.376 1_545 S
C842 C840 1.394 . S
C842 C843 1.369 . S
C842 C846 1.531 . S
C843 C842 1.369 . S
C843 C844 1.410 1_545 S
C843 C851 1.503 . S
C844 C843 1.410 1_565 S
C844 C845 1.394 . S
C844 C847 1.511 . S
C845 C841 1.376 1_565 S
C845 C844 1.394 . S
C845 H857 0.929 . S
C846 C842 1.531 . S
C846 H858 0.960 . S
C846 H859 0.962 . S
C846 H860 0.960 . S
C847 C844 1.511 . S
C847 H861 0.961 . S
C847 H862 0.961 . S
C847 H863 0.923 1_565 S
C848 C849 1.370 1_565 S
C848 C850 1.363 . S
C848 H864 0.931 . S
C849 C848 1.370 1_545 S
C849 C853 1.408 . S
C850 C848 1.363 . S
C850 C851 1.370 1_565 S
C850 C854 1.524 . S
C851 C843 1.503 . S
C851 C850 1.370 1_545 S
C851 C852 1.403 . S
C852 C851 1.403 . S
C852 C853 1.404 . S
C852 C855 1.539 . S
C853 C849 1.408 . S
C853 C852 1.404 . S
C853 H865 0.930 . S
C854 C850 1.524 . S
C854 H866 0.956 . S
C854 H867 0.961 . S
C854 H868 0.961 . S
C855 C852 1.539 . S
C855 H869 0.958 . S
C855 H870 0.961 . S
C855 H871 0.960 . S
H856 C840 0.931 . S
H857 C845 0.929 . S
H858 C846 0.960 . S
H859 C846 0.962 . S
H860 C846 0.960 . S
H861 C847 0.961 . S
H862 C847 0.961 . S
H863 C847 0.923 1_545 S
H864 C848 0.931 . S
H865 C853 0.930 . S
H866 C854 0.956 . S
H867 C854 0.961 . S
H868 C854 0.961 . S
H869 C855 0.958 . S
H870 C855 0.961 . S
H871 C855 0.960 . S
C872 C873 1.391 . S
C872 C874 1.394 . S
C872 H888 0.931 . S
C873 C872 1.391 . S
C873 C877 1.376 . S
C874 C872 1.394 . S
C874 C875 1.369 . S
C874 C878 1.531 . S
C875 C874 1.369 . S
C875 C876 1.410 . S
C875 C883 1.503 . S
C876 C875 1.410 . S
C876 C877 1.392 . S
C876 C879 1.511 . S
C877 C873 1.376 . S
C877 C876 1.392 . S
C877 H889 0.929 . S
C878 C874 1.531 . S
C878 H890 0.960 . S
C878 H891 0.962 . S
C878 H892 0.960 . S
C879 C876 1.511 . S
C879 H893 0.961 . S
C879 H894 0.961 . S
C879 H895 0.961 . S
C880 C881 1.370 . S
C880 C882 1.363 . S
C880 H896 0.931 . S
C881 C880 1.370 . S
C881 C885 1.408 . S
C882 C880 1.363 . S
C882 C883 1.370 . S
C882 C886 1.524 . S
C883 C875 1.503 . S
C883 C882 1.370 . S
C883 C884 1.403 . S
C884 C883 1.403 . S
C884 C885 1.404 . S
C884 C887 1.539 . S
C885 C881 1.408 . S
C885 C884 1.404 . S
C885 H897 0.930 . S
C886 C882 1.524 . S
C886 H898 0.956 . S
C886 H899 0.961 . S
C886 H900 0.961 . S
C887 C884 1.539 . S
C887 H901 0.958 . S
C887 H902 0.961 . S
C887 H903 0.960 . S
H888 C872 0.931 . S
H889 C877 0.929 . S
H890 C878 0.960 . S
H891 C878 0.962 . S
H892 C878 0.960 . S
H893 C879 0.961 . S
H894 C879 0.961 . S
H895 C879 0.961 . S
H896 C880 0.931 . S
H897 C885 0.930 . S
H898 C886 0.956 . S
H899 C886 0.961 . S
H900 C886 0.961 . S
H901 C887 0.958 . S
H902 C887 0.961 . S
H903 C887 0.960 . S
C904 C905 1.400 . S
C904 C906 1.394 . S
C904 H920 0.931 . S
C905 C904 1.400 . S
C905 C909 1.366 1_655 S
C906 C904 1.394 . S
C906 C907 1.369 1_655 S
C906 C910 1.531 . S
C907 C906 1.369 1_455 S
C907 C908 1.410 . S
C907 C915 1.503 . S
C908 C907 1.410 . S
C908 C909 1.392 . S
C908 C911 1.511 . S
C909 C905 1.366 1_455 S
C909 C908 1.392 . S
C909 H921 0.929 . S
C910 C906 1.531 . S
C910 H922 0.960 . S
C910 H923 0.962 . S
C910 H924 0.960 . S
C911 C908 1.511 . S
C911 H925 0.961 . S
C911 H926 0.961 . S
C911 H927 0.961 . S
C912 C913 1.370 . S
C912 C914 1.363 . S
C912 H928 0.931 . S
C913 C912 1.370 . S
C913 C917 1.408 . S
C914 C912 1.363 . S
C914 C915 1.370 . S
C914 C918 1.524 . S
C915 C907 1.503 . S
C915 C914 1.370 . S
C915 C916 1.403 . S
C916 C915 1.403 . S
C916 C917 1.404 . S
C916 C919 1.539 . S
C917 C913 1.408 . S
C917 C916 1.404 . S
C917 H929 0.930 . S
C918 C914 1.524 . S
C918 H930 0.956 1_455 S
C918 H931 0.961 . S
C918 H932 0.961 . S
C919 C916 1.539 . S
C919 H933 0.958 1_455 S
C919 H934 0.961 . S
C919 H935 0.960 . S
H920 C904 0.931 . S
H921 C909 0.929 . S
H922 C910 0.960 . S
H923 C910 0.962 . S
H924 C910 0.960 . S
H925 C911 0.961 . S
H926 C911 0.961 . S
H927 C911 0.961 . S
H928 C912 0.931 . S
H929 C917 0.930 . S
H930 C918 0.956 1_655 S
H931 C918 0.961 . S
H932 C918 0.961 . S
H933 C919 0.958 1_655 S
H934 C919 0.961 . S
H935 C919 0.960 . S
C361 C12 2.991 . S
C369 C335 2.935 . S
C393 C52 2.968 . S
C401 C242 2.938 . S
C425 C111 3.034 . S
C433 C282 2.985 . S
C457 C31 3.193 . S
C465 C322 3.143 . S
C497 C255 3.145 . S
C489 C71 3.221 . S
C529 C295 3.084 . S
C521 C92 3.152 . S
C553 C48 0.554 . S
C561 C162 0.469 . S
C585 C109 0.406 . S
C593 C202 0.448 . S
C617 C29 0.470 . S
C625 C135 0.441 . S
C657 C175 0.345 . S
C649 C69 0.367 . S
C689 C215 0.328 . S
C681 C88 0.305 . S
C713 C8 0.301 . S
C721 C122 0.251 . S
C753 C221 1.105 . S
C745 C17 1.063 1_455 S
C777 C57 1.062 . S
C785 C141 1.106 . S
C809 C97 1.112 . S
C817 C181 1.101 . S
C849 C301 1.773 . S
C841 C42 1.693 . S
C881 C341 1.766 1_556 S
C873 C82 1.701 . S
C905 C2 1.750 1_655 S
C913 C261 1.776 . S
