# Generated by pormake.
# Topology tph, (6,8)-cn, num edge types: 1
# Building blocks:
#     Node 0, Type 0, BuildingBlock: IZENUY_clean_sbu_0, # of connection points: 6
#     Node 1, Type 0, BuildingBlock: IZENUY_clean_sbu_0, # of connection points: 6
#     Node 2, Type 0, BuildingBlock: IZENUY_clean_sbu_0, # of connection points: 6
#     Node 3, Type 0, BuildingBlock: IZENUY_clean_sbu_0, # of connection points: 6
#     Node 4, Type 0, BuildingBlock: IZENUY_clean_sbu_0, # of connection points: 6
#     Node 5, Type 0, BuildingBlock: IZENUY_clean_sbu_0, # of connection points: 6
#     Node 6, Type 0, BuildingBlock: IZENUY_clean_sbu_0, # of connection points: 6
#     Node 7, Type 0, BuildingBlock: IZENUY_clean_sbu_0, # of connection points: 6
#     Node 8, Type 0, BuildingBlock: IZENUY_clean_sbu_0, # of connection points: 6
#     Node 9, Type 0, BuildingBlock: IZENUY_clean_sbu_0, # of connection points: 6
#     Node 10, Type 0, BuildingBlock: IZENUY_clean_sbu_0, # of connection points: 6
#     Node 11, Type 0, BuildingBlock: IZENUY_clean_sbu_0, # of connection points: 6
#     Node 12, Type 0, BuildingBlock: IZENUY_clean_sbu_0, # of connection points: 6
#     Node 13, Type 0, BuildingBlock: IZENUY_clean_sbu_0, # of connection points: 6
#     Node 14, Type 0, BuildingBlock: IZENUY_clean_sbu_0, # of connection points: 6
#     Node 15, Type 0, BuildingBlock: IZENUY_clean_sbu_0, # of connection points: 6
#     Node 16, Type 1, BuildingBlock: TAGTUT_clean_sbu_3, # of connection points: 8
#     Node 17, Type 1, BuildingBlock: TAGTUT_clean_sbu_3, # of connection points: 8
#     Node 18, Type 1, BuildingBlock: TAGTUT_clean_sbu_3, # of connection points: 8
#     Node 19, Type 1, BuildingBlock: TAGTUT_clean_sbu_3, # of connection points: 8
#     Node 20, Type 1, BuildingBlock: TAGTUT_clean_sbu_3, # of connection points: 8
#     Node 21, Type 1, BuildingBlock: TAGTUT_clean_sbu_3, # of connection points: 8
#     Node 22, Type 1, BuildingBlock: TAGTUT_clean_sbu_3, # of connection points: 8
#     Node 23, Type 1, BuildingBlock: TAGTUT_clean_sbu_3, # of connection points: 8
#     Node 24, Type 1, BuildingBlock: TAGTUT_clean_sbu_3, # of connection points: 8
#     Node 25, Type 1, BuildingBlock: TAGTUT_clean_sbu_3, # of connection points: 8
#     Node 26, Type 1, BuildingBlock: TAGTUT_clean_sbu_3, # of connection points: 8
#     Node 27, Type 1, BuildingBlock: TAGTUT_clean_sbu_3, # of connection points: 8
#     Edge 28, Type (0, 1), BuildingBlock: CIFDUS_clean_linker_0, # of connection points: 2
#     Edge 29, Type (0, 1), BuildingBlock: CIFDUS_clean_linker_0, # of connection points: 2
#     Edge 30, Type (0, 1), BuildingBlock: CIFDUS_clean_linker_0, # of connection points: 2
#     Edge 31, Type (0, 1), BuildingBlock: CIFDUS_clean_linker_0, # of connection points: 2
#     Edge 32, Type (0, 1), BuildingBlock: CIFDUS_clean_linker_0, # of connection points: 2
#     Edge 33, Type (0, 1), BuildingBlock: CIFDUS_clean_linker_0, # of connection points: 2
#     Edge 34, Type (0, 1), BuildingBlock: CIFDUS_clean_linker_0, # of connection points: 2
#     Edge 35, Type (0, 1), BuildingBlock: CIFDUS_clean_linker_0, # of connection points: 2
#     Edge 36, Type (0, 1), BuildingBlock: CIFDUS_clean_linker_0, # of connection points: 2
#     Edge 37, Type (0, 1), BuildingBlock: CIFDUS_clean_linker_0, # of connection points: 2
#     Edge 38, Type (0, 1), BuildingBlock: CIFDUS_clean_linker_0, # of connection points: 2
#     Edge 39, Type (0, 1), BuildingBlock: CIFDUS_clean_linker_0, # of connection points: 2
#     Edge 40, Type (0, 1), BuildingBlock: CIFDUS_clean_linker_0, # of connection points: 2
#     Edge 41, Type (0, 1), BuildingBlock: CIFDUS_clean_linker_0, # of connection points: 2
#     Edge 42, Type (0, 1), BuildingBlock: CIFDUS_clean_linker_0, # of connection points: 2
#     Edge 43, Type (0, 1), BuildingBlock: CIFDUS_clean_linker_0, # of connection points: 2
#     Edge 44, Type (0, 1), BuildingBlock: CIFDUS_clean_linker_0, # of connection points: 2
#     Edge 45, Type (0, 1), BuildingBlock: CIFDUS_clean_linker_0, # of connection points: 2
#     Edge 46, Type (0, 1), BuildingBlock: CIFDUS_clean_linker_0, # of connection points: 2
#     Edge 47, Type (0, 1), BuildingBlock: CIFDUS_clean_linker_0, # of connection points: 2
#     Edge 48, Type (0, 1), BuildingBlock: CIFDUS_clean_linker_0, # of connection points: 2
#     Edge 49, Type (0, 1), BuildingBlock: CIFDUS_clean_linker_0, # of connection points: 2
#     Edge 50, Type (0, 1), BuildingBlock: CIFDUS_clean_linker_0, # of connection points: 2
#     Edge 51, Type (0, 1), BuildingBlock: CIFDUS_clean_linker_0, # of connection points: 2
#     Edge 52, Type (0, 1), BuildingBlock: CIFDUS_clean_linker_0, # of connection points: 2
#     Edge 53, Type (0, 1), BuildingBlock: CIFDUS_clean_linker_0, # of connection points: 2
#     Edge 54, Type (0, 1), BuildingBlock: CIFDUS_clean_linker_0, # of connection points: 2
#     Edge 55, Type (0, 1), BuildingBlock: CIFDUS_clean_linker_0, # of connection points: 2
#     Edge 56, Type (0, 1), BuildingBlock: CIFDUS_clean_linker_0, # of connection points: 2
#     Edge 57, Type (0, 1), BuildingBlock: CIFDUS_clean_linker_0, # of connection points: 2
#     Edge 58, Type (0, 1), BuildingBlock: CIFDUS_clean_linker_0, # of connection points: 2
#     Edge 59, Type (0, 1), BuildingBlock: CIFDUS_clean_linker_0, # of connection points: 2
#     Edge 60, Type (0, 1), BuildingBlock: CIFDUS_clean_linker_0, # of connection points: 2
#     Edge 61, Type (0, 1), BuildingBlock: CIFDUS_clean_linker_0, # of connection points: 2
#     Edge 62, Type (0, 1), BuildingBlock: CIFDUS_clean_linker_0, # of connection points: 2
#     Edge 63, Type (0, 1), BuildingBlock: CIFDUS_clean_linker_0, # of connection points: 2
#     Edge 64, Type (0, 1), BuildingBlock: CIFDUS_clean_linker_0, # of connection points: 2
#     Edge 65, Type (0, 1), BuildingBlock: CIFDUS_clean_linker_0, # of connection points: 2
#     Edge 66, Type (0, 1), BuildingBlock: CIFDUS_clean_linker_0, # of connection points: 2
#     Edge 67, Type (0, 1), BuildingBlock: CIFDUS_clean_linker_0, # of connection points: 2
#     Edge 68, Type (0, 1), BuildingBlock: CIFDUS_clean_linker_0, # of connection points: 2
#     Edge 69, Type (0, 1), BuildingBlock: CIFDUS_clean_linker_0, # of connection points: 2
#     Edge 70, Type (0, 1), BuildingBlock: CIFDUS_clean_linker_0, # of connection points: 2
#     Edge 71, Type (0, 1), BuildingBlock: CIFDUS_clean_linker_0, # of connection points: 2
#     Edge 72, Type (0, 1), BuildingBlock: CIFDUS_clean_linker_0, # of connection points: 2
#     Edge 73, Type (0, 1), BuildingBlock: CIFDUS_clean_linker_0, # of connection points: 2
#     Edge 74, Type (0, 1), BuildingBlock: CIFDUS_clean_linker_0, # of connection points: 2
#     Edge 75, Type (0, 1), BuildingBlock: CIFDUS_clean_linker_0, # of connection points: 2
#     Edge 76, Type (0, 1), BuildingBlock: CIFDUS_clean_linker_0, # of connection points: 2
#     Edge 77, Type (0, 1), BuildingBlock: CIFDUS_clean_linker_0, # of connection points: 2
#     Edge 78, Type (0, 1), BuildingBlock: CIFDUS_clean_linker_0, # of connection points: 2
#     Edge 79, Type (0, 1), BuildingBlock: CIFDUS_clean_linker_0, # of connection points: 2
#     Edge 80, Type (0, 1), BuildingBlock: CIFDUS_clean_linker_0, # of connection points: 2
#     Edge 81, Type (0, 1), BuildingBlock: CIFDUS_clean_linker_0, # of connection points: 2
#     Edge 82, Type (0, 1), BuildingBlock: CIFDUS_clean_linker_0, # of connection points: 2
#     Edge 83, Type (0, 1), BuildingBlock: CIFDUS_clean_linker_0, # of connection points: 2
#     Edge 84, Type (0, 1), BuildingBlock: CIFDUS_clean_linker_0, # of connection points: 2
#     Edge 85, Type (0, 1), BuildingBlock: CIFDUS_clean_linker_0, # of connection points: 2
#     Edge 86, Type (0, 1), BuildingBlock: CIFDUS_clean_linker_0, # of connection points: 2
#     Edge 87, Type (0, 1), BuildingBlock: CIFDUS_clean_linker_0, # of connection points: 2
#     Edge 88, Type (0, 1), BuildingBlock: CIFDUS_clean_linker_0, # of connection points: 2
#     Edge 89, Type (0, 1), BuildingBlock: CIFDUS_clean_linker_0, # of connection points: 2
#     Edge 90, Type (0, 1), BuildingBlock: CIFDUS_clean_linker_0, # of connection points: 2
#     Edge 91, Type (0, 1), BuildingBlock: CIFDUS_clean_linker_0, # of connection points: 2
#     Edge 92, Type (0, 1), BuildingBlock: CIFDUS_clean_linker_0, # of connection points: 2
#     Edge 93, Type (0, 1), BuildingBlock: CIFDUS_clean_linker_0, # of connection points: 2
#     Edge 94, Type (0, 1), BuildingBlock: CIFDUS_clean_linker_0, # of connection points: 2
#     Edge 95, Type (0, 1), BuildingBlock: CIFDUS_clean_linker_0, # of connection points: 2
#     Edge 96, Type (0, 1), BuildingBlock: CIFDUS_clean_linker_0, # of connection points: 2
#     Edge 97, Type (0, 1), BuildingBlock: CIFDUS_clean_linker_0, # of connection points: 2
#     Edge 98, Type (0, 1), BuildingBlock: CIFDUS_clean_linker_0, # of connection points: 2
#     Edge 99, Type (0, 1), BuildingBlock: CIFDUS_clean_linker_0, # of connection points: 2
#     Edge 100, Type (0, 1), BuildingBlock: CIFDUS_clean_linker_0, # of connection points: 2
#     Edge 101, Type (0, 1), BuildingBlock: CIFDUS_clean_linker_0, # of connection points: 2
#     Edge 102, Type (0, 1), BuildingBlock: CIFDUS_clean_linker_0, # of connection points: 2
#     Edge 103, Type (0, 1), BuildingBlock: CIFDUS_clean_linker_0, # of connection points: 2
#     Edge 104, Type (0, 1), BuildingBlock: CIFDUS_clean_linker_0, # of connection points: 2
#     Edge 105, Type (0, 1), BuildingBlock: CIFDUS_clean_linker_0, # of connection points: 2
#     Edge 106, Type (0, 1), BuildingBlock: CIFDUS_clean_linker_0, # of connection points: 2
#     Edge 107, Type (0, 1), BuildingBlock: CIFDUS_clean_linker_0, # of connection points: 2
#     Edge 108, Type (0, 1), BuildingBlock: CIFDUS_clean_linker_0, # of connection points: 2
#     Edge 109, Type (0, 1), BuildingBlock: CIFDUS_clean_linker_0, # of connection points: 2
#     Edge 110, Type (0, 1), BuildingBlock: CIFDUS_clean_linker_0, # of connection points: 2
#     Edge 111, Type (0, 1), BuildingBlock: CIFDUS_clean_linker_0, # of connection points: 2
#     Edge 112, Type (0, 1), BuildingBlock: CIFDUS_clean_linker_0, # of connection points: 2
#     Edge 113, Type (0, 1), BuildingBlock: CIFDUS_clean_linker_0, # of connection points: 2
#     Edge 114, Type (0, 1), BuildingBlock: CIFDUS_clean_linker_0, # of connection points: 2
#     Edge 115, Type (0, 1), BuildingBlock: CIFDUS_clean_linker_0, # of connection points: 2
#     Edge 116, Type (0, 1), BuildingBlock: CIFDUS_clean_linker_0, # of connection points: 2
#     Edge 117, Type (0, 1), BuildingBlock: CIFDUS_clean_linker_0, # of connection points: 2
#     Edge 118, Type (0, 1), BuildingBlock: CIFDUS_clean_linker_0, # of connection points: 2
#     Edge 119, Type (0, 1), BuildingBlock: CIFDUS_clean_linker_0, # of connection points: 2
#     Edge 120, Type (0, 1), BuildingBlock: CIFDUS_clean_linker_0, # of connection points: 2
#     Edge 121, Type (0, 1), BuildingBlock: CIFDUS_clean_linker_0, # of connection points: 2
#     Edge 122, Type (0, 1), BuildingBlock: CIFDUS_clean_linker_0, # of connection points: 2
#     Edge 123, Type (0, 1), BuildingBlock: CIFDUS_clean_linker_0, # of connection points: 2
# Relax obj value: 0.182
# Max RMSD: 0.260
# Mean RMSD: 0.253
data_MOF--net-tph--node1-IZENUY_clean_sbu_0--node2-TAGTUT_clean_sbu_3--edge1-CIFDUS_clean_linker_0
_symmetry_space_group_name_H-M    P1
_symmetry_Int_Tables_number       1
_symmetry_cell_setting            triclinic
loop_
_symmetry_equiv_pos_as_xyz
'x, y, z'
_cell_length_a     42.008428
_cell_length_b     42.127002
_cell_length_c     42.093621
_cell_angle_alpha  89.255994
_cell_angle_beta   89.997958
_cell_angle_gamma 89.39509
loop_
_atom_site_label
_atom_site_type_symbol
_atom_site_fract_x
_atom_site_fract_y
_atom_site_fract_z
_atom_type_partial_charge
Fe0 Fe 0.19711 0.20508 0.15965 0.0
Fe1 Fe 0.15584 0.21292 0.21871 0.0
O2 O 0.1842 0.1908 0.197 0.0
Fe3 Fe 0.19906 0.15441 0.21224 0.0
O4 O 0.18464 0.13303 0.17825 0.0
O5 O 0.20446 0.16556 0.14252 0.0
O6 O 0.15744 0.20264 0.14424 0.0
C7 C 0.13382 0.21684 0.15587 0.0
C8 C 0.25293 0.18315 0.18251 0.0
O9 O 0.13519 0.22925 0.18311 0.0
C10 C 0.19733 0.18852 0.26658 0.0
O11 O 0.19187 0.24747 0.16969 0.0
O12 O 0.18251 0.24618 0.22096 0.0
O13 O 0.23884 0.15923 0.19439 0.0
O14 O 0.23751 0.20742 0.17335 0.0
C15 C 0.13349 0.15279 0.22529 0.0
O16 O 0.17053 0.19982 0.25809 0.0
O17 O 0.21445 0.17341 0.2473 0.0
C18 C 0.19133 0.26109 0.19643 0.0
O19 O 0.12813 0.18109 0.21701 0.0
O20 O 0.16147 0.14324 0.23203 0.0
C21 C 0.19312 0.13877 0.15012 0.0
Fe22 Fe 0.4681 0.56321 0.1012 0.0
Fe23 Fe 0.45414 0.60496 0.04254 0.0
O24 O 0.44162 0.57658 0.07108 0.0
Fe25 Fe 0.40246 0.56204 0.07046 0.0
O26 O 0.39484 0.57727 0.10953 0.0
O27 O 0.43673 0.55494 0.1311 0.0
O28 O 0.47008 0.60267 0.11667 0.0
C29 C 0.47798 0.62677 0.1006 0.0
C30 C 0.44111 0.50741 0.08599 0.0
O31 O 0.47975 0.62633 0.07054 0.0
C32 C 0.41629 0.56213 0.00743 0.0
O33 O 0.50467 0.56944 0.07743 0.0
O34 O 0.48635 0.57934 0.02969 0.0
O35 O 0.4142 0.5218 0.08548 0.0
O36 O 0.46666 0.52299 0.08688 0.0
C37 C 0.3943 0.62755 0.05586 0.0
O38 O 0.42988 0.58877 0.00994 0.0
O39 O 0.40775 0.5464 0.03143 0.0
C40 C 0.50938 0.57243 0.04775 0.0
O41 O 0.42358 0.63264 0.05384 0.0
O42 O 0.38386 0.59938 0.05531 0.0
C43 C 0.40958 0.56798 0.13385 0.0
Fe44 Fe 0.7826 0.29527 0.15049 0.0
Fe45 Fe 0.84253 0.29274 0.19212 0.0
O46 O 0.80672 0.31166 0.18021 0.0
Fe47 Fe 0.79507 0.34751 0.19802 0.0
O48 O 0.79801 0.36811 0.16079 0.0
O49 O 0.76857 0.33473 0.13431 0.0
O50 O 0.81413 0.29781 0.12204 0.0
C51 C 0.84113 0.28498 0.12477 0.0
C52 C 0.73583 0.31685 0.18823 0.0
O53 O 0.85174 0.2763 0.15195 0.0
C54 C 0.81609 0.3174 0.25018 0.0
O55 O 0.79332 0.25314 0.16099 0.0
O56 O 0.82176 0.25748 0.20456 0.0
O57 O 0.752 0.34158 0.19275 0.0
O58 O 0.74913 0.29226 0.17748 0.0
C59 C 0.86175 0.35375 0.1926 0.0
O60 O 0.83956 0.30633 0.23427 0.0
O61 O 0.79188 0.32821 0.23602 0.0
C62 C 0.80562 0.24087 0.18606 0.0
O63 O 0.86556 0.32692 0.18033 0.0
O64 O 0.83585 0.36087 0.20625 0.0
C65 C 0.78034 0.36236 0.13753 0.0
Fe66 Fe 0.54825 0.9489 0.10923 0.0
Fe67 Fe 0.56602 0.89878 0.05908 0.0
O68 O 0.57361 0.93487 0.07874 0.0
Fe69 Fe 0.60817 0.95664 0.06919 0.0
O70 O 0.62384 0.94901 0.10845 0.0
O71 O 0.5806 0.96564 0.13279 0.0
O72 O 0.55451 0.91376 0.13231 0.0
C73 C 0.55385 0.8853 0.12413 0.0
C74 C 0.56305 0.00518 0.08309 0.0
O75 O 0.55081 0.87783 0.09508 0.0
C76 C 0.58698 0.94271 0.01041 0.0
O77 O 0.51184 0.93371 0.09155 0.0
O78 O 0.52657 0.91148 0.04668 0.0
O79 O 0.59145 0.99519 0.08071 0.0
O80 O 0.54082 0.98603 0.08841 0.0
C81 C 0.63063 0.8944 0.06424 0.0
O82 O 0.58095 0.91437 0.0199 0.0
O83 O 0.59356 0.96427 0.02982 0.0
C84 C 0.50527 0.92253 0.06461 0.0
O85 O 0.60417 0.88248 0.07054 0.0
O86 O 0.63236 0.92301 0.05556 0.0
C87 C 0.60916 0.9559 0.13356 0.0
Fe88 Fe 0.19217 0.85161 0.28038 0.0
Fe89 Fe 0.19043 0.80632 0.33762 0.0
O90 O 0.17529 0.8188 0.30037 0.0
Fe91 Fe 0.14281 0.79871 0.28355 0.0
O92 O 0.11869 0.83406 0.28388 0.0
O93 O 0.15395 0.86547 0.26171 0.0
O94 O 0.18287 0.87771 0.31296 0.0
C95 C 0.19315 0.87332 0.34077 0.0
C96 C 0.18119 0.81476 0.22968 0.0
O97 O 0.20269 0.84612 0.35 0.0
C98 C 0.17464 0.74828 0.30757 0.0
O99 O 0.23329 0.84355 0.2958 0.0
O100 O 0.22906 0.7978 0.32113 0.0
O101 O 0.15501 0.80629 0.24202 0.0
O102 O 0.20223 0.82753 0.24646 0.0
C103 C 0.12725 0.80119 0.34876 0.0
O104 O 0.18075 0.76412 0.33222 0.0
O105 O 0.16497 0.76194 0.28254 0.0
C106 C 0.24616 0.81912 0.30903 0.0
O107 O 0.15277 0.81452 0.35621 0.0
O108 O 0.12429 0.78814 0.32198 0.0
C109 C 0.12511 0.85874 0.2682 0.0
Fe110 Fe 0.10895 0.54518 0.95074 0.0
Fe111 Fe 0.06565 0.56092 0.89449 0.0
O112 O 0.08297 0.57205 0.93061 0.0
Fe113 Fe 0.07557 0.6102 0.94609 0.0
O114 O 0.11718 0.61936 0.94345 0.0
O115 O 0.13384 0.57636 0.96849 0.0
O116 O 0.13627 0.54617 0.91823 0.0
C117 C 0.12939 0.54189 0.88961 0.0
C118 C 0.07835 0.56829 0.00153 0.0
O119 O 0.10066 0.53738 0.88146 0.0
C120 C 0.01604 0.59506 0.92606 0.0
O121 O 0.0895 0.50882 0.93595 0.0
O122 O 0.04635 0.52781 0.91314 0.0
O123 O 0.07923 0.59609 0.98869 0.0
O124 O 0.08275 0.5441 0.98461 0.0
C125 C 0.08144 0.62166 0.87922 0.0
O126 O 0.02825 0.58337 0.90109 0.0
O127 O 0.03329 0.60326 0.949 0.0
C128 C 0.06142 0.50508 0.92562 0.0
O129 O 0.08397 0.59272 0.87367 0.0
O130 O 0.07134 0.63081 0.90626 0.0
C131 C 0.13894 0.60387 0.95724 0.0
Fe132 Fe 0.80256 0.64559 0.29941 0.0
Fe133 Fe 0.85259 0.69679 0.30736 0.0
O134 O 0.81714 0.67845 0.32012 0.0
Fe135 Fe 0.79618 0.69271 0.3535 0.0
O136 O 0.76068 0.70052 0.33015 0.0
O137 O 0.7597 0.65333 0.30918 0.0
O138 O 0.79744 0.66904 0.26369 0.0
C139 C 0.82134 0.67973 0.24911 0.0
C140 C 0.7932 0.62513 0.35942 0.0
O141 O 0.84596 0.68804 0.26457 0.0
C142 C 0.85642 0.69898 0.37545 0.0
O143 O 0.84249 0.63101 0.28637 0.0
O144 O 0.87556 0.66056 0.31301 0.0
O145 O 0.78205 0.65244 0.36652 0.0
O146 O 0.8077 0.62096 0.33373 0.0
C147 C 0.81905 0.74931 0.32215 0.0
O148 O 0.86533 0.70888 0.34815 0.0
O149 O 0.82997 0.68573 0.37896 0.0
C150 C 0.87044 0.63628 0.29664 0.0
O151 O 0.83205 0.73367 0.30045 0.0
O152 O 0.80737 0.73514 0.34642 0.0
C153 C 0.74507 0.67828 0.31828 0.0
Fe154 Fe 0.89526 0.95416 0.94618 0.0
Fe155 Fe 0.95068 0.9476 0.89955 0.0
O156 O 0.93046 0.93435 0.9341 0.0
Fe157 Fe 0.94483 0.90066 0.95553 0.0
O158 O 0.9088 0.87982 0.94909 0.0
O159 O 0.87507 0.91773 0.96126 0.0
O160 O 0.87602 0.94593 0.90931 0.0
C161 C 0.88596 0.95313 0.88217 0.0
C162 C 0.92176 0.94251 0.00402 0.0
O163 O 0.91436 0.96269 0.87856 0.0
C164 C 1.00151 0.92706 0.94079 0.0
O165 O 0.90913 0.99412 0.93259 0.0
O166 O 0.95851 0.98529 0.91721 0.0
O167 O 0.93144 0.91532 0.99497 0.0
O168 O 0.91208 0.96298 0.98417 0.0
C169 C 0.94846 0.88368 0.89155 0.0
O170 O 0.99074 0.93415 0.91332 0.0
O171 O 0.98275 0.91904 0.96275 0.0
C172 C 0.937 0.00424 0.92618 0.0
O173 O 0.94306 0.91099 0.88052 0.0
O174 O 0.95919 0.87977 0.9196 0.0
C175 C 0.88086 0.88902 0.95401 0.0
Fe176 Fe 0.39716 0.4551 0.45006 0.0
Fe177 Fe 0.44784 0.43707 0.40113 0.0
O178 O 0.42957 0.43053 0.43858 0.0
Fe179 Fe 0.4412 0.39811 0.46339 0.0
O180 O 0.40108 0.39058 0.47806 0.0
O181 O 0.37017 0.42075 0.44851 0.0
O182 O 0.38478 0.46567 0.41007 0.0
C183 C 0.38398 0.44697 0.38722 0.0
C184 C 0.42779 0.44124 0.50885 0.0
O185 O 0.40916 0.43186 0.38033 0.0
C186 C 0.50015 0.42008 0.43769 0.0
O187 O 0.42277 0.49013 0.45075 0.0
O188 O 0.44348 0.48051 0.40342 0.0
O189 O 0.44958 0.42422 0.49684 0.0
O190 O 0.40378 0.44949 0.49247 0.0
C191 C 0.44202 0.37112 0.40408 0.0
O192 O 0.48767 0.4409 0.41922 0.0
O193 O 0.48309 0.4 0.45227 0.0
C194 C 0.43839 0.49931 0.4264 0.0
O195 O 0.45546 0.39539 0.39292 0.0
O196 O 0.43272 0.36978 0.43241 0.0
C197 C 0.3756 0.39443 0.46254 0.0
Fe198 Fe 0.28856 0.78861 0.63698 0.0
Fe199 Fe 0.28883 0.83907 0.68828 0.0
O200 O 0.30469 0.80406 0.67218 0.0
Fe201 Fe 0.33667 0.78464 0.6917 0.0
O202 O 0.31289 0.74978 0.69836 0.0
O203 O 0.29638 0.7463 0.64886 0.0
O204 O 0.24964 0.78483 0.65473 0.0
C205 C 0.2339 0.80832 0.66452 0.0
C206 C 0.35045 0.77548 0.6254 0.0
O207 O 0.24796 0.83301 0.67364 0.0
C208 C 0.35534 0.84534 0.69786 0.0
O209 O 0.2781 0.82853 0.61942 0.0
O210 O 0.29967 0.86102 0.65339 0.0
O211 O 0.35437 0.76797 0.65461 0.0
O212 O 0.32628 0.79129 0.61683 0.0
C213 C 0.29771 0.80709 0.74277 0.0
O214 O 0.32689 0.85222 0.70555 0.0
O215 O 0.36195 0.81874 0.68602 0.0
C216 C 0.28724 0.85632 0.62677 0.0
O217 O 0.27728 0.81831 0.72388 0.0
O218 O 0.32473 0.7979 0.73235 0.0
C219 C 0.30157 0.73366 0.67612 0.0
Fe220 Fe 0.06848 0.40031 0.55966 0.0
Fe221 Fe 0.10862 0.45843 0.57354 0.0
O222 O 0.07407 0.43594 0.5806 0.0
Fe223 Fe 0.04635 0.4486 0.6099 0.0
O224 O 0.05304 0.41315 0.63274 0.0
O225 O 0.05105 0.3785 0.5942 0.0
O226 O 0.10586 0.38403 0.57331 0.0
C227 C 0.13251 0.39637 0.56905 0.0
C228 C 0.00713 0.42208 0.56182 0.0
O229 O 0.1345 0.42531 0.56151 0.0
C230 C 0.06111 0.50552 0.58424 0.0
O231 O 0.08578 0.41643 0.52171 0.0
O232 O 0.09682 0.46619 0.53323 0.0
O233 O 0.01118 0.43181 0.58991 0.0
O234 O 0.03024 0.41356 0.54486 0.0
C235 C 0.10569 0.4587 0.63788 0.0
O236 O 0.08986 0.49628 0.58379 0.0
O237 O 0.03886 0.48614 0.58936 0.0
C238 C 0.0917 0.44499 0.51305 0.0
O239 O 0.12167 0.45114 0.61376 0.0
O240 O 0.0766 0.46655 0.63556 0.0
C241 C 0.05338 0.38494 0.62359 0.0
Fe242 Fe 0.9636 0.06032 0.60144 0.0
Fe243 Fe 0.95653 0.10369 0.54262 0.0
O244 O 0.94128 0.07357 0.56802 0.0
Fe245 Fe 0.90284 0.0585 0.55998 0.0
O246 O 0.89179 0.05153 0.60113 0.0
O247 O 0.93138 0.06999 0.62919 0.0
O248 O 0.97936 0.09961 0.60921 0.0
C249 C 0.96787 0.12662 0.60173 0.0
C250 C 0.93552 0.00388 0.57752 0.0
O251 O 0.95585 0.13204 0.57471 0.0
C252 C 0.93231 0.06318 0.49979 0.0
O253 O 0.99869 0.04994 0.57724 0.0
O254 O 0.99818 0.09446 0.54978 0.0
O255 O 0.91834 0.01784 0.55671 0.0
O256 O 0.95046 0.01917 0.5985 0.0
C257 C 0.89441 0.12238 0.54857 0.0
O258 O 0.95727 0.07634 0.50982 0.0
O259 O 0.90728 0.06227 0.51668 0.0
C260 C 0.01264 0.06977 0.55927 0.0
O261 O 0.91783 0.11896 0.5304 0.0
O262 O 0.88494 0.09854 0.56426 0.0
C263 C 0.90249 0.06251 0.62661 0.0
Fe264 Fe 0.70979 0.71291 0.66073 0.0
Fe265 Fe 0.70468 0.66074 0.71145 0.0
O266 O 0.69183 0.69759 0.69542 0.0
Fe267 Fe 0.66069 0.71908 0.71383 0.0
O268 O 0.68647 0.7525 0.72049 0.0
O269 O 0.70349 0.75487 0.67126 0.0
O270 O 0.74809 0.71429 0.67983 0.0
C271 C 0.76204 0.6894 0.68968 0.0
C272 C 0.64763 0.72579 0.64847 0.0
O273 O 0.74631 0.66542 0.69881 0.0
C274 C 0.63791 0.65892 0.71687 0.0
O275 O 0.71895 0.67393 0.64353 0.0
O276 O 0.69473 0.64022 0.67524 0.0
O277 O 0.64478 0.73646 0.67638 0.0
O278 O 0.67264 0.71162 0.63998 0.0
C279 C 0.69643 0.69404 0.76572 0.0
O280 O 0.66505 0.64942 0.72646 0.0
O281 O 0.63348 0.68712 0.70768 0.0
C282 C 0.70704 0.64685 0.64869 0.0
O283 O 0.71564 0.67903 0.74841 0.0
O284 O 0.67048 0.70503 0.75452 0.0
C285 C 0.69883 0.76788 0.69787 0.0
Fe286 Fe 0.6957 0.34485 0.7919 0.0
Fe287 Fe 0.70014 0.28983 0.83998 0.0
O288 O 0.6806 0.3094 0.80806 0.0
Fe289 Fe 0.64545 0.2935 0.7924 0.0
O290 O 0.62304 0.32797 0.80355 0.0
O291 O 0.65585 0.36195 0.78129 0.0
O292 O 0.69161 0.36436 0.82947 0.0
C293 C 0.70542 0.35528 0.85461 0.0
C294 C 0.67706 0.31704 0.73778 0.0
O295 O 0.71492 0.32671 0.85808 0.0
C296 C 0.67821 0.23943 0.80092 0.0
O297 O 0.73794 0.33436 0.80041 0.0
O298 O 0.73624 0.28482 0.81728 0.0
O299 O 0.65173 0.30897 0.75184 0.0
O300 O 0.70048 0.32701 0.75333 0.0
C301 C 0.63876 0.28349 0.85812 0.0
O302 O 0.688 0.24947 0.82757 0.0
O303 O 0.66667 0.25847 0.78072 0.0
C304 C 0.75207 0.30844 0.80799 0.0
O305 O 0.66565 0.29438 0.86465 0.0
O306 O 0.63205 0.27534 0.83011 0.0
C307 C 0.62872 0.3553 0.79295 0.0
Fe308 Fe 0.6092 0.04052 0.4501 0.0
Fe309 Fe 0.56451 0.05841 0.39521 0.0
O310 O 0.58217 0.06763 0.43184 0.0
Fe311 Fe 0.57399 0.10446 0.4499 0.0
O312 O 0.61514 0.11519 0.44646 0.0
O313 O 0.63357 0.07144 0.46885 0.0
O314 O 0.63599 0.0437 0.41708 0.0
C315 C 0.62874 0.04 0.38847 0.0
C316 C 0.57771 0.06014 0.50224 0.0
O317 O 0.59995 0.03687 0.3799 0.0
C318 C 0.51467 0.08898 0.43039 0.0
O319 O 0.5904 0.00445 0.43399 0.0
O320 O 0.54678 0.02317 0.41159 0.0
O321 O 0.57932 0.08845 0.49119 0.0
O322 O 0.58366 0.03683 0.48456 0.0
C323 C 0.57621 0.12085 0.38404 0.0
O324 O 0.52642 0.07894 0.40441 0.0
O325 O 0.53228 0.09575 0.45355 0.0
C326 C 0.5625 0.00044 0.42334 0.0
O327 O 0.58116 0.09268 0.37617 0.0
O328 O 0.56726 0.1271 0.41214 0.0
C329 C 0.63775 0.09949 0.45858 0.0
Fe330 Fe 0.30119 0.14991 0.80842 0.0
Fe331 Fe 0.35466 0.19781 0.8143 0.0
O332 O 0.31691 0.18411 0.82593 0.0
Fe333 Fe 0.29486 0.20443 0.85511 0.0
O334 O 0.26271 0.21238 0.82747 0.0
O335 O 0.25857 0.1629 0.81272 0.0
O336 O 0.30118 0.16845 0.76977 0.0
C337 C 0.32679 0.17559 0.75606 0.0
C338 C 0.28244 0.13841 0.86819 0.0
O339 O 0.35094 0.18378 0.77238 0.0
C340 C 0.35335 0.20789 0.88163 0.0
O341 O 0.34086 0.13055 0.80112 0.0
O342 O 0.37346 0.16119 0.82716 0.0
O343 O 0.27516 0.16775 0.87124 0.0
O344 O 0.30067 0.1298 0.84617 0.0
C345 C 0.32415 0.25416 0.81862 0.0
O346 O 0.36502 0.21423 0.85429 0.0
O347 O 0.32551 0.19751 0.88419 0.0
C348 C 0.36785 0.13522 0.81397 0.0
O349 O 0.33795 0.23487 0.80063 0.0
O350 O 0.31093 0.24451 0.84423 0.0
C351 C 0.24613 0.19033 0.81656 0.0
C352 C 0.07183 0.21727 0.88744 0.0
C353 C 0.03492 0.25468 0.00266 0.0
C354 C 0.94286 0.24075 0.97211 0.0
Mg355 Mg 0.03494 0.22099 0.8221 0.0
Mg356 Mg 0.98339 0.27694 0.80534 0.0
O357 O 0.99458 0.24424 0.83343 0.0
Mg358 Mg 0.00253 0.2532 0.87908 0.0
O359 O 0.01368 0.25744 0.92507 0.0
Mg360 Mg 0.01241 0.21194 0.94011 0.0
Mg361 Mg 0.99253 0.28608 0.95058 0.0
C362 C 0.93249 0.28712 0.85933 0.0
O363 O 0.01551 0.30722 0.87316 0.0
O364 O 0.00894 0.20792 0.7771 0.0
O365 O 0.99812 0.32645 0.92012 0.0
O366 O 0.05555 0.2637 0.7922 0.0
O367 O 0.97462 0.24773 0.76467 0.0
O368 O 0.02336 0.30571 0.79613 0.0
O369 O 0.99001 0.20101 0.89113 0.0
O370 O 0.01382 0.17846 0.84961 0.0
C371 C 0.99789 0.17627 0.87551 0.0
C372 C 0.98753 0.22068 0.75925 0.0
O373 O 0.94835 0.27063 0.88035 0.0
O374 O 0.03481 0.22872 0.98692 0.0
O375 O 0.94401 0.2946 0.83207 0.0
O376 O 0.96351 0.21861 0.96743 0.0
O377 O 0.02093 0.28012 0.99284 0.0
O378 O 0.94671 0.26845 0.96041 0.0
O379 O 0.05445 0.23622 0.87067 0.0
O380 O 0.0617 0.20622 0.9142 0.0
C381 C 0.0489 0.29289 0.78612 0.0
C382 C 0.00949 0.33042 0.89211 0.0
C383 C 0.56584 0.71227 0.37706 0.0
C384 C 0.53969 0.73423 0.494 0.0
C385 C 0.44235 0.73111 0.46944 0.0
Mg386 Mg 0.5281 0.72187 0.31382 0.0
Mg387 Mg 0.47898 0.78063 0.30276 0.0
O388 O 0.48745 0.74414 0.32676 0.0
Mg389 Mg 0.49593 0.74854 0.37348 0.0
O390 O 0.50833 0.74746 0.41948 0.0
Mg391 Mg 0.50788 0.7007 0.42976 0.0
Mg392 Mg 0.49552 0.77509 0.45085 0.0
C393 C 0.42679 0.78613 0.3566 0.0
O394 O 0.51034 0.80284 0.37273 0.0
O395 O 0.50536 0.71585 0.26506 0.0
O396 O 0.5014 0.81775 0.42355 0.0
O397 O 0.55062 0.76628 0.29055 0.0
O398 O 0.47241 0.75792 0.25751 0.0
O399 O 0.52062 0.80879 0.29976 0.0
O400 O 0.48316 0.69525 0.38074 0.0
O401 O 0.50493 0.67718 0.33605 0.0
C402 C 0.4899 0.67219 0.36219 0.0
C403 C 0.48593 0.73238 0.24788 0.0
O404 O 0.44193 0.76731 0.37629 0.0
O405 O 0.53427 0.71079 0.47578 0.0
O406 O 0.43899 0.79576 0.33029 0.0
O407 O 0.45968 0.70761 0.45989 0.0
O408 O 0.52805 0.762 0.48869 0.0
O409 O 0.44997 0.75986 0.46427 0.0
O410 O 0.54685 0.73202 0.36353 0.0
O411 O 0.55718 0.69685 0.4021 0.0
C412 C 0.54555 0.79613 0.28813 0.0
C413 C 0.50872 0.82412 0.39459 0.0
C414 C 0.96459 0.82817 0.64123 0.0
C415 C 0.96532 0.76659 0.75513 0.0
C416 C 0.04625 0.72482 0.72608 0.0
Mg417 Mg 0.99451 0.80531 0.57443 0.0
Mg418 Mg 0.00227 0.73117 0.55532 0.0
O419 O 0.00864 0.76094 0.58622 0.0
Mg420 Mg 0.99326 0.75668 0.63146 0.0
O421 O 0.97953 0.75744 0.67743 0.0
Mg422 Mg 0.00957 0.79011 0.69385 0.0
Mg423 Mg 0.98072 0.71921 0.70075 0.0
C424 C 0.02348 0.68589 0.61241 0.0
O425 O 0.94902 0.72662 0.62333 0.0
O426 O 0.02482 0.80224 0.52935 0.0
O427 O 0.95063 0.69476 0.66715 0.0
O428 O 0.95151 0.78706 0.54155 0.0
O429 O 0.03008 0.7507 0.51711 0.0
O430 O 0.95428 0.73416 0.54176 0.0
O431 O 0.03578 0.78557 0.64578 0.0
O432 O 0.03884 0.81936 0.60444 0.0
C433 C 0.0492 0.80863 0.63129 0.0
C434 C 0.03531 0.78011 0.51147 0.0
O435 O 0.01901 0.70654 0.63448 0.0
O436 O 0.97988 0.78851 0.73955 0.0
O437 O 0.0172 0.69133 0.58305 0.0
O438 O 0.0419 0.7545 0.72119 0.0
O439 O 0.96256 0.73812 0.74513 0.0
O440 O 0.02855 0.7046 0.71261 0.0
O441 O 0.96705 0.80473 0.6222 0.0
O442 O 0.97687 0.82654 0.66905 0.0
C443 C 0.94089 0.75993 0.53269 0.0
C444 C 0.93824 0.70339 0.64033 0.0
C445 C 0.86057 0.99794 0.17496 0.0
C446 C 0.74871 0.00232 0.23895 0.0
C447 C 0.79584 0.05181 0.30336 0.0
Mg448 Mg 0.93029 0.00691 0.20241 0.0
Mg449 Mg 0.94864 0.98109 0.27295 0.0
O450 O 0.92192 0.0078 0.24956 0.0
Mg451 Mg 0.87496 0.99987 0.25049 0.0
O452 O 0.82761 0.99522 0.24663 0.0
Mg453 Mg 0.81681 0.03839 0.22702 0.0
Mg454 Mg 0.80567 0.98728 0.28415 0.0
C455 C 0.89935 0.00325 0.32487 0.0
O456 O 0.87561 0.94582 0.26769 0.0
O457 O 0.97943 0.02611 0.21448 0.0
O458 O 0.83043 0.94449 0.29686 0.0
O459 O 0.95565 0.9569 0.20489 0.0
O460 O 0.99277 0.00499 0.26216 0.0
O461 O 0.94763 0.93559 0.25253 0.0
O462 O 0.86815 0.05244 0.23515 0.0
O463 O 0.90731 0.05745 0.19992 0.0
C464 C 0.88287 0.06898 0.21418 0.0
C465 C 0.99904 0.02223 0.23767 0.0
O466 O 0.87743 0.01112 0.30467 0.0
O467 O 0.76636 0.02049 0.22195 0.0
O468 O 0.92526 0.989 0.31706 0.0
O469 O 0.79615 0.05987 0.27398 0.0
O470 O 0.75874 0.98687 0.26344 0.0
O471 O 0.81183 0.02774 0.3126 0.0
O472 O 0.87876 0.98843 0.19762 0.0
O473 O 0.83596 0.01554 0.18035 0.0
C474 C 0.95885 0.93371 0.22463 0.0
C475 C 0.85597 0.93129 0.28656 0.0
C476 C 0.22124 0.87922 0.05649 0.0
C477 C 0.23827 0.99962 0.03124 0.0
C478 C 0.23062 0.97504 0.93574 0.0
Mg479 Mg 0.23142 0.81736 0.01747 0.0
Mg480 Mg 0.28844 0.81066 0.96611 0.0
O481 O 0.25158 0.83308 0.97679 0.0
Mg482 Mg 0.25474 0.87955 0.9867 0.0
O483 O 0.25284 0.92506 0.00091 0.0
Mg484 Mg 0.2056 0.93392 0.00186 0.0
Mg485 Mg 0.27819 0.95711 0.9853 0.0
C486 C 0.29039 0.86798 0.91718 0.0
O487 O 0.30941 0.87975 0.99898 0.0
O488 O 0.22567 0.76934 0.99307 0.0
O489 O 0.3221 0.93152 0.99167 0.0
O490 O 0.27791 0.79473 0.03806 0.0
O491 O 0.26577 0.76559 0.95758 0.0
O492 O 0.31886 0.80455 0.00622 0.0
O493 O 0.20087 0.88554 0.97606 0.0
O494 O 0.18468 0.83938 0.99687 0.0
C495 C 0.17852 0.86615 0.98306 0.0
C496 C 0.24135 0.75415 0.9718 0.0
O497 O 0.27068 0.88552 0.9331 0.0
O498 O 0.21515 0.98012 0.0289 0.0
O499 O 0.30207 0.84167 0.92781 0.0
O500 O 0.20895 0.96611 0.95538 0.0
O501 O 0.26482 0.99532 0.01682 0.0
O502 O 0.25979 0.9676 0.93976 0.0
O503 O 0.24084 0.86683 0.03706 0.0
O504 O 0.20494 0.90417 0.04911 0.0
C505 C 0.30762 0.79271 0.03174 0.0
C506 C 0.32967 0.90261 0.99841 0.0
C507 C 0.12424 0.4355 0.21081 0.0
C508 C 0.00755 0.45958 0.24554 0.0
C509 C 0.03399 0.55585 0.24822 0.0
Mg510 Mg 0.18889 0.4714 0.21775 0.0
Mg511 Mg 0.20481 0.51961 0.27556 0.0
O512 O 0.17632 0.50928 0.24377 0.0
Mg513 Mg 0.13004 0.49926 0.25236 0.0
O514 O 0.08407 0.48646 0.2547 0.0
Mg515 Mg 0.07003 0.4933 0.20942 0.0
Mg516 Mg 0.05503 0.49822 0.28553 0.0
C517 C 0.14614 0.56583 0.28994 0.0
O518 O 0.13519 0.48059 0.30635 0.0
O519 O 0.23641 0.49552 0.20691 0.0
O520 O 0.08508 0.48795 0.32524 0.0
O521 O 0.21818 0.44688 0.25947 0.0
O522 O 0.24674 0.52916 0.24662 0.0
O523 O 0.21558 0.47757 0.30207 0.0
O524 O 0.11868 0.51747 0.20104 0.0
O525 O 0.16128 0.49703 0.17646 0.0
C526 C 0.13481 0.51265 0.17559 0.0
C527 C 0.2545 0.51553 0.22062 0.0
O528 O 0.12588 0.54972 0.27382 0.0
O529 O 0.02436 0.46637 0.22104 0.0
O530 O 0.17499 0.55654 0.2949 0.0
O531 O 0.0407 0.54035 0.22284 0.0
O532 O 0.01502 0.46876 0.27344 0.0
O533 O 0.04246 0.54586 0.2756 0.0
O534 O 0.13992 0.45116 0.23124 0.0
O535 O 0.09769 0.44606 0.19947 0.0
C536 C 0.22541 0.45244 0.28848 0.0
C537 C 0.11447 0.48046 0.32923 0.0
C538 C 0.68681 0.6326 0.02255 0.0
C539 C 0.7363 0.7447 0.04042 0.0
C540 C 0.79559 0.72531 0.96363 0.0
Mg541 Mg 0.7154 0.57117 0.99389 0.0
Mg542 Mg 0.79114 0.55015 0.99148 0.0
O543 O 0.76126 0.58251 0.98625 0.0
Mg544 Mg 0.76206 0.62685 0.00405 0.0
O545 O 0.75634 0.67132 0.01911 0.0
Mg546 Mg 0.72645 0.68925 0.98587 0.0
Mg547 Mg 0.79117 0.69643 0.02821 0.0
C548 C 0.83587 0.60993 0.97757 0.0
O549 O 0.78642 0.61744 0.05385 0.0
O550 O 0.72182 0.52856 0.96175 0.0
O551 O 0.81432 0.66276 0.05933 0.0
O552 O 0.72933 0.53778 0.03679 0.0
O553 O 0.77355 0.51506 0.95856 0.0
O554 O 0.7825 0.53243 0.03806 0.0
O555 O 0.73774 0.64359 0.95768 0.0
O556 O 0.70408 0.60358 0.95053 0.0
C557 C 0.71585 0.63023 0.94168 0.0
C558 C 0.74432 0.51103 0.95107 0.0
O559 O 0.81438 0.63126 0.98365 0.0
O560 O 0.71941 0.73106 0.0193 0.0
O561 O 0.83125 0.57993 0.98061 0.0
O562 O 0.76569 0.7202 0.96173 0.0
O563 O 0.76461 0.7358 0.04787 0.0
O564 O 0.8126 0.71234 0.98526 0.0
O565 O 0.71245 0.61617 0.02361 0.0
O566 O 0.68625 0.6605 0.01013 0.0
C567 C 0.75502 0.52701 0.04964 0.0
C568 C 0.80609 0.63509 0.06925 0.0
C569 C 0.18585 0.13249 0.52144 0.0
C570 C 0.23616 0.24499 0.54408 0.0
C571 C 0.30107 0.22428 0.47209 0.0
Mg572 Mg 0.2169 0.07004 0.49532 0.0
Mg573 Mg 0.29271 0.05085 0.49954 0.0
O574 O 0.2629 0.08232 0.4909 0.0
Mg575 Mg 0.26236 0.12632 0.50922 0.0
O576 O 0.25598 0.17075 0.52438 0.0
Mg577 Mg 0.22954 0.18953 0.48883 0.0
Mg578 Mg 0.29035 0.19534 0.53603 0.0
C579 C 0.33743 0.11013 0.48667 0.0
O580 O 0.28458 0.11607 0.5605 0.0
O581 O 0.22656 0.02719 0.46336 0.0
O582 O 0.31131 0.16173 0.5684 0.0
O583 O 0.22852 0.03591 0.53854 0.0
O584 O 0.2786 0.0149 0.4663 0.0
O585 O 0.28136 0.03425 0.54567 0.0
O586 O 0.24131 0.14343 0.46134 0.0
O587 O 0.20826 0.10319 0.45199 0.0
C588 C 0.22027 0.13007 0.44417 0.0
C589 C 0.25056 0.00993 0.45564 0.0
O590 O 0.31553 0.13135 0.49143 0.0
O591 O 0.22068 0.23176 0.52164 0.0
O592 O 0.33309 0.08021 0.49036 0.0
O593 O 0.2713 0.22012 0.46729 0.0
O594 O 0.26347 0.23523 0.55383 0.0
O595 O 0.31544 0.21046 0.49509 0.0
O596 O 0.21083 0.11516 0.52509 0.0
O597 O 0.18777 0.16081 0.51004 0.0
C598 C 0.25331 0.0265 0.55397 0.0
C599 C 0.30362 0.13351 0.57698 0.0
C600 C 0.37698 0.56363 0.70954 0.0
C601 C 0.49679 0.53767 0.74585 0.0
C602 C 0.46814 0.44392 0.74602 0.0
Mg603 Mg 0.31437 0.52432 0.72497 0.0
Mg604 Mg 0.30925 0.48235 0.78991 0.0
O605 O 0.33064 0.48733 0.75131 0.0
Mg606 Mg 0.37594 0.50016 0.75521 0.0
O607 O 0.42081 0.51555 0.75536 0.0
Mg608 Mg 0.4331 0.50808 0.70971 0.0
Mg609 Mg 0.44823 0.4976 0.78501 0.0
C610 C 0.36629 0.43541 0.80095 0.0
O611 O 0.37141 0.51934 0.80654 0.0
O612 O 0.26776 0.49662 0.72314 0.0
O613 O 0.42021 0.5074 0.82625 0.0
O614 O 0.29019 0.55047 0.76679 0.0
O615 O 0.26433 0.46925 0.76958 0.0
O616 O 0.30461 0.5271 0.81207 0.0
O617 O 0.38505 0.48181 0.70494 0.0
O618 O 0.33824 0.49704 0.68407 0.0
C619 C 0.3658 0.48382 0.68136 0.0
C620 C 0.25315 0.47798 0.74251 0.0
O621 O 0.38337 0.44946 0.77948 0.0
O622 O 0.47912 0.53538 0.72103 0.0
O623 O 0.33969 0.44671 0.81076 0.0
O624 O 0.46349 0.46217 0.72183 0.0
O625 O 0.48977 0.52456 0.77257 0.0
O626 O 0.45492 0.44989 0.77244 0.0
O627 O 0.36284 0.54794 0.73158 0.0
O628 O 0.40391 0.55409 0.69857 0.0
C629 C 0.28988 0.54911 0.79711 0.0
C630 C 0.39146 0.51729 0.82959 0.0
C631 C 0.71216 0.37104 0.56065 0.0
C632 C 0.72923 0.48943 0.5478 0.0
C633 C 0.73586 0.47228 0.44874 0.0
Mg634 Mg 0.72596 0.31061 0.52075 0.0
Mg635 Mg 0.78815 0.30444 0.4758 0.0
O636 O 0.75096 0.32734 0.48339 0.0
Mg637 Mg 0.75279 0.37358 0.49509 0.0
O638 O 0.74861 0.4182 0.51087 0.0
Mg639 Mg 0.70153 0.42728 0.50691 0.0
Mg640 Mg 0.77606 0.45141 0.50559 0.0
C641 C 0.79566 0.36359 0.42924 0.0
O642 O 0.80632 0.3732 0.51362 0.0
O643 O 0.72291 0.26349 0.49455 0.0
O644 O 0.8196 0.42524 0.51214 0.0
O645 O 0.76906 0.28669 0.5465 0.0
O646 O 0.76597 0.26032 0.46264 0.0
O647 O 0.81326 0.29528 0.51905 0.0
O648 O 0.70004 0.38035 0.47819 0.0
O649 O 0.68268 0.33309 0.49465 0.0
C650 C 0.67753 0.36013 0.48104 0.0
C651 C 0.74027 0.24883 0.47425 0.0
O652 O 0.77494 0.38115 0.44394 0.0
O653 O 0.70684 0.47156 0.53808 0.0
O654 O 0.80581 0.33681 0.44038 0.0
O655 O 0.71074 0.46072 0.46185 0.0
O656 O 0.75825 0.48544 0.53932 0.0
O657 O 0.76357 0.46782 0.46038 0.0
O658 O 0.73329 0.35935 0.54251 0.0
O659 O 0.6962 0.39602 0.55269 0.0
C660 C 0.79909 0.28313 0.54299 0.0
C661 C 0.82676 0.39581 0.51615 0.0
C662 C 0.63073 0.02583 0.68015 0.0
C663 C 0.74646 0.04211 0.72544 0.0
C664 C 0.72801 0.96359 0.78498 0.0
Mg665 Mg 0.56911 0.99129 0.708 0.0
Mg666 Mg 0.55179 0.979 0.78308 0.0
O667 O 0.58334 0.98136 0.75262 0.0
Mg668 Mg 0.62714 0.00088 0.75392 0.0
O669 O 0.67163 0.01851 0.74829 0.0
Mg670 Mg 0.68972 0.98757 0.71692 0.0
Mg671 Mg 0.69896 0.02866 0.78138 0.0
C672 C 0.6131 0.96916 0.82689 0.0
O673 O 0.61633 0.04731 0.7812 0.0
O674 O 0.52828 0.95546 0.7129 0.0
O675 O 0.66328 0.05592 0.80642 0.0
O676 O 0.53248 0.03146 0.72708 0.0
O677 O 0.51946 0.94438 0.76439 0.0
O678 O 0.52819 0.02313 0.77959 0.0
O679 O 0.64461 0.95786 0.72724 0.0
O680 O 0.60392 0.9502 0.694 0.0
C681 C 0.63138 0.94217 0.70518 0.0
C682 C 0.51352 0.94039 0.73491 0.0
O683 O 0.63385 0.97723 0.80552 0.0
O684 O 0.73166 0.02126 0.70938 0.0
O685 O 0.58294 0.96989 0.82228 0.0
O686 O 0.72204 0.96154 0.75521 0.0
O687 O 0.7383 0.04958 0.75381 0.0
O688 O 0.71613 0.98562 0.80176 0.0
O689 O 0.61355 0.02343 0.70522 0.0
O690 O 0.65939 0.01514 0.67954 0.0
C691 C 0.52079 0.03875 0.7545 0.0
C692 C 0.63381 0.06257 0.801 0.0
C693 C 0.47565 0.32918 0.14489 0.0
C694 C 0.4637 0.26536 0.25846 0.0
C695 C 0.53708 0.21041 0.22397 0.0
Mg696 Mg 0.50291 0.30188 0.0797 0.0
Mg697 Mg 0.49865 0.22726 0.06021 0.0
O698 O 0.50904 0.25579 0.09113 0.0
Mg699 Mg 0.49078 0.25405 0.1351 0.0
O700 O 0.47522 0.25708 0.18033 0.0
Mg701 Mg 0.51123 0.28277 0.19809 0.0
Mg702 Mg 0.47064 0.21834 0.20195 0.0
C703 C 0.51251 0.18027 0.11757 0.0
O704 O 0.44288 0.23098 0.12368 0.0
O705 O 0.53403 0.29373 0.03612 0.0
O706 O 0.43812 0.19957 0.16747 0.0
O707 O 0.45842 0.29062 0.04515 0.0
O708 O 0.53044 0.24226 0.0232 0.0
O709 O 0.45192 0.2381 0.04637 0.0
O710 O 0.53647 0.27469 0.15082 0.0
O711 O 0.54858 0.30867 0.11175 0.0
C712 C 0.55538 0.29457 0.13824 0.0
C713 C 0.54119 0.27022 0.0184 0.0
O714 O 0.50948 0.20152 0.13916 0.0
O715 O 0.48165 0.28526 0.2438 0.0
O716 O 0.50769 0.18569 0.08795 0.0
O717 O 0.5373 0.24067 0.22305 0.0
O718 O 0.45646 0.23816 0.24732 0.0
O719 O 0.51539 0.19502 0.21004 0.0
O720 O 0.47351 0.30551 0.12617 0.0
O721 O 0.48675 0.32569 0.17315 0.0
C722 C 0.44333 0.26556 0.03663 0.0
C723 C 0.42875 0.20901 0.13977 0.0
H724 H 0.07904 0.39266 0.68136 0.0
H725 H 0.03634 0.32145 0.62266 0.0
H726 H 0.03772 0.28377 0.66783 0.0
H727 H 0.04442 0.27415 0.72575 0.0
H728 H 0.08184 0.3481 0.78437 0.0
H729 H 0.09002 0.38168 0.73717 0.0
C730 C 0.07004 0.36885 0.67824 0.0
C731 C 0.05679 0.36012 0.64882 0.0
C732 C 0.07038 0.34784 0.70429 0.0
C733 C 0.04625 0.32889 0.64508 0.0
C734 C 0.04705 0.30742 0.67093 0.0
C735 C 0.05557 0.29715 0.72789 0.0
C736 C 0.06337 0.30849 0.75829 0.0
C737 C 0.05827 0.31697 0.70086 0.0
C738 C 0.07651 0.33872 0.76113 0.0
C739 C 0.08069 0.358 0.73422 0.0
H740 H 0.63656 0.68926 0.59869 0.0
H741 H 0.60367 0.77465 0.64422 0.0
H742 H 0.5666 0.78507 0.59999 0.0
H743 H 0.54571 0.77056 0.54703 0.0
H744 H 0.58016 0.68454 0.50314 0.0
H745 H 0.61482 0.67389 0.54816 0.0
C746 C 0.62125 0.71019 0.59899 0.0
C747 C 0.62296 0.73138 0.62429 0.0
C748 C 0.60054 0.71599 0.57371 0.0
C749 C 0.60263 0.75802 0.62484 0.0
C750 C 0.58167 0.76404 0.59952 0.0
C751 C 0.56088 0.74957 0.54737 0.0
C752 C 0.56047 0.72849 0.52169 0.0
C753 C 0.5808 0.74337 0.57357 0.0
C754 C 0.57994 0.70116 0.52258 0.0
C755 C 0.59982 0.69499 0.5483 0.0
H756 H 0.96007 0.11511 0.66298 0.0
H757 H 0.97237 0.19175 0.5954 0.0
H758 H 0.97554 0.22973 0.63932 0.0
H759 H 0.9807 0.23913 0.69749 0.0
H760 H 0.96984 0.16021 0.76286 0.0
H761 H 0.95948 0.12477 0.71897 0.0
C762 C 0.96339 0.14015 0.65776 0.0
C763 C 0.96702 0.15071 0.62636 0.0
C764 C 0.96523 0.16123 0.68268 0.0
C765 C 0.97014 0.18324 0.61968 0.0
C766 C 0.97193 0.2048 0.64469 0.0
C767 C 0.97537 0.21431 0.70185 0.0
C768 C 0.97624 0.20188 0.73293 0.0
C769 C 0.97035 0.19385 0.67635 0.0
C770 C 0.96954 0.16985 0.73885 0.0
C771 C 0.96371 0.14968 0.71389 0.0
H772 H 0.33576 0.76968 0.56285 0.0
H773 H 0.4098 0.74738 0.63089 0.0
H774 H 0.44251 0.72459 0.58842 0.0
H775 H 0.45216 0.71648 0.53096 0.0
H776 H 0.3788 0.74147 0.46344 0.0
H777 H 0.34314 0.75655 0.50682 0.0
C778 C 0.35906 0.75985 0.56856 0.0
C779 C 0.37056 0.76096 0.60008 0.0
C780 C 0.37754 0.7466 0.54411 0.0
C781 C 0.40051 0.74733 0.60688 0.0
C782 C 0.41914 0.73413 0.58259 0.0
C783 C 0.4278 0.72375 0.52594 0.0
C784 C 0.41771 0.7269 0.49406 0.0
C785 C 0.40811 0.73409 0.55101 0.0
C786 C 0.38666 0.73781 0.48775 0.0
C787 C 0.36656 0.74707 0.51256 0.0
H788 H 0.06302 0.68493 0.86876 0.0
H789 H 0.11186 0.60593 0.82503 0.0
H790 H 0.1081 0.63158 0.77357 0.0
H791 H 0.08313 0.67233 0.73913 0.0
H792 H 0.04207 0.75548 0.78206 0.0
H793 H 0.05109 0.7328 0.83497 0.0
C794 C 0.07357 0.67376 0.84817 0.0
C795 C 0.08622 0.64279 0.85088 0.0
C796 C 0.07243 0.68921 0.81806 0.0
C797 C 0.10063 0.62919 0.82379 0.0
C798 C 0.09865 0.64385 0.79406 0.0
C799 C 0.07718 0.68591 0.76009 0.0
C800 C 0.06145 0.7152 0.75658 0.0
C801 C 0.08332 0.67319 0.79062 0.0
C802 C 0.05413 0.73269 0.78404 0.0
C803 C 0.05904 0.71963 0.81444 0.0
H804 H 0.88071 0.75618 0.39478 0.0
H805 H 0.86878 0.65843 0.42363 0.0
H806 H 0.88861 0.67017 0.47655 0.0
H807 H 0.90964 0.70741 0.51452 0.0
H808 H 0.92456 0.80508 0.48698 0.0
H809 H 0.90176 0.79466 0.43445 0.0
C810 C 0.88323 0.73741 0.4125 0.0
C811 C 0.87403 0.70622 0.40502 0.0
C812 C 0.89412 0.74455 0.44347 0.0
C813 C 0.87629 0.6824 0.42859 0.0
C814 C 0.88725 0.68919 0.45899 0.0
C815 C 0.90751 0.72671 0.4973 0.0
C816 C 0.91888 0.75706 0.50498 0.0
C817 C 0.89599 0.72015 0.46677 0.0
C818 C 0.91565 0.7816 0.48214 0.0
C819 C 0.90316 0.77546 0.45179 0.0
H820 H 0.97651 0.82415 0.88795 0.0
H821 H 0.9015 0.88352 0.84863 0.0
H822 H 0.89488 0.84758 0.80477 0.0
H823 H 0.9185 0.80649 0.77171 0.0
H824 H 0.99139 0.74484 0.81019 0.0
H825 H 0.99054 0.77386 0.8603 0.0
C826 C 0.95824 0.82863 0.87021 0.0
C827 C 0.94064 0.85711 0.87063 0.0
C828 C 0.95443 0.80769 0.84466 0.0
C829 C 0.91636 0.86234 0.84801 0.0
C830 C 0.91236 0.84176 0.82293 0.0
C831 C 0.9331 0.79862 0.79165 0.0
C832 C 0.95538 0.77426 0.78743 0.0
C833 C 0.93248 0.81542 0.82007 0.0
C834 C 0.97432 0.76397 0.81312 0.0
C835 C 0.97398 0.78069 0.84163 0.0
H836 H 0.11872 0.83609 0.40107 0.0
H837 H 0.08419 0.7531 0.3535 0.0
H838 H 0.0523 0.73914 0.40021 0.0
H839 H 0.03748 0.74872 0.45586 0.0
H840 H 0.07181 0.83225 0.50269 0.0
H841 H 0.10106 0.84767 0.4549 0.0
C842 C 0.10395 0.8151 0.40083 0.0
C843 C 0.10396 0.79545 0.37416 0.0
C844 C 0.08616 0.8071 0.42771 0.0
C845 C 0.08444 0.76861 0.37382 0.0
C846 C 0.06648 0.76048 0.40058 0.0
C847 C 0.05151 0.7702 0.45556 0.0
C848 C 0.05299 0.78912 0.48274 0.0
C849 C 0.0678 0.77916 0.4279 0.0
C850 C 0.07055 0.81728 0.482 0.0
C851 C 0.08719 0.82612 0.45473 0.0
H852 H 0.66456 0.08835 0.36765 0.0
H853 H 0.65313 0.98707 0.36161 0.0
H854 H 0.70549 0.98221 0.3363 0.0
H855 H 0.75572 0.00617 0.32072 0.0
H856 H 0.76634 0.10781 0.32087 0.0
H857 H 0.71312 0.11341 0.34506 0.0
C858 C 0.67329 0.0654 0.35981 0.0
C859 C 0.65514 0.03806 0.36586 0.0
C860 C 0.7034 0.06291 0.34546 0.0
C861 C 0.66657 0.00834 0.35642 0.0
C862 C 0.6966 0.00558 0.34247 0.0
C863 C 0.74639 0.02963 0.32583 0.0
C864 C 0.76511 0.05656 0.31972 0.0
C865 C 0.71547 0.03259 0.33775 0.0
C866 C 0.75256 0.08678 0.32607 0.0
C867 C 0.72211 0.08991 0.33953 0.0
H868 H 0.26653 0.08238 0.84316 0.0
H869 H 0.25569 0.13739 0.92826 0.0
H870 H 0.23027 0.09184 0.95484 0.0
H871 H 0.21924 0.03408 0.95582 0.0
H872 H 0.23498 0.97922 0.87151 0.0
H873 H 0.24933 0.02741 0.84203 0.0
C874 C 0.25852 0.08458 0.86754 0.0
C875 C 0.26389 0.11295 0.88411 0.0
C876 C 0.24434 0.05842 0.88248 0.0
C877 C 0.25233 0.11568 0.91523 0.0
C878 C 0.23778 0.08965 0.93033 0.0
C879 C 0.22428 0.03305 0.93056 0.0
C880 C 0.22535 0.00331 0.91551 0.0
C881 C 0.23456 0.0606 0.91445 0.0
C882 C 0.23317 0.00192 0.88321 0.0
C883 C 0.24197 0.02939 0.86661 0.0
H884 H 0.36736 0.42553 0.32663 0.0
H885 H 0.32776 0.45427 0.41673 0.0
H886 H 0.27459 0.45043 0.39602 0.0
H887 H 0.23907 0.4475 0.35098 0.0
H888 H 0.27607 0.42318 0.25894 0.0
H889 H 0.32939 0.41578 0.28166 0.0
C890 C 0.34706 0.43055 0.34171 0.0
C891 C 0.35202 0.44078 0.37311 0.0
C892 C 0.31563 0.42915 0.32928 0.0
C893 C 0.32517 0.44688 0.39233 0.0
C894 C 0.29442 0.44461 0.38058 0.0
C895 C 0.25857 0.43955 0.33603 0.0
C896 C 0.25345 0.43617 0.30331 0.0
C897 C 0.28935 0.43693 0.34888 0.0
C898 C 0.27909 0.42576 0.28433 0.0
C899 C 0.30985 0.42208 0.29724 0.0
H900 H 0.68171 0.41465 0.85859 0.0
H901 H 0.75173 0.35128 0.90065 0.0
H902 H 0.77154 0.39462 0.93327 0.0
H903 H 0.76938 0.45119 0.94888 0.0
H904 H 0.69818 0.51311 0.90667 0.0
H905 H 0.6789 0.46976 0.87439 0.0
C906 C 0.70126 0.4102 0.87496 0.0
C907 C 0.71529 0.37986 0.87713 0.0
C908 C 0.71264 0.43511 0.8932 0.0
C909 C 0.74037 0.37443 0.8987 0.0
C910 C 0.75189 0.39925 0.91712 0.0
C911 C 0.74995 0.45513 0.93227 0.0
C912 C 0.73535 0.48522 0.92984 0.0
C913 C 0.73842 0.42981 0.91428 0.0
C914 C 0.70977 0.49008 0.9088 0.0
C915 C 0.69866 0.46532 0.89046 0.0
H916 H 0.62197 0.00904 0.1645 0.0
H917 H 0.63787 0.9079 0.16554 0.0
H918 H 0.67926 0.91316 0.20605 0.0
H919 H 0.71778 0.94761 0.23191 0.0
H920 H 0.70715 0.0492 0.22344 0.0
H921 H 0.65649 0.04316 0.19566 0.0
C922 C 0.63393 0.98824 0.17452 0.0
C923 C 0.6275 0.95826 0.16253 0.0
C924 C 0.65887 0.99174 0.19604 0.0
C925 C 0.64298 0.93118 0.17482 0.0
C926 C 0.6666 0.93422 0.19773 0.0
C927 C 0.70375 0.96827 0.22472 0.0
C928 C 0.71583 0.99868 0.22905 0.0
C929 C 0.67586 0.96452 0.20719 0.0
C930 C 0.69805 0.02556 0.21971 0.0
C931 C 0.66926 0.02211 0.20388 0.0
H932 H 0.23636 0.13044 0.10302 0.0
H933 H 0.15534 0.08689 0.14823 0.0
H934 H 0.16175 0.04019 0.11484 0.0
H935 H 0.19163 0.01095 0.0745 0.0
H936 H 0.2744 0.05328 0.03112 0.0
H937 H 0.26618 0.10116 0.06231 0.0
C938 C 0.21985 0.1109 0.10519 0.0
C939 C 0.19529 0.11211 0.12784 0.0
C940 C 0.22424 0.08378 0.08658 0.0
C941 C 0.17441 0.08643 0.13089 0.0
C942 C 0.17811 0.05973 0.1119 0.0
C943 C 0.20786 0.03065 0.07177 0.0
C944 C 0.23365 0.02844 0.05055 0.0
C945 C 0.20319 0.05798 0.08997 0.0
C946 C 0.25451 0.0542 0.04747 0.0
C947 C 0.24975 0.08167 0.06519 0.0
H948 H 0.38601 0.51189 0.1499 0.0
H949 H 0.38561 0.61026 0.17607 0.0
H950 H 0.33794 0.602 0.20878 0.0
H951 H 0.29192 0.5683 0.22296 0.0
H952 H 0.28978 0.47185 0.18972 0.0
H953 H 0.34245 0.47774 0.16649 0.0
C954 C 0.37615 0.53111 0.1639 0.0
C955 C 0.3895 0.56136 0.16148 0.0
C956 C 0.34758 0.52671 0.18044 0.0
C957 C 0.37602 0.58657 0.17847 0.0
C958 C 0.3485 0.58195 0.19664 0.0
C959 C 0.30318 0.54861 0.21081 0.0
C960 C 0.28677 0.51991 0.20753 0.0
C961 C 0.33328 0.55242 0.19665 0.0
C962 C 0.30161 0.49445 0.19187 0.0
C963 C 0.33186 0.49767 0.17883 0.0
H964 H 0.79209 0.42392 0.14943 0.0
H965 H 0.74276 0.36401 0.08348 0.0
H966 H 0.72553 0.4114 0.05312 0.0
H967 H 0.72867 0.46958 0.04328 0.0
H968 H 0.78095 0.52749 0.10838 0.0
H969 H 0.79204 0.48092 0.14206 0.0
C970 C 0.77752 0.4209 0.12843 0.0
C971 C 0.76918 0.39023 0.11846 0.0
C972 C 0.76779 0.44799 0.1114 0.0
C973 C 0.74986 0.38722 0.09146 0.0
C974 C 0.7399 0.41433 0.07424 0.0
C975 C 0.74146 0.47201 0.0655 0.0
C976 C 0.75343 0.50185 0.07395 0.0
C977 C 0.74908 0.44481 0.08381 0.0
C978 C 0.77101 0.50481 0.10199 0.0
C979 C 0.77768 0.47816 0.1209 0.0
H980 H 0.411 0.68933 0.06019 0.0
H981 H 0.3287 0.62906 0.0545 0.0
H982 H 0.29392 0.67613 0.05303 0.0
H983 H 0.28763 0.7341 0.04732 0.0
H984 H 0.37057 0.79354 0.04756 0.0
H985 H 0.4045 0.74696 0.05823 0.0
C986 C 0.38543 0.6863 0.05874 0.0
C987 C 0.37253 0.65557 0.05688 0.0
C988 C 0.36575 0.71338 0.05736 0.0
C989 C 0.33931 0.65234 0.05558 0.0
C990 C 0.31943 0.67927 0.05483 0.0
C991 C 0.31302 0.73698 0.0509 0.0
C992 C 0.32662 0.76728 0.04727 0.0
C993 C 0.33246 0.70989 0.05505 0.0
C994 C 0.35962 0.77055 0.05081 0.0
C995 C 0.37898 0.74388 0.05647 0.0
H996 H 0.39586 0.33391 0.45988 0.0
H997 H 0.31005 0.39076 0.45447 0.0
H998 H 0.27841 0.34189 0.45123 0.0
H999 H 0.27592 0.28264 0.45627 0.0
H1000 H 0.36363 0.2283 0.45786 0.0
H1001 H 0.3941 0.27704 0.45399 0.0
C1002 C 0.37031 0.33601 0.45717 0.0
C1003 C 0.35536 0.36608 0.45789 0.0
C1004 C 0.35274 0.30821 0.45403 0.0
C1005 C 0.32213 0.36792 0.4544 0.0
C1006 C 0.30412 0.33998 0.45241 0.0
C1007 C 0.30165 0.28144 0.45437 0.0
C1008 C 0.31754 0.25178 0.45751 0.0
C1009 C 0.31921 0.30988 0.45288 0.0
C1010 C 0.35089 0.25071 0.45548 0.0
C1011 C 0.36832 0.27862 0.45372 0.0
H1012 H 0.60543 0.38149 0.73801 0.0
H1013 H 0.58854 0.37283 0.83876 0.0
H1014 H 0.53516 0.39516 0.83206 0.0
H1015 H 0.49319 0.41514 0.79807 0.0
H1016 H 0.50903 0.42746 0.6973 0.0
H1017 H 0.56245 0.40394 0.70321 0.0
C1018 C 0.59028 0.38549 0.75846 0.0
C1019 C 0.60093 0.3763 0.78896 0.0
C1020 C 0.55915 0.39765 0.75428 0.0
C1021 C 0.5809 0.38046 0.81525 0.0
C1022 C 0.55027 0.3927 0.81135 0.0
C1023 C 0.50797 0.41246 0.77712 0.0
C1024 C 0.49686 0.42306 0.74721 0.0
C1025 C 0.539 0.40077 0.78096 0.0
C1026 C 0.51673 0.41925 0.72058 0.0
C1027 C 0.54749 0.40629 0.72403 0.0
H1028 H 0.67278 0.13214 0.41694 0.0
H1029 H 0.66556 0.10697 0.51618 0.0
H1030 H 0.70153 0.15019 0.52974 0.0
H1031 H 0.72586 0.20084 0.51376 0.0
H1032 H 0.73283 0.22624 0.41453 0.0
H1033 H 0.70625 0.17687 0.40015 0.0
C1034 C 0.68012 0.13555 0.44138 0.0
C1035 C 0.66666 0.11694 0.46566 0.0
C1036 C 0.70006 0.16073 0.44887 0.0
C1037 C 0.67601 0.12109 0.49726 0.0
C1038 C 0.69616 0.146 0.50497 0.0
C1039 C 0.72205 0.19511 0.48899 0.0
C1040 C 0.7304 0.21704 0.46514 0.0
C1041 C 0.70687 0.16689 0.4811 0.0
C1042 C 0.72619 0.20954 0.43311 0.0
C1043 C 0.71097 0.18148 0.42497 0.0
H1044 H 0.93342 0.65181 0.29951 0.0
H1045 H 0.87 0.58134 0.26242 0.0
H1046 H 0.91517 0.5537 0.23818 0.0
H1047 H 0.97319 0.5473 0.2309 0.0
H1048 H 0.03653 0.61603 0.27055 0.0
H1049 H 0.99091 0.64733 0.28922 0.0
C1050 C 0.92937 0.63034 0.28624 0.0
C1051 C 0.8982 0.61848 0.2833 0.0
C1052 C 0.95548 0.61469 0.27208 0.0
C1053 C 0.89363 0.59087 0.26549 0.0
C1054 C 0.91947 0.57516 0.25137 0.0
C1055 C 0.97689 0.56989 0.24237 0.0
C1056 C 0.00818 0.57993 0.24843 0.0
C1057 C 0.95053 0.58673 0.25466 0.0
C1058 C 0.0127 0.60841 0.26471 0.0
C1059 C 0.9866 0.62593 0.27595 0.0
H1060 H 0.14078 0.34171 0.60143 0.0
H1061 H 0.18637 0.40355 0.53323 0.0
H1062 H 0.22662 0.36249 0.52279 0.0
H1063 H 0.24307 0.30609 0.52696 0.0
H1064 H 0.19542 0.24407 0.59331 0.0
H1065 H 0.16168 0.28819 0.61098 0.0
C1066 C 0.15989 0.34635 0.58469 0.0
C1067 C 0.16042 0.37517 0.56762 0.0
C1068 C 0.1823 0.32255 0.5784 0.0
C1069 C 0.18551 0.38136 0.54649 0.0
C1070 C 0.20833 0.35785 0.54037 0.0
C1071 C 0.22585 0.30271 0.5459 0.0
C1072 C 0.22141 0.27236 0.55906 0.0
C1073 C 0.20615 0.32795 0.55526 0.0
C1074 C 0.19903 0.26756 0.58323 0.0
C1075 C 0.17974 0.29264 0.59312 0.0
H1076 H 0.62774 0.60872 0.7568 0.0
H1077 H 0.58662 0.66167 0.67823 0.0
H1078 H 0.53994 0.62781 0.67926 0.0
H1079 H 0.51006 0.58437 0.70339 0.0
H1080 H 0.54927 0.533 0.78392 0.0
H1081 H 0.59741 0.56499 0.78125 0.0
C1082 C 0.6086 0.61262 0.73985 0.0
C1083 C 0.61046 0.63759 0.71757 0.0
C1084 C 0.58147 0.59348 0.74099 0.0
C1085 C 0.58548 0.64271 0.69583 0.0
C1086 C 0.55885 0.62334 0.69632 0.0
C1087 C 0.52923 0.58002 0.72021 0.0
C1088 C 0.52616 0.5564 0.74375 0.0
C1089 C 0.55648 0.59884 0.71894 0.0
C1090 C 0.55104 0.55124 0.76565 0.0
C1091 C 0.57858 0.56945 0.76411 0.0
H1092 H 0.41479 0.84827 0.67316 0.0
H1093 H 0.3548 0.88787 0.74617 0.0
H1094 H 0.3993 0.91901 0.76569 0.0
H1095 H 0.45537 0.93522 0.76182 0.0
H1096 H 0.51398 0.89891 0.68621 0.0
H1097 H 0.47012 0.8659 0.66807 0.0
C1098 C 0.41149 0.86379 0.6933 0.0
C1099 C 0.38163 0.86575 0.70822 0.0
C1100 C 0.43701 0.88196 0.70408 0.0
C1101 C 0.37753 0.88613 0.73412 0.0
C1102 C 0.403 0.90379 0.74542 0.0
C1103 C 0.45852 0.91975 0.74163 0.0
C1104 C 0.48781 0.91901 0.72558 0.0
C1105 C 0.43287 0.90181 0.73066 0.0
C1106 C 0.49158 0.89958 0.69897 0.0
C1107 C 0.46654 0.88084 0.68856 0.0
H1108 H 0.57429 0.89627 0.18342 0.0
H1109 H 0.54105 0.82077 0.1238 0.0
H1110 H 0.54231 0.78424 0.16988 0.0
H1111 H 0.5463 0.77633 0.22804 0.0
H1112 H 0.57301 0.85443 0.2873 0.0
H1113 H 0.58175 0.88762 0.23991 0.0
C1114 C 0.56725 0.87181 0.18022 0.0
C1115 C 0.55673 0.86145 0.15025 0.0
C1116 C 0.56731 0.85152 0.20671 0.0
C1117 C 0.54874 0.82945 0.14662 0.0
C1118 C 0.54952 0.80864 0.17296 0.0
C1119 C 0.55517 0.80029 0.23042 0.0
C1120 C 0.55976 0.81292 0.26095 0.0
C1121 C 0.55798 0.8197 0.20323 0.0
C1122 C 0.57005 0.84422 0.264 0.0
C1123 C 0.57458 0.86318 0.23697 0.0
H1124 H 0.11367 0.2717 0.12841 0.0
H1125 H 0.09518 0.17148 0.13544 0.0
H1126 H 0.06049 0.17488 0.08894 0.0
H1127 H 0.04188 0.20471 0.04246 0.0
H1128 H 0.06145 0.30472 0.03344 0.0
H1129 H 0.08949 0.30324 0.0845 0.0
C1130 C 0.101 0.25101 0.12031 0.0
C1131 C 0.10634 0.2215 0.1352 0.0
C1132 C 0.08221 0.25295 0.09278 0.0
C1133 C 0.09073 0.19447 0.12436 0.0
C1134 C 0.07133 0.19634 0.09761 0.0
C1135 C 0.05225 0.22619 0.05171 0.0
C1136 C 0.05038 0.25457 0.03401 0.0
C1137 C 0.06805 0.22515 0.08091 0.0
C1138 C 0.06304 0.28248 0.04658 0.0
C1139 C 0.07896 0.28166 0.07575 0.0
H1140 H 0.43773 0.66974 0.1238 0.0
H1141 H 0.53705 0.64421 0.11789 0.0
H1142 H 0.54914 0.6795 0.16201 0.0
H1143 H 0.5295 0.70897 0.20792 0.0
H1144 H 0.4298 0.733 0.21536 0.0
H1145 H 0.41947 0.70718 0.16456 0.0
C1146 C 0.46212 0.67306 0.1315 0.0
C1147 C 0.48662 0.65492 0.118 0.0
C1148 C 0.46852 0.69237 0.15745 0.0
C1149 C 0.51812 0.65854 0.12801 0.0
C1150 C 0.52487 0.6783 0.15339 0.0
C1151 C 0.50561 0.70885 0.19811 0.0
C1152 C 0.48022 0.72184 0.21542 0.0
C1153 C 0.49999 0.69393 0.16926 0.0
C1154 C 0.44951 0.72262 0.20238 0.0
C1155 C 0.44365 0.70787 0.17348 0.0
H1156 H 0.88108 0.23473 0.10871 0.0
H1157 H 0.83916 0.32204 0.07263 0.0
H1158 H 0.86164 0.31245 0.02055 0.0
H1159 H 0.89466 0.28125 0.98556 0.0
H1160 H 0.9406 0.19559 0.02025 0.0
H1161 H 0.9139 0.20164 0.07167 0.0
C1162 C 0.87729 0.25174 0.0895 0.0
C1163 C 0.85862 0.27921 0.09473 0.0
C1164 C 0.8903 0.246 0.05902 0.0
C1165 C 0.85344 0.30074 0.06937 0.0
C1166 C 0.86612 0.29522 0.03943 0.0
C1167 C 0.89848 0.26347 0.00409 0.0
C1168 C 0.9198 0.23811 0.99889 0.0
C1169 C 0.88454 0.26802 0.03396 0.0
C1170 C 0.92412 0.21526 0.02331 0.0
C1171 C 0.90929 0.21904 0.053 0.0
H1172 H 0.59015 0.1114 0.32207 0.0
H1173 H 0.56034 0.18455 0.38696 0.0
H1174 H 0.55154 0.22112 0.34192 0.0
H1175 H 0.5454 0.22948 0.2841 0.0
H1176 H 0.56775 0.15321 0.22025 0.0
H1177 H 0.58706 0.12063 0.26502 0.0
C1178 C 0.58205 0.13545 0.32662 0.0
C1179 C 0.57548 0.14504 0.358 0.0
C1180 C 0.57577 0.1557 0.30068 0.0
C1181 C 0.56538 0.17644 0.36316 0.0
C1182 C 0.56027 0.1973 0.33738 0.0
C1183 C 0.55538 0.20605 0.27996 0.0
C1184 C 0.55559 0.19377 0.24895 0.0
C1185 C 0.56444 0.18683 0.30602 0.0
C1186 C 0.56775 0.16315 0.24387 0.0
C1187 C 0.57848 0.14451 0.26947 0.0
H1188 H 0.38866 0.2609 0.89691 0.0
H1189 H 0.353 0.17254 0.93495 0.0
H1190 H 0.37203 0.18597 0.98759 0.0
H1191 H 0.39984 0.22133 0.02276 0.0
H1192 H 0.43943 0.30847 0.98638 0.0
H1193 H 0.41641 0.29798 0.9339 0.0
C1194 C 0.38568 0.24442 0.91666 0.0
C1195 C 0.36988 0.21542 0.91181 0.0
C1196 C 0.39645 0.25255 0.94745 0.0
C1197 C 0.36537 0.19477 0.93789 0.0
C1198 C 0.37596 0.20257 0.96812 0.0
C1199 C 0.40298 0.23847 0.00356 0.0
C1200 C 0.42137 0.26571 0.00873 0.0
C1201 C 0.39139 0.23135 0.97322 0.0
C1202 C 0.42499 0.28757 0.98343 0.0
C1203 C 0.41239 0.28119 0.95316 0.0
H1204 H 0.47216 0.31465 0.39593 0.0
H1205 H 0.39444 0.3732 0.36181 0.0
H1206 H 0.39027 0.34124 0.31408 0.0
H1207 H 0.41605 0.30365 0.27776 0.0
H1208 H 0.49375 0.2449 0.31137 0.0
H1209 H 0.49048 0.26924 0.36379 0.0
C1210 C 0.45362 0.31947 0.37853 0.0
C1211 C 0.43387 0.34618 0.38183 0.0
C1212 C 0.45172 0.30123 0.35091 0.0
C1213 C 0.41 0.35272 0.35931 0.0
C1214 C 0.4077 0.33458 0.33201 0.0
C1215 C 0.43135 0.29548 0.29704 0.0
C1216 C 0.45509 0.27282 0.29114 0.0
C1217 C 0.4295 0.30982 0.32684 0.0
C1218 C 0.4752 0.26235 0.31581 0.0
C1219 C 0.47349 0.2764 0.34562 0.0
H1220 H 0.63709 0.31407 0.91332 0.0
H1221 H 0.59106 0.23976 0.86139 0.0
H1222 H 0.55698 0.22834 0.90734 0.0
H1223 H 0.54136 0.23915 0.96258 0.0
H1224 H 0.58684 0.31487 0.01307 0.0
H1225 H 0.62057 0.32594 0.96719 0.0
C1226 C 0.6196 0.29533 0.91207 0.0
C1227 C 0.61662 0.27756 0.88434 0.0
C1228 C 0.6003 0.28908 0.93826 0.0
C1229 C 0.59359 0.25375 0.88264 0.0
C1230 C 0.57431 0.24713 0.90888 0.0
C1231 C 0.55885 0.25789 0.96351 0.0
C1232 C 0.56193 0.27604 0.99106 0.0
C1233 C 0.57769 0.2645 0.93689 0.0
C1234 C 0.58416 0.30064 0.992 0.0
C1235 C 0.60338 0.30698 0.96585 0.0
H1236 H 0.18753 0.56583 0.9002 0.0
H1237 H 0.12876 0.52819 0.82568 0.0
H1238 H 0.17266 0.53501 0.78779 0.0
H1239 H 0.22934 0.54574 0.77802 0.0
H1240 H 0.28857 0.57838 0.85434 0.0
H1241 H 0.2421 0.58099 0.88937 0.0
C1242 C 0.18417 0.5589 0.8757 0.0
C1243 C 0.15517 0.54555 0.86595 0.0
C1244 C 0.20933 0.56281 0.85436 0.0
C1245 C 0.15106 0.5378 0.8339 0.0
C1246 C 0.17605 0.54194 0.81226 0.0
C1247 C 0.23176 0.55471 0.80193 0.0
C1248 C 0.26213 0.5624 0.8136 0.0
C1249 C 0.20547 0.55384 0.82243 0.0
C1250 C 0.26529 0.573 0.84484 0.0
C1251 C 0.23888 0.57386 0.86493 0.0
H1252 H 0.73705 0.60874 0.38955 0.0
H1253 H 0.83167 0.57494 0.36676 0.0
H1254 H 0.81772 0.5216 0.38332 0.0
H1255 H 0.78028 0.48484 0.40551 0.0
H1256 H 0.68897 0.51786 0.43876 0.0
H1257 H 0.6987 0.57036 0.41456 0.0
C1258 C 0.7547 0.58979 0.38907 0.0
C1259 C 0.78544 0.59582 0.37713 0.0
C1260 C 0.74662 0.55874 0.39911 0.0
C1261 C 0.80794 0.57093 0.37602 0.0
C1262 C 0.79989 0.5403 0.38503 0.0
C1263 C 0.76212 0.50332 0.4069 0.0
C1264 C 0.73411 0.49752 0.42406 0.0
C1265 C 0.76934 0.53393 0.39634 0.0
C1266 C 0.71065 0.52156 0.42536 0.0
C1267 C 0.71663 0.55184 0.41232 0.0
H1268 H 0.83117 0.92051 0.88166 0.0
H1269 H 0.88801 0.98287 0.82317 0.0
H1270 H 0.845 0.9856 0.7836 0.0
H1271 H 0.78844 0.97652 0.77008 0.0
H1272 H 0.73071 0.91897 0.83219 0.0
H1273 H 0.77716 0.90734 0.86575 0.0
C1274 C 0.83437 0.93461 0.86016 0.0
C1275 C 0.86254 0.95212 0.85573 0.0
C1276 C 0.80939 0.93661 0.83813 0.0
C1277 C 0.8665 0.96949 0.82734 0.0
C1278 C 0.84187 0.97106 0.80478 0.0
C1279 C 0.78649 0.96034 0.79025 0.0
C1280 C 0.7565 0.94785 0.79836 0.0
C1281 C 0.81286 0.95549 0.81043 0.0
C1282 C 0.75374 0.92805 0.82517 0.0
C1283 C 0.78017 0.92186 0.84454 0.0
H1284 H 0.24113 0.88067 0.38271 0.0
H1285 H 0.15877 0.92832 0.34266 0.0
H1286 H 0.16947 0.97514 0.37464 0.0
H1287 H 0.2023 0.00232 0.41385 0.0
H1288 H 0.28643 0.95577 0.45158 0.0
H1289 H 0.27519 0.90871 0.42029 0.0
C1290 C 0.2254 0.90124 0.38123 0.0
C1291 C 0.199 0.90106 0.36075 0.0
C1292 C 0.2322 0.92827 0.39898 0.0
C1293 C 0.17917 0.92801 0.35842 0.0
C1294 C 0.1853 0.95472 0.37663 0.0
C1295 C 0.21821 0.9819 0.41516 0.0
C1296 C 0.24509 0.98246 0.43502 0.0
C1297 C 0.21178 0.95512 0.39692 0.0
C1298 C 0.26569 0.95598 0.43627 0.0
C1299 C 0.25918 0.92901 0.41856 0.0
H1300 H 0.14424 0.41697 0.66702 0.0
H1301 H 0.10641 0.51215 0.67307 0.0
H1302 H 0.14749 0.52551 0.71188 0.0
H1303 H 0.20016 0.51275 0.73459 0.0
H1304 H 0.23814 0.41769 0.72816 0.0
H1305 H 0.19067 0.4011 0.69912 0.0
C1306 C 0.14455 0.44028 0.67773 0.0
C1307 C 0.1231 0.46381 0.66723 0.0
C1308 C 0.16839 0.44776 0.69939 0.0
C1309 C 0.12299 0.49386 0.68109 0.0
C1310 C 0.14658 0.50152 0.70293 0.0
C1311 C 0.19738 0.48822 0.7276 0.0
C1312 C 0.22224 0.46639 0.73279 0.0
C1313 C 0.17033 0.47913 0.71085 0.0
C1314 C 0.21895 0.43465 0.72408 0.0
C1315 C 0.19203 0.4253 0.70742 0.0
H1316 H 0.67702 0.59013 0.64496 0.0
H1317 H 0.75157 0.64567 0.60169 0.0
H1318 H 0.76558 0.60153 0.56733 0.0
H1319 H 0.75772 0.54662 0.5505 0.0
H1320 H 0.68154 0.49185 0.59153 0.0
H1321 H 0.66725 0.53609 0.62599 0.0
C1322 C 0.69621 0.59259 0.62788 0.0
C1323 C 0.71328 0.62107 0.62599 0.0
C1324 C 0.70405 0.56717 0.608 0.0
C1325 C 0.73791 0.62406 0.60354 0.0
C1326 C 0.7461 0.59876 0.584 0.0
C1327 C 0.73812 0.54437 0.56713 0.0
C1328 C 0.72094 0.51599 0.56881 0.0
C1329 C 0.72957 0.57011 0.58626 0.0
C1330 C 0.69516 0.51351 0.58993 0.0
C1331 C 0.68697 0.53877 0.6096 0.0
H1332 H 0.84351 0.08634 0.6231 0.0
H1333 H 0.91036 0.0445 0.68936 0.0
H1334 H 0.86772 0.03892 0.72912 0.0
H1335 H 0.80949 0.03851 0.74127 0.0
H1336 H 0.74366 0.07837 0.67269 0.0
H1337 H 0.78773 0.09277 0.63777 0.0
C1338 C 0.84886 0.07662 0.64654 0.0
C1339 C 0.87981 0.06551 0.65329 0.0
C1340 C 0.82428 0.07306 0.66876 0.0
C1341 C 0.88667 0.05326 0.68373 0.0
C1342 C 0.86222 0.04986 0.7063 0.0
C1343 C 0.80507 0.05135 0.71918 0.0
C1344 C 0.77349 0.05771 0.70955 0.0
C1345 C 0.83066 0.05864 0.69865 0.0
C1346 C 0.76782 0.0736 0.68059 0.0
C1347 C 0.79298 0.08159 0.66054 0.0
H1348 H 0.29259 0.91715 0.64538 0.0
H1349 H 0.25675 0.86068 0.56852 0.0
H1350 H 0.23734 0.9093 0.54166 0.0
H1351 H 0.23404 0.96815 0.53886 0.0
H1352 H 0.27219 0.02308 0.61538 0.0
H1353 H 0.28596 0.97424 0.64459 0.0
C1354 C 0.28059 0.91513 0.6227 0.0
C1355 C 0.27665 0.88512 0.60874 0.0
C1356 C 0.26915 0.94287 0.60789 0.0
C1357 C 0.26059 0.8834 0.57956 0.0
C1358 C 0.24924 0.91117 0.56439 0.0
C1359 C 0.24418 0.96926 0.56253 0.0
C1360 C 0.25137 0.999 0.57554 0.0
C1361 C 0.25356 0.94104 0.57831 0.0
C1362 C 0.26572 0.00041 0.6055 0.0
C1363 C 0.27407 0.97253 0.62183 0.0
H1364 H 0.83682 0.14258 0.57445 0.0
H1365 H 0.92465 0.17655 0.53344 0.0
H1366 H 0.90558 0.23067 0.53597 0.0
H1367 H 0.86188 0.26795 0.54213 0.0
H1368 H 0.77202 0.23571 0.5793 0.0
H1369 H 0.79428 0.18237 0.5872 0.0
C1370 C 0.85174 0.16188 0.56629 0.0
C1371 C 0.88176 0.15515 0.55289 0.0
C1372 C 0.84038 0.19362 0.56726 0.0
C1373 C 0.90104 0.18064 0.54301 0.0
C1374 C 0.89032 0.21186 0.54466 0.0
C1375 C 0.84734 0.24954 0.55282 0.0
C1376 C 0.81515 0.25586 0.5594 0.0
C1377 C 0.85969 0.21858 0.5557 0.0
C1378 C 0.7969 0.23168 0.57376 0.0
C1379 C 0.80948 0.20089 0.57783 0.0
H1380 H 0.88536 0.83427 0.92243 0.0
H1381 H 0.8206 0.88795 0.98113 0.0
H1382 H 0.7846 0.84226 0.98341 0.0
H1383 H 0.77616 0.78474 0.97519 0.0
H1384 H 0.84529 0.73053 0.92247 0.0
H1385 H 0.87506 0.77903 0.9108 0.0
C1386 C 0.86328 0.83621 0.93569 0.0
C1387 C 0.85603 0.86428 0.95232 0.0
C1388 C 0.84358 0.80971 0.93775 0.0
C1389 C 0.82689 0.86657 0.96846 0.0
C1390 C 0.80643 0.8404 0.96982 0.0
C1391 C 0.79714 0.7839 0.96019 0.0
C1392 C 0.80832 0.75438 0.949 0.0
C1393 C 0.8151 0.81154 0.9554 0.0
C1394 C 0.83606 0.75311 0.93063 0.0
C1395 C 0.85317 0.78074 0.92435 0.0
H1396 H 0.06512 0.83738 0.26114 0.0
H1397 H 0.12384 0.91857 0.24049 0.0
H1398 H 0.07731 0.94688 0.21829 0.0
H1399 H 0.01896 0.9503 0.21067 0.0
H1400 H 0.96077 0.87002 0.23544 0.0
H1401 H 0.00849 0.83893 0.24905 0.0
C1402 C 0.06797 0.86129 0.25176 0.0
C1403 C 0.09792 0.87611 0.25315 0.0
C1404 C 0.04127 0.87724 0.23922 0.0
C1405 C 0.10106 0.90677 0.24011 0.0
C1406 C 0.07447 0.92287 0.22733 0.0
C1407 C 0.0169 0.92554 0.21772 0.0
C1408 C 0.98644 0.91212 0.22139 0.0
C1409 C 0.04434 0.90852 0.22732 0.0
C1410 C 0.98395 0.88048 0.23174 0.0
C1411 C 0.0112 0.86297 0.24003 0.0
H1412 H 0.17703 0.63413 0.91646 0.0
H1413 H 0.16274 0.61439 0.01607 0.0
H1414 H 0.19731 0.65869 0.02977 0.0
H1415 H 0.22278 0.70854 0.01287 0.0
H1416 H 0.23688 0.72831 0.91314 0.0
H1417 H 0.21126 0.67825 0.89972 0.0
C1418 C 0.18257 0.63893 0.94112 0.0
C1419 C 0.16752 0.62148 0.96532 0.0
C1420 C 0.20164 0.66478 0.94864 0.0
C1421 C 0.17449 0.62753 0.99721 0.0
C1422 C 0.1938 0.65309 0.00497 0.0
C1423 C 0.22058 0.70154 0.98825 0.0
C1424 C 0.23075 0.72215 0.9639 0.0
C1425 C 0.20605 0.67281 0.98085 0.0
C1426 C 0.22876 0.71279 0.93213 0.0
C1427 C 0.21413 0.68428 0.9245 0.0
H1428 H 0.38804 0.11217 0.75665 0.0
H1429 H 0.41171 0.11475 0.85625 0.0
H1430 H 0.46287 0.08897 0.84567 0.0
H1431 H 0.50083 0.06614 0.80873 0.0
H1432 H 0.47863 0.06179 0.70884 0.0
H1433 H 0.42766 0.08919 0.71862 0.0
C1434 C 0.40416 0.10631 0.77603 0.0
C1435 C 0.39576 0.11453 0.8074 0.0
C1436 C 0.43417 0.09219 0.76958 0.0
C1437 C 0.41736 0.108 0.83212 0.0
C1438 C 0.44676 0.09364 0.826 0.0
C1439 C 0.4851 0.07141 0.78886 0.0
C1440 C 0.49378 0.06181 0.75802 0.0
C1441 C 0.45551 0.08591 0.79486 0.0
C1442 C 0.47296 0.0692 0.73274 0.0
C1443 C 0.44351 0.0844 0.73845 0.0
H1444 H 0.63897 0.83953 0.09637 0.0
H1445 H 0.68482 0.90208 0.02897 0.0
H1446 H 0.7263 0.86195 0.01986 0.0
H1447 H 0.7439 0.806 0.02472 0.0
H1448 H 0.69551 0.74299 0.08954 0.0
H1449 H 0.66073 0.78653 0.10659 0.0
C1450 C 0.65831 0.84452 0.08 0.0
C1451 C 0.65858 0.87324 0.06277 0.0
C1452 C 0.68147 0.82125 0.07449 0.0
C1453 C 0.68406 0.8799 0.04224 0.0
C1454 C 0.70765 0.85695 0.03694 0.0
C1455 C 0.72638 0.80231 0.04331 0.0
C1456 C 0.72204 0.77184 0.05619 0.0
C1457 C 0.70585 0.82712 0.05202 0.0
C1458 C 0.69914 0.76661 0.07978 0.0
C1459 C 0.67919 0.79134 0.08925 0.0
H1460 H 0.1288 0.09451 0.25477 0.0
H1461 H 0.07778 0.1617 0.19465 0.0
H1462 H 0.03317 0.12605 0.19151 0.0
H1463 H 0.00784 0.07703 0.20638 0.0
H1464 H 0.05536 0.00997 0.26901 0.0
H1465 H 0.10225 0.04425 0.27049 0.0
C1466 C 0.10785 0.10124 0.2411 0.0
C1467 C 0.10656 0.13077 0.22519 0.0
C1468 C 0.08175 0.0807 0.2397 0.0
C1469 C 0.0793 0.13928 0.20749 0.0
C1470 C 0.05376 0.11886 0.20548 0.0
C1471 C 0.02858 0.06963 0.22008 0.0
C1472 C 0.02833 0.04102 0.23735 0.0
C1473 C 0.0547 0.08965 0.22152 0.0
C1474 C 0.05512 0.03202 0.25548 0.0
C1475 C 0.08183 0.0516 0.25637 0.0
H1476 H 0.87462 0.39143 0.24241 0.0
H1477 H 0.91192 0.36002 0.1525 0.0
H1478 H 0.96044 0.39032 0.16106 0.0
H1479 H 0.99252 0.42437 0.19457 0.0
H1480 H 0.9567 0.45377 0.28585 0.0
H1481 H 0.90729 0.42516 0.27646 0.0
C1482 C 0.89324 0.39161 0.22454 0.0
C1483 C 0.88974 0.37389 0.19673 0.0
C1484 C 0.92135 0.40829 0.23005 0.0
C1485 C 0.9142 0.37365 0.17403 0.0
C1486 C 0.94189 0.39085 0.17895 0.0
C1487 C 0.97391 0.42459 0.21244 0.0
C1488 C 0.97823 0.44122 0.24083 0.0
C1489 C 0.94581 0.40799 0.20699 0.0
C1490 C 0.95402 0.44099 0.26386 0.0
C1491 C 0.92571 0.4248 0.25844 0.0
H1492 H 0.20637 0.15604 0.85392 0.0
H1493 H 0.20839 0.23581 0.78899 0.0
H1494 H 0.15362 0.25011 0.80361 0.0
H1495 H 0.10698 0.24288 0.83868 0.0
H1496 H 0.10731 0.16582 0.90725 0.0
H1497 H 0.15908 0.14778 0.88773 0.0
C1498 C 0.1944 0.17596 0.84228 0.0
C1499 C 0.2111 0.19435 0.81972 0.0
C1500 C 0.1635 0.18501 0.8521 0.0
C1501 C 0.19577 0.22087 0.80581 0.0
C1502 C 0.16458 0.22925 0.81448 0.0
C1503 C 0.11823 0.22199 0.84922 0.0
C1504 C 0.10311 0.20591 0.87462 0.0
C1505 C 0.14848 0.212 0.83823 0.0
C1506 C 0.11832 0.17894 0.88795 0.0
C1507 C 0.14797 0.16847 0.87668 0.0
H1508 H 0.47231 0.5242 0.37768 0.0
H1509 H 0.42415 0.55152 0.46377 0.0
H1510 H 0.43606 0.6075 0.45215 0.0
H1511 H 0.45893 0.64905 0.41594 0.0
H1512 H 0.50554 0.61906 0.32962 0.0
H1513 H 0.49517 0.56408 0.34298 0.0
C1514 C 0.46434 0.54223 0.39413 0.0
C1515 C 0.44714 0.53339 0.42155 0.0
C1516 C 0.47086 0.57418 0.38709 0.0
C1517 C 0.43741 0.55742 0.44248 0.0
C1518 C 0.44414 0.58952 0.43575 0.0
C1519 C 0.46681 0.63048 0.40008 0.0
C1520 C 0.48297 0.6386 0.37164 0.0
C1521 C 0.46061 0.59827 0.40786 0.0
C1522 C 0.49301 0.61397 0.35155 0.0
C1523 C 0.48713 0.58229 0.35918 0.0
H1524 H 0.78517 0.26994 0.84939 0.0
H1525 H 0.79642 0.34954 0.78482 0.0
H1526 H 0.85217 0.35387 0.80056 0.0
H1527 H 0.89813 0.33341 0.83013 0.0
H1528 H 0.88834 0.25244 0.893 0.0
H1529 H 0.83102 0.25149 0.88188 0.0
C1530 C 0.79989 0.28802 0.83842 0.0
C1531 C 0.7867 0.30898 0.81531 0.0
C1532 C 0.83188 0.2907 0.84801 0.0
C1533 C 0.80599 0.3328 0.80217 0.0
C1534 C 0.8378 0.33547 0.81142 0.0
C1535 C 0.88338 0.31591 0.84201 0.0
C1536 C 0.89765 0.29286 0.86223 0.0
C1537 C 0.85098 0.31448 0.83415 0.0
C1538 C 0.87806 0.27063 0.87761 0.0
C1539 C 0.84537 0.2697 0.8707 0.0
H1540 H 0.58544 0.95109 0.38879 0.0
H1541 H 0.50812 0.97999 0.44958 0.0
H1542 H 0.48186 0.9292 0.44152 0.0
H1543 H 0.48209 0.8761 0.41938 0.0
H1544 H 0.55855 0.84584 0.35821 0.0
H1545 H 0.58333 0.89822 0.36277 0.0
C1546 C 0.56307 0.94587 0.40053 0.0
C1547 C 0.54905 0.96857 0.42058 0.0
C1548 C 0.54766 0.9169 0.39497 0.0
C1549 C 0.51955 0.96238 0.43475 0.0
C1550 C 0.50443 0.93357 0.42985 0.0
C1551 C 0.50385 0.88121 0.40646 0.0
C1552 C 0.51857 0.85721 0.38859 0.0
C1553 C 0.51831 0.91069 0.41015 0.0
C1554 C 0.54661 0.86409 0.37182 0.0
C1555 C 0.56104 0.89381 0.37493 0.0
H1556 H 0.181 0.81795 0.70087 0.0
H1557 H 0.21319 0.8063 0.60446 0.0
H1558 H 0.15863 0.81149 0.58499 0.0
H1559 H 0.10159 0.81474 0.59561 0.0
H1560 H 0.06801 0.81951 0.69212 0.0
H1561 H 0.12297 0.82229 0.71146 0.0
C1562 C 0.17583 0.81662 0.67567 0.0
C1563 C 0.20069 0.81134 0.65407 0.0
C1564 C 0.14421 0.81869 0.66472 0.0
C1565 C 0.19411 0.80979 0.62144 0.0
C1566 C 0.16303 0.81297 0.6103 0.0
C1567 C 0.10636 0.81735 0.62078 0.0
C1568 C 0.08101 0.81752 0.64241 0.0
C1569 C 0.13786 0.81694 0.63173 0.0
C1570 C 0.08733 0.8198 0.67507 0.0
C1571 C 0.1187 0.82106 0.68612 0.0
H1572 H 0.02495 0.53821 0.62701 0.0
H1573 H 0.08734 0.54954 0.54634 0.0
H1574 H 0.08654 0.60697 0.55286 0.0
H1575 H 0.0668 0.65369 0.57977 0.0
H1576 H 0.00209 0.64464 0.65862 0.0
H1577 H 0.00648 0.58642 0.65595 0.0
C1578 C 0.03774 0.55345 0.61056 0.0
C1579 C 0.05553 0.53995 0.58569 0.0
C1580 C 0.03771 0.58657 0.6149 0.0
C1581 C 0.073 0.55963 0.56518 0.0
C1582 C 0.0729 0.59234 0.56916 0.0
C1583 C 0.05434 0.63893 0.59696 0.0
C1584 C 0.03432 0.65324 0.61944 0.0
C1585 C 0.05546 0.60598 0.59392 0.0
C1586 C 0.01813 0.63406 0.64151 0.0
C1587 C 0.02008 0.60084 0.63944 0.0
H1588 H 0.79324 0.71605 0.64028 0.0
H1589 H 0.80514 0.65019 0.71888 0.0
H1590 H 0.86068 0.64106 0.70359 0.0
H1591 H 0.90668 0.6571 0.67227 0.0
H1592 H 0.89539 0.7259 0.59597 0.0
H1593 H 0.83797 0.72653 0.60437 0.0
C1594 C 0.80809 0.69991 0.65425 0.0
C1595 C 0.79568 0.68471 0.6814 0.0
C1596 C 0.83968 0.69459 0.64513 0.0
C1597 C 0.81462 0.66278 0.69842 0.0
C1598 C 0.84615 0.65731 0.68948 0.0
C1599 C 0.89165 0.67169 0.65689 0.0
C1600 C 0.90546 0.69254 0.63453 0.0
C1601 C 0.85907 0.6737 0.66335 0.0
C1602 C 0.88551 0.71016 0.61391 0.0
C1603 C 0.8527 0.71101 0.61909 0.0
H1604 H 0.92391 0.97137 0.63098 0.0
H1605 H 0.94693 0.95824 0.53236 0.0
H1606 H 0.95482 0.90088 0.54222 0.0
H1607 H 0.96086 0.85561 0.58097 0.0
H1608 H 0.93712 0.8712 0.67942 0.0
H1609 H 0.92329 0.92613 0.66745 0.0
C1610 C 0.93021 0.95583 0.61153 0.0
C1611 C 0.93517 0.96889 0.58112 0.0
C1612 C 0.9347 0.92327 0.61744 0.0
C1613 C 0.94295 0.9486 0.556 0.0
C1614 C 0.94763 0.91588 0.56172 0.0
C1615 C 0.95205 0.87086 0.5996 0.0
C1616 C 0.95059 0.85929 0.63121 0.0
C1617 C 0.94439 0.90303 0.59261 0.0
C1618 C 0.93899 0.8795 0.65502 0.0
C1619 C 0.93108 0.91102 0.64824 0.0
H1620 H 0.84484 0.20268 0.1528 0.0
H1621 H 0.77842 0.2024 0.23061 0.0
H1622 H 0.7955 0.14837 0.2457 0.0
H1623 H 0.83299 0.10313 0.23959 0.0
H1624 H 0.90192 0.10551 0.16355 0.0
H1625 H 0.8806 0.15659 0.14526 0.0
C1626 C 0.8334 0.19029 0.17238 0.0
C1627 C 0.80965 0.20605 0.18996 0.0
C1628 C 0.84446 0.15983 0.18177 0.0
C1629 C 0.79602 0.19035 0.21617 0.0
C1630 C 0.80614 0.15963 0.22504 0.0
C1631 C 0.84324 0.11467 0.2189 0.0
C1632 C 0.86926 0.10025 0.20319 0.0
C1633 C 0.83095 0.14442 0.20852 0.0
C1634 C 0.88214 0.11588 0.17641 0.0
C1635 C 0.86984 0.14516 0.16577 0.0
H1636 H 0.47579 0.87896 0.02706 0.0
H1637 H 0.45908 0.96391 0.08123 0.0
H1638 H 0.40297 0.96329 0.06706 0.0
H1639 H 0.35927 0.94008 0.03853 0.0
H1640 H 0.37308 0.85467 0.98482 0.0
H1641 H 0.42977 0.85334 1.00024 0.0
C1642 C 0.45979 0.89735 0.03555 0.0
C1643 C 0.47156 0.92166 0.05491 0.0
C1644 C 0.42719 0.89653 0.02774 0.0
C1645 C 0.45059 0.94503 0.06629 0.0
C1646 C 0.41851 0.94468 0.05825 0.0
C1647 C 0.37467 0.92104 0.03025 0.0
C1648 C 0.36237 0.89776 0.01026 0.0
C1649 C 0.40669 0.9207 0.03896 0.0
C1650 C 0.38221 0.87284 1.00024 0.0
C1651 C 0.41456 0.8723 0.00885 0.0
H1652 H 0.15786 0.30009 0.15746 0.0
H1653 H 0.21898 0.29924 0.23968 0.0
H1654 H 0.20598 0.35513 0.2492 0.0
H1655 H 0.17208 0.40141 0.23818 0.0
H1656 H 0.10644 0.40061 0.15927 0.0
H1657 H 0.12612 0.34796 0.14444 0.0
C1658 C 0.16901 0.31251 0.17687 0.0
C1659 C 0.18965 0.29592 0.19766 0.0
C1660 C 0.15998 0.34398 0.18317 0.0
C1661 C 0.20333 0.31181 0.22325 0.0
C1662 C 0.19565 0.34358 0.22883 0.0
C1663 C 0.16233 0.38998 0.21745 0.0
C1664 C 0.13764 0.40485 0.19999 0.0
C1665 C 0.17316 0.3595 0.20959 0.0
C1666 C 0.12522 0.38956 0.1733 0.0
C1667 C 0.13653 0.35951 0.16477 0.0
H1668 H 0.56576 0.5653 0.07999 0.0
H1669 H 0.52702 0.59439 0.98898 0.0
H1670 H 0.57834 0.61582 0.97339 0.0
H1671 H 0.63314 0.63066 0.98715 0.0
H1672 H 0.67341 0.59874 0.07621 0.0
H1673 H 0.62267 0.57434 0.0911 0.0
C1674 C 0.56866 0.57576 0.05651 0.0
C1675 C 0.54223 0.57852 0.03595 0.0
C1676 C 0.59841 0.58817 0.04756 0.0
C1677 C 0.5467 0.59197 0.00548 0.0
C1678 C 0.57607 0.60453 0.99655 0.0
C1679 C 0.63067 0.61838 0.00982 0.0
C1680 C 0.65653 0.61711 0.03097 0.0
C1681 C 0.6018 0.60362 0.01773 0.0
C1682 C 0.65355 0.60033 0.05982 0.0
C1683 C 0.62462 0.58634 0.06826 0.0
H1684 H 0.85848 0.78244 0.28303 0.0
H1685 H 0.79184 0.79485 0.36018 0.0
H1686 H 0.80139 0.85216 0.35869 0.0
H1687 H 0.8262 0.89847 0.33354 0.0
H1688 H 0.89183 0.88613 0.25555 0.0
H1689 H 0.8861 0.82843 0.26034 0.0
C1690 C 0.84581 0.79756 0.29954 0.0
C1691 C 0.82387 0.78426 0.32137 0.0
C1692 C 0.8517 0.8303 0.29873 0.0
C1693 C 0.80842 0.80437 0.34291 0.0
C1694 C 0.81405 0.8371 0.34215 0.0
C1695 C 0.83965 0.88323 0.31774 0.0
C1696 C 0.85919 0.89677 0.29388 0.0
C1697 C 0.83537 0.85029 0.31995 0.0
C1698 C 0.87674 0.87651 0.27411 0.0
C1699 C 0.87311 0.84352 0.2766 0.0
H1700 H 0.02986 0.88996 0.98592 0.0
H1701 H 0.05166 0.95152 0.90639 0.0
H1702 H 0.10861 0.9395 0.91313 0.0
H1703 H 0.15227 0.90956 0.94078 0.0
H1704 H 0.12823 0.84537 0.01769 0.0
H1705 H 0.07235 0.86036 0.01277 0.0
C1706 C 0.047 0.90111 0.9702 0.0
C1707 C 0.03636 0.92187 0.94582 0.0
C1708 C 0.07947 0.89335 0.97361 0.0
C1709 C 0.05909 0.93555 0.92541 0.0
C1710 C 0.09169 0.9286 0.92924 0.0
C1711 C 0.13476 0.89896 0.95647 0.0
C1712 C 0.14458 0.8762 0.97949 0.0
C1713 C 0.10219 0.90723 0.95309 0.0
C1714 C 0.12149 0.86263 0.99954 0.0
C1715 C 0.08944 0.87129 0.99685 0.0
H1716 H 0.13172 0.71215 0.27719 0.0
H1717 H 0.20755 0.70748 0.34633 0.0
H1718 H 0.20034 0.6501 0.35204 0.0
H1719 H 0.17609 0.60127 0.33352 0.0
H1720 H 0.10133 0.60563 0.26318 0.0
H1721 H 0.10322 0.66361 0.26318 0.0
C1722 C 0.14682 0.69851 0.29335 0.0
C1723 C 0.17082 0.7137 0.31063 0.0
C1724 C 0.1422 0.66577 0.29682 0.0
C1725 C 0.18939 0.69606 0.33235 0.0
C1726 C 0.1851 0.66339 0.33578 0.0
C1727 C 0.1597 0.61491 0.31867 0.0
C1728 C 0.13909 0.59919 0.29786 0.0
C1729 C 0.16198 0.64799 0.3177 0.0
C1730 C 0.1175 0.61713 0.27932 0.0
C1731 C 0.11896 0.65027 0.27892 0.0
H1732 H 0.98236 0.63377 0.96602 0.0
H1733 H 0.97084 0.56622 0.89066 0.0
H1734 H 0.91322 0.56883 0.89712 0.0
H1735 H 0.86676 0.5855 0.92791 0.0
H1736 H 0.87691 0.6529 0.00319 0.0
H1737 H 0.93439 0.65587 0.99255 0.0
C1738 C 0.96721 0.61985 0.95082 0.0
C1739 C 0.98099 0.59944 0.92817 0.0
C1740 C 0.9339 0.62157 0.95457 0.0
C1741 C 0.96097 0.58198 0.90834 0.0
C1742 C 0.92798 0.58342 0.91204 0.0
C1743 C 0.88149 0.60147 0.94143 0.0
C1744 C 0.86784 0.61891 0.96631 0.0
C1745 C 0.91429 0.60252 0.93553 0.0
C1746 C 0.88695 0.63953 0.98371 0.0
C1747 C 0.91982 0.64087 0.97787 0.0
H1748 H 0.23418 0.8178 0.19297 0.0
H1749 H 0.13176 0.82519 0.18881 0.0
H1750 H 0.13475 0.84628 0.13462 0.0
H1751 H 0.16692 0.86718 0.08987 0.0
H1752 H 0.26905 0.85652 0.09311 0.0
H1753 H 0.2658 0.83247 0.14609 0.0
C1754 C 0.21252 0.82337 0.17991 0.0
C1755 C 0.18288 0.81999 0.19492 0.0
C1756 C 0.21438 0.83556 0.14877 0.0
C1757 C 0.15494 0.82723 0.17771 0.0
C1758 C 0.15661 0.8397 0.14682 0.0
C1759 C 0.18834 0.85956 0.10231 0.0
C1760 C 0.21818 0.86413 0.08808 0.0
C1761 C 0.18625 0.84482 0.13243 0.0
C1762 C 0.24583 0.85347 0.10388 0.0
C1763 C 0.244 0.83966 0.1341 0.0
H1764 H 0.15782 0.17301 0.31465 0.0
H1765 H 0.25523 0.19673 0.294 0.0
H1766 H 0.27022 0.18477 0.34919 0.0
H1767 H 0.25652 0.16208 0.40165 0.0
H1768 H 0.16045 0.13174 0.41969 0.0
H1769 H 0.14381 0.15193 0.36745 0.0
C1770 C 0.18216 0.17624 0.32252 0.0
C1771 C 0.20538 0.18605 0.30059 0.0
C1772 C 0.19082 0.16776 0.35374 0.0
C1773 C 0.23701 0.18937 0.31067 0.0
C1774 C 0.24556 0.18242 0.34212 0.0
C1775 C 0.23186 0.16045 0.39426 0.0
C1776 C 0.20968 0.14557 0.41435 0.0
C1777 C 0.22283 0.17079 0.36364 0.0
C1778 C 0.17789 0.14305 0.40447 0.0
C1779 C 0.16841 0.15456 0.37464 0.0
H1780 H 0.39353 0.59342 0.95489 0.0
H1781 H 0.42188 0.50101 0.99087 0.0
H1782 H 0.41052 0.47751 0.93954 0.0
H1783 H 0.39784 0.48414 0.88337 0.0
H1784 H 0.36875 0.5756 0.84624 0.0
H1785 H 0.37366 0.59854 0.89937 0.0
C1786 C 0.39719 0.5682 0.95128 0.0
C1787 C 0.40916 0.54899 0.97616 0.0
C1788 C 0.38991 0.55468 0.92183 0.0
C1789 C 0.41304 0.5162 0.97177 0.0
C1790 C 0.40641 0.50274 0.94257 0.0
C1791 C 0.39156 0.50886 0.88726 0.0
C1792 C 0.38302 0.52828 0.86134 0.0
C1793 C 0.39536 0.52182 0.91736 0.0
C1794 C 0.37501 0.56025 0.86618 0.0
C1795 C 0.37838 0.57342 0.89637 0.0
H1796 H 0.78047 0.35991 0.28306 0.0
H1797 H 0.86077 0.29568 0.29328 0.0
H1798 H 0.86608 0.31083 0.34906 0.0
H1799 H 0.84447 0.33807 0.3956 0.0
H1800 H 0.76222 0.39976 0.38563 0.0
H1801 H 0.76245 0.39133 0.32826 0.0
C1802 C 0.79915 0.34901 0.29739 0.0
C1803 C 0.81972 0.32592 0.28412 0.0
C1804 C 0.80215 0.358 0.3292 0.0
C1805 C 0.84428 0.31295 0.30297 0.0
C1806 C 0.84744 0.32182 0.33477 0.0
C1807 C 0.82698 0.35033 0.38082 0.0
C1808 C 0.80292 0.36906 0.3951 0.0
C1809 C 0.82612 0.34386 0.34822 0.0
C1810 C 0.78095 0.38523 0.37545 0.0
C1811 C 0.78073 0.3799 0.34269 0.0
H1812 H 0.1188 0.41195 0.463 0.0
H1813 H 0.0732 0.50066 0.48752 0.0
H1814 H 0.08228 0.52135 0.43423 0.0
H1815 H 0.10048 0.51409 0.38023 0.0
H1816 H 0.14387 0.4258 0.3523 0.0
H1817 H 0.13984 0.4056 0.40739 0.0
C1818 C 0.11055 0.4356 0.4564 0.0
C1819 C 0.09493 0.45459 0.47916 0.0
C1820 C 0.11627 0.44776 0.42537 0.0
C1821 C 0.08504 0.48548 0.47048 0.0
C1822 C 0.09044 0.49748 0.44005 0.0
C1823 C 0.10991 0.49071 0.3864 0.0
C1824 C 0.12279 0.47163 0.36239 0.0
C1825 C 0.10597 0.47891 0.41739 0.0
C1826 C 0.13453 0.44124 0.37053 0.0
C1827 C 0.13156 0.42949 0.4019 0.0
H1828 H 0.28943 0.1353 0.72297 0.0
H1829 H 0.37287 0.19363 0.71338 0.0
H1830 H 0.37759 0.17852 0.65752 0.0
H1831 H 0.35429 0.15393 0.61045 0.0
H1832 H 0.26931 0.09792 0.61967 0.0
H1833 H 0.27008 0.10535 0.67724 0.0
C1834 C 0.30868 0.14486 0.70873 0.0
C1835 C 0.33029 0.16643 0.7222 0.0
C1836 C 0.31134 0.13585 0.67679 0.0
C1837 C 0.35559 0.17759 0.70353 0.0
C1838 C 0.35839 0.16875 0.67166 0.0
C1839 C 0.33645 0.14248 0.62517 0.0
C1840 C 0.31145 0.12576 0.61062 0.0
C1841 C 0.336 0.14847 0.65792 0.0
C1842 C 0.28884 0.11077 0.63008 0.0
C1843 C 0.28891 0.11563 0.66298 0.0
H1844 H 0.37397 0.43619 0.54154 0.0
H1845 H 0.47401 0.45378 0.5542 0.0
H1846 H 0.46426 0.46623 0.61057 0.0
H1847 H 0.42552 0.47678 0.6547 0.0
H1848 H 0.32549 0.4609 0.63798 0.0
H1849 H 0.33705 0.44319 0.58458 0.0
C1850 C 0.39381 0.4427 0.55656 0.0
C1851 C 0.42458 0.44468 0.54365 0.0
C1852 C 0.38788 0.45035 0.58816 0.0
C1853 C 0.45008 0.45225 0.56363 0.0
C1854 C 0.44442 0.45954 0.59573 0.0
C1855 C 0.40642 0.46911 0.63939 0.0
C1856 C 0.3746 0.47055 0.65018 0.0
C1857 C 0.41319 0.4594 0.60807 0.0
C1858 C 0.35006 0.46051 0.63014 0.0
C1859 C 0.35663 0.45028 0.5996 0.0
H1860 H 0.60686 0.09415 0.54824 0.0
H1861 H 0.55006 0.01097 0.53397 0.0
H1862 H 0.55801 0.99485 0.58953 0.0
H1863 H 0.58632 0.00122 0.64064 0.0
H1864 H 0.64752 0.08148 0.6528 0.0
H1865 H 0.63265 0.10208 0.6001 0.0
C1866 C 0.59551 0.07298 0.55757 0.0
C1867 C 0.57758 0.05397 0.53709 0.0
C1868 C 0.60136 0.06314 0.58922 0.0
C1869 C 0.56376 0.02611 0.54932 0.0
C1870 C 0.56846 0.01679 0.58105 0.0
C1871 C 0.59572 0.02358 0.63192 0.0
C1872 C 0.6176 0.04012 0.6506 0.0
C1873 C 0.58795 0.03463 0.60103 0.0
C1874 C 0.63036 0.06861 0.63886 0.0
C1875 C 0.62196 0.08029 0.60869 0.0
H1876 H 0.70413 0.72873 0.3194 0.0
H1877 H 0.70754 0.62724 0.33319 0.0
H1878 H 0.65292 0.62819 0.35371 0.0
H1879 H 0.60454 0.65876 0.37076 0.0
H1880 H 0.60113 0.75981 0.35298 0.0
H1881 H 0.65489 0.75814 0.33139 0.0
C1882 C 0.69272 0.70672 0.32631 0.0
C1883 C 0.71002 0.67797 0.32453 0.0
C1884 C 0.66121 0.70743 0.33797 0.0
C1885 C 0.69476 0.6497 0.33376 0.0
C1886 C 0.66356 0.65028 0.3459 0.0
C1887 C 0.61566 0.68034 0.3622 0.0
C1888 C 0.59882 0.70946 0.36396 0.0
C1889 C 0.64664 0.67912 0.3487 0.0
C1890 C 0.61344 0.7371 0.35211 0.0
C1891 C 0.64427 0.7362 0.33966 0.0
H1892 H 0.99304 0.03116 0.9101 0.0
H1893 H 0.89655 0.05551 0.93618 0.0
H1894 H 0.9077 0.11184 0.92588 0.0
H1895 H 0.94412 0.15374 0.90492 0.0
H1896 H 0.03882 0.12663 0.87541 0.0
H1897 H 0.02912 0.07188 0.89172 0.0
C1898 C 0.97432 0.04865 0.91382 0.0
C1899 C 0.94384 0.03887 0.92368 0.0
C1900 C 0.98062 0.08063 0.90702 0.0
C1901 C 0.92019 0.06221 0.92852 0.0
C1902 C 0.92655 0.09444 0.92251 0.0
C1903 C 0.96266 0.13582 0.90252 0.0
C1904 C 0.99212 0.14414 0.88884 0.0
C1905 C 0.95654 0.1039 0.9111 0.0
C1906 C 0.01589 0.12074 0.88559 0.0
C1907 C 0.01037 0.08943 0.89493 0.0
H1908 H 0.27796 0.77806 0.34915 0.0
H1909 H 0.29247 0.85941 0.28748 0.0
H1910 H 0.34878 0.85968 0.30205 0.0
H1911 H 0.39421 0.83508 0.32943 0.0
H1912 H 0.38096 0.75217 0.38905 0.0
H1913 H 0.32337 0.75536 0.37948 0.0
C1914 C 0.29339 0.79582 0.3387 0.0
C1915 C 0.28086 0.81844 0.3167 0.0
C1916 C 0.3258 0.79598 0.34741 0.0
C1917 C 0.30133 0.84151 0.30404 0.0
C1918 C 0.33353 0.84181 0.31258 0.0
C1919 C 0.37873 0.81795 0.34089 0.0
C1920 C 0.3921 0.7932 0.35979 0.0
C1921 C 0.34602 0.81902 0.33399 0.0
C1922 C 0.37149 0.77157 0.37466 0.0
C1923 C 0.33858 0.77309 0.36868 0.0
H1924 H 0.08915 0.45409 0.89743 0.0
H1925 H 0.00254 0.48684 0.94177 0.0
H1926 H 0.97631 0.43723 0.92862 0.0
H1927 H 0.97882 0.38394 0.90723 0.0
H1928 H 0.06511 0.34933 0.86383 0.0
H1929 H 0.09021 0.401 0.87198 0.0
C1930 C 0.06475 0.44992 0.90466 0.0
C1931 C 0.04797 0.4734 0.92148 0.0
C1932 C 0.04954 0.42163 0.89616 0.0
C1933 C 0.016 0.46858 0.9296 0.0
C1934 C 1.00092 0.4405 0.9217 0.0
C1935 C 0.00285 0.38803 0.89873 0.0
C1936 C 0.02016 0.36296 0.88508 0.0
C1937 C 0.01747 0.41691 0.90508 0.0
C1938 C 0.05119 0.36844 0.87405 0.0
C1939 C 0.06575 0.39772 0.87939 0.0
H1940 H 0.69142 0.27159 0.19691 0.0
H1941 H 0.70276 0.36954 0.1687 0.0
H1942 H 0.64746 0.37217 0.15079 0.0
H1943 H 0.59685 0.34481 0.13867 0.0
H1944 H 0.5859 0.2475 0.16996 0.0
H1945 H 0.63959 0.24656 0.19101 0.0
C1946 C 0.68152 0.29366 0.18749 0.0
C1947 C 0.70106 0.3202 0.18413 0.0
C1948 C 0.64974 0.29506 0.17729 0.0
C1949 C 0.68803 0.34878 0.17189 0.0
C1950 C 0.65649 0.35023 0.16128 0.0
C1951 C 0.60627 0.32358 0.15029 0.0
C1952 C 0.58748 0.29628 0.15245 0.0
C1953 C 0.6373 0.32325 0.16308 0.0
C1954 C 0.59979 0.26897 0.16798 0.0
C1955 C 0.63059 0.26828 0.18003 0.0
H1956 H 0.5181 0.03336 0.12032 0.0
H1957 H 0.59795 0.05318 0.05885 0.0
H1958 H 0.59348 0.10956 0.07068 0.0
H1959 H 0.56462 0.15329 0.09497 0.0
H1960 H 0.48304 0.13523 0.15409 0.0
H1961 H 0.49132 0.07771 0.14819 0.0
C1962 C 0.53424 0.05013 0.10927 0.0
C1963 C 0.55792 0.03933 0.0882 0.0
C1964 C 0.53181 0.08251 0.11656 0.0
C1965 C 0.57928 0.06108 0.07475 0.0
C1966 C 0.57694 0.09321 0.08174 0.0
C1967 C 0.5494 0.13661 0.10749 0.0
C1968 C 0.52357 0.14807 0.12518 0.0
C1969 C 0.55322 0.10413 0.1024 0.0
C1970 C 0.50351 0.12666 0.14095 0.0
C1971 C 0.50785 0.09392 0.13694 0.0
H1972 H 0.28389 0.21882 0.13854 0.0
H1973 H 0.29643 0.13895 0.20293 0.0
H1974 H 0.35197 0.13377 0.18655 0.0
H1975 H 0.39803 0.15681 0.16024 0.0
H1976 H 0.38661 0.23989 0.10009 0.0
H1977 H 0.32891 0.23737 0.10652 0.0
C1978 C 0.29876 0.2003 0.14908 0.0
C1979 C 0.28641 0.17991 0.17268 0.0
C1980 C 0.33057 0.19754 0.13965 0.0
C1981 C 0.30564 0.15537 0.18526 0.0
C1982 C 0.33727 0.15222 0.1757 0.0
C1983 C 0.38283 0.17386 0.14781 0.0
C1984 C 0.3965 0.19923 0.13079 0.0
C1985 C 0.35014 0.17377 0.15366 0.0
C1986 C 0.37667 0.22043 0.11379 0.0
C1987 C 0.34372 0.21939 0.118 0.0
H1988 H 0.49216 0.47266 0.10617 0.0
H1989 H 0.39356 0.46348 0.07949 0.0
H1990 H 0.39583 0.40669 0.09297 0.0
H1991 H 0.42551 0.35986 0.11537 0.0
H1992 H 0.5227 0.3717 0.14546 0.0
H1993 H 0.52141 0.42697 0.12744 0.0
C1994 C 0.47116 0.45828 0.10293 0.0
C1995 C 0.44274 0.47246 0.09173 0.0
C1996 C 0.4724 0.42597 0.11154 0.0
C1997 C 0.41577 0.45329 0.08807 0.0
C1998 C 0.41705 0.42078 0.09583 0.0
C1999 C 0.44636 0.37461 0.11765 0.0
C2000 C 0.47415 0.36188 0.13176 0.0
C2001 C 0.44515 0.40689 0.10802 0.0
C2002 C 0.50101 0.38114 0.13487 0.0
C2003 C 0.5003 0.41272 0.12455 0.0
H2004 H 0.33783 0.69331 0.64191 0.0
H2005 H 0.27388 0.69724 0.72172 0.0
H2006 H 0.28953 0.64316 0.73773 0.0
H2007 H 0.32635 0.59757 0.7328 0.0
H2008 H 0.39372 0.5959 0.65539 0.0
H2009 H 0.37204 0.64603 0.63484 0.0
C2010 C 0.32651 0.68179 0.6621 0.0
C2011 C 0.30417 0.69884 0.6802 0.0
C2012 C 0.33692 0.65134 0.6721 0.0
C2013 C 0.29059 0.68423 0.70707 0.0
C2014 C 0.29986 0.65349 0.71644 0.0
C2015 C 0.33603 0.60793 0.71121 0.0
C2016 C 0.36187 0.59295 0.69589 0.0
C2017 C 0.32381 0.63722 0.69976 0.0
C2018 C 0.37409 0.60693 0.66795 0.0
C2019 C 0.36163 0.63563 0.65606 0.0
H2020 H 0.95767 0.38936 0.5879 0.0
H2021 H 0.98519 0.44482 0.50581 0.0
H2022 H 0.93262 0.43753 0.48222 0.0
H2023 H 0.87808 0.41827 0.48639 0.0
H2024 H 0.84983 0.36119 0.56696 0.0
H2025 H 0.90376 0.36502 0.5893 0.0
C2026 C 0.9519 0.39995 0.56497 0.0
C2027 C 0.9748 0.41831 0.54886 0.0
C2028 C 0.92186 0.39477 0.55108 0.0
C2029 C 0.96764 0.4311 0.51875 0.0
C2030 C 0.93773 0.42675 0.50521 0.0
C2031 C 0.88403 0.40594 0.50844 0.0
C2032 C 0.86022 0.38938 0.525 0.0
C2033 C 0.91464 0.40886 0.52124 0.0
C2034 C 0.86799 0.37363 0.55359 0.0
C2035 C 0.89864 0.37631 0.56657 0.0
H2036 H 0.67011 0.80701 0.65567 0.0
H2037 H 0.72128 0.80573 0.74442 0.0
H2038 H 0.70853 0.86206 0.75187 0.0
H2039 H 0.67711 0.90888 0.73661 0.0
H2040 H 0.62007 0.90813 0.65131 0.0
H2041 H 0.64094 0.85526 0.63878 0.0
C2042 C 0.67921 0.81942 0.67614 0.0
C2043 C 0.69698 0.80266 0.6993 0.0
C2044 C 0.67025 0.85115 0.68105 0.0
C2045 C 0.70787 0.81847 0.72623 0.0
C2046 C 0.70039 0.8505 0.73054 0.0
C2047 C 0.66965 0.89748 0.71493 0.0
C2048 C 0.64696 0.91238 0.69494 0.0
C2049 C 0.68072 0.86672 0.70863 0.0
C2050 C 0.63736 0.89708 0.66714 0.0
C2051 C 0.64927 0.86687 0.66001 0.0
H2052 H 0.04217 0.0949 0.50882 0.0
H2053 H 0.06164 0.0444 0.59644 0.0
H2054 H 0.11857 0.05692 0.59116 0.0
H2055 H 0.16165 0.08873 0.5646 0.0
H2056 H 0.13808 0.14301 0.47997 0.0
H2057 H 0.08412 0.12292 0.48131 0.0
C2058 C 0.0589 0.08608 0.52659 0.0
C2059 C 0.04756 0.06888 0.55308 0.0
C2060 C 0.09093 0.09479 0.52423 0.0
C2061 C 0.06968 0.05744 0.57566 0.0
C2062 C 0.10219 0.06505 0.57284 0.0
C2063 C 0.14467 0.09588 0.54642 0.0
C2064 C 0.1538 0.11784 0.52251 0.0
C2065 C 0.11293 0.08475 0.54778 0.0
C2066 C 0.13159 0.12674 0.49899 0.0
C2067 C 0.10071 0.11509 0.4996 0.0
H2068 H 0.34246 0.30078 0.85955 0.0
H2069 H 0.32114 0.28282 0.76125 0.0
H2070 H 0.33949 0.33564 0.74618 0.0
H2071 H 0.3598 0.38764 0.76081 0.0
H2072 H 0.37785 0.4081 0.85897 0.0
H2073 H 0.36426 0.35342 0.87415 0.0
C2074 C 0.34122 0.3088 0.83499 0.0
C2075 C 0.32975 0.28819 0.81162 0.0
C2076 C 0.35246 0.33923 0.82632 0.0
C2077 C 0.32929 0.29848 0.77972 0.0
C2078 C 0.34019 0.32852 0.77101 0.0
C2079 C 0.36208 0.37966 0.78534 0.0
C2080 C 0.37099 0.40145 0.80859 0.0
C2081 C 0.35205 0.349 0.79402 0.0
C2082 C 0.37224 0.39134 0.84053 0.0
C2083 C 0.36371 0.36031 0.84926 0.0
H2084 H 0.5308 0.36517 0.44996 0.0
H2085 H 0.54905 0.46427 0.43213 0.0
H2086 H 0.60618 0.45484 0.44284 0.0
H2087 H 0.65066 0.41792 0.46049 0.0
H2088 H 0.62867 0.31908 0.47761 0.0
H2089 H 0.57357 0.32915 0.46416 0.0
C2090 C 0.54713 0.38492 0.44835 0.0
C2091 C 0.53541 0.41551 0.44064 0.0
C2092 C 0.5795 0.37933 0.45467 0.0
C2093 C 0.55729 0.44048 0.43803 0.0
C2094 C 0.58996 0.43505 0.44435 0.0
C2095 C 0.63383 0.39861 0.46108 0.0
C2096 C 0.64419 0.36775 0.47053 0.0
C2097 C 0.60136 0.40453 0.45319 0.0
C2098 C 0.6218 0.3431 0.47092 0.0
C2099 C 0.59004 0.34877 0.46312 0.0
H2100 H 0.66513 0.19546 0.84717 0.0
H2101 H 0.66956 0.20933 0.74543 0.0
H2102 H 0.6448 0.1581 0.73744 0.0
H2103 H 0.62553 0.10821 0.75877 0.0
H2104 H 0.6289 0.08969 0.85947 0.0
H2105 H 0.64452 0.14476 0.86883 0.0
C2106 C 0.66127 0.18693 0.82329 0.0
C2107 C 0.6696 0.20594 0.79692 0.0
C2108 C 0.647 0.1573 0.8188 0.0
C2109 C 0.66373 0.19492 0.7661 0.0
C2110 C 0.64913 0.16588 0.76149 0.0
C2111 C 0.62819 0.11675 0.78286 0.0
C2112 C 0.62552 0.09536 0.80844 0.0
C2113 C 0.64062 0.14695 0.78762 0.0
C2114 C 0.63004 0.10616 0.83953 0.0
C2115 C 0.63992 0.13729 0.84474 0.0
H2116 H 0.48386 0.12824 0.47154 0.0
H2117 H 0.46748 0.06273 0.39533 0.0
H2118 H 0.41007 0.06822 0.40296 0.0
H2119 H 0.36524 0.0866 0.43517 0.0
H2120 H 0.38061 0.15121 0.51198 0.0
H2121 H 0.43786 0.15202 0.49966 0.0
C2122 C 0.4677 0.11534 0.45645 0.0
C2123 C 0.47994 0.09464 0.43322 0.0
C2124 C 0.43467 0.1187 0.46093 0.0
C2125 C 0.45871 0.07861 0.41346 0.0
C2126 C 0.4259 0.08175 0.41782 0.0
C2127 C 0.38108 0.10157 0.44861 0.0
C2128 C 0.36901 0.11882 0.47441 0.0
C2129 C 0.41372 0.1011 0.44193 0.0
C2130 C 0.38947 0.13808 0.49181 0.0
C2131 C 0.42218 0.13812 0.48502 0.0
H2132 H 0.72615 0.31133 0.69721 0.0
H2133 H 0.62659 0.33667 0.70174 0.0
H2134 H 0.62799 0.35552 0.64654 0.0
H2135 H 0.65907 0.36875 0.59823 0.0
H2136 H 0.75795 0.34009 0.5938 0.0
H2137 H 0.75523 0.31851 0.64748 0.0
C2138 C 0.70469 0.32053 0.68586 0.0
C2139 C 0.67648 0.32293 0.70334 0.0
C2140 C 0.70561 0.33102 0.65423 0.0
C2141 C 0.64863 0.33455 0.68853 0.0
C2142 C 0.64946 0.34555 0.65709 0.0
C2143 C 0.67985 0.35761 0.60907 0.0
C2144 C 0.70867 0.35633 0.5923 0.0
C2145 C 0.67805 0.3446 0.63993 0.0
C2146 C 0.73542 0.34137 0.60628 0.0
C2147 C 0.73398 0.32906 0.63701 0.0
H2148 H 0.65636 0.66927 0.80924 0.0
H2149 H 0.74853 0.71191 0.79851 0.0
H2150 H 0.7611 0.69947 0.85416 0.0
H2151 H 0.74824 0.67098 0.90364 0.0
H2152 H 0.6585 0.62277 0.91232 0.0
H2153 H 0.64242 0.64287 0.85989 0.0
C2154 C 0.6788 0.67653 0.81948 0.0
C2155 C 0.70138 0.69185 0.80024 0.0
C2156 C 0.68643 0.66781 0.85094 0.0
C2157 C 0.73078 0.70039 0.8132 0.0
C2158 C 0.738 0.6931 0.84487 0.0
C2159 C 0.72495 0.66532 0.89427 0.0
C2160 C 0.70463 0.64533 0.91174 0.0
C2161 C 0.71638 0.67598 0.86367 0.0
C2162 C 0.67466 0.63792 0.89918 0.0
C2163 C 0.66545 0.64942 0.86923 0.0
H2164 H 0.87937 0.04841 0.46589 0.0
H2165 H 0.98188 0.05418 0.45935 0.0
H2166 H 0.97979 0.03649 0.40458 0.0
H2167 H 0.94956 0.0195 0.35933 0.0
H2168 H 0.84716 0.01351 0.36379 0.0
H2169 H 0.84842 0.03185 0.41904 0.0
C2170 C 0.90126 0.04573 0.45249 0.0
C2171 C 0.9308 0.05252 0.46667 0.0
C2172 C 0.89987 0.03574 0.42088 0.0
C2173 C 0.9589 0.04919 0.44897 0.0
C2174 C 0.95773 0.03905 0.4177 0.0
C2175 C 0.92739 0.02186 0.37237 0.0
C2176 C 0.89827 0.01477 0.35772 0.0
C2177 C 0.92842 0.03224 0.40359 0.0
C2178 C 0.8698 0.01887 0.37463 0.0
C2179 C 0.87061 0.02917 0.40616 0.0
H2180 H 0.33902 0.83663 0.78224 0.0
H2181 H 0.24422 0.79884 0.77705 0.0
H2182 H 0.23099 0.82225 0.82824 0.0
H2183 H 0.24684 0.85165 0.87526 0.0
H2184 H 0.34238 0.88638 0.88312 0.0
H2185 H 0.35444 0.86791 0.82932 0.0
C2186 C 0.31578 0.83291 0.79279 0.0
C2187 C 0.29287 0.81523 0.77642 0.0
C2188 C 0.30806 0.8472 0.82194 0.0
C2189 C 0.26243 0.81163 0.78969 0.0
C2190 C 0.2547 0.82547 0.81865 0.0
C2191 C 0.26982 0.85648 0.86453 0.0
C2192 C 0.29333 0.87137 0.88257 0.0
C2193 C 0.27721 0.84351 0.83484 0.0
C2194 C 0.32355 0.8761 0.86913 0.0
C2195 C 0.33067 0.86472 0.83876 0.0
H2196 H 0.6121 0.90642 0.96212 0.0
H2197 H 0.57207 0.99867 0.98279 0.0
H2198 H 0.58382 0.01702 0.92911 0.0
H2199 H 0.60256 0.00658 0.87565 0.0
H2200 H 0.63931 0.91427 0.85182 0.0
H2201 H 0.63334 0.89658 0.90746 0.0
C2202 C 0.60558 0.93033 0.9546 0.0
C2203 C 0.59078 0.95102 0.97632 0.0
C2204 C 0.6128 0.94103 0.92344 0.0
C2205 C 0.58317 0.9822 0.96648 0.0
C2206 C 0.59016 0.99286 0.93587 0.0
C2207 C 0.61043 0.98296 0.88298 0.0
C2208 C 0.62218 0.96204 0.86001 0.0
C2209 C 0.60497 0.97256 0.91423 0.0
C2210 C 0.63125 0.93113 0.86937 0.0
C2211 C 0.62707 0.92084 0.90102 0.0
H2212 H 0.78619 0.63824 0.2149 0.0
H2213 H 0.86475 0.70315 0.20669 0.0
H2214 H 0.87206 0.68824 0.15117 0.0
H2215 H 0.85333 0.66037 0.10426 0.0
H2216 H 0.77285 0.59784 0.11153 0.0
H2217 H 0.77061 0.60652 0.16885 0.0
C2218 C 0.80477 0.64942 0.20095 0.0
C2219 C 0.8244 0.67251 0.2148 0.0
C2220 C 0.8091 0.64039 0.1692 0.0
C2221 C 0.84893 0.68587 0.19652 0.0
C2222 C 0.85332 0.67708 0.16488 0.0
C2223 C 0.83576 0.64793 0.11847 0.0
C2224 C 0.8129 0.62892 0.1034 0.0
C2225 C 0.8333 0.65468 0.15093 0.0
C2226 C 0.79075 0.61257 0.12233 0.0
C2227 C 0.78902 0.6181 0.15505 0.0
H2228 H 0.88517 0.9896 0.02785 0.0
H2229 H 0.94469 0.91038 0.05719 0.0
H2230 H 0.93175 0.92106 0.11302 0.0
H2231 H 0.90199 0.95235 0.15324 0.0
H2232 H 0.84042 0.02926 0.12165 0.0
H2233 H 0.85571 0.01981 0.06681 0.0
C2234 C 0.89568 0.97467 0.04632 0.0
C2235 C 0.91614 0.94929 0.0382 0.0
C2236 C 0.88751 0.98042 0.078 0.0
C2237 C 0.929 0.93011 0.06269 0.0
C2238 C 0.92152 0.93619 0.0946 0.0
C2239 C 0.89197 0.96704 0.13432 0.0
C2240 C 0.86997 0.99148 0.14164 0.0
C2241 C 0.90054 0.96116 0.10252 0.0
C2242 C 0.85713 0.01018 0.11681 0.0
C2243 C 0.86597 0.00487 0.08539 0.0
H2244 H 0.08701 0.51248 0.03378 0.0
H2245 H 0.07851 0.61328 0.04916 0.0
H2246 H 0.09247 0.60494 0.10535 0.0
H2247 H 0.11192 0.56893 0.14939 0.0
H2248 H 0.12479 0.46928 0.13048 0.0
H2249 H 0.10445 0.47726 0.07664 0.0
C2250 C 0.08775 0.5328 0.04931 0.0
C2251 C 0.0816 0.56359 0.03685 0.0
C2252 C 0.09703 0.52796 0.08116 0.0
C2253 C 0.08289 0.58932 0.05782 0.0
C2254 C 0.09114 0.58454 0.09001 0.0
C2255 C 0.10988 0.54902 0.13348 0.0
C2256 C 0.1199 0.51848 0.14393 0.0
C2257 C 0.09899 0.554 0.10185 0.0
C2258 C 0.11743 0.49295 0.12299 0.0
C2259 C 0.10575 0.49751 0.09218 0.0
loop_
_geom_bond_atom_site_label_1
_geom_bond_atom_site_label_2
_geom_bond_distance
_geom_bond_site_symmetry_2
_ccdc_geom_bond_type
Fe0 O2 1.918 . S
Fe0 O5 1.997 . S
Fe0 O6 2.002 . S
Fe0 O11 1.976 . S
Fe0 O14 1.996 . S
Fe1 O2 1.918 . S
Fe1 O9 1.997 . S
Fe1 O12 1.996 . S
Fe1 O16 1.976 . S
Fe1 O19 2.002 . S
O2 Fe0 1.918 . S
O2 Fe1 1.918 . S
O2 Fe3 1.918 . S
Fe3 O2 1.918 . S
Fe3 O4 2.002 . S
Fe3 O13 1.976 . S
Fe3 O17 1.996 . S
Fe3 O20 1.997 . S
O4 Fe3 2.002 . S
O4 C21 1.295 . S
O5 Fe0 1.997 . S
O5 C21 1.235 . S
O6 Fe0 2.002 . S
O6 C7 1.295 . S
C7 O6 1.295 . S
C7 O9 1.235 . S
C8 O13 1.287 . S
C8 O14 1.255 . S
O9 Fe1 1.997 . S
O9 C7 1.235 . S
C10 O16 1.287 . S
C10 O17 1.255 . S
O11 Fe0 1.976 . S
O11 C18 1.287 . S
O12 Fe1 1.996 . S
O12 C18 1.255 . S
O13 Fe3 1.976 . S
O13 C8 1.287 . S
O14 Fe0 1.996 . S
O14 C8 1.255 . S
C15 O19 1.295 . S
C15 O20 1.235 . S
O16 Fe1 1.976 . S
O16 C10 1.287 . S
O17 Fe3 1.996 . S
O17 C10 1.255 . S
C18 O11 1.287 . S
C18 O12 1.255 . S
O19 Fe1 2.002 . S
O19 C15 1.295 . S
O20 Fe3 1.997 . S
O20 C15 1.235 . S
C21 O4 1.295 . S
C21 O5 1.235 . S
Fe22 O24 1.918 . S
Fe22 O27 1.997 . S
Fe22 O28 2.002 . S
Fe22 O33 1.976 . S
Fe22 O36 1.996 . S
Fe23 O24 1.918 . S
Fe23 O31 1.997 . S
Fe23 O34 1.996 . S
Fe23 O38 1.976 . S
Fe23 O41 2.002 . S
O24 Fe22 1.918 . S
O24 Fe23 1.918 . S
O24 Fe25 1.918 . S
Fe25 O24 1.918 . S
Fe25 O26 2.002 . S
Fe25 O35 1.976 . S
Fe25 O39 1.996 . S
Fe25 O42 1.997 . S
O26 Fe25 2.002 . S
O26 C43 1.295 . S
O27 Fe22 1.997 . S
O27 C43 1.235 . S
O28 Fe22 2.002 . S
O28 C29 1.295 . S
C29 O28 1.295 . S
C29 O31 1.235 . S
C30 O35 1.287 . S
C30 O36 1.255 . S
O31 Fe23 1.997 . S
O31 C29 1.235 . S
C32 O38 1.287 . S
C32 O39 1.255 . S
O33 Fe22 1.976 . S
O33 C40 1.287 . S
O34 Fe23 1.996 . S
O34 C40 1.255 . S
O35 Fe25 1.976 . S
O35 C30 1.287 . S
O36 Fe22 1.996 . S
O36 C30 1.255 . S
C37 O41 1.295 . S
C37 O42 1.235 . S
O38 Fe23 1.976 . S
O38 C32 1.287 . S
O39 Fe25 1.996 . S
O39 C32 1.255 . S
C40 O33 1.287 . S
C40 O34 1.255 . S
O41 Fe23 2.002 . S
O41 C37 1.295 . S
O42 Fe25 1.997 . S
O42 C37 1.235 . S
C43 O26 1.295 . S
C43 O27 1.235 . S
Fe44 O46 1.918 . S
Fe44 O49 1.997 . S
Fe44 O50 2.002 . S
Fe44 O55 1.976 . S
Fe44 O58 1.996 . S
Fe45 O46 1.918 . S
Fe45 O53 1.997 . S
Fe45 O56 1.996 . S
Fe45 O60 1.976 . S
Fe45 O63 2.002 . S
O46 Fe44 1.918 . S
O46 Fe45 1.918 . S
O46 Fe47 1.918 . S
Fe47 O46 1.918 . S
Fe47 O48 2.002 . S
Fe47 O57 1.976 . S
Fe47 O61 1.996 . S
Fe47 O64 1.997 . S
O48 Fe47 2.002 . S
O48 C65 1.295 . S
O49 Fe44 1.997 . S
O49 C65 1.235 . S
O50 Fe44 2.002 . S
O50 C51 1.295 . S
C51 O50 1.295 . S
C51 O53 1.235 . S
C52 O57 1.287 . S
C52 O58 1.255 . S
O53 Fe45 1.997 . S
O53 C51 1.235 . S
C54 O60 1.287 . S
C54 O61 1.255 . S
O55 Fe44 1.976 . S
O55 C62 1.287 . S
O56 Fe45 1.996 . S
O56 C62 1.255 . S
O57 Fe47 1.976 . S
O57 C52 1.287 . S
O58 Fe44 1.996 . S
O58 C52 1.255 . S
C59 O63 1.295 . S
C59 O64 1.235 . S
O60 Fe45 1.976 . S
O60 C54 1.287 . S
O61 Fe47 1.996 . S
O61 C54 1.255 . S
C62 O55 1.287 . S
C62 O56 1.255 . S
O63 Fe45 2.002 . S
O63 C59 1.295 . S
O64 Fe47 1.997 . S
O64 C59 1.235 . S
C65 O48 1.295 . S
C65 O49 1.235 . S
Fe66 O68 1.918 . S
Fe66 O71 1.997 . S
Fe66 O72 2.002 . S
Fe66 O77 1.976 . S
Fe66 O80 1.996 . S
Fe67 O68 1.918 . S
Fe67 O75 1.997 . S
Fe67 O78 1.996 . S
Fe67 O82 1.976 . S
Fe67 O85 2.002 . S
O68 Fe66 1.918 . S
O68 Fe67 1.918 . S
O68 Fe69 1.918 . S
Fe69 O68 1.918 . S
Fe69 O70 2.002 . S
Fe69 O79 1.976 . S
Fe69 O83 1.996 . S
Fe69 O86 1.997 . S
O70 Fe69 2.002 . S
O70 C87 1.295 . S
O71 Fe66 1.997 . S
O71 C87 1.235 . S
O72 Fe66 2.002 . S
O72 C73 1.295 . S
C73 O72 1.295 . S
C73 O75 1.235 . S
C74 O79 1.287 . S
C74 O80 1.255 . S
O75 Fe67 1.997 . S
O75 C73 1.235 . S
C76 O82 1.287 . S
C76 O83 1.255 . S
O77 Fe66 1.976 . S
O77 C84 1.287 . S
O78 Fe67 1.996 . S
O78 C84 1.255 . S
O79 Fe69 1.976 . S
O79 C74 1.287 . S
O80 Fe66 1.996 . S
O80 C74 1.255 . S
C81 O85 1.295 . S
C81 O86 1.235 . S
O82 Fe67 1.976 . S
O82 C76 1.287 . S
O83 Fe69 1.996 . S
O83 C76 1.255 . S
C84 O77 1.287 . S
C84 O78 1.255 . S
O85 Fe67 2.002 . S
O85 C81 1.295 . S
O86 Fe69 1.997 . S
O86 C81 1.235 . S
C87 O70 1.295 . S
C87 O71 1.235 . S
Fe88 O90 1.918 . S
Fe88 O93 1.997 . S
Fe88 O94 2.002 . S
Fe88 O99 1.976 . S
Fe88 O102 1.996 . S
Fe89 O90 1.918 . S
Fe89 O97 1.997 . S
Fe89 O100 1.996 . S
Fe89 O104 1.976 . S
Fe89 O107 2.002 . S
O90 Fe88 1.918 . S
O90 Fe89 1.918 . S
O90 Fe91 1.918 . S
Fe91 O90 1.918 . S
Fe91 O92 2.002 . S
Fe91 O101 1.976 . S
Fe91 O105 1.996 . S
Fe91 O108 1.997 . S
O92 Fe91 2.002 . S
O92 C109 1.295 . S
O93 Fe88 1.997 . S
O93 C109 1.235 . S
O94 Fe88 2.002 . S
O94 C95 1.295 . S
C95 O94 1.295 . S
C95 O97 1.235 . S
C96 O101 1.287 . S
C96 O102 1.255 . S
O97 Fe89 1.997 . S
O97 C95 1.235 . S
C98 O104 1.287 . S
C98 O105 1.255 . S
O99 Fe88 1.976 . S
O99 C106 1.287 . S
O100 Fe89 1.996 . S
O100 C106 1.255 . S
O101 Fe91 1.976 . S
O101 C96 1.287 . S
O102 Fe88 1.996 . S
O102 C96 1.255 . S
C103 O107 1.295 . S
C103 O108 1.235 . S
O104 Fe89 1.976 . S
O104 C98 1.287 . S
O105 Fe91 1.996 . S
O105 C98 1.255 . S
C106 O99 1.287 . S
C106 O100 1.255 . S
O107 Fe89 2.002 . S
O107 C103 1.295 . S
O108 Fe91 1.997 . S
O108 C103 1.235 . S
C109 O92 1.295 . S
C109 O93 1.235 . S
Fe110 O112 1.918 . S
Fe110 O115 1.997 . S
Fe110 O116 2.002 . S
Fe110 O121 1.976 . S
Fe110 O124 1.996 . S
Fe111 O112 1.918 . S
Fe111 O119 1.997 . S
Fe111 O122 1.996 . S
Fe111 O126 1.976 . S
Fe111 O129 2.002 . S
O112 Fe110 1.918 . S
O112 Fe111 1.918 . S
O112 Fe113 1.918 . S
Fe113 O112 1.918 . S
Fe113 O114 2.002 . S
Fe113 O123 1.976 . S
Fe113 O127 1.996 . S
Fe113 O130 1.997 . S
O114 Fe113 2.002 . S
O114 C131 1.295 . S
O115 Fe110 1.997 . S
O115 C131 1.235 . S
O116 Fe110 2.002 . S
O116 C117 1.295 . S
C117 O116 1.295 . S
C117 O119 1.235 . S
C118 O123 1.287 . S
C118 O124 1.255 . S
O119 Fe111 1.997 . S
O119 C117 1.235 . S
C120 O126 1.287 . S
C120 O127 1.255 . S
O121 Fe110 1.976 . S
O121 C128 1.287 . S
O122 Fe111 1.996 . S
O122 C128 1.255 . S
O123 Fe113 1.976 . S
O123 C118 1.287 . S
O124 Fe110 1.996 . S
O124 C118 1.255 . S
C125 O129 1.295 . S
C125 O130 1.235 . S
O126 Fe111 1.976 . S
O126 C120 1.287 . S
O127 Fe113 1.996 . S
O127 C120 1.255 . S
C128 O121 1.287 . S
C128 O122 1.255 . S
O129 Fe111 2.002 . S
O129 C125 1.295 . S
O130 Fe113 1.997 . S
O130 C125 1.235 . S
C131 O114 1.295 . S
C131 O115 1.235 . S
Fe132 O134 1.918 . S
Fe132 O137 1.997 . S
Fe132 O138 2.002 . S
Fe132 O143 1.976 . S
Fe132 O146 1.996 . S
Fe133 O134 1.918 . S
Fe133 O141 1.997 . S
Fe133 O144 1.996 . S
Fe133 O148 1.976 . S
Fe133 O151 2.002 . S
O134 Fe132 1.918 . S
O134 Fe133 1.918 . S
O134 Fe135 1.918 . S
Fe135 O134 1.918 . S
Fe135 O136 2.002 . S
Fe135 O145 1.976 . S
Fe135 O149 1.996 . S
Fe135 O152 1.997 . S
O136 Fe135 2.002 . S
O136 C153 1.295 . S
O137 Fe132 1.997 . S
O137 C153 1.235 . S
O138 Fe132 2.002 . S
O138 C139 1.295 . S
C139 O138 1.295 . S
C139 O141 1.235 . S
C140 O145 1.287 . S
C140 O146 1.255 . S
O141 Fe133 1.997 . S
O141 C139 1.235 . S
C142 O148 1.287 . S
C142 O149 1.255 . S
O143 Fe132 1.976 . S
O143 C150 1.287 . S
O144 Fe133 1.996 . S
O144 C150 1.255 . S
O145 Fe135 1.976 . S
O145 C140 1.287 . S
O146 Fe132 1.996 . S
O146 C140 1.255 . S
C147 O151 1.295 . S
C147 O152 1.235 . S
O148 Fe133 1.976 . S
O148 C142 1.287 . S
O149 Fe135 1.996 . S
O149 C142 1.255 . S
C150 O143 1.287 . S
C150 O144 1.255 . S
O151 Fe133 2.002 . S
O151 C147 1.295 . S
O152 Fe135 1.997 . S
O152 C147 1.235 . S
C153 O136 1.295 . S
C153 O137 1.235 . S
Fe154 O156 1.918 . S
Fe154 O159 1.997 . S
Fe154 O160 2.002 . S
Fe154 O165 1.976 . S
Fe154 O168 1.996 . S
Fe155 O156 1.918 . S
Fe155 O163 1.997 . S
Fe155 O166 1.996 . S
Fe155 O170 1.976 . S
Fe155 O173 2.002 . S
O156 Fe154 1.918 . S
O156 Fe155 1.918 . S
O156 Fe157 1.918 . S
Fe157 O156 1.918 . S
Fe157 O158 2.002 . S
Fe157 O167 1.976 . S
Fe157 O171 1.996 . S
Fe157 O174 1.997 . S
O158 Fe157 2.002 . S
O158 C175 1.295 . S
O159 Fe154 1.997 . S
O159 C175 1.235 . S
O160 Fe154 2.002 . S
O160 C161 1.295 . S
C161 O160 1.295 . S
C161 O163 1.235 . S
C162 O167 1.287 . S
C162 O168 1.255 . S
O163 Fe155 1.997 . S
O163 C161 1.235 . S
C164 O170 1.287 . S
C164 O171 1.255 . S
O165 Fe154 1.976 . S
O165 C172 1.287 . S
O166 Fe155 1.996 . S
O166 C172 1.255 . S
O167 Fe157 1.976 . S
O167 C162 1.287 . S
O168 Fe154 1.996 . S
O168 C162 1.255 . S
C169 O173 1.295 . S
C169 O174 1.235 . S
O170 Fe155 1.976 . S
O170 C164 1.287 . S
O171 Fe157 1.996 . S
O171 C164 1.255 . S
C172 O165 1.287 . S
C172 O166 1.255 . S
O173 Fe155 2.002 . S
O173 C169 1.295 . S
O174 Fe157 1.997 . S
O174 C169 1.235 . S
C175 O158 1.295 . S
C175 O159 1.235 . S
Fe176 O178 1.918 . S
Fe176 O181 1.997 . S
Fe176 O182 2.002 . S
Fe176 O187 1.976 . S
Fe176 O190 1.996 . S
Fe177 O178 1.918 . S
Fe177 O185 1.997 . S
Fe177 O188 1.996 . S
Fe177 O192 1.976 . S
Fe177 O195 2.002 . S
O178 Fe176 1.918 . S
O178 Fe177 1.918 . S
O178 Fe179 1.918 . S
Fe179 O178 1.918 . S
Fe179 O180 2.002 . S
Fe179 O189 1.976 . S
Fe179 O193 1.996 . S
Fe179 O196 1.997 . S
O180 Fe179 2.002 . S
O180 C197 1.295 . S
O181 Fe176 1.997 . S
O181 C197 1.235 . S
O182 Fe176 2.002 . S
O182 C183 1.295 . S
C183 O182 1.295 . S
C183 O185 1.235 . S
C184 O189 1.287 . S
C184 O190 1.255 . S
O185 Fe177 1.997 . S
O185 C183 1.235 . S
C186 O192 1.287 . S
C186 O193 1.255 . S
O187 Fe176 1.976 . S
O187 C194 1.287 . S
O188 Fe177 1.996 . S
O188 C194 1.255 . S
O189 Fe179 1.976 . S
O189 C184 1.287 . S
O190 Fe176 1.996 . S
O190 C184 1.255 . S
C191 O195 1.295 . S
C191 O196 1.235 . S
O192 Fe177 1.976 . S
O192 C186 1.287 . S
O193 Fe179 1.996 . S
O193 C186 1.255 . S
C194 O187 1.287 . S
C194 O188 1.255 . S
O195 Fe177 2.002 . S
O195 C191 1.295 . S
O196 Fe179 1.997 . S
O196 C191 1.235 . S
C197 O180 1.295 . S
C197 O181 1.235 . S
Fe198 O200 1.918 . S
Fe198 O203 1.997 . S
Fe198 O204 2.002 . S
Fe198 O209 1.976 . S
Fe198 O212 1.996 . S
Fe199 O200 1.918 . S
Fe199 O207 1.997 . S
Fe199 O210 1.996 . S
Fe199 O214 1.976 . S
Fe199 O217 2.002 . S
O200 Fe198 1.918 . S
O200 Fe199 1.918 . S
O200 Fe201 1.918 . S
Fe201 O200 1.918 . S
Fe201 O202 2.002 . S
Fe201 O211 1.976 . S
Fe201 O215 1.996 . S
Fe201 O218 1.997 . S
O202 Fe201 2.002 . S
O202 C219 1.295 . S
O203 Fe198 1.997 . S
O203 C219 1.235 . S
O204 Fe198 2.002 . S
O204 C205 1.295 . S
C205 O204 1.295 . S
C205 O207 1.235 . S
C206 O211 1.287 . S
C206 O212 1.255 . S
O207 Fe199 1.997 . S
O207 C205 1.235 . S
C208 O214 1.287 . S
C208 O215 1.255 . S
O209 Fe198 1.976 . S
O209 C216 1.287 . S
O210 Fe199 1.996 . S
O210 C216 1.255 . S
O211 Fe201 1.976 . S
O211 C206 1.287 . S
O212 Fe198 1.996 . S
O212 C206 1.255 . S
C213 O217 1.295 . S
C213 O218 1.235 . S
O214 Fe199 1.976 . S
O214 C208 1.287 . S
O215 Fe201 1.996 . S
O215 C208 1.255 . S
C216 O209 1.287 . S
C216 O210 1.255 . S
O217 Fe199 2.002 . S
O217 C213 1.295 . S
O218 Fe201 1.997 . S
O218 C213 1.235 . S
C219 O202 1.295 . S
C219 O203 1.235 . S
Fe220 O222 1.918 . S
Fe220 O225 1.997 . S
Fe220 O226 2.002 . S
Fe220 O231 1.976 . S
Fe220 O234 1.996 . S
Fe221 O222 1.918 . S
Fe221 O229 1.997 . S
Fe221 O232 1.996 . S
Fe221 O236 1.976 . S
Fe221 O239 2.002 . S
O222 Fe220 1.918 . S
O222 Fe221 1.918 . S
O222 Fe223 1.918 . S
Fe223 O222 1.918 . S
Fe223 O224 2.002 . S
Fe223 O233 1.976 . S
Fe223 O237 1.996 . S
Fe223 O240 1.997 . S
O224 Fe223 2.002 . S
O224 C241 1.295 . S
O225 Fe220 1.997 . S
O225 C241 1.235 . S
O226 Fe220 2.002 . S
O226 C227 1.295 . S
C227 O226 1.295 . S
C227 O229 1.235 . S
C228 O233 1.287 . S
C228 O234 1.255 . S
O229 Fe221 1.997 . S
O229 C227 1.235 . S
C230 O236 1.287 . S
C230 O237 1.255 . S
O231 Fe220 1.976 . S
O231 C238 1.287 . S
O232 Fe221 1.996 . S
O232 C238 1.255 . S
O233 Fe223 1.976 . S
O233 C228 1.287 . S
O234 Fe220 1.996 . S
O234 C228 1.255 . S
C235 O239 1.295 . S
C235 O240 1.235 . S
O236 Fe221 1.976 . S
O236 C230 1.287 . S
O237 Fe223 1.996 . S
O237 C230 1.255 . S
C238 O231 1.287 . S
C238 O232 1.255 . S
O239 Fe221 2.002 . S
O239 C235 1.295 . S
O240 Fe223 1.997 . S
O240 C235 1.235 . S
C241 O224 1.295 . S
C241 O225 1.235 . S
Fe242 O244 1.918 . S
Fe242 O247 1.997 . S
Fe242 O248 2.002 . S
Fe242 O253 1.976 . S
Fe242 O256 1.996 . S
Fe243 O244 1.918 . S
Fe243 O251 1.997 . S
Fe243 O254 1.996 . S
Fe243 O258 1.976 . S
Fe243 O261 2.002 . S
O244 Fe242 1.918 . S
O244 Fe243 1.918 . S
O244 Fe245 1.918 . S
Fe245 O244 1.918 . S
Fe245 O246 2.002 . S
Fe245 O255 1.976 . S
Fe245 O259 1.996 . S
Fe245 O262 1.997 . S
O246 Fe245 2.002 . S
O246 C263 1.295 . S
O247 Fe242 1.997 . S
O247 C263 1.235 . S
O248 Fe242 2.002 . S
O248 C249 1.295 . S
C249 O248 1.295 . S
C249 O251 1.235 . S
C250 O255 1.287 . S
C250 O256 1.255 . S
O251 Fe243 1.997 . S
O251 C249 1.235 . S
C252 O258 1.287 . S
C252 O259 1.255 . S
O253 Fe242 1.976 . S
O253 C260 1.287 . S
O254 Fe243 1.996 . S
O254 C260 1.255 . S
O255 Fe245 1.976 . S
O255 C250 1.287 . S
O256 Fe242 1.996 . S
O256 C250 1.255 . S
C257 O261 1.295 . S
C257 O262 1.235 . S
O258 Fe243 1.976 . S
O258 C252 1.287 . S
O259 Fe245 1.996 . S
O259 C252 1.255 . S
C260 O253 1.287 . S
C260 O254 1.255 . S
O261 Fe243 2.002 . S
O261 C257 1.295 . S
O262 Fe245 1.997 . S
O262 C257 1.235 . S
C263 O246 1.295 . S
C263 O247 1.235 . S
Fe264 O266 1.918 . S
Fe264 O269 1.997 . S
Fe264 O270 2.002 . S
Fe264 O275 1.976 . S
Fe264 O278 1.996 . S
Fe265 O266 1.918 . S
Fe265 O273 1.997 . S
Fe265 O276 1.996 . S
Fe265 O280 1.976 . S
Fe265 O283 2.002 . S
O266 Fe264 1.918 . S
O266 Fe265 1.918 . S
O266 Fe267 1.918 . S
Fe267 O266 1.918 . S
Fe267 O268 2.002 . S
Fe267 O277 1.976 . S
Fe267 O281 1.996 . S
Fe267 O284 1.997 . S
O268 Fe267 2.002 . S
O268 C285 1.295 . S
O269 Fe264 1.997 . S
O269 C285 1.235 . S
O270 Fe264 2.002 . S
O270 C271 1.295 . S
C271 O270 1.295 . S
C271 O273 1.235 . S
C272 O277 1.287 . S
C272 O278 1.255 . S
O273 Fe265 1.997 . S
O273 C271 1.235 . S
C274 O280 1.287 . S
C274 O281 1.255 . S
O275 Fe264 1.976 . S
O275 C282 1.287 . S
O276 Fe265 1.996 . S
O276 C282 1.255 . S
O277 Fe267 1.976 . S
O277 C272 1.287 . S
O278 Fe264 1.996 . S
O278 C272 1.255 . S
C279 O283 1.295 . S
C279 O284 1.235 . S
O280 Fe265 1.976 . S
O280 C274 1.287 . S
O281 Fe267 1.996 . S
O281 C274 1.255 . S
C282 O275 1.287 . S
C282 O276 1.255 . S
O283 Fe265 2.002 . S
O283 C279 1.295 . S
O284 Fe267 1.997 . S
O284 C279 1.235 . S
C285 O268 1.295 . S
C285 O269 1.235 . S
Fe286 O288 1.918 . S
Fe286 O291 1.997 . S
Fe286 O292 2.002 . S
Fe286 O297 1.976 . S
Fe286 O300 1.996 . S
Fe287 O288 1.918 . S
Fe287 O295 1.997 . S
Fe287 O298 1.996 . S
Fe287 O302 1.976 . S
Fe287 O305 2.002 . S
O288 Fe286 1.918 . S
O288 Fe287 1.918 . S
O288 Fe289 1.918 . S
Fe289 O288 1.918 . S
Fe289 O290 2.002 . S
Fe289 O299 1.976 . S
Fe289 O303 1.996 . S
Fe289 O306 1.997 . S
O290 Fe289 2.002 . S
O290 C307 1.295 . S
O291 Fe286 1.997 . S
O291 C307 1.235 . S
O292 Fe286 2.002 . S
O292 C293 1.295 . S
C293 O292 1.295 . S
C293 O295 1.235 . S
C294 O299 1.287 . S
C294 O300 1.255 . S
O295 Fe287 1.997 . S
O295 C293 1.235 . S
C296 O302 1.287 . S
C296 O303 1.255 . S
O297 Fe286 1.976 . S
O297 C304 1.287 . S
O298 Fe287 1.996 . S
O298 C304 1.255 . S
O299 Fe289 1.976 . S
O299 C294 1.287 . S
O300 Fe286 1.996 . S
O300 C294 1.255 . S
C301 O305 1.295 . S
C301 O306 1.235 . S
O302 Fe287 1.976 . S
O302 C296 1.287 . S
O303 Fe289 1.996 . S
O303 C296 1.255 . S
C304 O297 1.287 . S
C304 O298 1.255 . S
O305 Fe287 2.002 . S
O305 C301 1.295 . S
O306 Fe289 1.997 . S
O306 C301 1.235 . S
C307 O290 1.295 . S
C307 O291 1.235 . S
Fe308 O310 1.918 . S
Fe308 O313 1.997 . S
Fe308 O314 2.002 . S
Fe308 O319 1.976 . S
Fe308 O322 1.996 . S
Fe309 O310 1.918 . S
Fe309 O317 1.997 . S
Fe309 O320 1.996 . S
Fe309 O324 1.976 . S
Fe309 O327 2.002 . S
O310 Fe308 1.918 . S
O310 Fe309 1.918 . S
O310 Fe311 1.918 . S
Fe311 O310 1.918 . S
Fe311 O312 2.002 . S
Fe311 O321 1.976 . S
Fe311 O325 1.996 . S
Fe311 O328 1.997 . S
O312 Fe311 2.002 . S
O312 C329 1.295 . S
O313 Fe308 1.997 . S
O313 C329 1.235 . S
O314 Fe308 2.002 . S
O314 C315 1.295 . S
C315 O314 1.295 . S
C315 O317 1.235 . S
C316 O321 1.287 . S
C316 O322 1.255 . S
O317 Fe309 1.997 . S
O317 C315 1.235 . S
C318 O324 1.287 . S
C318 O325 1.255 . S
O319 Fe308 1.976 . S
O319 C326 1.287 . S
O320 Fe309 1.996 . S
O320 C326 1.255 . S
O321 Fe311 1.976 . S
O321 C316 1.287 . S
O322 Fe308 1.996 . S
O322 C316 1.255 . S
C323 O327 1.295 . S
C323 O328 1.235 . S
O324 Fe309 1.976 . S
O324 C318 1.287 . S
O325 Fe311 1.996 . S
O325 C318 1.255 . S
C326 O319 1.287 . S
C326 O320 1.255 . S
O327 Fe309 2.002 . S
O327 C323 1.295 . S
O328 Fe311 1.997 . S
O328 C323 1.235 . S
C329 O312 1.295 . S
C329 O313 1.235 . S
Fe330 O332 1.918 . S
Fe330 O335 1.997 . S
Fe330 O336 2.002 . S
Fe330 O341 1.976 . S
Fe330 O344 1.996 . S
Fe331 O332 1.918 . S
Fe331 O339 1.997 . S
Fe331 O342 1.996 . S
Fe331 O346 1.976 . S
Fe331 O349 2.002 . S
O332 Fe330 1.918 . S
O332 Fe331 1.918 . S
O332 Fe333 1.918 . S
Fe333 O332 1.918 . S
Fe333 O334 2.002 . S
Fe333 O343 1.976 . S
Fe333 O347 1.996 . S
Fe333 O350 1.997 . S
O334 Fe333 2.002 . S
O334 C351 1.295 . S
O335 Fe330 1.997 . S
O335 C351 1.235 . S
O336 Fe330 2.002 . S
O336 C337 1.295 . S
C337 O336 1.295 . S
C337 O339 1.235 . S
C338 O343 1.287 . S
C338 O344 1.255 . S
O339 Fe331 1.997 . S
O339 C337 1.235 . S
C340 O346 1.287 . S
C340 O347 1.255 . S
O341 Fe330 1.976 . S
O341 C348 1.287 . S
O342 Fe331 1.996 . S
O342 C348 1.255 . S
O343 Fe333 1.976 . S
O343 C338 1.287 . S
O344 Fe330 1.996 . S
O344 C338 1.255 . S
C345 O349 1.295 . S
C345 O350 1.235 . S
O346 Fe331 1.976 . S
O346 C340 1.287 . S
O347 Fe333 1.996 . S
O347 C340 1.255 . S
C348 O341 1.287 . S
C348 O342 1.255 . S
O349 Fe331 2.002 . S
O349 C345 1.295 . S
O350 Fe333 1.997 . S
O350 C345 1.235 . S
C351 O334 1.295 . S
C351 O335 1.235 . S
C352 O379 1.312 . S
C352 O380 1.208 . S
C353 O374 1.331 . S
C353 O377 1.244 . S
C354 O376 1.264 . S
C354 O378 1.273 . S
Mg355 O357 1.936 1_455 S
Mg355 O364 2.081 1_455 S
Mg355 O366 2.023 . S
Mg355 O370 2.036 . S
Mg355 O379 2.291 . S
Mg356 O357 1.963 . S
Mg356 O367 1.942 . S
Mg356 O368 1.955 1_655 S
Mg356 O375 1.986 . S
O357 Mg355 1.936 1_655 S
O357 Mg356 1.963 . S
O357 Mg358 1.915 . S
Mg358 O357 1.915 . S
Mg358 O359 1.915 1_655 S
Mg358 O363 2.013 1_655 S
Mg358 O369 2.114 . S
Mg358 O373 2.013 . S
Mg358 O379 2.114 1_655 S
O359 Mg358 1.915 1_455 S
O359 Mg360 1.936 . S
O359 Mg361 1.963 1_455 S
Mg360 O359 1.936 . S
Mg360 O369 2.291 1_455 S
Mg360 O374 2.081 . S
Mg360 O376 2.023 1_455 S
Mg360 O380 2.031 . S
Mg361 O359 1.963 1_655 S
Mg361 O365 1.986 1_655 S
Mg361 O377 1.942 1_655 S
Mg361 O378 1.955 . S
C362 O373 1.191 . S
C362 O375 1.307 . S
O363 Mg358 2.013 1_455 S
O363 C382 1.191 . S
O364 Mg355 2.081 1_655 S
O364 C372 1.331 . S
O365 Mg361 1.986 1_455 S
O365 C382 1.307 . S
O366 Mg355 2.023 . S
O366 C381 1.264 . S
O367 Mg356 1.942 . S
O367 C372 1.244 . S
O368 Mg356 1.955 1_455 S
O368 C381 1.273 . S
O369 Mg358 2.114 . S
O369 Mg360 2.291 1_655 S
O369 C371 1.312 . S
O370 Mg355 2.036 . S
O370 C371 1.204 1_455 S
C371 O369 1.312 . S
C371 O370 1.204 1_655 S
C372 O364 1.331 . S
C372 O367 1.244 . S
O373 Mg358 2.013 . S
O373 C362 1.191 . S
O374 C353 1.331 . S
O374 Mg360 2.081 . S
O375 Mg356 1.986 . S
O375 C362 1.307 . S
O376 C354 1.264 . S
O376 Mg360 2.023 1_655 S
O377 C353 1.244 . S
O377 Mg361 1.942 1_455 S
O378 C354 1.273 . S
O378 Mg361 1.955 . S
O379 C352 1.312 . S
O379 Mg355 2.291 . S
O379 Mg358 2.114 1_455 S
O380 C352 1.208 . S
O380 Mg360 2.031 . S
C381 O366 1.264 . S
C381 O368 1.273 . S
C382 O363 1.191 . S
C382 O365 1.307 . S
C383 O410 1.312 . S
C383 O411 1.208 . S
C384 O405 1.331 . S
C384 O408 1.244 . S
C385 O407 1.264 . S
C385 O409 1.273 . S
Mg386 O388 1.936 . S
Mg386 O395 2.081 . S
Mg386 O397 2.023 . S
Mg386 O401 2.031 . S
Mg386 O410 2.291 . S
Mg387 O388 1.963 . S
Mg387 O398 1.942 . S
Mg387 O399 1.955 . S
Mg387 O406 1.986 . S
O388 Mg386 1.936 . S
O388 Mg387 1.963 . S
O388 Mg389 1.915 . S
Mg389 O388 1.915 . S
Mg389 O390 1.915 . S
Mg389 O394 2.013 . S
Mg389 O400 2.114 . S
Mg389 O404 2.013 . S
Mg389 O410 2.114 . S
O390 Mg389 1.915 . S
O390 Mg391 1.936 . S
O390 Mg392 1.963 . S
Mg391 O390 1.936 . S
Mg391 O400 2.291 . S
Mg391 O405 2.081 . S
Mg391 O407 2.023 . S
Mg391 O411 2.031 . S
Mg392 O390 1.963 . S
Mg392 O396 1.986 . S
Mg392 O408 1.942 . S
Mg392 O409 1.955 . S
C393 O404 1.191 . S
C393 O406 1.307 . S
O394 Mg389 2.013 . S
O394 C413 1.191 . S
O395 Mg386 2.081 . S
O395 C403 1.331 . S
O396 Mg392 1.986 . S
O396 C413 1.307 . S
O397 Mg386 2.023 . S
O397 C412 1.264 . S
O398 Mg387 1.942 . S
O398 C403 1.244 . S
O399 Mg387 1.955 . S
O399 C412 1.273 . S
O400 Mg389 2.114 . S
O400 Mg391 2.291 . S
O400 C402 1.312 . S
O401 Mg386 2.031 . S
O401 C402 1.208 . S
C402 O400 1.312 . S
C402 O401 1.208 . S
C403 O395 1.331 . S
C403 O398 1.244 . S
O404 Mg389 2.013 . S
O404 C393 1.191 . S
O405 C384 1.331 . S
O405 Mg391 2.081 . S
O406 Mg387 1.986 . S
O406 C393 1.307 . S
O407 C385 1.264 . S
O407 Mg391 2.023 . S
O408 C384 1.244 . S
O408 Mg392 1.942 . S
O409 C385 1.273 . S
O409 Mg392 1.955 . S
O410 C383 1.312 . S
O410 Mg386 2.291 . S
O410 Mg389 2.114 . S
O411 C383 1.208 . S
O411 Mg391 2.031 . S
C412 O397 1.264 . S
C412 O399 1.273 . S
C413 O394 1.191 . S
C413 O396 1.307 . S
C414 O441 1.312 . S
C414 O442 1.207 . S
C415 O436 1.331 . S
C415 O439 1.244 . S
C416 O438 1.264 . S
C416 O440 1.273 . S
Mg417 O419 1.936 . S
Mg417 O426 2.081 . S
Mg417 O428 2.023 1_455 S
Mg417 O432 2.031 . S
Mg417 O441 2.291 1_455 S
Mg418 O419 1.963 1_655 S
Mg418 O429 1.942 1_655 S
Mg418 O430 1.955 . S
Mg418 O437 1.986 1_655 S
O419 Mg417 1.936 . S
O419 Mg418 1.963 1_455 S
O419 Mg420 1.915 1_455 S
Mg420 O419 1.915 1_655 S
Mg420 O421 1.915 . S
Mg420 O425 2.013 . S
Mg420 O431 2.114 1_655 S
Mg420 O435 2.013 1_655 S
Mg420 O441 2.114 . S
O421 Mg420 1.915 . S
O421 Mg422 1.936 1_655 S
O421 Mg423 1.963 . S
Mg422 O421 1.936 1_455 S
Mg422 O431 2.291 . S
Mg422 O436 2.081 1_455 S
Mg422 O438 2.023 . S
Mg422 O442 2.032 1_455 S
Mg423 O421 1.963 . S
Mg423 O427 1.986 . S
Mg423 O439 1.942 . S
Mg423 O440 1.955 1_655 S
C424 O435 1.191 . S
C424 O437 1.307 . S
O425 Mg420 2.013 . S
O425 C444 1.191 . S
O426 Mg417 2.081 . S
O426 C434 1.331 . S
O427 Mg423 1.986 . S
O427 C444 1.307 . S
O428 Mg417 2.023 1_655 S
O428 C443 1.264 . S
O429 Mg418 1.942 1_455 S
O429 C434 1.244 . S
O430 Mg418 1.955 . S
O430 C443 1.273 . S
O431 Mg420 2.114 1_455 S
O431 Mg422 2.291 . S
O431 C433 1.312 . S
O432 Mg417 2.031 . S
O432 C433 1.208 . S
C433 O431 1.312 . S
C433 O432 1.208 . S
C434 O426 1.331 . S
C434 O429 1.244 . S
O435 Mg420 2.013 1_455 S
O435 C424 1.191 . S
O436 C415 1.331 . S
O436 Mg422 2.081 1_655 S
O437 Mg418 1.986 1_455 S
O437 C424 1.307 . S
O438 C416 1.264 . S
O438 Mg422 2.023 . S
O439 C415 1.244 . S
O439 Mg423 1.942 . S
O440 C416 1.273 . S
O440 Mg423 1.955 1_455 S
O441 C414 1.312 . S
O441 Mg417 2.291 1_655 S
O441 Mg420 2.114 . S
O442 C414 1.207 . S
O442 Mg422 2.032 1_655 S
C443 O428 1.264 . S
C443 O430 1.273 . S
C444 O425 1.191 . S
C444 O427 1.307 . S
C445 O472 1.312 . S
C445 O473 1.207 1_565 S
C446 O467 1.331 . S
C446 O470 1.244 . S
C447 O469 1.264 . S
C447 O471 1.273 . S
Mg448 O450 1.936 . S
Mg448 O457 2.081 . S
Mg448 O459 2.023 1_545 S
Mg448 O463 2.031 . S
Mg448 O472 2.291 1_545 S
Mg449 O450 1.963 1_565 S
Mg449 O460 1.942 1_565 S
Mg449 O461 1.955 . S
Mg449 O468 1.986 1_565 S
O450 Mg448 1.936 . S
O450 Mg449 1.963 1_545 S
O450 Mg451 1.915 1_545 S
Mg451 O450 1.915 1_565 S
Mg451 O452 1.915 . S
Mg451 O456 2.013 . S
Mg451 O462 2.114 1_565 S
Mg451 O466 2.013 1_565 S
Mg451 O472 2.114 . S
O452 Mg451 1.915 . S
O452 Mg453 1.936 1_565 S
O452 Mg454 1.963 . S
Mg453 O452 1.936 1_545 S
Mg453 O462 2.291 . S
Mg453 O467 2.081 1_545 S
Mg453 O469 2.023 . S
Mg453 O473 2.032 . S
Mg454 O452 1.963 . S
Mg454 O458 1.986 . S
Mg454 O470 1.942 . S
Mg454 O471 1.955 1_565 S
C455 O466 1.191 . S
C455 O468 1.307 . S
O456 Mg451 2.013 . S
O456 C475 1.191 . S
O457 Mg448 2.081 . S
O457 C465 1.331 . S
O458 Mg454 1.986 . S
O458 C475 1.307 . S
O459 Mg448 2.023 1_565 S
O459 C474 1.264 . S
O460 Mg449 1.942 1_545 S
O460 C465 1.244 . S
O461 Mg449 1.955 . S
O461 C474 1.273 . S
O462 Mg451 2.114 1_545 S
O462 Mg453 2.291 . S
O462 C464 1.312 . S
O463 Mg448 2.031 . S
O463 C464 1.208 . S
C464 O462 1.312 . S
C464 O463 1.208 . S
C465 O457 1.331 . S
C465 O460 1.244 . S
O466 Mg451 2.013 1_545 S
O466 C455 1.191 . S
O467 C446 1.331 . S
O467 Mg453 2.081 1_565 S
O468 Mg449 1.986 1_545 S
O468 C455 1.307 . S
O469 C447 1.264 . S
O469 Mg453 2.023 . S
O470 C446 1.244 . S
O470 Mg454 1.942 . S
O471 C447 1.273 . S
O471 Mg454 1.955 1_545 S
O472 C445 1.312 . S
O472 Mg448 2.291 1_565 S
O472 Mg451 2.114 . S
O473 C445 1.207 1_545 S
O473 Mg453 2.032 . S
C474 O459 1.264 . S
C474 O461 1.273 . S
C475 O456 1.191 . S
C475 O458 1.307 . S
C476 O503 1.312 . S
C476 O504 1.208 . S
C477 O498 1.331 . S
C477 O501 1.244 . S
C478 O500 1.264 . S
C478 O502 1.273 . S
Mg479 O481 1.936 1_554 S
Mg479 O488 2.081 1_554 S
Mg479 O490 2.023 . S
Mg479 O494 2.030 . S
Mg479 O503 2.291 . S
Mg480 O481 1.963 . S
Mg480 O491 1.942 . S
Mg480 O492 1.955 1_556 S
Mg480 O499 1.986 . S
O481 Mg479 1.936 1_556 S
O481 Mg480 1.963 . S
O481 Mg482 1.915 . S
Mg482 O481 1.915 . S
Mg482 O483 1.915 1_556 S
Mg482 O487 2.013 1_556 S
Mg482 O493 2.114 . S
Mg482 O497 2.013 . S
Mg482 O503 2.114 1_556 S
O483 Mg482 1.915 1_554 S
O483 Mg484 1.936 . S
O483 Mg485 1.963 1_554 S
Mg484 O483 1.936 . S
Mg484 O493 2.291 1_554 S
Mg484 O498 2.081 . S
Mg484 O500 2.023 1_554 S
Mg484 O504 2.031 . S
Mg485 O483 1.963 1_556 S
Mg485 O489 1.986 1_556 S
Mg485 O501 1.942 1_556 S
Mg485 O502 1.955 . S
C486 O497 1.191 . S
C486 O499 1.307 . S
O487 Mg482 2.013 1_554 S
O487 C506 1.191 . S
O488 Mg479 2.081 1_556 S
O488 C496 1.331 . S
O489 Mg485 1.986 1_554 S
O489 C506 1.307 . S
O490 Mg479 2.023 . S
O490 C505 1.264 . S
O491 Mg480 1.942 . S
O491 C496 1.244 . S
O492 Mg480 1.955 1_554 S
O492 C505 1.273 . S
O493 Mg482 2.114 . S
O493 Mg484 2.291 1_556 S
O493 C495 1.312 . S
O494 Mg479 2.030 . S
O494 C495 1.209 1_554 S
C495 O493 1.312 . S
C495 O494 1.209 1_556 S
C496 O488 1.331 . S
C496 O491 1.244 . S
O497 Mg482 2.013 . S
O497 C486 1.191 . S
O498 C477 1.331 . S
O498 Mg484 2.081 . S
O499 Mg480 1.986 . S
O499 C486 1.307 . S
O500 C478 1.264 . S
O500 Mg484 2.023 1_556 S
O501 C477 1.244 . S
O501 Mg485 1.942 1_554 S
O502 C478 1.273 . S
O502 Mg485 1.955 . S
O503 C476 1.312 . S
O503 Mg479 2.291 . S
O503 Mg482 2.114 1_554 S
O504 C476 1.208 . S
O504 Mg484 2.031 . S
C505 O490 1.264 . S
C505 O492 1.273 . S
C506 O487 1.191 . S
C506 O489 1.307 . S
C507 O534 1.312 . S
C507 O535 1.208 . S
C508 O529 1.331 . S
C508 O532 1.244 . S
C509 O531 1.264 . S
C509 O533 1.273 . S
Mg510 O512 1.936 . S
Mg510 O519 2.081 . S
Mg510 O521 2.023 . S
Mg510 O525 2.031 . S
Mg510 O534 2.291 . S
Mg511 O512 1.963 . S
Mg511 O522 1.942 . S
Mg511 O523 1.955 . S
Mg511 O530 1.986 . S
O512 Mg510 1.936 . S
O512 Mg511 1.963 . S
O512 Mg513 1.915 . S
Mg513 O512 1.915 . S
Mg513 O514 1.915 . S
Mg513 O518 2.013 . S
Mg513 O524 2.114 . S
Mg513 O528 2.013 . S
Mg513 O534 2.114 . S
O514 Mg513 1.915 . S
O514 Mg515 1.936 . S
O514 Mg516 1.963 . S
Mg515 O514 1.936 . S
Mg515 O524 2.291 . S
Mg515 O529 2.081 . S
Mg515 O531 2.023 . S
Mg515 O535 2.031 . S
Mg516 O514 1.963 . S
Mg516 O520 1.986 . S
Mg516 O532 1.942 . S
Mg516 O533 1.955 . S
C517 O528 1.191 . S
C517 O530 1.307 . S
O518 Mg513 2.013 . S
O518 C537 1.191 . S
O519 Mg510 2.081 . S
O519 C527 1.331 . S
O520 Mg516 1.986 . S
O520 C537 1.307 . S
O521 Mg510 2.023 . S
O521 C536 1.264 . S
O522 Mg511 1.942 . S
O522 C527 1.244 . S
O523 Mg511 1.955 . S
O523 C536 1.273 . S
O524 Mg513 2.114 . S
O524 Mg515 2.291 . S
O524 C526 1.312 . S
O525 Mg510 2.031 . S
O525 C526 1.208 . S
C526 O524 1.312 . S
C526 O525 1.208 . S
C527 O519 1.331 . S
C527 O522 1.244 . S
O528 Mg513 2.013 . S
O528 C517 1.191 . S
O529 C508 1.331 . S
O529 Mg515 2.081 . S
O530 Mg511 1.986 . S
O530 C517 1.307 . S
O531 C509 1.264 . S
O531 Mg515 2.023 . S
O532 C508 1.244 . S
O532 Mg516 1.942 . S
O533 C509 1.273 . S
O533 Mg516 1.955 . S
O534 C507 1.312 . S
O534 Mg510 2.291 . S
O534 Mg513 2.114 . S
O535 C507 1.208 . S
O535 Mg515 2.031 . S
C536 O521 1.264 . S
C536 O523 1.273 . S
C537 O518 1.191 . S
C537 O520 1.307 . S
C538 O565 1.312 . S
C538 O566 1.208 . S
C539 O560 1.331 . S
C539 O563 1.244 . S
C540 O562 1.264 . S
C540 O564 1.273 . S
Mg541 O543 1.936 . S
Mg541 O550 2.081 . S
Mg541 O552 2.023 1_556 S
Mg541 O556 2.031 . S
Mg541 O565 2.291 1_556 S
Mg542 O543 1.963 1_554 S
Mg542 O553 1.942 1_554 S
Mg542 O554 1.955 . S
Mg542 O561 1.986 1_554 S
O543 Mg541 1.936 . S
O543 Mg542 1.963 1_556 S
O543 Mg544 1.915 1_556 S
Mg544 O543 1.915 1_554 S
Mg544 O545 1.915 . S
Mg544 O549 2.013 . S
Mg544 O555 2.114 1_554 S
Mg544 O559 2.013 1_554 S
Mg544 O565 2.114 . S
O545 Mg544 1.915 . S
O545 Mg546 1.936 1_554 S
O545 Mg547 1.963 . S
Mg546 O545 1.936 1_556 S
Mg546 O555 2.291 . S
Mg546 O560 2.081 1_556 S
Mg546 O562 2.023 . S
Mg546 O566 2.031 1_556 S
Mg547 O545 1.963 . S
Mg547 O551 1.986 . S
Mg547 O563 1.942 . S
Mg547 O564 1.955 1_554 S
C548 O559 1.191 . S
C548 O561 1.307 . S
O549 Mg544 2.013 . S
O549 C568 1.191 . S
O550 Mg541 2.081 . S
O550 C558 1.331 . S
O551 Mg547 1.986 . S
O551 C568 1.307 . S
O552 Mg541 2.023 1_554 S
O552 C567 1.264 . S
O553 Mg542 1.942 1_556 S
O553 C558 1.244 . S
O554 Mg542 1.955 . S
O554 C567 1.273 . S
O555 Mg544 2.114 1_556 S
O555 Mg546 2.291 . S
O555 C557 1.312 . S
O556 Mg541 2.031 . S
O556 C557 1.208 . S
C557 O555 1.312 . S
C557 O556 1.208 . S
C558 O550 1.331 . S
C558 O553 1.244 . S
O559 Mg544 2.013 1_556 S
O559 C548 1.191 . S
O560 C539 1.331 . S
O560 Mg546 2.081 1_554 S
O561 Mg542 1.986 1_556 S
O561 C548 1.307 . S
O562 C540 1.264 . S
O562 Mg546 2.023 . S
O563 C539 1.244 . S
O563 Mg547 1.942 . S
O564 C540 1.273 . S
O564 Mg547 1.955 1_556 S
O565 C538 1.312 . S
O565 Mg541 2.291 1_554 S
O565 Mg544 2.114 . S
O566 C538 1.208 . S
O566 Mg546 2.031 1_554 S
C567 O552 1.264 . S
C567 O554 1.273 . S
C568 O549 1.191 . S
C568 O551 1.307 . S
C569 O596 1.312 . S
C569 O597 1.208 . S
C570 O591 1.331 . S
C570 O594 1.244 . S
C571 O593 1.264 . S
C571 O595 1.273 . S
Mg572 O574 1.936 . S
Mg572 O581 2.081 . S
Mg572 O583 2.023 . S
Mg572 O587 2.031 . S
Mg572 O596 2.291 . S
Mg573 O574 1.963 . S
Mg573 O584 1.942 . S
Mg573 O585 1.955 . S
Mg573 O592 1.986 . S
O574 Mg572 1.936 . S
O574 Mg573 1.963 . S
O574 Mg575 1.915 . S
Mg575 O574 1.915 . S
Mg575 O576 1.915 . S
Mg575 O580 2.013 . S
Mg575 O586 2.114 . S
Mg575 O590 2.013 . S
Mg575 O596 2.114 . S
O576 Mg575 1.915 . S
O576 Mg577 1.936 . S
O576 Mg578 1.963 . S
Mg577 O576 1.936 . S
Mg577 O586 2.291 . S
Mg577 O591 2.081 . S
Mg577 O593 2.023 . S
Mg577 O597 2.031 . S
Mg578 O576 1.963 . S
Mg578 O582 1.986 . S
Mg578 O594 1.942 . S
Mg578 O595 1.955 . S
C579 O590 1.191 . S
C579 O592 1.307 . S
O580 Mg575 2.013 . S
O580 C599 1.191 . S
O581 Mg572 2.081 . S
O581 C589 1.331 . S
O582 Mg578 1.986 . S
O582 C599 1.307 . S
O583 Mg572 2.023 . S
O583 C598 1.264 . S
O584 Mg573 1.942 . S
O584 C589 1.244 . S
O585 Mg573 1.955 . S
O585 C598 1.273 . S
O586 Mg575 2.114 . S
O586 Mg577 2.291 . S
O586 C588 1.312 . S
O587 Mg572 2.031 . S
O587 C588 1.208 . S
C588 O586 1.312 . S
C588 O587 1.208 . S
C589 O581 1.331 . S
C589 O584 1.244 . S
O590 Mg575 2.013 . S
O590 C579 1.191 . S
O591 C570 1.331 . S
O591 Mg577 2.081 . S
O592 Mg573 1.986 . S
O592 C579 1.307 . S
O593 C571 1.264 . S
O593 Mg577 2.023 . S
O594 C570 1.244 . S
O594 Mg578 1.942 . S
O595 C571 1.273 . S
O595 Mg578 1.955 . S
O596 C569 1.312 . S
O596 Mg572 2.291 . S
O596 Mg575 2.114 . S
O597 C569 1.208 . S
O597 Mg577 2.031 . S
C598 O583 1.264 . S
C598 O585 1.273 . S
C599 O580 1.191 . S
C599 O582 1.307 . S
C600 O627 1.312 . S
C600 O628 1.208 . S
C601 O622 1.331 . S
C601 O625 1.244 . S
C602 O624 1.264 . S
C602 O626 1.273 . S
Mg603 O605 1.936 . S
Mg603 O612 2.081 . S
Mg603 O614 2.023 . S
Mg603 O618 2.031 . S
Mg603 O627 2.291 . S
Mg604 O605 1.963 . S
Mg604 O615 1.942 . S
Mg604 O616 1.955 . S
Mg604 O623 1.986 . S
O605 Mg603 1.936 . S
O605 Mg604 1.963 . S
O605 Mg606 1.915 . S
Mg606 O605 1.915 . S
Mg606 O607 1.915 . S
Mg606 O611 2.013 . S
Mg606 O617 2.114 . S
Mg606 O621 2.013 . S
Mg606 O627 2.114 . S
O607 Mg606 1.915 . S
O607 Mg608 1.936 . S
O607 Mg609 1.963 . S
Mg608 O607 1.936 . S
Mg608 O617 2.291 . S
Mg608 O622 2.081 . S
Mg608 O624 2.023 . S
Mg608 O628 2.031 . S
Mg609 O607 1.963 . S
Mg609 O613 1.986 . S
Mg609 O625 1.942 . S
Mg609 O626 1.955 . S
C610 O621 1.191 . S
C610 O623 1.307 . S
O611 Mg606 2.013 . S
O611 C630 1.191 . S
O612 Mg603 2.081 . S
O612 C620 1.331 . S
O613 Mg609 1.986 . S
O613 C630 1.307 . S
O614 Mg603 2.023 . S
O614 C629 1.264 . S
O615 Mg604 1.942 . S
O615 C620 1.244 . S
O616 Mg604 1.955 . S
O616 C629 1.273 . S
O617 Mg606 2.114 . S
O617 Mg608 2.291 . S
O617 C619 1.312 . S
O618 Mg603 2.031 . S
O618 C619 1.208 . S
C619 O617 1.312 . S
C619 O618 1.208 . S
C620 O612 1.331 . S
C620 O615 1.244 . S
O621 Mg606 2.013 . S
O621 C610 1.191 . S
O622 C601 1.331 . S
O622 Mg608 2.081 . S
O623 Mg604 1.986 . S
O623 C610 1.307 . S
O624 C602 1.264 . S
O624 Mg608 2.023 . S
O625 C601 1.244 . S
O625 Mg609 1.942 . S
O626 C602 1.273 . S
O626 Mg609 1.955 . S
O627 C600 1.312 . S
O627 Mg603 2.291 . S
O627 Mg606 2.114 . S
O628 C600 1.208 . S
O628 Mg608 2.031 . S
C629 O614 1.264 . S
C629 O616 1.273 . S
C630 O611 1.191 . S
C630 O613 1.307 . S
C631 O658 1.312 . S
C631 O659 1.208 . S
C632 O653 1.331 . S
C632 O656 1.244 . S
C633 O655 1.264 . S
C633 O657 1.273 . S
Mg634 O636 1.936 . S
Mg634 O643 2.081 . S
Mg634 O645 2.023 . S
Mg634 O649 2.031 . S
Mg634 O658 2.291 . S
Mg635 O636 1.963 . S
Mg635 O646 1.942 . S
Mg635 O647 1.955 . S
Mg635 O654 1.986 . S
O636 Mg634 1.936 . S
O636 Mg635 1.963 . S
O636 Mg637 1.915 . S
Mg637 O636 1.915 . S
Mg637 O638 1.915 . S
Mg637 O642 2.013 . S
Mg637 O648 2.114 . S
Mg637 O652 2.013 . S
Mg637 O658 2.114 . S
O638 Mg637 1.915 . S
O638 Mg639 1.936 . S
O638 Mg640 1.963 . S
Mg639 O638 1.936 . S
Mg639 O648 2.291 . S
Mg639 O653 2.081 . S
Mg639 O655 2.023 . S
Mg639 O659 2.031 . S
Mg640 O638 1.963 . S
Mg640 O644 1.986 . S
Mg640 O656 1.942 . S
Mg640 O657 1.955 . S
C641 O652 1.191 . S
C641 O654 1.307 . S
O642 Mg637 2.013 . S
O642 C661 1.191 . S
O643 Mg634 2.081 . S
O643 C651 1.331 . S
O644 Mg640 1.986 . S
O644 C661 1.307 . S
O645 Mg634 2.023 . S
O645 C660 1.264 . S
O646 Mg635 1.942 . S
O646 C651 1.244 . S
O647 Mg635 1.955 . S
O647 C660 1.273 . S
O648 Mg637 2.114 . S
O648 Mg639 2.291 . S
O648 C650 1.312 . S
O649 Mg634 2.031 . S
O649 C650 1.208 . S
C650 O648 1.312 . S
C650 O649 1.208 . S
C651 O643 1.331 . S
C651 O646 1.244 . S
O652 Mg637 2.013 . S
O652 C641 1.191 . S
O653 C632 1.331 . S
O653 Mg639 2.081 . S
O654 Mg635 1.986 . S
O654 C641 1.307 . S
O655 C633 1.264 . S
O655 Mg639 2.023 . S
O656 C632 1.244 . S
O656 Mg640 1.942 . S
O657 C633 1.273 . S
O657 Mg640 1.955 . S
O658 C631 1.312 . S
O658 Mg634 2.291 . S
O658 Mg637 2.114 . S
O659 C631 1.208 . S
O659 Mg639 2.031 . S
C660 O645 1.264 . S
C660 O647 1.273 . S
C661 O642 1.191 . S
C661 O644 1.307 . S
C662 O689 1.312 . S
C662 O690 1.208 . S
C663 O684 1.331 . S
C663 O687 1.244 . S
C664 O686 1.264 . S
C664 O688 1.273 . S
Mg665 O667 1.936 . S
Mg665 O674 2.081 . S
Mg665 O676 2.023 1_565 S
Mg665 O680 2.031 . S
Mg665 O689 2.291 1_565 S
Mg666 O667 1.963 1_545 S
Mg666 O677 1.942 1_545 S
Mg666 O678 1.955 . S
Mg666 O685 1.986 1_545 S
O667 Mg665 1.936 . S
O667 Mg666 1.963 1_565 S
O667 Mg668 1.915 1_565 S
Mg668 O667 1.915 1_545 S
Mg668 O669 1.915 . S
Mg668 O673 2.013 . S
Mg668 O679 2.114 1_545 S
Mg668 O683 2.013 1_545 S
Mg668 O689 2.114 . S
O669 Mg668 1.915 . S
O669 Mg670 1.936 1_545 S
O669 Mg671 1.963 . S
Mg670 O669 1.936 1_565 S
Mg670 O679 2.291 . S
Mg670 O684 2.081 1_565 S
Mg670 O686 2.023 . S
Mg670 O690 2.031 1_565 S
Mg671 O669 1.963 . S
Mg671 O675 1.986 . S
Mg671 O687 1.942 . S
Mg671 O688 1.955 1_545 S
C672 O683 1.191 . S
C672 O685 1.307 . S
O673 Mg668 2.013 . S
O673 C692 1.191 . S
O674 Mg665 2.081 . S
O674 C682 1.331 . S
O675 Mg671 1.986 . S
O675 C692 1.307 . S
O676 Mg665 2.023 1_545 S
O676 C691 1.264 . S
O677 Mg666 1.942 1_565 S
O677 C682 1.244 . S
O678 Mg666 1.955 . S
O678 C691 1.273 . S
O679 Mg668 2.114 1_565 S
O679 Mg670 2.291 . S
O679 C681 1.312 . S
O680 Mg665 2.031 . S
O680 C681 1.208 . S
C681 O679 1.312 . S
C681 O680 1.208 . S
C682 O674 1.331 . S
C682 O677 1.244 . S
O683 Mg668 2.013 1_565 S
O683 C672 1.191 . S
O684 C663 1.331 . S
O684 Mg670 2.081 1_545 S
O685 Mg666 1.986 1_565 S
O685 C672 1.307 . S
O686 C664 1.264 . S
O686 Mg670 2.023 . S
O687 C663 1.244 . S
O687 Mg671 1.942 . S
O688 C664 1.273 . S
O688 Mg671 1.955 1_565 S
O689 C662 1.312 . S
O689 Mg665 2.291 1_545 S
O689 Mg668 2.114 . S
O690 C662 1.208 . S
O690 Mg670 2.031 1_545 S
C691 O676 1.264 . S
C691 O678 1.273 . S
C692 O673 1.191 . S
C692 O675 1.307 . S
C693 O720 1.312 . S
C693 O721 1.208 . S
C694 O715 1.331 . S
C694 O718 1.244 . S
C695 O717 1.264 . S
C695 O719 1.273 . S
Mg696 O698 1.936 . S
Mg696 O705 2.081 . S
Mg696 O707 2.023 . S
Mg696 O711 2.031 . S
Mg696 O720 2.291 . S
Mg697 O698 1.963 . S
Mg697 O708 1.942 . S
Mg697 O709 1.955 . S
Mg697 O716 1.986 . S
O698 Mg696 1.936 . S
O698 Mg697 1.963 . S
O698 Mg699 1.915 . S
Mg699 O698 1.915 . S
Mg699 O700 1.915 . S
Mg699 O704 2.013 . S
Mg699 O710 2.114 . S
Mg699 O714 2.013 . S
Mg699 O720 2.114 . S
O700 Mg699 1.915 . S
O700 Mg701 1.936 . S
O700 Mg702 1.963 . S
Mg701 O700 1.936 . S
Mg701 O710 2.291 . S
Mg701 O715 2.081 . S
Mg701 O717 2.023 . S
Mg701 O721 2.031 . S
Mg702 O700 1.963 . S
Mg702 O706 1.986 . S
Mg702 O718 1.942 . S
Mg702 O719 1.955 . S
C703 O714 1.191 . S
C703 O716 1.307 . S
O704 Mg699 2.013 . S
O704 C723 1.191 . S
O705 Mg696 2.081 . S
O705 C713 1.331 . S
O706 Mg702 1.986 . S
O706 C723 1.307 . S
O707 Mg696 2.023 . S
O707 C722 1.264 . S
O708 Mg697 1.942 . S
O708 C713 1.244 . S
O709 Mg697 1.955 . S
O709 C722 1.273 . S
O710 Mg699 2.114 . S
O710 Mg701 2.291 . S
O710 C712 1.312 . S
O711 Mg696 2.031 . S
O711 C712 1.208 . S
C712 O710 1.312 . S
C712 O711 1.208 . S
C713 O705 1.331 . S
C713 O708 1.244 . S
O714 Mg699 2.013 . S
O714 C703 1.191 . S
O715 C694 1.331 . S
O715 Mg701 2.081 . S
O716 Mg697 1.986 . S
O716 C703 1.307 . S
O717 C695 1.264 . S
O717 Mg701 2.023 . S
O718 C694 1.244 . S
O718 Mg702 1.942 . S
O719 C695 1.273 . S
O719 Mg702 1.955 . S
O720 C693 1.312 . S
O720 Mg696 2.291 . S
O720 Mg699 2.114 . S
O721 C693 1.208 . S
O721 Mg701 2.031 . S
C722 O707 1.264 . S
C722 O709 1.273 . S
C723 O704 1.191 . S
C723 O706 1.307 . S
H724 C730 0.930 . S
H725 C733 0.930 . S
H726 C734 0.930 . S
H727 C735 0.930 . S
H728 C738 0.930 . S
H729 C739 0.930 . S
C730 H724 0.930 . S
C730 C731 1.355 . S
C730 C732 1.415 . S
C731 C730 1.355 . S
C731 C733 1.419 . S
C732 C730 1.415 . S
C732 C737 1.425 . S
C732 C739 1.409 . S
C733 H725 0.930 . S
C733 C731 1.419 . S
C733 C734 1.362 . S
C734 H726 0.930 . S
C734 C733 1.362 . S
C734 C737 1.409 . S
C735 H727 0.930 . S
C735 C736 1.355 . S
C735 C737 1.415 . S
C736 C735 1.355 . S
C736 C738 1.419 . S
C737 C732 1.425 . S
C737 C734 1.409 . S
C737 C735 1.415 . S
C738 H728 0.930 . S
C738 C736 1.419 . S
C738 C739 1.362 . S
C739 H729 0.930 . S
C739 C732 1.409 . S
C739 C738 1.362 . S
H740 C746 0.930 . S
H741 C749 0.930 . S
H742 C750 0.930 . S
H743 C751 0.930 . S
H744 C754 0.930 . S
H745 C755 0.930 . S
C746 H740 0.930 . S
C746 C747 1.355 . S
C746 C748 1.415 . S
C747 C746 1.355 . S
C747 C749 1.419 . S
C748 C746 1.415 . S
C748 C753 1.425 . S
C748 C755 1.409 . S
C749 H741 0.930 . S
C749 C747 1.419 . S
C749 C750 1.362 . S
C750 H742 0.930 . S
C750 C749 1.362 . S
C750 C753 1.409 . S
C751 H743 0.930 . S
C751 C752 1.355 . S
C751 C753 1.415 . S
C752 C751 1.355 . S
C752 C754 1.419 . S
C753 C748 1.425 . S
C753 C750 1.409 . S
C753 C751 1.415 . S
C754 H744 0.930 . S
C754 C752 1.419 . S
C754 C755 1.362 . S
C755 H745 0.930 . S
C755 C748 1.409 . S
C755 C754 1.362 . S
H756 C762 0.930 . S
H757 C765 0.930 . S
H758 C766 0.930 . S
H759 C767 0.930 . S
H760 C770 0.930 . S
H761 C771 0.930 . S
C762 H756 0.930 . S
C762 C763 1.355 . S
C762 C764 1.415 . S
C763 C762 1.355 . S
C763 C765 1.419 . S
C764 C762 1.415 . S
C764 C769 1.425 . S
C764 C771 1.409 . S
C765 H757 0.930 . S
C765 C763 1.419 . S
C765 C766 1.362 . S
C766 H758 0.930 . S
C766 C765 1.362 . S
C766 C769 1.409 . S
C767 H759 0.930 . S
C767 C768 1.355 . S
C767 C769 1.415 . S
C768 C767 1.355 . S
C768 C770 1.419 . S
C769 C764 1.425 . S
C769 C766 1.409 . S
C769 C767 1.415 . S
C770 H760 0.930 . S
C770 C768 1.419 . S
C770 C771 1.362 . S
C771 H761 0.930 . S
C771 C764 1.409 . S
C771 C770 1.362 . S
H772 C778 0.930 . S
H773 C781 0.930 . S
H774 C782 0.930 . S
H775 C783 0.930 . S
H776 C786 0.930 . S
H777 C787 0.930 . S
C778 H772 0.930 . S
C778 C779 1.355 . S
C778 C780 1.415 . S
C779 C778 1.355 . S
C779 C781 1.419 . S
C780 C778 1.415 . S
C780 C785 1.425 . S
C780 C787 1.409 . S
C781 H773 0.930 . S
C781 C779 1.419 . S
C781 C782 1.362 . S
C782 H774 0.930 . S
C782 C781 1.362 . S
C782 C785 1.409 . S
C783 H775 0.930 . S
C783 C784 1.355 . S
C783 C785 1.415 . S
C784 C783 1.355 . S
C784 C786 1.419 . S
C785 C780 1.425 . S
C785 C782 1.409 . S
C785 C783 1.415 . S
C786 H776 0.930 . S
C786 C784 1.419 . S
C786 C787 1.362 . S
C787 H777 0.930 . S
C787 C780 1.409 . S
C787 C786 1.362 . S
H788 C794 0.930 . S
H789 C797 0.930 . S
H790 C798 0.930 . S
H791 C799 0.930 . S
H792 C802 0.930 . S
H793 C803 0.930 . S
C794 H788 0.930 . S
C794 C795 1.355 . S
C794 C796 1.415 . S
C795 C794 1.355 . S
C795 C797 1.419 . S
C796 C794 1.415 . S
C796 C801 1.425 . S
C796 C803 1.409 . S
C797 H789 0.930 . S
C797 C795 1.419 . S
C797 C798 1.362 . S
C798 H790 0.930 . S
C798 C797 1.362 . S
C798 C801 1.409 . S
C799 H791 0.930 . S
C799 C800 1.355 . S
C799 C801 1.415 . S
C800 C799 1.355 . S
C800 C802 1.419 . S
C801 C796 1.425 . S
C801 C798 1.409 . S
C801 C799 1.415 . S
C802 H792 0.930 . S
C802 C800 1.419 . S
C802 C803 1.362 . S
C803 H793 0.930 . S
C803 C796 1.409 . S
C803 C802 1.362 . S
H804 C810 0.930 . S
H805 C813 0.930 . S
H806 C814 0.930 . S
H807 C815 0.930 . S
H808 C818 0.930 . S
H809 C819 0.930 . S
C810 H804 0.930 . S
C810 C811 1.355 . S
C810 C812 1.415 . S
C811 C810 1.355 . S
C811 C813 1.419 . S
C812 C810 1.415 . S
C812 C817 1.425 . S
C812 C819 1.409 . S
C813 H805 0.930 . S
C813 C811 1.419 . S
C813 C814 1.362 . S
C814 H806 0.930 . S
C814 C813 1.362 . S
C814 C817 1.409 . S
C815 H807 0.930 . S
C815 C816 1.355 . S
C815 C817 1.415 . S
C816 C815 1.355 . S
C816 C818 1.419 . S
C817 C812 1.425 . S
C817 C814 1.409 . S
C817 C815 1.415 . S
C818 H808 0.930 . S
C818 C816 1.419 . S
C818 C819 1.362 . S
C819 H809 0.930 . S
C819 C812 1.409 . S
C819 C818 1.362 . S
H820 C826 0.930 . S
H821 C829 0.930 . S
H822 C830 0.930 . S
H823 C831 0.930 . S
H824 C834 0.930 . S
H825 C835 0.930 . S
C826 H820 0.930 . S
C826 C827 1.355 . S
C826 C828 1.415 . S
C827 C826 1.355 . S
C827 C829 1.419 . S
C828 C826 1.415 . S
C828 C833 1.425 . S
C828 C835 1.409 . S
C829 H821 0.930 . S
C829 C827 1.419 . S
C829 C830 1.362 . S
C830 H822 0.930 . S
C830 C829 1.362 . S
C830 C833 1.409 . S
C831 H823 0.930 . S
C831 C832 1.355 . S
C831 C833 1.415 . S
C832 C831 1.355 . S
C832 C834 1.419 . S
C833 C828 1.425 . S
C833 C830 1.409 . S
C833 C831 1.415 . S
C834 H824 0.930 . S
C834 C832 1.419 . S
C834 C835 1.362 . S
C835 H825 0.930 . S
C835 C828 1.409 . S
C835 C834 1.362 . S
H836 C842 0.930 . S
H837 C845 0.930 . S
H838 C846 0.930 . S
H839 C847 0.930 . S
H840 C850 0.930 . S
H841 C851 0.930 . S
C842 H836 0.930 . S
C842 C843 1.355 . S
C842 C844 1.415 . S
C843 C842 1.355 . S
C843 C845 1.419 . S
C844 C842 1.415 . S
C844 C849 1.425 . S
C844 C851 1.409 . S
C845 H837 0.930 . S
C845 C843 1.419 . S
C845 C846 1.362 . S
C846 H838 0.930 . S
C846 C845 1.362 . S
C846 C849 1.409 . S
C847 H839 0.930 . S
C847 C848 1.355 . S
C847 C849 1.415 . S
C848 C847 1.355 . S
C848 C850 1.419 . S
C849 C844 1.425 . S
C849 C846 1.409 . S
C849 C847 1.415 . S
C850 H840 0.930 . S
C850 C848 1.419 . S
C850 C851 1.362 . S
C851 H841 0.930 . S
C851 C844 1.409 . S
C851 C850 1.362 . S
H852 C858 0.930 . S
H853 C861 0.930 . S
H854 C862 0.930 . S
H855 C863 0.930 . S
H856 C866 0.930 . S
H857 C867 0.930 . S
C858 H852 0.930 . S
C858 C859 1.355 . S
C858 C860 1.415 . S
C859 C858 1.355 . S
C859 C861 1.419 . S
C860 C858 1.415 . S
C860 C865 1.425 . S
C860 C867 1.409 . S
C861 H853 0.930 . S
C861 C859 1.419 . S
C861 C862 1.362 . S
C862 H854 0.930 . S
C862 C861 1.362 . S
C862 C865 1.409 . S
C863 H855 0.930 . S
C863 C864 1.355 . S
C863 C865 1.415 . S
C864 C863 1.355 . S
C864 C866 1.419 . S
C865 C860 1.425 . S
C865 C862 1.409 . S
C865 C863 1.415 . S
C866 H856 0.930 . S
C866 C864 1.419 . S
C866 C867 1.362 . S
C867 H857 0.930 . S
C867 C860 1.409 . S
C867 C866 1.362 . S
H868 C874 0.930 . S
H869 C877 0.930 . S
H870 C878 0.930 . S
H871 C879 0.930 1_565 S
H872 C882 0.930 . S
H873 C883 0.930 . S
C874 H868 0.930 . S
C874 C875 1.355 . S
C874 C876 1.415 . S
C875 C874 1.355 . S
C875 C877 1.419 . S
C876 C874 1.415 . S
C876 C881 1.425 . S
C876 C883 1.409 . S
C877 H869 0.930 . S
C877 C875 1.419 . S
C877 C878 1.362 . S
C878 H870 0.930 . S
C878 C877 1.362 . S
C878 C881 1.409 . S
C879 H871 0.930 1_545 S
C879 C880 1.355 . S
C879 C881 1.415 . S
C880 C879 1.355 . S
C880 C882 1.419 . S
C881 C876 1.425 . S
C881 C878 1.409 . S
C881 C879 1.415 . S
C882 H872 0.930 . S
C882 C880 1.419 . S
C882 C883 1.362 . S
C883 H873 0.930 . S
C883 C876 1.409 . S
C883 C882 1.362 . S
H884 C890 0.930 . S
H885 C893 0.930 . S
H886 C894 0.930 . S
H887 C895 0.930 . S
H888 C898 0.930 . S
H889 C899 0.930 . S
C890 H884 0.930 . S
C890 C891 1.355 . S
C890 C892 1.415 . S
C891 C890 1.355 . S
C891 C893 1.419 . S
C892 C890 1.415 . S
C892 C897 1.425 . S
C892 C899 1.409 . S
C893 H885 0.930 . S
C893 C891 1.419 . S
C893 C894 1.362 . S
C894 H886 0.930 . S
C894 C893 1.362 . S
C894 C897 1.409 . S
C895 H887 0.930 . S
C895 C896 1.355 . S
C895 C897 1.415 . S
C896 C895 1.355 . S
C896 C898 1.419 . S
C897 C892 1.425 . S
C897 C894 1.409 . S
C897 C895 1.415 . S
C898 H888 0.930 . S
C898 C896 1.419 . S
C898 C899 1.362 . S
C899 H889 0.930 . S
C899 C892 1.409 . S
C899 C898 1.362 . S
H900 C906 0.930 . S
H901 C909 0.930 . S
H902 C910 0.930 . S
H903 C911 0.930 . S
H904 C914 0.930 . S
H905 C915 0.930 . S
C906 H900 0.930 . S
C906 C907 1.355 . S
C906 C908 1.415 . S
C907 C906 1.355 . S
C907 C909 1.419 . S
C908 C906 1.415 . S
C908 C913 1.425 . S
C908 C915 1.409 . S
C909 H901 0.930 . S
C909 C907 1.419 . S
C909 C910 1.362 . S
C910 H902 0.930 . S
C910 C909 1.362 . S
C910 C913 1.409 . S
C911 H903 0.930 . S
C911 C912 1.355 . S
C911 C913 1.415 . S
C912 C911 1.355 . S
C912 C914 1.419 . S
C913 C908 1.425 . S
C913 C910 1.409 . S
C913 C911 1.415 . S
C914 H904 0.930 . S
C914 C912 1.419 . S
C914 C915 1.362 . S
C915 H905 0.930 . S
C915 C908 1.409 . S
C915 C914 1.362 . S
H916 C922 0.930 . S
H917 C925 0.930 . S
H918 C926 0.930 . S
H919 C927 0.930 . S
H920 C930 0.942 . S
H921 C931 0.930 1_545 S
C922 H916 0.930 . S
C922 C923 1.355 . S
C922 C924 1.415 . S
C923 C922 1.355 . S
C923 C925 1.419 . S
C924 C922 1.415 . S
C924 C929 1.425 . S
C924 C931 1.409 . S
C925 H917 0.930 . S
C925 C923 1.419 . S
C925 C926 1.362 . S
C926 H918 0.930 . S
C926 C925 1.362 . S
C926 C929 1.409 . S
C927 H919 0.930 . S
C927 C928 1.355 . S
C927 C929 1.415 . S
C928 C927 1.355 . S
C928 C930 1.419 . S
C929 C924 1.425 . S
C929 C926 1.409 . S
C929 C927 1.415 . S
C930 H920 0.942 . S
C930 C928 1.419 . S
C930 C931 1.362 . S
C931 H921 0.930 1_565 S
C931 C924 1.409 . S
C931 C930 1.362 . S
H932 C938 0.930 . S
H933 C941 0.930 . S
H934 C942 0.930 . S
H935 C943 0.930 . S
H936 C946 0.930 . S
H937 C947 0.930 . S
C938 H932 0.930 . S
C938 C939 1.355 . S
C938 C940 1.415 . S
C939 C938 1.355 . S
C939 C941 1.419 . S
C940 C938 1.415 . S
C940 C945 1.425 . S
C940 C947 1.409 . S
C941 H933 0.930 . S
C941 C939 1.419 . S
C941 C942 1.362 . S
C942 H934 0.930 . S
C942 C941 1.362 . S
C942 C945 1.409 . S
C943 H935 0.930 . S
C943 C944 1.355 . S
C943 C945 1.415 . S
C944 C943 1.355 . S
C944 C946 1.419 . S
C945 C940 1.425 . S
C945 C942 1.409 . S
C945 C943 1.415 . S
C946 H936 0.930 . S
C946 C944 1.419 . S
C946 C947 1.362 . S
C947 H937 0.930 . S
C947 C940 1.409 . S
C947 C946 1.362 . S
H948 C954 0.930 . S
H949 C957 0.930 . S
H950 C958 0.930 . S
H951 C959 0.930 . S
H952 C962 0.930 . S
H953 C963 0.930 . S
C954 H948 0.930 . S
C954 C955 1.355 . S
C954 C956 1.415 . S
C955 C954 1.355 . S
C955 C957 1.419 . S
C956 C954 1.415 . S
C956 C961 1.425 . S
C956 C963 1.409 . S
C957 H949 0.930 . S
C957 C955 1.419 . S
C957 C958 1.362 . S
C958 H950 0.930 . S
C958 C957 1.362 . S
C958 C961 1.409 . S
C959 H951 0.930 . S
C959 C960 1.355 . S
C959 C961 1.415 . S
C960 C959 1.355 . S
C960 C962 1.419 . S
C961 C956 1.425 . S
C961 C958 1.409 . S
C961 C959 1.415 . S
C962 H952 0.930 . S
C962 C960 1.419 . S
C962 C963 1.362 . S
C963 H953 0.930 . S
C963 C956 1.409 . S
C963 C962 1.362 . S
H964 C970 0.930 . S
H965 C973 0.930 . S
H966 C974 0.930 . S
H967 C975 0.930 . S
H968 C978 0.930 . S
H969 C979 0.930 . S
C970 H964 0.930 . S
C970 C971 1.355 . S
C970 C972 1.415 . S
C971 C970 1.355 . S
C971 C973 1.419 . S
C972 C970 1.415 . S
C972 C977 1.425 . S
C972 C979 1.409 . S
C973 H965 0.930 . S
C973 C971 1.419 . S
C973 C974 1.362 . S
C974 H966 0.930 . S
C974 C973 1.362 . S
C974 C977 1.409 . S
C975 H967 0.930 . S
C975 C976 1.355 . S
C975 C977 1.415 . S
C976 C975 1.355 . S
C976 C978 1.419 . S
C977 C972 1.425 . S
C977 C974 1.409 . S
C977 C975 1.415 . S
C978 H968 0.930 . S
C978 C976 1.419 . S
C978 C979 1.362 . S
C979 H969 0.930 . S
C979 C972 1.409 . S
C979 C978 1.362 . S
H980 C986 0.930 . S
H981 C989 0.930 . S
H982 C990 0.930 . S
H983 C991 0.930 . S
H984 C994 0.930 . S
H985 C995 0.930 . S
C986 H980 0.930 . S
C986 C987 1.355 . S
C986 C988 1.415 . S
C987 C986 1.355 . S
C987 C989 1.419 . S
C988 C986 1.415 . S
C988 C993 1.425 . S
C988 C995 1.409 . S
C989 H981 0.930 . S
C989 C987 1.419 . S
C989 C990 1.362 . S
C990 H982 0.930 . S
C990 C989 1.362 . S
C990 C993 1.409 . S
C991 H983 0.930 . S
C991 C992 1.355 . S
C991 C993 1.415 . S
C992 C991 1.355 . S
C992 C994 1.419 . S
C993 C988 1.425 . S
C993 C990 1.409 . S
C993 C991 1.415 . S
C994 H984 0.930 . S
C994 C992 1.419 . S
C994 C995 1.362 . S
C995 H985 0.930 . S
C995 C988 1.409 . S
C995 C994 1.362 . S
H996 C1002 0.930 . S
H997 C1005 0.930 . S
H998 C1006 0.930 . S
H999 C1007 0.930 . S
H1000 C1010 0.930 . S
H1001 C1011 0.930 . S
C1002 H996 0.930 . S
C1002 C1003 1.355 . S
C1002 C1004 1.415 . S
C1003 C1002 1.355 . S
C1003 C1005 1.419 . S
C1004 C1002 1.415 . S
C1004 C1009 1.425 . S
C1004 C1011 1.409 . S
C1005 H997 0.930 . S
C1005 C1003 1.419 . S
C1005 C1006 1.362 . S
C1006 H998 0.930 . S
C1006 C1005 1.362 . S
C1006 C1009 1.409 . S
C1007 H999 0.930 . S
C1007 C1008 1.355 . S
C1007 C1009 1.415 . S
C1008 C1007 1.355 . S
C1008 C1010 1.419 . S
C1009 C1004 1.425 . S
C1009 C1006 1.409 . S
C1009 C1007 1.415 . S
C1010 H1000 0.930 . S
C1010 C1008 1.419 . S
C1010 C1011 1.362 . S
C1011 H1001 0.930 . S
C1011 C1004 1.409 . S
C1011 C1010 1.362 . S
H1012 C1018 0.930 . S
H1013 C1021 0.930 . S
H1014 C1022 0.930 . S
H1015 C1023 0.930 . S
H1016 C1026 0.930 . S
H1017 C1027 0.930 . S
C1018 H1012 0.930 . S
C1018 C1019 1.355 . S
C1018 C1020 1.415 . S
C1019 C1018 1.355 . S
C1019 C1021 1.419 . S
C1020 C1018 1.415 . S
C1020 C1025 1.425 . S
C1020 C1027 1.409 . S
C1021 H1013 0.930 . S
C1021 C1019 1.419 . S
C1021 C1022 1.362 . S
C1022 H1014 0.930 . S
C1022 C1021 1.362 . S
C1022 C1025 1.409 . S
C1023 H1015 0.930 . S
C1023 C1024 1.355 . S
C1023 C1025 1.415 . S
C1024 C1023 1.355 . S
C1024 C1026 1.419 . S
C1025 C1020 1.425 . S
C1025 C1022 1.409 . S
C1025 C1023 1.415 . S
C1026 H1016 0.930 . S
C1026 C1024 1.419 . S
C1026 C1027 1.362 . S
C1027 H1017 0.930 . S
C1027 C1020 1.409 . S
C1027 C1026 1.362 . S
H1028 C1034 0.930 . S
H1029 C1037 0.930 . S
H1030 C1038 0.930 . S
H1031 C1039 0.930 . S
H1032 C1042 0.930 . S
H1033 C1043 0.930 . S
C1034 H1028 0.930 . S
C1034 C1035 1.355 . S
C1034 C1036 1.415 . S
C1035 C1034 1.355 . S
C1035 C1037 1.419 . S
C1036 C1034 1.415 . S
C1036 C1041 1.425 . S
C1036 C1043 1.409 . S
C1037 H1029 0.930 . S
C1037 C1035 1.419 . S
C1037 C1038 1.362 . S
C1038 H1030 0.930 . S
C1038 C1037 1.362 . S
C1038 C1041 1.409 . S
C1039 H1031 0.930 . S
C1039 C1040 1.355 . S
C1039 C1041 1.415 . S
C1040 C1039 1.355 . S
C1040 C1042 1.419 . S
C1041 C1036 1.425 . S
C1041 C1038 1.409 . S
C1041 C1039 1.415 . S
C1042 H1032 0.930 . S
C1042 C1040 1.419 . S
C1042 C1043 1.362 . S
C1043 H1033 0.930 . S
C1043 C1036 1.409 . S
C1043 C1042 1.362 . S
H1044 C1050 0.930 . S
H1045 C1053 0.930 . S
H1046 C1054 0.930 . S
H1047 C1055 0.930 . S
H1048 C1058 0.930 1_455 S
H1049 C1059 0.930 . S
C1050 H1044 0.930 . S
C1050 C1051 1.355 . S
C1050 C1052 1.415 . S
C1051 C1050 1.355 . S
C1051 C1053 1.419 . S
C1052 C1050 1.415 . S
C1052 C1057 1.425 . S
C1052 C1059 1.409 . S
C1053 H1045 0.930 . S
C1053 C1051 1.419 . S
C1053 C1054 1.362 . S
C1054 H1046 0.930 . S
C1054 C1053 1.362 . S
C1054 C1057 1.409 . S
C1055 H1047 0.930 . S
C1055 C1056 1.374 . S
C1055 C1057 1.415 . S
C1056 C1055 1.374 . S
C1056 C1058 1.429 . S
C1057 C1052 1.425 . S
C1057 C1054 1.409 . S
C1057 C1055 1.415 . S
C1058 H1048 0.930 1_655 S
C1058 C1056 1.429 . S
C1058 C1059 1.362 . S
C1059 H1049 0.930 . S
C1059 C1052 1.409 . S
C1059 C1058 1.362 . S
H1060 C1066 0.930 . S
H1061 C1069 0.930 . S
H1062 C1070 0.930 . S
H1063 C1071 0.930 . S
H1064 C1074 0.930 . S
H1065 C1075 0.930 . S
C1066 H1060 0.930 . S
C1066 C1067 1.355 . S
C1066 C1068 1.415 . S
C1067 C1066 1.355 . S
C1067 C1069 1.419 . S
C1068 C1066 1.415 . S
C1068 C1073 1.425 . S
C1068 C1075 1.409 . S
C1069 H1061 0.930 . S
C1069 C1067 1.419 . S
C1069 C1070 1.362 . S
C1070 H1062 0.930 . S
C1070 C1069 1.362 . S
C1070 C1073 1.409 . S
C1071 H1063 0.930 . S
C1071 C1072 1.355 . S
C1071 C1073 1.415 . S
C1072 C1071 1.355 . S
C1072 C1074 1.419 . S
C1073 C1068 1.425 . S
C1073 C1070 1.409 . S
C1073 C1071 1.415 . S
C1074 H1064 0.930 . S
C1074 C1072 1.419 . S
C1074 C1075 1.362 . S
C1075 H1065 0.930 . S
C1075 C1068 1.409 . S
C1075 C1074 1.362 . S
H1076 C1082 0.930 . S
H1077 C1085 0.930 . S
H1078 C1086 0.930 . S
H1079 C1087 0.930 . S
H1080 C1090 0.930 . S
H1081 C1091 0.930 . S
C1082 H1076 0.930 . S
C1082 C1083 1.355 . S
C1082 C1084 1.415 . S
C1083 C1082 1.355 . S
C1083 C1085 1.419 . S
C1084 C1082 1.415 . S
C1084 C1089 1.425 . S
C1084 C1091 1.409 . S
C1085 H1077 0.930 . S
C1085 C1083 1.419 . S
C1085 C1086 1.362 . S
C1086 H1078 0.930 . S
C1086 C1085 1.362 . S
C1086 C1089 1.409 . S
C1087 H1079 0.930 . S
C1087 C1088 1.355 . S
C1087 C1089 1.415 . S
C1088 C1087 1.355 . S
C1088 C1090 1.419 . S
C1089 C1084 1.425 . S
C1089 C1086 1.409 . S
C1089 C1087 1.415 . S
C1090 H1080 0.930 . S
C1090 C1088 1.419 . S
C1090 C1091 1.362 . S
C1091 H1081 0.930 . S
C1091 C1084 1.409 . S
C1091 C1090 1.362 . S
H1092 C1098 0.930 . S
H1093 C1101 0.930 . S
H1094 C1102 0.930 . S
H1095 C1103 0.930 . S
H1096 C1106 0.930 . S
H1097 C1107 0.930 . S
C1098 H1092 0.930 . S
C1098 C1099 1.355 . S
C1098 C1100 1.415 . S
C1099 C1098 1.355 . S
C1099 C1101 1.419 . S
C1100 C1098 1.415 . S
C1100 C1105 1.425 . S
C1100 C1107 1.409 . S
C1101 H1093 0.930 . S
C1101 C1099 1.419 . S
C1101 C1102 1.362 . S
C1102 H1094 0.930 . S
C1102 C1101 1.362 . S
C1102 C1105 1.409 . S
C1103 H1095 0.930 . S
C1103 C1104 1.355 . S
C1103 C1105 1.415 . S
C1104 C1103 1.355 . S
C1104 C1106 1.419 . S
C1105 C1100 1.425 . S
C1105 C1102 1.409 . S
C1105 C1103 1.415 . S
C1106 H1096 0.930 . S
C1106 C1104 1.419 . S
C1106 C1107 1.362 . S
C1107 H1097 0.930 . S
C1107 C1100 1.409 . S
C1107 C1106 1.362 . S
H1108 C1114 0.930 . S
H1109 C1117 0.930 . S
H1110 C1118 0.930 . S
H1111 C1119 0.930 . S
H1112 C1122 0.930 . S
H1113 C1123 0.930 . S
C1114 H1108 0.930 . S
C1114 C1115 1.355 . S
C1114 C1116 1.415 . S
C1115 C1114 1.355 . S
C1115 C1117 1.419 . S
C1116 C1114 1.415 . S
C1116 C1121 1.425 . S
C1116 C1123 1.409 . S
C1117 H1109 0.930 . S
C1117 C1115 1.419 . S
C1117 C1118 1.362 . S
C1118 H1110 0.930 . S
C1118 C1117 1.362 . S
C1118 C1121 1.409 . S
C1119 H1111 0.930 . S
C1119 C1120 1.355 . S
C1119 C1121 1.415 . S
C1120 C1119 1.355 . S
C1120 C1122 1.419 . S
C1121 C1116 1.425 . S
C1121 C1118 1.409 . S
C1121 C1119 1.415 . S
C1122 H1112 0.930 . S
C1122 C1120 1.419 . S
C1122 C1123 1.362 . S
C1123 H1113 0.930 . S
C1123 C1116 1.409 . S
C1123 C1122 1.362 . S
H1124 C1130 0.930 . S
H1125 C1133 0.930 . S
H1126 C1134 0.930 . S
H1127 C1135 0.930 . S
H1128 C1138 0.930 . S
H1129 C1139 0.930 . S
C1130 H1124 0.930 . S
C1130 C1131 1.355 . S
C1130 C1132 1.415 . S
C1131 C1130 1.355 . S
C1131 C1133 1.419 . S
C1132 C1130 1.415 . S
C1132 C1137 1.425 . S
C1132 C1139 1.409 . S
C1133 H1125 0.930 . S
C1133 C1131 1.419 . S
C1133 C1134 1.362 . S
C1134 H1126 0.930 . S
C1134 C1133 1.362 . S
C1134 C1137 1.409 . S
C1135 H1127 0.930 . S
C1135 C1136 1.355 . S
C1135 C1137 1.415 . S
C1136 C1135 1.355 . S
C1136 C1138 1.419 . S
C1137 C1132 1.425 . S
C1137 C1134 1.409 . S
C1137 C1135 1.415 . S
C1138 H1128 0.930 . S
C1138 C1136 1.419 . S
C1138 C1139 1.362 . S
C1139 H1129 0.930 . S
C1139 C1132 1.409 . S
C1139 C1138 1.362 . S
H1140 C1146 0.930 . S
H1141 C1149 0.930 . S
H1142 C1150 0.930 . S
H1143 C1151 0.930 . S
H1144 C1154 0.930 . S
H1145 C1155 0.930 . S
C1146 H1140 0.930 . S
C1146 C1147 1.355 . S
C1146 C1148 1.415 . S
C1147 C1146 1.355 . S
C1147 C1149 1.419 . S
C1148 C1146 1.415 . S
C1148 C1153 1.425 . S
C1148 C1155 1.409 . S
C1149 H1141 0.930 . S
C1149 C1147 1.419 . S
C1149 C1150 1.362 . S
C1150 H1142 0.930 . S
C1150 C1149 1.362 . S
C1150 C1153 1.409 . S
C1151 H1143 0.930 . S
C1151 C1152 1.355 . S
C1151 C1153 1.415 . S
C1152 C1151 1.355 . S
C1152 C1154 1.419 . S
C1153 C1148 1.425 . S
C1153 C1150 1.409 . S
C1153 C1151 1.415 . S
C1154 H1144 0.930 . S
C1154 C1152 1.419 . S
C1154 C1155 1.362 . S
C1155 H1145 0.930 . S
C1155 C1148 1.409 . S
C1155 C1154 1.362 . S
H1156 C1162 0.930 . S
H1157 C1165 0.930 . S
H1158 C1166 0.930 . S
H1159 C1167 0.930 1_556 S
H1160 C1170 0.930 . S
H1161 C1171 0.930 . S
C1162 H1156 0.930 . S
C1162 C1163 1.355 . S
C1162 C1164 1.415 . S
C1163 C1162 1.355 . S
C1163 C1165 1.419 . S
C1164 C1162 1.415 . S
C1164 C1169 1.425 . S
C1164 C1171 1.409 . S
C1165 H1157 0.930 . S
C1165 C1163 1.419 . S
C1165 C1166 1.362 . S
C1166 H1158 0.930 . S
C1166 C1165 1.362 . S
C1166 C1169 1.409 . S
C1167 H1159 0.930 1_554 S
C1167 C1168 1.355 . S
C1167 C1169 1.415 . S
C1168 C1167 1.355 . S
C1168 C1170 1.419 . S
C1169 C1164 1.425 . S
C1169 C1166 1.409 . S
C1169 C1167 1.415 . S
C1170 H1160 0.930 . S
C1170 C1168 1.419 . S
C1170 C1171 1.362 . S
C1171 H1161 0.930 . S
C1171 C1164 1.409 . S
C1171 C1170 1.362 . S
H1172 C1178 0.930 . S
H1173 C1181 0.930 . S
H1174 C1182 0.930 . S
H1175 C1183 0.930 . S
H1176 C1186 0.930 . S
H1177 C1187 0.930 . S
C1178 H1172 0.930 . S
C1178 C1179 1.355 . S
C1178 C1180 1.415 . S
C1179 C1178 1.355 . S
C1179 C1181 1.419 . S
C1180 C1178 1.415 . S
C1180 C1185 1.425 . S
C1180 C1187 1.409 . S
C1181 H1173 0.930 . S
C1181 C1179 1.419 . S
C1181 C1182 1.362 . S
C1182 H1174 0.930 . S
C1182 C1181 1.362 . S
C1182 C1185 1.409 . S
C1183 H1175 0.930 . S
C1183 C1184 1.355 . S
C1183 C1185 1.415 . S
C1184 C1183 1.355 . S
C1184 C1186 1.419 . S
C1185 C1180 1.425 . S
C1185 C1182 1.409 . S
C1185 C1183 1.415 . S
C1186 H1176 0.930 . S
C1186 C1184 1.419 . S
C1186 C1187 1.362 . S
C1187 H1177 0.930 . S
C1187 C1180 1.409 . S
C1187 C1186 1.362 . S
H1188 C1194 0.930 . S
H1189 C1197 0.930 . S
H1190 C1198 0.930 . S
H1191 C1199 0.930 1_554 S
H1192 C1202 0.930 . S
H1193 C1203 0.930 . S
C1194 H1188 0.930 . S
C1194 C1195 1.355 . S
C1194 C1196 1.415 . S
C1195 C1194 1.355 . S
C1195 C1197 1.419 . S
C1196 C1194 1.415 . S
C1196 C1201 1.425 . S
C1196 C1203 1.409 . S
C1197 H1189 0.930 . S
C1197 C1195 1.419 . S
C1197 C1198 1.362 . S
C1198 H1190 0.930 . S
C1198 C1197 1.362 . S
C1198 C1201 1.409 . S
C1199 H1191 0.930 1_556 S
C1199 C1200 1.363 . S
C1199 C1201 1.415 . S
C1200 C1199 1.363 . S
C1200 C1202 1.435 . S
C1201 C1196 1.425 . S
C1201 C1198 1.409 . S
C1201 C1199 1.415 . S
C1202 H1192 0.930 . S
C1202 C1200 1.435 . S
C1202 C1203 1.362 . S
C1203 H1193 0.930 . S
C1203 C1196 1.409 . S
C1203 C1202 1.362 . S
H1204 C1210 0.930 . S
H1205 C1213 0.930 . S
H1206 C1214 0.930 . S
H1207 C1215 0.930 . S
H1208 C1218 0.930 . S
H1209 C1219 0.930 . S
C1210 H1204 0.930 . S
C1210 C1211 1.355 . S
C1210 C1212 1.415 . S
C1211 C1210 1.355 . S
C1211 C1213 1.419 . S
C1212 C1210 1.415 . S
C1212 C1217 1.425 . S
C1212 C1219 1.409 . S
C1213 H1205 0.930 . S
C1213 C1211 1.419 . S
C1213 C1214 1.362 . S
C1214 H1206 0.930 . S
C1214 C1213 1.362 . S
C1214 C1217 1.409 . S
C1215 H1207 0.930 . S
C1215 C1216 1.355 . S
C1215 C1217 1.415 . S
C1216 C1215 1.355 . S
C1216 C1218 1.419 . S
C1217 C1212 1.425 . S
C1217 C1214 1.409 . S
C1217 C1215 1.415 . S
C1218 H1208 0.930 . S
C1218 C1216 1.419 . S
C1218 C1219 1.362 . S
C1219 H1209 0.930 . S
C1219 C1212 1.409 . S
C1219 C1218 1.362 . S
H1220 C1226 0.930 . S
H1221 C1229 0.930 . S
H1222 C1230 0.930 . S
H1223 C1231 0.930 . S
H1224 C1234 0.932 . S
H1225 C1235 0.930 . S
C1226 H1220 0.930 . S
C1226 C1227 1.355 . S
C1226 C1228 1.415 . S
C1227 C1226 1.355 . S
C1227 C1229 1.419 . S
C1228 C1226 1.415 . S
C1228 C1233 1.425 . S
C1228 C1235 1.409 . S
C1229 H1221 0.930 . S
C1229 C1227 1.419 . S
C1229 C1230 1.362 . S
C1230 H1222 0.930 . S
C1230 C1229 1.362 . S
C1230 C1233 1.409 . S
C1231 H1223 0.930 . S
C1231 C1232 1.355 . S
C1231 C1233 1.415 . S
C1232 C1231 1.355 . S
C1232 C1234 1.419 1_556 S
C1233 C1228 1.425 . S
C1233 C1230 1.409 . S
C1233 C1231 1.415 . S
C1234 H1224 0.932 . S
C1234 C1232 1.419 1_554 S
C1234 C1235 1.360 1_554 S
C1235 H1225 0.930 . S
C1235 C1228 1.409 . S
C1235 C1234 1.360 1_556 S
H1236 C1242 0.930 . S
H1237 C1245 0.930 . S
H1238 C1246 0.930 . S
H1239 C1247 0.930 . S
H1240 C1250 0.930 . S
H1241 C1251 0.930 . S
C1242 H1236 0.930 . S
C1242 C1243 1.355 . S
C1242 C1244 1.415 . S
C1243 C1242 1.355 . S
C1243 C1245 1.419 . S
C1244 C1242 1.415 . S
C1244 C1249 1.425 . S
C1244 C1251 1.409 . S
C1245 H1237 0.930 . S
C1245 C1243 1.419 . S
C1245 C1246 1.362 . S
C1246 H1238 0.930 . S
C1246 C1245 1.362 . S
C1246 C1249 1.409 . S
C1247 H1239 0.930 . S
C1247 C1248 1.355 . S
C1247 C1249 1.415 . S
C1248 C1247 1.355 . S
C1248 C1250 1.419 . S
C1249 C1244 1.425 . S
C1249 C1246 1.409 . S
C1249 C1247 1.415 . S
C1250 H1240 0.930 . S
C1250 C1248 1.419 . S
C1250 C1251 1.362 . S
C1251 H1241 0.930 . S
C1251 C1244 1.409 . S
C1251 C1250 1.362 . S
H1252 C1258 0.930 . S
H1253 C1261 0.930 . S
H1254 C1262 0.930 . S
H1255 C1263 0.930 . S
H1256 C1266 0.930 . S
H1257 C1267 0.930 . S
C1258 H1252 0.930 . S
C1258 C1259 1.355 . S
C1258 C1260 1.415 . S
C1259 C1258 1.355 . S
C1259 C1261 1.419 . S
C1260 C1258 1.415 . S
C1260 C1265 1.425 . S
C1260 C1267 1.409 . S
C1261 H1253 0.930 . S
C1261 C1259 1.419 . S
C1261 C1262 1.362 . S
C1262 H1254 0.930 . S
C1262 C1261 1.362 . S
C1262 C1265 1.409 . S
C1263 H1255 0.930 . S
C1263 C1264 1.355 . S
C1263 C1265 1.415 . S
C1264 C1263 1.355 . S
C1264 C1266 1.419 . S
C1265 C1260 1.425 . S
C1265 C1262 1.409 . S
C1265 C1263 1.415 . S
C1266 H1256 0.930 . S
C1266 C1264 1.419 . S
C1266 C1267 1.362 . S
C1267 H1257 0.930 . S
C1267 C1260 1.409 . S
C1267 C1266 1.362 . S
H1268 C1274 0.930 . S
H1269 C1277 0.930 . S
H1270 C1278 0.930 1_545 S
H1271 C1279 0.930 . S
H1272 C1282 0.930 . S
H1273 C1283 0.930 . S
C1274 H1268 0.930 . S
C1274 C1275 1.355 . S
C1274 C1276 1.415 . S
C1275 C1274 1.355 . S
C1275 C1277 1.419 . S
C1276 C1274 1.415 . S
C1276 C1281 1.425 . S
C1276 C1283 1.409 . S
C1277 H1269 0.930 . S
C1277 C1275 1.419 . S
C1277 C1278 1.362 . S
C1278 H1270 0.930 1_565 S
C1278 C1277 1.362 . S
C1278 C1281 1.409 . S
C1279 H1271 0.930 . S
C1279 C1280 1.355 . S
C1279 C1281 1.415 . S
C1280 C1279 1.355 . S
C1280 C1282 1.419 . S
C1281 C1276 1.425 . S
C1281 C1278 1.409 . S
C1281 C1279 1.415 . S
C1282 H1272 0.930 . S
C1282 C1280 1.419 . S
C1282 C1283 1.362 . S
C1283 H1273 0.930 . S
C1283 C1276 1.409 . S
C1283 C1282 1.362 . S
H1284 C1290 0.930 . S
H1285 C1293 0.930 . S
H1286 C1294 0.930 . S
H1287 C1295 0.930 . S
H1288 C1298 0.930 . S
H1289 C1299 0.930 . S
C1290 H1284 0.930 . S
C1290 C1291 1.355 . S
C1290 C1292 1.415 . S
C1291 C1290 1.355 . S
C1291 C1293 1.419 . S
C1292 C1290 1.415 . S
C1292 C1297 1.425 . S
C1292 C1299 1.409 . S
C1293 H1285 0.930 . S
C1293 C1291 1.419 . S
C1293 C1294 1.362 . S
C1294 H1286 0.930 . S
C1294 C1293 1.362 . S
C1294 C1297 1.409 . S
C1295 H1287 0.930 . S
C1295 C1296 1.355 . S
C1295 C1297 1.415 . S
C1296 C1295 1.355 . S
C1296 C1298 1.419 . S
C1297 C1292 1.425 . S
C1297 C1294 1.409 . S
C1297 C1295 1.415 . S
C1298 H1288 0.930 . S
C1298 C1296 1.419 . S
C1298 C1299 1.362 . S
C1299 H1289 0.930 . S
C1299 C1292 1.409 . S
C1299 C1298 1.362 . S
H1300 C1306 0.930 . S
H1301 C1309 0.930 . S
H1302 C1310 0.930 . S
H1303 C1311 0.930 . S
H1304 C1314 0.930 . S
H1305 C1315 0.930 . S
C1306 H1300 0.930 . S
C1306 C1307 1.355 . S
C1306 C1308 1.415 . S
C1307 C1306 1.355 . S
C1307 C1309 1.419 . S
C1308 C1306 1.415 . S
C1308 C1313 1.425 . S
C1308 C1315 1.409 . S
C1309 H1301 0.930 . S
C1309 C1307 1.419 . S
C1309 C1310 1.362 . S
C1310 H1302 0.930 . S
C1310 C1309 1.362 . S
C1310 C1313 1.409 . S
C1311 H1303 0.930 . S
C1311 C1312 1.355 . S
C1311 C1313 1.415 . S
C1312 C1311 1.355 . S
C1312 C1314 1.419 . S
C1313 C1308 1.425 . S
C1313 C1310 1.409 . S
C1313 C1311 1.415 . S
C1314 H1304 0.930 . S
C1314 C1312 1.419 . S
C1314 C1315 1.362 . S
C1315 H1305 0.930 . S
C1315 C1308 1.409 . S
C1315 C1314 1.362 . S
H1316 C1322 0.930 . S
H1317 C1325 0.930 . S
H1318 C1326 0.930 . S
H1319 C1327 0.930 . S
H1320 C1330 0.930 . S
H1321 C1331 0.930 . S
C1322 H1316 0.930 . S
C1322 C1323 1.355 . S
C1322 C1324 1.415 . S
C1323 C1322 1.355 . S
C1323 C1325 1.419 . S
C1324 C1322 1.415 . S
C1324 C1329 1.425 . S
C1324 C1331 1.409 . S
C1325 H1317 0.930 . S
C1325 C1323 1.419 . S
C1325 C1326 1.362 . S
C1326 H1318 0.930 . S
C1326 C1325 1.362 . S
C1326 C1329 1.409 . S
C1327 H1319 0.930 . S
C1327 C1328 1.355 . S
C1327 C1329 1.415 . S
C1328 C1327 1.355 . S
C1328 C1330 1.419 . S
C1329 C1324 1.425 . S
C1329 C1326 1.409 . S
C1329 C1327 1.415 . S
C1330 H1320 0.930 . S
C1330 C1328 1.419 . S
C1330 C1331 1.362 . S
C1331 H1321 0.930 . S
C1331 C1324 1.409 . S
C1331 C1330 1.362 . S
H1332 C1338 0.930 . S
H1333 C1341 0.930 . S
H1334 C1342 0.930 . S
H1335 C1343 0.930 . S
H1336 C1346 0.930 . S
H1337 C1347 0.930 . S
C1338 H1332 0.930 . S
C1338 C1339 1.355 . S
C1338 C1340 1.415 . S
C1339 C1338 1.355 . S
C1339 C1341 1.419 . S
C1340 C1338 1.415 . S
C1340 C1345 1.425 . S
C1340 C1347 1.409 . S
C1341 H1333 0.930 . S
C1341 C1339 1.419 . S
C1341 C1342 1.362 . S
C1342 H1334 0.930 . S
C1342 C1341 1.362 . S
C1342 C1345 1.409 . S
C1343 H1335 0.930 . S
C1343 C1344 1.355 . S
C1343 C1345 1.415 . S
C1344 C1343 1.355 . S
C1344 C1346 1.419 . S
C1345 C1340 1.425 . S
C1345 C1342 1.409 . S
C1345 C1343 1.415 . S
C1346 H1336 0.930 . S
C1346 C1344 1.419 . S
C1346 C1347 1.362 . S
C1347 H1337 0.930 . S
C1347 C1340 1.409 . S
C1347 C1346 1.362 . S
H1348 C1354 0.930 . S
H1349 C1357 0.930 . S
H1350 C1358 0.930 . S
H1351 C1359 0.930 . S
H1352 C1362 0.930 . S
H1353 C1363 0.930 . S
C1354 H1348 0.930 . S
C1354 C1355 1.355 . S
C1354 C1356 1.415 . S
C1355 C1354 1.355 . S
C1355 C1357 1.419 . S
C1356 C1354 1.415 . S
C1356 C1361 1.425 . S
C1356 C1363 1.409 . S
C1357 H1349 0.930 . S
C1357 C1355 1.419 . S
C1357 C1358 1.362 . S
C1358 H1350 0.930 . S
C1358 C1357 1.362 . S
C1358 C1361 1.409 . S
C1359 H1351 0.930 . S
C1359 C1360 1.320 1_565 S
C1359 C1361 1.415 . S
C1360 C1359 1.320 1_545 S
C1360 C1362 1.426 . S
C1361 C1356 1.425 . S
C1361 C1358 1.409 . S
C1361 C1359 1.415 . S
C1362 H1352 0.930 . S
C1362 C1360 1.426 . S
C1362 C1363 1.362 1_545 S
C1363 H1353 0.930 . S
C1363 C1356 1.409 . S
C1363 C1362 1.362 1_565 S
H1364 C1370 0.930 . S
H1365 C1373 0.930 . S
H1366 C1374 0.930 . S
H1367 C1375 0.930 . S
H1368 C1378 0.930 . S
H1369 C1379 0.930 . S
C1370 H1364 0.930 . S
C1370 C1371 1.355 . S
C1370 C1372 1.415 . S
C1371 C1370 1.355 . S
C1371 C1373 1.419 . S
C1372 C1370 1.415 . S
C1372 C1377 1.425 . S
C1372 C1379 1.409 . S
C1373 H1365 0.930 . S
C1373 C1371 1.419 . S
C1373 C1374 1.362 . S
C1374 H1366 0.930 . S
C1374 C1373 1.362 . S
C1374 C1377 1.409 . S
C1375 H1367 0.930 . S
C1375 C1376 1.355 . S
C1375 C1377 1.415 . S
C1376 C1375 1.355 . S
C1376 C1378 1.419 . S
C1377 C1372 1.425 . S
C1377 C1374 1.409 . S
C1377 C1375 1.415 . S
C1378 H1368 0.930 . S
C1378 C1376 1.419 . S
C1378 C1379 1.362 . S
C1379 H1369 0.930 . S
C1379 C1372 1.409 . S
C1379 C1378 1.362 . S
H1380 C1386 0.930 . S
H1381 C1389 0.930 . S
H1382 C1390 0.930 . S
H1383 C1391 0.930 . S
H1384 C1394 0.930 . S
H1385 C1395 0.930 . S
C1386 H1380 0.930 . S
C1386 C1387 1.355 . S
C1386 C1388 1.415 . S
C1387 C1386 1.355 . S
C1387 C1389 1.419 . S
C1388 C1386 1.415 . S
C1388 C1393 1.425 . S
C1388 C1395 1.409 . S
C1389 H1381 0.930 . S
C1389 C1387 1.419 . S
C1389 C1390 1.362 . S
C1390 H1382 0.930 . S
C1390 C1389 1.362 . S
C1390 C1393 1.409 . S
C1391 H1383 0.930 . S
C1391 C1392 1.355 . S
C1391 C1393 1.415 . S
C1392 C1391 1.355 . S
C1392 C1394 1.419 . S
C1393 C1388 1.425 . S
C1393 C1390 1.409 . S
C1393 C1391 1.415 . S
C1394 H1384 0.930 . S
C1394 C1392 1.419 . S
C1394 C1395 1.362 . S
C1395 H1385 0.930 . S
C1395 C1388 1.409 . S
C1395 C1394 1.362 . S
H1396 C1402 0.930 . S
H1397 C1405 0.930 . S
H1398 C1406 0.930 . S
H1399 C1407 0.930 . S
H1400 C1410 0.930 . S
H1401 C1411 0.930 . S
C1402 H1396 0.930 . S
C1402 C1403 1.355 . S
C1402 C1404 1.415 . S
C1403 C1402 1.355 . S
C1403 C1405 1.419 . S
C1404 C1402 1.415 . S
C1404 C1409 1.425 . S
C1404 C1411 1.409 . S
C1405 H1397 0.930 . S
C1405 C1403 1.419 . S
C1405 C1406 1.362 . S
C1406 H1398 0.930 . S
C1406 C1405 1.362 . S
C1406 C1409 1.409 . S
C1407 H1399 0.930 . S
C1407 C1408 1.355 . S
C1407 C1409 1.415 . S
C1408 C1407 1.355 . S
C1408 C1410 1.419 . S
C1409 C1404 1.425 . S
C1409 C1406 1.409 . S
C1409 C1407 1.415 . S
C1410 H1400 0.930 . S
C1410 C1408 1.419 . S
C1410 C1411 1.362 . S
C1411 H1401 0.930 . S
C1411 C1404 1.409 . S
C1411 C1410 1.362 . S
H1412 C1418 0.930 . S
H1413 C1421 0.930 . S
H1414 C1422 0.930 . S
H1415 C1423 0.930 . S
H1416 C1426 0.930 . S
H1417 C1427 0.930 . S
C1418 H1412 0.930 . S
C1418 C1419 1.355 . S
C1418 C1420 1.415 . S
C1419 C1418 1.355 . S
C1419 C1421 1.419 . S
C1420 C1418 1.415 . S
C1420 C1425 1.425 . S
C1420 C1427 1.409 . S
C1421 H1413 0.930 . S
C1421 C1419 1.419 . S
C1421 C1422 1.362 . S
C1422 H1414 0.930 . S
C1422 C1421 1.362 . S
C1422 C1425 1.409 . S
C1423 H1415 0.930 . S
C1423 C1424 1.355 . S
C1423 C1425 1.415 . S
C1424 C1423 1.355 . S
C1424 C1426 1.419 . S
C1425 C1420 1.425 . S
C1425 C1422 1.409 . S
C1425 C1423 1.415 . S
C1426 H1416 0.930 . S
C1426 C1424 1.419 . S
C1426 C1427 1.362 . S
C1427 H1417 0.930 . S
C1427 C1420 1.409 . S
C1427 C1426 1.362 . S
H1428 C1434 0.930 . S
H1429 C1437 0.930 . S
H1430 C1438 0.930 . S
H1431 C1439 0.930 . S
H1432 C1442 0.930 . S
H1433 C1443 0.930 . S
C1434 H1428 0.930 . S
C1434 C1435 1.355 . S
C1434 C1436 1.415 . S
C1435 C1434 1.355 . S
C1435 C1437 1.419 . S
C1436 C1434 1.415 . S
C1436 C1441 1.425 . S
C1436 C1443 1.409 . S
C1437 H1429 0.930 . S
C1437 C1435 1.419 . S
C1437 C1438 1.362 . S
C1438 H1430 0.930 . S
C1438 C1437 1.362 . S
C1438 C1441 1.409 . S
C1439 H1431 0.930 . S
C1439 C1440 1.355 . S
C1439 C1441 1.415 . S
C1440 C1439 1.355 . S
C1440 C1442 1.419 . S
C1441 C1436 1.425 . S
C1441 C1438 1.409 . S
C1441 C1439 1.415 . S
C1442 H1432 0.930 . S
C1442 C1440 1.419 . S
C1442 C1443 1.362 . S
C1443 H1433 0.930 . S
C1443 C1436 1.409 . S
C1443 C1442 1.362 . S
H1444 C1450 0.930 . S
H1445 C1453 0.930 . S
H1446 C1454 0.930 . S
H1447 C1455 0.930 . S
H1448 C1458 0.930 . S
H1449 C1459 0.930 . S
C1450 H1444 0.930 . S
C1450 C1451 1.355 . S
C1450 C1452 1.415 . S
C1451 C1450 1.355 . S
C1451 C1453 1.419 . S
C1452 C1450 1.415 . S
C1452 C1457 1.425 . S
C1452 C1459 1.409 . S
C1453 H1445 0.930 . S
C1453 C1451 1.419 . S
C1453 C1454 1.362 . S
C1454 H1446 0.930 . S
C1454 C1453 1.362 . S
C1454 C1457 1.409 . S
C1455 H1447 0.930 . S
C1455 C1456 1.355 . S
C1455 C1457 1.415 . S
C1456 C1455 1.355 . S
C1456 C1458 1.419 . S
C1457 C1452 1.425 . S
C1457 C1454 1.409 . S
C1457 C1455 1.415 . S
C1458 H1448 0.930 . S
C1458 C1456 1.419 . S
C1458 C1459 1.362 . S
C1459 H1449 0.930 . S
C1459 C1452 1.409 . S
C1459 C1458 1.362 . S
H1460 C1466 0.930 . S
H1461 C1469 0.930 . S
H1462 C1470 0.930 . S
H1463 C1471 0.930 . S
H1464 C1474 0.930 . S
H1465 C1475 0.930 . S
C1466 H1460 0.930 . S
C1466 C1467 1.355 . S
C1466 C1468 1.415 . S
C1467 C1466 1.355 . S
C1467 C1469 1.419 . S
C1468 C1466 1.415 . S
C1468 C1473 1.425 . S
C1468 C1475 1.409 . S
C1469 H1461 0.930 . S
C1469 C1467 1.419 . S
C1469 C1470 1.362 . S
C1470 H1462 0.930 . S
C1470 C1469 1.362 . S
C1470 C1473 1.409 . S
C1471 H1463 0.930 . S
C1471 C1472 1.355 . S
C1471 C1473 1.415 . S
C1472 C1471 1.355 . S
C1472 C1474 1.419 . S
C1473 C1468 1.425 . S
C1473 C1470 1.409 . S
C1473 C1471 1.415 . S
C1474 H1464 0.930 . S
C1474 C1472 1.419 . S
C1474 C1475 1.362 . S
C1475 H1465 0.930 . S
C1475 C1468 1.409 . S
C1475 C1474 1.362 . S
H1476 C1482 0.930 . S
H1477 C1485 0.930 . S
H1478 C1486 0.930 . S
H1479 C1487 0.930 . S
H1480 C1490 0.930 . S
H1481 C1491 0.930 . S
C1482 H1476 0.930 . S
C1482 C1483 1.355 . S
C1482 C1484 1.415 . S
C1483 C1482 1.355 . S
C1483 C1485 1.419 . S
C1484 C1482 1.415 . S
C1484 C1489 1.425 . S
C1484 C1491 1.409 . S
C1485 H1477 0.930 . S
C1485 C1483 1.419 . S
C1485 C1486 1.362 . S
C1486 H1478 0.930 . S
C1486 C1485 1.362 . S
C1486 C1489 1.409 . S
C1487 H1479 0.930 . S
C1487 C1488 1.355 . S
C1487 C1489 1.415 . S
C1488 C1487 1.355 . S
C1488 C1490 1.419 . S
C1489 C1484 1.425 . S
C1489 C1486 1.409 . S
C1489 C1487 1.415 . S
C1490 H1480 0.930 . S
C1490 C1488 1.419 . S
C1490 C1491 1.362 . S
C1491 H1481 0.930 . S
C1491 C1484 1.409 . S
C1491 C1490 1.362 . S
H1492 C1498 0.930 . S
H1493 C1501 0.930 . S
H1494 C1502 0.930 . S
H1495 C1503 0.930 . S
H1496 C1506 0.930 . S
H1497 C1507 0.930 . S
C1498 H1492 0.930 . S
C1498 C1499 1.355 . S
C1498 C1500 1.415 . S
C1499 C1498 1.355 . S
C1499 C1501 1.419 . S
C1500 C1498 1.415 . S
C1500 C1505 1.425 . S
C1500 C1507 1.409 . S
C1501 H1493 0.930 . S
C1501 C1499 1.419 . S
C1501 C1502 1.362 . S
C1502 H1494 0.930 . S
C1502 C1501 1.362 . S
C1502 C1505 1.409 . S
C1503 H1495 0.930 . S
C1503 C1504 1.355 . S
C1503 C1505 1.415 . S
C1504 C1503 1.355 . S
C1504 C1506 1.419 . S
C1505 C1500 1.425 . S
C1505 C1502 1.409 . S
C1505 C1503 1.415 . S
C1506 H1496 0.930 . S
C1506 C1504 1.419 . S
C1506 C1507 1.362 . S
C1507 H1497 0.930 . S
C1507 C1500 1.409 . S
C1507 C1506 1.362 . S
H1508 C1514 0.930 . S
H1509 C1517 0.930 . S
H1510 C1518 0.930 . S
H1511 C1519 0.930 . S
H1512 C1522 0.930 . S
H1513 C1523 0.930 . S
C1514 H1508 0.930 . S
C1514 C1515 1.355 . S
C1514 C1516 1.415 . S
C1515 C1514 1.355 . S
C1515 C1517 1.419 . S
C1516 C1514 1.415 . S
C1516 C1521 1.425 . S
C1516 C1523 1.409 . S
C1517 H1509 0.930 . S
C1517 C1515 1.419 . S
C1517 C1518 1.362 . S
C1518 H1510 0.930 . S
C1518 C1517 1.362 . S
C1518 C1521 1.409 . S
C1519 H1511 0.930 . S
C1519 C1520 1.355 . S
C1519 C1521 1.415 . S
C1520 C1519 1.355 . S
C1520 C1522 1.419 . S
C1521 C1516 1.425 . S
C1521 C1518 1.409 . S
C1521 C1519 1.415 . S
C1522 H1512 0.930 . S
C1522 C1520 1.419 . S
C1522 C1523 1.362 . S
C1523 H1513 0.930 . S
C1523 C1516 1.409 . S
C1523 C1522 1.362 . S
H1524 C1530 0.930 . S
H1525 C1533 0.930 . S
H1526 C1534 0.930 . S
H1527 C1535 0.930 . S
H1528 C1538 0.930 . S
H1529 C1539 0.930 . S
C1530 H1524 0.930 . S
C1530 C1531 1.355 . S
C1530 C1532 1.415 . S
C1531 C1530 1.355 . S
C1531 C1533 1.419 . S
C1532 C1530 1.415 . S
C1532 C1537 1.425 . S
C1532 C1539 1.409 . S
C1533 H1525 0.930 . S
C1533 C1531 1.419 . S
C1533 C1534 1.362 . S
C1534 H1526 0.930 . S
C1534 C1533 1.362 . S
C1534 C1537 1.409 . S
C1535 H1527 0.930 . S
C1535 C1536 1.355 . S
C1535 C1537 1.415 . S
C1536 C1535 1.355 . S
C1536 C1538 1.419 . S
C1537 C1532 1.425 . S
C1537 C1534 1.409 . S
C1537 C1535 1.415 . S
C1538 H1528 0.930 . S
C1538 C1536 1.419 . S
C1538 C1539 1.362 . S
C1539 H1529 0.930 . S
C1539 C1532 1.409 . S
C1539 C1538 1.362 . S
H1540 C1546 0.930 . S
H1541 C1549 0.930 . S
H1542 C1550 0.930 . S
H1543 C1551 0.930 . S
H1544 C1554 0.930 . S
H1545 C1555 0.930 . S
C1546 H1540 0.930 . S
C1546 C1547 1.355 . S
C1546 C1548 1.415 . S
C1547 C1546 1.355 . S
C1547 C1549 1.419 . S
C1548 C1546 1.415 . S
C1548 C1553 1.425 . S
C1548 C1555 1.409 . S
C1549 H1541 0.930 . S
C1549 C1547 1.419 . S
C1549 C1550 1.362 . S
C1550 H1542 0.930 . S
C1550 C1549 1.362 . S
C1550 C1553 1.409 . S
C1551 H1543 0.930 . S
C1551 C1552 1.355 . S
C1551 C1553 1.415 . S
C1552 C1551 1.355 . S
C1552 C1554 1.419 . S
C1553 C1548 1.425 . S
C1553 C1550 1.409 . S
C1553 C1551 1.415 . S
C1554 H1544 0.930 . S
C1554 C1552 1.419 . S
C1554 C1555 1.362 . S
C1555 H1545 0.930 . S
C1555 C1548 1.409 . S
C1555 C1554 1.362 . S
H1556 C1562 0.930 . S
H1557 C1565 0.930 . S
H1558 C1566 0.930 . S
H1559 C1567 0.930 . S
H1560 C1570 0.930 . S
H1561 C1571 0.930 . S
C1562 H1556 0.930 . S
C1562 C1563 1.355 . S
C1562 C1564 1.415 . S
C1563 C1562 1.355 . S
C1563 C1565 1.419 . S
C1564 C1562 1.415 . S
C1564 C1569 1.425 . S
C1564 C1571 1.409 . S
C1565 H1557 0.930 . S
C1565 C1563 1.419 . S
C1565 C1566 1.362 . S
C1566 H1558 0.930 . S
C1566 C1565 1.362 . S
C1566 C1569 1.409 . S
C1567 H1559 0.930 . S
C1567 C1568 1.355 . S
C1567 C1569 1.415 . S
C1568 C1567 1.355 . S
C1568 C1570 1.419 . S
C1569 C1564 1.425 . S
C1569 C1566 1.409 . S
C1569 C1567 1.415 . S
C1570 H1560 0.930 . S
C1570 C1568 1.419 . S
C1570 C1571 1.362 . S
C1571 H1561 0.930 . S
C1571 C1564 1.409 . S
C1571 C1570 1.362 . S
H1572 C1578 0.930 . S
H1573 C1581 0.930 . S
H1574 C1582 0.930 . S
H1575 C1583 0.930 . S
H1576 C1586 0.930 1_655 S
H1577 C1587 0.930 1_655 S
C1578 H1572 0.930 . S
C1578 C1579 1.355 . S
C1578 C1580 1.415 . S
C1579 C1578 1.355 . S
C1579 C1581 1.419 . S
C1580 C1578 1.415 . S
C1580 C1585 1.425 . S
C1580 C1587 1.409 . S
C1581 H1573 0.930 . S
C1581 C1579 1.419 . S
C1581 C1582 1.362 . S
C1582 H1574 0.930 . S
C1582 C1581 1.362 . S
C1582 C1585 1.409 . S
C1583 H1575 0.930 . S
C1583 C1584 1.355 . S
C1583 C1585 1.415 . S
C1584 C1583 1.355 . S
C1584 C1586 1.419 . S
C1585 C1580 1.425 . S
C1585 C1582 1.409 . S
C1585 C1583 1.415 . S
C1586 H1576 0.930 1_455 S
C1586 C1584 1.419 . S
C1586 C1587 1.362 . S
C1587 H1577 0.930 1_455 S
C1587 C1580 1.409 . S
C1587 C1586 1.362 . S
H1588 C1594 0.930 . S
H1589 C1597 0.930 . S
H1590 C1598 0.930 . S
H1591 C1599 0.930 . S
H1592 C1602 0.930 . S
H1593 C1603 0.930 . S
C1594 H1588 0.930 . S
C1594 C1595 1.355 . S
C1594 C1596 1.415 . S
C1595 C1594 1.355 . S
C1595 C1597 1.419 . S
C1596 C1594 1.415 . S
C1596 C1601 1.425 . S
C1596 C1603 1.409 . S
C1597 H1589 0.930 . S
C1597 C1595 1.419 . S
C1597 C1598 1.362 . S
C1598 H1590 0.930 . S
C1598 C1597 1.362 . S
C1598 C1601 1.409 . S
C1599 H1591 0.930 . S
C1599 C1600 1.355 . S
C1599 C1601 1.415 . S
C1600 C1599 1.355 . S
C1600 C1602 1.419 . S
C1601 C1596 1.425 . S
C1601 C1598 1.409 . S
C1601 C1599 1.415 . S
C1602 H1592 0.930 . S
C1602 C1600 1.419 . S
C1602 C1603 1.362 . S
C1603 H1593 0.930 . S
C1603 C1596 1.409 . S
C1603 C1602 1.362 . S
H1604 C1610 0.930 . S
H1605 C1613 0.930 . S
H1606 C1614 0.930 . S
H1607 C1615 0.930 . S
H1608 C1618 0.930 . S
H1609 C1619 0.930 . S
C1610 H1604 0.930 . S
C1610 C1611 1.355 . S
C1610 C1612 1.415 . S
C1611 C1610 1.355 . S
C1611 C1613 1.419 . S
C1612 C1610 1.415 . S
C1612 C1617 1.425 . S
C1612 C1619 1.409 . S
C1613 H1605 0.930 . S
C1613 C1611 1.419 . S
C1613 C1614 1.362 . S
C1614 H1606 0.930 . S
C1614 C1613 1.362 . S
C1614 C1617 1.409 . S
C1615 H1607 0.930 . S
C1615 C1616 1.355 . S
C1615 C1617 1.415 . S
C1616 C1615 1.355 . S
C1616 C1618 1.419 . S
C1617 C1612 1.425 . S
C1617 C1614 1.409 . S
C1617 C1615 1.415 . S
C1618 H1608 0.930 . S
C1618 C1616 1.419 . S
C1618 C1619 1.362 . S
C1619 H1609 0.930 . S
C1619 C1612 1.409 . S
C1619 C1618 1.362 . S
H1620 C1626 0.930 . S
H1621 C1629 0.930 . S
H1622 C1630 0.930 . S
H1623 C1631 0.930 . S
H1624 C1634 0.930 . S
H1625 C1635 0.930 . S
C1626 H1620 0.930 . S
C1626 C1627 1.355 . S
C1626 C1628 1.415 . S
C1627 C1626 1.355 . S
C1627 C1629 1.419 . S
C1628 C1626 1.415 . S
C1628 C1633 1.425 . S
C1628 C1635 1.409 . S
C1629 H1621 0.930 . S
C1629 C1627 1.419 . S
C1629 C1630 1.362 . S
C1630 H1622 0.930 . S
C1630 C1629 1.362 . S
C1630 C1633 1.409 . S
C1631 H1623 0.930 . S
C1631 C1632 1.355 . S
C1631 C1633 1.415 . S
C1632 C1631 1.355 . S
C1632 C1634 1.419 . S
C1633 C1628 1.425 . S
C1633 C1630 1.409 . S
C1633 C1631 1.415 . S
C1634 H1624 0.930 . S
C1634 C1632 1.419 . S
C1634 C1635 1.362 . S
C1635 H1625 0.930 . S
C1635 C1628 1.409 . S
C1635 C1634 1.362 . S
H1636 C1642 0.930 . S
H1637 C1645 0.930 . S
H1638 C1646 0.930 . S
H1639 C1647 0.930 . S
H1640 C1650 0.930 . S
H1641 C1651 0.930 . S
C1642 H1636 0.930 . S
C1642 C1643 1.355 . S
C1642 C1644 1.415 . S
C1643 C1642 1.355 . S
C1643 C1645 1.419 . S
C1644 C1642 1.415 . S
C1644 C1649 1.425 . S
C1644 C1651 1.409 . S
C1645 H1637 0.930 . S
C1645 C1643 1.419 . S
C1645 C1646 1.362 . S
C1646 H1638 0.930 . S
C1646 C1645 1.362 . S
C1646 C1649 1.409 . S
C1647 H1639 0.930 . S
C1647 C1648 1.355 . S
C1647 C1649 1.415 . S
C1648 C1647 1.355 . S
C1648 C1650 1.419 . S
C1649 C1644 1.425 . S
C1649 C1646 1.409 . S
C1649 C1647 1.415 . S
C1650 H1640 0.930 . S
C1650 C1648 1.419 . S
C1650 C1651 1.362 . S
C1651 H1641 0.930 . S
C1651 C1644 1.409 . S
C1651 C1650 1.362 . S
H1652 C1658 0.930 . S
H1653 C1661 0.930 . S
H1654 C1662 0.930 . S
H1655 C1663 0.930 . S
H1656 C1666 0.930 . S
H1657 C1667 0.930 . S
C1658 H1652 0.930 . S
C1658 C1659 1.355 . S
C1658 C1660 1.415 . S
C1659 C1658 1.355 . S
C1659 C1661 1.419 . S
C1660 C1658 1.415 . S
C1660 C1665 1.425 . S
C1660 C1667 1.409 . S
C1661 H1653 0.930 . S
C1661 C1659 1.419 . S
C1661 C1662 1.362 . S
C1662 H1654 0.930 . S
C1662 C1661 1.362 . S
C1662 C1665 1.409 . S
C1663 H1655 0.930 . S
C1663 C1664 1.355 . S
C1663 C1665 1.415 . S
C1664 C1663 1.355 . S
C1664 C1666 1.419 . S
C1665 C1660 1.425 . S
C1665 C1662 1.409 . S
C1665 C1663 1.415 . S
C1666 H1656 0.930 . S
C1666 C1664 1.419 . S
C1666 C1667 1.362 . S
C1667 H1657 0.930 . S
C1667 C1660 1.409 . S
C1667 C1666 1.362 . S
H1668 C1674 0.930 . S
H1669 C1677 0.930 . S
H1670 C1678 0.930 . S
H1671 C1679 0.930 . S
H1672 C1682 0.930 . S
H1673 C1683 0.930 . S
C1674 H1668 0.930 . S
C1674 C1675 1.355 . S
C1674 C1676 1.415 . S
C1675 C1674 1.355 . S
C1675 C1677 1.419 . S
C1676 C1674 1.415 . S
C1676 C1681 1.425 . S
C1676 C1683 1.409 . S
C1677 H1669 0.930 . S
C1677 C1675 1.419 . S
C1677 C1678 1.362 . S
C1678 H1670 0.930 . S
C1678 C1677 1.362 . S
C1678 C1681 1.409 . S
C1679 H1671 0.930 . S
C1679 C1680 1.355 . S
C1679 C1681 1.415 . S
C1680 C1679 1.355 . S
C1680 C1682 1.419 . S
C1681 C1676 1.425 . S
C1681 C1678 1.409 . S
C1681 C1679 1.415 . S
C1682 H1672 0.930 . S
C1682 C1680 1.419 . S
C1682 C1683 1.362 . S
C1683 H1673 0.930 . S
C1683 C1676 1.409 . S
C1683 C1682 1.362 . S
H1684 C1690 0.930 . S
H1685 C1693 0.930 . S
H1686 C1694 0.930 . S
H1687 C1695 0.930 . S
H1688 C1698 0.930 . S
H1689 C1699 0.930 . S
C1690 H1684 0.930 . S
C1690 C1691 1.355 . S
C1690 C1692 1.415 . S
C1691 C1690 1.355 . S
C1691 C1693 1.419 . S
C1692 C1690 1.415 . S
C1692 C1697 1.425 . S
C1692 C1699 1.409 . S
C1693 H1685 0.930 . S
C1693 C1691 1.419 . S
C1693 C1694 1.362 . S
C1694 H1686 0.930 . S
C1694 C1693 1.362 . S
C1694 C1697 1.409 . S
C1695 H1687 0.930 . S
C1695 C1696 1.355 . S
C1695 C1697 1.415 . S
C1696 C1695 1.355 . S
C1696 C1698 1.419 . S
C1697 C1692 1.425 . S
C1697 C1694 1.409 . S
C1697 C1695 1.415 . S
C1698 H1688 0.930 . S
C1698 C1696 1.419 . S
C1698 C1699 1.362 . S
C1699 H1689 0.930 . S
C1699 C1692 1.409 . S
C1699 C1698 1.362 . S
H1700 C1706 0.930 . S
H1701 C1709 0.930 . S
H1702 C1710 0.930 . S
H1703 C1711 0.930 . S
H1704 C1714 0.930 1_554 S
H1705 C1715 0.930 1_554 S
C1706 H1700 0.930 . S
C1706 C1707 1.355 . S
C1706 C1708 1.415 . S
C1707 C1706 1.355 . S
C1707 C1709 1.419 . S
C1708 C1706 1.415 . S
C1708 C1713 1.425 . S
C1708 C1715 1.409 . S
C1709 H1701 0.930 . S
C1709 C1707 1.419 . S
C1709 C1710 1.362 . S
C1710 H1702 0.930 . S
C1710 C1709 1.362 . S
C1710 C1713 1.409 . S
C1711 H1703 0.930 . S
C1711 C1712 1.355 . S
C1711 C1713 1.415 . S
C1712 C1711 1.355 . S
C1712 C1714 1.419 . S
C1713 C1708 1.425 . S
C1713 C1710 1.409 . S
C1713 C1711 1.415 . S
C1714 H1704 0.930 1_556 S
C1714 C1712 1.419 . S
C1714 C1715 1.362 . S
C1715 H1705 0.930 1_556 S
C1715 C1708 1.409 . S
C1715 C1714 1.362 . S
H1716 C1722 0.930 . S
H1717 C1725 0.930 . S
H1718 C1726 0.930 . S
H1719 C1727 0.930 . S
H1720 C1730 0.930 . S
H1721 C1731 0.930 . S
C1722 H1716 0.930 . S
C1722 C1723 1.355 . S
C1722 C1724 1.415 . S
C1723 C1722 1.355 . S
C1723 C1725 1.419 . S
C1724 C1722 1.415 . S
C1724 C1729 1.425 . S
C1724 C1731 1.409 . S
C1725 H1717 0.930 . S
C1725 C1723 1.419 . S
C1725 C1726 1.362 . S
C1726 H1718 0.930 . S
C1726 C1725 1.362 . S
C1726 C1729 1.409 . S
C1727 H1719 0.930 . S
C1727 C1728 1.355 . S
C1727 C1729 1.415 . S
C1728 C1727 1.355 . S
C1728 C1730 1.419 . S
C1729 C1724 1.425 . S
C1729 C1726 1.409 . S
C1729 C1727 1.415 . S
C1730 H1720 0.930 . S
C1730 C1728 1.419 . S
C1730 C1731 1.362 . S
C1731 H1721 0.930 . S
C1731 C1724 1.409 . S
C1731 C1730 1.362 . S
H1732 C1738 0.930 . S
H1733 C1741 0.930 . S
H1734 C1742 0.930 . S
H1735 C1743 0.930 . S
H1736 C1746 0.930 1_554 S
H1737 C1747 0.930 . S
C1738 H1732 0.930 . S
C1738 C1739 1.355 . S
C1738 C1740 1.415 . S
C1739 C1738 1.355 . S
C1739 C1741 1.419 . S
C1740 C1738 1.415 . S
C1740 C1745 1.425 . S
C1740 C1747 1.409 . S
C1741 H1733 0.930 . S
C1741 C1739 1.419 . S
C1741 C1742 1.362 . S
C1742 H1734 0.930 . S
C1742 C1741 1.362 . S
C1742 C1745 1.409 . S
C1743 H1735 0.930 . S
C1743 C1744 1.355 . S
C1743 C1745 1.415 . S
C1744 C1743 1.355 . S
C1744 C1746 1.419 . S
C1745 C1740 1.425 . S
C1745 C1742 1.409 . S
C1745 C1743 1.415 . S
C1746 H1736 0.930 1_556 S
C1746 C1744 1.419 . S
C1746 C1747 1.362 . S
C1747 H1737 0.930 . S
C1747 C1740 1.409 . S
C1747 C1746 1.362 . S
H1748 C1754 0.930 . S
H1749 C1757 0.930 . S
H1750 C1758 0.930 . S
H1751 C1759 0.930 . S
H1752 C1762 0.930 . S
H1753 C1763 0.930 . S
C1754 H1748 0.930 . S
C1754 C1755 1.355 . S
C1754 C1756 1.415 . S
C1755 C1754 1.355 . S
C1755 C1757 1.419 . S
C1756 C1754 1.415 . S
C1756 C1761 1.425 . S
C1756 C1763 1.409 . S
C1757 H1749 0.930 . S
C1757 C1755 1.419 . S
C1757 C1758 1.362 . S
C1758 H1750 0.930 . S
C1758 C1757 1.362 . S
C1758 C1761 1.409 . S
C1759 H1751 0.930 . S
C1759 C1760 1.355 . S
C1759 C1761 1.415 . S
C1760 C1759 1.355 . S
C1760 C1762 1.419 . S
C1761 C1756 1.425 . S
C1761 C1758 1.409 . S
C1761 C1759 1.415 . S
C1762 H1752 0.930 . S
C1762 C1760 1.419 . S
C1762 C1763 1.362 . S
C1763 H1753 0.930 . S
C1763 C1756 1.409 . S
C1763 C1762 1.362 . S
H1764 C1770 0.930 . S
H1765 C1773 0.930 . S
H1766 C1774 0.930 . S
H1767 C1775 0.930 . S
H1768 C1778 0.930 . S
H1769 C1779 0.930 . S
C1770 H1764 0.930 . S
C1770 C1771 1.355 . S
C1770 C1772 1.415 . S
C1771 C1770 1.355 . S
C1771 C1773 1.419 . S
C1772 C1770 1.415 . S
C1772 C1777 1.425 . S
C1772 C1779 1.409 . S
C1773 H1765 0.930 . S
C1773 C1771 1.419 . S
C1773 C1774 1.362 . S
C1774 H1766 0.930 . S
C1774 C1773 1.362 . S
C1774 C1777 1.409 . S
C1775 H1767 0.930 . S
C1775 C1776 1.355 . S
C1775 C1777 1.415 . S
C1776 C1775 1.355 . S
C1776 C1778 1.419 . S
C1777 C1772 1.425 . S
C1777 C1774 1.409 . S
C1777 C1775 1.415 . S
C1778 H1768 0.930 . S
C1778 C1776 1.419 . S
C1778 C1779 1.362 . S
C1779 H1769 0.930 . S
C1779 C1772 1.409 . S
C1779 C1778 1.362 . S
H1780 C1786 0.930 . S
H1781 C1789 0.930 . S
H1782 C1790 0.930 . S
H1783 C1791 0.930 . S
H1784 C1794 0.930 . S
H1785 C1795 0.930 . S
C1786 H1780 0.930 . S
C1786 C1787 1.355 . S
C1786 C1788 1.415 . S
C1787 C1786 1.355 . S
C1787 C1789 1.419 . S
C1788 C1786 1.415 . S
C1788 C1793 1.425 . S
C1788 C1795 1.409 . S
C1789 H1781 0.930 . S
C1789 C1787 1.419 . S
C1789 C1790 1.362 . S
C1790 H1782 0.930 . S
C1790 C1789 1.362 . S
C1790 C1793 1.409 . S
C1791 H1783 0.930 . S
C1791 C1792 1.355 . S
C1791 C1793 1.415 . S
C1792 C1791 1.355 . S
C1792 C1794 1.419 . S
C1793 C1788 1.425 . S
C1793 C1790 1.409 . S
C1793 C1791 1.415 . S
C1794 H1784 0.930 . S
C1794 C1792 1.419 . S
C1794 C1795 1.362 . S
C1795 H1785 0.930 . S
C1795 C1788 1.409 . S
C1795 C1794 1.362 . S
H1796 C1802 0.930 . S
H1797 C1805 0.930 . S
H1798 C1806 0.930 . S
H1799 C1807 0.930 . S
H1800 C1810 0.930 . S
H1801 C1811 0.930 . S
C1802 H1796 0.930 . S
C1802 C1803 1.355 . S
C1802 C1804 1.415 . S
C1803 C1802 1.355 . S
C1803 C1805 1.419 . S
C1804 C1802 1.415 . S
C1804 C1809 1.425 . S
C1804 C1811 1.409 . S
C1805 H1797 0.930 . S
C1805 C1803 1.419 . S
C1805 C1806 1.362 . S
C1806 H1798 0.930 . S
C1806 C1805 1.362 . S
C1806 C1809 1.409 . S
C1807 H1799 0.930 . S
C1807 C1808 1.355 . S
C1807 C1809 1.415 . S
C1808 C1807 1.355 . S
C1808 C1810 1.419 . S
C1809 C1804 1.425 . S
C1809 C1806 1.409 . S
C1809 C1807 1.415 . S
C1810 H1800 0.930 . S
C1810 C1808 1.419 . S
C1810 C1811 1.362 . S
C1811 H1801 0.930 . S
C1811 C1804 1.409 . S
C1811 C1810 1.362 . S
H1812 C1818 0.930 . S
H1813 C1821 0.930 . S
H1814 C1822 0.930 . S
H1815 C1823 0.930 . S
H1816 C1826 0.930 . S
H1817 C1827 0.930 . S
C1818 H1812 0.930 . S
C1818 C1819 1.355 . S
C1818 C1820 1.415 . S
C1819 C1818 1.355 . S
C1819 C1821 1.419 . S
C1820 C1818 1.415 . S
C1820 C1825 1.425 . S
C1820 C1827 1.409 . S
C1821 H1813 0.930 . S
C1821 C1819 1.419 . S
C1821 C1822 1.362 . S
C1822 H1814 0.930 . S
C1822 C1821 1.362 . S
C1822 C1825 1.409 . S
C1823 H1815 0.930 . S
C1823 C1824 1.355 . S
C1823 C1825 1.415 . S
C1824 C1823 1.355 . S
C1824 C1826 1.419 . S
C1825 C1820 1.425 . S
C1825 C1822 1.409 . S
C1825 C1823 1.415 . S
C1826 H1816 0.930 . S
C1826 C1824 1.419 . S
C1826 C1827 1.362 . S
C1827 H1817 0.930 . S
C1827 C1820 1.409 . S
C1827 C1826 1.362 . S
H1828 C1834 0.930 . S
H1829 C1837 0.930 . S
H1830 C1838 0.930 . S
H1831 C1839 0.930 . S
H1832 C1842 0.930 . S
H1833 C1843 0.930 . S
C1834 H1828 0.930 . S
C1834 C1835 1.355 . S
C1834 C1836 1.415 . S
C1835 C1834 1.355 . S
C1835 C1837 1.419 . S
C1836 C1834 1.415 . S
C1836 C1841 1.425 . S
C1836 C1843 1.409 . S
C1837 H1829 0.930 . S
C1837 C1835 1.419 . S
C1837 C1838 1.362 . S
C1838 H1830 0.930 . S
C1838 C1837 1.362 . S
C1838 C1841 1.409 . S
C1839 H1831 0.930 . S
C1839 C1840 1.355 . S
C1839 C1841 1.415 . S
C1840 C1839 1.355 . S
C1840 C1842 1.419 . S
C1841 C1836 1.425 . S
C1841 C1838 1.409 . S
C1841 C1839 1.415 . S
C1842 H1832 0.930 . S
C1842 C1840 1.419 . S
C1842 C1843 1.362 . S
C1843 H1833 0.930 . S
C1843 C1836 1.409 . S
C1843 C1842 1.362 . S
H1844 C1850 0.930 . S
H1845 C1853 0.930 . S
H1846 C1854 0.930 . S
H1847 C1855 0.930 . S
H1848 C1858 0.930 . S
H1849 C1859 0.930 . S
C1850 H1844 0.930 . S
C1850 C1851 1.355 . S
C1850 C1852 1.415 . S
C1851 C1850 1.355 . S
C1851 C1853 1.419 . S
C1852 C1850 1.415 . S
C1852 C1857 1.425 . S
C1852 C1859 1.409 . S
C1853 H1845 0.930 . S
C1853 C1851 1.419 . S
C1853 C1854 1.362 . S
C1854 H1846 0.930 . S
C1854 C1853 1.362 . S
C1854 C1857 1.409 . S
C1855 H1847 0.930 . S
C1855 C1856 1.355 . S
C1855 C1857 1.415 . S
C1856 C1855 1.355 . S
C1856 C1858 1.419 . S
C1857 C1852 1.425 . S
C1857 C1854 1.409 . S
C1857 C1855 1.415 . S
C1858 H1848 0.930 . S
C1858 C1856 1.419 . S
C1858 C1859 1.362 . S
C1859 H1849 0.930 . S
C1859 C1852 1.409 . S
C1859 C1858 1.362 . S
H1860 C1866 0.930 . S
H1861 C1869 0.930 . S
H1862 C1870 0.930 . S
H1863 C1871 0.930 . S
H1864 C1874 0.930 . S
H1865 C1875 0.930 . S
C1866 H1860 0.930 . S
C1866 C1867 1.355 . S
C1866 C1868 1.415 . S
C1867 C1866 1.355 . S
C1867 C1869 1.419 . S
C1868 C1866 1.415 . S
C1868 C1873 1.425 . S
C1868 C1875 1.409 . S
C1869 H1861 0.930 . S
C1869 C1867 1.419 . S
C1869 C1870 1.362 . S
C1870 H1862 0.930 . S
C1870 C1869 1.362 . S
C1870 C1873 1.409 . S
C1871 H1863 0.930 . S
C1871 C1872 1.355 . S
C1871 C1873 1.415 . S
C1872 C1871 1.355 . S
C1872 C1874 1.419 . S
C1873 C1868 1.425 . S
C1873 C1870 1.409 . S
C1873 C1871 1.415 . S
C1874 H1864 0.930 . S
C1874 C1872 1.419 . S
C1874 C1875 1.362 . S
C1875 H1865 0.930 . S
C1875 C1868 1.409 . S
C1875 C1874 1.362 . S
H1876 C1882 0.930 . S
H1877 C1885 0.930 . S
H1878 C1886 0.930 . S
H1879 C1887 0.930 . S
H1880 C1890 0.930 . S
H1881 C1891 0.930 . S
C1882 H1876 0.930 . S
C1882 C1883 1.355 . S
C1882 C1884 1.415 . S
C1883 C1882 1.355 . S
C1883 C1885 1.419 . S
C1884 C1882 1.415 . S
C1884 C1889 1.425 . S
C1884 C1891 1.409 . S
C1885 H1877 0.930 . S
C1885 C1883 1.419 . S
C1885 C1886 1.362 . S
C1886 H1878 0.930 . S
C1886 C1885 1.362 . S
C1886 C1889 1.409 . S
C1887 H1879 0.930 . S
C1887 C1888 1.355 . S
C1887 C1889 1.415 . S
C1888 C1887 1.355 . S
C1888 C1890 1.419 . S
C1889 C1884 1.425 . S
C1889 C1886 1.409 . S
C1889 C1887 1.415 . S
C1890 H1880 0.930 . S
C1890 C1888 1.419 . S
C1890 C1891 1.362 . S
C1891 H1881 0.930 . S
C1891 C1884 1.409 . S
C1891 C1890 1.362 . S
H1892 C1898 0.930 . S
H1893 C1901 0.930 . S
H1894 C1902 0.930 . S
H1895 C1903 0.930 . S
H1896 C1906 0.930 . S
H1897 C1907 0.930 . S
C1898 H1892 0.930 . S
C1898 C1899 1.355 . S
C1898 C1900 1.415 . S
C1899 C1898 1.355 . S
C1899 C1901 1.419 . S
C1900 C1898 1.415 . S
C1900 C1905 1.425 . S
C1900 C1907 1.409 . S
C1901 H1893 0.930 . S
C1901 C1899 1.419 . S
C1901 C1902 1.362 . S
C1902 H1894 0.930 . S
C1902 C1901 1.362 . S
C1902 C1905 1.409 . S
C1903 H1895 0.930 . S
C1903 C1904 1.355 . S
C1903 C1905 1.415 . S
C1904 C1903 1.355 . S
C1904 C1906 1.419 . S
C1905 C1900 1.425 . S
C1905 C1902 1.409 . S
C1905 C1903 1.415 . S
C1906 H1896 0.930 . S
C1906 C1904 1.419 . S
C1906 C1907 1.362 . S
C1907 H1897 0.930 . S
C1907 C1900 1.409 . S
C1907 C1906 1.362 . S
H1908 C1914 0.930 . S
H1909 C1917 0.930 . S
H1910 C1918 0.930 . S
H1911 C1919 0.930 . S
H1912 C1922 0.930 . S
H1913 C1923 0.930 . S
C1914 H1908 0.930 . S
C1914 C1915 1.355 . S
C1914 C1916 1.415 . S
C1915 C1914 1.355 . S
C1915 C1917 1.419 . S
C1916 C1914 1.415 . S
C1916 C1921 1.425 . S
C1916 C1923 1.409 . S
C1917 H1909 0.930 . S
C1917 C1915 1.419 . S
C1917 C1918 1.362 . S
C1918 H1910 0.930 . S
C1918 C1917 1.362 . S
C1918 C1921 1.409 . S
C1919 H1911 0.930 . S
C1919 C1920 1.355 . S
C1919 C1921 1.415 . S
C1920 C1919 1.355 . S
C1920 C1922 1.419 . S
C1921 C1916 1.425 . S
C1921 C1918 1.409 . S
C1921 C1919 1.415 . S
C1922 H1912 0.930 . S
C1922 C1920 1.419 . S
C1922 C1923 1.362 . S
C1923 H1913 0.930 . S
C1923 C1916 1.409 . S
C1923 C1922 1.362 . S
H1924 C1930 0.930 . S
H1925 C1933 0.930 . S
H1926 C1934 0.950 . S
H1927 C1935 0.930 1_655 S
H1928 C1938 0.930 . S
H1929 C1939 0.930 . S
C1930 H1924 0.930 . S
C1930 C1931 1.355 . S
C1930 C1932 1.415 . S
C1931 C1930 1.355 . S
C1931 C1933 1.419 . S
C1932 C1930 1.415 . S
C1932 C1937 1.425 . S
C1932 C1939 1.409 . S
C1933 H1925 0.930 . S
C1933 C1931 1.419 . S
C1933 C1934 1.362 . S
C1934 H1926 0.950 . S
C1934 C1933 1.362 . S
C1934 C1937 1.409 . S
C1935 H1927 0.930 1_455 S
C1935 C1936 1.355 . S
C1935 C1937 1.415 . S
C1936 C1935 1.355 . S
C1936 C1938 1.419 . S
C1937 C1932 1.425 . S
C1937 C1934 1.409 . S
C1937 C1935 1.415 . S
C1938 H1928 0.930 . S
C1938 C1936 1.419 . S
C1938 C1939 1.362 . S
C1939 H1929 0.930 . S
C1939 C1932 1.409 . S
C1939 C1938 1.362 . S
H1940 C1946 0.930 . S
H1941 C1949 0.930 . S
H1942 C1950 0.930 . S
H1943 C1951 0.930 . S
H1944 C1954 0.930 . S
H1945 C1955 0.930 . S
C1946 H1940 0.930 . S
C1946 C1947 1.355 . S
C1946 C1948 1.415 . S
C1947 C1946 1.355 . S
C1947 C1949 1.419 . S
C1948 C1946 1.415 . S
C1948 C1953 1.425 . S
C1948 C1955 1.409 . S
C1949 H1941 0.930 . S
C1949 C1947 1.419 . S
C1949 C1950 1.362 . S
C1950 H1942 0.930 . S
C1950 C1949 1.362 . S
C1950 C1953 1.409 . S
C1951 H1943 0.930 . S
C1951 C1952 1.355 . S
C1951 C1953 1.415 . S
C1952 C1951 1.355 . S
C1952 C1954 1.419 . S
C1953 C1948 1.425 . S
C1953 C1950 1.409 . S
C1953 C1951 1.415 . S
C1954 H1944 0.930 . S
C1954 C1952 1.419 . S
C1954 C1955 1.362 . S
C1955 H1945 0.930 . S
C1955 C1948 1.409 . S
C1955 C1954 1.362 . S
H1956 C1962 0.930 . S
H1957 C1965 0.930 . S
H1958 C1966 0.930 . S
H1959 C1967 0.930 . S
H1960 C1970 0.930 . S
H1961 C1971 0.930 . S
C1962 H1956 0.930 . S
C1962 C1963 1.355 . S
C1962 C1964 1.415 . S
C1963 C1962 1.355 . S
C1963 C1965 1.419 . S
C1964 C1962 1.415 . S
C1964 C1969 1.425 . S
C1964 C1971 1.409 . S
C1965 H1957 0.930 . S
C1965 C1963 1.419 . S
C1965 C1966 1.362 . S
C1966 H1958 0.930 . S
C1966 C1965 1.362 . S
C1966 C1969 1.409 . S
C1967 H1959 0.930 . S
C1967 C1968 1.355 . S
C1967 C1969 1.415 . S
C1968 C1967 1.355 . S
C1968 C1970 1.419 . S
C1969 C1964 1.425 . S
C1969 C1966 1.409 . S
C1969 C1967 1.415 . S
C1970 H1960 0.930 . S
C1970 C1968 1.419 . S
C1970 C1971 1.362 . S
C1971 H1961 0.930 . S
C1971 C1964 1.409 . S
C1971 C1970 1.362 . S
H1972 C1978 0.930 . S
H1973 C1981 0.930 . S
H1974 C1982 0.930 . S
H1975 C1983 0.930 . S
H1976 C1986 0.930 . S
H1977 C1987 0.930 . S
C1978 H1972 0.930 . S
C1978 C1979 1.355 . S
C1978 C1980 1.415 . S
C1979 C1978 1.355 . S
C1979 C1981 1.419 . S
C1980 C1978 1.415 . S
C1980 C1985 1.425 . S
C1980 C1987 1.409 . S
C1981 H1973 0.930 . S
C1981 C1979 1.419 . S
C1981 C1982 1.362 . S
C1982 H1974 0.930 . S
C1982 C1981 1.362 . S
C1982 C1985 1.409 . S
C1983 H1975 0.930 . S
C1983 C1984 1.355 . S
C1983 C1985 1.415 . S
C1984 C1983 1.355 . S
C1984 C1986 1.419 . S
C1985 C1980 1.425 . S
C1985 C1982 1.409 . S
C1985 C1983 1.415 . S
C1986 H1976 0.930 . S
C1986 C1984 1.419 . S
C1986 C1987 1.362 . S
C1987 H1977 0.930 . S
C1987 C1980 1.409 . S
C1987 C1986 1.362 . S
H1988 C1994 0.930 . S
H1989 C1997 0.930 . S
H1990 C1998 0.930 . S
H1991 C1999 0.930 . S
H1992 C2002 0.930 . S
H1993 C2003 0.930 . S
C1994 H1988 0.930 . S
C1994 C1995 1.355 . S
C1994 C1996 1.415 . S
C1995 C1994 1.355 . S
C1995 C1997 1.419 . S
C1996 C1994 1.415 . S
C1996 C2001 1.425 . S
C1996 C2003 1.409 . S
C1997 H1989 0.930 . S
C1997 C1995 1.419 . S
C1997 C1998 1.362 . S
C1998 H1990 0.930 . S
C1998 C1997 1.362 . S
C1998 C2001 1.409 . S
C1999 H1991 0.930 . S
C1999 C2000 1.355 . S
C1999 C2001 1.415 . S
C2000 C1999 1.355 . S
C2000 C2002 1.419 . S
C2001 C1996 1.425 . S
C2001 C1998 1.409 . S
C2001 C1999 1.415 . S
C2002 H1992 0.930 . S
C2002 C2000 1.419 . S
C2002 C2003 1.362 . S
C2003 H1993 0.930 . S
C2003 C1996 1.409 . S
C2003 C2002 1.362 . S
H2004 C2010 0.930 . S
H2005 C2013 0.930 . S
H2006 C2014 0.930 . S
H2007 C2015 0.930 . S
H2008 C2018 0.930 . S
H2009 C2019 0.930 . S
C2010 H2004 0.930 . S
C2010 C2011 1.355 . S
C2010 C2012 1.415 . S
C2011 C2010 1.355 . S
C2011 C2013 1.419 . S
C2012 C2010 1.415 . S
C2012 C2017 1.425 . S
C2012 C2019 1.409 . S
C2013 H2005 0.930 . S
C2013 C2011 1.419 . S
C2013 C2014 1.362 . S
C2014 H2006 0.930 . S
C2014 C2013 1.362 . S
C2014 C2017 1.409 . S
C2015 H2007 0.930 . S
C2015 C2016 1.355 . S
C2015 C2017 1.415 . S
C2016 C2015 1.355 . S
C2016 C2018 1.419 . S
C2017 C2012 1.425 . S
C2017 C2014 1.409 . S
C2017 C2015 1.415 . S
C2018 H2008 0.930 . S
C2018 C2016 1.419 . S
C2018 C2019 1.362 . S
C2019 H2009 0.930 . S
C2019 C2012 1.409 . S
C2019 C2018 1.362 . S
H2020 C2026 0.930 . S
H2021 C2029 0.930 . S
H2022 C2030 0.930 . S
H2023 C2031 0.930 . S
H2024 C2034 0.930 . S
H2025 C2035 0.930 . S
C2026 H2020 0.930 . S
C2026 C2027 1.355 . S
C2026 C2028 1.415 . S
C2027 C2026 1.355 . S
C2027 C2029 1.419 . S
C2028 C2026 1.415 . S
C2028 C2033 1.425 . S
C2028 C2035 1.409 . S
C2029 H2021 0.930 . S
C2029 C2027 1.419 . S
C2029 C2030 1.362 . S
C2030 H2022 0.930 . S
C2030 C2029 1.362 . S
C2030 C2033 1.409 . S
C2031 H2023 0.930 . S
C2031 C2032 1.355 . S
C2031 C2033 1.415 . S
C2032 C2031 1.355 . S
C2032 C2034 1.419 . S
C2033 C2028 1.425 . S
C2033 C2030 1.409 . S
C2033 C2031 1.415 . S
C2034 H2024 0.930 . S
C2034 C2032 1.419 . S
C2034 C2035 1.362 . S
C2035 H2025 0.930 . S
C2035 C2028 1.409 . S
C2035 C2034 1.362 . S
H2036 C2042 0.930 . S
H2037 C2045 0.930 . S
H2038 C2046 0.930 . S
H2039 C2047 0.930 . S
H2040 C2050 0.930 . S
H2041 C2051 0.930 . S
C2042 H2036 0.930 . S
C2042 C2043 1.355 . S
C2042 C2044 1.415 . S
C2043 C2042 1.355 . S
C2043 C2045 1.419 . S
C2044 C2042 1.415 . S
C2044 C2049 1.425 . S
C2044 C2051 1.409 . S
C2045 H2037 0.930 . S
C2045 C2043 1.419 . S
C2045 C2046 1.362 . S
C2046 H2038 0.930 . S
C2046 C2045 1.362 . S
C2046 C2049 1.409 . S
C2047 H2039 0.930 . S
C2047 C2048 1.355 . S
C2047 C2049 1.415 . S
C2048 C2047 1.355 . S
C2048 C2050 1.419 . S
C2049 C2044 1.425 . S
C2049 C2046 1.409 . S
C2049 C2047 1.415 . S
C2050 H2040 0.930 . S
C2050 C2048 1.419 . S
C2050 C2051 1.362 . S
C2051 H2041 0.930 . S
C2051 C2044 1.409 . S
C2051 C2050 1.362 . S
H2052 C2058 0.930 . S
H2053 C2061 0.930 . S
H2054 C2062 0.930 . S
H2055 C2063 0.930 . S
H2056 C2066 0.930 . S
H2057 C2067 0.930 . S
C2058 H2052 0.930 . S
C2058 C2059 1.355 . S
C2058 C2060 1.415 . S
C2059 C2058 1.355 . S
C2059 C2061 1.419 . S
C2060 C2058 1.415 . S
C2060 C2065 1.425 . S
C2060 C2067 1.409 . S
C2061 H2053 0.930 . S
C2061 C2059 1.419 . S
C2061 C2062 1.362 . S
C2062 H2054 0.930 . S
C2062 C2061 1.362 . S
C2062 C2065 1.409 . S
C2063 H2055 0.930 . S
C2063 C2064 1.355 . S
C2063 C2065 1.415 . S
C2064 C2063 1.355 . S
C2064 C2066 1.419 . S
C2065 C2060 1.425 . S
C2065 C2062 1.409 . S
C2065 C2063 1.415 . S
C2066 H2056 0.930 . S
C2066 C2064 1.419 . S
C2066 C2067 1.362 . S
C2067 H2057 0.930 . S
C2067 C2060 1.409 . S
C2067 C2066 1.362 . S
H2068 C2074 0.930 . S
H2069 C2077 0.930 . S
H2070 C2078 0.930 . S
H2071 C2079 0.930 . S
H2072 C2082 0.930 . S
H2073 C2083 0.930 . S
C2074 H2068 0.930 . S
C2074 C2075 1.355 . S
C2074 C2076 1.415 . S
C2075 C2074 1.355 . S
C2075 C2077 1.419 . S
C2076 C2074 1.415 . S
C2076 C2081 1.425 . S
C2076 C2083 1.409 . S
C2077 H2069 0.930 . S
C2077 C2075 1.419 . S
C2077 C2078 1.362 . S
C2078 H2070 0.930 . S
C2078 C2077 1.362 . S
C2078 C2081 1.409 . S
C2079 H2071 0.930 . S
C2079 C2080 1.355 . S
C2079 C2081 1.415 . S
C2080 C2079 1.355 . S
C2080 C2082 1.419 . S
C2081 C2076 1.425 . S
C2081 C2078 1.409 . S
C2081 C2079 1.415 . S
C2082 H2072 0.930 . S
C2082 C2080 1.419 . S
C2082 C2083 1.362 . S
C2083 H2073 0.930 . S
C2083 C2076 1.409 . S
C2083 C2082 1.362 . S
H2084 C2090 0.930 . S
H2085 C2093 0.930 . S
H2086 C2094 0.930 . S
H2087 C2095 0.930 . S
H2088 C2098 0.930 . S
H2089 C2099 0.930 . S
C2090 H2084 0.930 . S
C2090 C2091 1.355 . S
C2090 C2092 1.415 . S
C2091 C2090 1.355 . S
C2091 C2093 1.419 . S
C2092 C2090 1.415 . S
C2092 C2097 1.425 . S
C2092 C2099 1.409 . S
C2093 H2085 0.930 . S
C2093 C2091 1.419 . S
C2093 C2094 1.362 . S
C2094 H2086 0.930 . S
C2094 C2093 1.362 . S
C2094 C2097 1.409 . S
C2095 H2087 0.930 . S
C2095 C2096 1.355 . S
C2095 C2097 1.415 . S
C2096 C2095 1.355 . S
C2096 C2098 1.419 . S
C2097 C2092 1.425 . S
C2097 C2094 1.409 . S
C2097 C2095 1.415 . S
C2098 H2088 0.930 . S
C2098 C2096 1.419 . S
C2098 C2099 1.362 . S
C2099 H2089 0.930 . S
C2099 C2092 1.409 . S
C2099 C2098 1.362 . S
H2100 C2106 0.930 . S
H2101 C2109 0.930 . S
H2102 C2110 0.930 . S
H2103 C2111 0.930 . S
H2104 C2114 0.930 . S
H2105 C2115 0.930 . S
C2106 H2100 0.930 . S
C2106 C2107 1.355 . S
C2106 C2108 1.415 . S
C2107 C2106 1.355 . S
C2107 C2109 1.419 . S
C2108 C2106 1.415 . S
C2108 C2113 1.425 . S
C2108 C2115 1.409 . S
C2109 H2101 0.930 . S
C2109 C2107 1.419 . S
C2109 C2110 1.362 . S
C2110 H2102 0.930 . S
C2110 C2109 1.362 . S
C2110 C2113 1.409 . S
C2111 H2103 0.930 . S
C2111 C2112 1.355 . S
C2111 C2113 1.415 . S
C2112 C2111 1.355 . S
C2112 C2114 1.419 . S
C2113 C2108 1.425 . S
C2113 C2110 1.409 . S
C2113 C2111 1.415 . S
C2114 H2104 0.930 . S
C2114 C2112 1.419 . S
C2114 C2115 1.362 . S
C2115 H2105 0.930 . S
C2115 C2108 1.409 . S
C2115 C2114 1.362 . S
H2116 C2122 0.930 . S
H2117 C2125 0.930 . S
H2118 C2126 0.930 . S
H2119 C2127 0.930 . S
H2120 C2130 0.930 . S
H2121 C2131 0.930 . S
C2122 H2116 0.930 . S
C2122 C2123 1.355 . S
C2122 C2124 1.415 . S
C2123 C2122 1.355 . S
C2123 C2125 1.419 . S
C2124 C2122 1.415 . S
C2124 C2129 1.425 . S
C2124 C2131 1.409 . S
C2125 H2117 0.930 . S
C2125 C2123 1.419 . S
C2125 C2126 1.362 . S
C2126 H2118 0.930 . S
C2126 C2125 1.362 . S
C2126 C2129 1.409 . S
C2127 H2119 0.930 . S
C2127 C2128 1.355 . S
C2127 C2129 1.415 . S
C2128 C2127 1.355 . S
C2128 C2130 1.419 . S
C2129 C2124 1.425 . S
C2129 C2126 1.409 . S
C2129 C2127 1.415 . S
C2130 H2120 0.930 . S
C2130 C2128 1.419 . S
C2130 C2131 1.362 . S
C2131 H2121 0.930 . S
C2131 C2124 1.409 . S
C2131 C2130 1.362 . S
H2132 C2138 0.930 . S
H2133 C2141 0.930 . S
H2134 C2142 0.930 . S
H2135 C2143 0.930 . S
H2136 C2146 0.930 . S
H2137 C2147 0.930 . S
C2138 H2132 0.930 . S
C2138 C2139 1.355 . S
C2138 C2140 1.415 . S
C2139 C2138 1.355 . S
C2139 C2141 1.419 . S
C2140 C2138 1.415 . S
C2140 C2145 1.425 . S
C2140 C2147 1.409 . S
C2141 H2133 0.930 . S
C2141 C2139 1.419 . S
C2141 C2142 1.362 . S
C2142 H2134 0.930 . S
C2142 C2141 1.362 . S
C2142 C2145 1.409 . S
C2143 H2135 0.930 . S
C2143 C2144 1.355 . S
C2143 C2145 1.415 . S
C2144 C2143 1.355 . S
C2144 C2146 1.419 . S
C2145 C2140 1.425 . S
C2145 C2142 1.409 . S
C2145 C2143 1.415 . S
C2146 H2136 0.930 . S
C2146 C2144 1.419 . S
C2146 C2147 1.362 . S
C2147 H2137 0.930 . S
C2147 C2140 1.409 . S
C2147 C2146 1.362 . S
H2148 C2154 0.930 . S
H2149 C2157 0.930 . S
H2150 C2158 0.930 . S
H2151 C2159 0.930 . S
H2152 C2162 0.930 . S
H2153 C2163 0.930 . S
C2154 H2148 0.930 . S
C2154 C2155 1.355 . S
C2154 C2156 1.415 . S
C2155 C2154 1.355 . S
C2155 C2157 1.419 . S
C2156 C2154 1.415 . S
C2156 C2161 1.425 . S
C2156 C2163 1.409 . S
C2157 H2149 0.930 . S
C2157 C2155 1.419 . S
C2157 C2158 1.362 . S
C2158 H2150 0.930 . S
C2158 C2157 1.362 . S
C2158 C2161 1.409 . S
C2159 H2151 0.930 . S
C2159 C2160 1.355 . S
C2159 C2161 1.415 . S
C2160 C2159 1.355 . S
C2160 C2162 1.419 . S
C2161 C2156 1.425 . S
C2161 C2158 1.409 . S
C2161 C2159 1.415 . S
C2162 H2152 0.930 . S
C2162 C2160 1.419 . S
C2162 C2163 1.362 . S
C2163 H2153 0.930 . S
C2163 C2156 1.409 . S
C2163 C2162 1.362 . S
H2164 C2170 0.930 . S
H2165 C2173 0.930 . S
H2166 C2174 0.930 . S
H2167 C2175 0.930 . S
H2168 C2178 0.930 1_565 S
H2169 C2179 0.908 1_565 S
C2170 H2164 0.930 . S
C2170 C2171 1.355 . S
C2170 C2172 1.415 . S
C2171 C2170 1.355 . S
C2171 C2173 1.419 . S
C2172 C2170 1.415 . S
C2172 C2177 1.425 . S
C2172 C2179 1.409 . S
C2173 H2165 0.930 . S
C2173 C2171 1.419 . S
C2173 C2174 1.362 . S
C2174 H2166 0.930 . S
C2174 C2173 1.362 . S
C2174 C2177 1.409 . S
C2175 H2167 0.930 . S
C2175 C2176 1.355 . S
C2175 C2177 1.415 . S
C2176 C2175 1.355 . S
C2176 C2178 1.419 . S
C2177 C2172 1.425 . S
C2177 C2174 1.409 . S
C2177 C2175 1.415 . S
C2178 H2168 0.930 1_545 S
C2178 C2176 1.419 . S
C2178 C2179 1.362 . S
C2179 H2169 0.908 1_545 S
C2179 C2172 1.409 . S
C2179 C2178 1.362 . S
H2180 C2186 0.930 . S
H2181 C2189 0.930 . S
H2182 C2190 0.930 . S
H2183 C2191 0.930 . S
H2184 C2194 0.930 . S
H2185 C2195 0.930 . S
C2186 H2180 0.930 . S
C2186 C2187 1.355 . S
C2186 C2188 1.415 . S
C2187 C2186 1.355 . S
C2187 C2189 1.419 . S
C2188 C2186 1.415 . S
C2188 C2193 1.425 . S
C2188 C2195 1.409 . S
C2189 H2181 0.930 . S
C2189 C2187 1.419 . S
C2189 C2190 1.362 . S
C2190 H2182 0.930 . S
C2190 C2189 1.362 . S
C2190 C2193 1.409 . S
C2191 H2183 0.930 . S
C2191 C2192 1.355 . S
C2191 C2193 1.415 . S
C2192 C2191 1.355 . S
C2192 C2194 1.419 . S
C2193 C2188 1.425 . S
C2193 C2190 1.409 . S
C2193 C2191 1.415 . S
C2194 H2184 0.930 . S
C2194 C2192 1.419 . S
C2194 C2195 1.362 . S
C2195 H2185 0.930 . S
C2195 C2188 1.409 . S
C2195 C2194 1.362 . S
H2196 C2202 0.930 . S
H2197 C2205 0.930 . S
H2198 C2206 0.930 . S
H2199 C2207 0.930 . S
H2200 C2210 0.930 . S
H2201 C2211 0.930 . S
C2202 H2196 0.930 . S
C2202 C2203 1.355 . S
C2202 C2204 1.415 . S
C2203 C2202 1.355 . S
C2203 C2205 1.419 . S
C2204 C2202 1.415 . S
C2204 C2209 1.425 . S
C2204 C2211 1.409 . S
C2205 H2197 0.930 . S
C2205 C2203 1.419 . S
C2205 C2206 1.362 . S
C2206 H2198 0.930 . S
C2206 C2205 1.362 . S
C2206 C2209 1.409 . S
C2207 H2199 0.930 . S
C2207 C2208 1.355 . S
C2207 C2209 1.415 . S
C2208 C2207 1.355 . S
C2208 C2210 1.419 . S
C2209 C2204 1.425 . S
C2209 C2206 1.409 . S
C2209 C2207 1.415 . S
C2210 H2200 0.930 . S
C2210 C2208 1.419 . S
C2210 C2211 1.362 . S
C2211 H2201 0.930 . S
C2211 C2204 1.409 . S
C2211 C2210 1.362 . S
H2212 C2218 0.930 . S
H2213 C2221 0.930 . S
H2214 C2222 0.930 . S
H2215 C2223 0.930 . S
H2216 C2226 0.930 . S
H2217 C2227 0.930 . S
C2218 H2212 0.930 . S
C2218 C2219 1.355 . S
C2218 C2220 1.415 . S
C2219 C2218 1.355 . S
C2219 C2221 1.419 . S
C2220 C2218 1.415 . S
C2220 C2225 1.425 . S
C2220 C2227 1.409 . S
C2221 H2213 0.930 . S
C2221 C2219 1.419 . S
C2221 C2222 1.362 . S
C2222 H2214 0.930 . S
C2222 C2221 1.362 . S
C2222 C2225 1.409 . S
C2223 H2215 0.930 . S
C2223 C2224 1.355 . S
C2223 C2225 1.415 . S
C2224 C2223 1.355 . S
C2224 C2226 1.419 . S
C2225 C2220 1.425 . S
C2225 C2222 1.409 . S
C2225 C2223 1.415 . S
C2226 H2216 0.930 . S
C2226 C2224 1.419 . S
C2226 C2227 1.362 . S
C2227 H2217 0.930 . S
C2227 C2220 1.409 . S
C2227 C2226 1.362 . S
H2228 C2234 0.930 . S
H2229 C2237 0.930 . S
H2230 C2238 0.930 . S
H2231 C2239 0.930 . S
H2232 C2242 0.930 1_545 S
H2233 C2243 0.930 1_545 S
C2234 H2228 0.930 . S
C2234 C2235 1.355 . S
C2234 C2236 1.415 . S
C2235 C2234 1.355 . S
C2235 C2237 1.419 . S
C2236 C2234 1.415 . S
C2236 C2241 1.425 . S
C2236 C2243 1.409 . S
C2237 H2229 0.930 . S
C2237 C2235 1.419 . S
C2237 C2238 1.362 . S
C2238 H2230 0.930 . S
C2238 C2237 1.362 . S
C2238 C2241 1.409 . S
C2239 H2231 0.930 . S
C2239 C2240 1.355 . S
C2239 C2241 1.415 . S
C2240 C2239 1.355 . S
C2240 C2242 1.419 . S
C2241 C2236 1.425 . S
C2241 C2238 1.409 . S
C2241 C2239 1.415 . S
C2242 H2232 0.930 1_565 S
C2242 C2240 1.419 . S
C2242 C2243 1.362 . S
C2243 H2233 0.930 1_565 S
C2243 C2236 1.409 . S
C2243 C2242 1.362 . S
H2244 C2250 0.930 . S
H2245 C2253 0.930 . S
H2246 C2254 0.930 . S
H2247 C2255 0.930 . S
H2248 C2258 0.930 . S
H2249 C2259 0.930 . S
C2250 H2244 0.930 . S
C2250 C2251 1.355 . S
C2250 C2252 1.415 . S
C2251 C2250 1.355 . S
C2251 C2253 1.419 . S
C2252 C2250 1.415 . S
C2252 C2257 1.425 . S
C2252 C2259 1.409 . S
C2253 H2245 0.930 . S
C2253 C2251 1.419 . S
C2253 C2254 1.362 . S
C2254 H2246 0.930 . S
C2254 C2253 1.362 . S
C2254 C2257 1.409 . S
C2255 H2247 0.930 . S
C2255 C2256 1.355 . S
C2255 C2257 1.415 . S
C2256 C2255 1.355 . S
C2256 C2258 1.419 . S
C2257 C2252 1.425 . S
C2257 C2254 1.409 . S
C2257 C2255 1.415 . S
C2258 H2248 0.930 . S
C2258 C2256 1.419 . S
C2258 C2259 1.362 . S
C2259 H2249 0.930 . S
C2259 C2252 1.409 . S
C2259 C2258 1.362 . S
C736 C381 1.221 . S
C731 C241 1.244 . S
C752 C384 1.515 . S
C747 C272 1.614 . S
C768 C372 1.074 . S
C763 C249 1.162 . S
C779 C206 1.767 . S
C784 C385 1.661 . S
C800 C416 1.181 . S
C795 C125 1.235 . S
C811 C142 1.754 . S
C816 C443 1.611 . S
C832 C415 1.043 . S
C827 C169 1.100 . S
C843 C103 1.635 . S
C848 C434 1.508 . S
C859 C315 1.258 . S
C864 C447 1.225 . S
C875 C338 1.724 . S
C880 C478 1.616 1_545 S
C896 C536 1.204 . S
C891 C183 1.254 . S
C912 C558 1.522 . S
C907 C293 1.650 . S
C928 C446 1.014 . S
C923 C87 1.124 . S
C944 C477 1.551 1_545 S
C939 C21 1.656 . S
C955 C43 1.093 . S
C960 C527 1.055 . S
C971 C65 1.721 . S
C976 C567 1.570 . S
C987 C37 1.272 . S
C992 C505 1.251 . S
C1008 C571 1.264 . S
C1003 C197 1.288 . S
C1019 C307 1.771 . S
C1024 C602 1.666 . S
C1040 C651 1.127 . S
C1035 C329 1.124 . S
C1051 C150 1.764 . S
C1056 C509 1.616 1_655 S
C1072 C570 1.079 . S
C1067 C227 1.078 . S
C1088 C601 1.521 . S
C1083 C274 1.607 . S
C1104 C682 1.478 . S
C1099 C208 1.628 . S
C1115 C73 1.254 . S
C1120 C412 1.237 . S
C1131 C7 1.632 . S
C1136 C353 1.551 1_554 S
C1152 C403 1.090 . S
C1147 C29 1.159 . S
C1163 C51 1.759 . S
C1168 C354 1.627 1_554 S
C1179 C323 1.282 . S
C1184 C695 1.154 . S
C1195 C340 1.774 . S
C1200 C722 1.638 1_556 S
C1216 C694 1.059 . S
C1211 C191 1.109 . S
C1227 C301 1.628 . S
C1232 C713 1.508 1_556 S
C1243 C117 1.252 . S
C1248 C629 1.230 . S
C1264 C633 1.590 . S
C1259 C140 1.710 . S
C1280 C664 1.245 . S
C1275 C161 1.284 . S
C1296 C589 1.619 1_565 S
C1291 C95 1.708 . S
C1312 C620 1.079 . S
C1307 C235 1.098 . S
C1323 C282 1.646 . S
C1328 C632 1.522 . S
C1339 C263 1.133 . S
C1344 C663 1.033 . S
C1360 C598 1.602 . S
C1355 C216 1.721 . S
C1371 C257 1.256 . S
C1376 C660 1.182 . S
C1392 C540 1.260 . S
C1387 C175 1.285 . S
C1403 C109 1.773 . S
C1408 C474 1.676 1_455 S
C1419 C131 1.141 . S
C1424 C496 1.071 . S
C1435 C348 1.760 . S
C1440 C691 1.642 . S
C1451 C81 1.122 . S
C1456 C539 1.053 . S
C1467 C15 1.622 . S
C1472 C465 1.519 1_455 S
C1488 C508 1.596 1_655 S
C1483 C59 1.687 . S
C1504 C352 1.535 . S
C1499 C351 1.479 . S
C1520 C402 1.913 . S
C1515 C194 1.853 . S
C1536 C362 1.287 . S
C1531 C304 1.357 . S
C1552 C413 1.767 . S
C1547 C326 1.763 1_565 S
C1568 C433 1.504 . S
C1563 C205 1.431 . S
C1579 C230 1.770 . S
C1584 C424 1.726 . S
C1595 C271 1.425 . S
C1600 C444 1.407 . S
C1611 C250 1.828 1_565 S
C1616 C414 1.857 . S
C1632 C464 1.480 . S
C1627 C62 1.473 . S
C1648 C506 1.757 . S
C1643 C84 1.753 . S
C1659 C18 1.461 . S
C1664 C507 1.470 . S
C1680 C538 1.858 . S
C1675 C40 1.809 . S
C1691 C147 1.418 . S
C1696 C475 1.372 . S
C1712 C495 1.855 . S
C1707 C164 1.872 1_455 S
C1728 C517 1.396 . S
C1723 C98 1.440 . S
C1739 C120 1.800 1_655 S
C1744 C548 1.773 . S
C1760 C476 1.451 . S
C1755 C96 1.393 . S
C1771 C10 1.365 . S
C1776 C588 1.405 . S
C1787 C32 1.721 1_556 S
C1792 C630 1.697 . S
C1803 C54 1.425 . S
C1808 C641 1.359 . S
C1824 C537 1.737 . S
C1819 C238 1.775 . S
C1840 C599 1.428 . S
C1835 C337 1.459 . S
C1851 C184 1.838 . S
C1856 C619 1.857 . S
C1872 C662 1.888 . S
C1867 C316 1.851 . S
C1888 C383 1.547 . S
C1883 C153 1.458 . S
C1899 C172 1.886 1_545 S
C1904 C371 1.889 . S
C1915 C106 1.391 . S
C1920 C393 1.335 . S
C1931 C128 1.748 . S
C1936 C382 1.751 . S
C1952 C712 1.466 . S
C1947 C52 1.402 . S
C1968 C703 1.721 . S
C1963 C74 1.768 1_545 S
C1979 C8 1.350 . S
C1984 C723 1.289 . S
C1995 C30 1.852 . S
C2000 C693 1.839 . S
C2011 C219 1.513 . S
C2016 C600 1.536 . S
C2032 C661 1.686 . S
C2027 C228 1.721 1_655 S
C2048 C681 1.505 . S
C2043 C285 1.404 . S
C2059 C260 1.838 1_455 S
C2064 C569 1.824 . S
C2080 C610 1.354 . S
C2075 C345 1.403 . S
C2091 C186 1.875 . S
C2096 C650 1.892 . S
C2112 C692 1.295 . S
C2107 C296 1.366 . S
C2123 C318 1.768 . S
C2128 C579 1.749 . S
C2139 C294 1.350 . S
C2144 C631 1.417 . S
C2155 C279 1.411 . S
C2160 C557 1.457 . S
C2176 C455 1.730 . S
C2171 C252 1.773 . S
C2187 C213 1.430 . S
C2192 C486 1.384 . S
C2203 C76 1.767 1_556 S
C2208 C672 1.721 . S
C2219 C139 1.462 . S
C2224 C568 1.430 . S
C2240 C445 1.826 . S
C2235 C162 1.831 1_554 S
C2251 C118 1.846 1_554 S
C2256 C526 1.853 . S
