# Generated by pormake.
# Topology bcu-b, (8,8)-cn, num edge types: 1
# Building blocks:
#     Node 0, Type 0, BuildingBlock: TAGTUT_clean_sbu_3, # of connection points: 8
#     Node 1, Type 1, BuildingBlock: GIZVER_clean_sbu_0, # of connection points: 8
#     Edge 2, Type (0, 1), BuildingBlock: XUDNAN_clean_linker_2, # of connection points: 2
#     Edge 3, Type (0, 1), BuildingBlock: XUDNAN_clean_linker_2, # of connection points: 2
#     Edge 4, Type (0, 1), BuildingBlock: XUDNAN_clean_linker_2, # of connection points: 2
#     Edge 5, Type (0, 1), BuildingBlock: XUDNAN_clean_linker_2, # of connection points: 2
#     Edge 6, Type (0, 1), BuildingBlock: XUDNAN_clean_linker_2, # of connection points: 2
#     Edge 7, Type (0, 1), BuildingBlock: XUDNAN_clean_linker_2, # of connection points: 2
#     Edge 8, Type (0, 1), BuildingBlock: XUDNAN_clean_linker_2, # of connection points: 2
#     Edge 9, Type (0, 1), BuildingBlock: XUDNAN_clean_linker_2, # of connection points: 2
# Relax obj value: 0.089
# Max RMSD: 0.158
# Mean RMSD: 0.156
data_MOF--net-bcu-b--node1-TAGTUT_clean_sbu_3--node2-GIZVER_clean_sbu_0--edge1-XUDNAN_clean_linker_2
_symmetry_space_group_name_H-M    P1
_symmetry_Int_Tables_number       1
_symmetry_cell_setting            triclinic
loop_
_symmetry_equiv_pos_as_xyz
'x, y, z'
_cell_length_a     20.575817
_cell_length_b     22.630974
_cell_length_c     17.614938
_cell_angle_alpha  89.940213
_cell_angle_beta   89.563557
_cell_angle_gamma 108.00291
loop_
_atom_site_label
_atom_site_type_symbol
_atom_site_fract_x
_atom_site_fract_y
_atom_site_fract_z
_atom_type_partial_charge
C0 C 0.11211 0.11629 0.09763 0.0
C1 C 0.21355 0.92809 0.08681 0.0
C2 C 0.15064 0.91441 0.85214 0.0
Mg3 Mg 0.98187 0.13517 0.00373 0.0
Mg4 Mg 0.85452 0.00931 0.97883 0.0
O5 O 0.94632 0.0512 0.95632 0.0
Mg6 Mg 0.01343 0.00964 0.99034 0.0
O7 O 0.08615 0.97432 0.02437 0.0
Mg8 Mg 0.17142 0.03323 0.97883 0.0
Mg9 Mg 0.07514 0.89158 0.00121 0.0
C10 C 0.90075 0.90635 0.89081 0.0
O11 O 0.93758 0.93814 0.07201 0.0
O12 O 0.90367 0.16129 0.9233 0.0
O13 O 0.97411 0.85546 0.04645 0.0
O14 O 0.90056 0.11648 0.09818 0.0
O15 O 0.81938 0.07041 0.91116 0.0
O16 O 0.82395 0.02295 0.09443 0.0
O17 O 0.09671 0.07262 0.91168 0.0
O18 O 0.06531 0.15834 0.91143 0.0
C19 C 0.10588 0.12866 0.88999 0.0
C20 C 0.84601 0.12812 0.89549 0.0
O21 O 0.96515 0.93342 0.90118 0.0
O22 O 0.23126 0.98327 0.05788 0.0
O23 O 0.8535 0.92351 0.92369 0.0
O24 O 0.17981 0.96829 0.8796 0.0
O25 O 0.15687 0.88699 0.07101 0.0
O26 O 0.10024 0.87624 0.88627 0.0
O27 O 0.0508 0.08972 0.07575 0.0
O28 O 0.16255 0.09974 0.07297 0.0
C29 C 0.84827 0.07587 0.12611 0.0
C30 C 0.93195 0.8798 0.07763 0.0
Co31 Co 0.55235 0.37544 0.44625 0.0
Co32 Co 0.5978 0.44514 0.56373 0.0
Co33 Co 0.50934 0.50806 0.48138 0.0
O34 O 0.57744 0.46292 0.46705 0.0
H35 H 0.61847 0.48695 0.44058 0.0
O36 O 0.44161 0.5543 0.49266 0.0
Co37 Co 0.46507 0.63914 0.52705 0.0
Co38 Co 0.42701 0.58515 0.39738 0.0
H39 H 0.3989 0.5285 0.51411 0.0
O40 O 0.67765 0.43142 0.58323 0.0
O41 O 0.57623 0.36031 0.55317 0.0
O42 O 0.54399 0.45899 0.6478 0.0
O43 O 0.45988 0.4538 0.56877 0.0
O44 O 0.57291 0.56466 0.55313 0.0
O45 O 0.47691 0.71578 0.56119 0.0
O46 O 0.37856 0.63715 0.55058 0.0
O47 O 0.56028 0.65229 0.51003 0.0
O48 O 0.55954 0.56158 0.39571 0.0
O49 O 0.48664 0.58064 0.31417 0.0
O50 O 0.45565 0.66849 0.42248 0.0
O51 O 0.35301 0.61287 0.37698 0.0
C52 C 0.60123 0.31392 0.40673 0.0
C53 C 0.42477 0.39145 0.4268 0.0
C54 C 0.48067 0.44381 0.63423 0.0
C55 C 0.63881 0.37403 0.57877 0.0
C56 C 0.41074 0.69456 0.56904 0.0
C57 C 0.59435 0.62345 0.5467 0.0
C58 C 0.54612 0.58017 0.3311 0.0
C59 C 0.39781 0.66619 0.39139 0.0
O60 O 0.53662 0.29556 0.42453 0.0
O61 O 0.63624 0.37261 0.41483 0.0
O62 O 0.44675 0.44935 0.41105 0.0
O63 O 0.45837 0.36622 0.4702 0.0
H64 H 0.19435 0.23429 0.08535 0.0
H65 H 0.06898 0.10061 0.24434 0.0
H66 H 0.12609 0.1667 0.3515 0.0
H67 H 0.34046 0.26313 0.17431 0.0
H68 H 0.37438 0.34544 0.15638 0.0
H69 H 0.31285 0.29711 0.09286 0.0
H70 H 0.23287 0.36455 0.11243 0.0
H71 H 0.29508 0.41452 0.17476 0.0
H72 H 0.20836 0.37946 0.20723 0.0
H73 H 0.21761 0.23131 0.43743 0.0
H74 H 0.32334 0.29935 0.49644 0.0
H75 H 0.38263 0.39619 0.28253 0.0
C76 C 0.17639 0.22105 0.14275 0.0
C77 C 0.1267 0.16347 0.15727 0.0
C78 C 0.10578 0.14562 0.23264 0.0
C79 C 0.13831 0.18266 0.29366 0.0
C80 C 0.19021 0.23785 0.27771 0.0
C81 C 0.20743 0.25809 0.2039 0.0
C82 C 0.26944 0.31544 0.20142 0.0
C83 C 0.32766 0.30455 0.15345 0.0
C84 C 0.25027 0.37184 0.17225 0.0
C85 C 0.28724 0.32196 0.28471 0.0
C86 C 0.24095 0.27696 0.32806 0.0
C87 C 0.25266 0.2682 0.40464 0.0
C88 C 0.31292 0.30653 0.43754 0.0
C89 C 0.35988 0.35339 0.39407 0.0
C90 C 0.3462 0.3618 0.3173 0.0
H91 H 0.87571 0.1924 0.18671 0.0
H92 H 0.7308 0.0067 0.20104 0.0
H93 H 0.65683 0.04668 0.28471 0.0
H94 H 0.8496 0.24423 0.38161 0.0
H95 H 0.85724 0.32168 0.34922 0.0
H96 H 0.90325 0.27658 0.30089 0.0
H97 H 0.84767 0.29226 0.17413 0.0
H98 H 0.80086 0.33662 0.22203 0.0
H99 H 0.75582 0.26921 0.16758 0.0
H100 H 0.59289 0.10929 0.35448 0.0
H101 H 0.54464 0.18779 0.40639 0.0
H102 H 0.73016 0.33381 0.34363 0.0
C103 C 0.82946 0.15946 0.20911 0.0
C104 C 0.80957 0.09598 0.18757 0.0
C105 C 0.74769 0.05522 0.21714 0.0
C106 C 0.70525 0.07764 0.26463 0.0
C107 C 0.72537 0.14092 0.28219 0.0
C108 C 0.78635 0.18114 0.25577 0.0
C109 C 0.79361 0.24789 0.27717 0.0
C110 C 0.85455 0.27413 0.3304 0.0
C111 C 0.79983 0.28887 0.20599 0.0
C112 C 0.72637 0.23933 0.31838 0.0
C113 C 0.68811 0.17717 0.32129 0.0
C114 C 0.6228 0.15792 0.35317 0.0
C115 C 0.59571 0.20312 0.38226 0.0
C116 C 0.63348 0.26726 0.37918 0.0
C117 C 0.70013 0.28528 0.3475 0.0
H118 H 0.79332 0.86807 0.09773 0.0
H119 H 0.95481 0.79388 0.16795 0.0
H120 H 0.8706 0.70538 0.22827 0.0
H121 H 0.6913 0.81931 0.27663 0.0
H122 H 0.61057 0.80139 0.22848 0.0
H123 H 0.68386 0.8612 0.1917 0.0
H124 H 0.66785 0.80456 0.06218 0.0
H125 H 0.59572 0.74369 0.09936 0.0
H126 H 0.66725 0.72478 0.05814 0.0
H127 H 0.7734 0.62094 0.26882 0.0
H128 H 0.66461 0.55352 0.32042 0.0
H129 H 0.56129 0.68106 0.23627 0.0
C130 C 0.81062 0.8339 0.12756 0.0
C131 C 0.88038 0.83712 0.127 0.0
C132 C 0.90143 0.79164 0.16649 0.0
C133 C 0.85406 0.74095 0.20068 0.0
C134 C 0.78561 0.7368 0.19653 0.0
C135 C 0.76348 0.78269 0.16379 0.0
C136 C 0.68623 0.76638 0.17139 0.0
C137 C 0.66685 0.81495 0.21995 0.0
C138 C 0.65228 0.75945 0.09308 0.0
C139 C 0.66938 0.70406 0.21224 0.0
C140 C 0.72788 0.68795 0.22452 0.0
C141 C 0.72703 0.63309 0.26062 0.0
C142 C 0.66499 0.59493 0.28925 0.0
C143 C 0.60482 0.61213 0.28242 0.0
C144 C 0.60644 0.66637 0.24116 0.0
H145 H 0.16939 0.83874 0.19335 0.0
H146 H 0.35385 0.97507 0.10877 0.0
H147 H 0.42261 0.9322 0.19621 0.0
H148 H 0.2258 0.83104 0.39254 0.0
H149 H 0.18249 0.74866 0.39704 0.0
H150 H 0.14874 0.79789 0.33914 0.0
H151 H 0.15102 0.7292 0.22191 0.0
H152 H 0.1847 0.68005 0.27916 0.0
H153 H 0.23008 0.71603 0.1948 0.0
H154 H 0.47069 0.86364 0.28153 0.0
H155 H 0.49299 0.77573 0.34878 0.0
H156 H 0.27503 0.68481 0.37136 0.0
C157 C 0.22424 0.86057 0.1938 0.0
C158 C 0.25644 0.90996 0.14382 0.0
C159 C 0.32819 0.9373 0.14681 0.0
C160 C 0.36744 0.9133 0.1964 0.0
C161 C 0.33378 0.86288 0.24314 0.0
C162 C 0.26352 0.83739 0.24237 0.0
C163 C 0.23909 0.77964 0.29104 0.0
C164 C 0.19652 0.78996 0.35897 0.0
C165 C 0.19893 0.72293 0.24389 0.0
C166 C 0.30676 0.77423 0.31656 0.0
C167 C 0.36095 0.82339 0.29036 0.0
C168 C 0.42852 0.82562 0.30316 0.0
C169 C 0.44071 0.77558 0.34153 0.0
C170 C 0.38554 0.72362 0.36495 0.0
C171 C 0.31803 0.72406 0.35415 0.0
H172 H 0.12996 0.79438 0.80423 0.0
H173 H 0.24877 0.98556 0.75572 0.0
H174 H 0.32074 0.949 0.66653 0.0
H175 H 0.26432 0.73682 0.81277 0.0
H176 H 0.22351 0.66308 0.76835 0.0
H177 H 0.17268 0.70316 0.81724 0.0
H178 H 0.10149 0.70103 0.69603 0.0
H179 H 0.1514 0.65984 0.64695 0.0
H180 H 0.14445 0.73134 0.60814 0.0
H181 H 0.39118 0.89279 0.60045 0.0
H182 H 0.45054 0.82028 0.55391 0.0
H183 H 0.28597 0.6647 0.64219 0.0
C184 C 0.16941 0.82865 0.77268 0.0
C185 C 0.18337 0.89296 0.7868 0.0
C186 C 0.23676 0.93613 0.74573 0.0
C187 C 0.278 0.91579 0.69485 0.0
C188 C 0.26491 0.8521 0.68497 0.0
C189 C 0.21123 0.80907 0.72171 0.0
C190 C 0.21214 0.74331 0.70635 0.0
C191 C 0.21857 0.70966 0.78059 0.0
C192 C 0.14859 0.70672 0.6617 0.0
C193 C 0.27632 0.75627 0.65795 0.0
C194 C 0.30556 0.81935 0.6458 0.0
C195 C 0.36806 0.84325 0.60827 0.0
C196 C 0.40167 0.80172 0.58262 0.0
C197 C 0.37275 0.73692 0.59434 0.0
C198 C 0.30872 0.71395 0.6315 0.0
H199 H 0.12077 0.21514 0.77787 0.0
H200 H 0.23562 0.12689 0.91955 0.0
H201 H 0.34331 0.20058 0.87243 0.0
H202 H 0.24259 0.24619 0.61595 0.0
H203 H 0.22867 0.31908 0.59376 0.0
H204 H 0.16098 0.25696 0.63609 0.0
H205 H 0.15097 0.33111 0.74451 0.0
H206 H 0.21979 0.39296 0.70349 0.0
H207 H 0.22516 0.36917 0.80033 0.0
H208 H 0.43736 0.29028 0.82068 0.0
H209 H 0.5142 0.37811 0.74953 0.0
H210 H 0.33971 0.40536 0.63405 0.0
C211 C 0.16875 0.21057 0.79755 0.0
C212 C 0.16991 0.1648 0.85177 0.0
C213 C 0.2334 0.16045 0.87689 0.0
C214 C 0.2949 0.20272 0.8511 0.0
C215 C 0.29193 0.24839 0.79931 0.0
C216 C 0.23066 0.2516 0.77114 0.0
C217 C 0.24194 0.30477 0.71497 0.0
C218 C 0.21709 0.28028 0.63548 0.0
C219 C 0.20741 0.3523 0.74251 0.0
C220 C 0.31911 0.33163 0.71711 0.0
C221 C 0.34669 0.29884 0.76697 0.0
C222 C 0.4165 0.31586 0.78076 0.0
C223 C 0.45968 0.36637 0.7405 0.0
C224 C 0.43309 0.39888 0.68608 0.0
C225 C 0.36162 0.38164 0.6753 0.0
H226 H 0.8797 0.24897 0.84162 0.0
H227 H 0.72722 0.06706 0.82401 0.0
H228 H 0.66434 0.10813 0.73118 0.0
H229 H 0.76333 0.33536 0.83369 0.0
H230 H 0.81822 0.39803 0.77772 0.0
H231 H 0.85488 0.35332 0.8389 0.0
H232 H 0.92136 0.32805 0.72413 0.0
H233 H 0.8843 0.37236 0.66249 0.0
H234 H 0.87521 0.29238 0.64093 0.0
H235 H 0.61335 0.16867 0.64602 0.0
H236 H 0.57527 0.24803 0.57921 0.0
H237 H 0.76013 0.38998 0.65036 0.0
C238 C 0.83338 0.21776 0.81791 0.0
C239 C 0.80878 0.15483 0.84043 0.0
C240 C 0.74753 0.11557 0.80811 0.0
C241 C 0.71135 0.13823 0.75474 0.0
C242 C 0.7369 0.20025 0.73372 0.0
C243 C 0.7963 0.23962 0.76427 0.0
C244 C 0.81017 0.30517 0.73475 0.0
C245 C 0.8117 0.35062 0.80016 0.0
C246 C 0.87671 0.32567 0.68778 0.0
C247 C 0.74826 0.29648 0.68491 0.0
C248 C 0.70715 0.23545 0.68421 0.0
C249 C 0.64533 0.21666 0.64542 0.0
C250 C 0.62408 0.26198 0.60775 0.0
C251 C 0.66456 0.32509 0.60971 0.0
C252 C 0.72813 0.34204 0.64731 0.0
H253 H 0.81605 0.9115 0.77884 0.0
H254 H 0.93112 0.79672 0.86938 0.0
H255 H 0.87357 0.71309 0.77823 0.0
H256 H 0.66319 0.79808 0.76247 0.0
H257 H 0.63769 0.82677 0.67579 0.0
H258 H 0.69544 0.87959 0.73902 0.0
H259 H 0.78434 0.91586 0.63003 0.0
H260 H 0.72649 0.86342 0.56597 0.0
H261 H 0.81187 0.85921 0.57793 0.0
H262 H 0.78881 0.63732 0.69051 0.0
H263 H 0.6916 0.57916 0.61084 0.0
H264 H 0.63684 0.74765 0.57693 0.0
C265 C 0.83041 0.86927 0.77805 0.0
C266 C 0.87773 0.86002 0.83047 0.0
C267 C 0.89532 0.80446 0.82874 0.0
C268 C 0.86279 0.75695 0.7774 0.0
C269 C 0.81427 0.76687 0.72783 0.0
C270 C 0.79927 0.82233 0.72711 0.0
C271 C 0.74211 0.82072 0.67305 0.0
C272 C 0.68104 0.83192 0.71513 0.0
C273 C 0.76776 0.86757 0.60787 0.0
C274 C 0.72502 0.75476 0.64512 0.0
C275 C 0.76725 0.72431 0.67673 0.0
C276 C 0.75657 0.6612 0.66425 0.0
C277 C 0.70105 0.62848 0.61915 0.0
C278 C 0.65697 0.65902 0.58711 0.0
C279 C 0.6703 0.72318 0.5993 0.0
loop_
_geom_bond_atom_site_label_1
_geom_bond_atom_site_label_2
_geom_bond_distance
_geom_bond_site_symmetry_2
_ccdc_geom_bond_type
C0 O27 1.312 . S
C0 O28 1.208 . S
C1 O22 1.331 . S
C1 O25 1.244 . S
C2 O24 1.264 . S
C2 O26 1.273 . S
Mg3 O5 1.936 . S
Mg3 O12 2.081 . S
Mg3 O14 2.023 1_556 S
Mg3 O18 2.031 1_655 S
Mg3 O27 2.291 1_656 S
Mg4 O5 1.963 . S
Mg4 O15 1.942 . S
Mg4 O16 1.955 1_556 S
Mg4 O23 1.986 1_545 S
O5 Mg3 1.936 . S
O5 Mg4 1.963 . S
O5 Mg6 1.913 1_556 S
Mg6 O5 1.913 1_554 S
Mg6 O7 1.917 1_645 S
Mg6 O11 2.019 1_545 S
Mg6 O17 2.109 1_654 S
Mg6 O21 2.006 1_544 S
Mg6 O27 2.119 1_655 S
O7 Mg6 1.917 1_465 S
O7 Mg8 1.936 1_565 S
O7 Mg9 1.963 . S
Mg8 O7 1.936 1_545 S
Mg8 O17 2.291 1_554 S
Mg8 O22 2.081 1_545 S
Mg8 O24 2.023 1_544 S
Mg8 O28 2.031 . S
Mg9 O7 1.963 . S
Mg9 O13 1.986 1_455 S
Mg9 O25 1.942 . S
Mg9 O26 1.955 1_554 S
C10 O21 1.191 . S
C10 O23 1.307 . S
O11 Mg6 2.019 1_565 S
O11 C30 1.191 . S
O12 Mg3 2.081 . S
O12 C20 1.331 . S
O13 Mg9 1.986 1_655 S
O13 C30 1.307 . S
O14 Mg3 2.023 1_554 S
O14 C29 1.264 . S
O15 Mg4 1.942 . S
O15 C20 1.244 . S
O16 Mg4 1.955 1_554 S
O16 C29 1.273 . S
O17 Mg6 2.109 1_456 S
O17 Mg8 2.291 1_556 S
O17 C19 1.312 . S
O18 Mg3 2.031 1_455 S
O18 C19 1.208 . S
C19 O17 1.312 . S
C19 O18 1.208 . S
C20 O12 1.331 . S
C20 O15 1.244 . S
O21 Mg6 2.006 1_566 S
O21 C10 1.191 . S
O22 C1 1.331 . S
O22 Mg8 2.081 1_565 S
O23 Mg4 1.986 1_565 S
O23 C10 1.307 . S
O24 C2 1.264 . S
O24 Mg8 2.023 1_566 S
O25 C1 1.244 . S
O25 Mg9 1.942 . S
O26 C2 1.273 . S
O26 Mg9 1.955 1_556 S
O27 C0 1.312 . S
O27 Mg3 2.291 1_454 S
O27 Mg6 2.119 1_455 S
O28 C0 1.208 . S
O28 Mg8 2.031 . S
C29 O14 1.264 . S
C29 O16 1.273 . S
C30 O11 1.191 . S
C30 O13 1.307 . S
Co31 O34 2.042 . S
Co31 O41 2.264 . S
Co31 O60 2.286 . S
Co31 O61 2.069 . S
Co31 O63 2.015 . S
Co32 O34 2.122 . S
Co32 O40 2.073 . S
Co32 O41 2.327 . S
Co32 O42 1.976 . S
Co33 O34 2.087 . S
Co33 O36 2.087 . S
Co33 O43 2.111 . S
Co33 O44 2.143 . S
Co33 O48 2.111 . S
Co33 O62 2.143 . S
O34 Co31 2.042 . S
O34 Co32 2.122 . S
O34 Co33 2.087 . S
O34 H35 0.980 . S
H35 O34 0.980 . S
O36 Co33 2.087 . S
O36 Co37 2.042 . S
O36 Co38 2.122 . S
O36 H39 0.980 . S
Co37 O36 2.042 . S
Co37 O45 2.286 . S
Co37 O46 2.069 . S
Co37 O47 2.015 . S
Co37 O50 2.264 . S
Co38 O36 2.122 . S
Co38 O49 1.976 . S
Co38 O50 2.327 . S
Co38 O51 2.073 . S
H39 O36 0.980 . S
O40 Co32 2.073 . S
O40 C55 1.245 . S
O41 Co31 2.264 . S
O41 Co32 2.327 . S
O41 C55 1.257 . S
O42 Co32 1.976 . S
O42 C54 1.251 . S
O43 Co33 2.111 . S
O43 C54 1.274 . S
O44 Co33 2.143 . S
O44 C57 1.246 . S
O45 Co37 2.286 . S
O45 C56 1.259 . S
O46 Co37 2.069 . S
O46 C56 1.289 . S
O47 Co37 2.015 . S
O47 C57 1.257 . S
O48 Co33 2.111 . S
O48 C58 1.274 . S
O49 Co38 1.976 . S
O49 C58 1.251 . S
O50 Co37 2.264 . S
O50 Co38 2.327 . S
O50 C59 1.257 . S
O51 Co38 2.073 . S
O51 C59 1.245 . S
C52 O60 1.259 . S
C52 O61 1.289 . S
C53 O62 1.246 . S
C53 O63 1.257 . S
C54 O42 1.251 . S
C54 O43 1.274 . S
C55 O40 1.245 . S
C55 O41 1.257 . S
C56 O45 1.259 . S
C56 O46 1.289 . S
C57 O44 1.246 . S
C57 O47 1.257 . S
C58 O48 1.274 . S
C58 O49 1.251 . S
C59 O50 1.257 . S
C59 O51 1.245 . S
O60 Co31 2.286 . S
O60 C52 1.259 . S
O61 Co31 2.069 . S
O61 C52 1.289 . S
O62 Co33 2.143 . S
O62 C53 1.246 . S
O63 Co31 2.015 . S
O63 C53 1.257 . S
H64 C76 0.930 . S
H65 C78 0.930 . S
H66 C79 0.930 . S
H67 C83 0.959 . S
H68 C83 0.959 . S
H69 C83 0.961 . S
H70 C84 0.960 . S
H71 C84 0.961 . S
H72 C84 0.959 . S
H73 C87 0.929 . S
H74 C88 0.931 . S
H75 C90 0.930 . S
C76 H64 0.930 . S
C76 C77 1.399 . S
C76 C81 1.399 . S
C77 C76 1.399 . S
C77 C78 1.376 . S
C78 H65 0.930 . S
C78 C77 1.376 . S
C78 C79 1.388 . S
C79 H66 0.930 . S
C79 C78 1.388 . S
C79 C80 1.390 . S
C80 C79 1.390 . S
C80 C81 1.394 . S
C80 C86 1.465 . S
C81 C76 1.399 . S
C81 C80 1.394 . S
C81 C82 1.516 . S
C82 C81 1.516 . S
C82 C83 1.502 . S
C82 C84 1.561 . S
C82 C85 1.526 . S
C83 H67 0.959 . S
C83 H68 0.959 . S
C83 H69 0.961 . S
C83 C82 1.502 . S
C84 H70 0.960 . S
C84 H71 0.961 . S
C84 H72 0.959 . S
C84 C82 1.561 . S
C85 C82 1.526 . S
C85 C86 1.396 . S
C85 C90 1.390 . S
C86 C80 1.465 . S
C86 C85 1.396 . S
C86 C87 1.399 . S
C87 H73 0.929 . S
C87 C86 1.399 . S
C87 C88 1.385 . S
C88 H74 0.931 . S
C88 C87 1.385 . S
C88 C89 1.389 . S
C89 C88 1.389 . S
C89 C90 1.387 . S
C90 H75 0.930 . S
C90 C85 1.390 . S
C90 C89 1.387 . S
H91 C103 0.930 . S
H92 C105 0.930 . S
H93 C106 0.930 . S
H94 C110 0.959 . S
H95 C110 0.959 . S
H96 C110 0.961 . S
H97 C111 0.960 . S
H98 C111 0.961 . S
H99 C111 0.959 . S
H100 C114 0.929 . S
H101 C115 0.931 . S
H102 C117 0.930 . S
C103 H91 0.930 . S
C103 C104 1.399 . S
C103 C108 1.399 . S
C104 C103 1.399 . S
C104 C105 1.376 . S
C105 H92 0.930 . S
C105 C104 1.376 . S
C105 C106 1.388 . S
C106 H93 0.930 . S
C106 C105 1.388 . S
C106 C107 1.390 . S
C107 C106 1.390 . S
C107 C108 1.394 . S
C107 C113 1.465 . S
C108 C103 1.399 . S
C108 C107 1.394 . S
C108 C109 1.516 . S
C109 C108 1.516 . S
C109 C110 1.502 . S
C109 C111 1.561 . S
C109 C112 1.526 . S
C110 H94 0.959 . S
C110 H95 0.959 . S
C110 H96 0.961 . S
C110 C109 1.502 . S
C111 H97 0.960 . S
C111 H98 0.961 . S
C111 H99 0.959 . S
C111 C109 1.561 . S
C112 C109 1.526 . S
C112 C113 1.396 . S
C112 C117 1.390 . S
C113 C107 1.465 . S
C113 C112 1.396 . S
C113 C114 1.399 . S
C114 H100 0.929 . S
C114 C113 1.399 . S
C114 C115 1.385 . S
C115 H101 0.931 . S
C115 C114 1.385 . S
C115 C116 1.389 . S
C116 C115 1.389 . S
C116 C117 1.387 . S
C117 H102 0.930 . S
C117 C112 1.390 . S
C117 C116 1.387 . S
H118 C130 0.930 . S
H119 C132 0.930 . S
H120 C133 0.930 . S
H121 C137 0.959 . S
H122 C137 0.959 . S
H123 C137 0.961 . S
H124 C138 0.960 . S
H125 C138 0.961 . S
H126 C138 0.959 . S
H127 C141 0.929 . S
H128 C142 0.931 . S
H129 C144 0.930 . S
C130 H118 0.930 . S
C130 C131 1.399 . S
C130 C135 1.399 . S
C131 C130 1.399 . S
C131 C132 1.376 . S
C132 H119 0.930 . S
C132 C131 1.376 . S
C132 C133 1.388 . S
C133 H120 0.930 . S
C133 C132 1.388 . S
C133 C134 1.390 . S
C134 C133 1.390 . S
C134 C135 1.394 . S
C134 C140 1.465 . S
C135 C130 1.399 . S
C135 C134 1.394 . S
C135 C136 1.516 . S
C136 C135 1.516 . S
C136 C137 1.502 . S
C136 C138 1.561 . S
C136 C139 1.526 . S
C137 H121 0.959 . S
C137 H122 0.959 . S
C137 H123 0.961 . S
C137 C136 1.502 . S
C138 H124 0.960 . S
C138 H125 0.961 . S
C138 H126 0.959 . S
C138 C136 1.561 . S
C139 C136 1.526 . S
C139 C140 1.396 . S
C139 C144 1.390 . S
C140 C134 1.465 . S
C140 C139 1.396 . S
C140 C141 1.399 . S
C141 H127 0.929 . S
C141 C140 1.399 . S
C141 C142 1.385 . S
C142 H128 0.931 . S
C142 C141 1.385 . S
C142 C143 1.389 . S
C143 C142 1.389 . S
C143 C144 1.387 . S
C144 H129 0.930 . S
C144 C139 1.390 . S
C144 C143 1.387 . S
H145 C157 0.930 . S
H146 C159 0.930 . S
H147 C160 0.930 . S
H148 C164 0.959 . S
H149 C164 0.959 . S
H150 C164 0.961 . S
H151 C165 0.960 . S
H152 C165 0.961 . S
H153 C165 0.959 . S
H154 C168 0.929 . S
H155 C169 0.931 . S
H156 C171 0.930 . S
C157 H145 0.930 . S
C157 C158 1.399 . S
C157 C162 1.399 . S
C158 C157 1.399 . S
C158 C159 1.376 . S
C159 H146 0.930 . S
C159 C158 1.376 . S
C159 C160 1.388 . S
C160 H147 0.930 . S
C160 C159 1.388 . S
C160 C161 1.390 . S
C161 C160 1.390 . S
C161 C162 1.394 . S
C161 C167 1.465 . S
C162 C157 1.399 . S
C162 C161 1.394 . S
C162 C163 1.516 . S
C163 C162 1.516 . S
C163 C164 1.502 . S
C163 C165 1.561 . S
C163 C166 1.526 . S
C164 H148 0.959 . S
C164 H149 0.959 . S
C164 H150 0.961 . S
C164 C163 1.502 . S
C165 H151 0.960 . S
C165 H152 0.961 . S
C165 H153 0.959 . S
C165 C163 1.561 . S
C166 C163 1.526 . S
C166 C167 1.396 . S
C166 C171 1.390 . S
C167 C161 1.465 . S
C167 C166 1.396 . S
C167 C168 1.399 . S
C168 H154 0.929 . S
C168 C167 1.399 . S
C168 C169 1.385 . S
C169 H155 0.931 . S
C169 C168 1.385 . S
C169 C170 1.389 . S
C170 C169 1.389 . S
C170 C171 1.387 . S
C171 H156 0.930 . S
C171 C166 1.390 . S
C171 C170 1.387 . S
H172 C184 0.930 . S
H173 C186 0.930 . S
H174 C187 0.930 . S
H175 C191 0.959 . S
H176 C191 0.959 . S
H177 C191 0.961 . S
H178 C192 0.960 . S
H179 C192 0.961 . S
H180 C192 0.959 . S
H181 C195 0.929 . S
H182 C196 0.931 . S
H183 C198 0.930 . S
C184 H172 0.930 . S
C184 C185 1.399 . S
C184 C189 1.399 . S
C185 C184 1.399 . S
C185 C186 1.376 . S
C186 H173 0.930 . S
C186 C185 1.376 . S
C186 C187 1.388 . S
C187 H174 0.930 . S
C187 C186 1.388 . S
C187 C188 1.390 . S
C188 C187 1.390 . S
C188 C189 1.394 . S
C188 C194 1.465 . S
C189 C184 1.399 . S
C189 C188 1.394 . S
C189 C190 1.516 . S
C190 C189 1.516 . S
C190 C191 1.502 . S
C190 C192 1.561 . S
C190 C193 1.526 . S
C191 H175 0.959 . S
C191 H176 0.959 . S
C191 H177 0.961 . S
C191 C190 1.502 . S
C192 H178 0.960 . S
C192 H179 0.961 . S
C192 H180 0.959 . S
C192 C190 1.561 . S
C193 C190 1.526 . S
C193 C194 1.396 . S
C193 C198 1.390 . S
C194 C188 1.465 . S
C194 C193 1.396 . S
C194 C195 1.399 . S
C195 H181 0.929 . S
C195 C194 1.399 . S
C195 C196 1.385 . S
C196 H182 0.931 . S
C196 C195 1.385 . S
C196 C197 1.389 . S
C197 C196 1.389 . S
C197 C198 1.387 . S
C198 H183 0.930 . S
C198 C193 1.390 . S
C198 C197 1.387 . S
H199 C211 0.930 . S
H200 C213 0.930 . S
H201 C214 0.930 . S
H202 C218 0.959 . S
H203 C218 0.959 . S
H204 C218 0.961 . S
H205 C219 0.960 . S
H206 C219 0.961 . S
H207 C219 0.959 . S
H208 C222 0.929 . S
H209 C223 0.931 . S
H210 C225 0.930 . S
C211 H199 0.930 . S
C211 C212 1.399 . S
C211 C216 1.399 . S
C212 C211 1.399 . S
C212 C213 1.376 . S
C213 H200 0.930 . S
C213 C212 1.376 . S
C213 C214 1.388 . S
C214 H201 0.930 . S
C214 C213 1.388 . S
C214 C215 1.390 . S
C215 C214 1.390 . S
C215 C216 1.394 . S
C215 C221 1.465 . S
C216 C211 1.399 . S
C216 C215 1.394 . S
C216 C217 1.516 . S
C217 C216 1.516 . S
C217 C218 1.502 . S
C217 C219 1.561 . S
C217 C220 1.526 . S
C218 H202 0.959 . S
C218 H203 0.959 . S
C218 H204 0.961 . S
C218 C217 1.502 . S
C219 H205 0.960 . S
C219 H206 0.961 . S
C219 H207 0.959 . S
C219 C217 1.561 . S
C220 C217 1.526 . S
C220 C221 1.396 . S
C220 C225 1.390 . S
C221 C215 1.465 . S
C221 C220 1.396 . S
C221 C222 1.399 . S
C222 H208 0.929 . S
C222 C221 1.399 . S
C222 C223 1.385 . S
C223 H209 0.931 . S
C223 C222 1.385 . S
C223 C224 1.389 . S
C224 C223 1.389 . S
C224 C225 1.387 . S
C225 H210 0.930 . S
C225 C220 1.390 . S
C225 C224 1.387 . S
H226 C238 0.930 . S
H227 C240 0.930 . S
H228 C241 0.930 . S
H229 C245 0.959 . S
H230 C245 0.959 . S
H231 C245 0.961 . S
H232 C246 0.960 . S
H233 C246 0.961 . S
H234 C246 0.959 . S
H235 C249 0.929 . S
H236 C250 0.931 . S
H237 C252 0.930 . S
C238 H226 0.930 . S
C238 C239 1.399 . S
C238 C243 1.399 . S
C239 C238 1.399 . S
C239 C240 1.376 . S
C240 H227 0.930 . S
C240 C239 1.376 . S
C240 C241 1.388 . S
C241 H228 0.930 . S
C241 C240 1.388 . S
C241 C242 1.390 . S
C242 C241 1.390 . S
C242 C243 1.394 . S
C242 C248 1.465 . S
C243 C238 1.399 . S
C243 C242 1.394 . S
C243 C244 1.516 . S
C244 C243 1.516 . S
C244 C245 1.502 . S
C244 C246 1.561 . S
C244 C247 1.526 . S
C245 H229 0.959 . S
C245 H230 0.959 . S
C245 H231 0.961 . S
C245 C244 1.502 . S
C246 H232 0.960 . S
C246 H233 0.961 . S
C246 H234 0.959 . S
C246 C244 1.561 . S
C247 C244 1.526 . S
C247 C248 1.396 . S
C247 C252 1.390 . S
C248 C242 1.465 . S
C248 C247 1.396 . S
C248 C249 1.399 . S
C249 H235 0.929 . S
C249 C248 1.399 . S
C249 C250 1.385 . S
C250 H236 0.931 . S
C250 C249 1.385 . S
C250 C251 1.389 . S
C251 C250 1.389 . S
C251 C252 1.387 . S
C252 H237 0.930 . S
C252 C247 1.390 . S
C252 C251 1.387 . S
H253 C265 0.930 . S
H254 C267 0.930 . S
H255 C268 0.930 . S
H256 C272 0.959 . S
H257 C272 0.959 . S
H258 C272 0.961 . S
H259 C273 0.960 . S
H260 C273 0.961 . S
H261 C273 0.959 . S
H262 C276 0.929 . S
H263 C277 0.931 . S
H264 C279 0.930 . S
C265 H253 0.930 . S
C265 C266 1.399 . S
C265 C270 1.399 . S
C266 C265 1.399 . S
C266 C267 1.376 . S
C267 H254 0.930 . S
C267 C266 1.376 . S
C267 C268 1.388 . S
C268 H255 0.930 . S
C268 C267 1.388 . S
C268 C269 1.390 . S
C269 C268 1.390 . S
C269 C270 1.394 . S
C269 C275 1.465 . S
C270 C265 1.399 . S
C270 C269 1.394 . S
C270 C271 1.516 . S
C271 C270 1.516 . S
C271 C272 1.502 . S
C271 C273 1.561 . S
C271 C274 1.526 . S
C272 H256 0.959 . S
C272 H257 0.959 . S
C272 H258 0.961 . S
C272 C271 1.502 . S
C273 H259 0.960 . S
C273 H260 0.961 . S
C273 H261 0.959 . S
C273 C271 1.561 . S
C274 C271 1.526 . S
C274 C275 1.396 . S
C274 C279 1.390 . S
C275 C269 1.465 . S
C275 C274 1.396 . S
C275 C276 1.399 . S
C276 H262 0.929 . S
C276 C275 1.399 . S
C276 C277 1.385 . S
C277 H263 0.931 . S
C277 C276 1.385 . S
C277 C278 1.389 . S
C278 C277 1.389 . S
C278 C279 1.387 . S
C279 H264 0.930 . S
C279 C274 1.390 . S
C279 C278 1.387 . S
C77 C0 1.393 . S
C89 C53 1.397 . S
C104 C29 1.720 . S
C116 C52 1.735 . S
C131 C30 1.261 . S
C143 C58 1.269 . S
C158 C1 1.533 . S
C170 C59 1.477 . S
C185 C2 1.734 . S
C197 C56 1.749 . S
C224 C54 1.263 . S
C212 C19 1.273 . S
C239 C20 1.473 . S
C251 C55 1.420 . S
C278 C57 1.355 . S
C266 C10 1.355 . S
