# Generated by pormake.
# Topology rtl, (3,6)-cn, num edge types: 1
# Building blocks:
#     Node 0, Type 0, BuildingBlock: OLANEW_clean_sbu_2, # of connection points: 3
#     Node 1, Type 0, BuildingBlock: OLANEW_clean_sbu_2, # of connection points: 3
#     Node 2, Type 0, BuildingBlock: OLANEW_clean_sbu_2, # of connection points: 3
#     Node 3, Type 0, BuildingBlock: OLANEW_clean_sbu_2, # of connection points: 3
#     Node 4, Type 1, BuildingBlock: KUMJIN_clean_sbu_1, # of connection points: 6
#     Node 5, Type 1, BuildingBlock: KUMJIN_clean_sbu_1, # of connection points: 6
#     Edge 6, Type (0, 1), BuildingBlock: MIFKUJ_clean_linker_0, # of connection points: 2
#     Edge 7, Type (0, 1), BuildingBlock: MIFKUJ_clean_linker_0, # of connection points: 2
#     Edge 8, Type (0, 1), BuildingBlock: MIFKUJ_clean_linker_0, # of connection points: 2
#     Edge 9, Type (0, 1), BuildingBlock: MIFKUJ_clean_linker_0, # of connection points: 2
#     Edge 10, Type (0, 1), BuildingBlock: MIFKUJ_clean_linker_0, # of connection points: 2
#     Edge 11, Type (0, 1), BuildingBlock: MIFKUJ_clean_linker_0, # of connection points: 2
#     Edge 12, Type (0, 1), BuildingBlock: MIFKUJ_clean_linker_0, # of connection points: 2
#     Edge 13, Type (0, 1), BuildingBlock: MIFKUJ_clean_linker_0, # of connection points: 2
#     Edge 14, Type (0, 1), BuildingBlock: MIFKUJ_clean_linker_0, # of connection points: 2
#     Edge 15, Type (0, 1), BuildingBlock: MIFKUJ_clean_linker_0, # of connection points: 2
#     Edge 16, Type (0, 1), BuildingBlock: MIFKUJ_clean_linker_0, # of connection points: 2
#     Edge 17, Type (0, 1), BuildingBlock: MIFKUJ_clean_linker_0, # of connection points: 2
# Relax obj value: 0.040
# Max RMSD: 0.158
# Mean RMSD: 0.126
data_MOF--net-rtl--node1-OLANEW_clean_sbu_2--node2-KUMJIN_clean_sbu_1--edge1-MIFKUJ_clean_linker_0
_symmetry_space_group_name_H-M    P1
_symmetry_Int_Tables_number       1
_symmetry_cell_setting            triclinic
loop_
_symmetry_equiv_pos_as_xyz
'x, y, z'
_cell_length_a     47.61019
_cell_length_b     47.584073
_cell_length_c     36.502367
_cell_angle_alpha  77.91959
_cell_angle_beta   101.94996
_cell_angle_gamma 90.711277
loop_
_atom_site_label
_atom_site_type_symbol
_atom_site_fract_x
_atom_site_fract_y
_atom_site_fract_z
_atom_type_partial_charge
O0 O 0.20541 0.83334 0.98851 0.0
Cd1 Cd 0.22506 0.80527 0.05293 0.0
O2 O 0.2082 0.87543 0.00492 0.0
Cd3 Cd 0.21765 0.85805 0.06672 0.0
O4 O 0.20797 0.85554 0.12341 0.0
C5 C 0.18605 0.84194 0.13113 0.0
O6 O 0.17127 0.82845 0.10584 0.0
C7 C 0.2026 0.86061 0.97922 0.0
C8 C 0.26598 0.76428 0.05069 0.0
O9 O 0.23919 0.75883 0.04564 0.0
O10 O 0.2735 0.78905 0.05711 0.0
O11 O 0.66762 0.73601 0.66997 0.0
Cd12 Cd 0.68016 0.76655 0.61296 0.0
O13 O 0.65344 0.70751 0.63054 0.0
Cd14 Cd 0.63285 0.67186 0.60699 0.0
O15 O 0.62078 0.64402 0.56596 0.0
C16 C 0.601 0.65226 0.53639 0.0
O17 O 0.58711 0.67679 0.53221 0.0
C18 C 0.65595 0.7128 0.66382 0.0
C19 C 0.73383 0.79166 0.61956 0.0
O20 O 0.71212 0.80423 0.62574 0.0
O21 O 0.73046 0.76662 0.61179 0.0
O22 O 0.77375 0.15375 0.11317 0.0
Cd23 Cd 0.74247 0.17327 0.05103 0.0
O24 O 0.79747 0.1263 0.0875 0.0
Cd25 Cd 0.77686 0.1402 0.02724 0.0
O26 O 0.79031 0.13593 0.97496 0.0
C27 C 0.81122 0.11792 0.98184 0.0
O28 O 0.82091 0.10426 0.01742 0.0
C29 C 0.79337 0.13487 0.11675 0.0
C30 C 0.70787 0.21986 0.05233 0.0
O31 O 0.69929 0.19404 0.05979 0.0
O32 O 0.73287 0.22358 0.04455 0.0
O33 O 0.34323 0.29757 0.53225 0.0
Cd34 Cd 0.32695 0.27378 0.4786 0.0
O35 O 0.38171 0.31349 0.5109 0.0
Cd36 Cd 0.37312 0.29917 0.45685 0.0
O37 O 0.38358 0.31193 0.40036 0.0
C38 C 0.40987 0.3169 0.40032 0.0
O39 O 0.42847 0.31206 0.43319 0.0
C40 C 0.36644 0.3112 0.53605 0.0
C41 C 0.28183 0.2369 0.48932 0.0
O42 O 0.30803 0.22765 0.50015 0.0
O43 O 0.27699 0.2636 0.47363 0.0
Eu44 Eu 0.03345 0.97979 0.52437 0.0
C45 C 0.97039 0.09178 0.48845 0.0
N46 N 0.9932 0.0832 0.51796 0.0
C47 C 0.01763 0.12592 0.49622 0.0
C48 C 0.9711 0.11693 0.46025 0.0
C49 C 0.01559 0.10111 0.5238 0.0
C50 C 0.99559 0.13351 0.46381 0.0
C51 C 0.92054 0.08593 0.45966 0.0
C52 C 0.94541 0.0766 0.4881 0.0
C53 C 0.92171 0.10989 0.43016 0.0
C54 C 0.94698 0.12534 0.43042 0.0
Eu55 Eu 0.98906 0.03834 0.55981 0.0
N56 N 0.94517 0.0531 0.51638 0.0
C57 C 0.89517 0.07108 0.46209 0.0
C58 C 0.92026 0.03935 0.52008 0.0
C59 C 0.89494 0.04795 0.49278 0.0
H60 H 0.03202 0.09641 0.5497 0.0
H61 H 0.87535 0.03662 0.49525 0.0
H62 H 0.02082 0.91505 0.57346 0.0
H63 H 0.13813 0.02543 0.51216 0.0
H64 H 0.92025 0.0213 0.5436 0.0
H65 H 0.87561 0.07756 0.4408 0.0
H66 H 0.08664 0.01727 0.48988 0.0
H67 H 0.03602 0.13934 0.50016 0.0
H68 H 0.90301 0.11706 0.40758 0.0
H69 H 0.94733 0.14431 0.40815 0.0
H70 H 0.04618 0.87712 0.62704 0.0
H71 H 0.99707 0.15292 0.44272 0.0
H72 H 0.16504 0.99618 0.57338 0.0
N73 N 0.05665 0.94205 0.57405 0.0
C74 C 0.08472 0.94519 0.58913 0.0
C75 C 0.05725 0.89621 0.61676 0.0
C76 C 0.09993 0.92447 0.62011 0.0
C77 C 0.043 0.91757 0.58635 0.0
C78 C 0.0857 0.89991 0.6342 0.0
N79 N 0.08372 0.98624 0.54005 0.0
C80 C 0.09794 0.00522 0.51735 0.0
C81 C 0.12825 0.9714 0.58516 0.0
C82 C 0.09861 0.96832 0.57191 0.0
C83 C 0.1423 0.99303 0.56416 0.0
C84 C 0.12721 0.00956 0.52959 0.0
H85 H 0.09664 0.88347 0.65794 0.0
H86 H 0.14092 0.91311 0.6594 0.0
H87 H 0.16579 0.95426 0.62869 0.0
O88 O 0.05529 0.96105 0.48757 0.0
O89 O 0.02958 0.97367 0.58668 0.0
O90 O 0.03105 0.01924 0.59815 0.0
O91 O 0.00985 0.95553 0.48385 0.0
O92 O 0.04147 0.02772 0.50844 0.0
O93 O 0.03663 0.0447 0.56122 0.0
O94 O 0.97147 0.02897 0.61167 0.0
O95 O 0.97125 0.01934 0.508 0.0
O96 O 0.0106 0.01843 0.48232 0.0
O97 O 0.97789 0.07289 0.5857 0.0
O98 O 0.97274 0.993 0.57283 0.0
O99 O 0.99049 0.9636 0.53782 0.0
C100 C 0.03765 0.99165 0.60936 0.0
C101 C 0.0364 0.91885 0.46932 0.0
C102 C 0.05527 0.88478 0.43803 0.0
C103 C 0.04413 0.86214 0.46178 0.0
C104 C 0.02533 0.89598 0.49261 0.0
C105 C 0.0293 0.86777 0.48888 0.0
C106 C 0.05135 0.91313 0.44218 0.0
C107 C 0.04999 0.04405 0.53329 0.0
C108 C 0.03255 0.94886 0.47239 0.0
C109 C 0.12897 0.9285 0.63515 0.0
C110 C 0.14311 0.95198 0.61772 0.0
C111 C 0.98293 0.02254 0.47805 0.0
C112 C 0.98411 0.06121 0.65259 0.0
C113 C 0.97849 0.07279 0.71266 0.0
C114 C 0.00857 0.07271 0.72434 0.0
C115 C 0.01407 0.06081 0.66485 0.0
C116 C 0.96642 0.06708 0.67652 0.0
C117 C 0.02621 0.06657 0.70063 0.0
C118 C 0.97271 0.96931 0.55914 0.0
C119 C 0.97103 0.05564 0.61489 0.0
H120 H 0.04705 0.84005 0.45961 0.0
H121 H 0.01351 0.89988 0.51347 0.0
H122 H 0.02079 0.8502 0.50699 0.0
H123 H 0.05945 0.9309 0.42378 0.0
H124 H 0.01843 0.07772 0.75162 0.0
H125 H 0.028 0.05627 0.64667 0.0
H126 H 0.94329 0.06687 0.66712 0.0
H127 H 0.04933 0.06641 0.70996 0.0
Eu128 Eu 0.47261 0.50824 0.97248 0.0
C129 C 0.57142 0.58573 0.98954 0.0
N130 N 0.5752 0.55766 0.00747 0.0
C131 C 0.61799 0.55405 0.98357 0.0
C132 C 0.5904 0.59893 0.96663 0.0
C133 C 0.59841 0.54184 0.00564 0.0
C134 C 0.6138 0.58264 0.96361 0.0
C135 C 0.54572 0.63122 0.97914 0.0
C136 C 0.54925 0.60154 0.99557 0.0
C137 C 0.56346 0.64412 0.95444 0.0
C138 C 0.58583 0.62803 0.9483 0.0
Eu139 Eu 0.54083 0.53794 0.0431 0.0
N140 N 0.5329 0.58853 0.02028 0.0
C141 C 0.52556 0.64737 0.98973 0.0
C142 C 0.51605 0.60497 0.03427 0.0
C143 C 0.51124 0.63431 0.01823 0.0
H144 H 0.60131 0.51955 0.02048 0.0
H145 H 0.49694 0.64694 0.02843 0.0
H146 H 0.4323 0.5659 0.92212 0.0
H147 H 0.43673 0.40288 0.03357 0.0
H148 H 0.50636 0.59563 0.05808 0.0
H149 H 0.52218 0.67021 0.97777 0.0
H150 H 0.47053 0.43764 0.00788 0.0
H151 H 0.63612 0.54134 0.98165 0.0
H152 H 0.56082 0.66681 0.94121 0.0
H153 H 0.60001 0.63852 0.93032 0.0
H154 H 0.38291 0.58568 0.91408 0.0
H155 H 0.6289 0.59201 0.94636 0.0
H156 H 0.38809 0.41949 0.03564 0.0
N157 N 0.4255 0.52764 0.96064 0.0
C158 C 0.40622 0.51083 0.97685 0.0
C159 C 0.38924 0.56468 0.93206 0.0
C160 C 0.37765 0.52071 0.97213 0.0
C161 C 0.41717 0.55361 0.9369 0.0
C162 C 0.36951 0.54835 0.95029 0.0
N163 N 0.44159 0.47352 0.99688 0.0
C164 C 0.44933 0.44499 0.00879 0.0
C165 C 0.39439 0.46375 0.00947 0.0
C166 C 0.41447 0.48279 0.99533 0.0
C167 C 0.40286 0.43482 0.02449 0.0
C168 C 0.43029 0.42533 0.02344 0.0
H169 H 0.3478 0.55682 0.94617 0.0
H170 H 0.33587 0.50952 0.98471 0.0
H171 H 0.35059 0.45968 0.01762 0.0
O172 O 0.49173 0.49383 0.92968 0.0
O173 O 0.47665 0.48878 0.03558 0.0
O174 O 0.51532 0.50523 0.07593 0.0
O175 O 0.44549 0.49745 0.92193 0.0
O176 O 0.51015 0.47646 0.9984 0.0
O177 O 0.54924 0.49229 0.03904 0.0
O178 O 0.55522 0.55471 0.09539 0.0
O179 O 0.54021 0.53115 0.98295 0.0
O180 O 0.49561 0.54804 0.95121 0.0
O181 O 0.5815 0.52344 0.08236 0.0
O182 O 0.4948 0.54859 0.04538 0.0
O183 O 0.47392 0.55357 0.98219 0.0
C184 C 0.49275 0.48924 0.06946 0.0
C185 C 0.46392 0.50342 0.86631 0.0
C186 C 0.44918 0.49604 0.80117 0.0
C187 C 0.45385 0.52515 0.78714 0.0
C188 C 0.46852 0.53244 0.85208 0.0
C189 C 0.46366 0.5432 0.81254 0.0
C190 C 0.45434 0.48535 0.84088 0.0
C191 C 0.5359 0.47291 0.02119 0.0
C192 C 0.46691 0.49175 0.90736 0.0
C193 C 0.35789 0.50228 0.98787 0.0
C194 C 0.36627 0.47389 0.00661 0.0
C195 C 0.52309 0.54581 0.95217 0.0
C196 C 0.58002 0.51947 0.14752 0.0
C197 C 0.58271 0.51649 0.21588 0.0
C198 C 0.5844 0.48633 0.22196 0.0
C199 C 0.58194 0.48925 0.15446 0.0
C200 C 0.58041 0.53296 0.17842 0.0
C201 C 0.58401 0.47288 0.19142 0.0
C202 C 0.47367 0.55839 0.01614 0.0
C203 C 0.57723 0.53692 0.10823 0.0
H204 H 0.44939 0.534 0.75662 0.0
H205 H 0.47531 0.54675 0.87145 0.0
H206 H 0.46712 0.56564 0.80155 0.0
H207 H 0.45078 0.46292 0.85208 0.0
H208 H 0.58572 0.47311 0.25032 0.0
H209 H 0.5815 0.47816 0.1313 0.0
H210 H 0.57926 0.55624 0.17333 0.0
H211 H 0.58518 0.44964 0.19637 0.0
H212 H 0.28503 0.17873 0.51738 0.0
H213 H 0.24528 0.14636 0.52452 0.0
H214 H 0.18474 0.21814 0.47972 0.0
H215 H 0.22434 0.25069 0.47273 0.0
H216 H 0.17128 0.18323 0.54187 0.0
H217 H 0.19485 0.17304 0.4236 0.0
H218 H 0.22663 0.1637 0.38174 0.0
H219 H 0.24634 0.07855 0.45031 0.0
H220 H 0.21497 0.08754 0.49292 0.0
H221 H 0.06386 0.07198 0.46651 0.0
H222 H 0.10271 0.10557 0.4589 0.0
H223 H 0.12876 0.09334 0.58185 0.0
H224 H 0.08938 0.06053 0.58938 0.0
H225 H 0.15839 0.09992 0.47854 0.0
H226 H 0.15795 0.15228 0.60709 0.0
H227 H 0.12418 0.16356 0.64536 0.0
H228 H 0.05412 0.1687 0.5487 0.0
H229 H 0.08752 0.15756 0.50975 0.0
C230 C 0.26326 0.18766 0.50911 0.0
C231 C 0.25785 0.21729 0.49436 0.0
C232 C 0.24057 0.1691 0.51308 0.0
C233 C 0.21203 0.17981 0.50232 0.0
C234 C 0.20659 0.20943 0.48818 0.0
C235 C 0.22926 0.22799 0.48409 0.0
C236 C 0.18782 0.16013 0.50565 0.0
C237 C 0.16846 0.165 0.52804 0.0
C238 C 0.18394 0.13655 0.48724 0.0
C239 C 0.20279 0.13108 0.46167 0.0
C240 C 0.20615 0.15241 0.42994 0.0
C241 C 0.22405 0.14716 0.40604 0.0
C242 C 0.23856 0.12057 0.41342 0.0
C243 C 0.23513 0.09915 0.44467 0.0
C244 C 0.21727 0.1043 0.46868 0.0
C245 C 0.07795 0.07652 0.49182 0.0
C246 C 0.0737 0.0638 0.5285 0.0
C247 C 0.10011 0.09567 0.4875 0.0
C248 C 0.11847 0.10232 0.51978 0.0
C249 C 0.11451 0.08912 0.55648 0.0
C250 C 0.09211 0.0703 0.56078 0.0
C251 C 0.14186 0.12288 0.51498 0.0
C252 C 0.16117 0.11812 0.49241 0.0
C253 C 0.14543 0.14684 0.53274 0.0
C254 C 0.12518 0.15384 0.55566 0.0
C255 C 0.13534 0.15589 0.59398 0.0
C256 C 0.11627 0.16219 0.61579 0.0
C257 C 0.08701 0.16669 0.59949 0.0
C258 C 0.07677 0.165 0.56131 0.0
C259 C 0.09574 0.15864 0.53938 0.0
H260 H 0.07227 0.17158 0.61642 0.0
H261 H 0.2524 0.11655 0.39488 0.0
H262 H 0.32457 0.76601 0.07031 0.0
H263 H 0.35995 0.73069 0.06599 0.0
H264 H 0.29153 0.67902 0.02105 0.0
H265 H 0.25608 0.71376 0.0265 0.0
H266 H 0.33059 0.6454 0.06953 0.0
H267 H 0.33155 0.72301 0.96269 0.0
H268 H 0.33553 0.77324 0.92959 0.0
H269 H 0.42164 0.77461 0.9943 0.0
H270 H 0.41803 0.72448 0.02815 0.0
H271 H 0.44399 0.60175 0.96105 0.0
H272 H 0.40792 0.63515 0.96772 0.0
H273 H 0.42249 0.59856 0.089 0.0
H274 H 0.45672 0.56329 0.08159 0.0
H275 H 0.40944 0.67606 0.00149 0.0
H276 H 0.36442 0.60663 0.12489 0.0
H277 H 0.35721 0.55554 0.1512 0.0
H278 H 0.3526 0.53617 0.04053 0.0
H279 H 0.35954 0.58713 0.01339 0.0
C280 C 0.31706 0.74709 0.05958 0.0
C281 C 0.2875 0.74275 0.04862 0.0
C282 C 0.33732 0.72696 0.05696 0.0
C283 C 0.32846 0.70234 0.04266 0.0
C284 C 0.29894 0.69781 0.03218 0.0
C285 C 0.27867 0.71775 0.03521 0.0
C286 C 0.34988 0.68136 0.03841 0.0
C287 C 0.34783 0.65212 0.05463 0.0
C288 C 0.37217 0.68996 0.0185 0.0
C289 C 0.37441 0.7201 0.99823 0.0
C290 C 0.35125 0.7341 0.97007 0.0
C291 C 0.35345 0.76254 0.95114 0.0
C292 C 0.37879 0.77713 0.95991 0.0
C293 C 0.40201 0.76329 0.98758 0.0
C294 C 0.39991 0.73486 0.00662 0.0
C295 C 0.43874 0.60013 0.98886 0.0
C296 C 0.4523 0.57913 0.02047 0.0
C297 C 0.41851 0.61965 0.99283 0.0
C298 C 0.41192 0.61913 0.02874 0.0
C299 C 0.42642 0.59891 0.06073 0.0
C300 C 0.44617 0.5789 0.05655 0.0
C301 C 0.39016 0.64 0.03253 0.0
C302 C 0.39222 0.66928 0.01639 0.0
C303 C 0.36736 0.63131 0.05149 0.0
C304 C 0.36275 0.60065 0.06724 0.0
C305 C 0.36176 0.59147 0.10613 0.0
C306 C 0.35777 0.56253 0.12118 0.0
C307 C 0.35457 0.5426 0.09754 0.0
C308 C 0.35524 0.5516 0.05878 0.0
C309 C 0.35922 0.5805 0.04355 0.0
H310 H 0.35151 0.52019 0.10923 0.0
H311 H 0.38046 0.79914 0.94522 0.0
H312 H 0.74658 0.8454 0.63221 0.0
H313 H 0.78971 0.87205 0.62365 0.0
H314 H 0.82625 0.79885 0.59553 0.0
H315 H 0.78315 0.77182 0.6044 0.0
H316 H 0.86687 0.82584 0.6402 0.0
H317 H 0.79603 0.85195 0.52493 0.0
H318 H 0.7484 0.86793 0.48462 0.0
H319 H 0.75522 0.94814 0.5216 0.0
H320 H 0.80274 0.93245 0.56262 0.0
H321 H 0.96721 0.91463 0.54505 0.0
H322 H 0.92915 0.88098 0.55744 0.0
H323 H 0.88941 0.94289 0.60332 0.0
H324 H 0.92743 0.97621 0.59221 0.0
H325 H 0.85175 0.91885 0.54586 0.0
H326 H 0.92297 0.89039 0.66335 0.0
H327 H 0.97136 0.87398 0.70074 0.0
H328 H 0.96452 0.79726 0.65546 0.0
H329 H 0.91622 0.81347 0.61725 0.0
C330 C 0.7639 0.83479 0.62467 0.0
C331 C 0.7613 0.80655 0.61867 0.0
C332 C 0.78851 0.85011 0.61964 0.0
C333 C 0.81098 0.8376 0.60831 0.0
C334 C 0.80911 0.80895 0.60412 0.0
C335 C 0.78443 0.79357 0.60913 0.0
C336 C 0.83566 0.85504 0.59909 0.0
C337 C 0.86362 0.84596 0.61918 0.0
C338 C 0.83143 0.88136 0.57173 0.0
C339 C 0.80283 0.8909 0.54715 0.0
C340 C 0.78726 0.8729 0.52474 0.0
C341 C 0.76031 0.88192 0.50171 0.0
C342 C 0.74876 0.909 0.50063 0.0
C343 C 0.76418 0.92714 0.52252 0.0
C344 C 0.79114 0.91821 0.54565 0.0
C345 C 0.95051 0.92103 0.55803 0.0
C346 C 0.95042 0.94825 0.56747 0.0
C347 C 0.9288 0.90176 0.56509 0.0
C348 C 0.90651 0.90954 0.58122 0.0
C349 C 0.9064 0.93656 0.59073 0.0
C350 C 0.92824 0.95558 0.58432 0.0
C351 C 0.88276 0.88997 0.58753 0.0
C352 C 0.85497 0.89863 0.56672 0.0
C353 C 0.88725 0.86321 0.61385 0.0
C354 C 0.91613 0.85331 0.63708 0.0
C355 C 0.93189 0.87015 0.66107 0.0
C356 C 0.95928 0.86086 0.68247 0.0
C357 C 0.97105 0.83464 0.68038 0.0
C358 C 0.9554 0.8176 0.65698 0.0
C359 C 0.92801 0.82682 0.63546 0.0
H360 H 0.99226 0.82748 0.69697 0.0
H361 H 0.72789 0.91596 0.48276 0.0
H362 H 0.65368 0.21901 0.06693 0.0
H363 H 0.62218 0.26027 0.06309 0.0
H364 H 0.68843 0.31793 0.03344 0.0
H365 H 0.7199 0.27691 0.03677 0.0
H366 H 0.62619 0.30418 0.10068 0.0
H367 H 0.65752 0.37594 0.96715 0.0
H368 H 0.67463 0.37059 0.90955 0.0
H369 H 0.63574 0.28837 0.91405 0.0
H370 H 0.61807 0.2934 0.97135 0.0
H371 H 0.58424 0.45144 0.07471 0.0
H372 H 0.61055 0.40624 0.08148 0.0
H373 H 0.54902 0.38604 0.98671 0.0
H374 H 0.52251 0.43113 0.9796 0.0
H375 H 0.60455 0.37852 0.98012 0.0
H376 H 0.5471 0.35104 0.07347 0.0
H377 H 0.52661 0.35578 0.12869 0.0
H378 H 0.61098 0.34646 0.20074 0.0
H379 H 0.63207 0.34216 0.14577 0.0
C380 C 0.66159 0.24048 0.05972 0.0
C381 C 0.68923 0.24468 0.05188 0.0
C382 C 0.64359 0.26401 0.05768 0.0
C383 C 0.65283 0.29215 0.04757 0.0
C384 C 0.6807 0.29639 0.04075 0.0
C385 C 0.69869 0.2729 0.04276 0.0
C386 C 0.63315 0.31714 0.04312 0.0
C387 C 0.62145 0.32043 0.07434 0.0
C388 C 0.62648 0.33805 0.00848 0.0
C389 C 0.63673 0.33494 0.97376 0.0
C390 C 0.65253 0.35677 0.95575 0.0
C391 C 0.66234 0.35378 0.92317 0.0
C392 C 0.65635 0.32911 0.90822 0.0
C393 C 0.64046 0.30742 0.92575 0.0
C394 C 0.63058 0.31031 0.95831 0.0
C395 C 0.57619 0.43737 0.05536 0.0
C396 C 0.55126 0.44499 0.02655 0.0
C397 C 0.59121 0.41149 0.0594 0.0
C398 C 0.58165 0.39279 0.03467 0.0
C399 C 0.55673 0.40021 0.00606 0.0
C400 C 0.54156 0.42596 0.00218 0.0
C401 C 0.59817 0.36589 0.03793 0.0
C402 C 0.60927 0.36225 0.00646 0.0
C403 C 0.60382 0.34447 0.07207 0.0
C404 C 0.5912 0.34652 0.1054 0.0
C405 C 0.56132 0.3502 0.10102 0.0
C406 C 0.54958 0.35279 0.13228 0.0
C407 C 0.56747 0.3515 0.16818 0.0
C408 C 0.59714 0.3475 0.17291 0.0
C409 C 0.60901 0.34495 0.14171 0.0
H410 H 0.55834 0.35353 0.19233 0.0
H411 H 0.66398 0.32683 0.88302 0.0
H412 H 0.14088 0.81425 0.15649 0.0
H413 H 0.1209 0.82019 0.21093 0.0
H414 H 0.18679 0.87979 0.23907 0.0
H415 H 0.20729 0.87358 0.18495 0.0
H416 H 0.17696 0.84481 0.3029 0.0
H417 H 0.11973 0.90419 0.19078 0.0
H418 H 0.09004 0.91543 0.12531 0.0
H419 H 0.0283 0.85452 0.16001 0.0
H420 H 0.05784 0.84262 0.2256 0.0
H421 H 0.1044 0.90889 0.41935 0.0
H422 H 0.12837 0.90032 0.36933 0.0
H423 H 0.0649 0.83866 0.34048 0.0
H424 H 0.0404 0.84767 0.38972 0.0
H425 H 0.07425 0.87546 0.27733 0.0
H426 H 0.13235 0.81682 0.39063 0.0
H427 H 0.16232 0.80712 0.45595 0.0
H428 H 0.22267 0.86877 0.41882 0.0
H429 H 0.19285 0.87913 0.35336 0.0
C430 C 0.15131 0.82845 0.17441 0.0
C431 C 0.17556 0.84362 0.16615 0.0
C432 C 0.13977 0.83191 0.20545 0.0
C433 C 0.15202 0.85085 0.22866 0.0
C434 C 0.17691 0.86516 0.22145 0.0
C435 C 0.18857 0.86161 0.19045 0.0
C436 C 0.1383 0.85634 0.25966 0.0
C437 C 0.1546 0.85185 0.29725 0.0
C438 C 0.10901 0.86516 0.2524 0.0
C439 C 0.09115 0.87231 0.213 0.0
C440 C 0.09993 0.89303 0.18437 0.0
C441 C 0.08311 0.89955 0.14726 0.0
C442 C 0.05733 0.88564 0.13848 0.0
C443 C 0.04829 0.86524 0.16684 0.0
C444 C 0.06505 0.85862 0.204 0.0
C445 C 0.09548 0.89359 0.40225 0.0
C446 C 0.07049 0.87894 0.40855 0.0
C447 C 0.10936 0.88852 0.37391 0.0
C448 C 0.09859 0.86864 0.3514 0.0
C449 C 0.07365 0.85401 0.3576 0.0
C450 C 0.0598 0.85902 0.38597 0.0
C451 C 0.1128 0.86363 0.32064 0.0
C452 C 0.0966 0.86834 0.28302 0.0
C453 C 0.1422 0.85523 0.32788 0.0
C454 C 0.16022 0.84894 0.36718 0.0
C455 C 0.1519 0.82847 0.39646 0.0
C456 C 0.16888 0.82282 0.4335 0.0
C457 C 0.19435 0.83737 0.44155 0.0
C458 C 0.20292 0.85754 0.41255 0.0
C459 C 0.186 0.86329 0.37547 0.0
H460 H 0.20747 0.83297 0.47025 0.0
H461 H 0.04434 0.89072 0.10973 0.0
H462 H 0.6359 0.72744 0.72216 0.0
H463 H 0.61422 0.69626 0.77033 0.0
H464 H 0.62855 0.62327 0.72273 0.0
H465 H 0.65012 0.65443 0.67445 0.0
H466 H 0.57647 0.62258 0.7351 0.0
H467 H 0.66978 0.63467 0.80845 0.0
H468 H 0.71102 0.66112 0.83567 0.0
H469 H 0.65763 0.70007 0.894 0.0
H470 H 0.61596 0.67418 0.86667 0.0
H471 H 0.57107 0.5286 0.93225 0.0
H472 H 0.59423 0.55375 0.88129 0.0
H473 H 0.52435 0.61673 0.84337 0.0
H474 H 0.5017 0.59243 0.89567 0.0
H475 H 0.60621 0.61874 0.87453 0.0
H476 H 0.52053 0.62171 0.73509 0.0
H477 H 0.48524 0.59094 0.70419 0.0
H478 H 0.52933 0.51559 0.77896 0.0
H479 H 0.56519 0.54585 0.80979 0.0
C480 C 0.63459 0.70471 0.72213 0.0
C481 C 0.64425 0.69347 0.69407 0.0
C482 C 0.62225 0.68688 0.74975 0.0
C483 C 0.61982 0.65735 0.75031 0.0
C484 C 0.62995 0.64602 0.7227 0.0
C485 C 0.64209 0.66389 0.6949 0.0
C486 C 0.60594 0.63842 0.77889 0.0
C487 C 0.58295 0.62185 0.76558 0.0
C488 C 0.61465 0.63704 0.81879 0.0
C489 C 0.63967 0.65272 0.83514 0.0
C490 C 0.66677 0.64908 0.82679 0.0
C491 C 0.69023 0.66394 0.8423 0.0
C492 C 0.68692 0.68233 0.86645 0.0
C493 C 0.66015 0.68586 0.87523 0.0
C494 C 0.63661 0.67108 0.85975 0.0
C495 C 0.56064 0.54783 0.91308 0.0
C496 C 0.53489 0.5589 0.91833 0.0
C497 C 0.57377 0.56199 0.88384 0.0
C498 C 0.56092 0.58698 0.85863 0.0
C499 C 0.53445 0.59733 0.86249 0.0
C500 C 0.52155 0.58344 0.89227 0.0
C501 C 0.57645 0.60364 0.83052 0.0
C502 C 0.59964 0.61979 0.844 0.0
C503 C 0.56823 0.60431 0.79091 0.0
C504 C 0.54533 0.58611 0.7751 0.0
C505 C 0.52255 0.59859 0.74515 0.0
C506 C 0.50256 0.58123 0.72749 0.0
C507 C 0.50521 0.55135 0.73941 0.0
C508 C 0.5274 0.53876 0.76968 0.0
C509 C 0.54749 0.55602 0.7874 0.0
H510 H 0.49009 0.53796 0.72512 0.0
H511 H 0.70512 0.69381 0.87844 0.0
H512 H 0.79165 0.1471 0.18672 0.0
H513 H 0.82395 0.12782 0.24841 0.0
H514 H 0.87019 0.07736 0.19344 0.0
H515 H 0.83795 0.09594 0.13227 0.0
H516 H 0.86142 0.04597 0.25788 0.0
H517 H 0.89604 0.14031 0.2174 0.0
H518 H 0.89275 0.19314 0.19671 0.0
H519 H 0.8699 0.20008 0.30235 0.0
H520 H 0.87266 0.14723 0.32345 0.0
H521 H 0.9973 0.05717 0.41552 0.0
H522 H 0.96523 0.07617 0.3534 0.0
H523 H 0.89527 0.02946 0.39331 0.0
H524 H 0.92732 0.01003 0.45482 0.0
H525 H 0.91695 0.10966 0.3361 0.0
H526 H 0.85165 0.00815 0.31929 0.0
H527 H 0.85834 0.95537 0.33803 0.0
H528 H 0.94884 0.96296 0.34197 0.0
H529 H 0.94261 0.01573 0.32273 0.0
C530 C 0.80865 0.13183 0.18785 0.0
C531 C 0.8122 0.12311 0.15452 0.0
C532 C 0.82717 0.12094 0.22307 0.0
C533 C 0.84965 0.10134 0.22547 0.0
C534 C 0.85298 0.09241 0.19232 0.0
C535 C 0.83451 0.10316 0.15729 0.0
C536 C 0.86984 0.08987 0.26233 0.0
C537 C 0.87348 0.05993 0.275 0.0
C538 C 0.88592 0.10805 0.28444 0.0
C539 C 0.8842 0.13981 0.27178 0.0
C540 C 0.89005 0.15309 0.23606 0.0
C541 C 0.88833 0.18304 0.22429 0.0
C542 C 0.88102 0.19995 0.24814 0.0
C543 C 0.87549 0.18695 0.28386 0.0
C544 C 0.87714 0.157 0.29574 0.0
C545 C 0.97519 0.05064 0.41064 0.0
C546 C 0.96468 0.03216 0.43971 0.0
C547 C 0.95686 0.0617 0.37542 0.0
C548 C 0.92792 0.0541 0.36871 0.0
C549 C 0.91758 0.03533 0.39768 0.0
C550 C 0.93585 0.02433 0.4328 0.0
C551 C 0.9084 0.06584 0.33149 0.0
C552 C 0.9048 0.09577 0.31893 0.0
C553 C 0.89276 0.04768 0.30905 0.0
C554 C 0.89667 0.01591 0.31992 0.0
C555 C 0.87294 0.99854 0.32398 0.0
C556 C 0.87666 0.96863 0.33472 0.0
C557 C 0.90401 0.95583 0.3413 0.0
C558 C 0.92768 0.9729 0.33699 0.0
C559 C 0.92407 0.00282 0.32621 0.0
H560 H 0.90685 0.93267 0.34966 0.0
H561 H 0.87972 0.22314 0.23899 0.0
H562 H 0.33851 0.31383 0.59417 0.0
H563 H 0.35164 0.34196 0.64392 0.0
H564 H 0.42672 0.37087 0.59969 0.0
H565 H 0.41423 0.34251 0.55075 0.0
H566 H 0.43956 0.3592 0.67522 0.0
H567 H 0.3641 0.4126 0.57683 0.0
H568 H 0.31591 0.41994 0.53471 0.0
H569 H 0.27722 0.40489 0.63312 0.0
H570 H 0.32521 0.39709 0.67584 0.0
H571 H 0.47071 0.48854 0.74008 0.0
H572 H 0.45534 0.45428 0.69875 0.0
H573 H 0.38941 0.42528 0.7618 0.0
H574 H 0.40465 0.45958 0.8031 0.0
H575 H 0.37028 0.43407 0.68199 0.0
H576 H 0.44703 0.38496 0.78018 0.0
H577 H 0.49567 0.37924 0.82107 0.0
H578 H 0.53249 0.38763 0.72157 0.0
H579 H 0.48405 0.39386 0.68 0.0
C580 C 0.35797 0.32594 0.59532 0.0
C581 C 0.37518 0.32607 0.56828 0.0
C582 C 0.36537 0.34211 0.62365 0.0
C583 C 0.38994 0.35887 0.62517 0.0
C584 C 0.40765 0.35816 0.59908 0.0
C585 C 0.40038 0.34196 0.57097 0.0
C586 C 0.39692 0.37804 0.65285 0.0
C587 C 0.42447 0.37569 0.67649 0.0
C588 C 0.37704 0.39919 0.65512 0.0
C589 C 0.34821 0.40393 0.6295 0.0
C590 C 0.3453 0.41064 0.58947 0.0
C591 C 0.31803 0.41492 0.5655 0.0
C592 C 0.29352 0.41279 0.58123 0.0
C593 C 0.29623 0.40647 0.62098 0.0
C594 C 0.32345 0.40213 0.64508 0.0
C595 C 0.45273 0.4751 0.74476 0.0
C596 C 0.43887 0.47663 0.77473 0.0
C597 C 0.44412 0.45541 0.72139 0.0
C598 C 0.42142 0.43709 0.72753 0.0
C599 C 0.40702 0.43917 0.75673 0.0
C600 C 0.41581 0.45864 0.78034 0.0
C601 C 0.41302 0.41549 0.70373 0.0
C602 C 0.38524 0.41739 0.68092 0.0
C603 C 0.43274 0.39405 0.70202 0.0
C604 C 0.46191 0.39014 0.72695 0.0
C605 C 0.4655 0.38583 0.76698 0.0
C606 C 0.49304 0.38245 0.79029 0.0
C607 C 0.51716 0.38314 0.77392 0.0
C608 C 0.51379 0.38714 0.73421 0.0
C609 C 0.48629 0.39056 0.71076 0.0
H610 H 0.53846 0.38051 0.79202 0.0
H611 H 0.27242 0.41612 0.56262 0.0
H612 H 0.62905 0.60323 0.53325 0.0
H613 H 0.62338 0.57918 0.47934 0.0
H614 H 0.55569 0.64033 0.41513 0.0
H615 H 0.56103 0.66445 0.46905 0.0
H616 H 0.54363 0.58503 0.40547 0.0
H617 H 0.6215 0.64987 0.39867 0.0
H618 H 0.66723 0.671 0.42341 0.0
H619 H 0.71106 0.5892 0.44294 0.0
H620 H 0.66547 0.56747 0.4188 0.0
H621 H 0.54882 0.56149 0.21976 0.0
H622 H 0.54984 0.58376 0.2748 0.0
H623 H 0.61898 0.52508 0.34132 0.0
H624 H 0.61845 0.50316 0.28633 0.0
H625 H 0.62936 0.57966 0.34933 0.0
H626 H 0.55174 0.51491 0.3545 0.0
H627 H 0.50612 0.49381 0.32941 0.0
H628 H 0.46166 0.57483 0.3132 0.0
H629 H 0.50718 0.59667 0.33731 0.0
C630 C 0.61273 0.61142 0.50785 0.0
C631 C 0.59568 0.63595 0.50533 0.0
C632 C 0.60958 0.59768 0.47702 0.0
C633 C 0.5894 0.60824 0.44304 0.0
C634 C 0.57145 0.6319 0.44105 0.0
C635 C 0.57461 0.6457 0.47187 0.0
C636 C 0.58811 0.5955 0.40896 0.0
C637 C 0.56225 0.58415 0.39286 0.0
C638 C 0.61256 0.59395 0.39296 0.0
C639 C 0.64003 0.60699 0.40728 0.0
C640 C 0.64085 0.63634 0.40851 0.0
C641 C 0.66675 0.64843 0.42238 0.0
C642 C 0.69203 0.63144 0.43483 0.0
C643 C 0.69146 0.60232 0.43333 0.0
C644 C 0.6656 0.59011 0.41953 0.0
C645 C 0.56438 0.55352 0.24604 0.0
C646 C 0.58351 0.53053 0.24877 0.0
C647 C 0.56477 0.56607 0.27754 0.0
C648 C 0.5843 0.55586 0.31227 0.0
C649 C 0.60367 0.53321 0.31485 0.0
C650 C 0.60321 0.5206 0.28349 0.0
C651 C 0.58493 0.56898 0.34589 0.0
C652 C 0.6107 0.5805 0.36188 0.0
C653 C 0.56039 0.57063 0.36172 0.0
C654 C 0.53296 0.55752 0.34733 0.0
C655 C 0.5323 0.52832 0.34525 0.0
C656 C 0.50644 0.51619 0.33128 0.0
C657 C 0.48101 0.53294 0.31973 0.0
C658 C 0.48139 0.56188 0.32213 0.0
C659 C 0.50722 0.57415 0.33592 0.0
H660 H 0.46101 0.52349 0.30898 0.0
H661 H 0.71206 0.64084 0.44556 0.0
H662 H 0.79761 0.14256 0.90494 0.0
H663 H 0.82375 0.13628 0.85575 0.0
H664 H 0.88357 0.0768 0.94069 0.0
H665 H 0.85784 0.08296 0.98976 0.0
H666 H 0.91077 0.11743 0.89801 0.0
H667 H 0.83317 0.05278 0.87637 0.0
H668 H 0.78246 0.03942 0.86245 0.0
H669 H 0.76811 0.10051 0.75513 0.0
H670 H 0.81868 0.11453 0.76866 0.0
H671 H 0.9847 0.0511 0.78935 0.0
H672 H 0.9542 0.06079 0.83174 0.0
H673 H 0.89912 0.11675 0.73629 0.0
H674 H 0.92968 0.10713 0.69363 0.0
H675 H 0.86811 0.08219 0.78063 0.0
H676 H 0.94631 0.14502 0.80052 0.0
H677 H 0.99712 0.1581 0.81409 0.0
H678 H 0.01027 0.10096 0.92449 0.0
H679 H 0.95962 0.08722 0.91136 0.0
C680 C 0.81622 0.12801 0.91304 0.0
C681 C 0.82569 0.11333 0.95128 0.0
C682 C 0.83107 0.1244 0.88491 0.0
C683 C 0.85557 0.10604 0.89461 0.0
C684 C 0.86479 0.09114 0.93263 0.0
C685 C 0.84997 0.09465 0.96063 0.0
C686 C 0.87234 0.10284 0.86568 0.0
C687 C 0.90151 0.10948 0.87251 0.0
C688 C 0.86002 0.0933 0.83187 0.0
C689 C 0.82961 0.08495 0.82375 0.0
C690 C 0.81913 0.06357 0.84997 0.0
C691 C 0.79043 0.05583 0.84212 0.0
C692 C 0.77205 0.06918 0.80799 0.0
C693 C 0.78236 0.09024 0.78159 0.0
C694 C 0.81104 0.09807 0.78933 0.0
C695 C 0.96629 0.0657 0.77746 0.0
C696 C 0.95976 0.07857 0.73825 0.0
C697 C 0.94882 0.07116 0.80167 0.0
C698 C 0.92462 0.08982 0.78726 0.0
C699 C 0.91772 0.10232 0.74799 0.0
C700 C 0.93517 0.09678 0.72369 0.0
C701 C 0.90667 0.09626 0.81337 0.0
C702 C 0.87731 0.09035 0.80597 0.0
C703 C 0.91878 0.10654 0.84668 0.0
C704 C 0.94922 0.11493 0.85482 0.0
C705 C 0.96009 0.1351 0.82758 0.0
C706 C 0.98885 0.14265 0.83521 0.0
C707 C 0.00693 0.13032 0.87009 0.0
C708 C 0.99625 0.11047 0.89747 0.0
C709 C 0.96751 0.10282 0.88997 0.0
H710 H 0.02919 0.1362 0.87594 0.0
H711 H 0.74984 0.06315 0.80195 0.0
H712 H 0.46448 0.32877 0.39091 0.0
H713 H 0.47937 0.35576 0.33387 0.0
H714 H 0.39114 0.36438 0.27233 0.0
H715 H 0.37606 0.33691 0.32917 0.0
H716 H 0.42631 0.35313 0.22793 0.0
H717 H 0.42373 0.41988 0.31009 0.0
H718 H 0.43581 0.43772 0.37004 0.0
H719 H 0.5254 0.43492 0.36703 0.0
H720 H 0.51386 0.41687 0.30718 0.0
H721 H 0.43939 0.47112 0.07786 0.0
H722 H 0.42655 0.43891 0.13297 0.0
H723 H 0.5154 0.43237 0.19221 0.0
H724 H 0.52828 0.46439 0.13683 0.0
H725 H 0.48107 0.44159 0.23789 0.0
H726 H 0.48397 0.37619 0.15509 0.0
H727 H 0.47225 0.35807 0.09531 0.0
H728 H 0.38276 0.35841 0.09931 0.0
H729 H 0.39391 0.37675 0.15895 0.0
C730 C 0.44823 0.33617 0.36517 0.0
C731 C 0.41904 0.33087 0.36468 0.0
C732 C 0.45678 0.35174 0.33263 0.0
C733 C 0.43631 0.36257 0.29908 0.0
C734 C 0.40728 0.35635 0.298 0.0
C735 C 0.3987 0.34065 0.33052 0.0
C736 C 0.4451 0.38089 0.26542 0.0
C737 C 0.43798 0.37266 0.22998 0.0
C738 C 0.46096 0.40599 0.26832 0.0
C739 C 0.46795 0.41673 0.30439 0.0
C740 C 0.44602 0.42286 0.32238 0.0
C741 C 0.45277 0.43307 0.35629 0.0
C742 C 0.48136 0.43736 0.3724 0.0
C743 C 0.50327 0.43149 0.35459 0.0
C744 C 0.49663 0.42135 0.32062 0.0
C745 C 0.45623 0.46247 0.10238 0.0
C746 C 0.48489 0.4701 0.10296 0.0
C747 C 0.44887 0.44411 0.1339 0.0
C748 C 0.47007 0.43292 0.16654 0.0
C749 C 0.49869 0.44072 0.16731 0.0
C750 C 0.50602 0.45912 0.13577 0.0
C751 C 0.46224 0.41387 0.20035 0.0
C752 C 0.4695 0.422 0.23583 0.0
C753 C 0.44656 0.38868 0.19747 0.0
C754 C 0.43976 0.378 0.16136 0.0
C755 C 0.46177 0.37258 0.14308 0.0
C756 C 0.45525 0.36216 0.10932 0.0
C757 C 0.4268 0.35698 0.09364 0.0
C758 C 0.4048 0.36232 0.11159 0.0
C759 C 0.41121 0.37268 0.1454 0.0
H760 H 0.42179 0.34895 0.06747 0.0
H761 H 0.48654 0.44531 0.39862 0.0
H762 H 0.17501 0.83623 0.92066 0.0
H763 H 0.15103 0.86081 0.85639 0.0
H764 H 0.18013 0.94222 0.88187 0.0
H765 H 0.20324 0.91782 0.94676 0.0
H766 H 0.12676 0.9477 0.8511 0.0
H767 H 0.20693 0.90859 0.81755 0.0
H768 H 0.24199 0.87168 0.81514 0.0
H769 H 0.17409 0.82557 0.75892 0.0
H770 H 0.13854 0.86197 0.7615 0.0
H771 H 0.07619 0.02054 0.65335 0.0
H772 H 0.10733 0.00063 0.71587 0.0
H773 H 0.06957 0.91789 0.71461 0.0
H774 H 0.03766 0.93795 0.65319 0.0
H775 H 0.13086 0.91645 0.73091 0.0
H776 H 0.05096 0.95581 0.76913 0.0
H777 H 0.01717 0.99316 0.77375 0.0
H778 H 0.08774 0.04079 0.82083 0.0
H779 H 0.12201 0.00403 0.81579 0.0
C780 C 0.17666 0.85932 0.91243 0.0
C781 C 0.19095 0.87508 0.93889 0.0
C782 C 0.16304 0.87337 0.87551 0.0
C783 C 0.16395 0.90341 0.86399 0.0
C784 C 0.17904 0.91905 0.89003 0.0
C785 C 0.19231 0.90507 0.92712 0.0
C786 C 0.14736 0.91865 0.82596 0.0
C787 C 0.12819 0.94121 0.82474 0.0
C788 C 0.14872 0.90995 0.79152 0.0
C789 C 0.17002 0.8879 0.79008 0.0
C790 C 0.19943 0.89045 0.80499 0.0
C791 C 0.2194 0.86963 0.80353 0.0
C792 C 0.21027 0.84625 0.78698 0.0
C793 C 0.18114 0.84367 0.77178 0.0
C794 C 0.16107 0.8644 0.77321 0.0
C795 C 0.07434 0.9982 0.66669 0.0
C796 C 0.05501 0.98054 0.64809 0.0
C797 C 0.09218 0.98686 0.70224 0.0
C798 C 0.0909 0.95773 0.71958 0.0
C799 C 0.07112 0.94032 0.70144 0.0
C800 C 0.05307 0.95173 0.66626 0.0
C801 C 0.11033 0.9451 0.75647 0.0
C802 C 0.12992 0.92307 0.75734 0.0
C803 C 0.10966 0.95454 0.79049 0.0
C804 C 0.08907 0.9773 0.79172 0.0
C805 C 0.05931 0.97447 0.77989 0.0
C806 C 0.04006 0.99547 0.78273 0.0
C807 C 0.05033 0.01924 0.79771 0.0
C808 C 0.07984 0.02232 0.80932 0.0
C809 C 0.09918 0.00143 0.80644 0.0
H810 H 0.03544 0.03518 0.80063 0.0
H811 H 0.22577 0.83017 0.78587 0.0
loop_
_geom_bond_atom_site_label_1
_geom_bond_atom_site_label_2
_geom_bond_distance
_geom_bond_site_symmetry_2
_ccdc_geom_bond_type
O0 Cd1 2.300 1_556 S
O0 C7 1.275 . S
Cd1 O0 2.300 1_554 S
Cd1 O9 2.381 . S
Cd1 O10 2.378 . S
O2 Cd3 2.385 . S
O2 C7 1.255 1_554 S
Cd3 O2 2.385 . S
Cd3 O4 2.317 . S
O4 Cd3 2.317 . S
O4 C5 1.232 . S
C5 O4 1.232 . S
C5 O6 1.218 . S
O6 C5 1.218 . S
C7 O0 1.275 . S
C7 O2 1.255 1_556 S
C8 O9 1.258 . S
C8 O10 1.256 . S
O9 Cd1 2.381 . S
O9 C8 1.258 . S
O10 Cd1 2.378 . S
O10 C8 1.256 . S
O11 Cd12 2.300 . S
O11 C18 1.275 . S
Cd12 O11 2.300 . S
Cd12 O20 2.381 . S
Cd12 O21 2.378 . S
O13 Cd14 2.385 . S
O13 C18 1.255 . S
Cd14 O13 2.385 . S
Cd14 O15 2.317 . S
O15 Cd14 2.317 . S
O15 C16 1.232 . S
C16 O15 1.232 . S
C16 O17 1.218 . S
O17 C16 1.218 . S
C18 O11 1.275 . S
C18 O13 1.255 . S
C19 O20 1.258 . S
C19 O21 1.256 . S
O20 Cd12 2.381 . S
O20 C19 1.258 . S
O21 Cd12 2.378 . S
O21 C19 1.256 . S
O22 Cd23 2.300 . S
O22 C29 1.275 . S
Cd23 O22 2.300 . S
Cd23 O31 2.381 . S
Cd23 O32 2.378 . S
O24 Cd25 2.385 . S
O24 C29 1.255 . S
Cd25 O24 2.385 . S
Cd25 O26 2.317 1_554 S
O26 Cd25 2.317 1_556 S
O26 C27 1.232 . S
C27 O26 1.232 . S
C27 O28 1.218 1_556 S
O28 C27 1.218 1_554 S
C29 O22 1.275 . S
C29 O24 1.255 . S
C30 O31 1.258 . S
C30 O32 1.256 . S
O31 Cd23 2.381 . S
O31 C30 1.258 . S
O32 Cd23 2.378 . S
O32 C30 1.256 . S
O33 Cd34 2.300 . S
O33 C40 1.275 . S
Cd34 O33 2.300 . S
Cd34 O42 2.381 . S
Cd34 O43 2.378 . S
O35 Cd36 2.385 . S
O35 C40 1.255 . S
Cd36 O35 2.385 . S
Cd36 O37 2.317 . S
O37 Cd36 2.317 . S
O37 C38 1.232 . S
C38 O37 1.232 . S
C38 O39 1.218 . S
O39 C38 1.218 . S
C40 O33 1.275 . S
C40 O35 1.255 . S
C41 O42 1.258 . S
C41 O43 1.256 . S
O42 Cd34 2.381 . S
O42 C41 1.258 . S
O43 Cd34 2.378 . S
O43 C41 1.256 . S
Eu44 N73 2.600 . S
Eu44 N79 2.562 . S
Eu44 O88 2.462 . S
Eu44 O89 2.373 . S
Eu44 O91 2.432 . S
Eu44 O92 2.291 1_565 S
Eu44 O96 2.316 1_465 S
Eu44 O99 2.372 1_455 S
Eu44 C108 2.787 . S
C45 N46 1.365 . S
C45 C48 1.405 . S
C45 C52 1.448 . S
N46 C45 1.365 . S
N46 C49 1.319 1_655 S
N46 Eu55 2.600 . S
C47 C49 1.397 . S
C47 C50 1.367 1_455 S
C47 H67 0.931 . S
C48 C45 1.405 . S
C48 C50 1.403 . S
C48 C54 1.439 . S
C49 N46 1.319 1_455 S
C49 C47 1.397 . S
C49 H60 0.930 . S
C50 C47 1.367 1_655 S
C50 C48 1.403 . S
C50 H71 0.929 . S
C51 C52 1.430 . S
C51 C53 1.387 . S
C51 C57 1.404 . S
C52 C45 1.448 . S
C52 C51 1.430 . S
C52 N56 1.351 . S
C53 C51 1.387 . S
C53 C54 1.374 . S
C53 H68 0.931 . S
C54 C48 1.439 . S
C54 C53 1.374 . S
C54 H69 0.931 . S
Eu55 N46 2.600 . S
Eu55 N56 2.562 . S
Eu55 O90 2.335 1_655 S
Eu55 O93 2.372 1_655 S
Eu55 O94 2.462 . S
Eu55 O95 2.373 . S
Eu55 O97 2.432 . S
Eu55 O98 2.291 1_545 S
Eu55 C119 2.787 . S
N56 C52 1.351 . S
N56 Eu55 2.562 . S
N56 C58 1.325 . S
C57 C51 1.404 . S
C57 C59 1.366 . S
C57 H65 0.930 . S
C58 N56 1.325 . S
C58 C59 1.416 . S
C58 H64 0.929 . S
C59 C57 1.366 . S
C59 C58 1.416 . S
C59 H61 0.930 . S
H60 C49 0.930 . S
H61 C59 0.930 . S
H62 C77 0.930 1_655 S
H63 C84 0.930 . S
H64 C58 0.929 . S
H65 C57 0.930 . S
H66 C80 0.929 . S
H67 C47 0.931 . S
H68 C53 0.931 . S
H69 C54 0.931 . S
H70 C75 0.931 1_655 S
H71 C50 0.929 . S
H72 C83 0.930 . S
N73 Eu44 2.600 . S
N73 C74 1.365 . S
N73 C77 1.319 . S
C74 N73 1.365 . S
C74 C76 1.405 . S
C74 C82 1.448 . S
C75 H70 0.931 1_455 S
C75 C77 1.397 . S
C75 C78 1.367 . S
C76 C74 1.405 . S
C76 C78 1.403 . S
C76 C109 1.439 . S
C77 H62 0.930 1_455 S
C77 N73 1.319 . S
C77 C75 1.397 . S
C78 C75 1.367 . S
C78 C76 1.403 . S
C78 H85 0.929 . S
N79 Eu44 2.562 . S
N79 C80 1.325 . S
N79 C82 1.351 . S
C80 H66 0.929 . S
C80 N79 1.325 . S
C80 C84 1.416 . S
C81 C82 1.430 . S
C81 C83 1.404 . S
C81 C110 1.387 . S
C82 C74 1.448 . S
C82 N79 1.351 . S
C82 C81 1.430 . S
C83 H72 0.930 . S
C83 C81 1.404 . S
C83 C84 1.366 . S
C84 H63 0.930 . S
C84 C80 1.416 . S
C84 C83 1.366 . S
H85 C78 0.929 . S
H86 C109 0.931 . S
H87 C110 0.931 . S
O88 Eu44 2.462 . S
O88 C108 1.252 . S
O89 Eu44 2.373 . S
O89 C100 1.249 . S
O90 Eu55 2.335 1_455 S
O90 C100 1.264 1_545 S
O91 Eu44 2.432 . S
O91 C108 1.268 . S
O92 Eu44 2.291 1_545 S
O92 C107 1.255 . S
O93 Eu55 2.372 1_455 S
O93 C107 1.257 . S
O94 Eu55 2.462 . S
O94 C119 1.252 . S
O95 Eu55 2.373 . S
O95 C111 1.249 . S
O96 Eu44 2.316 1_645 S
O96 C111 1.294 . S
O97 Eu55 2.432 . S
O97 C119 1.268 . S
O98 Eu55 2.291 1_565 S
O98 C118 1.255 . S
O99 Eu44 2.372 1_655 S
O99 C118 1.257 . S
C100 O89 1.249 . S
C100 O90 1.264 1_565 S
C101 C104 1.382 . S
C101 C106 1.390 . S
C101 C108 1.506 . S
C102 C103 1.398 . S
C102 C106 1.392 . S
C103 C102 1.398 . S
C103 C105 1.372 . S
C103 H120 0.931 . S
C104 C101 1.382 . S
C104 C105 1.390 . S
C104 H121 0.931 . S
C105 C103 1.372 . S
C105 C104 1.390 . S
C105 H122 0.929 . S
C106 C101 1.390 . S
C106 C102 1.392 . S
C106 H123 0.930 . S
C107 O92 1.255 . S
C107 O93 1.257 . S
C108 Eu44 2.787 . S
C108 O88 1.252 . S
C108 O91 1.268 . S
C108 C101 1.506 . S
C109 C76 1.439 . S
C109 H86 0.931 . S
C109 C110 1.374 . S
C110 C81 1.387 . S
C110 H87 0.931 . S
C110 C109 1.374 . S
C111 O95 1.249 . S
C111 O96 1.294 . S
C112 C115 1.382 . S
C112 C116 1.390 . S
C112 C119 1.506 . S
C113 C114 1.398 . S
C113 C116 1.392 . S
C114 C113 1.398 . S
C114 C117 1.372 . S
C114 H124 0.931 . S
C115 C112 1.382 . S
C115 C117 1.390 . S
C115 H125 0.931 . S
C116 C112 1.390 . S
C116 C113 1.392 . S
C116 H126 0.930 . S
C117 C114 1.372 . S
C117 C115 1.390 . S
C117 H127 0.929 . S
C118 O98 1.255 . S
C118 O99 1.257 . S
C119 Eu55 2.787 . S
C119 O94 1.252 . S
C119 O97 1.268 . S
C119 C112 1.506 . S
H120 C103 0.931 . S
H121 C104 0.931 . S
H122 C105 0.929 . S
H123 C106 0.930 . S
H124 C114 0.931 . S
H125 C115 0.931 . S
H126 C116 0.930 . S
H127 C117 0.929 . S
Eu128 N157 2.600 . S
Eu128 N163 2.562 1_556 S
Eu128 O172 2.462 . S
Eu128 O173 2.373 1_556 S
Eu128 O175 2.432 . S
Eu128 O176 2.291 1_556 S
Eu128 O180 2.335 . S
Eu128 O183 2.372 . S
Eu128 C192 2.787 . S
C129 N130 1.365 . S
C129 C132 1.405 . S
C129 C136 1.448 . S
N130 C129 1.365 . S
N130 C133 1.319 . S
N130 Eu139 2.600 . S
C131 C133 1.397 . S
C131 C134 1.367 . S
C131 H151 0.931 . S
C132 C129 1.405 . S
C132 C134 1.403 . S
C132 C138 1.439 . S
C133 N130 1.319 . S
C133 C131 1.397 . S
C133 H144 0.930 . S
C134 C131 1.367 . S
C134 C132 1.403 . S
C134 H155 0.929 . S
C135 C136 1.430 . S
C135 C137 1.387 . S
C135 C141 1.404 . S
C136 C129 1.448 . S
C136 C135 1.430 . S
C136 N140 1.351 . S
C137 C135 1.387 . S
C137 C138 1.374 . S
C137 H152 0.931 . S
C138 C132 1.439 . S
C138 C137 1.374 . S
C138 H153 0.931 . S
Eu139 N130 2.600 . S
Eu139 N140 2.562 . S
Eu139 O174 2.335 . S
Eu139 O177 2.372 . S
Eu139 O178 2.462 . S
Eu139 O179 2.373 1_554 S
Eu139 O181 2.432 . S
Eu139 O182 2.291 . S
Eu139 C203 2.787 . S
N140 C136 1.351 . S
N140 Eu139 2.562 . S
N140 C142 1.325 . S
C141 C135 1.404 . S
C141 C143 1.366 . S
C141 H149 0.930 . S
C142 N140 1.325 . S
C142 C143 1.416 . S
C142 H148 0.929 . S
C143 C141 1.366 . S
C143 C142 1.416 . S
C143 H145 0.930 . S
H144 C133 0.930 . S
H145 C143 0.930 . S
H146 C161 0.930 . S
H147 C168 0.930 . S
H148 C142 0.929 . S
H149 C141 0.930 . S
H150 C164 0.929 . S
H151 C131 0.931 . S
H152 C137 0.931 . S
H153 C138 0.931 . S
H154 C159 0.931 . S
H155 C134 0.929 . S
H156 C167 0.930 . S
N157 Eu128 2.600 . S
N157 C158 1.365 1_556 S
N157 C161 1.319 . S
C158 N157 1.365 1_554 S
C158 C160 1.405 . S
C158 C166 1.448 . S
C159 H154 0.931 . S
C159 C161 1.397 . S
C159 C162 1.367 . S
C160 C158 1.405 . S
C160 C162 1.403 1_554 S
C160 C193 1.439 . S
C161 H146 0.930 . S
C161 N157 1.319 . S
C161 C159 1.397 . S
C162 C159 1.367 . S
C162 C160 1.403 1_556 S
C162 H169 0.929 1_556 S
N163 Eu128 2.562 1_554 S
N163 C164 1.325 . S
N163 C166 1.351 . S
C164 H150 0.929 . S
C164 N163 1.325 . S
C164 C168 1.416 . S
C165 C166 1.430 . S
C165 C167 1.404 . S
C165 C194 1.387 . S
C166 C158 1.448 . S
C166 N163 1.351 . S
C166 C165 1.430 . S
C167 H156 0.930 . S
C167 C165 1.404 . S
C167 C168 1.366 . S
C168 H147 0.930 . S
C168 C164 1.416 . S
C168 C167 1.366 . S
H169 C162 0.929 1_554 S
H170 C193 0.931 . S
H171 C194 0.931 . S
O172 Eu128 2.462 . S
O172 C192 1.252 . S
O173 Eu128 2.373 1_554 S
O173 C184 1.249 . S
O174 Eu139 2.335 . S
O174 C184 1.264 . S
O175 Eu128 2.432 . S
O175 C192 1.268 . S
O176 Eu128 2.291 1_554 S
O176 C191 1.255 . S
O177 Eu139 2.372 . S
O177 C191 1.257 . S
O178 Eu139 2.462 . S
O178 C203 1.252 . S
O179 Eu139 2.373 1_556 S
O179 C195 1.249 . S
O180 Eu128 2.335 . S
O180 C195 1.264 . S
O181 Eu139 2.432 . S
O181 C203 1.268 . S
O182 Eu139 2.291 . S
O182 C202 1.255 . S
O183 Eu128 2.372 . S
O183 C202 1.257 1_556 S
C184 O173 1.249 . S
C184 O174 1.264 . S
C185 C188 1.382 . S
C185 C190 1.390 . S
C185 C192 1.506 . S
C186 C187 1.398 . S
C186 C190 1.392 . S
C187 C186 1.398 . S
C187 C189 1.372 . S
C187 H204 0.931 . S
C188 C185 1.382 . S
C188 C189 1.390 . S
C188 H205 0.931 . S
C189 C187 1.372 . S
C189 C188 1.390 . S
C189 H206 0.929 . S
C190 C185 1.390 . S
C190 C186 1.392 . S
C190 H207 0.930 . S
C191 O176 1.255 . S
C191 O177 1.257 . S
C192 Eu128 2.787 . S
C192 O172 1.252 . S
C192 O175 1.268 . S
C192 C185 1.506 . S
C193 C160 1.439 . S
C193 H170 0.931 . S
C193 C194 1.374 . S
C194 C165 1.387 . S
C194 H171 0.931 . S
C194 C193 1.374 . S
C195 O179 1.249 . S
C195 O180 1.264 . S
C196 C199 1.382 . S
C196 C200 1.390 . S
C196 C203 1.506 . S
C197 C198 1.398 . S
C197 C200 1.392 . S
C198 C197 1.398 . S
C198 C201 1.372 . S
C198 H208 0.931 . S
C199 C196 1.382 . S
C199 C201 1.390 . S
C199 H209 0.931 . S
C200 C196 1.390 . S
C200 C197 1.392 . S
C200 H210 0.930 . S
C201 C198 1.372 . S
C201 C199 1.390 . S
C201 H211 0.929 . S
C202 O182 1.255 . S
C202 O183 1.257 1_554 S
C203 Eu139 2.787 . S
C203 O178 1.252 . S
C203 O181 1.268 . S
C203 C196 1.506 . S
H204 C187 0.931 . S
H205 C188 0.931 . S
H206 C189 0.929 . S
H207 C190 0.930 . S
H208 C198 0.931 . S
H209 C199 0.931 . S
H210 C200 0.930 . S
H211 C201 0.929 . S
H212 C230 0.951 . S
H213 C232 0.951 . S
H214 C234 0.950 . S
H215 C235 0.950 . S
H216 C237 0.950 . S
H217 C240 0.950 . S
H218 C241 0.950 . S
H219 C243 0.950 . S
H220 C244 0.950 . S
H221 C245 0.951 . S
H222 C247 0.951 . S
H223 C249 0.950 . S
H224 C250 0.950 . S
H225 C252 0.950 . S
H226 C255 0.950 . S
H227 C256 0.950 . S
H228 C258 0.950 . S
H229 C259 0.950 . S
C230 H212 0.951 . S
C230 C231 1.366 . S
C230 C232 1.388 . S
C231 C230 1.366 . S
C231 C235 1.385 . S
C232 H213 0.951 . S
C232 C230 1.388 . S
C232 C233 1.366 . S
C233 C232 1.366 . S
C233 C234 1.414 . S
C233 C236 1.499 . S
C234 H214 0.950 . S
C234 C233 1.414 . S
C234 C235 1.374 . S
C235 H215 0.950 . S
C235 C231 1.385 . S
C235 C234 1.374 . S
C236 C233 1.499 . S
C236 C237 1.373 . S
C236 C238 1.389 . S
C237 H216 0.950 . S
C237 C236 1.373 . S
C237 C253 1.377 . S
C238 C236 1.389 . S
C238 C239 1.524 . S
C238 C252 1.377 . S
C239 C238 1.524 . S
C239 C240 1.397 . S
C239 C244 1.363 . S
C240 H217 0.950 . S
C240 C239 1.397 . S
C240 C241 1.334 . S
C241 H218 0.950 . S
C241 C240 1.334 . S
C241 C242 1.287 . S
C242 C241 1.287 . S
C242 C243 1.524 . S
C242 H261 0.913 . S
C243 H219 0.950 . S
C243 C242 1.524 . S
C243 C244 1.415 . S
C244 H220 0.950 . S
C244 C239 1.363 . S
C244 C243 1.415 . S
C245 H221 0.951 . S
C245 C246 1.366 . S
C245 C247 1.388 . S
C246 C245 1.366 . S
C246 C250 1.385 . S
C247 H222 0.951 . S
C247 C245 1.388 . S
C247 C248 1.366 . S
C248 C247 1.366 . S
C248 C249 1.414 . S
C248 C251 1.499 . S
C249 H223 0.950 . S
C249 C248 1.414 . S
C249 C250 1.374 . S
C250 H224 0.950 . S
C250 C246 1.385 . S
C250 C249 1.374 . S
C251 C248 1.499 . S
C251 C252 1.373 . S
C251 C253 1.389 . S
C252 H225 0.950 . S
C252 C238 1.377 . S
C252 C251 1.373 . S
C253 C237 1.377 . S
C253 C251 1.389 . S
C253 C254 1.524 . S
C254 C253 1.524 . S
C254 C255 1.397 . S
C254 C259 1.363 . S
C255 H226 0.950 . S
C255 C254 1.397 . S
C255 C256 1.334 . S
C256 H227 0.950 . S
C256 C255 1.334 . S
C256 C257 1.287 . S
C257 C256 1.287 . S
C257 C258 1.524 . S
C257 H260 0.999 . S
C258 H228 0.950 . S
C258 C257 1.524 . S
C258 C259 1.415 . S
C259 H229 0.950 . S
C259 C254 1.363 . S
C259 C258 1.415 . S
H260 C257 0.999 . S
H261 C242 0.913 . S
H262 C280 0.951 . S
H263 C282 0.951 . S
H264 C284 0.950 1_556 S
H265 C285 0.950 1_556 S
H266 C287 0.950 . S
H267 C290 0.943 1_556 S
H268 C291 0.950 . S
H269 C293 0.950 . S
H270 C294 0.950 . S
H271 C295 0.957 . S
H272 C297 0.951 1_556 S
H273 C299 0.950 . S
H274 C300 0.950 . S
H275 C302 0.950 . S
H276 C305 0.950 . S
H277 C306 0.950 . S
H278 C308 0.938 1_556 S
H279 C309 0.950 1_556 S
C280 H262 0.951 . S
C280 C281 1.366 . S
C280 C282 1.388 . S
C281 C280 1.366 . S
C281 C285 1.385 . S
C282 H263 0.951 . S
C282 C280 1.388 . S
C282 C283 1.366 . S
C283 C282 1.366 . S
C283 C284 1.414 . S
C283 C286 1.499 . S
C284 H264 0.950 1_554 S
C284 C283 1.414 . S
C284 C285 1.374 . S
C285 H265 0.950 1_554 S
C285 C281 1.385 . S
C285 C284 1.374 . S
C286 C283 1.499 . S
C286 C287 1.373 . S
C286 C288 1.389 . S
C287 H266 0.950 . S
C287 C286 1.373 . S
C287 C303 1.377 . S
C288 C286 1.389 . S
C288 C289 1.524 . S
C288 C302 1.377 . S
C289 C288 1.524 . S
C289 C290 1.404 . S
C289 C294 1.363 . S
C290 H267 0.943 1_554 S
C290 C289 1.404 . S
C290 C291 1.333 1_554 S
C291 H268 0.950 . S
C291 C290 1.333 1_556 S
C291 C292 1.287 1_556 S
C292 C291 1.287 1_554 S
C292 C293 1.524 . S
C292 H311 0.913 . S
C293 H269 0.950 . S
C293 C292 1.524 . S
C293 C294 1.415 . S
C294 H270 0.950 . S
C294 C289 1.363 . S
C294 C293 1.415 . S
C295 H271 0.957 . S
C295 C296 1.362 1_556 S
C295 C297 1.385 1_556 S
C296 C295 1.362 1_554 S
C296 C300 1.385 . S
C297 H272 0.951 1_554 S
C297 C295 1.385 1_554 S
C297 C298 1.366 . S
C298 C297 1.366 . S
C298 C299 1.414 . S
C298 C301 1.499 . S
C299 H273 0.950 . S
C299 C298 1.414 . S
C299 C300 1.374 . S
C300 H274 0.950 . S
C300 C296 1.385 . S
C300 C299 1.374 . S
C301 C298 1.499 . S
C301 C302 1.373 . S
C301 C303 1.389 . S
C302 H275 0.950 . S
C302 C288 1.377 . S
C302 C301 1.373 . S
C303 C287 1.377 . S
C303 C301 1.389 . S
C303 C304 1.524 . S
C304 C303 1.524 . S
C304 C305 1.397 . S
C304 C309 1.363 . S
C305 H276 0.950 . S
C305 C304 1.397 . S
C305 C306 1.334 . S
C306 H277 0.950 . S
C306 C305 1.334 . S
C306 C307 1.287 . S
C307 C306 1.287 . S
C307 C308 1.524 . S
C307 H310 0.999 . S
C308 H278 0.938 1_554 S
C308 C307 1.524 . S
C308 C309 1.415 . S
C309 H279 0.950 1_554 S
C309 C304 1.363 . S
C309 C308 1.415 . S
H310 C307 0.999 . S
H311 C292 0.913 . S
H312 C330 0.951 . S
H313 C332 0.951 . S
H314 C334 0.950 . S
H315 C335 0.950 . S
H316 C337 0.950 . S
H317 C340 0.950 . S
H318 C341 0.950 . S
H319 C343 0.950 . S
H320 C344 0.950 . S
H321 C345 0.951 . S
H322 C347 0.951 . S
H323 C349 0.950 . S
H324 C350 0.950 . S
H325 C352 0.950 . S
H326 C355 0.950 . S
H327 C356 0.950 . S
H328 C358 0.950 . S
H329 C359 0.950 . S
C330 H312 0.951 . S
C330 C331 1.366 . S
C330 C332 1.388 . S
C331 C330 1.366 . S
C331 C335 1.385 . S
C332 H313 0.951 . S
C332 C330 1.388 . S
C332 C333 1.366 . S
C333 C332 1.366 . S
C333 C334 1.414 . S
C333 C336 1.499 . S
C334 H314 0.950 . S
C334 C333 1.414 . S
C334 C335 1.374 . S
C335 H315 0.950 . S
C335 C331 1.385 . S
C335 C334 1.374 . S
C336 C333 1.499 . S
C336 C337 1.373 . S
C336 C338 1.389 . S
C337 H316 0.950 . S
C337 C336 1.373 . S
C337 C353 1.377 . S
C338 C336 1.389 . S
C338 C339 1.524 . S
C338 C352 1.377 . S
C339 C338 1.524 . S
C339 C340 1.397 . S
C339 C344 1.363 . S
C340 H317 0.950 . S
C340 C339 1.397 . S
C340 C341 1.334 . S
C341 H318 0.950 . S
C341 C340 1.334 . S
C341 C342 1.287 . S
C342 C341 1.287 . S
C342 C343 1.524 . S
C342 H361 0.913 . S
C343 H319 0.950 . S
C343 C342 1.524 . S
C343 C344 1.415 . S
C344 H320 0.950 . S
C344 C339 1.363 . S
C344 C343 1.415 . S
C345 H321 0.951 . S
C345 C346 1.366 . S
C345 C347 1.388 . S
C346 C345 1.366 . S
C346 C350 1.385 . S
C347 H322 0.951 . S
C347 C345 1.388 . S
C347 C348 1.366 . S
C348 C347 1.366 . S
C348 C349 1.414 . S
C348 C351 1.499 . S
C349 H323 0.950 . S
C349 C348 1.414 . S
C349 C350 1.374 . S
C350 H324 0.950 . S
C350 C346 1.385 . S
C350 C349 1.374 . S
C351 C348 1.499 . S
C351 C352 1.373 . S
C351 C353 1.389 . S
C352 H325 0.950 . S
C352 C338 1.377 . S
C352 C351 1.373 . S
C353 C337 1.377 . S
C353 C351 1.389 . S
C353 C354 1.524 . S
C354 C353 1.524 . S
C354 C355 1.397 . S
C354 C359 1.363 . S
C355 H326 0.950 . S
C355 C354 1.397 . S
C355 C356 1.334 . S
C356 H327 0.950 . S
C356 C355 1.334 . S
C356 C357 1.287 . S
C357 C356 1.287 . S
C357 C358 1.524 . S
C357 H360 0.999 . S
C358 H328 0.950 . S
C358 C357 1.524 . S
C358 C359 1.415 . S
C359 H329 0.950 . S
C359 C354 1.363 . S
C359 C358 1.415 . S
H360 C357 0.999 . S
H361 C342 0.913 . S
H362 C380 0.951 1_556 S
H363 C382 0.951 1_556 S
H364 C384 0.950 . S
H365 C385 0.950 . S
H366 C387 0.950 . S
H367 C390 0.950 . S
H368 C391 0.950 . S
H369 C393 0.950 . S
H370 C394 0.950 . S
H371 C395 0.951 . S
H372 C397 0.951 . S
H373 C399 0.950 . S
H374 C400 0.950 . S
H375 C402 0.950 . S
H376 C405 0.950 . S
H377 C406 0.950 . S
H378 C408 0.950 . S
H379 C409 0.950 . S
C380 H362 0.951 1_554 S
C380 C381 1.366 . S
C380 C382 1.388 . S
C381 C380 1.366 . S
C381 C385 1.385 . S
C382 H363 0.951 1_554 S
C382 C380 1.388 . S
C382 C383 1.366 . S
C383 C382 1.366 . S
C383 C384 1.414 . S
C383 C386 1.499 . S
C384 H364 0.950 . S
C384 C383 1.414 . S
C384 C385 1.374 . S
C385 H365 0.950 . S
C385 C381 1.385 . S
C385 C384 1.374 . S
C386 C383 1.499 . S
C386 C387 1.373 . S
C386 C388 1.389 1_554 S
C387 H366 0.950 . S
C387 C386 1.373 . S
C387 C403 1.377 . S
C388 C386 1.389 1_556 S
C388 C389 1.524 . S
C388 C402 1.377 . S
C389 C388 1.524 . S
C389 C390 1.397 . S
C389 C394 1.363 . S
C390 H367 0.950 . S
C390 C389 1.397 . S
C390 C391 1.334 . S
C391 H368 0.950 . S
C391 C390 1.334 . S
C391 C392 1.287 . S
C392 C391 1.287 . S
C392 C393 1.524 . S
C392 H411 0.913 . S
C393 H369 0.950 . S
C393 C392 1.524 . S
C393 C394 1.415 . S
C394 H370 0.950 . S
C394 C389 1.363 . S
C394 C393 1.415 . S
C395 H371 0.951 . S
C395 C396 1.366 . S
C395 C397 1.388 . S
C396 C395 1.366 . S
C396 C400 1.385 1_554 S
C397 H372 0.951 . S
C397 C395 1.388 . S
C397 C398 1.366 . S
C398 C397 1.366 . S
C398 C399 1.414 1_554 S
C398 C401 1.499 . S
C399 H373 0.950 . S
C399 C398 1.414 1_556 S
C399 C400 1.374 . S
C400 H374 0.950 . S
C400 C396 1.385 1_556 S
C400 C399 1.374 . S
C401 C398 1.499 . S
C401 C402 1.373 1_554 S
C401 C403 1.389 . S
C402 H375 0.950 . S
C402 C388 1.377 . S
C402 C401 1.373 1_556 S
C403 C387 1.377 . S
C403 C401 1.389 . S
C403 C404 1.524 . S
C404 C403 1.524 . S
C404 C405 1.397 . S
C404 C409 1.363 . S
C405 H376 0.950 . S
C405 C404 1.397 . S
C405 C406 1.334 . S
C406 H377 0.950 . S
C406 C405 1.334 . S
C406 C407 1.287 . S
C407 C406 1.287 . S
C407 C408 1.524 . S
C407 H410 0.999 . S
C408 H378 0.950 . S
C408 C407 1.524 . S
C408 C409 1.415 . S
C409 H379 0.950 . S
C409 C404 1.363 . S
C409 C408 1.415 . S
H410 C407 0.999 . S
H411 C392 0.913 . S
H412 C430 0.951 . S
H413 C432 0.951 . S
H414 C434 0.950 . S
H415 C435 0.950 . S
H416 C437 0.950 . S
H417 C440 0.950 . S
H418 C441 0.950 . S
H419 C443 0.950 . S
H420 C444 0.950 . S
H421 C445 0.951 . S
H422 C447 0.951 . S
H423 C449 0.950 . S
H424 C450 0.950 . S
H425 C452 0.950 . S
H426 C455 0.950 . S
H427 C456 0.950 . S
H428 C458 0.950 . S
H429 C459 0.950 . S
C430 H412 0.951 . S
C430 C431 1.366 . S
C430 C432 1.388 . S
C431 C430 1.366 . S
C431 C435 1.385 . S
C432 H413 0.951 . S
C432 C430 1.388 . S
C432 C433 1.366 . S
C433 C432 1.366 . S
C433 C434 1.414 . S
C433 C436 1.499 . S
C434 H414 0.950 . S
C434 C433 1.414 . S
C434 C435 1.374 . S
C435 H415 0.950 . S
C435 C431 1.385 . S
C435 C434 1.374 . S
C436 C433 1.499 . S
C436 C437 1.373 . S
C436 C438 1.389 . S
C437 H416 0.950 . S
C437 C436 1.373 . S
C437 C453 1.377 . S
C438 C436 1.389 . S
C438 C439 1.524 . S
C438 C452 1.377 . S
C439 C438 1.524 . S
C439 C440 1.397 . S
C439 C444 1.363 . S
C440 H417 0.950 . S
C440 C439 1.397 . S
C440 C441 1.334 . S
C441 H418 0.950 . S
C441 C440 1.334 . S
C441 C442 1.287 . S
C442 C441 1.287 . S
C442 C443 1.524 . S
C442 H461 0.913 . S
C443 H419 0.950 . S
C443 C442 1.524 . S
C443 C444 1.415 . S
C444 H420 0.950 . S
C444 C439 1.363 . S
C444 C443 1.415 . S
C445 H421 0.951 . S
C445 C446 1.366 . S
C445 C447 1.388 . S
C446 C445 1.366 . S
C446 C450 1.385 . S
C447 H422 0.951 . S
C447 C445 1.388 . S
C447 C448 1.366 . S
C448 C447 1.366 . S
C448 C449 1.414 . S
C448 C451 1.499 . S
C449 H423 0.950 . S
C449 C448 1.414 . S
C449 C450 1.374 . S
C450 H424 0.950 . S
C450 C446 1.385 . S
C450 C449 1.374 . S
C451 C448 1.499 . S
C451 C452 1.373 . S
C451 C453 1.389 . S
C452 H425 0.950 . S
C452 C438 1.377 . S
C452 C451 1.373 . S
C453 C437 1.377 . S
C453 C451 1.389 . S
C453 C454 1.524 . S
C454 C453 1.524 . S
C454 C455 1.397 . S
C454 C459 1.363 . S
C455 H426 0.950 . S
C455 C454 1.397 . S
C455 C456 1.334 . S
C456 H427 0.950 . S
C456 C455 1.334 . S
C456 C457 1.287 . S
C457 C456 1.287 . S
C457 C458 1.524 . S
C457 H460 0.999 . S
C458 H428 0.950 . S
C458 C457 1.524 . S
C458 C459 1.415 . S
C459 H429 0.950 . S
C459 C454 1.363 . S
C459 C458 1.415 . S
H460 C457 0.999 . S
H461 C442 0.913 . S
H462 C480 0.951 . S
H463 C482 0.951 . S
H464 C484 0.950 . S
H465 C485 0.950 . S
H466 C487 0.950 . S
H467 C490 0.950 . S
H468 C491 0.950 . S
H469 C493 0.950 . S
H470 C494 0.950 . S
H471 C495 0.951 . S
H472 C497 0.951 . S
H473 C499 0.950 . S
H474 C500 0.950 . S
H475 C502 0.950 . S
H476 C505 0.950 . S
H477 C506 0.950 . S
H478 C508 0.950 . S
H479 C509 0.950 . S
C480 H462 0.951 . S
C480 C481 1.366 . S
C480 C482 1.388 . S
C481 C480 1.366 . S
C481 C485 1.385 . S
C482 H463 0.951 . S
C482 C480 1.388 . S
C482 C483 1.366 . S
C483 C482 1.366 . S
C483 C484 1.414 . S
C483 C486 1.499 . S
C484 H464 0.950 . S
C484 C483 1.414 . S
C484 C485 1.374 . S
C485 H465 0.950 . S
C485 C481 1.385 . S
C485 C484 1.374 . S
C486 C483 1.499 . S
C486 C487 1.373 . S
C486 C488 1.389 . S
C487 H466 0.950 . S
C487 C486 1.373 . S
C487 C503 1.377 . S
C488 C486 1.389 . S
C488 C489 1.524 . S
C488 C502 1.377 . S
C489 C488 1.524 . S
C489 C490 1.397 . S
C489 C494 1.363 . S
C490 H467 0.950 . S
C490 C489 1.397 . S
C490 C491 1.334 . S
C491 H468 0.950 . S
C491 C490 1.334 . S
C491 C492 1.287 . S
C492 C491 1.287 . S
C492 C493 1.524 . S
C492 H511 0.913 . S
C493 H469 0.950 . S
C493 C492 1.524 . S
C493 C494 1.415 . S
C494 H470 0.950 . S
C494 C489 1.363 . S
C494 C493 1.415 . S
C495 H471 0.951 . S
C495 C496 1.366 . S
C495 C497 1.388 . S
C496 C495 1.366 . S
C496 C500 1.385 . S
C497 H472 0.951 . S
C497 C495 1.388 . S
C497 C498 1.366 . S
C498 C497 1.366 . S
C498 C499 1.414 . S
C498 C501 1.499 . S
C499 H473 0.950 . S
C499 C498 1.414 . S
C499 C500 1.374 . S
C500 H474 0.950 . S
C500 C496 1.385 . S
C500 C499 1.374 . S
C501 C498 1.499 . S
C501 C502 1.373 . S
C501 C503 1.389 . S
C502 H475 0.950 . S
C502 C488 1.377 . S
C502 C501 1.373 . S
C503 C487 1.377 . S
C503 C501 1.389 . S
C503 C504 1.524 . S
C504 C503 1.524 . S
C504 C505 1.397 . S
C504 C509 1.363 . S
C505 H476 0.950 . S
C505 C504 1.397 . S
C505 C506 1.334 . S
C506 H477 0.950 . S
C506 C505 1.334 . S
C506 C507 1.287 . S
C507 C506 1.287 . S
C507 C508 1.524 . S
C507 H510 0.999 . S
C508 H478 0.950 . S
C508 C507 1.524 . S
C508 C509 1.415 . S
C509 H479 0.950 . S
C509 C504 1.363 . S
C509 C508 1.415 . S
H510 C507 0.999 . S
H511 C492 0.913 . S
H512 C530 0.951 . S
H513 C532 0.951 . S
H514 C534 0.950 . S
H515 C535 0.950 . S
H516 C537 0.950 . S
H517 C540 0.950 . S
H518 C541 0.950 . S
H519 C543 0.950 . S
H520 C544 0.950 . S
H521 C545 0.951 . S
H522 C547 0.951 . S
H523 C549 0.950 . S
H524 C550 0.950 . S
H525 C552 0.950 . S
H526 C555 0.950 . S
H527 C556 0.950 . S
H528 C558 0.950 . S
H529 C559 0.950 1_545 S
C530 H512 0.951 . S
C530 C531 1.366 . S
C530 C532 1.388 . S
C531 C530 1.366 . S
C531 C535 1.385 . S
C532 H513 0.951 . S
C532 C530 1.388 . S
C532 C533 1.366 . S
C533 C532 1.366 . S
C533 C534 1.414 . S
C533 C536 1.499 . S
C534 H514 0.950 . S
C534 C533 1.414 . S
C534 C535 1.374 . S
C535 H515 0.950 . S
C535 C531 1.385 . S
C535 C534 1.374 . S
C536 C533 1.499 . S
C536 C537 1.373 . S
C536 C538 1.389 . S
C537 H516 0.950 . S
C537 C536 1.373 . S
C537 C553 1.377 . S
C538 C536 1.389 . S
C538 C539 1.524 . S
C538 C552 1.377 . S
C539 C538 1.524 . S
C539 C540 1.397 . S
C539 C544 1.363 . S
C540 H517 0.950 . S
C540 C539 1.397 . S
C540 C541 1.334 . S
C541 H518 0.950 . S
C541 C540 1.334 . S
C541 C542 1.287 . S
C542 C541 1.287 . S
C542 C543 1.524 . S
C542 H561 0.913 . S
C543 H519 0.950 . S
C543 C542 1.524 . S
C543 C544 1.415 . S
C544 H520 0.950 . S
C544 C539 1.363 . S
C544 C543 1.415 . S
C545 H521 0.951 . S
C545 C546 1.366 . S
C545 C547 1.388 . S
C546 C545 1.366 . S
C546 C550 1.385 . S
C547 H522 0.951 . S
C547 C545 1.388 . S
C547 C548 1.366 . S
C548 C547 1.366 . S
C548 C549 1.414 . S
C548 C551 1.499 . S
C549 H523 0.950 . S
C549 C548 1.414 . S
C549 C550 1.374 . S
C550 H524 0.950 . S
C550 C546 1.385 . S
C550 C549 1.374 . S
C551 C548 1.499 . S
C551 C552 1.373 . S
C551 C553 1.389 . S
C552 H525 0.950 . S
C552 C538 1.377 . S
C552 C551 1.373 . S
C553 C537 1.377 . S
C553 C551 1.389 . S
C553 C554 1.524 . S
C554 C553 1.524 . S
C554 C555 1.397 . S
C554 C559 1.363 1_545 S
C555 H526 0.950 . S
C555 C554 1.397 . S
C555 C556 1.334 1_545 S
C556 H527 0.950 . S
C556 C555 1.334 1_565 S
C556 C557 1.287 . S
C557 C556 1.287 . S
C557 C558 1.524 . S
C557 H560 0.999 . S
C558 H528 0.950 . S
C558 C557 1.524 . S
C558 C559 1.415 . S
C559 H529 0.950 1_565 S
C559 C554 1.363 1_565 S
C559 C558 1.415 . S
H560 C557 0.999 . S
H561 C542 0.913 . S
H562 C580 0.951 . S
H563 C582 0.951 . S
H564 C584 0.950 . S
H565 C585 0.950 . S
H566 C587 0.950 . S
H567 C590 0.950 . S
H568 C591 0.950 . S
H569 C593 0.950 . S
H570 C594 0.950 . S
H571 C595 0.951 . S
H572 C597 0.951 . S
H573 C599 0.950 . S
H574 C600 0.950 . S
H575 C602 0.950 . S
H576 C605 0.950 . S
H577 C606 0.950 . S
H578 C608 0.950 . S
H579 C609 0.950 . S
C580 H562 0.951 . S
C580 C581 1.366 . S
C580 C582 1.388 . S
C581 C580 1.366 . S
C581 C585 1.385 . S
C582 H563 0.951 . S
C582 C580 1.388 . S
C582 C583 1.366 . S
C583 C582 1.366 . S
C583 C584 1.414 . S
C583 C586 1.499 . S
C584 H564 0.950 . S
C584 C583 1.414 . S
C584 C585 1.374 . S
C585 H565 0.950 . S
C585 C581 1.385 . S
C585 C584 1.374 . S
C586 C583 1.499 . S
C586 C587 1.373 . S
C586 C588 1.389 . S
C587 H566 0.950 . S
C587 C586 1.373 . S
C587 C603 1.377 . S
C588 C586 1.389 . S
C588 C589 1.524 . S
C588 C602 1.377 . S
C589 C588 1.524 . S
C589 C590 1.397 . S
C589 C594 1.363 . S
C590 H567 0.950 . S
C590 C589 1.397 . S
C590 C591 1.334 . S
C591 H568 0.950 . S
C591 C590 1.334 . S
C591 C592 1.287 . S
C592 C591 1.287 . S
C592 C593 1.524 . S
C592 H611 0.913 . S
C593 H569 0.950 . S
C593 C592 1.524 . S
C593 C594 1.415 . S
C594 H570 0.950 . S
C594 C589 1.363 . S
C594 C593 1.415 . S
C595 H571 0.951 . S
C595 C596 1.366 . S
C595 C597 1.388 . S
C596 C595 1.366 . S
C596 C600 1.385 . S
C597 H572 0.951 . S
C597 C595 1.388 . S
C597 C598 1.366 . S
C598 C597 1.366 . S
C598 C599 1.414 . S
C598 C601 1.499 . S
C599 H573 0.950 . S
C599 C598 1.414 . S
C599 C600 1.374 . S
C600 H574 0.950 . S
C600 C596 1.385 . S
C600 C599 1.374 . S
C601 C598 1.499 . S
C601 C602 1.373 . S
C601 C603 1.389 . S
C602 H575 0.950 . S
C602 C588 1.377 . S
C602 C601 1.373 . S
C603 C587 1.377 . S
C603 C601 1.389 . S
C603 C604 1.524 . S
C604 C603 1.524 . S
C604 C605 1.397 . S
C604 C609 1.363 . S
C605 H576 0.950 . S
C605 C604 1.397 . S
C605 C606 1.334 . S
C606 H577 0.950 . S
C606 C605 1.334 . S
C606 C607 1.287 . S
C607 C606 1.287 . S
C607 C608 1.524 . S
C607 H610 0.999 . S
C608 H578 0.950 . S
C608 C607 1.524 . S
C608 C609 1.415 . S
C609 H579 0.950 . S
C609 C604 1.363 . S
C609 C608 1.415 . S
H610 C607 0.999 . S
H611 C592 0.913 . S
H612 C630 0.951 . S
H613 C632 0.951 . S
H614 C634 0.950 . S
H615 C635 0.950 . S
H616 C637 0.950 . S
H617 C640 0.950 . S
H618 C641 0.950 . S
H619 C643 0.950 . S
H620 C644 0.950 . S
H621 C645 0.951 . S
H622 C647 0.951 . S
H623 C649 0.950 . S
H624 C650 0.950 . S
H625 C652 0.950 . S
H626 C655 0.950 . S
H627 C656 0.950 . S
H628 C658 0.950 . S
H629 C659 0.950 . S
C630 H612 0.951 . S
C630 C631 1.366 . S
C630 C632 1.388 . S
C631 C630 1.366 . S
C631 C635 1.385 . S
C632 H613 0.951 . S
C632 C630 1.388 . S
C632 C633 1.366 . S
C633 C632 1.366 . S
C633 C634 1.414 . S
C633 C636 1.499 . S
C634 H614 0.950 . S
C634 C633 1.414 . S
C634 C635 1.374 . S
C635 H615 0.950 . S
C635 C631 1.385 . S
C635 C634 1.374 . S
C636 C633 1.499 . S
C636 C637 1.373 . S
C636 C638 1.389 . S
C637 H616 0.950 . S
C637 C636 1.373 . S
C637 C653 1.377 . S
C638 C636 1.389 . S
C638 C639 1.524 . S
C638 C652 1.377 . S
C639 C638 1.524 . S
C639 C640 1.397 . S
C639 C644 1.363 . S
C640 H617 0.950 . S
C640 C639 1.397 . S
C640 C641 1.334 . S
C641 H618 0.950 . S
C641 C640 1.334 . S
C641 C642 1.287 . S
C642 C641 1.287 . S
C642 C643 1.524 . S
C642 H661 0.913 . S
C643 H619 0.950 . S
C643 C642 1.524 . S
C643 C644 1.415 . S
C644 H620 0.950 . S
C644 C639 1.363 . S
C644 C643 1.415 . S
C645 H621 0.951 . S
C645 C646 1.366 . S
C645 C647 1.388 . S
C646 C645 1.366 . S
C646 C650 1.385 . S
C647 H622 0.951 . S
C647 C645 1.388 . S
C647 C648 1.366 . S
C648 C647 1.366 . S
C648 C649 1.414 . S
C648 C651 1.499 . S
C649 H623 0.950 . S
C649 C648 1.414 . S
C649 C650 1.374 . S
C650 H624 0.950 . S
C650 C646 1.385 . S
C650 C649 1.374 . S
C651 C648 1.499 . S
C651 C652 1.373 . S
C651 C653 1.389 . S
C652 H625 0.950 . S
C652 C638 1.377 . S
C652 C651 1.373 . S
C653 C637 1.377 . S
C653 C651 1.389 . S
C653 C654 1.524 . S
C654 C653 1.524 . S
C654 C655 1.397 . S
C654 C659 1.363 . S
C655 H626 0.950 . S
C655 C654 1.397 . S
C655 C656 1.334 . S
C656 H627 0.950 . S
C656 C655 1.334 . S
C656 C657 1.287 . S
C657 C656 1.287 . S
C657 C658 1.524 . S
C657 H660 0.999 . S
C658 H628 0.950 . S
C658 C657 1.524 . S
C658 C659 1.415 . S
C659 H629 0.950 . S
C659 C654 1.363 . S
C659 C658 1.415 . S
H660 C657 0.999 . S
H661 C642 0.913 . S
H662 C680 0.951 . S
H663 C682 0.951 . S
H664 C684 0.950 . S
H665 C685 0.950 . S
H666 C687 0.950 . S
H667 C690 0.950 . S
H668 C691 0.950 . S
H669 C693 0.950 . S
H670 C694 0.950 . S
H671 C695 0.951 . S
H672 C697 0.951 . S
H673 C699 0.950 . S
H674 C700 0.950 . S
H675 C702 0.950 . S
H676 C705 0.950 . S
H677 C706 0.950 . S
H678 C708 0.950 . S
H679 C709 0.950 . S
C680 H662 0.951 . S
C680 C681 1.366 . S
C680 C682 1.388 . S
C681 C680 1.366 . S
C681 C685 1.385 . S
C682 H663 0.951 . S
C682 C680 1.388 . S
C682 C683 1.366 . S
C683 C682 1.366 . S
C683 C684 1.414 . S
C683 C686 1.499 . S
C684 H664 0.950 . S
C684 C683 1.414 . S
C684 C685 1.374 . S
C685 H665 0.950 . S
C685 C681 1.385 . S
C685 C684 1.374 . S
C686 C683 1.499 . S
C686 C687 1.373 . S
C686 C688 1.389 . S
C687 H666 0.950 . S
C687 C686 1.373 . S
C687 C703 1.377 . S
C688 C686 1.389 . S
C688 C689 1.524 . S
C688 C702 1.377 . S
C689 C688 1.524 . S
C689 C690 1.397 . S
C689 C694 1.363 . S
C690 H667 0.950 . S
C690 C689 1.397 . S
C690 C691 1.334 . S
C691 H668 0.950 . S
C691 C690 1.334 . S
C691 C692 1.287 . S
C692 C691 1.287 . S
C692 C693 1.524 . S
C692 H711 0.913 . S
C693 H669 0.950 . S
C693 C692 1.524 . S
C693 C694 1.415 . S
C694 H670 0.950 . S
C694 C689 1.363 . S
C694 C693 1.415 . S
C695 H671 0.951 . S
C695 C696 1.366 . S
C695 C697 1.388 . S
C696 C695 1.366 . S
C696 C700 1.385 . S
C697 H672 0.951 . S
C697 C695 1.388 . S
C697 C698 1.366 . S
C698 C697 1.366 . S
C698 C699 1.414 . S
C698 C701 1.499 . S
C699 H673 0.950 . S
C699 C698 1.414 . S
C699 C700 1.374 . S
C700 H674 0.950 . S
C700 C696 1.385 . S
C700 C699 1.374 . S
C701 C698 1.499 . S
C701 C702 1.373 . S
C701 C703 1.389 . S
C702 H675 0.950 . S
C702 C688 1.377 . S
C702 C701 1.373 . S
C703 C687 1.377 . S
C703 C701 1.389 . S
C703 C704 1.524 . S
C704 C703 1.524 . S
C704 C705 1.397 . S
C704 C709 1.363 . S
C705 H676 0.950 . S
C705 C704 1.397 . S
C705 C706 1.334 . S
C706 H677 0.950 . S
C706 C705 1.334 . S
C706 C707 1.287 . S
C707 C706 1.287 . S
C707 C708 1.524 . S
C707 H710 0.999 . S
C708 H678 0.950 . S
C708 C707 1.524 . S
C708 C709 1.415 . S
C709 H679 0.950 . S
C709 C704 1.363 . S
C709 C708 1.415 . S
H710 C707 0.999 . S
H711 C692 0.913 . S
H712 C730 0.951 . S
H713 C732 0.951 . S
H714 C734 0.950 . S
H715 C735 0.950 . S
H716 C737 0.950 . S
H717 C740 0.950 . S
H718 C741 0.950 . S
H719 C743 0.950 . S
H720 C744 0.950 . S
H721 C745 0.951 . S
H722 C747 0.951 . S
H723 C749 0.950 . S
H724 C750 0.950 . S
H725 C752 0.950 . S
H726 C755 0.950 . S
H727 C756 0.950 . S
H728 C758 0.950 . S
H729 C759 0.950 . S
C730 H712 0.951 . S
C730 C731 1.366 . S
C730 C732 1.388 . S
C731 C730 1.366 . S
C731 C735 1.385 . S
C732 H713 0.951 . S
C732 C730 1.388 . S
C732 C733 1.366 . S
C733 C732 1.366 . S
C733 C734 1.414 . S
C733 C736 1.499 . S
C734 H714 0.950 . S
C734 C733 1.414 . S
C734 C735 1.374 . S
C735 H715 0.950 . S
C735 C731 1.385 . S
C735 C734 1.374 . S
C736 C733 1.499 . S
C736 C737 1.373 . S
C736 C738 1.389 . S
C737 H716 0.950 . S
C737 C736 1.373 . S
C737 C753 1.377 . S
C738 C736 1.389 . S
C738 C739 1.524 . S
C738 C752 1.377 . S
C739 C738 1.524 . S
C739 C740 1.397 . S
C739 C744 1.363 . S
C740 H717 0.950 . S
C740 C739 1.397 . S
C740 C741 1.334 . S
C741 H718 0.950 . S
C741 C740 1.334 . S
C741 C742 1.287 . S
C742 C741 1.287 . S
C742 C743 1.524 . S
C742 H761 0.913 . S
C743 H719 0.950 . S
C743 C742 1.524 . S
C743 C744 1.415 . S
C744 H720 0.950 . S
C744 C739 1.363 . S
C744 C743 1.415 . S
C745 H721 0.951 . S
C745 C746 1.366 . S
C745 C747 1.388 . S
C746 C745 1.366 . S
C746 C750 1.385 . S
C747 H722 0.951 . S
C747 C745 1.388 . S
C747 C748 1.366 . S
C748 C747 1.366 . S
C748 C749 1.414 . S
C748 C751 1.499 . S
C749 H723 0.950 . S
C749 C748 1.414 . S
C749 C750 1.374 . S
C750 H724 0.950 . S
C750 C746 1.385 . S
C750 C749 1.374 . S
C751 C748 1.499 . S
C751 C752 1.373 . S
C751 C753 1.389 . S
C752 H725 0.950 . S
C752 C738 1.377 . S
C752 C751 1.373 . S
C753 C737 1.377 . S
C753 C751 1.389 . S
C753 C754 1.524 . S
C754 C753 1.524 . S
C754 C755 1.397 . S
C754 C759 1.363 . S
C755 H726 0.950 . S
C755 C754 1.397 . S
C755 C756 1.334 . S
C756 H727 0.950 . S
C756 C755 1.334 . S
C756 C757 1.287 . S
C757 C756 1.287 . S
C757 C758 1.524 . S
C757 H760 0.999 . S
C758 H728 0.950 . S
C758 C757 1.524 . S
C758 C759 1.415 . S
C759 H729 0.950 . S
C759 C754 1.363 . S
C759 C758 1.415 . S
H760 C757 0.999 . S
H761 C742 0.913 . S
H762 C780 0.951 . S
H763 C782 0.951 . S
H764 C784 0.950 . S
H765 C785 0.950 . S
H766 C787 0.950 . S
H767 C790 0.950 . S
H768 C791 0.950 . S
H769 C793 0.950 . S
H770 C794 0.950 . S
H771 C795 0.951 . S
H772 C797 0.951 . S
H773 C799 0.950 . S
H774 C800 0.950 . S
H775 C802 0.950 . S
H776 C805 0.950 . S
H777 C806 0.950 . S
H778 C808 0.950 . S
H779 C809 0.950 . S
C780 H762 0.951 . S
C780 C781 1.366 . S
C780 C782 1.388 . S
C781 C780 1.366 . S
C781 C785 1.385 . S
C782 H763 0.951 . S
C782 C780 1.388 . S
C782 C783 1.366 . S
C783 C782 1.366 . S
C783 C784 1.414 . S
C783 C786 1.499 . S
C784 H764 0.950 . S
C784 C783 1.414 . S
C784 C785 1.374 . S
C785 H765 0.950 . S
C785 C781 1.385 . S
C785 C784 1.374 . S
C786 C783 1.499 . S
C786 C787 1.373 . S
C786 C788 1.389 . S
C787 H766 0.950 . S
C787 C786 1.373 . S
C787 C803 1.377 . S
C788 C786 1.389 . S
C788 C789 1.524 . S
C788 C802 1.377 . S
C789 C788 1.524 . S
C789 C790 1.397 . S
C789 C794 1.363 . S
C790 H767 0.950 . S
C790 C789 1.397 . S
C790 C791 1.334 . S
C791 H768 0.950 . S
C791 C790 1.334 . S
C791 C792 1.287 . S
C792 C791 1.287 . S
C792 C793 1.524 . S
C792 H811 0.913 . S
C793 H769 0.950 . S
C793 C792 1.524 . S
C793 C794 1.415 . S
C794 H770 0.950 . S
C794 C789 1.363 . S
C794 C793 1.415 . S
C795 H771 0.951 . S
C795 C796 1.366 . S
C795 C797 1.388 . S
C796 C795 1.366 . S
C796 C800 1.385 . S
C797 H772 0.951 . S
C797 C795 1.388 . S
C797 C798 1.366 . S
C798 C797 1.366 . S
C798 C799 1.414 . S
C798 C801 1.499 . S
C799 H773 0.950 . S
C799 C798 1.414 . S
C799 C800 1.374 . S
C800 H774 0.950 . S
C800 C796 1.385 . S
C800 C799 1.374 . S
C801 C798 1.499 . S
C801 C802 1.373 . S
C801 C803 1.389 . S
C802 H775 0.950 . S
C802 C788 1.377 . S
C802 C801 1.373 . S
C803 C787 1.377 . S
C803 C801 1.389 . S
C803 C804 1.524 . S
C804 C803 1.524 . S
C804 C805 1.397 . S
C804 C809 1.363 1_565 S
C805 H776 0.950 . S
C805 C804 1.397 . S
C805 C806 1.334 1_565 S
C806 H777 0.950 . S
C806 C805 1.334 1_545 S
C806 C807 1.287 . S
C807 C806 1.287 . S
C807 C808 1.524 . S
C807 H810 0.999 . S
C808 H778 0.950 . S
C808 C807 1.524 . S
C808 C809 1.415 . S
C809 H779 0.950 . S
C809 C804 1.363 1_545 S
C809 C808 1.415 . S
H810 C807 0.999 . S
H811 C792 0.913 . S
C246 C107 1.653 . S
C231 C41 1.652 . S
C281 C8 1.667 . S
C296 C202 1.658 . S
C331 C19 1.746 . S
C346 C118 1.756 . S
C381 C30 1.633 . S
C396 C191 1.638 . S
C446 C102 1.506 . S
C431 C5 1.516 . S
C496 C195 1.816 . S
C481 C18 1.761 . S
C531 C29 1.629 . S
C546 C111 1.721 . S
C581 C40 1.617 . S
C596 C186 1.530 . S
C646 C197 1.386 . S
C631 C16 1.315 . S
C696 C113 1.368 . S
C681 C27 1.296 . S
C746 C184 1.551 . S
C731 C38 1.303 . S
C781 C7 1.471 . S
C796 C100 1.508 . S
