# Generated by pormake.
# Topology pth, (4,4)-cn, num edge types: 1
# Building blocks:
#     Node 0, Type 0, BuildingBlock: QUQFOY_clean_sbu_3, # of connection points: 4
#     Node 1, Type 0, BuildingBlock: QUQFOY_clean_sbu_3, # of connection points: 4
#     Node 2, Type 0, BuildingBlock: QUQFOY_clean_sbu_3, # of connection points: 4
#     Node 3, Type 1, BuildingBlock: KOZSID_clean_sbu_0, # of connection points: 4
#     Node 4, Type 1, BuildingBlock: KOZSID_clean_sbu_0, # of connection points: 4
#     Node 5, Type 1, BuildingBlock: KOZSID_clean_sbu_0, # of connection points: 4
#     Edge 6, Type (0, 1), BuildingBlock: KIFKEQ_clean_linker_1, # of connection points: 2
#     Edge 7, Type (0, 1), BuildingBlock: KIFKEQ_clean_linker_1, # of connection points: 2
#     Edge 8, Type (0, 1), BuildingBlock: KIFKEQ_clean_linker_1, # of connection points: 2
#     Edge 9, Type (0, 1), BuildingBlock: KIFKEQ_clean_linker_1, # of connection points: 2
#     Edge 10, Type (0, 1), BuildingBlock: KIFKEQ_clean_linker_1, # of connection points: 2
#     Edge 11, Type (0, 1), BuildingBlock: KIFKEQ_clean_linker_1, # of connection points: 2
#     Edge 12, Type (0, 1), BuildingBlock: KIFKEQ_clean_linker_1, # of connection points: 2
#     Edge 13, Type (0, 1), BuildingBlock: KIFKEQ_clean_linker_1, # of connection points: 2
#     Edge 14, Type (0, 1), BuildingBlock: KIFKEQ_clean_linker_1, # of connection points: 2
#     Edge 15, Type (0, 1), BuildingBlock: KIFKEQ_clean_linker_1, # of connection points: 2
#     Edge 16, Type (0, 1), BuildingBlock: KIFKEQ_clean_linker_1, # of connection points: 2
#     Edge 17, Type (0, 1), BuildingBlock: KIFKEQ_clean_linker_1, # of connection points: 2
# Relax obj value: 0.008
# Max RMSD: 0.067
# Mean RMSD: 0.043
data_MOF--net-pth--node1-QUQFOY_clean_sbu_3--node2-KOZSID_clean_sbu_0--edge1-KIFKEQ_clean_linker_1
_symmetry_space_group_name_H-M    P1
_symmetry_Int_Tables_number       1
_symmetry_cell_setting            triclinic
loop_
_symmetry_equiv_pos_as_xyz
'x, y, z'
_cell_length_a     27.256812
_cell_length_b     27.048271
_cell_length_c     63.848446
_cell_angle_alpha  87.408185
_cell_angle_beta   88.457731
_cell_angle_gamma 120.83987
loop_
_atom_site_label
_atom_site_type_symbol
_atom_site_fract_x
_atom_site_fract_y
_atom_site_fract_z
_atom_type_partial_charge
C0 C 0.02252 0.15828 0.05235 0.0
O1 O -0.00039 0.15545 0.03505 0.0
Cd2 Cd 0.99404 0.09454 0.00789 0.0
O3 O 0.04397 0.12696 0.0565 0.0
Cd4 Cd 0.05671 0.05361 0.03905 0.0
C5 C 0.13773 0.14858 -0.00157 0.0
O6 O 0.96342 0.00074 0.02366 0.0
O7 O 0.02711 0.98088 0.01339 0.0
O8 O 0.03234 0.99887 0.07286 0.0
C9 C 0.97587 0.96944 0.01323 0.0
O10 O 0.09056 0.1403 0.99186 0.0
C11 C 0.07484 0.99168 0.07238 0.0
O12 O 0.13916 0.12565 0.01613 0.0
O13 O 0.11082 0.01581 0.05675 0.0
C14 C 0.16236 0.121 0.39082 0.0
O15 O 0.18901 0.15906 0.37583 0.0
Cd16 Cd 0.14158 0.16556 0.34586 0.0
O17 O 0.10789 0.09001 0.39168 0.0
Cd18 Cd 0.02618 0.08268 0.37248 0.0
C19 C 0.06389 0.02022 0.33636 0.0
O20 O 0.06695 0.18139 0.35718 0.0
O21 O 0.99142 0.11553 0.34339 0.0
O22 O 0.98947 0.09619 0.40534 0.0
C23 C 0.02788 0.16871 0.34444 0.0
O24 O 0.10529 0.07142 0.33164 0.0
C25 C 0.93893 0.05352 0.40463 0.0
O26 O 0.02724 0.00981 0.35132 0.0
O27 O 0.92903 0.02211 0.38921 0.0
C28 C 0.97554 0.10108 0.68112 0.0
O29 O 0.98593 0.13566 0.69543 0.0
Cd30 Cd 0.03939 0.13692 0.72472 0.0
O31 O -0.00059 0.07111 0.68063 0.0
Cd32 Cd 0.07265 0.06161 0.69984 0.0
C33 C 0.97057 0.99031 0.73832 0.0
O34 O 0.13235 0.15734 0.71298 0.0
O35 O 0.13447 0.08667 0.72922 0.0
O36 O 0.1279 0.08231 0.66685 0.0
C37 C 0.15512 0.14064 0.72646 0.0
O38 O 0.9815 0.04051 0.74246 0.0
C39 C 0.13439 0.03912 0.6686 0.0
O40 O 0.99584 0.98354 0.72259 0.0
O41 O 0.10996 0.00431 0.68469 0.0
C42 C 0.11042 0.67603 0.17293 0.0
C43 C 0.16513 0.71778 0.16514 0.0
C44 C 0.20226 0.70709 0.17541 0.0
C45 C 0.16833 0.65977 0.18886 0.0
N46 N 0.1116 0.63905 0.18767 0.0
Co47 Co 0.04716 0.57207 0.20496 0.0
N48 N 0.10221 0.56021 0.22156 0.0
C49 C 0.16006 0.59141 0.21935 0.0
C50 C 0.18634 0.57271 0.23283 0.0
C51 C 0.14275 0.5266 0.24433 0.0
C52 C 0.09214 0.51992 0.23718 0.0
N53 N 0.98271 0.50473 0.22209 0.0
C54 C 0.98404 0.46926 0.23746 0.0
C55 C 0.92936 0.42717 0.24513 0.0
C56 C 0.89205 0.4359 0.23405 0.0
C57 C 0.92591 0.48267 0.22035 0.0
N58 N 0.99223 0.58458 0.18855 0.0
C59 C 0.93436 0.55321 0.1906 0.0
C60 C 0.90834 0.57347 0.17763 0.0
C61 C 0.95215 0.62117 0.16685 0.0
C62 C 0.00254 0.62729 0.17394 0.0
N63 N 0.04535 0.51846 0.18425 0.0
C64 C 0.04196 0.44071 0.1554 0.0
C65 C 0.9918 0.43725 0.16317 0.0
C66 C 0.99449 0.47632 0.17729 0.0
C67 C 0.09395 0.48398 0.16235 0.0
C68 C 0.09462 0.52184 0.1767 0.0
N69 N 0.04877 0.62555 0.22558 0.0
C70 C -0.00092 0.6591 0.24729 0.0
C71 C 0.05086 0.70645 0.25231 0.0
C72 C 0.10164 0.71174 0.24432 0.0
C73 C 0.09964 0.67075 0.23127 0.0
C74 C -0.00099 0.61966 0.23391 0.0
H75 H 0.13975 0.67697 0.22574 0.0
H76 H 0.95811 0.58541 0.23023 0.0
H77 H 0.95468 0.47119 0.18243 0.0
H78 H 0.13556 0.5534 0.18144 0.0
C79 C 0.18853 0.63664 0.20392 0.0
C80 C 0.05901 0.67526 0.16674 0.0
C81 C 0.03573 0.47334 0.24517 0.0
C82 C 0.90572 0.50665 0.20557 0.0
H83 H 0.17713 0.75327 0.15362 0.0
H84 H 0.24855 0.73201 0.17378 0.0
H85 H 0.23178 0.58993 0.23392 0.0
H86 H 0.14773 0.50032 0.25638 0.0
H87 H 0.91767 0.39346 0.25741 0.0
H88 H 0.84577 0.41092 0.2357 0.0
H89 H 0.86294 0.55637 0.1765 0.0
H90 H 0.94761 0.64894 0.15532 0.0
H91 H 0.95023 0.40401 0.15863 0.0
H92 H 0.13421 0.48922 0.15662 0.0
H93 H 0.95869 0.65351 0.25309 0.0
H94 H 0.14279 0.74746 0.24809 0.0
C95 C 0.42935 0.98 0.56909 0.0
C96 C 0.38719 0.92647 0.57807 0.0
C97 C 0.39444 0.8862 0.56867 0.0
C98 C 0.44041 0.91724 0.55458 0.0
N99 N 0.46311 0.97494 0.55443 0.0
Co100 Co 0.5312 0.03576 0.53669 0.0
N101 N 0.53769 0.97615 0.52131 0.0
C102 C 0.50133 0.91839 0.52341 0.0
C103 C 0.516 0.88835 0.51049 0.0
C104 C 0.5648 0.92936 0.49949 0.0
C105 C 0.57713 0.98226 0.50642 0.0
N106 N 0.60184 0.0965 0.52003 0.0
C107 C 0.63737 0.09105 0.50631 0.0
C108 C 0.68403 0.14435 0.49932 0.0
C109 C 0.67818 0.18493 0.50917 0.0
C110 C 0.62859 0.15422 0.52159 0.0
N111 N 0.52213 0.0954 0.55099 0.0
C112 C 0.55459 0.15334 0.54717 0.0
C113 C 0.53604 0.18323 0.55842 0.0
C114 C 0.48826 0.1419 0.56987 0.0
C115 C 0.48053 0.08899 0.56493 0.0
N116 N 0.58153 0.03505 0.55846 0.0
C117 C 0.66001 0.03825 0.58692 0.0
C118 C 0.65501 0.0864 0.58267 0.0
C119 C 0.61612 0.08403 0.56846 0.0
C120 C 0.62415 0.98782 0.57713 0.0
C121 C 0.58484 0.98691 0.56325 0.0
N122 N 0.48115 0.03706 0.51493 0.0
C123 C 0.46107 0.09088 0.48886 0.0
C124 C 0.40701 0.0431 0.48647 0.0
C125 C 0.39102 0.99162 0.49813 0.0
C126 C 0.42886 0.98931 0.51198 0.0
C127 C 0.497 0.08705 0.50308 0.0
H128 H 0.41462 0.94866 0.5203 0.0
H129 H 0.53696 0.12565 0.50443 0.0
H130 H 0.61577 0.12287 0.5656 0.0
H131 H 0.55802 0.94697 0.55644 0.0
C132 C 0.45841 0.89344 0.53948 0.0
C133 C 0.4332 0.03395 0.57397 0.0
C134 C 0.62866 0.03658 0.49943 0.0
C135 C 0.60414 0.17828 0.53391 0.0
H136 H 0.35352 0.91729 0.58973 0.0
H137 H 0.36788 0.83974 0.57118 0.0
H138 H 0.49507 0.84201 0.50978 0.0
H139 H 0.58945 0.92105 0.48814 0.0
H140 H 0.71866 0.15296 0.48821 0.0
H141 H 0.70649 0.2313 0.50738 0.0
H142 H 0.5552 0.22956 0.55842 0.0
H143 H 0.4621 0.14976 0.58067 0.0
H144 H 0.68227 0.12652 0.58982 0.0
H145 H 0.62624 0.94926 0.58024 0.0
H146 H 0.47507 0.13179 0.48022 0.0
H147 H 0.34965 0.95331 0.49652 0.0
C148 C 0.67465 0.6032 0.83669 0.0
C149 C 0.71963 0.59783 0.82889 0.0
C150 C 0.71521 0.55064 0.83945 0.0
C151 C 0.66814 0.53012 0.85307 0.0
N152 N 0.64168 0.56087 0.8517 0.0
Co153 Co 0.57335 0.5478 0.86933 0.0
N154 N 0.5684 0.47983 0.88547 0.0
C155 C 0.60252 0.45766 0.88261 0.0
C156 C 0.58764 0.40984 0.89565 0.0
C157 C 0.54077 0.40041 0.90743 0.0
C158 C 0.52978 0.44321 0.90082 0.0
N159 N 0.50593 0.53565 0.88732 0.0
C160 C 0.47425 0.49461 0.90289 0.0
C161 C 0.43085 0.50162 0.91131 0.0
C162 C 0.43506 0.54857 0.90063 0.0
C163 C 0.48053 0.56749 0.88635 0.0
N164 N 0.57756 0.615 0.85291 0.0
C165 C 0.54153 0.63522 0.85498 0.0
C166 C 0.55544 0.68199 0.84149 0.0
C167 C 0.60347 0.69261 0.8302 0.0
C168 C 0.61619 0.65161 0.83757 0.0
N169 N 0.52104 0.49504 0.84893 0.0
C170 C 0.44491 0.41829 0.82099 0.0
C171 C 0.43332 0.45647 0.83078 0.0
C172 C 0.47195 0.49461 0.84438 0.0
C173 C 0.4954 0.41939 0.82511 0.0
C174 C 0.53234 0.45743 0.83922 0.0
N175 N 0.62546 0.60054 0.88971 0.0
C176 C 0.65502 0.68222 0.91076 0.0
C177 C 0.70077 0.67785 0.91784 0.0
C178 C 0.70769 0.63347 0.91078 0.0
C179 C 0.66971 0.59547 0.8969 0.0
C180 C 0.61851 0.64376 0.89676 0.0
H181 H 0.67728 0.56266 0.89208 0.0
H182 H 0.5851 0.6501 0.89183 0.0
H183 H 0.46083 0.52305 0.85106 0.0
H184 H 0.56941 0.45517 0.84213 0.0
C185 C 0.64811 0.48257 0.8675 0.0
C186 C 0.66639 0.65043 0.82992 0.0
C187 C 0.48159 0.44654 0.9094 0.0
C188 C 0.49787 0.61238 0.87087 0.0
H189 H 0.75273 0.62566 0.81701 0.0
H190 H 0.74342 0.5338 0.83763 0.0
H191 H 0.60816 0.38459 0.8964 0.0
H192 H 0.51704 0.36572 0.91943 0.0
H193 H 0.3986 0.47481 0.92358 0.0
H194 H 0.40731 0.5659 0.90264 0.0
H195 H 0.5341 0.70642 0.84038 0.0
H196 H 0.62711 0.72721 0.81817 0.0
H197 H 0.39476 0.45725 0.82781 0.0
H198 H 0.50567 0.39008 0.81788 0.0
H199 H 0.64695 0.71502 0.91604 0.0
H200 H 0.7428 0.62851 0.91561 0.0
H201 H 0.00465 0.24795 0.04534 0.0
H202 H 0.0472 0.16161 0.09374 0.0
H203 H 0.01124 0.31678 0.06995 0.0
H204 H 0.05144 0.22909 0.11871 0.0
H205 H 0.10945 0.39267 0.1528 0.0
H206 H 0.10619 0.32606 0.12773 0.0
H207 H 0.9636 0.32554 0.09946 0.0
H208 H 0.96956 0.39517 0.12346 0.0
C209 C 0.01483 0.24328 0.06132 0.0
C210 C 0.02532 0.19922 0.06758 0.0
C211 C 0.01831 0.28263 0.0755 0.0
C212 C 0.03166 0.27852 0.0964 0.0
C213 C 0.04195 0.23423 0.10267 0.0
C214 C 0.03913 0.19524 0.0884 0.0
C215 C 0.078 0.3791 0.14102 0.0
C216 C 0.03983 0.39953 0.1402 0.0
C217 C 0.07553 0.34011 0.12682 0.0
C218 C 0.03454 0.32015 0.11154 0.0
C219 C 0.9963 0.34046 0.11079 0.0
C220 C -0.00086 0.37985 0.12482 0.0
H221 H 0.82422 0.97324 0.40515 0.0
H222 H 0.9502 0.1136 0.43906 0.0
H223 H 0.74826 0.96527 0.4289 0.0
H224 H 0.87457 0.10645 0.46242 0.0
H225 H 0.72842 0.04842 0.51167 0.0
H226 H 0.80274 0.04643 0.48991 0.0
H227 H 0.70371 0.02215 0.43546 0.0
H228 H 0.62922 0.0231 0.4575 0.0
C229 C 0.83574 0.00199 0.41778 0.0
C230 C 0.8932 0.04413 0.42019 0.0
C231 C 0.79222 0.99777 0.43127 0.0
C232 C 0.8053 0.0355 0.44747 0.0
C233 C 0.86297 0.07632 0.45026 0.0
C234 C 0.90636 0.08057 0.43679 0.0
C235 C 0.72293 0.04265 0.49504 0.0
C236 C 0.67371 0.03604 0.4861 0.0
C237 C 0.7653 0.04163 0.48257 0.0
C238 C 0.75914 0.03404 0.46093 0.0
C239 C 0.70941 0.02717 0.4521 0.0
C240 C 0.66707 0.0282 0.4646 0.0
H241 H 0.90674 0.98989 0.77207 0.0
H242 H 0.93528 0.876 0.73506 0.0
H243 H 0.83355 0.90739 0.79381 0.0
H244 H 0.86252 0.79318 0.75726 0.0
H245 H 0.68473 0.65655 0.78753 0.0
H246 H 0.75923 0.73841 0.76514 0.0
H247 H 0.82388 0.8355 0.82003 0.0
H248 H 0.74848 0.75395 0.8421 0.0
C249 C 0.89772 0.94726 0.76863 0.0
C250 C 0.927 0.93965 0.75179 0.0
C251 C 0.85589 0.89991 0.78121 0.0
C252 C 0.84228 0.84367 0.77733 0.0
C253 C 0.87156 0.83592 0.76052 0.0
C254 C 0.91351 0.88341 0.74788 0.0
C255 C 0.71505 0.69563 0.79463 0.0
C256 C 0.71135 0.69964 0.81635 0.0
C257 C 0.75783 0.74222 0.78193 0.0
C258 C 0.79751 0.79352 0.7908 0.0
C259 C 0.79355 0.79698 0.81266 0.0
C260 C 0.75075 0.75045 0.8253 0.0
H261 H 0.15499 0.95947 0.07339 0.0
H262 H 0.00347 0.93466 0.10702 0.0
H263 H 0.15475 0.88612 0.09721 0.0
H264 H 0.00266 0.86082 0.13054 0.0
H265 H 0.04362 0.7609 0.1795 0.0
H266 H 0.05304 0.84318 0.15807 0.0
H267 H 0.09481 0.78113 0.10313 0.0
H268 H 0.08614 0.69963 0.12479 0.0
C269 C 0.12203 0.93885 0.086 0.0
C270 C 0.07911 0.95269 0.08826 0.0
C271 C 0.12161 0.8965 0.09953 0.0
C272 C 0.07836 0.86723 0.11564 0.0
C273 C 0.03684 0.88282 0.11841 0.0
C274 C 0.03719 0.92504 0.10486 0.0
C275 C 0.05485 0.76528 0.16283 0.0
C276 C 0.06425 0.72455 0.15365 0.0
C277 C 0.06013 0.81208 0.15057 0.0
C278 C 0.07488 0.81882 0.1289 0.0
C279 C 0.08434 0.77775 0.11981 0.0
C280 C 0.07897 0.73095 0.13209 0.0
H281 H 0.27528 0.18978 0.39817 0.0
H282 H 0.12411 0.02704 0.41876 0.0
H283 H 0.33163 0.16841 0.4217 0.0
H284 H 0.18102 0.0046 0.44182 0.0
H285 H 0.29511 0.00984 0.495 0.0
H286 H 0.23383 0.02873 0.47289 0.0
H287 H 0.36918 0.10637 0.42376 0.0
H288 H 0.43052 0.08898 0.44612 0.0
C289 C 0.25405 0.14941 0.40774 0.0
C290 C 0.19527 0.11002 0.40651 0.0
C291 C 0.28648 0.13687 0.42111 0.0
C292 C 0.26112 0.08431 0.43343 0.0
C293 C 0.20192 0.04562 0.43267 0.0
C294 C 0.16929 0.05845 0.41941 0.0
C295 C 0.31127 0.03027 0.47936 0.0
C296 C 0.36757 0.0483 0.47228 0.0
C297 C 0.27627 0.04115 0.46669 0.0
C298 C 0.29681 0.06984 0.44663 0.0
C299 C 0.35245 0.08566 0.43932 0.0
C300 C 0.3875 0.07532 0.45204 0.0
H301 H 0.22584 0.25706 0.71883 0.0
H302 H 0.18426 0.11585 0.76426 0.0
H303 H 0.29848 0.32437 0.74144 0.0
H304 H 0.25579 0.18333 0.78696 0.0
H305 H 0.33203 0.34095 0.82985 0.0
H306 H 0.26301 0.273 0.80645 0.0
H307 H 0.39595 0.33582 0.75685 0.0
H308 H 0.46545 0.40308 0.78047 0.0
C309 C 0.2322 0.2405 0.73362 0.0
C310 C 0.19944 0.18132 0.73982 0.0
C311 C 0.27382 0.27887 0.74646 0.0
C312 C 0.2824 0.25879 0.76587 0.0
C313 C 0.24967 0.19972 0.77208 0.0
C314 C 0.20896 0.16122 0.75907 0.0
C315 C 0.34638 0.34003 0.81396 0.0
C316 C 0.4038 0.37696 0.80688 0.0
C317 C 0.30711 0.30118 0.80065 0.0
C318 C 0.3244 0.29946 0.77993 0.0
C319 C 0.38175 0.33667 0.77277 0.0
C320 C 0.42136 0.37473 0.78624 0.0
H321 H 0.92065 0.01221 0.65554 0.0
H322 H 0.9326 0.17084 0.67233 0.0
H323 H 0.84302 0.99381 0.63303 0.0
H324 H 0.85676 0.15378 0.64922 0.0
H325 H 0.67983 0.07895 0.62586 0.0
H326 H 0.75672 0.09306 0.64803 0.0
H327 H 0.81769 0.02278 0.60145 0.0
H328 H 0.73914 0.00685 0.57966 0.0
C329 C 0.90734 0.04364 0.65415 0.0
C330 C 0.93253 0.09281 0.66583 0.0
C331 C 0.86288 0.03317 0.6412 0.0
C332 C 0.84304 0.07194 0.63946 0.0
C333 C 0.86981 0.12216 0.65058 0.0
C334 C 0.91372 0.13227 0.6637 0.0
C335 C 0.70952 0.06619 0.62048 0.0
C336 C 0.70373 0.04194 0.60107 0.0
C337 C 0.7539 0.07469 0.63308 0.0
C338 C 0.79408 0.05988 0.62642 0.0
C339 C 0.78733 0.03424 0.60718 0.0
C340 C 0.74238 0.02508 0.59468 0.0
H341 H 0.98621 0.887 -0.006 0.0
H342 H 0.87123 0.95081 0.00312 0.0
H343 H 0.91863 0.81495 0.97152 0.0
H344 H 0.80378 0.87876 0.98057 0.0
H345 H 0.74095 0.79373 0.91768 0.0
H346 H 0.80517 0.86205 0.94174 0.0
H347 H 0.81796 0.72623 0.97441 0.0
H348 H 0.75213 0.65703 0.95075 0.0
C349 C 0.94643 0.8855 0.99125 0.0
C350 C 0.93405 0.92465 0.00025 0.0
C351 C 0.90768 0.84408 0.97849 0.0
C352 C 0.85612 0.84145 0.97428 0.0
C353 C 0.8435 0.88024 0.98342 0.0
C354 C 0.88195 0.92124 -0.00361 0.0
C355 C 0.75664 0.77805 0.93016 0.0
C356 C 0.741 0.71967 0.93231 0.0
C357 C 0.79357 0.81731 0.94391 0.0
C358 C 0.8163 0.79934 0.95996 0.0
C359 C 0.80134 0.74127 0.96204 0.0
C360 C 0.76385 0.70176 0.94842 0.0
H361 H 0.14971 0.02114 0.31341 0.0
H362 H 0.97072 0.91174 0.33301 0.0
H363 H 0.14601 0.94436 0.29411 0.0
H364 H 0.96607 0.83509 0.3127 0.0
H365 H 0.99217 0.69131 0.28976 0.0
H366 H 0.99438 0.76586 0.31067 0.0
H367 H 0.11162 0.89676 0.26355 0.0
H368 H 0.11104 0.82242 0.24333 0.0
C369 C 0.10926 0.98077 0.31338 0.0
C370 C 0.06038 0.97266 0.32463 0.0
C371 C 0.10703 0.9367 0.30217 0.0
C372 C 0.05558 0.88352 0.30157 0.0
C373 C 0.00662 0.87519 0.31297 0.0
C374 C 0.00912 0.9192 0.32451 0.0
C375 C 0.01843 0.73614 0.284 0.0
C376 C 0.05189 0.75128 0.26507 0.0
C377 C 0.01947 0.77886 0.29588 0.0
C378 C 0.05342 0.83755 0.28891 0.0
C379 C 0.08608 0.85227 0.26974 0.0
C380 C 0.08567 0.80969 0.25807 0.0
H381 H 0.18886 0.10618 0.63272 0.0
H382 H 0.16626 0.95805 0.67016 0.0
H383 H 0.25901 0.10251 0.60952 0.0
H384 H 0.23599 0.95373 0.64661 0.0
H385 H 0.41596 0.01446 0.61642 0.0
H386 H 0.33957 0.01143 0.63862 0.0
H387 H 0.27052 0.04604 0.58343 0.0
H388 H 0.34769 0.04989 0.56147 0.0
C389 C 0.19827 0.07228 0.63583 0.0
C390 C 0.17214 0.03252 0.65334 0.0
C391 C 0.23836 0.07005 0.62246 0.0
C392 C 0.25335 0.02802 0.62627 0.0
C393 C 0.22597 0.98717 0.64343 0.0
C394 C 0.1857 0.98933 0.65682 0.0
C395 C 0.38426 0.02138 0.60919 0.0
C396 C 0.38726 0.03253 0.5874 0.0
C397 C 0.34036 0.01919 0.62179 0.0
C398 C 0.29881 0.02828 0.61278 0.0
C399 C 0.30213 0.03941 0.59088 0.0
C400 C 0.34601 0.04152 0.57831 0.0
H401 H 0.24898 0.19376 0.00934 0.0
H402 H 0.14732 0.19026 0.95797 0.0
H403 H 0.33625 0.26145 0.98802 0.0
H404 H 0.23384 0.25778 0.93698 0.0
H405 H 0.39864 0.3432 0.8974 0.0
H406 H 0.31848 0.26532 0.91918 0.0
H407 H 0.38264 0.36391 0.97373 0.0
H408 H 0.46323 0.44124 0.95179 0.0
C409 C 0.24523 0.20703 0.9935 0.0
C410 C 0.19116 0.18677 0.9854 0.0
C411 C 0.29515 0.24597 0.98134 0.0
C412 C 0.2919 0.26486 0.96082 0.0
C413 C 0.23789 0.24349 0.95262 0.0
C414 C 0.1882 0.20505 0.96475 0.0
C415 C 0.39569 0.34751 0.9141 0.0
C416 C 0.43632 0.39776 0.92305 0.0
C417 C 0.3499 0.30331 0.92654 0.0
C418 C 0.34404 0.30869 0.94815 0.0
C419 C 0.38625 0.35828 0.95719 0.0
C420 C 0.43205 0.40256 0.9447 0.0
H421 H 0.10345 0.28509 0.3419 0.0
H422 H 0.95014 0.15313 0.3155 0.0
H423 H 0.10309 0.35829 0.31825 0.0
H424 H 0.9492 0.22644 0.29214 0.0
H425 H 0.00805 0.36476 0.23714 0.0
H426 H 0.00457 0.29053 0.26162 0.0
H427 H 0.04911 0.40624 0.31167 0.0
H428 H 0.05341 0.48051 0.2869 0.0
C429 C 0.06949 0.27177 0.33114 0.0
C430 C 0.02695 0.21333 0.33051 0.0
C431 C 0.06908 0.31374 0.31768 0.0
C432 C 0.02613 0.29816 0.30331 0.0
C433 C 0.9833 0.23974 0.30284 0.0
C434 C 0.98369 0.19779 0.31629 0.0
C435 C 0.01672 0.3738 0.25343 0.0
C436 C 0.03106 0.42781 0.2603 0.0
C437 C 0.01451 0.33147 0.26745 0.0
C438 C 0.02665 0.34255 0.28859 0.0
C439 C 0.04029 0.39666 0.29544 0.0
C440 C 0.04242 0.43895 0.28139 0.0
loop_
_geom_bond_atom_site_label_1
_geom_bond_atom_site_label_2
_geom_bond_distance
_geom_bond_site_symmetry_2
_ccdc_geom_bond_type
C0 O1 1.306 . S
C0 O3 1.160 . S
O1 C0 1.306 . S
O1 Cd2 2.228 . S
Cd2 O1 2.228 . S
Cd2 O6 2.273 1_455 S
Cd2 O10 2.277 . S
O3 C0 1.160 . S
O3 Cd4 2.203 . S
Cd4 O3 2.203 . S
Cd4 O6 2.411 1_455 S
Cd4 O7 2.333 1_545 S
Cd4 O8 2.352 1_545 S
Cd4 O12 2.277 . S
Cd4 O13 2.356 1_545 S
C5 O10 1.209 . S
C5 O12 1.226 . S
O6 Cd2 2.273 1_655 S
O6 Cd4 2.411 1_655 S
O6 C9 1.320 1_545 S
O7 Cd4 2.333 1_565 S
O7 C9 1.214 1_455 S
O8 Cd4 2.352 1_565 S
O8 C11 1.258 . S
C9 O6 1.320 1_565 S
C9 O7 1.214 1_655 S
O10 Cd2 2.277 . S
O10 C5 1.209 . S
C11 O8 1.258 . S
C11 O13 1.282 . S
O12 Cd4 2.277 . S
O12 C5 1.226 . S
O13 Cd4 2.356 1_565 S
O13 C11 1.282 . S
C14 O15 1.306 . S
C14 O17 1.160 . S
O15 C14 1.306 . S
O15 Cd16 2.228 . S
Cd16 O15 2.228 . S
Cd16 O20 2.273 . S
Cd16 O24 2.277 . S
O17 C14 1.160 . S
O17 Cd18 2.203 . S
Cd18 O17 2.203 . S
Cd18 O20 2.411 . S
Cd18 O21 2.333 1_455 S
Cd18 O22 2.352 1_455 S
Cd18 O26 2.277 1_445 S
Cd18 O27 2.356 1_455 S
C19 O24 1.209 1_565 S
C19 O26 1.226 1_455 S
O20 Cd16 2.273 . S
O20 Cd18 2.411 . S
O20 C23 1.320 . S
O21 Cd18 2.333 1_655 S
O21 C23 1.214 1_655 S
O22 Cd18 2.352 1_655 S
O22 C25 1.258 . S
C23 O20 1.320 . S
C23 O21 1.214 1_455 S
O24 Cd16 2.277 . S
O24 C19 1.209 1_545 S
C25 O22 1.258 . S
C25 O27 1.282 . S
O26 Cd18 2.277 1_665 S
O26 C19 1.226 1_655 S
O27 Cd18 2.356 1_655 S
O27 C25 1.282 . S
C28 O29 1.306 . S
C28 O31 1.160 1_655 S
O29 C28 1.306 . S
O29 Cd30 2.228 1_655 S
Cd30 O29 2.228 1_455 S
Cd30 O34 2.273 . S
Cd30 O38 2.277 1_455 S
O31 C28 1.160 1_455 S
O31 Cd32 2.203 . S
Cd32 O31 2.203 . S
Cd32 O34 2.411 . S
Cd32 O35 2.333 . S
Cd32 O36 2.352 . S
Cd32 O40 2.277 1_545 S
Cd32 O41 2.357 . S
C33 O38 1.209 1_565 S
C33 O40 1.226 1_655 S
O34 Cd30 2.273 . S
O34 Cd32 2.411 . S
O34 C37 1.320 . S
O35 Cd32 2.333 . S
O35 C37 1.214 . S
O36 Cd32 2.352 . S
O36 C39 1.258 . S
C37 O34 1.320 . S
C37 O35 1.214 . S
O38 Cd30 2.277 1_655 S
O38 C33 1.209 1_545 S
C39 O36 1.258 . S
C39 O41 1.283 . S
O40 Cd32 2.277 1_565 S
O40 C33 1.226 1_455 S
O41 Cd32 2.357 . S
O41 C39 1.283 . S
C42 C43 1.443 . S
C42 N46 1.376 . S
C42 C80 1.389 . S
C43 C42 1.443 . S
C43 C44 1.340 . S
C43 H83 0.951 . S
C44 C43 1.340 . S
C44 C45 1.439 . S
C44 H84 0.950 . S
C45 C44 1.439 . S
C45 N46 1.374 . S
C45 C79 1.395 . S
N46 C42 1.376 . S
N46 C45 1.374 . S
N46 Co47 2.008 . S
Co47 N46 2.008 . S
Co47 N48 1.995 . S
Co47 N53 2.008 1_455 S
Co47 N58 1.995 1_455 S
Co47 N63 2.282 . S
Co47 N69 2.282 . S
N48 Co47 1.995 . S
N48 C49 1.376 . S
N48 C52 1.383 . S
C49 N48 1.376 . S
C49 C50 1.446 . S
C49 C79 1.391 . S
C50 C49 1.446 . S
C50 C51 1.339 . S
C50 H85 0.949 . S
C51 C50 1.339 . S
C51 C52 1.439 . S
C51 H86 0.950 . S
C52 N48 1.383 . S
C52 C51 1.439 . S
C52 C81 1.392 . S
N53 Co47 2.008 1_655 S
N53 C54 1.376 . S
N53 C57 1.374 . S
C54 N53 1.376 . S
C54 C55 1.443 . S
C54 C81 1.389 1_655 S
C55 C54 1.443 . S
C55 C56 1.340 . S
C55 H87 0.951 . S
C56 C55 1.340 . S
C56 C57 1.439 . S
C56 H88 0.950 . S
C57 N53 1.374 . S
C57 C56 1.439 . S
C57 C82 1.395 . S
N58 Co47 1.995 1_655 S
N58 C59 1.376 . S
N58 C62 1.383 1_655 S
C59 N58 1.376 . S
C59 C60 1.446 . S
C59 C82 1.391 . S
C60 C59 1.446 . S
C60 C61 1.339 . S
C60 H89 0.949 . S
C61 C60 1.339 . S
C61 C62 1.439 1_655 S
C61 H90 0.950 . S
C62 N58 1.383 1_455 S
C62 C61 1.439 1_455 S
C62 C80 1.392 . S
N63 Co47 2.282 . S
N63 C66 1.332 . S
N63 C68 1.332 . S
C64 C65 1.386 . S
C64 C67 1.388 . S
C65 C64 1.386 . S
C65 C66 1.382 . S
C65 H91 0.950 1_455 S
C66 N63 1.332 . S
C66 C65 1.382 . S
C66 H77 0.952 1_455 S
C67 C64 1.388 . S
C67 C68 1.382 . S
C67 H92 0.950 . S
C68 N63 1.332 . S
C68 C67 1.382 . S
C68 H78 0.948 . S
N69 Co47 2.282 . S
N69 C73 1.332 . S
N69 C74 1.332 1_455 S
C70 C71 1.388 1_655 S
C70 C74 1.382 . S
C70 H93 0.950 . S
C71 C70 1.388 1_455 S
C71 C72 1.386 . S
C72 C71 1.386 . S
C72 C73 1.382 . S
C72 H94 0.950 . S
C73 N69 1.332 . S
C73 C72 1.382 . S
C73 H75 0.952 . S
C74 N69 1.332 1_655 S
C74 C70 1.382 . S
C74 H76 0.948 . S
H75 C73 0.952 . S
H76 C74 0.948 . S
H77 C66 0.952 1_655 S
H78 C68 0.948 . S
C79 C45 1.395 . S
C79 C49 1.391 . S
C80 C42 1.389 . S
C80 C62 1.392 . S
C81 C52 1.392 . S
C81 C54 1.389 1_455 S
C82 C57 1.395 . S
C82 C59 1.391 . S
H83 C43 0.951 . S
H84 C44 0.950 . S
H85 C50 0.949 . S
H86 C51 0.950 . S
H87 C55 0.951 . S
H88 C56 0.950 . S
H89 C60 0.949 . S
H90 C61 0.950 . S
H91 C65 0.950 1_655 S
H92 C67 0.950 . S
H93 C70 0.950 . S
H94 C72 0.950 . S
C95 C96 1.443 1_545 S
C95 N99 1.376 . S
C95 C133 1.389 . S
C96 C95 1.443 1_565 S
C96 C97 1.340 . S
C96 H136 0.951 . S
C97 C96 1.340 . S
C97 C98 1.439 . S
C97 H137 0.950 . S
C98 C97 1.439 . S
C98 N99 1.374 1_565 S
C98 C132 1.395 . S
N99 C95 1.376 . S
N99 C98 1.374 1_545 S
N99 Co100 2.008 . S
Co100 N99 2.008 . S
Co100 N101 1.995 . S
Co100 N106 2.008 . S
Co100 N111 1.995 . S
Co100 N116 2.282 . S
Co100 N122 2.282 . S
N101 Co100 1.995 . S
N101 C102 1.376 1_545 S
N101 C105 1.383 . S
C102 N101 1.376 1_565 S
C102 C103 1.446 . S
C102 C132 1.391 . S
C103 C102 1.446 . S
C103 C104 1.339 . S
C103 H138 0.949 . S
C104 C103 1.339 . S
C104 C105 1.439 1_565 S
C104 H139 0.950 . S
C105 N101 1.383 . S
C105 C104 1.439 1_545 S
C105 C134 1.392 . S
N106 Co100 2.008 . S
N106 C107 1.376 . S
N106 C110 1.374 . S
C107 N106 1.376 . S
C107 C108 1.443 . S
C107 C134 1.389 . S
C108 C107 1.443 . S
C108 C109 1.340 . S
C108 H140 0.951 . S
C109 C108 1.340 . S
C109 C110 1.439 . S
C109 H141 0.950 . S
C110 N106 1.374 . S
C110 C109 1.439 . S
C110 C135 1.395 . S
N111 Co100 1.995 . S
N111 C112 1.376 . S
N111 C115 1.383 . S
C112 N111 1.376 . S
C112 C113 1.446 . S
C112 C135 1.391 . S
C113 C112 1.446 . S
C113 C114 1.339 . S
C113 H142 0.949 . S
C114 C113 1.339 . S
C114 C115 1.439 . S
C114 H143 0.950 . S
C115 N111 1.383 . S
C115 C114 1.439 . S
C115 C133 1.392 . S
N116 Co100 2.282 . S
N116 C119 1.332 . S
N116 C121 1.332 . S
C117 C118 1.386 . S
C117 C120 1.388 . S
C118 C117 1.386 . S
C118 C119 1.382 . S
C118 H144 0.950 . S
C119 N116 1.332 . S
C119 C118 1.382 . S
C119 H130 0.952 . S
C120 C117 1.388 . S
C120 C121 1.382 . S
C120 H145 0.950 1_545 S
C121 N116 1.332 . S
C121 C120 1.382 . S
C121 H131 0.948 1_545 S
N122 Co100 2.282 . S
N122 C126 1.332 . S
N122 C127 1.332 . S
C123 C124 1.388 . S
C123 C127 1.382 . S
C123 H146 0.950 . S
C124 C123 1.388 . S
C124 C125 1.386 . S
C125 C124 1.386 . S
C125 C126 1.382 . S
C125 H147 0.950 1_545 S
C126 N122 1.332 . S
C126 C125 1.382 . S
C126 H128 0.952 1_545 S
C127 N122 1.332 . S
C127 C123 1.382 . S
C127 H129 0.948 . S
H128 C126 0.952 1_565 S
H129 C127 0.948 . S
H130 C119 0.952 . S
H131 C121 0.948 1_565 S
C132 C98 1.395 . S
C132 C102 1.391 . S
C133 C95 1.389 . S
C133 C115 1.392 . S
C134 C105 1.392 . S
C134 C107 1.389 . S
C135 C110 1.395 . S
C135 C112 1.391 . S
H136 C96 0.951 . S
H137 C97 0.950 . S
H138 C103 0.949 . S
H139 C104 0.950 . S
H140 C108 0.951 . S
H141 C109 0.950 . S
H142 C113 0.949 . S
H143 C114 0.950 . S
H144 C118 0.950 . S
H145 C120 0.950 1_565 S
H146 C123 0.950 . S
H147 C125 0.950 1_565 S
C148 C149 1.443 . S
C148 N152 1.376 . S
C148 C186 1.389 . S
C149 C148 1.443 . S
C149 C150 1.340 . S
C149 H189 0.951 . S
C150 C149 1.340 . S
C150 C151 1.439 . S
C150 H190 0.950 . S
C151 C150 1.439 . S
C151 N152 1.374 . S
C151 C185 1.395 . S
N152 C148 1.376 . S
N152 C151 1.374 . S
N152 Co153 2.008 . S
Co153 N152 2.008 . S
Co153 N154 1.995 . S
Co153 N159 2.008 . S
Co153 N164 1.995 . S
Co153 N169 2.282 . S
Co153 N175 2.282 . S
N154 Co153 1.995 . S
N154 C155 1.376 . S
N154 C158 1.383 . S
C155 N154 1.376 . S
C155 C156 1.446 . S
C155 C185 1.391 . S
C156 C155 1.446 . S
C156 C157 1.339 . S
C156 H191 0.949 . S
C157 C156 1.339 . S
C157 C158 1.439 . S
C157 H192 0.950 . S
C158 N154 1.383 . S
C158 C157 1.439 . S
C158 C187 1.392 . S
N159 Co153 2.008 . S
N159 C160 1.376 . S
N159 C163 1.374 . S
C160 N159 1.376 . S
C160 C161 1.443 . S
C160 C187 1.389 . S
C161 C160 1.443 . S
C161 C162 1.340 . S
C161 H193 0.951 . S
C162 C161 1.340 . S
C162 C163 1.439 . S
C162 H194 0.950 . S
C163 N159 1.374 . S
C163 C162 1.439 . S
C163 C188 1.395 . S
N164 Co153 1.995 . S
N164 C165 1.376 . S
N164 C168 1.383 . S
C165 N164 1.376 . S
C165 C166 1.446 . S
C165 C188 1.391 . S
C166 C165 1.446 . S
C166 C167 1.339 . S
C166 H195 0.949 . S
C167 C166 1.339 . S
C167 C168 1.439 . S
C167 H196 0.950 . S
C168 N164 1.383 . S
C168 C167 1.439 . S
C168 C186 1.392 . S
N169 Co153 2.282 . S
N169 C172 1.332 . S
N169 C174 1.332 . S
C170 C171 1.386 . S
C170 C173 1.388 . S
C171 C170 1.386 . S
C171 C172 1.382 . S
C171 H197 0.950 . S
C172 N169 1.332 . S
C172 C171 1.382 . S
C172 H183 0.952 . S
C173 C170 1.388 . S
C173 C174 1.382 . S
C173 H198 0.950 . S
C174 N169 1.332 . S
C174 C173 1.382 . S
C174 H184 0.948 . S
N175 Co153 2.282 . S
N175 C179 1.332 . S
N175 C180 1.332 . S
C176 C177 1.388 . S
C176 C180 1.382 . S
C176 H199 0.950 . S
C177 C176 1.388 . S
C177 C178 1.386 . S
C178 C177 1.386 . S
C178 C179 1.382 . S
C178 H200 0.950 . S
C179 N175 1.332 . S
C179 C178 1.382 . S
C179 H181 0.952 . S
C180 N175 1.332 . S
C180 C176 1.382 . S
C180 H182 0.948 . S
H181 C179 0.952 . S
H182 C180 0.948 . S
H183 C172 0.952 . S
H184 C174 0.948 . S
C185 C151 1.395 . S
C185 C155 1.391 . S
C186 C148 1.389 . S
C186 C168 1.392 . S
C187 C158 1.392 . S
C187 C160 1.389 . S
C188 C163 1.395 . S
C188 C165 1.391 . S
H189 C149 0.951 . S
H190 C150 0.950 . S
H191 C156 0.949 . S
H192 C157 0.950 . S
H193 C161 0.951 . S
H194 C162 0.950 . S
H195 C166 0.949 . S
H196 C167 0.950 . S
H197 C171 0.950 . S
H198 C173 0.950 . S
H199 C176 0.950 . S
H200 C178 0.950 . S
H201 C209 0.950 . S
H202 C214 0.950 . S
H203 C211 0.950 . S
H204 C213 0.950 . S
H205 C215 0.950 . S
H206 C217 0.950 . S
H207 C219 0.950 . S
H208 C220 0.950 . S
C209 H201 0.950 . S
C209 C210 1.386 . S
C209 C211 1.391 . S
C210 C209 1.386 . S
C210 C214 1.393 . S
C211 H203 0.950 . S
C211 C209 1.391 . S
C211 C212 1.400 . S
C212 C211 1.400 . S
C212 C213 1.398 . S
C212 C218 1.491 . S
C213 H204 0.950 . S
C213 C212 1.398 . S
C213 C214 1.391 . S
C214 H202 0.950 . S
C214 C210 1.393 . S
C214 C213 1.391 . S
C215 H205 0.950 . S
C215 C216 1.386 . S
C215 C217 1.391 . S
C216 C215 1.386 . S
C216 C220 1.393 . S
C217 H206 0.950 . S
C217 C215 1.391 . S
C217 C218 1.400 . S
C218 C212 1.491 . S
C218 C217 1.400 . S
C218 C219 1.398 . S
C219 H207 0.950 . S
C219 C218 1.398 . S
C219 C220 1.391 . S
C220 H208 0.950 . S
C220 C216 1.393 . S
C220 C219 1.391 . S
H221 C229 0.950 1_565 S
H222 C234 0.950 . S
H223 C231 0.950 1_565 S
H224 C233 0.950 . S
H225 C235 0.950 . S
H226 C237 0.950 . S
H227 C239 0.950 1_565 S
H228 C240 0.950 1_565 S
C229 H221 0.950 1_545 S
C229 C230 1.386 . S
C229 C231 1.391 . S
C230 C229 1.386 . S
C230 C234 1.393 . S
C231 H223 0.950 1_545 S
C231 C229 1.391 . S
C231 C232 1.400 . S
C232 C231 1.400 . S
C232 C233 1.398 . S
C232 C238 1.491 . S
C233 H224 0.950 . S
C233 C232 1.398 . S
C233 C234 1.391 . S
C234 H222 0.950 . S
C234 C230 1.393 . S
C234 C233 1.391 . S
C235 H225 0.950 . S
C235 C236 1.386 . S
C235 C237 1.391 . S
C236 C235 1.386 . S
C236 C240 1.393 . S
C237 H226 0.950 . S
C237 C235 1.391 . S
C237 C238 1.400 . S
C238 C232 1.491 . S
C238 C237 1.400 . S
C238 C239 1.398 . S
C239 H227 0.950 1_545 S
C239 C238 1.398 . S
C239 C240 1.391 . S
C240 H228 0.950 1_545 S
C240 C236 1.393 . S
C240 C239 1.391 . S
H241 C249 0.950 . S
H242 C254 0.950 . S
H243 C251 0.950 . S
H244 C253 0.950 . S
H245 C255 0.950 . S
H246 C257 0.950 . S
H247 C259 0.950 . S
H248 C260 0.950 . S
C249 H241 0.950 . S
C249 C250 1.386 . S
C249 C251 1.391 . S
C250 C249 1.386 . S
C250 C254 1.393 . S
C251 H243 0.950 . S
C251 C249 1.391 . S
C251 C252 1.400 . S
C252 C251 1.400 . S
C252 C253 1.398 . S
C252 C258 1.491 . S
C253 H244 0.950 . S
C253 C252 1.398 . S
C253 C254 1.391 . S
C254 H242 0.950 . S
C254 C250 1.393 . S
C254 C253 1.391 . S
C255 H245 0.950 . S
C255 C256 1.386 . S
C255 C257 1.391 . S
C256 C255 1.386 . S
C256 C260 1.393 . S
C257 H246 0.950 . S
C257 C255 1.391 . S
C257 C258 1.400 . S
C258 C252 1.491 . S
C258 C257 1.400 . S
C258 C259 1.398 . S
C259 H247 0.950 . S
C259 C258 1.398 . S
C259 C260 1.391 . S
C260 H248 0.950 . S
C260 C256 1.393 . S
C260 C259 1.391 . S
H261 C269 0.950 . S
H262 C274 0.950 1_655 S
H263 C271 0.950 . S
H264 C273 0.950 1_655 S
H265 C275 0.950 1_655 S
H266 C277 0.950 1_655 S
H267 C279 0.950 . S
H268 C280 0.950 . S
C269 H261 0.950 . S
C269 C270 1.386 . S
C269 C271 1.391 . S
C270 C269 1.386 . S
C270 C274 1.393 . S
C271 H263 0.950 . S
C271 C269 1.391 . S
C271 C272 1.400 . S
C272 C271 1.400 . S
C272 C273 1.398 . S
C272 C278 1.491 . S
C273 H264 0.950 1_455 S
C273 C272 1.398 . S
C273 C274 1.391 . S
C274 H262 0.950 1_455 S
C274 C270 1.393 . S
C274 C273 1.391 . S
C275 H265 0.950 1_455 S
C275 C276 1.386 . S
C275 C277 1.391 . S
C276 C275 1.386 . S
C276 C280 1.393 . S
C277 H266 0.950 1_455 S
C277 C275 1.391 . S
C277 C278 1.400 . S
C278 C272 1.491 . S
C278 C277 1.400 . S
C278 C279 1.398 . S
C279 H267 0.950 . S
C279 C278 1.398 . S
C279 C280 1.391 . S
C280 H268 0.950 . S
C280 C276 1.393 . S
C280 C279 1.391 . S
H281 C289 0.950 . S
H282 C294 0.950 . S
H283 C291 0.950 . S
H284 C293 0.950 . S
H285 C295 0.950 1_565 S
H286 C297 0.950 1_565 S
H287 C299 0.950 . S
H288 C300 0.950 . S
C289 H281 0.950 . S
C289 C290 1.386 . S
C289 C291 1.391 . S
C290 C289 1.386 . S
C290 C294 1.393 . S
C291 H283 0.950 . S
C291 C289 1.391 . S
C291 C292 1.400 . S
C292 C291 1.400 . S
C292 C293 1.398 . S
C292 C298 1.491 . S
C293 H284 0.950 . S
C293 C292 1.398 . S
C293 C294 1.391 . S
C294 H282 0.950 . S
C294 C290 1.393 . S
C294 C293 1.391 . S
C295 H285 0.950 1_545 S
C295 C296 1.386 . S
C295 C297 1.391 . S
C296 C295 1.386 . S
C296 C300 1.393 . S
C297 H286 0.950 1_545 S
C297 C295 1.391 . S
C297 C298 1.400 . S
C298 C292 1.491 . S
C298 C297 1.400 . S
C298 C299 1.398 . S
C299 H287 0.950 . S
C299 C298 1.398 . S
C299 C300 1.391 . S
C300 H288 0.950 . S
C300 C296 1.393 . S
C300 C299 1.391 . S
H301 C309 0.950 . S
H302 C314 0.950 . S
H303 C311 0.950 . S
H304 C313 0.950 . S
H305 C315 0.950 . S
H306 C317 0.950 . S
H307 C319 0.950 . S
H308 C320 0.950 . S
C309 H301 0.950 . S
C309 C310 1.386 . S
C309 C311 1.391 . S
C310 C309 1.386 . S
C310 C314 1.393 . S
C311 H303 0.950 . S
C311 C309 1.391 . S
C311 C312 1.400 . S
C312 C311 1.400 . S
C312 C313 1.398 . S
C312 C318 1.491 . S
C313 H304 0.950 . S
C313 C312 1.398 . S
C313 C314 1.391 . S
C314 H302 0.950 . S
C314 C310 1.393 . S
C314 C313 1.391 . S
C315 H305 0.950 . S
C315 C316 1.386 . S
C315 C317 1.391 . S
C316 C315 1.386 . S
C316 C320 1.393 . S
C317 H306 0.950 . S
C317 C315 1.391 . S
C317 C318 1.400 . S
C318 C312 1.491 . S
C318 C317 1.400 . S
C318 C319 1.398 . S
C319 H307 0.950 . S
C319 C318 1.398 . S
C319 C320 1.391 . S
C320 H308 0.950 . S
C320 C316 1.393 . S
C320 C319 1.391 . S
H321 C329 0.950 1_565 S
H322 C334 0.950 . S
H323 C331 0.950 . S
H324 C333 0.950 . S
H325 C335 0.950 . S
H326 C337 0.950 . S
H327 C339 0.950 . S
H328 C340 0.950 . S
C329 H321 0.950 1_545 S
C329 C330 1.386 . S
C329 C331 1.391 . S
C330 C329 1.386 . S
C330 C334 1.393 . S
C331 H323 0.950 . S
C331 C329 1.391 . S
C331 C332 1.400 . S
C332 C331 1.400 . S
C332 C333 1.398 . S
C332 C338 1.491 . S
C333 H324 0.950 . S
C333 C332 1.398 . S
C333 C334 1.391 . S
C334 H322 0.950 . S
C334 C330 1.393 . S
C334 C333 1.391 . S
C335 H325 0.950 . S
C335 C336 1.386 . S
C335 C337 1.391 . S
C336 C335 1.386 . S
C336 C340 1.393 . S
C337 H326 0.950 . S
C337 C335 1.391 . S
C337 C338 1.400 . S
C338 C332 1.491 . S
C338 C337 1.400 . S
C338 C339 1.398 . S
C339 H327 0.950 . S
C339 C338 1.398 . S
C339 C340 1.391 . S
C340 H328 0.950 . S
C340 C336 1.393 . S
C340 C339 1.391 . S
H341 C349 0.950 . S
H342 C354 0.950 1_545 S
H343 C351 0.950 . S
H344 C353 0.950 . S
H345 C355 0.950 . S
H346 C357 0.950 . S
H347 C359 0.950 . S
H348 C360 0.950 . S
C349 H341 0.950 . S
C349 C350 1.386 . S
C349 C351 1.391 1_554 S
C350 C349 1.386 . S
C350 C354 1.393 1_554 S
C351 H343 0.950 . S
C351 C349 1.391 1_556 S
C351 C352 1.400 . S
C352 C351 1.400 . S
C352 C353 1.398 . S
C352 C358 1.491 . S
C353 H344 0.950 . S
C353 C352 1.398 . S
C353 C354 1.391 . S
C354 H342 0.950 1_565 S
C354 C350 1.393 1_556 S
C354 C353 1.391 . S
C355 H345 0.950 . S
C355 C356 1.386 . S
C355 C357 1.391 . S
C356 C355 1.386 . S
C356 C360 1.393 . S
C357 H346 0.950 . S
C357 C355 1.391 . S
C357 C358 1.400 . S
C358 C352 1.491 . S
C358 C357 1.400 . S
C358 C359 1.398 . S
C359 H347 0.950 . S
C359 C358 1.398 . S
C359 C360 1.391 . S
C360 H348 0.950 . S
C360 C356 1.393 . S
C360 C359 1.391 . S
H361 C369 0.950 . S
H362 C374 0.950 . S
H363 C371 0.950 . S
H364 C373 0.950 . S
H365 C375 0.950 . S
H366 C377 0.950 . S
H367 C379 0.950 . S
H368 C380 0.950 . S
C369 H361 0.950 . S
C369 C370 1.386 . S
C369 C371 1.391 . S
C370 C369 1.386 . S
C370 C374 1.393 1_455 S
C371 H363 0.950 . S
C371 C369 1.391 . S
C371 C372 1.400 . S
C372 C371 1.400 . S
C372 C373 1.398 1_455 S
C372 C378 1.491 . S
C373 H364 0.950 . S
C373 C372 1.398 1_655 S
C373 C374 1.391 . S
C374 H362 0.950 . S
C374 C370 1.393 1_655 S
C374 C373 1.391 . S
C375 H365 0.950 . S
C375 C376 1.386 1_655 S
C375 C377 1.391 . S
C376 C375 1.386 1_455 S
C376 C380 1.393 . S
C377 H366 0.950 . S
C377 C375 1.391 . S
C377 C378 1.400 1_655 S
C378 C372 1.491 . S
C378 C377 1.400 1_455 S
C378 C379 1.398 . S
C379 H367 0.950 . S
C379 C378 1.398 . S
C379 C380 1.391 . S
C380 H368 0.950 . S
C380 C376 1.393 . S
C380 C379 1.391 . S
H381 C389 0.950 . S
H382 C394 0.950 1_565 S
H383 C391 0.950 . S
H384 C393 0.950 1_565 S
H385 C395 0.950 . S
H386 C397 0.946 1_565 S
H387 C399 0.950 . S
H388 C400 0.950 . S
C389 H381 0.950 . S
C389 C390 1.386 . S
C389 C391 1.391 . S
C390 C389 1.386 . S
C390 C394 1.393 . S
C391 H383 0.950 . S
C391 C389 1.391 . S
C391 C392 1.400 . S
C392 C391 1.400 . S
C392 C393 1.398 . S
C392 C398 1.491 . S
C393 H384 0.950 1_545 S
C393 C392 1.398 . S
C393 C394 1.391 . S
C394 H382 0.950 1_545 S
C394 C390 1.393 . S
C394 C393 1.391 . S
C395 H385 0.950 . S
C395 C396 1.386 . S
C395 C397 1.391 . S
C396 C395 1.386 . S
C396 C400 1.393 . S
C397 H386 0.946 1_545 S
C397 C395 1.391 . S
C397 C398 1.400 . S
C398 C392 1.491 . S
C398 C397 1.400 . S
C398 C399 1.398 . S
C399 H387 0.950 . S
C399 C398 1.398 . S
C399 C400 1.391 . S
C400 H388 0.950 . S
C400 C396 1.393 . S
C400 C399 1.391 . S
H401 C409 0.950 . S
H402 C414 0.950 . S
H403 C411 0.950 . S
H404 C413 0.950 . S
H405 C415 0.950 . S
H406 C417 0.950 . S
H407 C419 0.950 . S
H408 C420 0.950 . S
C409 H401 0.950 . S
C409 C410 1.386 1_554 S
C409 C411 1.391 1_554 S
C410 C409 1.386 1_556 S
C410 C414 1.393 . S
C411 H403 0.950 . S
C411 C409 1.391 1_556 S
C411 C412 1.400 . S
C412 C411 1.400 . S
C412 C413 1.398 . S
C412 C418 1.491 . S
C413 H404 0.950 . S
C413 C412 1.398 . S
C413 C414 1.391 . S
C414 H402 0.950 . S
C414 C410 1.393 . S
C414 C413 1.391 . S
C415 H405 0.950 . S
C415 C416 1.386 . S
C415 C417 1.391 . S
C416 C415 1.386 . S
C416 C420 1.393 . S
C417 H406 0.950 . S
C417 C415 1.391 . S
C417 C418 1.400 . S
C418 C412 1.491 . S
C418 C417 1.400 . S
C418 C419 1.398 . S
C419 H407 0.950 . S
C419 C418 1.398 . S
C419 C420 1.391 . S
C420 H408 0.950 . S
C420 C416 1.393 . S
C420 C419 1.391 . S
H421 C429 0.950 . S
H422 C434 0.950 1_655 S
H423 C431 0.950 . S
H424 C433 0.950 1_655 S
H425 C435 0.950 1_655 S
H426 C437 0.950 1_655 S
H427 C439 0.950 . S
H428 C440 0.950 . S
C429 H421 0.950 . S
C429 C430 1.386 . S
C429 C431 1.391 . S
C430 C429 1.386 . S
C430 C434 1.393 . S
C431 H423 0.950 . S
C431 C429 1.391 . S
C431 C432 1.400 . S
C432 C431 1.400 . S
C432 C433 1.398 . S
C432 C438 1.491 . S
C433 H424 0.950 1_455 S
C433 C432 1.398 . S
C433 C434 1.391 . S
C434 H422 0.950 1_455 S
C434 C430 1.393 . S
C434 C433 1.391 . S
C435 H425 0.950 1_455 S
C435 C436 1.386 . S
C435 C437 1.391 . S
C436 C435 1.386 . S
C436 C440 1.393 . S
C437 H426 0.950 1_455 S
C437 C435 1.391 . S
C437 C438 1.400 . S
C438 C432 1.491 . S
C438 C437 1.400 . S
C438 C439 1.398 . S
C439 H427 0.950 . S
C439 C438 1.398 . S
C439 C440 1.391 . S
C440 H428 0.950 . S
C440 C436 1.393 . S
C440 C439 1.391 . S
C216 C64 1.452 . S
C210 C0 1.452 . S
C230 C25 1.493 . S
C236 C134 1.489 . S
C250 C33 1.504 . S
C256 C186 1.506 . S
C270 C11 1.444 . S
C276 C80 1.439 . S
C296 C124 1.483 . S
C290 C14 1.484 . S
C310 C37 1.501 . S
C316 C170 1.504 . S
C336 C117 1.485 . S
C330 C28 1.475 . S
C350 C9 1.499 . S
C356 C177 1.504 . S
C376 C71 1.532 . S
C370 C19 1.530 . S
C396 C133 1.489 . S
C390 C39 1.488 . S
C416 C187 1.508 . S
C410 C5 1.509 1_556 S
C430 C23 1.547 . S
C436 C81 1.549 . S
