# Generated by pormake.
# Topology csq, (4,8)-cn, num edge types: 1
# Building blocks:
#     Node 0, Type 0, BuildingBlock: KOZSID_clean_sbu_0, # of connection points: 4
#     Node 1, Type 0, BuildingBlock: KOZSID_clean_sbu_0, # of connection points: 4
#     Node 2, Type 0, BuildingBlock: KOZSID_clean_sbu_0, # of connection points: 4
#     Node 3, Type 0, BuildingBlock: KOZSID_clean_sbu_0, # of connection points: 4
#     Node 4, Type 0, BuildingBlock: KOZSID_clean_sbu_0, # of connection points: 4
#     Node 5, Type 0, BuildingBlock: KOZSID_clean_sbu_0, # of connection points: 4
#     Node 6, Type 1, BuildingBlock: TAGTUT_clean_sbu_3, # of connection points: 8
#     Node 7, Type 1, BuildingBlock: TAGTUT_clean_sbu_3, # of connection points: 8
#     Node 8, Type 1, BuildingBlock: TAGTUT_clean_sbu_3, # of connection points: 8
#     Edge 9, Type (0, 1), BuildingBlock: UVAHIK_clean_linker_0, # of connection points: 2
#     Edge 10, Type (0, 1), BuildingBlock: UVAHIK_clean_linker_0, # of connection points: 2
#     Edge 11, Type (0, 1), BuildingBlock: UVAHIK_clean_linker_0, # of connection points: 2
#     Edge 12, Type (0, 1), BuildingBlock: UVAHIK_clean_linker_0, # of connection points: 2
#     Edge 13, Type (0, 1), BuildingBlock: UVAHIK_clean_linker_0, # of connection points: 2
#     Edge 14, Type (0, 1), BuildingBlock: UVAHIK_clean_linker_0, # of connection points: 2
#     Edge 15, Type (0, 1), BuildingBlock: UVAHIK_clean_linker_0, # of connection points: 2
#     Edge 16, Type (0, 1), BuildingBlock: UVAHIK_clean_linker_0, # of connection points: 2
#     Edge 17, Type (0, 1), BuildingBlock: UVAHIK_clean_linker_0, # of connection points: 2
#     Edge 18, Type (0, 1), BuildingBlock: UVAHIK_clean_linker_0, # of connection points: 2
#     Edge 19, Type (0, 1), BuildingBlock: UVAHIK_clean_linker_0, # of connection points: 2
#     Edge 20, Type (0, 1), BuildingBlock: UVAHIK_clean_linker_0, # of connection points: 2
#     Edge 21, Type (0, 1), BuildingBlock: UVAHIK_clean_linker_0, # of connection points: 2
#     Edge 22, Type (0, 1), BuildingBlock: UVAHIK_clean_linker_0, # of connection points: 2
#     Edge 23, Type (0, 1), BuildingBlock: UVAHIK_clean_linker_0, # of connection points: 2
#     Edge 24, Type (0, 1), BuildingBlock: UVAHIK_clean_linker_0, # of connection points: 2
#     Edge 25, Type (0, 1), BuildingBlock: UVAHIK_clean_linker_0, # of connection points: 2
#     Edge 26, Type (0, 1), BuildingBlock: UVAHIK_clean_linker_0, # of connection points: 2
#     Edge 27, Type (0, 1), BuildingBlock: UVAHIK_clean_linker_0, # of connection points: 2
#     Edge 28, Type (0, 1), BuildingBlock: UVAHIK_clean_linker_0, # of connection points: 2
#     Edge 29, Type (0, 1), BuildingBlock: UVAHIK_clean_linker_0, # of connection points: 2
#     Edge 30, Type (0, 1), BuildingBlock: UVAHIK_clean_linker_0, # of connection points: 2
#     Edge 31, Type (0, 1), BuildingBlock: UVAHIK_clean_linker_0, # of connection points: 2
#     Edge 32, Type (0, 1), BuildingBlock: UVAHIK_clean_linker_0, # of connection points: 2
# Relax obj value: 0.030
# Max RMSD: 0.125
# Mean RMSD: 0.045
data_MOF--net-csq--node1-KOZSID_clean_sbu_0--node2-TAGTUT_clean_sbu_3--edge1-UVAHIK_clean_linker_0
_symmetry_space_group_name_H-M    P1
_symmetry_Int_Tables_number       1
_symmetry_cell_setting            triclinic
loop_
_symmetry_equiv_pos_as_xyz
'x, y, z'
_cell_length_a     71.26546
_cell_length_b     70.416752
_cell_length_c     25.345787
_cell_angle_alpha  88.558457
_cell_angle_beta   96.094883
_cell_angle_gamma 119.92911
loop_
_atom_site_label
_atom_site_type_symbol
_atom_site_fract_x
_atom_site_fract_y
_atom_site_fract_z
_atom_type_partial_charge
C0 C 0.28218 0.50633 0.22757 0.0
C1 C 0.29679 0.52871 0.22748 0.0
C2 C 0.2928 0.53588 0.17918 0.0
C3 C 0.27604 0.5176 0.15249 0.0
N4 N 0.26884 0.49938 0.18135 0.0
Co5 Co 0.24552 0.46936 0.15623 0.0
N6 N 0.23557 0.48093 0.09399 0.0
C7 C 0.2468 0.50086 0.07357 0.0
C8 C 0.23537 0.50408 0.03052 0.0
C9 C 0.21573 0.48496 0.02357 0.0
C10 C 0.21635 0.47119 0.063 0.0
N11 N 0.22232 0.43946 0.13098 0.0
C12 C 0.2043 0.43335 0.09658 0.0
C13 C 0.19192 0.4107 0.09032 0.0
C14 C 0.20275 0.4024 0.12201 0.0
C15 C 0.22099 0.42038 0.14578 0.0
N16 N 0.25544 0.45757 0.2185 0.0
C17 C 0.24981 0.4364 0.22546 0.0
C18 C 0.25895 0.43303 0.27255 0.0
C19 C 0.27153 0.4534 0.29632 0.0
C20 C 0.26949 0.46813 0.26202 0.0
N21 N 0.22524 0.47194 0.19807 0.0
C22 C 0.1954 0.47543 0.25574 0.0
C23 C 0.19758 0.45666 0.25823 0.0
C24 C 0.21245 0.45521 0.22904 0.0
C25 C 0.20866 0.49242 0.22373 0.0
C26 C 0.22345 0.4904 0.19561 0.0
N27 N 0.26572 0.46685 0.11379 0.0
C28 C 0.30166 0.47284 0.10677 0.0
C29 C 0.29563 0.46459 0.05443 0.0
C30 C 0.27423 0.45751 0.03206 0.0
C31 C 0.25946 0.45862 0.06259 0.0
C32 C 0.28658 0.47394 0.13527 0.0
H33 H 0.24306 0.45298 0.04463 0.0
H34 H 0.29192 0.48089 0.17448 0.0
H35 H 0.21351 0.44049 0.23147 0.0
H36 H 0.2333 0.50377 0.17139 0.0
C37 C 0.26576 0.51719 0.10198 0.0
C38 C 0.28441 0.49189 0.26748 0.0
C39 C 0.19895 0.4487 0.06871 0.0
C40 C 0.23443 0.41993 0.18944 0.0
H41 H 0.30967 0.53863 0.25814 0.0
H42 H 0.30124 0.55242 0.1651 0.0
H43 H 0.24026 0.5189 0.00851 0.0
H44 H 0.20245 0.48156 0.99327 0.0
H45 H 0.17657 0.40118 0.06605 0.0
H46 H 0.19731 0.38529 0.12912 0.0
H47 H 0.25674 0.41763 0.2878 0.0
H48 H 0.28195 0.45718 0.33338 0.0
H49 H 0.18803 0.44319 0.28293 0.0
H50 H 0.20743 0.50712 0.21958 0.0
H51 H 0.31813 0.47892 0.12536 0.0
H52 H 0.26891 0.45101 0.9916 0.0
C53 C 0.81229 0.27205 0.03822 0.0
C54 C 0.83039 0.27212 0.02227 0.0
C55 C 0.82991 0.25357 0.04087 0.0
C56 C 0.81173 0.24331 0.06728 0.0
N57 N 0.80053 0.2542 0.0669 0.0
Co58 Co 0.7733 0.24516 0.10155 0.0
N59 N 0.77228 0.21749 0.12754 0.0
C60 C 0.78689 0.21102 0.12118 0.0
C61 C 0.78136 0.19079 0.14077 0.0
C62 C 0.76193 0.18377 0.1604 0.0
C63 C 0.75676 0.20026 0.15195 0.0
N64 N 0.74591 0.23598 0.13558 0.0
C65 C 0.73302 0.21715 0.15973 0.0
C66 C 0.71534 0.21739 0.17738 0.0
C67 C 0.71675 0.23677 0.16261 0.0
C68 C 0.7352 0.24729 0.13722 0.0
N69 N 0.77429 0.27281 0.07563 0.0
C70 C 0.76019 0.27974 0.08402 0.0
C71 C 0.76476 0.29913 0.06073 0.0
C72 C 0.78289 0.30503 0.036 0.0
C73 C 0.78846 0.28888 0.04594 0.0
N74 N 0.75537 0.22927 0.03564 0.0
C75 C 0.72429 0.19877 0.9591 0.0
C76 C 0.72109 0.21483 0.9809 0.0
C77 C 0.73695 0.23007 0.01824 0.0
C78 C 0.7444 0.1999 0.97173 0.0
C79 C 0.75964 0.21522 0.00985 0.0
N80 N 0.79114 0.26089 0.16831 0.0
C81 C 0.79793 0.2845 0.24398 0.0
C82 C 0.81692 0.28406 0.26191 0.0
C83 C 0.82244 0.27131 0.23289 0.0
C84 C 0.80934 0.25981 0.18696 0.0
C85 C 0.78558 0.27314 0.1973 0.0
H86 H 0.81449 0.25042 0.16703 0.0
H87 H 0.77172 0.27474 0.18545 0.0
H88 H 0.73344 0.2416 0.03453 0.0
H89 H 0.77429 0.21472 0.01957 0.0
C90 C 0.80474 0.22347 0.09292 0.0
C91 C 0.80722 0.28949 0.02577 0.0
C92 C 0.73651 0.19841 0.16571 0.0
C93 C 0.74244 0.26738 0.11266 0.0
H94 H 0.84276 0.28436 0.99973 0.0
H95 H 0.84149 0.24823 0.03588 0.0
H96 H 0.79004 0.18188 0.13928 0.0
H97 H 0.75243 0.16803 0.17772 0.0
H98 H 0.70253 0.20473 0.19814 0.0
H99 H 0.70545 0.24234 0.16875 0.0
H100 H 0.75583 0.30782 0.06119 0.0
H101 H 0.79098 0.31952 0.01293 0.0
H102 H 0.70594 0.21492 0.97187 0.0
H103 H 0.74803 0.18842 0.95403 0.0
H104 H 0.79262 0.29376 0.26548 0.0
H105 H 0.83715 0.2706 0.2445 0.0
C106 C 0.56081 0.7446 0.10707 0.0
C107 C 0.5805 0.74854 0.1339 0.0
C108 C 0.5958 0.76913 0.12155 0.0
C109 C 0.58469 0.77653 0.08775 0.0
N110 N 0.5632 0.76187 0.07748 0.0
Co111 Co 0.5412 0.76579 0.02947 0.0
N112 N 0.56327 0.79695 0.01571 0.0
C113 C 0.58434 0.80812 0.03685 0.0
C114 C 0.59538 0.82937 0.02126 0.0
C115 C 0.58052 0.83197 0.98805 0.0
C116 C 0.56122 0.81199 0.98489 0.0
N117 N 0.51929 0.76946 0.98036 0.0
C118 C 0.5216 0.78678 0.95117 0.0
C119 C 0.5025 0.78185 0.91943 0.0
C120 C 0.48754 0.76082 0.92931 0.0
C121 C 0.49832 0.75403 0.96595 0.0
N122 N 0.51892 0.73487 0.04459 0.0
C123 C 0.49763 0.72397 0.0251 0.0
C124 C 0.48595 0.70358 0.04511 0.0
C125 C 0.50056 0.7013 0.07995 0.0
C126 C 0.52049 0.72045 0.07874 0.0
N127 N 0.53337 0.77628 0.09071 0.0
C128 C 0.52248 0.79166 0.17762 0.0
C129 C 0.50631 0.77649 0.14024 0.0
C130 C 0.51207 0.76926 0.0972 0.0
C131 C 0.54419 0.79866 0.17096 0.0
C132 C 0.54919 0.79067 0.128 0.0
N133 N 0.54914 0.75533 0.96807 0.0
C134 C 0.53897 0.72964 0.89467 0.0
C135 C 0.56048 0.73974 0.88224 0.0
C136 C 0.5761 0.75815 0.91292 0.0
C137 C 0.57018 0.76545 0.95551 0.0
C138 C 0.5337 0.73776 0.93684 0.0
H139 H 0.58303 0.77921 0.97778 0.0
H140 H 0.51703 0.72929 0.9437 0.0
H141 H 0.49903 0.75809 0.06954 0.0
H142 H 0.56602 0.79657 0.12553 0.0
C143 C 0.59355 0.79777 0.0688 0.0
C144 C 0.54028 0.72433 0.11161 0.0
C145 C 0.5415 0.80807 0.95166 0.0
C146 C 0.48905 0.73342 0.98822 0.0
H147 H 0.58344 0.73774 0.16025 0.0
H148 H 0.61289 0.77787 0.1365 0.0
H149 H 0.61231 0.84145 0.03216 0.0
H150 H 0.58363 0.84686 0.96805 0.0
H151 H 0.49964 0.7923 0.89169 0.0
H152 H 0.4708 0.75154 0.91176 0.0
H153 H 0.46879 0.6919 0.03604 0.0
H154 H 0.49679 0.68718 0.104 0.0
H155 H 0.48921 0.77022 0.14379 0.0
H156 H 0.55746 0.81071 0.19791 0.0
H157 H 0.5262 0.71504 0.87315 0.0
H158 H 0.59294 0.76685 0.90467 0.0
C159 C 0.83445 0.57968 0.12853 0.0
C160 C 0.85089 0.6014 0.12859 0.0
C161 C 0.84295 0.61192 0.09541 0.0
C162 C 0.82225 0.59606 0.0769 0.0
N163 N 0.81626 0.57615 0.09735 0.0
Co164 Co 0.78864 0.54786 0.07718 0.0
N165 N 0.77843 0.56244 0.02168 0.0
C166 C 0.789 0.5838 0.00887 0.0
C167 C 0.77769 0.58904 0.96975 0.0
C168 C 0.75854 0.57001 0.95766 0.0
C169 C 0.75923 0.55424 0.99056 0.0
N170 N 0.76118 0.51947 0.05651 0.0
C171 C 0.74346 0.51546 0.02254 0.0
C172 C 0.72733 0.49356 0.022 0.0
C173 C 0.73507 0.48341 0.057 0.0
C174 C 0.75533 0.49959 0.07713 0.0
N175 N 0.79872 0.53334 0.13309 0.0
C176 C 0.78786 0.51223 0.14764 0.0
C177 C 0.79947 0.50699 0.18593 0.0
C178 C 0.81915 0.52572 0.19536 0.0
C179 C 0.81836 0.54127 0.1619 0.0
N180 N 0.77367 0.55437 0.12997 0.0
C181 C 0.75143 0.56298 0.20322 0.0
C182 C 0.7495 0.54234 0.19893 0.0
C183 C 0.76058 0.53842 0.16237 0.0
C184 C 0.76478 0.57931 0.17036 0.0
C185 C 0.77575 0.57472 0.1345 0.0
N186 N 0.80381 0.54146 0.02496 0.0
C187 C 0.81789 0.51893 0.99622 0.0
C188 C 0.83161 0.53555 0.96439 0.0
C189 C 0.82998 0.55453 0.96064 0.0
C190 C 0.81612 0.55712 0.99097 0.0
C191 C 0.80405 0.52211 0.02544 0.0
H192 H 0.81617 0.57223 0.98741 0.0
H193 H 0.79425 0.50897 0.04956 0.0
H194 H 0.75803 0.52224 0.1607 0.0
H195 H 0.78566 0.58787 0.11066 0.0
C196 C 0.80914 0.59872 0.0358 0.0
C197 C 0.8373 0.56253 0.15481 0.0
C198 C 0.74069 0.53216 0.99319 0.0
C199 C 0.76805 0.49715 0.1197 0.0
H200 H 0.86724 0.60872 0.14867 0.0
H201 H 0.85167 0.62882 0.08383 0.0
H202 H 0.78256 0.60493 0.95301 0.0
H203 H 0.74529 0.56808 0.92892 0.0
H204 H 0.71129 0.48578 0.00019 0.0
H205 H 0.72649 0.46647 0.06835 0.0
H206 H 0.79468 0.49113 0.20272 0.0
H207 H 0.83291 0.52747 0.22185 0.0
H208 H 0.73902 0.52899 0.2228 0.0
H209 H 0.76687 0.59561 0.17242 0.0
H210 H 0.81836 0.50383 0.00039 0.0
H211 H 0.83964 0.5676 0.93509 0.0
C212 C 0.25944 0.82248 0.14692 0.0
C213 C 0.25595 0.8381 0.16936 0.0
C214 C 0.23394 0.83039 0.16123 0.0
C215 C 0.22526 0.81068 0.13399 0.0
N216 N 0.24048 0.80561 0.12451 0.0
Co217 Co 0.2356 0.77963 0.08377 0.0
N218 N 0.20708 0.77453 0.04972 0.0
C219 C 0.19529 0.78284 0.06681 0.0
C220 C 0.17623 0.77659 0.03485 0.0
C221 C 0.17591 0.76333 0.99567 0.0
C222 C 0.1948 0.76209 0.00616 0.0
N223 N 0.231 0.75376 0.04306 0.0
C224 C 0.21679 0.74302 2e-05 0.0
C225 C 0.21862 0.72516 0.98516 0.0
C226 C 0.23427 0.72468 0.02058 0.0
C227 C 0.24116 0.74215 0.05504 0.0
N228 N 0.26391 0.78453 0.11842 0.0
C229 C 0.27039 0.76956 0.12386 0.0
C230 C 0.29084 0.77783 0.1506 0.0
C231 C 0.29754 0.79932 0.1627 0.0
C232 C 0.28074 0.80292 0.14233 0.0
N233 N 0.22117 0.76077 0.14162 0.0
C234 C 0.20213 0.73256 0.22377 0.0
C235 C 0.19329 0.72639 0.17089 0.0
C236 C 0.2029 0.74078 0.13055 0.0
C237 C 0.22032 0.75339 0.23493 0.0
C238 C 0.22969 0.76719 0.19327 0.0
N239 N 0.25012 0.79852 0.0263 0.0
C240 C 0.27877 0.81225 0.96929 0.0
C241 C 0.27394 0.8285 0.95181 0.0
C242 C 0.25639 0.8289 0.97069 0.0
C243 C 0.2448 0.81387 0.0082 0.0
C244 C 0.26651 0.79726 0.00604 0.0
H245 H 0.23195 0.81512 0.02374 0.0
H246 H 0.27069 0.78503 0.01924 0.0
H247 H 0.1957 0.73554 0.09028 0.0
H248 H 0.24409 0.78289 0.20284 0.0
C249 C 0.20424 0.79911 0.10731 0.0
C250 C 0.28057 0.82342 0.14915 0.0
C251 C 0.19936 0.74722 0.97739 0.0
C252 C 0.25886 0.74973 0.09447 0.0
H253 H 0.26797 0.85353 0.18896 0.0
H254 H 0.2255 0.83879 0.17125 0.0
H255 H 0.16434 0.78164 0.0385 0.0
H256 H 0.16306 0.75522 0.96352 0.0
H257 H 0.20918 0.71326 0.95311 0.0
H258 H 0.24015 0.71316 0.02062 0.0
H259 H 0.30018 0.76958 0.15822 0.0
H260 H 0.31298 0.81096 0.18403 0.0
H261 H 0.17903 0.71052 0.16076 0.0
H262 H 0.22764 0.75872 0.27536 0.0
H263 H 0.29214 0.81133 0.95518 0.0
H264 H 0.25227 0.84133 0.95832 0.0
C265 C 0.49455 0.22093 0.21991 0.0
C266 C 0.5137 0.22542 0.25076 0.0
C267 C 0.52983 0.24456 0.23361 0.0
C268 C 0.51969 0.25062 0.19335 0.0
N269 N 0.49799 0.23659 0.18386 0.0
Co270 Co 0.47704 0.23889 0.12801 0.0
N271 N 0.50098 0.26659 0.10133 0.0
C272 C 0.52235 0.27702 0.12008 0.0
C273 C 0.53499 0.29531 0.09289 0.0
C274 C 0.52089 0.29675 0.05447 0.0
C275 C 0.50032 0.27924 0.0607 0.0
N276 N 0.45611 0.24116 0.07207 0.0
C277 C 0.45964 0.25635 0.03459 0.0
C278 C 0.44039 0.25199 0.00438 0.0
C279 C 0.42419 0.23328 0.02291 0.0
C280 C 0.43434 0.22735 0.06339 0.0
N281 N 0.45312 0.2112 0.15466 0.0
C282 C 0.43168 0.201 0.13676 0.0
C283 C 0.4192 0.18228 0.16285 0.0
C284 C 0.43353 0.18027 0.19946 0.0
C285 C 0.45399 0.19795 0.19338 0.0
N286 N 0.47181 0.25636 0.17887 0.0
C287 C 0.46462 0.27991 0.25474 0.0
C288 C 0.4473 0.26412 0.22102 0.0
C289 C 0.45122 0.25248 0.1839 0.0
C290 C 0.48557 0.28405 0.24931 0.0
C291 C 0.48879 0.27238 0.21107 0.0
N292 N 0.48231 0.22137 0.07754 0.0
C293 C 0.4688 0.19216 0.01104 0.0
C294 C 0.48987 0.19616 0.00721 0.0
C295 C 0.50707 0.21302 0.03893 0.0
C296 C 0.50298 0.2254 0.07323 0.0
C297 C 0.46539 0.20476 0.04646 0.0
H298 H 0.51683 0.23813 0.09583 0.0
H299 H 0.44894 0.20071 0.04823 0.0
H300 H 0.43731 0.24041 0.15996 0.0
H301 H 0.5052 0.27669 0.20841 0.0
C302 C 0.53018 0.26903 0.16268 0.0
C303 C 0.47375 0.20113 0.22472 0.0
C304 C 0.48075 0.27534 0.02682 0.0
C305 C 0.42385 0.20906 0.09439 0.0
H306 H 0.51592 0.21571 0.28192 0.0
H307 H 0.54696 0.25288 0.24816 0.0
H308 H 0.55242 0.3062 0.09989 0.0
H309 H 0.5253 0.30924 0.02501 0.0
H310 H 0.43819 0.26142 0.97246 0.0
H311 H 0.40701 0.22506 0.00879 0.0
H312 H 0.4018 0.17127 0.15569 0.0
H313 H 0.42944 0.1672 0.22726 0.0
H314 H 0.43079 0.26052 0.22379 0.0
H315 H 0.49952 0.29654 0.2739 0.0
H316 H 0.45494 0.1791 0.98748 0.0
H317 H 0.52371 0.21686 0.03681 0.0
C318 C 0.04177 0.4845 0.56945 0.0
C319 C 0.02887 0.45276 0.76334 0.0
C320 C 0.97051 0.4566 0.73774 0.0
Mg321 Mg 0.02497 0.51557 0.51022 0.0
Mg322 Mg 0.01824 0.55036 0.57992 0.0
O323 O 0.0105 0.52106 0.56724 0.0
Mg324 Mg 0.01694 0.50531 0.62638 0.0
O325 O 0.02298 0.48777 0.68186 0.0
Mg326 Mg 0.00363 0.45752 0.6485 0.0
Mg327 Mg 0.01858 0.49098 0.75193 0.0
C328 C 0.99186 0.52776 0.67868 0.0
O329 O 0.04379 0.53654 0.67215 0.0
O330 O 0.00855 0.53101 0.45283 0.0
O331 O 0.03831 0.52661 0.75715 0.0
O332 O 0.05582 0.54963 0.52294 0.0
O333 O 0.00401 0.55383 0.50403 0.0
O334 O 0.05291 0.57124 0.58027 0.0
O335 O 0.99041 0.4736 0.58673 0.0
O336 O 0.99456 0.48107 0.50121 0.0
C337 C 0.98492 0.4678 0.53764 0.0
C338 C 0.00205 0.54486 0.45882 0.0
O339 O 0.99379 0.5107 0.67334 0.0
O340 O 0.01997 0.44577 0.71572 0.0
O341 O 0.00143 0.5449 0.65083 0.0
O342 O 0.97543 0.44866 0.70017 0.0
O343 O 0.03023 0.46982 0.78455 0.0
O344 O 0.98441 0.47488 0.7609 0.0
O345 O 0.03947 0.50126 0.57528 0.0
O346 O 0.03108 0.46699 0.59505 0.0
C347 C 0.06402 0.56767 0.54974 0.0
C348 C 0.04745 0.5411 0.72235 0.0
C349 C 0.50256 0.03187 0.47275 0.0
C350 C 0.5665 0.02017 0.42092 0.0
C351 C 0.52555 0.95467 0.48361 0.0
Mg352 Mg 0.47219 0.01045 0.56926 0.0
Mg353 Mg 0.492 0.99654 0.67581 0.0
O354 O 0.48387 0.99156 0.60226 0.0
Mg355 Mg 0.50823 0.99954 0.55835 0.0
O356 O 0.5317 0.00796 0.51125 0.0
Mg357 Mg 0.51325 0.99377 0.44291 0.0
Mg358 Mg 0.55344 0.00064 0.53206 0.0
C359 C 0.51485 0.96935 0.65101 0.0
O360 O 0.53476 0.02223 0.62203 0.0
O361 O 0.44379 0.99172 0.62353 0.0
O362 O 0.56212 0.0156 0.61159 0.0
O363 O 0.49004 0.03824 0.63315 0.0
O364 O 0.45935 0.98314 0.69536 0.0
O365 O 0.50883 0.03083 0.69765 0.0
O366 O 0.4834 0.97757 0.49119 0.0
O367 O 0.45638 0.98417 0.50287 0.0
C368 C 0.46447 0.97508 0.47689 0.0
C369 C 0.44284 0.98301 0.66931 0.0
O370 O 0.5134 0.9725 0.60079 0.0
O371 O 0.54623 0.01257 0.40406 0.0
O372 O 0.50937 0.97841 0.68507 0.0
O373 O 0.51644 0.96306 0.4529 0.0
O374 O 0.57269 0.0173 0.46839 0.0
O375 O 0.54 0.96582 0.52156 0.0
O376 O 0.50207 0.02614 0.52126 0.0
O377 O 0.50806 0.02323 0.43782 0.0
C378 C 0.50322 0.04394 0.67556 0.0
C379 C 0.55343 0.02419 0.63731 0.0
C380 C 0.52946 0.55053 0.67588 0.0
C381 C 0.46327 0.48028 0.75688 0.0
C382 C 0.49333 0.44688 0.69547 0.0
Mg383 Mg 0.55431 0.55142 0.57499 0.0
Mg384 Mg 0.52846 0.51477 0.47661 0.0
O385 O 0.5371 0.51979 0.54972 0.0
Mg386 Mg 0.51455 0.50787 0.60067 0.0
O387 O 0.49357 0.49741 0.65535 0.0
Mg388 Mg 0.51393 0.50136 0.72039 0.0
Mg389 Mg 0.4695 0.46902 0.64369 0.0
C390 C 0.5001 0.46644 0.51802 0.0
O391 O 0.48669 0.50641 0.54253 0.0
O392 O 0.57967 0.55506 0.51774 0.0
O393 O 0.4577 0.47538 0.56643 0.0
O394 O 0.53777 0.56296 0.5082 0.0
O395 O 0.56092 0.52822 0.45481 0.0
O396 O 0.5167 0.53634 0.44784 0.0
O397 O 0.54021 0.50859 0.66377 0.0
O398 O 0.56945 0.53953 0.64289 0.0
C399 C 0.56045 0.52295 0.67239 0.0
C400 C 0.57879 0.54438 0.4761 0.0
O401 O 0.50322 0.47329 0.5665 0.0
O402 O 0.48404 0.49266 0.76781 0.0
O403 O 0.50666 0.47945 0.4791 0.0
O404 O 0.50503 0.46515 0.72123 0.0
O405 O 0.45463 0.46981 0.71225 0.0
O406 O 0.47931 0.44471 0.65687 0.0
O407 O 0.52701 0.54281 0.6289 0.0
O408 O 0.52408 0.53792 0.71567 0.0
C409 C 0.52444 0.55587 0.46598 0.0
C410 C 0.46633 0.49182 0.53607 0.0
C411 C 0.15924 0.45866 0.29341 0.0
C412 C 0.17942 0.47724 0.28608 0.0
C413 C 0.14442 0.46027 0.32244 0.0
C414 C 0.1285 0.49883 0.36892 0.0
H415 H 0.10192 0.45548 0.47488 0.0
C416 C 0.07392 0.50464 0.51658 0.0
C417 C 0.05669 0.48484 0.53231 0.0
C418 C 0.08889 0.50451 0.48497 0.0
C419 C 0.10885 0.46755 0.4449 0.0
H420 H 0.19964 0.51219 0.30412 0.0
H421 H 0.17352 0.51499 0.35361 0.0
H422 H 0.12761 0.45355 0.42248 0.0
H423 H 0.04098 0.44942 0.52458 0.0
H424 H 0.06634 0.44916 0.46839 0.0
H425 H 0.10941 0.51261 0.39062 0.0
C426 C 0.16922 0.49919 0.33661 0.0
C427 C 0.12369 0.46646 0.41497 0.0
C428 C 0.18417 0.49755 0.30805 0.0
C429 C 0.05427 0.46499 0.51399 0.0
C430 C 0.06898 0.46485 0.48197 0.0
C431 C 0.11341 0.49979 0.39851 0.0
C432 C 0.14924 0.48053 0.34449 0.0
C433 C 0.13363 0.48201 0.37649 0.0
C434 C 0.08681 0.48456 0.46791 0.0
C435 C 0.10326 0.48406 0.43674 0.0
H436 H 0.15471 0.44283 0.27623 0.0
H437 H 0.12902 0.44563 0.32718 0.0
H438 H 0.1358 0.51098 0.3393 0.0
H439 H 0.07624 0.52021 0.53009 0.0
H440 H 0.10244 0.52004 0.47529 0.0
C441 C 0.72355 0.17099 0.2376 0.0
C442 C 0.71955 0.17774 0.18722 0.0
C443 C 0.70716 0.15235 0.2592 0.0
C444 C 0.65245 0.1026 0.22541 0.0
H445 H 0.6496 0.10512 0.37677 0.0
C446 C 0.57848 0.04132 0.3373 0.0
C447 C 0.58368 0.03457 0.38678 0.0
C448 C 0.59499 0.05724 0.30915 0.0
C449 C 0.65028 0.10406 0.33451 0.0
H450 H 0.69553 0.17048 0.11965 0.0
H451 H 0.66655 0.13827 0.15784 0.0
H452 H 0.67841 0.13591 0.33569 0.0
H453 H 0.61054 0.03848 0.44366 0.0
H454 H 0.63899 0.06604 0.39487 0.0
H455 H 0.62375 0.07081 0.22463 0.0
C456 C 0.68245 0.14693 0.18034 0.0
C457 C 0.6669 0.12171 0.31088 0.0
C458 C 0.69896 0.16545 0.15852 0.0
C459 C 0.60579 0.04335 0.40602 0.0
C460 C 0.62218 0.05928 0.37818 0.0
C461 C 0.63563 0.08498 0.2491 0.0
C462 C 0.68625 0.14023 0.23128 0.0
C463 C 0.66836 0.12122 0.25605 0.0
C464 C 0.61698 0.06681 0.3301 0.0
C465 C 0.63449 0.08546 0.30401 0.0
H466 H 0.73931 0.18031 0.26049 0.0
H467 H 0.71091 0.14753 0.298 0.0
H468 H 0.65313 0.10147 0.18321 0.0
H469 H 0.56166 0.03493 0.32121 0.0
H470 H 0.5905 0.06273 0.27216 0.0
C471 C 0.54178 0.71196 0.20485 0.0
C472 C 0.53931 0.70762 0.15007 0.0
C473 C 0.53916 0.69565 0.24093 0.0
C474 C 0.51195 0.63581 0.25109 0.0
H475 H 0.55318 0.6479 0.37579 0.0
C476 C 0.51267 0.56713 0.37978 0.0
C477 C 0.52041 0.57166 0.43394 0.0
C478 C 0.51286 0.58353 0.34711 0.0
C479 C 0.54122 0.64427 0.3418 0.0
H480 H 0.5329 0.68332 0.08974 0.0
H481 H 0.52807 0.65462 0.15273 0.0
H482 H 0.55866 0.67717 0.31507 0.0
H483 H 0.53272 0.59652 0.4971 0.0
H484 H 0.53225 0.62481 0.44068 0.0
H485 H 0.49431 0.60303 0.27788 0.0
C486 C 0.53185 0.67054 0.16786 0.0
C487 C 0.54448 0.66108 0.30681 0.0
C488 C 0.53474 0.68693 0.13189 0.0
C489 C 0.52688 0.59252 0.4554 0.0
C490 C 0.52683 0.60885 0.42286 0.0
C491 C 0.50853 0.61905 0.28639 0.0
C492 C 0.53381 0.67465 0.22276 0.0
C493 C 0.53002 0.65697 0.26078 0.0
C494 C 0.52053 0.60481 0.36791 0.0
C495 C 0.52324 0.62298 0.33201 0.0
H496 H 0.54527 0.72783 0.2196 0.0
H497 H 0.54071 0.69927 0.28297 0.0
H498 H 0.50033 0.63225 0.21633 0.0
H499 H 0.50763 0.55127 0.36185 0.0
H500 H 0.50802 0.57975 0.30503 0.0
C501 C 0.86622 0.55347 0.14279 0.0
C502 C 0.85929 0.56559 0.16992 0.0
C503 C 0.88565 0.55394 0.16094 0.0
C504 C 0.93674 0.58367 0.25069 0.0
H505 H 0.9297 0.52593 0.2742 0.0
C506 C 0.9862 0.56712 0.41822 0.0
C507 C 0.99109 0.55028 0.41284 0.0
C508 C 0.974 0.57109 0.37745 0.0
C509 C 0.93223 0.54222 0.26681 0.0
H510 H 0.86701 0.58795 0.23615 0.0
H511 H 0.90121 0.58904 0.26791 0.0
H512 H 0.90097 0.52947 0.22205 0.0
H513 H 0.98793 0.52515 0.35897 0.0
H514 H 0.96661 0.53222 0.28719 0.0
H515 H 0.96774 0.59639 0.29674 0.0
C516 C 0.89185 0.5794 0.23226 0.0
C517 C 0.91571 0.54424 0.23699 0.0
C518 C 0.87233 0.57878 0.2143 0.0
C519 C 0.98434 0.53816 0.36453 0.0
C520 C 0.97205 0.54214 0.32352 0.0
C521 C 0.95333 0.58167 0.28018 0.0
C522 C 0.89847 0.5666 0.20645 0.0
C523 C 0.91749 0.56492 0.23015 0.0
C524 C 0.96638 0.55838 0.33 0.0
C525 C 0.95092 0.56086 0.29022 0.0
H526 H 0.85623 0.54311 0.10853 0.0
H527 H 0.89041 0.54402 0.14016 0.0
H528 H 0.93867 0.59984 0.24528 0.0
H529 H 0.99124 0.57693 0.45467 0.0
H530 H 0.9697 0.5835 0.38427 0.0
C531 C 0.31866 0.85359 0.14301 0.0
C532 C 0.30079 0.84274 0.17255 0.0
C533 C 0.33866 0.87017 0.16701 0.0
C534 C 0.36267 0.90924 0.28035 0.0
H535 H 0.41541 0.90691 0.26953 0.0
C536 C 0.44138 0.97226 0.39433 0.0
C537 C 0.45213 0.96343 0.4268 0.0
C538 C 0.42614 0.95982 0.3523 0.0
C539 C 0.40082 0.90779 0.27266 0.0
H540 H 0.28973 0.8398 0.25018 0.0
H541 H 0.3244 0.8692 0.29186 0.0
H542 H 0.38126 0.88056 0.21779 0.0
H543 H 0.45703 0.93561 0.43864 0.0
H544 H 0.42959 0.91328 0.36562 0.0
H545 H 0.38165 0.93573 0.33641 0.0
C546 C 0.32295 0.86524 0.25006 0.0
C547 C 0.38137 0.89287 0.24281 0.0
C548 C 0.30311 0.84856 0.22627 0.0
C549 C 0.44879 0.94263 0.41405 0.0
C550 C 0.43318 0.92995 0.37224 0.0
C551 C 0.382 0.92414 0.30979 0.0
C552 C 0.34094 0.87611 0.22079 0.0
C553 C 0.36205 0.89323 0.24731 0.0
C554 C 0.42103 0.93813 0.34255 0.0
C555 C 0.40124 0.92343 0.30689 0.0
H556 H 0.31722 0.8489 0.10173 0.0
H557 H 0.35231 0.87831 0.14367 0.0
H558 H 0.34804 0.90996 0.28425 0.0
H559 H 0.44409 0.9885 0.40289 0.0
H560 H 0.41749 0.96678 0.32919 0.0
C561 C 0.47068 0.29515 0.34695 0.0
C562 C 0.46121 0.29268 0.29429 0.0
C563 C 0.46958 0.30917 0.38294 0.0
C564 C 0.4444 0.34407 0.40003 0.0
H565 H 0.49939 0.38094 0.48464 0.0
C566 C 0.47767 0.43433 0.45572 0.0
C567 C 0.48916 0.44267 0.50594 0.0
C568 C 0.46946 0.4124 0.44127 0.0
C569 C 0.48375 0.3705 0.46224 0.0
H570 H 0.44253 0.30221 0.23825 0.0
H571 H 0.44126 0.32734 0.30017 0.0
H572 H 0.49406 0.34881 0.43719 0.0
H573 H 0.50026 0.43442 0.58137 0.0
H574 H 0.48623 0.39595 0.55551 0.0
H575 H 0.43487 0.36695 0.42245 0.0
C576 C 0.44903 0.31806 0.3145 0.0
C577 C 0.48063 0.352 0.43498 0.0
C578 C 0.44983 0.30375 0.27878 0.0
C579 C 0.49141 0.42839 0.54245 0.0
C580 C 0.48347 0.40645 0.52763 0.0
C581 C 0.44766 0.36277 0.42678 0.0
C582 C 0.45933 0.32135 0.36675 0.0
C583 C 0.46116 0.33889 0.40221 0.0
C584 C 0.47283 0.39841 0.47646 0.0
C585 C 0.4676 0.37649 0.45691 0.0
H586 H 0.47929 0.28652 0.35999 0.0
H587 H 0.47725 0.31086 0.4231 0.0
H588 H 0.42901 0.33409 0.37626 0.0
H589 H 0.47555 0.44494 0.42697 0.0
H590 H 0.46152 0.40672 0.40141 0.0
C591 C 0.52881 0.83501 0.93046 0.0
C592 C 0.54146 0.82585 0.91875 0.0
C593 C 0.52799 0.85108 0.89851 0.0
C594 C 0.53925 0.87535 0.76535 0.0
H595 H 0.53436 0.92122 0.83277 0.0
C596 C 0.5157 0.93416 0.64875 0.0
C597 C 0.5232 0.95494 0.67194 0.0
C598 C 0.52058 0.91915 0.67527 0.0
C599 C 0.53609 0.9088 0.81307 0.0
H600 H 0.56334 0.82625 0.86523 0.0
H601 H 0.56259 0.855 0.81005 0.0
H602 H 0.53812 0.8943 0.8868 0.0
H603 H 0.5434 0.97727 0.7377 0.0
H604 H 0.55289 0.95178 0.78233 0.0
H605 H 0.53785 0.89042 0.69156 0.0
C606 C 0.55287 0.84945 0.84313 0.0
C607 C 0.53785 0.89303 0.84421 0.0
C608 C 0.5535 0.83318 0.87491 0.0
C609 C 0.53708 0.96115 0.71955 0.0
C610 C 0.54233 0.94643 0.74535 0.0
C611 C 0.5377 0.89133 0.73408 0.0
C612 C 0.54005 0.8586 0.85445 0.0
C613 C 0.53919 0.87592 0.82085 0.0
C614 C 0.53336 0.92489 0.72492 0.0
C615 C 0.53599 0.90823 0.75755 0.0
H616 H 0.51933 0.82947 0.964 0.0
H617 H 0.51759 0.85736 0.908 0.0
H618 H 0.54005 0.86231 0.74584 0.0
H619 H 0.50497 0.92904 0.61197 0.0
H620 H 0.51336 0.90274 0.65821 0.0
C621 C 0.70787 0.51281 0.92606 0.0
C622 C 0.71878 0.52754 0.96963 0.0
C623 C 0.68805 0.50993 0.90158 0.0
C624 C 0.6619 0.54034 0.86569 0.0
H625 H 0.60646 0.48611 0.8502 0.0
C626 C 0.5883 0.53947 0.74998 0.0
C627 C 0.57398 0.52096 0.71764 0.0
C628 C 0.60348 0.53877 0.78829 0.0
C629 C 0.62185 0.50134 0.8535 0.0
H630 H 0.71776 0.55069 0.02217 0.0
H631 H 0.68344 0.54632 0.97783 0.0
H632 H 0.63801 0.48704 0.90164 0.0
H633 H 0.56347 0.48694 0.70081 0.0
H634 H 0.5909 0.48592 0.7654 0.0
H635 H 0.64674 0.55453 0.81525 0.0
C636 C 0.68997 0.53667 0.96357 0.0
C637 C 0.63982 0.50184 0.88327 0.0
C638 C 0.70951 0.53918 0.98872 0.0
C639 C 0.57438 0.50139 0.7256 0.0
C640 C 0.59007 0.50085 0.76287 0.0
C641 C 0.64418 0.53975 0.83498 0.0
C642 C 0.6792 0.52216 0.91959 0.0
C643 C 0.65992 0.52138 0.8896 0.0
C644 C 0.60526 0.51975 0.79376 0.0
C645 C 0.62383 0.52027 0.82847 0.0
H646 H 0.71496 0.50396 0.91025 0.0
H647 H 0.6801 0.49888 0.86723 0.0
H648 H 0.67738 0.55551 0.86954 0.0
H649 H 0.58801 0.55466 0.7449 0.0
H650 H 0.6142 0.5534 0.81258 0.0
C651 C 0.18421 0.7275 0.88862 0.0
C652 C 0.1815 0.72987 0.94163 0.0
C653 C 0.169 0.70863 0.85851 0.0
C654 C 0.13165 0.65118 0.88131 0.0
H655 H 0.10672 0.64716 0.73555 0.0
C656 C 0.06154 0.5705 0.7926 0.0
C657 C 0.06243 0.56397 0.74147 0.0
C658 C 0.07598 0.59173 0.81218 0.0
C659 C 0.11378 0.64809 0.77607 0.0
H660 H 0.16076 0.71516 0.00449 0.0
H661 H 0.13396 0.68257 0.95181 0.0
H662 H 0.13189 0.68333 0.77819 0.0
H663 H 0.07896 0.57478 0.67033 0.0
H664 H 0.10443 0.61215 0.70493 0.0
H665 H 0.11387 0.61624 0.87974 0.0
C666 C 0.14781 0.69505 0.93347 0.0
C667 C 0.1281 0.66873 0.8004 0.0
C668 C 0.16296 0.71376 0.9634 0.0
C669 C 0.07778 0.57938 0.70974 0.0
C670 C 0.09234 0.60075 0.7295 0.0
C671 C 0.1175 0.63072 0.85714 0.0
C672 C 0.15106 0.69192 0.8814 0.0
C673 C 0.13678 0.67041 0.85364 0.0
C674 C 0.09179 0.60698 0.78131 0.0
C675 C 0.10805 0.62892 0.80468 0.0
H676 H 0.19861 0.73969 0.87157 0.0
H677 H 0.1719 0.70655 0.81854 0.0
H678 H 0.1386 0.65196 0.9219 0.0
H679 H 0.04968 0.55917 0.81775 0.0
H680 H 0.07482 0.5962 0.85181 0.0
C681 C 0.50778 0.17459 0.98773 0.0
C682 C 0.49394 0.18287 0.97048 0.0
C683 C 0.51146 0.16188 0.95328 0.0
C684 C 0.48748 0.12827 0.82829 0.0
H685 H 0.54346 0.13109 0.83501 0.0
C686 C 0.50206 0.07875 0.67989 0.0
C687 C 0.50944 0.06495 0.70293 0.0
C688 C 0.50354 0.09595 0.70959 0.0
C689 C 0.52776 0.13014 0.83281 0.0
H690 H 0.47358 0.1849 0.90336 0.0
H691 H 0.48035 0.16318 0.84276 0.0
H692 H 0.53887 0.15548 0.8927 0.0
H693 H 0.52617 0.05981 0.77368 0.0
H694 H 0.52879 0.09 0.82556 0.0
H695 H 0.47639 0.10304 0.76841 0.0
C696 C 0.48794 0.16595 0.88328 0.0
C697 C 0.52506 0.14401 0.86598 0.0
C698 C 0.48407 0.17844 0.91792 0.0
C699 C 0.52014 0.06999 0.75487 0.0
C700 C 0.52169 0.08732 0.78459 0.0
C701 C 0.49025 0.11462 0.79488 0.0
C702 C 0.50154 0.15733 0.90061 0.0
C703 C 0.50482 0.14316 0.86433 0.0
C704 C 0.51256 0.09985 0.76288 0.0
C705 C 0.51037 0.11534 0.79686 0.0
H706 H 0.51543 0.17758 0.02824 0.0
H707 H 0.52171 0.15523 0.96837 0.0
H708 H 0.47153 0.12673 0.82665 0.0
H709 H 0.49405 0.0756 0.63972 0.0
H710 H 0.49681 0.10566 0.69148 0.0
C711 C 0.31524 0.47265 0.97285 0.0
C712 C 0.31201 0.46407 0.02384 0.0
C713 C 0.33228 0.47422 0.94664 0.0
C714 C 0.3691 0.45183 0.9429 0.0
H715 H 0.40578 0.50601 0.87469 0.0
C716 C 0.4275 0.45916 0.79327 0.0
C717 C 0.44824 0.47801 0.79585 0.0
C718 C 0.41214 0.45748 0.82569 0.0
C719 C 0.39582 0.49088 0.89406 0.0
H720 H 0.32349 0.44961 0.08647 0.0
H721 H 0.35304 0.45214 0.04058 0.0
H722 H 0.37561 0.50259 0.91995 0.0
H723 H 0.46934 0.50969 0.83552 0.0
H724 H 0.44219 0.50685 0.89226 0.0
H725 H 0.38913 0.44003 0.91663 0.0
C726 C 0.34253 0.45777 0.02093 0.0
C727 C 0.37839 0.48881 0.91934 0.0
C728 C 0.32568 0.45642 0.0473 0.0
C729 C 0.45352 0.49494 0.83282 0.0
C730 C 0.43795 0.49338 0.86491 0.0
C731 C 0.38637 0.45382 0.91721 0.0
C732 C 0.34623 0.46698 0.97065 0.0
C733 C 0.36477 0.46922 0.9438 0.0
C734 C 0.41703 0.47469 0.86122 0.0
C735 C 0.39984 0.4733 0.89221 0.0
H736 H 0.30505 0.47881 0.95402 0.0
H737 H 0.33459 0.48115 0.90763 0.0
H738 H 0.35885 0.43651 0.96121 0.0
H739 H 0.42294 0.44577 0.76537 0.0
H740 H 0.39613 0.44296 0.82156 0.0
C741 C 0.83468 0.32926 0.01763 0.0
C742 C 0.82165 0.30826 0.99391 0.0
C743 C 0.84867 0.34678 0.98814 0.0
C744 C 0.8605 0.36413 0.84931 0.0
H745 H 0.91761 0.40547 0.9184 0.0
C746 C 0.9344 0.4219 0.73694 0.0
C747 C 0.94938 0.44279 0.75969 0.0
C748 C 0.91659 0.40713 0.76311 0.0
C749 C 0.90161 0.39431 0.89866 0.0
H750 H 0.81279 0.28893 0.92118 0.0
H751 H 0.83764 0.31932 0.86969 0.0
H752 H 0.89138 0.37632 0.96912 0.0
H753 H 0.95628 0.46509 0.82591 0.0
H754 H 0.92519 0.43933 0.87135 0.0
H755 H 0.87116 0.38187 0.77833 0.0
C756 C 0.8368 0.32251 0.91069 0.0
C757 C 0.88651 0.37753 0.92781 0.0
C758 C 0.8227 0.30505 0.94015 0.0
C759 C 0.94523 0.44908 0.80741 0.0
C760 C 0.92748 0.43426 0.8337 0.0
C761 C 0.87569 0.38086 0.82003 0.0
C762 C 0.85008 0.34363 0.93433 0.0
C763 C 0.86578 0.36209 0.90352 0.0
C764 C 0.91335 0.41287 0.81271 0.0
C765 C 0.89649 0.39606 0.84428 0.0
H766 H 0.8341 0.33206 0.0591 0.0
H767 H 0.85835 0.36281 0.00758 0.0
H768 H 0.8446 0.35281 0.82938 0.0
H769 H 0.93697 0.4165 0.70009 0.0
H770 H 0.90606 0.39079 0.74582 0.0
C771 C 0.86874 0.55209 0.93318 0.0
C772 C 0.84811 0.5336 0.93701 0.0
C773 C 0.88434 0.55051 0.9076 0.0
C774 C 0.90147 0.51236 0.86748 0.0
H775 H 0.93117 0.55644 0.76529 0.0
C776 C 0.9595 0.50757 0.73006 0.0
C777 C 0.97713 0.52745 0.71612 0.0
C778 C 0.94412 0.50757 0.7602 0.0
C779 C 0.92336 0.54419 0.79436 0.0
H780 H 0.82791 0.49882 0.9171 0.0
H781 H 0.85545 0.49605 0.87324 0.0
H782 H 0.90355 0.55774 0.8111 0.0
H783 H 0.99329 0.56282 0.72585 0.0
H784 H 0.96704 0.56284 0.77965 0.0
H785 H 0.92157 0.49899 0.85136 0.0
C786 C 0.85941 0.51175 0.89019 0.0
C787 C 0.90741 0.54489 0.82039 0.0
C788 C 0.84367 0.51336 0.91537 0.0
C789 C 0.97969 0.54724 0.73521 0.0
C790 C 0.96452 0.54724 0.76577 0.0
C791 C 0.91765 0.51176 0.84177 0.0
C792 C 0.87983 0.53037 0.88568 0.0
C793 C 0.89637 0.52907 0.85738 0.0
C794 C 0.94618 0.52745 0.77739 0.0
C795 C 0.92889 0.52778 0.80507 0.0
H796 H 0.87302 0.56781 0.95057 0.0
H797 H 0.90007 0.56507 0.90548 0.0
H798 H 0.8933 0.50003 0.89612 0.0
H799 H 0.95701 0.49205 0.71565 0.0
H800 H 0.93019 0.49201 0.7681 0.0
C801 C 0.2793 0.85113 0.87058 0.0
C802 C 0.28811 0.84588 0.91718 0.0
C803 C 0.29293 0.86799 0.83892 0.0
C804 C 0.34492 0.91883 0.84629 0.0
H805 H 0.3486 0.90704 0.70023 0.0
C806 C 0.42258 0.96809 0.74827 0.0
C807 C 0.42206 0.97179 0.69353 0.0
C808 C 0.40343 0.9555 0.77155 0.0
C809 C 0.34743 0.91082 0.74049 0.0
H810 H 0.3178 0.85426 0.96783 0.0
H811 H 0.34152 0.88396 0.91323 0.0
H812 H 0.31979 0.87893 0.74868 0.0
H813 H 0.40082 0.96584 0.62057 0.0
H814 H 0.36697 0.94364 0.66168 0.0
H815 H 0.37259 0.95048 0.83893 0.0
C816 C 0.32417 0.87493 0.90088 0.0
C817 C 0.331 0.89468 0.76823 0.0
C818 C 0.31066 0.85785 0.93182 0.0
C819 C 0.40174 0.96329 0.66286 0.0
C820 C 0.3824 0.95047 0.68632 0.0
C821 C 0.3611 0.93501 0.8185 0.0
C822 C 0.31545 0.88018 0.85422 0.0
C823 C 0.33017 0.89829 0.82196 0.0
C824 C 0.38309 0.94621 0.74089 0.0
C825 C 0.36315 0.93089 0.766 0.0
H826 H 0.26194 0.84209 0.85854 0.0
H827 H 0.28588 0.87176 0.80305 0.0
H828 H 0.34436 0.9221 0.88747 0.0
H829 H 0.43792 0.9745 0.77324 0.0
H830 H 0.4047 0.95231 0.81342 0.0
C831 C 0.48722 0.31266 0.00334 0.0
C832 C 0.48208 0.29163 0.98676 0.0
C833 C 0.48828 0.328 0.96608 0.0
C834 C 0.49294 0.34064 0.82304 0.0
H835 H 0.47409 0.38114 0.86003 0.0
C836 C 0.47974 0.40624 0.69467 0.0
C837 C 0.49454 0.42752 0.71562 0.0
C838 C 0.47847 0.38787 0.72065 0.0
C839 C 0.47927 0.36981 0.84918 0.0
H840 H 0.47407 0.26993 0.91886 0.0
H841 H 0.47519 0.29654 0.85322 0.0
H842 H 0.47026 0.35227 0.92054 0.0
H843 H 0.52081 0.44612 0.77774 0.0
H844 H 0.51816 0.41414 0.82301 0.0
H845 H 0.50167 0.35841 0.75102 0.0
C846 C 0.47886 0.30141 0.8949 0.0
C847 C 0.47732 0.35342 0.88398 0.0
C848 C 0.47805 0.28613 0.93232 0.0
C849 C 0.50904 0.43003 0.76071 0.0
C850 C 0.5076 0.41176 0.78673 0.0
C851 C 0.49464 0.35695 0.7878 0.0
C852 C 0.4839 0.32254 0.91134 0.0
C853 C 0.48456 0.3389 0.872 0.0
C854 C 0.49192 0.3906 0.76782 0.0
C855 C 0.48815 0.37184 0.80122 0.0
H856 H 0.49045 0.31721 0.04523 0.0
H857 H 0.49271 0.34423 0.9803 0.0
H858 H 0.49884 0.32988 0.81265 0.0
H859 H 0.46844 0.40373 0.65986 0.0
H860 H 0.46623 0.37159 0.7056 0.0
C861 C 0.16245 0.44556 0.05665 0.0
C862 C 0.17747 0.44077 0.03811 0.0
C863 C 0.1426 0.43926 0.0264 0.0
C864 C 0.11849 0.42853 0.88851 0.0
H865 H 0.0654 0.41133 0.95246 0.0
C866 C 0.04573 0.42878 0.76882 0.0
C867 C 0.03923 0.44173 0.79424 0.0
C868 C 0.05854 0.42131 0.79748 0.0
C869 C 0.08005 0.41595 0.93397 0.0
H870 H 0.18405 0.42577 0.97449 0.0
H871 H 0.14914 0.41454 0.92122 0.0
H872 H 0.09653 0.41238 0.00589 0.0
H873 H 0.03946 0.45544 0.87019 0.0
H874 H 0.06174 0.44257 0.91981 0.0
H875 H 0.10245 0.43312 0.81737 0.0
C876 C 0.1526 0.42311 0.95901 0.0
C877 C 0.09787 0.41662 0.96455 0.0
C878 C 0.17245 0.42942 0.98936 0.0
C879 C 0.04442 0.44571 0.84934 0.0
C880 C 0.05702 0.43812 0.87794 0.0
C881 C 0.10068 0.42785 0.85795 0.0
C882 C 0.13756 0.42818 0.97696 0.0
C883 C 0.11753 0.42369 0.94262 0.0
C884 C 0.06481 0.42646 0.85206 0.0
C885 C 0.08157 0.42235 0.88092 0.0
H886 H 0.16626 0.45451 0.09406 0.0
H887 H 0.13155 0.44379 0.04084 0.0
H888 H 0.13346 0.43421 0.87055 0.0
H889 H 0.0419 0.42538 0.7264 0.0
H890 H 0.06418 0.41219 0.77664 0.0
C891 C 0.69073 0.18234 0.89344 0.0
C892 C 0.70612 0.17983 0.92787 0.0
C893 C 0.67259 0.16405 0.86805 0.0
C894 C 0.6538 0.1088 0.82072 0.0
H895 H 0.5956 0.09939 0.82695 0.0
C896 C 0.58134 0.03408 0.71491 0.0
C897 C 0.56627 0.03818 0.68423 0.0
C898 C 0.5961 0.04929 0.75391 0.0
C899 C 0.61175 0.10186 0.82457 0.0
H900 H 0.71438 0.15606 0.96276 0.0
H901 H 0.68321 0.12438 0.9167 0.0
H902 H 0.62692 0.13126 0.87343 0.0
H903 H 0.5536 0.06046 0.67224 0.0
H904 H 0.57991 0.0875 0.73878 0.0
H905 H 0.63914 0.08024 0.77012 0.0
C906 C 0.68523 0.1405 0.90962 0.0
C907 C 0.62961 0.12006 0.85113 0.0
C908 C 0.70318 0.1587 0.93551 0.0
C909 C 0.56512 0.05696 0.69549 0.0
C910 C 0.58017 0.0724 0.73382 0.0
C911 C 0.63605 0.09083 0.79361 0.0
C912 C 0.66972 0.14302 0.87614 0.0
C913 C 0.65074 0.12368 0.84909 0.0
C914 C 0.59636 0.06911 0.762 0.0
C915 C 0.61481 0.08718 0.79495 0.0
H916 H 0.69265 0.19841 0.88622 0.0
H917 H 0.66092 0.16634 0.84171 0.0
H918 H 0.67 0.11142 0.81824 0.0
H919 H 0.58219 0.01944 0.70758 0.0
H920 H 0.6079 0.04592 0.77618 0.0
C921 C 0.55168 0.71832 0.79654 0.0
C922 C 0.56663 0.72995 0.84061 0.0
C923 C 0.55536 0.70508 0.76404 0.0
C924 C 0.58432 0.67406 0.7804 0.0
H925 H 0.55066 0.64854 0.64501 0.0
C926 C 0.54261 0.58289 0.73703 0.0
C927 C 0.53974 0.57445 0.68538 0.0
C928 C 0.55204 0.60535 0.74661 0.0
C929 C 0.56058 0.65568 0.68228 0.0
H930 H 0.59863 0.73894 0.88057 0.0
H931 H 0.60567 0.71718 0.82183 0.0
H932 H 0.55816 0.68468 0.67318 0.0
H933 H 0.54481 0.5831 0.60325 0.0
H934 H 0.56152 0.62255 0.62021 0.0
H935 H 0.58676 0.64513 0.78947 0.0
C936 C 0.5905 0.71731 0.81403 0.0
C937 C 0.56465 0.67632 0.69882 0.0
C938 C 0.58657 0.73012 0.84741 0.0
C939 C 0.54677 0.58907 0.64351 0.0
C940 C 0.5563 0.61166 0.65317 0.0
C941 C 0.58059 0.65369 0.76348 0.0
C942 C 0.57436 0.70355 0.77403 0.0
C943 C 0.57546 0.68517 0.74951 0.0
C944 C 0.559 0.62002 0.70489 0.0
C945 C 0.56757 0.6437 0.71579 0.0
H946 H 0.53651 0.71845 0.78871 0.0
H947 H 0.54248 0.69486 0.7337 0.0
H948 H 0.59269 0.68011 0.81969 0.0
H949 H 0.53734 0.57215 0.77023 0.0
H950 H 0.55331 0.61113 0.78674 0.0
C951 C 0.47169 0.16484 0.22872 0.0
C952 C 0.47331 0.18281 0.25557 0.0
C953 C 0.47318 0.14836 0.25714 0.0
C954 C 0.47 0.12362 0.3882 0.0
H955 H 0.50753 0.1055 0.33291 0.0
C956 C 0.49634 0.06332 0.49012 0.0
C957 C 0.49599 0.04803 0.45479 0.0
C958 C 0.4923 0.07993 0.47064 0.0
C959 C 0.49688 0.11028 0.34869 0.0
H960 H 0.47679 0.19754 0.33245 0.0
H961 H 0.4796 0.16859 0.3828 0.0
H962 H 0.50254 0.13401 0.2893 0.0
H963 H 0.48937 0.03703 0.37213 0.0
H964 H 0.48224 0.06558 0.33877 0.0
H965 H 0.46436 0.09956 0.44766 0.0
C966 C 0.47708 0.16719 0.33986 0.0
C967 C 0.49399 0.12657 0.32363 0.0
C968 C 0.47558 0.18373 0.31126 0.0
C969 C 0.4903 0.04886 0.40034 0.0
C970 C 0.48623 0.06525 0.38112 0.0
C971 C 0.47291 0.10719 0.41346 0.0
C972 C 0.47639 0.14959 0.31297 0.0
C973 C 0.48017 0.13312 0.34232 0.0
C974 C 0.48784 0.08136 0.41571 0.0
C975 C 0.48602 0.10006 0.3931 0.0
H976 H 0.46981 0.16387 0.18571 0.0
H977 H 0.47217 0.13478 0.23535 0.0
H978 H 0.45929 0.12841 0.40352 0.0
H979 H 0.50055 0.06297 0.53233 0.0
H980 H 0.49355 0.09213 0.49817 0.0
C981 C 0.31408 0.51248 0.34209 0.0
C982 C 0.30649 0.49929 0.29547 0.0
C983 C 0.33468 0.51842 0.36849 0.0
C984 C 0.36885 0.50868 0.42979 0.0
H985 H 0.41832 0.52409 0.3516 0.0
C986 C 0.4291 0.47986 0.49149 0.0
C987 C 0.45136 0.49569 0.49825 0.0
C988 C 0.41395 0.48502 0.46637 0.0
C989 C 0.4048 0.52014 0.37413 0.0
H990 H 0.31433 0.48175 0.2406 0.0
H991 H 0.35001 0.49264 0.28486 0.0
H992 H 0.38732 0.52706 0.30967 0.0
H993 H 0.47531 0.52884 0.47986 0.0
H994 H 0.44863 0.53758 0.43419 0.0
H995 H 0.38571 0.50052 0.49307 0.0
C996 C 0.34041 0.49873 0.30079 0.0
C997 C 0.38711 0.52183 0.35027 0.0
C998 C 0.31987 0.49248 0.2753 0.0
C999 C 0.4583 0.51626 0.47535 0.0
C1000 C 0.44305 0.52135 0.44959 0.0
C1001 C 0.38641 0.50677 0.4534 0.0
C1002 C 0.34799 0.51157 0.34782 0.0
C1003 C 0.36865 0.51533 0.37723 0.0
C1004 C 0.42071 0.50602 0.44685 0.0
C1005 C 0.40413 0.51169 0.42501 0.0
H1006 H 0.30394 0.51777 0.35844 0.0
H1007 H 0.34012 0.52814 0.40516 0.0
H1008 H 0.35477 0.50341 0.45125 0.0
H1009 H 0.42316 0.46376 0.50794 0.0
H1010 H 0.39683 0.47272 0.46336 0.0
C1011 C 0.83433 0.31888 0.31692 0.0
C1012 C 0.83156 0.29795 0.30827 0.0
C1013 C 0.84947 0.33287 0.35725 0.0
C1014 C 0.90191 0.34689 0.42203 0.0
H1015 H 0.89252 0.38596 0.50663 0.0
C1016 C 0.95372 0.43184 0.55961 0.0
C1017 C 0.96807 0.445 0.523 0.0
C1018 C 0.93733 0.41045 0.54526 0.0
C1019 C 0.89537 0.37493 0.48414 0.0
H1020 H 0.84187 0.27494 0.33737 0.0
H1021 H 0.86913 0.29996 0.40669 0.0
H1022 H 0.86127 0.35347 0.46238 0.0
H1023 H 0.97699 0.4459 0.44339 0.0
H1024 H 0.94834 0.40856 0.41833 0.0
H1025 H 0.93603 0.36904 0.44128 0.0
C1026 C 0.85932 0.30529 0.38217 0.0
C1027 C 0.87752 0.35644 0.45868 0.0
C1028 C 0.84387 0.2911 0.34222 0.0
C1029 C 0.96609 0.4362 0.47231 0.0
C1030 C 0.94987 0.41475 0.45819 0.0
C1031 C 0.91977 0.36549 0.44708 0.0
C1032 C 0.86243 0.3264 0.38944 0.0
C1033 C 0.88069 0.34274 0.42588 0.0
C1034 C 0.93519 0.40179 0.4943 0.0
C1035 C 0.91663 0.38007 0.47672 0.0
H1036 H 0.82555 0.32497 0.29104 0.0
H1037 H 0.85187 0.34924 0.36136 0.0
H1038 H 0.90476 0.33663 0.39668 0.0
H1039 H 0.95481 0.43821 0.59892 0.0
H1040 H 0.92619 0.40076 0.57374 0.0
C1041 C 0.49947 0.80525 0.21269 0.0
C1042 C 0.517 0.80125 0.22115 0.0
C1043 C 0.49594 0.81673 0.25082 0.0
C1044 C 0.51396 0.84125 0.38894 0.0
H1045 H 0.50079 0.88436 0.32464 0.0
C1046 C 0.53445 0.92435 0.48621 0.0
C1047 C 0.51968 0.93181 0.47206 0.0
C1048 C 0.53046 0.90427 0.46543 0.0
C1049 C 0.50408 0.87218 0.34344 0.0
H1050 H 0.54342 0.80467 0.27882 0.0
H1051 H 0.53813 0.82591 0.34366 0.0
H1052 H 0.50038 0.85681 0.26891 0.0
H1053 H 0.48805 0.92309 0.4306 0.0
H1054 H 0.48106 0.88814 0.3951 0.0
H1055 H 0.5188 0.8578 0.46352 0.0
C1056 C 0.52686 0.81985 0.3079 0.0
C1057 C 0.50377 0.85626 0.31141 0.0
C1058 C 0.53014 0.80798 0.27014 0.0
C1059 C 0.49997 0.91799 0.4412 0.0
C1060 C 0.49595 0.89797 0.42087 0.0
C1061 C 0.5145 0.85744 0.42112 0.0
C1062 C 0.51013 0.82497 0.29794 0.0
C1063 C 0.50881 0.84064 0.33355 0.0
C1064 C 0.51161 0.89141 0.43061 0.0
C1065 C 0.50963 0.8731 0.3985 0.0
H1066 H 0.489 0.80048 0.17556 0.0
H1067 H 0.48252 0.81985 0.24238 0.0
H1068 H 0.51776 0.82936 0.40739 0.0
H1069 H 0.54971 0.93463 0.51022 0.0
H1070 H 0.54281 0.89959 0.47357 0.0
C1071 C 0.72758 0.57807 0.22401 0.0
C1072 C 0.73885 0.56692 0.24037 0.0
C1073 C 0.71358 0.57935 0.25672 0.0
C1074 C 0.67941 0.54778 0.35971 0.0
H1075 H 0.6692 0.59669 0.3702 0.0
C1076 C 0.59866 0.536 0.41337 0.0
C1077 C 0.5991 0.55003 0.45262 0.0
C1078 C 0.61766 0.54034 0.39247 0.0
C1079 C 0.67205 0.58301 0.36806 0.0
H1080 H 0.74562 0.54988 0.30545 0.0
H1081 H 0.72124 0.55211 0.36243 0.0
H1082 H 0.70021 0.60125 0.32624 0.0
H1083 H 0.61995 0.58004 0.49959 0.0
H1084 H 0.65337 0.58778 0.46212 0.0
H1085 H 0.65111 0.5294 0.40032 0.0
C1086 C 0.72286 0.55948 0.32393 0.0
C1087 C 0.68966 0.58555 0.3426 0.0
C1088 C 0.73679 0.55817 0.29127 0.0
C1089 C 0.61905 0.56886 0.46956 0.0
C1090 C 0.63815 0.57334 0.44805 0.0
C1091 C 0.66181 0.54522 0.38466 0.0
C1092 C 0.71062 0.56952 0.30643 0.0
C1093 C 0.69333 0.56784 0.33755 0.0
C1094 C 0.63763 0.5589 0.40987 0.0
C1095 C 0.6577 0.56265 0.38824 0.0
H1096 H 0.72871 0.58485 0.18488 0.0
H1097 H 0.70425 0.58703 0.24188 0.0
H1098 H 0.6816 0.53373 0.35601 0.0
H1099 H 0.58365 0.52136 0.39916 0.0
H1100 H 0.61672 0.5291 0.36248 0.0
C1101 C 0.18859 0.69545 0.26153 0.0
C1102 C 0.19265 0.717 0.26662 0.0
C1103 C 0.17871 0.68031 0.30036 0.0
C1104 C 0.16238 0.67439 0.43788 0.0
H1105 H 0.11995 0.61578 0.38353 0.0
C1106 C 0.09163 0.60776 0.54836 0.0
C1107 C 0.08554 0.58578 0.53783 0.0
C1108 C 0.10881 0.62477 0.5243 0.0
C1109 C 0.132 0.63196 0.39959 0.0
H1110 H 0.19007 0.73985 0.31678 0.0
H1111 H 0.17199 0.71315 0.38401 0.0
H1112 H 0.14121 0.64342 0.32278 0.0
H1113 H 0.09443 0.56464 0.49942 0.0
H1114 H 0.12439 0.59424 0.45817 0.0
H1115 H 0.15215 0.66277 0.51475 0.0
C1116 C 0.1769 0.70803 0.35064 0.0
C1117 C 0.14427 0.64787 0.36467 0.0
C1118 C 0.18714 0.72331 0.31204 0.0
C1119 C 0.09842 0.58135 0.50756 0.0
C1120 C 0.11555 0.5983 0.48371 0.0
C1121 C 0.14985 0.65842 0.47294 0.0
C1122 C 0.17224 0.68621 0.34486 0.0
C1123 C 0.15967 0.66931 0.38318 0.0
C1124 C 0.12018 0.62005 0.48955 0.0
C1125 C 0.13457 0.63701 0.45407 0.0
H1126 H 0.19307 0.6903 0.22735 0.0
H1127 H 0.17597 0.66387 0.29516 0.0
H1128 H 0.17422 0.69067 0.45369 0.0
H1129 H 0.08212 0.61174 0.57175 0.0
H1130 H 0.11206 0.64139 0.52969 0.0
loop_
_geom_bond_atom_site_label_1
_geom_bond_atom_site_label_2
_geom_bond_distance
_geom_bond_site_symmetry_2
_ccdc_geom_bond_type
C0 C1 1.443 . S
C0 N4 1.376 . S
C0 C38 1.389 . S
C1 C0 1.443 . S
C1 C2 1.340 . S
C1 H41 0.951 . S
C2 C1 1.340 . S
C2 C3 1.439 . S
C2 H42 0.950 . S
C3 C2 1.439 . S
C3 N4 1.374 . S
C3 C37 1.395 . S
N4 C0 1.376 . S
N4 C3 1.374 . S
N4 Co5 2.008 . S
Co5 N4 2.008 . S
Co5 N6 1.995 . S
Co5 N11 2.008 . S
Co5 N16 1.995 . S
Co5 N21 2.282 . S
Co5 N27 2.282 . S
N6 Co5 1.995 . S
N6 C7 1.376 . S
N6 C10 1.383 . S
C7 N6 1.376 . S
C7 C8 1.446 . S
C7 C37 1.391 . S
C8 C7 1.446 . S
C8 C9 1.339 . S
C8 H43 0.949 . S
C9 C8 1.339 . S
C9 C10 1.439 . S
C9 H44 0.950 . S
C10 N6 1.383 . S
C10 C9 1.439 . S
C10 C39 1.392 . S
N11 Co5 2.008 . S
N11 C12 1.376 . S
N11 C15 1.374 . S
C12 N11 1.376 . S
C12 C13 1.443 . S
C12 C39 1.389 . S
C13 C12 1.443 . S
C13 C14 1.340 . S
C13 H45 0.951 . S
C14 C13 1.340 . S
C14 C15 1.439 . S
C14 H46 0.950 . S
C15 N11 1.374 . S
C15 C14 1.439 . S
C15 C40 1.395 . S
N16 Co5 1.995 . S
N16 C17 1.376 . S
N16 C20 1.383 . S
C17 N16 1.376 . S
C17 C18 1.446 . S
C17 C40 1.391 . S
C18 C17 1.446 . S
C18 C19 1.339 . S
C18 H47 0.949 . S
C19 C18 1.339 . S
C19 C20 1.439 . S
C19 H48 0.950 . S
C20 N16 1.383 . S
C20 C19 1.439 . S
C20 C38 1.392 . S
N21 Co5 2.282 . S
N21 C24 1.332 . S
N21 C26 1.332 . S
C22 C23 1.386 . S
C22 C25 1.388 . S
C23 C22 1.386 . S
C23 C24 1.382 . S
C23 H49 0.950 . S
C24 N21 1.332 . S
C24 C23 1.382 . S
C24 H35 0.952 . S
C25 C22 1.388 . S
C25 C26 1.382 . S
C25 H50 0.950 . S
C26 N21 1.332 . S
C26 C25 1.382 . S
C26 H36 0.948 . S
N27 Co5 2.282 . S
N27 C31 1.332 . S
N27 C32 1.332 . S
C28 C29 1.388 . S
C28 C32 1.382 . S
C28 H51 0.950 . S
C29 C28 1.388 . S
C29 C30 1.386 . S
C30 C29 1.386 . S
C30 C31 1.382 . S
C30 H52 0.950 . S
C31 N27 1.332 . S
C31 C30 1.382 . S
C31 H33 0.952 . S
C32 N27 1.332 . S
C32 C28 1.382 . S
C32 H34 0.948 . S
H33 C31 0.952 . S
H34 C32 0.948 . S
H35 C24 0.952 . S
H36 C26 0.948 . S
C37 C3 1.395 . S
C37 C7 1.391 . S
C38 C0 1.389 . S
C38 C20 1.392 . S
C39 C10 1.392 . S
C39 C12 1.389 . S
C40 C15 1.395 . S
C40 C17 1.391 . S
H41 C1 0.951 . S
H42 C2 0.950 . S
H43 C8 0.949 . S
H44 C9 0.950 . S
H45 C13 0.951 . S
H46 C14 0.950 . S
H47 C18 0.949 . S
H48 C19 0.950 . S
H49 C23 0.950 . S
H50 C25 0.950 . S
H51 C28 0.950 . S
H52 C30 0.950 . S
C53 C54 1.443 . S
C53 N57 1.376 . S
C53 C91 1.389 . S
C54 C53 1.443 . S
C54 C55 1.340 . S
C54 H94 0.951 . S
C55 C54 1.340 . S
C55 C56 1.439 . S
C55 H95 0.950 . S
C56 C55 1.439 . S
C56 N57 1.374 . S
C56 C90 1.395 . S
N57 C53 1.376 . S
N57 C56 1.374 . S
N57 Co58 2.008 . S
Co58 N57 2.008 . S
Co58 N59 1.995 . S
Co58 N64 2.008 . S
Co58 N69 1.995 . S
Co58 N74 2.282 . S
Co58 N80 2.282 . S
N59 Co58 1.995 . S
N59 C60 1.376 . S
N59 C63 1.383 . S
C60 N59 1.376 . S
C60 C61 1.446 . S
C60 C90 1.391 . S
C61 C60 1.446 . S
C61 C62 1.339 . S
C61 H96 0.949 . S
C62 C61 1.339 . S
C62 C63 1.439 . S
C62 H97 0.950 . S
C63 N59 1.383 . S
C63 C62 1.439 . S
C63 C92 1.392 . S
N64 Co58 2.008 . S
N64 C65 1.376 . S
N64 C68 1.374 . S
C65 N64 1.376 . S
C65 C66 1.443 . S
C65 C92 1.389 . S
C66 C65 1.443 . S
C66 C67 1.340 . S
C66 H98 0.951 . S
C67 C66 1.340 . S
C67 C68 1.439 . S
C67 H99 0.950 . S
C68 N64 1.374 . S
C68 C67 1.439 . S
C68 C93 1.395 . S
N69 Co58 1.995 . S
N69 C70 1.376 . S
N69 C73 1.383 . S
C70 N69 1.376 . S
C70 C71 1.446 . S
C70 C93 1.391 . S
C71 C70 1.446 . S
C71 C72 1.339 . S
C71 H100 0.949 . S
C72 C71 1.339 . S
C72 C73 1.439 . S
C72 H101 0.950 1_554 S
C73 N69 1.383 . S
C73 C72 1.439 . S
C73 C91 1.392 . S
N74 Co58 2.282 . S
N74 C77 1.332 . S
N74 C79 1.332 . S
C75 C76 1.386 . S
C75 C78 1.388 1_556 S
C76 C75 1.386 . S
C76 C77 1.382 1_556 S
C76 H102 0.950 . S
C77 N74 1.332 . S
C77 C76 1.382 1_554 S
C77 H88 0.952 . S
C78 C75 1.388 1_554 S
C78 C79 1.382 . S
C78 H103 0.950 . S
C79 N74 1.332 . S
C79 C78 1.382 . S
C79 H89 0.948 . S
N80 Co58 2.282 . S
N80 C84 1.332 . S
N80 C85 1.332 . S
C81 C82 1.388 . S
C81 C85 1.382 . S
C81 H104 0.950 . S
C82 C81 1.388 . S
C82 C83 1.386 . S
C83 C82 1.386 . S
C83 C84 1.382 . S
C83 H105 0.950 . S
C84 N80 1.332 . S
C84 C83 1.382 . S
C84 H86 0.952 . S
C85 N80 1.332 . S
C85 C81 1.382 . S
C85 H87 0.948 . S
H86 C84 0.952 . S
H87 C85 0.948 . S
H88 C77 0.952 . S
H89 C79 0.948 . S
C90 C56 1.395 . S
C90 C60 1.391 . S
C91 C53 1.389 . S
C91 C73 1.392 . S
C92 C63 1.392 . S
C92 C65 1.389 . S
C93 C68 1.395 . S
C93 C70 1.391 . S
H94 C54 0.951 . S
H95 C55 0.950 . S
H96 C61 0.949 . S
H97 C62 0.950 . S
H98 C66 0.951 . S
H99 C67 0.950 . S
H100 C71 0.949 . S
H101 C72 0.950 1_556 S
H102 C76 0.950 . S
H103 C78 0.950 . S
H104 C81 0.950 . S
H105 C83 0.950 . S
C106 C107 1.443 . S
C106 N110 1.376 . S
C106 C144 1.389 . S
C107 C106 1.443 . S
C107 C108 1.340 . S
C107 H147 0.951 . S
C108 C107 1.340 . S
C108 C109 1.439 . S
C108 H148 0.950 . S
C109 C108 1.439 . S
C109 N110 1.374 . S
C109 C143 1.395 . S
N110 C106 1.376 . S
N110 C109 1.374 . S
N110 Co111 2.008 . S
Co111 N110 2.008 . S
Co111 N112 1.995 1_554 S
Co111 N117 2.008 1_554 S
Co111 N122 1.995 . S
Co111 N127 2.282 . S
Co111 N133 2.282 1_554 S
N112 Co111 1.995 1_556 S
N112 C113 1.376 . S
N112 C116 1.383 . S
C113 N112 1.376 . S
C113 C114 1.450 . S
C113 C143 1.388 1_556 S
C114 C113 1.450 . S
C114 C115 1.339 . S
C114 H149 0.949 . S
C115 C114 1.339 . S
C115 C116 1.439 . S
C115 H150 0.950 . S
C116 N112 1.383 . S
C116 C115 1.439 . S
C116 C145 1.392 . S
N117 Co111 2.008 1_556 S
N117 C118 1.376 . S
N117 C121 1.374 . S
C118 N117 1.376 . S
C118 C119 1.443 . S
C118 C145 1.389 . S
C119 C118 1.443 . S
C119 C120 1.340 . S
C119 H151 0.951 . S
C120 C119 1.340 . S
C120 C121 1.439 . S
C120 H152 0.950 . S
C121 N117 1.374 . S
C121 C120 1.439 . S
C121 C146 1.395 1_556 S
N122 Co111 1.995 . S
N122 C123 1.376 . S
N122 C126 1.383 . S
C123 N122 1.376 . S
C123 C124 1.446 . S
C123 C146 1.391 . S
C124 C123 1.446 . S
C124 C125 1.339 . S
C124 H153 0.949 . S
C125 C124 1.339 . S
C125 C126 1.439 . S
C125 H154 0.950 . S
C126 N122 1.383 . S
C126 C125 1.439 . S
C126 C144 1.392 . S
N127 Co111 2.282 . S
N127 C130 1.332 . S
N127 C132 1.332 . S
C128 C129 1.386 . S
C128 C131 1.388 . S
C129 C128 1.386 . S
C129 C130 1.382 . S
C129 H155 0.950 . S
C130 N127 1.332 . S
C130 C129 1.382 . S
C130 H141 0.952 . S
C131 C128 1.388 . S
C131 C132 1.382 . S
C131 H156 0.950 . S
C132 N127 1.332 . S
C132 C131 1.382 . S
C132 H142 0.948 . S
N133 Co111 2.282 1_556 S
N133 C137 1.332 . S
N133 C138 1.332 . S
C134 C135 1.388 . S
C134 C138 1.382 . S
C134 H157 0.950 . S
C135 C134 1.388 . S
C135 C136 1.386 . S
C136 C135 1.386 . S
C136 C137 1.382 . S
C136 H158 0.950 . S
C137 N133 1.332 . S
C137 C136 1.382 . S
C137 H139 0.952 . S
C138 N133 1.332 . S
C138 C134 1.382 . S
C138 H140 0.948 . S
H139 C137 0.952 . S
H140 C138 0.948 . S
H141 C130 0.952 . S
H142 C132 0.948 . S
C143 C109 1.395 . S
C143 C113 1.388 1_554 S
C144 C106 1.389 . S
C144 C126 1.392 . S
C145 C116 1.392 . S
C145 C118 1.389 . S
C146 C121 1.395 1_554 S
C146 C123 1.391 . S
H147 C107 0.951 . S
H148 C108 0.950 . S
H149 C114 0.949 . S
H150 C115 0.950 . S
H151 C119 0.951 . S
H152 C120 0.950 . S
H153 C124 0.949 . S
H154 C125 0.950 . S
H155 C129 0.950 . S
H156 C131 0.950 . S
H157 C134 0.950 . S
H158 C136 0.950 . S
C159 C160 1.443 . S
C159 N163 1.376 . S
C159 C197 1.389 . S
C160 C159 1.443 . S
C160 C161 1.340 . S
C160 H200 0.951 . S
C161 C160 1.340 . S
C161 C162 1.439 . S
C161 H201 0.950 . S
C162 C161 1.439 . S
C162 N163 1.374 . S
C162 C196 1.395 . S
N163 C159 1.376 . S
N163 C162 1.374 . S
N163 Co164 2.008 . S
Co164 N163 2.008 . S
Co164 N165 1.995 1_554 S
Co164 N170 2.008 1_554 S
Co164 N175 1.995 . S
Co164 N180 2.282 . S
Co164 N186 2.282 1_554 S
N165 Co164 1.995 1_556 S
N165 C166 1.376 . S
N165 C169 1.383 . S
C166 N165 1.376 . S
C166 C167 1.446 . S
C166 C196 1.391 1_556 S
C167 C166 1.446 . S
C167 C168 1.339 . S
C167 H202 0.949 . S
C168 C167 1.339 . S
C168 C169 1.439 . S
C168 H203 0.950 . S
C169 N165 1.383 . S
C169 C168 1.439 . S
C169 C198 1.392 . S
N170 Co164 2.008 1_556 S
N170 C171 1.376 . S
N170 C174 1.374 . S
C171 N170 1.376 . S
C171 C172 1.443 . S
C171 C198 1.389 . S
C172 C171 1.443 . S
C172 C173 1.340 . S
C172 H204 0.951 . S
C173 C172 1.340 . S
C173 C174 1.439 . S
C173 H205 0.950 . S
C174 N170 1.374 . S
C174 C173 1.439 . S
C174 C199 1.395 1_556 S
N175 Co164 1.995 . S
N175 C176 1.376 . S
N175 C179 1.383 . S
C176 N175 1.376 . S
C176 C177 1.446 . S
C176 C199 1.391 . S
C177 C176 1.446 . S
C177 C178 1.339 . S
C177 H206 0.949 . S
C178 C177 1.339 . S
C178 C179 1.439 . S
C178 H207 0.950 . S
C179 N175 1.383 . S
C179 C178 1.439 . S
C179 C197 1.392 . S
N180 Co164 2.282 . S
N180 C183 1.332 . S
N180 C185 1.332 . S
C181 C182 1.386 . S
C181 C184 1.388 . S
C182 C181 1.386 . S
C182 C183 1.382 . S
C182 H208 0.950 . S
C183 N180 1.332 . S
C183 C182 1.382 . S
C183 H194 0.952 . S
C184 C181 1.388 . S
C184 C185 1.382 . S
C184 H209 0.950 . S
C185 N180 1.332 . S
C185 C184 1.382 . S
C185 H195 0.948 . S
N186 Co164 2.282 1_556 S
N186 C190 1.332 . S
N186 C191 1.332 . S
C187 C188 1.388 . S
C187 C191 1.382 . S
C187 H210 0.950 . S
C188 C187 1.388 . S
C188 C189 1.386 . S
C189 C188 1.386 . S
C189 C190 1.382 . S
C189 H211 0.950 . S
C190 N186 1.332 . S
C190 C189 1.382 . S
C190 H192 0.952 . S
C191 N186 1.332 . S
C191 C187 1.382 . S
C191 H193 0.948 . S
H192 C190 0.952 . S
H193 C191 0.948 . S
H194 C183 0.952 . S
H195 C185 0.948 . S
C196 C162 1.395 . S
C196 C166 1.391 1_554 S
C197 C159 1.389 . S
C197 C179 1.392 . S
C198 C169 1.392 . S
C198 C171 1.389 . S
C199 C174 1.395 1_554 S
C199 C176 1.391 . S
H200 C160 0.951 . S
H201 C161 0.950 . S
H202 C167 0.949 . S
H203 C168 0.950 . S
H204 C172 0.951 . S
H205 C173 0.950 . S
H206 C177 0.949 . S
H207 C178 0.950 . S
H208 C182 0.950 . S
H209 C184 0.950 . S
H210 C187 0.950 . S
H211 C189 0.950 . S
C212 C213 1.443 . S
C212 N216 1.376 . S
C212 C250 1.389 . S
C213 C212 1.443 . S
C213 C214 1.340 . S
C213 H253 0.951 . S
C214 C213 1.340 . S
C214 C215 1.439 . S
C214 H254 0.950 . S
C215 C214 1.439 . S
C215 N216 1.374 . S
C215 C249 1.395 . S
N216 C212 1.376 . S
N216 C215 1.374 . S
N216 Co217 2.008 . S
Co217 N216 2.008 . S
Co217 N218 1.995 . S
Co217 N223 2.008 . S
Co217 N228 1.995 . S
Co217 N233 2.282 . S
Co217 N239 2.282 . S
N218 Co217 1.995 . S
N218 C219 1.376 . S
N218 C222 1.383 . S
C219 N218 1.376 . S
C219 C220 1.446 . S
C219 C249 1.391 . S
C220 C219 1.446 . S
C220 C221 1.339 1_554 S
C220 H255 0.949 1_554 S
C221 C220 1.339 1_556 S
C221 C222 1.439 1_556 S
C221 H256 0.950 . S
C222 N218 1.383 . S
C222 C221 1.439 1_554 S
C222 C251 1.392 . S
N223 Co217 2.008 . S
N223 C224 1.376 . S
N223 C227 1.374 . S
C224 N223 1.376 . S
C224 C225 1.443 . S
C224 C251 1.389 . S
C225 C224 1.443 . S
C225 C226 1.340 . S
C225 H257 0.951 . S
C226 C225 1.340 . S
C226 C227 1.439 . S
C226 H258 0.950 . S
C227 N223 1.374 . S
C227 C226 1.439 . S
C227 C252 1.395 . S
N228 Co217 1.995 . S
N228 C229 1.376 . S
N228 C232 1.383 . S
C229 N228 1.376 . S
C229 C230 1.446 . S
C229 C252 1.391 . S
C230 C229 1.446 . S
C230 C231 1.339 . S
C230 H259 0.949 . S
C231 C230 1.339 . S
C231 C232 1.439 . S
C231 H260 0.950 . S
C232 N228 1.383 . S
C232 C231 1.439 . S
C232 C250 1.392 . S
N233 Co217 2.282 . S
N233 C236 1.332 . S
N233 C238 1.332 . S
C234 C235 1.386 . S
C234 C237 1.388 . S
C235 C234 1.386 . S
C235 C236 1.382 . S
C235 H261 0.950 . S
C236 N233 1.332 . S
C236 C235 1.382 . S
C236 H247 0.952 . S
C237 C234 1.388 . S
C237 C238 1.382 . S
C237 H262 0.950 . S
C238 N233 1.332 . S
C238 C237 1.382 . S
C238 H248 0.948 . S
N239 Co217 2.282 . S
N239 C243 1.332 . S
N239 C244 1.332 . S
C240 C241 1.388 . S
C240 C244 1.382 1_556 S
C240 H263 0.950 . S
C241 C240 1.388 . S
C241 C242 1.386 . S
C242 C241 1.386 . S
C242 C243 1.382 1_556 S
C242 H264 0.950 . S
C243 N239 1.332 . S
C243 C242 1.382 1_554 S
C243 H245 0.952 . S
C244 N239 1.332 . S
C244 C240 1.382 1_554 S
C244 H246 0.948 . S
H245 C243 0.952 . S
H246 C244 0.948 . S
H247 C236 0.952 . S
H248 C238 0.948 . S
C249 C215 1.395 . S
C249 C219 1.391 . S
C250 C212 1.389 . S
C250 C232 1.392 . S
C251 C222 1.392 . S
C251 C224 1.389 . S
C252 C227 1.395 . S
C252 C229 1.391 . S
H253 C213 0.951 . S
H254 C214 0.950 . S
H255 C220 0.949 1_556 S
H256 C221 0.950 . S
H257 C225 0.951 . S
H258 C226 0.950 . S
H259 C230 0.949 . S
H260 C231 0.950 . S
H261 C235 0.950 . S
H262 C237 0.950 . S
H263 C240 0.950 . S
H264 C242 0.950 . S
C265 C266 1.443 . S
C265 N269 1.376 . S
C265 C303 1.389 . S
C266 C265 1.443 . S
C266 C267 1.340 . S
C266 H306 0.951 . S
C267 C266 1.340 . S
C267 C268 1.439 . S
C267 H307 0.950 . S
C268 C267 1.439 . S
C268 N269 1.374 . S
C268 C302 1.395 . S
N269 C265 1.376 . S
N269 C268 1.374 . S
N269 Co270 2.008 . S
Co270 N269 2.008 . S
Co270 N271 1.995 . S
Co270 N276 2.008 . S
Co270 N281 1.995 . S
Co270 N286 2.282 . S
Co270 N292 2.282 . S
N271 Co270 1.995 . S
N271 C272 1.376 . S
N271 C275 1.383 . S
C272 N271 1.376 . S
C272 C273 1.446 . S
C272 C302 1.391 . S
C273 C272 1.446 . S
C273 C274 1.339 . S
C273 H308 0.949 . S
C274 C273 1.339 . S
C274 C275 1.439 . S
C274 H309 0.950 . S
C275 N271 1.383 . S
C275 C274 1.439 . S
C275 C304 1.392 . S
N276 Co270 2.008 . S
N276 C277 1.376 . S
N276 C280 1.374 . S
C277 N276 1.376 . S
C277 C278 1.443 . S
C277 C304 1.389 . S
C278 C277 1.443 . S
C278 C279 1.340 . S
C278 H310 0.951 . S
C279 C278 1.340 . S
C279 C280 1.439 . S
C279 H311 0.950 . S
C280 N276 1.374 . S
C280 C279 1.439 . S
C280 C305 1.395 . S
N281 Co270 1.995 . S
N281 C282 1.376 . S
N281 C285 1.383 . S
C282 N281 1.376 . S
C282 C283 1.446 . S
C282 C305 1.391 . S
C283 C282 1.446 . S
C283 C284 1.339 . S
C283 H312 0.949 . S
C284 C283 1.339 . S
C284 C285 1.439 . S
C284 H313 0.950 . S
C285 N281 1.383 . S
C285 C284 1.439 . S
C285 C303 1.392 . S
N286 Co270 2.282 . S
N286 C289 1.332 . S
N286 C291 1.332 . S
C287 C288 1.386 . S
C287 C290 1.388 . S
C288 C287 1.386 . S
C288 C289 1.382 . S
C288 H314 0.950 . S
C289 N286 1.332 . S
C289 C288 1.382 . S
C289 H300 0.952 . S
C290 C287 1.388 . S
C290 C291 1.382 . S
C290 H315 0.950 . S
C291 N286 1.332 . S
C291 C290 1.382 . S
C291 H301 0.948 . S
N292 Co270 2.282 . S
N292 C296 1.332 . S
N292 C297 1.332 . S
C293 C294 1.388 . S
C293 C297 1.382 . S
C293 H316 0.950 . S
C294 C293 1.388 . S
C294 C295 1.386 . S
C295 C294 1.386 . S
C295 C296 1.382 . S
C295 H317 0.950 . S
C296 N292 1.332 . S
C296 C295 1.382 . S
C296 H298 0.952 . S
C297 N292 1.332 . S
C297 C293 1.382 . S
C297 H299 0.948 . S
H298 C296 0.952 . S
H299 C297 0.948 . S
H300 C289 0.952 . S
H301 C291 0.948 . S
C302 C268 1.395 . S
C302 C272 1.391 . S
C303 C265 1.389 . S
C303 C285 1.392 . S
C304 C275 1.392 . S
C304 C277 1.389 . S
C305 C280 1.395 . S
C305 C282 1.391 . S
H306 C266 0.951 . S
H307 C267 0.950 . S
H308 C273 0.949 . S
H309 C274 0.950 . S
H310 C278 0.951 . S
H311 C279 0.950 . S
H312 C283 0.949 . S
H313 C284 0.950 . S
H314 C288 0.950 . S
H315 C290 0.950 . S
H316 C293 0.950 . S
H317 C295 0.950 . S
C318 O345 1.312 . S
C318 O346 1.208 . S
C319 O340 1.331 . S
C319 O343 1.244 . S
C320 O342 1.264 . S
C320 O344 1.273 . S
Mg321 O323 1.936 . S
Mg321 O330 2.081 1_455 S
Mg321 O332 2.023 . S
Mg321 O336 2.031 1_455 S
Mg321 O345 2.291 . S
Mg322 O323 1.963 . S
Mg322 O333 1.942 1_455 S
Mg322 O334 1.955 . S
Mg322 O341 1.986 1_455 S
O323 Mg321 1.936 . S
O323 Mg322 1.963 . S
O323 Mg324 1.915 . S
Mg324 O323 1.915 . S
Mg324 O325 1.915 . S
Mg324 O329 2.013 . S
Mg324 O335 2.114 1_455 S
Mg324 O339 2.013 1_455 S
Mg324 O345 2.114 . S
O325 Mg324 1.915 . S
O325 Mg326 1.936 . S
O325 Mg327 1.963 . S
Mg326 O325 1.936 . S
Mg326 O335 2.291 1_455 S
Mg326 O340 2.081 . S
Mg326 O342 2.023 1_455 S
Mg326 O346 2.031 . S
Mg327 O325 1.963 . S
Mg327 O331 1.986 . S
Mg327 O343 1.942 . S
Mg327 O344 1.955 1_455 S
C328 O339 1.191 . S
C328 O341 1.307 . S
O329 Mg324 2.013 . S
O329 C348 1.191 . S
O330 Mg321 2.081 1_655 S
O330 C338 1.331 . S
O331 Mg327 1.986 . S
O331 C348 1.307 . S
O332 Mg321 2.023 . S
O332 C347 1.264 . S
O333 Mg322 1.942 1_655 S
O333 C338 1.244 . S
O334 Mg322 1.955 . S
O334 C347 1.273 . S
O335 Mg324 2.114 1_655 S
O335 Mg326 2.291 1_655 S
O335 C337 1.312 . S
O336 Mg321 2.031 1_655 S
O336 C337 1.208 . S
C337 O335 1.312 . S
C337 O336 1.208 . S
C338 O330 1.331 . S
C338 O333 1.244 . S
O339 Mg324 2.013 1_655 S
O339 C328 1.191 . S
O340 C319 1.331 . S
O340 Mg326 2.081 . S
O341 Mg322 1.986 1_655 S
O341 C328 1.307 . S
O342 C320 1.264 . S
O342 Mg326 2.023 1_655 S
O343 C319 1.244 . S
O343 Mg327 1.942 . S
O344 C320 1.273 . S
O344 Mg327 1.955 1_655 S
O345 C318 1.312 . S
O345 Mg321 2.291 . S
O345 Mg324 2.114 . S
O346 C318 1.208 . S
O346 Mg326 2.031 . S
C347 O332 1.264 . S
C347 O334 1.273 . S
C348 O329 1.191 . S
C348 O331 1.307 . S
C349 O376 1.312 . S
C349 O377 1.208 . S
C350 O371 1.331 . S
C350 O374 1.244 . S
C351 O373 1.264 . S
C351 O375 1.273 . S
Mg352 O354 1.936 1_545 S
Mg352 O361 2.081 1_545 S
Mg352 O363 2.023 . S
Mg352 O367 2.031 1_545 S
Mg352 O376 2.291 . S
Mg353 O354 1.963 . S
Mg353 O364 1.942 . S
Mg353 O365 1.955 1_565 S
Mg353 O372 1.986 . S
O354 Mg352 1.936 1_565 S
O354 Mg353 1.963 . S
O354 Mg355 1.915 1_565 S
Mg355 O354 1.915 1_545 S
Mg355 O356 1.915 . S
Mg355 O360 2.013 . S
Mg355 O366 2.114 1_545 S
Mg355 O370 2.013 1_545 S
Mg355 O376 2.114 . S
O356 Mg355 1.915 . S
O356 Mg357 1.936 . S
O356 Mg358 1.963 . S
Mg357 O356 1.936 . S
Mg357 O366 2.291 1_545 S
Mg357 O371 2.081 . S
Mg357 O373 2.023 1_545 S
Mg357 O377 2.031 . S
Mg358 O356 1.963 . S
Mg358 O362 1.986 . S
Mg358 O374 1.942 . S
Mg358 O375 1.955 1_545 S
C359 O370 1.191 . S
C359 O372 1.307 . S
O360 Mg355 2.013 . S
O360 C379 1.191 . S
O361 Mg352 2.081 1_565 S
O361 C369 1.331 . S
O362 Mg358 1.986 . S
O362 C379 1.307 . S
O363 Mg352 2.023 . S
O363 C378 1.264 . S
O364 Mg353 1.942 . S
O364 C369 1.244 . S
O365 Mg353 1.955 1_545 S
O365 C378 1.273 . S
O366 Mg355 2.114 1_565 S
O366 Mg357 2.291 1_565 S
O366 C368 1.312 . S
O367 Mg352 2.031 1_565 S
O367 C368 1.208 . S
C368 O366 1.312 . S
C368 O367 1.208 . S
C369 O361 1.331 . S
C369 O364 1.244 . S
O370 Mg355 2.013 1_565 S
O370 C359 1.191 . S
O371 C350 1.331 . S
O371 Mg357 2.081 . S
O372 Mg353 1.986 . S
O372 C359 1.307 . S
O373 C351 1.264 . S
O373 Mg357 2.023 1_565 S
O374 C350 1.244 . S
O374 Mg358 1.942 . S
O375 C351 1.273 . S
O375 Mg358 1.955 1_565 S
O376 C349 1.312 . S
O376 Mg352 2.291 . S
O376 Mg355 2.114 . S
O377 C349 1.208 . S
O377 Mg357 2.031 . S
C378 O363 1.264 . S
C378 O365 1.273 . S
C379 O360 1.191 . S
C379 O362 1.307 . S
C380 O407 1.312 . S
C380 O408 1.208 . S
C381 O402 1.331 . S
C381 O405 1.244 . S
C382 O404 1.264 . S
C382 O406 1.273 . S
Mg383 O385 1.936 . S
Mg383 O392 2.081 . S
Mg383 O394 2.023 . S
Mg383 O398 2.031 . S
Mg383 O407 2.291 . S
Mg384 O385 1.963 . S
Mg384 O395 1.942 . S
Mg384 O396 1.955 . S
Mg384 O403 1.986 . S
O385 Mg383 1.936 . S
O385 Mg384 1.963 . S
O385 Mg386 1.915 . S
Mg386 O385 1.915 . S
Mg386 O387 1.915 . S
Mg386 O391 2.013 . S
Mg386 O397 2.114 . S
Mg386 O401 2.013 . S
Mg386 O407 2.114 . S
O387 Mg386 1.915 . S
O387 Mg388 1.936 . S
O387 Mg389 1.963 . S
Mg388 O387 1.936 . S
Mg388 O397 2.291 . S
Mg388 O402 2.081 . S
Mg388 O404 2.023 . S
Mg388 O408 2.031 . S
Mg389 O387 1.963 . S
Mg389 O393 1.986 . S
Mg389 O405 1.942 . S
Mg389 O406 1.955 . S
C390 O401 1.191 . S
C390 O403 1.307 . S
O391 Mg386 2.013 . S
O391 C410 1.191 . S
O392 Mg383 2.081 . S
O392 C400 1.331 . S
O393 Mg389 1.986 . S
O393 C410 1.307 . S
O394 Mg383 2.023 . S
O394 C409 1.264 . S
O395 Mg384 1.942 . S
O395 C400 1.244 . S
O396 Mg384 1.955 . S
O396 C409 1.273 . S
O397 Mg386 2.114 . S
O397 Mg388 2.291 . S
O397 C399 1.312 . S
O398 Mg383 2.031 . S
O398 C399 1.208 . S
C399 O397 1.312 . S
C399 O398 1.208 . S
C400 O392 1.331 . S
C400 O395 1.244 . S
O401 Mg386 2.013 . S
O401 C390 1.191 . S
O402 C381 1.331 . S
O402 Mg388 2.081 . S
O403 Mg384 1.986 . S
O403 C390 1.307 . S
O404 C382 1.264 . S
O404 Mg388 2.023 . S
O405 C381 1.244 . S
O405 Mg389 1.942 . S
O406 C382 1.273 . S
O406 Mg389 1.955 . S
O407 C380 1.312 . S
O407 Mg383 2.291 . S
O407 Mg386 2.114 . S
O408 C380 1.208 . S
O408 Mg388 2.031 . S
C409 O394 1.264 . S
C409 O396 1.273 . S
C410 O391 1.191 . S
C410 O393 1.307 . S
C411 C412 1.349 . S
C411 C413 1.327 . S
C411 H436 0.950 . S
C412 C411 1.349 . S
C412 C428 1.349 . S
C413 C411 1.327 . S
C413 C432 1.429 . S
C413 H437 0.950 . S
C414 C431 1.574 . S
C414 C433 1.368 . S
C414 H438 0.949 . S
H415 C419 0.949 . S
C416 C417 1.349 . S
C416 C418 1.327 . S
C416 H439 0.950 . S
C417 C416 1.349 . S
C417 C429 1.349 . S
C418 C416 1.327 . S
C418 C434 1.429 . S
C418 H440 0.950 . S
C419 H415 0.949 . S
C419 C427 1.574 . S
C419 C435 1.368 . S
H420 C428 0.950 . S
H421 C426 0.950 . S
H422 C427 0.949 . S
H423 C429 0.950 . S
H424 C430 0.950 . S
H425 C431 0.949 . S
C426 H421 0.950 . S
C426 C428 1.327 . S
C426 C432 1.429 . S
C427 C419 1.574 . S
C427 H422 0.949 . S
C427 C433 1.368 . S
C428 C412 1.349 . S
C428 H420 0.950 . S
C428 C426 1.327 . S
C429 C417 1.349 . S
C429 H423 0.950 . S
C429 C430 1.327 . S
C430 H424 0.950 . S
C430 C429 1.327 . S
C430 C434 1.429 . S
C431 C414 1.574 . S
C431 H425 0.949 . S
C431 C435 1.368 . S
C432 C413 1.429 . S
C432 C426 1.429 . S
C432 C433 1.523 . S
C433 C414 1.368 . S
C433 C427 1.368 . S
C433 C432 1.523 . S
C434 C418 1.429 . S
C434 C430 1.429 . S
C434 C435 1.523 . S
C435 C419 1.368 . S
C435 C431 1.368 . S
C435 C434 1.523 . S
H436 C411 0.950 . S
H437 C413 0.950 . S
H438 C414 0.949 . S
H439 C416 0.950 . S
H440 C418 0.950 . S
C441 C442 1.349 . S
C441 C443 1.327 . S
C441 H466 0.950 . S
C442 C441 1.349 . S
C442 C458 1.349 . S
C443 C441 1.327 . S
C443 C462 1.429 . S
C443 H467 0.950 . S
C444 C461 1.574 . S
C444 C463 1.368 . S
C444 H468 0.949 . S
H445 C449 0.949 . S
C446 C447 1.349 . S
C446 C448 1.327 . S
C446 H469 0.950 . S
C447 C446 1.349 . S
C447 C459 1.349 . S
C448 C446 1.327 . S
C448 C464 1.429 . S
C448 H470 0.950 . S
C449 H445 0.949 . S
C449 C457 1.574 . S
C449 C465 1.368 . S
H450 C458 0.950 . S
H451 C456 0.950 . S
H452 C457 0.949 . S
H453 C459 0.950 . S
H454 C460 0.950 . S
H455 C461 0.949 . S
C456 H451 0.950 . S
C456 C458 1.327 . S
C456 C462 1.429 . S
C457 C449 1.574 . S
C457 H452 0.949 . S
C457 C463 1.368 . S
C458 C442 1.349 . S
C458 H450 0.950 . S
C458 C456 1.327 . S
C459 C447 1.349 . S
C459 H453 0.950 . S
C459 C460 1.327 . S
C460 H454 0.950 . S
C460 C459 1.327 . S
C460 C464 1.429 . S
C461 C444 1.574 . S
C461 H455 0.949 . S
C461 C465 1.368 . S
C462 C443 1.429 . S
C462 C456 1.429 . S
C462 C463 1.523 . S
C463 C444 1.368 . S
C463 C457 1.368 . S
C463 C462 1.523 . S
C464 C448 1.429 . S
C464 C460 1.429 . S
C464 C465 1.523 . S
C465 C449 1.368 . S
C465 C461 1.368 . S
C465 C464 1.523 . S
H466 C441 0.950 . S
H467 C443 0.950 . S
H468 C444 0.949 . S
H469 C446 0.950 . S
H470 C448 0.950 . S
C471 C472 1.349 . S
C471 C473 1.327 . S
C471 H496 0.950 . S
C472 C471 1.349 . S
C472 C488 1.349 . S
C473 C471 1.327 . S
C473 C492 1.429 . S
C473 H497 0.950 . S
C474 C491 1.574 . S
C474 C493 1.368 . S
C474 H498 0.949 . S
H475 C479 0.949 . S
C476 C477 1.349 . S
C476 C478 1.327 . S
C476 H499 0.950 . S
C477 C476 1.349 . S
C477 C489 1.349 . S
C478 C476 1.327 . S
C478 C494 1.429 . S
C478 H500 0.950 . S
C479 H475 0.949 . S
C479 C487 1.574 . S
C479 C495 1.368 . S
H480 C488 0.950 . S
H481 C486 0.950 . S
H482 C487 0.949 . S
H483 C489 0.950 . S
H484 C490 0.950 . S
H485 C491 0.949 . S
C486 H481 0.950 . S
C486 C488 1.327 . S
C486 C492 1.429 . S
C487 C479 1.574 . S
C487 H482 0.949 . S
C487 C493 1.368 . S
C488 C472 1.349 . S
C488 H480 0.950 . S
C488 C486 1.327 . S
C489 C477 1.349 . S
C489 H483 0.950 . S
C489 C490 1.327 . S
C490 H484 0.950 . S
C490 C489 1.327 . S
C490 C494 1.429 . S
C491 C474 1.574 . S
C491 H485 0.949 . S
C491 C495 1.368 . S
C492 C473 1.429 . S
C492 C486 1.429 . S
C492 C493 1.523 . S
C493 C474 1.368 . S
C493 C487 1.368 . S
C493 C492 1.523 . S
C494 C478 1.429 . S
C494 C490 1.429 . S
C494 C495 1.523 . S
C495 C479 1.368 . S
C495 C491 1.368 . S
C495 C494 1.523 . S
H496 C471 0.950 . S
H497 C473 0.950 . S
H498 C474 0.949 . S
H499 C476 0.950 . S
H500 C478 0.950 . S
C501 C502 1.349 . S
C501 C503 1.327 . S
C501 H526 0.950 . S
C502 C501 1.349 . S
C502 C518 1.349 . S
C503 C501 1.327 . S
C503 C522 1.429 . S
C503 H527 0.950 . S
C504 C521 1.574 . S
C504 C523 1.368 . S
C504 H528 0.949 . S
H505 C509 0.949 . S
C506 C507 1.349 . S
C506 C508 1.327 . S
C506 H529 0.950 . S
C507 C506 1.349 . S
C507 C519 1.349 . S
C508 C506 1.327 . S
C508 C524 1.429 . S
C508 H530 0.950 . S
C509 H505 0.949 . S
C509 C517 1.574 . S
C509 C525 1.368 . S
H510 C518 0.950 . S
H511 C516 0.950 . S
H512 C517 0.949 . S
H513 C519 0.950 . S
H514 C520 0.950 . S
H515 C521 0.949 . S
C516 H511 0.950 . S
C516 C518 1.327 . S
C516 C522 1.429 . S
C517 C509 1.574 . S
C517 H512 0.949 . S
C517 C523 1.368 . S
C518 C502 1.349 . S
C518 H510 0.950 . S
C518 C516 1.327 . S
C519 C507 1.349 . S
C519 H513 0.950 . S
C519 C520 1.327 . S
C520 H514 0.950 . S
C520 C519 1.327 . S
C520 C524 1.429 . S
C521 C504 1.574 . S
C521 H515 0.949 . S
C521 C525 1.368 . S
C522 C503 1.429 . S
C522 C516 1.429 . S
C522 C523 1.523 . S
C523 C504 1.368 . S
C523 C517 1.368 . S
C523 C522 1.523 . S
C524 C508 1.429 . S
C524 C520 1.429 . S
C524 C525 1.523 . S
C525 C509 1.368 . S
C525 C521 1.368 . S
C525 C524 1.523 . S
H526 C501 0.950 . S
H527 C503 0.950 . S
H528 C504 0.949 . S
H529 C506 0.950 . S
H530 C508 0.950 . S
C531 C532 1.349 . S
C531 C533 1.327 . S
C531 H556 0.950 . S
C532 C531 1.349 . S
C532 C548 1.349 . S
C533 C531 1.327 . S
C533 C552 1.429 . S
C533 H557 0.950 . S
C534 C551 1.574 . S
C534 C553 1.368 . S
C534 H558 0.949 . S
H535 C539 0.949 . S
C536 C537 1.349 . S
C536 C538 1.327 . S
C536 H559 0.950 . S
C537 C536 1.349 . S
C537 C549 1.349 . S
C538 C536 1.327 . S
C538 C554 1.429 . S
C538 H560 0.950 . S
C539 H535 0.949 . S
C539 C547 1.574 . S
C539 C555 1.368 . S
H540 C548 0.950 . S
H541 C546 0.950 . S
H542 C547 0.949 . S
H543 C549 0.950 . S
H544 C550 0.950 . S
H545 C551 0.949 . S
C546 H541 0.950 . S
C546 C548 1.327 . S
C546 C552 1.429 . S
C547 C539 1.574 . S
C547 H542 0.949 . S
C547 C553 1.368 . S
C548 C532 1.349 . S
C548 H540 0.950 . S
C548 C546 1.327 . S
C549 C537 1.349 . S
C549 H543 0.950 . S
C549 C550 1.327 . S
C550 H544 0.950 . S
C550 C549 1.327 . S
C550 C554 1.429 . S
C551 C534 1.574 . S
C551 H545 0.949 . S
C551 C555 1.368 . S
C552 C533 1.429 . S
C552 C546 1.429 . S
C552 C553 1.523 . S
C553 C534 1.368 . S
C553 C547 1.368 . S
C553 C552 1.523 . S
C554 C538 1.429 . S
C554 C550 1.429 . S
C554 C555 1.523 . S
C555 C539 1.368 . S
C555 C551 1.368 . S
C555 C554 1.523 . S
H556 C531 0.950 . S
H557 C533 0.950 . S
H558 C534 0.949 . S
H559 C536 0.950 . S
H560 C538 0.950 . S
C561 C562 1.349 . S
C561 C563 1.327 . S
C561 H586 0.950 . S
C562 C561 1.349 . S
C562 C578 1.349 . S
C563 C561 1.327 . S
C563 C582 1.429 . S
C563 H587 0.950 . S
C564 C581 1.574 . S
C564 C583 1.368 . S
C564 H588 0.949 . S
H565 C569 0.949 . S
C566 C567 1.349 . S
C566 C568 1.327 . S
C566 H589 0.950 . S
C567 C566 1.349 . S
C567 C579 1.349 . S
C568 C566 1.327 . S
C568 C584 1.429 . S
C568 H590 0.950 . S
C569 H565 0.949 . S
C569 C577 1.574 . S
C569 C585 1.368 . S
H570 C578 0.950 . S
H571 C576 0.950 . S
H572 C577 0.949 . S
H573 C579 0.950 . S
H574 C580 0.950 . S
H575 C581 0.949 . S
C576 H571 0.950 . S
C576 C578 1.327 . S
C576 C582 1.429 . S
C577 C569 1.574 . S
C577 H572 0.949 . S
C577 C583 1.368 . S
C578 C562 1.349 . S
C578 H570 0.950 . S
C578 C576 1.327 . S
C579 C567 1.349 . S
C579 H573 0.950 . S
C579 C580 1.327 . S
C580 H574 0.950 . S
C580 C579 1.327 . S
C580 C584 1.429 . S
C581 C564 1.574 . S
C581 H575 0.949 . S
C581 C585 1.368 . S
C582 C563 1.429 . S
C582 C576 1.429 . S
C582 C583 1.523 . S
C583 C564 1.368 . S
C583 C577 1.368 . S
C583 C582 1.523 . S
C584 C568 1.429 . S
C584 C580 1.429 . S
C584 C585 1.523 . S
C585 C569 1.368 . S
C585 C581 1.368 . S
C585 C584 1.523 . S
H586 C561 0.950 . S
H587 C563 0.950 . S
H588 C564 0.949 . S
H589 C566 0.950 . S
H590 C568 0.950 . S
C591 C592 1.349 . S
C591 C593 1.327 . S
C591 H616 0.950 . S
C592 C591 1.349 . S
C592 C608 1.349 . S
C593 C591 1.327 . S
C593 C612 1.429 . S
C593 H617 0.950 . S
C594 C611 1.574 . S
C594 C613 1.368 . S
C594 H618 0.949 . S
H595 C599 0.949 . S
C596 C597 1.349 . S
C596 C598 1.327 . S
C596 H619 0.950 . S
C597 C596 1.349 . S
C597 C609 1.349 . S
C598 C596 1.327 . S
C598 C614 1.429 . S
C598 H620 0.950 . S
C599 H595 0.949 . S
C599 C607 1.574 . S
C599 C615 1.368 . S
H600 C608 0.950 . S
H601 C606 0.950 . S
H602 C607 0.949 . S
H603 C609 0.950 . S
H604 C610 0.950 . S
H605 C611 0.949 . S
C606 H601 0.950 . S
C606 C608 1.327 . S
C606 C612 1.429 . S
C607 C599 1.574 . S
C607 H602 0.949 . S
C607 C613 1.368 . S
C608 C592 1.349 . S
C608 H600 0.950 . S
C608 C606 1.327 . S
C609 C597 1.349 . S
C609 H603 0.950 . S
C609 C610 1.327 . S
C610 H604 0.950 . S
C610 C609 1.327 . S
C610 C614 1.429 . S
C611 C594 1.574 . S
C611 H605 0.949 . S
C611 C615 1.368 . S
C612 C593 1.429 . S
C612 C606 1.429 . S
C612 C613 1.523 . S
C613 C594 1.368 . S
C613 C607 1.368 . S
C613 C612 1.523 . S
C614 C598 1.429 . S
C614 C610 1.429 . S
C614 C615 1.523 . S
C615 C599 1.368 . S
C615 C611 1.368 . S
C615 C614 1.523 . S
H616 C591 0.950 . S
H617 C593 0.950 . S
H618 C594 0.949 . S
H619 C596 0.950 . S
H620 C598 0.950 . S
C621 C622 1.349 . S
C621 C623 1.327 . S
C621 H646 0.950 . S
C622 C621 1.349 . S
C622 C638 1.349 . S
C623 C621 1.327 . S
C623 C642 1.429 . S
C623 H647 0.950 . S
C624 C641 1.574 . S
C624 C643 1.368 . S
C624 H648 0.949 . S
H625 C629 0.949 . S
C626 C627 1.349 . S
C626 C628 1.327 . S
C626 H649 0.950 . S
C627 C626 1.349 . S
C627 C639 1.349 . S
C628 C626 1.327 . S
C628 C644 1.429 . S
C628 H650 0.950 . S
C629 H625 0.949 . S
C629 C637 1.574 . S
C629 C645 1.368 . S
H630 C638 0.950 . S
H631 C636 0.950 . S
H632 C637 0.949 . S
H633 C639 0.950 . S
H634 C640 0.950 . S
H635 C641 0.949 . S
C636 H631 0.950 . S
C636 C638 1.327 . S
C636 C642 1.429 . S
C637 C629 1.574 . S
C637 H632 0.949 . S
C637 C643 1.368 . S
C638 C622 1.349 . S
C638 H630 0.950 . S
C638 C636 1.327 . S
C639 C627 1.349 . S
C639 H633 0.950 . S
C639 C640 1.327 . S
C640 H634 0.950 . S
C640 C639 1.327 . S
C640 C644 1.429 . S
C641 C624 1.574 . S
C641 H635 0.949 . S
C641 C645 1.368 . S
C642 C623 1.429 . S
C642 C636 1.429 . S
C642 C643 1.523 . S
C643 C624 1.368 . S
C643 C637 1.368 . S
C643 C642 1.523 . S
C644 C628 1.429 . S
C644 C640 1.429 . S
C644 C645 1.523 . S
C645 C629 1.368 . S
C645 C641 1.368 . S
C645 C644 1.523 . S
H646 C621 0.950 . S
H647 C623 0.950 . S
H648 C624 0.949 . S
H649 C626 0.950 . S
H650 C628 0.950 . S
C651 C652 1.349 . S
C651 C653 1.327 . S
C651 H676 0.950 . S
C652 C651 1.349 . S
C652 C668 1.349 . S
C653 C651 1.327 . S
C653 C672 1.429 . S
C653 H677 0.950 . S
C654 C671 1.574 . S
C654 C673 1.368 . S
C654 H678 0.949 . S
H655 C659 0.949 . S
C656 C657 1.349 . S
C656 C658 1.327 . S
C656 H679 0.950 . S
C657 C656 1.349 . S
C657 C669 1.349 . S
C658 C656 1.327 . S
C658 C674 1.429 . S
C658 H680 0.950 . S
C659 H655 0.949 . S
C659 C667 1.574 . S
C659 C675 1.368 . S
H660 C668 0.950 1_554 S
H661 C666 0.950 . S
H662 C667 0.949 . S
H663 C669 0.950 . S
H664 C670 0.950 . S
H665 C671 0.949 . S
C666 H661 0.950 . S
C666 C668 1.327 . S
C666 C672 1.429 . S
C667 C659 1.574 . S
C667 H662 0.949 . S
C667 C673 1.368 . S
C668 C652 1.349 . S
C668 H660 0.950 1_556 S
C668 C666 1.327 . S
C669 C657 1.349 . S
C669 H663 0.950 . S
C669 C670 1.327 . S
C670 H664 0.950 . S
C670 C669 1.327 . S
C670 C674 1.429 . S
C671 C654 1.574 . S
C671 H665 0.949 . S
C671 C675 1.368 . S
C672 C653 1.429 . S
C672 C666 1.429 . S
C672 C673 1.523 . S
C673 C654 1.368 . S
C673 C667 1.368 . S
C673 C672 1.523 . S
C674 C658 1.429 . S
C674 C670 1.429 . S
C674 C675 1.523 . S
C675 C659 1.368 . S
C675 C671 1.368 . S
C675 C674 1.523 . S
H676 C651 0.950 . S
H677 C653 0.950 . S
H678 C654 0.949 . S
H679 C656 0.950 . S
H680 C658 0.950 . S
C681 C682 1.349 . S
C681 C683 1.327 . S
C681 H706 0.950 . S
C682 C681 1.349 . S
C682 C698 1.349 . S
C683 C681 1.327 . S
C683 C702 1.429 . S
C683 H707 0.950 . S
C684 C701 1.574 . S
C684 C703 1.368 . S
C684 H708 0.949 . S
H685 C689 0.949 . S
C686 C687 1.349 . S
C686 C688 1.327 . S
C686 H709 0.950 . S
C687 C686 1.349 . S
C687 C699 1.349 . S
C688 C686 1.327 . S
C688 C704 1.429 . S
C688 H710 0.950 . S
C689 H685 0.949 . S
C689 C697 1.574 . S
C689 C705 1.368 . S
H690 C698 0.950 . S
H691 C696 0.950 . S
H692 C697 0.949 . S
H693 C699 0.950 . S
H694 C700 0.950 . S
H695 C701 0.949 . S
C696 H691 0.950 . S
C696 C698 1.327 . S
C696 C702 1.429 . S
C697 C689 1.574 . S
C697 H692 0.949 . S
C697 C703 1.368 . S
C698 C682 1.349 . S
C698 H690 0.950 . S
C698 C696 1.327 . S
C699 C687 1.349 . S
C699 H693 0.950 . S
C699 C700 1.327 . S
C700 H694 0.950 . S
C700 C699 1.327 . S
C700 C704 1.429 . S
C701 C684 1.574 . S
C701 H695 0.949 . S
C701 C705 1.368 . S
C702 C683 1.429 . S
C702 C696 1.429 . S
C702 C703 1.523 . S
C703 C684 1.368 . S
C703 C697 1.368 . S
C703 C702 1.523 . S
C704 C688 1.429 . S
C704 C700 1.429 . S
C704 C705 1.523 . S
C705 C689 1.368 . S
C705 C701 1.368 . S
C705 C704 1.523 . S
H706 C681 0.950 . S
H707 C683 0.950 . S
H708 C684 0.949 . S
H709 C686 0.950 . S
H710 C688 0.950 . S
C711 C712 1.349 . S
C711 C713 1.327 . S
C711 H736 0.950 . S
C712 C711 1.349 . S
C712 C728 1.349 1_554 S
C713 C711 1.327 . S
C713 C732 1.429 1_554 S
C713 H737 0.950 . S
C714 C731 1.574 . S
C714 C733 1.368 . S
C714 H738 0.949 . S
H715 C719 0.949 . S
C716 C717 1.349 . S
C716 C718 1.327 . S
C716 H739 0.950 . S
C717 C716 1.349 . S
C717 C729 1.349 . S
C718 C716 1.327 . S
C718 C734 1.429 . S
C718 H740 0.950 . S
C719 H715 0.949 . S
C719 C727 1.574 . S
C719 C735 1.368 . S
H720 C728 0.950 . S
H721 C726 0.950 . S
H722 C727 0.949 . S
H723 C729 0.950 . S
H724 C730 0.950 . S
H725 C731 0.949 . S
C726 H721 0.950 . S
C726 C728 1.327 . S
C726 C732 1.429 . S
C727 C719 1.574 . S
C727 H722 0.949 . S
C727 C733 1.368 . S
C728 C712 1.349 1_556 S
C728 H720 0.950 . S
C728 C726 1.327 . S
C729 C717 1.349 . S
C729 H723 0.950 . S
C729 C730 1.327 . S
C730 H724 0.950 . S
C730 C729 1.327 . S
C730 C734 1.429 . S
C731 C714 1.574 . S
C731 H725 0.949 . S
C731 C735 1.368 . S
C732 C713 1.429 1_556 S
C732 C726 1.429 . S
C732 C733 1.523 . S
C733 C714 1.368 . S
C733 C727 1.368 . S
C733 C732 1.523 . S
C734 C718 1.429 . S
C734 C730 1.429 . S
C734 C735 1.523 . S
C735 C719 1.368 . S
C735 C731 1.368 . S
C735 C734 1.523 . S
H736 C711 0.950 . S
H737 C713 0.950 . S
H738 C714 0.949 . S
H739 C716 0.950 . S
H740 C718 0.950 . S
C741 C742 1.349 1_554 S
C741 C743 1.327 1_554 S
C741 H766 0.950 . S
C742 C741 1.349 1_556 S
C742 C758 1.349 . S
C743 C741 1.327 1_556 S
C743 C762 1.429 . S
C743 H767 0.950 1_556 S
C744 C761 1.574 . S
C744 C763 1.368 . S
C744 H768 0.949 . S
H745 C749 0.949 . S
C746 C747 1.349 . S
C746 C748 1.327 . S
C746 H769 0.950 . S
C747 C746 1.349 . S
C747 C759 1.349 . S
C748 C746 1.327 . S
C748 C764 1.429 . S
C748 H770 0.950 . S
C749 H745 0.949 . S
C749 C757 1.574 . S
C749 C765 1.368 . S
H750 C758 0.950 . S
H751 C756 0.950 . S
H752 C757 0.949 . S
H753 C759 0.950 . S
H754 C760 0.950 . S
H755 C761 0.949 . S
C756 H751 0.950 . S
C756 C758 1.327 . S
C756 C762 1.429 . S
C757 C749 1.574 . S
C757 H752 0.949 . S
C757 C763 1.368 . S
C758 C742 1.349 . S
C758 H750 0.950 . S
C758 C756 1.327 . S
C759 C747 1.349 . S
C759 H753 0.950 . S
C759 C760 1.327 . S
C760 H754 0.950 . S
C760 C759 1.327 . S
C760 C764 1.429 . S
C761 C744 1.574 . S
C761 H755 0.949 . S
C761 C765 1.368 . S
C762 C743 1.429 . S
C762 C756 1.429 . S
C762 C763 1.523 . S
C763 C744 1.368 . S
C763 C757 1.368 . S
C763 C762 1.523 . S
C764 C748 1.429 . S
C764 C760 1.429 . S
C764 C765 1.523 . S
C765 C749 1.368 . S
C765 C761 1.368 . S
C765 C764 1.523 . S
H766 C741 0.950 . S
H767 C743 0.950 1_554 S
H768 C744 0.949 . S
H769 C746 0.950 . S
H770 C748 0.950 . S
C771 C772 1.349 . S
C771 C773 1.327 . S
C771 H796 0.950 . S
C772 C771 1.349 . S
C772 C788 1.349 . S
C773 C771 1.327 . S
C773 C792 1.429 . S
C773 H797 0.950 . S
C774 C791 1.574 . S
C774 C793 1.368 . S
C774 H798 0.949 . S
H775 C779 0.949 . S
C776 C777 1.349 . S
C776 C778 1.327 . S
C776 H799 0.950 . S
C777 C776 1.349 . S
C777 C789 1.349 . S
C778 C776 1.327 . S
C778 C794 1.429 . S
C778 H800 0.950 . S
C779 H775 0.949 . S
C779 C787 1.574 . S
C779 C795 1.368 . S
H780 C788 0.950 . S
H781 C786 0.950 . S
H782 C787 0.949 . S
H783 C789 0.950 . S
H784 C790 0.950 . S
H785 C791 0.949 . S
C786 H781 0.950 . S
C786 C788 1.327 . S
C786 C792 1.429 . S
C787 C779 1.574 . S
C787 H782 0.949 . S
C787 C793 1.368 . S
C788 C772 1.349 . S
C788 H780 0.950 . S
C788 C786 1.327 . S
C789 C777 1.349 . S
C789 H783 0.950 . S
C789 C790 1.327 . S
C790 H784 0.950 . S
C790 C789 1.327 . S
C790 C794 1.429 . S
C791 C774 1.574 . S
C791 H785 0.949 . S
C791 C795 1.368 . S
C792 C773 1.429 . S
C792 C786 1.429 . S
C792 C793 1.523 . S
C793 C774 1.368 . S
C793 C787 1.368 . S
C793 C792 1.523 . S
C794 C778 1.429 . S
C794 C790 1.429 . S
C794 C795 1.523 . S
C795 C779 1.368 . S
C795 C791 1.368 . S
C795 C794 1.523 . S
H796 C771 0.950 . S
H797 C773 0.950 . S
H798 C774 0.949 . S
H799 C776 0.950 . S
H800 C778 0.950 . S
C801 C802 1.349 . S
C801 C803 1.327 . S
C801 H826 0.950 . S
C802 C801 1.349 . S
C802 C818 1.349 . S
C803 C801 1.327 . S
C803 C822 1.429 . S
C803 H827 0.950 . S
C804 C821 1.574 . S
C804 C823 1.368 . S
C804 H828 0.949 . S
H805 C809 0.949 . S
C806 C807 1.349 . S
C806 C808 1.327 . S
C806 H829 0.950 . S
C807 C806 1.349 . S
C807 C819 1.349 . S
C808 C806 1.327 . S
C808 C824 1.429 . S
C808 H830 0.950 . S
C809 H805 0.949 . S
C809 C817 1.574 . S
C809 C825 1.368 . S
H810 C818 0.950 . S
H811 C816 0.950 . S
H812 C817 0.949 . S
H813 C819 0.950 . S
H814 C820 0.950 . S
H815 C821 0.949 . S
C816 H811 0.950 . S
C816 C818 1.327 . S
C816 C822 1.429 . S
C817 C809 1.574 . S
C817 H812 0.949 . S
C817 C823 1.368 . S
C818 C802 1.349 . S
C818 H810 0.950 . S
C818 C816 1.327 . S
C819 C807 1.349 . S
C819 H813 0.950 . S
C819 C820 1.327 . S
C820 H814 0.950 . S
C820 C819 1.327 . S
C820 C824 1.429 . S
C821 C804 1.574 . S
C821 H815 0.949 . S
C821 C825 1.368 . S
C822 C803 1.429 . S
C822 C816 1.429 . S
C822 C823 1.523 . S
C823 C804 1.368 . S
C823 C817 1.368 . S
C823 C822 1.523 . S
C824 C808 1.429 . S
C824 C820 1.429 . S
C824 C825 1.523 . S
C825 C809 1.368 . S
C825 C821 1.368 . S
C825 C824 1.523 . S
H826 C801 0.950 . S
H827 C803 0.950 . S
H828 C804 0.949 . S
H829 C806 0.950 . S
H830 C808 0.950 . S
C831 C832 1.349 . S
C831 C833 1.327 . S
C831 H856 0.950 . S
C832 C831 1.349 . S
C832 C848 1.349 1_554 S
C833 C831 1.327 . S
C833 C852 1.429 1_554 S
C833 H857 0.950 . S
C834 C851 1.574 . S
C834 C853 1.368 . S
C834 H858 0.949 . S
H835 C839 0.949 . S
C836 C837 1.349 . S
C836 C838 1.327 . S
C836 H859 0.950 . S
C837 C836 1.349 . S
C837 C849 1.349 . S
C838 C836 1.327 . S
C838 C854 1.429 . S
C838 H860 0.950 . S
C839 H835 0.949 . S
C839 C847 1.574 . S
C839 C855 1.368 . S
H840 C848 0.950 . S
H841 C846 0.950 . S
H842 C847 0.949 . S
H843 C849 0.950 . S
H844 C850 0.950 . S
H845 C851 0.949 . S
C846 H841 0.950 . S
C846 C848 1.327 . S
C846 C852 1.429 . S
C847 C839 1.574 . S
C847 H842 0.949 . S
C847 C853 1.368 . S
C848 C832 1.349 1_556 S
C848 H840 0.950 . S
C848 C846 1.327 . S
C849 C837 1.349 . S
C849 H843 0.950 . S
C849 C850 1.327 . S
C850 H844 0.950 . S
C850 C849 1.327 . S
C850 C854 1.429 . S
C851 C834 1.574 . S
C851 H845 0.949 . S
C851 C855 1.368 . S
C852 C833 1.429 1_556 S
C852 C846 1.429 . S
C852 C853 1.523 . S
C853 C834 1.368 . S
C853 C847 1.368 . S
C853 C852 1.523 . S
C854 C838 1.429 . S
C854 C850 1.429 . S
C854 C855 1.523 . S
C855 C839 1.368 . S
C855 C851 1.368 . S
C855 C854 1.523 . S
H856 C831 0.950 . S
H857 C833 0.950 . S
H858 C834 0.949 . S
H859 C836 0.950 . S
H860 C838 0.950 . S
C861 C862 1.349 . S
C861 C863 1.327 . S
C861 H886 0.950 . S
C862 C861 1.349 . S
C862 C878 1.349 . S
C863 C861 1.327 . S
C863 C882 1.429 . S
C863 H887 0.950 . S
C864 C881 1.574 . S
C864 C883 1.368 . S
C864 H888 0.949 . S
H865 C869 0.949 . S
C866 C867 1.349 . S
C866 C868 1.327 . S
C866 H889 0.950 . S
C867 C866 1.349 . S
C867 C879 1.349 . S
C868 C866 1.327 . S
C868 C884 1.429 . S
C868 H890 0.950 . S
C869 H865 0.949 . S
C869 C877 1.574 . S
C869 C885 1.368 . S
H870 C878 0.950 . S
H871 C876 0.950 1_556 S
H872 C877 0.949 . S
H873 C879 0.950 . S
H874 C880 0.950 . S
H875 C881 0.949 . S
C876 H871 0.950 1_554 S
C876 C878 1.327 . S
C876 C882 1.429 . S
C877 C869 1.574 . S
C877 H872 0.949 . S
C877 C883 1.368 . S
C878 C862 1.349 . S
C878 H870 0.950 . S
C878 C876 1.327 . S
C879 C867 1.349 . S
C879 H873 0.950 . S
C879 C880 1.327 . S
C880 H874 0.950 . S
C880 C879 1.327 . S
C880 C884 1.429 . S
C881 C864 1.574 . S
C881 H875 0.949 . S
C881 C885 1.368 . S
C882 C863 1.429 . S
C882 C876 1.429 . S
C882 C883 1.523 1_554 S
C883 C864 1.368 . S
C883 C877 1.368 . S
C883 C882 1.523 1_556 S
C884 C868 1.429 . S
C884 C880 1.429 . S
C884 C885 1.523 . S
C885 C869 1.368 . S
C885 C881 1.368 . S
C885 C884 1.523 . S
H886 C861 0.950 . S
H887 C863 0.950 . S
H888 C864 0.949 . S
H889 C866 0.950 . S
H890 C868 0.950 . S
C891 C892 1.349 . S
C891 C893 1.327 . S
C891 H916 0.950 . S
C892 C891 1.349 . S
C892 C908 1.349 . S
C893 C891 1.327 . S
C893 C912 1.429 . S
C893 H917 0.950 . S
C894 C911 1.574 . S
C894 C913 1.368 . S
C894 H918 0.949 . S
H895 C899 0.949 . S
C896 C897 1.349 . S
C896 C898 1.327 . S
C896 H919 0.950 . S
C897 C896 1.349 . S
C897 C909 1.349 . S
C898 C896 1.327 . S
C898 C914 1.429 . S
C898 H920 0.950 . S
C899 H895 0.949 . S
C899 C907 1.574 . S
C899 C915 1.368 . S
H900 C908 0.950 . S
H901 C906 0.950 . S
H902 C907 0.949 . S
H903 C909 0.950 . S
H904 C910 0.950 . S
H905 C911 0.949 . S
C906 H901 0.950 . S
C906 C908 1.327 . S
C906 C912 1.429 . S
C907 C899 1.574 . S
C907 H902 0.949 . S
C907 C913 1.368 . S
C908 C892 1.349 . S
C908 H900 0.950 . S
C908 C906 1.327 . S
C909 C897 1.349 . S
C909 H903 0.950 . S
C909 C910 1.327 . S
C910 H904 0.950 . S
C910 C909 1.327 . S
C910 C914 1.429 . S
C911 C894 1.574 . S
C911 H905 0.949 . S
C911 C915 1.368 . S
C912 C893 1.429 . S
C912 C906 1.429 . S
C912 C913 1.523 . S
C913 C894 1.368 . S
C913 C907 1.368 . S
C913 C912 1.523 . S
C914 C898 1.429 . S
C914 C910 1.429 . S
C914 C915 1.523 . S
C915 C899 1.368 . S
C915 C911 1.368 . S
C915 C914 1.523 . S
H916 C891 0.950 . S
H917 C893 0.950 . S
H918 C894 0.949 . S
H919 C896 0.950 . S
H920 C898 0.950 . S
C921 C922 1.349 . S
C921 C923 1.327 . S
C921 H946 0.950 . S
C922 C921 1.349 . S
C922 C938 1.349 . S
C923 C921 1.327 . S
C923 C942 1.429 . S
C923 H947 0.950 . S
C924 C941 1.574 . S
C924 C943 1.368 . S
C924 H948 0.949 . S
H925 C929 0.949 . S
C926 C927 1.349 . S
C926 C928 1.327 . S
C926 H949 0.950 . S
C927 C926 1.349 . S
C927 C939 1.349 . S
C928 C926 1.327 . S
C928 C944 1.429 . S
C928 H950 0.950 . S
C929 H925 0.949 . S
C929 C937 1.574 . S
C929 C945 1.368 . S
H930 C938 0.950 . S
H931 C936 0.950 . S
H932 C937 0.949 . S
H933 C939 0.950 . S
H934 C940 0.950 . S
H935 C941 0.949 . S
C936 H931 0.950 . S
C936 C938 1.327 . S
C936 C942 1.429 . S
C937 C929 1.574 . S
C937 H932 0.949 . S
C937 C943 1.368 . S
C938 C922 1.349 . S
C938 H930 0.950 . S
C938 C936 1.327 . S
C939 C927 1.349 . S
C939 H933 0.950 . S
C939 C940 1.327 . S
C940 H934 0.950 . S
C940 C939 1.327 . S
C940 C944 1.429 . S
C941 C924 1.574 . S
C941 H935 0.949 . S
C941 C945 1.368 . S
C942 C923 1.429 . S
C942 C936 1.429 . S
C942 C943 1.523 . S
C943 C924 1.368 . S
C943 C937 1.368 . S
C943 C942 1.523 . S
C944 C928 1.429 . S
C944 C940 1.429 . S
C944 C945 1.523 . S
C945 C929 1.368 . S
C945 C941 1.368 . S
C945 C944 1.523 . S
H946 C921 0.950 . S
H947 C923 0.950 . S
H948 C924 0.949 . S
H949 C926 0.950 . S
H950 C928 0.950 . S
C951 C952 1.349 . S
C951 C953 1.327 . S
C951 H976 0.950 . S
C952 C951 1.349 . S
C952 C968 1.349 . S
C953 C951 1.327 . S
C953 C972 1.429 . S
C953 H977 0.950 . S
C954 C971 1.574 . S
C954 C973 1.368 . S
C954 H978 0.949 . S
H955 C959 0.949 . S
C956 C957 1.349 . S
C956 C958 1.327 . S
C956 H979 0.950 . S
C957 C956 1.349 . S
C957 C969 1.349 . S
C958 C956 1.327 . S
C958 C974 1.429 . S
C958 H980 0.950 . S
C959 H955 0.949 . S
C959 C967 1.574 . S
C959 C975 1.368 . S
H960 C968 0.950 . S
H961 C966 0.950 . S
H962 C967 0.949 . S
H963 C969 0.950 . S
H964 C970 0.950 . S
H965 C971 0.949 . S
C966 H961 0.950 . S
C966 C968 1.327 . S
C966 C972 1.429 . S
C967 C959 1.574 . S
C967 H962 0.949 . S
C967 C973 1.368 . S
C968 C952 1.349 . S
C968 H960 0.950 . S
C968 C966 1.327 . S
C969 C957 1.349 . S
C969 H963 0.950 . S
C969 C970 1.327 . S
C970 H964 0.950 . S
C970 C969 1.327 . S
C970 C974 1.429 . S
C971 C954 1.574 . S
C971 H965 0.949 . S
C971 C975 1.368 . S
C972 C953 1.429 . S
C972 C966 1.429 . S
C972 C973 1.523 . S
C973 C954 1.368 . S
C973 C967 1.368 . S
C973 C972 1.523 . S
C974 C958 1.429 . S
C974 C970 1.429 . S
C974 C975 1.523 . S
C975 C959 1.368 . S
C975 C971 1.368 . S
C975 C974 1.523 . S
H976 C951 0.950 . S
H977 C953 0.950 . S
H978 C954 0.949 . S
H979 C956 0.950 . S
H980 C958 0.950 . S
C981 C982 1.349 . S
C981 C983 1.327 . S
C981 H1006 0.950 . S
C982 C981 1.349 . S
C982 C998 1.349 . S
C983 C981 1.327 . S
C983 C1002 1.429 . S
C983 H1007 0.950 . S
C984 C1001 1.574 . S
C984 C1003 1.368 . S
C984 H1008 0.949 . S
H985 C989 0.949 . S
C986 C987 1.349 . S
C986 C988 1.327 . S
C986 H1009 0.950 . S
C987 C986 1.349 . S
C987 C999 1.349 . S
C988 C986 1.327 . S
C988 C1004 1.429 . S
C988 H1010 0.950 . S
C989 H985 0.949 . S
C989 C997 1.574 . S
C989 C1005 1.368 . S
H990 C998 0.950 . S
H991 C996 0.950 . S
H992 C997 0.949 . S
H993 C999 0.950 . S
H994 C1000 0.950 . S
H995 C1001 0.949 . S
C996 H991 0.950 . S
C996 C998 1.327 . S
C996 C1002 1.429 . S
C997 C989 1.574 . S
C997 H992 0.949 . S
C997 C1003 1.368 . S
C998 C982 1.349 . S
C998 H990 0.950 . S
C998 C996 1.327 . S
C999 C987 1.349 . S
C999 H993 0.950 . S
C999 C1000 1.327 . S
C1000 H994 0.950 . S
C1000 C999 1.327 . S
C1000 C1004 1.429 . S
C1001 C984 1.574 . S
C1001 H995 0.949 . S
C1001 C1005 1.368 . S
C1002 C983 1.429 . S
C1002 C996 1.429 . S
C1002 C1003 1.523 . S
C1003 C984 1.368 . S
C1003 C997 1.368 . S
C1003 C1002 1.523 . S
C1004 C988 1.429 . S
C1004 C1000 1.429 . S
C1004 C1005 1.523 . S
C1005 C989 1.368 . S
C1005 C1001 1.368 . S
C1005 C1004 1.523 . S
H1006 C981 0.950 . S
H1007 C983 0.950 . S
H1008 C984 0.949 . S
H1009 C986 0.950 . S
H1010 C988 0.950 . S
C1011 C1012 1.349 . S
C1011 C1013 1.327 . S
C1011 H1036 0.950 . S
C1012 C1011 1.349 . S
C1012 C1028 1.349 . S
C1013 C1011 1.327 . S
C1013 C1032 1.429 . S
C1013 H1037 0.950 . S
C1014 C1031 1.574 . S
C1014 C1033 1.368 . S
C1014 H1038 0.949 . S
H1015 C1019 0.949 . S
C1016 C1017 1.349 . S
C1016 C1018 1.327 . S
C1016 H1039 0.950 . S
C1017 C1016 1.349 . S
C1017 C1029 1.349 . S
C1018 C1016 1.327 . S
C1018 C1034 1.429 . S
C1018 H1040 0.950 . S
C1019 H1015 0.949 . S
C1019 C1027 1.574 . S
C1019 C1035 1.368 . S
H1020 C1028 0.950 . S
H1021 C1026 0.950 . S
H1022 C1027 0.949 . S
H1023 C1029 0.950 . S
H1024 C1030 0.950 . S
H1025 C1031 0.949 . S
C1026 H1021 0.950 . S
C1026 C1028 1.327 . S
C1026 C1032 1.429 . S
C1027 C1019 1.574 . S
C1027 H1022 0.949 . S
C1027 C1033 1.368 . S
C1028 C1012 1.349 . S
C1028 H1020 0.950 . S
C1028 C1026 1.327 . S
C1029 C1017 1.349 . S
C1029 H1023 0.950 . S
C1029 C1030 1.327 . S
C1030 H1024 0.950 . S
C1030 C1029 1.327 . S
C1030 C1034 1.429 . S
C1031 C1014 1.574 . S
C1031 H1025 0.949 . S
C1031 C1035 1.368 . S
C1032 C1013 1.429 . S
C1032 C1026 1.429 . S
C1032 C1033 1.523 . S
C1033 C1014 1.368 . S
C1033 C1027 1.368 . S
C1033 C1032 1.523 . S
C1034 C1018 1.429 . S
C1034 C1030 1.429 . S
C1034 C1035 1.523 . S
C1035 C1019 1.368 . S
C1035 C1031 1.368 . S
C1035 C1034 1.523 . S
H1036 C1011 0.950 . S
H1037 C1013 0.950 . S
H1038 C1014 0.949 . S
H1039 C1016 0.950 . S
H1040 C1018 0.950 . S
C1041 C1042 1.349 . S
C1041 C1043 1.327 . S
C1041 H1066 0.950 . S
C1042 C1041 1.349 . S
C1042 C1058 1.349 . S
C1043 C1041 1.327 . S
C1043 C1062 1.429 . S
C1043 H1067 0.950 . S
C1044 C1061 1.574 . S
C1044 C1063 1.368 . S
C1044 H1068 0.949 . S
H1045 C1049 0.949 . S
C1046 C1047 1.349 . S
C1046 C1048 1.327 . S
C1046 H1069 0.950 . S
C1047 C1046 1.349 . S
C1047 C1059 1.349 . S
C1048 C1046 1.327 . S
C1048 C1064 1.429 . S
C1048 H1070 0.950 . S
C1049 H1045 0.949 . S
C1049 C1057 1.574 . S
C1049 C1065 1.368 . S
H1050 C1058 0.950 . S
H1051 C1056 0.950 . S
H1052 C1057 0.949 . S
H1053 C1059 0.950 . S
H1054 C1060 0.950 . S
H1055 C1061 0.949 . S
C1056 H1051 0.950 . S
C1056 C1058 1.327 . S
C1056 C1062 1.429 . S
C1057 C1049 1.574 . S
C1057 H1052 0.949 . S
C1057 C1063 1.368 . S
C1058 C1042 1.349 . S
C1058 H1050 0.950 . S
C1058 C1056 1.327 . S
C1059 C1047 1.349 . S
C1059 H1053 0.950 . S
C1059 C1060 1.327 . S
C1060 H1054 0.950 . S
C1060 C1059 1.327 . S
C1060 C1064 1.429 . S
C1061 C1044 1.574 . S
C1061 H1055 0.949 . S
C1061 C1065 1.368 . S
C1062 C1043 1.429 . S
C1062 C1056 1.429 . S
C1062 C1063 1.523 . S
C1063 C1044 1.368 . S
C1063 C1057 1.368 . S
C1063 C1062 1.523 . S
C1064 C1048 1.429 . S
C1064 C1060 1.429 . S
C1064 C1065 1.523 . S
C1065 C1049 1.368 . S
C1065 C1061 1.368 . S
C1065 C1064 1.523 . S
H1066 C1041 0.950 . S
H1067 C1043 0.950 . S
H1068 C1044 0.949 . S
H1069 C1046 0.950 . S
H1070 C1048 0.950 . S
C1071 C1072 1.349 . S
C1071 C1073 1.327 . S
C1071 H1096 0.950 . S
C1072 C1071 1.349 . S
C1072 C1088 1.349 . S
C1073 C1071 1.327 . S
C1073 C1092 1.429 . S
C1073 H1097 0.950 . S
C1074 C1091 1.574 . S
C1074 C1093 1.368 . S
C1074 H1098 0.949 . S
H1075 C1079 0.949 . S
C1076 C1077 1.349 . S
C1076 C1078 1.327 . S
C1076 H1099 0.950 . S
C1077 C1076 1.349 . S
C1077 C1089 1.349 . S
C1078 C1076 1.327 . S
C1078 C1094 1.429 . S
C1078 H1100 0.950 . S
C1079 H1075 0.949 . S
C1079 C1087 1.574 . S
C1079 C1095 1.368 . S
H1080 C1088 0.950 . S
H1081 C1086 0.950 . S
H1082 C1087 0.949 . S
H1083 C1089 0.950 . S
H1084 C1090 0.950 . S
H1085 C1091 0.949 . S
C1086 H1081 0.950 . S
C1086 C1088 1.327 . S
C1086 C1092 1.429 . S
C1087 C1079 1.574 . S
C1087 H1082 0.949 . S
C1087 C1093 1.368 . S
C1088 C1072 1.349 . S
C1088 H1080 0.950 . S
C1088 C1086 1.327 . S
C1089 C1077 1.349 . S
C1089 H1083 0.950 . S
C1089 C1090 1.327 . S
C1090 H1084 0.950 . S
C1090 C1089 1.327 . S
C1090 C1094 1.429 . S
C1091 C1074 1.574 . S
C1091 H1085 0.949 . S
C1091 C1095 1.368 . S
C1092 C1073 1.429 . S
C1092 C1086 1.429 . S
C1092 C1093 1.523 . S
C1093 C1074 1.368 . S
C1093 C1087 1.368 . S
C1093 C1092 1.523 . S
C1094 C1078 1.429 . S
C1094 C1090 1.429 . S
C1094 C1095 1.523 . S
C1095 C1079 1.368 . S
C1095 C1091 1.368 . S
C1095 C1094 1.523 . S
H1096 C1071 0.950 . S
H1097 C1073 0.950 . S
H1098 C1074 0.949 . S
H1099 C1076 0.950 . S
H1100 C1078 0.950 . S
C1101 C1102 1.349 . S
C1101 C1103 1.327 . S
C1101 H1126 0.950 . S
C1102 C1101 1.349 . S
C1102 C1118 1.349 . S
C1103 C1101 1.327 . S
C1103 C1122 1.429 . S
C1103 H1127 0.950 . S
C1104 C1121 1.574 . S
C1104 C1123 1.368 . S
C1104 H1128 0.949 . S
H1105 C1109 0.949 . S
C1106 C1107 1.349 . S
C1106 C1108 1.327 . S
C1106 H1129 0.950 . S
C1107 C1106 1.349 . S
C1107 C1119 1.349 . S
C1108 C1106 1.327 . S
C1108 C1124 1.429 . S
C1108 H1130 0.950 . S
C1109 H1105 0.949 . S
C1109 C1117 1.574 . S
C1109 C1125 1.368 . S
H1110 C1118 0.950 . S
H1111 C1116 0.950 . S
H1112 C1117 0.949 . S
H1113 C1119 0.950 . S
H1114 C1120 0.950 . S
H1115 C1121 0.949 . S
C1116 H1111 0.950 . S
C1116 C1118 1.327 . S
C1116 C1122 1.429 . S
C1117 C1109 1.574 . S
C1117 H1112 0.949 . S
C1117 C1123 1.368 . S
C1118 C1102 1.349 . S
C1118 H1110 0.950 . S
C1118 C1116 1.327 . S
C1119 C1107 1.349 . S
C1119 H1113 0.950 . S
C1119 C1120 1.327 . S
C1120 H1114 0.950 . S
C1120 C1119 1.327 . S
C1120 C1124 1.429 . S
C1121 C1104 1.574 . S
C1121 H1115 0.949 . S
C1121 C1125 1.368 . S
C1122 C1103 1.429 . S
C1122 C1116 1.429 . S
C1122 C1123 1.523 . S
C1123 C1104 1.368 . S
C1123 C1117 1.368 . S
C1123 C1122 1.523 . S
C1124 C1108 1.429 . S
C1124 C1120 1.429 . S
C1124 C1125 1.523 . S
C1125 C1109 1.368 . S
C1125 C1121 1.368 . S
C1125 C1124 1.523 . S
H1126 C1101 0.950 . S
H1127 C1103 0.950 . S
H1128 C1104 0.949 . S
H1129 C1106 0.950 . S
H1130 C1108 0.950 . S
C412 C22 1.735 . S
C417 C318 1.656 . S
C442 C92 1.816 . S
C447 C350 1.785 . S
C477 C409 2.109 . S
C472 C144 2.158 . S
C507 C338 1.606 . S
C502 C197 1.637 . S
C532 C250 1.827 . S
C537 C368 1.744 . S
C567 C390 1.173 . S
C562 C287 1.191 . S
C597 C359 1.764 . S
C592 C145 1.798 . S
C622 C198 1.354 . S
C627 C399 1.295 . S
C657 C348 1.738 . S
C652 C251 1.766 1_556 S
C682 C294 1.563 1_556 S
C687 C378 1.528 . S
C712 C29 1.912 . S
C717 C381 1.874 . S
C747 C320 1.875 . S
C742 C91 1.900 1_556 S
C777 C328 1.421 . S
C772 C188 1.461 . S
C807 C369 1.327 . S
C802 C241 1.355 . S
C837 C382 1.958 . S
C832 C304 2.000 . S
C867 C319 1.475 . S
C862 C39 1.499 . S
C897 C379 1.278 . S
C892 C75 1.311 . S
C922 C135 1.038 . S
C927 C380 1.013 . S
C957 C349 1.526 . S
C952 C303 1.580 . S
C987 C410 1.073 . S
C982 C38 1.098 . S
C1017 C337 1.279 . S
C1012 C82 1.340 . S
C1047 C351 1.417 . S
C1042 C128 1.446 . S
C1072 C181 1.761 . S
C1077 C400 1.725 . S
C1102 C234 1.461 . S
C1107 C347 1.433 . S
