# Generated by pormake.
# Topology csq, (4,8)-cn, num edge types: 1
# Building blocks:
#     Node 0, Type 0, BuildingBlock: KOZSID_clean_sbu_0, # of connection points: 4
#     Node 1, Type 0, BuildingBlock: KOZSID_clean_sbu_0, # of connection points: 4
#     Node 2, Type 0, BuildingBlock: KOZSID_clean_sbu_0, # of connection points: 4
#     Node 3, Type 0, BuildingBlock: KOZSID_clean_sbu_0, # of connection points: 4
#     Node 4, Type 0, BuildingBlock: KOZSID_clean_sbu_0, # of connection points: 4
#     Node 5, Type 0, BuildingBlock: KOZSID_clean_sbu_0, # of connection points: 4
#     Node 6, Type 1, BuildingBlock: TAGTUT_clean_sbu_1, # of connection points: 8
#     Node 7, Type 1, BuildingBlock: TAGTUT_clean_sbu_1, # of connection points: 8
#     Node 8, Type 1, BuildingBlock: TAGTUT_clean_sbu_1, # of connection points: 8
#     Edge 9, Type (0, 1), BuildingBlock: XUDNAN_clean_linker_2, # of connection points: 2
#     Edge 10, Type (0, 1), BuildingBlock: XUDNAN_clean_linker_2, # of connection points: 2
#     Edge 11, Type (0, 1), BuildingBlock: XUDNAN_clean_linker_2, # of connection points: 2
#     Edge 12, Type (0, 1), BuildingBlock: XUDNAN_clean_linker_2, # of connection points: 2
#     Edge 13, Type (0, 1), BuildingBlock: XUDNAN_clean_linker_2, # of connection points: 2
#     Edge 14, Type (0, 1), BuildingBlock: XUDNAN_clean_linker_2, # of connection points: 2
#     Edge 15, Type (0, 1), BuildingBlock: XUDNAN_clean_linker_2, # of connection points: 2
#     Edge 16, Type (0, 1), BuildingBlock: XUDNAN_clean_linker_2, # of connection points: 2
#     Edge 17, Type (0, 1), BuildingBlock: XUDNAN_clean_linker_2, # of connection points: 2
#     Edge 18, Type (0, 1), BuildingBlock: XUDNAN_clean_linker_2, # of connection points: 2
#     Edge 19, Type (0, 1), BuildingBlock: XUDNAN_clean_linker_2, # of connection points: 2
#     Edge 20, Type (0, 1), BuildingBlock: XUDNAN_clean_linker_2, # of connection points: 2
#     Edge 21, Type (0, 1), BuildingBlock: XUDNAN_clean_linker_2, # of connection points: 2
#     Edge 22, Type (0, 1), BuildingBlock: XUDNAN_clean_linker_2, # of connection points: 2
#     Edge 23, Type (0, 1), BuildingBlock: XUDNAN_clean_linker_2, # of connection points: 2
#     Edge 24, Type (0, 1), BuildingBlock: XUDNAN_clean_linker_2, # of connection points: 2
#     Edge 25, Type (0, 1), BuildingBlock: XUDNAN_clean_linker_2, # of connection points: 2
#     Edge 26, Type (0, 1), BuildingBlock: XUDNAN_clean_linker_2, # of connection points: 2
#     Edge 27, Type (0, 1), BuildingBlock: XUDNAN_clean_linker_2, # of connection points: 2
#     Edge 28, Type (0, 1), BuildingBlock: XUDNAN_clean_linker_2, # of connection points: 2
#     Edge 29, Type (0, 1), BuildingBlock: XUDNAN_clean_linker_2, # of connection points: 2
#     Edge 30, Type (0, 1), BuildingBlock: XUDNAN_clean_linker_2, # of connection points: 2
#     Edge 31, Type (0, 1), BuildingBlock: XUDNAN_clean_linker_2, # of connection points: 2
#     Edge 32, Type (0, 1), BuildingBlock: XUDNAN_clean_linker_2, # of connection points: 2
# Relax obj value: 0.035
# Max RMSD: 0.132
# Mean RMSD: 0.041
data_MOF--net-csq--node1-KOZSID_clean_sbu_0--node2-TAGTUT_clean_sbu_1--edge1-XUDNAN_clean_linker_2
_symmetry_space_group_name_H-M    P1
_symmetry_Int_Tables_number       1
_symmetry_cell_setting            triclinic
loop_
_symmetry_equiv_pos_as_xyz
'x, y, z'
_cell_length_a     56.728154
_cell_length_b     55.989742
_cell_length_c     20.782634
_cell_angle_alpha  87.746625
_cell_angle_beta   96.941335
_cell_angle_gamma 119.89896
loop_
_atom_site_label
_atom_site_type_symbol
_atom_site_fract_x
_atom_site_fract_y
_atom_site_fract_z
_atom_type_partial_charge
C0 C 0.29003 0.49988 0.29573 0.0
C1 C 0.30964 0.51927 0.34101 0.0
C2 C 0.30853 0.54304 0.33018 0.0
C3 C 0.28834 0.53668 0.27924 0.0
N4 N 0.27689 0.5105 0.25745 0.0
Co5 Co 0.24574 0.4918 0.18931 0.0
N6 N 0.25188 0.5275 0.15361 0.0
C7 C 0.26852 0.55261 0.18179 0.0
C8 C 0.27315 0.57361 0.13985 0.0
C9 C 0.2582 0.56094 0.08231 0.0
C10 C 0.24424 0.53275 0.09292 0.0
N11 N 0.21367 0.47306 0.12331 0.0
C12 C 0.20537 0.4835 0.07135 0.0
C13 C 0.17884 0.46431 0.04569 0.0
C14 C 0.17093 0.44102 0.08138 0.0
C15 C 0.19257 0.44728 0.1278 0.0
N16 N 0.24016 0.45607 0.22396 0.0
C17 C 0.21717 0.43149 0.21496 0.0
C18 C 0.22017 0.41049 0.24396 0.0
C19 C 0.24676 0.42283 0.27321 0.0
C20 C 0.25824 0.45061 0.26025 0.0
N21 N 0.22169 0.49258 0.24985 0.0
C22 C 0.18965 0.49629 0.3396 0.0
C23 C 0.20712 0.48547 0.35713 0.0
C24 C 0.22292 0.48396 0.31215 0.0
C25 C 0.18843 0.50479 0.27518 0.0
C26 C 0.20436 0.50263 0.23133 0.0
N27 N 0.27014 0.49133 0.12895 0.0
C28 C 0.27874 0.4696 0.04268 0.0
C29 C 0.30441 0.49315 0.03727 0.0
C30 C 0.31267 0.5152 0.08106 0.0
C31 C 0.29543 0.51396 0.1257 0.0
C32 C 0.26204 0.4691 0.08865 0.0
H33 H 0.30256 0.53166 0.15711 0.0
H34 H 0.24233 0.45085 0.09083 0.0
H35 H 0.23639 0.47601 0.32836 0.0
H36 H 0.2029 0.5095 0.18254 0.0
C37 C 0.28372 0.55563 0.24225 0.0
C38 C 0.2851 0.47195 0.28805 0.0
C39 C 0.22131 0.51193 0.04837 0.0
C40 C 0.195 0.42873 0.17172 0.0
H41 H 0.32362 0.51662 0.37687 0.0
H42 H 0.32188 0.56292 0.3541 0.0
H43 H 0.28697 0.59545 0.14883 0.0
H44 H 0.25748 0.57145 0.03797 0.0
H45 H 0.16594 0.46679 0.00661 0.0
H46 H 0.15172 0.42181 0.07406 0.0
H47 H 0.20516 0.38875 0.24248 0.0
H48 H 0.25639 0.41276 0.30177 0.0
H49 H 0.20862 0.47798 0.40539 0.0
H50 H 0.17568 0.51364 0.25863 0.0
H51 H 0.27118 0.45193 0.01045 0.0
H52 H 0.33248 0.53363 0.08099 0.0
C53 C 0.83037 0.26504 0.07824 0.0
C54 C 0.84758 0.25565 0.06334 0.0
C55 C 0.836 0.22864 0.08165 0.0
C56 C 0.81252 0.22315 0.1068 0.0
N57 N 0.80864 0.24495 0.1053 0.0
Co58 Co 0.77824 0.2466 0.13956 0.0
N59 N 0.76967 0.21399 0.19482 0.0
C60 C 0.77782 0.19554 0.18648 0.0
C61 C 0.76662 0.1733 0.22567 0.0
C62 C 0.75003 0.17766 0.2603 0.0
C63 C 0.75217 0.20269 0.24092 0.0
N64 N 0.7479 0.24848 0.17327 0.0
C65 C 0.73523 0.23719 0.22689 0.0
C66 C 0.71849 0.24779 0.23824 0.0
C67 C 0.71897 0.26421 0.18728 0.0
C68 C 0.73666 0.26368 0.14866 0.0
N69 N 0.78683 0.27899 0.08422 0.0
C70 C 0.77026 0.28934 0.06565 0.0
C71 C 0.78242 0.31243 0.0289 0.0
C72 C 0.80825 0.31685 0.02443 0.0
C73 C 0.81038 0.29619 0.05902 0.0
N74 N 0.75277 0.22235 0.06844 0.0
C75 C 0.71668 0.18767 0.96593 0.0
C76 C 0.70942 0.18354 0.02923 0.0
C77 C 0.72763 0.20118 0.07954 0.0
C78 C 0.7424 0.2096 0.95511 0.0
C79 C 0.76012 0.22663 0.00693 0.0
N80 N 0.804 0.27134 0.20925 0.0
C81 C 0.82588 0.31688 0.25594 0.0
C82 C 0.84937 0.31525 0.27691 0.0
C83 C 0.84853 0.29002 0.2698 0.0
C84 C 0.82534 0.26808 0.23654 0.0
C85 C 0.80351 0.2948 0.22215 0.0
H86 H 0.82554 0.24926 0.22869 0.0
H87 H 0.78675 0.29768 0.2024 0.0
H88 H 0.7213 0.19757 0.12739 0.0
H89 H 0.7798 0.24334 0.99709 0.0
C90 C 0.79707 0.20046 0.14393 0.0
C91 C 0.83448 0.2927 0.06509 0.0
C92 C 0.73468 0.21313 0.26088 0.0
C93 C 0.74692 0.28114 0.09661 0.0
H94 H 0.86662 0.26713 0.04235 0.0
H95 H 0.84454 0.2152 0.08023 0.0
H96 H 0.76986 0.15578 0.22825 0.0
H97 H 0.73703 0.16321 0.2937 0.0
H98 H 0.70633 0.24331 0.27798 0.0
H99 H 0.70846 0.27597 0.18058 0.0
H100 H 0.7742 0.32553 0.01107 0.0
H101 H 0.82384 0.3335 0.99948 0.0
H102 H 0.68994 0.16659 0.04023 0.0
H103 H 0.74875 0.21381 0.90691 0.0
H104 H 0.82512 0.33554 0.26309 0.0
H105 H 0.86607 0.28766 0.28649 0.0
C106 C 0.5661 0.74964 0.15056 0.0
C107 C 0.59069 0.74974 0.16462 0.0
C108 C 0.60959 0.77161 0.13357 0.0
C109 C 0.59555 0.78353 0.10211 0.0
N110 N 0.56892 0.77105 0.11242 0.0
Co111 Co 0.5404 0.77974 0.06925 0.0
N112 N 0.56719 0.80911 0.01523 0.0
C113 C 0.5943 0.81787 0.01869 0.0
C114 C 0.60821 0.84003 0.981 0.0
C115 C 0.58895 0.84597 0.95187 0.0
C116 C 0.56409 0.82674 0.97271 0.0
N117 N 0.5117 0.78786 0.02493 0.0
C118 C 0.51332 0.80643 0.97872 0.0
C119 C 0.48805 0.80455 0.96093 0.0
C120 C 0.47007 0.78471 0.99806 0.0
C121 C 0.48515 0.77536 0.0359 0.0
N122 N 0.51386 0.75074 0.12421 0.0
C123 C 0.48758 0.74407 0.12669 0.0
C124 C 0.47392 0.72241 0.16611 0.0
C125 C 0.4924 0.71434 0.18913 0.0
C126 C 0.51632 0.73153 0.16207 0.0
N127 N 0.55027 0.80846 0.13602 0.0
C128 C 0.56444 0.85917 0.19304 0.0
C129 C 0.5373 0.83743 0.18696 0.0
C130 C 0.53071 0.81241 0.1583 0.0
C131 C 0.58459 0.85344 0.17866 0.0
C132 C 0.5771 0.82778 0.15281 0.0
N133 N 0.53074 0.7514 0.00247 0.0
C134 C 0.49884 0.70633 0.95557 0.0
C135 C 0.52009 0.70514 0.93106 0.0
C136 C 0.54615 0.72843 0.93778 0.0
C137 C 0.5509 0.75127 0.9728 0.0
C138 C 0.50455 0.72979 0.9903 0.0
H139 H 0.57136 0.76801 0.97799 0.0
H140 H 0.48776 0.72959 0.00912 0.0
H141 H 0.50961 0.79709 0.15221 0.0
H142 H 0.5934 0.82473 0.14355 0.0
C143 C 0.6062 0.80509 0.05868 0.0
C144 C 0.54027 0.72781 0.17101 0.0
C145 C 0.53826 0.82637 0.95089 0.0
C146 C 0.47527 0.75569 0.08396 0.0
H147 H 0.59443 0.735 0.19258 0.0
H148 H 0.63078 0.77741 0.13184 0.0
H149 H 0.62989 0.85089 0.97614 0.0
H150 H 0.59293 0.86286 0.91955 0.0
H151 H 0.48306 0.81641 0.92523 0.0
H152 H 0.44859 0.77812 0.99801 0.0
H153 H 0.45261 0.71262 0.17421 0.0
H154 H 0.48845 0.6971 0.2203 0.0
H155 H 0.52095 0.8398 0.20197 0.0
H156 H 0.60607 0.86887 0.18382 0.0
H157 H 0.47814 0.68902 0.94957 0.0
H158 H 0.5633 0.72858 0.91941 0.0
C159 C 0.80647 0.54131 0.21797 0.0
C160 C 0.82996 0.56613 0.23703 0.0
C161 C 0.83258 0.58431 0.18864 0.0
C162 C 0.81073 0.56969 0.14276 0.0
N163 N 0.79437 0.54348 0.1594 0.0
Co164 Co 0.7613 0.51523 0.10546 0.0
N165 N 0.75862 0.54378 0.05016 0.0
C166 C 0.7787 0.57005 0.0458 0.0
C167 C 0.77111 0.58501 0.00312 0.0
C168 C 0.74469 0.56695 0.97844 0.0
C169 C 0.73771 0.54184 0.00729 0.0
N170 N 0.72831 0.48697 0.05128 0.0
C171 C 0.70992 0.48983 0.00846 0.0
C172 C 0.69028 0.46463 0.97964 0.0
C173 C 0.69677 0.44541 0.00508 0.0
C174 C 0.71994 0.45988 0.04775 0.0
N175 N 0.76414 0.4867 0.16041 0.0
C176 C 0.7516 0.45957 0.14567 0.0
C177 C 0.7568 0.44471 0.19364 0.0
C178 C 0.7739 0.46369 0.24131 0.0
C179 C 0.77845 0.48924 0.21935 0.0
N180 N 0.73798 0.51754 0.16459 0.0
C181 C 0.70754 0.52098 0.25746 0.0
C182 C 0.70135 0.49539 0.23215 0.0
C183 C 0.71685 0.49412 0.18609 0.0
C184 C 0.72875 0.54481 0.23354 0.0
C185 C 0.74354 0.54266 0.18703 0.0
N186 N 0.78481 0.51296 0.04664 0.0
C187 C 0.82597 0.51254 0.03042 0.0
C188 C 0.8196 0.51155 0.96279 0.0
C189 C 0.79513 0.51098 0.93839 0.0
C190 C 0.77821 0.51188 0.98088 0.0
C191 C 0.80829 0.51296 0.07118 0.0
H192 H 0.75982 0.5118 0.96026 0.0
H193 H 0.8139 0.51363 0.12275 0.0
H194 H 0.71205 0.47411 0.1689 0.0
H195 H 0.75983 0.56139 0.17009 0.0
C196 C 0.80281 0.58076 0.08862 0.0
C197 C 0.79811 0.51556 0.25323 0.0
C198 C 0.71199 0.51622 0.98923 0.0
C199 C 0.73192 0.44837 0.09168 0.0
H200 H 0.84408 0.57056 0.2807 0.0
H201 H 0.84819 0.6058 0.18782 0.0
H202 H 0.78306 0.60664 0.99252 0.0
H203 H 0.73215 0.57168 0.94276 0.0
H204 H 0.6733 0.46062 0.94326 0.0
H205 H 0.68553 0.42343 0.99489 0.0
H206 H 0.74838 0.42261 0.19493 0.0
H207 H 0.7822 0.45919 0.2868 0.0
H208 H 0.6852 0.47641 0.24925 0.0
H209 H 0.73397 0.56507 0.25069 0.0
H210 H 0.84475 0.51352 0.05222 0.0
H211 H 0.78887 0.5097 0.88676 0.0
C212 C 0.27597 0.82317 0.19547 0.0
C213 C 0.27247 0.84553 0.20572 0.0
C214 C 0.25123 0.84275 0.16202 0.0
C215 C 0.2427 0.81876 0.12821 0.0
N216 N 0.25704 0.80585 0.14816 0.0
Co217 Co 0.2498 0.76917 0.11619 0.0
N218 N 0.21782 0.76455 0.05389 0.0
C219 C 0.20941 0.78319 0.04104 0.0
C220 C 0.18636 0.77373 0.9972 0.0
C221 C 0.17928 0.74729 0.98224 0.0
C222 C 0.19839 0.74207 0.01835 0.0
N223 N 0.24205 0.73215 0.08513 0.0
C224 C 0.21986 0.71246 0.048 0.0
C225 C 0.22132 0.68856 0.0432 0.0
C226 C 0.2451 0.69324 0.07888 0.0
C227 C 0.25666 0.71949 0.10381 0.0
N228 N 0.2819 0.77393 0.17853 0.0
C229 C 0.29178 0.75631 0.18622 0.0
C230 C 0.3148 0.76551 0.22987 0.0
C231 C 0.32013 0.7906 0.25129 0.0
C232 C 0.29979 0.79525 0.21975 0.0
N233 N 0.22483 0.75069 0.18315 0.0
C234 C 0.1841 0.72017 0.26466 0.0
C235 C 0.20496 0.71413 0.2595 0.0
C236 C 0.2252 0.72976 0.219 0.0
C237 C 0.18459 0.74222 0.23005 0.0
C238 C 0.20497 0.75711 0.19047 0.0
N239 N 0.2745 0.78755 0.04759 0.0
C240 C 0.30805 0.79081 0.98019 0.0
C241 C 0.3053 0.8106 0.94212 0.0
C242 C 0.28793 0.81951 0.95949 0.0
C243 C 0.27317 0.80809 0.01213 0.0
C244 C 0.29247 0.77955 0.03225 0.0
H245 H 0.26075 0.81626 0.02268 0.0
H246 H 0.29518 0.76429 0.05888 0.0
H247 H 0.24061 0.72429 0.21623 0.0
H248 H 0.20365 0.77321 0.16465 0.0
C249 C 0.22122 0.80775 0.07762 0.0
C250 C 0.2989 0.8206 0.22861 0.0
C251 C 0.19627 0.71498 0.02046 0.0
C252 C 0.27936 0.73154 0.1507 0.0
H253 H 0.28446 0.86245 0.24038 0.0
H254 H 0.24307 0.85662 0.15548 0.0
H255 H 0.1752 0.78429 0.98073 0.0
H256 H 0.16148 0.73307 0.95032 0.0
H257 H 0.20635 0.6693 0.01875 0.0
H258 H 0.25233 0.67869 0.08841 0.0
H259 H 0.32659 0.75536 0.24368 0.0
H260 H 0.33737 0.804 0.28549 0.0
H261 H 0.20563 0.69744 0.28626 0.0
H262 H 0.16873 0.74754 0.23157 0.0
H263 H 0.32165 0.7836 0.96904 0.0
H264 H 0.28585 0.8355 0.93275 0.0
C265 C 0.50884 0.22249 0.27565 0.0
C266 C 0.53446 0.22963 0.3081 0.0
C267 C 0.55292 0.25325 0.28129 0.0
C268 C 0.53769 0.25911 0.23395 0.0
N269 N 0.51048 0.24098 0.22974 0.0
Co270 Co 0.4813 0.24024 0.16337 0.0
N271 N 0.50884 0.27308 0.11947 0.0
C272 C 0.53632 0.2867 0.13438 0.0
C273 C 0.54958 0.3098 0.09857 0.0
C274 C 0.52925 0.31152 0.05998 0.0
C275 C 0.50476 0.28933 0.07484 0.0
N276 N 0.45215 0.23953 0.09658 0.0
C277 C 0.45365 0.25922 0.05438 0.0
C278 C 0.42822 0.25212 0.02108 0.0
C279 C 0.40989 0.22737 0.04416 0.0
C280 C 0.42505 0.22084 0.09028 0.0
N281 N 0.45361 0.20743 0.20744 0.0
C282 C 0.42615 0.19354 0.19106 0.0
C283 C 0.41263 0.17101 0.22829 0.0
C284 C 0.43267 0.1701 0.27002 0.0
C285 C 0.45737 0.19214 0.25556 0.0
N286 N 0.47672 0.26553 0.2187 0.0
C287 C 0.46932 0.30453 0.28391 0.0
C288 C 0.44723 0.28134 0.25089 0.0
C289 C 0.45123 0.26201 0.2213 0.0
C290 C 0.49539 0.30741 0.2841 0.0
C291 C 0.49864 0.28805 0.25074 0.0
N292 N 0.48578 0.2148 0.10802 0.0
C293 C 0.46534 0.17112 0.0498 0.0
C294 C 0.49095 0.1737 0.04703 0.0
C295 C 0.5141 0.1979 0.0725 0.0
C296 C 0.51108 0.2182 0.10183 0.0
C297 C 0.46327 0.19169 0.07991 0.0
H298 H 0.52946 0.23616 0.12032 0.0
H299 H 0.44308 0.18785 0.08144 0.0
H300 H 0.43327 0.24465 0.19928 0.0
H301 H 0.51906 0.29186 0.25086 0.0
C302 C 0.54857 0.27968 0.18838 0.0
C303 C 0.48391 0.19696 0.28676 0.0
C304 C 0.47812 0.28603 0.05032 0.0
C305 C 0.414 0.20028 0.13604 0.0
H306 H 0.53954 0.2184 0.34546 0.0
H307 H 0.57497 0.26405 0.29271 0.0
H308 H 0.57127 0.32461 0.10308 0.0
H309 H 0.53197 0.32797 0.02718 0.0
H310 H 0.42304 0.26417 0.98645 0.0
H311 H 0.38786 0.21654 0.03235 0.0
H312 H 0.39092 0.15629 0.22369 0.0
H313 H 0.42955 0.15446 0.30562 0.0
H314 H 0.42658 0.27787 0.24614 0.0
H315 H 0.51339 0.32443 0.30952 0.0
H316 H 0.44674 0.15278 0.03088 0.0
H317 H 0.53446 0.20114 0.0701 0.0
C318 C 0.9897 0.43743 0.86042 0.0
C319 C 0.07074 0.49351 0.78426 0.0
C320 C 0.03943 0.56647 0.76371 0.0
Mg321 Mg 0.0121 0.45302 0.72557 0.0
O322 O 0.0033 0.48081 0.73606 0.0
Mg323 Mg 0.02026 0.50457 0.81686 0.0
Mg324 Mg 0.01177 0.51052 0.67122 0.0
O325 O 0.01966 0.54015 0.60741 0.0
Mg326 Mg 0.00967 0.56665 0.62319 0.0
Mg327 Mg 1.00226 0.51722 0.52553 0.0
C328 C 0.98452 0.45501 0.58103 0.0
C329 C 0.05543 0.51101 0.5765 0.0
O330 O 1.00042 0.46335 0.87332 0.0
O331 O 0.99132 0.42854 0.80601 0.0
O332 O 0.05976 0.50431 0.81369 0.0
O333 O 0.05657 0.47305 0.7447 0.0
O334 O 0.99285 0.44304 0.62479 0.0
O335 O 0.98654 0.47853 0.59126 0.0
C336 C 0.96656 0.50841 0.76209 0.0
O337 O 0.97373 0.51126 0.70446 0.0
O338 O 0.98092 0.50559 0.81093 0.0
O339 O 0.02303 0.55947 0.47307 0.0
O340 O 0.02908 0.5918 0.54491 0.0
O341 O 0.96264 0.51949 0.52315 0.0
C342 C 0.03198 0.58476 0.48974 0.0
O343 O 0.96618 0.54945 0.59635 0.0
O344 O 0.03015 0.57854 0.72291 0.0
C345 C 0.95225 0.53142 0.55104 0.0
O346 O 0.0368 0.5429 0.75124 0.0
O347 O 0.04994 0.50932 0.63572 0.0
O348 O 0.04052 0.51441 0.53007 0.0
C349 C 0.47655 0.02183 0.79373 0.0
C350 C 0.43781 0.94365 0.68259 0.0
C351 C 0.54265 0.97183 0.65506 0.0
Mg352 Mg 0.46009 0.00445 0.64682 0.0
O353 O 0.49546 0.00947 0.65915 0.0
Mg354 Mg 0.50501 0.98904 0.72882 0.0
Mg355 Mg 0.51277 0.00545 0.58637 0.0
O356 O 0.53199 0.00309 0.51509 0.0
Mg357 Mg 0.56973 0.01561 0.54105 0.0
Mg358 Mg 0.52454 0.02698 0.45075 0.0
C359 C 0.48545 0.04261 0.5256 0.0
C360 C 0.466 0.97166 0.46482 0.0
O361 O 0.49079 0.00958 0.7999 0.0
O362 O 0.46324 0.02216 0.73959 0.0
O363 O 0.46153 0.95129 0.71319 0.0
O364 O 0.43275 0.96034 0.64794 0.0
O365 O 0.46635 0.0314 0.563 0.0
O366 O 0.50536 0.03755 0.53022 0.0
C367 C 0.56158 0.0427 0.69977 0.0
O368 O 0.55343 0.03896 0.63906 0.0
O369 O 0.547 0.02675 0.74192 0.0
O370 O 0.54497 0.01284 0.38116 0.0
O371 O 0.57505 0.00543 0.44842 0.0
O372 O 0.56599 0.06511 0.47318 0.0
C373 C 0.56382 0.00621 0.3916 0.0
O374 O 0.59663 0.0609 0.5418 0.0
O375 O 0.56287 0.98612 0.6216 0.0
C376 C 0.58987 0.07566 0.50414 0.0
O377 O 0.52095 0.97415 0.64779 0.0
O378 O 0.47119 0.97187 0.52707 0.0
O379 O 0.48355 0.98953 0.43025 0.0
C380 C 0.53893 0.57406 0.42817 0.0
C381 C 0.57815 0.52799 0.51836 0.0
C382 C 0.46944 0.44694 0.54261 0.0
Mg383 Mg 0.55477 0.56249 0.57045 0.0
O384 O 0.51974 0.53157 0.55609 0.0
Mg385 Mg 0.51081 0.50704 0.47946 0.0
Mg386 Mg 0.50176 0.50425 0.62404 0.0
O387 O 0.48348 0.47743 0.69337 0.0
Mg388 Mg 0.44701 0.44892 0.68119 0.0
Mg389 Mg 0.49464 0.50243 0.77096 0.0
C390 C 0.53082 0.56291 0.70441 0.0
C391 C 0.55038 0.50649 0.73103 0.0
O392 O 0.52582 0.54776 0.41643 0.0
O393 O 0.55103 0.58422 0.48475 0.0
O394 O 0.55413 0.51219 0.48958 0.0
O395 O 0.58303 0.54795 0.55594 0.0
O396 O 0.5489 0.57473 0.6644 0.0
O397 O 0.51098 0.53805 0.69558 0.0
C398 C 0.45506 0.50265 0.51432 0.0
O399 O 0.46112 0.50218 0.57584 0.0
O400 O 0.47053 0.50358 0.47358 0.0
O401 O 0.47944 0.46236 0.83283 0.0
O402 O 0.4522 0.4267 0.76317 0.0
O403 O 0.4522 0.49948 0.76985 0.0
C404 C 0.4653 0.43628 0.81935 0.0
O405 O 0.41962 0.46334 0.70995 0.0
O406 O 0.45134 0.43778 0.58323 0.0
C407 C 0.42703 0.48394 0.74816 0.0
O408 O 0.49231 0.46987 0.55238 0.0
O409 O 0.5427 0.50667 0.67036 0.0
O410 O 0.53553 0.50509 0.77405 0.0
H411 H 0.13864 0.49267 0.31766 0.0
H412 H 0.20287 0.50597 0.47271 0.0
H413 H 0.17551 0.50933 0.55187 0.0
H414 H 0.12307 0.54179 0.37949 0.0
H415 H 0.08697 0.52143 0.35291 0.0
H416 H 0.11134 0.51899 0.30956 0.0
H417 H 0.08645 0.46613 0.32524 0.0
H418 H 0.06212 0.46848 0.36897 0.0
H419 H 0.0814 0.45286 0.4059 0.0
H420 H 0.13965 0.51149 0.61606 0.0
H421 H 0.101 0.51426 0.65366 0.0
H422 H 0.0626 0.50141 0.45488 0.0
C423 C 0.14729 0.49657 0.36801 0.0
C424 C 0.17311 0.49878 0.38809 0.0
C425 C 0.183 0.5035 0.45531 0.0
C426 C 0.16763 0.50567 0.50099 0.0
C427 C 0.14229 0.50333 0.47931 0.0
C428 C 0.13237 0.49907 0.41413 0.0
C429 C 0.10497 0.49796 0.40244 0.0
C430 C 0.10671 0.52144 0.35852 0.0
C431 C 0.08241 0.46967 0.37397 0.0
C432 C 0.10095 0.50223 0.47098 0.0
C433 C 0.12249 0.50517 0.51516 0.0
C434 C 0.12277 0.50928 0.5815 0.0
C435 C 0.10067 0.51073 0.60267 0.0
C436 C 0.07867 0.50825 0.55762 0.0
C437 C 0.07905 0.5037 0.4911 0.0
H438 H 0.73349 0.18722 0.38042 0.0
H439 H 0.68048 0.19462 0.22149 0.0
H440 H 0.64118 0.16926 0.28282 0.0
H441 H 0.68297 0.11444 0.39186 0.0
H442 H 0.69152 0.11303 0.47781 0.0
H443 H 0.71716 0.13729 0.42952 0.0
H444 H 0.72557 0.17695 0.50574 0.0
H445 H 0.69946 0.1528 0.55334 0.0
H446 H 0.69733 0.18177 0.51856 0.0
H447 H 0.60858 0.14696 0.36363 0.0
H448 H 0.57862 0.11096 0.43257 0.0
H449 H 0.64765 0.10326 0.52366 0.0
C450 C 0.71362 0.18357 0.35863 0.0
C451 C 0.71065 0.19489 0.29766 0.0
C452 C 0.68392 0.18824 0.26992 0.0
C453 C 0.66133 0.17365 0.30431 0.0
C454 C 0.66512 0.16379 0.36485 0.0
C455 C 0.69013 0.16686 0.39006 0.0
C456 C 0.68681 0.14861 0.44881 0.0
C457 C 0.6951 0.12706 0.43625 0.0
C458 C 0.70328 0.16609 0.51026 0.0
C459 C 0.65607 0.13515 0.45247 0.0
C460 C 0.64459 0.14562 0.40535 0.0
C461 C 0.61709 0.13794 0.39955 0.0
C462 C 0.60023 0.11741 0.43948 0.0
C463 C 0.6104 0.1034 0.48257 0.0
C464 C 0.63909 0.11332 0.49122 0.0
H465 H 0.56172 0.7196 0.29088 0.0
H466 H 0.5132 0.67679 0.11236 0.0
H467 H 0.50875 0.63297 0.15596 0.0
H468 H 0.59848 0.68178 0.31931 0.0
H469 H 0.59819 0.6814 0.40599 0.0
H470 H 0.59776 0.70919 0.36012 0.0
H471 H 0.55355 0.69941 0.40688 0.0
H472 H 0.55391 0.67166 0.45303 0.0
H473 H 0.52408 0.66526 0.39827 0.0
H474 H 0.50922 0.59329 0.22126 0.0
H475 H 0.51347 0.56161 0.30219 0.0
H476 H 0.56207 0.63062 0.43791 0.0
C477 C 0.5503 0.70097 0.26103 0.0
C478 C 0.53794 0.70153 0.19805 0.0
C479 C 0.52288 0.67674 0.16059 0.0
C480 C 0.52031 0.65181 0.18498 0.0
C481 C 0.53287 0.6519 0.24718 0.0
C482 C 0.54754 0.67589 0.28471 0.0
C483 C 0.55867 0.67039 0.35037 0.0
C484 C 0.59014 0.68666 0.35946 0.0
C485 C 0.54684 0.67707 0.40538 0.0
C486 C 0.54793 0.63961 0.34423 0.0
C487 C 0.53315 0.62928 0.28432 0.0
C488 C 0.52086 0.60127 0.26819 0.0
C489 C 0.52346 0.58337 0.31455 0.0
C490 C 0.53824 0.59339 0.37672 0.0
C491 C 0.55078 0.62207 0.39094 0.0
H492 H 0.8342 0.49656 0.26303 0.0
H493 H 0.80356 0.53693 0.37393 0.0
H494 H 0.83713 0.54173 0.46836 0.0
H495 H 0.8475 0.4585 0.39944 0.0
H496 H 0.87782 0.46284 0.36911 0.0
H497 H 0.84982 0.46065 0.31345 0.0
H498 H 0.88289 0.50736 0.26519 0.0
H499 H 0.9109 0.50971 0.32067 0.0
H500 H 0.903 0.53721 0.31826 0.0
H501 H 0.87776 0.54642 0.54581 0.0
H502 H 0.92069 0.5498 0.59955 0.0
H503 H 0.9221 0.5034 0.43897 0.0
C504 C 0.83405 0.50565 0.30794 0.0
C505 C 0.81602 0.51585 0.31215 0.0
C506 C 0.81698 0.52857 0.37061 0.0
C507 C 0.83593 0.53135 0.42422 0.0
C508 C 0.85352 0.52105 0.41851 0.0
C509 C 0.85248 0.50819 0.36192 0.0
C510 C 0.87441 0.50014 0.36656 0.0
C511 C 0.86162 0.46866 0.36188 0.0
C512 C 0.89395 0.51447 0.31462 0.0
C513 C 0.88854 0.51116 0.43395 0.0
C514 C 0.87622 0.52308 0.46341 0.0
C515 C 0.88721 0.53663 0.52371 0.0
C516 C 0.9116 0.53838 0.55401 0.0
C517 C 0.92465 0.52648 0.52421 0.0
C518 C 0.91247 0.51224 0.46397 0.0
H519 H 0.3254 0.82984 0.35519 0.0
H520 H 0.32847 0.86833 0.16862 0.0
H521 H 0.36811 0.91145 0.21461 0.0
H522 H 0.34895 0.89053 0.45951 0.0
H523 H 0.37055 0.88276 0.51685 0.0
H524 H 0.34048 0.85523 0.47238 0.0
H525 H 0.37027 0.8375 0.43014 0.0
H526 H 0.40032 0.86492 0.47486 0.0
H527 H 0.3992 0.86075 0.38877 0.0
H528 H 0.40554 0.94977 0.27754 0.0
H529 H 0.44568 0.98123 0.34942 0.0
H530 H 0.42468 0.91857 0.49658 0.0
C531 C 0.33459 0.8474 0.32425 0.0
C532 C 0.32367 0.8459 0.25835 0.0
C533 C 0.33624 0.86918 0.21925 0.0
C534 C 0.35871 0.89375 0.245 0.0
C535 C 0.3689 0.89464 0.30978 0.0
C536 C 0.35782 0.87208 0.34885 0.0
C537 C 0.37477 0.87846 0.4153 0.0
C538 C 0.35765 0.87663 0.46919 0.0
C539 C 0.38686 0.85927 0.428 0.0
C540 C 0.39708 0.90812 0.40688 0.0
C541 C 0.39256 0.91685 0.34581 0.0
C542 C 0.40958 0.94312 0.32514 0.0
C543 C 0.43252 0.96083 0.36674 0.0
C544 C 0.43896 0.95233 0.42853 0.0
C545 C 0.4205 0.9257 0.44971 0.0
H546 H 0.50651 0.36001 0.32067 0.0
H547 H 0.42175 0.29574 0.32944 0.0
H548 H 0.41236 0.32889 0.37505 0.0
H549 H 0.51228 0.38627 0.47921 0.0
H550 H 0.53513 0.4217 0.46117 0.0
H551 H 0.5348 0.39438 0.41754 0.0
H552 H 0.52547 0.41443 0.30938 0.0
H553 H 0.52533 0.44153 0.35311 0.0
H554 H 0.49625 0.41947 0.29634 0.0
H555 H 0.41092 0.36734 0.4212 0.0
H556 H 0.41998 0.406 0.49089 0.0
H557 H 0.50679 0.44471 0.47145 0.0
C558 C 0.48591 0.35266 0.33181 0.0
C559 C 0.46466 0.32501 0.31724 0.0
C560 C 0.43825 0.31683 0.33491 0.0
C561 C 0.43259 0.3356 0.36185 0.0
C562 C 0.45365 0.36254 0.37362 0.0
C563 C 0.48002 0.37097 0.36143 0.0
C564 C 0.49954 0.40013 0.38825 0.0
C565 C 0.52174 0.40063 0.43962 0.0
C566 C 0.5124 0.42007 0.33348 0.0
C567 C 0.4799 0.40628 0.41841 0.0
C568 C 0.45343 0.38451 0.40704 0.0
C569 C 0.43156 0.38451 0.43081 0.0
C570 C 0.43696 0.40664 0.47039 0.0
C571 C 0.46412 0.4283 0.48729 0.0
C572 C 0.48579 0.42863 0.45887 0.0
H573 H 0.52347 0.86707 0.95056 0.0
H574 H 0.55111 0.82705 0.82871 0.0
H575 H 0.55482 0.85967 0.74176 0.0
H576 H 0.48157 0.87916 0.81431 0.0
H577 H 0.48896 0.91164 0.84811 0.0
H578 H 0.48796 0.88491 0.90095 0.0
H579 H 0.53703 0.91877 0.95354 0.0
H580 H 0.53831 0.9455 0.90044 0.0
H581 H 0.56431 0.93581 0.90298 0.0
H582 H 0.56022 0.89891 0.67301 0.0
H583 H 0.56066 0.93878 0.61784 0.0
H584 H 0.52451 0.95178 0.77595 0.0
C585 C 0.52985 0.86497 0.90508 0.0
C586 C 0.53735 0.84466 0.89665 0.0
C587 C 0.54559 0.84257 0.83648 0.0
C588 C 0.54774 0.86101 0.78683 0.0
C589 C 0.54084 0.88112 0.79705 0.0
C590 C 0.53137 0.88286 0.85388 0.0
C591 C 0.52473 0.90619 0.85088 0.0
C592 C 0.49398 0.8948 0.85374 0.0
C593 C 0.54214 0.92785 0.9052 0.0
C594 C 0.53281 0.91778 0.78438 0.0
C595 C 0.54226 0.90299 0.75481 0.0
C596 C 0.55246 0.91037 0.69518 0.0
C597 C 0.55281 0.93324 0.66441 0.0
C598 C 0.5426 0.94846 0.69228 0.0
C599 C 0.53225 0.94044 0.75311 0.0
H600 H 0.66099 0.50614 0.00533 0.0
H601 H 0.71603 0.52556 0.85976 0.0
H602 H 0.68059 0.52445 0.77502 0.0
H603 H 0.59933 0.45898 0.90583 0.0
H604 H 0.57838 0.46983 0.94015 0.0
H605 H 0.60818 0.47227 0.98811 0.0
H606 H 0.62708 0.52439 0.00939 0.0
H607 H 0.5973 0.52207 0.96174 0.0
H608 H 0.631 0.54666 0.94161 0.0
H609 H 0.63806 0.52122 0.70619 0.0
H610 H 0.59341 0.51696 0.66174 0.0
H611 H 0.56749 0.49939 0.85456 0.0
C612 C 0.6655 0.51026 0.95559 0.0
C613 C 0.69114 0.51631 0.93872 0.0
C614 C 0.69646 0.52127 0.87325 0.0
C615 C 0.67647 0.52057 0.825 0.0
C616 C 0.65126 0.51467 0.84316 0.0
C617 C 0.64581 0.5096 0.90702 0.0
C618 C 0.6173 0.50384 0.91439 0.0
C619 C 0.59977 0.47449 0.93853 0.0
C620 C 0.61824 0.52554 0.95943 0.0
C621 C 0.60757 0.50661 0.84496 0.0
C622 C 0.62724 0.51275 0.8042 0.0
C623 C 0.62252 0.51639 0.73783 0.0
C624 C 0.59711 0.5139 0.71291 0.0
C625 C 0.5769 0.50797 0.75445 0.0
C626 C 0.5824 0.50409 0.82112 0.0
H627 H 0.18587 0.68129 0.916 0.0
H628 H 0.14734 0.69387 0.06883 0.0
H629 H 0.10271 0.65414 0.02558 0.0
H630 H 0.13168 0.66309 0.79144 0.0
H631 H 0.13615 0.63733 0.75402 0.0
H632 H 0.16492 0.66576 0.79919 0.0
H633 H 0.17361 0.63158 0.87231 0.0
H634 H 0.14494 0.60324 0.82635 0.0
H635 H 0.14613 0.60531 0.91319 0.0
H636 H 0.06154 0.61581 0.95824 0.0
H637 H 0.02787 0.58121 0.87481 0.0
H638 H 0.09428 0.5912 0.77287 0.0
C639 C 0.16809 0.67525 0.94097 0.0
C640 C 0.16992 0.69024 0.9961 0.0
C641 C 0.14621 0.68236 0.02674 0.0
C642 C 0.12089 0.65985 0.00265 0.0
C643 C 0.11976 0.6453 0.9483 0.0
C644 C 0.14282 0.65257 0.91824 0.0
C645 C 0.13607 0.63419 0.8595 0.0
C646 C 0.14258 0.65111 0.79739 0.0
C647 C 0.15109 0.61759 0.86844 0.0
C648 C 0.10553 0.6157 0.8604 0.0
C649 C 0.0964 0.62245 0.91178 0.0
C650 C 0.06854 0.60988 0.91882 0.0
C651 C 0.04959 0.59024 0.87159 0.0
C652 C 0.05873 0.5831 0.81913 0.0
C653 C 0.08699 0.59567 0.81411 0.0
H654 H 0.46204 0.14258 0.93704 0.0
H655 H 0.52427 0.15286 0.0944 0.0
H656 H 0.52529 0.11278 0.05145 0.0
H657 H 0.42488 0.06853 0.93243 0.0
H658 H 0.41752 0.06601 0.84534 0.0
H659 H 0.42189 0.09548 0.8885 0.0
H660 H 0.46005 0.12819 0.81894 0.0
H661 H 0.45552 0.09886 0.77501 0.0
H662 H 0.48886 0.12322 0.81438 0.0
H663 H 0.51926 0.07119 0.98971 0.0
H664 H 0.50944 0.03457 0.91072 0.0
H665 H 0.45016 0.05143 0.79688 0.0
C666 C 0.4758 0.13635 0.96276 0.0
C667 C 0.49304 0.15083 0.01919 0.0
C668 C 0.51109 0.14227 0.05067 0.0
C669 C 0.51161 0.11937 0.027 0.0
C670 C 0.49395 0.10526 0.97182 0.0
C671 C 0.47655 0.11362 0.93992 0.0
C672 C 0.4601 0.09555 0.88073 0.0
C673 C 0.42927 0.0805 0.88718 0.0
C674 C 0.46653 0.11246 0.81861 0.0
C675 C 0.47096 0.07569 0.88402 0.0
C676 C 0.49038 0.08147 0.93697 0.0
C677 C 0.50395 0.06641 0.94832 0.0
C678 C 0.4981 0.04549 0.90334 0.0
C679 C 0.47889 0.03989 0.84755 0.0
C680 C 0.46476 0.05487 0.83913 0.0
H681 H 0.31255 0.45267 0.98415 0.0
H682 H 0.33672 0.53936 0.9709 0.0
H683 H 0.36772 0.54526 0.89119 0.0
H684 H 0.37828 0.46062 0.97067 0.0
H685 H 0.36556 0.42994 0.92127 0.0
H686 H 0.34436 0.43197 0.97624 0.0
H687 H 0.30626 0.42105 0.88115 0.0
H688 H 0.32743 0.4191 0.8258 0.0
H689 H 0.31404 0.44226 0.81062 0.0
H690 H 0.39912 0.54318 0.81849 0.0
H691 H 0.4275 0.53256 0.75654 0.0
H692 H 0.38186 0.44683 0.80799 0.0
C693 C 0.32406 0.47284 0.96395 0.0
C694 C 0.32218 0.49562 0.98551 0.0
C695 C 0.338 0.52161 0.9574 0.0
C696 C 0.35562 0.52518 0.91121 0.0
C697 C 0.35728 0.50255 0.89197 0.0
C698 C 0.34181 0.47679 0.91701 0.0
C699 C 0.34807 0.4561 0.88857 0.0
C700 C 0.35976 0.44394 0.94239 0.0
C701 C 0.32242 0.43327 0.8492 0.0
C702 C 0.36967 0.47433 0.8445 0.0
C703 C 0.37463 0.50109 0.84741 0.0
C704 C 0.39498 0.52217 0.81484 0.0
C705 C 0.41096 0.51595 0.77938 0.0
C706 C 0.4064 0.48874 0.77529 0.0
C707 C 0.38515 0.46761 0.80784 0.0
H708 H 0.85885 0.29906 0.9543 0.0
H709 H 0.86935 0.33862 0.13859 0.0
H710 H 0.91268 0.37868 0.11061 0.0
H711 H 0.93172 0.32336 0.94479 0.0
H712 H 0.92883 0.32819 0.85852 0.0
H713 H 0.89982 0.30204 0.89529 0.0
H714 H 0.87051 0.32335 0.84575 0.0
H715 H 0.89936 0.34948 0.80877 0.0
H716 H 0.8824 0.35926 0.8614 0.0
H717 H 0.95331 0.41557 0.05892 0.0
H718 H 0.98725 0.44683 0.98752 0.0
H719 H 0.95068 0.38283 0.83691 0.0
C720 C 0.87066 0.31598 0.98908 0.0
C721 C 0.86124 0.31573 0.04911 0.0
C722 C 0.8766 0.33845 0.09283 0.0
C723 C 0.90118 0.36119 0.0773 0.0
C724 C 0.91005 0.36086 0.01769 0.0
C725 C 0.89525 0.33882 0.97427 0.0
C726 C 0.90849 0.34418 0.91213 0.0
C727 C 0.91777 0.3232 0.90211 0.0
C728 C 0.88903 0.34407 0.85357 0.0
C729 C 0.93284 0.37284 0.92684 0.0
C730 C 0.93346 0.38203 0.98811 0.0
C731 C 0.95319 0.40844 0.01116 0.0
C732 C 0.97244 0.42607 0.97018 0.0
C733 C 0.97195 0.41732 0.90666 0.0
C734 C 0.95208 0.39008 0.88552 0.0
H735 H 0.85288 0.4883 0.98225 0.0
H736 H 0.82992 0.5351 0.84257 0.0
H737 H 0.86199 0.53594 0.77115 0.0
H738 H 0.92379 0.5265 0.96643 0.0
H739 H 0.92884 0.49719 0.9769 0.0
H740 H 0.90201 0.49786 0.01354 0.0
H741 H 0.86643 0.45147 0.95517 0.0
H742 H 0.89319 0.45075 0.91808 0.0
H743 H 0.8638 0.44844 0.86821 0.0
H744 H 0.89852 0.53314 0.71609 0.0
H745 H 0.93782 0.52955 0.68769 0.0
H746 H 0.93827 0.48741 0.86669 0.0
C747 C 0.85452 0.49886 0.93686 0.0
C748 C 0.8385 0.51147 0.91837 0.0
C749 C 0.84134 0.52469 0.85773 0.0
C750 C 0.85969 0.52544 0.81677 0.0
C751 C 0.87528 0.51303 0.837 0.0
C752 C 0.87295 0.50013 0.89587 0.0
C753 C 0.89317 0.48983 0.90846 0.0
C754 C 0.91313 0.50368 0.96996 0.0
C755 C 0.87825 0.45825 0.91271 0.0
C756 C 0.90755 0.4993 0.84796 0.0
C757 C 0.89673 0.51228 0.80672 0.0
C758 C 0.90709 0.52298 0.74814 0.0
C759 C 0.92938 0.5208 0.73211 0.0
C760 C 0.94131 0.50841 0.77476 0.0
C761 C 0.92982 0.49721 0.83296 0.0
H762 H 0.36025 0.83214 0.93569 0.0
H763 H 0.28483 0.81719 0.82137 0.0
H764 H 0.31079 0.84327 0.73155 0.0
H765 H 0.39832 0.89925 0.89671 0.0
H766 H 0.42996 0.89933 0.89326 0.0
H767 H 0.40514 0.87491 0.9426 0.0
H768 H 0.40436 0.83489 0.882 0.0
H769 H 0.42918 0.85936 0.83215 0.0
H770 H 0.39705 0.83185 0.79489 0.0
H771 H 0.34509 0.87722 0.66255 0.0
H772 H 0.38499 0.91708 0.62182 0.0
H773 H 0.43831 0.90934 0.7793 0.0
C774 C 0.34918 0.83351 0.89076 0.0
C775 C 0.32056 0.82254 0.8852 0.0
C776 C 0.30678 0.82547 0.82651 0.0
C777 C 0.32133 0.84007 0.77507 0.0
C778 C 0.34967 0.85147 0.78274 0.0
C779 C 0.36347 0.84817 0.83896 0.0
C780 C 0.39418 0.86529 0.83813 0.0
C781 C 0.40767 0.88592 0.89607 0.0
C782 C 0.40694 0.84673 0.83668 0.0
C783 C 0.39545 0.87981 0.77443 0.0
C784 C 0.36959 0.87114 0.7425 0.0
C785 C 0.36549 0.88376 0.68634 0.0
C786 C 0.38829 0.90643 0.66354 0.0
C787 C 0.41484 0.91632 0.69704 0.0
C788 C 0.4184 0.90204 0.7517 0.0
H789 H 0.46196 0.29679 0.9282 0.0
H790 H 0.4906 0.33081 0.12399 0.0
H791 H 0.48897 0.37285 0.08836 0.0
H792 H 0.49827 0.35905 0.84581 0.0
H793 H 0.47106 0.35085 0.78095 0.0
H794 H 0.47415 0.3236 0.82276 0.0
H795 H 0.4242 0.3019 0.85002 0.0
H796 H 0.42097 0.32912 0.80824 0.0
H797 H 0.41421 0.32253 0.89153 0.0
H798 H 0.48634 0.41227 0.02855 0.0
H799 H 0.48169 0.44484 0.95095 0.0
H800 H 0.45206 0.38309 0.7966 0.0
C801 C 0.46743 0.31294 0.9636 0.0
C802 C 0.47604 0.31061 0.02884 0.0
C803 C 0.48377 0.33234 0.07378 0.0
C804 C 0.48286 0.35618 0.05401 0.0
C805 C 0.47402 0.3578 0.98922 0.0
C806 C 0.46627 0.33664 0.94486 0.0
C807 C 0.45777 0.34346 0.87805 0.0
C808 C 0.47643 0.34429 0.82903 0.0
C809 C 0.42749 0.32304 0.85566 0.0
C810 C 0.46225 0.37189 0.89139 0.0
C811 C 0.47172 0.37993 0.95565 0.0
C812 C 0.4786 0.40603 0.97828 0.0
C813 C 0.47591 0.4244 0.93389 0.0
C814 C 0.46619 0.41647 0.86782 0.0
C815 C 0.45905 0.38971 0.84694 0.0
H816 H 0.20054 0.4868 0.92764 0.0
H817 H 0.20975 0.5541 0.04408 0.0
H818 H 0.18529 0.56576 0.95638 0.0
H819 H 0.18369 0.50874 0.75561 0.0
H820 H 0.15528 0.47449 0.73743 0.0
H821 H 0.18555 0.47933 0.78825 0.0
H822 H 0.15588 0.45157 0.87923 0.0
H823 H 0.12592 0.44637 0.82769 0.0
H824 H 0.13329 0.46187 0.90727 0.0
H825 H 0.15292 0.56526 0.87286 0.0
H826 H 0.10574 0.54621 0.82288 0.0
H827 H 0.10353 0.47028 0.77502 0.0
C828 C 0.19831 0.5047 0.93305 0.0
C829 C 0.20906 0.5208 0.9912 0.0
C830 C 0.20414 0.54291 0.9984 0.0
C831 C 0.18982 0.54954 0.94856 0.0
C832 C 0.17833 0.53252 0.89334 0.0
C833 C 0.18133 0.50973 0.8864 0.0
C834 C 0.15919 0.48943 0.83599 0.0
C835 C 0.17168 0.48792 0.77574 0.0
C836 C 0.14261 0.46064 0.86432 0.0
C837 C 0.14203 0.50327 0.82063 0.0
C838 C 0.15496 0.52912 0.85022 0.0
C839 C 0.14262 0.54521 0.84895 0.0
C840 C 0.11562 0.53398 0.82108 0.0
C841 C 0.1008 0.50645 0.79676 0.0
C842 C 0.11454 0.49139 0.79314 0.0
H843 H 0.66095 0.16484 0.94676 0.0
H844 H 0.72899 0.16781 0.86366 0.0
H845 H 0.69655 0.13437 0.77802 0.0
H846 H 0.61832 0.09378 0.92893 0.0
H847 H 0.58708 0.09503 0.91065 0.0
H848 H 0.6158 0.12204 0.95938 0.0
H849 H 0.61479 0.15839 0.87948 0.0
H850 H 0.58601 0.13138 0.83046 0.0
H851 H 0.61652 0.15492 0.79455 0.0
H852 H 0.65635 0.09724 0.70774 0.0
H853 H 0.61162 0.05863 0.66135 0.0
H854 H 0.57058 0.07927 0.79328 0.0
C855 C 0.66912 0.1586 0.91046 0.0
C856 C 0.69753 0.169 0.91192 0.0
C857 C 0.70733 0.16049 0.86297 0.0
C858 C 0.68906 0.14143 0.81423 0.0
C859 C 0.66113 0.13119 0.81513 0.0
C860 C 0.65123 0.13951 0.86202 0.0
C861 C 0.62032 0.12386 0.85563 0.0
C862 C 0.60978 0.10772 0.91729 0.0
C863 C 0.60873 0.1433 0.83902 0.0
C864 C 0.61435 0.10481 0.79905 0.0
C865 C 0.63808 0.10963 0.77543 0.0
C866 C 0.63762 0.09363 0.72499 0.0
C867 C 0.61221 0.07197 0.6985 0.0
C868 C 0.58791 0.06663 0.72296 0.0
C869 C 0.58901 0.08329 0.77349 0.0
H870 H 0.54156 0.6997 0.82575 0.0
H871 H 0.49047 0.65272 0.97483 0.0
H872 H 0.48946 0.61086 0.93704 0.0
H873 H 0.51155 0.64636 0.70167 0.0
H874 H 0.54403 0.6566 0.67346 0.0
H875 H 0.5386 0.68181 0.71001 0.0
H876 H 0.58149 0.69498 0.79303 0.0
H877 H 0.58662 0.6693 0.75771 0.0
H878 H 0.58325 0.66873 0.84298 0.0
H879 H 0.49493 0.5745 0.88331 0.0
H880 H 0.50383 0.54599 0.81335 0.0
H881 H 0.55456 0.6186 0.70713 0.0
C882 C 0.53005 0.6806 0.85035 0.0
C883 C 0.51608 0.67939 0.90307 0.0
C884 C 0.50095 0.65395 0.93353 0.0
C885 C 0.50055 0.63019 0.913 0.0
C886 C 0.51554 0.63244 0.86248 0.0
C887 C 0.52983 0.65696 0.83135 0.0
C888 C 0.54469 0.65422 0.77917 0.0
C889 C 0.53407 0.66008 0.71212 0.0
C890 C 0.57586 0.67292 0.79416 0.0
C891 C 0.53646 0.62422 0.78552 0.0
C892 C 0.51962 0.61194 0.83367 0.0
C893 C 0.50826 0.58393 0.84577 0.0
C894 C 0.51351 0.56791 0.8059 0.0
C895 C 0.53005 0.58007 0.75504 0.0
C896 C 0.5423 0.60873 0.74638 0.0
H897 H 0.47538 0.14562 0.25733 0.0
H898 H 0.49586 0.20242 0.41764 0.0
H899 H 0.5009 0.16973 0.49383 0.0
H900 H 0.43523 0.08353 0.34378 0.0
H901 H 0.44653 0.0633 0.30534 0.0
H902 H 0.44522 0.09141 0.26309 0.0
H903 H 0.49638 0.11303 0.24675 0.0
H904 H 0.49791 0.08509 0.28942 0.0
H905 H 0.52143 0.1202 0.31632 0.0
H906 H 0.50388 0.13194 0.55183 0.0
H907 H 0.50121 0.08876 0.59194 0.0
H908 H 0.4779 0.05464 0.39582 0.0
C909 C 0.48086 0.15097 0.30858 0.0
C910 C 0.48553 0.17651 0.33211 0.0
C911 C 0.49245 0.18298 0.39918 0.0
C912 C 0.49542 0.16462 0.44252 0.0
C913 C 0.49115 0.13979 0.41792 0.0
C914 C 0.48375 0.13271 0.35273 0.0
C915 C 0.47956 0.10421 0.33986 0.0
C916 C 0.44987 0.08444 0.31134 0.0
C917 C 0.50004 0.10574 0.29545 0.0
C918 C 0.48564 0.09637 0.40815 0.0
C919 C 0.49251 0.11745 0.45202 0.0
C920 C 0.49858 0.11531 0.51806 0.0
C921 C 0.49707 0.09078 0.54031 0.0
C922 C 0.48954 0.06865 0.49687 0.0
C923 C 0.48404 0.07148 0.42973 0.0
H924 H 0.29702 0.44721 0.39365 0.0
H925 H 0.32682 0.49035 0.21773 0.0
H926 H 0.37407 0.50476 0.26388 0.0
H927 H 0.34588 0.4918 0.50312 0.0
H928 H 0.35125 0.46857 0.55734 0.0
H929 H 0.31873 0.45674 0.50883 0.0
H930 H 0.32192 0.41717 0.45776 0.0
H931 H 0.3537 0.42782 0.50885 0.0
H932 H 0.35233 0.42484 0.42226 0.0
H933 H 0.41573 0.52587 0.33827 0.0
H934 H 0.4548 0.53545 0.41855 0.0
H935 H 0.40083 0.47204 0.54186 0.0
C936 C 0.31341 0.45804 0.36353 0.0
C937 C 0.30866 0.46774 0.3023 0.0
C938 C 0.33036 0.48261 0.26438 0.0
C939 C 0.35719 0.49124 0.2906 0.0
C940 C 0.36156 0.48368 0.35349 0.0
C941 C 0.34046 0.46593 0.38813 0.0
C942 C 0.35157 0.4612 0.45486 0.0
C943 C 0.34123 0.47011 0.50922 0.0
C944 C 0.34447 0.43096 0.4613 0.0
C945 C 0.38205 0.48022 0.45292 0.0
C946 C 0.38688 0.49359 0.39455 0.0
C947 C 0.41254 0.51454 0.3828 0.0
C948 C 0.43448 0.52009 0.42922 0.0
C949 C 0.43083 0.5038 0.48511 0.0
C950 C 0.40415 0.48454 0.49917 0.0
H951 H 0.88611 0.31859 0.37976 0.0
H952 H 0.86946 0.3682 0.23572 0.0
H953 H 0.90762 0.41038 0.28992 0.0
H954 H 0.89906 0.35847 0.51074 0.0
H955 H 0.92674 0.35458 0.55203 0.0
H956 H 0.90138 0.32823 0.49589 0.0
H957 H 0.93933 0.33253 0.4302 0.0
H958 H 0.96495 0.3589 0.48662 0.0
H959 H 0.96323 0.3657 0.40119 0.0
H960 H 0.94086 0.44661 0.37077 0.0
H961 H 0.96918 0.47415 0.46848 0.0
H962 H 0.96693 0.40119 0.55448 0.0
C963 C 0.89109 0.33825 0.35831 0.0
C964 C 0.87458 0.34012 0.30423 0.0
C965 C 0.88146 0.3663 0.27819 0.0
C966 C 0.90331 0.39039 0.30807 0.0
C967 C 0.91852 0.3879 0.36291 0.0
C968 C 0.91307 0.36248 0.38705 0.0
C969 C 0.9309 0.36552 0.44981 0.0
C970 C 0.91347 0.35085 0.50535 0.0
C971 C 0.95079 0.35505 0.44143 0.0
C972 C 0.94591 0.39648 0.45917 0.0
C973 C 0.9388 0.4091 0.40819 0.0
C974 C 0.94737 0.43715 0.41006 0.0
C975 C 0.96339 0.45264 0.46593 0.0
C976 C 0.97067 0.43999 0.51886 0.0
C977 C 0.96231 0.4117 0.51435 0.0
H978 H 0.53153 0.88286 0.17509 0.0
H979 H 0.6133 0.9005 0.25507 0.0
H980 H 0.62502 0.94743 0.28226 0.0
H981 H 0.54839 0.95445 0.12552 0.0
H982 H 0.51799 0.95052 0.15459 0.0
H983 H 0.51793 0.92105 0.12225 0.0
H984 H 0.50259 0.89494 0.22875 0.0
H985 H 0.50204 0.92398 0.2603 0.0
H986 H 0.52236 0.91093 0.30499 0.0
H987 H 0.62663 0.98913 0.31623 0.0
H988 H 0.61499 0.01762 0.37771 0.0
H989 H 0.53084 0.97209 0.2896 0.0
C990 C 0.552 0.89644 0.19805 0.0
C991 C 0.57154 0.88766 0.21139 0.0
C992 C 0.59807 0.90657 0.24152 0.0
C993 C 0.60504 0.93352 0.25721 0.0
C994 C 0.58523 0.94133 0.24369 0.0
C995 C 0.55903 0.92314 0.21619 0.0
C996 C 0.53997 0.93456 0.21957 0.0
C997 C 0.53052 0.9405 0.15142 0.0
C998 C 0.51532 0.91496 0.25559 0.0
C999 C 0.55911 0.96108 0.25793 0.0
C1000 C 0.5855 0.96523 0.2679 0.0
C1001 C 0.60623 0.98642 0.30795 0.0
C1002 C 0.59943 0.00249 0.34268 0.0
C1003 C 0.57205 0.99687 0.33802 0.0
C1004 C 0.55201 0.97712 0.29236 0.0
H1005 H 0.6519 0.49238 0.26603 0.0
H1006 H 0.72927 0.5542 0.36663 0.0
H1007 H 0.70479 0.55892 0.45143 0.0
H1008 H 0.61445 0.52493 0.29358 0.0
H1009 H 0.58313 0.4935 0.30432 0.0
H1010 H 0.60696 0.49323 0.25499 0.0
H1011 H 0.60883 0.45481 0.32533 0.0
H1012 H 0.58513 0.45522 0.37515 0.0
H1013 H 0.61782 0.46032 0.4118 0.0
H1014 H 0.67169 0.55911 0.52201 0.0
H1015 H 0.63251 0.55688 0.56818 0.0
H1016 H 0.57666 0.49472 0.42226 0.0
C1017 C 0.66372 0.50654 0.30653 0.0
C1018 C 0.69256 0.52291 0.30959 0.0
C1019 C 0.70718 0.54163 0.36279 0.0
C1020 C 0.69347 0.54427 0.41158 0.0
C1021 C 0.66505 0.52801 0.40685 0.0
C1022 C 0.65031 0.50953 0.3556 0.0
C1023 C 0.61977 0.49596 0.35959 0.0
C1024 C 0.60524 0.5023 0.29958 0.0
C1025 C 0.60715 0.46472 0.36851 0.0
C1026 C 0.61965 0.51012 0.42025 0.0
C1027 C 0.64597 0.52826 0.44731 0.0
C1028 C 0.65098 0.54477 0.50155 0.0
C1029 C 0.62856 0.54333 0.52759 0.0
C1030 C 0.60139 0.52561 0.4992 0.0
C1031 C 0.59706 0.50828 0.44588 0.0
H1032 H 0.15555 0.66362 0.27591 0.0
H1033 H 0.161 0.73905 0.34208 0.0
H1034 H 0.11949 0.71179 0.39593 0.0
H1035 H 0.08223 0.62331 0.24707 0.0
H1036 H 0.08025 0.5919 0.27799 0.0
H1037 H 0.11022 0.61701 0.24256 0.0
H1038 H 0.14113 0.61949 0.34765 0.0
H1039 H 0.1113 0.59393 0.38263 0.0
H1040 H 0.13369 0.62659 0.42425 0.0
H1041 H 0.07765 0.67736 0.4407 0.0
H1042 H 0.04125 0.63725 0.48966 0.0
H1043 H 0.06309 0.58341 0.39946 0.0
C1044 C 0.14822 0.67437 0.30249 0.0
C1045 C 0.16129 0.70349 0.30387 0.0
C1046 C 0.15098 0.71678 0.33905 0.0
C1047 C 0.12741 0.70149 0.36979 0.0
C1048 C 0.11449 0.6729 0.36557 0.0
C1049 C 0.12473 0.65938 0.3341 0.0
C1050 C 0.1074 0.62839 0.33984 0.0
C1051 C 0.09425 0.61433 0.27287 0.0
C1052 C 0.12439 0.6164 0.37576 0.0
C1053 C 0.08604 0.62676 0.38 0.0
C1054 C 0.09038 0.65274 0.39323 0.0
C1055 C 0.074 0.65688 0.43084 0.0
C1056 C 0.05332 0.63395 0.45824 0.0
C1057 C 0.04932 0.60723 0.44833 0.0
C1058 C 0.06536 0.60352 0.40698 0.0
loop_
_geom_bond_atom_site_label_1
_geom_bond_atom_site_label_2
_geom_bond_distance
_geom_bond_site_symmetry_2
_ccdc_geom_bond_type
C0 C1 1.443 . S
C0 N4 1.376 . S
C0 C38 1.389 . S
C1 C0 1.443 . S
C1 C2 1.340 . S
C1 H41 0.951 . S
C2 C1 1.340 . S
C2 C3 1.439 . S
C2 H42 0.950 . S
C3 C2 1.439 . S
C3 N4 1.374 . S
C3 C37 1.395 . S
N4 C0 1.376 . S
N4 C3 1.374 . S
N4 Co5 2.008 . S
Co5 N4 2.008 . S
Co5 N6 1.995 . S
Co5 N11 2.008 . S
Co5 N16 1.995 . S
Co5 N21 2.282 . S
Co5 N27 2.282 . S
N6 Co5 1.995 . S
N6 C7 1.376 . S
N6 C10 1.383 . S
C7 N6 1.376 . S
C7 C8 1.446 . S
C7 C37 1.391 . S
C8 C7 1.446 . S
C8 C9 1.339 . S
C8 H43 0.949 . S
C9 C8 1.339 . S
C9 C10 1.439 . S
C9 H44 0.950 . S
C10 N6 1.383 . S
C10 C9 1.439 . S
C10 C39 1.392 . S
N11 Co5 2.008 . S
N11 C12 1.376 . S
N11 C15 1.374 . S
C12 N11 1.376 . S
C12 C13 1.443 . S
C12 C39 1.389 . S
C13 C12 1.443 . S
C13 C14 1.340 . S
C13 H45 0.951 . S
C14 C13 1.340 . S
C14 C15 1.439 . S
C14 H46 0.950 . S
C15 N11 1.374 . S
C15 C14 1.439 . S
C15 C40 1.395 . S
N16 Co5 1.995 . S
N16 C17 1.376 . S
N16 C20 1.383 . S
C17 N16 1.376 . S
C17 C18 1.446 . S
C17 C40 1.391 . S
C18 C17 1.446 . S
C18 C19 1.339 . S
C18 H47 0.949 . S
C19 C18 1.339 . S
C19 C20 1.439 . S
C19 H48 0.950 . S
C20 N16 1.383 . S
C20 C19 1.439 . S
C20 C38 1.392 . S
N21 Co5 2.282 . S
N21 C24 1.332 . S
N21 C26 1.332 . S
C22 C23 1.386 . S
C22 C25 1.388 . S
C23 C22 1.386 . S
C23 C24 1.382 . S
C23 H49 0.950 . S
C24 N21 1.332 . S
C24 C23 1.382 . S
C24 H35 0.952 . S
C25 C22 1.388 . S
C25 C26 1.382 . S
C25 H50 0.950 . S
C26 N21 1.332 . S
C26 C25 1.382 . S
C26 H36 0.948 . S
N27 Co5 2.282 . S
N27 C31 1.332 . S
N27 C32 1.332 . S
C28 C29 1.388 . S
C28 C32 1.382 . S
C28 H51 0.950 . S
C29 C28 1.388 . S
C29 C30 1.386 . S
C30 C29 1.386 . S
C30 C31 1.382 . S
C30 H52 0.950 . S
C31 N27 1.332 . S
C31 C30 1.382 . S
C31 H33 0.952 . S
C32 N27 1.332 . S
C32 C28 1.382 . S
C32 H34 0.948 . S
H33 C31 0.952 . S
H34 C32 0.948 . S
H35 C24 0.952 . S
H36 C26 0.948 . S
C37 C3 1.395 . S
C37 C7 1.391 . S
C38 C0 1.389 . S
C38 C20 1.392 . S
C39 C10 1.392 . S
C39 C12 1.389 . S
C40 C15 1.395 . S
C40 C17 1.391 . S
H41 C1 0.951 . S
H42 C2 0.950 . S
H43 C8 0.949 . S
H44 C9 0.950 . S
H45 C13 0.951 . S
H46 C14 0.950 . S
H47 C18 0.949 . S
H48 C19 0.950 . S
H49 C23 0.950 . S
H50 C25 0.950 . S
H51 C28 0.950 . S
H52 C30 0.950 . S
C53 C54 1.443 . S
C53 N57 1.376 . S
C53 C91 1.389 . S
C54 C53 1.443 . S
C54 C55 1.340 . S
C54 H94 0.951 . S
C55 C54 1.340 . S
C55 C56 1.439 . S
C55 H95 0.950 . S
C56 C55 1.439 . S
C56 N57 1.374 . S
C56 C90 1.395 . S
N57 C53 1.376 . S
N57 C56 1.374 . S
N57 Co58 2.008 . S
Co58 N57 2.008 . S
Co58 N59 1.995 . S
Co58 N64 2.008 . S
Co58 N69 1.995 . S
Co58 N74 2.282 . S
Co58 N80 2.282 . S
N59 Co58 1.995 . S
N59 C60 1.376 . S
N59 C63 1.383 . S
C60 N59 1.376 . S
C60 C61 1.446 . S
C60 C90 1.391 . S
C61 C60 1.446 . S
C61 C62 1.339 . S
C61 H96 0.949 . S
C62 C61 1.339 . S
C62 C63 1.439 . S
C62 H97 0.950 . S
C63 N59 1.383 . S
C63 C62 1.439 . S
C63 C92 1.392 . S
N64 Co58 2.008 . S
N64 C65 1.376 . S
N64 C68 1.374 . S
C65 N64 1.376 . S
C65 C66 1.443 . S
C65 C92 1.389 . S
C66 C65 1.443 . S
C66 C67 1.340 . S
C66 H98 0.951 . S
C67 C66 1.340 . S
C67 C68 1.439 . S
C67 H99 0.950 . S
C68 N64 1.374 . S
C68 C67 1.439 . S
C68 C93 1.395 . S
N69 Co58 1.995 . S
N69 C70 1.376 . S
N69 C73 1.383 . S
C70 N69 1.376 . S
C70 C71 1.446 . S
C70 C93 1.391 . S
C71 C70 1.446 . S
C71 C72 1.339 . S
C71 H100 0.949 . S
C72 C71 1.339 . S
C72 C73 1.439 . S
C72 H101 0.950 . S
C73 N69 1.383 . S
C73 C72 1.439 . S
C73 C91 1.392 . S
N74 Co58 2.282 . S
N74 C77 1.332 . S
N74 C79 1.332 . S
C75 C76 1.386 . S
C75 C78 1.388 . S
C76 C75 1.386 . S
C76 C77 1.382 . S
C76 H102 0.950 1_554 S
C77 N74 1.332 . S
C77 C76 1.382 . S
C77 H88 0.952 . S
C78 C75 1.388 . S
C78 C79 1.382 . S
C78 H103 0.950 . S
C79 N74 1.332 . S
C79 C78 1.382 . S
C79 H89 0.948 . S
N80 Co58 2.282 . S
N80 C84 1.332 . S
N80 C85 1.332 . S
C81 C82 1.388 . S
C81 C85 1.382 . S
C81 H104 0.950 . S
C82 C81 1.388 . S
C82 C83 1.386 . S
C83 C82 1.386 . S
C83 C84 1.382 . S
C83 H105 0.950 . S
C84 N80 1.332 . S
C84 C83 1.382 . S
C84 H86 0.952 . S
C85 N80 1.332 . S
C85 C81 1.382 . S
C85 H87 0.948 . S
H86 C84 0.952 . S
H87 C85 0.948 . S
H88 C77 0.952 . S
H89 C79 0.948 . S
C90 C56 1.395 . S
C90 C60 1.391 . S
C91 C53 1.389 . S
C91 C73 1.392 . S
C92 C63 1.392 . S
C92 C65 1.389 . S
C93 C68 1.395 . S
C93 C70 1.391 . S
H94 C54 0.951 . S
H95 C55 0.950 . S
H96 C61 0.949 . S
H97 C62 0.950 . S
H98 C66 0.951 . S
H99 C67 0.950 . S
H100 C71 0.949 . S
H101 C72 0.950 . S
H102 C76 0.950 1_556 S
H103 C78 0.950 . S
H104 C81 0.950 . S
H105 C83 0.950 . S
C106 C107 1.443 . S
C106 N110 1.376 . S
C106 C144 1.389 . S
C107 C106 1.443 . S
C107 C108 1.340 . S
C107 H147 0.951 . S
C108 C107 1.340 . S
C108 C109 1.439 . S
C108 H148 0.950 . S
C109 C108 1.439 . S
C109 N110 1.374 . S
C109 C143 1.395 . S
N110 C106 1.376 . S
N110 C109 1.374 . S
N110 Co111 2.008 . S
Co111 N110 2.008 . S
Co111 N112 1.995 1_554 S
Co111 N117 2.008 1_554 S
Co111 N122 1.995 . S
Co111 N127 2.282 . S
Co111 N133 2.282 1_554 S
N112 Co111 1.995 1_556 S
N112 C113 1.376 . S
N112 C116 1.383 . S
C113 N112 1.376 . S
C113 C114 1.446 . S
C113 C143 1.391 1_556 S
C114 C113 1.446 . S
C114 C115 1.339 . S
C114 H149 0.949 . S
C115 C114 1.339 . S
C115 C116 1.439 . S
C115 H150 0.950 . S
C116 N112 1.383 . S
C116 C115 1.439 . S
C116 C145 1.392 . S
N117 Co111 2.008 1_556 S
N117 C118 1.376 . S
N117 C121 1.374 . S
C118 N117 1.376 . S
C118 C119 1.443 . S
C118 C145 1.389 . S
C119 C118 1.443 . S
C119 C120 1.340 . S
C119 H151 0.951 . S
C120 C119 1.340 . S
C120 C121 1.439 . S
C120 H152 0.950 . S
C121 N117 1.374 . S
C121 C120 1.439 . S
C121 C146 1.395 1_556 S
N122 Co111 1.995 . S
N122 C123 1.376 . S
N122 C126 1.383 . S
C123 N122 1.376 . S
C123 C124 1.446 . S
C123 C146 1.391 . S
C124 C123 1.446 . S
C124 C125 1.339 . S
C124 H153 0.949 . S
C125 C124 1.339 . S
C125 C126 1.439 . S
C125 H154 0.950 . S
C126 N122 1.383 . S
C126 C125 1.439 . S
C126 C144 1.392 . S
N127 Co111 2.282 . S
N127 C130 1.332 . S
N127 C132 1.332 . S
C128 C129 1.386 . S
C128 C131 1.388 . S
C129 C128 1.386 . S
C129 C130 1.382 . S
C129 H155 0.950 . S
C130 N127 1.332 . S
C130 C129 1.382 . S
C130 H141 0.952 . S
C131 C128 1.388 . S
C131 C132 1.382 . S
C131 H156 0.950 . S
C132 N127 1.332 . S
C132 C131 1.382 . S
C132 H142 0.948 . S
N133 Co111 2.282 1_556 S
N133 C137 1.332 . S
N133 C138 1.332 . S
C134 C135 1.388 . S
C134 C138 1.382 . S
C134 H157 0.950 . S
C135 C134 1.388 . S
C135 C136 1.386 . S
C136 C135 1.386 . S
C136 C137 1.382 . S
C136 H158 0.950 . S
C137 N133 1.332 . S
C137 C136 1.382 . S
C137 H139 0.952 . S
C138 N133 1.332 . S
C138 C134 1.382 . S
C138 H140 0.948 . S
H139 C137 0.952 . S
H140 C138 0.948 . S
H141 C130 0.952 . S
H142 C132 0.948 . S
C143 C109 1.395 . S
C143 C113 1.391 1_554 S
C144 C106 1.389 . S
C144 C126 1.392 . S
C145 C116 1.392 . S
C145 C118 1.389 . S
C146 C121 1.395 1_554 S
C146 C123 1.391 . S
H147 C107 0.951 . S
H148 C108 0.950 . S
H149 C114 0.949 . S
H150 C115 0.950 . S
H151 C119 0.951 . S
H152 C120 0.950 . S
H153 C124 0.949 . S
H154 C125 0.950 . S
H155 C129 0.950 . S
H156 C131 0.950 . S
H157 C134 0.950 . S
H158 C136 0.950 . S
C159 C160 1.443 . S
C159 N163 1.376 . S
C159 C197 1.389 . S
C160 C159 1.443 . S
C160 C161 1.340 . S
C160 H200 0.951 . S
C161 C160 1.340 . S
C161 C162 1.439 . S
C161 H201 0.950 . S
C162 C161 1.439 . S
C162 N163 1.374 . S
C162 C196 1.395 . S
N163 C159 1.376 . S
N163 C162 1.374 . S
N163 Co164 2.008 . S
Co164 N163 2.008 . S
Co164 N165 1.995 . S
Co164 N170 2.008 . S
Co164 N175 1.995 . S
Co164 N180 2.282 . S
Co164 N186 2.282 . S
N165 Co164 1.995 . S
N165 C166 1.376 . S
N165 C169 1.383 1_554 S
C166 N165 1.376 . S
C166 C167 1.446 1_554 S
C166 C196 1.391 . S
C167 C166 1.446 1_556 S
C167 C168 1.339 . S
C167 H202 0.949 . S
C168 C167 1.339 . S
C168 C169 1.439 . S
C168 H203 0.950 . S
C169 N165 1.383 1_556 S
C169 C168 1.439 . S
C169 C198 1.392 . S
N170 Co164 2.008 . S
N170 C171 1.376 1_554 S
N170 C174 1.374 . S
C171 N170 1.376 1_556 S
C171 C172 1.443 . S
C171 C198 1.389 . S
C172 C171 1.443 . S
C172 C173 1.340 1_556 S
C172 H204 0.951 . S
C173 C172 1.340 1_554 S
C173 C174 1.439 . S
C173 H205 0.950 . S
C174 N170 1.374 . S
C174 C173 1.439 . S
C174 C199 1.395 . S
N175 Co164 1.995 . S
N175 C176 1.376 . S
N175 C179 1.383 . S
C176 N175 1.376 . S
C176 C177 1.446 . S
C176 C199 1.391 . S
C177 C176 1.446 . S
C177 C178 1.339 . S
C177 H206 0.949 . S
C178 C177 1.339 . S
C178 C179 1.439 . S
C178 H207 0.950 . S
C179 N175 1.383 . S
C179 C178 1.439 . S
C179 C197 1.392 . S
N180 Co164 2.282 . S
N180 C183 1.332 . S
N180 C185 1.332 . S
C181 C182 1.386 . S
C181 C184 1.388 . S
C182 C181 1.386 . S
C182 C183 1.382 . S
C182 H208 0.950 . S
C183 N180 1.332 . S
C183 C182 1.382 . S
C183 H194 0.952 . S
C184 C181 1.388 . S
C184 C185 1.382 . S
C184 H209 0.950 . S
C185 N180 1.332 . S
C185 C184 1.382 . S
C185 H195 0.948 . S
N186 Co164 2.282 . S
N186 C190 1.332 1_554 S
N186 C191 1.332 . S
C187 C188 1.388 . S
C187 C191 1.382 1_556 S
C187 H210 0.950 . S
C188 C187 1.388 . S
C188 C189 1.386 . S
C189 C188 1.386 . S
C189 C190 1.382 . S
C189 H211 0.950 . S
C190 N186 1.332 1_556 S
C190 C189 1.382 . S
C190 H192 0.952 . S
C191 N186 1.332 . S
C191 C187 1.382 1_554 S
C191 H193 0.948 . S
H192 C190 0.952 . S
H193 C191 0.948 . S
H194 C183 0.952 . S
H195 C185 0.948 . S
C196 C162 1.395 . S
C196 C166 1.391 . S
C197 C159 1.389 . S
C197 C179 1.392 . S
C198 C169 1.392 . S
C198 C171 1.389 . S
C199 C174 1.395 . S
C199 C176 1.391 . S
H200 C160 0.951 . S
H201 C161 0.950 . S
H202 C167 0.949 . S
H203 C168 0.950 . S
H204 C172 0.951 . S
H205 C173 0.950 . S
H206 C177 0.949 . S
H207 C178 0.950 . S
H208 C182 0.950 . S
H209 C184 0.950 . S
H210 C187 0.950 . S
H211 C189 0.950 . S
C212 C213 1.443 . S
C212 N216 1.376 . S
C212 C250 1.389 . S
C213 C212 1.443 . S
C213 C214 1.340 . S
C213 H253 0.951 . S
C214 C213 1.340 . S
C214 C215 1.439 . S
C214 H254 0.950 . S
C215 C214 1.439 . S
C215 N216 1.374 . S
C215 C249 1.395 . S
N216 C212 1.376 . S
N216 C215 1.374 . S
N216 Co217 2.008 . S
Co217 N216 2.008 . S
Co217 N218 1.995 . S
Co217 N223 2.008 . S
Co217 N228 1.995 . S
Co217 N233 2.282 . S
Co217 N239 2.282 . S
N218 Co217 1.995 . S
N218 C219 1.376 . S
N218 C222 1.383 1_554 S
C219 N218 1.376 . S
C219 C220 1.446 1_554 S
C219 C249 1.391 . S
C220 C219 1.446 1_556 S
C220 C221 1.339 . S
C220 H255 0.949 . S
C221 C220 1.339 . S
C221 C222 1.439 . S
C221 H256 0.950 . S
C222 N218 1.383 1_556 S
C222 C221 1.439 . S
C222 C251 1.392 . S
N223 Co217 2.008 . S
N223 C224 1.376 . S
N223 C227 1.374 . S
C224 N223 1.376 . S
C224 C225 1.443 . S
C224 C251 1.389 1_554 S
C225 C224 1.443 . S
C225 C226 1.340 . S
C225 H257 0.951 1_554 S
C226 C225 1.340 . S
C226 C227 1.439 . S
C226 H258 0.950 . S
C227 N223 1.374 . S
C227 C226 1.439 . S
C227 C252 1.395 . S
N228 Co217 1.995 . S
N228 C229 1.376 . S
N228 C232 1.383 . S
C229 N228 1.376 . S
C229 C230 1.446 . S
C229 C252 1.391 . S
C230 C229 1.446 . S
C230 C231 1.339 . S
C230 H259 0.949 . S
C231 C230 1.339 . S
C231 C232 1.439 . S
C231 H260 0.950 . S
C232 N228 1.383 . S
C232 C231 1.439 . S
C232 C250 1.392 . S
N233 Co217 2.282 . S
N233 C236 1.332 . S
N233 C238 1.332 . S
C234 C235 1.386 . S
C234 C237 1.388 . S
C235 C234 1.386 . S
C235 C236 1.382 . S
C235 H261 0.950 . S
C236 N233 1.332 . S
C236 C235 1.382 . S
C236 H247 0.952 . S
C237 C234 1.388 . S
C237 C238 1.382 . S
C237 H262 0.950 . S
C238 N233 1.332 . S
C238 C237 1.382 . S
C238 H248 0.948 . S
N239 Co217 2.282 . S
N239 C243 1.332 1_554 S
N239 C244 1.332 . S
C240 C241 1.388 . S
C240 C244 1.382 1_556 S
C240 H263 0.950 . S
C241 C240 1.388 . S
C241 C242 1.386 . S
C242 C241 1.386 . S
C242 C243 1.382 . S
C242 H264 0.950 . S
C243 N239 1.332 1_556 S
C243 C242 1.382 . S
C243 H245 0.952 . S
C244 N239 1.332 . S
C244 C240 1.382 1_554 S
C244 H246 0.948 . S
H245 C243 0.952 . S
H246 C244 0.948 . S
H247 C236 0.952 . S
H248 C238 0.948 . S
C249 C215 1.395 . S
C249 C219 1.391 . S
C250 C212 1.389 . S
C250 C232 1.392 . S
C251 C222 1.392 . S
C251 C224 1.389 1_556 S
C252 C227 1.395 . S
C252 C229 1.391 . S
H253 C213 0.951 . S
H254 C214 0.950 . S
H255 C220 0.949 . S
H256 C221 0.950 . S
H257 C225 0.951 1_556 S
H258 C226 0.950 . S
H259 C230 0.949 . S
H260 C231 0.950 . S
H261 C235 0.950 . S
H262 C237 0.950 . S
H263 C240 0.950 . S
H264 C242 0.950 . S
C265 C266 1.443 . S
C265 N269 1.376 . S
C265 C303 1.389 . S
C266 C265 1.443 . S
C266 C267 1.340 . S
C266 H306 0.951 . S
C267 C266 1.340 . S
C267 C268 1.439 . S
C267 H307 0.950 . S
C268 C267 1.439 . S
C268 N269 1.374 . S
C268 C302 1.395 . S
N269 C265 1.376 . S
N269 C268 1.374 . S
N269 Co270 2.008 . S
Co270 N269 2.008 . S
Co270 N271 1.995 . S
Co270 N276 2.008 . S
Co270 N281 1.995 . S
Co270 N286 2.282 . S
Co270 N292 2.282 . S
N271 Co270 1.995 . S
N271 C272 1.376 . S
N271 C275 1.383 . S
C272 N271 1.376 . S
C272 C273 1.446 . S
C272 C302 1.391 . S
C273 C272 1.446 . S
C273 C274 1.339 . S
C273 H308 0.949 . S
C274 C273 1.339 . S
C274 C275 1.439 . S
C274 H309 0.950 . S
C275 N271 1.383 . S
C275 C274 1.439 . S
C275 C304 1.392 . S
N276 Co270 2.008 . S
N276 C277 1.376 . S
N276 C280 1.374 . S
C277 N276 1.376 . S
C277 C278 1.443 . S
C277 C304 1.389 . S
C278 C277 1.443 . S
C278 C279 1.340 . S
C278 H310 0.951 . S
C279 C278 1.340 . S
C279 C280 1.439 . S
C279 H311 0.950 . S
C280 N276 1.374 . S
C280 C279 1.439 . S
C280 C305 1.395 . S
N281 Co270 1.995 . S
N281 C282 1.376 . S
N281 C285 1.383 . S
C282 N281 1.376 . S
C282 C283 1.446 . S
C282 C305 1.391 . S
C283 C282 1.446 . S
C283 C284 1.339 . S
C283 H312 0.949 . S
C284 C283 1.339 . S
C284 C285 1.439 . S
C284 H313 0.950 . S
C285 N281 1.383 . S
C285 C284 1.439 . S
C285 C303 1.392 . S
N286 Co270 2.282 . S
N286 C289 1.332 . S
N286 C291 1.332 . S
C287 C288 1.386 . S
C287 C290 1.388 . S
C288 C287 1.386 . S
C288 C289 1.382 . S
C288 H314 0.950 . S
C289 N286 1.332 . S
C289 C288 1.382 . S
C289 H300 0.952 . S
C290 C287 1.388 . S
C290 C291 1.382 . S
C290 H315 0.950 . S
C291 N286 1.332 . S
C291 C290 1.382 . S
C291 H301 0.948 . S
N292 Co270 2.282 . S
N292 C296 1.332 . S
N292 C297 1.332 . S
C293 C294 1.388 . S
C293 C297 1.382 . S
C293 H316 0.950 . S
C294 C293 1.388 . S
C294 C295 1.386 . S
C295 C294 1.386 . S
C295 C296 1.382 . S
C295 H317 0.950 . S
C296 N292 1.332 . S
C296 C295 1.382 . S
C296 H298 0.952 . S
C297 N292 1.332 . S
C297 C293 1.382 . S
C297 H299 0.948 . S
H298 C296 0.952 . S
H299 C297 0.948 . S
H300 C289 0.952 . S
H301 C291 0.948 . S
C302 C268 1.395 . S
C302 C272 1.391 . S
C303 C265 1.389 . S
C303 C285 1.392 . S
C304 C275 1.392 . S
C304 C277 1.389 . S
C305 C280 1.395 . S
C305 C282 1.391 . S
H306 C266 0.951 . S
H307 C267 0.950 . S
H308 C273 0.949 . S
H309 C274 0.950 . S
H310 C278 0.951 . S
H311 C279 0.950 . S
H312 C283 0.949 . S
H313 C284 0.950 . S
H314 C288 0.950 . S
H315 C290 0.950 . S
H316 C293 0.950 . S
H317 C295 0.950 . S
C318 O330 1.241 . S
C318 O331 1.280 . S
C319 O332 1.277 . S
C319 O333 1.245 . S
C320 O344 1.247 . S
C320 O346 1.289 . S
Mg321 O322 1.935 1_655 S
Mg321 O331 1.984 . S
Mg321 O333 1.988 1_655 S
Mg321 O334 2.061 . S
O322 Mg321 1.935 1_455 S
O322 Mg323 1.984 . S
O322 Mg324 1.916 . S
Mg323 O322 1.984 . S
Mg323 O330 2.042 1_455 S
Mg323 O332 2.041 . S
Mg323 O338 2.038 1_455 S
Mg323 O346 2.238 . S
Mg324 O322 1.916 . S
Mg324 O325 1.917 . S
Mg324 O335 2.106 1_455 S
Mg324 O337 2.079 1_455 S
Mg324 O346 2.106 . S
Mg324 O347 2.079 . S
O325 Mg324 1.917 . S
O325 Mg326 1.926 . S
O325 Mg327 1.986 . S
Mg326 O325 1.926 . S
Mg326 O340 1.984 . S
Mg326 O343 1.988 1_455 S
Mg326 O344 2.061 . S
Mg327 O325 1.986 . S
Mg327 O335 2.238 1_455 S
Mg327 O339 2.042 . S
Mg327 O341 2.041 1_455 S
Mg327 O348 2.038 . S
C328 O334 1.247 . S
C328 O335 1.289 . S
C329 O347 1.245 . S
C329 O348 1.274 . S
O330 C318 1.241 . S
O330 Mg323 2.042 1_655 S
O331 C318 1.280 . S
O331 Mg321 1.984 . S
O332 C319 1.277 . S
O332 Mg323 2.041 . S
O333 C319 1.245 . S
O333 Mg321 1.988 1_455 S
O334 Mg321 2.061 . S
O334 C328 1.247 . S
O335 Mg324 2.106 1_655 S
O335 Mg327 2.238 1_655 S
O335 C328 1.289 . S
C336 O337 1.245 . S
C336 O338 1.274 . S
O337 Mg324 2.079 1_655 S
O337 C336 1.245 . S
O338 Mg323 2.038 1_655 S
O338 C336 1.274 . S
O339 Mg327 2.042 . S
O339 C342 1.241 . S
O340 Mg326 1.984 . S
O340 C342 1.280 . S
O341 Mg327 2.041 1_655 S
O341 C345 1.277 . S
C342 O339 1.241 . S
C342 O340 1.280 . S
O343 Mg326 1.988 1_655 S
O343 C345 1.245 . S
O344 C320 1.247 . S
O344 Mg326 2.061 . S
C345 O341 1.277 . S
C345 O343 1.245 . S
O346 C320 1.289 . S
O346 Mg323 2.238 . S
O346 Mg324 2.106 . S
O347 Mg324 2.079 . S
O347 C329 1.245 . S
O348 Mg327 2.038 . S
O348 C329 1.274 . S
C349 O361 1.241 . S
C349 O362 1.280 . S
C350 O363 1.277 . S
C350 O364 1.245 . S
C351 O375 1.247 . S
C351 O377 1.289 . S
Mg352 O353 1.926 . S
Mg352 O362 1.984 . S
Mg352 O364 1.988 1_545 S
Mg352 O365 2.061 . S
O353 Mg352 1.926 . S
O353 Mg354 1.986 . S
O353 Mg355 1.917 . S
Mg354 O353 1.986 . S
Mg354 O361 2.042 . S
Mg354 O363 2.041 1_545 S
Mg354 O369 2.038 . S
Mg354 O377 2.238 1_545 S
Mg355 O353 1.917 . S
Mg355 O356 1.917 1_545 S
Mg355 O366 2.106 . S
Mg355 O368 2.079 . S
Mg355 O377 2.106 1_545 S
Mg355 O378 2.079 1_545 S
O356 Mg355 1.917 1_565 S
O356 Mg357 1.926 . S
O356 Mg358 1.986 1_565 S
Mg357 O356 1.926 . S
Mg357 O371 1.984 . S
Mg357 O374 1.988 1_565 S
Mg357 O375 2.061 . S
Mg358 O356 1.986 1_545 S
Mg358 O366 2.238 . S
Mg358 O370 2.042 1_545 S
Mg358 O372 2.041 . S
Mg358 O379 2.038 1_545 S
C359 O365 1.247 . S
C359 O366 1.289 . S
C360 O378 1.245 . S
C360 O379 1.274 . S
O361 C349 1.241 . S
O361 Mg354 2.042 . S
O362 C349 1.280 . S
O362 Mg352 1.984 . S
O363 C350 1.277 . S
O363 Mg354 2.041 1_565 S
O364 C350 1.245 . S
O364 Mg352 1.988 1_565 S
O365 Mg352 2.061 . S
O365 C359 1.247 . S
O366 Mg355 2.106 . S
O366 Mg358 2.238 . S
O366 C359 1.289 . S
C367 O368 1.245 . S
C367 O369 1.274 . S
O368 Mg355 2.079 . S
O368 C367 1.245 . S
O369 Mg354 2.038 . S
O369 C367 1.274 . S
O370 Mg358 2.042 1_565 S
O370 C373 1.241 . S
O371 Mg357 1.984 . S
O371 C373 1.280 . S
O372 Mg358 2.041 . S
O372 C376 1.277 . S
C373 O370 1.241 . S
C373 O371 1.280 . S
O374 Mg357 1.988 1_545 S
O374 C376 1.245 . S
O375 C351 1.247 . S
O375 Mg357 2.061 . S
C376 O372 1.277 . S
C376 O374 1.245 . S
O377 C351 1.289 . S
O377 Mg354 2.238 1_565 S
O377 Mg355 2.106 1_565 S
O378 Mg355 2.079 1_565 S
O378 C360 1.245 . S
O379 Mg358 2.038 1_565 S
O379 C360 1.274 . S
C380 O392 1.241 . S
C380 O393 1.280 . S
C381 O394 1.277 . S
C381 O395 1.245 . S
C382 O406 1.247 . S
C382 O408 1.289 . S
Mg383 O384 1.926 . S
Mg383 O393 1.984 . S
Mg383 O395 1.988 . S
Mg383 O396 2.061 . S
O384 Mg383 1.926 . S
O384 Mg385 1.986 . S
O384 Mg386 1.917 . S
Mg385 O384 1.986 . S
Mg385 O392 2.042 . S
Mg385 O394 2.041 . S
Mg385 O400 2.038 . S
Mg385 O408 2.238 . S
Mg386 O384 1.917 . S
Mg386 O387 1.917 . S
Mg386 O397 2.106 . S
Mg386 O399 2.079 . S
Mg386 O408 2.106 . S
Mg386 O409 2.079 . S
O387 Mg386 1.917 . S
O387 Mg388 1.926 . S
O387 Mg389 1.986 . S
Mg388 O387 1.926 . S
Mg388 O402 1.984 . S
Mg388 O405 1.988 . S
Mg388 O406 2.061 . S
Mg389 O387 1.986 . S
Mg389 O397 2.238 . S
Mg389 O401 2.042 . S
Mg389 O403 2.041 . S
Mg389 O410 2.038 . S
C390 O396 1.247 . S
C390 O397 1.289 . S
C391 O409 1.245 . S
C391 O410 1.274 . S
O392 C380 1.241 . S
O392 Mg385 2.042 . S
O393 C380 1.280 . S
O393 Mg383 1.984 . S
O394 C381 1.277 . S
O394 Mg385 2.041 . S
O395 C381 1.245 . S
O395 Mg383 1.988 . S
O396 Mg383 2.061 . S
O396 C390 1.247 . S
O397 Mg386 2.106 . S
O397 Mg389 2.238 . S
O397 C390 1.289 . S
C398 O399 1.245 . S
C398 O400 1.274 . S
O399 Mg386 2.079 . S
O399 C398 1.245 . S
O400 Mg385 2.038 . S
O400 C398 1.274 . S
O401 Mg389 2.042 . S
O401 C404 1.241 . S
O402 Mg388 1.984 . S
O402 C404 1.280 . S
O403 Mg389 2.041 . S
O403 C407 1.277 . S
C404 O401 1.241 . S
C404 O402 1.280 . S
O405 Mg388 1.988 . S
O405 C407 1.245 . S
O406 C382 1.247 . S
O406 Mg388 2.061 . S
C407 O403 1.277 . S
C407 O405 1.245 . S
O408 C382 1.289 . S
O408 Mg385 2.238 . S
O408 Mg386 2.106 . S
O409 Mg386 2.079 . S
O409 C391 1.245 . S
O410 Mg389 2.038 . S
O410 C391 1.274 . S
H411 C423 0.930 . S
H412 C425 0.930 . S
H413 C426 0.930 . S
H414 C430 0.959 . S
H415 C430 0.959 . S
H416 C430 0.961 . S
H417 C431 0.960 . S
H418 C431 0.961 . S
H419 C431 0.959 . S
H420 C434 0.929 . S
H421 C435 0.931 . S
H422 C437 0.930 . S
C423 H411 0.930 . S
C423 C424 1.399 . S
C423 C428 1.399 . S
C424 C423 1.399 . S
C424 C425 1.376 . S
C425 H412 0.930 . S
C425 C424 1.376 . S
C425 C426 1.388 . S
C426 H413 0.930 . S
C426 C425 1.388 . S
C426 C427 1.390 . S
C427 C426 1.390 . S
C427 C428 1.394 . S
C427 C433 1.465 . S
C428 C423 1.399 . S
C428 C427 1.394 . S
C428 C429 1.516 . S
C429 C428 1.516 . S
C429 C430 1.502 . S
C429 C431 1.561 . S
C429 C432 1.526 . S
C430 H414 0.959 . S
C430 H415 0.959 . S
C430 H416 0.961 . S
C430 C429 1.502 . S
C431 H417 0.960 . S
C431 H418 0.961 . S
C431 H419 0.959 . S
C431 C429 1.561 . S
C432 C429 1.526 . S
C432 C433 1.396 . S
C432 C437 1.390 . S
C433 C427 1.465 . S
C433 C432 1.396 . S
C433 C434 1.399 . S
C434 H420 0.929 . S
C434 C433 1.399 . S
C434 C435 1.385 . S
C435 H421 0.931 . S
C435 C434 1.385 . S
C435 C436 1.389 . S
C436 C435 1.389 . S
C436 C437 1.387 . S
C437 H422 0.930 . S
C437 C432 1.390 . S
C437 C436 1.387 . S
H438 C450 0.930 . S
H439 C452 0.930 . S
H440 C453 0.930 . S
H441 C457 0.959 . S
H442 C457 0.959 . S
H443 C457 0.961 . S
H444 C458 0.960 . S
H445 C458 0.961 . S
H446 C458 0.959 . S
H447 C461 0.929 . S
H448 C462 0.931 . S
H449 C464 0.930 . S
C450 H438 0.930 . S
C450 C451 1.399 . S
C450 C455 1.399 . S
C451 C450 1.399 . S
C451 C452 1.376 . S
C452 H439 0.930 . S
C452 C451 1.376 . S
C452 C453 1.388 . S
C453 H440 0.930 . S
C453 C452 1.388 . S
C453 C454 1.390 . S
C454 C453 1.390 . S
C454 C455 1.394 . S
C454 C460 1.465 . S
C455 C450 1.399 . S
C455 C454 1.394 . S
C455 C456 1.516 . S
C456 C455 1.516 . S
C456 C457 1.502 . S
C456 C458 1.561 . S
C456 C459 1.526 . S
C457 H441 0.959 . S
C457 H442 0.959 . S
C457 H443 0.961 . S
C457 C456 1.502 . S
C458 H444 0.960 . S
C458 H445 0.961 . S
C458 H446 0.959 . S
C458 C456 1.561 . S
C459 C456 1.526 . S
C459 C460 1.396 . S
C459 C464 1.390 . S
C460 C454 1.465 . S
C460 C459 1.396 . S
C460 C461 1.399 . S
C461 H447 0.929 . S
C461 C460 1.399 . S
C461 C462 1.385 . S
C462 H448 0.931 . S
C462 C461 1.385 . S
C462 C463 1.389 . S
C463 C462 1.389 . S
C463 C464 1.387 . S
C464 H449 0.930 . S
C464 C459 1.390 . S
C464 C463 1.387 . S
H465 C477 0.930 . S
H466 C479 0.930 . S
H467 C480 0.930 . S
H468 C484 0.959 . S
H469 C484 0.959 . S
H470 C484 0.961 . S
H471 C485 0.960 . S
H472 C485 0.961 . S
H473 C485 0.959 . S
H474 C488 0.929 . S
H475 C489 0.931 . S
H476 C491 0.930 . S
C477 H465 0.930 . S
C477 C478 1.399 . S
C477 C482 1.399 . S
C478 C477 1.399 . S
C478 C479 1.376 . S
C479 H466 0.930 . S
C479 C478 1.376 . S
C479 C480 1.388 . S
C480 H467 0.930 . S
C480 C479 1.388 . S
C480 C481 1.390 . S
C481 C480 1.390 . S
C481 C482 1.394 . S
C481 C487 1.465 . S
C482 C477 1.399 . S
C482 C481 1.394 . S
C482 C483 1.516 . S
C483 C482 1.516 . S
C483 C484 1.502 . S
C483 C485 1.561 . S
C483 C486 1.526 . S
C484 H468 0.959 . S
C484 H469 0.959 . S
C484 H470 0.961 . S
C484 C483 1.502 . S
C485 H471 0.960 . S
C485 H472 0.961 . S
C485 H473 0.959 . S
C485 C483 1.561 . S
C486 C483 1.526 . S
C486 C487 1.396 . S
C486 C491 1.390 . S
C487 C481 1.465 . S
C487 C486 1.396 . S
C487 C488 1.399 . S
C488 H474 0.929 . S
C488 C487 1.399 . S
C488 C489 1.385 . S
C489 H475 0.931 . S
C489 C488 1.385 . S
C489 C490 1.389 . S
C490 C489 1.389 . S
C490 C491 1.387 . S
C491 H476 0.930 . S
C491 C486 1.390 . S
C491 C490 1.387 . S
H492 C504 0.930 . S
H493 C506 0.930 . S
H494 C507 0.930 . S
H495 C511 0.959 . S
H496 C511 0.959 . S
H497 C511 0.961 . S
H498 C512 0.960 . S
H499 C512 0.961 . S
H500 C512 0.959 . S
H501 C515 0.929 . S
H502 C516 0.931 . S
H503 C518 0.930 . S
C504 H492 0.930 . S
C504 C505 1.399 . S
C504 C509 1.399 . S
C505 C504 1.399 . S
C505 C506 1.376 . S
C506 H493 0.930 . S
C506 C505 1.376 . S
C506 C507 1.388 . S
C507 H494 0.930 . S
C507 C506 1.388 . S
C507 C508 1.390 . S
C508 C507 1.390 . S
C508 C509 1.394 . S
C508 C514 1.465 . S
C509 C504 1.399 . S
C509 C508 1.394 . S
C509 C510 1.516 . S
C510 C509 1.516 . S
C510 C511 1.502 . S
C510 C512 1.561 . S
C510 C513 1.526 . S
C511 H495 0.959 . S
C511 H496 0.959 . S
C511 H497 0.961 . S
C511 C510 1.502 . S
C512 H498 0.960 . S
C512 H499 0.961 . S
C512 H500 0.959 . S
C512 C510 1.561 . S
C513 C510 1.526 . S
C513 C514 1.396 . S
C513 C518 1.390 . S
C514 C508 1.465 . S
C514 C513 1.396 . S
C514 C515 1.399 . S
C515 H501 0.929 . S
C515 C514 1.399 . S
C515 C516 1.385 . S
C516 H502 0.931 . S
C516 C515 1.385 . S
C516 C517 1.389 . S
C517 C516 1.389 . S
C517 C518 1.387 . S
C518 H503 0.930 . S
C518 C513 1.390 . S
C518 C517 1.387 . S
H519 C531 0.930 . S
H520 C533 0.930 . S
H521 C534 0.930 . S
H522 C538 0.959 . S
H523 C538 0.959 . S
H524 C538 0.961 . S
H525 C539 0.960 . S
H526 C539 0.961 . S
H527 C539 0.959 . S
H528 C542 0.929 . S
H529 C543 0.931 . S
H530 C545 0.930 . S
C531 H519 0.930 . S
C531 C532 1.399 . S
C531 C536 1.399 . S
C532 C531 1.399 . S
C532 C533 1.376 . S
C533 H520 0.930 . S
C533 C532 1.376 . S
C533 C534 1.388 . S
C534 H521 0.930 . S
C534 C533 1.388 . S
C534 C535 1.390 . S
C535 C534 1.390 . S
C535 C536 1.394 . S
C535 C541 1.465 . S
C536 C531 1.399 . S
C536 C535 1.394 . S
C536 C537 1.516 . S
C537 C536 1.516 . S
C537 C538 1.502 . S
C537 C539 1.561 . S
C537 C540 1.526 . S
C538 H522 0.959 . S
C538 H523 0.959 . S
C538 H524 0.961 . S
C538 C537 1.502 . S
C539 H525 0.960 . S
C539 H526 0.961 . S
C539 H527 0.959 . S
C539 C537 1.561 . S
C540 C537 1.526 . S
C540 C541 1.396 . S
C540 C545 1.390 . S
C541 C535 1.465 . S
C541 C540 1.396 . S
C541 C542 1.399 . S
C542 H528 0.929 . S
C542 C541 1.399 . S
C542 C543 1.385 . S
C543 H529 0.931 . S
C543 C542 1.385 . S
C543 C544 1.389 . S
C544 C543 1.389 . S
C544 C545 1.387 . S
C545 H530 0.930 . S
C545 C540 1.390 . S
C545 C544 1.387 . S
H546 C558 0.930 . S
H547 C560 0.930 . S
H548 C561 0.930 . S
H549 C565 0.959 . S
H550 C565 0.959 . S
H551 C565 0.961 . S
H552 C566 0.960 . S
H553 C566 0.961 . S
H554 C566 0.959 . S
H555 C569 0.929 . S
H556 C570 0.931 . S
H557 C572 0.930 . S
C558 H546 0.930 . S
C558 C559 1.399 . S
C558 C563 1.399 . S
C559 C558 1.399 . S
C559 C560 1.376 . S
C560 H547 0.930 . S
C560 C559 1.376 . S
C560 C561 1.388 . S
C561 H548 0.930 . S
C561 C560 1.388 . S
C561 C562 1.390 . S
C562 C561 1.390 . S
C562 C563 1.394 . S
C562 C568 1.465 . S
C563 C558 1.399 . S
C563 C562 1.394 . S
C563 C564 1.516 . S
C564 C563 1.516 . S
C564 C565 1.502 . S
C564 C566 1.561 . S
C564 C567 1.526 . S
C565 H549 0.959 . S
C565 H550 0.959 . S
C565 H551 0.961 . S
C565 C564 1.502 . S
C566 H552 0.960 . S
C566 H553 0.961 . S
C566 H554 0.959 . S
C566 C564 1.561 . S
C567 C564 1.526 . S
C567 C568 1.396 . S
C567 C572 1.390 . S
C568 C562 1.465 . S
C568 C567 1.396 . S
C568 C569 1.399 . S
C569 H555 0.929 . S
C569 C568 1.399 . S
C569 C570 1.385 . S
C570 H556 0.931 . S
C570 C569 1.385 . S
C570 C571 1.389 . S
C571 C570 1.389 . S
C571 C572 1.387 . S
C572 H557 0.930 . S
C572 C567 1.390 . S
C572 C571 1.387 . S
H573 C585 0.930 . S
H574 C587 0.930 . S
H575 C588 0.930 . S
H576 C592 0.959 . S
H577 C592 0.959 . S
H578 C592 0.961 . S
H579 C593 0.960 . S
H580 C593 0.961 . S
H581 C593 0.959 . S
H582 C596 0.929 . S
H583 C597 0.931 . S
H584 C599 0.930 . S
C585 H573 0.930 . S
C585 C586 1.399 . S
C585 C590 1.399 . S
C586 C585 1.399 . S
C586 C587 1.376 . S
C587 H574 0.930 . S
C587 C586 1.376 . S
C587 C588 1.388 . S
C588 H575 0.930 . S
C588 C587 1.388 . S
C588 C589 1.390 . S
C589 C588 1.390 . S
C589 C590 1.394 . S
C589 C595 1.465 . S
C590 C585 1.399 . S
C590 C589 1.394 . S
C590 C591 1.516 . S
C591 C590 1.516 . S
C591 C592 1.502 . S
C591 C593 1.561 . S
C591 C594 1.526 . S
C592 H576 0.959 . S
C592 H577 0.959 . S
C592 H578 0.961 . S
C592 C591 1.502 . S
C593 H579 0.960 . S
C593 H580 0.961 . S
C593 H581 0.959 . S
C593 C591 1.561 . S
C594 C591 1.526 . S
C594 C595 1.396 . S
C594 C599 1.390 . S
C595 C589 1.465 . S
C595 C594 1.396 . S
C595 C596 1.399 . S
C596 H582 0.929 . S
C596 C595 1.399 . S
C596 C597 1.385 . S
C597 H583 0.931 . S
C597 C596 1.385 . S
C597 C598 1.389 . S
C598 C597 1.389 . S
C598 C599 1.387 . S
C599 H584 0.930 . S
C599 C594 1.390 . S
C599 C598 1.387 . S
H600 C612 0.930 . S
H601 C614 0.930 . S
H602 C615 0.930 . S
H603 C619 0.959 . S
H604 C619 0.959 . S
H605 C619 0.961 . S
H606 C620 0.960 . S
H607 C620 0.961 . S
H608 C620 0.959 . S
H609 C623 0.929 . S
H610 C624 0.931 . S
H611 C626 0.930 . S
C612 H600 0.930 . S
C612 C613 1.399 . S
C612 C617 1.399 . S
C613 C612 1.399 . S
C613 C614 1.376 . S
C614 H601 0.930 . S
C614 C613 1.376 . S
C614 C615 1.388 . S
C615 H602 0.930 . S
C615 C614 1.388 . S
C615 C616 1.390 . S
C616 C615 1.390 . S
C616 C617 1.394 . S
C616 C622 1.465 . S
C617 C612 1.399 . S
C617 C616 1.394 . S
C617 C618 1.516 . S
C618 C617 1.516 . S
C618 C619 1.502 . S
C618 C620 1.561 . S
C618 C621 1.526 . S
C619 H603 0.959 . S
C619 H604 0.959 . S
C619 H605 0.961 . S
C619 C618 1.502 . S
C620 H606 0.960 . S
C620 H607 0.961 . S
C620 H608 0.959 . S
C620 C618 1.561 . S
C621 C618 1.526 . S
C621 C622 1.396 . S
C621 C626 1.390 . S
C622 C616 1.465 . S
C622 C621 1.396 . S
C622 C623 1.399 . S
C623 H609 0.929 . S
C623 C622 1.399 . S
C623 C624 1.385 . S
C624 H610 0.931 . S
C624 C623 1.385 . S
C624 C625 1.389 . S
C625 C624 1.389 . S
C625 C626 1.387 . S
C626 H611 0.930 . S
C626 C621 1.390 . S
C626 C625 1.387 . S
H627 C639 0.930 . S
H628 C641 0.930 . S
H629 C642 0.930 . S
H630 C646 0.959 . S
H631 C646 0.959 . S
H632 C646 0.961 . S
H633 C647 0.960 . S
H634 C647 0.961 . S
H635 C647 0.959 . S
H636 C650 0.929 . S
H637 C651 0.931 . S
H638 C653 0.930 . S
C639 H627 0.930 . S
C639 C640 1.399 . S
C639 C644 1.399 . S
C640 C639 1.399 . S
C640 C641 1.376 . S
C641 H628 0.930 . S
C641 C640 1.376 . S
C641 C642 1.388 . S
C642 H629 0.930 . S
C642 C641 1.388 . S
C642 C643 1.390 . S
C643 C642 1.390 . S
C643 C644 1.394 . S
C643 C649 1.465 . S
C644 C639 1.399 . S
C644 C643 1.394 . S
C644 C645 1.516 . S
C645 C644 1.516 . S
C645 C646 1.502 . S
C645 C647 1.561 . S
C645 C648 1.526 . S
C646 H630 0.959 . S
C646 H631 0.959 . S
C646 H632 0.961 . S
C646 C645 1.502 . S
C647 H633 0.960 . S
C647 H634 0.961 . S
C647 H635 0.959 . S
C647 C645 1.561 . S
C648 C645 1.526 . S
C648 C649 1.396 . S
C648 C653 1.390 . S
C649 C643 1.465 . S
C649 C648 1.396 . S
C649 C650 1.399 . S
C650 H636 0.929 . S
C650 C649 1.399 . S
C650 C651 1.385 . S
C651 H637 0.931 . S
C651 C650 1.385 . S
C651 C652 1.389 . S
C652 C651 1.389 . S
C652 C653 1.387 . S
C653 H638 0.930 . S
C653 C648 1.390 . S
C653 C652 1.387 . S
H654 C666 0.930 . S
H655 C668 0.930 . S
H656 C669 0.930 . S
H657 C673 0.959 . S
H658 C673 0.959 . S
H659 C673 0.961 . S
H660 C674 0.960 . S
H661 C674 0.961 . S
H662 C674 0.959 . S
H663 C677 0.929 . S
H664 C678 0.931 . S
H665 C680 0.930 . S
C666 H654 0.930 . S
C666 C667 1.399 1_556 S
C666 C671 1.399 . S
C667 C666 1.399 1_554 S
C667 C668 1.376 . S
C668 H655 0.930 . S
C668 C667 1.376 . S
C668 C669 1.388 . S
C669 H656 0.930 . S
C669 C668 1.388 . S
C669 C670 1.390 1_554 S
C670 C669 1.390 1_556 S
C670 C671 1.394 . S
C670 C676 1.465 . S
C671 C666 1.399 . S
C671 C670 1.394 . S
C671 C672 1.516 . S
C672 C671 1.516 . S
C672 C673 1.502 . S
C672 C674 1.561 . S
C672 C675 1.526 . S
C673 H657 0.959 . S
C673 H658 0.959 . S
C673 H659 0.961 . S
C673 C672 1.502 . S
C674 H660 0.960 . S
C674 H661 0.961 . S
C674 H662 0.959 . S
C674 C672 1.561 . S
C675 C672 1.526 . S
C675 C676 1.396 . S
C675 C680 1.390 . S
C676 C670 1.465 . S
C676 C675 1.396 . S
C676 C677 1.399 . S
C677 H663 0.929 . S
C677 C676 1.399 . S
C677 C678 1.385 . S
C678 H664 0.931 . S
C678 C677 1.385 . S
C678 C679 1.389 . S
C679 C678 1.389 . S
C679 C680 1.387 . S
C680 H665 0.930 . S
C680 C675 1.390 . S
C680 C679 1.387 . S
H681 C693 0.930 1_554 S
H682 C695 0.930 . S
H683 C696 0.930 . S
H684 C700 0.959 . S
H685 C700 0.959 . S
H686 C700 0.961 . S
H687 C701 0.960 . S
H688 C701 0.961 . S
H689 C701 0.959 . S
H690 C704 0.929 . S
H691 C705 0.931 . S
H692 C707 0.930 . S
C693 H681 0.930 1_556 S
C693 C694 1.399 1_556 S
C693 C698 1.399 . S
C694 C693 1.399 1_554 S
C694 C695 1.376 1_554 S
C695 H682 0.930 . S
C695 C694 1.376 1_556 S
C695 C696 1.388 . S
C696 H683 0.930 . S
C696 C695 1.388 . S
C696 C697 1.390 . S
C697 C696 1.390 . S
C697 C698 1.394 . S
C697 C703 1.465 . S
C698 C693 1.399 . S
C698 C697 1.394 . S
C698 C699 1.516 . S
C699 C698 1.516 . S
C699 C700 1.502 . S
C699 C701 1.561 . S
C699 C702 1.526 . S
C700 H684 0.959 . S
C700 H685 0.959 . S
C700 H686 0.961 . S
C700 C699 1.502 . S
C701 H687 0.960 . S
C701 H688 0.961 . S
C701 H689 0.959 . S
C701 C699 1.561 . S
C702 C699 1.526 . S
C702 C703 1.396 . S
C702 C707 1.390 . S
C703 C697 1.465 . S
C703 C702 1.396 . S
C703 C704 1.399 . S
C704 H690 0.929 . S
C704 C703 1.399 . S
C704 C705 1.385 . S
C705 H691 0.931 . S
C705 C704 1.385 . S
C705 C706 1.389 . S
C706 C705 1.389 . S
C706 C707 1.387 . S
C707 H692 0.930 . S
C707 C702 1.390 . S
C707 C706 1.387 . S
H708 C720 0.930 . S
H709 C722 0.930 . S
H710 C723 0.930 . S
H711 C727 0.959 . S
H712 C727 0.959 . S
H713 C727 0.961 . S
H714 C728 0.960 . S
H715 C728 0.961 . S
H716 C728 0.959 . S
H717 C731 0.929 1_554 S
H718 C732 0.931 . S
H719 C734 0.930 . S
C720 H708 0.930 . S
C720 C721 1.399 1_556 S
C720 C725 1.399 . S
C721 C720 1.399 1_554 S
C721 C722 1.376 . S
C722 H709 0.930 . S
C722 C721 1.376 . S
C722 C723 1.388 . S
C723 H710 0.930 . S
C723 C722 1.388 . S
C723 C724 1.390 1_554 S
C724 C723 1.390 1_556 S
C724 C725 1.394 . S
C724 C730 1.465 . S
C725 C720 1.399 . S
C725 C724 1.394 . S
C725 C726 1.516 . S
C726 C725 1.516 . S
C726 C727 1.502 . S
C726 C728 1.561 . S
C726 C729 1.526 . S
C727 H711 0.959 . S
C727 H712 0.959 . S
C727 H713 0.961 . S
C727 C726 1.502 . S
C728 H714 0.960 . S
C728 H715 0.961 . S
C728 H716 0.959 . S
C728 C726 1.561 . S
C729 C726 1.526 . S
C729 C730 1.396 . S
C729 C734 1.390 . S
C730 C724 1.465 . S
C730 C729 1.396 . S
C730 C731 1.399 . S
C731 H717 0.929 1_556 S
C731 C730 1.399 . S
C731 C732 1.385 . S
C732 H718 0.931 . S
C732 C731 1.385 . S
C732 C733 1.389 . S
C733 C732 1.389 . S
C733 C734 1.387 . S
C734 H719 0.930 . S
C734 C729 1.390 . S
C734 C733 1.387 . S
H735 C747 0.930 . S
H736 C749 0.930 . S
H737 C750 0.930 . S
H738 C754 0.959 . S
H739 C754 0.959 . S
H740 C754 0.961 . S
H741 C755 0.960 . S
H742 C755 0.961 . S
H743 C755 0.959 . S
H744 C758 0.929 . S
H745 C759 0.931 . S
H746 C761 0.930 . S
C747 H735 0.930 . S
C747 C748 1.399 . S
C747 C752 1.399 . S
C748 C747 1.399 . S
C748 C749 1.376 . S
C749 H736 0.930 . S
C749 C748 1.376 . S
C749 C750 1.388 . S
C750 H737 0.930 . S
C750 C749 1.388 . S
C750 C751 1.390 . S
C751 C750 1.390 . S
C751 C752 1.394 . S
C751 C757 1.465 . S
C752 C747 1.399 . S
C752 C751 1.394 . S
C752 C753 1.516 . S
C753 C752 1.516 . S
C753 C754 1.502 . S
C753 C755 1.561 . S
C753 C756 1.526 . S
C754 H738 0.959 . S
C754 H739 0.959 . S
C754 H740 0.961 . S
C754 C753 1.502 . S
C755 H741 0.960 . S
C755 H742 0.961 . S
C755 H743 0.959 . S
C755 C753 1.561 . S
C756 C753 1.526 . S
C756 C757 1.396 . S
C756 C761 1.390 . S
C757 C751 1.465 . S
C757 C756 1.396 . S
C757 C758 1.399 . S
C758 H744 0.929 . S
C758 C757 1.399 . S
C758 C759 1.385 . S
C759 H745 0.931 . S
C759 C758 1.385 . S
C759 C760 1.389 . S
C760 C759 1.389 . S
C760 C761 1.387 . S
C761 H746 0.930 . S
C761 C756 1.390 . S
C761 C760 1.387 . S
H762 C774 0.930 . S
H763 C776 0.930 . S
H764 C777 0.930 . S
H765 C781 0.959 . S
H766 C781 0.959 . S
H767 C781 0.961 . S
H768 C782 0.960 . S
H769 C782 0.961 . S
H770 C782 0.959 . S
H771 C785 0.929 . S
H772 C786 0.931 . S
H773 C788 0.930 . S
C774 H762 0.930 . S
C774 C775 1.399 . S
C774 C779 1.399 . S
C775 C774 1.399 . S
C775 C776 1.376 . S
C776 H763 0.930 . S
C776 C775 1.376 . S
C776 C777 1.388 . S
C777 H764 0.930 . S
C777 C776 1.388 . S
C777 C778 1.390 . S
C778 C777 1.390 . S
C778 C779 1.394 . S
C778 C784 1.465 . S
C779 C774 1.399 . S
C779 C778 1.394 . S
C779 C780 1.516 . S
C780 C779 1.516 . S
C780 C781 1.502 . S
C780 C782 1.561 . S
C780 C783 1.526 . S
C781 H765 0.959 . S
C781 H766 0.959 . S
C781 H767 0.961 . S
C781 C780 1.502 . S
C782 H768 0.960 . S
C782 H769 0.961 . S
C782 H770 0.959 . S
C782 C780 1.561 . S
C783 C780 1.526 . S
C783 C784 1.396 . S
C783 C788 1.390 . S
C784 C778 1.465 . S
C784 C783 1.396 . S
C784 C785 1.399 . S
C785 H771 0.929 . S
C785 C784 1.399 . S
C785 C786 1.385 . S
C786 H772 0.931 . S
C786 C785 1.385 . S
C786 C787 1.389 . S
C787 C786 1.389 . S
C787 C788 1.387 . S
C788 H773 0.930 . S
C788 C783 1.390 . S
C788 C787 1.387 . S
H789 C801 0.930 . S
H790 C803 0.930 . S
H791 C804 0.930 . S
H792 C808 0.959 . S
H793 C808 0.959 . S
H794 C808 0.961 . S
H795 C809 0.960 . S
H796 C809 0.961 . S
H797 C809 0.959 . S
H798 C812 0.929 1_554 S
H799 C813 0.931 . S
H800 C815 0.930 . S
C801 H789 0.930 . S
C801 C802 1.399 1_556 S
C801 C806 1.399 . S
C802 C801 1.399 1_554 S
C802 C803 1.376 . S
C803 H790 0.930 . S
C803 C802 1.376 . S
C803 C804 1.388 . S
C804 H791 0.930 . S
C804 C803 1.388 . S
C804 C805 1.390 1_554 S
C805 C804 1.390 1_556 S
C805 C806 1.394 . S
C805 C811 1.465 . S
C806 C801 1.399 . S
C806 C805 1.394 . S
C806 C807 1.516 . S
C807 C806 1.516 . S
C807 C808 1.502 . S
C807 C809 1.561 . S
C807 C810 1.526 . S
C808 H792 0.959 . S
C808 H793 0.959 . S
C808 H794 0.961 . S
C808 C807 1.502 . S
C809 H795 0.960 . S
C809 H796 0.961 . S
C809 H797 0.959 . S
C809 C807 1.561 . S
C810 C807 1.526 . S
C810 C811 1.396 . S
C810 C815 1.390 . S
C811 C805 1.465 . S
C811 C810 1.396 . S
C811 C812 1.399 . S
C812 H798 0.929 1_556 S
C812 C811 1.399 . S
C812 C813 1.385 . S
C813 H799 0.931 . S
C813 C812 1.385 . S
C813 C814 1.389 . S
C814 C813 1.389 . S
C814 C815 1.387 . S
C815 H800 0.930 . S
C815 C810 1.390 . S
C815 C814 1.387 . S
H816 C828 0.930 . S
H817 C830 0.930 . S
H818 C831 0.930 . S
H819 C835 0.959 . S
H820 C835 0.959 . S
H821 C835 0.961 . S
H822 C836 0.960 . S
H823 C836 0.961 . S
H824 C836 0.959 . S
H825 C839 0.929 . S
H826 C840 0.931 . S
H827 C842 0.930 . S
C828 H816 0.930 . S
C828 C829 1.399 1_556 S
C828 C833 1.399 . S
C829 C828 1.399 1_554 S
C829 C830 1.376 . S
C830 H817 0.930 . S
C830 C829 1.376 . S
C830 C831 1.388 . S
C831 H818 0.930 . S
C831 C830 1.388 . S
C831 C832 1.390 1_554 S
C832 C831 1.390 1_556 S
C832 C833 1.394 . S
C832 C838 1.465 . S
C833 C828 1.399 . S
C833 C832 1.394 . S
C833 C834 1.516 . S
C834 C833 1.516 . S
C834 C835 1.502 . S
C834 C836 1.561 . S
C834 C837 1.526 . S
C835 H819 0.959 . S
C835 H820 0.959 . S
C835 H821 0.961 . S
C835 C834 1.502 . S
C836 H822 0.960 . S
C836 H823 0.961 . S
C836 H824 0.959 . S
C836 C834 1.561 . S
C837 C834 1.526 . S
C837 C838 1.396 . S
C837 C842 1.390 . S
C838 C832 1.465 . S
C838 C837 1.396 . S
C838 C839 1.399 . S
C839 H825 0.929 . S
C839 C838 1.399 . S
C839 C840 1.385 . S
C840 H826 0.931 . S
C840 C839 1.385 . S
C840 C841 1.389 . S
C841 C840 1.389 . S
C841 C842 1.387 . S
C842 H827 0.930 . S
C842 C837 1.390 . S
C842 C841 1.387 . S
H843 C855 0.930 . S
H844 C857 0.930 1_554 S
H845 C858 0.930 . S
H846 C862 0.959 . S
H847 C862 0.959 . S
H848 C862 0.961 . S
H849 C863 0.960 . S
H850 C863 0.961 . S
H851 C863 0.959 . S
H852 C866 0.929 . S
H853 C867 0.931 . S
H854 C869 0.930 . S
C855 H843 0.930 . S
C855 C856 1.399 . S
C855 C860 1.399 . S
C856 C855 1.399 . S
C856 C857 1.376 . S
C857 H844 0.930 1_556 S
C857 C856 1.376 . S
C857 C858 1.388 . S
C858 H845 0.930 . S
C858 C857 1.388 . S
C858 C859 1.390 . S
C859 C858 1.390 . S
C859 C860 1.394 . S
C859 C865 1.465 . S
C860 C855 1.399 . S
C860 C859 1.394 . S
C860 C861 1.516 . S
C861 C860 1.516 . S
C861 C862 1.502 . S
C861 C863 1.561 . S
C861 C864 1.526 . S
C862 H846 0.959 . S
C862 H847 0.959 . S
C862 H848 0.961 . S
C862 C861 1.502 . S
C863 H849 0.960 . S
C863 H850 0.961 . S
C863 H851 0.959 . S
C863 C861 1.561 . S
C864 C861 1.526 . S
C864 C865 1.396 . S
C864 C869 1.390 . S
C865 C859 1.465 . S
C865 C864 1.396 . S
C865 C866 1.399 . S
C866 H852 0.929 . S
C866 C865 1.399 . S
C866 C867 1.385 . S
C867 H853 0.931 . S
C867 C866 1.385 . S
C867 C868 1.389 . S
C868 C867 1.389 . S
C868 C869 1.387 . S
C869 H854 0.930 . S
C869 C864 1.390 . S
C869 C868 1.387 . S
H870 C882 0.930 . S
H871 C884 0.930 . S
H872 C885 0.930 . S
H873 C889 0.959 . S
H874 C889 0.959 . S
H875 C889 0.961 . S
H876 C890 0.960 . S
H877 C890 0.961 . S
H878 C890 0.959 . S
H879 C893 0.929 . S
H880 C894 0.931 . S
H881 C896 0.930 . S
C882 H870 0.930 . S
C882 C883 1.399 . S
C882 C887 1.399 . S
C883 C882 1.399 . S
C883 C884 1.376 . S
C884 H871 0.930 . S
C884 C883 1.376 . S
C884 C885 1.388 . S
C885 H872 0.930 . S
C885 C884 1.388 . S
C885 C886 1.390 . S
C886 C885 1.390 . S
C886 C887 1.394 . S
C886 C892 1.465 . S
C887 C882 1.399 . S
C887 C886 1.394 . S
C887 C888 1.516 . S
C888 C887 1.516 . S
C888 C889 1.502 . S
C888 C890 1.561 . S
C888 C891 1.526 . S
C889 H873 0.959 . S
C889 H874 0.959 . S
C889 H875 0.961 . S
C889 C888 1.502 . S
C890 H876 0.960 . S
C890 H877 0.961 . S
C890 H878 0.959 . S
C890 C888 1.561 . S
C891 C888 1.526 . S
C891 C892 1.396 . S
C891 C896 1.390 . S
C892 C886 1.465 . S
C892 C891 1.396 . S
C892 C893 1.399 . S
C893 H879 0.929 . S
C893 C892 1.399 . S
C893 C894 1.385 . S
C894 H880 0.931 . S
C894 C893 1.385 . S
C894 C895 1.389 . S
C895 C894 1.389 . S
C895 C896 1.387 . S
C896 H881 0.930 . S
C896 C891 1.390 . S
C896 C895 1.387 . S
H897 C909 0.930 . S
H898 C911 0.930 . S
H899 C912 0.930 . S
H900 C916 0.959 . S
H901 C916 0.959 . S
H902 C916 0.961 . S
H903 C917 0.960 . S
H904 C917 0.961 . S
H905 C917 0.959 . S
H906 C920 0.929 . S
H907 C921 0.931 . S
H908 C923 0.930 . S
C909 H897 0.930 . S
C909 C910 1.399 . S
C909 C914 1.399 . S
C910 C909 1.399 . S
C910 C911 1.376 . S
C911 H898 0.930 . S
C911 C910 1.376 . S
C911 C912 1.388 . S
C912 H899 0.930 . S
C912 C911 1.388 . S
C912 C913 1.390 . S
C913 C912 1.390 . S
C913 C914 1.394 . S
C913 C919 1.465 . S
C914 C909 1.399 . S
C914 C913 1.394 . S
C914 C915 1.516 . S
C915 C914 1.516 . S
C915 C916 1.502 . S
C915 C917 1.561 . S
C915 C918 1.526 . S
C916 H900 0.959 . S
C916 H901 0.959 . S
C916 H902 0.961 . S
C916 C915 1.502 . S
C917 H903 0.960 . S
C917 H904 0.961 . S
C917 H905 0.959 . S
C917 C915 1.561 . S
C918 C915 1.526 . S
C918 C919 1.396 . S
C918 C923 1.390 . S
C919 C913 1.465 . S
C919 C918 1.396 . S
C919 C920 1.399 . S
C920 H906 0.929 . S
C920 C919 1.399 . S
C920 C921 1.385 . S
C921 H907 0.931 . S
C921 C920 1.385 . S
C921 C922 1.389 . S
C922 C921 1.389 . S
C922 C923 1.387 . S
C923 H908 0.930 . S
C923 C918 1.390 . S
C923 C922 1.387 . S
H924 C936 0.930 . S
H925 C938 0.930 . S
H926 C939 0.930 . S
H927 C943 0.959 . S
H928 C943 0.959 . S
H929 C943 0.961 . S
H930 C944 0.960 . S
H931 C944 0.961 . S
H932 C944 0.959 . S
H933 C947 0.929 . S
H934 C948 0.931 . S
H935 C950 0.930 . S
C936 H924 0.930 . S
C936 C937 1.399 . S
C936 C941 1.399 . S
C937 C936 1.399 . S
C937 C938 1.376 . S
C938 H925 0.930 . S
C938 C937 1.376 . S
C938 C939 1.388 . S
C939 H926 0.930 . S
C939 C938 1.388 . S
C939 C940 1.390 . S
C940 C939 1.390 . S
C940 C941 1.394 . S
C940 C946 1.465 . S
C941 C936 1.399 . S
C941 C940 1.394 . S
C941 C942 1.516 . S
C942 C941 1.516 . S
C942 C943 1.502 . S
C942 C944 1.561 . S
C942 C945 1.526 . S
C943 H927 0.959 . S
C943 H928 0.959 . S
C943 H929 0.961 . S
C943 C942 1.502 . S
C944 H930 0.960 . S
C944 H931 0.961 . S
C944 H932 0.959 . S
C944 C942 1.561 . S
C945 C942 1.526 . S
C945 C946 1.396 . S
C945 C950 1.390 . S
C946 C940 1.465 . S
C946 C945 1.396 . S
C946 C947 1.399 . S
C947 H933 0.929 . S
C947 C946 1.399 . S
C947 C948 1.385 . S
C948 H934 0.931 . S
C948 C947 1.385 . S
C948 C949 1.389 . S
C949 C948 1.389 . S
C949 C950 1.387 . S
C950 H935 0.930 . S
C950 C945 1.390 . S
C950 C949 1.387 . S
H951 C963 0.930 . S
H952 C965 0.930 . S
H953 C966 0.930 . S
H954 C970 0.959 . S
H955 C970 0.959 . S
H956 C970 0.961 . S
H957 C971 0.960 . S
H958 C971 0.961 . S
H959 C971 0.959 . S
H960 C974 0.929 . S
H961 C975 0.931 . S
H962 C977 0.930 . S
C963 H951 0.930 . S
C963 C964 1.399 . S
C963 C968 1.399 . S
C964 C963 1.399 . S
C964 C965 1.376 . S
C965 H952 0.930 . S
C965 C964 1.376 . S
C965 C966 1.388 . S
C966 H953 0.930 . S
C966 C965 1.388 . S
C966 C967 1.390 . S
C967 C966 1.390 . S
C967 C968 1.394 . S
C967 C973 1.465 . S
C968 C963 1.399 . S
C968 C967 1.394 . S
C968 C969 1.516 . S
C969 C968 1.516 . S
C969 C970 1.502 . S
C969 C971 1.561 . S
C969 C972 1.526 . S
C970 H954 0.959 . S
C970 H955 0.959 . S
C970 H956 0.961 . S
C970 C969 1.502 . S
C971 H957 0.960 . S
C971 H958 0.961 . S
C971 H959 0.959 . S
C971 C969 1.561 . S
C972 C969 1.526 . S
C972 C973 1.396 . S
C972 C977 1.390 . S
C973 C967 1.465 . S
C973 C972 1.396 . S
C973 C974 1.399 . S
C974 H960 0.929 . S
C974 C973 1.399 . S
C974 C975 1.385 . S
C975 H961 0.931 . S
C975 C974 1.385 . S
C975 C976 1.389 . S
C976 C975 1.389 . S
C976 C977 1.387 . S
C977 H962 0.930 . S
C977 C972 1.390 . S
C977 C976 1.387 . S
H978 C990 0.930 . S
H979 C992 0.930 . S
H980 C993 0.930 . S
H981 C997 0.959 . S
H982 C997 0.959 . S
H983 C997 0.961 . S
H984 C998 0.960 . S
H985 C998 0.961 . S
H986 C998 0.959 . S
H987 C1001 0.929 . S
H988 C1002 0.931 . S
H989 C1004 0.930 . S
C990 H978 0.930 . S
C990 C991 1.399 . S
C990 C995 1.399 . S
C991 C990 1.399 . S
C991 C992 1.376 . S
C992 H979 0.930 . S
C992 C991 1.376 . S
C992 C993 1.388 . S
C993 H980 0.930 . S
C993 C992 1.388 . S
C993 C994 1.390 . S
C994 C993 1.390 . S
C994 C995 1.394 . S
C994 C1000 1.465 . S
C995 C990 1.399 . S
C995 C994 1.394 . S
C995 C996 1.516 . S
C996 C995 1.516 . S
C996 C997 1.502 . S
C996 C998 1.561 . S
C996 C999 1.526 . S
C997 H981 0.959 . S
C997 H982 0.959 . S
C997 H983 0.961 . S
C997 C996 1.502 . S
C998 H984 0.960 . S
C998 H985 0.961 . S
C998 H986 0.959 . S
C998 C996 1.561 . S
C999 C996 1.526 . S
C999 C1000 1.396 . S
C999 C1004 1.390 . S
C1000 C994 1.465 . S
C1000 C999 1.396 . S
C1000 C1001 1.399 . S
C1001 H987 0.929 . S
C1001 C1000 1.399 . S
C1001 C1002 1.385 . S
C1002 H988 0.931 . S
C1002 C1001 1.385 . S
C1002 C1003 1.389 . S
C1003 C1002 1.389 . S
C1003 C1004 1.387 . S
C1004 H989 0.930 . S
C1004 C999 1.390 . S
C1004 C1003 1.387 . S
H1005 C1017 0.930 . S
H1006 C1019 0.930 . S
H1007 C1020 0.930 . S
H1008 C1024 0.959 . S
H1009 C1024 0.959 . S
H1010 C1024 0.961 . S
H1011 C1025 0.960 . S
H1012 C1025 0.961 . S
H1013 C1025 0.959 . S
H1014 C1028 0.929 . S
H1015 C1029 0.931 . S
H1016 C1031 0.930 . S
C1017 H1005 0.930 . S
C1017 C1018 1.399 . S
C1017 C1022 1.399 . S
C1018 C1017 1.399 . S
C1018 C1019 1.376 . S
C1019 H1006 0.930 . S
C1019 C1018 1.376 . S
C1019 C1020 1.388 . S
C1020 H1007 0.930 . S
C1020 C1019 1.388 . S
C1020 C1021 1.390 . S
C1021 C1020 1.390 . S
C1021 C1022 1.394 . S
C1021 C1027 1.465 . S
C1022 C1017 1.399 . S
C1022 C1021 1.394 . S
C1022 C1023 1.516 . S
C1023 C1022 1.516 . S
C1023 C1024 1.502 . S
C1023 C1025 1.561 . S
C1023 C1026 1.526 . S
C1024 H1008 0.959 . S
C1024 H1009 0.959 . S
C1024 H1010 0.961 . S
C1024 C1023 1.502 . S
C1025 H1011 0.960 . S
C1025 H1012 0.961 . S
C1025 H1013 0.959 . S
C1025 C1023 1.561 . S
C1026 C1023 1.526 . S
C1026 C1027 1.396 . S
C1026 C1031 1.390 . S
C1027 C1021 1.465 . S
C1027 C1026 1.396 . S
C1027 C1028 1.399 . S
C1028 H1014 0.929 . S
C1028 C1027 1.399 . S
C1028 C1029 1.385 . S
C1029 H1015 0.931 . S
C1029 C1028 1.385 . S
C1029 C1030 1.389 . S
C1030 C1029 1.389 . S
C1030 C1031 1.387 . S
C1031 H1016 0.930 . S
C1031 C1026 1.390 . S
C1031 C1030 1.387 . S
H1032 C1044 0.930 . S
H1033 C1046 0.930 . S
H1034 C1047 0.930 . S
H1035 C1051 0.959 . S
H1036 C1051 0.959 . S
H1037 C1051 0.961 . S
H1038 C1052 0.960 . S
H1039 C1052 0.961 . S
H1040 C1052 0.959 . S
H1041 C1055 0.929 . S
H1042 C1056 0.931 . S
H1043 C1058 0.930 . S
C1044 H1032 0.930 . S
C1044 C1045 1.399 . S
C1044 C1049 1.399 . S
C1045 C1044 1.399 . S
C1045 C1046 1.376 . S
C1046 H1033 0.930 . S
C1046 C1045 1.376 . S
C1046 C1047 1.388 . S
C1047 H1034 0.930 . S
C1047 C1046 1.388 . S
C1047 C1048 1.390 . S
C1048 C1047 1.390 . S
C1048 C1049 1.394 . S
C1048 C1054 1.465 . S
C1049 C1044 1.399 . S
C1049 C1048 1.394 . S
C1049 C1050 1.516 . S
C1050 C1049 1.516 . S
C1050 C1051 1.502 . S
C1050 C1052 1.561 . S
C1050 C1053 1.526 . S
C1051 H1035 0.959 . S
C1051 H1036 0.959 . S
C1051 H1037 0.961 . S
C1051 C1050 1.502 . S
C1052 H1038 0.960 . S
C1052 H1039 0.961 . S
C1052 H1040 0.959 . S
C1052 C1050 1.561 . S
C1053 C1050 1.526 . S
C1053 C1054 1.396 . S
C1053 C1058 1.390 . S
C1054 C1048 1.465 . S
C1054 C1053 1.396 . S
C1054 C1055 1.399 . S
C1055 H1041 0.929 . S
C1055 C1054 1.399 . S
C1055 C1056 1.385 . S
C1056 H1042 0.931 . S
C1056 C1055 1.385 . S
C1056 C1057 1.389 . S
C1057 C1056 1.389 . S
C1057 C1058 1.387 . S
C1058 H1043 0.930 . S
C1058 C1053 1.390 . S
C1058 C1057 1.387 . S
C424 C22 1.859 . S
C436 C329 1.821 . S
C451 C92 1.822 . S
C463 C376 1.786 . S
C490 C380 1.923 . S
C478 C144 1.987 . S
C517 C345 1.630 . S
C505 C197 1.698 . S
C532 C250 2.009 . S
C544 C360 1.906 . S
C571 C382 1.065 . S
C559 C287 1.149 . S
C598 C351 1.554 . S
C586 C145 1.646 . S
C613 C198 1.538 . S
C625 C391 1.533 . S
C652 C320 1.492 . S
C640 C251 1.605 . S
C667 C294 1.475 . S
C679 C349 1.400 . S
C694 C29 1.913 . S
C706 C407 1.895 . S
C733 C318 1.743 . S
C721 C91 1.769 . S
C760 C336 1.598 . S
C748 C188 1.710 . S
C787 C350 1.365 . S
C775 C241 1.367 . S
C814 C404 1.743 . S
C802 C304 1.834 . S
C841 C319 1.469 . S
C829 C39 1.514 . S
C868 C367 1.434 . S
C856 C75 1.574 1_556 S
C883 C135 0.933 . S
C895 C390 0.931 . S
C922 C359 1.388 . S
C910 C303 1.428 . S
C949 C398 1.347 . S
C937 C38 1.343 . S
C976 C328 1.145 . S
C964 C82 1.183 . S
C1003 C373 1.234 . S
C991 C128 1.299 . S
C1018 C181 1.755 . S
C1030 C381 1.686 . S
C1045 C234 1.321 . S
C1057 C342 1.283 . S
