# Generated by pormake.
# Topology gar, (4,6)-cn, num edge types: 1
# Building blocks:
#     Node 0, Type 0, BuildingBlock: TATPOV_clean_sbu_0, # of connection points: 4
#     Node 1, Type 0, BuildingBlock: TATPOV_clean_sbu_0, # of connection points: 4
#     Node 2, Type 0, BuildingBlock: TATPOV_clean_sbu_0, # of connection points: 4
#     Node 3, Type 0, BuildingBlock: TATPOV_clean_sbu_0, # of connection points: 4
#     Node 4, Type 0, BuildingBlock: TATPOV_clean_sbu_0, # of connection points: 4
#     Node 5, Type 0, BuildingBlock: TATPOV_clean_sbu_0, # of connection points: 4
#     Node 6, Type 0, BuildingBlock: TATPOV_clean_sbu_0, # of connection points: 4
#     Node 7, Type 0, BuildingBlock: TATPOV_clean_sbu_0, # of connection points: 4
#     Node 8, Type 0, BuildingBlock: TATPOV_clean_sbu_0, # of connection points: 4
#     Node 9, Type 0, BuildingBlock: TATPOV_clean_sbu_0, # of connection points: 4
#     Node 10, Type 0, BuildingBlock: TATPOV_clean_sbu_0, # of connection points: 4
#     Node 11, Type 0, BuildingBlock: TATPOV_clean_sbu_0, # of connection points: 4
#     Node 12, Type 0, BuildingBlock: TATPOV_clean_sbu_0, # of connection points: 4
#     Node 13, Type 0, BuildingBlock: TATPOV_clean_sbu_0, # of connection points: 4
#     Node 14, Type 0, BuildingBlock: TATPOV_clean_sbu_0, # of connection points: 4
#     Node 15, Type 0, BuildingBlock: TATPOV_clean_sbu_0, # of connection points: 4
#     Node 16, Type 0, BuildingBlock: TATPOV_clean_sbu_0, # of connection points: 4
#     Node 17, Type 0, BuildingBlock: TATPOV_clean_sbu_0, # of connection points: 4
#     Node 18, Type 0, BuildingBlock: TATPOV_clean_sbu_0, # of connection points: 4
#     Node 19, Type 0, BuildingBlock: TATPOV_clean_sbu_0, # of connection points: 4
#     Node 20, Type 0, BuildingBlock: TATPOV_clean_sbu_0, # of connection points: 4
#     Node 21, Type 0, BuildingBlock: TATPOV_clean_sbu_0, # of connection points: 4
#     Node 22, Type 0, BuildingBlock: TATPOV_clean_sbu_0, # of connection points: 4
#     Node 23, Type 0, BuildingBlock: TATPOV_clean_sbu_0, # of connection points: 4
#     Node 24, Type 1, BuildingBlock: MIFKUJ_clean_sbu_0, # of connection points: 6
#     Node 25, Type 1, BuildingBlock: MIFKUJ_clean_sbu_0, # of connection points: 6
#     Node 26, Type 1, BuildingBlock: MIFKUJ_clean_sbu_0, # of connection points: 6
#     Node 27, Type 1, BuildingBlock: MIFKUJ_clean_sbu_0, # of connection points: 6
#     Node 28, Type 1, BuildingBlock: MIFKUJ_clean_sbu_0, # of connection points: 6
#     Node 29, Type 1, BuildingBlock: MIFKUJ_clean_sbu_0, # of connection points: 6
#     Node 30, Type 1, BuildingBlock: MIFKUJ_clean_sbu_0, # of connection points: 6
#     Node 31, Type 1, BuildingBlock: MIFKUJ_clean_sbu_0, # of connection points: 6
#     Node 32, Type 1, BuildingBlock: MIFKUJ_clean_sbu_0, # of connection points: 6
#     Node 33, Type 1, BuildingBlock: MIFKUJ_clean_sbu_0, # of connection points: 6
#     Node 34, Type 1, BuildingBlock: MIFKUJ_clean_sbu_0, # of connection points: 6
#     Node 35, Type 1, BuildingBlock: MIFKUJ_clean_sbu_0, # of connection points: 6
#     Node 36, Type 1, BuildingBlock: MIFKUJ_clean_sbu_0, # of connection points: 6
#     Node 37, Type 1, BuildingBlock: MIFKUJ_clean_sbu_0, # of connection points: 6
#     Node 38, Type 1, BuildingBlock: MIFKUJ_clean_sbu_0, # of connection points: 6
#     Node 39, Type 1, BuildingBlock: MIFKUJ_clean_sbu_0, # of connection points: 6
#     Edge 40, Type (0, 1), BuildingBlock: XUDNAN_clean_linker_2, # of connection points: 2
#     Edge 41, Type (0, 1), BuildingBlock: XUDNAN_clean_linker_2, # of connection points: 2
#     Edge 42, Type (0, 1), BuildingBlock: XUDNAN_clean_linker_2, # of connection points: 2
#     Edge 43, Type (0, 1), BuildingBlock: XUDNAN_clean_linker_2, # of connection points: 2
#     Edge 44, Type (0, 1), BuildingBlock: XUDNAN_clean_linker_2, # of connection points: 2
#     Edge 45, Type (0, 1), BuildingBlock: XUDNAN_clean_linker_2, # of connection points: 2
#     Edge 46, Type (0, 1), BuildingBlock: XUDNAN_clean_linker_2, # of connection points: 2
#     Edge 47, Type (0, 1), BuildingBlock: XUDNAN_clean_linker_2, # of connection points: 2
#     Edge 48, Type (0, 1), BuildingBlock: XUDNAN_clean_linker_2, # of connection points: 2
#     Edge 49, Type (0, 1), BuildingBlock: XUDNAN_clean_linker_2, # of connection points: 2
#     Edge 50, Type (0, 1), BuildingBlock: XUDNAN_clean_linker_2, # of connection points: 2
#     Edge 51, Type (0, 1), BuildingBlock: XUDNAN_clean_linker_2, # of connection points: 2
#     Edge 52, Type (0, 1), BuildingBlock: XUDNAN_clean_linker_2, # of connection points: 2
#     Edge 53, Type (0, 1), BuildingBlock: XUDNAN_clean_linker_2, # of connection points: 2
#     Edge 54, Type (0, 1), BuildingBlock: XUDNAN_clean_linker_2, # of connection points: 2
#     Edge 55, Type (0, 1), BuildingBlock: XUDNAN_clean_linker_2, # of connection points: 2
#     Edge 56, Type (0, 1), BuildingBlock: XUDNAN_clean_linker_2, # of connection points: 2
#     Edge 57, Type (0, 1), BuildingBlock: XUDNAN_clean_linker_2, # of connection points: 2
#     Edge 58, Type (0, 1), BuildingBlock: XUDNAN_clean_linker_2, # of connection points: 2
#     Edge 59, Type (0, 1), BuildingBlock: XUDNAN_clean_linker_2, # of connection points: 2
#     Edge 60, Type (0, 1), BuildingBlock: XUDNAN_clean_linker_2, # of connection points: 2
#     Edge 61, Type (0, 1), BuildingBlock: XUDNAN_clean_linker_2, # of connection points: 2
#     Edge 62, Type (0, 1), BuildingBlock: XUDNAN_clean_linker_2, # of connection points: 2
#     Edge 63, Type (0, 1), BuildingBlock: XUDNAN_clean_linker_2, # of connection points: 2
#     Edge 64, Type (0, 1), BuildingBlock: XUDNAN_clean_linker_2, # of connection points: 2
#     Edge 65, Type (0, 1), BuildingBlock: XUDNAN_clean_linker_2, # of connection points: 2
#     Edge 66, Type (0, 1), BuildingBlock: XUDNAN_clean_linker_2, # of connection points: 2
#     Edge 67, Type (0, 1), BuildingBlock: XUDNAN_clean_linker_2, # of connection points: 2
#     Edge 68, Type (0, 1), BuildingBlock: XUDNAN_clean_linker_2, # of connection points: 2
#     Edge 69, Type (0, 1), BuildingBlock: XUDNAN_clean_linker_2, # of connection points: 2
#     Edge 70, Type (0, 1), BuildingBlock: XUDNAN_clean_linker_2, # of connection points: 2
#     Edge 71, Type (0, 1), BuildingBlock: XUDNAN_clean_linker_2, # of connection points: 2
#     Edge 72, Type (0, 1), BuildingBlock: XUDNAN_clean_linker_2, # of connection points: 2
#     Edge 73, Type (0, 1), BuildingBlock: XUDNAN_clean_linker_2, # of connection points: 2
#     Edge 74, Type (0, 1), BuildingBlock: XUDNAN_clean_linker_2, # of connection points: 2
#     Edge 75, Type (0, 1), BuildingBlock: XUDNAN_clean_linker_2, # of connection points: 2
#     Edge 76, Type (0, 1), BuildingBlock: XUDNAN_clean_linker_2, # of connection points: 2
#     Edge 77, Type (0, 1), BuildingBlock: XUDNAN_clean_linker_2, # of connection points: 2
#     Edge 78, Type (0, 1), BuildingBlock: XUDNAN_clean_linker_2, # of connection points: 2
#     Edge 79, Type (0, 1), BuildingBlock: XUDNAN_clean_linker_2, # of connection points: 2
#     Edge 80, Type (0, 1), BuildingBlock: XUDNAN_clean_linker_2, # of connection points: 2
#     Edge 81, Type (0, 1), BuildingBlock: XUDNAN_clean_linker_2, # of connection points: 2
#     Edge 82, Type (0, 1), BuildingBlock: XUDNAN_clean_linker_2, # of connection points: 2
#     Edge 83, Type (0, 1), BuildingBlock: XUDNAN_clean_linker_2, # of connection points: 2
#     Edge 84, Type (0, 1), BuildingBlock: XUDNAN_clean_linker_2, # of connection points: 2
#     Edge 85, Type (0, 1), BuildingBlock: XUDNAN_clean_linker_2, # of connection points: 2
#     Edge 86, Type (0, 1), BuildingBlock: XUDNAN_clean_linker_2, # of connection points: 2
#     Edge 87, Type (0, 1), BuildingBlock: XUDNAN_clean_linker_2, # of connection points: 2
#     Edge 88, Type (0, 1), BuildingBlock: XUDNAN_clean_linker_2, # of connection points: 2
#     Edge 89, Type (0, 1), BuildingBlock: XUDNAN_clean_linker_2, # of connection points: 2
#     Edge 90, Type (0, 1), BuildingBlock: XUDNAN_clean_linker_2, # of connection points: 2
#     Edge 91, Type (0, 1), BuildingBlock: XUDNAN_clean_linker_2, # of connection points: 2
#     Edge 92, Type (0, 1), BuildingBlock: XUDNAN_clean_linker_2, # of connection points: 2
#     Edge 93, Type (0, 1), BuildingBlock: XUDNAN_clean_linker_2, # of connection points: 2
#     Edge 94, Type (0, 1), BuildingBlock: XUDNAN_clean_linker_2, # of connection points: 2
#     Edge 95, Type (0, 1), BuildingBlock: XUDNAN_clean_linker_2, # of connection points: 2
#     Edge 96, Type (0, 1), BuildingBlock: XUDNAN_clean_linker_2, # of connection points: 2
#     Edge 97, Type (0, 1), BuildingBlock: XUDNAN_clean_linker_2, # of connection points: 2
#     Edge 98, Type (0, 1), BuildingBlock: XUDNAN_clean_linker_2, # of connection points: 2
#     Edge 99, Type (0, 1), BuildingBlock: XUDNAN_clean_linker_2, # of connection points: 2
#     Edge 100, Type (0, 1), BuildingBlock: XUDNAN_clean_linker_2, # of connection points: 2
#     Edge 101, Type (0, 1), BuildingBlock: XUDNAN_clean_linker_2, # of connection points: 2
#     Edge 102, Type (0, 1), BuildingBlock: XUDNAN_clean_linker_2, # of connection points: 2
#     Edge 103, Type (0, 1), BuildingBlock: XUDNAN_clean_linker_2, # of connection points: 2
#     Edge 104, Type (0, 1), BuildingBlock: XUDNAN_clean_linker_2, # of connection points: 2
#     Edge 105, Type (0, 1), BuildingBlock: XUDNAN_clean_linker_2, # of connection points: 2
#     Edge 106, Type (0, 1), BuildingBlock: XUDNAN_clean_linker_2, # of connection points: 2
#     Edge 107, Type (0, 1), BuildingBlock: XUDNAN_clean_linker_2, # of connection points: 2
#     Edge 108, Type (0, 1), BuildingBlock: XUDNAN_clean_linker_2, # of connection points: 2
#     Edge 109, Type (0, 1), BuildingBlock: XUDNAN_clean_linker_2, # of connection points: 2
#     Edge 110, Type (0, 1), BuildingBlock: XUDNAN_clean_linker_2, # of connection points: 2
#     Edge 111, Type (0, 1), BuildingBlock: XUDNAN_clean_linker_2, # of connection points: 2
#     Edge 112, Type (0, 1), BuildingBlock: XUDNAN_clean_linker_2, # of connection points: 2
#     Edge 113, Type (0, 1), BuildingBlock: XUDNAN_clean_linker_2, # of connection points: 2
#     Edge 114, Type (0, 1), BuildingBlock: XUDNAN_clean_linker_2, # of connection points: 2
#     Edge 115, Type (0, 1), BuildingBlock: XUDNAN_clean_linker_2, # of connection points: 2
#     Edge 116, Type (0, 1), BuildingBlock: XUDNAN_clean_linker_2, # of connection points: 2
#     Edge 117, Type (0, 1), BuildingBlock: XUDNAN_clean_linker_2, # of connection points: 2
#     Edge 118, Type (0, 1), BuildingBlock: XUDNAN_clean_linker_2, # of connection points: 2
#     Edge 119, Type (0, 1), BuildingBlock: XUDNAN_clean_linker_2, # of connection points: 2
#     Edge 120, Type (0, 1), BuildingBlock: XUDNAN_clean_linker_2, # of connection points: 2
#     Edge 121, Type (0, 1), BuildingBlock: XUDNAN_clean_linker_2, # of connection points: 2
#     Edge 122, Type (0, 1), BuildingBlock: XUDNAN_clean_linker_2, # of connection points: 2
#     Edge 123, Type (0, 1), BuildingBlock: XUDNAN_clean_linker_2, # of connection points: 2
#     Edge 124, Type (0, 1), BuildingBlock: XUDNAN_clean_linker_2, # of connection points: 2
#     Edge 125, Type (0, 1), BuildingBlock: XUDNAN_clean_linker_2, # of connection points: 2
#     Edge 126, Type (0, 1), BuildingBlock: XUDNAN_clean_linker_2, # of connection points: 2
#     Edge 127, Type (0, 1), BuildingBlock: XUDNAN_clean_linker_2, # of connection points: 2
#     Edge 128, Type (0, 1), BuildingBlock: XUDNAN_clean_linker_2, # of connection points: 2
#     Edge 129, Type (0, 1), BuildingBlock: XUDNAN_clean_linker_2, # of connection points: 2
#     Edge 130, Type (0, 1), BuildingBlock: XUDNAN_clean_linker_2, # of connection points: 2
#     Edge 131, Type (0, 1), BuildingBlock: XUDNAN_clean_linker_2, # of connection points: 2
#     Edge 132, Type (0, 1), BuildingBlock: XUDNAN_clean_linker_2, # of connection points: 2
#     Edge 133, Type (0, 1), BuildingBlock: XUDNAN_clean_linker_2, # of connection points: 2
#     Edge 134, Type (0, 1), BuildingBlock: XUDNAN_clean_linker_2, # of connection points: 2
#     Edge 135, Type (0, 1), BuildingBlock: XUDNAN_clean_linker_2, # of connection points: 2
# Relax obj value: 0.110
# Max RMSD: 0.291
# Mean RMSD: 0.155
data_MOF--net-gar--node1-TATPOV_clean_sbu_0--node2-MIFKUJ_clean_sbu_0--edge1-XUDNAN_clean_linker_2
_symmetry_space_group_name_H-M    P1
_symmetry_Int_Tables_number       1
_symmetry_cell_setting            triclinic
loop_
_symmetry_equiv_pos_as_xyz
'x, y, z'
_cell_length_a     56.020777
_cell_length_b     56.068388
_cell_length_c     54.17091
_cell_angle_alpha  94.952163
_cell_angle_beta   95.396347
_cell_angle_gamma 101.1451
loop_
_atom_site_label
_atom_site_type_symbol
_atom_site_fract_x
_atom_site_fract_y
_atom_site_fract_z
_atom_type_partial_charge
Zn0 Zn 0.01181 0.28261 0.46951 0.0
Zn1 Zn 0.03721 0.27063 0.4346 0.0
O2 O 0.05177 0.30694 0.44735 0.0
O3 O 0.03703 0.31232 0.48313 0.0
O4 O 0.06067 0.26004 0.41191 0.0
O5 O 0.01021 0.25188 0.48584 0.0
O6 O 0.03563 0.24421 0.45914 0.0
C7 C 0.05069 0.32053 0.46721 0.0
C8 C 0.98767 0.27885 0.41863 0.0
O9 O 0.00543 0.26944 0.41233 0.0
O10 O 0.98687 0.28649 0.44118 0.0
C11 C 0.06398 0.26586 0.39013 0.0
O12 O 0.05154 0.28098 0.38027 0.0
C13 C 0.02407 0.2385 0.47766 0.0
Zn14 Zn 0.98707 0.70663 0.67117 0.0
Zn15 Zn 0.99775 0.74915 0.65117 0.0
O16 O 0.9681 0.7525 0.67033 0.0
O17 O 0.96152 0.719 0.68937 0.0
O18 O 0.00296 0.77924 0.63294 0.0
O19 O 0.0221 0.71478 0.68754 0.0
O20 O 0.02975 0.75093 0.6735 0.0
C21 C 0.95656 0.73947 0.68527 0.0
C22 C 0.9859 0.69908 0.61886 0.0
O23 O 0.99359 0.7221 0.62238 0.0
O24 O 0.97938 0.68732 0.63686 0.0
C25 C 0.01646 0.78052 0.61529 0.0
O26 O 0.02819 0.76283 0.61037 0.0
C27 C 0.0366 0.73492 0.68631 0.0
Zn28 Zn 0.49644 0.77137 0.95578 0.0
Zn29 Zn 0.52918 0.76723 0.92403 0.0
O30 O 0.53873 0.80366 0.93797 0.0
O31 O 0.51287 0.80634 0.96588 0.0
O32 O 0.5551 0.76165 0.90191 0.0
O33 O 0.50511 0.74575 0.97589 0.0
O34 O 0.53125 0.741 0.94887 0.0
C35 C 0.53046 0.81618 0.95474 0.0
C36 C 0.47565 0.76035 0.90408 0.0
O37 O 0.49779 0.76178 0.89979 0.0
O38 O 0.47029 0.76277 0.92624 0.0
C39 C 0.55852 0.77167 0.882 0.0
O40 O 0.54499 0.7872 0.87523 0.0
C41 C 0.52121 0.73489 0.96823 0.0
Zn42 Zn 0.50093 0.22738 0.18953 0.0
Zn43 Zn 0.49145 0.24736 0.14774 0.0
O44 O 0.46775 0.25639 0.17247 0.0
O45 O 0.4766 0.24147 0.20767 0.0
O46 O 0.48314 0.26679 0.11981 0.0
O47 O 0.5358 0.2455 0.19325 0.0
O48 O 0.52851 0.25995 0.15736 0.0
C49 C 0.46408 0.25355 0.195 0.0
C50 C 0.48609 0.19278 0.14419 0.0
O51 O 0.48468 0.21158 0.13295 0.0
O52 O 0.49172 0.19503 0.16764 0.0
C53 C 0.49771 0.27631 0.10507 0.0
O54 O 0.52 0.272 0.10617 0.0
C55 C 0.5433 0.25782 0.176 0.0
Zn56 Zn 0.05308 0.77498 0.11631 0.0
Zn57 Zn 0.02276 0.77744 0.15243 0.0
O58 O 0.01613 0.80349 0.12971 0.0
O59 O 0.04105 0.80246 0.10074 0.0
O60 O 0.997 0.77746 0.17602 0.0
O61 O 0.03668 0.73988 0.10518 0.0
O62 O 0.01514 0.7418 0.13702 0.0
C63 C 0.02457 0.81149 0.11029 0.0
C64 C 0.07712 0.78576 0.16783 0.0
O65 O 0.05575 0.78574 0.17398 0.0
O66 O 0.08034 0.78165 0.1451 0.0
C67 C 0.00024 0.78107 0.19971 0.0
O68 O 0.02256 0.78582 0.21131 0.0
C69 C 0.02135 0.72956 0.11865 0.0
Zn70 Zn 0.47407 0.74424 0.41291 0.0
Zn71 Zn 0.50822 0.74083 0.38165 0.0
O72 O 0.51717 0.7767 0.39574 0.0
O73 O 0.48796 0.7804 0.41942 0.0
O74 O 0.53358 0.73855 0.35821 0.0
O75 O 0.48791 0.7217 0.43446 0.0
O76 O 0.51351 0.71635 0.40693 0.0
C77 C 0.50697 0.78986 0.41003 0.0
C78 C 0.45375 0.72991 0.36197 0.0
O79 O 0.47622 0.73336 0.35839 0.0
O80 O 0.44775 0.73176 0.38393 0.0
C81 C 0.53549 0.75283 0.34117 0.0
O82 O 0.52056 0.76817 0.33925 0.0
C83 C 0.50477 0.71163 0.42728 0.0
Zn84 Zn 0.57573 0.28031 0.63562 0.0
Zn85 Zn 0.53365 0.27587 0.65744 0.0
O86 O 0.53446 0.30434 0.63569 0.0
O87 O 0.56684 0.30602 0.61524 0.0
O88 O 0.50141 0.27609 0.67101 0.0
O89 O 0.56417 0.24541 0.62055 0.0
O90 O 0.52935 0.2423 0.63731 0.0
C91 C 0.54764 0.31352 0.6196 0.0
C92 C 0.58269 0.28675 0.68979 0.0
O93 O 0.55942 0.28086 0.68793 0.0
O94 O 0.59369 0.28888 0.67045 0.0
C95 C 0.49364 0.26872 0.6909 0.0
O96 O 0.50744 0.2584 0.70588 0.0
C97 C 0.54343 0.23318 0.62374 0.0
Zn98 Zn 0.9706 0.2428 0.90187 0.0
Zn99 Zn 0.00776 0.24164 0.87411 0.0
O100 O 0.02003 0.27524 0.89327 0.0
O101 O 0.98895 0.27738 0.91489 0.0
O102 O 0.03297 0.2364 0.85153 0.0
O103 O 0.97774 0.2141 0.9191 0.0
O104 O 0.00771 0.21325 0.89579 0.0
C105 C 0.00963 0.28706 0.90868 0.0
C106 C 0.95533 0.23942 0.84984 0.0
O107 O 0.97824 0.24175 0.84886 0.0
O108 O 0.9466 0.23772 0.87048 0.0
C109 C 0.04673 0.25322 0.84223 0.0
O110 O 0.04552 0.27615 0.8481 0.0
C111 C 0.99534 0.20469 0.91274 0.0
Zn112 Zn 0.42305 0.00234 0.28353 0.0
Zn113 Zn 0.39029 0.03199 0.28064 0.0
O114 O 0.40961 0.04387 0.31518 0.0
O115 O 0.43649 0.01984 0.31752 0.0
O116 O 0.36765 0.05564 0.27646 0.0
O117 O 0.43722 0.01366 0.25303 0.0
O118 O 0.40974 0.03685 0.2502 0.0
C119 C 0.4275 0.03711 0.32691 0.0
C120 C 0.37235 0.97687 0.27763 0.0
O121 O 0.36755 0.9982 0.27872 0.0
O122 O 0.39427 0.97396 0.27889 0.0
C123 C 0.34576 0.05248 0.28194 0.0
O124 O 0.33642 0.03247 0.29152 0.0
C125 C 0.42742 0.02871 0.24164 0.0
Zn126 Zn 0.224 0.16544 0.49639 0.0
Zn127 Zn 0.26045 0.14204 0.50569 0.0
O128 O 0.27177 0.16437 0.47828 0.0
O129 O 0.24259 0.1855 0.47315 0.0
O130 O 0.2871 0.12232 0.50996 0.0
O131 O 0.22864 0.17814 0.53283 0.0
O132 O 0.26044 0.16095 0.54027 0.0
C133 C 0.26293 0.18097 0.46812 0.0
C134 C 0.20756 0.11427 0.48709 0.0
O135 O 0.22943 0.11481 0.49637 0.0
O136 O 0.20043 0.1339 0.48355 0.0
C137 C 0.28802 0.10621 0.4922 0.0
O138 O 0.27217 0.10361 0.47219 0.0
C139 C 0.24593 0.17428 0.5478 0.0
Zn140 Zn 0.11214 0.0365 0.78488 0.0
Zn141 Zn 0.14071 0.00351 0.7912 0.0
O142 O 0.11788 0.99814 0.81925 0.0
O143 O 0.09655 0.02708 0.81561 0.0
O144 O 0.16119 0.97723 0.79328 0.0
O145 O 0.09783 0.0202 0.75074 0.0
O146 O 0.12345 0.99525 0.75508 0.0
C147 C 0.10175 0.00948 0.82675 0.0
C148 C 0.16365 0.05804 0.79287 0.0
O149 O 0.16601 0.03633 0.79608 0.0
O150 O 0.14266 0.06264 0.78737 0.0
C151 C 0.18422 0.98143 0.7996 0.0
O152 O 0.19598 0.00399 0.80652 0.0
C153 C 0.10704 0.00291 0.74178 0.0
Zn154 Zn 0.28349 0.85015 0.99465 0.0
Zn155 Zn 0.25282 0.87673 0.00982 0.0
O156 O 0.23344 0.85674 0.97773 0.0
O157 O 0.25738 0.83088 0.96932 0.0
O158 O 0.23007 0.89784 0.02183 0.0
O159 O 0.2875 0.83771 0.02797 0.0
O160 O 0.25804 0.85597 0.03877 0.0
C161 C 0.23759 0.83817 0.96489 0.0
C162 C 0.30156 0.90059 0.99255 0.0
O163 O 0.28288 0.90229 0.00376 0.0
O164 O 0.30569 0.87987 0.98533 0.0
C165 C 0.21966 0.90906 0.00597 0.0
O166 O 0.22398 0.90628 0.98258 0.0
C167 C 0.27283 0.84184 0.04343 0.0
Zn168 Zn 0.28503 0.3484 0.03862 0.0
Zn169 Zn 0.25748 0.38314 0.04163 0.0
O170 O 0.24714 0.36465 0.00622 0.0
O171 O 0.26809 0.33525 0.00441 0.0
O172 O 0.23532 0.40771 0.04505 0.0
O173 O 0.27235 0.33452 0.06919 0.0
O174 O 0.25043 0.36309 0.07132 0.0
C175 C 0.25274 0.34628 0.99422 0.0
C176 C 0.31275 0.39874 0.04377 0.0
O177 O 0.29198 0.40456 0.04495 0.0
O178 O 0.31441 0.37644 0.04116 0.0
C179 C 0.22275 0.4137 0.02666 0.0
O180 O 0.22424 0.40409 0.00403 0.0
C181 C 0.25726 0.34471 0.07992 0.0
Zn182 Zn 0.76049 0.18037 0.04544 0.0
Zn183 Zn 0.79261 0.15105 0.04355 0.0
O184 O 0.79908 0.1701 0.01335 0.0
O185 O 0.76999 0.19154 0.01285 0.0
O186 O 0.81464 0.1267 0.04337 0.0
O187 O 0.77943 0.19833 0.07673 0.0
O188 O 0.80383 0.17189 0.07746 0.0
C189 C 0.78789 0.18519 0.0033 0.0
C190 C 0.73719 0.13071 0.04203 0.0
O191 O 0.75895 0.12812 0.03961 0.0
O192 O 0.73269 0.15183 0.04641 0.0
C193 C 0.82059 0.11585 0.024 0.0
O194 O 0.81331 0.12142 0.00185 0.0
C195 C 0.79722 0.19072 0.08724 0.0
Zn196 Zn 0.11451 0.54845 0.23816 0.0
Zn197 Zn 0.13004 0.50893 0.24936 0.0
O198 O 0.11269 0.51674 0.27965 0.0
O199 O 0.10343 0.55207 0.27221 0.0
O200 O 0.14103 0.47773 0.25548 0.0
O201 O 0.08979 0.52963 0.21107 0.0
O202 O 0.10539 0.49726 0.21777 0.0
C203 C 0.1035 0.53509 0.28615 0.0
C204 C 0.16607 0.55525 0.24016 0.0
O205 O 0.16188 0.5342 0.24795 0.0
O206 O 0.14838 0.56469 0.23239 0.0
C207 C 0.15811 0.47403 0.27095 0.0
O208 O 0.17155 0.49244 0.28585 0.0
C209 C 0.09005 0.5073 0.20581 0.0
Zn210 Zn 0.79576 0.85431 0.54405 0.0
Zn211 Zn 0.76421 0.88511 0.54403 0.0
O212 O 0.75873 0.86829 0.50785 0.0
O213 O 0.78438 0.84301 0.50784 0.0
O214 O 0.74054 0.90829 0.54418 0.0
O215 O 0.77847 0.83613 0.56955 0.0
O216 O 0.75401 0.86257 0.57157 0.0
C217 C 0.76805 0.85207 0.49647 0.0
C218 C 0.81952 0.9051 0.55498 0.0
O219 O 0.79767 0.90846 0.55132 0.0
O220 O 0.8236 0.8836 0.55393 0.0
C221 C 0.71941 0.90211 0.53191 0.0
O222 O 0.71296 0.88027 0.51945 0.0
C223 C 0.76106 0.84372 0.57879 0.0
Zn224 Zn 0.92914 0.98617 0.26059 0.0
Zn225 Zn 0.90065 0.01871 0.25673 0.0
O226 O 0.9175 0.02511 0.2933 0.0
O227 O 0.94309 -7e-05 0.29548 0.0
O228 O 0.88031 0.04498 0.25543 0.0
O229 O 0.94554 0.99724 0.23102 0.0
O230 O 0.92347 0.02564 0.22878 0.0
C231 C 0.93382 0.01654 0.30577 0.0
C232 C 0.87776 0.96418 0.25136 0.0
O233 O 0.87504 0.98607 0.24984 0.0
O234 O 0.8989 0.9597 0.25617 0.0
C235 C 0.85945 0.04246 0.26353 0.0
O236 O 0.85051 0.02203 0.27259 0.0
C237 C 0.93995 0.01513 0.22072 0.0
Zn238 Zn 0.25345 0.67008 0.54577 0.0
Zn239 Zn 0.28601 0.64695 0.53035 0.0
O240 O 0.28541 0.67346 0.50602 0.0
O241 O 0.2541 0.68896 0.51658 0.0
O242 O 0.31167 0.62851 0.51996 0.0
O243 O 0.2753 0.68559 0.57606 0.0
O244 O 0.30009 0.66096 0.56663 0.0
C245 C 0.27101 0.68829 0.50281 0.0
C246 C 0.23381 0.61972 0.53481 0.0
O247 O 0.25438 0.62015 0.52647 0.0
O248 O 0.22907 0.63882 0.54571 0.0
C249 C 0.30873 0.61258 0.50113 0.0
O250 O 0.288 0.60797 0.48641 0.0
C251 C 0.29446 0.67749 0.58132 0.0
Zn252 Zn 0.41518 0.47149 0.75991 0.0
Zn253 Zn 0.39473 0.50972 0.75333 0.0
O254 O 0.41491 0.51894 0.78779 0.0
O255 O 0.43165 0.48715 0.79348 0.0
O256 O 0.38027 0.53949 0.7485 0.0
O257 O 0.43182 0.47546 0.72932 0.0
O258 O 0.41448 0.50678 0.72271 0.0
C259 C 0.42832 0.50805 0.8013 0.0
C260 C 0.36284 0.45909 0.75461 0.0
O261 O 0.36448 0.48198 0.75371 0.0
O262 O 0.38184 0.45005 0.75669 0.0
C263 C 0.36551 0.54651 0.76267 0.0
O264 O 0.35896 0.53376 0.78104 0.0
C265 C 0.42815 0.49218 0.71609 0.0
Zn266 Zn 0.61692 0.04315 0.74335 0.0
Zn267 Zn 0.63671 0.00542 0.74978 0.0
O268 O 0.61416 0.00696 0.77747 0.0
O269 O 0.60461 0.04323 0.77694 0.0
O270 O 0.65407 0.97791 0.75733 0.0
O271 O 0.59516 0.02333 0.7146 0.0
O272 O 0.61607 0.99389 0.71561 0.0
C273 C 0.60376 0.02343 0.78669 0.0
C274 C 0.66758 0.05641 0.74499 0.0
O275 O 0.6658 0.03491 0.75154 0.0
O276 O 0.64862 0.06432 0.73827 0.0
C277 C 0.6609 0.97533 0.77985 0.0
O278 O 0.65598 0.99025 0.79785 0.0
C279 C 0.59887 0.00299 0.7055 0.0
Zn280 Zn 0.7249 0.67027 0.00615 0.0
Zn281 Zn 0.75728 0.64041 0.00252 0.0
O282 O 0.76628 0.66454 0.97636 0.0
O283 O 0.74334 0.69176 0.98332 0.0
O284 O 0.78233 0.61893 0.00166 0.0
O285 O 0.7346 0.67718 0.04349 0.0
O286 O 0.7625 0.65479 0.03932 0.0
C287 C 0.75977 0.68448 0.97195 0.0
C288 C 0.70277 0.61968 0.98899 0.0
O289 O 0.72454 0.61643 0.99356 0.0
O290 O 0.69813 0.64094 0.99161 0.0
C291 C 0.78142 0.60128 0.98496 0.0
O292 O 0.76359 0.5967 0.96657 0.0
C293 C 0.75208 0.66837 0.053 0.0
Zn294 Zn 0.93448 0.5032 0.78872 0.0
Zn295 Zn 0.90429 0.53476 0.78257 0.0
O296 O 0.92138 0.54718 0.81804 0.0
O297 O 0.94911 0.52418 0.82079 0.0
O298 O 0.8814 0.55745 0.77438 0.0
O299 O 0.94866 0.51012 0.75676 0.0
O300 O 0.92685 0.53877 0.75453 0.0
C301 C 0.93972 0.54129 0.82996 0.0
C302 C 0.88378 0.48018 0.78425 0.0
O303 O 0.88065 0.50159 0.78083 0.0
O304 O 0.90506 0.47594 0.78863 0.0
C305 C 0.86947 0.56675 0.79016 0.0
O306 O 0.87231 0.56209 0.81349 0.0
C307 C 0.94268 0.52763 0.74607 0.0
Zn308 Zn 0.77705 0.34972 0.50436 0.0
Zn309 Zn 0.74564 0.37819 0.51231 0.0
O310 O 0.7325 0.36214 0.47623 0.0
O311 O 0.75933 0.33867 0.47057 0.0
O312 O 0.72269 0.40089 0.52094 0.0
O313 O 0.76726 0.32985 0.53142 0.0
O314 O 0.74132 0.35365 0.53943 0.0
C315 C 0.74044 0.34623 0.46275 0.0
C316 C 0.8014 0.39882 0.51462 0.0
O317 O 0.77949 0.40182 0.51522 0.0
O318 O 0.80576 0.3776 0.51075 0.0
C319 C 0.72762 0.42378 0.51911 0.0
O320 O 0.74797 0.43334 0.51031 0.0
C321 C 0.75095 0.3354 0.5441 0.0
Zn322 Zn 0.60922 0.54547 0.2966 0.0
Zn323 Zn 0.63691 0.51284 0.28763 0.0
O324 O 0.61912 0.50194 0.31792 0.0
O325 O 0.59262 0.52602 0.32162 0.0
O326 O 0.65813 0.48782 0.28267 0.0
O327 O 0.59491 0.53958 0.26077 0.0
O328 O 0.61537 0.5103 0.25386 0.0
C329 C 0.60153 0.50826 0.32843 0.0
C330 C 0.66031 0.56665 0.30336 0.0
O331 O 0.662 0.54529 0.29468 0.0
O332 O 0.63974 0.57144 0.30725 0.0
C333 C 0.67479 0.48691 0.30003 0.0
O334 O 0.67758 0.50227 0.32033 0.0
C335 C 0.60007 0.52294 0.24613 0.0
Zn336 Zn 0.04307 0.01165 0.02987 0.0
Zn337 Zn 0.99153 0.0128 0.01473 0.0
C338 C 0.02966 0.96912 0.05336 0.0
O339 O 0.04403 0.98356 0.07142 0.0
C340 C 0.99491 0.05484 0.99038 0.0
O341 O 0.97657 0.03982 0.9768 0.0
O342 O 0.07861 0.00946 0.0366 0.0
O343 O 0.03771 0.01928 0.99435 0.0
O344 O 0.00325 0.99192 0.98745 0.0
C345 C 0.0854 0.9958 0.01979 0.0
O346 O 0.06988 0.98644 8e-05 0.0
O347 O 0.02575 0.97688 0.03232 0.0
C348 C 0.94768 0.02287 0.02766 0.0
O349 O 0.96385 0.03431 0.04605 0.0
O350 O 0.95473 0.01069 0.00981 0.0
O351 O 0.99846 0.00765 0.05111 0.0
O352 O 0.0335 0.03396 0.05722 0.0
O353 O 0.00553 0.04776 0.00935 0.0
C354 C 0.02252 0.00336 0.97962 0.0
C355 C 0.01387 0.02385 0.06527 0.0
Zn356 Zn 0.26467 0.76022 0.30167 0.0
Zn357 Zn 0.26233 0.75852 0.24754 0.0
C358 C 0.26354 0.70782 0.30515 0.0
O359 O 0.27647 0.71468 0.32697 0.0
C360 C 0.28778 0.80745 0.24887 0.0
O361 O 0.29889 0.79653 0.23229 0.0
O362 O 0.26767 0.76636 0.33892 0.0
O363 O 0.29863 0.77049 0.29111 0.0
O364 O 0.29024 0.74312 0.25828 0.0
C365 C 0.28793 0.76697 0.35189 0.0
O366 O 0.30731 0.76482 0.3407 0.0
O367 O 0.2562 0.72371 0.29261 0.0
C368 C 0.24757 0.77155 0.20033 0.0
O369 O 0.23685 0.7856 0.21438 0.0
O370 O 0.25903 0.7568 0.21045 0.0
O371 O 0.22965 0.74455 0.25723 0.0
O372 O 0.23578 0.7741 0.28757 0.0
O373 O 0.27115 0.79463 0.25926 0.0
C374 C 0.30554 0.75566 0.27552 0.0
C375 C 0.22149 0.76057 0.27002 0.0
Zn376 Zn 0.47466 0.01734 0.52137 0.0
Zn377 Zn 0.53665 0.99817 0.50422 0.0
C378 C 0.49683 0.06167 0.55407 0.0
O379 O 0.49642 0.04719 0.5719 0.0
C380 C 0.54009 0.96531 0.46245 0.0
O381 O 0.55814 0.98308 0.45907 0.0
O382 O 0.43846 0.01534 0.51193 0.0
O383 O 0.49203 0.00774 0.4927 0.0
O384 O 0.52846 0.02536 0.48532 0.0
C385 C 0.42787 0.0275 0.52685 0.0
O386 O 0.44008 0.03779 0.54823 0.0
O387 O 0.48896 0.05271 0.5318 0.0
C388 C 0.57701 0.97934 0.51948 0.0
O389 O 0.55849 0.9607 0.51766 0.0
O390 O 0.57277 0.00034 0.5158 0.0
O391 O 0.51574 0.99296 0.53253 0.0
O392 O 0.48268 0.99786 0.54963 0.0
O393 O 0.52711 0.96833 0.48002 0.0
C394 C 0.50553 0.0246 0.48317 0.0
C395 C 0.50244 0.98977 0.55021 0.0
Zn396 Zn 0.29486 0.25967 0.77454 0.0
Zn397 Zn 0.24071 0.26039 0.77464 0.0
C398 C 0.2845 0.23259 0.72627 0.0
O399 O 0.29988 0.22048 0.73676 0.0
C400 C 0.23278 0.29063 0.81563 0.0
O401 O 0.2225 0.29965 0.79673 0.0
O402 O 0.3309 0.26426 0.76983 0.0
O403 O 0.28866 0.29274 0.78746 0.0
O404 O 0.25829 0.28796 0.75757 0.0
C405 C 0.33648 0.2794 0.75406 0.0
O406 O 0.31977 0.29099 0.74538 0.0
O407 O 0.27875 0.25029 0.73908 0.0
C408 C 0.18984 0.23606 0.76043 0.0
O409 O 0.19846 0.21589 0.75863 0.0
O410 O 0.20467 0.25656 0.76454 0.0
O411 O 0.24826 0.22659 0.77076 0.0
O412 O 0.28383 0.2308 0.79358 0.0
O413 O 0.24339 0.27281 0.81122 0.0
C414 C 0.27517 0.30189 0.77231 0.0
C415 C 0.26369 0.2174 0.7836 0.0
Zn416 Zn 0.01905 0.97356 0.52043 0.0
Zn417 Zn 0.02134 0.02739 0.52619 0.0
C418 C 0.05287 0.97164 0.56204 0.0
O419 O 0.06079 0.95847 0.54453 0.0
C420 C 0.98952 0.03517 0.48535 0.0
O421 O 0.98264 0.04804 0.50383 0.0
O422 O 0.01552 0.93688 0.51587 0.0
O423 O 0.98483 0.98022 0.51866 0.0
O424 O 0.99539 0.01236 0.54669 0.0
C425 C 0.00391 0.9269 0.53263 0.0
O426 O 0.9938 0.94057 0.54769 0.0
O427 O 0.035 0.98182 0.55619 0.0
C428 C 0.04015 0.07649 0.52083 0.0
O429 O 0.04962 0.06549 0.50288 0.0
O430 O 0.0278 0.06358 0.5352 0.0
O431 O 0.05452 0.01834 0.52844 0.0
O432 O 0.04267 0.98927 0.49754 0.0
O433 O 0.00617 0.02311 0.49012 0.0
C434 C 0.97934 0.99456 0.5357 0.0
C435 C 0.05929 0.00616 0.50931 0.0
Zn436 Zn 0.2607 0.78497 0.76682 0.0
Zn437 Zn 0.27449 0.73298 0.78229 0.0
C438 C 0.2134 0.77599 0.7378 0.0
O439 O 0.22377 0.79442 0.72647 0.0
C440 C 0.31467 0.74969 0.81526 0.0
O441 O 0.29953 0.7344 0.82646 0.0
O442 O 0.26146 0.82156 0.76831 0.0
O443 O 0.26661 0.77839 0.80288 0.0
O444 O 0.25049 0.7397 0.80545 0.0
C445 C 0.24334 0.82792 0.77777 0.0
O446 O 0.22667 0.81112 0.7853 0.0
O447 O 0.22597 0.76824 0.75496 0.0
C448 C 0.30313 0.6989 0.77142 0.0
O449 O 0.31502 0.71941 0.76463 0.0
O450 O 0.28313 0.69897 0.78092 0.0
O451 O 0.26103 0.73706 0.74805 0.0
O452 O 0.28243 0.77254 0.74226 0.0
O453 O 0.30689 0.75572 0.79438 0.0
C454 C 0.25219 0.76225 0.81257 0.0
C455 C 0.27568 0.74972 0.73557 0.0
Zn456 Zn 0.52155 0.03387 0.98566 0.0
Zn457 Zn 0.50682 0.01797 0.03633 0.0
C458 C 0.57476 0.04678 0.98317 0.0
O459 O 0.56907 0.05209 0.96054 0.0
C460 C 0.45889 0.99831 0.02046 0.0
O461 O 0.46513 0.98533 0.03814 0.0
O462 O 0.51792 0.03698 0.94855 0.0
O463 O 0.50762 0.99713 0.98744 0.0
O464 O 0.51947 0.98867 0.02521 0.0
C465 C 0.52532 0.01934 0.93735 0.0
O466 O 0.53526 0.0046 0.95065 0.0
O467 O 0.55807 0.03937 0.9967 0.0
C468 C 0.48218 0.03341 0.07552 0.0
O469 O 0.47379 0.04412 0.0569 0.0
O470 O 0.49761 0.01983 0.07179 0.0
O471 O 0.53167 0.04796 0.03433 0.0
O472 O 0.50875 0.06057 0.00612 0.0
O473 O 0.47489 0.01541 0.01428 0.0
C474 C 0.51433 0.98225 0.00192 0.0
C475 C 0.52087 0.06449 0.02762 0.0
Zn476 Zn 0.26507 0.24495 0.2666 0.0
Zn477 Zn 0.24619 0.28997 0.29275 0.0
C478 C 0.30576 0.26574 0.24215 0.0
O479 O 0.29051 0.25547 0.22252 0.0
C480 C 0.21108 0.26118 0.31707 0.0
O481 O 0.22603 0.27385 0.33582 0.0
O482 O 0.26616 0.20932 0.25758 0.0
O483 O 0.26097 0.24559 0.30324 0.0
O484 O 0.27343 0.28447 0.31731 0.0
C485 C 0.28665 0.20292 0.26171 0.0
O486 O 0.30628 0.21963 0.26991 0.0
O487 O 0.29849 0.26471 0.26362 0.0
C488 C 0.21421 0.31973 0.28606 0.0
O489 O 0.20611 0.29957 0.27097 0.0
O490 O 0.23376 0.32123 0.30075 0.0
O491 O 0.25436 0.2938 0.25798 0.0
O492 O 0.24138 0.25583 0.24123 0.0
O493 O 0.21625 0.26352 0.29494 0.0
C494 C 0.2722 0.26201 0.32033 0.0
C495 C 0.24472 0.27865 0.23935 0.0
Zn496 Zn 0.51713 0.47287 0.01823 0.0
Zn497 Zn 0.51856 0.52701 0.02042 0.0
C498 C 0.54412 0.48042 0.06741 0.0
O499 O 0.55453 0.46314 0.05804 0.0
C500 C 0.49063 0.53717 0.9783 0.0
O501 O 0.48314 0.55025 0.99619 0.0
O502 O 0.51248 0.43644 0.02042 0.0
O503 O 0.48391 0.47927 0.00811 0.0
O504 O 0.48943 0.5104 0.03698 0.0
C505 C 0.49647 0.42957 0.03492 0.0
O506 O 0.4857 0.44593 0.04554 0.0
O507 O 0.52798 0.48784 0.0537 0.0
C508 C 0.53912 0.57565 0.01632 0.0
O509 O 0.54886 0.56393 -0.00089 0.0
O510 O 0.52555 0.56334 0.03025 0.0
O511 O 0.55185 0.51748 0.02383 0.0
O512 O 0.5424 0.48535 0.99595 0.0
O513 O 0.50619 0.52415 0.98393 0.0
C514 C 0.47523 0.49221 0.02403 0.0
C515 C 0.55766 0.50416 0.00612 0.0
Zn516 Zn 0.75735 0.2986 0.26167 0.0
Zn517 Zn 0.79252 0.24411 0.29198 0.0
C518 C 0.71946 0.284 0.2195 0.0
O519 O 0.73785 0.28484 0.20602 0.0
C520 C 0.83767 0.27729 0.31306 0.0
O521 O 0.82756 0.29428 0.30365 0.0
O522 O 0.76087 0.33427 0.27455 0.0
O523 O 0.75999 0.27688 0.28877 0.0
O524 O 0.76724 0.2515 0.31511 0.0
C525 C 0.75138 0.34727 0.25983 0.0
O526 O 0.74335 0.33787 0.23681 0.0
O527 O 0.72372 0.28823 0.2431 0.0
C528 C 0.80896 0.2001 0.27846 0.0
O529 O 0.8298 0.21603 0.28156 0.0
O530 O 0.78921 0.2076 0.2814 0.0
O531 O 0.79124 0.26494 0.26302 0.0
O532 O 0.78221 0.29178 0.23854 0.0
O533 O 0.82569 0.25543 0.31104 0.0
C534 C 0.75603 0.26825 0.30915 0.0
C535 C 0.7937 0.27476 0.24288 0.0
Zn536 Zn 0.01479 0.52169 0.48718 0.0
Zn537 Zn 0.01484 0.52054 0.54055 0.0
C538 C 0.06655 0.54314 0.48943 0.0
O539 O 0.05896 0.55473 0.47112 0.0
C540 C 0.96701 0.49516 0.54121 0.0
O541 O 0.97972 0.48415 0.55656 0.0
O542 O 0.01341 0.52255 0.45039 0.0
O543 O 0.00134 0.48753 0.49365 0.0
O544 O 0.02837 0.49152 0.52656 0.0
C545 C 0.02687 0.51058 0.439 0.0
O546 O 0.03926 0.49701 0.45148 0.0
O547 O 0.05099 0.52871 0.49961 0.0
C548 C 0.00949 0.54245 0.5869 0.0
O549 O 0.00248 0.55706 0.57129 0.0
O550 O 0.01735 0.52394 0.5783 0.0
O551 O 0.02869 0.55445 0.53121 0.0
O552 O 0.99927 0.54883 0.50048 0.0
O553 O 0.97833 0.5125 0.5305 0.0
C554 C 0.01643 0.47857 0.50717 0.0
C555 C 0.01394 0.56312 0.51702 0.0
Zn556 Zn 0.79212 0.7611 0.2725 0.0
Zn557 Zn 0.73877 0.76626 0.26928 0.0
C558 C 0.78781 0.72523 0.232 0.0
O559 O 0.80021 0.7166 0.24976 0.0
C560 C 0.7421 0.77345 0.3247 0.0
O561 O 0.73391 0.74981 0.32401 0.0
O562 O 0.82878 0.76366 0.27606 0.0
O563 O 0.78765 0.7955 0.27705 0.0
O564 O 0.75647 0.79088 0.24817 0.0
C565 C 0.83863 0.7719 0.25748 0.0
O566 O 0.82486 0.77855 0.23939 0.0
O567 O 0.7808 0.7452 0.23707 0.0
C568 C 0.68832 0.74693 0.27118 0.0
O569 O 0.69794 0.73015 0.28158 0.0
O570 O 0.70231 0.76402 0.26237 0.0
O571 O 0.74437 0.73128 0.26781 0.0
O572 O 0.77676 0.73845 0.29574 0.0
O573 O 0.74595 0.78297 0.30461 0.0
C574 C 0.7756 0.80429 0.26033 0.0
C575 C 0.75758 0.72412 0.28494 0.0
Zn576 Zn 0.77256 0.26811 0.80488 0.0
Zn577 Zn 0.76048 0.26841 0.75166 0.0
C578 C 0.75664 0.21488 0.80268 0.0
O579 O 0.75321 0.21922 0.82616 0.0
C580 C 0.78132 0.31912 0.74845 0.0
O581 O 0.78691 0.31021 0.72701 0.0
O582 O 0.78218 0.26686 0.84143 0.0
O583 O 0.80279 0.28353 0.78994 0.0
O584 O 0.79144 0.25528 0.75813 0.0
C585 C 0.80054 0.25707 0.84613 0.0
O586 O 0.8126 0.25116 0.82766 0.0
O587 O 0.76399 0.23265 0.7904 0.0
C588 C 0.7365 0.27665 0.70558 0.0
O589 O 0.72742 0.29119 0.72074 0.0
O590 O 0.75103 0.26404 0.71467 0.0
O591 O 0.73011 0.25538 0.76748 0.0
O592 O 0.74232 0.28268 0.79998 0.0
O593 O 0.76964 0.30472 0.76207 0.0
C594 C 0.80837 0.26958 0.7726 0.0
C595 C 0.72507 0.26965 0.78486 0.0
Zn596 Zn 0.7613 0.73954 0.76488 0.0
Zn597 Zn 0.74934 0.78931 0.78686 0.0
C598 C 0.80336 0.75895 0.74225 0.0
O599 O 0.78807 0.74989 0.72226 0.0
C600 C 0.69704 0.77746 0.7853 0.0
O601 O 0.6988 0.79694 0.7732 0.0
O602 O 0.76519 0.70468 0.75631 0.0
O603 O 0.75353 0.74086 0.80054 0.0
O604 O 0.77374 0.77856 0.81105 0.0
C605 C 0.77976 0.69817 0.77269 0.0
O606 O 0.78957 0.71376 0.79216 0.0
O607 O 0.79553 0.7584 0.76352 0.0
C608 C 0.74984 0.84112 0.78484 0.0
O609 O 0.75884 0.83757 0.76364 0.0
O610 O 0.74635 0.82381 0.79862 0.0
O611 O 0.75387 0.78866 0.75038 0.0
O612 O 0.7386 0.74974 0.73827 0.0
O613 O 0.71629 0.76945 0.79127 0.0
C614 C 0.76686 0.75693 0.81667 0.0
C615 C 0.74319 0.77188 0.73346 0.0
Zn616 Zn 0.54175 0.50862 0.53749 0.0
Zn617 Zn 0.49424 0.51738 0.50624 0.0
C618 C 0.5276 0.46561 0.55903 0.0
O619 O 0.53706 0.48121 0.57863 0.0
C620 C 0.51769 0.55982 0.48878 0.0
O621 O 0.51012 0.54504 0.46819 0.0
O622 O 0.57718 0.51039 0.55164 0.0
O623 O 0.54515 0.51489 0.50181 0.0
O624 O 0.50904 0.49622 0.48276 0.0
C625 C 0.58517 0.49206 0.54266 0.0
O626 O 0.57061 0.47546 0.52661 0.0
O627 O 0.52593 0.47334 0.53772 0.0
C628 C 0.45313 0.53705 0.50677 0.0
O629 O 0.46711 0.54683 0.52741 0.0
O630 O 0.46069 0.52166 0.49233 0.0
O631 O 0.48926 0.50518 0.5392 0.0
O632 O 0.52286 0.5272 0.56026 0.0
O633 O 0.51434 0.5516 0.5096 0.0
C634 C 0.53218 0.50179 0.48316 0.0
C635 C 0.50077 0.51585 0.55971 0.0
Zn636 Zn 0.96891 0.51545 0.0247 0.0
Zn637 Zn 0.03345 0.49393 0.01224 0.0
C638 C 0.98428 0.55365 0.06523 0.0
O639 O 0.97915 0.53513 0.07842 0.0
C640 C 0.04367 0.45984 0.97452 0.0
O641 O 0.0617 0.47814 0.97244 0.0
O642 O 0.93353 0.51336 0.01094 0.0
O643 O 0.99054 0.50803 -0.00055 0.0
O644 O 0.02742 0.52041 0.99067 0.0
C645 C 0.92102 0.52386 0.02523 0.0
O646 O 0.9307 0.53216 0.04812 0.0
O647 O 0.98191 0.54975 0.04155 0.0
C648 C 0.07581 0.48023 0.03334 0.0
O649 O 0.0595 0.45975 0.03169 0.0
O650 O 0.06895 0.49949 0.02734 0.0
O651 O 0.00899 0.48837 0.03818 0.0
O652 O 0.97339 0.49253 0.05053 0.0
O653 O 0.02818 0.46281 0.98961 0.0
C654 C 0.00545 0.52326 0.98953 0.0
C655 C 0.99346 0.4851 0.054 0.0
H656 H 0.96797 0.17699 0.94307 0.0
H657 H 0.03662 0.18524 0.91053 0.0
H658 H 0.04646 0.1502 0.93136 0.0
H659 H 0.98979 0.15741 0.0027 0.0
H660 H 0.96153 0.1359 0.00358 0.0
H661 H 0.96138 0.16332 0.98853 0.0
H662 H 0.93986 0.1372 0.9478 0.0
H663 H 0.93996 0.10984 0.96274 0.0
H664 H 0.95362 0.11342 0.93414 0.0
H665 H 0.04784 0.11291 0.95458 0.0
H666 H 0.0384 0.07429 0.97428 0.0
H667 H 0.96795 0.0897 0.98894 0.0
C668 C 0.98525 0.17169 0.94057 0.0
C669 C 0.00159 0.18394 0.9253 0.0
C670 C 0.02382 0.17613 0.92219 0.0
C671 C 0.02966 0.15637 0.93409 0.0
C672 C 0.01306 0.14465 0.94898 0.0
C673 C 0.99123 0.15196 0.95208 0.0
C674 C 0.97548 0.13513 0.96716 0.0
C675 C 0.97184 0.14876 0.99196 0.0
C676 C 0.95078 0.12319 0.95204 0.0
C677 C 0.99147 0.11673 0.97145 0.0
C678 C 0.01339 0.12283 0.96144 0.0
C679 C 0.03084 0.1081 0.96267 0.0
C680 C 0.02543 0.08633 0.97394 0.0
C681 C 0.00263 0.07947 0.9832 0.0
C682 C 0.98564 0.09493 0.98222 0.0
H683 H 0.11822 0.76799 0.16287 0.0
H684 H 0.08233 0.8061 0.21674 0.0
H685 H 0.11606 0.805 0.24957 0.0
H686 H 0.13522 0.72692 0.20274 0.0
H687 H 0.1638 0.72587 0.19036 0.0
H688 H 0.13859 0.73242 0.17082 0.0
H689 H 0.16566 0.77316 0.16151 0.0
H690 H 0.191 0.7661 0.18044 0.0
H691 H 0.18163 0.79473 0.18715 0.0
H692 H 0.15476 0.79919 0.27644 0.0
H693 H 0.19253 0.78713 0.29469 0.0
H694 H 0.19843 0.74892 0.22308 0.0
C695 C 0.11765 0.77663 0.18143 0.0
C696 C 0.09791 0.7875 0.18722 0.0
C697 C 0.09748 0.79789 0.21192 0.0
C698 C 0.11653 0.79735 0.23063 0.0
C699 C 0.13555 0.78601 0.22431 0.0
C700 C 0.13605 0.77573 0.20026 0.0
C701 C 0.15721 0.76289 0.19836 0.0
C702 C 0.14815 0.7354 0.19009 0.0
C703 C 0.17492 0.77496 0.18084 0.0
C704 C 0.16857 0.76738 0.22511 0.0
C705 C 0.15626 0.78112 0.23985 0.0
C706 C 0.16438 0.78825 0.26507 0.0
C707 C 0.18575 0.7813 0.27529 0.0
C708 C 0.19824 0.76691 0.26038 0.0
C709 C 0.18919 0.75968 0.23512 0.0
H710 H 0.4916 0.8221 0.44239 0.0
H711 H 0.54365 0.81771 0.38843 0.0
H712 H 0.55746 0.86269 0.39503 0.0
H713 H 0.47383 0.87606 0.42527 0.0
H714 H 0.4715 0.8879 0.45677 0.0
H715 H 0.46643 0.85539 0.44842 0.0
H716 H 0.50007 0.85194 0.48354 0.0
H717 H 0.50499 0.8844 0.49218 0.0
H718 H 0.53028 0.87063 0.48462 0.0
H719 H 0.56495 0.90849 0.40739 0.0
H720 H 0.56656 0.95086 0.42571 0.0
H721 H 0.50873 0.92394 0.47045 0.0
C722 C 0.50599 0.8305 0.432 0.0
C723 C 0.51652 0.81643 0.41487 0.0
C724 C 0.53537 0.82818 0.40173 0.0
C725 C 0.54327 0.85368 0.40528 0.0
C726 C 0.53216 0.86702 0.42205 0.0
C727 C 0.51406 0.85577 0.43531 0.0
C728 C 0.50498 0.87405 0.45223 0.0
C729 C 0.47756 0.8733 0.44523 0.0
C730 C 0.51042 0.87001 0.47977 0.0
C731 C 0.52055 0.89744 0.44618 0.0
C732 C 0.53622 0.89312 0.42886 0.0
C733 C 0.55271 0.91209 0.42092 0.0
C734 C 0.55341 0.93606 0.43133 0.0
C735 C 0.53765 0.94069 0.44936 0.0
C736 C 0.52086 0.92108 0.45653 0.0
H737 H 0.46907 0.25363 0.73063 0.0
H738 H 0.46355 0.29341 0.66561 0.0
H739 H 0.42393 0.30154 0.67605 0.0
H740 H 0.4053 0.2251 0.72577 0.0
H741 H 0.40371 0.22758 0.75895 0.0
H742 H 0.4322 0.22533 0.74696 0.0
H743 H 0.45354 0.26551 0.77403 0.0
H744 H 0.42506 0.26795 0.78601 0.0
H745 H 0.44135 0.29277 0.77123 0.0
H746 H 0.38559 0.30602 0.69321 0.0
H747 H 0.3486 0.30405 0.71452 0.0
H748 H 0.37717 0.26021 0.76806 0.0
C749 C 0.45953 0.26407 0.71862 0.0
C750 C 0.46954 0.27293 0.69733 0.0
C751 C 0.45637 0.28642 0.68203 0.0
C752 C 0.43384 0.29122 0.68783 0.0
C753 C 0.42459 0.28239 0.70896 0.0
C754 C 0.43683 0.26895 0.72406 0.0
C755 C 0.42228 0.26114 0.74532 0.0
C756 C 0.41547 0.23312 0.74417 0.0
C757 C 0.4364 0.27253 0.77065 0.0
C758 C 0.39986 0.27203 0.73952 0.0
C759 C 0.40186 0.28448 0.71864 0.0
C760 C 0.38375 0.29629 0.70955 0.0
C761 C 0.3628 0.29509 0.72189 0.0
C762 C 0.3599 0.28191 0.74297 0.0
C763 C 0.37883 0.27039 0.752 0.0
H764 H 0.99531 0.82057 0.62099 0.0
H765 H 0.03929 0.78573 0.57291 0.0
H766 H 0.03892 0.81814 0.54484 0.0
H767 H 0.95734 0.83984 0.57275 0.0
H768 H 0.9567 0.8686 0.59006 0.0
H769 H 0.9603 0.84261 0.60636 0.0
H770 H 0.0004 0.86764 0.63137 0.0
H771 H 0.99669 0.89376 0.6154 0.0
H772 H 0.02461 0.88237 0.61481 0.0
H773 H 0.03406 0.85491 0.52219 0.0
H774 H 0.02692 0.89414 0.5083 0.0
H775 H 0.98558 0.90383 0.57104 0.0
C776 C 0.0049 0.81973 0.60458 0.0
C777 C 0.0173 0.80058 0.59914 0.0
C778 C 0.02969 0.80025 0.57751 0.0
C779 C 0.0295 0.81851 0.56138 0.0
C780 C 0.01686 0.83697 0.56715 0.0
C781 C 0.00492 0.83778 0.58833 0.0
C782 C 0.9932 0.85988 0.59068 0.0
C783 C 0.96523 0.85226 0.58991 0.0
C784 C 0.0044 0.87692 0.61447 0.0
C785 C 0.00033 0.87133 0.56749 0.0
C786 C 0.01394 0.8579 0.5541 0.0
C787 C 0.0233 0.86552 0.53246 0.0
C788 C 0.01908 0.88775 0.52465 0.0
C789 C 0.00562 0.902 0.5385 0.0
C790 C 0.99577 0.89331 0.55988 0.0
H791 H 0.4309 0.73099 0.90004 0.0
H792 H 0.47595 0.78539 0.86296 0.0
H793 H 0.43969 0.78767 0.83382 0.0
H794 H 0.39021 0.70088 0.84156 0.0
H795 H 0.36417 0.6946 0.85887 0.0
H796 H 0.39443 0.69494 0.87369 0.0
H797 H 0.38811 0.72706 0.90861 0.0
H798 H 0.35818 0.72733 0.89364 0.0
H799 H 0.38065 0.75545 0.90037 0.0
H800 H 0.39665 0.78755 0.81258 0.0
H801 H 0.35216 0.7821 0.79893 0.0
H802 H 0.33697 0.72774 0.85079 0.0
C803 C 0.43322 0.74279 0.88526 0.0
C804 C 0.456 0.75792 0.88352 0.0
C805 C 0.45856 0.77339 0.86421 0.0
C806 C 0.43808 0.77488 0.84772 0.0
C807 C 0.41549 0.76035 0.85058 0.0
C808 C 0.41319 0.74412 0.86849 0.0
C809 C 0.38695 0.73125 0.86863 0.0
C810 C 0.38375 0.70379 0.86018 0.0
C811 C 0.37796 0.73556 0.89433 0.0
C812 C 0.37455 0.74397 0.8493 0.0
C813 C 0.39117 0.76036 0.83862 0.0
C814 C 0.38353 0.77453 0.82064 0.0
C815 C 0.35827 0.77149 0.81315 0.0
C816 C 0.3411 0.75471 0.82399 0.0
C817 C 0.34953 0.74095 0.84231 0.0
H818 H 0.47626 0.17988 0.09307 0.0
H819 H 0.49518 0.15165 0.16302 0.0
H820 H 0.50452 0.11573 0.13996 0.0
H821 H 0.44852 0.1165 0.05879 0.0
H822 H 0.45932 0.12541 0.02996 0.0
H823 H 0.4509 0.14767 0.05174 0.0
H824 H 0.49375 0.17524 0.05207 0.0
H825 H 0.50259 0.15279 0.03092 0.0
H826 H 0.52069 0.16329 0.06054 0.0
H827 H 0.52233 0.09022 0.11142 0.0
H828 H 0.53453 0.06591 0.07713 0.0
H829 H 0.49804 0.1044 0.02357 0.0
C830 C 0.48159 0.16574 0.10348 0.0
C831 C 0.48539 0.16887 0.12991 0.0
C832 C 0.49236 0.14992 0.14284 0.0
C833 C 0.49781 0.12941 0.12992 0.0
C834 C 0.4955 0.1277 0.10404 0.0
C835 C 0.48649 0.1446 0.09078 0.0
C836 C 0.48606 0.13795 0.06287 0.0
C837 C 0.45962 0.13149 0.05008 0.0
C838 C 0.50171 0.15855 0.05091 0.0
C839 C 0.49756 0.11552 0.06281 0.0
C840 C 0.50322 0.11045 0.08693 0.0
C841 C 0.51698 0.09314 0.09237 0.0
C842 C 0.52402 0.07956 0.0726 0.0
C843 C 0.51632 0.08243 0.04748 0.0
C844 C 0.50338 0.10114 0.04252 0.0
H845 H 0.08307 0.28105 0.34776 0.0
H846 H 0.08745 0.22948 0.40255 0.0
H847 H 0.12141 0.2163 0.38316 0.0
H848 H 0.10169 0.24293 0.29432 0.0
H849 H 0.11922 0.26966 0.28345 0.0
H850 H 0.09214 0.2718 0.29838 0.0
H851 H 0.11752 0.30652 0.33053 0.0
H852 H 0.14445 0.30455 0.31556 0.0
H853 H 0.14452 0.30133 0.34839 0.0
H854 H 0.15931 0.21454 0.36392 0.0
H855 H 0.19853 0.22469 0.34594 0.0
H856 H 0.16923 0.27536 0.3018 0.0
C857 C 0.09072 0.26648 0.35521 0.0
C858 C 0.08257 0.25629 0.37666 0.0
C859 C 0.09338 0.23762 0.38616 0.0
C860 C 0.11258 0.22984 0.37514 0.0
C861 C 0.12065 0.24068 0.35444 0.0
C862 C 0.10997 0.25849 0.3444 0.0
C863 C 0.12398 0.26921 0.32395 0.0
C864 C 0.10832 0.26302 0.29852 0.0
C865 C 0.13317 0.29703 0.32999 0.0
C866 C 0.14496 0.25569 0.32513 0.0
C867 C 0.14243 0.23896 0.34254 0.0
C868 C 0.16113 0.22687 0.34959 0.0
C869 C 0.18328 0.23264 0.33928 0.0
C870 C 0.18633 0.25003 0.32189 0.0
C871 C 0.16673 0.26107 0.31412 0.0
H872 H 0.96524 0.98901 0.19198 0.0
H873 H 0.94221 0.05858 0.19969 0.0
H874 H 0.96299 0.07061 0.16284 0.0
H875 H 0.02452 0.01044 0.17078 0.0
H876 H 0.02183 0.98354 0.14911 0.0
H877 H 0.00706 0.98155 0.17722 0.0
H878 H 0.9651 0.96344 0.15113 0.0
H879 H 0.98009 0.96486 0.12325 0.0
H880 H 0.9545 0.97964 0.12633 0.0
H881 H 0.98572 0.07416 0.1239 0.0
H882 H 0.00382 0.06695 0.08444 0.0
H883 H 0.00983 0.99449 0.10234 0.0
C884 C 0.9648 0.00695 0.1862 0.0
C885 C 0.95233 0.02298 0.19889 0.0
C886 C 0.95175 0.04605 0.19031 0.0
C887 C 0.96361 0.05307 0.16949 0.0
C888 C 0.9758 0.03675 0.15745 0.0
C889 C 0.9762 0.01405 0.16542 0.0
C890 C 0.98876 -0.00105 0.14834 0.0
C891 C 0.01192 0.9933 0.1622 0.0
C892 C 0.97105 0.97535 0.13656 0.0
C893 C 0.99516 0.01651 0.12921 0.0
C894 C 0.988 0.03842 0.13493 0.0
C895 C 0.99154 0.05714 0.1194 0.0
C896 C 0.002 0.05302 0.09719 0.0
C897 C 0.00839 0.03029 0.0907 0.0
C898 C 0.00529 0.01207 0.10709 0.0
H899 H 0.30025 0.68891 0.4646 0.0
H900 H 0.24863 0.72686 0.4981 0.0
H901 H 0.25219 0.75528 0.466 0.0
H902 H 0.33906 0.74347 0.44409 0.0
H903 H 0.34318 0.72705 0.4152 0.0
H904 H 0.33906 0.71122 0.44256 0.0
H905 H 0.30228 0.68014 0.41821 0.0
H906 H 0.30652 0.69576 0.39084 0.0
H907 H 0.27724 0.69123 0.40288 0.0
H908 H 0.25659 0.77588 0.42777 0.0
H909 H 0.26204 0.78726 0.38521 0.0
H910 H 0.31213 0.73787 0.37741 0.0
C911 C 0.29006 0.70346 0.4654 0.0
C912 C 0.27418 0.70563 0.48383 0.0
C913 C 0.26085 0.72472 0.48408 0.0
C914 C 0.26287 0.74113 0.46605 0.0
C915 C 0.27842 0.73835 0.44797 0.0
C916 C 0.29185 0.72007 0.44748 0.0
C917 C 0.30553 0.71988 0.4247 0.0
C918 C 0.33336 0.72577 0.43209 0.0
C919 C 0.29739 0.6953 0.40819 0.0
C920 C 0.29711 0.74045 0.41226 0.0
C921 C 0.2816 0.75097 0.42607 0.0
C922 C 0.26922 0.7683 0.41702 0.0
C923 C 0.27237 0.77464 0.39292 0.0
C924 C 0.28795 0.76382 0.37846 0.0
C925 C 0.30091 0.74706 0.38851 0.0
H926 H 0.55405 0.01064 0.6897 0.0
H927 H 0.60747 0.96751 0.67077 0.0
H928 H 0.58215 0.95166 0.63053 0.0
H929 H 0.49792 0.96701 0.65617 0.0
H930 H 0.48482 0.99229 0.64698 0.0
H931 H 0.50396 0.99538 0.67624 0.0
H932 H 0.532 0.03365 0.66328 0.0
H933 H 0.51306 0.03068 0.63416 0.0
H934 H 0.54537 0.03129 0.63438 0.0
H935 H 0.55567 0.94745 0.58973 0.0
H936 H 0.5313 0.95585 0.55225 0.0
H937 H 0.49546 0.00181 0.59826 0.0
C938 C 0.56016 0.99735 0.67739 0.0
C939 C 0.58275 0.99037 0.6832 0.0
C940 C 0.59014 0.97299 0.66666 0.0
C941 C 0.57581 0.96384 0.64386 0.0
C942 C 0.55402 0.97191 0.63829 0.0
C943 C 0.54611 0.98809 0.6548 0.0
C944 C 0.52396 0.99662 0.6434 0.0
C945 C 0.50133 0.98726 0.65647 0.0
C946 C 0.52892 0.0247 0.64382 0.0
C947 C 0.52159 0.98413 0.61721 0.0
C948 C 0.53865 0.96942 0.61476 0.0
C949 C 0.54194 0.95848 0.59158 0.0
C950 C 0.52823 0.96352 0.57038 0.0
C951 C 0.51173 0.97958 0.57247 0.0
C952 C 0.50757 0.98904 0.59624 0.0
H953 H 0.26171 0.30825 0.96369 0.0
H954 H 0.22311 0.36838 0.96421 0.0
H955 H 0.21194 0.3592 0.91869 0.0
H956 H 0.28774 0.31806 0.90877 0.0
H957 H 0.28466 0.28621 0.89785 0.0
H958 H 0.2873 0.29565 0.93076 0.0
H959 H 0.24662 0.26567 0.93442 0.0
H960 H 0.24398 0.25589 0.90153 0.0
H961 H 0.21939 0.26724 0.91458 0.0
H962 H 0.20811 0.34567 0.87271 0.0
H963 H 0.21048 0.32797 0.82997 0.0
H964 H 0.25192 0.27681 0.8596 0.0
C965 C 0.2505 0.31924 0.95438 0.0
C966 C 0.24326 0.33905 0.9676 0.0
C967 C 0.22879 0.35306 0.95457 0.0
C968 C 0.22238 0.34799 0.92869 0.0
C969 C 0.23043 0.32876 0.91618 0.0
C970 C 0.24397 0.31445 0.92864 0.0
C971 C 0.25139 0.29562 0.91075 0.0
C972 C 0.27943 0.29911 0.91212 0.0
C973 C 0.23964 0.26956 0.91561 0.0
C974 C 0.24051 0.302 0.88616 0.0
C975 C 0.22831 0.32102 0.88971 0.0
C976 C 0.21741 0.33062 0.86973 0.0
C977 C 0.21896 0.32048 0.8455 0.0
C978 C 0.23141 0.30099 0.84141 0.0
C979 C 0.24224 0.29164 0.86209 0.0
H980 H 0.96433 0.99812 0.33819 0.0
H981 H 0.91892 0.05262 0.33457 0.0
H982 H 0.92875 0.06368 0.3801 0.0
H983 H 0.94703 0.97778 0.39545 0.0
H984 H 0.97697 0.97305 0.40642 0.0
H985 H 0.96737 0.97028 0.37345 0.0
H986 H 0.00562 0.00261 0.36741 0.0
H987 H 0.01542 0.00537 0.40035 0.0
H988 H 0.01156 0.03212 0.38545 0.0
H989 H 0.94225 0.06751 0.42627 0.0
H990 H 0.9593 0.06489 0.46936 0.0
H991 H 0.99592 0.00778 0.44265 0.0
C992 C 0.95664 0.0126 0.34685 0.0
C993 C 0.9409 0.02459 0.33273 0.0
C994 C 0.93107 0.04324 0.34494 0.0
C995 C 0.93652 0.04961 0.3708 0.0
C996 C 0.95181 0.03716 0.38415 0.0
C997 C 0.9618 0.01911 0.37257 0.0
C998 C 0.97717 0.00803 0.3912 0.0
C999 C 0.96649 0.98067 0.39165 0.0
C1000 C 0.00404 0.0123 0.38578 0.0
C1001 C 0.97434 0.02271 0.41515 0.0
C1002 C 0.95958 0.03935 0.41068 0.0
C1003 C 0.9539 0.05461 0.42996 0.0
C1004 C 0.96363 0.05291 0.4544 0.0
C1005 C 0.97897 0.03612 0.45942 0.0
C1006 C 0.98434 0.02084 0.43944 0.0
H1007 H 0.31184 0.72385 0.60204 0.0
H1008 H 0.30357 0.64823 0.61659 0.0
H1009 H 0.3072 0.66085 0.66167 0.0
H1010 H 0.35361 0.75045 0.66669 0.0
H1011 H 0.33931 0.77664 0.66767 0.0
H1012 H 0.34547 0.76287 0.63821 0.0
H1013 H 0.29989 0.75849 0.62165 0.0
H1014 H 0.29318 0.7711 0.65112 0.0
H1015 H 0.27663 0.74126 0.63769 0.0
H1016 H 0.29187 0.67808 0.6977 0.0
H1017 H 0.27393 0.70098 0.72872 0.0
H1018 H 0.29915 0.76811 0.69635 0.0
C1019 C 0.31266 0.71028 0.61499 0.0
C1020 C 0.30764 0.68518 0.6062 0.0
C1021 C 0.30791 0.66754 0.62317 0.0
C1022 C 0.3098 0.6746 0.64879 0.0
C1023 C 0.3123 0.69937 0.65688 0.0
C1024 C 0.31519 0.71721 0.64068 0.0
C1025 C 0.31429 0.74207 0.6538 0.0
C1026 C 0.33968 0.75901 0.65678 0.0
C1027 C 0.29483 0.75388 0.64025 0.0
C1028 C 0.3072 0.73481 0.67881 0.0
C1029 C 0.30626 0.71007 0.68007 0.0
C1030 C 0.29441 0.69774 0.69803 0.0
C1031 C 0.28415 0.71102 0.71562 0.0
C1032 C 0.28668 0.73671 0.71611 0.0
C1033 C 0.29837 0.74878 0.69737 0.0
H1034 H 0.59308 0.05681 0.82167 0.0
H1035 H 0.58023 0.9791 0.79757 0.0
H1036 H 0.55227 0.9709 0.82981 0.0
H1037 H 0.59611 0.04987 0.88621 0.0
H1038 H 0.58193 0.07534 0.89409 0.0
H1039 H 0.59874 0.07508 0.86741 0.0
H1040 H 0.56045 0.08096 0.83963 0.0
H1041 H 0.54336 0.08065 0.86623 0.0
H1042 H 0.53191 0.0594 0.83886 0.0
H1043 H 0.52806 0.97067 0.86542 0.0
H1044 H 0.51403 0.97756 0.90671 0.0
H1045 H 0.54269 0.05533 0.90881 0.0
C1046 C 0.58419 0.03811 0.82311 0.0
C1047 C 0.58859 0.01856 0.80711 0.0
C1048 C 0.57711 0.99428 0.80976 0.0
C1049 C 0.56098 0.9895 0.82777 0.0
C1050 C 0.55674 0.00919 0.84304 0.0
C1051 C 0.56835 0.03296 0.84127 0.0
C1052 C 0.56269 0.05044 0.8618 0.0
C1053 C 0.58626 0.06343 0.87836 0.0
C1054 C 0.54877 0.06896 0.85097 0.0
C1055 C 0.54642 0.03267 0.87567 0.0
C1056 C 0.54285 0.00904 0.86413 0.0
C1057 C 0.53035 0.98908 0.87444 0.0
C1058 C 0.52236 0.99317 0.89779 0.0
C1059 C 0.52692 0.01699 0.91049 0.0
C1060 C 0.53824 0.03711 0.89895 0.0
H1061 H 0.26149 0.30169 0.09908 0.0
H1062 H 0.23386 0.36816 0.11362 0.0
H1063 H 0.22302 0.35557 0.15431 0.0
H1064 H 0.21491 0.26179 0.13053 0.0
H1065 H 0.23683 0.24472 0.1424 0.0
H1066 H 0.24 0.25757 0.11321 0.0
H1067 H 0.28411 0.28032 0.13003 0.0
H1068 H 0.28105 0.26763 0.15923 0.0
H1069 H 0.28911 0.30029 0.15877 0.0
H1070 H 0.22131 0.33939 0.19538 0.0
H1071 H 0.22626 0.31925 0.23353 0.0
H1072 H 0.25144 0.26108 0.19196 0.0
C1073 C 0.25275 0.31339 0.11063 0.0
C1074 C 0.24855 0.33595 0.10316 0.0
C1075 C 0.23715 0.35077 0.11885 0.0
C1076 C 0.2309 0.34375 0.142 0.0
C1077 C 0.23573 0.32166 0.14899 0.0
C1078 C 0.24606 0.30649 0.13366 0.0
C1079 C 0.25047 0.28432 0.14625 0.0
C1080 C 0.2346 0.2607 0.13226 0.0
C1081 C 0.2778 0.28309 0.14872 0.0
C1082 C 0.24197 0.28995 0.17146 0.0
C1083 C 0.23346 0.31156 0.17253 0.0
C1084 C 0.22721 0.32209 0.19457 0.0
C1085 C 0.23006 0.31048 0.21617 0.0
C1086 C 0.23867 0.28831 0.21557 0.0
C1087 C 0.24416 0.27763 0.19278 0.0
H1088 H 0.18627 0.92561 0.97555 0.0
H1089 H 0.21414 0.9274 0.05332 0.0
H1090 H 0.18499 0.95316 0.06544 0.0
H1091 H 0.17485 0.98732 0.97807 0.0
H1092 H 0.14701 0.97836 0.95702 0.0
H1093 H 0.17132 0.96174 0.95453 0.0
H1094 H 0.14123 0.92133 0.95903 0.0
H1095 H 0.11686 0.93781 0.96137 0.0
H1096 H 0.1241 0.9194 0.9856 0.0
H1097 H 0.15164 0.97801 0.06885 0.0
H1098 H 0.11496 0.9965 0.06348 0.0
H1099 H 0.1088 0.97676 0.98358 0.0
C1100 C 0.18649 0.93165 0.99512 0.0
C1101 C 0.20259 0.92469 0.01348 0.0
C1102 C 0.20196 0.93259 0.03894 0.0
C1103 C 0.18557 0.94731 0.04598 0.0
C1104 C 0.16989 0.95382 0.02734 0.0
C1105 C 0.17012 0.94604 0.00245 0.0
C1106 C 0.15038 0.95405 0.98612 0.0
C1107 C 0.16157 0.9714 0.96786 0.0
C1108 C 0.13206 0.93182 0.97223 0.0
C1109 C 0.1388 0.96737 0.00569 0.0
C1110 C 0.15045 0.96739 0.02934 0.0
C1111 C 0.14247 0.97819 0.05039 0.0
C1112 C 0.12172 0.98875 0.04717 0.0
C1113 C 0.10912 0.98806 0.02313 0.0
C1114 C 0.11809 0.97759 0.0022 0.0
H1115 H 0.69122 0.58205 0.01657 0.0
H1116 H 0.66781 0.61105 0.94896 0.0
H1117 H 0.63082 0.57781 0.9417 0.0
H1118 H 0.66378 0.51542 0.99752 0.0
H1119 H 0.65442 0.5113 0.02807 0.0
H1120 H 0.68169 0.5333 0.02464 0.0
H1121 H 0.66454 0.56734 0.0483 0.0
H1122 H 0.6374 0.5455 0.05184 0.0
H1123 H 0.63487 0.57273 0.03722 0.0
H1124 H 0.59453 0.54438 0.94431 0.0
H1125 H 0.5594 0.51803 0.95957 0.0
H1126 H 0.60457 0.51418 0.02788 0.0
C1127 C 0.6787 0.58074 -0.00022 0.0
C1128 C 0.68245 0.5985 0.98291 0.0
C1129 C 0.66527 0.59719 0.96176 0.0
C1130 C 0.64437 0.57833 0.95746 0.0
C1131 C 0.64083 0.56126 0.97475 0.0
C1132 C 0.65741 0.56251 0.99568 0.0
C1133 C 0.64743 0.54486 0.01362 0.0
C1134 C 0.66274 0.52504 0.0161 0.0
C1135 C 0.64596 0.55843 0.03924 0.0
C1136 C 0.62225 0.53422 7e-05 0.0
C1137 C 0.61914 0.54317 0.97722 0.0
C1138 C 0.59689 0.53696 0.96196 0.0
C1139 C 0.57711 0.5219 0.97066 0.0
C1140 C 0.57964 0.51389 0.99462 0.0
C1141 C 0.60253 0.51971 0.00925 0.0
H1142 H 0.67374 0.45204 0.26076 0.0
H1143 H 0.71137 0.48013 0.33431 0.0
H1144 H 0.73683 0.44889 0.33126 0.0
H1145 H 0.67151 0.38915 0.26755 0.0
H1146 H 0.67636 0.38125 0.23571 0.0
H1147 H 0.66184 0.40648 0.24331 0.0
H1148 H 0.69456 0.43521 0.22292 0.0
H1149 H 0.70922 0.41005 0.2153 0.0
H1150 H 0.72656 0.43755 0.23323 0.0
H1151 H 0.75658 0.4128 0.32117 0.0
H1152 H 0.7693 0.37528 0.30434 0.0
H1153 H 0.71965 0.372 0.23704 0.0
C1154 C 0.68745 0.45177 0.27617 0.0
C1155 C 0.69053 0.46858 0.29778 0.0
C1156 C 0.70864 0.46747 0.31755 0.0
C1157 C 0.72324 0.4498 0.31599 0.0
C1158 C 0.71962 0.43342 0.29449 0.0
C1159 C 0.70222 0.4343 0.2749 0.0
C1160 C 0.70152 0.4142 0.25415 0.0
C1161 C 0.67632 0.39674 0.24995 0.0
C1162 C 0.70838 0.4249 0.22997 0.0
C1163 C 0.72114 0.40181 0.26518 0.0
C1164 C 0.73135 0.41308 0.28848 0.0
C1165 C 0.74893 0.404 0.3028 0.0
C1166 C 0.75606 0.38271 0.2931 0.0
C1167 C 0.74574 0.37089 0.26926 0.0
C1168 C 0.72828 0.38084 0.25512 0.0
H1169 H 0.84255 0.40219 0.5457 0.0
H1170 H 0.8071 0.44174 0.49299 0.0
H1171 H 0.84529 0.47354 0.49624 0.0
H1172 H 0.87942 0.4578 0.58477 0.0
H1173 H 0.90468 0.44273 0.59085 0.0
H1174 H 0.87374 0.42523 0.58628 0.0
H1175 H 0.88552 0.39702 0.5509 0.0
H1176 H 0.91633 0.41454 0.55511 0.0
H1177 H 0.89872 0.41032 0.52488 0.0
H1178 H 0.88964 0.49762 0.50137 0.0
H1179 H 0.93442 0.51332 0.5103 0.0
H1180 H 0.93893 0.45814 0.56104 0.0
C1181 C 0.84272 0.41787 0.5353 0.0
C1182 C 0.82215 0.41971 0.51911 0.0
C1183 C 0.82278 0.44031 0.50567 0.0
C1184 C 0.84435 0.45833 0.50738 0.0
C1185 C 0.86469 0.45562 0.52309 0.0
C1186 C 0.86375 0.43614 0.53723 0.0
C1187 C 0.88812 0.43667 0.55199 0.0
C1188 C 0.88638 0.44086 0.58014 0.0
C1189 C 0.89772 0.41326 0.5453 0.0
C1190 C 0.90339 0.45869 0.54291 0.0
C1191 C 0.88965 0.46965 0.52648 0.0
C1192 C 0.90044 0.48943 0.51458 0.0
C1193 C 0.92588 0.49815 0.51967 0.0
C1194 C 0.94015 0.48696 0.53639 0.0
C1195 C 0.92857 0.46721 0.54828 0.0
H1196 H 0.36053 0.09633 0.26382 0.0
H1197 H 0.298 0.05158 0.29055 0.0
H1198 H 0.27421 0.08382 0.28407 0.0
H1199 H 0.35408 0.15231 0.29325 0.0
H1200 H 0.36347 0.16972 0.26811 0.0
H1201 H 0.37447 0.14217 0.27267 0.0
H1202 H 0.35764 0.12486 0.22707 0.0
H1203 H 0.34641 0.15236 0.22243 0.0
H1204 H 0.32578 0.12303 0.21654 0.0
H1205 H 0.2579 0.12213 0.27625 0.0
H1206 H 0.25191 0.16418 0.27117 0.0
H1207 H 0.3257 0.18355 0.25095 0.0
C1208 C 0.34175 0.09312 0.26808 0.0
C1209 C 0.3311 0.07136 0.27759 0.0
C1210 C 0.30653 0.06807 0.28314 0.0
C1211 C 0.29283 0.08623 0.27942 0.0
C1212 C 0.30395 0.10751 0.27006 0.0
C1213 C 0.3279 0.11101 0.26456 0.0
C1214 C 0.3362 0.13603 0.25619 0.0
C1215 C 0.35835 0.15093 0.2736 0.0
C1216 C 0.34184 0.13393 0.22894 0.0
C1217 C 0.31349 0.14643 0.25867 0.0
C1218 C 0.29484 0.12957 0.26613 0.0
C1219 C 0.27231 0.13539 0.27021 0.0
C1220 C 0.26901 0.15923 0.26715 0.0
C1221 C 0.28833 0.17695 0.26058 0.0
C1222 C 0.31061 0.17027 0.25589 0.0
H1223 H 0.32472 0.10732 0.53021 0.0
H1224 H 0.293 0.06932 0.45783 0.0
H1225 H 0.32363 0.04312 0.45998 0.0
H1226 H 0.38688 0.10808 0.5209 0.0
H1227 H 0.39609 0.10339 0.5526 0.0
H1228 H 0.37092 0.11835 0.54585 0.0
H1229 H 0.34292 0.08637 0.56781 0.0
H1230 H 0.36802 0.07123 0.57449 0.0
H1231 H 0.33963 0.05428 0.55776 0.0
H1232 H 0.35883 0.02196 0.46925 0.0
H1233 H 0.39653 0.00848 0.4846 0.0
H1234 H 0.40504 0.06018 0.55081 0.0
C1235 C 0.3241 0.09339 0.51488 0.0
C1236 C 0.30638 0.09039 0.49386 0.0
C1237 C 0.30635 0.07201 0.47415 0.0
C1238 C 0.32364 0.05695 0.47521 0.0
C1239 C 0.34086 0.06041 0.49615 0.0
C1240 C 0.34124 0.07819 0.51562 0.0
C1241 C 0.3622 0.07869 0.53561 0.0
C1242 C 0.38008 0.1036 0.53892 0.0
C1243 C 0.35261 0.07225 0.56038 0.0
C1244 C 0.37371 0.05865 0.52418 0.0
C1245 C 0.36106 0.04821 0.50149 0.0
C1246 C 0.36878 0.0299 0.48708 0.0
C1247 C 0.39022 0.02237 0.49594 0.0
C1248 C 0.40376 0.03324 0.51889 0.0
C1249 C 0.39503 0.05131 0.5333 0.0
H1250 H 0.67913 0.5895 0.26585 0.0
H1251 H 0.68714 0.59024 0.34613 0.0
H1252 H 0.71844 0.62872 0.34984 0.0
H1253 H 0.74377 0.61941 0.25844 0.0
H1254 H 0.73348 0.63669 0.23447 0.0
H1255 H 0.71608 0.60681 0.23799 0.0
H1256 H 0.67744 0.62525 0.24228 0.0
H1257 H 0.69469 0.6551 0.23895 0.0
H1258 H 0.67865 0.65023 0.26599 0.0
H1259 H 0.7455 0.66922 0.34471 0.0
H1260 H 0.76319 0.70959 0.33168 0.0
H1261 H 0.73432 0.68337 0.25503 0.0
C1262 C 0.68828 0.59735 0.28408 0.0
C1263 C 0.68154 0.58683 0.30569 0.0
C1264 C 0.69274 0.59795 0.32942 0.0
C1265 C 0.71047 0.6197 0.33164 0.0
C1266 C 0.71641 0.63006 0.30992 0.0
C1267 C 0.70556 0.61924 0.28658 0.0
C1268 C 0.71231 0.6356 0.26647 0.0
C1269 C 0.7273 0.62393 0.24827 0.0
C1270 C 0.68941 0.64192 0.25263 0.0
C1271 C 0.72791 0.6577 0.28218 0.0
C1272 C 0.73069 0.65395 0.3071 0.0
C1273 C 0.74365 0.67224 0.32522 0.0
C1274 C 0.75364 0.69506 0.31769 0.0
C1275 C 0.74998 0.69944 0.29242 0.0
C1276 C 0.73731 0.68041 0.27448 0.0
H1277 H 0.86108 0.45109 0.74293 0.0
H1278 H 0.86083 0.46305 0.82289 0.0
H1279 H 0.82945 0.42499 0.82156 0.0
H1280 H 0.79422 0.42107 0.72771 0.0
H1281 H 0.80094 0.39999 0.70356 0.0
H1282 H 0.81968 0.43029 0.71025 0.0
H1283 H 0.85832 0.41157 0.71714 0.0
H1284 H 0.83975 0.38132 0.71065 0.0
H1285 H 0.8594 0.3898 0.73966 0.0
H1286 H 0.80233 0.38347 0.81216 0.0
H1287 H 0.78254 0.34108 0.79583 0.0
H1288 H 0.8014 0.35577 0.72194 0.0
C1289 C 0.85368 0.44601 0.75994 0.0
C1290 C 0.86271 0.45995 0.78293 0.0
C1291 C 0.85356 0.45262 0.8051 0.0
C1292 C 0.83578 0.43113 0.80447 0.0
C1293 C 0.82748 0.41737 0.78151 0.0
C1294 C 0.83603 0.42458 0.7596 0.0
C1295 C 0.82623 0.40527 0.73785 0.0
C1296 C 0.80926 0.41472 0.71871 0.0
C1297 C 0.84718 0.39647 0.72563 0.0
C1298 C 0.81192 0.38555 0.75114 0.0
C1299 C 0.81234 0.39309 0.77618 0.0
C1300 C 0.80155 0.37749 0.79251 0.0
C1301 C 0.79039 0.35344 0.78307 0.0
C1302 C 0.79048 0.34515 0.75762 0.0
C1303 C 0.80099 0.36161 0.74146 0.0
H1304 H 0.04115 0.83475 0.07099 0.0
H1305 H 0.98991 0.83595 0.12622 0.0
H1306 H 0.98008 0.87385 0.11178 0.0
H1307 H 0.0664 0.89522 0.07948 0.0
H1308 H 0.07024 0.899 0.04728 0.0
H1309 H 0.06956 0.86963 0.05836 0.0
H1310 H 0.03385 0.85017 0.02423 0.0
H1311 H 0.03446 0.87961 0.01299 0.0
H1312 H 0.00643 0.86256 0.02183 0.0
H1313 H 0.98102 0.91467 0.09649 0.0
H1314 H 0.99303 0.9553 0.08157 0.0
H1315 H 0.04342 0.92763 0.03638 0.0
C1316 C 0.02734 0.84257 0.07961 0.0
C1317 C 0.01627 0.83235 0.09972 0.0
C1318 C 0.99858 0.84339 0.11073 0.0
C1319 C 0.99277 0.86486 0.10256 0.0
C1320 C 0.00459 0.87487 0.08319 0.0
C1321 C 0.02136 0.86396 0.0717 0.0
C1322 C 0.03359 0.87975 0.0533 0.0
C1323 C 0.06159 0.88629 0.06003 0.0
C1324 C 0.02666 0.86728 0.0265 0.0
C1325 C 0.02213 0.90189 0.05728 0.0
C1326 C 0.00504 0.8985 0.07419 0.0
C1327 C 0.99391 0.91732 0.08281 0.0
C1328 C 0.0009 0.94032 0.07441 0.0
C1329 C 0.01884 0.94419 0.05774 0.0
C1330 C 0.0291 0.92469 0.04857 0.0
H1331 H 0.91208 0.21038 0.82917 0.0
H1332 H 0.96238 0.27811 0.82312 0.0
H1333 H 0.93127 0.29046 0.79428 0.0
H1334 H 0.88 0.20421 0.76066 0.0
H1335 H 0.85125 0.19114 0.77126 0.0
H1336 H 0.87949 0.18516 0.78584 0.0
H1337 H 0.868 0.20049 0.82826 0.0
H1338 H 0.84059 0.20863 0.81472 0.0
H1339 H 0.86391 0.23153 0.83353 0.0
H1340 H 0.89198 0.3003 0.77774 0.0
H1341 H 0.84878 0.30416 0.76896 0.0
H1342 H 0.82463 0.22826 0.78039 0.0
C1343 C 0.91684 0.22718 0.82065 0.0
C1344 C 0.93949 0.24325 0.82801 0.0
C1345 C 0.94516 0.26544 0.81724 0.0
C1346 C 0.92762 0.27257 0.80086 0.0
C1347 C 0.90491 0.25683 0.79473 0.0
C1348 C 0.89982 0.2341 0.80347 0.0
C1349 C 0.87322 0.22182 0.79634 0.0
C1350 C 0.87086 0.19924 0.77739 0.0
C1351 C 0.86064 0.2152 0.81958 0.0
C1352 C 0.86365 0.24208 0.78442 0.0
C1353 C 0.88228 0.26204 0.78336 0.0
C1354 C 0.87737 0.28445 0.77729 0.0
C1355 C 0.85287 0.28656 0.77245 0.0
C1356 C 0.83373 0.26628 0.77329 0.0
C1357 C 0.83917 0.24365 0.77862 0.0
H1358 H 0.53546 0.18844 0.64146 0.0
H1359 H 0.53327 0.2245 0.57392 0.0
H1360 H 0.52124 0.18431 0.54858 0.0
H1361 H 0.56212 0.13953 0.61569 0.0
H1362 H 0.54543 0.11664 0.63249 0.0
H1363 H 0.55269 0.1482 0.64552 0.0
H1364 H 0.50672 0.1473 0.6492 0.0
H1365 H 0.49938 0.11569 0.63639 0.0
H1366 H 0.48472 0.13772 0.62195 0.0
H1367 H 0.50993 0.14082 0.53078 0.0
H1368 H 0.49967 0.09605 0.52114 0.0
H1369 H 0.51077 0.08775 0.60018 0.0
C1370 C 0.53208 0.1877 0.62136 0.0
C1371 C 0.53485 0.20925 0.60943 0.0
C1372 C 0.53096 0.20795 0.58316 0.0
C1373 C 0.5242 0.1853 0.5687 0.0
C1374 C 0.52186 0.16426 0.5809 0.0
C1375 C 0.52576 0.16517 0.6066 0.0
C1376 C 0.52292 0.13973 0.61484 0.0
C1377 C 0.54724 0.1358 0.6279 0.0
C1378 C 0.50219 0.13483 0.63158 0.0
C1379 C 0.51629 0.12445 0.5898 0.0
C1380 C 0.51591 0.139 0.57051 0.0
C1381 C 0.51018 0.12918 0.5457 0.0
C1382 C 0.50441 0.10373 0.54043 0.0
C1383 C 0.50441 0.08841 0.55992 0.0
C1384 C 0.51066 0.09898 0.58489 0.0
H1385 H 0.56865 0.72282 0.33965 0.0
H1386 H 0.54703 0.78393 0.30578 0.0
H1387 H 0.58163 0.78631 0.2804 0.0
H1388 H 0.63152 0.74552 0.34561 0.0
H1389 H 0.63971 0.71632 0.33866 0.0
H1390 H 0.61181 0.71786 0.35207 0.0
H1391 H 0.58709 0.68785 0.31527 0.0
H1392 H 0.61498 0.68627 0.30169 0.0
H1393 H 0.5899 0.69496 0.28372 0.0
H1394 H 0.62101 0.78464 0.26191 0.0
H1395 H 0.66194 0.77905 0.25208 0.0
H1396 H 0.65686 0.71844 0.29738 0.0
C1397 C 0.57093 0.73646 0.32661 0.0
C1398 C 0.5551 0.75315 0.32467 0.0
C1399 C 0.55886 0.77087 0.30752 0.0
C1400 C 0.57843 0.77234 0.29297 0.0
C1401 C 0.5939 0.7558 0.2956 0.0
C1402 C 0.59026 0.7381 0.3119 0.0
C1403 C 0.61031 0.72349 0.31241 0.0
C1404 C 0.62415 0.72597 0.33874 0.0
C1405 C 0.59995 0.69654 0.30269 0.0
C1406 C 0.62621 0.7362 0.29442 0.0
C1407 C 0.61636 0.75464 0.28472 0.0
C1408 C 0.62871 0.76999 0.26907 0.0
C1409 C 0.65194 0.76669 0.26359 0.0
C1410 C 0.66254 0.74822 0.27381 0.0
C1411 C 0.64916 0.7325 0.28894 0.0
H1412 H 0.04576 0.20131 0.46057 0.0
H1413 H 0.00823 0.22549 0.52172 0.0
H1414 H 0.01187 0.18816 0.54147 0.0
H1415 H 0.01684 0.13902 0.45631 0.0
H1416 H 0.04351 0.12755 0.44885 0.0
H1417 H 0.03972 0.15709 0.44056 0.0
H1418 H 0.08204 0.17674 0.46489 0.0
H1419 H 0.08586 0.14722 0.47341 0.0
H1420 H 0.08802 0.17227 0.49727 0.0
H1421 H 0.01738 0.14741 0.55341 0.0
H1422 H 0.02266 0.10493 0.55565 0.0
H1423 H 0.05655 0.10728 0.48677 0.0
C1424 C 0.03859 0.19891 0.47827 0.0
C1425 C 0.02683 0.21637 0.48967 0.0
C1426 C 0.01734 0.21237 0.51265 0.0
C1427 C 0.01942 0.19129 0.52408 0.0
C1428 C 0.03103 0.1744 0.51232 0.0
C1429 C 0.04038 0.17791 0.48989 0.0
C1430 C 0.05059 0.15619 0.48039 0.0
C1431 C 0.03684 0.14426 0.45504 0.0
C1432 C 0.07828 0.16356 0.47891 0.0
C1433 C 0.0452 0.13982 0.50083 0.0
C1434 C 0.03412 0.15077 0.51918 0.0
C1435 C 0.02627 0.13872 0.5393 0.0
C1436 C 0.02936 0.11461 0.54042 0.0
C1437 C 0.04012 0.10284 0.52146 0.0
C1438 C 0.04857 0.11586 0.50173 0.0
H1439 H 0.57611 0.2739 0.21696 0.0
H1440 H 0.57006 0.26125 0.13633 0.0
H1441 H 0.61528 0.2685 0.1382 0.0
H1442 H 0.63363 0.32229 0.22372 0.0
H1443 H 0.64466 0.31195 0.25241 0.0
H1444 H 0.61224 0.30901 0.24406 0.0
H1445 H 0.60592 0.26259 0.24853 0.0
H1446 H 0.6383 0.26525 0.2563 0.0
H1447 H 0.6223 0.24397 0.23046 0.0
H1448 H 0.66083 0.27162 0.14969 0.0
H1449 H 0.70318 0.27496 0.16945 0.0
H1450 H 0.6785 0.28629 0.24238 0.0
C1451 C 0.58436 0.27336 0.19967 0.0
C1452 C 0.56977 0.26712 0.17652 0.0
C1453 C 0.58105 0.26636 0.15424 0.0
C1454 C 0.60667 0.27029 0.15514 0.0
C1455 C 0.62055 0.27547 0.17843 0.0
C1456 C 0.60978 0.27762 0.20024 0.0
C1457 C 0.62856 0.2824 0.22295 0.0
C1458 C 0.62985 0.30793 0.23658 0.0
C1459 C 0.62345 0.26235 0.24058 0.0
C1460 C 0.65145 0.28133 0.21063 0.0
C1461 C 0.6466 0.27757 0.18495 0.0
C1462 C 0.6649 0.27499 0.16976 0.0
C1463 C 0.68885 0.27676 0.18115 0.0
C1464 C 0.69415 0.28092 0.20744 0.0
C1465 C 0.6751 0.28313 0.22223 0.0
H1466 H 0.53799 0.84624 0.99829 0.0
H1467 H 0.53622 0.846 0.91811 0.0
H1468 H 0.53387 0.88967 0.92193 0.0
H1469 H 0.49682 0.8812 0.00793 0.0
H1470 H 0.51189 0.89918 0.0363 0.0
H1471 H 0.51783 0.86922 0.02837 0.0
H1472 H 0.56435 0.88688 0.03084 0.0
H1473 H 0.55873 0.91688 0.03966 0.0
H1474 H 0.57512 0.91187 0.01322 0.0
H1475 H 0.51981 0.92817 0.93335 0.0
H1476 H 0.50809 0.96483 0.95244 0.0
H1477 H 0.52616 0.94391 0.02612 0.0
C1478 C 0.53832 0.85578 0.98173 0.0
C1479 C 0.53744 0.84298 0.95793 0.0
C1480 C 0.53735 0.85569 0.93651 0.0
C1481 C 0.53575 0.8804 0.9385 0.0
C1482 C 0.53514 0.89216 0.96211 0.0
C1483 C 0.53757 0.88066 0.98349 0.0
C1484 C 0.53554 0.89733 0.00647 0.0
C1485 C 0.51426 0.88605 0.02058 0.0
C1486 C 0.55989 0.90362 0.02355 0.0
C1487 C 0.53023 0.91946 0.9945 0.0
C1488 C 0.52972 0.91586 0.96887 0.0
C1489 C 0.52162 0.93192 0.95345 0.0
C1490 C 0.5151 0.95283 0.96455 0.0
C1491 C 0.51774 0.95818 0.99085 0.0
C1492 C 0.5249 0.94089 0.00599 0.0
H1493 H 0.9169 0.75682 0.66656 0.0
H1494 H 0.9545 0.74105 0.73495 0.0
H1495 H 0.92195 0.75233 0.75853 0.0
H1496 H 0.88838 0.80709 0.69452 0.0
H1497 H 0.86014 0.79635 0.6744 0.0
H1498 H 0.88877 0.79235 0.66368 0.0
H1499 H 0.87172 0.74574 0.65406 0.0
H1500 H 0.84312 0.74963 0.66461 0.0
H1501 H 0.85968 0.72862 0.67841 0.0
H1502 H 0.8838 0.76075 0.77389 0.0
H1503 H 0.84058 0.76069 0.77922 0.0
H1504 H 0.82594 0.76816 0.70046 0.0
C1505 C 0.91854 0.75657 0.68662 0.0
C1506 C 0.93826 0.74856 0.69915 0.0
C1507 C 0.93955 0.74743 0.7252 0.0
C1508 C 0.92128 0.75396 0.73873 0.0
C1509 C 0.90171 0.76134 0.72585 0.0
C1510 C 0.90008 0.76248 0.70033 0.0
C1511 C 0.87542 0.76731 0.6905 0.0
C1512 C 0.87836 0.79226 0.68017 0.0
C1513 C 0.86168 0.74659 0.67075 0.0
C1514 C 0.86312 0.76757 0.71425 0.0
C1515 C 0.87891 0.76495 0.73455 0.0
C1516 C 0.87133 0.76316 0.75823 0.0
C1517 C 0.84674 0.76321 0.76109 0.0
C1518 C 0.82993 0.76446 0.74025 0.0
C1519 C 0.83845 0.76739 0.71674 0.0
H1520 H 0.08038 0.03851 0.85687 0.0
H1521 H 0.09445 0.96513 0.8462 0.0
H1522 H 0.07173 0.95405 0.88212 0.0
H1523 H 0.08974 0.04448 0.92297 0.0
H1524 H 0.06644 0.06223 0.92671 0.0
H1525 H 0.0822 0.06334 0.89926 0.0
H1526 H 0.04045 0.05062 0.87164 0.0
H1527 H 0.02465 0.04916 0.89912 0.0
H1528 H 0.01969 0.0229 0.87619 0.0
H1529 H 0.04697 0.95137 0.91963 0.0
H1530 H 0.02792 0.95901 0.9584 0.0
H1531 H 0.03299 0.03477 0.94519 0.0
C1532 C 0.07853 0.02002 0.86191 0.0
C1533 C 0.08895 0.00258 0.84859 0.0
C1534 C 0.08656 0.97875 0.85614 0.0
C1535 C 0.07354 0.97227 0.87638 0.0
C1536 C 0.06329 0.98992 0.88898 0.0
C1537 C 0.06602 0.01342 0.8822 0.0
C1538 C 0.05492 0.02961 0.89969 0.0
C1539 C 0.07449 0.05117 0.91294 0.0
C1540 C 0.03366 0.0386 0.88582 0.0
C1541 C 0.04572 0.01168 0.91762 0.0
C1542 C 0.05018 0.98871 0.9109 0.0
C1543 C 0.04335 0.96927 0.92496 0.0
C1544 C 0.03237 0.97367 0.94678 0.0
C1545 C 0.02886 0.99738 0.95442 0.0
C1546 C 0.0353 0.01644 0.93949 0.0
H1547 H 0.72939 0.34778 0.58592 0.0
H1548 H 0.75688 0.28899 0.54797 0.0
H1549 H 0.75002 0.26488 0.5833 0.0
H1550 H 0.75789 0.34491 0.64409 0.0
H1551 H 0.73345 0.35085 0.66159 0.0
H1552 H 0.73618 0.36195 0.63163 0.0
H1553 H 0.69166 0.33938 0.61632 0.0
H1554 H 0.68881 0.32816 0.64635 0.0
H1555 H 0.68288 0.30701 0.61843 0.0
H1556 H 0.74656 0.24976 0.62428 0.0
H1557 H 0.74631 0.24456 0.66898 0.0
H1558 H 0.72029 0.31224 0.6811 0.0
C1559 C 0.73322 0.32954 0.5848 0.0
C1560 C 0.74363 0.32027 0.5642 0.0
C1561 C 0.74896 0.29653 0.5636 0.0
C1562 C 0.74497 0.28257 0.58351 0.0
C1563 C 0.73542 0.29245 0.60388 0.0
C1564 C 0.7294 0.31529 0.60469 0.0
C1565 C 0.72178 0.32249 0.62995 0.0
C1566 C 0.73832 0.34646 0.64255 0.0
C1567 C 0.69467 0.32437 0.62762 0.0
C1568 C 0.7258 0.30077 0.64348 0.0
C1569 C 0.73321 0.28345 0.6279 0.0
C1570 C 0.74023 0.26288 0.63658 0.0
C1571 C 0.74013 0.26012 0.662 0.0
C1572 C 0.73312 0.27788 0.67842 0.0
C1573 C 0.72527 0.29812 0.66888 0.0
H1574 H 0.41061 0.02434 0.36983 0.0
H1575 H 0.46819 0.07248 0.33995 0.0
H1576 H 0.491 0.08294 0.38209 0.0
H1577 H 0.41827 0.05953 0.43584 0.0
H1578 H 0.41268 0.0311 0.44953 0.0
H1579 H 0.39735 0.03328 0.41926 0.0
H1580 H 0.4141 0.99654 0.40068 0.0
H1581 H 0.42924 0.99411 0.43072 0.0
H1582 H 0.44664 0.99768 0.40445 0.0
H1583 H 0.51171 0.07989 0.42374 0.0
H1584 H 0.52862 0.06332 0.46077 0.0
H1585 H 0.45756 0.01734 0.46441 0.0
C1586 C 0.42735 0.03815 0.37261 0.0
C1587 C 0.43744 0.04828 0.35211 0.0
C1588 C 0.45998 0.0652 0.35577 0.0
C1589 C 0.47299 0.07121 0.37962 0.0
C1590 C 0.46311 0.06011 0.3995 0.0
C1591 C 0.44059 0.04413 0.3963 0.0
C1592 C 0.43601 0.03132 0.4194 0.0
C1593 C 0.41481 0.0393 0.43173 0.0
C1594 C 0.43125 0.00328 0.41344 0.0
C1595 C 0.46021 0.04107 0.43532 0.0
C1596 C 0.47534 0.0582 0.42385 0.0
C1597 C 0.4998 0.06708 0.43327 0.0
C1598 C 0.5093 0.05751 0.45429 0.0
C1599 C 0.49438 0.03912 0.46551 0.0
C1600 C 0.46928 0.03176 0.45656 0.0
H1601 H 0.74061 0.70318 0.08622 0.0
H1602 H 0.78136 0.64477 0.08118 0.0
H1603 H 0.79372 0.65226 0.12658 0.0
H1604 H 0.78422 0.74346 0.13181 0.0
H1605 H 0.76124 0.75474 0.14791 0.0
H1606 H 0.75507 0.74439 0.11511 0.0
H1607 H 0.71623 0.714 0.12335 0.0
H1608 H 0.72235 0.72419 0.15621 0.0
H1609 H 0.71885 0.69222 0.14556 0.0
H1610 H 0.80122 0.66561 0.17235 0.0
H1611 H 0.80568 0.68564 0.21527 0.0
H1612 H 0.76112 0.73636 0.19067 0.0
C1613 C 0.75209 0.69192 0.09466 0.0
C1614 C 0.75996 0.67332 0.08014 0.0
C1615 C 0.77515 0.65915 0.09189 0.0
C1616 C 0.78219 0.6632 0.11768 0.0
C1617 C 0.77403 0.68159 0.13143 0.0
C1618 C 0.75949 0.69587 0.12035 0.0
C1619 C 0.75385 0.71492 0.13933 0.0
C1620 C 0.76422 0.74091 0.13317 0.0
C1621 C 0.72617 0.71109 0.14122 0.0
C1622 C 0.7675 0.70911 0.16282 0.0
C1623 C 0.77884 0.68969 0.15784 0.0
C1624 C 0.79248 0.68087 0.17648 0.0
C1625 C 0.79486 0.69238 0.20084 0.0
C1626 C 0.78381 0.71263 0.20636 0.0
C1627 C 0.76981 0.72095 0.18705 0.0
H1628 H 0.07528 0.01781 0.70751 0.0
H1629 H 0.12313 0.96591 0.71588 0.0
H1630 H 0.11382 0.95186 0.6709 0.0
H1631 H 0.0292 0.97936 0.66125 0.0
H1632 H 0.02423 0.00464 0.6444 0.0
H1633 H 0.03363 0.00962 0.67748 0.0
H1634 H 0.07078 0.0427 0.67016 0.0
H1635 H 0.06161 0.03768 0.63706 0.0
H1636 H 0.09194 0.03495 0.64919 0.0
H1637 H 0.10117 0.94512 0.62473 0.0
H1638 H 0.08456 0.94467 0.58088 0.0
H1639 H 0.0447 0.00082 0.60263 0.0
C1640 C 0.08359 0.00325 0.70001 0.0
C1641 C 0.09992 0.99292 0.7153 0.0
C1642 C 0.11052 0.97407 0.70461 0.0
C1643 C 0.10537 0.96598 0.67906 0.0
C1644 C 0.08956 0.9769 0.66449 0.0
C1645 C 0.07868 0.99499 0.6746 0.0
C1646 C 0.06287 0.00418 0.65475 0.0
C1647 C 0.03588 -0.00086 0.65977 0.0
C1648 C 0.07238 0.03149 0.65268 0.0
C1649 C 0.06667 0.98851 0.63184 0.0
C1650 C 0.08216 0.97293 0.63788 0.0
C1651 C 0.08892 0.95713 0.6198 0.0
C1652 C 0.07946 0.95711 0.59491 0.0
C1653 C 0.06334 0.97273 0.58831 0.0
C1654 C 0.05692 0.98862 0.6071 0.0
H1655 H 0.73179 0.29904 0.44496 0.0
H1656 H 0.7238 0.37016 0.42446 0.0
H1657 H 0.71597 0.35336 0.37991 0.0
H1658 H 0.76735 0.28768 0.40439 0.0
H1659 H 0.75585 0.25529 0.39676 0.0
H1660 H 0.75159 0.26978 0.4263 0.0
H1661 H 0.70468 0.25407 0.41754 0.0
H1662 H 0.70878 0.239 0.38791 0.0
H1663 H 0.6884 0.2602 0.38925 0.0
H1664 H 0.72018 0.33193 0.33839 0.0
H1665 H 0.73606 0.30892 0.30495 0.0
H1666 H 0.74322 0.25232 0.3531 0.0
C1667 C 0.72712 0.3107 0.4311 0.0
C1668 C 0.72819 0.33573 0.4379 0.0
C1669 C 0.72257 0.35079 0.41951 0.0
C1670 C 0.71815 0.34135 0.3942 0.0
C1671 C 0.71899 0.3168 0.38788 0.0
C1672 C 0.72284 0.30155 0.40598 0.0
C1673 C 0.72745 0.27741 0.39478 0.0
C1674 C 0.75201 0.2723 0.40622 0.0
C1675 C 0.70605 0.25643 0.39753 0.0
C1676 C 0.72812 0.2823 0.36786 0.0
C1677 C 0.72217 0.30464 0.36397 0.0
C1678 C 0.72428 0.3142 0.34115 0.0
C1679 C 0.73353 0.30107 0.32229 0.0
C1680 C 0.74119 0.27899 0.32658 0.0
C1681 C 0.73741 0.26908 0.34927 0.0
H1682 H 0.45784 0.00767 0.21411 0.0
H1683 H 0.4149 0.06441 0.21436 0.0
H1684 H 0.42655 0.07346 0.17273 0.0
H1685 H 0.50722 0.03815 0.18123 0.0
H1686 H 0.50991 0.01007 0.16387 0.0
H1687 H 0.49995 0.0096 0.19453 0.0
H1688 H 0.46068 0.97797 0.17655 0.0
H1689 H 0.47047 0.97843 0.14586 0.0
H1690 H 0.441 0.98504 0.1511 0.0
H1691 H 0.44096 0.07469 0.13038 0.0
H1692 H 0.45634 0.06766 0.08984 0.0
H1693 H 0.4894 0.00956 0.11705 0.0
C1694 C 0.4512 0.02231 0.20566 0.0
C1695 C 0.4356 0.03549 0.21758 0.0
C1696 C 0.42696 0.05417 0.20562 0.0
C1697 C 0.4335 0.05945 0.18202 0.0
C1698 C 0.44865 0.04586 0.17069 0.0
C1699 C 0.45738 0.02768 0.1821 0.0
C1700 C 0.47215 0.01475 0.16535 0.0
C1701 C 0.4989 0.01837 0.17694 0.0
C1702 C 0.46036 0.98744 0.15936 0.0
C1703 C 0.47014 0.02831 0.14255 0.0
C1704 C 0.45665 0.0463 0.1461 0.0
C1705 C 0.45161 0.06074 0.12743 0.0
C1706 C 0.46037 0.0565 0.10443 0.0
C1707 C 0.47402 0.03799 0.10029 0.0
C1708 C 0.47915 0.02392 0.11973 0.0
H1709 H 0.76125 0.66814 0.92345 0.0
H1710 H 0.77884 0.73312 0.97637 0.0
H1711 H 0.78868 0.75859 0.94217 0.0
H1712 H 0.80561 0.68949 0.87729 0.0
H1713 H 0.78336 0.6755 0.85135 0.0
H1714 H 0.78369 0.66208 0.88039 0.0
H1715 H 0.73791 0.66409 0.88144 0.0
H1716 H 0.73774 0.67786 0.85269 0.0
H1717 H 0.72873 0.69309 0.87993 0.0
H1718 H 0.79141 0.77738 0.90202 0.0
H1719 H 0.78482 0.78823 0.85898 0.0
H1720 H 0.76217 0.71118 0.83206 0.0
C1721 C 0.76822 0.68761 0.92784 0.0
C1722 C 0.76997 0.69874 0.95246 0.0
C1723 C 0.7779 0.72435 0.95758 0.0
C1724 C 0.78355 0.73891 0.93831 0.0
C1725 C 0.78084 0.72754 0.914 0.0
C1726 C 0.77335 0.70245 0.90868 0.0
C1727 C 0.76835 0.69518 0.8808 0.0
C1728 C 0.78634 0.67965 0.87195 0.0
C1729 C 0.7416 0.68178 0.8733 0.0
C1730 C 0.77324 0.72013 0.87136 0.0
C1731 C 0.78107 0.7385 0.89073 0.0
C1732 C 0.78559 0.76312 0.88666 0.0
C1733 C 0.78174 0.76912 0.86216 0.0
C1734 C 0.77296 0.75059 0.84216 0.0
C1735 C 0.76899 0.7258 0.84691 0.0
H1736 H 0.84679 0.09669 0.98949 0.0
H1737 H 0.82704 0.09157 0.06474 0.0
H1738 H 0.85214 0.06055 0.07038 0.0
H1739 H 0.85069 0.03088 0.97556 0.0
H1740 H 0.87691 0.03856 0.95874 0.0
H1741 H 0.85432 0.05753 0.95881 0.0
H1742 H 0.88821 0.09544 0.97549 0.0
H1743 H 0.91068 0.0765 0.97521 0.0
H1744 H 0.90789 0.09455 0.00359 0.0
H1745 H 0.88303 0.03498 0.07042 0.0
H1746 H 0.92012 0.01826 0.06565 0.0
H1747 H 0.92033 0.03863 0.99035 0.0
C1748 C 0.84735 0.08862 0.00693 0.0
C1749 C 0.83488 0.09646 0.02664 0.0
C1750 C 0.83646 0.08588 0.04939 0.0
C1751 C 0.85048 0.06805 0.0527 0.0
C1752 C 0.86279 0.06091 0.03308 0.0
C1753 C 0.86148 0.07086 0.01064 0.0
C1754 C 0.87869 0.06191 0.99366 0.0
C1755 C 0.86429 0.04629 0.97031 0.0
C1756 C 0.89747 0.0834 0.9866 0.0
C1757 C 0.89075 0.04638 0.01057 0.0
C1758 C 0.88081 0.04565 0.033 0.0
C1759 C 0.89055 0.03483 0.05274 0.0
C1760 C 0.91155 0.02534 0.04987 0.0
C1761 C 0.92249 0.02662 0.02743 0.0
C1762 C 0.91157 0.03655 0.00725 0.0
H1763 H 0.3516 0.39459 0.01888 0.0
H1764 H 0.32373 0.44571 0.06749 0.0
H1765 H 0.36206 0.47658 0.06712 0.0
H1766 H 0.41249 0.40879 0.04437 0.0
H1767 H 0.4251 0.40621 0.01498 0.0
H1768 H 0.39527 0.38879 0.01825 0.0
H1769 H 0.37601 0.40721 0.98111 0.0
H1770 H 0.40578 0.42442 0.97706 0.0
H1771 H 0.38087 0.43995 0.98111 0.0
H1772 H 0.40543 0.50074 0.06294 0.0
H1773 H 0.44788 0.5163 0.05368 0.0
H1774 H 0.44463 0.44912 0.00607 0.0
C1775 C 0.35354 0.41227 0.02949 0.0
C1776 C 0.33496 0.41773 0.0435 0.0
C1777 C 0.33791 0.44121 0.05673 0.0
C1778 C 0.35957 0.4588 0.0566 0.0
C1779 C 0.37769 0.45268 0.04268 0.0
C1780 C 0.37459 0.43006 0.02907 0.0
C1781 C 0.39641 0.42777 0.01538 0.0
C1782 C 0.40803 0.40666 0.02376 0.0
C1783 C 0.38933 0.42466 0.98699 0.0
C1784 C 0.41277 0.45235 0.02398 0.0
C1785 C 0.40179 0.46662 0.03965 0.0
C1786 C 0.41405 0.48979 0.05047 0.0
C1787 C 0.43814 0.49847 0.04514 0.0
C1788 C 0.44955 0.48402 0.02904 0.0
C1789 C 0.43644 0.4608 0.01826 0.0
H1790 H 0.33364 0.56711 0.78945 0.0
H1791 H 0.37744 0.57773 0.72771 0.0
H1792 H 0.36432 0.61658 0.72239 0.0
H1793 H 0.28287 0.593 0.7632 0.0
H1794 H 0.27813 0.60741 0.7929 0.0
H1795 H 0.29003 0.57973 0.79144 0.0
H1796 H 0.32763 0.60137 0.82239 0.0
H1797 H 0.31584 0.62908 0.82393 0.0
H1798 H 0.34618 0.62942 0.81527 0.0
H1799 H 0.34947 0.6552 0.72551 0.0
H1800 H 0.33215 0.69132 0.73563 0.0
H1801 H 0.29572 0.65591 0.79407 0.0
C1802 C 0.3403 0.5775 0.77467 0.0
C1803 C 0.3566 0.56932 0.75898 0.0
C1804 C 0.36495 0.58354 0.73994 0.0
C1805 C 0.35758 0.60565 0.73675 0.0
C1806 C 0.34172 0.61326 0.75261 0.0
C1807 C 0.33301 0.59964 0.77111 0.0
C1808 C 0.31656 0.6125 0.78595 0.0
C1809 C 0.29034 0.59725 0.7832 0.0
C1810 C 0.3272 0.61844 0.81352 0.0
C1811 C 0.31766 0.63559 0.77303 0.0
C1812 C 0.33238 0.63554 0.75392 0.0
C1813 C 0.33761 0.65531 0.74016 0.0
C1814 C 0.32764 0.67577 0.7461 0.0
C1815 C 0.31224 0.67629 0.76538 0.0
C1816 C 0.30701 0.6558 0.77891 0.0
H1817 H 0.20522 0.60662 0.49128 0.0
H1818 H 0.21622 0.58734 0.56648 0.0
H1819 H 0.17583 0.55897 0.55998 0.0
H1820 H 0.14803 0.61343 0.49389 0.0
H1821 H 0.1358 0.60171 0.46225 0.0
H1822 H 0.16792 0.61434 0.46953 0.0
H1823 H 0.1785 0.57405 0.45087 0.0
H1824 H 0.14628 0.56136 0.44299 0.0
H1825 H 0.16513 0.54548 0.46167 0.0
H1826 H 0.13183 0.53924 0.5482 0.0
H1827 H 0.08783 0.53011 0.53249 0.0
H1828 H 0.10474 0.5646 0.46581 0.0
C1829 C 0.19959 0.5953 0.50577 0.0
C1830 C 0.2139 0.59827 0.52902 0.0
C1831 C 0.20564 0.58451 0.54829 0.0
C1832 C 0.18276 0.56845 0.54474 0.0
C1833 C 0.16842 0.56668 0.52189 0.0
C1834 C 0.17662 0.5796 0.50262 0.0
C1835 C 0.15633 0.57787 0.4816 0.0
C1836 C 0.15176 0.60335 0.47656 0.0
C1837 C 0.16189 0.56385 0.45788 0.0
C1838 C 0.13513 0.56323 0.49266 0.0
C1839 C 0.14258 0.55632 0.51556 0.0
C1840 C 0.12587 0.54417 0.53009 0.0
C1841 C 0.10091 0.53918 0.52108 0.0
C1842 C 0.09291 0.54679 0.49801 0.0
C1843 C 0.11033 0.55858 0.48352 0.0
H1844 H 0.68431 0.94904 0.74826 0.0
H1845 H 0.66879 0.9584 0.82511 0.0
H1846 H 0.69193 0.92662 0.83547 0.0
H1847 H 0.67923 0.88435 0.7432 0.0
H1848 H 0.70412 0.88452 0.72436 0.0
H1849 H 0.68658 0.9082 0.72321 0.0
H1850 H 0.72654 0.94101 0.73463 0.0
H1851 H 0.74411 0.91733 0.736 0.0
H1852 H 0.74631 0.93971 0.76252 0.0
H1853 H 0.71491 0.89225 0.83694 0.0
H1854 H 0.73652 0.85825 0.82938 0.0
H1855 H 0.7388 0.87296 0.75218 0.0
C1856 C 0.68576 0.94439 0.76726 0.0
C1857 C 0.67467 0.95614 0.78587 0.0
C1858 C 0.67716 0.94968 0.81056 0.0
C1859 C 0.69029 0.93166 0.81664 0.0
C1860 C 0.70108 0.9205 0.79789 0.0
C1861 C 0.69907 0.92669 0.77373 0.0
C1862 C 0.71234 0.91187 0.75705 0.0
C1863 C 0.6945 0.89631 0.7357 0.0
C1864 C 0.73359 0.92848 0.74696 0.0
C1865 C 0.72171 0.89608 0.7755 0.0
C1866 C 0.71504 0.90133 0.79896 0.0
C1867 C 0.72051 0.88819 0.81873 0.0
C1868 C 0.7328 0.86894 0.81428 0.0
C1869 C 0.73962 0.86316 0.7903 0.0
C1870 C 0.7343 0.87723 0.77085 0.0
H1871 H 0.67321 0.89392 0.5074 0.0
H1872 H 0.72641 0.9487 0.55599 0.0
H1873 H 0.69679 0.97626 0.55614 0.0
H1874 H 0.64695 0.93647 0.47101 0.0
H1875 H 0.61645 0.91815 0.46858 0.0
H1876 H 0.64256 0.90375 0.47093 0.0
H1877 H 0.6274 0.88355 0.50947 0.0
H1878 H 0.60129 0.89784 0.50716 0.0
H1879 H 0.62147 0.90252 0.53587 0.0
H1880 H 0.65997 0.99745 0.55164 0.0
H1881 H 0.61912 0.00861 0.54475 0.0
H1882 H 0.59104 0.93897 0.50043 0.0
C1883 C 0.67879 0.91177 0.51794 0.0
C1884 C 0.70216 0.91912 0.53167 0.0
C1885 C 0.7086 0.94265 0.54529 0.0
C1886 C 0.69193 0.95847 0.54542 0.0
C1887 C 0.66894 0.95053 0.53177 0.0
C1888 C 0.66244 0.92769 0.5183 0.0
C1889 C 0.63637 0.92288 0.50604 0.0
C1890 C 0.63555 0.92016 0.47745 0.0
C1891 C 0.62072 0.90037 0.5152 0.0
C1892 C 0.62889 0.94622 0.51532 0.0
C1893 C 0.64794 0.96226 0.52974 0.0
C1894 C 0.64497 0.98501 0.54033 0.0
C1895 C 0.62181 0.99125 0.53631 0.0
C1896 C 0.60203 0.97454 0.52229 0.0
C1897 C 0.60582 0.95198 0.51149 0.0
H1898 H 0.34219 0.41992 0.72188 0.0
H1899 H 0.33271 0.46016 0.79082 0.0
H1900 H 0.30221 0.42479 0.80004 0.0
H1901 H 0.27499 0.38273 0.70946 0.0
H1902 H 0.28581 0.35659 0.6966 0.0
H1903 H 0.30136 0.38704 0.69243 0.0
H1904 H 0.34202 0.37726 0.71163 0.0
H1905 H 0.32665 0.34718 0.71656 0.0
H1906 H 0.34387 0.3675 0.7425 0.0
H1907 H 0.28374 0.38219 0.80741 0.0
H1908 H 0.27232 0.33738 0.80875 0.0
H1909 H 0.2901 0.32539 0.73324 0.0
C1910 C 0.3325 0.42168 0.73812 0.0
C1911 C 0.33925 0.44268 0.75547 0.0
C1912 C 0.32715 0.44434 0.77707 0.0
C1913 C 0.30995 0.42429 0.78248 0.0
C1914 C 0.30471 0.40313 0.7657 0.0
C1915 C 0.31494 0.40202 0.74344 0.0
C1916 C 0.30851 0.37642 0.72993 0.0
C1917 C 0.29166 0.37565 0.70567 0.0
C1918 C 0.33164 0.36653 0.72489 0.0
C1919 C 0.2949 0.36289 0.749 0.0
C1920 C 0.29269 0.37861 0.76944 0.0
C1921 C 0.28437 0.36984 0.7911 0.0
C1922 C 0.27816 0.34445 0.79182 0.0
C1923 C 0.27999 0.32831 0.77092 0.0
C1924 C 0.28794 0.3376 0.74913 0.0
H1925 H 0.1824 0.59689 0.21942 0.0
H1926 H 0.20429 0.55039 0.27355 0.0
H1927 H 0.23831 0.58386 0.2919 0.0
H1928 H 0.24727 0.63583 0.21643 0.0
H1929 H 0.23416 0.66254 0.21369 0.0
H1930 H 0.21722 0.63297 0.19989 0.0
H1931 H 0.18096 0.63929 0.22433 0.0
H1932 H 0.19787 0.66839 0.23871 0.0
H1933 H 0.18593 0.64515 0.25788 0.0
H1934 H 0.26183 0.62484 0.3112 0.0
H1935 H 0.27529 0.66854 0.32705 0.0
H1936 H 0.23762 0.68828 0.26052 0.0
C1937 C 0.19514 0.59336 0.2343 0.0
C1938 C 0.19071 0.57112 0.24508 0.0
C1939 C 0.20749 0.56721 0.2648 0.0
C1940 C 0.22685 0.58619 0.27542 0.0
C1941 C 0.22944 0.60869 0.26571 0.0
C1942 C 0.21442 0.61212 0.24507 0.0
C1943 C 0.21834 0.63877 0.24049 0.0
C1944 C 0.22995 0.64276 0.21618 0.0
C1945 C 0.19436 0.64844 0.24038 0.0
C1946 C 0.23626 0.65005 0.26295 0.0
C1947 C 0.24301 0.63244 0.27695 0.0
C1948 C 0.25725 0.63874 0.3 0.0
C1949 C 0.26462 0.6636 0.30896 0.0
C1950 C 0.25743 0.68179 0.29504 0.0
C1951 C 0.24355 0.67482 0.27153 0.0
H1952 H 0.52269 0.67176 0.41123 0.0
H1953 H 0.50588 0.7113 0.47758 0.0
H1954 H 0.51628 0.67935 0.50275 0.0
H1955 H 0.49367 0.61598 0.42358 0.0
H1956 H 0.51479 0.59879 0.41129 0.0
H1957 H 0.51189 0.62726 0.39972 0.0
H1958 H 0.55855 0.64364 0.41101 0.0
H1959 H 0.56156 0.61509 0.42274 0.0
H1960 H 0.57224 0.64347 0.44246 0.0
H1961 H 0.52222 0.64077 0.51942 0.0
H1962 H 0.51951 0.59724 0.52541 0.0
H1963 H 0.53108 0.58196 0.44804 0.0
C1964 C 0.52208 0.67405 0.4312 0.0
C1965 C 0.51379 0.69403 0.44256 0.0
C1966 C 0.51232 0.69611 0.46858 0.0
C1967 C 0.5184 0.67818 0.48306 0.0
C1968 C 0.52586 0.65827 0.47122 0.0
C1969 C 0.52767 0.65607 0.44584 0.0
C1970 C 0.53231 0.6312 0.43699 0.0
C1971 C 0.51195 0.61751 0.41672 0.0
C1972 C 0.55768 0.6335 0.42776 0.0
C1973 C 0.53148 0.61934 0.46104 0.0
C1974 C 0.52854 0.63549 0.48074 0.0
C1975 C 0.52502 0.62807 0.50428 0.0
C1976 C 0.52354 0.60331 0.50753 0.0
C1977 C 0.52511 0.58629 0.48718 0.0
C1978 C 0.53005 0.59464 0.46398 0.0
H1979 H 0.62624 0.31727 0.7056 0.0
H1980 H 0.57299 0.25838 0.72749 0.0
H1981 H 0.60283 0.25328 0.76224 0.0
H1982 H 0.67522 0.29309 0.71176 0.0
H1983 H 0.69679 0.32066 0.72453 0.0
H1984 H 0.66931 0.32273 0.70598 0.0
H1985 H 0.65941 0.35093 0.74278 0.0
H1986 H 0.68682 0.34765 0.76136 0.0
H1987 H 0.65751 0.34008 0.77304 0.0
H1988 H 0.64114 0.24673 0.78539 0.0
H1989 H 0.68359 0.24242 0.79816 0.0
H1990 H 0.71158 0.30776 0.76441 0.0
C1991 C 0.6206 0.30407 0.71846 0.0
C1992 C 0.59746 0.28823 0.71403 0.0
C1993 C 0.59058 0.2709 0.73086 0.0
C1994 C 0.60744 0.26787 0.75061 0.0
C1995 C 0.63073 0.28288 0.75368 0.0
C1996 C 0.63705 0.30122 0.73853 0.0
C1997 C 0.66392 0.31311 0.74387 0.0
C1998 C 0.67704 0.31226 0.72013 0.0
C1999 C 0.66709 0.33951 0.75599 0.0
C2000 C 0.67231 0.29686 0.7624 0.0
C2001 C 0.6528 0.2799 0.76831 0.0
C2002 C 0.65643 0.26055 0.78185 0.0
C2003 C 0.68053 0.25819 0.78902 0.0
C2004 C 0.70053 0.27523 0.78287 0.0
C2005 C 0.6964 0.29514 0.77011 0.0
H2006 H 0.99164 0.31748 0.94099 0.0
H2007 H 0.05233 0.31493 0.89716 0.0
H2008 H 0.06842 0.35895 0.90993 0.0
H2009 H 0.98126 0.3743 0.92601 0.0
H2010 H 0.97394 0.38402 0.95648 0.0
H2011 H 0.96838 0.35197 0.94569 0.0
H2012 H 0.99505 0.34406 0.98474 0.0
H2013 H 0.00044 0.37608 0.99583 0.0
H2014 H 0.02595 0.36137 0.99204 0.0
H2015 H 0.07653 0.40396 0.92586 0.0
H2016 H 0.07655 0.44578 0.94462 0.0
H2017 H 0.00997 0.41811 0.977 0.0
C2018 C 0.00851 0.32602 0.93431 0.0
C2019 C 0.02073 0.31273 0.91808 0.0
C2020 C 0.04268 0.32472 0.90968 0.0
C2021 C 0.05195 0.34972 0.9168 0.0
C2022 C 0.0391 0.36237 0.93238 0.0
C2023 C 0.01796 0.35085 0.94117 0.0
C2024 C 0.00706 0.36862 0.95696 0.0
C2025 C 0.98113 0.36979 0.94559 0.0
C2026 C 0.00714 0.36214 0.98399 0.0
C2027 C 0.02506 0.39206 0.95527 0.0
C2028 C 0.04354 0.38813 0.94119 0.0
C2029 C 0.06217 0.40723 0.93695 0.0
C2030 C 0.06194 0.43092 0.94755 0.0
C2031 C 0.04315 0.43523 0.9621 0.0
C2032 C 0.02451 0.41548 0.96586 0.0
H2033 H 0.95197 0.76966 0.18092 0.0
H2034 H -0.00019 0.78943 0.25049 0.0
H2035 H 0.96352 0.78743 0.27362 0.0
H2036 H 0.90823 0.80443 0.19543 0.0
H2037 H 0.88244 0.78202 0.18007 0.0
H2038 H 0.91215 0.78368 0.16948 0.0
H2039 H 0.90983 0.73788 0.17525 0.0
H2040 H 0.88009 0.73609 0.18591 0.0
H2041 H 0.90434 0.72733 0.20511 0.0
H2042 H 0.92124 0.78346 0.28896 0.0
H2043 H 0.87724 0.78026 0.29454 0.0
H2044 H 0.85846 0.76469 0.21453 0.0
C2045 C 0.95492 0.77349 0.20103 0.0
C2046 C 0.97876 0.77969 0.21389 0.0
C2047 C 0.98171 0.78458 0.24023 0.0
C2048 C 0.96121 0.78344 0.25353 0.0
C2049 C 0.93795 0.7773 0.2402 0.0
C2050 C 0.93478 0.77244 0.21451 0.0
C2051 C 0.90801 0.76695 0.20436 0.0
C2052 C 0.90239 0.78538 0.18628 0.0
C2053 C 0.90011 0.7405 0.19193 0.0
C2054 C 0.89657 0.77024 0.22825 0.0
C2055 C 0.91399 0.77571 0.24883 0.0
C2056 C 0.90748 0.77921 0.27294 0.0
C2057 C 0.88253 0.77732 0.27597 0.0
C2058 C 0.86466 0.77248 0.25493 0.0
C2059 C 0.87184 0.76874 0.23089 0.0
H2060 H 0.52555 0.30412 0.07452 0.0
H2061 H 0.45423 0.2916 0.10193 0.0
H2062 H 0.44457 0.32698 0.08223 0.0
H2063 H 0.53823 0.36658 0.08566 0.0
H2064 H 0.55277 0.37282 0.05795 0.0
H2065 H 0.55296 0.34428 0.07069 0.0
H2066 H 0.53284 0.3205 0.02834 0.0
H2067 H 0.53277 0.34905 0.01536 0.0
H2068 H 0.50463 0.32682 0.01414 0.0
H2069 H 0.44538 0.36708 0.06677 0.0
H2070 H 0.45524 0.40813 0.05299 0.0
H2071 H 0.52467 0.39434 0.03243 0.0
C2072 C 0.50763 0.30839 0.07575 0.0
C2073 C 0.49067 0.29504 0.0898 0.0
C2074 C 0.46754 0.30145 0.09125 0.0
C2075 C 0.46183 0.32153 0.08007 0.0
C2076 C 0.47925 0.33479 0.06711 0.0
C2077 C 0.50153 0.32832 0.06447 0.0
C2078 C 0.51759 0.34681 0.05106 0.0
C2079 C 0.54181 0.3583 0.06732 0.0
C2080 C 0.52223 0.33509 0.02572 0.0
C2081 C 0.50134 0.36527 0.04776 0.0
C2082 C 0.47923 0.35779 0.05701 0.0
C2083 C 0.46224 0.37279 0.05868 0.0
C2084 C 0.46798 0.39608 0.05078 0.0
C2085 C 0.49033 0.4041 0.04094 0.0
C2086 C 0.5071 0.38835 0.03911 0.0
H2087 H 0.95691 0.24607 0.38357 0.0
H2088 H 0.97685 0.32269 0.4121 0.0
H2089 H 0.94344 0.3316 0.38351 0.0
H2090 H 0.93451 0.2547 0.31774 0.0
H2091 H 0.9095 0.22876 0.3159 0.0
H2092 H 0.93785 0.2291 0.3348 0.0
H2093 H 0.91408 0.22141 0.3731 0.0
H2094 H 0.88577 0.22122 0.35439 0.0
H2095 H 0.89475 0.24203 0.38246 0.0
H2096 H 0.90571 0.33167 0.35553 0.0
H2097 H 0.8646 0.32243 0.33162 0.0
H2098 H 0.86752 0.24537 0.32318 0.0
C2099 C 0.95456 0.26476 0.38313 0.0
C2100 C 0.96939 0.2838 0.39964 0.0
C2101 C 0.96556 0.30798 0.39936 0.0
C2102 C 0.94679 0.31321 0.38313 0.0
C2103 C 0.93193 0.29399 0.36748 0.0
C2104 C 0.93552 0.27022 0.36734 0.0
C2105 C 0.91506 0.25255 0.35105 0.0
C2106 C 0.92482 0.24057 0.32853 0.0
C2107 C 0.90162 0.23318 0.36616 0.0
C2108 C 0.89899 0.26997 0.34303 0.0
C2109 C 0.90937 0.29386 0.35213 0.0
C2110 C 0.89746 0.31307 0.34805 0.0
C2111 C 0.87413 0.30766 0.33453 0.0
C2112 C 0.86286 0.28321 0.32575 0.0
C2113 C 0.87566 0.26425 0.32978 0.0
H2114 H 0.95691 0.65704 0.59457 0.0
H2115 H 0.02364 0.71016 0.59137 0.0
H2116 H 0.03535 0.68301 0.55843 0.0
H2117 H 0.97855 0.60721 0.59017 0.0
H2118 H 0.95467 0.58708 0.56933 0.0
H2119 H 0.94774 0.6124 0.58796 0.0
H2120 H 0.93066 0.62993 0.5492 0.0
H2121 H 0.93618 0.60412 0.52991 0.0
H2122 H 0.94878 0.63479 0.52362 0.0
H2123 H 0.04487 0.64636 0.53556 0.0
H2124 H 0.04825 0.6048 0.51868 0.0
H2125 H 0.97339 0.57696 0.53161 0.0
C2126 C 0.97342 0.66331 0.58608 0.0
C2127 C 0.98933 0.68562 0.59534 0.0
C2128 C 0.01103 0.69325 0.58423 0.0
C2129 C 0.01786 0.67793 0.56553 0.0
C2130 C 0.00231 0.65552 0.5575 0.0
C2131 C 0.98006 0.6486 0.56671 0.0
C2132 C 0.96762 0.6228 0.55621 0.0
C2133 C 0.96182 0.6064 0.57715 0.0
C2134 C 0.94444 0.62292 0.53869 0.0
C2135 C 0.98739 0.61553 0.54171 0.0
C2136 C 0.00716 0.63477 0.54243 0.0
C2137 C 0.02913 0.63145 0.53382 0.0
C2138 C 0.03097 0.60787 0.52439 0.0
C2139 C 0.01082 0.58817 0.52327 0.0
C2140 C 0.98863 0.59212 0.53143 0.0
H2141 H 0.57541 0.79437 0.84219 0.0
H2142 H 0.58545 0.73623 0.88769 0.0
H2143 H 0.61873 0.72776 0.86371 0.0
H2144 H 0.58987 0.76475 0.78302 0.0
H2145 H 0.6058 0.79328 0.77412 0.0
H2146 H 0.58076 0.79291 0.79278 0.0
H2147 H 0.60892 0.82423 0.82639 0.0
H2148 H 0.6339 0.82478 0.80777 0.0
H2149 H 0.63736 0.81748 0.8395 0.0
H2150 H 0.65324 0.72797 0.8375 0.0
H2151 H 0.68779 0.73846 0.81266 0.0
H2152 H 0.65545 0.79645 0.78419 0.0
C2153 C 0.58432 0.77957 0.84684 0.0
C2154 C 0.57774 0.76592 0.86679 0.0
C2155 C 0.59013 0.74695 0.8725 0.0
C2156 C 0.60898 0.74189 0.85887 0.0
C2157 C 0.61518 0.75585 0.8395 0.0
C2158 C 0.60325 0.77433 0.83348 0.0
C2159 C 0.61479 0.78793 0.81319 0.0
C2160 C 0.59673 0.7845 0.78936 0.0
C2161 C 0.62431 0.81521 0.82227 0.0
C2162 C 0.63562 0.77482 0.80942 0.0
C2163 C 0.63525 0.75608 0.82444 0.0
C2164 C 0.65354 0.74239 0.82541 0.0
C2165 C 0.6731 0.74848 0.81121 0.0
C2166 C 0.67432 0.76823 0.7964 0.0
C2167 C 0.65492 0.78105 0.79503 0.0
H2168 H 0.44991 0.53178 0.69292 0.0
H2169 H 0.42827 0.45261 0.68461 0.0
H2170 H 0.44526 0.4507 0.64445 0.0
H2171 H 0.43862 0.5403 0.62729 0.0
H2172 H 0.46524 0.56433 0.62776 0.0
H2173 H 0.45046 0.55998 0.65564 0.0
H2174 H 0.49158 0.55601 0.67944 0.0
H2175 H 0.50644 0.56016 0.65158 0.0
H2176 H 0.50774 0.53343 0.6675 0.0
H2177 H 0.46182 0.45669 0.60503 0.0
H2178 H 0.48047 0.47025 0.56814 0.0
H2179 H 0.4968 0.54534 0.6023 0.0
C2180 C 0.44864 0.51416 0.68243 0.0
C2181 C 0.4377 0.49231 0.69168 0.0
C2182 C 0.43663 0.46951 0.67779 0.0
C2183 C 0.44618 0.46822 0.65497 0.0
C2184 C 0.45712 0.48991 0.64644 0.0
C2185 C 0.45869 0.51247 0.65966 0.0
C2186 C 0.4723 0.53272 0.6462 0.0
C2187 C 0.45566 0.55038 0.63878 0.0
C2188 C 0.49592 0.54639 0.66214 0.0
C2189 C 0.4779 0.51789 0.6234 0.0
C2190 C 0.46859 0.49327 0.62398 0.0
C2191 C 0.46964 0.47584 0.60451 0.0
C2192 C 0.48039 0.48372 0.58369 0.0
C2193 C 0.49078 0.50869 0.58278 0.0
C2194 C 0.48966 0.52606 0.60295 0.0
H2195 H 0.76861 0.2189 0.97872 0.0
H2196 H 0.82441 0.17491 0.97623 0.0
H2197 H 0.83631 0.19189 0.93752 0.0
H2198 H 0.74924 0.21115 0.91471 0.0
H2199 H 0.74415 0.2418 0.91326 0.0
H2200 H 0.74156 0.22782 0.94181 0.0
H2201 H 0.77363 0.26424 0.96532 0.0
H2202 H 0.7764 0.27832 0.93676 0.0
H2203 H 0.80321 0.27244 0.95434 0.0
H2204 H 0.84024 0.21151 0.89806 0.0
H2205 H 0.83497 0.231 0.8596 0.0
H2206 H 0.7766 0.26226 0.88778 0.0
C2207 C 0.78351 0.21296 0.97022 0.0
C2208 C 0.79564 0.1956 0.98053 0.0
C2209 C 0.81493 0.18824 0.96871 0.0
C2210 C 0.82186 0.19785 0.94679 0.0
C2211 C 0.80942 0.21486 0.93713 0.0
C2212 C 0.79066 0.22236 0.94845 0.0
C2213 C 0.77934 0.23983 0.93357 0.0
C2214 C 0.75196 0.22952 0.92535 0.0
C2215 C 0.78339 0.26521 0.94838 0.0
C2216 C 0.79417 0.24043 0.91165 0.0
C2217 C 0.81166 0.22619 0.91429 0.0
C2218 C 0.82684 0.22295 0.89595 0.0
C2219 C 0.82376 0.23419 0.87414 0.0
C2220 C 0.80558 0.24835 0.87068 0.0
C2221 C 0.79088 0.25181 0.88995 0.0
H2222 H 0.09474 0.48445 0.16061 0.0
H2223 H 0.04181 0.49962 0.20982 0.0
H2224 H 0.00819 0.48308 0.17641 0.0
H2225 H 0.07171 0.50735 0.11347 0.0
H2226 H 0.07604 0.4862 0.08815 0.0
H2227 H 0.09549 0.48987 0.117 0.0
H2228 H 0.08378 0.44376 0.12143 0.0
H2229 H 0.06498 0.43946 0.09183 0.0
H2230 H 0.05197 0.42895 0.11912 0.0
H2231 H 0.98221 0.47546 0.13659 0.0
H2232 H 0.96658 0.47995 0.09364 0.0
H2233 H 0.03587 0.47071 0.06885 0.0
C2234 C 0.07594 0.48294 0.16452 0.0
C2235 C 0.07058 0.49269 0.18766 0.0
C2236 C 0.04601 0.49176 0.19216 0.0
C2237 C 0.02684 0.48224 0.17336 0.0
C2238 C 0.03259 0.47376 0.15016 0.0
C2239 C 0.05658 0.47382 0.14569 0.0
C2240 C 0.0583 0.46869 0.11809 0.0
C2241 C 0.07646 0.48928 0.10868 0.0
C2242 C 0.06516 0.44372 0.11228 0.0
C2243 C 0.03213 0.46817 0.10766 0.0
C2244 C 0.01736 0.47 0.12649 0.0
C2245 C 0.99338 0.4733 0.12163 0.0
C2246 C 0.98467 0.47592 0.09712 0.0
C2247 C 7e-05 0.47569 0.07786 0.0
C2248 C 0.0236 0.47056 0.08309 0.0
H2249 H 0.76717 0.80733 0.472 0.0
H2250 H 0.75255 0.87903 0.46067 0.0
H2251 H 0.74419 0.8667 0.41514 0.0
H2252 H 0.79706 0.79824 0.41866 0.0
H2253 H 0.78347 0.76619 0.41187 0.0
H2254 H 0.7876 0.78041 0.44348 0.0
H2255 H 0.7413 0.76601 0.44692 0.0
H2256 H 0.73707 0.75151 0.41538 0.0
H2257 H 0.71912 0.77364 0.42419 0.0
H2258 H 0.74133 0.84757 0.37067 0.0
H2259 H 0.73858 0.82142 0.33093 0.0
H2260 H 0.75192 0.76123 0.37189 0.0
C2261 C 0.762 0.82036 0.45994 0.0
C2262 C 0.76063 0.84417 0.46971 0.0
C2263 C 0.7536 0.86067 0.45347 0.0
C2264 C 0.74895 0.85387 0.42763 0.0
C2265 C 0.75094 0.83036 0.41854 0.0
C2266 C 0.75679 0.8137 0.43426 0.0
C2267 C 0.75731 0.78946 0.41988 0.0
C2268 C 0.78288 0.78322 0.4237 0.0
C2269 C 0.73752 0.76895 0.42702 0.0
C2270 C 0.75135 0.7952 0.39351 0.0
C2271 C 0.74799 0.81897 0.3931 0.0
C2272 C 0.74356 0.82883 0.37079 0.0
C2273 C 0.7422 0.8139 0.34834 0.0
C2274 C 0.74488 0.78929 0.34842 0.0
C2275 C 0.74951 0.7799 0.37132 0.0
H2276 H 0.45714 0.48892 0.83459 0.0
H2277 H 0.42241 0.55106 0.82606 0.0
H2278 H 0.43661 0.56656 0.87017 0.0
H2279 H 0.44104 0.47891 0.89424 0.0
H2280 H 0.46922 0.47027 0.90522 0.0
H2281 H 0.4583 0.46527 0.8725 0.0
H2282 H 0.49942 0.49042 0.86225 0.0
H2283 H 0.51056 0.49536 0.89496 0.0
H2284 H 0.51042 0.5211 0.87721 0.0
H2285 H 0.4516 0.57325 0.91602 0.0
H2286 H 0.46766 0.57161 0.95974 0.0
H2287 H 0.49288 0.50524 0.93778 0.0
C2288 C 0.45283 0.50602 0.8418 0.0
C2289 C 0.43871 0.51882 0.82684 0.0
C2290 C 0.4333 0.541 0.83714 0.0
C2291 C 0.44127 0.54993 0.86216 0.0
C2292 C 0.45471 0.53653 0.8765 0.0
C2293 C 0.4606 0.51515 0.86663 0.0
C2294 C 0.47424 0.50355 0.8862 0.0
C2295 C 0.45983 0.47799 0.88974 0.0
C2296 C 0.5002 0.50256 0.87977 0.0
C2297 C 0.47484 0.52157 0.90877 0.0
C2298 C 0.46349 0.54047 0.90281 0.0
C2299 C 0.46074 0.55868 0.92085 0.0
C2300 C 0.46981 0.55751 0.94563 0.0
C2301 C 0.48154 0.53831 0.95208 0.0
C2302 C 0.48422 0.52026 0.93333 0.0
H2303 H 0.79936 0.23799 0.10353 0.0
H2304 H 0.82114 0.17213 0.12548 0.0
H2305 H 0.83292 0.19202 0.16867 0.0
H2306 H 0.84565 0.28363 0.15061 0.0
H2307 H 0.82301 0.30206 0.15479 0.0
H2308 H 0.82356 0.28558 0.12481 0.0
H2309 H 0.77803 0.26475 0.12495 0.0
H2310 H 0.77738 0.28091 0.15477 0.0
H2311 H 0.7691 0.248 0.1507 0.0
H2312 H 0.83204 0.21469 0.21017 0.0
H2313 H 0.8187 0.23766 0.24541 0.0
H2314 H 0.79775 0.28879 0.19633 0.0
C2315 C 0.80748 0.22809 0.11725 0.0
C2316 C 0.80931 0.20358 0.11135 0.0
C2317 C 0.81982 0.19103 0.12968 0.0
C2318 C 0.82661 0.20224 0.1542 0.0
C2319 C 0.82326 0.2261 0.15977 0.0
C2320 C 0.81434 0.23903 0.14161 0.0
C2321 C 0.80865 0.26269 0.15272 0.0
C2322 C 0.82628 0.2848 0.14529 0.0
C2323 C 0.78171 0.26413 0.14536 0.0
C2324 C 0.81363 0.26009 0.18012 0.0
C2325 C 0.82283 0.23931 0.18388 0.0
C2326 C 0.82557 0.23137 0.20747 0.0
C2327 C 0.81785 0.24442 0.22741 0.0
C2328 C 0.80719 0.26489 0.2236 0.0
C2329 C 0.80616 0.27341 0.19989 0.0
H2330 H 0.09869 0.50138 0.32017 0.0
H2331 H 0.07978 0.5703 0.30334 0.0
H2332 H 0.05566 0.56983 0.33906 0.0
H2333 H 0.04074 0.47443 0.33901 0.0
H2334 H 0.05378 0.4599 0.3639 0.0
H2335 H 0.06971 0.46535 0.3369 0.0
H2336 H 0.10826 0.4895 0.36513 0.0
H2337 H 0.0926 0.48371 0.3922 0.0
H2338 H 0.10546 0.51466 0.38701 0.0
H2339 H 0.0328 0.56156 0.3756 0.0
H2340 H 0.01679 0.54855 0.41423 0.0
H2341 H 0.05117 0.48551 0.40781 0.0
C2342 C 0.0896 0.51645 0.32407 0.0
C2343 C 0.09101 0.5358 0.30888 0.0
C2344 C 0.07892 0.55522 0.31467 0.0
C2345 C 0.06506 0.55508 0.33483 0.0
C2346 C 0.06355 0.53545 0.34903 0.0
C2347 C 0.07575 0.51667 0.34418 0.0
C2348 C 0.07162 0.4981 0.36281 0.0
C2349 C 0.05816 0.47296 0.34987 0.0
C2350 C 0.09593 0.49641 0.37767 0.0
C2351 C 0.05543 0.50958 0.37902 0.0
C2352 C 0.0507 0.53091 0.37051 0.0
C2353 C 0.03636 0.54489 0.38251 0.0
C2354 C 0.02723 0.53727 0.40433 0.0
C2355 C 0.0328 0.51605 0.41397 0.0
C2356 C 0.04662 0.5018 0.40083 0.0
H2357 H 0.75765 0.86061 0.62688 0.0
H2358 H 0.74022 0.79572 0.57385 0.0
H2359 H 0.72782 0.77046 0.60747 0.0
H2360 H 0.78651 0.83432 0.67233 0.0
H2361 H 0.77656 0.85003 0.6987 0.0
H2362 H 0.77868 0.86384 0.67005 0.0
H2363 H 0.73317 0.86757 0.66849 0.0
H2364 H 0.73102 0.85396 0.69737 0.0
H2365 H 0.70996 0.84077 0.67023 0.0
H2366 H 0.72317 0.75158 0.64736 0.0
H2367 H 0.72713 0.74059 0.69057 0.0
H2368 H 0.74917 0.81757 0.71784 0.0
C2369 C 0.75015 0.84125 0.62231 0.0
C2370 C 0.7492 0.83006 0.59783 0.0
C2371 C 0.74054 0.80454 0.59252 0.0
C2372 C 0.73346 0.7901 0.61146 0.0
C2373 C 0.73538 0.80146 0.63567 0.0
C2374 C 0.74342 0.8265 0.64117 0.0
C2375 C 0.74702 0.83366 0.6691 0.0
C2376 C 0.77377 0.84619 0.67805 0.0
C2377 C 0.72922 0.84995 0.67674 0.0
C2378 C 0.74057 0.80873 0.67835 0.0
C2379 C 0.73348 0.79043 0.65883 0.0
C2380 C 0.72829 0.76579 0.66283 0.0
C2381 C 0.73064 0.7597 0.68744 0.0
C2382 C 0.73842 0.77818 0.70768 0.0
C2383 C 0.74302 0.80298 0.70291 0.0
H2384 H 0.68269 0.40966 0.53547 0.0
H2385 H 0.73409 0.47364 0.52004 0.0
H2386 H 0.7052 0.49975 0.53159 0.0
H2387 H 0.63051 0.42601 0.50899 0.0
H2388 H 0.61111 0.41391 0.5316 0.0
H2389 H 0.63728 0.40114 0.52557 0.0
H2390 H 0.65329 0.40952 0.57268 0.0
H2391 H 0.6272 0.42267 0.57872 0.0
H2392 H 0.65776 0.4401 0.58814 0.0
H2393 H 0.66888 0.51842 0.54113 0.0
H2394 H 0.62717 0.52678 0.54353 0.0
H2395 H 0.59996 0.45055 0.5519 0.0
C2396 C 0.68809 0.42921 0.53492 0.0
C2397 C 0.71071 0.43958 0.52694 0.0
C2398 C 0.71688 0.46524 0.52616 0.0
C2399 C 0.70066 0.48027 0.53287 0.0
C2400 C 0.6784 0.46941 0.54049 0.0
C2401 C 0.67212 0.44443 0.54148 0.0
C2402 C 0.64625 0.4369 0.54794 0.0
C2403 C 0.63036 0.41842 0.52729 0.0
C2404 C 0.64613 0.4267 0.57338 0.0
C2405 C 0.63852 0.46133 0.54921 0.0
C2406 C 0.65747 0.48005 0.5456 0.0
C2407 C 0.65403 0.50398 0.5444 0.0
C2408 C 0.63039 0.50864 0.54597 0.0
C2409 C 0.61063 0.48933 0.5482 0.0
C2410 C 0.61496 0.46566 0.55061 0.0
H2411 H 0.19207 0.08677 0.52308 0.0
H2412 H 0.18062 0.09206 0.44384 0.0
H2413 H 0.1446 0.05785 0.43976 0.0
H2414 H 0.16687 0.01889 0.52249 0.0
H2415 H 0.15228 0.02411 0.55018 0.0
H2416 H 0.1806 0.04399 0.54573 0.0
H2417 H 0.1601 0.0815 0.55138 0.0
H2418 H 0.13183 0.0618 0.55572 0.0
H2419 H 0.13249 0.08216 0.53168 0.0
H2420 H 0.10676 0.02727 0.4454 0.0
H2421 H 0.06859 0.00656 0.46063 0.0
H2422 H 0.10304 0.02437 0.53675 0.0
C2423 C 0.18258 0.07985 0.50475 0.0
C2424 C 0.18936 0.09127 0.48361 0.0
C2425 C 0.17589 0.08293 0.46006 0.0
C2426 C 0.1555 0.06353 0.45762 0.0
C2427 C 0.1487 0.05303 0.47901 0.0
C2428 C 0.16181 0.06102 0.50218 0.0
C2429 C 0.14842 0.05003 0.52282 0.0
C2430 C 0.16291 0.03325 0.53608 0.0
C2431 C 0.14288 0.07006 0.54147 0.0
C2432 C 0.12529 0.03544 0.50781 0.0
C2433 C 0.12609 0.03668 0.48251 0.0
C2434 C 0.10609 0.02586 0.46513 0.0
C2435 C 0.08453 0.0141 0.47391 0.0
C2436 C 0.08304 0.0139 0.4998 0.0
C2437 C 0.10386 0.02417 0.51683 0.0
H2438 H 0.16568 0.93242 0.78637 0.0
H2439 H 0.23385 0.98482 0.80851 0.0
H2440 H 0.25684 0.9516 0.80381 0.0
H2441 H 0.18219 0.88352 0.8182 0.0
H2442 H 0.1667 0.86005 0.79401 0.0
H2443 H 0.15588 0.88813 0.79874 0.0
H2444 H 0.15966 0.89482 0.75233 0.0
H2445 H 0.17072 0.86685 0.74762 0.0
H2446 H 0.18861 0.89514 0.74027 0.0
H2447 H 0.27257 0.91229 0.79548 0.0
H2448 H 0.27898 0.86976 0.78791 0.0
H2449 H 0.20046 0.84356 0.77313 0.0
C2450 C 0.18543 0.93695 0.79029 0.0
C2451 C 0.19793 0.96129 0.79775 0.0
C2452 C 0.22382 0.96635 0.80273 0.0
C2453 C 0.23708 0.9476 0.80004 0.0
C2454 C 0.2242 0.92386 0.7924 0.0
C2455 C 0.19893 0.91848 0.78781 0.0
C2456 C 0.18938 0.89142 0.78032 0.0
C2457 C 0.17255 0.88012 0.79894 0.0
C2458 C 0.17632 0.8868 0.75355 0.0
C2459 C 0.21317 0.88236 0.78181 0.0
C2460 C 0.23313 0.90133 0.78838 0.0
C2461 C 0.25705 0.89729 0.7904 0.0
C2462 C 0.26055 0.87317 0.78596 0.0
C2463 C 0.24022 0.85352 0.78005 0.0
C2464 C 0.21632 0.85829 0.77781 0.0
H2465 H 0.32424 0.93607 0.02873 0.0
H2466 H 0.32101 0.91248 0.95012 0.0
H2467 H 0.35754 0.94435 0.94696 0.0
H2468 H 0.35445 0.00366 0.02744 0.0
H2469 H 0.37335 0.0032 0.05615 0.0
H2470 H 0.34281 0.98475 0.05067 0.0
H2471 H 0.36029 0.9462 0.05871 0.0
H2472 H 0.39069 0.96442 0.06411 0.0
H2473 H 0.38369 0.93853 0.04059 0.0
H2474 H 0.39835 0.97245 0.95388 0.0
H2475 H 0.44123 0.99082 0.97104 0.0
H2476 H 0.41955 0.99338 0.04565 0.0
C2477 C 0.33058 0.9386 0.01066 0.0
C2478 C 0.31969 0.92248 0.98953 0.0
C2479 C 0.32903 0.92514 0.96637 0.0
C2480 C 0.34964 0.94325 0.9644 0.0
C2481 C 0.36082 0.95828 0.98587 0.0
C2482 C 0.35159 0.95609 0.00863 0.0
C2483 C 0.36956 0.97052 0.02977 0.0
C2484 C 0.35943 0.9918 0.04171 0.0
C2485 C 0.37646 0.95392 0.04941 0.0
C2486 C 0.39088 0.9798 0.01562 0.0
C2487 C 0.38519 0.97348 0.9902 0.0
C2488 C 0.40285 0.97802 0.97367 0.0
C2489 C 0.4271 0.98846 0.98349 0.0
C2490 C 0.43331 0.9935 0.00952 0.0
C2491 C 0.41492 0.98989 0.02561 0.0
H2492 H 0.84915 0.59748 0.82003 0.0
H2493 H 0.85232 0.57275 0.74248 0.0
H2494 H 0.82552 0.60066 0.72936 0.0
H2495 H 0.7855 0.60641 0.81297 0.0
H2496 H 0.79242 0.63346 0.83498 0.0
H2497 H 0.80957 0.60963 0.83831 0.0
H2498 H 0.8501 0.64097 0.83775 0.0
H2499 H 0.83308 0.66485 0.83467 0.0
H2500 H 0.85361 0.65933 0.81209 0.0
H2501 H 0.79998 0.63312 0.72472 0.0
H2502 H 0.78114 0.66961 0.72914 0.0
H2503 H 0.79646 0.67376 0.8095 0.0
C2504 C 0.84391 0.59764 0.80029 0.0
C2505 C 0.85272 0.58284 0.78229 0.0
C2506 C 0.84577 0.58392 0.75662 0.0
C2507 C 0.83043 0.59961 0.74899 0.0
C2508 C 0.82222 0.61413 0.76723 0.0
C2509 C 0.82884 0.61335 0.79236 0.0
C2510 C 0.8192 0.63213 0.80821 0.0
C2511 C 0.80056 0.61966 0.82458 0.0
C2512 C 0.84026 0.6504 0.8241 0.0
C2513 C 0.80686 0.64415 0.78807 0.0
C2514 C 0.80823 0.63319 0.76455 0.0
C2515 C 0.79865 0.64173 0.74306 0.0
C2516 C 0.78791 0.66238 0.74572 0.0
C2517 C 0.78736 0.67441 0.76965 0.0
C2518 C 0.79656 0.66484 0.79099 0.0
H2519 H 0.81878 0.60427 0.02226 0.0
H2520 H 0.78626 0.56323 0.95151 0.0
H2521 H 0.81754 0.53762 0.95454 0.0
H2522 H 0.8811 0.60479 0.01275 0.0
H2523 H 0.89038 0.60171 0.04489 0.0
H2524 H 0.86522 0.61639 0.03709 0.0
H2525 H 0.83722 0.58592 0.06065 0.0
H2526 H 0.8623 0.57109 0.06843 0.0
H2527 H 0.83388 0.55351 0.05233 0.0
H2528 H 0.8539 0.51757 0.96477 0.0
H2529 H 0.89144 0.50456 0.9818 0.0
H2530 H 0.8984 0.558 0.04632 0.0
C2531 C 0.81816 0.58989 0.00738 0.0
C2532 C 0.80007 0.58581 0.98661 0.0
C2533 C 0.79995 0.56674 0.9676 0.0
C2534 C 0.81763 0.55207 0.96916 0.0
C2535 C 0.83521 0.55663 0.98991 0.0
C2536 C 0.83552 0.57506 0.0087 0.0
C2537 C 0.85643 0.57647 0.02893 0.0
C2538 C 0.87434 0.60131 0.03102 0.0
C2539 C 0.84688 0.57144 0.05406 0.0
C2540 C 0.86787 0.55595 0.01864 0.0
C2541 C 0.85552 0.54477 0.99606 0.0
C2542 C 0.86355 0.52605 0.98256 0.0
C2543 C 0.88485 0.51877 0.99236 0.0
C2544 C 0.89765 0.53003 0.01551 0.0
C2545 C 0.8888 0.54868 0.0288 0.0
H2546 H 0.16991 0.09226 0.76097 0.0
H2547 H 0.20556 0.06878 0.82633 0.0
H2548 H 0.23902 0.10564 0.8291 0.0
H2549 H 0.22697 0.11832 0.73472 0.0
H2550 H 0.21366 0.1425 0.723 0.0
H2551 H 0.19452 0.11314 0.72514 0.0
H2552 H 0.16684 0.13407 0.75217 0.0
H2553 H 0.18579 0.16331 0.74979 0.0
H2554 H 0.18057 0.15368 0.78007 0.0
H2555 H 0.26545 0.14881 0.82721 0.0
H2556 H 0.28217 0.19174 0.81996 0.0
H2557 H 0.22966 0.18359 0.75414 0.0
C2558 C 0.18498 0.09468 0.77564 0.0
C2559 C 0.18521 0.07796 0.79355 0.0
C2560 C 0.20522 0.0815 0.8124 0.0
C2561 C 0.22422 0.10233 0.81408 0.0
C2562 C 0.22312 0.1189 0.79633 0.0
C2563 C 0.20413 0.11489 0.7772 0.0
C2564 C 0.20622 0.13556 0.76097 0.0
C2565 C 0.21061 0.12685 0.73438 0.0
C2566 C 0.18352 0.14734 0.76078 0.0
C2567 C 0.22867 0.15253 0.77456 0.0
C2568 C 0.23847 0.14274 0.79479 0.0
C2569 C 0.25816 0.15638 0.81112 0.0
C2570 C 0.26759 0.18071 0.80687 0.0
C2571 C 0.25713 0.19103 0.78657 0.0
C2572 C 0.238 0.17634 0.76993 0.0
H2573 H 0.36834 0.93851 0.24304 0.0
H2574 H 0.33284 0.96602 0.3039 0.0
H2575 H 0.30394 0.92593 0.30097 0.0
H2576 H 0.31071 0.89947 0.20795 0.0
H2577 H 0.32717 0.87657 0.19758 0.0
H2578 H 0.34229 0.90832 0.20246 0.0
H2579 H 0.37632 0.89734 0.23264 0.0
H2580 H 0.36121 0.86572 0.22816 0.0
H2581 H 0.368 0.88157 0.25918 0.0
H2582 H 0.28328 0.88076 0.29493 0.0
H2583 H 0.27078 0.8359 0.28449 0.0
H2584 H 0.31951 0.83955 0.22661 0.0
C2585 C 0.35405 0.93621 0.25531 0.0
C2586 C 0.35264 0.95505 0.2737 0.0
C2587 C 0.3339 0.95167 0.28956 0.0
C2588 C 0.31752 0.92902 0.28802 0.0
C2589 C 0.31988 0.91042 0.27008 0.0
C2590 C 0.33736 0.91406 0.25362 0.0
C2591 C 0.33708 0.89104 0.23685 0.0
C2592 C 0.32882 0.89403 0.2096 0.0
C2593 C 0.36213 0.88348 0.23939 0.0
C2594 C 0.3179 0.87336 0.24751 0.0
C2595 C 0.30781 0.88484 0.26637 0.0
C2596 C 0.29074 0.87171 0.27988 0.0
C2597 C 0.28385 0.84625 0.27391 0.0
C2598 C 0.29423 0.83426 0.25477 0.0
C2599 C 0.31122 0.84815 0.24132 0.0
H2600 H 0.53051 0.35344 0.63678 0.0
H2601 H 0.54863 0.31584 0.56996 0.0
H2602 H 0.53794 0.34821 0.54541 0.0
H2603 H 0.48082 0.38104 0.60712 0.0
H2604 H 0.49096 0.40947 0.62686 0.0
H2605 H 0.49524 0.38116 0.63833 0.0
H2606 H 0.5418 0.39884 0.64873 0.0
H2607 H 0.53759 0.42714 0.63749 0.0
H2608 H 0.55913 0.4109 0.62456 0.0
H2609 H 0.52901 0.3859 0.52897 0.0
H2610 H 0.52792 0.42878 0.52279 0.0
H2611 H 0.51852 0.4434 0.60087 0.0
C2612 C 0.53156 0.35182 0.61686 0.0
C2613 C 0.54001 0.33218 0.60506 0.0
C2614 C 0.54204 0.33083 0.57918 0.0
C2615 C 0.5358 0.34896 0.56509 0.0
C2616 C 0.52785 0.36837 0.57729 0.0
C2617 C 0.52599 0.3701 0.60265 0.0
C2618 C 0.52059 0.39455 0.61186 0.0
C2619 C 0.4954 0.39135 0.62161 0.0
C2620 C 0.541 0.40868 0.63182 0.0
C2621 C 0.52051 0.40655 0.5879 0.0
C2622 C 0.52397 0.39087 0.56803 0.0
C2623 C 0.52598 0.39827 0.54429 0.0
C2624 C 0.52527 0.42262 0.54094 0.0
C2625 C 0.52313 0.43926 0.56138 0.0
C2626 C 0.52003 0.43094 0.58493 0.0
H2627 H 0.40515 0.71003 0.36022 0.0
H2628 H 0.45938 0.74644 0.3165 0.0
H2629 H 0.42638 0.75221 0.28544 0.0
H2630 H 0.35849 0.68101 0.30393 0.0
H2631 H 0.3335 0.68504 0.32146 0.0
H2632 H 0.36122 0.67892 0.33706 0.0
H2633 H 0.36533 0.71812 0.36771 0.0
H2634 H 0.33778 0.72385 0.3519 0.0
H2635 H 0.36545 0.74702 0.35533 0.0
H2636 H 0.38783 0.76163 0.26423 0.0
H2637 H 0.3466 0.77044 0.25292 0.0
H2638 H 0.3181 0.72713 0.30992 0.0
C2639 C 0.41005 0.71835 0.3436 0.0
C2640 C 0.43473 0.72775 0.3407 0.0
C2641 C 0.44055 0.73882 0.3189 0.0
C2642 C 0.42193 0.74223 0.30118 0.0
C2643 C 0.39767 0.73387 0.30524 0.0
C2644 C 0.39172 0.72153 0.32559 0.0
C2645 C 0.3644 0.71628 0.32694 0.0
C2646 C 0.35378 0.68867 0.32204 0.0
C2647 C 0.35794 0.72702 0.35198 0.0
C2648 C 0.35617 0.72949 0.30557 0.0
C2649 C 0.37546 0.73902 0.29282 0.0
C2650 C 0.37248 0.75371 0.27366 0.0
C2651 C 0.34918 0.75876 0.26746 0.0
C2652 C 0.32952 0.7494 0.28069 0.0
C2653 C 0.33297 0.73436 0.2996 0.0
H2654 H 0.01933 0.69938 0.07556 0.0
H2655 H 0.00428 0.69945 0.15274 0.0
H2656 H 0.99397 0.65436 0.14751 0.0
H2657 H 0.96953 0.64769 0.05158 0.0
H2658 H 0.98694 0.63598 0.02874 0.0
H2659 H 0.99263 0.66831 0.03848 0.0
H2660 H 0.03846 0.66799 0.05051 0.0
H2661 H 0.03283 0.63561 0.04114 0.0
H2662 H 0.04668 0.64753 0.07226 0.0
H2663 H 0.98809 0.60965 0.13489 0.0
H2664 H 0.98197 0.56769 0.11427 0.0
H2665 H 0.99886 0.59646 0.04459 0.0
C2666 C 0.01363 0.68988 0.09126 0.0
C2667 C 0.01262 0.70285 0.11456 0.0
C2668 C 0.00499 0.68985 0.13468 0.0
C2669 C 0.99925 0.66426 0.13194 0.0
C2670 C 0.00089 0.65203 0.10888 0.0
C2671 C 0.00742 0.66435 0.08874 0.0
C2672 C 0.00726 0.64673 0.06586 0.0
C2673 C 0.98794 0.64987 0.04493 0.0
C2674 C 0.03283 0.64965 0.05693 0.0
C2675 C 6e-05 0.6226 0.07645 0.0
C2676 C 0.99664 0.6261 0.10134 0.0
C2677 C 0.99045 0.60663 0.11535 0.0
C2678 C 0.98712 0.58287 0.10347 0.0
C2679 C 0.9898 0.57881 0.07778 0.0
C2680 C 0.99657 0.59899 0.06421 0.0
H2681 H 0.08618 0.28346 0.82745 0.0
H2682 H 0.04626 0.20817 0.81842 0.0
H2683 H 0.07588 0.19668 0.79105 0.0
H2684 H 0.10548 0.28473 0.76407 0.0
H2685 H 0.13526 0.30311 0.77526 0.0
H2686 H 0.10927 0.30613 0.79166 0.0
H2687 H 0.13235 0.29711 0.8325 0.0
H2688 H 0.15838 0.29426 0.81628 0.0
H2689 H 0.14444 0.26956 0.83272 0.0
H2690 H 0.11178 0.19248 0.76829 0.0
H2691 H 0.15262 0.19562 0.75372 0.0
H2692 H 0.16891 0.27364 0.77719 0.0
C2693 C 0.08341 0.26466 0.81931 0.0
C2694 C 0.06386 0.24675 0.82493 0.0
C2695 C 0.06112 0.22222 0.81435 0.0
C2696 C 0.07774 0.21553 0.79864 0.0
C2697 C 0.09697 0.23358 0.79366 0.0
C2698 C 0.09994 0.25764 0.80373 0.0
C2699 C 0.12341 0.273 0.79734 0.0
C2700 C 0.11802 0.29292 0.78111 0.0
C2701 C 0.14065 0.28412 0.82111 0.0
C2702 C 0.13342 0.25369 0.78264 0.0
C2703 C 0.11776 0.23114 0.78045 0.0
C2704 C 0.12403 0.21012 0.76949 0.0
C2705 C 0.14725 0.21208 0.76124 0.0
C2706 C 0.16388 0.23488 0.76412 0.0
C2707 C 0.15647 0.25602 0.77425 0.0
H2708 H 0.54189 0.69705 0.95052 0.0
H2709 H 0.51373 0.72663 0.01593 0.0
H2710 H 0.51984 0.6909 0.0373 0.0
H2711 H 0.5123 0.63669 0.95254 0.0
H2712 H 0.5367 0.62298 0.94221 0.0
H2713 H 0.53332 0.65238 0.93318 0.0
H2714 H 0.57806 0.67088 0.95192 0.0
H2715 H 0.58156 0.64146 0.96102 0.0
H2716 H 0.58764 0.66776 0.984 0.0
H2717 H 0.52428 0.65019 0.04981 0.0
H2718 H 0.52702 0.60699 0.05249 0.0
H2719 H 0.55277 0.60385 0.9794 0.0
C2720 C 0.53764 0.69628 0.96956 0.0
C2721 C 0.52748 0.71467 0.98162 0.0
C2722 C 0.52155 0.71275 0.00633 0.0
C2723 C 0.52506 0.69258 0.01869 0.0
C2724 C 0.53455 0.67447 0.00612 0.0
C2725 C 0.54085 0.67612 0.98215 0.0
C2726 C 0.54866 0.65311 0.97211 0.0
C2727 C 0.53173 0.64056 0.94863 0.0
C2728 C 0.57559 0.65864 0.96697 0.0
C2729 C 0.54525 0.63815 0.99398 0.0
C2730 C 0.53727 0.65087 0.01348 0.0
C2731 C 0.53096 0.64015 0.03487 0.0
C2732 C 0.53252 0.61563 0.03622 0.0
C2733 C 0.54037 0.60218 0.01631 0.0
C2734 C 0.54723 0.61381 0.99517 0.0
H2735 H 0.07545 0.77233 0.6822 0.0
H2736 H 0.05509 0.70628 0.71832 0.0
H2737 H 0.09788 0.71042 0.73623 0.0
H2738 H 0.13135 0.76117 0.66501 0.0
H2739 H 0.14777 0.79245 0.67111 0.0
H2740 H 0.11512 0.78586 0.66279 0.0
H2741 H 0.10953 0.81161 0.70314 0.0
H2742 H 0.14222 0.8185 0.71146 0.0
H2743 H 0.12231 0.80482 0.7329 0.0
H2744 H 0.14285 0.71995 0.74813 0.0
H2745 H 0.18753 0.73532 0.75454 0.0
H2746 H 0.17913 0.79491 0.71043 0.0
C2747 C 0.07991 0.75897 0.69421 0.0
C2748 C 0.06189 0.73897 0.69882 0.0
C2749 C 0.06855 0.72175 0.71446 0.0
C2750 C 0.09282 0.72394 0.72477 0.0
C2751 C 0.11022 0.7435 0.71938 0.0
C2752 C 0.10412 0.76086 0.70467 0.0
C2753 C 0.12661 0.77959 0.7011 0.0
C2754 C 0.13043 0.77976 0.67335 0.0
C2755 C 0.12507 0.80514 0.71285 0.0
C2756 C 0.1463 0.76956 0.71548 0.0
C2757 C 0.13638 0.74889 0.72608 0.0
C2758 C 0.15087 0.7362 0.74005 0.0
C2759 C 0.17622 0.74502 0.74351 0.0
C2760 C 0.18681 0.76622 0.73287 0.0
C2761 C 0.1716 0.77855 0.71862 0.0
H2762 H 0.06375 0.35395 0.50849 0.0
H2763 H 0.05105 0.34712 0.42776 0.0
H2764 H 0.04447 0.38927 0.42947 0.0
H2765 H 0.02042 0.38265 0.52149 0.0
H2766 H 0.03609 0.40443 0.54709 0.0
H2767 H 0.04633 0.37637 0.54034 0.0
H2768 H 0.08989 0.39995 0.53568 0.0
H2769 H 0.0802 0.42825 0.54354 0.0
H2770 H 0.09376 0.42365 0.51507 0.0
H2771 H 0.02545 0.42436 0.44035 0.0
H2772 H 0.00881 0.45826 0.45884 0.0
H2773 H 0.03974 0.44724 0.53248 0.0
C2774 C 0.06113 0.36192 0.49118 0.0
C2775 C 0.05792 0.34732 0.46802 0.0
C2776 C 0.05394 0.35805 0.44568 0.0
C2777 C 0.0499 0.38195 0.44648 0.0
C2778 C 0.05097 0.39512 0.4697 0.0
C2779 C 0.05779 0.38608 0.49164 0.0
C2780 C 0.05594 0.40351 0.51414 0.0
C2781 C 0.03867 0.39097 0.53178 0.0
C2782 C 0.08147 0.4145 0.52792 0.0
C2783 C 0.04515 0.42269 0.50143 0.0
C2784 C 0.04224 0.41728 0.4758 0.0
C2785 C 0.02895 0.4297 0.46024 0.0
C2786 C 0.0194 0.44887 0.471 0.0
C2787 C 0.02397 0.45617 0.497 0.0
C2788 C 0.03679 0.44266 0.51244 0.0
H2789 H 0.42127 0.26081 0.17125 0.0
H2790 H 0.46254 0.26726 0.24419 0.0
H2791 H 0.42792 0.27912 0.26375 0.0
H2792 H 0.38544 0.31007 0.18511 0.0
H2793 H 0.35817 0.29217 0.16711 0.0
H2794 H 0.38792 0.28961 0.15834 0.0
H2795 H 0.3772 0.24276 0.16035 0.0
H2796 H 0.34755 0.2452 0.16906 0.0
H2797 H 0.36752 0.23123 0.18864 0.0
H2798 H 0.3875 0.28446 0.27581 0.0
H2799 H 0.34343 0.27971 0.27976 0.0
H2800 H 0.32761 0.26827 0.19912 0.0
C2801 C 0.42327 0.26557 0.19125 0.0
C2802 C 0.44459 0.26344 0.20623 0.0
C2803 C 0.44634 0.26893 0.23242 0.0
C2804 C 0.42686 0.27586 0.24366 0.0
C2805 C 0.40576 0.27714 0.22846 0.0
C2806 C 0.40381 0.2721 0.2028 0.0
C2807 C 0.37799 0.27125 0.19107 0.0
C2808 C 0.37735 0.29202 0.17442 0.0
C2809 C 0.36693 0.24612 0.17644 0.0
C2810 C 0.3655 0.27538 0.2142 0.0
C2811 C 0.38198 0.27945 0.23551 0.0
C2812 C 0.37447 0.28173 0.25925 0.0
C2813 C 0.34937 0.27899 0.2613 0.0
C2814 C 0.33208 0.2736 0.23974 0.0
C2815 C 0.34039 0.2726 0.21592 0.0
H2816 H 0.55549 0.50156 0.34216 0.0
H2817 H 0.62873 0.49113 0.36476 0.0
H2818 H 0.61666 0.48203 0.40624 0.0
H2819 H 0.54659 0.53269 0.39444 0.0
H2820 H 0.51484 0.51912 0.3955 0.0
H2821 H 0.52726 0.51946 0.36613 0.0
H2822 H 0.51364 0.47235 0.35769 0.0
H2823 H 0.50068 0.47185 0.38693 0.0
H2824 H 0.52284 0.45338 0.38055 0.0
H2825 H 0.59996 0.48459 0.44715 0.0
H2826 H 0.57801 0.49249 0.48336 0.0
H2827 H 0.51417 0.49758 0.43385 0.0
C2828 C 0.56866 0.49639 0.35556 0.0
C2829 C 0.59298 0.49697 0.35041 0.0
C2830 C 0.60991 0.49045 0.36833 0.0
C2831 C 0.60322 0.48533 0.39192 0.0
C2832 C 0.57936 0.48611 0.39688 0.0
C2833 C 0.5621 0.49073 0.37895 0.0
C2834 C 0.53836 0.49254 0.38958 0.0
C2835 C 0.53139 0.51743 0.38622 0.0
C2836 C 0.51766 0.47126 0.378 0.0
C2837 C 0.54556 0.49008 0.41671 0.0
C2838 C 0.56922 0.48616 0.42049 0.0
C2839 C 0.58112 0.48667 0.44434 0.0
C2840 C 0.56854 0.49131 0.4648 0.0
C2841 C 0.54422 0.49504 0.46132 0.0
C2842 C 0.53247 0.49398 0.43696 0.0
H2843 H 0.2495 0.85043 0.0849 0.0
H2844 H 0.29296 0.80241 0.05196 0.0
H2845 H 0.28857 0.77763 0.08719 0.0
H2846 H 0.27514 0.84933 0.14856 0.0
H2847 H 0.24668 0.85015 0.16127 0.0
H2848 H 0.25283 0.86393 0.13311 0.0
H2849 H 0.21234 0.83729 0.11047 0.0
H2850 H 0.20634 0.82312 0.13848 0.0
H2851 H 0.20731 0.80448 0.10992 0.0
H2852 H 0.27934 0.75773 0.12527 0.0
H2853 H 0.26944 0.7464 0.16664 0.0
H2854 H 0.23255 0.80751 0.17548 0.0
C2855 C 0.25811 0.83473 0.08514 0.0
C2856 C 0.27149 0.82832 0.06563 0.0
C2857 C 0.28268 0.80775 0.06672 0.0
C2858 C 0.28017 0.79343 0.08656 0.0
C2859 C 0.26657 0.8 0.10527 0.0
C2860 C 0.25602 0.82033 0.10499 0.0
C2861 C 0.24329 0.82388 0.1281 0.0
C2862 C 0.2552 0.84826 0.14367 0.0
C2863 C 0.21568 0.82208 0.12132 0.0
C2864 C 0.24827 0.80228 0.14123 0.0
C2865 C 0.26156 0.78867 0.12763 0.0
C2866 C 0.26892 0.76821 0.13615 0.0
C2867 C 0.26315 0.76188 0.15962 0.0
C2868 C 0.25026 0.77608 0.17427 0.0
C2869 C 0.24228 0.7962 0.16465 0.0
H2870 H 0.98605 0.54757 0.8524 0.0
H2871 H 0.9135 0.55772 0.86572 0.0
H2872 H 0.92659 0.56464 0.91111 0.0
H2873 H 0.9938 0.51235 0.89581 0.0
H2874 H 0.0259 0.52396 0.9057 0.0
H2875 H 0.01345 0.52742 0.87487 0.0
H2876 H 0.02923 0.57432 0.88275 0.0
H2877 H 0.04203 0.57098 0.91377 0.0
H2878 H 0.02102 0.59128 0.90935 0.0
H2879 H 0.94374 0.55859 0.95394 0.0
H2880 H 0.96389 0.54249 0.98956 0.0
H2881 H 0.02591 0.53803 0.94867 0.0
C2882 C 0.9733 0.55239 0.86486 0.0
C2883 C 0.94884 0.55218 0.8557 0.0
C2884 C 0.93243 0.55815 0.87241 0.0
C2885 C 0.93974 0.56208 0.89822 0.0
C2886 C 0.96367 0.56065 0.90684 0.0
C2887 C 0.98042 0.55659 0.89053 0.0
C2888 C 0.00378 0.5523 0.90422 0.0
C2889 C 0.00952 0.52755 0.89459 0.0
C2890 C 0.02528 0.57349 0.90242 0.0
C2891 C 0.99678 0.55231 0.9305 0.0
C2892 C 0.97383 0.55777 0.93183 0.0
C2893 C 0.96201 0.55508 0.95329 0.0
C2894 C 0.97348 0.54572 0.9734 0.0
C2895 C 0.99643 0.53905 0.97186 0.0
C2896 C 0.00865 0.54358 0.95062 0.0
H2897 H 0.27264 0.16275 0.58907 0.0
H2898 H 0.22623 0.21222 0.56538 0.0
H2899 H 0.23051 0.23182 0.6084 0.0
H2900 H 0.24878 0.15506 0.64851 0.0
H2901 H 0.27797 0.15395 0.66495 0.0
H2902 H 0.27152 0.14361 0.63214 0.0
H2903 H 0.31033 0.17378 0.62345 0.0
H2904 H 0.31694 0.18412 0.65624 0.0
H2905 H 0.31417 0.20583 0.634 0.0
H2906 H 0.23987 0.24651 0.6536 0.0
H2907 H 0.2541 0.25541 0.69855 0.0
H2908 H 0.29388 0.19622 0.69355 0.0
C2909 C 0.26346 0.17775 0.59295 0.0
C2910 C 0.2491 0.18592 0.57382 0.0
C2911 C 0.23723 0.20551 0.57971 0.0
C2912 C 0.23956 0.21683 0.6041 0.0
C2913 C 0.25366 0.20826 0.62253 0.0
C2914 C 0.26538 0.18916 0.61735 0.0
C2915 C 0.27922 0.18344 0.64081 0.0
C2916 C 0.26874 0.15747 0.64696 0.0
C2917 C 0.3068 0.18702 0.63848 0.0
C2918 C 0.27377 0.20262 0.65977 0.0
C2919 C 0.25889 0.21664 0.64882 0.0
C2920 C 0.25148 0.23562 0.66244 0.0
C2921 C 0.25964 0.24052 0.68797 0.0
C2922 C 0.27508 0.22652 0.69959 0.0
C2923 C 0.28206 0.20724 0.68524 0.0
H2924 H 0.60799 0.49083 0.20749 0.0
H2925 H 0.56627 0.54657 0.22537 0.0
H2926 H 0.54806 0.54194 0.18175 0.0
H2927 H 0.62092 0.50835 0.14716 0.0
H2928 H 0.61758 0.47748 0.13286 0.0
H2929 H 0.62734 0.48469 0.16575 0.0
H2930 H 0.5915 0.45139 0.1755 0.0
H2931 H 0.58172 0.44398 0.14263 0.0
H2932 H 0.5606 0.45217 0.1634 0.0
H2933 H 0.53467 0.53208 0.13645 0.0
H2934 H 0.52589 0.51638 0.09194 0.0
H2935 H 0.57593 0.4669 0.10283 0.0
C2936 C 0.59494 0.50196 0.20225 0.0
C2937 C 0.58862 0.51907 0.21994 0.0
C2938 C 0.57148 0.53333 0.21225 0.0
C2939 C 0.56101 0.53088 0.18747 0.0
C2940 C 0.56778 0.51407 0.1705 0.0
C2941 C 0.58423 0.49975 0.17749 0.0
C2942 C 0.58826 0.48308 0.15537 0.0
C2943 C 0.61512 0.48875 0.14997 0.0
C2944 C 0.58002 0.45606 0.15948 0.0
C2945 C 0.57151 0.49035 0.13497 0.0
C2946 C 0.55993 0.50829 0.14415 0.0
C2947 C 0.54358 0.51799 0.12899 0.0
C2948 C 0.53874 0.50897 0.10373 0.0
C2949 C 0.5502 0.4904 0.09389 0.0
C2950 C 0.5669 0.48112 0.10977 0.0
H2951 H 0.23594 0.85602 0.92087 0.0
H2952 H 0.20782 0.79348 0.95847 0.0
H2953 H 0.19863 0.76759 0.91826 0.0
H2954 H 0.19757 0.83323 0.85475 0.0
H2955 H 0.22421 0.84559 0.84016 0.0
H2956 H 0.21793 0.86103 0.86871 0.0
H2957 H 0.26136 0.8595 0.88865 0.0
H2958 H 0.26751 0.84344 0.86073 0.0
H2959 H 0.27026 0.83033 0.88985 0.0
H2960 H 0.20523 0.74668 0.87845 0.0
H2961 H 0.22416 0.7331 0.84179 0.0
H2962 H 0.25121 0.80884 0.83065 0.0
C2963 C 0.22599 0.83733 0.92013 0.0
C2964 C 0.22175 0.82677 0.94234 0.0
C2965 C 0.2103 0.80193 0.94138 0.0
C2966 C 0.20519 0.78709 0.9186 0.0
C2967 C 0.21181 0.79746 0.8971 0.0
C2968 C 0.22149 0.82225 0.89755 0.0
C2969 C 0.2323 0.8279 0.87358 0.0
C2970 C 0.21709 0.84281 0.8584 0.0
C2971 C 0.25945 0.84103 0.87854 0.0
C2972 C 0.22948 0.80229 0.86084 0.0
C2973 C 0.21678 0.78506 0.87413 0.0
C2974 C 0.21451 0.76004 0.86746 0.0
C2975 C 0.22555 0.75249 0.84677 0.0
C2976 C 0.23915 0.76992 0.83337 0.0
C2977 C 0.24068 0.79506 0.84032 0.0
H2978 H 0.96369 0.49996 0.71374 0.0
H2979 H 0.94753 0.5722 0.72815 0.0
H2980 H 0.96731 0.58492 0.69117 0.0
H2981 H 0.02254 0.51851 0.68985 0.0
H2982 H 0.01691 0.49289 0.66608 0.0
H2983 H 0.00341 0.48996 0.69487 0.0
H2984 H 0.96024 0.47637 0.67018 0.0
H2985 H 0.97363 0.47903 0.64138 0.0
H2986 H 0.94998 0.49554 0.64807 0.0
H2987 H 0.98778 0.58952 0.65251 0.0
H2988 H 0.00336 0.58449 0.61176 0.0
H2989 H 0.00433 0.50858 0.62098 0.0
C2990 C 0.96459 0.51855 0.70927 0.0
C2991 C 0.95431 0.53521 0.7239 0.0
C2992 C 0.95533 0.55919 0.71718 0.0
C2993 C 0.96668 0.56662 0.69635 0.0
C2994 C 0.9767 0.54977 0.68237 0.0
C2995 C 0.9755 0.52614 0.68833 0.0
C2996 C 0.9859 0.51106 0.66904 0.0
C2997 C 0.00854 0.50261 0.68066 0.0
C2998 C 0.96626 0.48922 0.65642 0.0
C2999 C 0.99285 0.52984 0.65111 0.0
C3000 C 0.98776 0.55214 0.65944 0.0
C3001 C 0.99183 0.57216 0.6458 0.0
C3002 C 0.00058 0.56909 0.62264 0.0
C3003 C 0.00481 0.54612 0.61315 0.0
C3004 C 0.00152 0.52642 0.6279 0.0
H3005 H 0.26655 0.16678 0.41967 0.0
H3006 H 0.28547 0.22848 0.47652 0.0
H3007 H 0.29692 0.25612 0.44447 0.0
H3008 H 0.31319 0.19082 0.37556 0.0
H3009 H 0.29128 0.17864 0.34876 0.0
H3010 H 0.2909 0.16313 0.37658 0.0
H3011 H 0.2452 0.16522 0.37781 0.0
H3012 H 0.24554 0.18099 0.35034 0.0
H3013 H 0.23636 0.19452 0.37839 0.0
H3014 H 0.29823 0.27774 0.40595 0.0
H3015 H 0.2904 0.29132 0.36422 0.0
H3016 H 0.27012 0.21549 0.33235 0.0
C3017 C 0.27442 0.1859 0.42537 0.0
C3018 C 0.27597 0.19555 0.45047 0.0
C3019 C 0.28493 0.22082 0.45736 0.0
C3020 C 0.29139 0.23661 0.43929 0.0
C3021 C 0.28868 0.22678 0.41442 0.0
C3022 C 0.28071 0.20192 0.40746 0.0
C3023 C 0.27597 0.19645 0.37936 0.0
C3024 C 0.29391 0.18137 0.36948 0.0
C3025 C 0.24919 0.18355 0.37101 0.0
C3026 C 0.28124 0.22212 0.37172 0.0
C3027 C 0.289 0.23936 0.39211 0.0
C3028 C 0.29272 0.26438 0.38976 0.0
C3029 C 0.28813 0.27194 0.36601 0.0
C3030 C 0.27965 0.25451 0.34499 0.0
C3031 C 0.27675 0.22933 0.34798 0.0
H3032 H 0.35161 0.61487 0.53074 0.0
H3033 H 0.30972 0.57852 0.46168 0.0
H3034 H 0.34195 0.55474 0.45518 0.0
H3035 H 0.41112 0.61978 0.51012 0.0
H3036 H 0.42526 0.6141 0.53973 0.0
H3037 H 0.39896 0.6282 0.53852 0.0
H3038 H 0.3763 0.59422 0.5625 0.0
H3039 H 0.40252 0.58 0.56371 0.0
H3040 H 0.37291 0.56262 0.55041 0.0
H3041 H 0.37952 0.53484 0.45657 0.0
H3042 H 0.41856 0.52097 0.46591 0.0
H3043 H 0.43441 0.5705 0.5342 0.0
C3044 C 0.34918 0.60201 0.51416 0.0
C3045 C 0.32815 0.59864 0.49668 0.0
C3046 C 0.3257 0.58146 0.47533 0.0
C3047 C 0.3439 0.56786 0.47148 0.0
C3048 C 0.36438 0.5716 0.48919 0.0
C3049 C 0.36703 0.58827 0.51011 0.0
C3050 C 0.39052 0.58884 0.52653 0.0
C3051 C 0.40746 0.61424 0.52884 0.0
C3052 C 0.38524 0.58095 0.55231 0.0
C3053 C 0.4008 0.56998 0.51157 0.0
C3054 C 0.38557 0.56016 0.49008 0.0
C3055 C 0.39156 0.54242 0.47338 0.0
C3056 C 0.41374 0.53465 0.47881 0.0
C3057 C 0.42954 0.54461 0.50077 0.0
C3058 C 0.42279 0.56244 0.51726 0.0
H3059 H 0.8663 0.9066 0.57528 0.0
H3060 H 0.82018 0.95039 0.53944 0.0
H3061 H 0.85676 0.98214 0.5363 0.0
H3062 H 0.91328 0.96059 0.6093 0.0
H3063 H 0.93776 0.94452 0.60502 0.0
H3064 H 0.90767 0.92779 0.60885 0.0
H3065 H 0.90725 0.90091 0.56734 0.0
H3066 H 0.93708 0.91765 0.56327 0.0
H3067 H 0.91196 0.91537 0.53923 0.0
H3068 H 0.8987 0.00492 0.52974 0.0
H3069 H 0.94225 0.0176 0.52262 0.0
H3070 H 0.96059 0.95994 0.56433 0.0
C3071 C 0.86384 0.92323 0.56751 0.0
C3072 C 0.84045 0.92607 0.55763 0.0
C3073 C 0.83792 0.94797 0.54738 0.0
C3074 C 0.85861 0.9661 0.5455 0.0
C3075 C 0.88156 0.96228 0.55452 0.0
C3076 C 0.88422 0.9416 0.56584 0.0
C3077 C 0.91093 0.9408 0.57211 0.0
C3078 C 0.91781 0.9436 0.60051 0.0
C3079 C 0.91715 0.9173 0.55973 0.0
C3080 C 0.92285 0.9632 0.56082 0.0
C3081 C 0.90571 0.97572 0.55123 0.0
C3082 C 0.91233 0.99568 0.5378 0.0
C3083 C 0.93701 0.00275 0.53382 0.0
C3084 C 0.95452 0.98975 0.5431 0.0
C3085 C 0.94746 0.97017 0.55719 0.0
H3086 H 0.87533 0.08923 0.2521 0.0
H3087 H 0.81309 0.04176 0.27631 0.0
H3088 H 0.79143 0.07618 0.27914 0.0
H3089 H 0.87397 0.14081 0.29278 0.0
H3090 H 0.88275 0.16258 0.27101 0.0
H3091 H 0.89216 0.13365 0.26848 0.0
H3092 H 0.8721 0.12478 0.22262 0.0
H3093 H 0.86257 0.15372 0.22505 0.0
H3094 H 0.84026 0.12588 0.21559 0.0
H3095 H 0.77749 0.11684 0.2816 0.0
H3096 H 0.77374 0.16033 0.2855 0.0
H3097 H 0.84548 0.18062 0.26041 0.0
C3098 C 0.85699 0.08593 0.25763 0.0
C3099 C 0.84588 0.06273 0.26386 0.0
C3100 C 0.82198 0.05934 0.27136 0.0
C3101 C 0.80948 0.07877 0.27294 0.0
C3102 C 0.82109 0.10148 0.26692 0.0
C3103 C 0.84433 0.10511 0.25941 0.0
C3104 C 0.85345 0.13157 0.25551 0.0
C3105 C 0.87697 0.1428 0.27299 0.0
C3106 C 0.85732 0.13413 0.22806 0.0
C3107 C 0.83201 0.14241 0.26262 0.0
C3108 C 0.81331 0.12478 0.26876 0.0
C3109 C 0.79196 0.13076 0.27664 0.0
C3110 C 0.78994 0.15547 0.27874 0.0
C3111 C 0.80932 0.17383 0.2733 0.0
C3112 C 0.83035 0.16701 0.26474 0.0
H3113 H 0.69312 0.12471 0.06065 0.0
H3114 H 0.73481 0.08981 0.01019 0.0
H3115 H 0.69759 0.05918 0.99385 0.0
H3116 H 0.64957 0.06521 0.07103 0.0
H3117 H 0.62456 0.08103 0.07258 0.0
H3118 H 0.65536 0.09678 0.08394 0.0
H3119 H 0.65101 0.13037 0.05484 0.0
H3120 H 0.62049 0.11464 0.04313 0.0
H3121 H 0.64302 0.12183 0.02179 0.0
H3122 H 0.65515 0.04022 0.97576 0.0
H3123 H 0.61074 0.02987 0.96144 0.0
H3124 H 0.59656 0.07366 0.02615 0.0
C3125 C 0.69453 0.11002 0.04684 0.0
C3126 C 0.71669 0.10954 0.03661 0.0
C3127 C 0.71799 0.0903 0.01841 0.0
C3128 C 0.69695 0.07285 0.00902 0.0
C3129 C 0.67504 0.0745 0.01863 0.0
C3130 C 0.67382 0.09212 0.03773 0.0
C3131 C 0.64769 0.09124 0.04326 0.0
C3132 C 0.64409 0.08307 0.06925 0.0
C3133 C 0.64013 0.11598 0.04057 0.0
C3134 C 0.63425 0.07176 0.02297 0.0
C3135 C 0.65038 0.06216 0.0091 0.0
C3136 C 0.64232 0.04675 0.98706 0.0
C3137 C 0.61719 0.04112 0.97897 0.0
C3138 C 0.60054 0.05056 0.99313 0.0
C3139 C 0.60906 0.06558 0.01562 0.0
H3140 H 0.19415 0.45818 0.30008 0.0
H3141 H 0.13209 0.43287 0.24323 0.0
H3142 H 0.13893 0.39098 0.24326 0.0
H3143 H 0.23227 0.41962 0.27616 0.0
H3144 H 0.24492 0.41342 0.30622 0.0
H3145 H 0.23469 0.44165 0.30304 0.0
H3146 H 0.20601 0.43219 0.33732 0.0
H3147 H 0.21614 0.40388 0.34056 0.0
H3148 H 0.18398 0.40372 0.33387 0.0
H3149 H 0.15205 0.35255 0.24826 0.0
H3150 H 0.17232 0.31869 0.25643 0.0
H3151 H 0.22714 0.36734 0.30962 0.0
C3152 C 0.18193 0.44378 0.28778 0.0
C3153 C 0.16251 0.44888 0.27171 0.0
C3154 C 0.14703 0.42953 0.25577 0.0
C3155 C 0.15071 0.4056 0.25567 0.0
C3156 C 0.16991 0.40119 0.27165 0.0
C3157 C 0.18536 0.4196 0.28739 0.0
C3158 C 0.20506 0.4096 0.30203 0.0
C3159 C 0.23076 0.4218 0.29652 0.0
C3160 C 0.20265 0.41253 0.33011 0.0
C3161 C 0.1985 0.38285 0.29152 0.0
C3162 C 0.17792 0.37855 0.2743 0.0
C3163 C 0.16816 0.3556 0.26174 0.0
C3164 C 0.1799 0.33646 0.26657 0.0
C3165 C 0.20142 0.3403 0.28366 0.0
C3166 C 0.21069 0.36381 0.29655 0.0
H3167 H 0.18326 0.4178 0.99501 0.0
H3168 H 0.22213 0.44545 0.06805 0.0
H3169 H 0.19104 0.47035 0.07572 0.0
H3170 H 0.16062 0.47378 0.9814 0.0
H3171 H 0.13158 0.45634 0.96659 0.0
H3172 H 0.15883 0.44383 0.96538 0.0
H3173 H 0.13772 0.40549 0.98456 0.0
H3174 H 0.11052 0.4179 0.98566 0.0
H3175 H 0.12508 0.40933 0.01371 0.0
H3176 H 0.15403 0.4906 0.07611 0.0
H3177 H 0.11256 0.50032 0.07097 0.0
H3178 H 0.09705 0.45621 -0.0005 0.0
C3179 C 0.18556 0.42951 0.0124 0.0
C3180 C 0.20524 0.42992 0.03083 0.0
C3181 C 0.20724 0.44499 0.05361 0.0
C3182 C 0.18976 0.45929 0.05807 0.0
C3183 C 0.17035 0.45821 0.0396 0.0
C3184 C 0.16811 0.44354 0.01728 0.0
C3185 C 0.14432 0.44349 0.00154 0.0
C3186 C 0.14914 0.45505 0.97729 0.0
C3187 C 0.12848 0.41751 0.99607 0.0
C3188 C 0.13307 0.45964 0.01886 0.0
C3189 C 0.1486 0.46864 0.0404 0.0
C3190 C 0.14177 0.48367 0.05929 0.0
C3191 C 0.11822 0.48904 0.0563 0.0
C3192 C 0.10177 0.47876 0.03498 0.0
C3193 C 0.10947 0.46433 0.01592 0.0
H3194 H 0.87312 0.92792 0.28079 0.0
H3195 H 0.83494 0.9544 0.21891 0.0
H3196 H 0.80204 0.9169 0.21517 0.0
H3197 H 0.86248 0.86699 0.25803 0.0
H3198 H 0.85844 0.85562 0.28779 0.0
H3199 H 0.87719 0.88523 0.2864 0.0
H3200 H 0.85085 0.90502 0.31594 0.0
H3201 H 0.83208 0.87537 0.31758 0.0
H3202 H 0.81817 0.89999 0.30795 0.0
H3203 H 0.77551 0.87324 0.21644 0.0
H3204 H 0.75776 0.83064 0.22407 0.0
H3205 H 0.81415 0.83607 0.28614 0.0
C3206 C 0.85769 0.92598 0.2666 0.0
C3207 C 0.85654 0.94378 0.24999 0.0
C3208 C 0.83601 0.94084 0.23184 0.0
C3209 C 0.81734 0.91963 0.22959 0.0
C3210 C 0.8194 0.90203 0.24603 0.0
C3211 C 0.83896 0.90538 0.26445 0.0
C3212 C 0.83769 0.88397 0.2796 0.0
C3213 C 0.86028 0.87227 0.27782 0.0
C3214 C 0.8345 0.89154 0.30688 0.0
C3215 C 0.81485 0.86744 0.26636 0.0
C3216 C 0.80426 0.87795 0.24712 0.0
C3217 C 0.78354 0.86506 0.2317 0.0
C3218 C 0.7736 0.84089 0.23612 0.0
C3219 C 0.78452 0.82999 0.25571 0.0
C3220 C 0.8052 0.84374 0.27103 0.0
H3221 H 0.69203 0.07618 0.78926 0.0
H3222 H 0.69281 0.07796 0.70973 0.0
H3223 H 0.72378 0.11649 0.71707 0.0
H3224 H 0.68821 0.13349 0.80084 0.0
H3225 H 0.70673 0.14073 0.8306 0.0
H3226 H 0.69195 0.10966 0.82034 0.0
H3227 H 0.73353 0.09591 0.8251 0.0
H3228 H 0.74853 0.12697 0.83607 0.0
H3229 H 0.75865 0.11105 0.80995 0.0
H3230 H 0.74639 0.15836 0.73219 0.0
H3231 H 0.75915 0.20012 0.75366 0.0
H3232 H 0.74156 0.17259 0.82362 0.0
C3233 C 0.70002 0.08398 0.77358 0.0
C3234 C 0.69095 0.07391 0.74901 0.0
C3235 C 0.70032 0.08518 0.72866 0.0
C3236 C 0.71784 0.10705 0.73271 0.0
C3237 C 0.72545 0.11745 0.75721 0.0
C3238 C 0.71702 0.10615 0.77738 0.0
C3239 C 0.72411 0.12315 0.80135 0.0
C3240 C 0.7014 0.12698 0.81399 0.0
C3241 C 0.7423 0.11371 0.81917 0.0
C3242 C 0.73638 0.14621 0.79131 0.0
C3243 C 0.73764 0.14234 0.76595 0.0
C3244 C 0.74605 0.16147 0.75214 0.0
C3245 C 0.75309 0.18517 0.76448 0.0
C3246 C 0.75129 0.1896 0.79031 0.0
C3247 C 0.7433 0.16974 0.8039 0.0
loop_
_geom_bond_atom_site_label_1
_geom_bond_atom_site_label_2
_geom_bond_distance
_geom_bond_site_symmetry_2
_ccdc_geom_bond_type
Zn0 O3 2.031 1_655 S
Zn0 O5 2.049 . S
Zn0 O10 2.067 . S
Zn1 O2 1.962 . S
Zn1 O4 1.986 . S
Zn1 O6 1.996 . S
Zn1 O9 1.943 . S
O2 Zn1 1.962 . S
O2 C7 1.254 . S
O3 Zn0 2.031 1_455 S
O3 C7 1.269 . S
O4 Zn1 1.986 . S
O4 C11 1.262 . S
O5 Zn0 2.049 . S
O5 C13 1.260 1_655 S
O6 Zn1 1.996 . S
O6 C13 1.257 . S
C7 O2 1.254 . S
C7 O3 1.269 . S
C8 O9 1.249 1_655 S
C8 O10 1.270 . S
O9 Zn1 1.943 . S
O9 C8 1.249 1_455 S
O10 Zn0 2.067 . S
O10 C8 1.270 . S
C11 O4 1.262 . S
C11 O12 1.232 . S
O12 C11 1.232 . S
C13 O5 1.260 1_455 S
C13 O6 1.257 . S
Zn14 O17 2.031 1_455 S
Zn14 O19 2.049 . S
Zn14 O24 2.067 . S
Zn15 O16 1.962 1_455 S
Zn15 O18 1.986 . S
Zn15 O20 1.996 . S
Zn15 O23 1.943 . S
O16 Zn15 1.962 1_655 S
O16 C21 1.254 . S
O17 Zn14 2.031 1_655 S
O17 C21 1.269 . S
O18 Zn15 1.986 . S
O18 C25 1.262 . S
O19 Zn14 2.049 . S
O19 C27 1.260 . S
O20 Zn15 1.996 . S
O20 C27 1.257 . S
C21 O16 1.254 . S
C21 O17 1.269 . S
C22 O23 1.249 . S
C22 O24 1.270 . S
O23 Zn15 1.943 . S
O23 C22 1.249 . S
O24 Zn14 2.067 . S
O24 C22 1.270 . S
C25 O18 1.262 . S
C25 O26 1.232 1_455 S
O26 C25 1.232 1_655 S
C27 O19 1.260 . S
C27 O20 1.257 . S
Zn28 O31 2.031 . S
Zn28 O33 2.049 . S
Zn28 O38 2.067 . S
Zn29 O30 1.962 . S
Zn29 O32 1.986 . S
Zn29 O34 1.996 . S
Zn29 O37 1.943 . S
O30 Zn29 1.962 . S
O30 C35 1.254 . S
O31 Zn28 2.031 . S
O31 C35 1.269 . S
O32 Zn29 1.986 . S
O32 C39 1.262 . S
O33 Zn28 2.049 . S
O33 C41 1.260 . S
O34 Zn29 1.996 . S
O34 C41 1.257 . S
C35 O30 1.254 . S
C35 O31 1.269 . S
C36 O37 1.249 . S
C36 O38 1.270 . S
O37 Zn29 1.943 . S
O37 C36 1.249 . S
O38 Zn28 2.067 . S
O38 C36 1.270 . S
C39 O32 1.262 . S
C39 O40 1.232 . S
O40 C39 1.232 . S
C41 O33 1.260 . S
C41 O34 1.257 . S
Zn42 O45 2.031 . S
Zn42 O47 2.049 . S
Zn42 O52 2.067 . S
Zn43 O44 1.962 . S
Zn43 O46 1.986 . S
Zn43 O48 1.996 . S
Zn43 O51 1.943 . S
O44 Zn43 1.962 . S
O44 C49 1.254 . S
O45 Zn42 2.031 . S
O45 C49 1.269 . S
O46 Zn43 1.986 . S
O46 C53 1.262 . S
O47 Zn42 2.049 . S
O47 C55 1.260 . S
O48 Zn43 1.996 . S
O48 C55 1.257 . S
C49 O44 1.254 . S
C49 O45 1.269 . S
C50 O51 1.249 . S
C50 O52 1.270 . S
O51 Zn43 1.943 . S
O51 C50 1.249 . S
O52 Zn42 2.067 . S
O52 C50 1.270 . S
C53 O46 1.262 . S
C53 O54 1.232 . S
O54 C53 1.232 . S
C55 O47 1.260 . S
C55 O48 1.257 . S
Zn56 O59 2.031 . S
Zn56 O61 2.049 . S
Zn56 O66 2.067 . S
Zn57 O58 1.962 . S
Zn57 O60 1.986 1_455 S
Zn57 O62 1.996 . S
Zn57 O65 1.943 . S
O58 Zn57 1.962 . S
O58 C63 1.254 . S
O59 Zn56 2.031 . S
O59 C63 1.269 . S
O60 Zn57 1.986 1_655 S
O60 C67 1.262 . S
O61 Zn56 2.049 . S
O61 C69 1.260 . S
O62 Zn57 1.996 . S
O62 C69 1.257 . S
C63 O58 1.254 . S
C63 O59 1.269 . S
C64 O65 1.249 . S
C64 O66 1.270 . S
O65 Zn57 1.943 . S
O65 C64 1.249 . S
O66 Zn56 2.067 . S
O66 C64 1.270 . S
C67 O60 1.262 . S
C67 O68 1.232 1_655 S
O68 C67 1.232 1_455 S
C69 O61 1.260 . S
C69 O62 1.257 . S
Zn70 O73 2.031 . S
Zn70 O75 2.049 . S
Zn70 O80 2.067 . S
Zn71 O72 1.962 . S
Zn71 O74 1.986 . S
Zn71 O76 1.996 . S
Zn71 O79 1.943 . S
O72 Zn71 1.962 . S
O72 C77 1.254 . S
O73 Zn70 2.031 . S
O73 C77 1.269 . S
O74 Zn71 1.986 . S
O74 C81 1.262 . S
O75 Zn70 2.049 . S
O75 C83 1.260 . S
O76 Zn71 1.996 . S
O76 C83 1.257 . S
C77 O72 1.254 . S
C77 O73 1.269 . S
C78 O79 1.249 . S
C78 O80 1.270 . S
O79 Zn71 1.943 . S
O79 C78 1.249 . S
O80 Zn70 2.067 . S
O80 C78 1.270 . S
C81 O74 1.262 . S
C81 O82 1.232 . S
O82 C81 1.232 . S
C83 O75 1.260 . S
C83 O76 1.257 . S
Zn84 O87 2.031 . S
Zn84 O89 2.049 . S
Zn84 O94 2.067 . S
Zn85 O86 1.962 . S
Zn85 O88 1.986 . S
Zn85 O90 1.996 . S
Zn85 O93 1.943 . S
O86 Zn85 1.962 . S
O86 C91 1.254 . S
O87 Zn84 2.031 . S
O87 C91 1.269 . S
O88 Zn85 1.986 . S
O88 C95 1.262 . S
O89 Zn84 2.049 . S
O89 C97 1.260 . S
O90 Zn85 1.996 . S
O90 C97 1.257 . S
C91 O86 1.254 . S
C91 O87 1.269 . S
C92 O93 1.249 . S
C92 O94 1.270 . S
O93 Zn85 1.943 . S
O93 C92 1.249 . S
O94 Zn84 2.067 . S
O94 C92 1.270 . S
C95 O88 1.262 . S
C95 O96 1.232 . S
O96 C95 1.232 . S
C97 O89 1.260 . S
C97 O90 1.257 . S
Zn98 O101 2.031 . S
Zn98 O103 2.049 . S
Zn98 O108 2.067 . S
Zn99 O100 1.962 . S
Zn99 O102 1.986 . S
Zn99 O104 1.996 . S
Zn99 O107 1.943 1_455 S
O100 Zn99 1.962 . S
O100 C105 1.239 1_455 S
O101 Zn98 2.031 . S
O101 C105 1.283 . S
O102 Zn99 1.986 . S
O102 C109 1.262 . S
O103 Zn98 2.049 . S
O103 C111 1.260 . S
O104 Zn99 1.996 . S
O104 C111 1.257 1_455 S
C105 O100 1.239 1_655 S
C105 O101 1.283 . S
C106 O107 1.249 . S
C106 O108 1.270 . S
O107 Zn99 1.943 1_655 S
O107 C106 1.249 . S
O108 Zn98 2.067 . S
O108 C106 1.270 . S
C109 O102 1.262 . S
C109 O110 1.232 . S
O110 C109 1.232 . S
C111 O103 1.260 . S
C111 O104 1.257 1_655 S
Zn112 O115 2.031 1_565 S
Zn112 O117 2.049 . S
Zn112 O122 2.067 . S
Zn113 O114 1.962 . S
Zn113 O116 1.986 . S
Zn113 O118 1.996 . S
Zn113 O121 1.943 . S
O114 Zn113 1.962 . S
O114 C119 1.254 . S
O115 Zn112 2.031 1_545 S
O115 C119 1.269 . S
O116 Zn113 1.986 . S
O116 C123 1.262 . S
O117 Zn112 2.049 . S
O117 C125 1.262 1_565 S
O118 Zn113 1.996 . S
O118 C125 1.257 . S
C119 O114 1.254 . S
C119 O115 1.269 . S
C120 O121 1.249 1_565 S
C120 O122 1.270 . S
O121 Zn113 1.943 . S
O121 C120 1.249 1_545 S
O122 Zn112 2.067 . S
O122 C120 1.270 . S
C123 O116 1.262 . S
C123 O124 1.232 . S
O124 C123 1.232 . S
C125 O117 1.262 1_545 S
C125 O118 1.257 . S
Zn126 O129 2.031 . S
Zn126 O131 2.049 . S
Zn126 O136 2.067 . S
Zn127 O128 1.962 . S
Zn127 O130 1.986 . S
Zn127 O132 1.996 . S
Zn127 O135 1.943 . S
O128 Zn127 1.962 . S
O128 C133 1.254 . S
O129 Zn126 2.031 . S
O129 C133 1.269 . S
O130 Zn127 1.986 . S
O130 C137 1.262 . S
O131 Zn126 2.049 . S
O131 C139 1.260 . S
O132 Zn127 1.996 . S
O132 C139 1.257 . S
C133 O128 1.254 . S
C133 O129 1.269 . S
C134 O135 1.249 . S
C134 O136 1.270 . S
O135 Zn127 1.943 . S
O135 C134 1.249 . S
O136 Zn126 2.067 . S
O136 C134 1.270 . S
C137 O130 1.262 . S
C137 O138 1.232 . S
O138 C137 1.232 . S
C139 O131 1.260 . S
C139 O132 1.257 . S
Zn140 O143 2.031 . S
Zn140 O145 2.049 . S
Zn140 O150 2.067 . S
Zn141 O142 1.962 1_545 S
Zn141 O144 1.986 1_545 S
Zn141 O146 1.996 . S
Zn141 O149 1.943 . S
O142 Zn141 1.962 1_565 S
O142 C147 1.254 1_565 S
O143 Zn140 2.031 . S
O143 C147 1.269 . S
O144 Zn141 1.986 1_565 S
O144 C151 1.262 . S
O145 Zn140 2.049 . S
O145 C153 1.260 . S
O146 Zn141 1.996 . S
O146 C153 1.257 . S
C147 O142 1.254 1_545 S
C147 O143 1.269 . S
C148 O149 1.249 . S
C148 O150 1.270 . S
O149 Zn141 1.943 . S
O149 C148 1.249 . S
O150 Zn140 2.067 . S
O150 C148 1.270 . S
C151 O144 1.262 . S
C151 O152 1.232 . S
O152 C151 1.232 . S
C153 O145 1.260 . S
C153 O146 1.257 . S
Zn154 O157 2.031 1_554 S
Zn154 O159 2.049 . S
Zn154 O164 2.067 . S
Zn155 O156 1.962 1_554 S
Zn155 O158 1.986 . S
Zn155 O160 1.996 . S
Zn155 O163 1.943 . S
O156 Zn155 1.962 1_556 S
O156 C161 1.254 . S
O157 Zn154 2.031 1_556 S
O157 C161 1.269 . S
O158 Zn155 1.986 . S
O158 C165 1.262 . S
O159 Zn154 2.049 . S
O159 C167 1.260 . S
O160 Zn155 1.996 . S
O160 C167 1.257 . S
C161 O156 1.254 . S
C161 O157 1.269 . S
C162 O163 1.249 . S
C162 O164 1.270 . S
O163 Zn155 1.943 . S
O163 C162 1.249 . S
O164 Zn154 2.067 . S
O164 C162 1.270 . S
C165 O158 1.262 . S
C165 O166 1.232 1_554 S
O166 C165 1.232 1_556 S
C167 O159 1.260 . S
C167 O160 1.257 . S
Zn168 O171 2.031 . S
Zn168 O173 2.049 . S
Zn168 O178 2.067 . S
Zn169 O170 1.962 . S
Zn169 O172 1.986 . S
Zn169 O174 1.996 . S
Zn169 O177 1.943 . S
O170 Zn169 1.962 . S
O170 C175 1.254 . S
O171 Zn168 2.031 . S
O171 C175 1.269 . S
O172 Zn169 1.986 . S
O172 C179 1.262 . S
O173 Zn168 2.049 . S
O173 C181 1.260 . S
O174 Zn169 1.996 . S
O174 C181 1.257 . S
C175 O170 1.254 . S
C175 O171 1.269 . S
C176 O177 1.249 . S
C176 O178 1.270 . S
O177 Zn169 1.943 . S
O177 C176 1.249 . S
O178 Zn168 2.067 . S
O178 C176 1.270 . S
C179 O172 1.262 . S
C179 O180 1.232 . S
O180 C179 1.232 . S
C181 O173 1.260 . S
C181 O174 1.257 . S
Zn182 O185 2.031 . S
Zn182 O187 2.049 . S
Zn182 O192 2.067 . S
Zn183 O184 1.962 . S
Zn183 O186 1.986 . S
Zn183 O188 1.996 . S
Zn183 O191 1.943 . S
O184 Zn183 1.962 . S
O184 C189 1.254 1_554 S
O185 Zn182 2.031 . S
O185 C189 1.269 1_554 S
O186 Zn183 1.986 . S
O186 C193 1.262 . S
O187 Zn182 2.049 . S
O187 C195 1.260 . S
O188 Zn183 1.996 . S
O188 C195 1.257 . S
C189 O184 1.254 1_556 S
C189 O185 1.269 1_556 S
C190 O191 1.249 . S
C190 O192 1.270 . S
O191 Zn183 1.943 . S
O191 C190 1.249 . S
O192 Zn182 2.067 . S
O192 C190 1.270 . S
C193 O186 1.262 . S
C193 O194 1.232 . S
O194 C193 1.232 . S
C195 O187 1.260 . S
C195 O188 1.257 . S
Zn196 O199 2.031 . S
Zn196 O201 2.049 . S
Zn196 O206 2.067 . S
Zn197 O198 1.962 . S
Zn197 O200 1.986 . S
Zn197 O202 1.996 . S
Zn197 O205 1.943 . S
O198 Zn197 1.962 . S
O198 C203 1.254 . S
O199 Zn196 2.031 . S
O199 C203 1.269 . S
O200 Zn197 1.986 . S
O200 C207 1.262 . S
O201 Zn196 2.049 . S
O201 C209 1.260 . S
O202 Zn197 1.996 . S
O202 C209 1.257 . S
C203 O198 1.254 . S
C203 O199 1.269 . S
C204 O205 1.249 . S
C204 O206 1.270 . S
O205 Zn197 1.943 . S
O205 C204 1.249 . S
O206 Zn196 2.067 . S
O206 C204 1.270 . S
C207 O200 1.262 . S
C207 O208 1.232 . S
O208 C207 1.232 . S
C209 O201 1.260 . S
C209 O202 1.257 . S
Zn210 O213 2.031 . S
Zn210 O215 2.049 . S
Zn210 O220 2.067 . S
Zn211 O212 1.962 . S
Zn211 O214 1.986 . S
Zn211 O216 1.996 . S
Zn211 O219 1.943 . S
O212 Zn211 1.962 . S
O212 C217 1.254 . S
O213 Zn210 2.031 . S
O213 C217 1.269 . S
O214 Zn211 1.986 . S
O214 C221 1.262 . S
O215 Zn210 2.049 . S
O215 C223 1.260 . S
O216 Zn211 1.996 . S
O216 C223 1.257 . S
C217 O212 1.254 . S
C217 O213 1.269 . S
C218 O219 1.249 . S
C218 O220 1.270 . S
O219 Zn211 1.943 . S
O219 C218 1.249 . S
O220 Zn210 2.067 . S
O220 C218 1.270 . S
C221 O214 1.262 . S
C221 O222 1.232 . S
O222 C221 1.232 . S
C223 O215 1.260 . S
C223 O216 1.257 . S
Zn224 O227 2.031 . S
Zn224 O229 2.049 . S
Zn224 O234 2.067 . S
Zn225 O226 1.962 . S
Zn225 O228 1.986 . S
Zn225 O230 1.996 . S
Zn225 O233 1.943 1_545 S
O226 Zn225 1.962 . S
O226 C231 1.254 . S
O227 Zn224 2.031 . S
O227 C231 1.269 1_565 S
O228 Zn225 1.986 . S
O228 C235 1.262 . S
O229 Zn224 2.049 . S
O229 C237 1.260 1_565 S
O230 Zn225 1.996 . S
O230 C237 1.257 . S
C231 O226 1.254 . S
C231 O227 1.269 1_545 S
C232 O233 1.249 . S
C232 O234 1.270 . S
O233 Zn225 1.943 1_565 S
O233 C232 1.249 . S
O234 Zn224 2.067 . S
O234 C232 1.270 . S
C235 O228 1.262 . S
C235 O236 1.232 . S
O236 C235 1.232 . S
C237 O229 1.260 1_545 S
C237 O230 1.257 . S
Zn238 O241 2.031 . S
Zn238 O243 2.049 . S
Zn238 O248 2.067 . S
Zn239 O240 1.962 . S
Zn239 O242 1.986 . S
Zn239 O244 1.996 . S
Zn239 O247 1.943 . S
O240 Zn239 1.962 . S
O240 C245 1.254 . S
O241 Zn238 2.031 . S
O241 C245 1.269 . S
O242 Zn239 1.986 . S
O242 C249 1.262 . S
O243 Zn238 2.049 . S
O243 C251 1.260 . S
O244 Zn239 1.996 . S
O244 C251 1.257 . S
C245 O240 1.254 . S
C245 O241 1.269 . S
C246 O247 1.249 . S
C246 O248 1.270 . S
O247 Zn239 1.943 . S
O247 C246 1.249 . S
O248 Zn238 2.067 . S
O248 C246 1.270 . S
C249 O242 1.262 . S
C249 O250 1.232 . S
O250 C249 1.232 . S
C251 O243 1.260 . S
C251 O244 1.257 . S
Zn252 O255 2.031 . S
Zn252 O257 2.049 . S
Zn252 O262 2.067 . S
Zn253 O254 1.962 . S
Zn253 O256 1.986 . S
Zn253 O258 1.996 . S
Zn253 O261 1.943 . S
O254 Zn253 1.962 . S
O254 C259 1.254 . S
O255 Zn252 2.031 . S
O255 C259 1.269 . S
O256 Zn253 1.986 . S
O256 C263 1.262 . S
O257 Zn252 2.049 . S
O257 C265 1.260 . S
O258 Zn253 1.996 . S
O258 C265 1.257 . S
C259 O254 1.254 . S
C259 O255 1.269 . S
C260 O261 1.249 . S
C260 O262 1.270 . S
O261 Zn253 1.943 . S
O261 C260 1.249 . S
O262 Zn252 2.067 . S
O262 C260 1.270 . S
C263 O256 1.262 . S
C263 O264 1.232 . S
O264 C263 1.232 . S
C265 O257 1.260 . S
C265 O258 1.257 . S
Zn266 O269 2.031 . S
Zn266 O271 2.049 . S
Zn266 O276 2.067 . S
Zn267 O268 1.962 . S
Zn267 O270 1.986 . S
Zn267 O272 1.996 . S
Zn267 O275 1.943 1_565 S
O268 Zn267 1.962 . S
O268 C273 1.254 1_565 S
O269 Zn266 2.031 . S
O269 C273 1.269 . S
O270 Zn267 1.986 . S
O270 C277 1.262 . S
O271 Zn266 2.049 . S
O271 C279 1.260 . S
O272 Zn267 1.996 . S
O272 C279 1.257 1_565 S
C273 O268 1.254 1_545 S
C273 O269 1.269 . S
C274 O275 1.249 . S
C274 O276 1.270 . S
O275 Zn267 1.943 1_545 S
O275 C274 1.249 . S
O276 Zn266 2.067 . S
O276 C274 1.270 . S
C277 O270 1.262 . S
C277 O278 1.232 . S
O278 C277 1.232 . S
C279 O271 1.260 . S
C279 O272 1.257 1_545 S
Zn280 O283 2.031 1_554 S
Zn280 O285 2.049 . S
Zn280 O290 2.067 . S
Zn281 O282 1.985 . S
Zn281 O284 1.974 1_556 S
Zn281 O286 1.978 1_556 S
Zn281 O289 1.940 . S
O282 Zn281 1.985 . S
O282 C287 1.254 . S
O283 Zn280 2.031 1_556 S
O283 C287 1.269 . S
O284 Zn281 1.974 1_554 S
O284 C291 1.236 1_554 S
O285 Zn280 2.049 . S
O285 C293 1.260 . S
O286 Zn281 1.978 1_554 S
O286 C293 1.257 . S
C287 O282 1.254 . S
C287 O283 1.269 . S
C288 O289 1.249 . S
C288 O290 1.270 1_556 S
O289 Zn281 1.940 . S
O289 C288 1.249 . S
O290 Zn280 2.067 . S
O290 C288 1.270 1_554 S
C291 O284 1.236 1_556 S
C291 O292 1.264 . S
O292 C291 1.264 . S
C293 O285 1.260 . S
C293 O286 1.257 . S
Zn294 O297 2.031 . S
Zn294 O299 2.049 . S
Zn294 O304 2.067 . S
Zn295 O296 1.962 . S
Zn295 O298 1.986 . S
Zn295 O300 1.996 . S
Zn295 O303 1.943 . S
O296 Zn295 1.962 . S
O296 C301 1.254 . S
O297 Zn294 2.031 . S
O297 C301 1.269 . S
O298 Zn295 1.986 . S
O298 C305 1.262 . S
O299 Zn294 2.049 . S
O299 C307 1.260 . S
O300 Zn295 1.996 . S
O300 C307 1.257 . S
C301 O296 1.254 . S
C301 O297 1.269 . S
C302 O303 1.249 . S
C302 O304 1.270 . S
O303 Zn295 1.943 . S
O303 C302 1.249 . S
O304 Zn294 2.067 . S
O304 C302 1.270 . S
C305 O298 1.262 . S
C305 O306 1.232 . S
O306 C305 1.232 . S
C307 O299 1.260 . S
C307 O300 1.257 . S
Zn308 O311 2.031 . S
Zn308 O313 2.049 . S
Zn308 O318 2.067 . S
Zn309 O310 1.962 . S
Zn309 O312 1.986 . S
Zn309 O314 1.996 . S
Zn309 O317 1.943 . S
O310 Zn309 1.962 . S
O310 C315 1.254 . S
O311 Zn308 2.031 . S
O311 C315 1.269 . S
O312 Zn309 1.986 . S
O312 C319 1.262 . S
O313 Zn308 2.049 . S
O313 C321 1.260 . S
O314 Zn309 1.996 . S
O314 C321 1.257 . S
C315 O310 1.254 . S
C315 O311 1.269 . S
C316 O317 1.249 . S
C316 O318 1.270 . S
O317 Zn309 1.943 . S
O317 C316 1.249 . S
O318 Zn308 2.067 . S
O318 C316 1.270 . S
C319 O312 1.262 . S
C319 O320 1.232 . S
O320 C319 1.232 . S
C321 O313 1.260 . S
C321 O314 1.257 . S
Zn322 O325 2.031 . S
Zn322 O327 2.049 . S
Zn322 O332 2.067 . S
Zn323 O324 1.962 . S
Zn323 O326 1.986 . S
Zn323 O328 1.996 . S
Zn323 O331 1.943 . S
O324 Zn323 1.962 . S
O324 C329 1.254 . S
O325 Zn322 2.031 . S
O325 C329 1.269 . S
O326 Zn323 1.986 . S
O326 C333 1.262 . S
O327 Zn322 2.049 . S
O327 C335 1.260 . S
O328 Zn323 1.996 . S
O328 C335 1.257 . S
C329 O324 1.254 . S
C329 O325 1.269 . S
C330 O331 1.249 . S
C330 O332 1.270 . S
O331 Zn323 1.943 . S
O331 C330 1.249 . S
O332 Zn322 2.067 . S
O332 C330 1.270 . S
C333 O326 1.262 . S
C333 O334 1.232 . S
O334 C333 1.232 . S
C335 O327 1.260 . S
C335 O328 1.257 . S
Zn336 O342 1.969 1_565 S
Zn336 O343 1.965 1_565 S
Zn336 O347 2.024 . S
Zn336 O352 1.969 1_565 S
Zn337 O344 1.969 1_654 S
Zn337 O350 1.959 1_554 S
Zn337 O351 1.967 . S
Zn337 O353 2.024 1_655 S
C338 O339 1.229 . S
C338 O347 1.058 . S
O339 C338 1.229 . S
C340 O341 1.229 1_554 S
C340 O353 1.058 . S
O341 C340 1.229 1_556 S
O342 Zn336 1.969 1_545 S
O342 C345 1.267 1_545 S
O343 Zn336 1.965 1_545 S
O343 C354 1.260 1_554 S
O344 Zn337 1.969 1_456 S
O344 C354 1.258 . S
C345 O342 1.267 1_565 S
C345 O346 1.228 . S
O346 C345 1.228 . S
O347 Zn336 2.024 . S
O347 C338 1.058 . S
C348 O349 1.228 . S
C348 O350 1.250 1_554 S
O349 C348 1.228 . S
O350 Zn337 1.959 1_556 S
O350 C348 1.250 1_556 S
O351 Zn337 1.967 . S
O351 C355 1.241 1_655 S
O352 Zn336 1.969 1_545 S
O352 C355 1.258 . S
O353 Zn337 2.024 1_455 S
O353 C340 1.058 . S
C354 O343 1.260 1_556 S
C354 O344 1.258 . S
C355 O351 1.241 1_455 S
C355 O352 1.258 . S
Zn356 O362 1.969 . S
Zn356 O363 1.965 . S
Zn356 O367 2.024 . S
Zn356 O372 1.969 . S
Zn357 O364 1.969 . S
Zn357 O370 1.969 . S
Zn357 O371 1.965 . S
Zn357 O373 2.024 . S
C358 O359 1.229 . S
C358 O367 1.058 . S
O359 C358 1.229 . S
C360 O361 1.229 . S
C360 O373 1.058 . S
O361 C360 1.229 . S
O362 Zn356 1.969 . S
O362 C365 1.267 . S
O363 Zn356 1.965 . S
O363 C374 1.260 . S
O364 Zn357 1.969 . S
O364 C374 1.258 . S
C365 O362 1.267 . S
C365 O366 1.228 . S
O366 C365 1.228 . S
O367 Zn356 2.024 . S
O367 C358 1.058 . S
C368 O369 1.228 . S
C368 O370 1.267 . S
O369 C368 1.228 . S
O370 Zn357 1.969 . S
O370 C368 1.267 . S
O371 Zn357 1.965 . S
O371 C375 1.260 . S
O372 Zn356 1.969 . S
O372 C375 1.258 . S
O373 Zn357 2.024 . S
O373 C360 1.058 . S
C374 O363 1.260 . S
C374 O364 1.258 . S
C375 O371 1.260 . S
C375 O372 1.258 . S
Zn376 O382 1.969 . S
Zn376 O383 1.965 . S
Zn376 O387 2.024 . S
Zn376 O392 1.969 . S
Zn377 O384 1.969 . S
Zn377 O390 1.969 . S
Zn377 O391 1.965 1_565 S
Zn377 O393 2.024 . S
C378 O379 1.229 . S
C378 O387 1.058 . S
O379 C378 1.229 . S
C380 O381 1.229 . S
C380 O393 1.058 . S
O381 C380 1.229 . S
O382 Zn376 1.969 . S
O382 C385 1.267 . S
O383 Zn376 1.965 . S
O383 C394 1.260 . S
O384 Zn377 1.969 . S
O384 C394 1.258 1_565 S
C385 O382 1.267 . S
C385 O386 1.228 . S
O386 C385 1.228 . S
O387 Zn376 2.024 . S
O387 C378 1.058 . S
C388 O389 1.228 . S
C388 O390 1.267 . S
O389 C388 1.228 . S
O390 Zn377 1.969 . S
O390 C388 1.267 . S
O391 Zn377 1.965 1_545 S
O391 C395 1.260 . S
O392 Zn376 1.969 . S
O392 C395 1.258 . S
O393 Zn377 2.024 . S
O393 C380 1.058 . S
C394 O383 1.260 . S
C394 O384 1.258 1_545 S
C395 O391 1.260 . S
C395 O392 1.258 . S
Zn396 O402 1.969 . S
Zn396 O403 1.965 . S
Zn396 O407 2.024 . S
Zn396 O412 1.969 . S
Zn397 O404 1.969 . S
Zn397 O410 1.969 . S
Zn397 O411 1.965 . S
Zn397 O413 2.024 . S
C398 O399 1.229 . S
C398 O407 1.058 . S
O399 C398 1.229 . S
C400 O401 1.229 . S
C400 O413 1.058 . S
O401 C400 1.229 . S
O402 Zn396 1.969 . S
O402 C405 1.267 . S
O403 Zn396 1.965 . S
O403 C414 1.260 . S
O404 Zn397 1.969 . S
O404 C414 1.258 . S
C405 O402 1.267 . S
C405 O406 1.228 . S
O406 C405 1.228 . S
O407 Zn396 2.024 . S
O407 C398 1.058 . S
C408 O409 1.228 . S
C408 O410 1.267 . S
O409 C408 1.228 . S
O410 Zn397 1.969 . S
O410 C408 1.267 . S
O411 Zn397 1.965 . S
O411 C415 1.260 . S
O412 Zn396 1.969 . S
O412 C415 1.258 . S
O413 Zn397 2.024 . S
O413 C400 1.058 . S
C414 O403 1.260 . S
C414 O404 1.258 . S
C415 O411 1.260 . S
C415 O412 1.258 . S
Zn416 O422 1.969 . S
Zn416 O423 1.965 1_455 S
Zn416 O427 2.024 1_565 S
Zn416 O432 1.969 1_565 S
Zn417 O424 1.969 1_455 S
Zn417 O430 1.969 1_455 S
Zn417 O431 1.965 . S
Zn417 O433 2.024 . S
C418 O419 1.229 1_545 S
C418 O427 1.058 . S
O419 C418 1.229 1_565 S
C420 O421 1.229 . S
C420 O433 1.058 1_655 S
O421 C420 1.229 . S
O422 Zn416 1.969 . S
O422 C425 1.267 . S
O423 Zn416 1.965 1_655 S
O423 C434 1.260 . S
O424 Zn417 1.969 1_655 S
O424 C434 1.258 1_545 S
C425 O422 1.267 . S
C425 O426 1.228 . S
O426 C425 1.228 . S
O427 Zn416 2.024 1_545 S
O427 C418 1.058 . S
C428 O429 1.228 . S
C428 O430 1.267 1_455 S
O429 C428 1.228 . S
O430 Zn417 1.969 1_655 S
O430 C428 1.267 1_655 S
O431 Zn417 1.965 . S
O431 C435 1.260 . S
O432 Zn416 1.969 1_545 S
O432 C435 1.258 . S
O433 Zn417 2.024 . S
O433 C420 1.058 1_455 S
C434 O423 1.260 . S
C434 O424 1.258 1_565 S
C435 O431 1.260 . S
C435 O432 1.258 . S
Zn436 O442 1.969 . S
Zn436 O443 1.965 . S
Zn436 O447 2.024 . S
Zn436 O452 1.969 . S
Zn437 O444 1.969 . S
Zn437 O450 1.969 . S
Zn437 O451 1.965 . S
Zn437 O453 2.024 . S
C438 O439 1.229 . S
C438 O447 1.058 . S
O439 C438 1.229 . S
C440 O441 1.229 . S
C440 O453 1.058 . S
O441 C440 1.229 . S
O442 Zn436 1.969 . S
O442 C445 1.267 . S
O443 Zn436 1.965 . S
O443 C454 1.260 . S
O444 Zn437 1.969 . S
O444 C454 1.258 . S
C445 O442 1.267 . S
C445 O446 1.228 . S
O446 C445 1.228 . S
O447 Zn436 2.024 . S
O447 C438 1.058 . S
C448 O449 1.228 . S
C448 O450 1.267 . S
O449 C448 1.228 . S
O450 Zn437 1.969 . S
O450 C448 1.267 . S
O451 Zn437 1.965 . S
O451 C455 1.260 . S
O452 Zn436 1.969 . S
O452 C455 1.258 . S
O453 Zn437 2.024 . S
O453 C440 1.058 . S
C454 O443 1.260 . S
C454 O444 1.258 . S
C455 O451 1.260 . S
C455 O452 1.258 . S
Zn456 O462 1.969 . S
Zn456 O463 1.965 . S
Zn456 O467 2.024 1_556 S
Zn456 O472 1.969 1_556 S
Zn457 O464 1.969 1_545 S
Zn457 O470 1.969 1_545 S
Zn457 O471 1.965 . S
Zn457 O473 2.024 . S
C458 O459 1.214 1_554 S
C458 O467 1.058 . S
O459 C458 1.214 1_556 S
C460 O461 1.229 . S
C460 O473 1.058 1_565 S
O461 C460 1.229 . S
O462 Zn456 1.969 . S
O462 C465 1.267 . S
O463 Zn456 1.965 . S
O463 C474 1.260 1_546 S
O464 Zn457 1.969 1_565 S
O464 C474 1.258 . S
C465 O462 1.267 . S
C465 O466 1.228 . S
O466 C465 1.228 . S
O467 Zn456 2.024 1_554 S
O467 C458 1.058 . S
C468 O469 1.228 . S
C468 O470 1.267 1_545 S
O469 C468 1.228 . S
O470 Zn457 1.969 1_565 S
O470 C468 1.267 1_565 S
O471 Zn457 1.965 . S
O471 C475 1.260 . S
O472 Zn456 1.969 1_554 S
O472 C475 1.258 . S
O473 Zn457 2.024 . S
O473 C460 1.058 1_545 S
C474 O463 1.260 1_564 S
C474 O464 1.258 . S
C475 O471 1.260 . S
C475 O472 1.258 . S
Zn476 O482 1.969 . S
Zn476 O483 1.965 . S
Zn476 O487 2.024 . S
Zn476 O492 1.969 . S
Zn477 O484 1.969 . S
Zn477 O490 1.969 . S
Zn477 O491 1.965 . S
Zn477 O493 2.024 . S
C478 O479 1.229 . S
C478 O487 1.058 . S
O479 C478 1.229 . S
C480 O481 1.229 . S
C480 O493 1.058 . S
O481 C480 1.229 . S
O482 Zn476 1.969 . S
O482 C485 1.267 . S
O483 Zn476 1.965 . S
O483 C494 1.260 . S
O484 Zn477 1.969 . S
O484 C494 1.258 . S
C485 O482 1.267 . S
C485 O486 1.228 . S
O486 C485 1.228 . S
O487 Zn476 2.024 . S
O487 C478 1.058 . S
C488 O489 1.228 . S
C488 O490 1.267 . S
O489 C488 1.228 . S
O490 Zn477 1.969 . S
O490 C488 1.267 . S
O491 Zn477 1.965 . S
O491 C495 1.260 . S
O492 Zn476 1.969 . S
O492 C495 1.258 . S
O493 Zn477 2.024 . S
O493 C480 1.058 . S
C494 O483 1.260 . S
C494 O484 1.258 . S
C495 O491 1.260 . S
C495 O492 1.258 . S
Zn496 O502 1.969 . S
Zn496 O503 1.965 . S
Zn496 O507 2.024 . S
Zn496 O512 1.969 . S
Zn497 O504 1.969 1_556 S
Zn497 O510 1.965 1_556 S
Zn497 O511 1.965 1_556 S
Zn497 O513 2.024 . S
C498 O499 1.229 . S
C498 O507 1.058 . S
O499 C498 1.229 . S
C500 O501 1.229 . S
C500 O513 1.058 . S
O501 C500 1.229 . S
O502 Zn496 1.969 . S
O502 C505 1.267 . S
O503 Zn496 1.965 . S
O503 C514 1.260 . S
O504 Zn497 1.969 1_554 S
O504 C514 1.258 . S
C505 O502 1.267 . S
C505 O506 1.228 . S
O506 C505 1.228 . S
O507 Zn496 2.024 . S
O507 C498 1.058 . S
C508 O509 1.228 . S
C508 O510 1.251 1_556 S
O509 C508 1.228 . S
O510 Zn497 1.965 1_554 S
O510 C508 1.251 1_554 S
O511 Zn497 1.965 1_554 S
O511 C515 1.260 . S
O512 Zn496 1.969 . S
O512 C515 1.258 . S
O513 Zn497 2.024 . S
O513 C500 1.058 . S
C514 O503 1.260 . S
C514 O504 1.258 . S
C515 O511 1.260 . S
C515 O512 1.258 . S
Zn516 O522 1.969 . S
Zn516 O523 1.965 . S
Zn516 O527 2.024 . S
Zn516 O532 1.969 . S
Zn517 O524 1.969 . S
Zn517 O530 1.969 . S
Zn517 O531 1.965 . S
Zn517 O533 2.024 . S
C518 O519 1.229 . S
C518 O527 1.058 . S
O519 C518 1.229 . S
C520 O521 1.229 . S
C520 O533 1.058 . S
O521 C520 1.229 . S
O522 Zn516 1.969 . S
O522 C525 1.267 . S
O523 Zn516 1.965 . S
O523 C534 1.260 . S
O524 Zn517 1.969 . S
O524 C534 1.258 . S
C525 O522 1.267 . S
C525 O526 1.228 . S
O526 C525 1.228 . S
O527 Zn516 2.024 . S
O527 C518 1.058 . S
C528 O529 1.228 . S
C528 O530 1.267 . S
O529 C528 1.228 . S
O530 Zn517 1.969 . S
O530 C528 1.267 . S
O531 Zn517 1.965 . S
O531 C535 1.260 . S
O532 Zn516 1.969 . S
O532 C535 1.258 . S
O533 Zn517 2.024 . S
O533 C520 1.058 . S
C534 O523 1.260 . S
C534 O524 1.258 . S
C535 O531 1.260 . S
C535 O532 1.258 . S
Zn536 O542 1.969 . S
Zn536 O543 1.965 . S
Zn536 O547 2.024 . S
Zn536 O552 1.969 . S
Zn537 O544 1.969 . S
Zn537 O550 1.969 . S
Zn537 O551 1.965 1_655 S
Zn537 O553 2.024 . S
C538 O539 1.229 . S
C538 O547 1.058 . S
O539 C538 1.229 . S
C540 O541 1.229 . S
C540 O553 1.058 . S
O541 C540 1.229 . S
O542 Zn536 1.969 . S
O542 C545 1.267 . S
O543 Zn536 1.965 . S
O543 C554 1.260 . S
O544 Zn537 1.969 . S
O544 C554 1.258 1_655 S
C545 O542 1.267 . S
C545 O546 1.228 . S
O546 C545 1.228 . S
O547 Zn536 2.024 . S
O547 C538 1.058 . S
C548 O549 1.228 . S
C548 O550 1.267 . S
O549 C548 1.228 . S
O550 Zn537 1.969 . S
O550 C548 1.267 . S
O551 Zn537 1.965 1_455 S
O551 C555 1.260 . S
O552 Zn536 1.969 . S
O552 C555 1.258 . S
O553 Zn537 2.024 . S
O553 C540 1.058 . S
C554 O543 1.260 . S
C554 O544 1.258 1_455 S
C555 O551 1.260 . S
C555 O552 1.258 . S
Zn556 O562 1.969 . S
Zn556 O563 1.965 . S
Zn556 O567 2.024 . S
Zn556 O572 1.969 . S
Zn557 O564 1.969 . S
Zn557 O570 1.969 . S
Zn557 O571 1.965 . S
Zn557 O573 2.024 . S
C558 O559 1.229 . S
C558 O567 1.058 . S
O559 C558 1.229 . S
C560 O561 1.229 . S
C560 O573 1.058 . S
O561 C560 1.229 . S
O562 Zn556 1.969 . S
O562 C565 1.267 . S
O563 Zn556 1.965 . S
O563 C574 1.260 . S
O564 Zn557 1.969 . S
O564 C574 1.258 . S
C565 O562 1.267 . S
C565 O566 1.228 . S
O566 C565 1.228 . S
O567 Zn556 2.024 . S
O567 C558 1.058 . S
C568 O569 1.228 . S
C568 O570 1.267 . S
O569 C568 1.228 . S
O570 Zn557 1.969 . S
O570 C568 1.267 . S
O571 Zn557 1.965 . S
O571 C575 1.260 . S
O572 Zn556 1.969 . S
O572 C575 1.258 . S
O573 Zn557 2.024 . S
O573 C560 1.058 . S
C574 O563 1.260 . S
C574 O564 1.258 . S
C575 O571 1.260 . S
C575 O572 1.258 . S
Zn576 O582 1.969 . S
Zn576 O583 1.965 . S
Zn576 O587 2.024 . S
Zn576 O592 1.969 . S
Zn577 O584 1.969 . S
Zn577 O590 1.969 . S
Zn577 O591 1.965 . S
Zn577 O593 2.024 . S
C578 O579 1.229 . S
C578 O587 1.058 . S
O579 C578 1.229 . S
C580 O581 1.229 . S
C580 O593 1.058 . S
O581 C580 1.229 . S
O582 Zn576 1.969 . S
O582 C585 1.267 . S
O583 Zn576 1.965 . S
O583 C594 1.260 . S
O584 Zn577 1.969 . S
O584 C594 1.258 . S
C585 O582 1.267 . S
C585 O586 1.228 . S
O586 C585 1.228 . S
O587 Zn576 2.024 . S
O587 C578 1.058 . S
C588 O589 1.228 . S
C588 O590 1.267 . S
O589 C588 1.228 . S
O590 Zn577 1.969 . S
O590 C588 1.267 . S
O591 Zn577 1.965 . S
O591 C595 1.260 . S
O592 Zn576 1.969 . S
O592 C595 1.258 . S
O593 Zn577 2.024 . S
O593 C580 1.058 . S
C594 O583 1.260 . S
C594 O584 1.258 . S
C595 O591 1.260 . S
C595 O592 1.258 . S
Zn596 O602 1.969 . S
Zn596 O603 1.965 . S
Zn596 O607 2.024 . S
Zn596 O612 1.969 . S
Zn597 O604 1.969 . S
Zn597 O610 1.969 . S
Zn597 O611 1.965 . S
Zn597 O613 2.024 . S
C598 O599 1.229 . S
C598 O607 1.058 . S
O599 C598 1.229 . S
C600 O601 1.229 . S
C600 O613 1.058 . S
O601 C600 1.229 . S
O602 Zn596 1.969 . S
O602 C605 1.267 . S
O603 Zn596 1.965 . S
O603 C614 1.260 . S
O604 Zn597 1.969 . S
O604 C614 1.258 . S
C605 O602 1.267 . S
C605 O606 1.228 . S
O606 C605 1.228 . S
O607 Zn596 2.024 . S
O607 C598 1.058 . S
C608 O609 1.228 . S
C608 O610 1.267 . S
O609 C608 1.228 . S
O610 Zn597 1.969 . S
O610 C608 1.267 . S
O611 Zn597 1.965 . S
O611 C615 1.260 . S
O612 Zn596 1.969 . S
O612 C615 1.258 . S
O613 Zn597 2.024 . S
O613 C600 1.058 . S
C614 O603 1.260 . S
C614 O604 1.258 . S
C615 O611 1.260 . S
C615 O612 1.258 . S
Zn616 O622 1.969 . S
Zn616 O623 1.965 . S
Zn616 O627 2.024 . S
Zn616 O632 1.969 . S
Zn617 O624 1.969 . S
Zn617 O630 1.969 . S
Zn617 O631 1.965 . S
Zn617 O633 2.024 . S
C618 O619 1.229 . S
C618 O627 1.058 . S
O619 C618 1.229 . S
C620 O621 1.229 . S
C620 O633 1.058 . S
O621 C620 1.229 . S
O622 Zn616 1.969 . S
O622 C625 1.267 . S
O623 Zn616 1.965 . S
O623 C634 1.260 . S
O624 Zn617 1.969 . S
O624 C634 1.258 . S
C625 O622 1.267 . S
C625 O626 1.228 . S
O626 C625 1.228 . S
O627 Zn616 2.024 . S
O627 C618 1.058 . S
C628 O629 1.228 . S
C628 O630 1.267 . S
O629 C628 1.228 . S
O630 Zn617 1.969 . S
O630 C628 1.267 . S
O631 Zn617 1.965 . S
O631 C635 1.260 . S
O632 Zn616 1.969 . S
O632 C635 1.258 . S
O633 Zn617 2.024 . S
O633 C620 1.058 . S
C634 O623 1.260 . S
C634 O624 1.258 . S
C635 O631 1.260 . S
C635 O632 1.258 . S
Zn636 O642 1.969 . S
Zn636 O643 1.965 . S
Zn636 O647 2.024 1_655 S
Zn636 O652 1.969 1_655 S
Zn637 O644 1.969 1_554 S
Zn637 O650 1.969 . S
Zn637 O651 1.965 . S
Zn637 O653 2.024 . S
C638 O639 1.229 1_455 S
C638 O647 1.058 . S
O639 C638 1.229 1_655 S
C640 O641 1.259 . S
C640 O653 1.030 1_556 S
O641 C640 1.259 . S
O642 Zn636 1.969 . S
O642 C645 1.267 . S
O643 Zn636 1.965 . S
O643 C654 1.260 1_654 S
O644 Zn637 1.969 1_556 S
O644 C654 1.258 . S
C645 O642 1.267 . S
C645 O646 1.228 . S
O646 C645 1.228 . S
O647 Zn636 2.024 1_455 S
O647 C638 1.058 . S
C648 O649 1.228 . S
C648 O650 1.267 . S
O649 C648 1.228 . S
O650 Zn637 1.969 . S
O650 C648 1.267 . S
O651 Zn637 1.965 . S
O651 C655 1.260 . S
O652 Zn636 1.969 1_455 S
O652 C655 1.258 . S
O653 Zn637 2.024 . S
O653 C640 1.030 1_554 S
C654 O643 1.260 1_456 S
C654 O644 1.258 . S
C655 O651 1.260 . S
C655 O652 1.258 . S
H656 C668 0.930 . S
H657 C670 0.930 . S
H658 C671 0.930 . S
H659 C675 0.959 . S
H660 C675 0.969 . S
H661 C675 0.961 1_655 S
H662 C676 0.960 . S
H663 C676 0.961 1_554 S
H664 C676 0.959 . S
H665 C679 0.929 . S
H666 C680 0.931 . S
H667 C682 0.930 . S
C668 H656 0.930 . S
C668 C669 1.399 . S
C668 C673 1.418 . S
C669 C668 1.399 . S
C669 C670 1.376 1_655 S
C670 H657 0.930 . S
C670 C669 1.376 1_455 S
C670 C671 1.388 . S
C671 H658 0.930 . S
C671 C670 1.388 . S
C671 C672 1.390 . S
C672 C671 1.390 . S
C672 C673 1.364 1_455 S
C672 C678 1.465 . S
C673 C668 1.418 . S
C673 C672 1.364 1_655 S
C673 C674 1.525 . S
C674 C673 1.525 . S
C674 C675 1.502 1_656 S
C674 C676 1.561 . S
C674 C677 1.526 1_655 S
C675 H659 0.959 . S
C675 H660 0.969 . S
C675 H661 0.961 1_455 S
C675 C674 1.502 1_454 S
C676 H662 0.960 . S
C676 H663 0.961 1_556 S
C676 H664 0.959 . S
C676 C674 1.561 . S
C677 C674 1.526 1_455 S
C677 C678 1.396 . S
C677 C682 1.390 1_556 S
C678 C672 1.465 . S
C678 C677 1.396 . S
C678 C679 1.399 . S
C679 H665 0.929 . S
C679 C678 1.399 . S
C679 C680 1.385 . S
C680 H666 0.931 . S
C680 C679 1.385 . S
C680 C681 1.389 1_556 S
C681 C680 1.389 1_554 S
C681 C682 1.387 . S
C682 H667 0.930 . S
C682 C677 1.390 1_554 S
C682 C681 1.387 . S
H683 C695 0.930 . S
H684 C697 0.930 . S
H685 C698 0.930 . S
H686 C702 0.959 . S
H687 C702 0.959 . S
H688 C702 0.961 . S
H689 C703 0.960 . S
H690 C703 0.961 . S
H691 C703 0.959 . S
H692 C706 0.929 . S
H693 C707 0.931 . S
H694 C709 0.930 . S
C695 H683 0.930 . S
C695 C696 1.399 . S
C695 C700 1.399 . S
C696 C695 1.399 . S
C696 C697 1.376 . S
C697 H684 0.930 . S
C697 C696 1.376 . S
C697 C698 1.388 . S
C698 H685 0.930 . S
C698 C697 1.388 . S
C698 C699 1.390 . S
C699 C698 1.390 . S
C699 C700 1.394 . S
C699 C705 1.465 . S
C700 C695 1.399 . S
C700 C699 1.394 . S
C700 C701 1.516 . S
C701 C700 1.516 . S
C701 C702 1.502 . S
C701 C703 1.561 . S
C701 C704 1.526 . S
C702 H686 0.959 . S
C702 H687 0.959 . S
C702 H688 0.961 . S
C702 C701 1.502 . S
C703 H689 0.960 . S
C703 H690 0.961 . S
C703 H691 0.959 . S
C703 C701 1.561 . S
C704 C701 1.526 . S
C704 C705 1.396 . S
C704 C709 1.390 . S
C705 C699 1.465 . S
C705 C704 1.396 . S
C705 C706 1.399 . S
C706 H692 0.929 . S
C706 C705 1.399 . S
C706 C707 1.385 . S
C707 H693 0.931 . S
C707 C706 1.385 . S
C707 C708 1.389 . S
C708 C707 1.389 . S
C708 C709 1.387 . S
C709 H694 0.930 . S
C709 C704 1.390 . S
C709 C708 1.387 . S
H710 C722 0.930 . S
H711 C724 0.930 . S
H712 C725 0.930 . S
H713 C729 0.959 . S
H714 C729 0.959 . S
H715 C729 0.961 . S
H716 C730 0.960 . S
H717 C730 0.961 . S
H718 C730 0.959 . S
H719 C733 0.929 . S
H720 C734 0.931 . S
H721 C736 0.930 . S
C722 H710 0.930 . S
C722 C723 1.399 . S
C722 C727 1.399 . S
C723 C722 1.399 . S
C723 C724 1.376 . S
C724 H711 0.930 . S
C724 C723 1.376 . S
C724 C725 1.388 . S
C725 H712 0.930 . S
C725 C724 1.388 . S
C725 C726 1.390 . S
C726 C725 1.390 . S
C726 C727 1.394 . S
C726 C732 1.465 . S
C727 C722 1.399 . S
C727 C726 1.394 . S
C727 C728 1.516 . S
C728 C727 1.516 . S
C728 C729 1.502 . S
C728 C730 1.561 . S
C728 C731 1.526 . S
C729 H713 0.959 . S
C729 H714 0.959 . S
C729 H715 0.961 . S
C729 C728 1.502 . S
C730 H716 0.960 . S
C730 H717 0.961 . S
C730 H718 0.959 . S
C730 C728 1.561 . S
C731 C728 1.526 . S
C731 C732 1.396 . S
C731 C736 1.390 . S
C732 C726 1.465 . S
C732 C731 1.396 . S
C732 C733 1.399 . S
C733 H719 0.929 . S
C733 C732 1.399 . S
C733 C734 1.385 . S
C734 H720 0.931 . S
C734 C733 1.385 . S
C734 C735 1.389 . S
C735 C734 1.389 . S
C735 C736 1.387 . S
C736 H721 0.930 . S
C736 C731 1.390 . S
C736 C735 1.387 . S
H737 C749 0.930 . S
H738 C751 0.930 . S
H739 C752 0.930 . S
H740 C756 0.959 . S
H741 C756 0.959 . S
H742 C756 0.961 . S
H743 C757 0.960 . S
H744 C757 0.961 . S
H745 C757 0.959 . S
H746 C760 0.929 . S
H747 C761 0.931 . S
H748 C763 0.930 . S
C749 H737 0.930 . S
C749 C750 1.399 . S
C749 C754 1.399 . S
C750 C749 1.399 . S
C750 C751 1.376 . S
C751 H738 0.930 . S
C751 C750 1.376 . S
C751 C752 1.388 . S
C752 H739 0.930 . S
C752 C751 1.388 . S
C752 C753 1.390 . S
C753 C752 1.390 . S
C753 C754 1.394 . S
C753 C759 1.465 . S
C754 C749 1.399 . S
C754 C753 1.394 . S
C754 C755 1.516 . S
C755 C754 1.516 . S
C755 C756 1.502 . S
C755 C757 1.561 . S
C755 C758 1.526 . S
C756 H740 0.959 . S
C756 H741 0.959 . S
C756 H742 0.961 . S
C756 C755 1.502 . S
C757 H743 0.960 . S
C757 H744 0.961 . S
C757 H745 0.959 . S
C757 C755 1.561 . S
C758 C755 1.526 . S
C758 C759 1.396 . S
C758 C763 1.390 . S
C759 C753 1.465 . S
C759 C758 1.396 . S
C759 C760 1.399 . S
C760 H746 0.929 . S
C760 C759 1.399 . S
C760 C761 1.385 . S
C761 H747 0.931 . S
C761 C760 1.385 . S
C761 C762 1.389 . S
C762 C761 1.389 . S
C762 C763 1.387 . S
C763 H748 0.930 . S
C763 C758 1.390 . S
C763 C762 1.387 . S
H764 C776 0.930 . S
H765 C778 0.930 . S
H766 C779 0.930 . S
H767 C783 0.959 . S
H768 C783 0.964 1_455 S
H769 C783 0.961 . S
H770 C784 0.960 . S
H771 C784 0.961 . S
H772 C784 0.959 . S
H773 C787 0.929 . S
H774 C788 0.931 . S
H775 C790 0.930 . S
C776 H764 0.930 . S
C776 C777 1.399 . S
C776 C781 1.399 . S
C777 C776 1.399 . S
C777 C778 1.376 . S
C778 H765 0.930 . S
C778 C777 1.376 . S
C778 C779 1.388 . S
C779 H766 0.930 . S
C779 C778 1.388 . S
C779 C780 1.390 . S
C780 C779 1.390 . S
C780 C781 1.394 . S
C780 C786 1.465 . S
C781 C776 1.399 . S
C781 C780 1.394 . S
C781 C782 1.516 . S
C782 C781 1.516 . S
C782 C783 1.502 1_455 S
C782 C784 1.561 . S
C782 C785 1.526 . S
C783 H767 0.959 . S
C783 H768 0.964 1_655 S
C783 H769 0.961 . S
C783 C782 1.502 1_655 S
C784 H770 0.960 . S
C784 H771 0.961 . S
C784 H772 0.959 . S
C784 C782 1.561 . S
C785 C782 1.526 . S
C785 C786 1.396 . S
C785 C790 1.390 . S
C786 C780 1.465 . S
C786 C785 1.396 . S
C786 C787 1.399 . S
C787 H773 0.929 . S
C787 C786 1.399 . S
C787 C788 1.385 . S
C788 H774 0.931 . S
C788 C787 1.385 . S
C788 C789 1.389 . S
C789 C788 1.389 . S
C789 C790 1.387 . S
C790 H775 0.930 . S
C790 C785 1.390 . S
C790 C789 1.387 . S
H791 C803 0.930 . S
H792 C805 0.930 . S
H793 C806 0.930 . S
H794 C810 0.959 . S
H795 C810 0.959 . S
H796 C810 0.961 . S
H797 C811 0.960 . S
H798 C811 0.961 . S
H799 C811 0.959 . S
H800 C814 0.929 . S
H801 C815 0.931 . S
H802 C817 0.930 . S
C803 H791 0.930 . S
C803 C804 1.399 . S
C803 C808 1.399 . S
C804 C803 1.399 . S
C804 C805 1.376 . S
C805 H792 0.930 . S
C805 C804 1.376 . S
C805 C806 1.388 . S
C806 H793 0.930 . S
C806 C805 1.388 . S
C806 C807 1.390 . S
C807 C806 1.390 . S
C807 C808 1.394 . S
C807 C813 1.465 . S
C808 C803 1.399 . S
C808 C807 1.394 . S
C808 C809 1.516 . S
C809 C808 1.516 . S
C809 C810 1.502 . S
C809 C811 1.561 . S
C809 C812 1.526 . S
C810 H794 0.959 . S
C810 H795 0.959 . S
C810 H796 0.961 . S
C810 C809 1.502 . S
C811 H797 0.960 . S
C811 H798 0.961 . S
C811 H799 0.959 . S
C811 C809 1.561 . S
C812 C809 1.526 . S
C812 C813 1.396 . S
C812 C817 1.390 . S
C813 C807 1.465 . S
C813 C812 1.396 . S
C813 C814 1.399 . S
C814 H800 0.929 . S
C814 C813 1.399 . S
C814 C815 1.385 . S
C815 H801 0.931 . S
C815 C814 1.385 . S
C815 C816 1.389 . S
C816 C815 1.389 . S
C816 C817 1.387 . S
C817 H802 0.930 . S
C817 C812 1.390 . S
C817 C816 1.387 . S
H818 C830 0.930 . S
H819 C832 0.930 . S
H820 C833 0.930 . S
H821 C837 0.959 . S
H822 C837 0.959 . S
H823 C837 0.961 . S
H824 C838 0.960 . S
H825 C838 0.961 . S
H826 C838 0.959 . S
H827 C841 0.929 . S
H828 C842 0.931 . S
H829 C844 0.930 . S
C830 H818 0.930 . S
C830 C831 1.399 . S
C830 C835 1.399 . S
C831 C830 1.399 . S
C831 C832 1.376 . S
C832 H819 0.930 . S
C832 C831 1.376 . S
C832 C833 1.388 . S
C833 H820 0.930 . S
C833 C832 1.388 . S
C833 C834 1.390 . S
C834 C833 1.390 . S
C834 C835 1.394 . S
C834 C840 1.465 . S
C835 C830 1.399 . S
C835 C834 1.394 . S
C835 C836 1.516 . S
C836 C835 1.516 . S
C836 C837 1.502 . S
C836 C838 1.561 . S
C836 C839 1.526 . S
C837 H821 0.959 . S
C837 H822 0.959 . S
C837 H823 0.961 . S
C837 C836 1.502 . S
C838 H824 0.960 . S
C838 H825 0.961 . S
C838 H826 0.959 . S
C838 C836 1.561 . S
C839 C836 1.526 . S
C839 C840 1.396 . S
C839 C844 1.390 . S
C840 C834 1.465 . S
C840 C839 1.396 . S
C840 C841 1.399 . S
C841 H827 0.929 . S
C841 C840 1.399 . S
C841 C842 1.385 . S
C842 H828 0.931 . S
C842 C841 1.385 . S
C842 C843 1.389 . S
C843 C842 1.389 . S
C843 C844 1.387 . S
C844 H829 0.930 . S
C844 C839 1.390 . S
C844 C843 1.387 . S
H845 C857 0.930 . S
H846 C859 0.930 . S
H847 C860 0.930 . S
H848 C864 0.959 . S
H849 C864 0.959 . S
H850 C864 0.961 . S
H851 C865 0.960 . S
H852 C865 0.961 . S
H853 C865 0.959 . S
H854 C868 0.929 . S
H855 C869 0.931 . S
H856 C871 0.930 . S
C857 H845 0.930 . S
C857 C858 1.399 . S
C857 C862 1.399 . S
C858 C857 1.399 . S
C858 C859 1.376 . S
C859 H846 0.930 . S
C859 C858 1.376 . S
C859 C860 1.388 . S
C860 H847 0.930 . S
C860 C859 1.388 . S
C860 C861 1.390 . S
C861 C860 1.390 . S
C861 C862 1.394 . S
C861 C867 1.465 . S
C862 C857 1.399 . S
C862 C861 1.394 . S
C862 C863 1.516 . S
C863 C862 1.516 . S
C863 C864 1.502 . S
C863 C865 1.561 . S
C863 C866 1.526 . S
C864 H848 0.959 . S
C864 H849 0.959 . S
C864 H850 0.961 . S
C864 C863 1.502 . S
C865 H851 0.960 . S
C865 H852 0.961 . S
C865 H853 0.959 . S
C865 C863 1.561 . S
C866 C863 1.526 . S
C866 C867 1.396 . S
C866 C871 1.390 . S
C867 C861 1.465 . S
C867 C866 1.396 . S
C867 C868 1.399 . S
C868 H854 0.929 . S
C868 C867 1.399 . S
C868 C869 1.385 . S
C869 H855 0.931 . S
C869 C868 1.385 . S
C869 C870 1.389 . S
C870 C869 1.389 . S
C870 C871 1.387 . S
C871 H856 0.930 . S
C871 C866 1.390 . S
C871 C870 1.387 . S
H872 C884 0.930 1_565 S
H873 C886 0.930 . S
H874 C887 0.930 . S
H875 C891 0.937 1_545 S
H876 C891 0.973 . S
H877 C891 0.969 1_655 S
H878 C892 0.960 . S
H879 C892 0.961 . S
H880 C892 0.959 . S
H881 C895 0.929 . S
H882 C896 0.931 . S
H883 C898 0.916 1_455 S
C884 H872 0.930 1_545 S
C884 C885 1.399 . S
C884 C889 1.399 . S
C885 C884 1.399 . S
C885 C886 1.376 . S
C886 H873 0.930 . S
C886 C885 1.376 . S
C886 C887 1.388 . S
C887 H874 0.930 . S
C887 C886 1.388 . S
C887 C888 1.390 . S
C888 C887 1.390 . S
C888 C889 1.394 . S
C888 C894 1.465 . S
C889 C884 1.399 . S
C889 C888 1.394 . S
C889 C890 1.516 1_545 S
C890 C889 1.516 1_565 S
C890 C891 1.497 1_655 S
C890 C892 1.561 . S
C890 C893 1.526 1_565 S
C891 H875 0.937 1_565 S
C891 H876 0.973 . S
C891 H877 0.969 1_455 S
C891 C890 1.497 1_455 S
C892 H878 0.960 . S
C892 H879 0.961 . S
C892 H880 0.959 . S
C892 C890 1.561 . S
C893 C890 1.526 1_545 S
C893 C894 1.396 . S
C893 C898 1.403 . S
C894 C888 1.465 . S
C894 C893 1.396 . S
C894 C895 1.399 . S
C895 H881 0.929 . S
C895 C894 1.399 . S
C895 C896 1.385 . S
C896 H882 0.931 . S
C896 C895 1.385 . S
C896 C897 1.406 . S
C897 C896 1.406 . S
C897 C898 1.387 . S
C898 H883 0.916 1_655 S
C898 C893 1.403 . S
C898 C897 1.387 . S
H899 C911 0.930 . S
H900 C913 0.930 . S
H901 C914 0.930 . S
H902 C918 0.959 . S
H903 C918 0.959 . S
H904 C918 0.961 . S
H905 C919 0.960 . S
H906 C919 0.961 . S
H907 C919 0.959 . S
H908 C922 0.929 . S
H909 C923 0.931 . S
H910 C925 0.930 . S
C911 H899 0.930 . S
C911 C912 1.399 . S
C911 C916 1.399 . S
C912 C911 1.399 . S
C912 C913 1.376 . S
C913 H900 0.930 . S
C913 C912 1.376 . S
C913 C914 1.388 . S
C914 H901 0.930 . S
C914 C913 1.388 . S
C914 C915 1.390 . S
C915 C914 1.390 . S
C915 C916 1.394 . S
C915 C921 1.465 . S
C916 C911 1.399 . S
C916 C915 1.394 . S
C916 C917 1.516 . S
C917 C916 1.516 . S
C917 C918 1.502 . S
C917 C919 1.561 . S
C917 C920 1.526 . S
C918 H902 0.959 . S
C918 H903 0.959 . S
C918 H904 0.961 . S
C918 C917 1.502 . S
C919 H905 0.960 . S
C919 H906 0.961 . S
C919 H907 0.959 . S
C919 C917 1.561 . S
C920 C917 1.526 . S
C920 C921 1.396 . S
C920 C925 1.390 . S
C921 C915 1.465 . S
C921 C920 1.396 . S
C921 C922 1.399 . S
C922 H908 0.929 . S
C922 C921 1.399 . S
C922 C923 1.385 . S
C923 H909 0.931 . S
C923 C922 1.385 . S
C923 C924 1.389 . S
C924 C923 1.389 . S
C924 C925 1.387 . S
C925 H910 0.930 . S
C925 C920 1.390 . S
C925 C924 1.387 . S
H926 C938 0.930 . S
H927 C940 0.930 . S
H928 C941 0.930 . S
H929 C945 0.959 . S
H930 C945 0.959 . S
H931 C945 0.961 . S
H932 C946 0.960 . S
H933 C946 0.961 . S
H934 C946 0.959 . S
H935 C949 0.929 . S
H936 C950 0.931 . S
H937 C952 0.930 . S
C938 H926 0.930 . S
C938 C939 1.399 1_545 S
C938 C943 1.399 . S
C939 C938 1.399 1_565 S
C939 C940 1.376 . S
C940 H927 0.930 . S
C940 C939 1.376 . S
C940 C941 1.388 . S
C941 H928 0.930 . S
C941 C940 1.388 . S
C941 C942 1.390 . S
C942 C941 1.390 . S
C942 C943 1.394 1_565 S
C942 C948 1.465 . S
C943 C938 1.399 . S
C943 C942 1.394 1_545 S
C943 C944 1.516 . S
C944 C943 1.516 . S
C944 C945 1.502 . S
C944 C946 1.561 . S
C944 C947 1.526 . S
C945 H929 0.959 . S
C945 H930 0.959 . S
C945 H931 0.961 . S
C945 C944 1.502 . S
C946 H932 0.960 . S
C946 H933 0.961 . S
C946 H934 0.959 . S
C946 C944 1.561 . S
C947 C944 1.526 . S
C947 C948 1.396 1_545 S
C947 C952 1.390 . S
C948 C942 1.465 . S
C948 C947 1.396 1_565 S
C948 C949 1.399 . S
C949 H935 0.929 . S
C949 C948 1.399 . S
C949 C950 1.385 . S
C950 H936 0.931 . S
C950 C949 1.385 . S
C950 C951 1.389 . S
C951 C950 1.389 . S
C951 C952 1.387 1_565 S
C952 H937 0.930 . S
C952 C947 1.390 . S
C952 C951 1.387 1_545 S
H953 C965 0.930 . S
H954 C967 0.930 . S
H955 C968 0.930 . S
H956 C972 0.959 . S
H957 C972 0.959 . S
H958 C972 0.961 . S
H959 C973 0.960 . S
H960 C973 0.961 . S
H961 C973 0.959 . S
H962 C976 0.929 . S
H963 C977 0.931 . S
H964 C979 0.930 . S
C965 H953 0.930 . S
C965 C966 1.399 . S
C965 C970 1.399 . S
C966 C965 1.399 . S
C966 C967 1.376 . S
C967 H954 0.930 . S
C967 C966 1.376 . S
C967 C968 1.388 . S
C968 H955 0.930 . S
C968 C967 1.388 . S
C968 C969 1.390 . S
C969 C968 1.390 . S
C969 C970 1.394 . S
C969 C975 1.465 . S
C970 C965 1.399 . S
C970 C969 1.394 . S
C970 C971 1.516 . S
C971 C970 1.516 . S
C971 C972 1.502 . S
C971 C973 1.561 . S
C971 C974 1.526 . S
C972 H956 0.959 . S
C972 H957 0.959 . S
C972 H958 0.961 . S
C972 C971 1.502 . S
C973 H959 0.960 . S
C973 H960 0.961 . S
C973 H961 0.959 . S
C973 C971 1.561 . S
C974 C971 1.526 . S
C974 C975 1.396 . S
C974 C979 1.390 . S
C975 C969 1.465 . S
C975 C974 1.396 . S
C975 C976 1.399 . S
C976 H962 0.929 . S
C976 C975 1.399 . S
C976 C977 1.385 . S
C977 H963 0.931 . S
C977 C976 1.385 . S
C977 C978 1.389 . S
C978 C977 1.389 . S
C978 C979 1.387 . S
C979 H964 0.930 . S
C979 C974 1.390 . S
C979 C978 1.387 . S
H980 C992 0.930 . S
H981 C994 0.930 . S
H982 C995 0.930 . S
H983 C999 0.959 . S
H984 C999 0.959 . S
H985 C999 0.961 . S
H986 C1000 0.960 . S
H987 C1000 0.961 . S
H988 C1000 0.959 . S
H989 C1003 0.929 . S
H990 C1004 0.931 1_455 S
H991 C1006 0.930 . S
C992 H980 0.930 . S
C992 C993 1.399 1_565 S
C992 C997 1.399 1_565 S
C993 C992 1.399 1_545 S
C993 C994 1.376 . S
C994 H981 0.930 . S
C994 C993 1.376 . S
C994 C995 1.388 . S
C995 H982 0.930 . S
C995 C994 1.388 . S
C995 C996 1.390 . S
C996 C995 1.390 . S
C996 C997 1.394 . S
C996 C1002 1.465 . S
C997 C992 1.399 1_545 S
C997 C996 1.394 . S
C997 C998 1.516 1_545 S
C998 C997 1.516 1_565 S
C998 C999 1.502 . S
C998 C1000 1.561 . S
C998 C1001 1.512 1_565 S
C999 H983 0.959 . S
C999 H984 0.959 . S
C999 H985 0.961 . S
C999 C998 1.502 . S
C1000 H986 0.960 . S
C1000 H987 0.961 . S
C1000 H988 0.959 . S
C1000 C998 1.561 . S
C1001 C998 1.512 1_545 S
C1001 C1002 1.425 . S
C1001 C1006 1.378 1_545 S
C1002 C996 1.465 . S
C1002 C1001 1.425 . S
C1002 C1003 1.399 . S
C1003 H989 0.929 . S
C1003 C1002 1.399 . S
C1003 C1004 1.385 . S
C1004 H990 0.931 1_655 S
C1004 C1003 1.385 . S
C1004 C1005 1.389 . S
C1005 C1004 1.389 . S
C1005 C1006 1.387 1_545 S
C1006 H991 0.930 . S
C1006 C1001 1.378 1_565 S
C1006 C1005 1.387 1_565 S
H1007 C1019 0.930 . S
H1008 C1021 0.930 . S
H1009 C1022 0.930 . S
H1010 C1026 0.959 . S
H1011 C1026 0.959 . S
H1012 C1026 0.961 . S
H1013 C1027 0.960 . S
H1014 C1027 0.961 . S
H1015 C1027 0.959 . S
H1016 C1030 0.929 . S
H1017 C1031 0.931 . S
H1018 C1033 0.930 . S
C1019 H1007 0.930 . S
C1019 C1020 1.399 . S
C1019 C1024 1.399 . S
C1020 C1019 1.399 . S
C1020 C1021 1.376 . S
C1021 H1008 0.930 . S
C1021 C1020 1.376 . S
C1021 C1022 1.388 . S
C1022 H1009 0.930 . S
C1022 C1021 1.388 . S
C1022 C1023 1.390 . S
C1023 C1022 1.390 . S
C1023 C1024 1.394 . S
C1023 C1029 1.465 . S
C1024 C1019 1.399 . S
C1024 C1023 1.394 . S
C1024 C1025 1.516 . S
C1025 C1024 1.516 . S
C1025 C1026 1.502 . S
C1025 C1027 1.561 . S
C1025 C1028 1.526 . S
C1026 H1010 0.959 . S
C1026 H1011 0.959 . S
C1026 H1012 0.961 . S
C1026 C1025 1.502 . S
C1027 H1013 0.960 . S
C1027 H1014 0.961 . S
C1027 H1015 0.959 . S
C1027 C1025 1.561 . S
C1028 C1025 1.526 . S
C1028 C1029 1.396 . S
C1028 C1033 1.390 . S
C1029 C1023 1.465 . S
C1029 C1028 1.396 . S
C1029 C1030 1.399 . S
C1030 H1016 0.929 . S
C1030 C1029 1.399 . S
C1030 C1031 1.385 . S
C1031 H1017 0.931 . S
C1031 C1030 1.385 . S
C1031 C1032 1.389 . S
C1032 C1031 1.389 . S
C1032 C1033 1.387 . S
C1033 H1018 0.930 . S
C1033 C1028 1.390 . S
C1033 C1032 1.387 . S
H1034 C1046 0.930 . S
H1035 C1048 0.930 . S
H1036 C1049 0.930 . S
H1037 C1053 0.959 . S
H1038 C1053 0.959 . S
H1039 C1053 0.961 . S
H1040 C1054 0.960 . S
H1041 C1054 0.961 . S
H1042 C1054 0.959 . S
H1043 C1057 0.929 . S
H1044 C1058 0.931 1_565 S
H1045 C1060 0.930 . S
C1046 H1034 0.930 . S
C1046 C1047 1.399 . S
C1046 C1051 1.399 . S
C1047 C1046 1.399 . S
C1047 C1048 1.376 1_545 S
C1048 H1035 0.930 . S
C1048 C1047 1.376 1_565 S
C1048 C1049 1.388 . S
C1049 H1036 0.930 . S
C1049 C1048 1.388 . S
C1049 C1050 1.390 1_565 S
C1050 C1049 1.390 1_545 S
C1050 C1051 1.394 . S
C1050 C1056 1.465 . S
C1051 C1046 1.399 . S
C1051 C1050 1.394 . S
C1051 C1052 1.516 . S
C1052 C1051 1.516 . S
C1052 C1053 1.502 . S
C1052 C1054 1.561 . S
C1052 C1055 1.526 . S
C1053 H1037 0.959 . S
C1053 H1038 0.959 . S
C1053 H1039 0.961 . S
C1053 C1052 1.502 . S
C1054 H1040 0.960 . S
C1054 H1041 0.961 . S
C1054 H1042 0.959 . S
C1054 C1052 1.561 . S
C1055 C1052 1.526 . S
C1055 C1056 1.396 . S
C1055 C1060 1.390 . S
C1056 C1050 1.465 . S
C1056 C1055 1.396 . S
C1056 C1057 1.399 1_545 S
C1057 H1043 0.929 . S
C1057 C1056 1.399 1_565 S
C1057 C1058 1.385 1_565 S
C1058 H1044 0.931 1_545 S
C1058 C1057 1.385 1_545 S
C1058 C1059 1.389 . S
C1059 C1058 1.389 . S
C1059 C1060 1.387 . S
C1060 H1045 0.930 . S
C1060 C1055 1.390 . S
C1060 C1059 1.387 . S
H1061 C1073 0.930 . S
H1062 C1075 0.930 . S
H1063 C1076 0.930 . S
H1064 C1080 0.959 . S
H1065 C1080 0.959 . S
H1066 C1080 0.961 . S
H1067 C1081 0.960 . S
H1068 C1081 0.961 . S
H1069 C1081 0.959 . S
H1070 C1084 0.929 . S
H1071 C1085 0.931 . S
H1072 C1087 0.930 . S
C1073 H1061 0.930 . S
C1073 C1074 1.399 . S
C1073 C1078 1.399 . S
C1074 C1073 1.399 . S
C1074 C1075 1.376 . S
C1075 H1062 0.930 . S
C1075 C1074 1.376 . S
C1075 C1076 1.388 . S
C1076 H1063 0.930 . S
C1076 C1075 1.388 . S
C1076 C1077 1.390 . S
C1077 C1076 1.390 . S
C1077 C1078 1.394 . S
C1077 C1083 1.465 . S
C1078 C1073 1.399 . S
C1078 C1077 1.394 . S
C1078 C1079 1.516 . S
C1079 C1078 1.516 . S
C1079 C1080 1.502 . S
C1079 C1081 1.561 . S
C1079 C1082 1.526 . S
C1080 H1064 0.959 . S
C1080 H1065 0.959 . S
C1080 H1066 0.961 . S
C1080 C1079 1.502 . S
C1081 H1067 0.960 . S
C1081 H1068 0.961 . S
C1081 H1069 0.959 . S
C1081 C1079 1.561 . S
C1082 C1079 1.526 . S
C1082 C1083 1.396 . S
C1082 C1087 1.390 . S
C1083 C1077 1.465 . S
C1083 C1082 1.396 . S
C1083 C1084 1.399 . S
C1084 H1070 0.929 . S
C1084 C1083 1.399 . S
C1084 C1085 1.385 . S
C1085 H1071 0.931 . S
C1085 C1084 1.385 . S
C1085 C1086 1.389 . S
C1086 C1085 1.389 . S
C1086 C1087 1.387 . S
C1087 H1072 0.930 . S
C1087 C1082 1.390 . S
C1087 C1086 1.387 . S
H1088 C1100 0.930 1_556 S
H1089 C1102 0.930 . S
H1090 C1103 0.930 . S
H1091 C1107 0.959 . S
H1092 C1107 0.959 . S
H1093 C1107 0.961 . S
H1094 C1108 0.960 . S
H1095 C1108 0.961 . S
H1096 C1108 0.959 1_554 S
H1097 C1111 0.929 . S
H1098 C1112 0.931 . S
H1099 C1114 0.930 . S
C1100 H1088 0.930 1_554 S
C1100 C1101 1.399 . S
C1100 C1105 1.399 . S
C1101 C1100 1.399 . S
C1101 C1102 1.376 . S
C1102 H1089 0.930 . S
C1102 C1101 1.376 . S
C1102 C1103 1.388 . S
C1103 H1090 0.930 . S
C1103 C1102 1.388 . S
C1103 C1104 1.390 . S
C1104 C1103 1.390 . S
C1104 C1105 1.394 . S
C1104 C1110 1.465 . S
C1105 C1100 1.399 . S
C1105 C1104 1.394 . S
C1105 C1106 1.516 . S
C1106 C1105 1.516 . S
C1106 C1107 1.502 1_554 S
C1106 C1108 1.561 1_554 S
C1106 C1109 1.526 . S
C1107 H1091 0.959 . S
C1107 H1092 0.959 . S
C1107 H1093 0.961 . S
C1107 C1106 1.502 1_556 S
C1108 H1094 0.960 . S
C1108 H1095 0.961 . S
C1108 H1096 0.959 1_556 S
C1108 C1106 1.561 1_556 S
C1109 C1106 1.526 . S
C1109 C1110 1.396 . S
C1109 C1114 1.390 . S
C1110 C1104 1.465 . S
C1110 C1109 1.396 . S
C1110 C1111 1.399 . S
C1111 H1097 0.929 . S
C1111 C1110 1.399 . S
C1111 C1112 1.385 . S
C1112 H1098 0.931 . S
C1112 C1111 1.385 . S
C1112 C1113 1.389 . S
C1113 C1112 1.389 . S
C1113 C1114 1.387 . S
C1114 H1099 0.930 . S
C1114 C1109 1.390 . S
C1114 C1113 1.387 . S
H1115 C1127 0.930 . S
H1116 C1129 0.930 . S
H1117 C1130 0.930 . S
H1118 C1134 0.959 . S
H1119 C1134 0.959 . S
H1120 C1134 0.961 . S
H1121 C1135 0.960 . S
H1122 C1135 0.961 . S
H1123 C1135 0.959 . S
H1124 C1138 0.929 . S
H1125 C1139 0.931 . S
H1126 C1141 0.930 . S
C1127 H1115 0.930 . S
C1127 C1128 1.399 . S
C1127 C1132 1.399 1_556 S
C1128 C1127 1.399 . S
C1128 C1129 1.376 . S
C1129 H1116 0.930 . S
C1129 C1128 1.376 . S
C1129 C1130 1.388 1_556 S
C1130 H1117 0.930 . S
C1130 C1129 1.388 1_554 S
C1130 C1131 1.390 . S
C1131 C1130 1.390 . S
C1131 C1132 1.394 . S
C1131 C1137 1.465 . S
C1132 C1127 1.399 1_554 S
C1132 C1131 1.394 . S
C1132 C1133 1.516 . S
C1133 C1132 1.516 . S
C1133 C1134 1.502 1_554 S
C1133 C1135 1.561 . S
C1133 C1136 1.526 . S
C1134 H1118 0.959 . S
C1134 H1119 0.959 . S
C1134 H1120 0.961 . S
C1134 C1133 1.502 1_556 S
C1135 H1121 0.960 . S
C1135 H1122 0.961 . S
C1135 H1123 0.959 . S
C1135 C1133 1.561 . S
C1136 C1133 1.526 . S
C1136 C1137 1.396 . S
C1136 C1141 1.390 . S
C1137 C1131 1.465 . S
C1137 C1136 1.396 . S
C1137 C1138 1.399 . S
C1138 H1124 0.929 . S
C1138 C1137 1.399 . S
C1138 C1139 1.385 . S
C1139 H1125 0.931 . S
C1139 C1138 1.385 . S
C1139 C1140 1.389 . S
C1140 C1139 1.389 . S
C1140 C1141 1.387 . S
C1141 H1126 0.930 . S
C1141 C1136 1.390 . S
C1141 C1140 1.387 . S
H1142 C1154 0.930 . S
H1143 C1156 0.930 . S
H1144 C1157 0.930 . S
H1145 C1161 0.959 . S
H1146 C1161 0.959 . S
H1147 C1161 0.961 . S
H1148 C1162 0.960 . S
H1149 C1162 0.961 . S
H1150 C1162 0.959 . S
H1151 C1165 0.929 . S
H1152 C1166 0.931 . S
H1153 C1168 0.930 . S
C1154 H1142 0.930 . S
C1154 C1155 1.399 . S
C1154 C1159 1.399 . S
C1155 C1154 1.399 . S
C1155 C1156 1.376 . S
C1156 H1143 0.930 . S
C1156 C1155 1.376 . S
C1156 C1157 1.388 . S
C1157 H1144 0.930 . S
C1157 C1156 1.388 . S
C1157 C1158 1.390 . S
C1158 C1157 1.390 . S
C1158 C1159 1.394 . S
C1158 C1164 1.465 . S
C1159 C1154 1.399 . S
C1159 C1158 1.394 . S
C1159 C1160 1.516 . S
C1160 C1159 1.516 . S
C1160 C1161 1.502 . S
C1160 C1162 1.561 . S
C1160 C1163 1.526 . S
C1161 H1145 0.959 . S
C1161 H1146 0.959 . S
C1161 H1147 0.961 . S
C1161 C1160 1.502 . S
C1162 H1148 0.960 . S
C1162 H1149 0.961 . S
C1162 H1150 0.959 . S
C1162 C1160 1.561 . S
C1163 C1160 1.526 . S
C1163 C1164 1.396 . S
C1163 C1168 1.390 . S
C1164 C1158 1.465 . S
C1164 C1163 1.396 . S
C1164 C1165 1.399 . S
C1165 H1151 0.929 . S
C1165 C1164 1.399 . S
C1165 C1166 1.385 . S
C1166 H1152 0.931 . S
C1166 C1165 1.385 . S
C1166 C1167 1.389 . S
C1167 C1166 1.389 . S
C1167 C1168 1.387 . S
C1168 H1153 0.930 . S
C1168 C1163 1.390 . S
C1168 C1167 1.387 . S
H1169 C1181 0.930 . S
H1170 C1183 0.930 . S
H1171 C1184 0.930 . S
H1172 C1188 0.959 . S
H1173 C1188 0.959 . S
H1174 C1188 0.961 . S
H1175 C1189 0.960 . S
H1176 C1189 0.961 . S
H1177 C1189 0.959 . S
H1178 C1192 0.929 . S
H1179 C1193 0.931 . S
H1180 C1195 0.930 . S
C1181 H1169 0.930 . S
C1181 C1182 1.399 . S
C1181 C1186 1.399 . S
C1182 C1181 1.399 . S
C1182 C1183 1.376 . S
C1183 H1170 0.930 . S
C1183 C1182 1.376 . S
C1183 C1184 1.388 . S
C1184 H1171 0.930 . S
C1184 C1183 1.388 . S
C1184 C1185 1.390 . S
C1185 C1184 1.390 . S
C1185 C1186 1.394 . S
C1185 C1191 1.465 . S
C1186 C1181 1.399 . S
C1186 C1185 1.394 . S
C1186 C1187 1.516 . S
C1187 C1186 1.516 . S
C1187 C1188 1.502 . S
C1187 C1189 1.561 . S
C1187 C1190 1.526 . S
C1188 H1172 0.959 . S
C1188 H1173 0.959 . S
C1188 H1174 0.961 . S
C1188 C1187 1.502 . S
C1189 H1175 0.960 . S
C1189 H1176 0.961 . S
C1189 H1177 0.959 . S
C1189 C1187 1.561 . S
C1190 C1187 1.526 . S
C1190 C1191 1.396 . S
C1190 C1195 1.390 . S
C1191 C1185 1.465 . S
C1191 C1190 1.396 . S
C1191 C1192 1.399 . S
C1192 H1178 0.929 . S
C1192 C1191 1.399 . S
C1192 C1193 1.385 . S
C1193 H1179 0.931 . S
C1193 C1192 1.385 . S
C1193 C1194 1.389 . S
C1194 C1193 1.389 . S
C1194 C1195 1.387 . S
C1195 H1180 0.930 . S
C1195 C1190 1.390 . S
C1195 C1194 1.387 . S
H1196 C1208 0.930 . S
H1197 C1210 0.930 . S
H1198 C1211 0.930 . S
H1199 C1215 0.959 . S
H1200 C1215 0.959 . S
H1201 C1215 0.961 . S
H1202 C1216 0.960 . S
H1203 C1216 0.961 . S
H1204 C1216 0.959 . S
H1205 C1219 0.929 . S
H1206 C1220 0.931 . S
H1207 C1222 0.930 . S
C1208 H1196 0.930 . S
C1208 C1209 1.399 . S
C1208 C1213 1.399 . S
C1209 C1208 1.399 . S
C1209 C1210 1.376 . S
C1210 H1197 0.930 . S
C1210 C1209 1.376 . S
C1210 C1211 1.388 . S
C1211 H1198 0.930 . S
C1211 C1210 1.388 . S
C1211 C1212 1.390 . S
C1212 C1211 1.390 . S
C1212 C1213 1.394 . S
C1212 C1218 1.465 . S
C1213 C1208 1.399 . S
C1213 C1212 1.394 . S
C1213 C1214 1.516 . S
C1214 C1213 1.516 . S
C1214 C1215 1.502 . S
C1214 C1216 1.561 . S
C1214 C1217 1.526 . S
C1215 H1199 0.959 . S
C1215 H1200 0.959 . S
C1215 H1201 0.961 . S
C1215 C1214 1.502 . S
C1216 H1202 0.960 . S
C1216 H1203 0.961 . S
C1216 H1204 0.959 . S
C1216 C1214 1.561 . S
C1217 C1214 1.526 . S
C1217 C1218 1.396 . S
C1217 C1222 1.390 . S
C1218 C1212 1.465 . S
C1218 C1217 1.396 . S
C1218 C1219 1.399 . S
C1219 H1205 0.929 . S
C1219 C1218 1.399 . S
C1219 C1220 1.385 . S
C1220 H1206 0.931 . S
C1220 C1219 1.385 . S
C1220 C1221 1.389 . S
C1221 C1220 1.389 . S
C1221 C1222 1.387 . S
C1222 H1207 0.930 . S
C1222 C1217 1.390 . S
C1222 C1221 1.387 . S
H1223 C1235 0.930 . S
H1224 C1237 0.930 . S
H1225 C1238 0.930 . S
H1226 C1242 0.959 . S
H1227 C1242 0.959 . S
H1228 C1242 0.961 . S
H1229 C1243 0.960 . S
H1230 C1243 0.961 . S
H1231 C1243 0.959 . S
H1232 C1246 0.929 . S
H1233 C1247 0.931 . S
H1234 C1249 0.930 . S
C1235 H1223 0.930 . S
C1235 C1236 1.399 . S
C1235 C1240 1.399 . S
C1236 C1235 1.399 . S
C1236 C1237 1.376 . S
C1237 H1224 0.930 . S
C1237 C1236 1.376 . S
C1237 C1238 1.388 . S
C1238 H1225 0.930 . S
C1238 C1237 1.388 . S
C1238 C1239 1.390 . S
C1239 C1238 1.390 . S
C1239 C1240 1.394 . S
C1239 C1245 1.465 . S
C1240 C1235 1.399 . S
C1240 C1239 1.394 . S
C1240 C1241 1.516 . S
C1241 C1240 1.516 . S
C1241 C1242 1.502 . S
C1241 C1243 1.561 . S
C1241 C1244 1.526 . S
C1242 H1226 0.959 . S
C1242 H1227 0.959 . S
C1242 H1228 0.961 . S
C1242 C1241 1.502 . S
C1243 H1229 0.960 . S
C1243 H1230 0.961 . S
C1243 H1231 0.959 . S
C1243 C1241 1.561 . S
C1244 C1241 1.526 . S
C1244 C1245 1.396 . S
C1244 C1249 1.390 . S
C1245 C1239 1.465 . S
C1245 C1244 1.396 . S
C1245 C1246 1.399 . S
C1246 H1232 0.929 . S
C1246 C1245 1.399 . S
C1246 C1247 1.385 . S
C1247 H1233 0.931 . S
C1247 C1246 1.385 . S
C1247 C1248 1.389 . S
C1248 C1247 1.389 . S
C1248 C1249 1.387 . S
C1249 H1234 0.930 . S
C1249 C1244 1.390 . S
C1249 C1248 1.387 . S
H1250 C1262 0.930 . S
H1251 C1264 0.930 . S
H1252 C1265 0.930 . S
H1253 C1269 0.959 . S
H1254 C1269 0.959 . S
H1255 C1269 0.961 . S
H1256 C1270 0.960 . S
H1257 C1270 0.961 . S
H1258 C1270 0.959 . S
H1259 C1273 0.929 . S
H1260 C1274 0.931 . S
H1261 C1276 0.930 . S
C1262 H1250 0.930 . S
C1262 C1263 1.399 . S
C1262 C1267 1.399 . S
C1263 C1262 1.399 . S
C1263 C1264 1.376 . S
C1264 H1251 0.930 . S
C1264 C1263 1.376 . S
C1264 C1265 1.388 . S
C1265 H1252 0.930 . S
C1265 C1264 1.388 . S
C1265 C1266 1.390 . S
C1266 C1265 1.390 . S
C1266 C1267 1.394 . S
C1266 C1272 1.465 . S
C1267 C1262 1.399 . S
C1267 C1266 1.394 . S
C1267 C1268 1.516 . S
C1268 C1267 1.516 . S
C1268 C1269 1.502 . S
C1268 C1270 1.561 . S
C1268 C1271 1.526 . S
C1269 H1253 0.959 . S
C1269 H1254 0.959 . S
C1269 H1255 0.961 . S
C1269 C1268 1.502 . S
C1270 H1256 0.960 . S
C1270 H1257 0.961 . S
C1270 H1258 0.959 . S
C1270 C1268 1.561 . S
C1271 C1268 1.526 . S
C1271 C1272 1.396 . S
C1271 C1276 1.390 . S
C1272 C1266 1.465 . S
C1272 C1271 1.396 . S
C1272 C1273 1.399 . S
C1273 H1259 0.929 . S
C1273 C1272 1.399 . S
C1273 C1274 1.385 . S
C1274 H1260 0.931 . S
C1274 C1273 1.385 . S
C1274 C1275 1.389 . S
C1275 C1274 1.389 . S
C1275 C1276 1.387 . S
C1276 H1261 0.930 . S
C1276 C1271 1.390 . S
C1276 C1275 1.387 . S
H1277 C1289 0.930 . S
H1278 C1291 0.930 . S
H1279 C1292 0.930 . S
H1280 C1296 0.959 . S
H1281 C1296 0.959 . S
H1282 C1296 0.961 . S
H1283 C1297 0.960 . S
H1284 C1297 0.961 . S
H1285 C1297 0.959 . S
H1286 C1300 0.929 . S
H1287 C1301 0.931 . S
H1288 C1303 0.930 . S
C1289 H1277 0.930 . S
C1289 C1290 1.399 . S
C1289 C1294 1.399 . S
C1290 C1289 1.399 . S
C1290 C1291 1.376 . S
C1291 H1278 0.930 . S
C1291 C1290 1.376 . S
C1291 C1292 1.388 . S
C1292 H1279 0.930 . S
C1292 C1291 1.388 . S
C1292 C1293 1.390 . S
C1293 C1292 1.390 . S
C1293 C1294 1.394 . S
C1293 C1299 1.465 . S
C1294 C1289 1.399 . S
C1294 C1293 1.394 . S
C1294 C1295 1.516 . S
C1295 C1294 1.516 . S
C1295 C1296 1.502 . S
C1295 C1297 1.561 . S
C1295 C1298 1.526 . S
C1296 H1280 0.959 . S
C1296 H1281 0.959 . S
C1296 H1282 0.961 . S
C1296 C1295 1.502 . S
C1297 H1283 0.960 . S
C1297 H1284 0.961 . S
C1297 H1285 0.959 . S
C1297 C1295 1.561 . S
C1298 C1295 1.526 . S
C1298 C1299 1.396 . S
C1298 C1303 1.390 . S
C1299 C1293 1.465 . S
C1299 C1298 1.396 . S
C1299 C1300 1.399 . S
C1300 H1286 0.929 . S
C1300 C1299 1.399 . S
C1300 C1301 1.385 . S
C1301 H1287 0.931 . S
C1301 C1300 1.385 . S
C1301 C1302 1.389 . S
C1302 C1301 1.389 . S
C1302 C1303 1.387 . S
C1303 H1288 0.930 . S
C1303 C1298 1.390 . S
C1303 C1302 1.387 . S
H1304 C1316 0.930 . S
H1305 C1318 0.930 . S
H1306 C1319 0.930 . S
H1307 C1323 0.959 . S
H1308 C1323 0.959 . S
H1309 C1323 0.961 . S
H1310 C1324 0.960 . S
H1311 C1324 0.961 . S
H1312 C1324 0.959 . S
H1313 C1327 0.929 . S
H1314 C1328 0.931 . S
H1315 C1330 0.930 . S
C1316 H1304 0.930 . S
C1316 C1317 1.399 . S
C1316 C1321 1.399 . S
C1317 C1316 1.399 . S
C1317 C1318 1.376 . S
C1318 H1305 0.930 . S
C1318 C1317 1.376 . S
C1318 C1319 1.388 . S
C1319 H1306 0.930 . S
C1319 C1318 1.388 . S
C1319 C1320 1.390 . S
C1320 C1319 1.390 . S
C1320 C1321 1.394 . S
C1320 C1326 1.465 . S
C1321 C1316 1.399 . S
C1321 C1320 1.394 . S
C1321 C1322 1.516 . S
C1322 C1321 1.516 . S
C1322 C1323 1.502 . S
C1322 C1324 1.561 . S
C1322 C1325 1.526 . S
C1323 H1307 0.959 . S
C1323 H1308 0.959 . S
C1323 H1309 0.961 . S
C1323 C1322 1.502 . S
C1324 H1310 0.960 . S
C1324 H1311 0.961 . S
C1324 H1312 0.959 . S
C1324 C1322 1.561 . S
C1325 C1322 1.526 . S
C1325 C1326 1.396 . S
C1325 C1330 1.390 . S
C1326 C1320 1.465 . S
C1326 C1325 1.396 . S
C1326 C1327 1.399 . S
C1327 H1313 0.929 . S
C1327 C1326 1.399 . S
C1327 C1328 1.385 . S
C1328 H1314 0.931 . S
C1328 C1327 1.385 . S
C1328 C1329 1.389 . S
C1329 C1328 1.389 . S
C1329 C1330 1.387 . S
C1330 H1315 0.930 . S
C1330 C1325 1.390 . S
C1330 C1329 1.387 . S
H1331 C1343 0.930 . S
H1332 C1345 0.930 . S
H1333 C1346 0.930 . S
H1334 C1350 0.959 . S
H1335 C1350 0.959 . S
H1336 C1350 0.961 . S
H1337 C1351 0.960 . S
H1338 C1351 0.961 . S
H1339 C1351 0.959 . S
H1340 C1354 0.929 . S
H1341 C1355 0.931 . S
H1342 C1357 0.930 . S
C1343 H1331 0.930 . S
C1343 C1344 1.399 . S
C1343 C1348 1.399 . S
C1344 C1343 1.399 . S
C1344 C1345 1.376 . S
C1345 H1332 0.930 . S
C1345 C1344 1.376 . S
C1345 C1346 1.388 . S
C1346 H1333 0.930 . S
C1346 C1345 1.388 . S
C1346 C1347 1.390 . S
C1347 C1346 1.390 . S
C1347 C1348 1.394 . S
C1347 C1353 1.465 . S
C1348 C1343 1.399 . S
C1348 C1347 1.394 . S
C1348 C1349 1.516 . S
C1349 C1348 1.516 . S
C1349 C1350 1.502 . S
C1349 C1351 1.561 . S
C1349 C1352 1.526 . S
C1350 H1334 0.959 . S
C1350 H1335 0.959 . S
C1350 H1336 0.961 . S
C1350 C1349 1.502 . S
C1351 H1337 0.960 . S
C1351 H1338 0.961 . S
C1351 H1339 0.959 . S
C1351 C1349 1.561 . S
C1352 C1349 1.526 . S
C1352 C1353 1.396 . S
C1352 C1357 1.390 . S
C1353 C1347 1.465 . S
C1353 C1352 1.396 . S
C1353 C1354 1.399 . S
C1354 H1340 0.929 . S
C1354 C1353 1.399 . S
C1354 C1355 1.385 . S
C1355 H1341 0.931 . S
C1355 C1354 1.385 . S
C1355 C1356 1.389 . S
C1356 C1355 1.389 . S
C1356 C1357 1.387 . S
C1357 H1342 0.930 . S
C1357 C1352 1.390 . S
C1357 C1356 1.387 . S
H1358 C1370 0.930 . S
H1359 C1372 0.930 . S
H1360 C1373 0.930 . S
H1361 C1377 0.959 . S
H1362 C1377 0.959 . S
H1363 C1377 0.961 . S
H1364 C1378 0.960 . S
H1365 C1378 0.961 . S
H1366 C1378 0.959 . S
H1367 C1381 0.929 . S
H1368 C1382 0.931 . S
H1369 C1384 0.930 . S
C1370 H1358 0.930 . S
C1370 C1371 1.399 . S
C1370 C1375 1.399 . S
C1371 C1370 1.399 . S
C1371 C1372 1.376 . S
C1372 H1359 0.930 . S
C1372 C1371 1.376 . S
C1372 C1373 1.388 . S
C1373 H1360 0.930 . S
C1373 C1372 1.388 . S
C1373 C1374 1.390 . S
C1374 C1373 1.390 . S
C1374 C1375 1.394 . S
C1374 C1380 1.465 . S
C1375 C1370 1.399 . S
C1375 C1374 1.394 . S
C1375 C1376 1.516 . S
C1376 C1375 1.516 . S
C1376 C1377 1.502 . S
C1376 C1378 1.561 . S
C1376 C1379 1.526 . S
C1377 H1361 0.959 . S
C1377 H1362 0.959 . S
C1377 H1363 0.961 . S
C1377 C1376 1.502 . S
C1378 H1364 0.960 . S
C1378 H1365 0.961 . S
C1378 H1366 0.959 . S
C1378 C1376 1.561 . S
C1379 C1376 1.526 . S
C1379 C1380 1.396 . S
C1379 C1384 1.390 . S
C1380 C1374 1.465 . S
C1380 C1379 1.396 . S
C1380 C1381 1.399 . S
C1381 H1367 0.929 . S
C1381 C1380 1.399 . S
C1381 C1382 1.385 . S
C1382 H1368 0.931 . S
C1382 C1381 1.385 . S
C1382 C1383 1.389 . S
C1383 C1382 1.389 . S
C1383 C1384 1.387 . S
C1384 H1369 0.930 . S
C1384 C1379 1.390 . S
C1384 C1383 1.387 . S
H1385 C1397 0.930 . S
H1386 C1399 0.930 . S
H1387 C1400 0.930 . S
H1388 C1404 0.959 . S
H1389 C1404 0.959 . S
H1390 C1404 0.961 . S
H1391 C1405 0.960 . S
H1392 C1405 0.961 . S
H1393 C1405 0.959 . S
H1394 C1408 0.929 . S
H1395 C1409 0.931 . S
H1396 C1411 0.930 . S
C1397 H1385 0.930 . S
C1397 C1398 1.399 . S
C1397 C1402 1.399 . S
C1398 C1397 1.399 . S
C1398 C1399 1.376 . S
C1399 H1386 0.930 . S
C1399 C1398 1.376 . S
C1399 C1400 1.388 . S
C1400 H1387 0.930 . S
C1400 C1399 1.388 . S
C1400 C1401 1.390 . S
C1401 C1400 1.390 . S
C1401 C1402 1.394 . S
C1401 C1407 1.465 . S
C1402 C1397 1.399 . S
C1402 C1401 1.394 . S
C1402 C1403 1.516 . S
C1403 C1402 1.516 . S
C1403 C1404 1.502 . S
C1403 C1405 1.561 . S
C1403 C1406 1.526 . S
C1404 H1388 0.959 . S
C1404 H1389 0.959 . S
C1404 H1390 0.961 . S
C1404 C1403 1.502 . S
C1405 H1391 0.960 . S
C1405 H1392 0.961 . S
C1405 H1393 0.959 . S
C1405 C1403 1.561 . S
C1406 C1403 1.526 . S
C1406 C1407 1.396 . S
C1406 C1411 1.390 . S
C1407 C1401 1.465 . S
C1407 C1406 1.396 . S
C1407 C1408 1.399 . S
C1408 H1394 0.929 . S
C1408 C1407 1.399 . S
C1408 C1409 1.385 . S
C1409 H1395 0.931 . S
C1409 C1408 1.385 . S
C1409 C1410 1.389 . S
C1410 C1409 1.389 . S
C1410 C1411 1.387 . S
C1411 H1396 0.930 . S
C1411 C1406 1.390 . S
C1411 C1410 1.387 . S
H1412 C1424 0.930 . S
H1413 C1426 0.930 . S
H1414 C1427 0.911 1_655 S
H1415 C1431 0.959 . S
H1416 C1431 0.959 . S
H1417 C1431 0.961 . S
H1418 C1432 0.960 . S
H1419 C1432 0.961 . S
H1420 C1432 0.959 . S
H1421 C1435 0.936 . S
H1422 C1436 0.931 . S
H1423 C1438 0.930 . S
C1424 H1412 0.930 . S
C1424 C1425 1.399 . S
C1424 C1429 1.399 . S
C1425 C1424 1.399 . S
C1425 C1426 1.376 . S
C1426 H1413 0.930 . S
C1426 C1425 1.376 . S
C1426 C1427 1.388 . S
C1427 H1414 0.911 1_455 S
C1427 C1426 1.388 . S
C1427 C1428 1.390 . S
C1428 C1427 1.390 . S
C1428 C1429 1.394 . S
C1428 C1434 1.465 . S
C1429 C1424 1.399 . S
C1429 C1428 1.394 . S
C1429 C1430 1.516 . S
C1430 C1429 1.516 . S
C1430 C1431 1.502 . S
C1430 C1432 1.561 . S
C1430 C1433 1.526 . S
C1431 H1415 0.959 . S
C1431 H1416 0.959 . S
C1431 H1417 0.961 . S
C1431 C1430 1.502 . S
C1432 H1418 0.960 . S
C1432 H1419 0.961 . S
C1432 H1420 0.959 . S
C1432 C1430 1.561 . S
C1433 C1430 1.526 . S
C1433 C1434 1.396 . S
C1433 C1438 1.390 . S
C1434 C1428 1.465 . S
C1434 C1433 1.396 . S
C1434 C1435 1.394 1_455 S
C1435 H1421 0.936 . S
C1435 C1434 1.394 1_655 S
C1435 C1436 1.384 . S
C1436 H1422 0.931 . S
C1436 C1435 1.384 . S
C1436 C1437 1.389 1_655 S
C1437 C1436 1.389 1_455 S
C1437 C1438 1.387 . S
C1438 H1423 0.930 . S
C1438 C1433 1.390 . S
C1438 C1437 1.387 . S
H1439 C1451 0.930 . S
H1440 C1453 0.930 . S
H1441 C1454 0.930 . S
H1442 C1458 0.959 . S
H1443 C1458 0.959 . S
H1444 C1458 0.961 . S
H1445 C1459 0.960 . S
H1446 C1459 0.961 . S
H1447 C1459 0.959 . S
H1448 C1462 0.929 . S
H1449 C1463 0.931 . S
H1450 C1465 0.930 . S
C1451 H1439 0.930 . S
C1451 C1452 1.399 . S
C1451 C1456 1.399 . S
C1452 C1451 1.399 . S
C1452 C1453 1.376 . S
C1453 H1440 0.930 . S
C1453 C1452 1.376 . S
C1453 C1454 1.388 . S
C1454 H1441 0.930 . S
C1454 C1453 1.388 . S
C1454 C1455 1.390 . S
C1455 C1454 1.390 . S
C1455 C1456 1.394 . S
C1455 C1461 1.465 . S
C1456 C1451 1.399 . S
C1456 C1455 1.394 . S
C1456 C1457 1.516 . S
C1457 C1456 1.516 . S
C1457 C1458 1.502 . S
C1457 C1459 1.561 . S
C1457 C1460 1.526 . S
C1458 H1442 0.959 . S
C1458 H1443 0.959 . S
C1458 H1444 0.961 . S
C1458 C1457 1.502 . S
C1459 H1445 0.960 . S
C1459 H1446 0.961 . S
C1459 H1447 0.959 . S
C1459 C1457 1.561 . S
C1460 C1457 1.526 . S
C1460 C1461 1.396 . S
C1460 C1465 1.390 . S
C1461 C1455 1.465 . S
C1461 C1460 1.396 . S
C1461 C1462 1.399 . S
C1462 H1448 0.929 . S
C1462 C1461 1.399 . S
C1462 C1463 1.385 . S
C1463 H1449 0.931 . S
C1463 C1462 1.385 . S
C1463 C1464 1.389 . S
C1464 C1463 1.389 . S
C1464 C1465 1.387 . S
C1465 H1450 0.930 . S
C1465 C1460 1.390 . S
C1465 C1464 1.387 . S
H1466 C1478 0.930 . S
H1467 C1480 0.930 . S
H1468 C1481 0.930 . S
H1469 C1485 0.959 1_556 S
H1470 C1485 0.959 . S
H1471 C1485 0.961 . S
H1472 C1486 0.960 . S
H1473 C1486 0.961 . S
H1474 C1486 0.959 . S
H1475 C1489 0.929 . S
H1476 C1490 0.931 . S
H1477 C1492 0.930 . S
C1478 H1466 0.930 . S
C1478 C1479 1.399 . S
C1478 C1483 1.399 . S
C1479 C1478 1.399 . S
C1479 C1480 1.376 . S
C1480 H1467 0.930 . S
C1480 C1479 1.376 . S
C1480 C1481 1.388 . S
C1481 H1468 0.930 . S
C1481 C1480 1.388 . S
C1481 C1482 1.390 . S
C1482 C1481 1.390 . S
C1482 C1483 1.394 . S
C1482 C1488 1.465 . S
C1483 C1478 1.399 . S
C1483 C1482 1.394 . S
C1483 C1484 1.516 . S
C1484 C1483 1.516 . S
C1484 C1485 1.502 1_556 S
C1484 C1486 1.561 1_556 S
C1484 C1487 1.526 . S
C1485 H1469 0.959 1_554 S
C1485 H1470 0.959 . S
C1485 H1471 0.961 . S
C1485 C1484 1.502 1_554 S
C1486 H1472 0.960 . S
C1486 H1473 0.961 . S
C1486 H1474 0.959 . S
C1486 C1484 1.561 1_554 S
C1487 C1484 1.526 . S
C1487 C1488 1.396 . S
C1487 C1492 1.390 1_556 S
C1488 C1482 1.465 . S
C1488 C1487 1.396 . S
C1488 C1489 1.399 . S
C1489 H1475 0.929 . S
C1489 C1488 1.399 . S
C1489 C1490 1.385 . S
C1490 H1476 0.931 . S
C1490 C1489 1.385 . S
C1490 C1491 1.389 . S
C1491 C1490 1.389 . S
C1491 C1492 1.387 1_556 S
C1492 H1477 0.930 . S
C1492 C1487 1.390 1_554 S
C1492 C1491 1.387 1_554 S
H1493 C1505 0.930 . S
H1494 C1507 0.930 . S
H1495 C1508 0.930 . S
H1496 C1512 0.959 . S
H1497 C1512 0.959 . S
H1498 C1512 0.961 . S
H1499 C1513 0.960 . S
H1500 C1513 0.961 . S
H1501 C1513 0.959 . S
H1502 C1516 0.929 . S
H1503 C1517 0.931 . S
H1504 C1519 0.930 . S
C1505 H1493 0.930 . S
C1505 C1506 1.399 . S
C1505 C1510 1.399 . S
C1506 C1505 1.399 . S
C1506 C1507 1.376 . S
C1507 H1494 0.930 . S
C1507 C1506 1.376 . S
C1507 C1508 1.388 . S
C1508 H1495 0.930 . S
C1508 C1507 1.388 . S
C1508 C1509 1.390 . S
C1509 C1508 1.390 . S
C1509 C1510 1.394 . S
C1509 C1515 1.465 . S
C1510 C1505 1.399 . S
C1510 C1509 1.394 . S
C1510 C1511 1.516 . S
C1511 C1510 1.516 . S
C1511 C1512 1.502 . S
C1511 C1513 1.561 . S
C1511 C1514 1.526 . S
C1512 H1496 0.959 . S
C1512 H1497 0.959 . S
C1512 H1498 0.961 . S
C1512 C1511 1.502 . S
C1513 H1499 0.960 . S
C1513 H1500 0.961 . S
C1513 H1501 0.959 . S
C1513 C1511 1.561 . S
C1514 C1511 1.526 . S
C1514 C1515 1.396 . S
C1514 C1519 1.390 . S
C1515 C1509 1.465 . S
C1515 C1514 1.396 . S
C1515 C1516 1.399 . S
C1516 H1502 0.929 . S
C1516 C1515 1.399 . S
C1516 C1517 1.385 . S
C1517 H1503 0.931 . S
C1517 C1516 1.385 . S
C1517 C1518 1.389 . S
C1518 C1517 1.389 . S
C1518 C1519 1.387 . S
C1519 H1504 0.930 . S
C1519 C1514 1.390 . S
C1519 C1518 1.387 . S
H1520 C1532 0.930 . S
H1521 C1534 0.930 . S
H1522 C1535 0.930 . S
H1523 C1539 0.959 . S
H1524 C1539 0.959 . S
H1525 C1539 0.961 . S
H1526 C1540 0.960 . S
H1527 C1540 0.961 . S
H1528 C1540 0.959 . S
H1529 C1543 0.929 . S
H1530 C1544 0.931 . S
H1531 C1546 0.930 . S
C1532 H1520 0.930 . S
C1532 C1533 1.399 . S
C1532 C1537 1.399 . S
C1533 C1532 1.399 . S
C1533 C1534 1.376 1_545 S
C1534 H1521 0.930 . S
C1534 C1533 1.376 1_565 S
C1534 C1535 1.388 . S
C1535 H1522 0.930 . S
C1535 C1534 1.388 . S
C1535 C1536 1.383 1_565 S
C1536 C1535 1.383 1_545 S
C1536 C1537 1.402 . S
C1536 C1542 1.465 1_545 S
C1537 C1532 1.399 . S
C1537 C1536 1.402 . S
C1537 C1538 1.516 . S
C1538 C1537 1.516 . S
C1538 C1539 1.502 . S
C1538 C1540 1.561 . S
C1538 C1541 1.526 . S
C1539 H1523 0.959 . S
C1539 H1524 0.959 . S
C1539 H1525 0.961 . S
C1539 C1538 1.502 . S
C1540 H1526 0.960 . S
C1540 H1527 0.961 . S
C1540 H1528 0.959 . S
C1540 C1538 1.561 . S
C1541 C1538 1.526 . S
C1541 C1542 1.396 1_545 S
C1541 C1546 1.390 . S
C1542 C1536 1.465 1_565 S
C1542 C1541 1.396 1_565 S
C1542 C1543 1.399 . S
C1543 H1529 0.929 . S
C1543 C1542 1.399 . S
C1543 C1544 1.385 . S
C1544 H1530 0.931 . S
C1544 C1543 1.385 . S
C1544 C1545 1.389 1_565 S
C1545 C1544 1.389 1_545 S
C1545 C1546 1.387 . S
C1546 H1531 0.930 . S
C1546 C1541 1.390 . S
C1546 C1545 1.387 . S
H1547 C1559 0.930 . S
H1548 C1561 0.930 . S
H1549 C1562 0.930 . S
H1550 C1566 0.959 . S
H1551 C1566 0.959 . S
H1552 C1566 0.961 . S
H1553 C1567 0.960 . S
H1554 C1567 0.961 . S
H1555 C1567 0.959 . S
H1556 C1570 0.929 . S
H1557 C1571 0.931 . S
H1558 C1573 0.930 . S
C1559 H1547 0.930 . S
C1559 C1560 1.399 . S
C1559 C1564 1.399 . S
C1560 C1559 1.399 . S
C1560 C1561 1.376 . S
C1561 H1548 0.930 . S
C1561 C1560 1.376 . S
C1561 C1562 1.388 . S
C1562 H1549 0.930 . S
C1562 C1561 1.388 . S
C1562 C1563 1.390 . S
C1563 C1562 1.390 . S
C1563 C1564 1.394 . S
C1563 C1569 1.465 . S
C1564 C1559 1.399 . S
C1564 C1563 1.394 . S
C1564 C1565 1.516 . S
C1565 C1564 1.516 . S
C1565 C1566 1.502 . S
C1565 C1567 1.561 . S
C1565 C1568 1.526 . S
C1566 H1550 0.959 . S
C1566 H1551 0.959 . S
C1566 H1552 0.961 . S
C1566 C1565 1.502 . S
C1567 H1553 0.960 . S
C1567 H1554 0.961 . S
C1567 H1555 0.959 . S
C1567 C1565 1.561 . S
C1568 C1565 1.526 . S
C1568 C1569 1.396 . S
C1568 C1573 1.390 . S
C1569 C1563 1.465 . S
C1569 C1568 1.396 . S
C1569 C1570 1.399 . S
C1570 H1556 0.929 . S
C1570 C1569 1.399 . S
C1570 C1571 1.385 . S
C1571 H1557 0.931 . S
C1571 C1570 1.385 . S
C1571 C1572 1.389 . S
C1572 C1571 1.389 . S
C1572 C1573 1.387 . S
C1573 H1558 0.930 . S
C1573 C1568 1.390 . S
C1573 C1572 1.387 . S
H1574 C1586 0.930 1_565 S
H1575 C1588 0.930 . S
H1576 C1589 0.930 . S
H1577 C1593 0.959 . S
H1578 C1593 0.959 . S
H1579 C1593 0.961 . S
H1580 C1594 0.960 . S
H1581 C1594 0.961 . S
H1582 C1594 0.959 . S
H1583 C1597 0.929 . S
H1584 C1598 0.931 . S
H1585 C1600 0.930 1_565 S
C1586 H1574 0.930 1_545 S
C1586 C1587 1.399 . S
C1586 C1591 1.399 . S
C1587 C1586 1.399 . S
C1587 C1588 1.376 . S
C1588 H1575 0.930 . S
C1588 C1587 1.376 . S
C1588 C1589 1.388 . S
C1589 H1576 0.930 . S
C1589 C1588 1.388 . S
C1589 C1590 1.390 . S
C1590 C1589 1.390 . S
C1590 C1591 1.394 . S
C1590 C1596 1.465 . S
C1591 C1586 1.399 . S
C1591 C1590 1.394 . S
C1591 C1592 1.516 1_545 S
C1592 C1591 1.516 1_565 S
C1592 C1593 1.502 . S
C1592 C1594 1.561 . S
C1592 C1595 1.526 1_565 S
C1593 H1577 0.959 . S
C1593 H1578 0.959 . S
C1593 H1579 0.961 . S
C1593 C1592 1.502 . S
C1594 H1580 0.960 . S
C1594 H1581 0.961 . S
C1594 H1582 0.959 . S
C1594 C1592 1.561 . S
C1595 C1592 1.526 1_545 S
C1595 C1596 1.396 . S
C1595 C1600 1.390 . S
C1596 C1590 1.465 . S
C1596 C1595 1.396 . S
C1596 C1597 1.399 . S
C1597 H1583 0.929 . S
C1597 C1596 1.399 . S
C1597 C1598 1.385 . S
C1598 H1584 0.931 . S
C1598 C1597 1.385 . S
C1598 C1599 1.389 . S
C1599 C1598 1.389 . S
C1599 C1600 1.387 . S
C1600 H1585 0.930 1_545 S
C1600 C1595 1.390 . S
C1600 C1599 1.387 . S
H1601 C1613 0.930 . S
H1602 C1615 0.930 . S
H1603 C1616 0.930 . S
H1604 C1620 0.959 . S
H1605 C1620 0.959 . S
H1606 C1620 0.961 . S
H1607 C1621 0.960 . S
H1608 C1621 0.961 . S
H1609 C1621 0.959 . S
H1610 C1624 0.929 . S
H1611 C1625 0.931 . S
H1612 C1627 0.930 . S
C1613 H1601 0.930 . S
C1613 C1614 1.399 . S
C1613 C1618 1.399 . S
C1614 C1613 1.399 . S
C1614 C1615 1.376 . S
C1615 H1602 0.930 . S
C1615 C1614 1.376 . S
C1615 C1616 1.388 . S
C1616 H1603 0.930 . S
C1616 C1615 1.388 . S
C1616 C1617 1.390 . S
C1617 C1616 1.390 . S
C1617 C1618 1.394 . S
C1617 C1623 1.465 . S
C1618 C1613 1.399 . S
C1618 C1617 1.394 . S
C1618 C1619 1.516 . S
C1619 C1618 1.516 . S
C1619 C1620 1.502 . S
C1619 C1621 1.561 . S
C1619 C1622 1.526 . S
C1620 H1604 0.959 . S
C1620 H1605 0.959 . S
C1620 H1606 0.961 . S
C1620 C1619 1.502 . S
C1621 H1607 0.960 . S
C1621 H1608 0.961 . S
C1621 H1609 0.959 . S
C1621 C1619 1.561 . S
C1622 C1619 1.526 . S
C1622 C1623 1.396 . S
C1622 C1627 1.390 . S
C1623 C1617 1.465 . S
C1623 C1622 1.396 . S
C1623 C1624 1.399 . S
C1624 H1610 0.929 . S
C1624 C1623 1.399 . S
C1624 C1625 1.385 . S
C1625 H1611 0.931 . S
C1625 C1624 1.385 . S
C1625 C1626 1.389 . S
C1626 C1625 1.389 . S
C1626 C1627 1.387 . S
C1627 H1612 0.930 . S
C1627 C1622 1.390 . S
C1627 C1626 1.387 . S
H1628 C1640 0.930 . S
H1629 C1642 0.930 . S
H1630 C1643 0.930 . S
H1631 C1647 0.959 . S
H1632 C1647 0.959 . S
H1633 C1647 0.961 . S
H1634 C1648 0.960 . S
H1635 C1648 0.961 . S
H1636 C1648 0.959 . S
H1637 C1651 0.929 . S
H1638 C1652 0.931 . S
H1639 C1654 0.930 . S
C1640 H1628 0.930 . S
C1640 C1641 1.399 . S
C1640 C1645 1.399 . S
C1641 C1640 1.399 . S
C1641 C1642 1.376 1_545 S
C1642 H1629 0.930 . S
C1642 C1641 1.376 1_565 S
C1642 C1643 1.388 . S
C1643 H1630 0.930 . S
C1643 C1642 1.388 . S
C1643 C1644 1.395 . S
C1644 C1643 1.395 . S
C1644 C1645 1.389 1_565 S
C1644 C1650 1.456 1_565 S
C1645 C1640 1.399 . S
C1645 C1644 1.389 1_545 S
C1645 C1646 1.516 . S
C1646 C1645 1.516 . S
C1646 C1647 1.502 . S
C1646 C1648 1.561 . S
C1646 C1649 1.526 . S
C1647 H1631 0.959 . S
C1647 H1632 0.959 . S
C1647 H1633 0.961 . S
C1647 C1646 1.502 . S
C1648 H1634 0.960 . S
C1648 H1635 0.961 . S
C1648 H1636 0.959 . S
C1648 C1646 1.561 . S
C1649 C1646 1.526 . S
C1649 C1650 1.438 . S
C1649 C1654 1.390 . S
C1650 C1644 1.456 1_545 S
C1650 C1649 1.438 . S
C1650 C1651 1.374 1_545 S
C1651 H1637 0.929 . S
C1651 C1650 1.374 1_565 S
C1651 C1652 1.385 . S
C1652 H1638 0.931 . S
C1652 C1651 1.385 . S
C1652 C1653 1.389 1_565 S
C1653 C1652 1.389 1_545 S
C1653 C1654 1.387 . S
C1654 H1639 0.930 . S
C1654 C1649 1.390 . S
C1654 C1653 1.387 . S
H1655 C1667 0.930 . S
H1656 C1669 0.930 . S
H1657 C1670 0.930 . S
H1658 C1674 0.959 . S
H1659 C1674 0.959 . S
H1660 C1674 0.961 . S
H1661 C1675 0.960 . S
H1662 C1675 0.961 . S
H1663 C1675 0.959 . S
H1664 C1678 0.929 . S
H1665 C1679 0.931 . S
H1666 C1681 0.930 . S
C1667 H1655 0.930 . S
C1667 C1668 1.399 . S
C1667 C1672 1.399 . S
C1668 C1667 1.399 . S
C1668 C1669 1.376 . S
C1669 H1656 0.930 . S
C1669 C1668 1.376 . S
C1669 C1670 1.388 . S
C1670 H1657 0.930 . S
C1670 C1669 1.388 . S
C1670 C1671 1.390 . S
C1671 C1670 1.390 . S
C1671 C1672 1.394 . S
C1671 C1677 1.465 . S
C1672 C1667 1.399 . S
C1672 C1671 1.394 . S
C1672 C1673 1.516 . S
C1673 C1672 1.516 . S
C1673 C1674 1.502 . S
C1673 C1675 1.561 . S
C1673 C1676 1.526 . S
C1674 H1658 0.959 . S
C1674 H1659 0.959 . S
C1674 H1660 0.961 . S
C1674 C1673 1.502 . S
C1675 H1661 0.960 . S
C1675 H1662 0.961 . S
C1675 H1663 0.959 . S
C1675 C1673 1.561 . S
C1676 C1673 1.526 . S
C1676 C1677 1.396 . S
C1676 C1681 1.390 . S
C1677 C1671 1.465 . S
C1677 C1676 1.396 . S
C1677 C1678 1.399 . S
C1678 H1664 0.929 . S
C1678 C1677 1.399 . S
C1678 C1679 1.385 . S
C1679 H1665 0.931 . S
C1679 C1678 1.385 . S
C1679 C1680 1.389 . S
C1680 C1679 1.389 . S
C1680 C1681 1.387 . S
C1681 H1666 0.930 . S
C1681 C1676 1.390 . S
C1681 C1680 1.387 . S
H1682 C1694 0.930 1_565 S
H1683 C1696 0.930 . S
H1684 C1697 0.930 . S
H1685 C1701 0.959 . S
H1686 C1701 0.959 . S
H1687 C1701 0.961 . S
H1688 C1702 0.960 . S
H1689 C1702 0.961 . S
H1690 C1702 0.959 . S
H1691 C1705 0.929 . S
H1692 C1706 0.931 . S
H1693 C1708 0.930 . S
C1694 H1682 0.930 1_545 S
C1694 C1695 1.399 . S
C1694 C1699 1.399 . S
C1695 C1694 1.399 . S
C1695 C1696 1.376 . S
C1696 H1683 0.930 . S
C1696 C1695 1.376 . S
C1696 C1697 1.388 . S
C1697 H1684 0.930 . S
C1697 C1696 1.388 . S
C1697 C1698 1.390 . S
C1698 C1697 1.390 . S
C1698 C1699 1.394 . S
C1698 C1704 1.465 . S
C1699 C1694 1.399 . S
C1699 C1698 1.394 . S
C1699 C1700 1.516 1_545 S
C1700 C1699 1.516 1_565 S
C1700 C1701 1.502 . S
C1700 C1702 1.561 . S
C1700 C1703 1.526 1_565 S
C1701 H1685 0.959 . S
C1701 H1686 0.959 . S
C1701 H1687 0.961 . S
C1701 C1700 1.502 . S
C1702 H1688 0.960 . S
C1702 H1689 0.961 . S
C1702 H1690 0.959 . S
C1702 C1700 1.561 . S
C1703 C1700 1.526 1_545 S
C1703 C1704 1.396 . S
C1703 C1708 1.390 1_545 S
C1704 C1698 1.465 . S
C1704 C1703 1.396 . S
C1704 C1705 1.399 . S
C1705 H1691 0.929 . S
C1705 C1704 1.399 . S
C1705 C1706 1.385 . S
C1706 H1692 0.931 . S
C1706 C1705 1.385 . S
C1706 C1707 1.389 . S
C1707 C1706 1.389 . S
C1707 C1708 1.387 1_545 S
C1708 H1693 0.930 . S
C1708 C1703 1.390 1_565 S
C1708 C1707 1.387 1_565 S
H1709 C1721 0.930 . S
H1710 C1723 0.930 . S
H1711 C1724 0.930 . S
H1712 C1728 0.959 . S
H1713 C1728 0.959 . S
H1714 C1728 0.961 . S
H1715 C1729 0.960 . S
H1716 C1729 0.961 . S
H1717 C1729 0.959 . S
H1718 C1732 0.929 . S
H1719 C1733 0.931 . S
H1720 C1735 0.930 . S
C1721 H1709 0.930 . S
C1721 C1722 1.399 . S
C1721 C1726 1.399 . S
C1722 C1721 1.399 . S
C1722 C1723 1.376 . S
C1723 H1710 0.930 . S
C1723 C1722 1.376 . S
C1723 C1724 1.388 . S
C1724 H1711 0.930 . S
C1724 C1723 1.388 . S
C1724 C1725 1.390 . S
C1725 C1724 1.390 . S
C1725 C1726 1.394 . S
C1725 C1731 1.465 . S
C1726 C1721 1.399 . S
C1726 C1725 1.394 . S
C1726 C1727 1.516 . S
C1727 C1726 1.516 . S
C1727 C1728 1.502 . S
C1727 C1729 1.561 . S
C1727 C1730 1.526 . S
C1728 H1712 0.959 . S
C1728 H1713 0.959 . S
C1728 H1714 0.961 . S
C1728 C1727 1.502 . S
C1729 H1715 0.960 . S
C1729 H1716 0.961 . S
C1729 H1717 0.959 . S
C1729 C1727 1.561 . S
C1730 C1727 1.526 . S
C1730 C1731 1.396 . S
C1730 C1735 1.390 . S
C1731 C1725 1.465 . S
C1731 C1730 1.396 . S
C1731 C1732 1.399 . S
C1732 H1718 0.929 . S
C1732 C1731 1.399 . S
C1732 C1733 1.385 . S
C1733 H1719 0.931 . S
C1733 C1732 1.385 . S
C1733 C1734 1.389 . S
C1734 C1733 1.389 . S
C1734 C1735 1.387 . S
C1735 H1720 0.930 . S
C1735 C1730 1.390 . S
C1735 C1734 1.387 . S
H1736 C1748 0.930 1_556 S
H1737 C1750 0.930 . S
H1738 C1751 0.930 . S
H1739 C1755 0.959 . S
H1740 C1755 0.959 . S
H1741 C1755 0.961 . S
H1742 C1756 0.960 . S
H1743 C1756 0.961 . S
H1744 C1756 0.959 . S
H1745 C1759 0.929 . S
H1746 C1760 0.931 . S
H1747 C1762 0.930 . S
C1748 H1736 0.930 1_554 S
C1748 C1749 1.399 . S
C1748 C1753 1.399 . S
C1749 C1748 1.399 . S
C1749 C1750 1.376 . S
C1750 H1737 0.930 . S
C1750 C1749 1.376 . S
C1750 C1751 1.388 . S
C1751 H1738 0.930 . S
C1751 C1750 1.388 . S
C1751 C1752 1.390 . S
C1752 C1751 1.390 . S
C1752 C1753 1.394 . S
C1752 C1758 1.465 . S
C1753 C1748 1.399 . S
C1753 C1752 1.394 . S
C1753 C1754 1.516 1_554 S
C1754 C1753 1.516 1_556 S
C1754 C1755 1.502 . S
C1754 C1756 1.561 . S
C1754 C1757 1.526 1_556 S
C1755 H1739 0.959 . S
C1755 H1740 0.959 . S
C1755 H1741 0.961 . S
C1755 C1754 1.502 . S
C1756 H1742 0.960 . S
C1756 H1743 0.961 . S
C1756 H1744 0.959 . S
C1756 C1754 1.561 . S
C1757 C1754 1.526 1_554 S
C1757 C1758 1.396 . S
C1757 C1762 1.390 1_554 S
C1758 C1752 1.465 . S
C1758 C1757 1.396 . S
C1758 C1759 1.399 . S
C1759 H1745 0.929 . S
C1759 C1758 1.399 . S
C1759 C1760 1.385 . S
C1760 H1746 0.931 . S
C1760 C1759 1.385 . S
C1760 C1761 1.389 . S
C1761 C1760 1.389 . S
C1761 C1762 1.387 1_554 S
C1762 H1747 0.930 . S
C1762 C1757 1.390 1_556 S
C1762 C1761 1.387 1_556 S
H1763 C1775 0.930 . S
H1764 C1777 0.930 . S
H1765 C1778 0.930 . S
H1766 C1782 0.959 1_554 S
H1767 C1782 0.959 . S
H1768 C1782 0.961 . S
H1769 C1783 0.960 . S
H1770 C1783 0.961 . S
H1771 C1783 0.959 . S
H1772 C1786 0.929 . S
H1773 C1787 0.931 . S
H1774 C1789 0.925 1_556 S
C1775 H1763 0.930 . S
C1775 C1776 1.399 . S
C1775 C1780 1.399 . S
C1776 C1775 1.399 . S
C1776 C1777 1.376 . S
C1777 H1764 0.930 . S
C1777 C1776 1.376 . S
C1777 C1778 1.388 . S
C1778 H1765 0.930 . S
C1778 C1777 1.388 . S
C1778 C1779 1.390 . S
C1779 C1778 1.390 . S
C1779 C1780 1.394 . S
C1779 C1785 1.465 . S
C1780 C1775 1.399 . S
C1780 C1779 1.394 . S
C1780 C1781 1.516 . S
C1781 C1780 1.516 . S
C1781 C1782 1.502 1_554 S
C1781 C1783 1.561 1_554 S
C1781 C1784 1.526 . S
C1782 H1766 0.959 1_556 S
C1782 H1767 0.959 . S
C1782 H1768 0.961 . S
C1782 C1781 1.502 1_556 S
C1783 H1769 0.960 . S
C1783 H1770 0.961 . S
C1783 H1771 0.959 . S
C1783 C1781 1.561 1_556 S
C1784 C1781 1.526 . S
C1784 C1785 1.396 . S
C1784 C1789 1.390 . S
C1785 C1779 1.465 . S
C1785 C1784 1.396 . S
C1785 C1786 1.399 . S
C1786 H1772 0.929 . S
C1786 C1785 1.399 . S
C1786 C1787 1.385 . S
C1787 H1773 0.931 . S
C1787 C1786 1.385 . S
C1787 C1788 1.389 . S
C1788 C1787 1.389 . S
C1788 C1789 1.387 . S
C1789 H1774 0.925 1_554 S
C1789 C1784 1.390 . S
C1789 C1788 1.387 . S
H1790 C1802 0.930 . S
H1791 C1804 0.930 . S
H1792 C1805 0.930 . S
H1793 C1809 0.959 . S
H1794 C1809 0.959 . S
H1795 C1809 0.961 . S
H1796 C1810 0.960 . S
H1797 C1810 0.961 . S
H1798 C1810 0.959 . S
H1799 C1813 0.929 . S
H1800 C1814 0.931 . S
H1801 C1816 0.930 . S
C1802 H1790 0.930 . S
C1802 C1803 1.399 . S
C1802 C1807 1.399 . S
C1803 C1802 1.399 . S
C1803 C1804 1.376 . S
C1804 H1791 0.930 . S
C1804 C1803 1.376 . S
C1804 C1805 1.388 . S
C1805 H1792 0.930 . S
C1805 C1804 1.388 . S
C1805 C1806 1.390 . S
C1806 C1805 1.390 . S
C1806 C1807 1.394 . S
C1806 C1812 1.465 . S
C1807 C1802 1.399 . S
C1807 C1806 1.394 . S
C1807 C1808 1.516 . S
C1808 C1807 1.516 . S
C1808 C1809 1.502 . S
C1808 C1810 1.561 . S
C1808 C1811 1.526 . S
C1809 H1793 0.959 . S
C1809 H1794 0.959 . S
C1809 H1795 0.961 . S
C1809 C1808 1.502 . S
C1810 H1796 0.960 . S
C1810 H1797 0.961 . S
C1810 H1798 0.959 . S
C1810 C1808 1.561 . S
C1811 C1808 1.526 . S
C1811 C1812 1.396 . S
C1811 C1816 1.390 . S
C1812 C1806 1.465 . S
C1812 C1811 1.396 . S
C1812 C1813 1.399 . S
C1813 H1799 0.929 . S
C1813 C1812 1.399 . S
C1813 C1814 1.385 . S
C1814 H1800 0.931 . S
C1814 C1813 1.385 . S
C1814 C1815 1.389 . S
C1815 C1814 1.389 . S
C1815 C1816 1.387 . S
C1816 H1801 0.930 . S
C1816 C1811 1.390 . S
C1816 C1815 1.387 . S
H1817 C1829 0.930 . S
H1818 C1831 0.930 . S
H1819 C1832 0.930 . S
H1820 C1836 0.959 . S
H1821 C1836 0.959 . S
H1822 C1836 0.961 . S
H1823 C1837 0.960 . S
H1824 C1837 0.961 . S
H1825 C1837 0.959 . S
H1826 C1840 0.929 . S
H1827 C1841 0.931 . S
H1828 C1843 0.930 . S
C1829 H1817 0.930 . S
C1829 C1830 1.399 . S
C1829 C1834 1.399 . S
C1830 C1829 1.399 . S
C1830 C1831 1.376 . S
C1831 H1818 0.930 . S
C1831 C1830 1.376 . S
C1831 C1832 1.388 . S
C1832 H1819 0.930 . S
C1832 C1831 1.388 . S
C1832 C1833 1.390 . S
C1833 C1832 1.390 . S
C1833 C1834 1.394 . S
C1833 C1839 1.465 . S
C1834 C1829 1.399 . S
C1834 C1833 1.394 . S
C1834 C1835 1.516 . S
C1835 C1834 1.516 . S
C1835 C1836 1.502 . S
C1835 C1837 1.561 . S
C1835 C1838 1.526 . S
C1836 H1820 0.959 . S
C1836 H1821 0.959 . S
C1836 H1822 0.961 . S
C1836 C1835 1.502 . S
C1837 H1823 0.960 . S
C1837 H1824 0.961 . S
C1837 H1825 0.959 . S
C1837 C1835 1.561 . S
C1838 C1835 1.526 . S
C1838 C1839 1.396 . S
C1838 C1843 1.390 . S
C1839 C1833 1.465 . S
C1839 C1838 1.396 . S
C1839 C1840 1.399 . S
C1840 H1826 0.929 . S
C1840 C1839 1.399 . S
C1840 C1841 1.385 . S
C1841 H1827 0.931 . S
C1841 C1840 1.385 . S
C1841 C1842 1.389 . S
C1842 C1841 1.389 . S
C1842 C1843 1.387 . S
C1843 H1828 0.930 . S
C1843 C1838 1.390 . S
C1843 C1842 1.387 . S
H1844 C1856 0.930 . S
H1845 C1858 0.930 . S
H1846 C1859 0.930 . S
H1847 C1863 0.959 . S
H1848 C1863 0.959 . S
H1849 C1863 0.961 . S
H1850 C1864 0.960 . S
H1851 C1864 0.961 . S
H1852 C1864 0.959 . S
H1853 C1867 0.929 . S
H1854 C1868 0.931 . S
H1855 C1870 0.930 . S
C1856 H1844 0.930 . S
C1856 C1857 1.399 . S
C1856 C1861 1.399 . S
C1857 C1856 1.399 . S
C1857 C1858 1.376 . S
C1858 H1845 0.930 . S
C1858 C1857 1.376 . S
C1858 C1859 1.388 . S
C1859 H1846 0.930 . S
C1859 C1858 1.388 . S
C1859 C1860 1.390 . S
C1860 C1859 1.390 . S
C1860 C1861 1.394 . S
C1860 C1866 1.465 . S
C1861 C1856 1.399 . S
C1861 C1860 1.394 . S
C1861 C1862 1.516 . S
C1862 C1861 1.516 . S
C1862 C1863 1.502 . S
C1862 C1864 1.561 . S
C1862 C1865 1.526 . S
C1863 H1847 0.959 . S
C1863 H1848 0.959 . S
C1863 H1849 0.961 . S
C1863 C1862 1.502 . S
C1864 H1850 0.960 . S
C1864 H1851 0.961 . S
C1864 H1852 0.959 . S
C1864 C1862 1.561 . S
C1865 C1862 1.526 . S
C1865 C1866 1.396 . S
C1865 C1870 1.390 . S
C1866 C1860 1.465 . S
C1866 C1865 1.396 . S
C1866 C1867 1.399 . S
C1867 H1853 0.929 . S
C1867 C1866 1.399 . S
C1867 C1868 1.385 . S
C1868 H1854 0.931 . S
C1868 C1867 1.385 . S
C1868 C1869 1.389 . S
C1869 C1868 1.389 . S
C1869 C1870 1.387 . S
C1870 H1855 0.930 . S
C1870 C1865 1.390 . S
C1870 C1869 1.387 . S
H1871 C1883 0.930 . S
H1872 C1885 0.930 . S
H1873 C1886 0.930 . S
H1874 C1890 0.959 . S
H1875 C1890 0.959 . S
H1876 C1890 0.961 . S
H1877 C1891 0.960 . S
H1878 C1891 0.961 . S
H1879 C1891 0.959 . S
H1880 C1894 0.929 . S
H1881 C1895 0.931 . S
H1882 C1897 0.930 . S
C1883 H1871 0.930 . S
C1883 C1884 1.399 . S
C1883 C1888 1.399 . S
C1884 C1883 1.399 . S
C1884 C1885 1.376 . S
C1885 H1872 0.930 . S
C1885 C1884 1.376 . S
C1885 C1886 1.388 . S
C1886 H1873 0.930 . S
C1886 C1885 1.388 . S
C1886 C1887 1.390 . S
C1887 C1886 1.390 . S
C1887 C1888 1.394 . S
C1887 C1893 1.465 . S
C1888 C1883 1.399 . S
C1888 C1887 1.394 . S
C1888 C1889 1.516 . S
C1889 C1888 1.516 . S
C1889 C1890 1.502 . S
C1889 C1891 1.561 . S
C1889 C1892 1.526 . S
C1890 H1874 0.959 . S
C1890 H1875 0.959 . S
C1890 H1876 0.961 . S
C1890 C1889 1.502 . S
C1891 H1877 0.960 . S
C1891 H1878 0.961 . S
C1891 H1879 0.959 . S
C1891 C1889 1.561 . S
C1892 C1889 1.526 . S
C1892 C1893 1.396 . S
C1892 C1897 1.390 . S
C1893 C1887 1.465 . S
C1893 C1892 1.396 . S
C1893 C1894 1.399 . S
C1894 H1880 0.929 . S
C1894 C1893 1.399 . S
C1894 C1895 1.385 . S
C1895 H1881 0.931 . S
C1895 C1894 1.385 . S
C1895 C1896 1.389 . S
C1896 C1895 1.389 . S
C1896 C1897 1.387 . S
C1897 H1882 0.930 . S
C1897 C1892 1.390 . S
C1897 C1896 1.387 . S
H1898 C1910 0.930 . S
H1899 C1912 0.930 . S
H1900 C1913 0.930 . S
H1901 C1917 0.959 . S
H1902 C1917 0.959 . S
H1903 C1917 0.961 . S
H1904 C1918 0.960 . S
H1905 C1918 0.961 . S
H1906 C1918 0.959 . S
H1907 C1921 0.929 . S
H1908 C1922 0.931 . S
H1909 C1924 0.930 . S
C1910 H1898 0.930 . S
C1910 C1911 1.399 . S
C1910 C1915 1.399 . S
C1911 C1910 1.399 . S
C1911 C1912 1.376 . S
C1912 H1899 0.930 . S
C1912 C1911 1.376 . S
C1912 C1913 1.388 . S
C1913 H1900 0.930 . S
C1913 C1912 1.388 . S
C1913 C1914 1.390 . S
C1914 C1913 1.390 . S
C1914 C1915 1.394 . S
C1914 C1920 1.465 . S
C1915 C1910 1.399 . S
C1915 C1914 1.394 . S
C1915 C1916 1.516 . S
C1916 C1915 1.516 . S
C1916 C1917 1.502 . S
C1916 C1918 1.561 . S
C1916 C1919 1.526 . S
C1917 H1901 0.959 . S
C1917 H1902 0.959 . S
C1917 H1903 0.961 . S
C1917 C1916 1.502 . S
C1918 H1904 0.960 . S
C1918 H1905 0.961 . S
C1918 H1906 0.959 . S
C1918 C1916 1.561 . S
C1919 C1916 1.526 . S
C1919 C1920 1.396 . S
C1919 C1924 1.390 . S
C1920 C1914 1.465 . S
C1920 C1919 1.396 . S
C1920 C1921 1.399 . S
C1921 H1907 0.929 . S
C1921 C1920 1.399 . S
C1921 C1922 1.385 . S
C1922 H1908 0.931 . S
C1922 C1921 1.385 . S
C1922 C1923 1.389 . S
C1923 C1922 1.389 . S
C1923 C1924 1.387 . S
C1924 H1909 0.930 . S
C1924 C1919 1.390 . S
C1924 C1923 1.387 . S
H1925 C1937 0.930 . S
H1926 C1939 0.930 . S
H1927 C1940 0.930 . S
H1928 C1944 0.959 . S
H1929 C1944 0.959 . S
H1930 C1944 0.961 . S
H1931 C1945 0.960 . S
H1932 C1945 0.961 . S
H1933 C1945 0.959 . S
H1934 C1948 0.929 . S
H1935 C1949 0.931 . S
H1936 C1951 0.930 . S
C1937 H1925 0.930 . S
C1937 C1938 1.399 . S
C1937 C1942 1.399 . S
C1938 C1937 1.399 . S
C1938 C1939 1.376 . S
C1939 H1926 0.930 . S
C1939 C1938 1.376 . S
C1939 C1940 1.388 . S
C1940 H1927 0.930 . S
C1940 C1939 1.388 . S
C1940 C1941 1.390 . S
C1941 C1940 1.390 . S
C1941 C1942 1.394 . S
C1941 C1947 1.465 . S
C1942 C1937 1.399 . S
C1942 C1941 1.394 . S
C1942 C1943 1.516 . S
C1943 C1942 1.516 . S
C1943 C1944 1.502 . S
C1943 C1945 1.561 . S
C1943 C1946 1.526 . S
C1944 H1928 0.959 . S
C1944 H1929 0.959 . S
C1944 H1930 0.961 . S
C1944 C1943 1.502 . S
C1945 H1931 0.960 . S
C1945 H1932 0.961 . S
C1945 H1933 0.959 . S
C1945 C1943 1.561 . S
C1946 C1943 1.526 . S
C1946 C1947 1.396 . S
C1946 C1951 1.390 . S
C1947 C1941 1.465 . S
C1947 C1946 1.396 . S
C1947 C1948 1.399 . S
C1948 H1934 0.929 . S
C1948 C1947 1.399 . S
C1948 C1949 1.385 . S
C1949 H1935 0.931 . S
C1949 C1948 1.385 . S
C1949 C1950 1.389 . S
C1950 C1949 1.389 . S
C1950 C1951 1.387 . S
C1951 H1936 0.930 . S
C1951 C1946 1.390 . S
C1951 C1950 1.387 . S
H1952 C1964 0.930 . S
H1953 C1966 0.930 . S
H1954 C1967 0.930 . S
H1955 C1971 0.959 . S
H1956 C1971 0.959 . S
H1957 C1971 0.961 . S
H1958 C1972 0.960 . S
H1959 C1972 0.961 . S
H1960 C1972 0.959 . S
H1961 C1975 0.929 . S
H1962 C1976 0.931 . S
H1963 C1978 0.930 . S
C1964 H1952 0.930 . S
C1964 C1965 1.399 . S
C1964 C1969 1.399 . S
C1965 C1964 1.399 . S
C1965 C1966 1.376 . S
C1966 H1953 0.930 . S
C1966 C1965 1.376 . S
C1966 C1967 1.388 . S
C1967 H1954 0.930 . S
C1967 C1966 1.388 . S
C1967 C1968 1.390 . S
C1968 C1967 1.390 . S
C1968 C1969 1.394 . S
C1968 C1974 1.465 . S
C1969 C1964 1.399 . S
C1969 C1968 1.394 . S
C1969 C1970 1.516 . S
C1970 C1969 1.516 . S
C1970 C1971 1.502 . S
C1970 C1972 1.561 . S
C1970 C1973 1.526 . S
C1971 H1955 0.959 . S
C1971 H1956 0.959 . S
C1971 H1957 0.961 . S
C1971 C1970 1.502 . S
C1972 H1958 0.960 . S
C1972 H1959 0.961 . S
C1972 H1960 0.959 . S
C1972 C1970 1.561 . S
C1973 C1970 1.526 . S
C1973 C1974 1.396 . S
C1973 C1978 1.390 . S
C1974 C1968 1.465 . S
C1974 C1973 1.396 . S
C1974 C1975 1.399 . S
C1975 H1961 0.929 . S
C1975 C1974 1.399 . S
C1975 C1976 1.385 . S
C1976 H1962 0.931 . S
C1976 C1975 1.385 . S
C1976 C1977 1.389 . S
C1977 C1976 1.389 . S
C1977 C1978 1.387 . S
C1978 H1963 0.930 . S
C1978 C1973 1.390 . S
C1978 C1977 1.387 . S
H1979 C1991 0.930 . S
H1980 C1993 0.930 . S
H1981 C1994 0.930 . S
H1982 C1998 0.959 . S
H1983 C1998 0.959 . S
H1984 C1998 0.961 . S
H1985 C1999 0.960 . S
H1986 C1999 0.961 . S
H1987 C1999 0.959 . S
H1988 C2002 0.929 . S
H1989 C2003 0.931 . S
H1990 C2005 0.930 . S
C1991 H1979 0.930 . S
C1991 C1992 1.399 . S
C1991 C1996 1.399 . S
C1992 C1991 1.399 . S
C1992 C1993 1.376 . S
C1993 H1980 0.930 . S
C1993 C1992 1.376 . S
C1993 C1994 1.388 . S
C1994 H1981 0.930 . S
C1994 C1993 1.388 . S
C1994 C1995 1.390 . S
C1995 C1994 1.390 . S
C1995 C1996 1.394 . S
C1995 C2001 1.465 . S
C1996 C1991 1.399 . S
C1996 C1995 1.394 . S
C1996 C1997 1.516 . S
C1997 C1996 1.516 . S
C1997 C1998 1.502 . S
C1997 C1999 1.561 . S
C1997 C2000 1.526 . S
C1998 H1982 0.959 . S
C1998 H1983 0.959 . S
C1998 H1984 0.961 . S
C1998 C1997 1.502 . S
C1999 H1985 0.960 . S
C1999 H1986 0.961 . S
C1999 H1987 0.959 . S
C1999 C1997 1.561 . S
C2000 C1997 1.526 . S
C2000 C2001 1.396 . S
C2000 C2005 1.390 . S
C2001 C1995 1.465 . S
C2001 C2000 1.396 . S
C2001 C2002 1.399 . S
C2002 H1988 0.929 . S
C2002 C2001 1.399 . S
C2002 C2003 1.385 . S
C2003 H1989 0.931 . S
C2003 C2002 1.385 . S
C2003 C2004 1.389 . S
C2004 C2003 1.389 . S
C2004 C2005 1.387 . S
C2005 H1990 0.930 . S
C2005 C2000 1.390 . S
C2005 C2004 1.387 . S
H2006 C2018 0.930 . S
H2007 C2020 0.930 . S
H2008 C2021 0.930 . S
H2009 C2025 0.959 . S
H2010 C2025 0.959 . S
H2011 C2025 0.961 . S
H2012 C2026 0.960 . S
H2013 C2026 0.961 . S
H2014 C2026 0.959 1_455 S
H2015 C2029 0.929 . S
H2016 C2030 0.931 . S
H2017 C2032 0.930 1_554 S
C2018 H2006 0.930 . S
C2018 C2019 1.399 1_655 S
C2018 C2023 1.399 . S
C2019 C2018 1.399 1_455 S
C2019 C2020 1.376 . S
C2020 H2007 0.930 . S
C2020 C2019 1.376 . S
C2020 C2021 1.388 . S
C2021 H2008 0.930 . S
C2021 C2020 1.388 . S
C2021 C2022 1.390 . S
C2022 C2021 1.390 . S
C2022 C2023 1.394 1_455 S
C2022 C2028 1.465 . S
C2023 C2018 1.399 . S
C2023 C2022 1.394 1_655 S
C2023 C2024 1.516 . S
C2024 C2023 1.516 . S
C2024 C2025 1.502 . S
C2024 C2026 1.561 1_556 S
C2024 C2027 1.526 . S
C2025 H2009 0.959 . S
C2025 H2010 0.959 . S
C2025 H2011 0.961 . S
C2025 C2024 1.502 . S
C2026 H2012 0.960 . S
C2026 H2013 0.961 . S
C2026 H2014 0.959 1_655 S
C2026 C2024 1.561 1_554 S
C2027 C2024 1.526 . S
C2027 C2028 1.396 1_655 S
C2027 C2032 1.390 . S
C2028 C2022 1.465 . S
C2028 C2027 1.396 1_455 S
C2028 C2029 1.399 . S
C2029 H2015 0.929 . S
C2029 C2028 1.399 . S
C2029 C2030 1.385 . S
C2030 H2016 0.931 . S
C2030 C2029 1.385 . S
C2030 C2031 1.389 . S
C2031 C2030 1.389 . S
C2031 C2032 1.387 1_455 S
C2032 H2017 0.930 1_556 S
C2032 C2027 1.390 . S
C2032 C2031 1.387 1_655 S
H2033 C2045 0.930 . S
H2034 C2047 0.930 . S
H2035 C2048 0.930 . S
H2036 C2052 0.959 . S
H2037 C2052 0.959 . S
H2038 C2052 0.961 . S
H2039 C2053 0.960 . S
H2040 C2053 0.961 . S
H2041 C2053 0.959 . S
H2042 C2056 0.929 . S
H2043 C2057 0.931 . S
H2044 C2059 0.930 . S
C2045 H2033 0.930 . S
C2045 C2046 1.399 . S
C2045 C2050 1.399 . S
C2046 C2045 1.399 . S
C2046 C2047 1.376 . S
C2047 H2034 0.930 . S
C2047 C2046 1.376 . S
C2047 C2048 1.388 . S
C2048 H2035 0.930 . S
C2048 C2047 1.388 . S
C2048 C2049 1.390 . S
C2049 C2048 1.390 . S
C2049 C2050 1.394 . S
C2049 C2055 1.465 . S
C2050 C2045 1.399 . S
C2050 C2049 1.394 . S
C2050 C2051 1.516 . S
C2051 C2050 1.516 . S
C2051 C2052 1.502 . S
C2051 C2053 1.561 . S
C2051 C2054 1.526 . S
C2052 H2036 0.959 . S
C2052 H2037 0.959 . S
C2052 H2038 0.961 . S
C2052 C2051 1.502 . S
C2053 H2039 0.960 . S
C2053 H2040 0.961 . S
C2053 H2041 0.959 . S
C2053 C2051 1.561 . S
C2054 C2051 1.526 . S
C2054 C2055 1.396 . S
C2054 C2059 1.390 . S
C2055 C2049 1.465 . S
C2055 C2054 1.396 . S
C2055 C2056 1.399 . S
C2056 H2042 0.929 . S
C2056 C2055 1.399 . S
C2056 C2057 1.385 . S
C2057 H2043 0.931 . S
C2057 C2056 1.385 . S
C2057 C2058 1.389 . S
C2058 C2057 1.389 . S
C2058 C2059 1.387 . S
C2059 H2044 0.930 . S
C2059 C2054 1.390 . S
C2059 C2058 1.387 . S
H2060 C2072 0.930 . S
H2061 C2074 0.930 . S
H2062 C2075 0.930 . S
H2063 C2079 0.959 . S
H2064 C2079 0.959 . S
H2065 C2079 0.961 . S
H2066 C2080 0.960 . S
H2067 C2080 0.961 . S
H2068 C2080 0.959 . S
H2069 C2083 0.929 . S
H2070 C2084 0.931 . S
H2071 C2086 0.930 . S
C2072 H2060 0.930 . S
C2072 C2073 1.399 . S
C2072 C2077 1.399 . S
C2073 C2072 1.399 . S
C2073 C2074 1.376 . S
C2074 H2061 0.930 . S
C2074 C2073 1.376 . S
C2074 C2075 1.388 . S
C2075 H2062 0.930 . S
C2075 C2074 1.388 . S
C2075 C2076 1.390 . S
C2076 C2075 1.390 . S
C2076 C2077 1.394 . S
C2076 C2082 1.465 . S
C2077 C2072 1.399 . S
C2077 C2076 1.394 . S
C2077 C2078 1.516 . S
C2078 C2077 1.516 . S
C2078 C2079 1.502 . S
C2078 C2080 1.561 . S
C2078 C2081 1.526 . S
C2079 H2063 0.959 . S
C2079 H2064 0.959 . S
C2079 H2065 0.961 . S
C2079 C2078 1.502 . S
C2080 H2066 0.960 . S
C2080 H2067 0.961 . S
C2080 H2068 0.959 . S
C2080 C2078 1.561 . S
C2081 C2078 1.526 . S
C2081 C2082 1.396 . S
C2081 C2086 1.390 . S
C2082 C2076 1.465 . S
C2082 C2081 1.396 . S
C2082 C2083 1.399 . S
C2083 H2069 0.929 . S
C2083 C2082 1.399 . S
C2083 C2084 1.385 . S
C2084 H2070 0.931 . S
C2084 C2083 1.385 . S
C2084 C2085 1.389 . S
C2085 C2084 1.389 . S
C2085 C2086 1.387 . S
C2086 H2071 0.930 . S
C2086 C2081 1.390 . S
C2086 C2085 1.387 . S
H2087 C2099 0.930 . S
H2088 C2101 0.930 . S
H2089 C2102 0.930 . S
H2090 C2106 0.959 . S
H2091 C2106 0.959 . S
H2092 C2106 0.961 . S
H2093 C2107 0.960 . S
H2094 C2107 0.961 . S
H2095 C2107 0.959 . S
H2096 C2110 0.929 . S
H2097 C2111 0.931 . S
H2098 C2113 0.930 . S
C2099 H2087 0.930 . S
C2099 C2100 1.399 . S
C2099 C2104 1.399 . S
C2100 C2099 1.399 . S
C2100 C2101 1.376 . S
C2101 H2088 0.930 . S
C2101 C2100 1.376 . S
C2101 C2102 1.388 . S
C2102 H2089 0.930 . S
C2102 C2101 1.388 . S
C2102 C2103 1.390 . S
C2103 C2102 1.390 . S
C2103 C2104 1.394 . S
C2103 C2109 1.465 . S
C2104 C2099 1.399 . S
C2104 C2103 1.394 . S
C2104 C2105 1.516 . S
C2105 C2104 1.516 . S
C2105 C2106 1.502 . S
C2105 C2107 1.561 . S
C2105 C2108 1.526 . S
C2106 H2090 0.959 . S
C2106 H2091 0.959 . S
C2106 H2092 0.961 . S
C2106 C2105 1.502 . S
C2107 H2093 0.960 . S
C2107 H2094 0.961 . S
C2107 H2095 0.959 . S
C2107 C2105 1.561 . S
C2108 C2105 1.526 . S
C2108 C2109 1.396 . S
C2108 C2113 1.390 . S
C2109 C2103 1.465 . S
C2109 C2108 1.396 . S
C2109 C2110 1.399 . S
C2110 H2096 0.929 . S
C2110 C2109 1.399 . S
C2110 C2111 1.385 . S
C2111 H2097 0.931 . S
C2111 C2110 1.385 . S
C2111 C2112 1.389 . S
C2112 C2111 1.389 . S
C2112 C2113 1.387 . S
C2113 H2098 0.930 . S
C2113 C2108 1.390 . S
C2113 C2112 1.387 . S
H2114 C2126 0.930 . S
H2115 C2128 0.930 . S
H2116 C2129 0.930 . S
H2117 C2133 0.959 . S
H2118 C2133 0.959 . S
H2119 C2133 0.961 . S
H2120 C2134 0.960 . S
H2121 C2134 0.961 . S
H2122 C2134 0.959 . S
H2123 C2137 0.929 . S
H2124 C2138 0.931 . S
H2125 C2140 0.930 . S
C2126 H2114 0.930 . S
C2126 C2127 1.399 1_655 S
C2126 C2131 1.399 . S
C2127 C2126 1.399 1_455 S
C2127 C2128 1.376 . S
C2128 H2115 0.930 . S
C2128 C2127 1.376 . S
C2128 C2129 1.388 . S
C2129 H2116 0.930 . S
C2129 C2128 1.388 . S
C2129 C2130 1.390 . S
C2130 C2129 1.390 . S
C2130 C2131 1.394 1_455 S
C2130 C2136 1.465 . S
C2131 C2126 1.399 . S
C2131 C2130 1.394 1_655 S
C2131 C2132 1.516 . S
C2132 C2131 1.516 . S
C2132 C2133 1.502 . S
C2132 C2134 1.561 1_655 S
C2132 C2135 1.541 . S
C2133 H2117 0.959 . S
C2133 H2118 0.959 . S
C2133 H2119 0.961 . S
C2133 C2132 1.502 . S
C2134 H2120 0.960 . S
C2134 H2121 0.961 . S
C2134 H2122 0.959 . S
C2134 C2132 1.561 1_455 S
C2135 C2132 1.541 . S
C2135 C2136 1.385 1_655 S
C2135 C2140 1.385 . S
C2136 C2130 1.465 . S
C2136 C2135 1.385 1_455 S
C2136 C2137 1.399 . S
C2137 H2123 0.929 . S
C2137 C2136 1.399 . S
C2137 C2138 1.385 . S
C2138 H2124 0.931 . S
C2138 C2137 1.385 . S
C2138 C2139 1.389 . S
C2139 C2138 1.389 . S
C2139 C2140 1.387 1_455 S
C2140 H2125 0.930 . S
C2140 C2135 1.385 . S
C2140 C2139 1.387 1_655 S
H2141 C2153 0.930 . S
H2142 C2155 0.930 . S
H2143 C2156 0.930 . S
H2144 C2160 0.959 . S
H2145 C2160 0.959 . S
H2146 C2160 0.961 . S
H2147 C2161 0.960 . S
H2148 C2161 0.961 . S
H2149 C2161 0.959 . S
H2150 C2164 0.929 . S
H2151 C2165 0.931 . S
H2152 C2167 0.930 . S
C2153 H2141 0.930 . S
C2153 C2154 1.399 . S
C2153 C2158 1.399 . S
C2154 C2153 1.399 . S
C2154 C2155 1.376 . S
C2155 H2142 0.930 . S
C2155 C2154 1.376 . S
C2155 C2156 1.388 . S
C2156 H2143 0.930 . S
C2156 C2155 1.388 . S
C2156 C2157 1.390 . S
C2157 C2156 1.390 . S
C2157 C2158 1.394 . S
C2157 C2163 1.465 . S
C2158 C2153 1.399 . S
C2158 C2157 1.394 . S
C2158 C2159 1.516 . S
C2159 C2158 1.516 . S
C2159 C2160 1.502 . S
C2159 C2161 1.561 . S
C2159 C2162 1.526 . S
C2160 H2144 0.959 . S
C2160 H2145 0.959 . S
C2160 H2146 0.961 . S
C2160 C2159 1.502 . S
C2161 H2147 0.960 . S
C2161 H2148 0.961 . S
C2161 H2149 0.959 . S
C2161 C2159 1.561 . S
C2162 C2159 1.526 . S
C2162 C2163 1.396 . S
C2162 C2167 1.390 . S
C2163 C2157 1.465 . S
C2163 C2162 1.396 . S
C2163 C2164 1.399 . S
C2164 H2150 0.929 . S
C2164 C2163 1.399 . S
C2164 C2165 1.385 . S
C2165 H2151 0.931 . S
C2165 C2164 1.385 . S
C2165 C2166 1.389 . S
C2166 C2165 1.389 . S
C2166 C2167 1.387 . S
C2167 H2152 0.930 . S
C2167 C2162 1.390 . S
C2167 C2166 1.387 . S
H2168 C2180 0.930 . S
H2169 C2182 0.930 . S
H2170 C2183 0.930 . S
H2171 C2187 0.959 . S
H2172 C2187 0.959 . S
H2173 C2187 0.961 . S
H2174 C2188 0.960 . S
H2175 C2188 0.961 . S
H2176 C2188 0.959 . S
H2177 C2191 0.929 . S
H2178 C2192 0.931 . S
H2179 C2194 0.930 . S
C2180 H2168 0.930 . S
C2180 C2181 1.399 . S
C2180 C2185 1.399 . S
C2181 C2180 1.399 . S
C2181 C2182 1.376 . S
C2182 H2169 0.930 . S
C2182 C2181 1.376 . S
C2182 C2183 1.388 . S
C2183 H2170 0.930 . S
C2183 C2182 1.388 . S
C2183 C2184 1.390 . S
C2184 C2183 1.390 . S
C2184 C2185 1.394 . S
C2184 C2190 1.465 . S
C2185 C2180 1.399 . S
C2185 C2184 1.394 . S
C2185 C2186 1.516 . S
C2186 C2185 1.516 . S
C2186 C2187 1.502 . S
C2186 C2188 1.561 . S
C2186 C2189 1.526 . S
C2187 H2171 0.959 . S
C2187 H2172 0.959 . S
C2187 H2173 0.961 . S
C2187 C2186 1.502 . S
C2188 H2174 0.960 . S
C2188 H2175 0.961 . S
C2188 H2176 0.959 . S
C2188 C2186 1.561 . S
C2189 C2186 1.526 . S
C2189 C2190 1.396 . S
C2189 C2194 1.390 . S
C2190 C2184 1.465 . S
C2190 C2189 1.396 . S
C2190 C2191 1.399 . S
C2191 H2177 0.929 . S
C2191 C2190 1.399 . S
C2191 C2192 1.385 . S
C2192 H2178 0.931 . S
C2192 C2191 1.385 . S
C2192 C2193 1.389 . S
C2193 C2192 1.389 . S
C2193 C2194 1.387 . S
C2194 H2179 0.930 . S
C2194 C2189 1.390 . S
C2194 C2193 1.387 . S
H2195 C2207 0.930 . S
H2196 C2209 0.930 . S
H2197 C2210 0.930 . S
H2198 C2214 0.959 . S
H2199 C2214 0.959 . S
H2200 C2214 0.961 . S
H2201 C2215 0.960 . S
H2202 C2215 0.961 . S
H2203 C2215 0.959 . S
H2204 C2218 0.929 . S
H2205 C2219 0.931 . S
H2206 C2221 0.930 . S
C2207 H2195 0.930 . S
C2207 C2208 1.399 . S
C2207 C2212 1.399 . S
C2208 C2207 1.399 . S
C2208 C2209 1.376 . S
C2209 H2196 0.930 . S
C2209 C2208 1.376 . S
C2209 C2210 1.388 . S
C2210 H2197 0.930 . S
C2210 C2209 1.388 . S
C2210 C2211 1.390 . S
C2211 C2210 1.390 . S
C2211 C2212 1.394 . S
C2211 C2217 1.465 . S
C2212 C2207 1.399 . S
C2212 C2211 1.394 . S
C2212 C2213 1.516 . S
C2213 C2212 1.516 . S
C2213 C2214 1.502 . S
C2213 C2215 1.561 . S
C2213 C2216 1.526 . S
C2214 H2198 0.959 . S
C2214 H2199 0.959 . S
C2214 H2200 0.961 . S
C2214 C2213 1.502 . S
C2215 H2201 0.960 . S
C2215 H2202 0.961 . S
C2215 H2203 0.959 . S
C2215 C2213 1.561 . S
C2216 C2213 1.526 . S
C2216 C2217 1.396 . S
C2216 C2221 1.390 . S
C2217 C2211 1.465 . S
C2217 C2216 1.396 . S
C2217 C2218 1.399 . S
C2218 H2204 0.929 . S
C2218 C2217 1.399 . S
C2218 C2219 1.385 . S
C2219 H2205 0.931 . S
C2219 C2218 1.385 . S
C2219 C2220 1.389 . S
C2220 C2219 1.389 . S
C2220 C2221 1.387 . S
C2221 H2206 0.930 . S
C2221 C2216 1.390 . S
C2221 C2220 1.387 . S
H2222 C2234 0.930 . S
H2223 C2236 0.930 . S
H2224 C2237 0.930 . S
H2225 C2241 0.959 . S
H2226 C2241 0.959 . S
H2227 C2241 0.961 . S
H2228 C2242 0.960 . S
H2229 C2242 0.961 . S
H2230 C2242 0.959 . S
H2231 C2245 0.929 . S
H2232 C2246 0.931 . S
H2233 C2248 0.930 . S
C2234 H2222 0.930 . S
C2234 C2235 1.399 . S
C2234 C2239 1.399 . S
C2235 C2234 1.399 . S
C2235 C2236 1.376 . S
C2236 H2223 0.930 . S
C2236 C2235 1.376 . S
C2236 C2237 1.388 . S
C2237 H2224 0.930 . S
C2237 C2236 1.388 . S
C2237 C2238 1.390 . S
C2238 C2237 1.390 . S
C2238 C2239 1.394 . S
C2238 C2244 1.465 . S
C2239 C2234 1.399 . S
C2239 C2238 1.394 . S
C2239 C2240 1.516 . S
C2240 C2239 1.516 . S
C2240 C2241 1.502 . S
C2240 C2242 1.561 . S
C2240 C2243 1.526 . S
C2241 H2225 0.959 . S
C2241 H2226 0.959 . S
C2241 H2227 0.961 . S
C2241 C2240 1.502 . S
C2242 H2228 0.960 . S
C2242 H2229 0.961 . S
C2242 H2230 0.959 . S
C2242 C2240 1.561 . S
C2243 C2240 1.526 . S
C2243 C2244 1.396 . S
C2243 C2248 1.390 . S
C2244 C2238 1.465 . S
C2244 C2243 1.396 . S
C2244 C2245 1.399 . S
C2245 H2231 0.929 . S
C2245 C2244 1.399 . S
C2245 C2246 1.385 . S
C2246 H2232 0.931 . S
C2246 C2245 1.385 . S
C2246 C2247 1.389 . S
C2247 C2246 1.389 . S
C2247 C2248 1.387 . S
C2248 H2233 0.930 . S
C2248 C2243 1.390 . S
C2248 C2247 1.387 . S
H2249 C2261 0.930 . S
H2250 C2263 0.930 . S
H2251 C2264 0.930 . S
H2252 C2268 0.959 . S
H2253 C2268 0.959 . S
H2254 C2268 0.961 . S
H2255 C2269 0.960 . S
H2256 C2269 0.961 . S
H2257 C2269 0.959 . S
H2258 C2272 0.929 . S
H2259 C2273 0.931 . S
H2260 C2275 0.930 . S
C2261 H2249 0.930 . S
C2261 C2262 1.399 . S
C2261 C2266 1.399 . S
C2262 C2261 1.399 . S
C2262 C2263 1.376 . S
C2263 H2250 0.930 . S
C2263 C2262 1.376 . S
C2263 C2264 1.388 . S
C2264 H2251 0.930 . S
C2264 C2263 1.388 . S
C2264 C2265 1.390 . S
C2265 C2264 1.390 . S
C2265 C2266 1.394 . S
C2265 C2271 1.465 . S
C2266 C2261 1.399 . S
C2266 C2265 1.394 . S
C2266 C2267 1.516 . S
C2267 C2266 1.516 . S
C2267 C2268 1.502 . S
C2267 C2269 1.561 . S
C2267 C2270 1.526 . S
C2268 H2252 0.959 . S
C2268 H2253 0.959 . S
C2268 H2254 0.961 . S
C2268 C2267 1.502 . S
C2269 H2255 0.960 . S
C2269 H2256 0.961 . S
C2269 H2257 0.959 . S
C2269 C2267 1.561 . S
C2270 C2267 1.526 . S
C2270 C2271 1.396 . S
C2270 C2275 1.390 . S
C2271 C2265 1.465 . S
C2271 C2270 1.396 . S
C2271 C2272 1.399 . S
C2272 H2258 0.929 . S
C2272 C2271 1.399 . S
C2272 C2273 1.385 . S
C2273 H2259 0.931 . S
C2273 C2272 1.385 . S
C2273 C2274 1.389 . S
C2274 C2273 1.389 . S
C2274 C2275 1.387 . S
C2275 H2260 0.930 . S
C2275 C2270 1.390 . S
C2275 C2274 1.387 . S
H2276 C2288 0.930 . S
H2277 C2290 0.930 . S
H2278 C2291 0.930 . S
H2279 C2295 0.959 . S
H2280 C2295 0.959 . S
H2281 C2295 0.961 . S
H2282 C2296 0.960 . S
H2283 C2296 0.961 . S
H2284 C2296 0.959 . S
H2285 C2299 0.929 . S
H2286 C2300 0.931 . S
H2287 C2302 0.930 . S
C2288 H2276 0.930 . S
C2288 C2289 1.399 . S
C2288 C2293 1.399 . S
C2289 C2288 1.399 . S
C2289 C2290 1.376 . S
C2290 H2277 0.930 . S
C2290 C2289 1.376 . S
C2290 C2291 1.388 . S
C2291 H2278 0.930 . S
C2291 C2290 1.388 . S
C2291 C2292 1.390 . S
C2292 C2291 1.390 . S
C2292 C2293 1.394 . S
C2292 C2298 1.465 . S
C2293 C2288 1.399 . S
C2293 C2292 1.394 . S
C2293 C2294 1.516 . S
C2294 C2293 1.516 . S
C2294 C2295 1.502 . S
C2294 C2296 1.561 . S
C2294 C2297 1.526 . S
C2295 H2279 0.959 . S
C2295 H2280 0.959 . S
C2295 H2281 0.961 . S
C2295 C2294 1.502 . S
C2296 H2282 0.960 . S
C2296 H2283 0.961 . S
C2296 H2284 0.959 . S
C2296 C2294 1.561 . S
C2297 C2294 1.526 . S
C2297 C2298 1.396 . S
C2297 C2302 1.390 . S
C2298 C2292 1.465 . S
C2298 C2297 1.396 . S
C2298 C2299 1.399 . S
C2299 H2285 0.929 . S
C2299 C2298 1.399 . S
C2299 C2300 1.385 . S
C2300 H2286 0.931 . S
C2300 C2299 1.385 . S
C2300 C2301 1.389 . S
C2301 C2300 1.389 . S
C2301 C2302 1.387 . S
C2302 H2287 0.930 . S
C2302 C2297 1.390 . S
C2302 C2301 1.387 . S
H2303 C2315 0.930 . S
H2304 C2317 0.930 . S
H2305 C2318 0.930 . S
H2306 C2322 0.959 . S
H2307 C2322 0.959 . S
H2308 C2322 0.961 . S
H2309 C2323 0.960 . S
H2310 C2323 0.961 . S
H2311 C2323 0.959 . S
H2312 C2326 0.929 . S
H2313 C2327 0.931 . S
H2314 C2329 0.930 . S
C2315 H2303 0.930 . S
C2315 C2316 1.399 . S
C2315 C2320 1.399 . S
C2316 C2315 1.399 . S
C2316 C2317 1.376 . S
C2317 H2304 0.930 . S
C2317 C2316 1.376 . S
C2317 C2318 1.388 . S
C2318 H2305 0.930 . S
C2318 C2317 1.388 . S
C2318 C2319 1.390 . S
C2319 C2318 1.390 . S
C2319 C2320 1.394 . S
C2319 C2325 1.465 . S
C2320 C2315 1.399 . S
C2320 C2319 1.394 . S
C2320 C2321 1.516 . S
C2321 C2320 1.516 . S
C2321 C2322 1.502 . S
C2321 C2323 1.561 . S
C2321 C2324 1.526 . S
C2322 H2306 0.959 . S
C2322 H2307 0.959 . S
C2322 H2308 0.961 . S
C2322 C2321 1.502 . S
C2323 H2309 0.960 . S
C2323 H2310 0.961 . S
C2323 H2311 0.959 . S
C2323 C2321 1.561 . S
C2324 C2321 1.526 . S
C2324 C2325 1.396 . S
C2324 C2329 1.390 . S
C2325 C2319 1.465 . S
C2325 C2324 1.396 . S
C2325 C2326 1.399 . S
C2326 H2312 0.929 . S
C2326 C2325 1.399 . S
C2326 C2327 1.385 . S
C2327 H2313 0.931 . S
C2327 C2326 1.385 . S
C2327 C2328 1.389 . S
C2328 C2327 1.389 . S
C2328 C2329 1.387 . S
C2329 H2314 0.930 . S
C2329 C2324 1.390 . S
C2329 C2328 1.387 . S
H2330 C2342 0.930 . S
H2331 C2344 0.930 . S
H2332 C2345 0.930 . S
H2333 C2349 0.959 . S
H2334 C2349 0.959 . S
H2335 C2349 0.961 . S
H2336 C2350 0.960 . S
H2337 C2350 0.961 . S
H2338 C2350 0.959 . S
H2339 C2353 0.929 . S
H2340 C2354 0.931 . S
H2341 C2356 0.930 . S
C2342 H2330 0.930 . S
C2342 C2343 1.399 . S
C2342 C2347 1.399 . S
C2343 C2342 1.399 . S
C2343 C2344 1.376 . S
C2344 H2331 0.930 . S
C2344 C2343 1.376 . S
C2344 C2345 1.388 . S
C2345 H2332 0.930 . S
C2345 C2344 1.388 . S
C2345 C2346 1.390 . S
C2346 C2345 1.390 . S
C2346 C2347 1.394 . S
C2346 C2352 1.465 . S
C2347 C2342 1.399 . S
C2347 C2346 1.394 . S
C2347 C2348 1.516 . S
C2348 C2347 1.516 . S
C2348 C2349 1.502 . S
C2348 C2350 1.561 . S
C2348 C2351 1.526 . S
C2349 H2333 0.959 . S
C2349 H2334 0.959 . S
C2349 H2335 0.961 . S
C2349 C2348 1.502 . S
C2350 H2336 0.960 . S
C2350 H2337 0.961 . S
C2350 H2338 0.959 . S
C2350 C2348 1.561 . S
C2351 C2348 1.526 . S
C2351 C2352 1.396 . S
C2351 C2356 1.390 . S
C2352 C2346 1.465 . S
C2352 C2351 1.396 . S
C2352 C2353 1.399 . S
C2353 H2339 0.929 . S
C2353 C2352 1.399 . S
C2353 C2354 1.385 . S
C2354 H2340 0.931 . S
C2354 C2353 1.385 . S
C2354 C2355 1.389 . S
C2355 C2354 1.389 . S
C2355 C2356 1.387 . S
C2356 H2341 0.930 . S
C2356 C2351 1.390 . S
C2356 C2355 1.387 . S
H2357 C2369 0.930 . S
H2358 C2371 0.930 . S
H2359 C2372 0.930 . S
H2360 C2376 0.959 . S
H2361 C2376 0.959 . S
H2362 C2376 0.961 . S
H2363 C2377 0.960 . S
H2364 C2377 0.961 . S
H2365 C2377 0.959 . S
H2366 C2380 0.929 . S
H2367 C2381 0.931 . S
H2368 C2383 0.930 . S
C2369 H2357 0.930 . S
C2369 C2370 1.399 . S
C2369 C2374 1.399 . S
C2370 C2369 1.399 . S
C2370 C2371 1.376 . S
C2371 H2358 0.930 . S
C2371 C2370 1.376 . S
C2371 C2372 1.388 . S
C2372 H2359 0.930 . S
C2372 C2371 1.388 . S
C2372 C2373 1.390 . S
C2373 C2372 1.390 . S
C2373 C2374 1.394 . S
C2373 C2379 1.465 . S
C2374 C2369 1.399 . S
C2374 C2373 1.394 . S
C2374 C2375 1.516 . S
C2375 C2374 1.516 . S
C2375 C2376 1.502 . S
C2375 C2377 1.561 . S
C2375 C2378 1.526 . S
C2376 H2360 0.959 . S
C2376 H2361 0.959 . S
C2376 H2362 0.961 . S
C2376 C2375 1.502 . S
C2377 H2363 0.960 . S
C2377 H2364 0.961 . S
C2377 H2365 0.959 . S
C2377 C2375 1.561 . S
C2378 C2375 1.526 . S
C2378 C2379 1.396 . S
C2378 C2383 1.390 . S
C2379 C2373 1.465 . S
C2379 C2378 1.396 . S
C2379 C2380 1.399 . S
C2380 H2366 0.929 . S
C2380 C2379 1.399 . S
C2380 C2381 1.385 . S
C2381 H2367 0.931 . S
C2381 C2380 1.385 . S
C2381 C2382 1.389 . S
C2382 C2381 1.389 . S
C2382 C2383 1.387 . S
C2383 H2368 0.930 . S
C2383 C2378 1.390 . S
C2383 C2382 1.387 . S
H2384 C2396 0.930 . S
H2385 C2398 0.930 . S
H2386 C2399 0.930 . S
H2387 C2403 0.959 . S
H2388 C2403 0.959 . S
H2389 C2403 0.961 . S
H2390 C2404 0.960 . S
H2391 C2404 0.961 . S
H2392 C2404 0.959 . S
H2393 C2407 0.929 . S
H2394 C2408 0.931 . S
H2395 C2410 0.930 . S
C2396 H2384 0.930 . S
C2396 C2397 1.399 . S
C2396 C2401 1.399 . S
C2397 C2396 1.399 . S
C2397 C2398 1.376 . S
C2398 H2385 0.930 . S
C2398 C2397 1.376 . S
C2398 C2399 1.388 . S
C2399 H2386 0.930 . S
C2399 C2398 1.388 . S
C2399 C2400 1.390 . S
C2400 C2399 1.390 . S
C2400 C2401 1.394 . S
C2400 C2406 1.465 . S
C2401 C2396 1.399 . S
C2401 C2400 1.394 . S
C2401 C2402 1.516 . S
C2402 C2401 1.516 . S
C2402 C2403 1.502 . S
C2402 C2404 1.561 . S
C2402 C2405 1.526 . S
C2403 H2387 0.959 . S
C2403 H2388 0.959 . S
C2403 H2389 0.961 . S
C2403 C2402 1.502 . S
C2404 H2390 0.960 . S
C2404 H2391 0.961 . S
C2404 H2392 0.959 . S
C2404 C2402 1.561 . S
C2405 C2402 1.526 . S
C2405 C2406 1.396 . S
C2405 C2410 1.390 . S
C2406 C2400 1.465 . S
C2406 C2405 1.396 . S
C2406 C2407 1.399 . S
C2407 H2393 0.929 . S
C2407 C2406 1.399 . S
C2407 C2408 1.385 . S
C2408 H2394 0.931 . S
C2408 C2407 1.385 . S
C2408 C2409 1.389 . S
C2409 C2408 1.389 . S
C2409 C2410 1.387 . S
C2410 H2395 0.930 . S
C2410 C2405 1.390 . S
C2410 C2409 1.387 . S
H2411 C2423 0.930 . S
H2412 C2425 0.930 . S
H2413 C2426 0.930 . S
H2414 C2430 0.959 . S
H2415 C2430 0.959 . S
H2416 C2430 0.961 . S
H2417 C2431 0.960 . S
H2418 C2431 0.961 . S
H2419 C2431 0.959 . S
H2420 C2434 0.929 . S
H2421 C2435 0.931 . S
H2422 C2437 0.930 . S
C2423 H2411 0.930 . S
C2423 C2424 1.399 . S
C2423 C2428 1.399 . S
C2424 C2423 1.399 . S
C2424 C2425 1.376 . S
C2425 H2412 0.930 . S
C2425 C2424 1.376 . S
C2425 C2426 1.388 . S
C2426 H2413 0.930 . S
C2426 C2425 1.388 . S
C2426 C2427 1.390 . S
C2427 C2426 1.390 . S
C2427 C2428 1.394 . S
C2427 C2433 1.465 . S
C2428 C2423 1.399 . S
C2428 C2427 1.394 . S
C2428 C2429 1.516 . S
C2429 C2428 1.516 . S
C2429 C2430 1.502 . S
C2429 C2431 1.561 . S
C2429 C2432 1.526 . S
C2430 H2414 0.959 . S
C2430 H2415 0.959 . S
C2430 H2416 0.961 . S
C2430 C2429 1.502 . S
C2431 H2417 0.960 . S
C2431 H2418 0.961 . S
C2431 H2419 0.959 . S
C2431 C2429 1.561 . S
C2432 C2429 1.526 . S
C2432 C2433 1.396 . S
C2432 C2437 1.390 . S
C2433 C2427 1.465 . S
C2433 C2432 1.396 . S
C2433 C2434 1.399 . S
C2434 H2420 0.929 . S
C2434 C2433 1.399 . S
C2434 C2435 1.385 . S
C2435 H2421 0.931 . S
C2435 C2434 1.385 . S
C2435 C2436 1.389 . S
C2436 C2435 1.389 . S
C2436 C2437 1.387 . S
C2437 H2422 0.930 . S
C2437 C2432 1.390 . S
C2437 C2436 1.387 . S
H2438 C2450 0.930 . S
H2439 C2452 0.930 . S
H2440 C2453 0.930 . S
H2441 C2457 0.959 . S
H2442 C2457 0.959 . S
H2443 C2457 0.961 . S
H2444 C2458 0.960 . S
H2445 C2458 0.961 . S
H2446 C2458 0.959 . S
H2447 C2461 0.929 . S
H2448 C2462 0.931 . S
H2449 C2464 0.930 . S
C2450 H2438 0.930 . S
C2450 C2451 1.399 . S
C2450 C2455 1.399 . S
C2451 C2450 1.399 . S
C2451 C2452 1.376 . S
C2452 H2439 0.930 . S
C2452 C2451 1.376 . S
C2452 C2453 1.388 . S
C2453 H2440 0.930 . S
C2453 C2452 1.388 . S
C2453 C2454 1.390 . S
C2454 C2453 1.390 . S
C2454 C2455 1.394 . S
C2454 C2460 1.465 . S
C2455 C2450 1.399 . S
C2455 C2454 1.394 . S
C2455 C2456 1.516 . S
C2456 C2455 1.516 . S
C2456 C2457 1.502 . S
C2456 C2458 1.561 . S
C2456 C2459 1.526 . S
C2457 H2441 0.959 . S
C2457 H2442 0.959 . S
C2457 H2443 0.961 . S
C2457 C2456 1.502 . S
C2458 H2444 0.960 . S
C2458 H2445 0.961 . S
C2458 H2446 0.959 . S
C2458 C2456 1.561 . S
C2459 C2456 1.526 . S
C2459 C2460 1.396 . S
C2459 C2464 1.390 . S
C2460 C2454 1.465 . S
C2460 C2459 1.396 . S
C2460 C2461 1.399 . S
C2461 H2447 0.929 . S
C2461 C2460 1.399 . S
C2461 C2462 1.385 . S
C2462 H2448 0.931 . S
C2462 C2461 1.385 . S
C2462 C2463 1.389 . S
C2463 C2462 1.389 . S
C2463 C2464 1.387 . S
C2464 H2449 0.930 . S
C2464 C2459 1.390 . S
C2464 C2463 1.387 . S
H2465 C2477 0.930 . S
H2466 C2479 0.930 . S
H2467 C2480 0.930 . S
H2468 C2484 0.959 . S
H2469 C2484 0.959 . S
H2470 C2484 0.961 . S
H2471 C2485 0.960 . S
H2472 C2485 0.961 . S
H2473 C2485 0.959 . S
H2474 C2488 0.929 . S
H2475 C2489 0.931 . S
H2476 C2491 0.930 . S
C2477 H2465 0.930 . S
C2477 C2478 1.399 . S
C2477 C2482 1.399 . S
C2478 C2477 1.399 . S
C2478 C2479 1.376 1_554 S
C2479 H2466 0.930 . S
C2479 C2478 1.376 1_556 S
C2479 C2480 1.388 . S
C2480 H2467 0.930 . S
C2480 C2479 1.388 . S
C2480 C2481 1.390 1_556 S
C2481 C2480 1.390 1_554 S
C2481 C2482 1.394 . S
C2481 C2487 1.465 . S
C2482 C2477 1.399 . S
C2482 C2481 1.394 . S
C2482 C2483 1.516 . S
C2483 C2482 1.516 . S
C2483 C2484 1.502 . S
C2483 C2485 1.561 . S
C2483 C2486 1.526 . S
C2484 H2468 0.959 . S
C2484 H2469 0.959 . S
C2484 H2470 0.961 . S
C2484 C2483 1.502 . S
C2485 H2471 0.960 . S
C2485 H2472 0.961 . S
C2485 H2473 0.959 . S
C2485 C2483 1.561 . S
C2486 C2483 1.526 . S
C2486 C2487 1.396 . S
C2486 C2491 1.390 . S
C2487 C2481 1.465 . S
C2487 C2486 1.396 . S
C2487 C2488 1.399 1_554 S
C2488 H2474 0.929 . S
C2488 C2487 1.399 1_556 S
C2488 C2489 1.385 . S
C2489 H2475 0.931 . S
C2489 C2488 1.385 . S
C2489 C2490 1.389 1_556 S
C2490 C2489 1.389 1_554 S
C2490 C2491 1.387 . S
C2491 H2476 0.930 . S
C2491 C2486 1.390 . S
C2491 C2490 1.387 . S
H2492 C2504 0.930 . S
H2493 C2506 0.930 . S
H2494 C2507 0.930 . S
H2495 C2511 0.959 . S
H2496 C2511 0.959 . S
H2497 C2511 0.961 . S
H2498 C2512 0.960 . S
H2499 C2512 0.961 . S
H2500 C2512 0.959 . S
H2501 C2515 0.929 . S
H2502 C2516 0.931 . S
H2503 C2518 0.930 . S
C2504 H2492 0.930 . S
C2504 C2505 1.399 . S
C2504 C2509 1.399 . S
C2505 C2504 1.399 . S
C2505 C2506 1.376 . S
C2506 H2493 0.930 . S
C2506 C2505 1.376 . S
C2506 C2507 1.388 . S
C2507 H2494 0.930 . S
C2507 C2506 1.388 . S
C2507 C2508 1.390 . S
C2508 C2507 1.390 . S
C2508 C2509 1.394 . S
C2508 C2514 1.465 . S
C2509 C2504 1.399 . S
C2509 C2508 1.394 . S
C2509 C2510 1.516 . S
C2510 C2509 1.516 . S
C2510 C2511 1.502 . S
C2510 C2512 1.561 . S
C2510 C2513 1.526 . S
C2511 H2495 0.959 . S
C2511 H2496 0.959 . S
C2511 H2497 0.961 . S
C2511 C2510 1.502 . S
C2512 H2498 0.960 . S
C2512 H2499 0.961 . S
C2512 H2500 0.959 . S
C2512 C2510 1.561 . S
C2513 C2510 1.526 . S
C2513 C2514 1.396 . S
C2513 C2518 1.390 . S
C2514 C2508 1.465 . S
C2514 C2513 1.396 . S
C2514 C2515 1.399 . S
C2515 H2501 0.929 . S
C2515 C2514 1.399 . S
C2515 C2516 1.385 . S
C2516 H2502 0.931 . S
C2516 C2515 1.385 . S
C2516 C2517 1.389 . S
C2517 C2516 1.389 . S
C2517 C2518 1.387 . S
C2518 H2503 0.930 . S
C2518 C2513 1.390 . S
C2518 C2517 1.387 . S
H2519 C2531 0.930 . S
H2520 C2533 0.930 . S
H2521 C2534 0.930 . S
H2522 C2538 0.959 . S
H2523 C2538 0.959 . S
H2524 C2538 0.961 . S
H2525 C2539 0.960 . S
H2526 C2539 0.961 . S
H2527 C2539 0.959 . S
H2528 C2542 0.929 . S
H2529 C2543 0.931 1_556 S
H2530 C2545 0.930 . S
C2531 H2519 0.930 . S
C2531 C2532 1.399 . S
C2531 C2536 1.399 . S
C2532 C2531 1.399 . S
C2532 C2533 1.376 1_554 S
C2533 H2520 0.930 . S
C2533 C2532 1.376 1_556 S
C2533 C2534 1.388 . S
C2534 H2521 0.930 . S
C2534 C2533 1.388 . S
C2534 C2535 1.390 1_556 S
C2535 C2534 1.390 1_554 S
C2535 C2536 1.394 . S
C2535 C2541 1.465 . S
C2536 C2531 1.399 . S
C2536 C2535 1.394 . S
C2536 C2537 1.516 . S
C2537 C2536 1.516 . S
C2537 C2538 1.502 . S
C2537 C2539 1.561 . S
C2537 C2540 1.526 . S
C2538 H2522 0.959 . S
C2538 H2523 0.959 . S
C2538 H2524 0.961 . S
C2538 C2537 1.502 . S
C2539 H2525 0.960 . S
C2539 H2526 0.961 . S
C2539 H2527 0.959 . S
C2539 C2537 1.561 . S
C2540 C2537 1.526 . S
C2540 C2541 1.396 . S
C2540 C2545 1.390 . S
C2541 C2535 1.465 . S
C2541 C2540 1.396 . S
C2541 C2542 1.399 1_554 S
C2542 H2528 0.929 . S
C2542 C2541 1.399 1_556 S
C2542 C2543 1.385 1_556 S
C2543 H2529 0.931 1_554 S
C2543 C2542 1.385 1_554 S
C2543 C2544 1.389 . S
C2544 C2543 1.389 . S
C2544 C2545 1.387 . S
C2545 H2530 0.930 . S
C2545 C2540 1.390 . S
C2545 C2544 1.387 . S
H2546 C2558 0.930 . S
H2547 C2560 0.930 . S
H2548 C2561 0.930 . S
H2549 C2565 0.959 . S
H2550 C2565 0.959 . S
H2551 C2565 0.961 . S
H2552 C2566 0.960 . S
H2553 C2566 0.961 . S
H2554 C2566 0.959 . S
H2555 C2569 0.929 . S
H2556 C2570 0.931 . S
H2557 C2572 0.930 . S
C2558 H2546 0.930 . S
C2558 C2559 1.399 . S
C2558 C2563 1.399 . S
C2559 C2558 1.399 . S
C2559 C2560 1.376 . S
C2560 H2547 0.930 . S
C2560 C2559 1.376 . S
C2560 C2561 1.388 . S
C2561 H2548 0.930 . S
C2561 C2560 1.388 . S
C2561 C2562 1.390 . S
C2562 C2561 1.390 . S
C2562 C2563 1.394 . S
C2562 C2568 1.465 . S
C2563 C2558 1.399 . S
C2563 C2562 1.394 . S
C2563 C2564 1.516 . S
C2564 C2563 1.516 . S
C2564 C2565 1.502 . S
C2564 C2566 1.561 . S
C2564 C2567 1.526 . S
C2565 H2549 0.959 . S
C2565 H2550 0.959 . S
C2565 H2551 0.961 . S
C2565 C2564 1.502 . S
C2566 H2552 0.960 . S
C2566 H2553 0.961 . S
C2566 H2554 0.959 . S
C2566 C2564 1.561 . S
C2567 C2564 1.526 . S
C2567 C2568 1.396 . S
C2567 C2572 1.390 . S
C2568 C2562 1.465 . S
C2568 C2567 1.396 . S
C2568 C2569 1.399 . S
C2569 H2555 0.929 . S
C2569 C2568 1.399 . S
C2569 C2570 1.385 . S
C2570 H2556 0.931 . S
C2570 C2569 1.385 . S
C2570 C2571 1.389 . S
C2571 C2570 1.389 . S
C2571 C2572 1.387 . S
C2572 H2557 0.930 . S
C2572 C2567 1.390 . S
C2572 C2571 1.387 . S
H2573 C2585 0.930 . S
H2574 C2587 0.930 . S
H2575 C2588 0.930 . S
H2576 C2592 0.959 . S
H2577 C2592 0.959 . S
H2578 C2592 0.961 . S
H2579 C2593 0.960 . S
H2580 C2593 0.961 . S
H2581 C2593 0.959 . S
H2582 C2596 0.929 . S
H2583 C2597 0.931 . S
H2584 C2599 0.930 . S
C2585 H2573 0.930 . S
C2585 C2586 1.399 . S
C2585 C2590 1.399 . S
C2586 C2585 1.399 . S
C2586 C2587 1.376 . S
C2587 H2574 0.930 . S
C2587 C2586 1.376 . S
C2587 C2588 1.388 . S
C2588 H2575 0.930 . S
C2588 C2587 1.388 . S
C2588 C2589 1.390 . S
C2589 C2588 1.390 . S
C2589 C2590 1.394 . S
C2589 C2595 1.465 . S
C2590 C2585 1.399 . S
C2590 C2589 1.394 . S
C2590 C2591 1.516 . S
C2591 C2590 1.516 . S
C2591 C2592 1.502 . S
C2591 C2593 1.561 . S
C2591 C2594 1.526 . S
C2592 H2576 0.959 . S
C2592 H2577 0.959 . S
C2592 H2578 0.961 . S
C2592 C2591 1.502 . S
C2593 H2579 0.960 . S
C2593 H2580 0.961 . S
C2593 H2581 0.959 . S
C2593 C2591 1.561 . S
C2594 C2591 1.526 . S
C2594 C2595 1.396 . S
C2594 C2599 1.390 . S
C2595 C2589 1.465 . S
C2595 C2594 1.396 . S
C2595 C2596 1.399 . S
C2596 H2582 0.929 . S
C2596 C2595 1.399 . S
C2596 C2597 1.385 . S
C2597 H2583 0.931 . S
C2597 C2596 1.385 . S
C2597 C2598 1.389 . S
C2598 C2597 1.389 . S
C2598 C2599 1.387 . S
C2599 H2584 0.930 . S
C2599 C2594 1.390 . S
C2599 C2598 1.387 . S
H2600 C2612 0.930 . S
H2601 C2614 0.930 . S
H2602 C2615 0.930 . S
H2603 C2619 0.959 . S
H2604 C2619 0.959 . S
H2605 C2619 0.961 . S
H2606 C2620 0.960 . S
H2607 C2620 0.961 . S
H2608 C2620 0.959 . S
H2609 C2623 0.929 . S
H2610 C2624 0.931 . S
H2611 C2626 0.930 . S
C2612 H2600 0.930 . S
C2612 C2613 1.399 . S
C2612 C2617 1.399 . S
C2613 C2612 1.399 . S
C2613 C2614 1.376 . S
C2614 H2601 0.930 . S
C2614 C2613 1.376 . S
C2614 C2615 1.388 . S
C2615 H2602 0.930 . S
C2615 C2614 1.388 . S
C2615 C2616 1.390 . S
C2616 C2615 1.390 . S
C2616 C2617 1.394 . S
C2616 C2622 1.465 . S
C2617 C2612 1.399 . S
C2617 C2616 1.394 . S
C2617 C2618 1.516 . S
C2618 C2617 1.516 . S
C2618 C2619 1.502 . S
C2618 C2620 1.561 . S
C2618 C2621 1.526 . S
C2619 H2603 0.959 . S
C2619 H2604 0.959 . S
C2619 H2605 0.961 . S
C2619 C2618 1.502 . S
C2620 H2606 0.960 . S
C2620 H2607 0.961 . S
C2620 H2608 0.959 . S
C2620 C2618 1.561 . S
C2621 C2618 1.526 . S
C2621 C2622 1.396 . S
C2621 C2626 1.390 . S
C2622 C2616 1.465 . S
C2622 C2621 1.396 . S
C2622 C2623 1.399 . S
C2623 H2609 0.929 . S
C2623 C2622 1.399 . S
C2623 C2624 1.385 . S
C2624 H2610 0.931 . S
C2624 C2623 1.385 . S
C2624 C2625 1.389 . S
C2625 C2624 1.389 . S
C2625 C2626 1.387 . S
C2626 H2611 0.930 . S
C2626 C2621 1.390 . S
C2626 C2625 1.387 . S
H2627 C2639 0.930 . S
H2628 C2641 0.930 . S
H2629 C2642 0.930 . S
H2630 C2646 0.959 . S
H2631 C2646 0.959 . S
H2632 C2646 0.961 . S
H2633 C2647 0.960 . S
H2634 C2647 0.961 . S
H2635 C2647 0.959 . S
H2636 C2650 0.929 . S
H2637 C2651 0.931 . S
H2638 C2653 0.930 . S
C2639 H2627 0.930 . S
C2639 C2640 1.399 . S
C2639 C2644 1.399 . S
C2640 C2639 1.399 . S
C2640 C2641 1.376 . S
C2641 H2628 0.930 . S
C2641 C2640 1.376 . S
C2641 C2642 1.388 . S
C2642 H2629 0.930 . S
C2642 C2641 1.388 . S
C2642 C2643 1.390 . S
C2643 C2642 1.390 . S
C2643 C2644 1.394 . S
C2643 C2649 1.465 . S
C2644 C2639 1.399 . S
C2644 C2643 1.394 . S
C2644 C2645 1.516 . S
C2645 C2644 1.516 . S
C2645 C2646 1.502 . S
C2645 C2647 1.561 . S
C2645 C2648 1.526 . S
C2646 H2630 0.959 . S
C2646 H2631 0.959 . S
C2646 H2632 0.961 . S
C2646 C2645 1.502 . S
C2647 H2633 0.960 . S
C2647 H2634 0.961 . S
C2647 H2635 0.959 . S
C2647 C2645 1.561 . S
C2648 C2645 1.526 . S
C2648 C2649 1.396 . S
C2648 C2653 1.390 . S
C2649 C2643 1.465 . S
C2649 C2648 1.396 . S
C2649 C2650 1.399 . S
C2650 H2636 0.929 . S
C2650 C2649 1.399 . S
C2650 C2651 1.385 . S
C2651 H2637 0.931 . S
C2651 C2650 1.385 . S
C2651 C2652 1.389 . S
C2652 C2651 1.389 . S
C2652 C2653 1.387 . S
C2653 H2638 0.930 . S
C2653 C2648 1.390 . S
C2653 C2652 1.387 . S
H2654 C2666 0.930 . S
H2655 C2668 0.930 . S
H2656 C2669 0.930 . S
H2657 C2673 0.959 . S
H2658 C2673 0.959 . S
H2659 C2673 0.961 . S
H2660 C2674 0.960 . S
H2661 C2674 0.961 . S
H2662 C2674 0.959 . S
H2663 C2677 0.929 . S
H2664 C2678 0.931 . S
H2665 C2680 0.930 . S
C2666 H2654 0.930 . S
C2666 C2667 1.399 . S
C2666 C2671 1.399 . S
C2667 C2666 1.399 . S
C2667 C2668 1.376 . S
C2668 H2655 0.930 . S
C2668 C2667 1.376 . S
C2668 C2669 1.388 . S
C2669 H2656 0.930 . S
C2669 C2668 1.388 . S
C2669 C2670 1.390 . S
C2670 C2669 1.390 . S
C2670 C2671 1.394 . S
C2670 C2676 1.465 . S
C2671 C2666 1.399 . S
C2671 C2670 1.394 . S
C2671 C2672 1.516 . S
C2672 C2671 1.516 . S
C2672 C2673 1.502 1_455 S
C2672 C2674 1.561 . S
C2672 C2675 1.526 . S
C2673 H2657 0.959 . S
C2673 H2658 0.959 . S
C2673 H2659 0.961 . S
C2673 C2672 1.502 1_655 S
C2674 H2660 0.960 . S
C2674 H2661 0.961 . S
C2674 H2662 0.959 . S
C2674 C2672 1.561 . S
C2675 C2672 1.526 . S
C2675 C2676 1.396 . S
C2675 C2680 1.390 . S
C2676 C2670 1.465 . S
C2676 C2675 1.396 . S
C2676 C2677 1.399 . S
C2677 H2663 0.929 . S
C2677 C2676 1.399 . S
C2677 C2678 1.385 . S
C2678 H2664 0.931 . S
C2678 C2677 1.385 . S
C2678 C2679 1.389 . S
C2679 C2678 1.389 . S
C2679 C2680 1.387 . S
C2680 H2665 0.930 . S
C2680 C2675 1.390 . S
C2680 C2679 1.387 . S
H2681 C2693 0.930 . S
H2682 C2695 0.930 . S
H2683 C2696 0.930 . S
H2684 C2700 0.959 . S
H2685 C2700 0.959 . S
H2686 C2700 0.961 . S
H2687 C2701 0.960 . S
H2688 C2701 0.961 . S
H2689 C2701 0.959 . S
H2690 C2704 0.929 . S
H2691 C2705 0.931 . S
H2692 C2707 0.930 . S
C2693 H2681 0.930 . S
C2693 C2694 1.399 . S
C2693 C2698 1.399 . S
C2694 C2693 1.399 . S
C2694 C2695 1.376 . S
C2695 H2682 0.930 . S
C2695 C2694 1.376 . S
C2695 C2696 1.388 . S
C2696 H2683 0.930 . S
C2696 C2695 1.388 . S
C2696 C2697 1.390 . S
C2697 C2696 1.390 . S
C2697 C2698 1.394 . S
C2697 C2703 1.465 . S
C2698 C2693 1.399 . S
C2698 C2697 1.394 . S
C2698 C2699 1.516 . S
C2699 C2698 1.516 . S
C2699 C2700 1.502 . S
C2699 C2701 1.561 . S
C2699 C2702 1.526 . S
C2700 H2684 0.959 . S
C2700 H2685 0.959 . S
C2700 H2686 0.961 . S
C2700 C2699 1.502 . S
C2701 H2687 0.960 . S
C2701 H2688 0.961 . S
C2701 H2689 0.959 . S
C2701 C2699 1.561 . S
C2702 C2699 1.526 . S
C2702 C2703 1.396 . S
C2702 C2707 1.390 . S
C2703 C2697 1.465 . S
C2703 C2702 1.396 . S
C2703 C2704 1.399 . S
C2704 H2690 0.929 . S
C2704 C2703 1.399 . S
C2704 C2705 1.385 . S
C2705 H2691 0.931 . S
C2705 C2704 1.385 . S
C2705 C2706 1.389 . S
C2706 C2705 1.389 . S
C2706 C2707 1.387 . S
C2707 H2692 0.930 . S
C2707 C2702 1.390 . S
C2707 C2706 1.387 . S
H2708 C2720 0.930 . S
H2709 C2722 0.930 . S
H2710 C2723 0.930 . S
H2711 C2727 0.959 . S
H2712 C2727 0.959 . S
H2713 C2727 0.961 . S
H2714 C2728 0.960 . S
H2715 C2728 0.961 . S
H2716 C2728 0.959 . S
H2717 C2731 0.929 . S
H2718 C2732 0.931 . S
H2719 C2734 0.930 . S
C2720 H2708 0.930 . S
C2720 C2721 1.399 . S
C2720 C2725 1.399 . S
C2721 C2720 1.399 . S
C2721 C2722 1.376 . S
C2722 H2709 0.930 . S
C2722 C2721 1.376 . S
C2722 C2723 1.388 . S
C2723 H2710 0.930 . S
C2723 C2722 1.388 . S
C2723 C2724 1.390 . S
C2724 C2723 1.390 . S
C2724 C2725 1.394 . S
C2724 C2730 1.465 . S
C2725 C2720 1.399 . S
C2725 C2724 1.394 . S
C2725 C2726 1.516 . S
C2726 C2725 1.516 . S
C2726 C2727 1.502 . S
C2726 C2728 1.561 . S
C2726 C2729 1.526 . S
C2727 H2711 0.959 . S
C2727 H2712 0.959 . S
C2727 H2713 0.961 . S
C2727 C2726 1.502 . S
C2728 H2714 0.960 . S
C2728 H2715 0.961 . S
C2728 H2716 0.959 . S
C2728 C2726 1.561 . S
C2729 C2726 1.526 . S
C2729 C2730 1.396 . S
C2729 C2734 1.390 . S
C2730 C2724 1.465 . S
C2730 C2729 1.396 . S
C2730 C2731 1.399 1_556 S
C2731 H2717 0.929 . S
C2731 C2730 1.399 1_554 S
C2731 C2732 1.385 . S
C2732 H2718 0.931 . S
C2732 C2731 1.385 . S
C2732 C2733 1.389 1_554 S
C2733 C2732 1.389 1_556 S
C2733 C2734 1.387 . S
C2734 H2719 0.930 . S
C2734 C2729 1.390 . S
C2734 C2733 1.387 . S
H2735 C2747 0.930 . S
H2736 C2749 0.930 . S
H2737 C2750 0.930 . S
H2738 C2754 0.959 . S
H2739 C2754 0.959 . S
H2740 C2754 0.961 . S
H2741 C2755 0.960 . S
H2742 C2755 0.961 . S
H2743 C2755 0.959 . S
H2744 C2758 0.929 . S
H2745 C2759 0.931 . S
H2746 C2761 0.930 . S
C2747 H2735 0.930 . S
C2747 C2748 1.399 . S
C2747 C2752 1.399 . S
C2748 C2747 1.399 . S
C2748 C2749 1.376 . S
C2749 H2736 0.930 . S
C2749 C2748 1.376 . S
C2749 C2750 1.388 . S
C2750 H2737 0.930 . S
C2750 C2749 1.388 . S
C2750 C2751 1.390 . S
C2751 C2750 1.390 . S
C2751 C2752 1.394 . S
C2751 C2757 1.465 . S
C2752 C2747 1.399 . S
C2752 C2751 1.394 . S
C2752 C2753 1.516 . S
C2753 C2752 1.516 . S
C2753 C2754 1.502 . S
C2753 C2755 1.561 . S
C2753 C2756 1.526 . S
C2754 H2738 0.959 . S
C2754 H2739 0.959 . S
C2754 H2740 0.961 . S
C2754 C2753 1.502 . S
C2755 H2741 0.960 . S
C2755 H2742 0.961 . S
C2755 H2743 0.959 . S
C2755 C2753 1.561 . S
C2756 C2753 1.526 . S
C2756 C2757 1.396 . S
C2756 C2761 1.390 . S
C2757 C2751 1.465 . S
C2757 C2756 1.396 . S
C2757 C2758 1.399 . S
C2758 H2744 0.929 . S
C2758 C2757 1.399 . S
C2758 C2759 1.385 . S
C2759 H2745 0.931 . S
C2759 C2758 1.385 . S
C2759 C2760 1.389 . S
C2760 C2759 1.389 . S
C2760 C2761 1.387 . S
C2761 H2746 0.930 . S
C2761 C2756 1.390 . S
C2761 C2760 1.387 . S
H2762 C2774 0.930 . S
H2763 C2776 0.918 1_655 S
H2764 C2777 0.930 . S
H2765 C2781 0.959 . S
H2766 C2781 0.959 . S
H2767 C2781 0.961 . S
H2768 C2782 0.960 . S
H2769 C2782 0.961 . S
H2770 C2782 0.959 . S
H2771 C2785 0.929 . S
H2772 C2786 0.931 . S
H2773 C2788 0.930 . S
C2774 H2762 0.930 . S
C2774 C2775 1.399 . S
C2774 C2779 1.399 . S
C2775 C2774 1.399 . S
C2775 C2776 1.401 . S
C2776 H2763 0.918 1_455 S
C2776 C2775 1.401 . S
C2776 C2777 1.376 1_455 S
C2777 H2764 0.930 . S
C2777 C2776 1.376 1_655 S
C2777 C2778 1.390 1_655 S
C2778 C2777 1.390 1_455 S
C2778 C2779 1.394 . S
C2778 C2784 1.465 . S
C2779 C2774 1.399 . S
C2779 C2778 1.394 . S
C2779 C2780 1.516 . S
C2780 C2779 1.516 . S
C2780 C2781 1.502 . S
C2780 C2782 1.561 . S
C2780 C2783 1.526 . S
C2781 H2765 0.959 . S
C2781 H2766 0.959 . S
C2781 H2767 0.961 . S
C2781 C2780 1.502 . S
C2782 H2768 0.960 . S
C2782 H2769 0.961 . S
C2782 H2770 0.959 . S
C2782 C2780 1.561 . S
C2783 C2780 1.526 . S
C2783 C2784 1.396 . S
C2783 C2788 1.390 . S
C2784 C2778 1.465 . S
C2784 C2783 1.396 . S
C2784 C2785 1.399 1_455 S
C2785 H2771 0.929 . S
C2785 C2784 1.399 1_655 S
C2785 C2786 1.385 . S
C2786 H2772 0.931 . S
C2786 C2785 1.385 . S
C2786 C2787 1.389 1_655 S
C2787 C2786 1.389 1_455 S
C2787 C2788 1.387 . S
C2788 H2773 0.930 . S
C2788 C2783 1.390 . S
C2788 C2787 1.387 . S
H2789 C2801 0.930 . S
H2790 C2803 0.930 . S
H2791 C2804 0.930 . S
H2792 C2808 0.959 . S
H2793 C2808 0.959 . S
H2794 C2808 0.961 . S
H2795 C2809 0.960 . S
H2796 C2809 0.961 . S
H2797 C2809 0.959 . S
H2798 C2812 0.929 . S
H2799 C2813 0.931 . S
H2800 C2815 0.930 . S
C2801 H2789 0.930 . S
C2801 C2802 1.399 . S
C2801 C2806 1.399 . S
C2802 C2801 1.399 . S
C2802 C2803 1.376 . S
C2803 H2790 0.930 . S
C2803 C2802 1.376 . S
C2803 C2804 1.388 . S
C2804 H2791 0.930 . S
C2804 C2803 1.388 . S
C2804 C2805 1.390 . S
C2805 C2804 1.390 . S
C2805 C2806 1.394 . S
C2805 C2811 1.465 . S
C2806 C2801 1.399 . S
C2806 C2805 1.394 . S
C2806 C2807 1.516 . S
C2807 C2806 1.516 . S
C2807 C2808 1.502 . S
C2807 C2809 1.561 . S
C2807 C2810 1.526 . S
C2808 H2792 0.959 . S
C2808 H2793 0.959 . S
C2808 H2794 0.961 . S
C2808 C2807 1.502 . S
C2809 H2795 0.960 . S
C2809 H2796 0.961 . S
C2809 H2797 0.959 . S
C2809 C2807 1.561 . S
C2810 C2807 1.526 . S
C2810 C2811 1.396 . S
C2810 C2815 1.390 . S
C2811 C2805 1.465 . S
C2811 C2810 1.396 . S
C2811 C2812 1.399 . S
C2812 H2798 0.929 . S
C2812 C2811 1.399 . S
C2812 C2813 1.385 . S
C2813 H2799 0.931 . S
C2813 C2812 1.385 . S
C2813 C2814 1.389 . S
C2814 C2813 1.389 . S
C2814 C2815 1.387 . S
C2815 H2800 0.930 . S
C2815 C2810 1.390 . S
C2815 C2814 1.387 . S
H2816 C2828 0.930 . S
H2817 C2830 0.930 . S
H2818 C2831 0.930 . S
H2819 C2835 0.959 . S
H2820 C2835 0.959 . S
H2821 C2835 0.961 . S
H2822 C2836 0.960 . S
H2823 C2836 0.961 . S
H2824 C2836 0.959 . S
H2825 C2839 0.929 . S
H2826 C2840 0.931 . S
H2827 C2842 0.930 . S
C2828 H2816 0.930 . S
C2828 C2829 1.399 . S
C2828 C2833 1.399 . S
C2829 C2828 1.399 . S
C2829 C2830 1.376 . S
C2830 H2817 0.930 . S
C2830 C2829 1.376 . S
C2830 C2831 1.388 . S
C2831 H2818 0.930 . S
C2831 C2830 1.388 . S
C2831 C2832 1.390 . S
C2832 C2831 1.390 . S
C2832 C2833 1.394 . S
C2832 C2838 1.465 . S
C2833 C2828 1.399 . S
C2833 C2832 1.394 . S
C2833 C2834 1.516 . S
C2834 C2833 1.516 . S
C2834 C2835 1.502 . S
C2834 C2836 1.561 . S
C2834 C2837 1.526 . S
C2835 H2819 0.959 . S
C2835 H2820 0.959 . S
C2835 H2821 0.961 . S
C2835 C2834 1.502 . S
C2836 H2822 0.960 . S
C2836 H2823 0.961 . S
C2836 H2824 0.959 . S
C2836 C2834 1.561 . S
C2837 C2834 1.526 . S
C2837 C2838 1.396 . S
C2837 C2842 1.390 . S
C2838 C2832 1.465 . S
C2838 C2837 1.396 . S
C2838 C2839 1.399 . S
C2839 H2825 0.929 . S
C2839 C2838 1.399 . S
C2839 C2840 1.385 . S
C2840 H2826 0.931 . S
C2840 C2839 1.385 . S
C2840 C2841 1.389 . S
C2841 C2840 1.389 . S
C2841 C2842 1.387 . S
C2842 H2827 0.930 . S
C2842 C2837 1.390 . S
C2842 C2841 1.387 . S
H2843 C2855 0.930 . S
H2844 C2857 0.930 . S
H2845 C2858 0.930 . S
H2846 C2862 0.959 . S
H2847 C2862 0.959 . S
H2848 C2862 0.961 . S
H2849 C2863 0.960 . S
H2850 C2863 0.961 . S
H2851 C2863 0.959 . S
H2852 C2866 0.929 . S
H2853 C2867 0.931 . S
H2854 C2869 0.930 . S
C2855 H2843 0.930 . S
C2855 C2856 1.399 . S
C2855 C2860 1.399 . S
C2856 C2855 1.399 . S
C2856 C2857 1.376 . S
C2857 H2844 0.930 . S
C2857 C2856 1.376 . S
C2857 C2858 1.388 . S
C2858 H2845 0.930 . S
C2858 C2857 1.388 . S
C2858 C2859 1.390 . S
C2859 C2858 1.390 . S
C2859 C2860 1.394 . S
C2859 C2865 1.465 . S
C2860 C2855 1.399 . S
C2860 C2859 1.394 . S
C2860 C2861 1.516 . S
C2861 C2860 1.516 . S
C2861 C2862 1.502 . S
C2861 C2863 1.561 . S
C2861 C2864 1.526 . S
C2862 H2846 0.959 . S
C2862 H2847 0.959 . S
C2862 H2848 0.961 . S
C2862 C2861 1.502 . S
C2863 H2849 0.960 . S
C2863 H2850 0.961 . S
C2863 H2851 0.959 . S
C2863 C2861 1.561 . S
C2864 C2861 1.526 . S
C2864 C2865 1.396 . S
C2864 C2869 1.390 . S
C2865 C2859 1.465 . S
C2865 C2864 1.396 . S
C2865 C2866 1.399 . S
C2866 H2852 0.929 . S
C2866 C2865 1.399 . S
C2866 C2867 1.385 . S
C2867 H2853 0.931 . S
C2867 C2866 1.385 . S
C2867 C2868 1.389 . S
C2868 C2867 1.389 . S
C2868 C2869 1.387 . S
C2869 H2854 0.930 . S
C2869 C2864 1.390 . S
C2869 C2868 1.387 . S
H2870 C2882 0.930 . S
H2871 C2884 0.930 . S
H2872 C2885 0.930 . S
H2873 C2889 0.959 . S
H2874 C2889 0.959 . S
H2875 C2889 0.961 . S
H2876 C2890 0.960 . S
H2877 C2890 0.961 . S
H2878 C2890 0.959 . S
H2879 C2893 0.929 . S
H2880 C2894 0.931 . S
H2881 C2896 0.930 1_455 S
C2882 H2870 0.930 . S
C2882 C2883 1.399 . S
C2882 C2887 1.399 . S
C2883 C2882 1.399 . S
C2883 C2884 1.376 . S
C2884 H2871 0.930 . S
C2884 C2883 1.376 . S
C2884 C2885 1.388 . S
C2885 H2872 0.930 . S
C2885 C2884 1.388 . S
C2885 C2886 1.390 . S
C2886 C2885 1.390 . S
C2886 C2887 1.394 . S
C2886 C2892 1.465 . S
C2887 C2882 1.399 . S
C2887 C2886 1.394 . S
C2887 C2888 1.516 . S
C2888 C2887 1.516 . S
C2888 C2889 1.502 1_655 S
C2888 C2890 1.561 . S
C2888 C2891 1.526 . S
C2889 H2873 0.959 . S
C2889 H2874 0.959 . S
C2889 H2875 0.961 . S
C2889 C2888 1.502 1_455 S
C2890 H2876 0.960 . S
C2890 H2877 0.961 . S
C2890 H2878 0.959 . S
C2890 C2888 1.561 . S
C2891 C2888 1.526 . S
C2891 C2892 1.396 . S
C2891 C2896 1.390 . S
C2892 C2886 1.465 . S
C2892 C2891 1.396 . S
C2892 C2893 1.399 . S
C2893 H2879 0.929 . S
C2893 C2892 1.399 . S
C2893 C2894 1.385 . S
C2894 H2880 0.931 . S
C2894 C2893 1.385 . S
C2894 C2895 1.389 . S
C2895 C2894 1.389 . S
C2895 C2896 1.387 . S
C2896 H2881 0.930 1_655 S
C2896 C2891 1.390 . S
C2896 C2895 1.387 . S
H2897 C2909 0.930 . S
H2898 C2911 0.930 . S
H2899 C2912 0.930 . S
H2900 C2916 0.959 . S
H2901 C2916 0.959 . S
H2902 C2916 0.961 . S
H2903 C2917 0.960 . S
H2904 C2917 0.961 . S
H2905 C2917 0.959 . S
H2906 C2920 0.929 . S
H2907 C2921 0.931 . S
H2908 C2923 0.930 . S
C2909 H2897 0.930 . S
C2909 C2910 1.399 . S
C2909 C2914 1.399 . S
C2910 C2909 1.399 . S
C2910 C2911 1.376 . S
C2911 H2898 0.930 . S
C2911 C2910 1.376 . S
C2911 C2912 1.388 . S
C2912 H2899 0.930 . S
C2912 C2911 1.388 . S
C2912 C2913 1.390 . S
C2913 C2912 1.390 . S
C2913 C2914 1.394 . S
C2913 C2919 1.465 . S
C2914 C2909 1.399 . S
C2914 C2913 1.394 . S
C2914 C2915 1.516 . S
C2915 C2914 1.516 . S
C2915 C2916 1.502 . S
C2915 C2917 1.561 . S
C2915 C2918 1.526 . S
C2916 H2900 0.959 . S
C2916 H2901 0.959 . S
C2916 H2902 0.961 . S
C2916 C2915 1.502 . S
C2917 H2903 0.960 . S
C2917 H2904 0.961 . S
C2917 H2905 0.959 . S
C2917 C2915 1.561 . S
C2918 C2915 1.526 . S
C2918 C2919 1.396 . S
C2918 C2923 1.390 . S
C2919 C2913 1.465 . S
C2919 C2918 1.396 . S
C2919 C2920 1.399 . S
C2920 H2906 0.929 . S
C2920 C2919 1.399 . S
C2920 C2921 1.385 . S
C2921 H2907 0.931 . S
C2921 C2920 1.385 . S
C2921 C2922 1.389 . S
C2922 C2921 1.389 . S
C2922 C2923 1.387 . S
C2923 H2908 0.930 . S
C2923 C2918 1.390 . S
C2923 C2922 1.387 . S
H2924 C2936 0.930 . S
H2925 C2938 0.930 . S
H2926 C2939 0.930 . S
H2927 C2943 0.959 . S
H2928 C2943 0.959 . S
H2929 C2943 0.961 . S
H2930 C2944 0.960 . S
H2931 C2944 0.961 . S
H2932 C2944 0.959 . S
H2933 C2947 0.929 . S
H2934 C2948 0.931 . S
H2935 C2950 0.930 . S
C2936 H2924 0.930 . S
C2936 C2937 1.399 . S
C2936 C2941 1.399 . S
C2937 C2936 1.399 . S
C2937 C2938 1.376 . S
C2938 H2925 0.930 . S
C2938 C2937 1.376 . S
C2938 C2939 1.388 . S
C2939 H2926 0.930 . S
C2939 C2938 1.388 . S
C2939 C2940 1.390 . S
C2940 C2939 1.390 . S
C2940 C2941 1.394 . S
C2940 C2946 1.465 . S
C2941 C2936 1.399 . S
C2941 C2940 1.394 . S
C2941 C2942 1.516 . S
C2942 C2941 1.516 . S
C2942 C2943 1.502 . S
C2942 C2944 1.561 . S
C2942 C2945 1.526 . S
C2943 H2927 0.959 . S
C2943 H2928 0.959 . S
C2943 H2929 0.961 . S
C2943 C2942 1.502 . S
C2944 H2930 0.960 . S
C2944 H2931 0.961 . S
C2944 H2932 0.959 . S
C2944 C2942 1.561 . S
C2945 C2942 1.526 . S
C2945 C2946 1.396 . S
C2945 C2950 1.390 . S
C2946 C2940 1.465 . S
C2946 C2945 1.396 . S
C2946 C2947 1.399 . S
C2947 H2933 0.929 . S
C2947 C2946 1.399 . S
C2947 C2948 1.385 . S
C2948 H2934 0.931 . S
C2948 C2947 1.385 . S
C2948 C2949 1.389 . S
C2949 C2948 1.389 . S
C2949 C2950 1.387 . S
C2950 H2935 0.930 . S
C2950 C2945 1.390 . S
C2950 C2949 1.387 . S
H2951 C2963 0.930 . S
H2952 C2965 0.930 . S
H2953 C2966 0.930 . S
H2954 C2970 0.959 . S
H2955 C2970 0.959 . S
H2956 C2970 0.961 . S
H2957 C2971 0.960 . S
H2958 C2971 0.961 . S
H2959 C2971 0.959 . S
H2960 C2974 0.929 . S
H2961 C2975 0.931 . S
H2962 C2977 0.930 . S
C2963 H2951 0.930 . S
C2963 C2964 1.399 . S
C2963 C2968 1.399 . S
C2964 C2963 1.399 . S
C2964 C2965 1.376 . S
C2965 H2952 0.930 . S
C2965 C2964 1.376 . S
C2965 C2966 1.388 . S
C2966 H2953 0.930 . S
C2966 C2965 1.388 . S
C2966 C2967 1.390 . S
C2967 C2966 1.390 . S
C2967 C2968 1.394 . S
C2967 C2973 1.465 . S
C2968 C2963 1.399 . S
C2968 C2967 1.394 . S
C2968 C2969 1.516 . S
C2969 C2968 1.516 . S
C2969 C2970 1.502 . S
C2969 C2971 1.561 . S
C2969 C2972 1.526 . S
C2970 H2954 0.959 . S
C2970 H2955 0.959 . S
C2970 H2956 0.961 . S
C2970 C2969 1.502 . S
C2971 H2957 0.960 . S
C2971 H2958 0.961 . S
C2971 H2959 0.959 . S
C2971 C2969 1.561 . S
C2972 C2969 1.526 . S
C2972 C2973 1.396 . S
C2972 C2977 1.390 . S
C2973 C2967 1.465 . S
C2973 C2972 1.396 . S
C2973 C2974 1.399 . S
C2974 H2960 0.929 . S
C2974 C2973 1.399 . S
C2974 C2975 1.385 . S
C2975 H2961 0.931 . S
C2975 C2974 1.385 . S
C2975 C2976 1.389 . S
C2976 C2975 1.389 . S
C2976 C2977 1.387 . S
C2977 H2962 0.930 . S
C2977 C2972 1.390 . S
C2977 C2976 1.387 . S
H2978 C2990 0.930 . S
H2979 C2992 0.930 . S
H2980 C2993 0.930 . S
H2981 C2997 0.959 . S
H2982 C2997 0.959 . S
H2983 C2997 0.961 . S
H2984 C2998 0.960 . S
H2985 C2998 0.961 . S
H2986 C2998 0.959 . S
H2987 C3001 0.929 . S
H2988 C3002 0.931 . S
H2989 C3004 0.930 . S
C2990 H2978 0.930 . S
C2990 C2991 1.399 . S
C2990 C2995 1.399 . S
C2991 C2990 1.399 . S
C2991 C2992 1.376 . S
C2992 H2979 0.930 . S
C2992 C2991 1.376 . S
C2992 C2993 1.388 . S
C2993 H2980 0.930 . S
C2993 C2992 1.388 . S
C2993 C2994 1.390 . S
C2994 C2993 1.390 . S
C2994 C2995 1.394 . S
C2994 C3000 1.465 . S
C2995 C2990 1.399 . S
C2995 C2994 1.394 . S
C2995 C2996 1.516 . S
C2996 C2995 1.516 . S
C2996 C2997 1.502 . S
C2996 C2998 1.561 . S
C2996 C2999 1.526 . S
C2997 H2981 0.959 . S
C2997 H2982 0.959 . S
C2997 H2983 0.961 . S
C2997 C2996 1.502 . S
C2998 H2984 0.960 . S
C2998 H2985 0.961 . S
C2998 H2986 0.959 . S
C2998 C2996 1.561 . S
C2999 C2996 1.526 . S
C2999 C3000 1.396 . S
C2999 C3004 1.390 . S
C3000 C2994 1.465 . S
C3000 C2999 1.396 . S
C3000 C3001 1.399 . S
C3001 H2987 0.929 . S
C3001 C3000 1.399 . S
C3001 C3002 1.385 . S
C3002 H2988 0.931 . S
C3002 C3001 1.385 . S
C3002 C3003 1.389 . S
C3003 C3002 1.389 . S
C3003 C3004 1.387 . S
C3004 H2989 0.930 . S
C3004 C2999 1.390 . S
C3004 C3003 1.387 . S
H3005 C3017 0.930 . S
H3006 C3019 0.930 . S
H3007 C3020 0.930 . S
H3008 C3024 0.959 . S
H3009 C3024 0.959 . S
H3010 C3024 0.961 . S
H3011 C3025 0.960 . S
H3012 C3025 0.961 . S
H3013 C3025 0.959 . S
H3014 C3028 0.929 . S
H3015 C3029 0.931 . S
H3016 C3031 0.930 . S
C3017 H3005 0.930 . S
C3017 C3018 1.399 . S
C3017 C3022 1.399 . S
C3018 C3017 1.399 . S
C3018 C3019 1.376 . S
C3019 H3006 0.930 . S
C3019 C3018 1.376 . S
C3019 C3020 1.388 . S
C3020 H3007 0.930 . S
C3020 C3019 1.388 . S
C3020 C3021 1.390 . S
C3021 C3020 1.390 . S
C3021 C3022 1.394 . S
C3021 C3027 1.465 . S
C3022 C3017 1.399 . S
C3022 C3021 1.394 . S
C3022 C3023 1.516 . S
C3023 C3022 1.516 . S
C3023 C3024 1.502 . S
C3023 C3025 1.561 . S
C3023 C3026 1.526 . S
C3024 H3008 0.959 . S
C3024 H3009 0.959 . S
C3024 H3010 0.961 . S
C3024 C3023 1.502 . S
C3025 H3011 0.960 . S
C3025 H3012 0.961 . S
C3025 H3013 0.959 . S
C3025 C3023 1.561 . S
C3026 C3023 1.526 . S
C3026 C3027 1.396 . S
C3026 C3031 1.390 . S
C3027 C3021 1.465 . S
C3027 C3026 1.396 . S
C3027 C3028 1.399 . S
C3028 H3014 0.929 . S
C3028 C3027 1.399 . S
C3028 C3029 1.385 . S
C3029 H3015 0.931 . S
C3029 C3028 1.385 . S
C3029 C3030 1.389 . S
C3030 C3029 1.389 . S
C3030 C3031 1.387 . S
C3031 H3016 0.930 . S
C3031 C3026 1.390 . S
C3031 C3030 1.387 . S
H3032 C3044 0.930 . S
H3033 C3046 0.930 . S
H3034 C3047 0.930 . S
H3035 C3051 0.959 . S
H3036 C3051 0.959 . S
H3037 C3051 0.961 . S
H3038 C3052 0.960 . S
H3039 C3052 0.961 . S
H3040 C3052 0.959 . S
H3041 C3055 0.929 . S
H3042 C3056 0.931 . S
H3043 C3058 0.930 . S
C3044 H3032 0.930 . S
C3044 C3045 1.399 . S
C3044 C3049 1.399 . S
C3045 C3044 1.399 . S
C3045 C3046 1.376 . S
C3046 H3033 0.930 . S
C3046 C3045 1.376 . S
C3046 C3047 1.388 . S
C3047 H3034 0.930 . S
C3047 C3046 1.388 . S
C3047 C3048 1.390 . S
C3048 C3047 1.390 . S
C3048 C3049 1.394 . S
C3048 C3054 1.465 . S
C3049 C3044 1.399 . S
C3049 C3048 1.394 . S
C3049 C3050 1.516 . S
C3050 C3049 1.516 . S
C3050 C3051 1.502 . S
C3050 C3052 1.561 . S
C3050 C3053 1.526 . S
C3051 H3035 0.959 . S
C3051 H3036 0.959 . S
C3051 H3037 0.961 . S
C3051 C3050 1.502 . S
C3052 H3038 0.960 . S
C3052 H3039 0.961 . S
C3052 H3040 0.959 . S
C3052 C3050 1.561 . S
C3053 C3050 1.526 . S
C3053 C3054 1.396 . S
C3053 C3058 1.390 . S
C3054 C3048 1.465 . S
C3054 C3053 1.396 . S
C3054 C3055 1.399 . S
C3055 H3041 0.929 . S
C3055 C3054 1.399 . S
C3055 C3056 1.385 . S
C3056 H3042 0.931 . S
C3056 C3055 1.385 . S
C3056 C3057 1.389 . S
C3057 C3056 1.389 . S
C3057 C3058 1.387 . S
C3058 H3043 0.930 . S
C3058 C3053 1.390 . S
C3058 C3057 1.387 . S
H3059 C3071 0.930 . S
H3060 C3073 0.930 . S
H3061 C3074 0.930 . S
H3062 C3078 0.937 1_545 S
H3063 C3078 0.959 1_545 S
H3064 C3078 0.961 . S
H3065 C3079 0.960 . S
H3066 C3079 0.961 . S
H3067 C3079 0.959 . S
H3068 C3082 0.929 . S
H3069 C3083 0.931 . S
H3070 C3085 0.930 . S
C3071 H3059 0.930 . S
C3071 C3072 1.399 . S
C3071 C3076 1.399 . S
C3072 C3071 1.399 . S
C3072 C3073 1.376 . S
C3073 H3060 0.930 . S
C3073 C3072 1.376 . S
C3073 C3074 1.388 . S
C3074 H3061 0.930 . S
C3074 C3073 1.388 . S
C3074 C3075 1.390 . S
C3075 C3074 1.390 . S
C3075 C3076 1.394 . S
C3075 C3081 1.465 . S
C3076 C3071 1.399 . S
C3076 C3075 1.394 . S
C3076 C3077 1.516 . S
C3077 C3076 1.516 . S
C3077 C3078 1.502 . S
C3077 C3079 1.561 . S
C3077 C3080 1.526 . S
C3078 H3062 0.937 1_565 S
C3078 H3063 0.959 1_565 S
C3078 H3064 0.961 . S
C3078 C3077 1.502 . S
C3079 H3065 0.960 . S
C3079 H3066 0.961 . S
C3079 H3067 0.959 . S
C3079 C3077 1.561 . S
C3080 C3077 1.526 . S
C3080 C3081 1.396 . S
C3080 C3085 1.390 . S
C3081 C3075 1.465 . S
C3081 C3080 1.396 . S
C3081 C3082 1.399 . S
C3082 H3068 0.929 . S
C3082 C3081 1.399 . S
C3082 C3083 1.385 . S
C3083 H3069 0.931 . S
C3083 C3082 1.385 . S
C3083 C3084 1.389 . S
C3084 C3083 1.389 . S
C3084 C3085 1.387 . S
C3085 H3070 0.930 . S
C3085 C3080 1.390 . S
C3085 C3084 1.387 . S
H3086 C3098 0.930 . S
H3087 C3100 0.930 . S
H3088 C3101 0.930 . S
H3089 C3105 0.959 . S
H3090 C3105 0.959 . S
H3091 C3105 0.961 . S
H3092 C3106 0.960 . S
H3093 C3106 0.961 . S
H3094 C3106 0.959 . S
H3095 C3109 0.929 . S
H3096 C3110 0.931 . S
H3097 C3112 0.930 . S
C3098 H3086 0.930 . S
C3098 C3099 1.399 . S
C3098 C3103 1.399 . S
C3099 C3098 1.399 . S
C3099 C3100 1.376 . S
C3100 H3087 0.930 . S
C3100 C3099 1.376 . S
C3100 C3101 1.388 . S
C3101 H3088 0.930 . S
C3101 C3100 1.388 . S
C3101 C3102 1.390 . S
C3102 C3101 1.390 . S
C3102 C3103 1.394 . S
C3102 C3108 1.465 . S
C3103 C3098 1.399 . S
C3103 C3102 1.394 . S
C3103 C3104 1.516 . S
C3104 C3103 1.516 . S
C3104 C3105 1.502 . S
C3104 C3106 1.561 . S
C3104 C3107 1.526 . S
C3105 H3089 0.959 . S
C3105 H3090 0.959 . S
C3105 H3091 0.961 . S
C3105 C3104 1.502 . S
C3106 H3092 0.960 . S
C3106 H3093 0.961 . S
C3106 H3094 0.959 . S
C3106 C3104 1.561 . S
C3107 C3104 1.526 . S
C3107 C3108 1.396 . S
C3107 C3112 1.390 . S
C3108 C3102 1.465 . S
C3108 C3107 1.396 . S
C3108 C3109 1.399 . S
C3109 H3095 0.929 . S
C3109 C3108 1.399 . S
C3109 C3110 1.385 . S
C3110 H3096 0.931 . S
C3110 C3109 1.385 . S
C3110 C3111 1.389 . S
C3111 C3110 1.389 . S
C3111 C3112 1.387 . S
C3112 H3097 0.930 . S
C3112 C3107 1.390 . S
C3112 C3111 1.387 . S
H3113 C3125 0.930 . S
H3114 C3127 0.930 . S
H3115 C3128 0.930 . S
H3116 C3132 0.959 . S
H3117 C3132 0.959 . S
H3118 C3132 0.961 . S
H3119 C3133 0.960 . S
H3120 C3133 0.961 . S
H3121 C3133 0.959 . S
H3122 C3136 0.929 . S
H3123 C3137 0.931 . S
H3124 C3139 0.930 . S
C3125 H3113 0.930 . S
C3125 C3126 1.399 . S
C3125 C3130 1.399 . S
C3126 C3125 1.399 . S
C3126 C3127 1.376 1_554 S
C3127 H3114 0.930 . S
C3127 C3126 1.376 1_556 S
C3127 C3128 1.388 . S
C3128 H3115 0.930 . S
C3128 C3127 1.388 . S
C3128 C3129 1.390 1_556 S
C3129 C3128 1.390 1_554 S
C3129 C3130 1.394 . S
C3129 C3135 1.465 . S
C3130 C3125 1.399 . S
C3130 C3129 1.394 . S
C3130 C3131 1.516 . S
C3131 C3130 1.516 . S
C3131 C3132 1.502 . S
C3131 C3133 1.561 . S
C3131 C3134 1.526 . S
C3132 H3116 0.959 . S
C3132 H3117 0.959 . S
C3132 H3118 0.961 . S
C3132 C3131 1.502 . S
C3133 H3119 0.960 . S
C3133 H3120 0.961 . S
C3133 H3121 0.959 . S
C3133 C3131 1.561 . S
C3134 C3131 1.526 . S
C3134 C3135 1.396 . S
C3134 C3139 1.390 . S
C3135 C3129 1.465 . S
C3135 C3134 1.396 . S
C3135 C3136 1.399 1_554 S
C3136 H3122 0.929 . S
C3136 C3135 1.399 1_556 S
C3136 C3137 1.385 . S
C3137 H3123 0.931 . S
C3137 C3136 1.385 . S
C3137 C3138 1.389 1_556 S
C3138 C3137 1.389 1_554 S
C3138 C3139 1.387 . S
C3139 H3124 0.930 . S
C3139 C3134 1.390 . S
C3139 C3138 1.387 . S
H3140 C3152 0.930 . S
H3141 C3154 0.930 . S
H3142 C3155 0.930 . S
H3143 C3159 0.959 . S
H3144 C3159 0.959 . S
H3145 C3159 0.961 . S
H3146 C3160 0.960 . S
H3147 C3160 0.961 . S
H3148 C3160 0.959 . S
H3149 C3163 0.929 . S
H3150 C3164 0.931 . S
H3151 C3166 0.930 . S
C3152 H3140 0.930 . S
C3152 C3153 1.399 . S
C3152 C3157 1.399 . S
C3153 C3152 1.399 . S
C3153 C3154 1.376 . S
C3154 H3141 0.930 . S
C3154 C3153 1.376 . S
C3154 C3155 1.388 . S
C3155 H3142 0.930 . S
C3155 C3154 1.388 . S
C3155 C3156 1.390 . S
C3156 C3155 1.390 . S
C3156 C3157 1.394 . S
C3156 C3162 1.465 . S
C3157 C3152 1.399 . S
C3157 C3156 1.394 . S
C3157 C3158 1.516 . S
C3158 C3157 1.516 . S
C3158 C3159 1.502 . S
C3158 C3160 1.561 . S
C3158 C3161 1.526 . S
C3159 H3143 0.959 . S
C3159 H3144 0.959 . S
C3159 H3145 0.961 . S
C3159 C3158 1.502 . S
C3160 H3146 0.960 . S
C3160 H3147 0.961 . S
C3160 H3148 0.959 . S
C3160 C3158 1.561 . S
C3161 C3158 1.526 . S
C3161 C3162 1.396 . S
C3161 C3166 1.390 . S
C3162 C3156 1.465 . S
C3162 C3161 1.396 . S
C3162 C3163 1.399 . S
C3163 H3149 0.929 . S
C3163 C3162 1.399 . S
C3163 C3164 1.385 . S
C3164 H3150 0.931 . S
C3164 C3163 1.385 . S
C3164 C3165 1.389 . S
C3165 C3164 1.389 . S
C3165 C3166 1.387 . S
C3166 H3151 0.930 . S
C3166 C3161 1.390 . S
C3166 C3165 1.387 . S
H3167 C3179 0.930 . S
H3168 C3181 0.930 . S
H3169 C3182 0.930 . S
H3170 C3186 0.959 . S
H3171 C3186 0.959 . S
H3172 C3186 0.961 . S
H3173 C3187 0.960 . S
H3174 C3187 0.961 . S
H3175 C3187 0.959 . S
H3176 C3190 0.929 . S
H3177 C3191 0.931 . S
H3178 C3193 0.930 1_556 S
C3179 H3167 0.930 . S
C3179 C3180 1.399 . S
C3179 C3184 1.399 . S
C3180 C3179 1.399 . S
C3180 C3181 1.376 . S
C3181 H3168 0.930 . S
C3181 C3180 1.376 . S
C3181 C3182 1.388 . S
C3182 H3169 0.930 . S
C3182 C3181 1.388 . S
C3182 C3183 1.390 . S
C3183 C3182 1.390 . S
C3183 C3184 1.394 . S
C3183 C3189 1.465 . S
C3184 C3179 1.399 . S
C3184 C3183 1.394 . S
C3184 C3185 1.525 . S
C3185 C3184 1.525 . S
C3185 C3186 1.493 1_554 S
C3185 C3187 1.557 1_554 S
C3185 C3188 1.532 . S
C3186 H3170 0.959 . S
C3186 H3171 0.959 . S
C3186 H3172 0.961 . S
C3186 C3185 1.493 1_556 S
C3187 H3173 0.960 . S
C3187 H3174 0.961 . S
C3187 H3175 0.959 . S
C3187 C3185 1.557 1_556 S
C3188 C3185 1.532 . S
C3188 C3189 1.396 . S
C3188 C3193 1.390 . S
C3189 C3183 1.465 . S
C3189 C3188 1.396 . S
C3189 C3190 1.399 . S
C3190 H3176 0.929 . S
C3190 C3189 1.399 . S
C3190 C3191 1.385 . S
C3191 H3177 0.931 . S
C3191 C3190 1.385 . S
C3191 C3192 1.389 . S
C3192 C3191 1.389 . S
C3192 C3193 1.387 . S
C3193 H3178 0.930 1_554 S
C3193 C3188 1.390 . S
C3193 C3192 1.387 . S
H3194 C3206 0.930 . S
H3195 C3208 0.930 . S
H3196 C3209 0.930 . S
H3197 C3213 0.959 . S
H3198 C3213 0.959 . S
H3199 C3213 0.961 . S
H3200 C3214 0.960 . S
H3201 C3214 0.961 . S
H3202 C3214 0.959 . S
H3203 C3217 0.929 . S
H3204 C3218 0.931 . S
H3205 C3220 0.930 . S
C3206 H3194 0.930 . S
C3206 C3207 1.399 . S
C3206 C3211 1.399 . S
C3207 C3206 1.399 . S
C3207 C3208 1.376 . S
C3208 H3195 0.930 . S
C3208 C3207 1.376 . S
C3208 C3209 1.388 . S
C3209 H3196 0.930 . S
C3209 C3208 1.388 . S
C3209 C3210 1.390 . S
C3210 C3209 1.390 . S
C3210 C3211 1.394 . S
C3210 C3216 1.465 . S
C3211 C3206 1.399 . S
C3211 C3210 1.394 . S
C3211 C3212 1.516 . S
C3212 C3211 1.516 . S
C3212 C3213 1.502 . S
C3212 C3214 1.561 . S
C3212 C3215 1.526 . S
C3213 H3197 0.959 . S
C3213 H3198 0.959 . S
C3213 H3199 0.961 . S
C3213 C3212 1.502 . S
C3214 H3200 0.960 . S
C3214 H3201 0.961 . S
C3214 H3202 0.959 . S
C3214 C3212 1.561 . S
C3215 C3212 1.526 . S
C3215 C3216 1.396 . S
C3215 C3220 1.390 . S
C3216 C3210 1.465 . S
C3216 C3215 1.396 . S
C3216 C3217 1.399 . S
C3217 H3203 0.929 . S
C3217 C3216 1.399 . S
C3217 C3218 1.385 . S
C3218 H3204 0.931 . S
C3218 C3217 1.385 . S
C3218 C3219 1.389 . S
C3219 C3218 1.389 . S
C3219 C3220 1.387 . S
C3220 H3205 0.930 . S
C3220 C3215 1.390 . S
C3220 C3219 1.387 . S
H3221 C3233 0.930 . S
H3222 C3235 0.930 . S
H3223 C3236 0.930 . S
H3224 C3240 0.959 . S
H3225 C3240 0.959 . S
H3226 C3240 0.961 . S
H3227 C3241 0.960 . S
H3228 C3241 0.961 . S
H3229 C3241 0.959 . S
H3230 C3244 0.929 . S
H3231 C3245 0.931 . S
H3232 C3247 0.930 . S
C3233 H3221 0.930 . S
C3233 C3234 1.399 . S
C3233 C3238 1.399 . S
C3234 C3233 1.399 . S
C3234 C3235 1.376 . S
C3235 H3222 0.930 . S
C3235 C3234 1.376 . S
C3235 C3236 1.388 . S
C3236 H3223 0.930 . S
C3236 C3235 1.388 . S
C3236 C3237 1.390 . S
C3237 C3236 1.390 . S
C3237 C3238 1.394 . S
C3237 C3243 1.465 . S
C3238 C3233 1.399 . S
C3238 C3237 1.394 . S
C3238 C3239 1.516 . S
C3239 C3238 1.516 . S
C3239 C3240 1.502 . S
C3239 C3241 1.561 . S
C3239 C3242 1.526 . S
C3240 H3224 0.959 . S
C3240 H3225 0.959 . S
C3240 H3226 0.961 . S
C3240 C3239 1.502 . S
C3241 H3227 0.960 . S
C3241 H3228 0.961 . S
C3241 H3229 0.959 . S
C3241 C3239 1.561 . S
C3242 C3239 1.526 . S
C3242 C3243 1.396 . S
C3242 C3247 1.390 . S
C3243 C3237 1.465 . S
C3243 C3242 1.396 . S
C3243 C3244 1.399 . S
C3244 H3230 0.929 . S
C3244 C3243 1.399 . S
C3244 C3245 1.385 . S
C3245 H3231 0.931 . S
C3245 C3244 1.385 . S
C3245 C3246 1.389 . S
C3246 C3245 1.389 . S
C3246 C3247 1.387 . S
C3247 H3232 0.930 . S
C3247 C3242 1.390 . S
C3247 C3246 1.387 . S
C669 C111 1.364 . S
C681 C340 1.164 . S
C696 C64 1.496 . S
C708 C375 1.508 . S
C723 C77 1.034 . S
C735 C380 0.871 . S
C762 C405 1.155 . S
C750 C95 1.242 . S
C777 C25 1.293 . S
C789 C425 1.271 . S
C816 C440 1.078 . S
C804 C36 1.082 . S
C843 C475 1.445 . S
C831 C50 1.396 . S
C858 C11 1.312 . S
C870 C480 1.106 . S
C897 C355 1.447 1_655 S
C885 C237 1.479 . S
C912 C245 0.941 . S
C924 C365 1.004 . S
C951 C395 1.335 1_565 S
C939 C279 1.317 1_565 S
C978 C400 1.034 . S
C966 C175 1.142 1_556 S
C993 C231 1.101 . S
C1005 C420 0.971 . S
C1032 C455 1.293 . S
C1020 C251 1.249 . S
C1059 C465 0.964 . S
C1047 C273 1.018 . S
C1086 C495 1.403 . S
C1074 C181 1.434 . S
C1113 C345 1.241 . S
C1101 C165 1.342 . S
C1128 C288 1.636 . S
C1140 C515 1.719 . S
C1167 C525 1.355 . S
C1155 C333 1.463 . S
C1194 C540 1.060 . S
C1182 C316 1.068 . S
C1209 C123 1.318 . S
C1221 C485 1.165 . S
C1236 C137 1.426 . S
C1248 C385 1.317 . S
C1263 C330 1.672 . S
C1275 C575 1.740 . S
C1302 C580 1.031 . S
C1290 C302 1.038 . S
C1329 C338 1.277 . S
C1317 C63 1.457 . S
C1356 C594 1.504 . S
C1344 C106 1.520 . S
C1371 C97 1.051 . S
C1383 C378 0.997 . S
C1398 C81 1.317 . S
C1410 C568 1.308 . S
C1437 C428 1.392 . S
C1425 C13 1.315 . S
C1452 C55 0.964 . S
C1464 C518 1.072 . S
C1491 C474 1.451 1_556 S
C1479 C35 1.483 . S
C1518 C598 1.215 . S
C1506 C21 1.472 . S
C1545 C354 1.587 . S
C1533 C147 1.624 . S
C1572 C588 1.008 . S
C1560 C321 0.875 . S
C1587 C119 1.411 . S
C1599 C394 1.409 . S
C1614 C293 1.203 . S
C1626 C558 1.086 . S
C1641 C153 1.224 . S
C1653 C418 1.076 . S
C1680 C534 1.368 . S
C1668 C315 1.419 . S
C1695 C125 1.033 . S
C1707 C468 0.920 . S
C1722 C287 1.603 . S
C1734 C614 1.529 . S
C1749 C193 1.386 . S
C1761 C348 1.204 . S
C1776 C176 1.755 . S
C1788 C514 1.778 . S
C1803 C263 1.460 . S
C1815 C448 1.337 . S
C1830 C246 1.136 . S
C1842 C538 1.154 . S
C1869 C608 1.270 . S
C1857 C277 1.355 . S
C1884 C221 1.468 . S
C1896 C388 1.355 . S
C1923 C414 1.749 . S
C1911 C260 1.748 . S
C1950 C358 1.005 . S
C1938 C204 1.114 . S
C1965 C83 1.278 . S
C1977 C620 1.219 . S
C2004 C595 1.467 . S
C1992 C92 1.447 . S
C2019 C105 1.033 1_455 S
C2031 C640 0.862 . S
C2046 C67 1.265 . S
C2058 C565 1.209 . S
C2073 C53 1.251 . S
C2085 C505 1.167 . S
C2112 C520 1.040 . S
C2100 C8 1.055 . S
C2139 C555 1.440 . S
C2127 C22 1.395 . S
C2166 C600 1.075 . S
C2154 C39 1.314 . S
C2193 C635 1.410 . S
C2181 C265 1.384 . S
C2208 C189 0.991 . S
C2220 C585 0.860 . S
C2247 C655 1.296 . S
C2235 C209 1.204 . S
C2274 C560 1.000 . S
C2262 C217 1.150 . S
C2301 C500 0.966 . S
C2289 C259 1.102 . S
C2316 C195 1.268 . S
C2328 C535 1.302 . S
C2355 C545 0.978 . S
C2343 C203 1.000 . S
C2370 C223 1.430 . S
C2382 C615 1.476 . S
C2409 C625 1.207 . S
C2397 C319 1.342 . S
C2424 C134 1.649 . S
C2436 C435 1.731 . S
C2463 C445 1.356 . S
C2451 C151 1.463 . S
C2490 C460 1.012 . S
C2478 C162 1.031 . S
C2517 C605 1.191 . S
C2505 C305 1.317 . S
C2532 C291 1.422 1_554 S
C2544 C645 1.332 . S
C2571 C415 1.742 . S
C2559 C148 1.676 . S
C2598 C360 1.032 . S
C2586 C120 1.038 . S
C2613 C91 1.449 . S
C2625 C618 1.316 . S
C2652 C374 1.502 . S
C2640 C78 1.511 . S
C2667 C69 1.000 . S
C2679 C638 1.023 . S
C2694 C109 1.329 . S
C2706 C408 1.253 . S
C2721 C41 1.355 . S
C2733 C508 1.373 . S
C2760 C438 1.075 . S
C2748 C27 0.963 . S
C2775 C7 1.456 . S
C2787 C554 1.419 . S
C2802 C49 1.461 . S
C2814 C478 1.259 . S
C2841 C634 1.514 . S
C2829 C329 1.635 . S
C2856 C167 0.973 . S
C2868 C368 1.000 . S
C2895 C654 1.346 1_655 S
C2883 C301 1.398 . S
C2910 C139 1.181 . S
C2922 C398 1.142 . S
C2937 C335 1.104 . S
C2949 C498 1.212 . S
C2976 C454 1.383 . S
C2964 C161 1.401 . S
C2991 C307 1.030 . S
C3003 C548 0.911 . S
C3030 C494 1.513 . S
C3018 C133 1.607 . S
C3057 C628 1.330 . S
C3045 C249 1.368 . S
C3084 C434 1.734 . S
C3072 C218 1.726 . S
C3099 C235 1.440 . S
C3111 C528 1.426 . S
C3138 C458 1.024 . S
C3126 C190 1.142 . S
C3153 C207 1.385 . S
C3165 C488 1.209 . S
C3180 C179 1.464 . S
C3192 C648 1.344 . S
C3219 C574 1.790 . S
C3207 C232 1.779 . S
C3246 C578 1.145 . S
C3234 C274 1.111 . S
