# Generated by pormake.
# Topology ocu, (6,8)-cn, num edge types: 1
# Building blocks:
#     Node 0, Type 0, BuildingBlock: KUMJIN_clean_sbu_0, # of connection points: 6
#     Node 1, Type 0, BuildingBlock: KUMJIN_clean_sbu_0, # of connection points: 6
#     Node 2, Type 0, BuildingBlock: KUMJIN_clean_sbu_0, # of connection points: 6
#     Node 3, Type 0, BuildingBlock: KUMJIN_clean_sbu_0, # of connection points: 6
#     Node 4, Type 0, BuildingBlock: KUMJIN_clean_sbu_0, # of connection points: 6
#     Node 5, Type 0, BuildingBlock: KUMJIN_clean_sbu_0, # of connection points: 6
#     Node 6, Type 0, BuildingBlock: KUMJIN_clean_sbu_0, # of connection points: 6
#     Node 7, Type 0, BuildingBlock: KUMJIN_clean_sbu_0, # of connection points: 6
#     Node 8, Type 1, BuildingBlock: AJUNOK_clean_sbu_0, # of connection points: 8
#     Node 9, Type 1, BuildingBlock: AJUNOK_clean_sbu_0, # of connection points: 8
#     Node 10, Type 1, BuildingBlock: AJUNOK_clean_sbu_0, # of connection points: 8
#     Node 11, Type 1, BuildingBlock: AJUNOK_clean_sbu_0, # of connection points: 8
#     Node 12, Type 1, BuildingBlock: AJUNOK_clean_sbu_0, # of connection points: 8
#     Node 13, Type 1, BuildingBlock: AJUNOK_clean_sbu_0, # of connection points: 8
#     Edge 14, Type (0, 1), BuildingBlock: ZUJKAS_clean_linker_0, # of connection points: 2
#     Edge 15, Type (0, 1), BuildingBlock: ZUJKAS_clean_linker_0, # of connection points: 2
#     Edge 16, Type (0, 1), BuildingBlock: ZUJKAS_clean_linker_0, # of connection points: 2
#     Edge 17, Type (0, 1), BuildingBlock: ZUJKAS_clean_linker_0, # of connection points: 2
#     Edge 18, Type (0, 1), BuildingBlock: ZUJKAS_clean_linker_0, # of connection points: 2
#     Edge 19, Type (0, 1), BuildingBlock: ZUJKAS_clean_linker_0, # of connection points: 2
#     Edge 20, Type (0, 1), BuildingBlock: ZUJKAS_clean_linker_0, # of connection points: 2
#     Edge 21, Type (0, 1), BuildingBlock: ZUJKAS_clean_linker_0, # of connection points: 2
#     Edge 22, Type (0, 1), BuildingBlock: ZUJKAS_clean_linker_0, # of connection points: 2
#     Edge 23, Type (0, 1), BuildingBlock: ZUJKAS_clean_linker_0, # of connection points: 2
#     Edge 24, Type (0, 1), BuildingBlock: ZUJKAS_clean_linker_0, # of connection points: 2
#     Edge 25, Type (0, 1), BuildingBlock: ZUJKAS_clean_linker_0, # of connection points: 2
#     Edge 26, Type (0, 1), BuildingBlock: ZUJKAS_clean_linker_0, # of connection points: 2
#     Edge 27, Type (0, 1), BuildingBlock: ZUJKAS_clean_linker_0, # of connection points: 2
#     Edge 28, Type (0, 1), BuildingBlock: ZUJKAS_clean_linker_0, # of connection points: 2
#     Edge 29, Type (0, 1), BuildingBlock: ZUJKAS_clean_linker_0, # of connection points: 2
#     Edge 30, Type (0, 1), BuildingBlock: ZUJKAS_clean_linker_0, # of connection points: 2
#     Edge 31, Type (0, 1), BuildingBlock: ZUJKAS_clean_linker_0, # of connection points: 2
#     Edge 32, Type (0, 1), BuildingBlock: ZUJKAS_clean_linker_0, # of connection points: 2
#     Edge 33, Type (0, 1), BuildingBlock: ZUJKAS_clean_linker_0, # of connection points: 2
#     Edge 34, Type (0, 1), BuildingBlock: ZUJKAS_clean_linker_0, # of connection points: 2
#     Edge 35, Type (0, 1), BuildingBlock: ZUJKAS_clean_linker_0, # of connection points: 2
#     Edge 36, Type (0, 1), BuildingBlock: ZUJKAS_clean_linker_0, # of connection points: 2
#     Edge 37, Type (0, 1), BuildingBlock: ZUJKAS_clean_linker_0, # of connection points: 2
#     Edge 38, Type (0, 1), BuildingBlock: ZUJKAS_clean_linker_0, # of connection points: 2
#     Edge 39, Type (0, 1), BuildingBlock: ZUJKAS_clean_linker_0, # of connection points: 2
#     Edge 40, Type (0, 1), BuildingBlock: ZUJKAS_clean_linker_0, # of connection points: 2
#     Edge 41, Type (0, 1), BuildingBlock: ZUJKAS_clean_linker_0, # of connection points: 2
#     Edge 42, Type (0, 1), BuildingBlock: ZUJKAS_clean_linker_0, # of connection points: 2
#     Edge 43, Type (0, 1), BuildingBlock: ZUJKAS_clean_linker_0, # of connection points: 2
#     Edge 44, Type (0, 1), BuildingBlock: ZUJKAS_clean_linker_0, # of connection points: 2
#     Edge 45, Type (0, 1), BuildingBlock: ZUJKAS_clean_linker_0, # of connection points: 2
#     Edge 46, Type (0, 1), BuildingBlock: ZUJKAS_clean_linker_0, # of connection points: 2
#     Edge 47, Type (0, 1), BuildingBlock: ZUJKAS_clean_linker_0, # of connection points: 2
#     Edge 48, Type (0, 1), BuildingBlock: ZUJKAS_clean_linker_0, # of connection points: 2
#     Edge 49, Type (0, 1), BuildingBlock: ZUJKAS_clean_linker_0, # of connection points: 2
#     Edge 50, Type (0, 1), BuildingBlock: ZUJKAS_clean_linker_0, # of connection points: 2
#     Edge 51, Type (0, 1), BuildingBlock: ZUJKAS_clean_linker_0, # of connection points: 2
#     Edge 52, Type (0, 1), BuildingBlock: ZUJKAS_clean_linker_0, # of connection points: 2
#     Edge 53, Type (0, 1), BuildingBlock: ZUJKAS_clean_linker_0, # of connection points: 2
#     Edge 54, Type (0, 1), BuildingBlock: ZUJKAS_clean_linker_0, # of connection points: 2
#     Edge 55, Type (0, 1), BuildingBlock: ZUJKAS_clean_linker_0, # of connection points: 2
#     Edge 56, Type (0, 1), BuildingBlock: ZUJKAS_clean_linker_0, # of connection points: 2
#     Edge 57, Type (0, 1), BuildingBlock: ZUJKAS_clean_linker_0, # of connection points: 2
#     Edge 58, Type (0, 1), BuildingBlock: ZUJKAS_clean_linker_0, # of connection points: 2
#     Edge 59, Type (0, 1), BuildingBlock: ZUJKAS_clean_linker_0, # of connection points: 2
#     Edge 60, Type (0, 1), BuildingBlock: ZUJKAS_clean_linker_0, # of connection points: 2
#     Edge 61, Type (0, 1), BuildingBlock: ZUJKAS_clean_linker_0, # of connection points: 2
# Relax obj value: 0.158
# Max RMSD: 0.259
# Mean RMSD: 0.210
data_MOF--net-ocu--node1-KUMJIN_clean_sbu_0--node2-AJUNOK_clean_sbu_0--edge1-ZUJKAS_clean_linker_0
_symmetry_space_group_name_H-M    P1
_symmetry_Int_Tables_number       1
_symmetry_cell_setting            triclinic
loop_
_symmetry_equiv_pos_as_xyz
'x, y, z'
_cell_length_a     54.283937
_cell_length_b     53.186307
_cell_length_c     48.640124
_cell_angle_alpha  87.732588
_cell_angle_beta   103.59323
_cell_angle_gamma 111.29884
loop_
_atom_site_label
_atom_site_type_symbol
_atom_site_fract_x
_atom_site_fract_y
_atom_site_fract_z
_atom_type_partial_charge
Eu0 Eu 0.2613 0.22946 0.22073 0.0
C1 C 0.32587 0.29138 0.3381 0.0
C2 C 0.32302 0.25499 0.37015 0.0
C3 C 0.36164 0.29745 0.38094 0.0
C4 C 0.31238 0.26532 0.34487 0.0
C5 C 0.35026 0.30804 0.35643 0.0
C6 C 0.34807 0.27094 0.38775 0.0
C7 C 0.34874 0.34513 0.32657 0.0
N8 N 0.3141 0.3011 0.31457 0.0
C9 C 0.32447 0.32784 0.30917 0.0
C10 C 0.36191 0.33509 0.35011 0.0
Eu11 Eu 0.27349 0.27074 0.28554 0.0
N12 N 0.28794 0.25074 0.32775 0.0
C13 C 0.27208 0.22654 0.33588 0.0
C14 C 0.30769 0.22936 0.37752 0.0
C15 C 0.28191 0.21527 0.36053 0.0
H16 H 0.31423 0.33566 0.29104 0.0
H17 H 0.26957 0.19571 0.36638 0.0
H18 H 0.35667 0.26327 0.40713 0.0
H19 H 0.35721 0.36617 0.32187 0.0
H20 H 0.25212 0.21533 0.32305 0.0
H21 H 0.26932 0.30669 0.14192 0.0
H22 H 0.31518 0.22065 0.3967 0.0
H23 H 0.21949 0.165 0.2123 0.0
H24 H 0.28515 0.28545 0.18474 0.0
H25 H 0.17628 0.13602 0.18047 0.0
H26 H 0.38049 0.30984 0.39516 0.0
H27 H 0.2236 0.28367 0.11086 0.0
H28 H 0.18097 0.24222 0.09918 0.0
H29 H 0.38061 0.34857 0.3637 0.0
H30 H 0.15559 0.19554 0.10958 0.0
N31 N 0.24835 0.25097 0.17901 0.0
C32 C 0.26513 0.27504 0.17158 0.0
C33 C 0.23038 0.27425 0.12981 0.0
C34 C 0.21408 0.24872 0.13642 0.0
C35 C 0.25623 0.28725 0.14722 0.0
C36 C 0.22385 0.23741 0.1614 0.0
H37 H 0.15393 0.15555 0.13955 0.0
N38 N 0.22061 0.2006 0.19041 0.0
C39 C 0.18526 0.15723 0.17665 0.0
C40 C 0.2095 0.21133 0.16731 0.0
C41 C 0.20962 0.17365 0.19464 0.0
C42 C 0.17268 0.16835 0.15363 0.0
C43 C 0.18508 0.19559 0.14836 0.0
O44 O 0.27306 0.19533 0.21403 0.0
O45 O 0.28148 0.2374 0.2669 0.0
O46 O 0.31432 0.28407 0.27457 0.0
O47 O 0.30033 0.26633 0.22777 0.0
O48 O 0.2612 0.19739 0.2526 0.0
O49 O 0.29185 0.23361 0.19679 0.0
O50 O 0.26003 0.30407 0.29056 0.0
O51 O 0.25299 0.26252 0.23941 0.0
O52 O 0.22102 0.21472 0.23321 0.0
O53 O 0.23524 0.23325 0.27971 0.0
O54 O 0.27387 0.30255 0.25329 0.0
O55 O 0.24424 0.26694 0.31109 0.0
C56 C 0.27636 0.21327 0.27432 0.0
C57 C 0.28822 0.19435 0.17262 0.0
C58 C 0.30749 0.17101 0.14622 0.0
C59 C 0.30859 0.18428 0.17126 0.0
C60 C 0.28549 0.16775 0.12277 0.0
C61 C 0.26658 0.19096 0.14896 0.0
C62 C 0.26523 0.17764 0.1242 0.0
C63 C 0.31871 0.28169 0.2494 0.0
C64 C 0.28988 0.20849 0.19874 0.0
C65 C 0.17448 0.2072 0.12424 0.0
C66 C 0.18894 0.23377 0.11832 0.0
C67 C 0.25832 0.28659 0.23178 0.0
C68 C 0.24705 0.30713 0.33287 0.0
C69 C 0.22668 0.31727 0.3341 0.0
C70 C 0.22864 0.33209 0.35846 0.0
C71 C 0.25152 0.33687 0.38127 0.0
C72 C 0.26953 0.31204 0.35593 0.0
C73 C 0.27175 0.32693 0.37995 0.0
C74 C 0.21699 0.21703 0.25861 0.0
C75 C 0.24469 0.2915 0.30747 0.0
H76 H 0.32545 0.18718 0.1895 0.0
H77 H 0.28377 0.15726 0.10336 0.0
H78 H 0.25081 0.19864 0.14962 0.0
H79 H 0.24841 0.17498 0.10603 0.0
H80 H 0.20919 0.31326 0.31633 0.0
H81 H 0.25394 0.3486 0.40009 0.0
H82 H 0.28531 0.30434 0.35539 0.0
H83 H 0.28924 0.33078 0.39763 0.0
Eu84 Eu 0.77783 0.22578 0.24825 0.0
C85 C 0.7342 0.29474 0.31264 0.0
C86 C 0.68579 0.2698 0.30564 0.0
C87 C 0.71071 0.29895 0.34806 0.0
C88 C 0.71016 0.27658 0.29657 0.0
C89 C 0.73469 0.30649 0.33835 0.0
C90 C 0.68629 0.28068 0.33171 0.0
C91 C 0.78203 0.33378 0.34185 0.0
N92 N 0.75694 0.30172 0.30259 0.0
C93 C 0.78049 0.32165 0.31619 0.0
C94 C 0.75911 0.32594 0.35316 0.0
Eu95 Eu 0.75299 0.27983 0.2595 0.0
N96 N 0.71036 0.26638 0.27152 0.0
C97 C 0.68662 0.25049 0.25376 0.0
C98 C 0.66154 0.25281 0.28792 0.0
C99 C 0.66195 0.2432 0.26182 0.0
H100 H 0.79831 0.32763 0.30762 0.0
H101 H 0.64326 0.23024 0.24785 0.0
H102 H 0.66782 0.27547 0.33915 0.0
H103 H 0.80088 0.34911 0.35291 0.0
H104 H 0.6866 0.24293 0.23352 0.0
H105 H 0.88707 0.27783 0.25878 0.0
H106 H 0.64235 0.24747 0.29393 0.0
H107 H 0.73298 0.17756 0.20008 0.0
H108 H 0.84394 0.26369 0.27373 0.0
H109 H 0.73018 0.1577 0.15381 0.0
H110 H 0.71071 0.30759 0.36786 0.0
H111 H 0.88791 0.26183 0.21212 0.0
H112 H 0.86237 0.23439 0.16646 0.0
H113 H 0.76034 0.3354 0.37301 0.0
H114 H 0.81965 0.20201 0.13774 0.0
N115 N 0.82024 0.24038 0.23564 0.0
C116 C 0.8439 0.25656 0.25329 0.0
C117 C 0.8688 0.25573 0.21844 0.0
C118 C 0.84462 0.23855 0.20075 0.0
C119 C 0.86845 0.26469 0.24487 0.0
C120 C 0.82041 0.23081 0.21027 0.0
H121 H 0.77032 0.17311 0.13295 0.0
N122 N 0.77402 0.20436 0.20487 0.0
C123 C 0.74896 0.17306 0.16497 0.0
C124 C 0.79652 0.21235 0.19431 0.0
C125 C 0.75064 0.18427 0.19119 0.0
C126 C 0.77164 0.18189 0.15322 0.0
C127 C 0.79595 0.20144 0.16811 0.0
O128 O 0.76475 0.18363 0.25954 0.0
O129 O 0.7492 0.2373 0.26615 0.0
O130 O 0.77225 0.26902 0.30229 0.0
O131 O 0.80186 0.25162 0.28945 0.0
O132 O 0.73352 0.19963 0.24589 0.0
O133 O 0.80535 0.21147 0.27916 0.0
O134 O 0.76688 0.32223 0.2493 0.0
O135 O 0.78128 0.26812 0.24141 0.0
O136 O 0.75794 0.23608 0.20559 0.0
O137 O 0.72866 0.25422 0.21816 0.0
O138 O 0.79736 0.30576 0.26135 0.0
O139 O 0.72651 0.29482 0.22808 0.0
C140 C 0.7282 0.21626 0.25999 0.0
C141 C 0.78255 0.17969 0.30822 0.0
C142 C 0.80202 0.17149 0.35656 0.0
C143 C 0.8042 0.17684 0.32856 0.0
C144 C 0.77794 0.16921 0.36419 0.0
C145 C 0.75831 0.17674 0.31596 0.0
C146 C 0.75611 0.17166 0.34385 0.0
C147 C 0.79398 0.26222 0.30854 0.0
C148 C 0.78657 0.18783 0.27985 0.0
C149 C 0.81972 0.20999 0.15793 0.0
C150 C 0.84404 0.22842 0.17427 0.0
C151 C 0.80231 0.28914 0.24686 0.0
C152 C 0.7506 0.32774 0.20063 0.0
C153 C 0.72851 0.3277 0.17901 0.0
C154 C 0.73196 0.33586 0.15193 0.0
C155 C 0.75788 0.34329 0.14638 0.0
C156 C 0.77653 0.33569 0.19497 0.0
C157 C 0.78003 0.34315 0.16787 0.0
C158 C 0.73647 0.24328 0.19925 0.0
C159 C 0.74561 0.3185 0.22842 0.0
H160 H 0.82303 0.17939 0.32271 0.0
H161 H 0.77586 0.16507 0.38568 0.0
H162 H 0.74119 0.17853 0.30061 0.0
H163 H 0.73745 0.16964 0.34969 0.0
H164 H 0.70847 0.32114 0.18335 0.0
H165 H 0.76115 0.34982 0.12573 0.0
H166 H 0.79405 0.33615 0.21135 0.0
H167 H 0.80003 0.34913 0.1636 0.0
Eu168 Eu 0.74966 0.75351 0.27625 0.0
C169 C 0.79753 0.79908 0.17643 0.0
C170 C 0.7559 0.78992 0.13997 0.0
C171 C 0.79619 0.82882 0.13728 0.0
C172 C 0.77045 0.78341 0.1655 0.0
C173 C 0.81094 0.82145 0.16195 0.0
C174 C 0.7687 0.81311 0.12635 0.0
C175 C 0.85316 0.82562 0.19532 0.0
N176 N 0.8113 0.7912 0.20004 0.0
C177 C 0.83899 0.80317 0.20879 0.0
C178 C 0.839 0.83508 0.17205 0.0
Eu179 Eu 0.78571 0.75335 0.22185 0.0
N180 N 0.75878 0.76092 0.17894 0.0
C181 C 0.7333 0.74311 0.16706 0.0
C182 C 0.72921 0.77243 0.12842 0.0
C183 C 0.71804 0.74867 0.14178 0.0
H184 H 0.84992 0.79582 0.22681 0.0
H185 H 0.69765 0.7347 0.1327 0.0
H186 H 0.75776 0.81859 0.10688 0.0
H187 H 0.87496 0.83554 0.20282 0.0
H188 H 0.72457 0.72473 0.17712 0.0
H189 H 0.83354 0.79236 0.37133 0.0
H190 H 0.71735 0.77671 0.10886 0.0
H191 H 0.69548 0.69384 0.26978 0.0
H192 H 0.80156 0.79614 0.32843 0.0
H193 H 0.68473 0.64939 0.28994 0.0
H194 H 0.80605 0.84613 0.12603 0.0
H195 H 0.82868 0.7478 0.39112 0.0
H196 H 0.8017 0.69832 0.38932 0.0
H197 H 0.85005 0.85234 0.16149 0.0
H198 H 0.76134 0.65936 0.36708 0.0
N199 N 0.77954 0.75346 0.32117 0.0
C200 C 0.79943 0.7762 0.33554 0.0
C201 C 0.81465 0.74918 0.3717 0.0
C202 C 0.79299 0.72627 0.35838 0.0
C203 C 0.81752 0.77431 0.36053 0.0
C204 C 0.77534 0.72909 0.33298 0.0
H205 H 0.71755 0.64102 0.33039 0.0
N206 N 0.73561 0.71052 0.2965 0.0
C207 C 0.7042 0.66523 0.29836 0.0
C208 C 0.75279 0.70703 0.32026 0.0
C209 C 0.71074 0.69052 0.28661 0.0
C210 C 0.72272 0.66062 0.32122 0.0
C211 C 0.74705 0.68179 0.33292 0.0
O212 O 0.70766 0.74612 0.27797 0.0
O213 O 0.74915 0.75981 0.22983 0.0
O214 O 0.80287 0.79637 0.23975 0.0
O215 O 0.78592 0.79272 0.28039 0.0
O216 O 0.74428 0.78914 0.25286 0.0
O217 O 0.74083 0.77867 0.30404 0.0
O218 O 0.81923 0.74064 0.2191 0.0
O219 O 0.78008 0.73893 0.26468 0.0
O220 O 0.7224 0.72202 0.24112 0.0
O221 O 0.75489 0.71202 0.22558 0.0
O222 O 0.81969 0.75931 0.2609 0.0
O223 O 0.77995 0.72224 0.19043 0.0
C224 C 0.74525 0.78207 0.22829 0.0
C225 C 0.69975 0.76185 0.31904 0.0
C226 C 0.67503 0.77835 0.34559 0.0
C227 C 0.68909 0.78127 0.32401 0.0
C228 C 0.67178 0.75547 0.36202 0.0
C229 C 0.69649 0.73938 0.33579 0.0
C230 C 0.68247 0.73622 0.35713 0.0
C231 C 0.80152 0.80632 0.2635 0.0
C232 C 0.71459 0.76595 0.29658 0.0
C233 C 0.76524 0.67868 0.35736 0.0
C234 C 0.7882 0.70086 0.37004 0.0
C235 C 0.80491 0.74561 0.27761 0.0
C236 C 0.81846 0.72504 0.17408 0.0
C237 C 0.83205 0.70724 0.17278 0.0
C238 C 0.84425 0.7076 0.15011 0.0
C239 C 0.84302 0.72637 0.12911 0.0
C240 C 0.81738 0.74347 0.15283 0.0
C241 C 0.82972 0.74418 0.13055 0.0
C242 C 0.72983 0.70546 0.22835 0.0
C243 C 0.80517 0.72387 0.19743 0.0
H244 H 0.69216 0.79887 0.3113 0.0
H245 H 0.6607 0.75224 0.37847 0.0
H246 H 0.70477 0.72437 0.33239 0.0
H247 H 0.67983 0.71875 0.36995 0.0
H248 H 0.83262 0.69279 0.18905 0.0
H249 H 0.85255 0.72745 0.11166 0.0
H250 H 0.80684 0.75714 0.15333 0.0
H251 H 0.82889 0.75852 0.11427 0.0
Eu252 Eu 0.28406 0.7259 0.25215 0.0
C253 C 0.24255 0.8098 0.18195 0.0
C254 C 0.28375 0.84943 0.18724 0.0
C255 C 0.2477 0.84147 0.14437 0.0
C256 C 0.26808 0.82527 0.19767 0.0
C257 C 0.23168 0.81816 0.15552 0.0
C258 C 0.27375 0.85705 0.16019 0.0
C259 C 0.18898 0.78156 0.15464 0.0
N260 N 0.22758 0.78753 0.19341 0.0
C261 C 0.20068 0.77419 0.18097 0.0
C262 C 0.2047 0.80337 0.14161 0.0
Eu263 Eu 0.24896 0.77533 0.23728 0.0
N264 N 0.27705 0.81736 0.22376 0.0
C265 C 0.30054 0.83384 0.24145 0.0
C266 C 0.30867 0.86556 0.20463 0.0
C267 C 0.31686 0.85795 0.23204 0.0
H268 H 0.18856 0.7573 0.19107 0.0
H269 H 0.33583 0.87055 0.24588 0.0
H270 H 0.28565 0.87535 0.15166 0.0
H271 H 0.16789 0.77044 0.14444 0.0
H272 H 0.30731 0.82814 0.26259 0.0
H273 H 0.19761 0.62985 0.24027 0.0
H274 H 0.32137 0.8842 0.19737 0.0
H275 H 0.34373 0.74408 0.29922 0.0
H276 H 0.22523 0.67375 0.22566 0.0
H277 H 0.36462 0.72937 0.34479 0.0
H278 H 0.23986 0.84804 0.12393 0.0
H279 H 0.21314 0.61356 0.28706 0.0
H280 H 0.24885 0.62095 0.33249 0.0
H281 H 0.19557 0.80914 0.12127 0.0
H282 H 0.29416 0.64824 0.36121 0.0
N283 N 0.25606 0.68301 0.26412 0.0
C284 C 0.23244 0.66709 0.24614 0.0
C285 C 0.22535 0.63301 0.28083 0.0
C286 C 0.25013 0.64882 0.29863 0.0
C287 C 0.21659 0.64209 0.25436 0.0
C288 C 0.26534 0.67393 0.28944 0.0
H289 H 0.33765 0.68852 0.36581 0.0
N290 N 0.30521 0.7126 0.29542 0.0
C291 C 0.34371 0.71802 0.33414 0.0
C292 C 0.29063 0.68933 0.30571 0.0
C293 C 0.33188 0.72628 0.30842 0.0
C294 C 0.3284 0.69499 0.34596 0.0
C295 C 0.30169 0.68 0.33145 0.0
O296 O 0.32151 0.72583 0.24309 0.0
O297 O 0.28249 0.76326 0.23154 0.0
O298 O 0.23997 0.75282 0.19562 0.0
O299 O 0.25234 0.7155 0.20989 0.0
O300 O 0.32071 0.76403 0.25141 0.0
O301 O 0.28244 0.69737 0.22027 0.0
O302 O 0.21222 0.77562 0.2478 0.0
O303 O 0.2505 0.73796 0.25804 0.0
O304 O 0.29235 0.74802 0.29403 0.0
O305 O 0.28086 0.78574 0.27937 0.0
O306 O 0.21223 0.73751 0.23862 0.0
O307 O 0.25137 0.80618 0.26705 0.0
C308 C 0.30742 0.77733 0.23587 0.0
C309 C 0.32015 0.68419 0.22673 0.0
C310 C 0.33784 0.65693 0.20384 0.0
C311 C 0.32719 0.67743 0.20298 0.0
C312 C 0.34127 0.64318 0.22892 0.0
C313 C 0.3236 0.67036 0.25162 0.0
C314 C 0.33417 0.64992 0.25267 0.0
C315 C 0.24092 0.72896 0.19073 0.0
C316 C 0.30884 0.70544 0.22466 0.0
C317 C 0.28615 0.6556 0.34133 0.0
C318 C 0.26039 0.64004 0.32494 0.0
C319 C 0.22552 0.72401 0.25382 0.0
C320 C 0.21276 0.818 0.26048 0.0
C321 C 0.20569 0.82583 0.28366 0.0
C322 C 0.19252 0.84448 0.28082 0.0
C323 C 0.18701 0.85555 0.25431 0.0
C324 C 0.20748 0.8294 0.23431 0.0
C325 C 0.19466 0.84816 0.2313 0.0
C326 C 0.2916 0.77203 0.29884 0.0
C327 C 0.22511 0.7975 0.26417 0.0
H328 H 0.32395 0.6879 0.18365 0.0
H329 H 0.34967 0.62743 0.23027 0.0
H330 H 0.31813 0.67527 0.27011 0.0
H331 H 0.33689 0.6393 0.27192 0.0
H332 H 0.21056 0.81734 0.30393 0.0
H333 H 0.17644 0.8696 0.25117 0.0
H334 H 0.21306 0.82375 0.21627 0.0
H335 H 0.19037 0.85676 0.21101 0.0
Eu336 Eu 0.27375 0.72552 0.74806 0.0
C337 C 0.21049 0.78301 0.79888 0.0
C338 C 0.16366 0.75359 0.78095 0.0
C339 C 0.17608 0.78101 0.82422 0.0
C340 C 0.19097 0.76458 0.77827 0.0
C341 C 0.20317 0.79155 0.82195 0.0
C342 C 0.15637 0.76211 0.80375 0.0
C343 C 0.2498 0.82133 0.83865 0.0
N344 N 0.23667 0.79258 0.79664 0.0
C345 C 0.25604 0.81236 0.81552 0.0
C346 C 0.22327 0.81069 0.84206 0.0
Eu347 Eu 0.24676 0.77852 0.75626 0.0
N348 N 0.19874 0.75641 0.75652 0.0
C349 C 0.17978 0.73555 0.73824 0.0
C350 C 0.14443 0.73375 0.76113 0.0
C351 C 0.15263 0.72447 0.73995 0.0
H352 H 0.27665 0.82126 0.81302 0.0
H353 H 0.13816 0.70814 0.72526 0.0
H354 H 0.13554 0.75392 0.80593 0.0
H355 H 0.26545 0.83657 0.85374 0.0
H356 H 0.18488 0.72556 0.72303 0.0
H357 H 0.37982 0.78686 0.7489 0.0
H358 H 0.12341 0.72478 0.76261 0.0
H359 H 0.23343 0.67042 0.70701 0.0
H360 H 0.33886 0.77008 0.76737 0.0
H361 H 0.22962 0.64856 0.66138 0.0
H362 H 0.17017 0.78732 0.84178 0.0
H363 H 0.37913 0.77014 0.70196 0.0
H364 H 0.35308 0.73965 0.65842 0.0
H365 H 0.21842 0.81768 0.86 0.0
H366 H 0.31174 0.70248 0.63404 0.0
N367 N 0.31445 0.74337 0.73149 0.0
C368 C 0.33795 0.76207 0.74704 0.0
C369 C 0.36091 0.76249 0.71 0.0
C370 C 0.33707 0.74296 0.6944 0.0
C371 C 0.36143 0.77185 0.73657 0.0
C372 C 0.31404 0.73339 0.70609 0.0
H373 H 0.26566 0.66809 0.63512 0.0
N374 N 0.27009 0.70284 0.70538 0.0
C375 C 0.24688 0.66674 0.6697 0.0
C376 C 0.29094 0.71264 0.69241 0.0
C377 C 0.24904 0.67917 0.69542 0.0
C378 C 0.26721 0.67786 0.65492 0.0
C379 C 0.28999 0.70068 0.66662 0.0
O380 O 0.26295 0.68394 0.76122 0.0
O381 O 0.24944 0.73973 0.77034 0.0
O382 O 0.27578 0.776 0.79785 0.0
O383 O 0.30102 0.75229 0.78684 0.0
O384 O 0.23162 0.70022 0.75424 0.0
O385 O 0.30334 0.71276 0.77806 0.0
O386 O 0.27905 0.81842 0.76345 0.0
O387 O 0.27946 0.7689 0.74316 0.0
O388 O 0.2416 0.72439 0.70788 0.0
O389 O 0.2225 0.75696 0.71324 0.0
O390 O 0.25831 0.78903 0.71457 0.0
O391 O 0.237 0.81459 0.74669 0.0
C392 C 0.22919 0.71838 0.76903 0.0
C393 C 0.28269 0.68245 0.80979 0.0
C394 C 0.30452 0.67946 0.85903 0.0
C395 C 0.306 0.68456 0.83078 0.0
C396 C 0.2794 0.67288 0.86626 0.0
C397 C 0.25758 0.67526 0.81728 0.0
C398 C 0.25606 0.6708 0.84541 0.0
C399 C 0.29668 0.76781 0.80424 0.0
C400 C 0.28537 0.68923 0.78068 0.0
C401 C 0.31221 0.71115 0.65403 0.0
C402 C 0.33576 0.73225 0.66794 0.0
C403 C 0.27793 0.77999 0.71951 0.0
C404 C 0.27071 0.8485 0.72839 0.0
C405 C 0.25085 0.85444 0.70808 0.0
C406 C 0.25748 0.8698 0.68493 0.0
C407 C 0.28446 0.87924 0.68211 0.0
C408 C 0.29776 0.85854 0.72558 0.0
C409 C 0.3045 0.8737 0.70247 0.0
C410 C 0.22402 0.73678 0.69904 0.0
C411 C 0.26261 0.83059 0.75134 0.0
H412 H 0.32541 0.69042 0.82509 0.0
H413 H 0.27766 0.66867 0.88784 0.0
H414 H 0.23912 0.67315 0.80154 0.0
H415 H 0.23669 0.66549 0.85102 0.0
H416 H 0.22989 0.84647 0.70987 0.0
H417 H 0.29012 0.89117 0.66446 0.0
H418 H 0.31361 0.85435 0.74095 0.0
H419 H 0.3253 0.8811 0.70028 0.0
Eu420 Eu 0.24789 0.24614 0.77161 0.0
C421 C 0.3121 0.31266 0.68426 0.0
C422 C 0.27709 0.30848 0.64143 0.0
C423 C 0.31898 0.34799 0.65044 0.0
C424 C 0.28669 0.29834 0.66731 0.0
C425 C 0.32872 0.33744 0.67582 0.0
C426 C 0.29319 0.33356 0.63331 0.0
C427 C 0.36397 0.33872 0.71734 0.0
N428 N 0.32096 0.30186 0.70857 0.0
C429 C 0.34676 0.31406 0.72478 0.0
C430 C 0.35485 0.35059 0.69287 0.0
Eu431 Eu 0.29068 0.26022 0.71975 0.0
N432 N 0.27183 0.27399 0.67556 0.0
C433 C 0.24791 0.258 0.65817 0.0
C434 C 0.25186 0.29281 0.6242 0.0
C435 C 0.23735 0.26733 0.63249 0.0
H436 H 0.35392 0.305 0.74373 0.0
H437 H 0.21804 0.25486 0.6191 0.0
H438 H 0.2861 0.34174 0.61357 0.0
H439 H 0.38426 0.34854 0.73047 0.0
H440 H 0.23656 0.23825 0.66431 0.0
H441 H 0.32364 0.25524 0.87096 0.0
H442 H 0.24369 0.29993 0.60424 0.0
H443 H 0.18401 0.20238 0.75276 0.0
H444 H 0.30302 0.27046 0.82593 0.0
H445 H 0.15458 0.1595 0.76841 0.0
H446 H 0.33139 0.36707 0.64365 0.0
H447 H 0.30003 0.21005 0.8871 0.0
H448 H 0.25839 0.16752 0.87969 0.0
H449 H 0.36826 0.36965 0.6871 0.0
H450 H 0.21218 0.14154 0.85193 0.0
N451 N 0.26863 0.23379 0.81586 0.0
C452 C 0.29252 0.25065 0.83259 0.0
C453 C 0.29096 0.21655 0.86717 0.0
C454 C 0.26559 0.20012 0.85085 0.0
C455 C 0.3043 0.2421 0.85818 0.0
C456 C 0.25478 0.2095 0.82501 0.0
H457 H 0.17308 0.13864 0.8107 0.0
N458 N 0.21877 0.20525 0.78546 0.0
C459 C 0.17551 0.16913 0.78004 0.0
C460 C 0.22894 0.1948 0.80935 0.0
C461 C 0.19218 0.19339 0.77125 0.0
C462 C 0.18606 0.15738 0.80386 0.0
C463 C 0.21297 0.17042 0.81911 0.0
O464 O 0.2127 0.25667 0.77279 0.0
O465 O 0.25478 0.26466 0.73092 0.0
O466 O 0.29603 0.30054 0.73807 0.0
O467 O 0.28408 0.28611 0.78063 0.0
O468 O 0.21499 0.24384 0.73191 0.0
O469 O 0.25113 0.27628 0.80276 0.0
O470 O 0.32572 0.24915 0.71953 0.0
O471 O 0.28313 0.24078 0.75995 0.0
O472 O 0.23948 0.20574 0.75052 0.0
O473 O 0.2544 0.2206 0.70925 0.0
O474 O 0.32305 0.26244 0.75988 0.0
O475 O 0.28835 0.23183 0.68726 0.0
C476 C 0.2306 0.25885 0.71662 0.0
C477 C 0.21129 0.27228 0.81701 0.0
C478 C 0.18685 0.2913 0.84127 0.0
C479 C 0.19983 0.29176 0.81923 0.0
C480 C 0.18533 0.27087 0.86082 0.0
C481 C 0.20949 0.2521 0.83668 0.0
C482 C 0.19651 0.25142 0.85844 0.0
C483 C 0.29362 0.30531 0.76352 0.0
C484 C 0.22564 0.27371 0.79454 0.0
C485 C 0.22404 0.16037 0.8442 0.0
C486 C 0.25035 0.17516 0.86 0.0
C487 C 0.30721 0.24677 0.77454 0.0
C488 C 0.32922 0.23554 0.67543 0.0
C489 C 0.33997 0.21556 0.673 0.0
C490 C 0.35446 0.21674 0.65216 0.0
C491 C 0.35823 0.23841 0.63403 0.0
C492 C 0.33325 0.25698 0.65721 0.0
C493 C 0.34775 0.25838 0.63664 0.0
C494 C 0.24205 0.20131 0.72491 0.0
C495 C 0.31344 0.23337 0.69671 0.0
H496 H 0.20148 0.30752 0.80416 0.0
H497 H 0.17519 0.26975 0.87778 0.0
H498 H 0.21826 0.23703 0.83532 0.0
H499 H 0.19515 0.23577 0.87357 0.0
H500 H 0.33661 0.19886 0.68696 0.0
H501 H 0.36957 0.24007 0.61802 0.0
H502 H 0.32509 0.27249 0.65879 0.0
H503 H 0.35084 0.27499 0.62263 0.0
Eu504 Eu 0.78521 0.2325 0.75414 0.0
C505 C 0.73222 0.30566 0.67843 0.0
C506 C 0.76834 0.34932 0.68041 0.0
C507 C 0.73128 0.33428 0.63827 0.0
C508 C 0.75655 0.32481 0.69282 0.0
C509 C 0.71905 0.31038 0.6512 0.0
C510 C 0.75586 0.35373 0.65286 0.0
C511 C 0.68163 0.26854 0.65253 0.0
N512 N 0.72079 0.28293 0.69162 0.0
C513 C 0.69535 0.26491 0.67966 0.0
C514 C 0.69367 0.29122 0.63809 0.0
Eu515 Eu 0.74592 0.27771 0.73686 0.0
N516 N 0.76811 0.31995 0.7194 0.0
C517 C 0.79051 0.33942 0.73544 0.0
C518 C 0.79198 0.36893 0.69631 0.0
C519 C 0.80298 0.36405 0.72404 0.0
H520 H 0.68606 0.24729 0.69073 0.0
H521 H 0.82107 0.37922 0.73663 0.0
H522 H 0.76477 0.37234 0.64287 0.0
H523 H 0.66182 0.25384 0.64277 0.0
H524 H 0.7992 0.3358 0.75687 0.0
H525 H 0.70588 0.13266 0.75169 0.0
H526 H 0.80155 0.38809 0.68758 0.0
H527 H 0.84707 0.25609 0.79706 0.0
H528 H 0.72919 0.17624 0.73316 0.0
H529 H 0.87227 0.24579 0.84271 0.0
H530 H 0.7216 0.33818 0.61725 0.0
H531 H 0.72528 0.12093 0.79944 0.0
H532 H 0.76288 0.13363 0.84374 0.0
H533 H 0.68294 0.29405 0.61713 0.0
H534 H 0.80818 0.16469 0.86883 0.0
N535 N 0.76117 0.18998 0.77044 0.0
C536 C 0.73794 0.17167 0.7541 0.0
C537 C 0.73544 0.14038 0.79161 0.0
C538 C 0.75986 0.15866 0.80777 0.0
C539 C 0.72455 0.14684 0.76456 0.0
C540 C 0.77255 0.18348 0.79631 0.0
H541 H 0.84942 0.20631 0.86833 0.0
N542 N 0.81026 0.2234 0.79751 0.0
C543 C 0.85129 0.23307 0.83397 0.0
C544 C 0.79789 0.20086 0.81039 0.0
C545 C 0.837 0.23883 0.80815 0.0
C546 C 0.83829 0.21084 0.84841 0.0
C547 C 0.81144 0.19404 0.83635 0.0
O548 O 0.82168 0.23398 0.7416 0.0
O549 O 0.78164 0.26886 0.73258 0.0
O550 O 0.74345 0.25722 0.69613 0.0
O551 O 0.7506 0.21862 0.71412 0.0
O552 O 0.82052 0.27166 0.75229 0.0
O553 O 0.78288 0.20255 0.72332 0.0
O554 O 0.70847 0.27562 0.74746 0.0
O555 O 0.75035 0.24228 0.75991 0.0
O556 O 0.79261 0.25593 0.795 0.0
O557 O 0.77898 0.29199 0.77804 0.0
O558 O 0.71123 0.23841 0.73971 0.0
O559 O 0.74617 0.30923 0.76436 0.0
C560 C 0.80623 0.28419 0.73705 0.0
C561 C 0.82218 0.19226 0.72821 0.0
C562 C 0.84207 0.16632 0.70652 0.0
C563 C 0.82846 0.18455 0.70441 0.0
C564 C 0.84886 0.15559 0.73294 0.0
C565 C 0.82881 0.18125 0.75431 0.0
C566 C 0.84208 0.16293 0.7566 0.0
C567 C 0.74213 0.23222 0.69288 0.0
C568 C 0.809 0.21209 0.72524 0.0
C569 C 0.79825 0.17013 0.84872 0.0
C570 C 0.77248 0.15245 0.83443 0.0
C571 C 0.72587 0.22683 0.75604 0.0
C572 C 0.70526 0.31719 0.75675 0.0
C573 C 0.69773 0.32565 0.77927 0.0
C574 C 0.68246 0.34247 0.77477 0.0
C575 C 0.67528 0.35106 0.74728 0.0
C576 C 0.69811 0.326 0.72954 0.0
C577 C 0.68322 0.34296 0.72489 0.0
C578 C 0.7908 0.27978 0.79845 0.0
C579 C 0.71997 0.29864 0.76214 0.0
H580 H 0.82262 0.19277 0.68423 0.0
H581 H 0.85979 0.14188 0.73549 0.0
H582 H 0.82391 0.18688 0.77285 0.0
H583 H 0.84738 0.15461 0.77683 0.0
H584 H 0.70384 0.31907 0.8003 0.0
H585 H 0.66312 0.36365 0.74293 0.0
H586 H 0.70377 0.31963 0.71194 0.0
H587 H 0.67755 0.34959 0.70382 0.0
Eu588 Eu 0.76362 0.73135 0.71955 0.0
C589 C 0.82749 0.79502 0.83592 0.0
C590 C 0.82614 0.759 0.8682 0.0
C591 C 0.86371 0.80227 0.87856 0.0
C592 C 0.8149 0.7688 0.84286 0.0
C593 C 0.85162 0.81234 0.85408 0.0
C594 C 0.85101 0.77561 0.88559 0.0
C595 C 0.84826 0.84898 0.82429 0.0
N596 N 0.81496 0.80425 0.81251 0.0
C597 C 0.82424 0.83106 0.80711 0.0
C598 C 0.86225 0.8395 0.84768 0.0
Eu599 Eu 0.77488 0.77285 0.78376 0.0
N600 N 0.79054 0.75362 0.826 0.0
C601 C 0.77529 0.72934 0.83452 0.0
C602 C 0.81148 0.73327 0.87593 0.0
C603 C 0.78572 0.71858 0.85925 0.0
H604 H 0.81334 0.83845 0.78915 0.0
H605 H 0.77385 0.69897 0.86543 0.0
H606 H 0.86008 0.76836 0.905 0.0
H607 H 0.85589 0.87009 0.81957 0.0
H608 H 0.75533 0.71772 0.82193 0.0
H609 H 0.77008 0.80821 0.64035 0.0
H610 H 0.81942 0.72497 0.89519 0.0
H611 H 0.72327 0.66647 0.71114 0.0
H612 H 0.78646 0.78755 0.68332 0.0
H613 H 0.68046 0.63672 0.67932 0.0
H614 H 0.88239 0.81517 0.89266 0.0
H615 H 0.72458 0.78433 0.60927 0.0
H616 H 0.6826 0.74221 0.59766 0.0
H617 H 0.88072 0.85347 0.86113 0.0
H618 H 0.65813 0.69532 0.6082 0.0
N619 N 0.75021 0.75243 0.67764 0.0
C620 C 0.76655 0.77673 0.67016 0.0
C621 C 0.73161 0.77513 0.62828 0.0
C622 C 0.71578 0.74942 0.63496 0.0
C623 C 0.75733 0.78862 0.6457 0.0
C624 C 0.72586 0.73842 0.66003 0.0
H625 H 0.65743 0.6556 0.63832 0.0
N626 N 0.72343 0.70182 0.68919 0.0
C627 C 0.68896 0.65797 0.67546 0.0
C628 C 0.712 0.71222 0.66601 0.0
C629 C 0.71309 0.67483 0.69344 0.0
C630 C 0.67599 0.66872 0.65239 0.0
C631 C 0.6878 0.69604 0.64706 0.0
O632 O 0.77643 0.69769 0.71398 0.0
O633 O 0.78404 0.73999 0.76566 0.0
O634 O 0.81554 0.78784 0.77232 0.0
O635 O 0.8021 0.76872 0.72615 0.0
O636 O 0.76372 0.69981 0.75196 0.0
O637 O 0.79389 0.73548 0.69522 0.0
O638 O 0.76011 0.80531 0.78845 0.0
O639 O 0.75427 0.76392 0.73773 0.0
O640 O 0.72326 0.7161 0.73179 0.0
O641 O 0.73715 0.73474 0.77824 0.0
O642 O 0.7742 0.80415 0.75112 0.0
O643 O 0.74575 0.76831 0.80964 0.0
C644 C 0.77907 0.71596 0.77342 0.0
C645 C 0.79097 0.69579 0.67239 0.0
C646 C 0.81004 0.6714 0.64698 0.0
C647 C 0.81128 0.68548 0.67154 0.0
C648 C 0.78793 0.66757 0.6235 0.0
C649 C 0.76924 0.69185 0.64869 0.0
C650 C 0.76773 0.67772 0.62442 0.0
C651 C 0.82003 0.78515 0.74728 0.0
C652 C 0.7927 0.71063 0.69806 0.0
C653 C 0.67686 0.70732 0.62287 0.0
C654 C 0.69081 0.73401 0.61686 0.0
C655 C 0.75888 0.78783 0.72979 0.0
C656 C 0.74747 0.80821 0.83101 0.0
C657 C 0.72705 0.81838 0.83196 0.0
C658 C 0.72869 0.833 0.85631 0.0
C659 C 0.7513 0.83764 0.87938 0.0
C660 C 0.76972 0.81302 0.8543 0.0
C661 C 0.77164 0.82775 0.8783 0.0
C662 C 0.71909 0.71829 0.75716 0.0
C663 C 0.7453 0.79253 0.80573 0.0
H664 H 0.82821 0.6888 0.6898 0.0
H665 H 0.78607 0.65646 0.60446 0.0
H666 H 0.75351 0.69971 0.64894 0.0
H667 H 0.75084 0.67462 0.60623 0.0
H668 H 0.70973 0.81449 0.81401 0.0
H669 H 0.75341 0.84917 0.89822 0.0
H670 H 0.78554 0.80531 0.85398 0.0
H671 H 0.78893 0.83149 0.89618 0.0
Cd672 Cd 0.97458 0.97702 0.5231 0.0
Cd673 Cd 0.04924 0.02054 0.47937 0.0
C674 C 1.00028 0.93592 0.55231 0.0
N675 N 0.99269 0.94404 0.52589 0.0
C676 C 1.01185 0.91731 0.50631 0.0
C677 C 0.02226 0.91078 0.53371 0.0
C678 C 0.0153 0.9192 0.55677 0.0
C679 C 0.99694 0.93419 0.50284 0.0
H680 H 0.99602 0.94376 0.57011 0.0
H681 H 0.98984 0.94039 0.482 0.0
C682 C 0.98311 0.99038 0.44949 0.0
C683 C 0.02539 0.06404 0.45734 0.0
C684 C 0.01529 0.08468 0.45564 0.0
C685 C 0.01854 0.09959 0.48033 0.0
C686 C 0.03259 0.09334 0.5063 0.0
C687 C 0.04212 0.07208 0.50704 0.0
N688 N 0.03786 0.05774 0.48275 0.0
H689 H 0.0227 0.0525 0.43834 0.0
H690 H 0.0524 0.06673 0.52694 0.0
C691 C 0.04663 0.96274 0.46531 0.0
N692 N 0.06403 0.98498 0.48177 0.0
C693 C 0.10144 0.97095 0.48377 0.0
C694 C 0.08415 0.94852 0.46547 0.0
C695 C 0.05624 0.94398 0.45711 0.0
C696 C 0.0909 0.98921 0.49153 0.0
H697 H 0.0257 0.96066 0.45672 0.0
H698 H 0.10459 0.00788 0.50313 0.0
C699 C 0.03671 0.00728 0.5479 0.0
C700 C 0.93 0.94674 0.54562 0.0
N701 N 0.9665 0.01651 0.51948 0.0
C702 C 0.98499 0.03902 0.53477 0.0
C703 C 0.97711 0.06015 0.53993 0.0
C704 C 0.94997 0.058 0.52925 0.0
C705 C 0.93193 0.03535 0.51165 0.0
C706 C 0.94065 0.01457 0.50722 0.0
C707 C 0.0893 0.05011 0.45134 0.0
O708 O 0.98036 0.98589 0.47468 0.0
O709 O 1.00666 1.00114 0.44468 0.0
O710 O 0.0318 0.00647 0.52111 0.0
O711 O 0.01666 0.99692 0.55909 0.0
O712 O 0.93064 0.94018 0.52097 0.0
O713 O 0.9491 0.96764 0.55825 0.0
O714 O 0.09337 0.0551 0.47786 0.0
O715 O 0.06722 0.03161 0.43904 0.0
H716 H 1.00523 0.03979 0.54478 0.0
H717 H 0.92623 0.99595 0.49604 0.0
H718 H 0.01657 0.91069 0.48808 0.0
H719 H 0.02317 0.91471 0.57823 0.0
H720 H 1.00408 0.08807 0.43521 0.0
H721 H 0.03577 0.10439 0.52584 0.0
H722 H 0.12316 0.97548 0.49021 0.0
H723 H 0.04221 0.92683 0.44318 0.0
H724 H 0.99171 0.07726 0.55356 0.0
H725 H 0.91071 0.03258 0.50346 0.0
Cd726 Cd 0.51726 0.97863 0.04454 0.0
Cd727 Cd 0.51647 0.02818 0.94951 0.0
C728 C 0.57481 0.97203 0.07943 0.0
N729 N 0.55135 0.95949 0.05958 0.0
C730 C 0.56169 0.9192 0.06067 0.0
C731 C 0.58578 0.93124 0.08172 0.0
C732 C 0.5924 0.95828 0.09075 0.0
C733 C 0.54472 0.93361 0.05007 0.0
H734 H 0.57942 0.99239 0.08724 0.0
H735 H 0.52571 0.92379 0.03484 0.0
C736 C 0.48378 0.96881 0.97076 0.0
C737 C 0.46302 0.03741 0.90932 0.0
C738 C 0.44553 0.05117 0.89776 0.0
C739 C 0.44735 0.07461 0.91192 0.0
C740 C 0.46634 0.08283 0.9382 0.0
C741 C 0.48337 0.06846 0.949 0.0
N742 N 0.48167 0.04637 0.93439 0.0
H743 H 0.46246 0.02021 0.8977 0.0
H744 H 0.49869 0.07555 0.96861 0.0
C745 C 0.52353 0.98712 0.9059 0.0
N746 N 0.53212 0.99738 0.93313 0.0
C747 C 0.56479 0.97588 0.94354 0.0
C748 C 0.55684 0.96538 0.91541 0.0
C749 C 0.53569 0.97099 0.89654 0.0
C750 C 0.55215 0.99191 0.95193 0.0
H751 H 0.50767 0.99196 0.89131 0.0
H752 H 0.5588 1.00064 0.97335 0.0
C753 C 0.54974 0.04062 0.02558 0.0
C754 C 0.47561 0.94009 0.06593 0.0
N755 N 0.50288 0.00911 0.06344 0.0
C756 C 0.51193 0.0186 0.09095 0.0
C757 C 0.50013 0.03449 0.1014 0.0
C758 C 0.47883 0.04055 0.08336 0.0
C759 C 0.4704 0.03079 0.05494 0.0
C760 C 0.48273 0.01506 0.04543 0.0
C761 C 0.55506 0.06752 0.92511 0.0
O762 O 0.50123 0.9806 0.99311 0.0
O763 O 0.48253 0.98203 0.94838 0.0
O764 O 0.53517 0.03002 0.00142 0.0
O765 O 0.54889 0.02602 0.04702 0.0
O766 O 0.47349 0.94114 0.03929 0.0
O767 O 0.49743 0.95601 0.08191 0.0
O768 O 0.5575 0.06775 0.95178 0.0
O769 O 0.53411 0.04957 0.91005 0.0
H770 H 0.52785 0.01334 0.10489 0.0
H771 H 0.47572 0.00689 0.02378 0.0
H772 H 0.55574 0.89865 0.05258 0.0
H773 H 0.61046 0.96844 0.10716 0.0
H774 H 0.43156 0.04414 0.87732 0.0
H775 H 0.46835 0.10048 0.95019 0.0
H776 H 0.58126 0.97253 0.95874 0.0
H777 H 0.52873 0.96314 0.87475 0.0
H778 H 0.50749 0.04178 0.12338 0.0
H779 H 0.45379 0.03447 0.04033 0.0
Cd780 Cd 0.02194 0.47946 0.05327 0.0
Cd781 Cd 0.01963 0.52522 0.95023 0.0
C782 C 0.07833 0.47068 0.0872 0.0
N783 N 0.05501 0.4589 0.06691 0.0
C784 C 0.06427 0.41805 0.06721 0.0
C785 C 0.08815 0.42929 0.08875 0.0
C786 C 0.0953 0.45626 0.09834 0.0
C787 C 0.04795 0.43317 0.05668 0.0
H788 H 0.08325 0.49093 0.09555 0.0
H789 H 0.02909 0.42403 0.04094 0.0
C790 C 0.98185 0.46944 0.98061 0.0
C791 C 0.99211 0.55979 0.90542 0.0
C792 C 0.97548 0.57419 0.89326 0.0
C793 C 0.95239 0.57169 0.90324 0.0
C794 C 0.94636 0.55371 0.92492 0.0
C795 C 0.96365 0.53974 0.93657 0.0
N796 N 0.98621 0.54319 0.9269 0.0
H797 H 1.01027 0.56249 0.89823 0.0
H798 H 0.95953 0.52682 0.95399 0.0
C799 C 0.02981 0.49418 0.8985 0.0
N800 N 0.02943 0.49382 0.9264 0.0
C801 C 0.04849 0.45934 0.93366 0.0
C802 C 0.05077 0.46029 0.9054 0.0
C803 C 0.04055 0.47754 0.88752 0.0
C804 C 0.03797 0.47647 0.94377 0.0
H805 H 0.0231 0.50834 0.88516 0.0
H806 H 0.03749 0.47667 0.96587 0.0
C807 C 0.05636 0.53425 0.02264 0.0
C808 C 0.98251 0.44146 0.07808 0.0
N809 N 1.01254 0.51339 0.07284 0.0
C810 C 0.01841 0.51917 0.10117 0.0
C811 C 1.00822 0.53661 0.11153 0.0
C812 C 0.9921 0.54831 0.0925 0.0
C813 C 0.98741 0.54277 0.06333 0.0
C814 C 0.99776 0.52509 0.05396 0.0
C815 C 0.06534 0.57013 0.94236 0.0
O816 O 1.00043 0.47864 0.0029 0.0
O817 O 0.98296 0.4826 0.95814 0.0
O818 O 0.03746 0.52246 0.00128 0.0
O819 O 0.05702 0.52306 0.04635 0.0
O820 O 0.97871 0.44189 0.0512 0.0
O821 O 1.00469 0.4582 0.09272 0.0
O822 O 0.05109 0.57274 0.95866 0.0
O823 O 0.05841 0.54691 0.9306 0.0
H824 H 0.03013 0.5095 0.11577 0.0
H825 H 0.99314 0.51986 0.03158 0.0
H826 H 0.05798 0.39758 0.05873 0.0
H827 H 0.11324 0.46582 0.11511 0.0
H828 H 0.98085 0.58736 0.87634 0.0
H829 H 0.92904 0.55121 0.9336 0.0
H830 H 0.05536 0.44594 0.94812 0.0
H831 H 0.04198 0.47913 0.86565 0.0
H832 H 1.01254 0.54056 0.13417 0.0
H833 H 0.97484 0.55102 0.0479 0.0
Cd834 Cd 0.46351 0.47142 0.01339 0.0
Cd835 Cd 0.53037 0.51566 0.9619 0.0
C836 C 0.50738 0.44608 0.04002 0.0
N837 N 0.48868 0.44432 0.01541 0.0
C838 C 0.49913 0.40967 0.9965 0.0
C839 C 0.51894 0.41141 0.02161 0.0
C840 C 0.52306 0.43008 0.04342 0.0
C841 C 0.48407 0.42647 0.99385 0.0
H842 H 0.51002 0.45979 0.05718 0.0
H843 H 0.46862 0.42518 0.97472 0.0
C844 C 0.46694 0.48108 0.93884 0.0
C845 C 0.4968 0.55374 0.94955 0.0
C846 C 0.48879 0.57551 0.951 0.0
C847 C 0.50425 0.59646 0.97157 0.0
C848 C 0.52744 0.59497 0.99057 0.0
C849 C 0.53498 0.57283 0.98806 0.0
N850 N 0.5194 0.55269 0.968 0.0
H851 H 0.48512 0.53789 0.93338 0.0
H852 H 0.55338 0.57189 0.00177 0.0
C853 C 0.52831 0.4571 0.95438 0.0
N854 N 0.54534 0.48041 0.96926 0.0
C855 C 0.58356 0.46748 0.97274 0.0
C856 C 0.56679 0.44428 0.95527 0.0
C857 C 0.53864 0.43851 0.94729 0.0
C858 C 0.57232 0.48558 0.97936 0.0
H859 H 0.50714 0.45405 0.94581 0.0
H860 H 0.5855 0.50491 0.98994 0.0
C861 C 0.52113 0.5139 0.03164 0.0
C862 C 0.42743 0.43733 0.04383 0.0
N863 N 0.44254 0.50232 0.00253 0.0
C864 C 0.45778 0.52911 0.00683 0.0
C865 C 0.44551 0.5475 0.00958 0.0
C866 C 0.41733 0.53807 0.00764 0.0
C867 C 0.40187 0.51064 2e-05 0.0
C868 C 0.41505 0.49291 -0.00175 0.0
C869 C 0.57001 0.54423 0.93292 0.0
O870 O 0.47078 0.47987 0.96554 0.0
O871 O 0.48743 0.49244 0.92841 0.0
O872 O 0.51609 0.50613 0.00596 0.0
O873 O 0.50273 0.50339 0.045 0.0
O874 O 0.42537 0.43027 0.01839 0.0
O875 O 0.44523 0.46008 0.05377 0.0
O876 O 0.57484 0.54858 0.95962 0.0
O877 O 0.54709 0.52693 0.9206 0.0
H878 H 0.47967 0.53594 0.01061 0.0
H879 H 0.40357 0.4714 0.99552 0.0
H880 H 0.49517 0.39538 0.97928 0.0
H881 H 0.53836 0.43244 0.06298 0.0
H882 H 0.47063 0.57595 0.93617 0.0
H883 H 0.53984 0.61096 0.00658 0.0
H884 H 0.60542 0.47291 0.97899 0.0
H885 H 0.52496 0.42063 0.93422 0.0
H886 H 0.45836 0.56835 0.01567 0.0
H887 H 0.38003 0.50257 0.99758 0.0
Cd888 Cd 0.02214 0.48034 0.54851 0.0
Cd889 Cd 0.01936 0.5293 0.45197 0.0
C890 C 0.06884 0.46472 0.59207 0.0
N891 N 0.05712 0.46232 0.56382 0.0
C892 C 0.07999 0.4329 0.55662 0.0
C893 C 0.09171 0.43425 0.58591 0.0
C894 C 0.0862 0.45088 0.60356 0.0
C895 C 0.06258 0.447 0.54602 0.0
H896 H 0.06391 0.47667 0.60592 0.0
H897 H 0.05262 0.44488 0.52373 0.0
C898 C 0.98514 0.47055 0.47547 0.0
C899 C 0.99632 0.5729 0.41925 0.0
C900 C 0.97955 0.58728 0.40779 0.0
C901 C 0.95253 0.57828 0.4106 0.0
C902 C 0.94313 0.55426 0.4248 0.0
C903 C 0.96069 0.54038 0.43596 0.0
N904 N 0.98684 0.54993 0.4331 0.0
H905 H 0.01709 0.58025 0.41713 0.0
H906 H 0.95348 0.52215 0.44712 0.0
C907 C 0.02171 0.48401 0.40903 0.0
N908 N 0.03261 0.49673 0.43521 0.0
C909 C 0.06667 0.47697 0.44435 0.0
C910 C 0.05637 0.46394 0.41723 0.0
C911 C 0.03337 0.46742 0.39956 0.0
C912 C 0.05445 0.4933 0.45289 0.0
H913 H 1.00451 0.48736 0.39525 0.0
H914 H 0.06292 0.50404 0.47338 0.0
C915 C 0.05287 0.54129 0.5265 0.0
C916 C 0.9816 0.44088 0.57058 0.0
N917 N 1.00772 0.51056 0.56776 0.0
C918 C 0.0163 0.51964 0.59539 0.0
C919 C 1.00437 0.53549 0.60573 0.0
C920 C 0.98343 0.54192 0.58743 0.0
C921 C 0.9754 0.53245 0.55893 0.0
C922 C 0.98784 0.51676 0.54956 0.0
C923 C 0.06373 0.56554 0.43265 0.0
O924 O 1.00408 0.48105 0.49725 0.0
O925 O 0.98407 0.48415 0.45333 0.0
O926 O 0.03649 0.52937 0.50365 0.0
O927 O 0.05407 0.5278 0.54874 0.0
O928 O 0.97838 0.44314 0.54392 0.0
O929 O 1.00395 0.45622 0.58629 0.0
O930 O 0.06148 0.56897 0.45757 0.0
O931 O 0.04506 0.54619 0.4169 0.0
H932 H 0.03196 0.51413 0.6095 0.0
H933 H 0.98116 0.50887 0.52782 0.0
H934 H 0.0833 0.42017 0.54214 0.0
H935 H 0.09494 0.45293 0.62617 0.0
H936 H 0.98777 0.60526 0.39661 0.0
H937 H 0.92259 0.54652 0.4278 0.0
H938 H 0.08461 0.47537 0.45854 0.0
H939 H 0.02462 0.45763 0.37858 0.0
H940 H 1.01139 0.54251 0.62779 0.0
H941 H 0.95905 0.53637 0.54413 0.0
Cd942 Cd 0.51204 0.97027 0.55049 0.0
Cd943 Cd 0.51184 0.01964 0.45322 0.0
C944 C 0.56969 0.96415 0.58527 0.0
N945 N 0.54648 0.95148 0.56516 0.0
C946 C 0.55749 0.91158 0.56633 0.0
C947 C 0.58135 0.92378 0.58762 0.0
C948 C 0.58752 0.95069 0.59671 0.0
C949 C 0.54032 0.92576 0.55547 0.0
H950 H 0.57391 0.98437 0.5932 0.0
H951 H 0.52152 0.91589 0.53987 0.0
C952 C 0.47559 0.96372 0.4782 0.0
C953 C 0.45473 0.0272 0.41872 0.0
C954 C 0.43753 0.04141 0.40757 0.0
C955 C 0.44418 0.06821 0.41744 0.0
C956 C 0.46791 0.0795 0.43918 0.0
C957 C 0.48437 0.06455 0.44979 0.0
N958 N 0.47777 0.03899 0.43935 0.0
H959 H 0.45013 0.00708 0.41021 0.0
H960 H 0.50315 0.07381 0.46562 0.0
C961 C 0.51208 0.97192 0.41262 0.0
N962 N 0.52598 0.98777 0.43668 0.0
C963 C 0.56128 0.9698 0.44309 0.0
C964 C 0.54762 0.95325 0.41821 0.0
C965 C 0.52261 0.95441 0.40294 0.0
C966 C 0.55006 0.98695 0.45194 0.0
H967 H 0.49303 0.97313 0.40079 0.0
H968 H 0.56078 1.00005 0.4708 0.0
C969 C 0.54943 0.03021 0.52844 0.0
C970 C 0.4711 0.92721 0.56905 0.0
N971 N 0.50001 1.00164 0.57127 0.0
C972 C 0.50386 0.00524 0.59973 0.0
C973 C 0.4942 0.02297 0.61044 0.0
C974 C 0.48073 0.03725 0.59166 0.0
C975 C 0.47766 0.03348 0.56245 0.0
C976 C 0.48738 0.01543 0.5527 0.0
C977 C 0.54674 0.05864 0.42442 0.0
O978 O 0.49518 0.97412 0.49948 0.0
O979 O 0.4748 0.97629 0.45535 0.0
O980 O 0.53311 0.02093 0.50461 0.0
O981 O 0.54731 0.01569 0.54995 0.0
O982 O 0.46961 0.93065 0.54273 0.0
O983 O 0.49158 0.9437 0.58625 0.0
O984 O 0.5492 0.06184 0.45087 0.0
O985 O 0.5278 0.03755 0.41164 0.0
H986 H 0.51401 0.99404 0.61407 0.0
H987 H 0.48444 0.01203 0.53019 0.0
H988 H 0.55192 0.8911 0.55822 0.0
H989 H 0.6054 0.96096 0.61328 0.0
H990 H 0.4194 0.03153 0.39114 0.0
H991 H 0.47443 0.10015 0.44724 0.0
H992 H 0.5808 0.97 0.4553 0.0
H993 H 0.51125 0.94187 0.38379 0.0
H994 H 0.4972 0.02547 0.63312 0.0
H995 H 0.46713 0.04376 0.54719 0.0
H996 H 0.19546 0.16246 0.24894 0.0
H997 H 0.16809 0.13086 0.27783 0.0
H998 H 0.15872 0.1971 0.31699 0.0
H999 H 0.18595 0.2287 0.28809 0.0
H1000 H 0.19225 0.16582 0.35135 0.0
H1001 H 0.08698 0.10303 0.29328 0.0
H1002 H 0.11448 0.11073 0.2757 0.0
H1003 H 0.10398 0.13721 0.28401 0.0
C1004 C 0.18618 0.17004 0.2624 0.0
C1005 C 0.1927 0.19791 0.26634 0.0
C1006 C 0.17073 0.15201 0.27907 0.0
C1007 C 0.16162 0.16181 0.29954 0.0
C1008 C 0.16557 0.18927 0.30119 0.0
H1009 H 0.11817 0.10435 0.45682 0.0
H1010 H 0.13882 0.13197 0.42077 0.0
C1011 C 0.181 0.20724 0.28463 0.0
C1012 C 0.15343 0.14491 0.32292 0.0
H1013 H 0.10148 0.09332 0.3407 0.0
C1014 C 0.17239 0.14994 0.34915 0.0
C1015 C 0.12774 0.12416 0.31961 0.0
C1016 C 0.10693 0.11832 0.2917 0.0
C1017 C 0.16631 0.13459 0.3724 0.0
C1018 C 0.14032 0.11412 0.36938 0.0
C1019 C 0.12142 0.10902 0.34297 0.0
C1020 C 0.13199 0.09782 0.39324 0.0
C1021 C 0.18795 0.14012 0.39971 0.0
C1022 C 0.12179 0.06955 0.38997 0.0
C1023 C 0.10967 0.0539 0.41022 0.0
C1024 C 0.10784 0.06625 0.43424 0.0
C1025 C 0.11978 0.09443 0.43864 0.0
C1026 C 0.13154 0.11017 0.41806 0.0
H1027 H 0.20868 0.15018 0.39599 0.0
H1028 H 0.18477 0.15384 0.41397 0.0
H1029 H 0.18702 0.12119 0.41065 0.0
H1030 H 0.12206 0.05963 0.37107 0.0
H1031 H 0.10056 0.03216 0.40645 0.0
H1032 H 0.83009 0.14001 0.35019 0.0
H1033 H 0.86976 0.13597 0.38344 0.0
H1034 H 0.86578 0.19143 0.44308 0.0
H1035 H 0.82583 0.19566 0.40967 0.0
H1036 H 0.92041 0.20098 0.42686 0.0
H1037 H 0.86937 0.09901 0.46331 0.0
H1038 H 0.85971 0.10279 0.42584 0.0
H1039 H 0.85147 0.12144 0.44999 0.0
C1040 C 0.83762 0.15128 0.37042 0.0
C1041 C 0.825 0.16813 0.37747 0.0
C1042 C 0.86013 0.14888 0.38937 0.0
C1043 C 0.87041 0.1633 0.41562 0.0
C1044 C 0.85789 0.18009 0.42289 0.0
H1045 H 0.99454 0.11132 0.51948 0.0
H1046 H 0.96232 0.13443 0.51114 0.0
C1047 C 0.83512 0.18235 0.40395 0.0
C1048 C 0.89477 0.16104 0.43479 0.0
H1049 H 0.91745 0.11379 0.46876 0.0
C1050 C 0.91986 0.18224 0.43685 0.0
C1051 C 0.89377 0.13665 0.44783 0.0
C1052 C 0.86712 0.11369 0.44691 0.0
C1053 C 0.94431 0.17892 0.45007 0.0
C1054 C 0.94341 0.15367 0.46105 0.0
C1055 C 0.91815 0.13321 0.46065 0.0
C1056 C 0.96785 0.14641 0.46934 0.0
C1057 C 0.97084 0.20204 0.45112 0.0
C1058 C 0.98268 0.14673 0.44922 0.0
C1059 C 1.00133 0.13375 0.45406 0.0
C1060 C 1.0049 0.11949 0.47876 0.0
C1061 C 0.99194 0.12148 0.5 0.0
C1062 C 0.97346 0.13472 0.49527 0.0
H1063 H 0.96833 0.22178 0.45206 0.0
H1064 H 0.98697 0.20127 0.46965 0.0
H1065 H 0.97763 0.20096 0.43153 0.0
H1066 H 0.97846 0.15531 0.42888 0.0
H1067 H 1.01167 0.1335 0.43761 0.0
H1068 H 0.85505 0.83726 0.26885 0.0
H1069 H 0.87786 0.88327 0.29084 0.0
H1070 H 0.80011 0.88616 0.29372 0.0
H1071 H 0.77746 0.84022 0.27255 0.0
H1072 H 0.86741 0.94002 0.28593 0.0
H1073 H 0.84406 0.87531 0.37681 0.0
H1074 H 0.84403 0.8609 0.34387 0.0
H1075 H 0.81726 0.87243 0.34585 0.0
C1076 C 0.84293 0.84818 0.27335 0.0
C1077 C 0.8148 0.83532 0.26993 0.0
C1078 C 0.85582 0.87441 0.28557 0.0
C1079 C 0.8405 0.88779 0.29393 0.0
C1080 C 0.81211 0.87605 0.28731 0.0
H1081 H 0.93044 0.98047 0.45084 0.0
H1082 H 0.89044 0.96506 0.4111 0.0
C1083 C 0.79932 0.84978 0.27561 0.0
C1084 C 0.85422 0.90992 0.31564 0.0
H1085 H 0.87518 0.91913 0.38724 0.0
C1086 C 0.86877 0.9358 0.30812 0.0
C1087 C 0.8552 0.90433 0.34444 0.0
C1088 C 0.83941 0.87678 0.35344 0.0
C1089 C 0.88604 0.95589 0.32905 0.0
C1090 C 0.88939 0.94931 0.35784 0.0
C1091 C 0.87278 0.92417 0.36519 0.0
C1092 C 0.91327 0.96527 0.37999 0.0
C1093 C 0.90116 0.98357 0.32005 0.0
C1094 C 0.93938 0.97101 0.37561 0.0
C1095 C 0.96214 0.98004 0.39813 0.0
C1096 C 0.95915 0.98283 0.42559 0.0
C1097 C 0.9332 0.97814 0.42989 0.0
C1098 C 0.91042 0.96963 0.40718 0.0
H1099 H 0.88806 0.98922 0.30161 0.0
H1100 H 0.90801 0.99924 0.33747 0.0
H1101 H 0.91919 0.98329 0.31324 0.0
H1102 H 0.94213 0.96686 0.35515 0.0
H1103 H 0.98194 0.98354 0.39421 0.0
H1104 H 0.17346 0.81195 0.32235 0.0
H1105 H 0.15954 0.82432 0.36231 0.0
H1106 H 0.17688 0.90545 0.33383 0.0
H1107 H 0.19306 0.89397 0.2952 0.0
H1108 H 0.19282 0.90585 0.38981 0.0
H1109 H 0.08734 0.83114 0.354 0.0
H1110 H 0.11321 0.8167 0.36205 0.0
H1111 H 0.11193 0.83829 0.33274 0.0
C1112 C 0.17488 0.8326 0.32485 0.0
C1113 C 0.18421 0.85194 0.30533 0.0
C1114 C 0.16651 0.83949 0.34752 0.0
C1115 C 0.16658 0.86559 0.35064 0.0
C1116 C 0.17648 0.8851 0.33167 0.0
H1117 H 0.07018 0.93089 0.41034 0.0
H1118 H 0.09124 0.90723 0.38735 0.0
C1119 C 0.18537 0.8784 0.30934 0.0
C1120 C 0.15547 0.87266 0.37292 0.0
H1121 H 0.09665 0.8587 0.39443 0.0
C1122 C 0.17187 0.89542 0.39106 0.0
C1123 C 0.1281 0.85893 0.37439 0.0
C1124 C 0.10902 0.83506 0.35463 0.0
C1125 C 0.16123 0.90582 0.40954 0.0
C1126 C 0.13371 0.89243 0.41054 0.0
C1127 C 0.11778 0.86876 0.39363 0.0
C1128 C 0.11994 0.90469 0.42569 0.0
C1129 C 0.17903 0.93198 0.42637 0.0
C1130 C 0.12881 0.91071 0.45499 0.0
C1131 C 0.1169 0.92454 0.46822 0.0
C1132 C 0.09553 0.93192 0.45243 0.0
C1133 C 0.08616 0.92497 0.42326 0.0
C1134 C 0.09826 0.91154 0.41005 0.0
H1135 H 0.19797 0.94228 0.41899 0.0
H1136 H 0.1679 0.94604 0.4249 0.0
H1137 H 0.18493 0.92773 0.44898 0.0
H1138 H 0.14522 0.90518 0.46749 0.0
H1139 H 0.12466 0.92976 0.49065 0.0
H1140 H 0.21741 0.88434 0.69558 0.0
H1141 H 0.17865 0.88875 0.66159 0.0
H1142 H 0.21003 0.87388 0.59271 0.0
H1143 H 0.24845 0.86788 0.62693 0.0
H1144 H 0.17797 0.92456 0.62071 0.0
H1145 H 0.13196 0.81911 0.57394 0.0
H1146 H 0.15857 0.82892 0.60608 0.0
H1147 H 0.16661 0.83763 0.57236 0.0
C1148 C 0.216 0.88176 0.67321 0.0
C1149 C 0.23577 0.8754 0.66391 0.0
C1150 C 0.19393 0.88444 0.65382 0.0
C1151 C 0.1913 0.88119 0.62471 0.0
C1152 C 0.21147 0.87588 0.61515 0.0
H1153 H 0.06802 0.93085 0.51517 0.0
H1154 H 0.10961 0.92143 0.53209 0.0
C1155 C 0.23356 0.87288 0.63467 0.0
C1156 C 0.16738 0.88385 0.60483 0.0
H1157 H 0.10818 0.84815 0.55758 0.0
C1158 C 0.16284 0.90797 0.60665 0.0
C1159 C 0.14766 0.862 0.58678 0.0
C1160 C 0.15121 0.83534 0.58471 0.0
C1161 C 0.13862 0.91058 0.59172 0.0
C1162 C 0.11882 0.88869 0.57385 0.0
C1163 C 0.12361 0.86483 0.57126 0.0
C1164 C 0.09243 0.89001 0.55907 0.0
C1165 C 0.13392 0.93628 0.5962 0.0
C1166 C 0.06882 0.87462 0.56795 0.0
C1167 C 0.04492 0.87985 0.55808 0.0
C1168 C 0.04447 0.9003 0.53905 0.0
C1169 C 0.06764 0.91432 0.52887 0.0
C1170 C 0.09144 0.90916 0.53874 0.0
H1171 H 0.14862 0.94866 0.61507 0.0
H1172 H 0.13633 0.94863 0.5774 0.0
H1173 H 0.11297 0.93168 0.59886 0.0
H1174 H 0.06939 0.85985 0.58383 0.0
H1175 H 0.02731 0.86901 0.56641 0.0
H1176 H 0.19673 0.15997 0.7331 0.0
H1177 H 0.1727 0.11749 0.70486 0.0
H1178 H 0.2365 0.13749 0.65987 0.0
H1179 H 0.26034 0.18008 0.68777 0.0
H1180 H 0.18703 0.13174 0.62613 0.0
H1181 H 0.17742 0.04383 0.69295 0.0
H1182 H 0.16961 0.06937 0.70817 0.0
H1183 H 0.20349 0.07679 0.7037 0.0
C1184 C 0.20597 0.155 0.71778 0.0
C1185 C 0.22994 0.17365 0.71207 0.0
C1186 C 0.19239 0.13056 0.70183 0.0
C1187 C 0.20294 0.12433 0.68037 0.0
C1188 C 0.22808 0.14194 0.67637 0.0
H1189 H 0.08499 0.02516 0.53204 0.0
H1190 H 0.13055 0.04824 0.56228 0.0
C1191 C 0.24147 0.16641 0.69209 0.0
C1192 C 0.1852 0.10285 0.65857 0.0
H1193 H 0.14161 0.0373 0.65013 0.0
C1194 C 0.17754 0.11087 0.63107 0.0
C1195 C 0.17308 0.07575 0.66521 0.0
C1196 C 0.18154 0.06586 0.69407 0.0
C1197 C 0.15608 0.09321 0.61071 0.0
C1198 C 0.14255 0.0665 0.61793 0.0
C1199 C 0.1519 0.05783 0.64471 0.0
C1200 C 0.11614 0.04899 0.60008 0.0
C1201 C 0.14673 0.10414 0.58266 0.0
C1202 C 0.0932 0.04056 0.61157 0.0
C1203 C 0.06749 0.0266 0.59462 0.0
C1204 C 0.06416 0.02117 0.56571 0.0
C1205 C 0.08713 0.02909 0.55426 0.0
C1206 C 0.11306 0.04246 0.57146 0.0
H1207 H 0.15617 0.12652 0.58279 0.0
H1208 H 0.15252 0.09565 0.56579 0.0
H1209 H 0.12428 0.09838 0.57709 0.0
H1210 H 0.09505 0.04549 0.63355 0.0
H1211 H 0.05015 0.02073 0.60408 0.0
H1212 H 0.84164 0.11709 0.69144 0.0
H1213 H 0.85716 0.10606 0.65203 0.0
H1214 H 0.87265 0.18706 0.62367 0.0
H1215 H 0.85923 0.19895 0.66428 0.0
H1216 H 0.84074 0.1059 0.59564 0.0
H1217 H 0.94569 0.18164 0.63209 0.0
H1218 H 0.92108 0.17362 0.65341 0.0
H1219 H 0.91924 0.19535 0.62432 0.0
C1220 C 0.84871 0.1327 0.67709 0.0
C1221 C 0.84959 0.15902 0.68136 0.0
C1222 C 0.85721 0.12626 0.65433 0.0
C1223 C 0.8665 0.14589 0.63521 0.0
C1224 C 0.86614 0.17179 0.63854 0.0
H1225 H 0.91212 0.07837 0.50001 0.0
H1226 H 0.89136 0.1053 0.5197 0.0
C1227 C 0.85809 0.17842 0.6616 0.0
C1228 C 0.8778 0.13928 0.61284 0.0
H1229 H 0.93722 0.15361 0.59244 0.0
C1230 C 0.86173 0.11651 0.5946 0.0
C1231 C 0.90521 0.15326 0.61165 0.0
C1232 C 0.92392 0.17718 0.63153 0.0
C1233 C 0.87281 0.10619 0.57651 0.0
C1234 C 0.90048 0.11964 0.57606 0.0
C1235 C 0.91598 0.14351 0.5928 0.0
C1236 C 0.91499 0.10682 0.56261 0.0
C1237 C 0.8554 0.07993 0.55971 0.0
C1238 C 0.93597 0.09999 0.57993 0.0
C1239 C 0.94815 0.08526 0.5687 0.0
C1240 C 0.93955 0.07693 0.53986 0.0
C1241 C 0.91915 0.08458 0.52228 0.0
C1242 C 0.90717 0.09975 0.53351 0.0
H1243 H 0.83582 0.07002 0.56601 0.0
H1244 H 0.8507 0.08389 0.53687 0.0
H1245 H 0.86637 0.06564 0.56252 0.0
H1246 H 0.94216 0.10508 0.60249 0.0
H1247 H 0.9633 0.07918 0.58304 0.0
H1248 H 0.85302 0.77247 0.72148 0.0
H1249 H 0.87908 0.80232 0.69056 0.0
H1250 H 0.8661 0.86964 0.72292 0.0
H1251 H 0.84007 0.83983 0.75388 0.0
H1252 H 0.84315 0.82487 0.65258 0.0
H1253 H 0.94303 0.90305 0.70372 0.0
H1254 H 0.92925 0.87074 0.71874 0.0
H1255 H 0.91582 0.89654 0.72139 0.0
C1256 C 0.85714 0.79395 0.72316 0.0
C1257 C 0.8446 0.80397 0.7399 0.0
C1258 C 0.87191 0.81092 0.70545 0.0
C1259 C 0.87426 0.83803 0.70439 0.0
C1260 C 0.86476 0.84881 0.72376 0.0
H1261 H 0.91039 0.96174 0.58576 0.0
H1262 H 0.8925 0.93333 0.62255 0.0
C1263 C 0.85002 0.83179 0.74161 0.0
C1264 C 0.88007 0.85275 0.67899 0.0
H1265 H 0.92363 0.90871 0.65598 0.0
C1266 C 0.86088 0.84309 0.65318 0.0
C1267 C 0.90293 0.8766 0.68015 0.0
C1268 C 0.92411 0.88738 0.70741 0.0
C1269 C 0.86371 0.85701 0.62839 0.0
C1270 C 0.88662 0.88091 0.62947 0.0
C1271 C 0.90597 0.89042 0.6553 0.0
C1272 C 0.89133 0.89642 0.60412 0.0
C1273 C 0.84179 0.8464 0.60157 0.0
C1274 C 0.89504 0.88472 0.58077 0.0
C1275 C 0.90469 0.90086 0.55937 0.0
C1276 C 0.91124 0.92888 0.56153 0.0
C1277 C 0.9054 0.94014 0.58368 0.0
C1278 C 0.89542 0.92399 0.60478 0.0
H1279 H 0.82228 0.8328 0.60614 0.0
H1280 H 0.83815 0.86319 0.5891 0.0
H1281 H 0.8483 0.83461 0.58835 0.0
H1282 H 0.89239 0.86355 0.58008 0.0
H1283 H 0.90949 0.89184 0.54273 0.0
H1284 H 0.33176 0.14339 0.18559 0.0
H1285 H 0.36509 0.12372 0.18062 0.0
H1286 H 0.3645 0.15446 0.0972 0.0
H1287 H 0.33182 0.1746 0.10223 0.0
H1288 H 0.3574 0.08486 0.13884 0.0
H1289 H 0.44577 0.17757 0.13373 0.0
H1290 H 0.4174 0.17812 0.1467 0.0
H1291 H 0.41496 0.1765 0.10923 0.0
C1292 C 0.33912 0.14636 0.16641 0.0
C1293 C 0.32905 0.1605 0.14427 0.0
C1294 C 0.35805 0.135 0.16354 0.0
C1295 C 0.36753 0.13787 0.13866 0.0
C1296 C 0.35786 0.15236 0.11678 0.0
H1297 H 0.46039 0.07876 0.05627 0.0
H1298 H 0.43408 0.10157 0.07212 0.0
C1299 C 0.33892 0.16361 0.11957 0.0
C1300 C 0.38617 0.12438 0.13463 0.0
H1301 H 0.44683 0.13618 0.11756 0.0
C1302 C 0.37713 0.09606 0.13459 0.0
C1303 C 0.41187 0.13903 0.12899 0.0
C1304 C 0.42322 0.1695 0.12992 0.0
C1305 C 0.39252 0.08194 0.12778 0.0
C1306 C 0.41796 0.09659 0.12146 0.0
C1307 C 0.42732 0.12494 0.12231 0.0
C1308 C 0.43455 0.08293 0.11251 0.0
C1309 C 0.38081 0.05144 0.12617 0.0
C1310 C 0.44405 0.06519 0.13013 0.0
C1311 C 0.45886 0.0518 0.12096 0.0
C1312 C 0.4647 0.05609 0.09405 0.0
C1313 C 0.45587 0.07456 0.07688 0.0
C1314 C 0.44097 0.08779 0.086 0.0
H1315 H 0.35854 0.04347 0.12463 0.0
H1316 H 0.38462 0.04317 0.10765 0.0
H1317 H 0.39067 0.04389 0.14562 0.0
H1318 H 0.43986 0.06154 0.15092 0.0
H1319 H 0.46515 0.03761 0.13468 0.0
H1320 H 0.79377 0.27455 0.19099 0.0
H1321 H 0.8218 0.29673 0.15831 0.0
H1322 H 0.88076 0.35069 0.22661 0.0
H1323 H 0.85236 0.32856 0.25952 0.0
H1324 H 0.86378 0.37697 0.17981 0.0
H1325 H 0.89242 0.29488 0.14531 0.0
H1326 H 0.857 0.2866 0.14423 0.0
H1327 H 0.88149 0.29424 0.17766 0.0
C1328 C 0.81309 0.29045 0.19933 0.0
C1329 C 0.82118 0.29939 0.22802 0.0
C1330 C 0.82913 0.30321 0.18053 0.0
C1331 C 0.85361 0.32511 0.19006 0.0
C1332 C 0.86202 0.33369 0.21884 0.0
H1333 H 0.98472 0.43991 0.13446 0.0
H1334 H 0.95056 0.41098 0.15818 0.0
C1335 C 0.84589 0.32101 0.23762 0.0
C1336 C 0.86935 0.34059 0.1698 0.0
H1337 H 0.90695 0.33649 0.12397 0.0
C1338 C 0.87316 0.36808 0.16757 0.0
C1339 C 0.88106 0.32883 0.15332 0.0
C1340 C 0.87799 0.29954 0.15521 0.0
C1341 C 0.8891 0.38432 0.15006 0.0
C1342 C 0.90187 0.37286 0.1347 0.0
C1343 C 0.8971 0.34515 0.13585 0.0
C1344 C 0.92234 0.38992 0.11969 0.0
C1345 C 0.89244 0.41373 0.14837 0.0
C1346 C 0.91803 0.38717 0.09017 0.0
C1347 C 0.93763 0.40378 0.07642 0.0
C1348 C 0.9619 0.42309 0.09211 0.0
C1349 C 0.96625 0.4253 0.12172 0.0
C1350 C 0.94669 0.40888 0.13533 0.0
H1351 H 0.87564 0.41751 0.15466 0.0
H1352 H 0.91187 0.42608 0.16301 0.0
H1353 H 0.89313 0.42063 0.12662 0.0
H1354 H 0.8994 0.37246 0.0778 0.0
H1355 H 0.93374 0.4016 0.05359 0.0
H1356 H 0.76528 0.83184 0.20868 0.0
H1357 H 0.73842 0.85568 0.17907 0.0
H1358 H 0.66769 0.78205 0.16458 0.0
H1359 H 0.69452 0.7584 0.19467 0.0
H1360 H 0.70562 0.8502 0.12402 0.0
H1361 H 0.64415 0.83256 0.20428 0.0
H1362 H 0.67509 0.82562 0.21031 0.0
H1363 H 0.64391 0.8023 0.18895 0.0
C1364 C 0.74426 0.82055 0.1982 0.0
C1365 C 0.73214 0.79312 0.20325 0.0
C1366 C 0.72885 0.83423 0.18149 0.0
C1367 C 0.70084 0.82086 0.17004 0.0
C1368 C 0.68913 0.79297 0.17356 0.0
H1369 H 0.56941 0.87729 0.09322 0.0
H1370 H 0.59749 0.85107 0.11299 0.0
C1371 C 0.70457 0.77931 0.1903 0.0
C1372 C 0.68363 0.83656 0.15656 0.0
H1373 H 0.63101 0.85477 0.16368 0.0
C1374 C 0.68929 0.85118 0.13266 0.0
C1375 C 0.66241 0.83808 0.16794 0.0
C1376 C 0.65611 0.82403 0.19443 0.0
C1377 C 0.674 0.86674 0.1195 0.0
C1378 C 0.65277 0.86828 0.13089 0.0
C1379 C 0.64717 0.85364 0.15482 0.0
C1380 C 0.63588 0.88464 0.11824 0.0
C1381 C 0.68038 0.88085 0.09311 0.0
C1382 C 0.64787 0.91252 0.11483 0.0
C1383 C 0.63179 0.92763 0.10305 0.0
C1384 C 0.60321 0.91533 0.0946 0.0
C1385 C 0.5913 0.8875 0.09868 0.0
C1386 C 0.60738 0.87242 0.1103 0.0
H1387 H 0.69123 0.87143 0.0826 0.0
H1388 H 0.66157 0.8805 0.0777 0.0
H1389 H 0.69381 0.90223 0.09892 0.0
H1390 H 0.66973 0.9227 0.12146 0.0
H1391 H 0.64185 0.94892 0.10028 0.0
H1392 H 0.26268 0.70465 0.16015 0.0
H1393 H 0.24139 0.68113 0.11342 0.0
H1394 H 0.1702 0.70047 0.11079 0.0
H1395 H 0.19183 0.72459 0.15678 0.0
H1396 H 0.20006 0.63828 0.10353 0.0
H1397 H 0.17198 0.70959 0.03016 0.0
H1398 H 0.19625 0.7209 0.0638 0.0
H1399 H 0.16021 0.71112 0.06123 0.0
C1400 C 0.24268 0.70425 0.14922 0.0
C1401 C 0.22885 0.71646 0.1619 0.0
C1402 C 0.23063 0.69103 0.12246 0.0
C1403 C 0.20436 0.68945 0.10813 0.0
C1404 C 0.19088 0.70226 0.12068 0.0
H1405 H 0.06063 0.58125 0.04517 0.0
H1406 H 0.10066 0.62299 0.05359 0.0
C1407 C 0.20314 0.71589 0.14717 0.0
C1408 C 0.18908 0.67061 0.08294 0.0
H1409 H 0.13874 0.66198 0.02286 0.0
C1410 C 0.18745 0.64369 0.08529 0.0
C1411 C 0.17287 0.67759 0.05882 0.0
C1412 C 0.17573 0.70649 0.05327 0.0
C1413 C 0.16779 0.62315 0.06624 0.0
C1414 C 0.14927 0.62973 0.0442 0.0
C1415 C 0.15278 0.65696 0.03996 0.0
C1416 C 0.12301 0.60857 0.03063 0.0
C1417 C 0.16515 0.59422 0.07164 0.0
C1418 C 0.12174 0.58726 0.0135 0.0
C1419 C 0.09878 0.56332 0.00873 0.0
C1420 C 0.07703 0.56076 0.02092 0.0
C1421 C 0.07729 0.58296 0.03564 0.0
C1422 C 0.10004 0.60682 0.04026 0.0
H1423 H 0.18039 0.59256 0.09065 0.0
H1424 H 0.1445 0.58223 0.07461 0.0
H1425 H 0.168 0.58506 0.05309 0.0
H1426 H 0.13924 0.58834 0.00577 0.0
H1427 H 0.09881 0.54626 0.99729 0.0
H1428 H 0.34497 0.75986 0.82404 0.0
H1429 H 0.3791 0.7789 0.868 0.0
H1430 H 0.32664 0.81478 0.89113 0.0
H1431 H 0.29193 0.79395 0.84893 0.0
H1432 H 0.40575 0.82815 0.87835 0.0
H1433 H 0.35738 0.7979 0.96722 0.0
H1434 H 0.34172 0.78056 0.9328 0.0
H1435 H 0.33539 0.81004 0.94158 0.0
C1436 C 0.34045 0.77128 0.83884 0.0
C1437 C 0.31604 0.7763 0.83232 0.0
C1438 C 0.36 0.78211 0.86406 0.0
C1439 C 0.35559 0.79829 0.88317 0.0
C1440 C 0.33054 0.80192 0.87733 0.0
H1441 H 0.42957 0.94891 0.94777 0.0
H1442 H 0.40071 0.90135 0.93633 0.0
C1443 C 0.31085 0.79063 0.85254 0.0
C1444 C 0.37837 0.81522 0.90625 0.0
H1445 H 0.39023 0.84602 0.97094 0.0
C1446 C 0.40275 0.83122 0.89904 0.0
C1447 C 0.37493 0.8192 0.93356 0.0
C1448 C 0.351 0.80069 0.94423 0.0
C1449 C 0.42212 0.85295 0.91688 0.0
C1450 C 0.41686 0.85904 0.94242 0.0
C1451 C 0.39394 0.84153 0.95106 0.0
C1452 C 0.432 0.88608 0.95676 0.0
C1453 C 0.44697 0.87083 0.90715 0.0
C1454 C 0.45876 0.89304 0.97312 0.0
C1455 C 0.4752 0.92027 0.97991 0.0
C1456 C 0.46506 0.94065 0.97015 0.0
C1457 C 0.43774 0.93348 0.95557 0.0
C1458 C 0.42125 0.90637 0.94918 0.0
H1459 H 0.4483 0.86303 0.88691 0.0
H1460 H 0.44657 0.89151 0.90425 0.0
H1461 H 0.46563 0.87242 0.92354 0.0
H1462 H 0.46746 0.87764 0.97885 0.0
H1463 H 0.49638 0.92547 0.99068 0.0
H1464 H 0.19157 0.3192 0.88939 0.0
H1465 H 0.16895 0.35033 0.89493 0.0
H1466 H 0.13248 0.34142 0.80528 0.0
H1467 H 0.15492 0.30996 0.79958 0.0
H1468 H 0.17072 0.40041 0.86647 0.0
H1469 H 0.0673 0.32015 0.84474 0.0
H1470 H 0.09792 0.31244 0.85393 0.0
H1471 H 0.08717 0.32298 0.81912 0.0
C1472 C 0.17872 0.32384 0.87084 0.0
C1473 C 0.17479 0.31187 0.84409 0.0
C1474 C 0.16593 0.34174 0.87402 0.0
C1475 C 0.14875 0.34788 0.85059 0.0
C1476 C 0.14541 0.33667 0.82369 0.0
H1477 H 0.03893 0.43474 0.853 0.0
H1478 H 0.06333 0.40953 0.83709 0.0
C1479 C 0.15839 0.31888 0.82044 0.0
C1480 C 0.13388 0.36546 0.85473 0.0
H1481 H 0.0707 0.36407 0.85581 0.0
C1482 C 0.14882 0.39256 0.86395 0.0
C1483 C 0.10531 0.35518 0.85127 0.0
C1484 C 0.08836 0.32607 0.84189 0.0
C1485 C 0.136 0.40963 0.87009 0.0
C1486 C 0.10752 0.39909 0.86772 0.0
C1487 C 0.0925 0.37216 0.85771 0.0
C1488 C 0.09316 0.41517 0.87693 0.0
C1489 C 0.15316 0.43884 0.87888 0.0
C1490 C 0.10154 0.42648 0.90468 0.0
C1491 C 0.08791 0.44118 0.9137 0.0
C1492 C 0.06512 0.44452 0.89537 0.0
C1493 C 0.05655 0.4329 0.86761 0.0
C1494 C 0.07039 0.41833 0.85852 0.0
H1495 H 0.17169 0.44575 0.87036 0.0
H1496 H 0.14155 0.45224 0.87156 0.0
H1497 H 0.15991 0.44104 0.90233 0.0
H1498 H 0.11857 0.42378 0.91956 0.0
H1499 H 0.09548 0.45013 0.93507 0.0
H1500 H 0.74946 0.22576 0.81218 0.0
H1501 H 0.72776 0.19865 0.84787 0.0
H1502 H 0.65493 0.15957 0.78306 0.0
H1503 H 0.6765 0.18667 0.74723 0.0
H1504 H 0.6643 0.19732 0.84618 0.0
H1505 H 0.68404 0.10183 0.84289 0.0
H1506 H 0.70945 0.13446 0.84003 0.0
H1507 H 0.68043 0.12013 0.81104 0.0
C1508 C 0.72908 0.21093 0.80544 0.0
C1509 C 0.71468 0.20803 0.77692 0.0
C1510 C 0.71673 0.19558 0.82585 0.0
C1511 C 0.68987 0.17718 0.81794 0.0
C1512 C 0.67577 0.17362 0.7894 0.0
H1513 H 0.55624 0.06853 0.86952 0.0
H1514 H 0.59257 0.09717 0.84812 0.0
C1515 C 0.68804 0.18906 0.76904 0.0
C1516 C 0.67531 0.16344 0.83951 0.0
H1517 H 0.65125 0.10193 0.8673 0.0
C1518 C 0.66182 0.17665 0.85135 0.0
C1519 C 0.67232 0.1366 0.84607 0.0
C1520 C 0.68732 0.12223 0.83449 0.0
C1521 C 0.64405 0.16303 0.86845 0.0
C1522 C 0.63989 0.13567 0.87373 0.0
C1523 C 0.6545 0.12292 0.86306 0.0
C1524 C 0.61815 0.11905 0.88732 0.0
C1525 C 0.6286 0.17738 0.8794 0.0
C1526 C 0.62058 0.12211 0.91645 0.0
C1527 C 0.59979 0.10573 0.92883 0.0
C1528 C 0.57634 0.08616 0.91215 0.0
C1529 C 0.57397 0.08348 0.88292 0.0
C1530 C 0.59474 0.09972 0.87067 0.0
H1531 H 0.63281 0.19814 0.87174 0.0
H1532 H 0.60639 0.1657 0.8727 0.0
H1533 H 0.63435 0.17872 0.9029 0.0
H1534 H 0.63863 0.1369 0.9296 0.0
H1535 H 0.60222 0.10815 0.95143 0.0
H1536 H 0.83466 0.74072 0.79376 0.0
H1537 H 0.86579 0.71868 0.81876 0.0
H1538 H 0.79694 0.64747 0.82528 0.0
H1539 H 0.76607 0.66896 0.79955 0.0
H1540 H 0.87539 0.69467 0.86947 0.0
H1541 H 0.83494 0.61675 0.78166 0.0
H1542 H 0.82678 0.64686 0.77937 0.0
H1543 H 0.80881 0.61835 0.79743 0.0
C1544 C 0.82625 0.72061 0.80114 0.0
C1545 C 0.79794 0.70646 0.7946 0.0
C1546 C 0.84404 0.70793 0.81527 0.0
C1547 C 0.83378 0.68097 0.82308 0.0
C1548 C 0.80546 0.66786 0.81864 0.0
H1549 H 0.89662 0.55698 0.89293 0.0
H1550 H 0.86921 0.58447 0.87467 0.0
C1551 C 0.7878 0.68029 0.80423 0.0
C1552 C 0.85227 0.66589 0.83444 0.0
H1553 H 0.86337 0.60811 0.82326 0.0
C1554 C 0.87288 0.67584 0.85926 0.0
C1555 C 0.84927 0.64136 0.82105 0.0
C1556 C 0.82895 0.63033 0.79325 0.0
C1557 C 0.88979 0.66151 0.87155 0.0
C1558 C 0.88628 0.63664 0.85854 0.0
C1559 C 0.86597 0.62696 0.83348 0.0
C1560 C 0.90333 0.62024 0.87044 0.0
C1561 C 0.91078 0.67281 0.89883 0.0
C1562 C 0.93172 0.63091 0.87392 0.0
C1563 C 0.94751 0.61524 0.88449 0.0
C1564 C 0.93536 0.58833 0.89174 0.0
C1565 C 0.90686 0.57765 0.88802 0.0
C1566 C 0.89108 0.59335 0.8774 0.0
H1567 H 0.90612 0.68779 0.90992 0.0
H1568 H 0.91218 0.65648 0.91334 0.0
H1569 H 0.93098 0.6832 0.89404 0.0
H1570 H 0.94171 0.65135 0.86819 0.0
H1571 H 0.96935 0.6244 0.88727 0.0
H1572 H 0.20374 0.26048 0.2065 0.0
H1573 H 0.17294 0.28101 0.17755 0.0
H1574 H 0.24071 0.35619 0.18163 0.0
H1575 H 0.27132 0.33572 0.20987 0.0
H1576 H 0.16293 0.32463 0.19464 0.0
H1577 H 0.20332 0.3499 0.09871 0.0
H1578 H 0.21189 0.32652 0.12354 0.0
H1579 H 0.2294 0.36238 0.13059 0.0
C1580 C 0.21211 0.28112 0.20045 0.0
C1581 C 0.24001 0.29642 0.21014 0.0
C1582 C 0.19448 0.29293 0.1841 0.0
C1583 C 0.20446 0.32016 0.17705 0.0
C1584 C 0.23247 0.33506 0.18612 0.0
H1585 H 0.14404 0.4454 0.10722 0.0
H1586 H 0.17081 0.41815 0.12866 0.0
C1587 C 0.24998 0.32335 0.2024 0.0
C1588 C 0.18566 0.33391 0.16241 0.0
H1589 H 0.17535 0.37354 0.10699 0.0
C1590 C 0.16539 0.33499 0.17524 0.0
C1591 C 0.18893 0.34769 0.1372 0.0
C1592 C 0.20939 0.34637 0.12155 0.0
C1593 C 0.14905 0.35018 0.16421 0.0
C1594 C 0.15265 0.36438 0.13926 0.0
C1595 C 0.1726 0.36287 0.12616 0.0
C1596 C 0.1361 0.38102 0.12651 0.0
C1597 C 0.12881 0.3517 0.18008 0.0
C1598 C 0.10759 0.36935 0.11784 0.0
C1599 C 0.09217 0.38496 0.10575 0.0
C1600 C 0.10482 0.41269 0.10169 0.0
C1601 C 0.13344 0.42427 0.11024 0.0
C1602 C 0.14885 0.40862 0.12236 0.0
H1603 H 0.1338 0.34625 0.20245 0.0
H1604 H 0.128 0.37227 0.17986 0.0
H1605 H 0.10827 0.33724 0.16977 0.0
H1606 H 0.09717 0.34805 0.12024 0.0
H1607 H 0.07023 0.37526 0.09987 0.0
H1608 H 0.18109 0.67669 0.765 0.0
H1609 H 0.1554 0.662 0.80163 0.0
H1610 H 0.21377 0.72926 0.857 0.0
H1611 H 0.23985 0.74345 0.82085 0.0
H1612 H 0.20458 0.68183 0.88282 0.0
H1613 H 0.11522 0.67083 0.80915 0.0
H1614 H 0.13635 0.70586 0.81738 0.0
H1615 H 0.10637 0.69089 0.83113 0.0
C1616 C 0.18812 0.68857 0.78482 0.0
C1617 C 0.21211 0.71153 0.78982 0.0
C1618 C 0.17336 0.68031 0.80564 0.0
C1619 C 0.18238 0.69484 0.83187 0.0
C1620 C 0.20625 0.71794 0.8368 0.0
H1621 H 0.07493 0.62424 0.94755 0.0
H1622 H 0.10738 0.66099 0.92734 0.0
C1623 C 0.22103 0.72616 0.816 0.0
C1624 C 0.16831 0.68428 0.85493 0.0
H1625 H 0.1052 0.6589 0.86854 0.0
C1626 C 0.18296 0.67738 0.87998 0.0
C1627 C 0.14023 0.67889 0.85151 0.0
C1628 C 0.12372 0.68729 0.82593 0.0
C1629 C 0.16981 0.6633 0.90064 0.0
C1630 C 0.14131 0.65574 0.89595 0.0
C1631 C 0.12705 0.66455 0.87203 0.0
C1632 C 0.12536 0.63529 0.91287 0.0
C1633 C 0.18633 0.65568 0.9268 0.0
C1634 C 0.12515 0.6089 0.91188 0.0
C1635 C 0.10657 0.58802 0.92302 0.0
C1636 C 0.08786 0.5931 0.93546 0.0
C1637 C 0.08918 0.61981 0.93811 0.0
C1638 C 0.10764 0.64076 0.92657 0.0
H1639 H 0.20779 0.67004 0.93189 0.0
H1640 H 0.17756 0.6552 0.94537 0.0
H1641 H 0.1864 0.63527 0.92303 0.0
H1642 H 0.13829 0.60414 0.90099 0.0
H1643 H 0.1061 0.56765 0.92079 0.0
H1644 H 0.28093 0.19245 0.78089 0.0
H1645 H 0.30105 0.16139 0.80702 0.0
H1646 H 0.37677 0.22813 0.83652 0.0
H1647 H 0.35671 0.25915 0.81065 0.0
H1648 H 0.34733 0.15312 0.79744 0.0
H1649 H 0.3659 0.18775 0.90894 0.0
H1650 H 0.34246 0.19593 0.88035 0.0
H1651 H 0.37845 0.21451 0.88632 0.0
C1652 C 0.30161 0.2006 0.79356 0.0
C1653 C 0.31715 0.22835 0.79397 0.0
C1654 C 0.31318 0.18278 0.80834 0.0
C1655 C 0.34043 0.19237 0.82398 0.0
C1656 C 0.35562 0.22021 0.82507 0.0
H1657 H 0.46249 0.12994 0.91289 0.0
H1658 H 0.43541 0.15674 0.89146 0.0
C1659 C 0.34414 0.23795 0.81021 0.0
C1660 C 0.35375 0.1733 0.83741 0.0
H1661 H 0.38908 0.15943 0.90044 0.0
C1662 C 0.35616 0.15425 0.82002 0.0
C1663 C 0.36551 0.17488 0.86683 0.0
C1664 C 0.36279 0.19419 0.88678 0.0
C1665 C 0.37076 0.13745 0.83104 0.0
C1666 C 0.38282 0.13922 0.86048 0.0
C1667 C 0.37997 0.15799 0.87791 0.0
C1668 C 0.39911 0.12241 0.87355 0.0
C1669 C 0.37405 0.11878 0.81079 0.0
C1670 C 0.38783 0.09401 0.87104 0.0
C1671 C 0.40334 0.07851 0.88341 0.0
C1672 C 0.43049 0.091 0.89891 0.0
C1673 C 0.44159 0.11946 0.90158 0.0
C1674 C 0.42612 0.1349 0.88915 0.0
H1675 H 0.37035 0.12517 0.78864 0.0
H1676 H 0.39477 0.11795 0.81678 0.0
H1677 H 0.35906 0.0981 0.81135 0.0
H1678 H 0.36688 0.08374 0.85976 0.0
H1679 H 0.39387 0.0567 0.88117 0.0
H1680 H 0.83485 0.27779 0.83813 0.0
H1681 H 0.85692 0.304 0.88269 0.0
H1682 H 0.79572 0.34004 0.86793 0.0
H1683 H 0.77403 0.31425 0.82252 0.0
H1684 H 0.84292 0.377 0.87886 0.0
H1685 H 0.84686 0.30344 0.96078 0.0
H1686 H 0.85999 0.29623 0.9328 0.0
H1687 H 0.82492 0.2935 0.92574 0.0
C1688 C 0.8257 0.29073 0.84458 0.0
C1689 C 0.80282 0.29398 0.82668 0.0
C1690 C 0.8382 0.3056 0.87035 0.0
C1691 C 0.8277 0.32362 0.87914 0.0
C1692 C 0.80412 0.32611 0.86177 0.0
H1693 H 0.93396 0.46401 0.99281 0.0
H1694 H 0.89107 0.42518 0.97777 0.0
C1695 C 0.79187 0.31154 0.83572 0.0
C1696 C 0.84389 0.34285 0.90381 0.0
H1697 H 0.88503 0.34752 0.96994 0.0
C1698 C 0.85139 0.37054 0.89913 0.0
C1699 C 0.85492 0.33452 0.93037 0.0
C1700 C 0.84595 0.30527 0.93775 0.0
C1701 C 0.87143 0.38996 0.9191 0.0
C1702 C 0.88418 0.38145 0.94462 0.0
C1703 C 0.87529 0.35395 0.95031 0.0
C1704 C 0.90966 0.40042 0.96265 0.0
C1705 C 0.8804 0.41926 0.91164 0.0
C1706 C 0.93437 0.39845 0.96101 0.0
C1707 C 0.95871 0.42044 0.96967 0.0
C1708 C 0.95855 0.44446 0.98027 0.0
C1709 C 0.93435 0.44549 0.98477 0.0
C1710 C 0.90995 0.4234 0.97619 0.0
H1711 H 0.87049 0.42198 0.88958 0.0
H1712 H 0.87514 0.431 0.92617 0.0
H1713 H 0.90281 0.42791 0.91416 0.0
H1714 H 0.93454 0.38091 0.95056 0.0
H1715 H 0.97725 0.41947 0.9659 0.0
H1716 H 0.70493 0.83017 0.90046 0.0
H1717 H 0.67289 0.85105 0.90575 0.0
H1718 H 0.6718 0.88097 0.82193 0.0
H1719 H 0.7038 0.85977 0.81639 0.0
H1720 H 0.68303 0.90502 0.90521 0.0
H1721 H 0.59114 0.85088 0.82093 0.0
H1722 H 0.61872 0.83868 0.8325 0.0
H1723 H 0.62195 0.866 0.80897 0.0
C1724 C 0.69773 0.84102 0.88305 0.0
C1725 C 0.70709 0.84349 0.85809 0.0
C1726 C 0.67933 0.85288 0.88606 0.0
C1727 C 0.66977 0.86749 0.86422 0.0
C1728 C 0.67845 0.86939 0.83889 0.0
H1729 H 0.57218 0.96758 0.86509 0.0
H1730 H 0.599 0.94397 0.85122 0.0
C1731 C 0.69681 0.85732 0.83578 0.0
C1732 C 0.65246 0.88228 0.86913 0.0
H1733 H 0.59003 0.88759 0.84608 0.0
C1734 C 0.66268 0.90115 0.89227 0.0
C1735 C 0.626 0.87747 0.85208 0.0
C1736 C 0.61363 0.85701 0.82735 0.0
C1737 C 0.64719 0.91511 0.89902 0.0
C1738 C 0.6205 0.90981 0.88245 0.0
C1739 C 0.61045 0.89149 0.85884 0.0
C1740 C 0.60262 0.92268 0.88989 0.0
C1741 C 0.65965 0.93559 0.92376 0.0
C1742 C 0.59511 0.91797 0.91588 0.0
C1743 C 0.57969 0.93128 0.9238 0.0
C1744 C 0.57132 0.94956 0.90586 0.0
C1745 C 0.57806 0.95349 0.87935 0.0
C1746 C 0.5935 0.94012 0.87143 0.0
H1747 H 0.68222 0.94253 0.92933 0.0
H1748 H 0.65366 0.95347 0.91912 0.0
H1749 H 0.65232 0.92623 0.94254 0.0
H1750 H 0.60142 0.90415 0.9302 0.0
H1751 H 0.57442 0.92732 0.94409 0.0
H1752 H 0.87999 0.69377 0.19219 0.0
H1753 H 0.90522 0.66473 0.18742 0.0
H1754 H 0.86541 0.64967 0.09863 0.0
H1755 H 0.83988 0.67819 0.10332 0.0
H1756 H 0.86893 0.60295 0.12712 0.0
H1757 H 0.96852 0.68874 0.14655 0.0
H1758 H 0.94966 0.68453 0.17334 0.0
H1759 H 0.93644 0.69368 0.13861 0.0
C1760 C 0.8764 0.684 0.17174 0.0
C1761 C 0.85819 0.68853 0.14804 0.0
C1762 C 0.89097 0.6676 0.16901 0.0
C1763 C 0.8875 0.65542 0.14257 0.0
C1764 C 0.86855 0.65905 0.11918 0.0
H1765 H 0.98685 0.59506 0.0713 0.0
H1766 H 0.96161 0.62016 0.08554 0.0
C1767 C 0.85411 0.67549 0.12185 0.0
C1768 C 0.90409 0.63953 0.13877 0.0
H1769 H 0.96881 0.64553 0.13824 0.0
C1770 C 0.8908 0.61215 0.12978 0.0
C1771 C 0.93256 0.65174 0.14189 0.0
C1772 C 0.94773 0.68133 0.15041 0.0
C1773 C 0.9052 0.5967 0.12359 0.0
C1774 C 0.9337 0.60889 0.1268 0.0
C1775 C 0.94701 0.6362 0.13602 0.0
C1776 C 0.94983 0.59407 0.11919 0.0
C1777 C 0.88968 0.56772 0.11269 0.0
C1778 C 0.95204 0.57139 0.13376 0.0
C1779 C 0.96642 0.55695 0.12563 0.0
C1780 C 0.97887 0.56497 0.10277 0.0
C1781 C 0.97722 0.58816 0.08876 0.0
C1782 C 0.96292 0.6026 0.09695 0.0
H1783 H 0.86743 0.56318 0.10571 0.0
H1784 H 0.89689 0.56305 0.09466 0.0
H1785 H 0.89313 0.55411 0.12984 0.0
H1786 H 0.94243 0.5647 0.15126 0.0
H1787 H 0.96708 0.53905 0.1367 0.0
H1788 H 0.28409 0.77965 0.18001 0.0
H1789 H 0.30577 0.80696 0.14459 0.0
H1790 H 0.3804 0.84167 0.20847 0.0
H1791 H 0.35859 0.81464 0.2443 0.0
H1792 H 0.34445 0.8736 0.1537 0.0
H1793 H 0.38652 0.79645 0.13433 0.0
H1794 H 0.35485 0.78754 0.14511 0.0
H1795 H 0.38653 0.80364 0.17026 0.0
C1796 C 0.30489 0.79354 0.18669 0.0
C1797 C 0.31954 0.79552 0.21503 0.0
C1798 C 0.31725 0.809 0.16639 0.0
C1799 C 0.34454 0.82625 0.17408 0.0
C1800 C 0.35921 0.82848 0.20234 0.0
H1801 H 0.46993 0.94405 0.11924 0.0
H1802 H 0.43323 0.91562 0.14015 0.0
C1803 C 0.34681 0.81309 0.22268 0.0
C1804 C 0.35843 0.84074 0.15237 0.0
H1805 H 0.40323 0.83885 0.11446 0.0
C1806 C 0.35702 0.86593 0.14475 0.0
C1807 C 0.3743 0.83029 0.14049 0.0
C1808 C 0.37569 0.80292 0.14773 0.0
C1809 C 0.37251 0.88176 0.12662 0.0
C1810 C 0.38985 0.87209 0.11624 0.0
C1811 C 0.3899 0.84615 0.1225 0.0
C1812 C 0.41078 0.88991 0.10231 0.0
C1813 C 0.37092 0.90904 0.11936 0.0
C1814 C 0.41043 0.88453 0.07417 0.0
C1815 C 0.43145 0.90089 0.06202 0.0
C1816 C 0.45328 0.9224 0.07814 0.0
C1817 C 0.4535 0.92751 0.10634 0.0
C1818 C 0.43242 0.91147 0.11826 0.0
H1819 H 0.35169 0.91031 0.12223 0.0
H1820 H 0.38817 0.92487 0.13355 0.0
H1821 H 0.3724 0.91343 0.09716 0.0
H1822 H 0.39397 0.86771 0.06171 0.0
H1823 H 0.4308 0.89654 0.04023 0.0
H1824 H 0.75212 0.23742 0.15148 0.0
H1825 H 0.72261 0.21526 0.10633 0.0
H1826 H 0.65209 0.20833 0.13701 0.0
H1827 H 0.68158 0.23115 0.18188 0.0
H1828 H 0.69105 0.1652 0.1046 0.0
H1829 H 0.62587 0.22138 0.05583 0.0
H1830 H 0.65664 0.23667 0.08305 0.0
H1831 H 0.62506 0.21722 0.09236 0.0
C1832 C 0.73033 0.23193 0.14825 0.0
C1833 C 0.71908 0.23567 0.17031 0.0
C1834 C 0.71349 0.21934 0.12238 0.0
C1835 C 0.68508 0.21019 0.11809 0.0
C1836 C 0.67392 0.21574 0.13942 0.0
H1837 H 0.54904 0.0769 0.06199 0.0
H1838 H 0.5827 0.12243 0.07552 0.0
C1839 C 0.69081 0.22863 0.16523 0.0
C1840 C 0.66731 0.19059 0.09418 0.0
H1841 H 0.60536 0.17191 0.04719 0.0
C1842 C 0.67274 0.16705 0.09138 0.0
C1843 C 0.6435 0.19301 0.07677 0.0
C1844 C 0.63763 0.21861 0.07697 0.0
C1845 C 0.65388 0.14492 0.07371 0.0
C1846 C 0.62896 0.14644 0.05819 0.0
C1847 C 0.62442 0.17072 0.05924 0.0
C1848 C 0.60592 0.1217 0.04518 0.0
C1849 C 0.65982 0.11929 0.07362 0.0
C1850 C 0.60731 0.10655 0.02293 0.0
C1851 C 0.5881 0.0804 0.01529 0.0
C1852 C 0.56723 0.06936 0.02962 0.0
C1853 C 0.56498 0.08514 0.05063 0.0
C1854 C 0.58406 0.11116 0.05821 0.0
H1855 H 0.67874 0.12055 0.08944 0.0
H1856 H 0.64267 0.1018 0.07818 0.0
H1857 H 0.66223 0.11534 0.05237 0.0
H1858 H 0.62403 0.11435 0.01259 0.0
H1859 H 0.59061 0.06825 -0.00041 0.0
H1860 H 0.69524 0.66422 0.74339 0.0
H1861 H 0.66514 0.631 0.76868 0.0
H1862 H 0.65976 0.69546 0.81509 0.0
H1863 H 0.68966 0.72875 0.78971 0.0
H1864 H 0.68811 0.65524 0.84446 0.0
H1865 H 0.58142 0.61009 0.77995 0.0
H1866 H 0.60965 0.61789 0.76339 0.0
H1867 H 0.6024 0.64479 0.77647 0.0
C1868 C 0.68649 0.67129 0.7578 0.0
C1869 C 0.69471 0.69897 0.76464 0.0
C1870 C 0.66948 0.6523 0.7724 0.0
C1871 C 0.66046 0.66096 0.79369 0.0
C1872 C 0.66654 0.68855 0.7986 0.0
H1873 H 0.60577 0.59628 0.94279 0.0
H1874 H 0.63051 0.62392 0.90942 0.0
C1875 C 0.68355 0.70747 0.78411 0.0
C1876 C 0.6493 0.64195 0.81431 0.0
H1877 H 0.59106 0.59491 0.82594 0.0
C1878 C 0.66692 0.6419 0.8405 0.0
C1879 C 0.62184 0.62458 0.80867 0.0
C1880 C 0.60253 0.62415 0.78064 0.0
C1881 C 0.65763 0.62491 0.86156 0.0
C1882 C 0.62985 0.60809 0.85638 0.0
C1883 C 0.61236 0.60786 0.82987 0.0
C1884 C 0.61814 0.59097 0.87821 0.0
C1885 C 0.67774 0.62495 0.88892 0.0
C1886 C 0.60319 0.56336 0.87181 0.0
C1887 C 0.58867 0.54781 0.89051 0.0
C1888 C 0.58914 0.55956 0.91605 0.0
C1889 C 0.60541 0.58678 0.92333 0.0
C1890 C 0.61957 0.60251 0.90432 0.0
H1891 H 0.69884 0.63187 0.88599 0.0
H1892 H 0.67726 0.63914 0.90475 0.0
H1893 H 0.6727 0.60456 0.8976 0.0
H1894 H 0.60192 0.55408 0.85184 0.0
H1895 H 0.57633 0.52677 0.88457 0.0
H1896 H 0.3419 0.65882 0.85257 0.0
H1897 H 0.38246 0.6592 0.88733 0.0
H1898 H 0.36306 0.70035 0.94903 0.0
H1899 H 0.32239 0.70079 0.91385 0.0
H1900 H 0.42694 0.71413 0.92712 0.0
H1901 H 0.37128 0.62039 0.97577 0.0
H1902 H 0.35857 0.6243 0.93874 0.0
H1903 H 0.35706 0.64613 0.96494 0.0
C1904 C 0.34642 0.66839 0.87334 0.0
C1905 C 0.32907 0.67994 0.88044 0.0
C1906 C 0.36952 0.66849 0.89317 0.0
C1907 C 0.37563 0.67995 0.92049 0.0
C1908 C 0.35854 0.69156 0.92788 0.0
H1909 H 0.49357 0.6163 0.01647 0.0
H1910 H 0.46833 0.64678 0.01395 0.0
C1911 C 0.33532 0.69157 0.90791 0.0
C1912 C 0.39944 0.67825 0.94111 0.0
H1913 H 0.41811 0.63053 0.97906 0.0
C1914 C 0.42526 0.6965 0.93965 0.0
C1915 C 0.39698 0.65531 0.95734 0.0
C1916 C 0.36952 0.63535 0.95954 0.0
C1917 C 0.44869 0.69098 0.95201 0.0
C1918 C 0.44591 0.66639 0.96546 0.0
C1919 C 0.42032 0.64958 0.96924 0.0
C1920 C 0.46727 0.65466 0.96976 0.0
C1921 C 0.47592 0.71053 0.94871 0.0
C1922 C 0.47562 0.64967 0.946 0.0
C1923 C 0.48978 0.63235 0.9474 0.0
C1924 C 0.49567 0.61957 0.97251 0.0
C1925 C 0.48932 0.62614 0.99696 0.0
C1926 C 0.47498 0.6435 0.99553 0.0
H1927 H 0.47663 0.73166 0.94917 0.0
H1928 H 0.49288 0.70876 0.96561 0.0
H1929 H 0.47898 0.70632 0.92785 0.0
H1930 H 0.46926 0.65737 0.92568 0.0
H1931 H 0.49455 0.62752 0.92831 0.0
H1932 H 0.34144 0.34788 0.76943 0.0
H1933 H 0.35314 0.39142 0.7942 0.0
H1934 H 0.27031 0.36849 0.80201 0.0
H1935 H 0.25874 0.32489 0.7775 0.0
H1936 H 0.33094 0.43654 0.79426 0.0
H1937 H 0.31708 0.36651 0.88289 0.0
H1938 H 0.31803 0.35435 0.84924 0.0
H1939 H 0.28944 0.36243 0.85247 0.0
C1940 C 0.32568 0.35256 0.77575 0.0
C1941 C 0.29957 0.33305 0.77273 0.0
C1942 C 0.33221 0.37741 0.7896 0.0
C1943 C 0.31259 0.38285 0.80019 0.0
C1944 C 0.2857 0.36447 0.7942 0.0
H1945 H 0.41841 0.4651 0.954 0.0
H1946 H 0.37291 0.45172 0.92257 0.0
C1947 C 0.27927 0.33954 0.78066 0.0
C1948 C 0.32214 0.40414 0.82273 0.0
H1949 H 0.34946 0.40973 0.89355 0.0
C1950 C 0.33423 0.43105 0.81617 0.0
C1951 C 0.32548 0.39707 0.85134 0.0
C1952 C 0.31187 0.36857 0.85963 0.0
C1953 C 0.35269 0.45032 0.83728 0.0
C1954 C 0.35999 0.44185 0.86496 0.0
C1955 C 0.3445 0.41613 0.87219 0.0
C1956 C 0.38711 0.45576 0.88393 0.0
C1957 C 0.3656 0.47897 0.82923 0.0
C1958 C 0.41027 0.46251 0.87286 0.0
C1959 C 0.43614 0.47083 0.89076 0.0
C1960 C 0.43943 0.47179 0.92021 0.0
C1961 C 0.41639 0.46493 0.93141 0.0
C1962 C 0.39043 0.45735 0.91343 0.0
H1963 H 0.34998 0.48549 0.81507 0.0
H1964 H 0.37557 0.49324 0.84808 0.0
H1965 H 0.38091 0.47999 0.81717 0.0
H1966 H 0.40842 0.46013 0.85039 0.0
H1967 H 0.45353 0.4758 0.88149 0.0
H1968 H 0.66571 0.31192 0.81844 0.0
H1969 H 0.65036 0.32505 0.85694 0.0
H1970 H 0.66218 0.40352 0.82268 0.0
H1971 H 0.67945 0.39131 0.78529 0.0
H1972 H 0.67878 0.40735 0.87919 0.0
H1973 H 0.57579 0.3276 0.84629 0.0
H1974 H 0.6031 0.31511 0.85549 0.0
H1975 H 0.60043 0.33514 0.82504 0.0
C1976 C 0.66555 0.33217 0.81934 0.0
C1977 C 0.67361 0.35051 0.79856 0.0
C1978 C 0.65641 0.33948 0.84119 0.0
C1979 C 0.65455 0.36501 0.84229 0.0
C1980 C 0.66326 0.38361 0.82208 0.0
H1981 H 0.55188 0.42448 0.90062 0.0
H1982 H 0.57439 0.40241 0.87769 0.0
C1983 C 0.6728 0.37648 0.8005 0.0
C1984 C 0.64273 0.37233 0.86379 0.0
H1985 H 0.58377 0.35617 0.8856 0.0
C1986 C 0.65808 0.39608 0.88082 0.0
C1987 C 0.61568 0.35756 0.8657 0.0
C1988 C 0.59767 0.33258 0.84701 0.0
C1989 C 0.64672 0.4062 0.89878 0.0
C1990 C 0.61954 0.3916 0.90039 0.0
C1991 C 0.60465 0.36718 0.88439 0.0
C1992 C 0.60502 0.40295 0.91557 0.0
C1993 C 0.66337 0.43318 0.91448 0.0
C1994 C 0.61445 0.41015 0.94464 0.0
C1995 C 0.60166 0.42306 0.95782 0.0
C1996 C 0.5789 0.42832 0.94231 0.0
C1997 C 0.56896 0.42015 0.91342 0.0
C1998 C 0.58191 0.40764 0.90021 0.0
H1999 H 0.68165 0.44428 0.90625 0.0
H2000 H 0.65101 0.44608 0.91289 0.0
H2001 H 0.67039 0.42995 0.9372 0.0
H2002 H 0.63197 0.40626 0.95697 0.0
H2003 H 0.60971 0.42933 0.98001 0.0
H2004 H 0.69359 0.35454 0.15976 0.0
H2005 H 0.65389 0.35602 0.12501 0.0
H2006 H 0.67778 0.32402 0.05987 0.0
H2007 H 0.71743 0.32126 0.09506 0.0
H2008 H 0.66542 0.38039 0.05675 0.0
H2009 H 0.58565 0.28528 0.07624 0.0
H2010 H 0.61111 0.30362 0.10683 0.0
H2011 H 0.62081 0.28876 0.08063 0.0
C2012 C 0.69023 0.34726 0.13821 0.0
C2013 C 0.70847 0.33745 0.13022 0.0
C2014 C 0.66758 0.3482 0.11841 0.0
C2015 C 0.66289 0.33969 0.0902 0.0
C2016 C 0.68112 0.33031 0.08177 0.0
H2017 H 0.541 0.39648 0.98251 0.0
H2018 H 0.57416 0.37408 0.99162 0.0
C2019 C 0.70379 0.32904 0.10176 0.0
C2020 C 0.6398 0.34285 0.0697 0.0
H2021 H 0.57066 0.32034 0.05565 0.0
C2022 C 0.6446 0.36697 0.05563 0.0
C2023 C 0.61293 0.32524 0.06874 0.0
C2024 C 0.60715 0.29913 0.08376 0.0
C2025 C 0.62311 0.37528 0.04275 0.0
C2026 C 0.59615 0.35839 0.04314 0.0
C2027 C 0.59131 0.33315 0.05523 0.0
C2028 C 0.57354 0.36844 0.03579 0.0
C2029 C 0.6298 0.40278 0.03054 0.0
C2030 C 0.56142 0.37152 0.05725 0.0
C2031 C 0.54258 0.38421 0.05211 0.0
C2032 C 0.53562 0.39427 0.02544 0.0
C2033 C 0.54636 0.38947 0.00339 0.0
C2034 C 0.5653 0.3767 0.00855 0.0
H2035 H 0.65149 0.41586 0.03869 0.0
H2036 H 0.62613 0.39995 0.00733 0.0
H2037 H 0.61691 0.41344 0.03513 0.0
H2038 H 0.56739 0.3651 0.07839 0.0
H2039 H 0.53404 0.3868 0.06933 0.0
H2040 H 0.67485 0.69295 0.2122 0.0
H2041 H 0.64263 0.65829 0.17628 0.0
H2042 H 0.7063 0.62991 0.17024 0.0
H2043 H 0.73842 0.66398 0.20644 0.0
H2044 H 0.65161 0.65791 0.12125 0.0
H2045 H 0.64159 0.55984 0.17133 0.0
H2046 H 0.65441 0.59147 0.19179 0.0
H2047 H 0.67581 0.58298 0.17367 0.0
C2048 C 0.68176 0.67877 0.2039 0.0
C2049 C 0.70916 0.68129 0.21192 0.0
C2050 C 0.66342 0.65915 0.18326 0.0
C2051 C 0.67221 0.64169 0.17066 0.0
C2052 C 0.6991 0.64304 0.17994 0.0
H2053 H 0.5732 0.52209 0.02979 0.0
H2054 H 0.61481 0.55577 0.059 0.0
C2055 C 0.71742 0.6626 0.20055 0.0
C2056 C 0.65396 0.62393 0.14595 0.0
H2057 H 0.61963 0.55796 0.12302 0.0
C2058 C 0.6447 0.63605 0.12155 0.0
C2059 C 0.64554 0.5955 0.14635 0.0
C2060 C 0.65465 0.58157 0.17222 0.0
C2061 C 0.62626 0.62035 0.09783 0.0
C2062 C 0.6169 0.59197 0.09873 0.0
C2063 C 0.62719 0.57982 0.1225 0.0
C2064 C 0.59303 0.57472 0.0777 0.0
C2065 C 0.61618 0.63407 0.07228 0.0
C2066 C 0.56742 0.57472 0.07852 0.0
C2067 C 0.54398 0.55543 0.06249 0.0
C2068 C 0.54589 0.53614 0.04512 0.0
C2069 C 0.5715 0.53701 0.04299 0.0
C2070 C 0.5951 0.55609 0.05957 0.0
H2071 H 0.63011 0.65534 0.07195 0.0
H2072 H 0.61396 0.62299 0.05242 0.0
H2073 H 0.59587 0.63413 0.07279 0.0
H2074 H 0.56555 0.58881 0.09267 0.0
H2075 H 0.52433 0.5551 0.06422 0.0
H2076 H 0.32713 0.60655 0.18214 0.0
H2077 H 0.33921 0.59486 0.14031 0.0
H2078 H 0.37561 0.67943 0.1256 0.0
H2079 H 0.36432 0.69136 0.16793 0.0
H2080 H 0.32479 0.60994 0.08237 0.0
H2081 H 0.43664 0.64885 0.1297 0.0
H2082 H 0.41218 0.6426 0.15109 0.0
H2083 H 0.41883 0.67152 0.12976 0.0
C2084 C 0.33796 0.62265 0.17018 0.0
C2085 C 0.34501 0.64985 0.17844 0.0
C2086 C 0.34458 0.61596 0.14617 0.0
C2087 C 0.35842 0.63632 0.1301 0.0
C2088 C 0.36513 0.66349 0.13795 0.0
H2089 H 0.42949 0.59285 0.00287 0.0
H2090 H 0.41403 0.62173 0.02737 0.0
C2091 C 0.35853 0.67022 0.16199 0.0
C2092 C 0.36644 0.62876 0.10567 0.0
H2093 H 0.42119 0.62495 0.08576 0.0
C2094 C 0.34589 0.61362 0.0828 0.0
C2095 C 0.39401 0.63394 0.10623 0.0
C2096 C 0.41679 0.64999 0.13052 0.0
C2097 C 0.35212 0.60217 0.06116 0.0
C2098 C 0.3795 0.60561 0.06285 0.0
C2099 C 0.40021 0.62238 0.08462 0.0
C2100 C 0.38663 0.58856 0.04528 0.0
C2101 C 0.32927 0.58564 0.03724 0.0
C2102 C 0.37653 0.56053 0.04767 0.0
C2103 C 0.38563 0.54415 0.03433 0.0
C2104 C 0.40502 0.55543 0.01815 0.0
C2105 C 0.41459 0.58355 0.01516 0.0
C2106 C 0.40566 0.60003 0.02891 0.0
H2107 H 0.31181 0.59257 0.03347 0.0
H2108 H 0.33616 0.58672 0.0173 0.0
H2109 H 0.32191 0.5642 0.04291 0.0
H2110 H 0.36258 0.55138 0.06107 0.0
H2111 H 0.37848 0.52279 0.03811 0.0
H2112 H 0.35179 0.26612 0.22671 0.0
H2113 H 0.38031 0.29392 0.19658 0.0
H2114 H 0.36903 0.36418 0.22426 0.0
H2115 H 0.34065 0.33639 0.25457 0.0
H2116 H 0.34724 0.31636 0.15583 0.0
H2117 H 0.44683 0.39427 0.20777 0.0
H2118 H 0.43145 0.36308 0.22399 0.0
H2119 H 0.41896 0.39005 0.22379 0.0
C2120 C 0.35681 0.28779 0.22762 0.0
C2121 C 0.34416 0.29926 0.2428 0.0
C2122 C 0.373 0.3036 0.21037 0.0
C2123 C 0.37657 0.33099 0.20812 0.0
C2124 C 0.3668 0.34314 0.22606 0.0
H2125 H 0.41148 0.45174 0.08732 0.0
H2126 H 0.39701 0.42364 0.12574 0.0
C2127 C 0.35068 0.32729 0.24349 0.0
C2128 C 0.38369 0.34457 0.18256 0.0
H2129 H 0.42838 0.39959 0.15943 0.0
C2130 C 0.36519 0.33437 0.15647 0.0
C2131 C 0.40683 0.36817 0.18374 0.0
C2132 C 0.42733 0.37954 0.21127 0.0
C2133 C 0.36877 0.34766 0.13149 0.0
C2134 C 0.39182 0.37146 0.13262 0.0
C2135 C 0.41066 0.38134 0.15867 0.0
C2136 C 0.3965 0.38704 0.10728 0.0
C2137 C 0.34727 0.33671 0.10442 0.0
C2138 C 0.39982 0.37544 0.08359 0.0
C2139 C 0.4075 0.39139 0.06126 0.0
C2140 C 0.41248 0.41916 0.06276 0.0
C2141 C 0.40772 0.43034 0.08574 0.0
C2142 C 0.39968 0.41438 0.10776 0.0
H2143 H 0.3277 0.32287 0.10865 0.0
H2144 H 0.34352 0.35332 0.09171 0.0
H2145 H 0.3543 0.32511 0.09156 0.0
H2146 H 0.39787 0.35446 0.08303 0.0
H2147 H 0.41151 0.38246 0.04396 0.0
H2148 H 0.83394 0.67329 0.60297 0.0
H2149 H 0.8666 0.65277 0.59885 0.0
H2150 H 0.86837 0.62536 0.68365 0.0
H2151 H 0.83502 0.64532 0.68771 0.0
H2152 H 0.91938 0.6614 0.63179 0.0
H2153 H 0.84884 0.55563 0.63587 0.0
H2154 H 0.8372 0.58361 0.63026 0.0
H2155 H 0.85434 0.57827 0.66506 0.0
C2156 C 0.84112 0.66276 0.62072 0.0
C2157 C 0.83154 0.66063 0.64552 0.0
C2158 C 0.85995 0.6512 0.61839 0.0
C2159 C 0.86958 0.63714 0.64074 0.0
C2160 C 0.86083 0.63571 0.66594 0.0
H2161 H 0.96872 0.5388 0.63821 0.0
H2162 H 0.94361 0.56323 0.65404 0.0
C2163 C 0.84198 0.64735 0.66832 0.0
C2164 C 0.8884 0.62369 0.63715 0.0
H2165 H 0.89261 0.56172 0.63061 0.0
C2166 C 0.91362 0.63961 0.63172 0.0
C2167 C 0.88091 0.59527 0.63718 0.0
C2168 C 0.85379 0.57708 0.64219 0.0
C2169 C 0.9314 0.6279 0.62599 0.0
C2170 C 0.92351 0.59942 0.62502 0.0
C2171 C 0.89864 0.58354 0.6313 0.0
C2172 C 0.94005 0.58564 0.61614 0.0
C2173 C 0.95853 0.64623 0.62113 0.0
C2174 C 0.94635 0.59001 0.58955 0.0
C2175 C 0.961 0.57638 0.58062 0.0
C2176 C 0.96937 0.55769 0.59788 0.0
C2177 C 0.96305 0.55336 0.62456 0.0
C2178 C 0.94848 0.56714 0.63355 0.0
H2179 H 0.96516 0.66658 0.63159 0.0
H2180 H 0.97455 0.63763 0.62916 0.0
H2181 H 0.95665 0.64883 0.59807 0.0
H2182 H 0.93954 0.60366 0.57542 0.0
H2183 H 0.96566 0.58044 0.56006 0.0
H2184 H 0.32989 0.8149 0.73163 0.0
H2185 H 0.35955 0.83138 0.69859 0.0
H2186 H 0.29728 0.77781 0.6321 0.0
H2187 H 0.26748 0.76143 0.66523 0.0
H2188 H 0.37535 0.79693 0.65991 0.0
H2189 H 0.31727 0.85985 0.6059 0.0
H2190 H 0.31632 0.84973 0.64164 0.0
H2191 H 0.29925 0.82521 0.61258 0.0
C2192 C 0.32293 0.80614 0.71017 0.0
C2193 C 0.29704 0.78612 0.70116 0.0
C2194 C 0.33972 0.81566 0.69131 0.0
C2195 C 0.33062 0.80565 0.66303 0.0
C2196 C 0.30468 0.78562 0.65392 0.0
H2197 H 0.42263 0.89116 0.5382 0.0
H2198 H 0.38682 0.85673 0.55666 0.0
C2199 C 0.28783 0.77618 0.67282 0.0
C2200 C 0.34797 0.81754 0.643 0.0
H2201 H 0.35904 0.86652 0.59495 0.0
C2202 C 0.37161 0.81182 0.64538 0.0
C2203 C 0.34279 0.83669 0.62381 0.0
C2204 C 0.3176 0.84344 0.62067 0.0
C2205 C 0.39096 0.82578 0.63004 0.0
C2206 C 0.38676 0.84634 0.61236 0.0
C2207 C 0.36226 0.85082 0.6086 0.0
C2208 C 0.40884 0.8656 0.60057 0.0
C2209 C 0.4161 0.81889 0.63349 0.0
C2210 C 0.43291 0.88207 0.61914 0.0
C2211 C 0.4532 0.90172 0.60875 0.0
C2212 C 0.44985 0.90543 0.57952 0.0
C2213 C 0.42583 0.88874 0.56083 0.0
C2214 C 0.40538 0.86907 0.57132 0.0
H2215 H 0.41222 0.79769 0.63958 0.0
H2216 H 0.42341 0.82179 0.61368 0.0
H2217 H 0.43251 0.83232 0.65059 0.0
H2218 H 0.43574 0.88018 0.64182 0.0
H2219 H 0.47139 0.91428 0.62374 0.0
H2220 H 0.18011 0.24711 0.68291 0.0
H2221 H 0.16004 0.27842 0.65797 0.0
H2222 H 0.23772 0.3438 0.68198 0.0
H2223 H 0.25761 0.31265 0.70778 0.0
H2224 H 0.19836 0.35786 0.69319 0.0
H2225 H 0.16302 0.31337 0.58378 0.0
H2226 H 0.15039 0.28892 0.60842 0.0
H2227 H 0.18647 0.30367 0.61086 0.0
C2228 C 0.19309 0.26804 0.68231 0.0
C2229 C 0.2206 0.27719 0.69704 0.0
C2230 C 0.18159 0.28597 0.66791 0.0
C2231 C 0.19734 0.31355 0.66763 0.0
C2232 C 0.22508 0.32263 0.68167 0.0
H2233 H 0.1296 0.42335 0.56422 0.0
H2234 H 0.15659 0.39585 0.58409 0.0
C2235 C 0.23657 0.30468 0.69623 0.0
C2236 C 0.1843 0.33304 0.65461 0.0
H2237 H 0.14268 0.34395 0.59444 0.0
C2238 C 0.18644 0.35495 0.67148 0.0
C2239 C 0.16896 0.32965 0.62617 0.0
C2240 C 0.1673 0.3078 0.60618 0.0
C2241 C 0.17306 0.37292 0.66107 0.0
C2242 C 0.15643 0.3686 0.63312 0.0
C2243 C 0.15503 0.3472 0.61597 0.0
C2244 C 0.14022 0.38585 0.6213 0.0
C2245 C 0.17725 0.39655 0.68014 0.0
C2246 C 0.12162 0.38929 0.63523 0.0
C2247 C 0.1062 0.40512 0.62393 0.0
C2248 C 0.10863 0.41772 0.59813 0.0
C2249 C 0.12699 0.41392 0.584 0.0
C2250 C 0.14255 0.39821 0.59543 0.0
H2251 H 0.19677 0.40203 0.69644 0.0
H2252 H 0.17719 0.41458 0.66787 0.0
H2253 H 0.16057 0.39097 0.69137 0.0
H2254 H 0.11865 0.37937 0.6547 0.0
H2255 H 0.09187 0.40697 0.63517 0.0
H2256 H 0.73226 0.25463 0.64164 0.0
H2257 H 0.70616 0.23075 0.59589 0.0
H2258 H 0.69505 0.15445 0.63515 0.0
H2259 H 0.72163 0.17799 0.6804 0.0
H2260 H 0.70413 0.15332 0.5823 0.0
H2261 H 0.62438 0.19694 0.57959 0.0
H2262 H 0.6583 0.21958 0.57967 0.0
H2263 H 0.65161 0.2014 0.61066 0.0
C2264 C 0.72437 0.23274 0.64041 0.0
C2265 C 0.72854 0.21815 0.66476 0.0
C2266 C 0.70946 0.21915 0.61426 0.0
C2267 C 0.69822 0.19081 0.61219 0.0
C2268 C 0.70354 0.17634 0.63621 0.0
H2269 H 0.56343 0.06583 0.57225 0.0
H2270 H 0.60019 0.10984 0.58128 0.0
C2271 C 0.71865 0.18984 0.66217 0.0
C2272 C 0.67892 0.17557 0.58616 0.0
H2273 H 0.61185 0.15721 0.55257 0.0
C2274 C 0.68413 0.15454 0.57507 0.0
C2275 C 0.65305 0.17763 0.57637 0.0
C2276 C 0.64628 0.19999 0.58714 0.0
C2277 C 0.6632 0.13349 0.5575 0.0
C2278 C 0.63654 0.13391 0.55051 0.0
C2279 C 0.63227 0.15686 0.55833 0.0
C2280 C 0.61245 0.10865 0.54219 0.0
C2281 C 0.6692 0.10967 0.54914 0.0
C2282 C 0.60683 0.09341 0.51699 0.0
C2283 C 0.58593 0.06788 0.51205 0.0
C2284 C 0.57021 0.05763 0.53198 0.0
C2285 C 0.57532 0.07331 0.5566 0.0
C2286 C 0.59615 0.09855 0.56161 0.0
H2287 H 0.69069 0.11179 0.55813 0.0
H2288 H 0.65575 0.09073 0.55643 0.0
H2289 H 0.66516 0.10773 0.52574 0.0
H2290 H 0.61904 0.10085 0.50164 0.0
H2291 H 0.58288 0.05567 0.4934 0.0
H2292 H 0.78121 0.2748 0.35597 0.0
H2293 H 0.81337 0.30142 0.39787 0.0
H2294 H 0.88 0.29576 0.36803 0.0
H2295 H 0.84805 0.26955 0.32573 0.0
H2296 H 0.86748 0.30079 0.44266 0.0
H2297 H 0.87597 0.37625 0.35914 0.0
H2298 H 0.84768 0.34447 0.35496 0.0
H2299 H 0.88013 0.34546 0.3513 0.0
C2300 C 0.80266 0.27858 0.35866 0.0
C2301 C 0.81221 0.27094 0.33705 0.0
C2302 C 0.82096 0.2935 0.38284 0.0
C2303 C 0.84901 0.30069 0.38587 0.0
C2304 C 0.85836 0.29031 0.36602 0.0
H2305 H 0.9909 0.42238 0.48772 0.0
H2306 H 0.95534 0.37774 0.47302 0.0
C2307 C 0.84007 0.27545 0.34176 0.0
C2308 C 0.8681 0.32383 0.40524 0.0
H2309 H 0.90383 0.39124 0.40442 0.0
C2310 C 0.87553 0.32061 0.43447 0.0
C2311 C 0.87807 0.34967 0.39441 0.0
C2312 C 0.87 0.3544 0.36329 0.0
C2313 C 0.89319 0.34281 0.45314 0.0
C2314 C 0.90347 0.36854 0.44209 0.0
C2315 C 0.89577 0.37153 0.4129 0.0
C2316 C 0.9227 0.39305 0.45963 0.0
C2317 C 0.90045 0.33876 0.48443 0.0
C2318 C 0.91599 0.41628 0.45809 0.0
C2319 C 0.9363 0.44168 0.46573 0.0
C2320 C 0.96352 0.44416 0.47566 0.0
C2321 C 0.96992 0.42079 0.48029 0.0
C2322 C 0.94959 0.39529 0.47207 0.0
H2323 H 0.88625 0.31945 0.49027 0.0
H2324 H 0.92131 0.33831 0.4904 0.0
H2325 H 0.90029 0.35572 0.49691 0.0
H2326 H 0.89539 0.415 0.44852 0.0
H2327 H 0.93101 0.45951 0.46204 0.0
H2328 H 0.64978 0.80571 0.30673 0.0
H2329 H 0.63006 0.83836 0.31597 0.0
H2330 H 0.65391 0.82948 0.40573 0.0
H2331 H 0.67453 0.79772 0.3968 0.0
H2332 H 0.58832 0.82988 0.34209 0.0
H2333 H 0.68086 0.91086 0.40169 0.0
H2334 H 0.68236 0.88399 0.38138 0.0
H2335 H 0.67651 0.87852 0.41644 0.0
C2336 C 0.65129 0.81107 0.32847 0.0
C2337 C 0.66375 0.79898 0.35102 0.0
C2338 C 0.63983 0.82963 0.3337 0.0
C2339 C 0.64078 0.83668 0.36156 0.0
C2340 C 0.65337 0.82481 0.38408 0.0
H2341 H 0.57427 0.92314 0.45017 0.0
H2342 H 0.59632 0.89565 0.43428 0.0
C2343 C 0.66483 0.80631 0.37889 0.0
C2344 C 0.62735 0.85522 0.36719 0.0
H2345 H 0.63822 0.9123 0.40558 0.0
C2346 C 0.59928 0.84809 0.35569 0.0
C2347 C 0.64166 0.87904 0.38487 0.0
C2348 C 0.67206 0.88873 0.39657 0.0
C2349 C 0.58494 0.86343 0.36238 0.0
C2350 C 0.59913 0.88676 0.38077 0.0
C2351 C 0.62732 0.8943 0.39165 0.0
C2352 C 0.58505 0.90311 0.3899 0.0
C2353 C 0.55457 0.85396 0.35059 0.0
C2354 C 0.57138 0.91654 0.37024 0.0
C2355 C 0.55879 0.93242 0.37929 0.0
C2356 C 0.55979 0.93533 0.40823 0.0
C2357 C 0.57338 0.92168 0.42779 0.0
C2358 C 0.58593 0.90585 0.41873 0.0
H2359 H 0.54592 0.8326 0.34228 0.0
H2360 H 0.54413 0.85594 0.36701 0.0
H2361 H 0.55009 0.86667 0.33289 0.0
H2362 H 0.57087 0.91515 0.34795 0.0
H2363 H 0.54889 0.94297 0.3637 0.0
H2364 H 0.2494 0.7167 0.30815 0.0
H2365 H 0.22796 0.68671 0.3419 0.0
H2366 H 0.15103 0.66139 0.27999 0.0
H2367 H 0.17314 0.68964 0.24539 0.0
H2368 H 0.19236 0.68836 0.36601 0.0
H2369 H 0.14858 0.59009 0.3065 0.0
H2370 H 0.17138 0.61952 0.29375 0.0
H2371 H 0.13545 0.61327 0.28633 0.0
C2372 C 0.22817 0.704 0.3014 0.0
C2373 C 0.21316 0.7047 0.27379 0.0
C2374 C 0.2158 0.68708 0.32086 0.0
C2375 C 0.18793 0.67122 0.3134 0.0
C2376 C 0.17276 0.67252 0.286 0.0
H2377 H 0.07902 0.61931 0.42437 0.0
H2378 H 0.11307 0.64554 0.39862 0.0
C2379 C 0.18532 0.68888 0.2663 0.0
C2380 C 0.17432 0.65498 0.33485 0.0
H2381 H 0.12725 0.5941 0.34385 0.0
C2382 C 0.17849 0.66756 0.36132 0.0
C2383 C 0.15663 0.62766 0.32917 0.0
C2384 C 0.15304 0.61184 0.3025 0.0
C2385 C 0.16462 0.65399 0.38171 0.0
C2386 C 0.14516 0.62749 0.37498 0.0
C2387 C 0.14186 0.61455 0.349 0.0
C2388 C 0.12713 0.61299 0.39379 0.0
C2389 C 0.17123 0.66821 0.41022 0.0
C2390 C 0.12337 0.5859 0.39944 0.0
C2391 C 0.10328 0.57076 0.41315 0.0
C2392 C 0.08716 0.58266 0.42214 0.0
C2393 C 0.09169 0.61002 0.41796 0.0
C2394 C 0.11128 0.625 0.40345 0.0
H2395 H 0.19262 0.68271 0.41575 0.0
H2396 H 0.15788 0.67996 0.40946 0.0
H2397 H 0.16816 0.6537 0.42728 0.0
H2398 H 0.13528 0.57614 0.39225 0.0
H2399 H 0.09987 0.54956 0.41614 0.0
H2400 H 0.26313 0.1642 0.29624 0.0
H2401 H 0.29358 0.14358 0.32447 0.0
H2402 H 0.36153 0.21871 0.32896 0.0
H2403 H 0.33087 0.23936 0.29994 0.0
H2404 H 0.37244 0.17589 0.31281 0.0
H2405 H 0.33018 0.14957 0.40736 0.0
H2406 H 0.30433 0.13702 0.37535 0.0
H2407 H 0.32173 0.17292 0.38241 0.0
C2408 C 0.28447 0.17654 0.3038 0.0
C2409 C 0.29453 0.20348 0.29615 0.0
C2410 C 0.3019 0.16474 0.32007 0.0
C2411 C 0.32992 0.17956 0.32925 0.0
C2412 C 0.33999 0.20683 0.32231 0.0
H2413 H 0.43399 0.10727 0.4437 0.0
H2414 H 0.4087 0.13567 0.42253 0.0
C2415 C 0.32244 0.21872 0.30595 0.0
C2416 C 0.3486 0.16576 0.34409 0.0
H2417 H 0.35754 0.12518 0.39893 0.0
C2418 C 0.3694 0.16509 0.33186 0.0
C2419 C 0.34495 0.15181 0.36912 0.0
C2420 C 0.32427 0.15308 0.38449 0.0
C2421 C 0.38596 0.15023 0.34338 0.0
C2422 C 0.38127 0.13497 0.3675 0.0
C2423 C 0.36104 0.13643 0.38024 0.0
C2424 C 0.39719 0.11765 0.38012 0.0
C2425 C 0.40854 0.1514 0.32966 0.0
C2426 C 0.39904 0.09755 0.36362 0.0
C2427 C 0.41401 0.08146 0.37563 0.0
C2428 C 0.42724 0.08469 0.40465 0.0
C2429 C 0.42471 0.10439 0.42122 0.0
C2430 C 0.40997 0.12061 0.40914 0.0
H2431 H 0.415 0.17012 0.31794 0.0
H2432 H 0.42656 0.15054 0.34558 0.0
H2433 H 0.40112 0.13395 0.31419 0.0
H2434 H 0.38882 0.09417 0.34137 0.0
H2435 H 0.41552 0.0668 0.36195 0.0
H2436 H 0.77001 0.83681 0.70757 0.0
H2437 H 0.73795 0.8561 0.68008 0.0
H2438 H 0.67233 0.77926 0.67634 0.0
H2439 H 0.70453 0.76 0.70467 0.0
H2440 H 0.70303 0.84555 0.62835 0.0
H2441 H 0.64501 0.82868 0.71179 0.0
H2442 H 0.6771 0.82402 0.71749 0.0
H2443 H 0.64644 0.79864 0.69777 0.0
C2444 C 0.74879 0.8239 0.70052 0.0
C2445 C 0.73982 0.79691 0.70829 0.0
C2446 C 0.73044 0.83497 0.68481 0.0
C2447 C 0.70252 0.81943 0.67662 0.0
C2448 C 0.69364 0.79193 0.68298 0.0
H2449 H 0.5657 0.87001 0.59986 0.0
H2450 H 0.59443 0.84438 0.61994 0.0
C2451 C 0.71211 0.7808 0.69883 0.0
C2452 C 0.68303 0.83265 0.66254 0.0
H2453 H 0.62982 0.84931 0.67089 0.0
C2454 C 0.68695 0.84625 0.63762 0.0
C2455 C 0.66206 0.83379 0.67461 0.0
C2456 C 0.65745 0.82073 0.70201 0.0
C2457 C 0.67059 0.86079 0.62449 0.0
C2458 C 0.6499 0.86229 0.63678 0.0
C2459 C 0.64565 0.84829 0.66143 0.0
C2460 C 0.63249 0.87825 0.62447 0.0
C2461 C 0.67548 0.87413 0.5973 0.0
C2462 C 0.64409 0.9061 0.62064 0.0
C2463 C 0.62766 0.92086 0.60882 0.0
C2464 C 0.5991 0.90822 0.60065 0.0
C2465 C 0.58756 0.88044 0.60516 0.0
C2466 C 0.604 0.86572 0.61693 0.0
H2467 H 0.68606 0.86466 0.58646 0.0
H2468 H 0.65607 0.87303 0.58252 0.0
H2469 H 0.68861 0.89573 0.60218 0.0
H2470 H 0.66594 0.91651 0.6269 0.0
H2471 H 0.63742 0.94214 0.60573 0.0
H2472 H 0.67883 0.17627 0.24447 0.0
H2473 H 0.64772 0.15393 0.27483 0.0
H2474 H 0.70062 0.21007 0.34426 0.0
H2475 H 0.73195 0.23205 0.3143 0.0
H2476 H 0.67096 0.13305 0.33127 0.0
H2477 H 0.61862 0.20404 0.3409 0.0
H2478 H 0.62833 0.20033 0.30867 0.0
H2479 H 0.65399 0.21703 0.33963 0.0
C2480 C 0.68345 0.18421 0.26602 0.0
C2481 C 0.70751 0.20624 0.27682 0.0
C2482 C 0.66574 0.17146 0.2833 0.0
C2483 C 0.67181 0.18056 0.31164 0.0
C2484 C 0.69539 0.20306 0.32229 0.0
H2485 H 0.58765 0.10684 0.44495 0.0
H2486 H 0.61954 0.13791 0.41945 0.0
C2487 C 0.7132 0.21572 0.30506 0.0
C2488 C 0.655 0.16471 0.33073 0.0
H2489 H 0.60616 0.16347 0.36458 0.0
C2490 C 0.65686 0.13971 0.33866 0.0
C2491 C 0.637 0.17372 0.3406 0.0
C2492 C 0.63415 0.20025 0.33212 0.0
C2493 C 0.64068 0.12315 0.35579 0.0
C2494 C 0.6219 0.13168 0.36479 0.0
C2495 C 0.62062 0.15706 0.3576 0.0
C2496 C 0.60228 0.11364 0.38011 0.0
C2497 C 0.64366 0.09657 0.36405 0.0
C2498 C 0.58184 0.09007 0.36622 0.0
C2499 C 0.5636 0.07245 0.38057 0.0
C2500 C 0.56547 0.07807 0.40915 0.0
C2501 C 0.58573 0.10196 0.42295 0.0
C2502 C 0.60392 0.11971 0.40845 0.0
H2503 H 0.66318 0.09595 0.3613 0.0
H2504 H 0.64256 0.09277 0.38643 0.0
H2505 H 0.62676 0.07996 0.35045 0.0
H2506 H 0.58009 0.08524 0.34424 0.0
H2507 H 0.54822 0.05425 0.36931 0.0
H2508 H 0.78096 0.69105 0.28306 0.0
H2509 H 0.80237 0.66116 0.30957 0.0
H2510 H 0.87619 0.72994 0.33973 0.0
H2511 H 0.8544 0.75986 0.31425 0.0
H2512 H 0.84509 0.65186 0.30123 0.0
H2513 H 0.87133 0.69185 0.41166 0.0
H2514 H 0.84865 0.7015 0.38361 0.0
H2515 H 0.88496 0.71777 0.38878 0.0
C2516 C 0.8014 0.69987 0.29623 0.0
C2517 C 0.81576 0.72793 0.29724 0.0
C2518 C 0.81378 0.68272 0.31112 0.0
C2519 C 0.84089 0.69318 0.32712 0.0
C2520 C 0.85507 0.72128 0.32834 0.0
H2521 H 0.96706 0.6335 0.40925 0.0
H2522 H 0.93884 0.6594 0.3887 0.0
C2523 C 0.84263 0.73842 0.31365 0.0
C2524 C 0.85507 0.67468 0.3405 0.0
H2525 H 0.89472 0.66373 0.40223 0.0
C2526 C 0.85563 0.65425 0.32342 0.0
C2527 C 0.86902 0.67773 0.36945 0.0
C2528 C 0.86825 0.69823 0.38948 0.0
C2529 C 0.87041 0.63754 0.33412 0.0
C2530 C 0.88478 0.64093 0.36295 0.0
C2531 C 0.88384 0.66106 0.38014 0.0
C2532 C 0.90172 0.62458 0.37546 0.0
C2533 C 0.87133 0.6171 0.31411 0.0
C2534 C 0.89038 0.5962 0.37532 0.0
C2535 C 0.90665 0.58117 0.38685 0.0
C2536 C 0.9347 0.59413 0.39899 0.0
C2537 C 0.94577 0.62261 0.3996 0.0
C2538 C 0.92954 0.63756 0.38804 0.0
H2539 H 0.86539 0.62179 0.29161 0.0
H2540 H 0.89199 0.6162 0.31825 0.0
H2541 H 0.85684 0.59682 0.31719 0.0
H2542 H 0.86889 0.58562 0.36635 0.0
H2543 H 0.89729 0.55935 0.38579 0.0
H2544 H 0.33749 0.77168 0.33664 0.0
H2545 H 0.35867 0.79639 0.38239 0.0
H2546 H 0.29257 0.82538 0.37236 0.0
H2547 H 0.27167 0.80106 0.32612 0.0
H2548 H 0.33849 0.8652 0.38131 0.0
H2549 H 0.35055 0.79251 0.46218 0.0
H2550 H 0.3632 0.7874 0.43285 0.0
H2551 H 0.32761 0.78201 0.42768 0.0
C2552 C 0.32707 0.78261 0.34454 0.0
C2553 C 0.30304 0.78452 0.32779 0.0
C2554 C 0.33908 0.79661 0.37089 0.0
C2555 C 0.32699 0.8124 0.38119 0.0
C2556 C 0.3022 0.81319 0.36501 0.0
H2557 H 0.42746 0.95618 0.49113 0.0
H2558 H 0.38617 0.91533 0.4784 0.0
C2559 C 0.29041 0.79951 0.33849 0.0
C2560 C 0.34266 0.83177 0.40583 0.0
H2561 H 0.38545 0.83836 0.47129 0.0
C2562 C 0.34805 0.85927 0.40136 0.0
C2563 C 0.35511 0.82406 0.43204 0.0
C2564 C 0.34854 0.79483 0.43905 0.0
C2565 C 0.36739 0.87933 0.42111 0.0
C2566 C 0.38148 0.87168 0.44638 0.0
C2567 C 0.37465 0.84417 0.4519 0.0
C2568 C 0.4064 0.89179 0.46408 0.0
C2569 C 0.37424 0.90853 0.41351 0.0
C2570 C 0.43168 0.89114 0.46261 0.0
C2571 C 0.45516 0.91423 0.47016 0.0
C2572 C 0.45356 0.93807 0.4794 0.0
C2573 C 0.42894 0.93786 0.484 0.0
C2574 C 0.40546 0.91461 0.47674 0.0
H2575 H 0.36393 0.91063 0.39141 0.0
H2576 H 0.36773 0.91922 0.42788 0.0
H2577 H 0.39654 0.91878 0.41602 0.0
H2578 H 0.43285 0.87373 0.45294 0.0
H2579 H 0.47405 0.91416 0.46643 0.0
H2580 H 0.20213 0.35717 0.31795 0.0
H2581 H 0.1702 0.37848 0.32362 0.0
H2582 H 0.17471 0.35218 0.40902 0.0
H2583 H 0.20639 0.3309 0.40355 0.0
H2584 H 0.11884 0.3584 0.33939 0.0
H2585 H 0.1987 0.4348 0.41857 0.0
H2586 H 0.20646 0.41395 0.39606 0.0
H2587 H 0.1948 0.40065 0.4272 0.0
C2588 C 0.19603 0.35564 0.3378 0.0
C2589 C 0.20719 0.34273 0.36048 0.0
C2590 C 0.17785 0.36789 0.34103 0.0
C2591 C 0.17058 0.36745 0.36697 0.0
C2592 C 0.18058 0.35337 0.38906 0.0
H2593 H 0.07863 0.42976 0.44772 0.0
H2594 H 0.10512 0.40643 0.4331 0.0
C2595 C 0.19872 0.34124 0.3859 0.0
C2596 C 0.15334 0.38239 0.37159 0.0
H2597 H 0.15309 0.4316 0.41446 0.0
C2598 C 0.12634 0.37458 0.35559 0.0
C2599 C 0.16324 0.40364 0.39262 0.0
C2600 C 0.19246 0.41398 0.40942 0.0
C2601 C 0.10866 0.38669 0.36095 0.0
C2602 C 0.11838 0.40734 0.38262 0.0
C2603 C 0.14558 0.41561 0.39803 0.0
C2604 C 0.10065 0.42021 0.39042 0.0
C2605 C 0.07949 0.37669 0.34411 0.0
C2606 C 0.0892 0.43569 0.37124 0.0
C2607 C 0.07413 0.44926 0.37961 0.0
C2608 C 0.07035 0.44773 0.4074 0.0
C2609 C 0.08142 0.43173 0.4263 0.0
C2610 C 0.09647 0.41824 0.41794 0.0
H2611 H 0.07367 0.3569 0.33277 0.0
H2612 H 0.06543 0.37463 0.35808 0.0
H2613 H 0.07676 0.39153 0.32813 0.0
H2614 H 0.09259 0.43792 0.35006 0.0
H2615 H 0.06629 0.46172 0.36463 0.0
H2616 H 0.38233 0.19436 0.6941 0.0
H2617 H 0.4032 0.16153 0.68845 0.0
H2618 H 0.37291 0.15863 0.59791 0.0
H2619 H 0.35181 0.19113 0.60339 0.0
H2620 H 0.3664 0.10665 0.62242 0.0
H2621 H 0.4719 0.18224 0.65496 0.0
H2622 H 0.45028 0.17878 0.6789 0.0
H2623 H 0.4425 0.19189 0.64471 0.0
C2624 C 0.37988 0.18649 0.67303 0.0
C2625 C 0.36567 0.19556 0.64915 0.0
C2626 C 0.39195 0.16789 0.66983 0.0
C2627 C 0.38989 0.15795 0.64273 0.0
C2628 C 0.37488 0.1662 0.61899 0.0
H2629 H 0.48254 0.08713 0.57362 0.0
H2630 H 0.46043 0.11534 0.58818 0.0
C2631 C 0.36299 0.18489 0.62214 0.0
C2632 C 0.40404 0.13964 0.63879 0.0
H2633 H 0.46713 0.13801 0.64281 0.0
C2634 C 0.38841 0.11337 0.6271 0.0
C2635 C 0.43276 0.14864 0.64463 0.0
C2636 C 0.45047 0.17697 0.65631 0.0
C2637 C 0.40077 0.0959 0.62085 0.0
C2638 C 0.42951 0.10492 0.62667 0.0
C2639 C 0.44512 0.13111 0.63859 0.0
C2640 C 0.44369 0.08806 0.61894 0.0
C2641 C 0.38299 0.06829 0.60717 0.0
C2642 C 0.44206 0.06359 0.63181 0.0
C2643 C 0.45467 0.04738 0.6235 0.0
C2644 C 0.4691 0.05535 0.60213 0.0
C2645 C 0.47127 0.08023 0.58985 0.0
C2646 C 0.45877 0.09644 0.59825 0.0
H2647 H 0.36147 0.06648 0.59902 0.0
H2648 H 0.3906 0.06376 0.58938 0.0
H2649 H 0.38352 0.0528 0.62302 0.0
H2650 H 0.43084 0.05693 0.64811 0.0
H2651 H 0.45246 0.02826 0.63324 0.0
H2652 H 0.85497 0.32535 0.74899 0.0
H2653 H 0.87792 0.35459 0.71538 0.0
H2654 H 0.80735 0.31702 0.64738 0.0
H2655 H 0.78485 0.28723 0.68068 0.0
H2656 H 0.85337 0.31652 0.63581 0.0
H2657 H 0.87052 0.41953 0.67317 0.0
H2658 H 0.88308 0.40139 0.70141 0.0
H2659 H 0.84723 0.38976 0.68507 0.0
C2660 C 0.84419 0.32382 0.72697 0.0
C2661 C 0.81793 0.30446 0.71757 0.0
C2662 C 0.85719 0.34063 0.70782 0.0
C2663 C 0.84416 0.3383 0.67893 0.0
C2664 C 0.81766 0.31936 0.66961 0.0
H2665 H 0.92867 0.41138 0.54389 0.0
H2666 H 0.89167 0.38579 0.5665 0.0
C2667 C 0.80471 0.30248 0.68875 0.0
C2668 C 0.85951 0.35328 0.65821 0.0
H2669 H 0.90093 0.41601 0.64535 0.0
C2670 C 0.86334 0.33834 0.63746 0.0
C2671 C 0.87236 0.38172 0.66033 0.0
C2672 C 0.86785 0.39903 0.68103 0.0
C2673 C 0.88121 0.35092 0.62011 0.0
C2674 C 0.89529 0.37918 0.62345 0.0
C2675 C 0.89025 0.39428 0.64305 0.0
C2676 C 0.91734 0.39321 0.60903 0.0
C2677 C 0.88612 0.33378 0.59954 0.0
C2678 C 0.94391 0.40568 0.62545 0.0
C2679 C 0.96491 0.4203 0.61271 0.0
C2680 C 0.95976 0.4228 0.58324 0.0
C2681 C 0.93325 0.40966 0.56664 0.0
C2682 C 0.91213 0.39505 0.5795 0.0
H2683 H 0.8768 0.31184 0.6027 0.0
H2684 H 0.87715 0.33764 0.57758 0.0
H2685 H 0.90828 0.33913 0.60173 0.0
H2686 H 0.94834 0.40437 0.64826 0.0
H2687 H 0.98511 0.43013 0.62609 0.0
H2688 H 0.20404 0.76621 0.65791 0.0
H2689 H 0.17295 0.74866 0.6111 0.0
H2690 H 0.17001 0.66819 0.63175 0.0
H2691 H 0.19972 0.68521 0.67813 0.0
H2692 H 0.18317 0.69683 0.57137 0.0
H2693 H 0.08768 0.68552 0.60263 0.0
H2694 H 0.11885 0.71442 0.61418 0.0
H2695 H 0.11517 0.68264 0.6301 0.0
C2696 C 0.1966 0.7448 0.65232 0.0
C2697 C 0.20482 0.72708 0.6713 0.0
C2698 C 0.17909 0.73489 0.62564 0.0
C2699 C 0.16964 0.70724 0.61797 0.0
C2700 C 0.17751 0.68967 0.63715 0.0
H2701 H 0.10584 0.56334 0.55397 0.0
H2702 H 0.13343 0.61126 0.56339 0.0
C2703 C 0.19474 0.69945 0.66355 0.0
C2704 C 0.15078 0.69536 0.59059 0.0
H2705 H 0.08484 0.65288 0.56843 0.0
C2706 C 0.16143 0.6881 0.56986 0.0
C2707 C 0.12247 0.68433 0.58845 0.0
C2708 C 0.11017 0.69218 0.60989 0.0
C2709 C 0.14492 0.66738 0.54925 0.0
C2710 C 0.11743 0.65339 0.54999 0.0
C2711 C 0.10603 0.66338 0.56808 0.0
C2712 C 0.10265 0.62518 0.53834 0.0
C2713 C 0.15756 0.65901 0.52849 0.0
C2714 C 0.07623 0.61699 0.52083 0.0
C2715 C 0.06048 0.58943 0.51523 0.0
C2716 C 0.07079 0.56985 0.52762 0.0
C2717 C 0.09754 0.57809 0.54411 0.0
C2718 C 0.11338 0.60548 0.54925 0.0
H2719 H 0.17383 0.67675 0.52284 0.0
H2720 H 0.16703 0.64453 0.53839 0.0
H2721 H 0.14212 0.64914 0.50885 0.0
H2722 H 0.06742 0.63185 0.5126 0.0
H2723 H 0.03973 0.58345 0.5027 0.0
loop_
_geom_bond_atom_site_label_1
_geom_bond_atom_site_label_2
_geom_bond_distance
_geom_bond_site_symmetry_2
_ccdc_geom_bond_type
Eu0 N31 2.657 . S
Eu0 N38 2.609 . S
Eu0 O44 2.558 . S
Eu0 O45 2.612 . S
Eu0 O47 2.339 . S
Eu0 O48 2.563 . S
Eu0 O49 2.419 . S
Eu0 O51 2.380 . S
Eu0 O52 2.432 . S
Eu0 C64 2.848 . S
C1 C4 1.429 . S
C1 C5 1.411 . S
C1 N8 1.377 . S
C2 C4 1.420 . S
C2 C6 1.423 . S
C2 C14 1.392 . S
C3 C5 1.420 . S
C3 C6 1.351 . S
C3 H26 0.931 . S
C4 C1 1.429 . S
C4 C2 1.420 . S
C4 N12 1.362 . S
C5 C1 1.411 . S
C5 C3 1.420 . S
C5 C10 1.395 . S
C6 C2 1.423 . S
C6 C3 1.351 . S
C6 H18 0.930 . S
C7 C9 1.400 . S
C7 C10 1.386 . S
C7 H19 0.930 . S
N8 C1 1.377 . S
N8 C9 1.321 . S
N8 Eu11 2.609 . S
C9 C7 1.400 . S
C9 N8 1.321 . S
C9 H16 0.930 . S
C10 C5 1.395 . S
C10 C7 1.386 . S
C10 H29 0.930 . S
Eu11 N8 2.609 . S
Eu11 N12 2.657 . S
Eu11 O45 2.380 . S
Eu11 O46 2.432 . S
Eu11 O50 2.558 . S
Eu11 O51 2.612 . S
Eu11 O53 2.339 . S
Eu11 O54 2.563 . S
Eu11 O55 2.419 . S
Eu11 C75 2.848 . S
N12 C4 1.362 . S
N12 Eu11 2.657 . S
N12 C13 1.334 . S
C13 N12 1.334 . S
C13 C15 1.413 . S
C13 H20 0.929 . S
C14 C2 1.392 . S
C14 C15 1.367 . S
C14 H22 0.930 . S
C15 C13 1.413 . S
C15 C14 1.367 . S
C15 H17 0.930 . S
H16 C9 0.930 . S
H17 C15 0.930 . S
H18 C6 0.930 . S
H19 C7 0.930 . S
H20 C13 0.929 . S
H21 C35 0.930 . S
H22 C14 0.930 . S
H23 C41 0.930 . S
H24 C32 0.929 . S
H25 C39 0.930 . S
H26 C3 0.931 . S
H27 C33 0.930 . S
H28 C66 0.930 . S
H29 C10 0.930 . S
H30 C65 0.931 . S
N31 Eu0 2.657 . S
N31 C32 1.334 . S
N31 C36 1.362 . S
C32 H24 0.929 . S
C32 N31 1.334 . S
C32 C35 1.413 . S
C33 H27 0.930 . S
C33 C34 1.392 . S
C33 C35 1.367 . S
C34 C33 1.392 . S
C34 C36 1.420 . S
C34 C66 1.423 . S
C35 H21 0.930 . S
C35 C32 1.413 . S
C35 C33 1.367 . S
C36 N31 1.362 . S
C36 C34 1.420 . S
C36 C40 1.429 . S
H37 C42 0.930 . S
N38 Eu0 2.609 . S
N38 C40 1.377 . S
N38 C41 1.321 . S
C39 H25 0.930 . S
C39 C41 1.400 . S
C39 C42 1.386 . S
C40 C36 1.429 . S
C40 N38 1.377 . S
C40 C43 1.411 . S
C41 H23 0.930 . S
C41 N38 1.321 . S
C41 C39 1.400 . S
C42 H37 0.930 . S
C42 C39 1.386 . S
C42 C43 1.395 . S
C43 C40 1.411 . S
C43 C42 1.395 . S
C43 C65 1.420 . S
O44 Eu0 2.558 . S
O44 C64 1.257 . S
O45 Eu0 2.612 . S
O45 Eu11 2.380 . S
O45 C56 1.276 . S
O46 Eu11 2.432 . S
O46 C63 1.264 . S
O47 Eu0 2.339 . S
O47 C63 1.254 . S
O48 Eu0 2.563 . S
O48 C56 1.235 . S
O49 Eu0 2.419 . S
O49 C64 1.249 . S
O50 Eu11 2.558 . S
O50 C75 1.257 . S
O51 Eu0 2.380 . S
O51 Eu11 2.612 . S
O51 C67 1.276 . S
O52 Eu0 2.432 . S
O52 C74 1.264 . S
O53 Eu11 2.339 . S
O53 C74 1.254 . S
O54 Eu11 2.563 . S
O54 C67 1.235 . S
O55 Eu11 2.419 . S
O55 C75 1.249 . S
C56 O45 1.276 . S
C56 O48 1.235 . S
C57 C59 1.393 . S
C57 C61 1.395 . S
C57 C64 1.492 . S
C58 C59 1.392 . S
C58 C60 1.386 . S
C59 C57 1.393 . S
C59 C58 1.392 . S
C59 H76 0.930 . S
C60 C58 1.386 . S
C60 C62 1.395 . S
C60 H77 0.930 . S
C61 C57 1.395 . S
C61 C62 1.379 . S
C61 H78 0.930 . S
C62 C60 1.395 . S
C62 C61 1.379 . S
C62 H79 0.930 . S
C63 O46 1.264 . S
C63 O47 1.254 . S
C64 Eu0 2.848 . S
C64 O44 1.257 . S
C64 O49 1.249 . S
C64 C57 1.492 . S
C65 H30 0.931 . S
C65 C43 1.420 . S
C65 C66 1.351 . S
C66 H28 0.930 . S
C66 C34 1.423 . S
C66 C65 1.351 . S
C67 O51 1.276 . S
C67 O54 1.235 . S
C68 C69 1.393 . S
C68 C72 1.395 . S
C68 C75 1.492 . S
C69 C68 1.393 . S
C69 C70 1.392 . S
C69 H80 0.930 . S
C70 C69 1.392 . S
C70 C71 1.386 . S
C71 C70 1.386 . S
C71 C73 1.395 . S
C71 H81 0.930 . S
C72 C68 1.395 . S
C72 C73 1.379 . S
C72 H82 0.930 . S
C73 C71 1.395 . S
C73 C72 1.379 . S
C73 H83 0.930 . S
C74 O52 1.264 . S
C74 O53 1.254 . S
C75 Eu11 2.848 . S
C75 O50 1.257 . S
C75 O55 1.249 . S
C75 C68 1.492 . S
H76 C59 0.930 . S
H77 C60 0.930 . S
H78 C61 0.930 . S
H79 C62 0.930 . S
H80 C69 0.930 . S
H81 C71 0.930 . S
H82 C72 0.930 . S
H83 C73 0.930 . S
Eu84 N115 2.657 . S
Eu84 N122 2.609 . S
Eu84 O128 2.558 . S
Eu84 O129 2.612 . S
Eu84 O131 2.339 . S
Eu84 O132 2.563 . S
Eu84 O133 2.419 . S
Eu84 O135 2.380 . S
Eu84 O136 2.432 . S
Eu84 C148 2.848 . S
C85 C88 1.429 . S
C85 C89 1.411 . S
C85 N92 1.377 . S
C86 C88 1.420 . S
C86 C90 1.423 . S
C86 C98 1.392 . S
C87 C89 1.420 . S
C87 C90 1.351 . S
C87 H110 0.931 . S
C88 C85 1.429 . S
C88 C86 1.420 . S
C88 N96 1.362 . S
C89 C85 1.411 . S
C89 C87 1.420 . S
C89 C94 1.395 . S
C90 C86 1.423 . S
C90 C87 1.351 . S
C90 H102 0.930 . S
C91 C93 1.400 . S
C91 C94 1.386 . S
C91 H103 0.930 . S
N92 C85 1.377 . S
N92 C93 1.321 . S
N92 Eu95 2.609 . S
C93 C91 1.400 . S
C93 N92 1.321 . S
C93 H100 0.930 . S
C94 C89 1.395 . S
C94 C91 1.386 . S
C94 H113 0.930 . S
Eu95 N92 2.609 . S
Eu95 N96 2.657 . S
Eu95 O129 2.380 . S
Eu95 O130 2.432 . S
Eu95 O134 2.558 . S
Eu95 O135 2.612 . S
Eu95 O137 2.339 . S
Eu95 O138 2.563 . S
Eu95 O139 2.419 . S
Eu95 C159 2.848 . S
N96 C88 1.362 . S
N96 Eu95 2.657 . S
N96 C97 1.334 . S
C97 N96 1.334 . S
C97 C99 1.413 . S
C97 H104 0.929 . S
C98 C86 1.392 . S
C98 C99 1.367 . S
C98 H106 0.930 . S
C99 C97 1.413 . S
C99 C98 1.367 . S
C99 H101 0.930 . S
H100 C93 0.930 . S
H101 C99 0.930 . S
H102 C90 0.930 . S
H103 C91 0.930 . S
H104 C97 0.929 . S
H105 C119 0.930 . S
H106 C98 0.930 . S
H107 C125 0.930 . S
H108 C116 0.929 . S
H109 C123 0.930 . S
H110 C87 0.931 . S
H111 C117 0.930 . S
H112 C150 0.930 . S
H113 C94 0.930 . S
H114 C149 0.931 . S
N115 Eu84 2.657 . S
N115 C116 1.334 . S
N115 C120 1.362 . S
C116 H108 0.929 . S
C116 N115 1.334 . S
C116 C119 1.413 . S
C117 H111 0.930 . S
C117 C118 1.392 . S
C117 C119 1.367 . S
C118 C117 1.392 . S
C118 C120 1.420 . S
C118 C150 1.423 . S
C119 H105 0.930 . S
C119 C116 1.413 . S
C119 C117 1.367 . S
C120 N115 1.362 . S
C120 C118 1.420 . S
C120 C124 1.429 . S
H121 C126 0.930 . S
N122 Eu84 2.609 . S
N122 C124 1.377 . S
N122 C125 1.321 . S
C123 H109 0.930 . S
C123 C125 1.400 . S
C123 C126 1.386 . S
C124 C120 1.429 . S
C124 N122 1.377 . S
C124 C127 1.411 . S
C125 H107 0.930 . S
C125 N122 1.321 . S
C125 C123 1.400 . S
C126 H121 0.930 . S
C126 C123 1.386 . S
C126 C127 1.395 . S
C127 C124 1.411 . S
C127 C126 1.395 . S
C127 C149 1.420 . S
O128 Eu84 2.558 . S
O128 C148 1.257 . S
O129 Eu84 2.612 . S
O129 Eu95 2.380 . S
O129 C140 1.276 . S
O130 Eu95 2.432 . S
O130 C147 1.264 . S
O131 Eu84 2.339 . S
O131 C147 1.254 . S
O132 Eu84 2.563 . S
O132 C140 1.235 . S
O133 Eu84 2.419 . S
O133 C148 1.249 . S
O134 Eu95 2.558 . S
O134 C159 1.257 . S
O135 Eu84 2.380 . S
O135 Eu95 2.612 . S
O135 C151 1.276 . S
O136 Eu84 2.432 . S
O136 C158 1.264 . S
O137 Eu95 2.339 . S
O137 C158 1.254 . S
O138 Eu95 2.563 . S
O138 C151 1.235 . S
O139 Eu95 2.419 . S
O139 C159 1.249 . S
C140 O129 1.276 . S
C140 O132 1.235 . S
C141 C143 1.393 . S
C141 C145 1.395 . S
C141 C148 1.492 . S
C142 C143 1.392 . S
C142 C144 1.386 . S
C143 C141 1.393 . S
C143 C142 1.392 . S
C143 H160 0.930 . S
C144 C142 1.386 . S
C144 C146 1.395 . S
C144 H161 0.930 . S
C145 C141 1.395 . S
C145 C146 1.379 . S
C145 H162 0.930 . S
C146 C144 1.395 . S
C146 C145 1.379 . S
C146 H163 0.930 . S
C147 O130 1.264 . S
C147 O131 1.254 . S
C148 Eu84 2.848 . S
C148 O128 1.257 . S
C148 O133 1.249 . S
C148 C141 1.492 . S
C149 H114 0.931 . S
C149 C127 1.420 . S
C149 C150 1.351 . S
C150 H112 0.930 . S
C150 C118 1.423 . S
C150 C149 1.351 . S
C151 O135 1.276 . S
C151 O138 1.235 . S
C152 C153 1.393 . S
C152 C156 1.395 . S
C152 C159 1.492 . S
C153 C152 1.393 . S
C153 C154 1.392 . S
C153 H164 0.930 . S
C154 C153 1.392 . S
C154 C155 1.386 . S
C155 C154 1.386 . S
C155 C157 1.395 . S
C155 H165 0.930 . S
C156 C152 1.395 . S
C156 C157 1.379 . S
C156 H166 0.930 . S
C157 C155 1.395 . S
C157 C156 1.379 . S
C157 H167 0.930 . S
C158 O136 1.264 . S
C158 O137 1.254 . S
C159 Eu95 2.848 . S
C159 O134 1.257 . S
C159 O139 1.249 . S
C159 C152 1.492 . S
H160 C143 0.930 . S
H161 C144 0.930 . S
H162 C145 0.930 . S
H163 C146 0.930 . S
H164 C153 0.930 . S
H165 C155 0.930 . S
H166 C156 0.930 . S
H167 C157 0.930 . S
Eu168 N199 2.657 . S
Eu168 N206 2.609 . S
Eu168 O212 2.558 . S
Eu168 O213 2.612 . S
Eu168 O215 2.339 . S
Eu168 O216 2.563 . S
Eu168 O217 2.419 . S
Eu168 O219 2.380 . S
Eu168 O220 2.432 . S
Eu168 C232 2.848 . S
C169 C172 1.429 . S
C169 C173 1.411 . S
C169 N176 1.377 . S
C170 C172 1.420 . S
C170 C174 1.423 . S
C170 C182 1.392 . S
C171 C173 1.420 . S
C171 C174 1.351 . S
C171 H194 0.931 . S
C172 C169 1.429 . S
C172 C170 1.420 . S
C172 N180 1.362 . S
C173 C169 1.411 . S
C173 C171 1.420 . S
C173 C178 1.395 . S
C174 C170 1.423 . S
C174 C171 1.351 . S
C174 H186 0.930 . S
C175 C177 1.400 . S
C175 C178 1.386 . S
C175 H187 0.930 . S
N176 C169 1.377 . S
N176 C177 1.321 . S
N176 Eu179 2.609 . S
C177 C175 1.400 . S
C177 N176 1.321 . S
C177 H184 0.930 . S
C178 C173 1.395 . S
C178 C175 1.386 . S
C178 H197 0.930 . S
Eu179 N176 2.609 . S
Eu179 N180 2.657 . S
Eu179 O213 2.380 . S
Eu179 O214 2.432 . S
Eu179 O218 2.558 . S
Eu179 O219 2.612 . S
Eu179 O221 2.339 . S
Eu179 O222 2.563 . S
Eu179 O223 2.419 . S
Eu179 C243 2.848 . S
N180 C172 1.362 . S
N180 Eu179 2.657 . S
N180 C181 1.334 . S
C181 N180 1.334 . S
C181 C183 1.413 . S
C181 H188 0.929 . S
C182 C170 1.392 . S
C182 C183 1.367 . S
C182 H190 0.930 . S
C183 C181 1.413 . S
C183 C182 1.367 . S
C183 H185 0.930 . S
H184 C177 0.930 . S
H185 C183 0.930 . S
H186 C174 0.930 . S
H187 C175 0.930 . S
H188 C181 0.929 . S
H189 C203 0.930 . S
H190 C182 0.930 . S
H191 C209 0.930 . S
H192 C200 0.929 . S
H193 C207 0.930 . S
H194 C171 0.931 . S
H195 C201 0.930 . S
H196 C234 0.930 . S
H197 C178 0.930 . S
H198 C233 0.931 . S
N199 Eu168 2.657 . S
N199 C200 1.334 . S
N199 C204 1.362 . S
C200 H192 0.929 . S
C200 N199 1.334 . S
C200 C203 1.413 . S
C201 H195 0.930 . S
C201 C202 1.392 . S
C201 C203 1.367 . S
C202 C201 1.392 . S
C202 C204 1.420 . S
C202 C234 1.423 . S
C203 H189 0.930 . S
C203 C200 1.413 . S
C203 C201 1.367 . S
C204 N199 1.362 . S
C204 C202 1.420 . S
C204 C208 1.429 . S
H205 C210 0.930 . S
N206 Eu168 2.609 . S
N206 C208 1.377 . S
N206 C209 1.321 . S
C207 H193 0.930 . S
C207 C209 1.400 . S
C207 C210 1.386 . S
C208 C204 1.429 . S
C208 N206 1.377 . S
C208 C211 1.411 . S
C209 H191 0.930 . S
C209 N206 1.321 . S
C209 C207 1.400 . S
C210 H205 0.930 . S
C210 C207 1.386 . S
C210 C211 1.395 . S
C211 C208 1.411 . S
C211 C210 1.395 . S
C211 C233 1.420 . S
O212 Eu168 2.558 . S
O212 C232 1.257 . S
O213 Eu168 2.612 . S
O213 Eu179 2.380 . S
O213 C224 1.276 . S
O214 Eu179 2.432 . S
O214 C231 1.264 . S
O215 Eu168 2.339 . S
O215 C231 1.254 . S
O216 Eu168 2.563 . S
O216 C224 1.235 . S
O217 Eu168 2.419 . S
O217 C232 1.249 . S
O218 Eu179 2.558 . S
O218 C243 1.257 . S
O219 Eu168 2.380 . S
O219 Eu179 2.612 . S
O219 C235 1.276 . S
O220 Eu168 2.432 . S
O220 C242 1.264 . S
O221 Eu179 2.339 . S
O221 C242 1.254 . S
O222 Eu179 2.563 . S
O222 C235 1.235 . S
O223 Eu179 2.419 . S
O223 C243 1.249 . S
C224 O213 1.276 . S
C224 O216 1.235 . S
C225 C227 1.393 . S
C225 C229 1.395 . S
C225 C232 1.492 . S
C226 C227 1.392 . S
C226 C228 1.386 . S
C227 C225 1.393 . S
C227 C226 1.392 . S
C227 H244 0.930 . S
C228 C226 1.386 . S
C228 C230 1.395 . S
C228 H245 0.930 . S
C229 C225 1.395 . S
C229 C230 1.379 . S
C229 H246 0.930 . S
C230 C228 1.395 . S
C230 C229 1.379 . S
C230 H247 0.930 . S
C231 O214 1.264 . S
C231 O215 1.254 . S
C232 Eu168 2.848 . S
C232 O212 1.257 . S
C232 O217 1.249 . S
C232 C225 1.492 . S
C233 H198 0.931 . S
C233 C211 1.420 . S
C233 C234 1.351 . S
C234 H196 0.930 . S
C234 C202 1.423 . S
C234 C233 1.351 . S
C235 O219 1.276 . S
C235 O222 1.235 . S
C236 C237 1.393 . S
C236 C240 1.395 . S
C236 C243 1.492 . S
C237 C236 1.393 . S
C237 C238 1.392 . S
C237 H248 0.930 . S
C238 C237 1.392 . S
C238 C239 1.386 . S
C239 C238 1.386 . S
C239 C241 1.395 . S
C239 H249 0.930 . S
C240 C236 1.395 . S
C240 C241 1.379 . S
C240 H250 0.930 . S
C241 C239 1.395 . S
C241 C240 1.379 . S
C241 H251 0.930 . S
C242 O220 1.264 . S
C242 O221 1.254 . S
C243 Eu179 2.848 . S
C243 O218 1.257 . S
C243 O223 1.249 . S
C243 C236 1.492 . S
H244 C227 0.930 . S
H245 C228 0.930 . S
H246 C229 0.930 . S
H247 C230 0.930 . S
H248 C237 0.930 . S
H249 C239 0.930 . S
H250 C240 0.930 . S
H251 C241 0.930 . S
Eu252 N283 2.657 . S
Eu252 N290 2.609 . S
Eu252 O296 2.558 . S
Eu252 O297 2.612 . S
Eu252 O299 2.339 . S
Eu252 O300 2.563 . S
Eu252 O301 2.419 . S
Eu252 O303 2.380 . S
Eu252 O304 2.432 . S
Eu252 C316 2.848 . S
C253 C256 1.429 . S
C253 C257 1.411 . S
C253 N260 1.377 . S
C254 C256 1.420 . S
C254 C258 1.423 . S
C254 C266 1.392 . S
C255 C257 1.420 . S
C255 C258 1.351 . S
C255 H278 0.931 . S
C256 C253 1.429 . S
C256 C254 1.420 . S
C256 N264 1.362 . S
C257 C253 1.411 . S
C257 C255 1.420 . S
C257 C262 1.395 . S
C258 C254 1.423 . S
C258 C255 1.351 . S
C258 H270 0.930 . S
C259 C261 1.400 . S
C259 C262 1.386 . S
C259 H271 0.930 . S
N260 C253 1.377 . S
N260 C261 1.321 . S
N260 Eu263 2.609 . S
C261 C259 1.400 . S
C261 N260 1.321 . S
C261 H268 0.930 . S
C262 C257 1.395 . S
C262 C259 1.386 . S
C262 H281 0.930 . S
Eu263 N260 2.609 . S
Eu263 N264 2.657 . S
Eu263 O297 2.380 . S
Eu263 O298 2.432 . S
Eu263 O302 2.558 . S
Eu263 O303 2.612 . S
Eu263 O305 2.339 . S
Eu263 O306 2.563 . S
Eu263 O307 2.419 . S
Eu263 C327 2.848 . S
N264 C256 1.362 . S
N264 Eu263 2.657 . S
N264 C265 1.334 . S
C265 N264 1.334 . S
C265 C267 1.413 . S
C265 H272 0.929 . S
C266 C254 1.392 . S
C266 C267 1.367 . S
C266 H274 0.930 . S
C267 C265 1.413 . S
C267 C266 1.367 . S
C267 H269 0.930 . S
H268 C261 0.930 . S
H269 C267 0.930 . S
H270 C258 0.930 . S
H271 C259 0.930 . S
H272 C265 0.929 . S
H273 C287 0.930 . S
H274 C266 0.930 . S
H275 C293 0.930 . S
H276 C284 0.929 . S
H277 C291 0.930 . S
H278 C255 0.931 . S
H279 C285 0.930 . S
H280 C318 0.930 . S
H281 C262 0.930 . S
H282 C317 0.931 . S
N283 Eu252 2.657 . S
N283 C284 1.334 . S
N283 C288 1.362 . S
C284 H276 0.929 . S
C284 N283 1.334 . S
C284 C287 1.413 . S
C285 H279 0.930 . S
C285 C286 1.392 . S
C285 C287 1.367 . S
C286 C285 1.392 . S
C286 C288 1.420 . S
C286 C318 1.423 . S
C287 H273 0.930 . S
C287 C284 1.413 . S
C287 C285 1.367 . S
C288 N283 1.362 . S
C288 C286 1.420 . S
C288 C292 1.429 . S
H289 C294 0.930 . S
N290 Eu252 2.609 . S
N290 C292 1.377 . S
N290 C293 1.321 . S
C291 H277 0.930 . S
C291 C293 1.400 . S
C291 C294 1.386 . S
C292 C288 1.429 . S
C292 N290 1.377 . S
C292 C295 1.411 . S
C293 H275 0.930 . S
C293 N290 1.321 . S
C293 C291 1.400 . S
C294 H289 0.930 . S
C294 C291 1.386 . S
C294 C295 1.395 . S
C295 C292 1.411 . S
C295 C294 1.395 . S
C295 C317 1.420 . S
O296 Eu252 2.558 . S
O296 C316 1.257 . S
O297 Eu252 2.612 . S
O297 Eu263 2.380 . S
O297 C308 1.276 . S
O298 Eu263 2.432 . S
O298 C315 1.264 . S
O299 Eu252 2.339 . S
O299 C315 1.254 . S
O300 Eu252 2.563 . S
O300 C308 1.235 . S
O301 Eu252 2.419 . S
O301 C316 1.249 . S
O302 Eu263 2.558 . S
O302 C327 1.257 . S
O303 Eu252 2.380 . S
O303 Eu263 2.612 . S
O303 C319 1.276 . S
O304 Eu252 2.432 . S
O304 C326 1.264 . S
O305 Eu263 2.339 . S
O305 C326 1.254 . S
O306 Eu263 2.563 . S
O306 C319 1.235 . S
O307 Eu263 2.419 . S
O307 C327 1.249 . S
C308 O297 1.276 . S
C308 O300 1.235 . S
C309 C311 1.393 . S
C309 C313 1.395 . S
C309 C316 1.492 . S
C310 C311 1.392 . S
C310 C312 1.386 . S
C311 C309 1.393 . S
C311 C310 1.392 . S
C311 H328 0.930 . S
C312 C310 1.386 . S
C312 C314 1.395 . S
C312 H329 0.930 . S
C313 C309 1.395 . S
C313 C314 1.379 . S
C313 H330 0.930 . S
C314 C312 1.395 . S
C314 C313 1.379 . S
C314 H331 0.930 . S
C315 O298 1.264 . S
C315 O299 1.254 . S
C316 Eu252 2.848 . S
C316 O296 1.257 . S
C316 O301 1.249 . S
C316 C309 1.492 . S
C317 H282 0.931 . S
C317 C295 1.420 . S
C317 C318 1.351 . S
C318 H280 0.930 . S
C318 C286 1.423 . S
C318 C317 1.351 . S
C319 O303 1.276 . S
C319 O306 1.235 . S
C320 C321 1.393 . S
C320 C324 1.395 . S
C320 C327 1.492 . S
C321 C320 1.393 . S
C321 C322 1.392 . S
C321 H332 0.930 . S
C322 C321 1.392 . S
C322 C323 1.386 . S
C323 C322 1.386 . S
C323 C325 1.395 . S
C323 H333 0.930 . S
C324 C320 1.395 . S
C324 C325 1.379 . S
C324 H334 0.930 . S
C325 C323 1.395 . S
C325 C324 1.379 . S
C325 H335 0.930 . S
C326 O304 1.264 . S
C326 O305 1.254 . S
C327 Eu263 2.848 . S
C327 O302 1.257 . S
C327 O307 1.249 . S
C327 C320 1.492 . S
H328 C311 0.930 . S
H329 C312 0.930 . S
H330 C313 0.930 . S
H331 C314 0.930 . S
H332 C321 0.930 . S
H333 C323 0.930 . S
H334 C324 0.930 . S
H335 C325 0.930 . S
Eu336 N367 2.657 . S
Eu336 N374 2.609 . S
Eu336 O380 2.558 . S
Eu336 O381 2.612 . S
Eu336 O383 2.339 . S
Eu336 O384 2.563 . S
Eu336 O385 2.419 . S
Eu336 O387 2.380 . S
Eu336 O388 2.432 . S
Eu336 C400 2.848 . S
C337 C340 1.429 . S
C337 C341 1.411 . S
C337 N344 1.377 . S
C338 C340 1.420 . S
C338 C342 1.423 . S
C338 C350 1.392 . S
C339 C341 1.420 . S
C339 C342 1.351 . S
C339 H362 0.931 . S
C340 C337 1.429 . S
C340 C338 1.420 . S
C340 N348 1.362 . S
C341 C337 1.411 . S
C341 C339 1.420 . S
C341 C346 1.395 . S
C342 C338 1.423 . S
C342 C339 1.351 . S
C342 H354 0.930 . S
C343 C345 1.400 . S
C343 C346 1.386 . S
C343 H355 0.930 . S
N344 C337 1.377 . S
N344 C345 1.321 . S
N344 Eu347 2.609 . S
C345 C343 1.400 . S
C345 N344 1.321 . S
C345 H352 0.930 . S
C346 C341 1.395 . S
C346 C343 1.386 . S
C346 H365 0.930 . S
Eu347 N344 2.609 . S
Eu347 N348 2.657 . S
Eu347 O381 2.380 . S
Eu347 O382 2.432 . S
Eu347 O386 2.558 . S
Eu347 O387 2.612 . S
Eu347 O389 2.339 . S
Eu347 O390 2.563 . S
Eu347 O391 2.419 . S
Eu347 C411 2.848 . S
N348 C340 1.362 . S
N348 Eu347 2.657 . S
N348 C349 1.334 . S
C349 N348 1.334 . S
C349 C351 1.413 . S
C349 H356 0.929 . S
C350 C338 1.392 . S
C350 C351 1.367 . S
C350 H358 0.930 . S
C351 C349 1.413 . S
C351 C350 1.367 . S
C351 H353 0.930 . S
H352 C345 0.930 . S
H353 C351 0.930 . S
H354 C342 0.930 . S
H355 C343 0.930 . S
H356 C349 0.929 . S
H357 C371 0.930 . S
H358 C350 0.930 . S
H359 C377 0.930 . S
H360 C368 0.929 . S
H361 C375 0.930 . S
H362 C339 0.931 . S
H363 C369 0.930 . S
H364 C402 0.930 . S
H365 C346 0.930 . S
H366 C401 0.931 . S
N367 Eu336 2.657 . S
N367 C368 1.334 . S
N367 C372 1.362 . S
C368 H360 0.929 . S
C368 N367 1.334 . S
C368 C371 1.413 . S
C369 H363 0.930 . S
C369 C370 1.392 . S
C369 C371 1.367 . S
C370 C369 1.392 . S
C370 C372 1.420 . S
C370 C402 1.423 . S
C371 H357 0.930 . S
C371 C368 1.413 . S
C371 C369 1.367 . S
C372 N367 1.362 . S
C372 C370 1.420 . S
C372 C376 1.429 . S
H373 C378 0.930 . S
N374 Eu336 2.609 . S
N374 C376 1.377 . S
N374 C377 1.321 . S
C375 H361 0.930 . S
C375 C377 1.400 . S
C375 C378 1.386 . S
C376 C372 1.429 . S
C376 N374 1.377 . S
C376 C379 1.411 . S
C377 H359 0.930 . S
C377 N374 1.321 . S
C377 C375 1.400 . S
C378 H373 0.930 . S
C378 C375 1.386 . S
C378 C379 1.395 . S
C379 C376 1.411 . S
C379 C378 1.395 . S
C379 C401 1.420 . S
O380 Eu336 2.558 . S
O380 C400 1.257 . S
O381 Eu336 2.612 . S
O381 Eu347 2.380 . S
O381 C392 1.276 . S
O382 Eu347 2.432 . S
O382 C399 1.264 . S
O383 Eu336 2.339 . S
O383 C399 1.254 . S
O384 Eu336 2.563 . S
O384 C392 1.235 . S
O385 Eu336 2.419 . S
O385 C400 1.249 . S
O386 Eu347 2.558 . S
O386 C411 1.257 . S
O387 Eu336 2.380 . S
O387 Eu347 2.612 . S
O387 C403 1.276 . S
O388 Eu336 2.432 . S
O388 C410 1.264 . S
O389 Eu347 2.339 . S
O389 C410 1.254 . S
O390 Eu347 2.563 . S
O390 C403 1.235 . S
O391 Eu347 2.419 . S
O391 C411 1.249 . S
C392 O381 1.276 . S
C392 O384 1.235 . S
C393 C395 1.393 . S
C393 C397 1.395 . S
C393 C400 1.492 . S
C394 C395 1.392 . S
C394 C396 1.386 . S
C395 C393 1.393 . S
C395 C394 1.392 . S
C395 H412 0.930 . S
C396 C394 1.386 . S
C396 C398 1.395 . S
C396 H413 0.930 . S
C397 C393 1.395 . S
C397 C398 1.379 . S
C397 H414 0.930 . S
C398 C396 1.395 . S
C398 C397 1.379 . S
C398 H415 0.930 . S
C399 O382 1.264 . S
C399 O383 1.254 . S
C400 Eu336 2.848 . S
C400 O380 1.257 . S
C400 O385 1.249 . S
C400 C393 1.492 . S
C401 H366 0.931 . S
C401 C379 1.420 . S
C401 C402 1.351 . S
C402 H364 0.930 . S
C402 C370 1.423 . S
C402 C401 1.351 . S
C403 O387 1.276 . S
C403 O390 1.235 . S
C404 C405 1.393 . S
C404 C408 1.395 . S
C404 C411 1.492 . S
C405 C404 1.393 . S
C405 C406 1.392 . S
C405 H416 0.930 . S
C406 C405 1.392 . S
C406 C407 1.386 . S
C407 C406 1.386 . S
C407 C409 1.395 . S
C407 H417 0.930 . S
C408 C404 1.395 . S
C408 C409 1.379 . S
C408 H418 0.930 . S
C409 C407 1.395 . S
C409 C408 1.379 . S
C409 H419 0.930 . S
C410 O388 1.264 . S
C410 O389 1.254 . S
C411 Eu347 2.848 . S
C411 O386 1.257 . S
C411 O391 1.249 . S
C411 C404 1.492 . S
H412 C395 0.930 . S
H413 C396 0.930 . S
H414 C397 0.930 . S
H415 C398 0.930 . S
H416 C405 0.930 . S
H417 C407 0.930 . S
H418 C408 0.930 . S
H419 C409 0.930 . S
Eu420 N451 2.657 . S
Eu420 N458 2.609 . S
Eu420 O464 2.558 . S
Eu420 O465 2.612 . S
Eu420 O467 2.339 . S
Eu420 O468 2.563 . S
Eu420 O469 2.419 . S
Eu420 O471 2.380 . S
Eu420 O472 2.432 . S
Eu420 C484 2.848 . S
C421 C424 1.429 . S
C421 C425 1.411 . S
C421 N428 1.377 . S
C422 C424 1.420 . S
C422 C426 1.423 . S
C422 C434 1.392 . S
C423 C425 1.420 . S
C423 C426 1.351 . S
C423 H446 0.931 . S
C424 C421 1.429 . S
C424 C422 1.420 . S
C424 N432 1.362 . S
C425 C421 1.411 . S
C425 C423 1.420 . S
C425 C430 1.395 . S
C426 C422 1.423 . S
C426 C423 1.351 . S
C426 H438 0.930 . S
C427 C429 1.400 . S
C427 C430 1.386 . S
C427 H439 0.930 . S
N428 C421 1.377 . S
N428 C429 1.321 . S
N428 Eu431 2.609 . S
C429 C427 1.400 . S
C429 N428 1.321 . S
C429 H436 0.930 . S
C430 C425 1.395 . S
C430 C427 1.386 . S
C430 H449 0.930 . S
Eu431 N428 2.609 . S
Eu431 N432 2.657 . S
Eu431 O465 2.380 . S
Eu431 O466 2.432 . S
Eu431 O470 2.558 . S
Eu431 O471 2.612 . S
Eu431 O473 2.339 . S
Eu431 O474 2.563 . S
Eu431 O475 2.419 . S
Eu431 C495 2.848 . S
N432 C424 1.362 . S
N432 Eu431 2.657 . S
N432 C433 1.334 . S
C433 N432 1.334 . S
C433 C435 1.413 . S
C433 H440 0.929 . S
C434 C422 1.392 . S
C434 C435 1.367 . S
C434 H442 0.930 . S
C435 C433 1.413 . S
C435 C434 1.367 . S
C435 H437 0.930 . S
H436 C429 0.930 . S
H437 C435 0.930 . S
H438 C426 0.930 . S
H439 C427 0.930 . S
H440 C433 0.929 . S
H441 C455 0.930 . S
H442 C434 0.930 . S
H443 C461 0.930 . S
H444 C452 0.929 . S
H445 C459 0.930 . S
H446 C423 0.931 . S
H447 C453 0.930 . S
H448 C486 0.930 . S
H449 C430 0.930 . S
H450 C485 0.931 . S
N451 Eu420 2.657 . S
N451 C452 1.334 . S
N451 C456 1.362 . S
C452 H444 0.929 . S
C452 N451 1.334 . S
C452 C455 1.413 . S
C453 H447 0.930 . S
C453 C454 1.392 . S
C453 C455 1.367 . S
C454 C453 1.392 . S
C454 C456 1.420 . S
C454 C486 1.423 . S
C455 H441 0.930 . S
C455 C452 1.413 . S
C455 C453 1.367 . S
C456 N451 1.362 . S
C456 C454 1.420 . S
C456 C460 1.429 . S
H457 C462 0.930 . S
N458 Eu420 2.609 . S
N458 C460 1.377 . S
N458 C461 1.321 . S
C459 H445 0.930 . S
C459 C461 1.400 . S
C459 C462 1.386 . S
C460 C456 1.429 . S
C460 N458 1.377 . S
C460 C463 1.411 . S
C461 H443 0.930 . S
C461 N458 1.321 . S
C461 C459 1.400 . S
C462 H457 0.930 . S
C462 C459 1.386 . S
C462 C463 1.395 . S
C463 C460 1.411 . S
C463 C462 1.395 . S
C463 C485 1.420 . S
O464 Eu420 2.558 . S
O464 C484 1.257 . S
O465 Eu420 2.612 . S
O465 Eu431 2.380 . S
O465 C476 1.276 . S
O466 Eu431 2.432 . S
O466 C483 1.264 . S
O467 Eu420 2.339 . S
O467 C483 1.254 . S
O468 Eu420 2.563 . S
O468 C476 1.235 . S
O469 Eu420 2.419 . S
O469 C484 1.249 . S
O470 Eu431 2.558 . S
O470 C495 1.257 . S
O471 Eu420 2.380 . S
O471 Eu431 2.612 . S
O471 C487 1.276 . S
O472 Eu420 2.432 . S
O472 C494 1.264 . S
O473 Eu431 2.339 . S
O473 C494 1.254 . S
O474 Eu431 2.563 . S
O474 C487 1.235 . S
O475 Eu431 2.419 . S
O475 C495 1.249 . S
C476 O465 1.276 . S
C476 O468 1.235 . S
C477 C479 1.393 . S
C477 C481 1.395 . S
C477 C484 1.492 . S
C478 C479 1.392 . S
C478 C480 1.386 . S
C479 C477 1.393 . S
C479 C478 1.392 . S
C479 H496 0.930 . S
C480 C478 1.386 . S
C480 C482 1.395 . S
C480 H497 0.930 . S
C481 C477 1.395 . S
C481 C482 1.379 . S
C481 H498 0.930 . S
C482 C480 1.395 . S
C482 C481 1.379 . S
C482 H499 0.930 . S
C483 O466 1.264 . S
C483 O467 1.254 . S
C484 Eu420 2.848 . S
C484 O464 1.257 . S
C484 O469 1.249 . S
C484 C477 1.492 . S
C485 H450 0.931 . S
C485 C463 1.420 . S
C485 C486 1.351 . S
C486 H448 0.930 . S
C486 C454 1.423 . S
C486 C485 1.351 . S
C487 O471 1.276 . S
C487 O474 1.235 . S
C488 C489 1.393 . S
C488 C492 1.395 . S
C488 C495 1.492 . S
C489 C488 1.393 . S
C489 C490 1.392 . S
C489 H500 0.930 . S
C490 C489 1.392 . S
C490 C491 1.386 . S
C491 C490 1.386 . S
C491 C493 1.395 . S
C491 H501 0.930 . S
C492 C488 1.395 . S
C492 C493 1.379 . S
C492 H502 0.930 . S
C493 C491 1.395 . S
C493 C492 1.379 . S
C493 H503 0.930 . S
C494 O472 1.264 . S
C494 O473 1.254 . S
C495 Eu431 2.848 . S
C495 O470 1.257 . S
C495 O475 1.249 . S
C495 C488 1.492 . S
H496 C479 0.930 . S
H497 C480 0.930 . S
H498 C481 0.930 . S
H499 C482 0.930 . S
H500 C489 0.930 . S
H501 C491 0.930 . S
H502 C492 0.930 . S
H503 C493 0.930 . S
Eu504 N535 2.657 . S
Eu504 N542 2.609 . S
Eu504 O548 2.558 . S
Eu504 O549 2.612 . S
Eu504 O551 2.339 . S
Eu504 O552 2.563 . S
Eu504 O553 2.419 . S
Eu504 O555 2.380 . S
Eu504 O556 2.432 . S
Eu504 C568 2.848 . S
C505 C508 1.429 . S
C505 C509 1.411 . S
C505 N512 1.377 . S
C506 C508 1.420 . S
C506 C510 1.423 . S
C506 C518 1.392 . S
C507 C509 1.420 . S
C507 C510 1.351 . S
C507 H530 0.931 . S
C508 C505 1.429 . S
C508 C506 1.420 . S
C508 N516 1.362 . S
C509 C505 1.411 . S
C509 C507 1.420 . S
C509 C514 1.395 . S
C510 C506 1.423 . S
C510 C507 1.351 . S
C510 H522 0.930 . S
C511 C513 1.400 . S
C511 C514 1.386 . S
C511 H523 0.930 . S
N512 C505 1.377 . S
N512 C513 1.321 . S
N512 Eu515 2.609 . S
C513 C511 1.400 . S
C513 N512 1.321 . S
C513 H520 0.930 . S
C514 C509 1.395 . S
C514 C511 1.386 . S
C514 H533 0.930 . S
Eu515 N512 2.609 . S
Eu515 N516 2.657 . S
Eu515 O549 2.380 . S
Eu515 O550 2.432 . S
Eu515 O554 2.558 . S
Eu515 O555 2.612 . S
Eu515 O557 2.339 . S
Eu515 O558 2.563 . S
Eu515 O559 2.419 . S
Eu515 C579 2.848 . S
N516 C508 1.362 . S
N516 Eu515 2.657 . S
N516 C517 1.334 . S
C517 N516 1.334 . S
C517 C519 1.413 . S
C517 H524 0.929 . S
C518 C506 1.392 . S
C518 C519 1.367 . S
C518 H526 0.930 . S
C519 C517 1.413 . S
C519 C518 1.367 . S
C519 H521 0.930 . S
H520 C513 0.930 . S
H521 C519 0.930 . S
H522 C510 0.930 . S
H523 C511 0.930 . S
H524 C517 0.929 . S
H525 C539 0.930 . S
H526 C518 0.930 . S
H527 C545 0.930 . S
H528 C536 0.929 . S
H529 C543 0.930 . S
H530 C507 0.931 . S
H531 C537 0.930 . S
H532 C570 0.930 . S
H533 C514 0.930 . S
H534 C569 0.931 . S
N535 Eu504 2.657 . S
N535 C536 1.334 . S
N535 C540 1.362 . S
C536 H528 0.929 . S
C536 N535 1.334 . S
C536 C539 1.413 . S
C537 H531 0.930 . S
C537 C538 1.392 . S
C537 C539 1.367 . S
C538 C537 1.392 . S
C538 C540 1.420 . S
C538 C570 1.423 . S
C539 H525 0.930 . S
C539 C536 1.413 . S
C539 C537 1.367 . S
C540 N535 1.362 . S
C540 C538 1.420 . S
C540 C544 1.429 . S
H541 C546 0.930 . S
N542 Eu504 2.609 . S
N542 C544 1.377 . S
N542 C545 1.321 . S
C543 H529 0.930 . S
C543 C545 1.400 . S
C543 C546 1.386 . S
C544 C540 1.429 . S
C544 N542 1.377 . S
C544 C547 1.411 . S
C545 H527 0.930 . S
C545 N542 1.321 . S
C545 C543 1.400 . S
C546 H541 0.930 . S
C546 C543 1.386 . S
C546 C547 1.395 . S
C547 C544 1.411 . S
C547 C546 1.395 . S
C547 C569 1.420 . S
O548 Eu504 2.558 . S
O548 C568 1.257 . S
O549 Eu504 2.612 . S
O549 Eu515 2.380 . S
O549 C560 1.276 . S
O550 Eu515 2.432 . S
O550 C567 1.264 . S
O551 Eu504 2.339 . S
O551 C567 1.254 . S
O552 Eu504 2.563 . S
O552 C560 1.235 . S
O553 Eu504 2.419 . S
O553 C568 1.249 . S
O554 Eu515 2.558 . S
O554 C579 1.257 . S
O555 Eu504 2.380 . S
O555 Eu515 2.612 . S
O555 C571 1.276 . S
O556 Eu504 2.432 . S
O556 C578 1.264 . S
O557 Eu515 2.339 . S
O557 C578 1.254 . S
O558 Eu515 2.563 . S
O558 C571 1.235 . S
O559 Eu515 2.419 . S
O559 C579 1.249 . S
C560 O549 1.276 . S
C560 O552 1.235 . S
C561 C563 1.393 . S
C561 C565 1.395 . S
C561 C568 1.492 . S
C562 C563 1.392 . S
C562 C564 1.386 . S
C563 C561 1.393 . S
C563 C562 1.392 . S
C563 H580 0.930 . S
C564 C562 1.386 . S
C564 C566 1.395 . S
C564 H581 0.930 . S
C565 C561 1.395 . S
C565 C566 1.379 . S
C565 H582 0.930 . S
C566 C564 1.395 . S
C566 C565 1.379 . S
C566 H583 0.930 . S
C567 O550 1.264 . S
C567 O551 1.254 . S
C568 Eu504 2.848 . S
C568 O548 1.257 . S
C568 O553 1.249 . S
C568 C561 1.492 . S
C569 H534 0.931 . S
C569 C547 1.420 . S
C569 C570 1.351 . S
C570 H532 0.930 . S
C570 C538 1.423 . S
C570 C569 1.351 . S
C571 O555 1.276 . S
C571 O558 1.235 . S
C572 C573 1.393 . S
C572 C576 1.395 . S
C572 C579 1.492 . S
C573 C572 1.393 . S
C573 C574 1.392 . S
C573 H584 0.930 . S
C574 C573 1.392 . S
C574 C575 1.386 . S
C575 C574 1.386 . S
C575 C577 1.395 . S
C575 H585 0.930 . S
C576 C572 1.395 . S
C576 C577 1.379 . S
C576 H586 0.930 . S
C577 C575 1.395 . S
C577 C576 1.379 . S
C577 H587 0.930 . S
C578 O556 1.264 . S
C578 O557 1.254 . S
C579 Eu515 2.848 . S
C579 O554 1.257 . S
C579 O559 1.249 . S
C579 C572 1.492 . S
H580 C563 0.930 . S
H581 C564 0.930 . S
H582 C565 0.930 . S
H583 C566 0.930 . S
H584 C573 0.930 . S
H585 C575 0.930 . S
H586 C576 0.930 . S
H587 C577 0.930 . S
Eu588 N619 2.657 . S
Eu588 N626 2.609 . S
Eu588 O632 2.558 . S
Eu588 O633 2.612 . S
Eu588 O635 2.339 . S
Eu588 O636 2.563 . S
Eu588 O637 2.419 . S
Eu588 O639 2.380 . S
Eu588 O640 2.432 . S
Eu588 C652 2.848 . S
C589 C592 1.429 . S
C589 C593 1.411 . S
C589 N596 1.377 . S
C590 C592 1.420 . S
C590 C594 1.423 . S
C590 C602 1.392 . S
C591 C593 1.420 . S
C591 C594 1.351 . S
C591 H614 0.931 . S
C592 C589 1.429 . S
C592 C590 1.420 . S
C592 N600 1.362 . S
C593 C589 1.411 . S
C593 C591 1.420 . S
C593 C598 1.395 . S
C594 C590 1.423 . S
C594 C591 1.351 . S
C594 H606 0.930 . S
C595 C597 1.400 . S
C595 C598 1.386 . S
C595 H607 0.930 . S
N596 C589 1.377 . S
N596 C597 1.321 . S
N596 Eu599 2.609 . S
C597 C595 1.400 . S
C597 N596 1.321 . S
C597 H604 0.930 . S
C598 C593 1.395 . S
C598 C595 1.386 . S
C598 H617 0.930 . S
Eu599 N596 2.609 . S
Eu599 N600 2.657 . S
Eu599 O633 2.380 . S
Eu599 O634 2.432 . S
Eu599 O638 2.558 . S
Eu599 O639 2.612 . S
Eu599 O641 2.339 . S
Eu599 O642 2.563 . S
Eu599 O643 2.419 . S
Eu599 C663 2.848 . S
N600 C592 1.362 . S
N600 Eu599 2.657 . S
N600 C601 1.334 . S
C601 N600 1.334 . S
C601 C603 1.413 . S
C601 H608 0.929 . S
C602 C590 1.392 . S
C602 C603 1.367 . S
C602 H610 0.930 . S
C603 C601 1.413 . S
C603 C602 1.367 . S
C603 H605 0.930 . S
H604 C597 0.930 . S
H605 C603 0.930 . S
H606 C594 0.930 . S
H607 C595 0.930 . S
H608 C601 0.929 . S
H609 C623 0.930 . S
H610 C602 0.930 . S
H611 C629 0.930 . S
H612 C620 0.929 . S
H613 C627 0.930 . S
H614 C591 0.931 . S
H615 C621 0.930 . S
H616 C654 0.930 . S
H617 C598 0.930 . S
H618 C653 0.931 . S
N619 Eu588 2.657 . S
N619 C620 1.334 . S
N619 C624 1.362 . S
C620 H612 0.929 . S
C620 N619 1.334 . S
C620 C623 1.413 . S
C621 H615 0.930 . S
C621 C622 1.392 . S
C621 C623 1.367 . S
C622 C621 1.392 . S
C622 C624 1.420 . S
C622 C654 1.423 . S
C623 H609 0.930 . S
C623 C620 1.413 . S
C623 C621 1.367 . S
C624 N619 1.362 . S
C624 C622 1.420 . S
C624 C628 1.429 . S
H625 C630 0.930 . S
N626 Eu588 2.609 . S
N626 C628 1.377 . S
N626 C629 1.321 . S
C627 H613 0.930 . S
C627 C629 1.400 . S
C627 C630 1.386 . S
C628 C624 1.429 . S
C628 N626 1.377 . S
C628 C631 1.411 . S
C629 H611 0.930 . S
C629 N626 1.321 . S
C629 C627 1.400 . S
C630 H625 0.930 . S
C630 C627 1.386 . S
C630 C631 1.395 . S
C631 C628 1.411 . S
C631 C630 1.395 . S
C631 C653 1.420 . S
O632 Eu588 2.558 . S
O632 C652 1.257 . S
O633 Eu588 2.612 . S
O633 Eu599 2.380 . S
O633 C644 1.276 . S
O634 Eu599 2.432 . S
O634 C651 1.264 . S
O635 Eu588 2.339 . S
O635 C651 1.254 . S
O636 Eu588 2.563 . S
O636 C644 1.235 . S
O637 Eu588 2.419 . S
O637 C652 1.249 . S
O638 Eu599 2.558 . S
O638 C663 1.257 . S
O639 Eu588 2.380 . S
O639 Eu599 2.612 . S
O639 C655 1.276 . S
O640 Eu588 2.432 . S
O640 C662 1.264 . S
O641 Eu599 2.339 . S
O641 C662 1.254 . S
O642 Eu599 2.563 . S
O642 C655 1.235 . S
O643 Eu599 2.419 . S
O643 C663 1.249 . S
C644 O633 1.276 . S
C644 O636 1.235 . S
C645 C647 1.393 . S
C645 C649 1.395 . S
C645 C652 1.492 . S
C646 C647 1.392 . S
C646 C648 1.386 . S
C647 C645 1.393 . S
C647 C646 1.392 . S
C647 H664 0.930 . S
C648 C646 1.386 . S
C648 C650 1.395 . S
C648 H665 0.930 . S
C649 C645 1.395 . S
C649 C650 1.379 . S
C649 H666 0.930 . S
C650 C648 1.395 . S
C650 C649 1.379 . S
C650 H667 0.930 . S
C651 O634 1.264 . S
C651 O635 1.254 . S
C652 Eu588 2.848 . S
C652 O632 1.257 . S
C652 O637 1.249 . S
C652 C645 1.492 . S
C653 H618 0.931 . S
C653 C631 1.420 . S
C653 C654 1.351 . S
C654 H616 0.930 . S
C654 C622 1.423 . S
C654 C653 1.351 . S
C655 O639 1.276 . S
C655 O642 1.235 . S
C656 C657 1.393 . S
C656 C660 1.395 . S
C656 C663 1.492 . S
C657 C656 1.393 . S
C657 C658 1.392 . S
C657 H668 0.930 . S
C658 C657 1.392 . S
C658 C659 1.386 . S
C659 C658 1.386 . S
C659 C661 1.395 . S
C659 H669 0.930 . S
C660 C656 1.395 . S
C660 C661 1.379 . S
C660 H670 0.930 . S
C661 C659 1.395 . S
C661 C660 1.379 . S
C661 H671 0.930 . S
C662 O640 1.264 . S
C662 O641 1.254 . S
C663 Eu599 2.848 . S
C663 O638 1.257 . S
C663 O643 1.249 . S
C663 C656 1.492 . S
H664 C647 0.930 . S
H665 C648 0.930 . S
H666 C649 0.930 . S
H667 C650 0.930 . S
H668 C657 0.930 . S
H669 C659 0.930 . S
H670 C660 0.930 . S
H671 C661 0.930 . S
Cd672 N675 2.334 1_655 S
Cd672 N701 2.304 1_565 S
Cd672 O708 2.268 . S
Cd672 O711 2.273 1_665 S
Cd672 O712 2.417 . S
Cd672 O713 2.330 . S
Cd673 N688 2.304 1_455 S
Cd673 N692 2.334 1_545 S
Cd673 O709 2.273 1_445 S
Cd673 O710 2.268 . S
Cd673 O714 2.417 . S
Cd673 O715 2.330 . S
C674 N675 1.332 . S
C674 C678 1.381 . S
C674 H680 0.931 . S
N675 Cd672 2.334 1_455 S
N675 C674 1.332 . S
N675 C679 1.328 . S
C676 C677 1.396 . S
C676 C679 1.378 . S
C676 H718 0.931 . S
C677 C676 1.396 . S
C677 C678 1.382 . S
C678 C674 1.381 . S
C678 C677 1.382 . S
C678 H719 0.930 . S
C679 N675 1.328 . S
C679 C676 1.378 . S
C679 H681 0.930 1_455 S
H680 C674 0.931 . S
H681 C679 0.930 1_655 S
C682 O708 1.238 . S
C682 O709 1.253 . S
C683 C684 1.379 . S
C683 N688 1.337 . S
C683 H689 0.929 . S
C684 C683 1.379 . S
C684 C685 1.380 . S
C684 H720 0.929 . S
C685 C684 1.380 . S
C685 C686 1.399 . S
C686 C685 1.399 . S
C686 C687 1.376 . S
C686 H721 0.931 . S
C687 C686 1.376 . S
C687 N688 1.338 . S
C687 H690 0.930 1_655 S
N688 Cd673 2.304 1_655 S
N688 C683 1.337 . S
N688 C687 1.338 . S
H689 C683 0.929 . S
H690 C687 0.930 1_455 S
C691 N692 1.332 . S
C691 C695 1.381 . S
C691 H697 0.931 . S
N692 Cd673 2.334 1_565 S
N692 C691 1.332 . S
N692 C696 1.328 . S
C693 C694 1.396 . S
C693 C696 1.378 . S
C693 H722 0.931 . S
C694 C693 1.396 . S
C694 C695 1.382 . S
C695 C691 1.381 . S
C695 C694 1.382 . S
C695 H723 0.930 . S
C696 N692 1.328 . S
C696 C693 1.378 . S
C696 H698 0.930 1_565 S
H697 C691 0.931 . S
H698 C696 0.930 1_545 S
C699 O710 1.238 . S
C699 O711 1.253 . S
C700 O712 1.239 . S
C700 O713 1.230 . S
N701 Cd672 2.304 1_545 S
N701 C702 1.337 . S
N701 C706 1.338 . S
C702 N701 1.337 . S
C702 C703 1.379 . S
C702 H716 0.929 . S
C703 C702 1.379 . S
C703 C704 1.380 . S
C703 H724 0.929 . S
C704 C703 1.380 . S
C704 C705 1.399 . S
C705 C704 1.399 . S
C705 C706 1.376 . S
C705 H725 0.931 . S
C706 N701 1.338 . S
C706 C705 1.376 . S
C706 H717 0.930 1_545 S
C707 O714 1.239 . S
C707 O715 1.230 . S
O708 Cd672 2.268 . S
O708 C682 1.238 . S
O709 Cd673 2.273 1_665 S
O709 C682 1.253 . S
O710 Cd673 2.268 . S
O710 C699 1.238 . S
O711 Cd672 2.273 1_445 S
O711 C699 1.253 . S
O712 Cd672 2.417 . S
O712 C700 1.239 . S
O713 Cd672 2.330 . S
O713 C700 1.230 . S
O714 Cd673 2.417 . S
O714 C707 1.239 . S
O715 Cd673 2.330 . S
O715 C707 1.230 . S
H716 C702 0.929 . S
H717 C706 0.930 1_565 S
H718 C676 0.931 . S
H719 C678 0.930 . S
H720 C684 0.929 . S
H721 C686 0.931 . S
H722 C693 0.931 . S
H723 C695 0.930 . S
H724 C703 0.929 . S
H725 C705 0.931 . S
Cd726 N729 2.334 . S
Cd726 N755 2.304 1_565 S
Cd726 O762 2.268 1_554 S
Cd726 O765 2.273 1_565 S
Cd726 O766 2.417 . S
Cd726 O767 2.330 . S
Cd727 N742 2.304 . S
Cd727 N746 2.334 1_545 S
Cd727 O763 2.273 1_545 S
Cd727 O764 2.268 1_556 S
Cd727 O768 2.417 . S
Cd727 O769 2.330 . S
C728 N729 1.332 . S
C728 C732 1.381 . S
C728 H734 0.931 . S
N729 Cd726 2.334 . S
N729 C728 1.332 . S
N729 C733 1.328 . S
C730 C731 1.396 . S
C730 C733 1.378 . S
C730 H772 0.931 . S
C731 C730 1.396 . S
C731 C732 1.382 . S
C732 C728 1.381 . S
C732 C731 1.382 . S
C732 H773 0.930 . S
C733 N729 1.328 . S
C733 C730 1.378 . S
C733 H735 0.930 . S
H734 C728 0.931 . S
H735 C733 0.930 . S
C736 O762 1.238 . S
C736 O763 1.253 . S
C737 C738 1.379 . S
C737 N742 1.337 . S
C737 H743 0.929 . S
C738 C737 1.379 . S
C738 C739 1.380 . S
C738 H774 0.929 . S
C739 C738 1.380 . S
C739 C740 1.399 . S
C740 C739 1.399 . S
C740 C741 1.376 . S
C740 H775 0.945 . S
C741 C740 1.376 . S
C741 N742 1.338 . S
C741 H744 0.930 1_556 S
N742 Cd727 2.304 . S
N742 C737 1.337 . S
N742 C741 1.338 . S
H743 C737 0.929 . S
H744 C741 0.930 1_554 S
C745 N746 1.332 . S
C745 C749 1.381 . S
C745 H751 0.931 . S
N746 Cd727 2.334 1_565 S
N746 C745 1.332 . S
N746 C750 1.328 . S
C747 C748 1.396 . S
C747 C750 1.378 . S
C747 H776 0.931 1_556 S
C748 C747 1.396 . S
C748 C749 1.382 . S
C749 C745 1.381 . S
C749 C748 1.382 . S
C749 H777 0.930 . S
C750 N746 1.328 . S
C750 C747 1.378 . S
C750 H752 0.930 1_566 S
H751 C745 0.931 . S
H752 C750 0.930 1_544 S
C753 O764 1.238 . S
C753 O765 1.253 . S
C754 O766 1.239 . S
C754 O767 1.230 . S
N755 Cd726 2.304 1_545 S
N755 C756 1.337 . S
N755 C760 1.338 . S
C756 N755 1.337 . S
C756 C757 1.379 . S
C756 H770 0.929 . S
C757 C756 1.379 . S
C757 C758 1.380 . S
C757 H778 0.929 . S
C758 C757 1.380 . S
C758 C759 1.399 . S
C759 C758 1.399 . S
C759 C760 1.376 . S
C759 H779 0.931 1_554 S
C760 N755 1.338 . S
C760 C759 1.376 . S
C760 H771 0.930 1_544 S
C761 O768 1.239 . S
C761 O769 1.230 . S
O762 Cd726 2.268 1_556 S
O762 C736 1.238 . S
O763 Cd727 2.273 1_565 S
O763 C736 1.253 . S
O764 Cd727 2.268 1_554 S
O764 C753 1.238 . S
O765 Cd726 2.273 1_545 S
O765 C753 1.253 . S
O766 Cd726 2.417 . S
O766 C754 1.239 . S
O767 Cd726 2.330 . S
O767 C754 1.230 . S
O768 Cd727 2.417 . S
O768 C761 1.239 . S
O769 Cd727 2.330 . S
O769 C761 1.230 . S
H770 C756 0.929 . S
H771 C760 0.930 1_566 S
H772 C730 0.931 . S
H773 C732 0.930 . S
H774 C738 0.929 . S
H775 C740 0.945 . S
H776 C747 0.931 1_554 S
H777 C749 0.930 . S
H778 C757 0.929 . S
H779 C759 0.931 1_556 S
Cd780 N783 2.334 1_655 S
Cd780 N809 2.304 . S
Cd780 O816 2.268 1_554 S
Cd780 O819 2.273 1_655 S
Cd780 O820 2.417 . S
Cd780 O821 2.330 . S
Cd781 N796 2.304 1_455 S
Cd781 N800 2.334 . S
Cd781 O817 2.273 1_455 S
Cd781 O818 2.268 1_556 S
Cd781 O822 2.417 . S
Cd781 O823 2.330 . S
C782 N783 1.332 . S
C782 C786 1.381 . S
C782 H788 0.931 . S
N783 Cd780 2.334 1_455 S
N783 C782 1.332 . S
N783 C787 1.328 . S
C784 C785 1.396 . S
C784 C787 1.378 . S
C784 H826 0.931 . S
C785 C784 1.396 . S
C785 C786 1.382 . S
C786 C782 1.381 . S
C786 C785 1.382 . S
C786 H827 0.930 . S
C787 N783 1.328 . S
C787 C784 1.378 . S
C787 H789 0.930 1_455 S
H788 C782 0.931 . S
H789 C787 0.930 1_655 S
C790 O816 1.238 . S
C790 O817 1.253 . S
C791 C792 1.379 . S
C791 N796 1.337 . S
C791 H797 0.929 . S
C792 C791 1.379 . S
C792 C793 1.380 . S
C792 H828 0.929 . S
C793 C792 1.380 . S
C793 C794 1.399 . S
C794 C793 1.399 . S
C794 C795 1.376 . S
C794 H829 0.945 . S
C795 C794 1.376 . S
C795 N796 1.338 . S
C795 H798 0.930 1_656 S
N796 Cd781 2.304 1_655 S
N796 C791 1.337 . S
N796 C795 1.338 . S
H797 C791 0.929 . S
H798 C795 0.930 1_454 S
C799 N800 1.332 . S
C799 C803 1.381 . S
C799 H805 0.931 . S
N800 Cd781 2.334 . S
N800 C799 1.332 . S
N800 C804 1.328 . S
C801 C802 1.396 . S
C801 C804 1.378 . S
C801 H830 0.931 1_556 S
C802 C801 1.396 . S
C802 C803 1.382 . S
C803 C799 1.381 . S
C803 C802 1.382 . S
C803 H831 0.930 . S
C804 N800 1.328 . S
C804 C801 1.378 . S
C804 H806 0.930 1_556 S
H805 C799 0.931 . S
H806 C804 0.930 1_554 S
C807 O818 1.238 . S
C807 O819 1.253 . S
C808 O820 1.239 . S
C808 O821 1.230 . S
N809 Cd780 2.304 . S
N809 C810 1.337 . S
N809 C814 1.338 . S
C810 N809 1.337 . S
C810 C811 1.379 . S
C810 H824 0.929 . S
C811 C810 1.379 . S
C811 C812 1.380 . S
C811 H832 0.929 . S
C812 C811 1.380 . S
C812 C813 1.399 . S
C813 C812 1.399 . S
C813 C814 1.376 . S
C813 H833 0.931 1_554 S
C814 N809 1.338 . S
C814 C813 1.376 . S
C814 H825 0.930 1_554 S
C815 O822 1.239 . S
C815 O823 1.230 . S
O816 Cd780 2.268 1_556 S
O816 C790 1.238 . S
O817 Cd781 2.273 1_655 S
O817 C790 1.253 . S
O818 Cd781 2.268 1_554 S
O818 C807 1.238 . S
O819 Cd780 2.273 1_455 S
O819 C807 1.253 . S
O820 Cd780 2.417 . S
O820 C808 1.239 . S
O821 Cd780 2.330 . S
O821 C808 1.230 . S
O822 Cd781 2.417 . S
O822 C815 1.239 . S
O823 Cd781 2.330 . S
O823 C815 1.230 . S
H824 C810 0.929 . S
H825 C814 0.930 1_556 S
H826 C784 0.931 . S
H827 C786 0.930 . S
H828 C792 0.929 . S
H829 C794 0.945 . S
H830 C801 0.931 1_554 S
H831 C803 0.930 . S
H832 C811 0.929 . S
H833 C813 0.931 1_556 S
Cd834 N837 2.334 . S
Cd834 N863 2.304 . S
Cd834 O870 2.268 1_554 S
Cd834 O873 2.273 . S
Cd834 O874 2.417 . S
Cd834 O875 2.330 . S
Cd835 N850 2.304 . S
Cd835 N854 2.334 . S
Cd835 O871 2.273 . S
Cd835 O872 2.268 1_556 S
Cd835 O876 2.417 . S
Cd835 O877 2.330 . S
C836 N837 1.332 . S
C836 C840 1.381 . S
C836 H842 0.931 . S
N837 Cd834 2.334 . S
N837 C836 1.332 . S
N837 C841 1.328 . S
C838 C839 1.396 . S
C838 C841 1.378 . S
C838 H880 0.931 . S
C839 C838 1.396 . S
C839 C840 1.382 . S
C840 C836 1.381 . S
C840 C839 1.382 . S
C840 H881 0.930 . S
C841 N837 1.328 . S
C841 C838 1.378 . S
C841 H843 0.930 . S
H842 C836 0.931 . S
H843 C841 0.930 . S
C844 O870 1.238 . S
C844 O871 1.253 . S
C845 C846 1.379 . S
C845 N850 1.337 . S
C845 H851 0.929 . S
C846 C845 1.379 . S
C846 C847 1.380 . S
C846 H882 0.929 . S
C847 C846 1.380 . S
C847 C848 1.399 . S
C848 C847 1.399 . S
C848 C849 1.376 . S
C848 H883 0.945 . S
C849 C848 1.376 . S
C849 N850 1.338 . S
C849 H852 0.930 1_556 S
N850 Cd835 2.304 . S
N850 C845 1.337 . S
N850 C849 1.338 . S
H851 C845 0.929 . S
H852 C849 0.930 1_554 S
C853 N854 1.332 . S
C853 C857 1.381 . S
C853 H859 0.931 . S
N854 Cd835 2.334 . S
N854 C853 1.332 . S
N854 C858 1.328 . S
C855 C856 1.396 . S
C855 C858 1.378 . S
C855 H884 0.931 1_556 S
C856 C855 1.396 . S
C856 C857 1.382 . S
C857 C853 1.381 . S
C857 C856 1.382 . S
C857 H885 0.930 . S
C858 N854 1.328 . S
C858 C855 1.378 . S
C858 H860 0.930 1_556 S
H859 C853 0.931 . S
H860 C858 0.930 1_554 S
C861 O872 1.238 . S
C861 O873 1.253 . S
C862 O874 1.239 . S
C862 O875 1.230 . S
N863 Cd834 2.304 . S
N863 C864 1.337 . S
N863 C868 1.338 . S
C864 N863 1.337 . S
C864 C865 1.379 . S
C864 H878 0.929 . S
C865 C864 1.379 . S
C865 C866 1.380 . S
C865 H886 0.929 . S
C866 C865 1.380 . S
C866 C867 1.399 . S
C867 C866 1.399 . S
C867 C868 1.376 . S
C867 H887 0.931 1_554 S
C868 N863 1.338 . S
C868 C867 1.376 . S
C868 H879 0.930 1_554 S
C869 O876 1.239 . S
C869 O877 1.230 . S
O870 Cd834 2.268 1_556 S
O870 C844 1.238 . S
O871 Cd835 2.273 . S
O871 C844 1.253 . S
O872 Cd835 2.268 1_554 S
O872 C861 1.238 . S
O873 Cd834 2.273 . S
O873 C861 1.253 . S
O874 Cd834 2.417 . S
O874 C862 1.239 . S
O875 Cd834 2.330 . S
O875 C862 1.230 . S
O876 Cd835 2.417 . S
O876 C869 1.239 . S
O877 Cd835 2.330 . S
O877 C869 1.230 . S
H878 C864 0.929 . S
H879 C868 0.930 1_556 S
H880 C838 0.931 . S
H881 C840 0.930 . S
H882 C846 0.929 . S
H883 C848 0.945 . S
H884 C855 0.931 1_554 S
H885 C857 0.930 . S
H886 C865 0.929 . S
H887 C867 0.931 1_556 S
Cd888 N891 2.334 1_655 S
Cd888 N917 2.304 . S
Cd888 O924 2.268 . S
Cd888 O927 2.273 1_655 S
Cd888 O928 2.417 . S
Cd888 O929 2.330 . S
Cd889 N904 2.304 1_455 S
Cd889 N908 2.334 . S
Cd889 O925 2.273 1_455 S
Cd889 O926 2.268 . S
Cd889 O930 2.417 . S
Cd889 O931 2.330 . S
C890 N891 1.332 . S
C890 C894 1.381 . S
C890 H896 0.931 . S
N891 Cd888 2.334 1_455 S
N891 C890 1.332 . S
N891 C895 1.328 . S
C892 C893 1.396 . S
C892 C895 1.378 . S
C892 H934 0.931 . S
C893 C892 1.396 . S
C893 C894 1.382 . S
C894 C890 1.381 . S
C894 C893 1.382 . S
C894 H935 0.930 . S
C895 N891 1.328 . S
C895 C892 1.378 . S
C895 H897 0.930 1_455 S
H896 C890 0.931 . S
H897 C895 0.930 1_655 S
C898 O924 1.238 . S
C898 O925 1.253 . S
C899 C900 1.379 . S
C899 N904 1.337 . S
C899 H905 0.929 . S
C900 C899 1.379 . S
C900 C901 1.380 . S
C900 H936 0.929 . S
C901 C900 1.380 . S
C901 C902 1.399 . S
C902 C901 1.399 . S
C902 C903 1.376 . S
C902 H937 0.931 . S
C903 C902 1.376 . S
C903 N904 1.338 . S
C903 H906 0.930 1_655 S
N904 Cd889 2.304 1_655 S
N904 C899 1.337 . S
N904 C903 1.338 . S
H905 C899 0.929 . S
H906 C903 0.930 1_455 S
C907 N908 1.332 . S
C907 C911 1.381 . S
C907 H913 0.931 . S
N908 Cd889 2.334 . S
N908 C907 1.332 . S
N908 C912 1.328 . S
C909 C910 1.396 . S
C909 C912 1.378 . S
C909 H938 0.931 . S
C910 C909 1.396 . S
C910 C911 1.382 . S
C911 C907 1.381 . S
C911 C910 1.382 . S
C911 H939 0.930 . S
C912 N908 1.328 . S
C912 C909 1.378 . S
C912 H914 0.930 . S
H913 C907 0.931 . S
H914 C912 0.930 . S
C915 O926 1.238 . S
C915 O927 1.253 . S
C916 O928 1.239 . S
C916 O929 1.230 . S
N917 Cd888 2.304 . S
N917 C918 1.337 . S
N917 C922 1.338 . S
C918 N917 1.337 . S
C918 C919 1.379 . S
C918 H932 0.929 . S
C919 C918 1.379 . S
C919 C920 1.380 . S
C919 H940 0.929 . S
C920 C919 1.380 . S
C920 C921 1.399 . S
C921 C920 1.399 . S
C921 C922 1.376 . S
C921 H941 0.931 . S
C922 N917 1.338 . S
C922 C921 1.376 . S
C922 H933 0.930 . S
C923 O930 1.239 . S
C923 O931 1.230 . S
O924 Cd888 2.268 . S
O924 C898 1.238 . S
O925 Cd889 2.273 1_655 S
O925 C898 1.253 . S
O926 Cd889 2.268 . S
O926 C915 1.238 . S
O927 Cd888 2.273 1_455 S
O927 C915 1.253 . S
O928 Cd888 2.417 . S
O928 C916 1.239 . S
O929 Cd888 2.330 . S
O929 C916 1.230 . S
O930 Cd889 2.417 . S
O930 C923 1.239 . S
O931 Cd889 2.330 . S
O931 C923 1.230 . S
H932 C918 0.929 . S
H933 C922 0.930 . S
H934 C892 0.931 . S
H935 C894 0.930 . S
H936 C900 0.929 . S
H937 C902 0.931 . S
H938 C909 0.931 . S
H939 C911 0.930 . S
H940 C919 0.929 . S
H941 C921 0.931 . S
Cd942 N945 2.334 . S
Cd942 N971 2.304 1_565 S
Cd942 O978 2.268 . S
Cd942 O981 2.273 1_565 S
Cd942 O982 2.417 . S
Cd942 O983 2.330 . S
Cd943 N958 2.304 . S
Cd943 N962 2.334 1_545 S
Cd943 O979 2.273 1_545 S
Cd943 O980 2.268 . S
Cd943 O984 2.417 . S
Cd943 O985 2.330 . S
C944 N945 1.332 . S
C944 C948 1.381 . S
C944 H950 0.931 . S
N945 Cd942 2.334 . S
N945 C944 1.332 . S
N945 C949 1.328 . S
C946 C947 1.396 . S
C946 C949 1.378 . S
C946 H988 0.931 . S
C947 C946 1.396 . S
C947 C948 1.382 . S
C948 C944 1.381 . S
C948 C947 1.382 . S
C948 H989 0.930 . S
C949 N945 1.328 . S
C949 C946 1.378 . S
C949 H951 0.930 . S
H950 C944 0.931 . S
H951 C949 0.930 . S
C952 O978 1.238 . S
C952 O979 1.253 . S
C953 C954 1.379 . S
C953 N958 1.337 . S
C953 H959 0.929 . S
C954 C953 1.379 . S
C954 C955 1.380 . S
C954 H990 0.929 . S
C955 C954 1.380 . S
C955 C956 1.399 . S
C956 C955 1.399 . S
C956 C957 1.376 . S
C956 H991 0.931 . S
C957 C956 1.376 . S
C957 N958 1.338 . S
C957 H960 0.930 . S
N958 Cd943 2.304 . S
N958 C953 1.337 . S
N958 C957 1.338 . S
H959 C953 0.929 . S
H960 C957 0.930 . S
C961 N962 1.332 . S
C961 C965 1.381 . S
C961 H967 0.931 . S
N962 Cd943 2.334 1_565 S
N962 C961 1.332 . S
N962 C966 1.328 . S
C963 C964 1.396 . S
C963 C966 1.378 . S
C963 H992 0.931 . S
C964 C963 1.396 . S
C964 C965 1.382 . S
C965 C961 1.381 . S
C965 C964 1.382 . S
C965 H993 0.930 . S
C966 N962 1.328 . S
C966 C963 1.378 . S
C966 H968 0.930 1_565 S
H967 C961 0.931 . S
H968 C966 0.930 1_545 S
C969 O980 1.238 . S
C969 O981 1.253 . S
C970 O982 1.239 . S
C970 O983 1.230 . S
N971 Cd942 2.304 1_545 S
N971 C972 1.337 . S
N971 C976 1.338 . S
C972 N971 1.337 . S
C972 C973 1.379 . S
C972 H986 0.929 . S
C973 C972 1.379 . S
C973 C974 1.380 . S
C973 H994 0.929 . S
C974 C973 1.380 . S
C974 C975 1.399 . S
C975 C974 1.399 . S
C975 C976 1.376 . S
C975 H995 0.931 . S
C976 N971 1.338 . S
C976 C975 1.376 . S
C976 H987 0.930 1_545 S
C977 O984 1.239 . S
C977 O985 1.230 . S
O978 Cd942 2.268 . S
O978 C952 1.238 . S
O979 Cd943 2.273 1_565 S
O979 C952 1.253 . S
O980 Cd943 2.268 . S
O980 C969 1.238 . S
O981 Cd942 2.273 1_545 S
O981 C969 1.253 . S
O982 Cd942 2.417 . S
O982 C970 1.239 . S
O983 Cd942 2.330 . S
O983 C970 1.230 . S
O984 Cd943 2.417 . S
O984 C977 1.239 . S
O985 Cd943 2.330 . S
O985 C977 1.230 . S
H986 C972 0.929 . S
H987 C976 0.930 1_565 S
H988 C946 0.931 . S
H989 C948 0.930 . S
H990 C954 0.929 . S
H991 C956 0.931 . S
H992 C963 0.931 . S
H993 C965 0.930 . S
H994 C973 0.929 . S
H995 C975 0.931 . S
H996 C1004 0.929 . S
H997 C1006 0.930 . S
H998 C1008 0.930 . S
H999 C1011 0.929 . S
H1000 C1014 0.930 . S
H1001 C1016 0.960 . S
H1002 C1016 0.960 . S
H1003 C1016 0.960 . S
C1004 H996 0.929 . S
C1004 C1005 1.377 . S
C1004 C1006 1.384 . S
C1005 C1004 1.377 . S
C1005 C1011 1.390 . S
C1006 H997 0.930 . S
C1006 C1004 1.384 . S
C1006 C1007 1.372 . S
C1007 C1006 1.372 . S
C1007 C1008 1.400 . S
C1007 C1012 1.490 . S
C1008 H998 0.930 . S
C1008 C1007 1.400 . S
C1008 C1011 1.386 . S
H1009 C1025 0.930 . S
H1010 C1026 0.931 . S
C1011 H999 0.929 . S
C1011 C1005 1.390 . S
C1011 C1008 1.386 . S
C1012 C1007 1.490 . S
C1012 C1014 1.395 . S
C1012 C1015 1.403 . S
H1013 C1019 0.930 . S
C1014 H1000 0.930 . S
C1014 C1012 1.395 . S
C1014 C1017 1.403 . S
C1015 C1012 1.403 . S
C1015 C1016 1.524 . S
C1015 C1019 1.400 . S
C1016 H1001 0.960 . S
C1016 H1002 0.960 . S
C1016 H1003 0.960 . S
C1016 C1015 1.524 . S
C1017 C1014 1.403 . S
C1017 C1018 1.392 . S
C1017 C1021 1.495 . S
C1018 C1017 1.392 . S
C1018 C1019 1.385 . S
C1018 C1020 1.478 . S
C1019 H1013 0.930 . S
C1019 C1015 1.400 . S
C1019 C1018 1.385 . S
C1020 C1018 1.478 . S
C1020 C1022 1.381 . S
C1020 C1026 1.383 . S
C1021 C1017 1.495 . S
C1021 H1027 0.959 . S
C1021 H1028 0.961 . S
C1021 H1029 0.960 . S
C1022 C1020 1.381 . S
C1022 C1023 1.394 . S
C1022 H1030 0.930 . S
C1023 C1022 1.394 . S
C1023 C1024 1.383 . S
C1023 H1031 0.929 . S
C1024 C1023 1.383 . S
C1024 C1025 1.377 . S
C1025 H1009 0.930 . S
C1025 C1024 1.377 . S
C1025 C1026 1.379 . S
C1026 H1010 0.931 . S
C1026 C1020 1.383 . S
C1026 C1025 1.379 . S
H1027 C1021 0.959 . S
H1028 C1021 0.961 . S
H1029 C1021 0.960 . S
H1030 C1022 0.930 . S
H1031 C1023 0.929 . S
H1032 C1040 0.929 . S
H1033 C1042 0.930 . S
H1034 C1044 0.930 . S
H1035 C1047 0.929 . S
H1036 C1050 0.930 . S
H1037 C1052 0.960 . S
H1038 C1052 0.960 . S
H1039 C1052 0.960 . S
C1040 H1032 0.929 . S
C1040 C1041 1.377 . S
C1040 C1042 1.384 . S
C1041 C1040 1.377 . S
C1041 C1047 1.390 . S
C1042 H1033 0.930 . S
C1042 C1040 1.384 . S
C1042 C1043 1.372 . S
C1043 C1042 1.372 . S
C1043 C1044 1.400 . S
C1043 C1048 1.490 . S
C1044 H1034 0.930 . S
C1044 C1043 1.400 . S
C1044 C1047 1.386 . S
H1045 C1061 0.930 . S
H1046 C1062 0.931 . S
C1047 H1035 0.929 . S
C1047 C1041 1.390 . S
C1047 C1044 1.386 . S
C1048 C1043 1.490 . S
C1048 C1050 1.395 . S
C1048 C1051 1.403 . S
H1049 C1055 0.930 . S
C1050 H1036 0.930 . S
C1050 C1048 1.395 . S
C1050 C1053 1.403 . S
C1051 C1048 1.403 . S
C1051 C1052 1.524 . S
C1051 C1055 1.400 . S
C1052 H1037 0.960 . S
C1052 H1038 0.960 . S
C1052 H1039 0.960 . S
C1052 C1051 1.524 . S
C1053 C1050 1.403 . S
C1053 C1054 1.392 . S
C1053 C1057 1.495 . S
C1054 C1053 1.392 . S
C1054 C1055 1.385 . S
C1054 C1056 1.478 . S
C1055 H1049 0.930 . S
C1055 C1051 1.400 . S
C1055 C1054 1.385 . S
C1056 C1054 1.478 . S
C1056 C1058 1.381 . S
C1056 C1062 1.383 . S
C1057 C1053 1.495 . S
C1057 H1063 0.959 . S
C1057 H1064 0.961 . S
C1057 H1065 0.960 . S
C1058 C1056 1.381 . S
C1058 C1059 1.394 . S
C1058 H1066 0.930 . S
C1059 C1058 1.394 . S
C1059 C1060 1.383 . S
C1059 H1067 0.929 . S
C1060 C1059 1.383 . S
C1060 C1061 1.377 . S
C1061 H1045 0.930 . S
C1061 C1060 1.377 . S
C1061 C1062 1.379 . S
C1062 H1046 0.931 . S
C1062 C1056 1.383 . S
C1062 C1061 1.379 . S
H1063 C1057 0.959 . S
H1064 C1057 0.961 . S
H1065 C1057 0.960 . S
H1066 C1058 0.930 . S
H1067 C1059 0.929 . S
H1068 C1076 0.929 . S
H1069 C1078 0.930 . S
H1070 C1080 0.930 . S
H1071 C1083 0.929 . S
H1072 C1086 0.930 . S
H1073 C1088 0.960 . S
H1074 C1088 0.960 . S
H1075 C1088 0.960 . S
C1076 H1068 0.929 . S
C1076 C1077 1.377 . S
C1076 C1078 1.384 . S
C1077 C1076 1.377 . S
C1077 C1083 1.390 . S
C1078 H1069 0.930 . S
C1078 C1076 1.384 . S
C1078 C1079 1.372 . S
C1079 C1078 1.372 . S
C1079 C1080 1.400 . S
C1079 C1084 1.490 . S
C1080 H1070 0.930 . S
C1080 C1079 1.400 . S
C1080 C1083 1.386 . S
H1081 C1097 0.930 . S
H1082 C1098 0.931 . S
C1083 H1071 0.929 . S
C1083 C1077 1.390 . S
C1083 C1080 1.386 . S
C1084 C1079 1.490 . S
C1084 C1086 1.395 . S
C1084 C1087 1.403 . S
H1085 C1091 0.930 . S
C1086 H1072 0.930 . S
C1086 C1084 1.395 . S
C1086 C1089 1.403 . S
C1087 C1084 1.403 . S
C1087 C1088 1.524 . S
C1087 C1091 1.400 . S
C1088 H1073 0.960 . S
C1088 H1074 0.960 . S
C1088 H1075 0.960 . S
C1088 C1087 1.524 . S
C1089 C1086 1.403 . S
C1089 C1090 1.392 . S
C1089 C1093 1.495 . S
C1090 C1089 1.392 . S
C1090 C1091 1.385 . S
C1090 C1092 1.478 . S
C1091 H1085 0.930 . S
C1091 C1087 1.400 . S
C1091 C1090 1.385 . S
C1092 C1090 1.478 . S
C1092 C1094 1.381 . S
C1092 C1098 1.383 . S
C1093 C1089 1.495 . S
C1093 H1099 0.959 . S
C1093 H1100 0.961 . S
C1093 H1101 0.960 . S
C1094 C1092 1.381 . S
C1094 C1095 1.394 . S
C1094 H1102 0.930 . S
C1095 C1094 1.394 . S
C1095 C1096 1.383 . S
C1095 H1103 0.929 . S
C1096 C1095 1.383 . S
C1096 C1097 1.377 . S
C1097 H1081 0.930 . S
C1097 C1096 1.377 . S
C1097 C1098 1.379 . S
C1098 H1082 0.931 . S
C1098 C1092 1.383 . S
C1098 C1097 1.379 . S
H1099 C1093 0.959 . S
H1100 C1093 0.961 . S
H1101 C1093 0.960 . S
H1102 C1094 0.930 . S
H1103 C1095 0.929 . S
H1104 C1112 0.929 . S
H1105 C1114 0.930 . S
H1106 C1116 0.930 . S
H1107 C1119 0.929 . S
H1108 C1122 0.930 . S
H1109 C1124 0.960 . S
H1110 C1124 0.960 . S
H1111 C1124 0.960 . S
C1112 H1104 0.929 . S
C1112 C1113 1.377 . S
C1112 C1114 1.384 . S
C1113 C1112 1.377 . S
C1113 C1119 1.390 . S
C1114 H1105 0.930 . S
C1114 C1112 1.384 . S
C1114 C1115 1.372 . S
C1115 C1114 1.372 . S
C1115 C1116 1.400 . S
C1115 C1120 1.490 . S
C1116 H1106 0.930 . S
C1116 C1115 1.400 . S
C1116 C1119 1.386 . S
H1117 C1133 0.930 . S
H1118 C1134 0.931 . S
C1119 H1107 0.929 . S
C1119 C1113 1.390 . S
C1119 C1116 1.386 . S
C1120 C1115 1.490 . S
C1120 C1122 1.395 . S
C1120 C1123 1.403 . S
H1121 C1127 0.930 . S
C1122 H1108 0.930 . S
C1122 C1120 1.395 . S
C1122 C1125 1.403 . S
C1123 C1120 1.403 . S
C1123 C1124 1.524 . S
C1123 C1127 1.400 . S
C1124 H1109 0.960 . S
C1124 H1110 0.960 . S
C1124 H1111 0.960 . S
C1124 C1123 1.524 . S
C1125 C1122 1.403 . S
C1125 C1126 1.392 . S
C1125 C1129 1.495 . S
C1126 C1125 1.392 . S
C1126 C1127 1.385 . S
C1126 C1128 1.478 . S
C1127 H1121 0.930 . S
C1127 C1123 1.400 . S
C1127 C1126 1.385 . S
C1128 C1126 1.478 . S
C1128 C1130 1.381 . S
C1128 C1134 1.383 . S
C1129 C1125 1.495 . S
C1129 H1135 0.959 . S
C1129 H1136 0.961 . S
C1129 H1137 0.960 . S
C1130 C1128 1.381 . S
C1130 C1131 1.394 . S
C1130 H1138 0.930 . S
C1131 C1130 1.394 . S
C1131 C1132 1.383 . S
C1131 H1139 0.929 . S
C1132 C1131 1.383 . S
C1132 C1133 1.377 . S
C1133 H1117 0.930 . S
C1133 C1132 1.377 . S
C1133 C1134 1.379 . S
C1134 H1118 0.931 . S
C1134 C1128 1.383 . S
C1134 C1133 1.379 . S
H1135 C1129 0.959 . S
H1136 C1129 0.961 . S
H1137 C1129 0.960 . S
H1138 C1130 0.930 . S
H1139 C1131 0.929 . S
H1140 C1148 0.929 . S
H1141 C1150 0.930 . S
H1142 C1152 0.930 . S
H1143 C1155 0.929 . S
H1144 C1158 0.930 . S
H1145 C1160 0.960 . S
H1146 C1160 0.960 . S
H1147 C1160 0.960 . S
C1148 H1140 0.929 . S
C1148 C1149 1.377 . S
C1148 C1150 1.384 . S
C1149 C1148 1.377 . S
C1149 C1155 1.390 . S
C1150 H1141 0.930 . S
C1150 C1148 1.384 . S
C1150 C1151 1.372 . S
C1151 C1150 1.372 . S
C1151 C1152 1.400 . S
C1151 C1156 1.490 . S
C1152 H1142 0.930 . S
C1152 C1151 1.400 . S
C1152 C1155 1.386 . S
H1153 C1169 0.930 . S
H1154 C1170 0.931 . S
C1155 H1143 0.929 . S
C1155 C1149 1.390 . S
C1155 C1152 1.386 . S
C1156 C1151 1.490 . S
C1156 C1158 1.395 . S
C1156 C1159 1.403 . S
H1157 C1163 0.930 . S
C1158 H1144 0.930 . S
C1158 C1156 1.395 . S
C1158 C1161 1.403 . S
C1159 C1156 1.403 . S
C1159 C1160 1.524 . S
C1159 C1163 1.400 . S
C1160 H1145 0.960 . S
C1160 H1146 0.960 . S
C1160 H1147 0.960 . S
C1160 C1159 1.524 . S
C1161 C1158 1.403 . S
C1161 C1162 1.392 . S
C1161 C1165 1.495 . S
C1162 C1161 1.392 . S
C1162 C1163 1.385 . S
C1162 C1164 1.478 . S
C1163 H1157 0.930 . S
C1163 C1159 1.400 . S
C1163 C1162 1.385 . S
C1164 C1162 1.478 . S
C1164 C1166 1.381 . S
C1164 C1170 1.383 . S
C1165 C1161 1.495 . S
C1165 H1171 0.959 . S
C1165 H1172 0.961 . S
C1165 H1173 0.960 . S
C1166 C1164 1.381 . S
C1166 C1167 1.394 . S
C1166 H1174 0.930 . S
C1167 C1166 1.394 . S
C1167 C1168 1.383 . S
C1167 H1175 0.929 . S
C1168 C1167 1.383 . S
C1168 C1169 1.377 . S
C1169 H1153 0.930 . S
C1169 C1168 1.377 . S
C1169 C1170 1.379 . S
C1170 H1154 0.931 . S
C1170 C1164 1.383 . S
C1170 C1169 1.379 . S
H1171 C1165 0.959 . S
H1172 C1165 0.961 . S
H1173 C1165 0.960 . S
H1174 C1166 0.930 . S
H1175 C1167 0.929 . S
H1176 C1184 0.929 . S
H1177 C1186 0.930 . S
H1178 C1188 0.930 . S
H1179 C1191 0.929 . S
H1180 C1194 0.930 . S
H1181 C1196 0.960 . S
H1182 C1196 0.960 . S
H1183 C1196 0.960 . S
C1184 H1176 0.929 . S
C1184 C1185 1.377 . S
C1184 C1186 1.384 . S
C1185 C1184 1.377 . S
C1185 C1191 1.390 . S
C1186 H1177 0.930 . S
C1186 C1184 1.384 . S
C1186 C1187 1.372 . S
C1187 C1186 1.372 . S
C1187 C1188 1.400 . S
C1187 C1192 1.490 . S
C1188 H1178 0.930 . S
C1188 C1187 1.400 . S
C1188 C1191 1.386 . S
H1189 C1205 0.930 . S
H1190 C1206 0.931 . S
C1191 H1179 0.929 . S
C1191 C1185 1.390 . S
C1191 C1188 1.386 . S
C1192 C1187 1.490 . S
C1192 C1194 1.395 . S
C1192 C1195 1.403 . S
H1193 C1199 0.930 . S
C1194 H1180 0.930 . S
C1194 C1192 1.395 . S
C1194 C1197 1.403 . S
C1195 C1192 1.403 . S
C1195 C1196 1.524 . S
C1195 C1199 1.400 . S
C1196 H1181 0.960 . S
C1196 H1182 0.960 . S
C1196 H1183 0.960 . S
C1196 C1195 1.524 . S
C1197 C1194 1.403 . S
C1197 C1198 1.392 . S
C1197 C1201 1.495 . S
C1198 C1197 1.392 . S
C1198 C1199 1.385 . S
C1198 C1200 1.478 . S
C1199 H1193 0.930 . S
C1199 C1195 1.400 . S
C1199 C1198 1.385 . S
C1200 C1198 1.478 . S
C1200 C1202 1.381 . S
C1200 C1206 1.383 . S
C1201 C1197 1.495 . S
C1201 H1207 0.959 . S
C1201 H1208 0.961 . S
C1201 H1209 0.960 . S
C1202 C1200 1.381 . S
C1202 C1203 1.394 . S
C1202 H1210 0.930 . S
C1203 C1202 1.394 . S
C1203 C1204 1.383 . S
C1203 H1211 0.929 . S
C1204 C1203 1.383 . S
C1204 C1205 1.377 . S
C1205 H1189 0.930 . S
C1205 C1204 1.377 . S
C1205 C1206 1.379 . S
C1206 H1190 0.931 . S
C1206 C1200 1.383 . S
C1206 C1205 1.379 . S
H1207 C1201 0.959 . S
H1208 C1201 0.961 . S
H1209 C1201 0.960 . S
H1210 C1202 0.930 . S
H1211 C1203 0.929 . S
H1212 C1220 0.929 . S
H1213 C1222 0.930 . S
H1214 C1224 0.930 . S
H1215 C1227 0.929 . S
H1216 C1230 0.930 . S
H1217 C1232 0.960 . S
H1218 C1232 0.960 . S
H1219 C1232 0.960 . S
C1220 H1212 0.929 . S
C1220 C1221 1.377 . S
C1220 C1222 1.384 . S
C1221 C1220 1.377 . S
C1221 C1227 1.390 . S
C1222 H1213 0.930 . S
C1222 C1220 1.384 . S
C1222 C1223 1.372 . S
C1223 C1222 1.372 . S
C1223 C1224 1.400 . S
C1223 C1228 1.490 . S
C1224 H1214 0.930 . S
C1224 C1223 1.400 . S
C1224 C1227 1.386 . S
H1225 C1241 0.930 . S
H1226 C1242 0.931 . S
C1227 H1215 0.929 . S
C1227 C1221 1.390 . S
C1227 C1224 1.386 . S
C1228 C1223 1.490 . S
C1228 C1230 1.395 . S
C1228 C1231 1.403 . S
H1229 C1235 0.930 . S
C1230 H1216 0.930 . S
C1230 C1228 1.395 . S
C1230 C1233 1.403 . S
C1231 C1228 1.403 . S
C1231 C1232 1.524 . S
C1231 C1235 1.400 . S
C1232 H1217 0.960 . S
C1232 H1218 0.960 . S
C1232 H1219 0.960 . S
C1232 C1231 1.524 . S
C1233 C1230 1.403 . S
C1233 C1234 1.392 . S
C1233 C1237 1.495 . S
C1234 C1233 1.392 . S
C1234 C1235 1.385 . S
C1234 C1236 1.478 . S
C1235 H1229 0.930 . S
C1235 C1231 1.400 . S
C1235 C1234 1.385 . S
C1236 C1234 1.478 . S
C1236 C1238 1.381 . S
C1236 C1242 1.383 . S
C1237 C1233 1.495 . S
C1237 H1243 0.959 . S
C1237 H1244 0.961 . S
C1237 H1245 0.960 . S
C1238 C1236 1.381 . S
C1238 C1239 1.394 . S
C1238 H1246 0.930 . S
C1239 C1238 1.394 . S
C1239 C1240 1.383 . S
C1239 H1247 0.929 . S
C1240 C1239 1.383 . S
C1240 C1241 1.377 . S
C1241 H1225 0.930 . S
C1241 C1240 1.377 . S
C1241 C1242 1.379 . S
C1242 H1226 0.931 . S
C1242 C1236 1.383 . S
C1242 C1241 1.379 . S
H1243 C1237 0.959 . S
H1244 C1237 0.961 . S
H1245 C1237 0.960 . S
H1246 C1238 0.930 . S
H1247 C1239 0.929 . S
H1248 C1256 0.929 . S
H1249 C1258 0.930 . S
H1250 C1260 0.930 . S
H1251 C1263 0.929 . S
H1252 C1266 0.930 . S
H1253 C1268 0.960 . S
H1254 C1268 0.960 . S
H1255 C1268 0.960 . S
C1256 H1248 0.929 . S
C1256 C1257 1.377 . S
C1256 C1258 1.384 . S
C1257 C1256 1.377 . S
C1257 C1263 1.390 . S
C1258 H1249 0.930 . S
C1258 C1256 1.384 . S
C1258 C1259 1.372 . S
C1259 C1258 1.372 . S
C1259 C1260 1.400 . S
C1259 C1264 1.490 . S
C1260 H1250 0.930 . S
C1260 C1259 1.400 . S
C1260 C1263 1.386 . S
H1261 C1277 0.930 . S
H1262 C1278 0.931 . S
C1263 H1251 0.929 . S
C1263 C1257 1.390 . S
C1263 C1260 1.386 . S
C1264 C1259 1.490 . S
C1264 C1266 1.395 . S
C1264 C1267 1.403 . S
H1265 C1271 0.930 . S
C1266 H1252 0.930 . S
C1266 C1264 1.395 . S
C1266 C1269 1.403 . S
C1267 C1264 1.403 . S
C1267 C1268 1.524 . S
C1267 C1271 1.400 . S
C1268 H1253 0.960 . S
C1268 H1254 0.960 . S
C1268 H1255 0.960 . S
C1268 C1267 1.524 . S
C1269 C1266 1.403 . S
C1269 C1270 1.392 . S
C1269 C1273 1.495 . S
C1270 C1269 1.392 . S
C1270 C1271 1.385 . S
C1270 C1272 1.478 . S
C1271 H1265 0.930 . S
C1271 C1267 1.400 . S
C1271 C1270 1.385 . S
C1272 C1270 1.478 . S
C1272 C1274 1.381 . S
C1272 C1278 1.383 . S
C1273 C1269 1.495 . S
C1273 H1279 0.959 . S
C1273 H1280 0.961 . S
C1273 H1281 0.960 . S
C1274 C1272 1.381 . S
C1274 C1275 1.394 . S
C1274 H1282 0.930 . S
C1275 C1274 1.394 . S
C1275 C1276 1.383 . S
C1275 H1283 0.929 . S
C1276 C1275 1.383 . S
C1276 C1277 1.377 . S
C1277 H1261 0.930 . S
C1277 C1276 1.377 . S
C1277 C1278 1.379 . S
C1278 H1262 0.931 . S
C1278 C1272 1.383 . S
C1278 C1277 1.379 . S
H1279 C1273 0.959 . S
H1280 C1273 0.961 . S
H1281 C1273 0.960 . S
H1282 C1274 0.930 . S
H1283 C1275 0.929 . S
H1284 C1292 0.929 . S
H1285 C1294 0.930 . S
H1286 C1296 0.930 . S
H1287 C1299 0.929 . S
H1288 C1302 0.930 . S
H1289 C1304 0.960 . S
H1290 C1304 0.960 . S
H1291 C1304 0.960 . S
C1292 H1284 0.929 . S
C1292 C1293 1.377 . S
C1292 C1294 1.384 . S
C1293 C1292 1.377 . S
C1293 C1299 1.390 . S
C1294 H1285 0.930 . S
C1294 C1292 1.384 . S
C1294 C1295 1.372 . S
C1295 C1294 1.372 . S
C1295 C1296 1.400 . S
C1295 C1300 1.490 . S
C1296 H1286 0.930 . S
C1296 C1295 1.400 . S
C1296 C1299 1.386 . S
H1297 C1313 0.930 . S
H1298 C1314 0.931 . S
C1299 H1287 0.929 . S
C1299 C1293 1.390 . S
C1299 C1296 1.386 . S
C1300 C1295 1.490 . S
C1300 C1302 1.395 . S
C1300 C1303 1.403 . S
H1301 C1307 0.930 . S
C1302 H1288 0.930 . S
C1302 C1300 1.395 . S
C1302 C1305 1.403 . S
C1303 C1300 1.403 . S
C1303 C1304 1.524 . S
C1303 C1307 1.400 . S
C1304 H1289 0.960 . S
C1304 H1290 0.960 . S
C1304 H1291 0.960 . S
C1304 C1303 1.524 . S
C1305 C1302 1.403 . S
C1305 C1306 1.392 . S
C1305 C1309 1.495 . S
C1306 C1305 1.392 . S
C1306 C1307 1.385 . S
C1306 C1308 1.478 . S
C1307 H1301 0.930 . S
C1307 C1303 1.400 . S
C1307 C1306 1.385 . S
C1308 C1306 1.478 . S
C1308 C1310 1.381 . S
C1308 C1314 1.383 . S
C1309 C1305 1.495 . S
C1309 H1315 0.959 . S
C1309 H1316 0.961 . S
C1309 H1317 0.960 . S
C1310 C1308 1.381 . S
C1310 C1311 1.394 . S
C1310 H1318 0.930 . S
C1311 C1310 1.394 . S
C1311 C1312 1.383 . S
C1311 H1319 0.929 . S
C1312 C1311 1.383 . S
C1312 C1313 1.377 . S
C1313 H1297 0.930 . S
C1313 C1312 1.377 . S
C1313 C1314 1.379 . S
C1314 H1298 0.931 . S
C1314 C1308 1.383 . S
C1314 C1313 1.379 . S
H1315 C1309 0.959 . S
H1316 C1309 0.961 . S
H1317 C1309 0.960 . S
H1318 C1310 0.930 . S
H1319 C1311 0.929 . S
H1320 C1328 0.929 . S
H1321 C1330 0.930 . S
H1322 C1332 0.930 . S
H1323 C1335 0.929 . S
H1324 C1338 0.930 . S
H1325 C1340 0.960 . S
H1326 C1340 0.960 . S
H1327 C1340 0.960 . S
C1328 H1320 0.929 . S
C1328 C1329 1.377 . S
C1328 C1330 1.384 . S
C1329 C1328 1.377 . S
C1329 C1335 1.390 . S
C1330 H1321 0.930 . S
C1330 C1328 1.384 . S
C1330 C1331 1.372 . S
C1331 C1330 1.372 . S
C1331 C1332 1.400 . S
C1331 C1336 1.490 . S
C1332 H1322 0.930 . S
C1332 C1331 1.400 . S
C1332 C1335 1.386 . S
H1333 C1349 0.930 . S
H1334 C1350 0.931 . S
C1335 H1323 0.929 . S
C1335 C1329 1.390 . S
C1335 C1332 1.386 . S
C1336 C1331 1.490 . S
C1336 C1338 1.395 . S
C1336 C1339 1.403 . S
H1337 C1343 0.930 . S
C1338 H1324 0.930 . S
C1338 C1336 1.395 . S
C1338 C1341 1.403 . S
C1339 C1336 1.403 . S
C1339 C1340 1.524 . S
C1339 C1343 1.400 . S
C1340 H1325 0.960 . S
C1340 H1326 0.960 . S
C1340 H1327 0.960 . S
C1340 C1339 1.524 . S
C1341 C1338 1.403 . S
C1341 C1342 1.392 . S
C1341 C1345 1.495 . S
C1342 C1341 1.392 . S
C1342 C1343 1.385 . S
C1342 C1344 1.478 . S
C1343 H1337 0.930 . S
C1343 C1339 1.400 . S
C1343 C1342 1.385 . S
C1344 C1342 1.478 . S
C1344 C1346 1.381 . S
C1344 C1350 1.383 . S
C1345 C1341 1.495 . S
C1345 H1351 0.959 . S
C1345 H1352 0.961 . S
C1345 H1353 0.960 . S
C1346 C1344 1.381 . S
C1346 C1347 1.394 . S
C1346 H1354 0.930 . S
C1347 C1346 1.394 . S
C1347 C1348 1.383 . S
C1347 H1355 0.929 . S
C1348 C1347 1.383 . S
C1348 C1349 1.377 . S
C1349 H1333 0.930 . S
C1349 C1348 1.377 . S
C1349 C1350 1.379 . S
C1350 H1334 0.931 . S
C1350 C1344 1.383 . S
C1350 C1349 1.379 . S
H1351 C1345 0.959 . S
H1352 C1345 0.961 . S
H1353 C1345 0.960 . S
H1354 C1346 0.930 . S
H1355 C1347 0.929 . S
H1356 C1364 0.929 . S
H1357 C1366 0.930 . S
H1358 C1368 0.930 . S
H1359 C1371 0.929 . S
H1360 C1374 0.930 . S
H1361 C1376 0.960 . S
H1362 C1376 0.960 . S
H1363 C1376 0.960 . S
C1364 H1356 0.929 . S
C1364 C1365 1.377 . S
C1364 C1366 1.384 . S
C1365 C1364 1.377 . S
C1365 C1371 1.390 . S
C1366 H1357 0.930 . S
C1366 C1364 1.384 . S
C1366 C1367 1.372 . S
C1367 C1366 1.372 . S
C1367 C1368 1.400 . S
C1367 C1372 1.490 . S
C1368 H1358 0.930 . S
C1368 C1367 1.400 . S
C1368 C1371 1.386 . S
H1369 C1385 0.930 . S
H1370 C1386 0.931 . S
C1371 H1359 0.929 . S
C1371 C1365 1.390 . S
C1371 C1368 1.386 . S
C1372 C1367 1.490 . S
C1372 C1374 1.395 . S
C1372 C1375 1.403 . S
H1373 C1379 0.930 . S
C1374 H1360 0.930 . S
C1374 C1372 1.395 . S
C1374 C1377 1.403 . S
C1375 C1372 1.403 . S
C1375 C1376 1.524 . S
C1375 C1379 1.400 . S
C1376 H1361 0.960 . S
C1376 H1362 0.960 . S
C1376 H1363 0.960 . S
C1376 C1375 1.524 . S
C1377 C1374 1.403 . S
C1377 C1378 1.392 . S
C1377 C1381 1.495 . S
C1378 C1377 1.392 . S
C1378 C1379 1.385 . S
C1378 C1380 1.478 . S
C1379 H1373 0.930 . S
C1379 C1375 1.400 . S
C1379 C1378 1.385 . S
C1380 C1378 1.478 . S
C1380 C1382 1.381 . S
C1380 C1386 1.383 . S
C1381 C1377 1.495 . S
C1381 H1387 0.959 . S
C1381 H1388 0.961 . S
C1381 H1389 0.960 . S
C1382 C1380 1.381 . S
C1382 C1383 1.394 . S
C1382 H1390 0.930 . S
C1383 C1382 1.394 . S
C1383 C1384 1.383 . S
C1383 H1391 0.929 . S
C1384 C1383 1.383 . S
C1384 C1385 1.377 . S
C1385 H1369 0.930 . S
C1385 C1384 1.377 . S
C1385 C1386 1.379 . S
C1386 H1370 0.931 . S
C1386 C1380 1.383 . S
C1386 C1385 1.379 . S
H1387 C1381 0.959 . S
H1388 C1381 0.961 . S
H1389 C1381 0.960 . S
H1390 C1382 0.930 . S
H1391 C1383 0.929 . S
H1392 C1400 0.929 . S
H1393 C1402 0.930 . S
H1394 C1404 0.930 . S
H1395 C1407 0.929 . S
H1396 C1410 0.930 . S
H1397 C1412 0.960 . S
H1398 C1412 0.960 . S
H1399 C1412 0.960 . S
C1400 H1392 0.929 . S
C1400 C1401 1.377 . S
C1400 C1402 1.384 . S
C1401 C1400 1.377 . S
C1401 C1407 1.390 . S
C1402 H1393 0.930 . S
C1402 C1400 1.384 . S
C1402 C1403 1.372 . S
C1403 C1402 1.372 . S
C1403 C1404 1.400 . S
C1403 C1408 1.490 . S
C1404 H1394 0.930 . S
C1404 C1403 1.400 . S
C1404 C1407 1.386 . S
H1405 C1421 0.930 . S
H1406 C1422 0.931 . S
C1407 H1395 0.929 . S
C1407 C1401 1.390 . S
C1407 C1404 1.386 . S
C1408 C1403 1.490 . S
C1408 C1410 1.395 . S
C1408 C1411 1.403 . S
H1409 C1415 0.930 . S
C1410 H1396 0.930 . S
C1410 C1408 1.395 . S
C1410 C1413 1.403 . S
C1411 C1408 1.403 . S
C1411 C1412 1.524 . S
C1411 C1415 1.400 . S
C1412 H1397 0.960 . S
C1412 H1398 0.960 . S
C1412 H1399 0.960 . S
C1412 C1411 1.524 . S
C1413 C1410 1.403 . S
C1413 C1414 1.392 . S
C1413 C1417 1.495 . S
C1414 C1413 1.392 . S
C1414 C1415 1.385 . S
C1414 C1416 1.478 . S
C1415 H1409 0.930 . S
C1415 C1411 1.400 . S
C1415 C1414 1.385 . S
C1416 C1414 1.478 . S
C1416 C1418 1.381 . S
C1416 C1422 1.383 . S
C1417 C1413 1.495 . S
C1417 H1423 0.959 . S
C1417 H1424 0.961 . S
C1417 H1425 0.960 . S
C1418 C1416 1.381 . S
C1418 C1419 1.394 . S
C1418 H1426 0.930 . S
C1419 C1418 1.394 . S
C1419 C1420 1.383 . S
C1419 H1427 0.929 . S
C1420 C1419 1.383 . S
C1420 C1421 1.377 . S
C1421 H1405 0.930 . S
C1421 C1420 1.377 . S
C1421 C1422 1.379 . S
C1422 H1406 0.931 . S
C1422 C1416 1.383 . S
C1422 C1421 1.379 . S
H1423 C1417 0.959 . S
H1424 C1417 0.961 . S
H1425 C1417 0.960 . S
H1426 C1418 0.930 . S
H1427 C1419 0.929 . S
H1428 C1436 0.929 . S
H1429 C1438 0.930 . S
H1430 C1440 0.930 . S
H1431 C1443 0.929 . S
H1432 C1446 0.930 . S
H1433 C1448 0.960 . S
H1434 C1448 0.960 . S
H1435 C1448 0.960 . S
C1436 H1428 0.929 . S
C1436 C1437 1.377 . S
C1436 C1438 1.384 . S
C1437 C1436 1.377 . S
C1437 C1443 1.390 . S
C1438 H1429 0.930 . S
C1438 C1436 1.384 . S
C1438 C1439 1.372 . S
C1439 C1438 1.372 . S
C1439 C1440 1.400 . S
C1439 C1444 1.490 . S
C1440 H1430 0.930 . S
C1440 C1439 1.400 . S
C1440 C1443 1.386 . S
H1441 C1457 0.930 . S
H1442 C1458 0.931 . S
C1443 H1431 0.929 . S
C1443 C1437 1.390 . S
C1443 C1440 1.386 . S
C1444 C1439 1.490 . S
C1444 C1446 1.395 . S
C1444 C1447 1.403 . S
H1445 C1451 0.930 . S
C1446 H1432 0.930 . S
C1446 C1444 1.395 . S
C1446 C1449 1.403 . S
C1447 C1444 1.403 . S
C1447 C1448 1.524 . S
C1447 C1451 1.400 . S
C1448 H1433 0.960 . S
C1448 H1434 0.960 . S
C1448 H1435 0.960 . S
C1448 C1447 1.524 . S
C1449 C1446 1.403 . S
C1449 C1450 1.392 . S
C1449 C1453 1.495 . S
C1450 C1449 1.392 . S
C1450 C1451 1.385 . S
C1450 C1452 1.478 . S
C1451 H1445 0.930 . S
C1451 C1447 1.400 . S
C1451 C1450 1.385 . S
C1452 C1450 1.478 . S
C1452 C1454 1.381 . S
C1452 C1458 1.383 . S
C1453 C1449 1.495 . S
C1453 H1459 0.959 . S
C1453 H1460 0.961 . S
C1453 H1461 0.960 . S
C1454 C1452 1.381 . S
C1454 C1455 1.394 . S
C1454 H1462 0.930 . S
C1455 C1454 1.394 . S
C1455 C1456 1.383 . S
C1455 H1463 0.929 . S
C1456 C1455 1.383 . S
C1456 C1457 1.377 . S
C1457 H1441 0.930 . S
C1457 C1456 1.377 . S
C1457 C1458 1.379 . S
C1458 H1442 0.931 . S
C1458 C1452 1.383 . S
C1458 C1457 1.379 . S
H1459 C1453 0.959 . S
H1460 C1453 0.961 . S
H1461 C1453 0.960 . S
H1462 C1454 0.930 . S
H1463 C1455 0.929 . S
H1464 C1472 0.929 . S
H1465 C1474 0.930 . S
H1466 C1476 0.930 . S
H1467 C1479 0.929 . S
H1468 C1482 0.930 . S
H1469 C1484 0.960 . S
H1470 C1484 0.960 . S
H1471 C1484 0.960 . S
C1472 H1464 0.929 . S
C1472 C1473 1.377 . S
C1472 C1474 1.384 . S
C1473 C1472 1.377 . S
C1473 C1479 1.390 . S
C1474 H1465 0.930 . S
C1474 C1472 1.384 . S
C1474 C1475 1.372 . S
C1475 C1474 1.372 . S
C1475 C1476 1.400 . S
C1475 C1480 1.490 . S
C1476 H1466 0.930 . S
C1476 C1475 1.400 . S
C1476 C1479 1.386 . S
H1477 C1493 0.930 . S
H1478 C1494 0.931 . S
C1479 H1467 0.929 . S
C1479 C1473 1.390 . S
C1479 C1476 1.386 . S
C1480 C1475 1.490 . S
C1480 C1482 1.395 . S
C1480 C1483 1.403 . S
H1481 C1487 0.930 . S
C1482 H1468 0.930 . S
C1482 C1480 1.395 . S
C1482 C1485 1.403 . S
C1483 C1480 1.403 . S
C1483 C1484 1.524 . S
C1483 C1487 1.400 . S
C1484 H1469 0.960 . S
C1484 H1470 0.960 . S
C1484 H1471 0.960 . S
C1484 C1483 1.524 . S
C1485 C1482 1.403 . S
C1485 C1486 1.392 . S
C1485 C1489 1.495 . S
C1486 C1485 1.392 . S
C1486 C1487 1.385 . S
C1486 C1488 1.478 . S
C1487 H1481 0.930 . S
C1487 C1483 1.400 . S
C1487 C1486 1.385 . S
C1488 C1486 1.478 . S
C1488 C1490 1.381 . S
C1488 C1494 1.383 . S
C1489 C1485 1.495 . S
C1489 H1495 0.959 . S
C1489 H1496 0.961 . S
C1489 H1497 0.960 . S
C1490 C1488 1.381 . S
C1490 C1491 1.394 . S
C1490 H1498 0.930 . S
C1491 C1490 1.394 . S
C1491 C1492 1.383 . S
C1491 H1499 0.897 1_556 S
C1492 C1491 1.383 . S
C1492 C1493 1.377 . S
C1493 H1477 0.930 . S
C1493 C1492 1.377 . S
C1493 C1494 1.379 . S
C1494 H1478 0.931 . S
C1494 C1488 1.383 . S
C1494 C1493 1.379 . S
H1495 C1489 0.959 . S
H1496 C1489 0.961 . S
H1497 C1489 0.960 . S
H1498 C1490 0.930 . S
H1499 C1491 0.897 1_554 S
H1500 C1508 0.929 . S
H1501 C1510 0.930 . S
H1502 C1512 0.930 . S
H1503 C1515 0.929 . S
H1504 C1518 0.930 . S
H1505 C1520 0.960 . S
H1506 C1520 0.960 . S
H1507 C1520 0.960 . S
C1508 H1500 0.929 . S
C1508 C1509 1.377 . S
C1508 C1510 1.384 . S
C1509 C1508 1.377 . S
C1509 C1515 1.390 . S
C1510 H1501 0.930 . S
C1510 C1508 1.384 . S
C1510 C1511 1.372 . S
C1511 C1510 1.372 . S
C1511 C1512 1.400 . S
C1511 C1516 1.490 . S
C1512 H1502 0.930 . S
C1512 C1511 1.400 . S
C1512 C1515 1.386 . S
H1513 C1529 0.930 . S
H1514 C1530 0.931 . S
C1515 H1503 0.929 . S
C1515 C1509 1.390 . S
C1515 C1512 1.386 . S
C1516 C1511 1.490 . S
C1516 C1518 1.395 . S
C1516 C1519 1.403 . S
H1517 C1523 0.930 . S
C1518 H1504 0.930 . S
C1518 C1516 1.395 . S
C1518 C1521 1.403 . S
C1519 C1516 1.403 . S
C1519 C1520 1.524 . S
C1519 C1523 1.400 . S
C1520 H1505 0.960 . S
C1520 H1506 0.960 . S
C1520 H1507 0.960 . S
C1520 C1519 1.524 . S
C1521 C1518 1.403 . S
C1521 C1522 1.392 . S
C1521 C1525 1.495 . S
C1522 C1521 1.392 . S
C1522 C1523 1.385 . S
C1522 C1524 1.478 . S
C1523 H1517 0.930 . S
C1523 C1519 1.400 . S
C1523 C1522 1.385 . S
C1524 C1522 1.478 . S
C1524 C1526 1.381 . S
C1524 C1530 1.383 . S
C1525 C1521 1.495 . S
C1525 H1531 0.959 . S
C1525 H1532 0.961 . S
C1525 H1533 0.960 . S
C1526 C1524 1.381 . S
C1526 C1527 1.394 . S
C1526 H1534 0.930 . S
C1527 C1526 1.394 . S
C1527 C1528 1.383 . S
C1527 H1535 0.929 . S
C1528 C1527 1.383 . S
C1528 C1529 1.377 . S
C1529 H1513 0.930 . S
C1529 C1528 1.377 . S
C1529 C1530 1.379 . S
C1530 H1514 0.931 . S
C1530 C1524 1.383 . S
C1530 C1529 1.379 . S
H1531 C1525 0.959 . S
H1532 C1525 0.961 . S
H1533 C1525 0.960 . S
H1534 C1526 0.930 . S
H1535 C1527 0.929 . S
H1536 C1544 0.929 . S
H1537 C1546 0.930 . S
H1538 C1548 0.930 . S
H1539 C1551 0.929 . S
H1540 C1554 0.930 . S
H1541 C1556 0.960 . S
H1542 C1556 0.960 . S
H1543 C1556 0.960 . S
C1544 H1536 0.929 . S
C1544 C1545 1.377 . S
C1544 C1546 1.384 . S
C1545 C1544 1.377 . S
C1545 C1551 1.390 . S
C1546 H1537 0.930 . S
C1546 C1544 1.384 . S
C1546 C1547 1.372 . S
C1547 C1546 1.372 . S
C1547 C1548 1.400 . S
C1547 C1552 1.490 . S
C1548 H1538 0.930 . S
C1548 C1547 1.400 . S
C1548 C1551 1.386 . S
H1549 C1565 0.930 . S
H1550 C1566 0.931 . S
C1551 H1539 0.929 . S
C1551 C1545 1.390 . S
C1551 C1548 1.386 . S
C1552 C1547 1.490 . S
C1552 C1554 1.395 . S
C1552 C1555 1.403 . S
H1553 C1559 0.930 . S
C1554 H1540 0.930 . S
C1554 C1552 1.395 . S
C1554 C1557 1.403 . S
C1555 C1552 1.403 . S
C1555 C1556 1.524 . S
C1555 C1559 1.400 . S
C1556 H1541 0.960 . S
C1556 H1542 0.960 . S
C1556 H1543 0.960 . S
C1556 C1555 1.524 . S
C1557 C1554 1.403 . S
C1557 C1558 1.392 . S
C1557 C1561 1.495 . S
C1558 C1557 1.392 . S
C1558 C1559 1.385 . S
C1558 C1560 1.478 . S
C1559 H1553 0.930 . S
C1559 C1555 1.400 . S
C1559 C1558 1.385 . S
C1560 C1558 1.478 . S
C1560 C1562 1.381 . S
C1560 C1566 1.383 . S
C1561 C1557 1.495 . S
C1561 H1567 0.959 . S
C1561 H1568 0.961 . S
C1561 H1569 0.960 . S
C1562 C1560 1.381 . S
C1562 C1563 1.394 . S
C1562 H1570 0.930 . S
C1563 C1562 1.394 . S
C1563 C1564 1.383 . S
C1563 H1571 0.929 . S
C1564 C1563 1.383 . S
C1564 C1565 1.377 . S
C1565 H1549 0.930 . S
C1565 C1564 1.377 . S
C1565 C1566 1.379 . S
C1566 H1550 0.931 . S
C1566 C1560 1.383 . S
C1566 C1565 1.379 . S
H1567 C1561 0.959 . S
H1568 C1561 0.961 . S
H1569 C1561 0.960 . S
H1570 C1562 0.930 . S
H1571 C1563 0.929 . S
H1572 C1580 0.929 . S
H1573 C1582 0.930 . S
H1574 C1584 0.930 . S
H1575 C1587 0.929 . S
H1576 C1590 0.930 . S
H1577 C1592 0.960 . S
H1578 C1592 0.960 . S
H1579 C1592 0.960 . S
C1580 H1572 0.929 . S
C1580 C1581 1.377 . S
C1580 C1582 1.384 . S
C1581 C1580 1.377 . S
C1581 C1587 1.390 . S
C1582 H1573 0.930 . S
C1582 C1580 1.384 . S
C1582 C1583 1.372 . S
C1583 C1582 1.372 . S
C1583 C1584 1.400 . S
C1583 C1588 1.490 . S
C1584 H1574 0.930 . S
C1584 C1583 1.400 . S
C1584 C1587 1.386 . S
H1585 C1601 0.930 . S
H1586 C1602 0.931 . S
C1587 H1575 0.929 . S
C1587 C1581 1.390 . S
C1587 C1584 1.386 . S
C1588 C1583 1.490 . S
C1588 C1590 1.395 . S
C1588 C1591 1.403 . S
H1589 C1595 0.930 . S
C1590 H1576 0.930 . S
C1590 C1588 1.395 . S
C1590 C1593 1.403 . S
C1591 C1588 1.403 . S
C1591 C1592 1.524 . S
C1591 C1595 1.400 . S
C1592 H1577 0.960 . S
C1592 H1578 0.960 . S
C1592 H1579 0.960 . S
C1592 C1591 1.524 . S
C1593 C1590 1.403 . S
C1593 C1594 1.392 . S
C1593 C1597 1.495 . S
C1594 C1593 1.392 . S
C1594 C1595 1.385 . S
C1594 C1596 1.478 . S
C1595 H1589 0.930 . S
C1595 C1591 1.400 . S
C1595 C1594 1.385 . S
C1596 C1594 1.478 . S
C1596 C1598 1.381 . S
C1596 C1602 1.383 . S
C1597 C1593 1.495 . S
C1597 H1603 0.959 . S
C1597 H1604 0.961 . S
C1597 H1605 0.960 . S
C1598 C1596 1.381 . S
C1598 C1599 1.394 . S
C1598 H1606 0.930 . S
C1599 C1598 1.394 . S
C1599 C1600 1.383 . S
C1599 H1607 0.929 . S
C1600 C1599 1.383 . S
C1600 C1601 1.377 . S
C1601 H1585 0.930 . S
C1601 C1600 1.377 . S
C1601 C1602 1.379 . S
C1602 H1586 0.931 . S
C1602 C1596 1.383 . S
C1602 C1601 1.379 . S
H1603 C1597 0.959 . S
H1604 C1597 0.961 . S
H1605 C1597 0.960 . S
H1606 C1598 0.930 . S
H1607 C1599 0.929 . S
H1608 C1616 0.929 . S
H1609 C1618 0.930 . S
H1610 C1620 0.930 . S
H1611 C1623 0.929 . S
H1612 C1626 0.930 . S
H1613 C1628 0.960 . S
H1614 C1628 0.960 . S
H1615 C1628 0.960 . S
C1616 H1608 0.929 . S
C1616 C1617 1.377 . S
C1616 C1618 1.384 . S
C1617 C1616 1.377 . S
C1617 C1623 1.390 . S
C1618 H1609 0.930 . S
C1618 C1616 1.384 . S
C1618 C1619 1.372 . S
C1619 C1618 1.372 . S
C1619 C1620 1.400 . S
C1619 C1624 1.490 . S
C1620 H1610 0.930 . S
C1620 C1619 1.400 . S
C1620 C1623 1.386 . S
H1621 C1637 0.930 . S
H1622 C1638 0.931 . S
C1623 H1611 0.929 . S
C1623 C1617 1.390 . S
C1623 C1620 1.386 . S
C1624 C1619 1.490 . S
C1624 C1626 1.395 . S
C1624 C1627 1.403 . S
H1625 C1631 0.930 . S
C1626 H1612 0.930 . S
C1626 C1624 1.395 . S
C1626 C1629 1.403 . S
C1627 C1624 1.403 . S
C1627 C1628 1.524 . S
C1627 C1631 1.400 . S
C1628 H1613 0.960 . S
C1628 H1614 0.960 . S
C1628 H1615 0.960 . S
C1628 C1627 1.524 . S
C1629 C1626 1.403 . S
C1629 C1630 1.392 . S
C1629 C1633 1.495 . S
C1630 C1629 1.392 . S
C1630 C1631 1.385 . S
C1630 C1632 1.478 . S
C1631 H1625 0.930 . S
C1631 C1627 1.400 . S
C1631 C1630 1.385 . S
C1632 C1630 1.478 . S
C1632 C1634 1.381 . S
C1632 C1638 1.383 . S
C1633 C1629 1.495 . S
C1633 H1639 0.959 . S
C1633 H1640 0.961 . S
C1633 H1641 0.960 . S
C1634 C1632 1.381 . S
C1634 C1635 1.394 . S
C1634 H1642 0.930 . S
C1635 C1634 1.394 . S
C1635 C1636 1.383 . S
C1635 H1643 0.929 . S
C1636 C1635 1.383 . S
C1636 C1637 1.377 . S
C1637 H1621 0.930 . S
C1637 C1636 1.377 . S
C1637 C1638 1.379 . S
C1638 H1622 0.931 . S
C1638 C1632 1.383 . S
C1638 C1637 1.379 . S
H1639 C1633 0.959 . S
H1640 C1633 0.961 . S
H1641 C1633 0.960 . S
H1642 C1634 0.930 . S
H1643 C1635 0.929 . S
H1644 C1652 0.929 . S
H1645 C1654 0.930 . S
H1646 C1656 0.930 . S
H1647 C1659 0.929 . S
H1648 C1662 0.930 . S
H1649 C1664 0.960 . S
H1650 C1664 0.960 . S
H1651 C1664 0.960 . S
C1652 H1644 0.929 . S
C1652 C1653 1.377 . S
C1652 C1654 1.384 . S
C1653 C1652 1.377 . S
C1653 C1659 1.390 . S
C1654 H1645 0.930 . S
C1654 C1652 1.384 . S
C1654 C1655 1.372 . S
C1655 C1654 1.372 . S
C1655 C1656 1.400 . S
C1655 C1660 1.490 . S
C1656 H1646 0.930 . S
C1656 C1655 1.400 . S
C1656 C1659 1.386 . S
H1657 C1673 0.930 . S
H1658 C1674 0.931 . S
C1659 H1647 0.929 . S
C1659 C1653 1.390 . S
C1659 C1656 1.386 . S
C1660 C1655 1.490 . S
C1660 C1662 1.395 . S
C1660 C1663 1.403 . S
H1661 C1667 0.930 . S
C1662 H1648 0.930 . S
C1662 C1660 1.395 . S
C1662 C1665 1.403 . S
C1663 C1660 1.403 . S
C1663 C1664 1.524 . S
C1663 C1667 1.400 . S
C1664 H1649 0.960 . S
C1664 H1650 0.960 . S
C1664 H1651 0.960 . S
C1664 C1663 1.524 . S
C1665 C1662 1.403 . S
C1665 C1666 1.392 . S
C1665 C1669 1.495 . S
C1666 C1665 1.392 . S
C1666 C1667 1.385 . S
C1666 C1668 1.478 . S
C1667 H1661 0.930 . S
C1667 C1663 1.400 . S
C1667 C1666 1.385 . S
C1668 C1666 1.478 . S
C1668 C1670 1.381 . S
C1668 C1674 1.383 . S
C1669 C1665 1.495 . S
C1669 H1675 0.959 . S
C1669 H1676 0.961 . S
C1669 H1677 0.960 . S
C1670 C1668 1.381 . S
C1670 C1671 1.394 . S
C1670 H1678 0.930 . S
C1671 C1670 1.394 . S
C1671 C1672 1.383 . S
C1671 H1679 0.929 . S
C1672 C1671 1.383 . S
C1672 C1673 1.377 . S
C1673 H1657 0.930 . S
C1673 C1672 1.377 . S
C1673 C1674 1.379 . S
C1674 H1658 0.931 . S
C1674 C1668 1.383 . S
C1674 C1673 1.379 . S
H1675 C1669 0.959 . S
H1676 C1669 0.961 . S
H1677 C1669 0.960 . S
H1678 C1670 0.930 . S
H1679 C1671 0.929 . S
H1680 C1688 0.929 . S
H1681 C1690 0.930 . S
H1682 C1692 0.930 . S
H1683 C1695 0.929 . S
H1684 C1698 0.930 . S
H1685 C1700 0.960 . S
H1686 C1700 0.960 . S
H1687 C1700 0.960 . S
C1688 H1680 0.929 . S
C1688 C1689 1.377 . S
C1688 C1690 1.384 . S
C1689 C1688 1.377 . S
C1689 C1695 1.390 . S
C1690 H1681 0.930 . S
C1690 C1688 1.384 . S
C1690 C1691 1.372 . S
C1691 C1690 1.372 . S
C1691 C1692 1.400 . S
C1691 C1696 1.490 . S
C1692 H1682 0.930 . S
C1692 C1691 1.400 . S
C1692 C1695 1.386 . S
H1693 C1709 0.930 . S
H1694 C1710 0.931 . S
C1695 H1683 0.929 . S
C1695 C1689 1.390 . S
C1695 C1692 1.386 . S
C1696 C1691 1.490 . S
C1696 C1698 1.395 . S
C1696 C1699 1.403 . S
H1697 C1703 0.930 . S
C1698 H1684 0.930 . S
C1698 C1696 1.395 . S
C1698 C1701 1.403 . S
C1699 C1696 1.403 . S
C1699 C1700 1.524 . S
C1699 C1703 1.400 . S
C1700 H1685 0.960 . S
C1700 H1686 0.960 . S
C1700 H1687 0.960 . S
C1700 C1699 1.524 . S
C1701 C1698 1.403 . S
C1701 C1702 1.392 . S
C1701 C1705 1.495 . S
C1702 C1701 1.392 . S
C1702 C1703 1.385 . S
C1702 C1704 1.478 . S
C1703 H1697 0.930 . S
C1703 C1699 1.400 . S
C1703 C1702 1.385 . S
C1704 C1702 1.478 . S
C1704 C1706 1.381 . S
C1704 C1710 1.383 . S
C1705 C1701 1.495 . S
C1705 H1711 0.959 . S
C1705 H1712 0.961 . S
C1705 H1713 0.960 . S
C1706 C1704 1.381 . S
C1706 C1707 1.394 . S
C1706 H1714 0.930 . S
C1707 C1706 1.394 . S
C1707 C1708 1.383 . S
C1707 H1715 0.929 . S
C1708 C1707 1.383 . S
C1708 C1709 1.377 . S
C1709 H1693 0.930 . S
C1709 C1708 1.377 . S
C1709 C1710 1.379 . S
C1710 H1694 0.931 . S
C1710 C1704 1.383 . S
C1710 C1709 1.379 . S
H1711 C1705 0.959 . S
H1712 C1705 0.961 . S
H1713 C1705 0.960 . S
H1714 C1706 0.930 . S
H1715 C1707 0.929 . S
H1716 C1724 0.929 . S
H1717 C1726 0.930 . S
H1718 C1728 0.930 . S
H1719 C1731 0.929 . S
H1720 C1734 0.930 . S
H1721 C1736 0.960 . S
H1722 C1736 0.960 . S
H1723 C1736 0.960 . S
C1724 H1716 0.929 . S
C1724 C1725 1.377 . S
C1724 C1726 1.384 . S
C1725 C1724 1.377 . S
C1725 C1731 1.390 . S
C1726 H1717 0.930 . S
C1726 C1724 1.384 . S
C1726 C1727 1.372 . S
C1727 C1726 1.372 . S
C1727 C1728 1.400 . S
C1727 C1732 1.490 . S
C1728 H1718 0.930 . S
C1728 C1727 1.400 . S
C1728 C1731 1.386 . S
H1729 C1745 0.930 . S
H1730 C1746 0.931 . S
C1731 H1719 0.929 . S
C1731 C1725 1.390 . S
C1731 C1728 1.386 . S
C1732 C1727 1.490 . S
C1732 C1734 1.395 . S
C1732 C1735 1.403 . S
H1733 C1739 0.930 . S
C1734 H1720 0.930 . S
C1734 C1732 1.395 . S
C1734 C1737 1.403 . S
C1735 C1732 1.403 . S
C1735 C1736 1.524 . S
C1735 C1739 1.400 . S
C1736 H1721 0.960 . S
C1736 H1722 0.960 . S
C1736 H1723 0.960 . S
C1736 C1735 1.524 . S
C1737 C1734 1.403 . S
C1737 C1738 1.392 . S
C1737 C1741 1.495 . S
C1738 C1737 1.392 . S
C1738 C1739 1.385 . S
C1738 C1740 1.478 . S
C1739 H1733 0.930 . S
C1739 C1735 1.400 . S
C1739 C1738 1.385 . S
C1740 C1738 1.478 . S
C1740 C1742 1.381 . S
C1740 C1746 1.383 . S
C1741 C1737 1.495 . S
C1741 H1747 0.959 . S
C1741 H1748 0.961 . S
C1741 H1749 0.960 . S
C1742 C1740 1.381 . S
C1742 C1743 1.394 . S
C1742 H1750 0.930 . S
C1743 C1742 1.394 . S
C1743 C1744 1.383 . S
C1743 H1751 0.929 . S
C1744 C1743 1.383 . S
C1744 C1745 1.377 . S
C1745 H1729 0.930 . S
C1745 C1744 1.377 . S
C1745 C1746 1.379 . S
C1746 H1730 0.931 . S
C1746 C1740 1.383 . S
C1746 C1745 1.379 . S
H1747 C1741 0.959 . S
H1748 C1741 0.961 . S
H1749 C1741 0.960 . S
H1750 C1742 0.930 . S
H1751 C1743 0.929 . S
H1752 C1760 0.929 . S
H1753 C1762 0.930 . S
H1754 C1764 0.930 . S
H1755 C1767 0.929 . S
H1756 C1770 0.930 . S
H1757 C1772 0.960 . S
H1758 C1772 0.960 . S
H1759 C1772 0.960 . S
C1760 H1752 0.929 . S
C1760 C1761 1.377 . S
C1760 C1762 1.384 . S
C1761 C1760 1.377 . S
C1761 C1767 1.390 . S
C1762 H1753 0.930 . S
C1762 C1760 1.384 . S
C1762 C1763 1.372 . S
C1763 C1762 1.372 . S
C1763 C1764 1.400 . S
C1763 C1768 1.490 . S
C1764 H1754 0.930 . S
C1764 C1763 1.400 . S
C1764 C1767 1.386 . S
H1765 C1781 0.930 . S
H1766 C1782 0.931 . S
C1767 H1755 0.929 . S
C1767 C1761 1.390 . S
C1767 C1764 1.386 . S
C1768 C1763 1.490 . S
C1768 C1770 1.395 . S
C1768 C1771 1.403 . S
H1769 C1775 0.930 . S
C1770 H1756 0.930 . S
C1770 C1768 1.395 . S
C1770 C1773 1.403 . S
C1771 C1768 1.403 . S
C1771 C1772 1.524 . S
C1771 C1775 1.400 . S
C1772 H1757 0.960 . S
C1772 H1758 0.960 . S
C1772 H1759 0.960 . S
C1772 C1771 1.524 . S
C1773 C1770 1.403 . S
C1773 C1774 1.392 . S
C1773 C1777 1.495 . S
C1774 C1773 1.392 . S
C1774 C1775 1.385 . S
C1774 C1776 1.478 . S
C1775 H1769 0.930 . S
C1775 C1771 1.400 . S
C1775 C1774 1.385 . S
C1776 C1774 1.478 . S
C1776 C1778 1.381 . S
C1776 C1782 1.383 . S
C1777 C1773 1.495 . S
C1777 H1783 0.959 . S
C1777 H1784 0.961 . S
C1777 H1785 0.960 . S
C1778 C1776 1.381 . S
C1778 C1779 1.394 . S
C1778 H1786 0.930 . S
C1779 C1778 1.394 . S
C1779 C1780 1.383 . S
C1779 H1787 0.929 . S
C1780 C1779 1.383 . S
C1780 C1781 1.377 . S
C1781 H1765 0.930 . S
C1781 C1780 1.377 . S
C1781 C1782 1.379 . S
C1782 H1766 0.931 . S
C1782 C1776 1.383 . S
C1782 C1781 1.379 . S
H1783 C1777 0.959 . S
H1784 C1777 0.961 . S
H1785 C1777 0.960 . S
H1786 C1778 0.930 . S
H1787 C1779 0.929 . S
H1788 C1796 0.929 . S
H1789 C1798 0.930 . S
H1790 C1800 0.930 . S
H1791 C1803 0.929 . S
H1792 C1806 0.930 . S
H1793 C1808 0.960 . S
H1794 C1808 0.960 . S
H1795 C1808 0.960 . S
C1796 H1788 0.929 . S
C1796 C1797 1.377 . S
C1796 C1798 1.384 . S
C1797 C1796 1.377 . S
C1797 C1803 1.390 . S
C1798 H1789 0.930 . S
C1798 C1796 1.384 . S
C1798 C1799 1.372 . S
C1799 C1798 1.372 . S
C1799 C1800 1.400 . S
C1799 C1804 1.490 . S
C1800 H1790 0.930 . S
C1800 C1799 1.400 . S
C1800 C1803 1.386 . S
H1801 C1817 0.930 . S
H1802 C1818 0.931 . S
C1803 H1791 0.929 . S
C1803 C1797 1.390 . S
C1803 C1800 1.386 . S
C1804 C1799 1.490 . S
C1804 C1806 1.395 . S
C1804 C1807 1.403 . S
H1805 C1811 0.930 . S
C1806 H1792 0.930 . S
C1806 C1804 1.395 . S
C1806 C1809 1.403 . S
C1807 C1804 1.403 . S
C1807 C1808 1.524 . S
C1807 C1811 1.400 . S
C1808 H1793 0.960 . S
C1808 H1794 0.960 . S
C1808 H1795 0.960 . S
C1808 C1807 1.524 . S
C1809 C1806 1.403 . S
C1809 C1810 1.392 . S
C1809 C1813 1.495 . S
C1810 C1809 1.392 . S
C1810 C1811 1.385 . S
C1810 C1812 1.478 . S
C1811 H1805 0.930 . S
C1811 C1807 1.400 . S
C1811 C1810 1.385 . S
C1812 C1810 1.478 . S
C1812 C1814 1.381 . S
C1812 C1818 1.383 . S
C1813 C1809 1.495 . S
C1813 H1819 0.959 . S
C1813 H1820 0.961 . S
C1813 H1821 0.960 . S
C1814 C1812 1.381 . S
C1814 C1815 1.394 . S
C1814 H1822 0.930 . S
C1815 C1814 1.394 . S
C1815 C1816 1.383 . S
C1815 H1823 0.929 . S
C1816 C1815 1.383 . S
C1816 C1817 1.377 . S
C1817 H1801 0.930 . S
C1817 C1816 1.377 . S
C1817 C1818 1.379 . S
C1818 H1802 0.931 . S
C1818 C1812 1.383 . S
C1818 C1817 1.379 . S
H1819 C1813 0.959 . S
H1820 C1813 0.961 . S
H1821 C1813 0.960 . S
H1822 C1814 0.930 . S
H1823 C1815 0.929 . S
H1824 C1832 0.929 . S
H1825 C1834 0.930 . S
H1826 C1836 0.930 . S
H1827 C1839 0.929 . S
H1828 C1842 0.930 . S
H1829 C1844 0.960 . S
H1830 C1844 0.960 . S
H1831 C1844 0.960 . S
C1832 H1824 0.929 . S
C1832 C1833 1.377 . S
C1832 C1834 1.384 . S
C1833 C1832 1.377 . S
C1833 C1839 1.390 . S
C1834 H1825 0.930 . S
C1834 C1832 1.384 . S
C1834 C1835 1.372 . S
C1835 C1834 1.372 . S
C1835 C1836 1.400 . S
C1835 C1840 1.490 . S
C1836 H1826 0.930 . S
C1836 C1835 1.400 . S
C1836 C1839 1.386 . S
H1837 C1853 0.930 . S
H1838 C1854 0.931 . S
C1839 H1827 0.929 . S
C1839 C1833 1.390 . S
C1839 C1836 1.386 . S
C1840 C1835 1.490 . S
C1840 C1842 1.395 . S
C1840 C1843 1.403 . S
H1841 C1847 0.930 . S
C1842 H1828 0.930 . S
C1842 C1840 1.395 . S
C1842 C1845 1.403 . S
C1843 C1840 1.403 . S
C1843 C1844 1.524 . S
C1843 C1847 1.400 . S
C1844 H1829 0.960 . S
C1844 H1830 0.960 . S
C1844 H1831 0.960 . S
C1844 C1843 1.524 . S
C1845 C1842 1.403 . S
C1845 C1846 1.392 . S
C1845 C1849 1.495 . S
C1846 C1845 1.392 . S
C1846 C1847 1.385 . S
C1846 C1848 1.478 . S
C1847 H1841 0.930 . S
C1847 C1843 1.400 . S
C1847 C1846 1.385 . S
C1848 C1846 1.478 . S
C1848 C1850 1.381 . S
C1848 C1854 1.383 . S
C1849 C1845 1.495 . S
C1849 H1855 0.959 . S
C1849 H1856 0.961 . S
C1849 H1857 0.960 . S
C1850 C1848 1.381 . S
C1850 C1851 1.394 . S
C1850 H1858 0.930 . S
C1851 C1850 1.394 . S
C1851 C1852 1.383 . S
C1851 H1859 0.929 . S
C1852 C1851 1.383 . S
C1852 C1853 1.377 . S
C1853 H1837 0.930 . S
C1853 C1852 1.377 . S
C1853 C1854 1.379 . S
C1854 H1838 0.931 . S
C1854 C1848 1.383 . S
C1854 C1853 1.379 . S
H1855 C1849 0.959 . S
H1856 C1849 0.961 . S
H1857 C1849 0.960 . S
H1858 C1850 0.930 . S
H1859 C1851 0.929 . S
H1860 C1868 0.929 . S
H1861 C1870 0.930 . S
H1862 C1872 0.930 . S
H1863 C1875 0.929 . S
H1864 C1878 0.930 . S
H1865 C1880 0.960 . S
H1866 C1880 0.960 . S
H1867 C1880 0.960 . S
C1868 H1860 0.929 . S
C1868 C1869 1.377 . S
C1868 C1870 1.384 . S
C1869 C1868 1.377 . S
C1869 C1875 1.390 . S
C1870 H1861 0.930 . S
C1870 C1868 1.384 . S
C1870 C1871 1.372 . S
C1871 C1870 1.372 . S
C1871 C1872 1.400 . S
C1871 C1876 1.490 . S
C1872 H1862 0.930 . S
C1872 C1871 1.400 . S
C1872 C1875 1.386 . S
H1873 C1889 0.930 . S
H1874 C1890 0.931 . S
C1875 H1863 0.929 . S
C1875 C1869 1.390 . S
C1875 C1872 1.386 . S
C1876 C1871 1.490 . S
C1876 C1878 1.395 . S
C1876 C1879 1.403 . S
H1877 C1883 0.930 . S
C1878 H1864 0.930 . S
C1878 C1876 1.395 . S
C1878 C1881 1.403 . S
C1879 C1876 1.403 . S
C1879 C1880 1.524 . S
C1879 C1883 1.400 . S
C1880 H1865 0.960 . S
C1880 H1866 0.960 . S
C1880 H1867 0.960 . S
C1880 C1879 1.524 . S
C1881 C1878 1.403 . S
C1881 C1882 1.392 . S
C1881 C1885 1.495 . S
C1882 C1881 1.392 . S
C1882 C1883 1.385 . S
C1882 C1884 1.478 . S
C1883 H1877 0.930 . S
C1883 C1879 1.400 . S
C1883 C1882 1.385 . S
C1884 C1882 1.478 . S
C1884 C1886 1.381 . S
C1884 C1890 1.383 . S
C1885 C1881 1.495 . S
C1885 H1891 0.959 . S
C1885 H1892 0.961 . S
C1885 H1893 0.960 . S
C1886 C1884 1.381 . S
C1886 C1887 1.394 . S
C1886 H1894 0.930 . S
C1887 C1886 1.394 . S
C1887 C1888 1.383 . S
C1887 H1895 0.929 . S
C1888 C1887 1.383 . S
C1888 C1889 1.377 . S
C1889 H1873 0.930 . S
C1889 C1888 1.377 . S
C1889 C1890 1.379 . S
C1890 H1874 0.931 . S
C1890 C1884 1.383 . S
C1890 C1889 1.379 . S
H1891 C1885 0.959 . S
H1892 C1885 0.961 . S
H1893 C1885 0.960 . S
H1894 C1886 0.930 . S
H1895 C1887 0.929 . S
H1896 C1904 0.929 . S
H1897 C1906 0.930 . S
H1898 C1908 0.930 . S
H1899 C1911 0.929 . S
H1900 C1914 0.930 . S
H1901 C1916 0.960 . S
H1902 C1916 0.960 . S
H1903 C1916 0.960 . S
C1904 H1896 0.929 . S
C1904 C1905 1.377 . S
C1904 C1906 1.384 . S
C1905 C1904 1.377 . S
C1905 C1911 1.390 . S
C1906 H1897 0.930 . S
C1906 C1904 1.384 . S
C1906 C1907 1.372 . S
C1907 C1906 1.372 . S
C1907 C1908 1.400 . S
C1907 C1912 1.490 . S
C1908 H1898 0.930 . S
C1908 C1907 1.400 . S
C1908 C1911 1.386 . S
H1909 C1925 0.896 1_554 S
H1910 C1926 0.931 . S
C1911 H1899 0.929 . S
C1911 C1905 1.390 . S
C1911 C1908 1.386 . S
C1912 C1907 1.490 . S
C1912 C1914 1.395 . S
C1912 C1915 1.403 . S
H1913 C1919 0.930 . S
C1914 H1900 0.930 . S
C1914 C1912 1.395 . S
C1914 C1917 1.403 . S
C1915 C1912 1.403 . S
C1915 C1916 1.524 . S
C1915 C1919 1.400 . S
C1916 H1901 0.960 . S
C1916 H1902 0.960 . S
C1916 H1903 0.960 . S
C1916 C1915 1.524 . S
C1917 C1914 1.403 . S
C1917 C1918 1.392 . S
C1917 C1921 1.495 . S
C1918 C1917 1.392 . S
C1918 C1919 1.385 . S
C1918 C1920 1.478 . S
C1919 H1913 0.930 . S
C1919 C1915 1.400 . S
C1919 C1918 1.385 . S
C1920 C1918 1.478 . S
C1920 C1922 1.381 . S
C1920 C1926 1.383 . S
C1921 C1917 1.495 . S
C1921 H1927 0.959 . S
C1921 H1928 0.961 . S
C1921 H1929 0.960 . S
C1922 C1920 1.381 . S
C1922 C1923 1.394 . S
C1922 H1930 0.930 . S
C1923 C1922 1.394 . S
C1923 C1924 1.383 . S
C1923 H1931 0.929 . S
C1924 C1923 1.383 . S
C1924 C1925 1.377 . S
C1925 H1909 0.896 1_556 S
C1925 C1924 1.377 . S
C1925 C1926 1.379 . S
C1926 H1910 0.931 . S
C1926 C1920 1.383 . S
C1926 C1925 1.379 . S
H1927 C1921 0.959 . S
H1928 C1921 0.961 . S
H1929 C1921 0.960 . S
H1930 C1922 0.930 . S
H1931 C1923 0.929 . S
H1932 C1940 0.929 . S
H1933 C1942 0.930 . S
H1934 C1944 0.930 . S
H1935 C1947 0.929 . S
H1936 C1950 0.930 . S
H1937 C1952 0.960 . S
H1938 C1952 0.960 . S
H1939 C1952 0.960 . S
C1940 H1932 0.929 . S
C1940 C1941 1.377 . S
C1940 C1942 1.384 . S
C1941 C1940 1.377 . S
C1941 C1947 1.390 . S
C1942 H1933 0.930 . S
C1942 C1940 1.384 . S
C1942 C1943 1.372 . S
C1943 C1942 1.372 . S
C1943 C1944 1.400 . S
C1943 C1948 1.490 . S
C1944 H1934 0.930 . S
C1944 C1943 1.400 . S
C1944 C1947 1.386 . S
H1945 C1961 0.930 . S
H1946 C1962 0.931 . S
C1947 H1935 0.929 . S
C1947 C1941 1.390 . S
C1947 C1944 1.386 . S
C1948 C1943 1.490 . S
C1948 C1950 1.395 . S
C1948 C1951 1.403 . S
H1949 C1955 0.930 . S
C1950 H1936 0.930 . S
C1950 C1948 1.395 . S
C1950 C1953 1.403 . S
C1951 C1948 1.403 . S
C1951 C1952 1.524 . S
C1951 C1955 1.400 . S
C1952 H1937 0.960 . S
C1952 H1938 0.960 . S
C1952 H1939 0.960 . S
C1952 C1951 1.524 . S
C1953 C1950 1.403 . S
C1953 C1954 1.392 . S
C1953 C1957 1.495 . S
C1954 C1953 1.392 . S
C1954 C1955 1.385 . S
C1954 C1956 1.478 . S
C1955 H1949 0.930 . S
C1955 C1951 1.400 . S
C1955 C1954 1.385 . S
C1956 C1954 1.478 . S
C1956 C1958 1.381 . S
C1956 C1962 1.383 . S
C1957 C1953 1.495 . S
C1957 H1963 0.959 . S
C1957 H1964 0.961 . S
C1957 H1965 0.960 . S
C1958 C1956 1.381 . S
C1958 C1959 1.394 . S
C1958 H1966 0.930 . S
C1959 C1958 1.394 . S
C1959 C1960 1.383 . S
C1959 H1967 0.929 . S
C1960 C1959 1.383 . S
C1960 C1961 1.377 . S
C1961 H1945 0.930 . S
C1961 C1960 1.377 . S
C1961 C1962 1.379 . S
C1962 H1946 0.931 . S
C1962 C1956 1.383 . S
C1962 C1961 1.379 . S
H1963 C1957 0.959 . S
H1964 C1957 0.961 . S
H1965 C1957 0.960 . S
H1966 C1958 0.930 . S
H1967 C1959 0.929 . S
H1968 C1976 0.929 . S
H1969 C1978 0.930 . S
H1970 C1980 0.930 . S
H1971 C1983 0.929 . S
H1972 C1986 0.930 . S
H1973 C1988 0.960 . S
H1974 C1988 0.960 . S
H1975 C1988 0.960 . S
C1976 H1968 0.929 . S
C1976 C1977 1.377 . S
C1976 C1978 1.384 . S
C1977 C1976 1.377 . S
C1977 C1983 1.390 . S
C1978 H1969 0.930 . S
C1978 C1976 1.384 . S
C1978 C1979 1.372 . S
C1979 C1978 1.372 . S
C1979 C1980 1.400 . S
C1979 C1984 1.490 . S
C1980 H1970 0.930 . S
C1980 C1979 1.400 . S
C1980 C1983 1.386 . S
H1981 C1997 0.930 . S
H1982 C1998 0.931 . S
C1983 H1971 0.929 . S
C1983 C1977 1.390 . S
C1983 C1980 1.386 . S
C1984 C1979 1.490 . S
C1984 C1986 1.395 . S
C1984 C1987 1.403 . S
H1985 C1991 0.930 . S
C1986 H1972 0.930 . S
C1986 C1984 1.395 . S
C1986 C1989 1.403 . S
C1987 C1984 1.403 . S
C1987 C1988 1.524 . S
C1987 C1991 1.400 . S
C1988 H1973 0.960 . S
C1988 H1974 0.960 . S
C1988 H1975 0.960 . S
C1988 C1987 1.524 . S
C1989 C1986 1.403 . S
C1989 C1990 1.392 . S
C1989 C1993 1.495 . S
C1990 C1989 1.392 . S
C1990 C1991 1.385 . S
C1990 C1992 1.478 . S
C1991 H1985 0.930 . S
C1991 C1987 1.400 . S
C1991 C1990 1.385 . S
C1992 C1990 1.478 . S
C1992 C1994 1.381 . S
C1992 C1998 1.383 . S
C1993 C1989 1.495 . S
C1993 H1999 0.959 . S
C1993 H2000 0.961 . S
C1993 H2001 0.960 . S
C1994 C1992 1.381 . S
C1994 C1995 1.394 . S
C1994 H2002 0.930 . S
C1995 C1994 1.394 . S
C1995 C1996 1.383 . S
C1995 H2003 0.915 1_556 S
C1996 C1995 1.383 . S
C1996 C1997 1.377 . S
C1997 H1981 0.930 . S
C1997 C1996 1.377 . S
C1997 C1998 1.379 . S
C1998 H1982 0.931 . S
C1998 C1992 1.383 . S
C1998 C1997 1.379 . S
H1999 C1993 0.959 . S
H2000 C1993 0.961 . S
H2001 C1993 0.960 . S
H2002 C1994 0.930 . S
H2003 C1995 0.915 1_554 S
H2004 C2012 0.929 . S
H2005 C2014 0.930 . S
H2006 C2016 0.930 . S
H2007 C2019 0.929 . S
H2008 C2022 0.930 . S
H2009 C2024 0.960 . S
H2010 C2024 0.960 . S
H2011 C2024 0.960 . S
C2012 H2004 0.929 . S
C2012 C2013 1.377 . S
C2012 C2014 1.384 . S
C2013 C2012 1.377 . S
C2013 C2019 1.390 . S
C2014 H2005 0.930 . S
C2014 C2012 1.384 . S
C2014 C2015 1.372 . S
C2015 C2014 1.372 . S
C2015 C2016 1.400 . S
C2015 C2020 1.490 . S
C2016 H2006 0.930 . S
C2016 C2015 1.400 . S
C2016 C2019 1.386 . S
H2017 C2033 0.970 . S
H2018 C2034 0.931 . S
C2019 H2007 0.929 . S
C2019 C2013 1.390 . S
C2019 C2016 1.386 . S
C2020 C2015 1.490 . S
C2020 C2022 1.395 . S
C2020 C2023 1.403 . S
H2021 C2027 0.930 . S
C2022 H2008 0.930 . S
C2022 C2020 1.395 . S
C2022 C2025 1.403 . S
C2023 C2020 1.403 . S
C2023 C2024 1.524 . S
C2023 C2027 1.400 . S
C2024 H2009 0.960 . S
C2024 H2010 0.960 . S
C2024 H2011 0.960 . S
C2024 C2023 1.524 . S
C2025 C2022 1.403 . S
C2025 C2026 1.392 . S
C2025 C2029 1.495 . S
C2026 C2025 1.392 . S
C2026 C2027 1.385 . S
C2026 C2028 1.478 . S
C2027 H2021 0.930 . S
C2027 C2023 1.400 . S
C2027 C2026 1.385 . S
C2028 C2026 1.478 . S
C2028 C2030 1.381 . S
C2028 C2034 1.383 . S
C2029 C2025 1.495 . S
C2029 H2035 0.959 . S
C2029 H2036 0.961 . S
C2029 H2037 0.960 . S
C2030 C2028 1.381 . S
C2030 C2031 1.394 . S
C2030 H2038 0.930 . S
C2031 C2030 1.394 . S
C2031 C2032 1.383 . S
C2031 H2039 0.929 . S
C2032 C2031 1.383 . S
C2032 C2033 1.377 . S
C2033 H2017 0.970 . S
C2033 C2032 1.377 . S
C2033 C2034 1.379 . S
C2034 H2018 0.931 . S
C2034 C2028 1.383 . S
C2034 C2033 1.379 . S
H2035 C2029 0.959 . S
H2036 C2029 0.961 . S
H2037 C2029 0.960 . S
H2038 C2030 0.930 . S
H2039 C2031 0.929 . S
H2040 C2048 0.929 . S
H2041 C2050 0.930 . S
H2042 C2052 0.930 . S
H2043 C2055 0.929 . S
H2044 C2058 0.930 . S
H2045 C2060 0.960 . S
H2046 C2060 0.960 . S
H2047 C2060 0.960 . S
C2048 H2040 0.929 . S
C2048 C2049 1.377 . S
C2048 C2050 1.384 . S
C2049 C2048 1.377 . S
C2049 C2055 1.390 . S
C2050 H2041 0.930 . S
C2050 C2048 1.384 . S
C2050 C2051 1.372 . S
C2051 C2050 1.372 . S
C2051 C2052 1.400 . S
C2051 C2056 1.490 . S
C2052 H2042 0.930 . S
C2052 C2051 1.400 . S
C2052 C2055 1.386 . S
H2053 C2069 0.930 . S
H2054 C2070 0.931 . S
C2055 H2043 0.929 . S
C2055 C2049 1.390 . S
C2055 C2052 1.386 . S
C2056 C2051 1.490 . S
C2056 C2058 1.395 . S
C2056 C2059 1.403 . S
H2057 C2063 0.930 . S
C2058 H2044 0.930 . S
C2058 C2056 1.395 . S
C2058 C2061 1.403 . S
C2059 C2056 1.403 . S
C2059 C2060 1.524 . S
C2059 C2063 1.400 . S
C2060 H2045 0.960 . S
C2060 H2046 0.960 . S
C2060 H2047 0.960 . S
C2060 C2059 1.524 . S
C2061 C2058 1.403 . S
C2061 C2062 1.392 . S
C2061 C2065 1.495 . S
C2062 C2061 1.392 . S
C2062 C2063 1.385 . S
C2062 C2064 1.478 . S
C2063 H2057 0.930 . S
C2063 C2059 1.400 . S
C2063 C2062 1.385 . S
C2064 C2062 1.478 . S
C2064 C2066 1.381 . S
C2064 C2070 1.383 . S
C2065 C2061 1.495 . S
C2065 H2071 0.959 . S
C2065 H2072 0.961 . S
C2065 H2073 0.960 . S
C2066 C2064 1.381 . S
C2066 C2067 1.394 . S
C2066 H2074 0.930 . S
C2067 C2066 1.394 . S
C2067 C2068 1.383 . S
C2067 H2075 0.929 . S
C2068 C2067 1.383 . S
C2068 C2069 1.377 . S
C2069 H2053 0.930 . S
C2069 C2068 1.377 . S
C2069 C2070 1.379 . S
C2070 H2054 0.931 . S
C2070 C2064 1.383 . S
C2070 C2069 1.379 . S
H2071 C2065 0.959 . S
H2072 C2065 0.961 . S
H2073 C2065 0.960 . S
H2074 C2066 0.930 . S
H2075 C2067 0.929 . S
H2076 C2084 0.929 . S
H2077 C2086 0.930 . S
H2078 C2088 0.930 . S
H2079 C2091 0.929 . S
H2080 C2094 0.930 . S
H2081 C2096 0.960 . S
H2082 C2096 0.960 . S
H2083 C2096 0.960 . S
C2084 H2076 0.929 . S
C2084 C2085 1.377 . S
C2084 C2086 1.384 . S
C2085 C2084 1.377 . S
C2085 C2091 1.390 . S
C2086 H2077 0.930 . S
C2086 C2084 1.384 . S
C2086 C2087 1.372 . S
C2087 C2086 1.372 . S
C2087 C2088 1.400 . S
C2087 C2092 1.490 . S
C2088 H2078 0.930 . S
C2088 C2087 1.400 . S
C2088 C2091 1.386 . S
H2089 C2105 0.930 . S
H2090 C2106 0.931 . S
C2091 H2079 0.929 . S
C2091 C2085 1.390 . S
C2091 C2088 1.386 . S
C2092 C2087 1.490 . S
C2092 C2094 1.395 . S
C2092 C2095 1.403 . S
H2093 C2099 0.930 . S
C2094 H2080 0.930 . S
C2094 C2092 1.395 . S
C2094 C2097 1.403 . S
C2095 C2092 1.403 . S
C2095 C2096 1.524 . S
C2095 C2099 1.400 . S
C2096 H2081 0.960 . S
C2096 H2082 0.960 . S
C2096 H2083 0.960 . S
C2096 C2095 1.524 . S
C2097 C2094 1.403 . S
C2097 C2098 1.392 . S
C2097 C2101 1.495 . S
C2098 C2097 1.392 . S
C2098 C2099 1.385 . S
C2098 C2100 1.478 . S
C2099 H2093 0.930 . S
C2099 C2095 1.400 . S
C2099 C2098 1.385 . S
C2100 C2098 1.478 . S
C2100 C2102 1.381 . S
C2100 C2106 1.383 . S
C2101 C2097 1.495 . S
C2101 H2107 0.959 . S
C2101 H2108 0.961 . S
C2101 H2109 0.960 . S
C2102 C2100 1.381 . S
C2102 C2103 1.394 . S
C2102 H2110 0.930 . S
C2103 C2102 1.394 . S
C2103 C2104 1.383 . S
C2103 H2111 0.929 . S
C2104 C2103 1.383 . S
C2104 C2105 1.377 . S
C2105 H2089 0.930 . S
C2105 C2104 1.377 . S
C2105 C2106 1.379 . S
C2106 H2090 0.931 . S
C2106 C2100 1.383 . S
C2106 C2105 1.379 . S
H2107 C2101 0.959 . S
H2108 C2101 0.961 . S
H2109 C2101 0.960 . S
H2110 C2102 0.930 . S
H2111 C2103 0.929 . S
H2112 C2120 0.929 . S
H2113 C2122 0.930 . S
H2114 C2124 0.930 . S
H2115 C2127 0.929 . S
H2116 C2130 0.930 . S
H2117 C2132 0.960 . S
H2118 C2132 0.960 . S
H2119 C2132 0.960 . S
C2120 H2112 0.929 . S
C2120 C2121 1.377 . S
C2120 C2122 1.384 . S
C2121 C2120 1.377 . S
C2121 C2127 1.390 . S
C2122 H2113 0.930 . S
C2122 C2120 1.384 . S
C2122 C2123 1.372 . S
C2123 C2122 1.372 . S
C2123 C2124 1.400 . S
C2123 C2128 1.490 . S
C2124 H2114 0.930 . S
C2124 C2123 1.400 . S
C2124 C2127 1.386 . S
H2125 C2141 0.930 . S
H2126 C2142 0.931 . S
C2127 H2115 0.929 . S
C2127 C2121 1.390 . S
C2127 C2124 1.386 . S
C2128 C2123 1.490 . S
C2128 C2130 1.395 . S
C2128 C2131 1.403 . S
H2129 C2135 0.930 . S
C2130 H2116 0.930 . S
C2130 C2128 1.395 . S
C2130 C2133 1.403 . S
C2131 C2128 1.403 . S
C2131 C2132 1.524 . S
C2131 C2135 1.400 . S
C2132 H2117 0.960 . S
C2132 H2118 0.960 . S
C2132 H2119 0.960 . S
C2132 C2131 1.524 . S
C2133 C2130 1.403 . S
C2133 C2134 1.392 . S
C2133 C2137 1.495 . S
C2134 C2133 1.392 . S
C2134 C2135 1.385 . S
C2134 C2136 1.478 . S
C2135 H2129 0.930 . S
C2135 C2131 1.400 . S
C2135 C2134 1.385 . S
C2136 C2134 1.478 . S
C2136 C2138 1.381 . S
C2136 C2142 1.383 . S
C2137 C2133 1.495 . S
C2137 H2143 0.959 . S
C2137 H2144 0.961 . S
C2137 H2145 0.960 . S
C2138 C2136 1.381 . S
C2138 C2139 1.394 . S
C2138 H2146 0.930 . S
C2139 C2138 1.394 . S
C2139 C2140 1.383 . S
C2139 H2147 0.929 . S
C2140 C2139 1.383 . S
C2140 C2141 1.377 . S
C2141 H2125 0.930 . S
C2141 C2140 1.377 . S
C2141 C2142 1.379 . S
C2142 H2126 0.931 . S
C2142 C2136 1.383 . S
C2142 C2141 1.379 . S
H2143 C2137 0.959 . S
H2144 C2137 0.961 . S
H2145 C2137 0.960 . S
H2146 C2138 0.930 . S
H2147 C2139 0.929 . S
H2148 C2156 0.929 . S
H2149 C2158 0.930 . S
H2150 C2160 0.930 . S
H2151 C2163 0.929 . S
H2152 C2166 0.930 . S
H2153 C2168 0.960 . S
H2154 C2168 0.960 . S
H2155 C2168 0.960 . S
C2156 H2148 0.929 . S
C2156 C2157 1.377 . S
C2156 C2158 1.384 . S
C2157 C2156 1.377 . S
C2157 C2163 1.390 . S
C2158 H2149 0.930 . S
C2158 C2156 1.384 . S
C2158 C2159 1.372 . S
C2159 C2158 1.372 . S
C2159 C2160 1.400 . S
C2159 C2164 1.490 . S
C2160 H2150 0.930 . S
C2160 C2159 1.400 . S
C2160 C2163 1.386 . S
H2161 C2177 0.930 . S
H2162 C2178 0.931 . S
C2163 H2151 0.929 . S
C2163 C2157 1.390 . S
C2163 C2160 1.386 . S
C2164 C2159 1.490 . S
C2164 C2166 1.395 . S
C2164 C2167 1.403 . S
H2165 C2171 0.930 . S
C2166 H2152 0.930 . S
C2166 C2164 1.395 . S
C2166 C2169 1.403 . S
C2167 C2164 1.403 . S
C2167 C2168 1.524 . S
C2167 C2171 1.400 . S
C2168 H2153 0.960 . S
C2168 H2154 0.960 . S
C2168 H2155 0.960 . S
C2168 C2167 1.524 . S
C2169 C2166 1.403 . S
C2169 C2170 1.392 . S
C2169 C2173 1.495 . S
C2170 C2169 1.392 . S
C2170 C2171 1.385 . S
C2170 C2172 1.478 . S
C2171 H2165 0.930 . S
C2171 C2167 1.400 . S
C2171 C2170 1.385 . S
C2172 C2170 1.478 . S
C2172 C2174 1.381 . S
C2172 C2178 1.383 . S
C2173 C2169 1.495 . S
C2173 H2179 0.959 . S
C2173 H2180 0.961 . S
C2173 H2181 0.960 . S
C2174 C2172 1.381 . S
C2174 C2175 1.394 . S
C2174 H2182 0.930 . S
C2175 C2174 1.394 . S
C2175 C2176 1.383 . S
C2175 H2183 0.929 . S
C2176 C2175 1.383 . S
C2176 C2177 1.377 . S
C2177 H2161 0.930 . S
C2177 C2176 1.377 . S
C2177 C2178 1.379 . S
C2178 H2162 0.931 . S
C2178 C2172 1.383 . S
C2178 C2177 1.379 . S
H2179 C2173 0.959 . S
H2180 C2173 0.961 . S
H2181 C2173 0.960 . S
H2182 C2174 0.930 . S
H2183 C2175 0.929 . S
H2184 C2192 0.929 . S
H2185 C2194 0.930 . S
H2186 C2196 0.930 . S
H2187 C2199 0.929 . S
H2188 C2202 0.930 . S
H2189 C2204 0.960 . S
H2190 C2204 0.960 . S
H2191 C2204 0.960 . S
C2192 H2184 0.929 . S
C2192 C2193 1.377 . S
C2192 C2194 1.384 . S
C2193 C2192 1.377 . S
C2193 C2199 1.390 . S
C2194 H2185 0.930 . S
C2194 C2192 1.384 . S
C2194 C2195 1.372 . S
C2195 C2194 1.372 . S
C2195 C2196 1.400 . S
C2195 C2200 1.490 . S
C2196 H2186 0.930 . S
C2196 C2195 1.400 . S
C2196 C2199 1.386 . S
H2197 C2213 0.930 . S
H2198 C2214 0.931 . S
C2199 H2187 0.929 . S
C2199 C2193 1.390 . S
C2199 C2196 1.386 . S
C2200 C2195 1.490 . S
C2200 C2202 1.395 . S
C2200 C2203 1.403 . S
H2201 C2207 0.930 . S
C2202 H2188 0.930 . S
C2202 C2200 1.395 . S
C2202 C2205 1.403 . S
C2203 C2200 1.403 . S
C2203 C2204 1.524 . S
C2203 C2207 1.400 . S
C2204 H2189 0.960 . S
C2204 H2190 0.960 . S
C2204 H2191 0.960 . S
C2204 C2203 1.524 . S
C2205 C2202 1.403 . S
C2205 C2206 1.392 . S
C2205 C2209 1.495 . S
C2206 C2205 1.392 . S
C2206 C2207 1.385 . S
C2206 C2208 1.478 . S
C2207 H2201 0.930 . S
C2207 C2203 1.400 . S
C2207 C2206 1.385 . S
C2208 C2206 1.478 . S
C2208 C2210 1.381 . S
C2208 C2214 1.383 . S
C2209 C2205 1.495 . S
C2209 H2215 0.959 . S
C2209 H2216 0.961 . S
C2209 H2217 0.960 . S
C2210 C2208 1.381 . S
C2210 C2211 1.394 . S
C2210 H2218 0.930 . S
C2211 C2210 1.394 . S
C2211 C2212 1.383 . S
C2211 H2219 0.929 . S
C2212 C2211 1.383 . S
C2212 C2213 1.377 . S
C2213 H2197 0.930 . S
C2213 C2212 1.377 . S
C2213 C2214 1.379 . S
C2214 H2198 0.931 . S
C2214 C2208 1.383 . S
C2214 C2213 1.379 . S
H2215 C2209 0.959 . S
H2216 C2209 0.961 . S
H2217 C2209 0.960 . S
H2218 C2210 0.930 . S
H2219 C2211 0.929 . S
H2220 C2228 0.929 . S
H2221 C2230 0.930 . S
H2222 C2232 0.930 . S
H2223 C2235 0.929 . S
H2224 C2238 0.930 . S
H2225 C2240 0.960 . S
H2226 C2240 0.960 . S
H2227 C2240 0.960 . S
C2228 H2220 0.929 . S
C2228 C2229 1.377 . S
C2228 C2230 1.384 . S
C2229 C2228 1.377 . S
C2229 C2235 1.390 . S
C2230 H2221 0.930 . S
C2230 C2228 1.384 . S
C2230 C2231 1.372 . S
C2231 C2230 1.372 . S
C2231 C2232 1.400 . S
C2231 C2236 1.490 . S
C2232 H2222 0.930 . S
C2232 C2231 1.400 . S
C2232 C2235 1.386 . S
H2233 C2249 0.930 . S
H2234 C2250 0.931 . S
C2235 H2223 0.929 . S
C2235 C2229 1.390 . S
C2235 C2232 1.386 . S
C2236 C2231 1.490 . S
C2236 C2238 1.395 . S
C2236 C2239 1.403 . S
H2237 C2243 0.930 . S
C2238 H2224 0.930 . S
C2238 C2236 1.395 . S
C2238 C2241 1.403 . S
C2239 C2236 1.403 . S
C2239 C2240 1.524 . S
C2239 C2243 1.400 . S
C2240 H2225 0.960 . S
C2240 H2226 0.960 . S
C2240 H2227 0.960 . S
C2240 C2239 1.524 . S
C2241 C2238 1.403 . S
C2241 C2242 1.392 . S
C2241 C2245 1.495 . S
C2242 C2241 1.392 . S
C2242 C2243 1.385 . S
C2242 C2244 1.478 . S
C2243 H2237 0.930 . S
C2243 C2239 1.400 . S
C2243 C2242 1.385 . S
C2244 C2242 1.478 . S
C2244 C2246 1.381 . S
C2244 C2250 1.383 . S
C2245 C2241 1.495 . S
C2245 H2251 0.959 . S
C2245 H2252 0.961 . S
C2245 H2253 0.960 . S
C2246 C2244 1.381 . S
C2246 C2247 1.394 . S
C2246 H2254 0.930 . S
C2247 C2246 1.394 . S
C2247 C2248 1.383 . S
C2247 H2255 0.929 . S
C2248 C2247 1.383 . S
C2248 C2249 1.377 . S
C2249 H2233 0.930 . S
C2249 C2248 1.377 . S
C2249 C2250 1.379 . S
C2250 H2234 0.931 . S
C2250 C2244 1.383 . S
C2250 C2249 1.379 . S
H2251 C2245 0.959 . S
H2252 C2245 0.961 . S
H2253 C2245 0.960 . S
H2254 C2246 0.930 . S
H2255 C2247 0.929 . S
H2256 C2264 0.929 . S
H2257 C2266 0.930 . S
H2258 C2268 0.930 . S
H2259 C2271 0.929 . S
H2260 C2274 0.930 . S
H2261 C2276 0.960 . S
H2262 C2276 0.960 . S
H2263 C2276 0.960 . S
C2264 H2256 0.929 . S
C2264 C2265 1.377 . S
C2264 C2266 1.384 . S
C2265 C2264 1.377 . S
C2265 C2271 1.390 . S
C2266 H2257 0.930 . S
C2266 C2264 1.384 . S
C2266 C2267 1.372 . S
C2267 C2266 1.372 . S
C2267 C2268 1.400 . S
C2267 C2272 1.490 . S
C2268 H2258 0.930 . S
C2268 C2267 1.400 . S
C2268 C2271 1.386 . S
H2269 C2285 0.930 . S
H2270 C2286 0.931 . S
C2271 H2259 0.929 . S
C2271 C2265 1.390 . S
C2271 C2268 1.386 . S
C2272 C2267 1.490 . S
C2272 C2274 1.395 . S
C2272 C2275 1.403 . S
H2273 C2279 0.930 . S
C2274 H2260 0.930 . S
C2274 C2272 1.395 . S
C2274 C2277 1.403 . S
C2275 C2272 1.403 . S
C2275 C2276 1.524 . S
C2275 C2279 1.400 . S
C2276 H2261 0.960 . S
C2276 H2262 0.960 . S
C2276 H2263 0.960 . S
C2276 C2275 1.524 . S
C2277 C2274 1.403 . S
C2277 C2278 1.392 . S
C2277 C2281 1.495 . S
C2278 C2277 1.392 . S
C2278 C2279 1.385 . S
C2278 C2280 1.478 . S
C2279 H2273 0.930 . S
C2279 C2275 1.400 . S
C2279 C2278 1.385 . S
C2280 C2278 1.478 . S
C2280 C2282 1.381 . S
C2280 C2286 1.383 . S
C2281 C2277 1.495 . S
C2281 H2287 0.959 . S
C2281 H2288 0.961 . S
C2281 H2289 0.960 . S
C2282 C2280 1.381 . S
C2282 C2283 1.394 . S
C2282 H2290 0.930 . S
C2283 C2282 1.394 . S
C2283 C2284 1.383 . S
C2283 H2291 0.929 . S
C2284 C2283 1.383 . S
C2284 C2285 1.377 . S
C2285 H2269 0.930 . S
C2285 C2284 1.377 . S
C2285 C2286 1.379 . S
C2286 H2270 0.931 . S
C2286 C2280 1.383 . S
C2286 C2285 1.379 . S
H2287 C2281 0.959 . S
H2288 C2281 0.961 . S
H2289 C2281 0.960 . S
H2290 C2282 0.930 . S
H2291 C2283 0.929 . S
H2292 C2300 0.929 . S
H2293 C2302 0.930 . S
H2294 C2304 0.930 . S
H2295 C2307 0.929 . S
H2296 C2310 0.930 . S
H2297 C2312 0.960 . S
H2298 C2312 0.960 . S
H2299 C2312 0.960 . S
C2300 H2292 0.929 . S
C2300 C2301 1.377 . S
C2300 C2302 1.384 . S
C2301 C2300 1.377 . S
C2301 C2307 1.390 . S
C2302 H2293 0.930 . S
C2302 C2300 1.384 . S
C2302 C2303 1.372 . S
C2303 C2302 1.372 . S
C2303 C2304 1.400 . S
C2303 C2308 1.490 . S
C2304 H2294 0.930 . S
C2304 C2303 1.400 . S
C2304 C2307 1.386 . S
H2305 C2321 0.930 . S
H2306 C2322 0.931 . S
C2307 H2295 0.929 . S
C2307 C2301 1.390 . S
C2307 C2304 1.386 . S
C2308 C2303 1.490 . S
C2308 C2310 1.395 . S
C2308 C2311 1.403 . S
H2309 C2315 0.930 . S
C2310 H2296 0.930 . S
C2310 C2308 1.395 . S
C2310 C2313 1.403 . S
C2311 C2308 1.403 . S
C2311 C2312 1.524 . S
C2311 C2315 1.400 . S
C2312 H2297 0.960 . S
C2312 H2298 0.960 . S
C2312 H2299 0.960 . S
C2312 C2311 1.524 . S
C2313 C2310 1.403 . S
C2313 C2314 1.392 . S
C2313 C2317 1.495 . S
C2314 C2313 1.392 . S
C2314 C2315 1.385 . S
C2314 C2316 1.478 . S
C2315 H2309 0.930 . S
C2315 C2311 1.400 . S
C2315 C2314 1.385 . S
C2316 C2314 1.478 . S
C2316 C2318 1.381 . S
C2316 C2322 1.383 . S
C2317 C2313 1.495 . S
C2317 H2323 0.959 . S
C2317 H2324 0.961 . S
C2317 H2325 0.960 . S
C2318 C2316 1.381 . S
C2318 C2319 1.394 . S
C2318 H2326 0.930 . S
C2319 C2318 1.394 . S
C2319 C2320 1.383 . S
C2319 H2327 0.929 . S
C2320 C2319 1.383 . S
C2320 C2321 1.377 . S
C2321 H2305 0.930 . S
C2321 C2320 1.377 . S
C2321 C2322 1.379 . S
C2322 H2306 0.931 . S
C2322 C2316 1.383 . S
C2322 C2321 1.379 . S
H2323 C2317 0.959 . S
H2324 C2317 0.961 . S
H2325 C2317 0.960 . S
H2326 C2318 0.930 . S
H2327 C2319 0.929 . S
H2328 C2336 0.929 . S
H2329 C2338 0.930 . S
H2330 C2340 0.930 . S
H2331 C2343 0.929 . S
H2332 C2346 0.930 . S
H2333 C2348 0.960 . S
H2334 C2348 0.960 . S
H2335 C2348 0.960 . S
C2336 H2328 0.929 . S
C2336 C2337 1.377 . S
C2336 C2338 1.384 . S
C2337 C2336 1.377 . S
C2337 C2343 1.390 . S
C2338 H2329 0.930 . S
C2338 C2336 1.384 . S
C2338 C2339 1.372 . S
C2339 C2338 1.372 . S
C2339 C2340 1.400 . S
C2339 C2344 1.490 . S
C2340 H2330 0.930 . S
C2340 C2339 1.400 . S
C2340 C2343 1.386 . S
H2341 C2357 0.930 . S
H2342 C2358 0.931 . S
C2343 H2331 0.929 . S
C2343 C2337 1.390 . S
C2343 C2340 1.386 . S
C2344 C2339 1.490 . S
C2344 C2346 1.395 . S
C2344 C2347 1.403 . S
H2345 C2351 0.930 . S
C2346 H2332 0.930 . S
C2346 C2344 1.395 . S
C2346 C2349 1.403 . S
C2347 C2344 1.403 . S
C2347 C2348 1.524 . S
C2347 C2351 1.400 . S
C2348 H2333 0.960 . S
C2348 H2334 0.960 . S
C2348 H2335 0.960 . S
C2348 C2347 1.524 . S
C2349 C2346 1.403 . S
C2349 C2350 1.392 . S
C2349 C2353 1.495 . S
C2350 C2349 1.392 . S
C2350 C2351 1.385 . S
C2350 C2352 1.478 . S
C2351 H2345 0.930 . S
C2351 C2347 1.400 . S
C2351 C2350 1.385 . S
C2352 C2350 1.478 . S
C2352 C2354 1.381 . S
C2352 C2358 1.383 . S
C2353 C2349 1.495 . S
C2353 H2359 0.959 . S
C2353 H2360 0.961 . S
C2353 H2361 0.960 . S
C2354 C2352 1.381 . S
C2354 C2355 1.394 . S
C2354 H2362 0.930 . S
C2355 C2354 1.394 . S
C2355 C2356 1.383 . S
C2355 H2363 0.929 . S
C2356 C2355 1.383 . S
C2356 C2357 1.377 . S
C2357 H2341 0.930 . S
C2357 C2356 1.377 . S
C2357 C2358 1.379 . S
C2358 H2342 0.931 . S
C2358 C2352 1.383 . S
C2358 C2357 1.379 . S
H2359 C2353 0.959 . S
H2360 C2353 0.961 . S
H2361 C2353 0.960 . S
H2362 C2354 0.930 . S
H2363 C2355 0.929 . S
H2364 C2372 0.929 . S
H2365 C2374 0.930 . S
H2366 C2376 0.930 . S
H2367 C2379 0.929 . S
H2368 C2382 0.930 . S
H2369 C2384 0.960 . S
H2370 C2384 0.960 . S
H2371 C2384 0.960 . S
C2372 H2364 0.929 . S
C2372 C2373 1.377 . S
C2372 C2374 1.384 . S
C2373 C2372 1.377 . S
C2373 C2379 1.390 . S
C2374 H2365 0.930 . S
C2374 C2372 1.384 . S
C2374 C2375 1.372 . S
C2375 C2374 1.372 . S
C2375 C2376 1.400 . S
C2375 C2380 1.490 . S
C2376 H2366 0.930 . S
C2376 C2375 1.400 . S
C2376 C2379 1.386 . S
H2377 C2393 0.930 . S
H2378 C2394 0.931 . S
C2379 H2367 0.929 . S
C2379 C2373 1.390 . S
C2379 C2376 1.386 . S
C2380 C2375 1.490 . S
C2380 C2382 1.395 . S
C2380 C2383 1.403 . S
H2381 C2387 0.930 . S
C2382 H2368 0.930 . S
C2382 C2380 1.395 . S
C2382 C2385 1.403 . S
C2383 C2380 1.403 . S
C2383 C2384 1.524 . S
C2383 C2387 1.400 . S
C2384 H2369 0.960 . S
C2384 H2370 0.960 . S
C2384 H2371 0.960 . S
C2384 C2383 1.524 . S
C2385 C2382 1.403 . S
C2385 C2386 1.392 . S
C2385 C2389 1.495 . S
C2386 C2385 1.392 . S
C2386 C2387 1.385 . S
C2386 C2388 1.478 . S
C2387 H2381 0.930 . S
C2387 C2383 1.400 . S
C2387 C2386 1.385 . S
C2388 C2386 1.478 . S
C2388 C2390 1.381 . S
C2388 C2394 1.383 . S
C2389 C2385 1.495 . S
C2389 H2395 0.959 . S
C2389 H2396 0.961 . S
C2389 H2397 0.960 . S
C2390 C2388 1.381 . S
C2390 C2391 1.394 . S
C2390 H2398 0.930 . S
C2391 C2390 1.394 . S
C2391 C2392 1.383 . S
C2391 H2399 0.929 . S
C2392 C2391 1.383 . S
C2392 C2393 1.377 . S
C2393 H2377 0.930 . S
C2393 C2392 1.377 . S
C2393 C2394 1.379 . S
C2394 H2378 0.931 . S
C2394 C2388 1.383 . S
C2394 C2393 1.379 . S
H2395 C2389 0.959 . S
H2396 C2389 0.961 . S
H2397 C2389 0.960 . S
H2398 C2390 0.930 . S
H2399 C2391 0.929 . S
H2400 C2408 0.929 . S
H2401 C2410 0.930 . S
H2402 C2412 0.930 . S
H2403 C2415 0.929 . S
H2404 C2418 0.930 . S
H2405 C2420 0.960 . S
H2406 C2420 0.960 . S
H2407 C2420 0.960 . S
C2408 H2400 0.929 . S
C2408 C2409 1.377 . S
C2408 C2410 1.384 . S
C2409 C2408 1.377 . S
C2409 C2415 1.390 . S
C2410 H2401 0.930 . S
C2410 C2408 1.384 . S
C2410 C2411 1.372 . S
C2411 C2410 1.372 . S
C2411 C2412 1.400 . S
C2411 C2416 1.490 . S
C2412 H2402 0.930 . S
C2412 C2411 1.400 . S
C2412 C2415 1.386 . S
H2413 C2429 0.930 . S
H2414 C2430 0.931 . S
C2415 H2403 0.929 . S
C2415 C2409 1.390 . S
C2415 C2412 1.386 . S
C2416 C2411 1.490 . S
C2416 C2418 1.395 . S
C2416 C2419 1.403 . S
H2417 C2423 0.930 . S
C2418 H2404 0.930 . S
C2418 C2416 1.395 . S
C2418 C2421 1.403 . S
C2419 C2416 1.403 . S
C2419 C2420 1.524 . S
C2419 C2423 1.400 . S
C2420 H2405 0.960 . S
C2420 H2406 0.960 . S
C2420 H2407 0.960 . S
C2420 C2419 1.524 . S
C2421 C2418 1.403 . S
C2421 C2422 1.392 . S
C2421 C2425 1.495 . S
C2422 C2421 1.392 . S
C2422 C2423 1.385 . S
C2422 C2424 1.478 . S
C2423 H2417 0.930 . S
C2423 C2419 1.400 . S
C2423 C2422 1.385 . S
C2424 C2422 1.478 . S
C2424 C2426 1.381 . S
C2424 C2430 1.383 . S
C2425 C2421 1.495 . S
C2425 H2431 0.959 . S
C2425 H2432 0.961 . S
C2425 H2433 0.960 . S
C2426 C2424 1.381 . S
C2426 C2427 1.394 . S
C2426 H2434 0.930 . S
C2427 C2426 1.394 . S
C2427 C2428 1.383 . S
C2427 H2435 0.929 . S
C2428 C2427 1.383 . S
C2428 C2429 1.377 . S
C2429 H2413 0.930 . S
C2429 C2428 1.377 . S
C2429 C2430 1.379 . S
C2430 H2414 0.931 . S
C2430 C2424 1.383 . S
C2430 C2429 1.379 . S
H2431 C2425 0.959 . S
H2432 C2425 0.961 . S
H2433 C2425 0.960 . S
H2434 C2426 0.930 . S
H2435 C2427 0.929 . S
H2436 C2444 0.929 . S
H2437 C2446 0.930 . S
H2438 C2448 0.930 . S
H2439 C2451 0.929 . S
H2440 C2454 0.930 . S
H2441 C2456 0.960 . S
H2442 C2456 0.960 . S
H2443 C2456 0.960 . S
C2444 H2436 0.929 . S
C2444 C2445 1.377 . S
C2444 C2446 1.384 . S
C2445 C2444 1.377 . S
C2445 C2451 1.390 . S
C2446 H2437 0.930 . S
C2446 C2444 1.384 . S
C2446 C2447 1.372 . S
C2447 C2446 1.372 . S
C2447 C2448 1.400 . S
C2447 C2452 1.490 . S
C2448 H2438 0.930 . S
C2448 C2447 1.400 . S
C2448 C2451 1.386 . S
H2449 C2465 0.930 . S
H2450 C2466 0.931 . S
C2451 H2439 0.929 . S
C2451 C2445 1.390 . S
C2451 C2448 1.386 . S
C2452 C2447 1.490 . S
C2452 C2454 1.395 . S
C2452 C2455 1.403 . S
H2453 C2459 0.930 . S
C2454 H2440 0.930 . S
C2454 C2452 1.395 . S
C2454 C2457 1.403 . S
C2455 C2452 1.403 . S
C2455 C2456 1.524 . S
C2455 C2459 1.400 . S
C2456 H2441 0.960 . S
C2456 H2442 0.960 . S
C2456 H2443 0.960 . S
C2456 C2455 1.524 . S
C2457 C2454 1.403 . S
C2457 C2458 1.392 . S
C2457 C2461 1.495 . S
C2458 C2457 1.392 . S
C2458 C2459 1.385 . S
C2458 C2460 1.478 . S
C2459 H2453 0.930 . S
C2459 C2455 1.400 . S
C2459 C2458 1.385 . S
C2460 C2458 1.478 . S
C2460 C2462 1.381 . S
C2460 C2466 1.383 . S
C2461 C2457 1.495 . S
C2461 H2467 0.959 . S
C2461 H2468 0.961 . S
C2461 H2469 0.960 . S
C2462 C2460 1.381 . S
C2462 C2463 1.394 . S
C2462 H2470 0.930 . S
C2463 C2462 1.394 . S
C2463 C2464 1.383 . S
C2463 H2471 0.929 . S
C2464 C2463 1.383 . S
C2464 C2465 1.377 . S
C2465 H2449 0.930 . S
C2465 C2464 1.377 . S
C2465 C2466 1.379 . S
C2466 H2450 0.931 . S
C2466 C2460 1.383 . S
C2466 C2465 1.379 . S
H2467 C2461 0.959 . S
H2468 C2461 0.961 . S
H2469 C2461 0.960 . S
H2470 C2462 0.930 . S
H2471 C2463 0.929 . S
H2472 C2480 0.929 . S
H2473 C2482 0.930 . S
H2474 C2484 0.930 . S
H2475 C2487 0.929 . S
H2476 C2490 0.930 . S
H2477 C2492 0.960 . S
H2478 C2492 0.960 . S
H2479 C2492 0.960 . S
C2480 H2472 0.929 . S
C2480 C2481 1.377 . S
C2480 C2482 1.384 . S
C2481 C2480 1.377 . S
C2481 C2487 1.390 . S
C2482 H2473 0.930 . S
C2482 C2480 1.384 . S
C2482 C2483 1.372 . S
C2483 C2482 1.372 . S
C2483 C2484 1.400 . S
C2483 C2488 1.490 . S
C2484 H2474 0.930 . S
C2484 C2483 1.400 . S
C2484 C2487 1.386 . S
H2485 C2501 0.930 . S
H2486 C2502 0.931 . S
C2487 H2475 0.929 . S
C2487 C2481 1.390 . S
C2487 C2484 1.386 . S
C2488 C2483 1.490 . S
C2488 C2490 1.395 . S
C2488 C2491 1.403 . S
H2489 C2495 0.930 . S
C2490 H2476 0.930 . S
C2490 C2488 1.395 . S
C2490 C2493 1.403 . S
C2491 C2488 1.403 . S
C2491 C2492 1.524 . S
C2491 C2495 1.400 . S
C2492 H2477 0.960 . S
C2492 H2478 0.960 . S
C2492 H2479 0.960 . S
C2492 C2491 1.524 . S
C2493 C2490 1.403 . S
C2493 C2494 1.392 . S
C2493 C2497 1.495 . S
C2494 C2493 1.392 . S
C2494 C2495 1.385 . S
C2494 C2496 1.478 . S
C2495 H2489 0.930 . S
C2495 C2491 1.400 . S
C2495 C2494 1.385 . S
C2496 C2494 1.478 . S
C2496 C2498 1.381 . S
C2496 C2502 1.383 . S
C2497 C2493 1.495 . S
C2497 H2503 0.959 . S
C2497 H2504 0.961 . S
C2497 H2505 0.960 . S
C2498 C2496 1.381 . S
C2498 C2499 1.394 . S
C2498 H2506 0.930 . S
C2499 C2498 1.394 . S
C2499 C2500 1.383 . S
C2499 H2507 0.929 . S
C2500 C2499 1.383 . S
C2500 C2501 1.377 . S
C2501 H2485 0.930 . S
C2501 C2500 1.377 . S
C2501 C2502 1.379 . S
C2502 H2486 0.931 . S
C2502 C2496 1.383 . S
C2502 C2501 1.379 . S
H2503 C2497 0.959 . S
H2504 C2497 0.961 . S
H2505 C2497 0.960 . S
H2506 C2498 0.930 . S
H2507 C2499 0.929 . S
H2508 C2516 0.929 . S
H2509 C2518 0.930 . S
H2510 C2520 0.930 . S
H2511 C2523 0.929 . S
H2512 C2526 0.930 . S
H2513 C2528 0.960 . S
H2514 C2528 0.960 . S
H2515 C2528 0.960 . S
C2516 H2508 0.929 . S
C2516 C2517 1.377 . S
C2516 C2518 1.384 . S
C2517 C2516 1.377 . S
C2517 C2523 1.390 . S
C2518 H2509 0.930 . S
C2518 C2516 1.384 . S
C2518 C2519 1.372 . S
C2519 C2518 1.372 . S
C2519 C2520 1.400 . S
C2519 C2524 1.490 . S
C2520 H2510 0.930 . S
C2520 C2519 1.400 . S
C2520 C2523 1.386 . S
H2521 C2537 0.930 . S
H2522 C2538 0.931 . S
C2523 H2511 0.929 . S
C2523 C2517 1.390 . S
C2523 C2520 1.386 . S
C2524 C2519 1.490 . S
C2524 C2526 1.395 . S
C2524 C2527 1.403 . S
H2525 C2531 0.930 . S
C2526 H2512 0.930 . S
C2526 C2524 1.395 . S
C2526 C2529 1.403 . S
C2527 C2524 1.403 . S
C2527 C2528 1.524 . S
C2527 C2531 1.400 . S
C2528 H2513 0.960 . S
C2528 H2514 0.960 . S
C2528 H2515 0.960 . S
C2528 C2527 1.524 . S
C2529 C2526 1.403 . S
C2529 C2530 1.392 . S
C2529 C2533 1.495 . S
C2530 C2529 1.392 . S
C2530 C2531 1.385 . S
C2530 C2532 1.478 . S
C2531 H2525 0.930 . S
C2531 C2527 1.400 . S
C2531 C2530 1.385 . S
C2532 C2530 1.478 . S
C2532 C2534 1.381 . S
C2532 C2538 1.383 . S
C2533 C2529 1.495 . S
C2533 H2539 0.959 . S
C2533 H2540 0.961 . S
C2533 H2541 0.960 . S
C2534 C2532 1.381 . S
C2534 C2535 1.394 . S
C2534 H2542 0.930 . S
C2535 C2534 1.394 . S
C2535 C2536 1.383 . S
C2535 H2543 0.929 . S
C2536 C2535 1.383 . S
C2536 C2537 1.377 . S
C2537 H2521 0.930 . S
C2537 C2536 1.377 . S
C2537 C2538 1.379 . S
C2538 H2522 0.931 . S
C2538 C2532 1.383 . S
C2538 C2537 1.379 . S
H2539 C2533 0.959 . S
H2540 C2533 0.961 . S
H2541 C2533 0.960 . S
H2542 C2534 0.930 . S
H2543 C2535 0.929 . S
H2544 C2552 0.929 . S
H2545 C2554 0.930 . S
H2546 C2556 0.930 . S
H2547 C2559 0.929 . S
H2548 C2562 0.930 . S
H2549 C2564 0.960 . S
H2550 C2564 0.960 . S
H2551 C2564 0.960 . S
C2552 H2544 0.929 . S
C2552 C2553 1.377 . S
C2552 C2554 1.384 . S
C2553 C2552 1.377 . S
C2553 C2559 1.390 . S
C2554 H2545 0.930 . S
C2554 C2552 1.384 . S
C2554 C2555 1.372 . S
C2555 C2554 1.372 . S
C2555 C2556 1.400 . S
C2555 C2560 1.490 . S
C2556 H2546 0.930 . S
C2556 C2555 1.400 . S
C2556 C2559 1.386 . S
H2557 C2573 0.930 . S
H2558 C2574 0.931 . S
C2559 H2547 0.929 . S
C2559 C2553 1.390 . S
C2559 C2556 1.386 . S
C2560 C2555 1.490 . S
C2560 C2562 1.395 . S
C2560 C2563 1.403 . S
H2561 C2567 0.930 . S
C2562 H2548 0.930 . S
C2562 C2560 1.395 . S
C2562 C2565 1.403 . S
C2563 C2560 1.403 . S
C2563 C2564 1.524 . S
C2563 C2567 1.400 . S
C2564 H2549 0.960 . S
C2564 H2550 0.960 . S
C2564 H2551 0.960 . S
C2564 C2563 1.524 . S
C2565 C2562 1.403 . S
C2565 C2566 1.392 . S
C2565 C2569 1.495 . S
C2566 C2565 1.392 . S
C2566 C2567 1.385 . S
C2566 C2568 1.478 . S
C2567 H2561 0.930 . S
C2567 C2563 1.400 . S
C2567 C2566 1.385 . S
C2568 C2566 1.478 . S
C2568 C2570 1.381 . S
C2568 C2574 1.383 . S
C2569 C2565 1.495 . S
C2569 H2575 0.959 . S
C2569 H2576 0.961 . S
C2569 H2577 0.960 . S
C2570 C2568 1.381 . S
C2570 C2571 1.394 . S
C2570 H2578 0.930 . S
C2571 C2570 1.394 . S
C2571 C2572 1.383 . S
C2571 H2579 0.929 . S
C2572 C2571 1.383 . S
C2572 C2573 1.377 . S
C2573 H2557 0.930 . S
C2573 C2572 1.377 . S
C2573 C2574 1.379 . S
C2574 H2558 0.931 . S
C2574 C2568 1.383 . S
C2574 C2573 1.379 . S
H2575 C2569 0.959 . S
H2576 C2569 0.961 . S
H2577 C2569 0.960 . S
H2578 C2570 0.930 . S
H2579 C2571 0.929 . S
H2580 C2588 0.929 . S
H2581 C2590 0.930 . S
H2582 C2592 0.930 . S
H2583 C2595 0.929 . S
H2584 C2598 0.930 . S
H2585 C2600 0.960 . S
H2586 C2600 0.960 . S
H2587 C2600 0.960 . S
C2588 H2580 0.929 . S
C2588 C2589 1.377 . S
C2588 C2590 1.384 . S
C2589 C2588 1.377 . S
C2589 C2595 1.390 . S
C2590 H2581 0.930 . S
C2590 C2588 1.384 . S
C2590 C2591 1.372 . S
C2591 C2590 1.372 . S
C2591 C2592 1.400 . S
C2591 C2596 1.490 . S
C2592 H2582 0.930 . S
C2592 C2591 1.400 . S
C2592 C2595 1.386 . S
H2593 C2609 0.930 . S
H2594 C2610 0.931 . S
C2595 H2583 0.929 . S
C2595 C2589 1.390 . S
C2595 C2592 1.386 . S
C2596 C2591 1.490 . S
C2596 C2598 1.395 . S
C2596 C2599 1.403 . S
H2597 C2603 0.930 . S
C2598 H2584 0.930 . S
C2598 C2596 1.395 . S
C2598 C2601 1.403 . S
C2599 C2596 1.403 . S
C2599 C2600 1.524 . S
C2599 C2603 1.400 . S
C2600 H2585 0.960 . S
C2600 H2586 0.960 . S
C2600 H2587 0.960 . S
C2600 C2599 1.524 . S
C2601 C2598 1.403 . S
C2601 C2602 1.392 . S
C2601 C2605 1.495 . S
C2602 C2601 1.392 . S
C2602 C2603 1.385 . S
C2602 C2604 1.478 . S
C2603 H2597 0.930 . S
C2603 C2599 1.400 . S
C2603 C2602 1.385 . S
C2604 C2602 1.478 . S
C2604 C2606 1.381 . S
C2604 C2610 1.383 . S
C2605 C2601 1.495 . S
C2605 H2611 0.959 . S
C2605 H2612 0.961 . S
C2605 H2613 0.960 . S
C2606 C2604 1.381 . S
C2606 C2607 1.394 . S
C2606 H2614 0.930 . S
C2607 C2606 1.394 . S
C2607 C2608 1.383 . S
C2607 H2615 0.929 . S
C2608 C2607 1.383 . S
C2608 C2609 1.377 . S
C2609 H2593 0.930 . S
C2609 C2608 1.377 . S
C2609 C2610 1.379 . S
C2610 H2594 0.931 . S
C2610 C2604 1.383 . S
C2610 C2609 1.379 . S
H2611 C2605 0.959 . S
H2612 C2605 0.961 . S
H2613 C2605 0.960 . S
H2614 C2606 0.930 . S
H2615 C2607 0.929 . S
H2616 C2624 0.929 . S
H2617 C2626 0.930 . S
H2618 C2628 0.930 . S
H2619 C2631 0.929 . S
H2620 C2634 0.930 . S
H2621 C2636 0.960 . S
H2622 C2636 0.960 . S
H2623 C2636 0.960 . S
C2624 H2616 0.929 . S
C2624 C2625 1.377 . S
C2624 C2626 1.384 . S
C2625 C2624 1.377 . S
C2625 C2631 1.390 . S
C2626 H2617 0.930 . S
C2626 C2624 1.384 . S
C2626 C2627 1.372 . S
C2627 C2626 1.372 . S
C2627 C2628 1.400 . S
C2627 C2632 1.490 . S
C2628 H2618 0.930 . S
C2628 C2627 1.400 . S
C2628 C2631 1.386 . S
H2629 C2645 0.930 . S
H2630 C2646 0.931 . S
C2631 H2619 0.929 . S
C2631 C2625 1.390 . S
C2631 C2628 1.386 . S
C2632 C2627 1.490 . S
C2632 C2634 1.395 . S
C2632 C2635 1.403 . S
H2633 C2639 0.930 . S
C2634 H2620 0.930 . S
C2634 C2632 1.395 . S
C2634 C2637 1.403 . S
C2635 C2632 1.403 . S
C2635 C2636 1.524 . S
C2635 C2639 1.400 . S
C2636 H2621 0.960 . S
C2636 H2622 0.960 . S
C2636 H2623 0.960 . S
C2636 C2635 1.524 . S
C2637 C2634 1.403 . S
C2637 C2638 1.392 . S
C2637 C2641 1.495 . S
C2638 C2637 1.392 . S
C2638 C2639 1.385 . S
C2638 C2640 1.478 . S
C2639 H2633 0.930 . S
C2639 C2635 1.400 . S
C2639 C2638 1.385 . S
C2640 C2638 1.478 . S
C2640 C2642 1.381 . S
C2640 C2646 1.383 . S
C2641 C2637 1.495 . S
C2641 H2647 0.959 . S
C2641 H2648 0.961 . S
C2641 H2649 0.960 . S
C2642 C2640 1.381 . S
C2642 C2643 1.394 . S
C2642 H2650 0.930 . S
C2643 C2642 1.394 . S
C2643 C2644 1.383 . S
C2643 H2651 0.929 . S
C2644 C2643 1.383 . S
C2644 C2645 1.377 . S
C2645 H2629 0.930 . S
C2645 C2644 1.377 . S
C2645 C2646 1.379 . S
C2646 H2630 0.931 . S
C2646 C2640 1.383 . S
C2646 C2645 1.379 . S
H2647 C2641 0.959 . S
H2648 C2641 0.961 . S
H2649 C2641 0.960 . S
H2650 C2642 0.930 . S
H2651 C2643 0.929 . S
H2652 C2660 0.929 . S
H2653 C2662 0.930 . S
H2654 C2664 0.930 . S
H2655 C2667 0.929 . S
H2656 C2670 0.930 . S
H2657 C2672 0.960 . S
H2658 C2672 0.960 . S
H2659 C2672 0.960 . S
C2660 H2652 0.929 . S
C2660 C2661 1.377 . S
C2660 C2662 1.384 . S
C2661 C2660 1.377 . S
C2661 C2667 1.390 . S
C2662 H2653 0.930 . S
C2662 C2660 1.384 . S
C2662 C2663 1.372 . S
C2663 C2662 1.372 . S
C2663 C2664 1.400 . S
C2663 C2668 1.490 . S
C2664 H2654 0.930 . S
C2664 C2663 1.400 . S
C2664 C2667 1.386 . S
H2665 C2681 0.930 . S
H2666 C2682 0.931 . S
C2667 H2655 0.929 . S
C2667 C2661 1.390 . S
C2667 C2664 1.386 . S
C2668 C2663 1.490 . S
C2668 C2670 1.395 . S
C2668 C2671 1.403 . S
H2669 C2675 0.930 . S
C2670 H2656 0.930 . S
C2670 C2668 1.395 . S
C2670 C2673 1.403 . S
C2671 C2668 1.403 . S
C2671 C2672 1.524 . S
C2671 C2675 1.400 . S
C2672 H2657 0.960 . S
C2672 H2658 0.960 . S
C2672 H2659 0.960 . S
C2672 C2671 1.524 . S
C2673 C2670 1.403 . S
C2673 C2674 1.392 . S
C2673 C2677 1.495 . S
C2674 C2673 1.392 . S
C2674 C2675 1.385 . S
C2674 C2676 1.478 . S
C2675 H2669 0.930 . S
C2675 C2671 1.400 . S
C2675 C2674 1.385 . S
C2676 C2674 1.478 . S
C2676 C2678 1.381 . S
C2676 C2682 1.383 . S
C2677 C2673 1.495 . S
C2677 H2683 0.959 . S
C2677 H2684 0.961 . S
C2677 H2685 0.960 . S
C2678 C2676 1.381 . S
C2678 C2679 1.394 . S
C2678 H2686 0.930 . S
C2679 C2678 1.394 . S
C2679 C2680 1.383 . S
C2679 H2687 0.929 . S
C2680 C2679 1.383 . S
C2680 C2681 1.377 . S
C2681 H2665 0.930 . S
C2681 C2680 1.377 . S
C2681 C2682 1.379 . S
C2682 H2666 0.931 . S
C2682 C2676 1.383 . S
C2682 C2681 1.379 . S
H2683 C2677 0.959 . S
H2684 C2677 0.961 . S
H2685 C2677 0.960 . S
H2686 C2678 0.930 . S
H2687 C2679 0.929 . S
H2688 C2696 0.929 . S
H2689 C2698 0.930 . S
H2690 C2700 0.930 . S
H2691 C2703 0.929 . S
H2692 C2706 0.930 . S
H2693 C2708 0.960 . S
H2694 C2708 0.960 . S
H2695 C2708 0.960 . S
C2696 H2688 0.929 . S
C2696 C2697 1.377 . S
C2696 C2698 1.384 . S
C2697 C2696 1.377 . S
C2697 C2703 1.390 . S
C2698 H2689 0.930 . S
C2698 C2696 1.384 . S
C2698 C2699 1.372 . S
C2699 C2698 1.372 . S
C2699 C2700 1.400 . S
C2699 C2704 1.490 . S
C2700 H2690 0.930 . S
C2700 C2699 1.400 . S
C2700 C2703 1.386 . S
H2701 C2717 0.930 . S
H2702 C2718 0.931 . S
C2703 H2691 0.929 . S
C2703 C2697 1.390 . S
C2703 C2700 1.386 . S
C2704 C2699 1.490 . S
C2704 C2706 1.395 . S
C2704 C2707 1.403 . S
H2705 C2711 0.930 . S
C2706 H2692 0.930 . S
C2706 C2704 1.395 . S
C2706 C2709 1.403 . S
C2707 C2704 1.403 . S
C2707 C2708 1.524 . S
C2707 C2711 1.400 . S
C2708 H2693 0.960 . S
C2708 H2694 0.960 . S
C2708 H2695 0.960 . S
C2708 C2707 1.524 . S
C2709 C2706 1.403 . S
C2709 C2710 1.392 . S
C2709 C2713 1.495 . S
C2710 C2709 1.392 . S
C2710 C2711 1.385 . S
C2710 C2712 1.478 . S
C2711 H2705 0.930 . S
C2711 C2707 1.400 . S
C2711 C2710 1.385 . S
C2712 C2710 1.478 . S
C2712 C2714 1.381 . S
C2712 C2718 1.383 . S
C2713 C2709 1.495 . S
C2713 H2719 0.959 . S
C2713 H2720 0.961 . S
C2713 H2721 0.960 . S
C2714 C2712 1.381 . S
C2714 C2715 1.394 . S
C2714 H2722 0.930 . S
C2715 C2714 1.394 . S
C2715 C2716 1.383 . S
C2715 H2723 0.929 . S
C2716 C2715 1.383 . S
C2716 C2717 1.377 . S
C2717 H2701 0.930 . S
C2717 C2716 1.377 . S
C2717 C2718 1.379 . S
C2718 H2702 0.931 . S
C2718 C2712 1.383 . S
C2718 C2717 1.379 . S
H2719 C2713 0.959 . S
H2720 C2713 0.961 . S
H2721 C2713 0.960 . S
H2722 C2714 0.930 . S
H2723 C2715 0.929 . S
C1024 C707 1.097 . S
C1005 C74 1.045 . S
C1060 C685 0.283 . S
C1041 C142 0.686 . S
C1096 C682 0.480 . S
C1077 C231 0.567 . S
C1113 C322 1.713 . S
C1132 C694 1.788 . S
C1149 C406 0.703 . S
C1168 C677 0.267 . S
C1204 C699 0.509 . S
C1185 C494 0.600 . S
C1221 C562 1.706 . S
C1240 C704 1.786 . S
C1257 C651 1.059 . S
C1276 C700 1.099 . S
C1312 C758 1.818 . S
C1293 C58 1.735 . S
C1329 C151 1.179 . S
C1348 C808 1.220 . S
C1384 C731 2.827 . S
C1365 C224 2.730 . S
C1420 C807 0.513 . S
C1401 C315 0.598 . S
C1437 C399 0.613 . S
C1456 C736 0.490 . S
C1492 C802 1.804 . S
C1473 C478 1.719 . S
C1509 C571 1.140 . S
C1528 C761 1.220 . S
C1545 C644 2.737 . S
C1564 C793 2.824 . S
C1581 C67 2.744 . S
C1600 C785 2.816 . S
C1617 C392 1.171 . S
C1636 C815 1.214 . S
C1672 C739 2.829 . S
C1653 C487 2.749 . S
C1708 C790 0.504 . S
C1689 C578 0.588 . S
C1725 C658 1.746 . S
C1744 C748 1.838 . S
C1761 C238 1.738 . S
C1780 C812 1.833 . S
C1816 C754 1.206 . S
C1797 C308 1.137 . S
C1833 C158 0.621 . S
C1852 C753 0.551 . S
C1869 C662 1.045 . S
C1888 C869 1.097 . S
C1905 C394 0.681 . S
C1924 C847 0.312 . S
C1960 C844 0.488 . S
C1941 C483 0.568 . S
C1996 C856 1.789 . S
C1977 C574 1.713 . S
C2013 C154 0.691 . S
C2032 C839 0.321 . S
C2068 C861 0.509 . S
C2049 C242 0.600 . S
C2085 C310 1.705 . S
C2104 C866 1.800 . S
C2121 C63 1.059 . S
C2140 C862 1.099 . S
C2157 C646 1.729 . S
C2176 C920 1.817 . S
C2212 C970 1.233 . S
C2193 C403 1.165 . S
C2229 C476 2.728 . S
C2248 C893 2.811 . S
C2265 C567 0.592 . S
C2284 C969 0.528 . S
C2320 C898 0.557 . S
C2301 C147 0.585 . S
C2337 C226 1.729 . S
C2356 C964 1.784 . S
C2392 C923 1.193 . S
C2373 C319 1.136 . S
C2428 C955 2.809 . S
C2409 C56 2.736 . S
C2464 C947 2.837 . S
C2445 C655 2.739 . S
C2481 C140 1.172 . S
C2500 C977 1.215 . S
C2517 C235 2.744 . S
C2536 C901 2.845 . S
C2572 C952 0.500 . S
C2553 C326 0.592 . S
C2589 C70 1.736 . S
C2608 C910 1.819 . S
C2625 C490 1.739 . S
C2644 C974 1.835 . S
C2680 C916 1.212 . S
C2661 C560 1.139 . S
C2716 C915 0.564 . S
C2697 C410 0.617 . S
