# Generated by pormake.
# Topology nia, (6,6)-cn, num edge types: 1
# Building blocks:
#     Node 0, Type 0, BuildingBlock: INOVEN_clean_sbu_0, # of connection points: 6
#     Node 1, Type 0, BuildingBlock: INOVEN_clean_sbu_0, # of connection points: 6
#     Node 2, Type 1, BuildingBlock: MIDCAF_clean_sbu_0, # of connection points: 6
#     Node 3, Type 1, BuildingBlock: MIDCAF_clean_sbu_0, # of connection points: 6
#     Edge 4, Type (0, 1), BuildingBlock: UVAHIK_clean_linker_0, # of connection points: 2
#     Edge 5, Type (0, 1), BuildingBlock: UVAHIK_clean_linker_0, # of connection points: 2
#     Edge 6, Type (0, 1), BuildingBlock: UVAHIK_clean_linker_0, # of connection points: 2
#     Edge 7, Type (0, 1), BuildingBlock: UVAHIK_clean_linker_0, # of connection points: 2
#     Edge 8, Type (0, 1), BuildingBlock: UVAHIK_clean_linker_0, # of connection points: 2
#     Edge 9, Type (0, 1), BuildingBlock: UVAHIK_clean_linker_0, # of connection points: 2
#     Edge 10, Type (0, 1), BuildingBlock: UVAHIK_clean_linker_0, # of connection points: 2
#     Edge 11, Type (0, 1), BuildingBlock: UVAHIK_clean_linker_0, # of connection points: 2
#     Edge 12, Type (0, 1), BuildingBlock: UVAHIK_clean_linker_0, # of connection points: 2
#     Edge 13, Type (0, 1), BuildingBlock: UVAHIK_clean_linker_0, # of connection points: 2
#     Edge 14, Type (0, 1), BuildingBlock: UVAHIK_clean_linker_0, # of connection points: 2
#     Edge 15, Type (0, 1), BuildingBlock: UVAHIK_clean_linker_0, # of connection points: 2
# Relax obj value: 0.293
# Max RMSD: 0.261
# Mean RMSD: 0.241
data_MOF--net-nia--node1-INOVEN_clean_sbu_0--node2-MIDCAF_clean_sbu_0--edge1-UVAHIK_clean_linker_0
_symmetry_space_group_name_H-M    P1
_symmetry_Int_Tables_number       1
_symmetry_cell_setting            triclinic
loop_
_symmetry_equiv_pos_as_xyz
'x, y, z'
_cell_length_a     32.621007
_cell_length_b     35.791369
_cell_length_c     39.862168
_cell_angle_alpha  72.202522
_cell_angle_beta   99.225119
_cell_angle_gamma 126.75023
loop_
_atom_site_label
_atom_site_type_symbol
_atom_site_fract_x
_atom_site_fract_y
_atom_site_fract_z
_atom_type_partial_charge
Gd0 Gd 0.05084 0.02413 0.07112 0.0
Gd1 Gd 0.96782 0.9265 1.05069 0.0
C2 C 0.96932 0.02136 1.01522 0.0
C3 C 0.12659 0.10092 0.08835 0.0
C4 C 0.12764 0.13445 0.10285 0.0
C5 C 0.08273 0.13096 0.10413 0.0
C6 C 0.17151 0.16626 0.11889 0.0
C7 C 0.12467 0.18913 0.13911 0.0
C8 C 0.17022 0.19373 0.13665 0.0
C9 C 0.08108 0.15771 0.1223 0.0
C10 C 0.9579 -0.03091 0.10427 0.0
C11 C 0.05831 0.93312 0.09963 0.0
C12 C 0.88843 0.84287 1.04573 0.0
C13 C 0.88306 0.81018 1.0277 0.0
C14 C 0.92703 0.81747 1.01749 0.0
C15 C 0.83481 0.77366 1.01873 0.0
C16 C 0.87478 0.75257 0.9886 0.0
C17 C 0.83063 0.74483 0.99944 0.0
C18 C 0.92299 0.78917 0.99797 0.0
C19 C 0.05243 -0.01804 1.00674 0.0
O20 O 0.01775 0.04906 1.02361 0.0
O21 O 0.94037 -0.02623 1.02841 0.0
O22 O 0.10538 0.05742 0.10966 0.0
O23 O 0.11168 0.10085 1.05574 0.0
O24 O -0.01261 0.01578 0.09602 0.0
O25 O 0.98027 0.95366 0.09682 0.0
O26 O 0.01068 0.90388 0.0906 0.0
O27 O 0.08333 -0.01927 0.09049 0.0
O28 O 0.89739 0.88339 1.02487 0.0
O29 O 0.91781 0.84913 0.07308 0.0
O30 O 0.01292 0.93947 1.00477 0.0
O31 O 0.04367 -0.00896 1.0315 0.0
H32 H 0.04845 0.10655 0.09185 0.0
H33 H 0.20642 0.16916 0.11827 0.0
H34 H 0.20489 0.21842 0.14851 0.0
H35 H 0.04521 0.15273 0.12387 0.0
H36 H 0.96466 0.84553 1.02423 0.0
H37 H 0.80052 0.76771 1.02637 0.0
H38 H 0.79285 0.71643 0.99316 0.0
H39 H 0.95781 0.79666 0.98968 0.0
Gd40 Gd 0.98179 -0.00614 0.57054 0.0
Gd41 Gd 0.04006 0.95849 0.54784 0.0
C42 C 0.94073 0.94108 0.50756 0.0
C43 C 0.95036 0.04333 0.57538 0.0
C44 C 0.92356 0.04334 0.60163 0.0
C45 C 0.92522 0.02392 0.6378 0.0
C46 C 0.89679 0.06403 0.59035 0.0
C47 C 0.87509 0.04781 0.65124 0.0
C48 C 0.87271 0.06623 0.6149 0.0
C49 C 0.90133 0.02633 0.66245 0.0
C50 C 0.94448 0.90092 0.60804 0.0
C51 C 0.07607 0.00304 0.61615 0.0
C52 C 0.08565 0.92237 0.54039 0.0
C53 C 0.10447 0.91799 0.51138 0.0
C54 C 0.07188 0.87935 0.49588 0.0
C55 C 0.15615 0.9513 0.5001 0.0
C56 C 0.14267 0.90665 0.45922 0.0
C57 C 0.17498 0.94582 0.47422 0.0
C58 C 0.09075 0.87382 0.47003 0.0
C59 C 0.06024 0.04438 0.50731 0.0
O60 O 0.94843 -0.02402 0.51884 0.0
O61 O 0.96689 0.92252 0.51931 0.0
O62 O -0.0033 0.05548 0.58306 0.0
O63 O 0.92334 0.00668 0.56138 0.0
O64 O 0.92804 0.92428 0.6127 0.0
O65 O 0.97907 0.92883 0.58455 0.0
O66 O 0.07548 -0.02424 0.59954 0.0
O67 O 0.04626 0.01791 0.60774 0.0
O68 O 0.03588 0.89685 0.54511 0.0
O69 O 0.11016 0.96591 0.54459 0.0
O70 O 0.06173 0.01525 0.49545 0.0
O71 O 0.05241 0.02832 0.54017 0.0
H72 H 0.94548 0.00746 0.64696 0.0
H73 H 0.89518 0.07919 0.56253 0.0
H74 H 0.85348 0.08366 0.60543 0.0
H75 H 0.90345 0.0115 0.69023 0.0
H76 H 0.03198 0.85273 0.50419 0.0
H77 H 0.18237 -0.01871 0.51167 0.0
H78 H 0.21505 -0.02801 0.46626 0.0
H79 H 0.06501 0.8428 0.45945 0.0
Zn80 Zn 0.37386 0.69062 0.23313 0.0
Zn81 Zn 0.35659 0.63964 0.37377 0.0
Zn82 Zn 0.36429 0.6609 0.30341 0.0
C83 C 0.46081 0.69292 0.35444 0.0
C84 C 0.29967 0.55151 0.35582 0.0
O85 O 0.33054 0.702 0.2806 0.0
O86 O 0.34535 0.72827 0.22284 0.0
C87 C 0.47083 0.72341 0.25672 0.0
O88 O 0.4426 0.69304 0.32326 0.0
O89 O 0.43127 0.67127 0.3812 0.0
O90 O 0.31084 0.56873 0.38188 0.0
O91 O 0.31618 0.58003 0.32451 0.0
O92 O 0.44833 0.72595 0.22819 0.0
O93 O 0.44579 0.70108 0.28652 0.0
O94 O 0.31686 0.59386 0.28715 0.0
O95 O 0.32868 0.62293 0.22914 0.0
C96 C 0.30805 0.58731 0.25606 0.0
O97 O 0.33335 0.69496 0.31741 0.0
O98 O 0.32637 0.6734 0.37568 0.0
C99 C 0.32675 0.72524 0.24976 0.0
C100 C 0.32122 0.69612 0.34611 0.0
Zn101 Zn 0.65843 0.26979 0.88676 0.0
Zn102 Zn 0.65338 0.30357 0.74421 0.0
Zn103 Zn 0.65423 0.28677 0.81617 0.0
C104 C 0.71174 0.39371 0.75831 0.0
C105 C 0.55148 0.2472 0.77199 0.0
O106 O 0.69249 0.24938 0.83799 0.0
O107 O 0.68782 0.23314 0.89606 0.0
C108 C 0.71733 0.37051 0.85593 0.0
O109 O 0.69782 0.36641 0.79017 0.0
O110 O 0.69891 0.37538 0.73269 0.0
O111 O 0.57704 0.26827 0.7433 0.0
O112 O 0.57381 0.24977 0.80175 0.0
O113 O 0.70575 0.33966 0.88543 0.0
O114 O 0.70042 0.35738 0.82719 0.0
O115 O 0.57528 0.24473 0.83826 0.0
O116 O 0.58396 0.2333 0.89603 0.0
C117 C 0.55572 0.22754 0.86962 0.0
O118 O 0.68462 0.25275 0.80162 0.0
O119 O 0.68329 0.2691 0.74327 0.0
C120 C 0.70142 0.23113 0.86914 0.0
C121 C 0.69269 0.24925 0.77248 0.0
C122 C 0.05593 0.86292 0.14032 0.0
C123 C 0.08449 0.9117 0.12091 0.0
C124 C 0.08045 0.84258 0.16063 0.0
C125 C 0.20722 0.87503 0.19812 0.0
H126 H 0.15058 0.7432 0.20046 0.0
C127 C 0.32194 0.79481 0.22247 0.0
C128 C 0.30018 0.74817 0.24501 0.0
C129 C 0.29483 0.81507 0.21451 0.0
C130 C 0.16635 0.77976 0.20056 0.0
H131 H 0.1612 -0.02261 0.10743 0.0
H132 H 0.20412 0.94157 0.14155 0.0
H133 H 0.10475 0.77791 0.17108 0.0
H134 H 0.23373 0.68624 0.2775 0.0
H135 H 0.18526 0.72134 0.26269 0.0
H136 H 0.27043 0.8773 0.2259 0.0
C137 C 0.16269 0.91921 0.14213 0.0
C138 C 0.14009 0.79977 0.18375 0.0
C139 C 0.13811 0.93974 0.12226 0.0
C140 C 0.25127 0.72241 0.26019 0.0
C141 C 0.22364 0.74236 0.25167 0.0
C142 C 0.23386 0.8552 0.21445 0.0
C143 C 0.13421 0.8703 0.16161 0.0
C144 C 0.16051 0.84795 0.1818 0.0
C145 C 0.24495 0.78859 0.22831 0.0
C146 C 0.21398 0.80762 0.21538 0.0
H147 H 0.0145 0.84047 0.14017 0.0
H148 H 0.05707 0.80512 0.17574 0.0
H149 H 0.22364 0.91181 0.19795 0.0
H150 H 0.35959 0.81521 0.21042 0.0
H151 H 0.3119 0.85055 0.19617 0.0
C152 C 0.12492 0.05858 0.65553 0.0
C153 C 0.11417 0.02038 0.64375 0.0
C154 C 0.16529 0.07934 0.67806 0.0
C155 C 0.25445 0.06387 0.73922 0.0
H156 H 0.35226 0.20166 0.69964 0.0
C157 C 0.46715 0.16838 0.77537 0.0
C158 C 0.49555 0.21833 0.77069 0.0
C159 C 0.41519 0.14199 0.76762 0.0
C160 C 0.32508 0.1635 0.71185 0.0
H161 H 0.13539 -0.02798 0.64828 0.0
H162 H 0.20567 0.00813 0.68798 0.0
H163 H 0.27011 0.15833 0.67267 0.0
H164 H 0.49252 0.27988 0.75664 0.0
H165 H 0.40108 0.23366 0.74518 0.0
H166 H 0.30937 0.06895 0.77852 0.0
C167 C 0.18286 0.02202 0.67958 0.0
C168 C 0.27793 0.13859 0.69613 0.0
C169 C 0.14283 0.00159 0.65666 0.0
C170 C 0.47101 0.24125 0.7603 0.0
C171 C 0.41881 0.21476 0.75339 0.0
C172 C 0.30142 0.08898 0.75542 0.0
C173 C 0.19534 0.06195 0.68968 0.0
C174 C 0.24259 0.08843 0.70917 0.0
C175 C 0.39062 0.16513 0.75546 0.0
C176 C 0.33791 0.13903 0.74146 0.0
H177 H 0.10358 0.07391 0.64623 0.0
H178 H 0.17393 0.10989 0.68567 0.0
H179 H 0.22761 0.02519 0.74994 0.0
H180 H 0.4858 0.15028 0.78306 0.0
H181 H 0.39529 0.10411 0.7692 0.0
C182 C 0.15094 0.22673 0.18959 0.0
C183 C 0.12273 0.21717 0.15892 0.0
C184 C 0.1528 0.25668 0.20638 0.0
C185 C 0.14287 0.35792 0.18243 0.0
H186 H 0.17757 0.35797 0.28021 0.0
C187 C 0.23157 0.50047 0.27252 0.0
C188 C 0.27499 0.53844 0.25078 0.0
C189 C 0.19981 0.45484 0.26582 0.0
C190 C 0.16684 0.35792 0.25304 0.0
H191 H 0.07156 0.22928 0.12328 0.0
H192 H 0.07301 0.27954 0.15343 0.0
H193 H 0.1406 0.2846 0.26168 0.0
H194 H 0.31914 0.55905 0.20498 0.0
H195 H 0.26371 0.48029 0.19299 0.0
H196 H 0.17058 0.43148 0.17356 0.0
C197 C 0.09491 0.26499 0.16396 0.0
C198 C 0.14625 0.31622 0.24232 0.0
C199 C 0.0937 0.23569 0.14683 0.0
C200 C 0.28587 0.53042 0.22214 0.0
C201 C 0.25407 0.48542 0.21521 0.0
C202 C 0.16315 0.39925 0.19315 0.0
C203 C 0.12596 0.2773 0.19316 0.0
C204 C 0.13624 0.31654 0.20654 0.0
C205 C 0.21057 0.44735 0.23673 0.0
C206 C 0.1776 0.40034 0.22811 0.0
H207 H 0.1726 0.21197 0.20027 0.0
H208 H 0.17747 0.26558 0.22863 0.0
H209 H 0.13609 0.35989 0.15466 0.0
H210 H 0.22172 0.50629 0.29419 0.0
H211 H 0.16641 0.4259 0.28275 0.0
C212 C 0.80468 0.04607 0.67108 0.0
C213 C 0.85234 0.05342 0.67711 0.0
C214 C 0.78624 0.05742 0.69277 0.0
C215 C 0.83592 0.14173 0.74637 0.0
H216 H 0.69168 0.07755 0.7639 0.0
C217 C 0.69343 0.17629 0.79505 0.0
C218 C 0.7139 0.22279 0.77251 0.0
C219 C 0.71194 0.15038 0.79304 0.0
C220 C 0.73217 0.09545 0.75988 0.0
H221 H 0.91677 0.07596 0.71181 0.0
H222 H 0.88425 0.09532 0.75 0.0
H223 H 0.71868 0.03701 0.744 0.0
H224 H 0.76954 0.27901 0.7306 0.0
H225 H 0.80196 0.23414 0.72704 0.0
H226 H 0.84924 0.20079 0.76112 0.0
C227 C 0.86142 0.08124 0.72823 0.0
C228 C 0.74759 0.07246 0.74814 0.0
C229 C 0.87983 0.06977 0.70653 0.0
C230 C 0.75344 0.24328 0.74836 0.0
C231 C 0.77226 0.21776 0.7466 0.0
C232 C 0.8205 0.1647 0.75802 0.0
C233 C 0.81507 0.07642 0.72102 0.0
C234 C 0.79946 0.09611 0.74001 0.0
C235 C 0.75138 0.17084 0.76861 0.0
C236 C 0.76833 0.14259 0.76358 0.0
H237 H 0.78227 0.03286 0.64891 0.0
H238 H 0.75064 0.05367 0.68622 0.0
H239 H 0.87614 0.16112 0.74022 0.0
H240 H 0.66254 0.15972 0.81367 0.0
H241 H 0.69522 0.11431 0.81033 0.0
C242 C 0.88835 0.96138 0.13062 0.0
C243 C 0.91 0.93945 0.12547 0.0
C244 C 0.8445 0.93474 0.152 0.0
C245 C 0.73401 0.80985 0.19163 0.0
H246 H 0.71804 0.87562 0.24427 0.0
C247 C 0.54687 0.72085 0.26927 0.0
C248 C 0.52616 0.74704 0.25479 0.0
C249 C 0.59804 0.7417 0.26173 0.0
C250 C 0.72227 0.85665 0.23005 0.0
H251 H 0.90271 0.87236 0.13826 0.0
H252 H 0.8262 0.82558 0.1764 0.0
H253 H 0.7996 0.91634 0.21426 0.0
H254 H 0.54235 0.81569 0.22298 0.0
H255 H 0.63196 0.8527 0.21092 0.0
H256 H 0.6561 0.75035 0.20732 0.0
C257 C 0.84278 0.86334 0.16354 0.0
C258 C 0.76873 0.88007 0.21252 0.0
C259 C 0.88661 0.89007 0.14178 0.0
C260 C 0.55774 0.795 0.23448 0.0
C261 C 0.60892 0.81614 0.22772 0.0
C262 C 0.68768 0.78616 0.20961 0.0
C263 C 0.82142 0.8855 0.16915 0.0
C264 C 0.7746 0.8577 0.19196 0.0
C265 C 0.62917 0.78929 0.24037 0.0
C266 C 0.68092 0.81002 0.22798 0.0
H267 H 0.90538 -0.00067 0.11809 0.0
H268 H 0.82843 0.95279 0.15477 0.0
H269 H 0.73693 0.79154 0.17596 0.0
H270 H 0.52288 0.68365 0.28481 0.0
H271 H 0.61293 0.72038 0.27174 0.0
C272 C 0.94561 0.82829 0.62064 0.0
C273 C 0.92502 0.85045 0.62722 0.0
C274 C 0.92547 0.7799 0.63822 0.0
C275 C 0.80781 0.66682 0.68574 0.0
H276 H 0.89486 0.62319 0.71659 0.0
C277 C 0.72374 0.46834 0.76151 0.0
C278 C 0.7419 0.44681 0.75068 0.0
C279 C 0.74898 0.51855 0.75036 0.0
C280 C 0.86998 0.63473 0.70796 0.0
H281 H 0.86809 0.83985 0.65792 0.0
H282 H 0.83338 0.7559 0.68886 0.0
H283 H 0.93331 0.70887 0.68897 0.0
H284 H 0.80004 0.46029 0.71942 0.0
H285 H 0.84403 0.54783 0.69957 0.0
H286 H 0.74449 0.59278 0.70423 0.0
C287 C 0.86445 0.77538 0.66972 0.0
C288 C 0.89203 0.68388 0.69204 0.0
C289 C 0.88456 0.82363 0.65214 0.0
C290 C 0.7859 0.47625 0.72866 0.0
C291 C 0.81116 0.5264 0.71745 0.0
C292 C 0.7858 0.61777 0.70164 0.0
C293 C 0.88429 0.75267 0.66279 0.0
C294 C 0.86121 0.70054 0.68054 0.0
C295 C 0.79256 0.54818 0.72767 0.0
C296 C 0.81653 0.60097 0.71278 0.0
H297 H 0.97692 0.84818 0.6017 0.0
H298 H 0.94144 0.76354 0.63196 0.0
H299 H 0.78275 0.6781 0.67669 0.0
H300 H 0.68861 0.4461 0.77716 0.0
H301 H 0.73369 0.53403 0.75891 0.0
C302 C 0.21073 0.90413 0.44088 0.0
C303 C 0.16369 0.89801 0.43435 0.0
C304 C 0.22832 0.89134 0.41984 0.0
C305 C 0.17809 0.80644 0.36657 0.0
H306 H 0.3224 0.86916 0.35072 0.0
C307 C 0.32225 0.77001 0.3228 0.0
C308 C 0.3001 0.72305 0.34493 0.0
C309 C 0.30346 0.79617 0.32348 0.0
C310 C 0.28189 0.85163 0.35422 0.0
H311 H 0.09969 0.8763 0.39929 0.0
H312 H 0.13042 0.85367 0.36253 0.0
H313 H 0.29567 0.91055 0.36951 0.0
H314 H 0.24121 0.66629 0.38483 0.0
H315 H 0.20876 0.71182 0.38646 0.0
H316 H 0.16444 0.74699 0.35223 0.0
C317 C 0.15332 0.86785 0.38425 0.0
C318 C 0.26662 0.87512 0.36537 0.0
C319 C 0.13568 0.88069 0.40534 0.0
C320 C 0.25869 0.7024 0.36741 0.0
C321 C 0.2398 0.7283 0.368 0.0
C322 C 0.19336 0.783 0.35541 0.0
C323 C 0.19934 0.87208 0.39174 0.0
C324 C 0.21472 0.85195 0.37304 0.0
C325 C 0.26231 0.77568 0.34637 0.0
C326 C 0.24555 0.8045 0.35055 0.0
H327 H 0.23291 0.91666 0.4633 0.0
H328 H 0.26343 0.89424 0.42681 0.0
H329 H 0.13782 0.78746 0.3723 0.0
H330 H 0.35477 0.78685 0.30562 0.0
H331 H 0.32151 0.83257 0.30648 0.0
C332 C 0.10482 -0.00635 0.96045 0.0
C333 C 0.10084 0.01078 0.98622 0.0
C334 C 0.15121 0.01858 0.94233 0.0
C335 C 0.27854 0.13585 0.92006 0.0
H336 H 0.32023 0.05675 0.91405 0.0
C337 C 0.47175 0.21592 0.85421 0.0
C338 C 0.50017 0.20042 0.8757 0.0
C339 C 0.42024 0.1926 0.86278 0.0
C340 C 0.30901 0.07931 0.91534 0.0
H341 H 0.14163 0.06802 1.01266 0.0
H342 H 0.22327 0.11181 0.98099 0.0
H343 H 0.236 0.01817 0.93893 0.0
H344 H 0.49725 0.14817 0.92242 0.0
H345 H 0.40767 0.10726 0.93716 0.0
H346 H 0.35251 0.1971 0.8973 0.0
C347 C 0.19031 0.07925 0.97461 0.0
C348 C 0.26062 0.05722 0.92938 0.0
C349 C 0.14375 0.05413 0.99286 0.0
C350 C 0.47607 0.16066 0.90531 0.0
C351 C 0.42472 0.1371 0.91364 0.0
C352 C 0.32694 0.15799 0.90571 0.0
C353 C 0.19474 0.06128 0.94954 0.0
C354 C 0.24506 0.08521 0.93242 0.0
C355 C 0.39638 0.15317 0.8928 0.0
C356 C 0.343 0.12992 0.90382 0.0
H357 H 0.07221 0.96042 0.95468 0.0
H358 H 0.15313 0.00414 0.92286 0.0
H359 H 0.26747 0.15836 0.92175 0.0
H360 H 0.48994 0.24728 0.83178 0.0
H361 H 0.39927 0.2057 0.84622 0.0
C362 C 0.0993 0.1135 0.45282 0.0
C363 C 0.07834 0.09421 0.48717 0.0
C364 C 0.12046 0.16201 0.43497 0.0
C365 C 0.17296 0.2786 0.45356 0.0
H366 H 0.16639 0.32371 0.35245 0.0
C367 C 0.23074 0.47 0.39042 0.0
C368 C 0.26774 0.49822 0.36284 0.0
C369 C 0.20531 0.42004 0.40165 0.0
C370 C 0.16877 0.31153 0.38066 0.0
H371 H 0.06116 0.10989 0.52911 0.0
H372 H 0.09589 0.19354 0.49777 0.0
H373 H 0.12493 0.23714 0.38012 0.0
H374 H 0.30616 0.49604 0.3247 0.0
H375 H 0.26032 0.40754 0.34399 0.0
H376 H 0.2157 0.35257 0.45426 0.0
C377 C 0.09772 0.17198 0.48485 0.0
C378 C 0.14515 0.262 0.39656 0.0
C379 C 0.07721 0.12377 0.50277 0.0
C380 C 0.27724 0.47504 0.34566 0.0
C381 C 0.2512 0.42455 0.35676 0.0
C382 C 0.1959 0.3277 0.43779 0.0
C383 C 0.12071 0.19218 0.45099 0.0
C384 C 0.14646 0.24482 0.43335 0.0
C385 C 0.21615 0.39686 0.38563 0.0
C386 C 0.19363 0.3447 0.40128 0.0
H387 H 0.10074 0.09151 0.44012 0.0
H388 H 0.13808 0.17619 0.4091 0.0
H389 H 0.17636 0.26724 0.48171 0.0
H390 H 0.22251 0.48682 0.40411 0.0
H391 H 0.17798 0.39956 0.42361 0.0
C392 C 0.9654 0.09232 0.98846 0.0
C393 C 0.94565 0.04408 0.9917 0.0
C394 C 0.94056 0.11245 0.96819 0.0
C395 C 0.81282 0.07464 0.93175 0.0
H396 H 0.88477 0.21219 0.88798 0.0
C397 C 0.71174 0.16679 0.90366 0.0
C398 C 0.72694 0.20692 0.87458 0.0
C399 C 0.73803 0.14578 0.91164 0.0
C400 C 0.86403 0.17356 0.89947 0.0
H401 H 0.88608 -0.02009 0.97474 0.0
H402 H 0.84403 0.01536 0.93833 0.0
H403 H 0.9333 0.17882 0.91239 0.0
H404 H 0.78191 0.25699 0.8311 0.0
H405 H 0.82742 0.21919 0.84435 0.0
H406 H 0.74367 0.06913 0.91827 0.0
C407 C 0.87752 0.03733 0.95241 0.0
C408 C 0.89191 0.15447 0.91403 0.0
C409 C 0.9018 0.017 0.97316 0.0
C410 C 0.76884 0.22546 0.85328 0.0
C411 C 0.79521 0.20417 0.86117 0.0
C412 C 0.78507 0.09359 0.91684 0.0
C413 C 0.89584 0.08502 0.95022 0.0
C414 C 0.86668 0.1049 0.93121 0.0
C415 C 0.78039 0.16432 0.89074 0.0
C416 C 0.81021 0.14349 0.90148 0.0
H417 H -0.00098 0.11403 1.00259 0.0
H418 H 0.95552 0.14897 0.96771 0.0
H419 H 0.79172 0.03641 0.94493 0.0
H420 H 0.67986 0.15206 0.92075 0.0
H421 H 0.72608 0.11595 0.93505 0.0
C422 C 0.86566 0.93369 0.4739 0.0
C423 C 0.9006 0.92166 0.48149 0.0
C424 C 0.82519 0.91255 0.45157 0.0
C425 C 0.747 0.80344 0.41876 0.0
H426 H 0.68616 0.86838 0.36522 0.0
C427 C 0.55202 0.76243 0.3364 0.0
C428 C 0.51634 0.71824 0.35978 0.0
C429 C 0.60429 0.78798 0.34349 0.0
C430 C 0.703 0.84978 0.37938 0.0
H431 H 0.92185 0.87968 0.47012 0.0
H432 H 0.85183 0.84359 0.43042 0.0
H433 H 0.76981 0.91454 0.3902 0.0
H434 H 0.50701 0.66596 0.40883 0.0
H435 H 0.59733 0.71092 0.42199 0.0
H436 H 0.6804 0.73878 0.40771 0.0
C437 C 0.85499 0.86853 0.44245 0.0
C438 C 0.75075 0.87619 0.39421 0.0
C439 C 0.89529 0.88938 0.46511 0.0
C440 C 0.53378 0.69981 0.39019 0.0
C441 C 0.58574 0.72541 0.39749 0.0
C442 C 0.69954 0.77716 0.40361 0.0
C443 C 0.81883 0.87916 0.4359 0.0
C444 C 0.77249 0.85301 0.41521 0.0
C445 C 0.62169 0.77016 0.37451 0.0
C446 C 0.67602 0.79961 0.38487 0.0
H447 H 0.86844 0.95829 0.48614 0.0
H448 H 0.79772 0.92105 0.44778 0.0
H449 H 0.76229 0.78418 0.43479 0.0
H450 H 0.53937 0.77825 0.31345 0.0
H451 H 0.63085 0.82218 0.32511 0.0
C452 C 0.83427 0.70857 0.94131 0.0
C453 C 0.87082 0.72279 0.96755 0.0
C454 C 0.82983 0.67961 0.92215 0.0
C455 C 0.85723 0.59161 0.92993 0.0
H456 H 0.81189 0.59745 0.83354 0.0
C457 C 0.7987 0.4432 0.86782 0.0
C458 C 0.74884 0.4216 0.85534 0.0
C459 C 0.82561 0.48896 0.87351 0.0
C460 C 0.82496 0.59571 0.86036 0.0
H461 H 0.93208 0.71836 0.99373 0.0
H462 H 0.92561 0.66948 0.95946 0.0
H463 H 0.83721 0.66175 0.85971 0.0
H464 H 0.68754 0.42968 0.83904 0.0
H465 H 0.73473 0.51023 0.84823 0.0
H466 H 0.84378 0.52512 0.93098 0.0
C467 C 0.89969 0.67995 0.95411 0.0
C468 C 0.83914 0.63227 0.87543 0.0
C469 C 0.90375 0.70845 0.97352 0.0
C470 C 0.72677 0.44675 0.84736 0.0
C471 C 0.75372 0.49265 0.85278 0.0
C472 C 0.84352 0.55542 0.9148 0.0
C473 C 0.86215 0.66453 0.92858 0.0
C474 C 0.85399 0.62984 0.91074 0.0
C475 C 0.8027 0.51344 0.86707 0.0
C476 C 0.82589 0.55639 0.88024 0.0
H477 H 0.80891 0.71968 0.93559 0.0
H478 H 0.80002 0.66789 0.90302 0.0
H479 H 0.86768 0.58807 0.95732 0.0
H480 H 0.81593 0.42381 0.87456 0.0
H481 H 0.86336 0.50426 0.88445 0.0
loop_
_geom_bond_atom_site_label_1
_geom_bond_atom_site_label_2
_geom_bond_distance
_geom_bond_site_symmetry_2
_ccdc_geom_bond_type
Gd0 C3 2.818 . S
Gd0 O20 2.377 . S
Gd0 O22 2.448 . S
Gd0 O23 2.506 . S
Gd0 O24 2.435 1_445 S
Gd0 O25 2.717 1_445 S
Gd0 O27 2.395 1_545 S
Gd0 O31 2.327 1_554 S
Gd1 C12 2.818 . S
Gd1 O21 2.395 1_565 S
Gd1 O25 2.327 1_556 S
Gd1 O26 2.377 1_656 S
Gd1 O28 2.448 . S
Gd1 O29 2.506 . S
Gd1 O30 2.435 1_665 S
Gd1 O31 2.717 1_665 S
C2 O20 1.240 1_556 S
C2 O21 1.239 1_455 S
C3 Gd0 2.818 . S
C3 C4 1.510 . S
C3 O22 1.249 . S
C3 O23 1.252 . S
C4 C3 1.510 . S
C4 C5 1.404 . S
C4 C6 1.352 . S
C5 C4 1.404 . S
C5 C9 1.389 . S
C5 H32 0.930 . S
C6 C4 1.352 . S
C6 C8 1.374 . S
C6 H33 0.931 . S
C7 C8 1.359 . S
C7 C9 1.364 . S
C8 C6 1.374 . S
C8 C7 1.359 . S
C8 H34 0.931 . S
C9 C5 1.389 . S
C9 C7 1.364 . S
C9 H35 0.931 . S
C10 O24 1.256 . S
C10 O25 1.257 . S
C11 O26 1.240 . S
C11 O27 1.240 . S
C12 Gd1 2.818 . S
C12 C13 1.510 . S
C12 O28 1.249 . S
C12 O29 1.252 . S
C13 C12 1.510 . S
C13 C14 1.404 . S
C13 C15 1.352 . S
C14 C13 1.404 . S
C14 C18 1.389 . S
C14 H36 0.930 . S
C15 C13 1.352 . S
C15 C17 1.374 . S
C15 H37 0.931 . S
C16 C17 1.359 . S
C16 C18 1.364 . S
C17 C15 1.374 . S
C17 C16 1.359 . S
C17 H38 0.931 . S
C18 C14 1.389 . S
C18 C16 1.364 . S
C18 H39 0.931 . S
C19 O30 1.256 . S
C19 O31 1.257 . S
O20 Gd0 2.377 . S
O20 C2 1.240 1_554 S
O21 Gd1 2.395 1_545 S
O21 C2 1.239 1_655 S
O22 Gd0 2.448 . S
O22 C3 1.249 . S
O23 Gd0 2.506 . S
O23 C3 1.252 . S
O24 Gd0 2.435 1_665 S
O24 C10 1.256 . S
O25 Gd0 2.717 1_665 S
O25 Gd1 2.327 1_554 S
O25 C10 1.257 . S
O26 Gd1 2.377 1_454 S
O26 C11 1.240 . S
O27 Gd0 2.395 1_565 S
O27 C11 1.240 . S
O28 Gd1 2.448 . S
O28 C12 1.249 . S
O29 Gd1 2.506 . S
O29 C12 1.252 . S
O30 Gd1 2.435 1_445 S
O30 C19 1.256 . S
O31 Gd0 2.327 1_556 S
O31 Gd1 2.717 1_445 S
O31 C19 1.257 . S
H32 C5 0.930 . S
H33 C6 0.931 . S
H34 C8 0.931 . S
H35 C9 0.931 . S
H36 C14 0.930 . S
H37 C15 0.931 . S
H38 C17 0.931 . S
H39 C18 0.931 . S
Gd40 C43 2.818 1_455 S
Gd40 O60 2.377 1_445 S
Gd40 O62 2.448 1_455 S
Gd40 O63 2.506 1_455 S
Gd40 O64 2.435 1_445 S
Gd40 O65 2.717 1_545 S
Gd40 O67 2.395 . S
Gd40 O71 2.327 . S
Gd41 C52 2.818 . S
Gd41 O61 2.395 1_455 S
Gd41 O65 2.327 . S
Gd41 O66 2.377 1_565 S
Gd41 O68 2.448 1_565 S
Gd41 O69 2.506 . S
Gd41 O70 2.435 1_565 S
Gd41 O71 2.717 1_565 S
C42 O60 1.240 . S
C42 O61 1.240 . S
C43 Gd40 2.818 1_655 S
C43 C44 1.510 . S
C43 O62 1.249 . S
C43 O63 1.252 . S
C44 C43 1.510 . S
C44 C45 1.404 . S
C44 C46 1.352 . S
C45 C44 1.404 . S
C45 C49 1.389 . S
C45 H72 0.930 . S
C46 C44 1.352 . S
C46 C48 1.374 . S
C46 H73 0.931 . S
C47 C48 1.359 . S
C47 C49 1.364 . S
C48 C46 1.374 . S
C48 C47 1.359 . S
C48 H74 0.931 . S
C49 C45 1.389 . S
C49 C47 1.364 . S
C49 H75 0.931 . S
C50 O64 1.256 . S
C50 O65 1.257 1_655 S
C51 O66 1.240 . S
C51 O67 1.240 . S
C52 Gd41 2.818 . S
C52 C53 1.510 . S
C52 O68 1.249 1_565 S
C52 O69 1.252 . S
C53 C52 1.510 . S
C53 C54 1.404 . S
C53 C55 1.352 . S
C54 C53 1.404 . S
C54 C58 1.389 . S
C54 H76 0.930 1_565 S
C55 C53 1.352 . S
C55 C57 1.374 . S
C55 H77 0.931 . S
C56 C57 1.359 . S
C56 C58 1.364 . S
C57 C55 1.374 . S
C57 C56 1.359 . S
C57 H78 0.931 . S
C58 C54 1.389 . S
C58 C56 1.364 . S
C58 H79 0.931 . S
C59 O70 1.256 . S
C59 O71 1.257 . S
O60 Gd40 2.377 1_665 S
O60 C42 1.240 . S
O61 Gd41 2.395 1_655 S
O61 C42 1.240 . S
O62 Gd40 2.448 1_655 S
O62 C43 1.249 . S
O63 Gd40 2.506 1_655 S
O63 C43 1.252 . S
O64 Gd40 2.435 1_665 S
O64 C50 1.256 . S
O65 Gd40 2.717 1_565 S
O65 Gd41 2.327 . S
O65 C50 1.257 1_455 S
O66 Gd41 2.377 1_545 S
O66 C51 1.240 . S
O67 Gd40 2.395 . S
O67 C51 1.240 . S
O68 Gd41 2.448 1_545 S
O68 C52 1.249 1_545 S
O69 Gd41 2.506 . S
O69 C52 1.252 . S
O70 Gd41 2.435 1_545 S
O70 C59 1.256 . S
O71 Gd40 2.327 . S
O71 Gd41 2.717 1_545 S
O71 C59 1.257 . S
H72 C45 0.930 . S
H73 C46 0.931 . S
H74 C48 0.931 . S
H75 C49 0.931 . S
H76 C54 0.930 1_545 S
H77 C55 0.931 . S
H78 C57 0.931 . S
H79 C58 0.931 . S
Zn80 O86 1.920 . S
Zn80 O92 1.898 . S
Zn80 O95 1.905 . S
Zn81 O89 1.905 . S
Zn81 O90 1.898 . S
Zn81 O98 1.920 . S
Zn82 O85 2.080 . S
Zn82 O88 2.114 . S
Zn82 O91 2.120 . S
Zn82 O93 2.120 . S
Zn82 O94 2.114 . S
Zn82 O97 2.080 . S
C83 O88 1.166 . S
C83 O89 1.182 . S
C84 O90 1.167 . S
C84 O91 1.299 . S
O85 Zn82 2.080 . S
O85 C99 1.305 . S
O86 Zn80 1.920 . S
O86 C99 1.234 . S
C87 O92 1.167 . S
C87 O93 1.299 . S
O88 Zn82 2.114 . S
O88 C83 1.166 . S
O89 Zn81 1.905 . S
O89 C83 1.182 . S
O90 Zn81 1.898 . S
O90 C84 1.167 . S
O91 Zn82 2.120 . S
O91 C84 1.299 . S
O92 Zn80 1.898 . S
O92 C87 1.167 . S
O93 Zn82 2.120 . S
O93 C87 1.299 . S
O94 Zn82 2.114 . S
O94 C96 1.166 . S
O95 Zn80 1.905 . S
O95 C96 1.182 . S
C96 O94 1.166 . S
C96 O95 1.182 . S
O97 Zn82 2.080 . S
O97 C100 1.305 . S
O98 Zn81 1.920 . S
O98 C100 1.234 . S
C99 O85 1.305 . S
C99 O86 1.234 . S
C100 O97 1.305 . S
C100 O98 1.234 . S
Zn101 O107 1.920 . S
Zn101 O113 1.898 . S
Zn101 O116 1.905 . S
Zn102 O110 1.905 . S
Zn102 O111 1.898 . S
Zn102 O119 1.920 . S
Zn103 O106 2.080 . S
Zn103 O109 2.114 . S
Zn103 O112 2.120 . S
Zn103 O114 2.120 . S
Zn103 O115 2.114 . S
Zn103 O118 2.080 . S
C104 O109 1.166 . S
C104 O110 1.182 . S
C105 O111 1.167 . S
C105 O112 1.299 . S
O106 Zn103 2.080 . S
O106 C120 1.305 . S
O107 Zn101 1.920 . S
O107 C120 1.234 . S
C108 O113 1.167 . S
C108 O114 1.299 . S
O109 Zn103 2.114 . S
O109 C104 1.166 . S
O110 Zn102 1.905 . S
O110 C104 1.182 . S
O111 Zn102 1.898 . S
O111 C105 1.167 . S
O112 Zn103 2.120 . S
O112 C105 1.299 . S
O113 Zn101 1.898 . S
O113 C108 1.167 . S
O114 Zn103 2.120 . S
O114 C108 1.299 . S
O115 Zn103 2.114 . S
O115 C117 1.166 . S
O116 Zn101 1.905 . S
O116 C117 1.182 . S
C117 O115 1.166 . S
C117 O116 1.182 . S
O118 Zn103 2.080 . S
O118 C121 1.305 . S
O119 Zn102 1.920 . S
O119 C121 1.234 . S
C120 O106 1.305 . S
C120 O107 1.234 . S
C121 O118 1.305 . S
C121 O119 1.234 . S
C122 C123 1.349 . S
C122 C124 1.327 . S
C122 H147 0.950 . S
C123 C122 1.349 . S
C123 C139 1.349 . S
C124 C122 1.327 . S
C124 C143 1.429 . S
C124 H148 0.950 . S
C125 C142 1.574 . S
C125 C144 1.368 . S
C125 H149 0.949 . S
H126 C130 0.949 . S
C127 C128 1.349 . S
C127 C129 1.327 . S
C127 H150 0.950 . S
C128 C127 1.349 . S
C128 C140 1.349 . S
C129 C127 1.327 . S
C129 C145 1.429 . S
C129 H151 0.950 . S
C130 H126 0.949 . S
C130 C138 1.574 . S
C130 C146 1.368 . S
H131 C139 0.950 . S
H132 C137 0.950 . S
H133 C138 0.949 . S
H134 C140 0.950 . S
H135 C141 0.950 . S
H136 C142 0.949 . S
C137 H132 0.950 . S
C137 C139 1.327 . S
C137 C143 1.429 . S
C138 C130 1.574 . S
C138 H133 0.949 . S
C138 C144 1.368 . S
C139 C123 1.349 . S
C139 H131 0.950 . S
C139 C137 1.327 . S
C140 C128 1.349 . S
C140 H134 0.950 . S
C140 C141 1.327 . S
C141 H135 0.950 . S
C141 C140 1.327 . S
C141 C145 1.429 . S
C142 C125 1.574 . S
C142 H136 0.949 . S
C142 C146 1.368 . S
C143 C124 1.429 . S
C143 C137 1.429 . S
C143 C144 1.523 . S
C144 C125 1.368 . S
C144 C138 1.368 . S
C144 C143 1.523 . S
C145 C129 1.429 . S
C145 C141 1.429 . S
C145 C146 1.523 . S
C146 C130 1.368 . S
C146 C142 1.368 . S
C146 C145 1.523 . S
H147 C122 0.950 . S
H148 C124 0.950 . S
H149 C125 0.949 . S
H150 C127 0.950 . S
H151 C129 0.950 . S
C152 C153 1.349 . S
C152 C154 1.327 . S
C152 H177 0.950 . S
C153 C152 1.349 . S
C153 C169 1.349 . S
C154 C152 1.327 . S
C154 C173 1.429 . S
C154 H178 0.950 . S
C155 C172 1.574 . S
C155 C174 1.368 . S
C155 H179 0.949 . S
H156 C160 0.949 . S
C157 C158 1.349 . S
C157 C159 1.327 . S
C157 H180 0.950 . S
C158 C157 1.349 . S
C158 C170 1.349 . S
C159 C157 1.327 . S
C159 C175 1.429 . S
C159 H181 0.950 . S
C160 H156 0.949 . S
C160 C168 1.574 . S
C160 C176 1.368 . S
H161 C169 0.950 1_565 S
H162 C167 0.950 . S
H163 C168 0.949 . S
H164 C170 0.950 . S
H165 C171 0.950 . S
H166 C172 0.949 . S
C167 H162 0.950 . S
C167 C169 1.327 . S
C167 C173 1.429 . S
C168 C160 1.574 . S
C168 H163 0.949 . S
C168 C174 1.368 . S
C169 C153 1.349 . S
C169 H161 0.950 1_545 S
C169 C167 1.327 . S
C170 C158 1.349 . S
C170 H164 0.950 . S
C170 C171 1.327 . S
C171 H165 0.950 . S
C171 C170 1.327 . S
C171 C175 1.429 . S
C172 C155 1.574 . S
C172 H166 0.949 . S
C172 C176 1.368 . S
C173 C154 1.429 . S
C173 C167 1.429 . S
C173 C174 1.523 . S
C174 C155 1.368 . S
C174 C168 1.368 . S
C174 C173 1.523 . S
C175 C159 1.429 . S
C175 C171 1.429 . S
C175 C176 1.523 . S
C176 C160 1.368 . S
C176 C172 1.368 . S
C176 C175 1.523 . S
H177 C152 0.950 . S
H178 C154 0.950 . S
H179 C155 0.949 . S
H180 C157 0.950 . S
H181 C159 0.950 . S
C182 C183 1.349 . S
C182 C184 1.327 . S
C182 H207 0.950 . S
C183 C182 1.349 . S
C183 C199 1.349 . S
C184 C182 1.327 . S
C184 C203 1.429 . S
C184 H208 0.950 . S
C185 C202 1.574 . S
C185 C204 1.368 . S
C185 H209 0.949 . S
H186 C190 0.949 . S
C187 C188 1.349 . S
C187 C189 1.327 . S
C187 H210 0.950 . S
C188 C187 1.349 . S
C188 C200 1.349 . S
C189 C187 1.327 . S
C189 C205 1.429 . S
C189 H211 0.950 . S
C190 H186 0.949 . S
C190 C198 1.574 . S
C190 C206 1.368 . S
H191 C199 0.950 . S
H192 C197 0.950 . S
H193 C198 0.949 . S
H194 C200 0.950 . S
H195 C201 0.950 . S
H196 C202 0.949 . S
C197 H192 0.950 . S
C197 C199 1.327 . S
C197 C203 1.429 . S
C198 C190 1.574 . S
C198 H193 0.949 . S
C198 C204 1.368 . S
C199 C183 1.349 . S
C199 H191 0.950 . S
C199 C197 1.327 . S
C200 C188 1.349 . S
C200 H194 0.950 . S
C200 C201 1.327 . S
C201 H195 0.950 . S
C201 C200 1.327 . S
C201 C205 1.429 . S
C202 C185 1.574 . S
C202 H196 0.949 . S
C202 C206 1.368 . S
C203 C184 1.429 . S
C203 C197 1.429 . S
C203 C204 1.523 . S
C204 C185 1.368 . S
C204 C198 1.368 . S
C204 C203 1.523 . S
C205 C189 1.429 . S
C205 C201 1.429 . S
C205 C206 1.523 . S
C206 C190 1.368 . S
C206 C202 1.368 . S
C206 C205 1.523 . S
H207 C182 0.950 . S
H208 C184 0.950 . S
H209 C185 0.949 . S
H210 C187 0.950 . S
H211 C189 0.950 . S
C212 C213 1.349 . S
C212 C214 1.327 . S
C212 H237 0.950 . S
C213 C212 1.349 . S
C213 C229 1.349 . S
C214 C212 1.327 . S
C214 C233 1.429 . S
C214 H238 0.950 . S
C215 C232 1.574 . S
C215 C234 1.368 . S
C215 H239 0.949 . S
H216 C220 0.949 . S
C217 C218 1.349 . S
C217 C219 1.327 . S
C217 H240 0.950 . S
C218 C217 1.349 . S
C218 C230 1.349 . S
C219 C217 1.327 . S
C219 C235 1.429 . S
C219 H241 0.950 . S
C220 H216 0.949 . S
C220 C228 1.574 . S
C220 C236 1.368 . S
H221 C229 0.950 . S
H222 C227 0.950 . S
H223 C228 0.949 . S
H224 C230 0.950 . S
H225 C231 0.950 . S
H226 C232 0.949 . S
C227 H222 0.950 . S
C227 C229 1.327 . S
C227 C233 1.429 . S
C228 C220 1.574 . S
C228 H223 0.949 . S
C228 C234 1.368 . S
C229 C213 1.349 . S
C229 H221 0.950 . S
C229 C227 1.327 . S
C230 C218 1.349 . S
C230 H224 0.950 . S
C230 C231 1.327 . S
C231 H225 0.950 . S
C231 C230 1.327 . S
C231 C235 1.429 . S
C232 C215 1.574 . S
C232 H226 0.949 . S
C232 C236 1.368 . S
C233 C214 1.429 . S
C233 C227 1.429 . S
C233 C234 1.523 . S
C234 C215 1.368 . S
C234 C228 1.368 . S
C234 C233 1.523 . S
C235 C219 1.429 . S
C235 C231 1.429 . S
C235 C236 1.523 . S
C236 C220 1.368 . S
C236 C232 1.368 . S
C236 C235 1.523 . S
H237 C212 0.950 . S
H238 C214 0.950 . S
H239 C215 0.949 . S
H240 C217 0.950 . S
H241 C219 0.950 . S
C242 C243 1.349 . S
C242 C244 1.327 . S
C242 H267 0.950 . S
C243 C242 1.349 . S
C243 C259 1.349 . S
C244 C242 1.327 . S
C244 C263 1.429 . S
C244 H268 0.950 . S
C245 C262 1.574 . S
C245 C264 1.368 . S
C245 H269 0.949 . S
H246 C250 0.949 . S
C247 C248 1.349 . S
C247 C249 1.327 . S
C247 H270 0.950 . S
C248 C247 1.349 . S
C248 C260 1.349 . S
C249 C247 1.327 . S
C249 C265 1.429 . S
C249 H271 0.950 . S
C250 H246 0.949 . S
C250 C258 1.574 . S
C250 C266 1.368 . S
H251 C259 0.950 . S
H252 C257 0.950 . S
H253 C258 0.949 . S
H254 C260 0.950 . S
H255 C261 0.950 . S
H256 C262 0.949 . S
C257 H252 0.950 . S
C257 C259 1.327 . S
C257 C263 1.429 . S
C258 C250 1.574 . S
C258 H253 0.949 . S
C258 C264 1.368 . S
C259 C243 1.349 . S
C259 H251 0.950 . S
C259 C257 1.327 . S
C260 C248 1.349 . S
C260 H254 0.950 . S
C260 C261 1.327 . S
C261 H255 0.950 . S
C261 C260 1.327 . S
C261 C265 1.429 . S
C262 C245 1.574 . S
C262 H256 0.949 . S
C262 C266 1.368 . S
C263 C244 1.429 . S
C263 C257 1.429 . S
C263 C264 1.523 . S
C264 C245 1.368 . S
C264 C258 1.368 . S
C264 C263 1.523 . S
C265 C249 1.429 . S
C265 C261 1.429 . S
C265 C266 1.523 . S
C266 C250 1.368 . S
C266 C262 1.368 . S
C266 C265 1.523 . S
H267 C242 0.950 . S
H268 C244 0.950 . S
H269 C245 0.949 . S
H270 C247 0.950 . S
H271 C249 0.950 . S
C272 C273 1.349 . S
C272 C274 1.327 . S
C272 H297 0.950 . S
C273 C272 1.349 . S
C273 C289 1.349 . S
C274 C272 1.327 . S
C274 C293 1.429 . S
C274 H298 0.950 . S
C275 C292 1.574 . S
C275 C294 1.368 . S
C275 H299 0.949 . S
H276 C280 0.949 . S
C277 C278 1.349 . S
C277 C279 1.327 . S
C277 H300 0.950 . S
C278 C277 1.349 . S
C278 C290 1.349 . S
C279 C277 1.327 . S
C279 C295 1.429 . S
C279 H301 0.950 . S
C280 H276 0.949 . S
C280 C288 1.574 . S
C280 C296 1.368 . S
H281 C289 0.950 . S
H282 C287 0.950 . S
H283 C288 0.949 . S
H284 C290 0.950 . S
H285 C291 0.950 . S
H286 C292 0.949 . S
C287 H282 0.950 . S
C287 C289 1.327 . S
C287 C293 1.429 . S
C288 C280 1.574 . S
C288 H283 0.949 . S
C288 C294 1.368 . S
C289 C273 1.349 . S
C289 H281 0.950 . S
C289 C287 1.327 . S
C290 C278 1.349 . S
C290 H284 0.950 . S
C290 C291 1.327 . S
C291 H285 0.950 . S
C291 C290 1.327 . S
C291 C295 1.429 . S
C292 C275 1.574 . S
C292 H286 0.949 . S
C292 C296 1.368 . S
C293 C274 1.429 . S
C293 C287 1.429 . S
C293 C294 1.523 . S
C294 C275 1.368 . S
C294 C288 1.368 . S
C294 C293 1.523 . S
C295 C279 1.429 . S
C295 C291 1.429 . S
C295 C296 1.523 . S
C296 C280 1.368 . S
C296 C292 1.368 . S
C296 C295 1.523 . S
H297 C272 0.950 . S
H298 C274 0.950 . S
H299 C275 0.949 . S
H300 C277 0.950 . S
H301 C279 0.950 . S
C302 C303 1.349 . S
C302 C304 1.327 . S
C302 H327 0.950 . S
C303 C302 1.349 . S
C303 C319 1.349 . S
C304 C302 1.327 . S
C304 C323 1.429 . S
C304 H328 0.950 . S
C305 C322 1.574 . S
C305 C324 1.368 . S
C305 H329 0.949 . S
H306 C310 0.949 . S
C307 C308 1.349 . S
C307 C309 1.327 . S
C307 H330 0.950 . S
C308 C307 1.349 . S
C308 C320 1.349 . S
C309 C307 1.327 . S
C309 C325 1.429 . S
C309 H331 0.950 . S
C310 H306 0.949 . S
C310 C318 1.574 . S
C310 C326 1.368 . S
H311 C319 0.950 1_545 S
H312 C317 0.950 . S
H313 C318 0.949 . S
H314 C320 0.950 . S
H315 C321 0.950 . S
H316 C322 0.949 . S
C317 H312 0.950 . S
C317 C319 1.327 . S
C317 C323 1.429 . S
C318 C310 1.574 . S
C318 H313 0.949 . S
C318 C324 1.368 . S
C319 C303 1.349 . S
C319 H311 0.950 1_565 S
C319 C317 1.327 . S
C320 C308 1.349 . S
C320 H314 0.950 . S
C320 C321 1.327 . S
C321 H315 0.950 . S
C321 C320 1.327 . S
C321 C325 1.429 . S
C322 C305 1.574 . S
C322 H316 0.949 . S
C322 C326 1.368 . S
C323 C304 1.429 . S
C323 C317 1.429 . S
C323 C324 1.523 . S
C324 C305 1.368 . S
C324 C318 1.368 . S
C324 C323 1.523 . S
C325 C309 1.429 . S
C325 C321 1.429 . S
C325 C326 1.523 . S
C326 C310 1.368 . S
C326 C322 1.368 . S
C326 C325 1.523 . S
H327 C302 0.950 . S
H328 C304 0.950 . S
H329 C305 0.949 . S
H330 C307 0.950 . S
H331 C309 0.950 . S
C332 C333 1.349 . S
C332 C334 1.327 . S
C332 H357 0.950 . S
C333 C332 1.349 . S
C333 C349 1.349 . S
C334 C332 1.327 . S
C334 C353 1.429 . S
C334 H358 0.950 . S
C335 C352 1.574 . S
C335 C354 1.368 . S
C335 H359 0.949 . S
H336 C340 0.949 . S
C337 C338 1.349 . S
C337 C339 1.327 . S
C337 H360 0.950 . S
C338 C337 1.349 . S
C338 C350 1.349 . S
C339 C337 1.327 . S
C339 C355 1.429 . S
C339 H361 0.950 . S
C340 H336 0.949 . S
C340 C348 1.574 . S
C340 C356 1.368 . S
H341 C349 0.950 . S
H342 C347 0.950 . S
H343 C348 0.949 . S
H344 C350 0.950 . S
H345 C351 0.950 . S
H346 C352 0.949 . S
C347 H342 0.950 . S
C347 C349 1.327 . S
C347 C353 1.429 . S
C348 C340 1.574 . S
C348 H343 0.949 . S
C348 C354 1.368 . S
C349 C333 1.349 . S
C349 H341 0.950 . S
C349 C347 1.327 . S
C350 C338 1.349 . S
C350 H344 0.950 . S
C350 C351 1.327 . S
C351 H345 0.950 . S
C351 C350 1.327 . S
C351 C355 1.429 . S
C352 C335 1.574 . S
C352 H346 0.949 . S
C352 C356 1.368 . S
C353 C334 1.429 . S
C353 C347 1.429 . S
C353 C354 1.523 . S
C354 C335 1.368 . S
C354 C348 1.368 . S
C354 C353 1.523 . S
C355 C339 1.429 . S
C355 C351 1.429 . S
C355 C356 1.523 . S
C356 C340 1.368 . S
C356 C352 1.368 . S
C356 C355 1.523 . S
H357 C332 0.950 . S
H358 C334 0.950 . S
H359 C335 0.949 . S
H360 C337 0.950 . S
H361 C339 0.950 . S
C362 C363 1.349 . S
C362 C364 1.327 . S
C362 H387 0.950 . S
C363 C362 1.349 . S
C363 C379 1.349 . S
C364 C362 1.327 . S
C364 C383 1.429 . S
C364 H388 0.950 . S
C365 C382 1.574 . S
C365 C384 1.368 . S
C365 H389 0.949 . S
H366 C370 0.949 . S
C367 C368 1.349 . S
C367 C369 1.327 . S
C367 H390 0.950 . S
C368 C367 1.349 . S
C368 C380 1.349 . S
C369 C367 1.327 . S
C369 C385 1.429 . S
C369 H391 0.950 . S
C370 H366 0.949 . S
C370 C378 1.574 . S
C370 C386 1.368 . S
H371 C379 0.950 . S
H372 C377 0.950 . S
H373 C378 0.949 . S
H374 C380 0.950 . S
H375 C381 0.950 . S
H376 C382 0.949 . S
C377 H372 0.950 . S
C377 C379 1.327 . S
C377 C383 1.429 . S
C378 C370 1.574 . S
C378 H373 0.949 . S
C378 C384 1.368 . S
C379 C363 1.349 . S
C379 H371 0.950 . S
C379 C377 1.327 . S
C380 C368 1.349 . S
C380 H374 0.950 . S
C380 C381 1.327 . S
C381 H375 0.950 . S
C381 C380 1.327 . S
C381 C385 1.429 . S
C382 C365 1.574 . S
C382 H376 0.949 . S
C382 C386 1.368 . S
C383 C364 1.429 . S
C383 C377 1.429 . S
C383 C384 1.523 . S
C384 C365 1.368 . S
C384 C378 1.368 . S
C384 C383 1.523 . S
C385 C369 1.429 . S
C385 C381 1.429 . S
C385 C386 1.523 . S
C386 C370 1.368 . S
C386 C382 1.368 . S
C386 C385 1.523 . S
H387 C362 0.950 . S
H388 C364 0.950 . S
H389 C365 0.949 . S
H390 C367 0.950 . S
H391 C369 0.950 . S
C392 C393 1.349 . S
C392 C394 1.327 . S
C392 H417 0.950 1_655 S
C393 C392 1.349 . S
C393 C409 1.349 . S
C394 C392 1.327 . S
C394 C413 1.429 . S
C394 H418 0.950 . S
C395 C412 1.574 . S
C395 C414 1.368 . S
C395 H419 0.949 . S
H396 C400 0.949 . S
C397 C398 1.349 . S
C397 C399 1.327 . S
C397 H420 0.950 . S
C398 C397 1.349 . S
C398 C410 1.349 . S
C399 C397 1.327 . S
C399 C415 1.429 . S
C399 H421 0.950 . S
C400 H396 0.949 . S
C400 C408 1.574 . S
C400 C416 1.368 . S
H401 C409 0.950 . S
H402 C407 0.950 . S
H403 C408 0.949 . S
H404 C410 0.950 . S
H405 C411 0.950 . S
H406 C412 0.949 . S
C407 H402 0.950 . S
C407 C409 1.327 . S
C407 C413 1.429 . S
C408 C400 1.574 . S
C408 H403 0.949 . S
C408 C414 1.368 . S
C409 C393 1.349 . S
C409 H401 0.950 . S
C409 C407 1.327 . S
C410 C398 1.349 . S
C410 H404 0.950 . S
C410 C411 1.327 . S
C411 H405 0.950 . S
C411 C410 1.327 . S
C411 C415 1.429 . S
C412 C395 1.574 . S
C412 H406 0.949 . S
C412 C416 1.368 . S
C413 C394 1.429 . S
C413 C407 1.429 . S
C413 C414 1.523 . S
C414 C395 1.368 . S
C414 C408 1.368 . S
C414 C413 1.523 . S
C415 C399 1.429 . S
C415 C411 1.429 . S
C415 C416 1.523 . S
C416 C400 1.368 . S
C416 C412 1.368 . S
C416 C415 1.523 . S
H417 C392 0.950 1_455 S
H418 C394 0.950 . S
H419 C395 0.949 . S
H420 C397 0.950 . S
H421 C399 0.950 . S
C422 C423 1.349 . S
C422 C424 1.327 . S
C422 H447 0.950 . S
C423 C422 1.349 . S
C423 C439 1.349 . S
C424 C422 1.327 . S
C424 C443 1.429 . S
C424 H448 0.950 . S
C425 C442 1.574 . S
C425 C444 1.368 . S
C425 H449 0.949 . S
H426 C430 0.949 . S
C427 C428 1.349 . S
C427 C429 1.327 . S
C427 H450 0.950 . S
C428 C427 1.349 . S
C428 C440 1.349 . S
C429 C427 1.327 . S
C429 C445 1.429 . S
C429 H451 0.950 . S
C430 H426 0.949 . S
C430 C438 1.574 . S
C430 C446 1.368 . S
H431 C439 0.950 . S
H432 C437 0.950 . S
H433 C438 0.949 . S
H434 C440 0.950 . S
H435 C441 0.950 . S
H436 C442 0.949 . S
C437 H432 0.950 . S
C437 C439 1.327 . S
C437 C443 1.429 . S
C438 C430 1.574 . S
C438 H433 0.949 . S
C438 C444 1.368 . S
C439 C423 1.349 . S
C439 H431 0.950 . S
C439 C437 1.327 . S
C440 C428 1.349 . S
C440 H434 0.950 . S
C440 C441 1.327 . S
C441 H435 0.950 . S
C441 C440 1.327 . S
C441 C445 1.429 . S
C442 C425 1.574 . S
C442 H436 0.949 . S
C442 C446 1.368 . S
C443 C424 1.429 . S
C443 C437 1.429 . S
C443 C444 1.523 . S
C444 C425 1.368 . S
C444 C438 1.368 . S
C444 C443 1.523 . S
C445 C429 1.429 . S
C445 C441 1.429 . S
C445 C446 1.523 . S
C446 C430 1.368 . S
C446 C442 1.368 . S
C446 C445 1.523 . S
H447 C422 0.950 . S
H448 C424 0.950 . S
H449 C425 0.949 . S
H450 C427 0.950 . S
H451 C429 0.950 . S
C452 C453 1.349 . S
C452 C454 1.327 . S
C452 H477 0.950 . S
C453 C452 1.349 . S
C453 C469 1.349 . S
C454 C452 1.327 . S
C454 C473 1.429 . S
C454 H478 0.950 . S
C455 C472 1.574 . S
C455 C474 1.368 . S
C455 H479 0.949 . S
H456 C460 0.949 . S
C457 C458 1.349 . S
C457 C459 1.327 . S
C457 H480 0.950 . S
C458 C457 1.349 . S
C458 C470 1.349 . S
C459 C457 1.327 . S
C459 C475 1.429 . S
C459 H481 0.950 . S
C460 H456 0.949 . S
C460 C468 1.574 . S
C460 C476 1.368 . S
H461 C469 0.950 . S
H462 C467 0.950 . S
H463 C468 0.949 . S
H464 C470 0.950 . S
H465 C471 0.950 . S
H466 C472 0.949 . S
C467 H462 0.950 . S
C467 C469 1.327 . S
C467 C473 1.429 . S
C468 C460 1.574 . S
C468 H463 0.949 . S
C468 C474 1.368 . S
C469 C453 1.349 . S
C469 H461 0.950 . S
C469 C467 1.327 . S
C470 C458 1.349 . S
C470 H464 0.950 . S
C470 C471 1.327 . S
C471 H465 0.950 . S
C471 C470 1.327 . S
C471 C475 1.429 . S
C472 C455 1.574 . S
C472 H466 0.949 . S
C472 C476 1.368 . S
C473 C454 1.429 . S
C473 C467 1.429 . S
C473 C474 1.523 . S
C474 C455 1.368 . S
C474 C468 1.368 . S
C474 C473 1.523 . S
C475 C459 1.429 . S
C475 C471 1.429 . S
C475 C476 1.523 . S
C476 C460 1.368 . S
C476 C472 1.368 . S
C476 C475 1.523 . S
H477 C452 0.950 . S
H478 C454 0.950 . S
H479 C455 0.949 . S
H480 C457 0.950 . S
H481 C459 0.950 . S
C123 C11 1.936 . S
C128 C99 1.851 . S
C153 C51 1.153 . S
C158 C105 1.076 . S
C183 C7 0.751 . S
C188 C96 0.751 . S
C213 C47 1.232 . S
C218 C121 1.133 . S
C243 C10 2.076 . S
C248 C87 1.970 . S
C278 C104 2.304 . S
C273 C50 2.383 . S
C303 C56 1.137 . S
C308 C100 1.064 . S
C338 C117 1.770 . S
C333 C19 1.842 . S
C368 C84 2.146 . S
C363 C59 2.250 . S
C398 C120 2.022 . S
C393 C2 2.105 1_655 S
C428 C83 1.282 . S
C423 C42 1.366 . S
C458 C108 0.753 . S
C453 C16 0.755 . S
