# Generated by pormake.
# Topology anh, (6,3)-cn, num edge types: 1
# Building blocks:
#     Node 0, Type 0, BuildingBlock: MIFKUJ_clean_sbu_0, # of connection points: 6
#     Node 1, Type 0, BuildingBlock: MIFKUJ_clean_sbu_0, # of connection points: 6
#     Node 2, Type 0, BuildingBlock: MIFKUJ_clean_sbu_0, # of connection points: 6
#     Node 3, Type 1, BuildingBlock: OLANEW_clean_sbu_2, # of connection points: 3
#     Node 4, Type 1, BuildingBlock: OLANEW_clean_sbu_2, # of connection points: 3
#     Node 5, Type 1, BuildingBlock: OLANEW_clean_sbu_2, # of connection points: 3
#     Node 6, Type 1, BuildingBlock: OLANEW_clean_sbu_2, # of connection points: 3
#     Node 7, Type 1, BuildingBlock: OLANEW_clean_sbu_2, # of connection points: 3
#     Node 8, Type 1, BuildingBlock: OLANEW_clean_sbu_2, # of connection points: 3
#     Edge 9, Type (0, 1), BuildingBlock: MIFKUJ_clean_linker_0, # of connection points: 2
#     Edge 10, Type (0, 1), BuildingBlock: MIFKUJ_clean_linker_0, # of connection points: 2
#     Edge 11, Type (0, 1), BuildingBlock: MIFKUJ_clean_linker_0, # of connection points: 2
#     Edge 12, Type (0, 1), BuildingBlock: MIFKUJ_clean_linker_0, # of connection points: 2
#     Edge 13, Type (0, 1), BuildingBlock: MIFKUJ_clean_linker_0, # of connection points: 2
#     Edge 14, Type (0, 1), BuildingBlock: MIFKUJ_clean_linker_0, # of connection points: 2
#     Edge 15, Type (0, 1), BuildingBlock: MIFKUJ_clean_linker_0, # of connection points: 2
#     Edge 16, Type (0, 1), BuildingBlock: MIFKUJ_clean_linker_0, # of connection points: 2
#     Edge 17, Type (0, 1), BuildingBlock: MIFKUJ_clean_linker_0, # of connection points: 2
#     Edge 18, Type (0, 1), BuildingBlock: MIFKUJ_clean_linker_0, # of connection points: 2
#     Edge 19, Type (0, 1), BuildingBlock: MIFKUJ_clean_linker_0, # of connection points: 2
#     Edge 20, Type (0, 1), BuildingBlock: MIFKUJ_clean_linker_0, # of connection points: 2
#     Edge 21, Type (0, 1), BuildingBlock: MIFKUJ_clean_linker_0, # of connection points: 2
#     Edge 22, Type (0, 1), BuildingBlock: MIFKUJ_clean_linker_0, # of connection points: 2
#     Edge 23, Type (0, 1), BuildingBlock: MIFKUJ_clean_linker_0, # of connection points: 2
#     Edge 24, Type (0, 1), BuildingBlock: MIFKUJ_clean_linker_0, # of connection points: 2
#     Edge 25, Type (0, 1), BuildingBlock: MIFKUJ_clean_linker_0, # of connection points: 2
#     Edge 26, Type (0, 1), BuildingBlock: MIFKUJ_clean_linker_0, # of connection points: 2
# Relax obj value: 0.071
# Max RMSD: 0.125
# Mean RMSD: 0.106
data_MOF--net-anh--node1-MIFKUJ_clean_sbu_0--node2-OLANEW_clean_sbu_2--edge1-MIFKUJ_clean_linker_0
_symmetry_space_group_name_H-M    P1
_symmetry_Int_Tables_number       1
_symmetry_cell_setting            triclinic
loop_
_symmetry_equiv_pos_as_xyz
'x, y, z'
_cell_length_a     43.52895
_cell_length_b     43.436379
_cell_length_c     64.53956
_cell_angle_alpha  93.733096
_cell_angle_beta   91.002687
_cell_angle_gamma 119.98405
loop_
_atom_site_label
_atom_site_type_symbol
_atom_site_fract_x
_atom_site_fract_y
_atom_site_fract_z
_atom_type_partial_charge
Zn0 Zn 0.01889 0.54277 0.15852 0.0
Zn1 Zn 0.94987 0.46646 0.15801 0.0
C2 C 0.07675 0.53469 0.17201 0.0
O3 O 0.07888 0.55843 0.18655 0.0
C4 C 0.89891 0.48084 0.14089 0.0
O5 O 0.89713 0.45608 0.12726 0.0
O6 O 0.05354 0.59488 0.15671 0.0
O7 O -0.01125 0.52645 0.13173 0.0
O8 O 0.97536 0.47056 0.1317 0.0
C9 C 0.07363 0.60209 0.14154 0.0
O10 O 0.06875 0.576 0.1279 0.0
O11 O 0.05089 0.52135 0.15841 0.0
C12 C 0.88746 0.41036 0.17163 0.0
O13 O 0.89163 0.4377 0.1839 0.0
O14 O 0.91097 0.41525 0.15876 0.0
O15 O 0.97747 0.4798 0.18561 0.0
O16 O -0.00328 0.53735 0.18621 0.0
O17 O 0.92232 0.49262 0.15592 0.0
C18 C 0.98271 0.49755 0.12183 0.0
C19 C 0.98808 0.50974 0.19578 0.0
Zn20 Zn 0.52139 0.03398 0.4951 0.0
Zn21 Zn 0.5109 0.94775 0.4886 0.0
C22 C 0.58755 0.08539 0.51522 0.0
O23 O 0.56586 0.0858 0.52901 0.0
C24 C 0.43282 0.9178 0.48464 0.0
O25 O 0.43921 0.94082 0.47078 0.0
O26 O 0.50975 0.073 0.50016 0.0
O27 O 0.51031 0.01682 0.46488 0.0
O28 O 0.51616 0.96891 0.46108 0.0
C29 C 0.49174 0.08112 0.48834 0.0
O30 O 0.47459 0.06029 0.4715 0.0
O31 O 0.57481 0.06206 0.49973 0.0
C32 C 0.55275 0.91193 0.49345 0.0
O33 O 0.57377 0.93934 0.50659 0.0
O34 O 0.5262 0.91111 0.48434 0.0
O35 O 0.53673 0.97931 0.51478 0.0
O36 O 0.49958 -0.00053 0.51698 0.0
O37 O 0.45871 0.91764 0.49397 0.0
C38 C 0.51279 -0.00664 0.4534 0.0
C39 C 0.52069 0.99153 0.52578 0.0
Zn40 Zn 0.54842 0.53812 0.82434 0.0
Zn41 Zn 0.4708 0.53143 0.82086 0.0
C42 C 0.52965 0.46981 0.83963 0.0
O43 O 0.54092 0.48872 0.85767 0.0
C44 C 0.48598 0.59584 0.80522 0.0
O45 O 0.46195 0.57182 0.79146 0.0
O46 O 0.60105 0.55646 0.82501 0.0
O47 O 0.53596 0.54996 0.79685 0.0
O48 O 0.47899 0.50965 0.79461 0.0
C49 C 0.61132 0.54374 0.81015 0.0
O50 O 0.58792 0.52237 0.79526 0.0
O51 O 0.52842 0.48471 0.82354 0.0
C52 C 0.41247 0.53683 0.83383 0.0
O53 O 0.4384 0.56082 0.84669 0.0
O54 O 0.41917 0.51829 0.82057 0.0
O55 O 0.48033 0.51737 0.8482 0.0
O56 O 0.53768 0.55602 0.85135 0.0
O57 O 0.4971 0.58525 0.82001 0.0
C58 C 0.50797 0.52782 0.78593 0.0
C59 C 0.50852 0.53675 0.8596 0.0
O60 O 0.49434 0.021 0.22266 0.0
Cd61 Cd 0.49084 0.0251 0.18522 0.0
O62 O 0.50421 0.97601 0.21982 0.0
Cd63 Cd 0.4848 0.96281 0.18728 0.0
O64 O 0.43572 0.92542 0.16923 0.0
C65 C 0.40763 0.92103 0.17746 0.0
O66 O 0.41076 0.94057 0.19465 0.0
C67 C 0.50221 -1e-05 0.23109 0.0
C68 C 0.55319 0.08573 0.17593 0.0
O69 O 0.52599 0.08761 0.18141 0.0
O70 O 0.55057 0.05492 0.17417 0.0
O71 O 0.56665 0.51661 0.55759 0.0
Cd72 Cd 0.57582 0.51185 0.52059 0.0
O73 O 0.50987 0.49812 0.55205 0.0
Cd74 Cd 0.51802 0.51341 0.5202 0.0
O75 O 0.52897 0.55876 0.50258 0.0
C76 C 0.55567 0.5886 0.50918 0.0
O77 O 0.57615 0.58954 0.5247 0.0
C78 C 0.53613 0.50605 0.56457 0.0
C79 C 0.56244 0.44258 0.51055 0.0
O80 O 0.59349 0.46775 0.51706 0.0
O81 O 0.5379 0.45039 0.50815 0.0
O82 O 0.01239 0.52934 0.89213 0.0
Cd83 Cd 0.02021 0.53569 0.85494 0.0
O84 O 0.97254 0.47225 0.88776 0.0
Cd85 Cd 0.95955 0.47828 0.85603 0.0
O86 O 0.9239 0.49175 0.83979 0.0
C87 C 0.91898 0.51509 0.84968 0.0
O88 O 0.93682 0.53009 0.86758 0.0
C89 C -0.00657 0.49967 0.89974 0.0
C90 C 0.08175 0.53373 0.84577 0.0
O91 O 0.08308 0.56303 0.85197 0.0
O92 O 0.05115 0.50538 0.84333 0.0
O93 O 0.017 0.53269 0.43053 0.0
Cd94 Cd 0.02238 0.5432 0.46841 0.0
O95 O 0.96126 0.48888 0.42556 0.0
Cd96 Cd 0.94802 0.47494 0.45746 0.0
O97 O 0.91112 0.4321 0.47588 0.0
C98 C 0.90148 0.4006 0.46831 0.0
O99 O 0.91536 0.39653 0.45115 0.0
C100 C -0.00966 0.51145 0.41836 0.0
C101 C 0.0858 0.60729 0.479 0.0
O102 O 0.08433 0.57716 0.4797 0.0
O103 O 0.05716 0.60715 0.47386 0.0
O104 O 0.53285 0.01445 0.75883 0.0
Cd105 Cd 0.52407 0.00651 0.79583 0.0
O106 O 0.55762 0.0728 0.75712 0.0
Cd107 Cd 0.55278 0.0915 0.78856 0.0
O108 O 0.55244 0.13909 0.802 0.0
C109 C 0.53178 0.13986 0.81546 0.0
O110 O 0.50922 0.11023 0.82343 0.0
C111 C 0.54687 0.04169 0.74844 0.0
C112 C 0.52146 0.94234 0.80316 0.0
O113 O 0.49362 0.94287 0.79695 0.0
O114 O 0.55046 0.97225 0.80653 0.0
O115 O 0.51272 0.50851 0.0918 0.0
Cd116 Cd 0.51677 0.50126 0.12881 0.0
O117 O 0.48432 0.53885 0.09056 0.0
Cd118 Cd 0.46451 0.53496 0.12178 0.0
O119 O 0.41824 0.53175 0.1369 0.0
C120 C 0.38985 0.51796 0.12525 0.0
O121 O 0.39038 0.506 0.1061 0.0
C122 C 0.50085 0.5249 0.08168 0.0
C123 C 0.58068 0.50193 0.1367 0.0
O124 O 0.55233 0.47324 0.12989 0.0
O125 O 0.57873 0.53024 0.14041 0.0
H126 H 0.13457 0.55755 0.19896 0.0
H127 H 0.1872 0.55223 0.19357 0.0
H128 H 0.14028 0.49235 0.13448 0.0
H129 H 0.08725 0.49705 0.13991 0.0
H130 H 0.17313 0.46431 0.15456 0.0
H131 H 0.20174 0.58202 0.13865 0.0
H132 H 0.209 0.64188 0.14536 0.0
H133 H 0.28606 0.66619 0.1954 0.0
H134 H 0.27861 0.6061 0.18933 0.0
H135 H 0.32534 0.48829 0.10407 0.0
H136 H 0.27214 0.48862 0.11487 0.0
H137 H 0.32648 0.54534 0.17344 0.0
H138 H 0.3803 0.54548 0.1626 0.0
H139 H 0.29085 0.57469 0.15614 0.0
H140 H 0.26348 0.45747 0.17115 0.0
H141 H 0.25677 0.39792 0.16381 0.0
H142 H 0.17843 0.37365 0.11455 0.0
H143 H 0.18502 0.43325 0.12141 0.0
C144 C 0.13525 0.54291 0.1849 0.0
C145 C 0.10675 0.5279 0.1698 0.0
C146 C 0.16549 0.54008 0.18179 0.0
C147 C 0.16803 0.52249 0.16343 0.0
C148 C 0.13901 0.5062 0.14872 0.0
C149 C 0.10868 0.50888 0.15186 0.0
C150 C 0.20115 0.52166 0.15931 0.0
C151 C 0.19881 0.48849 0.15472 0.0
C152 C 0.23488 0.55318 0.16001 0.0
C153 C 0.23922 0.58931 0.16372 0.0
C154 C 0.21993 0.59995 0.15124 0.0
C155 C 0.22413 0.63397 0.15491 0.0
C156 C 0.24786 0.65776 0.17087 0.0
C157 C 0.26757 0.64765 0.18312 0.0
C158 C 0.26333 0.61361 0.17958 0.0
C159 C 0.32604 0.50067 0.11932 0.0
C160 C 0.35714 0.51682 0.13248 0.0
C161 C 0.29546 0.50069 0.12551 0.0
C162 C 0.29514 0.51665 0.14506 0.0
C163 C 0.32609 0.53277 0.1583 0.0
C164 C 0.35678 0.53271 0.15212 0.0
C165 C 0.26274 0.51738 0.15127 0.0
C166 C 0.26521 0.55053 0.15619 0.0
C167 C 0.22912 0.4859 0.15081 0.0
C168 C 0.22497 0.44995 0.1467 0.0
C169 C 0.24501 0.43954 0.15866 0.0
C170 C 0.2412 0.40575 0.1546 0.0
C171 C 0.21725 0.38205 0.1387 0.0
C172 C 0.19699 0.39205 0.12685 0.0
C173 C 0.20073 0.42581 0.13084 0.0
H174 H 0.21433 0.3559 0.13557 0.0
H175 H 0.25106 0.68404 0.17377 0.0
H176 H 0.6182 0.14641 0.5414 0.0
H177 H 0.67507 0.20058 0.5383 0.0
H178 H 0.69654 0.14872 0.48592 0.0
H179 H 0.63971 0.09422 0.489 0.0
H180 H 0.75607 0.19042 0.51191 0.0
H181 H 0.6617 0.20126 0.47875 0.0
H182 H 0.6061 0.20328 0.47666 0.0
H183 H 0.64889 0.29046 0.5241 0.0
H184 H 0.70455 0.28857 0.52676 0.0
H185 H 0.87556 0.33064 0.45515 0.0
H186 H 0.82627 0.27838 0.46833 0.0
H187 H 0.81385 0.34579 0.51549 0.0
H188 H 0.86306 0.39862 0.50208 0.0
H189 H 0.75139 0.29859 0.4968 0.0
H190 H 0.84712 0.29192 0.52826 0.0
H191 H 0.90368 0.29181 0.53024 0.0
H192 H 0.85932 0.19838 0.48717 0.0
H193 H 0.80263 0.1982 0.4847 0.0
C194 C 0.63528 0.1462 0.52947 0.0
C195 C 0.62429 0.11598 0.51538 0.0
C196 C 0.6677 0.17733 0.52764 0.0
C197 C 0.68976 0.17888 0.51166 0.0
C198 C 0.67983 0.14815 0.4983 0.0
C199 C 0.64733 0.11701 0.50008 0.0
C200 C 0.72229 0.21292 0.50816 0.0
C201 C 0.75507 0.21403 0.50846 0.0
C202 C 0.72107 0.24406 0.50434 0.0
C203 C 0.68719 0.24453 0.50311 0.0
C204 C 0.65912 0.22058 0.48892 0.0
C205 C 0.62762 0.22177 0.48759 0.0
C206 C 0.62402 0.24704 0.50021 0.0
C207 C 0.65176 0.27095 0.51432 0.0
C208 C 0.68327 0.26981 0.51575 0.0
C209 C 0.86264 0.33446 0.46846 0.0
C210 C 0.87329 0.36889 0.47754 0.0
C211 C 0.83452 0.30444 0.47607 0.0
C212 C 0.81654 0.30803 0.49308 0.0
C213 C 0.82738 0.34234 0.50239 0.0
C214 C 0.85558 0.3725 0.49475 0.0
C215 C 0.78523 0.27602 0.50021 0.0
C216 C 0.7526 0.27522 0.50056 0.0
C217 C 0.78661 0.24525 0.50476 0.0
C218 C 0.82068 0.24522 0.50618 0.0
C219 C 0.8495 0.27151 0.51909 0.0
C220 C 0.88157 0.27147 0.52032 0.0
C221 C 0.88511 0.24515 0.50881 0.0
C222 C 0.85655 0.21877 0.49607 0.0
C223 C 0.82442 0.21869 0.49477 0.0
H224 H 0.90997 0.24516 0.50979 0.0
H225 H 0.59982 0.24825 0.49898 0.0
H226 H 0.53595 0.65385 0.83036 0.0
H227 H 0.54837 0.71554 0.83088 0.0
H228 H 0.46982 0.68467 0.78024 0.0
H229 H 0.45831 0.62374 0.77915 0.0
H230 H 0.52278 0.74577 0.77417 0.0
H231 H 0.45326 0.69532 0.83263 0.0
H232 H 0.43895 0.66559 0.86524 0.0
H233 H 0.53473 0.75214 0.8956 0.0
H234 H 0.54987 0.78214 0.86304 0.0
H235 H 0.47007 0.87575 0.78775 0.0
H236 H 0.47017 0.81967 0.7893 0.0
H237 H 0.5702 0.87498 0.82524 0.0
H238 H 0.57073 0.93153 0.82343 0.0
H239 H 0.51324 0.80564 0.83988 0.0
H240 H 0.57759 0.85751 0.77939 0.0
H241 H 0.58568 0.88517 0.74624 0.0
H242 H 0.4913 0.79246 0.71921 0.0
H243 H 0.48233 0.76447 0.75231 0.0
C244 C 0.52165 0.66036 0.8192 0.0
C245 C 0.49604 0.63382 0.80478 0.0
C246 C 0.5286 0.69559 0.81959 0.0
C247 C 0.50962 0.70475 0.80581 0.0
C248 C 0.48485 0.67842 0.79103 0.0
C249 C 0.47823 0.64345 0.79048 0.0
C250 C 0.51455 0.74134 0.80694 0.0
C251 C 0.52051 0.75868 0.78855 0.0
C252 C 0.51204 0.75861 0.82572 0.0
C253 C 0.50291 0.74076 0.84534 0.0
C254 C 0.4714 0.70788 0.84622 0.0
C255 C 0.46312 0.691 0.86469 0.0
C256 C 0.48597 0.70692 0.88246 0.0
C257 C 0.5171 0.73981 0.88181 0.0
C258 C 0.52554 0.75676 0.86335 0.0
C259 C 0.49199 0.87601 0.79613 0.0
C260 C 0.52045 0.90811 0.80543 0.0
C261 C 0.49202 0.84395 0.79695 0.0
C262 C 0.52027 0.84328 0.8073 0.0
C263 C 0.54818 0.87502 0.81719 0.0
C264 C 0.54847 0.90726 0.81608 0.0
C265 C 0.52094 0.80948 0.80711 0.0
C266 C 0.51598 0.79277 0.82562 0.0
C267 C 0.52355 0.79238 0.78838 0.0
C268 C 0.52913 0.80903 0.76839 0.0
C269 C 0.5584 0.84314 0.76643 0.0
C270 C 0.56317 0.85886 0.74764 0.0
C271 C 0.53897 0.84062 0.73065 0.0
C272 C 0.51 0.80657 0.73239 0.0
C273 C 0.50508 0.79076 0.75116 0.0
H274 H 0.5427 0.85282 0.71611 0.0
H275 H 0.47952 0.69382 0.89676 0.0
H276 H 0.88879 0.52483 0.16904 0.0
H277 H 0.83823 0.53494 0.16948 0.0
H278 H 0.79432 0.46787 0.11214 0.0
H279 H 0.84497 0.45848 0.1113 0.0
H280 H 0.78391 0.52164 0.11113 0.0
H281 H 0.76442 0.43614 0.16006 0.0
H282 H 0.7787 0.41266 0.19026 0.0
H283 H 0.78557 0.49898 0.23038 0.0
H284 H 0.77147 0.52309 0.20034 0.0
H285 H 0.59802 0.45425 0.11916 0.0
H286 H 0.65573 0.45738 0.12132 0.0
H287 H 0.69843 0.5538 0.16221 0.0
H288 H 0.6409 0.55148 0.15969 0.0
H289 H 0.71169 0.49129 0.17317 0.0
H290 H 0.72474 0.57216 0.12105 0.0
H291 H 0.7053 0.58815 0.08941 0.0
H292 H 0.70569 0.50144 0.05367 0.0
H293 H 0.7246 0.4846 0.08519 0.0
C294 C 0.86862 0.51268 0.15637 0.0
C295 C 0.87081 0.49063 0.14022 0.0
C296 C 0.83958 0.51826 0.15672 0.0
C297 C 0.81207 0.50164 0.14104 0.0
C298 C 0.81508 0.48092 0.12446 0.0
C299 C 0.8441 0.47549 0.12404 0.0
C300 C 0.77948 0.50458 0.14212 0.0
C301 C 0.76817 0.51491 0.12471 0.0
C302 C 0.75885 0.49601 0.15984 0.0
C303 C 0.76733 0.48165 0.17793 0.0
C304 C 0.76925 0.45026 0.1753 0.0
C305 C 0.77726 0.43681 0.19239 0.0
C306 C 0.78324 0.45442 0.21222 0.0
C307 C 0.78103 0.48542 0.215 0.0
C308 C 0.77297 0.49897 0.19796 0.0
C309 C 0.61958 0.476 0.12874 0.0
C310 C 0.61493 0.50266 0.13924 0.0
C311 C 0.65252 0.47777 0.12991 0.0
C312 C 0.68124 0.50584 0.14188 0.0
C313 C 0.6765 0.53193 0.15291 0.0
C314 C 0.6437 0.5306 0.1514 0.0
C315 C 0.7164 0.50823 0.14223 0.0
C316 C 0.72794 0.49864 0.15981 0.0
C317 C 0.73683 0.51667 0.12451 0.0
C318 C 0.72573 0.52691 0.10552 0.0
C319 C 0.72035 0.55629 0.10649 0.0
C320 C 0.7095 0.56556 0.08857 0.0
C321 C 0.70417 0.54576 0.06955 0.0
C322 C 0.70978 0.51672 0.06841 0.0
C323 C 0.72059 0.50733 0.0863 0.0
H324 H 0.69577 0.55298 0.05569 0.0
H325 H 0.78946 0.44397 0.22543 0.0
H326 H 0.41084 0.8636 0.51021 0.0
H327 H 0.35075 0.81345 0.51241 0.0
H328 H 0.31098 0.85716 0.46811 0.0
H329 H 0.37107 0.90767 0.46588 0.0
H330 H 0.26585 0.8285 0.50047 0.0
H331 H 0.32968 0.79426 0.4523 0.0
H332 H 0.37914 0.78539 0.44189 0.0
H333 H 0.35616 0.71256 0.48899 0.0
H334 H 0.30729 0.72177 0.50004 0.0
H335 H 0.10287 0.6726 0.46662 0.0
H336 H 0.16062 0.72732 0.47053 0.0
H337 H 0.20329 0.67374 0.50492 0.0
H338 H 0.14598 0.61842 0.50005 0.0
H339 H 0.24752 0.70849 0.47892 0.0
H340 H 0.18482 0.74064 0.52773 0.0
H341 H 0.13618 0.74928 0.54016 0.0
H342 H 0.15677 0.82455 0.49489 0.0
H343 H 0.20525 0.81603 0.482 0.0
C344 C 0.3893 0.86285 0.50109 0.0
C345 C 0.39587 0.88953 0.48769 0.0
C346 C 0.35496 0.83408 0.50235 0.0
C347 C 0.32648 0.8313 0.4902 0.0
C348 C 0.3326 0.85873 0.47758 0.0
C349 C 0.367 0.88754 0.47628 0.0
C350 C 0.2908 0.79883 0.48974 0.0
C351 C 0.26168 0.80224 0.49559 0.0
C352 C 0.28559 0.76451 0.48389 0.0
C353 C 0.31506 0.75902 0.47716 0.0
C354 C 0.33544 0.77666 0.46058 0.0
C355 C 0.36341 0.77158 0.45457 0.0
C356 C 0.37098 0.74859 0.46484 0.0
C357 C 0.35051 0.73056 0.48111 0.0
C358 C 0.32269 0.73572 0.48727 0.0
C359 C 0.12448 0.67261 0.47521 0.0
C360 C 0.1199 0.64121 0.48303 0.0
C361 C 0.1575 0.70403 0.47756 0.0
C362 C 0.18641 0.70502 0.4883 0.0
C363 C 0.18154 0.67379 0.49654 0.0
C364 C 0.14872 0.64217 0.4938 0.0
C365 C 0.22221 0.73782 0.48985 0.0
C366 C 0.25148 0.73458 0.48403 0.0
C367 C 0.22756 0.77218 0.49603 0.0
C368 C 0.19847 0.77745 0.50378 0.0
C369 C 0.17882 0.75885 0.52033 0.0
C370 C 0.1513 0.76376 0.52747 0.0
C371 C 0.14334 0.78739 0.51829 0.0
C372 C 0.16294 0.80623 0.50198 0.0
C373 C 0.19047 0.8014 0.49476 0.0
H374 H 0.12202 0.79115 0.52384 0.0
H375 H 0.3926 0.74466 0.46014 0.0
H376 H 0.50161 0.4195 0.86756 0.0
H377 H 0.49651 0.36059 0.86511 0.0
H378 H 0.54377 0.38096 0.8056 0.0
H379 H 0.54622 0.43846 0.80736 0.0
H380 H 0.49682 0.31692 0.80307 0.0
H381 H 0.5903 0.38883 0.85594 0.0
H382 H 0.61534 0.42799 0.88849 0.0
H383 H 0.5385 0.34474 0.923 0.0
H384 H 0.51279 0.30543 0.89054 0.0
H385 H 0.56736 0.20236 0.79706 0.0
H386 H 0.56281 0.2559 0.80332 0.0
H387 H 0.49032 0.20732 0.8514 0.0
H388 H 0.49448 0.1532 0.84516 0.0
H389 H 0.54412 0.28116 0.86162 0.0
H390 H 0.45537 0.20745 0.8074 0.0
H391 H 0.43321 0.17027 0.77409 0.0
H392 H 0.50579 0.25924 0.74146 0.0
H393 H 0.52877 0.29682 0.77464 0.0
C394 C 0.51038 0.41102 0.85384 0.0
C395 C 0.52406 0.43331 0.83759 0.0
C396 C 0.50789 0.37754 0.85255 0.0
C397 C 0.52057 0.36644 0.83539 0.0
C398 C 0.53373 0.38866 0.81901 0.0
C399 C 0.53511 0.42156 0.81999 0.0
C400 C 0.52049 0.33195 0.83437 0.0
C401 C 0.50757 0.30947 0.81585 0.0
C402 C 0.53352 0.32134 0.85119 0.0
C403 C 0.54945 0.34447 0.8708 0.0
C404 C 0.57872 0.37907 0.87047 0.0
C405 C 0.593 0.40124 0.88889 0.0
C406 C 0.57844 0.3889 0.9078 0.0
C407 C 0.5497 0.35429 0.90833 0.0
C408 C 0.53529 0.33206 0.88992 0.0
C409 C 0.55063 0.20303 0.80911 0.0
C410 C 0.5311 0.17333 0.82053 0.0
C411 C 0.54802 0.23368 0.81261 0.0
C412 C 0.52595 0.23542 0.82767 0.0
C413 C 0.50742 0.20644 0.83968 0.0
C414 C 0.50977 0.17553 0.83604 0.0
C415 C 0.52146 0.26711 0.83018 0.0
C416 C 0.5333 0.2888 0.84897 0.0
C417 C 0.50796 0.27733 0.81352 0.0
C418 C 0.49398 0.25486 0.79353 0.0
C419 C 0.46679 0.21901 0.79314 0.0
C420 C 0.45405 0.19788 0.77428 0.0
C421 C 0.46813 0.21236 0.75567 0.0
C422 C 0.49493 0.24804 0.75589 0.0
C423 C 0.50779 0.26928 0.77471 0.0
H424 H 0.45824 0.19595 0.74108 0.0
H425 H 0.58946 0.40611 0.92205 0.0
H426 H 0.51393 0.85142 0.46743 0.0
H427 H 0.5186 0.79762 0.46501 0.0
H428 H 0.60718 0.84732 0.51048 0.0
H429 H 0.60301 0.90159 0.51286 0.0
H430 H 0.61674 0.8073 0.47898 0.0
H431 H 0.52513 0.79321 0.52497 0.0
H432 H 0.47011 0.7923 0.53458 0.0
H433 H 0.41077 0.70903 0.48611 0.0
H434 H 0.46552 0.7101 0.47589 0.0
H435 H 0.60789 0.65657 0.52176 0.0
H436 H 0.61125 0.71208 0.5134 0.0
H437 H 0.51833 0.6528 0.47148 0.0
H438 H 0.51442 0.59696 0.48003 0.0
H439 H 0.51064 0.69709 0.49798 0.0
H440 H 0.60071 0.70754 0.45335 0.0
H441 H 0.65531 0.70798 0.44332 0.0
H442 H 0.71709 0.79639 0.48853 0.0
H443 H 0.66278 0.79617 0.49904 0.0
C444 C 0.53468 0.85113 0.47678 0.0
C445 C 0.55787 0.8807 0.49053 0.0
C446 C 0.53727 0.8203 0.47537 0.0
C447 C 0.56289 0.81829 0.48779 0.0
C448 C 0.58716 0.84831 0.5008 0.0
C449 C 0.58464 0.87925 0.50219 0.0
C450 C 0.56288 0.78418 0.48821 0.0
C451 C 0.59369 0.78322 0.48329 0.0
C452 C 0.53245 0.7526 0.49333 0.0
C453 C 0.49951 0.75205 0.4995 0.0
C454 C 0.5004 0.77499 0.51622 0.0
C455 C 0.46924 0.77444 0.52178 0.0
C456 C 0.43696 0.75077 0.5109 0.0
C457 C 0.43577 0.72753 0.49447 0.0
C458 C 0.46686 0.72811 0.48877 0.0
C459 C 0.58849 0.6553 0.51048 0.0
C460 C 0.5607 0.62227 0.50169 0.0
C461 C 0.59058 0.68715 0.50562 0.0
C462 C 0.56513 0.68667 0.49174 0.0
C463 C 0.53825 0.65382 0.48224 0.0
C464 C 0.5361 0.62191 0.48712 0.0
C465 C 0.56456 0.72001 0.48879 0.0
C466 C 0.53363 0.72095 0.49338 0.0
C467 C 0.59485 0.75145 0.48334 0.0
C468 C 0.6276 0.75163 0.47711 0.0
C469 C 0.62589 0.72688 0.46128 0.0
C470 C 0.6568 0.72713 0.45548 0.0
C471 C 0.68964 0.75214 0.46532 0.0
C472 C 0.69163 0.77701 0.48094 0.0
C473 C 0.66079 0.77686 0.48681 0.0
H474 H 0.71354 0.7523 0.4608 0.0
H475 H 0.41286 0.75035 0.51526 0.0
H476 H 0.63901 0.51587 0.78214 0.0
H477 H 0.69545 0.51696 0.78564 0.0
H478 H 0.72213 0.58344 0.84321 0.0
H479 H 0.66553 0.58256 0.83986 0.0
H480 H 0.78087 0.60181 0.81787 0.0
H481 H 0.68563 0.49951 0.84552 0.0
H482 H 0.62567 0.44678 0.84345 0.0
H483 H 0.65505 0.3968 0.79425 0.0
H484 H 0.71489 0.4501 0.79541 0.0
H485 H 0.90196 0.56262 0.86791 0.0
H486 H 0.85335 0.57214 0.85774 0.0
H487 H 0.8247 0.49519 0.80477 0.0
H488 H 0.87315 0.48504 0.81506 0.0
H489 H 0.76759 0.48286 0.82566 0.0
H490 H 0.86378 0.58465 0.79868 0.0
H491 H 0.92269 0.639 0.79956 0.0
H492 H 0.89179 0.68948 0.8476 0.0
H493 H 0.83282 0.63523 0.84722 0.0
C494 C 0.65706 0.53123 0.7954 0.0
C495 C 0.64757 0.54877 0.81087 0.0
C496 C 0.68933 0.53182 0.79735 0.0
C497 C 0.7127 0.5499 0.8148 0.0
C498 C 0.70439 0.56931 0.82963 0.0
C499 C 0.67198 0.56865 0.82773 0.0
C500 C 0.74402 0.54568 0.81853 0.0
C501 C 0.77807 0.57591 0.81976 0.0
C502 C 0.74018 0.51169 0.82059 0.0
C503 C 0.70465 0.47902 0.82038 0.0
C504 C 0.67925 0.47743 0.83413 0.0
C505 C 0.64525 0.4474 0.83311 0.0
C506 C 0.63652 0.41835 0.81875 0.0
C507 C 0.66183 0.41933 0.80536 0.0
C508 C 0.69577 0.44952 0.80613 0.0
C509 C 0.88559 0.54794 0.85397 0.0
C510 C 0.89143 0.52301 0.84232 0.0
C511 C 0.85787 0.55356 0.84812 0.0
C512 C 0.83554 0.53462 0.83039 0.0
C513 C 0.84164 0.51014 0.8185 0.0
C514 C 0.86941 0.50446 0.82436 0.0
C515 C 0.80474 0.53906 0.82499 0.0
C516 C 0.77061 0.50879 0.82357 0.0
C517 C 0.80855 0.57303 0.82279 0.0
C518 C 0.84397 0.60575 0.82304 0.0
C519 C 0.86963 0.60724 0.80955 0.0
C520 C 0.90302 0.63805 0.80994 0.0
C521 C 0.911 0.66764 0.82366 0.0
C522 C 0.88558 0.66652 0.83699 0.0
C523 C 0.85215 0.63576 0.83668 0.0
H524 H 0.93687 0.69147 0.82394 0.0
H525 H 0.61019 0.39508 0.818 0.0
H526 H 0.09183 0.66247 0.16692 0.0
H527 H 0.14681 0.72006 0.16754 0.0
H528 H 0.18079 0.68071 0.11488 0.0
H529 H 0.12606 0.62315 0.11414 0.0
H530 H 0.22994 0.70844 0.14696 0.0
H531 H 0.15946 0.74442 0.10942 0.0
H532 H 0.10806 0.75226 0.10235 0.0
H533 H 0.13336 0.81904 0.15935 0.0
H534 H 0.18464 0.81118 0.16693 0.0
H535 H 0.39152 0.87171 0.14421 0.0
H536 H 0.33327 0.8202 0.1333 0.0
H537 H 0.28562 0.85241 0.1818 0.0
H538 H 0.34342 0.90413 0.19253 0.0
H539 H 0.24328 0.82872 0.14765 0.0
H540 H 0.30767 0.78805 0.18782 0.0
H541 H 0.3557 0.77659 0.19791 0.0
H542 H 0.33904 0.7158 0.13943 0.0
H543 H 0.29128 0.72741 0.12885 0.0
C544 C 0.11074 0.66627 0.15525 0.0
C545 C 0.10465 0.63819 0.14055 0.0
C546 C 0.14206 0.69925 0.15556 0.0
C547 C 0.16776 0.7047 0.14117 0.0
C548 C 0.16122 0.67708 0.12607 0.0
C549 C 0.12989 0.6442 0.12568 0.0
C550 C 0.20286 0.73785 0.14316 0.0
C551 C 0.233 0.73476 0.14673 0.0
C552 C 0.20654 0.77211 0.14335 0.0
C553 C 0.17576 0.77697 0.13882 0.0
C554 C 0.1539 0.76054 0.12054 0.0
C555 C 0.12481 0.76504 0.11642 0.0
C556 C 0.1174 0.78607 0.13041 0.0
C557 C 0.13912 0.80273 0.14853 0.0
C558 C 0.16823 0.7983 0.15274 0.0
C559 C 0.36857 0.86805 0.15239 0.0
C560 C 0.37217 0.89187 0.16935 0.0
C561 C 0.33532 0.8385 0.1462 0.0
C562 C 0.30517 0.83215 0.15694 0.0
C563 C 0.3085 0.85672 0.1733 0.0
C564 C 0.34164 0.88625 0.17946 0.0
C565 C 0.27039 0.79925 0.15181 0.0
C566 C 0.24031 0.80239 0.14766 0.0
C567 C 0.26659 0.76488 0.15143 0.0
C568 C 0.29633 0.75917 0.15739 0.0
C569 C 0.31462 0.77272 0.17698 0.0
C570 C 0.34171 0.76607 0.18282 0.0
C571 C 0.35053 0.74562 0.16928 0.0
C572 C 0.3323 0.73179 0.14986 0.0
C573 C 0.30526 0.73844 0.14392 0.0
H574 H 0.37141 0.74038 0.17386 0.0
H575 H 0.09487 0.78953 0.1272 0.0
H576 H 0.54295 0.13846 0.51227 0.0
H577 H 0.55243 0.1985 0.51603 0.0
H578 H 0.4579 0.16495 0.47672 0.0
H579 H 0.44916 0.10456 0.4721 0.0
H580 H 0.50573 0.22404 0.46562 0.0
H581 H 0.46521 0.18619 0.53305 0.0
H582 H 0.46419 0.16003 0.56601 0.0
H583 H 0.57261 0.24123 0.58134 0.0
H584 H 0.57439 0.26767 0.54836 0.0
H585 H 0.5016 0.38461 0.49299 0.0
H586 H 0.48789 0.32251 0.48894 0.0
H587 H 0.59173 0.35405 0.51609 0.0
H588 H 0.60574 0.41619 0.52012 0.0
H589 H 0.53693 0.29599 0.53356 0.0
H590 H 0.57608 0.33301 0.46551 0.0
H591 H 0.57582 0.35862 0.43255 0.0
H592 H 0.46677 0.27776 0.4188 0.0
H593 H 0.46624 0.25195 0.45183 0.0
C594 C 0.52385 0.14364 0.5046 0.0
C595 C 0.49511 0.11665 0.49198 0.0
C596 C 0.52928 0.17816 0.50682 0.0
C597 C 0.50563 0.18642 0.49693 0.0
C598 C 0.47655 0.15933 0.48454 0.0
C599 C 0.47145 0.12479 0.48198 0.0
C600 C 0.51226 0.22364 0.49879 0.0
C601 C 0.51182 0.23944 0.48055 0.0
C602 C 0.52113 0.24429 0.51819 0.0
C603 C 0.51995 0.22882 0.5382 0.0
C604 C 0.48885 0.1984 0.54343 0.0
C605 C 0.48815 0.18353 0.56211 0.0
C606 C 0.51831 0.19896 0.57576 0.0
C607 C 0.54924 0.22934 0.57077 0.0
C608 C 0.5501 0.24433 0.55211 0.0
C609 C 0.52163 0.37838 0.49795 0.0
C610 C 0.55478 0.40534 0.50686 0.0
C611 C 0.51377 0.3429 0.49559 0.0
C612 C 0.53884 0.33374 0.50218 0.0
C613 C 0.57202 0.3606 0.51094 0.0
C614 C 0.58002 0.3961 0.51313 0.0
C615 C 0.53019 0.29601 0.50045 0.0
C616 C 0.53041 0.28027 0.51871 0.0
C617 C 0.52071 0.27533 0.48112 0.0
C618 C 0.52101 0.29079 0.46125 0.0
C619 C 0.55195 0.32088 0.45555 0.0
C620 C 0.55196 0.33539 0.43683 0.0
C621 C 0.52126 0.31989 0.42362 0.0
C622 C 0.49051 0.28977 0.42907 0.0
C623 C 0.49035 0.27518 0.44777 0.0
H624 H 0.52133 0.33116 0.40914 0.0
H625 H 0.51771 0.18739 0.59021 0.0
H626 H 0.3944 0.5813 0.85479 0.0
H627 H 0.3363 0.57648 0.85549 0.0
H628 H 0.29131 0.47928 0.81496 0.0
H629 H 0.35006 0.48455 0.81368 0.0
H630 H 0.2659 0.5196 0.8032 0.0
H631 H 0.27713 0.47798 0.86764 0.0
H632 H 0.30582 0.47877 0.9011 0.0
H633 H 0.30774 0.57523 0.923 0.0
H634 H 0.27951 0.57532 0.88955 0.0
H635 H 0.08819 0.47901 0.82691 0.0
H636 H 0.14272 0.47612 0.82334 0.0
H637 H 0.20395 0.58211 0.85405 0.0
H638 H 0.14981 0.58544 0.85745 0.0
H639 H 0.21748 0.53068 0.87053 0.0
H640 H 0.20848 0.57227 0.80418 0.0
H641 H 0.17856 0.56905 0.77065 0.0
H642 H 0.16992 0.46795 0.7527 0.0
H643 H 0.19938 0.47035 0.78628 0.0
C644 C 0.37218 0.55874 0.84609 0.0
C645 C 0.3768 0.53311 0.83432 0.0
C646 C 0.33887 0.55596 0.84657 0.0
C647 C 0.30921 0.52713 0.83562 0.0
C648 C 0.31376 0.50166 0.82363 0.0
C649 C 0.3473 0.50464 0.82296 0.0
C650 C 0.27374 0.52417 0.83657 0.0
C651 C 0.25502 0.52135 0.81793 0.0
C652 C 0.2596 0.52681 0.85579 0.0
C653 C 0.27642 0.52678 0.87601 0.0
C654 C 0.28388 0.4995 0.87953 0.0
C655 C 0.30004 0.49977 0.89851 0.0
C656 C 0.30866 0.52707 0.91415 0.0
C657 C 0.30107 0.55411 0.91086 0.0
C658 C 0.28494 0.55399 0.8919 0.0
C659 C 0.11331 0.5018 0.83275 0.0
C660 C 0.11469 0.53246 0.84246 0.0
C661 C 0.1444 0.50012 0.83067 0.0
C662 C 0.17731 0.52891 0.83843 0.0
C663 C 0.17878 0.5596 0.84799 0.0
C664 C 0.14783 0.5615 0.84983 0.0
C665 C 0.2102 0.52684 0.83721 0.0
C666 C 0.22831 0.5286 0.85583 0.0
C667 C 0.22346 0.52274 0.81801 0.0
C668 C 0.20574 0.52128 0.79784 0.0
C669 C 0.19989 0.54918 0.79317 0.0
C670 C 0.18308 0.54755 0.77414 0.0
C671 C 0.17224 0.51826 0.75958 0.0
C672 C 0.17827 0.49059 0.76401 0.0
C673 C 0.19504 0.49208 0.78303 0.0
H674 H 0.15925 0.51705 0.74485 0.0
H675 H 0.32118 0.52724 0.92883 0.0
H676 H 0.8274 0.3961 0.19107 0.0
H677 H 0.77191 0.33955 0.19036 0.0
H678 H 0.81715 0.28866 0.15223 0.0
H679 H 0.87264 0.3459 0.1522 0.0
H680 H 0.75207 0.26651 0.13809 0.0
H681 H 0.80565 0.27649 0.20509 0.0
H682 H 0.83519 0.30542 0.23947 0.0
H683 H 0.74439 0.31339 0.25662 0.0
H684 H 0.71447 0.28492 0.22222 0.0
H685 H 0.61248 0.09061 0.15885 0.0
H686 H 0.67014 0.1447 0.15645 0.0
H687 H 0.62874 0.20843 0.1843 0.0
H688 H 0.571 0.1547 0.18653 0.0
H689 H 0.69364 0.22109 0.20349 0.0
H690 H 0.64158 0.21196 0.13508 0.0
H691 H 0.613 0.18174 0.10073 0.0
H692 H 0.70267 0.16968 0.08668 0.0
H693 H 0.73159 0.1994 0.1211 0.0
C694 C 0.82568 0.37288 0.1826 0.0
C695 C 0.85451 0.37543 0.17179 0.0
C696 C 0.79393 0.34046 0.18229 0.0
C697 C 0.7905 0.30961 0.17157 0.0
C698 C 0.81921 0.31207 0.16068 0.0
C699 C 0.85094 0.34473 0.16074 0.0
C700 C 0.75669 0.27509 0.17156 0.0
C701 C 0.73963 0.25628 0.15242 0.0
C702 C 0.74013 0.26188 0.19023 0.0
C703 C 0.75793 0.2788 0.211 0.0
C704 C 0.79207 0.28461 0.21614 0.0
C705 C 0.80887 0.3009 0.23564 0.0
C706 C 0.7917 0.3113 0.2502 0.0
C707 C 0.75766 0.30534 0.24531 0.0
C708 C 0.74074 0.28908 0.22583 0.0
C709 C 0.61556 0.11619 0.16426 0.0
C710 C 0.5872 0.11839 0.1729 0.0
C711 C 0.64847 0.14703 0.16284 0.0
C712 C 0.65362 0.18048 0.17021 0.0
C713 C 0.62525 0.18281 0.17855 0.0
C714 C 0.59225 0.1521 0.17973 0.0
C715 C 0.68898 0.21299 0.17007 0.0
C716 C 0.70631 0.2313 0.1892 0.0
C717 C 0.70592 0.22542 0.15144 0.0
C718 C 0.68856 0.20752 0.13076 0.0
C719 C 0.65505 0.20255 0.12475 0.0
C720 C 0.63883 0.18558 0.10525 0.0
C721 C 0.65596 0.17369 0.09155 0.0
C722 C 0.6894 0.17884 0.09732 0.0
C723 C 0.70573 0.19576 0.11681 0.0
H724 H 0.64336 0.16058 0.07646 0.0
H725 H 0.80476 0.32392 0.26529 0.0
H726 H 0.00505 0.55224 0.09688 0.0
H727 H 0.00634 0.54924 0.0591 0.0
H728 H 0.96354 0.43545 0.0569 0.0
H729 H 0.96283 0.43832 0.09492 0.0
H730 H 0.01597 0.4651 0.03071 0.0
H731 H 0.91078 0.46906 0.04445 0.0
H732 H 0.87468 0.49169 0.06126 0.0
H733 H 0.93621 0.59198 0.03516 0.0
H734 H 0.97311 0.57016 0.01848 0.0
H735 H 0.96605 0.43975 0.92103 0.0
H736 H 0.96468 0.43681 0.95882 0.0
H737 H 0.02046 0.5517 0.96763 0.0
H738 H 0.02236 0.55496 0.92998 0.0
H739 H 0.958 0.51722 0.99004 0.0
H740 H 0.06453 0.51243 0.97752 0.0
H741 H 0.09954 0.48837 0.96082 0.0
H742 H 0.03236 0.38678 0.98426 0.0
H743 H -0.00339 0.41011 0.00087 0.0
C744 C -0.00416 0.52652 0.0884 0.0
C745 C 0.98358 0.49546 0.0989 0.0
C746 C -0.00348 0.52485 0.06678 0.0
C747 C 0.9845 0.49204 0.05516 0.0
C748 C 0.97282 0.46102 0.06558 0.0
C749 C 0.97234 0.4627 0.08728 0.0
C750 C 0.98412 0.49036 0.03213 0.0
C751 C 0.00279 0.47595 0.02178 0.0
C752 C 0.96728 0.50492 0.02051 0.0
C753 C 0.94491 0.51806 0.03035 0.0
C754 C 0.91679 0.49603 0.04241 0.0
C755 C 0.89616 0.5087 0.0519 0.0
C756 C 0.90319 0.54328 0.04931 0.0
C757 C 0.93082 0.56522 0.03717 0.0
C758 C 0.95158 0.5527 0.02768 0.0
C759 C 0.97826 0.46438 0.93102 0.0
C760 C -0.00571 0.49759 0.92251 0.0
C761 C 0.97751 0.46265 0.95258 0.0
C762 C -0.00752 0.49405 0.96595 0.0
C763 C 0.00874 0.52719 0.95752 0.0
C764 C 0.00992 0.52897 0.93601 0.0
C765 C -0.00974 0.49248 0.98873 0.0
C766 C 0.97097 0.50619 -0.001 0.0
C767 C 0.0062 0.47696 0.00021 0.0
C768 C 0.02764 0.46289 0.99022 0.0
C769 C 0.057 0.48485 0.97894 0.0
C770 C 0.07703 0.47137 0.96953 0.0
C771 C 0.06811 0.43603 0.97142 0.0
C772 C 0.0392 0.41413 0.98278 0.0
C773 C 0.01906 0.42747 -0.0078 0.0
H774 H 0.08366 0.42565 0.96413 0.0
H775 H 0.88719 0.55304 0.05667 0.0
H776 H 0.50759 0.04242 0.43125 0.0
H777 H 0.50772 0.04531 0.3936 0.0
H778 H 0.51632 0.95055 0.38602 0.0
H779 H 0.51668 0.94763 0.42369 0.0
H780 H 0.56182 0.00157 0.36235 0.0
H781 H 0.43774 0.94655 0.37566 0.0
H782 H 0.38545 0.94174 0.39273 0.0
H783 H 0.40489 0.03987 0.36935 0.0
H784 H 0.45762 0.04553 0.35237 0.0
H785 H 0.514 0.95609 0.25439 0.0
H786 H 0.51827 0.95761 0.29224 0.0
H787 H 0.50634 0.05057 0.29757 0.0
H788 H 0.50142 0.0489 0.25969 0.0
H789 H 0.46373 0.00244 0.32257 0.0
H790 H 0.58677 0.05698 0.30846 0.0
H791 H 0.63934 0.06232 0.2915 0.0
H792 H 0.62241 0.96604 0.31634 0.0
H793 H 0.56943 0.95986 0.33324 0.0
C794 C 0.50941 0.0221 0.42161 0.0
C795 C 0.51203 -0.00528 0.43052 0.0
C796 C 0.50939 0.02376 0.40007 0.0
C797 C 0.51173 -0.00203 0.38701 0.0
C798 C 0.51451 0.97073 0.39583 0.0
C799 C 0.51457 0.96904 0.41737 0.0
C800 C 0.51145 -0.00053 0.36413 0.0
C801 C 0.54018 0.00132 0.35359 0.0
C802 C 0.48365 0.0001 0.35283 0.0
C803 C 0.45183 -0.00336 0.36292 0.0
C804 C 0.43102 0.96725 0.37429 0.0
C805 C 0.40128 0.96434 0.38393 0.0
C806 C 0.39191 0.99053 0.38217 0.0
C807 C 0.41221 0.01963 0.37072 0.0
C808 C 0.44201 0.02268 0.36108 0.0
C809 C 0.5126 0.97707 0.26359 0.0
C810 C 0.50734 0.00236 0.254 0.0
C811 C 0.51517 0.97797 0.28524 0.0
C812 C 0.51291 0.00438 0.29774 0.0
C813 C 0.50814 0.02994 0.28822 0.0
C814 C 0.50544 0.029 0.26656 0.0
C815 C 0.51406 0.00442 0.32072 0.0
C816 C 0.48546 0.00283 0.3313 0.0
C817 C 0.54202 0.0041 0.33206 0.0
C818 C 0.57393 0.00779 0.32196 0.0
C819 C 0.59409 0.03679 0.31018 0.0
C820 C 0.624 0.04 0.3006 0.0
C821 C 0.63416 0.01449 0.3028 0.0
C822 C 0.61449 0.98576 0.31463 0.0
C823 C 0.58454 0.98241 0.32423 0.0
H824 H 0.65732 0.01702 0.29537 0.0
H825 H 0.36887 0.98824 0.38965 0.0
H826 H 0.45218 0.49253 0.75686 0.0
H827 H 0.45501 0.48656 0.71909 0.0
H828 H 0.56954 0.54707 0.72572 0.0
H829 H 0.5669 0.55404 0.76332 0.0
H830 H 0.54737 0.5694 0.69558 0.0
H831 H 0.52212 0.45456 0.715 0.0
H832 H 0.48898 0.39804 0.73139 0.0
H833 H 0.39579 0.36997 0.69286 0.0
H834 H 0.42825 0.42659 0.67641 0.0
H835 H 0.58778 0.52832 0.59581 0.0
H836 H 0.58064 0.52935 0.63325 0.0
H837 H 0.46734 0.48165 0.62222 0.0
H838 H 0.47414 0.48044 0.58464 0.0
H839 H 0.4866 0.45219 0.65402 0.0
H840 H 0.51398 0.56778 0.63425 0.0
H841 H 0.54885 0.62393 0.61775 0.0
H842 H 0.64043 0.64996 0.65727 0.0
H843 H 0.60623 0.59368 0.67381 0.0
C844 C 0.47796 0.5045 0.75026 0.0
C845 C 0.50931 0.52372 0.76309 0.0
C846 C 0.47955 0.50092 0.72868 0.0
C847 C 0.51252 0.516 0.71957 0.0
C848 C 0.5438 0.53522 0.73238 0.0
C849 C 0.54224 0.53913 0.75389 0.0
C850 C 0.51462 0.51252 0.69668 0.0
C851 C 0.53443 0.5437 0.68657 0.0
C852 C 0.49707 0.47907 0.6848 0.0
C853 C 0.47752 0.44498 0.69463 0.0
C854 C 0.49448 0.43647 0.71013 0.0
C855 C 0.47583 0.40439 0.71942 0.0
C856 C 0.44027 0.38047 0.71321 0.0
C857 C 0.42331 0.38855 0.69767 0.0
C858 C 0.44183 0.42061 0.68835 0.0
C859 C 0.56128 0.5178 0.6013 0.0
C860 C 0.53154 0.50452 0.58723 0.0
C861 C 0.55729 0.51851 0.62271 0.0
C862 C 0.52352 0.50594 0.63046 0.0
C863 C 0.49363 0.49154 0.61651 0.0
C864 C 0.49761 0.49099 0.59506 0.0
C865 C 0.51965 0.50898 0.65312 0.0
C866 C 0.49946 0.47781 0.66312 0.0
C867 C 0.53708 0.54239 0.66496 0.0
C868 C 0.55763 0.57636 0.65513 0.0
C869 C 0.54163 0.58534 0.63931 0.0
C870 C 0.56126 0.61722 0.62997 0.0
C871 C 0.59685 0.64046 0.63643 0.0
C872 C 0.61287 0.63191 0.65227 0.0
C873 C 0.59336 0.60005 0.66165 0.0
H874 H 0.61201 0.66512 0.62918 0.0
H875 H 0.42588 0.35565 0.72041 0.0
H876 H 0.48402 0.00786 0.55403 0.0
H877 H 0.49481 0.01808 0.5917 0.0
H878 H 0.58378 0.00057 0.58701 0.0
H879 H 0.57239 0.98913 0.54923 0.0
H880 H 0.54795 0.96895 0.6182 0.0
H881 H 0.59638 0.08541 0.59663 0.0
H882 H 0.5984 0.13378 0.57768 0.0
H883 H 0.51132 0.12763 0.61105 0.0
H884 H 0.5085 0.07888 0.63009 0.0
H885 H 0.59253 0.09123 0.72349 0.0
H886 H 0.59547 0.08424 0.68581 0.0
H887 H 0.50859 0.97571 0.68438 0.0
H888 H 0.50689 0.98204 0.72212 0.0
H889 H 0.55344 0.075 0.65589 0.0
H890 H 0.50919 0.92378 0.64459 0.0
H891 H 0.51608 0.87945 0.66309 0.0
H892 H 0.61188 0.96317 0.69505 0.0
H893 H 0.60585 0.00796 0.67655 0.0
C894 C 0.50592 0.0062 0.56098 0.0
C895 C 0.52743 -0.00221 0.54863 0.0
C896 C 0.51218 0.01224 0.58254 0.0
C897 C 0.54048 0.01068 0.59219 0.0
C898 C 0.56183 0.00198 0.57992 0.0
C899 C 0.55534 -0.00447 0.55833 0.0
C900 C 0.54733 0.01772 0.61512 0.0
C901 C 0.54932 0.99221 0.62646 0.0
C902 C 0.55028 0.04864 0.62588 0.0
C903 C 0.55207 0.07828 0.61469 0.0
C904 C 0.57752 0.09421 0.59985 0.0
C905 C 0.57882 0.12171 0.5891 0.0
C906 C 0.55493 0.13369 0.5931 0.0
C907 C 0.52979 0.11829 0.60795 0.0
C908 C 0.52836 0.09076 0.61877 0.0
C909 C 0.57435 0.06576 0.71514 0.0
C910 C 0.5496 0.03712 0.72576 0.0
C911 C 0.57597 0.06181 0.69359 0.0
C912 C 0.55255 0.02931 0.68217 0.0
C913 C 0.52765 0.00076 0.6928 0.0
C914 C 0.52654 0.00445 0.7144 0.0
C915 C 0.5531 0.02571 0.6591 0.0
C916 C 0.55244 0.05188 0.6477 0.0
C917 C 0.55279 -0.00392 0.64828 0.0
C918 C 0.55688 0.96925 0.65929 0.0
C919 C 0.53182 0.93272 0.65549 0.0
C920 C 0.53555 0.90751 0.666 0.0
C921 C 0.56435 0.9185 0.68027 0.0
C922 C 0.58953 0.95471 0.68404 0.0
C923 C 0.58594 0.98002 0.67356 0.0
H924 H 0.5672 0.89895 0.68838 0.0
H925 H 0.55598 0.15496 0.58473 0.0
H926 H 0.56397 0.57262 0.88882 0.0
H927 H 0.56258 0.56797 0.92637 0.0
H928 H 0.45042 0.49116 0.91945 0.0
H929 H 0.45139 0.49614 0.88201 0.0
H930 H 0.46251 0.5366 0.951 0.0
H931 H 0.51004 0.46454 0.9285 0.0
H932 H 0.54937 0.44776 0.91008 0.0
H933 H 0.63954 0.52986 0.94722 0.0
H934 H 0.60082 0.54752 0.96566 0.0
H935 H 0.50623 0.47729 0.05445 0.0
H936 H 0.50721 0.47703 0.01656 0.0
H937 H 0.50774 0.57692 0.02012 0.0
H938 H 0.50457 0.57607 0.05784 0.0
H939 H 0.54758 0.51354 0.98956 0.0
H940 H 0.46471 0.58412 0.97961 0.0
H941 H 0.41704 0.58901 -0.0031 0.0
H942 H 0.38313 0.48916 0.0229 0.0
H943 H 0.43027 0.48343 0.00553 0.0
C944 C 0.53898 0.55481 0.89529 0.0
C945 C 0.50779 0.53475 0.8824 0.0
C946 C 0.53828 0.55201 0.91674 0.0
C947 C 0.50647 0.52891 0.92569 0.0
C948 C 0.47526 0.50914 0.91289 0.0
C949 C 0.4759 0.51199 0.89147 0.0
C950 C 0.5056 0.52587 0.94846 0.0
C951 C 0.48112 0.53157 0.95944 0.0
C952 C 0.52902 0.51803 0.95937 0.0
C953 C 0.55255 0.50761 0.94833 0.0
C954 C 0.53831 0.47924 0.93262 0.0
C955 C 0.56048 0.46952 0.9222 0.0
C956 C 0.59694 0.48779 0.92744 0.0
C957 C 0.61129 0.51577 0.94316 0.0
C958 C 0.58923 0.52563 0.95361 0.0
C959 C 0.50667 0.49923 0.04711 0.0
C960 C 0.50489 0.52649 0.05903 0.0
C961 C 0.50731 0.49911 0.02545 0.0
C962 C 0.50677 0.52655 0.01535 0.0
C963 C 0.50701 0.55483 0.02742 0.0
C964 C 0.50543 0.55447 0.049 0.0
C965 C 0.50504 0.5252 -0.00777 0.0
C966 C 0.52899 0.51862 0.98116 0.0
C967 C 0.47993 0.5305 0.98108 0.0
C968 C 0.45126 0.53356 -0.00857 0.0
C969 C 0.44699 0.56315 0.98895 0.0
C970 C 0.42008 0.56607 -0.00123 0.0
C971 C 0.39715 0.53947 0.01105 0.0
C972 C 0.40099 0.50981 0.01345 0.0
C973 C 0.42782 0.50673 0.00363 0.0
H974 H 0.37636 0.5418 0.01866 0.0
H975 H 0.61406 0.48022 0.91937 0.0
H976 H 0.01413 0.56995 0.22267 0.0
H977 H 0.01903 0.57399 0.26069 0.0
H978 H 0.9725 0.45977 0.259 0.0
H979 H 0.9679 0.45548 0.22107 0.0
H980 H 0.96944 0.54665 0.28871 0.0
H981 H 0.0094 0.43938 0.29872 0.0
H982 H 0.0418 0.41404 0.28008 0.0
H983 H 0.10225 0.51161 0.25111 0.0
H984 H 0.07062 0.53772 0.26981 0.0
H985 H 0.93602 0.48135 0.38837 0.0
H986 H 0.94008 0.48538 0.35083 0.0
H987 H 0.05417 0.54944 0.35907 0.0
H988 H 0.05042 0.54585 0.39675 0.0
H989 H 0.03046 0.49463 0.32663 0.0
H990 H 0.01218 0.59069 0.34959 0.0
H991 H 0.98279 0.61928 0.36827 0.0
H992 H 0.88587 0.55125 0.3315 0.0
H993 H 0.91455 0.52186 0.3128 0.0
C994 C 0.00497 0.54568 0.23038 0.0
C995 C -0.00924 0.5124 0.21881 0.0
C996 C 0.00774 0.54805 0.25211 0.0
C997 C -0.00348 0.51724 0.26267 0.0
C998 C 0.98191 0.48396 0.25117 0.0
C999 C 0.97919 0.48156 0.22947 0.0
C1000 C -0.00039 0.51974 0.28572 0.0
C1001 C 0.98286 0.53535 0.29699 0.0
C1002 C 0.01766 0.50555 0.29655 0.0
C1003 C 0.0374 0.49038 0.28555 0.0
C1004 C 0.02975 0.4555 0.28847 0.0
C1005 C 0.04796 0.44099 0.27787 0.0
C1006 C 0.074 0.46117 0.26438 0.0
C1007 C 0.082 0.49597 0.26152 0.0
C1008 C 0.06391 0.51062 0.2721 0.0
C1009 C 0.96202 0.49625 0.38223 0.0
C1010 C -0.00709 0.51336 0.39557 0.0
C1011 C 0.96425 0.49862 0.36078 0.0
C1012 C -0.0026 0.51789 0.35223 0.0
C1013 C 0.02835 0.53448 0.36541 0.0
C1014 C 0.02612 0.5325 0.38692 0.0
C1015 C -0.00046 0.52071 0.3295 0.0
C1016 C 0.01721 0.50606 0.31832 0.0
C1017 C 0.98278 0.53623 0.31876 0.0
C1018 C 0.96543 0.55386 0.32993 0.0
C1019 C 0.98451 0.58161 0.34561 0.0
C1020 C 0.968 0.598 0.35618 0.0
C1021 C 0.93246 0.58703 0.35111 0.0
C1022 C 0.91339 0.55969 0.33543 0.0
C1023 C 0.92977 0.54318 0.32482 0.0
H1024 H 0.91973 0.59976 0.35931 0.0
H1025 H 0.08802 0.44987 0.25617 0.0
loop_
_geom_bond_atom_site_label_1
_geom_bond_atom_site_label_2
_geom_bond_distance
_geom_bond_site_symmetry_2
_ccdc_geom_bond_type
Zn0 O6 1.969 . S
Zn0 O7 1.965 . S
Zn0 O11 2.024 . S
Zn0 O16 1.969 . S
Zn1 O8 1.969 . S
Zn1 O14 1.969 . S
Zn1 O15 1.965 . S
Zn1 O17 2.024 . S
C2 O3 1.229 . S
C2 O11 1.058 . S
O3 C2 1.229 . S
C4 O5 1.229 . S
C4 O17 1.058 . S
O5 C4 1.229 . S
O6 Zn0 1.969 . S
O6 C9 1.267 . S
O7 Zn0 1.965 . S
O7 C18 1.260 1_455 S
O8 Zn1 1.969 . S
O8 C18 1.258 . S
C9 O6 1.267 . S
C9 O10 1.228 . S
O10 C9 1.228 . S
O11 Zn0 2.024 . S
O11 C2 1.058 . S
C12 O13 1.228 . S
C12 O14 1.267 . S
O13 C12 1.228 . S
O14 Zn1 1.969 . S
O14 C12 1.267 . S
O15 Zn1 1.965 . S
O15 C19 1.260 1_655 S
O16 Zn0 1.969 . S
O16 C19 1.258 . S
O17 Zn1 2.024 . S
O17 C4 1.058 . S
C18 O7 1.260 1_655 S
C18 O8 1.258 . S
C19 O15 1.260 1_455 S
C19 O16 1.258 . S
Zn20 O26 1.969 . S
Zn20 O27 1.965 . S
Zn20 O31 2.024 . S
Zn20 O36 1.969 . S
Zn21 O28 1.969 . S
Zn21 O34 1.969 . S
Zn21 O35 1.965 . S
Zn21 O37 2.024 . S
C22 O23 1.229 . S
C22 O31 1.058 . S
O23 C22 1.229 . S
C24 O25 1.229 . S
C24 O37 1.058 . S
O25 C24 1.229 . S
O26 Zn20 1.969 . S
O26 C29 1.267 . S
O27 Zn20 1.965 . S
O27 C38 1.260 . S
O28 Zn21 1.969 . S
O28 C38 1.258 1_565 S
C29 O26 1.267 . S
C29 O30 1.228 . S
O30 C29 1.228 . S
O31 Zn20 2.024 . S
O31 C22 1.058 . S
C32 O33 1.228 . S
C32 O34 1.267 . S
O33 C32 1.228 . S
O34 Zn21 1.969 . S
O34 C32 1.267 . S
O35 Zn21 1.965 . S
O35 C39 1.260 1_565 S
O36 Zn20 1.969 . S
O36 C39 1.258 . S
O37 Zn21 2.024 . S
O37 C24 1.058 . S
C38 O27 1.260 . S
C38 O28 1.258 1_545 S
C39 O35 1.260 1_545 S
C39 O36 1.258 . S
Zn40 O46 1.969 . S
Zn40 O47 1.965 . S
Zn40 O51 2.024 . S
Zn40 O56 1.969 . S
Zn41 O48 1.969 . S
Zn41 O54 1.969 . S
Zn41 O55 1.965 . S
Zn41 O57 2.024 . S
C42 O43 1.229 . S
C42 O51 1.058 . S
O43 C42 1.229 . S
C44 O45 1.229 . S
C44 O57 1.058 . S
O45 C44 1.229 . S
O46 Zn40 1.969 . S
O46 C49 1.267 . S
O47 Zn40 1.965 . S
O47 C58 1.260 . S
O48 Zn41 1.969 . S
O48 C58 1.258 . S
C49 O46 1.267 . S
C49 O50 1.228 . S
O50 C49 1.228 . S
O51 Zn40 2.024 . S
O51 C42 1.058 . S
C52 O53 1.228 . S
C52 O54 1.267 . S
O53 C52 1.228 . S
O54 Zn41 1.969 . S
O54 C52 1.267 . S
O55 Zn41 1.965 . S
O55 C59 1.260 . S
O56 Zn40 1.969 . S
O56 C59 1.258 . S
O57 Zn41 2.024 . S
O57 C44 1.058 . S
C58 O47 1.260 . S
C58 O48 1.258 . S
C59 O55 1.260 . S
C59 O56 1.258 . S
O60 Cd61 2.300 . S
O60 C67 1.275 . S
Cd61 O60 2.300 . S
Cd61 O69 2.381 . S
Cd61 O70 2.378 . S
O62 Cd63 2.385 1_545 S
O62 C67 1.255 . S
Cd63 O62 2.385 1_565 S
Cd63 O64 2.317 . S
O64 Cd63 2.317 . S
O64 C65 1.232 . S
C65 O64 1.232 . S
C65 O66 1.218 . S
O66 C65 1.218 . S
C67 O60 1.275 . S
C67 O62 1.255 . S
C68 O69 1.258 . S
C68 O70 1.256 . S
O69 Cd61 2.381 . S
O69 C68 1.258 . S
O70 Cd61 2.378 . S
O70 C68 1.256 . S
O71 Cd72 2.300 . S
O71 C78 1.275 . S
Cd72 O71 2.300 . S
Cd72 O80 2.381 . S
Cd72 O81 2.378 . S
O73 Cd74 2.385 . S
O73 C78 1.255 . S
Cd74 O73 2.385 . S
Cd74 O75 2.317 . S
O75 Cd74 2.317 . S
O75 C76 1.232 . S
C76 O75 1.232 . S
C76 O77 1.218 . S
O77 C76 1.218 . S
C78 O71 1.275 . S
C78 O73 1.255 . S
C79 O80 1.258 . S
C79 O81 1.256 . S
O80 Cd72 2.381 . S
O80 C79 1.258 . S
O81 Cd72 2.378 . S
O81 C79 1.256 . S
O82 Cd83 2.300 . S
O82 C89 1.275 . S
Cd83 O82 2.300 . S
Cd83 O91 2.381 . S
Cd83 O92 2.378 . S
O84 Cd85 2.385 1_455 S
O84 C89 1.255 . S
Cd85 O84 2.385 1_655 S
Cd85 O86 2.317 . S
O86 Cd85 2.317 . S
O86 C87 1.232 . S
C87 O86 1.232 . S
C87 O88 1.218 . S
O88 C87 1.218 . S
C89 O82 1.275 . S
C89 O84 1.255 . S
C90 O91 1.258 . S
C90 O92 1.256 . S
O91 Cd83 2.381 . S
O91 C90 1.258 . S
O92 Cd83 2.378 . S
O92 C90 1.256 . S
O93 Cd94 2.300 . S
O93 C100 1.275 . S
Cd94 O93 2.300 . S
Cd94 O102 2.381 . S
Cd94 O103 2.378 . S
O95 Cd96 2.385 . S
O95 C100 1.255 1_655 S
Cd96 O95 2.385 . S
Cd96 O97 2.317 . S
O97 Cd96 2.317 . S
O97 C98 1.232 . S
C98 O97 1.232 . S
C98 O99 1.218 . S
O99 C98 1.218 . S
C100 O93 1.275 . S
C100 O95 1.255 1_455 S
C101 O102 1.258 . S
C101 O103 1.256 . S
O102 Cd94 2.381 . S
O102 C101 1.258 . S
O103 Cd94 2.378 . S
O103 C101 1.256 . S
O104 Cd105 2.297 . S
O104 C111 1.275 1_565 S
Cd105 O104 2.297 . S
Cd105 O113 2.401 . S
Cd105 O114 2.394 . S
O106 Cd107 2.385 . S
O106 C111 1.255 . S
Cd107 O106 2.385 . S
Cd107 O108 2.317 . S
O108 Cd107 2.317 . S
O108 C109 1.232 . S
C109 O108 1.232 . S
C109 O110 1.218 . S
O110 C109 1.218 . S
C111 O104 1.275 1_545 S
C111 O106 1.255 . S
C112 O113 1.258 . S
C112 O114 1.256 . S
O113 Cd105 2.401 . S
O113 C112 1.258 . S
O114 Cd105 2.394 . S
O114 C112 1.256 . S
O115 Cd116 2.300 . S
O115 C122 1.275 . S
Cd116 O115 2.300 . S
Cd116 O124 2.381 . S
Cd116 O125 2.378 . S
O117 Cd118 2.385 . S
O117 C122 1.255 . S
Cd118 O117 2.385 . S
Cd118 O119 2.317 . S
O119 Cd118 2.317 . S
O119 C120 1.232 . S
C120 O119 1.232 . S
C120 O121 1.218 . S
O121 C120 1.218 . S
C122 O115 1.275 . S
C122 O117 1.255 . S
C123 O124 1.258 . S
C123 O125 1.256 . S
O124 Cd116 2.381 . S
O124 C123 1.258 . S
O125 Cd116 2.378 . S
O125 C123 1.256 . S
H126 C144 0.951 . S
H127 C146 0.951 . S
H128 C148 0.950 . S
H129 C149 0.950 . S
H130 C151 0.950 . S
H131 C154 0.950 . S
H132 C155 0.950 . S
H133 C157 0.950 . S
H134 C158 0.950 . S
H135 C159 0.951 . S
H136 C161 0.951 . S
H137 C163 0.950 . S
H138 C164 0.950 . S
H139 C166 0.950 . S
H140 C169 0.950 . S
H141 C170 0.950 . S
H142 C172 0.950 . S
H143 C173 0.950 . S
C144 H126 0.951 . S
C144 C145 1.366 . S
C144 C146 1.388 . S
C145 C144 1.366 . S
C145 C149 1.385 . S
C146 H127 0.951 . S
C146 C144 1.388 . S
C146 C147 1.366 . S
C147 C146 1.366 . S
C147 C148 1.414 . S
C147 C150 1.499 . S
C148 H128 0.950 . S
C148 C147 1.414 . S
C148 C149 1.374 . S
C149 H129 0.950 . S
C149 C145 1.385 . S
C149 C148 1.374 . S
C150 C147 1.499 . S
C150 C151 1.373 . S
C150 C152 1.389 . S
C151 H130 0.950 . S
C151 C150 1.373 . S
C151 C167 1.377 . S
C152 C150 1.389 . S
C152 C153 1.524 . S
C152 C166 1.377 . S
C153 C152 1.524 . S
C153 C154 1.397 . S
C153 C158 1.363 . S
C154 H131 0.950 . S
C154 C153 1.397 . S
C154 C155 1.334 . S
C155 H132 0.950 . S
C155 C154 1.334 . S
C155 C156 1.287 . S
C156 C155 1.287 . S
C156 C157 1.524 . S
C156 H175 0.913 . S
C157 H133 0.950 . S
C157 C156 1.524 . S
C157 C158 1.415 . S
C158 H134 0.950 . S
C158 C153 1.363 . S
C158 C157 1.415 . S
C159 H135 0.951 . S
C159 C160 1.366 . S
C159 C161 1.388 . S
C160 C159 1.366 . S
C160 C164 1.385 . S
C161 H136 0.951 . S
C161 C159 1.388 . S
C161 C162 1.366 . S
C162 C161 1.366 . S
C162 C163 1.414 . S
C162 C165 1.499 . S
C163 H137 0.950 . S
C163 C162 1.414 . S
C163 C164 1.374 . S
C164 H138 0.950 . S
C164 C160 1.385 . S
C164 C163 1.374 . S
C165 C162 1.499 . S
C165 C166 1.373 . S
C165 C167 1.389 . S
C166 H139 0.950 . S
C166 C152 1.377 . S
C166 C165 1.373 . S
C167 C151 1.377 . S
C167 C165 1.389 . S
C167 C168 1.524 . S
C168 C167 1.524 . S
C168 C169 1.397 . S
C168 C173 1.363 . S
C169 H140 0.950 . S
C169 C168 1.397 . S
C169 C170 1.334 . S
C170 H141 0.950 . S
C170 C169 1.334 . S
C170 C171 1.287 . S
C171 C170 1.287 . S
C171 C172 1.524 . S
C171 H174 0.999 . S
C172 H142 0.950 . S
C172 C171 1.524 . S
C172 C173 1.415 . S
C173 H143 0.950 . S
C173 C168 1.363 . S
C173 C172 1.415 . S
H174 C171 0.999 . S
H175 C156 0.913 . S
H176 C194 0.951 . S
H177 C196 0.951 . S
H178 C198 0.950 . S
H179 C199 0.950 . S
H180 C201 0.950 . S
H181 C204 0.950 . S
H182 C205 0.950 . S
H183 C207 0.950 . S
H184 C208 0.950 . S
H185 C209 0.951 . S
H186 C211 0.951 . S
H187 C213 0.950 . S
H188 C214 0.950 . S
H189 C216 0.950 . S
H190 C219 0.950 . S
H191 C220 0.950 . S
H192 C222 0.950 . S
H193 C223 0.950 . S
C194 H176 0.951 . S
C194 C195 1.366 . S
C194 C196 1.388 . S
C195 C194 1.366 . S
C195 C199 1.385 . S
C196 H177 0.951 . S
C196 C194 1.388 . S
C196 C197 1.366 . S
C197 C196 1.366 . S
C197 C198 1.414 . S
C197 C200 1.499 . S
C198 H178 0.950 . S
C198 C197 1.414 . S
C198 C199 1.374 . S
C199 H179 0.950 . S
C199 C195 1.385 . S
C199 C198 1.374 . S
C200 C197 1.499 . S
C200 C201 1.373 . S
C200 C202 1.389 . S
C201 H180 0.950 . S
C201 C200 1.373 . S
C201 C217 1.377 . S
C202 C200 1.389 . S
C202 C203 1.524 . S
C202 C216 1.377 . S
C203 C202 1.524 . S
C203 C204 1.397 . S
C203 C208 1.363 . S
C204 H181 0.950 . S
C204 C203 1.397 . S
C204 C205 1.334 . S
C205 H182 0.950 . S
C205 C204 1.334 . S
C205 C206 1.287 . S
C206 C205 1.287 . S
C206 C207 1.524 . S
C206 H225 0.913 . S
C207 H183 0.950 . S
C207 C206 1.524 . S
C207 C208 1.415 . S
C208 H184 0.950 . S
C208 C203 1.363 . S
C208 C207 1.415 . S
C209 H185 0.951 . S
C209 C210 1.366 . S
C209 C211 1.388 . S
C210 C209 1.366 . S
C210 C214 1.385 . S
C211 H186 0.951 . S
C211 C209 1.388 . S
C211 C212 1.366 . S
C212 C211 1.366 . S
C212 C213 1.414 . S
C212 C215 1.499 . S
C213 H187 0.950 . S
C213 C212 1.414 . S
C213 C214 1.374 . S
C214 H188 0.950 . S
C214 C210 1.385 . S
C214 C213 1.374 . S
C215 C212 1.499 . S
C215 C216 1.373 . S
C215 C217 1.389 . S
C216 H189 0.950 . S
C216 C202 1.377 . S
C216 C215 1.373 . S
C217 C201 1.377 . S
C217 C215 1.389 . S
C217 C218 1.524 . S
C218 C217 1.524 . S
C218 C219 1.397 . S
C218 C223 1.363 . S
C219 H190 0.950 . S
C219 C218 1.397 . S
C219 C220 1.334 . S
C220 H191 0.950 . S
C220 C219 1.334 . S
C220 C221 1.287 . S
C221 C220 1.287 . S
C221 C222 1.524 . S
C221 H224 0.999 . S
C222 H192 0.950 . S
C222 C221 1.524 . S
C222 C223 1.415 . S
C223 H193 0.950 . S
C223 C218 1.363 . S
C223 C222 1.415 . S
H224 C221 0.999 . S
H225 C206 0.913 . S
H226 C244 0.951 . S
H227 C246 0.951 . S
H228 C248 0.950 . S
H229 C249 0.950 . S
H230 C251 0.950 . S
H231 C254 0.950 . S
H232 C255 0.950 . S
H233 C257 0.950 . S
H234 C258 0.950 . S
H235 C259 0.951 . S
H236 C261 0.951 . S
H237 C263 0.950 . S
H238 C264 0.950 . S
H239 C266 0.950 . S
H240 C269 0.950 . S
H241 C270 0.950 . S
H242 C272 0.950 . S
H243 C273 0.950 . S
C244 H226 0.951 . S
C244 C245 1.366 . S
C244 C246 1.388 . S
C245 C244 1.366 . S
C245 C249 1.385 . S
C246 H227 0.951 . S
C246 C244 1.388 . S
C246 C247 1.366 . S
C247 C246 1.366 . S
C247 C248 1.414 . S
C247 C250 1.499 . S
C248 H228 0.950 . S
C248 C247 1.414 . S
C248 C249 1.374 . S
C249 H229 0.950 . S
C249 C245 1.385 . S
C249 C248 1.374 . S
C250 C247 1.499 . S
C250 C251 1.373 . S
C250 C252 1.389 . S
C251 H230 0.950 . S
C251 C250 1.373 . S
C251 C267 1.377 . S
C252 C250 1.389 . S
C252 C253 1.524 . S
C252 C266 1.377 . S
C253 C252 1.524 . S
C253 C254 1.397 . S
C253 C258 1.363 . S
C254 H231 0.950 . S
C254 C253 1.397 . S
C254 C255 1.334 . S
C255 H232 0.950 . S
C255 C254 1.334 . S
C255 C256 1.287 . S
C256 C255 1.287 . S
C256 C257 1.524 . S
C256 H275 0.913 . S
C257 H233 0.950 . S
C257 C256 1.524 . S
C257 C258 1.415 . S
C258 H234 0.950 . S
C258 C253 1.363 . S
C258 C257 1.415 . S
C259 H235 0.951 . S
C259 C260 1.366 . S
C259 C261 1.388 . S
C260 C259 1.366 . S
C260 C264 1.385 . S
C261 H236 0.951 . S
C261 C259 1.388 . S
C261 C262 1.366 . S
C262 C261 1.366 . S
C262 C263 1.414 . S
C262 C265 1.499 . S
C263 H237 0.950 . S
C263 C262 1.414 . S
C263 C264 1.374 . S
C264 H238 0.950 . S
C264 C260 1.385 . S
C264 C263 1.374 . S
C265 C262 1.499 . S
C265 C266 1.373 . S
C265 C267 1.389 . S
C266 H239 0.950 . S
C266 C252 1.377 . S
C266 C265 1.373 . S
C267 C251 1.377 . S
C267 C265 1.389 . S
C267 C268 1.524 . S
C268 C267 1.524 . S
C268 C269 1.397 . S
C268 C273 1.363 . S
C269 H240 0.950 . S
C269 C268 1.397 . S
C269 C270 1.334 . S
C270 H241 0.950 . S
C270 C269 1.334 . S
C270 C271 1.287 . S
C271 C270 1.287 . S
C271 C272 1.524 . S
C271 H274 0.999 . S
C272 H242 0.950 . S
C272 C271 1.524 . S
C272 C273 1.415 . S
C273 H243 0.950 . S
C273 C268 1.363 . S
C273 C272 1.415 . S
H274 C271 0.999 . S
H275 C256 0.913 . S
H276 C294 0.951 . S
H277 C296 0.951 . S
H278 C298 0.950 . S
H279 C299 0.950 . S
H280 C301 0.950 . S
H281 C304 0.950 . S
H282 C305 0.950 . S
H283 C307 0.950 . S
H284 C308 0.950 . S
H285 C309 0.951 . S
H286 C311 0.951 . S
H287 C313 0.950 . S
H288 C314 0.950 . S
H289 C316 0.950 . S
H290 C319 0.950 . S
H291 C320 0.950 . S
H292 C322 0.950 . S
H293 C323 0.950 . S
C294 H276 0.951 . S
C294 C295 1.366 . S
C294 C296 1.388 . S
C295 C294 1.366 . S
C295 C299 1.385 . S
C296 H277 0.951 . S
C296 C294 1.388 . S
C296 C297 1.366 . S
C297 C296 1.366 . S
C297 C298 1.414 . S
C297 C300 1.499 . S
C298 H278 0.950 . S
C298 C297 1.414 . S
C298 C299 1.374 . S
C299 H279 0.950 . S
C299 C295 1.385 . S
C299 C298 1.374 . S
C300 C297 1.499 . S
C300 C301 1.373 . S
C300 C302 1.389 . S
C301 H280 0.950 . S
C301 C300 1.373 . S
C301 C317 1.377 . S
C302 C300 1.389 . S
C302 C303 1.524 . S
C302 C316 1.377 . S
C303 C302 1.524 . S
C303 C304 1.397 . S
C303 C308 1.363 . S
C304 H281 0.950 . S
C304 C303 1.397 . S
C304 C305 1.334 . S
C305 H282 0.950 . S
C305 C304 1.334 . S
C305 C306 1.287 . S
C306 C305 1.287 . S
C306 C307 1.524 . S
C306 H325 0.913 . S
C307 H283 0.950 . S
C307 C306 1.524 . S
C307 C308 1.415 . S
C308 H284 0.950 . S
C308 C303 1.363 . S
C308 C307 1.415 . S
C309 H285 0.951 . S
C309 C310 1.366 . S
C309 C311 1.388 . S
C310 C309 1.366 . S
C310 C314 1.385 . S
C311 H286 0.951 . S
C311 C309 1.388 . S
C311 C312 1.366 . S
C312 C311 1.366 . S
C312 C313 1.414 . S
C312 C315 1.499 . S
C313 H287 0.950 . S
C313 C312 1.414 . S
C313 C314 1.374 . S
C314 H288 0.950 . S
C314 C310 1.385 . S
C314 C313 1.374 . S
C315 C312 1.499 . S
C315 C316 1.373 . S
C315 C317 1.389 . S
C316 H289 0.950 . S
C316 C302 1.377 . S
C316 C315 1.373 . S
C317 C301 1.377 . S
C317 C315 1.389 . S
C317 C318 1.524 . S
C318 C317 1.524 . S
C318 C319 1.397 . S
C318 C323 1.363 . S
C319 H290 0.950 . S
C319 C318 1.397 . S
C319 C320 1.334 . S
C320 H291 0.950 . S
C320 C319 1.334 . S
C320 C321 1.287 . S
C321 C320 1.287 . S
C321 C322 1.524 . S
C321 H324 0.999 . S
C322 H292 0.950 . S
C322 C321 1.524 . S
C322 C323 1.415 . S
C323 H293 0.950 . S
C323 C318 1.363 . S
C323 C322 1.415 . S
H324 C321 0.999 . S
H325 C306 0.913 . S
H326 C344 0.951 . S
H327 C346 0.951 . S
H328 C348 0.950 . S
H329 C349 0.950 . S
H330 C351 0.950 . S
H331 C354 0.950 . S
H332 C355 0.950 . S
H333 C357 0.950 . S
H334 C358 0.950 . S
H335 C359 0.951 . S
H336 C361 0.951 . S
H337 C363 0.950 . S
H338 C364 0.950 . S
H339 C366 0.950 . S
H340 C369 0.950 . S
H341 C370 0.950 . S
H342 C372 0.950 . S
H343 C373 0.950 . S
C344 H326 0.951 . S
C344 C345 1.366 . S
C344 C346 1.388 . S
C345 C344 1.366 . S
C345 C349 1.385 . S
C346 H327 0.951 . S
C346 C344 1.388 . S
C346 C347 1.366 . S
C347 C346 1.366 . S
C347 C348 1.414 . S
C347 C350 1.499 . S
C348 H328 0.950 . S
C348 C347 1.414 . S
C348 C349 1.374 . S
C349 H329 0.950 . S
C349 C345 1.385 . S
C349 C348 1.374 . S
C350 C347 1.499 . S
C350 C351 1.373 . S
C350 C352 1.389 . S
C351 H330 0.950 . S
C351 C350 1.373 . S
C351 C367 1.377 . S
C352 C350 1.389 . S
C352 C353 1.524 . S
C352 C366 1.377 . S
C353 C352 1.524 . S
C353 C354 1.397 . S
C353 C358 1.363 . S
C354 H331 0.950 . S
C354 C353 1.397 . S
C354 C355 1.334 . S
C355 H332 0.950 . S
C355 C354 1.334 . S
C355 C356 1.287 . S
C356 C355 1.287 . S
C356 C357 1.524 . S
C356 H375 0.913 . S
C357 H333 0.950 . S
C357 C356 1.524 . S
C357 C358 1.415 . S
C358 H334 0.950 . S
C358 C353 1.363 . S
C358 C357 1.415 . S
C359 H335 0.951 . S
C359 C360 1.366 . S
C359 C361 1.388 . S
C360 C359 1.366 . S
C360 C364 1.385 . S
C361 H336 0.951 . S
C361 C359 1.388 . S
C361 C362 1.366 . S
C362 C361 1.366 . S
C362 C363 1.414 . S
C362 C365 1.499 . S
C363 H337 0.950 . S
C363 C362 1.414 . S
C363 C364 1.374 . S
C364 H338 0.950 . S
C364 C360 1.385 . S
C364 C363 1.374 . S
C365 C362 1.499 . S
C365 C366 1.373 . S
C365 C367 1.389 . S
C366 H339 0.950 . S
C366 C352 1.377 . S
C366 C365 1.373 . S
C367 C351 1.377 . S
C367 C365 1.389 . S
C367 C368 1.524 . S
C368 C367 1.524 . S
C368 C369 1.397 . S
C368 C373 1.363 . S
C369 H340 0.950 . S
C369 C368 1.397 . S
C369 C370 1.334 . S
C370 H341 0.950 . S
C370 C369 1.334 . S
C370 C371 1.287 . S
C371 C370 1.287 . S
C371 C372 1.524 . S
C371 H374 0.999 . S
C372 H342 0.950 . S
C372 C371 1.524 . S
C372 C373 1.415 . S
C373 H343 0.950 . S
C373 C368 1.363 . S
C373 C372 1.415 . S
H374 C371 0.999 . S
H375 C356 0.913 . S
H376 C394 0.951 . S
H377 C396 0.951 . S
H378 C398 0.950 . S
H379 C399 0.950 . S
H380 C401 0.950 . S
H381 C404 0.950 . S
H382 C405 0.950 . S
H383 C407 0.950 . S
H384 C408 0.950 . S
H385 C409 0.951 . S
H386 C411 0.951 . S
H387 C413 0.950 . S
H388 C414 0.950 . S
H389 C416 0.950 . S
H390 C419 0.950 . S
H391 C420 0.950 . S
H392 C422 0.950 . S
H393 C423 0.950 . S
C394 H376 0.951 . S
C394 C395 1.366 . S
C394 C396 1.388 . S
C395 C394 1.366 . S
C395 C399 1.385 . S
C396 H377 0.951 . S
C396 C394 1.388 . S
C396 C397 1.366 . S
C397 C396 1.366 . S
C397 C398 1.414 . S
C397 C400 1.499 . S
C398 H378 0.950 . S
C398 C397 1.414 . S
C398 C399 1.374 . S
C399 H379 0.950 . S
C399 C395 1.385 . S
C399 C398 1.374 . S
C400 C397 1.499 . S
C400 C401 1.373 . S
C400 C402 1.389 . S
C401 H380 0.950 . S
C401 C400 1.373 . S
C401 C417 1.377 . S
C402 C400 1.389 . S
C402 C403 1.524 . S
C402 C416 1.377 . S
C403 C402 1.524 . S
C403 C404 1.397 . S
C403 C408 1.363 . S
C404 H381 0.950 . S
C404 C403 1.397 . S
C404 C405 1.334 . S
C405 H382 0.950 . S
C405 C404 1.334 . S
C405 C406 1.287 . S
C406 C405 1.287 . S
C406 C407 1.524 . S
C406 H425 0.913 . S
C407 H383 0.950 . S
C407 C406 1.524 . S
C407 C408 1.415 . S
C408 H384 0.950 . S
C408 C403 1.363 . S
C408 C407 1.415 . S
C409 H385 0.951 . S
C409 C410 1.366 . S
C409 C411 1.388 . S
C410 C409 1.366 . S
C410 C414 1.385 . S
C411 H386 0.951 . S
C411 C409 1.388 . S
C411 C412 1.366 . S
C412 C411 1.366 . S
C412 C413 1.414 . S
C412 C415 1.499 . S
C413 H387 0.950 . S
C413 C412 1.414 . S
C413 C414 1.374 . S
C414 H388 0.950 . S
C414 C410 1.385 . S
C414 C413 1.374 . S
C415 C412 1.499 . S
C415 C416 1.373 . S
C415 C417 1.389 . S
C416 H389 0.950 . S
C416 C402 1.377 . S
C416 C415 1.373 . S
C417 C401 1.377 . S
C417 C415 1.389 . S
C417 C418 1.524 . S
C418 C417 1.524 . S
C418 C419 1.397 . S
C418 C423 1.363 . S
C419 H390 0.950 . S
C419 C418 1.397 . S
C419 C420 1.334 . S
C420 H391 0.950 . S
C420 C419 1.334 . S
C420 C421 1.287 . S
C421 C420 1.287 . S
C421 C422 1.524 . S
C421 H424 0.999 . S
C422 H392 0.950 . S
C422 C421 1.524 . S
C422 C423 1.415 . S
C423 H393 0.950 . S
C423 C418 1.363 . S
C423 C422 1.415 . S
H424 C421 0.999 . S
H425 C406 0.913 . S
H426 C444 0.951 . S
H427 C446 0.951 . S
H428 C448 0.950 . S
H429 C449 0.950 . S
H430 C451 0.950 . S
H431 C454 0.950 . S
H432 C455 0.950 . S
H433 C457 0.950 . S
H434 C458 0.950 . S
H435 C459 0.951 . S
H436 C461 0.951 . S
H437 C463 0.950 . S
H438 C464 0.950 . S
H439 C466 0.950 . S
H440 C469 0.950 . S
H441 C470 0.950 . S
H442 C472 0.950 . S
H443 C473 0.950 . S
C444 H426 0.951 . S
C444 C445 1.366 . S
C444 C446 1.388 . S
C445 C444 1.366 . S
C445 C449 1.385 . S
C446 H427 0.951 . S
C446 C444 1.388 . S
C446 C447 1.366 . S
C447 C446 1.366 . S
C447 C448 1.414 . S
C447 C450 1.499 . S
C448 H428 0.950 . S
C448 C447 1.414 . S
C448 C449 1.374 . S
C449 H429 0.950 . S
C449 C445 1.385 . S
C449 C448 1.374 . S
C450 C447 1.499 . S
C450 C451 1.373 . S
C450 C452 1.389 . S
C451 H430 0.950 . S
C451 C450 1.373 . S
C451 C467 1.377 . S
C452 C450 1.389 . S
C452 C453 1.524 . S
C452 C466 1.377 . S
C453 C452 1.524 . S
C453 C454 1.397 . S
C453 C458 1.363 . S
C454 H431 0.950 . S
C454 C453 1.397 . S
C454 C455 1.334 . S
C455 H432 0.950 . S
C455 C454 1.334 . S
C455 C456 1.287 . S
C456 C455 1.287 . S
C456 C457 1.524 . S
C456 H475 0.913 . S
C457 H433 0.950 . S
C457 C456 1.524 . S
C457 C458 1.415 . S
C458 H434 0.950 . S
C458 C453 1.363 . S
C458 C457 1.415 . S
C459 H435 0.951 . S
C459 C460 1.366 . S
C459 C461 1.388 . S
C460 C459 1.366 . S
C460 C464 1.385 . S
C461 H436 0.951 . S
C461 C459 1.388 . S
C461 C462 1.366 . S
C462 C461 1.366 . S
C462 C463 1.414 . S
C462 C465 1.499 . S
C463 H437 0.950 . S
C463 C462 1.414 . S
C463 C464 1.374 . S
C464 H438 0.950 . S
C464 C460 1.385 . S
C464 C463 1.374 . S
C465 C462 1.499 . S
C465 C466 1.373 . S
C465 C467 1.389 . S
C466 H439 0.950 . S
C466 C452 1.377 . S
C466 C465 1.373 . S
C467 C451 1.377 . S
C467 C465 1.389 . S
C467 C468 1.524 . S
C468 C467 1.524 . S
C468 C469 1.397 . S
C468 C473 1.363 . S
C469 H440 0.950 . S
C469 C468 1.397 . S
C469 C470 1.334 . S
C470 H441 0.950 . S
C470 C469 1.334 . S
C470 C471 1.287 . S
C471 C470 1.287 . S
C471 C472 1.524 . S
C471 H474 0.999 . S
C472 H442 0.950 . S
C472 C471 1.524 . S
C472 C473 1.415 . S
C473 H443 0.950 . S
C473 C468 1.363 . S
C473 C472 1.415 . S
H474 C471 0.999 . S
H475 C456 0.913 . S
H476 C494 0.951 . S
H477 C496 0.951 . S
H478 C498 0.950 . S
H479 C499 0.950 . S
H480 C501 0.950 . S
H481 C504 0.950 . S
H482 C505 0.950 . S
H483 C507 0.950 . S
H484 C508 0.950 . S
H485 C509 0.951 . S
H486 C511 0.951 . S
H487 C513 0.950 . S
H488 C514 0.950 . S
H489 C516 0.950 . S
H490 C519 0.950 . S
H491 C520 0.950 . S
H492 C522 0.950 . S
H493 C523 0.950 . S
C494 H476 0.951 . S
C494 C495 1.366 . S
C494 C496 1.388 . S
C495 C494 1.366 . S
C495 C499 1.385 . S
C496 H477 0.951 . S
C496 C494 1.388 . S
C496 C497 1.366 . S
C497 C496 1.366 . S
C497 C498 1.414 . S
C497 C500 1.499 . S
C498 H478 0.950 . S
C498 C497 1.414 . S
C498 C499 1.374 . S
C499 H479 0.950 . S
C499 C495 1.385 . S
C499 C498 1.374 . S
C500 C497 1.499 . S
C500 C501 1.373 . S
C500 C502 1.389 . S
C501 H480 0.950 . S
C501 C500 1.373 . S
C501 C517 1.377 . S
C502 C500 1.389 . S
C502 C503 1.524 . S
C502 C516 1.377 . S
C503 C502 1.524 . S
C503 C504 1.397 . S
C503 C508 1.363 . S
C504 H481 0.950 . S
C504 C503 1.397 . S
C504 C505 1.334 . S
C505 H482 0.950 . S
C505 C504 1.334 . S
C505 C506 1.287 . S
C506 C505 1.287 . S
C506 C507 1.524 . S
C506 H525 0.913 . S
C507 H483 0.950 . S
C507 C506 1.524 . S
C507 C508 1.415 . S
C508 H484 0.950 . S
C508 C503 1.363 . S
C508 C507 1.415 . S
C509 H485 0.951 . S
C509 C510 1.366 . S
C509 C511 1.388 . S
C510 C509 1.366 . S
C510 C514 1.385 . S
C511 H486 0.951 . S
C511 C509 1.388 . S
C511 C512 1.366 . S
C512 C511 1.366 . S
C512 C513 1.414 . S
C512 C515 1.499 . S
C513 H487 0.950 . S
C513 C512 1.414 . S
C513 C514 1.374 . S
C514 H488 0.950 . S
C514 C510 1.385 . S
C514 C513 1.374 . S
C515 C512 1.499 . S
C515 C516 1.373 . S
C515 C517 1.389 . S
C516 H489 0.950 . S
C516 C502 1.377 . S
C516 C515 1.373 . S
C517 C501 1.377 . S
C517 C515 1.389 . S
C517 C518 1.524 . S
C518 C517 1.524 . S
C518 C519 1.397 . S
C518 C523 1.363 . S
C519 H490 0.950 . S
C519 C518 1.397 . S
C519 C520 1.334 . S
C520 H491 0.950 . S
C520 C519 1.334 . S
C520 C521 1.287 . S
C521 C520 1.287 . S
C521 C522 1.524 . S
C521 H524 0.999 . S
C522 H492 0.950 . S
C522 C521 1.524 . S
C522 C523 1.415 . S
C523 H493 0.950 . S
C523 C518 1.363 . S
C523 C522 1.415 . S
H524 C521 0.999 . S
H525 C506 0.913 . S
H526 C544 0.951 . S
H527 C546 0.951 . S
H528 C548 0.950 . S
H529 C549 0.950 . S
H530 C551 0.950 . S
H531 C554 0.950 . S
H532 C555 0.950 . S
H533 C557 0.950 . S
H534 C558 0.950 . S
H535 C559 0.951 . S
H536 C561 0.951 . S
H537 C563 0.950 . S
H538 C564 0.950 . S
H539 C566 0.950 . S
H540 C569 0.950 . S
H541 C570 0.950 . S
H542 C572 0.950 . S
H543 C573 0.950 . S
C544 H526 0.951 . S
C544 C545 1.366 . S
C544 C546 1.388 . S
C545 C544 1.366 . S
C545 C549 1.385 . S
C546 H527 0.951 . S
C546 C544 1.388 . S
C546 C547 1.366 . S
C547 C546 1.366 . S
C547 C548 1.414 . S
C547 C550 1.499 . S
C548 H528 0.950 . S
C548 C547 1.414 . S
C548 C549 1.374 . S
C549 H529 0.950 . S
C549 C545 1.385 . S
C549 C548 1.374 . S
C550 C547 1.499 . S
C550 C551 1.373 . S
C550 C552 1.389 . S
C551 H530 0.950 . S
C551 C550 1.373 . S
C551 C567 1.377 . S
C552 C550 1.389 . S
C552 C553 1.524 . S
C552 C566 1.377 . S
C553 C552 1.524 . S
C553 C554 1.397 . S
C553 C558 1.363 . S
C554 H531 0.950 . S
C554 C553 1.397 . S
C554 C555 1.334 . S
C555 H532 0.950 . S
C555 C554 1.334 . S
C555 C556 1.287 . S
C556 C555 1.287 . S
C556 C557 1.524 . S
C556 H575 0.913 . S
C557 H533 0.950 . S
C557 C556 1.524 . S
C557 C558 1.415 . S
C558 H534 0.950 . S
C558 C553 1.363 . S
C558 C557 1.415 . S
C559 H535 0.951 . S
C559 C560 1.366 . S
C559 C561 1.388 . S
C560 C559 1.366 . S
C560 C564 1.385 . S
C561 H536 0.951 . S
C561 C559 1.388 . S
C561 C562 1.366 . S
C562 C561 1.366 . S
C562 C563 1.414 . S
C562 C565 1.499 . S
C563 H537 0.950 . S
C563 C562 1.414 . S
C563 C564 1.374 . S
C564 H538 0.950 . S
C564 C560 1.385 . S
C564 C563 1.374 . S
C565 C562 1.499 . S
C565 C566 1.373 . S
C565 C567 1.389 . S
C566 H539 0.950 . S
C566 C552 1.377 . S
C566 C565 1.373 . S
C567 C551 1.377 . S
C567 C565 1.389 . S
C567 C568 1.524 . S
C568 C567 1.524 . S
C568 C569 1.397 . S
C568 C573 1.363 . S
C569 H540 0.950 . S
C569 C568 1.397 . S
C569 C570 1.334 . S
C570 H541 0.950 . S
C570 C569 1.334 . S
C570 C571 1.287 . S
C571 C570 1.287 . S
C571 C572 1.524 . S
C571 H574 0.999 . S
C572 H542 0.950 . S
C572 C571 1.524 . S
C572 C573 1.415 . S
C573 H543 0.950 . S
C573 C568 1.363 . S
C573 C572 1.415 . S
H574 C571 0.999 . S
H575 C556 0.913 . S
H576 C594 0.951 . S
H577 C596 0.951 . S
H578 C598 0.950 . S
H579 C599 0.950 . S
H580 C601 0.950 . S
H581 C604 0.950 . S
H582 C605 0.950 . S
H583 C607 0.950 . S
H584 C608 0.950 . S
H585 C609 0.951 . S
H586 C611 0.951 . S
H587 C613 0.950 . S
H588 C614 0.950 . S
H589 C616 0.950 . S
H590 C619 0.950 . S
H591 C620 0.950 . S
H592 C622 0.950 . S
H593 C623 0.950 . S
C594 H576 0.951 . S
C594 C595 1.366 . S
C594 C596 1.388 . S
C595 C594 1.366 . S
C595 C599 1.385 . S
C596 H577 0.951 . S
C596 C594 1.388 . S
C596 C597 1.366 . S
C597 C596 1.366 . S
C597 C598 1.414 . S
C597 C600 1.499 . S
C598 H578 0.950 . S
C598 C597 1.414 . S
C598 C599 1.374 . S
C599 H579 0.950 . S
C599 C595 1.385 . S
C599 C598 1.374 . S
C600 C597 1.499 . S
C600 C601 1.373 . S
C600 C602 1.389 . S
C601 H580 0.950 . S
C601 C600 1.373 . S
C601 C617 1.377 . S
C602 C600 1.389 . S
C602 C603 1.524 . S
C602 C616 1.377 . S
C603 C602 1.524 . S
C603 C604 1.397 . S
C603 C608 1.363 . S
C604 H581 0.950 . S
C604 C603 1.397 . S
C604 C605 1.334 . S
C605 H582 0.950 . S
C605 C604 1.334 . S
C605 C606 1.287 . S
C606 C605 1.287 . S
C606 C607 1.524 . S
C606 H625 0.913 . S
C607 H583 0.950 . S
C607 C606 1.524 . S
C607 C608 1.415 . S
C608 H584 0.950 . S
C608 C603 1.363 . S
C608 C607 1.415 . S
C609 H585 0.951 . S
C609 C610 1.366 . S
C609 C611 1.388 . S
C610 C609 1.366 . S
C610 C614 1.385 . S
C611 H586 0.951 . S
C611 C609 1.388 . S
C611 C612 1.366 . S
C612 C611 1.366 . S
C612 C613 1.414 . S
C612 C615 1.499 . S
C613 H587 0.950 . S
C613 C612 1.414 . S
C613 C614 1.374 . S
C614 H588 0.950 . S
C614 C610 1.385 . S
C614 C613 1.374 . S
C615 C612 1.499 . S
C615 C616 1.373 . S
C615 C617 1.389 . S
C616 H589 0.950 . S
C616 C602 1.377 . S
C616 C615 1.373 . S
C617 C601 1.377 . S
C617 C615 1.389 . S
C617 C618 1.524 . S
C618 C617 1.524 . S
C618 C619 1.397 . S
C618 C623 1.363 . S
C619 H590 0.950 . S
C619 C618 1.397 . S
C619 C620 1.334 . S
C620 H591 0.950 . S
C620 C619 1.334 . S
C620 C621 1.287 . S
C621 C620 1.287 . S
C621 C622 1.524 . S
C621 H624 0.999 . S
C622 H592 0.950 . S
C622 C621 1.524 . S
C622 C623 1.415 . S
C623 H593 0.950 . S
C623 C618 1.363 . S
C623 C622 1.415 . S
H624 C621 0.999 . S
H625 C606 0.913 . S
H626 C644 0.951 . S
H627 C646 0.951 . S
H628 C648 0.950 . S
H629 C649 0.950 . S
H630 C651 0.950 . S
H631 C654 0.950 . S
H632 C655 0.950 . S
H633 C657 0.950 . S
H634 C658 0.950 . S
H635 C659 0.951 . S
H636 C661 0.951 . S
H637 C663 0.950 . S
H638 C664 0.950 . S
H639 C666 0.950 . S
H640 C669 0.950 . S
H641 C670 0.950 . S
H642 C672 0.950 . S
H643 C673 0.950 . S
C644 H626 0.951 . S
C644 C645 1.366 . S
C644 C646 1.388 . S
C645 C644 1.366 . S
C645 C649 1.385 . S
C646 H627 0.951 . S
C646 C644 1.388 . S
C646 C647 1.366 . S
C647 C646 1.366 . S
C647 C648 1.414 . S
C647 C650 1.499 . S
C648 H628 0.950 . S
C648 C647 1.414 . S
C648 C649 1.374 . S
C649 H629 0.950 . S
C649 C645 1.385 . S
C649 C648 1.374 . S
C650 C647 1.499 . S
C650 C651 1.373 . S
C650 C652 1.389 . S
C651 H630 0.950 . S
C651 C650 1.373 . S
C651 C667 1.377 . S
C652 C650 1.389 . S
C652 C653 1.524 . S
C652 C666 1.377 . S
C653 C652 1.524 . S
C653 C654 1.397 . S
C653 C658 1.363 . S
C654 H631 0.950 . S
C654 C653 1.397 . S
C654 C655 1.334 . S
C655 H632 0.950 . S
C655 C654 1.334 . S
C655 C656 1.287 . S
C656 C655 1.287 . S
C656 C657 1.524 . S
C656 H675 0.913 . S
C657 H633 0.950 . S
C657 C656 1.524 . S
C657 C658 1.415 . S
C658 H634 0.950 . S
C658 C653 1.363 . S
C658 C657 1.415 . S
C659 H635 0.951 . S
C659 C660 1.366 . S
C659 C661 1.388 . S
C660 C659 1.366 . S
C660 C664 1.385 . S
C661 H636 0.951 . S
C661 C659 1.388 . S
C661 C662 1.366 . S
C662 C661 1.366 . S
C662 C663 1.414 . S
C662 C665 1.499 . S
C663 H637 0.950 . S
C663 C662 1.414 . S
C663 C664 1.374 . S
C664 H638 0.950 . S
C664 C660 1.385 . S
C664 C663 1.374 . S
C665 C662 1.499 . S
C665 C666 1.373 . S
C665 C667 1.389 . S
C666 H639 0.950 . S
C666 C652 1.377 . S
C666 C665 1.373 . S
C667 C651 1.377 . S
C667 C665 1.389 . S
C667 C668 1.524 . S
C668 C667 1.524 . S
C668 C669 1.397 . S
C668 C673 1.363 . S
C669 H640 0.950 . S
C669 C668 1.397 . S
C669 C670 1.334 . S
C670 H641 0.950 . S
C670 C669 1.334 . S
C670 C671 1.287 . S
C671 C670 1.287 . S
C671 C672 1.524 . S
C671 H674 0.999 . S
C672 H642 0.950 . S
C672 C671 1.524 . S
C672 C673 1.415 . S
C673 H643 0.950 . S
C673 C668 1.363 . S
C673 C672 1.415 . S
H674 C671 0.999 . S
H675 C656 0.913 . S
H676 C694 0.951 . S
H677 C696 0.951 . S
H678 C698 0.950 . S
H679 C699 0.950 . S
H680 C701 0.950 . S
H681 C704 0.950 . S
H682 C705 0.950 . S
H683 C707 0.950 . S
H684 C708 0.950 . S
H685 C709 0.951 . S
H686 C711 0.951 . S
H687 C713 0.950 . S
H688 C714 0.950 . S
H689 C716 0.950 . S
H690 C719 0.950 . S
H691 C720 0.950 . S
H692 C722 0.950 . S
H693 C723 0.950 . S
C694 H676 0.951 . S
C694 C695 1.366 . S
C694 C696 1.388 . S
C695 C694 1.366 . S
C695 C699 1.385 . S
C696 H677 0.951 . S
C696 C694 1.388 . S
C696 C697 1.366 . S
C697 C696 1.366 . S
C697 C698 1.414 . S
C697 C700 1.499 . S
C698 H678 0.950 . S
C698 C697 1.414 . S
C698 C699 1.374 . S
C699 H679 0.950 . S
C699 C695 1.385 . S
C699 C698 1.374 . S
C700 C697 1.499 . S
C700 C701 1.373 . S
C700 C702 1.389 . S
C701 H680 0.950 . S
C701 C700 1.373 . S
C701 C717 1.377 . S
C702 C700 1.389 . S
C702 C703 1.524 . S
C702 C716 1.377 . S
C703 C702 1.524 . S
C703 C704 1.397 . S
C703 C708 1.363 . S
C704 H681 0.950 . S
C704 C703 1.397 . S
C704 C705 1.334 . S
C705 H682 0.950 . S
C705 C704 1.334 . S
C705 C706 1.287 . S
C706 C705 1.287 . S
C706 C707 1.524 . S
C706 H725 0.913 . S
C707 H683 0.950 . S
C707 C706 1.524 . S
C707 C708 1.415 . S
C708 H684 0.950 . S
C708 C703 1.363 . S
C708 C707 1.415 . S
C709 H685 0.951 . S
C709 C710 1.366 . S
C709 C711 1.388 . S
C710 C709 1.366 . S
C710 C714 1.385 . S
C711 H686 0.951 . S
C711 C709 1.388 . S
C711 C712 1.366 . S
C712 C711 1.366 . S
C712 C713 1.414 . S
C712 C715 1.499 . S
C713 H687 0.950 . S
C713 C712 1.414 . S
C713 C714 1.374 . S
C714 H688 0.950 . S
C714 C710 1.385 . S
C714 C713 1.374 . S
C715 C712 1.499 . S
C715 C716 1.373 . S
C715 C717 1.389 . S
C716 H689 0.950 . S
C716 C702 1.377 . S
C716 C715 1.373 . S
C717 C701 1.377 . S
C717 C715 1.389 . S
C717 C718 1.524 . S
C718 C717 1.524 . S
C718 C719 1.397 . S
C718 C723 1.363 . S
C719 H690 0.950 . S
C719 C718 1.397 . S
C719 C720 1.334 . S
C720 H691 0.950 . S
C720 C719 1.334 . S
C720 C721 1.287 . S
C721 C720 1.287 . S
C721 C722 1.524 . S
C721 H724 0.999 . S
C722 H692 0.950 . S
C722 C721 1.524 . S
C722 C723 1.415 . S
C723 H693 0.950 . S
C723 C718 1.363 . S
C723 C722 1.415 . S
H724 C721 0.999 . S
H725 C706 0.913 . S
H726 C744 0.951 . S
H727 C746 0.951 . S
H728 C748 0.950 . S
H729 C749 0.950 . S
H730 C751 0.950 . S
H731 C754 0.950 . S
H732 C755 0.950 . S
H733 C757 0.950 . S
H734 C758 0.950 . S
H735 C759 0.951 . S
H736 C761 0.951 . S
H737 C763 0.950 1_655 S
H738 C764 0.950 . S
H739 C766 0.950 . S
H740 C769 0.950 . S
H741 C770 0.950 . S
H742 C772 0.950 . S
H743 C773 0.950 . S
C744 H726 0.951 . S
C744 C745 1.366 1_655 S
C744 C746 1.388 . S
C745 C744 1.366 1_455 S
C745 C749 1.385 . S
C746 H727 0.951 . S
C746 C744 1.388 . S
C746 C747 1.366 1_655 S
C747 C746 1.366 1_455 S
C747 C748 1.414 . S
C747 C750 1.499 . S
C748 H728 0.950 . S
C748 C747 1.414 . S
C748 C749 1.374 . S
C749 H729 0.950 . S
C749 C745 1.385 . S
C749 C748 1.374 . S
C750 C747 1.499 . S
C750 C751 1.373 . S
C750 C752 1.389 1_455 S
C751 H730 0.950 . S
C751 C750 1.373 . S
C751 C767 1.377 . S
C752 C750 1.389 1_655 S
C752 C753 1.524 . S
C752 C766 1.377 . S
C753 C752 1.524 . S
C753 C754 1.397 . S
C753 C758 1.363 . S
C754 H731 0.950 . S
C754 C753 1.397 . S
C754 C755 1.334 . S
C755 H732 0.950 . S
C755 C754 1.334 . S
C755 C756 1.287 . S
C756 C755 1.287 . S
C756 C757 1.524 . S
C756 H775 0.913 . S
C757 H733 0.950 . S
C757 C756 1.524 . S
C757 C758 1.415 . S
C758 H734 0.950 . S
C758 C753 1.363 . S
C758 C757 1.415 . S
C759 H735 0.951 . S
C759 C760 1.366 . S
C759 C761 1.388 . S
C760 C759 1.366 . S
C760 C764 1.385 . S
C761 H736 0.951 . S
C761 C759 1.388 . S
C761 C762 1.366 . S
C762 C761 1.366 . S
C762 C763 1.414 . S
C762 C765 1.476 1_556 S
C763 H737 0.950 1_455 S
C763 C762 1.414 . S
C763 C764 1.374 . S
C764 H738 0.950 . S
C764 C760 1.385 . S
C764 C763 1.374 . S
C765 C762 1.476 1_554 S
C765 C766 1.384 1_455 S
C765 C767 1.402 . S
C766 H739 0.950 . S
C766 C752 1.377 . S
C766 C765 1.384 1_655 S
C767 C751 1.377 . S
C767 C765 1.402 . S
C767 C768 1.524 . S
C768 C767 1.524 . S
C768 C769 1.397 1_554 S
C768 C773 1.363 . S
C769 H740 0.950 . S
C769 C768 1.397 1_556 S
C769 C770 1.334 . S
C770 H741 0.950 . S
C770 C769 1.334 . S
C770 C771 1.287 . S
C771 C770 1.287 . S
C771 C772 1.524 1_556 S
C771 H774 0.999 . S
C772 H742 0.950 . S
C772 C771 1.524 1_554 S
C772 C773 1.415 . S
C773 H743 0.950 . S
C773 C768 1.363 . S
C773 C772 1.415 . S
H774 C771 0.999 . S
H775 C756 0.913 . S
H776 C794 0.951 . S
H777 C796 0.951 . S
H778 C798 0.950 . S
H779 C799 0.950 . S
H780 C801 0.920 1_565 S
H781 C804 0.950 . S
H782 C805 0.950 . S
H783 C807 0.950 . S
H784 C808 0.950 . S
H785 C809 0.951 . S
H786 C811 0.951 . S
H787 C813 0.950 . S
H788 C814 0.950 . S
H789 C816 0.950 . S
H790 C819 0.950 . S
H791 C820 0.950 1_545 S
H792 C822 0.950 . S
H793 C823 0.950 . S
C794 H776 0.951 . S
C794 C795 1.366 . S
C794 C796 1.388 . S
C795 C794 1.366 . S
C795 C799 1.385 1_545 S
C796 H777 0.951 . S
C796 C794 1.388 . S
C796 C797 1.366 . S
C797 C796 1.366 . S
C797 C798 1.414 1_545 S
C797 C800 1.499 . S
C798 H778 0.950 . S
C798 C797 1.414 1_565 S
C798 C799 1.374 . S
C799 H779 0.950 . S
C799 C795 1.385 1_565 S
C799 C798 1.374 . S
C800 C797 1.499 . S
C800 C801 1.399 . S
C800 C802 1.389 . S
C801 H780 0.920 1_545 S
C801 C800 1.399 . S
C801 C817 1.382 . S
C802 C800 1.389 . S
C802 C803 1.524 . S
C802 C816 1.377 . S
C803 C802 1.524 . S
C803 C804 1.397 . S
C803 C808 1.363 . S
C804 H781 0.950 . S
C804 C803 1.397 . S
C804 C805 1.334 . S
C805 H782 0.950 . S
C805 C804 1.334 . S
C805 C806 1.287 . S
C806 C805 1.287 . S
C806 C807 1.524 . S
C806 H825 0.913 . S
C807 H783 0.950 . S
C807 C806 1.524 . S
C807 C808 1.415 . S
C808 H784 0.950 . S
C808 C803 1.363 . S
C808 C807 1.415 . S
C809 H785 0.951 . S
C809 C810 1.366 1_565 S
C809 C811 1.388 . S
C810 C809 1.366 1_545 S
C810 C814 1.385 . S
C811 H786 0.951 . S
C811 C809 1.388 . S
C811 C812 1.366 1_565 S
C812 C811 1.366 1_545 S
C812 C813 1.414 . S
C812 C815 1.499 . S
C813 H787 0.950 . S
C813 C812 1.414 . S
C813 C814 1.374 . S
C814 H788 0.950 . S
C814 C810 1.385 . S
C814 C813 1.374 . S
C815 C812 1.499 . S
C815 C816 1.373 . S
C815 C817 1.389 . S
C816 H789 0.950 . S
C816 C802 1.377 . S
C816 C815 1.373 . S
C817 C801 1.382 . S
C817 C815 1.389 . S
C817 C818 1.524 1_545 S
C818 C817 1.524 1_565 S
C818 C819 1.397 1_565 S
C818 C823 1.363 . S
C819 H790 0.950 . S
C819 C818 1.397 1_545 S
C819 C820 1.334 1_545 S
C820 H791 0.950 1_565 S
C820 C819 1.334 1_565 S
C820 C821 1.287 . S
C821 C820 1.287 . S
C821 C822 1.524 . S
C821 H824 0.999 . S
C822 H792 0.950 . S
C822 C821 1.524 . S
C822 C823 1.415 . S
C823 H793 0.950 . S
C823 C818 1.363 . S
C823 C822 1.415 . S
H824 C821 0.999 . S
H825 C806 0.913 . S
H826 C844 0.951 . S
H827 C846 0.951 . S
H828 C848 0.950 . S
H829 C849 0.950 . S
H830 C851 0.950 . S
H831 C854 0.950 . S
H832 C855 0.950 . S
H833 C857 0.950 . S
H834 C858 0.950 . S
H835 C859 0.951 . S
H836 C861 0.951 . S
H837 C863 0.950 . S
H838 C864 0.950 . S
H839 C866 0.950 . S
H840 C869 0.950 . S
H841 C870 0.950 . S
H842 C872 0.950 . S
H843 C873 0.950 . S
C844 H826 0.951 . S
C844 C845 1.366 . S
C844 C846 1.388 . S
C845 C844 1.366 . S
C845 C849 1.385 . S
C846 H827 0.951 . S
C846 C844 1.388 . S
C846 C847 1.366 . S
C847 C846 1.366 . S
C847 C848 1.414 . S
C847 C850 1.499 . S
C848 H828 0.950 . S
C848 C847 1.414 . S
C848 C849 1.374 . S
C849 H829 0.950 . S
C849 C845 1.385 . S
C849 C848 1.374 . S
C850 C847 1.499 . S
C850 C851 1.373 . S
C850 C852 1.389 . S
C851 H830 0.950 . S
C851 C850 1.373 . S
C851 C867 1.377 . S
C852 C850 1.389 . S
C852 C853 1.524 . S
C852 C866 1.377 . S
C853 C852 1.524 . S
C853 C854 1.397 . S
C853 C858 1.363 . S
C854 H831 0.950 . S
C854 C853 1.397 . S
C854 C855 1.334 . S
C855 H832 0.950 . S
C855 C854 1.334 . S
C855 C856 1.287 . S
C856 C855 1.287 . S
C856 C857 1.524 . S
C856 H875 0.913 . S
C857 H833 0.950 . S
C857 C856 1.524 . S
C857 C858 1.415 . S
C858 H834 0.950 . S
C858 C853 1.363 . S
C858 C857 1.415 . S
C859 H835 0.951 . S
C859 C860 1.366 . S
C859 C861 1.388 . S
C860 C859 1.366 . S
C860 C864 1.385 . S
C861 H836 0.951 . S
C861 C859 1.388 . S
C861 C862 1.366 . S
C862 C861 1.366 . S
C862 C863 1.414 . S
C862 C865 1.499 . S
C863 H837 0.950 . S
C863 C862 1.414 . S
C863 C864 1.374 . S
C864 H838 0.950 . S
C864 C860 1.385 . S
C864 C863 1.374 . S
C865 C862 1.499 . S
C865 C866 1.373 . S
C865 C867 1.389 . S
C866 H839 0.950 . S
C866 C852 1.377 . S
C866 C865 1.373 . S
C867 C851 1.377 . S
C867 C865 1.389 . S
C867 C868 1.524 . S
C868 C867 1.524 . S
C868 C869 1.397 . S
C868 C873 1.363 . S
C869 H840 0.950 . S
C869 C868 1.397 . S
C869 C870 1.334 . S
C870 H841 0.950 . S
C870 C869 1.334 . S
C870 C871 1.287 . S
C871 C870 1.287 . S
C871 C872 1.524 . S
C871 H874 0.999 . S
C872 H842 0.950 . S
C872 C871 1.524 . S
C872 C873 1.415 . S
C873 H843 0.950 . S
C873 C868 1.363 . S
C873 C872 1.415 . S
H874 C871 0.999 . S
H875 C856 0.913 . S
H876 C894 0.951 . S
H877 C896 0.951 . S
H878 C898 0.950 . S
H879 C899 0.950 . S
H880 C901 0.950 . S
H881 C904 0.950 . S
H882 C905 0.950 . S
H883 C907 0.950 . S
H884 C908 0.950 . S
H885 C909 0.951 . S
H886 C911 0.951 . S
H887 C913 0.950 . S
H888 C914 0.950 . S
H889 C916 0.950 . S
H890 C919 0.950 . S
H891 C920 0.950 . S
H892 C922 0.950 . S
H893 C923 0.950 . S
C894 H876 0.951 . S
C894 C895 1.366 . S
C894 C896 1.388 . S
C895 C894 1.366 . S
C895 C899 1.385 . S
C896 H877 0.951 . S
C896 C894 1.388 . S
C896 C897 1.366 . S
C897 C896 1.366 . S
C897 C898 1.414 . S
C897 C900 1.499 . S
C898 H878 0.950 . S
C898 C897 1.414 . S
C898 C899 1.374 . S
C899 H879 0.950 . S
C899 C895 1.385 . S
C899 C898 1.374 . S
C900 C897 1.499 . S
C900 C901 1.373 1_545 S
C900 C902 1.389 . S
C901 H880 0.950 . S
C901 C900 1.373 1_565 S
C901 C917 1.377 . S
C902 C900 1.389 . S
C902 C903 1.524 . S
C902 C916 1.377 . S
C903 C902 1.524 . S
C903 C904 1.397 . S
C903 C908 1.363 . S
C904 H881 0.950 . S
C904 C903 1.397 . S
C904 C905 1.334 . S
C905 H882 0.950 . S
C905 C904 1.334 . S
C905 C906 1.287 . S
C906 C905 1.287 . S
C906 C907 1.524 . S
C906 H925 0.913 . S
C907 H883 0.950 . S
C907 C906 1.524 . S
C907 C908 1.415 . S
C908 H884 0.950 . S
C908 C903 1.363 . S
C908 C907 1.415 . S
C909 H885 0.951 . S
C909 C910 1.366 . S
C909 C911 1.388 . S
C910 C909 1.366 . S
C910 C914 1.385 . S
C911 H886 0.951 . S
C911 C909 1.388 . S
C911 C912 1.366 . S
C912 C911 1.366 . S
C912 C913 1.414 . S
C912 C915 1.499 . S
C913 H887 0.950 . S
C913 C912 1.414 . S
C913 C914 1.374 . S
C914 H888 0.950 . S
C914 C910 1.385 . S
C914 C913 1.374 . S
C915 C912 1.499 . S
C915 C916 1.373 . S
C915 C917 1.389 1_545 S
C916 H889 0.950 . S
C916 C902 1.377 . S
C916 C915 1.373 . S
C917 C901 1.377 . S
C917 C915 1.389 1_565 S
C917 C918 1.524 . S
C918 C917 1.524 . S
C918 C919 1.397 . S
C918 C923 1.363 . S
C919 H890 0.950 . S
C919 C918 1.397 . S
C919 C920 1.334 . S
C920 H891 0.950 . S
C920 C919 1.334 . S
C920 C921 1.287 . S
C921 C920 1.287 . S
C921 C922 1.524 . S
C921 H924 0.999 . S
C922 H892 0.950 . S
C922 C921 1.524 . S
C922 C923 1.415 . S
C923 H893 0.950 . S
C923 C918 1.363 . S
C923 C922 1.415 . S
H924 C921 0.999 . S
H925 C906 0.913 . S
H926 C944 0.951 . S
H927 C946 0.951 . S
H928 C948 0.950 . S
H929 C949 0.950 . S
H930 C951 0.950 . S
H931 C954 0.950 . S
H932 C955 0.950 . S
H933 C957 0.950 . S
H934 C958 0.950 . S
H935 C959 0.951 . S
H936 C961 0.951 . S
H937 C963 0.950 . S
H938 C964 0.950 . S
H939 C966 0.950 . S
H940 C969 0.950 . S
H941 C970 0.950 . S
H942 C972 0.950 . S
H943 C973 0.950 . S
C944 H926 0.951 . S
C944 C945 1.366 . S
C944 C946 1.388 . S
C945 C944 1.366 . S
C945 C949 1.385 . S
C946 H927 0.951 . S
C946 C944 1.388 . S
C946 C947 1.366 . S
C947 C946 1.366 . S
C947 C948 1.414 . S
C947 C950 1.499 . S
C948 H928 0.950 . S
C948 C947 1.414 . S
C948 C949 1.374 . S
C949 H929 0.950 . S
C949 C945 1.385 . S
C949 C948 1.374 . S
C950 C947 1.499 . S
C950 C951 1.373 . S
C950 C952 1.389 . S
C951 H930 0.950 . S
C951 C950 1.373 . S
C951 C967 1.377 . S
C952 C950 1.389 . S
C952 C953 1.524 . S
C952 C966 1.377 . S
C953 C952 1.524 . S
C953 C954 1.397 . S
C953 C958 1.363 . S
C954 H931 0.950 . S
C954 C953 1.397 . S
C954 C955 1.334 . S
C955 H932 0.950 . S
C955 C954 1.334 . S
C955 C956 1.287 . S
C956 C955 1.287 . S
C956 C957 1.524 . S
C956 H975 0.913 . S
C957 H933 0.950 . S
C957 C956 1.524 . S
C957 C958 1.415 . S
C958 H934 0.950 . S
C958 C953 1.363 . S
C958 C957 1.415 . S
C959 H935 0.951 . S
C959 C960 1.366 . S
C959 C961 1.388 . S
C960 C959 1.366 . S
C960 C964 1.385 . S
C961 H936 0.951 . S
C961 C959 1.388 . S
C961 C962 1.366 . S
C962 C961 1.366 . S
C962 C963 1.414 . S
C962 C965 1.462 1_554 S
C963 H937 0.950 . S
C963 C962 1.414 . S
C963 C964 1.374 . S
C964 H938 0.950 . S
C964 C960 1.385 . S
C964 C963 1.374 . S
C965 C962 1.462 1_556 S
C965 C966 1.390 . S
C965 C967 1.412 . S
C966 H939 0.950 . S
C966 C952 1.377 . S
C966 C965 1.390 . S
C967 C951 1.377 . S
C967 C965 1.412 . S
C967 C968 1.524 . S
C968 C967 1.524 . S
C968 C969 1.397 1_556 S
C968 C973 1.363 . S
C969 H940 0.950 . S
C969 C968 1.397 1_554 S
C969 C970 1.334 . S
C970 H941 0.950 . S
C970 C969 1.334 . S
C970 C971 1.287 . S
C971 C970 1.287 . S
C971 C972 1.524 1_554 S
C971 H974 0.999 . S
C972 H942 0.950 . S
C972 C971 1.524 1_556 S
C972 C973 1.415 . S
C973 H943 0.950 . S
C973 C968 1.363 . S
C973 C972 1.415 . S
H974 C971 0.999 . S
H975 C956 0.913 . S
H976 C994 0.951 . S
H977 C996 0.951 . S
H978 C998 0.950 . S
H979 C999 0.950 . S
H980 C1001 0.950 . S
H981 C1004 0.950 . S
H982 C1005 0.950 . S
H983 C1007 0.950 . S
H984 C1008 0.950 1_455 S
H985 C1009 0.951 . S
H986 C1011 0.951 . S
H987 C1013 0.950 . S
H988 C1014 0.950 . S
H989 C1016 0.950 . S
H990 C1019 0.950 . S
H991 C1020 0.950 . S
H992 C1022 0.950 . S
H993 C1023 0.950 1_655 S
C994 H976 0.951 . S
C994 C995 1.366 1_455 S
C994 C996 1.388 . S
C995 C994 1.366 1_655 S
C995 C999 1.385 . S
C996 H977 0.951 . S
C996 C994 1.388 . S
C996 C997 1.366 1_455 S
C997 C996 1.366 1_655 S
C997 C998 1.414 . S
C997 C1000 1.499 . S
C998 H978 0.950 . S
C998 C997 1.414 . S
C998 C999 1.374 . S
C999 H979 0.950 . S
C999 C995 1.385 . S
C999 C998 1.374 . S
C1000 C997 1.499 . S
C1000 C1001 1.373 1_655 S
C1000 C1002 1.389 . S
C1001 H980 0.950 . S
C1001 C1000 1.373 1_455 S
C1001 C1017 1.377 . S
C1002 C1000 1.389 . S
C1002 C1003 1.524 . S
C1002 C1016 1.377 . S
C1003 C1002 1.524 . S
C1003 C1004 1.397 . S
C1003 C1008 1.363 . S
C1004 H981 0.950 . S
C1004 C1003 1.397 . S
C1004 C1005 1.334 . S
C1005 H982 0.950 . S
C1005 C1004 1.334 . S
C1005 C1006 1.287 . S
C1006 C1005 1.287 . S
C1006 C1007 1.524 . S
C1006 H1025 0.913 . S
C1007 H983 0.950 . S
C1007 C1006 1.524 . S
C1007 C1008 1.415 . S
C1008 H984 0.950 1_655 S
C1008 C1003 1.363 . S
C1008 C1007 1.415 . S
C1009 H985 0.951 . S
C1009 C1010 1.366 1_655 S
C1009 C1011 1.388 . S
C1010 C1009 1.366 1_455 S
C1010 C1014 1.385 . S
C1011 H986 0.951 . S
C1011 C1009 1.388 . S
C1011 C1012 1.366 1_655 S
C1012 C1011 1.366 1_455 S
C1012 C1013 1.414 . S
C1012 C1015 1.499 . S
C1013 H987 0.950 . S
C1013 C1012 1.414 . S
C1013 C1014 1.374 . S
C1014 H988 0.950 . S
C1014 C1010 1.385 . S
C1014 C1013 1.374 . S
C1015 C1012 1.499 . S
C1015 C1016 1.373 1_455 S
C1015 C1017 1.389 . S
C1016 H989 0.950 . S
C1016 C1002 1.377 . S
C1016 C1015 1.373 1_655 S
C1017 C1001 1.377 . S
C1017 C1015 1.389 . S
C1017 C1018 1.524 . S
C1018 C1017 1.524 . S
C1018 C1019 1.397 . S
C1018 C1023 1.363 . S
C1019 H990 0.950 . S
C1019 C1018 1.397 . S
C1019 C1020 1.334 . S
C1020 H991 0.950 . S
C1020 C1019 1.334 . S
C1020 C1021 1.287 . S
C1021 C1020 1.287 . S
C1021 C1022 1.524 . S
C1021 H1024 0.999 . S
C1022 H992 0.950 . S
C1022 C1021 1.524 . S
C1022 C1023 1.415 . S
C1023 H993 0.950 1_455 S
C1023 C1018 1.363 . S
C1023 C1022 1.415 . S
H1024 C1021 0.999 . S
H1025 C1006 0.913 . S
C145 C2 1.496 . S
C160 C120 1.370 . S
C195 C22 1.495 . S
C210 C98 1.378 . S
C245 C44 1.196 . S
C260 C112 1.247 . S
C295 C4 1.350 . S
C310 C123 1.402 . S
C360 C101 1.407 . S
C345 C24 1.361 . S
C410 C109 1.494 . S
C395 C42 1.630 . S
C445 C32 1.485 . S
C460 C76 1.270 . S
C495 C49 1.378 . S
C510 C87 1.184 . S
C545 C9 1.374 . S
C560 C65 1.188 . S
C610 C79 1.008 . S
C595 C29 1.001 . S
C660 C90 1.102 . S
C645 C52 1.090 . S
C695 C12 1.083 . S
C710 C68 1.095 . S
C760 C89 1.419 . S
C745 C18 1.466 1_455 S
C795 C38 1.463 . S
C810 C67 1.421 . S
C845 C58 1.478 . S
C860 C78 1.426 . S
C910 C111 1.462 . S
C895 C39 1.506 . S
C960 C122 1.465 . S
C945 C59 1.515 . S
C995 C19 1.516 1_655 S
C1010 C100 1.469 . S
