# Generated by pormake.
# Topology ctn, (3,4)-cn, num edge types: 1
# Building blocks:
#     Node 0, Type 0, BuildingBlock: WUSLED_clean_sbu_0, # of connection points: 3
#     Node 1, Type 0, BuildingBlock: WUSLED_clean_sbu_0, # of connection points: 3
#     Node 2, Type 0, BuildingBlock: WUSLED_clean_sbu_0, # of connection points: 3
#     Node 3, Type 0, BuildingBlock: WUSLED_clean_sbu_0, # of connection points: 3
#     Node 4, Type 0, BuildingBlock: WUSLED_clean_sbu_0, # of connection points: 3
#     Node 5, Type 0, BuildingBlock: WUSLED_clean_sbu_0, # of connection points: 3
#     Node 6, Type 0, BuildingBlock: WUSLED_clean_sbu_0, # of connection points: 3
#     Node 7, Type 0, BuildingBlock: WUSLED_clean_sbu_0, # of connection points: 3
#     Node 8, Type 0, BuildingBlock: WUSLED_clean_sbu_0, # of connection points: 3
#     Node 9, Type 0, BuildingBlock: WUSLED_clean_sbu_0, # of connection points: 3
#     Node 10, Type 0, BuildingBlock: WUSLED_clean_sbu_0, # of connection points: 3
#     Node 11, Type 0, BuildingBlock: WUSLED_clean_sbu_0, # of connection points: 3
#     Node 12, Type 0, BuildingBlock: WUSLED_clean_sbu_0, # of connection points: 3
#     Node 13, Type 0, BuildingBlock: WUSLED_clean_sbu_0, # of connection points: 3
#     Node 14, Type 0, BuildingBlock: WUSLED_clean_sbu_0, # of connection points: 3
#     Node 15, Type 0, BuildingBlock: WUSLED_clean_sbu_0, # of connection points: 3
#     Node 16, Type 1, BuildingBlock: TATPOV_clean_sbu_0, # of connection points: 4
#     Node 17, Type 1, BuildingBlock: TATPOV_clean_sbu_0, # of connection points: 4
#     Node 18, Type 1, BuildingBlock: TATPOV_clean_sbu_0, # of connection points: 4
#     Node 19, Type 1, BuildingBlock: TATPOV_clean_sbu_0, # of connection points: 4
#     Node 20, Type 1, BuildingBlock: TATPOV_clean_sbu_0, # of connection points: 4
#     Node 21, Type 1, BuildingBlock: TATPOV_clean_sbu_0, # of connection points: 4
#     Node 22, Type 1, BuildingBlock: TATPOV_clean_sbu_0, # of connection points: 4
#     Node 23, Type 1, BuildingBlock: TATPOV_clean_sbu_0, # of connection points: 4
#     Node 24, Type 1, BuildingBlock: TATPOV_clean_sbu_0, # of connection points: 4
#     Node 25, Type 1, BuildingBlock: TATPOV_clean_sbu_0, # of connection points: 4
#     Node 26, Type 1, BuildingBlock: TATPOV_clean_sbu_0, # of connection points: 4
#     Node 27, Type 1, BuildingBlock: TATPOV_clean_sbu_0, # of connection points: 4
#     Edge 28, Type (0, 1), BuildingBlock: EZIPEK_clean_linker_0, # of connection points: 2
#     Edge 29, Type (0, 1), BuildingBlock: EZIPEK_clean_linker_0, # of connection points: 2
#     Edge 30, Type (0, 1), BuildingBlock: EZIPEK_clean_linker_0, # of connection points: 2
#     Edge 31, Type (0, 1), BuildingBlock: EZIPEK_clean_linker_0, # of connection points: 2
#     Edge 32, Type (0, 1), BuildingBlock: EZIPEK_clean_linker_0, # of connection points: 2
#     Edge 33, Type (0, 1), BuildingBlock: EZIPEK_clean_linker_0, # of connection points: 2
#     Edge 34, Type (0, 1), BuildingBlock: EZIPEK_clean_linker_0, # of connection points: 2
#     Edge 35, Type (0, 1), BuildingBlock: EZIPEK_clean_linker_0, # of connection points: 2
#     Edge 36, Type (0, 1), BuildingBlock: EZIPEK_clean_linker_0, # of connection points: 2
#     Edge 37, Type (0, 1), BuildingBlock: EZIPEK_clean_linker_0, # of connection points: 2
#     Edge 38, Type (0, 1), BuildingBlock: EZIPEK_clean_linker_0, # of connection points: 2
#     Edge 39, Type (0, 1), BuildingBlock: EZIPEK_clean_linker_0, # of connection points: 2
#     Edge 40, Type (0, 1), BuildingBlock: EZIPEK_clean_linker_0, # of connection points: 2
#     Edge 41, Type (0, 1), BuildingBlock: EZIPEK_clean_linker_0, # of connection points: 2
#     Edge 42, Type (0, 1), BuildingBlock: EZIPEK_clean_linker_0, # of connection points: 2
#     Edge 43, Type (0, 1), BuildingBlock: EZIPEK_clean_linker_0, # of connection points: 2
#     Edge 44, Type (0, 1), BuildingBlock: EZIPEK_clean_linker_0, # of connection points: 2
#     Edge 45, Type (0, 1), BuildingBlock: EZIPEK_clean_linker_0, # of connection points: 2
#     Edge 46, Type (0, 1), BuildingBlock: EZIPEK_clean_linker_0, # of connection points: 2
#     Edge 47, Type (0, 1), BuildingBlock: EZIPEK_clean_linker_0, # of connection points: 2
#     Edge 48, Type (0, 1), BuildingBlock: EZIPEK_clean_linker_0, # of connection points: 2
#     Edge 49, Type (0, 1), BuildingBlock: EZIPEK_clean_linker_0, # of connection points: 2
#     Edge 50, Type (0, 1), BuildingBlock: EZIPEK_clean_linker_0, # of connection points: 2
#     Edge 51, Type (0, 1), BuildingBlock: EZIPEK_clean_linker_0, # of connection points: 2
#     Edge 52, Type (0, 1), BuildingBlock: EZIPEK_clean_linker_0, # of connection points: 2
#     Edge 53, Type (0, 1), BuildingBlock: EZIPEK_clean_linker_0, # of connection points: 2
#     Edge 54, Type (0, 1), BuildingBlock: EZIPEK_clean_linker_0, # of connection points: 2
#     Edge 55, Type (0, 1), BuildingBlock: EZIPEK_clean_linker_0, # of connection points: 2
#     Edge 56, Type (0, 1), BuildingBlock: EZIPEK_clean_linker_0, # of connection points: 2
#     Edge 57, Type (0, 1), BuildingBlock: EZIPEK_clean_linker_0, # of connection points: 2
#     Edge 58, Type (0, 1), BuildingBlock: EZIPEK_clean_linker_0, # of connection points: 2
#     Edge 59, Type (0, 1), BuildingBlock: EZIPEK_clean_linker_0, # of connection points: 2
#     Edge 60, Type (0, 1), BuildingBlock: EZIPEK_clean_linker_0, # of connection points: 2
#     Edge 61, Type (0, 1), BuildingBlock: EZIPEK_clean_linker_0, # of connection points: 2
#     Edge 62, Type (0, 1), BuildingBlock: EZIPEK_clean_linker_0, # of connection points: 2
#     Edge 63, Type (0, 1), BuildingBlock: EZIPEK_clean_linker_0, # of connection points: 2
#     Edge 64, Type (0, 1), BuildingBlock: EZIPEK_clean_linker_0, # of connection points: 2
#     Edge 65, Type (0, 1), BuildingBlock: EZIPEK_clean_linker_0, # of connection points: 2
#     Edge 66, Type (0, 1), BuildingBlock: EZIPEK_clean_linker_0, # of connection points: 2
#     Edge 67, Type (0, 1), BuildingBlock: EZIPEK_clean_linker_0, # of connection points: 2
#     Edge 68, Type (0, 1), BuildingBlock: EZIPEK_clean_linker_0, # of connection points: 2
#     Edge 69, Type (0, 1), BuildingBlock: EZIPEK_clean_linker_0, # of connection points: 2
#     Edge 70, Type (0, 1), BuildingBlock: EZIPEK_clean_linker_0, # of connection points: 2
#     Edge 71, Type (0, 1), BuildingBlock: EZIPEK_clean_linker_0, # of connection points: 2
#     Edge 72, Type (0, 1), BuildingBlock: EZIPEK_clean_linker_0, # of connection points: 2
#     Edge 73, Type (0, 1), BuildingBlock: EZIPEK_clean_linker_0, # of connection points: 2
#     Edge 74, Type (0, 1), BuildingBlock: EZIPEK_clean_linker_0, # of connection points: 2
#     Edge 75, Type (0, 1), BuildingBlock: EZIPEK_clean_linker_0, # of connection points: 2
# Relax obj value: 0.004
# Max RMSD: 0.048
# Mean RMSD: 0.023
data_MOF--net-ctn--node1-WUSLED_clean_sbu_0--node2-TATPOV_clean_sbu_0--edge1-EZIPEK_clean_linker_0
_symmetry_space_group_name_H-M    P1
_symmetry_Int_Tables_number       1
_symmetry_cell_setting            triclinic
loop_
_symmetry_equiv_pos_as_xyz
'x, y, z'
_cell_length_a     55.975106
_cell_length_b     56.353865
_cell_length_c     56.282162
_cell_angle_alpha  91.61765
_cell_angle_beta   90.893565
_cell_angle_gamma 90.96603
loop_
_atom_site_label
_atom_site_type_symbol
_atom_site_fract_x
_atom_site_fract_y
_atom_site_fract_z
_atom_type_partial_charge
C0 C 0.9968 0.05629 0.09514 0.0
C1 C 1.00538 0.03933 0.11086 0.0
C2 C 0.96951 0.04322 0.13474 0.0
C3 C 0.99182 0.03286 0.13055 0.0
C4 C 0.96102 0.0601 0.11894 0.0
C5 C 0.97453 0.06655 0.09935 0.0
U6 U 0.04804 0.05149 0.04939 0.0
O7 O 0.0465 0.05782 0.011 0.0
O8 O 0.06948 0.08054 0.0343 0.0
C9 C 0.06054 0.07676 0.01276 0.0
C10 C 0.01062 0.06396 0.07442 0.0
C11 C 0.05306 0.098 0.99962 0.0
C12 C 0.02368 0.1197 0.9766 0.0
C13 C 0.02951 0.10062 0.99102 0.0
C14 C 0.06457 0.13426 0.97967 0.0
C15 C 0.04124 0.13651 0.97055 0.0
C16 C 0.07041 0.11519 0.99399 0.0
C17 C 0.09317 0.99969 0.05357 0.0
C18 C 0.12962 0.99419 0.03102 0.0
C19 C 0.11594 0.96346 0.05706 0.0
C20 C 0.09636 0.97729 0.06332 0.0
C21 C 0.13277 0.97175 0.04088 0.0
C22 C 0.10992 1.00808 0.03731 0.0
C23 C 0.07239 0.01379 0.06109 0.0
O24 O 0.03237 0.07226 0.07883 0.0
O25 O 1.00919 0.05006 0.05529 0.0
O26 O 0.05357 0.01285 0.04682 0.0
O27 O 0.07696 0.03523 0.07 0.0
H28 H 0.02252 0.03119 0.10794 0.0
H29 H 0.9987 0.01982 0.14254 0.0
H30 H 0.9439 0.0683 0.12182 0.0
H31 H 0.9676 0.07968 0.08747 0.0
H32 H 1.00558 0.12109 0.96975 0.0
H33 H 0.01572 0.08769 0.995 0.0
H34 H 0.07839 0.14699 0.97522 0.0
H35 H 0.0887 0.11354 1.00023 0.0
H36 H 0.14241 1.00093 0.01852 0.0
H37 H 0.11802 0.94626 0.06487 0.0
H38 H 0.08368 0.97049 0.07591 0.0
H39 H 0.1078 0.02532 0.02958 0.0
C40 C 0.26977 0.75828 0.17296 0.0
C41 C 0.29091 0.76588 0.16207 0.0
C42 C 0.26827 0.79264 0.13734 0.0
C43 C 0.29013 0.7829 0.14437 0.0
C44 C 0.24731 0.78572 0.14886 0.0
C45 C 0.24806 0.76864 0.16646 0.0
U46 U 0.29618 0.72219 0.22448 0.0
O47 O 0.27772 0.70504 0.25383 0.0
O48 O 0.29738 0.68334 0.22798 0.0
C49 C 0.28322 0.68351 0.24639 0.0
C50 C 0.26955 0.73859 0.18986 0.0
C51 C 0.26385 0.66534 0.246 0.0
C52 C 0.22184 0.65347 0.24266 0.0
C53 C 0.23986 0.67098 0.24141 0.0
C54 C 0.25155 0.62443 0.25257 0.0
C55 C 0.22756 0.63011 0.24844 0.0
C56 C 0.26951 0.6419 0.25138 0.0
C57 C 0.35583 0.74177 0.2548 0.0
C58 C 0.37442 0.72173 0.28796 0.0
C59 C 0.39346 0.75664 0.272 0.0
C60 C 0.37486 0.75828 0.2553 0.0
C61 C 0.39335 0.73847 0.28854 0.0
C62 C 0.35573 0.72339 0.27118 0.0
C63 C 0.33629 0.74438 0.23723 0.0
O64 O 0.28566 0.72213 0.18668 0.0
O65 O 0.26648 0.74442 0.21237 0.0
O66 O 0.31538 0.74988 0.24593 0.0
O67 O 0.33484 0.72811 0.22005 0.0
H68 H 0.3079 0.75825 0.16679 0.0
H69 H 0.3065 0.78802 0.13569 0.0
H70 H 0.23028 0.79301 0.14369 0.0
H71 H 0.23155 0.76306 0.17459 0.0
H72 H 0.20341 0.65817 0.23942 0.0
H73 H 0.23505 0.68893 0.23718 0.0
H74 H 0.25631 0.60653 0.25703 0.0
H75 H 0.28787 0.63717 0.25501 0.0
H76 H 0.37407 0.70756 0.30057 0.0
H77 H 0.40791 0.76968 0.27215 0.0
H78 H 0.37526 0.77256 0.24281 0.0
H79 H 0.34117 0.71046 0.27105 0.0
C80 C 0.96793 0.42611 1.00123 0.0
C81 C 0.98708 0.41275 0.00973 0.0
C82 C 0.98269 0.3853 0.97566 0.0
C83 C 0.99439 0.39243 0.99704 0.0
C84 C 0.96339 0.39853 0.9674 0.0
C85 C 0.95608 0.41877 0.98008 0.0
U86 U 0.97489 0.47342 0.0513 0.0
O87 O 0.97022 0.51207 0.05063 0.0
O88 O 0.94739 0.49051 0.07321 0.0
C89 C 0.95186 0.51166 0.0649 0.0
C90 C 0.96021 0.44781 0.01394 0.0
C91 C 0.93087 0.52514 0.0573 0.0
C92 C 0.9009 0.5351 0.02762 0.0
C93 C 0.92045 0.52157 0.03459 0.0
C94 C 0.90182 0.55568 0.06604 0.0
C95 C 0.8915 0.55228 0.04329 0.0
C96 C 0.92137 0.5422 0.07297 0.0
C97 C 0.02645 0.46892 0.09682 0.0
C98 C 0.03966 0.50021 0.12498 0.0
C99 C 0.05195 0.45967 0.13051 0.0
C100 C 0.03921 0.45243 0.10995 0.0
C101 C 0.05216 0.48355 0.13827 0.0
C102 C 0.02676 0.49291 0.10442 0.0
C103 C 0.01279 0.46053 0.07552 0.0
O104 O 0.95199 0.44486 0.03542 0.0
O105 O 0.97463 0.46637 0.01262 0.0
O106 O 0.01388 0.47403 0.05688 0.0
O107 O 0.99116 0.45225 0.07939 0.0
H108 H 0.99644 0.41815 0.02604 0.0
H109 H 1.00932 0.38244 1.00367 0.0
H110 H 0.95418 0.39333 0.95095 0.0
H111 H 0.94127 0.42884 0.97326 0.0
H112 H 0.89313 0.53226 0.01 0.0
H113 H 0.92752 0.50846 0.02225 0.0
H114 H 0.89481 0.56886 0.07833 0.0
H115 H 0.92919 0.54521 0.09055 0.0
H116 H 0.03964 0.51871 0.13072 0.0
H117 H 0.06148 0.44659 0.14054 0.0
H118 H 0.03917 0.43386 0.10438 0.0
H119 H 0.01694 0.50592 0.09456 0.0
C120 C 0.72236 0.745 0.17635 0.0
C121 C 0.74326 0.7508 0.16411 0.0
C122 C 0.73598 0.71731 0.13644 0.0
C123 C 0.75003 0.73702 0.14425 0.0
C124 C 0.71504 0.71169 0.14862 0.0
C125 C 0.70831 0.72543 0.16842 0.0
U126 U 0.72722 0.7983 0.22101 0.0
O127 O 0.69828 0.81873 0.23747 0.0
O128 O 0.72272 0.79867 0.25982 0.0
C129 C 0.70326 0.81139 0.25891 0.0
C130 C 0.71489 0.75882 0.19751 0.0
C131 C 0.68266 0.80291 0.27265 0.0
C132 C 0.65667 0.77133 0.2868 0.0
C133 C 0.67642 0.77867 0.2736 0.0
C134 C 0.64917 0.81229 0.29812 0.0
C135 C 0.64281 0.78814 0.29902 0.0
C136 C 0.66891 0.81959 0.28506 0.0
C137 C 0.77537 0.84749 0.21324 0.0
C138 C 0.79346 0.87486 0.24289 0.0
C139 C 0.79517 0.88397 0.20115 0.0
C140 C 0.78262 0.86283 0.19536 0.0
C141 C 0.80078 0.89008 0.22494 0.0
C142 C 0.78079 0.85375 0.23711 0.0
C143 C 0.76287 0.8249 0.20638 0.0
O144 O 0.72997 0.7596 0.21566 0.0
O145 O 0.70519 0.77943 0.19348 0.0
O146 O 0.74082 0.82669 0.19836 0.0
O147 O 0.76567 0.80704 0.22066 0.0
H148 H 0.75432 0.76588 0.16997 0.0
H149 H 0.76623 0.74164 0.13503 0.0
H150 H 0.70398 0.69659 0.14285 0.0
H151 H 0.69212 0.72069 0.17762 0.0
H152 H 0.65202 0.75262 0.28726 0.0
H153 H 0.68674 0.76548 0.2641 0.0
H154 H 0.63871 0.82552 0.30739 0.0
H155 H 0.6734 0.83835 0.28457 0.0
H156 H 0.79755 0.87936 0.26137 0.0
H157 H 0.8006 0.89553 0.18708 0.0
H158 H 0.77867 0.85837 0.17684 0.0
H159 H 0.77536 0.8423 0.25126 0.0
C160 C 1.00084 0.96757 0.4258 0.0
C161 C 1.00894 0.98704 0.41288 0.0
C162 C 0.97471 0.98241 0.38577 0.0
C163 C 0.99596 0.9944 0.39295 0.0
C164 C 0.96682 0.96284 0.39858 0.0
C165 C 0.97978 0.95549 0.41844 0.0
U166 U 0.05215 0.97356 0.47174 0.0
O167 O 0.05225 0.96848 0.51034 0.0
O168 O 0.0742 0.94576 0.48746 0.0
C169 C 0.0662 0.94995 0.50898 0.0
C170 C 0.01394 0.95964 0.44699 0.0
C171 C 0.05875 0.9289 0.52233 0.0
C172 C 0.02818 0.90414 0.54016 0.0
C173 C 0.03456 0.9237 0.52663 0.0
C174 C 0.06996 0.89447 0.54494 0.0
C175 C 0.04585 0.88945 0.54945 0.0
C176 C 0.07634 0.91409 0.53154 0.0
C177 C 0.09829 0.02461 0.46642 0.0
C178 C 0.12784 0.03726 0.49658 0.0
C179 C 0.13127 0.05082 0.45627 0.0
C180 C 0.1105 0.03801 0.4497 0.0
C181 C 0.14017 0.05047 0.47969 0.0
C182 C 0.10706 0.0243 0.48995 0.0
C183 C 0.07662 0.01111 0.45872 0.0
O184 O 0.03536 0.95126 0.44318 0.0
O185 O 0.01316 0.97384 0.46589 0.0
O186 O 0.05828 0.01224 0.47301 0.0
O187 O 0.08014 0.98962 0.44995 0.0
H188 H 0.02519 0.99656 0.41829 0.0
H189 H 1.00231 1.00954 0.38328 0.0
H190 H 0.95048 0.9534 0.39332 0.0
H191 H 0.97327 0.94043 0.42815 0.0
H192 H 1.00948 0.90042 0.54336 0.0
H193 H 0.02063 0.9348 0.51967 0.0
H194 H 0.08381 0.88326 0.55189 0.0
H195 H 0.09509 0.91778 0.52847 0.0
H196 H 0.13447 0.03679 0.51474 0.0
H197 H 0.14054 0.0609 0.44301 0.0
H198 H 0.10402 0.03846 0.43148 0.0
H199 H 0.09792 0.014 0.50311 0.0
C200 C 0.21711 0.77319 0.84671 0.0
C201 C 0.19889 0.77964 0.8624 0.0
C202 C 0.22787 0.79947 0.88912 0.0
C203 C 0.20421 0.79262 0.88345 0.0
C204 C 0.24618 0.79293 0.87358 0.0
C205 C 0.24087 0.77984 0.85254 0.0
U206 U 0.22507 0.72568 0.79609 0.0
O207 O 0.19696 0.70458 0.77684 0.0
O208 O 0.21974 0.72935 0.7576 0.0
C209 C 0.20097 0.71498 0.75664 0.0
C210 C 0.21056 0.76065 0.824 0.0
C211 C 0.17969 0.72335 0.7436 0.0
C212 C 0.15594 0.75498 0.72711 0.0
C213 C 0.17534 0.74767 0.74099 0.0
C214 C 0.14453 0.71388 0.71888 0.0
C215 C 0.14052 0.73813 0.71578 0.0
C216 C 0.16398 0.70657 0.73262 0.0
C217 C 0.27705 0.68162 0.79692 0.0
C218 C 0.27973 0.64522 0.77284 0.0
C219 C 0.3147 0.66096 0.7936 0.0
C220 C 0.30123 0.67966 0.80292 0.0
C221 C 0.30479 0.64399 0.77697 0.0
C222 C 0.26629 0.66404 0.78209 0.0
C223 C 0.2633 0.7015 0.80721 0.0
O224 O 0.22491 0.76371 0.80601 0.0
O225 O 0.20267 0.73865 0.82549 0.0
O226 O 0.24177 0.69625 0.81474 0.0
O227 O 0.26416 0.7214 0.79561 0.0
H228 H 0.18045 0.7748 0.85823 0.0
H229 H 0.18987 0.79745 0.89526 0.0
H230 H 0.26456 0.79799 0.87775 0.0
H231 H 0.25527 0.77511 0.84078 0.0
H232 H 0.15312 0.77377 0.72493 0.0
H233 H 0.18711 0.761 0.74934 0.0
H234 H 0.13284 0.70062 0.7103 0.0
H235 H 0.16699 0.68775 0.73436 0.0
H236 H 0.26974 0.6315 0.76321 0.0
H237 H 0.33278 0.65976 0.80032 0.0
H238 H 0.30972 0.69244 0.81523 0.0
H239 H 0.24733 0.66456 0.778 0.0
C240 C 0.96678 0.59776 0.52598 0.0
C241 C 0.99015 0.60699 0.5242 0.0
C242 C 0.98032 0.64012 0.55076 0.0
C243 C 0.99692 0.62801 0.53662 0.0
C244 C 0.95705 0.63078 0.55257 0.0
C245 C 0.95035 0.60975 0.54029 0.0
U246 U 0.97237 0.55111 0.47534 0.0
O247 O 0.96702 0.51232 0.47587 0.0
O248 O 0.94395 0.53367 0.45335 0.0
C249 C 0.94805 0.5126 0.46182 0.0
C250 C 0.95899 0.57588 0.51293 0.0
C251 C 0.92689 0.49942 0.47002 0.0
C252 C 0.89376 0.49462 0.4971 0.0
C253 C 0.91375 0.50759 0.4896 0.0
C254 C 0.89984 0.46535 0.4655 0.0
C255 C 0.88675 0.47334 0.48514 0.0
C256 C 0.91975 0.47829 0.45801 0.0
C257 C 0.02316 0.55775 0.43011 0.0
C258 C 0.03966 0.5271 0.40413 0.0
C259 C 0.0471 0.56859 0.39619 0.0
C260 C 0.0337 0.57513 0.41605 0.0
C261 C 0.05024 0.54453 0.39017 0.0
C262 C 0.02615 0.53364 0.42394 0.0
C263 C 1.00967 0.56528 0.45129 0.0
O264 O 0.95008 0.57885 0.49151 0.0
O265 O 0.97349 0.55782 0.51404 0.0
O266 O 0.01119 0.55167 0.46983 0.0
O267 O 0.98793 0.57283 0.44728 0.0
H268 H 1.00307 0.59801 0.51316 0.0
H269 H 0.01495 0.63499 0.53502 0.0
H270 H 0.94402 0.63989 0.56338 0.0
H271 H 0.93225 0.60292 0.54184 0.0
H272 H 0.88385 0.50106 0.51228 0.0
H273 H 0.919 0.5239 0.49907 0.0
H274 H 0.89469 0.44899 0.45605 0.0
H275 H 0.92964 0.47174 0.44285 0.0
H276 H 0.04181 0.50845 0.39962 0.0
H277 H 0.05504 0.58225 0.38554 0.0
H278 H 0.03163 0.5938 0.4205 0.0
H279 H 0.01812 0.51991 0.43446 0.0
C280 C 0.78525 0.77568 0.86264 0.0
C281 C 0.80242 0.75779 0.86184 0.0
C282 C 0.7837 0.73865 0.89521 0.0
C283 C 0.80165 0.73937 0.87805 0.0
C284 C 0.76674 0.7567 0.89614 0.0
C285 C 0.76753 0.77508 0.87996 0.0
U286 U 0.81064 0.8079 0.80895 0.0
O287 O 0.79159 0.82337 0.77884 0.0
O288 O 0.81349 0.84634 0.80293 0.0
C289 C 0.79811 0.84522 0.78504 0.0
C290 C 0.78512 0.79478 0.84532 0.0
C291 C 0.77889 0.86282 0.78572 0.0
C292 C 0.7378 0.87372 0.79349 0.0
C293 C 0.75607 0.85706 0.79416 0.0
C294 C 0.76508 0.90229 0.77662 0.0
C295 C 0.74213 0.89638 0.78453 0.0
C296 C 0.7833 0.8856 0.77717 0.0
C297 C 0.86629 0.78479 0.77729 0.0
C298 C 0.87764 0.79333 0.7368 0.0
C299 C 0.90619 0.77567 0.76354 0.0
C300 C 0.88922 0.77597 0.78154 0.0
C301 C 0.90042 0.78408 0.74095 0.0
C302 C 0.8607 0.79377 0.75486 0.0
C303 C 0.84833 0.78375 0.79617 0.0
O304 O 0.80289 0.8103 0.84719 0.0
O305 O 0.78012 0.78809 0.82322 0.0
O306 O 0.82641 0.77804 0.78916 0.0
O307 O 0.84926 0.80116 0.81222 0.0
H308 H 0.81622 0.75797 0.84855 0.0
H309 H 0.81482 0.72553 0.87705 0.0
H310 H 0.75275 0.75638 0.90922 0.0
H311 H 0.75413 0.78871 0.88082 0.0
H312 H 0.7202 0.86888 0.79969 0.0
H313 H 0.75231 0.83962 0.80095 0.0
H314 H 0.76874 0.9197 0.76969 0.0
H315 H 0.80078 0.89039 0.77063 0.0
H316 H 0.8729 0.79993 0.71949 0.0
H317 H 0.92369 0.76851 0.76707 0.0
H318 H 0.89388 0.76901 0.79872 0.0
H319 H 0.84316 0.80078 0.75122 0.0
C320 C 0.28245 0.27613 0.36011 0.0
C321 C 0.30005 0.25866 0.35958 0.0
C322 C 0.28141 0.23919 0.39281 0.0
C323 C 0.29952 0.24028 0.37584 0.0
C324 C 0.26403 0.25685 0.39349 0.0
C325 C 0.26456 0.27518 0.37724 0.0
U326 U 0.30909 0.30956 0.30789 0.0
O327 O 0.29105 0.32405 0.2766 0.0
O328 O 0.31038 0.34801 0.30184 0.0
C329 C 0.29603 0.34617 0.28313 0.0
C330 C 0.28215 0.2952 0.34275 0.0
C331 C 0.27547 0.36218 0.28297 0.0
C332 C 0.23948 0.37764 0.30084 0.0
C333 C 0.2599 0.36366 0.30213 0.0
C334 C 0.25076 0.38999 0.26198 0.0
C335 C 0.233 0.38924 0.27967 0.0
C336 C 0.27123 0.37614 0.26328 0.0
C337 C 0.36801 0.28804 0.28062 0.0
C338 C 0.39095 0.30893 0.25119 0.0
C339 C 0.40227 0.26965 0.2622 0.0
C340 C 0.38303 0.26868 0.27772 0.0
C341 C 0.40801 0.29056 0.2499 0.0
C342 C 0.37165 0.30793 0.26674 0.0
C343 C 0.34842 0.28674 0.29774 0.0
O344 O 0.29896 0.31165 0.34554 0.0
O345 O 0.27873 0.28828 0.32044 0.0
O346 O 0.32731 0.28053 0.28885 0.0
O347 O 0.34757 0.30425 0.31363 0.0
H348 H 0.314 0.25913 0.34646 0.0
H349 H 0.31303 0.22675 0.37503 0.0
H350 H 0.24991 0.25625 0.40641 0.0
H351 H 0.25084 0.28851 0.3779 0.0
H352 H 0.22937 0.37931 0.31689 0.0
H353 H 0.26355 0.35402 0.31814 0.0
H354 H 0.24926 0.40134 0.24692 0.0
H355 H 0.28375 0.37629 0.24879 0.0
H356 H 0.3917 0.32404 0.23991 0.0
H357 H 0.41202 0.25347 0.25972 0.0
H358 H 0.37977 0.25259 0.28736 0.0
H359 H 0.35943 0.32262 0.26775 0.0
C360 C 0.47119 0.92395 0.50106 0.0
C361 C 0.48491 0.92548 0.48039 0.0
C362 C 0.48356 0.8825 0.47479 0.0
C363 C 0.4911 0.90496 0.46745 0.0
C364 C 0.47026 0.88078 0.49561 0.0
C365 C 0.46407 0.9013 0.50859 0.0
U366 U 0.47533 0.97291 0.55058 0.0
O367 O 0.46956 0.01134 0.54888 0.0
O368 O 0.4467 0.98962 0.5713 0.0
C369 C 0.45088 0.01072 0.56275 0.0
C370 C 0.46283 0.94594 0.51341 0.0
C371 C 0.4298 0.02378 0.55463 0.0
C372 C 0.40087 0.03403 0.52404 0.0
C373 C 0.42039 0.02066 0.53145 0.0
C374 C 0.39979 0.05351 0.56295 0.0
C375 C 0.3905 0.0506 0.53974 0.0
C376 C 0.41929 0.04019 0.57033 0.0
C377 C 0.52618 0.97066 0.59781 0.0
C378 C 0.52888 0.9779 0.64067 0.0
C379 C 0.56432 0.98169 0.61684 0.0
C380 C 0.55075 0.97585 0.59634 0.0
C381 C 0.55357 0.9822 0.63921 0.0
C382 C 0.51526 0.97221 0.62016 0.0
C383 C 0.51291 0.96182 0.57626 0.0
O384 O 0.4536 0.94355 0.53458 0.0
O385 O 0.47656 0.96501 0.51205 0.0
O386 O 0.51425 0.975 0.5574 0.0
O387 O 0.49143 0.95272 0.57937 0.0
H388 H 0.49042 0.9426 0.47388 0.0
H389 H 0.50125 0.90664 0.45133 0.0
H390 H 0.46415 0.86359 0.50145 0.0
H391 H 0.45324 0.89939 0.52423 0.0
H392 H 0.3939 0.03156 0.50606 0.0
H393 H 0.42824 1.00807 0.51908 0.0
H394 H 0.39203 0.0662 0.57528 0.0
H395 H 0.42632 0.04286 0.58827 0.0
H396 H 0.5203 0.9782 0.6578 0.0
H397 H 0.58337 0.98493 0.61538 0.0
H398 H 0.55962 0.97469 0.57938 0.0
H399 H 0.49637 0.96836 0.62193 0.0
C400 C 0.22164 0.24602 0.67293 0.0
C401 C 0.2452 0.24671 0.66464 0.0
C402 C 0.23432 0.21835 0.63264 0.0
C403 C 0.2515 0.23293 0.64461 0.0
C404 C 0.21072 0.21807 0.64068 0.0
C405 C 0.20445 0.23178 0.66066 0.0
U406 U 0.22773 0.29706 0.7203 0.0
O407 O 0.19947 0.31697 0.73834 0.0
O408 O 0.22365 0.29511 0.75915 0.0
C409 C 0.20428 0.30798 0.75916 0.0
C410 C 0.21464 0.25908 0.69478 0.0
C411 C 0.18373 0.29888 0.77287 0.0
C412 C 0.1409 0.29217 0.77756 0.0
C413 C 0.16029 0.29829 0.76337 0.0
C414 C 0.16795 0.2862 0.81074 0.0
C415 C 0.14453 0.28651 0.80146 0.0
C416 C 0.18734 0.29244 0.79661 0.0
C417 C 0.27698 0.34565 0.71486 0.0
C418 C 0.27837 0.38521 0.73351 0.0
C419 C 0.31406 0.36894 0.71605 0.0
C420 C 0.30129 0.34814 0.7095 0.0
C421 C 0.30268 0.38766 0.72803 0.0
C422 C 0.2656 0.36433 0.72702 0.0
C423 C 0.26388 0.32375 0.70693 0.0
O424 O 0.22974 0.25864 0.71288 0.0
O425 O 0.20525 0.28004 0.6919 0.0
O426 O 0.24179 0.32635 0.69929 0.0
O427 O 0.26645 0.30518 0.72031 0.0
H428 H 0.25875 0.25762 0.67381 0.0
H429 H 0.26979 0.2334 0.63862 0.0
H430 H 0.19722 0.20696 0.63167 0.0
H431 H 0.1862 0.23099 0.66677 0.0
H432 H 0.12296 0.29254 0.77008 0.0
H433 H 0.15681 0.30317 0.74519 0.0
H434 H 0.17111 0.28192 0.82916 0.0
H435 H 0.20514 0.29288 0.80446 0.0
H436 H 0.26934 0.39943 0.74286 0.0
H437 H 0.33281 0.37048 0.71177 0.0
H438 H 0.3104 0.33398 0.7001 0.0
H439 H 0.24687 0.36281 0.73139 0.0
C440 C 0.76961 0.26087 0.67397 0.0
C441 C 0.7911 0.26923 0.66434 0.0
C442 C 0.76886 0.29376 0.63699 0.0
C443 C 0.7907 0.28555 0.64596 0.0
C444 C 0.74748 0.28603 0.64719 0.0
C445 C 0.74787 0.26971 0.6655 0.0
U446 U 0.7947 0.22606 0.72729 0.0
O447 O 0.7749 0.21049 0.7568 0.0
O448 O 0.79463 0.18746 0.73222 0.0
C449 C 0.77969 0.18859 0.75001 0.0
C450 C 0.76911 0.24189 0.69161 0.0
C451 C 0.75946 0.17116 0.74969 0.0
C452 C 0.73864 0.13612 0.73264 0.0
C453 C 0.75632 0.15392 0.73123 0.0
C454 C 0.72649 0.15268 0.77063 0.0
C455 C 0.72378 0.13522 0.75247 0.0
C456 C 0.74421 0.17041 0.76929 0.0
C457 C 0.85418 0.24514 0.75871 0.0
C458 C 0.88107 0.22133 0.78243 0.0
C459 C 0.88462 0.26425 0.78437 0.0
C460 C 0.86557 0.26576 0.76814 0.0
C461 C 0.89271 0.24206 0.79143 0.0
C462 C 0.86188 0.22286 0.76618 0.0
C463 C 0.83502 0.24752 0.74056 0.0
O464 O 0.78509 0.22518 0.68923 0.0
O465 O 0.76584 0.24858 0.71387 0.0
O466 O 0.81407 0.25395 0.74848 0.0
O467 O 0.83355 0.23091 0.72369 0.0
H468 H 0.8081 0.26272 0.6706 0.0
H469 H 0.80738 0.29128 0.63827 0.0
H470 H 0.73047 0.2921 0.64049 0.0
H471 H 0.7311 0.26349 0.67263 0.0
H472 H 0.73686 0.12274 0.71848 0.0
H473 H 0.76784 0.15381 0.71595 0.0
H474 H 0.71525 0.15225 0.78611 0.0
H475 H 0.74636 0.18324 0.7839 0.0
H476 H 0.88707 0.20406 0.78769 0.0
H477 H 0.89339 0.28041 0.79111 0.0
H478 H 0.85994 0.28311 0.76265 0.0
H479 H 0.85332 0.20668 0.75923 0.0
C480 C 0.49908 0.55754 0.5954 0.0
C481 C 0.50281 0.53573 0.60629 0.0
C482 C 0.47133 0.54441 0.63464 0.0
C483 C 0.48902 0.52921 0.62581 0.0
C484 C 0.46785 0.56626 0.62384 0.0
C485 C 0.48159 0.57274 0.60442 0.0
U486 U 0.54994 0.5517 0.54949 0.0
O487 O 0.54825 0.5574 0.51097 0.0
O488 O 0.57147 0.58031 0.53382 0.0
C489 C 0.56256 0.57615 0.51233 0.0
C490 C 0.51271 0.56482 0.57444 0.0
C491 C 0.55492 0.59712 0.49904 0.0
C492 C 0.52431 0.62403 0.48523 0.0
C493 C 0.53119 0.60495 0.49921 0.0
C494 C 0.56482 0.628 0.47119 0.0
C495 C 0.54105 0.63557 0.47095 0.0
C496 C 0.57167 0.60897 0.4851 0.0
C497 C 0.59494 0.49996 0.55455 0.0
C498 C 0.62975 0.49286 0.52998 0.0
C499 C 0.61904 0.4649 0.5601 0.0
C500 C 0.59957 0.47888 0.56636 0.0
C501 C 0.6343 0.47171 0.54186 0.0
C502 C 0.61017 0.5069 0.53627 0.0
C503 C 0.5742 0.51417 0.56187 0.0
O504 O 0.53448 0.57318 0.57859 0.0
O505 O 0.51117 0.55055 0.55558 0.0
O506 O 0.55536 0.51303 0.54763 0.0
O507 O 0.57884 0.53574 0.57039 0.0
H508 H 0.51624 0.52374 0.59962 0.0
H509 H 0.49201 0.5123 0.63392 0.0
H510 H 0.45435 0.57824 0.63037 0.0
H511 H 0.47843 0.58963 0.5963 0.0
H512 H 0.50588 0.62957 0.48527 0.0
H513 H 0.51796 0.5961 0.50984 0.0
H514 H 0.57799 0.63662 0.46031 0.0
H515 H 0.59004 0.60323 0.48468 0.0
H516 H 0.64133 0.49845 0.51587 0.0
H517 H 0.6222 0.44869 0.56948 0.0
H518 H 0.58806 0.47322 0.58051 0.0
H519 H 0.60692 0.52311 0.52693 0.0
C520 C 0.4993 0.47087 0.9265 0.0
C521 C 0.50813 0.48964 0.91305 0.0
C522 C 0.47336 0.48606 0.88651 0.0
C523 C 0.49524 0.49717 0.89312 0.0
C524 C 0.46468 0.46726 0.89995 0.0
C525 C 0.47754 0.45975 0.91978 0.0
U526 U 0.551 0.47458 0.97254 0.0
O527 O 0.55048 0.46905 0.01108 0.0
O528 O 0.57145 0.44558 0.98811 0.0
C529 C 0.56299 0.44952 0.00951 0.0
C530 C 0.51234 0.46254 0.94756 0.0
C531 C 0.55339 0.42847 0.02185 0.0
C532 C 0.52582 0.41061 0.04951 0.0
C533 C 0.53482 0.43057 0.03816 0.0
C534 C 0.55492 0.3863 0.03016 0.0
C535 C 0.53399 0.38744 0.044 0.0
C536 C 0.564 0.40626 0.0188 0.0
C537 C 0.59908 0.52422 0.96801 0.0
C538 C 0.62821 0.53709 0.9985 0.0
C539 C 0.63273 0.54964 0.95795 0.0
C540 C 0.61192 0.53698 0.95123 0.0
C541 C 0.64107 0.54977 0.98159 0.0
C542 C 0.60736 0.5243 0.99173 0.0
C543 C 0.57707 0.51133 0.96021 0.0
O544 O 0.53341 0.45343 0.94359 0.0
O545 O 0.51212 0.47667 0.96653 0.0
O546 O 0.55869 0.513 0.97438 0.0
O547 O 0.57993 0.48977 0.9513 0.0
H548 H 0.52492 0.49842 0.91798 0.0
H549 H 0.50223 0.51168 0.88293 0.0
H550 H 0.44787 0.45847 0.89511 0.0
H551 H 0.47046 0.44524 0.92992 0.0
H552 H 0.51274 0.41395 0.06301 0.0
H553 H 0.52733 0.44773 0.04248 0.0
H554 H 0.56504 0.37027 0.02826 0.0
H555 H 0.5796 0.40432 1.0078 0.0
H556 H 0.63441 0.537 0.01682 0.0
H557 H 0.64241 0.5593 0.94468 0.0
H558 H 0.6058 0.53716 0.93288 0.0
H559 H 0.59772 0.51453 1.00495 0.0
C560 C 0.71584 0.27886 0.34259 0.0
C561 C 0.73462 0.27127 0.35721 0.0
C562 C 0.72764 0.30407 0.3853 0.0
C563 C 0.74047 0.28381 0.37846 0.0
C564 C 0.70886 0.31155 0.37068 0.0
C565 C 0.70303 0.29903 0.34949 0.0
U566 U 0.72295 0.22989 0.29349 0.0
O567 O 0.69454 0.20911 0.27455 0.0
O568 O 0.71789 0.23287 0.25483 0.0
C569 C 0.69887 0.21885 0.25408 0.0
C570 C 0.70911 0.26611 0.32017 0.0
C571 C 0.6779 0.22794 0.24128 0.0
C572 C 0.64556 0.256 0.23756 0.0
C573 C 0.66538 0.24761 0.25013 0.0
C574 C 0.6506 0.22519 0.20723 0.0
C575 C 0.63805 0.24483 0.21601 0.0
C576 C 0.67037 0.21681 0.21978 0.0
C577 C 0.77379 0.18393 0.29696 0.0
C578 C 0.77746 0.14118 0.29012 0.0
C579 C 0.8121 0.16696 0.28613 0.0
C580 C 0.79817 0.18671 0.2918 0.0
C581 C 0.80195 0.14399 0.28572 0.0
C582 C 0.76349 0.16094 0.29568 0.0
C583 C 0.7602 0.2048 0.30569 0.0
O584 O 0.72406 0.2682 0.30254 0.0
O585 O 0.70064 0.24438 0.32214 0.0
O586 O 0.7385 0.20076 0.31346 0.0
O587 O 0.76187 0.22418 0.29331 0.0
H588 H 0.74469 0.25572 0.35219 0.0
H589 H 0.75502 0.27779 0.38954 0.0
H590 H 0.69877 0.3271 0.37566 0.0
H591 H 0.68846 0.30513 0.33845 0.0
H592 H 0.63608 0.27119 0.2446 0.0
H593 H 0.67095 0.25645 0.26669 0.0
H594 H 0.64505 0.21634 0.19066 0.0
H595 H 0.67982 0.20162 0.21268 0.0
H596 H 0.76931 0.1236 0.28993 0.0
H597 H 0.83097 0.1695 0.28285 0.0
H598 H 0.80665 0.20414 0.29283 0.0
H599 H 0.7448 0.15808 0.29961 0.0
C600 C 0.46602 0.0983 0.02509 0.0
C601 C 0.46515 0.12082 0.0149 0.0
C602 C 0.47656 0.13982 0.05284 0.0
C603 C 0.47035 0.14138 0.02869 0.0
C604 C 0.47823 0.11737 0.06287 0.0
C605 C 0.47288 0.09681 0.04913 0.0
U606 U 0.47109 0.05123 0.97414 0.0
O607 O 0.46536 0.01251 0.97499 0.0
O608 O 0.44253 0.03387 0.95225 0.0
C609 C 0.44643 0.01283 0.9609 0.0
C610 C 0.45818 0.07646 0.01162 0.0
C611 C 0.42516 0.99986 0.96915 0.0
C612 C 0.39201 0.99539 0.99629 0.0
C613 C 0.41199 1.00827 0.98862 0.0
C614 C 0.39812 0.96572 0.96507 0.0
C615 C 0.38503 0.97394 0.98463 0.0
C616 C 0.41802 0.97858 0.95741 0.0
C617 C 0.52271 0.05682 0.92961 0.0
C618 C 0.52622 0.035 0.89192 0.0
C619 C 0.56029 0.05728 0.90843 0.0
C620 C 0.54663 0.06437 0.92791 0.0
C621 C 0.55019 0.04255 0.89031 0.0
C622 C 0.51256 0.04205 0.91148 0.0
C623 C 0.50888 0.06469 0.95041 0.0
O624 O 0.4491 0.07917 0.99019 0.0
O625 O 0.4723 0.05812 0.01292 0.0
O626 O 0.51003 0.0511 0.96897 0.0
O627 O 0.48723 0.07235 0.94607 0.0
H628 H 0.45992 0.12265 0.99645 0.0
H629 H 0.46898 0.15856 0.02066 0.0
H630 H 0.48297 0.11584 0.08149 0.0
H631 H 0.47355 0.07974 0.05747 0.0
H632 H 0.38211 1.00201 0.0114 0.0
H633 H 0.41725 0.02469 0.9979 0.0
H634 H 0.39301 0.94923 0.95585 0.0
H635 H 0.42793 0.97182 0.94236 0.0
H636 H 0.51819 0.02354 0.87812 0.0
H637 H 0.57876 0.06319 0.90751 0.0
H638 H 0.55478 0.07575 0.94172 0.0
H639 H 0.49415 0.03596 0.9125 0.0
Zn640 Zn 0.29603 0.85832 0.01035 0.0
Zn641 Zn 0.25879 0.88771 0.01675 0.0
O642 O 0.25963 0.86757 0.04753 0.0
O643 O 0.29034 0.84401 0.04219 0.0
O644 O 0.23176 0.91135 0.02244 0.0
O645 O 0.3187 0.88618 1.00704 0.0
O646 O 0.28828 0.91016 0.01174 0.0
C647 C 0.2732 0.85113 0.05476 0.0
C648 C 0.25888 0.85117 0.97465 0.0
O649 O 0.24859 0.86784 0.98625 0.0
O650 O 0.2791 0.8439 0.98135 0.0
C651 C 0.20957 0.90626 0.02003 0.0
O652 O 0.20293 0.88462 0.01323 0.0
C653 C 0.31047 0.90695 1.00802 0.0
Zn654 Zn 0.10705 0.47122 0.27393 0.0
Zn655 Zn 0.13791 0.50771 0.26779 0.0
O656 O 0.11847 0.5181 0.29755 0.0
O657 O 0.09314 0.4882 0.30231 0.0
O658 O 0.16175 0.53495 0.26366 0.0
O659 O 0.13461 0.44893 0.27753 0.0
O660 O 0.15991 0.47859 0.27192 0.0
C661 C 0.1014 0.50843 0.30882 0.0
C662 C 0.10103 0.49285 0.22859 0.0
O663 O 0.11809 0.50648 0.23622 0.0
O664 O 0.09299 0.47649 0.24136 0.0
C665 C 0.15545 0.55578 0.25838 0.0
O666 O 0.13268 0.56034 0.25544 0.0
C667 C 0.15583 0.45664 0.27555 0.0
Zn668 Zn 0.77652 0.60992 0.96935 0.0
Zn669 Zn 0.76849 0.6384 1.00813 0.0
O670 O 0.79863 0.61971 0.01787 0.0
O671 O 0.80544 0.5969 0.9862 0.0
O672 O 0.7626 0.66094 0.03628 0.0
O673 O 0.77951 0.63876 0.94886 0.0
O674 O 0.77309 0.66162 0.98052 0.0
C675 C 0.81092 0.60391 1.00718 0.0
C676 C 0.73072 0.60108 0.99068 0.0
O677 O 0.73753 0.61764 1.00532 0.0
O678 O 0.7441 0.59444 0.9739 0.0
C679 C 0.75852 0.6538 0.0571 0.0
O680 O 0.75841 0.63094 0.06106 0.0
C681 C 0.77722 0.65921 0.95835 0.0
Zn682 Zn 0.85819 1.00921 0.29766 0.0
Zn683 Zn 0.88791 0.01692 0.26113 0.0
O684 O 0.86883 0.04853 0.26459 0.0
O685 O 0.84505 0.04206 0.29475 0.0
O686 O 0.91127 0.02308 0.2341 0.0
O687 O 0.88637 1.00406 0.31957 0.0
O688 O 0.91072 1.01041 0.28986 0.0
C689 C 0.85261 0.05553 0.2788 0.0
C690 C 0.85054 0.97547 0.25898 0.0
O691 O 0.86754 0.98719 0.2496 0.0
O692 O 0.84296 0.9815 0.2793 0.0
C693 C 0.90551 0.0216 0.2121 0.0
O694 O 0.88347 0.01562 0.20584 0.0
C695 C 0.90734 1.00553 0.3116 0.0
Zn696 Zn 0.27573 0.11003 0.46618 0.0
Zn697 Zn 0.26839 0.13815 0.50541 0.0
O698 O 0.29839 0.11885 0.51442 0.0
O699 O 0.30476 0.09645 0.48237 0.0
O700 O 0.26355 0.16049 0.53399 0.0
O701 O 0.27859 0.13908 0.446 0.0
O702 O 0.27262 0.16163 0.47796 0.0
C703 C 0.31046 0.10309 0.5034 0.0
C704 C 0.2301 0.10139 0.48808 0.0
O705 O 0.23718 0.11777 0.5028 0.0
O706 O 0.24325 0.09481 0.4711 0.0
C707 C 0.25365 0.15404 0.55301 0.0
O708 O 0.24649 0.13186 0.55489 0.0
C709 C 0.27643 0.15945 0.45572 0.0
Zn710 Zn 0.35777 0.51193 0.79623 0.0
Zn711 Zn 0.38865 0.51581 0.75957 0.0
O712 O 0.36977 0.54746 0.75998 0.0
O713 O 0.34412 0.54408 0.78916 0.0
O714 O 0.41249 0.51973 0.7326 0.0
O715 O 0.38584 0.50912 0.81907 0.0
O716 O 0.41072 0.5111 0.78912 0.0
C717 C 0.35288 0.55589 0.7725 0.0
C718 C 0.35152 0.4745 0.76034 0.0
O719 O 0.36843 0.4855 0.75005 0.0
O720 O 0.34387 0.48209 0.78016 0.0
C721 C 0.40617 0.5249 0.71155 0.0
O722 O 0.38338 0.52732 0.70646 0.0
C723 C 0.40693 0.50874 0.81126 0.0
Zn724 Zn 0.79664 0.35784 0.50812 0.0
Zn725 Zn 0.75982 0.38766 0.51566 0.0
O726 O 0.7607 0.3671 0.54611 0.0
O727 O 0.79054 0.34274 0.53955 0.0
O728 O 0.73297 0.4114 0.52164 0.0
O729 O 0.81958 0.38565 0.50579 0.0
O730 O 0.78947 0.40991 0.51105 0.0
C731 C 0.77391 0.3501 0.55267 0.0
C732 C 0.75946 0.35241 0.47239 0.0
O733 O 0.74937 0.36865 0.48475 0.0
O734 O 0.77972 0.34478 0.4785 0.0
C735 C 0.71082 0.4058 0.52128 0.0
O736 O 0.70425 0.38363 0.51673 0.0
C737 C 0.81162 0.40651 0.50726 0.0
Zn738 Zn 0.61202 0.9688 0.77576 0.0
Zn739 Zn 0.63901 1.00847 0.76843 0.0
O740 O 0.61884 0.01779 0.7979 0.0
O741 O 0.59727 0.98543 0.80408 0.0
O742 O 0.66095 0.03703 0.76344 0.0
O743 O 0.64181 0.94944 0.7799 0.0
O744 O 0.66341 0.98173 0.77364 0.0
C745 C 0.60316 1.00666 0.80976 0.0
C746 C 0.60395 0.98904 0.72965 0.0
O747 O 0.61957 1.00446 0.73688 0.0
O748 O 0.59776 0.9722 0.74279 0.0
C749 C 0.65426 0.0585 0.76335 0.0
O750 O 0.63162 0.06331 0.76644 0.0
C751 C 0.66196 0.95964 0.7779 0.0
Zn752 Zn 1.01018 0.29802 0.85895 0.0
Zn753 Zn 0.01711 0.26066 0.88695 0.0
O754 O 0.04909 0.26403 0.86819 0.0
O755 O 0.04318 0.29509 0.8459 0.0
O756 O 0.0234 0.23321 0.90946 0.0
O757 O 1.00482 0.31946 0.88745 0.0
O758 O 0.01057 0.28905 0.9106 0.0
C759 C 0.05645 0.27858 0.85274 0.0
C760 C 0.97597 0.26032 0.84933 0.0
O761 O 0.98725 0.25011 0.86601 0.0
O762 O 0.98247 0.2807 0.8428 0.0
C763 C 0.0194 0.21131 0.90433 0.0
O764 O 0.01057 0.20513 0.88325 0.0
C765 C 1.00595 0.31097 0.90799 0.0
Zn766 Zn 0.50854 0.79547 0.35706 0.0
Zn767 Zn 0.51682 0.75811 0.38495 0.0
O768 O 0.54815 0.76215 0.36534 0.0
O769 O 0.54104 0.79266 0.34268 0.0
O770 O 0.52459 0.73052 0.40695 0.0
O771 O 0.50322 0.81658 0.38581 0.0
O772 O 0.50963 0.78617 0.40883 0.0
C773 C 0.55483 0.77656 0.34949 0.0
C774 C 0.47485 0.75726 0.34816 0.0
O775 O 0.4869 0.74707 0.36433 0.0
O776 O 0.48053 0.77793 0.34183 0.0
C777 C 0.51298 0.71089 0.40779 0.0
O778 O 0.49434 0.70705 0.39367 0.0
C779 C 0.50466 0.80802 0.40631 0.0
Zn780 Zn 0.97219 0.7768 0.61067 0.0
Zn781 Zn 0.01242 0.76799 0.63677 0.0
O782 O 0.02205 0.79765 0.61757 0.0
O783 O 0.98958 0.80445 0.59616 0.0
O784 O 0.0414 0.76042 0.65752 0.0
O785 O 0.95346 0.78107 0.64096 0.0
O786 O 0.98605 0.77334 0.66174 0.0
C787 C 0.01094 0.80973 0.60217 0.0
C788 C 0.99159 0.73063 0.60052 0.0
O789 O 1.00745 0.73735 0.61591 0.0
O790 O 0.97462 0.74415 0.59514 0.0
C791 C 0.06285 0.76684 0.65356 0.0
O792 O 0.06753 0.77949 0.6349 0.0
C793 C 0.96391 0.77829 0.66077 0.0
Zn794 Zn 0.46587 0.27549 0.11674 0.0
Zn795 Zn 0.50959 0.26896 0.13666 0.0
O796 O 0.51654 0.29768 0.11518 0.0
O797 O 0.48086 0.30254 0.09893 0.0
O798 O 0.54082 0.26146 0.15366 0.0
O799 O 0.45144 0.28135 0.14911 0.0
O800 O 0.48728 0.27643 0.16487 0.0
C801 C 0.50271 0.30862 0.1011 0.0
C802 C 0.48431 0.22966 0.10511 0.0
O803 O 0.50201 0.23745 0.11779 0.0
O804 O 0.46614 0.24237 0.1021 0.0
C805 C 0.5559 0.27677 0.16203 0.0
O806 O 0.55219 0.29948 0.15922 0.0
C807 C 0.4651 0.2807 0.16721 0.0
C808 C 0.23622 0.80132 0.93321 0.0
C809 C 0.23352 0.81332 0.91153 0.0
C810 C 0.24506 0.85114 0.93177 0.0
C811 C 0.24721 0.83918 0.95355 0.0
N812 N 0.23972 0.80432 0.97624 0.0
N813 N 0.2307 0.85001 0.89078 0.0
C814 C 0.24119 0.81467 0.95461 0.0
C815 C 0.23645 0.83839 0.91103 0.0
N816 N 0.23485 0.77707 0.9332 0.0
N817 N 0.25237 0.87435 0.93064 0.0
H818 H 0.22476 0.84119 0.87519 0.0
H819 H 0.22998 0.86842 0.88993 0.0
H820 H 0.25834 0.88436 0.9455 0.0
H821 H 0.254 0.88329 0.9148 0.0
H822 H 0.23941 0.76709 0.94784 0.0
H823 H 0.23079 0.76669 0.91799 0.0
H824 H 0.23317 0.78715 0.97852 0.0
H825 H 0.24295 0.81371 0.99225 0.0
C826 C 0.08899 0.53298 0.37124 0.0
C827 C 0.06421 0.53755 0.36885 0.0
C828 C 0.06592 0.52854 0.326 0.0
C829 C 0.08985 0.52109 0.32894 0.0
N830 N 0.1241 0.5147 0.35426 0.0
N831 N 0.02839 0.53836 0.34457 0.0
C832 C 0.1015 0.52316 0.3515 0.0
C833 C 0.0525 0.53511 0.34634 0.0
N834 N 0.10058 0.53826 0.39235 0.0
N835 N 0.05626 0.52983 0.30361 0.0
H836 H 0.01807 0.54387 0.35891 0.0
H837 H 0.01827 0.53412 0.32932 0.0
H838 H 0.06573 0.52537 0.28834 0.0
H839 H 0.03978 0.53731 0.29995 0.0
H840 H 0.11905 0.53774 0.39461 0.0
H841 H 0.09184 0.54492 0.40729 0.0
H842 H 0.13259 0.51304 0.37069 0.0
H843 H 0.13395 0.50794 0.3401 0.0
C844 C 0.76455 0.70031 0.90736 0.0
C845 C 0.78202 0.71851 0.91173 0.0
C846 C 0.79696 0.69756 0.94651 0.0
C847 C 0.77837 0.68029 0.94311 0.0
N848 N 0.74158 0.66774 0.92329 0.0
N849 N 0.8124 0.73673 0.93736 0.0
C850 C 0.76134 0.68237 0.92435 0.0
C851 C 0.79753 0.7178 0.93189 0.0
N852 N 0.75147 0.69976 0.88662 0.0
N853 N 0.81467 0.69412 0.963 0.0
H854 H 0.81351 0.75168 0.92689 0.0
H855 H 0.82222 0.73848 0.9532 0.0
H856 H 0.81488 0.67956 0.97403 0.0
H857 H 0.83011 0.70465 0.96451 0.0
H858 H 0.74042 0.68552 0.88119 0.0
H859 H 0.75318 0.71265 0.87378 0.0
H860 H 0.72727 0.67001 0.91157 0.0
H861 H 0.73836 0.65466 0.93564 0.0
C862 C 0.94524 1.01048 0.36794 0.0
C863 C 0.96017 0.99051 0.36518 0.0
C864 C 0.94237 0.98168 0.32563 0.0
C865 C 0.92775 1.00191 0.32827 0.0
N866 N 0.91944 0.03875 0.34897 0.0
N867 N 0.97695 0.96031 0.33966 0.0
C868 C 0.93055 0.01732 0.34853 0.0
C869 C 0.96002 0.97716 0.3434 0.0
N870 N 0.94424 0.02227 0.38947 0.0
N871 N 0.93852 0.96607 0.30687 0.0
H872 H 0.99003 0.95655 0.35235 0.0
H873 H 0.97937 0.95159 0.32334 0.0
H874 H 0.92597 0.96883 0.2934 0.0
H875 H 0.94658 0.94958 0.30546 0.0
H876 H 0.93166 0.03513 0.39343 0.0
H877 H 0.95487 0.01801 0.40407 0.0
H878 H 0.92257 0.05183 0.36214 0.0
H879 H 0.90882 0.0444 0.33488 0.0
C880 C 0.23398 0.20896 0.58864 0.0
C881 C 0.24094 0.2028 0.61198 0.0
C882 C 0.25958 0.16672 0.59595 0.0
C883 C 0.25007 0.1714 0.57304 0.0
N884 N 0.22503 0.19528 0.54822 0.0
N885 N 0.25758 0.17428 0.63849 0.0
C886 C 0.23654 0.19217 0.56949 0.0
C887 C 0.25305 0.18127 0.61582 0.0
N888 N 0.22526 0.23105 0.58472 0.0
N889 N 0.2756 0.14889 0.5986 0.0
H890 H 0.25334 0.18452 0.65351 0.0
H891 H 0.2638 0.15751 0.64246 0.0
H892 H 0.28126 0.1382 0.58442 0.0
H893 H 0.28503 0.14619 0.61436 0.0
H894 H 0.22227 0.23755 0.56781 0.0
H895 H 0.22303 0.24372 0.59835 0.0
H896 H 0.21282 0.20869 0.54545 0.0
H897 H 0.22593 0.18321 0.53389 0.0
C898 C 0.43708 0.52083 0.65159 0.0
C899 C 0.45611 0.53762 0.65507 0.0
C900 C 0.4425 0.54622 0.69572 0.0
C901 C 0.42431 0.52842 0.69271 0.0
N902 N 0.40772 0.49518 0.6697 0.0
N903 N 0.47999 0.56265 0.68186 0.0
C904 C 0.42261 0.51467 0.67118 0.0
C905 C 0.45977 0.54915 0.67762 0.0
N906 N 0.43221 0.51142 0.62935 0.0
N907 N 0.44255 0.56125 0.71522 0.0
H908 H 0.49296 0.5652 0.66902 0.0
H909 H 0.48497 0.56948 0.69863 0.0
H910 H 0.43003 0.56009 0.72867 0.0
H911 H 0.45368 0.5762 0.71708 0.0
H912 H 0.41693 0.50129 0.62514 0.0
H913 H 0.44248 0.51528 0.6146 0.0
H914 H 0.40749 0.48304 0.6554 0.0
H915 H 0.39724 0.48981 0.68381 0.0
C916 C 0.77383 0.33371 0.61816 0.0
C917 C 0.76824 0.30906 0.61576 0.0
C918 C 0.76067 0.31344 0.57301 0.0
C919 C 0.76916 0.33728 0.57489 0.0
N920 N 0.78541 0.37004 0.59871 0.0
N921 N 0.75887 0.27469 0.59057 0.0
C922 C 0.77597 0.34751 0.59738 0.0
C923 C 0.76218 0.29874 0.5931 0.0
N924 N 0.77668 0.34397 0.64034 0.0
N925 N 0.7507 0.30501 0.55203 0.0
H926 H 0.75973 0.26326 0.6048 0.0
H927 H 0.75717 0.26579 0.57416 0.0
H928 H 0.74915 0.31539 0.53703 0.0
H929 H 0.74194 0.2886 0.55009 0.0
H930 H 0.77837 0.36221 0.64351 0.0
H931 H 0.7755 0.33432 0.65585 0.0
H932 H 0.79334 0.37759 0.61404 0.0
H933 H 0.78662 0.38079 0.58398 0.0
C934 C 0.58299 0.96647 0.66881 0.0
C935 C 0.56842 0.98533 0.66131 0.0
C936 C 0.57849 1.00796 0.69819 0.0
C937 C 0.59376 0.98944 0.70515 0.0
N938 N 0.61535 0.95418 0.69449 0.0
N939 N 0.55596 0.02585 0.66629 0.0
C940 C 0.59749 0.96966 0.68961 0.0
C941 C 0.56733 1.00669 0.67522 0.0
N942 N 0.58212 0.94506 0.65673 0.0
N943 N 0.57372 0.02614 0.7139 0.0
H944 H 0.54758 0.02544 0.64959 0.0
H945 H 0.55656 0.04266 0.67446 0.0
H946 H 0.58171 0.0278 0.73074 0.0
H947 H 0.56064 0.03869 0.71093 0.0
H948 H 0.59023 0.92989 0.66295 0.0
H949 H 0.57161 0.9418 0.64149 0.0
H950 H 0.62056 0.94078 0.68264 0.0
H951 H 0.62663 0.95623 0.70938 0.0
C952 C 0.93715 0.23857 0.79772 0.0
C953 C 0.91406 0.24094 0.80754 0.0
C954 C 0.93204 0.25032 0.84688 0.0
C955 C 0.95507 0.24885 0.83682 0.0
N956 N 0.97996 0.23569 0.80485 0.0
N957 N 0.88921 0.24331 0.84199 0.0
C958 C 0.9577 0.24093 0.8129 0.0
C959 C 0.91144 0.24485 0.83238 0.0
N960 N 0.93944 0.23525 0.77371 0.0
N961 N 0.92988 0.25819 0.86993 0.0
H962 H 0.87387 0.23949 0.83171 0.0
H963 H 0.88613 0.24385 0.86018 0.0
H964 H 0.94462 0.26147 0.8812 0.0
H965 H 0.91367 0.26249 0.87763 0.0
H966 H 0.9557 0.23623 0.76502 0.0
H967 H 0.92483 0.23279 0.76212 0.0
H968 H 0.98312 0.22786 0.78825 0.0
H969 H 0.9952 0.2372 0.81576 0.0
C970 C 0.51121 0.85059 0.46012 0.0
C971 C 0.48828 0.861 0.45964 0.0
C972 C 0.47492 0.83171 0.42895 0.0
C973 C 0.49868 0.82362 0.42701 0.0
N974 N 0.53994 0.82567 0.43979 0.0
N975 N 0.44863 0.86289 0.44242 0.0
C976 C 0.51694 0.83292 0.44256 0.0
C977 C 0.47012 0.85178 0.4439 0.0
N978 N 0.52736 0.85747 0.47755 0.0
N979 N 0.45687 0.81986 0.41671 0.0
H980 H 0.44425 0.87745 0.45324 0.0
H981 H 0.43575 0.8588 0.42934 0.0
H982 H 0.45981 0.80496 0.40578 0.0
H983 H 0.43884 0.82332 0.41909 0.0
H984 H 0.54352 0.84904 0.48039 0.0
H985 H 0.52373 0.87049 0.49048 0.0
H986 H 0.55457 0.8337 0.44858 0.0
H987 H 0.5446 0.81234 0.42756 0.0
C988 C 0.117 0.30074 0.83367 0.0
C989 C 0.1236 0.2826 0.81712 0.0
C990 C 0.08737 0.25958 0.82647 0.0
C991 C 0.08106 0.27759 0.84325 0.0
N992 N 0.09262 0.31199 0.86729 0.0
N993 N 0.11806 0.24267 0.80137 0.0
C994 C 0.09684 0.29709 0.84828 0.0
C995 C 0.10971 0.26131 0.8147 0.0
N996 N 0.12919 0.32199 0.83456 0.0
N997 N 0.07151 0.24149 0.82093 0.0
H998 H 0.13428 0.24345 0.79251 0.0
H999 H 0.11002 0.22587 0.8007 0.0
H1000 H 0.05531 0.23938 0.8296 0.0
H1001 H 0.07372 0.22938 0.80685 0.0
H1002 H 0.12351 0.33683 0.84422 0.0
H1003 H 0.14399 0.32554 0.82413 0.0
H1004 H 0.10464 0.32518 0.87339 0.0
H1005 H 0.07811 0.30961 0.87846 0.0
C1006 C 0.5296 0.67818 0.46442 0.0
C1007 C 0.53364 0.65499 0.45494 0.0
C1008 C 0.52705 0.66935 0.41454 0.0
C1009 C 0.52079 0.69196 0.42412 0.0
N1010 N 0.51245 0.71688 0.45844 0.0
N1011 N 0.53239 0.62745 0.42136 0.0
C1012 C 0.52115 0.69614 0.44915 0.0
C1013 C 0.53128 0.65029 0.43009 0.0
N1014 N 0.53444 0.68322 0.48792 0.0
N1015 N 0.52998 0.66632 0.39057 0.0
H1016 H 0.5355 0.61302 0.43213 0.0
H1017 H 0.52817 0.62253 0.4038 0.0
H1018 H 0.52755 0.67993 0.37863 0.0
H1019 H 0.53703 0.65107 0.38275 0.0
H1020 H 0.53445 0.70035 0.49537 0.0
H1021 H 0.54035 0.6705 0.49966 0.0
H1022 H 0.50974 0.71993 0.47652 0.0
H1023 H 0.50597 0.73038 0.44793 0.0
C1024 C 0.9228 0.76013 0.71038 0.0
C1025 C 0.91801 0.78253 0.72136 0.0
C1026 C 0.94406 0.80225 0.69294 0.0
C1027 C 0.94972 0.77976 0.68277 0.0
N1028 N 0.94799 0.73705 0.68406 0.0
N1029 N 0.92715 0.82435 0.72613 0.0
C1030 C 0.94025 0.75861 0.6923 0.0
C1031 C 0.92954 0.80346 0.7135 0.0
N1032 N 0.90982 0.74049 0.71643 0.0
N1033 N 0.95222 0.82247 0.68265 0.0
H1034 H 0.9167 0.82585 0.74126 0.0
H1035 H 0.93698 0.83972 0.72284 0.0
H1036 H 0.9638 0.82223 0.6683 0.0
H1037 H 0.94645 0.8394 0.68737 0.0
H1038 H 0.9105 0.72422 0.70725 0.0
H1039 H 0.89678 0.74085 0.72946 0.0
H1040 H 0.94382 0.72108 0.69202 0.0
H1041 H 0.9602 0.73521 0.67034 0.0
C1042 C 0.03639 0.87106 0.58857 0.0
C1043 C 0.03903 0.86849 0.56357 0.0
C1044 C 0.02854 0.82611 0.56541 0.0
C1045 C 0.02315 0.82934 0.58983 0.0
N1046 N 0.02034 0.85484 0.62469 0.0
N1047 N 0.03621 0.84426 0.52762 0.0
C1048 C 0.02689 0.85176 0.60152 0.0
C1049 C 0.03484 0.84614 0.55184 0.0
N1050 N 0.04322 0.89191 0.59992 0.0
N1051 N 0.02816 0.80371 0.55538 0.0
H1052 H 0.04151 0.85834 0.51715 0.0
H1053 H 0.03064 0.82926 0.51768 0.0
H1054 H 0.02379 0.78865 0.56489 0.0
H1055 H 0.03418 0.79971 0.53835 0.0
H1056 H 0.04419 0.89419 0.61833 0.0
H1057 H 0.04966 0.90657 0.59092 0.0
H1058 H 0.01989 0.87131 0.6335 0.0
H1059 H 0.01391 0.84097 0.63483 0.0
C1060 C 0.10015 0.75658 0.70975 0.0
C1061 C 0.12063 0.74578 0.69992 0.0
C1062 C 0.10203 0.74655 0.66015 0.0
C1063 C 0.08264 0.75949 0.66961 0.0
N1064 N 0.06535 0.78064 0.70287 0.0
N1065 N 0.1431 0.73452 0.66527 0.0
C1066 C 0.08223 0.76552 0.6943 0.0
C1067 C 0.12216 0.74193 0.67496 0.0
N1068 N 0.09745 0.75768 0.73385 0.0
N1069 N 0.1008 0.73765 0.6373 0.0
H1070 H 0.15831 0.7311 0.67547 0.0
H1071 H 0.14609 0.73389 0.64704 0.0
H1072 H 0.08611 0.74 0.62604 0.0
H1073 H 0.11323 0.72594 0.63028 0.0
H1074 H 0.08174 0.76295 0.74197 0.0
H1075 H 0.11017 0.75135 0.74572 0.0
H1076 H 0.06569 0.78767 0.72018 0.0
H1077 H 0.05222 0.78796 0.69211 0.0
C1078 C 0.9889 0.68415 0.55058 0.0
C1079 C 0.98688 0.66292 0.56344 0.0
C1080 C 0.99014 0.68588 0.60113 0.0
C1081 C 0.99281 0.70703 0.58822 0.0
N1082 N 1.00096 0.7257 0.55115 0.0
N1083 N 0.99117 0.64282 0.60043 0.0
C1084 C 0.99416 0.70594 0.56306 0.0
C1085 C 0.98934 0.66357 0.58859 0.0
N1086 N 0.98464 0.68372 0.52658 0.0
N1087 N 0.98699 0.68713 0.62517 0.0
H1088 H 0.99067 0.62621 0.59174 0.0
H1089 H 0.99537 0.64211 0.61848 0.0
H1090 H 0.98744 0.70307 0.63504 0.0
H1091 H 0.98215 0.67256 0.63511 0.0
H1092 H 0.98308 0.699 0.51672 0.0
H1093 H 0.98078 0.66816 0.51671 0.0
H1094 H 1.00458 0.72548 0.53305 0.0
H1095 H 1.00534 0.74184 0.55982 0.0
C1096 C 0.83936 0.9123 0.23438 0.0
C1097 C 0.81415 0.91257 0.23115 0.0
C1098 C 0.81445 0.95547 0.24018 0.0
C1099 C 0.83906 0.95456 0.24646 0.0
N1100 N 0.87488 0.93192 0.25137 0.0
N1101 N 0.77716 0.93382 0.2324 0.0
C1102 C 0.85161 0.93298 0.24377 0.0
C1103 C 0.80155 0.93405 0.23428 0.0
N1104 N 0.85159 0.8923 0.22825 0.0
N1105 N 0.80357 0.97699 0.23935 0.0
H1106 H 0.76715 0.91862 0.22752 0.0
H1107 H 0.76669 0.94821 0.2372 0.0
H1108 H 0.81264 0.99299 0.24326 0.0
H1109 H 0.78632 0.97924 0.23271 0.0
H1110 H 0.87015 0.89167 0.22773 0.0
H1111 H 0.84314 0.87672 0.22183 0.0
H1112 H 0.88418 0.91615 0.25262 0.0
H1113 H 0.88457 0.94671 0.25797 0.0
C1114 C 0.83247 0.1157 0.30131 0.0
C1115 C 0.81724 0.1227 0.28242 0.0
C1116 C 0.82738 0.08657 0.25938 0.0
C1117 C 0.84304 0.07998 0.27807 0.0
N1118 N 0.86507 0.0909 0.3139 0.0
N1119 N 0.80385 0.11757 0.2417 0.0
C1120 C 0.84702 0.09545 0.2981 0.0
C1121 C 0.81588 0.10898 0.26085 0.0
N1122 N 0.83217 0.12768 0.32277 0.0
N1123 N 0.82262 0.07097 0.24082 0.0
H1124 H 0.79519 0.13382 0.24227 0.0
H1125 H 0.80412 0.10965 0.22477 0.0
H1126 H 0.83107 0.05469 0.23892 0.0
H1127 H 0.80926 0.07344 0.2281 0.0
H1128 H 0.84074 0.12178 0.338 0.0
H1129 H 0.82173 0.14255 0.326 0.0
H1130 H 0.87051 0.1027 0.32758 0.0
H1131 H 0.87622 0.07634 0.31189 0.0
C1132 C 0.36675 0.94527 0.01308 0.0
C1133 C 0.36425 0.95962 0.99289 0.0
C1134 C 0.32484 0.94136 0.98391 0.0
C1135 C 0.32716 0.92732 1.00437 0.0
N1136 N 0.34729 0.92009 0.04151 0.0
N1137 N 0.33898 0.97549 0.96241 0.0
C1138 C 0.3472 0.93064 0.01994 0.0
C1139 C 0.3426 0.95901 0.9794 0.0
N1140 N 0.38817 0.94475 0.02505 0.0
N1141 N 0.30648 0.93691 0.96801 0.0
H1142 H 0.35168 0.98857 0.95865 0.0
H1143 H 0.32269 0.97756 0.95359 0.0
H1144 H 0.29306 0.92424 0.97061 0.0
H1145 H 0.30544 0.94455 0.95141 0.0
H1146 H 0.39199 0.93258 0.03811 0.0
H1147 H 0.40284 0.95536 0.02078 0.0
H1148 H 0.36025 0.9236 0.05467 0.0
H1149 H 0.33308 0.90955 0.04717 0.0
C1150 C 0.19292 0.40499 0.29553 0.0
C1151 C 0.20943 0.40242 0.27677 0.0
C1152 C 0.18783 0.43309 0.25524 0.0
C1153 C 0.17552 0.4393 0.27634 0.0
N1154 N 0.16739 0.43151 0.31744 0.0
N1155 N 0.20726 0.4012 0.23401 0.0
C1156 C 0.17841 0.42536 0.29675 0.0
C1157 C 0.20287 0.41295 0.25499 0.0
N1158 N 0.18745 0.38606 0.30911 0.0
N1159 N 0.18495 0.44601 0.23526 0.0
H1160 H 0.21414 0.3841 0.23357 0.0
H1161 H 0.20092 0.40669 0.21759 0.0
H1162 H 0.17316 0.46006 0.23412 0.0
H1163 H 0.19556 0.44368 0.22034 0.0
H1164 H 0.17402 0.3864 0.32174 0.0
H1165 H 0.19346 0.36907 0.30475 0.0
H1166 H 0.17069 0.42284 0.33327 0.0
H1167 H 0.15681 0.44651 0.31923 0.0
C1168 C 0.16281 0.08891 0.48731 0.0
C1169 C 0.16273 0.06371 0.48609 0.0
C1170 C 0.20604 0.06425 0.49348 0.0
C1171 C 0.20659 0.0892 0.49069 0.0
N1172 N 0.18572 0.12545 0.48334 0.0
N1173 N 0.18449 0.02708 0.48607 0.0
C1174 C 0.185 0.10168 0.48752 0.0
C1175 C 0.18438 0.05125 0.48893 0.0
N1176 N 0.14164 0.10057 0.48847 0.0
N1177 N 0.2262 0.05307 0.50088 0.0
H1178 H 0.16903 0.01684 0.48281 0.0
H1179 H 0.20008 0.01731 0.48513 0.0
H1180 H 0.24225 0.06219 0.50474 0.0
H1181 H 0.22642 0.03531 0.50548 0.0
H1182 H 0.14048 0.11879 0.49172 0.0
H1183 H 0.12512 0.09169 0.48837 0.0
H1184 H 0.17084 0.13495 0.47809 0.0
H1185 H 0.20155 0.13549 0.48348 0.0
C1186 C 0.68492 0.1144 0.74059 0.0
C1187 C 0.70607 0.11535 0.75485 0.0
C1188 C 0.69215 0.08038 0.77609 0.0
C1189 C 0.6721 0.07807 0.76036 0.0
N1190 N 0.65179 0.0903 0.72471 0.0
N1191 N 0.7321 0.09661 0.78298 0.0
C1192 C 0.66909 0.09441 0.74181 0.0
C1193 C 0.71035 0.09755 0.77167 0.0
N1194 N 0.67958 0.13292 0.72638 0.0
N1195 N 0.69331 0.06698 0.79595 0.0
H1196 H 0.74595 0.10876 0.78016 0.0
H1197 H 0.73715 0.08254 0.79346 0.0
H1198 H 0.68006 0.0547 0.80029 0.0
H1199 H 0.7062 0.06971 0.80934 0.0
H1200 H 0.66319 0.13447 0.71759 0.0
H1201 H 0.69075 0.1478 0.72495 0.0
H1202 H 0.65037 0.10017 0.7094 0.0
H1203 H 0.6402 0.07561 0.72462 0.0
C1204 C 0.37438 0.08536 0.51786 0.0
C1205 C 0.37005 0.06517 0.53179 0.0
C1206 C 0.32701 0.07319 0.53113 0.0
C1207 C 0.33112 0.09177 0.5151 0.0
N1208 N 0.35816 0.115 0.49188 0.0
N1209 N 0.34242 0.0383 0.55013 0.0
C1210 C 0.35468 0.09775 0.50815 0.0
C1211 C 0.3464 0.05876 0.53818 0.0
N1212 N 0.39735 0.09304 0.51446 0.0
N1213 N 0.30454 0.06936 0.53959 0.0
H1214 H 0.35617 0.02743 0.55578 0.0
H1215 H 0.32551 0.03111 0.55302 0.0
H1216 H 0.28979 0.07907 0.53423 0.0
H1217 H 0.30072 0.05784 0.55321 0.0
H1218 H 0.40177 0.10902 0.50667 0.0
H1219 H 0.41219 0.08428 0.52111 0.0
H1220 H 0.37443 0.11825 0.48377 0.0
H1221 H 0.34435 0.12539 0.48547 0.0
C1222 C 0.67503 0.45551 0.55113 0.0
C1223 C 0.65499 0.45645 0.53542 0.0
C1224 C 0.67383 0.42736 0.50859 0.0
C1225 C 0.69231 0.42414 0.52575 0.0
N1226 N 0.7086 0.4328 0.56509 0.0
N1227 N 0.63372 0.44104 0.50057 0.0
C1228 C 0.69252 0.43773 0.54743 0.0
C1229 C 0.65399 0.44182 0.51446 0.0
N1230 N 0.67756 0.47192 0.56938 0.0
N1231 N 0.67565 0.4173 0.48632 0.0
H1232 H 0.61891 0.45147 0.50411 0.0
H1233 H 0.63084 0.4287 0.48665 0.0
H1234 H 0.69016 0.4071 0.48114 0.0
H1235 H 0.66405 0.42097 0.4723 0.0
H1236 H 0.69297 0.47378 0.57993 0.0
H1237 H 0.66512 0.48516 0.57261 0.0
H1238 H 0.7079 0.44026 0.5822 0.0
H1239 H 0.72138 0.41965 0.56339 0.0
C1240 C 0.74746 0.33914 0.40684 0.0
C1241 C 0.73396 0.31761 0.40775 0.0
C1242 C 0.73491 0.32031 0.45142 0.0
C1243 C 0.74792 0.34209 0.45046 0.0
N1244 N 0.76277 0.37463 0.42785 0.0
N1245 N 0.71089 0.28996 0.43033 0.0
C1246 C 0.75291 0.35229 0.4283 0.0
C1247 C 0.72648 0.30888 0.42991 0.0
N1248 N 0.75595 0.34646 0.38555 0.0
N1249 N 0.73124 0.31024 0.47292 0.0
H1250 H 0.70454 0.28105 0.41494 0.0
H1251 H 0.70277 0.28419 0.44569 0.0
H1252 H 0.73611 0.3187 0.48905 0.0
H1253 H 0.72454 0.29307 0.47479 0.0
H1254 H 0.76809 0.36048 0.38392 0.0
H1255 H 0.75223 0.33741 0.36947 0.0
H1256 H 0.76473 0.38415 0.41239 0.0
H1257 H 0.76721 0.38455 0.44327 0.0
C1258 C 0.58026 0.01488 0.8725 0.0
C1259 C 0.56498 0.03451 0.86993 0.0
C1260 C 0.57583 0.03708 0.82791 0.0
C1261 C 0.59181 0.01802 0.83078 0.0
N1262 N 0.61319 0.99221 0.85672 0.0
N1263 N 0.55134 0.06713 0.84681 0.0
C1264 C 0.59519 1.00794 0.85339 0.0
C1265 C 0.56376 0.04651 0.8481 0.0
N1266 N 0.57993 1.00238 0.89298 0.0
N1267 N 0.57129 0.04538 0.80573 0.0
H1268 H 0.54193 0.07427 0.86111 0.0
H1269 H 0.55186 0.07813 0.83227 0.0
H1270 H 0.57992 0.03913 0.79056 0.0
H1271 H 0.55779 0.05728 0.80202 0.0
H1272 H 0.58852 0.98629 0.89493 0.0
H1273 H 0.56956 1.00714 0.90754 0.0
H1274 H 0.61821 0.98602 0.87329 0.0
H1275 H 0.6247 0.98703 0.84319 0.0
C1276 C 0.29568 0.21848 0.42942 0.0
C1277 C 0.28003 0.21905 0.40935 0.0
C1278 C 0.25991 0.18264 0.42204 0.0
C1279 C 0.27714 0.18066 0.44062 0.0
N1280 N 0.31343 0.1949 0.46028 0.0
N1281 N 0.24957 0.19994 0.38439 0.0
C1282 C 0.29553 0.19817 0.44395 0.0
C1283 C 0.26276 0.20064 0.40507 0.0
N1284 N 0.31029 0.23761 0.4349 0.0
N1285 N 0.24027 0.16785 0.42113 0.0
H1286 H 0.25105 0.21284 0.37154 0.0
H1287 H 0.23866 0.18557 0.37903 0.0
H1288 H 0.23726 0.15474 0.43352 0.0
H1289 H 0.22583 0.17003 0.40956 0.0
H1290 H 0.3202 0.23941 0.45067 0.0
H1291 H 0.31106 0.25264 0.42452 0.0
H1292 H 0.32873 0.20563 0.4617 0.0
H1293 H 0.31395 0.18028 0.47123 0.0
C1294 C 0.45825 0.47957 0.84448 0.0
C1295 C 0.45917 0.49395 0.86559 0.0
C1296 C 0.43063 0.52118 0.84781 0.0
C1297 C 0.42698 0.50492 0.82832 0.0
N1298 N 0.43563 0.46728 0.80904 0.0
N1299 N 0.4449 0.52753 0.88843 0.0
C1300 C 0.44057 0.48387 0.8267 0.0
C1301 C 0.44517 0.51467 0.86748 0.0
N1302 N 0.47445 0.46192 0.84136 0.0
N1303 N 0.42052 0.54308 0.84724 0.0
H1304 H 0.45548 0.52354 0.90314 0.0
H1305 H 0.43294 0.54112 0.89185 0.0
H1306 H 0.41007 0.54849 0.83293 0.0
H1307 H 0.42433 0.55663 0.85976 0.0
H1308 H 0.47633 0.45238 0.82541 0.0
H1309 H 0.48757 0.4583 0.85407 0.0
H1310 H 0.44292 0.45039 0.8086 0.0
H1311 H 0.42282 0.4696 0.79571 0.0
C1312 C 0.76149 0.68551 0.11792 0.0
C1313 C 0.74304 0.70229 0.11553 0.0
C1314 C 0.73415 0.68682 0.07506 0.0
C1315 C 0.75366 0.67112 0.07685 0.0
N1316 N 0.789 0.65905 0.09807 0.0
N1317 N 0.71495 0.72222 0.09046 0.0
C1318 C 0.76822 0.67146 0.09776 0.0
C1319 C 0.73035 0.70396 0.09364 0.0
N1320 N 0.77204 0.68238 0.13965 0.0
N1321 N 0.71845 0.68457 0.05624 0.0
H1322 H 0.71168 0.73503 0.1037 0.0
H1323 H 0.7071 0.7259 0.0741 0.0
H1324 H 0.7202 0.67194 0.0425 0.0
H1325 H 0.70247 0.69372 0.05529 0.0
H1326 H 0.78358 0.66855 0.14313 0.0
H1327 H 0.76782 0.69247 0.15478 0.0
H1328 H 0.80161 0.66056 0.11185 0.0
H1329 H 0.7948 0.64895 0.08351 0.0
C1330 C 0.94191 0.01479 0.15551 0.0
C1331 C 0.95484 0.03669 0.15566 0.0
C1332 C 0.93535 0.04895 0.19281 0.0
C1333 C 0.92349 0.02647 0.19342 0.0
N1334 N 0.91966 0.98614 0.17818 0.0
N1335 N 0.96771 0.07252 0.17683 0.0
C1336 C 0.92799 1.00884 0.17556 0.0
C1337 C 0.95275 0.05311 0.17509 0.0
N1338 N 0.94219 1.00002 0.13583 0.0
N1339 N 0.92909 0.06681 0.20832 0.0
H1340 H 0.98063 0.07612 0.1642 0.0
H1341 H 0.96883 0.08381 0.19179 0.0
H1342 H 0.91617 0.06473 0.22128 0.0
H1343 H 0.93513 0.0843 0.20702 0.0
H1344 H 0.93097 0.98518 0.13353 0.0
H1345 H 0.95231 1.00359 0.1209 0.0
H1346 H 0.92441 0.97195 0.16707 0.0
H1347 H 0.90988 0.98096 0.19284 0.0
C1348 C 0.27546 0.83278 0.11955 0.0
C1349 C 0.26713 0.80888 0.11683 0.0
C1350 C 0.2569 0.81565 0.07497 0.0
C1351 C 0.2681 0.83838 0.07691 0.0
N1352 N 0.28919 0.86856 0.10038 0.0
N1353 N 0.25222 0.77657 0.09137 0.0
C1354 C 0.27752 0.84705 0.0991 0.0
C1355 C 0.25824 0.8001 0.09442 0.0
N1356 N 0.28096 0.8419 0.14176 0.0
N1357 N 0.24478 0.80904 0.05449 0.0
H1358 H 0.25301 0.76452 0.10507 0.0
H1359 H 0.24828 0.76851 0.07487 0.0
H1360 H 0.2435 0.82005 0.03993 0.0
H1361 H 0.23418 0.79372 0.05268 0.0
H1362 H 0.2849 0.85978 0.14534 0.0
H1363 H 0.27974 0.83189 0.15702 0.0
H1364 H 0.29896 0.87476 0.11524 0.0
H1365 H 0.29015 0.87977 0.08596 0.0
C1366 C 0.05218 0.49526 0.18181 0.0
C1367 C 0.06513 0.49066 0.16074 0.0
C1368 C 0.10276 0.4912 0.1838 0.0
C1369 C 0.08977 0.49589 0.20484 0.0
N1370 N 0.05348 0.50897 0.22307 0.0
N1371 N 0.10278 0.49023 0.14063 0.0
C1372 C 0.06488 0.50009 0.20353 0.0
C1373 C 0.09049 0.49064 0.16143 0.0
N1374 N 0.02777 0.49373 0.18139 0.0
N1375 N 0.12646 0.48586 0.18527 0.0
H1376 H 0.09425 0.48984 0.124 0.0
H1377 H 0.12125 0.49248 0.13983 0.0
H1378 H 0.13615 0.48627 0.20125 0.0
H1379 H 0.13617 0.47948 0.17089 0.0
H1380 H 0.01751 0.49411 0.19667 0.0
H1381 H 0.01773 0.4903 0.16588 0.0
H1382 H 0.03585 0.51456 0.2227 0.0
H1383 H 0.06244 0.513 0.23912 0.0
C1384 C 0.4357 0.72873 0.29937 0.0
C1385 C 0.41322 0.73753 0.30646 0.0
C1386 C 0.43074 0.75053 0.34506 0.0
C1387 C 0.45375 0.74556 0.33629 0.0
N1388 N 0.47878 0.72933 0.30576 0.0
N1389 N 0.38876 0.75664 0.33596 0.0
C1390 C 0.45638 0.73408 0.31376 0.0
C1391 C 0.41046 0.74798 0.3295 0.0
N1392 N 0.43714 0.71527 0.27887 0.0
N1393 N 0.42845 0.75794 0.36823 0.0
H1394 H 0.37345 0.7546 0.32526 0.0
H1395 H 0.38609 0.76693 0.3513 0.0
H1396 H 0.44313 0.76 0.37983 0.0
H1397 H 0.41211 0.76003 0.37653 0.0
H1398 H 0.4525 0.70657 0.27357 0.0
H1399 H 0.42225 0.71116 0.26805 0.0
H1400 H 0.48236 0.72368 0.28844 0.0
H1401 H 0.49408 0.73199 0.31641 0.0
C1402 C 0.97712 0.34304 0.96062 0.0
C1403 C 0.99091 0.36444 0.9613 0.0
C1404 C 0.01829 0.34704 0.93224 0.0
C1405 C 1.00243 0.3273 0.92879 0.0
N1406 N 0.96587 0.30681 0.9386 0.0
N1407 N 0.02372 0.38778 0.9465 0.0
C1408 C 0.98176 0.32517 0.94294 0.0
C1409 C 0.01144 0.36662 0.94696 0.0
N1410 N 0.95974 0.33979 0.97706 0.0
N1411 N 0.0401 0.34684 0.92164 0.0
H1412 H 0.01945 0.4025 0.95714 0.0
H1413 H 0.03704 0.39135 0.93433 0.0
H1414 H 0.04573 0.33259 0.91101 0.0
H1415 H 0.05346 0.35958 0.92522 0.0
H1416 H 0.95061 0.32374 0.97908 0.0
H1417 H 0.95591 0.35258 0.99016 0.0
H1418 H 0.9491 0.3058 0.94628 0.0
H1419 H 0.96878 0.29323 0.92606 0.0
C1420 C 0.59966 0.77449 0.29996 0.0
C1421 C 0.62118 0.78086 0.31243 0.0
C1422 C 0.59982 0.78083 0.3503 0.0
C1423 C 0.57837 0.77438 0.33779 0.0
N1424 N 0.55905 0.75896 0.30197 0.0
N1425 N 0.64311 0.78462 0.34953 0.0
C1426 C 0.57873 0.76921 0.31299 0.0
C1427 C 0.62167 0.78222 0.33768 0.0
N1428 N 0.59885 0.77472 0.27568 0.0
N1429 N 0.5991 0.78686 0.37397 0.0
H1430 H 0.65937 0.78566 0.34077 0.0
H1431 H 0.645 0.78346 0.36789 0.0
H1432 H 0.58355 0.78559 0.38387 0.0
H1433 H 0.6135 0.79449 0.38349 0.0
H1434 H 0.58306 0.77302 0.2657 0.0
H1435 H 0.61375 0.77838 0.26542 0.0
H1436 H 0.55886 0.7526 0.28442 0.0
H1437 H 0.54356 0.75466 0.31113 0.0
C1438 C 0.0444 0.15468 0.93022 0.0
C1439 C 0.03558 0.15585 0.95374 0.0
C1440 C 0.01479 0.19271 0.94451 0.0
C1441 C 0.0254 0.19264 0.9217 0.0
N1442 N 0.05429 0.17607 0.89483 0.0
N1443 N 0.01563 0.17796 0.98464 0.0
C1444 C 0.04129 0.17429 0.9151 0.0
C1445 C 0.0217 0.17546 0.96128 0.0
N1446 N 0.05512 0.1345 0.92201 0.0
N1447 N 0.99731 0.20857 0.9498 0.0
H1448 H 0.02024 0.16566 0.99736 0.0
H1449 H 1.00783 0.19315 0.99179 0.0
H1450 H 0.99148 0.22123 0.93796 0.0
H1451 H 0.98708 0.20784 0.96507 0.0
H1452 H 0.05952 0.13157 0.90427 0.0
H1453 H 0.05766 0.11971 0.93244 0.0
H1454 H 0.06801 0.16457 0.89041 0.0
H1455 H 0.05308 0.19042 0.8836 0.0
C1456 C 0.43432 0.31158 0.2193 0.0
C1457 C 0.4297 0.29183 0.23369 0.0
C1458 C 0.45613 0.26792 0.20879 0.0
C1459 C 0.45515 0.28543 0.19116 0.0
N1460 N 0.44555 0.32556 0.18072 0.0
N1461 N 0.45372 0.26152 0.25088 0.0
C1462 C 0.44499 0.30783 0.19675 0.0
C1463 C 0.44571 0.2727 0.23121 0.0
N1464 N 0.43247 0.334 0.22878 0.0
N1465 N 0.46597 0.24633 0.20399 0.0
H1466 H 0.44928 0.26751 0.26796 0.0
H1467 H 0.46709 0.24886 0.25035 0.0
H1468 H 0.47357 0.24182 0.18772 0.0
H1469 H 0.46481 0.23234 0.21568 0.0
H1470 H 0.43767 0.34918 0.21993 0.0
H1471 H 0.42905 0.33692 0.24681 0.0
H1472 H 0.43596 0.34114 0.18294 0.0
H1473 H 0.45475 0.32425 0.16477 0.0
C1474 C 0.5023 0.36697 0.06957 0.0
C1475 C 0.52256 0.36534 0.05479 0.0
C1476 C 0.52806 0.3245 0.06816 0.0
C1477 C 0.51147 0.3286 0.08662 0.0
N1478 N 0.48411 0.35529 0.10606 0.0
N1479 N 0.53873 0.33544 0.02855 0.0
C1480 C 0.49901 0.35031 0.08766 0.0
C1481 C 0.5315 0.3421 0.05076 0.0
N1482 N 0.48397 0.38139 0.06359 0.0
N1483 N 0.54013 0.30367 0.06668 0.0
H1484 H 0.5362 0.34634 0.01405 0.0
H1485 H 0.5434 0.31815 0.02379 0.0
H1486 H 0.53727 0.28971 0.07811 0.0
H1487 H 0.55421 0.30103 0.05505 0.0
H1488 H 0.46782 0.38163 0.07257 0.0
H1489 H 0.48368 0.39019 0.0475 0.0
H1490 H 0.47619 0.3718 0.10836 0.0
H1491 H 0.48164 0.34387 0.12012 0.0
C1492 C 0.59352 0.24784 0.20999 0.0
C1493 C 0.61697 0.25362 0.20255 0.0
C1494 C 0.6004 0.27327 0.16767 0.0
C1495 C 0.57696 0.26902 0.17605 0.0
N1496 N 0.5512 0.25616 0.20734 0.0
N1497 N 0.64298 0.27496 0.17658 0.0
C1498 C 0.57351 0.25734 0.19781 0.0
C1499 C 0.62048 0.26726 0.18202 0.0
N1500 N 0.59035 0.2327 0.22828 0.0
N1501 N 0.60347 0.28216 0.14554 0.0
H1502 H 0.65811 0.27075 0.18655 0.0
H1503 H 0.64648 0.28709 0.1634 0.0
H1504 H 0.58923 0.2867 0.13449 0.0
H1505 H 0.61996 0.28318 0.13729 0.0
H1506 H 0.57377 0.22564 0.23278 0.0
H1507 H 0.60453 0.22563 0.23784 0.0
H1508 H 0.54793 0.25024 0.22436 0.0
H1509 H 0.53612 0.26308 0.19911 0.0
C1510 C 0.50047 0.17658 0.06504 0.0
C1511 C 0.47996 0.16184 0.06789 0.0
C1512 C 0.46582 0.18916 0.09912 0.0
C1513 C 0.48444 0.20548 0.09387 0.0
N1514 N 0.51814 0.21604 0.06982 0.0
N1515 N 0.44132 0.15557 0.08539 0.0
C1516 C 0.50159 0.19948 0.07644 0.0
C1517 C 0.46219 0.16845 0.08443 0.0
N1518 N 0.51903 0.16852 0.05173 0.0
N1519 N 0.45196 0.19317 0.11857 0.0
H1520 H 0.43779 0.14037 0.07484 0.0
H1521 H 0.42666 0.16109 0.09514 0.0
H1522 H 0.45445 0.20792 0.13002 0.0
H1523 H 0.4397 0.18076 0.12471 0.0
H1524 H 0.53546 0.17738 0.05095 0.0
H1525 H 0.51875 0.15187 0.04313 0.0
H1526 H 0.52928 0.21361 0.05534 0.0
H1527 H 0.51953 0.23303 0.07758 0.0
C1528 C 0.33044 0.41009 0.75656 0.0
C1529 C 0.31643 0.40965 0.73531 0.0
C1530 C 0.32658 0.4517 0.72937 0.0
C1531 C 0.34129 0.45183 0.75015 0.0
N1532 N 0.36142 0.43014 0.7806 0.0
N1533 N 0.30433 0.42841 0.69922 0.0
C1534 C 0.34445 0.43068 0.76287 0.0
C1535 C 0.3155 0.42999 0.721 0.0
N1536 N 0.32976 0.39107 0.77111 0.0
N1537 N 0.32233 0.47252 0.71827 0.0
H1538 H 0.29566 0.41296 0.69276 0.0
H1539 H 0.30517 0.44173 0.6868 0.0
H1540 H 0.33042 0.48864 0.72365 0.0
H1541 H 0.30962 0.4742 0.70475 0.0
H1542 H 0.3373 0.39131 0.78814 0.0
H1543 H 0.32007 0.3755 0.76691 0.0
H1544 H 0.36637 0.41469 0.78896 0.0
H1545 H 0.37224 0.44479 0.78546 0.0
C1546 C 0.34497 0.62297 0.77112 0.0
C1547 C 0.31992 0.62375 0.76686 0.0
C1548 C 0.31984 0.58116 0.7569 0.0
C1549 C 0.34289 0.57953 0.76755 0.0
N1550 N 0.37855 0.59939 0.78329 0.0
N1551 N 0.29336 0.60733 0.73643 0.0
C1552 C 0.35602 0.60062 0.77382 0.0
C1553 C 0.30968 0.60388 0.75416 0.0
N1554 N 0.35851 0.64317 0.76938 0.0
N1555 N 0.30756 0.56112 0.74942 0.0
H1556 H 0.28953 0.62437 0.73079 0.0
H1557 H 0.28676 0.59367 0.72517 0.0
H1558 H 0.31487 0.54422 0.74993 0.0
H1559 H 0.28971 0.56137 0.74385 0.0
H1560 H 0.37713 0.64339 0.77016 0.0
H1561 H 0.351 0.65902 0.76398 0.0
H1562 H 0.38775 0.61418 0.79056 0.0
H1563 H 0.3874 0.5834 0.78521 0.0
C1564 C 0.84424 0.4588 0.47961 0.0
C1565 C 0.86587 0.45901 0.49312 0.0
C1566 C 0.84857 0.42963 0.5196 0.0
C1567 C 0.82852 0.42677 0.50398 0.0
N1568 N 0.80799 0.43715 0.46779 0.0
N1569 N 0.88963 0.44339 0.52501 0.0
C1570 C 0.82634 0.44119 0.48378 0.0
C1571 C 0.86824 0.44426 0.51303 0.0
N1572 N 0.84076 0.47562 0.46293 0.0
N1573 N 0.84857 0.41865 0.54095 0.0
H1574 H 0.90436 0.45401 0.52096 0.0
H1575 H 0.89335 0.43097 0.53784 0.0
H1576 H 0.83427 0.40809 0.54638 0.0
H1577 H 0.86154 0.4218 0.55417 0.0
H1578 H 0.8245 0.47798 0.45416 0.0
H1579 H 0.85356 0.48869 0.45942 0.0
H1580 H 0.80704 0.44509 0.45132 0.0
H1581 H 0.79448 0.42451 0.47012 0.0
C1582 C 0.71197 0.91831 0.76025 0.0
C1583 C 0.72241 0.91372 0.78279 0.0
C1584 C 0.69341 0.9398 0.80224 0.0
C1585 C 0.68384 0.94531 0.77961 0.0
N1586 N 0.68616 0.94318 0.73688 0.0
N1587 N 0.72609 0.92304 0.82476 0.0
C1588 C 0.69388 0.93566 0.75854 0.0
C1589 C 0.71398 0.92532 0.80368 0.0
N1590 N 0.71856 0.90528 0.74063 0.0
N1591 N 0.68253 0.94803 0.82236 0.0
H1592 H 0.7412 0.9126 0.82645 0.0
H1593 H 0.72241 0.93292 0.84014 0.0
H1594 H 0.66811 0.95953 0.82197 0.0
H1595 H 0.68679 0.9424 0.83934 0.0
H1596 H 0.70979 0.90584 0.72422 0.0
H1597 H 0.73164 0.89233 0.74113 0.0
H1598 H 0.69451 0.93886 0.72098 0.0
H1599 H 0.67248 0.95535 0.73492 0.0
C1600 C 0.68513 0.55079 0.99159 0.0
C1601 C 0.6635 0.56313 0.98822 0.0
C1602 C 0.68564 0.60117 0.98945 0.0
C1603 C 0.70723 0.58881 0.9931 0.0
N1604 N 0.72683 0.55291 1.00401 0.0
N1605 N 0.64226 0.59994 0.98973 0.0
C1606 C 0.70671 0.56391 0.99622 0.0
C1607 C 0.66349 0.58833 0.98908 0.0
N1608 N 0.6853 0.52659 0.98919 0.0
N1609 N 0.68635 0.62489 0.98496 0.0
H1610 H 0.62577 0.59101 0.98948 0.0
H1611 H 0.64099 0.61819 0.9927 0.0
H1612 H 0.70214 0.63497 0.98519 0.0
H1613 H 0.67152 0.63426 0.97935 0.0
H1614 H 0.70091 0.51681 0.98863 0.0
H1615 H 0.66988 0.51627 0.986 0.0
H1616 H 0.72706 0.53521 1.00885 0.0
H1617 H 0.74281 0.56212 1.00792 0.0
C1618 C 0.20177 0.6045 0.27391 0.0
C1619 C 0.20846 0.61158 0.25089 0.0
C1620 C 0.17897 0.58339 0.23285 0.0
C1621 C 0.17371 0.57497 0.25578 0.0
N1622 N 0.18154 0.57559 0.29806 0.0
N1623 N 0.20592 0.60599 0.20832 0.0
C1624 C 0.1856 0.58493 0.27629 0.0
C1625 C 0.19764 0.60062 0.2303 0.0
N1626 N 0.21021 0.6171 0.2935 0.0
N1627 N 0.16605 0.57495 0.2135 0.0
H1628 H 0.21939 0.61863 0.20575 0.0
H1629 H 0.20077 0.59679 0.19273 0.0
H1630 H 0.1532 0.5614 0.21441 0.0
H1631 H 0.16694 0.58231 0.19678 0.0
H1632 H 0.20411 0.6146 0.31063 0.0
H1633 H 0.22202 0.63154 0.29246 0.0
H1634 H 0.1917 0.58003 0.31323 0.0
H1635 H 0.16888 0.56219 0.30077 0.0
C1636 C 0.84747 0.56079 0.04284 0.0
C1637 C 0.87096 0.56693 0.03576 0.0
C1638 C 0.8552 0.59899 0.01168 0.0
C1639 C 0.83176 0.59313 0.0191 0.0
N1640 N 0.80564 0.57147 0.04468 0.0
N1641 N 0.89796 0.5943 0.01729 0.0
C1642 C 0.82795 0.57504 0.03574 0.0
C1643 C 0.87505 0.58679 0.02131 0.0
N1644 N 0.84373 0.54073 0.05549 0.0
N1645 N 0.85839 0.61591 0.99502 0.0
H1646 H 0.9129 0.58564 0.02386 0.0
H1647 H 0.90228 0.61006 1.00904 0.0
H1648 H 0.84448 0.62623 0.9887 0.0
H1649 H 0.87451 0.61901 0.98657 0.0
H1650 H 0.82688 0.53366 0.05893 0.0
H1651 H 0.85759 0.53006 0.06126 0.0
H1652 H 0.80205 0.56033 0.05867 0.0
H1653 H 0.79081 0.58104 0.03932 0.0
C1654 C 0.15409 0.94412 0.01239 0.0
C1655 C 0.15367 0.95673 0.03458 0.0
C1656 C 0.18986 0.93614 0.04748 0.0
C1657 C 0.1911 0.92458 0.02476 0.0
N1658 N 0.17745 0.92169 0.98391 0.0
N1659 N 0.17377 0.96853 0.0713 0.0
C1660 C 0.17407 0.92977 1.00672 0.0
C1661 C 0.17242 0.95391 0.05151 0.0
N1662 N 0.13498 0.94513 0.99705 0.0
N1663 N 0.20444 0.92927 0.06566 0.0
H1664 H 0.16133 0.9817 0.07481 0.0
H1665 H 0.18834 0.96909 0.08305 0.0
H1666 H 0.21711 0.91605 0.06369 0.0
H1667 H 0.20253 0.93513 0.08323 0.0
H1668 H 0.13297 0.9342 0.9819 0.0
H1669 H 0.12015 0.9556 1.0004 0.0
H1670 H 0.16706 0.92688 0.96952 0.0
H1671 H 0.19211 0.91161 0.97894 0.0
loop_
_geom_bond_atom_site_label_1
_geom_bond_atom_site_label_2
_geom_bond_distance
_geom_bond_site_symmetry_2
_ccdc_geom_bond_type
C0 C1 1.264 . S
C0 C5 1.479 . S
C0 C10 1.465 1_655 S
C1 C0 1.264 . S
C1 C3 1.339 . S
C1 H28 0.931 1_645 S
C2 C3 1.395 . S
C2 C4 1.320 . S
C3 C1 1.339 . S
C3 C2 1.395 . S
C3 H29 0.929 1_545 S
C4 C2 1.320 . S
C4 C5 1.405 . S
C4 H30 0.930 . S
C5 C0 1.479 . S
C5 C4 1.405 . S
C5 H31 0.931 . S
U6 O7 2.454 . S
U6 O8 2.458 . S
U6 C9 2.984 . S
U6 C10 2.847 . S
U6 C23 2.882 . S
U6 O24 2.440 . S
U6 O25 2.420 . S
U6 O26 2.455 . S
U6 O27 2.449 1_545 S
O7 U6 2.454 . S
O7 C9 1.353 . S
O8 U6 2.458 . S
O8 C9 1.286 . S
C9 U6 2.984 . S
C9 O7 1.353 . S
C9 O8 1.286 . S
C9 C11 1.363 1_554 S
C10 C0 1.465 1_455 S
C10 U6 2.847 . S
C10 O24 1.249 . S
C10 O25 1.202 . S
C11 C9 1.363 1_556 S
C11 C13 1.408 . S
C11 C16 1.342 . S
C12 C13 1.310 . S
C12 C15 1.461 . S
C12 H32 0.932 1_455 S
C13 C11 1.408 . S
C13 C12 1.310 . S
C13 H33 0.930 1_456 S
C14 C15 1.474 . S
C14 C16 1.285 . S
C14 H34 0.929 . S
C15 C12 1.461 . S
C15 C14 1.474 . S
C16 C11 1.342 . S
C16 C14 1.285 . S
C16 H35 0.930 . S
C17 C20 1.424 . S
C17 C22 1.245 . S
C17 C23 1.428 1_565 S
C18 C21 1.260 . S
C18 C22 1.477 . S
C18 H36 0.932 1_554 S
C19 C20 1.384 . S
C19 C21 1.479 . S
C19 H37 0.929 . S
C20 C17 1.424 . S
C20 C19 1.384 . S
C20 H38 0.928 . S
C21 C18 1.260 . S
C21 C19 1.479 . S
C22 C17 1.245 . S
C22 C18 1.477 . S
C22 H39 0.932 1_564 S
C23 U6 2.882 . S
C23 C17 1.428 1_545 S
C23 O26 1.301 . S
C23 O27 1.282 1_545 S
O24 U6 2.440 . S
O24 C10 1.249 . S
O25 U6 2.420 . S
O25 C10 1.202 . S
O26 U6 2.455 . S
O26 C23 1.301 . S
O27 U6 2.449 1_565 S
O27 C23 1.282 1_565 S
H28 C1 0.931 1_465 S
H29 C3 0.929 1_565 S
H30 C4 0.930 . S
H31 C5 0.931 . S
H32 C12 0.932 1_655 S
H33 C13 0.930 1_654 S
H34 C14 0.929 . S
H35 C16 0.930 . S
H36 C18 0.932 1_556 S
H37 C19 0.929 . S
H38 C20 0.928 . S
H39 C22 0.932 1_546 S
C40 C41 1.264 . S
C40 C45 1.479 . S
C40 C50 1.465 . S
C41 C40 1.264 . S
C41 C43 1.339 . S
C41 H68 0.931 . S
C42 C43 1.395 . S
C42 C44 1.320 . S
C43 C41 1.339 . S
C43 C42 1.395 . S
C43 H69 0.929 . S
C44 C42 1.320 . S
C44 C45 1.405 . S
C44 H70 0.930 . S
C45 C40 1.479 . S
C45 C44 1.405 . S
C45 H71 0.931 . S
U46 O47 2.454 . S
U46 O48 2.458 . S
U46 C49 2.984 . S
U46 C50 2.847 . S
U46 C63 2.882 . S
U46 O64 2.441 . S
U46 O65 2.420 . S
U46 O66 2.455 . S
U46 O67 2.449 . S
O47 U46 2.454 . S
O47 C49 1.353 . S
O48 U46 2.458 . S
O48 C49 1.286 . S
C49 U46 2.984 . S
C49 O47 1.353 . S
C49 O48 1.286 . S
C49 C51 1.363 . S
C50 C40 1.465 . S
C50 U46 2.847 . S
C50 O64 1.249 . S
C50 O65 1.202 . S
C51 C49 1.363 . S
C51 C53 1.408 . S
C51 C56 1.342 . S
C52 C53 1.310 . S
C52 C55 1.461 . S
C52 H72 0.932 . S
C53 C51 1.408 . S
C53 C52 1.310 . S
C53 H73 0.930 . S
C54 C55 1.474 . S
C54 C56 1.285 . S
C54 H74 0.929 . S
C55 C52 1.461 . S
C55 C54 1.474 . S
C56 C51 1.342 . S
C56 C54 1.285 . S
C56 H75 0.930 . S
C57 C60 1.424 . S
C57 C62 1.245 . S
C57 C63 1.428 . S
C58 C61 1.260 . S
C58 C62 1.477 . S
C58 H76 0.932 . S
C59 C60 1.384 . S
C59 C61 1.479 . S
C59 H77 0.929 . S
C60 C57 1.424 . S
C60 C59 1.384 . S
C60 H78 0.928 . S
C61 C58 1.260 . S
C61 C59 1.479 . S
C62 C57 1.245 . S
C62 C58 1.477 . S
C62 H79 0.932 . S
C63 U46 2.882 . S
C63 C57 1.428 . S
C63 O66 1.301 . S
C63 O67 1.282 . S
O64 U46 2.441 . S
O64 C50 1.249 . S
O65 U46 2.420 . S
O65 C50 1.202 . S
O66 U46 2.455 . S
O66 C63 1.301 . S
O67 U46 2.449 . S
O67 C63 1.282 . S
H68 C41 0.931 . S
H69 C43 0.929 . S
H70 C44 0.930 . S
H71 C45 0.931 . S
H72 C52 0.932 . S
H73 C53 0.930 . S
H74 C54 0.929 . S
H75 C56 0.930 . S
H76 C58 0.932 . S
H77 C59 0.929 . S
H78 C60 0.928 . S
H79 C62 0.932 . S
C80 C81 1.271 . S
C80 C85 1.454 1_554 S
C80 C90 1.481 . S
C81 C80 1.271 . S
C81 C83 1.339 1_554 S
C81 H108 0.931 . S
C82 C83 1.395 . S
C82 C84 1.320 . S
C83 C81 1.339 1_556 S
C83 C82 1.395 . S
C83 H109 0.929 1_655 S
C84 C82 1.320 . S
C84 C85 1.405 . S
C84 H110 0.930 . S
C85 C80 1.454 1_556 S
C85 C84 1.405 . S
C85 H111 0.931 . S
U86 O87 2.454 . S
U86 O88 2.458 . S
U86 C89 2.984 . S
U86 C90 2.847 . S
U86 C103 2.882 . S
U86 O104 2.441 . S
U86 O105 2.420 . S
U86 O106 2.455 . S
U86 O107 2.449 . S
O87 U86 2.454 . S
O87 C89 1.353 . S
O88 U86 2.458 . S
O88 C89 1.286 . S
C89 U86 2.984 . S
C89 O87 1.353 . S
C89 O88 1.286 . S
C89 C91 1.363 . S
C90 C80 1.481 . S
C90 U86 2.847 . S
C90 O104 1.249 . S
C90 O105 1.202 . S
C91 C89 1.363 . S
C91 C93 1.408 . S
C91 C96 1.342 . S
C92 C93 1.310 . S
C92 C95 1.461 . S
C92 H112 0.932 . S
C93 C91 1.408 . S
C93 C92 1.310 . S
C93 H113 0.930 . S
C94 C95 1.474 . S
C94 C96 1.285 . S
C94 H114 0.929 . S
C95 C92 1.461 . S
C95 C94 1.474 . S
C96 C91 1.342 . S
C96 C94 1.285 . S
C96 H115 0.930 . S
C97 C100 1.424 . S
C97 C102 1.245 1_455 S
C97 C103 1.428 1_455 S
C98 C101 1.260 . S
C98 C102 1.477 1_455 S
C98 H116 0.932 . S
C99 C100 1.384 . S
C99 C101 1.479 . S
C99 H117 0.929 . S
C100 C97 1.424 . S
C100 C99 1.384 . S
C100 H118 0.928 . S
C101 C98 1.260 . S
C101 C99 1.479 . S
C102 C97 1.245 1_655 S
C102 C98 1.477 1_655 S
C102 H119 0.932 . S
C103 U86 2.882 . S
C103 C97 1.428 1_655 S
C103 O106 1.301 . S
C103 O107 1.282 . S
O104 U86 2.441 . S
O104 C90 1.249 . S
O105 U86 2.420 . S
O105 C90 1.202 . S
O106 U86 2.455 . S
O106 C103 1.301 . S
O107 U86 2.449 . S
O107 C103 1.282 . S
H108 C81 0.931 . S
H109 C83 0.929 1_455 S
H110 C84 0.930 . S
H111 C85 0.931 . S
H112 C92 0.932 . S
H113 C93 0.930 . S
H114 C94 0.929 . S
H115 C96 0.930 . S
H116 C98 0.932 . S
H117 C99 0.929 . S
H118 C100 0.928 . S
H119 C102 0.932 . S
C120 C121 1.264 . S
C120 C125 1.479 . S
C120 C130 1.465 . S
C121 C120 1.264 . S
C121 C123 1.339 . S
C121 H148 0.931 . S
C122 C123 1.395 . S
C122 C124 1.320 . S
C123 C121 1.339 . S
C123 C122 1.395 . S
C123 H149 0.929 . S
C124 C122 1.320 . S
C124 C125 1.405 . S
C124 H150 0.930 . S
C125 C120 1.479 . S
C125 C124 1.405 . S
C125 H151 0.931 . S
U126 O127 2.454 . S
U126 O128 2.458 . S
U126 C129 2.984 . S
U126 C130 2.847 . S
U126 C143 2.882 . S
U126 O144 2.441 . S
U126 O145 2.420 . S
U126 O146 2.455 . S
U126 O147 2.449 . S
O127 U126 2.454 . S
O127 C129 1.353 . S
O128 U126 2.458 . S
O128 C129 1.286 . S
C129 U126 2.984 . S
C129 O127 1.353 . S
C129 O128 1.286 . S
C129 C131 1.363 . S
C130 C120 1.465 . S
C130 U126 2.847 . S
C130 O144 1.249 . S
C130 O145 1.202 . S
C131 C129 1.363 . S
C131 C133 1.408 . S
C131 C136 1.342 . S
C132 C133 1.310 . S
C132 C135 1.461 . S
C132 H152 0.932 . S
C133 C131 1.408 . S
C133 C132 1.310 . S
C133 H153 0.930 . S
C134 C135 1.474 . S
C134 C136 1.285 . S
C134 H154 0.929 . S
C135 C132 1.461 . S
C135 C134 1.474 . S
C136 C131 1.342 . S
C136 C134 1.285 . S
C136 H155 0.930 . S
C137 C140 1.424 . S
C137 C142 1.245 . S
C137 C143 1.428 . S
C138 C141 1.260 . S
C138 C142 1.477 . S
C138 H156 0.932 . S
C139 C140 1.384 . S
C139 C141 1.479 . S
C139 H157 0.929 . S
C140 C137 1.424 . S
C140 C139 1.384 . S
C140 H158 0.928 . S
C141 C138 1.260 . S
C141 C139 1.479 . S
C142 C137 1.245 . S
C142 C138 1.477 . S
C142 H159 0.932 . S
C143 U126 2.882 . S
C143 C137 1.428 . S
C143 O146 1.301 . S
C143 O147 1.282 . S
O144 U126 2.441 . S
O144 C130 1.249 . S
O145 U126 2.420 . S
O145 C130 1.202 . S
O146 U126 2.455 . S
O146 C143 1.301 . S
O147 U126 2.449 . S
O147 C143 1.282 . S
H148 C121 0.931 . S
H149 C123 0.929 . S
H150 C124 0.930 . S
H151 C125 0.931 . S
H152 C132 0.932 . S
H153 C133 0.930 . S
H154 C134 0.929 . S
H155 C136 0.930 . S
H156 C138 0.932 . S
H157 C139 0.929 . S
H158 C140 0.928 . S
H159 C142 0.932 . S
C160 C161 1.264 . S
C160 C165 1.479 1_455 S
C160 C170 1.465 . S
C161 C160 1.264 . S
C161 C163 1.339 1_455 S
C161 H188 0.931 . S
C162 C163 1.395 . S
C162 C164 1.320 . S
C163 C161 1.339 1_655 S
C163 C162 1.395 . S
C163 H189 0.922 1_565 S
C164 C162 1.320 . S
C164 C165 1.405 . S
C164 H190 0.930 . S
C165 C160 1.479 1_655 S
C165 C164 1.405 . S
C165 H191 0.931 . S
U166 O167 2.454 . S
U166 O168 2.458 . S
U166 C169 2.984 . S
U166 C170 2.847 . S
U166 C183 2.882 . S
U166 O184 2.441 . S
U166 O185 2.420 . S
U166 O186 2.455 . S
U166 O187 2.449 . S
O167 U166 2.454 . S
O167 C169 1.353 . S
O168 U166 2.458 . S
O168 C169 1.286 . S
C169 U166 2.984 . S
C169 O167 1.353 . S
C169 O168 1.286 . S
C169 C171 1.363 . S
C170 C160 1.465 . S
C170 U166 2.847 . S
C170 O184 1.249 . S
C170 O185 1.202 . S
C171 C169 1.363 . S
C171 C173 1.408 . S
C171 C176 1.342 . S
C172 C173 1.310 . S
C172 C175 1.461 . S
C172 H192 0.932 . S
C173 C171 1.408 . S
C173 C172 1.310 . S
C173 H193 0.930 . S
C174 C175 1.474 . S
C174 C176 1.285 . S
C174 H194 0.929 . S
C175 C172 1.461 . S
C175 C174 1.474 . S
C176 C171 1.342 . S
C176 C174 1.285 . S
C176 H195 0.930 . S
C177 C180 1.424 . S
C177 C182 1.245 1_545 S
C177 C183 1.428 1_545 S
C178 C181 1.260 . S
C178 C182 1.477 1_545 S
C178 H196 0.932 . S
C179 C180 1.384 . S
C179 C181 1.479 . S
C179 H197 0.929 . S
C180 C177 1.424 . S
C180 C179 1.384 . S
C180 H198 0.928 . S
C181 C178 1.260 . S
C181 C179 1.479 . S
C182 C177 1.245 1_565 S
C182 C178 1.477 1_565 S
C182 H199 0.932 . S
C183 U166 2.882 . S
C183 C177 1.428 1_565 S
C183 O186 1.301 . S
C183 O187 1.282 . S
O184 U166 2.441 . S
O184 C170 1.249 . S
O185 U166 2.420 . S
O185 C170 1.202 . S
O186 U166 2.455 . S
O186 C183 1.301 . S
O187 U166 2.449 . S
O187 C183 1.282 . S
H188 C161 0.931 . S
H189 C163 0.922 1_545 S
H190 C164 0.930 . S
H191 C165 0.931 . S
H192 C172 0.932 . S
H193 C173 0.930 . S
H194 C174 0.929 . S
H195 C176 0.930 . S
H196 C178 0.932 . S
H197 C179 0.929 . S
H198 C180 0.928 . S
H199 C182 0.932 . S
C200 C201 1.264 . S
C200 C205 1.479 . S
C200 C210 1.465 . S
C201 C200 1.264 . S
C201 C203 1.339 . S
C201 H228 0.931 . S
C202 C203 1.395 . S
C202 C204 1.320 . S
C203 C201 1.339 . S
C203 C202 1.395 . S
C203 H229 0.929 . S
C204 C202 1.320 . S
C204 C205 1.405 . S
C204 H230 0.930 . S
C205 C200 1.479 . S
C205 C204 1.405 . S
C205 H231 0.931 . S
U206 O207 2.454 . S
U206 O208 2.458 . S
U206 C209 2.984 . S
U206 C210 2.847 . S
U206 C223 2.882 . S
U206 O224 2.441 . S
U206 O225 2.420 . S
U206 O226 2.455 . S
U206 O227 2.449 . S
O207 U206 2.454 . S
O207 C209 1.353 . S
O208 U206 2.458 . S
O208 C209 1.286 . S
C209 U206 2.984 . S
C209 O207 1.353 . S
C209 O208 1.286 . S
C209 C211 1.363 . S
C210 C200 1.465 . S
C210 U206 2.847 . S
C210 O224 1.249 . S
C210 O225 1.202 . S
C211 C209 1.363 . S
C211 C213 1.408 . S
C211 C216 1.342 . S
C212 C213 1.310 . S
C212 C215 1.461 . S
C212 H232 0.932 . S
C213 C211 1.408 . S
C213 C212 1.310 . S
C213 H233 0.930 . S
C214 C215 1.474 . S
C214 C216 1.285 . S
C214 H234 0.929 . S
C215 C212 1.461 . S
C215 C214 1.474 . S
C216 C211 1.342 . S
C216 C214 1.285 . S
C216 H235 0.930 . S
C217 C220 1.424 . S
C217 C222 1.245 . S
C217 C223 1.428 . S
C218 C221 1.260 . S
C218 C222 1.477 . S
C218 H236 0.932 . S
C219 C220 1.384 . S
C219 C221 1.479 . S
C219 H237 0.929 . S
C220 C217 1.424 . S
C220 C219 1.384 . S
C220 H238 0.928 . S
C221 C218 1.260 . S
C221 C219 1.479 . S
C222 C217 1.245 . S
C222 C218 1.477 . S
C222 H239 0.932 . S
C223 U206 2.882 . S
C223 C217 1.428 . S
C223 O226 1.301 . S
C223 O227 1.282 . S
O224 U206 2.441 . S
O224 C210 1.249 . S
O225 U206 2.420 . S
O225 C210 1.202 . S
O226 U206 2.455 . S
O226 C223 1.301 . S
O227 U206 2.449 . S
O227 C223 1.282 . S
H228 C201 0.931 . S
H229 C203 0.929 . S
H230 C204 0.930 . S
H231 C205 0.931 . S
H232 C212 0.932 . S
H233 C213 0.930 . S
H234 C214 0.929 . S
H235 C216 0.930 . S
H236 C218 0.932 . S
H237 C219 0.929 . S
H238 C220 0.928 . S
H239 C222 0.932 . S
C240 C241 1.264 . S
C240 C245 1.479 . S
C240 C250 1.465 . S
C241 C240 1.264 . S
C241 C243 1.339 . S
C241 H268 0.931 1_655 S
C242 C243 1.395 . S
C242 C244 1.320 . S
C243 C241 1.339 . S
C243 C242 1.395 . S
C243 H269 0.929 1_655 S
C244 C242 1.320 . S
C244 C245 1.405 . S
C244 H270 0.930 . S
C245 C240 1.479 . S
C245 C244 1.405 . S
C245 H271 0.931 . S
U246 O247 2.454 . S
U246 O248 2.458 . S
U246 C249 2.984 . S
U246 C250 2.847 . S
U246 C263 2.882 . S
U246 O264 2.441 . S
U246 O265 2.420 . S
U246 O266 2.455 . S
U246 O267 2.420 1_655 S
O247 U246 2.454 . S
O247 C249 1.353 . S
O248 U246 2.458 . S
O248 C249 1.286 . S
C249 U246 2.984 . S
C249 O247 1.353 . S
C249 O248 1.286 . S
C249 C251 1.363 . S
C250 C240 1.465 . S
C250 U246 2.847 . S
C250 O264 1.249 . S
C250 O265 1.202 . S
C251 C249 1.363 . S
C251 C253 1.408 . S
C251 C256 1.342 . S
C252 C253 1.310 . S
C252 C255 1.461 . S
C252 H272 0.932 . S
C253 C251 1.408 . S
C253 C252 1.310 . S
C253 H273 0.930 . S
C254 C255 1.474 . S
C254 C256 1.285 . S
C254 H274 0.929 . S
C255 C252 1.461 . S
C255 C254 1.474 . S
C256 C251 1.342 . S
C256 C254 1.285 . S
C256 H275 0.930 . S
C257 C260 1.424 . S
C257 C262 1.245 . S
C257 C263 1.428 1_455 S
C258 C261 1.260 . S
C258 C262 1.477 . S
C258 H276 0.932 . S
C259 C260 1.384 . S
C259 C261 1.479 . S
C259 H277 0.929 . S
C260 C257 1.424 . S
C260 C259 1.384 . S
C260 H278 0.928 . S
C261 C258 1.260 . S
C261 C259 1.479 . S
C262 C257 1.245 . S
C262 C258 1.477 . S
C262 H279 0.932 1_455 S
C263 U246 2.882 . S
C263 C257 1.428 1_655 S
C263 O266 1.301 . S
C263 O267 1.276 1_655 S
O264 U246 2.441 . S
O264 C250 1.249 . S
O265 U246 2.420 . S
O265 C250 1.202 . S
O266 U246 2.455 . S
O266 C263 1.301 . S
O267 U246 2.420 1_455 S
O267 C263 1.276 1_455 S
H268 C241 0.931 1_455 S
H269 C243 0.929 1_455 S
H270 C244 0.930 . S
H271 C245 0.931 . S
H272 C252 0.932 . S
H273 C253 0.930 . S
H274 C254 0.929 . S
H275 C256 0.930 . S
H276 C258 0.932 . S
H277 C259 0.929 . S
H278 C260 0.928 . S
H279 C262 0.932 1_655 S
C280 C281 1.264 . S
C280 C285 1.479 . S
C280 C290 1.465 . S
C281 C280 1.264 . S
C281 C283 1.339 . S
C281 H308 0.931 . S
C282 C283 1.395 . S
C282 C284 1.320 . S
C283 C281 1.339 . S
C283 C282 1.395 . S
C283 H309 0.929 . S
C284 C282 1.320 . S
C284 C285 1.405 . S
C284 H310 0.930 . S
C285 C280 1.479 . S
C285 C284 1.405 . S
C285 H311 0.931 . S
U286 O287 2.454 . S
U286 O288 2.458 . S
U286 C289 2.984 . S
U286 C290 2.847 . S
U286 C303 2.882 . S
U286 O304 2.441 . S
U286 O305 2.420 . S
U286 O306 2.455 . S
U286 O307 2.449 . S
O287 U286 2.454 . S
O287 C289 1.353 . S
O288 U286 2.458 . S
O288 C289 1.286 . S
C289 U286 2.984 . S
C289 O287 1.353 . S
C289 O288 1.286 . S
C289 C291 1.363 . S
C290 C280 1.465 . S
C290 U286 2.847 . S
C290 O304 1.249 . S
C290 O305 1.202 . S
C291 C289 1.363 . S
C291 C293 1.408 . S
C291 C296 1.342 . S
C292 C293 1.310 . S
C292 C295 1.461 . S
C292 H312 0.932 . S
C293 C291 1.408 . S
C293 C292 1.310 . S
C293 H313 0.930 . S
C294 C295 1.474 . S
C294 C296 1.285 . S
C294 H314 0.929 . S
C295 C292 1.461 . S
C295 C294 1.474 . S
C296 C291 1.342 . S
C296 C294 1.285 . S
C296 H315 0.930 . S
C297 C300 1.424 . S
C297 C302 1.245 . S
C297 C303 1.428 . S
C298 C301 1.260 . S
C298 C302 1.477 . S
C298 H316 0.932 . S
C299 C300 1.384 . S
C299 C301 1.479 . S
C299 H317 0.929 . S
C300 C297 1.424 . S
C300 C299 1.384 . S
C300 H318 0.928 . S
C301 C298 1.260 . S
C301 C299 1.479 . S
C302 C297 1.245 . S
C302 C298 1.477 . S
C302 H319 0.932 . S
C303 U286 2.882 . S
C303 C297 1.428 . S
C303 O306 1.301 . S
C303 O307 1.282 . S
O304 U286 2.441 . S
O304 C290 1.249 . S
O305 U286 2.420 . S
O305 C290 1.202 . S
O306 U286 2.455 . S
O306 C303 1.301 . S
O307 U286 2.449 . S
O307 C303 1.282 . S
H308 C281 0.931 . S
H309 C283 0.929 . S
H310 C284 0.930 . S
H311 C285 0.931 . S
H312 C292 0.932 . S
H313 C293 0.930 . S
H314 C294 0.929 . S
H315 C296 0.930 . S
H316 C298 0.932 . S
H317 C299 0.929 . S
H318 C300 0.928 . S
H319 C302 0.932 . S
C320 C321 1.264 . S
C320 C325 1.479 . S
C320 C330 1.465 . S
C321 C320 1.264 . S
C321 C323 1.339 . S
C321 H348 0.931 . S
C322 C323 1.395 . S
C322 C324 1.320 . S
C323 C321 1.339 . S
C323 C322 1.395 . S
C323 H349 0.929 . S
C324 C322 1.320 . S
C324 C325 1.405 . S
C324 H350 0.930 . S
C325 C320 1.479 . S
C325 C324 1.405 . S
C325 H351 0.931 . S
U326 O327 2.454 . S
U326 O328 2.458 . S
U326 C329 2.984 . S
U326 C330 2.847 . S
U326 C343 2.882 . S
U326 O344 2.441 . S
U326 O345 2.420 . S
U326 O346 2.455 . S
U326 O347 2.449 . S
O327 U326 2.454 . S
O327 C329 1.353 . S
O328 U326 2.458 . S
O328 C329 1.286 . S
C329 U326 2.984 . S
C329 O327 1.353 . S
C329 O328 1.286 . S
C329 C331 1.363 . S
C330 C320 1.465 . S
C330 U326 2.847 . S
C330 O344 1.249 . S
C330 O345 1.202 . S
C331 C329 1.363 . S
C331 C333 1.408 . S
C331 C336 1.342 . S
C332 C333 1.310 . S
C332 C335 1.461 . S
C332 H352 0.932 . S
C333 C331 1.408 . S
C333 C332 1.310 . S
C333 H353 0.930 . S
C334 C335 1.474 . S
C334 C336 1.285 . S
C334 H354 0.929 . S
C335 C332 1.461 . S
C335 C334 1.474 . S
C336 C331 1.342 . S
C336 C334 1.285 . S
C336 H355 0.930 . S
C337 C340 1.424 . S
C337 C342 1.245 . S
C337 C343 1.428 . S
C338 C341 1.260 . S
C338 C342 1.477 . S
C338 H356 0.932 . S
C339 C340 1.384 . S
C339 C341 1.479 . S
C339 H357 0.929 . S
C340 C337 1.424 . S
C340 C339 1.384 . S
C340 H358 0.928 . S
C341 C338 1.260 . S
C341 C339 1.479 . S
C342 C337 1.245 . S
C342 C338 1.477 . S
C342 H359 0.932 . S
C343 U326 2.882 . S
C343 C337 1.428 . S
C343 O346 1.301 . S
C343 O347 1.282 . S
O344 U326 2.441 . S
O344 C330 1.249 . S
O345 U326 2.420 . S
O345 C330 1.202 . S
O346 U326 2.455 . S
O346 C343 1.301 . S
O347 U326 2.449 . S
O347 C343 1.282 . S
H348 C321 0.931 . S
H349 C323 0.929 . S
H350 C324 0.930 . S
H351 C325 0.931 . S
H352 C332 0.932 . S
H353 C333 0.930 . S
H354 C334 0.929 . S
H355 C336 0.930 . S
H356 C338 0.932 . S
H357 C339 0.929 . S
H358 C340 0.928 . S
H359 C342 0.932 . S
C360 C361 1.264 . S
C360 C365 1.479 . S
C360 C370 1.465 . S
C361 C360 1.264 . S
C361 C363 1.339 . S
C361 H388 0.931 . S
C362 C363 1.395 . S
C362 C364 1.320 . S
C363 C361 1.339 . S
C363 C362 1.395 . S
C363 H389 0.929 . S
C364 C362 1.320 . S
C364 C365 1.405 . S
C364 H390 0.930 . S
C365 C360 1.479 . S
C365 C364 1.405 . S
C365 H391 0.931 . S
U366 O367 2.454 . S
U366 O368 2.458 . S
U366 C369 2.984 . S
U366 C370 2.847 . S
U366 C383 2.882 . S
U366 O384 2.441 . S
U366 O385 2.420 . S
U366 O386 2.455 . S
U366 O387 2.449 . S
O367 U366 2.454 . S
O367 C369 1.353 . S
O368 U366 2.458 . S
O368 C369 1.286 . S
C369 U366 2.984 . S
C369 O367 1.353 . S
C369 O368 1.286 . S
C369 C371 1.363 1_565 S
C370 C360 1.465 . S
C370 U366 2.847 . S
C370 O384 1.249 . S
C370 O385 1.202 . S
C371 C369 1.363 1_545 S
C371 C373 1.408 . S
C371 C376 1.342 . S
C372 C373 1.310 . S
C372 C375 1.461 . S
C372 H392 0.932 . S
C373 C371 1.408 . S
C373 C372 1.310 . S
C373 H393 0.930 1_545 S
C374 C375 1.474 . S
C374 C376 1.285 . S
C374 H394 0.929 . S
C375 C372 1.461 . S
C375 C374 1.474 . S
C376 C371 1.342 . S
C376 C374 1.285 . S
C376 H395 0.930 . S
C377 C380 1.424 . S
C377 C382 1.245 . S
C377 C383 1.428 . S
C378 C381 1.260 . S
C378 C382 1.477 . S
C378 H396 0.932 1_565 S
C379 C380 1.384 . S
C379 C381 1.479 . S
C379 H397 0.929 . S
C380 C377 1.424 . S
C380 C379 1.384 . S
C380 H398 0.928 . S
C381 C378 1.260 . S
C381 C379 1.479 . S
C382 C377 1.245 . S
C382 C378 1.477 . S
C382 H399 0.932 1_565 S
C383 U366 2.882 . S
C383 C377 1.428 . S
C383 O386 1.301 . S
C383 O387 1.282 . S
O384 U366 2.441 . S
O384 C370 1.249 . S
O385 U366 2.420 . S
O385 C370 1.202 . S
O386 U366 2.455 . S
O386 C383 1.301 . S
O387 U366 2.449 . S
O387 C383 1.282 . S
H388 C361 0.931 . S
H389 C363 0.929 . S
H390 C364 0.930 . S
H391 C365 0.931 . S
H392 C372 0.932 . S
H393 C373 0.930 1_565 S
H394 C374 0.929 . S
H395 C376 0.930 . S
H396 C378 0.932 1_545 S
H397 C379 0.929 . S
H398 C380 0.928 . S
H399 C382 0.932 1_545 S
C400 C401 1.264 . S
C400 C405 1.479 . S
C400 C410 1.465 . S
C401 C400 1.264 . S
C401 C403 1.339 . S
C401 H428 0.931 . S
C402 C403 1.395 . S
C402 C404 1.320 . S
C403 C401 1.339 . S
C403 C402 1.395 . S
C403 H429 0.929 . S
C404 C402 1.320 . S
C404 C405 1.405 . S
C404 H430 0.930 . S
C405 C400 1.479 . S
C405 C404 1.405 . S
C405 H431 0.931 . S
U406 O407 2.454 . S
U406 O408 2.458 . S
U406 C409 2.984 . S
U406 C410 2.847 . S
U406 C423 2.882 . S
U406 O424 2.441 . S
U406 O425 2.420 . S
U406 O426 2.455 . S
U406 O427 2.449 . S
O407 U406 2.454 . S
O407 C409 1.353 . S
O408 U406 2.458 . S
O408 C409 1.286 . S
C409 U406 2.984 . S
C409 O407 1.353 . S
C409 O408 1.286 . S
C409 C411 1.363 . S
C410 C400 1.465 . S
C410 U406 2.847 . S
C410 O424 1.249 . S
C410 O425 1.202 . S
C411 C409 1.363 . S
C411 C413 1.408 . S
C411 C416 1.342 . S
C412 C413 1.310 . S
C412 C415 1.461 . S
C412 H432 0.932 . S
C413 C411 1.408 . S
C413 C412 1.310 . S
C413 H433 0.930 . S
C414 C415 1.474 . S
C414 C416 1.285 . S
C414 H434 0.929 . S
C415 C412 1.461 . S
C415 C414 1.474 . S
C416 C411 1.342 . S
C416 C414 1.285 . S
C416 H435 0.930 . S
C417 C420 1.424 . S
C417 C422 1.245 . S
C417 C423 1.428 . S
C418 C421 1.260 . S
C418 C422 1.477 . S
C418 H436 0.932 . S
C419 C420 1.384 . S
C419 C421 1.479 . S
C419 H437 0.929 . S
C420 C417 1.424 . S
C420 C419 1.384 . S
C420 H438 0.928 . S
C421 C418 1.260 . S
C421 C419 1.479 . S
C422 C417 1.245 . S
C422 C418 1.477 . S
C422 H439 0.932 . S
C423 U406 2.882 . S
C423 C417 1.428 . S
C423 O426 1.301 . S
C423 O427 1.282 . S
O424 U406 2.441 . S
O424 C410 1.249 . S
O425 U406 2.420 . S
O425 C410 1.202 . S
O426 U406 2.455 . S
O426 C423 1.301 . S
O427 U406 2.449 . S
O427 C423 1.282 . S
H428 C401 0.931 . S
H429 C403 0.929 . S
H430 C404 0.930 . S
H431 C405 0.931 . S
H432 C412 0.932 . S
H433 C413 0.930 . S
H434 C414 0.929 . S
H435 C416 0.930 . S
H436 C418 0.932 . S
H437 C419 0.929 . S
H438 C420 0.928 . S
H439 C422 0.932 . S
C440 C441 1.264 . S
C440 C445 1.479 . S
C440 C450 1.465 . S
C441 C440 1.264 . S
C441 C443 1.339 . S
C441 H468 0.931 . S
C442 C443 1.395 . S
C442 C444 1.320 . S
C443 C441 1.339 . S
C443 C442 1.395 . S
C443 H469 0.929 . S
C444 C442 1.320 . S
C444 C445 1.405 . S
C444 H470 0.930 . S
C445 C440 1.479 . S
C445 C444 1.405 . S
C445 H471 0.931 . S
U446 O447 2.454 . S
U446 O448 2.458 . S
U446 C449 2.984 . S
U446 C450 2.847 . S
U446 C463 2.882 . S
U446 O464 2.441 . S
U446 O465 2.420 . S
U446 O466 2.455 . S
U446 O467 2.449 . S
O447 U446 2.454 . S
O447 C449 1.353 . S
O448 U446 2.458 . S
O448 C449 1.286 . S
C449 U446 2.984 . S
C449 O447 1.353 . S
C449 O448 1.286 . S
C449 C451 1.363 . S
C450 C440 1.465 . S
C450 U446 2.847 . S
C450 O464 1.249 . S
C450 O465 1.202 . S
C451 C449 1.363 . S
C451 C453 1.408 . S
C451 C456 1.342 . S
C452 C453 1.310 . S
C452 C455 1.461 . S
C452 H472 0.932 . S
C453 C451 1.408 . S
C453 C452 1.310 . S
C453 H473 0.930 . S
C454 C455 1.474 . S
C454 C456 1.285 . S
C454 H474 0.929 . S
C455 C452 1.461 . S
C455 C454 1.474 . S
C456 C451 1.342 . S
C456 C454 1.285 . S
C456 H475 0.930 . S
C457 C460 1.424 . S
C457 C462 1.245 . S
C457 C463 1.428 . S
C458 C461 1.260 . S
C458 C462 1.477 . S
C458 H476 0.932 . S
C459 C460 1.384 . S
C459 C461 1.479 . S
C459 H477 0.929 . S
C460 C457 1.424 . S
C460 C459 1.384 . S
C460 H478 0.928 . S
C461 C458 1.260 . S
C461 C459 1.479 . S
C462 C457 1.245 . S
C462 C458 1.477 . S
C462 H479 0.932 . S
C463 U446 2.882 . S
C463 C457 1.428 . S
C463 O466 1.301 . S
C463 O467 1.282 . S
O464 U446 2.441 . S
O464 C450 1.249 . S
O465 U446 2.420 . S
O465 C450 1.202 . S
O466 U446 2.455 . S
O466 C463 1.301 . S
O467 U446 2.449 . S
O467 C463 1.282 . S
H468 C441 0.931 . S
H469 C443 0.929 . S
H470 C444 0.930 . S
H471 C445 0.931 . S
H472 C452 0.932 . S
H473 C453 0.930 . S
H474 C454 0.929 . S
H475 C456 0.930 . S
H476 C458 0.932 . S
H477 C459 0.929 . S
H478 C460 0.928 . S
H479 C462 0.932 . S
C480 C481 1.264 . S
C480 C485 1.479 . S
C480 C490 1.465 . S
C481 C480 1.264 . S
C481 C483 1.339 . S
C481 H508 0.931 . S
C482 C483 1.395 . S
C482 C484 1.320 . S
C483 C481 1.339 . S
C483 C482 1.395 . S
C483 H509 0.929 . S
C484 C482 1.320 . S
C484 C485 1.405 . S
C484 H510 0.930 . S
C485 C480 1.479 . S
C485 C484 1.405 . S
C485 H511 0.931 . S
U486 O487 2.454 . S
U486 O488 2.458 . S
U486 C489 2.984 . S
U486 C490 2.847 . S
U486 C503 2.882 . S
U486 O504 2.441 . S
U486 O505 2.420 . S
U486 O506 2.455 . S
U486 O507 2.449 . S
O487 U486 2.454 . S
O487 C489 1.353 . S
O488 U486 2.458 . S
O488 C489 1.286 . S
C489 U486 2.984 . S
C489 O487 1.353 . S
C489 O488 1.286 . S
C489 C491 1.363 . S
C490 C480 1.465 . S
C490 U486 2.847 . S
C490 O504 1.249 . S
C490 O505 1.202 . S
C491 C489 1.363 . S
C491 C493 1.408 . S
C491 C496 1.342 . S
C492 C493 1.310 . S
C492 C495 1.461 . S
C492 H512 0.932 . S
C493 C491 1.408 . S
C493 C492 1.310 . S
C493 H513 0.930 . S
C494 C495 1.474 . S
C494 C496 1.285 . S
C494 H514 0.929 . S
C495 C492 1.461 . S
C495 C494 1.474 . S
C496 C491 1.342 . S
C496 C494 1.285 . S
C496 H515 0.930 . S
C497 C500 1.424 . S
C497 C502 1.245 . S
C497 C503 1.428 . S
C498 C501 1.260 . S
C498 C502 1.477 . S
C498 H516 0.932 . S
C499 C500 1.384 . S
C499 C501 1.479 . S
C499 H517 0.929 . S
C500 C497 1.424 . S
C500 C499 1.384 . S
C500 H518 0.928 . S
C501 C498 1.260 . S
C501 C499 1.479 . S
C502 C497 1.245 . S
C502 C498 1.477 . S
C502 H519 0.932 . S
C503 U486 2.882 . S
C503 C497 1.428 . S
C503 O506 1.301 . S
C503 O507 1.282 . S
O504 U486 2.441 . S
O504 C490 1.249 . S
O505 U486 2.420 . S
O505 C490 1.202 . S
O506 U486 2.455 . S
O506 C503 1.301 . S
O507 U486 2.449 . S
O507 C503 1.282 . S
H508 C481 0.931 . S
H509 C483 0.929 . S
H510 C484 0.930 . S
H511 C485 0.931 . S
H512 C492 0.932 . S
H513 C493 0.930 . S
H514 C494 0.929 . S
H515 C496 0.930 . S
H516 C498 0.932 . S
H517 C499 0.929 . S
H518 C500 0.928 . S
H519 C502 0.932 . S
C520 C521 1.264 . S
C520 C525 1.479 . S
C520 C530 1.465 . S
C521 C520 1.264 . S
C521 C523 1.339 . S
C521 H548 0.931 . S
C522 C523 1.395 . S
C522 C524 1.320 . S
C523 C521 1.339 . S
C523 C522 1.395 . S
C523 H549 0.929 . S
C524 C522 1.320 . S
C524 C525 1.405 . S
C524 H550 0.930 . S
C525 C520 1.479 . S
C525 C524 1.405 . S
C525 H551 0.931 . S
U526 O527 2.454 . S
U526 O528 2.458 . S
U526 C529 2.984 . S
U526 C530 2.847 . S
U526 C543 2.882 . S
U526 O544 2.441 . S
U526 O545 2.420 . S
U526 O546 2.455 . S
U526 O547 2.449 . S
O527 U526 2.454 . S
O527 C529 1.353 . S
O528 U526 2.458 . S
O528 C529 1.286 . S
C529 U526 2.984 . S
C529 O527 1.353 . S
C529 O528 1.286 . S
C529 C531 1.363 1_556 S
C530 C520 1.465 . S
C530 U526 2.847 . S
C530 O544 1.249 . S
C530 O545 1.202 . S
C531 C529 1.363 1_554 S
C531 C533 1.408 . S
C531 C536 1.342 . S
C532 C533 1.310 . S
C532 C535 1.461 . S
C532 H552 0.932 . S
C533 C531 1.408 . S
C533 C532 1.310 . S
C533 H553 0.930 1_554 S
C534 C535 1.474 . S
C534 C536 1.285 . S
C534 H554 0.929 . S
C535 C532 1.461 . S
C535 C534 1.474 . S
C536 C531 1.342 . S
C536 C534 1.285 . S
C536 H555 0.930 . S
C537 C540 1.424 . S
C537 C542 1.245 . S
C537 C543 1.428 . S
C538 C541 1.260 . S
C538 C542 1.477 . S
C538 H556 0.932 1_556 S
C539 C540 1.384 . S
C539 C541 1.479 . S
C539 H557 0.929 . S
C540 C537 1.424 . S
C540 C539 1.384 . S
C540 H558 0.928 . S
C541 C538 1.260 . S
C541 C539 1.479 . S
C542 C537 1.245 . S
C542 C538 1.477 . S
C542 H559 0.932 1_556 S
C543 U526 2.882 . S
C543 C537 1.428 . S
C543 O546 1.301 . S
C543 O547 1.282 . S
O544 U526 2.441 . S
O544 C530 1.249 . S
O545 U526 2.420 . S
O545 C530 1.202 . S
O546 U526 2.455 . S
O546 C543 1.301 . S
O547 U526 2.449 . S
O547 C543 1.282 . S
H548 C521 0.931 . S
H549 C523 0.929 . S
H550 C524 0.930 . S
H551 C525 0.931 . S
H552 C532 0.932 . S
H553 C533 0.930 1_556 S
H554 C534 0.929 . S
H555 C536 0.930 . S
H556 C538 0.932 1_554 S
H557 C539 0.929 . S
H558 C540 0.928 . S
H559 C542 0.932 1_554 S
C560 C561 1.264 . S
C560 C565 1.479 . S
C560 C570 1.465 . S
C561 C560 1.264 . S
C561 C563 1.339 . S
C561 H588 0.931 . S
C562 C563 1.395 . S
C562 C564 1.320 . S
C563 C561 1.339 . S
C563 C562 1.395 . S
C563 H589 0.929 . S
C564 C562 1.320 . S
C564 C565 1.405 . S
C564 H590 0.930 . S
C565 C560 1.479 . S
C565 C564 1.405 . S
C565 H591 0.931 . S
U566 O567 2.454 . S
U566 O568 2.458 . S
U566 C569 2.984 . S
U566 C570 2.847 . S
U566 C583 2.882 . S
U566 O584 2.441 . S
U566 O585 2.420 . S
U566 O586 2.455 . S
U566 O587 2.449 . S
O567 U566 2.454 . S
O567 C569 1.353 . S
O568 U566 2.458 . S
O568 C569 1.286 . S
C569 U566 2.984 . S
C569 O567 1.353 . S
C569 O568 1.286 . S
C569 C571 1.363 . S
C570 C560 1.465 . S
C570 U566 2.847 . S
C570 O584 1.249 . S
C570 O585 1.202 . S
C571 C569 1.363 . S
C571 C573 1.408 . S
C571 C576 1.342 . S
C572 C573 1.310 . S
C572 C575 1.461 . S
C572 H592 0.932 . S
C573 C571 1.408 . S
C573 C572 1.310 . S
C573 H593 0.930 . S
C574 C575 1.474 . S
C574 C576 1.285 . S
C574 H594 0.929 . S
C575 C572 1.461 . S
C575 C574 1.474 . S
C576 C571 1.342 . S
C576 C574 1.285 . S
C576 H595 0.930 . S
C577 C580 1.424 . S
C577 C582 1.245 . S
C577 C583 1.428 . S
C578 C581 1.260 . S
C578 C582 1.477 . S
C578 H596 0.932 . S
C579 C580 1.384 . S
C579 C581 1.479 . S
C579 H597 0.929 . S
C580 C577 1.424 . S
C580 C579 1.384 . S
C580 H598 0.928 . S
C581 C578 1.260 . S
C581 C579 1.479 . S
C582 C577 1.245 . S
C582 C578 1.477 . S
C582 H599 0.932 . S
C583 U566 2.882 . S
C583 C577 1.428 . S
C583 O586 1.301 . S
C583 O587 1.282 . S
O584 U566 2.441 . S
O584 C570 1.249 . S
O585 U566 2.420 . S
O585 C570 1.202 . S
O586 U566 2.455 . S
O586 C583 1.301 . S
O587 U566 2.449 . S
O587 C583 1.282 . S
H588 C561 0.931 . S
H589 C563 0.929 . S
H590 C564 0.930 . S
H591 C565 0.931 . S
H592 C572 0.932 . S
H593 C573 0.930 . S
H594 C574 0.929 . S
H595 C576 0.930 . S
H596 C578 0.932 . S
H597 C579 0.929 . S
H598 C580 0.928 . S
H599 C582 0.932 . S
C600 C601 1.265 . S
C600 C605 1.479 . S
C600 C610 1.465 1_554 S
C601 C600 1.265 . S
C601 C603 1.340 . S
C601 H628 0.929 1_554 S
C602 C603 1.395 . S
C602 C604 1.320 . S
C603 C601 1.340 . S
C603 C602 1.395 . S
C603 H629 0.929 . S
C604 C602 1.320 . S
C604 C605 1.405 . S
C604 H630 0.930 . S
C605 C600 1.479 . S
C605 C604 1.405 . S
C605 H631 0.931 . S
U606 O607 2.454 . S
U606 O608 2.458 . S
U606 C609 2.984 . S
U606 C610 2.847 . S
U606 C623 2.882 . S
U606 O624 2.441 . S
U606 O625 2.420 . S
U606 O626 2.455 . S
U606 O627 2.449 . S
O607 U606 2.454 . S
O607 C609 1.353 . S
O608 U606 2.458 . S
O608 C609 1.286 . S
C609 U606 2.984 . S
C609 O607 1.353 . S
C609 O608 1.286 . S
C609 C611 1.363 . S
C610 C600 1.465 1_556 S
C610 U606 2.847 . S
C610 O624 1.249 . S
C610 O625 1.202 . S
C611 C609 1.363 . S
C611 C613 1.408 . S
C611 C616 1.342 1_545 S
C612 C613 1.310 1_565 S
C612 C615 1.461 . S
C612 H632 0.932 . S
C613 C611 1.408 . S
C613 C612 1.310 1_545 S
C613 H633 0.930 . S
C614 C615 1.474 . S
C614 C616 1.285 . S
C614 H634 0.929 . S
C615 C612 1.461 . S
C615 C614 1.474 . S
C616 C611 1.342 1_565 S
C616 C614 1.285 . S
C616 H635 0.930 . S
C617 C620 1.424 . S
C617 C622 1.245 . S
C617 C623 1.428 . S
C618 C621 1.260 . S
C618 C622 1.477 . S
C618 H636 0.932 . S
C619 C620 1.384 . S
C619 C621 1.479 . S
C619 H637 0.929 . S
C620 C617 1.424 . S
C620 C619 1.384 . S
C620 H638 0.928 . S
C621 C618 1.260 . S
C621 C619 1.479 . S
C622 C617 1.245 . S
C622 C618 1.477 . S
C622 H639 0.932 . S
C623 U606 2.882 . S
C623 C617 1.428 . S
C623 O626 1.301 . S
C623 O627 1.282 . S
O624 U606 2.441 . S
O624 C610 1.249 . S
O625 U606 2.420 . S
O625 C610 1.202 . S
O626 U606 2.455 . S
O626 C623 1.301 . S
O627 U606 2.449 . S
O627 C623 1.282 . S
H628 C601 0.929 1_556 S
H629 C603 0.929 . S
H630 C604 0.930 . S
H631 C605 0.931 . S
H632 C612 0.932 . S
H633 C613 0.930 . S
H634 C614 0.929 . S
H635 C616 0.930 . S
H636 C618 0.932 . S
H637 C619 0.929 . S
H638 C620 0.928 . S
H639 C622 0.932 . S
Zn640 O643 2.031 . S
Zn640 O645 2.049 1_554 S
Zn640 O650 2.067 1_554 S
Zn641 O642 1.962 . S
Zn641 O644 1.986 . S
Zn641 O646 1.996 . S
Zn641 O649 1.943 1_554 S
O642 Zn641 1.962 . S
O642 C647 1.254 . S
O643 Zn640 2.031 . S
O643 C647 1.269 . S
O644 Zn641 1.986 . S
O644 C651 1.262 . S
O645 Zn640 2.049 1_556 S
O645 C653 1.260 . S
O646 Zn641 1.996 . S
O646 C653 1.257 1_554 S
C647 O642 1.254 . S
C647 O643 1.269 . S
C648 O649 1.249 . S
C648 O650 1.270 . S
O649 Zn641 1.943 1_556 S
O649 C648 1.249 . S
O650 Zn640 2.067 1_556 S
O650 C648 1.270 . S
C651 O644 1.262 . S
C651 O652 1.232 . S
O652 C651 1.232 . S
C653 O645 1.260 . S
C653 O646 1.257 1_556 S
Zn654 O657 2.031 . S
Zn654 O659 2.049 . S
Zn654 O664 2.067 . S
Zn655 O656 1.962 . S
Zn655 O658 1.986 . S
Zn655 O660 1.996 . S
Zn655 O663 1.943 . S
O656 Zn655 1.962 . S
O656 C661 1.254 . S
O657 Zn654 2.031 . S
O657 C661 1.269 . S
O658 Zn655 1.986 . S
O658 C665 1.262 . S
O659 Zn654 2.049 . S
O659 C667 1.260 . S
O660 Zn655 1.996 . S
O660 C667 1.257 . S
C661 O656 1.254 . S
C661 O657 1.269 . S
C662 O663 1.249 . S
C662 O664 1.270 . S
O663 Zn655 1.943 . S
O663 C662 1.249 . S
O664 Zn654 2.067 . S
O664 C662 1.270 . S
C665 O658 1.262 . S
C665 O666 1.232 . S
O666 C665 1.232 . S
C667 O659 1.260 . S
C667 O660 1.257 . S
Zn668 O671 2.031 . S
Zn668 O673 2.049 . S
Zn668 O678 2.067 . S
Zn669 O670 1.962 . S
Zn669 O672 1.986 . S
Zn669 O674 1.996 1_554 S
Zn669 O677 1.943 . S
O670 Zn669 1.962 . S
O670 C675 1.254 . S
O671 Zn668 2.031 . S
O671 C675 1.269 1_556 S
O672 Zn669 1.986 . S
O672 C679 1.262 . S
O673 Zn668 2.049 . S
O673 C681 1.260 . S
O674 Zn669 1.996 1_556 S
O674 C681 1.257 . S
C675 O670 1.254 . S
C675 O671 1.269 1_554 S
C676 O677 1.249 1_556 S
C676 O678 1.270 . S
O677 Zn669 1.943 . S
O677 C676 1.249 1_554 S
O678 Zn668 2.067 . S
O678 C676 1.270 . S
C679 O672 1.262 . S
C679 O680 1.232 . S
O680 C679 1.232 . S
C681 O673 1.260 . S
C681 O674 1.257 . S
Zn682 O685 2.031 1_565 S
Zn682 O687 2.049 . S
Zn682 O692 2.068 . S
Zn683 O684 1.962 . S
Zn683 O686 1.986 . S
Zn683 O688 1.996 . S
Zn683 O691 1.943 1_545 S
O684 Zn683 1.962 . S
O684 C689 1.254 . S
O685 Zn682 2.031 1_545 S
O685 C689 1.269 . S
O686 Zn683 1.986 . S
O686 C693 1.262 . S
O687 Zn682 2.049 . S
O687 C695 1.260 . S
O688 Zn683 1.996 . S
O688 C695 1.257 1_545 S
C689 O684 1.254 . S
C689 O685 1.269 . S
C690 O691 1.249 . S
C690 O692 1.270 . S
O691 Zn683 1.943 1_565 S
O691 C690 1.249 . S
O692 Zn682 2.068 . S
O692 C690 1.270 . S
C693 O686 1.262 . S
C693 O694 1.232 . S
O694 C693 1.232 . S
C695 O687 1.260 . S
C695 O688 1.257 1_565 S
Zn696 O699 2.031 . S
Zn696 O701 2.049 . S
Zn696 O706 2.067 . S
Zn697 O698 1.962 . S
Zn697 O700 1.986 . S
Zn697 O702 1.996 . S
Zn697 O705 1.943 . S
O698 Zn697 1.962 . S
O698 C703 1.254 . S
O699 Zn696 2.031 . S
O699 C703 1.269 . S
O700 Zn697 1.986 . S
O700 C707 1.262 . S
O701 Zn696 2.049 . S
O701 C709 1.260 . S
O702 Zn697 1.996 . S
O702 C709 1.257 . S
C703 O698 1.254 . S
C703 O699 1.269 . S
C704 O705 1.249 . S
C704 O706 1.270 . S
O705 Zn697 1.943 . S
O705 C704 1.249 . S
O706 Zn696 2.067 . S
O706 C704 1.270 . S
C707 O700 1.262 . S
C707 O708 1.232 . S
O708 C707 1.232 . S
C709 O701 1.260 . S
C709 O702 1.257 . S
Zn710 O713 2.031 . S
Zn710 O715 2.049 . S
Zn710 O720 2.067 . S
Zn711 O712 1.962 . S
Zn711 O714 1.986 . S
Zn711 O716 1.996 . S
Zn711 O719 1.943 . S
O712 Zn711 1.962 . S
O712 C717 1.254 . S
O713 Zn710 2.031 . S
O713 C717 1.269 . S
O714 Zn711 1.986 . S
O714 C721 1.262 . S
O715 Zn710 2.049 . S
O715 C723 1.260 . S
O716 Zn711 1.996 . S
O716 C723 1.257 . S
C717 O712 1.254 . S
C717 O713 1.269 . S
C718 O719 1.249 . S
C718 O720 1.270 . S
O719 Zn711 1.943 . S
O719 C718 1.249 . S
O720 Zn710 2.067 . S
O720 C718 1.270 . S
C721 O714 1.262 . S
C721 O722 1.232 . S
O722 C721 1.232 . S
C723 O715 1.260 . S
C723 O716 1.257 . S
Zn724 O727 2.031 . S
Zn724 O729 2.049 . S
Zn724 O734 2.067 . S
Zn725 O726 1.962 . S
Zn725 O728 1.986 . S
Zn725 O730 1.996 . S
Zn725 O733 1.943 . S
O726 Zn725 1.962 . S
O726 C731 1.254 . S
O727 Zn724 2.031 . S
O727 C731 1.269 . S
O728 Zn725 1.986 . S
O728 C735 1.262 . S
O729 Zn724 2.049 . S
O729 C737 1.260 . S
O730 Zn725 1.996 . S
O730 C737 1.257 . S
C731 O726 1.254 . S
C731 O727 1.269 . S
C732 O733 1.249 . S
C732 O734 1.270 . S
O733 Zn725 1.943 . S
O733 C732 1.249 . S
O734 Zn724 2.067 . S
O734 C732 1.270 . S
C735 O728 1.262 . S
C735 O736 1.232 . S
O736 C735 1.232 . S
C737 O729 1.260 . S
C737 O730 1.257 . S
Zn738 O741 2.031 . S
Zn738 O743 2.049 . S
Zn738 O748 2.067 . S
Zn739 O740 1.962 . S
Zn739 O742 1.986 . S
Zn739 O744 1.996 1_545 S
Zn739 O747 1.943 . S
O740 Zn739 1.962 . S
O740 C745 1.254 . S
O741 Zn738 2.031 . S
O741 C745 1.269 1_565 S
O742 Zn739 1.986 . S
O742 C749 1.262 . S
O743 Zn738 2.049 . S
O743 C751 1.260 . S
O744 Zn739 1.996 1_565 S
O744 C751 1.257 . S
C745 O740 1.254 . S
C745 O741 1.269 1_545 S
C746 O747 1.249 1_565 S
C746 O748 1.270 . S
O747 Zn739 1.943 . S
O747 C746 1.249 1_545 S
O748 Zn738 2.067 . S
O748 C746 1.270 . S
C749 O742 1.262 . S
C749 O750 1.232 . S
O750 C749 1.232 . S
C751 O743 1.260 . S
C751 O744 1.257 . S
Zn752 O755 2.031 . S
Zn752 O757 2.049 1_455 S
Zn752 O762 2.067 1_455 S
Zn753 O754 1.962 . S
Zn753 O756 1.986 . S
Zn753 O758 1.996 . S
Zn753 O761 1.943 1_455 S
O754 Zn753 1.962 . S
O754 C759 1.254 . S
O755 Zn752 2.031 . S
O755 C759 1.269 . S
O756 Zn753 1.986 . S
O756 C763 1.262 . S
O757 Zn752 2.049 1_655 S
O757 C765 1.260 . S
O758 Zn753 1.996 . S
O758 C765 1.257 1_455 S
C759 O754 1.254 . S
C759 O755 1.269 . S
C760 O761 1.249 . S
C760 O762 1.270 . S
O761 Zn753 1.943 1_655 S
O761 C760 1.249 . S
O762 Zn752 2.067 1_655 S
O762 C760 1.270 . S
C763 O756 1.262 . S
C763 O764 1.232 . S
O764 C763 1.232 . S
C765 O757 1.260 . S
C765 O758 1.257 1_655 S
Zn766 O769 2.031 . S
Zn766 O771 2.049 . S
Zn766 O776 2.067 . S
Zn767 O768 1.962 . S
Zn767 O770 1.986 . S
Zn767 O772 1.996 . S
Zn767 O775 1.943 . S
O768 Zn767 1.962 . S
O768 C773 1.254 . S
O769 Zn766 2.031 . S
O769 C773 1.269 . S
O770 Zn767 1.986 . S
O770 C777 1.262 . S
O771 Zn766 2.049 . S
O771 C779 1.260 . S
O772 Zn767 1.996 . S
O772 C779 1.257 . S
C773 O768 1.254 . S
C773 O769 1.269 . S
C774 O775 1.249 . S
C774 O776 1.270 . S
O775 Zn767 1.943 . S
O775 C774 1.249 . S
O776 Zn766 2.067 . S
O776 C774 1.270 . S
C777 O770 1.262 . S
C777 O778 1.232 . S
O778 C777 1.232 . S
C779 O771 1.260 . S
C779 O772 1.257 . S
Zn780 O783 2.031 . S
Zn780 O785 2.049 . S
Zn780 O790 2.067 . S
Zn781 O782 1.962 . S
Zn781 O784 1.986 . S
Zn781 O786 1.996 1_455 S
Zn781 O789 1.943 . S
O782 Zn781 1.962 . S
O782 C787 1.254 . S
O783 Zn780 2.031 . S
O783 C787 1.269 1_655 S
O784 Zn781 1.986 . S
O784 C791 1.262 . S
O785 Zn780 2.049 . S
O785 C793 1.260 . S
O786 Zn781 1.996 1_655 S
O786 C793 1.257 . S
C787 O782 1.254 . S
C787 O783 1.269 1_455 S
C788 O789 1.249 1_655 S
C788 O790 1.270 . S
O789 Zn781 1.943 . S
O789 C788 1.249 1_455 S
O790 Zn780 2.067 . S
O790 C788 1.270 . S
C791 O784 1.262 . S
C791 O792 1.232 . S
O792 C791 1.232 . S
C793 O785 1.260 . S
C793 O786 1.257 . S
Zn794 O797 2.031 . S
Zn794 O799 2.049 . S
Zn794 O804 2.067 . S
Zn795 O796 1.962 . S
Zn795 O798 1.986 . S
Zn795 O800 1.996 . S
Zn795 O803 1.943 . S
O796 Zn795 1.962 . S
O796 C801 1.254 . S
O797 Zn794 2.031 . S
O797 C801 1.269 . S
O798 Zn795 1.986 . S
O798 C805 1.262 . S
O799 Zn794 2.049 . S
O799 C807 1.260 . S
O800 Zn795 1.996 . S
O800 C807 1.257 . S
C801 O796 1.254 . S
C801 O797 1.269 . S
C802 O803 1.249 . S
C802 O804 1.270 . S
O803 Zn795 1.943 . S
O803 C802 1.249 . S
O804 Zn794 2.067 . S
O804 C802 1.270 . S
C805 O798 1.262 . S
C805 O806 1.232 . S
O806 C805 1.232 . S
C807 O799 1.260 . S
C807 O800 1.257 . S
C808 C809 1.363 . S
C808 C814 1.379 . S
C808 N816 1.356 . S
C809 C808 1.363 . S
C809 C815 1.363 . S
C810 C811 1.363 . S
C810 C815 1.379 . S
C810 N817 1.356 . S
C811 C810 1.363 . S
C811 C814 1.363 . S
N812 C814 1.356 . S
N812 H824 0.984 . S
N812 H825 0.985 . S
N813 C815 1.356 . S
N813 H818 0.984 . S
N813 H819 0.985 . S
C814 C808 1.379 . S
C814 C811 1.363 . S
C814 N812 1.356 . S
C815 C809 1.363 . S
C815 C810 1.379 . S
C815 N813 1.356 . S
N816 C808 1.356 . S
N816 H822 0.984 . S
N816 H823 0.984 . S
N817 C810 1.356 . S
N817 H820 0.984 . S
N817 H821 0.985 . S
H818 N813 0.984 . S
H819 N813 0.985 . S
H820 N817 0.984 . S
H821 N817 0.985 . S
H822 N816 0.984 . S
H823 N816 0.984 . S
H824 N812 0.984 . S
H825 N812 0.985 . S
C826 C827 1.363 . S
C826 C832 1.379 . S
C826 N834 1.356 . S
C827 C826 1.363 . S
C827 C833 1.363 . S
C828 C829 1.363 . S
C828 C833 1.379 . S
C828 N835 1.356 . S
C829 C828 1.363 . S
C829 C832 1.363 . S
N830 C832 1.356 . S
N830 H842 0.984 . S
N830 H843 0.985 . S
N831 C833 1.356 . S
N831 H836 0.984 . S
N831 H837 0.985 . S
C832 C826 1.379 . S
C832 C829 1.363 . S
C832 N830 1.356 . S
C833 C827 1.363 . S
C833 C828 1.379 . S
C833 N831 1.356 . S
N834 C826 1.356 . S
N834 H840 0.984 . S
N834 H841 0.984 . S
N835 C828 1.356 . S
N835 H838 0.984 . S
N835 H839 0.985 . S
H836 N831 0.984 . S
H837 N831 0.985 . S
H838 N835 0.984 . S
H839 N835 0.985 . S
H840 N834 0.984 . S
H841 N834 0.984 . S
H842 N830 0.984 . S
H843 N830 0.985 . S
C844 C845 1.363 . S
C844 C850 1.379 . S
C844 N852 1.356 . S
C845 C844 1.363 . S
C845 C851 1.363 . S
C846 C847 1.363 . S
C846 C851 1.379 . S
C846 N853 1.356 . S
C847 C846 1.363 . S
C847 C850 1.363 . S
N848 C850 1.356 . S
N848 H860 0.984 . S
N848 H861 0.985 . S
N849 C851 1.356 . S
N849 H854 0.984 . S
N849 H855 0.985 . S
C850 C844 1.379 . S
C850 C847 1.363 . S
C850 N848 1.356 . S
C851 C845 1.363 . S
C851 C846 1.379 . S
C851 N849 1.356 . S
N852 C844 1.356 . S
N852 H858 0.984 . S
N852 H859 0.984 . S
N853 C846 1.356 . S
N853 H856 0.984 . S
N853 H857 0.985 . S
H854 N849 0.984 . S
H855 N849 0.985 . S
H856 N853 0.984 . S
H857 N853 0.985 . S
H858 N852 0.984 . S
H859 N852 0.984 . S
H860 N848 0.984 . S
H861 N848 0.985 . S
C862 C863 1.363 . S
C862 C868 1.379 . S
C862 N870 1.356 . S
C863 C862 1.363 . S
C863 C869 1.363 . S
C864 C865 1.363 . S
C864 C869 1.379 . S
C864 N871 1.356 . S
C865 C864 1.363 . S
C865 C868 1.363 . S
N866 C868 1.356 1_545 S
N866 H878 0.984 . S
N866 H879 0.985 . S
N867 C869 1.356 . S
N867 H872 0.984 . S
N867 H873 0.985 . S
C868 C862 1.379 . S
C868 C865 1.363 . S
C868 N866 1.356 1_565 S
C869 C863 1.363 . S
C869 C864 1.379 . S
C869 N867 1.356 . S
N870 C862 1.356 . S
N870 H876 1.007 . S
N870 H877 0.984 . S
N871 C864 1.356 . S
N871 H874 0.984 . S
N871 H875 0.985 . S
H872 N867 0.984 . S
H873 N867 0.985 . S
H874 N871 0.984 . S
H875 N871 0.985 . S
H876 N870 1.007 . S
H877 N870 0.984 . S
H878 N866 0.984 . S
H879 N866 0.985 . S
C880 C881 1.363 . S
C880 C886 1.379 . S
C880 N888 1.356 . S
C881 C880 1.363 . S
C881 C887 1.363 . S
C882 C883 1.363 . S
C882 C887 1.379 . S
C882 N889 1.356 . S
C883 C882 1.363 . S
C883 C886 1.363 . S
N884 C886 1.356 . S
N884 H896 0.984 . S
N884 H897 0.985 . S
N885 C887 1.356 . S
N885 H890 0.984 . S
N885 H891 0.985 . S
C886 C880 1.379 . S
C886 C883 1.363 . S
C886 N884 1.356 . S
C887 C881 1.363 . S
C887 C882 1.379 . S
C887 N885 1.356 . S
N888 C880 1.356 . S
N888 H894 0.984 . S
N888 H895 0.984 . S
N889 C882 1.356 . S
N889 H892 0.984 . S
N889 H893 0.985 . S
H890 N885 0.984 . S
H891 N885 0.985 . S
H892 N889 0.984 . S
H893 N889 0.985 . S
H894 N888 0.984 . S
H895 N888 0.984 . S
H896 N884 0.984 . S
H897 N884 0.985 . S
C898 C899 1.363 . S
C898 C904 1.379 . S
C898 N906 1.356 . S
C899 C898 1.363 . S
C899 C905 1.363 . S
C900 C901 1.363 . S
C900 C905 1.379 . S
C900 N907 1.356 . S
C901 C900 1.363 . S
C901 C904 1.363 . S
N902 C904 1.356 . S
N902 H914 0.984 . S
N902 H915 0.985 . S
N903 C905 1.356 . S
N903 H908 0.984 . S
N903 H909 0.985 . S
C904 C898 1.379 . S
C904 C901 1.363 . S
C904 N902 1.356 . S
C905 C899 1.363 . S
C905 C900 1.379 . S
C905 N903 1.356 . S
N906 C898 1.356 . S
N906 H912 0.984 . S
N906 H913 0.984 . S
N907 C900 1.356 . S
N907 H910 0.984 . S
N907 H911 0.985 . S
H908 N903 0.984 . S
H909 N903 0.985 . S
H910 N907 0.984 . S
H911 N907 0.985 . S
H912 N906 0.984 . S
H913 N906 0.984 . S
H914 N902 0.984 . S
H915 N902 0.985 . S
C916 C917 1.363 . S
C916 C922 1.379 . S
C916 N924 1.356 . S
C917 C916 1.363 . S
C917 C923 1.363 . S
C918 C919 1.363 . S
C918 C923 1.379 . S
C918 N925 1.356 . S
C919 C918 1.363 . S
C919 C922 1.363 . S
N920 C922 1.356 . S
N920 H932 0.984 . S
N920 H933 0.985 . S
N921 C923 1.356 . S
N921 H926 0.984 . S
N921 H927 0.985 . S
C922 C916 1.379 . S
C922 C919 1.363 . S
C922 N920 1.356 . S
C923 C917 1.363 . S
C923 C918 1.379 . S
C923 N921 1.356 . S
N924 C916 1.356 . S
N924 H930 0.984 . S
N924 H931 0.984 . S
N925 C918 1.356 . S
N925 H928 0.984 . S
N925 H929 0.985 . S
H926 N921 0.984 . S
H927 N921 0.985 . S
H928 N925 0.984 . S
H929 N925 0.985 . S
H930 N924 0.984 . S
H931 N924 0.984 . S
H932 N920 0.984 . S
H933 N920 0.985 . S
C934 C935 1.363 . S
C934 C940 1.379 . S
C934 N942 1.356 . S
C935 C934 1.363 . S
C935 C941 1.363 1_565 S
C936 C937 1.363 1_545 S
C936 C941 1.379 . S
C936 N943 1.356 . S
C937 C936 1.363 1_565 S
C937 C940 1.363 . S
N938 C940 1.356 . S
N938 H950 0.984 . S
N938 H951 0.985 . S
N939 C941 1.356 . S
N939 H944 0.984 . S
N939 H945 0.985 . S
C940 C934 1.379 . S
C940 C937 1.363 . S
C940 N938 1.356 . S
C941 C935 1.363 1_545 S
C941 C936 1.379 . S
C941 N939 1.356 . S
N942 C934 1.356 . S
N942 H948 0.984 . S
N942 H949 0.984 . S
N943 C936 1.356 . S
N943 H946 0.984 . S
N943 H947 0.985 . S
H944 N939 0.984 . S
H945 N939 0.985 . S
H946 N943 0.984 . S
H947 N943 0.985 . S
H948 N942 0.984 . S
H949 N942 0.984 . S
H950 N938 0.984 . S
H951 N938 0.985 . S
C952 C953 1.363 . S
C952 C958 1.379 . S
C952 N960 1.356 . S
C953 C952 1.363 . S
C953 C959 1.363 . S
C954 C955 1.363 . S
C954 C959 1.379 . S
C954 N961 1.356 . S
C955 C954 1.363 . S
C955 C958 1.363 . S
N956 C958 1.356 . S
N956 H968 0.984 . S
N956 H969 0.985 . S
N957 C959 1.356 . S
N957 H962 0.984 . S
N957 H963 0.985 . S
C958 C952 1.379 . S
C958 C955 1.363 . S
C958 N956 1.356 . S
C959 C953 1.363 . S
C959 C954 1.379 . S
C959 N957 1.356 . S
N960 C952 1.356 . S
N960 H966 0.984 . S
N960 H967 0.984 . S
N961 C954 1.356 . S
N961 H964 0.984 . S
N961 H965 0.985 . S
H962 N957 0.984 . S
H963 N957 0.985 . S
H964 N961 0.984 . S
H965 N961 0.985 . S
H966 N960 0.984 . S
H967 N960 0.984 . S
H968 N956 0.984 . S
H969 N956 0.985 . S
C970 C971 1.363 . S
C970 C976 1.379 . S
C970 N978 1.356 . S
C971 C970 1.363 . S
C971 C977 1.363 . S
C972 C973 1.363 . S
C972 C977 1.379 . S
C972 N979 1.356 . S
C973 C972 1.363 . S
C973 C976 1.363 . S
N974 C976 1.356 . S
N974 H986 0.984 . S
N974 H987 0.985 . S
N975 C977 1.356 . S
N975 H980 0.984 . S
N975 H981 0.985 . S
C976 C970 1.379 . S
C976 C973 1.363 . S
C976 N974 1.356 . S
C977 C971 1.363 . S
C977 C972 1.379 . S
C977 N975 1.356 . S
N978 C970 1.356 . S
N978 H984 0.984 . S
N978 H985 0.984 . S
N979 C972 1.356 . S
N979 H982 0.984 . S
N979 H983 0.985 . S
H980 N975 0.984 . S
H981 N975 0.985 . S
H982 N979 0.984 . S
H983 N979 0.985 . S
H984 N978 0.984 . S
H985 N978 0.984 . S
H986 N974 0.984 . S
H987 N974 0.985 . S
C988 C989 1.363 . S
C988 C994 1.379 . S
C988 N996 1.356 . S
C989 C988 1.363 . S
C989 C995 1.363 . S
C990 C991 1.363 . S
C990 C995 1.379 . S
C990 N997 1.356 . S
C991 C990 1.363 . S
C991 C994 1.363 . S
N992 C994 1.356 . S
N992 H1004 0.984 . S
N992 H1005 0.985 . S
N993 C995 1.356 . S
N993 H998 0.984 . S
N993 H999 0.985 . S
C994 C988 1.379 . S
C994 C991 1.363 . S
C994 N992 1.356 . S
C995 C989 1.363 . S
C995 C990 1.379 . S
C995 N993 1.356 . S
N996 C988 1.356 . S
N996 H1002 0.984 . S
N996 H1003 0.984 . S
N997 C990 1.356 . S
N997 H1000 0.984 . S
N997 H1001 0.985 . S
H998 N993 0.984 . S
H999 N993 0.985 . S
H1000 N997 0.984 . S
H1001 N997 0.985 . S
H1002 N996 0.984 . S
H1003 N996 0.984 . S
H1004 N992 0.984 . S
H1005 N992 0.985 . S
C1006 C1007 1.363 . S
C1006 C1012 1.379 . S
C1006 N1014 1.356 . S
C1007 C1006 1.363 . S
C1007 C1013 1.363 . S
C1008 C1009 1.363 . S
C1008 C1013 1.379 . S
C1008 N1015 1.356 . S
C1009 C1008 1.363 . S
C1009 C1012 1.363 . S
N1010 C1012 1.356 . S
N1010 H1022 0.984 . S
N1010 H1023 0.985 . S
N1011 C1013 1.356 . S
N1011 H1016 0.984 . S
N1011 H1017 0.985 . S
C1012 C1006 1.379 . S
C1012 C1009 1.363 . S
C1012 N1010 1.356 . S
C1013 C1007 1.363 . S
C1013 C1008 1.379 . S
C1013 N1011 1.356 . S
N1014 C1006 1.356 . S
N1014 H1020 0.984 . S
N1014 H1021 0.984 . S
N1015 C1008 1.356 . S
N1015 H1018 0.984 . S
N1015 H1019 0.985 . S
H1016 N1011 0.984 . S
H1017 N1011 0.985 . S
H1018 N1015 0.984 . S
H1019 N1015 0.985 . S
H1020 N1014 0.984 . S
H1021 N1014 0.984 . S
H1022 N1010 0.984 . S
H1023 N1010 0.985 . S
C1024 C1025 1.363 . S
C1024 C1030 1.379 . S
C1024 N1032 1.356 . S
C1025 C1024 1.363 . S
C1025 C1031 1.363 . S
C1026 C1027 1.363 . S
C1026 C1031 1.379 . S
C1026 N1033 1.356 . S
C1027 C1026 1.363 . S
C1027 C1030 1.363 . S
N1028 C1030 1.356 . S
N1028 H1040 0.984 . S
N1028 H1041 0.985 . S
N1029 C1031 1.356 . S
N1029 H1034 0.984 . S
N1029 H1035 0.985 . S
C1030 C1024 1.379 . S
C1030 C1027 1.363 . S
C1030 N1028 1.356 . S
C1031 C1025 1.363 . S
C1031 C1026 1.379 . S
C1031 N1029 1.356 . S
N1032 C1024 1.356 . S
N1032 H1038 0.984 . S
N1032 H1039 0.984 . S
N1033 C1026 1.356 . S
N1033 H1036 0.984 . S
N1033 H1037 0.985 . S
H1034 N1029 0.984 . S
H1035 N1029 0.985 . S
H1036 N1033 0.984 . S
H1037 N1033 0.985 . S
H1038 N1032 0.984 . S
H1039 N1032 0.984 . S
H1040 N1028 0.984 . S
H1041 N1028 0.985 . S
C1042 C1043 1.363 . S
C1042 C1048 1.379 . S
C1042 N1050 1.356 . S
C1043 C1042 1.363 . S
C1043 C1049 1.363 . S
C1044 C1045 1.363 . S
C1044 C1049 1.379 . S
C1044 N1051 1.356 . S
C1045 C1044 1.363 . S
C1045 C1048 1.363 . S
N1046 C1048 1.356 . S
N1046 H1058 0.984 . S
N1046 H1059 0.985 . S
N1047 C1049 1.356 . S
N1047 H1052 0.984 . S
N1047 H1053 0.985 . S
C1048 C1042 1.379 . S
C1048 C1045 1.363 . S
C1048 N1046 1.356 . S
C1049 C1043 1.363 . S
C1049 C1044 1.379 . S
C1049 N1047 1.356 . S
N1050 C1042 1.356 . S
N1050 H1056 0.984 . S
N1050 H1057 0.984 . S
N1051 C1044 1.356 . S
N1051 H1054 0.984 . S
N1051 H1055 0.985 . S
H1052 N1047 0.984 . S
H1053 N1047 0.985 . S
H1054 N1051 0.984 . S
H1055 N1051 0.985 . S
H1056 N1050 0.984 . S
H1057 N1050 0.984 . S
H1058 N1046 0.984 . S
H1059 N1046 0.985 . S
C1060 C1061 1.363 . S
C1060 C1066 1.379 . S
C1060 N1068 1.356 . S
C1061 C1060 1.363 . S
C1061 C1067 1.363 . S
C1062 C1063 1.363 . S
C1062 C1067 1.379 . S
C1062 N1069 1.356 . S
C1063 C1062 1.363 . S
C1063 C1066 1.363 . S
N1064 C1066 1.356 . S
N1064 H1076 0.984 . S
N1064 H1077 0.985 . S
N1065 C1067 1.356 . S
N1065 H1070 0.984 . S
N1065 H1071 0.985 . S
C1066 C1060 1.379 . S
C1066 C1063 1.363 . S
C1066 N1064 1.356 . S
C1067 C1061 1.363 . S
C1067 C1062 1.379 . S
C1067 N1065 1.356 . S
N1068 C1060 1.356 . S
N1068 H1074 0.984 . S
N1068 H1075 0.984 . S
N1069 C1062 1.356 . S
N1069 H1072 0.984 . S
N1069 H1073 0.985 . S
H1070 N1065 0.984 . S
H1071 N1065 0.985 . S
H1072 N1069 0.984 . S
H1073 N1069 0.985 . S
H1074 N1068 0.984 . S
H1075 N1068 0.984 . S
H1076 N1064 0.984 . S
H1077 N1064 0.985 . S
C1078 C1079 1.363 . S
C1078 C1084 1.379 . S
C1078 N1086 1.356 . S
C1079 C1078 1.363 . S
C1079 C1085 1.363 . S
C1080 C1081 1.363 . S
C1080 C1085 1.379 . S
C1080 N1087 1.356 . S
C1081 C1080 1.363 . S
C1081 C1084 1.363 . S
N1082 C1084 1.356 . S
N1082 H1094 0.984 . S
N1082 H1095 0.985 . S
N1083 C1085 1.356 . S
N1083 H1088 0.984 . S
N1083 H1089 0.985 . S
C1084 C1078 1.379 . S
C1084 C1081 1.363 . S
C1084 N1082 1.356 . S
C1085 C1079 1.363 . S
C1085 C1080 1.379 . S
C1085 N1083 1.356 . S
N1086 C1078 1.356 . S
N1086 H1092 0.984 . S
N1086 H1093 0.984 . S
N1087 C1080 1.356 . S
N1087 H1090 0.984 . S
N1087 H1091 0.985 . S
H1088 N1083 0.984 . S
H1089 N1083 0.985 . S
H1090 N1087 0.984 . S
H1091 N1087 0.985 . S
H1092 N1086 0.984 . S
H1093 N1086 0.984 . S
H1094 N1082 0.984 . S
H1095 N1082 0.985 . S
C1096 C1097 1.363 . S
C1096 C1102 1.379 . S
C1096 N1104 1.356 . S
C1097 C1096 1.363 . S
C1097 C1103 1.363 . S
C1098 C1099 1.363 . S
C1098 C1103 1.379 . S
C1098 N1105 1.356 . S
C1099 C1098 1.363 . S
C1099 C1102 1.363 . S
N1100 C1102 1.356 . S
N1100 H1112 0.984 . S
N1100 H1113 0.985 . S
N1101 C1103 1.356 . S
N1101 H1106 0.984 . S
N1101 H1107 0.985 . S
C1102 C1096 1.379 . S
C1102 C1099 1.363 . S
C1102 N1100 1.356 . S
C1103 C1097 1.363 . S
C1103 C1098 1.379 . S
C1103 N1101 1.356 . S
N1104 C1096 1.356 . S
N1104 H1110 0.984 . S
N1104 H1111 0.984 . S
N1105 C1098 1.356 . S
N1105 H1108 0.984 . S
N1105 H1109 0.985 . S
H1106 N1101 0.984 . S
H1107 N1101 0.985 . S
H1108 N1105 0.984 . S
H1109 N1105 0.985 . S
H1110 N1104 0.984 . S
H1111 N1104 0.984 . S
H1112 N1100 0.984 . S
H1113 N1100 0.985 . S
C1114 C1115 1.363 . S
C1114 C1120 1.379 . S
C1114 N1122 1.356 . S
C1115 C1114 1.363 . S
C1115 C1121 1.363 . S
C1116 C1117 1.363 . S
C1116 C1121 1.379 . S
C1116 N1123 1.356 . S
C1117 C1116 1.363 . S
C1117 C1120 1.363 . S
N1118 C1120 1.356 . S
N1118 H1130 0.984 . S
N1118 H1131 0.985 . S
N1119 C1121 1.356 . S
N1119 H1124 0.984 . S
N1119 H1125 0.985 . S
C1120 C1114 1.379 . S
C1120 C1117 1.363 . S
C1120 N1118 1.356 . S
C1121 C1115 1.363 . S
C1121 C1116 1.379 . S
C1121 N1119 1.356 . S
N1122 C1114 1.356 . S
N1122 H1128 0.984 . S
N1122 H1129 0.984 . S
N1123 C1116 1.356 . S
N1123 H1126 0.984 . S
N1123 H1127 0.985 . S
H1124 N1119 0.984 . S
H1125 N1119 0.985 . S
H1126 N1123 0.984 . S
H1127 N1123 0.985 . S
H1128 N1122 0.984 . S
H1129 N1122 0.984 . S
H1130 N1118 0.984 . S
H1131 N1118 0.985 . S
C1132 C1133 1.363 . S
C1132 C1138 1.379 1_556 S
C1132 N1140 1.356 1_556 S
C1133 C1132 1.363 . S
C1133 C1139 1.363 . S
C1134 C1135 1.363 . S
C1134 C1139 1.379 . S
C1134 N1141 1.356 . S
C1135 C1134 1.363 . S
C1135 C1138 1.363 1_556 S
N1136 C1138 1.356 . S
N1136 H1148 0.984 . S
N1136 H1149 0.985 . S
N1137 C1139 1.356 . S
N1137 H1142 0.984 . S
N1137 H1143 0.985 . S
C1138 C1132 1.379 1_554 S
C1138 C1135 1.363 1_554 S
C1138 N1136 1.356 . S
C1139 C1133 1.363 . S
C1139 C1134 1.379 . S
C1139 N1137 1.356 . S
N1140 C1132 1.356 1_554 S
N1140 H1146 0.984 . S
N1140 H1147 0.984 1_554 S
N1141 C1134 1.356 . S
N1141 H1144 0.984 . S
N1141 H1145 0.985 . S
H1142 N1137 0.984 . S
H1143 N1137 0.985 . S
H1144 N1141 0.984 . S
H1145 N1141 0.985 . S
H1146 N1140 0.984 . S
H1147 N1140 0.984 1_556 S
H1148 N1136 0.984 . S
H1149 N1136 0.985 . S
C1150 C1151 1.363 . S
C1150 C1156 1.379 . S
C1150 N1158 1.356 . S
C1151 C1150 1.363 . S
C1151 C1157 1.363 . S
C1152 C1153 1.363 . S
C1152 C1157 1.379 . S
C1152 N1159 1.356 . S
C1153 C1152 1.363 . S
C1153 C1156 1.363 . S
N1154 C1156 1.356 . S
N1154 H1166 0.984 . S
N1154 H1167 0.985 . S
N1155 C1157 1.356 . S
N1155 H1160 0.984 . S
N1155 H1161 0.985 . S
C1156 C1150 1.379 . S
C1156 C1153 1.363 . S
C1156 N1154 1.356 . S
C1157 C1151 1.363 . S
C1157 C1152 1.379 . S
C1157 N1155 1.356 . S
N1158 C1150 1.356 . S
N1158 H1164 0.984 . S
N1158 H1165 0.984 . S
N1159 C1152 1.356 . S
N1159 H1162 0.984 . S
N1159 H1163 0.985 . S
H1160 N1155 0.984 . S
H1161 N1155 0.985 . S
H1162 N1159 0.984 . S
H1163 N1159 0.985 . S
H1164 N1158 0.984 . S
H1165 N1158 0.984 . S
H1166 N1154 0.984 . S
H1167 N1154 0.985 . S
C1168 C1169 1.363 . S
C1168 C1174 1.379 . S
C1168 N1176 1.356 . S
C1169 C1168 1.363 . S
C1169 C1175 1.363 . S
C1170 C1171 1.363 . S
C1170 C1175 1.379 . S
C1170 N1177 1.356 . S
C1171 C1170 1.363 . S
C1171 C1174 1.363 . S
N1172 C1174 1.356 . S
N1172 H1184 0.984 . S
N1172 H1185 0.985 . S
N1173 C1175 1.356 . S
N1173 H1178 0.984 . S
N1173 H1179 0.985 . S
C1174 C1168 1.379 . S
C1174 C1171 1.363 . S
C1174 N1172 1.356 . S
C1175 C1169 1.363 . S
C1175 C1170 1.379 . S
C1175 N1173 1.356 . S
N1176 C1168 1.356 . S
N1176 H1182 0.984 . S
N1176 H1183 0.984 . S
N1177 C1170 1.356 . S
N1177 H1180 0.984 . S
N1177 H1181 0.985 . S
H1178 N1173 0.984 . S
H1179 N1173 0.985 . S
H1180 N1177 0.984 . S
H1181 N1177 0.985 . S
H1182 N1176 0.984 . S
H1183 N1176 0.984 . S
H1184 N1172 0.984 . S
H1185 N1172 0.985 . S
C1186 C1187 1.363 . S
C1186 C1192 1.379 . S
C1186 N1194 1.356 . S
C1187 C1186 1.363 . S
C1187 C1193 1.363 . S
C1188 C1189 1.363 . S
C1188 C1193 1.379 . S
C1188 N1195 1.356 . S
C1189 C1188 1.363 . S
C1189 C1192 1.363 . S
N1190 C1192 1.356 . S
N1190 H1202 0.984 . S
N1190 H1203 0.985 . S
N1191 C1193 1.356 . S
N1191 H1196 0.984 . S
N1191 H1197 0.985 . S
C1192 C1186 1.379 . S
C1192 C1189 1.363 . S
C1192 N1190 1.356 . S
C1193 C1187 1.363 . S
C1193 C1188 1.379 . S
C1193 N1191 1.356 . S
N1194 C1186 1.356 . S
N1194 H1200 0.984 . S
N1194 H1201 0.984 . S
N1195 C1188 1.356 . S
N1195 H1198 0.984 . S
N1195 H1199 0.985 . S
H1196 N1191 0.984 . S
H1197 N1191 0.985 . S
H1198 N1195 0.984 . S
H1199 N1195 0.985 . S
H1200 N1194 0.984 . S
H1201 N1194 0.984 . S
H1202 N1190 0.984 . S
H1203 N1190 0.985 . S
C1204 C1205 1.363 . S
C1204 C1210 1.379 . S
C1204 N1212 1.356 . S
C1205 C1204 1.363 . S
C1205 C1211 1.363 . S
C1206 C1207 1.363 . S
C1206 C1211 1.379 . S
C1206 N1213 1.356 . S
C1207 C1206 1.363 . S
C1207 C1210 1.363 . S
N1208 C1210 1.356 . S
N1208 H1220 0.984 . S
N1208 H1221 0.985 . S
N1209 C1211 1.356 . S
N1209 H1214 0.984 . S
N1209 H1215 0.985 . S
C1210 C1204 1.379 . S
C1210 C1207 1.363 . S
C1210 N1208 1.356 . S
C1211 C1205 1.363 . S
C1211 C1206 1.379 . S
C1211 N1209 1.356 . S
N1212 C1204 1.356 . S
N1212 H1218 0.984 . S
N1212 H1219 0.984 . S
N1213 C1206 1.356 . S
N1213 H1216 0.984 . S
N1213 H1217 0.985 . S
H1214 N1209 0.984 . S
H1215 N1209 0.985 . S
H1216 N1213 0.984 . S
H1217 N1213 0.985 . S
H1218 N1212 0.984 . S
H1219 N1212 0.984 . S
H1220 N1208 0.984 . S
H1221 N1208 0.985 . S
C1222 C1223 1.363 . S
C1222 C1228 1.379 . S
C1222 N1230 1.356 . S
C1223 C1222 1.363 . S
C1223 C1229 1.363 . S
C1224 C1225 1.363 . S
C1224 C1229 1.379 . S
C1224 N1231 1.356 . S
C1225 C1224 1.363 . S
C1225 C1228 1.363 . S
N1226 C1228 1.356 . S
N1226 H1238 0.984 . S
N1226 H1239 0.985 . S
N1227 C1229 1.356 . S
N1227 H1232 0.984 . S
N1227 H1233 0.985 . S
C1228 C1222 1.379 . S
C1228 C1225 1.363 . S
C1228 N1226 1.356 . S
C1229 C1223 1.363 . S
C1229 C1224 1.379 . S
C1229 N1227 1.356 . S
N1230 C1222 1.356 . S
N1230 H1236 0.984 . S
N1230 H1237 0.984 . S
N1231 C1224 1.356 . S
N1231 H1234 0.984 . S
N1231 H1235 0.985 . S
H1232 N1227 0.984 . S
H1233 N1227 0.985 . S
H1234 N1231 0.984 . S
H1235 N1231 0.985 . S
H1236 N1230 0.984 . S
H1237 N1230 0.984 . S
H1238 N1226 0.984 . S
H1239 N1226 0.985 . S
C1240 C1241 1.363 . S
C1240 C1246 1.379 . S
C1240 N1248 1.356 . S
C1241 C1240 1.363 . S
C1241 C1247 1.363 . S
C1242 C1243 1.363 . S
C1242 C1247 1.379 . S
C1242 N1249 1.356 . S
C1243 C1242 1.363 . S
C1243 C1246 1.363 . S
N1244 C1246 1.356 . S
N1244 H1256 0.984 . S
N1244 H1257 0.985 . S
N1245 C1247 1.356 . S
N1245 H1250 0.984 . S
N1245 H1251 0.985 . S
C1246 C1240 1.379 . S
C1246 C1243 1.363 . S
C1246 N1244 1.356 . S
C1247 C1241 1.363 . S
C1247 C1242 1.379 . S
C1247 N1245 1.356 . S
N1248 C1240 1.356 . S
N1248 H1254 0.984 . S
N1248 H1255 0.984 . S
N1249 C1242 1.356 . S
N1249 H1252 0.984 . S
N1249 H1253 0.985 . S
H1250 N1245 0.984 . S
H1251 N1245 0.985 . S
H1252 N1249 0.984 . S
H1253 N1249 0.985 . S
H1254 N1248 0.984 . S
H1255 N1248 0.984 . S
H1256 N1244 0.984 . S
H1257 N1244 0.985 . S
C1258 C1259 1.363 . S
C1258 C1264 1.379 . S
C1258 N1266 1.356 . S
C1259 C1258 1.363 . S
C1259 C1265 1.363 . S
C1260 C1261 1.363 . S
C1260 C1265 1.379 . S
C1260 N1267 1.356 . S
C1261 C1260 1.363 . S
C1261 C1264 1.363 . S
N1262 C1264 1.356 1_565 S
N1262 H1274 0.984 . S
N1262 H1275 0.985 . S
N1263 C1265 1.356 . S
N1263 H1268 0.984 . S
N1263 H1269 0.985 . S
C1264 C1258 1.379 . S
C1264 C1261 1.363 . S
C1264 N1262 1.356 1_545 S
C1265 C1259 1.363 . S
C1265 C1260 1.379 . S
C1265 N1263 1.356 . S
N1266 C1258 1.356 . S
N1266 H1272 0.984 1_545 S
N1266 H1273 0.984 . S
N1267 C1260 1.356 . S
N1267 H1270 0.984 . S
N1267 H1271 0.985 . S
H1268 N1263 0.984 . S
H1269 N1263 0.985 . S
H1270 N1267 0.984 . S
H1271 N1267 0.985 . S
H1272 N1266 0.984 1_565 S
H1273 N1266 0.984 . S
H1274 N1262 0.984 . S
H1275 N1262 0.985 . S
C1276 C1277 1.363 . S
C1276 C1282 1.379 . S
C1276 N1284 1.356 . S
C1277 C1276 1.363 . S
C1277 C1283 1.363 . S
C1278 C1279 1.363 . S
C1278 C1283 1.379 . S
C1278 N1285 1.356 . S
C1279 C1278 1.363 . S
C1279 C1282 1.363 . S
N1280 C1282 1.356 . S
N1280 H1292 0.984 . S
N1280 H1293 0.985 . S
N1281 C1283 1.356 . S
N1281 H1286 0.984 . S
N1281 H1287 0.985 . S
C1282 C1276 1.379 . S
C1282 C1279 1.363 . S
C1282 N1280 1.356 . S
C1283 C1277 1.363 . S
C1283 C1278 1.379 . S
C1283 N1281 1.356 . S
N1284 C1276 1.356 . S
N1284 H1290 0.984 . S
N1284 H1291 0.984 . S
N1285 C1278 1.356 . S
N1285 H1288 0.984 . S
N1285 H1289 0.985 . S
H1286 N1281 0.984 . S
H1287 N1281 0.985 . S
H1288 N1285 0.984 . S
H1289 N1285 0.985 . S
H1290 N1284 0.984 . S
H1291 N1284 0.984 . S
H1292 N1280 0.984 . S
H1293 N1280 0.985 . S
C1294 C1295 1.363 . S
C1294 C1300 1.379 . S
C1294 N1302 1.356 . S
C1295 C1294 1.363 . S
C1295 C1301 1.363 . S
C1296 C1297 1.363 . S
C1296 C1301 1.379 . S
C1296 N1303 1.356 . S
C1297 C1296 1.363 . S
C1297 C1300 1.363 . S
N1298 C1300 1.356 . S
N1298 H1310 0.984 . S
N1298 H1311 0.985 . S
N1299 C1301 1.356 . S
N1299 H1304 0.984 . S
N1299 H1305 0.985 . S
C1300 C1294 1.379 . S
C1300 C1297 1.363 . S
C1300 N1298 1.356 . S
C1301 C1295 1.363 . S
C1301 C1296 1.379 . S
C1301 N1299 1.356 . S
N1302 C1294 1.356 . S
N1302 H1308 0.984 . S
N1302 H1309 0.984 . S
N1303 C1296 1.356 . S
N1303 H1306 0.984 . S
N1303 H1307 0.985 . S
H1304 N1299 0.984 . S
H1305 N1299 0.985 . S
H1306 N1303 0.984 . S
H1307 N1303 0.985 . S
H1308 N1302 0.984 . S
H1309 N1302 0.984 . S
H1310 N1298 0.984 . S
H1311 N1298 0.985 . S
C1312 C1313 1.363 . S
C1312 C1318 1.379 . S
C1312 N1320 1.356 . S
C1313 C1312 1.363 . S
C1313 C1319 1.363 . S
C1314 C1315 1.363 . S
C1314 C1319 1.379 . S
C1314 N1321 1.356 . S
C1315 C1314 1.363 . S
C1315 C1318 1.363 . S
N1316 C1318 1.356 . S
N1316 H1328 0.984 . S
N1316 H1329 0.985 . S
N1317 C1319 1.356 . S
N1317 H1322 0.984 . S
N1317 H1323 0.985 . S
C1318 C1312 1.379 . S
C1318 C1315 1.363 . S
C1318 N1316 1.356 . S
C1319 C1313 1.363 . S
C1319 C1314 1.379 . S
C1319 N1317 1.356 . S
N1320 C1312 1.356 . S
N1320 H1326 0.984 . S
N1320 H1327 0.984 . S
N1321 C1314 1.356 . S
N1321 H1324 0.984 . S
N1321 H1325 0.985 . S
H1322 N1317 0.984 . S
H1323 N1317 0.985 . S
H1324 N1321 0.984 . S
H1325 N1321 0.985 . S
H1326 N1320 0.984 . S
H1327 N1320 0.984 . S
H1328 N1316 0.984 . S
H1329 N1316 0.985 . S
C1330 C1331 1.337 1_565 S
C1330 C1336 1.382 . S
C1330 N1338 1.375 . S
C1331 C1330 1.337 1_545 S
C1331 C1337 1.363 . S
C1332 C1333 1.363 . S
C1332 C1337 1.379 . S
C1332 N1339 1.356 . S
C1333 C1332 1.363 . S
C1333 C1336 1.363 1_545 S
N1334 C1336 1.356 . S
N1334 H1346 0.984 . S
N1334 H1347 0.985 . S
N1335 C1337 1.356 . S
N1335 H1340 0.984 . S
N1335 H1341 0.985 . S
C1336 C1330 1.382 . S
C1336 C1333 1.363 1_565 S
C1336 N1334 1.356 . S
C1337 C1331 1.363 . S
C1337 C1332 1.379 . S
C1337 N1335 1.356 . S
N1338 C1330 1.375 . S
N1338 H1344 0.984 . S
N1338 H1345 0.984 . S
N1339 C1332 1.356 . S
N1339 H1342 0.984 . S
N1339 H1343 0.985 . S
H1340 N1335 0.984 . S
H1341 N1335 0.985 . S
H1342 N1339 0.984 . S
H1343 N1339 0.985 . S
H1344 N1338 0.984 . S
H1345 N1338 0.984 . S
H1346 N1334 0.984 . S
H1347 N1334 0.985 . S
C1348 C1349 1.363 . S
C1348 C1354 1.379 . S
C1348 N1356 1.356 . S
C1349 C1348 1.363 . S
C1349 C1355 1.363 . S
C1350 C1351 1.363 . S
C1350 C1355 1.379 . S
C1350 N1357 1.356 . S
C1351 C1350 1.363 . S
C1351 C1354 1.363 . S
N1352 C1354 1.356 . S
N1352 H1364 0.984 . S
N1352 H1365 0.985 . S
N1353 C1355 1.356 . S
N1353 H1358 0.984 . S
N1353 H1359 0.985 . S
C1354 C1348 1.379 . S
C1354 C1351 1.363 . S
C1354 N1352 1.356 . S
C1355 C1349 1.363 . S
C1355 C1350 1.379 . S
C1355 N1353 1.356 . S
N1356 C1348 1.356 . S
N1356 H1362 0.984 . S
N1356 H1363 0.984 . S
N1357 C1350 1.356 . S
N1357 H1360 0.984 . S
N1357 H1361 0.985 . S
H1358 N1353 0.984 . S
H1359 N1353 0.985 . S
H1360 N1357 0.984 . S
H1361 N1357 0.985 . S
H1362 N1356 0.984 . S
H1363 N1356 0.984 . S
H1364 N1352 0.984 . S
H1365 N1352 0.985 . S
C1366 C1367 1.363 . S
C1366 C1372 1.379 . S
C1366 N1374 1.356 . S
C1367 C1366 1.363 . S
C1367 C1373 1.363 . S
C1368 C1369 1.363 . S
C1368 C1373 1.379 . S
C1368 N1375 1.356 . S
C1369 C1368 1.363 . S
C1369 C1372 1.363 . S
N1370 C1372 1.356 . S
N1370 H1382 0.984 . S
N1370 H1383 0.985 . S
N1371 C1373 1.356 . S
N1371 H1376 0.984 . S
N1371 H1377 0.985 . S
C1372 C1366 1.379 . S
C1372 C1369 1.363 . S
C1372 N1370 1.356 . S
C1373 C1367 1.363 . S
C1373 C1368 1.379 . S
C1373 N1371 1.356 . S
N1374 C1366 1.356 . S
N1374 H1380 0.984 . S
N1374 H1381 0.984 . S
N1375 C1368 1.356 . S
N1375 H1378 0.984 . S
N1375 H1379 0.985 . S
H1376 N1371 0.984 . S
H1377 N1371 0.985 . S
H1378 N1375 0.984 . S
H1379 N1375 0.985 . S
H1380 N1374 0.984 . S
H1381 N1374 0.984 . S
H1382 N1370 0.984 . S
H1383 N1370 0.985 . S
C1384 C1385 1.363 . S
C1384 C1390 1.379 . S
C1384 N1392 1.356 . S
C1385 C1384 1.363 . S
C1385 C1391 1.363 . S
C1386 C1387 1.363 . S
C1386 C1391 1.379 . S
C1386 N1393 1.356 . S
C1387 C1386 1.363 . S
C1387 C1390 1.363 . S
N1388 C1390 1.356 . S
N1388 H1400 0.984 . S
N1388 H1401 0.985 . S
N1389 C1391 1.356 . S
N1389 H1394 0.984 . S
N1389 H1395 0.985 . S
C1390 C1384 1.379 . S
C1390 C1387 1.363 . S
C1390 N1388 1.356 . S
C1391 C1385 1.363 . S
C1391 C1386 1.379 . S
C1391 N1389 1.356 . S
N1392 C1384 1.356 . S
N1392 H1398 0.984 . S
N1392 H1399 0.984 . S
N1393 C1386 1.356 . S
N1393 H1396 0.984 . S
N1393 H1397 0.985 . S
H1394 N1389 0.984 . S
H1395 N1389 0.985 . S
H1396 N1393 0.984 . S
H1397 N1393 0.985 . S
H1398 N1392 0.984 . S
H1399 N1392 0.984 . S
H1400 N1388 0.984 . S
H1401 N1388 0.985 . S
C1402 C1403 1.363 . S
C1402 C1408 1.379 . S
C1402 N1410 1.356 . S
C1403 C1402 1.363 . S
C1403 C1409 1.363 . S
C1404 C1405 1.363 . S
C1404 C1409 1.379 . S
C1404 N1411 1.356 . S
C1405 C1404 1.363 . S
C1405 C1408 1.363 . S
N1406 C1408 1.356 . S
N1406 H1418 0.984 . S
N1406 H1419 0.985 . S
N1407 C1409 1.356 . S
N1407 H1412 0.984 . S
N1407 H1413 0.985 . S
C1408 C1402 1.379 . S
C1408 C1405 1.363 . S
C1408 N1406 1.356 . S
C1409 C1403 1.363 . S
C1409 C1404 1.379 . S
C1409 N1407 1.356 . S
N1410 C1402 1.356 . S
N1410 H1416 0.984 1_556 S
N1410 H1417 1.000 . S
N1411 C1404 1.356 . S
N1411 H1414 0.984 . S
N1411 H1415 0.985 . S
H1412 N1407 0.984 . S
H1413 N1407 0.985 . S
H1414 N1411 0.984 . S
H1415 N1411 0.985 . S
H1416 N1410 0.984 1_554 S
H1417 N1410 1.000 . S
H1418 N1406 0.984 . S
H1419 N1406 0.985 . S
C1420 C1421 1.363 . S
C1420 C1426 1.379 . S
C1420 N1428 1.356 . S
C1421 C1420 1.363 . S
C1421 C1427 1.363 . S
C1422 C1423 1.363 . S
C1422 C1427 1.379 . S
C1422 N1429 1.356 . S
C1423 C1422 1.363 . S
C1423 C1426 1.363 . S
N1424 C1426 1.356 . S
N1424 H1436 0.984 . S
N1424 H1437 0.985 . S
N1425 C1427 1.356 . S
N1425 H1430 0.984 . S
N1425 H1431 0.985 . S
C1426 C1420 1.379 . S
C1426 C1423 1.363 . S
C1426 N1424 1.356 . S
C1427 C1421 1.363 . S
C1427 C1422 1.379 . S
C1427 N1425 1.356 . S
N1428 C1420 1.356 . S
N1428 H1434 0.984 . S
N1428 H1435 0.984 . S
N1429 C1422 1.356 . S
N1429 H1432 0.984 . S
N1429 H1433 0.985 . S
H1430 N1425 0.984 . S
H1431 N1425 0.985 . S
H1432 N1429 0.984 . S
H1433 N1429 0.985 . S
H1434 N1428 0.984 . S
H1435 N1428 0.984 . S
H1436 N1424 0.984 . S
H1437 N1424 0.985 . S
C1438 C1439 1.363 . S
C1438 C1444 1.379 . S
C1438 N1446 1.356 . S
C1439 C1438 1.363 . S
C1439 C1445 1.363 . S
C1440 C1441 1.363 . S
C1440 C1445 1.379 . S
C1440 N1447 1.356 1_455 S
C1441 C1440 1.363 . S
C1441 C1444 1.363 . S
N1442 C1444 1.356 . S
N1442 H1454 0.984 . S
N1442 H1455 0.985 . S
N1443 C1445 1.356 1_655 S
N1443 H1448 0.980 1_655 S
N1443 H1449 0.985 . S
C1444 C1438 1.379 . S
C1444 C1441 1.363 . S
C1444 N1442 1.356 . S
C1445 C1439 1.363 . S
C1445 C1440 1.379 . S
C1445 N1443 1.356 1_455 S
N1446 C1438 1.356 . S
N1446 H1452 0.984 . S
N1446 H1453 0.984 . S
N1447 C1440 1.356 1_655 S
N1447 H1450 0.984 . S
N1447 H1451 0.985 . S
H1448 N1443 0.980 1_455 S
H1449 N1443 0.985 . S
H1450 N1447 0.984 . S
H1451 N1447 0.985 . S
H1452 N1446 0.984 . S
H1453 N1446 0.984 . S
H1454 N1442 0.984 . S
H1455 N1442 0.985 . S
C1456 C1457 1.363 . S
C1456 C1462 1.379 . S
C1456 N1464 1.356 . S
C1457 C1456 1.363 . S
C1457 C1463 1.363 . S
C1458 C1459 1.363 . S
C1458 C1463 1.379 . S
C1458 N1465 1.356 . S
C1459 C1458 1.363 . S
C1459 C1462 1.363 . S
N1460 C1462 1.356 . S
N1460 H1472 0.984 . S
N1460 H1473 0.985 . S
N1461 C1463 1.356 . S
N1461 H1466 0.984 . S
N1461 H1467 0.985 . S
C1462 C1456 1.379 . S
C1462 C1459 1.363 . S
C1462 N1460 1.356 . S
C1463 C1457 1.363 . S
C1463 C1458 1.379 . S
C1463 N1461 1.356 . S
N1464 C1456 1.356 . S
N1464 H1470 0.984 . S
N1464 H1471 0.984 . S
N1465 C1458 1.356 . S
N1465 H1468 0.984 . S
N1465 H1469 0.985 . S
H1466 N1461 0.984 . S
H1467 N1461 0.985 . S
H1468 N1465 0.984 . S
H1469 N1465 0.985 . S
H1470 N1464 0.984 . S
H1471 N1464 0.984 . S
H1472 N1460 0.984 . S
H1473 N1460 0.985 . S
C1474 C1475 1.363 . S
C1474 C1480 1.379 . S
C1474 N1482 1.356 . S
C1475 C1474 1.363 . S
C1475 C1481 1.363 . S
C1476 C1477 1.363 . S
C1476 C1481 1.379 . S
C1476 N1483 1.356 . S
C1477 C1476 1.363 . S
C1477 C1480 1.363 . S
N1478 C1480 1.356 . S
N1478 H1490 0.984 . S
N1478 H1491 0.985 . S
N1479 C1481 1.356 . S
N1479 H1484 0.984 . S
N1479 H1485 0.985 . S
C1480 C1474 1.379 . S
C1480 C1477 1.363 . S
C1480 N1478 1.356 . S
C1481 C1475 1.363 . S
C1481 C1476 1.379 . S
C1481 N1479 1.356 . S
N1482 C1474 1.356 . S
N1482 H1488 0.984 . S
N1482 H1489 0.984 . S
N1483 C1476 1.356 . S
N1483 H1486 0.984 . S
N1483 H1487 0.985 . S
H1484 N1479 0.984 . S
H1485 N1479 0.985 . S
H1486 N1483 0.984 . S
H1487 N1483 0.985 . S
H1488 N1482 0.984 . S
H1489 N1482 0.984 . S
H1490 N1478 0.984 . S
H1491 N1478 0.985 . S
C1492 C1493 1.363 . S
C1492 C1498 1.379 . S
C1492 N1500 1.356 . S
C1493 C1492 1.363 . S
C1493 C1499 1.363 . S
C1494 C1495 1.363 . S
C1494 C1499 1.379 . S
C1494 N1501 1.356 . S
C1495 C1494 1.363 . S
C1495 C1498 1.363 . S
N1496 C1498 1.356 . S
N1496 H1508 0.984 . S
N1496 H1509 0.985 . S
N1497 C1499 1.356 . S
N1497 H1502 0.984 . S
N1497 H1503 0.985 . S
C1498 C1492 1.379 . S
C1498 C1495 1.363 . S
C1498 N1496 1.356 . S
C1499 C1493 1.363 . S
C1499 C1494 1.379 . S
C1499 N1497 1.356 . S
N1500 C1492 1.356 . S
N1500 H1506 0.984 . S
N1500 H1507 0.984 . S
N1501 C1494 1.356 . S
N1501 H1504 0.984 . S
N1501 H1505 0.985 . S
H1502 N1497 0.984 . S
H1503 N1497 0.985 . S
H1504 N1501 0.984 . S
H1505 N1501 0.985 . S
H1506 N1500 0.984 . S
H1507 N1500 0.984 . S
H1508 N1496 0.984 . S
H1509 N1496 0.985 . S
C1510 C1511 1.363 . S
C1510 C1516 1.379 . S
C1510 N1518 1.356 . S
C1511 C1510 1.363 . S
C1511 C1517 1.363 . S
C1512 C1513 1.363 . S
C1512 C1517 1.379 . S
C1512 N1519 1.356 . S
C1513 C1512 1.363 . S
C1513 C1516 1.363 . S
N1514 C1516 1.356 . S
N1514 H1526 0.984 . S
N1514 H1527 0.985 . S
N1515 C1517 1.356 . S
N1515 H1520 0.984 . S
N1515 H1521 0.985 . S
C1516 C1510 1.379 . S
C1516 C1513 1.363 . S
C1516 N1514 1.356 . S
C1517 C1511 1.363 . S
C1517 C1512 1.379 . S
C1517 N1515 1.356 . S
N1518 C1510 1.356 . S
N1518 H1524 0.984 . S
N1518 H1525 0.984 . S
N1519 C1512 1.356 . S
N1519 H1522 0.984 . S
N1519 H1523 0.985 . S
H1520 N1515 0.984 . S
H1521 N1515 0.985 . S
H1522 N1519 0.984 . S
H1523 N1519 0.985 . S
H1524 N1518 0.984 . S
H1525 N1518 0.984 . S
H1526 N1514 0.984 . S
H1527 N1514 0.985 . S
C1528 C1529 1.363 . S
C1528 C1534 1.379 . S
C1528 N1536 1.356 . S
C1529 C1528 1.363 . S
C1529 C1535 1.363 . S
C1530 C1531 1.363 . S
C1530 C1535 1.379 . S
C1530 N1537 1.356 . S
C1531 C1530 1.363 . S
C1531 C1534 1.363 . S
N1532 C1534 1.356 . S
N1532 H1544 0.984 . S
N1532 H1545 0.985 . S
N1533 C1535 1.356 . S
N1533 H1538 0.984 . S
N1533 H1539 0.985 . S
C1534 C1528 1.379 . S
C1534 C1531 1.363 . S
C1534 N1532 1.356 . S
C1535 C1529 1.363 . S
C1535 C1530 1.379 . S
C1535 N1533 1.356 . S
N1536 C1528 1.356 . S
N1536 H1542 0.984 . S
N1536 H1543 0.984 . S
N1537 C1530 1.356 . S
N1537 H1540 0.984 . S
N1537 H1541 0.985 . S
H1538 N1533 0.984 . S
H1539 N1533 0.985 . S
H1540 N1537 0.984 . S
H1541 N1537 0.985 . S
H1542 N1536 0.984 . S
H1543 N1536 0.984 . S
H1544 N1532 0.984 . S
H1545 N1532 0.985 . S
C1546 C1547 1.363 . S
C1546 C1552 1.379 . S
C1546 N1554 1.356 . S
C1547 C1546 1.363 . S
C1547 C1553 1.363 . S
C1548 C1549 1.363 . S
C1548 C1553 1.379 . S
C1548 N1555 1.356 . S
C1549 C1548 1.363 . S
C1549 C1552 1.363 . S
N1550 C1552 1.356 . S
N1550 H1562 0.984 . S
N1550 H1563 0.985 . S
N1551 C1553 1.356 . S
N1551 H1556 0.984 . S
N1551 H1557 0.985 . S
C1552 C1546 1.379 . S
C1552 C1549 1.363 . S
C1552 N1550 1.356 . S
C1553 C1547 1.363 . S
C1553 C1548 1.379 . S
C1553 N1551 1.356 . S
N1554 C1546 1.356 . S
N1554 H1560 0.984 . S
N1554 H1561 0.984 . S
N1555 C1548 1.356 . S
N1555 H1558 0.984 . S
N1555 H1559 0.985 . S
H1556 N1551 0.984 . S
H1557 N1551 0.985 . S
H1558 N1555 0.984 . S
H1559 N1555 0.985 . S
H1560 N1554 0.984 . S
H1561 N1554 0.984 . S
H1562 N1550 0.984 . S
H1563 N1550 0.985 . S
C1564 C1565 1.363 . S
C1564 C1570 1.379 . S
C1564 N1572 1.356 . S
C1565 C1564 1.363 . S
C1565 C1571 1.363 . S
C1566 C1567 1.363 . S
C1566 C1571 1.379 . S
C1566 N1573 1.356 . S
C1567 C1566 1.363 . S
C1567 C1570 1.363 . S
N1568 C1570 1.356 . S
N1568 H1580 0.984 . S
N1568 H1581 0.985 . S
N1569 C1571 1.356 . S
N1569 H1574 0.984 . S
N1569 H1575 0.985 . S
C1570 C1564 1.379 . S
C1570 C1567 1.363 . S
C1570 N1568 1.356 . S
C1571 C1565 1.363 . S
C1571 C1566 1.379 . S
C1571 N1569 1.356 . S
N1572 C1564 1.356 . S
N1572 H1578 0.984 . S
N1572 H1579 0.984 . S
N1573 C1566 1.356 . S
N1573 H1576 0.984 . S
N1573 H1577 0.985 . S
H1574 N1569 0.984 . S
H1575 N1569 0.985 . S
H1576 N1573 0.984 . S
H1577 N1573 0.985 . S
H1578 N1572 0.984 . S
H1579 N1572 0.984 . S
H1580 N1568 0.984 . S
H1581 N1568 0.985 . S
C1582 C1583 1.363 . S
C1582 C1588 1.379 . S
C1582 N1590 1.356 . S
C1583 C1582 1.363 . S
C1583 C1589 1.363 . S
C1584 C1585 1.363 . S
C1584 C1589 1.379 . S
C1584 N1591 1.356 . S
C1585 C1584 1.363 . S
C1585 C1588 1.363 . S
N1586 C1588 1.356 . S
N1586 H1598 0.984 . S
N1586 H1599 0.985 . S
N1587 C1589 1.356 . S
N1587 H1592 0.984 . S
N1587 H1593 0.985 . S
C1588 C1582 1.379 . S
C1588 C1585 1.363 . S
C1588 N1586 1.356 . S
C1589 C1583 1.363 . S
C1589 C1584 1.379 . S
C1589 N1587 1.356 . S
N1590 C1582 1.356 . S
N1590 H1596 0.984 . S
N1590 H1597 0.984 . S
N1591 C1584 1.356 . S
N1591 H1594 0.984 . S
N1591 H1595 0.985 . S
H1592 N1587 0.984 . S
H1593 N1587 0.985 . S
H1594 N1591 0.984 . S
H1595 N1591 0.985 . S
H1596 N1590 0.984 . S
H1597 N1590 0.984 . S
H1598 N1586 0.984 . S
H1599 N1586 0.985 . S
C1600 C1601 1.363 . S
C1600 C1606 1.379 . S
C1600 N1608 1.356 . S
C1601 C1600 1.363 . S
C1601 C1607 1.363 1_556 S
C1602 C1603 1.363 1_554 S
C1602 C1607 1.379 . S
C1602 N1609 1.356 . S
C1603 C1602 1.363 1_556 S
C1603 C1606 1.363 . S
N1604 C1606 1.356 . S
N1604 H1616 0.984 . S
N1604 H1617 0.985 . S
N1605 C1607 1.356 . S
N1605 H1610 0.984 . S
N1605 H1611 0.985 . S
C1606 C1600 1.379 . S
C1606 C1603 1.363 . S
C1606 N1604 1.356 . S
C1607 C1601 1.363 1_554 S
C1607 C1602 1.379 . S
C1607 N1605 1.356 . S
N1608 C1600 1.356 . S
N1608 H1614 0.984 . S
N1608 H1615 0.984 . S
N1609 C1602 1.356 . S
N1609 H1612 0.984 . S
N1609 H1613 0.985 . S
H1610 N1605 0.984 . S
H1611 N1605 0.985 . S
H1612 N1609 0.984 . S
H1613 N1609 0.985 . S
H1614 N1608 0.984 . S
H1615 N1608 0.984 . S
H1616 N1604 0.984 . S
H1617 N1604 0.985 . S
C1618 C1619 1.363 . S
C1618 C1624 1.379 . S
C1618 N1626 1.356 . S
C1619 C1618 1.363 . S
C1619 C1625 1.363 . S
C1620 C1621 1.363 . S
C1620 C1625 1.379 . S
C1620 N1627 1.356 . S
C1621 C1620 1.363 . S
C1621 C1624 1.363 . S
N1622 C1624 1.356 . S
N1622 H1634 0.984 . S
N1622 H1635 0.985 . S
N1623 C1625 1.356 . S
N1623 H1628 0.984 . S
N1623 H1629 0.985 . S
C1624 C1618 1.379 . S
C1624 C1621 1.363 . S
C1624 N1622 1.356 . S
C1625 C1619 1.363 . S
C1625 C1620 1.379 . S
C1625 N1623 1.356 . S
N1626 C1618 1.356 . S
N1626 H1632 0.984 . S
N1626 H1633 0.984 . S
N1627 C1620 1.356 . S
N1627 H1630 0.984 . S
N1627 H1631 0.985 . S
H1628 N1623 0.984 . S
H1629 N1623 0.985 . S
H1630 N1627 0.984 . S
H1631 N1627 0.985 . S
H1632 N1626 0.984 . S
H1633 N1626 0.984 . S
H1634 N1622 0.984 . S
H1635 N1622 0.985 . S
C1636 C1637 1.363 . S
C1636 C1642 1.379 . S
C1636 N1644 1.356 . S
C1637 C1636 1.363 . S
C1637 C1643 1.363 . S
C1638 C1639 1.363 . S
C1638 C1643 1.379 . S
C1638 N1645 1.356 1_554 S
C1639 C1638 1.363 . S
C1639 C1642 1.363 . S
N1640 C1642 1.356 . S
N1640 H1652 0.984 . S
N1640 H1653 0.985 . S
N1641 C1643 1.355 1_556 S
N1641 H1646 0.983 1_556 S
N1641 H1647 0.988 . S
C1642 C1636 1.379 . S
C1642 C1639 1.363 . S
C1642 N1640 1.356 . S
C1643 C1637 1.363 . S
C1643 C1638 1.379 . S
C1643 N1641 1.355 1_554 S
N1644 C1636 1.356 . S
N1644 H1650 0.984 . S
N1644 H1651 0.984 . S
N1645 C1638 1.356 1_556 S
N1645 H1648 0.984 . S
N1645 H1649 0.985 . S
H1646 N1641 0.983 1_554 S
H1647 N1641 0.988 . S
H1648 N1645 0.984 . S
H1649 N1645 0.985 . S
H1650 N1644 0.984 . S
H1651 N1644 0.984 . S
H1652 N1640 0.984 . S
H1653 N1640 0.985 . S
C1654 C1655 1.363 . S
C1654 C1660 1.379 . S
C1654 N1662 1.356 1_554 S
C1655 C1654 1.363 . S
C1655 C1661 1.363 . S
C1656 C1657 1.363 . S
C1656 C1661 1.379 . S
C1656 N1663 1.356 . S
C1657 C1656 1.363 . S
C1657 C1660 1.363 . S
N1658 C1660 1.356 1_556 S
N1658 H1670 0.984 . S
N1658 H1671 0.985 . S
N1659 C1661 1.356 . S
N1659 H1664 0.984 . S
N1659 H1665 0.985 . S
C1660 C1654 1.379 . S
C1660 C1657 1.363 . S
C1660 N1658 1.356 1_554 S
C1661 C1655 1.363 . S
C1661 C1656 1.379 . S
C1661 N1659 1.356 . S
N1662 C1654 1.356 1_556 S
N1662 H1668 0.984 . S
N1662 H1669 0.984 . S
N1663 C1656 1.356 . S
N1663 H1666 0.984 . S
N1663 H1667 0.985 . S
H1664 N1659 0.984 . S
H1665 N1659 0.985 . S
H1666 N1663 0.984 . S
H1667 N1663 0.985 . S
H1668 N1662 0.984 . S
H1669 N1662 0.984 . S
H1670 N1658 0.984 . S
H1671 N1658 0.985 . S
C811 C648 1.482 . S
C809 C202 1.497 . S
C829 C661 1.507 . S
C827 C261 1.483 . S
C845 C282 1.679 . S
C847 C681 1.537 . S
C865 C695 1.401 . S
C863 C162 1.430 . S
C883 C707 1.498 . S
C881 C402 1.491 . S
C901 C721 1.445 . S
C899 C482 1.437 . S
C917 C442 1.480 . S
C919 C731 1.487 . S
C937 C746 1.527 . S
C935 C381 1.534 . S
C953 C461 1.541 . S
C955 C760 1.526 . S
C973 C779 1.381 . S
C971 C362 1.405 . S
C989 C415 1.459 . S
C991 C759 1.444 . S
C1009 C777 1.453 . S
C1007 C495 1.456 . S
C1025 C301 1.718 . S
C1027 C793 1.576 . S
C1043 C175 1.512 . S
C1045 C787 1.513 . S
C1061 C215 1.485 . S
C1063 C791 1.484 . S
C1079 C242 1.498 . S
C1081 C788 1.507 . S
C1097 C141 1.542 . S
C1099 C690 1.524 . S
C1115 C581 1.519 . S
C1117 C689 1.515 . S
C1135 C653 1.370 . S
C1133 C615 1.421 . S
C1153 C667 1.531 . S
C1151 C335 1.653 . S
C1169 C181 1.571 . S
C1171 C704 1.567 . S
C1189 C749 1.498 . S
C1187 C455 1.501 . S
C1207 C703 1.458 . S
C1205 C375 1.454 . S
C1225 C735 1.485 . S
C1223 C501 1.483 . S
C1243 C732 1.482 . S
C1241 C562 1.497 . S
C1259 C621 1.483 . S
C1261 C745 1.507 . S
C1277 C322 1.679 . S
C1279 C709 1.537 . S
C1297 C723 1.401 . S
C1295 C522 1.430 . S
C1313 C122 1.491 . S
C1315 C679 1.498 . S
C1333 C693 1.445 . S
C1331 C2 1.437 . S
C1351 C647 1.487 . S
C1349 C42 1.480 . S
C1369 C662 1.527 . S
C1367 C101 1.534 . S
C1385 C61 1.541 . S
C1387 C774 1.526 . S
C1403 C82 1.405 . S
C1405 C765 1.381 . S
C1421 C135 1.459 . S
C1423 C773 1.444 . S
C1439 C15 1.456 . S
C1441 C763 1.453 . S
C1459 C807 1.576 . S
C1457 C341 1.718 . S
C1477 C801 1.513 . S
C1475 C535 1.512 . S
C1495 C805 1.483 . S
C1493 C575 1.485 . S
C1511 C602 1.498 . S
C1513 C802 1.507 . S
C1529 C421 1.542 . S
C1531 C718 1.524 . S
C1549 C717 1.515 . S
C1547 C221 1.519 . S
C1567 C737 1.370 . S
C1565 C255 1.421 . S
C1585 C751 1.531 . S
C1583 C295 1.653 . S
C1601 C541 1.571 . S
C1603 C676 1.567 . S
C1621 C665 1.498 . S
C1619 C55 1.501 . S
C1637 C95 1.454 . S
C1639 C675 1.458 . S
C1657 C651 1.485 . S
C1655 C21 1.483 . S
