# Generated by pormake.
# Topology ibd, (4,6)-cn, num edge types: 1
# Building blocks:
#     Node 0, Type 0, BuildingBlock: NAHDIM_clean_sbu_0, # of connection points: 4
#     Node 1, Type 0, BuildingBlock: NAHDIM_clean_sbu_0, # of connection points: 4
#     Node 2, Type 0, BuildingBlock: NAHDIM_clean_sbu_0, # of connection points: 4
#     Node 3, Type 0, BuildingBlock: NAHDIM_clean_sbu_0, # of connection points: 4
#     Node 4, Type 0, BuildingBlock: NAHDIM_clean_sbu_0, # of connection points: 4
#     Node 5, Type 0, BuildingBlock: NAHDIM_clean_sbu_0, # of connection points: 4
#     Node 6, Type 0, BuildingBlock: NAHDIM_clean_sbu_0, # of connection points: 4
#     Node 7, Type 0, BuildingBlock: NAHDIM_clean_sbu_0, # of connection points: 4
#     Node 8, Type 0, BuildingBlock: NAHDIM_clean_sbu_0, # of connection points: 4
#     Node 9, Type 0, BuildingBlock: NAHDIM_clean_sbu_0, # of connection points: 4
#     Node 10, Type 0, BuildingBlock: NAHDIM_clean_sbu_0, # of connection points: 4
#     Node 11, Type 0, BuildingBlock: NAHDIM_clean_sbu_0, # of connection points: 4
#     Node 12, Type 0, BuildingBlock: NAHDIM_clean_sbu_0, # of connection points: 4
#     Node 13, Type 0, BuildingBlock: NAHDIM_clean_sbu_0, # of connection points: 4
#     Node 14, Type 0, BuildingBlock: NAHDIM_clean_sbu_0, # of connection points: 4
#     Node 15, Type 0, BuildingBlock: NAHDIM_clean_sbu_0, # of connection points: 4
#     Node 16, Type 0, BuildingBlock: NAHDIM_clean_sbu_0, # of connection points: 4
#     Node 17, Type 0, BuildingBlock: NAHDIM_clean_sbu_0, # of connection points: 4
#     Node 18, Type 0, BuildingBlock: NAHDIM_clean_sbu_0, # of connection points: 4
#     Node 19, Type 0, BuildingBlock: NAHDIM_clean_sbu_0, # of connection points: 4
#     Node 20, Type 0, BuildingBlock: NAHDIM_clean_sbu_0, # of connection points: 4
#     Node 21, Type 0, BuildingBlock: NAHDIM_clean_sbu_0, # of connection points: 4
#     Node 22, Type 0, BuildingBlock: NAHDIM_clean_sbu_0, # of connection points: 4
#     Node 23, Type 0, BuildingBlock: NAHDIM_clean_sbu_0, # of connection points: 4
#     Node 24, Type 1, BuildingBlock: IZENUY_clean_sbu_0, # of connection points: 6
#     Node 25, Type 1, BuildingBlock: IZENUY_clean_sbu_0, # of connection points: 6
#     Node 26, Type 1, BuildingBlock: IZENUY_clean_sbu_0, # of connection points: 6
#     Node 27, Type 1, BuildingBlock: IZENUY_clean_sbu_0, # of connection points: 6
#     Node 28, Type 1, BuildingBlock: IZENUY_clean_sbu_0, # of connection points: 6
#     Node 29, Type 1, BuildingBlock: IZENUY_clean_sbu_0, # of connection points: 6
#     Node 30, Type 1, BuildingBlock: IZENUY_clean_sbu_0, # of connection points: 6
#     Node 31, Type 1, BuildingBlock: IZENUY_clean_sbu_0, # of connection points: 6
#     Node 32, Type 1, BuildingBlock: IZENUY_clean_sbu_0, # of connection points: 6
#     Node 33, Type 1, BuildingBlock: IZENUY_clean_sbu_0, # of connection points: 6
#     Node 34, Type 1, BuildingBlock: IZENUY_clean_sbu_0, # of connection points: 6
#     Node 35, Type 1, BuildingBlock: IZENUY_clean_sbu_0, # of connection points: 6
#     Node 36, Type 1, BuildingBlock: IZENUY_clean_sbu_0, # of connection points: 6
#     Node 37, Type 1, BuildingBlock: IZENUY_clean_sbu_0, # of connection points: 6
#     Node 38, Type 1, BuildingBlock: IZENUY_clean_sbu_0, # of connection points: 6
#     Node 39, Type 1, BuildingBlock: IZENUY_clean_sbu_0, # of connection points: 6
#     Edge 40, Type (0, 1), BuildingBlock: CIFDUS_clean_linker_0, # of connection points: 2
#     Edge 41, Type (0, 1), BuildingBlock: CIFDUS_clean_linker_0, # of connection points: 2
#     Edge 42, Type (0, 1), BuildingBlock: CIFDUS_clean_linker_0, # of connection points: 2
#     Edge 43, Type (0, 1), BuildingBlock: CIFDUS_clean_linker_0, # of connection points: 2
#     Edge 44, Type (0, 1), BuildingBlock: CIFDUS_clean_linker_0, # of connection points: 2
#     Edge 45, Type (0, 1), BuildingBlock: CIFDUS_clean_linker_0, # of connection points: 2
#     Edge 46, Type (0, 1), BuildingBlock: CIFDUS_clean_linker_0, # of connection points: 2
#     Edge 47, Type (0, 1), BuildingBlock: CIFDUS_clean_linker_0, # of connection points: 2
#     Edge 48, Type (0, 1), BuildingBlock: CIFDUS_clean_linker_0, # of connection points: 2
#     Edge 49, Type (0, 1), BuildingBlock: CIFDUS_clean_linker_0, # of connection points: 2
#     Edge 50, Type (0, 1), BuildingBlock: CIFDUS_clean_linker_0, # of connection points: 2
#     Edge 51, Type (0, 1), BuildingBlock: CIFDUS_clean_linker_0, # of connection points: 2
#     Edge 52, Type (0, 1), BuildingBlock: CIFDUS_clean_linker_0, # of connection points: 2
#     Edge 53, Type (0, 1), BuildingBlock: CIFDUS_clean_linker_0, # of connection points: 2
#     Edge 54, Type (0, 1), BuildingBlock: CIFDUS_clean_linker_0, # of connection points: 2
#     Edge 55, Type (0, 1), BuildingBlock: CIFDUS_clean_linker_0, # of connection points: 2
#     Edge 56, Type (0, 1), BuildingBlock: CIFDUS_clean_linker_0, # of connection points: 2
#     Edge 57, Type (0, 1), BuildingBlock: CIFDUS_clean_linker_0, # of connection points: 2
#     Edge 58, Type (0, 1), BuildingBlock: CIFDUS_clean_linker_0, # of connection points: 2
#     Edge 59, Type (0, 1), BuildingBlock: CIFDUS_clean_linker_0, # of connection points: 2
#     Edge 60, Type (0, 1), BuildingBlock: CIFDUS_clean_linker_0, # of connection points: 2
#     Edge 61, Type (0, 1), BuildingBlock: CIFDUS_clean_linker_0, # of connection points: 2
#     Edge 62, Type (0, 1), BuildingBlock: CIFDUS_clean_linker_0, # of connection points: 2
#     Edge 63, Type (0, 1), BuildingBlock: CIFDUS_clean_linker_0, # of connection points: 2
#     Edge 64, Type (0, 1), BuildingBlock: CIFDUS_clean_linker_0, # of connection points: 2
#     Edge 65, Type (0, 1), BuildingBlock: CIFDUS_clean_linker_0, # of connection points: 2
#     Edge 66, Type (0, 1), BuildingBlock: CIFDUS_clean_linker_0, # of connection points: 2
#     Edge 67, Type (0, 1), BuildingBlock: CIFDUS_clean_linker_0, # of connection points: 2
#     Edge 68, Type (0, 1), BuildingBlock: CIFDUS_clean_linker_0, # of connection points: 2
#     Edge 69, Type (0, 1), BuildingBlock: CIFDUS_clean_linker_0, # of connection points: 2
#     Edge 70, Type (0, 1), BuildingBlock: CIFDUS_clean_linker_0, # of connection points: 2
#     Edge 71, Type (0, 1), BuildingBlock: CIFDUS_clean_linker_0, # of connection points: 2
#     Edge 72, Type (0, 1), BuildingBlock: CIFDUS_clean_linker_0, # of connection points: 2
#     Edge 73, Type (0, 1), BuildingBlock: CIFDUS_clean_linker_0, # of connection points: 2
#     Edge 74, Type (0, 1), BuildingBlock: CIFDUS_clean_linker_0, # of connection points: 2
#     Edge 75, Type (0, 1), BuildingBlock: CIFDUS_clean_linker_0, # of connection points: 2
#     Edge 76, Type (0, 1), BuildingBlock: CIFDUS_clean_linker_0, # of connection points: 2
#     Edge 77, Type (0, 1), BuildingBlock: CIFDUS_clean_linker_0, # of connection points: 2
#     Edge 78, Type (0, 1), BuildingBlock: CIFDUS_clean_linker_0, # of connection points: 2
#     Edge 79, Type (0, 1), BuildingBlock: CIFDUS_clean_linker_0, # of connection points: 2
#     Edge 80, Type (0, 1), BuildingBlock: CIFDUS_clean_linker_0, # of connection points: 2
#     Edge 81, Type (0, 1), BuildingBlock: CIFDUS_clean_linker_0, # of connection points: 2
#     Edge 82, Type (0, 1), BuildingBlock: CIFDUS_clean_linker_0, # of connection points: 2
#     Edge 83, Type (0, 1), BuildingBlock: CIFDUS_clean_linker_0, # of connection points: 2
#     Edge 84, Type (0, 1), BuildingBlock: CIFDUS_clean_linker_0, # of connection points: 2
#     Edge 85, Type (0, 1), BuildingBlock: CIFDUS_clean_linker_0, # of connection points: 2
#     Edge 86, Type (0, 1), BuildingBlock: CIFDUS_clean_linker_0, # of connection points: 2
#     Edge 87, Type (0, 1), BuildingBlock: CIFDUS_clean_linker_0, # of connection points: 2
#     Edge 88, Type (0, 1), BuildingBlock: CIFDUS_clean_linker_0, # of connection points: 2
#     Edge 89, Type (0, 1), BuildingBlock: CIFDUS_clean_linker_0, # of connection points: 2
#     Edge 90, Type (0, 1), BuildingBlock: CIFDUS_clean_linker_0, # of connection points: 2
#     Edge 91, Type (0, 1), BuildingBlock: CIFDUS_clean_linker_0, # of connection points: 2
#     Edge 92, Type (0, 1), BuildingBlock: CIFDUS_clean_linker_0, # of connection points: 2
#     Edge 93, Type (0, 1), BuildingBlock: CIFDUS_clean_linker_0, # of connection points: 2
#     Edge 94, Type (0, 1), BuildingBlock: CIFDUS_clean_linker_0, # of connection points: 2
#     Edge 95, Type (0, 1), BuildingBlock: CIFDUS_clean_linker_0, # of connection points: 2
#     Edge 96, Type (0, 1), BuildingBlock: CIFDUS_clean_linker_0, # of connection points: 2
#     Edge 97, Type (0, 1), BuildingBlock: CIFDUS_clean_linker_0, # of connection points: 2
#     Edge 98, Type (0, 1), BuildingBlock: CIFDUS_clean_linker_0, # of connection points: 2
#     Edge 99, Type (0, 1), BuildingBlock: CIFDUS_clean_linker_0, # of connection points: 2
#     Edge 100, Type (0, 1), BuildingBlock: CIFDUS_clean_linker_0, # of connection points: 2
#     Edge 101, Type (0, 1), BuildingBlock: CIFDUS_clean_linker_0, # of connection points: 2
#     Edge 102, Type (0, 1), BuildingBlock: CIFDUS_clean_linker_0, # of connection points: 2
#     Edge 103, Type (0, 1), BuildingBlock: CIFDUS_clean_linker_0, # of connection points: 2
#     Edge 104, Type (0, 1), BuildingBlock: CIFDUS_clean_linker_0, # of connection points: 2
#     Edge 105, Type (0, 1), BuildingBlock: CIFDUS_clean_linker_0, # of connection points: 2
#     Edge 106, Type (0, 1), BuildingBlock: CIFDUS_clean_linker_0, # of connection points: 2
#     Edge 107, Type (0, 1), BuildingBlock: CIFDUS_clean_linker_0, # of connection points: 2
#     Edge 108, Type (0, 1), BuildingBlock: CIFDUS_clean_linker_0, # of connection points: 2
#     Edge 109, Type (0, 1), BuildingBlock: CIFDUS_clean_linker_0, # of connection points: 2
#     Edge 110, Type (0, 1), BuildingBlock: CIFDUS_clean_linker_0, # of connection points: 2
#     Edge 111, Type (0, 1), BuildingBlock: CIFDUS_clean_linker_0, # of connection points: 2
#     Edge 112, Type (0, 1), BuildingBlock: CIFDUS_clean_linker_0, # of connection points: 2
#     Edge 113, Type (0, 1), BuildingBlock: CIFDUS_clean_linker_0, # of connection points: 2
#     Edge 114, Type (0, 1), BuildingBlock: CIFDUS_clean_linker_0, # of connection points: 2
#     Edge 115, Type (0, 1), BuildingBlock: CIFDUS_clean_linker_0, # of connection points: 2
#     Edge 116, Type (0, 1), BuildingBlock: CIFDUS_clean_linker_0, # of connection points: 2
#     Edge 117, Type (0, 1), BuildingBlock: CIFDUS_clean_linker_0, # of connection points: 2
#     Edge 118, Type (0, 1), BuildingBlock: CIFDUS_clean_linker_0, # of connection points: 2
#     Edge 119, Type (0, 1), BuildingBlock: CIFDUS_clean_linker_0, # of connection points: 2
#     Edge 120, Type (0, 1), BuildingBlock: CIFDUS_clean_linker_0, # of connection points: 2
#     Edge 121, Type (0, 1), BuildingBlock: CIFDUS_clean_linker_0, # of connection points: 2
#     Edge 122, Type (0, 1), BuildingBlock: CIFDUS_clean_linker_0, # of connection points: 2
#     Edge 123, Type (0, 1), BuildingBlock: CIFDUS_clean_linker_0, # of connection points: 2
#     Edge 124, Type (0, 1), BuildingBlock: CIFDUS_clean_linker_0, # of connection points: 2
#     Edge 125, Type (0, 1), BuildingBlock: CIFDUS_clean_linker_0, # of connection points: 2
#     Edge 126, Type (0, 1), BuildingBlock: CIFDUS_clean_linker_0, # of connection points: 2
#     Edge 127, Type (0, 1), BuildingBlock: CIFDUS_clean_linker_0, # of connection points: 2
#     Edge 128, Type (0, 1), BuildingBlock: CIFDUS_clean_linker_0, # of connection points: 2
#     Edge 129, Type (0, 1), BuildingBlock: CIFDUS_clean_linker_0, # of connection points: 2
#     Edge 130, Type (0, 1), BuildingBlock: CIFDUS_clean_linker_0, # of connection points: 2
#     Edge 131, Type (0, 1), BuildingBlock: CIFDUS_clean_linker_0, # of connection points: 2
#     Edge 132, Type (0, 1), BuildingBlock: CIFDUS_clean_linker_0, # of connection points: 2
#     Edge 133, Type (0, 1), BuildingBlock: CIFDUS_clean_linker_0, # of connection points: 2
#     Edge 134, Type (0, 1), BuildingBlock: CIFDUS_clean_linker_0, # of connection points: 2
#     Edge 135, Type (0, 1), BuildingBlock: CIFDUS_clean_linker_0, # of connection points: 2
# Relax obj value: 0.317
# Max RMSD: 0.299
# Mean RMSD: 0.268
data_MOF--net-ibd--node1-NAHDIM_clean_sbu_0--node2-IZENUY_clean_sbu_0--edge1-CIFDUS_clean_linker_0
_symmetry_space_group_name_H-M    P1
_symmetry_Int_Tables_number       1
_symmetry_cell_setting            triclinic
loop_
_symmetry_equiv_pos_as_xyz
'x, y, z'
_cell_length_a     42.720056
_cell_length_b     42.717866
_cell_length_c     42.686453
_cell_angle_alpha  90.820185
_cell_angle_beta   90.795562
_cell_angle_gamma 91.504381
loop_
_atom_site_label
_atom_site_type_symbol
_atom_site_fract_x
_atom_site_fract_y
_atom_site_fract_z
_atom_type_partial_charge
C0 C 0.07497 0.19575 0.39363 0.0
O1 O 0.07947 0.21632 0.41649 0.0
O2 O 0.0173 0.24501 0.42659 0.0
Zn3 Zn 0.00759 0.20592 0.4013 0.0
O4 O 0.98005 0.21604 0.36397 0.0
C5 C 0.9591 0.17945 0.43883 0.0
O6 O 0.94249 0.20024 0.42406 0.0
O7 O 0.04728 0.18793 0.38478 0.0
C8 C 0.96543 0.24154 0.3622 0.0
O9 O 0.96602 0.26091 0.38639 0.0
C10 C 0.03334 0.26894 0.41849 0.0
O11 O 0.04563 0.26986 0.39047 0.0
O12 O 0.98743 0.176 0.43122 0.0
C13 C 0.05533 0.7011 0.66729 0.0
O14 O 0.03737 0.68633 0.64636 0.0
O15 O 0.00688 0.73148 0.60794 0.0
Zn16 Zn 0.02586 0.75669 0.64356 0.0
O17 O 0.99361 0.76975 0.67487 0.0
C18 C 0.03341 0.80603 0.60105 0.0
O19 O 0.00387 0.79778 0.59629 0.0
O20 O 0.05571 0.73087 0.66845 0.0
C21 C 0.96779 0.78364 0.67211 0.0
O22 O 0.95832 0.79308 0.64451 0.0
C23 C 0.9811 0.71606 0.60618 0.0
O24 O 0.9632 0.71409 0.63089 0.0
O25 O 0.04849 0.79299 0.62299 0.0
C26 C 0.51563 0.72259 0.8287 0.0
O27 O 0.49818 0.70796 0.84926 0.0
O28 O 0.52744 0.80921 0.88049 0.0
Zn29 Zn 0.49667 0.77855 0.86164 0.0
O30 O 0.46264 0.80184 0.84038 0.0
C31 C 0.45409 0.74803 0.90619 0.0
O32 O 0.43122 0.76157 0.89112 0.0
O33 O 0.51825 0.75228 0.82988 0.0
C34 C 0.4437 0.78739 0.82176 0.0
O35 O 0.44507 0.75677 0.81915 0.0
C36 C 0.5167 0.82839 0.90032 0.0
O37 O 0.48628 0.82887 0.9044 0.0
O38 O 0.48203 0.75197 0.89709 0.0
C39 C 0.52682 0.21724 0.15261 0.0
O40 O 0.51846 0.20155 0.12703 0.0
O41 O 0.46192 0.22774 0.10332 0.0
Zn42 Zn 0.47621 0.25873 0.13641 0.0
O43 O 0.44317 0.26925 0.16753 0.0
C44 C 0.47748 0.30662 0.09094 0.0
O45 O 0.4506 0.29294 0.08283 0.0
O46 O 0.51215 0.24155 0.16043 0.0
C47 C 0.42678 0.29366 0.16726 0.0
O48 O 0.42895 0.31284 0.14359 0.0
C49 C 0.43415 0.21729 0.09873 0.0
O50 O 0.41189 0.22611 0.11759 0.0
O51 O 0.49227 0.2968 0.11466 0.0
C52 C 0.05859 0.71217 0.1096 0.0
O53 O 0.07585 0.72752 0.13071 0.0
O54 O 0.04287 0.77725 0.15553 0.0
Zn55 Zn 0.01029 0.75507 0.12847 0.0
O56 O 0.99245 0.78448 0.09637 0.0
C57 C 0.97113 0.75585 0.18141 0.0
O58 O 0.98559 0.78329 0.18433 0.0
O59 O 0.03015 0.71945 0.10546 0.0
C60 C 0.96896 0.80152 0.10109 0.0
O61 O 0.95498 0.80051 0.12825 0.0
C62 C 0.05363 0.80497 0.15229 0.0
O63 O 0.04429 0.82149 0.12834 0.0
O64 O 0.97699 0.7386 0.15778 0.0
C65 C 0.56232 0.70688 0.40071 0.0
O66 O 0.54414 0.69012 0.38148 0.0
O67 O 0.50508 0.73636 0.34645 0.0
Zn68 Zn 0.53559 0.76236 0.37281 0.0
O69 O 0.51495 0.79567 0.39795 0.0
C70 C 0.58196 0.76133 0.32845 0.0
O71 O 0.57516 0.73129 0.33081 0.0
O72 O 0.56075 0.73648 0.40138 0.0
C73 C 0.49751 0.81698 0.38764 0.0
O74 O 0.49141 0.81862 0.35747 0.0
C75 C 0.47548 0.73858 0.34609 0.0
O76 O 0.4621 0.75776 0.36578 0.0
O77 O 0.56684 0.78096 0.34445 0.0
C78 C 0.57662 0.20157 0.59755 0.0
O79 O 0.591 0.22226 0.61613 0.0
O80 O 0.54218 0.2519 0.65514 0.0
Zn81 Zn 0.51858 0.22565 0.62298 0.0
O82 O 0.49891 0.25248 0.59011 0.0
C83 C 0.46756 0.21359 0.6632 0.0
O84 O 0.46822 0.24436 0.66363 0.0
O85 O 0.54704 0.19807 0.59885 0.0
C86 C 0.48837 0.28 0.59182 0.0
O87 O 0.48754 0.29462 0.61907 0.0
C88 C 0.55605 0.27816 0.65095 0.0
O89 O 0.55678 0.29014 0.62279 0.0
O90 O 0.48663 0.19939 0.64579 0.0
C91 C 0.06165 0.18582 0.95409 0.0
O92 O 0.0328 0.19467 0.95853 0.0
O93 O 0.01294 0.20055 0.87818 0.0
Zn94 Zn 0.04971 0.22054 0.90128 0.0
O95 O 0.03458 0.25347 0.93137 0.0
C96 C 0.07847 0.26916 0.86471 0.0
O97 O 0.06678 0.28744 0.88634 0.0
O98 O 0.07428 0.19122 0.92788 0.0
C99 C 0.0067 0.26305 0.93177 0.0
O100 O 0.98675 0.25331 0.90982 0.0
C101 C 0.00238 0.17249 0.87721 0.0
O102 O 0.01569 0.15124 0.89449 0.0
O103 O 0.0761 0.23968 0.86775 0.0
C104 C 0.4524 0.96259 0.23351 0.0
O105 O 0.45098 0.99221 0.24197 0.0
O106 O 0.3757 0.92752 0.29593 0.0
Zn107 Zn 0.40438 0.96042 0.27766 0.0
O108 O 0.43283 0.98132 0.3102 0.0
C109 C 0.35306 -0.00034 0.27704 0.0
O110 O 0.35198 0.9882 0.3054 0.0
O111 O 0.43277 0.94306 0.24483 0.0
C112 C 0.43304 0.01072 0.31526 0.0
O113 O 0.41212 0.02773 0.30113 0.0
C114 C 0.37182 0.92473 0.32524 0.0
O115 O 0.39205 0.93857 0.3447 0.0
O116 O 0.37525 0.99197 0.25917 0.0
C117 C 0.29195 0.10548 0.5167 0.0
O118 O 0.29625 0.10974 0.48663 0.0
O119 O 0.27261 0.17851 0.48257 0.0
Zn120 Zn 0.2444 0.14934 0.50594 0.0
O121 O 0.21452 0.12268 0.47984 0.0
C122 C 0.23832 0.19472 0.55311 0.0
O123 O 0.26891 0.19471 0.55029 0.0
O124 O 0.27087 0.12057 0.53052 0.0
C125 C 0.2019 0.12638 0.45307 0.0
O126 O 0.20804 0.15192 0.43727 0.0
C127 C 0.28436 0.18067 0.45551 0.0
O128 O 0.27747 0.1595 0.43372 0.0
O129 O 0.22153 0.17587 0.53631 0.0
C130 C 0.16108 0.93363 0.70488 0.0
O131 O 0.15715 0.93208 0.73531 0.0
O132 O 0.09379 0.95959 0.7464 0.0
Zn133 Zn 0.11887 0.98237 0.71399 0.0
O134 O 0.14761 0.0141 0.73537 0.0
C135 C 0.06231 0.99181 0.67991 0.0
O136 O 0.05696 0.96263 0.68804 0.0
O137 O 0.1453 0.95306 0.68941 0.0
C138 C 0.16898 0.02756 0.71965 0.0
O139 O 0.17125 0.02076 0.68966 0.0
C140 C 0.07505 0.97572 0.76245 0.0
O141 O 0.07434 0.00609 0.75812 0.0
O142 O 0.08869 0.00479 0.68665 0.0
C143 C 0.29379 0.86041 0.05436 0.0
O144 O 0.30803 0.88383 0.04032 0.0
O145 O 0.26262 0.90797 0.99254 0.0
Zn146 Zn 0.23744 0.87905 0.0201 0.0
O147 O 0.21176 0.84838 0.99464 0.0
C148 C 0.19429 0.92645 0.03276 0.0
O149 O 0.19698 0.93037 0.00243 0.0
O150 O 0.26482 0.85494 0.04907 0.0
C151 C 0.22603 0.82671 0.98068 0.0
O152 O 0.25673 0.82615 0.98286 0.0
C153 C 0.26012 0.90838 0.96282 0.0
O154 O 0.24116 0.88808 0.94835 0.0
O155 O 0.20913 0.90477 0.04587 0.0
C156 C 0.20126 0.39498 0.00304 0.0
O157 O 0.20722 0.37186 0.9836 0.0
O158 O 0.2577 0.3372 0.00539 0.0
Zn159 Zn 0.25315 0.37051 0.0386 0.0
O160 O 0.29098 0.39899 0.04319 0.0
C161 C 0.27255 0.33707 0.09121 0.0
O162 O 0.29927 0.34085 0.07667 0.0
O163 O 0.21654 0.39751 0.02875 0.0
C164 C 0.29356 0.42375 0.02724 0.0
O165 O 0.27296 0.42865 0.00482 0.0
C166 C 0.27349 0.3396 0.98051 0.0
O167 O 0.28934 0.36568 0.9751 0.0
O168 O 0.24806 0.34884 0.0795 0.0
C169 C 0.72058 0.18262 0.95049 0.0
O170 O 0.75037 0.18536 0.95843 0.0
O171 O 0.76139 0.10628 0.97105 0.0
Zn172 Zn 0.72577 0.13007 0.98939 0.0
O173 O 0.74128 0.15669 0.02579 0.0
C174 C 0.68695 0.09391 0.03129 0.0
O175 O 0.69702 0.11438 0.05262 0.0
O176 O 0.70492 0.15881 0.95944 0.0
C177 C 0.76568 0.15131 0.04195 0.0
O178 O 0.78181 0.12628 0.03564 0.0
C179 C 0.76654 0.10284 0.942 0.0
O180 O 0.74918 0.11761 0.92164 0.0
O181 O 0.69496 0.09736 0.00302 0.0
C182 C 0.09612 0.54705 0.30718 0.0
O183 O 0.12261 0.55816 0.31937 0.0
O184 O 0.16232 0.49218 0.29324 0.0
Zn185 Zn 0.13234 0.50919 0.26182 0.0
O186 O 0.11289 0.47645 0.23281 0.0
C187 C 0.17886 0.55649 0.24943 0.0
O188 O 0.18377 0.55391 0.27972 0.0
O189 O 0.09641 0.52815 0.28395 0.0
C190 C 0.09758 0.48798 0.21017 0.0
O191 O 0.09857 0.51851 0.20669 0.0
C192 C 0.16814 0.46437 0.30111 0.0
O193 O 0.15219 0.44075 0.28813 0.0
O194 O 0.15654 0.54065 0.23646 0.0
C195 C 0.70944 0.91227 0.43795 0.0
O196 O 0.72314 0.88971 0.42256 0.0
O197 O 0.76815 0.8632 0.46623 0.0
Zn198 Zn 0.74284 0.89076 0.49349 0.0
O199 O 0.76957 0.9221 0.51767 0.0
C200 C 0.73154 0.84607 0.54135 0.0
O201 O 0.76227 0.84741 0.54333 0.0
O202 O 0.71401 0.91542 0.4673 0.0
C203 C 0.7585 0.93395 0.54248 0.0
O204 O 0.73132 0.92349 0.55257 0.0
C205 C 0.79503 0.86886 0.45495 0.0
O206 O 0.80964 0.89568 0.46136 0.0
O207 O 0.71775 0.8634 0.5219 0.0
C208 C 0.838 0.06148 0.21946 0.0
O209 O 0.8366 0.0538 0.18955 0.0
O210 O 0.91828 0.00779 0.25584 0.0
Zn211 Zn 0.8909 0.02092 0.22006 0.0
O212 O 0.86819 0.98406 0.19931 0.0
C213 C 0.94222 0.02459 0.18143 0.0
O214 O 0.94009 0.99447 0.18721 0.0
O215 O 0.85967 0.05074 0.23653 0.0
C216 C 0.86428 0.98202 0.16976 0.0
O217 O 0.87628 0.00405 0.15205 0.0
C218 C 0.91943 0.98075 0.26766 0.0
O219 O 0.89994 0.95848 0.25739 0.0
O220 O 0.92074 0.04211 0.19116 0.0
C221 C 0.22124 0.67468 0.4667 0.0
O222 O 0.24891 0.68107 0.47936 0.0
O223 O 0.25698 0.59755 0.50071 0.0
Zn224 Zn 0.22359 0.62774 0.51244 0.0
O225 O 0.24092 0.661 0.54214 0.0
C226 C 0.17742 0.6068 0.55851 0.0
O227 O 0.18701 0.63111 0.57559 0.0
O228 O 0.20595 0.65061 0.47568 0.0
C229 C 0.26932 0.66257 0.55137 0.0
O230 O 0.28781 0.63938 0.54475 0.0
C231 C 0.28049 0.60131 0.48309 0.0
O232 O 0.28494 0.62793 0.46862 0.0
O233 O 0.18927 0.60216 0.53178 0.0
C234 C 0.34712 0.56792 0.77946 0.0
O235 O 0.37277 0.55612 0.79116 0.0
O236 O 0.4015 0.51956 0.74372 0.0
Zn237 Zn 0.36595 0.53914 0.72065 0.0
O238 O 0.33663 0.50679 0.70102 0.0
C239 C 0.39587 0.55016 0.66418 0.0
O240 O 0.3913 0.51964 0.66252 0.0
O241 O 0.34128 0.56508 0.75026 0.0
C242 C 0.31451 0.49549 0.71727 0.0
O243 O 0.31229 0.5043 0.74676 0.0
C244 C 0.39933 0.49443 0.75915 0.0
O245 O 0.37238 0.479 0.76 0.0
O246 O 0.38477 0.56515 0.68719 0.0
C247 C 0.55511 0.99693 0.81692 0.0
O248 O 0.55279 0.96959 0.80244 0.0
O249 O 0.63316 0.96371 0.7881 0.0
Zn250 Zn 0.6099 0.00271 0.77937 0.0
O251 O 0.58599 0.99599 0.73882 0.0
C252 C 0.64315 0.06349 0.76673 0.0
O253 O 0.61706 0.07398 0.75464 0.0
O254 O 0.57902 0.01444 0.81223 0.0
C255 C 0.59359 0.97497 0.71915 0.0
O256 O 0.61964 0.95991 0.72373 0.0
C257 C 0.63964 0.95284 0.81481 0.0
O258 O 0.62719 0.96542 0.83982 0.0
O259 O 0.64375 0.03585 0.77716 0.0
C260 C 0.82177 0.57217 0.04849 0.0
O261 O 0.81194 0.59663 0.06414 0.0
O262 O 0.82105 0.62798 0.96747 0.0
Zn263 Zn 0.7926 0.60192 0.99452 0.0
O264 O 0.7598 0.57867 0.9678 0.0
C265 C 0.74837 0.64785 0.01418 0.0
O266 O 0.73415 0.63881 0.988 0.0
O267 O 0.81673 0.57022 0.01909 0.0
C268 C 0.73482 0.56743 0.97958 0.0
O269 O 0.73031 0.57098 0.0098 0.0
C270 C 0.80769 0.64279 0.94565 0.0
O271 O 0.77815 0.63612 0.93895 0.0
O272 O 0.77295 0.63408 0.02295 0.0
C273 C 0.87934 0.43861 0.74678 0.0
O274 O 0.85821 0.42164 0.76143 0.0
O275 O 0.82858 0.46566 0.80631 0.0
Zn276 Zn 0.85974 0.49253 0.78447 0.0
O277 O 0.89045 0.51207 0.81466 0.0
C278 C 0.81376 0.53809 0.7696 0.0
O279 O 0.8029 0.53105 0.79735 0.0
O280 O 0.88322 0.46747 0.75366 0.0
C281 C 0.8882 0.53858 0.82813 0.0
O282 O 0.86359 0.55559 0.82272 0.0
C283 C 0.82744 0.46284 0.83585 0.0
O284 O 0.84813 0.47792 0.85387 0.0
O285 O 0.83813 0.52495 0.75991 0.0
C286 C 0.81302 0.35782 0.56714 0.0
O287 O 0.83692 0.37671 0.56129 0.0
O288 O 0.81227 0.41401 0.49907 0.0
Zn289 Zn 0.77763 0.38511 0.51376 0.0
O290 O 0.76215 0.35662 0.47904 0.0
C291 C 0.72697 0.42774 0.50892 0.0
O292 O 0.73284 0.42577 0.47883 0.0
O293 O 0.78848 0.35848 0.55013 0.0
C294 C 0.77762 0.33237 0.47284 0.0
O295 O 0.80357 0.32746 0.4887 0.0
C296 C 0.82726 0.4106 0.47373 0.0
O297 O 0.82299 0.38481 0.45698 0.0
O298 O 0.74288 0.41185 0.52797 0.0
C299 C 0.68154 0.45798 0.21822 0.0
O300 O 0.68623 0.46931 0.24674 0.0
O301 O 0.60814 0.48716 0.25788 0.0
Zn302 Zn 0.63489 0.50277 0.22226 0.0
O303 O 0.66768 0.53364 0.23828 0.0
C304 C 0.58695 0.50758 0.17499 0.0
O305 O 0.58618 0.47697 0.17768 0.0
O306 O 0.65882 0.46801 0.202 0.0
C307 C 0.66643 0.55109 0.26254 0.0
O308 O 0.64076 0.55107 0.27914 0.0
C309 C 0.60706 0.45921 0.26779 0.0
O310 O 0.62465 0.43808 0.25474 0.0
O311 O 0.60687 0.52368 0.19117 0.0
Fe312 Fe 0.16199 0.0988 0.19316 0.0
Fe313 Fe 0.14594 0.16766 0.18225 0.0
O314 O 0.16944 0.13489 0.1743 0.0
Fe315 Fe 0.19999 0.13793 0.14667 0.0
O316 O 0.19666 0.09725 0.13318 0.0
O317 O 0.1547 0.07854 0.15611 0.0
O318 O 0.11975 0.1033 0.19534 0.0
C319 C 0.10166 0.12003 0.17949 0.0
C320 C 0.22812 0.10433 0.19236 0.0
O321 O 0.11044 0.14651 0.16993 0.0
C322 C 0.20278 0.19717 0.17777 0.0
O323 O 0.16829 0.11628 0.23166 0.0
O324 O 0.14023 0.15804 0.2235 0.0
O325 O 0.22946 0.12871 0.17597 0.0
O326 O 0.20305 0.08803 0.19423 0.0
C327 C 0.15239 0.16798 0.11685 0.0
O328 O 0.17955 0.19161 0.19487 0.0
O329 O 0.20866 0.17936 0.15479 0.0
C330 C 0.15437 0.13991 0.24183 0.0
O331 O 0.1475 0.18264 0.14224 0.0
O332 O 0.17223 0.14669 0.11572 0.0
C333 C 0.17336 0.07849 0.13358 0.0
Fe334 Fe 0.10043 0.85948 0.38015 0.0
Fe335 Fe 0.12705 0.91953 0.35115 0.0
O336 O 0.12696 0.89191 0.38166 0.0
Fe337 Fe 0.15368 0.89667 0.41349 0.0
O338 O 0.17114 0.85957 0.40499 0.0
O339 O 0.12701 0.83242 0.39965 0.0
O340 O 0.11598 0.84579 0.34326 0.0
C341 C 0.11646 0.86182 0.3187 0.0
C342 C 0.0979 0.87472 0.44237 0.0
O343 O 0.11477 0.89132 0.3203 0.0
C344 C 0.13764 0.95729 0.40564 0.0
O345 O 0.06915 0.88069 0.36037 0.0
O346 O 0.08678 0.92949 0.35874 0.0
O347 O 0.12735 0.87925 0.4427 0.0
O348 O 0.08306 0.87103 0.41682 0.0
C349 C 0.18977 0.91202 0.36086 0.0
O350 O 0.13946 0.95303 0.37631 0.0
O351 O 0.13799 0.93431 0.42385 0.0
C352 C 0.06426 0.9097 0.35771 0.0
O353 O 0.16707 0.91072 0.34163 0.0
O354 O 0.18504 0.91449 0.39003 0.0
C355 C 0.15653 0.83364 0.40306 0.0
Fe356 Fe 0.37462 0.91353 0.63036 0.0
Fe357 Fe 0.3584 0.88527 0.56574 0.0
O358 O 0.38226 0.88657 0.59991 0.0
Fe359 Fe 0.4134 0.86056 0.60368 0.0
O360 O 0.39644 0.84346 0.63806 0.0
O361 O 0.38753 0.88795 0.66222 0.0
O362 O 0.33581 0.89676 0.63537 0.0
C363 C 0.31507 0.89535 0.61413 0.0
C364 C 0.43825 0.91754 0.63017 0.0
O365 O 0.32252 0.89751 0.5856 0.0
C366 C 0.41936 0.87577 0.54257 0.0
O367 O 0.36041 0.94388 0.60381 0.0
O368 O 0.36943 0.92513 0.55663 0.0
O369 O 0.4387 0.88797 0.62698 0.0
O370 O 0.41299 0.93183 0.62729 0.0
C371 C 0.36452 0.82311 0.57708 0.0
O372 O 0.38984 0.87284 0.53951 0.0
O373 O 0.43202 0.87609 0.56938 0.0
C374 C 0.36504 0.94805 0.57482 0.0
O375 O 0.3461 0.84537 0.57344 0.0
O376 O 0.39362 0.82843 0.58128 0.0
C377 C 0.38968 0.85841 0.66252 0.0
Fe378 Fe 0.38129 0.15716 0.87717 0.0
Fe379 Fe 0.35282 0.09894 0.84368 0.0
O380 O 0.35012 0.12954 0.87186 0.0
Fe381 Fe 0.31629 0.13249 0.89504 0.0
O382 O 0.30803 0.17102 0.88011 0.0
O383 O 0.35604 0.18954 0.88788 0.0
O384 O 0.37742 0.16977 0.83724 0.0
C385 C 0.37883 0.15222 0.81336 0.0
C386 C 0.36545 0.14823 0.93795 0.0
O387 O 0.37545 0.1227 0.81554 0.0
C388 C 0.32555 0.06957 0.89623 0.0
O389 O 0.41239 0.12994 0.86708 0.0
O390 O 0.38787 0.08442 0.86198 0.0
O391 O 0.33703 0.14937 0.92941 0.0
O392 O 0.38674 0.1463 0.91783 0.0
C393 C 0.2914 0.11243 0.83572 0.0
O394 O 0.33078 0.06989 0.86702 0.0
O395 O 0.32291 0.09469 0.91165 0.0
C396 C 0.41278 0.10031 0.86648 0.0
O397 O 0.31789 0.1111 0.8233 0.0
O398 O 0.28913 0.11568 0.86513 0.0
C399 C 0.32717 0.19395 0.88307 0.0
Fe400 Fe 0.56157 0.35465 0.87909 0.0
Fe401 Fe 0.59805 0.41004 0.8514 0.0
O402 O 0.59115 0.38413 0.88259 0.0
Fe403 Fe 0.61418 0.3876 0.9171 0.0
O404 O 0.62844 0.34868 0.91174 0.0
O405 O 0.58259 0.3257 0.90262 0.0
O406 O 0.57993 0.33767 0.84531 0.0
C407 C 0.5853 0.35206 0.82037 0.0
C408 C 0.55342 0.37329 0.93951 0.0
O409 O 0.58605 0.38174 0.82019 0.0
C410 C 0.6083 0.44895 0.90581 0.0
O411 O 0.53553 0.37834 0.85491 0.0
O412 O 0.55892 0.42489 0.85399 0.0
O413 O 0.5829 0.37418 0.94323 0.0
O414 O 0.54136 0.36982 0.9126 0.0
C415 C 0.65769 0.39751 0.8688 0.0
O416 O 0.61195 0.44313 0.87685 0.0
O417 O 0.60136 0.42706 0.92409 0.0
C418 C 0.53449 0.40773 0.85117 0.0
O419 O 0.63735 0.3962 0.84713 0.0
O420 O 0.64976 0.40124 0.89709 0.0
C421 C 0.61171 0.32418 0.9084 0.0
Fe422 Fe 0.86397 0.34657 0.11392 0.0
Fe423 Fe 0.89689 0.37941 0.16978 0.0
O424 O 0.89433 0.34803 0.14244 0.0
Fe425 Fe 0.92226 0.31813 0.14352 0.0
O426 O 0.9349 0.32699 0.10417 0.0
O427 O 0.88745 0.32757 0.08368 0.0
O428 O 0.87679 0.38355 0.09778 0.0
C429 C 0.87897 0.40891 0.11318 0.0
C430 C 0.86526 0.28498 0.1286 0.0
O431 O 0.8812 0.40878 0.14285 0.0
C432 C 0.91224 0.32634 0.20593 0.0
O433 O 0.83498 0.36555 0.13888 0.0
O434 O 0.85849 0.37 0.18481 0.0
O435 O 0.89493 0.28698 0.12903 0.0
O436 O 0.84931 0.3094 0.12818 0.0
C437 C 0.95865 0.37321 0.15703 0.0
O438 O 0.91286 0.35572 0.20173 0.0
O439 O 0.9113 0.30752 0.18286 0.0
C440 C 0.83378 0.36922 0.16835 0.0
O441 O 0.93546 0.39081 0.15641 0.0
O442 O 0.95475 0.34375 0.15824 0.0
C443 C 0.91685 0.32638 0.08049 0.0
Fe444 Fe 0.84477 0.64159 0.41054 0.0
Fe445 Fe 0.90502 0.67225 0.38484 0.0
O446 O 0.87573 0.64197 0.3832 0.0
Fe447 Fe 0.87747 0.61173 0.35431 0.0
O448 O 0.83502 0.60572 0.3506 0.0
O449 O 0.81525 0.64289 0.37966 0.0
O450 O 0.84248 0.68403 0.41351 0.0
C451 C 0.85233 0.70559 0.39597 0.0
C452 C 0.86169 0.57856 0.4065 0.0
O453 O 0.87645 0.70249 0.37969 0.0
C454 C 0.94116 0.62205 0.37151 0.0
O455 O 0.87175 0.64023 0.44362 0.0
O456 O 0.90465 0.67682 0.42747 0.0
O457 O 0.88049 0.58192 0.38417 0.0
O458 O 0.8417 0.59901 0.41248 0.0
C459 C 0.89325 0.66304 0.31975 0.0
O460 O 0.93625 0.64455 0.39008 0.0
O461 O 0.92006 0.61221 0.35254 0.0
C462 C 0.89438 0.65919 0.44878 0.0
O463 O 0.9103 0.67299 0.34247 0.0
O464 O 0.87498 0.63952 0.32251 0.0
C465 C 0.81266 0.62331 0.35738 0.0
Fe466 Fe 0.90172 0.85589 0.87862 0.0
Fe467 Fe 0.84708 0.88142 0.91639 0.0
O468 O 0.87025 0.88187 0.88233 0.0
Fe469 Fe 0.8614 0.90821 0.85197 0.0
O470 O 0.89982 0.92702 0.85547 0.0
O471 O 0.92668 0.88372 0.85726 0.0
O472 O 0.92066 0.87061 0.91438 0.0
C473 C 0.90794 0.87031 0.94082 0.0
C474 C 0.8799 0.85397 0.81818 0.0
O475 O 0.87846 0.86955 0.94291 0.0
C476 C 0.8023 0.88979 0.86822 0.0
O477 O 0.8819 0.82353 0.89916 0.0
O478 O 0.83491 0.84117 0.90858 0.0
O479 O 0.87434 0.88286 0.81987 0.0
O480 O 0.88566 0.83882 0.84259 0.0
C481 C 0.85194 0.94423 0.90738 0.0
O482 O 0.81113 0.89268 0.89649 0.0
O483 O 0.82211 0.89106 0.84652 0.0
C484 C 0.85306 0.8187 0.90447 0.0
O485 O 0.85761 0.92209 0.92582 0.0
O486 O 0.8473 0.93874 0.87841 0.0
C487 C 0.92541 0.91305 0.85338 0.0
Fe488 Fe 0.85125 0.1063 0.69564 0.0
Fe489 Fe 0.82612 0.14639 0.64239 0.0
O490 O 0.85744 0.13539 0.66697 0.0
Fe491 Fe 0.8949 0.15323 0.66259 0.0
O492 O 0.89527 0.16759 0.70274 0.0
O493 O 0.88007 0.12323 0.7239 0.0
O494 O 0.82157 0.1291 0.71489 0.0
C495 C 0.79691 0.13756 0.70111 0.0
C496 C 0.90809 0.08965 0.67286 0.0
O497 O 0.79585 0.13943 0.67156 0.0
C498 C 0.87727 0.1465 0.60107 0.0
O499 O 0.82157 0.08396 0.6725 0.0
O500 O 0.82174 0.10681 0.62666 0.0
O501 O 0.91641 0.11831 0.67309 0.0
O502 O 0.88015 0.08137 0.67821 0.0
C503 C 0.85354 0.2036 0.65445 0.0
O504 O 0.85036 0.15538 0.60855 0.0
O505 O 0.89716 0.14008 0.62197 0.0
C506 C 0.81683 0.08298 0.64318 0.0
O507 O 0.82902 0.18662 0.65652 0.0
O508 O 0.88001 0.19135 0.65121 0.0
C509 C 0.89248 0.15042 0.72638 0.0
Fe510 Fe 0.64301 0.11438 0.3307 0.0
Fe511 Fe 0.67854 0.14118 0.38805 0.0
O512 O 0.64695 0.14271 0.36112 0.0
Fe513 Fe 0.61901 0.17217 0.36492 0.0
O514 O 0.62764 0.18693 0.32642 0.0
O515 O 0.62464 0.14092 0.30284 0.0
O516 O 0.68031 0.12616 0.31458 0.0
C517 C 0.7058 0.12561 0.32975 0.0
C518 C 0.58248 0.11811 0.34928 0.0
O519 O 0.706 0.12517 0.35947 0.0
C520 C 0.62759 0.15659 0.42609 0.0
O521 O 0.66045 0.08264 0.35313 0.0
O522 O 0.6659 0.10277 0.4005 0.0
O523 O 0.58588 0.14766 0.34989 0.0
O524 O 0.60564 0.10094 0.3453 0.0
C525 C 0.67675 0.2039 0.37992 0.0
O526 O 0.65683 0.15681 0.42155 0.0
O527 O 0.6086 0.15887 0.40347 0.0
C528 C 0.66201 0.07935 0.38253 0.0
O529 O 0.69268 0.17963 0.37725 0.0
O530 O 0.6471 0.20189 0.3809 0.0
C531 C 0.62466 0.17056 0.3017 0.0
Fe532 Fe 0.62013 0.82894 0.11369 0.0
Fe533 Fe 0.67222 0.86566 0.08078 0.0
O534 O 0.64982 0.85854 0.11456 0.0
Fe535 Fe 0.65672 0.88101 0.14901 0.0
O536 O 0.61684 0.89471 0.14888 0.0
O537 O 0.59469 0.84827 0.14192 0.0
O538 O 0.59919 0.84896 0.08322 0.0
C539 C 0.61076 0.85587 0.05713 0.0
C540 C 0.64628 0.81938 0.17094 0.0
O541 O 0.6401 0.85525 0.05313 0.0
C542 C 0.71683 0.87418 0.13056 0.0
O543 O 0.63978 0.80396 0.08523 0.0
O544 O 0.68655 0.82586 0.08067 0.0
O545 O 0.64706 0.84882 0.17513 0.0
O546 O 0.63957 0.80755 0.14436 0.0
C547 C 0.66169 0.92549 0.10101 0.0
O548 O 0.70807 0.87802 0.10242 0.0
O549 O 0.69697 0.86899 0.15152 0.0
C550 C 0.6685 0.802 0.07886 0.0
O551 O 0.65915 0.90562 0.07889 0.0
O552 O 0.66757 0.91705 0.12871 0.0
C553 C 0.59288 0.87689 0.14948 0.0
Fe554 Fe 0.41483 0.67255 0.12559 0.0
Fe555 Fe 0.34962 0.64747 0.10618 0.0
O556 O 0.38532 0.64283 0.12669 0.0
Fe557 Fe 0.39153 0.60868 0.14849 0.0
O558 O 0.42533 0.59914 0.12555 0.0
O559 O 0.44775 0.64572 0.12988 0.0
O560 O 0.41813 0.66806 0.08344 0.0
C561 C 0.39536 0.67146 0.06465 0.0
C562 C 0.41707 0.65737 0.18725 0.0
O563 O 0.36739 0.66966 0.07416 0.0
C564 C 0.3307 0.61966 0.16291 0.0
O565 O 0.38761 0.70491 0.12112 0.0
O566 O 0.34152 0.68276 0.12829 0.0
O567 O 0.41576 0.62873 0.17903 0.0
O568 O 0.41271 0.67866 0.1676 0.0
C569 C 0.36007 0.58595 0.09348 0.0
O570 O 0.32547 0.62591 0.13443 0.0
O571 O 0.35823 0.61612 0.17291 0.0
C572 C 0.35885 0.70705 0.12747 0.0
O573 O 0.3555 0.61274 0.08271 0.0
O574 O 0.3684 0.58262 0.12184 0.0
C575 C 0.44956 0.61651 0.12465 0.0
Fe576 Fe 0.12093 0.57811 0.86159 0.0
Fe577 Fe 0.15712 0.60383 0.91915 0.0
O578 O 0.12553 0.60607 0.89226 0.0
Fe579 Fe 0.09846 0.63628 0.89585 0.0
O580 O 0.10825 0.65096 0.85764 0.0
O581 O 0.10321 0.60531 0.83367 0.0
O582 O 0.15809 0.58976 0.84568 0.0
C583 C 0.18375 0.5904 0.86053 0.0
C584 C 0.06069 0.58319 0.87977 0.0
O585 O 0.18449 0.58808 0.89015 0.0
C586 C 0.10603 0.62129 0.95704 0.0
O587 O 0.13805 0.54587 0.88367 0.0
O588 O 0.14423 0.56534 0.93124 0.0
O589 O 0.06506 0.61265 0.8803 0.0
O590 O 0.08335 0.56528 0.87611 0.0
C591 C 0.15653 0.6667 0.91069 0.0
O592 O 0.1353 0.61964 0.95272 0.0
O593 O 0.08732 0.6232 0.93415 0.0
C594 C 0.14075 0.54207 0.91297 0.0
O595 O 0.17195 0.6421 0.90868 0.0
O596 O 0.12694 0.66532 0.91223 0.0
C597 C 0.10579 0.63493 0.83269 0.0
Fe598 Fe 0.12431 0.38374 0.60987 0.0
Fe599 Fe 0.07064 0.3484 0.64213 0.0
O600 O 0.09595 0.38163 0.63949 0.0
Fe601 Fe 0.09274 0.41272 0.66681 0.0
O602 O 0.13223 0.40766 0.68085 0.0
O603 O 0.15365 0.40553 0.63434 0.0
O604 O 0.14234 0.34827 0.62304 0.0
C605 C 0.12814 0.32214 0.62469 0.0
C606 C 0.10594 0.44428 0.61034 0.0
O607 O 0.09863 0.3206 0.62654 0.0
C608 C 0.03131 0.39881 0.65585 0.0
O609 O 0.0998 0.36229 0.58047 0.0
O610 O 0.05444 0.35498 0.60351 0.0
O611 O 0.1053 0.44354 0.63992 0.0
O612 O 0.10836 0.41936 0.59453 0.0
C613 C 0.08518 0.35909 0.7037 0.0
O614 O 0.03773 0.37013 0.65799 0.0
O615 O 0.05294 0.41933 0.65413 0.0
C616 C 0.0705 0.35653 0.57895 0.0
O617 O 0.08575 0.33995 0.68094 0.0
O618 O 0.08004 0.38771 0.69907 0.0
C619 C 0.15611 0.40873 0.66389 0.0
Fe620 Fe 0.66627 0.62655 0.60377 0.0
Fe621 Fe 0.62002 0.59933 0.65103 0.0
O622 O 0.62993 0.62748 0.62279 0.0
Fe623 Fe 0.60301 0.65644 0.61311 0.0
O624 O 0.60003 0.64151 0.57352 0.0
O625 O 0.65084 0.64097 0.5662 0.0
O626 O 0.65767 0.5878 0.58843 0.0
C627 C 0.65076 0.56427 0.60451 0.0
C628 C 0.66147 0.68926 0.61122 0.0
O629 O 0.64191 0.5674 0.63258 0.0
C630 C 0.59779 0.65621 0.67623 0.0
O631 O 0.6877 0.6116 0.63799 0.0
O632 O 0.65292 0.61142 0.67546 0.0
O633 O 0.63296 0.68614 0.60288 0.0
O634 O 0.67704 0.66556 0.61778 0.0
C635 C 0.56424 0.60287 0.62033 0.0
O636 O 0.59667 0.62646 0.67465 0.0
O637 O 0.60474 0.67215 0.65255 0.0
C638 C 0.68097 0.61182 0.66687 0.0
O639 O 0.58639 0.58557 0.62803 0.0
O640 O 0.56799 0.63234 0.62129 0.0
C641 C 0.62297 0.63854 0.55564 0.0
Fe642 Fe 0.42247 0.37287 0.38198 0.0
Fe643 Fe 0.3888 0.43326 0.36505 0.0
O644 O 0.39417 0.40123 0.39037 0.0
Fe645 Fe 0.37069 0.39729 0.42397 0.0
O646 O 0.37046 0.35452 0.42398 0.0
O647 O 0.39292 0.34142 0.38002 0.0
O648 O 0.41799 0.37539 0.33953 0.0
C649 C 0.39566 0.38512 0.32288 0.0
C650 C 0.4264 0.38008 0.4486 0.0
O651 O 0.37918 0.40743 0.33199 0.0
C652 C 0.3819 0.46314 0.42089 0.0
O653 O 0.45413 0.40209 0.38279 0.0
O654 O 0.42993 0.4365 0.3539 0.0
O655 O 0.40472 0.39957 0.44993 0.0
O656 O 0.43156 0.36522 0.42331 0.0
C657 C 0.32711 0.41507 0.38104 0.0
O658 O 0.39776 0.46153 0.39625 0.0
O659 O 0.36645 0.43942 0.43019 0.0
C660 C 0.45476 0.42621 0.36604 0.0
O661 O 0.34664 0.43553 0.37166 0.0
O662 O 0.33516 0.39433 0.40002 0.0
C663 C 0.37499 0.33485 0.40226 0.0
H664 H 0.08953 0.13864 0.37099 0.0
H665 H 0.11678 0.23641 0.36865 0.0
H666 H 0.1485 0.22687 0.3224 0.0
H667 H 0.15982 0.19242 0.2774 0.0
H668 H 0.13483 0.09417 0.28095 0.0
H669 H 0.11149 0.10185 0.33246 0.0
C670 C 0.10331 0.15755 0.36088 0.0
C671 C 0.10069 0.18817 0.37268 0.0
C672 C 0.12152 0.15185 0.33441 0.0
C673 C 0.11864 0.21263 0.35981 0.0
C674 C 0.1365 0.20724 0.33323 0.0
C675 C 0.15006 0.17263 0.28998 0.0
C676 C 0.14846 0.14295 0.2755 0.0
C677 C 0.13684 0.17724 0.31951 0.0
C678 C 0.13617 0.11725 0.29185 0.0
C679 C 0.12263 0.12168 0.32111 0.0
H680 H 0.00789 0.83304 0.55003 0.0
H681 H 0.0961 0.82164 0.59852 0.0
H682 H 0.12385 0.84527 0.55465 0.0
H683 H 0.12333 0.86342 0.50007 0.0
H684 H 0.03485 0.87222 0.45123 0.0
H685 H 0.00701 0.85546 0.49778 0.0
C686 C 0.03316 0.8361 0.55129 0.0
C687 C 0.04989 0.8252 0.57741 0.0
C688 C 0.04898 0.84894 0.52572 0.0
C689 C 0.08262 0.82965 0.57866 0.0
C690 C 0.09853 0.84303 0.55349 0.0
C691 C 0.09794 0.86214 0.49976 0.0
C692 C 0.08125 0.86869 0.47201 0.0
C693 C 0.08201 0.85187 0.5265 0.0
C694 C 0.04833 0.86695 0.47209 0.0
C695 C 0.03236 0.85737 0.49873 0.0
H696 H 0.41155 0.76453 0.77089 0.0
H697 H 0.43579 0.85068 0.82061 0.0
H698 H 0.41637 0.8809 0.77666 0.0
H699 H 0.4005 0.88257 0.72114 0.0
H700 H 0.37954 0.79609 0.67069 0.0
H701 H 0.38934 0.76635 0.71797 0.0
C702 C 0.41198 0.78991 0.77243 0.0
C703 C 0.42565 0.80531 0.7987 0.0
C704 C 0.40174 0.80712 0.74672 0.0
C705 C 0.42576 0.83822 0.80043 0.0
C706 C 0.41477 0.85555 0.77526 0.0
C707 C 0.39743 0.85728 0.7207 0.0
C708 C 0.38991 0.8415 0.69239 0.0
C709 C 0.40396 0.84022 0.74778 0.0
C710 C 0.38588 0.80872 0.69214 0.0
C711 C 0.39147 0.79169 0.71915 0.0
H712 H 0.37682 0.19644 0.07756 0.0
H713 H 0.47505 0.19663 0.05501 0.0
H714 H 0.46269 0.17234 0.00422 0.0
H715 H 0.42376 0.15586 0.96421 0.0
H716 H 0.32545 0.15649 0.98645 0.0
H717 H 0.33819 0.17524 0.03933 0.0
C718 C 0.39555 0.1908 0.06172 0.0
C719 C 0.42673 0.19876 0.06994 0.0
C720 C 0.3883 0.17714 0.03233 0.0
C721 C 0.45076 0.19106 0.04919 0.0
C722 C 0.44375 0.17719 0.02007 0.0
C723 C 0.40513 0.1597 0.98072 0.0
C724 C 0.37371 0.15524 0.97114 0.0
C725 C 0.41255 0.17088 0.01107 0.0
C726 C 0.34988 0.16007 0.99301 0.0
C727 C 0.3571 0.17085 0.02331 0.0
H728 H 0.07737 0.77646 0.20334 0.0
H729 H 0.07179 0.86665 0.15949 0.0
H730 H 0.09481 0.89192 0.2064 0.0
H731 H 0.11015 0.88894 0.26181 0.0
H732 H 0.11349 0.79878 0.30617 0.0
H733 H 0.09801 0.77294 0.25683 0.0
C734 C 0.08154 0.80162 0.20383 0.0
C735 C 0.07237 0.81971 0.17815 0.0
C736 C 0.09413 0.81602 0.23104 0.0
C737 C 0.0784 0.8522 0.17902 0.0
C738 C 0.09144 0.86668 0.20589 0.0
C739 C 0.10794 0.86359 0.26064 0.0
C740 C 0.11241 0.84588 0.28784 0.0
C741 C 0.09841 0.84891 0.23237 0.0
C742 C 0.10984 0.81304 0.28573 0.0
C743 C 0.1009 0.79823 0.25753 0.0
H744 H 0.51879 0.83653 0.44425 0.0
H745 H 0.43866 0.8401 0.38205 0.0
H746 H 0.40758 0.86238 0.42432 0.0
H747 H 0.40169 0.87378 0.48079 0.0
H748 H 0.48275 0.87013 0.54224 0.0
H749 H 0.51502 0.85532 0.49831 0.0
C750 C 0.49466 0.84273 0.43985 0.0
C751 C 0.4808 0.8363 0.41042 0.0
C752 C 0.47704 0.85516 0.46419 0.0
C753 C 0.44975 0.84484 0.40466 0.0
C754 C 0.43194 0.85732 0.42887 0.0
C755 C 0.4265 0.87019 0.48448 0.0
C756 C 0.43955 0.8723 0.51493 0.0
C757 C 0.44507 0.86149 0.45904 0.0
C758 C 0.4719 0.8682 0.51918 0.0
C759 C 0.49045 0.85966 0.49407 0.0
H760 H 0.42725 0.23771 0.70497 0.0
H761 H 0.46429 0.15017 0.67257 0.0
H762 H 0.4373 0.12258 0.71458 0.0
H763 H 0.40734 0.1243 0.76367 0.0
H764 H 0.37255 0.2127 0.79654 0.0
H765 H 0.3943 0.23884 0.75111 0.0
C766 C 0.42918 0.21254 0.70681 0.0
C767 C 0.44805 0.19613 0.68583 0.0
C768 C 0.41413 0.19696 0.7313 0.0
C769 C 0.45005 0.16345 0.6885 0.0
C770 C 0.43469 0.14765 0.71259 0.0
C771 C 0.40411 0.14917 0.76058 0.0
C772 C 0.38864 0.16657 0.78362 0.0
C773 C 0.41728 0.16429 0.73461 0.0
C774 C 0.3847 0.19882 0.77934 0.0
C775 C 0.39712 0.21382 0.75336 0.0
H776 H 0.05353 0.20382 0.01385 0.0
H777 H 0.11421 0.15035 0.95493 0.0
H778 H 0.14829 0.14025 0.00027 0.0
H779 H 0.16083 0.14745 0.05666 0.0
H780 H 0.10104 0.20412 0.11388 0.0
H781 H 0.06682 0.21253 0.06896 0.0
C782 C 0.07399 0.18959 0.01097 0.0
C783 C 0.08114 0.17737 0.98129 0.0
C784 C 0.09385 0.1849 0.03672 0.0
C785 C 0.10816 0.15971 0.9777 0.0
C786 C 0.12766 0.1541 0.00355 0.0
C787 C 0.14045 0.16183 0.05922 0.0
C788 C 0.13361 0.17519 0.08863 0.0
C789 C 0.12083 0.1668 0.03315 0.0
C790 C 0.10707 0.19376 0.09153 0.0
C791 C 0.08732 0.19842 0.06589 0.0
H792 H 0.35458 0.04063 0.22846 0.0
H793 H 0.29559 0.00495 0.30191 0.0
H794 H 0.25274 0.03663 0.2836 0.0
H795 H 0.23087 0.07156 0.24506 0.0
H796 H 0.28867 0.10857 0.1716 0.0
H797 H 0.33347 0.0798 0.19195 0.0
C798 C 0.33235 0.03995 0.24044 0.0
C799 C 0.32813 0.02029 0.26629 0.0
C800 C 0.30774 0.05851 0.22992 0.0
C801 C 0.29942 0.01989 0.28195 0.0
C802 C 0.27487 0.03795 0.2715 0.0
C803 C 0.2534 0.07357 0.23369 0.0
C804 C 0.25654 0.09175 0.20676 0.0
C805 C 0.27865 0.05694 0.24531 0.0
C806 C 0.28584 0.09468 0.19246 0.0
C807 C 0.3113 0.07805 0.20392 0.0
H808 H 0.17541 0.07792 0.48362 0.0
H809 H 0.18628 0.1157 0.39107 0.0
H810 H 0.1633 0.06738 0.368 0.0
H811 H 0.14685 0.012 0.37424 0.0
H812 H 0.13743 0.97475 0.46735 0.0
H813 H 0.15294 0.02548 0.49005 0.0
C814 C 0.17247 0.07577 0.45838 0.0
C815 C 0.18319 0.10003 0.43904 0.0
C816 C 0.1598 0.0479 0.44538 0.0
C817 C 0.17852 0.0972 0.40646 0.0
C818 C 0.16553 0.06952 0.39327 0.0
C819 C 0.14771 0.01508 0.3995 0.0
C820 C 0.14162 0.98934 0.41904 0.0
C821 C 0.15712 0.0443 0.4125 0.0
C822 C 0.14244 0.99394 0.45172 0.0
C823 C 0.15136 0.02296 0.46477 0.0
H824 H 0.17818 0.93498 0.64362 0.0
H825 H 0.20327 0.89599 0.73305 0.0
H826 H 0.25191 0.87727 0.71136 0.0
H827 H 0.29017 0.87799 0.66925 0.0
H828 H 0.26594 0.91759 0.57998 0.0
H829 H 0.21389 0.92959 0.59923 0.0
C830 C 0.19403 0.92193 0.65823 0.0
C831 C 0.18735 0.91743 0.69007 0.0
C832 C 0.22223 0.91156 0.64572 0.0
C833 C 0.20797 0.90012 0.70856 0.0
C834 C 0.23587 0.88947 0.69621 0.0
C835 C 0.27333 0.88887 0.65386 0.0
C836 C 0.28203 0.89741 0.62347 0.0
C837 C 0.2437 0.89603 0.66518 0.0
C838 C 0.25984 0.91092 0.60356 0.0
C839 C 0.23014 0.91795 0.61461 0.0
H840 H 0.29108 0.9597 0.98667 0.0
H841 H 0.26305 0.91465 0.89919 0.0
H842 H 0.28342 0.95964 0.87035 0.0
H843 H 0.30543 0.01364 0.87037 0.0
H844 H 0.33076 0.05899 0.95848 0.0
H845 H 0.31538 0.01196 0.9866 0.0
C846 C 0.28974 0.9595 0.96127 0.0
C847 C 0.27539 0.93394 0.94515 0.0
C848 C 0.30085 0.98564 0.94492 0.0
C849 C 0.27383 0.93413 0.91222 0.0
C850 C 0.28543 0.95987 0.89569 0.0
C851 C 0.30795 0.01302 0.89567 0.0
C852 C 0.31897 0.03982 0.91233 0.0
C853 C 0.29842 0.98604 0.91184 0.0
C854 C 0.322 0.03877 0.94514 0.0
C855 C 0.31325 0.01188 0.96126 0.0
H856 H 0.31845 0.9166 0.29054 0.0
H857 H 0.35422 0.91327 0.3855 0.0
H858 H 0.30075 0.90817 0.40494 0.0
H859 H 0.24388 0.90901 0.39514 0.0
H860 H 0.2087 0.91447 0.30006 0.0
H861 H 0.26207 0.91477 0.28058 0.0
C862 C 0.3147 0.91413 0.31547 0.0
C863 C 0.34037 0.91536 0.33655 0.0
C864 C 0.28397 0.91227 0.32652 0.0
C865 C 0.3349 0.91239 0.36877 0.0
C866 C 0.30432 0.90972 0.37991 0.0
C867 C 0.24786 0.91031 0.37015 0.0
C868 C 0.22226 0.91213 0.34915 0.0
C869 C 0.27867 0.91049 0.35905 0.0
C870 C 0.2279 0.91333 0.31681 0.0
C871 C 0.25844 0.91338 0.30561 0.0
H872 H 0.33096 0.06281 0.49201 0.0
H873 H 0.29053 0.09297 0.57918 0.0
H874 H 0.3129 0.04846 0.6058 0.0
H875 H 0.33917 -0.00169 0.60308 0.0
H876 H 0.37757 0.9669 0.51536 0.0
H877 H 0.36106 0.01483 0.49032 0.0
C878 C 0.32737 0.05989 0.51691 0.0
C879 C 0.30878 0.08092 0.53348 0.0
C880 C 0.33977 0.03393 0.53195 0.0
C881 C 0.30449 0.07691 0.56579 0.0
C882 C 0.31725 0.05145 0.58105 0.0
C883 C 0.34437 0.00213 0.57861 0.0
C884 C 0.35919 0.97889 0.56103 0.0
C885 C 0.33422 0.02939 0.56417 0.0
C886 C 0.36584 0.98428 0.52935 0.0
C887 C 0.35639 0.01166 0.51498 0.0
H888 H 0.16741 0.05143 0.77897 0.0
H889 H 0.22375 0.05052 0.69579 0.0
H890 H 0.26544 0.08008 0.72358 0.0
H891 H 0.28781 0.1016 0.77274 0.0
H892 H 0.23169 0.10195 0.85614 0.0
H893 H 0.18784 0.07774 0.82678 0.0
C894 C 0.1887 0.05794 0.76683 0.0
C895 C 0.19264 0.04838 0.7355 0.0
C896 C 0.21266 0.07481 0.78298 0.0
C897 C 0.22017 0.05738 0.71997 0.0
C898 C 0.24407 0.07426 0.73586 0.0
C899 C 0.26586 0.09681 0.78445 0.0
C900 C 0.26328 0.10317 0.81674 0.0
C901 C 0.24086 0.08243 0.76756 0.0
C902 C 0.23448 0.09713 0.83137 0.0
C903 C 0.20939 0.08311 0.81463 0.0
H904 H 0.18973 0.98761 0.01959 0.0
H905 H 0.16855 0.91949 0.09034 0.0
H906 H 0.15502 0.96139 0.12702 0.0
H907 H 0.15685 0.01749 0.14111 0.0
H908 H 0.18445 0.085 0.07193 0.0
H909 H 0.18757 0.04339 0.0323 0.0
C910 C 0.18138 0.98193 0.04277 0.0
C911 C 0.18021 0.95068 0.0524 0.0
C912 C 0.17525 0.0061 0.06411 0.0
C913 C 0.16975 0.94353 0.08259 0.0
C914 C 0.16216 0.96743 0.10356 0.0
C915 C 0.16292 0.023 0.11718 0.0
C916 C 0.17068 0.05397 0.10928 0.0
C917 C 0.166 -0.00117 0.09494 0.0
C918 C 0.17876 0.0611 0.0784 0.0
C919 C 0.18052 0.03739 0.0558 0.0
H920 H 0.22578 0.33151 0.13337 0.0
H921 H 0.31314 0.29133 0.10606 0.0
H922 H 0.30208 0.24572 0.1381 0.0
H923 H 0.26232 0.21278 0.16359 0.0
H924 H 0.17462 0.25235 0.19025 0.0
H925 H 0.19149 0.30303 0.16976 0.0
C926 C 0.24272 0.3131 0.13509 0.0
C927 C 0.2697 0.31424 0.11664 0.0
C928 C 0.23607 0.28676 0.15332 0.0
C929 C 0.29191 0.29073 0.11964 0.0
C930 C 0.28557 0.26456 0.13788 0.0
C931 C 0.24747 0.23288 0.16598 0.0
C932 C 0.21712 0.22883 0.1777 0.0
C933 C 0.25695 0.26161 0.15335 0.0
C934 C 0.19809 0.25494 0.18117 0.0
C935 C 0.20756 0.28382 0.16906 0.0
H936 H 0.65772 0.18958 0.94232 0.0
H937 H 0.7473 0.23577 0.9272 0.0
H938 H 0.72106 0.28304 0.91117 0.0
H939 H 0.67328 0.31252 0.90573 0.0
H940 H 0.58338 0.26743 0.92142 0.0
H941 H 0.60924 0.21826 0.93285 0.0
C942 C 0.67151 0.20982 0.93507 0.0
C943 C 0.70447 0.20924 0.93627 0.0
C944 C 0.65626 0.23717 0.92637 0.0
C945 C 0.72194 0.23565 0.92673 0.0
C946 C 0.70696 0.26274 0.91765 0.0
C947 C 0.65927 0.29194 0.91163 0.0
C948 C 0.62651 0.29373 0.9133 0.0
C949 C 0.67423 0.26399 0.91819 0.0
C950 C 0.60867 0.26669 0.92024 0.0
C951 C 0.62344 0.23862 0.92679 0.0
H952 H 0.08678 0.42474 0.21297 0.0
H953 H 0.05652 0.50773 0.16583 0.0
H954 H 0.01244 0.47834 0.14232 0.0
H955 H 0.97883 0.43104 0.14047 0.0
H956 H 0.00861 0.34776 0.18709 0.0
H957 H 0.0567 0.37515 0.20503 0.0
C958 C 0.07085 0.43626 0.19714 0.0
C959 C 0.07464 0.46854 0.1917 0.0
C960 C 0.04528 0.41924 0.18377 0.0
C961 C 0.05401 0.483 0.17078 0.0
C962 C 0.02867 0.46624 0.15734 0.0
C963 C 0.99609 0.41877 0.15416 0.0
C964 C 0.99 0.38765 0.16287 0.0
C965 C 0.0235 0.43467 0.16454 0.0
C966 C 0.01275 0.3718 0.18015 0.0
C967 C 0.04016 0.3875 0.19059 0.0
H968 H 0.76739 0.81632 0.43099 0.0
H969 H 0.85688 0.86527 0.43861 0.0
H970 H 0.88253 0.81981 0.41582 0.0
H971 H 0.87999 0.76358 0.4005 0.0
H972 H 0.79037 0.71468 0.3972 0.0
H973 H 0.76414 0.76285 0.41114 0.0
C974 C 0.79249 0.81724 0.42742 0.0
C975 C 0.8103 0.84385 0.43703 0.0
C976 C 0.80702 0.79095 0.41513 0.0
C977 C 0.84269 0.8449 0.43165 0.0
C978 C 0.85736 0.81889 0.41872 0.0
C979 C 0.85468 0.76384 0.40208 0.0
C980 C 0.837 0.73584 0.39803 0.0
C981 C 0.83986 0.79141 0.41131 0.0
C982 C 0.8043 0.73609 0.40043 0.0
C983 C 0.78935 0.76352 0.40849 0.0
H984 H 0.9579 0.08654 0.17585 0.0
H985 H 0.99441 0.99374 0.16454 0.0
H986 H 0.04721 0.01591 0.16025 0.0
H987 H 0.08352 0.06069 0.16716 0.0
H988 H 0.04801 0.15366 0.1782 0.0
H989 H 0.99411 0.13239 0.17506 0.0
C990 C 0.97731 0.07121 0.17178 0.0
C991 C 0.97231 0.03849 0.17123 0.0
C992 C 0.00777 0.08407 0.16985 0.0
C993 C -0.00236 0.01898 0.1655 0.0
C994 C 0.0279 0.0316 0.1632 0.0
C995 C 0.06391 0.07627 0.1686 0.0
C996 C 0.06942 0.10847 0.17365 0.0
C997 C 0.03331 0.06394 0.16667 0.0
C998 C 0.0441 0.12869 0.17463 0.0
C999 C 0.01339 0.11654 0.1729 0.0
H1000 H 0.33087 0.67943 0.55848 0.0
H1001 H 0.23756 0.71421 0.56931 0.0
H1002 H 0.2591 0.76688 0.57922 0.0
H1003 H 0.30391 0.80367 0.58051 0.0
H1004 H 0.39731 0.76943 0.56907 0.0
H1005 H 0.37617 0.71586 0.56362 0.0
C1006 C 0.31526 0.69841 0.56354 0.0
C1007 C 0.28264 0.69292 0.56289 0.0
C1008 C 0.32776 0.7288 0.5686 0.0
C1009 C 0.26275 0.71781 0.5695 0.0
C1010 C 0.27503 0.74798 0.57501 0.0
C1011 C 0.31967 0.7845 0.57678 0.0
C1012 C 0.35207 0.79057 0.57465 0.0
C1013 C 0.30741 0.75386 0.57377 0.0
C1014 C 0.37223 0.76541 0.5705 0.0
C1015 C 0.36017 0.73478 0.56743 0.0
H1016 H 0.08364 0.59467 0.34865 0.0
H1017 H 0.03993 0.51829 0.29522 0.0
H1018 H 0.98881 0.53304 0.31351 0.0
H1019 H 0.95611 0.56916 0.34122 0.0
H1020 H -0.00237 0.64741 0.39323 0.0
H1021 H 0.05005 0.62993 0.37957 0.0
C1022 C 0.06293 0.58118 0.34125 0.0
C1023 C 0.06563 0.55565 0.32028 0.0
C1024 C 0.03323 0.59003 0.3516 0.0
C1025 C 0.03857 0.5383 0.31098 0.0
C1026 C 0.00926 0.54662 0.3215 0.0
C1027 C 0.97658 0.58238 0.34981 0.0
C1028 C 0.97296 0.60977 0.36783 0.0
C1029 C 0.00629 0.57271 0.34128 0.0
C1030 C -0.00022 0.62626 0.37921 0.0
C1031 C 0.02973 0.61638 0.37123 0.0
H1032 H 0.40364 0.44084 0.79237 0.0
H1033 H 0.45695 0.52308 0.76508 0.0
H1034 H 0.50281 0.5045 0.79306 0.0
H1035 H 0.52836 0.46412 0.82348 0.0
H1036 H 0.47575 0.38106 0.84956 0.0
H1037 H 0.42892 0.40099 0.8241 0.0
C1038 C 0.42526 0.45474 0.7926 0.0
C1039 C 0.42688 0.4832 0.77652 0.0
C1040 C 0.45165 0.44384 0.80857 0.0
C1041 C 0.45508 0.50097 0.77712 0.0
C1042 C 0.48133 0.49042 0.79317 0.0
C1043 C 0.50659 0.45049 0.8239 0.0
C1044 C 0.50558 0.42111 0.8383 0.0
C1045 C 0.47994 0.46179 0.80876 0.0
C1046 C 0.47719 0.4037 0.83848 0.0
C1047 C 0.45042 0.41504 0.8239 0.0
H1048 H 0.92167 0.82604 0.68004 0.0
H1049 H 0.97252 0.75463 0.72811 0.0
H1050 H 0.94606 0.76716 0.77668 0.0
H1051 H 0.91275 0.80163 0.8067 0.0
H1052 H 0.8643 0.87558 0.76011 0.0
H1053 H 0.88499 0.8584 0.70977 0.0
C1054 C 0.92662 0.81298 0.70106 0.0
C1055 C 0.94928 0.78968 0.70051 0.0
C1056 C 0.91177 0.82077 0.72924 0.0
C1057 C 0.95548 0.77297 0.72796 0.0
C1058 C 0.9403 0.78005 0.75577 0.0
C1059 C 0.90612 0.81363 0.78548 0.0
C1060 C 0.88712 0.83997 0.78724 0.0
C1061 C 0.91898 0.80437 0.75686 0.0
C1062 C 0.879 0.85531 0.75946 0.0
C1063 C 0.89096 0.8456 0.73067 0.0
H1064 H 0.89961 0.1799 0.46008 0.0
H1065 H 0.99168 0.14685 0.48276 0.0
H1066 H 0.97385 0.13126 0.53449 0.0
H1067 H 0.93356 0.13225 0.57525 0.0
H1068 H 0.84167 0.16571 0.55192 0.0
H1069 H 0.85802 0.17566 0.49862 0.0
C1070 C 0.91569 0.16888 0.47615 0.0
C1071 C 0.94701 0.16498 0.4677 0.0
C1072 C 0.90542 0.16032 0.50597 0.0
C1073 C 0.96743 0.15029 0.48869 0.0
C1074 C 0.95731 0.14151 0.51838 0.0
C1075 C 0.91703 0.1414 0.55842 0.0
C1076 C 0.88662 0.14872 0.56786 0.0
C1077 C 0.92659 0.14727 0.52762 0.0
C1078 C 0.86537 0.16018 0.54555 0.0
C1079 C 0.87467 0.16593 0.51496 0.0
H1080 H 0.55672 0.24902 0.19988 0.0
H1081 H 0.55091 0.15857 0.15348 0.0
H1082 H 0.58474 0.13692 0.19396 0.0
H1083 H 0.61026 0.14233 0.24565 0.0
H1084 H 0.61478 0.23276 0.29243 0.0
H1085 H 0.58758 0.25588 0.24826 0.0
C1086 C 0.56313 0.22464 0.19843 0.0
C1087 C 0.55088 0.20526 0.1741 0.0
C1088 C 0.58222 0.21233 0.22188 0.0
C1089 C 0.55986 0.1739 0.17214 0.0
C1090 C 0.5791 0.16149 0.19532 0.0
C1091 C 0.60576 0.16721 0.24602 0.0
C1092 C 0.61396 0.18562 0.27263 0.0
C1093 C 0.58958 0.18028 0.2208 0.0
C1094 C 0.60837 0.21791 0.27245 0.0
C1095 C 0.59271 0.23117 0.24724 0.0
H1096 H 0.50192 0.8509 0.95757 0.0
H1097 H 0.57987 0.83813 0.89583 0.0
H1098 H 0.61653 0.85016 0.93902 0.0
H1099 H 0.62604 0.85569 0.99558 0.0
H1100 H 0.54773 0.86428 0.05776 0.0
H1101 H 0.51158 0.86262 0.01304 0.0
C1102 C 0.52691 0.85152 0.95335 0.0
C1103 C 0.53822 0.84317 0.92374 0.0
C1104 C 0.54777 0.85708 0.97851 0.0
C1105 C 0.57065 0.84414 0.91859 0.0
C1106 C 0.5916 0.85084 0.94329 0.0
C1107 C 0.60111 0.85768 -0.00067 0.0
C1108 C 0.58953 0.85939 0.02995 0.0
C1109 C 0.5804 0.85591 0.9736 0.0
C1110 C 0.55719 0.86231 0.03442 0.0
C1111 C 0.53649 0.86143 0.00888 0.0
H1112 H 0.97406 0.21076 0.8361 0.0
H1113 H 0.97523 0.11445 0.8654 0.0
H1114 H 0.9386 0.09961 0.82282 0.0
H1115 H 0.90997 0.1134 0.77468 0.0
H1116 H 0.91152 0.20943 0.74435 0.0
H1117 H 0.94331 0.22497 0.79018 0.0
C1118 C 0.96615 0.18652 0.83345 0.0
C1119 C 0.97765 0.1637 0.85379 0.0
C1120 C 0.9457 0.17809 0.80862 0.0
C1121 C 0.96691 0.13247 0.85 0.0
C1122 C 0.94601 0.12397 0.82561 0.0
C1123 C 0.91688 0.13781 0.77833 0.0
C1124 C 0.90854 0.16021 0.756 0.0
C1125 C 0.93579 0.14649 0.80439 0.0
C1126 C 0.91782 0.1917 0.76103 0.0
C1127 C 0.93601 0.2006 0.78721 0.0
H1128 H 0.55092 0.16716 0.5496 0.0
H1129 H 0.63927 0.20588 0.58447 0.0
H1130 H 0.664 0.19209 0.53499 0.0
H1131 H 0.65871 0.17502 0.47967 0.0
H1132 H 0.569 0.14013 0.44448 0.0
H1133 H 0.54661 0.1465 0.49632 0.0
C1134 C 0.57573 0.17216 0.54669 0.0
C1135 C 0.59311 0.1879 0.57058 0.0
C1136 C 0.58944 0.16527 0.5179 0.0
C1137 C 0.62527 0.19398 0.56637 0.0
C1138 C 0.63939 0.18625 0.53801 0.0
C1139 C 0.63439 0.16842 0.4835 0.0
C1140 C 0.61541 0.15753 0.45824 0.0
C1141 C 0.62143 0.17286 0.51325 0.0
C1142 C 0.58395 0.14904 0.46349 0.0
C1143 C 0.57115 0.15258 0.49312 0.0
H1144 H 0.59756 0.73147 0.27491 0.0
H1145 H 0.61564 0.81603 0.32945 0.0
H1146 H 0.64494 0.83869 0.28626 0.0
H1147 H 0.65655 0.838 0.23084 0.0
H1148 H 0.63244 0.75628 0.1739 0.0
H1149 H 0.61549 0.72838 0.22053 0.0
C1150 C 0.60854 0.75457 0.27751 0.0
C1151 C 0.60409 0.7724 0.3049 0.0
C1152 C 0.62409 0.76793 0.25214 0.0
C1153 C 0.61839 0.80222 0.30823 0.0
C1154 C 0.63514 0.81512 0.28362 0.0
C1155 C 0.64812 0.81387 0.22861 0.0
C1156 C 0.64475 0.79957 0.19888 0.0
C1157 C 0.63678 0.79875 0.25504 0.0
C1158 C 0.6347 0.76802 0.1965 0.0
C1159 C 0.62478 0.75215 0.22312 0.0
H1160 H 0.9946 0.81309 0.04412 0.0
H1161 H 0.91414 0.8328 0.10057 0.0
H1162 H 0.88994 0.85953 0.05677 0.0
H1163 H 0.88922 0.87256 0.00118 0.0
H1164 H 0.96908 0.85234 0.94415 0.0
H1165 H 0.99617 0.83124 0.98966 0.0
C1166 C 0.97189 0.82346 0.04693 0.0
C1167 C 0.956 0.82047 0.07545 0.0
C1168 C 0.95798 0.83874 0.02155 0.0
C1169 C 0.9268 0.83447 0.07883 0.0
C1170 C 0.9129 0.84977 0.05376 0.0
C1171 C 0.91275 0.86398 -0.00125 0.0
C1172 C 0.92687 0.86362 0.96917 0.0
C1173 C 0.92793 0.85136 0.02483 0.0
C1174 C 0.95756 0.85281 0.96658 0.0
C1175 C 0.97299 0.84051 0.99257 0.0
H1176 H 0.66124 0.92489 0.86741 0.0
H1177 H 0.67928 0.93454 0.76871 0.0
H1178 H 0.73045 0.91163 0.77567 0.0
H1179 H 0.77327 0.8969 0.81123 0.0
H1180 H 0.75476 0.88713 0.90988 0.0
H1181 H 0.70072 0.90152 0.90128 0.0
C1182 C 0.67608 0.92138 0.84731 0.0
C1183 C 0.66673 0.93216 0.81782 0.0
C1184 C 0.70571 0.90852 0.85147 0.0
C1185 C 0.68602 0.92688 0.79186 0.0
C1186 C 0.71544 0.91389 0.7958 0.0
C1187 C 0.75726 0.8973 0.83072 0.0
C1188 C 0.76838 0.89186 0.86124 0.0
C1189 C 0.72607 0.90589 0.82574 0.0
C1190 C 0.74711 0.89193 0.88617 0.0
C1191 C 0.7161 0.90019 0.88135 0.0
H1192 H 0.74896 0.95644 0.60107 0.0
H1193 H 0.80265 0.97344 0.51784 0.0
H1194 H 0.82472 0.02177 0.54132 0.0
H1195 H 0.82768 0.05996 0.58509 0.0
H1196 H 0.77627 0.04126 0.66934 0.0
H1197 H 0.75416 0.99293 0.64581 0.0
C1198 C 0.76562 0.97065 0.58815 0.0
C1199 C 0.77404 0.9615 0.55775 0.0
C1200 C 0.77839 -0.00178 0.60187 0.0
C1201 C 0.79588 0.97994 0.54136 0.0
C1202 C 0.80837 0.00767 0.55468 0.0
C1203 C 0.8115 0.04531 0.59814 0.0
C1204 C 0.80328 0.05417 0.62867 0.0
C1205 C 0.79954 0.0172 0.58479 0.0
C1206 C 0.78283 0.03483 0.64572 0.0
C1207 C 0.77022 0.00724 0.63232 0.0
H1208 H 0.83539 0.0821 0.2797 0.0
H1209 H 0.78348 0.08039 0.19214 0.0
H1210 H 0.73879 0.10326 0.21822 0.0
H1211 H 0.71284 0.11871 0.26673 0.0
H1212 H 0.76452 0.11887 0.35447 0.0
H1213 H 0.81106 0.10192 0.32727 0.0
C1214 C 0.81444 0.08702 0.26621 0.0
C1215 C 0.81262 0.07913 0.23412 0.0
C1216 C 0.78872 0.09971 0.2814 0.0
C1217 C 0.78543 0.08603 0.21693 0.0
C1218 C 0.75982 0.09902 0.23184 0.0
C1219 C 0.73436 0.1154 0.27991 0.0
C1220 C 0.73499 0.11958 0.31269 0.0
C1221 C 0.76094 0.10518 0.26421 0.0
C1222 C 0.76322 0.1155 0.32928 0.0
C1223 C 0.78987 0.10575 0.31376 0.0
H1224 H 0.6829 0.07084 0.08999 0.0
H1225 H 0.65986 0.04876 0.99324 0.0
H1226 H 0.6471 0.99473 0.00696 0.0
H1227 H 0.64901 0.95254 0.04513 0.0
H1228 H 0.67403 0.9744 0.14153 0.0
H1229 H 0.67936 0.02974 0.12918 0.0
C1230 C 0.67445 0.0544 0.07201 0.0
C1231 C 0.6728 0.06366 0.04061 0.0
C1232 C 0.66802 0.02318 0.07987 0.0
C1233 C 0.66168 0.0421 0.01758 0.0
C1234 C 0.65452 0.01116 0.02535 0.0
C1235 C 0.65539 0.96942 0.0635 0.0
C1236 C 0.66173 0.95924 0.09403 0.0
C1237 C 0.65875 0.0012 0.05621 0.0
C1238 C 0.66942 0.98151 0.11769 0.0
C1239 C 0.67246 0.01321 0.11069 0.0
H1240 H 0.65613 0.11426 0.73068 0.0
H1241 H 0.69733 0.05331 0.79874 0.0
H1242 H 0.74902 0.07613 0.78886 0.0
H1243 H 0.78325 0.10654 0.75456 0.0
H1244 H 0.74262 0.16498 0.684 0.0
H1245 H 0.69014 0.1507 0.70174 0.0
C1246 C 0.67633 0.10648 0.74383 0.0
C1247 C 0.67297 0.08169 0.76489 0.0
C1248 C 0.70622 0.11914 0.73743 0.0
C1249 C 0.69935 0.07198 0.78192 0.0
C1250 C 0.72897 0.08502 0.77631 0.0
C1251 C 0.76298 0.11695 0.74372 0.0
C1252 C 0.76679 0.13639 0.71771 0.0
C1253 C 0.73285 0.10764 0.75317 0.0
C1254 C 0.74024 0.14964 0.70388 0.0
C1255 C 0.71021 0.14133 0.71386 0.0
H1256 H 0.67848 0.96019 0.46369 0.0
H1257 H 0.70596 0.92157 0.37451 0.0
H1258 H 0.68992 0.96936 0.34848 0.0
H1259 H 0.67509 0.02465 0.35251 0.0
H1260 H 0.65137 0.06355 0.4428 0.0
H1261 H 0.65906 0.01299 0.46699 0.0
C1262 C 0.68059 0.96197 0.43847 0.0
C1263 C 0.69395 0.93765 0.42114 0.0
C1264 C 0.67245 0.98975 0.42396 0.0
C1265 C 0.69598 0.94011 0.38843 0.0
C1266 C 0.68702 0.9675 0.37358 0.0
C1267 C 0.6712 0.0219 0.37739 0.0
C1268 C 0.66326 0.04787 0.39597 0.0
C1269 C 0.67636 0.9929 0.39132 0.0
C1270 C 0.65809 0.044 0.42813 0.0
C1271 C 0.66237 0.01511 0.44197 0.0
H1272 H 0.83302 0.93552 0.20019 0.0
H1273 H 0.84742 0.97363 0.1082 0.0
H1274 H 0.80593 0.93903 0.08669 0.0
H1275 H 0.7609 0.9038 0.09551 0.0
H1276 H 0.7448 0.86767 0.18804 0.0
H1277 H 0.79207 0.89513 0.2076 0.0
C1278 C 0.82742 0.93595 0.17534 0.0
C1279 C 0.84289 0.95759 0.15597 0.0
C1280 C 0.80312 0.91643 0.16322 0.0
C1281 C 0.83562 0.95751 0.12375 0.0
C1282 C 0.81185 0.93774 0.1114 0.0
C1283 C 0.76807 0.90129 0.1198 0.0
C1284 C 0.74898 0.88415 0.14039 0.0
C1285 C 0.79472 0.91793 0.13114 0.0
C1286 C 0.75882 0.88104 0.17175 0.0
C1287 C 0.78578 0.89687 0.18301 0.0
H1288 H 0.79646 0.06017 0.97769 0.0
H1289 H 0.78515 0.09061 0.88224 0.0
H1290 H 0.81454 0.04595 0.86369 0.0
H1291 H 0.83804 0.9956 0.87394 0.0
H1292 H 0.84677 0.96315 0.96895 0.0
H1293 H 0.8243 0.01169 0.98834 0.0
C1294 C 0.80082 0.05734 0.95286 0.0
C1295 C 0.78828 0.07856 0.93134 0.0
C1296 C 0.81711 0.03117 0.94227 0.0
C1297 C 0.79427 0.07453 0.89928 0.0
C1298 C 0.81105 0.04895 0.88864 0.0
C1299 C 0.83542 -0.00081 0.89897 0.0
C1300 C 0.84366 0.97547 0.91991 0.0
C1301 C 0.82173 0.02668 0.90984 0.0
C1302 C 0.84047 0.98086 0.95226 0.0
C1303 C 0.82746 0.00857 0.96335 0.0
H1304 H 0.77803 0.69156 0.9205 0.0
H1305 H 0.87001 0.65983 0.94542 0.0
H1306 H 0.89273 0.7113 0.93274 0.0
H1307 H 0.88558 0.76652 0.91856 0.0
H1308 H 0.79256 0.79841 0.89792 0.0
H1309 H 0.77108 0.74562 0.9051 0.0
C1310 C 0.80314 0.69565 0.92264 0.0
C1311 C 0.82234 0.6719 0.93376 0.0
C1312 C 0.81576 0.72549 0.91652 0.0
C1313 C 0.85477 0.67777 0.93684 0.0
C1314 C 0.86771 0.70722 0.92975 0.0
C1315 C 0.86065 0.76181 0.91542 0.0
C1316 C 0.84066 0.78636 0.90792 0.0
C1317 C 0.84831 0.73147 0.92024 0.0
C1318 C 0.80839 0.77999 0.90405 0.0
C1319 C 0.79609 0.74979 0.90801 0.0
H1320 H 0.27035 0.81546 0.09227 0.0
H1321 H 0.35741 0.85546 0.05913 0.0
H1322 H 0.38619 0.81353 0.08391 0.0
H1323 H 0.38561 0.76192 0.10837 0.0
H1324 H 0.29809 0.72106 0.13956 0.0
H1325 H 0.27062 0.76738 0.12274 0.0
C1326 C 0.29568 0.81525 0.09078 0.0
C1327 C 0.31167 0.83818 0.07336 0.0
C1328 C 0.31198 0.79088 0.10466 0.0
C1329 C 0.34451 0.83792 0.07216 0.0
C1330 C 0.36098 0.8139 0.08625 0.0
C1331 C 0.36064 0.76339 0.11218 0.0
C1332 C 0.34385 0.73775 0.12466 0.0
C1333 C 0.34482 0.78971 0.10164 0.0
C1334 C 0.31154 0.74025 0.12963 0.0
C1335 C 0.29577 0.76667 0.11988 0.0
H1336 H 0.93696 0.50657 0.85044 0.0
H1337 H 0.90047 0.59968 0.84556 0.0
H1338 H 0.95043 0.62174 0.86542 0.0
H1339 H 0.00634 0.6148 0.87661 0.0
H1340 H 0.04287 0.52145 0.87884 0.0
H1341 H 0.99078 0.49923 0.86768 0.0
C1342 C 0.93978 0.53168 0.8541 0.0
C1343 C 0.91542 0.55155 0.84589 0.0
C1344 C 0.96863 0.54415 0.86465 0.0
C1345 C 0.91907 0.58394 0.85144 0.0
C1346 C 0.94765 0.59656 0.8626 0.0
C1347 C 0.00285 0.58958 0.87507 0.0
C1348 C 0.02856 0.56984 0.87776 0.0
C1349 C 0.97294 0.57694 0.86808 0.0
C1350 C 0.02357 0.5372 0.87624 0.0
C1351 C 0.9938 0.52445 0.86989 0.0
H1352 H 0.17795 0.19551 0.57171 0.0
H1353 H 0.26565 0.24788 0.57832 0.0
H1354 H 0.23969 0.29101 0.6045 0.0
H1355 H 0.19116 0.31593 0.62024 0.0
H1356 H 0.10346 0.26343 0.61335 0.0
H1357 H 0.13051 0.21812 0.59306 0.0
C1358 C 0.19143 0.21623 0.57919 0.0
C1359 C 0.22351 0.21873 0.57266 0.0
C1360 C 0.17637 0.24097 0.59408 0.0
C1361 C 0.24083 0.24546 0.58292 0.0
C1362 C 0.22601 0.27019 0.59781 0.0
C1363 C 0.17801 0.29445 0.61471 0.0
C1364 C 0.14528 0.29331 0.61777 0.0
C1365 C 0.19363 0.26853 0.60271 0.0
C1366 C 0.12866 0.2651 0.61097 0.0
C1367 C 0.14407 0.23917 0.59922 0.0
H1368 H 0.026 0.00219 0.79159 0.0
H1369 H 0.07193 0.91416 0.77888 0.0
H1370 H 0.03086 0.88751 0.80839 0.0
H1371 H 0.98014 0.88854 0.83427 0.0
H1372 H 0.93308 0.97622 0.84521 0.0
H1373 H 0.97662 0.0037 0.82013 0.0
C1374 C 0.02725 0.97724 0.79557 0.0
C1375 C 0.05192 0.96017 0.78289 0.0
C1376 C 0.00329 0.96197 0.8121 0.0
C1377 C 0.05312 0.92784 0.78824 0.0
C1378 C 0.02963 0.91256 0.80509 0.0
C1379 C 0.97951 0.91373 0.83155 0.0
C1380 C 0.95323 0.93023 0.84144 0.0
C1381 C 0.00432 0.9293 0.81661 0.0
C1382 C 0.9529 0.96287 0.83765 0.0
C1383 C 0.97777 0.97862 0.82327 0.0
H1384 H 0.72072 0.33086 0.44358 0.0
H1385 H 0.80701 0.28083 0.45082 0.0
H1386 H 0.78448 0.2384 0.41821 0.0
H1387 H 0.73866 0.21301 0.39318 0.0
H1388 H 0.65122 0.2614 0.38868 0.0
H1389 H 0.67613 0.30733 0.41415 0.0
C1390 C 0.73475 0.31087 0.43768 0.0
C1391 C 0.76532 0.30877 0.44997 0.0
C1392 C 0.72143 0.28625 0.41952 0.0
C1393 C 0.78327 0.28283 0.44197 0.0
C1394 C 0.77042 0.25856 0.42331 0.0
C1395 C 0.7251 0.23375 0.39725 0.0
C1396 C 0.69298 0.23356 0.38949 0.0
C1397 C 0.73925 0.25963 0.41277 0.0
C1398 C 0.67591 0.26079 0.39473 0.0
C1399 C 0.69009 0.28702 0.40941 0.0
H1400 H 0.91509 0.46864 0.70474 0.0
H1401 H 0.89211 0.37642 0.73903 0.0
H1402 H 0.93506 0.3547 0.70897 0.0
H1403 H 0.9836 0.36372 0.67982 0.0
H1404 H 0.00767 0.45686 0.64837 0.0
H1405 H 0.9594 0.4764 0.6702 0.0
C1406 C 0.91922 0.4437 0.70537 0.0
C1407 C 0.90102 0.42424 0.7246 0.0
C1408 C 0.94424 0.43164 0.68875 0.0
C1409 C 0.90608 0.3919 0.72461 0.0
C1410 C 0.93069 0.37953 0.70756 0.0
C1411 C 0.97799 0.38816 0.67717 0.0
C1412 C -0.00052 0.40897 0.66311 0.0
C1413 C 0.95064 0.39943 0.69056 0.0
C1414 C 0.99175 0.4405 0.65958 0.0
C1415 C 0.9642 0.4517 0.6721 0.0
H1416 H 0.58175 0.57008 0.16503 0.0
H1417 H 0.53614 0.48053 0.14476 0.0
H1418 H 0.49103 0.50679 0.12274 0.0
H1419 H 0.4619 0.55488 0.11576 0.0
H1420 H 0.50679 0.64446 0.13758 0.0
H1421 H 0.55501 0.61844 0.15176 0.0
C1422 C 0.56215 0.55627 0.15539 0.0
C1423 C 0.56211 0.52338 0.1571 0.0
C1424 C 0.53605 0.57152 0.14314 0.0
C1425 C 0.53669 0.50588 0.14408 0.0
C1426 C 0.51081 0.52088 0.13152 0.0
C1427 C 0.48238 0.56881 0.12307 0.0
C1428 C 0.48046 0.60156 0.12615 0.0
C1429 C 0.50983 0.55367 0.13191 0.0
C1430 C 0.50744 0.61921 0.13521 0.0
C1431 C 0.53501 0.60432 0.14354 0.0
H1432 H 0.55155 0.74642 0.78258 0.0
H1433 H 0.51427 0.6592 0.81818 0.0
H1434 H 0.53792 0.63063 0.77491 0.0
H1435 H 0.56726 0.63083 0.72577 0.0
H1436 H 0.60332 0.71854 0.69004 0.0
H1437 H 0.58213 0.74647 0.73479 0.0
C1438 C 0.54867 0.72114 0.78101 0.0
C1439 C 0.53105 0.70499 0.80349 0.0
C1440 C 0.56206 0.70495 0.75603 0.0
C1441 C 0.52765 0.67222 0.80112 0.0
C1442 C 0.54115 0.65587 0.77639 0.0
C1443 C 0.57069 0.65602 0.7279 0.0
C1444 C 0.58665 0.67258 0.70448 0.0
C1445 C 0.55813 0.67205 0.75353 0.0
C1446 C 0.59089 0.70523 0.70759 0.0
C1447 C 0.5788 0.72126 0.73317 0.0
H1448 H 0.45427 0.329 0.03649 0.0
H1449 H 0.53613 0.33329 0.09705 0.0
H1450 H 0.56606 0.35927 0.05626 0.0
H1451 H 0.57112 0.37252 0.0009 0.0
H1452 H 0.48965 0.36623 0.9398 0.0
H1453 H 0.45741 0.34974 0.98349 0.0
C1454 C 0.47849 0.33615 0.041 0.0
C1455 C 0.49316 0.3285 0.06942 0.0
C1456 C 0.49578 0.35037 0.01721 0.0
C1457 C 0.52439 0.33846 0.07515 0.0
C1458 C 0.54159 0.35321 0.05179 0.0
C1459 C 0.54622 0.36807 0.99722 0.0
C1460 C 0.53304 0.36973 0.96696 0.0
C1461 C 0.52788 0.35797 0.02229 0.0
C1462 C 0.50058 0.36452 0.96275 0.0
C1463 C 0.48208 0.35503 0.98771 0.0
H1464 H 0.9428 0.29849 0.34761 0.0
H1465 H 0.95721 0.20629 0.30855 0.0
H1466 H 0.93974 0.22385 0.25715 0.0
H1467 H 0.92417 0.26633 0.22255 0.0
H1468 H 0.91176 0.35902 0.26139 0.0
H1469 H 0.9245 0.3402 0.31361 0.0
C1470 C 0.94177 0.28209 0.32797 0.0
C1471 C 0.95148 0.25115 0.33195 0.0
C1472 C 0.93228 0.29249 0.29834 0.0
C1473 C 0.95002 0.23028 0.30616 0.0
C1474 C 0.94008 0.24032 0.27672 0.0
C1475 C 0.92395 0.28239 0.24245 0.0
C1476 C 0.91727 0.31414 0.23792 0.0
C1477 C 0.93176 0.27153 0.2724 0.0
C1478 C 0.91706 0.33453 0.26407 0.0
C1479 C 0.92434 0.32379 0.29399 0.0
H1480 H 0.92723 0.68233 0.59194 0.0
H1481 H 0.01131 0.72123 0.55085 0.0
H1482 H 0.99251 0.70526 0.499 0.0
H1483 H 0.95107 0.68371 0.46484 0.0
H1484 H 0.86687 0.64408 0.50451 0.0
H1485 H 0.88703 0.65654 0.55738 0.0
C1486 C 0.94152 0.68704 0.57167 0.0
C1487 C 0.97046 0.70328 0.57535 0.0
C1488 C 0.93055 0.6778 0.54163 0.0
C1489 C 0.98884 0.70896 0.54881 0.0
C1490 C 0.97812 0.69989 0.51904 0.0
C1491 C 0.93715 0.67766 0.48505 0.0
C1492 C 0.90737 0.66346 0.48081 0.0
C1493 C 0.94881 0.68488 0.51514 0.0
C1494 C 0.88986 0.65517 0.50721 0.0
C1495 C 0.90132 0.66239 0.53741 0.0
H1496 H 0.56852 0.25598 0.7085 0.0
H1497 H 0.56988 0.34109 0.65527 0.0
H1498 H 0.58194 0.37168 0.70306 0.0
H1499 H 0.58674 0.3744 0.7607 0.0
H1500 H 0.58458 0.28862 0.81319 0.0
H1501 H 0.57836 0.25819 0.76484 0.0
C1502 C 0.57177 0.28121 0.70727 0.0
C1503 C 0.56789 0.2963 0.67852 0.0
C1504 C 0.5783 0.29856 0.73474 0.0
C1505 C 0.57266 0.32893 0.67718 0.0
C1506 C 0.57939 0.34644 0.70452 0.0
C1507 C 0.58528 0.34905 0.76153 0.0
C1508 C 0.58556 0.33391 0.79061 0.0
C1509 C 0.58144 0.33155 0.73356 0.0
C1510 C 0.58398 0.30098 0.79121 0.0
C1511 C 0.58042 0.28349 0.76356 0.0
H1512 H 0.94768 0.28225 0.94322 0.0
H1513 H 0.0412 0.28284 0.98301 0.0
H1514 H 0.02196 0.30482 0.03189 0.0
H1515 H 0.97797 0.31936 0.0649 0.0
H1516 H 0.88429 0.31772 0.02539 0.0
H1517 H 0.90433 0.3009 0.97489 0.0
C1518 C 0.96395 0.28758 0.96241 0.0
C1519 C 0.99576 0.2806 0.9595 0.0
C1520 C 0.95268 0.29978 0.99068 0.0
C1521 C 0.01653 0.28782 0.9846 0.0
C1522 C 0.00555 0.3003 0.01266 0.0
C1523 C 0.96194 0.31559 0.0452 0.0
C1524 C 0.92961 0.31938 0.04915 0.0
C1525 C 0.97355 0.30563 0.01622 0.0
C1526 C 0.90926 0.31472 0.02319 0.0
C1527 C 0.92068 0.30506 0.99424 0.0
H1528 H 0.94093 0.69869 0.18616 0.0
H1529 H 0.956 0.78756 0.23437 0.0
H1530 H 0.92939 0.76743 0.2801 0.0
H1531 H 0.90755 0.72319 0.30865 0.0
H1532 H 0.89229 0.63386 0.26199 0.0
H1533 H 0.91263 0.6557 0.21319 0.0
C1534 C 0.93798 0.71375 0.20651 0.0
C1535 C 0.95099 0.74442 0.20699 0.0
C1536 C 0.92272 0.70194 0.23304 0.0
C1537 C 0.94664 0.76375 0.23343 0.0
C1538 C 0.93141 0.75228 0.25967 0.0
C1539 C 0.90819 0.70866 0.28761 0.0
C1540 C 0.89888 0.67696 0.28887 0.0
C1541 C 0.92024 0.7212 0.26005 0.0
C1542 C 0.89934 0.65839 0.26148 0.0
C1543 C 0.91122 0.67081 0.2337 0.0
H1544 H 0.55342 0.65093 0.42853 0.0
H1545 H 0.61785 0.73002 0.42329 0.0
H1546 H 0.64767 0.71097 0.46799 0.0
H1547 H 0.6492 0.67757 0.51412 0.0
H1548 H 0.58071 0.60256 0.52312 0.0
H1549 H 0.55914 0.61351 0.47116 0.0
C1550 C 0.57445 0.66345 0.43674 0.0
C1551 C 0.58325 0.69196 0.42319 0.0
C1552 C 0.59061 0.65312 0.46329 0.0
C1553 C 0.61045 0.7082 0.4339 0.0
C1554 C 0.62749 0.69735 0.45939 0.0
C1555 C 0.63031 0.66302 0.50407 0.0
C1556 C 0.61639 0.63944 0.52201 0.0
C1557 C 0.61693 0.67066 0.47514 0.0
C1558 C 0.59159 0.62089 0.50937 0.0
C1559 C 0.57916 0.62728 0.47987 0.0
H1560 H 0.76035 0.56866 0.78194 0.0
H1561 H 0.8269 0.5516 0.70881 0.0
H1562 H 0.79311 0.57693 0.67095 0.0
H1563 H 0.74188 0.59774 0.65735 0.0
H1564 H 0.67486 0.61362 0.73036 0.0
H1565 H 0.71187 0.59537 0.76949 0.0
C1566 C 0.76767 0.57087 0.75783 0.0
C1567 C 0.79575 0.55774 0.74811 0.0
C1568 C 0.74796 0.58506 0.73604 0.0
C1569 C 0.80516 0.56119 0.71686 0.0
C1570 C 0.78584 0.57562 0.69513 0.0
C1571 C 0.73556 0.59774 0.68187 0.0
C1572 C 0.70543 0.60637 0.69079 0.0
C1573 C 0.75673 0.58671 0.70426 0.0
C1574 C 0.69774 0.60657 0.72275 0.0
C1575 C 0.71886 0.5961 0.74519 0.0
H1576 H 0.67719 0.54536 0.99624 0.0
H1577 H 0.74001 0.55018 0.91799 0.0
H1578 H 0.70343 0.5178 0.88633 0.0
H1579 H 0.65634 0.48384 0.88266 0.0
H1580 H 0.59483 0.47676 0.9617 0.0
H1581 H 0.62771 0.51506 0.99095 0.0
C1582 C 0.68278 0.53957 0.97218 0.0
C1583 C 0.71149 0.54989 0.95967 0.0
C1584 C 0.66173 0.52074 0.95414 0.0
C1585 C 0.71818 0.5424 0.92832 0.0
C1586 C 0.69725 0.5239 0.91015 0.0
C1587 C 0.64956 0.4914 0.90592 0.0
C1588 C 0.6231 0.47756 0.91998 0.0
C1589 C 0.66924 0.51245 0.92301 0.0
C1590 C 0.61502 0.48718 0.95036 0.0
C1591 C 0.63397 0.50884 0.96718 0.0
H1592 H 0.72828 0.42892 0.24868 0.0
H1593 H 0.68588 0.43844 0.15705 0.0
H1594 H 0.72781 0.40836 0.13378 0.0
H1595 H 0.7793 0.38439 0.13892 0.0
H1596 H 0.82202 0.37639 0.23068 0.0
H1597 H 0.7769 0.40054 0.25443 0.0
C1598 C 0.72799 0.42416 0.22364 0.0
C1599 C 0.70424 0.43629 0.20458 0.0
C1600 C 0.75231 0.40725 0.21042 0.0
C1601 C 0.704 0.42952 0.17225 0.0
C1602 C 0.72802 0.41241 0.15891 0.0
C1603 C 0.77854 0.38744 0.16416 0.0
C1604 C 0.80426 0.37898 0.18292 0.0
C1605 C 0.75273 0.40188 0.17768 0.0
C1606 C 0.80275 0.38299 0.21562 0.0
C1607 C 0.77697 0.39688 0.22925 0.0
H1608 H 0.832 0.46935 0.49821 0.0
H1609 H 0.8583 0.41381 0.41799 0.0
H1610 H 0.8752 0.46129 0.39096 0.0
H1611 H 0.87574 0.51915 0.38757 0.0
H1612 H 0.84557 0.57359 0.46701 0.0
H1613 H 0.83709 0.52605 0.49684 0.0
C1614 C 0.84193 0.46748 0.47502 0.0
C1615 C 0.84342 0.43811 0.46 0.0
C1616 C 0.85053 0.49482 0.45925 0.0
C1617 C 0.85662 0.43618 0.43003 0.0
C1618 C 0.86615 0.46335 0.41447 0.0
C1619 C 0.86782 0.52049 0.41157 0.0
C1620 C 0.86081 0.54968 0.42495 0.0
C1621 C 0.86214 0.49289 0.42841 0.0
C1622 C 0.85057 0.55126 0.45606 0.0
C1623 C 0.84579 0.52413 0.47317 0.0
H1624 H 0.78655 0.42353 0.80559 0.0
H1625 H 0.80751 0.46514 0.89649 0.0
H1626 H 0.75758 0.44481 0.91609 0.0
H1627 H 0.70551 0.42117 0.90519 0.0
H1628 H 0.68407 0.382 0.81329 0.0
H1629 H 0.73698 0.39527 0.79633 0.0
C1630 C 0.7804 0.42783 0.82983 0.0
C1631 C 0.80035 0.44624 0.84942 0.0
C1632 C 0.75153 0.41673 0.84065 0.0
C1633 C 0.79239 0.45117 0.88089 0.0
C1634 C 0.76381 0.43969 0.89206 0.0
C1635 C 0.7126 0.41501 0.88164 0.0
C1636 C 0.69084 0.40107 0.86035 0.0
C1637 C 0.7428 0.42333 0.87183 0.0
C1638 C 0.70033 0.39316 0.82994 0.0
C1639 C 0.73053 0.40073 0.82023 0.0
H1640 H 0.84374 0.51842 0.0231 0.0
H1641 H 0.83185 0.56653 0.1116 0.0
H1642 H 0.85099 0.52112 0.13943 0.0
H1643 H 0.86744 0.46634 0.13879 0.0
H1644 H 0.87816 0.41818 0.05008 0.0
H1645 H 0.86342 0.46513 0.0223 0.0
C1646 C 0.84556 0.51913 0.04847 0.0
C1647 C 0.83608 0.54579 0.0652 0.0
C1648 C 0.85629 0.49285 0.06435 0.0
C1649 C 0.83882 0.54629 0.09808 0.0
C1650 C 0.84973 0.52029 0.11405 0.0
C1651 C 0.86695 0.46621 0.11338 0.0
C1652 C 0.87364 0.43862 0.09661 0.0
C1653 C 0.85801 0.49323 0.09745 0.0
C1654 C 0.87288 0.43896 0.06365 0.0
C1655 C 0.8644 0.46581 0.04769 0.0
H1656 H 0.67417 0.5886 0.31475 0.0
H1657 H 0.72378 0.55115 0.23563 0.0
H1658 H 0.77293 0.57262 0.25697 0.0
H1659 H 0.80259 0.59763 0.30008 0.0
H1660 H 0.75414 0.63561 0.37943 0.0
H1661 H 0.70378 0.61873 0.35579 0.0
C1662 C 0.69568 0.58547 0.30201 0.0
C1663 C 0.69526 0.56787 0.27386 0.0
C1664 C 0.72412 0.59782 0.3145 0.0
C1665 C 0.72334 0.56433 0.25749 0.0
C1666 C 0.75156 0.57656 0.26968 0.0
C1667 C 0.78097 0.60246 0.31209 0.0
C1668 C 0.78205 0.61736 0.34162 0.0
C1669 C 0.75231 0.59262 0.29849 0.0
C1670 C 0.75389 0.62404 0.35667 0.0
C1671 C 0.72512 0.61426 0.34324 0.0
H1672 H 0.70788 0.43523 0.56895 0.0
H1673 H 0.69781 0.47339 0.4763 0.0
H1674 H 0.66945 0.51741 0.49784 0.0
H1675 H 0.65356 0.5481 0.54343 0.0
H1676 H 0.6647 0.51103 0.63631 0.0
H1677 H 0.68617 0.46312 0.61412 0.0
C1678 C 0.69913 0.45296 0.5534 0.0
C1679 C 0.70547 0.45136 0.52113 0.0
C1680 C 0.68322 0.47842 0.56599 0.0
C1681 C 0.69352 0.47421 0.50124 0.0
C1682 C 0.67738 0.49945 0.51355 0.0
C1683 C 0.66033 0.52935 0.5588 0.0
C1684 C 0.65814 0.53324 0.59146 0.0
C1685 C 0.67306 0.50227 0.54596 0.0
C1686 C 0.66633 0.50859 0.6111 0.0
C1687 C 0.67878 0.48132 0.59843 0.0
H1688 H 0.75415 0.80002 0.578 0.0
H1689 H 0.66802 0.83817 0.54306 0.0
H1690 H 0.63826 0.79453 0.56516 0.0
H1691 H 0.63727 0.74293 0.58917 0.0
H1692 H 0.72349 0.70364 0.62248 0.0
H1693 H 0.75252 0.75062 0.60666 0.0
C1694 C 0.72883 0.79903 0.57559 0.0
C1695 C 0.7134 0.82208 0.55851 0.0
C1696 C 0.71187 0.77358 0.58789 0.0
C1697 C 0.68055 0.82056 0.5558 0.0
C1698 C 0.66348 0.79558 0.56841 0.0
C1699 C 0.66235 0.74476 0.5934 0.0
C1700 C 0.67821 0.71955 0.60652 0.0
C1701 C 0.67899 0.77153 0.58369 0.0
C1702 C 0.71069 0.72253 0.61211 0.0
C1703 C 0.72736 0.74937 0.60299 0.0
H1704 H 0.24723 0.72854 0.44531 0.0
H1705 H 0.16038 0.67456 0.44547 0.0
H1706 H 0.13292 0.71849 0.4228 0.0
H1707 H 0.13262 0.77419 0.40893 0.0
H1708 H 0.21962 0.82816 0.41056 0.0
H1709 H 0.2479 0.78217 0.42648 0.0
C1710 C 0.22238 0.72615 0.43996 0.0
C1711 C 0.20581 0.6985 0.44752 0.0
C1712 C 0.20665 0.75166 0.42764 0.0
C1713 C 0.17368 0.69568 0.44007 0.0
C1714 C 0.15791 0.72086 0.42727 0.0
C1715 C 0.1578 0.77582 0.41243 0.0
C1716 C 0.17383 0.80476 0.40914 0.0
C1717 C 0.17399 0.74931 0.42195 0.0
C1718 C 0.20656 0.80633 0.41341 0.0
C1719 C 0.22281 0.78002 0.42248 0.0
H1720 H 0.53917 0.0019 0.70207 0.0
H1721 H 0.59561 0.9216 0.68326 0.0
H1722 H 0.55311 0.89765 0.65168 0.0
H1723 H 0.49795 0.89696 0.63441 0.0
H1724 H 0.44171 0.97743 0.65345 0.0
H1725 H 0.48617 0.00383 0.67971 0.0
C1726 C 0.54237 0.97938 0.69068 0.0
C1727 C 0.57035 0.96338 0.69543 0.0
C1728 C 0.51773 0.96556 0.67285 0.0
C1729 C 0.57426 0.93438 0.68016 0.0
C1730 C 0.54989 0.92056 0.66222 0.0
C1731 C 0.49551 0.92039 0.64403 0.0
C1732 C 0.46637 0.93491 0.64242 0.0
C1733 C 0.52119 0.9355 0.65923 0.0
C1734 C 0.46377 0.96552 0.65455 0.0
C1735 C 0.48918 0.98068 0.66966 0.0
H1736 H 0.31481 0.33073 0.93345 0.0
H1737 H 0.23573 0.28721 0.97917 0.0
H1738 H 0.2419 0.23957 0.94801 0.0
H1739 H 0.27393 0.20802 0.91316 0.0
H1740 H 0.35556 0.24992 0.87071 0.0
H1741 H 0.34379 0.30063 0.89447 0.0
C1742 C 0.29865 0.311 0.93624 0.0
C1743 C 0.27517 0.31236 0.95892 0.0
C1744 C 0.30278 0.28335 0.91876 0.0
C1745 C 0.25433 0.28661 0.9622 0.0
C1746 C 0.25777 0.25935 0.94433 0.0
C1747 C 0.28854 0.22849 0.90832 0.0
C1748 C 0.31554 0.22536 0.89026 0.0
C1749 C 0.28248 0.25713 0.92325 0.0
C1750 C 0.33462 0.2519 0.88458 0.0
C1751 C 0.32805 0.28079 0.89835 0.0
H1752 H 0.44209 0.5216 0.63317 0.0
H1753 H 0.40545 0.61259 0.65422 0.0
H1754 H 0.45387 0.63768 0.63623 0.0
H1755 H 0.50943 0.63299 0.62463 0.0
H1756 H 0.54766 0.54156 0.60925 0.0
H1757 H 0.49564 0.51735 0.6146 0.0
C1758 C 0.44433 0.54695 0.63298 0.0
C1759 C 0.42055 0.56525 0.64549 0.0
C1760 C 0.47276 0.56106 0.62421 0.0
C1761 C 0.4237 0.59805 0.64504 0.0
C1762 C 0.45141 0.61237 0.63494 0.0
C1763 C 0.5063 0.60782 0.62177 0.0
C1764 C 0.5324 0.58899 0.61727 0.0
C1765 C 0.47663 0.59401 0.62609 0.0
C1766 C 0.52795 0.55646 0.61334 0.0
C1767 C 0.49825 0.54262 0.61639 0.0
H1768 H 0.8231 0.15468 0.07054 0.0
H1769 H 0.73519 0.202 0.06431 0.0
H1770 H 0.75729 0.24591 0.09507 0.0
H1771 H 0.80314 0.27363 0.1176 0.0
H1772 H 0.89197 0.22776 0.12163 0.0
H1773 H 0.86772 0.18033 0.0985 0.0
C1774 C 0.80862 0.17435 0.07637 0.0
C1775 C 0.77771 0.17527 0.0647 0.0
C1776 C 0.82168 0.19991 0.09351 0.0
C1777 C 0.75921 0.20087 0.07262 0.0
C1778 C 0.77181 0.22603 0.09021 0.0
C1779 C 0.81716 0.25312 0.11394 0.0
C1780 C 0.84947 0.25452 0.12082 0.0
C1781 C 0.8033 0.22625 0.09984 0.0
C1782 C 0.86711 0.22751 0.11624 0.0
C1783 C 0.85329 0.20039 0.10287 0.0
H1784 H 0.54919 0.05567 0.84126 0.0
H1785 H 0.49929 0.96704 0.82884 0.0
H1786 H 0.45126 0.99069 0.84691 0.0
H1787 H 0.42223 0.03776 0.85984 0.0
H1788 H 0.47173 0.12688 0.87001 0.0
H1789 H 0.52115 0.10164 0.85957 0.0
C1790 C 0.52796 0.04135 0.84299 0.0
C1791 C 0.52777 0.00971 0.83325 0.0
C1792 C 0.50024 0.05526 0.8527 0.0
C1793 C 0.50006 0.99151 0.8359 0.0
C1794 C 0.47253 0.00504 0.84613 0.0
C1795 C 0.44385 0.05166 0.86021 0.0
C1796 C 0.44312 0.0843 0.86517 0.0
C1797 C 0.47213 0.03712 0.85357 0.0
C1798 C 0.47148 0.1018 0.86592 0.0
C1799 C 0.49979 0.08739 0.85988 0.0
H1800 H 0.93136 0.92518 0.29544 0.0
H1801 H 0.96618 0.02066 0.28896 0.0
H1802 H 0.01277 0.00782 0.31914 0.0
H1803 H 0.04607 0.96845 0.34278 0.0
H1804 H 0.01165 0.87277 0.34867 0.0
H1805 H 0.96247 0.88691 0.32377 0.0
C1806 C 0.94894 0.94327 0.30096 0.0
C1807 C 0.94541 0.9737 0.28955 0.0
C1808 C 0.97593 0.9357 0.31811 0.0
C1809 C 0.96833 0.99694 0.2972 0.0
C1810 C 0.99509 0.98963 0.31444 0.0
C1811 C 0.02768 0.95075 0.33903 0.0
C1812 C 0.03285 0.91951 0.34716 0.0
C1813 C -0.00049 0.95891 0.32431 0.0
C1814 C 0.00854 0.89697 0.34237 0.0
C1815 C 0.98036 0.90499 0.32804 0.0
H1816 H 0.4015 0.35025 0.18048 0.0
H1817 H 0.41832 0.25957 0.22003 0.0
H1818 H 0.40592 0.2796 0.27193 0.0
H1819 H 0.39905 0.32462 0.30687 0.0
H1820 H 0.38272 0.41557 0.26844 0.0
H1821 H 0.38588 0.39365 0.21514 0.0
C1822 C 0.40174 0.33467 0.20032 0.0
C1823 C 0.41163 0.30369 0.19651 0.0
C1824 C 0.39516 0.34651 0.23031 0.0
C1825 C 0.41136 0.28369 0.22239 0.0
C1826 C 0.40439 0.29513 0.25213 0.0
C1827 C 0.39567 0.33947 0.28674 0.0
C1828 C 0.39132 0.37163 0.29126 0.0
C1829 C 0.39773 0.32679 0.25649 0.0
C1830 C 0.38628 0.39071 0.26529 0.0
C1831 C 0.38825 0.37821 0.23492 0.0
H1832 H 0.39763 0.73242 0.93114 0.0
H1833 H 0.49718 0.72361 0.94607 0.0
H1834 H 0.48779 0.69754 0.99556 0.0
H1835 H 0.45155 0.67984 0.03606 0.0
H1836 H 0.35196 0.68861 0.02108 0.0
H1837 H 0.36124 0.71179 0.97017 0.0
C1838 C 0.41726 0.72464 0.94512 0.0
C1839 C 0.44802 0.73022 0.93501 0.0
C1840 C 0.41175 0.70968 0.97365 0.0
C1841 C 0.47321 0.71974 0.95331 0.0
C1842 C 0.4679 0.70484 0.98169 0.0
C1843 C 0.43185 0.6866 0.02158 0.0
C1844 C 0.40116 0.68275 0.03259 0.0
C1845 C 0.43729 0.70009 0.99231 0.0
C1846 C 0.3759 0.69143 0.01334 0.0
C1847 C 0.38114 0.70477 0.98419 0.0
H1848 H 0.08377 0.72517 0.71986 0.0
H1849 H 0.05876 0.63754 0.67319 0.0
H1850 H 0.07452 0.60894 0.71975 0.0
H1851 H 0.09039 0.60928 0.77541 0.0
H1852 H 0.11322 0.69745 0.8222 0.0
H1853 H 0.10328 0.72528 0.77384 0.0
C1854 C 0.08219 0.69978 0.71962 0.0
C1855 C 0.06979 0.68357 0.69316 0.0
C1856 C 0.09049 0.68357 0.74668 0.0
C1857 C 0.06803 0.65065 0.69331 0.0
C1858 C 0.07691 0.63427 0.71998 0.0
C1859 C 0.09344 0.63455 0.77497 0.0
C1860 C 0.10208 0.65125 0.80256 0.0
C1861 C 0.08732 0.65055 0.74711 0.0
C1862 C 0.10617 0.68399 0.80146 0.0
C1863 C 0.10056 0.69998 0.77378 0.0
H1864 H 0.0001 0.28358 0.46959 0.0
H1865 H 0.08505 0.30804 0.42119 0.0
H1866 H 0.10281 0.34071 0.46592 0.0
H1867 H 0.09687 0.35663 0.52115 0.0
H1868 H 0.01164 0.33147 0.56916 0.0
H1869 H 0.99118 0.30509 0.52199 0.0
C1870 C 0.02231 0.29645 0.46867 0.0
C1871 C 0.04149 0.29308 0.44245 0.0
C1872 C 0.03242 0.31482 0.49447 0.0
C1873 C 0.06993 0.31024 0.44122 0.0
C1874 C 0.08016 0.32874 0.46686 0.0
C1875 C 0.07364 0.34576 0.52118 0.0
C1876 C 0.05614 0.34549 0.5489 0.0
C1877 C 0.06203 0.33034 0.494 0.0
C1878 C 0.02584 0.33176 0.54833 0.0
C1879 C 0.01409 0.31656 0.52137 0.0
H1880 H 0.48869 0.68536 0.31448 0.0
H1881 H 0.42198 0.7593 0.31896 0.0
H1882 H 0.39714 0.74003 0.27021 0.0
H1883 H 0.39746 0.70482 0.22394 0.0
H1884 H 0.46232 0.62922 0.22105 0.0
H1885 H 0.48489 0.64641 0.27161 0.0
C1886 C 0.46842 0.69693 0.30498 0.0
C1887 C 0.45733 0.72383 0.32001 0.0
C1888 C 0.4542 0.68564 0.27711 0.0
C1889 C 0.43086 0.73847 0.30779 0.0
C1890 C 0.41681 0.72763 0.27981 0.0
C1891 C 0.41638 0.69207 0.23461 0.0
C1892 C 0.42856 0.66614 0.21885 0.0
C1893 C 0.42878 0.70171 0.26389 0.0
C1894 C 0.45267 0.64931 0.23291 0.0
C1895 C 0.46561 0.65916 0.2617 0.0
H1896 H 0.02887 0.67151 0.06922 0.0
H1897 H 0.12098 0.703 0.1007 0.0
H1898 H 0.14462 0.67312 0.05837 0.0
H1899 H 0.13842 0.6444 0.00815 0.0
H1900 H 0.04592 0.6145 0.97624 0.0
H1901 H 0.02325 0.63692 0.02329 0.0
C1902 C 0.05415 0.67148 0.06711 0.0
C1903 C 0.07308 0.68992 0.08767 0.0
C1904 C 0.06753 0.65464 0.04251 0.0
C1905 C 0.10583 0.6892 0.08499 0.0
C1906 C 0.11938 0.6722 0.06071 0.0
C1907 C 0.11341 0.64209 0.01189 0.0
C1908 C 0.09383 0.6283 0.9885 0.0
C1909 C 0.10038 0.65573 0.03869 0.0
C1910 C 0.06145 0.62544 0.9937 0.0
C1911 C 0.04843 0.63833 0.02055 0.0
H1912 H 0.078 0.33 0.84747 0.0
H1913 H 0.09919 0.23747 0.81317 0.0
H1914 H 0.10486 0.25758 0.76027 0.0
H1915 H 0.09866 0.30035 0.723 0.0
H1916 H 0.07636 0.39254 0.75758 0.0
H1917 H 0.07624 0.37353 0.81106 0.0
C1918 C 0.08434 0.31428 0.82855 0.0
C1919 C 0.08775 0.28223 0.83423 0.0
C1920 C 0.0869 0.32582 0.7981 0.0
C1921 C 0.09621 0.26225 0.80944 0.0
C1922 C 0.09929 0.27368 0.77912 0.0
C1923 C 0.09388 0.31631 0.74224 0.0
C1924 C 0.08698 0.34767 0.73618 0.0
C1925 C 0.09375 0.30523 0.77304 0.0
C1926 C 0.08138 0.36817 0.76147 0.0
C1927 C 0.08135 0.35735 0.79212 0.0
H1928 H 0.46292 0.33785 0.58535 0.0
H1929 H 0.49442 0.25806 0.53221 0.0
H1930 H 0.48103 0.28361 0.48358 0.0
H1931 H 0.45874 0.32713 0.45601 0.0
H1932 H 0.42435 0.40636 0.50777 0.0
H1933 H 0.44113 0.38274 0.55699 0.0
C1934 C 0.46684 0.32609 0.56313 0.0
C1935 C 0.47951 0.29597 0.56256 0.0
C1936 C 0.45884 0.34088 0.53496 0.0
C1937 C 0.48451 0.28111 0.5335 0.0
C1938 C 0.47699 0.29576 0.50557 0.0
C1939 C 0.45525 0.33958 0.47796 0.0
C1940 C 0.44032 0.36854 0.47812 0.0
C1941 C 0.464 0.3255 0.50603 0.0
C1942 C 0.43582 0.38406 0.50693 0.0
C1943 C 0.44525 0.37047 0.5351 0.0
H1944 H 0.19241 0.4086 0.3196 0.0
H1945 H 0.20549 0.50898 0.3295 0.0
H1946 H 0.25454 0.50211 0.35749 0.0
H1947 H 0.29627 0.46833 0.37448 0.0
H1948 H 0.28445 0.36807 0.36626 0.0
H1949 H 0.23217 0.3741 0.34268 0.0
C1950 C 0.2058 0.42892 0.32826 0.0
C1951 C 0.19549 0.45924 0.32188 0.0
C1952 C 0.23429 0.42487 0.34447 0.0
C1953 C 0.21297 0.48534 0.33361 0.0
C1954 C 0.24112 0.4815 0.34966 0.0
C1955 C 0.28205 0.44779 0.36782 0.0
C1956 C 0.29411 0.41787 0.37156 0.0
C1957 C 0.25238 0.45149 0.35441 0.0
C1958 C 0.27546 0.39136 0.36347 0.0
C1959 C 0.24573 0.39483 0.34986 0.0
H1960 H 0.29869 0.48265 0.00447 0.0
H1961 H 0.33581 0.42278 0.07587 0.0
H1962 H 0.3623 0.46779 0.10128 0.0
H1963 H 0.36932 0.52479 0.10687 0.0
H1964 H 0.33116 0.58464 0.03596 0.0
H1965 H 0.31088 0.53893 0.00672 0.0
C1966 C 0.31304 0.47931 0.02525 0.0
C1967 C 0.31478 0.44949 0.03854 0.0
C1968 C 0.32767 0.50537 0.04015 0.0
C1969 C 0.33377 0.44556 0.06531 0.0
C1970 C 0.34882 0.47131 0.07998 0.0
C1971 C 0.35682 0.52783 0.08488 0.0
C1972 C 0.35123 0.55812 0.07401 0.0
C1973 C 0.34497 0.50146 0.06824 0.0
C1974 C 0.33549 0.56162 0.04514 0.0
C1975 C 0.32384 0.53548 0.02836 0.0
H1976 H 0.2913 0.59078 0.76215 0.0
H1977 H 0.34616 0.56718 0.84373 0.0
H1978 H 0.30057 0.57428 0.87689 0.0
H1979 H 0.24363 0.58156 0.88156 0.0
H1980 H 0.18937 0.6028 0.79869 0.0
H1981 H 0.23626 0.60199 0.76726 0.0
C1982 C 0.2935 0.58759 0.78725 0.0
C1983 C 0.32195 0.57804 0.80037 0.0
C1984 C 0.26713 0.59075 0.80592 0.0
C1985 C 0.32445 0.57438 0.83299 0.0
C1986 C 0.29833 0.57821 0.85194 0.0
C1987 C 0.24215 0.5862 0.85668 0.0
C1988 C 0.21294 0.59161 0.84245 0.0
C1989 C 0.26929 0.58542 0.83848 0.0
C1990 C 0.21144 0.59796 0.81021 0.0
C1991 C 0.23827 0.59766 0.79217 0.0
H1992 H 0.15166 0.55612 0.52808 0.0
H1993 H 0.15683 0.60213 0.6188 0.0
H1994 H 0.13062 0.55686 0.64227 0.0
H1995 H 0.11305 0.50181 0.63808 0.0
H1996 H 0.11027 0.4552 0.54755 0.0
H1997 H 0.12837 0.50341 0.52291 0.0
C1998 C 0.1467 0.55647 0.55293 0.0
C1999 C 0.15674 0.58221 0.57177 0.0
C2000 C 0.13228 0.53017 0.56635 0.0
C2001 C 0.14963 0.58249 0.60381 0.0
C2002 C 0.13475 0.55656 0.61727 0.0
C2003 C 0.11587 0.50228 0.61288 0.0
C2004 C 0.11089 0.47472 0.59479 0.0
C2005 C 0.127 0.52986 0.59894 0.0
C2006 C 0.11433 0.47592 0.56212 0.0
C2007 C 0.12477 0.50347 0.54799 0.0
H2008 H 0.2363 0.579 0.26754 0.0
H2009 H 0.17362 0.5711 0.18745 0.0
H2010 H 0.21457 0.59252 0.1539 0.0
H2011 H 0.26944 0.60912 0.14659 0.0
H2012 H 0.33263 0.61429 0.22647 0.0
H2013 H 0.29011 0.59838 0.26081 0.0
C2014 C 0.2314 0.58238 0.24284 0.0
C2015 C 0.20201 0.57331 0.22999 0.0
C2016 C 0.25525 0.59392 0.22357 0.0
C2017 C 0.19612 0.57776 0.1979 0.0
C2018 C 0.21954 0.58993 0.17868 0.0
C2019 C 0.27385 0.60709 0.17156 0.0
C2020 C 0.30425 0.61259 0.18388 0.0
C2021 C 0.24942 0.59738 0.19113 0.0
C2022 C 0.30953 0.60986 0.2163 0.0
C2023 C 0.28522 0.60081 0.23599 0.0
H2024 H 0.1783 0.40472 0.94439 0.0
H2025 H 0.18237 0.44499 0.03778 0.0
H2026 H 0.16044 0.49325 0.01829 0.0
H2027 H 0.1465 0.52602 0.97403 0.0
H2028 H 0.14471 0.48675 0.8802 0.0
H2029 H 0.15906 0.43595 0.9007 0.0
C2030 C 0.17383 0.4238 0.96061 0.0
C2031 C 0.18236 0.4214 0.99242 0.0
C2032 C 0.16201 0.45181 0.94912 0.0
C2033 C 0.17629 0.44633 0.01312 0.0
C2034 C 0.16386 0.47399 0.00198 0.0
C2035 C 0.14893 0.5063 0.95803 0.0
C2036 C 0.14513 0.51037 0.92557 0.0
C2037 C 0.1577 0.47735 0.96988 0.0
C2038 C 0.14784 0.4844 0.90527 0.0
C2039 C 0.1561 0.45533 0.91697 0.0
H2040 H 0.26717 0.46491 0.74635 0.0
H2041 H 0.30637 0.48064 0.65506 0.0
H2042 H 0.2619 0.45231 0.63041 0.0
H2043 H 0.20959 0.42748 0.63465 0.0
H2044 H 0.17038 0.41293 0.72621 0.0
H2045 H 0.21736 0.43617 0.75083 0.0
C2046 C 0.26617 0.4619 0.72107 0.0
C2047 C 0.2898 0.47521 0.70256 0.0
C2048 C 0.24045 0.44594 0.70707 0.0
C2049 C 0.28836 0.47077 0.66986 0.0
C2050 C 0.2629 0.45465 0.65573 0.0
C2051 C 0.2115 0.429 0.65999 0.0
C2052 C 0.1863 0.41892 0.6785 0.0
C2053 C 0.23845 0.44279 0.67407 0.0
C2054 C 0.18924 0.4209 0.71135 0.0
C2055 C 0.2161 0.43419 0.72549 0.0
H2056 H 0.32784 0.5966 0.44101 0.0
H2057 H 0.28235 0.54769 0.51646 0.0
H2058 H 0.31445 0.50242 0.50718 0.0
H2059 H 0.35051 0.47453 0.47407 0.0
H2060 H 0.39415 0.52136 0.39641 0.0
H2061 H 0.3686 0.56994 0.4109 0.0
C2062 C 0.32522 0.57616 0.45562 0.0
C2063 C 0.30231 0.57534 0.47899 0.0
C2064 C 0.3435 0.54985 0.44987 0.0
C2065 C 0.29941 0.54879 0.49794 0.0
C2066 C 0.31785 0.52288 0.49275 0.0
C2067 C 0.35493 0.49549 0.46057 0.0
C2068 C 0.37373 0.49412 0.43386 0.0
C2069 C 0.33926 0.52284 0.46824 0.0
C2070 C 0.37962 0.52167 0.417 0.0
C2071 C 0.36476 0.54939 0.42508 0.0
H2072 H 0.30448 0.20304 0.39891 0.0
H2073 H 0.31205 0.21915 0.49899 0.0
H2074 H 0.34258 0.26682 0.49089 0.0
H2075 H 0.36369 0.30596 0.45616 0.0
H2076 H 0.35728 0.29219 0.35603 0.0
H2077 H 0.33012 0.24137 0.36334 0.0
C2078 C 0.31313 0.21686 0.41886 0.0
C2079 C 0.30551 0.20776 0.44946 0.0
C2080 C 0.33071 0.24471 0.41409 0.0
C2081 C 0.31705 0.2258 0.47514 0.0
C2082 C 0.33462 0.25311 0.47061 0.0
C2083 C 0.35644 0.2918 0.43588 0.0
C2084 C 0.3619 0.30287 0.40565 0.0
C2085 C 0.34093 0.2631 0.44028 0.0
C2086 C 0.35313 0.28405 0.37957 0.0
C2087 C 0.33752 0.25514 0.38377 0.0
H2088 H 0.8655 0.33686 0.59641 0.0
H2089 H 0.76502 0.3234 0.59129 0.0
H2090 H 0.76838 0.27674 0.62303 0.0
H2091 H 0.80015 0.23568 0.64515 0.0
H2092 H 0.90085 0.24735 0.64834 0.0
H2093 H 0.89698 0.29902 0.62525 0.0
C2094 C 0.84433 0.32406 0.60278 0.0
C2095 C 0.81517 0.3332 0.59094 0.0
C2096 C 0.84643 0.29673 0.62053 0.0
C2097 C 0.78787 0.31651 0.5996 0.0
C2098 C 0.78972 0.2898 0.61779 0.0
C2099 C 0.82125 0.24975 0.64145 0.0
C2100 C 0.85074 0.23732 0.64779 0.0
C2101 C 0.81895 0.27902 0.62731 0.0
C2102 C 0.87781 0.25612 0.64319 0.0
C2103 C 0.87566 0.28566 0.62984 0.0
H2104 H 0.44333 0.07307 0.3247 0.0
H2105 H 0.48458 0.98329 0.34038 0.0
H2106 H 0.5341 0.00931 0.35555 0.0
H2107 H 0.56728 0.0569 0.35752 0.0
H2108 H 0.52656 0.14657 0.34013 0.0
H2109 H 0.47508 0.12115 0.33265 0.0
C2110 C 0.46296 0.05917 0.33195 0.0
C2111 C 0.46044 0.02629 0.33082 0.0
C2112 C 0.49156 0.07422 0.3399 0.0
C2113 C 0.48598 0.00865 0.34072 0.0
C2114 C 0.51437 0.02349 0.34924 0.0
C2115 C 0.54709 0.07093 0.35233 0.0
C2116 C 0.55082 0.10347 0.34869 0.0
C2117 C 0.51771 0.05617 0.34773 0.0
C2118 C 0.52436 0.12143 0.3427 0.0
C2119 C 0.49494 0.10691 0.33838 0.0
H2120 H 0.69146 0.6736 0.01006 0.0
H2121 H 0.78178 0.68562 0.05567 0.0
H2122 H 0.7656 0.7352 0.07906 0.0
H2123 H 0.72587 0.77603 0.0853 0.0
H2124 H 0.63495 0.76175 0.04137 0.0
H2125 H 0.65135 0.71239 0.01835 0.0
C2126 C 0.70756 0.68697 0.02527 0.0
C2127 C 0.73777 0.67604 0.03102 0.0
C2128 C 0.69807 0.71523 0.03871 0.0
C2129 C 0.75829 0.69347 0.051 0.0
C2130 C 0.74913 0.72192 0.06422 0.0
C2131 C 0.70981 0.76208 0.07057 0.0
C2132 C 0.67937 0.77254 0.06483 0.0
C2133 C 0.71916 0.73322 0.05796 0.0
C2134 C 0.65851 0.75412 0.04614 0.0
C2135 C 0.66784 0.7259 0.03297 0.0
H2136 H 0.5617 0.49479 0.29297 0.0
H2137 H 0.60064 0.40264 0.29648 0.0
H2138 H 0.5591 0.38551 0.33156 0.0
H2139 H 0.50845 0.395 0.35628 0.0
H2140 H 0.46796 0.48614 0.34958 0.0
H2141 H 0.51363 0.50552 0.32124 0.0
C2142 C 0.56137 0.47106 0.3017 0.0
C2143 C 0.58404 0.44994 0.29178 0.0
C2144 C 0.53707 0.46116 0.32131 0.0
C2145 C 0.58329 0.41931 0.30346 0.0
C2146 C 0.55954 0.40948 0.32355 0.0
C2147 C 0.51005 0.4193 0.34931 0.0
C2148 C 0.48492 0.43912 0.35492 0.0
C2149 C 0.53585 0.42996 0.33198 0.0
C2150 C 0.48703 0.47044 0.34539 0.0
C2151 C 0.51304 0.48149 0.32906 0.0
H2152 H 0.24945 0.77705 0.94953 0.0
H2153 H 0.16253 0.81956 0.97472 0.0
H2154 H 0.13307 0.77485 0.95214 0.0
H2155 H 0.13224 0.72179 0.92972 0.0
H2156 H 0.21931 0.67871 0.90594 0.0
H2157 H 0.24842 0.72582 0.9232 0.0
C2158 C 0.22405 0.77669 0.94983 0.0
C2159 C 0.20823 0.80136 0.96413 0.0
C2160 C 0.20728 0.75079 0.93718 0.0
C2161 C 0.17531 0.8007 0.96406 0.0
C2162 C 0.15842 0.77515 0.95119 0.0
C2163 C 0.15755 0.72284 0.9279 0.0
C2164 C 0.17359 0.69663 0.91701 0.0
C2165 C 0.1742 0.74976 0.93835 0.0
C2166 C 0.20639 0.69844 0.91463 0.0
C2167 C 0.22309 0.72534 0.92451 0.0
H2168 H 0.46353 0.90318 0.21317 0.0
H2169 H 0.50079 -0.00196 0.21083 0.0
H2170 H 0.547 0.98012 0.1837 0.0
H2171 H 0.57828 0.93722 0.1632 0.0
H2172 H 0.54094 0.84236 0.16537 0.0
H2173 H 0.49342 0.86065 0.18984 0.0
C2174 C 0.48162 0.91998 0.20649 0.0
C2175 C 0.47874 0.95187 0.21425 0.0
C2176 C 0.50829 0.90951 0.19101 0.0
C2177 C 0.50238 0.97332 0.20525 0.0
C2178 C 0.52891 0.9631 0.1898 0.0
C2179 C 0.55972 0.92055 0.16893 0.0
C2180 C 0.56338 0.88844 0.16272 0.0
C2181 C 0.53236 0.9312 0.18301 0.0
C2182 C 0.53888 0.86722 0.16998 0.0
C2183 C 0.51165 0.87763 0.18403 0.0
H2184 H 8e-05 0.97746 0.68204 0.0
H2185 H 0.06601 0.05047 0.65576 0.0
H2186 H 0.02324 0.08652 0.64852 0.0
H2187 H 0.96825 0.09887 0.65541 0.0
H2188 H 0.90233 0.02666 0.68368 0.0
H2189 H 0.94405 0.98863 0.68418 0.0
C2190 C 0.00505 0.00106 0.67411 0.0
C2191 C 0.0362 0.01138 0.66975 0.0
C2192 C 0.98043 0.02192 0.6708 0.0
C2193 C 0.04224 0.04204 0.65951 0.0
C2194 C 0.01782 0.06271 0.65549 0.0
C2195 C 0.96291 0.07477 0.6615 0.0
C2196 C 0.93234 0.06577 0.67006 0.0
C2197 C 0.987 0.05317 0.66209 0.0
C2198 C 0.92573 0.0343 0.67729 0.0
C2199 C 0.94958 0.01254 0.67761 0.0
loop_
_geom_bond_atom_site_label_1
_geom_bond_atom_site_label_2
_geom_bond_distance
_geom_bond_site_symmetry_2
_ccdc_geom_bond_type
C0 O1 1.160 . S
C0 O7 1.185 . S
O1 C0 1.160 . S
O2 Zn3 1.899 . S
O2 C10 1.284 . S
Zn3 O2 1.899 . S
Zn3 O4 2.032 1_455 S
Zn3 O7 2.086 . S
Zn3 O12 1.977 1_455 S
O4 Zn3 2.032 1_655 S
O4 C8 1.278 . S
C5 O6 1.203 . S
C5 O12 1.267 . S
O6 C5 1.203 . S
O7 C0 1.185 . S
O7 Zn3 2.086 . S
C8 O4 1.278 . S
C8 O9 1.211 . S
O9 C8 1.211 . S
C10 O2 1.284 . S
C10 O11 1.273 . S
O11 C10 1.273 . S
O12 Zn3 1.977 1_655 S
O12 C5 1.267 . S
C13 O14 1.160 . S
C13 O20 1.185 . S
O14 C13 1.160 . S
O15 Zn16 1.899 1_655 S
O15 C23 1.284 . S
Zn16 O15 1.899 1_455 S
Zn16 O17 2.032 1_455 S
Zn16 O20 2.086 . S
Zn16 O25 1.977 . S
O17 Zn16 2.032 1_655 S
O17 C21 1.278 . S
C18 O19 1.203 . S
C18 O25 1.267 . S
O19 C18 1.203 . S
O20 C13 1.185 . S
O20 Zn16 2.086 . S
C21 O17 1.278 . S
C21 O22 1.211 . S
O22 C21 1.211 . S
C23 O15 1.284 . S
C23 O24 1.273 . S
O24 C23 1.273 . S
O25 Zn16 1.977 . S
O25 C18 1.267 . S
C26 O27 1.160 . S
C26 O33 1.185 . S
O27 C26 1.160 . S
O28 Zn29 1.899 . S
O28 C36 1.284 . S
Zn29 O28 1.899 . S
Zn29 O30 2.032 . S
Zn29 O33 2.086 . S
Zn29 O38 1.977 . S
O30 Zn29 2.032 . S
O30 C34 1.278 . S
C31 O32 1.203 . S
C31 O38 1.267 . S
O32 C31 1.203 . S
O33 C26 1.185 . S
O33 Zn29 2.086 . S
C34 O30 1.278 . S
C34 O35 1.211 . S
O35 C34 1.211 . S
C36 O28 1.284 . S
C36 O37 1.273 . S
O37 C36 1.273 . S
O38 Zn29 1.977 . S
O38 C31 1.267 . S
C39 O40 1.160 . S
C39 O46 1.185 . S
O40 C39 1.160 . S
O41 Zn42 1.899 . S
O41 C49 1.284 . S
Zn42 O41 1.899 . S
Zn42 O43 2.032 . S
Zn42 O46 2.086 . S
Zn42 O51 1.977 . S
O43 Zn42 2.032 . S
O43 C47 1.278 . S
C44 O45 1.203 . S
C44 O51 1.267 . S
O45 C44 1.203 . S
O46 C39 1.185 . S
O46 Zn42 2.086 . S
C47 O43 1.278 . S
C47 O48 1.211 . S
O48 C47 1.211 . S
C49 O41 1.284 . S
C49 O50 1.273 . S
O50 C49 1.273 . S
O51 Zn42 1.977 . S
O51 C44 1.267 . S
C52 O53 1.160 . S
C52 O59 1.185 . S
O53 C52 1.160 . S
O54 Zn55 1.899 . S
O54 C62 1.284 . S
Zn55 O54 1.899 . S
Zn55 O56 2.032 1_455 S
Zn55 O59 2.086 . S
Zn55 O64 1.977 1_455 S
O56 Zn55 2.032 1_655 S
O56 C60 1.278 . S
C57 O58 1.203 . S
C57 O64 1.267 . S
O58 C57 1.203 . S
O59 C52 1.185 . S
O59 Zn55 2.086 . S
C60 O56 1.278 . S
C60 O61 1.211 . S
O61 C60 1.211 . S
C62 O54 1.284 . S
C62 O63 1.273 . S
O63 C62 1.273 . S
O64 Zn55 1.977 1_655 S
O64 C57 1.267 . S
C65 O66 1.160 . S
C65 O72 1.185 . S
O66 C65 1.160 . S
O67 Zn68 1.899 . S
O67 C75 1.284 . S
Zn68 O67 1.899 . S
Zn68 O69 2.032 . S
Zn68 O72 2.086 . S
Zn68 O77 1.977 . S
O69 Zn68 2.032 . S
O69 C73 1.278 . S
C70 O71 1.203 . S
C70 O77 1.267 . S
O71 C70 1.203 . S
O72 C65 1.185 . S
O72 Zn68 2.086 . S
C73 O69 1.278 . S
C73 O74 1.211 . S
O74 C73 1.211 . S
C75 O67 1.284 . S
C75 O76 1.273 . S
O76 C75 1.273 . S
O77 Zn68 1.977 . S
O77 C70 1.267 . S
C78 O79 1.160 . S
C78 O85 1.185 . S
O79 C78 1.160 . S
O80 Zn81 1.899 . S
O80 C88 1.284 . S
Zn81 O80 1.899 . S
Zn81 O82 2.032 . S
Zn81 O85 2.086 . S
Zn81 O90 1.977 . S
O82 Zn81 2.032 . S
O82 C86 1.278 . S
C83 O84 1.203 . S
C83 O90 1.267 . S
O84 C83 1.203 . S
O85 C78 1.185 . S
O85 Zn81 2.086 . S
C86 O82 1.278 . S
C86 O87 1.211 . S
O87 C86 1.211 . S
C88 O80 1.284 . S
C88 O89 1.273 . S
O89 C88 1.273 . S
O90 Zn81 1.977 . S
O90 C83 1.267 . S
C91 O92 1.160 . S
C91 O98 1.185 . S
O92 C91 1.160 . S
O93 Zn94 1.899 . S
O93 C101 1.284 1_455 S
Zn94 O93 1.899 . S
Zn94 O95 2.032 1_455 S
Zn94 O98 2.086 . S
Zn94 O103 1.977 . S
O95 Zn94 2.032 1_655 S
O95 C99 1.278 . S
C96 O97 1.203 . S
C96 O103 1.267 . S
O97 C96 1.203 . S
O98 C91 1.185 . S
O98 Zn94 2.086 . S
C99 O95 1.278 . S
C99 O100 1.211 . S
O100 C99 1.211 . S
C101 O93 1.284 1_655 S
C101 O102 1.273 . S
O102 C101 1.273 . S
O103 Zn94 1.977 . S
O103 C96 1.267 . S
C104 O105 1.160 . S
C104 O111 1.185 . S
O105 C104 1.160 . S
O106 Zn107 1.899 . S
O106 C114 1.284 . S
Zn107 O106 1.899 . S
Zn107 O108 2.032 1_565 S
Zn107 O111 2.086 . S
Zn107 O116 1.977 1_565 S
O108 Zn107 2.032 1_545 S
O108 C112 1.278 . S
C109 O110 1.203 . S
C109 O116 1.267 . S
O110 C109 1.203 . S
O111 C104 1.185 . S
O111 Zn107 2.086 . S
C112 O108 1.278 . S
C112 O113 1.211 . S
O113 C112 1.211 . S
C114 O106 1.284 . S
C114 O115 1.273 . S
O115 C114 1.273 . S
O116 Zn107 1.977 1_545 S
O116 C109 1.267 . S
C117 O118 1.160 . S
C117 O124 1.185 . S
O118 C117 1.160 . S
O119 Zn120 1.899 . S
O119 C127 1.284 . S
Zn120 O119 1.899 . S
Zn120 O121 2.032 . S
Zn120 O124 2.086 . S
Zn120 O129 1.977 . S
O121 Zn120 2.032 . S
O121 C125 1.278 . S
C122 O123 1.203 . S
C122 O129 1.267 . S
O123 C122 1.203 . S
O124 C117 1.185 . S
O124 Zn120 2.086 . S
C125 O121 1.278 . S
C125 O126 1.211 . S
O126 C125 1.211 . S
C127 O119 1.284 . S
C127 O128 1.273 . S
O128 C127 1.273 . S
O129 Zn120 1.977 . S
O129 C122 1.267 . S
C130 O131 1.160 . S
C130 O137 1.185 . S
O131 C130 1.160 . S
O132 Zn133 1.899 . S
O132 C140 1.284 . S
Zn133 O132 1.899 . S
Zn133 O134 2.032 1_565 S
Zn133 O137 2.086 . S
Zn133 O142 1.977 1_565 S
O134 Zn133 2.032 1_545 S
O134 C138 1.278 . S
C135 O136 1.203 . S
C135 O142 1.267 . S
O136 C135 1.203 . S
O137 C130 1.185 . S
O137 Zn133 2.086 . S
C138 O134 1.278 . S
C138 O139 1.211 . S
O139 C138 1.211 . S
C140 O132 1.284 . S
C140 O141 1.273 . S
O141 C140 1.273 . S
O142 Zn133 1.977 1_545 S
O142 C135 1.267 . S
C143 O144 1.160 . S
C143 O150 1.185 . S
O144 C143 1.160 . S
O145 Zn146 1.899 . S
O145 C153 1.284 1_554 S
Zn146 O145 1.899 . S
Zn146 O147 2.032 1_554 S
Zn146 O150 2.086 . S
Zn146 O155 1.977 . S
O147 Zn146 2.032 1_556 S
O147 C151 1.278 . S
C148 O149 1.203 . S
C148 O155 1.267 . S
O149 C148 1.203 . S
O150 C143 1.185 . S
O150 Zn146 2.086 . S
C151 O147 1.278 . S
C151 O152 1.211 . S
O152 C151 1.211 . S
C153 O145 1.284 1_556 S
C153 O154 1.273 . S
O154 C153 1.273 . S
O155 Zn146 1.977 . S
O155 C148 1.267 . S
C156 O157 1.160 . S
C156 O163 1.185 . S
O157 C156 1.160 . S
O158 Zn159 1.899 1_556 S
O158 C166 1.284 . S
Zn159 O158 1.899 1_554 S
Zn159 O160 2.032 . S
Zn159 O163 2.086 1_554 S
Zn159 O168 1.977 . S
O160 Zn159 2.032 . S
O160 C164 1.278 . S
C161 O162 1.203 . S
C161 O168 1.267 . S
O162 C161 1.203 . S
O163 C156 1.185 . S
O163 Zn159 2.086 1_556 S
C164 O160 1.278 . S
C164 O165 1.211 . S
O165 C164 1.211 . S
C166 O158 1.284 . S
C166 O167 1.273 . S
O167 C166 1.273 . S
O168 Zn159 1.977 . S
O168 C161 1.267 . S
C169 O170 1.160 . S
C169 O176 1.185 . S
O170 C169 1.160 . S
O171 Zn172 1.899 . S
O171 C179 1.284 . S
Zn172 O171 1.899 . S
Zn172 O173 2.032 1_556 S
Zn172 O176 2.086 . S
Zn172 O181 1.977 1_556 S
O173 Zn172 2.032 1_554 S
O173 C177 1.278 . S
C174 O175 1.203 . S
C174 O181 1.267 . S
O175 C174 1.203 . S
O176 C169 1.185 . S
O176 Zn172 2.086 . S
C177 O173 1.278 . S
C177 O178 1.211 . S
O178 C177 1.211 . S
C179 O171 1.284 . S
C179 O180 1.273 . S
O180 C179 1.273 . S
O181 Zn172 1.977 1_554 S
O181 C174 1.267 . S
C182 O183 1.160 . S
C182 O189 1.185 . S
O183 C182 1.160 . S
O184 Zn185 1.899 . S
O184 C192 1.284 . S
Zn185 O184 1.899 . S
Zn185 O186 2.032 . S
Zn185 O189 2.086 . S
Zn185 O194 1.977 . S
O186 Zn185 2.032 . S
O186 C190 1.278 . S
C187 O188 1.203 . S
C187 O194 1.267 . S
O188 C187 1.203 . S
O189 C182 1.185 . S
O189 Zn185 2.086 . S
C190 O186 1.278 . S
C190 O191 1.211 . S
O191 C190 1.211 . S
C192 O184 1.284 . S
C192 O193 1.273 . S
O193 C192 1.273 . S
O194 Zn185 1.977 . S
O194 C187 1.267 . S
C195 O196 1.160 . S
C195 O202 1.185 . S
O196 C195 1.160 . S
O197 Zn198 1.899 . S
O197 C205 1.284 . S
Zn198 O197 1.899 . S
Zn198 O199 2.032 . S
Zn198 O202 2.086 . S
Zn198 O207 1.977 . S
O199 Zn198 2.032 . S
O199 C203 1.278 . S
C200 O201 1.203 . S
C200 O207 1.267 . S
O201 C200 1.203 . S
O202 C195 1.185 . S
O202 Zn198 2.086 . S
C203 O199 1.278 . S
C203 O204 1.211 . S
O204 C203 1.211 . S
C205 O197 1.284 . S
C205 O206 1.273 . S
O206 C205 1.273 . S
O207 Zn198 1.977 . S
O207 C200 1.267 . S
C208 O209 1.160 . S
C208 O215 1.185 . S
O209 C208 1.160 . S
O210 Zn211 1.899 . S
O210 C218 1.284 1_545 S
Zn211 O210 1.899 . S
Zn211 O212 2.014 1_545 S
Zn211 O215 2.086 . S
Zn211 O220 1.977 . S
O212 Zn211 2.014 1_565 S
O212 C216 1.294 . S
C213 O214 1.203 . S
C213 O220 1.267 . S
O214 C213 1.203 . S
O215 C208 1.185 . S
O215 Zn211 2.086 . S
C216 O212 1.294 . S
C216 O217 1.211 . S
O217 C216 1.211 . S
C218 O210 1.284 1_565 S
C218 O219 1.273 . S
O219 C218 1.273 . S
O220 Zn211 1.977 . S
O220 C213 1.267 . S
C221 O222 1.160 . S
C221 O228 1.185 . S
O222 C221 1.160 . S
O223 Zn224 1.899 . S
O223 C231 1.284 . S
Zn224 O223 1.899 . S
Zn224 O225 2.032 . S
Zn224 O228 2.086 . S
Zn224 O233 1.977 . S
O225 Zn224 2.032 . S
O225 C229 1.278 . S
C226 O227 1.203 . S
C226 O233 1.267 . S
O227 C226 1.203 . S
O228 C221 1.185 . S
O228 Zn224 2.086 . S
C229 O225 1.278 . S
C229 O230 1.211 . S
O230 C229 1.211 . S
C231 O223 1.284 . S
C231 O232 1.273 . S
O232 C231 1.273 . S
O233 Zn224 1.977 . S
O233 C226 1.267 . S
C234 O235 1.160 . S
C234 O241 1.185 . S
O235 C234 1.160 . S
O236 Zn237 1.899 . S
O236 C244 1.284 . S
Zn237 O236 1.899 . S
Zn237 O238 2.032 . S
Zn237 O241 2.086 . S
Zn237 O246 1.977 . S
O238 Zn237 2.032 . S
O238 C242 1.278 . S
C239 O240 1.203 . S
C239 O246 1.267 . S
O240 C239 1.203 . S
O241 C234 1.185 . S
O241 Zn237 2.086 . S
C242 O238 1.278 . S
C242 O243 1.211 . S
O243 C242 1.211 . S
C244 O236 1.284 . S
C244 O245 1.273 . S
O245 C244 1.273 . S
O246 Zn237 1.977 . S
O246 C239 1.267 . S
C247 O248 1.160 . S
C247 O254 1.185 . S
O248 C247 1.160 . S
O249 Zn250 1.898 1_565 S
O249 C257 1.287 . S
Zn250 O249 1.898 1_545 S
Zn250 O251 2.032 1_545 S
Zn250 O254 2.086 . S
Zn250 O259 1.977 . S
O251 Zn250 2.032 1_565 S
O251 C255 1.278 . S
C252 O253 1.203 . S
C252 O259 1.267 . S
O253 C252 1.203 . S
O254 C247 1.185 . S
O254 Zn250 2.086 . S
C255 O251 1.278 . S
C255 O256 1.211 . S
O256 C255 1.211 . S
C257 O249 1.287 . S
C257 O258 1.273 . S
O258 C257 1.273 . S
O259 Zn250 1.977 . S
O259 C252 1.267 . S
C260 O261 1.160 . S
C260 O267 1.185 . S
O261 C260 1.160 . S
O262 Zn263 1.899 . S
O262 C270 1.284 1_554 S
Zn263 O262 1.899 . S
Zn263 O264 2.032 1_554 S
Zn263 O267 2.086 . S
Zn263 O272 1.977 . S
O264 Zn263 2.032 1_556 S
O264 C268 1.278 . S
C265 O266 1.203 . S
C265 O272 1.267 . S
O266 C265 1.203 . S
O267 C260 1.185 . S
O267 Zn263 2.086 . S
C268 O264 1.278 . S
C268 O269 1.211 . S
O269 C268 1.211 . S
C270 O262 1.284 1_556 S
C270 O271 1.273 . S
O271 C270 1.273 . S
O272 Zn263 1.977 . S
O272 C265 1.267 . S
C273 O274 1.160 . S
C273 O280 1.185 . S
O274 C273 1.160 . S
O275 Zn276 1.899 . S
O275 C283 1.284 . S
Zn276 O275 1.899 . S
Zn276 O277 2.032 . S
Zn276 O280 2.086 . S
Zn276 O285 1.977 . S
O277 Zn276 2.032 . S
O277 C281 1.278 . S
C278 O279 1.203 . S
C278 O285 1.267 . S
O279 C278 1.203 . S
O280 C273 1.185 . S
O280 Zn276 2.086 . S
C281 O277 1.278 . S
C281 O282 1.211 . S
O282 C281 1.211 . S
C283 O275 1.284 . S
C283 O284 1.273 . S
O284 C283 1.273 . S
O285 Zn276 1.977 . S
O285 C278 1.267 . S
C286 O287 1.160 . S
C286 O293 1.185 . S
O287 C286 1.160 . S
O288 Zn289 1.899 . S
O288 C296 1.284 . S
Zn289 O288 1.899 . S
Zn289 O290 2.032 . S
Zn289 O293 2.086 . S
Zn289 O298 1.977 . S
O290 Zn289 2.032 . S
O290 C294 1.278 . S
C291 O292 1.203 . S
C291 O298 1.267 . S
O292 C291 1.203 . S
O293 C286 1.185 . S
O293 Zn289 2.086 . S
C294 O290 1.278 . S
C294 O295 1.211 . S
O295 C294 1.211 . S
C296 O288 1.284 . S
C296 O297 1.273 . S
O297 C296 1.273 . S
O298 Zn289 1.977 . S
O298 C291 1.267 . S
C299 O300 1.160 . S
C299 O306 1.185 . S
O300 C299 1.160 . S
O301 Zn302 1.899 . S
O301 C309 1.284 . S
Zn302 O301 1.899 . S
Zn302 O303 2.032 . S
Zn302 O306 2.086 . S
Zn302 O311 1.977 . S
O303 Zn302 2.032 . S
O303 C307 1.278 . S
C304 O305 1.203 . S
C304 O311 1.267 . S
O305 C304 1.203 . S
O306 C299 1.185 . S
O306 Zn302 2.086 . S
C307 O303 1.278 . S
C307 O308 1.211 . S
O308 C307 1.211 . S
C309 O301 1.284 . S
C309 O310 1.273 . S
O310 C309 1.273 . S
O311 Zn302 1.977 . S
O311 C304 1.267 . S
Fe312 O314 1.918 . S
Fe312 O317 1.997 . S
Fe312 O318 2.002 . S
Fe312 O323 1.976 . S
Fe312 O326 1.996 . S
Fe313 O314 1.918 . S
Fe313 O321 1.997 . S
Fe313 O324 1.996 . S
Fe313 O328 1.976 . S
Fe313 O331 2.002 . S
O314 Fe312 1.918 . S
O314 Fe313 1.918 . S
O314 Fe315 1.918 . S
Fe315 O314 1.918 . S
Fe315 O316 2.002 . S
Fe315 O325 1.976 . S
Fe315 O329 1.996 . S
Fe315 O332 1.997 . S
O316 Fe315 2.002 . S
O316 C333 1.295 . S
O317 Fe312 1.997 . S
O317 C333 1.235 . S
O318 Fe312 2.002 . S
O318 C319 1.295 . S
C319 O318 1.295 . S
C319 O321 1.235 . S
C320 O325 1.287 . S
C320 O326 1.255 . S
O321 Fe313 1.997 . S
O321 C319 1.235 . S
C322 O328 1.287 . S
C322 O329 1.255 . S
O323 Fe312 1.976 . S
O323 C330 1.287 . S
O324 Fe313 1.996 . S
O324 C330 1.255 . S
O325 Fe315 1.976 . S
O325 C320 1.287 . S
O326 Fe312 1.996 . S
O326 C320 1.255 . S
C327 O331 1.295 . S
C327 O332 1.235 . S
O328 Fe313 1.976 . S
O328 C322 1.287 . S
O329 Fe315 1.996 . S
O329 C322 1.255 . S
C330 O323 1.287 . S
C330 O324 1.255 . S
O331 Fe313 2.002 . S
O331 C327 1.295 . S
O332 Fe315 1.997 . S
O332 C327 1.235 . S
C333 O316 1.295 . S
C333 O317 1.235 . S
Fe334 O336 1.918 . S
Fe334 O339 1.997 . S
Fe334 O340 2.002 . S
Fe334 O345 1.976 . S
Fe334 O348 1.996 . S
Fe335 O336 1.918 . S
Fe335 O343 1.997 . S
Fe335 O346 1.996 . S
Fe335 O350 1.976 . S
Fe335 O353 2.002 . S
O336 Fe334 1.918 . S
O336 Fe335 1.918 . S
O336 Fe337 1.918 . S
Fe337 O336 1.918 . S
Fe337 O338 2.002 . S
Fe337 O347 1.976 . S
Fe337 O351 1.996 . S
Fe337 O354 1.997 . S
O338 Fe337 2.002 . S
O338 C355 1.295 . S
O339 Fe334 1.997 . S
O339 C355 1.235 . S
O340 Fe334 2.002 . S
O340 C341 1.295 . S
C341 O340 1.295 . S
C341 O343 1.235 . S
C342 O347 1.287 . S
C342 O348 1.255 . S
O343 Fe335 1.997 . S
O343 C341 1.235 . S
C344 O350 1.287 . S
C344 O351 1.255 . S
O345 Fe334 1.976 . S
O345 C352 1.287 . S
O346 Fe335 1.996 . S
O346 C352 1.255 . S
O347 Fe337 1.976 . S
O347 C342 1.287 . S
O348 Fe334 1.996 . S
O348 C342 1.255 . S
C349 O353 1.295 . S
C349 O354 1.235 . S
O350 Fe335 1.976 . S
O350 C344 1.287 . S
O351 Fe337 1.996 . S
O351 C344 1.255 . S
C352 O345 1.287 . S
C352 O346 1.255 . S
O353 Fe335 2.002 . S
O353 C349 1.295 . S
O354 Fe337 1.997 . S
O354 C349 1.235 . S
C355 O338 1.295 . S
C355 O339 1.235 . S
Fe356 O358 1.918 . S
Fe356 O361 1.997 . S
Fe356 O362 2.002 . S
Fe356 O367 1.976 . S
Fe356 O370 1.996 . S
Fe357 O358 1.918 . S
Fe357 O365 1.997 . S
Fe357 O368 1.996 . S
Fe357 O372 1.976 . S
Fe357 O375 2.002 . S
O358 Fe356 1.918 . S
O358 Fe357 1.918 . S
O358 Fe359 1.918 . S
Fe359 O358 1.918 . S
Fe359 O360 2.002 . S
Fe359 O369 1.976 . S
Fe359 O373 1.996 . S
Fe359 O376 1.997 . S
O360 Fe359 2.002 . S
O360 C377 1.295 . S
O361 Fe356 1.997 . S
O361 C377 1.235 . S
O362 Fe356 2.002 . S
O362 C363 1.295 . S
C363 O362 1.295 . S
C363 O365 1.235 . S
C364 O369 1.287 . S
C364 O370 1.255 . S
O365 Fe357 1.997 . S
O365 C363 1.235 . S
C366 O372 1.287 . S
C366 O373 1.255 . S
O367 Fe356 1.976 . S
O367 C374 1.287 . S
O368 Fe357 1.996 . S
O368 C374 1.255 . S
O369 Fe359 1.976 . S
O369 C364 1.287 . S
O370 Fe356 1.996 . S
O370 C364 1.255 . S
C371 O375 1.295 . S
C371 O376 1.235 . S
O372 Fe357 1.976 . S
O372 C366 1.287 . S
O373 Fe359 1.996 . S
O373 C366 1.255 . S
C374 O367 1.287 . S
C374 O368 1.255 . S
O375 Fe357 2.002 . S
O375 C371 1.295 . S
O376 Fe359 1.997 . S
O376 C371 1.235 . S
C377 O360 1.295 . S
C377 O361 1.235 . S
Fe378 O380 1.918 . S
Fe378 O383 1.997 . S
Fe378 O384 2.002 . S
Fe378 O389 1.976 . S
Fe378 O392 1.996 . S
Fe379 O380 1.918 . S
Fe379 O387 1.997 . S
Fe379 O390 1.996 . S
Fe379 O394 1.976 . S
Fe379 O397 2.002 . S
O380 Fe378 1.918 . S
O380 Fe379 1.918 . S
O380 Fe381 1.918 . S
Fe381 O380 1.918 . S
Fe381 O382 2.002 . S
Fe381 O391 1.976 . S
Fe381 O395 1.996 . S
Fe381 O398 1.997 . S
O382 Fe381 2.002 . S
O382 C399 1.295 . S
O383 Fe378 1.997 . S
O383 C399 1.235 . S
O384 Fe378 2.002 . S
O384 C385 1.295 . S
C385 O384 1.295 . S
C385 O387 1.235 . S
C386 O391 1.287 . S
C386 O392 1.255 . S
O387 Fe379 1.997 . S
O387 C385 1.235 . S
C388 O394 1.287 . S
C388 O395 1.255 . S
O389 Fe378 1.976 . S
O389 C396 1.287 . S
O390 Fe379 1.996 . S
O390 C396 1.255 . S
O391 Fe381 1.976 . S
O391 C386 1.287 . S
O392 Fe378 1.996 . S
O392 C386 1.255 . S
C393 O397 1.295 . S
C393 O398 1.235 . S
O394 Fe379 1.976 . S
O394 C388 1.287 . S
O395 Fe381 1.996 . S
O395 C388 1.255 . S
C396 O389 1.287 . S
C396 O390 1.255 . S
O397 Fe379 2.002 . S
O397 C393 1.295 . S
O398 Fe381 1.997 . S
O398 C393 1.235 . S
C399 O382 1.295 . S
C399 O383 1.235 . S
Fe400 O402 1.918 . S
Fe400 O405 1.997 . S
Fe400 O406 2.002 . S
Fe400 O411 1.976 . S
Fe400 O414 1.996 . S
Fe401 O402 1.918 . S
Fe401 O409 1.997 . S
Fe401 O412 1.996 . S
Fe401 O416 1.976 . S
Fe401 O419 2.002 . S
O402 Fe400 1.918 . S
O402 Fe401 1.918 . S
O402 Fe403 1.918 . S
Fe403 O402 1.918 . S
Fe403 O404 2.002 . S
Fe403 O413 1.976 . S
Fe403 O417 1.996 . S
Fe403 O420 1.997 . S
O404 Fe403 2.002 . S
O404 C421 1.295 . S
O405 Fe400 1.997 . S
O405 C421 1.235 . S
O406 Fe400 2.002 . S
O406 C407 1.295 . S
C407 O406 1.295 . S
C407 O409 1.235 . S
C408 O413 1.287 . S
C408 O414 1.255 . S
O409 Fe401 1.997 . S
O409 C407 1.235 . S
C410 O416 1.287 . S
C410 O417 1.255 . S
O411 Fe400 1.976 . S
O411 C418 1.287 . S
O412 Fe401 1.996 . S
O412 C418 1.255 . S
O413 Fe403 1.976 . S
O413 C408 1.287 . S
O414 Fe400 1.996 . S
O414 C408 1.255 . S
C415 O419 1.295 . S
C415 O420 1.235 . S
O416 Fe401 1.976 . S
O416 C410 1.287 . S
O417 Fe403 1.996 . S
O417 C410 1.255 . S
C418 O411 1.287 . S
C418 O412 1.255 . S
O419 Fe401 2.002 . S
O419 C415 1.295 . S
O420 Fe403 1.997 . S
O420 C415 1.235 . S
C421 O404 1.295 . S
C421 O405 1.235 . S
Fe422 O424 1.918 . S
Fe422 O427 1.997 . S
Fe422 O428 2.002 . S
Fe422 O433 1.976 . S
Fe422 O436 1.996 . S
Fe423 O424 1.918 . S
Fe423 O431 1.997 . S
Fe423 O434 1.996 . S
Fe423 O438 1.976 . S
Fe423 O441 2.002 . S
O424 Fe422 1.918 . S
O424 Fe423 1.918 . S
O424 Fe425 1.918 . S
Fe425 O424 1.918 . S
Fe425 O426 2.002 . S
Fe425 O435 1.976 . S
Fe425 O439 1.996 . S
Fe425 O442 1.997 . S
O426 Fe425 2.002 . S
O426 C443 1.295 . S
O427 Fe422 1.997 . S
O427 C443 1.235 . S
O428 Fe422 2.002 . S
O428 C429 1.295 . S
C429 O428 1.295 . S
C429 O431 1.235 . S
C430 O435 1.287 . S
C430 O436 1.255 . S
O431 Fe423 1.997 . S
O431 C429 1.235 . S
C432 O438 1.287 . S
C432 O439 1.255 . S
O433 Fe422 1.976 . S
O433 C440 1.287 . S
O434 Fe423 1.996 . S
O434 C440 1.255 . S
O435 Fe425 1.976 . S
O435 C430 1.287 . S
O436 Fe422 1.996 . S
O436 C430 1.255 . S
C437 O441 1.295 . S
C437 O442 1.235 . S
O438 Fe423 1.976 . S
O438 C432 1.287 . S
O439 Fe425 1.996 . S
O439 C432 1.255 . S
C440 O433 1.287 . S
C440 O434 1.255 . S
O441 Fe423 2.002 . S
O441 C437 1.295 . S
O442 Fe425 1.997 . S
O442 C437 1.235 . S
C443 O426 1.295 . S
C443 O427 1.235 . S
Fe444 O446 1.918 . S
Fe444 O449 1.997 . S
Fe444 O450 2.002 . S
Fe444 O455 1.976 . S
Fe444 O458 1.996 . S
Fe445 O446 1.918 . S
Fe445 O453 1.997 . S
Fe445 O456 1.996 . S
Fe445 O460 1.976 . S
Fe445 O463 2.002 . S
O446 Fe444 1.918 . S
O446 Fe445 1.918 . S
O446 Fe447 1.918 . S
Fe447 O446 1.918 . S
Fe447 O448 2.002 . S
Fe447 O457 1.976 . S
Fe447 O461 1.996 . S
Fe447 O464 1.997 . S
O448 Fe447 2.002 . S
O448 C465 1.295 . S
O449 Fe444 1.997 . S
O449 C465 1.235 . S
O450 Fe444 2.002 . S
O450 C451 1.295 . S
C451 O450 1.295 . S
C451 O453 1.235 . S
C452 O457 1.287 . S
C452 O458 1.255 . S
O453 Fe445 1.997 . S
O453 C451 1.235 . S
C454 O460 1.287 . S
C454 O461 1.255 . S
O455 Fe444 1.976 . S
O455 C462 1.287 . S
O456 Fe445 1.996 . S
O456 C462 1.255 . S
O457 Fe447 1.976 . S
O457 C452 1.287 . S
O458 Fe444 1.996 . S
O458 C452 1.255 . S
C459 O463 1.295 . S
C459 O464 1.235 . S
O460 Fe445 1.976 . S
O460 C454 1.287 . S
O461 Fe447 1.996 . S
O461 C454 1.255 . S
C462 O455 1.287 . S
C462 O456 1.255 . S
O463 Fe445 2.002 . S
O463 C459 1.295 . S
O464 Fe447 1.997 . S
O464 C459 1.235 . S
C465 O448 1.295 . S
C465 O449 1.235 . S
Fe466 O468 1.918 . S
Fe466 O471 1.997 . S
Fe466 O472 2.002 . S
Fe466 O477 1.976 . S
Fe466 O480 1.996 . S
Fe467 O468 1.918 . S
Fe467 O475 1.997 . S
Fe467 O478 1.996 . S
Fe467 O482 1.976 . S
Fe467 O485 2.002 . S
O468 Fe466 1.918 . S
O468 Fe467 1.918 . S
O468 Fe469 1.918 . S
Fe469 O468 1.918 . S
Fe469 O470 2.002 . S
Fe469 O479 1.976 . S
Fe469 O483 1.996 . S
Fe469 O486 1.997 . S
O470 Fe469 2.002 . S
O470 C487 1.295 . S
O471 Fe466 1.997 . S
O471 C487 1.235 . S
O472 Fe466 2.002 . S
O472 C473 1.295 . S
C473 O472 1.295 . S
C473 O475 1.235 . S
C474 O479 1.287 . S
C474 O480 1.255 . S
O475 Fe467 1.997 . S
O475 C473 1.235 . S
C476 O482 1.287 . S
C476 O483 1.255 . S
O477 Fe466 1.976 . S
O477 C484 1.287 . S
O478 Fe467 1.996 . S
O478 C484 1.255 . S
O479 Fe469 1.976 . S
O479 C474 1.287 . S
O480 Fe466 1.996 . S
O480 C474 1.255 . S
C481 O485 1.295 . S
C481 O486 1.235 . S
O482 Fe467 1.976 . S
O482 C476 1.287 . S
O483 Fe469 1.996 . S
O483 C476 1.255 . S
C484 O477 1.287 . S
C484 O478 1.255 . S
O485 Fe467 2.002 . S
O485 C481 1.295 . S
O486 Fe469 1.997 . S
O486 C481 1.235 . S
C487 O470 1.295 . S
C487 O471 1.235 . S
Fe488 O490 1.918 . S
Fe488 O493 1.997 . S
Fe488 O494 2.002 . S
Fe488 O499 1.976 . S
Fe488 O502 1.996 . S
Fe489 O490 1.918 . S
Fe489 O497 1.997 . S
Fe489 O500 1.996 . S
Fe489 O504 1.976 . S
Fe489 O507 2.002 . S
O490 Fe488 1.918 . S
O490 Fe489 1.918 . S
O490 Fe491 1.918 . S
Fe491 O490 1.918 . S
Fe491 O492 2.002 . S
Fe491 O501 1.976 . S
Fe491 O505 1.996 . S
Fe491 O508 1.997 . S
O492 Fe491 2.002 . S
O492 C509 1.295 . S
O493 Fe488 1.997 . S
O493 C509 1.235 . S
O494 Fe488 2.002 . S
O494 C495 1.295 . S
C495 O494 1.295 . S
C495 O497 1.235 . S
C496 O501 1.287 . S
C496 O502 1.255 . S
O497 Fe489 1.997 . S
O497 C495 1.235 . S
C498 O504 1.287 . S
C498 O505 1.255 . S
O499 Fe488 1.976 . S
O499 C506 1.287 . S
O500 Fe489 1.996 . S
O500 C506 1.255 . S
O501 Fe491 1.976 . S
O501 C496 1.287 . S
O502 Fe488 1.996 . S
O502 C496 1.255 . S
C503 O507 1.295 . S
C503 O508 1.235 . S
O504 Fe489 1.976 . S
O504 C498 1.287 . S
O505 Fe491 1.996 . S
O505 C498 1.255 . S
C506 O499 1.287 . S
C506 O500 1.255 . S
O507 Fe489 2.002 . S
O507 C503 1.295 . S
O508 Fe491 1.997 . S
O508 C503 1.235 . S
C509 O492 1.295 . S
C509 O493 1.235 . S
Fe510 O512 1.918 . S
Fe510 O515 1.997 . S
Fe510 O516 2.002 . S
Fe510 O521 1.976 . S
Fe510 O524 1.996 . S
Fe511 O512 1.918 . S
Fe511 O519 1.997 . S
Fe511 O522 1.996 . S
Fe511 O526 1.976 . S
Fe511 O529 2.002 . S
O512 Fe510 1.918 . S
O512 Fe511 1.918 . S
O512 Fe513 1.918 . S
Fe513 O512 1.918 . S
Fe513 O514 2.002 . S
Fe513 O523 1.976 . S
Fe513 O527 1.996 . S
Fe513 O530 1.997 . S
O514 Fe513 2.002 . S
O514 C531 1.295 . S
O515 Fe510 1.997 . S
O515 C531 1.235 . S
O516 Fe510 2.002 . S
O516 C517 1.295 . S
C517 O516 1.295 . S
C517 O519 1.235 . S
C518 O523 1.287 . S
C518 O524 1.255 . S
O519 Fe511 1.997 . S
O519 C517 1.235 . S
C520 O526 1.287 . S
C520 O527 1.255 . S
O521 Fe510 1.976 . S
O521 C528 1.287 . S
O522 Fe511 1.996 . S
O522 C528 1.255 . S
O523 Fe513 1.976 . S
O523 C518 1.287 . S
O524 Fe510 1.996 . S
O524 C518 1.255 . S
C525 O529 1.295 . S
C525 O530 1.235 . S
O526 Fe511 1.976 . S
O526 C520 1.287 . S
O527 Fe513 1.996 . S
O527 C520 1.255 . S
C528 O521 1.287 . S
C528 O522 1.255 . S
O529 Fe511 2.002 . S
O529 C525 1.295 . S
O530 Fe513 1.997 . S
O530 C525 1.235 . S
C531 O514 1.295 . S
C531 O515 1.235 . S
Fe532 O534 1.918 . S
Fe532 O537 1.997 . S
Fe532 O538 2.002 . S
Fe532 O543 1.976 . S
Fe532 O546 1.996 . S
Fe533 O534 1.918 . S
Fe533 O541 1.997 . S
Fe533 O544 1.996 . S
Fe533 O548 1.976 . S
Fe533 O551 2.002 . S
O534 Fe532 1.918 . S
O534 Fe533 1.918 . S
O534 Fe535 1.918 . S
Fe535 O534 1.918 . S
Fe535 O536 2.002 . S
Fe535 O545 1.976 . S
Fe535 O549 1.996 . S
Fe535 O552 1.997 . S
O536 Fe535 2.002 . S
O536 C553 1.295 . S
O537 Fe532 1.997 . S
O537 C553 1.235 . S
O538 Fe532 2.002 . S
O538 C539 1.295 . S
C539 O538 1.295 . S
C539 O541 1.235 . S
C540 O545 1.287 . S
C540 O546 1.255 . S
O541 Fe533 1.997 . S
O541 C539 1.235 . S
C542 O548 1.287 . S
C542 O549 1.255 . S
O543 Fe532 1.976 . S
O543 C550 1.287 . S
O544 Fe533 1.996 . S
O544 C550 1.255 . S
O545 Fe535 1.976 . S
O545 C540 1.287 . S
O546 Fe532 1.996 . S
O546 C540 1.255 . S
C547 O551 1.295 . S
C547 O552 1.235 . S
O548 Fe533 1.976 . S
O548 C542 1.287 . S
O549 Fe535 1.996 . S
O549 C542 1.255 . S
C550 O543 1.287 . S
C550 O544 1.255 . S
O551 Fe533 2.002 . S
O551 C547 1.295 . S
O552 Fe535 1.997 . S
O552 C547 1.235 . S
C553 O536 1.295 . S
C553 O537 1.235 . S
Fe554 O556 1.918 . S
Fe554 O559 1.997 . S
Fe554 O560 2.002 . S
Fe554 O565 1.976 . S
Fe554 O568 1.996 . S
Fe555 O556 1.918 . S
Fe555 O563 1.997 . S
Fe555 O566 1.996 . S
Fe555 O570 1.976 . S
Fe555 O573 2.002 . S
O556 Fe554 1.918 . S
O556 Fe555 1.918 . S
O556 Fe557 1.918 . S
Fe557 O556 1.918 . S
Fe557 O558 2.002 . S
Fe557 O567 1.976 . S
Fe557 O571 1.996 . S
Fe557 O574 1.997 . S
O558 Fe557 2.002 . S
O558 C575 1.295 . S
O559 Fe554 1.997 . S
O559 C575 1.235 . S
O560 Fe554 2.002 . S
O560 C561 1.295 . S
C561 O560 1.295 . S
C561 O563 1.235 . S
C562 O567 1.287 . S
C562 O568 1.255 . S
O563 Fe555 1.997 . S
O563 C561 1.235 . S
C564 O570 1.287 . S
C564 O571 1.255 . S
O565 Fe554 1.976 . S
O565 C572 1.287 . S
O566 Fe555 1.996 . S
O566 C572 1.255 . S
O567 Fe557 1.976 . S
O567 C562 1.287 . S
O568 Fe554 1.996 . S
O568 C562 1.255 . S
C569 O573 1.295 . S
C569 O574 1.235 . S
O570 Fe555 1.976 . S
O570 C564 1.287 . S
O571 Fe557 1.996 . S
O571 C564 1.255 . S
C572 O565 1.287 . S
C572 O566 1.255 . S
O573 Fe555 2.002 . S
O573 C569 1.295 . S
O574 Fe557 1.997 . S
O574 C569 1.235 . S
C575 O558 1.295 . S
C575 O559 1.235 . S
Fe576 O578 1.918 . S
Fe576 O581 1.997 . S
Fe576 O582 2.002 . S
Fe576 O587 1.976 . S
Fe576 O590 1.996 . S
Fe577 O578 1.918 . S
Fe577 O585 1.997 . S
Fe577 O588 1.996 . S
Fe577 O592 1.976 . S
Fe577 O595 2.002 . S
O578 Fe576 1.918 . S
O578 Fe577 1.918 . S
O578 Fe579 1.918 . S
Fe579 O578 1.918 . S
Fe579 O580 2.002 . S
Fe579 O589 1.976 . S
Fe579 O593 1.996 . S
Fe579 O596 1.997 . S
O580 Fe579 2.002 . S
O580 C597 1.295 . S
O581 Fe576 1.997 . S
O581 C597 1.235 . S
O582 Fe576 2.002 . S
O582 C583 1.295 . S
C583 O582 1.295 . S
C583 O585 1.235 . S
C584 O589 1.287 . S
C584 O590 1.255 . S
O585 Fe577 1.997 . S
O585 C583 1.235 . S
C586 O592 1.287 . S
C586 O593 1.255 . S
O587 Fe576 1.976 . S
O587 C594 1.287 . S
O588 Fe577 1.996 . S
O588 C594 1.255 . S
O589 Fe579 1.976 . S
O589 C584 1.287 . S
O590 Fe576 1.996 . S
O590 C584 1.255 . S
C591 O595 1.295 . S
C591 O596 1.235 . S
O592 Fe577 1.976 . S
O592 C586 1.287 . S
O593 Fe579 1.996 . S
O593 C586 1.255 . S
C594 O587 1.287 . S
C594 O588 1.255 . S
O595 Fe577 2.002 . S
O595 C591 1.295 . S
O596 Fe579 1.997 . S
O596 C591 1.235 . S
C597 O580 1.295 . S
C597 O581 1.235 . S
Fe598 O600 1.918 . S
Fe598 O603 1.997 . S
Fe598 O604 2.002 . S
Fe598 O609 1.976 . S
Fe598 O612 1.996 . S
Fe599 O600 1.918 . S
Fe599 O607 1.997 . S
Fe599 O610 1.996 . S
Fe599 O614 1.976 . S
Fe599 O617 2.002 . S
O600 Fe598 1.918 . S
O600 Fe599 1.918 . S
O600 Fe601 1.918 . S
Fe601 O600 1.918 . S
Fe601 O602 2.002 . S
Fe601 O611 1.976 . S
Fe601 O615 1.996 . S
Fe601 O618 1.997 . S
O602 Fe601 2.002 . S
O602 C619 1.295 . S
O603 Fe598 1.997 . S
O603 C619 1.235 . S
O604 Fe598 2.002 . S
O604 C605 1.295 . S
C605 O604 1.295 . S
C605 O607 1.235 . S
C606 O611 1.287 . S
C606 O612 1.255 . S
O607 Fe599 1.997 . S
O607 C605 1.235 . S
C608 O614 1.287 . S
C608 O615 1.255 . S
O609 Fe598 1.976 . S
O609 C616 1.287 . S
O610 Fe599 1.996 . S
O610 C616 1.255 . S
O611 Fe601 1.976 . S
O611 C606 1.287 . S
O612 Fe598 1.996 . S
O612 C606 1.255 . S
C613 O617 1.295 . S
C613 O618 1.235 . S
O614 Fe599 1.976 . S
O614 C608 1.287 . S
O615 Fe601 1.996 . S
O615 C608 1.255 . S
C616 O609 1.287 . S
C616 O610 1.255 . S
O617 Fe599 2.002 . S
O617 C613 1.295 . S
O618 Fe601 1.997 . S
O618 C613 1.235 . S
C619 O602 1.295 . S
C619 O603 1.235 . S
Fe620 O622 1.918 . S
Fe620 O625 1.997 . S
Fe620 O626 2.002 . S
Fe620 O631 1.976 . S
Fe620 O634 1.996 . S
Fe621 O622 1.918 . S
Fe621 O629 1.997 . S
Fe621 O632 1.996 . S
Fe621 O636 1.976 . S
Fe621 O639 2.002 . S
O622 Fe620 1.918 . S
O622 Fe621 1.918 . S
O622 Fe623 1.918 . S
Fe623 O622 1.918 . S
Fe623 O624 2.002 . S
Fe623 O633 1.976 . S
Fe623 O637 1.996 . S
Fe623 O640 1.997 . S
O624 Fe623 2.002 . S
O624 C641 1.295 . S
O625 Fe620 1.997 . S
O625 C641 1.235 . S
O626 Fe620 2.002 . S
O626 C627 1.295 . S
C627 O626 1.295 . S
C627 O629 1.235 . S
C628 O633 1.287 . S
C628 O634 1.255 . S
O629 Fe621 1.997 . S
O629 C627 1.235 . S
C630 O636 1.287 . S
C630 O637 1.255 . S
O631 Fe620 1.976 . S
O631 C638 1.287 . S
O632 Fe621 1.996 . S
O632 C638 1.255 . S
O633 Fe623 1.976 . S
O633 C628 1.287 . S
O634 Fe620 1.996 . S
O634 C628 1.255 . S
C635 O639 1.295 . S
C635 O640 1.235 . S
O636 Fe621 1.976 . S
O636 C630 1.287 . S
O637 Fe623 1.996 . S
O637 C630 1.255 . S
C638 O631 1.287 . S
C638 O632 1.255 . S
O639 Fe621 2.002 . S
O639 C635 1.295 . S
O640 Fe623 1.997 . S
O640 C635 1.235 . S
C641 O624 1.295 . S
C641 O625 1.235 . S
Fe642 O644 1.918 . S
Fe642 O647 1.997 . S
Fe642 O648 2.002 . S
Fe642 O653 1.976 . S
Fe642 O656 1.996 . S
Fe643 O644 1.918 . S
Fe643 O651 1.997 . S
Fe643 O654 1.996 . S
Fe643 O658 1.976 . S
Fe643 O661 2.002 . S
O644 Fe642 1.918 . S
O644 Fe643 1.918 . S
O644 Fe645 1.918 . S
Fe645 O644 1.918 . S
Fe645 O646 2.002 . S
Fe645 O655 1.976 . S
Fe645 O659 1.996 . S
Fe645 O662 1.997 . S
O646 Fe645 2.002 . S
O646 C663 1.295 . S
O647 Fe642 1.997 . S
O647 C663 1.235 . S
O648 Fe642 2.002 . S
O648 C649 1.295 . S
C649 O648 1.295 . S
C649 O651 1.235 . S
C650 O655 1.287 . S
C650 O656 1.255 . S
O651 Fe643 1.997 . S
O651 C649 1.235 . S
C652 O658 1.287 . S
C652 O659 1.255 . S
O653 Fe642 1.976 . S
O653 C660 1.287 . S
O654 Fe643 1.996 . S
O654 C660 1.255 . S
O655 Fe645 1.976 . S
O655 C650 1.287 . S
O656 Fe642 1.996 . S
O656 C650 1.255 . S
C657 O661 1.295 . S
C657 O662 1.235 . S
O658 Fe643 1.976 . S
O658 C652 1.287 . S
O659 Fe645 1.996 . S
O659 C652 1.255 . S
C660 O653 1.287 . S
C660 O654 1.255 . S
O661 Fe643 2.002 . S
O661 C657 1.295 . S
O662 Fe645 1.997 . S
O662 C657 1.235 . S
C663 O646 1.295 . S
C663 O647 1.235 . S
H664 C670 0.930 . S
H665 C673 0.930 . S
H666 C674 0.930 . S
H667 C675 0.930 . S
H668 C678 0.930 . S
H669 C679 0.930 . S
C670 H664 0.930 . S
C670 C671 1.355 . S
C670 C672 1.415 . S
C671 C670 1.355 . S
C671 C673 1.419 . S
C672 C670 1.415 . S
C672 C677 1.425 . S
C672 C679 1.409 . S
C673 H665 0.930 . S
C673 C671 1.419 . S
C673 C674 1.362 . S
C674 H666 0.930 . S
C674 C673 1.362 . S
C674 C677 1.409 . S
C675 H667 0.930 . S
C675 C676 1.355 . S
C675 C677 1.415 . S
C676 C675 1.355 . S
C676 C678 1.419 . S
C677 C672 1.425 . S
C677 C674 1.409 . S
C677 C675 1.415 . S
C678 H668 0.930 . S
C678 C676 1.419 . S
C678 C679 1.362 . S
C679 H669 0.930 . S
C679 C672 1.409 . S
C679 C678 1.362 . S
H680 C686 0.930 . S
H681 C689 0.930 . S
H682 C690 0.930 . S
H683 C691 0.930 . S
H684 C694 0.930 . S
H685 C695 0.930 . S
C686 H680 0.930 . S
C686 C687 1.355 . S
C686 C688 1.415 . S
C687 C686 1.355 . S
C687 C689 1.419 . S
C688 C686 1.415 . S
C688 C693 1.425 . S
C688 C695 1.409 . S
C689 H681 0.930 . S
C689 C687 1.419 . S
C689 C690 1.362 . S
C690 H682 0.930 . S
C690 C689 1.362 . S
C690 C693 1.409 . S
C691 H683 0.930 . S
C691 C692 1.355 . S
C691 C693 1.415 . S
C692 C691 1.355 . S
C692 C694 1.419 . S
C693 C688 1.425 . S
C693 C690 1.409 . S
C693 C691 1.415 . S
C694 H684 0.930 . S
C694 C692 1.419 . S
C694 C695 1.362 . S
C695 H685 0.930 . S
C695 C688 1.409 . S
C695 C694 1.362 . S
H696 C702 0.930 . S
H697 C705 0.930 . S
H698 C706 0.930 . S
H699 C707 0.930 . S
H700 C710 0.930 . S
H701 C711 0.930 . S
C702 H696 0.930 . S
C702 C703 1.355 . S
C702 C704 1.415 . S
C703 C702 1.355 . S
C703 C705 1.419 . S
C704 C702 1.415 . S
C704 C709 1.425 . S
C704 C711 1.409 . S
C705 H697 0.930 . S
C705 C703 1.419 . S
C705 C706 1.362 . S
C706 H698 0.930 . S
C706 C705 1.362 . S
C706 C709 1.409 . S
C707 H699 0.930 . S
C707 C708 1.355 . S
C707 C709 1.415 . S
C708 C707 1.355 . S
C708 C710 1.419 . S
C709 C704 1.425 . S
C709 C706 1.409 . S
C709 C707 1.415 . S
C710 H700 0.930 . S
C710 C708 1.419 . S
C710 C711 1.362 . S
C711 H701 0.930 . S
C711 C704 1.409 . S
C711 C710 1.362 . S
H712 C718 0.930 . S
H713 C721 0.930 . S
H714 C722 0.930 . S
H715 C723 0.929 1_556 S
H716 C726 0.930 . S
H717 C727 0.930 . S
C718 H712 0.930 . S
C718 C719 1.355 . S
C718 C720 1.415 . S
C719 C718 1.355 . S
C719 C721 1.419 . S
C720 C718 1.415 . S
C720 C725 1.425 . S
C720 C727 1.409 . S
C721 H713 0.930 . S
C721 C719 1.419 . S
C721 C722 1.362 . S
C722 H714 0.930 . S
C722 C721 1.362 . S
C722 C725 1.409 . S
C723 H715 0.929 1_554 S
C723 C724 1.353 1_554 S
C723 C725 1.418 . S
C724 C723 1.353 1_556 S
C724 C726 1.419 . S
C725 C720 1.425 . S
C725 C722 1.409 . S
C725 C723 1.418 . S
C726 H716 0.930 . S
C726 C724 1.419 . S
C726 C727 1.362 1_556 S
C727 H717 0.930 . S
C727 C720 1.409 . S
C727 C726 1.362 1_554 S
H728 C734 0.930 . S
H729 C737 0.930 . S
H730 C738 0.930 . S
H731 C739 0.930 . S
H732 C742 0.930 . S
H733 C743 0.930 . S
C734 H728 0.930 . S
C734 C735 1.355 . S
C734 C736 1.415 . S
C735 C734 1.355 . S
C735 C737 1.419 . S
C736 C734 1.415 . S
C736 C741 1.425 . S
C736 C743 1.409 . S
C737 H729 0.930 . S
C737 C735 1.419 . S
C737 C738 1.362 . S
C738 H730 0.930 . S
C738 C737 1.362 . S
C738 C741 1.409 . S
C739 H731 0.930 . S
C739 C740 1.355 . S
C739 C741 1.415 . S
C740 C739 1.355 . S
C740 C742 1.419 . S
C741 C736 1.425 . S
C741 C738 1.409 . S
C741 C739 1.415 . S
C742 H732 0.930 . S
C742 C740 1.419 . S
C742 C743 1.362 . S
C743 H733 0.930 . S
C743 C736 1.409 . S
C743 C742 1.362 . S
H744 C750 0.930 . S
H745 C753 0.930 . S
H746 C754 0.930 . S
H747 C755 0.930 . S
H748 C758 0.930 . S
H749 C759 0.930 . S
C750 H744 0.930 . S
C750 C751 1.355 . S
C750 C752 1.415 . S
C751 C750 1.355 . S
C751 C753 1.419 . S
C752 C750 1.415 . S
C752 C757 1.425 . S
C752 C759 1.409 . S
C753 H745 0.930 . S
C753 C751 1.419 . S
C753 C754 1.362 . S
C754 H746 0.930 . S
C754 C753 1.362 . S
C754 C757 1.409 . S
C755 H747 0.930 . S
C755 C756 1.355 . S
C755 C757 1.415 . S
C756 C755 1.355 . S
C756 C758 1.419 . S
C757 C752 1.425 . S
C757 C754 1.409 . S
C757 C755 1.415 . S
C758 H748 0.930 . S
C758 C756 1.419 . S
C758 C759 1.362 . S
C759 H749 0.930 . S
C759 C752 1.409 . S
C759 C758 1.362 . S
H760 C766 0.930 . S
H761 C769 0.930 . S
H762 C770 0.930 . S
H763 C771 0.930 . S
H764 C774 0.930 . S
H765 C775 0.930 . S
C766 H760 0.930 . S
C766 C767 1.355 . S
C766 C768 1.415 . S
C767 C766 1.355 . S
C767 C769 1.419 . S
C768 C766 1.415 . S
C768 C773 1.425 . S
C768 C775 1.409 . S
C769 H761 0.930 . S
C769 C767 1.419 . S
C769 C770 1.362 . S
C770 H762 0.930 . S
C770 C769 1.362 . S
C770 C773 1.409 . S
C771 H763 0.930 . S
C771 C772 1.355 . S
C771 C773 1.415 . S
C772 C771 1.355 . S
C772 C774 1.419 . S
C773 C768 1.425 . S
C773 C770 1.409 . S
C773 C771 1.415 . S
C774 H764 0.930 . S
C774 C772 1.419 . S
C774 C775 1.362 . S
C775 H765 0.930 . S
C775 C768 1.409 . S
C775 C774 1.362 . S
H776 C782 0.930 . S
H777 C785 0.930 . S
H778 C786 0.930 . S
H779 C787 0.930 . S
H780 C790 0.930 . S
H781 C791 0.930 . S
C782 H776 0.930 . S
C782 C783 1.355 . S
C782 C784 1.415 . S
C783 C782 1.355 . S
C783 C785 1.419 . S
C784 C782 1.415 . S
C784 C789 1.425 . S
C784 C791 1.409 1_556 S
C785 H777 0.930 . S
C785 C783 1.419 . S
C785 C786 1.362 . S
C786 H778 0.930 . S
C786 C785 1.362 . S
C786 C789 1.409 . S
C787 H779 0.930 . S
C787 C788 1.355 . S
C787 C789 1.415 1_554 S
C788 C787 1.355 . S
C788 C790 1.419 . S
C789 C784 1.425 . S
C789 C786 1.409 . S
C789 C787 1.415 1_556 S
C790 H780 0.930 . S
C790 C788 1.419 . S
C790 C791 1.362 . S
C791 H781 0.930 . S
C791 C784 1.409 1_554 S
C791 C790 1.362 . S
H792 C798 0.930 . S
H793 C801 0.930 . S
H794 C802 0.930 . S
H795 C803 0.930 . S
H796 C806 0.930 . S
H797 C807 0.930 . S
C798 H792 0.930 . S
C798 C799 1.355 . S
C798 C800 1.415 . S
C799 C798 1.355 . S
C799 C801 1.419 . S
C800 C798 1.415 . S
C800 C805 1.425 . S
C800 C807 1.409 . S
C801 H793 0.930 . S
C801 C799 1.419 . S
C801 C802 1.362 . S
C802 H794 0.930 . S
C802 C801 1.362 . S
C802 C805 1.409 . S
C803 H795 0.930 . S
C803 C804 1.355 . S
C803 C805 1.415 . S
C804 C803 1.355 . S
C804 C806 1.419 . S
C805 C800 1.425 . S
C805 C802 1.409 . S
C805 C803 1.415 . S
C806 H796 0.930 . S
C806 C804 1.419 . S
C806 C807 1.362 . S
C807 H797 0.930 . S
C807 C800 1.409 . S
C807 C806 1.362 . S
H808 C814 0.930 . S
H809 C817 0.930 . S
H810 C818 0.930 . S
H811 C819 0.930 . S
H812 C822 0.930 . S
H813 C823 0.929 1_565 S
C814 H808 0.930 . S
C814 C815 1.355 . S
C814 C816 1.415 . S
C815 C814 1.355 . S
C815 C817 1.419 . S
C816 C814 1.415 . S
C816 C821 1.425 . S
C816 C823 1.412 . S
C817 H809 0.930 . S
C817 C815 1.419 . S
C817 C818 1.362 . S
C818 H810 0.930 . S
C818 C817 1.362 . S
C818 C821 1.409 . S
C819 H811 0.930 . S
C819 C820 1.355 1_545 S
C819 C821 1.415 . S
C820 C819 1.355 1_565 S
C820 C822 1.419 . S
C821 C816 1.425 . S
C821 C818 1.409 . S
C821 C819 1.415 . S
C822 H812 0.930 . S
C822 C820 1.419 . S
C822 C823 1.360 1_565 S
C823 H813 0.929 1_545 S
C823 C816 1.412 . S
C823 C822 1.360 1_545 S
H824 C830 0.930 . S
H825 C833 0.930 . S
H826 C834 0.930 . S
H827 C835 0.930 . S
H828 C838 0.930 . S
H829 C839 0.930 . S
C830 H824 0.930 . S
C830 C831 1.355 . S
C830 C832 1.415 . S
C831 C830 1.355 . S
C831 C833 1.419 . S
C832 C830 1.415 . S
C832 C837 1.425 . S
C832 C839 1.409 . S
C833 H825 0.930 . S
C833 C831 1.419 . S
C833 C834 1.362 . S
C834 H826 0.930 . S
C834 C833 1.362 . S
C834 C837 1.409 . S
C835 H827 0.930 . S
C835 C836 1.355 . S
C835 C837 1.415 . S
C836 C835 1.355 . S
C836 C838 1.419 . S
C837 C832 1.425 . S
C837 C834 1.409 . S
C837 C835 1.415 . S
C838 H828 0.930 . S
C838 C836 1.419 . S
C838 C839 1.362 . S
C839 H829 0.930 . S
C839 C832 1.409 . S
C839 C838 1.362 . S
H840 C846 0.930 . S
H841 C849 0.930 . S
H842 C850 0.930 . S
H843 C851 0.930 . S
H844 C854 0.930 . S
H845 C855 0.930 . S
C846 H840 0.930 . S
C846 C847 1.355 . S
C846 C848 1.415 . S
C847 C846 1.355 . S
C847 C849 1.419 . S
C848 C846 1.415 . S
C848 C853 1.425 . S
C848 C855 1.409 1_565 S
C849 H841 0.930 . S
C849 C847 1.419 . S
C849 C850 1.362 . S
C850 H842 0.930 . S
C850 C849 1.362 . S
C850 C853 1.409 . S
C851 H843 0.930 . S
C851 C852 1.355 . S
C851 C853 1.415 1_545 S
C852 C851 1.355 . S
C852 C854 1.419 . S
C853 C848 1.425 . S
C853 C850 1.409 . S
C853 C851 1.415 1_565 S
C854 H844 0.930 . S
C854 C852 1.419 . S
C854 C855 1.362 . S
C855 H845 0.930 . S
C855 C848 1.409 1_545 S
C855 C854 1.362 . S
H856 C862 0.930 . S
H857 C865 0.930 . S
H858 C866 0.930 . S
H859 C867 0.930 . S
H860 C870 0.930 . S
H861 C871 0.930 . S
C862 H856 0.930 . S
C862 C863 1.355 . S
C862 C864 1.415 . S
C863 C862 1.355 . S
C863 C865 1.419 . S
C864 C862 1.415 . S
C864 C869 1.425 . S
C864 C871 1.409 . S
C865 H857 0.930 . S
C865 C863 1.419 . S
C865 C866 1.362 . S
C866 H858 0.930 . S
C866 C865 1.362 . S
C866 C869 1.409 . S
C867 H859 0.930 . S
C867 C868 1.355 . S
C867 C869 1.415 . S
C868 C867 1.355 . S
C868 C870 1.419 . S
C869 C864 1.425 . S
C869 C866 1.409 . S
C869 C867 1.415 . S
C870 H860 0.930 . S
C870 C868 1.419 . S
C870 C871 1.362 . S
C871 H861 0.930 . S
C871 C864 1.409 . S
C871 C870 1.362 . S
H872 C878 0.930 . S
H873 C881 0.930 . S
H874 C882 0.930 . S
H875 C883 0.930 . S
H876 C886 0.930 . S
H877 C887 0.930 . S
C878 H872 0.930 . S
C878 C879 1.355 . S
C878 C880 1.415 . S
C879 C878 1.355 . S
C879 C881 1.419 . S
C880 C878 1.415 . S
C880 C885 1.425 . S
C880 C887 1.409 . S
C881 H873 0.930 . S
C881 C879 1.419 . S
C881 C882 1.362 . S
C882 H874 0.930 . S
C882 C881 1.362 . S
C882 C885 1.409 . S
C883 H875 0.930 . S
C883 C884 1.355 . S
C883 C885 1.415 1_565 S
C884 C883 1.355 . S
C884 C886 1.419 . S
C885 C880 1.425 . S
C885 C882 1.409 . S
C885 C883 1.415 1_545 S
C886 H876 0.930 . S
C886 C884 1.419 . S
C886 C887 1.362 1_565 S
C887 H877 0.930 . S
C887 C880 1.409 . S
C887 C886 1.362 1_545 S
H888 C894 0.930 . S
H889 C897 0.930 . S
H890 C898 0.930 . S
H891 C899 0.930 . S
H892 C902 0.930 . S
H893 C903 0.930 . S
C894 H888 0.930 . S
C894 C895 1.355 . S
C894 C896 1.415 . S
C895 C894 1.355 . S
C895 C897 1.419 . S
C896 C894 1.415 . S
C896 C901 1.425 . S
C896 C903 1.409 . S
C897 H889 0.930 . S
C897 C895 1.419 . S
C897 C898 1.362 . S
C898 H890 0.930 . S
C898 C897 1.362 . S
C898 C901 1.409 . S
C899 H891 0.930 . S
C899 C900 1.355 . S
C899 C901 1.415 . S
C900 C899 1.355 . S
C900 C902 1.419 . S
C901 C896 1.425 . S
C901 C898 1.409 . S
C901 C899 1.415 . S
C902 H892 0.930 . S
C902 C900 1.419 . S
C902 C903 1.362 . S
C903 H893 0.930 . S
C903 C896 1.409 . S
C903 C902 1.362 . S
H904 C910 0.930 . S
H905 C913 0.930 . S
H906 C914 0.930 . S
H907 C915 0.930 . S
H908 C918 0.930 . S
H909 C919 0.930 . S
C910 H904 0.930 . S
C910 C911 1.355 . S
C910 C912 1.415 . S
C911 C910 1.355 . S
C911 C913 1.419 . S
C912 C910 1.415 . S
C912 C917 1.425 . S
C912 C919 1.409 1_565 S
C913 H905 0.930 . S
C913 C911 1.419 . S
C913 C914 1.362 . S
C914 H906 0.930 . S
C914 C913 1.362 . S
C914 C917 1.409 . S
C915 H907 0.930 . S
C915 C916 1.355 . S
C915 C917 1.415 1_545 S
C916 C915 1.355 . S
C916 C918 1.419 . S
C917 C912 1.425 . S
C917 C914 1.409 . S
C917 C915 1.415 1_565 S
C918 H908 0.930 . S
C918 C916 1.419 . S
C918 C919 1.362 . S
C919 H909 0.930 . S
C919 C912 1.409 1_545 S
C919 C918 1.362 . S
H920 C926 0.930 . S
H921 C929 0.930 . S
H922 C930 0.930 . S
H923 C931 0.930 . S
H924 C934 0.930 . S
H925 C935 0.930 . S
C926 H920 0.930 . S
C926 C927 1.355 . S
C926 C928 1.415 . S
C927 C926 1.355 . S
C927 C929 1.419 . S
C928 C926 1.415 . S
C928 C933 1.425 . S
C928 C935 1.409 . S
C929 H921 0.930 . S
C929 C927 1.419 . S
C929 C930 1.362 . S
C930 H922 0.930 . S
C930 C929 1.362 . S
C930 C933 1.409 . S
C931 H923 0.930 . S
C931 C932 1.355 . S
C931 C933 1.415 . S
C932 C931 1.355 . S
C932 C934 1.419 . S
C933 C928 1.425 . S
C933 C930 1.409 . S
C933 C931 1.415 . S
C934 H924 0.930 . S
C934 C932 1.419 . S
C934 C935 1.362 . S
C935 H925 0.930 . S
C935 C928 1.409 . S
C935 C934 1.362 . S
H936 C942 0.930 . S
H937 C945 0.930 . S
H938 C946 0.930 . S
H939 C947 0.930 . S
H940 C950 0.930 . S
H941 C951 0.930 . S
C942 H936 0.930 . S
C942 C943 1.355 . S
C942 C944 1.415 . S
C943 C942 1.355 . S
C943 C945 1.419 . S
C944 C942 1.415 . S
C944 C949 1.425 . S
C944 C951 1.409 . S
C945 H937 0.930 . S
C945 C943 1.419 . S
C945 C946 1.362 . S
C946 H938 0.930 . S
C946 C945 1.362 . S
C946 C949 1.409 . S
C947 H939 0.930 . S
C947 C948 1.355 . S
C947 C949 1.415 . S
C948 C947 1.355 . S
C948 C950 1.419 . S
C949 C944 1.425 . S
C949 C946 1.409 . S
C949 C947 1.415 . S
C950 H940 0.930 . S
C950 C948 1.419 . S
C950 C951 1.362 . S
C951 H941 0.930 . S
C951 C944 1.409 . S
C951 C950 1.362 . S
H952 C958 0.930 . S
H953 C961 0.930 . S
H954 C962 0.930 . S
H955 C963 0.930 . S
H956 C966 0.930 . S
H957 C967 0.930 . S
C958 H952 0.930 . S
C958 C959 1.355 . S
C958 C960 1.415 . S
C959 C958 1.355 . S
C959 C961 1.419 . S
C960 C958 1.415 . S
C960 C965 1.425 . S
C960 C967 1.409 . S
C961 H953 0.930 . S
C961 C959 1.419 . S
C961 C962 1.362 . S
C962 H954 0.930 . S
C962 C961 1.362 . S
C962 C965 1.409 . S
C963 H955 0.930 . S
C963 C964 1.355 1_455 S
C963 C965 1.415 . S
C964 C963 1.355 1_655 S
C964 C966 1.419 . S
C965 C960 1.425 . S
C965 C962 1.409 . S
C965 C963 1.415 . S
C966 H956 0.930 . S
C966 C964 1.419 . S
C966 C967 1.362 1_655 S
C967 H957 0.930 . S
C967 C960 1.409 . S
C967 C966 1.362 1_455 S
H968 C974 0.930 . S
H969 C977 0.930 . S
H970 C978 0.930 . S
H971 C979 0.930 . S
H972 C982 0.930 . S
H973 C983 0.930 . S
C974 H968 0.930 . S
C974 C975 1.355 . S
C974 C976 1.415 . S
C975 C974 1.355 . S
C975 C977 1.419 . S
C976 C974 1.415 . S
C976 C981 1.425 . S
C976 C983 1.409 . S
C977 H969 0.930 . S
C977 C975 1.419 . S
C977 C978 1.362 . S
C978 H970 0.930 . S
C978 C977 1.362 . S
C978 C981 1.409 . S
C979 H971 0.930 . S
C979 C980 1.355 . S
C979 C981 1.415 . S
C980 C979 1.355 . S
C980 C982 1.419 . S
C981 C976 1.425 . S
C981 C978 1.409 . S
C981 C979 1.415 . S
C982 H972 0.930 . S
C982 C980 1.419 . S
C982 C983 1.362 . S
C983 H973 0.930 . S
C983 C976 1.409 . S
C983 C982 1.362 . S
H984 C990 0.930 . S
H985 C993 0.930 . S
H986 C994 0.930 1_455 S
H987 C995 0.930 . S
H988 C998 0.930 . S
H989 C999 0.930 . S
C990 H984 0.930 . S
C990 C991 1.355 . S
C990 C992 1.415 . S
C991 C990 1.355 . S
C991 C993 1.419 . S
C992 C990 1.415 . S
C992 C997 1.425 1_655 S
C992 C999 1.409 . S
C993 H985 0.930 . S
C993 C991 1.419 . S
C993 C994 1.362 . S
C994 H986 0.930 1_655 S
C994 C993 1.362 . S
C994 C997 1.409 1_655 S
C995 H987 0.930 . S
C995 C996 1.355 . S
C995 C997 1.415 . S
C996 C995 1.355 . S
C996 C998 1.419 . S
C997 C992 1.425 1_455 S
C997 C994 1.409 1_455 S
C997 C995 1.415 . S
C998 H988 0.930 . S
C998 C996 1.419 . S
C998 C999 1.362 1_455 S
C999 H989 0.930 . S
C999 C992 1.409 . S
C999 C998 1.362 1_655 S
H1000 C1006 0.930 . S
H1001 C1009 0.930 . S
H1002 C1010 0.930 . S
H1003 C1011 0.930 . S
H1004 C1014 0.930 . S
H1005 C1015 0.930 . S
C1006 H1000 0.930 . S
C1006 C1007 1.355 . S
C1006 C1008 1.415 . S
C1007 C1006 1.355 . S
C1007 C1009 1.419 . S
C1008 C1006 1.415 . S
C1008 C1013 1.425 . S
C1008 C1015 1.409 . S
C1009 H1001 0.930 . S
C1009 C1007 1.419 . S
C1009 C1010 1.362 . S
C1010 H1002 0.930 . S
C1010 C1009 1.362 . S
C1010 C1013 1.409 . S
C1011 H1003 0.930 . S
C1011 C1012 1.355 . S
C1011 C1013 1.415 . S
C1012 C1011 1.355 . S
C1012 C1014 1.419 . S
C1013 C1008 1.425 . S
C1013 C1010 1.409 . S
C1013 C1011 1.415 . S
C1014 H1004 0.930 . S
C1014 C1012 1.419 . S
C1014 C1015 1.362 . S
C1015 H1005 0.930 . S
C1015 C1008 1.409 . S
C1015 C1014 1.362 . S
H1016 C1022 0.930 . S
H1017 C1025 0.930 . S
H1018 C1026 0.930 1_655 S
H1019 C1027 0.930 . S
H1020 C1030 0.930 . S
H1021 C1031 0.930 . S
C1022 H1016 0.930 . S
C1022 C1023 1.355 . S
C1022 C1024 1.415 . S
C1023 C1022 1.355 . S
C1023 C1025 1.419 . S
C1024 C1022 1.415 . S
C1024 C1029 1.425 . S
C1024 C1031 1.409 . S
C1025 H1017 0.930 . S
C1025 C1023 1.419 . S
C1025 C1026 1.362 . S
C1026 H1018 0.930 1_455 S
C1026 C1025 1.362 . S
C1026 C1029 1.409 . S
C1027 H1019 0.930 . S
C1027 C1028 1.355 . S
C1027 C1029 1.415 1_655 S
C1028 C1027 1.355 . S
C1028 C1030 1.419 . S
C1029 C1024 1.425 . S
C1029 C1026 1.409 . S
C1029 C1027 1.415 1_455 S
C1030 H1020 0.930 . S
C1030 C1028 1.419 . S
C1030 C1031 1.362 1_655 S
C1031 H1021 0.930 . S
C1031 C1024 1.409 . S
C1031 C1030 1.362 1_455 S
H1032 C1038 0.930 . S
H1033 C1041 0.930 . S
H1034 C1042 0.930 . S
H1035 C1043 0.930 . S
H1036 C1046 0.930 . S
H1037 C1047 0.930 . S
C1038 H1032 0.930 . S
C1038 C1039 1.355 . S
C1038 C1040 1.415 . S
C1039 C1038 1.355 . S
C1039 C1041 1.419 . S
C1040 C1038 1.415 . S
C1040 C1045 1.425 . S
C1040 C1047 1.409 . S
C1041 H1033 0.930 . S
C1041 C1039 1.419 . S
C1041 C1042 1.362 . S
C1042 H1034 0.930 . S
C1042 C1041 1.362 . S
C1042 C1045 1.409 . S
C1043 H1035 0.930 . S
C1043 C1044 1.355 . S
C1043 C1045 1.415 . S
C1044 C1043 1.355 . S
C1044 C1046 1.419 . S
C1045 C1040 1.425 . S
C1045 C1042 1.409 . S
C1045 C1043 1.415 . S
C1046 H1036 0.930 . S
C1046 C1044 1.419 . S
C1046 C1047 1.362 . S
C1047 H1037 0.930 . S
C1047 C1040 1.409 . S
C1047 C1046 1.362 . S
H1048 C1054 0.930 . S
H1049 C1057 0.930 . S
H1050 C1058 0.930 . S
H1051 C1059 0.930 . S
H1052 C1062 0.930 . S
H1053 C1063 0.930 . S
C1054 H1048 0.930 . S
C1054 C1055 1.355 . S
C1054 C1056 1.415 . S
C1055 C1054 1.355 . S
C1055 C1057 1.419 . S
C1056 C1054 1.415 . S
C1056 C1061 1.425 . S
C1056 C1063 1.409 . S
C1057 H1049 0.930 . S
C1057 C1055 1.419 . S
C1057 C1058 1.362 . S
C1058 H1050 0.930 . S
C1058 C1057 1.362 . S
C1058 C1061 1.409 . S
C1059 H1051 0.930 . S
C1059 C1060 1.355 . S
C1059 C1061 1.415 . S
C1060 C1059 1.355 . S
C1060 C1062 1.419 . S
C1061 C1056 1.425 . S
C1061 C1058 1.409 . S
C1061 C1059 1.415 . S
C1062 H1052 0.930 . S
C1062 C1060 1.419 . S
C1062 C1063 1.362 . S
C1063 H1053 0.930 . S
C1063 C1056 1.409 . S
C1063 C1062 1.362 . S
H1064 C1070 0.930 . S
H1065 C1073 0.930 . S
H1066 C1074 0.930 . S
H1067 C1075 0.930 . S
H1068 C1078 0.930 . S
H1069 C1079 0.930 . S
C1070 H1064 0.930 . S
C1070 C1071 1.355 . S
C1070 C1072 1.415 . S
C1071 C1070 1.355 . S
C1071 C1073 1.419 . S
C1072 C1070 1.415 . S
C1072 C1077 1.425 . S
C1072 C1079 1.409 . S
C1073 H1065 0.930 . S
C1073 C1071 1.419 . S
C1073 C1074 1.362 . S
C1074 H1066 0.930 . S
C1074 C1073 1.362 . S
C1074 C1077 1.409 . S
C1075 H1067 0.930 . S
C1075 C1076 1.355 . S
C1075 C1077 1.415 . S
C1076 C1075 1.355 . S
C1076 C1078 1.419 . S
C1077 C1072 1.425 . S
C1077 C1074 1.409 . S
C1077 C1075 1.415 . S
C1078 H1068 0.930 . S
C1078 C1076 1.419 . S
C1078 C1079 1.362 . S
C1079 H1069 0.930 . S
C1079 C1072 1.409 . S
C1079 C1078 1.362 . S
H1080 C1086 0.930 . S
H1081 C1089 0.930 . S
H1082 C1090 0.930 . S
H1083 C1091 0.930 . S
H1084 C1094 0.930 . S
H1085 C1095 0.930 . S
C1086 H1080 0.930 . S
C1086 C1087 1.355 . S
C1086 C1088 1.415 . S
C1087 C1086 1.355 . S
C1087 C1089 1.419 . S
C1088 C1086 1.415 . S
C1088 C1093 1.425 . S
C1088 C1095 1.409 . S
C1089 H1081 0.930 . S
C1089 C1087 1.419 . S
C1089 C1090 1.362 . S
C1090 H1082 0.930 . S
C1090 C1089 1.362 . S
C1090 C1093 1.409 . S
C1091 H1083 0.930 . S
C1091 C1092 1.355 . S
C1091 C1093 1.415 . S
C1092 C1091 1.355 . S
C1092 C1094 1.419 . S
C1093 C1088 1.425 . S
C1093 C1090 1.409 . S
C1093 C1091 1.415 . S
C1094 H1084 0.930 . S
C1094 C1092 1.419 . S
C1094 C1095 1.362 . S
C1095 H1085 0.930 . S
C1095 C1088 1.409 . S
C1095 C1094 1.362 . S
H1096 C1102 0.930 . S
H1097 C1105 0.930 . S
H1098 C1106 0.930 . S
H1099 C1107 0.930 . S
H1100 C1110 0.930 . S
H1101 C1111 0.926 1_556 S
C1102 H1096 0.930 . S
C1102 C1103 1.355 . S
C1102 C1104 1.415 . S
C1103 C1102 1.355 . S
C1103 C1105 1.419 . S
C1104 C1102 1.415 . S
C1104 C1109 1.425 . S
C1104 C1111 1.409 1_556 S
C1105 H1097 0.930 . S
C1105 C1103 1.419 . S
C1105 C1106 1.362 . S
C1106 H1098 0.930 . S
C1106 C1105 1.362 . S
C1106 C1109 1.409 . S
C1107 H1099 0.930 . S
C1107 C1108 1.355 . S
C1107 C1109 1.415 1_554 S
C1108 C1107 1.355 . S
C1108 C1110 1.419 . S
C1109 C1104 1.425 . S
C1109 C1106 1.409 . S
C1109 C1107 1.415 1_556 S
C1110 H1100 0.930 . S
C1110 C1108 1.419 . S
C1110 C1111 1.362 . S
C1111 H1101 0.926 1_554 S
C1111 C1104 1.409 1_554 S
C1111 C1110 1.362 . S
H1112 C1118 0.930 . S
H1113 C1121 0.930 . S
H1114 C1122 0.930 . S
H1115 C1123 0.930 . S
H1116 C1126 0.930 . S
H1117 C1127 0.930 . S
C1118 H1112 0.930 . S
C1118 C1119 1.355 . S
C1118 C1120 1.415 . S
C1119 C1118 1.355 . S
C1119 C1121 1.419 . S
C1120 C1118 1.415 . S
C1120 C1125 1.425 . S
C1120 C1127 1.409 . S
C1121 H1113 0.930 . S
C1121 C1119 1.419 . S
C1121 C1122 1.362 . S
C1122 H1114 0.930 . S
C1122 C1121 1.362 . S
C1122 C1125 1.409 . S
C1123 H1115 0.930 . S
C1123 C1124 1.355 . S
C1123 C1125 1.415 . S
C1124 C1123 1.355 . S
C1124 C1126 1.419 . S
C1125 C1120 1.425 . S
C1125 C1122 1.409 . S
C1125 C1123 1.415 . S
C1126 H1116 0.930 . S
C1126 C1124 1.419 . S
C1126 C1127 1.362 . S
C1127 H1117 0.930 . S
C1127 C1120 1.409 . S
C1127 C1126 1.362 . S
H1128 C1134 0.930 . S
H1129 C1137 0.930 . S
H1130 C1138 0.930 . S
H1131 C1139 0.930 . S
H1132 C1142 0.930 . S
H1133 C1143 0.930 . S
C1134 H1128 0.930 . S
C1134 C1135 1.355 . S
C1134 C1136 1.415 . S
C1135 C1134 1.355 . S
C1135 C1137 1.419 . S
C1136 C1134 1.415 . S
C1136 C1141 1.425 . S
C1136 C1143 1.409 . S
C1137 H1129 0.930 . S
C1137 C1135 1.419 . S
C1137 C1138 1.362 . S
C1138 H1130 0.930 . S
C1138 C1137 1.362 . S
C1138 C1141 1.409 . S
C1139 H1131 0.930 . S
C1139 C1140 1.355 . S
C1139 C1141 1.415 . S
C1140 C1139 1.355 . S
C1140 C1142 1.419 . S
C1141 C1136 1.425 . S
C1141 C1138 1.409 . S
C1141 C1139 1.415 . S
C1142 H1132 0.930 . S
C1142 C1140 1.419 . S
C1142 C1143 1.362 . S
C1143 H1133 0.930 . S
C1143 C1136 1.409 . S
C1143 C1142 1.362 . S
H1144 C1150 0.930 . S
H1145 C1153 0.930 . S
H1146 C1154 0.930 . S
H1147 C1155 0.930 . S
H1148 C1158 0.930 . S
H1149 C1159 0.930 . S
C1150 H1144 0.930 . S
C1150 C1151 1.355 . S
C1150 C1152 1.415 . S
C1151 C1150 1.355 . S
C1151 C1153 1.419 . S
C1152 C1150 1.415 . S
C1152 C1157 1.425 . S
C1152 C1159 1.409 . S
C1153 H1145 0.930 . S
C1153 C1151 1.419 . S
C1153 C1154 1.362 . S
C1154 H1146 0.930 . S
C1154 C1153 1.362 . S
C1154 C1157 1.409 . S
C1155 H1147 0.930 . S
C1155 C1156 1.355 . S
C1155 C1157 1.415 . S
C1156 C1155 1.355 . S
C1156 C1158 1.419 . S
C1157 C1152 1.425 . S
C1157 C1154 1.409 . S
C1157 C1155 1.415 . S
C1158 H1148 0.930 . S
C1158 C1156 1.419 . S
C1158 C1159 1.362 . S
C1159 H1149 0.930 . S
C1159 C1152 1.409 . S
C1159 C1158 1.362 . S
H1160 C1166 0.930 . S
H1161 C1169 0.930 . S
H1162 C1170 0.930 . S
H1163 C1171 0.930 . S
H1164 C1174 0.930 . S
H1165 C1175 0.930 . S
C1166 H1160 0.930 . S
C1166 C1167 1.355 . S
C1166 C1168 1.415 . S
C1167 C1166 1.355 . S
C1167 C1169 1.419 . S
C1168 C1166 1.415 . S
C1168 C1173 1.425 . S
C1168 C1175 1.409 1_554 S
C1169 H1161 0.930 . S
C1169 C1167 1.419 . S
C1169 C1170 1.362 . S
C1170 H1162 0.930 . S
C1170 C1169 1.362 . S
C1170 C1173 1.409 . S
C1171 H1163 0.930 . S
C1171 C1172 1.355 1_554 S
C1171 C1173 1.415 . S
C1172 C1171 1.355 1_556 S
C1172 C1174 1.419 . S
C1173 C1168 1.425 . S
C1173 C1170 1.409 . S
C1173 C1171 1.415 . S
C1174 H1164 0.930 . S
C1174 C1172 1.419 . S
C1174 C1175 1.362 . S
C1175 H1165 0.930 . S
C1175 C1168 1.409 1_556 S
C1175 C1174 1.362 . S
H1176 C1182 0.930 . S
H1177 C1185 0.930 . S
H1178 C1186 0.930 . S
H1179 C1187 0.930 . S
H1180 C1190 0.930 . S
H1181 C1191 0.930 . S
C1182 H1176 0.930 . S
C1182 C1183 1.355 . S
C1182 C1184 1.415 . S
C1183 C1182 1.355 . S
C1183 C1185 1.419 . S
C1184 C1182 1.415 . S
C1184 C1189 1.425 . S
C1184 C1191 1.409 . S
C1185 H1177 0.930 . S
C1185 C1183 1.419 . S
C1185 C1186 1.362 . S
C1186 H1178 0.930 . S
C1186 C1185 1.362 . S
C1186 C1189 1.409 . S
C1187 H1179 0.930 . S
C1187 C1188 1.355 . S
C1187 C1189 1.415 . S
C1188 C1187 1.355 . S
C1188 C1190 1.419 . S
C1189 C1184 1.425 . S
C1189 C1186 1.409 . S
C1189 C1187 1.415 . S
C1190 H1180 0.930 . S
C1190 C1188 1.419 . S
C1190 C1191 1.362 . S
C1191 H1181 0.930 . S
C1191 C1184 1.409 . S
C1191 C1190 1.362 . S
H1192 C1198 0.930 . S
H1193 C1201 0.930 . S
H1194 C1202 0.930 . S
H1195 C1203 0.930 . S
H1196 C1206 0.930 . S
H1197 C1207 0.930 . S
C1198 H1192 0.930 . S
C1198 C1199 1.355 . S
C1198 C1200 1.415 . S
C1199 C1198 1.355 . S
C1199 C1201 1.419 . S
C1200 C1198 1.415 . S
C1200 C1205 1.425 . S
C1200 C1207 1.409 . S
C1201 H1193 0.930 . S
C1201 C1199 1.419 . S
C1201 C1202 1.362 . S
C1202 H1194 0.930 . S
C1202 C1201 1.362 . S
C1202 C1205 1.409 . S
C1203 H1195 0.930 . S
C1203 C1204 1.355 . S
C1203 C1205 1.415 1_545 S
C1204 C1203 1.355 . S
C1204 C1206 1.419 . S
C1205 C1200 1.425 . S
C1205 C1202 1.409 . S
C1205 C1203 1.415 1_565 S
C1206 H1196 0.930 . S
C1206 C1204 1.419 . S
C1206 C1207 1.362 1_545 S
C1207 H1197 0.930 . S
C1207 C1200 1.409 . S
C1207 C1206 1.362 1_565 S
H1208 C1214 0.930 . S
H1209 C1217 0.930 . S
H1210 C1218 0.930 . S
H1211 C1219 0.930 . S
H1212 C1222 0.930 . S
H1213 C1223 0.930 . S
C1214 H1208 0.930 . S
C1214 C1215 1.355 . S
C1214 C1216 1.415 . S
C1215 C1214 1.355 . S
C1215 C1217 1.419 . S
C1216 C1214 1.415 . S
C1216 C1221 1.425 . S
C1216 C1223 1.409 . S
C1217 H1209 0.930 . S
C1217 C1215 1.419 . S
C1217 C1218 1.362 . S
C1218 H1210 0.930 . S
C1218 C1217 1.362 . S
C1218 C1221 1.409 . S
C1219 H1211 0.930 . S
C1219 C1220 1.355 . S
C1219 C1221 1.415 . S
C1220 C1219 1.355 . S
C1220 C1222 1.419 . S
C1221 C1216 1.425 . S
C1221 C1218 1.409 . S
C1221 C1219 1.415 . S
C1222 H1212 0.930 . S
C1222 C1220 1.419 . S
C1222 C1223 1.362 . S
C1223 H1213 0.930 . S
C1223 C1216 1.409 . S
C1223 C1222 1.362 . S
H1224 C1230 0.930 . S
H1225 C1233 0.930 . S
H1226 C1234 0.930 . S
H1227 C1235 0.930 . S
H1228 C1238 0.930 . S
H1229 C1239 0.930 . S
C1230 H1224 0.930 . S
C1230 C1231 1.355 . S
C1230 C1232 1.415 . S
C1231 C1230 1.355 . S
C1231 C1233 1.419 . S
C1232 C1230 1.415 . S
C1232 C1237 1.425 . S
C1232 C1239 1.409 . S
C1233 H1225 0.930 . S
C1233 C1231 1.419 . S
C1233 C1234 1.362 . S
C1234 H1226 0.930 . S
C1234 C1233 1.362 . S
C1234 C1237 1.409 . S
C1235 H1227 0.930 . S
C1235 C1236 1.355 . S
C1235 C1237 1.415 1_565 S
C1236 C1235 1.355 . S
C1236 C1238 1.419 . S
C1237 C1232 1.425 . S
C1237 C1234 1.409 . S
C1237 C1235 1.415 1_545 S
C1238 H1228 0.930 . S
C1238 C1236 1.419 . S
C1238 C1239 1.362 1_565 S
C1239 H1229 0.930 . S
C1239 C1232 1.409 . S
C1239 C1238 1.362 1_545 S
H1240 C1246 0.930 . S
H1241 C1249 0.930 . S
H1242 C1250 0.930 . S
H1243 C1251 0.930 . S
H1244 C1254 0.930 . S
H1245 C1255 0.930 . S
C1246 H1240 0.930 . S
C1246 C1247 1.355 . S
C1246 C1248 1.415 . S
C1247 C1246 1.355 . S
C1247 C1249 1.419 . S
C1248 C1246 1.415 . S
C1248 C1253 1.425 . S
C1248 C1255 1.409 . S
C1249 H1241 0.930 . S
C1249 C1247 1.419 . S
C1249 C1250 1.362 . S
C1250 H1242 0.930 . S
C1250 C1249 1.362 . S
C1250 C1253 1.409 . S
C1251 H1243 0.930 . S
C1251 C1252 1.355 . S
C1251 C1253 1.415 . S
C1252 C1251 1.355 . S
C1252 C1254 1.419 . S
C1253 C1248 1.425 . S
C1253 C1250 1.409 . S
C1253 C1251 1.415 . S
C1254 H1244 0.930 . S
C1254 C1252 1.419 . S
C1254 C1255 1.362 . S
C1255 H1245 0.930 . S
C1255 C1248 1.409 . S
C1255 C1254 1.362 . S
H1256 C1262 0.930 . S
H1257 C1265 0.930 . S
H1258 C1266 0.930 1_545 S
H1259 C1267 0.930 . S
H1260 C1270 0.930 . S
H1261 C1271 0.930 . S
C1262 H1256 0.930 . S
C1262 C1263 1.355 . S
C1262 C1264 1.415 . S
C1263 C1262 1.355 . S
C1263 C1265 1.419 . S
C1264 C1262 1.415 . S
C1264 C1269 1.425 1_565 S
C1264 C1271 1.409 . S
C1265 H1257 0.930 . S
C1265 C1263 1.419 . S
C1265 C1266 1.362 . S
C1266 H1258 0.930 1_565 S
C1266 C1265 1.362 . S
C1266 C1269 1.409 1_565 S
C1267 H1259 0.930 . S
C1267 C1268 1.355 . S
C1267 C1269 1.415 . S
C1268 C1267 1.355 . S
C1268 C1270 1.419 . S
C1269 C1264 1.425 1_545 S
C1269 C1266 1.409 1_545 S
C1269 C1267 1.415 . S
C1270 H1260 0.930 . S
C1270 C1268 1.419 . S
C1270 C1271 1.362 1_545 S
C1271 H1261 0.930 . S
C1271 C1264 1.409 . S
C1271 C1270 1.362 1_565 S
H1272 C1278 0.930 . S
H1273 C1281 0.930 . S
H1274 C1282 0.930 . S
H1275 C1283 0.930 . S
H1276 C1286 0.930 . S
H1277 C1287 0.930 . S
C1278 H1272 0.930 . S
C1278 C1279 1.355 . S
C1278 C1280 1.415 . S
C1279 C1278 1.355 . S
C1279 C1281 1.419 . S
C1280 C1278 1.415 . S
C1280 C1285 1.425 . S
C1280 C1287 1.409 . S
C1281 H1273 0.930 . S
C1281 C1279 1.419 . S
C1281 C1282 1.362 . S
C1282 H1274 0.930 . S
C1282 C1281 1.362 . S
C1282 C1285 1.409 . S
C1283 H1275 0.930 . S
C1283 C1284 1.355 . S
C1283 C1285 1.415 . S
C1284 C1283 1.355 . S
C1284 C1286 1.419 . S
C1285 C1280 1.425 . S
C1285 C1282 1.409 . S
C1285 C1283 1.415 . S
C1286 H1276 0.930 . S
C1286 C1284 1.419 . S
C1286 C1287 1.362 . S
C1287 H1277 0.930 . S
C1287 C1280 1.409 . S
C1287 C1286 1.362 . S
H1288 C1294 0.930 . S
H1289 C1297 0.930 . S
H1290 C1298 0.930 . S
H1291 C1299 0.930 . S
H1292 C1302 0.930 . S
H1293 C1303 0.930 . S
C1294 H1288 0.930 . S
C1294 C1295 1.355 . S
C1294 C1296 1.415 . S
C1295 C1294 1.355 . S
C1295 C1297 1.419 . S
C1296 C1294 1.415 . S
C1296 C1301 1.425 . S
C1296 C1303 1.409 1_545 S
C1297 H1289 0.930 . S
C1297 C1295 1.419 . S
C1297 C1298 1.362 . S
C1298 H1290 0.930 . S
C1298 C1297 1.362 . S
C1298 C1301 1.409 . S
C1299 H1291 0.930 . S
C1299 C1300 1.355 1_545 S
C1299 C1301 1.415 . S
C1300 C1299 1.355 1_565 S
C1300 C1302 1.419 . S
C1301 C1296 1.425 . S
C1301 C1298 1.409 . S
C1301 C1299 1.415 . S
C1302 H1292 0.930 . S
C1302 C1300 1.419 . S
C1302 C1303 1.362 . S
C1303 H1293 0.930 . S
C1303 C1296 1.409 1_565 S
C1303 C1302 1.362 . S
H1304 C1310 0.930 . S
H1305 C1313 0.930 . S
H1306 C1314 0.930 . S
H1307 C1315 0.930 . S
H1308 C1318 0.930 . S
H1309 C1319 0.930 . S
C1310 H1304 0.930 . S
C1310 C1311 1.355 . S
C1310 C1312 1.415 . S
C1311 C1310 1.355 . S
C1311 C1313 1.419 . S
C1312 C1310 1.415 . S
C1312 C1317 1.425 . S
C1312 C1319 1.409 . S
C1313 H1305 0.930 . S
C1313 C1311 1.419 . S
C1313 C1314 1.362 . S
C1314 H1306 0.930 . S
C1314 C1313 1.362 . S
C1314 C1317 1.409 . S
C1315 H1307 0.930 . S
C1315 C1316 1.355 . S
C1315 C1317 1.415 . S
C1316 C1315 1.355 . S
C1316 C1318 1.419 . S
C1317 C1312 1.425 . S
C1317 C1314 1.409 . S
C1317 C1315 1.415 . S
C1318 H1308 0.930 . S
C1318 C1316 1.419 . S
C1318 C1319 1.362 . S
C1319 H1309 0.930 . S
C1319 C1312 1.409 . S
C1319 C1318 1.362 . S
H1320 C1326 0.930 . S
H1321 C1329 0.930 . S
H1322 C1330 0.930 . S
H1323 C1331 0.930 . S
H1324 C1334 0.930 . S
H1325 C1335 0.930 . S
C1326 H1320 0.930 . S
C1326 C1327 1.355 . S
C1326 C1328 1.415 . S
C1327 C1326 1.355 . S
C1327 C1329 1.419 . S
C1328 C1326 1.415 . S
C1328 C1333 1.425 . S
C1328 C1335 1.409 . S
C1329 H1321 0.930 . S
C1329 C1327 1.419 . S
C1329 C1330 1.362 . S
C1330 H1322 0.930 . S
C1330 C1329 1.362 . S
C1330 C1333 1.409 . S
C1331 H1323 0.930 . S
C1331 C1332 1.355 . S
C1331 C1333 1.415 . S
C1332 C1331 1.355 . S
C1332 C1334 1.419 . S
C1333 C1328 1.425 . S
C1333 C1330 1.409 . S
C1333 C1331 1.415 . S
C1334 H1324 0.930 . S
C1334 C1332 1.419 . S
C1334 C1335 1.362 . S
C1335 H1325 0.930 . S
C1335 C1328 1.409 . S
C1335 C1334 1.362 . S
H1336 C1342 0.930 . S
H1337 C1345 0.930 . S
H1338 C1346 0.930 . S
H1339 C1347 0.930 . S
H1340 C1350 0.930 . S
H1341 C1351 0.930 . S
C1342 H1336 0.930 . S
C1342 C1343 1.355 . S
C1342 C1344 1.415 . S
C1343 C1342 1.355 . S
C1343 C1345 1.419 . S
C1344 C1342 1.415 . S
C1344 C1349 1.425 . S
C1344 C1351 1.409 1_655 S
C1345 H1337 0.930 . S
C1345 C1343 1.419 . S
C1345 C1346 1.362 . S
C1346 H1338 0.930 . S
C1346 C1345 1.362 . S
C1346 C1349 1.409 . S
C1347 H1339 0.930 . S
C1347 C1348 1.355 . S
C1347 C1349 1.415 1_455 S
C1348 C1347 1.355 . S
C1348 C1350 1.419 . S
C1349 C1344 1.425 . S
C1349 C1346 1.409 . S
C1349 C1347 1.415 1_655 S
C1350 H1340 0.930 . S
C1350 C1348 1.419 . S
C1350 C1351 1.362 . S
C1351 H1341 0.930 . S
C1351 C1344 1.409 1_455 S
C1351 C1350 1.362 . S
H1352 C1358 0.930 . S
H1353 C1361 0.930 . S
H1354 C1362 0.930 . S
H1355 C1363 0.930 . S
H1356 C1366 0.930 . S
H1357 C1367 0.930 . S
C1358 H1352 0.930 . S
C1358 C1359 1.355 . S
C1358 C1360 1.415 . S
C1359 C1358 1.355 . S
C1359 C1361 1.419 . S
C1360 C1358 1.415 . S
C1360 C1365 1.425 . S
C1360 C1367 1.409 . S
C1361 H1353 0.930 . S
C1361 C1359 1.419 . S
C1361 C1362 1.362 . S
C1362 H1354 0.930 . S
C1362 C1361 1.362 . S
C1362 C1365 1.409 . S
C1363 H1355 0.930 . S
C1363 C1364 1.355 . S
C1363 C1365 1.415 . S
C1364 C1363 1.355 . S
C1364 C1366 1.419 . S
C1365 C1360 1.425 . S
C1365 C1362 1.409 . S
C1365 C1363 1.415 . S
C1366 H1356 0.930 . S
C1366 C1364 1.419 . S
C1366 C1367 1.362 . S
C1367 H1357 0.930 . S
C1367 C1360 1.409 . S
C1367 C1366 1.362 . S
H1368 C1374 0.930 . S
H1369 C1377 0.930 . S
H1370 C1378 0.930 . S
H1371 C1379 0.930 . S
H1372 C1382 0.932 . S
H1373 C1383 0.930 . S
C1374 H1368 0.930 . S
C1374 C1375 1.355 . S
C1374 C1376 1.415 . S
C1375 C1374 1.355 . S
C1375 C1377 1.419 . S
C1376 C1374 1.415 . S
C1376 C1381 1.425 . S
C1376 C1383 1.409 . S
C1377 H1369 0.930 . S
C1377 C1375 1.419 . S
C1377 C1378 1.362 . S
C1378 H1370 0.930 . S
C1378 C1377 1.362 . S
C1378 C1381 1.409 . S
C1379 H1371 0.930 . S
C1379 C1380 1.355 . S
C1379 C1381 1.415 1_655 S
C1380 C1379 1.355 . S
C1380 C1382 1.419 1_655 S
C1381 C1376 1.425 . S
C1381 C1378 1.409 . S
C1381 C1379 1.415 1_455 S
C1382 H1372 0.932 . S
C1382 C1380 1.419 1_455 S
C1382 C1383 1.362 . S
C1383 H1373 0.930 . S
C1383 C1376 1.409 . S
C1383 C1382 1.362 . S
H1384 C1390 0.930 . S
H1385 C1393 0.930 . S
H1386 C1394 0.930 . S
H1387 C1395 0.930 . S
H1388 C1398 0.930 . S
H1389 C1399 0.930 . S
C1390 H1384 0.930 . S
C1390 C1391 1.355 . S
C1390 C1392 1.415 . S
C1391 C1390 1.355 . S
C1391 C1393 1.419 . S
C1392 C1390 1.415 . S
C1392 C1397 1.425 . S
C1392 C1399 1.409 . S
C1393 H1385 0.930 . S
C1393 C1391 1.419 . S
C1393 C1394 1.362 . S
C1394 H1386 0.930 . S
C1394 C1393 1.362 . S
C1394 C1397 1.409 . S
C1395 H1387 0.930 . S
C1395 C1396 1.355 . S
C1395 C1397 1.415 . S
C1396 C1395 1.355 . S
C1396 C1398 1.419 . S
C1397 C1392 1.425 . S
C1397 C1394 1.409 . S
C1397 C1395 1.415 . S
C1398 H1388 0.930 . S
C1398 C1396 1.419 . S
C1398 C1399 1.362 . S
C1399 H1389 0.930 . S
C1399 C1392 1.409 . S
C1399 C1398 1.362 . S
H1400 C1406 0.930 . S
H1401 C1409 0.930 . S
H1402 C1410 0.930 . S
H1403 C1411 0.930 . S
H1404 C1414 0.930 . S
H1405 C1415 0.930 . S
C1406 H1400 0.930 . S
C1406 C1407 1.355 . S
C1406 C1408 1.415 . S
C1407 C1406 1.355 . S
C1407 C1409 1.419 . S
C1408 C1406 1.415 . S
C1408 C1413 1.425 . S
C1408 C1415 1.409 1_655 S
C1409 H1401 0.930 . S
C1409 C1407 1.419 . S
C1409 C1410 1.362 . S
C1410 H1402 0.930 . S
C1410 C1409 1.362 . S
C1410 C1413 1.409 . S
C1411 H1403 0.930 . S
C1411 C1412 1.355 . S
C1411 C1413 1.415 1_455 S
C1412 C1411 1.355 . S
C1412 C1414 1.419 . S
C1413 C1408 1.425 . S
C1413 C1410 1.409 . S
C1413 C1411 1.415 1_655 S
C1414 H1404 0.930 . S
C1414 C1412 1.419 . S
C1414 C1415 1.362 . S
C1415 H1405 0.930 . S
C1415 C1408 1.409 1_455 S
C1415 C1414 1.362 . S
H1416 C1422 0.930 . S
H1417 C1425 0.930 . S
H1418 C1426 0.930 . S
H1419 C1427 0.930 . S
H1420 C1430 0.930 . S
H1421 C1431 0.930 . S
C1422 H1416 0.930 . S
C1422 C1423 1.355 . S
C1422 C1424 1.415 . S
C1423 C1422 1.355 . S
C1423 C1425 1.419 . S
C1424 C1422 1.415 . S
C1424 C1429 1.425 . S
C1424 C1431 1.409 . S
C1425 H1417 0.930 . S
C1425 C1423 1.419 . S
C1425 C1426 1.362 . S
C1426 H1418 0.930 . S
C1426 C1425 1.362 . S
C1426 C1429 1.409 . S
C1427 H1419 0.930 . S
C1427 C1428 1.355 . S
C1427 C1429 1.415 . S
C1428 C1427 1.355 . S
C1428 C1430 1.419 . S
C1429 C1424 1.425 . S
C1429 C1426 1.409 . S
C1429 C1427 1.415 . S
C1430 H1420 0.930 . S
C1430 C1428 1.419 . S
C1430 C1431 1.362 . S
C1431 H1421 0.930 . S
C1431 C1424 1.409 . S
C1431 C1430 1.362 . S
H1432 C1438 0.930 . S
H1433 C1441 0.930 . S
H1434 C1442 0.930 . S
H1435 C1443 0.930 . S
H1436 C1446 0.930 . S
H1437 C1447 0.930 . S
C1438 H1432 0.930 . S
C1438 C1439 1.355 . S
C1438 C1440 1.415 . S
C1439 C1438 1.355 . S
C1439 C1441 1.419 . S
C1440 C1438 1.415 . S
C1440 C1445 1.425 . S
C1440 C1447 1.409 . S
C1441 H1433 0.930 . S
C1441 C1439 1.419 . S
C1441 C1442 1.362 . S
C1442 H1434 0.930 . S
C1442 C1441 1.362 . S
C1442 C1445 1.409 . S
C1443 H1435 0.930 . S
C1443 C1444 1.355 . S
C1443 C1445 1.415 . S
C1444 C1443 1.355 . S
C1444 C1446 1.419 . S
C1445 C1440 1.425 . S
C1445 C1442 1.409 . S
C1445 C1443 1.415 . S
C1446 H1436 0.930 . S
C1446 C1444 1.419 . S
C1446 C1447 1.362 . S
C1447 H1437 0.930 . S
C1447 C1440 1.409 . S
C1447 C1446 1.362 . S
H1448 C1454 0.930 . S
H1449 C1457 0.930 . S
H1450 C1458 0.930 . S
H1451 C1459 0.930 . S
H1452 C1462 0.930 . S
H1453 C1463 0.930 . S
C1454 H1448 0.930 . S
C1454 C1455 1.355 . S
C1454 C1456 1.415 . S
C1455 C1454 1.355 . S
C1455 C1457 1.419 . S
C1456 C1454 1.415 . S
C1456 C1461 1.425 . S
C1456 C1463 1.409 . S
C1457 H1449 0.930 . S
C1457 C1455 1.419 . S
C1457 C1458 1.362 . S
C1458 H1450 0.930 . S
C1458 C1457 1.362 . S
C1458 C1461 1.409 . S
C1459 H1451 0.930 . S
C1459 C1460 1.355 . S
C1459 C1461 1.415 1_556 S
C1460 C1459 1.355 . S
C1460 C1462 1.419 . S
C1461 C1456 1.425 . S
C1461 C1458 1.409 . S
C1461 C1459 1.415 1_554 S
C1462 H1452 0.930 . S
C1462 C1460 1.419 . S
C1462 C1463 1.362 1_556 S
C1463 H1453 0.930 . S
C1463 C1456 1.409 . S
C1463 C1462 1.362 1_554 S
H1464 C1470 0.930 . S
H1465 C1473 0.930 . S
H1466 C1474 0.930 . S
H1467 C1475 0.930 . S
H1468 C1478 0.930 . S
H1469 C1479 0.930 . S
C1470 H1464 0.930 . S
C1470 C1471 1.355 . S
C1470 C1472 1.415 . S
C1471 C1470 1.355 . S
C1471 C1473 1.419 . S
C1472 C1470 1.415 . S
C1472 C1477 1.425 . S
C1472 C1479 1.409 . S
C1473 H1465 0.930 . S
C1473 C1471 1.419 . S
C1473 C1474 1.362 . S
C1474 H1466 0.930 . S
C1474 C1473 1.362 . S
C1474 C1477 1.409 . S
C1475 H1467 0.930 . S
C1475 C1476 1.355 . S
C1475 C1477 1.415 . S
C1476 C1475 1.355 . S
C1476 C1478 1.419 . S
C1477 C1472 1.425 . S
C1477 C1474 1.409 . S
C1477 C1475 1.415 . S
C1478 H1468 0.930 . S
C1478 C1476 1.419 . S
C1478 C1479 1.362 . S
C1479 H1469 0.930 . S
C1479 C1472 1.409 . S
C1479 C1478 1.362 . S
H1480 C1486 0.930 . S
H1481 C1489 0.930 . S
H1482 C1490 0.930 . S
H1483 C1491 0.930 . S
H1484 C1494 0.930 . S
H1485 C1495 0.930 . S
C1486 H1480 0.930 . S
C1486 C1487 1.355 . S
C1486 C1488 1.415 . S
C1487 C1486 1.355 . S
C1487 C1489 1.419 . S
C1488 C1486 1.415 . S
C1488 C1493 1.425 . S
C1488 C1495 1.409 . S
C1489 H1481 0.930 . S
C1489 C1487 1.419 . S
C1489 C1490 1.362 . S
C1490 H1482 0.930 . S
C1490 C1489 1.362 . S
C1490 C1493 1.409 . S
C1491 H1483 0.930 . S
C1491 C1492 1.355 . S
C1491 C1493 1.415 . S
C1492 C1491 1.355 . S
C1492 C1494 1.419 . S
C1493 C1488 1.425 . S
C1493 C1490 1.409 . S
C1493 C1491 1.415 . S
C1494 H1484 0.930 . S
C1494 C1492 1.419 . S
C1494 C1495 1.362 . S
C1495 H1485 0.930 . S
C1495 C1488 1.409 . S
C1495 C1494 1.362 . S
H1496 C1502 0.930 . S
H1497 C1505 0.930 . S
H1498 C1506 0.930 . S
H1499 C1507 0.930 . S
H1500 C1510 0.930 . S
H1501 C1511 0.930 . S
C1502 H1496 0.930 . S
C1502 C1503 1.355 . S
C1502 C1504 1.415 . S
C1503 C1502 1.355 . S
C1503 C1505 1.419 . S
C1504 C1502 1.415 . S
C1504 C1509 1.425 . S
C1504 C1511 1.409 . S
C1505 H1497 0.930 . S
C1505 C1503 1.419 . S
C1505 C1506 1.362 . S
C1506 H1498 0.930 . S
C1506 C1505 1.362 . S
C1506 C1509 1.409 . S
C1507 H1499 0.930 . S
C1507 C1508 1.355 . S
C1507 C1509 1.415 . S
C1508 C1507 1.355 . S
C1508 C1510 1.419 . S
C1509 C1504 1.425 . S
C1509 C1506 1.409 . S
C1509 C1507 1.415 . S
C1510 H1500 0.930 . S
C1510 C1508 1.419 . S
C1510 C1511 1.362 . S
C1511 H1501 0.930 . S
C1511 C1504 1.409 . S
C1511 C1510 1.362 . S
H1512 C1518 0.930 . S
H1513 C1521 0.930 1_455 S
H1514 C1522 0.953 1_554 S
H1515 C1523 0.930 . S
H1516 C1526 0.930 . S
H1517 C1527 0.930 . S
C1518 H1512 0.930 . S
C1518 C1519 1.355 . S
C1518 C1520 1.415 . S
C1519 C1518 1.355 . S
C1519 C1521 1.419 . S
C1520 C1518 1.415 . S
C1520 C1525 1.425 1_556 S
C1520 C1527 1.409 . S
C1521 H1513 0.930 1_655 S
C1521 C1519 1.419 . S
C1521 C1522 1.362 . S
C1522 H1514 0.953 1_556 S
C1522 C1521 1.362 . S
C1522 C1525 1.409 1_556 S
C1523 H1515 0.930 . S
C1523 C1524 1.355 . S
C1523 C1525 1.415 . S
C1524 C1523 1.355 . S
C1524 C1526 1.419 . S
C1525 C1520 1.425 1_554 S
C1525 C1522 1.409 1_554 S
C1525 C1523 1.415 . S
C1526 H1516 0.930 . S
C1526 C1524 1.419 . S
C1526 C1527 1.362 1_554 S
C1527 H1517 0.930 . S
C1527 C1520 1.409 . S
C1527 C1526 1.362 1_556 S
H1528 C1534 0.930 . S
H1529 C1537 0.930 . S
H1530 C1538 0.930 . S
H1531 C1539 0.930 . S
H1532 C1542 0.930 . S
H1533 C1543 0.930 . S
C1534 H1528 0.930 . S
C1534 C1535 1.355 . S
C1534 C1536 1.415 . S
C1535 C1534 1.355 . S
C1535 C1537 1.419 . S
C1536 C1534 1.415 . S
C1536 C1541 1.425 . S
C1536 C1543 1.409 . S
C1537 H1529 0.930 . S
C1537 C1535 1.419 . S
C1537 C1538 1.362 . S
C1538 H1530 0.930 . S
C1538 C1537 1.362 . S
C1538 C1541 1.409 . S
C1539 H1531 0.930 . S
C1539 C1540 1.355 . S
C1539 C1541 1.415 . S
C1540 C1539 1.355 . S
C1540 C1542 1.419 . S
C1541 C1536 1.425 . S
C1541 C1538 1.409 . S
C1541 C1539 1.415 . S
C1542 H1532 0.930 . S
C1542 C1540 1.419 . S
C1542 C1543 1.362 . S
C1543 H1533 0.930 . S
C1543 C1536 1.409 . S
C1543 C1542 1.362 . S
H1544 C1550 0.930 . S
H1545 C1553 0.930 . S
H1546 C1554 0.930 . S
H1547 C1555 0.930 . S
H1548 C1558 0.930 . S
H1549 C1559 0.930 . S
C1550 H1544 0.930 . S
C1550 C1551 1.355 . S
C1550 C1552 1.415 . S
C1551 C1550 1.355 . S
C1551 C1553 1.419 . S
C1552 C1550 1.415 . S
C1552 C1557 1.425 . S
C1552 C1559 1.409 . S
C1553 H1545 0.930 . S
C1553 C1551 1.419 . S
C1553 C1554 1.362 . S
C1554 H1546 0.930 . S
C1554 C1553 1.362 . S
C1554 C1557 1.409 . S
C1555 H1547 0.930 . S
C1555 C1556 1.355 . S
C1555 C1557 1.415 . S
C1556 C1555 1.355 . S
C1556 C1558 1.419 . S
C1557 C1552 1.425 . S
C1557 C1554 1.409 . S
C1557 C1555 1.415 . S
C1558 H1548 0.930 . S
C1558 C1556 1.419 . S
C1558 C1559 1.362 . S
C1559 H1549 0.930 . S
C1559 C1552 1.409 . S
C1559 C1558 1.362 . S
H1560 C1566 0.930 . S
H1561 C1569 0.930 . S
H1562 C1570 0.930 . S
H1563 C1571 0.930 . S
H1564 C1574 0.930 . S
H1565 C1575 0.930 . S
C1566 H1560 0.930 . S
C1566 C1567 1.355 . S
C1566 C1568 1.415 . S
C1567 C1566 1.355 . S
C1567 C1569 1.419 . S
C1568 C1566 1.415 . S
C1568 C1573 1.425 . S
C1568 C1575 1.409 . S
C1569 H1561 0.930 . S
C1569 C1567 1.419 . S
C1569 C1570 1.362 . S
C1570 H1562 0.930 . S
C1570 C1569 1.362 . S
C1570 C1573 1.409 . S
C1571 H1563 0.930 . S
C1571 C1572 1.355 . S
C1571 C1573 1.415 . S
C1572 C1571 1.355 . S
C1572 C1574 1.419 . S
C1573 C1568 1.425 . S
C1573 C1570 1.409 . S
C1573 C1571 1.415 . S
C1574 H1564 0.930 . S
C1574 C1572 1.419 . S
C1574 C1575 1.362 . S
C1575 H1565 0.930 . S
C1575 C1568 1.409 . S
C1575 C1574 1.362 . S
H1576 C1582 0.930 . S
H1577 C1585 0.930 . S
H1578 C1586 0.930 . S
H1579 C1587 0.930 . S
H1580 C1590 0.930 . S
H1581 C1591 0.930 . S
C1582 H1576 0.930 . S
C1582 C1583 1.355 . S
C1582 C1584 1.415 . S
C1583 C1582 1.355 . S
C1583 C1585 1.419 . S
C1584 C1582 1.415 . S
C1584 C1589 1.425 . S
C1584 C1591 1.409 . S
C1585 H1577 0.930 . S
C1585 C1583 1.419 . S
C1585 C1586 1.362 . S
C1586 H1578 0.930 . S
C1586 C1585 1.362 . S
C1586 C1589 1.409 . S
C1587 H1579 0.930 . S
C1587 C1588 1.355 . S
C1587 C1589 1.415 . S
C1588 C1587 1.355 . S
C1588 C1590 1.419 . S
C1589 C1584 1.425 . S
C1589 C1586 1.409 . S
C1589 C1587 1.415 . S
C1590 H1580 0.930 . S
C1590 C1588 1.419 . S
C1590 C1591 1.362 . S
C1591 H1581 0.930 . S
C1591 C1584 1.409 . S
C1591 C1590 1.362 . S
H1592 C1598 0.930 . S
H1593 C1601 0.930 . S
H1594 C1602 0.930 . S
H1595 C1603 0.930 . S
H1596 C1606 0.930 . S
H1597 C1607 0.930 . S
C1598 H1592 0.930 . S
C1598 C1599 1.355 . S
C1598 C1600 1.415 . S
C1599 C1598 1.355 . S
C1599 C1601 1.419 . S
C1600 C1598 1.415 . S
C1600 C1605 1.425 . S
C1600 C1607 1.409 . S
C1601 H1593 0.930 . S
C1601 C1599 1.419 . S
C1601 C1602 1.362 . S
C1602 H1594 0.930 . S
C1602 C1601 1.362 . S
C1602 C1605 1.409 . S
C1603 H1595 0.930 . S
C1603 C1604 1.355 . S
C1603 C1605 1.415 . S
C1604 C1603 1.355 . S
C1604 C1606 1.419 . S
C1605 C1600 1.425 . S
C1605 C1602 1.409 . S
C1605 C1603 1.415 . S
C1606 H1596 0.930 . S
C1606 C1604 1.419 . S
C1606 C1607 1.362 . S
C1607 H1597 0.930 . S
C1607 C1600 1.409 . S
C1607 C1606 1.362 . S
H1608 C1614 0.930 . S
H1609 C1617 0.930 . S
H1610 C1618 0.930 . S
H1611 C1619 0.930 . S
H1612 C1622 0.930 . S
H1613 C1623 0.930 . S
C1614 H1608 0.930 . S
C1614 C1615 1.355 . S
C1614 C1616 1.415 . S
C1615 C1614 1.355 . S
C1615 C1617 1.419 . S
C1616 C1614 1.415 . S
C1616 C1621 1.425 . S
C1616 C1623 1.409 . S
C1617 H1609 0.930 . S
C1617 C1615 1.419 . S
C1617 C1618 1.362 . S
C1618 H1610 0.930 . S
C1618 C1617 1.362 . S
C1618 C1621 1.409 . S
C1619 H1611 0.930 . S
C1619 C1620 1.355 . S
C1619 C1621 1.415 . S
C1620 C1619 1.355 . S
C1620 C1622 1.419 . S
C1621 C1616 1.425 . S
C1621 C1618 1.409 . S
C1621 C1619 1.415 . S
C1622 H1612 0.930 . S
C1622 C1620 1.419 . S
C1622 C1623 1.362 . S
C1623 H1613 0.930 . S
C1623 C1616 1.409 . S
C1623 C1622 1.362 . S
H1624 C1630 0.930 . S
H1625 C1633 0.930 . S
H1626 C1634 0.930 . S
H1627 C1635 0.930 . S
H1628 C1638 0.930 . S
H1629 C1639 0.930 . S
C1630 H1624 0.930 . S
C1630 C1631 1.355 . S
C1630 C1632 1.415 . S
C1631 C1630 1.355 . S
C1631 C1633 1.419 . S
C1632 C1630 1.415 . S
C1632 C1637 1.425 . S
C1632 C1639 1.409 . S
C1633 H1625 0.930 . S
C1633 C1631 1.419 . S
C1633 C1634 1.362 . S
C1634 H1626 0.930 . S
C1634 C1633 1.362 . S
C1634 C1637 1.409 . S
C1635 H1627 0.930 . S
C1635 C1636 1.355 . S
C1635 C1637 1.415 . S
C1636 C1635 1.355 . S
C1636 C1638 1.419 . S
C1637 C1632 1.425 . S
C1637 C1634 1.409 . S
C1637 C1635 1.415 . S
C1638 H1628 0.930 . S
C1638 C1636 1.419 . S
C1638 C1639 1.362 . S
C1639 H1629 0.930 . S
C1639 C1632 1.409 . S
C1639 C1638 1.362 . S
H1640 C1646 0.930 . S
H1641 C1649 0.930 . S
H1642 C1650 0.930 . S
H1643 C1651 0.930 . S
H1644 C1654 0.930 . S
H1645 C1655 0.930 . S
C1646 H1640 0.930 . S
C1646 C1647 1.355 . S
C1646 C1648 1.415 . S
C1647 C1646 1.355 . S
C1647 C1649 1.419 . S
C1648 C1646 1.415 . S
C1648 C1653 1.425 . S
C1648 C1655 1.409 . S
C1649 H1641 0.930 . S
C1649 C1647 1.419 . S
C1649 C1650 1.362 . S
C1650 H1642 0.930 . S
C1650 C1649 1.362 . S
C1650 C1653 1.409 . S
C1651 H1643 0.930 . S
C1651 C1652 1.355 . S
C1651 C1653 1.415 . S
C1652 C1651 1.355 . S
C1652 C1654 1.419 . S
C1653 C1648 1.425 . S
C1653 C1650 1.409 . S
C1653 C1651 1.415 . S
C1654 H1644 0.930 . S
C1654 C1652 1.419 . S
C1654 C1655 1.362 . S
C1655 H1645 0.930 . S
C1655 C1648 1.409 . S
C1655 C1654 1.362 . S
H1656 C1662 0.930 . S
H1657 C1665 0.930 . S
H1658 C1666 0.930 . S
H1659 C1667 0.930 . S
H1660 C1670 0.930 . S
H1661 C1671 0.930 . S
C1662 H1656 0.930 . S
C1662 C1663 1.355 . S
C1662 C1664 1.415 . S
C1663 C1662 1.355 . S
C1663 C1665 1.419 . S
C1664 C1662 1.415 . S
C1664 C1669 1.425 . S
C1664 C1671 1.409 . S
C1665 H1657 0.930 . S
C1665 C1663 1.419 . S
C1665 C1666 1.362 . S
C1666 H1658 0.930 . S
C1666 C1665 1.362 . S
C1666 C1669 1.409 . S
C1667 H1659 0.930 . S
C1667 C1668 1.355 . S
C1667 C1669 1.415 . S
C1668 C1667 1.355 . S
C1668 C1670 1.419 . S
C1669 C1664 1.425 . S
C1669 C1666 1.409 . S
C1669 C1667 1.415 . S
C1670 H1660 0.930 . S
C1670 C1668 1.419 . S
C1670 C1671 1.362 . S
C1671 H1661 0.930 . S
C1671 C1664 1.409 . S
C1671 C1670 1.362 . S
H1672 C1678 0.930 . S
H1673 C1681 0.930 . S
H1674 C1682 0.930 . S
H1675 C1683 0.930 . S
H1676 C1686 0.930 . S
H1677 C1687 0.930 . S
C1678 H1672 0.930 . S
C1678 C1679 1.355 . S
C1678 C1680 1.415 . S
C1679 C1678 1.355 . S
C1679 C1681 1.419 . S
C1680 C1678 1.415 . S
C1680 C1685 1.425 . S
C1680 C1687 1.409 . S
C1681 H1673 0.930 . S
C1681 C1679 1.419 . S
C1681 C1682 1.362 . S
C1682 H1674 0.930 . S
C1682 C1681 1.362 . S
C1682 C1685 1.409 . S
C1683 H1675 0.930 . S
C1683 C1684 1.355 . S
C1683 C1685 1.415 . S
C1684 C1683 1.355 . S
C1684 C1686 1.419 . S
C1685 C1680 1.425 . S
C1685 C1682 1.409 . S
C1685 C1683 1.415 . S
C1686 H1676 0.930 . S
C1686 C1684 1.419 . S
C1686 C1687 1.362 . S
C1687 H1677 0.930 . S
C1687 C1680 1.409 . S
C1687 C1686 1.362 . S
H1688 C1694 0.930 . S
H1689 C1697 0.930 . S
H1690 C1698 0.930 . S
H1691 C1699 0.930 . S
H1692 C1702 0.930 . S
H1693 C1703 0.930 . S
C1694 H1688 0.930 . S
C1694 C1695 1.355 . S
C1694 C1696 1.415 . S
C1695 C1694 1.355 . S
C1695 C1697 1.419 . S
C1696 C1694 1.415 . S
C1696 C1701 1.425 . S
C1696 C1703 1.409 . S
C1697 H1689 0.930 . S
C1697 C1695 1.419 . S
C1697 C1698 1.362 . S
C1698 H1690 0.930 . S
C1698 C1697 1.362 . S
C1698 C1701 1.409 . S
C1699 H1691 0.930 . S
C1699 C1700 1.355 . S
C1699 C1701 1.415 . S
C1700 C1699 1.355 . S
C1700 C1702 1.419 . S
C1701 C1696 1.425 . S
C1701 C1698 1.409 . S
C1701 C1699 1.415 . S
C1702 H1692 0.930 . S
C1702 C1700 1.419 . S
C1702 C1703 1.362 . S
C1703 H1693 0.930 . S
C1703 C1696 1.409 . S
C1703 C1702 1.362 . S
H1704 C1710 0.930 . S
H1705 C1713 0.930 . S
H1706 C1714 0.930 . S
H1707 C1715 0.930 . S
H1708 C1718 0.930 . S
H1709 C1719 0.930 . S
C1710 H1704 0.930 . S
C1710 C1711 1.355 . S
C1710 C1712 1.415 . S
C1711 C1710 1.355 . S
C1711 C1713 1.419 . S
C1712 C1710 1.415 . S
C1712 C1717 1.425 . S
C1712 C1719 1.409 . S
C1713 H1705 0.930 . S
C1713 C1711 1.419 . S
C1713 C1714 1.362 . S
C1714 H1706 0.930 . S
C1714 C1713 1.362 . S
C1714 C1717 1.409 . S
C1715 H1707 0.930 . S
C1715 C1716 1.355 . S
C1715 C1717 1.415 . S
C1716 C1715 1.355 . S
C1716 C1718 1.419 . S
C1717 C1712 1.425 . S
C1717 C1714 1.409 . S
C1717 C1715 1.415 . S
C1718 H1708 0.930 . S
C1718 C1716 1.419 . S
C1718 C1719 1.362 . S
C1719 H1709 0.930 . S
C1719 C1712 1.409 . S
C1719 C1718 1.362 . S
H1720 C1726 0.930 . S
H1721 C1729 0.930 . S
H1722 C1730 0.930 . S
H1723 C1731 0.930 . S
H1724 C1734 0.930 . S
H1725 C1735 0.930 . S
C1726 H1720 0.930 . S
C1726 C1727 1.355 . S
C1726 C1728 1.415 . S
C1727 C1726 1.355 . S
C1727 C1729 1.419 . S
C1728 C1726 1.415 . S
C1728 C1733 1.425 . S
C1728 C1735 1.409 . S
C1729 H1721 0.930 . S
C1729 C1727 1.419 . S
C1729 C1730 1.362 . S
C1730 H1722 0.930 . S
C1730 C1729 1.362 . S
C1730 C1733 1.409 . S
C1731 H1723 0.930 . S
C1731 C1732 1.355 . S
C1731 C1733 1.415 . S
C1732 C1731 1.355 . S
C1732 C1734 1.419 . S
C1733 C1728 1.425 . S
C1733 C1730 1.409 . S
C1733 C1731 1.415 . S
C1734 H1724 0.930 . S
C1734 C1732 1.419 . S
C1734 C1735 1.362 . S
C1735 H1725 0.930 . S
C1735 C1728 1.409 . S
C1735 C1734 1.362 . S
H1736 C1742 0.930 . S
H1737 C1745 0.930 . S
H1738 C1746 0.930 . S
H1739 C1747 0.930 . S
H1740 C1750 0.930 . S
H1741 C1751 0.930 . S
C1742 H1736 0.930 . S
C1742 C1743 1.355 . S
C1742 C1744 1.415 . S
C1743 C1742 1.355 . S
C1743 C1745 1.419 . S
C1744 C1742 1.415 . S
C1744 C1749 1.425 . S
C1744 C1751 1.409 . S
C1745 H1737 0.930 . S
C1745 C1743 1.419 . S
C1745 C1746 1.362 . S
C1746 H1738 0.930 . S
C1746 C1745 1.362 . S
C1746 C1749 1.409 . S
C1747 H1739 0.930 . S
C1747 C1748 1.355 . S
C1747 C1749 1.415 . S
C1748 C1747 1.355 . S
C1748 C1750 1.419 . S
C1749 C1744 1.425 . S
C1749 C1746 1.409 . S
C1749 C1747 1.415 . S
C1750 H1740 0.930 . S
C1750 C1748 1.419 . S
C1750 C1751 1.362 . S
C1751 H1741 0.930 . S
C1751 C1744 1.409 . S
C1751 C1750 1.362 . S
H1752 C1758 0.930 . S
H1753 C1761 0.930 . S
H1754 C1762 0.930 . S
H1755 C1763 0.930 . S
H1756 C1766 0.930 . S
H1757 C1767 0.930 . S
C1758 H1752 0.930 . S
C1758 C1759 1.355 . S
C1758 C1760 1.415 . S
C1759 C1758 1.355 . S
C1759 C1761 1.419 . S
C1760 C1758 1.415 . S
C1760 C1765 1.425 . S
C1760 C1767 1.409 . S
C1761 H1753 0.930 . S
C1761 C1759 1.419 . S
C1761 C1762 1.362 . S
C1762 H1754 0.930 . S
C1762 C1761 1.362 . S
C1762 C1765 1.409 . S
C1763 H1755 0.930 . S
C1763 C1764 1.355 . S
C1763 C1765 1.415 . S
C1764 C1763 1.355 . S
C1764 C1766 1.419 . S
C1765 C1760 1.425 . S
C1765 C1762 1.409 . S
C1765 C1763 1.415 . S
C1766 H1756 0.930 . S
C1766 C1764 1.419 . S
C1766 C1767 1.362 . S
C1767 H1757 0.930 . S
C1767 C1760 1.409 . S
C1767 C1766 1.362 . S
H1768 C1774 0.930 . S
H1769 C1777 0.930 . S
H1770 C1778 0.930 . S
H1771 C1779 0.930 . S
H1772 C1782 0.930 . S
H1773 C1783 0.930 . S
C1774 H1768 0.930 . S
C1774 C1775 1.355 . S
C1774 C1776 1.415 . S
C1775 C1774 1.355 . S
C1775 C1777 1.419 . S
C1776 C1774 1.415 . S
C1776 C1781 1.425 . S
C1776 C1783 1.409 . S
C1777 H1769 0.930 . S
C1777 C1775 1.419 . S
C1777 C1778 1.362 . S
C1778 H1770 0.930 . S
C1778 C1777 1.362 . S
C1778 C1781 1.409 . S
C1779 H1771 0.930 . S
C1779 C1780 1.355 . S
C1779 C1781 1.415 . S
C1780 C1779 1.355 . S
C1780 C1782 1.419 . S
C1781 C1776 1.425 . S
C1781 C1778 1.409 . S
C1781 C1779 1.415 . S
C1782 H1772 0.930 . S
C1782 C1780 1.419 . S
C1782 C1783 1.362 . S
C1783 H1773 0.930 . S
C1783 C1776 1.409 . S
C1783 C1782 1.362 . S
H1784 C1790 0.930 . S
H1785 C1793 0.930 . S
H1786 C1794 0.930 . S
H1787 C1795 0.930 . S
H1788 C1798 0.930 . S
H1789 C1799 0.930 . S
C1790 H1784 0.930 . S
C1790 C1791 1.355 . S
C1790 C1792 1.415 . S
C1791 C1790 1.355 . S
C1791 C1793 1.419 . S
C1792 C1790 1.415 . S
C1792 C1797 1.425 . S
C1792 C1799 1.409 . S
C1793 H1785 0.930 . S
C1793 C1791 1.419 . S
C1793 C1794 1.362 . S
C1794 H1786 0.930 . S
C1794 C1793 1.362 . S
C1794 C1797 1.409 . S
C1795 H1787 0.930 . S
C1795 C1796 1.355 . S
C1795 C1797 1.415 . S
C1796 C1795 1.355 . S
C1796 C1798 1.419 . S
C1797 C1792 1.425 . S
C1797 C1794 1.409 . S
C1797 C1795 1.415 . S
C1798 H1788 0.930 . S
C1798 C1796 1.419 . S
C1798 C1799 1.362 . S
C1799 H1789 0.930 . S
C1799 C1792 1.409 . S
C1799 C1798 1.362 . S
H1800 C1806 0.930 . S
H1801 C1809 0.924 1_545 S
H1802 C1810 0.930 1_445 S
H1803 C1811 0.930 . S
H1804 C1814 0.930 . S
H1805 C1815 0.930 . S
C1806 H1800 0.930 . S
C1806 C1807 1.355 . S
C1806 C1808 1.415 . S
C1807 C1806 1.355 . S
C1807 C1809 1.424 . S
C1808 C1806 1.415 . S
C1808 C1813 1.425 . S
C1808 C1815 1.409 . S
C1809 H1801 0.924 1_565 S
C1809 C1807 1.424 . S
C1809 C1810 1.364 . S
C1810 H1802 0.930 1_665 S
C1810 C1809 1.364 . S
C1810 C1813 1.409 . S
C1811 H1803 0.930 . S
C1811 C1812 1.355 . S
C1811 C1813 1.415 1_455 S
C1812 C1811 1.355 . S
C1812 C1814 1.419 . S
C1813 C1808 1.425 . S
C1813 C1810 1.409 . S
C1813 C1811 1.415 1_655 S
C1814 H1804 0.930 . S
C1814 C1812 1.419 . S
C1814 C1815 1.362 1_455 S
C1815 H1805 0.930 . S
C1815 C1808 1.409 . S
C1815 C1814 1.362 1_655 S
H1816 C1822 0.930 . S
H1817 C1825 0.930 . S
H1818 C1826 0.930 . S
H1819 C1827 0.930 . S
H1820 C1830 0.930 . S
H1821 C1831 0.930 . S
C1822 H1816 0.930 . S
C1822 C1823 1.355 . S
C1822 C1824 1.415 . S
C1823 C1822 1.355 . S
C1823 C1825 1.419 . S
C1824 C1822 1.415 . S
C1824 C1829 1.425 . S
C1824 C1831 1.409 . S
C1825 H1817 0.930 . S
C1825 C1823 1.419 . S
C1825 C1826 1.362 . S
C1826 H1818 0.930 . S
C1826 C1825 1.362 . S
C1826 C1829 1.409 . S
C1827 H1819 0.930 . S
C1827 C1828 1.355 . S
C1827 C1829 1.415 . S
C1828 C1827 1.355 . S
C1828 C1830 1.419 . S
C1829 C1824 1.425 . S
C1829 C1826 1.409 . S
C1829 C1827 1.415 . S
C1830 H1820 0.930 . S
C1830 C1828 1.419 . S
C1830 C1831 1.362 . S
C1831 H1821 0.930 . S
C1831 C1824 1.409 . S
C1831 C1830 1.362 . S
H1832 C1838 0.930 . S
H1833 C1841 0.930 . S
H1834 C1842 0.930 . S
H1835 C1843 0.930 . S
H1836 C1846 0.930 . S
H1837 C1847 0.930 . S
C1838 H1832 0.930 . S
C1838 C1839 1.355 . S
C1838 C1840 1.415 . S
C1839 C1838 1.355 . S
C1839 C1841 1.419 . S
C1840 C1838 1.415 . S
C1840 C1845 1.425 . S
C1840 C1847 1.409 1_556 S
C1841 H1833 0.930 . S
C1841 C1839 1.419 . S
C1841 C1842 1.362 . S
C1842 H1834 0.930 . S
C1842 C1841 1.362 . S
C1842 C1845 1.409 . S
C1843 H1835 0.930 . S
C1843 C1844 1.355 . S
C1843 C1845 1.415 1_554 S
C1844 C1843 1.355 . S
C1844 C1846 1.419 . S
C1845 C1840 1.425 . S
C1845 C1842 1.409 . S
C1845 C1843 1.415 1_556 S
C1846 H1836 0.930 . S
C1846 C1844 1.419 . S
C1846 C1847 1.362 . S
C1847 H1837 0.930 . S
C1847 C1840 1.409 1_554 S
C1847 C1846 1.362 . S
H1848 C1854 0.930 . S
H1849 C1857 0.930 . S
H1850 C1858 0.930 . S
H1851 C1859 0.930 . S
H1852 C1862 0.930 . S
H1853 C1863 0.930 . S
C1854 H1848 0.930 . S
C1854 C1855 1.355 . S
C1854 C1856 1.415 . S
C1855 C1854 1.355 . S
C1855 C1857 1.419 . S
C1856 C1854 1.415 . S
C1856 C1861 1.425 . S
C1856 C1863 1.409 . S
C1857 H1849 0.930 . S
C1857 C1855 1.419 . S
C1857 C1858 1.362 . S
C1858 H1850 0.930 . S
C1858 C1857 1.362 . S
C1858 C1861 1.409 . S
C1859 H1851 0.930 . S
C1859 C1860 1.355 . S
C1859 C1861 1.415 . S
C1860 C1859 1.355 . S
C1860 C1862 1.419 . S
C1861 C1856 1.425 . S
C1861 C1858 1.409 . S
C1861 C1859 1.415 . S
C1862 H1852 0.930 . S
C1862 C1860 1.419 . S
C1862 C1863 1.362 . S
C1863 H1853 0.930 . S
C1863 C1856 1.409 . S
C1863 C1862 1.362 . S
H1864 C1870 0.930 . S
H1865 C1873 0.930 . S
H1866 C1874 0.930 . S
H1867 C1875 0.930 . S
H1868 C1878 0.930 . S
H1869 C1879 0.930 . S
C1870 H1864 0.930 . S
C1870 C1871 1.355 . S
C1870 C1872 1.415 . S
C1871 C1870 1.355 . S
C1871 C1873 1.419 . S
C1872 C1870 1.415 . S
C1872 C1877 1.425 . S
C1872 C1879 1.409 . S
C1873 H1865 0.930 . S
C1873 C1871 1.419 . S
C1873 C1874 1.362 . S
C1874 H1866 0.930 . S
C1874 C1873 1.362 . S
C1874 C1877 1.409 . S
C1875 H1867 0.930 . S
C1875 C1876 1.355 . S
C1875 C1877 1.415 . S
C1876 C1875 1.355 . S
C1876 C1878 1.419 . S
C1877 C1872 1.425 . S
C1877 C1874 1.409 . S
C1877 C1875 1.415 . S
C1878 H1868 0.930 . S
C1878 C1876 1.419 . S
C1878 C1879 1.362 . S
C1879 H1869 0.930 . S
C1879 C1872 1.409 . S
C1879 C1878 1.362 . S
H1880 C1886 0.930 . S
H1881 C1889 0.930 . S
H1882 C1890 0.930 . S
H1883 C1891 0.930 . S
H1884 C1894 0.930 . S
H1885 C1895 0.930 . S
C1886 H1880 0.930 . S
C1886 C1887 1.355 . S
C1886 C1888 1.415 . S
C1887 C1886 1.355 . S
C1887 C1889 1.419 . S
C1888 C1886 1.415 . S
C1888 C1893 1.425 . S
C1888 C1895 1.409 . S
C1889 H1881 0.930 . S
C1889 C1887 1.419 . S
C1889 C1890 1.362 . S
C1890 H1882 0.930 . S
C1890 C1889 1.362 . S
C1890 C1893 1.409 . S
C1891 H1883 0.930 . S
C1891 C1892 1.355 . S
C1891 C1893 1.415 . S
C1892 C1891 1.355 . S
C1892 C1894 1.419 . S
C1893 C1888 1.425 . S
C1893 C1890 1.409 . S
C1893 C1891 1.415 . S
C1894 H1884 0.930 . S
C1894 C1892 1.419 . S
C1894 C1895 1.362 . S
C1895 H1885 0.930 . S
C1895 C1888 1.409 . S
C1895 C1894 1.362 . S
H1896 C1902 0.930 . S
H1897 C1905 0.930 . S
H1898 C1906 0.930 . S
H1899 C1907 0.930 . S
H1900 C1910 0.930 . S
H1901 C1911 0.930 . S
C1902 H1896 0.930 . S
C1902 C1903 1.355 . S
C1902 C1904 1.415 . S
C1903 C1902 1.355 . S
C1903 C1905 1.419 . S
C1904 C1902 1.415 . S
C1904 C1909 1.425 . S
C1904 C1911 1.409 1_554 S
C1905 H1897 0.930 . S
C1905 C1903 1.419 . S
C1905 C1906 1.362 . S
C1906 H1898 0.930 . S
C1906 C1905 1.362 . S
C1906 C1909 1.409 . S
C1907 H1899 0.930 . S
C1907 C1908 1.355 1_554 S
C1907 C1909 1.415 . S
C1908 C1907 1.355 1_556 S
C1908 C1910 1.419 . S
C1909 C1904 1.425 . S
C1909 C1906 1.409 . S
C1909 C1907 1.415 . S
C1910 H1900 0.930 . S
C1910 C1908 1.419 . S
C1910 C1911 1.362 . S
C1911 H1901 0.930 . S
C1911 C1904 1.409 1_556 S
C1911 C1910 1.362 . S
H1912 C1918 0.930 . S
H1913 C1921 0.930 . S
H1914 C1922 0.930 . S
H1915 C1923 0.930 . S
H1916 C1926 0.930 . S
H1917 C1927 0.930 . S
C1918 H1912 0.930 . S
C1918 C1919 1.355 . S
C1918 C1920 1.415 . S
C1919 C1918 1.355 . S
C1919 C1921 1.419 . S
C1920 C1918 1.415 . S
C1920 C1925 1.425 . S
C1920 C1927 1.409 . S
C1921 H1913 0.930 . S
C1921 C1919 1.419 . S
C1921 C1922 1.362 . S
C1922 H1914 0.930 . S
C1922 C1921 1.362 . S
C1922 C1925 1.409 . S
C1923 H1915 0.930 . S
C1923 C1924 1.355 . S
C1923 C1925 1.415 . S
C1924 C1923 1.355 . S
C1924 C1926 1.419 . S
C1925 C1920 1.425 . S
C1925 C1922 1.409 . S
C1925 C1923 1.415 . S
C1926 H1916 0.930 . S
C1926 C1924 1.419 . S
C1926 C1927 1.362 . S
C1927 H1917 0.930 . S
C1927 C1920 1.409 . S
C1927 C1926 1.362 . S
H1928 C1934 0.930 . S
H1929 C1937 0.930 . S
H1930 C1938 0.930 . S
H1931 C1939 0.930 . S
H1932 C1942 0.930 . S
H1933 C1943 0.930 . S
C1934 H1928 0.930 . S
C1934 C1935 1.355 . S
C1934 C1936 1.415 . S
C1935 C1934 1.355 . S
C1935 C1937 1.419 . S
C1936 C1934 1.415 . S
C1936 C1941 1.425 . S
C1936 C1943 1.409 . S
C1937 H1929 0.930 . S
C1937 C1935 1.419 . S
C1937 C1938 1.362 . S
C1938 H1930 0.930 . S
C1938 C1937 1.362 . S
C1938 C1941 1.409 . S
C1939 H1931 0.930 . S
C1939 C1940 1.355 . S
C1939 C1941 1.415 . S
C1940 C1939 1.355 . S
C1940 C1942 1.419 . S
C1941 C1936 1.425 . S
C1941 C1938 1.409 . S
C1941 C1939 1.415 . S
C1942 H1932 0.930 . S
C1942 C1940 1.419 . S
C1942 C1943 1.362 . S
C1943 H1933 0.930 . S
C1943 C1936 1.409 . S
C1943 C1942 1.362 . S
H1944 C1950 0.930 . S
H1945 C1953 0.930 . S
H1946 C1954 0.930 . S
H1947 C1955 0.930 . S
H1948 C1958 0.930 . S
H1949 C1959 0.930 . S
C1950 H1944 0.930 . S
C1950 C1951 1.355 . S
C1950 C1952 1.415 . S
C1951 C1950 1.355 . S
C1951 C1953 1.419 . S
C1952 C1950 1.415 . S
C1952 C1957 1.425 . S
C1952 C1959 1.409 . S
C1953 H1945 0.930 . S
C1953 C1951 1.419 . S
C1953 C1954 1.362 . S
C1954 H1946 0.930 . S
C1954 C1953 1.362 . S
C1954 C1957 1.409 . S
C1955 H1947 0.930 . S
C1955 C1956 1.355 . S
C1955 C1957 1.415 . S
C1956 C1955 1.355 . S
C1956 C1958 1.419 . S
C1957 C1952 1.425 . S
C1957 C1954 1.409 . S
C1957 C1955 1.415 . S
C1958 H1948 0.930 . S
C1958 C1956 1.419 . S
C1958 C1959 1.362 . S
C1959 H1949 0.930 . S
C1959 C1952 1.409 . S
C1959 C1958 1.362 . S
H1960 C1966 0.930 . S
H1961 C1969 0.930 . S
H1962 C1970 0.930 . S
H1963 C1971 0.930 . S
H1964 C1974 0.930 . S
H1965 C1975 0.930 . S
C1966 H1960 0.930 . S
C1966 C1967 1.355 . S
C1966 C1968 1.415 . S
C1967 C1966 1.355 . S
C1967 C1969 1.419 . S
C1968 C1966 1.415 . S
C1968 C1973 1.425 . S
C1968 C1975 1.409 . S
C1969 H1961 0.930 . S
C1969 C1967 1.419 . S
C1969 C1970 1.362 . S
C1970 H1962 0.930 . S
C1970 C1969 1.362 . S
C1970 C1973 1.409 . S
C1971 H1963 0.930 . S
C1971 C1972 1.355 . S
C1971 C1973 1.415 . S
C1972 C1971 1.355 . S
C1972 C1974 1.419 . S
C1973 C1968 1.425 . S
C1973 C1970 1.409 . S
C1973 C1971 1.415 . S
C1974 H1964 0.930 . S
C1974 C1972 1.419 . S
C1974 C1975 1.362 . S
C1975 H1965 0.930 . S
C1975 C1968 1.409 . S
C1975 C1974 1.362 . S
H1976 C1982 0.930 . S
H1977 C1985 0.930 . S
H1978 C1986 0.930 . S
H1979 C1987 0.930 . S
H1980 C1990 0.930 . S
H1981 C1991 0.930 . S
C1982 H1976 0.930 . S
C1982 C1983 1.355 . S
C1982 C1984 1.415 . S
C1983 C1982 1.355 . S
C1983 C1985 1.419 . S
C1984 C1982 1.415 . S
C1984 C1989 1.425 . S
C1984 C1991 1.409 . S
C1985 H1977 0.930 . S
C1985 C1983 1.419 . S
C1985 C1986 1.362 . S
C1986 H1978 0.930 . S
C1986 C1985 1.362 . S
C1986 C1989 1.409 . S
C1987 H1979 0.930 . S
C1987 C1988 1.355 . S
C1987 C1989 1.415 . S
C1988 C1987 1.355 . S
C1988 C1990 1.419 . S
C1989 C1984 1.425 . S
C1989 C1986 1.409 . S
C1989 C1987 1.415 . S
C1990 H1980 0.930 . S
C1990 C1988 1.419 . S
C1990 C1991 1.362 . S
C1991 H1981 0.930 . S
C1991 C1984 1.409 . S
C1991 C1990 1.362 . S
H1992 C1998 0.930 . S
H1993 C2001 0.930 . S
H1994 C2002 0.930 . S
H1995 C2003 0.930 . S
H1996 C2006 0.930 . S
H1997 C2007 0.930 . S
C1998 H1992 0.930 . S
C1998 C1999 1.355 . S
C1998 C2000 1.415 . S
C1999 C1998 1.355 . S
C1999 C2001 1.419 . S
C2000 C1998 1.415 . S
C2000 C2005 1.425 . S
C2000 C2007 1.409 . S
C2001 H1993 0.930 . S
C2001 C1999 1.419 . S
C2001 C2002 1.362 . S
C2002 H1994 0.930 . S
C2002 C2001 1.362 . S
C2002 C2005 1.409 . S
C2003 H1995 0.930 . S
C2003 C2004 1.355 . S
C2003 C2005 1.415 . S
C2004 C2003 1.355 . S
C2004 C2006 1.419 . S
C2005 C2000 1.425 . S
C2005 C2002 1.409 . S
C2005 C2003 1.415 . S
C2006 H1996 0.930 . S
C2006 C2004 1.419 . S
C2006 C2007 1.362 . S
C2007 H1997 0.930 . S
C2007 C2000 1.409 . S
C2007 C2006 1.362 . S
H2008 C2014 0.930 . S
H2009 C2017 0.930 . S
H2010 C2018 0.930 . S
H2011 C2019 0.930 . S
H2012 C2022 0.930 . S
H2013 C2023 0.930 . S
C2014 H2008 0.930 . S
C2014 C2015 1.355 . S
C2014 C2016 1.415 . S
C2015 C2014 1.355 . S
C2015 C2017 1.419 . S
C2016 C2014 1.415 . S
C2016 C2021 1.425 . S
C2016 C2023 1.409 . S
C2017 H2009 0.930 . S
C2017 C2015 1.419 . S
C2017 C2018 1.362 . S
C2018 H2010 0.930 . S
C2018 C2017 1.362 . S
C2018 C2021 1.409 . S
C2019 H2011 0.930 . S
C2019 C2020 1.355 . S
C2019 C2021 1.415 . S
C2020 C2019 1.355 . S
C2020 C2022 1.419 . S
C2021 C2016 1.425 . S
C2021 C2018 1.409 . S
C2021 C2019 1.415 . S
C2022 H2012 0.930 . S
C2022 C2020 1.419 . S
C2022 C2023 1.362 . S
C2023 H2013 0.930 . S
C2023 C2016 1.409 . S
C2023 C2022 1.362 . S
H2024 C2030 0.930 . S
H2025 C2033 0.930 . S
H2026 C2034 0.930 . S
H2027 C2035 0.930 . S
H2028 C2038 0.930 . S
H2029 C2039 0.930 . S
C2030 H2024 0.930 . S
C2030 C2031 1.355 . S
C2030 C2032 1.415 . S
C2031 C2030 1.355 . S
C2031 C2033 1.419 . S
C2032 C2030 1.415 . S
C2032 C2037 1.425 . S
C2032 C2039 1.409 . S
C2033 H2025 0.930 . S
C2033 C2031 1.419 . S
C2033 C2034 1.362 . S
C2034 H2026 0.930 . S
C2034 C2033 1.362 . S
C2034 C2037 1.409 . S
C2035 H2027 0.930 . S
C2035 C2036 1.355 . S
C2035 C2037 1.415 . S
C2036 C2035 1.355 . S
C2036 C2038 1.419 . S
C2037 C2032 1.425 . S
C2037 C2034 1.409 . S
C2037 C2035 1.415 . S
C2038 H2028 0.930 . S
C2038 C2036 1.419 . S
C2038 C2039 1.362 . S
C2039 H2029 0.930 . S
C2039 C2032 1.409 . S
C2039 C2038 1.362 . S
H2040 C2046 0.930 . S
H2041 C2049 0.930 . S
H2042 C2050 0.930 . S
H2043 C2051 0.930 . S
H2044 C2054 0.930 . S
H2045 C2055 0.930 . S
C2046 H2040 0.930 . S
C2046 C2047 1.355 . S
C2046 C2048 1.415 . S
C2047 C2046 1.355 . S
C2047 C2049 1.419 . S
C2048 C2046 1.415 . S
C2048 C2053 1.425 . S
C2048 C2055 1.409 . S
C2049 H2041 0.930 . S
C2049 C2047 1.419 . S
C2049 C2050 1.362 . S
C2050 H2042 0.930 . S
C2050 C2049 1.362 . S
C2050 C2053 1.409 . S
C2051 H2043 0.930 . S
C2051 C2052 1.355 . S
C2051 C2053 1.415 . S
C2052 C2051 1.355 . S
C2052 C2054 1.419 . S
C2053 C2048 1.425 . S
C2053 C2050 1.409 . S
C2053 C2051 1.415 . S
C2054 H2044 0.930 . S
C2054 C2052 1.419 . S
C2054 C2055 1.362 . S
C2055 H2045 0.930 . S
C2055 C2048 1.409 . S
C2055 C2054 1.362 . S
H2056 C2062 0.930 . S
H2057 C2065 0.930 . S
H2058 C2066 0.930 . S
H2059 C2067 0.930 . S
H2060 C2070 0.930 . S
H2061 C2071 0.930 . S
C2062 H2056 0.930 . S
C2062 C2063 1.355 . S
C2062 C2064 1.415 . S
C2063 C2062 1.355 . S
C2063 C2065 1.419 . S
C2064 C2062 1.415 . S
C2064 C2069 1.425 . S
C2064 C2071 1.409 . S
C2065 H2057 0.930 . S
C2065 C2063 1.419 . S
C2065 C2066 1.362 . S
C2066 H2058 0.930 . S
C2066 C2065 1.362 . S
C2066 C2069 1.409 . S
C2067 H2059 0.930 . S
C2067 C2068 1.355 . S
C2067 C2069 1.415 . S
C2068 C2067 1.355 . S
C2068 C2070 1.419 . S
C2069 C2064 1.425 . S
C2069 C2066 1.409 . S
C2069 C2067 1.415 . S
C2070 H2060 0.930 . S
C2070 C2068 1.419 . S
C2070 C2071 1.362 . S
C2071 H2061 0.930 . S
C2071 C2064 1.409 . S
C2071 C2070 1.362 . S
H2072 C2078 0.930 . S
H2073 C2081 0.930 . S
H2074 C2082 0.930 . S
H2075 C2083 0.930 . S
H2076 C2086 0.930 . S
H2077 C2087 0.930 . S
C2078 H2072 0.930 . S
C2078 C2079 1.355 . S
C2078 C2080 1.415 . S
C2079 C2078 1.355 . S
C2079 C2081 1.419 . S
C2080 C2078 1.415 . S
C2080 C2085 1.425 . S
C2080 C2087 1.409 . S
C2081 H2073 0.930 . S
C2081 C2079 1.419 . S
C2081 C2082 1.362 . S
C2082 H2074 0.930 . S
C2082 C2081 1.362 . S
C2082 C2085 1.409 . S
C2083 H2075 0.930 . S
C2083 C2084 1.355 . S
C2083 C2085 1.415 . S
C2084 C2083 1.355 . S
C2084 C2086 1.419 . S
C2085 C2080 1.425 . S
C2085 C2082 1.409 . S
C2085 C2083 1.415 . S
C2086 H2076 0.930 . S
C2086 C2084 1.419 . S
C2086 C2087 1.362 . S
C2087 H2077 0.930 . S
C2087 C2080 1.409 . S
C2087 C2086 1.362 . S
H2088 C2094 0.930 . S
H2089 C2097 0.930 . S
H2090 C2098 0.930 . S
H2091 C2099 0.930 . S
H2092 C2102 0.930 . S
H2093 C2103 0.930 . S
C2094 H2088 0.930 . S
C2094 C2095 1.355 . S
C2094 C2096 1.415 . S
C2095 C2094 1.355 . S
C2095 C2097 1.419 . S
C2096 C2094 1.415 . S
C2096 C2101 1.425 . S
C2096 C2103 1.409 . S
C2097 H2089 0.930 . S
C2097 C2095 1.419 . S
C2097 C2098 1.362 . S
C2098 H2090 0.930 . S
C2098 C2097 1.362 . S
C2098 C2101 1.409 . S
C2099 H2091 0.930 . S
C2099 C2100 1.355 . S
C2099 C2101 1.415 . S
C2100 C2099 1.355 . S
C2100 C2102 1.419 . S
C2101 C2096 1.425 . S
C2101 C2098 1.409 . S
C2101 C2099 1.415 . S
C2102 H2092 0.930 . S
C2102 C2100 1.419 . S
C2102 C2103 1.362 . S
C2103 H2093 0.930 . S
C2103 C2096 1.409 . S
C2103 C2102 1.362 . S
H2104 C2110 0.930 . S
H2105 C2113 0.930 . S
H2106 C2114 0.930 . S
H2107 C2115 0.930 . S
H2108 C2118 0.930 . S
H2109 C2119 0.930 . S
C2110 H2104 0.930 . S
C2110 C2111 1.355 . S
C2110 C2112 1.415 . S
C2111 C2110 1.355 . S
C2111 C2113 1.419 . S
C2112 C2110 1.415 . S
C2112 C2117 1.425 . S
C2112 C2119 1.409 . S
C2113 H2105 0.930 . S
C2113 C2111 1.419 . S
C2113 C2114 1.362 . S
C2114 H2106 0.930 . S
C2114 C2113 1.362 . S
C2114 C2117 1.409 . S
C2115 H2107 0.930 . S
C2115 C2116 1.355 . S
C2115 C2117 1.415 . S
C2116 C2115 1.355 . S
C2116 C2118 1.419 . S
C2117 C2112 1.425 . S
C2117 C2114 1.409 . S
C2117 C2115 1.415 . S
C2118 H2108 0.930 . S
C2118 C2116 1.419 . S
C2118 C2119 1.362 . S
C2119 H2109 0.930 . S
C2119 C2112 1.409 . S
C2119 C2118 1.362 . S
H2120 C2126 0.930 . S
H2121 C2129 0.930 . S
H2122 C2130 0.930 . S
H2123 C2131 0.930 . S
H2124 C2134 0.930 . S
H2125 C2135 0.930 . S
C2126 H2120 0.930 . S
C2126 C2127 1.355 . S
C2126 C2128 1.415 . S
C2127 C2126 1.355 . S
C2127 C2129 1.419 . S
C2128 C2126 1.415 . S
C2128 C2133 1.425 . S
C2128 C2135 1.409 . S
C2129 H2121 0.930 . S
C2129 C2127 1.419 . S
C2129 C2130 1.362 . S
C2130 H2122 0.930 . S
C2130 C2129 1.362 . S
C2130 C2133 1.409 . S
C2131 H2123 0.930 . S
C2131 C2132 1.355 . S
C2131 C2133 1.415 . S
C2132 C2131 1.355 . S
C2132 C2134 1.419 . S
C2133 C2128 1.425 . S
C2133 C2130 1.409 . S
C2133 C2131 1.415 . S
C2134 H2124 0.930 . S
C2134 C2132 1.419 . S
C2134 C2135 1.362 . S
C2135 H2125 0.930 . S
C2135 C2128 1.409 . S
C2135 C2134 1.362 . S
H2136 C2142 0.930 . S
H2137 C2145 0.930 . S
H2138 C2146 0.930 . S
H2139 C2147 0.930 . S
H2140 C2150 0.930 . S
H2141 C2151 0.930 . S
C2142 H2136 0.930 . S
C2142 C2143 1.355 . S
C2142 C2144 1.415 . S
C2143 C2142 1.355 . S
C2143 C2145 1.419 . S
C2144 C2142 1.415 . S
C2144 C2149 1.425 . S
C2144 C2151 1.409 . S
C2145 H2137 0.930 . S
C2145 C2143 1.419 . S
C2145 C2146 1.362 . S
C2146 H2138 0.930 . S
C2146 C2145 1.362 . S
C2146 C2149 1.409 . S
C2147 H2139 0.930 . S
C2147 C2148 1.355 . S
C2147 C2149 1.415 . S
C2148 C2147 1.355 . S
C2148 C2150 1.419 . S
C2149 C2144 1.425 . S
C2149 C2146 1.409 . S
C2149 C2147 1.415 . S
C2150 H2140 0.930 . S
C2150 C2148 1.419 . S
C2150 C2151 1.362 . S
C2151 H2141 0.930 . S
C2151 C2144 1.409 . S
C2151 C2150 1.362 . S
H2152 C2158 0.930 . S
H2153 C2161 0.930 1_554 S
H2154 C2162 0.930 . S
H2155 C2163 0.930 . S
H2156 C2166 0.930 . S
H2157 C2167 0.930 . S
C2158 H2152 0.930 . S
C2158 C2159 1.355 . S
C2158 C2160 1.415 . S
C2159 C2158 1.355 . S
C2159 C2161 1.419 . S
C2160 C2158 1.415 . S
C2160 C2165 1.425 . S
C2160 C2167 1.409 . S
C2161 H2153 0.930 1_556 S
C2161 C2159 1.419 . S
C2161 C2162 1.362 . S
C2162 H2154 0.930 . S
C2162 C2161 1.362 . S
C2162 C2165 1.409 . S
C2163 H2155 0.930 . S
C2163 C2164 1.355 . S
C2163 C2165 1.415 . S
C2164 C2163 1.355 . S
C2164 C2166 1.419 . S
C2165 C2160 1.425 . S
C2165 C2162 1.409 . S
C2165 C2163 1.415 . S
C2166 H2156 0.930 . S
C2166 C2164 1.419 . S
C2166 C2167 1.362 . S
C2167 H2157 0.930 . S
C2167 C2160 1.409 . S
C2167 C2166 1.362 . S
H2168 C2174 0.930 . S
H2169 C2177 0.930 . S
H2170 C2178 0.930 . S
H2171 C2179 0.930 . S
H2172 C2182 0.930 . S
H2173 C2183 0.930 . S
C2174 H2168 0.930 . S
C2174 C2175 1.355 . S
C2174 C2176 1.415 . S
C2175 C2174 1.355 . S
C2175 C2177 1.419 . S
C2176 C2174 1.415 . S
C2176 C2181 1.425 . S
C2176 C2183 1.409 . S
C2177 H2169 0.930 . S
C2177 C2175 1.419 . S
C2177 C2178 1.362 . S
C2178 H2170 0.930 . S
C2178 C2177 1.362 . S
C2178 C2181 1.409 . S
C2179 H2171 0.930 . S
C2179 C2180 1.355 . S
C2179 C2181 1.415 . S
C2180 C2179 1.355 . S
C2180 C2182 1.419 . S
C2181 C2176 1.425 . S
C2181 C2178 1.409 . S
C2181 C2179 1.415 . S
C2182 H2172 0.930 . S
C2182 C2180 1.419 . S
C2182 C2183 1.362 . S
C2183 H2173 0.930 . S
C2183 C2176 1.409 . S
C2183 C2182 1.362 . S
H2184 C2190 0.930 . S
H2185 C2193 0.930 . S
H2186 C2194 0.930 . S
H2187 C2195 0.930 . S
H2188 C2198 0.930 . S
H2189 C2199 0.929 . S
C2190 H2184 0.930 . S
C2190 C2191 1.355 . S
C2190 C2192 1.415 . S
C2191 C2190 1.355 . S
C2191 C2193 1.419 . S
C2192 C2190 1.415 . S
C2192 C2197 1.425 . S
C2192 C2199 1.405 1_455 S
C2193 H2185 0.930 . S
C2193 C2191 1.419 . S
C2193 C2194 1.362 . S
C2194 H2186 0.930 . S
C2194 C2193 1.362 . S
C2194 C2197 1.409 . S
C2195 H2187 0.930 . S
C2195 C2196 1.355 1_455 S
C2195 C2197 1.415 . S
C2196 C2195 1.355 1_655 S
C2196 C2198 1.419 . S
C2197 C2192 1.425 . S
C2197 C2194 1.409 . S
C2197 C2195 1.415 . S
C2198 H2188 0.930 . S
C2198 C2196 1.419 . S
C2198 C2199 1.366 . S
C2199 H2189 0.929 . S
C2199 C2192 1.405 1_655 S
C2199 C2198 1.366 . S
C676 C330 0.991 . S
C671 C0 0.962 . S
C687 C18 1.191 . S
C692 C342 1.187 . S
C708 C377 1.279 . S
C703 C34 1.285 . S
C724 C386 1.109 . S
C719 C49 1.161 . S
C740 C341 1.196 . S
C735 C62 1.156 . S
C751 C73 1.254 . S
C756 C366 1.248 . S
C772 C385 1.234 . S
C767 C83 1.164 . S
C783 C91 1.083 . S
C788 C327 1.056 . S
C799 C109 0.962 . S
C804 C320 1.067 . S
C820 C344 1.139 . S
C815 C125 1.166 . S
C836 C363 1.215 . S
C831 C130 1.210 . S
C852 C388 1.162 . S
C847 C153 1.213 . S
C868 C349 1.167 . S
C863 C114 1.220 . S
C884 C374 1.226 . S
C879 C117 1.205 . S
C895 C138 1.132 . S
C900 C393 1.087 . S
C916 C333 1.090 . S
C911 C148 1.054 . S
C927 C161 1.010 . S
C932 C322 1.053 . S
C943 C169 1.208 . S
C948 C421 1.195 . S
C964 C437 1.093 . S
C959 C190 1.135 . S
C980 C451 1.169 . S
C975 C205 1.165 . S
C991 C213 0.989 . S
C996 C319 1.076 . S
C1007 C229 1.156 . S
C1012 C371 1.143 . S
C1028 C454 1.235 . S
C1023 C182 1.208 . S
C1044 C418 1.188 . S
C1039 C244 1.187 . S
C1060 C474 1.230 . S
C1055 C21 1.234 . S
C1076 C498 1.119 . S
C1071 C5 1.109 . S
C1087 C39 1.052 . S
C1092 C531 1.084 . S
C1103 C36 1.211 . S
C1108 C539 1.190 . S
C1119 C101 1.199 . S
C1124 C509 1.143 . S
C1135 C78 1.068 . S
C1140 C520 1.024 . S
C1156 C540 1.125 . S
C1151 C70 1.170 . S
C1167 C60 1.303 . S
C1172 C473 1.213 . S
C1183 C257 1.141 . S
C1188 C476 1.184 . S
C1204 C506 1.130 . S
C1199 C203 1.165 . S
C1220 C517 1.187 . S
C1215 C208 1.153 . S
C1236 C547 1.090 . S
C1231 C174 1.092 . S
C1252 C495 1.080 . S
C1247 C252 1.104 . S
C1268 C528 1.168 . S
C1263 C195 1.136 . S
C1284 C542 1.162 . S
C1279 C216 1.163 . S
C1295 C179 1.202 . S
C1300 C481 1.165 . S
C1316 C484 1.190 . S
C1311 C270 1.148 . S
C1327 C143 1.156 . S
C1332 C572 1.167 . S
C1348 C584 1.141 . S
C1343 C281 1.168 . S
C1359 C122 1.058 . S
C1364 C605 1.162 . S
C1380 C487 1.246 . S
C1375 C140 1.224 . S
C1396 C525 1.109 . S
C1391 C294 1.190 . S
C1412 C608 1.138 . S
C1407 C273 1.131 . S
C1423 C304 1.040 . S
C1428 C575 1.151 . S
C1439 C26 1.021 . S
C1444 C630 0.992 . S
C1455 C44 1.131 . S
C1460 C408 1.216 . S
C1476 C432 1.190 . S
C1471 C8 1.187 . S
C1487 C23 1.137 . S
C1492 C462 1.164 . S
C1503 C88 1.184 . S
C1508 C407 1.103 . S
C1519 C99 1.239 . S
C1524 C443 1.242 . S
C1540 C459 1.190 . S
C1535 C57 1.177 . S
C1556 C641 1.064 . S
C1551 C65 1.042 . S
C1572 C638 1.043 . S
C1567 C278 1.068 . S
C1588 C410 1.168 . S
C1583 C268 1.166 . S
C1604 C440 1.209 . S
C1599 C299 1.234 . S
C1615 C296 1.186 . S
C1620 C452 1.232 . S
C1636 C415 1.171 . S
C1631 C283 1.208 . S
C1647 C260 1.212 . S
C1652 C429 1.166 . S
C1668 C465 1.123 . S
C1663 C307 1.130 . S
C1679 C291 1.016 . S
C1684 C627 1.035 . S
C1700 C628 1.109 . S
C1695 C200 1.003 . S
C1711 C221 1.226 . S
C1716 C355 1.240 . S
C1732 C364 1.091 . S
C1727 C255 1.120 . S
C1743 C166 1.155 . S
C1748 C399 1.143 . S
C1764 C635 1.043 . S
C1759 C239 1.097 . S
C1780 C430 1.163 . S
C1775 C177 1.141 . S
C1796 C396 1.210 . S
C1791 C247 1.180 . S
C1812 C352 1.165 . S
C1807 C218 1.180 . S
C1823 C47 1.265 . S
C1828 C649 1.263 . S
C1839 C31 1.130 . S
C1844 C561 1.134 . S
C1855 C13 1.084 . S
C1860 C597 1.006 . S
C1876 C616 1.112 . S
C1871 C10 1.123 . S
C1892 C562 1.126 . S
C1887 C75 1.121 . S
C1903 C52 1.074 . S
C1908 C586 1.031 . S
C1924 C613 1.164 . S
C1919 C96 1.129 . S
C1935 C86 1.276 . S
C1940 C650 1.236 . S
C1956 C657 1.208 . S
C1951 C192 1.234 . S
C1967 C164 1.146 . S
C1972 C569 1.176 . S
C1983 C234 1.156 . S
C1988 C583 1.187 . S
C2004 C606 1.100 . S
C1999 C226 1.114 . S
C2020 C564 1.080 . S
C2015 C187 1.125 . S
C2031 C156 1.173 . S
C2036 C594 1.125 . S
C2052 C619 1.197 . S
C2047 C242 1.173 . S
C2068 C652 1.215 . S
C2063 C231 1.172 . S
C2084 C663 1.208 . S
C2079 C127 1.180 . S
C2100 C503 1.186 . S
C2095 C286 1.208 . S
C2111 C112 1.171 . S
C2116 C518 1.174 . S
C2127 C265 1.036 . S
C2132 C550 1.130 . S
C2148 C660 1.186 . S
C2143 C309 1.219 . S
C2164 C591 1.181 . S
C2159 C151 1.150 . S
C2180 C553 1.174 . S
C2175 C104 1.167 . S
C2196 C496 1.079 . S
C2191 C135 1.095 . S
