# Generated by pormake.
# Topology ocu, (6,8)-cn, num edge types: 1
# Building blocks:
#     Node 0, Type 0, BuildingBlock: PAMTUU_clean_sbu_0, # of connection points: 6
#     Node 1, Type 0, BuildingBlock: PAMTUU_clean_sbu_0, # of connection points: 6
#     Node 2, Type 0, BuildingBlock: PAMTUU_clean_sbu_0, # of connection points: 6
#     Node 3, Type 0, BuildingBlock: PAMTUU_clean_sbu_0, # of connection points: 6
#     Node 4, Type 0, BuildingBlock: PAMTUU_clean_sbu_0, # of connection points: 6
#     Node 5, Type 0, BuildingBlock: PAMTUU_clean_sbu_0, # of connection points: 6
#     Node 6, Type 0, BuildingBlock: PAMTUU_clean_sbu_0, # of connection points: 6
#     Node 7, Type 0, BuildingBlock: PAMTUU_clean_sbu_0, # of connection points: 6
#     Node 8, Type 1, BuildingBlock: TAGTUT_clean_sbu_1, # of connection points: 8
#     Node 9, Type 1, BuildingBlock: TAGTUT_clean_sbu_1, # of connection points: 8
#     Node 10, Type 1, BuildingBlock: TAGTUT_clean_sbu_1, # of connection points: 8
#     Node 11, Type 1, BuildingBlock: TAGTUT_clean_sbu_1, # of connection points: 8
#     Node 12, Type 1, BuildingBlock: TAGTUT_clean_sbu_1, # of connection points: 8
#     Node 13, Type 1, BuildingBlock: TAGTUT_clean_sbu_1, # of connection points: 8
#     Edge 14, Type (0, 1), BuildingBlock: AJUNOK_clean_linker_0, # of connection points: 2
#     Edge 15, Type (0, 1), BuildingBlock: AJUNOK_clean_linker_0, # of connection points: 2
#     Edge 16, Type (0, 1), BuildingBlock: AJUNOK_clean_linker_0, # of connection points: 2
#     Edge 17, Type (0, 1), BuildingBlock: AJUNOK_clean_linker_0, # of connection points: 2
#     Edge 18, Type (0, 1), BuildingBlock: AJUNOK_clean_linker_0, # of connection points: 2
#     Edge 19, Type (0, 1), BuildingBlock: AJUNOK_clean_linker_0, # of connection points: 2
#     Edge 20, Type (0, 1), BuildingBlock: AJUNOK_clean_linker_0, # of connection points: 2
#     Edge 21, Type (0, 1), BuildingBlock: AJUNOK_clean_linker_0, # of connection points: 2
#     Edge 22, Type (0, 1), BuildingBlock: AJUNOK_clean_linker_0, # of connection points: 2
#     Edge 23, Type (0, 1), BuildingBlock: AJUNOK_clean_linker_0, # of connection points: 2
#     Edge 24, Type (0, 1), BuildingBlock: AJUNOK_clean_linker_0, # of connection points: 2
#     Edge 25, Type (0, 1), BuildingBlock: AJUNOK_clean_linker_0, # of connection points: 2
#     Edge 26, Type (0, 1), BuildingBlock: AJUNOK_clean_linker_0, # of connection points: 2
#     Edge 27, Type (0, 1), BuildingBlock: AJUNOK_clean_linker_0, # of connection points: 2
#     Edge 28, Type (0, 1), BuildingBlock: AJUNOK_clean_linker_0, # of connection points: 2
#     Edge 29, Type (0, 1), BuildingBlock: AJUNOK_clean_linker_0, # of connection points: 2
#     Edge 30, Type (0, 1), BuildingBlock: AJUNOK_clean_linker_0, # of connection points: 2
#     Edge 31, Type (0, 1), BuildingBlock: AJUNOK_clean_linker_0, # of connection points: 2
#     Edge 32, Type (0, 1), BuildingBlock: AJUNOK_clean_linker_0, # of connection points: 2
#     Edge 33, Type (0, 1), BuildingBlock: AJUNOK_clean_linker_0, # of connection points: 2
#     Edge 34, Type (0, 1), BuildingBlock: AJUNOK_clean_linker_0, # of connection points: 2
#     Edge 35, Type (0, 1), BuildingBlock: AJUNOK_clean_linker_0, # of connection points: 2
#     Edge 36, Type (0, 1), BuildingBlock: AJUNOK_clean_linker_0, # of connection points: 2
#     Edge 37, Type (0, 1), BuildingBlock: AJUNOK_clean_linker_0, # of connection points: 2
#     Edge 38, Type (0, 1), BuildingBlock: AJUNOK_clean_linker_0, # of connection points: 2
#     Edge 39, Type (0, 1), BuildingBlock: AJUNOK_clean_linker_0, # of connection points: 2
#     Edge 40, Type (0, 1), BuildingBlock: AJUNOK_clean_linker_0, # of connection points: 2
#     Edge 41, Type (0, 1), BuildingBlock: AJUNOK_clean_linker_0, # of connection points: 2
#     Edge 42, Type (0, 1), BuildingBlock: AJUNOK_clean_linker_0, # of connection points: 2
#     Edge 43, Type (0, 1), BuildingBlock: AJUNOK_clean_linker_0, # of connection points: 2
#     Edge 44, Type (0, 1), BuildingBlock: AJUNOK_clean_linker_0, # of connection points: 2
#     Edge 45, Type (0, 1), BuildingBlock: AJUNOK_clean_linker_0, # of connection points: 2
#     Edge 46, Type (0, 1), BuildingBlock: AJUNOK_clean_linker_0, # of connection points: 2
#     Edge 47, Type (0, 1), BuildingBlock: AJUNOK_clean_linker_0, # of connection points: 2
#     Edge 48, Type (0, 1), BuildingBlock: AJUNOK_clean_linker_0, # of connection points: 2
#     Edge 49, Type (0, 1), BuildingBlock: AJUNOK_clean_linker_0, # of connection points: 2
#     Edge 50, Type (0, 1), BuildingBlock: AJUNOK_clean_linker_0, # of connection points: 2
#     Edge 51, Type (0, 1), BuildingBlock: AJUNOK_clean_linker_0, # of connection points: 2
#     Edge 52, Type (0, 1), BuildingBlock: AJUNOK_clean_linker_0, # of connection points: 2
#     Edge 53, Type (0, 1), BuildingBlock: AJUNOK_clean_linker_0, # of connection points: 2
#     Edge 54, Type (0, 1), BuildingBlock: AJUNOK_clean_linker_0, # of connection points: 2
#     Edge 55, Type (0, 1), BuildingBlock: AJUNOK_clean_linker_0, # of connection points: 2
#     Edge 56, Type (0, 1), BuildingBlock: AJUNOK_clean_linker_0, # of connection points: 2
#     Edge 57, Type (0, 1), BuildingBlock: AJUNOK_clean_linker_0, # of connection points: 2
#     Edge 58, Type (0, 1), BuildingBlock: AJUNOK_clean_linker_0, # of connection points: 2
#     Edge 59, Type (0, 1), BuildingBlock: AJUNOK_clean_linker_0, # of connection points: 2
#     Edge 60, Type (0, 1), BuildingBlock: AJUNOK_clean_linker_0, # of connection points: 2
#     Edge 61, Type (0, 1), BuildingBlock: AJUNOK_clean_linker_0, # of connection points: 2
# Relax obj value: 0.183
# Max RMSD: 0.278
# Mean RMSD: 0.148
data_MOF--net-ocu--node1-PAMTUU_clean_sbu_0--node2-TAGTUT_clean_sbu_1--edge1-AJUNOK_clean_linker_0
_symmetry_space_group_name_H-M    P1
_symmetry_Int_Tables_number       1
_symmetry_cell_setting            triclinic
loop_
_symmetry_equiv_pos_as_xyz
'x, y, z'
_cell_length_a     30.799392
_cell_length_b     31.444157
_cell_length_c     31.970132
_cell_angle_alpha  83.550697
_cell_angle_beta   98.386519
_cell_angle_gamma 118.33626
loop_
_atom_site_label
_atom_site_type_symbol
_atom_site_fract_x
_atom_site_fract_y
_atom_site_fract_z
_atom_type_partial_charge
Tb0 Tb 0.26629 0.26847 0.26729 0.0
Tb1 Tb 0.35763 0.29669 0.33169 0.0
C2 C 0.25736 0.2108 0.35215 0.0
C3 C 0.15337 0.25639 0.20818 0.0
C4 C 0.11356 0.31918 0.18718 0.0
C5 C 0.10438 0.28423 0.15874 0.0
C6 C 0.12527 0.25314 0.16904 0.0
C7 C 0.15648 0.2871 0.23817 0.0
C8 C 0.13828 0.31969 0.22718 0.0
C9 C 0.1914 0.24132 0.21336 0.0
O10 O 0.25305 0.31425 0.31064 0.0
O11 O 0.32255 0.33664 0.35723 0.0
O12 O 0.38848 0.33995 0.27576 0.0
O13 O 0.31793 0.33895 0.2424 0.0
O14 O 0.38707 0.28471 0.39238 0.0
O15 O 0.43188 0.34448 0.35137 0.0
O16 O 0.3753 0.25712 0.28617 0.0
O17 O 0.30178 0.22674 0.24493 0.0
O18 O 0.23659 0.23151 0.32531 0.0
O19 O 0.30419 0.22308 0.35067 0.0
C20 C 0.27925 0.33687 0.34608 0.0
O21 O 0.23459 0.27725 0.20689 0.0
O22 O 0.19347 0.21631 0.24819 0.0
C23 C 0.36574 0.35432 0.24448 0.0
C24 C 0.46348 0.29356 0.38225 0.0
C25 C 0.5177 0.24357 0.38788 0.0
C26 C 0.54153 0.2923 0.3985 0.0
C27 C 0.51405 0.31734 0.39602 0.0
C28 C 0.442 0.24739 0.36602 0.0
C29 C 0.46927 0.22283 0.3681 0.0
C30 C 0.4318 0.31551 0.38375 0.0
C31 C 0.34728 0.23086 0.25324 0.0
H32 H 0.08476 0.28373 0.12763 0.0
H33 H 0.123 0.22972 0.1455 0.0
H34 H 0.17713 0.28904 0.26857 0.0
H35 H 0.14575 0.34707 0.24875 0.0
H36 H 0.57918 0.30854 0.41382 0.0
H37 H 0.53121 0.35356 0.40736 0.0
H38 H 0.40294 0.22844 0.35498 0.0
H39 H 0.45018 0.1852 0.36002 0.0
Tb40 Tb 0.75604 0.28703 0.30339 0.0
Tb41 Tb 0.85993 0.26884 0.30803 0.0
C42 C 0.84157 0.34941 0.34683 0.0
C43 C 0.67727 0.33201 0.27103 0.0
C44 C 0.73314 0.42038 0.2283 0.0
C45 C 0.73694 0.41736 0.27254 0.0
C46 C 0.70835 0.37393 0.29371 0.0
C47 C 0.67031 0.33601 0.22701 0.0
C48 C 0.70045 0.37833 0.20598 0.0
C49 C 0.67536 0.28659 0.28874 0.0
O50 O 0.80099 0.3317 0.2494 0.0
O51 O 0.87777 0.33233 0.26624 0.0
O52 O 0.81053 0.22289 0.2591 0.0
O53 O 0.74899 0.21694 0.29342 0.0
O54 O 0.92179 0.27778 0.35082 0.0
O55 O 0.9182 0.26714 0.28342 0.0
O56 O 0.81494 0.21729 0.3565 0.0
O57 O 0.75963 0.24706 0.36316 0.0
O58 O 0.80024 0.3509 0.34178 0.0
O59 O 0.837 0.31593 0.32465 0.0
C60 C 0.8485 0.34746 0.2426 0.0
O61 O 0.68995 0.26669 0.26371 0.0
O62 O 0.69673 0.28842 0.32734 0.0
C63 C 0.76333 0.20704 0.26105 0.0
C64 C 0.92531 0.20951 0.33147 0.0
C65 C 0.88909 0.10937 0.34406 0.0
C66 C 0.90031 0.13135 0.3038 0.0
C67 C 0.91977 0.18127 0.2979 0.0
C68 C 0.90734 0.18625 0.36992 0.0
C69 C 0.88778 0.13665 0.37565 0.0
C70 C 0.93434 0.25946 0.32237 0.0
C71 C 0.78018 0.21861 0.37583 0.0
H72 H 0.76051 0.44914 0.29052 0.0
H73 H 0.71414 0.3723 0.32797 0.0
H74 H 0.64702 0.30431 0.20877 0.0
H75 H 0.696 0.37765 0.1719 0.0
H76 H 0.90039 0.11093 0.2787 0.0
H77 H 0.93037 0.19777 0.26695 0.0
H78 H 0.908 0.20617 0.39576 0.0
H79 H 0.87763 0.12113 0.40693 0.0
Tb80 Tb 0.85543 0.81934 0.27465 0.0
Tb81 Tb 0.7661 0.74665 0.3178 0.0
C82 C 0.84315 0.84623 0.35797 0.0
C83 C 0.94989 0.83135 0.22533 0.0
C84 C 0.96012 0.74821 0.22113 0.0
C85 C 0.99544 0.78582 0.24635 0.0
C86 C 0.99018 0.82715 0.24862 0.0
C87 C 0.91585 0.79411 0.19907 0.0
C88 C 0.9199 0.75249 0.19821 0.0
C89 C 0.93259 0.86242 0.23997 0.0
O90 O 0.88361 0.77037 0.31786 0.0
O91 O 0.81332 0.70956 0.34191 0.0
O92 O 0.76917 0.70216 0.27335 0.0
O93 O 0.80794 0.76576 0.22846 0.0
O94 O 0.73148 0.71434 0.37311 0.0
O95 O 0.68879 0.70217 0.31201 0.0
O96 O 0.73797 0.79305 0.27046 0.0
O97 O 0.80874 0.85681 0.25116 0.0
O98 O 0.85345 0.8634 0.31988 0.0
O99 O 0.81444 0.79993 0.36473 0.0
C100 C 0.86205 0.72797 0.34057 0.0
O101 O 0.89039 0.85815 0.22083 0.0
O102 O 0.933 0.85972 0.28091 0.0
C103 C 0.78046 0.71925 0.23532 0.0
C104 C 0.66586 0.73088 0.36372 0.0
C105 C 0.64739 0.79625 0.39915 0.0
C106 C 0.62021 0.74651 0.40958 0.0
C107 C 0.6289 0.71335 0.39111 0.0
C108 C 0.69053 0.78044 0.3525 0.0
C109 C 0.67935 0.81252 0.36797 0.0
C110 C 0.6879 0.70247 0.35259 0.0
C111 C 0.75976 0.83705 0.2505 0.0
H112 H 1.02786 0.78389 0.26278 0.0
H113 H 1.01616 0.85477 0.26996 0.0
H114 H 0.88416 0.79565 0.18064 0.0
H115 H 0.89332 0.7251 0.17688 0.0
H116 H 0.59634 0.73413 0.43481 0.0
H117 H 0.61072 0.67542 0.40121 0.0
H118 H 0.72338 0.7958 0.33673 0.0
H119 H 0.70231 0.85094 0.36132 0.0
Tb120 Tb 0.3398 0.74961 0.30329 0.0
Tb121 Tb 0.27853 0.80936 0.28949 0.0
C122 C 0.2412 0.71096 0.33648 0.0
C123 C 0.38567 0.67542 0.27491 0.0
C124 C 0.36912 0.62697 0.20178 0.0
C125 C 0.35495 0.60053 0.24009 0.0
C126 C 0.36351 0.62476 0.27665 0.0
C127 C 0.39894 0.7016 0.23626 0.0
C128 C 0.39081 0.67753 0.20005 0.0
C129 C 0.38344 0.69962 0.31005 0.0
O130 O 0.28094 0.71515 0.25185 0.0
O131 O 0.26884 0.78055 0.22776 0.0
O132 O 0.35512 0.85727 0.28217 0.0
O133 O 0.36937 0.80341 0.25317 0.0
O134 O 0.21169 0.81174 0.28948 0.0
O135 O 0.27719 0.87501 0.27064 0.0
O136 O 0.31295 0.82149 0.35574 0.0
O137 O 0.37633 0.80415 0.34983 0.0
O138 O 0.28768 0.72408 0.34885 0.0
O139 O 0.22789 0.73579 0.30714 0.0
C140 C 0.26258 0.73695 0.22255 0.0
O141 O 0.40704 0.74687 0.30746 0.0
O142 O 0.3386 0.68303 0.32013 0.0
C143 C 0.38032 0.848 0.25861 0.0
C144 C 0.23665 0.8833 0.32256 0.0
C145 C 0.2513 0.93063 0.39617 0.0
C146 C 0.26151 0.95713 0.35725 0.0
C147 C 0.25405 0.93343 0.32047 0.0
C148 C 0.22913 0.85755 0.36202 0.0
C149 C 0.23637 0.881 0.39839 0.0
C150 C 0.23476 0.85883 0.28568 0.0
C151 C 0.35625 0.82326 0.37015 0.0
H152 H 0.33839 0.56141 0.24183 0.0
H153 H 0.35138 0.60403 0.30593 0.0
H154 H 0.41456 0.74065 0.23357 0.0
H155 H 0.40306 0.69864 0.17094 0.0
H156 H 0.27326 0.99562 0.35515 0.0
H157 H 0.26198 0.95408 0.29056 0.0
H158 H 0.21762 0.81909 0.36506 0.0
H159 H 0.2276 0.85967 0.42794 0.0
Tb160 Tb 0.29291 0.81787 0.78532 0.0
Tb161 Tb 0.32643 0.74426 0.82493 0.0
C162 C 0.35322 0.83656 0.8725 0.0
C163 C 0.30766 0.92695 0.72138 0.0
C164 C 0.26626 0.96766 0.66262 0.0
C165 C 0.30274 0.99839 0.6926 0.0
C166 C 0.31941 0.97525 0.72597 0.0
C167 C 0.29586 0.91002 0.6802 0.0
C168 C 0.27971 0.93526 0.64841 0.0
C169 C 0.28953 0.89318 0.75731 0.0
O170 O 0.36363 0.83967 0.76167 0.0
O171 O 0.38303 0.77811 0.78223 0.0
O172 O 0.28793 0.70812 0.76537 0.0
O173 O 0.26593 0.7654 0.73365 0.0
O174 O 0.33345 0.71848 0.88738 0.0
O175 O 0.3498 0.69123 0.83499 0.0
O176 O 0.24891 0.71262 0.83533 0.0
O177 O 0.22719 0.77266 0.81674 0.0
O178 O 0.31086 0.8314 0.8532 0.0
O179 O 0.37266 0.81315 0.85713 0.0
C180 C 0.39107 0.81839 0.76057 0.0
O181 O 0.25309 0.8499 0.74918 0.0
O182 O 0.32382 0.8929 0.7862 0.0
C183 C 0.26772 0.72399 0.7322 0.0
C184 C 0.30814 0.63497 0.89004 0.0
C185 C 0.35178 0.57926 0.9158 0.0
C186 C 0.31987 0.5676 0.87802 0.0
C187 C 0.29817 0.59748 0.86409 0.0
C188 C 0.31574 0.62638 0.93389 0.0
C189 C 0.33753 0.59632 0.94747 0.0
C190 C 0.34032 0.68449 0.87451 0.0
C191 C 0.21738 0.72973 0.8336 0.0
H192 H 0.30539 0.03305 0.69764 0.0
H193 H 0.33315 0.99151 0.75641 0.0
H194 H 0.29137 0.8748 0.67433 0.0
H195 H 0.26478 0.92013 0.61766 0.0
H196 H 0.32306 0.54695 0.85482 0.0
H197 H 0.28585 0.59914 0.83071 0.0
H198 H 0.31836 0.65165 0.95579 0.0
H199 H 0.356 0.59948 0.97939 0.0
Tb200 Tb 0.3475 0.29196 0.76667 0.0
Tb201 Tb 0.26763 0.27253 0.82869 0.0
C202 C 0.366 0.36876 0.83079 0.0
C203 C 0.41615 0.2632 0.70629 0.0
C204 C 0.43738 0.18818 0.69722 0.0
C205 C 0.46457 0.2211 0.72887 0.0
C206 C 0.45444 0.25885 0.73303 0.0
C207 C 0.38682 0.22801 0.67667 0.0
C208 C 0.39714 0.19046 0.67243 0.0
C209 C 0.40208 0.29995 0.71315 0.0
O210 O 0.37248 0.25568 0.82034 0.0
O211 O 0.31283 0.23939 0.86383 0.0
O212 O 0.23208 0.2202 0.78096 0.0
O213 O 0.29941 0.21495 0.76888 0.0
O214 O 0.25344 0.27323 0.89053 0.0
O215 O 0.19337 0.24063 0.84108 0.0
O216 O 0.25077 0.31898 0.77889 0.0
O217 O 0.29688 0.31703 0.72979 0.0
O218 O 0.38479 0.35231 0.80663 0.0
O219 O 0.31863 0.34815 0.83427 0.0
C220 C 0.35333 0.23798 0.85657 0.0
O221 O 0.35503 0.28707 0.70384 0.0
O222 O 0.41951 0.32074 0.74923 0.0
C223 C 0.25152 0.19823 0.76418 0.0
C224 C 0.18784 0.29053 0.88558 0.0
C225 C 0.15392 0.35543 0.89729 0.0
C226 C 0.12785 0.30671 0.91125 0.0
C227 C 0.14491 0.27423 0.90545 0.0
C228 C 0.21309 0.33901 0.87073 0.0
C229 C 0.19655 0.37153 0.877 0.0
C230 C 0.20624 0.25747 0.87878 0.0
C231 C 0.26337 0.3277 0.7399 0.0
H232 H 0.49598 0.21971 0.74805 0.0
H233 H 0.47694 0.2848 0.75683 0.0
H234 H 0.35622 0.22975 0.65639 0.0
H235 H 0.37612 0.16547 0.64758 0.0
H236 H 0.09528 0.29424 0.92778 0.0
H237 H 0.12504 0.23681 0.91669 0.0
H238 H 0.24586 0.35188 0.85467 0.0
H239 H 0.21717 0.40917 0.86654 0.0
Tb240 Tb 0.85045 0.26038 0.82037 0.0
Tb241 Tb 0.77831 0.3025 0.77625 0.0
C242 C 0.75299 0.2324 0.86193 0.0
C243 C 0.91041 0.19569 0.80387 0.0
C244 C 0.90352 0.14647 0.73327 0.0
C245 C 0.89666 0.12251 0.77347 0.0
C246 C 0.89972 0.14693 0.80858 0.0
C247 C 0.9172 0.21935 0.76349 0.0
C248 C 0.91372 0.19499 0.72858 0.0
C249 C 0.90203 0.21817 0.83747 0.0
O250 O 0.79281 0.20593 0.7808 0.0
O251 O 0.76846 0.25099 0.73203 0.0
O252 O 0.82759 0.32142 0.72745 0.0
O253 O 0.89099 0.31557 0.77023 0.0
O254 O 0.70721 0.29774 0.76315 0.0
O255 O 0.77275 0.36357 0.74851 0.0
O256 O 0.83633 0.35657 0.81697 0.0
O257 O 0.86241 0.31159 0.86502 0.0
O258 O 0.79894 0.23901 0.86816 0.0
O259 O 0.73699 0.24907 0.82645 0.0
C260 C 0.77528 0.21309 0.7428 0.0
O261 O 0.92147 0.2653 0.83443 0.0
O262 O 0.85573 0.19796 0.84456 0.0
C263 C 0.87418 0.33052 0.73407 0.0
C264 C 0.72077 0.37033 0.78863 0.0
C265 C 0.72367 0.42599 0.85227 0.0
C266 C 0.7101 0.43589 0.80977 0.0
C267 C 0.70919 0.40839 0.77787 0.0
C268 C 0.73508 0.36123 0.83107 0.0
C269 C 0.73662 0.38886 0.8626 0.0
C270 C 0.72687 0.34471 0.75655 0.0
C271 C 0.85769 0.35044 0.85383 0.0
H272 H 0.8891 0.08503 0.77764 0.0
H273 H 0.89232 0.12747 0.83905 0.0
H274 H 0.92405 0.25651 0.75846 0.0
H275 H 0.92037 0.21458 0.6981 0.0
H276 H 0.69915 0.46407 0.80154 0.0
H277 H 0.69963 0.41678 0.74514 0.0
H278 H 0.7455 0.33283 0.83993 0.0
H279 H 0.74564 0.37971 0.89527 0.0
Tb280 Tb 0.83255 0.82444 0.82986 0.0
Tb281 Tb 0.78659 0.73352 0.76641 0.0
C282 C 0.88723 0.82908 0.7547 0.0
C283 C 0.82642 0.90786 0.8947 0.0
C284 C 0.76383 0.93055 0.93226 0.0
C285 C 0.81545 0.95486 0.94316 0.0
C286 C 0.8466 0.94336 0.92458 0.0
C287 C 0.77515 0.88512 0.88236 0.0
C288 C 0.74401 0.8963 0.90108 0.0
C289 C 0.8577 0.89159 0.87851 0.0
O290 O 0.79563 0.84117 0.77253 0.0
O291 O 0.73689 0.76529 0.75395 0.0
O292 O 0.74854 0.70671 0.8226 0.0
O293 O 0.75618 0.77815 0.8414 0.0
O294 O 0.76408 0.70805 0.705 0.0
O295 O 0.76026 0.65957 0.75953 0.0
O296 O 0.85277 0.7351 0.80109 0.0
O297 O 0.85675 0.77309 0.85993 0.0
O298 O 0.89312 0.84046 0.79406 0.0
O299 O 0.84521 0.79564 0.73702 0.0
C300 C 0.75233 0.81198 0.75347 0.0
O301 O 0.84928 0.84788 0.89168 0.0
O302 O 0.8606 0.89863 0.83783 0.0
C303 C 0.73473 0.7309 0.84353 0.0
C304 C 0.78981 0.65012 0.7002 0.0
C305 C 0.85089 0.62368 0.6646 0.0
C306 C 0.79938 0.60119 0.65274 0.0
C307 C 0.76894 0.61424 0.67065 0.0
C308 C 0.84114 0.67246 0.71216 0.0
C309 C 0.87146 0.65926 0.69461 0.0
C310 C 0.75893 0.66533 0.71843 0.0
C311 C 0.86826 0.74582 0.84062 0.0
H312 H 0.8315 0.98151 0.96711 0.0
H313 H 0.88613 0.96121 0.93428 0.0
H314 H 0.75908 0.85797 0.85891 0.0
H315 H 0.70446 0.87784 0.89154 0.0
H316 H 0.78283 0.57451 0.62883 0.0
H317 H 0.7294 0.59694 0.66099 0.0
H318 H 0.8579 0.70052 0.73474 0.0
H319 H 0.91103 0.67719 0.70419 0.0
C320 C 0.95829 0.09483 0.59247 0.0
C321 C 0.99964 0.09591 0.47151 0.0
C322 C 0.97965 0.93149 0.50369 0.0
Mg323 Mg 0.05532 0.12601 0.55009 0.0
O324 O 1.02968 0.05874 0.57 0.0
Mg325 Mg 0.96273 0.0098 0.54548 0.0
Mg326 Mg 0.06586 0.02679 0.55613 0.0
O327 O 0.10173 0.99353 0.54425 0.0
Mg328 Mg 0.07009 0.92582 0.55625 0.0
Mg329 Mg 0.16245 0.03429 0.58203 0.0
C330 C 0.1469 0.12182 0.60528 0.0
C331 C 0.15421 0.09515 0.49639 0.0
O332 O 0.93785 0.05161 0.58001 0.0
O333 O 1.00108 0.12828 0.58366 0.0
O334 O 0.98575 0.06342 0.49948 0.0
O335 O 1.03871 0.13499 0.48027 0.0
O336 O 0.12857 0.14858 0.58538 0.0
O337 O 0.12683 0.07637 0.60044 0.0
C338 C 0.98746 0.95279 0.62198 0.0
O339 O 1.03168 0.97487 0.6119 0.0
O340 O 0.95224 0.95819 0.60044 0.0
O341 O 0.19427 0.99112 0.55751 0.0
O342 O 0.12995 0.92076 0.53543 0.0
O343 O 0.13442 0.98002 0.63663 0.0
C344 C 0.17607 0.95173 0.53833 0.0
O345 O 0.06691 0.91072 0.62238 0.0
O346 O 1.00107 0.90526 0.51595 0.0
C347 C 0.1008 0.93873 0.64881 0.0
O348 O 0.99921 0.9755 0.51363 0.0
O349 O 0.10785 0.08046 0.50011 0.0
O350 O 0.18158 0.08437 0.52486 0.0
C351 C 0.43026 0.14424 0.13436 0.0
C352 C 0.44788 0.15352 0.99485 0.0
C353 C 0.45576 0.96246 0.02185 0.0
Mg354 Mg 0.52066 0.16252 0.08133 0.0
O355 O 0.50139 0.09682 0.07205 0.0
Mg356 Mg 0.42747 0.05492 0.06356 0.0
Mg357 Mg 0.53856 0.05578 0.06442 0.0
O358 O 0.57759 0.01261 0.06676 0.0
Mg359 Mg 0.55485 0.94389 0.07712 0.0
Mg360 Mg 0.64926 0.0542 0.08944 0.0
C361 C 0.6208 0.14306 0.11745 0.0
C362 C 0.62871 0.11689 1.0008 0.0
O363 O 0.40562 0.1046 0.11283 0.0
O364 O 0.47665 0.16969 0.12936 0.0
O365 O 0.42296 0.10815 1.00543 0.0
O366 O 0.48826 0.18112 0.01749 0.0
O367 O 0.59426 0.16582 0.10986 0.0
O368 O 0.60692 0.10026 0.10583 0.0
C369 C 0.46571 0.99807 0.13703 0.0
O370 O 0.50558 0.01147 0.12093 0.0
O371 O 0.43201 0.00907 0.12074 0.0
O372 O 0.66971 0.01101 0.04985 0.0
O373 O 0.5999 0.94269 0.03262 0.0
O374 O 0.66244 0.99274 0.14496 0.0
C375 C 0.64579 0.97198 0.02962 0.0
O376 O 0.59782 0.92046 0.13451 0.0
O377 O 0.49099 0.95418 0.04118 0.0
C378 C 0.64213 0.94578 0.15306 0.0
O379 O 0.46023 0.00605 0.0243 0.0
O380 O 0.58264 0.10431 1.00437 0.0
O381 O 0.6535 0.10263 0.0291 0.0
C382 C 0.95952 0.66068 0.08418 0.0
C383 C 0.96519 0.65468 0.95269 0.0
C384 C 0.91613 0.47255 0.99037 0.0
Mg385 Mg 1.03391 0.66204 0.0296 0.0
O386 O 0.9957 0.59897 0.0524 0.0
Mg387 Mg 0.92446 0.56526 0.02984 0.0
Mg388 Mg 1.01749 0.55846 0.03243 0.0
O389 O 1.03999 0.51838 1.01148 0.0
Mg390 Mg 1.00126 0.45268 0.02363 0.0
Mg391 Mg 0.11064 0.5513 0.0366 0.0
C392 C 0.12179 0.64617 0.07656 0.0
C393 C 0.09424 0.62002 0.96124 0.0
O394 O 0.92555 0.61824 0.07389 0.0
O395 O 0.99882 0.68485 0.06553 0.0
O396 O 0.93428 0.61917 0.97384 0.0
O397 O 1.01125 0.6756 0.96545 0.0
O398 O 0.10813 0.67665 0.05738 0.0
O399 O 0.09376 0.60027 0.07326 0.0
C400 C 0.93801 0.49029 0.10265 0.0
O401 O 0.98071 0.50293 0.09034 0.0
O402 O 0.91124 0.50923 0.08441 0.0
O403 O 0.11571 0.49862 0.9961 0.0
O404 O 1.03873 0.43637 0.98207 0.0
O405 O 0.09774 0.49832 0.09235 0.0
C406 C 0.08506 0.45999 0.9769 0.0
O407 O 1.02157 0.43707 0.08556 0.0
O408 O 0.92768 0.44578 0.01741 0.0
C409 C 0.06362 0.45904 0.10641 0.0
O410 O 0.94208 0.51861 0.99067 0.0
O411 O 0.05303 0.61096 0.97427 0.0
O412 O 0.12183 0.60268 0.98079 0.0
C413 C 0.43944 0.59994 0.06153 0.0
C414 C 0.51862 0.61993 0.95187 0.0
C415 C 0.47775 0.4396 0.98839 0.0
Mg416 Mg 0.54741 0.63129 0.04509 0.0
O417 O 0.51789 0.56306 0.05529 0.0
Mg418 Mg 0.45816 0.52196 0.01647 0.0
Mg419 Mg 0.5561 0.53319 0.04083 0.0
O420 O 0.59483 0.50514 0.02492 0.0
Mg421 Mg 0.57133 0.43854 0.0394 0.0
Mg422 Mg 0.66106 0.55329 0.0502 0.0
C423 C 0.63959 0.62653 0.09594 0.0
C424 C 0.63208 0.61104 0.97628 0.0
O425 O 0.42338 0.56103 0.04217 0.0
O426 O 0.48511 0.63211 0.0657 0.0
O427 O 0.48565 0.578 0.96338 0.0
O428 O 0.55039 0.649 0.97886 0.0
O429 O 0.61731 0.65231 0.08519 0.0
O430 O 0.62163 0.58346 0.08407 0.0
C431 C 0.46949 0.45757 0.09862 0.0
O432 O 0.51637 0.47606 0.09505 0.0
O433 O 0.44069 0.46883 0.07218 0.0
O434 O 0.68792 0.51395 1.01154 0.0
O435 O 0.62419 0.43812 1.00471 0.0
O436 O 0.65144 0.50366 0.10155 0.0
C437 C 0.6669 0.47172 0.99633 0.0
O438 O 0.59164 0.42838 0.10536 0.0
O439 O 0.49754 0.41332 1.00617 0.0
C440 C 0.62967 0.4642 0.12182 0.0
O441 O 0.49635 0.48429 0.9956 0.0
O442 O 0.58805 0.58788 0.9865 0.0
O443 O 0.66738 0.60482 0.99635 0.0
C444 C 0.97113 0.58558 0.5674 0.0
C445 C 0.9793 0.62003 0.44314 0.0
C446 C 1.00162 0.42134 0.47656 0.0
Mg447 Mg 0.06441 0.61902 0.52145 0.0
O448 O 0.04301 0.55146 0.52686 0.0
Mg449 Mg 0.97158 0.50932 0.50387 0.0
Mg450 Mg 0.08268 0.51079 0.52973 0.0
O451 O 0.12086 0.47048 0.52444 0.0
Mg452 Mg 0.10373 0.40636 0.51143 0.0
Mg453 Mg 0.19391 0.513 0.53483 0.0
C454 C 0.1676 0.60834 0.57621 0.0
C455 C 0.15529 0.56507 0.4568 0.0
O456 O 0.94833 0.54886 0.54431 0.0
O457 O 1.01714 0.61566 0.56619 0.0
O458 O 0.95982 0.57268 0.44879 0.0
O459 O 1.02212 0.64502 0.46453 0.0
O460 O 0.13693 0.62486 0.55904 0.0
O461 O 0.15854 0.56342 0.57033 0.0
C462 C 0.99315 0.44749 0.5929 0.0
O463 O 1.03998 0.46366 0.5901 0.0
O464 O 0.96667 0.45915 0.56402 0.0
O465 O 0.21929 0.46304 0.48749 0.0
O466 O 0.1486 0.40161 0.46367 0.0
O467 O 0.19522 0.45985 0.59445 0.0
C468 C 0.19585 0.42561 0.46297 0.0
O469 O 0.13628 0.3864 0.57391 0.0
O470 O 1.02891 0.39942 0.48379 0.0
C471 C 0.1724 0.41333 0.60066 0.0
O472 O 1.01501 0.46418 0.48797 0.0
O473 O 0.11514 0.5527 0.47216 0.0
O474 O 0.18944 0.55584 0.47555 0.0
C475 C 0.50936 0.09292 0.60592 0.0
C476 C 0.54836 0.09558 0.484 0.0
C477 C 0.49791 0.91122 0.51591 0.0
Mg478 Mg 0.59794 0.09812 0.56891 0.0
O479 O 0.56155 0.03401 0.58472 0.0
Mg480 Mg 0.49444 0.00169 0.55248 0.0
Mg481 Mg 0.59294 0.99947 0.56734 0.0
O482 O 0.62445 0.96484 0.55107 0.0
Mg483 Mg 0.58832 0.89924 0.5672 0.0
Mg484 Mg 0.69284 1.00098 0.58153 0.0
C485 C 0.68698 0.08759 0.61591 0.0
C486 C 0.68193 0.07471 0.50811 0.0
O487 O 0.47968 0.0509 0.59146 0.0
O488 O 0.55479 0.11627 0.59914 0.0
O489 O 0.51098 0.05986 0.49866 0.0
O490 O 0.59115 0.11155 0.50386 0.0
O491 O 0.66841 0.11458 0.59847 0.0
O492 O 0.66307 0.04135 0.61458 0.0
C493 C 0.50559 0.9273 0.62615 0.0
O494 O 0.55062 0.94114 0.61936 0.0
O495 O 0.47956 0.94578 0.60517 0.0
O496 O 0.70891 0.9569 0.54059 0.0
O497 O 0.63524 0.88825 0.53397 0.0
O498 O 0.67822 0.94291 0.63387 0.0
C499 C 0.67986 0.91547 0.5254 0.0
O500 O 0.60345 0.8797 0.63182 0.0
O501 O 0.51574 0.88362 0.5346 0.0
C502 C 0.64725 0.90279 0.64987 0.0
O503 O 0.52188 0.95743 0.51978 0.0
O504 O 0.63627 0.05808 0.51472 0.0
O505 O 0.70947 0.05869 0.52996 0.0
C506 C 0.18605 0.17863 0.39657 0.0
C507 C 0.22884 0.1777 0.38646 0.0
C508 C 0.16086 0.15107 0.43135 0.0
C509 C 0.17769 0.12171 0.45744 0.0
H510 H 0.17265 0.20198 0.37825 0.0
H511 H 0.12909 0.15395 0.43854 0.0
S512 S 0.28316 0.10066 0.44055 0.0
N513 N 0.28324 0.14083 0.40261 0.0
N514 N 0.23683 0.08936 0.46761 0.0
C515 C 0.21897 0.11867 0.44621 0.0
C516 C 0.24431 0.14656 0.4109 0.0
C517 C 0.95383 0.08709 0.35604 0.0
C518 C 0.90281 0.0708 0.35856 0.0
C519 C 0.9866 0.09809 0.39305 0.0
C520 C 0.96757 0.08479 0.4321 0.0
H521 H 0.96965 0.10223 0.32643 0.0
H522 H 1.02625 0.11775 0.39113 0.0
S523 S 0.83492 0.00971 0.45138 0.0
N524 N 0.83406 0.02016 0.39953 0.0
N525 N 0.89407 0.03608 0.46996 0.0
C526 C 0.91597 0.05419 0.43345 0.0
C527 C 0.88352 0.04464 0.39557 0.0
C528 C 0.85903 0.87438 0.43195 0.0
C529 C 0.87661 0.87523 0.39344 0.0
C530 C 0.89239 0.89549 0.46778 0.0
C531 C 0.94385 0.91682 0.46588 0.0
H532 H 0.81953 0.85616 0.43466 0.0
H533 H 0.87801 0.89317 0.49738 0.0
S534 S 1.00862 0.92938 0.37294 0.0
N535 N 0.94909 0.90128 0.35583 0.0
N536 N 1.01088 0.93935 0.42295 0.0
C537 C 0.96164 0.91957 0.42736 0.0
C538 C 0.92817 0.8991 0.3911 0.0
C539 C 0.26232 0.94055 0.4736 0.0
C540 C 0.24455 0.95056 0.43246 0.0
C541 C 0.2414 0.94236 0.50896 0.0
C542 C 0.20228 0.95384 0.50349 0.0
H543 H 0.28981 0.92775 0.47806 0.0
H544 H 0.25393 0.93238 0.5401 0.0
S545 S 0.14771 0.99005 0.40363 0.0
N546 N 0.18962 0.97769 0.38918 0.0
N547 N 0.15061 0.98133 0.45563 0.0
C548 C 0.18722 0.96796 0.46313 0.0
C549 C 0.20858 0.96653 0.42746 0.0
C550 C 0.20214 0.96938 0.70395 0.0
C551 C 0.21399 0.94574 0.67517 0.0
C552 C 0.15322 0.95127 0.71366 0.0
C553 C 0.11538 0.91652 0.68756 0.0
H554 H 0.22937 0.003 0.71761 0.0
H555 H 0.14477 0.97343 0.73128 0.0
S556 S 0.12488 0.82165 0.6385 0.0
N557 N 0.18167 0.86719 0.64255 0.0
N558 N 0.09141 0.83827 0.66193 0.0
C559 C 0.12691 0.88221 0.67526 0.0
C560 C 0.17582 0.89858 0.66422 0.0
C561 C 0.24582 0.15873 0.69852 0.0
C562 C 0.22196 0.16755 0.72849 0.0
C563 C 0.22155 0.14331 0.65822 0.0
C564 C 0.17332 0.1372 0.64693 0.0
H565 H 0.28424 0.16634 0.70527 0.0
H566 H 0.24107 0.13791 0.63543 0.0
S567 S 0.09093 0.14459 0.71633 0.0
N568 N 0.1441 0.16 0.74613 0.0
N569 N 0.09965 0.13305 0.67006 0.0
C570 C 0.14771 0.14167 0.6776 0.0
C571 C 0.17171 0.15612 0.71863 0.0
C572 C 0.94358 0.10693 0.70326 0.0
C573 C 0.90851 0.12417 0.69753 0.0
C574 C 0.95837 0.09608 0.66856 0.0
C575 C 0.93843 0.10217 0.62746 0.0
H576 H 0.96195 0.10467 0.73441 0.0
H577 H 0.98663 0.08427 0.6737 0.0
S578 S 0.84051 0.13781 0.59551 0.0
N579 N 0.85019 0.14119 0.6476 0.0
N580 N 0.87875 0.11995 0.58226 0.0
C581 C 0.90111 0.11569 0.62118 0.0
C582 C 0.88594 0.12702 0.6564 0.0
C583 C 0.94997 0.91005 0.73055 0.0
C584 C 0.9255 0.85964 0.72693 0.0
C585 C 0.97483 0.94083 0.69731 0.0
C586 C 0.97624 0.92175 0.66023 0.0
H587 H 0.94608 0.92586 0.75729 0.0
H588 H 0.98957 0.97954 0.69923 0.0
S589 S 0.92571 0.7928 0.63867 0.0
N590 N 0.9103 0.7922 0.68618 0.0
N591 N 0.95665 0.85045 0.62341 0.0
C592 C 0.95607 0.87173 0.6579 0.0
C593 C 0.93083 0.84044 0.69157 0.0
C594 C 0.33722 0.17154 0.19302 0.0
C595 C 0.36765 0.20655 0.22414 0.0
C596 C 0.35591 0.15076 0.1657 0.0
C597 C 0.4073 0.16346 0.16595 0.0
H598 H 0.29771 0.15971 0.1894 0.0
H599 H 0.32932 0.1249 0.14332 0.0
S600 S 0.50503 0.25332 0.24041 0.0
N601 N 0.45374 0.25158 0.25214 0.0
N602 N 0.48782 0.21524 0.20241 0.0
C603 C 0.43791 0.19846 0.19694 0.0
C604 C 0.41881 0.21887 0.22506 0.0
C605 C 0.84316 0.395 0.17377 0.0
C606 C 0.87207 0.38437 0.20728 0.0
C607 C 0.8651 0.42771 0.1398 0.0
C608 C 0.91699 0.45259 0.13785 0.0
H609 H 0.80316 0.37738 0.1733 0.0
H610 H 0.84097 0.43329 0.11428 0.0
S611 S 1.01031 0.43907 0.21765 0.0
N612 N 0.9567 0.4018 0.23568 0.0
N613 N 0.9967 0.46399 0.17288 0.0
C614 C 0.94642 0.44215 0.17083 0.0
C615 C 0.92431 0.40825 0.20522 0.0
C616 C 0.75035 0.90787 0.19962 0.0
C617 C 0.72898 0.86468 0.22652 0.0
C618 C 0.72362 0.93358 0.17797 0.0
C619 C 0.67217 0.91912 0.18041 0.0
H620 H 0.78897 0.92235 0.19468 0.0
H621 H 0.74391 0.96518 0.15796 0.0
S622 S 0.59631 0.81057 0.24783 0.0
N623 N 0.65076 0.81105 0.2546 0.0
N624 N 0.60223 0.85691 0.21477 0.0
C625 C 0.65034 0.87609 0.20726 0.0
C626 C 0.67771 0.85016 0.22968 0.0
C627 C 0.23096 0.73747 0.14547 0.0
C628 C 0.23163 0.71109 0.18391 0.0
C629 C 0.19825 0.71512 0.10983 0.0
C630 C 0.16403 0.66534 0.11096 0.0
H631 H 0.25515 0.77612 0.14316 0.0
H632 H 0.19825 0.73769 0.08161 0.0
S633 S 0.15068 0.57963 0.20417 0.0
N634 N 0.19578 0.63195 0.22078 0.0
N635 N 0.13391 0.59015 0.15423 0.0
C636 C 0.16562 0.63806 0.14881 0.0
C637 C 0.19933 0.66086 0.18512 0.0
C638 C 0.36202 0.8998 0.92321 0.0
C639 C 0.37905 0.86894 0.91023 0.0
C640 C 0.38625 0.93011 0.95845 0.0
C641 C 0.42857 0.93081 0.98325 0.0
H642 H 0.3296 0.90081 0.9058 0.0
H643 H 0.37133 0.95279 0.96647 0.0
S644 S 0.48945 0.85757 0.96181 0.0
N645 N 0.44203 0.84248 0.92497 0.0
N646 N 0.48668 0.897 0.98973 0.0
C647 C 0.44584 0.89989 0.96999 0.0
C648 C 0.42153 0.86983 0.93417 0.0
C649 C 0.17183 0.4256 0.93677 0.0
C650 C 0.13945 0.39008 0.90852 0.0
C651 C 0.15461 0.45078 0.95692 0.0
C652 C 0.10462 0.44071 0.94932 0.0
H653 H 0.20948 0.43132 0.94569 0.0
H654 H 0.17973 0.47567 0.98066 0.0
S655 S 1.00992 0.36053 0.8691 0.0
N656 N 0.05891 0.35251 0.86758 0.0
N657 N 1.02611 0.40047 0.90524 0.0
C658 C 0.07364 0.40922 0.9175 0.0
C659 C 0.09123 0.3836 0.89709 0.0
C660 C 0.72851 0.16974 0.92296 0.0
C661 C 0.71826 0.20289 0.89544 0.0
C662 C 0.69847 0.14206 0.95523 0.0
C663 C 0.65611 0.14569 0.96278 0.0
H664 H 0.76029 0.1648 0.91956 0.0
H665 H 0.70918 0.11743 0.97481 0.0
S666 S 0.6133 0.22857 0.90102 0.0
N667 N 0.66238 0.23826 0.87845 0.0
N668 N 0.60633 0.18664 0.93938 0.0
C669 C 0.64493 0.17844 0.93532 0.0
C670 C 0.67574 0.20678 0.90188 0.0
C671 C 0.94241 0.75009 0.88635 0.0
C672 C 0.89544 0.72244 0.86506 0.0
C673 C 0.96718 0.7275 0.91197 0.0
C674 C 0.94492 0.67676 0.91771 0.0
H675 H 0.95957 0.78925 0.88378 0.0
H676 H 1.00247 0.74997 0.9294 0.0
S677 S 0.82167 0.58913 0.86839 0.0
N678 N 0.82772 0.6427 0.85022 0.0
N679 N 0.8734 0.59982 0.89917 0.0
C680 C 0.89826 0.64894 0.89556 0.0
C681 C 0.87363 0.67196 0.86904 0.0
C682 C 0.0521 0.34805 0.16703 0.0
C683 C 0.10169 0.3582 0.17415 0.0
C684 C 1.03981 0.3841 0.15068 0.0
C685 C 0.07697 0.43082 0.14013 0.0
H686 H 1.02279 0.31166 0.17243 0.0
H687 H 1.00081 0.37401 0.14274 0.0
S688 S 0.21318 0.47615 0.16009 0.0
N689 N 0.18863 0.41818 0.1752 0.0
N690 N 0.1657 0.48698 0.1445 0.0
C691 C 0.12706 0.44249 0.15164 0.0
C692 C 0.13947 0.40558 0.16819 0.0
C693 C 0.15651 0.72255 0.88189 0.0
C694 C 0.17264 0.70042 0.85604 0.0
C695 C 0.12545 0.69538 0.9137 0.0
C696 C 0.10951 0.64543 0.9201 0.0
H697 H 0.17168 0.76155 0.8803 0.0
H698 H 0.11779 0.71416 0.93572 0.0
S699 S 0.13499 0.5694 0.85673 0.0
N700 N 0.16498 0.62473 0.8357 0.0
N701 N 0.10723 0.57421 0.89505 0.0
C702 C 0.1214 0.62245 0.89168 0.0
C703 C 0.15283 0.64982 0.85971 0.0
C704 C 0.35634 0.19363 0.92878 0.0
C705 C 0.3781 0.21581 0.89087 0.0
C706 C 0.37889 0.17359 0.96143 0.0
C707 C 0.42514 0.17527 0.95875 0.0
H708 H 0.32126 0.19155 0.93348 0.0
H709 H 0.36006 0.15708 0.98952 0.0
S710 S 0.49776 0.2272 0.86635 0.0
N711 N 0.44887 0.23624 0.8528 0.0
N712 N 0.49112 0.20012 0.91411 0.0
C713 C 0.4474 0.1972 0.92123 0.0
C714 C 0.42405 0.21691 0.88755 0.0
C715 C 0.84023 0.37334 0.91765 0.0
C716 C 0.87062 0.38565 0.88512 0.0
C717 C 0.85235 0.40521 0.94946 0.0
C718 C 0.89545 0.45005 0.94974 0.0
H719 H 0.80761 0.33831 0.91909 0.0
H720 H 0.82976 0.3934 0.97561 0.0
S721 S 0.98641 0.49855 0.87037 0.0
N722 N 0.94389 0.44535 0.85326 0.0
N723 N 0.96814 0.50541 0.91411 0.0
C724 C 0.92501 0.46355 0.91612 0.0
C725 C 0.91227 0.43108 0.88349 0.0
C726 C 0.74116 0.98782 0.95928 0.0
C727 C 0.73081 0.93994 0.95455 0.0
C728 C 0.71268 0.99783 0.98295 0.0
C729 C 0.67274 0.96024 1.00243 0.0
H730 H 0.77181 0.01776 0.94492 0.0
H731 H 0.72222 0.03528 0.98624 0.0
S732 S 0.63063 0.82867 0.99986 0.0
N733 N 0.67824 0.85454 0.97146 0.0
N734 N 0.62391 0.87338 0.0153 0.0
C735 C 0.66117 0.91214 0.99708 0.0
C736 C 0.69045 0.90196 0.97329 0.0
C737 C 1.0104 0.73885 0.17734 0.0
C738 C 0.97344 0.71519 0.20464 0.0
C739 C 1.00353 0.72179 0.13769 0.0
C740 C 0.9621 0.67784 0.1256 0.0
H741 H 1.04016 0.77503 0.18319 0.0
H742 H 1.03067 0.74442 0.11611 0.0
S743 S 0.86795 0.59182 0.19526 0.0
N744 N 0.90228 0.64001 0.22344 0.0
N745 N 0.89211 0.60403 0.14982 0.0
C746 C 0.93032 0.6491 0.15629 0.0
C747 C 0.93634 0.66796 0.19629 0.0
C748 C 0.42162 0.87786 0.19339 0.0
C749 C 0.41387 0.88768 0.23261 0.0
C750 C 0.44202 0.91516 0.16311 0.0
C751 C 0.45486 0.96263 0.1716 0.0
H752 H 0.40848 0.84104 0.18479 0.0
H753 H 0.44464 0.90647 0.13199 0.0
S754 S 0.45159 0.00841 0.27185 0.0
N755 N 0.4282 0.94924 0.28073 0.0
N756 N 0.46557 0.01935 0.22249 0.0
C757 C 0.45154 0.9737 0.2116 0.0
C758 C 0.43136 0.93598 0.24268 0.0
C759 C 0.74203 0.18624 0.18566 0.0
C760 C 0.72664 0.18366 0.22564 0.0
C761 C 0.7076 0.17296 0.14972 0.0
C762 C 0.65769 0.1581 0.15332 0.0
H763 H 0.78092 0.20027 0.18182 0.0
H764 H 0.72003 0.17547 0.1191 0.0
S765 S 0.59718 0.13724 0.25088 0.0
N766 N 0.65678 0.15819 0.267 0.0
N767 N 0.59285 0.13562 0.199 0.0
C768 C 0.64138 0.15272 0.19308 0.0
C769 C 0.6758 0.16486 0.22954 0.0
C770 C 0.66305 0.65587 0.86718 0.0
C771 C 0.69819 0.70433 0.8738 0.0
C772 C 0.6358 0.62635 0.8998 0.0
C773 C 0.64354 0.64463 0.93971 0.0
H774 H 0.65891 0.63987 0.8376 0.0
H775 H 0.6122 0.58814 0.895 0.0
S776 S 0.72706 0.76956 0.97202 0.0
N777 N 0.73548 0.77021 0.92208 0.0
N778 N 0.68468 0.71395 0.98356 0.0
C779 C 0.67528 0.69369 0.94572 0.0
C780 C 0.7026 0.72392 0.91255 0.0
C781 C 0.42396 0.58128 0.88611 0.0
C782 C 0.40544 0.60352 0.90958 0.0
C783 C 0.47516 0.60227 0.8829 0.0
C784 C 0.50724 0.63931 0.91021 0.0
H785 H 0.39974 0.54666 0.87252 0.0
H786 H 0.48902 0.58138 0.8697 0.0
S787 S 0.47997 0.72944 0.94725 0.0
N788 N 0.42559 0.68136 0.93832 0.0
N789 N 0.52075 0.7162 0.93171 0.0
C790 C 0.4901 0.6714 0.91713 0.0
C791 C 0.43871 0.65185 0.92143 0.0
C792 C 0.4431 0.39565 0.87866 0.0
C793 C 0.39927 0.39906 0.86526 0.0
C794 C 0.46687 0.40767 0.91916 0.0
C795 C 0.44864 0.42482 0.94745 0.0
H796 H 0.45736 0.3801 0.85912 0.0
H797 H 0.49988 0.4033 0.92842 0.0
S798 S 0.34149 0.45011 0.92487 0.0
N799 N 0.3424 0.42705 0.88123 0.0
N800 N 0.38897 0.45167 0.95761 0.0
C801 C 0.40786 0.43304 0.93329 0.0
C802 C 0.38281 0.41981 0.89202 0.0
C803 C 0.66491 0.43663 0.8881 0.0
C804 C 0.71394 0.44633 0.8866 0.0
C805 C 0.65071 0.4455 0.92403 0.0
C806 C 0.68522 0.46493 0.95948 0.0
H807 H 0.63667 0.41961 0.86221 0.0
H808 H 0.6121 0.4365 0.92419 0.0
S809 S 0.81893 0.50088 0.96996 0.0
N810 N 0.79785 0.47845 0.92253 0.0
N811 N 0.77085 0.4974 0.99009 0.0
C812 C 0.73492 0.47743 0.95772 0.0
C813 C 0.74936 0.46731 0.92126 0.0
C814 C 0.71774 0.48685 0.21754 0.0
C815 C 0.74775 0.46825 0.20628 0.0
C816 C 0.67305 0.47636 0.19241 0.0
C817 C 0.66488 0.45808 0.15246 0.0
H818 H 0.72181 0.49759 0.24949 0.0
H819 H 0.64572 0.48353 0.20345 0.0
S820 S 0.76053 0.4549 0.09642 0.0
N821 N 0.78615 0.46642 0.14581 0.0
N822 N 0.7046 0.45003 0.09509 0.0
C823 C 0.70519 0.4584 0.13606 0.0
C824 C 0.74938 0.46841 0.16283 0.0
C825 C 0.75865 0.71014 0.15744 0.0
C826 C 0.75208 0.68885 0.19881 0.0
C827 C 0.72354 0.68819 0.12318 0.0
C828 C 0.68162 0.6436 0.12896 0.0
H829 H 0.78911 0.74575 0.15183 0.0
H830 H 0.72789 0.70731 0.09244 0.0
S831 S 0.64941 0.56969 0.22918 0.0
N832 N 0.7021 0.61797 0.24244 0.0
N833 N 0.63705 0.57648 0.17759 0.0
C834 C 0.67681 0.6196 0.16908 0.0
C835 C 0.712 0.64222 0.20418 0.0
C836 C 0.35628 0.61711 0.12454 0.0
C837 C 0.37159 0.60419 0.16555 0.0
C838 C 0.37617 0.6134 0.08937 0.0
C839 C 0.41106 0.59629 0.095 0.0
H840 H 0.33256 0.63431 0.12025 0.0
H841 H 0.36684 0.62672 0.05845 0.0
S842 S 0.45713 0.55089 0.19436 0.0
N843 N 0.41917 0.56862 0.20878 0.0
N844 N 0.4554 0.56036 0.14244 0.0
C845 C 0.42249 0.57846 0.13497 0.0
C846 C 0.40264 0.58242 0.17052 0.0
C847 C 0.44356 0.4144 0.21238 0.0
C848 C 0.39282 0.38039 0.20737 0.0
C849 C 0.47003 0.43719 0.17701 0.0
C850 C 0.44674 0.42591 0.13559 0.0
H851 H 0.46258 0.42425 0.24379 0.0
H852 H 0.50809 0.46526 0.18206 0.0
S853 S 0.31749 0.33279 0.10583 0.0
N854 N 0.32248 0.33248 0.15793 0.0
N855 N 0.372 0.37425 0.09196 0.0
C856 C 0.39704 0.38971 0.13049 0.0
C857 C 0.3701 0.36729 0.1662 0.0
C858 C 0.92576 0.65078 0.6271 0.0
C859 C 0.88361 0.61263 0.64353 0.0
C860 C 0.95503 0.64161 0.6037 0.0
C861 C 0.94276 0.59404 0.59558 0.0
H862 H 0.93523 0.68808 0.63107 0.0
H863 H 0.9863 0.67205 0.5905 0.0
S864 S 0.84096 0.48143 0.6373 0.0
N865 N 0.83463 0.52555 0.65457 0.0
N866 N 0.88915 0.50818 0.60957 0.0
C867 C 0.90219 0.55547 0.61354 0.0
C868 C 0.87268 0.56482 0.63776 0.0
C869 C 0.47526 0.86389 0.73391 0.0
C870 C 0.42348 0.83582 0.72633 0.0
C871 C 0.50375 0.89032 0.70034 0.0
C872 C 0.4808 0.88937 0.65873 0.0
H873 H 0.49318 0.86808 0.76604 0.0
H874 H 0.54292 0.9145 0.70747 0.0
S875 S 0.34697 0.81753 0.62268 0.0
N876 N 0.3513 0.80598 0.67431 0.0
N877 N 0.4042 0.85416 0.61159 0.0
C878 C 0.42965 0.85833 0.65077 0.0
C879 C 0.40107 0.83208 0.68457 0.0
C880 C 0.22508 0.38415 0.7122 0.0
C881 C 0.2382 0.34832 0.70497 0.0
C882 C 0.20392 0.405 0.67885 0.0
C883 C 0.19283 0.3897 0.63686 0.0
H884 H 0.23247 0.39722 0.74371 0.0
H885 H 0.19593 0.43323 0.68611 0.0
S886 S 0.21942 0.29699 0.60049 0.0
N887 N 0.23867 0.29929 0.65158 0.0
N888 N 0.19759 0.3364 0.59041 0.0
C889 C 0.20509 0.35343 0.62946 0.0
C890 C 0.22794 0.33336 0.66294 0.0
C891 C 0.74164 0.12847 0.72155 0.0
C892 C 0.76506 0.17848 0.71132 0.0
C893 C 0.72408 0.09535 0.68958 0.0
C894 C 0.72939 0.11204 0.64705 0.0
H895 H 0.73302 0.11509 0.7536 0.0
H896 H 0.70032 0.05754 0.69754 0.0
S897 S 0.80246 0.2387 0.60701 0.0
N898 N 0.80424 0.24231 0.65838 0.0
N899 N 0.76978 0.18058 0.59801 0.0
C900 C 0.76026 0.16145 0.63801 0.0
C901 C 0.77783 0.1948 0.67025 0.0
C902 C 0.92726 0.37373 0.37486 0.0
C903 C 0.8818 0.37151 0.37957 0.0
C904 C 0.965 0.38761 0.40781 0.0
C905 C 0.9586 0.40087 0.44595 0.0
H906 H 0.93368 0.36457 0.34549 0.0
H907 H 0.99996 0.38944 0.40289 0.0
S908 S 0.84692 0.4027 0.47337 0.0
N909 N 0.83199 0.3841 0.42454 0.0
N910 N 0.90451 0.41202 0.48683 0.0
C911 C 0.91382 0.40012 0.45082 0.0
C912 C 0.87491 0.38519 0.4173 0.0
C913 C 0.69311 0.83365 0.46505 0.0
C914 C 0.65899 0.83134 0.42987 0.0
C915 C 0.70894 0.8691 0.4941 0.0
C916 C 0.69085 0.90263 0.48824 0.0
H917 H 0.7066 0.80711 0.47057 0.0
H918 H 0.73101 0.86715 0.52322 0.0
S919 S 0.60827 0.91671 0.39715 0.0
N920 N 0.61372 0.86915 0.38706 0.0
N921 N 0.64294 0.93623 0.44237 0.0
C922 C 0.6614 0.90414 0.4506 0.0
C923 C 0.64498 0.8678 0.4213 0.0
C924 C 0.17366 0.66952 0.38136 0.0
C925 C 0.20494 0.66692 0.35528 0.0
C926 C 0.15305 0.63306 0.41238 0.0
C927 C 0.16427 0.59426 0.41775 0.0
H928 H 0.16934 0.70186 0.3807 0.0
H929 H 0.13251 0.63768 0.43473 0.0
S930 S 0.23354 0.56606 0.34954 0.0
N931 N 0.23767 0.61871 0.33033 0.0
N932 N 0.19988 0.55035 0.38972 0.0
C933 C 0.19035 0.58855 0.38839 0.0
C934 C 0.21057 0.62514 0.35661 0.0
C935 C 0.53427 0.17342 0.39109 0.0
C936 C 0.53299 0.20994 0.41175 0.0
C937 C 0.53703 0.13431 0.41439 0.0
C938 C 0.53943 0.13182 0.45845 0.0
H939 H 0.53102 0.17421 0.35684 0.0
H940 H 0.53625 0.10564 0.3981 0.0
S941 S 0.52761 0.21281 0.52653 0.0
N942 N 0.52669 0.23698 0.47812 0.0
N943 N 0.53484 0.1649 0.52181 0.0
C944 C 0.53649 0.16704 0.4793 0.0
C945 C 0.53288 0.20609 0.4559 0.0
C946 C 0.74346 0.88396 0.72385 0.0
C947 C 0.72175 0.83344 0.73047 0.0
C948 C 0.71705 0.90617 0.70109 0.0
C949 C 0.66783 0.8789 0.68329 0.0
H950 H 0.78185 0.90686 0.73523 0.0
H951 H 0.73656 0.9451 0.6956 0.0
S952 S 0.59208 0.74554 0.69509 0.0
N953 N 0.64671 0.7567 0.72069 0.0
N954 N 0.59697 0.79867 0.67664 0.0
C955 C 0.64462 0.82843 0.69142 0.0
C956 C 0.67169 0.80563 0.71505 0.0
C957 C 0.78186 0.1767 0.44721 0.0
C958 C 0.75554 0.18106 0.40883 0.0
C959 C 0.75709 0.14334 0.47954 0.0
C960 C 0.70518 0.11282 0.4746 0.0
H961 H 0.82155 0.19967 0.45254 0.0
H962 H 0.77899 0.1413 0.5087 0.0
S963 S 0.62123 0.10673 0.37735 0.0
N964 N 0.67583 0.15064 0.36627 0.0
N965 N 0.62953 0.08717 0.42653 0.0
C966 C 0.67877 0.11657 0.43595 0.0
C967 C 0.70396 0.15077 0.40321 0.0
C968 C 0.86997 0.65169 0.38359 0.0
C969 C 0.89284 0.70047 0.36549 0.0
C970 C 0.89684 0.62644 0.40632 0.0
C971 C 0.94999 0.64712 0.41454 0.0
H972 H 0.82985 0.632 0.38022 0.0
H973 H 0.87489 0.58988 0.41861 0.0
S974 S 1.03107 0.77432 0.37625 0.0
N975 N 0.97499 0.76751 0.35911 0.0
N976 N 1.02342 0.72273 0.40137 0.0
C977 C 0.97329 0.69612 0.39709 0.0
C978 C 0.94593 0.72147 0.37318 0.0
C979 C 0.40827 0.82057 0.43597 0.0
C980 C 0.38379 0.84418 0.41128 0.0
C981 C 0.44223 0.8417 0.47086 0.0
C982 C 0.45467 0.88835 0.48284 0.0
H983 H 0.40242 0.78571 0.42737 0.0
H984 H 0.4607 0.82166 0.48718 0.0
S985 S 0.39674 0.96381 0.43128 0.0
N986 N 0.37051 0.91505 0.40313 0.0
N987 N 0.43571 0.95583 0.46876 0.0
C988 C 0.4285 0.91165 0.45974 0.0
C989 C 0.39276 0.88934 0.42409 0.0
C990 C 0.28609 0.38604 0.41355 0.0
C991 C 0.25951 0.36222 0.37498 0.0
C992 C 0.2678 0.40761 0.44056 0.0
C993 C 0.22056 0.40733 0.43217 0.0
H994 H 0.32196 0.38776 0.42366 0.0
H995 H 0.29085 0.42362 0.46921 0.0
S996 S 0.13416 0.35082 0.33626 0.0
N997 N 0.18163 0.34151 0.33155 0.0
N998 N 0.14845 0.37993 0.38009 0.0
C999 C 0.19393 0.38373 0.3938 0.0
C1000 C 0.21265 0.36224 0.36634 0.0
C1001 C 0.43026 0.11234 0.67369 0.0
C1002 C 0.45899 0.16164 0.68142 0.0
C1003 C 0.44685 0.0897 0.64948 0.0
C1004 C 0.49238 0.11614 0.63227 0.0
H1005 H 0.39413 0.09187 0.6851 0.0
H1006 H 0.42358 0.05171 0.64366 0.0
S1007 S 0.58107 0.24691 0.64447 0.0
N1008 N 0.53441 0.23631 0.67065 0.0
N1009 N 0.56674 0.19436 0.62627 0.0
C1010 C 0.52213 0.16537 0.64132 0.0
C1011 C 0.50513 0.18803 0.66569 0.0
C1012 C 0.8857 0.36056 0.65749 0.0
C1013 C 0.90745 0.35863 0.69922 0.0
C1014 C 0.91409 0.38748 0.62404 0.0
C1015 C 0.96637 0.41524 0.62991 0.0
H1016 H 0.84581 0.34134 0.65031 0.0
H1017 H 0.89427 0.38701 0.59304 0.0
S1018 S 0.04237 0.42729 0.73376 0.0
N1019 N 0.98529 0.38944 0.74484 0.0
N1020 N 1.03844 0.44089 0.68232 0.0
C1021 C 0.98896 0.41423 0.67159 0.0
C1022 C 0.95975 0.38602 0.70593 0.0
C1023 C 0.22599 0.71135 0.65565 0.0
C1024 C 0.24665 0.69453 0.69179 0.0
C1025 C 0.20492 0.68489 0.61836 0.0
C1026 C 0.20166 0.63871 0.61405 0.0
H1027 H 0.22539 0.74546 0.6561 0.0
H1028 H 0.18924 0.70078 0.5928 0.0
S1029 S 0.25547 0.57953 0.69727 0.0
N1030 N 0.26689 0.6297 0.71882 0.0
N1031 N 0.2258 0.57976 0.64986 0.0
C1032 C 0.22417 0.6222 0.64929 0.0
C1033 C 0.24663 0.6498 0.68748 0.0
loop_
_geom_bond_atom_site_label_1
_geom_bond_atom_site_label_2
_geom_bond_distance
_geom_bond_site_symmetry_2
_ccdc_geom_bond_type
Tb0 C9 2.764 . S
Tb0 O10 2.325 . S
Tb0 O13 2.303 . S
Tb0 O17 2.322 . S
Tb0 O18 2.349 . S
Tb0 O21 2.415 . S
Tb0 O22 2.399 . S
Tb1 O11 2.322 . S
Tb1 O12 2.349 . S
Tb1 O14 2.415 . S
Tb1 O15 2.399 . S
Tb1 O16 2.325 . S
Tb1 O19 2.303 . S
Tb1 C30 2.764 . S
C2 O18 1.261 . S
C2 O19 1.257 . S
C3 C6 1.358 . S
C3 C7 1.332 . S
C3 C9 1.504 . S
C4 C5 1.373 . S
C4 C8 1.308 . S
C5 C4 1.373 . S
C5 C6 1.429 . S
C5 H32 0.932 . S
C6 C3 1.358 . S
C6 C5 1.429 . S
C6 H33 0.930 . S
C7 C3 1.332 . S
C7 C8 1.394 . S
C7 H34 0.932 . S
C8 C4 1.308 . S
C8 C7 1.394 . S
C8 H35 0.929 . S
C9 Tb0 2.764 . S
C9 C3 1.504 . S
C9 O21 1.239 . S
C9 O22 1.263 . S
O10 Tb0 2.325 . S
O10 C20 1.236 . S
O11 Tb1 2.322 . S
O11 C20 1.257 . S
O12 Tb1 2.349 . S
O12 C23 1.261 . S
O13 Tb0 2.303 . S
O13 C23 1.257 . S
O14 Tb1 2.415 . S
O14 C30 1.239 . S
O15 Tb1 2.399 . S
O15 C30 1.263 . S
O16 Tb1 2.325 . S
O16 C31 1.236 . S
O17 Tb0 2.322 . S
O17 C31 1.257 . S
O18 Tb0 2.349 . S
O18 C2 1.261 . S
O19 Tb1 2.303 . S
O19 C2 1.257 . S
C20 O10 1.236 . S
C20 O11 1.257 . S
O21 Tb0 2.415 . S
O21 C9 1.239 . S
O22 Tb0 2.399 . S
O22 C9 1.263 . S
C23 O12 1.261 . S
C23 O13 1.257 . S
C24 C27 1.358 . S
C24 C28 1.332 . S
C24 C30 1.504 . S
C25 C26 1.373 . S
C25 C29 1.308 . S
C26 C25 1.373 . S
C26 C27 1.429 . S
C26 H36 0.932 . S
C27 C24 1.358 . S
C27 C26 1.429 . S
C27 H37 0.930 . S
C28 C24 1.332 . S
C28 C29 1.394 . S
C28 H38 0.932 . S
C29 C25 1.308 . S
C29 C28 1.394 . S
C29 H39 0.929 . S
C30 Tb1 2.764 . S
C30 O14 1.239 . S
C30 O15 1.263 . S
C30 C24 1.504 . S
C31 O16 1.236 . S
C31 O17 1.257 . S
H32 C5 0.932 . S
H33 C6 0.930 . S
H34 C7 0.932 . S
H35 C8 0.929 . S
H36 C26 0.932 . S
H37 C27 0.930 . S
H38 C28 0.932 . S
H39 C29 0.929 . S
Tb40 C49 2.764 . S
Tb40 O50 2.325 . S
Tb40 O53 2.303 . S
Tb40 O57 2.322 . S
Tb40 O58 2.349 . S
Tb40 O61 2.415 . S
Tb40 O62 2.399 . S
Tb41 O51 2.322 . S
Tb41 O52 2.349 . S
Tb41 O54 2.415 . S
Tb41 O55 2.399 . S
Tb41 O56 2.325 . S
Tb41 O59 2.303 . S
Tb41 C70 2.764 . S
C42 O58 1.261 . S
C42 O59 1.257 . S
C43 C46 1.358 . S
C43 C47 1.332 . S
C43 C49 1.504 . S
C44 C45 1.373 . S
C44 C48 1.308 . S
C45 C44 1.373 . S
C45 C46 1.429 . S
C45 H72 0.932 . S
C46 C43 1.358 . S
C46 C45 1.429 . S
C46 H73 0.930 . S
C47 C43 1.332 . S
C47 C48 1.394 . S
C47 H74 0.932 . S
C48 C44 1.308 . S
C48 C47 1.394 . S
C48 H75 0.929 . S
C49 Tb40 2.764 . S
C49 C43 1.504 . S
C49 O61 1.239 . S
C49 O62 1.263 . S
O50 Tb40 2.325 . S
O50 C60 1.236 . S
O51 Tb41 2.322 . S
O51 C60 1.257 . S
O52 Tb41 2.349 . S
O52 C63 1.261 . S
O53 Tb40 2.303 . S
O53 C63 1.257 . S
O54 Tb41 2.415 . S
O54 C70 1.239 . S
O55 Tb41 2.399 . S
O55 C70 1.263 . S
O56 Tb41 2.325 . S
O56 C71 1.236 . S
O57 Tb40 2.322 . S
O57 C71 1.257 . S
O58 Tb40 2.349 . S
O58 C42 1.261 . S
O59 Tb41 2.303 . S
O59 C42 1.257 . S
C60 O50 1.236 . S
C60 O51 1.257 . S
O61 Tb40 2.415 . S
O61 C49 1.239 . S
O62 Tb40 2.399 . S
O62 C49 1.263 . S
C63 O52 1.261 . S
C63 O53 1.257 . S
C64 C67 1.358 . S
C64 C68 1.332 . S
C64 C70 1.504 . S
C65 C66 1.373 . S
C65 C69 1.308 . S
C66 C65 1.373 . S
C66 C67 1.429 . S
C66 H76 0.932 . S
C67 C64 1.358 . S
C67 C66 1.429 . S
C67 H77 0.930 . S
C68 C64 1.332 . S
C68 C69 1.394 . S
C68 H78 0.932 . S
C69 C65 1.308 . S
C69 C68 1.394 . S
C69 H79 0.929 . S
C70 Tb41 2.764 . S
C70 O54 1.239 . S
C70 O55 1.263 . S
C70 C64 1.504 . S
C71 O56 1.236 . S
C71 O57 1.257 . S
H72 C45 0.932 . S
H73 C46 0.930 . S
H74 C47 0.932 . S
H75 C48 0.929 . S
H76 C66 0.932 . S
H77 C67 0.930 . S
H78 C68 0.932 . S
H79 C69 0.929 . S
Tb80 C89 2.764 . S
Tb80 O90 2.325 . S
Tb80 O93 2.303 . S
Tb80 O97 2.322 . S
Tb80 O98 2.349 . S
Tb80 O101 2.415 . S
Tb80 O102 2.399 . S
Tb81 O91 2.322 . S
Tb81 O92 2.349 . S
Tb81 O94 2.415 . S
Tb81 O95 2.399 . S
Tb81 O96 2.325 . S
Tb81 O99 2.303 . S
Tb81 C110 2.764 . S
C82 O98 1.261 . S
C82 O99 1.257 . S
C83 C86 1.358 . S
C83 C87 1.332 . S
C83 C89 1.504 . S
C84 C85 1.373 . S
C84 C88 1.308 . S
C85 C84 1.373 . S
C85 C86 1.429 . S
C85 H112 0.932 1_655 S
C86 C83 1.358 . S
C86 C85 1.429 . S
C86 H113 0.930 . S
C87 C83 1.332 . S
C87 C88 1.394 . S
C87 H114 0.932 . S
C88 C84 1.308 . S
C88 C87 1.394 . S
C88 H115 0.929 . S
C89 Tb80 2.764 . S
C89 C83 1.504 . S
C89 O101 1.239 . S
C89 O102 1.263 . S
O90 Tb80 2.325 . S
O90 C100 1.236 . S
O91 Tb81 2.322 . S
O91 C100 1.257 . S
O92 Tb81 2.349 . S
O92 C103 1.261 . S
O93 Tb80 2.303 . S
O93 C103 1.257 . S
O94 Tb81 2.415 . S
O94 C110 1.239 . S
O95 Tb81 2.399 . S
O95 C110 1.263 . S
O96 Tb81 2.325 . S
O96 C111 1.236 . S
O97 Tb80 2.322 . S
O97 C111 1.257 . S
O98 Tb80 2.349 . S
O98 C82 1.261 . S
O99 Tb81 2.303 . S
O99 C82 1.257 . S
C100 O90 1.236 . S
C100 O91 1.257 . S
O101 Tb80 2.415 . S
O101 C89 1.239 . S
O102 Tb80 2.399 . S
O102 C89 1.263 . S
C103 O92 1.261 . S
C103 O93 1.257 . S
C104 C107 1.358 . S
C104 C108 1.332 . S
C104 C110 1.504 . S
C105 C106 1.373 . S
C105 C109 1.308 . S
C106 C105 1.373 . S
C106 C107 1.429 . S
C106 H116 0.932 . S
C107 C104 1.358 . S
C107 C106 1.429 . S
C107 H117 0.930 . S
C108 C104 1.332 . S
C108 C109 1.394 . S
C108 H118 0.932 . S
C109 C105 1.308 . S
C109 C108 1.394 . S
C109 H119 0.929 . S
C110 Tb81 2.764 . S
C110 O94 1.239 . S
C110 O95 1.263 . S
C110 C104 1.504 . S
C111 O96 1.236 . S
C111 O97 1.257 . S
H112 C85 0.932 1_455 S
H113 C86 0.930 . S
H114 C87 0.932 . S
H115 C88 0.929 . S
H116 C106 0.932 . S
H117 C107 0.930 . S
H118 C108 0.932 . S
H119 C109 0.929 . S
Tb120 C129 2.764 . S
Tb120 O130 2.325 . S
Tb120 O133 2.303 . S
Tb120 O137 2.322 . S
Tb120 O138 2.349 . S
Tb120 O141 2.415 . S
Tb120 O142 2.399 . S
Tb121 O131 2.322 . S
Tb121 O132 2.349 . S
Tb121 O134 2.415 . S
Tb121 O135 2.399 . S
Tb121 O136 2.325 . S
Tb121 O139 2.303 . S
Tb121 C150 2.764 . S
C122 O138 1.261 . S
C122 O139 1.257 . S
C123 C126 1.358 . S
C123 C127 1.332 . S
C123 C129 1.504 . S
C124 C125 1.373 . S
C124 C128 1.308 . S
C125 C124 1.373 . S
C125 C126 1.429 . S
C125 H152 0.932 . S
C126 C123 1.358 . S
C126 C125 1.429 . S
C126 H153 0.930 . S
C127 C123 1.332 . S
C127 C128 1.394 . S
C127 H154 0.932 . S
C128 C124 1.308 . S
C128 C127 1.394 . S
C128 H155 0.929 . S
C129 Tb120 2.764 . S
C129 C123 1.504 . S
C129 O141 1.239 . S
C129 O142 1.263 . S
O130 Tb120 2.325 . S
O130 C140 1.236 . S
O131 Tb121 2.322 . S
O131 C140 1.257 . S
O132 Tb121 2.349 . S
O132 C143 1.261 . S
O133 Tb120 2.303 . S
O133 C143 1.257 . S
O134 Tb121 2.415 . S
O134 C150 1.239 . S
O135 Tb121 2.399 . S
O135 C150 1.263 . S
O136 Tb121 2.325 . S
O136 C151 1.236 . S
O137 Tb120 2.322 . S
O137 C151 1.257 . S
O138 Tb120 2.349 . S
O138 C122 1.261 . S
O139 Tb121 2.303 . S
O139 C122 1.257 . S
C140 O130 1.236 . S
C140 O131 1.257 . S
O141 Tb120 2.415 . S
O141 C129 1.239 . S
O142 Tb120 2.399 . S
O142 C129 1.263 . S
C143 O132 1.261 . S
C143 O133 1.257 . S
C144 C147 1.358 . S
C144 C148 1.332 . S
C144 C150 1.504 . S
C145 C146 1.373 . S
C145 C149 1.308 . S
C146 C145 1.373 . S
C146 C147 1.429 . S
C146 H156 0.932 . S
C147 C144 1.358 . S
C147 C146 1.429 . S
C147 H157 0.930 . S
C148 C144 1.332 . S
C148 C149 1.394 . S
C148 H158 0.932 . S
C149 C145 1.308 . S
C149 C148 1.394 . S
C149 H159 0.929 . S
C150 Tb121 2.764 . S
C150 O134 1.239 . S
C150 O135 1.263 . S
C150 C144 1.504 . S
C151 O136 1.236 . S
C151 O137 1.257 . S
H152 C125 0.932 . S
H153 C126 0.930 . S
H154 C127 0.932 . S
H155 C128 0.929 . S
H156 C146 0.932 . S
H157 C147 0.930 . S
H158 C148 0.932 . S
H159 C149 0.929 . S
Tb160 C169 2.764 . S
Tb160 O170 2.325 . S
Tb160 O173 2.303 . S
Tb160 O177 2.322 . S
Tb160 O178 2.349 . S
Tb160 O181 2.415 . S
Tb160 O182 2.399 . S
Tb161 O171 2.322 . S
Tb161 O172 2.349 . S
Tb161 O174 2.415 . S
Tb161 O175 2.399 . S
Tb161 O176 2.325 . S
Tb161 O179 2.303 . S
Tb161 C190 2.764 . S
C162 O178 1.261 . S
C162 O179 1.257 . S
C163 C166 1.358 . S
C163 C167 1.332 . S
C163 C169 1.504 . S
C164 C165 1.373 . S
C164 C168 1.308 . S
C165 C164 1.373 . S
C165 C166 1.429 . S
C165 H192 0.932 . S
C166 C163 1.358 . S
C166 C165 1.429 . S
C166 H193 0.930 . S
C167 C163 1.332 . S
C167 C168 1.394 . S
C167 H194 0.932 . S
C168 C164 1.308 . S
C168 C167 1.394 . S
C168 H195 0.929 . S
C169 Tb160 2.764 . S
C169 C163 1.504 . S
C169 O181 1.239 . S
C169 O182 1.263 . S
O170 Tb160 2.325 . S
O170 C180 1.236 . S
O171 Tb161 2.322 . S
O171 C180 1.257 . S
O172 Tb161 2.349 . S
O172 C183 1.261 . S
O173 Tb160 2.303 . S
O173 C183 1.257 . S
O174 Tb161 2.415 . S
O174 C190 1.239 . S
O175 Tb161 2.399 . S
O175 C190 1.263 . S
O176 Tb161 2.325 . S
O176 C191 1.236 . S
O177 Tb160 2.322 . S
O177 C191 1.257 . S
O178 Tb160 2.349 . S
O178 C162 1.261 . S
O179 Tb161 2.303 . S
O179 C162 1.257 . S
C180 O170 1.236 . S
C180 O171 1.257 . S
O181 Tb160 2.415 . S
O181 C169 1.239 . S
O182 Tb160 2.399 . S
O182 C169 1.263 . S
C183 O172 1.261 . S
C183 O173 1.257 . S
C184 C187 1.358 . S
C184 C188 1.332 . S
C184 C190 1.504 . S
C185 C186 1.373 . S
C185 C189 1.308 . S
C186 C185 1.373 . S
C186 C187 1.429 . S
C186 H196 0.932 . S
C187 C184 1.358 . S
C187 C186 1.429 . S
C187 H197 0.930 . S
C188 C184 1.332 . S
C188 C189 1.394 . S
C188 H198 0.932 . S
C189 C185 1.308 . S
C189 C188 1.394 . S
C189 H199 0.929 . S
C190 Tb161 2.764 . S
C190 O174 1.239 . S
C190 O175 1.263 . S
C190 C184 1.504 . S
C191 O176 1.236 . S
C191 O177 1.257 . S
H192 C165 0.932 . S
H193 C166 0.930 . S
H194 C167 0.932 . S
H195 C168 0.929 . S
H196 C186 0.932 . S
H197 C187 0.930 . S
H198 C188 0.932 . S
H199 C189 0.929 . S
Tb200 C209 2.764 . S
Tb200 O210 2.325 . S
Tb200 O213 2.303 . S
Tb200 O217 2.322 . S
Tb200 O218 2.349 . S
Tb200 O221 2.415 . S
Tb200 O222 2.399 . S
Tb201 O211 2.322 . S
Tb201 O212 2.349 . S
Tb201 O214 2.415 . S
Tb201 O215 2.399 . S
Tb201 O216 2.325 . S
Tb201 O219 2.303 . S
Tb201 C230 2.764 . S
C202 O218 1.261 . S
C202 O219 1.257 . S
C203 C206 1.358 . S
C203 C207 1.332 . S
C203 C209 1.504 . S
C204 C205 1.373 . S
C204 C208 1.308 . S
C205 C204 1.373 . S
C205 C206 1.429 . S
C205 H232 0.932 . S
C206 C203 1.358 . S
C206 C205 1.429 . S
C206 H233 0.930 . S
C207 C203 1.332 . S
C207 C208 1.394 . S
C207 H234 0.932 . S
C208 C204 1.308 . S
C208 C207 1.394 . S
C208 H235 0.929 . S
C209 Tb200 2.764 . S
C209 C203 1.504 . S
C209 O221 1.239 . S
C209 O222 1.263 . S
O210 Tb200 2.325 . S
O210 C220 1.236 . S
O211 Tb201 2.322 . S
O211 C220 1.257 . S
O212 Tb201 2.349 . S
O212 C223 1.261 . S
O213 Tb200 2.303 . S
O213 C223 1.257 . S
O214 Tb201 2.415 . S
O214 C230 1.239 . S
O215 Tb201 2.399 . S
O215 C230 1.263 . S
O216 Tb201 2.325 . S
O216 C231 1.236 . S
O217 Tb200 2.322 . S
O217 C231 1.257 . S
O218 Tb200 2.349 . S
O218 C202 1.261 . S
O219 Tb201 2.303 . S
O219 C202 1.257 . S
C220 O210 1.236 . S
C220 O211 1.257 . S
O221 Tb200 2.415 . S
O221 C209 1.239 . S
O222 Tb200 2.399 . S
O222 C209 1.263 . S
C223 O212 1.261 . S
C223 O213 1.257 . S
C224 C227 1.358 . S
C224 C228 1.332 . S
C224 C230 1.504 . S
C225 C226 1.373 . S
C225 C229 1.308 . S
C226 C225 1.373 . S
C226 C227 1.429 . S
C226 H236 0.932 . S
C227 C224 1.358 . S
C227 C226 1.429 . S
C227 H237 0.930 . S
C228 C224 1.332 . S
C228 C229 1.394 . S
C228 H238 0.932 . S
C229 C225 1.308 . S
C229 C228 1.394 . S
C229 H239 0.929 . S
C230 Tb201 2.764 . S
C230 O214 1.239 . S
C230 O215 1.263 . S
C230 C224 1.504 . S
C231 O216 1.236 . S
C231 O217 1.257 . S
H232 C205 0.932 . S
H233 C206 0.930 . S
H234 C207 0.932 . S
H235 C208 0.929 . S
H236 C226 0.932 . S
H237 C227 0.930 . S
H238 C228 0.932 . S
H239 C229 0.929 . S
Tb240 C249 2.764 . S
Tb240 O250 2.325 . S
Tb240 O253 2.303 . S
Tb240 O257 2.322 . S
Tb240 O258 2.349 . S
Tb240 O261 2.415 . S
Tb240 O262 2.399 . S
Tb241 O251 2.322 . S
Tb241 O252 2.349 . S
Tb241 O254 2.415 . S
Tb241 O255 2.399 . S
Tb241 O256 2.325 . S
Tb241 O259 2.303 . S
Tb241 C270 2.764 . S
C242 O258 1.261 . S
C242 O259 1.257 . S
C243 C246 1.358 . S
C243 C247 1.332 . S
C243 C249 1.504 . S
C244 C245 1.373 . S
C244 C248 1.308 . S
C245 C244 1.373 . S
C245 C246 1.429 . S
C245 H272 0.932 . S
C246 C243 1.358 . S
C246 C245 1.429 . S
C246 H273 0.930 . S
C247 C243 1.332 . S
C247 C248 1.394 . S
C247 H274 0.932 . S
C248 C244 1.308 . S
C248 C247 1.394 . S
C248 H275 0.929 . S
C249 Tb240 2.764 . S
C249 C243 1.504 . S
C249 O261 1.239 . S
C249 O262 1.263 . S
O250 Tb240 2.325 . S
O250 C260 1.236 . S
O251 Tb241 2.322 . S
O251 C260 1.257 . S
O252 Tb241 2.349 . S
O252 C263 1.261 . S
O253 Tb240 2.303 . S
O253 C263 1.257 . S
O254 Tb241 2.415 . S
O254 C270 1.239 . S
O255 Tb241 2.399 . S
O255 C270 1.263 . S
O256 Tb241 2.325 . S
O256 C271 1.236 . S
O257 Tb240 2.322 . S
O257 C271 1.257 . S
O258 Tb240 2.349 . S
O258 C242 1.261 . S
O259 Tb241 2.303 . S
O259 C242 1.257 . S
C260 O250 1.236 . S
C260 O251 1.257 . S
O261 Tb240 2.415 . S
O261 C249 1.239 . S
O262 Tb240 2.399 . S
O262 C249 1.263 . S
C263 O252 1.261 . S
C263 O253 1.257 . S
C264 C267 1.358 . S
C264 C268 1.332 . S
C264 C270 1.504 . S
C265 C266 1.373 . S
C265 C269 1.308 . S
C266 C265 1.373 . S
C266 C267 1.429 . S
C266 H276 0.932 . S
C267 C264 1.358 . S
C267 C266 1.429 . S
C267 H277 0.930 . S
C268 C264 1.332 . S
C268 C269 1.394 . S
C268 H278 0.932 . S
C269 C265 1.308 . S
C269 C268 1.394 . S
C269 H279 0.929 . S
C270 Tb241 2.764 . S
C270 O254 1.239 . S
C270 O255 1.263 . S
C270 C264 1.504 . S
C271 O256 1.236 . S
C271 O257 1.257 . S
H272 C245 0.932 . S
H273 C246 0.930 . S
H274 C247 0.932 . S
H275 C248 0.929 . S
H276 C266 0.932 . S
H277 C267 0.930 . S
H278 C268 0.932 . S
H279 C269 0.929 . S
Tb280 C289 2.764 . S
Tb280 O290 2.325 . S
Tb280 O293 2.303 . S
Tb280 O297 2.322 . S
Tb280 O298 2.349 . S
Tb280 O301 2.415 . S
Tb280 O302 2.399 . S
Tb281 O291 2.322 . S
Tb281 O292 2.349 . S
Tb281 O294 2.415 . S
Tb281 O295 2.399 . S
Tb281 O296 2.325 . S
Tb281 O299 2.303 . S
Tb281 C310 2.764 . S
C282 O298 1.261 . S
C282 O299 1.257 . S
C283 C286 1.358 . S
C283 C287 1.332 . S
C283 C289 1.504 . S
C284 C285 1.373 . S
C284 C288 1.308 . S
C285 C284 1.373 . S
C285 C286 1.429 . S
C285 H312 0.932 1_565 S
C286 C283 1.358 . S
C286 C285 1.429 . S
C286 H313 0.930 . S
C287 C283 1.332 . S
C287 C288 1.394 . S
C287 H314 0.932 . S
C288 C284 1.308 . S
C288 C287 1.394 . S
C288 H315 0.929 . S
C289 Tb280 2.764 . S
C289 C283 1.504 . S
C289 O301 1.239 . S
C289 O302 1.263 . S
O290 Tb280 2.325 . S
O290 C300 1.236 . S
O291 Tb281 2.322 . S
O291 C300 1.257 . S
O292 Tb281 2.349 . S
O292 C303 1.261 . S
O293 Tb280 2.303 . S
O293 C303 1.257 . S
O294 Tb281 2.415 . S
O294 C310 1.239 . S
O295 Tb281 2.399 . S
O295 C310 1.263 . S
O296 Tb281 2.325 . S
O296 C311 1.236 . S
O297 Tb280 2.322 . S
O297 C311 1.257 . S
O298 Tb280 2.349 . S
O298 C282 1.261 . S
O299 Tb281 2.303 . S
O299 C282 1.257 . S
C300 O290 1.236 . S
C300 O291 1.257 . S
O301 Tb280 2.415 . S
O301 C289 1.239 . S
O302 Tb280 2.399 . S
O302 C289 1.263 . S
C303 O292 1.261 . S
C303 O293 1.257 . S
C304 C307 1.358 . S
C304 C308 1.332 . S
C304 C310 1.504 . S
C305 C306 1.373 . S
C305 C309 1.308 . S
C306 C305 1.373 . S
C306 C307 1.429 . S
C306 H316 0.932 . S
C307 C304 1.358 . S
C307 C306 1.429 . S
C307 H317 0.930 . S
C308 C304 1.332 . S
C308 C309 1.394 . S
C308 H318 0.932 . S
C309 C305 1.308 . S
C309 C308 1.394 . S
C309 H319 0.929 . S
C310 Tb281 2.764 . S
C310 O294 1.239 . S
C310 O295 1.263 . S
C310 C304 1.504 . S
C311 O296 1.236 . S
C311 O297 1.257 . S
H312 C285 0.932 1_545 S
H313 C286 0.930 . S
H314 C287 0.932 . S
H315 C288 0.929 . S
H316 C306 0.932 . S
H317 C307 0.930 . S
H318 C308 0.932 . S
H319 C309 0.929 . S
C320 O332 1.241 . S
C320 O333 1.280 . S
C321 O334 1.277 . S
C321 O335 1.245 . S
C322 O346 1.247 . S
C322 O348 1.289 . S
Mg323 O324 1.926 1_455 S
Mg323 O333 1.984 1_455 S
Mg323 O335 1.988 1_455 S
Mg323 O336 2.061 . S
O324 Mg323 1.926 1_655 S
O324 Mg325 1.986 . S
O324 Mg326 1.917 1_655 S
Mg325 O324 1.986 . S
Mg325 O332 2.042 . S
Mg325 O334 2.041 . S
Mg325 O340 2.038 1_545 S
Mg325 O348 2.238 1_545 S
Mg326 O324 1.917 1_455 S
Mg326 O327 1.917 1_545 S
Mg326 O337 2.106 . S
Mg326 O339 2.079 1_445 S
Mg326 O348 2.106 1_445 S
Mg326 O349 2.079 . S
O327 Mg326 1.917 1_565 S
O327 Mg328 1.926 . S
O327 Mg329 1.986 1_565 S
Mg328 O327 1.926 . S
Mg328 O342 1.984 . S
Mg328 O345 1.988 . S
Mg328 O346 2.061 1_455 S
Mg329 O327 1.986 1_545 S
Mg329 O337 2.238 . S
Mg329 O341 2.042 . S
Mg329 O343 2.041 1_545 S
Mg329 O350 2.038 . S
C330 O336 1.247 . S
C330 O337 1.289 . S
C331 O349 1.245 . S
C331 O350 1.274 . S
O332 C320 1.241 . S
O332 Mg325 2.042 . S
O333 C320 1.280 . S
O333 Mg323 1.984 1_655 S
O334 C321 1.277 . S
O334 Mg325 2.041 . S
O335 C321 1.245 . S
O335 Mg323 1.988 1_655 S
O336 Mg323 2.061 . S
O336 C330 1.247 . S
O337 Mg326 2.106 . S
O337 Mg329 2.238 . S
O337 C330 1.289 . S
C338 O339 1.245 . S
C338 O340 1.274 . S
O339 Mg326 2.079 1_665 S
O339 C338 1.245 . S
O340 Mg325 2.038 1_565 S
O340 C338 1.274 . S
O341 Mg329 2.042 . S
O341 C344 1.241 1_545 S
O342 Mg328 1.984 . S
O342 C344 1.280 . S
O343 Mg329 2.041 1_565 S
O343 C347 1.277 . S
C344 O341 1.241 1_565 S
C344 O342 1.280 . S
O345 Mg328 1.988 . S
O345 C347 1.245 . S
O346 C322 1.247 . S
O346 Mg328 2.061 1_655 S
C347 O343 1.277 . S
C347 O345 1.245 . S
O348 C322 1.289 . S
O348 Mg325 2.238 1_565 S
O348 Mg326 2.106 1_665 S
O349 Mg326 2.079 . S
O349 C331 1.245 . S
O350 Mg329 2.038 . S
O350 C331 1.274 . S
C351 O363 1.241 . S
C351 O364 1.280 . S
C352 O365 1.277 1_556 S
C352 O366 1.245 1_556 S
C353 O377 1.247 1_556 S
C353 O379 1.289 1_556 S
Mg354 O355 1.926 . S
Mg354 O364 1.984 . S
Mg354 O366 1.988 . S
Mg354 O367 2.061 . S
O355 Mg354 1.926 . S
O355 Mg356 1.986 . S
O355 Mg357 1.917 . S
Mg356 O355 1.986 . S
Mg356 O363 2.042 . S
Mg356 O365 2.041 . S
Mg356 O371 2.038 1_545 S
Mg356 O379 2.238 1_545 S
Mg357 O355 1.917 . S
Mg357 O358 1.917 . S
Mg357 O368 2.106 . S
Mg357 O370 2.079 1_545 S
Mg357 O379 2.106 1_545 S
Mg357 O380 2.079 . S
O358 Mg357 1.917 . S
O358 Mg359 1.926 1_545 S
O358 Mg360 1.986 . S
Mg359 O358 1.926 1_565 S
Mg359 O373 1.984 . S
Mg359 O376 1.988 . S
Mg359 O377 2.061 . S
Mg360 O358 1.986 . S
Mg360 O368 2.238 . S
Mg360 O372 2.042 . S
Mg360 O374 2.041 . S
Mg360 O381 2.038 . S
C361 O367 1.247 . S
C361 O368 1.289 . S
C362 O380 1.245 1_556 S
C362 O381 1.274 1_556 S
O363 C351 1.241 . S
O363 Mg356 2.042 . S
O364 C351 1.280 . S
O364 Mg354 1.984 . S
O365 C352 1.277 1_554 S
O365 Mg356 2.041 . S
O366 C352 1.245 1_554 S
O366 Mg354 1.988 . S
O367 Mg354 2.061 . S
O367 C361 1.247 . S
O368 Mg357 2.106 . S
O368 Mg360 2.238 . S
O368 C361 1.289 . S
C369 O370 1.245 . S
C369 O371 1.274 . S
O370 Mg357 2.079 1_565 S
O370 C369 1.245 . S
O371 Mg356 2.038 1_565 S
O371 C369 1.274 . S
O372 Mg360 2.042 . S
O372 C375 1.249 1_545 S
O373 Mg359 1.984 . S
O373 C375 1.282 . S
O374 Mg360 2.041 . S
O374 C378 1.277 1_545 S
C375 O372 1.249 1_565 S
C375 O373 1.282 . S
O376 Mg359 1.988 . S
O376 C378 1.245 . S
O377 C353 1.247 1_554 S
O377 Mg359 2.061 . S
C378 O374 1.277 1_565 S
C378 O376 1.245 . S
O379 C353 1.289 1_554 S
O379 Mg356 2.238 1_565 S
O379 Mg357 2.106 1_565 S
O380 Mg357 2.079 . S
O380 C362 1.245 1_554 S
O381 Mg360 2.038 . S
O381 C362 1.274 1_554 S
C382 O394 1.241 . S
C382 O395 1.280 . S
C383 O396 1.277 . S
C383 O397 1.245 . S
C384 O408 1.247 . S
C384 O410 1.289 . S
Mg385 O386 1.926 1_455 S
Mg385 O395 1.984 1_455 S
Mg385 O397 1.988 1_454 S
Mg385 O398 2.061 . S
O386 Mg385 1.926 1_655 S
O386 Mg387 1.986 1_554 S
O386 Mg388 1.892 1_655 S
Mg387 O386 1.986 1_556 S
Mg387 O394 2.042 1_556 S
Mg387 O396 2.041 . S
Mg387 O402 2.038 1_556 S
Mg387 O410 2.238 . S
Mg388 O386 1.892 1_455 S
Mg388 O389 1.942 1_554 S
Mg388 O399 2.124 . S
Mg388 O401 2.074 1_455 S
Mg388 O410 2.089 1_454 S
Mg388 O411 2.084 1_554 S
O389 Mg388 1.942 1_556 S
O389 Mg390 1.926 1_455 S
O389 Mg391 1.986 1_556 S
Mg390 O389 1.926 1_655 S
Mg390 O404 1.984 1_655 S
Mg390 O407 1.988 1_656 S
Mg390 O408 2.061 . S
Mg391 O389 1.986 1_554 S
Mg391 O399 2.238 . S
Mg391 O403 2.042 1_554 S
Mg391 O405 2.041 . S
Mg391 O412 2.038 1_554 S
C392 O398 1.247 . S
C392 O399 1.289 . S
C393 O411 1.245 . S
C393 O412 1.274 . S
O394 C382 1.241 . S
O394 Mg387 2.042 1_554 S
O395 C382 1.280 . S
O395 Mg385 1.984 1_655 S
O396 C383 1.277 . S
O396 Mg387 2.041 . S
O397 C383 1.245 . S
O397 Mg385 1.988 1_656 S
O398 Mg385 2.061 . S
O398 C392 1.247 . S
O399 Mg388 2.124 . S
O399 Mg391 2.238 . S
O399 C392 1.289 . S
C400 O401 1.245 . S
C400 O402 1.274 . S
O401 Mg388 2.074 1_655 S
O401 C400 1.245 . S
O402 Mg387 2.038 1_554 S
O402 C400 1.274 . S
O403 Mg391 2.042 1_556 S
O403 C406 1.241 . S
O404 Mg390 1.984 1_455 S
O404 C406 1.280 . S
O405 Mg391 2.041 . S
O405 C409 1.277 . S
C406 O403 1.241 . S
C406 O404 1.280 . S
O407 Mg390 1.988 1_454 S
O407 C409 1.245 . S
O408 C384 1.247 . S
O408 Mg390 2.061 . S
C409 O405 1.277 . S
C409 O407 1.245 . S
O410 C384 1.289 . S
O410 Mg387 2.238 . S
O410 Mg388 2.089 1_656 S
O411 Mg388 2.084 1_556 S
O411 C393 1.245 . S
O412 Mg391 2.038 1_556 S
O412 C393 1.274 . S
C413 O425 1.241 . S
C413 O426 1.280 . S
C414 O427 1.277 . S
C414 O428 1.245 . S
C415 O439 1.247 . S
C415 O441 1.289 . S
Mg416 O417 1.926 . S
Mg416 O426 1.984 . S
Mg416 O428 1.988 1_554 S
Mg416 O429 2.061 . S
O417 Mg416 1.926 . S
O417 Mg418 1.986 . S
O417 Mg419 1.917 . S
Mg418 O417 1.986 . S
Mg418 O425 2.042 . S
Mg418 O427 2.041 1_554 S
Mg418 O433 2.038 . S
Mg418 O441 2.238 1_554 S
Mg419 O417 1.917 . S
Mg419 O420 1.917 . S
Mg419 O430 2.106 . S
Mg419 O432 2.079 . S
Mg419 O441 2.106 1_554 S
Mg419 O442 2.079 1_554 S
O420 Mg419 1.917 . S
O420 Mg421 1.926 . S
O420 Mg422 1.986 . S
Mg421 O420 1.926 . S
Mg421 O435 1.984 1_554 S
Mg421 O438 1.988 . S
Mg421 O439 2.061 1_554 S
Mg422 O420 1.986 . S
Mg422 O430 2.238 . S
Mg422 O434 2.042 1_554 S
Mg422 O436 2.041 . S
Mg422 O443 2.038 1_554 S
C423 O429 1.247 . S
C423 O430 1.289 . S
C424 O442 1.245 . S
C424 O443 1.274 . S
O425 C413 1.241 . S
O425 Mg418 2.042 . S
O426 C413 1.280 . S
O426 Mg416 1.984 . S
O427 C414 1.277 . S
O427 Mg418 2.041 1_556 S
O428 C414 1.245 . S
O428 Mg416 1.988 1_556 S
O429 Mg416 2.061 . S
O429 C423 1.247 . S
O430 Mg419 2.106 . S
O430 Mg422 2.238 . S
O430 C423 1.289 . S
C431 O432 1.245 . S
C431 O433 1.274 . S
O432 Mg419 2.079 . S
O432 C431 1.245 . S
O433 Mg418 2.038 . S
O433 C431 1.274 . S
O434 Mg422 2.042 1_556 S
O434 C437 1.241 . S
O435 Mg421 1.984 1_556 S
O435 C437 1.280 . S
O436 Mg422 2.041 . S
O436 C440 1.277 . S
C437 O434 1.241 . S
C437 O435 1.280 . S
O438 Mg421 1.988 . S
O438 C440 1.245 . S
O439 C415 1.247 . S
O439 Mg421 2.061 1_556 S
C440 O436 1.277 . S
C440 O438 1.245 . S
O441 C415 1.289 . S
O441 Mg418 2.238 1_556 S
O441 Mg419 2.106 1_556 S
O442 Mg419 2.079 1_556 S
O442 C424 1.245 . S
O443 Mg422 2.038 1_556 S
O443 C424 1.274 . S
C444 O456 1.241 . S
C444 O457 1.280 . S
C445 O458 1.277 . S
C445 O459 1.245 1_655 S
C446 O470 1.247 . S
C446 O472 1.289 . S
Mg447 O448 1.926 . S
Mg447 O457 1.984 1_455 S
Mg447 O459 1.988 . S
Mg447 O460 2.061 . S
O448 Mg447 1.926 . S
O448 Mg449 1.986 1_455 S
O448 Mg450 1.917 . S
Mg449 O448 1.986 1_655 S
Mg449 O456 2.042 . S
Mg449 O458 2.041 . S
Mg449 O464 2.038 . S
Mg449 O472 2.238 . S
Mg450 O448 1.917 . S
Mg450 O451 1.917 . S
Mg450 O461 2.106 . S
Mg450 O463 2.079 . S
Mg450 O472 2.106 1_455 S
Mg450 O473 2.079 . S
O451 Mg450 1.917 . S
O451 Mg452 1.926 . S
O451 Mg453 1.986 . S
Mg452 O451 1.926 . S
Mg452 O466 1.984 . S
Mg452 O469 1.988 . S
Mg452 O470 2.061 1_455 S
Mg453 O451 1.986 . S
Mg453 O461 2.238 . S
Mg453 O465 2.042 . S
Mg453 O467 2.041 . S
Mg453 O474 2.038 . S
C454 O460 1.247 . S
C454 O461 1.289 . S
C455 O473 1.245 . S
C455 O474 1.274 . S
O456 C444 1.241 . S
O456 Mg449 2.042 . S
O457 C444 1.280 . S
O457 Mg447 1.984 1_655 S
O458 C445 1.277 . S
O458 Mg449 2.041 . S
O459 C445 1.245 1_455 S
O459 Mg447 1.988 . S
O460 Mg447 2.061 . S
O460 C454 1.247 . S
O461 Mg450 2.106 . S
O461 Mg453 2.238 . S
O461 C454 1.289 . S
C462 O463 1.245 1_655 S
C462 O464 1.274 . S
O463 Mg450 2.079 . S
O463 C462 1.245 1_455 S
O464 Mg449 2.038 . S
O464 C462 1.274 . S
O465 Mg453 2.042 . S
O465 C468 1.241 . S
O466 Mg452 1.984 . S
O466 C468 1.280 . S
O467 Mg453 2.041 . S
O467 C471 1.277 . S
C468 O465 1.241 . S
C468 O466 1.280 . S
O469 Mg452 1.988 . S
O469 C471 1.245 . S
O470 C446 1.247 . S
O470 Mg452 2.061 1_655 S
C471 O467 1.277 . S
C471 O469 1.245 . S
O472 C446 1.289 . S
O472 Mg449 2.238 . S
O472 Mg450 2.106 1_655 S
O473 Mg450 2.079 . S
O473 C455 1.245 . S
O474 Mg453 2.038 . S
O474 C455 1.274 . S
C475 O487 1.241 . S
C475 O488 1.280 . S
C476 O489 1.277 . S
C476 O490 1.245 . S
C477 O501 1.247 . S
C477 O503 1.289 . S
Mg478 O479 1.926 . S
Mg478 O488 1.984 . S
Mg478 O490 1.988 . S
Mg478 O491 2.061 . S
O479 Mg478 1.926 . S
O479 Mg480 1.986 1_545 S
O479 Mg481 1.917 . S
Mg480 O479 1.986 1_565 S
Mg480 O487 2.042 1_565 S
Mg480 O489 2.041 1_565 S
Mg480 O495 2.038 . S
Mg480 O503 2.238 . S
Mg481 O479 1.917 . S
Mg481 O482 1.917 1_545 S
Mg481 O492 2.106 . S
Mg481 O494 2.079 1_545 S
Mg481 O503 2.106 1_545 S
Mg481 O504 2.079 . S
O482 Mg481 1.917 1_565 S
O482 Mg483 1.926 . S
O482 Mg484 1.986 1_565 S
Mg483 O482 1.926 . S
Mg483 O497 1.984 . S
Mg483 O500 1.988 . S
Mg483 O501 2.061 . S
Mg484 O482 1.986 1_545 S
Mg484 O492 2.238 . S
Mg484 O496 2.042 1_545 S
Mg484 O498 2.041 1_545 S
Mg484 O505 2.038 . S
C485 O491 1.247 . S
C485 O492 1.289 . S
C486 O504 1.245 . S
C486 O505 1.274 . S
O487 C475 1.241 . S
O487 Mg480 2.042 1_545 S
O488 C475 1.280 . S
O488 Mg478 1.984 . S
O489 C476 1.277 . S
O489 Mg480 2.041 1_545 S
O490 C476 1.245 . S
O490 Mg478 1.988 . S
O491 Mg478 2.061 . S
O491 C485 1.247 . S
O492 Mg481 2.106 . S
O492 Mg484 2.238 . S
O492 C485 1.289 . S
C493 O494 1.245 . S
C493 O495 1.274 . S
O494 Mg481 2.079 1_565 S
O494 C493 1.245 . S
O495 Mg480 2.038 . S
O495 C493 1.274 . S
O496 Mg484 2.042 1_565 S
O496 C499 1.241 . S
O497 Mg483 1.984 . S
O497 C499 1.280 . S
O498 Mg484 2.041 1_565 S
O498 C502 1.277 . S
C499 O496 1.241 . S
C499 O497 1.280 . S
O500 Mg483 1.988 . S
O500 C502 1.245 . S
O501 C477 1.247 . S
O501 Mg483 2.061 . S
C502 O498 1.277 . S
C502 O500 1.245 . S
O503 C477 1.289 . S
O503 Mg480 2.238 . S
O503 Mg481 2.106 1_565 S
O504 Mg481 2.079 . S
O504 C486 1.245 . S
O505 Mg484 2.038 . S
O505 C486 1.274 . S
C506 C507 1.369 . S
C506 C508 1.419 . S
C506 H510 0.930 . S
C507 C506 1.369 . S
C507 C516 1.429 . S
C508 C506 1.419 . S
C508 C509 1.363 . S
C508 H511 0.929 . S
C509 C508 1.363 . S
C509 C515 1.428 . S
H510 C506 0.930 . S
H511 C508 0.929 . S
S512 N513 1.613 . S
S512 N514 1.610 . S
N513 S512 1.613 . S
N513 C516 1.350 . S
N514 S512 1.610 . S
N514 C515 1.351 . S
C515 C509 1.428 . S
C515 N514 1.351 . S
C515 C516 1.434 . S
C516 C507 1.429 . S
C516 N513 1.350 . S
C516 C515 1.434 . S
C517 C518 1.369 . S
C517 C519 1.419 . S
C517 H521 0.930 . S
C518 C517 1.369 . S
C518 C527 1.429 . S
C519 C517 1.419 . S
C519 C520 1.363 . S
C519 H522 0.929 . S
C520 C519 1.363 . S
C520 C526 1.428 . S
H521 C517 0.930 . S
H522 C519 0.929 . S
S523 N524 1.613 . S
S523 N525 1.610 . S
N524 S523 1.613 . S
N524 C527 1.350 . S
N525 S523 1.610 . S
N525 C526 1.351 . S
C526 C520 1.428 . S
C526 N525 1.351 . S
C526 C527 1.434 . S
C527 C518 1.429 . S
C527 N524 1.350 . S
C527 C526 1.434 . S
C528 C529 1.369 . S
C528 C530 1.419 . S
C528 H532 0.930 . S
C529 C528 1.369 . S
C529 C538 1.429 . S
C530 C528 1.419 . S
C530 C531 1.363 . S
C530 H533 0.929 . S
C531 C530 1.363 . S
C531 C537 1.428 . S
H532 C528 0.930 . S
H533 C530 0.929 . S
S534 N535 1.613 . S
S534 N536 1.610 . S
N535 S534 1.613 . S
N535 C538 1.350 . S
N536 S534 1.610 . S
N536 C537 1.351 . S
C537 C531 1.428 . S
C537 N536 1.351 . S
C537 C538 1.434 . S
C538 C529 1.429 . S
C538 N535 1.350 . S
C538 C537 1.434 . S
C539 C540 1.369 . S
C539 C541 1.419 . S
C539 H543 0.930 . S
C540 C539 1.369 . S
C540 C549 1.429 . S
C541 C539 1.419 . S
C541 C542 1.363 . S
C541 H544 0.929 . S
C542 C541 1.363 . S
C542 C548 1.428 . S
H543 C539 0.930 . S
H544 C541 0.929 . S
S545 N546 1.613 . S
S545 N547 1.610 . S
N546 S545 1.613 . S
N546 C549 1.350 1_545 S
N547 S545 1.610 . S
N547 C548 1.351 1_545 S
C548 C542 1.428 . S
C548 N547 1.351 1_565 S
C548 C549 1.434 . S
C549 C540 1.429 . S
C549 N546 1.350 1_565 S
C549 C548 1.434 . S
C550 C551 1.369 . S
C550 C552 1.419 . S
C550 H554 0.930 1_565 S
C551 C550 1.369 . S
C551 C560 1.429 . S
C552 C550 1.419 . S
C552 C553 1.363 . S
C552 H555 0.929 1_565 S
C553 C552 1.363 . S
C553 C559 1.428 . S
H554 C550 0.930 1_545 S
H555 C552 0.929 1_545 S
S556 N557 1.613 . S
S556 N558 1.610 . S
N557 S556 1.613 . S
N557 C560 1.350 . S
N558 S556 1.610 . S
N558 C559 1.351 . S
C559 C553 1.428 . S
C559 N558 1.351 . S
C559 C560 1.434 . S
C560 C551 1.429 . S
C560 N557 1.350 . S
C560 C559 1.434 . S
C561 C562 1.369 . S
C561 C563 1.419 . S
C561 H565 0.930 . S
C562 C561 1.369 . S
C562 C571 1.429 . S
C563 C561 1.419 . S
C563 C564 1.363 . S
C563 H566 0.929 . S
C564 C563 1.363 . S
C564 C570 1.428 . S
H565 C561 0.930 . S
H566 C563 0.929 . S
S567 N568 1.613 . S
S567 N569 1.610 . S
N568 S567 1.613 . S
N568 C571 1.350 . S
N569 S567 1.610 . S
N569 C570 1.351 . S
C570 C564 1.428 . S
C570 N569 1.351 . S
C570 C571 1.434 . S
C571 C562 1.429 . S
C571 N568 1.350 . S
C571 C570 1.434 . S
C572 C573 1.369 . S
C572 C574 1.419 . S
C572 H576 0.930 . S
C573 C572 1.369 . S
C573 C582 1.429 . S
C574 C572 1.419 . S
C574 C575 1.363 . S
C574 H577 0.929 . S
C575 C574 1.363 . S
C575 C581 1.428 . S
H576 C572 0.930 . S
H577 C574 0.929 . S
S578 N579 1.613 . S
S578 N580 1.610 . S
N579 S578 1.613 . S
N579 C582 1.350 . S
N580 S578 1.610 . S
N580 C581 1.351 . S
C581 C575 1.428 . S
C581 N580 1.351 . S
C581 C582 1.434 . S
C582 C573 1.429 . S
C582 N579 1.350 . S
C582 C581 1.434 . S
C583 C584 1.369 . S
C583 C585 1.419 . S
C583 H587 0.930 . S
C584 C583 1.369 . S
C584 C593 1.429 . S
C585 C583 1.419 . S
C585 C586 1.363 . S
C585 H588 0.929 . S
C586 C585 1.363 . S
C586 C592 1.428 . S
H587 C583 0.930 . S
H588 C585 0.929 . S
S589 N590 1.613 . S
S589 N591 1.610 . S
N590 S589 1.613 . S
N590 C593 1.350 . S
N591 S589 1.610 . S
N591 C592 1.351 . S
C592 C586 1.428 . S
C592 N591 1.351 . S
C592 C593 1.434 . S
C593 C584 1.429 . S
C593 N590 1.350 . S
C593 C592 1.434 . S
C594 C595 1.369 . S
C594 C596 1.419 . S
C594 H598 0.930 . S
C595 C594 1.369 . S
C595 C604 1.429 . S
C596 C594 1.419 . S
C596 C597 1.363 . S
C596 H599 0.929 . S
C597 C596 1.363 . S
C597 C603 1.428 . S
H598 C594 0.930 . S
H599 C596 0.929 . S
S600 N601 1.613 . S
S600 N602 1.610 . S
N601 S600 1.613 . S
N601 C604 1.350 . S
N602 S600 1.610 . S
N602 C603 1.351 . S
C603 C597 1.428 . S
C603 N602 1.351 . S
C603 C604 1.434 . S
C604 C595 1.429 . S
C604 N601 1.350 . S
C604 C603 1.434 . S
C605 C606 1.369 . S
C605 C607 1.419 . S
C605 H609 0.930 . S
C606 C605 1.369 . S
C606 C615 1.429 . S
C607 C605 1.419 . S
C607 C608 1.363 . S
C607 H610 0.929 . S
C608 C607 1.363 . S
C608 C614 1.428 . S
H609 C605 0.930 . S
H610 C607 0.929 . S
S611 N612 1.613 . S
S611 N613 1.610 . S
N612 S611 1.613 . S
N612 C615 1.350 . S
N613 S611 1.610 . S
N613 C614 1.351 . S
C614 C608 1.428 . S
C614 N613 1.351 . S
C614 C615 1.434 . S
C615 C606 1.429 . S
C615 N612 1.350 . S
C615 C614 1.434 . S
C616 C617 1.369 . S
C616 C618 1.419 . S
C616 H620 0.930 . S
C617 C616 1.369 . S
C617 C626 1.429 . S
C618 C616 1.419 . S
C618 C619 1.363 . S
C618 H621 0.929 . S
C619 C618 1.363 . S
C619 C625 1.428 . S
H620 C616 0.930 . S
H621 C618 0.929 . S
S622 N623 1.613 . S
S622 N624 1.610 . S
N623 S622 1.613 . S
N623 C626 1.350 . S
N624 S622 1.610 . S
N624 C625 1.351 . S
C625 C619 1.428 . S
C625 N624 1.351 . S
C625 C626 1.434 . S
C626 C617 1.429 . S
C626 N623 1.350 . S
C626 C625 1.434 . S
C627 C628 1.369 . S
C627 C629 1.419 . S
C627 H631 0.930 . S
C628 C627 1.369 . S
C628 C637 1.429 . S
C629 C627 1.419 . S
C629 C630 1.363 . S
C629 H632 0.929 . S
C630 C629 1.363 . S
C630 C636 1.428 . S
H631 C627 0.930 . S
H632 C629 0.929 . S
S633 N634 1.613 . S
S633 N635 1.610 . S
N634 S633 1.613 . S
N634 C637 1.350 . S
N635 S633 1.610 . S
N635 C636 1.351 . S
C636 C630 1.428 . S
C636 N635 1.351 . S
C636 C637 1.434 . S
C637 C628 1.429 . S
C637 N634 1.350 . S
C637 C636 1.434 . S
C638 C639 1.369 . S
C638 C640 1.419 . S
C638 H642 0.930 . S
C639 C638 1.369 . S
C639 C648 1.429 . S
C640 C638 1.419 . S
C640 C641 1.363 . S
C640 H643 0.929 . S
C641 C640 1.363 . S
C641 C647 1.428 . S
H642 C638 0.930 . S
H643 C640 0.929 . S
S644 N645 1.613 . S
S644 N646 1.610 . S
N645 S644 1.613 . S
N645 C648 1.350 . S
N646 S644 1.610 . S
N646 C647 1.351 . S
C647 C641 1.428 . S
C647 N646 1.351 . S
C647 C648 1.434 . S
C648 C639 1.429 . S
C648 N645 1.350 . S
C648 C647 1.434 . S
C649 C650 1.369 . S
C649 C651 1.419 . S
C649 H653 0.930 . S
C650 C649 1.369 . S
C650 C659 1.429 . S
C651 C649 1.419 . S
C651 C652 1.363 . S
C651 H654 0.929 . S
C652 C651 1.363 . S
C652 C658 1.428 . S
H653 C649 0.930 . S
H654 C651 0.929 . S
S655 N656 1.613 . S
S655 N657 1.610 1_655 S
N656 S655 1.613 . S
N656 C659 1.350 1_655 S
N657 S655 1.610 1_455 S
N657 C658 1.351 . S
C658 C652 1.428 . S
C658 N657 1.351 . S
C658 C659 1.434 . S
C659 C650 1.429 . S
C659 N656 1.350 1_455 S
C659 C658 1.434 . S
C660 C661 1.369 . S
C660 C662 1.419 . S
C660 H664 0.930 . S
C661 C660 1.369 . S
C661 C670 1.429 . S
C662 C660 1.419 . S
C662 C663 1.363 . S
C662 H665 0.929 . S
C663 C662 1.363 . S
C663 C669 1.428 . S
H664 C660 0.930 . S
H665 C662 0.929 . S
S666 N667 1.613 . S
S666 N668 1.610 . S
N667 S666 1.613 . S
N667 C670 1.350 . S
N668 S666 1.610 . S
N668 C669 1.351 . S
C669 C663 1.428 . S
C669 N668 1.351 . S
C669 C670 1.434 . S
C670 C661 1.429 . S
C670 N667 1.350 . S
C670 C669 1.434 . S
C671 C672 1.369 . S
C671 C673 1.419 . S
C671 H675 0.930 . S
C672 C671 1.369 . S
C672 C681 1.429 . S
C673 C671 1.419 . S
C673 C674 1.363 . S
C673 H676 0.929 . S
C674 C673 1.363 . S
C674 C680 1.428 . S
H675 C671 0.930 . S
H676 C673 0.929 . S
S677 N678 1.613 . S
S677 N679 1.610 . S
N678 S677 1.613 . S
N678 C681 1.350 . S
N679 S677 1.610 . S
N679 C680 1.351 . S
C680 C674 1.428 . S
C680 N679 1.351 . S
C680 C681 1.434 . S
C681 C672 1.429 . S
C681 N678 1.350 . S
C681 C680 1.434 . S
C682 C683 1.369 . S
C682 C684 1.419 . S
C682 H686 0.930 1_455 S
C683 C682 1.369 . S
C683 C692 1.429 . S
C684 C682 1.419 . S
C684 C685 1.363 . S
C684 H687 0.929 1_455 S
C685 C684 1.363 . S
C685 C691 1.428 . S
H686 C682 0.930 1_655 S
H687 C684 0.929 1_655 S
S688 N689 1.613 . S
S688 N690 1.610 . S
N689 S688 1.613 . S
N689 C692 1.350 . S
N690 S688 1.610 . S
N690 C691 1.351 . S
C691 C685 1.428 . S
C691 N690 1.351 . S
C691 C692 1.434 . S
C692 C683 1.429 . S
C692 N689 1.350 . S
C692 C691 1.434 . S
C693 C694 1.369 . S
C693 C695 1.419 . S
C693 H697 0.930 . S
C694 C693 1.369 . S
C694 C703 1.429 . S
C695 C693 1.419 . S
C695 C696 1.363 . S
C695 H698 0.929 . S
C696 C695 1.363 . S
C696 C702 1.428 . S
H697 C693 0.930 . S
H698 C695 0.929 . S
S699 N700 1.613 . S
S699 N701 1.610 . S
N700 S699 1.613 . S
N700 C703 1.350 . S
N701 S699 1.610 . S
N701 C702 1.351 . S
C702 C696 1.428 . S
C702 N701 1.351 . S
C702 C703 1.434 . S
C703 C694 1.429 . S
C703 N700 1.350 . S
C703 C702 1.434 . S
C704 C705 1.369 . S
C704 C706 1.419 . S
C704 H708 0.930 . S
C705 C704 1.369 . S
C705 C714 1.429 . S
C706 C704 1.419 . S
C706 C707 1.363 . S
C706 H709 0.929 . S
C707 C706 1.363 . S
C707 C713 1.428 . S
H708 C704 0.930 . S
H709 C706 0.929 . S
S710 N711 1.613 . S
S710 N712 1.610 . S
N711 S710 1.613 . S
N711 C714 1.350 . S
N712 S710 1.610 . S
N712 C713 1.351 . S
C713 C707 1.428 . S
C713 N712 1.351 . S
C713 C714 1.434 . S
C714 C705 1.429 . S
C714 N711 1.350 . S
C714 C713 1.434 . S
C715 C716 1.369 . S
C715 C717 1.419 . S
C715 H719 0.930 . S
C716 C715 1.369 . S
C716 C725 1.429 . S
C717 C715 1.419 . S
C717 C718 1.363 . S
C717 H720 0.929 . S
C718 C717 1.363 . S
C718 C724 1.428 . S
H719 C715 0.930 . S
H720 C717 0.929 . S
S721 N722 1.613 . S
S721 N723 1.610 . S
N722 S721 1.613 . S
N722 C725 1.350 . S
N723 S721 1.610 . S
N723 C724 1.351 . S
C724 C718 1.428 . S
C724 N723 1.351 . S
C724 C725 1.434 . S
C725 C716 1.429 . S
C725 N722 1.350 . S
C725 C724 1.434 . S
C726 C727 1.369 1_545 S
C726 C728 1.419 . S
C726 H730 0.930 . S
C727 C726 1.369 1_565 S
C727 C736 1.429 . S
C728 C726 1.419 . S
C728 C729 1.363 1_545 S
C728 H731 0.929 . S
C729 C728 1.363 1_565 S
C729 C735 1.428 . S
H730 C726 0.930 . S
H731 C728 0.929 . S
S732 N733 1.613 . S
S732 N734 1.610 . S
N733 S732 1.613 . S
N733 C736 1.350 . S
N734 S732 1.610 . S
N734 C735 1.351 . S
C735 C729 1.428 . S
C735 N734 1.351 . S
C735 C736 1.434 . S
C736 C727 1.429 . S
C736 N733 1.350 . S
C736 C735 1.434 . S
C737 C738 1.369 . S
C737 C739 1.419 . S
C737 H741 0.930 1_655 S
C738 C737 1.369 . S
C738 C747 1.429 . S
C739 C737 1.419 . S
C739 C740 1.363 . S
C739 H742 0.929 . S
C740 C739 1.363 . S
C740 C746 1.428 . S
H741 C737 0.930 1_455 S
H742 C739 0.929 . S
S743 N744 1.613 . S
S743 N745 1.610 . S
N744 S743 1.613 . S
N744 C747 1.350 . S
N745 S743 1.610 . S
N745 C746 1.351 . S
C746 C740 1.428 . S
C746 N745 1.351 . S
C746 C747 1.434 . S
C747 C738 1.429 . S
C747 N744 1.350 . S
C747 C746 1.434 . S
C748 C749 1.369 . S
C748 C750 1.419 . S
C748 H752 0.930 . S
C749 C748 1.369 . S
C749 C758 1.429 . S
C750 C748 1.419 . S
C750 C751 1.363 . S
C750 H753 0.929 . S
C751 C750 1.363 . S
C751 C757 1.428 . S
H752 C748 0.930 . S
H753 C750 0.929 . S
S754 N755 1.631 . S
S754 N756 1.614 1_565 S
N755 S754 1.631 . S
N755 C758 1.350 . S
N756 S754 1.614 1_545 S
N756 C757 1.351 1_545 S
C757 C751 1.428 . S
C757 N756 1.351 1_565 S
C757 C758 1.434 . S
C758 C749 1.429 . S
C758 N755 1.350 . S
C758 C757 1.434 . S
C759 C760 1.369 . S
C759 C761 1.419 . S
C759 H763 0.930 . S
C760 C759 1.369 . S
C760 C769 1.429 . S
C761 C759 1.419 . S
C761 C762 1.363 . S
C761 H764 0.929 . S
C762 C761 1.363 . S
C762 C768 1.428 . S
H763 C759 0.930 . S
H764 C761 0.929 . S
S765 N766 1.613 . S
S765 N767 1.610 . S
N766 S765 1.613 . S
N766 C769 1.350 . S
N767 S765 1.610 . S
N767 C768 1.351 . S
C768 C762 1.428 . S
C768 N767 1.351 . S
C768 C769 1.434 . S
C769 C760 1.429 . S
C769 N766 1.350 . S
C769 C768 1.434 . S
C770 C771 1.369 . S
C770 C772 1.419 . S
C770 H774 0.930 . S
C771 C770 1.369 . S
C771 C780 1.429 . S
C772 C770 1.419 . S
C772 C773 1.363 . S
C772 H775 0.929 . S
C773 C772 1.363 . S
C773 C779 1.428 . S
H774 C770 0.930 . S
H775 C772 0.929 . S
S776 N777 1.613 . S
S776 N778 1.610 . S
N777 S776 1.613 . S
N777 C780 1.350 . S
N778 S776 1.610 . S
N778 C779 1.351 . S
C779 C773 1.428 . S
C779 N778 1.351 . S
C779 C780 1.434 . S
C780 C771 1.429 . S
C780 N777 1.350 . S
C780 C779 1.434 . S
C781 C782 1.369 . S
C781 C783 1.419 . S
C781 H785 0.930 . S
C782 C781 1.369 . S
C782 C791 1.429 . S
C783 C781 1.419 . S
C783 C784 1.363 . S
C783 H786 0.929 . S
C784 C783 1.363 . S
C784 C790 1.428 . S
H785 C781 0.930 . S
H786 C783 0.929 . S
S787 N788 1.613 . S
S787 N789 1.610 . S
N788 S787 1.613 . S
N788 C791 1.350 . S
N789 S787 1.610 . S
N789 C790 1.351 . S
C790 C784 1.428 . S
C790 N789 1.351 . S
C790 C791 1.434 . S
C791 C782 1.429 . S
C791 N788 1.350 . S
C791 C790 1.434 . S
C792 C793 1.369 . S
C792 C794 1.419 . S
C792 H796 0.930 . S
C793 C792 1.369 . S
C793 C802 1.429 . S
C794 C792 1.419 . S
C794 C795 1.363 . S
C794 H797 0.929 . S
C795 C794 1.363 . S
C795 C801 1.428 . S
H796 C792 0.930 . S
H797 C794 0.929 . S
S798 N799 1.613 . S
S798 N800 1.610 . S
N799 S798 1.613 . S
N799 C802 1.350 . S
N800 S798 1.610 . S
N800 C801 1.351 . S
C801 C795 1.428 . S
C801 N800 1.351 . S
C801 C802 1.434 . S
C802 C793 1.429 . S
C802 N799 1.350 . S
C802 C801 1.434 . S
C803 C804 1.369 . S
C803 C805 1.419 . S
C803 H807 0.930 . S
C804 C803 1.369 . S
C804 C813 1.429 . S
C805 C803 1.419 . S
C805 C806 1.363 . S
C805 H808 0.929 . S
C806 C805 1.363 . S
C806 C812 1.428 . S
H807 C803 0.930 . S
H808 C805 0.929 . S
S809 N810 1.613 . S
S809 N811 1.610 . S
N810 S809 1.613 . S
N810 C813 1.350 . S
N811 S809 1.610 . S
N811 C812 1.351 . S
C812 C806 1.428 . S
C812 N811 1.351 . S
C812 C813 1.434 . S
C813 C804 1.429 . S
C813 N810 1.350 . S
C813 C812 1.434 . S
C814 C815 1.369 . S
C814 C816 1.419 . S
C814 H818 0.930 . S
C815 C814 1.369 . S
C815 C824 1.429 . S
C816 C814 1.419 . S
C816 C817 1.363 . S
C816 H819 0.929 . S
C817 C816 1.363 . S
C817 C823 1.428 . S
H818 C814 0.930 . S
H819 C816 0.929 . S
S820 N821 1.613 . S
S820 N822 1.610 . S
N821 S820 1.613 . S
N821 C824 1.350 . S
N822 S820 1.610 . S
N822 C823 1.351 . S
C823 C817 1.428 . S
C823 N822 1.351 . S
C823 C824 1.434 . S
C824 C815 1.429 . S
C824 N821 1.350 . S
C824 C823 1.434 . S
C825 C826 1.369 . S
C825 C827 1.419 . S
C825 H829 0.930 . S
C826 C825 1.369 . S
C826 C835 1.429 . S
C827 C825 1.419 . S
C827 C828 1.363 . S
C827 H830 0.929 . S
C828 C827 1.363 . S
C828 C834 1.428 . S
H829 C825 0.930 . S
H830 C827 0.929 . S
S831 N832 1.613 . S
S831 N833 1.610 . S
N832 S831 1.613 . S
N832 C835 1.350 . S
N833 S831 1.610 . S
N833 C834 1.351 . S
C834 C828 1.428 . S
C834 N833 1.351 . S
C834 C835 1.434 . S
C835 C826 1.429 . S
C835 N832 1.350 . S
C835 C834 1.434 . S
C836 C837 1.369 . S
C836 C838 1.419 . S
C836 H840 0.930 . S
C837 C836 1.369 . S
C837 C846 1.429 . S
C838 C836 1.419 . S
C838 C839 1.363 . S
C838 H841 0.929 . S
C839 C838 1.363 . S
C839 C845 1.428 . S
H840 C836 0.930 . S
H841 C838 0.929 . S
S842 N843 1.613 . S
S842 N844 1.610 . S
N843 S842 1.613 . S
N843 C846 1.350 . S
N844 S842 1.610 . S
N844 C845 1.351 . S
C845 C839 1.428 . S
C845 N844 1.351 . S
C845 C846 1.434 . S
C846 C837 1.429 . S
C846 N843 1.350 . S
C846 C845 1.434 . S
C847 C848 1.369 . S
C847 C849 1.419 . S
C847 H851 0.930 . S
C848 C847 1.369 . S
C848 C857 1.429 . S
C849 C847 1.419 . S
C849 C850 1.363 . S
C849 H852 0.929 . S
C850 C849 1.363 . S
C850 C856 1.428 . S
H851 C847 0.930 . S
H852 C849 0.929 . S
S853 N854 1.613 . S
S853 N855 1.610 . S
N854 S853 1.613 . S
N854 C857 1.350 . S
N855 S853 1.610 . S
N855 C856 1.351 . S
C856 C850 1.428 . S
C856 N855 1.351 . S
C856 C857 1.434 . S
C857 C848 1.429 . S
C857 N854 1.350 . S
C857 C856 1.434 . S
C858 C859 1.369 . S
C858 C860 1.419 . S
C858 H862 0.930 . S
C859 C858 1.369 . S
C859 C868 1.429 . S
C860 C858 1.419 . S
C860 C861 1.363 . S
C860 H863 0.929 . S
C861 C860 1.363 . S
C861 C867 1.428 . S
H862 C858 0.930 . S
H863 C860 0.929 . S
S864 N865 1.613 . S
S864 N866 1.610 . S
N865 S864 1.613 . S
N865 C868 1.350 . S
N866 S864 1.610 . S
N866 C867 1.351 . S
C867 C861 1.428 . S
C867 N866 1.351 . S
C867 C868 1.434 . S
C868 C859 1.429 . S
C868 N865 1.350 . S
C868 C867 1.434 . S
C869 C870 1.369 . S
C869 C871 1.419 . S
C869 H873 0.930 . S
C870 C869 1.369 . S
C870 C879 1.429 . S
C871 C869 1.419 . S
C871 C872 1.363 . S
C871 H874 0.929 . S
C872 C871 1.363 . S
C872 C878 1.428 . S
H873 C869 0.930 . S
H874 C871 0.929 . S
S875 N876 1.613 . S
S875 N877 1.610 . S
N876 S875 1.613 . S
N876 C879 1.350 . S
N877 S875 1.610 . S
N877 C878 1.351 . S
C878 C872 1.428 . S
C878 N877 1.351 . S
C878 C879 1.434 . S
C879 C870 1.429 . S
C879 N876 1.350 . S
C879 C878 1.434 . S
C880 C881 1.369 . S
C880 C882 1.419 . S
C880 H884 0.930 . S
C881 C880 1.369 . S
C881 C890 1.429 . S
C882 C880 1.419 . S
C882 C883 1.363 . S
C882 H885 0.929 . S
C883 C882 1.363 . S
C883 C889 1.428 . S
H884 C880 0.930 . S
H885 C882 0.929 . S
S886 N887 1.613 . S
S886 N888 1.610 . S
N887 S886 1.613 . S
N887 C890 1.350 . S
N888 S886 1.610 . S
N888 C889 1.351 . S
C889 C883 1.428 . S
C889 N888 1.351 . S
C889 C890 1.434 . S
C890 C881 1.429 . S
C890 N887 1.350 . S
C890 C889 1.434 . S
C891 C892 1.369 . S
C891 C893 1.419 . S
C891 H895 0.930 . S
C892 C891 1.369 . S
C892 C901 1.429 . S
C893 C891 1.419 . S
C893 C894 1.363 . S
C893 H896 0.929 . S
C894 C893 1.363 . S
C894 C900 1.428 . S
H895 C891 0.930 . S
H896 C893 0.929 . S
S897 N898 1.613 . S
S897 N899 1.610 . S
N898 S897 1.613 . S
N898 C901 1.350 . S
N899 S897 1.610 . S
N899 C900 1.351 . S
C900 C894 1.428 . S
C900 N899 1.351 . S
C900 C901 1.434 . S
C901 C892 1.429 . S
C901 N898 1.350 . S
C901 C900 1.434 . S
C902 C903 1.369 . S
C902 C904 1.419 . S
C902 H906 0.930 . S
C903 C902 1.369 . S
C903 C912 1.429 . S
C904 C902 1.419 . S
C904 C905 1.363 . S
C904 H907 0.929 . S
C905 C904 1.363 . S
C905 C911 1.428 . S
H906 C902 0.930 . S
H907 C904 0.929 . S
S908 N909 1.613 . S
S908 N910 1.610 . S
N909 S908 1.613 . S
N909 C912 1.350 . S
N910 S908 1.610 . S
N910 C911 1.351 . S
C911 C905 1.428 . S
C911 N910 1.351 . S
C911 C912 1.434 . S
C912 C903 1.429 . S
C912 N909 1.350 . S
C912 C911 1.434 . S
C913 C914 1.369 . S
C913 C915 1.419 . S
C913 H917 0.930 . S
C914 C913 1.369 . S
C914 C923 1.429 . S
C915 C913 1.419 . S
C915 C916 1.363 . S
C915 H918 0.929 . S
C916 C915 1.363 . S
C916 C922 1.428 . S
H917 C913 0.930 . S
H918 C915 0.929 . S
S919 N920 1.613 . S
S919 N921 1.610 . S
N920 S919 1.613 . S
N920 C923 1.350 . S
N921 S919 1.610 . S
N921 C922 1.351 . S
C922 C916 1.428 . S
C922 N921 1.351 . S
C922 C923 1.434 . S
C923 C914 1.429 . S
C923 N920 1.350 . S
C923 C922 1.434 . S
C924 C925 1.369 . S
C924 C926 1.419 . S
C924 H928 0.930 . S
C925 C924 1.369 . S
C925 C934 1.429 . S
C926 C924 1.419 . S
C926 C927 1.363 . S
C926 H929 0.929 . S
C927 C926 1.363 . S
C927 C933 1.428 . S
H928 C924 0.930 . S
H929 C926 0.929 . S
S930 N931 1.613 . S
S930 N932 1.610 . S
N931 S930 1.613 . S
N931 C934 1.350 . S
N932 S930 1.610 . S
N932 C933 1.351 . S
C933 C927 1.428 . S
C933 N932 1.351 . S
C933 C934 1.434 . S
C934 C925 1.429 . S
C934 N931 1.350 . S
C934 C933 1.434 . S
C935 C936 1.369 . S
C935 C937 1.419 . S
C935 H939 0.930 . S
C936 C935 1.369 . S
C936 C945 1.429 . S
C937 C935 1.419 . S
C937 C938 1.363 . S
C937 H940 0.929 . S
C938 C937 1.363 . S
C938 C944 1.428 . S
H939 C935 0.930 . S
H940 C937 0.929 . S
S941 N942 1.613 . S
S941 N943 1.610 . S
N942 S941 1.613 . S
N942 C945 1.350 . S
N943 S941 1.610 . S
N943 C944 1.351 . S
C944 C938 1.428 . S
C944 N943 1.351 . S
C944 C945 1.434 . S
C945 C936 1.429 . S
C945 N942 1.350 . S
C945 C944 1.434 . S
C946 C947 1.369 . S
C946 C948 1.419 . S
C946 H950 0.930 . S
C947 C946 1.369 . S
C947 C956 1.429 . S
C948 C946 1.419 . S
C948 C949 1.363 . S
C948 H951 0.929 . S
C949 C948 1.363 . S
C949 C955 1.428 . S
H950 C946 0.930 . S
H951 C948 0.929 . S
S952 N953 1.613 . S
S952 N954 1.610 . S
N953 S952 1.613 . S
N953 C956 1.350 . S
N954 S952 1.610 . S
N954 C955 1.351 . S
C955 C949 1.428 . S
C955 N954 1.351 . S
C955 C956 1.434 . S
C956 C947 1.429 . S
C956 N953 1.350 . S
C956 C955 1.434 . S
C957 C958 1.369 . S
C957 C959 1.419 . S
C957 H961 0.930 . S
C958 C957 1.369 . S
C958 C967 1.429 . S
C959 C957 1.419 . S
C959 C960 1.363 . S
C959 H962 0.929 . S
C960 C959 1.363 . S
C960 C966 1.428 . S
H961 C957 0.930 . S
H962 C959 0.929 . S
S963 N964 1.613 . S
S963 N965 1.610 . S
N964 S963 1.613 . S
N964 C967 1.350 . S
N965 S963 1.610 . S
N965 C966 1.351 . S
C966 C960 1.428 . S
C966 N965 1.351 . S
C966 C967 1.434 . S
C967 C958 1.429 . S
C967 N964 1.350 . S
C967 C966 1.434 . S
C968 C969 1.369 . S
C968 C970 1.419 . S
C968 H972 0.930 . S
C969 C968 1.369 . S
C969 C978 1.429 . S
C970 C968 1.419 . S
C970 C971 1.363 . S
C970 H973 0.929 . S
C971 C970 1.363 . S
C971 C977 1.428 . S
H972 C968 0.930 . S
H973 C970 0.929 . S
S974 N975 1.613 . S
S974 N976 1.610 . S
N975 S974 1.613 . S
N975 C978 1.350 . S
N976 S974 1.610 . S
N976 C977 1.351 . S
C977 C971 1.428 . S
C977 N976 1.351 . S
C977 C978 1.434 . S
C978 C969 1.429 . S
C978 N975 1.350 . S
C978 C977 1.434 . S
C979 C980 1.369 . S
C979 C981 1.419 . S
C979 H983 0.930 . S
C980 C979 1.369 . S
C980 C989 1.429 . S
C981 C979 1.419 . S
C981 C982 1.363 . S
C981 H984 0.929 . S
C982 C981 1.363 . S
C982 C988 1.428 . S
H983 C979 0.930 . S
H984 C981 0.929 . S
S985 N986 1.613 . S
S985 N987 1.610 . S
N986 S985 1.613 . S
N986 C989 1.350 . S
N987 S985 1.610 . S
N987 C988 1.351 . S
C988 C982 1.428 . S
C988 N987 1.351 . S
C988 C989 1.434 . S
C989 C980 1.429 . S
C989 N986 1.350 . S
C989 C988 1.434 . S
C990 C991 1.369 . S
C990 C992 1.419 . S
C990 H994 0.930 . S
C991 C990 1.369 . S
C991 C1000 1.429 . S
C992 C990 1.419 . S
C992 C993 1.363 . S
C992 H995 0.929 . S
C993 C992 1.363 . S
C993 C999 1.428 . S
H994 C990 0.930 . S
H995 C992 0.929 . S
S996 N997 1.613 . S
S996 N998 1.610 . S
N997 S996 1.613 . S
N997 C1000 1.350 . S
N998 S996 1.610 . S
N998 C999 1.351 . S
C999 C993 1.428 . S
C999 N998 1.351 . S
C999 C1000 1.434 . S
C1000 C991 1.429 . S
C1000 N997 1.350 . S
C1000 C999 1.434 . S
C1001 C1002 1.369 . S
C1001 C1003 1.419 . S
C1001 H1005 0.930 . S
C1002 C1001 1.369 . S
C1002 C1011 1.429 . S
C1003 C1001 1.419 . S
C1003 C1004 1.363 . S
C1003 H1006 0.929 . S
C1004 C1003 1.363 . S
C1004 C1010 1.428 . S
H1005 C1001 0.930 . S
H1006 C1003 0.929 . S
S1007 N1008 1.613 . S
S1007 N1009 1.610 . S
N1008 S1007 1.613 . S
N1008 C1011 1.350 . S
N1009 S1007 1.610 . S
N1009 C1010 1.351 . S
C1010 C1004 1.428 . S
C1010 N1009 1.351 . S
C1010 C1011 1.434 . S
C1011 C1002 1.429 . S
C1011 N1008 1.350 . S
C1011 C1010 1.434 . S
C1012 C1013 1.369 . S
C1012 C1014 1.419 . S
C1012 H1016 0.930 . S
C1013 C1012 1.369 . S
C1013 C1022 1.429 . S
C1014 C1012 1.419 . S
C1014 C1015 1.363 . S
C1014 H1017 0.929 . S
C1015 C1014 1.363 . S
C1015 C1021 1.428 . S
H1016 C1012 0.930 . S
H1017 C1014 0.929 . S
S1018 N1019 1.613 . S
S1018 N1020 1.610 . S
N1019 S1018 1.613 . S
N1019 C1022 1.350 . S
N1020 S1018 1.610 . S
N1020 C1021 1.351 . S
C1021 C1015 1.428 . S
C1021 N1020 1.351 . S
C1021 C1022 1.434 . S
C1022 C1013 1.429 . S
C1022 N1019 1.350 . S
C1022 C1021 1.434 . S
C1023 C1024 1.369 . S
C1023 C1025 1.419 . S
C1023 H1027 0.930 . S
C1024 C1023 1.369 . S
C1024 C1033 1.429 . S
C1025 C1023 1.419 . S
C1025 C1026 1.363 . S
C1025 H1028 0.929 . S
C1026 C1025 1.363 . S
C1026 C1032 1.428 . S
H1027 C1023 0.930 . S
H1028 C1025 0.929 . S
S1029 N1030 1.613 . S
S1029 N1031 1.610 . S
N1030 S1029 1.613 . S
N1030 C1033 1.350 . S
N1031 S1029 1.610 . S
N1031 C1032 1.351 . S
C1032 C1026 1.428 . S
C1032 N1031 1.351 . S
C1032 C1033 1.434 . S
C1033 C1024 1.429 . S
C1033 N1030 1.350 . S
C1033 C1032 1.434 . S
C509 C331 1.732 . S
C507 C2 1.726 . S
C520 C321 0.553 . S
C518 C65 0.509 . S
C531 C322 1.423 . S
C529 C82 1.446 . S
C540 C145 0.773 . S
C542 C344 0.772 . S
C551 C164 0.637 . S
C553 C347 0.720 . S
C564 C330 1.393 . S
C562 C223 1.417 . S
C573 C244 0.998 . S
C575 C320 1.045 . S
C584 C282 1.693 . S
C586 C338 1.695 . S
C597 C351 3.202 . S
C595 C31 3.224 . S
C606 C60 1.968 . S
C608 C400 1.950 . S
C619 C378 3.330 . S
C617 C111 3.416 . S
C630 C392 1.576 . S
C628 C140 1.591 . S
C639 C162 1.630 . S
C641 C353 1.590 . S
C652 C406 1.385 . S
C650 C225 1.458 . S
C661 C242 2.074 . S
C663 C362 1.988 . S
C672 C311 2.456 . S
C674 C383 2.411 . S
C683 C4 1.079 . S
C685 C409 1.096 . S
C694 C191 1.312 . S
C696 C393 1.239 . S
C707 C352 2.951 . S
C705 C220 2.945 . S
C718 C384 1.015 . S
C716 C271 1.090 . S
C727 C284 1.564 . S
C729 C375 1.593 1_556 S
C738 C84 1.173 . S
C740 C382 1.214 . S
C751 C369 1.307 . S
C749 C143 1.320 . S
C760 C63 1.100 . S
C762 C361 1.087 . S
C771 C303 1.690 . S
C773 C424 1.693 . S
C782 C185 0.625 . S
C784 C414 0.729 . S
C795 C415 1.398 . S
C793 C202 1.421 . S
C806 C437 1.045 . S
C804 C265 0.999 . S
C815 C44 0.510 . S
C817 C440 0.553 . S
C828 C423 1.427 . S
C826 C103 1.451 . S
C837 C124 0.770 . S
C839 C413 0.773 . S
C848 C23 1.722 . S
C850 C431 1.732 . S
C859 C305 1.573 . S
C861 C444 1.604 . S
C872 C493 1.233 . S
C870 C180 1.318 . S
C881 C231 2.944 . S
C883 C471 2.947 . S
C892 C260 1.095 . S
C894 C485 1.007 . S
C905 C446 1.088 . S
C903 C42 1.097 . S
C914 C105 1.183 . S
C916 C499 1.208 . S
C927 C455 1.306 . S
C925 C122 1.319 . S
C938 C476 1.086 . S
C936 C25 1.094 . S
C949 C502 2.410 . S
C947 C300 2.460 . S
C958 C71 1.968 . S
C960 C486 1.950 . S
C969 C100 3.417 . S
C971 C445 3.330 . S
C982 C477 1.576 . S
C980 C151 1.592 . S
C991 C20 3.227 . S
C993 C468 3.204 . S
C1002 C204 1.456 . S
C1004 C475 1.381 . S
C1015 C462 1.986 . S
C1013 C263 2.072 . S
C1026 C454 1.597 . S
C1024 C183 1.623 . S
