# Generated by pormake.
# Topology nia, (6,6)-cn, num edge types: 1
# Building blocks:
#     Node 0, Type 0, BuildingBlock: CUKXOW_clean_sbu_0, # of connection points: 6
#     Node 1, Type 0, BuildingBlock: CUKXOW_clean_sbu_0, # of connection points: 6
#     Node 2, Type 1, BuildingBlock: MIDCAF_clean_sbu_0, # of connection points: 6
#     Node 3, Type 1, BuildingBlock: MIDCAF_clean_sbu_0, # of connection points: 6
#     Edge 4, Type (0, 1), BuildingBlock: XIVTED_clean_linker_0, # of connection points: 2
#     Edge 5, Type (0, 1), BuildingBlock: XIVTED_clean_linker_0, # of connection points: 2
#     Edge 6, Type (0, 1), BuildingBlock: XIVTED_clean_linker_0, # of connection points: 2
#     Edge 7, Type (0, 1), BuildingBlock: XIVTED_clean_linker_0, # of connection points: 2
#     Edge 8, Type (0, 1), BuildingBlock: XIVTED_clean_linker_0, # of connection points: 2
#     Edge 9, Type (0, 1), BuildingBlock: XIVTED_clean_linker_0, # of connection points: 2
#     Edge 10, Type (0, 1), BuildingBlock: XIVTED_clean_linker_0, # of connection points: 2
#     Edge 11, Type (0, 1), BuildingBlock: XIVTED_clean_linker_0, # of connection points: 2
#     Edge 12, Type (0, 1), BuildingBlock: XIVTED_clean_linker_0, # of connection points: 2
#     Edge 13, Type (0, 1), BuildingBlock: XIVTED_clean_linker_0, # of connection points: 2
#     Edge 14, Type (0, 1), BuildingBlock: XIVTED_clean_linker_0, # of connection points: 2
#     Edge 15, Type (0, 1), BuildingBlock: XIVTED_clean_linker_0, # of connection points: 2
# Relax obj value: 0.197
# Max RMSD: 0.253
# Mean RMSD: 0.209
data_MOF--net-nia--node1-CUKXOW_clean_sbu_0--node2-MIDCAF_clean_sbu_0--edge1-XIVTED_clean_linker_0
_symmetry_space_group_name_H-M    P1
_symmetry_Int_Tables_number       1
_symmetry_cell_setting            triclinic
loop_
_symmetry_equiv_pos_as_xyz
'x, y, z'
_cell_length_a     25.771871
_cell_length_b     25.774941
_cell_length_c     25.92858
_cell_angle_alpha  86.685916
_cell_angle_beta   86.462835
_cell_angle_gamma 125.55554
loop_
_atom_site_label
_atom_site_type_symbol
_atom_site_fract_x
_atom_site_fract_y
_atom_site_fract_z
_atom_type_partial_charge
Tb0 Tb -0.03082 0.03641 0.12875 0.0
C1 C 0.06373 0.03971 1.04655 0.0
Tb2 Tb 0.92248 0.91422 1.08335 0.0
O3 O 0.04231 0.03407 0.16407 0.0
O4 O -0.04586 0.94846 0.15523 0.0
O5 O 0.04867 0.07556 1.06791 0.0
C6 C 0.90521 0.81168 1.04639 0.0
O7 O 0.02416 -0.02392 1.05265 0.0
C8 C 0.87954 -0.0242 1.04395 0.0
C9 C 0.82737 0.91245 0.16436 0.0
O10 O 0.90776 0.85716 1.01954 0.0
O11 O 0.91212 0.82357 1.09441 0.0
O12 O 0.84827 0.91393 1.04849 0.0
O13 O 0.93536 0.00143 1.05702 0.0
O14 O 0.84215 0.87611 0.14349 0.0
O15 O 0.86741 -0.024 0.15833 0.0
C16 C -0.0127 0.13632 0.17142 0.0
O17 O -0.01965 0.12785 0.12269 0.0
O18 O -0.01584 0.08907 0.19541 0.0
C19 C 0.00896 -0.02795 0.16934 0.0
Tb20 Tb 0.88707 0.95522 0.58372 0.0
C21 C 0.88276 0.86033 0.66601 0.0
Tb22 Tb 0.00878 0.00087 0.62922 0.0
O23 O 0.88895 0.88171 0.54819 0.0
O24 O -0.02525 -0.03051 0.5573 0.0
O25 O 0.84732 0.8758 0.64465 0.0
C26 C 0.11009 0.01755 0.6679 0.0
O27 O -0.05359 0.8993 0.65962 0.0
C28 C -0.05164 0.04516 0.66869 0.0
C29 C 0.01197 0.09646 0.5481 0.0
O30 O 0.09964 0.01121 0.61954 0.0
O31 O 0.06391 0.01467 0.69398 0.0
O32 O 0.01011 0.07555 0.66414 0.0
O33 O 0.92197 -0.0108 0.65551 0.0
O34 O 0.04779 0.08108 0.56898 0.0
O35 O -0.05165 0.05692 0.55408 0.0
C36 C 0.78697 0.93753 0.54184 0.0
O37 O 0.79607 0.94493 0.5904 0.0
O38 O 0.83378 0.94002 0.51749 0.0
C39 C -0.04902 0.9147 0.54306 0.0
Zn40 Zn 0.24949 0.68951 0.25432 0.0
Zn41 Zn 0.23389 0.67303 0.4572 0.0
Zn42 Zn 0.2439 0.67875 0.35573 0.0
C43 C 0.36394 0.75386 0.42122 0.0
C44 C 0.1827 0.54915 0.43333 0.0
O45 O 0.2012 0.72819 0.32898 0.0
O46 O 0.22105 0.7449 0.24298 0.0
C47 C 0.37304 0.73885 0.2775 0.0
O48 O 0.34258 0.73366 0.37766 0.0
O49 O 0.32568 0.73739 0.46172 0.0
O50 O 0.19952 0.5814 0.47159 0.0
O51 O 0.19163 0.57645 0.38716 0.0
O52 O 0.34069 0.72251 0.23935 0.0
O53 O 0.346 0.73017 0.32381 0.0
O54 O 0.18831 0.58042 0.33327 0.0
O55 O 0.184 0.59803 0.24954 0.0
C56 C 0.16757 0.5595 0.28974 0.0
O57 O 0.19505 0.72188 0.38327 0.0
O58 O 0.17959 0.70271 0.46928 0.0
C59 C 0.198 0.7509 0.28461 0.0
C60 C 0.17309 0.72555 0.42791 0.0
Zn61 Zn 0.63574 0.257 0.95411 0.0
Zn62 Zn 0.66588 0.29068 0.75775 0.0
Zn63 Zn 0.64992 0.27547 0.85609 0.0
C64 C 0.70566 0.40847 0.78664 0.0
C65 C 0.53657 0.20181 0.78486 0.0
O66 O 0.6912 0.22416 0.8821 0.0
O67 O 0.64791 0.18843 0.96398 0.0
C68 C 0.72527 0.38687 0.92826 0.0
O69 O 0.70151 0.37979 0.83078 0.0
O70 O 0.6873 0.37802 0.74749 0.0
O71 O 0.57797 0.2188 0.7466 0.0
O72 O 0.55419 0.22226 0.82918 0.0
O73 O 0.70862 0.34452 0.96551 0.0
O74 O 0.70364 0.37058 0.88411 0.0
O75 O 0.54571 0.2223 0.88323 0.0
O76 O 0.54838 0.23529 0.96681 0.0
C77 C 0.51733 0.21698 0.92802 0.0
O78 O 0.70188 0.23585 0.82724 0.0
O79 O 0.7342 0.27859 0.7451 0.0
C80 C 0.68146 0.1906 0.92522 0.0
C81 C 0.73404 0.24573 0.78317 0.0
H82 H -0.05729 0.84161 0.18891 0.0
H83 H 0.22209 0.85814 0.32429 0.0
H84 H 0.12078 0.01998 0.21077 0.0
H85 H 0.09329 0.70597 0.23537 0.0
H86 H 0.16823 0.90976 0.30563 0.0
H87 H -0.01834 0.78303 0.22789 0.0
C88 C -0.01005 0.86833 0.20181 0.0
C89 C 0.02932 0.93555 0.19546 0.0
C90 C 0.15141 0.86464 0.29085 0.0
C91 C 0.07304 0.86933 0.24149 0.0
C92 C 0.18181 0.83531 0.30163 0.0
C93 C 0.16198 0.77838 0.28086 0.0
C94 C 0.10075 0.83607 0.25973 0.0
C95 C 0.10988 0.75023 0.25165 0.0
C96 C 0.01189 0.83501 0.22438 0.0
C97 C 0.08936 -0.03196 0.21433 0.0
N98 N 0.08105 0.77945 0.24179 0.0
N99 N 0.10958 0.9346 0.23639 0.0
H100 H 0.20748 0.01712 0.62058 0.0
H101 H 0.44306 0.21128 0.82576 0.0
H102 H 0.14355 0.05122 0.76396 0.0
H103 H 0.47794 0.10806 0.72106 0.0
H104 H 0.33298 0.15381 0.80376 0.0
H105 H 0.30794 0.05142 0.65538 0.0
C106 C 0.21449 0.03127 0.65952 0.0
C107 C 0.16786 0.03202 0.68939 0.0
C108 C 0.36427 0.14272 0.78639 0.0
C109 C 0.28194 0.07166 0.72901 0.0
C110 C 0.42669 0.17485 0.79951 0.0
C111 C 0.4686 0.16277 0.77641 0.0
C112 C 0.34465 0.09991 0.74856 0.0
C113 C 0.44657 0.1181 0.74008 0.0
C114 C 0.27151 0.05057 0.67941 0.0
C115 C 0.17872 0.0504 0.73967 0.0
N116 N 0.38614 0.08862 0.72684 0.0
N117 N 0.23511 0.07036 0.75772 0.0
H118 H 0.02401 0.16592 0.26744 0.0
H119 H 0.06548 0.49792 0.23535 0.0
H120 H -0.01677 0.23396 0.13079 0.0
H121 H 0.18 0.46702 0.32858 0.0
H122 H 0.0095 0.38808 0.21272 0.0
H123 H 0.05644 0.26394 0.30551 0.0
C124 C 0.02129 0.20131 0.24571 0.0
C125 C 0.00169 0.19259 0.19574 0.0
C126 C 0.046 0.40496 0.23894 0.0
C127 C 0.03789 0.30373 0.23913 0.0
C128 C 0.07767 0.46727 0.252 0.0
C129 C 0.1266 0.49075 0.28438 0.0
C130 C 0.06369 0.36614 0.25831 0.0
C131 C 0.14133 0.44984 0.30458 0.0
C132 C 0.03985 0.25705 0.26742 0.0
C133 C -0.00131 0.23945 0.16923 0.0
N134 N 0.11009 0.38928 0.291 0.0
N135 N 0.01686 0.29335 0.19126 0.0
H136 H 0.0067 0.16262 0.69995 0.0
H137 H 0.84994 0.30246 0.72783 0.0
H138 H 0.81827 -0.01072 0.69088 0.0
H139 H 0.69667 0.12466 0.81743 0.0
H140 H 0.90306 0.25269 0.70398 0.0
H141 H -0.04237 0.21149 0.73569 0.0
C142 C -0.04522 0.1348 0.70533 0.0
C143 C 0.9164 0.07211 0.69168 0.0
C144 C 0.8586 0.22484 0.7299 0.0
C145 C 0.8599 0.12864 0.73173 0.0
C146 C 0.82821 0.25317 0.74331 0.0
C147 C 0.76958 0.2178 0.77524 0.0
C148 C 0.82981 0.16028 0.74804 0.0
C149 C 0.74264 0.15371 0.79354 0.0
C150 C 0.92688 0.16298 0.72549 0.0
C151 C 0.84941 0.0381 0.70026 0.0
N152 N 0.7727 0.1265 0.77915 0.0
N153 N 0.82301 0.067 0.71971 0.0
H154 H 0.78626 -0.03164 0.22458 0.0
H155 H 0.41644 0.67834 0.23067 0.0
H156 H 0.71984 0.78896 0.16502 0.0
H157 H 0.4811 0.84982 0.30256 0.0
H158 H 0.52782 0.71594 0.21098 0.0
H159 H 0.67609 0.92339 0.25916 0.0
C160 C 0.74859 0.91922 0.21919 0.0
C161 C 0.76229 0.88254 0.19137 0.0
C162 C 0.51793 0.74527 0.23149 0.0
C163 C 0.63577 0.83102 0.23054 0.0
C164 C 0.45446 0.72391 0.24255 0.0
C165 C 0.44011 0.76102 0.26851 0.0
C166 C 0.5676 0.80481 0.24575 0.0
C167 C 0.4906 0.81973 0.2829 0.0
C168 C 0.68563 0.89362 0.23899 0.0
C169 C 0.71157 0.81905 0.18608 0.0
N170 N 0.55238 0.84008 0.2711 0.0
N171 N 0.65046 0.79555 0.20497 0.0
H172 H 0.75596 0.75694 0.67404 0.0
H173 H 0.81685 0.51405 0.81411 0.0
H174 H 0.93833 0.81631 0.72313 0.0
H175 H 0.64587 0.45514 0.74393 0.0
H176 H 0.85646 0.62679 0.79447 0.0
H177 H 0.70889 0.64769 0.71315 0.0
C178 C 0.78595 0.74726 0.69355 0.0
C179 C 0.85139 0.79578 0.69468 0.0
C180 C 0.80994 0.58912 0.78392 0.0
C181 C 0.79791 0.67069 0.73931 0.0
C182 C 0.78733 0.52502 0.79541 0.0
C183 C 0.72802 0.47579 0.78089 0.0
C184 C 0.77293 0.60357 0.75747 0.0
C185 C 0.69189 0.49205 0.75579 0.0
C186 C 0.7591 0.68479 0.71574 0.0
C187 C 0.88782 0.78031 0.72069 0.0
N188 N 0.71495 0.55452 0.74474 0.0
N189 N 0.86074 0.71906 0.7416 0.0
H190 H 0.08138 -0.01993 0.52497 0.0
H191 H 0.06709 0.7029 0.38704 0.0
H192 H 0.90322 0.80314 0.50085 0.0
H193 H 0.21624 0.82838 0.47957 0.0
H194 H 0.01516 0.7565 0.40602 0.0
H195 H 0.14012 0.94091 0.48647 0.0
C196 C 0.05473 0.93303 0.51165 0.0
C197 C -0.01251 0.89404 0.51722 0.0
C198 C 0.05969 0.77263 0.42154 0.0
C199 C 0.05398 0.85007 0.47176 0.0
C200 C 0.08922 0.7424 0.41058 0.0
C201 C 0.14539 0.76137 0.43221 0.0
C202 C 0.08735 0.82232 0.45369 0.0
C203 C 0.17258 0.81244 0.46258 0.0
C204 C 0.08816 0.91096 0.48938 0.0
C205 C -0.04485 0.83425 0.49788 0.0
N206 N 0.14323 0.84118 0.47255 0.0
N207 N -0.01128 0.8139 0.47609 0.0
H208 H 0.16734 0.16637 1.03845 0.0
H209 H 0.41187 0.10365 0.90351 0.0
H210 H 0.10844 -0.01674 0.99112 0.0
H211 H 0.46997 0.27674 0.97001 0.0
H212 H 0.2989 0.06345 0.92323 0.0
H213 H 0.27708 0.21277 1.00087 0.0
C214 C 0.17723 0.13607 1.01964 0.0
C215 C 0.12864 0.07063 1.01854 0.0
C216 C 0.33641 0.11048 0.93306 0.0
C217 C 0.25437 0.12336 0.97571 0.0
C218 C 0.40062 0.13335 0.92162 0.0
C219 C 0.44971 0.19358 0.93485 0.0
C220 C 0.32166 0.14811 0.95825 0.0
C221 C 0.43316 0.23007 0.95907 0.0
C222 C 0.24 0.16254 0.99833 0.0
C223 C 0.14444 0.0338 0.99346 0.0
N224 N 0.37056 0.20676 0.97007 0.0
N225 N 0.20598 0.06053 0.97342 0.0
H226 H 0.13684 0.2022 0.54544 0.0
H227 H 0.07274 0.44268 0.40524 0.0
H228 H -0.04351 0.13959 0.48995 0.0
H229 H 0.2396 0.50329 0.48253 0.0
H230 H 0.03473 0.3304 0.42467 0.0
H231 H 0.18155 0.31225 0.51024 0.0
C232 C 0.1069 0.21138 0.52526 0.0
C233 C 0.04263 0.16166 0.52117 0.0
C234 C 0.07987 0.36834 0.43707 0.0
C235 C 0.09326 0.28756 0.48117 0.0
C236 C 0.10148 0.43214 0.42583 0.0
C237 C 0.15938 0.48169 0.44205 0.0
C238 C 0.11649 0.35454 0.46491 0.0
C239 C 0.19465 0.46607 0.46936 0.0
C240 C 0.13233 0.2743 0.5054 0.0
C241 C 0.0061 0.17652 0.49457 0.0
N242 N 0.1727 0.40388 0.47993 0.0
N243 N 0.03177 0.23815 0.47592 0.0
H244 H 0.75616 0.92119 1.03017 0.0
H245 H 0.8047 0.2336 0.89187 0.0
H246 H -0.05785 0.1043 1.0084 0.0
H247 H 0.62671 0.07254 0.97574 0.0
H248 H 0.85695 0.18201 0.91683 0.0
H249 H 0.70939 -0.02811 0.99339 0.0
C250 C 0.78726 -0.02772 1.01751 0.0
C251 C 0.85305 0.00876 1.02244 0.0
C252 C 0.80635 0.15793 0.92921 0.0
C253 C 0.79963 0.06718 0.97991 0.0
C254 C 0.77648 0.18683 0.91455 0.0
C255 C 0.71139 0.15684 0.93168 0.0
C256 C 0.77035 0.09858 0.96054 0.0
C257 C 0.67697 0.097 0.96172 0.0
C258 C 0.76045 0.00117 0.99653 0.0
C259 C 0.89107 0.07474 1.00546 0.0
N260 N 0.70683 0.06985 0.97515 0.0
N261 N 0.86374 0.10209 0.98472 0.0
H262 H 0.69065 0.94309 0.58353 0.0
H263 H 0.45619 0.74205 0.37979 0.0
H264 H 0.75496 0.8986 0.44666 0.0
H265 H 0.42607 0.85415 0.47747 0.0
H266 H 0.56672 0.79949 0.40168 0.0
H267 H 0.59257 0.91015 0.54528 0.0
C268 C 0.68418 0.92684 0.54528 0.0
C269 C 0.73026 0.92295 0.51827 0.0
C270 C 0.53632 0.81247 0.4174 0.0
C271 C 0.61875 0.88479 0.47464 0.0
C272 C 0.47368 0.78024 0.40444 0.0
C273 C 0.43284 0.79439 0.42621 0.0
C274 C 0.55703 0.85753 0.45353 0.0
C275 C 0.4565 0.84218 0.45982 0.0
C276 C 0.62854 0.90835 0.52336 0.0
C277 C 0.72015 0.90194 0.46874 0.0
N278 N 0.51686 0.87156 0.47299 0.0
N279 N 0.66495 0.88275 0.44872 0.0
H280 H 0.90475 0.71555 1.09665 0.0
H281 H 0.82571 0.44354 0.98541 0.0
H282 H 0.87396 0.77597 0.95015 0.0
H283 H 0.71387 0.48169 0.89544 0.0
H284 H 0.8831 0.55197 1.01136 0.0
H285 H 0.87262 0.61488 1.06405 0.0
C286 C 0.89219 0.70786 1.05731 0.0
C287 C 0.89171 0.75362 1.02599 0.0
C288 C 0.84613 0.53676 0.98588 0.0
C289 C 0.85592 0.63956 0.98809 0.0
C290 C 0.81392 0.47527 0.97067 0.0
C291 C 0.76573 0.45439 0.93783 0.0
C292 C 0.82906 0.57701 0.9687 0.0
C293 C 0.75191 0.49683 0.91977 0.0
C294 C 0.87448 0.65075 1.03847 0.0
C295 C 0.87483 0.74161 0.97543 0.0
N296 N 0.78338 0.55629 0.93559 0.0
N297 N 0.8567 0.68522 0.95824 0.0
loop_
_geom_bond_atom_site_label_1
_geom_bond_atom_site_label_2
_geom_bond_distance
_geom_bond_site_symmetry_2
_ccdc_geom_bond_type
Tb0 O3 2.453 1_545 S
Tb0 O4 2.596 1_545 S
Tb0 O5 2.354 1_554 S
Tb0 O13 2.343 1_454 S
Tb0 O15 2.353 1_455 S
Tb0 O17 2.427 . S
Tb0 O18 2.513 . S
C1 O5 1.273 . S
C1 O7 1.263 . S
Tb2 O4 2.343 1_656 S
Tb2 O7 2.353 1_665 S
Tb2 O10 2.427 . S
Tb2 O11 2.513 . S
Tb2 O12 2.453 1_565 S
Tb2 O13 2.596 1_565 S
Tb2 O14 2.374 1_556 S
O3 Tb0 2.453 1_565 S
O3 C19 1.245 . S
O4 Tb0 2.596 1_565 S
O4 Tb2 2.343 1_454 S
O4 C19 1.259 . S
O5 Tb0 2.354 1_556 S
O5 C1 1.273 . S
C6 O10 1.275 . S
C6 O11 1.246 . S
O7 C1 1.263 . S
O7 Tb2 2.353 1_445 S
C8 O12 1.245 . S
C8 O13 1.259 . S
C9 O14 1.250 . S
C9 O15 1.263 1_565 S
O10 Tb2 2.427 . S
O10 C6 1.275 . S
O11 Tb2 2.513 . S
O11 C6 1.246 . S
O12 Tb2 2.453 1_545 S
O12 C8 1.245 . S
O13 Tb0 2.343 1_656 S
O13 Tb2 2.596 1_545 S
O13 C8 1.259 . S
O14 Tb2 2.374 1_554 S
O14 C9 1.250 . S
O15 Tb0 2.353 1_655 S
O15 C9 1.263 1_545 S
C16 O17 1.275 . S
C16 O18 1.246 . S
O17 Tb0 2.427 . S
O17 C16 1.275 . S
O18 Tb0 2.513 . S
O18 C16 1.246 . S
C19 O3 1.245 . S
C19 O4 1.259 . S
Tb20 O23 2.453 1_655 S
Tb20 O24 2.596 1_665 S
Tb20 O25 2.374 . S
Tb20 O33 2.343 1_565 S
Tb20 O35 2.353 1_665 S
Tb20 O37 2.427 1_565 S
Tb20 O38 2.513 . S
C21 O25 1.251 . S
C21 O27 1.263 . S
Tb22 O24 2.343 . S
Tb22 O27 2.353 1_445 S
Tb22 O30 2.427 . S
Tb22 O31 2.513 . S
Tb22 O32 2.453 1_455 S
Tb22 O33 2.596 1_455 S
Tb22 O34 2.374 . S
O23 Tb20 2.453 1_455 S
O23 C39 1.245 . S
O24 Tb20 2.596 1_445 S
O24 Tb22 2.343 . S
O24 C39 1.259 1_545 S
O25 Tb20 2.374 . S
O25 C21 1.251 . S
C26 O30 1.275 . S
C26 O31 1.246 . S
O27 C21 1.263 . S
O27 Tb22 2.353 1_665 S
C28 O32 1.245 . S
C28 O33 1.259 . S
C29 O34 1.250 . S
C29 O35 1.263 . S
O30 Tb22 2.427 . S
O30 C26 1.275 . S
O31 Tb22 2.513 . S
O31 C26 1.246 . S
O32 Tb22 2.453 1_655 S
O32 C28 1.245 . S
O33 Tb20 2.343 1_545 S
O33 Tb22 2.596 1_655 S
O33 C28 1.259 . S
O34 Tb22 2.374 . S
O34 C29 1.250 . S
O35 Tb20 2.353 1_445 S
O35 C29 1.263 . S
C36 O37 1.275 1_565 S
C36 O38 1.246 . S
O37 Tb20 2.427 1_545 S
O37 C36 1.275 1_545 S
O38 Tb20 2.513 . S
O38 C36 1.246 . S
C39 O23 1.245 . S
C39 O24 1.259 1_565 S
Zn40 O46 1.920 . S
Zn40 O52 1.898 . S
Zn40 O55 1.905 . S
Zn41 O49 1.905 . S
Zn41 O50 1.898 . S
Zn41 O58 1.920 . S
Zn42 O45 2.080 . S
Zn42 O48 2.114 . S
Zn42 O51 2.120 . S
Zn42 O53 2.120 . S
Zn42 O54 2.114 . S
Zn42 O57 2.080 . S
C43 O48 1.166 . S
C43 O49 1.182 . S
C44 O50 1.167 . S
C44 O51 1.299 . S
O45 Zn42 2.080 . S
O45 C59 1.305 . S
O46 Zn40 1.920 . S
O46 C59 1.234 . S
C47 O52 1.167 . S
C47 O53 1.299 . S
O48 Zn42 2.114 . S
O48 C43 1.166 . S
O49 Zn41 1.905 . S
O49 C43 1.182 . S
O50 Zn41 1.898 . S
O50 C44 1.167 . S
O51 Zn42 2.120 . S
O51 C44 1.299 . S
O52 Zn40 1.898 . S
O52 C47 1.167 . S
O53 Zn42 2.120 . S
O53 C47 1.299 . S
O54 Zn42 2.114 . S
O54 C56 1.166 . S
O55 Zn40 1.905 . S
O55 C56 1.182 . S
C56 O54 1.166 . S
C56 O55 1.182 . S
O57 Zn42 2.080 . S
O57 C60 1.305 . S
O58 Zn41 1.920 . S
O58 C60 1.234 . S
C59 O45 1.305 . S
C59 O46 1.234 . S
C60 O57 1.305 . S
C60 O58 1.234 . S
Zn61 O67 1.920 . S
Zn61 O73 1.898 . S
Zn61 O76 1.905 . S
Zn62 O70 1.905 . S
Zn62 O71 1.898 . S
Zn62 O79 1.920 . S
Zn63 O66 2.080 . S
Zn63 O69 2.114 . S
Zn63 O72 2.120 . S
Zn63 O74 2.120 . S
Zn63 O75 2.114 . S
Zn63 O78 2.080 . S
C64 O69 1.166 . S
C64 O70 1.182 . S
C65 O71 1.167 . S
C65 O72 1.299 . S
O66 Zn63 2.080 . S
O66 C80 1.305 . S
O67 Zn61 1.920 . S
O67 C80 1.234 . S
C68 O73 1.167 . S
C68 O74 1.299 . S
O69 Zn63 2.114 . S
O69 C64 1.166 . S
O70 Zn62 1.905 . S
O70 C64 1.182 . S
O71 Zn62 1.898 . S
O71 C65 1.167 . S
O72 Zn63 2.120 . S
O72 C65 1.299 . S
O73 Zn61 1.898 . S
O73 C68 1.167 . S
O74 Zn63 2.120 . S
O74 C68 1.299 . S
O75 Zn63 2.114 . S
O75 C77 1.166 . S
O76 Zn61 1.905 . S
O76 C77 1.182 . S
C77 O75 1.166 . S
C77 O76 1.182 . S
O78 Zn63 2.080 . S
O78 C81 1.305 . S
O79 Zn62 1.920 . S
O79 C81 1.234 . S
C80 O66 1.305 . S
C80 O67 1.234 . S
C81 O78 1.305 . S
C81 O79 1.234 . S
H82 C88 0.930 1_655 S
H83 C92 0.930 . S
H84 C97 0.929 . S
H85 C95 0.929 . S
H86 C90 0.929 . S
H87 C96 0.929 . S
C88 H82 0.930 1_455 S
C88 C89 1.367 . S
C88 C96 1.378 . S
C89 C88 1.367 . S
C89 C97 1.433 . S
C90 H86 0.929 . S
C90 C92 1.378 . S
C90 C94 1.350 . S
C91 C94 1.463 . S
C91 C96 1.350 . S
C91 N99 1.427 . S
C92 H83 0.930 . S
C92 C90 1.378 . S
C92 C93 1.367 . S
C93 C92 1.367 . S
C93 C95 1.433 . S
C94 C90 1.350 . S
C94 C91 1.463 . S
C94 N98 1.427 . S
C95 H85 0.929 . S
C95 C93 1.433 . S
C95 N98 1.384 . S
C96 H87 0.929 . S
C96 C88 1.378 . S
C96 C91 1.350 . S
C97 H84 0.929 . S
C97 C89 1.433 . S
C97 N99 1.384 . S
N98 C94 1.427 . S
N98 C95 1.384 . S
N99 C91 1.427 . S
N99 C97 1.384 . S
H100 C106 0.930 . S
H101 C110 0.930 . S
H102 C115 0.929 . S
H103 C113 0.929 . S
H104 C108 0.929 . S
H105 C114 0.929 . S
C106 H100 0.930 . S
C106 C107 1.367 . S
C106 C114 1.378 . S
C107 C106 1.367 . S
C107 C115 1.433 . S
C108 H104 0.929 . S
C108 C110 1.378 . S
C108 C112 1.350 . S
C109 C112 1.463 . S
C109 C114 1.350 . S
C109 N117 1.427 . S
C110 H101 0.930 . S
C110 C108 1.378 . S
C110 C111 1.367 . S
C111 C110 1.367 . S
C111 C113 1.433 . S
C112 C108 1.350 . S
C112 C109 1.463 . S
C112 N116 1.427 . S
C113 H103 0.929 . S
C113 C111 1.433 . S
C113 N116 1.384 . S
C114 H105 0.929 . S
C114 C106 1.378 . S
C114 C109 1.350 . S
C115 H102 0.929 . S
C115 C107 1.433 . S
C115 N117 1.384 . S
N116 C112 1.427 . S
N116 C113 1.384 . S
N117 C109 1.427 . S
N117 C115 1.384 . S
H118 C124 0.930 . S
H119 C128 0.930 . S
H120 C133 0.929 . S
H121 C131 0.929 . S
H122 C126 0.929 . S
H123 C132 0.929 . S
C124 H118 0.930 . S
C124 C125 1.367 . S
C124 C132 1.378 . S
C125 C124 1.367 . S
C125 C133 1.433 . S
C126 H122 0.929 . S
C126 C128 1.378 . S
C126 C130 1.350 . S
C127 C130 1.463 . S
C127 C132 1.350 . S
C127 N135 1.427 . S
C128 H119 0.930 . S
C128 C126 1.378 . S
C128 C129 1.367 . S
C129 C128 1.367 . S
C129 C131 1.433 . S
C130 C126 1.350 . S
C130 C127 1.463 . S
C130 N134 1.427 . S
C131 H121 0.929 . S
C131 C129 1.433 . S
C131 N134 1.384 . S
C132 H123 0.929 . S
C132 C124 1.378 . S
C132 C127 1.350 . S
C133 H120 0.929 . S
C133 C125 1.433 . S
C133 N135 1.384 . S
N134 C130 1.427 . S
N134 C131 1.384 . S
N135 C127 1.427 . S
N135 C133 1.384 . S
H136 C142 0.930 . S
H137 C146 0.930 . S
H138 C151 0.929 . S
H139 C149 0.929 . S
H140 C144 0.929 . S
H141 C150 0.929 . S
C142 H136 0.930 . S
C142 C143 1.367 . S
C142 C150 1.378 . S
C143 C142 1.367 . S
C143 C151 1.433 . S
C144 H140 0.929 . S
C144 C146 1.378 . S
C144 C148 1.350 . S
C145 C148 1.463 . S
C145 C150 1.350 . S
C145 N153 1.427 . S
C146 H137 0.930 . S
C146 C144 1.378 . S
C146 C147 1.367 . S
C147 C146 1.367 . S
C147 C149 1.433 . S
C148 C144 1.350 . S
C148 C145 1.463 . S
C148 N152 1.427 . S
C149 H139 0.929 . S
C149 C147 1.433 . S
C149 N152 1.384 . S
C150 H141 0.929 . S
C150 C142 1.378 . S
C150 C145 1.350 . S
C151 H138 0.929 . S
C151 C143 1.433 . S
C151 N153 1.384 . S
N152 C148 1.427 . S
N152 C149 1.384 . S
N153 C145 1.427 . S
N153 C151 1.384 . S
H154 C160 0.930 . S
H155 C164 0.930 . S
H156 C169 0.929 . S
H157 C167 0.929 . S
H158 C162 0.929 . S
H159 C168 0.929 . S
C160 H154 0.930 . S
C160 C161 1.367 . S
C160 C168 1.378 . S
C161 C160 1.367 . S
C161 C169 1.433 . S
C162 H158 0.929 . S
C162 C164 1.378 . S
C162 C166 1.350 . S
C163 C166 1.463 . S
C163 C168 1.350 . S
C163 N171 1.427 . S
C164 H155 0.930 . S
C164 C162 1.378 . S
C164 C165 1.367 . S
C165 C164 1.367 . S
C165 C167 1.433 . S
C166 C162 1.350 . S
C166 C163 1.463 . S
C166 N170 1.427 . S
C167 H157 0.929 . S
C167 C165 1.433 . S
C167 N170 1.384 . S
C168 H159 0.929 . S
C168 C160 1.378 . S
C168 C163 1.350 . S
C169 H156 0.929 . S
C169 C161 1.433 . S
C169 N171 1.384 . S
N170 C166 1.427 . S
N170 C167 1.384 . S
N171 C163 1.427 . S
N171 C169 1.384 . S
H172 C178 0.930 . S
H173 C182 0.930 . S
H174 C187 0.929 . S
H175 C185 0.929 . S
H176 C180 0.929 . S
H177 C186 0.929 . S
C178 H172 0.930 . S
C178 C179 1.367 . S
C178 C186 1.378 . S
C179 C178 1.367 . S
C179 C187 1.433 . S
C180 H176 0.929 . S
C180 C182 1.378 . S
C180 C184 1.350 . S
C181 C184 1.463 . S
C181 C186 1.350 . S
C181 N189 1.427 . S
C182 H173 0.930 . S
C182 C180 1.378 . S
C182 C183 1.367 . S
C183 C182 1.367 . S
C183 C185 1.433 . S
C184 C180 1.350 . S
C184 C181 1.463 . S
C184 N188 1.427 . S
C185 H175 0.929 . S
C185 C183 1.433 . S
C185 N188 1.384 . S
C186 H177 0.929 . S
C186 C178 1.378 . S
C186 C181 1.350 . S
C187 H174 0.929 . S
C187 C179 1.433 . S
C187 N189 1.384 . S
N188 C184 1.427 . S
N188 C185 1.384 . S
N189 C181 1.427 . S
N189 C187 1.384 . S
H190 C196 0.930 . S
H191 C200 0.930 . S
H192 C205 0.929 . S
H193 C203 0.929 . S
H194 C198 0.929 . S
H195 C204 0.929 1_545 S
C196 H190 0.930 . S
C196 C197 1.367 1_545 S
C196 C204 1.378 1_545 S
C197 C196 1.367 1_565 S
C197 C205 1.433 . S
C198 H194 0.929 . S
C198 C200 1.378 . S
C198 C202 1.350 . S
C199 C202 1.463 . S
C199 C204 1.350 . S
C199 N207 1.427 . S
C200 H191 0.930 . S
C200 C198 1.378 . S
C200 C201 1.367 . S
C201 C200 1.367 . S
C201 C203 1.433 . S
C202 C198 1.350 . S
C202 C199 1.463 . S
C202 N206 1.427 . S
C203 H193 0.929 . S
C203 C201 1.433 . S
C203 N206 1.384 . S
C204 H195 0.929 1_565 S
C204 C196 1.378 1_565 S
C204 C199 1.350 . S
C205 H192 0.929 . S
C205 C197 1.433 . S
C205 N207 1.384 . S
N206 C202 1.427 . S
N206 C203 1.384 . S
N207 C199 1.427 . S
N207 C205 1.384 . S
H208 C214 0.930 . S
H209 C218 0.930 . S
H210 C223 0.929 . S
H211 C221 0.929 . S
H212 C216 0.929 . S
H213 C222 0.929 . S
C214 H208 0.930 . S
C214 C215 1.367 . S
C214 C222 1.378 . S
C215 C214 1.367 . S
C215 C223 1.433 . S
C216 H212 0.929 . S
C216 C218 1.378 . S
C216 C220 1.350 . S
C217 C220 1.463 . S
C217 C222 1.350 . S
C217 N225 1.427 . S
C218 H209 0.930 . S
C218 C216 1.378 . S
C218 C219 1.367 . S
C219 C218 1.367 . S
C219 C221 1.433 . S
C220 C216 1.350 . S
C220 C217 1.463 . S
C220 N224 1.427 . S
C221 H211 0.929 . S
C221 C219 1.433 . S
C221 N224 1.384 . S
C222 H213 0.929 . S
C222 C214 1.378 . S
C222 C217 1.350 . S
C223 H210 0.929 . S
C223 C215 1.433 . S
C223 N225 1.384 . S
N224 C220 1.427 . S
N224 C221 1.384 . S
N225 C217 1.427 . S
N225 C223 1.384 . S
H226 C232 0.930 . S
H227 C236 0.930 . S
H228 C241 0.929 . S
H229 C239 0.929 . S
H230 C234 0.929 . S
H231 C240 0.929 . S
C232 H226 0.930 . S
C232 C233 1.367 . S
C232 C240 1.378 . S
C233 C232 1.367 . S
C233 C241 1.433 . S
C234 H230 0.929 . S
C234 C236 1.378 . S
C234 C238 1.350 . S
C235 C238 1.463 . S
C235 C240 1.350 . S
C235 N243 1.427 . S
C236 H227 0.930 . S
C236 C234 1.378 . S
C236 C237 1.367 . S
C237 C236 1.367 . S
C237 C239 1.433 . S
C238 C234 1.350 . S
C238 C235 1.463 . S
C238 N242 1.427 . S
C239 H229 0.929 . S
C239 C237 1.433 . S
C239 N242 1.384 . S
C240 H231 0.929 . S
C240 C232 1.378 . S
C240 C235 1.350 . S
C241 H228 0.929 . S
C241 C233 1.433 . S
C241 N243 1.384 . S
N242 C238 1.427 . S
N242 C239 1.384 . S
N243 C235 1.427 . S
N243 C241 1.384 . S
H244 C250 0.930 . S
H245 C254 0.930 . S
H246 C259 0.929 1_455 S
H247 C257 0.929 . S
H248 C252 0.929 . S
H249 C258 0.929 . S
C250 H244 0.930 . S
C250 C251 1.367 . S
C250 C258 1.378 . S
C251 C250 1.367 . S
C251 C259 1.433 . S
C252 H248 0.929 . S
C252 C254 1.378 . S
C252 C256 1.350 . S
C253 C256 1.463 . S
C253 C258 1.350 . S
C253 N261 1.427 . S
C254 H245 0.930 . S
C254 C252 1.378 . S
C254 C255 1.367 . S
C255 C254 1.367 . S
C255 C257 1.433 . S
C256 C252 1.350 . S
C256 C253 1.463 . S
C256 N260 1.427 . S
C257 H247 0.929 . S
C257 C255 1.433 . S
C257 N260 1.384 . S
C258 H249 0.929 . S
C258 C250 1.378 . S
C258 C253 1.350 . S
C259 H246 0.929 1_655 S
C259 C251 1.433 . S
C259 N261 1.384 . S
N260 C256 1.427 . S
N260 C257 1.384 . S
N261 C253 1.427 . S
N261 C259 1.384 . S
H262 C268 0.930 1_545 S
H263 C272 0.930 . S
H264 C277 0.929 . S
H265 C275 0.929 . S
H266 C270 0.929 . S
H267 C276 0.929 . S
C268 H262 0.930 1_565 S
C268 C269 1.367 . S
C268 C276 1.378 . S
C269 C268 1.367 . S
C269 C277 1.433 . S
C270 H266 0.929 . S
C270 C272 1.378 . S
C270 C274 1.350 . S
C271 C274 1.463 . S
C271 C276 1.350 . S
C271 N279 1.427 . S
C272 H263 0.930 . S
C272 C270 1.378 . S
C272 C273 1.367 . S
C273 C272 1.367 . S
C273 C275 1.433 . S
C274 C270 1.350 . S
C274 C271 1.463 . S
C274 N278 1.427 . S
C275 H265 0.929 . S
C275 C273 1.433 . S
C275 N278 1.384 . S
C276 H267 0.929 . S
C276 C268 1.378 . S
C276 C271 1.350 . S
C277 H264 0.929 . S
C277 C269 1.433 . S
C277 N279 1.384 . S
N278 C274 1.427 . S
N278 C275 1.384 . S
N279 C271 1.427 . S
N279 C277 1.384 . S
H280 C286 0.930 . S
H281 C290 0.930 . S
H282 C295 0.929 1_455 S
H283 C293 0.929 . S
H284 C288 0.929 . S
H285 C294 0.929 . S
C286 H280 0.930 . S
C286 C287 1.367 . S
C286 C294 1.378 . S
C287 C286 1.367 . S
C287 C295 1.433 . S
C288 H284 0.929 . S
C288 C290 1.378 . S
C288 C292 1.350 . S
C289 C292 1.463 . S
C289 C294 1.350 . S
C289 N297 1.427 . S
C290 H281 0.930 . S
C290 C288 1.378 . S
C290 C291 1.367 . S
C291 C290 1.367 . S
C291 C293 1.433 . S
C292 C288 1.350 . S
C292 C289 1.463 . S
C292 N296 1.427 . S
C293 H283 0.929 . S
C293 C291 1.433 . S
C293 N296 1.384 . S
C294 H285 0.929 . S
C294 C286 1.378 . S
C294 C289 1.350 . S
C295 H282 0.929 1_655 S
C295 C287 1.433 . S
C295 N297 1.384 . S
N296 C292 1.427 . S
N296 C293 1.384 . S
N297 C289 1.427 . S
N297 C295 1.384 . S
C89 C19 1.486 . S
C93 C59 1.443 . S
C107 C26 1.268 . S
C111 C65 1.177 . S
C125 C16 1.197 . S
C129 C56 1.173 . S
C143 C28 1.527 . S
C147 C81 1.503 . S
C161 C9 1.826 . S
C165 C47 1.661 . S
C183 C64 1.571 . S
C179 C21 1.662 . S
C197 C39 1.487 . S
C201 C60 1.444 . S
C219 C77 1.588 . S
C215 C1 1.666 . S
C237 C44 1.679 . S
C233 C29 1.826 . S
C255 C80 1.512 . S
C251 C8 1.534 . S
C273 C43 1.176 . S
C269 C36 1.211 . S
C291 C68 1.196 . S
C287 C6 1.262 . S
