# Generated by pormake.
# Topology nia, (6,6)-cn, num edge types: 1
# Building blocks:
#     Node 0, Type 0, BuildingBlock: KUMJIN_clean_sbu_0, # of connection points: 6
#     Node 1, Type 0, BuildingBlock: KUMJIN_clean_sbu_0, # of connection points: 6
#     Node 2, Type 1, BuildingBlock: MIDCAF_clean_sbu_0, # of connection points: 6
#     Node 3, Type 1, BuildingBlock: MIDCAF_clean_sbu_0, # of connection points: 6
#     Edge 4, Type (0, 1), BuildingBlock: EZIPEK_clean_linker_0, # of connection points: 2
#     Edge 5, Type (0, 1), BuildingBlock: EZIPEK_clean_linker_0, # of connection points: 2
#     Edge 6, Type (0, 1), BuildingBlock: EZIPEK_clean_linker_0, # of connection points: 2
#     Edge 7, Type (0, 1), BuildingBlock: EZIPEK_clean_linker_0, # of connection points: 2
#     Edge 8, Type (0, 1), BuildingBlock: EZIPEK_clean_linker_0, # of connection points: 2
#     Edge 9, Type (0, 1), BuildingBlock: EZIPEK_clean_linker_0, # of connection points: 2
#     Edge 10, Type (0, 1), BuildingBlock: EZIPEK_clean_linker_0, # of connection points: 2
#     Edge 11, Type (0, 1), BuildingBlock: EZIPEK_clean_linker_0, # of connection points: 2
#     Edge 12, Type (0, 1), BuildingBlock: EZIPEK_clean_linker_0, # of connection points: 2
#     Edge 13, Type (0, 1), BuildingBlock: EZIPEK_clean_linker_0, # of connection points: 2
#     Edge 14, Type (0, 1), BuildingBlock: EZIPEK_clean_linker_0, # of connection points: 2
#     Edge 15, Type (0, 1), BuildingBlock: EZIPEK_clean_linker_0, # of connection points: 2
# Relax obj value: 0.176
# Max RMSD: 0.299
# Mean RMSD: 0.210
data_MOF--net-nia--node1-KUMJIN_clean_sbu_0--node2-MIDCAF_clean_sbu_0--edge1-EZIPEK_clean_linker_0
_symmetry_space_group_name_H-M    P1
_symmetry_Int_Tables_number       1
_symmetry_cell_setting            triclinic
loop_
_symmetry_equiv_pos_as_xyz
'x, y, z'
_cell_length_a     21.949885
_cell_length_b     21.811471
_cell_length_c     24.912817
_cell_angle_alpha  89.40868
_cell_angle_beta   90.574495
_cell_angle_gamma 140.88403
loop_
_atom_site_label
_atom_site_type_symbol
_atom_site_fract_x
_atom_site_fract_y
_atom_site_fract_z
_atom_type_partial_charge
Eu0 Eu 0.03746 0.98643 0.04335 0.0
C1 C 0.12465 0.22524 0.85489 0.0
C2 C 0.1305 0.3387 0.87237 0.0
C3 C 0.23831 0.3792 0.80647 0.0
C4 C 0.09302 0.25042 0.88332 0.0
C5 C 0.19474 0.2877 0.81451 0.0
C6 C 0.2061 0.40471 0.83541 0.0
C7 C 0.16271 0.15895 0.7874 0.0
N8 N 0.07993 0.13554 0.86284 0.0
C9 C 0.09249 0.09947 0.82698 0.0
C10 C 0.21591 0.25458 0.78189 0.0
Eu11 Eu 0.97036 0.04315 0.9354 0.0
N12 N 0.01853 0.18396 0.91774 0.0
C13 C 0.96982 0.1957 0.93673 0.0
C14 C 0.08722 0.35544 0.89656 0.0
C15 C 0.00496 0.28249 0.92782 0.0
H16 H 0.04963 0.02543 0.82862 0.0
H17 H 0.96826 0.29286 0.94475 0.0
H18 H 0.23694 0.47354 0.82712 0.0
H19 H 0.17598 0.13023 0.76249 0.0
H20 H 0.90443 0.13902 0.95954 0.0
H21 H 0.68356 0.61324 0.09511 0.0
H22 H 0.11366 0.42215 0.88917 0.0
H23 H 0.2031 0.16388 0.13622 0.0
H24 H 0.82953 0.74042 0.04149 0.0
H25 H 0.20164 0.21848 0.22209 0.0
H26 H 0.29365 0.42873 0.77625 0.0
H27 H 0.66416 0.65473 0.17984 0.0
H28 H 0.72986 0.78417 0.24404 0.0
H29 H 0.27094 0.3018 0.75161 0.0
H30 H 0.86794 0.95117 0.27563 0.0
N31 N 0.89427 0.85627 0.09387 0.0
C32 C 0.82296 0.76141 0.07763 0.0
C33 C 0.72945 0.71142 0.15645 0.0
C34 C 0.80365 0.80791 0.17371 0.0
C35 C 0.73987 0.68791 0.10854 0.0
C36 C 0.88801 0.87859 0.14237 0.0
H37 H 0.04747 0.11548 0.26901 0.0
N38 N 0.05005 0.03428 0.13289 0.0
C39 C 0.13477 0.14942 0.20512 0.0
C40 C 0.96718 0.97175 0.16141 0.0
C41 C 0.13523 0.11797 0.15664 0.0
C42 C 0.04738 0.09114 0.23139 0.0
C43 C 0.96263 -0.00097 0.2108 0.0
O44 O 0.15068 0.01782 0.08025 0.0
O45 O 0.06869 0.04143 0.95815 0.0
O46 O 0.95182 0.9317 0.90283 0.0
O47 O 0.94282 0.86537 0.98084 0.0
O48 O 0.18562 0.11355 1.00608 0.0
O49 O 0.02973 0.88009 0.04251 0.0
O50 O 0.81751 0.904 0.92334 0.0
O51 O 0.92675 0.96788 0.01561 0.0
O52 O 0.10925 0.13407 0.05872 0.0
O53 O 0.08299 0.18114 0.98636 0.0
O54 O 0.9029 0.04167 1.00417 0.0
O55 O 0.88813 0.02072 0.86881 0.0
C56 C 0.16029 0.11057 0.95829 0.0
C57 C 0.09927 0.88291 0.11664 0.0
C58 C 0.14663 0.82606 0.16433 0.0
C59 C 0.15703 0.87485 0.12025 0.0
C60 C 0.07893 0.78638 0.20421 0.0
C61 C 0.03057 0.84031 0.15649 0.0
C62 C 0.02037 0.79212 0.19994 0.0
C63 C 0.92794 0.86195 0.92877 0.0
C64 C 0.10769 0.9325 0.07083 0.0
C65 C 0.87468 0.93203 0.23869 0.0
C66 C 0.79578 0.8362 0.22071 0.0
C67 C 0.89713 -0.00677 0.03849 0.0
C68 C 0.72297 0.91219 0.88982 0.0
C69 C 0.72924 0.97941 0.87442 0.0
C70 C 0.64982 0.9569 0.88141 0.0
C71 C 0.5641 0.86672 0.90358 0.0
C72 C 0.63567 0.82172 0.91108 0.0
C73 C 0.55706 0.79944 0.918 0.0
C74 C 0.12179 0.19699 0.03366 0.0
C75 C 0.80587 0.93438 0.88468 0.0
H76 H 0.20838 0.90478 0.08883 0.0
H77 H 0.069 0.74756 0.23767 0.0
H78 H 0.98401 0.8433 0.15333 0.0
H79 H 0.96577 0.75711 0.23002 0.0
H80 H 0.7957 0.04946 0.85791 0.0
H81 H 0.5026 0.84852 0.90965 0.0
H82 H 0.62844 0.76831 0.92279 0.0
H83 H 0.49053 0.72988 0.93484 0.0
Eu84 Eu 0.02931 0.07595 0.57148 0.0
C85 C 0.89651 0.8389 0.36498 0.0
C86 C 0.73271 0.68435 0.39138 0.0
C87 C 0.78289 0.70933 0.29948 0.0
C88 C 0.82714 0.77772 0.40487 0.0
C89 C 0.87538 0.80325 0.31242 0.0
C90 C 0.71089 0.65124 0.33844 0.0
C91 C 0.03962 0.95469 0.28793 0.0
N92 N 0.98656 0.92977 0.37813 0.0
C93 C 0.05629 0.98913 0.33959 0.0
C94 C 0.94889 0.86153 0.2745 0.0
Eu95 Eu 0.0238 0.95138 0.47066 0.0
N96 N 0.85271 0.80743 0.45681 0.0
C97 C 0.78368 0.74949 0.49623 0.0
C98 C 0.66359 0.62495 0.43179 0.0
C99 C 0.68904 0.65817 0.48434 0.0
H100 H 0.1276 0.06143 0.34889 0.0
H101 H 0.63566 0.61352 0.51592 0.0
H102 H 0.63942 0.5794 0.32762 0.0
H103 H 0.09672 0.00015 0.25839 0.0
H104 H 0.79838 0.77303 0.5372 0.0
H105 H 0.09605 0.36907 0.51972 0.0
H106 H 0.59043 0.5534 0.42285 0.0
H107 H 0.14947 0.09096 0.66871 0.0
H108 H -0.00354 0.19937 0.53672 0.0
H109 H 0.31466 0.21589 0.7073 0.0
H110 H 0.7663 0.68086 0.25936 0.0
H111 H 0.27103 0.50381 0.54034 0.0
H112 H 0.41261 0.55788 0.58112 0.0
H113 H 0.93473 0.83611 0.23412 0.0
H114 H 0.47295 0.51525 0.63179 0.0
N115 N 0.11483 0.23711 0.56356 0.0
C116 C 0.07284 0.25736 0.54532 0.0
C117 C 0.22774 0.42938 0.54751 0.0
C118 C 0.26831 0.40839 0.57087 0.0
C119 C 0.12899 0.35354 0.5359 0.0
C120 C 0.20867 0.31024 0.57925 0.0
H121 H 0.43641 0.38737 0.67982 0.0
N122 N 0.1793 0.19095 0.61847 0.0
C123 C 0.29568 0.23621 0.67817 0.0
C124 C 0.24234 0.28619 0.60733 0.0
C125 C 0.20193 0.16584 0.65663 0.0
C126 C 0.36444 0.33327 0.66269 0.0
C127 C 0.33705 0.35991 0.6284 0.0
O128 O 0.89861 0.96551 0.61929 0.0
O129 O 0.9446 0.96818 0.50418 0.0
O130 O 0.09739 0.08919 0.42976 0.0
O131 O 0.11018 0.17444 0.49621 0.0
O132 O 0.92366 0.04332 0.51495 0.0
O133 O 0.00013 0.11563 0.63861 0.0
O134 O 0.12694 0.95621 0.47774 0.0
O135 O 0.0962 0.03949 0.54666 0.0
O136 O 0.00134 0.96163 0.61577 0.0
O137 O 0.95385 0.86261 0.54589 0.0
O138 O 0.1849 0.08809 0.48265 0.0
O139 O -0.00523 0.83675 0.43775 0.0
C140 C 0.90458 0.98381 0.48323 0.0
C141 C 0.83394 0.00143 0.66355 0.0
C142 C 0.76121 0.04362 0.68589 0.0
C143 C 0.84233 0.07219 0.67013 0.0
C144 C 0.67271 0.94465 0.69443 0.0
C145 C 0.74467 0.90328 0.67383 0.0
C146 C 0.66478 0.87528 0.6889 0.0
C147 C 0.12548 0.16575 0.44681 0.0
C148 C 0.91681 0.02632 0.64964 0.0
C149 C 0.39942 0.45775 0.61678 0.0
C150 C 0.36503 0.48202 0.58801 0.0
C151 C 0.18371 0.10058 0.53319 0.0
C152 C 0.13528 0.90213 0.40215 0.0
C153 C 0.13734 0.84106 0.39087 0.0
C154 C 0.19174 0.86253 0.34722 0.0
C155 C 0.23701 0.94025 0.31274 0.0
C156 C 0.19206 0.98691 0.37148 0.0
C157 C 0.2385 0.00328 0.32541 0.0
C158 C 0.95886 0.87786 0.59768 0.0
C159 C 0.08018 0.88243 0.44781 0.0
H160 H 0.91057 0.14831 0.66278 0.0
H161 H 0.60886 0.92075 0.70419 0.0
H162 H 0.73652 0.84771 0.67024 0.0
H163 H 0.59615 0.79929 0.69594 0.0
H164 H 0.10148 0.78065 0.4174 0.0
H165 H 0.27889 0.95731 0.27909 0.0
H166 H 0.20237 0.04164 0.38399 0.0
H167 H 0.2796 0.06736 0.30108 0.0
Zn168 Zn 0.42492 0.71328 0.16142 0.0
Zn169 Zn 0.38099 0.65617 0.35294 0.0
Zn170 Zn 0.41625 0.67821 0.25644 0.0
C171 C 0.57535 0.7881 0.3484 0.0
C172 C 0.30253 0.48543 0.31949 0.0
O173 O 0.36057 0.72973 0.23088 0.0
O174 O 0.34702 0.72331 0.14235 0.0
C175 C 0.60991 0.83908 0.19073 0.0
O176 O 0.5558 0.76503 0.29816 0.0
O177 O 0.5131 0.7625 0.37896 0.0
O178 O 0.3231 0.53055 0.36135 0.0
O179 O 0.32357 0.52417 0.27284 0.0
O180 O 0.56311 0.8372 0.15955 0.0
O181 O 0.56805 0.78242 0.23207 0.0
O182 O 0.33228 0.54078 0.21604 0.0
O183 O 0.37803 0.59861 0.13302 0.0
C184 C 0.33389 0.52971 0.16557 0.0
O185 O 0.35149 0.715 0.28566 0.0
O186 O 0.30023 0.66344 0.36943 0.0
C187 C 0.33581 0.73931 0.18722 0.0
C188 C 0.30865 0.70251 0.32773 0.0
Zn189 Zn 0.62412 0.31502 0.86753 0.0
Zn190 Zn 0.66751 0.33694 0.67665 0.0
Zn191 Zn 0.6281 0.32845 0.76621 0.0
C192 C 0.73979 0.51208 0.69725 0.0
C193 C 0.48091 0.22226 0.66991 0.0
O194 O 0.64896 0.24786 0.79807 0.0
O195 O 0.6289 0.23129 0.8862 0.0
C196 C 0.7571 0.50676 0.85045 0.0
O197 O 0.72665 0.48485 0.74634 0.0
O198 O 0.72045 0.4589 0.66111 0.0
O199 O 0.53492 0.22572 0.6478 0.0
O200 O 0.5013 0.25722 0.71744 0.0
O201 O 0.73193 0.45233 0.88863 0.0
O202 O 0.72495 0.47282 0.8025 0.0
O203 O 0.47926 0.24392 0.7804 0.0
O204 O 0.49686 0.25642 0.8688 0.0
C205 C 0.44753 0.23132 0.82765 0.0
O206 O 0.67919 0.26994 0.74528 0.0
O207 O 0.7518 0.33144 0.66658 0.0
C208 C 0.64336 0.21389 0.84337 0.0
C209 C 0.72743 0.28138 0.70722 0.0
C210 C 0.2989 0.88328 0.1809 0.0
C211 C 0.19889 0.80724 0.16794 0.0
C212 C 0.18742 0.68679 0.1802 0.0
C213 C 0.28836 0.76287 0.18852 0.0
N214 N 0.44302 0.93347 0.19374 0.0
N215 N 0.05217 0.63923 0.14487 0.0
C216 C 0.34498 0.86127 0.18827 0.0
C217 C 0.14428 0.7096 0.16483 0.0
N218 N 0.34909 0.97586 0.18731 0.0
N219 N 0.13263 0.59252 0.18789 0.0
H220 H 0.01908 0.6537 0.13138 0.0
H221 H 0.012 0.56871 0.13661 0.0
H222 H 0.16233 0.57359 0.19945 0.0
H223 H 0.05744 0.53413 0.18808 0.0
H224 H 0.41907 0.03258 0.2025 0.0
H225 H 0.31837 -0.00502 0.18092 0.0
H226 H 0.4902 0.00686 0.18784 0.0
H227 H 0.47805 0.91938 0.20191 0.0
C228 C 0.35747 0.22403 0.56175 0.0
C229 C 0.25967 0.13118 0.56888 0.0
C230 C 0.30685 0.10299 0.64638 0.0
C231 C 0.40471 0.19195 0.63629 0.0
N232 N 0.52233 0.31987 0.57118 0.0
N233 N 0.15346 0.97 0.60453 0.0
C234 C 0.4301 0.24753 0.59007 0.0
C235 C 0.23727 0.06701 0.6077 0.0
N236 N 0.38159 0.29118 0.52914 0.0
N237 N 0.27995 0.05066 0.69163 0.0
H238 H 0.11073 0.94135 0.57105 0.0
H239 H 0.13604 0.91916 0.62923 0.0
H240 H 0.32976 0.07188 0.71913 0.0
H241 H 0.20801 0.99024 0.70341 0.0
H242 H 0.45156 0.36333 0.52699 0.0
H243 H 0.33025 0.27753 0.50873 0.0
H244 H 0.54081 0.35394 0.53427 0.0
H245 H 0.57875 0.34019 0.58952 0.0
C246 C 0.27157 0.34267 0.08471 0.0
C247 C 0.17909 0.28785 0.06451 0.0
C248 C 0.1814 0.38063 0.12228 0.0
C249 C 0.27298 0.43435 0.14182 0.0
N250 N 0.3982 0.45714 0.15125 0.0
N251 N 0.05147 0.26385 0.05951 0.0
C252 C 0.31598 0.41244 0.12584 0.0
C253 C 0.13595 0.31 0.08177 0.0
N254 N 0.31935 0.33203 0.06199 0.0
N255 N 0.1361 0.39458 0.14462 0.0
H256 H 0.00879 0.20276 0.03609 0.0
H257 H 0.02437 0.28693 0.06327 0.0
H258 H 0.16738 0.44496 0.17504 0.0
H259 H 0.0647 0.35102 0.137 0.0
H260 H 0.38999 0.3748 0.07138 0.0
H261 H 0.29151 0.28646 0.02946 0.0
H262 H 0.43013 0.43952 0.14523 0.0
H263 H 0.42958 0.50626 0.18251 0.0
C264 C 0.70818 0.10527 0.65235 0.0
C265 C 0.76351 0.1138 0.68974 0.0
C266 C 0.80154 0.23835 0.73846 0.0
C267 C 0.73695 0.22084 0.70449 0.0
N268 N 0.61266 0.12176 0.63634 0.0
N269 N 0.85412 0.17999 0.77255 0.0
C270 C 0.68578 0.1498 0.66346 0.0
C271 C 0.80822 0.17835 0.73397 0.0
N272 N 0.6786 0.05606 0.60543 0.0
N273 N 0.85809 0.31362 0.77396 0.0
H274 H 0.8621 0.13881 0.76992 0.0
H275 H 0.87851 0.217 0.80872 0.0
H276 H 0.85317 0.35714 0.77883 0.0
H277 H 0.9136 0.33653 0.79604 0.0
H278 H 0.64632 0.05565 0.57423 0.0
H279 H 0.69543 0.02413 0.59535 0.0
H280 H 0.56626 0.06311 0.61004 0.0
H281 H 0.59167 0.15027 0.64427 0.0
C282 C 0.8552 0.00953 0.12682 0.0
C283 C 0.83084 0.94824 0.08564 0.0
C284 C 0.672 0.8109 0.12765 0.0
C285 C 0.69329 0.8748 0.16467 0.0
N286 N 0.79776 0.03906 0.19071 0.0
N287 N 0.7051 0.79317 0.04102 0.0
C288 C 0.78288 0.97538 0.16184 0.0
C289 C 0.73594 0.84953 0.08434 0.0
N290 N 0.94868 0.09944 0.13409 0.0
N291 N 0.58991 0.71273 0.1338 0.0
H292 H 0.75033 0.81793 0.00946 0.0
H293 H 0.63337 0.72477 0.03466 0.0
H294 H 0.54436 0.682 0.16664 0.0
H295 H 0.57289 0.66187 0.1101 0.0
H296 H 0.97246 0.14486 0.16586 0.0
H297 H 0.00354 0.12139 0.11298 0.0
H298 H 0.85801 0.11417 0.18563 0.0
H299 H 0.74583 0.0164 0.21639 0.0
C300 C 0.88361 0.71621 0.60551 0.0
C301 C 0.91789 0.79545 0.63301 0.0
C302 C 0.8204 0.68295 0.71095 0.0
C303 C 0.78516 0.60693 0.67867 0.0
N304 N 0.72987 0.5543 0.58758 0.0
N305 N 0.92922 0.8559 0.71878 0.0
C306 C 0.79995 0.62393 0.62339 0.0
C307 C 0.88888 0.77971 0.68805 0.0
N308 N 0.92826 0.72631 0.56211 0.0
N309 N 0.77807 0.65962 0.75929 0.0
H310 H 0.9854 0.92749 0.70546 0.0
H311 H 0.9145 0.85011 0.75932 0.0
H312 H 0.71903 0.58747 0.77181 0.0
H313 H 0.79211 0.70826 0.78333 0.0
H314 H 0.90022 0.66597 0.54279 0.0
H315 H -0.0026 0.79233 0.55018 0.0
H316 H 0.73895 0.56707 0.5462 0.0
H317 H 0.65965 0.49229 0.6009 0.0
C318 C 0.31643 0.87806 0.35089 0.0
C319 C 0.21805 0.81759 0.34327 0.0
C320 C 0.1772 0.67835 0.32646 0.0
C321 C 0.27696 0.7418 0.32893 0.0
N322 N 0.44341 0.90436 0.33358 0.0
N323 N 0.0543 0.66161 0.32114 0.0
C324 C 0.34717 0.84249 0.33767 0.0
C325 C 0.14794 0.7178 0.33041 0.0
N326 N 0.37941 0.96755 0.37405 0.0
N327 N 0.1109 0.58062 0.32084 0.0
H328 H 0.02971 0.6872 0.32583 0.0
H329 H 0.00206 0.5916 0.3056 0.0
H330 H 0.13052 0.55032 0.31485 0.0
H331 H 0.03674 0.52895 0.32452 0.0
H332 H 0.44943 0.01041 0.38553 0.0
H333 H 0.35883 -0.00536 0.38755 0.0
H334 H 0.49688 0.97972 0.33305 0.0
H335 H 0.46979 0.88111 0.32611 0.0
C336 C 0.2174 0.06888 0.89912 0.0
C337 C 0.22032 0.13463 0.91257 0.0
C338 C 0.35737 0.25516 0.85043 0.0
C339 C 0.35446 0.18959 0.83847 0.0
N340 N 0.27032 0.02836 0.84064 0.0
N341 N 0.30421 0.29673 0.90776 0.0
C342 C 0.2796 0.09416 0.85889 0.0
C343 C 0.29307 0.22953 0.88963 0.0
N344 N 0.1619 0.98597 0.92849 0.0
N345 N 0.42239 0.34213 0.82386 0.0
H346 H 0.25714 0.27965 0.93524 0.0
H347 H 0.36162 0.36998 0.89735 0.0
H348 H 0.4684 0.36028 0.79474 0.0
H349 H 0.42545 0.392 0.82698 0.0
H350 H 0.16688 0.94233 0.92627 0.0
H351 H 0.11397 0.96312 0.95747 0.0
H352 H 0.21207 0.95448 0.84975 0.0
H353 H 0.31756 0.04708 0.81239 0.0
C354 C 0.25592 0.29462 0.3785 0.0
C355 C 0.16862 0.2421 0.40555 0.0
C356 C 0.15291 0.31961 0.34558 0.0
C357 C 0.24797 0.38562 0.32801 0.0
N358 N 0.39206 0.43768 0.32545 0.0
N359 N 0.03996 0.21609 0.41703 0.0
C360 C 0.29932 0.37214 0.34286 0.0
C361 C 0.1186 0.25759 0.38957 0.0
N362 N 0.29884 0.27266 0.38764 0.0
N363 N 0.09681 0.31937 0.3211 0.0
H364 H 0.00805 0.16586 0.44737 0.0
H365 H 0.00923 0.23528 0.41122 0.0
H366 H 0.12261 0.36584 0.28892 0.0
H367 H 0.02331 0.26706 0.3288 0.0
H368 H 0.35623 0.3012 0.36493 0.0
H369 H 0.27374 0.22156 0.41585 0.0
H370 H 0.43906 0.44085 0.34007 0.0
H371 H 0.4227 0.49184 0.29751 0.0
C372 C 0.59703 0.00644 0.8251 0.0
C373 C 0.65593 0.0281 0.86699 0.0
C374 C 0.72265 0.18247 0.88253 0.0
C375 C 0.65416 0.15457 0.84626 0.0
N376 N 0.51739 0.03381 0.7872 0.0
N377 N 0.76047 0.12794 0.94286 0.0
C378 C 0.58951 0.06529 0.81811 0.0
C379 C 0.71556 0.11416 0.89746 0.0
N380 N 0.54827 0.92953 0.79198 0.0
N381 N 0.79594 0.27518 0.90194 0.0
H382 H 0.7542 0.0779 0.95654 0.0
H383 H 0.79572 0.18406 0.96984 0.0
H384 H 0.80493 0.32806 0.89066 0.0
H385 H 0.85332 0.30217 0.92432 0.0
H386 H 0.51165 0.9155 0.75758 0.0
H387 H 0.55156 0.88452 0.79615 0.0
H388 H 0.46152 0.96454 0.77069 0.0
H389 H 0.50826 0.0737 0.78142 0.0
C390 C 0.72629 0.83976 0.46101 0.0
C391 C 0.82249 0.92353 0.44315 0.0
C392 C 0.75638 0.92262 0.36143 0.0
C393 C 0.6626 0.83066 0.37568 0.0
N394 N 0.56265 0.68992 0.43379 0.0
N395 N 0.92561 0.03351 0.36962 0.0
C396 C 0.64923 0.78525 0.42364 0.0
C397 C 0.83633 0.96154 0.39125 0.0
N398 N 0.70697 0.81485 0.51413 0.0
N399 N 0.76916 0.97443 0.32094 0.0
H400 H 0.97975 0.04893 0.38512 0.0
H401 H 0.94305 0.06943 0.3339 0.0
H402 H 0.7115 0.94787 0.29928 0.0
H403 H 0.83518 0.04666 0.31236 0.0
H404 H 0.63689 0.75986 0.52935 0.0
H405 H 0.76076 0.85347 0.54336 0.0
H406 H 0.55131 0.65265 0.46709 0.0
H407 H 0.50617 0.64585 0.40595 0.0
C408 C 0.93295 0.77667 0.8645 0.0
C409 C 0.8799 0.77361 0.89959 0.0
C410 C 0.74021 0.59645 0.89099 0.0
C411 C 0.7994 0.59944 0.8644 0.0
N412 N 0.95231 0.69052 0.82653 0.0
N413 N 0.73101 0.68047 0.94488 0.0
C414 C 0.89578 0.68906 0.85103 0.0
C415 C 0.78272 0.68327 0.91226 0.0
N416 N 0.01674 0.86245 0.84228 0.0
N417 N 0.64253 0.51113 0.89385 0.0
H418 H 0.75665 0.74306 0.95663 0.0
H419 H 0.66512 0.61702 0.96205 0.0
H420 H 0.60817 0.44608 0.87783 0.0
H421 H 0.59413 0.50619 0.90745 0.0
H422 H 0.05247 0.86786 0.81147 0.0
H423 H 0.04486 0.9271 0.85098 0.0
H424 H 0.02642 0.75368 0.82113 0.0
H425 H 0.92605 0.62733 0.81481 0.0
loop_
_geom_bond_atom_site_label_1
_geom_bond_atom_site_label_2
_geom_bond_distance
_geom_bond_site_symmetry_2
_ccdc_geom_bond_type
Eu0 N31 2.657 1_455 S
Eu0 N38 2.609 . S
Eu0 O44 2.558 1_565 S
Eu0 O45 2.612 1_564 S
Eu0 O47 2.339 1_454 S
Eu0 O48 2.563 1_565 S
Eu0 O49 2.419 . S
Eu0 O51 2.380 1_455 S
Eu0 O52 2.432 1_565 S
Eu0 C64 2.848 . S
C1 C4 1.429 . S
C1 C5 1.411 . S
C1 N8 1.377 1_455 S
C2 C4 1.420 . S
C2 C6 1.423 . S
C2 C14 1.392 . S
C3 C5 1.420 . S
C3 C6 1.351 . S
C3 H26 0.931 . S
C4 C1 1.429 . S
C4 C2 1.420 . S
C4 N12 1.362 . S
C5 C1 1.411 . S
C5 C3 1.420 . S
C5 C10 1.395 1_455 S
C6 C2 1.423 . S
C6 C3 1.351 . S
C6 H18 0.930 . S
C7 C9 1.400 . S
C7 C10 1.386 1_565 S
C7 H19 0.930 . S
N8 C1 1.377 1_655 S
N8 C9 1.321 1_545 S
N8 Eu11 2.609 . S
C9 C7 1.400 . S
C9 N8 1.321 1_565 S
C9 H16 0.930 . S
C10 C5 1.395 1_655 S
C10 C7 1.386 1_545 S
C10 H29 0.930 . S
Eu11 N8 2.609 . S
Eu11 N12 2.657 1_655 S
Eu11 O45 2.380 1_655 S
Eu11 O46 2.432 1_545 S
Eu11 O50 2.558 1_545 S
Eu11 O51 2.612 1_546 S
Eu11 O53 2.339 1_656 S
Eu11 O54 2.562 1_545 S
Eu11 O55 2.419 . S
Eu11 C75 2.848 . S
N12 C4 1.362 . S
N12 Eu11 2.657 1_455 S
N12 C13 1.334 . S
C13 N12 1.334 . S
C13 C15 1.413 . S
C13 H20 0.929 . S
C14 C2 1.392 . S
C14 C15 1.367 . S
C14 H22 0.930 . S
C15 C13 1.413 . S
C15 C14 1.367 . S
C15 H17 0.930 . S
H16 C9 0.930 . S
H17 C15 0.930 . S
H18 C6 0.930 . S
H19 C7 0.930 . S
H20 C13 0.929 . S
H21 C35 0.930 . S
H22 C14 0.930 . S
H23 C41 0.930 . S
H24 C32 0.929 . S
H25 C39 0.930 . S
H26 C3 0.931 . S
H27 C33 0.930 . S
H28 C66 0.930 . S
H29 C10 0.930 . S
H30 C65 0.931 . S
N31 Eu0 2.657 1_655 S
N31 C32 1.334 . S
N31 C36 1.362 . S
C32 H24 0.929 . S
C32 N31 1.334 . S
C32 C35 1.413 . S
C33 H27 0.930 . S
C33 C34 1.392 . S
C33 C35 1.367 . S
C34 C33 1.392 . S
C34 C36 1.420 . S
C34 C66 1.423 . S
C35 H21 0.930 . S
C35 C32 1.413 . S
C35 C33 1.367 . S
C36 N31 1.362 . S
C36 C34 1.420 . S
C36 C40 1.429 . S
H37 C42 0.930 . S
N38 Eu0 2.609 . S
N38 C40 1.377 1_455 S
N38 C41 1.321 1_565 S
C39 H25 0.930 . S
C39 C41 1.400 . S
C39 C42 1.386 1_545 S
C40 C36 1.429 . S
C40 N38 1.377 1_655 S
C40 C43 1.411 . S
C41 H23 0.930 . S
C41 N38 1.321 1_545 S
C41 C39 1.400 . S
C42 H37 0.930 . S
C42 C39 1.386 1_565 S
C42 C43 1.395 1_455 S
C43 C40 1.411 . S
C43 C42 1.395 1_655 S
C43 C65 1.420 . S
O44 Eu0 2.558 1_545 S
O44 C64 1.257 1_545 S
O45 Eu0 2.612 1_546 S
O45 Eu11 2.380 1_455 S
O45 C56 1.276 . S
O46 Eu11 2.432 1_565 S
O46 C63 1.264 . S
O47 Eu0 2.339 1_656 S
O47 C63 1.254 . S
O48 Eu0 2.563 1_545 S
O48 C56 1.235 1_554 S
O49 Eu0 2.419 . S
O49 C64 1.249 . S
O50 Eu11 2.558 1_565 S
O50 C75 1.257 1_565 S
O51 Eu0 2.380 1_655 S
O51 Eu11 2.612 1_564 S
O51 C67 1.276 . S
O52 Eu0 2.432 1_545 S
O52 C74 1.264 . S
O53 Eu11 2.339 1_454 S
O53 C74 1.254 . S
O54 Eu11 2.562 1_565 S
O54 C67 1.237 1_556 S
O55 Eu11 2.419 . S
O55 C75 1.249 . S
C56 O45 1.276 . S
C56 O48 1.235 1_556 S
C57 C59 1.393 . S
C57 C61 1.395 . S
C57 C64 1.492 . S
C58 C59 1.392 . S
C58 C60 1.386 . S
C59 C57 1.393 . S
C59 C58 1.392 . S
C59 H76 0.930 . S
C60 C58 1.386 . S
C60 C62 1.395 . S
C60 H77 0.930 . S
C61 C57 1.395 . S
C61 C62 1.379 . S
C61 H78 0.930 1_565 S
C62 C60 1.395 . S
C62 C61 1.379 . S
C62 H79 0.930 . S
C63 O46 1.264 . S
C63 O47 1.254 . S
C64 Eu0 2.848 . S
C64 O44 1.257 1_565 S
C64 O49 1.249 . S
C64 C57 1.492 . S
C65 H30 0.931 . S
C65 C43 1.420 . S
C65 C66 1.351 . S
C66 H28 0.930 . S
C66 C34 1.423 . S
C66 C65 1.351 . S
C67 O51 1.276 . S
C67 O54 1.237 1_554 S
C68 C69 1.393 . S
C68 C72 1.395 . S
C68 C75 1.492 . S
C69 C68 1.393 . S
C69 C70 1.392 . S
C69 H80 0.930 . S
C70 C69 1.392 . S
C70 C71 1.386 . S
C71 C70 1.386 . S
C71 C73 1.395 . S
C71 H81 0.930 . S
C72 C68 1.395 . S
C72 C73 1.379 . S
C72 H82 0.930 . S
C73 C71 1.395 . S
C73 C72 1.379 . S
C73 H83 0.930 . S
C74 O52 1.264 . S
C74 O53 1.254 . S
C75 Eu11 2.848 . S
C75 O50 1.257 1_545 S
C75 O55 1.249 . S
C75 C68 1.492 . S
H76 C59 0.930 . S
H77 C60 0.930 . S
H78 C61 0.930 1_545 S
H79 C62 0.930 . S
H80 C69 0.930 . S
H81 C71 0.930 . S
H82 C72 0.930 . S
H83 C73 0.930 . S
Eu84 N115 2.657 1_655 S
Eu84 N122 2.609 1_655 S
Eu84 O128 2.558 . S
Eu84 O129 2.612 1_545 S
Eu84 O131 2.339 1_655 S
Eu84 O132 2.563 1_545 S
Eu84 O133 2.419 . S
Eu84 O135 2.380 1_655 S
Eu84 O136 2.432 1_545 S
Eu84 C148 2.848 . S
C85 C88 1.429 . S
C85 C89 1.411 . S
C85 N92 1.377 1_665 S
C86 C88 1.420 . S
C86 C90 1.423 . S
C86 C98 1.392 . S
C87 C89 1.420 . S
C87 C90 1.351 . S
C87 H110 0.931 . S
C88 C85 1.429 . S
C88 C86 1.420 . S
C88 N96 1.362 . S
C89 C85 1.411 . S
C89 C87 1.420 . S
C89 C94 1.395 1_665 S
C90 C86 1.423 . S
C90 C87 1.351 . S
C90 H102 0.930 . S
C91 C93 1.400 . S
C91 C94 1.386 . S
C91 H103 0.930 . S
N92 C85 1.377 1_445 S
N92 C93 1.321 . S
N92 Eu95 2.609 1_545 S
C93 C91 1.400 . S
C93 N92 1.321 . S
C93 H100 0.930 . S
C94 C89 1.395 1_445 S
C94 C91 1.386 . S
C94 H113 0.930 . S
Eu95 N92 2.609 1_565 S
Eu95 N96 2.657 1_455 S
Eu95 O129 2.380 1_455 S
Eu95 O130 2.432 1_565 S
Eu95 O134 2.558 1_565 S
Eu95 O135 2.612 1_565 S
Eu95 O137 2.339 1_455 S
Eu95 O138 2.563 1_565 S
Eu95 O139 2.419 . S
Eu95 C159 2.848 . S
N96 C88 1.362 . S
N96 Eu95 2.657 1_655 S
N96 C97 1.334 . S
C97 N96 1.334 . S
C97 C99 1.413 . S
C97 H104 0.929 . S
C98 C86 1.392 . S
C98 C99 1.367 . S
C98 H106 0.930 . S
C99 C97 1.413 . S
C99 C98 1.367 . S
C99 H101 0.930 . S
H100 C93 0.930 . S
H101 C99 0.930 . S
H102 C90 0.930 . S
H103 C91 0.930 . S
H104 C97 0.929 . S
H105 C119 0.930 . S
H106 C98 0.930 . S
H107 C125 0.930 . S
H108 C116 0.929 . S
H109 C123 0.930 . S
H110 C87 0.931 . S
H111 C117 0.930 . S
H112 C150 0.930 . S
H113 C94 0.930 . S
H114 C149 0.931 . S
N115 Eu84 2.657 1_455 S
N115 C116 1.334 . S
N115 C120 1.362 . S
C116 H108 0.929 . S
C116 N115 1.334 . S
C116 C119 1.413 . S
C117 H111 0.930 . S
C117 C118 1.392 . S
C117 C119 1.367 . S
C118 C117 1.392 . S
C118 C120 1.420 . S
C118 C150 1.423 . S
C119 H105 0.930 . S
C119 C116 1.413 . S
C119 C117 1.367 . S
C120 N115 1.362 . S
C120 C118 1.420 . S
C120 C124 1.429 . S
H121 C126 0.930 . S
N122 Eu84 2.609 1_455 S
N122 C124 1.377 . S
N122 C125 1.321 1_445 S
C123 H109 0.930 . S
C123 C125 1.400 . S
C123 C126 1.386 1_665 S
C124 C120 1.429 . S
C124 N122 1.377 . S
C124 C127 1.411 . S
C125 H107 0.930 . S
C125 N122 1.321 1_665 S
C125 C123 1.400 . S
C126 H121 0.930 . S
C126 C123 1.386 1_445 S
C126 C127 1.395 . S
C127 C124 1.411 . S
C127 C126 1.395 . S
C127 C149 1.420 . S
O128 Eu84 2.558 . S
O128 C148 1.257 . S
O129 Eu84 2.612 1_565 S
O129 Eu95 2.380 1_655 S
O129 C140 1.276 . S
O130 Eu95 2.432 1_545 S
O130 C147 1.264 . S
O131 Eu84 2.339 1_455 S
O131 C147 1.254 . S
O132 Eu84 2.563 1_565 S
O132 C140 1.235 . S
O133 Eu84 2.419 . S
O133 C148 1.249 . S
O134 Eu95 2.558 1_545 S
O134 C159 1.257 1_545 S
O135 Eu84 2.380 1_455 S
O135 Eu95 2.612 1_545 S
O135 C151 1.276 . S
O136 Eu84 2.432 1_565 S
O136 C158 1.264 . S
O137 Eu95 2.339 1_655 S
O137 C158 1.254 . S
O138 Eu95 2.563 1_545 S
O138 C151 1.235 . S
O139 Eu95 2.419 . S
O139 C159 1.249 . S
C140 O129 1.276 . S
C140 O132 1.235 . S
C141 C143 1.393 . S
C141 C145 1.395 . S
C141 C148 1.492 . S
C142 C143 1.392 . S
C142 C144 1.386 . S
C143 C141 1.393 . S
C143 C142 1.392 . S
C143 H160 0.930 . S
C144 C142 1.386 . S
C144 C146 1.395 . S
C144 H161 0.930 . S
C145 C141 1.395 . S
C145 C146 1.379 . S
C145 H162 0.930 . S
C146 C144 1.395 . S
C146 C145 1.379 . S
C146 H163 0.930 . S
C147 O130 1.264 . S
C147 O131 1.254 . S
C148 Eu84 2.848 . S
C148 O128 1.257 . S
C148 O133 1.249 . S
C148 C141 1.492 . S
C149 H114 0.931 . S
C149 C127 1.420 . S
C149 C150 1.351 . S
C150 H112 0.930 . S
C150 C118 1.423 . S
C150 C149 1.351 . S
C151 O135 1.276 . S
C151 O138 1.235 . S
C152 C153 1.393 . S
C152 C156 1.395 . S
C152 C159 1.492 . S
C153 C152 1.393 . S
C153 C154 1.392 . S
C153 H164 0.930 . S
C154 C153 1.392 . S
C154 C155 1.386 . S
C155 C154 1.386 . S
C155 C157 1.395 . S
C155 H165 0.930 . S
C156 C152 1.395 . S
C156 C157 1.379 . S
C156 H166 0.930 1_565 S
C157 C155 1.395 . S
C157 C156 1.379 . S
C157 H167 0.930 . S
C158 O136 1.264 . S
C158 O137 1.254 . S
C159 Eu95 2.848 . S
C159 O134 1.257 1_565 S
C159 O139 1.249 . S
C159 C152 1.492 . S
H160 C143 0.930 . S
H161 C144 0.930 . S
H162 C145 0.930 . S
H163 C146 0.930 . S
H164 C153 0.930 . S
H165 C155 0.930 . S
H166 C156 0.930 1_545 S
H167 C157 0.930 . S
Zn168 O174 1.920 . S
Zn168 O180 1.898 . S
Zn168 O183 1.905 . S
Zn169 O177 1.905 . S
Zn169 O178 1.898 . S
Zn169 O186 1.920 . S
Zn170 O173 2.080 . S
Zn170 O176 2.114 . S
Zn170 O179 2.120 . S
Zn170 O181 2.120 . S
Zn170 O182 2.114 . S
Zn170 O185 2.080 . S
C171 O176 1.166 . S
C171 O177 1.182 . S
C172 O178 1.167 . S
C172 O179 1.299 . S
O173 Zn170 2.080 . S
O173 C187 1.305 . S
O174 Zn168 1.920 . S
O174 C187 1.234 . S
C175 O180 1.167 . S
C175 O181 1.299 . S
O176 Zn170 2.114 . S
O176 C171 1.166 . S
O177 Zn169 1.905 . S
O177 C171 1.182 . S
O178 Zn169 1.898 . S
O178 C172 1.167 . S
O179 Zn170 2.120 . S
O179 C172 1.299 . S
O180 Zn168 1.898 . S
O180 C175 1.167 . S
O181 Zn170 2.120 . S
O181 C175 1.299 . S
O182 Zn170 2.114 . S
O182 C184 1.166 . S
O183 Zn168 1.905 . S
O183 C184 1.182 . S
C184 O182 1.166 . S
C184 O183 1.182 . S
O185 Zn170 2.080 . S
O185 C188 1.305 . S
O186 Zn169 1.920 . S
O186 C188 1.234 . S
C187 O173 1.305 . S
C187 O174 1.234 . S
C188 O185 1.305 . S
C188 O186 1.234 . S
Zn189 O195 1.920 . S
Zn189 O201 1.898 . S
Zn189 O204 1.905 . S
Zn190 O198 1.905 . S
Zn190 O199 1.898 . S
Zn190 O207 1.920 . S
Zn191 O194 2.080 . S
Zn191 O197 2.114 . S
Zn191 O200 2.120 . S
Zn191 O202 2.120 . S
Zn191 O203 2.114 . S
Zn191 O206 2.080 . S
C192 O197 1.166 . S
C192 O198 1.182 . S
C193 O199 1.167 . S
C193 O200 1.299 . S
O194 Zn191 2.080 . S
O194 C208 1.305 . S
O195 Zn189 1.920 . S
O195 C208 1.234 . S
C196 O201 1.167 . S
C196 O202 1.299 . S
O197 Zn191 2.114 . S
O197 C192 1.166 . S
O198 Zn190 1.905 . S
O198 C192 1.182 . S
O199 Zn190 1.898 . S
O199 C193 1.167 . S
O200 Zn191 2.120 . S
O200 C193 1.299 . S
O201 Zn189 1.898 . S
O201 C196 1.167 . S
O202 Zn191 2.120 . S
O202 C196 1.299 . S
O203 Zn191 2.114 . S
O203 C205 1.166 . S
O204 Zn189 1.905 . S
O204 C205 1.182 . S
C205 O203 1.166 . S
C205 O204 1.182 . S
O206 Zn191 2.080 . S
O206 C209 1.305 . S
O207 Zn190 1.920 . S
O207 C209 1.234 . S
C208 O194 1.305 . S
C208 O195 1.234 . S
C209 O206 1.305 . S
C209 O207 1.234 . S
C210 C211 1.363 . S
C210 C216 1.379 . S
C210 N218 1.356 . S
C211 C210 1.363 . S
C211 C217 1.363 . S
C212 C213 1.363 . S
C212 C217 1.379 . S
C212 N219 1.356 . S
C213 C212 1.363 . S
C213 C216 1.363 . S
N214 C216 1.356 . S
N214 H226 0.984 . S
N214 H227 0.985 . S
N215 C217 1.356 . S
N215 H220 0.984 . S
N215 H221 0.985 . S
C216 C210 1.379 . S
C216 C213 1.363 . S
C216 N214 1.356 . S
C217 C211 1.363 . S
C217 C212 1.379 . S
C217 N215 1.356 . S
N218 C210 1.356 . S
N218 H224 0.984 . S
N218 H225 0.984 . S
N219 C212 1.356 . S
N219 H222 0.984 . S
N219 H223 0.985 . S
H220 N215 0.984 . S
H221 N215 0.985 . S
H222 N219 0.984 . S
H223 N219 0.985 . S
H224 N218 0.984 . S
H225 N218 0.984 . S
H226 N214 0.984 . S
H227 N214 0.985 . S
C228 C229 1.363 . S
C228 C234 1.379 . S
C228 N236 1.356 . S
C229 C228 1.363 . S
C229 C235 1.363 . S
C230 C231 1.363 . S
C230 C235 1.379 . S
C230 N237 1.356 . S
C231 C230 1.363 . S
C231 C234 1.363 . S
N232 C234 1.356 . S
N232 H244 0.984 . S
N232 H245 0.985 . S
N233 C235 1.356 1_565 S
N233 H238 0.996 . S
N233 H239 0.985 . S
C234 C228 1.379 . S
C234 C231 1.363 . S
C234 N232 1.356 . S
C235 C229 1.363 . S
C235 C230 1.379 . S
C235 N233 1.356 1_545 S
N236 C228 1.356 . S
N236 H242 0.984 . S
N236 H243 0.984 . S
N237 C230 1.356 . S
N237 H240 0.984 . S
N237 H241 0.985 1_545 S
H238 N233 0.996 . S
H239 N233 0.985 . S
H240 N237 0.984 . S
H241 N237 0.985 1_565 S
H242 N236 0.984 . S
H243 N236 0.984 . S
H244 N232 0.984 . S
H245 N232 0.985 . S
C246 C247 1.363 . S
C246 C252 1.379 . S
C246 N254 1.356 . S
C247 C246 1.363 . S
C247 C253 1.363 . S
C248 C249 1.363 . S
C248 C253 1.379 . S
C248 N255 1.356 . S
C249 C248 1.363 . S
C249 C252 1.363 . S
N250 C252 1.356 . S
N250 H262 0.984 . S
N250 H263 0.985 . S
N251 C253 1.356 . S
N251 H256 0.984 1_455 S
N251 H257 0.985 1_455 S
C252 C246 1.379 . S
C252 C249 1.363 . S
C252 N250 1.356 . S
C253 C247 1.363 . S
C253 C248 1.379 . S
C253 N251 1.356 . S
N254 C246 1.356 . S
N254 H260 0.984 . S
N254 H261 0.984 . S
N255 C248 1.356 . S
N255 H258 0.984 . S
N255 H259 0.985 . S
H256 N251 0.984 1_655 S
H257 N251 0.985 1_655 S
H258 N255 0.984 . S
H259 N255 0.985 . S
H260 N254 0.984 . S
H261 N254 0.984 . S
H262 N250 0.984 . S
H263 N250 0.985 . S
C264 C265 1.363 . S
C264 C270 1.379 . S
C264 N272 1.356 . S
C265 C264 1.363 . S
C265 C271 1.363 . S
C266 C267 1.363 . S
C266 C271 1.379 . S
C266 N273 1.356 . S
C267 C266 1.363 . S
C267 C270 1.363 . S
N268 C270 1.356 . S
N268 H280 0.984 . S
N268 H281 0.985 . S
N269 C271 1.356 . S
N269 H274 0.984 . S
N269 H275 0.985 . S
C270 C264 1.379 . S
C270 C267 1.363 . S
C270 N268 1.356 . S
C271 C265 1.363 . S
C271 C266 1.379 . S
C271 N269 1.356 . S
N272 C264 1.356 . S
N272 H278 0.984 . S
N272 H279 0.984 . S
N273 C266 1.356 . S
N273 H276 0.984 . S
N273 H277 0.985 . S
H274 N269 0.984 . S
H275 N269 0.985 . S
H276 N273 0.984 . S
H277 N273 0.985 . S
H278 N272 0.984 . S
H279 N272 0.984 . S
H280 N268 0.984 . S
H281 N268 0.985 . S
C282 C283 1.363 . S
C282 C288 1.379 . S
C282 N290 1.356 1_565 S
C283 C282 1.363 . S
C283 C289 1.363 . S
C284 C285 1.363 . S
C284 C289 1.379 . S
C284 N291 1.356 . S
C285 C284 1.363 . S
C285 C288 1.363 . S
N286 C288 1.356 . S
N286 H298 0.984 1_565 S
N286 H299 0.985 . S
N287 C289 1.356 . S
N287 H292 0.984 . S
N287 H293 0.985 . S
C288 C282 1.379 . S
C288 C285 1.363 . S
C288 N286 1.356 . S
C289 C283 1.363 . S
C289 C284 1.379 . S
C289 N287 1.356 . S
N290 C282 1.356 1_545 S
N290 H296 0.984 . S
N290 H297 0.984 . S
N291 C284 1.356 . S
N291 H294 0.984 . S
N291 H295 0.985 . S
H292 N287 0.984 . S
H293 N287 0.985 . S
H294 N291 0.984 . S
H295 N291 0.985 . S
H296 N290 0.984 . S
H297 N290 0.984 . S
H298 N286 0.984 1_545 S
H299 N286 0.985 . S
C300 C301 1.363 . S
C300 C306 1.379 . S
C300 N308 1.356 . S
C301 C300 1.363 . S
C301 C307 1.363 . S
C302 C303 1.363 . S
C302 C307 1.379 . S
C302 N309 1.356 . S
C303 C302 1.363 . S
C303 C306 1.363 . S
N304 C306 1.356 . S
N304 H316 0.984 . S
N304 H317 0.985 . S
N305 C307 1.356 . S
N305 H310 0.984 1_655 S
N305 H311 0.985 1_655 S
C306 C300 1.379 . S
C306 C303 1.363 . S
C306 N304 1.356 . S
C307 C301 1.363 . S
C307 C302 1.379 . S
C307 N305 1.356 . S
N308 C300 1.356 . S
N308 H314 0.984 . S
N308 H315 0.984 . S
N309 C302 1.356 . S
N309 H312 0.984 . S
N309 H313 0.985 . S
H310 N305 0.984 1_455 S
H311 N305 0.985 1_455 S
H312 N309 0.984 . S
H313 N309 0.985 . S
H314 N308 0.984 . S
H315 N308 0.984 . S
H316 N304 0.984 . S
H317 N304 0.985 . S
C318 C319 1.363 . S
C318 C324 1.379 . S
C318 N326 1.356 . S
C319 C318 1.363 . S
C319 C325 1.363 . S
C320 C321 1.363 . S
C320 C325 1.379 . S
C320 N327 1.356 . S
C321 C320 1.363 . S
C321 C324 1.363 . S
N322 C324 1.356 . S
N322 H334 0.984 1_565 S
N322 H335 0.985 . S
N323 C325 1.356 . S
N323 H328 0.984 . S
N323 H329 0.985 . S
C324 C318 1.379 . S
C324 C321 1.363 . S
C324 N322 1.356 . S
C325 C319 1.363 . S
C325 C320 1.379 . S
C325 N323 1.356 . S
N326 C318 1.356 . S
N326 H332 0.984 1_565 S
N326 H333 0.984 . S
N327 C320 1.356 . S
N327 H330 0.984 . S
N327 H331 0.985 . S
H328 N323 0.984 . S
H329 N323 0.985 . S
H330 N327 0.984 . S
H331 N327 0.985 . S
H332 N326 0.984 1_545 S
H333 N326 0.984 . S
H334 N322 0.984 1_545 S
H335 N322 0.985 . S
C336 C337 1.363 . S
C336 C342 1.379 . S
C336 N344 1.356 1_545 S
C337 C336 1.363 . S
C337 C343 1.363 . S
C338 C339 1.363 . S
C338 C343 1.379 . S
C338 N345 1.356 . S
C339 C338 1.363 . S
C339 C342 1.363 . S
N340 C342 1.356 . S
N340 H352 0.984 . S
N340 H353 0.985 . S
N341 C343 1.356 . S
N341 H346 0.984 . S
N341 H347 0.985 . S
C342 C336 1.379 . S
C342 C339 1.363 . S
C342 N340 1.356 . S
C343 C337 1.363 . S
C343 C338 1.379 . S
C343 N341 1.356 . S
N344 C336 1.356 1_565 S
N344 H350 0.984 . S
N344 H351 0.984 . S
N345 C338 1.356 . S
N345 H348 0.984 . S
N345 H349 0.985 . S
H346 N341 0.984 . S
H347 N341 0.985 . S
H348 N345 0.984 . S
H349 N345 0.985 . S
H350 N344 0.984 . S
H351 N344 0.984 . S
H352 N340 0.984 . S
H353 N340 0.985 . S
C354 C355 1.363 . S
C354 C360 1.379 . S
C354 N362 1.356 . S
C355 C354 1.363 . S
C355 C361 1.363 . S
C356 C357 1.363 . S
C356 C361 1.379 . S
C356 N363 1.356 . S
C357 C356 1.363 . S
C357 C360 1.363 . S
N358 C360 1.356 . S
N358 H370 0.984 . S
N358 H371 0.985 . S
N359 C361 1.356 . S
N359 H364 0.984 . S
N359 H365 0.985 . S
C360 C354 1.379 . S
C360 C357 1.363 . S
C360 N358 1.356 . S
C361 C355 1.363 . S
C361 C356 1.379 . S
C361 N359 1.356 . S
N362 C354 1.356 . S
N362 H368 0.984 . S
N362 H369 0.984 . S
N363 C356 1.356 . S
N363 H366 0.984 . S
N363 H367 0.985 . S
H364 N359 0.984 . S
H365 N359 0.985 . S
H366 N363 0.984 . S
H367 N363 0.985 . S
H368 N362 0.984 . S
H369 N362 0.984 . S
H370 N358 0.984 . S
H371 N358 0.985 . S
C372 C373 1.363 . S
C372 C378 1.379 . S
C372 N380 1.356 . S
C373 C372 1.363 . S
C373 C379 1.363 . S
C374 C375 1.363 . S
C374 C379 1.379 . S
C374 N381 1.356 . S
C375 C374 1.363 . S
C375 C378 1.363 . S
N376 C378 1.356 . S
N376 H388 0.984 . S
N376 H389 0.985 . S
N377 C379 1.356 . S
N377 H382 0.984 . S
N377 H383 0.985 . S
C378 C372 1.379 . S
C378 C375 1.363 . S
C378 N376 1.356 . S
C379 C373 1.363 . S
C379 C374 1.379 . S
C379 N377 1.356 . S
N380 C372 1.356 . S
N380 H386 0.984 . S
N380 H387 0.984 . S
N381 C374 1.356 . S
N381 H384 0.984 . S
N381 H385 0.985 . S
H382 N377 0.984 . S
H383 N377 0.985 . S
H384 N381 0.984 . S
H385 N381 0.985 . S
H386 N380 0.984 . S
H387 N380 0.984 . S
H388 N376 0.984 . S
H389 N376 0.985 . S
C390 C391 1.363 . S
C390 C396 1.379 . S
C390 N398 1.356 . S
C391 C390 1.363 . S
C391 C397 1.363 . S
C392 C393 1.363 . S
C392 C397 1.379 . S
C392 N399 1.356 . S
C393 C392 1.363 . S
C393 C396 1.363 . S
N394 C396 1.356 . S
N394 H406 0.984 . S
N394 H407 0.985 . S
N395 C397 1.356 1_545 S
N395 H400 0.984 . S
N395 H401 0.985 . S
C396 C390 1.379 . S
C396 C393 1.363 . S
C396 N394 1.356 . S
C397 C391 1.363 . S
C397 C392 1.379 . S
C397 N395 1.356 1_565 S
N398 C390 1.356 . S
N398 H404 0.984 . S
N398 H405 0.984 . S
N399 C392 1.356 . S
N399 H402 0.984 . S
N399 H403 0.985 . S
H400 N395 0.984 . S
H401 N395 0.985 . S
H402 N399 0.984 . S
H403 N399 0.985 . S
H404 N398 0.984 . S
H405 N398 0.984 . S
H406 N394 0.984 . S
H407 N394 0.985 . S
C408 C409 1.363 . S
C408 C414 1.379 . S
C408 N416 1.355 . S
C409 C408 1.363 . S
C409 C415 1.363 . S
C410 C411 1.363 . S
C410 C415 1.379 . S
C410 N417 1.356 . S
C411 C410 1.363 . S
C411 C414 1.363 . S
N412 C414 1.356 . S
N412 H424 0.984 . S
N412 H425 0.985 . S
N413 C415 1.356 . S
N413 H418 0.984 . S
N413 H419 0.985 . S
C414 C408 1.379 . S
C414 C411 1.363 . S
C414 N412 1.356 . S
C415 C409 1.363 . S
C415 C410 1.379 . S
C415 N413 1.356 . S
N416 C408 1.355 . S
N416 H422 0.982 1_655 S
N416 H423 0.988 1_655 S
N417 C410 1.356 . S
N417 H420 0.984 . S
N417 H421 0.985 . S
H418 N413 0.984 . S
H419 N413 0.985 . S
H420 N417 0.984 . S
H421 N417 0.985 . S
H422 N416 0.982 1_455 S
H423 N416 0.988 1_455 S
H424 N412 0.984 . S
H425 N412 0.985 . S
C211 C58 1.188 . S
C213 C187 1.292 . S
C229 C151 1.618 . S
C231 C193 1.460 . S
C247 C74 1.579 . S
C249 C184 1.489 . S
C265 C142 1.188 . S
C267 C209 1.292 . S
C283 C67 1.618 . S
C285 C175 1.460 . S
C303 C192 1.489 . S
C301 C158 1.579 . S
C319 C154 1.149 . S
C321 C188 1.296 . S
C339 C205 1.500 . S
C337 C56 1.635 . S
C357 C172 1.432 . S
C355 C147 1.626 . S
C375 C208 1.296 . S
C373 C70 1.149 . S
C393 C171 1.500 . S
C391 C140 1.635 . S
C411 C196 1.432 . S
C409 C63 1.626 . S
