# Generated by pormake.
# Topology gar, (4,6)-cn, num edge types: 1
# Building blocks:
#     Node 0, Type 0, BuildingBlock: CEKHIL_clean_sbu_0, # of connection points: 4
#     Node 1, Type 0, BuildingBlock: CEKHIL_clean_sbu_0, # of connection points: 4
#     Node 2, Type 0, BuildingBlock: CEKHIL_clean_sbu_0, # of connection points: 4
#     Node 3, Type 0, BuildingBlock: CEKHIL_clean_sbu_0, # of connection points: 4
#     Node 4, Type 0, BuildingBlock: CEKHIL_clean_sbu_0, # of connection points: 4
#     Node 5, Type 0, BuildingBlock: CEKHIL_clean_sbu_0, # of connection points: 4
#     Node 6, Type 0, BuildingBlock: CEKHIL_clean_sbu_0, # of connection points: 4
#     Node 7, Type 0, BuildingBlock: CEKHIL_clean_sbu_0, # of connection points: 4
#     Node 8, Type 0, BuildingBlock: CEKHIL_clean_sbu_0, # of connection points: 4
#     Node 9, Type 0, BuildingBlock: CEKHIL_clean_sbu_0, # of connection points: 4
#     Node 10, Type 0, BuildingBlock: CEKHIL_clean_sbu_0, # of connection points: 4
#     Node 11, Type 0, BuildingBlock: CEKHIL_clean_sbu_0, # of connection points: 4
#     Node 12, Type 0, BuildingBlock: CEKHIL_clean_sbu_0, # of connection points: 4
#     Node 13, Type 0, BuildingBlock: CEKHIL_clean_sbu_0, # of connection points: 4
#     Node 14, Type 0, BuildingBlock: CEKHIL_clean_sbu_0, # of connection points: 4
#     Node 15, Type 0, BuildingBlock: CEKHIL_clean_sbu_0, # of connection points: 4
#     Node 16, Type 0, BuildingBlock: CEKHIL_clean_sbu_0, # of connection points: 4
#     Node 17, Type 0, BuildingBlock: CEKHIL_clean_sbu_0, # of connection points: 4
#     Node 18, Type 0, BuildingBlock: CEKHIL_clean_sbu_0, # of connection points: 4
#     Node 19, Type 0, BuildingBlock: CEKHIL_clean_sbu_0, # of connection points: 4
#     Node 20, Type 0, BuildingBlock: CEKHIL_clean_sbu_0, # of connection points: 4
#     Node 21, Type 0, BuildingBlock: CEKHIL_clean_sbu_0, # of connection points: 4
#     Node 22, Type 0, BuildingBlock: CEKHIL_clean_sbu_0, # of connection points: 4
#     Node 23, Type 0, BuildingBlock: CEKHIL_clean_sbu_0, # of connection points: 4
#     Node 24, Type 1, BuildingBlock: PAMTUU_clean_sbu_0, # of connection points: 6
#     Node 25, Type 1, BuildingBlock: PAMTUU_clean_sbu_0, # of connection points: 6
#     Node 26, Type 1, BuildingBlock: PAMTUU_clean_sbu_0, # of connection points: 6
#     Node 27, Type 1, BuildingBlock: PAMTUU_clean_sbu_0, # of connection points: 6
#     Node 28, Type 1, BuildingBlock: PAMTUU_clean_sbu_0, # of connection points: 6
#     Node 29, Type 1, BuildingBlock: PAMTUU_clean_sbu_0, # of connection points: 6
#     Node 30, Type 1, BuildingBlock: PAMTUU_clean_sbu_0, # of connection points: 6
#     Node 31, Type 1, BuildingBlock: PAMTUU_clean_sbu_0, # of connection points: 6
#     Node 32, Type 1, BuildingBlock: PAMTUU_clean_sbu_0, # of connection points: 6
#     Node 33, Type 1, BuildingBlock: PAMTUU_clean_sbu_0, # of connection points: 6
#     Node 34, Type 1, BuildingBlock: PAMTUU_clean_sbu_0, # of connection points: 6
#     Node 35, Type 1, BuildingBlock: PAMTUU_clean_sbu_0, # of connection points: 6
#     Node 36, Type 1, BuildingBlock: PAMTUU_clean_sbu_0, # of connection points: 6
#     Node 37, Type 1, BuildingBlock: PAMTUU_clean_sbu_0, # of connection points: 6
#     Node 38, Type 1, BuildingBlock: PAMTUU_clean_sbu_0, # of connection points: 6
#     Node 39, Type 1, BuildingBlock: PAMTUU_clean_sbu_0, # of connection points: 6
#     Edge 40, Type (0, 1), BuildingBlock: UVAHIK_clean_linker_0, # of connection points: 2
#     Edge 41, Type (0, 1), BuildingBlock: UVAHIK_clean_linker_0, # of connection points: 2
#     Edge 42, Type (0, 1), BuildingBlock: UVAHIK_clean_linker_0, # of connection points: 2
#     Edge 43, Type (0, 1), BuildingBlock: UVAHIK_clean_linker_0, # of connection points: 2
#     Edge 44, Type (0, 1), BuildingBlock: UVAHIK_clean_linker_0, # of connection points: 2
#     Edge 45, Type (0, 1), BuildingBlock: UVAHIK_clean_linker_0, # of connection points: 2
#     Edge 46, Type (0, 1), BuildingBlock: UVAHIK_clean_linker_0, # of connection points: 2
#     Edge 47, Type (0, 1), BuildingBlock: UVAHIK_clean_linker_0, # of connection points: 2
#     Edge 48, Type (0, 1), BuildingBlock: UVAHIK_clean_linker_0, # of connection points: 2
#     Edge 49, Type (0, 1), BuildingBlock: UVAHIK_clean_linker_0, # of connection points: 2
#     Edge 50, Type (0, 1), BuildingBlock: UVAHIK_clean_linker_0, # of connection points: 2
#     Edge 51, Type (0, 1), BuildingBlock: UVAHIK_clean_linker_0, # of connection points: 2
#     Edge 52, Type (0, 1), BuildingBlock: UVAHIK_clean_linker_0, # of connection points: 2
#     Edge 53, Type (0, 1), BuildingBlock: UVAHIK_clean_linker_0, # of connection points: 2
#     Edge 54, Type (0, 1), BuildingBlock: UVAHIK_clean_linker_0, # of connection points: 2
#     Edge 55, Type (0, 1), BuildingBlock: UVAHIK_clean_linker_0, # of connection points: 2
#     Edge 56, Type (0, 1), BuildingBlock: UVAHIK_clean_linker_0, # of connection points: 2
#     Edge 57, Type (0, 1), BuildingBlock: UVAHIK_clean_linker_0, # of connection points: 2
#     Edge 58, Type (0, 1), BuildingBlock: UVAHIK_clean_linker_0, # of connection points: 2
#     Edge 59, Type (0, 1), BuildingBlock: UVAHIK_clean_linker_0, # of connection points: 2
#     Edge 60, Type (0, 1), BuildingBlock: UVAHIK_clean_linker_0, # of connection points: 2
#     Edge 61, Type (0, 1), BuildingBlock: UVAHIK_clean_linker_0, # of connection points: 2
#     Edge 62, Type (0, 1), BuildingBlock: UVAHIK_clean_linker_0, # of connection points: 2
#     Edge 63, Type (0, 1), BuildingBlock: UVAHIK_clean_linker_0, # of connection points: 2
#     Edge 64, Type (0, 1), BuildingBlock: UVAHIK_clean_linker_0, # of connection points: 2
#     Edge 65, Type (0, 1), BuildingBlock: UVAHIK_clean_linker_0, # of connection points: 2
#     Edge 66, Type (0, 1), BuildingBlock: UVAHIK_clean_linker_0, # of connection points: 2
#     Edge 67, Type (0, 1), BuildingBlock: UVAHIK_clean_linker_0, # of connection points: 2
#     Edge 68, Type (0, 1), BuildingBlock: UVAHIK_clean_linker_0, # of connection points: 2
#     Edge 69, Type (0, 1), BuildingBlock: UVAHIK_clean_linker_0, # of connection points: 2
#     Edge 70, Type (0, 1), BuildingBlock: UVAHIK_clean_linker_0, # of connection points: 2
#     Edge 71, Type (0, 1), BuildingBlock: UVAHIK_clean_linker_0, # of connection points: 2
#     Edge 72, Type (0, 1), BuildingBlock: UVAHIK_clean_linker_0, # of connection points: 2
#     Edge 73, Type (0, 1), BuildingBlock: UVAHIK_clean_linker_0, # of connection points: 2
#     Edge 74, Type (0, 1), BuildingBlock: UVAHIK_clean_linker_0, # of connection points: 2
#     Edge 75, Type (0, 1), BuildingBlock: UVAHIK_clean_linker_0, # of connection points: 2
#     Edge 76, Type (0, 1), BuildingBlock: UVAHIK_clean_linker_0, # of connection points: 2
#     Edge 77, Type (0, 1), BuildingBlock: UVAHIK_clean_linker_0, # of connection points: 2
#     Edge 78, Type (0, 1), BuildingBlock: UVAHIK_clean_linker_0, # of connection points: 2
#     Edge 79, Type (0, 1), BuildingBlock: UVAHIK_clean_linker_0, # of connection points: 2
#     Edge 80, Type (0, 1), BuildingBlock: UVAHIK_clean_linker_0, # of connection points: 2
#     Edge 81, Type (0, 1), BuildingBlock: UVAHIK_clean_linker_0, # of connection points: 2
#     Edge 82, Type (0, 1), BuildingBlock: UVAHIK_clean_linker_0, # of connection points: 2
#     Edge 83, Type (0, 1), BuildingBlock: UVAHIK_clean_linker_0, # of connection points: 2
#     Edge 84, Type (0, 1), BuildingBlock: UVAHIK_clean_linker_0, # of connection points: 2
#     Edge 85, Type (0, 1), BuildingBlock: UVAHIK_clean_linker_0, # of connection points: 2
#     Edge 86, Type (0, 1), BuildingBlock: UVAHIK_clean_linker_0, # of connection points: 2
#     Edge 87, Type (0, 1), BuildingBlock: UVAHIK_clean_linker_0, # of connection points: 2
#     Edge 88, Type (0, 1), BuildingBlock: UVAHIK_clean_linker_0, # of connection points: 2
#     Edge 89, Type (0, 1), BuildingBlock: UVAHIK_clean_linker_0, # of connection points: 2
#     Edge 90, Type (0, 1), BuildingBlock: UVAHIK_clean_linker_0, # of connection points: 2
#     Edge 91, Type (0, 1), BuildingBlock: UVAHIK_clean_linker_0, # of connection points: 2
#     Edge 92, Type (0, 1), BuildingBlock: UVAHIK_clean_linker_0, # of connection points: 2
#     Edge 93, Type (0, 1), BuildingBlock: UVAHIK_clean_linker_0, # of connection points: 2
#     Edge 94, Type (0, 1), BuildingBlock: UVAHIK_clean_linker_0, # of connection points: 2
#     Edge 95, Type (0, 1), BuildingBlock: UVAHIK_clean_linker_0, # of connection points: 2
#     Edge 96, Type (0, 1), BuildingBlock: UVAHIK_clean_linker_0, # of connection points: 2
#     Edge 97, Type (0, 1), BuildingBlock: UVAHIK_clean_linker_0, # of connection points: 2
#     Edge 98, Type (0, 1), BuildingBlock: UVAHIK_clean_linker_0, # of connection points: 2
#     Edge 99, Type (0, 1), BuildingBlock: UVAHIK_clean_linker_0, # of connection points: 2
#     Edge 100, Type (0, 1), BuildingBlock: UVAHIK_clean_linker_0, # of connection points: 2
#     Edge 101, Type (0, 1), BuildingBlock: UVAHIK_clean_linker_0, # of connection points: 2
#     Edge 102, Type (0, 1), BuildingBlock: UVAHIK_clean_linker_0, # of connection points: 2
#     Edge 103, Type (0, 1), BuildingBlock: UVAHIK_clean_linker_0, # of connection points: 2
#     Edge 104, Type (0, 1), BuildingBlock: UVAHIK_clean_linker_0, # of connection points: 2
#     Edge 105, Type (0, 1), BuildingBlock: UVAHIK_clean_linker_0, # of connection points: 2
#     Edge 106, Type (0, 1), BuildingBlock: UVAHIK_clean_linker_0, # of connection points: 2
#     Edge 107, Type (0, 1), BuildingBlock: UVAHIK_clean_linker_0, # of connection points: 2
#     Edge 108, Type (0, 1), BuildingBlock: UVAHIK_clean_linker_0, # of connection points: 2
#     Edge 109, Type (0, 1), BuildingBlock: UVAHIK_clean_linker_0, # of connection points: 2
#     Edge 110, Type (0, 1), BuildingBlock: UVAHIK_clean_linker_0, # of connection points: 2
#     Edge 111, Type (0, 1), BuildingBlock: UVAHIK_clean_linker_0, # of connection points: 2
#     Edge 112, Type (0, 1), BuildingBlock: UVAHIK_clean_linker_0, # of connection points: 2
#     Edge 113, Type (0, 1), BuildingBlock: UVAHIK_clean_linker_0, # of connection points: 2
#     Edge 114, Type (0, 1), BuildingBlock: UVAHIK_clean_linker_0, # of connection points: 2
#     Edge 115, Type (0, 1), BuildingBlock: UVAHIK_clean_linker_0, # of connection points: 2
#     Edge 116, Type (0, 1), BuildingBlock: UVAHIK_clean_linker_0, # of connection points: 2
#     Edge 117, Type (0, 1), BuildingBlock: UVAHIK_clean_linker_0, # of connection points: 2
#     Edge 118, Type (0, 1), BuildingBlock: UVAHIK_clean_linker_0, # of connection points: 2
#     Edge 119, Type (0, 1), BuildingBlock: UVAHIK_clean_linker_0, # of connection points: 2
#     Edge 120, Type (0, 1), BuildingBlock: UVAHIK_clean_linker_0, # of connection points: 2
#     Edge 121, Type (0, 1), BuildingBlock: UVAHIK_clean_linker_0, # of connection points: 2
#     Edge 122, Type (0, 1), BuildingBlock: UVAHIK_clean_linker_0, # of connection points: 2
#     Edge 123, Type (0, 1), BuildingBlock: UVAHIK_clean_linker_0, # of connection points: 2
#     Edge 124, Type (0, 1), BuildingBlock: UVAHIK_clean_linker_0, # of connection points: 2
#     Edge 125, Type (0, 1), BuildingBlock: UVAHIK_clean_linker_0, # of connection points: 2
#     Edge 126, Type (0, 1), BuildingBlock: UVAHIK_clean_linker_0, # of connection points: 2
#     Edge 127, Type (0, 1), BuildingBlock: UVAHIK_clean_linker_0, # of connection points: 2
#     Edge 128, Type (0, 1), BuildingBlock: UVAHIK_clean_linker_0, # of connection points: 2
#     Edge 129, Type (0, 1), BuildingBlock: UVAHIK_clean_linker_0, # of connection points: 2
#     Edge 130, Type (0, 1), BuildingBlock: UVAHIK_clean_linker_0, # of connection points: 2
#     Edge 131, Type (0, 1), BuildingBlock: UVAHIK_clean_linker_0, # of connection points: 2
#     Edge 132, Type (0, 1), BuildingBlock: UVAHIK_clean_linker_0, # of connection points: 2
#     Edge 133, Type (0, 1), BuildingBlock: UVAHIK_clean_linker_0, # of connection points: 2
#     Edge 134, Type (0, 1), BuildingBlock: UVAHIK_clean_linker_0, # of connection points: 2
#     Edge 135, Type (0, 1), BuildingBlock: UVAHIK_clean_linker_0, # of connection points: 2
# Relax obj value: 0.150
# Max RMSD: 0.308
# Mean RMSD: 0.153
data_MOF--net-gar--node1-CEKHIL_clean_sbu_0--node2-PAMTUU_clean_sbu_0--edge1-UVAHIK_clean_linker_0
_symmetry_space_group_name_H-M    P1
_symmetry_Int_Tables_number       1
_symmetry_cell_setting            triclinic
loop_
_symmetry_equiv_pos_as_xyz
'x, y, z'
_cell_length_a     76.777505
_cell_length_b     72.015735
_cell_length_c     74.385721
_cell_angle_alpha  93.433361
_cell_angle_beta   93.44492
_cell_angle_gamma 106.08566
loop_
_atom_site_label
_atom_site_type_symbol
_atom_site_fract_x
_atom_site_fract_y
_atom_site_fract_z
_atom_type_partial_charge
Co0 Co 0.051 0.27711 0.38778 0.0
O1 O 0.07846 0.2814 0.39079 0.0
O2 O 0.06311 0.27037 0.36557 0.0
C3 C 0.05062 0.30772 0.40249 0.0
O4 O 0.02287 0.27266 0.3767 0.0
Co5 Co 0.02546 0.27523 0.41755 0.0
O6 O 1.00639 0.27784 0.39934 0.0
C7 C 0.04019 0.2414 0.41258 0.0
C8 C 0.07926 0.27568 0.37402 0.0
C9 C 1.00755 0.275 0.38245 0.0
O10 O 0.04673 0.24861 0.39762 0.0
O11 O 0.03227 0.25093 0.42277 0.0
O12 O 0.05477 0.30594 0.38588 0.0
O13 O 0.04811 0.29154 0.40998 0.0
Co14 Co 0.03234 0.78748 0.66231 0.0
O15 O 1.00525 0.78519 0.65903 0.0
O16 O 0.01756 0.78039 0.68417 0.0
C17 C 0.04009 0.81817 0.64831 0.0
O18 O 0.05988 0.78921 0.67365 0.0
Co19 Co 0.05842 0.7904 0.63388 0.0
O20 O 0.0794 0.79469 0.65214 0.0
C21 C 0.03498 0.75088 0.63783 0.0
C22 C 1.00266 0.78167 0.67571 0.0
C23 C 0.07661 0.7921 0.6686 0.0
O24 O 0.02872 0.75811 0.65198 0.0
O25 O 0.04596 0.76195 0.62814 0.0
O26 O 0.03695 0.81674 0.66523 0.0
O27 O 0.03877 0.80131 0.64026 0.0
Co28 Co 0.55071 0.77826 0.88803 0.0
O29 O 0.57819 0.78289 0.89114 0.0
O30 O 0.56299 0.772 0.8658 0.0
C31 C 0.54983 0.80851 0.90303 0.0
O32 O 0.52264 0.77349 0.87677 0.0
Co33 Co 0.52472 0.77533 0.91744 0.0
O34 O 0.50529 0.77705 0.89919 0.0
C35 C 0.53966 0.74181 0.91194 0.0
C36 C 0.57911 0.77739 0.87432 0.0
C37 C 0.50693 0.77485 0.88232 0.0
O38 O 0.54671 0.74968 0.89745 0.0
O39 O 0.53119 0.7507 0.92213 0.0
O40 O 0.55415 0.80703 0.88644 0.0
O41 O 0.54741 0.79223 0.91036 0.0
Co42 Co 0.53296 0.2884 0.16231 0.0
O43 O 0.50579 0.28544 0.15882 0.0
O44 O 0.51815 0.28064 0.18397 0.0
C45 C 0.54019 0.31933 0.14875 0.0
O46 O 0.56052 0.29074 0.17393 0.0
Co47 Co 0.56008 0.29336 0.13456 0.0
O48 O 0.58075 0.29847 0.15323 0.0
C49 C 0.53816 0.25273 0.13836 0.0
C50 C 0.5032 0.28173 0.17547 0.0
C51 C 0.57751 0.29483 0.1694 0.0
O52 O 0.53024 0.25924 0.15168 0.0
O53 O 0.54959 0.26453 0.1296 0.0
O54 O 0.53676 0.31753 0.16556 0.0
O55 O 0.53951 0.30273 0.14058 0.0
Co56 Co 0.07103 0.79989 0.13234 0.0
O57 O 0.04476 0.79432 0.12964 0.0
O58 O 0.06039 0.7895 0.15391 0.0
C59 C 0.07606 0.82994 0.12159 0.0
O60 O 0.09777 0.80426 0.14131 0.0
Co61 Co 0.09554 0.80721 0.10127 0.0
O62 O 0.1166 0.81344 0.11963 0.0
C63 C 0.07435 0.767 0.10613 0.0
C64 C 0.04469 0.78898 0.14601 0.0
C65 C 0.11393 0.8097 0.13591 0.0
O66 O 0.06959 0.77286 0.12133 0.0
O67 O 0.08338 0.77872 0.09549 0.0
O68 O 0.0731 0.82733 0.13839 0.0
O69 O 0.07543 0.81436 0.11162 0.0
Co70 Co 0.51296 0.76963 0.41915 0.0
O71 O 0.53917 0.77445 0.42172 0.0
O72 O 0.52166 0.76138 0.39698 0.0
C73 C 0.51269 0.79914 0.43177 0.0
O74 O 0.48594 0.7637 0.41009 0.0
Co75 Co 0.48929 0.76871 0.45096 0.0
O76 O 0.47043 0.77129 0.43262 0.0
C77 C 0.50423 0.7357 0.44338 0.0
C78 C 0.53794 0.76743 0.40503 0.0
C79 C 0.47148 0.76698 0.41594 0.0
O80 O 0.50989 0.74293 0.4286 0.0
O81 O 0.49646 0.7443 0.45461 0.0
O82 O 0.51592 0.79686 0.41495 0.0
O83 O 0.51095 0.78395 0.44075 0.0
Co84 Co 0.57099 0.29975 0.63256 0.0
O85 O 0.54472 0.29445 0.63025 0.0
O86 O 0.56059 0.28965 0.65435 0.0
C87 C 0.576 0.32975 0.62163 0.0
O88 O 0.59782 0.30392 0.64117 0.0
Co89 Co 0.59501 0.30668 0.60111 0.0
O90 O 0.61631 0.31271 0.61916 0.0
C91 C 0.57369 0.26659 0.6063 0.0
C92 C 0.54483 0.2893 0.64668 0.0
C93 C 0.61388 0.30911 0.63551 0.0
O94 O 0.56919 0.27256 0.62159 0.0
O95 O 0.58261 0.27822 0.59552 0.0
O96 O 0.57335 0.32728 0.6385 0.0
O97 O 0.57514 0.31407 0.6117 0.0
Co98 Co 0.01227 0.26964 0.92038 0.0
O99 O 0.03847 0.27455 0.92312 0.0
O100 O 0.02116 0.26157 0.89824 0.0
C101 C 0.01193 0.2991 0.93306 0.0
O102 O 0.98526 0.26367 0.91119 0.0
Co103 Co 0.98841 0.26856 0.95203 0.0
O104 O 0.96979 0.27155 0.93362 0.0
C105 C 1.00342 0.23558 0.94447 0.0
C106 C 0.03739 0.26768 0.90641 0.0
C107 C 0.97085 0.26717 0.91696 0.0
O108 O 0.00919 0.2429 0.92975 0.0
O109 O 0.99554 0.24412 0.95565 0.0
O110 O 0.01521 0.29688 0.91624 0.0
O111 O 0.01015 0.28388 0.94199 0.0
Co112 Co 0.42389 0.05092 0.30621 0.0
O113 O 0.42738 0.07716 0.29956 0.0
O114 O 0.40103 0.05422 0.2977 0.0
C115 C 0.44108 0.05791 0.3325 0.0
O116 O 0.41422 0.02287 0.31188 0.0
Co117 Co 0.45487 0.03117 0.31131 0.0
O118 O 0.43639 0.01016 0.3213 0.0
C119 C 0.4414 0.03734 0.2747 0.0
C120 C 0.40997 0.07182 0.29494 0.0
C121 C 0.41962 0.00912 0.31843 0.0
O122 O 0.4284 0.04305 0.28099 0.0
O123 O 0.45377 0.03305 0.28452 0.0
O124 O 0.42448 0.05924 0.33176 0.0
O125 O 0.44705 0.05405 0.3173 0.0
Co126 Co 0.29693 0.18456 0.51741 0.0
O127 O 0.32321 0.18922 0.5206 0.0
O128 O 0.30301 0.16229 0.52635 0.0
C129 C 0.29649 0.19573 0.48913 0.0
O130 O 0.26935 0.17266 0.5152 0.0
Co131 Co 0.27712 0.21554 0.51268 0.0
O132 O 0.25422 0.19416 0.50864 0.0
C133 C 0.29043 0.20999 0.54966 0.0
C134 C 0.31998 0.17167 0.52561 0.0
C135 C 0.25443 0.17699 0.51153 0.0
O136 O 0.29618 0.19584 0.54326 0.0
O137 O 0.2834 0.22018 0.53949 0.0
O138 O 0.29741 0.17829 0.49145 0.0
O139 O 0.29689 0.20638 0.50391 0.0
Co140 Co 0.16777 0.01401 0.8203 0.0
O141 O 0.16646 0.98766 0.81236 0.0
O142 O 0.18928 0.01356 0.80869 0.0
C143 C 0.15847 0.00828 0.84801 0.0
O144 O 0.17465 0.04299 0.82666 0.0
Co145 Co 0.13435 0.02738 0.83097 0.0
O146 O 0.15199 0.05326 0.83743 0.0
C147 C 0.13818 0.01612 0.79293 0.0
C148 C 0.18222 0.99492 0.80619 0.0
C149 C 0.16837 0.05646 0.83332 0.0
O150 O 0.15495 0.01688 0.79668 0.0
O151 O 0.12733 0.01769 0.80497 0.0
O152 O 0.17539 0.01009 0.84511 0.0
O153 O 0.14784 0.00854 0.83404 0.0
Co154 Co 0.27643 0.914 0.99759 0.0
O155 O 0.25294 0.91434 0.00485 0.0
O156 O 0.27798 0.93895 0.00964 0.0
C157 C 0.26726 0.90051 0.96933 0.0
O158 O 0.30271 0.91931 0.99169 0.0
Co159 Co 0.28508 0.87515 0.98713 0.0
O160 O 0.30853 0.89213 0.98049 0.0
C161 C 0.2845 0.88775 0.02558 0.0
C162 C 0.26065 0.93209 0.01129 0.0
C163 C 0.31337 0.91034 0.98481 0.0
O164 O 0.28243 0.90407 0.02125 0.0
O165 O 0.28428 0.87382 0.01393 0.0
O166 O 0.26974 0.91898 0.97296 0.0
O167 O 0.26855 0.8907 0.98305 0.0
Co168 Co 0.28778 0.37318 0.02759 0.0
O169 O 0.26163 0.36922 0.02713 0.0
O170 O 0.2823 0.3964 0.03711 0.0
C171 C 0.28809 0.36043 0.99866 0.0
O172 O 0.31553 0.3841 0.02904 0.0
Co173 Co 0.30553 0.34005 0.02409 0.0
O174 O 0.32813 0.36063 0.02072 0.0
C175 C 0.29112 0.34774 0.05889 0.0
C176 C 0.26521 0.38719 0.03355 0.0
C177 C 0.32936 0.3784 0.02479 0.0
O178 O 0.2883 0.36329 0.05296 0.0
O179 O 0.29665 0.33579 0.04885 0.0
O180 O 0.28713 0.378 0.00196 0.0
O181 O 0.28718 0.35044 0.01269 0.0
Co182 Co 0.80115 0.14348 0.04206 0.0
O183 O 0.82633 0.14407 0.04378 0.0
O184 O 0.80358 0.11914 0.04971 0.0
C185 C 0.80084 0.15557 0.01494 0.0
O186 O 0.77361 0.13704 0.04079 0.0
Co187 Co 0.789 0.18115 0.0396 0.0
O188 O 0.76471 0.16274 0.03255 0.0
C189 C 0.80412 0.17204 0.07442 0.0
C190 C 0.82089 0.12631 0.04816 0.0
C191 C 0.76121 0.14489 0.03556 0.0
O192 O 0.8034 0.15486 0.06785 0.0
O193 O 0.80059 0.18498 0.06488 0.0
O194 O 0.79954 0.13729 0.01595 0.0
O195 O 0.80404 0.16601 0.0301 0.0
Co196 Co 0.1532 0.50744 0.24374 0.0
O197 O 0.15211 0.48092 0.24723 0.0
O198 O 0.17443 0.50194 0.23525 0.0
C199 C 0.14506 0.5145 0.27103 0.0
O200 O 0.16008 0.53593 0.23909 0.0
Co201 Co 0.11964 0.52344 0.24479 0.0
O202 O 0.13784 0.54926 0.24574 0.0
C203 C 0.12209 0.49459 0.21601 0.0
C204 C 0.16792 0.48473 0.24065 0.0
C205 C 0.15409 0.55075 0.24188 0.0
O206 O 0.13942 0.49914 0.21945 0.0
O207 O 0.11161 0.50115 0.22579 0.0
O208 O 0.16182 0.51468 0.26914 0.0
O209 O 0.13377 0.5087 0.25694 0.0
Co210 Co 0.78653 0.87297 0.5255 0.0
O211 O 0.76041 0.869 0.52548 0.0
O212 O 0.7812 0.89644 0.53449 0.0
C213 C 0.78646 0.85927 0.49691 0.0
O214 O 0.81424 0.88388 0.52628 0.0
Co215 Co 0.80428 0.8397 0.5229 0.0
O216 O 0.82677 0.86009 0.51881 0.0
C217 C 0.79015 0.84854 0.55749 0.0
C218 C 0.76408 0.88713 0.53142 0.0
C219 C 0.828 0.87798 0.52216 0.0
O220 O 0.78757 0.86402 0.55119 0.0
O221 O 0.79536 0.83614 0.54772 0.0
O222 O 0.78531 0.87684 0.49967 0.0
O223 O 0.78584 0.84982 0.51127 0.0
Co224 Co 0.92013 0.0418 0.23858 0.0
O225 O 0.92112 0.06884 0.24137 0.0
O226 O 0.8963 0.0446 0.23338 0.0
C227 C 0.93655 0.04117 0.26437 0.0
O228 O 0.91306 0.01238 0.2354 0.0
Co229 Co 0.95414 0.02697 0.23512 0.0
O230 O 0.9376 1.00151 0.23963 0.0
C231 C 0.93886 0.04237 0.20384 0.0
C232 C 0.90364 0.06304 0.23734 0.0
C233 C 0.92044 0.9986 0.23765 0.0
O234 O 0.92543 0.0442 0.21255 0.0
O235 O 0.95201 0.03664 0.21062 0.0
O236 O 0.91943 0.04029 0.26447 0.0
O237 O 0.94359 0.04418 0.24907 0.0
Co238 Co 0.30329 0.64561 0.54377 0.0
O239 O 0.3287 0.64706 0.54519 0.0
O240 O 0.3067 0.62188 0.55201 0.0
C241 C 0.30225 0.65686 0.51629 0.0
O242 O 0.27565 0.63819 0.54293 0.0
Co243 Co 0.28917 0.68193 0.54012 0.0
O244 O 0.26599 0.6622 0.53167 0.0
C245 C 0.30334 0.67374 0.57589 0.0
C246 C 0.32386 0.62941 0.54996 0.0
C247 C 0.26302 0.64484 0.53609 0.0
O248 O 0.30548 0.6576 0.56936 0.0
O249 O 0.29811 0.68565 0.56626 0.0
O250 O 0.30151 0.63877 0.51776 0.0
O251 O 0.30522 0.66768 0.53124 0.0
Co252 Co 0.41913 0.54201 0.7378 0.0
O253 O 0.42155 0.56922 0.74232 0.0
O254 O 0.39612 0.54683 0.73207 0.0
C255 C 0.43396 0.53872 0.7638 0.0
O256 O 0.41079 0.51267 0.73263 0.0
Co257 Co 0.45226 0.52558 0.73456 0.0
O258 O 0.4344 0.5005 0.73778 0.0
C259 C 0.43934 0.5438 0.70387 0.0
C260 C 0.40427 0.56483 0.7374 0.0
C261 C 0.41742 0.49831 0.73479 0.0
O262 O 0.42588 0.54601 0.71234 0.0
O263 O 0.45164 0.53675 0.71059 0.0
O264 O 0.417 0.53863 0.76337 0.0
O265 O 0.4418 0.54244 0.749 0.0
Co266 Co 0.64966 0.00595 0.745 0.0
O267 O 0.64739 0.9791 0.74807 0.0
O268 O 0.66999 0.99924 0.73561 0.0
C269 C 0.64282 0.01358 0.77267 0.0
O270 O 0.65756 0.03451 0.74062 0.0
Co271 Co 0.6171 0.02349 0.74727 0.0
O272 O 0.63594 0.04876 0.74736 0.0
C273 C 0.61781 0.99465 0.71789 0.0
C274 C 0.66286 0.98209 0.74088 0.0
C275 C 0.65205 0.04967 0.74339 0.0
O276 O 0.63513 0.99847 0.72101 0.0
O277 O 0.60787 1.00155 0.72809 0.0
O278 O 0.65921 0.01271 0.77021 0.0
O279 O 0.63102 0.00822 0.75894 0.0
Co280 Co 0.79872 0.68579 0.01577 0.0
O281 O 0.82493 0.69 0.01903 0.0
O282 O 0.80439 0.6633 0.02474 0.0
C283 C 0.79844 0.6969 0.98743 0.0
O284 O 0.77108 0.67442 0.01345 0.0
Co285 Co 0.77981 0.71752 0.01119 0.0
O286 O 0.75672 0.69645 0.00642 0.0
C287 C 0.79342 0.71204 0.04805 0.0
C288 C 0.82144 0.67243 0.02404 0.0
C289 C 0.75643 0.67914 0.00938 0.0
O290 O 0.79811 0.69718 0.04162 0.0
O291 O 0.78703 0.72271 0.03785 0.0
O292 O 0.79914 0.67941 0.98981 0.0
O293 O 0.79909 0.70767 0.0022 0.0
Co294 Co 0.92984 0.5477 0.80418 0.0
O295 O 0.9332 0.57465 0.80009 0.0
O296 O 0.90747 0.55084 0.79433 0.0
C297 C 0.9446 0.5521 0.83158 0.0
O298 O 0.92027 0.51899 0.80701 0.0
Co299 Co 0.96117 0.52852 0.80923 0.0
O300 O 0.94215 0.5051 0.81469 0.0
C301 C 0.95098 0.53936 0.77337 0.0
C302 C 0.91624 0.56896 0.79371 0.0
C303 C 0.92547 0.5044 0.81173 0.0
O304 O 0.9368 0.54302 0.77916 0.0
O305 O 0.96295 0.53464 0.78337 0.0
O306 O 0.92788 0.55302 0.82986 0.0
O307 O 0.95215 0.55026 0.81681 0.0
Co308 Co 0.77516 0.41048 0.50028 0.0
O309 O 0.75092 0.40937 0.50639 0.0
O310 O 0.77536 0.4342 0.51375 0.0
C311 C 0.76773 0.3991 0.47118 0.0
O312 O 0.80196 0.41748 0.49613 0.0
Co313 Co 0.78644 0.37392 0.48713 0.0
O314 O 0.80969 0.39272 0.48223 0.0
C315 C 0.78347 0.38246 0.52616 0.0
C316 C 0.75792 0.42677 0.51408 0.0
C317 C 0.8136 0.41029 0.48873 0.0
O318 O 0.78024 0.39868 0.52319 0.0
O319 O 0.78481 0.37016 0.51353 0.0
O320 O 0.76966 0.41728 0.4759 0.0
O321 O 0.76881 0.38834 0.4842 0.0
Co322 Co 0.6657 0.51612 0.3192 0.0
O323 O 0.66541 0.49001 0.31164 0.0
O324 O 0.68738 0.5165 0.30749 0.0
C325 C 0.65677 0.51025 0.34699 0.0
O326 O 0.67156 0.54502 0.32552 0.0
Co327 Co 0.6313 0.5277 0.32956 0.0
O328 O 0.648 0.55417 0.33571 0.0
C329 C 0.6353 0.51564 0.29187 0.0
C330 C 0.68105 0.49773 0.30542 0.0
C331 C 0.66457 0.55797 0.33206 0.0
O332 O 0.65242 0.51809 0.29553 0.0
O333 O 0.6243 0.51649 0.30395 0.0
O334 O 0.67378 0.51281 0.34401 0.0
O335 O 0.64588 0.5099 0.33303 0.0
Tb336 Tb 0.06523 0.04875 0.04184 0.0
Tb337 Tb 0.02778 0.02096 0.02052 0.0
C338 C 0.02806 0.04445 0.0571 0.0
C339 C 0.11294 0.06255 0.05679 0.0
C340 C 0.14222 0.04622 0.05691 0.0
C341 C 0.13864 0.05549 0.07284 0.0
C342 C 0.12395 0.06353 0.07279 0.0
C343 C 0.11731 0.05422 0.04071 0.0
C344 C 0.13175 0.04608 0.0408 0.0
C345 C 0.09566 0.06768 0.0571 0.0
O346 O 0.05891 0.02044 0.05341 0.0
O347 O 0.04272 1.00094 0.02908 0.0
O348 O 0.04817 0.0245 0.00103 0.0
O349 O 0.0735 0.03144 0.02102 0.0
O350 O 1.00451 0.99737 0.02107 0.0
O351 O 0.00829 0.01478 0.99829 0.0
O352 O 0.02662 0.05076 0.01885 0.0
O353 O 0.05717 0.06564 0.02094 0.0
O354 O 0.04349 0.05702 0.05452 0.0
O355 O 0.02321 0.0272 0.04844 0.0
C356 C 0.05242 1.00316 0.04464 0.0
O357 O 0.08913 0.07154 0.04163 0.0
O358 O 0.08307 0.05616 0.06547 0.0
C359 C 0.06553 0.02623 0.00471 0.0
C360 C 0.97985 0.00746 0.00991 0.0
C361 C 0.94914 0.02064 0.01485 0.0
C362 C 0.94793 0.00465 0.00251 0.0
C363 C 0.9633 0.99813 0.99998 0.0
C364 C 0.98079 0.02295 0.02264 0.0
C365 C 0.96561 0.02943 0.02513 0.0
C366 C 0.99666 1.00226 0.0068 0.0
C367 C 0.04038 0.06558 0.01611 0.0
H368 H 0.14657 0.05563 0.08541 0.0
H369 H 0.12073 0.06975 0.08535 0.0
H370 H 0.10911 0.05323 0.02815 0.0
H371 H 0.13436 0.03904 0.02837 0.0
H372 H 0.93535 0.99768 0.99442 0.0
H373 H 0.96239 0.98618 0.99007 0.0
H374 H 0.99343 0.03037 0.0304 0.0
H375 H 0.96685 0.04158 0.03492 0.0
Tb376 Tb 0.27772 0.77992 0.29132 0.0
Tb377 Tb 0.30268 0.78062 0.2571 0.0
C378 C 0.26456 0.78805 0.2524 0.0
C379 C 0.25458 0.76409 0.3317 0.0
C380 C 0.24997 0.73972 0.36016 0.0
C381 C 0.24063 0.75396 0.35918 0.0
C382 C 0.24292 0.76606 0.34498 0.0
C383 C 0.26357 0.74963 0.33238 0.0
C384 C 0.26126 0.73752 0.34648 0.0
C385 C 0.25753 0.77707 0.31713 0.0
O386 O 0.27888 0.75049 0.28554 0.0
O387 O 0.28322 0.75206 0.25549 0.0
O388 O 0.31601 0.76858 0.27838 0.0
O389 O 0.30491 0.78109 0.30291 0.0
O390 O 0.3045 0.77406 0.22952 0.0
O391 O 0.32848 0.7882 0.24705 0.0
O392 O 0.3124 0.80876 0.272 0.0
O393 O 0.28718 0.8103 0.2864 0.0
O394 O 0.26026 0.7787 0.26684 0.0
O395 O 0.28155 0.7939 0.2484 0.0
C396 C 0.2775 0.74205 0.26922 0.0
O397 O 0.27369 0.78927 0.31764 0.0
O398 O 0.25217 0.76857 0.30102 0.0
C399 C 0.31705 0.77366 0.2958 0.0
C400 C 0.32598 0.79957 0.21851 0.0
C401 C 0.33011 0.82849 0.19409 0.0
C402 C 0.33597 0.81192 0.19016 0.0
C403 C 0.33386 0.7975 0.20231 0.0
C404 C 0.3209 0.81647 0.22283 0.0
C405 C 0.32298 0.83083 0.21075 0.0
C406 C 0.32165 0.7837 0.23039 0.0
C407 C 0.30314 0.81863 0.2808 0.0
H408 H 0.2318 0.75591 0.36951 0.0
H409 H 0.23581 0.77711 0.34451 0.0
H410 H 0.27264 0.74796 0.32218 0.0
H411 H 0.2689 0.72695 0.34704 0.0
H412 H 0.34132 0.80963 0.17733 0.0
H413 H 0.33777 0.78448 0.19877 0.0
H414 H 0.31475 0.81827 0.23531 0.0
H415 H 0.31849 0.84351 0.21419 0.0
Tb416 Tb 0.51961 0.02534 0.53431 0.0
Tb417 Tb 0.56326 0.03136 0.52651 0.0
C418 C 0.54553 0.00982 0.55936 0.0
C419 C 0.47544 0.03734 0.53909 0.0
C420 C 0.45208 0.06185 0.53865 0.0
C421 C 0.45037 0.04751 0.55105 0.0
C422 C 0.46187 0.03541 0.55122 0.0
C423 C 0.47752 0.05189 0.52694 0.0
C424 C 0.46596 0.06396 0.5267 0.0
C425 C 0.48683 0.02371 0.53899 0.0
O426 O 0.53584 0.05135 0.55045 0.0
O427 O 0.56088 0.06039 0.53401 0.0
O428 O 0.54873 0.0347 0.5014 0.0
O429 O 0.52673 0.04572 0.51404 0.0
O430 O 0.59097 0.04103 0.53588 0.0
O431 O 0.58266 0.02737 0.50902 0.0
O432 O 0.55019 1.00041 0.52229 0.0
O433 O 0.52039 1.00037 0.51612 0.0
O434 O 0.52888 0.00659 0.55199 0.0
O435 O 0.55939 0.0228 0.55377 0.0
C436 C 0.55004 0.06464 0.54573 0.0
O437 O 0.49259 0.01956 0.5235 0.0
O438 O 0.49951 0.02643 0.55216 0.0
C439 C 0.53565 0.04314 0.50012 0.0
C440 C 0.60852 0.02154 0.52385 0.0
C441 C 0.63245 0.99795 0.52763 0.0
C442 C 0.6385 0.01668 0.52161 0.0
C443 C 0.62666 0.0283 0.51975 0.0
C444 C 0.60235 1.00291 0.52994 0.0
C445 C 0.61419 0.99123 0.53179 0.0
C446 C 0.59618 0.0339 0.5213 0.0
C447 C 0.53348 0.99172 0.51553 0.0
H448 H 0.44015 0.04563 0.56072 0.0
H449 H 0.46005 0.02438 0.56079 0.0
H450 H 0.48791 0.05376 0.51746 0.0
H451 H 0.46766 0.07465 0.51683 0.0
H452 H 0.65233 0.02229 0.51801 0.0
H453 H 0.63168 0.04257 0.51493 0.0
H454 H 0.58838 0.9974 0.53321 0.0
H455 H 0.60906 0.97701 0.53665 0.0
Tb456 Tb 0.31153 0.27015 0.78044 0.0
Tb457 Tb 0.27193 0.28046 0.77428 0.0
C458 C 0.27471 0.24215 0.79014 0.0
C459 C 0.3578 0.26534 0.77243 0.0
C460 C 0.38799 0.26925 0.75127 0.0
C461 C 0.38524 0.2567 0.76531 0.0
C462 C 0.37035 0.2548 0.77575 0.0
C463 C 0.36036 0.27786 0.75844 0.0
C464 C 0.37531 0.27982 0.74799 0.0
C465 C 0.34187 0.26255 0.78327 0.0
O466 O 0.3058 0.26831 0.75132 0.0
O467 O 0.27486 0.26408 0.74922 0.0
O468 O 0.29066 0.30224 0.7606 0.0
O469 O 0.31755 0.30054 0.77507 0.0
O470 O 0.2441 0.27011 0.76601 0.0
O471 O 0.25579 0.29972 0.77686 0.0
O472 O 0.28526 0.2954 0.80009 0.0
O473 O 0.30404 0.27663 0.80764 0.0
O474 O 0.2901 0.24347 0.78279 0.0
O475 O 0.2679 0.25687 0.79158 0.0
C476 C 0.28992 0.26319 0.74194 0.0
O477 O 0.33893 0.2781 0.79082 0.0
O478 O 0.32686 0.25046 0.77595 0.0
C479 C 0.3082 0.30935 0.76492 0.0
C480 C 0.22548 0.28406 0.78392 0.0
C481 C 0.19551 0.2806 0.80541 0.0
C482 C 0.20823 0.29872 0.80419 0.0
C483 C 0.22297 0.30044 0.79352 0.0
C484 C 0.21283 0.26593 0.78524 0.0
C485 C 0.19807 0.26423 0.79584 0.0
C486 C 0.24077 0.28606 0.77205 0.0
C487 C 0.2952 0.28931 0.8122 0.0
H488 H 0.39445 0.24805 0.76808 0.0
H489 H 0.36853 0.24491 0.78636 0.0
H490 H 0.35077 0.28607 0.75558 0.0
H491 H 0.37701 0.28977 0.73746 0.0
H492 H 0.20659 0.31168 0.81119 0.0
H493 H 0.23231 0.31465 0.79264 0.0
H494 H 0.21422 0.25298 0.77799 0.0
H495 H 0.18868 0.25002 0.79661 0.0
Tb496 Tb 0.03992 0.03911 0.5429 0.0
Tb497 Tb 0.04601 0.01558 0.50701 0.0
C498 C 1.00645 0.01159 0.51846 0.0
C499 C 0.04672 0.05765 0.58996 0.0
C500 C 0.06321 0.05401 0.62377 0.0
C501 C 0.04728 0.06007 0.62261 0.0
C502 C 0.03907 0.06187 0.60577 0.0
C503 C 0.06285 0.05208 0.59109 0.0
C504 C 0.07106 0.05034 0.60785 0.0
C505 C 0.03714 0.05713 0.57228 0.0
O506 O 0.0478 0.01376 0.55368 0.0
O507 O 0.04325 0.99381 0.52764 0.0
O508 O 0.073 0.02605 0.52113 0.0
O509 O 0.06798 0.05156 0.53737 0.0
O510 O 0.03974 0.98987 0.4901 0.0
O511 O 0.06041 0.01515 0.4839 0.0
O512 O 0.04668 0.04508 0.49816 0.0
O513 O 0.03322 0.05682 0.52123 0.0
O514 O 0.0133 0.01988 0.53444 0.0
O515 O 0.01669 0.01171 0.50493 0.0
C516 C 0.04571 0.99621 0.54553 0.0
O517 O 0.04726 0.06494 0.5598 0.0
O518 O 0.0263 0.04029 0.56644 0.0
C519 C 0.07913 0.04311 0.53002 0.0
C520 C 0.04176 0.99633 0.45939 0.0
C521 C 0.02536 0.99746 0.42471 0.0
C522 C 0.04431 0.00474 0.42832 0.0
C523 C 0.05243 0.0041 0.4455 0.0
C524 C 0.02291 0.98831 0.45558 0.0
C525 C 0.01483 0.98879 0.4384 0.0
C526 C 0.05021 0.99798 0.47794 0.0
C527 C 0.03972 0.05868 0.50506 0.0
H528 H 0.04103 0.06311 0.6347 0.0
H529 H 0.02654 0.06603 0.60506 0.0
H530 H 0.06878 0.04848 0.57897 0.0
H531 H 0.08313 0.04533 0.6083 0.0
H532 H 0.0528 0.01165 0.41813 0.0
H533 H 0.06699 0.01034 0.44812 0.0
H534 H 0.01428 0.98211 0.46596 0.0
H535 H 1.00025 0.98269 0.43594 0.0
Tb536 Tb 0.30033 0.79891 0.76558 0.0
Tb537 Tb 0.28129 0.76041 0.7846 0.0
C538 C 0.29994 0.75825 0.74844 0.0
C539 C 0.30233 0.84425 0.74701 0.0
C540 C 0.28286 0.87158 0.74172 0.0
C541 C 0.30108 0.87551 0.73741 0.0
C542 C 0.31076 0.86185 0.74 0.0
C543 C 0.28417 0.84031 0.75117 0.0
C544 C 0.27453 0.85377 0.74852 0.0
C545 C 0.31216 0.82995 0.75075 0.0
O546 O 0.27153 0.78953 0.75302 0.0
O547 O 0.25743 0.77025 0.77423 0.0
O548 O 0.28527 0.78375 0.80532 0.0
O549 O 0.28612 0.80828 0.78718 0.0
O550 O 0.26385 0.73196 0.78212 0.0
O551 O 0.27684 0.74522 0.80793 0.0
O552 O 0.31113 0.76321 0.78971 0.0
O553 O 0.32339 0.79484 0.78359 0.0
O554 O 0.30921 0.77651 0.75126 0.0
O555 O 0.28621 0.75068 0.75781 0.0
C556 C 0.25625 0.78029 0.75998 0.0
O557 O 0.3155 0.82822 0.76788 0.0
O558 O 0.30538 0.81309 0.74178 0.0
C559 C 0.28413 0.80118 0.80294 0.0
C560 C 0.27633 0.71284 0.80037 0.0
C561 C 0.29346 0.68312 0.79611 0.0
C562 C 0.27444 0.67899 0.79305 0.0
C563 C 0.26595 0.69378 0.79508 0.0
C564 C 0.29512 0.7167 0.80457 0.0
C565 C 0.3036 0.70205 0.80241 0.0
C566 C 0.26828 0.72902 0.79864 0.0
C567 C 0.32547 0.77879 0.79034 0.0
H568 H 0.30784 0.88915 0.73218 0.0
H569 H 0.32481 0.86512 0.73679 0.0
H570 H 0.2775 0.82693 0.75684 0.0
H571 H 0.26071 0.85045 0.75245 0.0
H572 H 0.26619 0.6645 0.78846 0.0
H573 H 0.25144 0.69053 0.79169 0.0
H574 H 0.30349 0.73128 0.8086 0.0
H575 H 0.31827 0.70593 0.80465 0.0
Tb576 Tb 0.53925 0.01665 0.04366 0.0
Tb577 Tb 0.53355 0.03569 0.00708 0.0
C578 C 0.57191 0.04065 0.02472 0.0
C579 C 0.54568 0.0116 0.09206 0.0
C580 C 0.53749 0.02439 0.126 0.0
C581 C 0.54096 0.00623 0.12338 0.0
C582 C 0.54472 0.99974 0.10638 0.0
C583 C 0.54492 0.03071 0.09529 0.0
C584 C 0.54069 0.03704 0.1121 0.0
C585 C 0.54353 1.003 0.07349 0.0
O586 O 0.53174 0.04351 0.05289 0.0
O587 O 0.53798 0.06045 0.02785 0.0
O588 O 0.50802 0.02815 0.01938 0.0
O589 O 0.51253 1.00147 0.0308 0.0
O590 O 0.54078 0.05841 0.99022 0.0
O591 O 0.51722 0.03385 0.98303 0.0
O592 O 0.5334 0.00551 0.99749 0.0
O593 O 0.54478 0.99545 0.02325 0.0
O594 O 0.56444 0.03838 0.04007 0.0
O595 O 0.56186 0.03603 0.00944 0.0
C596 C 0.53451 0.06012 0.04509 0.0
O597 O 0.52774 1.00169 0.06521 0.0
O598 O 0.55679 0.00976 0.0634 0.0
C599 C 0.50143 0.01075 0.02442 0.0
C600 C 0.53568 0.04557 0.96023 0.0
C601 C 0.54896 0.03688 0.92741 0.0
C602 C 0.53362 0.04398 0.92755 0.0
C603 C 0.52702 0.04831 0.94392 0.0
C604 C 0.55084 0.03832 0.96011 0.0
C605 C 0.5575 0.03417 0.94388 0.0
C606 C 0.52855 0.04907 0.97744 0.0
C607 C 0.53972 0.9925 0.00569 0.0
H608 H 0.5393 0.9964 0.13401 0.0
H609 H 0.54548 0.98499 0.10411 0.0
H610 H 0.54592 0.04015 0.08439 0.0
H611 H 0.53823 0.05113 0.11351 0.0
H612 H 0.52667 0.04604 0.91505 0.0
H613 H 0.51512 0.05362 0.94386 0.0
H614 H 0.55756 0.03588 0.97261 0.0
H615 H 0.56955 0.02913 0.9443 0.0
Tb616 Tb 0.28327 0.25503 0.26795 0.0
Tb617 Tb 0.30083 0.29847 0.28427 0.0
C618 C 0.28493 0.2904 0.24384 0.0
C619 C 0.28344 0.20855 0.24604 0.0
C620 C 0.30399 0.1851 0.23169 0.0
C621 C 0.28506 0.18028 0.22737 0.0
C622 C 0.27484 0.19204 0.23444 0.0
C623 C 0.30234 0.21352 0.24987 0.0
C624 C 0.31249 0.20207 0.24272 0.0
C625 C 0.27298 0.22007 0.25526 0.0
O626 O 0.31327 0.26014 0.26435 0.0
O627 O 0.32318 0.2931 0.2684 0.0
O628 O 0.3094 0.28034 0.30364 0.0
O629 O 0.28503 0.25414 0.29714 0.0
O630 O 0.31798 0.3264 0.28236 0.0
O631 O 0.30513 0.31874 0.30679 0.0
O632 O 0.27211 0.29182 0.29288 0.0
O633 O 0.25828 0.26272 0.27667 0.0
O634 O 0.2855 0.27243 0.24474 0.0
O635 O 0.28684 0.30198 0.25864 0.0
C636 C 0.32616 0.27653 0.2627 0.0
O637 O 0.27879 0.22565 0.27204 0.0
O638 O 0.2697 0.2342 0.24675 0.0
C639 C 0.29848 0.26424 0.30841 0.0
C640 C 0.30814 0.35047 0.29826 0.0
C641 C 0.2915 0.38057 0.29627 0.0
C642 C 0.29064 0.37024 0.31178 0.0
C643 C 0.29894 0.35533 0.31279 0.0
C644 C 0.31024 0.36185 0.28342 0.0
C645 C 0.30194 0.3767 0.2824 0.0
C646 C 0.31434 0.33283 0.298 0.0
C647 C 0.25713 0.27731 0.28809 0.0
H648 H 0.27814 0.16719 0.21897 0.0
H649 H 0.26024 0.1879 0.23137 0.0
H650 H 0.30928 0.22572 0.25919 0.0
H651 H 0.3269 0.20594 0.24683 0.0
H652 H 0.28295 0.37317 0.32281 0.0
H653 H 0.29746 0.34707 0.32459 0.0
H654 H 0.31754 0.35871 0.27213 0.0
H655 H 0.30277 0.3843 0.27021 0.0
Tb656 Tb 0.54275 0.54179 0.04434 0.0
Tb657 Tb 0.54615 0.51746 0.0081 0.0
C658 C 0.50861 0.51262 0.02343 0.0
C659 C 0.54008 0.55511 0.09231 0.0
C660 C 0.54773 0.54505 0.12713 0.0
C661 C 0.55012 0.56458 0.12382 0.0
C662 C 0.54635 0.56958 0.10648 0.0
C663 C 0.53612 0.53553 0.09588 0.0
C664 C 0.53988 0.53051 0.11323 0.0
C665 C 0.54166 0.5605 0.07374 0.0
O666 O 0.54957 0.51576 0.05485 0.0
O667 O 0.54424 0.4958 0.02874 0.0
O668 O 0.57368 0.52885 0.02097 0.0
O669 O 0.56839 0.55579 0.03374 0.0
O670 O 0.53797 0.49154 0.99145 0.0
O671 O 0.55936 0.51576 0.98436 0.0
O672 O 0.54581 0.54634 0.9984 0.0
O673 O 0.53632 0.56027 0.02317 0.0
O674 O 0.51725 0.51915 0.03925 0.0
O675 O 0.51725 0.51524 0.00869 0.0
C676 C 0.54708 0.49819 0.04661 0.0
O677 O 0.5566 0.55893 0.06719 0.0
O678 O 0.52747 0.55331 0.06226 0.0
C679 C 0.57972 0.54701 0.02733 0.0
C680 C 0.53923 0.49739 0.96054 0.0
C681 C 0.52214 0.49823 0.92612 0.0
C682 C 0.54121 0.5045 0.9291 0.0
C683 C 0.54966 0.50401 0.94614 0.0
C684 C 0.52022 0.49049 0.95743 0.0
C685 C 0.51179 0.49081 0.94038 0.0
C686 C 0.54823 0.49889 0.97884 0.0
C687 C 0.54066 0.56091 0.00612 0.0
H688 H 0.55594 0.57603 0.1344 0.0
H689 H 0.5496 0.58475 0.10388 0.0
H690 H 0.53146 0.52419 0.085 0.0
H691 H 0.53802 0.51536 0.11537 0.0
H692 H 0.54958 0.51046 0.91846 0.0
H693 H 0.56434 0.50938 0.94823 0.0
H694 H 0.51177 0.48521 0.96823 0.0
H695 H 0.4971 0.48549 0.93844 0.0
Tb696 Tb 0.80235 0.30206 0.26433 0.0
Tb697 Tb 0.78269 0.26324 0.28296 0.0
C698 C 0.7985 0.26102 0.24571 0.0
C699 C 0.81189 0.35138 0.25147 0.0
C700 C 0.79406 0.38051 0.25273 0.0
C701 C 0.79952 0.37444 0.23626 0.0
C702 C 0.80838 0.35986 0.23563 0.0
C703 C 0.80757 0.35858 0.26809 0.0
C704 C 0.79868 0.37298 0.26869 0.0
C705 C 0.81688 0.33306 0.25032 0.0
O706 O 0.77288 0.30076 0.25966 0.0
O707 O 0.75999 0.26936 0.26591 0.0
O708 O 0.77758 0.28542 0.30088 0.0
O709 O 0.79625 0.31281 0.29039 0.0
O710 O 0.76243 0.23668 0.27956 0.0
O711 O 0.77968 0.24495 0.30434 0.0
O712 O 0.8115 0.27048 0.29508 0.0
O713 O 0.82582 0.29198 0.27547 0.0
O714 O 0.79752 0.27856 0.24345 0.0
O715 O 0.79707 0.25412 0.26153 0.0
C716 C 0.75827 0.28558 0.2593 0.0
O717 O 0.82334 0.3281 0.26532 0.0
O718 O 0.80462 0.31851 0.24172 0.0
C719 C 0.78536 0.30415 0.30217 0.0
C720 C 0.7746 0.21308 0.29155 0.0
C721 C 0.79305 0.18473 0.28703 0.0
C722 C 0.7882 0.18953 0.30421 0.0
C723 C 0.77903 0.20373 0.30648 0.0
C724 C 0.77858 0.20728 0.27423 0.0
C725 C 0.78777 0.19329 0.27203 0.0
C726 C 0.76853 0.23067 0.2942 0.0
C727 C 0.82683 0.28089 0.28897 0.0
H728 H 0.79591 0.38006 0.22381 0.0
H729 H 0.81145 0.35438 0.22267 0.0
H730 H 0.81003 0.35229 0.28051 0.0
H731 H 0.79451 0.37751 0.2815 0.0
H732 H 0.79231 0.18305 0.31592 0.0
H733 H 0.77624 0.2081 0.31994 0.0
H734 H 0.77546 0.21423 0.26242 0.0
H735 H 0.79145 0.1897 0.25868 0.0
Tb736 Tb 0.04091 0.51664 0.54248 0.0
Tb737 Tb 0.03542 0.53596 0.5058 0.0
C738 C 0.07375 0.54088 0.52374 0.0
C739 C 0.04982 0.51226 0.59053 0.0
C740 C 0.0452 0.52727 0.62493 0.0
C741 C 0.04707 0.50838 0.62235 0.0
C742 C 0.04906 0.50081 0.60514 0.0
C743 C 0.05075 0.53192 0.59354 0.0
C744 C 0.04833 0.53938 0.61062 0.0
C745 C 0.04591 0.50307 0.57216 0.0
O746 O 0.03384 0.54367 0.55194 0.0
O747 O 0.03937 0.56054 0.52673 0.0
O748 O 0.0096 0.52812 0.51755 0.0
O749 O 0.0138 0.50186 0.53037 0.0
O750 O 0.04258 0.55907 0.48936 0.0
O751 O 0.01957 0.53415 0.48143 0.0
O752 O 0.03537 0.50585 0.49603 0.0
O753 O 0.04567 0.4951 0.52196 0.0
O754 O 0.06622 0.5382 0.53903 0.0
O755 O 0.06384 0.53683 0.50836 0.0
C756 C 0.03624 0.5602 0.54406 0.0
O757 O 0.02997 0.50282 0.56485 0.0
O758 O 0.0586 0.50852 0.56115 0.0
C759 C 1.00291 0.51104 0.5233 0.0
C760 C 0.03844 0.54667 0.45912 0.0
C761 C 0.0518 0.53681 0.4267 0.0
C762 C 0.03476 0.54058 0.42654 0.0
C763 C 0.02811 0.54547 0.4427 0.0
C764 C 0.05549 0.54309 0.45926 0.0
C765 C 0.06217 0.53837 0.44321 0.0
C766 C 0.03083 0.54965 0.47623 0.0
C767 C 0.04107 0.49248 0.50431 0.0
H768 H 0.04534 0.4989 0.63327 0.0
H769 H 0.04854 0.48564 0.60301 0.0
H770 H 0.05162 0.54102 0.58238 0.0
H771 H 0.04705 0.55398 0.61203 0.0
H772 H 0.02644 0.53936 0.414 0.0
H773 H 0.01479 0.54789 0.44244 0.0
H774 H 0.06359 0.54367 0.47183 0.0
H775 H 0.0755 0.53598 0.44375 0.0
Tb776 Tb 0.81069 0.76866 0.27896 0.0
Tb777 Tb 0.7713 0.77942 0.27268 0.0
C778 C 0.77404 0.74051 0.28846 0.0
C779 C 0.85615 0.76239 0.26952 0.0
C780 C 0.88579 0.76474 0.2479 0.0
C781 C 0.8829 0.75249 0.26217 0.0
C782 C 0.86828 0.75137 0.27285 0.0
C783 C 0.85872 0.7744 0.25513 0.0
C784 C 0.87339 0.77559 0.24446 0.0
C785 C 0.8412 0.76148 0.28138 0.0
O786 O 0.79787 0.75501 0.25254 0.0
O787 O 0.77962 0.77447 0.24552 0.0
O788 O 0.79277 0.80627 0.27176 0.0
O789 O 0.81561 0.79364 0.26324 0.0
O790 O 0.74393 0.77136 0.26215 0.0
O791 O 0.75587 0.79903 0.27703 0.0
O792 O 0.77712 0.78146 0.30183 0.0
O793 O 0.80797 0.78485 0.30421 0.0
O794 O 0.79152 0.7476 0.29302 0.0
O795 O 0.76514 0.74893 0.27746 0.0
C796 C 0.78851 0.76198 0.24056 0.0
O797 O 0.83865 0.77802 0.28683 0.0
O798 O 0.82583 0.74841 0.27654 0.0
C799 C 0.80862 0.80822 0.26524 0.0
C800 C 0.72495 0.78374 0.28122 0.0
C801 C 0.69483 0.77904 0.30263 0.0
C802 C 0.70657 0.79755 0.3008 0.0
C803 C 0.72136 0.79987 0.29018 0.0
C804 C 0.71322 0.76518 0.283 0.0
C805 C 0.69832 0.76288 0.29353 0.0
C806 C 0.74083 0.78667 0.27008 0.0
C807 C 0.79297 0.78633 0.31128 0.0
H808 H 0.89189 0.74363 0.26506 0.0
H809 H 0.8665 0.74193 0.28382 0.0
H810 H 0.84949 0.78302 0.25227 0.0
H811 H 0.87521 0.78533 0.23375 0.0
H812 H 0.70417 0.81034 0.30739 0.0
H813 H 0.73003 0.81436 0.28895 0.0
H814 H 0.71555 0.75241 0.2763 0.0
H815 H 0.68964 0.7484 0.29475 0.0
Tb816 Tb 0.77768 0.27979 0.79073 0.0
Tb817 Tb 0.80227 0.27737 0.75673 0.0
C818 C 0.76445 0.2857 0.75103 0.0
C819 C 0.75523 0.26691 0.83192 0.0
C820 C 0.75069 0.24348 0.86108 0.0
C821 C 0.74263 0.25878 0.86046 0.0
C822 C 0.74485 0.27041 0.8459 0.0
C823 C 0.76303 0.25149 0.83235 0.0
C824 C 0.76074 0.23984 0.84678 0.0
C825 C 0.75815 0.27926 0.81687 0.0
O826 O 0.77757 0.24971 0.7863 0.0
O827 O 0.78218 0.24943 0.75622 0.0
O828 O 0.81481 0.26585 0.77893 0.0
O829 O 0.80492 0.28124 0.80245 0.0
O830 O 0.80445 0.2687 0.72972 0.0
O831 O 0.82826 0.2838 0.74711 0.0
O832 O 0.81236 0.30623 0.77005 0.0
O833 O 0.7872 0.30945 0.78356 0.0
O834 O 0.76009 0.27776 0.76618 0.0
O835 O 0.78136 0.29033 0.74659 0.0
C836 C 0.77615 0.24038 0.77035 0.0
O837 O 0.77452 0.29087 0.81673 0.0
O838 O 0.75221 0.27022 0.80106 0.0
C839 C 0.81644 0.27247 0.79601 0.0
C840 C 0.82686 0.29233 0.7174 0.0
C841 C 0.83439 0.31882 0.69069 0.0
C842 C 0.843 0.30393 0.69146 0.0
C843 C 0.83918 0.29071 0.70471 0.0
C844 C 0.81898 0.30771 0.71729 0.0
C845 C 0.82264 0.32078 0.70401 0.0
C846 C 0.82172 0.27786 0.73056 0.0
C847 C 0.80314 0.31702 0.77756 0.0
H848 H 0.7348 0.26186 0.87132 0.0
H849 H 0.7387 0.28225 0.84567 0.0
H850 H 0.77117 0.24868 0.82168 0.0
H851 H 0.76744 0.22844 0.84705 0.0
H852 H 0.85234 0.30221 0.68157 0.0
H853 H 0.84554 0.27902 0.7048 0.0
H854 H 0.80955 0.30925 0.72715 0.0
H855 H 0.81554 0.33184 0.70373 0.0
Tb856 Tb 0.78186 0.75841 0.76633 0.0
Tb857 Tb 0.80067 0.80157 0.78348 0.0
C858 C 0.78258 0.79478 0.74326 0.0
C859 C 0.77776 0.70821 0.75448 0.0
C860 C 0.79735 0.68066 0.75535 0.0
C861 C 0.78192 0.67762 0.74313 0.0
C862 C 0.77216 0.69139 0.74269 0.0
C863 C 0.79296 0.71109 0.76682 0.0
C864 C 0.80266 0.69748 0.76725 0.0
C865 C 0.76916 0.72383 0.75311 0.0
O866 O 0.81165 0.76201 0.76262 0.0
O867 O 0.82276 0.79488 0.76799 0.0
O868 O 0.80852 0.78394 0.80369 0.0
O869 O 0.78867 0.75439 0.79442 0.0
O870 O 0.81985 0.82858 0.78241 0.0
O871 O 0.80397 0.82259 0.80524 0.0
O872 O 0.77212 0.7954 0.79248 0.0
O873 O 0.75764 0.76691 0.77578 0.0
O874 O 0.77994 0.77606 0.74398 0.0
O875 O 0.7881 0.80689 0.75776 0.0
C876 C 0.82511 0.77816 0.76172 0.0
O877 O 0.76472 0.73038 0.76832 0.0
O878 O 0.77783 0.73791 0.74405 0.0
C879 C 0.8001 0.76603 0.80674 0.0
C880 C 0.80925 0.85378 0.79519 0.0
C881 C 0.79167 0.88276 0.79062 0.0
C882 C 0.79411 0.8764 0.80783 0.0
C883 C 0.80292 0.86206 0.81011 0.0
C884 C 0.80809 0.86127 0.77828 0.0
C885 C 0.7994 0.87566 0.77603 0.0
C886 C 0.81481 0.83594 0.79691 0.0
C887 C 0.75691 0.78124 0.78762 0.0
H888 H 0.77753 0.66474 0.73385 0.0
H889 H 0.76054 0.68913 0.73296 0.0
H890 H 0.79766 0.72418 0.77581 0.0
H891 H 0.81471 0.70048 0.77653 0.0
H892 H 0.78844 0.88184 0.81933 0.0
H893 H 0.80382 0.85663 0.82331 0.0
H894 H 0.81292 0.85527 0.7665 0.0
H895 H 0.7976 0.88018 0.76258 0.0
Tb896 Tb 0.56361 0.54737 0.54121 0.0
Tb897 Tb 0.52614 0.52025 0.51937 0.0
C898 C 0.52615 0.54475 0.55538 0.0
C899 C 0.60926 0.55726 0.56167 0.0
C900 C 0.637 0.53856 0.56146 0.0
C901 C 0.64045 0.55786 0.5569 0.0
C902 C 0.62665 0.56712 0.55697 0.0
C903 C 0.60617 0.53841 0.56728 0.0
C904 C 0.61992 0.52922 0.56726 0.0
C905 C 0.59377 0.56506 0.55755 0.0
O906 O 0.55653 0.51928 0.5531 0.0
O907 O 0.54018 0.49975 0.52885 0.0
O908 O 0.54702 0.52383 0.50047 0.0
O909 O 0.57163 0.52918 0.52099 0.0
O910 O 0.50139 0.49862 0.52023 0.0
O911 O 0.50854 0.51242 0.49573 0.0
O912 O 0.5257 0.55017 0.51695 0.0
O913 O 0.55634 0.56513 0.52063 0.0
O914 O 0.54195 0.55673 0.55289 0.0
O915 O 0.52067 0.52749 0.54677 0.0
C916 C 0.54981 0.50197 0.54447 0.0
O917 O 0.58995 0.56592 0.54036 0.0
O918 O 0.57913 0.55788 0.56582 0.0
C919 C 0.56412 0.52468 0.50447 0.0
C920 C 0.47855 0.50786 0.50389 0.0
C921 C 0.44737 0.52065 0.50825 0.0
C922 C 0.44642 0.50088 0.50878 0.0
C923 C 0.46193 0.49455 0.50664 0.0
C924 C 0.47937 0.52749 0.50292 0.0
C925 C 0.464 0.53381 0.50509 0.0
C926 C 0.49545 0.50194 0.5043 0.0
C927 C 0.53973 0.56505 0.51496 0.0
H928 H 0.65345 0.5654 0.55227 0.0
H929 H 0.62924 0.58156 0.55237 0.0
H930 H 0.59286 0.53033 0.57081 0.0
H931 H 0.61695 0.51448 0.57117 0.0
H932 H 0.43378 0.49037 0.51107 0.0
H933 H 0.46106 0.47938 0.50765 0.0
H934 H 0.49205 0.53816 0.50107 0.0
H935 H 0.46538 0.54918 0.50497 0.0
Tb936 Tb 0.02031 0.52524 0.0365 0.0
Tb937 Tb 0.06397 0.53117 0.02864 0.0
C938 C 0.04639 0.51004 0.06151 0.0
C939 C 0.97629 0.5375 0.04097 0.0
C940 C 0.9534 0.56245 0.03974 0.0
C941 C 0.95048 0.5474 0.05145 0.0
C942 C 0.96176 0.53506 0.05201 0.0
C943 C 0.97949 0.5527 0.02949 0.0
C944 C 0.96813 0.56498 0.02882 0.0
C945 C 0.98756 0.52376 0.04125 0.0
O946 O 0.03666 0.55148 0.05224 0.0
O947 O 0.06156 0.56028 0.03557 0.0
O948 O 0.04942 0.53425 0.00352 0.0
O949 O 0.02726 0.54525 0.01591 0.0
O950 O 0.09166 0.54058 0.03816 0.0
O951 O 0.08343 0.52723 0.01119 0.0
O952 O 0.05082 0.50021 0.02452 0.0
O953 O 0.02105 0.50026 0.01833 0.0
O954 O 0.02972 0.50648 0.05412 0.0
O955 O 0.05994 0.52353 0.05611 0.0
C956 C 0.05076 0.5647 0.04723 0.0
O957 O 0.99321 0.5192 0.02584 0.0
O958 O 1.00033 0.52678 0.05438 0.0
C959 C 0.03627 0.54257 0.00208 0.0
C960 C 0.10924 0.52122 0.02594 0.0
C961 C 0.13322 0.49764 0.02947 0.0
C962 C 0.13923 0.51644 0.0236 0.0
C963 C 0.12738 0.52806 0.02185 0.0
C964 C 0.10309 0.50252 0.03187 0.0
C965 C 0.11494 0.49084 0.0336 0.0
C966 C 0.0969 0.53361 0.02353 0.0
C967 C 0.03412 0.49158 0.01772 0.0
H968 H 0.93919 0.54485 0.05992 0.0
H969 H 0.95899 0.52343 0.06095 0.0
H970 H 0.99069 0.55501 0.02093 0.0
H971 H 0.97097 0.57654 0.01982 0.0
H972 H 0.15307 0.52212 0.02002 0.0
H973 H 0.13239 0.54238 0.01715 0.0
H974 H 0.08912 0.49695 0.03513 0.0
H975 H 0.10984 0.47657 0.03835 0.0
C976 C 0.02138 0.21089 0.94382 0.0
C977 C 1.00637 0.21677 0.9493 0.0
C978 C 0.0251 0.19427 0.95024 0.0
C979 C 0.01303 0.16022 0.98716 0.0
H980 H 0.03815 0.12972 0.95965 0.0
C981 C 0.01936 0.08566 0.00785 0.0
C982 C 0.03675 0.08274 0.00794 0.0
C983 C 0.01588 0.10184 0.00038 0.0
C984 C 0.03121 0.13816 0.96754 0.0
H985 H 0.98298 0.20906 0.9651 0.0
H986 H 0.98877 0.17984 0.9754 0.0
H987 H 0.03119 0.15749 0.94673 0.0
H988 H 0.06404 0.09453 0.99988 0.0
H989 H 0.05784 0.12256 0.98645 0.0
H990 H 0.01259 0.14044 0.00771 0.0
C991 C 0.99828 0.18839 0.96685 0.0
C992 C 0.02726 0.15422 0.96017 0.0
C993 C 0.99479 0.20514 0.96074 0.0
C994 C 0.05051 0.09634 0.00012 0.0
C995 C 0.04693 0.11235 0.99232 0.0
C996 C 0.01668 0.144 0.99436 0.0
C997 C 0.01374 0.18284 0.9621 0.0
C998 C 0.01806 0.16556 0.96984 0.0
C999 C 0.0296 0.1154 0.99247 0.0
C1000 C 0.02583 0.13274 0.98468 0.0
H1001 H 0.03068 0.21958 0.93515 0.0
H1002 H 0.03725 0.19079 0.94631 0.0
H1003 H 1.00643 0.1687 0.99541 0.0
H1004 H 0.00841 0.07554 0.01376 0.0
H1005 H 1.00235 0.10365 0.00063 0.0
C1006 C 0.12739 0.80334 0.16596 0.0
C1007 C 0.12988 0.8101 0.14866 0.0
C1008 C 0.14222 0.80201 0.17726 0.0
C1009 C 0.1928 0.81896 0.18479 0.0
H1010 H 0.18627 0.77281 0.21084 0.0
C1011 C 0.25317 0.80025 0.22403 0.0
C1012 C 0.24971 0.79164 0.24043 0.0
C1013 C 0.23891 0.80309 0.21275 0.0
C1014 C 0.18834 0.78593 0.20388 0.0
H1015 H 0.15026 0.82131 0.13004 0.0
H1016 H 0.17602 0.819 0.14973 0.0
H1017 H 0.16093 0.77715 0.19196 0.0
H1018 H 0.22841 0.77963 0.25787 0.0
H1019 H 0.20386 0.78481 0.23854 0.0
H1020 H 0.22024 0.82775 0.19679 0.0
C1021 C 0.16258 0.81479 0.15459 0.0
C1022 C 0.17373 0.78843 0.19301 0.0
C1023 C 0.14773 0.81604 0.14325 0.0
C1024 C 0.23167 0.78617 0.24531 0.0
C1025 C 0.21748 0.78903 0.23411 0.0
C1026 C 0.20743 0.81649 0.19573 0.0
C1027 C 0.16001 0.80747 0.17166 0.0
C1028 C 0.1757 0.805 0.18334 0.0
C1029 C 0.22082 0.7974 0.21758 0.0
C1030 C 0.2054 0.79997 0.20552 0.0
H1031 H 0.1139 0.79864 0.17066 0.0
H1032 H 0.13972 0.79661 0.19042 0.0
H1033 H 0.19482 0.832 0.1777 0.0
H1034 H 0.26687 0.80463 0.21978 0.0
H1035 H 0.24205 0.80941 0.20007 0.0
C1036 C 0.51489 0.83455 0.43037 0.0
C1037 C 0.51222 0.81818 0.4404 0.0
C1038 C 0.51548 0.85274 0.43871 0.0
C1039 C 0.52434 0.8804 0.48365 0.0
H1040 H 0.50443 0.91677 0.45893 0.0
C1041 C 0.54306 0.96162 0.50836 0.0
C1042 C 0.52951 0.97137 0.50739 0.0
C1043 C 0.53974 0.94264 0.50064 0.0
C1044 C 0.50992 0.90675 0.46612 0.0
H1045 H 0.50766 0.80809 0.46705 0.0
H1046 H 0.50856 0.83971 0.48157 0.0
H1047 H 0.50038 0.88424 0.44467 0.0
H1048 H 0.50168 0.96851 0.49747 0.0
H1049 H 0.49585 0.93527 0.48398 0.0
H1050 H 0.5338 0.90281 0.50512 0.0
C1051 C 0.51045 0.83858 0.46728 0.0
C1052 C 0.50778 0.88813 0.45784 0.0
C1053 C 0.50981 0.82039 0.45892 0.0
C1054 C 0.51246 0.96151 0.49849 0.0
C1055 C 0.50915 0.94246 0.49066 0.0
C1056 C 0.52654 0.89901 0.49189 0.0
C1057 C 0.51346 0.85508 0.45734 0.0
C1058 C 0.51507 0.87471 0.46643 0.0
C1059 C 0.52276 0.93275 0.49164 0.0
C1060 C 0.51951 0.91254 0.48319 0.0
H1061 H 0.51683 0.8334 0.41609 0.0
H1062 H 0.51804 0.86508 0.43062 0.0
H1063 H 0.5303 0.8706 0.49065 0.0
H1064 H 0.55639 0.96865 0.51506 0.0
H1065 H 0.55066 0.93582 0.50147 0.0
C1066 C 0.51135 0.28528 0.64813 0.0
C1067 C 0.52808 0.28482 0.65661 0.0
C1068 C 0.49587 0.28268 0.65786 0.0
C1069 C 0.47673 0.26483 0.70066 0.0
H1070 H 0.44482 0.2971 0.69129 0.0
C1071 C 0.42091 0.27066 0.74803 0.0
C1072 C 0.40392 0.27113 0.7401 0.0
C1073 C 0.43573 0.27193 0.73757 0.0
C1074 C 0.45345 0.2878 0.69396 0.0
H1075 H 0.54152 0.28093 0.68199 0.0
H1076 H 0.51467 0.27658 0.69898 0.0
H1077 H 0.47096 0.29955 0.6736 0.0
H1078 H 0.3894 0.27325 0.71472 0.0
H1079 H 0.41524 0.27562 0.69656 0.0
H1080 H 0.45929 0.25322 0.72115 0.0
C1081 C 0.51338 0.2787 0.68473 0.0
C1082 C 0.46848 0.28918 0.68377 0.0
C1083 C 0.52884 0.28127 0.67499 0.0
C1084 C 0.40228 0.27312 0.7214 0.0
C1085 C 0.41714 0.27445 0.71095 0.0
C1086 C 0.46173 0.26349 0.71088 0.0
C1087 C 0.4967 0.27959 0.67637 0.0
C1088 C 0.48039 0.27776 0.68699 0.0
C1089 C 0.43406 0.27378 0.71887 0.0
C1090 C 0.4499 0.275 0.70773 0.0
H1091 H 0.51024 0.28794 0.63398 0.0
H1092 H 0.48325 0.28313 0.65083 0.0
H1093 H 0.48536 0.25554 0.70337 0.0
H1094 H 0.42288 0.26954 0.76241 0.0
H1095 H 0.4486 0.27173 0.74423 0.0
C1096 C 0.04243 0.837 0.61915 0.0
C1097 C 0.04163 0.83691 0.63816 0.0
C1098 C 0.04307 0.85391 0.60963 0.0
C1099 C 0.05006 0.90979 0.61612 0.0
H1100 H 0.0327 0.90366 0.56566 0.0
C1101 C 0.04712 0.97928 0.57576 0.0
C1102 C 0.0459 0.97841 0.55658 0.0
C1103 C 0.04673 0.96262 0.58564 0.0
C1104 C 0.03794 0.90613 0.57967 0.0
H1105 H 0.04095 0.85597 0.66156 0.0
H1106 H 0.04209 0.88493 0.64539 0.0
H1107 H 0.03199 0.8753 0.582 0.0
H1108 H 0.04338 0.95793 0.53338 0.0
H1109 H 0.04309 0.92976 0.55005 0.0
H1110 H 0.05607 0.94063 0.61379 0.0
C1111 C 0.04239 0.87189 0.63756 0.0
C1112 C 0.0375 0.88936 0.58931 0.0
C1113 C 0.04165 0.85493 0.64706 0.0
C1114 C 0.04435 0.9598 0.548 0.0
C1115 C 0.04403 0.94321 0.55783 0.0
C1116 C 0.05058 0.9266 0.60645 0.0
C1117 C 0.04303 0.87201 0.61845 0.0
C1118 C 0.04355 0.89051 0.60791 0.0
C1119 C 0.04512 0.94388 0.57706 0.0
C1120 C 0.04455 0.92545 0.58781 0.0
H1121 H 0.04245 0.82379 0.6114 0.0
H1122 H 0.04381 0.85266 0.59516 0.0
H1123 H 0.05517 0.91213 0.63018 0.0
H1124 H 0.04823 0.99294 0.5833 0.0
H1125 H 0.04745 0.9646 0.60022 0.0
C1126 C 0.47199 0.76716 0.87733 0.0
C1127 C 0.48917 0.77333 0.86998 0.0
C1128 C 0.45527 0.7674 0.86801 0.0
C1129 C 0.43388 0.78771 0.82771 0.0
H1130 H 0.38923 0.75281 0.84098 0.0
C1131 C 0.36036 0.79418 0.79965 0.0
C1132 C 0.34452 0.77812 0.79876 0.0
C1133 C 0.37776 0.79351 0.80743 0.0
C1134 C 0.40134 0.76275 0.83675 0.0
H1135 H 0.50084 0.78496 0.84585 0.0
H1136 H 0.47187 0.78535 0.82957 0.0
H1137 H 0.41833 0.75137 0.85459 0.0
H1138 H 0.33602 0.74841 0.80587 0.0
H1139 H 0.36555 0.74718 0.81906 0.0
H1140 H 0.41674 0.79892 0.80967 0.0
C1141 C 0.4714 0.78016 0.84293 0.0
C1142 C 0.41852 0.76208 0.84496 0.0
C1143 C 0.48833 0.77972 0.85231 0.0
C1144 C 0.34735 0.76133 0.80613 0.0
C1145 C 0.3647 0.76068 0.81397 0.0
C1146 C 0.41662 0.78847 0.81955 0.0
C1147 C 0.45422 0.77403 0.85052 0.0
C1148 C 0.43548 0.77457 0.84085 0.0
C1149 C 0.38062 0.77675 0.81497 0.0
C1150 C 0.39965 0.77601 0.82378 0.0
H1151 H 0.47137 0.76221 0.8908 0.0
H1152 H 0.44306 0.76277 0.87504 0.0
H1153 H 0.44606 0.79783 0.8238 0.0
H1154 H 0.35936 0.80754 0.79433 0.0
H1155 H 0.38901 0.80651 0.80772 0.0
C1156 C 0.55086 0.22625 0.12485 0.0
C1157 C 0.53596 0.23107 0.13239 0.0
C1158 C 0.5497 0.20764 0.11661 0.0
C1159 C 0.52139 0.15426 0.10947 0.0
H1160 H 0.55251 0.1537 0.07049 0.0
C1161 C 0.52937 0.0799 0.07399 0.0
C1162 C 0.53373 0.07907 0.05574 0.0
C1163 C 0.52878 0.09758 0.08354 0.0
C1164 C 0.5435 0.1532 0.0812 0.0
H1165 H 0.50774 0.2182 0.13702 0.0
H1166 H 0.50567 0.18553 0.1228 0.0
H1167 H 0.55229 0.18426 0.08588 0.0
H1168 H 0.5408 0.09742 0.03373 0.0
H1169 H 0.53976 0.12749 0.04989 0.0
H1170 H 0.51249 0.123 0.10448 0.0
C1171 C 0.51856 0.19661 0.12334 0.0
C1172 C 0.54356 0.17115 0.09043 0.0
C1173 C 0.51974 0.21557 0.13171 0.0
C1174 C 0.53744 0.09694 0.04765 0.0
C1175 C 0.53695 0.11456 0.05718 0.0
C1176 C 0.52142 0.13618 0.10026 0.0
C1177 C 0.53348 0.19224 0.11516 0.0
C1178 C 0.5326 0.17235 0.10494 0.0
C1179 C 0.53266 0.11555 0.07546 0.0
C1180 C 0.53249 0.13507 0.08578 0.0
H1181 H 0.5638 0.23722 0.12503 0.0
H1182 H 0.56185 0.20544 0.1113 0.0
H1183 H 0.51268 0.15395 0.12043 0.0
H1184 H 0.5264 0.0668 0.08104 0.0
H1185 H 0.52554 0.09713 0.09749 0.0
C1186 C 0.09786 0.26913 0.34669 0.0
C1187 C 0.09744 0.2756 0.36509 0.0
C1188 C 0.11448 0.26926 0.33852 0.0
C1189 C 0.16802 0.28753 0.34651 0.0
H1190 H 0.16663 0.25634 0.30202 0.0
C1191 C 0.23703 0.29206 0.30924 0.0
C1192 C 0.23857 0.27728 0.29632 0.0
C1193 C 0.22034 0.29186 0.31725 0.0
C1194 C 0.16774 0.26523 0.31451 0.0
H1195 H 0.11586 0.2874 0.38876 0.0
H1196 H 0.14409 0.28755 0.37502 0.0
H1197 H 0.13856 0.25578 0.3159 0.0
H1198 H 0.22195 0.2504 0.28237 0.0
H1199 H 0.19354 0.24998 0.29593 0.0
H1200 H 0.19721 0.29679 0.34526 0.0
C1201 C 0.13154 0.28241 0.3665 0.0
C1202 C 0.15109 0.26504 0.32264 0.0
C1203 C 0.11492 0.28222 0.37467 0.0
C1204 C 0.22203 0.26231 0.292 0.0
C1205 C 0.20529 0.26213 0.29997 0.0
C1206 C 0.18466 0.28777 0.33835 0.0
C1207 C 0.13208 0.27594 0.34805 0.0
C1208 C 0.15047 0.27617 0.33902 0.0
C1209 C 0.20371 0.27687 0.31301 0.0
C1210 C 0.18529 0.27662 0.32199 0.0
H1211 H 0.08516 0.26391 0.33837 0.0
H1212 H 0.11334 0.26423 0.3244 0.0
H1213 H 0.16913 0.29666 0.35884 0.0
H1214 H 0.24894 0.30403 0.31336 0.0
H1215 H 0.22062 0.30387 0.32681 0.0
C1216 C 0.9405 0.03298 0.17167 0.0
C1217 C 0.93942 0.04708 0.185 0.0
C1218 C 0.94415 0.03804 0.15423 0.0
C1219 C 0.97351 0.07542 0.13428 0.0
H1220 H 0.95258 0.04452 0.0897 0.0
C1221 C 0.01781 0.06906 0.07579 0.0
C1222 C 0.01526 0.04976 0.06905 0.0
C1223 C 1.00509 0.07389 0.08652 0.0
C1224 C 0.95858 0.05339 0.10199 0.0
H1225 H 0.94049 0.07721 0.19081 0.0
H1226 H 0.9479 0.08637 0.16022 0.0
H1227 H 0.93425 0.04333 0.11554 0.0
H1228 H 0.99724 0.02049 0.06797 0.0
H1229 H 0.97566 0.02868 0.08703 0.0
H1230 H 0.99841 0.08383 0.12161 0.0
C1231 C 0.94534 0.07135 0.16317 0.0
C1232 C 0.948 0.05286 0.11666 0.0
C1233 C 0.94115 0.06614 0.18056 0.0
C1234 C 0.99969 0.03549 0.07301 0.0
C1235 C 0.9871 0.04027 0.08373 0.0
C1236 C 0.98419 0.07569 0.11971 0.0
C1237 C 0.94727 0.05738 0.15003 0.0
C1238 C 0.95572 0.06306 0.13319 0.0
C1239 C 0.98964 0.05949 0.0907 0.0
C1240 C 0.97714 0.06374 0.1038 0.0
H1241 H 0.93926 0.01823 0.17494 0.0
H1242 H 0.94588 0.02709 0.1444 0.0
H1243 H 0.97977 0.0833 0.14696 0.0
H1244 H 0.02955 0.08042 0.07272 0.0
H1245 H 1.00741 0.08885 0.09161 0.0
C1246 C 0.29633 0.68333 0.49922 0.0
C1247 C 0.29659 0.66394 0.49937 0.0
C1248 C 0.28983 0.69008 0.4838 0.0
C1249 C 0.26114 0.67417 0.44116 0.0
H1250 H 0.28587 0.72617 0.42942 0.0
C1251 C 0.24921 0.70887 0.37444 0.0
C1252 C 0.24957 0.72853 0.37624 0.0
C1253 C 0.25237 0.69939 0.38961 0.0
C1254 C 0.27869 0.71172 0.43266 0.0
H1255 H 0.2905 0.63639 0.48341 0.0
H1256 H 0.27951 0.6484 0.45607 0.0
H1257 H 0.29793 0.7126 0.45481 0.0
H1258 H 0.25226 0.75327 0.39541 0.0
H1259 H 0.25757 0.73665 0.42187 0.0
H1260 H 0.2421 0.67333 0.41854 0.0
C1261 C 0.28405 0.65826 0.46808 0.0
C1262 C 0.28561 0.70392 0.44718 0.0
C1263 C 0.29049 0.65144 0.48364 0.0
C1264 C 0.25182 0.73811 0.39359 0.0
C1265 C 0.25503 0.72866 0.40871 0.0
C1266 C 0.25428 0.68196 0.42644 0.0
C1267 C 0.28363 0.67766 0.46805 0.0
C1268 C 0.27679 0.68519 0.45178 0.0
C1269 C 0.25603 0.70948 0.40677 0.0
C1270 C 0.26289 0.70091 0.42226 0.0
H1271 H 0.30087 0.69332 0.51115 0.0
H1272 H 0.2894 0.705 0.48436 0.0
H1273 H 0.25396 0.65975 0.44446 0.0
H1274 H 0.24726 0.70108 0.36122 0.0
H1275 H 0.25304 0.68457 0.38779 0.0
C1276 C 0.59055 0.97165 0.70132 0.0
C1277 C 0.60879 0.98264 0.70148 0.0
C1278 C 0.58084 0.96296 0.68514 0.0
C1279 C 0.58447 0.95643 0.63535 0.0
H1280 H 0.54234 0.97623 0.6334 0.0
C1281 C 0.56728 0.99816 0.57863 0.0
C1282 C 0.54925 0.99781 0.57366 0.0
C1283 C 0.57113 0.98711 0.59221 0.0
C1284 C 0.55368 0.97002 0.63364 0.0
H1285 H 0.63177 0.99161 0.68534 0.0
H1286 H 0.61466 0.97729 0.65689 0.0
H1287 H 0.55613 0.9721 0.66235 0.0
H1288 H 0.52101 0.98484 0.57841 0.0
H1289 H 0.52784 0.9657 0.60259 0.0
H1290 H 0.58271 0.95594 0.60649 0.0
C1291 C 0.60785 0.97494 0.66923 0.0
C1292 C 0.56165 0.96761 0.65032 0.0
C1293 C 0.61766 0.98334 0.68551 0.0
C1294 C 0.53506 0.98559 0.58212 0.0
C1295 C 0.53894 0.97457 0.59586 0.0
C1296 C 0.5765 0.9589 0.61863 0.0
C1297 C 0.5891 0.96547 0.66878 0.0
C1298 C 0.57778 0.96192 0.65139 0.0
C1299 C 0.55705 0.97547 0.6012 0.0
C1300 C 0.56171 0.96685 0.61773 0.0
H1301 H 0.58355 0.97049 0.71361 0.0
H1302 H 0.56655 0.95535 0.6853 0.0
H1303 H 0.59662 0.95157 0.63575 0.0
H1304 H 0.57854 0.00717 0.57219 0.0
H1305 H 0.58525 0.98844 0.59624 0.0
C1306 C 0.28711 0.3629 0.96503 0.0
C1307 C 0.28957 0.35247 0.97993 0.0
C1308 C 0.288 0.35553 0.94732 0.0
C1309 C 0.30591 0.32122 0.91995 0.0
H1310 H 0.26951 0.32542 0.88324 0.0
C1311 C 0.30206 0.2873 0.84573 0.0
C1312 C 0.29577 0.29657 0.83161 0.0
C1313 C 0.30157 0.29363 0.86394 0.0
C1314 C 0.28003 0.32437 0.89315 0.0
H1315 H 0.29524 0.3261 0.98772 0.0
H1316 H 0.29709 0.31332 0.95673 0.0
H1317 H 0.26836 0.33725 0.91432 0.0
H1318 H 0.28452 0.32025 0.82584 0.0
H1319 H 0.28427 0.33163 0.85719 0.0
H1320 H 0.31787 0.30874 0.89874 0.0
C1321 C 0.29438 0.32724 0.95881 0.0
C1322 C 0.27929 0.33111 0.91111 0.0
C1323 C 0.29323 0.33452 0.97659 0.0
C1324 C 0.28935 0.31259 0.83626 0.0
C1325 C 0.28905 0.31904 0.85439 0.0
C1326 C 0.3068 0.31465 0.9019 0.0
C1327 C 0.29161 0.33757 0.94389 0.0
C1328 C 0.29225 0.32975 0.9248 0.0
C1329 C 0.29493 0.30956 0.86863 0.0
C1330 C 0.29392 0.31621 0.88811 0.0
H1331 H 0.2843 0.37678 0.96702 0.0
H1332 H 0.28602 0.36405 0.93626 0.0
H1333 H 0.31623 0.32005 0.93006 0.0
H1334 H 0.307 0.27484 0.84275 0.0
H1335 H 0.30604 0.28569 0.87433 0.0
C1336 C 0.96368 0.03337 0.27871 0.0
C1337 C 0.94663 0.03669 0.2802 0.0
C1338 C 0.97271 0.0281 0.29358 0.0
C1339 C 0.96398 0.00749 0.33761 0.0
H1340 H 0.01609 0.02873 0.34811 0.0
C1341 C 1.00013 0.00532 0.40673 0.0
C1342 C 0.01645 1.00003 0.40717 0.0
C1343 C 0.99191 0.00841 0.39042 0.0
C1344 C 1.00157 0.0225 0.34518 0.0
H1345 H 0.92587 0.03772 0.29844 0.0
H1346 H 0.9418 0.02909 0.32448 0.0
H1347 H 1.00127 0.03741 0.32118 0.0
H1348 H 0.03684 0.99369 0.39076 0.0
H1349 H 0.02251 0.99946 0.36215 0.0
H1350 H 0.96423 0.99303 0.36188 0.0
C1351 C 0.94801 0.02999 0.31175 0.0
C1352 C 0.99308 0.02745 0.32978 0.0
C1353 C 0.93894 0.03509 0.29688 0.0
C1354 C 0.02437 0.99793 0.39088 0.0
C1355 C 0.01618 1.00119 0.37453 0.0
C1356 C 0.97244 1.00268 0.35304 0.0
C1357 C 0.96488 0.0262 0.31022 0.0
C1358 C 0.97415 0.02021 0.32598 0.0
C1359 C 0.99988 0.00644 0.37419 0.0
C1360 C 0.99126 0.01034 0.35708 0.0
H1361 H 0.96991 0.03447 0.26599 0.0
H1362 H 0.98562 0.02513 0.29193 0.0
H1363 H 0.94945 1.00129 0.33484 0.0
H1364 H 0.9939 0.00754 0.41906 0.0
H1365 H 0.97951 0.0128 0.39056 0.0
C1366 C 0.31709 0.67103 0.60694 0.0
C1367 C 0.30579 0.67854 0.59563 0.0
C1368 C 0.31901 0.67592 0.62564 0.0
C1369 C 0.29471 0.68976 0.66185 0.0
H1370 H 0.34023 0.72236 0.6855 0.0
C1371 C 0.2965 0.72569 0.73261 0.0
C1372 C 0.30458 0.74584 0.73401 0.0
C1373 C 0.29956 0.71404 0.71817 0.0
C1374 C 0.32748 0.71309 0.67913 0.0
H1375 H 0.28742 0.69669 0.59505 0.0
H1376 H 0.29049 0.70474 0.62743 0.0
H1377 H 0.33958 0.70734 0.65486 0.0
H1378 H 0.32308 0.76941 0.72194 0.0
H1379 H 0.32809 0.7491 0.69644 0.0
H1380 H 0.28229 0.69622 0.6854 0.0
C1381 C 0.29799 0.69531 0.62188 0.0
C1382 C 0.32717 0.70438 0.66172 0.0
C1383 C 0.29635 0.69078 0.60333 0.0
C1384 C 0.31656 0.75395 0.72118 0.0
C1385 C 0.31957 0.74228 0.70666 0.0
C1386 C 0.29503 0.69829 0.67921 0.0
C1387 C 0.30927 0.68794 0.63319 0.0
C1388 C 0.31064 0.69324 0.65277 0.0
C1389 C 0.3107 0.72228 0.70475 0.0
C1390 C 0.31129 0.7106 0.6878 0.0
H1391 H 0.32454 0.66159 0.60133 0.0
H1392 H 0.32783 0.67016 0.63421 0.0
H1393 H 0.28181 0.68125 0.65511 0.0
H1394 H 0.28746 0.71891 0.74247 0.0
H1395 H 0.29277 0.69863 0.71721 0.0
C1396 C 0.6415 0.01187 0.8058 0.0
C1397 C 0.6375 0.01995 0.78995 0.0
C1398 C 0.63283 0.01459 0.82133 0.0
C1399 C 0.59068 0.02608 0.83306 0.0
H1400 H 0.61081 0.02767 0.88237 0.0
C1401 C 0.55802 0.04588 0.89667 0.0
C1402 C 0.55668 0.03302 0.91033 0.0
C1403 C 0.56736 0.04357 0.88158 0.0
C1404 C 0.60506 0.0271 0.86861 0.0
H1405 H 0.62288 0.03851 0.77805 0.0
H1406 H 0.60883 0.04445 0.80533 0.0
H1407 H 0.63013 0.02717 0.8575 0.0
H1408 H 0.56293 0.0069 0.91831 0.0
H1409 H 0.57979 1.00334 0.89215 0.0
H1410 H 0.5658 0.02665 0.84431 0.0
C1411 C 0.61781 0.0352 0.8057 0.0
C1412 C 0.61607 0.02679 0.8544 0.0
C1413 C 0.62603 0.03203 0.79013 0.0
C1414 C 0.56413 0.01732 0.90822 0.0
C1415 C 0.57371 0.01521 0.89329 0.0
C1416 C 0.57982 0.02674 0.84726 0.0
C1417 C 0.62038 0.02575 0.8212 0.0
C1418 C 0.609 0.02636 0.83647 0.0
C1419 C 0.57564 0.02853 0.88007 0.0
C1420 C 0.58695 0.02725 0.86509 0.0
H1421 H 0.65022 1.00235 0.8058 0.0
H1422 H 0.63508 0.00705 0.83302 0.0
H1423 H 0.58461 0.02514 0.8194 0.0
H1424 H 0.55259 0.05822 0.89799 0.0
H1425 H 0.56877 0.054 0.87147 0.0
C1426 C 0.28775 0.32456 0.08339 0.0
C1427 C 0.2885 0.34326 0.07823 0.0
C1428 C 0.2866 0.32018 0.10147 0.0
C1429 C 0.27673 0.33741 0.14749 0.0
H1430 H 0.30221 0.30075 0.16264 0.0
C1431 C 0.28485 0.31736 0.22299 0.0
C1432 C 0.28339 0.29772 0.22543 0.0
C1433 C 0.28489 0.32405 0.2055 0.0
C1434 C 0.29483 0.31087 0.15868 0.0
H1435 H 0.28812 0.37193 0.08851 0.0
H1436 H 0.28642 0.36438 0.12024 0.0
H1437 H 0.30352 0.31037 0.13194 0.0
H1438 H 0.28025 0.26975 0.21096 0.0
H1439 H 0.28029 0.28127 0.18098 0.0
H1440 H 0.26833 0.33798 0.1746 0.0
C1441 C 0.28654 0.35298 0.11012 0.0
C1442 C 0.29553 0.3164 0.14091 0.0
C1443 C 0.28756 0.35736 0.09186 0.0
C1444 C 0.28153 0.28499 0.20984 0.0
C1445 C 0.28167 0.29165 0.1925 0.0
C1446 C 0.27613 0.33194 0.16542 0.0
C1447 C 0.28634 0.33435 0.11528 0.0
C1448 C 0.28624 0.3295 0.13482 0.0
C1449 C 0.28365 0.31133 0.18997 0.0
C1450 C 0.28494 0.3183 0.17122 0.0
H1451 H 0.28815 0.31314 0.0734 0.0
H1452 H 0.2859 0.30551 0.10457 0.0
H1453 H 0.26932 0.34746 0.14346 0.0
H1454 H 0.28636 0.32766 0.2346 0.0
H1455 H 0.28648 0.33931 0.20419 0.0
C1456 C 0.25797 0.96371 0.02518 0.0
C1457 C 0.24992 0.94407 0.01942 0.0
C1458 C 0.24733 0.97526 0.03154 0.0
C1459 C 0.20042 0.97784 0.02667 0.0
H1460 H 0.2137 0.01463 0.06891 0.0
C1461 C 0.14938 0.01492 0.05242 0.0
C1462 C 0.15554 0.03493 0.05703 0.0
C1463 C 0.16173 0.00421 0.04995 0.0
C1464 C 0.20992 0.00454 0.05699 0.0
H1465 H 0.22463 0.92092 0.01658 0.0
H1466 H 0.20618 0.941 0.02769 0.0
H1467 H 0.23406 0.99517 0.06053 0.0
H1468 H 0.17923 0.0595 0.06344 0.0
H1469 H 0.20113 0.04075 0.05875 0.0
H1470 H 0.17653 0.98719 0.02284 0.0
C1471 C 0.22062 0.94756 0.02705 0.0
C1472 C 0.22155 0.99342 0.05222 0.0
C1473 C 0.23122 0.93605 0.02075 0.0
C1474 C 0.17427 0.04402 0.05996 0.0
C1475 C 0.18672 0.03329 0.05729 0.0
C1476 C 0.18892 0.98894 0.03136 0.0
C1477 C 0.22848 0.96736 0.03216 0.0
C1478 C 0.21674 0.97977 0.03714 0.0
C1479 C 0.18053 0.01336 0.05176 0.0
C1480 C 0.19336 1.00221 0.04672 0.0
H1481 H 0.27238 0.97027 0.02436 0.0
H1482 H 0.25372 0.9905 0.03534 0.0
H1483 H 0.19658 0.9678 0.01472 0.0
H1484 H 0.13494 0.00764 0.05025 0.0
H1485 H 0.15651 0.98881 0.04616 0.0
C1486 C 0.73754 0.64435 0.0093 0.0
C1487 C 0.73856 0.66416 0.00911 0.0
C1488 C 0.72076 0.63038 0.00991 0.0
C1489 C 0.67049 0.62361 0.00357 0.0
H1490 H 0.66764 0.57955 0.03196 0.0
C1491 C 0.60331 0.579 0.02819 0.0
C1492 C 0.59871 0.55867 0.02531 0.0
C1493 C 0.62063 0.5905 0.02527 0.0
C1494 C 0.66827 0.59167 0.02382 0.0
H1495 H 0.72257 0.6847 0.00949 0.0
H1496 H 0.69358 0.66064 0.0111 0.0
H1497 H 0.69723 0.60239 0.02856 0.0
H1498 H 0.60906 0.5345 0.01751 0.0
H1499 H 0.63974 0.55478 0.01282 0.0
H1500 H 0.64145 0.61325 0.99948 0.0
C1501 C 0.70562 0.65569 0.01025 0.0
C1502 C 0.68524 0.60477 0.02179 0.0
C1503 C 0.72234 0.66959 0.00943 0.0
C1504 C 0.61214 0.5501 0.01985 0.0
C1505 C 0.62969 0.56169 0.01719 0.0
C1506 C 0.65357 0.61069 0.0058 0.0
C1507 C 0.70453 0.63585 0.01054 0.0
C1508 C 0.68659 0.62111 0.01183 0.0
C1509 C 0.634 0.58204 0.01962 0.0
C1510 C 0.65222 0.59471 0.01613 0.0
H1511 H 0.74973 0.63959 0.00899 0.0
H1512 H 0.72053 0.61528 0.00981 0.0
H1513 H 0.67089 0.63563 0.99538 0.0
H1514 H 0.59339 0.58619 0.03237 0.0
H1515 H 0.6236 0.60611 0.02749 0.0
C1516 C 0.70828 0.49443 0.29017 0.0
C1517 C 0.69139 0.48572 0.29674 0.0
C1518 C 0.71854 0.48302 0.28285 0.0
C1519 C 0.72525 0.43502 0.2856 0.0
H1520 H 0.75175 0.44655 0.24294 0.0
C1521 C 0.7636 0.38395 0.25773 0.0
C1522 C 0.78137 0.39244 0.25327 0.0
C1523 C 0.75187 0.39529 0.26059 0.0
C1524 C 0.74452 0.44327 0.25494 0.0
H1525 H 0.67168 0.45832 0.30021 0.0
H1526 H 0.68959 0.43841 0.28738 0.0
H1527 H 0.73236 0.46656 0.25259 0.0
H1528 H 0.80081 0.41904 0.24749 0.0
H1529 H 0.78029 0.43926 0.25288 0.0
H1530 H 0.73754 0.41206 0.28829 0.0
C1531 C 0.69498 0.45404 0.2881 0.0
C1532 C 0.73343 0.45468 0.26044 0.0
C1533 C 0.68471 0.46543 0.29538 0.0
C1534 C 0.78708 0.41231 0.25089 0.0
C1535 C 0.77534 0.42378 0.25392 0.0
C1536 C 0.73632 0.4237 0.28017 0.0
C1537 C 0.71212 0.46271 0.28201 0.0
C1538 C 0.72364 0.45059 0.27579 0.0
C1539 C 0.75778 0.41542 0.25927 0.0
C1540 C 0.74601 0.42762 0.26474 0.0
H1541 H 0.71375 0.51005 0.291 0.0
H1542 H 0.73177 0.49009 0.2784 0.0
H1543 H 0.71821 0.4318 0.29773 0.0
H1544 H 0.75896 0.36856 0.25947 0.0
H1545 H 0.73829 0.38836 0.26427 0.0
C1546 C 0.83835 0.43943 0.50138 0.0
C1547 C 0.83273 0.42236 0.48975 0.0
C1548 C 0.85671 0.44958 0.50435 0.0
C1549 C 0.90092 0.45854 0.48605 0.0
H1550 H 0.92012 0.46946 0.53624 0.0
C1551 C 0.97233 0.5091 0.50856 0.0
C1552 C 0.98318 0.50159 0.52037 0.0
C1553 C 0.9539 0.49955 0.50473 0.0
C1554 C 0.91493 0.46645 0.52219 0.0
H1555 H 0.84195 0.40317 0.47138 0.0
H1556 H 0.87414 0.42128 0.47634 0.0
H1557 H 0.88786 0.45281 0.52888 0.0
H1558 H 0.98315 0.47849 0.53779 0.0
H1559 H 0.95071 0.46198 0.53133 0.0
H1560 H 0.92799 0.47236 0.47937 0.0
C1561 C 0.86423 0.42658 0.48326 0.0
C1562 C 0.8965 0.45708 0.51798 0.0
C1563 C 0.84584 0.41622 0.48046 0.0
C1564 C 0.97513 0.4846 0.52862 0.0
C1565 C 0.9566 0.47519 0.52497 0.0
C1566 C 0.91931 0.46819 0.49026 0.0
C1567 C 0.86983 0.44307 0.49556 0.0
C1568 C 0.88935 0.45304 0.49988 0.0
C1569 C 0.9459 0.48247 0.51281 0.0
C1570 C 0.92646 0.47219 0.50837 0.0
H1571 H 0.82866 0.4446 0.50878 0.0
H1572 H 0.8607 0.4624 0.51373 0.0
H1573 H 0.89569 0.45562 0.472 0.0
H1574 H 0.97813 0.52214 0.50194 0.0
H1575 H 0.94588 0.50555 0.49545 0.0
C1576 C 0.41081 0.1019 0.27927 0.0
C1577 C 0.40081 0.08438 0.28552 0.0
C1578 C 0.40203 0.11273 0.2689 0.0
C1579 C 0.35914 0.1078 0.24081 0.0
H1580 H 0.37004 0.1633 0.25177 0.0
C1581 C 0.30827 0.15195 0.23081 0.0
C1582 C 0.31477 0.1715 0.22726 0.0
C1583 C 0.3202 0.14048 0.23219 0.0
C1584 C 0.36711 0.14787 0.24821 0.0
H1585 H 0.37378 0.06473 0.28629 0.0
H1586 H 0.35851 0.08372 0.26864 0.0
H1587 H 0.38866 0.14545 0.26671 0.0
H1588 H 0.33823 0.19363 0.22 0.0
H1589 H 0.3591 0.1736 0.22259 0.0
H1590 H 0.33699 0.11015 0.223 0.0
C1591 C 0.37314 0.0889 0.27129 0.0
C1592 C 0.37776 0.13764 0.25682 0.0
C1593 C 0.38189 0.07812 0.28159 0.0
C1594 C 0.33294 0.1787 0.22311 0.0
C1595 C 0.34489 0.16728 0.22463 0.0
C1596 C 0.34843 0.11802 0.23228 0.0
C1597 C 0.38311 0.10618 0.26461 0.0
C1598 C 0.37353 0.11741 0.25363 0.0
C1599 C 0.33881 0.14839 0.23008 0.0
C1600 C 0.352 0.13807 0.23628 0.0
H1601 H 0.42544 0.10701 0.28202 0.0
H1602 H 0.41007 0.12598 0.26393 0.0
H1603 H 0.35581 0.09226 0.23776 0.0
H1604 H 0.2944 0.14602 0.23419 0.0
H1605 H 0.31513 0.12598 0.23647 0.0
C1606 C 0.35287 0.17148 0.52627 0.0
C1607 C 0.33467 0.16214 0.52904 0.0
C1608 C 0.36634 0.16177 0.52822 0.0
C1609 C 0.37577 0.1186 0.54788 0.0
H1610 H 0.41224 0.12485 0.51314 0.0
C1611 C 0.42078 0.06644 0.54095 0.0
C1612 C 0.43925 0.07423 0.538 0.0
C1613 C 0.40873 0.07791 0.5404 0.0
C1614 C 0.4023 0.12309 0.5231 0.0
H1615 H 0.31647 0.13528 0.53629 0.0
H1616 H 0.33974 0.11841 0.53955 0.0
H1617 H 0.39023 0.14363 0.51158 0.0
H1618 H 0.45936 0.10053 0.53227 0.0
H1619 H 0.4383 0.12045 0.53115 0.0
H1620 H 0.38768 0.0979 0.55927 0.0
C1621 C 0.34377 0.13332 0.53609 0.0
C1622 C 0.38966 0.13391 0.52222 0.0
C1623 C 0.33035 0.143 0.53413 0.0
C1624 C 0.44523 0.09387 0.53436 0.0
C1625 C 0.43313 0.10534 0.53374 0.0
C1626 C 0.38836 0.10776 0.54872 0.0
C1627 C 0.36196 0.14247 0.53304 0.0
C1628 C 0.37609 0.1317 0.5345 0.0
C1629 C 0.41471 0.09754 0.53682 0.0
C1630 C 0.40171 0.1097 0.53625 0.0
H1631 H 0.35669 0.18621 0.52231 0.0
H1632 H 0.38021 0.16941 0.52597 0.0
H1633 H 0.3658 0.11674 0.55781 0.0
H1634 H 0.41549 0.05131 0.54339 0.0
H1635 H 0.39459 0.07125 0.54249 0.0
C1636 C 0.66879 0.59365 0.33138 0.0
C1637 C 0.67618 0.57818 0.33418 0.0
C1638 C 0.68024 0.61234 0.33027 0.0
C1639 C 0.72704 0.63575 0.31893 0.0
H1640 H 0.71433 0.68315 0.33124 0.0
C1641 C 0.77282 0.71107 0.30528 0.0
C1642 C 0.76375 0.72272 0.29625 0.0
C1643 C 0.76295 0.69426 0.31258 0.0
C1644 C 0.71803 0.67 0.32774 0.0
H1645 H 0.70115 0.57032 0.33963 0.0
H1646 H 0.72107 0.60295 0.33847 0.0
H1647 H 0.69561 0.65238 0.34039 0.0
H1648 H 0.73721 0.72615 0.28825 0.0
H1649 H 0.72007 0.69686 0.30098 0.0
H1650 H 0.74937 0.65335 0.30621 0.0
C1651 C 0.70652 0.60063 0.33637 0.0
C1652 C 0.70729 0.65238 0.33293 0.0
C1653 C 0.69511 0.58195 0.33717 0.0
C1654 C 0.74463 0.71741 0.29498 0.0
C1655 C 0.73479 0.70074 0.30243 0.0
C1656 C 0.73784 0.65335 0.31392 0.0
C1657 C 0.69928 0.61592 0.3322 0.0
C1658 C 0.71151 0.63498 0.32833 0.0
C1659 C 0.74384 0.68893 0.31119 0.0
C1660 C 0.73328 0.6706 0.31801 0.0
H1661 H 0.65423 0.59111 0.32896 0.0
H1662 H 0.67416 0.6237 0.32691 0.0
H1663 H 0.73053 0.62265 0.31478 0.0
H1664 H 0.78754 0.7148 0.30655 0.0
H1665 H 0.77025 0.68544 0.31935 0.0
C1666 C 0.91529 0.46826 0.8077 0.0
C1667 C 0.91139 0.48582 0.81216 0.0
C1668 C 0.90126 0.451 0.80512 0.0
C1669 C 0.85818 0.42314 0.81534 0.0
H1670 H 0.84946 0.40354 0.7649 0.0
C1671 C 0.80513 0.35015 0.79181 0.0
C1672 C 0.81172 0.33812 0.78008 0.0
C1673 C 0.81466 0.36976 0.79541 0.0
C1674 C 0.85175 0.40877 0.77905 0.0
H1675 H 0.89008 0.49899 0.81868 0.0
H1676 H 0.8656 0.46852 0.81463 0.0
H1677 H 0.87243 0.43423 0.77375 0.0
H1678 H 0.8329 0.3374 0.76217 0.0
H1679 H 0.84955 0.37112 0.76866 0.0
H1680 H 0.83827 0.39718 0.82086 0.0
C1681 C 0.87945 0.4683 0.8129 0.0
C1682 C 0.86482 0.42631 0.78405 0.0
C1683 C 0.89342 0.48564 0.81514 0.0
C1684 C 0.82751 0.34621 0.77141 0.0
C1685 C 0.83698 0.36567 0.77499 0.0
C1686 C 0.84524 0.40537 0.81038 0.0
C1687 C 0.88326 0.45102 0.80736 0.0
C1688 C 0.86838 0.43336 0.80224 0.0
C1689 C 0.83087 0.37763 0.78724 0.0
C1690 C 0.84225 0.39776 0.79221 0.0
H1691 H 0.92898 0.46801 0.80521 0.0
H1692 H 0.90436 0.4377 0.80082 0.0
H1693 H 0.86076 0.4285 0.82945 0.0
H1694 H 0.79295 0.34432 0.79864 0.0
H1695 H 0.80952 0.37868 0.80476 0.0
C1696 C 0.07428 0.84944 0.09486 0.0
C1697 C 0.07646 0.84862 0.11369 0.0
C1698 C 0.07266 0.86641 0.08743 0.0
C1699 C 0.08177 0.91956 0.0968 0.0
H1700 H 0.04281 0.91397 0.05949 0.0
C1701 C 0.06274 0.98668 0.07067 0.0
C1702 C 0.05591 0.98579 0.05256 0.0
C1703 C 0.0657 0.97022 0.07813 0.0
C1704 C 0.05399 0.91592 0.06966 0.0
H1705 H 0.07923 0.86538 0.13942 0.0
H1706 H 0.07679 0.8951 0.12644 0.0
H1707 H 0.04781 0.88529 0.07209 0.0
H1708 H 0.04728 0.9668 0.02801 0.0
H1709 H 0.05297 0.93848 0.04069 0.0
H1710 H 0.08826 0.95013 0.09417 0.0
C1711 C 0.07624 0.88255 0.11741 0.0
C1712 C 0.05681 0.89936 0.07696 0.0
C1713 C 0.0776 0.86547 0.12486 0.0
C1714 C 0.05237 0.96805 0.04206 0.0
C1715 C 0.05554 0.95167 0.04943 0.0
C1716 C 0.07912 0.93614 0.08933 0.0
C1717 C 0.07342 0.88315 0.09859 0.0
C1718 C 0.0707 0.90092 0.09066 0.0
C1719 C 0.06214 0.95239 0.06765 0.0
C1720 C 0.06514 0.93464 0.07564 0.0
H1721 H 0.07331 0.83676 0.08582 0.0
H1722 H 0.07073 0.86639 0.07288 0.0
H1723 H 0.09272 0.92132 0.10721 0.0
H1724 H 0.06556 1.00005 0.07923 0.0
H1725 H 0.07049 0.97148 0.09226 0.0
C1726 C 0.95456 0.2606 0.8855 0.0
C1727 C 0.95487 0.26624 0.90401 0.0
C1728 C 0.93957 0.26029 0.8735 0.0
C1729 C 0.89066 0.26036 0.87263 0.0
H1730 H 0.89813 0.27646 0.82423 0.0
C1731 C 0.83338 0.27626 0.82679 0.0
C1732 C 0.83189 0.27042 0.80822 0.0
C1733 C 0.8482 0.27496 0.83816 0.0
C1734 C 0.89574 0.2717 0.83763 0.0
H1735 H 0.93945 0.27616 0.92418 0.0
H1736 H 0.91379 0.27592 0.90344 0.0
H1737 H 0.92414 0.27555 0.84434 0.0
H1738 H 0.84502 0.25854 0.78718 0.0
H1739 H 0.87075 0.25621 0.80698 0.0
H1740 H 0.8623 0.25675 0.86601 0.0
C1741 C 0.92488 0.2713 0.89814 0.0
C1742 C 0.91071 0.27114 0.8492 0.0
C1743 C 0.93976 0.27155 0.9101 0.0
C1744 C 0.84564 0.26316 0.80139 0.0
C1745 C 0.86051 0.26196 0.81274 0.0
C1746 C 0.87572 0.261 0.86111 0.0
C1747 C 0.92448 0.26565 0.87964 0.0
C1748 C 0.90844 0.26558 0.86695 0.0
C1749 C 0.86205 0.26787 0.83131 0.0
C1750 C 0.87802 0.26678 0.84346 0.0
H1751 H 0.9659 0.25642 0.88026 0.0
H1752 H 0.93976 0.25565 0.85942 0.0
H1753 H 0.88819 0.25559 0.88601 0.0
H1754 H 0.82314 0.28197 0.83259 0.0
H1755 H 0.84896 0.27988 0.8523 0.0
C1756 C 0.56907 0.23893 0.58263 0.0
C1757 C 0.56932 0.24539 0.60091 0.0
C1758 C 0.5667 0.21934 0.57739 0.0
C1759 C 0.5527 0.16933 0.59349 0.0
H1760 H 0.5778 0.15768 0.55247 0.0
C1761 C 0.539 0.09075 0.56127 0.0
C1762 C 0.55305 0.08511 0.55316 0.0
C1763 C 0.54131 0.11005 0.56766 0.0
C1764 C 0.57085 0.16054 0.56411 0.0
H1765 H 0.56693 0.23599 0.62799 0.0
H1766 H 0.56329 0.20182 0.61897 0.0
H1767 H 0.58121 0.19115 0.56279 0.0
H1768 H 0.58072 0.09555 0.54574 0.0
H1769 H 0.58504 0.12906 0.55745 0.0
H1770 H 0.54297 0.13868 0.59527 0.0
C1771 C 0.56456 0.21188 0.60856 0.0
C1772 C 0.57255 0.1799 0.56988 0.0
C1773 C 0.56668 0.23154 0.61379 0.0
C1774 C 0.56958 0.09934 0.55183 0.0
C1775 C 0.57199 0.11866 0.55846 0.0
C1776 C 0.55116 0.14994 0.58784 0.0
C1777 C 0.56479 0.20549 0.59027 0.0
C1778 C 0.56334 0.18467 0.58454 0.0
C1779 C 0.55783 0.12439 0.56638 0.0
C1780 C 0.56007 0.14518 0.57293 0.0
H1781 H 0.57084 0.2491 0.57227 0.0
H1782 H 0.56641 0.21511 0.56314 0.0
H1783 H 0.54525 0.17223 0.60473 0.0
H1784 H 0.52598 0.08029 0.56235 0.0
H1785 H 0.52989 0.11374 0.57324 0.0
C1786 C 0.55252 0.75766 0.37802 0.0
C1787 C 0.5543 0.76708 0.39543 0.0
C1788 C 0.56789 0.75806 0.36862 0.0
C1789 C 0.61542 0.78686 0.36585 0.0
H1790 H 0.61997 0.74102 0.33869 0.0
C1791 C 0.68079 0.78732 0.33071 0.0
C1792 C 0.67898 0.7767 0.31387 0.0
C1793 C 0.66586 0.78553 0.34108 0.0
C1794 C 0.61885 0.75405 0.34599 0.0
H1795 H 0.57371 0.78416 0.41667 0.0
H1796 H 0.60051 0.78498 0.40022 0.0
H1797 H 0.5935 0.73898 0.35586 0.0
H1798 H 0.65989 0.75588 0.29475 0.0
H1799 H 0.63379 0.753 0.3126 0.0
H1800 H 0.64048 0.80209 0.35573 0.0
C1801 C 0.5872 0.77732 0.39381 0.0
C1802 C 0.60366 0.75284 0.3559 0.0
C1803 C 0.57184 0.77675 0.40328 0.0
C1804 C 0.66184 0.76411 0.30775 0.0
C1805 C 0.64685 0.76243 0.31805 0.0
C1806 C 0.63052 0.78811 0.35582 0.0
C1807 C 0.58543 0.76808 0.37631 0.0
C1808 C 0.60174 0.76923 0.36596 0.0
C1809 C 0.6486 0.77318 0.33486 0.0
C1810 C 0.6325 0.77173 0.34572 0.0
H1811 H 0.53921 0.75009 0.37155 0.0
H1812 H 0.566 0.75093 0.35512 0.0
H1813 H 0.61426 0.79984 0.37322 0.0
H1814 H 0.69385 0.79692 0.33598 0.0
H1815 H 0.66793 0.79375 0.35408 0.0
C1816 C 0.05047 0.20873 0.4124 0.0
C1817 C 0.04093 0.22146 0.41959 0.0
C1818 C 0.05084 0.19107 0.42055 0.0
C1819 C 0.03992 0.16513 0.4649 0.0
H1820 H 0.04528 0.11966 0.43811 0.0
C1821 C 0.03231 0.09164 0.50121 0.0
C1822 C 0.03966 0.0768 0.4945 0.0
C1823 C 0.03275 0.10856 0.49182 0.0
C1824 C 0.04391 0.13212 0.44615 0.0
H1825 H 0.02392 0.22373 0.44153 0.0
H1826 H 0.02446 0.19433 0.45487 0.0
H1827 H 0.04605 0.14899 0.42274 0.0
H1828 H 0.05341 0.06939 0.47172 0.0
H1829 H 0.05437 0.09833 0.45573 0.0
H1830 H 0.03802 0.14869 0.48828 0.0
C1831 C 0.03214 0.19783 0.4432 0.0
C1832 C 0.04436 0.14933 0.43708 0.0
C1833 C 0.03173 0.21513 0.43517 0.0
C1834 C 0.04743 0.08001 0.47769 0.0
C1835 C 0.04791 0.09697 0.46829 0.0
C1836 C 0.03953 0.14805 0.47392 0.0
C1837 C 0.04181 0.18517 0.43642 0.0
C1838 C 0.04219 0.16642 0.44612 0.0
C1839 C 0.04065 0.11197 0.47503 0.0
C1840 C 0.04136 0.13078 0.46492 0.0
H1841 H 0.05787 0.21246 0.40058 0.0
H1842 H 0.05856 0.1822 0.41449 0.0
H1843 H 0.03866 0.17759 0.47301 0.0
H1844 H 0.02613 0.09025 0.51395 0.0
H1845 H 0.02657 0.11893 0.49789 0.0
C1846 C 0.61203 0.30694 0.17853 0.0
C1847 C 0.59463 0.29503 0.1821 0.0
C1848 C 0.62866 0.306 0.1876 0.0
C1849 C 0.65068 0.2746 0.21715 0.0
H1850 H 0.6923 0.31987 0.22057 0.0
C1851 C 0.72307 0.2713 0.25139 0.0
C1852 C 0.7393 0.28667 0.25107 0.0
C1853 C 0.7057 0.27223 0.24378 0.0
C1854 C 0.68121 0.30674 0.2198 0.0
H1855 H 0.58246 0.27216 0.19891 0.0
H1856 H 0.6112 0.27051 0.21473 0.0
H1857 H 0.66328 0.32145 0.20727 0.0
H1858 H 0.74863 0.31535 0.2417 0.0
H1859 H 0.71937 0.31696 0.2285 0.0
H1860 H 0.66853 0.25981 0.22958 0.0
C1861 C 0.61194 0.28091 0.20469 0.0
C1862 C 0.664 0.3077 0.21188 0.0
C1863 C 0.5951 0.28204 0.19567 0.0
C1864 C 0.73692 0.30302 0.24256 0.0
C1865 C 0.71959 0.30393 0.23485 0.0
C1866 C 0.66797 0.27358 0.22497 0.0
C1867 C 0.62938 0.29283 0.20089 0.0
C1868 C 0.64806 0.29168 0.21016 0.0
C1869 C 0.70318 0.28858 0.23513 0.0
C1870 C 0.68402 0.28961 0.2266 0.0
H1871 H 0.61292 0.31706 0.16819 0.0
H1872 H 0.64116 0.31543 0.18357 0.0
H1873 H 0.63934 0.26162 0.21628 0.0
H1874 H 0.72371 0.2583 0.25767 0.0
H1875 H 0.6942 0.25982 0.2449 0.0
C1876 C 0.5463 0.82872 0.93196 0.0
C1877 C 0.54852 0.82747 0.91319 0.0
C1878 C 0.54546 0.84621 0.94156 0.0
C1879 C 0.53836 0.89651 0.93547 0.0
H1880 H 0.55695 0.90741 0.98559 0.0
C1881 C 0.53837 0.97112 0.97579 0.0
C1882 C 0.54092 0.97379 0.9949 0.0
C1883 C 0.53941 0.95382 0.96593 0.0
C1884 C 0.55133 0.90488 0.97171 0.0
H1885 H 0.55141 0.84482 0.8902 0.0
H1886 H 0.54975 0.87484 0.90659 0.0
H1887 H 0.55816 0.87777 0.96906 0.0
H1888 H 0.54644 0.95903 0.01814 0.0
H1889 H 0.54768 0.92934 0.00154 0.0
H1890 H 0.5312 0.92333 0.93805 0.0
C1891 C 0.54862 0.8622 0.9141 0.0
C1892 C 0.5521 0.88743 0.96199 0.0
C1893 C 0.54968 0.84474 0.90453 0.0
C1894 C 0.54447 0.95806 0.00354 0.0
C1895 C 0.54531 0.94069 0.99373 0.0
C1896 C 0.53738 0.91389 0.94524 0.0
C1897 C 0.54658 0.86355 0.93297 0.0
C1898 C 0.54567 0.88265 0.94354 0.0
C1899 C 0.54286 0.93788 0.97452 0.0
C1900 C 0.54386 0.91878 0.96375 0.0
H1901 H 0.5453 0.81606 0.93943 0.0
H1902 H 0.54366 0.84595 0.95587 0.0
H1903 H 0.53294 0.89382 0.9215 0.0
H1904 H 0.53568 0.98258 0.96827 0.0
H1905 H 0.53763 0.95324 0.95137 0.0
C1906 C 0.96988 0.78651 0.676 0.0
C1907 C 0.98422 0.78042 0.68459 0.0
C1908 C 0.95327 0.78613 0.68422 0.0
C1909 C 0.92317 0.76506 0.72282 0.0
H1910 H 0.89774 0.80298 0.71182 0.0
C1911 C 0.84873 0.7607 0.74931 0.0
C1912 C 0.84342 0.77788 0.75319 0.0
C1913 C 0.86549 0.76079 0.74142 0.0
C1914 C 0.90443 0.79213 0.71531 0.0
H1915 H 0.99079 0.76887 0.7095 0.0
H1916 H 0.96221 0.76768 0.72336 0.0
H1917 H 0.92603 0.8035 0.69803 0.0
H1918 H 0.85309 0.80881 0.7508 0.0
H1919 H 0.88131 0.80892 0.73702 0.0
H1920 H 0.90139 0.75354 0.73992 0.0
C1921 C 0.96378 0.77297 0.71007 0.0
C1922 C 0.921 0.79234 0.70707 0.0
C1923 C 0.98056 0.7737 0.70198 0.0
C1924 C 0.85605 0.79507 0.74838 0.0
C1925 C 0.87259 0.79511 0.74018 0.0
C1926 C 0.90638 0.76461 0.73078 0.0
C1927 C 0.94949 0.7793 0.70157 0.0
C1928 C 0.93113 0.77889 0.71055 0.0
C1929 C 0.87805 0.778 0.73641 0.0
C1930 C 0.89637 0.77821 0.72744 0.0
H1931 H 0.97156 0.7919 0.66276 0.0
H1932 H 0.94317 0.79108 0.67664 0.0
H1933 H 0.92982 0.75415 0.7262 0.0
H1934 H 0.83989 0.74695 0.75249 0.0
H1935 H 0.86841 0.74704 0.73894 0.0
C1936 C 0.16348 0.01189 0.882 0.0
C1937 C 0.15178 0.00865 0.86614 0.0
C1938 C 0.15669 0.01389 0.89889 0.0
C1939 C 0.12065 0.02996 0.91828 0.0
H1940 H 0.12244 0.99726 0.95752 0.0
C1941 C 0.06992 0.0215 0.97196 0.0
C1942 C 0.07665 0.02275 0.99007 0.0
C1943 C 0.08102 0.01997 0.95811 0.0
C1944 C 0.12207 0.00668 0.94676 0.0
H1945 H 0.12376 0.00396 0.85555 0.0
H1946 H 0.11219 0.00765 0.88469 0.0
H1947 H 0.13964 0.99477 0.93111 0.0
H1948 H 0.09998 0.02229 0.00791 0.0
H1949 H 0.1194 0.01976 0.98363 0.0
H1950 H 0.10287 0.04162 0.93349 0.0
C1951 C 0.12654 0.00887 0.88415 0.0
C1952 C 0.13193 0.00529 0.93175 0.0
C1953 C 0.13321 0.00672 0.86747 0.0
C1954 C 0.09447 0.02164 0.99407 0.0
C1955 C 0.10557 0.02005 0.98019 0.0
C1956 C 0.11088 0.03138 0.93319 0.0
C1957 C 0.13823 0.01286 0.89995 0.0
C1958 C 0.1308 0.01652 0.91719 0.0
C1959 C 0.09905 0.01961 0.9621 0.0
C1960 C 0.11103 0.01933 0.94731 0.0
H1961 H 0.17784 0.01336 0.88133 0.0
H1962 H 0.16589 0.01688 0.911 0.0
H1963 H 0.11979 0.03894 0.90726 0.0
H1964 H 0.05624 0.02221 0.96843 0.0
H1965 H 0.07553 0.01924 0.94425 0.0
C1966 C 0.79195 0.36114 0.54829 0.0
C1967 C 0.78806 0.37866 0.54494 0.0
C1968 C 0.79942 0.35864 0.56517 0.0
C1969 C 0.80528 0.37427 0.61295 0.0
H1970 H 0.84622 0.35258 0.61178 0.0
C1971 C 0.83551 0.35032 0.67721 0.0
C1972 C 0.83593 0.3309 0.67506 0.0
C1973 C 0.83352 0.36045 0.66213 0.0
C1974 C 0.83488 0.35873 0.61234 0.0
H1975 H 0.78787 0.40679 0.55714 0.0
H1976 H 0.8007 0.40206 0.58692 0.0
H1977 H 0.83353 0.36159 0.58388 0.0
H1978 H 0.83566 0.30734 0.65531 0.0
H1979 H 0.83256 0.32503 0.62921 0.0
H1980 H 0.80609 0.37055 0.6413 0.0
C1981 C 0.79814 0.3905 0.57628 0.0
C1982 C 0.8276 0.36384 0.5964 0.0
C1983 C 0.79075 0.39309 0.55926 0.0
C1984 C 0.83565 0.32234 0.65753 0.0
C1985 C 0.83382 0.33249 0.64251 0.0
C1986 C 0.81254 0.36907 0.62893 0.0
C1987 C 0.80307 0.37346 0.57915 0.0
C1988 C 0.81233 0.37099 0.59646 0.0
C1989 C 0.83214 0.35142 0.64464 0.0
C1990 C 0.827 0.36061 0.62865 0.0
H1991 H 0.7899 0.34961 0.53773 0.0
H1992 H 0.80266 0.34513 0.5672 0.0
H1993 H 0.79352 0.37976 0.61332 0.0
H1994 H 0.83606 0.35748 0.69054 0.0
H1995 H 0.8325 0.37513 0.66414 0.0
C1996 C 0.44509 0.06115 0.36631 0.0
C1997 C 0.45175 0.05791 0.34962 0.0
C1998 C 0.45518 0.06036 0.38238 0.0
C1999 C 0.50169 0.06206 0.40069 0.0
H2000 H 0.47625 0.03847 0.44071 0.0
C2001 C 0.53577 0.04233 0.46635 0.0
C2002 C 0.52926 0.04807 0.48242 0.0
C2003 C 0.52754 0.04447 0.4496 0.0
C2004 C 0.48349 0.04517 0.42964 0.0
H2005 H 0.47419 0.05141 0.33658 0.0
H2006 H 0.49142 0.04951 0.36445 0.0
H2007 H 0.45901 0.04006 0.41255 0.0
H2008 H 0.50986 0.06172 0.4935 0.0
H2009 H 0.49552 0.06517 0.46442 0.0
H2010 H 0.52623 0.06677 0.41787 0.0
C2011 C 0.47866 0.05306 0.36525 0.0
C2012 C 0.47364 0.04618 0.41357 0.0
C2013 C 0.46868 0.05401 0.34925 0.0
C2014 C 0.51506 0.05689 0.48141 0.0
C2015 C 0.50678 0.05882 0.46477 0.0
C2016 C 0.51157 0.06084 0.41674 0.0
C2017 C 0.47203 0.05618 0.382 0.0
C2018 C 0.48259 0.05484 0.39898 0.0
C2019 C 0.51263 0.05221 0.44877 0.0
C2020 C 0.50251 0.05262 0.4314 0.0
H2021 H 0.43211 0.06424 0.36697 0.0
H2022 H 0.44982 0.06313 0.39509 0.0
H2023 H 0.50899 0.069 0.38977 0.0
H2024 H 0.54669 0.0355 0.4667 0.0
H2025 H 0.53228 0.03931 0.43736 0.0
C2026 C 0.7881 0.73234 0.07488 0.0
C2027 C 0.79437 0.71683 0.06813 0.0
C2028 C 0.7877 0.73646 0.09348 0.0
C2029 C 0.80662 0.72921 0.13886 0.0
H2030 H 0.76451 0.74321 0.15496 0.0
C2031 C 0.7969 0.74158 0.21543 0.0
C2032 C 0.78857 0.75591 0.2209 0.0
C2033 C 0.79753 0.73625 0.19703 0.0
C2034 C 0.77653 0.73963 0.15079 0.0
H2035 H 0.80552 0.69376 0.07618 0.0
H2036 H 0.80496 0.7011 0.10879 0.0
H2037 H 0.7661 0.73502 0.12301 0.0
H2038 H 0.77442 0.77589 0.21094 0.0
H2039 H 0.77577 0.76693 0.17903 0.0
H2040 H 0.8172 0.73412 0.16661 0.0
C2041 C 0.80033 0.71007 0.0995 0.0
C2042 C 0.77742 0.73483 0.13235 0.0
C2043 C 0.80062 0.70582 0.08076 0.0
C2044 C 0.78083 0.7647 0.20735 0.0
C2045 C 0.78154 0.75944 0.18894 0.0
C2046 C 0.8058 0.73414 0.15733 0.0
C2047 C 0.79362 0.72532 0.10613 0.0
C2048 C 0.79252 0.72966 0.12603 0.0
C2049 C 0.78992 0.74512 0.18342 0.0
C2050 C 0.79076 0.73954 0.16364 0.0
H2051 H 0.78321 0.7413 0.06578 0.0
H2052 H 0.78277 0.74854 0.09794 0.0
H2053 H 0.81856 0.72553 0.13457 0.0
H2054 H 0.803 0.7344 0.22538 0.0
H2055 H 0.80384 0.72496 0.19354 0.0
C2056 C 0.14272 0.02234 0.76057 0.0
C2057 C 0.13113 0.01484 0.77391 0.0
C2058 C 0.13544 0.02422 0.74332 0.0
C2059 C 0.09339 0.0307 0.72233 0.0
H2060 H 0.11488 0.02479 0.67726 0.0
C2061 C 0.05961 0.03989 0.65364 0.0
C2062 C 0.07101 0.05017 0.64134 0.0
C2063 C 0.06701 0.03476 0.66953 0.0
C2064 C 0.10885 0.02665 0.6898 0.0
H2065 H 0.10311 1.00166 0.77928 0.0
H2066 H 0.0905 0.00448 0.74913 0.0
H2067 H 0.12774 0.0155 0.70505 0.0
H2068 H 0.09904 0.06367 0.6362 0.0
H2069 H 0.11198 0.05478 0.66408 0.0
H2070 H 0.07462 0.04197 0.70721 0.0
C2071 C 0.1051 0.00954 0.75211 0.0
C2072 C 0.11618 0.0213 0.70566 0.0
C2073 C 0.11233 0.00786 0.76934 0.0
C2074 C 0.08994 0.05556 0.64538 0.0
C2075 C 0.09734 0.05041 0.66126 0.0
C2076 C 0.08608 0.036 0.70652 0.0
C2077 C 0.1165 0.01846 0.73916 0.0
C2078 C 0.1085 0.02328 0.72208 0.0
C2079 C 0.08594 0.03982 0.67341 0.0
C2080 C 0.09374 0.03407 0.69011 0.0
H2081 H 0.15728 0.02782 0.76376 0.0
H2082 H 0.14457 0.03118 0.73361 0.0
H2083 H 0.08744 0.03285 0.73485 0.0
H2084 H 0.04499 0.03525 0.65072 0.0
H2085 H 0.05791 0.02641 0.67856 0.0
C2086 C 0.77182 0.40395 0.43835 0.0
C2087 C 0.76746 0.39154 0.45229 0.0
C2088 C 0.77358 0.39642 0.42095 0.0
C2089 C 0.7839 0.35411 0.399 0.0
H2090 H 0.76354 0.36796 0.35448 0.0
C2091 C 0.77552 0.30671 0.33333 0.0
C2092 C 0.78232 0.31585 0.31803 0.0
C2093 C 0.77385 0.31767 0.34886 0.0
C2094 C 0.76945 0.36416 0.36683 0.0
H2095 H 0.76041 0.36153 0.4588 0.0
H2096 H 0.76321 0.34848 0.42865 0.0
H2097 H 0.76018 0.38434 0.38346 0.0
H2098 H 0.79189 0.34363 0.30673 0.0
H2099 H 0.78878 0.36284 0.33403 0.0
H2100 H 0.79281 0.33369 0.3826 0.0
C2101 C 0.76574 0.36402 0.43114 0.0
C2102 C 0.76756 0.37352 0.38335 0.0
C2103 C 0.76403 0.37149 0.44839 0.0
C2104 C 0.78679 0.33619 0.31838 0.0
C2105 C 0.78491 0.34718 0.33392 0.0
C2106 C 0.78569 0.34475 0.38261 0.0
C2107 C 0.771 0.3764 0.41735 0.0
C2108 C 0.77439 0.3682 0.39962 0.0
C2109 C 0.77878 0.33799 0.3494 0.0
C2110 C 0.77813 0.34935 0.36642 0.0
H2111 H 0.77453 0.41949 0.44102 0.0
H2112 H 0.77761 0.40628 0.41054 0.0
H2113 H 0.78973 0.35008 0.41128 0.0
H2114 H 0.77193 0.29108 0.33352 0.0
H2115 H 0.76884 0.31024 0.36057 0.0
C2116 C 0.44459 0.05427 0.24653 0.0
C2117 C 0.44329 0.03726 0.25527 0.0
C2118 C 0.45086 0.05584 0.22928 0.0
C2119 C 0.45958 0.03001 0.18898 0.0
H2120 H 0.50925 0.06316 0.19501 0.0
C2121 C 0.51354 0.01346 0.14737 0.0
C2122 C 0.52733 0.02856 0.1414 0.0
C2123 C 0.50169 0.01739 0.15947 0.0
C2124 C 0.4953 0.05422 0.19284 0.0
H2125 H 0.4459 0.00808 0.25272 0.0
H2126 H 0.45605 0.01046 0.22219 0.0
H2127 H 0.48834 0.06518 0.21799 0.0
H2128 H 0.53997 0.05965 0.14435 0.0
H2129 H 0.51875 0.06659 0.16511 0.0
H2130 H 0.46646 0.01872 0.16406 0.0
C2131 C 0.45248 0.02263 0.22869 0.0
C2132 C 0.48334 0.05543 0.20597 0.0
C2133 C 0.44676 0.02127 0.24609 0.0
C2134 C 0.52937 0.04768 0.14846 0.0
C2135 C 0.51726 0.05166 0.16044 0.0
C2136 C 0.4714 0.02905 0.17569 0.0
C2137 C 0.45529 0.04017 0.22051 0.0
C2138 C 0.46569 0.04273 0.20447 0.0
C2139 C 0.50302 0.03656 0.16572 0.0
C2140 C 0.48966 0.04042 0.17794 0.0
H2141 H 0.44213 0.06682 0.25356 0.0
H2142 H 0.45312 0.06951 0.22319 0.0
H2143 H 0.44598 0.02012 0.18764 0.0
H2144 H 0.51124 0.99857 0.14209 0.0
H2145 H 0.49127 0.00533 0.16373 0.0
C2146 C 0.79505 0.6914 0.95339 0.0
C2147 C 0.79812 0.70427 0.96902 0.0
C2148 C 0.79541 0.69823 0.93606 0.0
C2149 C 0.81357 0.742 0.91134 0.0
H2150 H 0.77742 0.71459 0.87318 0.0
C2151 C 0.80914 0.7721 0.84039 0.0
C2152 C 0.80234 0.75899 0.8251 0.0
C2153 C 0.80914 0.76561 0.85788 0.0
C2154 C 0.78789 0.72232 0.88349 0.0
H2155 H 0.80399 0.73457 0.97847 0.0
H2156 H 0.80485 0.74652 0.94826 0.0
H2157 H 0.77619 0.70312 0.90331 0.0
H2158 H 0.79088 0.72853 0.81644 0.0
H2159 H 0.79157 0.71717 0.84656 0.0
H2160 H 0.82555 0.76096 0.89152 0.0
C2161 C 0.80214 0.73108 0.94942 0.0
C2162 C 0.78709 0.71573 0.90092 0.0
C2163 C 0.80152 0.72421 0.96678 0.0
C2164 C 0.79614 0.73913 0.82782 0.0
C2165 C 0.79634 0.73261 0.84526 0.0
C2166 C 0.81451 0.74847 0.89383 0.0
C2167 C 0.79911 0.71819 0.93376 0.0
C2168 C 0.7999 0.72545 0.91515 0.0
C2169 C 0.80252 0.74574 0.8607 0.0
C2170 C 0.80168 0.73876 0.87953 0.0
H2171 H 0.79242 0.67596 0.95453 0.0
H2172 H 0.79316 0.68784 0.92441 0.0
H2173 H 0.82383 0.74976 0.92184 0.0
H2174 H 0.81385 0.78753 0.83893 0.0
H2175 H 0.81382 0.77635 0.86923 0.0
C2176 C 0.85196 0.12242 0.04632 0.0
C2177 C 0.83352 0.11416 0.04881 0.0
C2178 C 0.86334 0.11065 0.04339 0.0
C2179 C 0.86926 0.06207 0.04662 0.0
H2180 H 0.89751 0.07557 0.00537 0.0
C2181 C 0.91633 0.01765 0.01953 0.0
C2182 C 0.9338 0.02912 0.01657 0.0
C2183 C 0.90246 0.02633 0.02272 0.0
C2184 C 0.88977 0.07165 0.01696 0.0
H2185 H 0.81282 0.08722 0.05152 0.0
H2186 H 0.83288 0.06659 0.04645 0.0
H2187 H 0.87709 0.09435 0.01423 0.0
H2188 H 0.95031 0.0584 0.0138 0.0
H2189 H 0.92632 0.07349 0.01941 0.0
H2190 H 0.88233 0.03955 0.0495 0.0
C2191 C 0.83844 0.08217 0.0467 0.0
C2192 C 0.87812 0.08243 0.02207 0.0
C2193 C 0.82698 0.09398 0.0496 0.0
C2194 C 0.937 0.04925 0.01621 0.0
C2195 C 0.92321 0.05786 0.01927 0.0
C2196 C 0.88103 0.05127 0.04154 0.0
C2197 C 0.85654 0.09039 0.04291 0.0
C2198 C 0.86805 0.07804 0.03717 0.0
C2199 C 0.90584 0.04656 0.02273 0.0
C2200 C 0.89168 0.05624 0.02688 0.0
H2201 H 0.85745 0.13793 0.04581 0.0
H2202 H 0.87737 0.11739 0.04091 0.0
H2203 H 0.86159 0.05836 0.05829 0.0
H2204 H 0.91358 1.0021 0.01992 0.0
H2205 H 0.88915 0.01728 0.02523 0.0
C2206 C 0.34902 0.41288 0.02431 0.0
C2207 C 0.34744 0.39295 0.02453 0.0
C2208 C 0.36606 0.42638 0.02352 0.0
C2209 C 0.415 0.43322 0.03417 0.0
H2210 H 0.42208 0.47404 0.00129 0.0
C2211 C 0.48096 0.49607 0.03881 0.0
C2212 C 0.48926 0.50073 0.02266 0.0
C2213 C 0.46336 0.48362 0.0385 0.0
C2214 C 0.42032 0.46267 0.01049 0.0
H2215 H 0.36273 0.37171 0.0242 0.0
H2216 H 0.39232 0.39522 0.02312 0.0
H2217 H 0.39194 0.45088 0.00193 0.0
H2218 H 0.48514 0.49626 0.99345 0.0
H2219 H 0.45414 0.47462 0.99294 0.0
H2220 H 0.44326 0.44495 0.04282 0.0
C2221 C 0.38038 0.40041 0.02352 0.0
C2222 C 0.40303 0.44952 0.01097 0.0
C2223 C 0.36337 0.38692 0.02407 0.0
C2224 C 0.47919 0.49303 0.00614 0.0
C2225 C 0.46142 0.48066 0.00584 0.0
C2226 C 0.43217 0.44648 0.03387 0.0
C2227 C 0.38196 0.42031 0.0232 0.0
C2228 C 0.40019 0.43459 0.02278 0.0
C2229 C 0.45342 0.47555 0.02205 0.0
C2230 C 0.43507 0.46138 0.02204 0.0
H2231 H 0.33706 0.41806 0.02456 0.0
H2232 H 0.36682 0.44162 0.02342 0.0
H2233 H 0.41328 0.42199 0.04351 0.0
H2234 H 0.4882 0.50171 0.05181 0.0
H2235 H 0.45752 0.48022 0.05122 0.0
C2236 C 0.40131 0.59597 0.75142 0.0
C2237 C 0.39392 0.57908 0.73988 0.0
C2238 C 0.39046 0.60778 0.75642 0.0
C2239 C 0.34938 0.62166 0.74515 0.0
H2240 H 0.34615 0.62693 0.79697 0.0
C2241 C 0.29729 0.65612 0.77519 0.0
C2242 C 0.30306 0.66851 0.79106 0.0
C2243 C 0.30776 0.64439 0.76898 0.0
C2244 C 0.34706 0.6259 0.78249 0.0
H2245 H 0.36986 0.56201 0.72347 0.0
H2246 H 0.35102 0.58305 0.73188 0.0
H2247 H 0.36686 0.6101 0.78478 0.0
H2248 H 0.32385 0.67733 0.81341 0.0
H2249 H 0.34253 0.65772 0.80217 0.0
H2250 H 0.33009 0.63798 0.74277 0.0
C2251 C 0.36511 0.58693 0.7372 0.0
C2252 C 0.3589 0.61621 0.77554 0.0
C2253 C 0.37587 0.57492 0.73244 0.0
C2254 C 0.31915 0.66823 0.80097 0.0
C2255 C 0.32977 0.65675 0.79461 0.0
C2256 C 0.33777 0.63169 0.75212 0.0
C2257 C 0.37218 0.60308 0.74968 0.0
C2258 C 0.36012 0.614 0.75684 0.0
C2259 C 0.32439 0.64495 0.77835 0.0
C2260 C 0.33642 0.63389 0.77089 0.0
H2261 H 0.41517 0.59953 0.75737 0.0
H2262 H 0.39619 0.62028 0.76596 0.0
H2263 H 0.35017 0.62013 0.73067 0.0
H2264 H 0.28507 0.65606 0.76709 0.0
H2265 H 0.30296 0.63515 0.75664 0.0
C2266 C 0.23154 0.63563 0.52094 0.0
C2267 C 0.24419 0.63209 0.53379 0.0
C2268 C 0.2136 0.62389 0.51903 0.0
C2269 C 0.17903 0.59516 0.54452 0.0
H2270 H 0.15466 0.57173 0.49812 0.0
C2271 C 0.10489 0.54782 0.53911 0.0
C2272 C 0.0936 0.54922 0.52401 0.0
C2273 C 0.12364 0.55624 0.53973 0.0
C2274 C 0.16116 0.57838 0.51115 0.0
H2275 H 0.24804 0.61343 0.5546 0.0
H2276 H 0.21644 0.59323 0.55158 0.0
H2277 H 0.1868 0.58986 0.50014 0.0
H2278 H 0.093 0.56039 0.49764 0.0
H2279 H 0.12561 0.57588 0.49901 0.0
H2280 H 0.15344 0.58468 0.55553 0.0
C2281 C 0.22055 0.60497 0.54291 0.0
C2282 C 0.17959 0.58864 0.51228 0.0
C2283 C 0.23859 0.61648 0.54458 0.0
C2284 C 0.10141 0.55901 0.50942 0.0
C2285 C 0.12015 0.56778 0.51018 0.0
C2286 C 0.16056 0.58523 0.54336 0.0
C2287 C 0.20791 0.60863 0.53016 0.0
C2288 C 0.18864 0.59712 0.52897 0.0
C2289 C 0.1315 0.56663 0.52542 0.0
C2290 C 0.15134 0.57672 0.52665 0.0
H2291 H 0.23551 0.64747 0.51234 0.0
H2292 H 0.20404 0.62704 0.50919 0.0
H2293 H 0.1857 0.60182 0.5575 0.0
H2294 H 0.09925 0.54012 0.55046 0.0
H2295 H 0.13194 0.55459 0.55149 0.0
C2296 C 0.69019 0.97167 0.73391 0.0
C2297 C 0.6731 0.9676 0.74096 0.0
C2298 C 0.70166 0.9601 0.73736 0.0
C2299 C 0.71127 0.93151 0.77303 0.0
H2300 H 0.74478 0.91871 0.74074 0.0
C2301 C 0.76169 0.88903 0.79387 0.0
C2302 C 0.77896 0.89444 0.78718 0.0
C2303 C 0.74838 0.89763 0.78816 0.0
C2304 C 0.73563 0.92241 0.74995 0.0
H2305 H 0.65387 0.94729 0.75569 0.0
H2306 H 0.67396 0.927 0.76164 0.0
H2307 H 0.72083 0.932 0.72883 0.0
H2308 H 0.79623 0.91381 0.77016 0.0
H2309 H 0.77299 0.92918 0.76041 0.0
H2310 H 0.72625 0.92237 0.79423 0.0
C2311 C 0.67856 0.93932 0.75372 0.0
C2312 C 0.72187 0.92986 0.7431 0.0
C2313 C 0.66705 0.95086 0.75022 0.0
C2314 C 0.78296 0.90929 0.77539 0.0
C2315 C 0.76965 0.91795 0.76972 0.0
C2316 C 0.72506 0.92414 0.77989 0.0
C2317 C 0.69622 0.9443 0.74793 0.0
C2318 C 0.70965 0.93459 0.75461 0.0
C2319 C 0.75209 0.91185 0.7757 0.0
C2320 C 0.73747 0.91968 0.76844 0.0
H2321 H 0.69515 0.98443 0.72662 0.0
H2322 H 0.71523 0.96431 0.73277 0.0
H2323 H 0.70226 0.93542 0.78229 0.0
H2324 H 0.75812 0.87737 0.80271 0.0
H2325 H 0.73493 0.8925 0.79288 0.0
C2326 C 0.75421 0.91692 0.53937 0.0
C2327 C 0.74963 0.89716 0.53329 0.0
C2328 C 0.74089 0.92685 0.53985 0.0
C2329 C 0.69477 0.92471 0.51978 0.0
H2330 H 0.69719 0.96447 0.55811 0.0
C2331 C 0.63925 0.96548 0.52437 0.0
C2332 C 0.64517 0.98554 0.5294 0.0
C2333 C 0.65135 0.95404 0.52554 0.0
C2334 C 0.69638 0.95356 0.54718 0.0
H2335 H 0.72725 0.8723 0.52325 0.0
H2336 H 0.70397 0.88955 0.52426 0.0
H2337 H 0.71918 0.94573 0.55912 0.0
H2338 H 0.66856 0.00905 0.54006 0.0
H2339 H 0.68961 0.98929 0.54179 0.0
H2340 H 0.67205 0.93265 0.50778 0.0
C2341 C 0.71794 0.89746 0.52846 0.0
C2342 C 0.70903 0.94277 0.54777 0.0
C2343 C 0.73128 0.8875 0.52802 0.0
C2344 C 0.6635 0.99374 0.53585 0.0
C2345 C 0.67557 0.98231 0.53705 0.0
C2346 C 0.6821 0.93551 0.51919 0.0
C2347 C 0.72257 0.91734 0.53423 0.0
C2348 C 0.70852 0.92827 0.53401 0.0
C2349 C 0.66972 0.96229 0.53185 0.0
C2350 C 0.6828 0.95022 0.53281 0.0
H2351 H 0.7682 0.92487 0.54346 0.0
H2352 H 0.74508 0.94217 0.54417 0.0
H2353 H 0.69405 0.91389 0.50879 0.0
H2354 H 0.62531 0.95863 0.5192 0.0
H2355 H 0.64625 0.93867 0.52158 0.0
C2356 C 0.41163 0.46258 0.73699 0.0
C2357 C 0.40485 0.47847 0.73402 0.0
C2358 C 0.39982 0.444 0.73722 0.0
C2359 C 0.35266 0.41886 0.74516 0.0
H2360 H 0.3661 0.37361 0.72679 0.0
C2361 C 0.3083 0.34044 0.75134 0.0
C2362 C 0.31791 0.3281 0.75834 0.0
C2363 C 0.31765 0.35847 0.74577 0.0
C2364 C 0.36218 0.38612 0.73199 0.0
H2365 H 0.38025 0.48714 0.7285 0.0
H2366 H 0.35963 0.45459 0.72872 0.0
H2367 H 0.3847 0.40591 0.72139 0.0
H2368 H 0.34483 0.32474 0.76447 0.0
H2369 H 0.36105 0.3561 0.75477 0.0
H2370 H 0.33029 0.39901 0.75599 0.0
C2371 C 0.37411 0.45661 0.7311 0.0
C2372 C 0.37284 0.40461 0.72893 0.0
C2373 C 0.38595 0.47525 0.7309 0.0
C2374 C 0.33701 0.33395 0.75926 0.0
C2375 C 0.34632 0.35185 0.75355 0.0
C2376 C 0.34195 0.40034 0.74814 0.0
C2377 C 0.38092 0.44081 0.73442 0.0
C2378 C 0.36845 0.4212 0.73585 0.0
C2379 C 0.33676 0.36437 0.7469 0.0
C2380 C 0.34685 0.38382 0.74194 0.0
H2381 H 0.42609 0.46449 0.7395 0.0
H2382 H 0.40551 0.43222 0.74011 0.0
H2383 H 0.349 0.43133 0.75084 0.0
H2384 H 0.29358 0.33634 0.75044 0.0
H2385 H 0.30996 0.36781 0.7406 0.0
C2386 C 0.16136 0.58706 0.24499 0.0
C2387 C 0.16707 0.57029 0.24186 0.0
C2388 C 0.17402 0.60536 0.24694 0.0
C2389 C 0.22144 0.63178 0.23909 0.0
H2390 H 0.21511 0.6678 0.27731 0.0
C2391 C 0.26174 0.7102 0.2806 0.0
C2392 C 0.26785 0.72117 0.26604 0.0
C2393 C 0.25075 0.69112 0.2775 0.0
C2394 C 0.21721 0.65784 0.26672 0.0
H2395 H 0.19057 0.55974 0.2378 0.0
H2396 H 0.21255 0.59154 0.24144 0.0
H2397 H 0.19301 0.63615 0.2716 0.0
H2398 H 0.26788 0.72041 0.23683 0.0
H2399 H 0.24851 0.68724 0.23144 0.0
H2400 H 0.24591 0.65338 0.23451 0.0
C2401 C 0.19829 0.5906 0.24216 0.0
C2402 C 0.20437 0.6398 0.26325 0.0
C2403 C 0.18564 0.57232 0.24014 0.0
C2404 C 0.2634 0.71236 0.24836 0.0
C2405 C 0.25235 0.6933 0.24526 0.0
C2406 C 0.23434 0.64983 0.2426 0.0
C2407 C 0.19267 0.60731 0.24588 0.0
C2408 C 0.20628 0.62658 0.24934 0.0
C2409 C 0.24557 0.68261 0.25978 0.0
C2410 C 0.23234 0.66309 0.25643 0.0
H2411 H 0.14717 0.58606 0.24632 0.0
H2412 H 0.16921 0.61799 0.24946 0.0
H2413 H 0.22326 0.62198 0.2282 0.0
H2414 H 0.26504 0.71648 0.29441 0.0
H2415 H 0.24606 0.68313 0.289 0.0
C2416 C 0.52221 0.71103 0.44279 0.0
C2417 C 0.50718 0.71689 0.44824 0.0
C2418 C 0.52593 0.69443 0.44925 0.0
C2419 C 0.51377 0.66042 0.48619 0.0
H2420 H 0.53886 0.6298 0.45878 0.0
C2421 C 0.51914 0.58548 0.50646 0.0
C2422 C 0.53649 0.5824 0.50685 0.0
C2423 C 0.51596 0.60181 0.49904 0.0
C2424 C 0.53193 0.63829 0.46664 0.0
H2425 H 0.48376 0.7092 0.46398 0.0
H2426 H 0.48954 0.67999 0.47434 0.0
H2427 H 0.53207 0.65765 0.44584 0.0
H2428 H 0.56402 0.5941 0.49939 0.0
H2429 H 0.55832 0.62241 0.48601 0.0
H2430 H 0.51315 0.64059 0.50671 0.0
C2431 C 0.49907 0.68854 0.4658 0.0
C2432 C 0.52808 0.65438 0.45926 0.0
C2433 C 0.49558 0.70528 0.45966 0.0
C2434 C 0.55052 0.59602 0.49939 0.0
C2435 C 0.54723 0.61219 0.49162 0.0
C2436 C 0.51732 0.64416 0.49339 0.0
C2437 C 0.51455 0.68301 0.4611 0.0
C2438 C 0.51886 0.66574 0.46888 0.0
C2439 C 0.52994 0.61537 0.49147 0.0
C2440 C 0.52644 0.63285 0.48373 0.0
H2441 H 0.53152 0.71972 0.43413 0.0
H2442 H 0.53809 0.69096 0.44535 0.0
H2443 H 0.50717 0.66893 0.49441 0.0
H2444 H 0.508 0.57536 0.51211 0.0
H2445 H 0.50246 0.60372 0.49905 0.0
C2446 C 0.62786 0.30323 0.66553 0.0
C2447 C 0.63001 0.30948 0.64801 0.0
C2448 C 0.64287 0.30203 0.67667 0.0
C2449 C 0.69032 0.29851 0.67466 0.0
H2450 H 0.69301 0.3101 0.72647 0.0
C2451 C 0.75331 0.29745 0.72226 0.0
C2452 C 0.74975 0.28944 0.73892 0.0
C2453 C 0.73925 0.30083 0.71106 0.0
C2454 C 0.69243 0.30662 0.71204 0.0
H2455 H 0.65 0.3199 0.62881 0.0
H2456 H 0.67607 0.31813 0.64827 0.0
H2457 H 0.66768 0.31451 0.70752 0.0
H2458 H 0.72842 0.2787 0.75672 0.0
H2459 H 0.70416 0.28441 0.73731 0.0
H2460 H 0.71507 0.29056 0.67924 0.0
C2461 C 0.66271 0.31377 0.65331 0.0
C2462 C 0.67783 0.30914 0.70114 0.0
C2463 C 0.64771 0.31494 0.64216 0.0
C2464 C 0.73179 0.28494 0.74405 0.0
C2465 C 0.71781 0.28836 0.73292 0.0
C2466 C 0.70494 0.29602 0.68558 0.0
C2467 C 0.66052 0.30709 0.67067 0.0
C2468 C 0.67646 0.305 0.68228 0.0
C2469 C 0.72129 0.29638 0.71627 0.0
C2470 C 0.70614 0.29987 0.70446 0.0
H2471 H 0.61448 0.29879 0.67053 0.0
H2472 H 0.64052 0.29661 0.68984 0.0
H2473 H 0.68967 0.29488 0.66026 0.0
H2474 H 0.76695 0.30113 0.71785 0.0
H2475 H 0.74252 0.30718 0.69842 0.0
C2476 C 0.00925 0.32034 0.96029 0.0
C2477 C 0.0116 0.31816 0.94176 0.0
C2478 C 0.01007 0.33855 0.96872 0.0
C2479 C 1.00786 0.38829 0.95949 0.0
H2480 H 0.03404 0.40259 0.00674 0.0
C2481 C 0.01301 0.46153 0.00055 0.0
C2482 C 0.03008 0.47127 0.00948 0.0
C2483 C 0.00962 0.44253 0.9926 0.0
C2484 C 0.02673 0.3989 0.99352 0.0
H2485 H 0.0163 0.33344 0.91749 0.0
H2486 H 0.01783 0.36516 0.93214 0.0
H2487 H 0.03025 0.37039 0.99213 0.0
H2488 H 0.05692 0.46838 0.01707 0.0
H2489 H 0.05104 0.43561 0.00326 0.0
H2490 H 1.00475 0.41703 0.96074 0.0
C2491 C 0.01518 0.35278 0.94019 0.0
C2492 C 0.02437 0.38029 0.9852 0.0
C2493 C 0.0144 0.33458 0.93178 0.0
C2494 C 0.04358 0.46144 0.01035 0.0
C2495 C 0.04017 0.44249 0.00251 0.0
C2496 C 0.01017 0.40691 0.96786 0.0
C2497 C 0.01322 0.3551 0.95883 0.0
C2498 C 0.01503 0.37474 0.96799 0.0
C2499 C 0.02316 0.43274 0.99348 0.0
C2500 C 0.01981 0.41256 0.98492 0.0
H2501 H 1.00701 0.308 0.96838 0.0
H2502 H 0.00822 0.33966 0.98302 0.0
H2503 H 1.00042 0.38451 0.94634 0.0
H2504 H 1.00228 0.4686 0.9996 0.0
H2505 H 0.9963 0.43544 0.9859 0.0
C2506 C 0.01104 0.78417 0.14687 0.0
C2507 C 0.02775 0.78398 0.15561 0.0
C2508 C 0.99533 0.78098 0.15629 0.0
C2509 C 0.97563 0.76184 0.19842 0.0
H2510 H 0.94311 0.79345 0.18903 0.0
C2511 C 0.9187 0.76593 0.24499 0.0
C2512 C 0.90177 0.76635 0.23687 0.0
C2513 C 0.93368 0.76742 0.23474 0.0
C2514 C 0.95191 0.78432 0.19169 0.0
H2515 H 0.04091 0.77995 0.18109 0.0
H2516 H 0.01364 0.77458 0.19755 0.0
H2517 H 0.9697 0.79688 0.17183 0.0
H2518 H 0.8875 0.76846 0.21134 0.0
H2519 H 0.91364 0.77121 0.19353 0.0
H2520 H 0.95791 0.74945 0.21843 0.0
C2521 C 0.01256 0.77695 0.18334 0.0
C2522 C 0.96719 0.78627 0.18178 0.0
C2523 C 0.02826 0.78011 0.17391 0.0
C2524 C 0.90033 0.76837 0.21816 0.0
C2525 C 0.91535 0.76992 0.20792 0.0
C2526 C 0.96037 0.75993 0.20836 0.0
C2527 C 0.9959 0.77755 0.17473 0.0
C2528 C 0.97933 0.7751 0.18503 0.0
C2529 C 0.93224 0.76945 0.21606 0.0
C2530 C 0.94832 0.7712 0.20519 0.0
H2531 H 0.01012 0.78706 0.13277 0.0
H2532 H 0.98273 0.78123 0.14908 0.0
H2533 H 0.98444 0.75274 0.20113 0.0
H2534 H 0.92051 0.76479 0.25939 0.0
H2535 H 0.94652 0.76734 0.24155 0.0
C2536 C 0.53892 0.3552 0.14718 0.0
C2537 C 0.54185 0.33819 0.13883 0.0
C2538 C 0.53966 0.37218 0.13773 0.0
C2539 C 0.54432 0.39202 0.08956 0.0
H2540 H 0.54545 0.4404 0.1157 0.0
C2541 C 0.54285 0.46123 0.04906 0.0
C2542 C 0.54703 0.48029 0.05756 0.0
C2543 C 0.5423 0.44457 0.05885 0.0
C2544 C 0.54529 0.42726 0.1078 0.0
H2545 H 0.54813 0.32694 0.11317 0.0
H2546 H 0.54993 0.35585 0.09715 0.0
H2547 H 0.54489 0.41212 0.13196 0.0
H2548 H 0.55391 0.49562 0.08409 0.0
H2549 H 0.55345 0.46734 0.10088 0.0
H2550 H 0.54529 0.40722 0.06546 0.0
C2551 C 0.54662 0.35635 0.11104 0.0
C2552 C 0.54475 0.41043 0.11743 0.0
C2553 C 0.54573 0.33936 0.12046 0.0
C2554 C 0.55066 0.48156 0.07661 0.0
C2555 C 0.55025 0.46488 0.08644 0.0
C2556 C 0.54499 0.40886 0.07996 0.0
C2557 C 0.54351 0.37346 0.11923 0.0
C2558 C 0.5442 0.39208 0.1087 0.0
C2559 C 0.54602 0.44566 0.07795 0.0
C2560 C 0.54545 0.42719 0.08865 0.0
H2561 H 0.53574 0.35536 0.16116 0.0
H2562 H 0.53689 0.38426 0.14516 0.0
H2563 H 0.54374 0.37881 0.08157 0.0
H2564 H 0.53975 0.45901 0.03456 0.0
H2565 H 0.53864 0.43069 0.05111 0.0
C2566 C 0.98795 0.27511 0.35132 0.0
C2567 C 0.98972 0.27424 0.37038 0.0
C2568 C 0.97108 0.27555 0.34174 0.0
C2569 C 0.91924 0.26845 0.34844 0.0
H2570 H 0.91753 0.29003 0.30229 0.0
C2571 C 0.84732 0.26744 0.31123 0.0
C2572 C 0.84573 0.2799 0.29751 0.0
C2573 C 0.86453 0.26651 0.31919 0.0
C2574 C 0.91739 0.284 0.31526 0.0
H2575 H 0.97348 0.2731 0.39345 0.0
H2576 H 0.9456 0.27403 0.37755 0.0
H2577 H 0.94665 0.2889 0.31678 0.0
H2578 H 0.86261 0.30126 0.28189 0.0
H2579 H 0.89202 0.29993 0.29558 0.0
H2580 H 0.89026 0.26384 0.34729 0.0
C2581 C 0.95688 0.27406 0.36952 0.0
C2582 C 0.93453 0.28316 0.32368 0.0
C2583 C 0.97349 0.27368 0.37895 0.0
C2584 C 0.86264 0.29135 0.29227 0.0
C2585 C 0.8799 0.29046 0.30026 0.0
C2586 C 0.9022 0.26929 0.34007 0.0
C2587 C 0.95487 0.275 0.35056 0.0
C2588 C 0.93615 0.27546 0.3407 0.0
C2589 C 0.88156 0.27803 0.31411 0.0
C2590 C 0.9005 0.27712 0.32315 0.0
H2591 H 0.99966 0.27573 0.34373 0.0
H2592 H 0.97081 0.27619 0.32724 0.0
H2593 H 0.91892 0.26196 0.36119 0.0
H2594 H 0.83508 0.25815 0.31593 0.0
H2595 H 0.86427 0.25634 0.32935 0.0
C2596 C 0.03701 0.71565 0.64067 0.0
C2597 C 0.0302 0.72913 0.6314 0.0
C2598 C 0.03689 0.69716 0.63221 0.0
C2599 C 0.02985 0.66849 0.58487 0.0
H2600 H 0.03565 0.62633 0.61223 0.0
C2601 C 0.03902 0.59703 0.54681 0.0
C2602 C 0.03539 0.5791 0.55479 0.0
C2603 C 0.03829 0.61455 0.55638 0.0
C2604 C 0.03386 0.63769 0.60407 0.0
H2605 H 0.01808 0.7327 0.60533 0.0
H2606 H 0.01683 0.70098 0.59123 0.0
H2607 H 0.0338 0.65633 0.6279 0.0
H2608 H 0.0281 0.56666 0.58001 0.0
H2609 H 0.02644 0.59658 0.59639 0.0
H2610 H 0.02935 0.64984 0.56108 0.0
C2611 C 0.02272 0.70446 0.605 0.0
C2612 C 0.03299 0.65543 0.6133 0.0
C2613 C 0.02302 0.72288 0.61337 0.0
C2614 C 0.03102 0.57981 0.57303 0.0
C2615 C 0.03018 0.59738 0.58262 0.0
C2616 C 0.03062 0.65078 0.57568 0.0
C2617 C 0.03006 0.69106 0.61391 0.0
C2618 C 0.03094 0.6715 0.60402 0.0
C2619 C 0.03374 0.6154 0.57461 0.0
C2620 C 0.03272 0.63472 0.58489 0.0
H2621 H 0.04342 0.71981 0.65423 0.0
H2622 H 0.04294 0.68799 0.63999 0.0
H2623 H 0.02861 0.67997 0.57661 0.0
H2624 H 0.04258 0.59765 0.53295 0.0
H2625 H 0.04161 0.62757 0.54926 0.0
C2626 C 0.61479 0.78422 0.87502 0.0
C2627 C 0.59733 0.77762 0.86539 0.0
C2628 C 0.63144 0.78466 0.86682 0.0
C2629 C 0.6511 0.76822 0.82266 0.0
H2630 H 0.69716 0.79977 0.84559 0.0
C2631 C 0.7219 0.76636 0.79154 0.0
C2632 C 0.73847 0.78123 0.79606 0.0
C2633 C 0.70521 0.76601 0.79964 0.0
C2634 C 0.68462 0.79082 0.8386 0.0
H2635 H 0.58513 0.76629 0.83857 0.0
H2636 H 0.61335 0.76708 0.82454 0.0
H2637 H 0.66904 0.79922 0.85929 0.0
H2638 H 0.74899 0.80758 0.81361 0.0
H2639 H 0.72068 0.80716 0.82728 0.0
H2640 H 0.66666 0.76002 0.80184 0.0
C2641 C 0.61446 0.77186 0.83872 0.0
C2642 C 0.66797 0.79033 0.84682 0.0
C2643 C 0.59781 0.77147 0.84693 0.0
C2644 C 0.73703 0.79572 0.80932 0.0
C2645 C 0.72036 0.79536 0.81745 0.0
C2646 C 0.66776 0.76866 0.81447 0.0
C2647 C 0.63203 0.77851 0.8483 0.0
C2648 C 0.65045 0.77902 0.83922 0.0
C2649 C 0.70369 0.78046 0.813 0.0
C2650 C 0.68528 0.77998 0.82206 0.0
H2651 H 0.61568 0.78916 0.88917 0.0
H2652 H 0.64398 0.78976 0.87537 0.0
H2653 H 0.63859 0.75901 0.81583 0.0
H2654 H 0.72176 0.75465 0.78166 0.0
H2655 H 0.69345 0.75393 0.79542 0.0
C2656 C 0.44171 0.53538 0.67166 0.0
C2657 C 0.44072 0.54924 0.68528 0.0
C2658 C 0.44559 0.54084 0.65439 0.0
C2659 C 0.47535 0.57771 0.63465 0.0
H2660 H 0.45238 0.54871 0.58979 0.0
C2661 C 0.51741 0.57007 0.57463 0.0
C2662 C 0.51383 0.55075 0.5675 0.0
C2663 C 0.50534 0.57551 0.58582 0.0
C2664 C 0.45895 0.55707 0.60216 0.0
H2665 H 0.44231 0.57939 0.69178 0.0
H2666 H 0.45018 0.58927 0.66146 0.0
H2667 H 0.43483 0.54784 0.61618 0.0
H2668 H 0.49466 0.52208 0.56622 0.0
H2669 H 0.47418 0.53129 0.58605 0.0
H2670 H 0.49998 0.58518 0.62144 0.0
C2671 C 0.44736 0.57413 0.66408 0.0
C2672 C 0.44883 0.55673 0.61715 0.0
C2673 C 0.44292 0.56852 0.68131 0.0
C2674 C 0.49787 0.53709 0.5715 0.0
C2675 C 0.48593 0.54247 0.5827 0.0
C2676 C 0.48557 0.57778 0.61975 0.0
C2677 C 0.44902 0.56034 0.65063 0.0
C2678 C 0.45724 0.5662 0.63374 0.0
C2679 C 0.48953 0.5617 0.59009 0.0
C2680 C 0.47773 0.56646 0.6037 0.0
H2681 H 0.44008 0.52045 0.67455 0.0
H2682 H 0.44712 0.53003 0.64429 0.0
H2683 H 0.48212 0.58501 0.64739 0.0
H2684 H 0.52949 0.58099 0.57156 0.0
H2685 H 0.50847 0.59046 0.59124 0.0
C2686 C 0.79679 0.18315 0.99835 0.0
C2687 C 0.79573 0.16338 0.99821 0.0
C2688 C 0.79076 0.19062 0.98313 0.0
C2689 C 0.7606 0.17678 0.94138 0.0
H2690 H 0.78794 0.22764 0.92902 0.0
C2691 C 0.74823 0.21241 0.87551 0.0
C2692 C 0.75031 0.23247 0.87727 0.0
C2693 C 0.75142 0.20274 0.89053 0.0
C2694 C 0.78004 0.21353 0.93246 0.0
H2695 H 0.78784 0.13591 0.98197 0.0
H2696 H 0.77753 0.14914 0.95504 0.0
H2697 H 0.79961 0.21289 0.95384 0.0
H2698 H 0.7561 0.25787 0.89626 0.0
H2699 H 0.76145 0.24092 0.92251 0.0
H2700 H 0.74116 0.17746 0.91964 0.0
C2701 C 0.7828 0.15875 0.96708 0.0
C2702 C 0.78674 0.20506 0.94663 0.0
C2703 C 0.78883 0.15123 0.98241 0.0
C2704 C 0.75433 0.2424 0.8945 0.0
C2705 C 0.75757 0.23275 0.90948 0.0
C2706 C 0.75393 0.18525 0.92705 0.0
C2707 C 0.78364 0.17853 0.96735 0.0
C2708 C 0.777 0.18672 0.95142 0.0
C2709 C 0.75682 0.21302 0.9075 0.0
C2710 C 0.7635 0.20382 0.92265 0.0
H2711 H 0.802 0.19287 0.01034 0.0
H2712 H 0.79134 0.20585 0.98387 0.0
H2713 H 0.75272 0.1627 0.94488 0.0
H2714 H 0.74491 0.20437 0.86238 0.0
H2715 H 0.75073 0.18751 0.88866 0.0
C2716 C 0.09588 0.46968 0.19993 0.0
C2717 C 0.1136 0.48198 0.19977 0.0
C2718 C 0.08622 0.46054 0.18387 0.0
C2719 C 0.08882 0.45561 0.13381 0.0
H2720 H 0.04513 0.47265 0.13384 0.0
C2721 C 0.06889 0.49863 0.0799 0.0
C2722 C 0.05065 0.49772 0.07527 0.0
C2723 C 0.07332 0.48713 0.09277 0.0
C2724 C 0.05691 0.46717 0.1335 0.0
H2725 H 0.13588 0.49286 0.18321 0.0
H2726 H 0.11876 0.47773 0.15495 0.0
H2727 H 0.05994 0.46829 0.16217 0.0
H2728 H 0.02266 0.48334 0.07988 0.0
H2729 H 0.03051 0.4634 0.1029 0.0
H2730 H 0.08641 0.45612 0.10504 0.0
C2731 C 0.11237 0.47469 0.16744 0.0
C2732 C 0.06548 0.46464 0.14983 0.0
C2733 C 0.12217 0.48354 0.1836 0.0
C2734 C 0.03685 0.48453 0.08337 0.0
C2735 C 0.04132 0.47305 0.09642 0.0
C2736 C 0.08023 0.45816 0.11745 0.0
C2737 C 0.09397 0.46394 0.16733 0.0
C2738 C 0.08216 0.46006 0.15022 0.0
C2739 C 0.05963 0.47445 0.1014 0.0
C2740 C 0.06488 0.46522 0.11729 0.0
H2741 H 0.08917 0.46789 0.21238 0.0
H2742 H 0.07225 0.45195 0.18428 0.0
H2743 H 0.10141 0.4516 0.13367 0.0
H2744 H 0.07988 0.50839 0.07372 0.0
H2745 H 0.08756 0.48889 0.09655 0.0
C2746 C 0.78164 0.85848 0.46314 0.0
C2747 C 0.78782 0.85076 0.4784 0.0
C2748 C 0.78261 0.85063 0.44562 0.0
C2749 C 0.80754 0.82573 0.4175 0.0
H2750 H 0.76317 0.8087 0.38593 0.0
C2751 C 0.80681 0.79168 0.34374 0.0
C2752 C 0.79356 0.79362 0.33064 0.0
C2753 C 0.8065 0.79787 0.36204 0.0
C2754 C 0.77585 0.81372 0.39428 0.0
H2755 H 0.80026 0.8289 0.4871 0.0
H2756 H 0.80259 0.81561 0.45632 0.0
H2757 H 0.76222 0.82121 0.41682 0.0
H2758 H 0.77004 0.80439 0.32656 0.0
H2759 H 0.77006 0.81606 0.35776 0.0
H2760 H 0.82143 0.81925 0.39485 0.0
C2761 C 0.79671 0.82758 0.45804 0.0
C2762 C 0.7752 0.82073 0.41217 0.0
C2763 C 0.7953 0.83513 0.47565 0.0
C2764 C 0.78033 0.80237 0.33626 0.0
C2765 C 0.78025 0.80893 0.35438 0.0
C2766 C 0.80829 0.81914 0.39942 0.0
C2767 C 0.79021 0.83514 0.44281 0.0
C2768 C 0.79101 0.82689 0.42401 0.0
C2769 C 0.79313 0.80656 0.36775 0.0
C2770 C 0.79246 0.81312 0.38738 0.0
H2771 H 0.77579 0.87049 0.46472 0.0
H2772 H 0.77755 0.85683 0.4342 0.0
H2773 H 0.81999 0.8305 0.42626 0.0
H2774 H 0.81715 0.78492 0.33993 0.0
H2775 H 0.81659 0.79545 0.3717 0.0
C2776 C 0.4353 0.53221 0.79629 0.0
C2777 C 0.44326 0.53346 0.77976 0.0
C2778 C 0.44403 0.52715 0.81143 0.0
C2779 C 0.48902 0.52457 0.82997 0.0
H2780 H 0.46011 0.49282 0.86383 0.0
C2781 C 0.52028 0.49688 0.89217 0.0
C2782 C 0.51301 0.50035 0.90854 0.0
C2783 C 0.51189 0.49961 0.87574 0.0
C2784 C 0.46832 0.50172 0.85448 0.0
H2785 H 0.46649 0.53027 0.76597 0.0
H2786 H 0.48151 0.52087 0.79229 0.0
H2787 H 0.44522 0.49995 0.83628 0.0
H2788 H 0.49138 0.5097 0.92043 0.0
H2789 H 0.47659 0.51398 0.89177 0.0
H2790 H 0.51213 0.52615 0.84825 0.0
C2791 C 0.46873 0.52422 0.79369 0.0
C2792 C 0.45982 0.50589 0.83876 0.0
C2793 C 0.46008 0.5295 0.77859 0.0
C2794 C 0.49711 0.50645 0.90808 0.0
C2795 C 0.48866 0.50898 0.89168 0.0
C2796 C 0.49754 0.52021 0.84562 0.0
C2797 C 0.4608 0.523 0.8103 0.0
C2798 C 0.47002 0.51763 0.82646 0.0
C2799 C 0.49601 0.50566 0.87538 0.0
C2800 C 0.48723 0.509 0.85813 0.0
H2801 H 0.4224 0.53533 0.79759 0.0
H2802 H 0.43771 0.52675 0.82409 0.0
H2803 H 0.49726 0.53384 0.8209 0.0
H2804 H 0.53239 0.49197 0.89205 0.0
H2805 H 0.51773 0.49684 0.8633 0.0
C2806 C 0.8052 0.16258 0.10643 0.0
C2807 C 0.8077 0.17703 0.09412 0.0
C2808 C 0.80544 0.16754 0.12498 0.0
C2809 C 0.78974 0.19852 0.15292 0.0
H2810 H 0.82811 0.20616 0.19133 0.0
C2811 C 0.79766 0.25394 0.21243 0.0
C2812 C 0.80039 0.24849 0.22994 0.0
C2813 C 0.79836 0.24174 0.19742 0.0
C2814 C 0.81714 0.2037 0.18083 0.0
H2815 H 0.81401 0.20809 0.09177 0.0
H2816 H 0.81425 0.21652 0.12392 0.0
H2817 H 0.83077 0.18999 0.16193 0.0
H2818 H 0.80656 0.22619 0.24547 0.0
H2819 H 0.808 0.20486 0.21899 0.0
H2820 H 0.77647 0.213 0.17122 0.0
C2821 C 0.81199 0.20144 0.1192 0.0
C2822 C 0.81866 0.19447 0.16411 0.0
C2823 C 0.81177 0.19656 0.10081 0.0
C2824 C 0.80428 0.23073 0.23212 0.0
C2825 C 0.80517 0.21856 0.21703 0.0
C2826 C 0.78822 0.20772 0.16949 0.0
C2827 C 0.80828 0.18696 0.13131 0.0
C2828 C 0.80521 0.19241 0.14994 0.0
C2829 C 0.80193 0.22386 0.19956 0.0
C2830 C 0.80221 0.21105 0.18337 0.0
H2831 H 0.80205 0.14741 0.10167 0.0
H2832 H 0.80248 0.1562 0.13421 0.0
H2833 H 0.77925 0.19706 0.14207 0.0
H2834 H 0.79466 0.26751 0.21026 0.0
H2835 H 0.79613 0.24631 0.18407 0.0
C2836 C 0.14423 0.51329 0.3043 0.0
C2837 C 0.13866 0.51981 0.28816 0.0
C2838 C 0.13513 0.51483 0.3198 0.0
C2839 C 0.09044 0.51954 0.33187 0.0
H2840 H 0.11317 0.52892 0.38077 0.0
C2841 C 0.05752 0.54145 0.3943 0.0
C2842 C 0.05912 0.53163 0.4098 0.0
C2843 C 0.06632 0.53815 0.37908 0.0
C2844 C 0.10669 0.52609 0.36715 0.0
H2845 H 0.12054 0.53445 0.27565 0.0
H2846 H 0.10544 0.53823 0.3028 0.0
H2847 H 0.13192 0.5287 0.35541 0.0
H2848 H 0.06999 0.50963 0.42106 0.0
H2849 H 0.08582 0.50435 0.39458 0.0
H2850 H 0.06532 0.51766 0.34369 0.0
C2851 C 0.11613 0.53109 0.30345 0.0
C2852 C 0.11738 0.52594 0.35267 0.0
C2853 C 0.12491 0.52915 0.28795 0.0
C2854 C 0.06891 0.51777 0.40947 0.0
C2855 C 0.07789 0.51467 0.39436 0.0
C2856 C 0.07983 0.51998 0.34633 0.0
C2857 C 0.12059 0.52321 0.31932 0.0
C2858 C 0.10938 0.52289 0.33486 0.0
C2859 C 0.07694 0.52513 0.37923 0.0
C2860 C 0.0879 0.52339 0.36403 0.0
H2861 H 0.15474 0.50588 0.30462 0.0
H2862 H 0.13887 0.50858 0.33181 0.0
H2863 H 0.08376 0.51656 0.31835 0.0
H2864 H 0.05019 0.55231 0.39421 0.0
H2865 H 0.06551 0.54641 0.36752 0.0
C2866 C 0.7853 0.82576 0.58232 0.0
C2867 C 0.78748 0.84464 0.57693 0.0
C2868 C 0.78398 0.8218 0.60049 0.0
C2869 C 0.77679 0.84185 0.6466 0.0
H2870 H 0.79711 0.80115 0.66179 0.0
C2871 C 0.78508 0.82216 0.72235 0.0
C2872 C 0.78066 0.80219 0.72495 0.0
C2873 C 0.78524 0.82865 0.70478 0.0
C2874 C 0.79122 0.81247 0.65782 0.0
H2875 H 0.78956 0.87413 0.58684 0.0
H2876 H 0.78773 0.86735 0.61873 0.0
H2877 H 0.79904 0.81009 0.6309 0.0
H2878 H 0.77229 0.77352 0.7107 0.0
H2879 H 0.7727 0.78474 0.68058 0.0
H2880 H 0.76942 0.84436 0.67398 0.0
C2881 C 0.78675 0.85546 0.60876 0.0
C2882 C 0.79223 0.81759 0.63993 0.0
C2883 C 0.78786 0.85941 0.5904 0.0
C2884 C 0.77586 0.78901 0.70946 0.0
C2885 C 0.77621 0.79545 0.69204 0.0
C2886 C 0.77596 0.83685 0.66467 0.0
C2887 C 0.78506 0.83659 0.61417 0.0
C2888 C 0.78473 0.83211 0.63381 0.0
C2889 C 0.78122 0.81535 0.68934 0.0
C2890 C 0.78289 0.82182 0.67046 0.0
H2891 H 0.78464 0.81387 0.57243 0.0
H2892 H 0.78207 0.80695 0.60374 0.0
H2893 H 0.77075 0.85304 0.64259 0.0
H2894 H 0.78892 0.83281 0.73386 0.0
H2895 H 0.78918 0.84408 0.70327 0.0
C2896 C 0.7274 0.43056 0.52013 0.0
C2897 C 0.74642 0.43795 0.52202 0.0
C2898 C 0.71643 0.44167 0.52648 0.0
C2899 C 0.71706 0.49235 0.53775 0.0
H2900 H 0.67206 0.46847 0.55882 0.0
C2901 C 0.66911 0.53601 0.56361 0.0
C2902 C 0.65049 0.52757 0.55871 0.0
C2903 C 0.68164 0.52547 0.56066 0.0
C2904 C 0.68454 0.47532 0.55287 0.0
H2905 H 0.76891 0.46254 0.53252 0.0
H2906 H 0.74973 0.48184 0.54389 0.0
H2907 H 0.69249 0.4491 0.55138 0.0
H2908 H 0.63051 0.50174 0.54627 0.0
H2909 H 0.65226 0.48344 0.54123 0.0
H2910 H 0.70896 0.51854 0.5391 0.0
C2911 C 0.7433 0.46758 0.53721 0.0
C2912 C 0.69623 0.46423 0.54859 0.0
C2913 C 0.75427 0.45649 0.53079 0.0
C2914 C 0.6447 0.50849 0.55065 0.0
C2915 C 0.65716 0.49799 0.54773 0.0
C2916 C 0.70537 0.50348 0.54208 0.0
C2917 C 0.72425 0.46038 0.53493 0.0
C2918 C 0.7125 0.47254 0.54073 0.0
C2919 C 0.67575 0.50631 0.55276 0.0
C2920 C 0.68886 0.49499 0.54943 0.0
H2921 H 0.72094 0.41635 0.51336 0.0
H2922 H 0.70181 0.43578 0.52428 0.0
H2923 H 0.72937 0.49914 0.5315 0.0
H2924 H 0.67396 0.55067 0.5699 0.0
H2925 H 0.69588 0.53222 0.56476 0.0
C2926 C 0.23598 0.14194 0.51026 0.0
C2927 C 0.23686 0.16177 0.51206 0.0
C2928 C 0.21962 0.1277 0.51207 0.0
C2929 C 0.17812 0.11992 0.53513 0.0
H2930 H 0.15618 0.07765 0.49882 0.0
C2931 C 0.10423 0.07378 0.53741 0.0
C2932 C 0.09861 0.05437 0.53014 0.0
C2933 C 0.12185 0.08543 0.53588 0.0
C2934 C 0.16225 0.0891 0.50931 0.0
H2935 H 0.22112 0.18208 0.51705 0.0
H2936 H 0.1928 0.15727 0.52067 0.0
H2937 H 0.18539 0.10066 0.49431 0.0
H2938 H 0.10756 0.03187 0.51605 0.0
H2939 H 0.13868 0.05204 0.51399 0.0
H2940 H 0.15553 0.10835 0.55047 0.0
C2941 C 0.20473 0.15278 0.51767 0.0
C2942 C 0.17895 0.10236 0.50662 0.0
C2943 C 0.22094 0.16697 0.51549 0.0
C2944 C 0.11139 0.04674 0.52181 0.0
C2945 C 0.12921 0.05841 0.52046 0.0
C2946 C 0.16166 0.10651 0.538 0.0
C2947 C 0.20393 0.13301 0.51613 0.0
C2948 C 0.18685 0.11813 0.51935 0.0
C2949 C 0.13464 0.07805 0.52727 0.0
C2950 C 0.1532 0.09112 0.52495 0.0
H2951 H 0.24797 0.13743 0.5076 0.0
H2952 H 0.21938 0.11257 0.51085 0.0
H2953 H 0.18407 0.13175 0.54532 0.0
H2954 H 0.09482 0.0803 0.54381 0.0
H2955 H 0.12518 0.1005 0.54097 0.0
C2956 C 0.21011 0.99002 0.79359 0.0
C2957 C 0.19164 0.98267 0.79641 0.0
C2958 C 0.21913 0.97854 0.7843 0.0
C2959 C 0.21546 0.92725 0.77075 0.0
H2960 H 0.25496 0.95022 0.74163 0.0
C2961 C 0.25405 0.88058 0.73514 0.0
C2962 C 0.27273 0.88631 0.7407 0.0
C2963 C 0.2435 0.89326 0.73801 0.0
C2964 C 0.2439 0.94365 0.74966 0.0
H2965 H 0.16793 0.95779 0.79137 0.0
H2966 H 0.18348 0.9379 0.77463 0.0
H2967 H 0.23711 0.97027 0.75455 0.0
H2968 H 0.29528 0.91036 0.75211 0.0
H2969 H 0.27683 0.93269 0.75677 0.0
H2970 H 0.22224 0.90065 0.76579 0.0
C2971 C 0.19119 0.95233 0.78002 0.0
C2972 C 0.23376 0.95511 0.75718 0.0
C2973 C 0.18224 0.96373 0.78956 0.0
C2974 C 0.28095 0.90556 0.74761 0.0
C2975 C 0.27039 0.91832 0.75032 0.0
C2976 C 0.22541 0.91577 0.76302 0.0
C2977 C 0.20979 0.95955 0.77738 0.0
C2978 C 0.21962 0.94712 0.76809 0.0
C2979 C 0.25147 0.91199 0.74625 0.0
C2980 C 0.23988 0.92392 0.75264 0.0
H2981 H 0.21771 0.00457 0.7988 0.0
H2982 H 0.23352 0.98447 0.78289 0.0
H2983 H 0.20494 0.92064 0.77933 0.0
H2984 H 0.24741 0.86596 0.72942 0.0
H2985 H 0.22897 0.88817 0.73451 0.0
C2986 C 0.34611 0.91151 0.98342 0.0
C2987 C 0.33261 0.92127 0.98383 0.0
C2988 C 0.36448 0.92187 0.9857 0.0
C2989 C 0.39366 0.96898 0.00611 0.0
H2990 H 0.43196 0.95152 0.98511 0.0
C2991 C 0.46971 0.01174 0.01636 0.0
C2992 C 0.48185 1.00096 0.02072 0.0
C2993 C 0.45143 1.00241 0.01131 0.0
C2994 C 0.42137 0.95646 0.99113 0.0
H2995 H 0.32779 0.94959 0.98545 0.0
H2996 H 0.35985 0.96769 0.98877 0.0
H2997 H 0.40022 0.93504 0.97525 0.0
H2998 H 0.48438 0.97198 0.0235 0.0
H2999 H 0.45237 0.95564 0.01455 0.0
H3000 H 0.41488 0.99053 0.02184 0.0
C3001 C 0.35625 0.952 0.98736 0.0
C3002 C 0.40321 0.94704 0.98551 0.0
C3003 C 0.33787 0.94164 0.98531 0.0
C3004 C 0.47532 0.98067 0.02028 0.0
C3005 C 0.45706 0.97131 0.01501 0.0
C3006 C 0.4118 0.97851 0.01157 0.0
C3007 C 0.36976 0.94223 0.98821 0.0
C3008 C 0.38912 0.95307 0.99306 0.0
C3009 C 0.44501 0.9821 0.01034 0.0
C3010 C 0.4258 0.97221 0.00427 0.0
H3011 H 0.34251 0.89581 0.98237 0.0
H3012 H 0.37448 0.91382 0.98643 0.0
H3013 H 0.38319 0.97378 0.01252 0.0
H3014 H 0.47437 0.0274 0.01659 0.0
H3015 H 0.44241 0.01104 0.00771 0.0
C3016 C 0.91007 0.60105 0.79193 0.0
C3017 C 0.90735 0.58191 0.78491 0.0
C3018 C 0.89967 0.61229 0.78455 0.0
C3019 C 0.85538 0.60503 0.75889 0.0
H3020 H 0.87035 0.6612 0.76142 0.0
C3021 C 0.81343 0.65966 0.73903 0.0
C3022 C 0.80863 0.66706 0.75535 0.0
C3023 C 0.82604 0.6489 0.73923 0.0
C3024 C 0.86617 0.64549 0.76039 0.0
H3025 H 0.89318 0.55991 0.76384 0.0
H3026 H 0.87576 0.57975 0.75035 0.0
H3027 H 0.89312 0.64382 0.76723 0.0
H3028 H 0.81237 0.66806 0.7846 0.0
H3029 H 0.83463 0.64956 0.78482 0.0
H3030 H 0.82839 0.6069 0.75231 0.0
C3031 C 0.88516 0.5859 0.76203 0.0
C3032 C 0.87908 0.63556 0.76389 0.0
C3033 C 0.89517 0.57457 0.76969 0.0
C3034 C 0.81607 0.66284 0.77182 0.0
C3035 C 0.82874 0.6523 0.77199 0.0
C3036 C 0.84257 0.61496 0.75517 0.0
C3037 C 0.88674 0.60462 0.76979 0.0
C3038 C 0.87374 0.61522 0.76366 0.0
C3039 C 0.83398 0.64559 0.75573 0.0
C3040 C 0.84785 0.63521 0.75633 0.0
H3041 H 0.91947 0.60693 0.80368 0.0
H3042 H 0.90114 0.62659 0.79099 0.0
H3043 H 0.85066 0.5894 0.75894 0.0
H3044 H 0.80803 0.66284 0.72615 0.0
H3045 H 0.82995 0.64362 0.72658 0.0
C3046 C 0.83134 0.64328 0.032 0.0
C3047 C 0.83594 0.66266 0.02755 0.0
C3048 C 0.84465 0.63346 0.03408 0.0
C3049 C 0.89134 0.63479 0.02191 0.0
H3050 H 0.88742 0.59683 0.05736 0.0
C3051 C 0.93518 0.58063 0.02206 0.0
C3052 C 0.94097 0.57521 0.03877 0.0
C3053 C 0.92306 0.59204 0.02112 0.0
C3054 C 0.88891 0.6075 0.0475 0.0
H3055 H 0.85834 0.68699 0.02209 0.0
H3056 H 0.88167 0.67 0.02601 0.0
H3057 H 0.86561 0.61565 0.05566 0.0
H3058 H 0.93884 0.5782 0.06766 0.0
H3059 H 0.91798 0.59823 0.06608 0.0
H3060 H 0.91488 0.62689 0.014 0.0
C3061 C 0.86767 0.66225 0.02763 0.0
C3062 C 0.87618 0.61817 0.04635 0.0
C3063 C 0.8543 0.67208 0.02553 0.0
C3064 C 0.93448 0.58179 0.05453 0.0
C3065 C 0.92244 0.59329 0.0536 0.0
C3066 C 0.9041 0.62414 0.02308 0.0
C3067 C 0.86302 0.64273 0.0318 0.0
C3068 C 0.8771 0.6319 0.03347 0.0
C3069 C 0.91642 0.59849 0.03687 0.0
C3070 C 0.90304 0.61024 0.03584 0.0
H3071 H 0.81733 0.63549 0.03356 0.0
H3072 H 0.84041 0.6184 0.03702 0.0
H3073 H 0.89245 0.64504 0.01168 0.0
H3074 H 0.93968 0.57564 0.00961 0.0
H3075 H 0.91858 0.59543 0.00795 0.0
C3076 C 0.17341 0.0925 0.83794 0.0
C3077 C 0.18036 0.07662 0.83456 0.0
C3078 C 0.18421 0.1114 0.83639 0.0
C3079 C 0.23177 0.14105 0.83221 0.0
H3080 H 0.2082 0.17235 0.80432 0.0
C3081 C 0.27142 0.20753 0.7967 0.0
C3082 C 0.2647 0.22381 0.79733 0.0
C3083 C 0.26156 0.19022 0.80327 0.0
C3084 C 0.21495 0.16392 0.81233 0.0
H3085 H 0.20451 0.0683 0.82802 0.0
H3086 H 0.2231 0.10103 0.82513 0.0
H3087 H 0.19024 0.1414 0.81339 0.0
H3088 H 0.24246 0.23473 0.80563 0.0
H3089 H 0.22547 0.20472 0.81707 0.0
H3090 H 0.25659 0.16348 0.83071 0.0
C3091 C 0.20939 0.09899 0.82908 0.0
C3092 C 0.20463 0.1462 0.8176 0.0
C3093 C 0.19864 0.08016 0.83062 0.0
C3094 C 0.24805 0.22247 0.80484 0.0
C3095 C 0.23822 0.20522 0.81134 0.0
C3096 C 0.24212 0.15878 0.82687 0.0
C3097 C 0.20218 0.1148 0.83148 0.0
C3098 C 0.21294 0.13445 0.82745 0.0
C3099 C 0.24478 0.18886 0.81052 0.0
C3100 C 0.23383 0.17032 0.81674 0.0
H3101 H 0.15943 0.09032 0.84108 0.0
H3102 H 0.17835 0.12332 0.83863 0.0
H3103 H 0.23855 0.13246 0.83997 0.0
H3104 H 0.28419 0.20808 0.79101 0.0
H3105 H 0.26687 0.17778 0.8023 0.0
C3106 C 0.38761 0.98777 0.31423 0.0
C3107 C 0.40582 0.99065 0.32077 0.0
C3108 C 0.37513 0.96946 0.31366 0.0
C3109 C 0.37521 0.91862 0.30984 0.0
H3110 H 0.32316 0.90895 0.31228 0.0
C3111 C 0.32627 0.84936 0.27597 0.0
C3112 C 0.31188 0.83942 0.28564 0.0
C3113 C 0.33641 0.86818 0.28185 0.0
C3114 C 0.33767 0.91138 0.31173 0.0
H3115 H 0.42475 0.97692 0.33334 0.0
H3116 H 0.40283 0.94506 0.33271 0.0
H3117 H 0.34352 0.94099 0.32229 0.0
H3118 H 0.29618 0.84168 0.30854 0.0
H3119 H 0.31416 0.87468 0.31903 0.0
H3120 H 0.36949 0.88911 0.29945 0.0
C3121 C 0.39836 0.95686 0.32752 0.0
C3122 C 0.34933 0.92976 0.31733 0.0
C3123 C 0.41091 0.97514 0.32797 0.0
C3124 C 0.3072 0.84904 0.30081 0.0
C3125 C 0.31749 0.8679 0.30681 0.0
C3126 C 0.36361 0.90032 0.30434 0.0
C3127 C 0.38051 0.95365 0.31975 0.0
C3128 C 0.36821 0.93367 0.31612 0.0
C3129 C 0.33252 0.87744 0.29766 0.0
C3130 C 0.34469 0.8966 0.30481 0.0
H3131 H 0.38316 0.99939 0.30865 0.0
H3132 H 0.36155 0.96752 0.30746 0.0
H3133 H 0.38962 0.92112 0.30849 0.0
H3134 H 0.33003 0.84243 0.26407 0.0
H3135 H 0.34756 0.87535 0.27419 0.0
C3136 C 0.5776 0.36532 0.62473 0.0
C3137 C 0.57618 0.34835 0.61363 0.0
C3138 C 0.576 0.3823 0.61724 0.0
C3139 C 0.55536 0.3986 0.57719 0.0
H3140 H 0.58709 0.44955 0.59333 0.0
C3141 C 0.54944 0.46674 0.54213 0.0
C3142 C 0.55335 0.48464 0.55244 0.0
C3143 C 0.55289 0.45048 0.54949 0.0
C3144 C 0.57786 0.43552 0.5888 0.0
H3145 H 0.5723 0.33618 0.58583 0.0
H3146 H 0.5693 0.36563 0.57283 0.0
H3147 H 0.59205 0.42096 0.60638 0.0
H3148 H 0.56399 0.49928 0.57877 0.0
H3149 H 0.56938 0.47092 0.5918 0.0
H3150 H 0.54077 0.41294 0.56006 0.0
C3151 C 0.57164 0.36582 0.58735 0.0
C3152 C 0.58081 0.41905 0.59628 0.0
C3153 C 0.5735 0.34895 0.59482 0.0
C3154 C 0.56082 0.48578 0.57037 0.0
C3155 C 0.56406 0.46944 0.57782 0.0
C3156 C 0.55225 0.41504 0.5699 0.0
C3157 C 0.57265 0.38269 0.59846 0.0
C3158 C 0.56965 0.40034 0.59052 0.0
C3159 C 0.56015 0.45146 0.56752 0.0
C3160 C 0.56348 0.43383 0.5755 0.0
H3161 H 0.57962 0.36539 0.63928 0.0
H3162 H 0.57677 0.39495 0.62623 0.0
H3163 H 0.54628 0.38447 0.57262 0.0
H3164 H 0.54388 0.46529 0.52822 0.0
H3165 H 0.55003 0.43717 0.54086 0.0
C3166 C 0.43983 0.76994 0.40935 0.0
C3167 C 0.45549 0.76605 0.40301 0.0
C3168 C 0.42507 0.7701 0.3974 0.0
C3169 C 0.40345 0.75366 0.35092 0.0
H3170 H 0.37939 0.7936 0.36032 0.0
C3171 C 0.34706 0.76582 0.30055 0.0
C3172 C 0.33257 0.77141 0.30778 0.0
C3173 C 0.36205 0.76467 0.3118 0.0
C3174 C 0.38573 0.78215 0.35757 0.0
H3175 H 0.46756 0.75898 0.37884 0.0
H3176 H 0.44176 0.75928 0.35794 0.0
H3177 H 0.40532 0.79248 0.38024 0.0
H3178 H 0.32246 0.77972 0.33274 0.0
H3179 H 0.34825 0.77739 0.35225 0.0
H3180 H 0.38375 0.7433 0.32825 0.0
C3181 C 0.44091 0.7621 0.37228 0.0
C3182 C 0.4007 0.78153 0.36904 0.0
C3183 C 0.45577 0.762 0.38428 0.0
C3184 C 0.33336 0.77548 0.32661 0.0
C3185 C 0.3483 0.77428 0.33783 0.0
C3186 C 0.38841 0.75425 0.33944 0.0
C3187 C 0.42542 0.76637 0.37866 0.0
C3188 C 0.40973 0.76721 0.36598 0.0
C3189 C 0.36298 0.76904 0.33061 0.0
C3190 C 0.37923 0.76845 0.34265 0.0
H3191 H 0.43896 0.77307 0.42364 0.0
H3192 H 0.41331 0.77309 0.40291 0.0
H3193 H 0.4099 0.7423 0.3482 0.0
H3194 H 0.34702 0.76264 0.28613 0.0
H3195 H 0.37311 0.76078 0.30564 0.0
C3196 C 0.0703 0.73938 0.08253 0.0
C3197 C 0.07012 0.74582 0.10074 0.0
C3198 C 0.06792 0.71977 0.07736 0.0
C3199 C 0.05302 0.66982 0.09344 0.0
H3200 H 0.07893 0.65776 0.05322 0.0
C3201 C 0.0395 0.59105 0.06193 0.0
C3202 C 0.0537 0.58526 0.05431 0.0
C3203 C 0.04177 0.61042 0.06805 0.0
C3204 C 0.07175 0.66073 0.06464 0.0
H3205 H 0.06697 0.73641 0.12777 0.0
H3206 H 0.06332 0.70223 0.11888 0.0
H3207 H 0.08241 0.69131 0.0633 0.0
H3208 H 0.08157 0.59545 0.04741 0.0
H3209 H 0.08584 0.62908 0.05869 0.0
H3210 H 0.04301 0.63921 0.09529 0.0
C3211 C 0.06493 0.7123 0.10846 0.0
C3212 C 0.07349 0.68014 0.07027 0.0
C3213 C 0.06707 0.73197 0.11361 0.0
C3214 C 0.07032 0.59938 0.05314 0.0
C3215 C 0.0727 0.61877 0.05951 0.0
C3216 C 0.05144 0.65039 0.08795 0.0
C3217 C 0.06555 0.70591 0.09025 0.0
C3218 C 0.06401 0.68505 0.08464 0.0
C3219 C 0.05841 0.62465 0.06699 0.0
C3220 C 0.06065 0.64548 0.07334 0.0
H3221 H 0.0724 0.74956 0.07218 0.0
H3222 H 0.06795 0.71553 0.06316 0.0
H3223 H 0.04534 0.67282 0.10444 0.0
H3224 H 0.0264 0.58066 0.06285 0.0
H3225 H 0.03026 0.61424 0.07326 0.0
C3226 C 0.07134 0.27719 0.90502 0.0
C3227 C 0.05388 0.26762 0.8969 0.0
C3228 C 0.08684 0.27809 0.89567 0.0
C3229 C 0.1037 0.2546 0.85737 0.0
H3230 H 0.14085 0.30382 0.85871 0.0
C3231 C 0.1622 0.26688 0.80979 0.0
C3232 C 0.1795 0.27881 0.81636 0.0
C3233 C 0.14713 0.26526 0.81995 0.0
C3234 C 0.13078 0.28986 0.85837 0.0
H3235 H 0.03908 0.25118 0.87265 0.0
H3236 H 0.06609 0.2526 0.85641 0.0
H3237 H 0.11437 0.30114 0.87595 0.0
H3238 H 0.19447 0.29813 0.83901 0.0
H3239 H 0.16831 0.29513 0.85683 0.0
H3240 H 0.12012 0.24322 0.83996 0.0
C3241 C 0.06782 0.25939 0.87003 0.0
C3242 C 0.11554 0.28835 0.86826 0.0
C3243 C 0.05232 0.25865 0.87932 0.0
C3244 C 0.18132 0.28902 0.83341 0.0
C3245 C 0.16626 0.28731 0.84363 0.0
C3246 C 0.119 0.25606 0.84758 0.0
C3247 C 0.08528 0.26929 0.87801 0.0
C3248 C 0.10175 0.27073 0.86782 0.0
C3249 C 0.14891 0.27543 0.83704 0.0
C3250 C 0.13275 0.27375 0.84784 0.0
H3251 H 0.07305 0.28427 0.91854 0.0
H3252 H 0.10007 0.28564 0.90231 0.0
H3253 H 0.09347 0.24074 0.85692 0.0
H3254 H 0.16021 0.25904 0.7966 0.0
H3255 H 0.134 0.25627 0.8142 0.0
C3256 C 0.52619 0.71144 0.92859 0.0
C3257 C 0.54012 0.72155 0.91809 0.0
C3258 C 0.52661 0.69428 0.93694 0.0
C3259 C 0.5515 0.65425 0.94064 0.0
H3260 H 0.52341 0.64293 0.98213 0.0
C3261 C 0.54513 0.5805 0.97736 0.0
C3262 C 0.54042 0.57893 0.9955 0.0
C3263 C 0.54545 0.59732 0.96783 0.0
C3264 C 0.53158 0.64556 0.97071 0.0
H3265 H 0.56577 0.71988 0.90857 0.0
H3266 H 0.56661 0.69006 0.92303 0.0
H3267 H 0.52401 0.6717 0.96672 0.0
H3268 H 0.53251 0.5953 0.01733 0.0
H3269 H 0.53321 0.62403 0.00129 0.0
H3270 H 0.55943 0.62822 0.94507 0.0
C3271 C 0.55498 0.69552 0.9247 0.0
C3272 C 0.5317 0.66241 0.9614 0.0
C3273 C 0.5545 0.71289 0.91615 0.0
C3274 C 0.53607 0.59531 0.00347 0.0
C3275 C 0.53641 0.61213 0.99398 0.0
C3276 C 0.55138 0.63732 0.94999 0.0
C3277 C 0.54114 0.6858 0.9357 0.0
C3278 C 0.54156 0.66739 0.94594 0.0
C3279 C 0.54111 0.61381 0.97578 0.0
C3280 C 0.54138 0.63232 0.96539 0.0
H3281 H 0.51466 0.717 0.93065 0.0
H3282 H 0.51519 0.68767 0.94447 0.0
H3283 H 0.55935 0.65684 0.92898 0.0
H3284 H 0.54867 0.56859 0.97036 0.0
H3285 H 0.54899 0.59717 0.95398 0.0
C3286 C 0.09419 0.78183 0.69675 0.0
C3287 C 0.09395 0.79207 0.68101 0.0
C3288 C 0.11093 0.78045 0.7059 0.0
C3289 C 0.16337 0.79097 0.69997 0.0
H3290 H 0.16673 0.77726 0.74923 0.0
C3291 C 0.23574 0.79231 0.73649 0.0
C3292 C 0.23734 0.78136 0.75147 0.0
C3293 C 0.21855 0.7934 0.72861 0.0
C3294 C 0.16636 0.78099 0.73537 0.0
H3295 H 0.11265 0.80928 0.66362 0.0
H3296 H 0.14058 0.80748 0.67916 0.0
H3297 H 0.13774 0.77938 0.73528 0.0
H3298 H 0.2205 0.76302 0.76948 0.0
H3299 H 0.19109 0.76475 0.756 0.0
H3300 H 0.19182 0.7925 0.69992 0.0
C3301 C 0.12803 0.79983 0.68451 0.0
C3302 C 0.14927 0.78225 0.72717 0.0
C3303 C 0.11152 0.8011 0.67545 0.0
C3304 C 0.22047 0.77167 0.75808 0.0
C3305 C 0.20323 0.77279 0.75021 0.0
C3306 C 0.18038 0.78977 0.70816 0.0
C3307 C 0.12853 0.7892 0.69992 0.0
C3308 C 0.1471 0.78741 0.70914 0.0
C3309 C 0.20156 0.78366 0.73509 0.0
C3310 C 0.18265 0.78481 0.72621 0.0
H3311 H 0.0814 0.77428 0.70176 0.0
H3312 H 0.1099 0.77199 0.71752 0.0
H3313 H 0.16312 0.79449 0.68606 0.0
H3314 H 0.24796 0.80027 0.73073 0.0
H3315 H 0.21877 0.80231 0.71739 0.0
C3316 C 0.05059 0.34402 0.40371 0.0
C3317 C 0.04939 0.32682 0.41249 0.0
C3318 C 0.04958 0.36157 0.41316 0.0
C3319 C 0.05303 0.38709 0.46097 0.0
H3320 H 0.03249 0.42311 0.43675 0.0
C3321 C 0.04534 0.45785 0.50222 0.0
C3322 C 0.04215 0.47371 0.49353 0.0
C3323 C 0.04612 0.44042 0.49246 0.0
C3324 C 0.03857 0.41362 0.44401 0.0
H3325 H 0.04612 0.31563 0.43882 0.0
H3326 H 0.04455 0.34564 0.45505 0.0
H3327 H 0.03416 0.39347 0.42032 0.0
H3328 H 0.03748 0.48267 0.46683 0.0
H3329 H 0.03933 0.45321 0.45002 0.0
H3330 H 0.05784 0.40716 0.48451 0.0
C3331 C 0.04637 0.3458 0.44074 0.0
C3332 C 0.0395 0.39618 0.43432 0.0
C3333 C 0.04717 0.32823 0.43126 0.0
C3334 C 0.03989 0.47111 0.4744 0.0
C3335 C 0.04086 0.45375 0.46458 0.0
C3336 C 0.05229 0.40461 0.4706 0.0
C3337 C 0.04754 0.36308 0.43203 0.0
C3338 C 0.04668 0.38227 0.44249 0.0
C3339 C 0.04397 0.43769 0.47324 0.0
C3340 C 0.04495 0.41854 0.46254 0.0
H3341 H 0.05232 0.34398 0.38938 0.0
H3342 H 0.05074 0.37415 0.40556 0.0
H3343 H 0.059 0.37742 0.46812 0.0
H3344 H 0.04707 0.45874 0.51683 0.0
H3345 H 0.04822 0.42898 0.50031 0.0
C3346 C 0.47026 0.28605 0.1758 0.0
C3347 C 0.48475 0.28022 0.18437 0.0
C3348 C 0.45366 0.28552 0.1841 0.0
C3349 C 0.42415 0.26454 0.2231 0.0
H3350 H 0.39801 0.30179 0.21187 0.0
C3351 C 0.35007 0.25952 0.25043 0.0
C3352 C 0.34444 0.27654 0.25402 0.0
C3353 C 0.36675 0.25977 0.24234 0.0
C3354 C 0.40491 0.29114 0.21543 0.0
H3355 H 0.49166 0.26897 0.20933 0.0
H3356 H 0.46314 0.26754 0.22334 0.0
H3357 H 0.42622 0.30252 0.19787 0.0
H3358 H 0.3534 0.30737 0.25093 0.0
H3359 H 0.38157 0.30776 0.2369 0.0
H3360 H 0.40268 0.25303 0.24051 0.0
C3361 C 0.46454 0.27272 0.21 0.0
C3362 C 0.42143 0.29147 0.20707 0.0
C3363 C 0.4813 0.27359 0.20182 0.0
C3364 C 0.35665 0.29375 0.24875 0.0
C3365 C 0.37314 0.29395 0.2404 0.0
C3366 C 0.40742 0.26398 0.2312 0.0
C3367 C 0.45009 0.2788 0.20153 0.0
C3368 C 0.43179 0.27825 0.21063 0.0
C3369 C 0.37892 0.27699 0.2369 0.0
C3370 C 0.39717 0.27734 0.22779 0.0
H3371 H 0.47179 0.29136 0.16251 0.0
H3372 H 0.44342 0.29027 0.17654 0.0
H3373 H 0.43099 0.25382 0.22654 0.0
H3374 H 0.34157 0.24577 0.25396 0.0
H3375 H 0.36991 0.24612 0.24008 0.0
C3376 C 0.63136 0.50646 0.36659 0.0
C3377 C 0.65013 0.51005 0.36514 0.0
C3378 C 0.62461 0.50803 0.38332 0.0
C3379 C 0.63158 0.50649 0.43133 0.0
H3380 H 0.59852 0.53865 0.43215 0.0
C3381 C 0.59387 0.52247 0.49381 0.0
C3382 C 0.5754 0.5213 0.48994 0.0
C3383 C 0.60491 0.52101 0.47983 0.0
C3384 C 0.60766 0.52958 0.43211 0.0
H3385 H 0.67653 0.5171 0.38014 0.0
H3386 H 0.66448 0.51974 0.40988 0.0
H3387 H 0.6152 0.53659 0.40566 0.0
H3388 H 0.55386 0.51678 0.46848 0.0
H3389 H 0.57308 0.51417 0.4442 0.0
H3390 H 0.62353 0.49909 0.45773 0.0
C3391 C 0.65516 0.51583 0.39785 0.0
C3392 C 0.61726 0.52849 0.41702 0.0
C3393 C 0.66201 0.51435 0.38092 0.0
C3394 C 0.56805 0.51791 0.47192 0.0
C3395 C 0.57907 0.51652 0.458 0.0
C3396 C 0.6219 0.50757 0.44654 0.0
C3397 C 0.63644 0.51318 0.39903 0.0
C3398 C 0.62886 0.5165 0.41627 0.0
C3399 C 0.59767 0.51848 0.46179 0.0
C3400 C 0.60944 0.51868 0.44677 0.0
H3401 H 0.62181 0.50284 0.35473 0.0
H3402 H 0.61009 0.50554 0.38395 0.0
H3403 H 0.64045 0.49713 0.43097 0.0
H3404 H 0.59993 0.52499 0.50759 0.0
H3405 H 0.61921 0.52256 0.48309 0.0
C3406 C 0.28981 0.86722 0.05005 0.0
C3407 C 0.28904 0.8854 0.04477 0.0
C3408 C 0.2964 0.8653 0.06748 0.0
C3409 C 0.32243 0.86774 0.0998 0.0
H3410 H 0.30706 0.88977 0.1428 0.0
C3411 C 0.34406 0.84822 0.16921 0.0
C3412 C 0.32953 0.84211 0.18009 0.0
C3413 C 0.34229 0.85882 0.15441 0.0
C3414 C 0.31155 0.8836 0.13091 0.0
H3415 H 0.29386 0.91571 0.054 0.0
H3416 H 0.30543 0.91228 0.08461 0.0
H3417 H 0.29652 0.89688 0.11302 0.0
H3418 H 0.3021 0.843 0.18451 0.0
H3419 H 0.29887 0.86103 0.15862 0.0
H3420 H 0.33654 0.85353 0.1174 0.0
C3421 C 0.30091 0.89955 0.07515 0.0
C3422 C 0.30562 0.8878 0.11388 0.0
C3423 C 0.29426 0.90148 0.05763 0.0
C3424 C 0.31362 0.8477 0.17649 0.0
C3425 C 0.31179 0.85813 0.16165 0.0
C3426 C 0.32828 0.8635 0.11675 0.0
C3427 C 0.30245 0.88151 0.08008 0.0
C3428 C 0.31051 0.87935 0.09816 0.0
C3429 C 0.32589 0.86329 0.1501 0.0
C3430 C 0.32246 0.87087 0.1325 0.0
H3431 H 0.28572 0.85446 0.04059 0.0
H3432 H 0.29694 0.85109 0.07105 0.0
H3433 H 0.32677 0.86138 0.08792 0.0
H3434 H 0.35658 0.84434 0.17186 0.0
H3435 H 0.35353 0.86289 0.14596 0.0
C3436 C 0.97082 0.54692 0.84965 0.0
C3437 C 0.95411 0.55135 0.84913 0.0
C3438 C 0.98018 0.54626 0.86608 0.0
C3439 C 0.97438 0.54233 0.91463 0.0
H3440 H 0.02693 0.56343 0.91915 0.0
C3441 C 0.01552 0.55567 0.98293 0.0
C3442 C 0.02987 0.5471 0.98426 0.0
C3443 C 1.00721 0.55709 0.96614 0.0
C3444 C 0.01228 0.55739 0.91798 0.0
H3445 H 0.93399 0.55851 0.86531 0.0
H3446 H 0.95066 0.55793 0.89424 0.0
H3447 H 0.00991 0.56392 0.89047 0.0
H3448 H 0.04756 0.53445 0.96899 0.0
H3449 H 0.03309 0.53727 0.93945 0.0
H3450 H 0.9768 0.53621 0.9423 0.0
C3451 C 0.95633 0.55457 0.88188 0.0
C3452 C 1.00253 0.55759 0.90161 0.0
C3453 C 0.94684 0.55503 0.86537 0.0
C3454 C 0.03652 0.5411 0.96839 0.0
C3455 C 0.02826 0.54268 0.95152 0.0
C3456 C 0.98411 0.54233 0.93104 0.0
C3457 C 0.97314 0.55026 0.88237 0.0
C3458 C 0.98347 0.55008 0.89977 0.0
C3459 C 0.01321 0.55016 0.95035 0.0
C3460 C 1.00311 0.54993 0.93285 0.0
H3461 H 0.97674 0.54388 0.83735 0.0
H3462 H 0.99289 0.54249 0.86598 0.0
H3463 H 0.95976 0.53609 0.91354 0.0
H3464 H 0.01021 0.56068 0.99487 0.0
H3465 H 0.99583 0.56324 0.96551 0.0
C3466 C 0.30251 0.20877 0.58217 0.0
C3467 C 0.29085 0.21446 0.56967 0.0
C3468 C 0.30265 0.21358 0.60088 0.0
C3469 C 0.28646 0.24637 0.63366 0.0
H3470 H 0.29774 0.21328 0.6691 0.0
C3471 C 0.27482 0.25673 0.71001 0.0
C3472 C 0.28934 0.2565 0.7224 0.0
C3473 C 0.27494 0.25122 0.69154 0.0
C3474 C 0.29462 0.22273 0.65937 0.0
H3475 H 0.26966 0.22902 0.5674 0.0
H3476 H 0.26935 0.23654 0.59942 0.0
H3477 H 0.29829 0.20439 0.63696 0.0
H3478 H 0.31519 0.24974 0.72491 0.0
H3479 H 0.31514 0.23977 0.69296 0.0
H3480 H 0.28232 0.26438 0.65613 0.0
C3481 C 0.27903 0.22915 0.59503 0.0
C3482 C 0.29504 0.2177 0.64085 0.0
C3483 C 0.27911 0.22466 0.57647 0.0
C3484 C 0.30377 0.25019 0.71583 0.0
C3485 C 0.30372 0.24435 0.69747 0.0
C3486 C 0.28574 0.25119 0.65212 0.0
C3487 C 0.29093 0.22396 0.60764 0.0
C3488 C 0.29093 0.22941 0.6276 0.0
C3489 C 0.28941 0.24495 0.685 0.0
C3490 C 0.28981 0.23947 0.66526 0.0
H3491 H 0.31174 0.2009 0.57749 0.0
H3492 H 0.31219 0.2094 0.60996 0.0
H3493 H 0.28369 0.2562 0.62416 0.0
H3494 H 0.26351 0.26153 0.71451 0.0
H3495 H 0.26363 0.25176 0.68235 0.0
C3496 C 0.60992 0.50129 0.26851 0.0
C3497 C 0.62781 0.51285 0.27295 0.0
C3498 C 0.60148 0.50102 0.25136 0.0
C3499 C 0.60908 0.51757 0.20522 0.0
H3500 H 0.55972 0.52128 0.20697 0.0
C3501 C 0.57375 0.55026 0.15031 0.0
C3502 C 0.55582 0.54004 0.14405 0.0
C3503 C 0.58227 0.54466 0.16526 0.0
C3504 C 0.57339 0.51999 0.20622 0.0
H3505 H 0.65134 0.53233 0.26282 0.0
H3506 H 0.63639 0.53253 0.23294 0.0
H3507 H 0.57564 0.51478 0.23405 0.0
H3508 H 0.53265 0.51609 0.14857 0.0
H3509 H 0.54753 0.50642 0.17508 0.0
H3510 H 0.60693 0.5237 0.17747 0.0
C3511 C 0.62896 0.5233 0.24253 0.0
C3512 C 0.58253 0.51617 0.2217 0.0
C3513 C 0.63753 0.52326 0.25965 0.0
C3514 C 0.54646 0.52423 0.15318 0.0
C3515 C 0.55494 0.51873 0.1683 0.0
C3516 C 0.59998 0.5216 0.18976 0.0
C3517 C 0.61062 0.51266 0.23841 0.0
C3518 C 0.60055 0.5151 0.22145 0.0
C3519 C 0.57299 0.52878 0.17432 0.0
C3520 C 0.58214 0.52307 0.19022 0.0
H3521 H 0.60224 0.4929 0.2785 0.0
H3522 H 0.58755 0.49221 0.24847 0.0
H3523 H 0.62284 0.51656 0.20448 0.0
H3524 H 0.58142 0.56229 0.14334 0.0
H3525 H 0.59611 0.55279 0.16977 0.0
C3526 C 0.26734 0.90303 0.93587 0.0
C3527 C 0.26562 0.89164 0.9507 0.0
C3528 C 0.267 0.89455 0.91837 0.0
C3529 C 0.2536 0.84715 0.89149 0.0
H3530 H 0.29168 0.87155 0.86142 0.0
C3531 C 0.27658 0.80452 0.8349 0.0
C3532 C 0.28024 0.81283 0.81842 0.0
C3533 C 0.27295 0.81529 0.84966 0.0
C3534 C 0.28078 0.86473 0.86952 0.0
H3535 H 0.26181 0.86246 0.95887 0.0
H3536 H 0.26135 0.84776 0.92853 0.0
H3537 H 0.28826 0.88845 0.88989 0.0
H3538 H 0.28296 0.83902 0.80453 0.0
H3539 H 0.27665 0.85795 0.83053 0.0
H3540 H 0.24646 0.82319 0.87143 0.0
C3541 C 0.26275 0.86316 0.93029 0.0
C3542 C 0.27881 0.8744 0.88581 0.0
C3543 C 0.26315 0.87161 0.94771 0.0
C3544 C 0.28019 0.83221 0.81704 0.0
C3545 C 0.27664 0.84306 0.83191 0.0
C3546 C 0.25559 0.83749 0.87527 0.0
C3547 C 0.26482 0.87454 0.91544 0.0
C3548 C 0.26548 0.86549 0.89716 0.0
C3549 C 0.27293 0.83465 0.84834 0.0
C3550 C 0.26948 0.84597 0.86434 0.0
H3551 H 0.26928 0.91852 0.93779 0.0
H3552 H 0.2685 0.90365 0.90716 0.0
H3553 H 0.24297 0.84008 0.89977 0.0
H3554 H 0.27654 0.78966 0.83648 0.0
H3555 H 0.27046 0.80853 0.86223 0.0
C3556 C 0.95777 0.5604 0.74811 0.0
C3557 C 0.95437 0.54188 0.75449 0.0
C3558 C 0.96457 0.56366 0.73124 0.0
C3559 C 0.97071 0.54108 0.68807 0.0
H3560 H 0.02209 0.56855 0.69574 0.0
C3561 C 0.02153 0.51878 0.6468 0.0
C3562 C 0.03618 0.53273 0.64066 0.0
C3563 C 0.01047 0.52417 0.65898 0.0
C3564 C 1.0077 0.56131 0.69318 0.0
H3565 H 0.95403 0.51206 0.7483 0.0
H3566 H 0.96514 0.51753 0.71838 0.0
H3567 H 1.00181 0.57099 0.71932 0.0
H3568 H 0.05128 0.56322 0.64338 0.0
H3569 H 0.0316 0.5727 0.66469 0.0
H3570 H 0.97657 0.53073 0.66229 0.0
C3571 C 0.96277 0.52952 0.72642 0.0
C3572 C 0.99611 0.56276 0.70662 0.0
C3573 C 0.95652 0.52639 0.74346 0.0
C3574 C 0.04 0.55215 0.64772 0.0
C3575 C 0.02876 0.55758 0.6599 0.0
C3576 C 0.98219 0.53986 0.67455 0.0
C3577 C 0.96743 0.54828 0.72048 0.0
C3578 C 0.97778 0.55182 0.70449 0.0
C3579 C 0.01358 0.54368 0.6652 0.0
C3580 C 1.00098 0.54901 0.67744 0.0
H3581 H 0.95631 0.57252 0.75665 0.0
H3582 H 0.96827 0.57824 0.72689 0.0
H3583 H 0.95657 0.5326 0.68621 0.0
H3584 H 0.01788 0.50376 0.64151 0.0
H3585 H 0.99921 0.51301 0.66328 0.0
C3586 C 0.29265 0.19044 0.4551 0.0
C3587 C 0.29622 0.20324 0.4708 0.0
C3588 C 0.29302 0.19742 0.43784 0.0
C3589 C 0.31232 0.24059 0.41308 0.0
H3590 H 0.27393 0.21566 0.37605 0.0
C3591 C 0.30865 0.27069 0.34188 0.0
C3592 C 0.30034 0.25763 0.32696 0.0
C3593 C 0.30856 0.26447 0.3595 0.0
C3594 C 0.28503 0.22266 0.38601 0.0
H3595 H 0.30306 0.23356 0.4805 0.0
H3596 H 0.30404 0.24577 0.45038 0.0
H3597 H 0.27294 0.20406 0.40611 0.0
H3598 H 0.28613 0.22756 0.31895 0.0
H3599 H 0.28677 0.21659 0.34914 0.0
H3600 H 0.32476 0.25884 0.39294 0.0
C3601 C 0.30087 0.23027 0.45144 0.0
C3602 C 0.28435 0.21601 0.4034 0.0
C3603 C 0.30018 0.22325 0.46873 0.0
C3604 C 0.29252 0.23811 0.33009 0.0
C3605 C 0.29271 0.23184 0.34759 0.0
C3606 C 0.31317 0.24707 0.39557 0.0
C3607 C 0.29727 0.21746 0.43573 0.0
C3608 C 0.29797 0.22484 0.41721 0.0
C3609 C 0.30039 0.24493 0.36273 0.0
C3610 C 0.29956 0.23819 0.38165 0.0
H3611 H 0.28958 0.17494 0.45614 0.0
H3612 H 0.2903 0.1871 0.4261 0.0
H3613 H 0.32316 0.24765 0.4233 0.0
H3614 H 0.31465 0.28587 0.34002 0.0
H3615 H 0.31447 0.27519 0.37062 0.0
C3616 C 0.35351 0.62431 0.54268 0.0
C3617 C 0.33678 0.61757 0.55023 0.0
C3618 C 0.36432 0.61194 0.53959 0.0
C3619 C 0.37764 0.5704 0.55144 0.0
H3620 H 0.38271 0.56146 0.50031 0.0
C3621 C 0.4204 0.52103 0.52575 0.0
C3622 C 0.43152 0.52797 0.51186 0.0
C3623 C 0.40686 0.52961 0.53048 0.0
C3624 C 0.38163 0.56391 0.51465 0.0
H3625 H 0.31887 0.59304 0.56164 0.0
H3626 H 0.33826 0.57151 0.55667 0.0
H3627 H 0.36421 0.58211 0.51017 0.0
H3628 H 0.43644 0.54864 0.4914 0.0
H3629 H 0.41358 0.56406 0.50006 0.0
H3630 H 0.39584 0.55311 0.5561 0.0
C3631 C 0.34273 0.58631 0.55296 0.0
C3632 C 0.37094 0.57564 0.52025 0.0
C3633 C 0.33169 0.59861 0.55579 0.0
C3634 C 0.42832 0.54313 0.50235 0.0
C3635 C 0.41497 0.55181 0.50718 0.0
C3636 C 0.38866 0.55891 0.54587 0.0
C3637 C 0.3588 0.59275 0.54429 0.0
C3638 C 0.36909 0.57919 0.53867 0.0
C3639 C 0.40423 0.54538 0.52148 0.0
C3640 C 0.39105 0.55581 0.5274 0.0
H3641 H 0.35782 0.63881 0.53823 0.0
H3642 H 0.37676 0.61718 0.53297 0.0
H3643 H 0.37636 0.57301 0.56573 0.0
H3644 H 0.42258 0.50946 0.53343 0.0
H3645 H 0.39867 0.52407 0.54137 0.0
C3646 C 0.84727 0.91201 0.51876 0.0
C3647 C 0.84596 0.89243 0.52111 0.0
C3648 C 0.8642 0.92536 0.51713 0.0
C3649 C 0.91277 0.9344 0.52988 0.0
H3650 H 0.92063 0.96961 0.49173 0.0
C3651 C 0.97667 0.99894 0.53181 0.0
C3652 C 0.98686 1.00035 0.51656 0.0
C3653 C 0.95908 0.98646 0.53118 0.0
C3654 C 0.91862 0.95981 0.5024 0.0
H3655 H 0.86156 0.87166 0.52374 0.0
H3656 H 0.89103 0.89502 0.52137 0.0
H3657 H 0.8906 0.94632 0.4932 0.0
H3658 H 0.98594 0.99029 0.48835 0.0
H3659 H 0.95479 0.96867 0.48719 0.0
H3660 H 0.94058 0.94801 0.5393 0.0
C3661 C 0.87893 0.9 0.52063 0.0
C3662 C 0.90143 0.9466 0.50333 0.0
C3663 C 0.86202 0.8866 0.52195 0.0
C3664 C 0.97853 0.9896 0.50034 0.0
C3665 C 0.9607 0.97722 0.49967 0.0
C3666 C 0.92979 0.94779 0.52914 0.0
C3667 C 0.88024 0.91952 0.51815 0.0
C3668 C 0.89835 0.93372 0.51707 0.0
C3669 C 0.951 0.97517 0.51524 0.0
C3670 C 0.93292 0.96066 0.51543 0.0
H3671 H 0.83517 0.91697 0.51794 0.0
H3672 H 0.86479 0.94034 0.51536 0.0
H3673 H 0.91082 0.92476 0.54068 0.0
H3674 H 0.98247 0.007 0.54454 0.0
H3675 H 0.95185 0.98541 0.54332 0.0
C3676 C 0.87333 0.06885 0.2394 0.0
C3677 C 0.89227 0.07636 0.23928 0.0
C3678 C 0.86269 0.08096 0.24403 0.0
C3679 C 0.86049 0.13082 0.24762 0.0
H3680 H 0.82986 0.11451 0.28672 0.0
C3681 C 0.82311 0.1809 0.28066 0.0
C3682 C 0.80517 0.1724 0.28463 0.0
C3683 C 0.8342 0.16932 0.27592 0.0
C3684 C 0.83815 0.11916 0.27565 0.0
H3685 H 0.91481 0.10257 0.24282 0.0
H3686 H 0.89603 0.1239 0.25056 0.0
H3687 H 0.84789 0.09404 0.27519 0.0
H3688 H 0.78459 0.14549 0.28713 0.0
H3689 H 0.80385 0.12497 0.27843 0.0
H3690 H 0.85047 0.15568 0.24767 0.0
C3691 C 0.88953 0.10859 0.24725 0.0
C3692 C 0.84848 0.10746 0.26909 0.0
C3693 C 0.90025 0.0964 0.24285 0.0
C3694 C 0.79852 0.15221 0.28431 0.0
C3695 C 0.80956 0.14056 0.27935 0.0
C3696 C 0.84998 0.14242 0.25402 0.0
C3697 C 0.87075 0.10084 0.24837 0.0
C3698 C 0.85972 0.11321 0.25504 0.0
C3699 C 0.82742 0.14901 0.27477 0.0
C3700 C 0.83872 0.13674 0.26814 0.0
H3701 H 0.86678 0.05346 0.23669 0.0
H3702 H 0.84818 0.07474 0.24459 0.0
H3703 H 0.86898 0.13545 0.23669 0.0
H3704 H 0.82839 0.19652 0.28083 0.0
H3705 H 0.84799 0.1763 0.27288 0.0
C3706 C 0.728 0.14092 0.02835 0.0
C3707 C 0.7421 0.1327 0.03306 0.0
C3708 C 0.70997 0.12945 0.02612 0.0
C3709 C 0.67406 0.10035 0.01314 0.0
H3710 H 0.65716 0.06282 0.04806 0.0
C3711 C 0.60018 0.05117 0.00838 0.0
C3712 C 0.59176 0.04917 0.0247 0.0
C3713 C 0.61889 0.05974 0.00844 0.0
C3714 C 0.66166 0.07328 0.03823 0.0
H3715 H 0.74827 0.10586 0.03878 0.0
H3716 H 0.71681 0.08591 0.03471 0.0
H3717 H 0.68909 0.08131 0.04991 0.0
H3718 H 0.59639 0.05439 0.05387 0.0
H3719 H 0.62888 0.06961 0.05393 0.0
H3720 H 0.64648 0.09287 0.00191 0.0
C3721 C 0.7197 0.10126 0.03301 0.0
C3722 C 0.68 0.08371 0.03916 0.0
C3723 C 0.73774 0.11273 0.03528 0.0
C3724 C 0.60246 0.05567 0.04106 0.0
C3725 C 0.62112 0.06428 0.04111 0.0
C3726 C 0.6557 0.08995 0.01224 0.0
C3727 C 0.7056 0.10952 0.02849 0.0
C3728 C 0.68636 0.09755 0.02677 0.0
C3729 C 0.62954 0.06651 0.0248 0.0
C3730 C 0.64925 0.07649 0.02493 0.0
H3731 H 0.73083 0.15622 0.02653 0.0
H3732 H 0.6994 0.13633 0.0229 0.0
H3733 H 0.67858 0.11071 0.00323 0.0
H3734 H 0.59233 0.0462 0.99555 0.0
H3735 H 0.62502 0.06103 0.99566 0.0
C3736 C 0.17323 0.45413 0.25047 0.0
C3737 C 0.17914 0.47121 0.24167 0.0
C3738 C 0.18529 0.44344 0.25485 0.0
C3739 C 0.23376 0.45189 0.26595 0.0
H3740 H 0.22186 0.39586 0.2647 0.0
C3741 C 0.28593 0.41045 0.28448 0.0
C3742 C 0.27974 0.39344 0.29335 0.0
C3743 C 0.27381 0.42054 0.27868 0.0
C3744 C 0.22527 0.41154 0.26535 0.0
H3745 H 0.20176 0.48961 0.22911 0.0
H3746 H 0.22275 0.47081 0.23662 0.0
H3747 H 0.19999 0.41097 0.25119 0.0
H3748 H 0.25623 0.37427 0.30399 0.0
H3749 H 0.23524 0.39226 0.29442 0.0
H3750 H 0.25893 0.4525 0.28029 0.0
C3751 C 0.20893 0.46593 0.24046 0.0
C3752 C 0.21281 0.42015 0.25752 0.0
C3753 C 0.19687 0.4766 0.23607 0.0
C3754 C 0.26146 0.38742 0.29733 0.0
C3755 C 0.24937 0.39753 0.29159 0.0
C3756 C 0.2462 0.44329 0.27383 0.0
C3757 C 0.20343 0.44969 0.25048 0.0
C3758 C 0.21694 0.44039 0.25778 0.0
C3759 C 0.2553 0.41381 0.2817 0.0
C3760 C 0.24204 0.42304 0.27367 0.0
H3761 H 0.15961 0.44961 0.25491 0.0
H3762 H 0.18071 0.43098 0.26261 0.0
H3763 H 0.23714 0.46756 0.26666 0.0
H3764 H 0.3 0.41554 0.28141 0.0
H3765 H 0.27877 0.43305 0.27108 0.0
C3766 C 0.23244 0.38759 0.02973 0.0
C3767 C 0.25072 0.39719 0.03533 0.0
C3768 C 0.21908 0.39753 0.03007 0.0
C3769 C 0.2099 0.44262 0.0496 0.0
H3770 H 0.17326 0.43276 0.0093 0.0
C3771 C 0.16428 0.4935 0.03771 0.0
C3772 C 0.14598 0.48528 0.03117 0.0
C3773 C 0.17639 0.48212 0.03887 0.0
C3774 C 0.18323 0.43555 0.0208 0.0
H3775 H 0.26917 0.42479 0.04596 0.0
H3776 H 0.24603 0.44208 0.04649 0.0
H3777 H 0.19534 0.41409 0.01037 0.0
H3778 H 0.12622 0.45839 0.02073 0.0
H3779 H 0.14726 0.43851 0.02303 0.0
H3780 H 0.19789 0.46418 0.05996 0.0
C3781 C 0.24188 0.4268 0.042 0.0
C3782 C 0.19593 0.42479 0.02142 0.0
C3783 C 0.25522 0.41688 0.04163 0.0
C3784 C 0.14014 0.46525 0.02598 0.0
C3785 C 0.15229 0.45386 0.0271 0.0
C3786 C 0.19721 0.45337 0.04897 0.0
C3787 C 0.22363 0.41735 0.03606 0.0
C3788 C 0.20956 0.42826 0.03576 0.0
C3789 C 0.17063 0.46213 0.03353 0.0
C3790 C 0.18376 0.45012 0.0345 0.0
H3791 H 0.22847 0.37244 0.02478 0.0
H3792 H 0.20516 0.38965 0.02563 0.0
H3793 H 0.21994 0.44551 0.06104 0.0
H3794 H 0.16928 0.50879 0.04204 0.0
H3795 H 0.19041 0.48912 0.0437 0.0
C3796 C 0.88975 0.97546 0.24 0.0
C3797 C 0.90847 0.97868 0.23829 0.0
C3798 C 0.87858 0.95679 0.24159 0.0
C3799 C 0.88086 0.90882 0.25463 0.0
H3800 H 0.8314 0.89156 0.23257 0.0
C3801 C 0.83696 0.83011 0.25499 0.0
C3802 C 0.8192 0.82742 0.26024 0.0
C3803 C 0.84744 0.84839 0.25123 0.0
C3804 C 0.84515 0.89626 0.23889 0.0
H3805 H 0.93004 0.96471 0.23636 0.0
H3806 H 0.91049 0.93211 0.23871 0.0
H3807 H 0.85068 0.92376 0.22762 0.0
H3808 H 0.79832 0.84176 0.26514 0.0
H3809 H 0.81671 0.87378 0.25849 0.0
H3810 H 0.87537 0.88129 0.26578 0.0
C3811 C 0.90451 0.94408 0.23926 0.0
C3812 C 0.85618 0.91469 0.2361 0.0
C3813 C 0.9157 0.96276 0.2378 0.0
C3814 C 0.81197 0.84335 0.26118 0.0
C3815 C 0.82245 0.86166 0.25729 0.0
C3816 C 0.86989 0.89038 0.2573 0.0
C3817 C 0.88586 0.9409 0.24139 0.0
C3818 C 0.87417 0.92119 0.24396 0.0
C3819 C 0.84037 0.86438 0.25252 0.0
C3820 C 0.85193 0.88392 0.24948 0.0
H3821 H 0.88374 0.98741 0.24053 0.0
H3822 H 0.86434 0.95491 0.24346 0.0
H3823 H 0.8945 0.91349 0.26121 0.0
H3824 H 0.84296 0.81816 0.25407 0.0
H3825 H 0.86113 0.85003 0.24735 0.0
C3826 C 0.66006 0.08598 0.74577 0.0
C3827 C 0.66548 0.06893 0.74352 0.0
C3828 C 0.67301 0.10407 0.74811 0.0
C3829 C 0.72134 0.12933 0.74297 0.0
H3830 H 0.7131 0.16654 0.77896 0.0
C3831 C 0.75954 0.20938 0.78277 0.0
C3832 C 0.76642 0.21949 0.76797 0.0
C3833 C 0.74873 0.19018 0.78016 0.0
C3834 C 0.71575 0.15623 0.76905 0.0
H3835 H 0.68881 0.05763 0.74141 0.0
H3836 H 0.71131 0.08911 0.74573 0.0
H3837 H 0.691 0.13492 0.77306 0.0
H3838 H 0.76797 0.21711 0.73891 0.0
H3839 H 0.7489 0.18384 0.73435 0.0
H3840 H 0.74632 0.15055 0.73926 0.0
C3841 C 0.69705 0.08853 0.74546 0.0
C3842 C 0.70292 0.13821 0.76544 0.0
C3843 C 0.68411 0.07045 0.74302 0.0
C3844 C 0.76288 0.20976 0.75062 0.0
C3845 C 0.75202 0.19061 0.74801 0.0
C3846 C 0.73424 0.14735 0.74663 0.0
C3847 C 0.69167 0.10552 0.74836 0.0
C3848 C 0.70547 0.12461 0.75224 0.0
C3849 C 0.74452 0.18072 0.7627 0.0
C3850 C 0.73151 0.16107 0.75961 0.0
H3851 H 0.64583 0.08536 0.74613 0.0
H3852 H 0.66839 0.11692 0.74992 0.0
H3853 H 0.72369 0.11922 0.73266 0.0
H3854 H 0.76213 0.2164 0.79634 0.0
H3855 H 0.74343 0.18283 0.79181 0.0
loop_
_geom_bond_atom_site_label_1
_geom_bond_atom_site_label_2
_geom_bond_distance
_geom_bond_site_symmetry_2
_ccdc_geom_bond_type
Co0 O1 2.216 . S
Co0 O2 2.091 . S
Co0 O4 2.004 . S
Co0 O10 2.021 . S
Co0 O12 2.137 . S
Co0 O13 2.244 . S
O1 Co0 2.216 . S
O1 C8 1.247 . S
O2 Co0 2.091 . S
O2 C8 1.261 . S
C3 O12 1.247 . S
C3 O13 1.272 . S
O4 Co0 2.004 . S
O4 C9 1.259 1_455 S
Co5 O6 2.061 1_455 S
Co5 O11 2.052 . S
Co5 O13 2.135 . S
O6 Co5 2.061 1_655 S
O6 C9 1.235 . S
C7 O10 1.238 . S
C7 O11 1.241 . S
C8 O1 1.247 . S
C8 O2 1.261 . S
C9 O4 1.259 1_655 S
C9 O6 1.235 . S
O10 Co0 2.021 . S
O10 C7 1.238 . S
O11 Co5 2.052 . S
O11 C7 1.241 . S
O12 Co0 2.137 . S
O12 C3 1.247 . S
O13 Co0 2.244 . S
O13 C3 1.272 . S
O13 Co5 2.135 . S
Co14 O15 2.216 . S
Co14 O16 2.091 . S
Co14 O18 2.004 . S
Co14 O24 2.021 . S
Co14 O26 2.137 . S
Co14 O27 2.244 . S
O15 Co14 2.216 . S
O15 C22 1.247 . S
O16 Co14 2.091 . S
O16 C22 1.261 . S
C17 O26 1.247 . S
C17 O27 1.272 . S
O18 Co14 2.004 . S
O18 C23 1.259 . S
Co19 O20 2.061 . S
Co19 O25 2.052 . S
Co19 O27 2.135 . S
O20 Co19 2.061 . S
O20 C23 1.235 . S
C21 O24 1.238 . S
C21 O25 1.241 . S
C22 O15 1.247 . S
C22 O16 1.261 . S
C23 O18 1.259 . S
C23 O20 1.235 . S
O24 Co14 2.021 . S
O24 C21 1.238 . S
O25 Co19 2.052 . S
O25 C21 1.241 . S
O26 Co14 2.137 . S
O26 C17 1.247 . S
O27 Co14 2.244 . S
O27 C17 1.272 . S
O27 Co19 2.135 . S
Co28 O29 2.216 . S
Co28 O30 2.091 . S
Co28 O32 2.004 . S
Co28 O38 2.021 . S
Co28 O40 2.137 . S
Co28 O41 2.244 . S
O29 Co28 2.216 . S
O29 C36 1.247 . S
O30 Co28 2.091 . S
O30 C36 1.261 . S
C31 O40 1.247 . S
C31 O41 1.272 . S
O32 Co28 2.004 . S
O32 C37 1.259 . S
Co33 O34 2.061 . S
Co33 O39 2.052 . S
Co33 O41 2.135 . S
O34 Co33 2.061 . S
O34 C37 1.235 . S
C35 O38 1.238 . S
C35 O39 1.241 . S
C36 O29 1.247 . S
C36 O30 1.261 . S
C37 O32 1.259 . S
C37 O34 1.235 . S
O38 Co28 2.021 . S
O38 C35 1.238 . S
O39 Co33 2.052 . S
O39 C35 1.241 . S
O40 Co28 2.137 . S
O40 C31 1.247 . S
O41 Co28 2.244 . S
O41 C31 1.272 . S
O41 Co33 2.135 . S
Co42 O43 2.216 . S
Co42 O44 2.091 . S
Co42 O46 2.004 . S
Co42 O52 2.021 . S
Co42 O54 2.137 . S
Co42 O55 2.244 . S
O43 Co42 2.216 . S
O43 C50 1.247 . S
O44 Co42 2.091 . S
O44 C50 1.261 . S
C45 O54 1.247 . S
C45 O55 1.272 . S
O46 Co42 2.004 . S
O46 C51 1.259 . S
Co47 O48 2.061 . S
Co47 O53 2.052 . S
Co47 O55 2.135 . S
O48 Co47 2.061 . S
O48 C51 1.235 . S
C49 O52 1.238 . S
C49 O53 1.241 . S
C50 O43 1.247 . S
C50 O44 1.261 . S
C51 O46 1.259 . S
C51 O48 1.235 . S
O52 Co42 2.021 . S
O52 C49 1.238 . S
O53 Co47 2.052 . S
O53 C49 1.241 . S
O54 Co42 2.137 . S
O54 C45 1.247 . S
O55 Co42 2.244 . S
O55 C45 1.272 . S
O55 Co47 2.135 . S
Co56 O57 2.216 . S
Co56 O58 2.091 . S
Co56 O60 2.004 . S
Co56 O66 2.021 . S
Co56 O68 2.137 . S
Co56 O69 2.244 . S
O57 Co56 2.216 . S
O57 C64 1.247 . S
O58 Co56 2.091 . S
O58 C64 1.261 . S
C59 O68 1.247 . S
C59 O69 1.272 . S
O60 Co56 2.004 . S
O60 C65 1.259 . S
Co61 O62 2.061 . S
Co61 O67 2.052 . S
Co61 O69 2.135 . S
O62 Co61 2.061 . S
O62 C65 1.235 . S
C63 O66 1.238 . S
C63 O67 1.241 . S
C64 O57 1.247 . S
C64 O58 1.261 . S
C65 O60 1.259 . S
C65 O62 1.235 . S
O66 Co56 2.021 . S
O66 C63 1.238 . S
O67 Co61 2.052 . S
O67 C63 1.241 . S
O68 Co56 2.137 . S
O68 C59 1.247 . S
O69 Co56 2.244 . S
O69 C59 1.272 . S
O69 Co61 2.135 . S
Co70 O71 2.216 . S
Co70 O72 2.091 . S
Co70 O74 2.004 . S
Co70 O80 2.021 . S
Co70 O82 2.137 . S
Co70 O83 2.244 . S
O71 Co70 2.216 . S
O71 C78 1.247 . S
O72 Co70 2.091 . S
O72 C78 1.261 . S
C73 O82 1.247 . S
C73 O83 1.272 . S
O74 Co70 2.004 . S
O74 C79 1.259 . S
Co75 O76 2.061 . S
Co75 O81 2.052 . S
Co75 O83 2.135 . S
O76 Co75 2.061 . S
O76 C79 1.235 . S
C77 O80 1.238 . S
C77 O81 1.241 . S
C78 O71 1.247 . S
C78 O72 1.261 . S
C79 O74 1.259 . S
C79 O76 1.235 . S
O80 Co70 2.021 . S
O80 C77 1.238 . S
O81 Co75 2.052 . S
O81 C77 1.241 . S
O82 Co70 2.137 . S
O82 C73 1.247 . S
O83 Co70 2.244 . S
O83 C73 1.272 . S
O83 Co75 2.135 . S
Co84 O85 2.216 . S
Co84 O86 2.091 . S
Co84 O88 2.004 . S
Co84 O94 2.021 . S
Co84 O96 2.137 . S
Co84 O97 2.244 . S
O85 Co84 2.216 . S
O85 C92 1.247 . S
O86 Co84 2.091 . S
O86 C92 1.261 . S
C87 O96 1.247 . S
C87 O97 1.272 . S
O88 Co84 2.004 . S
O88 C93 1.259 . S
Co89 O90 2.061 . S
Co89 O95 2.052 . S
Co89 O97 2.135 . S
O90 Co89 2.061 . S
O90 C93 1.235 . S
C91 O94 1.238 . S
C91 O95 1.241 . S
C92 O85 1.247 . S
C92 O86 1.261 . S
C93 O88 1.259 . S
C93 O90 1.235 . S
O94 Co84 2.021 . S
O94 C91 1.238 . S
O95 Co89 2.052 . S
O95 C91 1.241 . S
O96 Co84 2.137 . S
O96 C87 1.247 . S
O97 Co84 2.244 . S
O97 C87 1.272 . S
O97 Co89 2.135 . S
Co98 O99 2.216 . S
Co98 O100 2.091 . S
Co98 O102 2.004 1_455 S
Co98 O108 2.021 1_455 S
Co98 O110 2.137 . S
Co98 O111 2.244 1_455 S
O99 Co98 2.216 . S
O99 C106 1.247 . S
O100 Co98 2.091 . S
O100 C106 1.261 . S
C101 O110 1.247 . S
C101 O111 1.272 1_455 S
O102 Co98 2.004 1_655 S
O102 C107 1.259 . S
Co103 O104 2.061 . S
Co103 O109 2.052 . S
Co103 O111 2.135 . S
O104 Co103 2.061 . S
O104 C107 1.235 . S
C105 O108 1.238 . S
C105 O109 1.241 . S
C106 O99 1.247 . S
C106 O100 1.261 . S
C107 O102 1.259 . S
C107 O104 1.235 . S
O108 Co98 2.021 1_655 S
O108 C105 1.238 . S
O109 Co103 2.052 . S
O109 C105 1.241 . S
O110 Co98 2.137 . S
O110 C101 1.247 . S
O111 Co98 2.244 1_655 S
O111 C101 1.272 1_655 S
O111 Co103 2.135 . S
Co112 O113 2.216 . S
Co112 O114 2.091 . S
Co112 O116 2.047 . S
Co112 O122 2.021 . S
Co112 O124 2.137 . S
Co112 O125 2.244 . S
O113 Co112 2.216 . S
O113 C120 1.247 . S
O114 Co112 2.091 . S
O114 C120 1.261 . S
C115 O124 1.247 . S
C115 O125 1.272 . S
O116 Co112 2.047 . S
O116 C121 1.211 1_545 S
Co117 O118 2.061 1_545 S
Co117 O123 2.052 . S
Co117 O125 2.135 . S
O118 Co117 2.061 1_565 S
O118 C121 1.235 . S
C119 O122 1.238 . S
C119 O123 1.241 . S
C120 O113 1.247 . S
C120 O114 1.261 . S
C121 O116 1.211 1_565 S
C121 O118 1.235 . S
O122 Co112 2.021 . S
O122 C119 1.238 . S
O123 Co117 2.052 . S
O123 C119 1.241 . S
O124 Co112 2.137 . S
O124 C115 1.247 . S
O125 Co112 2.244 . S
O125 C115 1.272 . S
O125 Co117 2.135 . S
Co126 O127 2.216 . S
Co126 O128 2.091 . S
Co126 O130 2.004 . S
Co126 O136 2.021 . S
Co126 O138 2.137 . S
Co126 O139 2.244 . S
O127 Co126 2.216 . S
O127 C134 1.247 . S
O128 Co126 2.091 . S
O128 C134 1.261 . S
C129 O138 1.247 . S
C129 O139 1.272 . S
O130 Co126 2.004 . S
O130 C135 1.259 . S
Co131 O132 2.061 . S
Co131 O137 2.052 . S
Co131 O139 2.135 . S
O132 Co131 2.061 . S
O132 C135 1.235 . S
C133 O136 1.238 . S
C133 O137 1.241 . S
C134 O127 1.247 . S
C134 O128 1.261 . S
C135 O130 1.259 . S
C135 O132 1.235 . S
O136 Co126 2.021 . S
O136 C133 1.238 . S
O137 Co131 2.052 . S
O137 C133 1.241 . S
O138 Co126 2.137 . S
O138 C129 1.247 . S
O139 Co126 2.244 . S
O139 C129 1.272 . S
O139 Co131 2.135 . S
Co140 O141 2.216 . S
Co140 O142 2.091 . S
Co140 O144 2.004 . S
Co140 O150 2.021 . S
Co140 O152 2.137 . S
Co140 O153 2.244 . S
O141 Co140 2.216 . S
O141 C148 1.247 . S
O142 Co140 2.091 . S
O142 C148 1.261 . S
C143 O152 1.247 . S
C143 O153 1.272 . S
O144 Co140 2.004 . S
O144 C149 1.259 . S
Co145 O146 2.061 . S
Co145 O151 2.052 . S
Co145 O153 2.135 . S
O146 Co145 2.061 . S
O146 C149 1.235 . S
C147 O150 1.238 . S
C147 O151 1.241 . S
C148 O141 1.247 . S
C148 O142 1.261 . S
C149 O144 1.259 . S
C149 O146 1.235 . S
O150 Co140 2.021 . S
O150 C147 1.238 . S
O151 Co145 2.052 . S
O151 C147 1.241 . S
O152 Co140 2.137 . S
O152 C143 1.247 . S
O153 Co140 2.244 . S
O153 C143 1.272 . S
O153 Co145 2.135 . S
Co154 O155 2.216 . S
Co154 O156 2.091 1_556 S
Co154 O158 2.004 . S
Co154 O164 2.021 1_556 S
Co154 O166 2.137 . S
Co154 O167 2.244 . S
O155 Co154 2.216 . S
O155 C162 1.248 . S
O156 Co154 2.091 1_554 S
O156 C162 1.262 1_554 S
C157 O166 1.247 . S
C157 O167 1.272 . S
O158 Co154 2.004 . S
O158 C163 1.259 1_556 S
Co159 O160 2.061 1_556 S
Co159 O165 2.052 1_556 S
Co159 O167 2.135 . S
O160 Co159 2.061 1_554 S
O160 C163 1.235 . S
C161 O164 1.238 . S
C161 O165 1.241 . S
C162 O155 1.248 . S
C162 O156 1.262 1_556 S
C163 O158 1.259 1_554 S
C163 O160 1.235 . S
O164 Co154 2.021 1_554 S
O164 C161 1.238 . S
O165 Co159 2.052 1_554 S
O165 C161 1.241 . S
O166 Co154 2.137 . S
O166 C157 1.247 . S
O167 Co154 2.244 . S
O167 C157 1.272 . S
O167 Co159 2.135 . S
Co168 O169 2.216 . S
Co168 O170 2.091 . S
Co168 O172 2.004 . S
Co168 O178 2.021 . S
Co168 O180 2.137 1_554 S
Co168 O181 2.244 . S
O169 Co168 2.216 . S
O169 C176 1.247 . S
O170 Co168 2.091 . S
O170 C176 1.261 . S
C171 O180 1.247 . S
C171 O181 1.272 1_556 S
O172 Co168 2.004 . S
O172 C177 1.259 . S
Co173 O174 2.061 . S
Co173 O179 2.052 . S
Co173 O181 2.135 . S
O174 Co173 2.061 . S
O174 C177 1.235 . S
C175 O178 1.238 . S
C175 O179 1.241 . S
C176 O169 1.247 . S
C176 O170 1.261 . S
C177 O172 1.259 . S
C177 O174 1.235 . S
O178 Co168 2.021 . S
O178 C175 1.238 . S
O179 Co173 2.052 . S
O179 C175 1.241 . S
O180 Co168 2.137 1_556 S
O180 C171 1.247 . S
O181 Co168 2.244 . S
O181 C171 1.272 1_554 S
O181 Co173 2.135 . S
Co182 O183 2.216 . S
Co182 O184 2.091 . S
Co182 O186 2.004 . S
Co182 O192 2.021 . S
Co182 O194 2.137 . S
Co182 O195 2.244 . S
O183 Co182 2.216 . S
O183 C190 1.247 . S
O184 Co182 2.091 . S
O184 C190 1.261 . S
C185 O194 1.247 . S
C185 O195 1.272 . S
O186 Co182 2.004 . S
O186 C191 1.259 . S
Co187 O188 2.061 . S
Co187 O193 2.052 . S
Co187 O195 2.135 . S
O188 Co187 2.061 . S
O188 C191 1.235 . S
C189 O192 1.238 . S
C189 O193 1.241 . S
C190 O183 1.247 . S
C190 O184 1.261 . S
C191 O186 1.259 . S
C191 O188 1.235 . S
O192 Co182 2.021 . S
O192 C189 1.238 . S
O193 Co187 2.052 . S
O193 C189 1.241 . S
O194 Co182 2.137 . S
O194 C185 1.247 . S
O195 Co182 2.244 . S
O195 C185 1.272 . S
O195 Co187 2.135 . S
Co196 O197 2.216 . S
Co196 O198 2.091 . S
Co196 O200 2.004 . S
Co196 O206 2.021 . S
Co196 O208 2.137 . S
Co196 O209 2.244 . S
O197 Co196 2.216 . S
O197 C204 1.247 . S
O198 Co196 2.091 . S
O198 C204 1.261 . S
C199 O208 1.247 . S
C199 O209 1.272 . S
O200 Co196 2.004 . S
O200 C205 1.259 . S
Co201 O202 2.061 . S
Co201 O207 2.052 . S
Co201 O209 2.135 . S
O202 Co201 2.061 . S
O202 C205 1.235 . S
C203 O206 1.238 . S
C203 O207 1.241 . S
C204 O197 1.247 . S
C204 O198 1.261 . S
C205 O200 1.259 . S
C205 O202 1.235 . S
O206 Co196 2.021 . S
O206 C203 1.238 . S
O207 Co201 2.052 . S
O207 C203 1.241 . S
O208 Co196 2.137 . S
O208 C199 1.247 . S
O209 Co196 2.244 . S
O209 C199 1.272 . S
O209 Co201 2.135 . S
Co210 O211 2.216 . S
Co210 O212 2.091 . S
Co210 O214 2.004 . S
Co210 O220 2.021 . S
Co210 O222 2.137 . S
Co210 O223 2.244 . S
O211 Co210 2.216 . S
O211 C218 1.247 . S
O212 Co210 2.091 . S
O212 C218 1.261 . S
C213 O222 1.247 . S
C213 O223 1.272 . S
O214 Co210 2.004 . S
O214 C219 1.259 . S
Co215 O216 2.061 . S
Co215 O221 2.052 . S
Co215 O223 2.135 . S
O216 Co215 2.061 . S
O216 C219 1.235 . S
C217 O220 1.238 . S
C217 O221 1.241 . S
C218 O211 1.247 . S
C218 O212 1.261 . S
C219 O214 1.259 . S
C219 O216 1.235 . S
O220 Co210 2.021 . S
O220 C217 1.238 . S
O221 Co215 2.052 . S
O221 C217 1.241 . S
O222 Co210 2.137 . S
O222 C213 1.247 . S
O223 Co210 2.244 . S
O223 C213 1.272 . S
O223 Co215 2.135 . S
Co224 O225 2.216 . S
Co224 O226 2.091 . S
Co224 O228 2.004 1_545 S
Co224 O234 2.021 . S
Co224 O236 2.137 . S
Co224 O237 2.244 . S
O225 Co224 2.216 . S
O225 C232 1.247 . S
O226 Co224 2.091 . S
O226 C232 1.261 . S
C227 O236 1.247 . S
C227 O237 1.272 . S
O228 Co224 2.004 1_565 S
O228 C233 1.259 . S
Co229 O230 2.061 . S
Co229 O235 2.052 1_565 S
Co229 O237 2.135 1_565 S
O230 Co229 2.061 . S
O230 C233 1.235 . S
C231 O234 1.238 . S
C231 O235 1.241 . S
C232 O225 1.247 . S
C232 O226 1.261 . S
C233 O228 1.259 . S
C233 O230 1.235 . S
O234 Co224 2.021 . S
O234 C231 1.238 . S
O235 Co229 2.052 1_545 S
O235 C231 1.241 . S
O236 Co224 2.137 . S
O236 C227 1.247 . S
O237 Co224 2.244 . S
O237 C227 1.272 . S
O237 Co229 2.135 1_545 S
Co238 O239 2.216 . S
Co238 O240 2.091 . S
Co238 O242 2.004 . S
Co238 O248 2.021 . S
Co238 O250 2.137 . S
Co238 O251 2.244 . S
O239 Co238 2.216 . S
O239 C246 1.247 . S
O240 Co238 2.091 . S
O240 C246 1.261 . S
C241 O250 1.247 . S
C241 O251 1.272 . S
O242 Co238 2.004 . S
O242 C247 1.259 . S
Co243 O244 2.061 . S
Co243 O249 2.052 . S
Co243 O251 2.135 . S
O244 Co243 2.061 . S
O244 C247 1.235 . S
C245 O248 1.238 . S
C245 O249 1.241 . S
C246 O239 1.247 . S
C246 O240 1.261 . S
C247 O242 1.259 . S
C247 O244 1.235 . S
O248 Co238 2.021 . S
O248 C245 1.238 . S
O249 Co243 2.052 . S
O249 C245 1.241 . S
O250 Co238 2.137 . S
O250 C241 1.247 . S
O251 Co238 2.244 . S
O251 C241 1.272 . S
O251 Co243 2.135 . S
Co252 O253 2.216 . S
Co252 O254 2.091 . S
Co252 O256 2.004 . S
Co252 O262 2.021 . S
Co252 O264 2.137 . S
Co252 O265 2.244 . S
O253 Co252 2.216 . S
O253 C260 1.247 . S
O254 Co252 2.091 . S
O254 C260 1.261 . S
C255 O264 1.247 . S
C255 O265 1.272 . S
O256 Co252 2.004 . S
O256 C261 1.259 . S
Co257 O258 2.061 . S
Co257 O263 2.052 . S
Co257 O265 2.135 . S
O258 Co257 2.061 . S
O258 C261 1.235 . S
C259 O262 1.238 . S
C259 O263 1.241 . S
C260 O253 1.247 . S
C260 O254 1.261 . S
C261 O256 1.259 . S
C261 O258 1.235 . S
O262 Co252 2.021 . S
O262 C259 1.238 . S
O263 Co257 2.052 . S
O263 C259 1.241 . S
O264 Co252 2.137 . S
O264 C255 1.247 . S
O265 Co252 2.244 . S
O265 C255 1.272 . S
O265 Co257 2.135 . S
Co266 O267 2.216 1_545 S
Co266 O268 2.091 . S
Co266 O270 2.004 . S
Co266 O276 2.021 . S
Co266 O278 2.137 . S
Co266 O279 2.244 . S
O267 Co266 2.216 1_565 S
O267 C274 1.247 . S
O268 Co266 2.091 . S
O268 C274 1.261 1_545 S
C269 O278 1.247 . S
C269 O279 1.272 . S
O270 Co266 2.004 . S
O270 C275 1.259 . S
Co271 O272 2.061 . S
Co271 O277 2.052 . S
Co271 O279 2.135 . S
O272 Co271 2.061 . S
O272 C275 1.235 . S
C273 O276 1.238 . S
C273 O277 1.241 . S
C274 O267 1.247 . S
C274 O268 1.261 1_565 S
C275 O270 1.259 . S
C275 O272 1.235 . S
O276 Co266 2.021 . S
O276 C273 1.238 . S
O277 Co271 2.052 . S
O277 C273 1.241 . S
O278 Co266 2.137 . S
O278 C269 1.247 . S
O279 Co266 2.244 . S
O279 C269 1.272 . S
O279 Co271 2.135 . S
Co280 O281 2.216 . S
Co280 O282 2.091 . S
Co280 O284 2.004 . S
Co280 O290 2.021 . S
Co280 O292 2.137 1_554 S
Co280 O293 2.244 . S
O281 Co280 2.216 . S
O281 C288 1.247 . S
O282 Co280 2.091 . S
O282 C288 1.261 . S
C283 O292 1.247 . S
C283 O293 1.272 1_556 S
O284 Co280 2.004 . S
O284 C289 1.259 . S
Co285 O286 2.061 . S
Co285 O291 2.052 . S
Co285 O293 2.135 . S
O286 Co285 2.061 . S
O286 C289 1.235 . S
C287 O290 1.238 . S
C287 O291 1.241 . S
C288 O281 1.247 . S
C288 O282 1.261 . S
C289 O284 1.259 . S
C289 O286 1.235 . S
O290 Co280 2.021 . S
O290 C287 1.238 . S
O291 Co285 2.052 . S
O291 C287 1.241 . S
O292 Co280 2.137 1_556 S
O292 C283 1.247 . S
O293 Co280 2.244 . S
O293 C283 1.272 1_554 S
O293 Co285 2.135 . S
Co294 O295 2.216 . S
Co294 O296 2.091 . S
Co294 O298 2.004 . S
Co294 O304 2.021 . S
Co294 O306 2.137 . S
Co294 O307 2.244 . S
O295 Co294 2.216 . S
O295 C302 1.247 . S
O296 Co294 2.091 . S
O296 C302 1.261 . S
C297 O306 1.247 . S
C297 O307 1.272 . S
O298 Co294 2.004 . S
O298 C303 1.259 . S
Co299 O300 2.061 . S
Co299 O305 2.052 . S
Co299 O307 2.135 . S
O300 Co299 2.061 . S
O300 C303 1.235 . S
C301 O304 1.238 . S
C301 O305 1.241 . S
C302 O295 1.247 . S
C302 O296 1.261 . S
C303 O298 1.259 . S
C303 O300 1.235 . S
O304 Co294 2.021 . S
O304 C301 1.238 . S
O305 Co299 2.052 . S
O305 C301 1.241 . S
O306 Co294 2.137 . S
O306 C297 1.247 . S
O307 Co294 2.244 . S
O307 C297 1.272 . S
O307 Co299 2.135 . S
Co308 O309 2.216 . S
Co308 O310 2.091 . S
Co308 O312 2.004 . S
Co308 O318 2.021 . S
Co308 O320 2.137 . S
Co308 O321 2.244 . S
O309 Co308 2.216 . S
O309 C316 1.247 . S
O310 Co308 2.091 . S
O310 C316 1.261 . S
C311 O320 1.247 . S
C311 O321 1.272 . S
O312 Co308 2.004 . S
O312 C317 1.259 . S
Co313 O314 2.061 . S
Co313 O319 2.052 . S
Co313 O321 2.135 . S
O314 Co313 2.061 . S
O314 C317 1.235 . S
C315 O318 1.238 . S
C315 O319 1.241 . S
C316 O309 1.247 . S
C316 O310 1.261 . S
C317 O312 1.259 . S
C317 O314 1.235 . S
O318 Co308 2.021 . S
O318 C315 1.238 . S
O319 Co313 2.052 . S
O319 C315 1.241 . S
O320 Co308 2.137 . S
O320 C311 1.247 . S
O321 Co308 2.244 . S
O321 C311 1.272 . S
O321 Co313 2.135 . S
Co322 O323 2.216 . S
Co322 O324 2.091 . S
Co322 O326 2.004 . S
Co322 O332 2.021 . S
Co322 O334 2.137 . S
Co322 O335 2.244 . S
O323 Co322 2.216 . S
O323 C330 1.247 . S
O324 Co322 2.091 . S
O324 C330 1.261 . S
C325 O334 1.247 . S
C325 O335 1.272 . S
O326 Co322 2.004 . S
O326 C331 1.259 . S
Co327 O328 2.061 . S
Co327 O333 2.052 . S
Co327 O335 2.135 . S
O328 Co327 2.061 . S
O328 C331 1.235 . S
C329 O332 1.238 . S
C329 O333 1.241 . S
C330 O323 1.247 . S
C330 O324 1.261 . S
C331 O326 1.259 . S
C331 O328 1.235 . S
O332 Co322 2.021 . S
O332 C329 1.238 . S
O333 Co327 2.052 . S
O333 C329 1.241 . S
O334 Co322 2.137 . S
O334 C325 1.247 . S
O335 Co322 2.244 . S
O335 C325 1.272 . S
O335 Co327 2.135 . S
Tb336 C345 2.764 . S
Tb336 O346 2.325 . S
Tb336 O349 2.303 . S
Tb336 O353 2.322 . S
Tb336 O354 2.349 . S
Tb336 O357 2.415 . S
Tb336 O358 2.399 . S
Tb337 O347 2.322 1_545 S
Tb337 O348 2.349 1_554 S
Tb337 O350 2.415 1_455 S
Tb337 O351 2.399 1_454 S
Tb337 O352 2.325 . S
Tb337 O355 2.303 . S
Tb337 C366 2.764 1_455 S
C338 O354 1.261 . S
C338 O355 1.257 . S
C339 C342 1.358 . S
C339 C343 1.332 . S
C339 C345 1.504 . S
C340 C341 1.373 . S
C340 C344 1.308 . S
C341 C340 1.373 . S
C341 C342 1.429 . S
C341 H368 0.932 . S
C342 C339 1.358 . S
C342 C341 1.429 . S
C342 H369 0.930 . S
C343 C339 1.332 . S
C343 C344 1.394 . S
C343 H370 0.932 . S
C344 C340 1.308 . S
C344 C343 1.394 . S
C344 H371 0.929 1_545 S
C345 Tb336 2.764 . S
C345 C339 1.504 . S
C345 O357 1.239 . S
C345 O358 1.263 . S
O346 Tb336 2.325 . S
O346 C356 1.236 1_545 S
O347 Tb337 2.322 1_565 S
O347 C356 1.257 . S
O348 Tb337 2.349 1_556 S
O348 C359 1.261 . S
O349 Tb336 2.303 . S
O349 C359 1.257 1_554 S
O350 Tb337 2.415 1_655 S
O350 C366 1.239 . S
O351 Tb337 2.399 1_656 S
O351 C366 1.263 1_556 S
O352 Tb337 2.325 . S
O352 C367 1.236 . S
O353 Tb336 2.322 . S
O353 C367 1.257 . S
O354 Tb336 2.349 . S
O354 C338 1.261 . S
O355 Tb337 2.303 . S
O355 C338 1.257 . S
C356 O346 1.236 1_565 S
C356 O347 1.257 . S
O357 Tb336 2.415 . S
O357 C345 1.239 . S
O358 Tb336 2.399 . S
O358 C345 1.263 . S
C359 O348 1.261 . S
C359 O349 1.257 1_556 S
C360 C363 1.358 1_554 S
C360 C364 1.332 . S
C360 C366 1.504 . S
C361 C362 1.342 1_554 S
C361 C365 1.343 . S
C362 C361 1.342 1_556 S
C362 C363 1.429 . S
C362 H372 0.932 . S
C363 C360 1.358 1_556 S
C363 C362 1.429 . S
C363 H373 0.930 . S
C364 C360 1.332 . S
C364 C365 1.394 . S
C364 H374 0.932 . S
C365 C361 1.343 . S
C365 C364 1.394 . S
C365 H375 0.929 . S
C366 Tb337 2.764 1_655 S
C366 O350 1.239 . S
C366 O351 1.263 1_554 S
C366 C360 1.504 . S
C367 O352 1.236 . S
C367 O353 1.257 . S
H368 C341 0.932 . S
H369 C342 0.930 . S
H370 C343 0.932 . S
H371 C344 0.929 1_565 S
H372 C362 0.932 . S
H373 C363 0.930 . S
H374 C364 0.932 . S
H375 C365 0.929 . S
Tb376 C385 2.764 . S
Tb376 O386 2.325 . S
Tb376 O389 2.303 . S
Tb376 O393 2.322 . S
Tb376 O394 2.349 . S
Tb376 O397 2.415 . S
Tb376 O398 2.399 . S
Tb377 O387 2.322 . S
Tb377 O388 2.349 . S
Tb377 O390 2.415 . S
Tb377 O391 2.399 . S
Tb377 O392 2.325 . S
Tb377 O395 2.303 . S
Tb377 C406 2.764 . S
C378 O394 1.261 . S
C378 O395 1.257 . S
C379 C382 1.358 . S
C379 C383 1.332 . S
C379 C385 1.504 . S
C380 C381 1.373 . S
C380 C384 1.308 . S
C381 C380 1.373 . S
C381 C382 1.429 . S
C381 H408 0.932 . S
C382 C379 1.358 . S
C382 C381 1.429 . S
C382 H409 0.930 . S
C383 C379 1.332 . S
C383 C384 1.394 . S
C383 H410 0.932 . S
C384 C380 1.308 . S
C384 C383 1.394 . S
C384 H411 0.929 . S
C385 Tb376 2.764 . S
C385 C379 1.504 . S
C385 O397 1.239 . S
C385 O398 1.263 . S
O386 Tb376 2.325 . S
O386 C396 1.236 . S
O387 Tb377 2.322 . S
O387 C396 1.257 . S
O388 Tb377 2.349 . S
O388 C399 1.261 . S
O389 Tb376 2.303 . S
O389 C399 1.257 . S
O390 Tb377 2.415 . S
O390 C406 1.239 . S
O391 Tb377 2.399 . S
O391 C406 1.263 . S
O392 Tb377 2.325 . S
O392 C407 1.236 . S
O393 Tb376 2.322 . S
O393 C407 1.257 . S
O394 Tb376 2.349 . S
O394 C378 1.261 . S
O395 Tb377 2.303 . S
O395 C378 1.257 . S
C396 O386 1.236 . S
C396 O387 1.257 . S
O397 Tb376 2.415 . S
O397 C385 1.239 . S
O398 Tb376 2.399 . S
O398 C385 1.263 . S
C399 O388 1.261 . S
C399 O389 1.257 . S
C400 C403 1.358 . S
C400 C404 1.332 . S
C400 C406 1.504 . S
C401 C402 1.373 . S
C401 C405 1.308 . S
C402 C401 1.373 . S
C402 C403 1.429 . S
C402 H412 0.932 . S
C403 C400 1.358 . S
C403 C402 1.429 . S
C403 H413 0.930 . S
C404 C400 1.332 . S
C404 C405 1.394 . S
C404 H414 0.932 . S
C405 C401 1.308 . S
C405 C404 1.394 . S
C405 H415 0.929 . S
C406 Tb377 2.764 . S
C406 O390 1.239 . S
C406 O391 1.263 . S
C406 C400 1.504 . S
C407 O392 1.236 . S
C407 O393 1.257 . S
H408 C381 0.932 . S
H409 C382 0.930 . S
H410 C383 0.932 . S
H411 C384 0.929 . S
H412 C402 0.932 . S
H413 C403 0.930 . S
H414 C404 0.932 . S
H415 C405 0.929 . S
Tb416 C425 2.764 . S
Tb416 O426 2.325 . S
Tb416 O429 2.303 . S
Tb416 O433 2.322 1_545 S
Tb416 O434 2.349 . S
Tb416 O437 2.415 . S
Tb416 O438 2.399 . S
Tb417 O427 2.322 . S
Tb417 O428 2.349 . S
Tb417 O430 2.415 . S
Tb417 O431 2.399 . S
Tb417 O432 2.325 1_545 S
Tb417 O435 2.303 . S
Tb417 C446 2.764 . S
C418 O434 1.261 . S
C418 O435 1.257 . S
C419 C422 1.358 . S
C419 C423 1.332 . S
C419 C425 1.504 . S
C420 C421 1.373 . S
C420 C424 1.308 . S
C421 C420 1.373 . S
C421 C422 1.429 . S
C421 H448 0.932 . S
C422 C419 1.358 . S
C422 C421 1.429 . S
C422 H449 0.930 . S
C423 C419 1.332 . S
C423 C424 1.394 . S
C423 H450 0.932 . S
C424 C420 1.308 . S
C424 C423 1.394 . S
C424 H451 0.929 . S
C425 Tb416 2.764 . S
C425 C419 1.504 . S
C425 O437 1.239 . S
C425 O438 1.263 . S
O426 Tb416 2.325 . S
O426 C436 1.236 . S
O427 Tb417 2.322 . S
O427 C436 1.257 . S
O428 Tb417 2.349 . S
O428 C439 1.261 . S
O429 Tb416 2.303 . S
O429 C439 1.257 . S
O430 Tb417 2.415 . S
O430 C446 1.239 . S
O431 Tb417 2.399 . S
O431 C446 1.263 . S
O432 Tb417 2.325 1_565 S
O432 C447 1.236 . S
O433 Tb416 2.322 1_565 S
O433 C447 1.257 . S
O434 Tb416 2.349 . S
O434 C418 1.261 . S
O435 Tb417 2.303 . S
O435 C418 1.257 . S
C436 O426 1.236 . S
C436 O427 1.257 . S
O437 Tb416 2.415 . S
O437 C425 1.239 . S
O438 Tb416 2.399 . S
O438 C425 1.263 . S
C439 O428 1.261 . S
C439 O429 1.257 . S
C440 C443 1.358 . S
C440 C444 1.332 . S
C440 C446 1.504 1_565 S
C441 C442 1.373 . S
C441 C445 1.308 . S
C442 C441 1.373 . S
C442 C443 1.434 . S
C442 H452 0.932 . S
C443 C440 1.358 . S
C443 C442 1.434 . S
C443 H453 0.925 1_565 S
C444 C440 1.332 . S
C444 C445 1.394 . S
C444 H454 0.932 . S
C445 C441 1.308 . S
C445 C444 1.394 . S
C445 H455 0.929 . S
C446 Tb417 2.764 . S
C446 O430 1.239 . S
C446 O431 1.263 . S
C446 C440 1.504 1_545 S
C447 O432 1.236 . S
C447 O433 1.257 . S
H448 C421 0.932 . S
H449 C422 0.930 . S
H450 C423 0.932 . S
H451 C424 0.929 . S
H452 C442 0.932 . S
H453 C443 0.925 1_545 S
H454 C444 0.932 . S
H455 C445 0.929 . S
Tb456 C465 2.764 . S
Tb456 O466 2.325 . S
Tb456 O469 2.303 . S
Tb456 O473 2.322 . S
Tb456 O474 2.349 . S
Tb456 O477 2.415 . S
Tb456 O478 2.399 . S
Tb457 O467 2.322 . S
Tb457 O468 2.349 . S
Tb457 O470 2.415 . S
Tb457 O471 2.399 . S
Tb457 O472 2.325 . S
Tb457 O475 2.303 . S
Tb457 C486 2.764 . S
C458 O474 1.261 . S
C458 O475 1.257 . S
C459 C462 1.358 . S
C459 C463 1.332 . S
C459 C465 1.504 . S
C460 C461 1.373 . S
C460 C464 1.308 . S
C461 C460 1.373 . S
C461 C462 1.429 . S
C461 H488 0.932 . S
C462 C459 1.358 . S
C462 C461 1.429 . S
C462 H489 0.930 . S
C463 C459 1.332 . S
C463 C464 1.394 . S
C463 H490 0.932 . S
C464 C460 1.308 . S
C464 C463 1.394 . S
C464 H491 0.929 . S
C465 Tb456 2.764 . S
C465 C459 1.504 . S
C465 O477 1.239 . S
C465 O478 1.263 . S
O466 Tb456 2.325 . S
O466 C476 1.236 . S
O467 Tb457 2.322 . S
O467 C476 1.257 . S
O468 Tb457 2.349 . S
O468 C479 1.261 . S
O469 Tb456 2.303 . S
O469 C479 1.257 . S
O470 Tb457 2.415 . S
O470 C486 1.239 . S
O471 Tb457 2.399 . S
O471 C486 1.263 . S
O472 Tb457 2.325 . S
O472 C487 1.236 . S
O473 Tb456 2.322 . S
O473 C487 1.257 . S
O474 Tb456 2.349 . S
O474 C458 1.261 . S
O475 Tb457 2.303 . S
O475 C458 1.257 . S
C476 O466 1.236 . S
C476 O467 1.257 . S
O477 Tb456 2.415 . S
O477 C465 1.239 . S
O478 Tb456 2.399 . S
O478 C465 1.263 . S
C479 O468 1.261 . S
C479 O469 1.257 . S
C480 C483 1.358 . S
C480 C484 1.332 . S
C480 C486 1.504 . S
C481 C482 1.373 . S
C481 C485 1.308 . S
C482 C481 1.373 . S
C482 C483 1.429 . S
C482 H492 0.932 . S
C483 C480 1.358 . S
C483 C482 1.429 . S
C483 H493 0.930 . S
C484 C480 1.332 . S
C484 C485 1.394 . S
C484 H494 0.932 . S
C485 C481 1.308 . S
C485 C484 1.394 . S
C485 H495 0.929 . S
C486 Tb457 2.764 . S
C486 O470 1.239 . S
C486 O471 1.263 . S
C486 C480 1.504 . S
C487 O472 1.236 . S
C487 O473 1.257 . S
H488 C461 0.932 . S
H489 C462 0.930 . S
H490 C463 0.932 . S
H491 C464 0.929 . S
H492 C482 0.932 . S
H493 C483 0.930 . S
H494 C484 0.932 . S
H495 C485 0.929 . S
Tb496 C505 2.764 . S
Tb496 O506 2.325 . S
Tb496 O509 2.303 . S
Tb496 O513 2.322 . S
Tb496 O514 2.349 . S
Tb496 O517 2.415 . S
Tb496 O518 2.399 . S
Tb497 O507 2.322 1_545 S
Tb497 O508 2.349 . S
Tb497 O510 2.415 . S
Tb497 O511 2.399 . S
Tb497 O512 2.325 . S
Tb497 O515 2.303 . S
Tb497 C526 2.764 . S
C498 O514 1.261 1_655 S
C498 O515 1.263 1_655 S
C499 C502 1.358 . S
C499 C503 1.332 . S
C499 C505 1.504 . S
C500 C501 1.373 . S
C500 C504 1.308 . S
C501 C500 1.373 . S
C501 C502 1.429 . S
C501 H528 0.932 . S
C502 C499 1.358 . S
C502 C501 1.429 . S
C502 H529 0.930 . S
C503 C499 1.332 . S
C503 C504 1.394 . S
C503 H530 0.932 . S
C504 C500 1.308 . S
C504 C503 1.394 . S
C504 H531 0.929 . S
C505 Tb496 2.764 . S
C505 C499 1.504 . S
C505 O517 1.239 . S
C505 O518 1.263 . S
O506 Tb496 2.325 . S
O506 C516 1.236 1_545 S
O507 Tb497 2.322 1_565 S
O507 C516 1.257 . S
O508 Tb497 2.349 . S
O508 C519 1.261 . S
O509 Tb496 2.303 . S
O509 C519 1.257 . S
O510 Tb497 2.415 . S
O510 C526 1.239 . S
O511 Tb497 2.399 . S
O511 C526 1.263 . S
O512 Tb497 2.325 . S
O512 C527 1.236 . S
O513 Tb496 2.322 . S
O513 C527 1.257 . S
O514 Tb496 2.349 . S
O514 C498 1.261 1_455 S
O515 Tb497 2.303 . S
O515 C498 1.263 1_455 S
C516 O506 1.236 1_565 S
C516 O507 1.257 . S
O517 Tb496 2.415 . S
O517 C505 1.239 . S
O518 Tb496 2.399 . S
O518 C505 1.263 . S
C519 O508 1.261 . S
C519 O509 1.257 . S
C520 C523 1.358 . S
C520 C524 1.279 1_455 S
C520 C526 1.504 . S
C521 C522 1.373 . S
C521 C525 1.308 1_455 S
C522 C521 1.373 . S
C522 C523 1.429 . S
C522 H532 0.932 . S
C523 C520 1.358 . S
C523 C522 1.429 . S
C523 H533 0.930 . S
C524 C520 1.279 1_655 S
C524 C525 1.411 . S
C524 H534 0.971 . S
C525 C521 1.308 1_655 S
C525 C524 1.411 . S
C525 H535 0.929 . S
C526 Tb497 2.764 . S
C526 O510 1.239 . S
C526 O511 1.263 . S
C526 C520 1.504 . S
C527 O512 1.236 . S
C527 O513 1.257 . S
H528 C501 0.932 . S
H529 C502 0.930 . S
H530 C503 0.932 . S
H531 C504 0.929 . S
H532 C522 0.932 . S
H533 C523 0.930 . S
H534 C524 0.971 . S
H535 C525 0.929 . S
Tb536 C545 2.764 . S
Tb536 O546 2.325 . S
Tb536 O549 2.303 . S
Tb536 O553 2.322 . S
Tb536 O554 2.349 . S
Tb536 O557 2.415 . S
Tb536 O558 2.399 . S
Tb537 O547 2.322 . S
Tb537 O548 2.349 . S
Tb537 O550 2.415 . S
Tb537 O551 2.399 . S
Tb537 O552 2.325 . S
Tb537 O555 2.303 . S
Tb537 C566 2.764 . S
C538 O554 1.261 . S
C538 O555 1.257 . S
C539 C542 1.358 . S
C539 C543 1.332 . S
C539 C545 1.504 . S
C540 C541 1.373 . S
C540 C544 1.308 . S
C541 C540 1.373 . S
C541 C542 1.429 . S
C541 H568 0.932 . S
C542 C539 1.358 . S
C542 C541 1.429 . S
C542 H569 0.930 . S
C543 C539 1.332 . S
C543 C544 1.394 . S
C543 H570 0.932 . S
C544 C540 1.308 . S
C544 C543 1.394 . S
C544 H571 0.929 . S
C545 Tb536 2.764 . S
C545 C539 1.504 . S
C545 O557 1.239 . S
C545 O558 1.263 . S
O546 Tb536 2.325 . S
O546 C556 1.236 . S
O547 Tb537 2.322 . S
O547 C556 1.257 . S
O548 Tb537 2.349 . S
O548 C559 1.261 . S
O549 Tb536 2.303 . S
O549 C559 1.257 . S
O550 Tb537 2.415 . S
O550 C566 1.239 . S
O551 Tb537 2.399 . S
O551 C566 1.263 . S
O552 Tb537 2.325 . S
O552 C567 1.236 . S
O553 Tb536 2.322 . S
O553 C567 1.257 . S
O554 Tb536 2.349 . S
O554 C538 1.261 . S
O555 Tb537 2.303 . S
O555 C538 1.257 . S
C556 O546 1.236 . S
C556 O547 1.257 . S
O557 Tb536 2.415 . S
O557 C545 1.239 . S
O558 Tb536 2.399 . S
O558 C545 1.263 . S
C559 O548 1.261 . S
C559 O549 1.257 . S
C560 C563 1.358 . S
C560 C564 1.332 . S
C560 C566 1.504 . S
C561 C562 1.373 . S
C561 C565 1.308 . S
C562 C561 1.373 . S
C562 C563 1.429 . S
C562 H572 0.932 . S
C563 C560 1.358 . S
C563 C562 1.429 . S
C563 H573 0.930 . S
C564 C560 1.332 . S
C564 C565 1.394 . S
C564 H574 0.932 . S
C565 C561 1.308 . S
C565 C564 1.394 . S
C565 H575 0.929 . S
C566 Tb537 2.764 . S
C566 O550 1.239 . S
C566 O551 1.263 . S
C566 C560 1.504 . S
C567 O552 1.236 . S
C567 O553 1.257 . S
H568 C541 0.932 . S
H569 C542 0.930 . S
H570 C543 0.932 . S
H571 C544 0.929 . S
H572 C562 0.932 . S
H573 C563 0.930 . S
H574 C564 0.932 . S
H575 C565 0.929 . S
Tb576 C585 2.764 . S
Tb576 O586 2.325 . S
Tb576 O589 2.303 . S
Tb576 O593 2.322 1_545 S
Tb576 O594 2.349 . S
Tb576 O597 2.415 . S
Tb576 O598 2.399 . S
Tb577 O587 2.327 1_556 S
Tb577 O588 2.352 . S
Tb577 O590 2.411 . S
Tb577 O591 2.393 . S
Tb577 O592 2.325 . S
Tb577 O595 2.307 1_556 S
Tb577 C606 2.759 . S
C578 O594 1.261 . S
C578 O595 1.257 . S
C579 C582 1.358 . S
C579 C583 1.332 . S
C579 C585 1.504 . S
C580 C581 1.373 . S
C580 C584 1.308 . S
C581 C580 1.373 . S
C581 C582 1.429 . S
C581 H608 0.932 . S
C582 C579 1.358 . S
C582 C581 1.429 . S
C582 H609 0.930 . S
C583 C579 1.332 . S
C583 C584 1.394 . S
C583 H610 0.932 . S
C584 C580 1.308 . S
C584 C583 1.394 . S
C584 H611 0.929 . S
C585 Tb576 2.764 . S
C585 C579 1.504 . S
C585 O597 1.239 . S
C585 O598 1.263 . S
O586 Tb576 2.325 . S
O586 C596 1.236 . S
O587 Tb577 2.327 1_554 S
O587 C596 1.257 . S
O588 Tb577 2.352 . S
O588 C599 1.238 1_556 S
O589 Tb576 2.303 . S
O589 C599 1.257 . S
O590 Tb577 2.411 . S
O590 C606 1.239 . S
O591 Tb577 2.393 . S
O591 C606 1.263 . S
O592 Tb577 2.325 . S
O592 C607 1.236 1_546 S
O593 Tb576 2.322 1_565 S
O593 C607 1.257 . S
O594 Tb576 2.349 . S
O594 C578 1.261 . S
O595 Tb577 2.307 1_554 S
O595 C578 1.257 . S
C596 O586 1.236 . S
C596 O587 1.257 . S
O597 Tb576 2.415 . S
O597 C585 1.239 . S
O598 Tb576 2.399 . S
O598 C585 1.263 . S
C599 O588 1.238 1_554 S
C599 O589 1.257 . S
C600 C603 1.358 . S
C600 C604 1.332 . S
C600 C606 1.504 . S
C601 C602 1.373 . S
C601 C605 1.308 . S
C602 C601 1.373 . S
C602 C603 1.429 . S
C602 H612 0.932 . S
C603 C600 1.358 . S
C603 C602 1.429 . S
C603 H613 0.930 . S
C604 C600 1.332 . S
C604 C605 1.394 . S
C604 H614 0.932 . S
C605 C601 1.308 . S
C605 C604 1.394 . S
C605 H615 0.929 . S
C606 Tb577 2.759 . S
C606 O590 1.239 . S
C606 O591 1.263 . S
C606 C600 1.504 . S
C607 O592 1.236 1_564 S
C607 O593 1.257 . S
H608 C581 0.932 . S
H609 C582 0.930 . S
H610 C583 0.932 . S
H611 C584 0.929 . S
H612 C602 0.932 . S
H613 C603 0.930 . S
H614 C604 0.932 . S
H615 C605 0.929 . S
Tb616 C625 2.764 . S
Tb616 O626 2.325 . S
Tb616 O629 2.303 . S
Tb616 O633 2.322 . S
Tb616 O634 2.349 . S
Tb616 O637 2.415 . S
Tb616 O638 2.399 . S
Tb617 O627 2.322 . S
Tb617 O628 2.349 . S
Tb617 O630 2.415 . S
Tb617 O631 2.399 . S
Tb617 O632 2.325 . S
Tb617 O635 2.303 . S
Tb617 C646 2.764 . S
C618 O634 1.261 . S
C618 O635 1.257 . S
C619 C622 1.358 . S
C619 C623 1.332 . S
C619 C625 1.504 . S
C620 C621 1.373 . S
C620 C624 1.308 . S
C621 C620 1.373 . S
C621 C622 1.429 . S
C621 H648 0.932 . S
C622 C619 1.358 . S
C622 C621 1.429 . S
C622 H649 0.930 . S
C623 C619 1.332 . S
C623 C624 1.394 . S
C623 H650 0.932 . S
C624 C620 1.308 . S
C624 C623 1.394 . S
C624 H651 0.929 . S
C625 Tb616 2.764 . S
C625 C619 1.504 . S
C625 O637 1.239 . S
C625 O638 1.263 . S
O626 Tb616 2.325 . S
O626 C636 1.236 . S
O627 Tb617 2.322 . S
O627 C636 1.257 . S
O628 Tb617 2.349 . S
O628 C639 1.261 . S
O629 Tb616 2.303 . S
O629 C639 1.257 . S
O630 Tb617 2.415 . S
O630 C646 1.239 . S
O631 Tb617 2.399 . S
O631 C646 1.263 . S
O632 Tb617 2.325 . S
O632 C647 1.236 . S
O633 Tb616 2.322 . S
O633 C647 1.257 . S
O634 Tb616 2.349 . S
O634 C618 1.261 . S
O635 Tb617 2.303 . S
O635 C618 1.257 . S
C636 O626 1.236 . S
C636 O627 1.257 . S
O637 Tb616 2.415 . S
O637 C625 1.239 . S
O638 Tb616 2.399 . S
O638 C625 1.263 . S
C639 O628 1.261 . S
C639 O629 1.257 . S
C640 C643 1.358 . S
C640 C644 1.332 . S
C640 C646 1.504 . S
C641 C642 1.373 . S
C641 C645 1.308 . S
C642 C641 1.373 . S
C642 C643 1.429 . S
C642 H652 0.932 . S
C643 C640 1.358 . S
C643 C642 1.429 . S
C643 H653 0.930 . S
C644 C640 1.332 . S
C644 C645 1.394 . S
C644 H654 0.932 . S
C645 C641 1.308 . S
C645 C644 1.394 . S
C645 H655 0.929 . S
C646 Tb617 2.764 . S
C646 O630 1.239 . S
C646 O631 1.263 . S
C646 C640 1.504 . S
C647 O632 1.236 . S
C647 O633 1.257 . S
H648 C621 0.932 . S
H649 C622 0.930 . S
H650 C623 0.932 . S
H651 C624 0.929 . S
H652 C642 0.932 . S
H653 C643 0.930 . S
H654 C644 0.932 . S
H655 C645 0.929 . S
Tb656 C665 2.764 . S
Tb656 O666 2.325 . S
Tb656 O669 2.303 . S
Tb656 O673 2.322 . S
Tb656 O674 2.349 . S
Tb656 O677 2.415 . S
Tb656 O678 2.399 . S
Tb657 O667 2.275 1_556 S
Tb657 O668 2.348 1_556 S
Tb657 O670 2.459 . S
Tb657 O671 2.461 . S
Tb657 O672 2.331 . S
Tb657 O675 2.261 1_556 S
Tb657 C686 2.823 . S
C658 O674 1.261 . S
C658 O675 1.257 . S
C659 C662 1.358 . S
C659 C663 1.332 . S
C659 C665 1.504 . S
C660 C661 1.373 . S
C660 C664 1.308 . S
C661 C660 1.373 . S
C661 C662 1.429 . S
C661 H688 0.932 . S
C662 C659 1.358 . S
C662 C661 1.429 . S
C662 H689 0.930 . S
C663 C659 1.332 . S
C663 C664 1.394 . S
C663 H690 0.932 . S
C664 C660 1.308 . S
C664 C663 1.394 . S
C664 H691 0.929 . S
C665 Tb656 2.764 . S
C665 C659 1.504 . S
C665 O677 1.239 . S
C665 O678 1.263 . S
O666 Tb656 2.325 . S
O666 C676 1.236 . S
O667 Tb657 2.275 1_554 S
O667 C676 1.257 . S
O668 Tb657 2.348 1_554 S
O668 C679 1.261 . S
O669 Tb656 2.303 . S
O669 C679 1.257 . S
O670 Tb657 2.459 . S
O670 C686 1.239 . S
O671 Tb657 2.461 . S
O671 C686 1.263 . S
O672 Tb657 2.331 . S
O672 C687 1.236 1_556 S
O673 Tb656 2.322 . S
O673 C687 1.257 . S
O674 Tb656 2.349 . S
O674 C658 1.261 . S
O675 Tb657 2.261 1_554 S
O675 C658 1.257 . S
C676 O666 1.236 . S
C676 O667 1.257 . S
O677 Tb656 2.415 . S
O677 C665 1.239 . S
O678 Tb656 2.399 . S
O678 C665 1.263 . S
C679 O668 1.261 . S
C679 O669 1.257 . S
C680 C683 1.358 . S
C680 C684 1.332 . S
C680 C686 1.504 . S
C681 C682 1.373 . S
C681 C685 1.308 . S
C682 C681 1.373 . S
C682 C683 1.429 . S
C682 H692 0.932 . S
C683 C680 1.358 . S
C683 C682 1.429 . S
C683 H693 0.930 . S
C684 C680 1.332 . S
C684 C685 1.394 . S
C684 H694 0.932 . S
C685 C681 1.308 . S
C685 C684 1.394 . S
C685 H695 0.929 . S
C686 Tb657 2.823 . S
C686 O670 1.239 . S
C686 O671 1.263 . S
C686 C680 1.504 . S
C687 O672 1.236 1_554 S
C687 O673 1.257 . S
H688 C661 0.932 . S
H689 C662 0.930 . S
H690 C663 0.932 . S
H691 C664 0.929 . S
H692 C682 0.932 . S
H693 C683 0.930 . S
H694 C684 0.932 . S
H695 C685 0.929 . S
Tb696 C705 2.764 . S
Tb696 O706 2.325 . S
Tb696 O709 2.303 . S
Tb696 O713 2.322 . S
Tb696 O714 2.349 . S
Tb696 O717 2.415 . S
Tb696 O718 2.399 . S
Tb697 O707 2.322 . S
Tb697 O708 2.349 . S
Tb697 O710 2.415 . S
Tb697 O711 2.399 . S
Tb697 O712 2.325 . S
Tb697 O715 2.303 . S
Tb697 C726 2.764 . S
C698 O714 1.261 . S
C698 O715 1.257 . S
C699 C702 1.358 . S
C699 C703 1.332 . S
C699 C705 1.504 . S
C700 C701 1.373 . S
C700 C704 1.308 . S
C701 C700 1.373 . S
C701 C702 1.429 . S
C701 H728 0.932 . S
C702 C699 1.358 . S
C702 C701 1.429 . S
C702 H729 0.930 . S
C703 C699 1.332 . S
C703 C704 1.394 . S
C703 H730 0.932 . S
C704 C700 1.308 . S
C704 C703 1.394 . S
C704 H731 0.929 . S
C705 Tb696 2.764 . S
C705 C699 1.504 . S
C705 O717 1.239 . S
C705 O718 1.263 . S
O706 Tb696 2.325 . S
O706 C716 1.236 . S
O707 Tb697 2.322 . S
O707 C716 1.257 . S
O708 Tb697 2.349 . S
O708 C719 1.261 . S
O709 Tb696 2.303 . S
O709 C719 1.257 . S
O710 Tb697 2.415 . S
O710 C726 1.239 . S
O711 Tb697 2.399 . S
O711 C726 1.263 . S
O712 Tb697 2.325 . S
O712 C727 1.236 . S
O713 Tb696 2.322 . S
O713 C727 1.257 . S
O714 Tb696 2.349 . S
O714 C698 1.261 . S
O715 Tb697 2.303 . S
O715 C698 1.257 . S
C716 O706 1.236 . S
C716 O707 1.257 . S
O717 Tb696 2.415 . S
O717 C705 1.239 . S
O718 Tb696 2.399 . S
O718 C705 1.263 . S
C719 O708 1.261 . S
C719 O709 1.257 . S
C720 C723 1.358 . S
C720 C724 1.332 . S
C720 C726 1.504 . S
C721 C722 1.373 . S
C721 C725 1.308 . S
C722 C721 1.373 . S
C722 C723 1.429 . S
C722 H732 0.932 . S
C723 C720 1.358 . S
C723 C722 1.429 . S
C723 H733 0.930 . S
C724 C720 1.332 . S
C724 C725 1.394 . S
C724 H734 0.932 . S
C725 C721 1.308 . S
C725 C724 1.394 . S
C725 H735 0.929 . S
C726 Tb697 2.764 . S
C726 O710 1.239 . S
C726 O711 1.263 . S
C726 C720 1.504 . S
C727 O712 1.236 . S
C727 O713 1.257 . S
H728 C701 0.932 . S
H729 C702 0.930 . S
H730 C703 0.932 . S
H731 C704 0.929 . S
H732 C722 0.932 . S
H733 C723 0.930 . S
H734 C724 0.932 . S
H735 C725 0.929 . S
Tb736 C745 2.764 . S
Tb736 O746 2.325 . S
Tb736 O749 2.303 . S
Tb736 O753 2.322 . S
Tb736 O754 2.349 . S
Tb736 O757 2.415 . S
Tb736 O758 2.399 . S
Tb737 O747 2.322 . S
Tb737 O748 2.349 . S
Tb737 O750 2.415 . S
Tb737 O751 2.399 . S
Tb737 O752 2.325 . S
Tb737 O755 2.303 . S
Tb737 C766 2.764 . S
C738 O754 1.261 . S
C738 O755 1.257 . S
C739 C742 1.358 . S
C739 C743 1.312 1_455 S
C739 C745 1.504 . S
C740 C741 1.373 . S
C740 C744 1.308 1_455 S
C741 C740 1.373 . S
C741 C742 1.429 . S
C741 H768 0.932 . S
C742 C739 1.358 . S
C742 C741 1.429 . S
C742 H769 0.930 . S
C743 C739 1.312 1_655 S
C743 C744 1.402 . S
C743 H770 0.944 . S
C744 C740 1.308 1_655 S
C744 C743 1.402 . S
C744 H771 0.929 . S
C745 Tb736 2.764 . S
C745 C739 1.504 . S
C745 O757 1.239 . S
C745 O758 1.263 . S
O746 Tb736 2.325 . S
O746 C756 1.236 . S
O747 Tb737 2.322 . S
O747 C756 1.257 . S
O748 Tb737 2.349 . S
O748 C759 1.261 1_455 S
O749 Tb736 2.303 . S
O749 C759 1.257 1_455 S
O750 Tb737 2.415 . S
O750 C766 1.239 . S
O751 Tb737 2.399 . S
O751 C766 1.263 . S
O752 Tb737 2.325 . S
O752 C767 1.236 . S
O753 Tb736 2.322 . S
O753 C767 1.257 . S
O754 Tb736 2.349 . S
O754 C738 1.261 . S
O755 Tb737 2.303 . S
O755 C738 1.257 . S
C756 O746 1.236 . S
C756 O747 1.257 . S
O757 Tb736 2.415 . S
O757 C745 1.239 . S
O758 Tb736 2.399 . S
O758 C745 1.263 . S
C759 O748 1.261 1_655 S
C759 O749 1.257 1_655 S
C760 C763 1.358 . S
C760 C764 1.332 . S
C760 C766 1.504 . S
C761 C762 1.373 . S
C761 C765 1.308 . S
C762 C761 1.373 . S
C762 C763 1.429 . S
C762 H772 0.932 . S
C763 C760 1.358 . S
C763 C762 1.429 . S
C763 H773 0.930 . S
C764 C760 1.332 . S
C764 C765 1.394 . S
C764 H774 0.932 . S
C765 C761 1.308 . S
C765 C764 1.394 . S
C765 H775 0.929 . S
C766 Tb737 2.764 . S
C766 O750 1.239 . S
C766 O751 1.263 . S
C766 C760 1.504 . S
C767 O752 1.236 . S
C767 O753 1.257 . S
H768 C741 0.932 . S
H769 C742 0.930 . S
H770 C743 0.944 . S
H771 C744 0.929 . S
H772 C762 0.932 . S
H773 C763 0.930 . S
H774 C764 0.932 . S
H775 C765 0.929 . S
Tb776 C785 2.764 . S
Tb776 O786 2.325 . S
Tb776 O789 2.303 . S
Tb776 O793 2.322 . S
Tb776 O794 2.349 . S
Tb776 O797 2.415 . S
Tb776 O798 2.399 . S
Tb777 O787 2.322 . S
Tb777 O788 2.349 . S
Tb777 O790 2.415 . S
Tb777 O791 2.399 . S
Tb777 O792 2.325 . S
Tb777 O795 2.303 . S
Tb777 C806 2.764 . S
C778 O794 1.261 . S
C778 O795 1.257 . S
C779 C782 1.358 . S
C779 C783 1.332 . S
C779 C785 1.504 . S
C780 C781 1.373 . S
C780 C784 1.308 . S
C781 C780 1.373 . S
C781 C782 1.429 . S
C781 H808 0.932 . S
C782 C779 1.358 . S
C782 C781 1.429 . S
C782 H809 0.930 . S
C783 C779 1.332 . S
C783 C784 1.394 . S
C783 H810 0.932 . S
C784 C780 1.308 . S
C784 C783 1.394 . S
C784 H811 0.929 . S
C785 Tb776 2.764 . S
C785 C779 1.504 . S
C785 O797 1.239 . S
C785 O798 1.263 . S
O786 Tb776 2.325 . S
O786 C796 1.236 . S
O787 Tb777 2.322 . S
O787 C796 1.257 . S
O788 Tb777 2.349 . S
O788 C799 1.261 . S
O789 Tb776 2.303 . S
O789 C799 1.257 . S
O790 Tb777 2.415 . S
O790 C806 1.239 . S
O791 Tb777 2.399 . S
O791 C806 1.263 . S
O792 Tb777 2.325 . S
O792 C807 1.236 . S
O793 Tb776 2.322 . S
O793 C807 1.257 . S
O794 Tb776 2.349 . S
O794 C778 1.261 . S
O795 Tb777 2.303 . S
O795 C778 1.257 . S
C796 O786 1.236 . S
C796 O787 1.257 . S
O797 Tb776 2.415 . S
O797 C785 1.239 . S
O798 Tb776 2.399 . S
O798 C785 1.263 . S
C799 O788 1.261 . S
C799 O789 1.257 . S
C800 C803 1.358 . S
C800 C804 1.332 . S
C800 C806 1.504 . S
C801 C802 1.373 . S
C801 C805 1.308 . S
C802 C801 1.373 . S
C802 C803 1.429 . S
C802 H812 0.932 . S
C803 C800 1.358 . S
C803 C802 1.429 . S
C803 H813 0.930 . S
C804 C800 1.332 . S
C804 C805 1.394 . S
C804 H814 0.932 . S
C805 C801 1.308 . S
C805 C804 1.394 . S
C805 H815 0.929 . S
C806 Tb777 2.764 . S
C806 O790 1.239 . S
C806 O791 1.263 . S
C806 C800 1.504 . S
C807 O792 1.236 . S
C807 O793 1.257 . S
H808 C781 0.932 . S
H809 C782 0.930 . S
H810 C783 0.932 . S
H811 C784 0.929 . S
H812 C802 0.932 . S
H813 C803 0.930 . S
H814 C804 0.932 . S
H815 C805 0.929 . S
Tb816 C825 2.764 . S
Tb816 O826 2.325 . S
Tb816 O829 2.303 . S
Tb816 O833 2.322 . S
Tb816 O834 2.349 . S
Tb816 O837 2.415 . S
Tb816 O838 2.399 . S
Tb817 O827 2.322 . S
Tb817 O828 2.349 . S
Tb817 O830 2.415 . S
Tb817 O831 2.399 . S
Tb817 O832 2.325 . S
Tb817 O835 2.303 . S
Tb817 C846 2.764 . S
C818 O834 1.261 . S
C818 O835 1.257 . S
C819 C822 1.358 . S
C819 C823 1.332 . S
C819 C825 1.504 . S
C820 C821 1.373 . S
C820 C824 1.308 . S
C821 C820 1.373 . S
C821 C822 1.429 . S
C821 H848 0.932 . S
C822 C819 1.358 . S
C822 C821 1.429 . S
C822 H849 0.930 . S
C823 C819 1.332 . S
C823 C824 1.394 . S
C823 H850 0.932 . S
C824 C820 1.308 . S
C824 C823 1.394 . S
C824 H851 0.929 . S
C825 Tb816 2.764 . S
C825 C819 1.504 . S
C825 O837 1.239 . S
C825 O838 1.263 . S
O826 Tb816 2.325 . S
O826 C836 1.236 . S
O827 Tb817 2.322 . S
O827 C836 1.257 . S
O828 Tb817 2.349 . S
O828 C839 1.261 . S
O829 Tb816 2.303 . S
O829 C839 1.257 . S
O830 Tb817 2.415 . S
O830 C846 1.239 . S
O831 Tb817 2.399 . S
O831 C846 1.263 . S
O832 Tb817 2.325 . S
O832 C847 1.236 . S
O833 Tb816 2.322 . S
O833 C847 1.257 . S
O834 Tb816 2.349 . S
O834 C818 1.261 . S
O835 Tb817 2.303 . S
O835 C818 1.257 . S
C836 O826 1.236 . S
C836 O827 1.257 . S
O837 Tb816 2.415 . S
O837 C825 1.239 . S
O838 Tb816 2.399 . S
O838 C825 1.263 . S
C839 O828 1.261 . S
C839 O829 1.257 . S
C840 C843 1.358 . S
C840 C844 1.332 . S
C840 C846 1.504 . S
C841 C842 1.373 . S
C841 C845 1.308 . S
C842 C841 1.373 . S
C842 C843 1.429 . S
C842 H852 0.932 . S
C843 C840 1.358 . S
C843 C842 1.429 . S
C843 H853 0.930 . S
C844 C840 1.332 . S
C844 C845 1.394 . S
C844 H854 0.932 . S
C845 C841 1.308 . S
C845 C844 1.394 . S
C845 H855 0.929 . S
C846 Tb817 2.764 . S
C846 O830 1.239 . S
C846 O831 1.263 . S
C846 C840 1.504 . S
C847 O832 1.236 . S
C847 O833 1.257 . S
H848 C821 0.932 . S
H849 C822 0.930 . S
H850 C823 0.932 . S
H851 C824 0.929 . S
H852 C842 0.932 . S
H853 C843 0.930 . S
H854 C844 0.932 . S
H855 C845 0.929 . S
Tb856 C865 2.764 . S
Tb856 O866 2.325 . S
Tb856 O869 2.303 . S
Tb856 O873 2.322 . S
Tb856 O874 2.349 . S
Tb856 O877 2.415 . S
Tb856 O878 2.399 . S
Tb857 O867 2.322 . S
Tb857 O868 2.349 . S
Tb857 O870 2.415 . S
Tb857 O871 2.399 . S
Tb857 O872 2.325 . S
Tb857 O875 2.303 . S
Tb857 C886 2.764 . S
C858 O874 1.261 . S
C858 O875 1.257 . S
C859 C862 1.358 . S
C859 C863 1.332 . S
C859 C865 1.504 . S
C860 C861 1.373 . S
C860 C864 1.308 . S
C861 C860 1.373 . S
C861 C862 1.429 . S
C861 H888 0.932 . S
C862 C859 1.358 . S
C862 C861 1.429 . S
C862 H889 0.930 . S
C863 C859 1.332 . S
C863 C864 1.394 . S
C863 H890 0.932 . S
C864 C860 1.308 . S
C864 C863 1.394 . S
C864 H891 0.929 . S
C865 Tb856 2.764 . S
C865 C859 1.504 . S
C865 O877 1.239 . S
C865 O878 1.263 . S
O866 Tb856 2.325 . S
O866 C876 1.236 . S
O867 Tb857 2.322 . S
O867 C876 1.257 . S
O868 Tb857 2.349 . S
O868 C879 1.261 . S
O869 Tb856 2.303 . S
O869 C879 1.257 . S
O870 Tb857 2.415 . S
O870 C886 1.239 . S
O871 Tb857 2.399 . S
O871 C886 1.263 . S
O872 Tb857 2.325 . S
O872 C887 1.236 . S
O873 Tb856 2.322 . S
O873 C887 1.257 . S
O874 Tb856 2.349 . S
O874 C858 1.261 . S
O875 Tb857 2.303 . S
O875 C858 1.257 . S
C876 O866 1.236 . S
C876 O867 1.257 . S
O877 Tb856 2.415 . S
O877 C865 1.239 . S
O878 Tb856 2.399 . S
O878 C865 1.263 . S
C879 O868 1.261 . S
C879 O869 1.257 . S
C880 C883 1.358 . S
C880 C884 1.332 . S
C880 C886 1.504 . S
C881 C882 1.373 . S
C881 C885 1.308 . S
C882 C881 1.373 . S
C882 C883 1.429 . S
C882 H892 0.932 . S
C883 C880 1.358 . S
C883 C882 1.429 . S
C883 H893 0.930 . S
C884 C880 1.332 . S
C884 C885 1.394 . S
C884 H894 0.932 . S
C885 C881 1.308 . S
C885 C884 1.394 . S
C885 H895 0.929 . S
C886 Tb857 2.764 . S
C886 O870 1.239 . S
C886 O871 1.263 . S
C886 C880 1.504 . S
C887 O872 1.236 . S
C887 O873 1.257 . S
H888 C861 0.932 . S
H889 C862 0.930 . S
H890 C863 0.932 . S
H891 C864 0.929 . S
H892 C882 0.932 . S
H893 C883 0.930 . S
H894 C884 0.932 . S
H895 C885 0.929 . S
Tb896 C905 2.764 . S
Tb896 O906 2.325 . S
Tb896 O909 2.303 . S
Tb896 O913 2.322 . S
Tb896 O914 2.349 . S
Tb896 O917 2.415 . S
Tb896 O918 2.399 . S
Tb897 O907 2.322 . S
Tb897 O908 2.349 . S
Tb897 O910 2.415 . S
Tb897 O911 2.399 . S
Tb897 O912 2.325 . S
Tb897 O915 2.303 . S
Tb897 C926 2.764 . S
C898 O914 1.261 . S
C898 O915 1.257 . S
C899 C902 1.358 . S
C899 C903 1.332 . S
C899 C905 1.504 . S
C900 C901 1.373 . S
C900 C904 1.308 . S
C901 C900 1.373 . S
C901 C902 1.429 . S
C901 H928 0.932 . S
C902 C899 1.358 . S
C902 C901 1.429 . S
C902 H929 0.930 . S
C903 C899 1.332 . S
C903 C904 1.394 . S
C903 H930 0.932 . S
C904 C900 1.308 . S
C904 C903 1.394 . S
C904 H931 0.929 . S
C905 Tb896 2.764 . S
C905 C899 1.504 . S
C905 O917 1.239 . S
C905 O918 1.263 . S
O906 Tb896 2.325 . S
O906 C916 1.236 . S
O907 Tb897 2.322 . S
O907 C916 1.257 . S
O908 Tb897 2.349 . S
O908 C919 1.261 . S
O909 Tb896 2.303 . S
O909 C919 1.257 . S
O910 Tb897 2.415 . S
O910 C926 1.239 . S
O911 Tb897 2.399 . S
O911 C926 1.263 . S
O912 Tb897 2.325 . S
O912 C927 1.236 . S
O913 Tb896 2.322 . S
O913 C927 1.257 . S
O914 Tb896 2.349 . S
O914 C898 1.261 . S
O915 Tb897 2.303 . S
O915 C898 1.257 . S
C916 O906 1.236 . S
C916 O907 1.257 . S
O917 Tb896 2.415 . S
O917 C905 1.239 . S
O918 Tb896 2.399 . S
O918 C905 1.263 . S
C919 O908 1.261 . S
C919 O909 1.257 . S
C920 C923 1.358 . S
C920 C924 1.332 . S
C920 C926 1.504 . S
C921 C922 1.373 . S
C921 C925 1.308 . S
C922 C921 1.373 . S
C922 C923 1.429 . S
C922 H932 0.932 . S
C923 C920 1.358 . S
C923 C922 1.429 . S
C923 H933 0.930 . S
C924 C920 1.332 . S
C924 C925 1.394 . S
C924 H934 0.932 . S
C925 C921 1.308 . S
C925 C924 1.394 . S
C925 H935 0.929 . S
C926 Tb897 2.764 . S
C926 O910 1.239 . S
C926 O911 1.263 . S
C926 C920 1.504 . S
C927 O912 1.236 . S
C927 O913 1.257 . S
H928 C901 0.932 . S
H929 C902 0.930 . S
H930 C903 0.932 . S
H931 C904 0.929 . S
H932 C922 0.932 . S
H933 C923 0.930 . S
H934 C924 0.932 . S
H935 C925 0.929 . S
Tb936 C945 2.764 1_455 S
Tb936 O946 2.325 . S
Tb936 O949 2.303 . S
Tb936 O953 2.322 . S
Tb936 O954 2.349 . S
Tb936 O957 2.415 1_455 S
Tb936 O958 2.399 1_455 S
Tb937 O947 2.322 . S
Tb937 O948 2.349 1_554 S
Tb937 O950 2.415 . S
Tb937 O951 2.398 . S
Tb937 O952 2.325 . S
Tb937 O955 2.303 . S
Tb937 C966 2.764 . S
C938 O954 1.261 . S
C938 O955 1.257 . S
C939 C942 1.358 . S
C939 C943 1.332 . S
C939 C945 1.504 . S
C940 C941 1.373 . S
C940 C944 1.308 . S
C941 C940 1.373 . S
C941 C942 1.429 . S
C941 H968 0.932 . S
C942 C939 1.358 . S
C942 C941 1.429 . S
C942 H969 0.930 . S
C943 C939 1.332 . S
C943 C944 1.394 . S
C943 H970 0.932 . S
C944 C940 1.308 . S
C944 C943 1.394 . S
C944 H971 0.929 . S
C945 Tb936 2.764 1_655 S
C945 C939 1.504 . S
C945 O957 1.239 . S
C945 O958 1.263 . S
O946 Tb936 2.325 . S
O946 C956 1.236 . S
O947 Tb937 2.322 . S
O947 C956 1.257 . S
O948 Tb937 2.349 1_556 S
O948 C959 1.261 . S
O949 Tb936 2.303 . S
O949 C959 1.257 1_554 S
O950 Tb937 2.415 . S
O950 C966 1.239 . S
O951 Tb937 2.398 . S
O951 C966 1.262 . S
O952 Tb937 2.325 . S
O952 C967 1.236 . S
O953 Tb936 2.322 . S
O953 C967 1.257 . S
O954 Tb936 2.349 . S
O954 C938 1.261 . S
O955 Tb937 2.303 . S
O955 C938 1.257 . S
C956 O946 1.236 . S
C956 O947 1.257 . S
O957 Tb936 2.415 1_655 S
O957 C945 1.239 . S
O958 Tb936 2.399 1_655 S
O958 C945 1.263 . S
C959 O948 1.261 . S
C959 O949 1.257 1_556 S
C960 C963 1.358 1_554 S
C960 C964 1.332 . S
C960 C966 1.504 . S
C961 C962 1.373 1_554 S
C961 C965 1.308 . S
C962 C961 1.373 1_556 S
C962 C963 1.429 . S
C962 H972 0.932 . S
C963 C960 1.358 1_556 S
C963 C962 1.429 . S
C963 H973 0.930 . S
C964 C960 1.332 . S
C964 C965 1.394 . S
C964 H974 0.932 . S
C965 C961 1.308 . S
C965 C964 1.394 . S
C965 H975 0.929 . S
C966 Tb937 2.764 . S
C966 O950 1.239 . S
C966 O951 1.262 . S
C966 C960 1.504 . S
C967 O952 1.236 . S
C967 O953 1.257 . S
H968 C941 0.932 . S
H969 C942 0.930 . S
H970 C943 0.932 . S
H971 C944 0.929 . S
H972 C962 0.932 . S
H973 C963 0.930 . S
H974 C964 0.932 . S
H975 C965 0.929 . S
C976 C977 1.349 1_455 S
C976 C978 1.327 . S
C976 H1001 0.950 . S
C977 C976 1.349 1_655 S
C977 C993 1.349 . S
C978 C976 1.327 . S
C978 C997 1.429 . S
C978 H1002 0.950 . S
C979 C996 1.565 1_556 S
C979 C998 1.368 . S
C979 H1003 0.949 . S
H980 C984 0.949 . S
C981 C982 1.349 . S
C981 C983 1.327 . S
C981 H1004 0.950 . S
C982 C981 1.349 . S
C982 C994 1.349 1_554 S
C983 C981 1.327 . S
C983 C999 1.429 1_554 S
C983 H1005 0.950 . S
C984 H980 0.949 . S
C984 C992 1.574 . S
C984 C1000 1.368 . S
H985 C993 0.950 . S
H986 C991 0.958 . S
H987 C992 0.949 . S
H988 C994 0.950 . S
H989 C995 0.950 . S
H990 C996 0.967 . S
C991 H986 0.958 . S
C991 C993 1.342 . S
C991 C997 1.407 1_655 S
C992 C984 1.574 . S
C992 H987 0.949 . S
C992 C998 1.368 . S
C993 C977 1.349 . S
C993 H985 0.950 . S
C993 C991 1.342 . S
C994 C982 1.349 1_556 S
C994 H988 0.950 . S
C994 C995 1.327 . S
C995 H989 0.950 . S
C995 C994 1.327 . S
C995 C999 1.429 . S
C996 C979 1.565 1_554 S
C996 H990 0.967 . S
C996 C1000 1.357 1_554 S
C997 C978 1.429 . S
C997 C991 1.407 1_455 S
C997 C998 1.523 . S
C998 C979 1.368 . S
C998 C992 1.368 . S
C998 C997 1.523 . S
C999 C983 1.429 1_556 S
C999 C995 1.429 . S
C999 C1000 1.523 . S
C1000 C984 1.368 . S
C1000 C996 1.357 1_556 S
C1000 C999 1.523 . S
H1001 C976 0.950 . S
H1002 C978 0.950 . S
H1003 C979 0.949 . S
H1004 C981 0.950 . S
H1005 C983 0.950 . S
C1006 C1007 1.349 . S
C1006 C1008 1.327 . S
C1006 H1031 0.950 . S
C1007 C1006 1.349 . S
C1007 C1023 1.349 . S
C1008 C1006 1.327 . S
C1008 C1027 1.429 . S
C1008 H1032 0.950 . S
C1009 C1026 1.574 . S
C1009 C1028 1.368 . S
C1009 H1033 0.949 . S
H1010 C1014 0.949 . S
C1011 C1012 1.349 . S
C1011 C1013 1.327 . S
C1011 H1034 0.950 . S
C1012 C1011 1.349 . S
C1012 C1024 1.349 . S
C1013 C1011 1.327 . S
C1013 C1029 1.429 . S
C1013 H1035 0.950 . S
C1014 H1010 0.949 . S
C1014 C1022 1.574 . S
C1014 C1030 1.368 . S
H1015 C1023 0.950 . S
H1016 C1021 0.950 . S
H1017 C1022 0.949 . S
H1018 C1024 0.950 . S
H1019 C1025 0.950 . S
H1020 C1026 0.949 . S
C1021 H1016 0.950 . S
C1021 C1023 1.327 . S
C1021 C1027 1.429 . S
C1022 C1014 1.574 . S
C1022 H1017 0.949 . S
C1022 C1028 1.368 . S
C1023 C1007 1.349 . S
C1023 H1015 0.950 . S
C1023 C1021 1.327 . S
C1024 C1012 1.349 . S
C1024 H1018 0.950 . S
C1024 C1025 1.327 . S
C1025 H1019 0.950 . S
C1025 C1024 1.327 . S
C1025 C1029 1.429 . S
C1026 C1009 1.574 . S
C1026 H1020 0.949 . S
C1026 C1030 1.368 . S
C1027 C1008 1.429 . S
C1027 C1021 1.429 . S
C1027 C1028 1.523 . S
C1028 C1009 1.368 . S
C1028 C1022 1.368 . S
C1028 C1027 1.523 . S
C1029 C1013 1.429 . S
C1029 C1025 1.429 . S
C1029 C1030 1.523 . S
C1030 C1014 1.368 . S
C1030 C1026 1.368 . S
C1030 C1029 1.523 . S
H1031 C1006 0.950 . S
H1032 C1008 0.950 . S
H1033 C1009 0.949 . S
H1034 C1011 0.950 . S
H1035 C1013 0.950 . S
C1036 C1037 1.349 . S
C1036 C1038 1.327 . S
C1036 H1061 0.950 . S
C1037 C1036 1.349 . S
C1037 C1053 1.349 . S
C1038 C1036 1.327 . S
C1038 C1057 1.429 . S
C1038 H1062 0.950 . S
C1039 C1056 1.574 . S
C1039 C1058 1.368 . S
C1039 H1063 0.949 . S
H1040 C1044 0.949 . S
C1041 C1042 1.349 . S
C1041 C1043 1.327 . S
C1041 H1064 0.950 . S
C1042 C1041 1.349 . S
C1042 C1054 1.349 . S
C1043 C1041 1.327 . S
C1043 C1059 1.429 . S
C1043 H1065 0.950 . S
C1044 H1040 0.949 . S
C1044 C1052 1.574 . S
C1044 C1060 1.368 . S
H1045 C1053 0.950 . S
H1046 C1051 0.950 . S
H1047 C1052 0.949 . S
H1048 C1054 0.950 . S
H1049 C1055 0.950 . S
H1050 C1056 0.949 . S
C1051 H1046 0.950 . S
C1051 C1053 1.327 . S
C1051 C1057 1.429 . S
C1052 C1044 1.574 . S
C1052 H1047 0.949 . S
C1052 C1058 1.368 . S
C1053 C1037 1.349 . S
C1053 H1045 0.950 . S
C1053 C1051 1.327 . S
C1054 C1042 1.349 . S
C1054 H1048 0.950 . S
C1054 C1055 1.327 . S
C1055 H1049 0.950 . S
C1055 C1054 1.327 . S
C1055 C1059 1.429 . S
C1056 C1039 1.574 . S
C1056 H1050 0.949 . S
C1056 C1060 1.368 . S
C1057 C1038 1.429 . S
C1057 C1051 1.429 . S
C1057 C1058 1.523 . S
C1058 C1039 1.368 . S
C1058 C1052 1.368 . S
C1058 C1057 1.523 . S
C1059 C1043 1.429 . S
C1059 C1055 1.429 . S
C1059 C1060 1.523 . S
C1060 C1044 1.368 . S
C1060 C1056 1.368 . S
C1060 C1059 1.523 . S
H1061 C1036 0.950 . S
H1062 C1038 0.950 . S
H1063 C1039 0.949 . S
H1064 C1041 0.950 . S
H1065 C1043 0.950 . S
C1066 C1067 1.349 . S
C1066 C1068 1.327 . S
C1066 H1091 0.950 . S
C1067 C1066 1.349 . S
C1067 C1083 1.349 . S
C1068 C1066 1.327 . S
C1068 C1087 1.429 . S
C1068 H1092 0.950 . S
C1069 C1086 1.574 . S
C1069 C1088 1.368 . S
C1069 H1093 0.949 . S
H1070 C1074 0.949 . S
C1071 C1072 1.349 . S
C1071 C1073 1.327 . S
C1071 H1094 0.950 . S
C1072 C1071 1.349 . S
C1072 C1084 1.349 . S
C1073 C1071 1.327 . S
C1073 C1089 1.429 . S
C1073 H1095 0.950 . S
C1074 H1070 0.949 . S
C1074 C1082 1.574 . S
C1074 C1090 1.368 . S
H1075 C1083 0.950 . S
H1076 C1081 0.950 . S
H1077 C1082 0.949 . S
H1078 C1084 0.950 . S
H1079 C1085 0.950 . S
H1080 C1086 0.949 . S
C1081 H1076 0.950 . S
C1081 C1083 1.327 . S
C1081 C1087 1.429 . S
C1082 C1074 1.574 . S
C1082 H1077 0.949 . S
C1082 C1088 1.368 . S
C1083 C1067 1.349 . S
C1083 H1075 0.950 . S
C1083 C1081 1.327 . S
C1084 C1072 1.349 . S
C1084 H1078 0.950 . S
C1084 C1085 1.327 . S
C1085 H1079 0.950 . S
C1085 C1084 1.327 . S
C1085 C1089 1.429 . S
C1086 C1069 1.574 . S
C1086 H1080 0.949 . S
C1086 C1090 1.368 . S
C1087 C1068 1.429 . S
C1087 C1081 1.429 . S
C1087 C1088 1.523 . S
C1088 C1069 1.368 . S
C1088 C1082 1.368 . S
C1088 C1087 1.523 . S
C1089 C1073 1.429 . S
C1089 C1085 1.429 . S
C1089 C1090 1.523 . S
C1090 C1074 1.368 . S
C1090 C1086 1.368 . S
C1090 C1089 1.523 . S
H1091 C1066 0.950 . S
H1092 C1068 0.950 . S
H1093 C1069 0.949 . S
H1094 C1071 0.950 . S
H1095 C1073 0.950 . S
C1096 C1097 1.349 . S
C1096 C1098 1.327 . S
C1096 H1121 0.950 . S
C1097 C1096 1.349 . S
C1097 C1113 1.349 . S
C1098 C1096 1.327 . S
C1098 C1117 1.429 . S
C1098 H1122 0.950 . S
C1099 C1116 1.574 . S
C1099 C1118 1.368 . S
C1099 H1123 0.949 . S
H1100 C1104 0.949 . S
C1101 C1102 1.349 . S
C1101 C1103 1.327 . S
C1101 H1124 0.950 . S
C1102 C1101 1.349 . S
C1102 C1114 1.349 . S
C1103 C1101 1.327 . S
C1103 C1119 1.429 . S
C1103 H1125 0.950 . S
C1104 H1100 0.949 . S
C1104 C1112 1.574 . S
C1104 C1120 1.368 . S
H1105 C1113 0.950 . S
H1106 C1111 0.950 . S
H1107 C1112 0.949 . S
H1108 C1114 0.950 . S
H1109 C1115 0.950 . S
H1110 C1116 0.949 . S
C1111 H1106 0.950 . S
C1111 C1113 1.327 . S
C1111 C1117 1.429 . S
C1112 C1104 1.574 . S
C1112 H1107 0.949 . S
C1112 C1118 1.368 . S
C1113 C1097 1.349 . S
C1113 H1105 0.950 . S
C1113 C1111 1.327 . S
C1114 C1102 1.349 . S
C1114 H1108 0.950 . S
C1114 C1115 1.327 . S
C1115 H1109 0.950 . S
C1115 C1114 1.327 . S
C1115 C1119 1.429 . S
C1116 C1099 1.574 . S
C1116 H1110 0.949 . S
C1116 C1120 1.368 . S
C1117 C1098 1.429 . S
C1117 C1111 1.429 . S
C1117 C1118 1.523 . S
C1118 C1099 1.368 . S
C1118 C1112 1.368 . S
C1118 C1117 1.523 . S
C1119 C1103 1.429 . S
C1119 C1115 1.429 . S
C1119 C1120 1.523 . S
C1120 C1104 1.368 . S
C1120 C1116 1.368 . S
C1120 C1119 1.523 . S
H1121 C1096 0.950 . S
H1122 C1098 0.950 . S
H1123 C1099 0.949 . S
H1124 C1101 0.950 . S
H1125 C1103 0.950 . S
C1126 C1127 1.349 . S
C1126 C1128 1.327 . S
C1126 H1151 0.950 . S
C1127 C1126 1.349 . S
C1127 C1143 1.349 . S
C1128 C1126 1.327 . S
C1128 C1147 1.429 . S
C1128 H1152 0.950 . S
C1129 C1146 1.574 . S
C1129 C1148 1.368 . S
C1129 H1153 0.949 . S
H1130 C1134 0.949 . S
C1131 C1132 1.349 . S
C1131 C1133 1.327 . S
C1131 H1154 0.950 . S
C1132 C1131 1.349 . S
C1132 C1144 1.349 . S
C1133 C1131 1.327 . S
C1133 C1149 1.429 . S
C1133 H1155 0.950 . S
C1134 H1130 0.949 . S
C1134 C1142 1.574 . S
C1134 C1150 1.368 . S
H1135 C1143 0.950 . S
H1136 C1141 0.950 . S
H1137 C1142 0.949 . S
H1138 C1144 0.950 . S
H1139 C1145 0.950 . S
H1140 C1146 0.949 . S
C1141 H1136 0.950 . S
C1141 C1143 1.327 . S
C1141 C1147 1.429 . S
C1142 C1134 1.574 . S
C1142 H1137 0.949 . S
C1142 C1148 1.368 . S
C1143 C1127 1.349 . S
C1143 H1135 0.950 . S
C1143 C1141 1.327 . S
C1144 C1132 1.349 . S
C1144 H1138 0.950 . S
C1144 C1145 1.327 . S
C1145 H1139 0.950 . S
C1145 C1144 1.327 . S
C1145 C1149 1.429 . S
C1146 C1129 1.574 . S
C1146 H1140 0.949 . S
C1146 C1150 1.368 . S
C1147 C1128 1.429 . S
C1147 C1141 1.429 . S
C1147 C1148 1.523 . S
C1148 C1129 1.368 . S
C1148 C1142 1.368 . S
C1148 C1147 1.523 . S
C1149 C1133 1.429 . S
C1149 C1145 1.429 . S
C1149 C1150 1.523 . S
C1150 C1134 1.368 . S
C1150 C1146 1.368 . S
C1150 C1149 1.523 . S
H1151 C1126 0.950 . S
H1152 C1128 0.950 . S
H1153 C1129 0.949 . S
H1154 C1131 0.950 . S
H1155 C1133 0.950 . S
C1156 C1157 1.349 . S
C1156 C1158 1.327 . S
C1156 H1181 0.950 . S
C1157 C1156 1.349 . S
C1157 C1173 1.349 . S
C1158 C1156 1.327 . S
C1158 C1177 1.429 . S
C1158 H1182 0.950 . S
C1159 C1176 1.574 . S
C1159 C1178 1.368 . S
C1159 H1183 0.949 . S
H1160 C1164 0.949 . S
C1161 C1162 1.349 . S
C1161 C1163 1.327 . S
C1161 H1184 0.950 . S
C1162 C1161 1.349 . S
C1162 C1174 1.349 . S
C1163 C1161 1.327 . S
C1163 C1179 1.429 . S
C1163 H1185 0.950 . S
C1164 H1160 0.949 . S
C1164 C1172 1.574 . S
C1164 C1180 1.368 . S
H1165 C1173 0.950 . S
H1166 C1171 0.950 . S
H1167 C1172 0.949 . S
H1168 C1174 0.950 . S
H1169 C1175 0.950 . S
H1170 C1176 0.949 . S
C1171 H1166 0.950 . S
C1171 C1173 1.327 . S
C1171 C1177 1.429 . S
C1172 C1164 1.574 . S
C1172 H1167 0.949 . S
C1172 C1178 1.368 . S
C1173 C1157 1.349 . S
C1173 H1165 0.950 . S
C1173 C1171 1.327 . S
C1174 C1162 1.349 . S
C1174 H1168 0.950 . S
C1174 C1175 1.327 . S
C1175 H1169 0.950 . S
C1175 C1174 1.327 . S
C1175 C1179 1.429 . S
C1176 C1159 1.574 . S
C1176 H1170 0.949 . S
C1176 C1180 1.368 . S
C1177 C1158 1.429 . S
C1177 C1171 1.429 . S
C1177 C1178 1.523 . S
C1178 C1159 1.368 . S
C1178 C1172 1.368 . S
C1178 C1177 1.523 . S
C1179 C1163 1.429 . S
C1179 C1175 1.429 . S
C1179 C1180 1.523 . S
C1180 C1164 1.368 . S
C1180 C1176 1.368 . S
C1180 C1179 1.523 . S
H1181 C1156 0.950 . S
H1182 C1158 0.950 . S
H1183 C1159 0.949 . S
H1184 C1161 0.950 . S
H1185 C1163 0.950 . S
C1186 C1187 1.349 . S
C1186 C1188 1.327 . S
C1186 H1211 0.950 . S
C1187 C1186 1.349 . S
C1187 C1203 1.349 . S
C1188 C1186 1.327 . S
C1188 C1207 1.429 . S
C1188 H1212 0.950 . S
C1189 C1206 1.574 . S
C1189 C1208 1.368 . S
C1189 H1213 0.949 . S
H1190 C1194 0.949 . S
C1191 C1192 1.349 . S
C1191 C1193 1.327 . S
C1191 H1214 0.950 . S
C1192 C1191 1.349 . S
C1192 C1204 1.349 . S
C1193 C1191 1.327 . S
C1193 C1209 1.429 . S
C1193 H1215 0.950 . S
C1194 H1190 0.949 . S
C1194 C1202 1.574 . S
C1194 C1210 1.368 . S
H1195 C1203 0.950 . S
H1196 C1201 0.950 . S
H1197 C1202 0.949 . S
H1198 C1204 0.950 . S
H1199 C1205 0.950 . S
H1200 C1206 0.949 . S
C1201 H1196 0.950 . S
C1201 C1203 1.327 . S
C1201 C1207 1.429 . S
C1202 C1194 1.574 . S
C1202 H1197 0.949 . S
C1202 C1208 1.368 . S
C1203 C1187 1.349 . S
C1203 H1195 0.950 . S
C1203 C1201 1.327 . S
C1204 C1192 1.349 . S
C1204 H1198 0.950 . S
C1204 C1205 1.327 . S
C1205 H1199 0.950 . S
C1205 C1204 1.327 . S
C1205 C1209 1.429 . S
C1206 C1189 1.574 . S
C1206 H1200 0.949 . S
C1206 C1210 1.368 . S
C1207 C1188 1.429 . S
C1207 C1201 1.429 . S
C1207 C1208 1.523 . S
C1208 C1189 1.368 . S
C1208 C1202 1.368 . S
C1208 C1207 1.523 . S
C1209 C1193 1.429 . S
C1209 C1205 1.429 . S
C1209 C1210 1.523 . S
C1210 C1194 1.368 . S
C1210 C1206 1.368 . S
C1210 C1209 1.523 . S
H1211 C1186 0.950 . S
H1212 C1188 0.950 . S
H1213 C1189 0.949 . S
H1214 C1191 0.950 . S
H1215 C1193 0.950 . S
C1216 C1217 1.308 1_565 S
C1216 C1218 1.329 1_565 S
C1216 H1241 0.992 . S
C1217 C1216 1.308 1_545 S
C1217 C1233 1.349 . S
C1218 C1216 1.329 1_545 S
C1218 C1237 1.429 . S
C1218 H1242 0.950 1_545 S
C1219 C1236 1.574 . S
C1219 C1238 1.368 . S
C1219 H1243 0.949 . S
H1220 C1224 0.949 1_565 S
C1221 C1222 1.349 . S
C1221 C1223 1.327 . S
C1221 H1244 0.950 . S
C1222 C1221 1.349 . S
C1222 C1234 1.349 . S
C1223 C1221 1.327 . S
C1223 C1239 1.425 1_455 S
C1223 H1245 0.950 . S
C1224 H1220 0.949 1_545 S
C1224 C1232 1.574 . S
C1224 C1240 1.368 . S
H1225 C1233 0.950 . S
H1226 C1231 0.950 . S
H1227 C1232 0.949 1_565 S
H1228 C1234 0.950 . S
H1229 C1235 0.978 . S
H1230 C1236 0.963 . S
C1231 H1226 0.950 . S
C1231 C1233 1.327 . S
C1231 C1237 1.429 . S
C1232 C1224 1.574 . S
C1232 H1227 0.949 1_545 S
C1232 C1238 1.368 . S
C1233 C1217 1.349 . S
C1233 H1225 0.950 . S
C1233 C1231 1.327 . S
C1234 C1222 1.349 . S
C1234 H1228 0.950 . S
C1234 C1235 1.287 1_455 S
C1235 H1229 0.978 . S
C1235 C1234 1.287 1_655 S
C1235 C1239 1.443 . S
C1236 C1219 1.574 . S
C1236 H1230 0.963 . S
C1236 C1240 1.368 . S
C1237 C1218 1.429 . S
C1237 C1231 1.429 . S
C1237 C1238 1.523 . S
C1238 C1219 1.368 . S
C1238 C1232 1.368 . S
C1238 C1237 1.523 . S
C1239 C1223 1.425 1_655 S
C1239 C1235 1.443 . S
C1239 C1240 1.528 . S
C1240 C1224 1.368 . S
C1240 C1236 1.368 . S
C1240 C1239 1.528 . S
H1241 C1216 0.992 . S
H1242 C1218 0.950 1_565 S
H1243 C1219 0.949 . S
H1244 C1221 0.950 . S
H1245 C1223 0.950 . S
C1246 C1247 1.349 . S
C1246 C1248 1.327 . S
C1246 H1271 0.950 . S
C1247 C1246 1.349 . S
C1247 C1263 1.349 . S
C1248 C1246 1.327 . S
C1248 C1267 1.429 . S
C1248 H1272 0.950 . S
C1249 C1266 1.574 . S
C1249 C1268 1.368 . S
C1249 H1273 0.949 . S
H1250 C1254 0.949 . S
C1251 C1252 1.349 . S
C1251 C1253 1.327 . S
C1251 H1274 0.950 . S
C1252 C1251 1.349 . S
C1252 C1264 1.349 . S
C1253 C1251 1.327 . S
C1253 C1269 1.429 . S
C1253 H1275 0.950 . S
C1254 H1250 0.949 . S
C1254 C1262 1.574 . S
C1254 C1270 1.368 . S
H1255 C1263 0.950 . S
H1256 C1261 0.950 . S
H1257 C1262 0.949 . S
H1258 C1264 0.950 . S
H1259 C1265 0.950 . S
H1260 C1266 0.949 . S
C1261 H1256 0.950 . S
C1261 C1263 1.327 . S
C1261 C1267 1.429 . S
C1262 C1254 1.574 . S
C1262 H1257 0.949 . S
C1262 C1268 1.368 . S
C1263 C1247 1.349 . S
C1263 H1255 0.950 . S
C1263 C1261 1.327 . S
C1264 C1252 1.349 . S
C1264 H1258 0.950 . S
C1264 C1265 1.327 . S
C1265 H1259 0.950 . S
C1265 C1264 1.327 . S
C1265 C1269 1.429 . S
C1266 C1249 1.574 . S
C1266 H1260 0.949 . S
C1266 C1270 1.368 . S
C1267 C1248 1.429 . S
C1267 C1261 1.429 . S
C1267 C1268 1.523 . S
C1268 C1249 1.368 . S
C1268 C1262 1.368 . S
C1268 C1267 1.523 . S
C1269 C1253 1.429 . S
C1269 C1265 1.429 . S
C1269 C1270 1.523 . S
C1270 C1254 1.368 . S
C1270 C1266 1.368 . S
C1270 C1269 1.523 . S
H1271 C1246 0.950 . S
H1272 C1248 0.950 . S
H1273 C1249 0.949 . S
H1274 C1251 0.950 . S
H1275 C1253 0.950 . S
C1276 C1277 1.349 . S
C1276 C1278 1.327 . S
C1276 H1301 0.950 1_545 S
C1277 C1276 1.349 . S
C1277 C1293 1.349 . S
C1278 C1276 1.327 . S
C1278 C1297 1.429 . S
C1278 H1302 0.950 1_545 S
C1279 C1296 1.574 . S
C1279 C1298 1.368 . S
C1279 H1303 0.949 . S
H1280 C1284 0.949 1_565 S
C1281 C1282 1.349 . S
C1281 C1283 1.327 . S
C1281 H1304 0.950 . S
C1282 C1281 1.349 . S
C1282 C1294 1.394 . S
C1283 C1281 1.327 . S
C1283 C1299 1.429 . S
C1283 H1305 0.950 . S
C1284 H1280 0.949 1_545 S
C1284 C1292 1.574 . S
C1284 C1300 1.368 . S
H1285 C1293 0.950 . S
H1286 C1291 0.950 . S
H1287 C1292 0.949 1_565 S
H1288 C1294 0.918 1_565 S
H1289 C1295 0.950 1_565 S
H1290 C1296 0.949 . S
C1291 H1286 0.950 . S
C1291 C1293 1.327 . S
C1291 C1297 1.429 . S
C1292 C1284 1.574 . S
C1292 H1287 0.949 1_545 S
C1292 C1298 1.368 . S
C1293 C1277 1.349 . S
C1293 H1285 0.950 . S
C1293 C1291 1.327 . S
C1294 C1282 1.394 . S
C1294 H1288 0.918 1_545 S
C1294 C1295 1.316 . S
C1295 H1289 0.950 1_545 S
C1295 C1294 1.316 . S
C1295 C1299 1.429 . S
C1296 C1279 1.574 . S
C1296 H1290 0.949 . S
C1296 C1300 1.368 . S
C1297 C1278 1.429 . S
C1297 C1291 1.429 . S
C1297 C1298 1.523 . S
C1298 C1279 1.368 . S
C1298 C1292 1.368 . S
C1298 C1297 1.523 . S
C1299 C1283 1.429 . S
C1299 C1295 1.429 . S
C1299 C1300 1.523 . S
C1300 C1284 1.368 . S
C1300 C1296 1.368 . S
C1300 C1299 1.523 . S
H1301 C1276 0.950 1_565 S
H1302 C1278 0.950 1_565 S
H1303 C1279 0.949 . S
H1304 C1281 0.950 . S
H1305 C1283 0.950 . S
C1306 C1307 1.349 . S
C1306 C1308 1.327 . S
C1306 H1331 0.950 . S
C1307 C1306 1.349 . S
C1307 C1323 1.349 . S
C1308 C1306 1.327 . S
C1308 C1327 1.429 . S
C1308 H1332 0.950 . S
C1309 C1326 1.574 . S
C1309 C1328 1.368 . S
C1309 H1333 0.949 . S
H1310 C1314 0.949 . S
C1311 C1312 1.349 . S
C1311 C1313 1.327 . S
C1311 H1334 0.950 . S
C1312 C1311 1.349 . S
C1312 C1324 1.349 . S
C1313 C1311 1.327 . S
C1313 C1329 1.429 . S
C1313 H1335 0.950 . S
C1314 H1310 0.949 . S
C1314 C1322 1.574 . S
C1314 C1330 1.368 . S
H1315 C1323 0.950 . S
H1316 C1321 0.950 . S
H1317 C1322 0.949 . S
H1318 C1324 0.950 . S
H1319 C1325 0.950 . S
H1320 C1326 0.949 . S
C1321 H1316 0.950 . S
C1321 C1323 1.327 . S
C1321 C1327 1.429 . S
C1322 C1314 1.574 . S
C1322 H1317 0.949 . S
C1322 C1328 1.368 . S
C1323 C1307 1.349 . S
C1323 H1315 0.950 . S
C1323 C1321 1.327 . S
C1324 C1312 1.349 . S
C1324 H1318 0.950 . S
C1324 C1325 1.327 . S
C1325 H1319 0.950 . S
C1325 C1324 1.327 . S
C1325 C1329 1.429 . S
C1326 C1309 1.574 . S
C1326 H1320 0.949 . S
C1326 C1330 1.368 . S
C1327 C1308 1.429 . S
C1327 C1321 1.429 . S
C1327 C1328 1.523 . S
C1328 C1309 1.368 . S
C1328 C1322 1.368 . S
C1328 C1327 1.523 . S
C1329 C1313 1.429 . S
C1329 C1325 1.429 . S
C1329 C1330 1.523 . S
C1330 C1314 1.368 . S
C1330 C1326 1.368 . S
C1330 C1329 1.523 . S
H1331 C1306 0.950 . S
H1332 C1308 0.950 . S
H1333 C1309 0.949 . S
H1334 C1311 0.950 . S
H1335 C1313 0.950 . S
C1336 C1337 1.349 . S
C1336 C1338 1.327 . S
C1336 H1361 0.950 1_545 S
C1337 C1336 1.349 . S
C1337 C1353 1.349 . S
C1338 C1336 1.327 . S
C1338 C1357 1.429 . S
C1338 H1362 0.950 1_545 S
C1339 C1356 1.574 . S
C1339 C1358 1.368 . S
C1339 H1363 0.949 . S
H1340 C1344 0.949 1_565 S
C1341 C1342 1.349 1_655 S
C1341 C1343 1.327 . S
C1341 H1364 0.950 . S
C1342 C1341 1.349 1_455 S
C1342 C1354 1.363 . S
C1343 C1341 1.327 . S
C1343 C1359 1.429 . S
C1343 H1365 0.950 . S
C1344 H1340 0.949 1_545 S
C1344 C1352 1.574 . S
C1344 C1360 1.368 . S
H1345 C1353 0.950 . S
H1346 C1351 0.950 . S
H1347 C1352 0.949 1_565 S
H1348 C1354 0.930 1_565 S
H1349 C1355 0.923 1_465 S
H1350 C1356 0.949 . S
C1351 H1346 0.950 . S
C1351 C1353 1.327 . S
C1351 C1357 1.429 . S
C1352 C1344 1.574 . S
C1352 H1347 0.949 1_545 S
C1352 C1358 1.368 . S
C1353 C1337 1.349 . S
C1353 H1345 0.950 . S
C1353 C1351 1.327 . S
C1354 C1342 1.363 . S
C1354 H1348 0.930 1_545 S
C1354 C1355 1.322 1_455 S
C1355 H1349 0.923 1_645 S
C1355 C1354 1.322 1_655 S
C1355 C1359 1.467 . S
C1356 C1339 1.574 . S
C1356 H1350 0.949 . S
C1356 C1360 1.368 . S
C1357 C1338 1.429 . S
C1357 C1351 1.429 . S
C1357 C1358 1.523 . S
C1358 C1339 1.368 . S
C1358 C1352 1.368 . S
C1358 C1357 1.523 . S
C1359 C1343 1.429 . S
C1359 C1355 1.467 . S
C1359 C1360 1.523 . S
C1360 C1344 1.368 . S
C1360 C1356 1.368 . S
C1360 C1359 1.523 . S
H1361 C1336 0.950 1_565 S
H1362 C1338 0.950 1_565 S
H1363 C1339 0.949 . S
H1364 C1341 0.950 . S
H1365 C1343 0.950 . S
C1366 C1367 1.349 . S
C1366 C1368 1.327 . S
C1366 H1391 0.950 . S
C1367 C1366 1.349 . S
C1367 C1383 1.349 . S
C1368 C1366 1.327 . S
C1368 C1387 1.429 . S
C1368 H1392 0.950 . S
C1369 C1386 1.574 . S
C1369 C1388 1.368 . S
C1369 H1393 0.949 . S
H1370 C1374 0.949 . S
C1371 C1372 1.349 . S
C1371 C1373 1.327 . S
C1371 H1394 0.950 . S
C1372 C1371 1.349 . S
C1372 C1384 1.349 . S
C1373 C1371 1.327 . S
C1373 C1389 1.429 . S
C1373 H1395 0.950 . S
C1374 H1370 0.949 . S
C1374 C1382 1.574 . S
C1374 C1390 1.368 . S
H1375 C1383 0.950 . S
H1376 C1381 0.950 . S
H1377 C1382 0.949 . S
H1378 C1384 0.950 . S
H1379 C1385 0.950 . S
H1380 C1386 0.949 . S
C1381 H1376 0.950 . S
C1381 C1383 1.327 . S
C1381 C1387 1.429 . S
C1382 C1374 1.574 . S
C1382 H1377 0.949 . S
C1382 C1388 1.368 . S
C1383 C1367 1.349 . S
C1383 H1375 0.950 . S
C1383 C1381 1.327 . S
C1384 C1372 1.349 . S
C1384 H1378 0.950 . S
C1384 C1385 1.327 . S
C1385 H1379 0.950 . S
C1385 C1384 1.327 . S
C1385 C1389 1.429 . S
C1386 C1369 1.574 . S
C1386 H1380 0.949 . S
C1386 C1390 1.368 . S
C1387 C1368 1.429 . S
C1387 C1381 1.429 . S
C1387 C1388 1.523 . S
C1388 C1369 1.368 . S
C1388 C1382 1.368 . S
C1388 C1387 1.523 . S
C1389 C1373 1.429 . S
C1389 C1385 1.429 . S
C1389 C1390 1.523 . S
C1390 C1374 1.368 . S
C1390 C1386 1.368 . S
C1390 C1389 1.523 . S
H1391 C1366 0.950 . S
H1392 C1368 0.950 . S
H1393 C1369 0.949 . S
H1394 C1371 0.950 . S
H1395 C1373 0.950 . S
C1396 C1397 1.349 . S
C1396 C1398 1.327 . S
C1396 H1421 0.950 . S
C1397 C1396 1.349 . S
C1397 C1413 1.349 . S
C1398 C1396 1.327 . S
C1398 C1417 1.429 . S
C1398 H1422 0.950 . S
C1399 C1416 1.574 . S
C1399 C1418 1.368 . S
C1399 H1423 0.949 . S
H1400 C1404 0.949 . S
C1401 C1402 1.349 . S
C1401 C1403 1.327 . S
C1401 H1424 0.950 . S
C1402 C1401 1.349 . S
C1402 C1414 1.349 . S
C1403 C1401 1.327 . S
C1403 C1419 1.429 . S
C1403 H1425 0.950 . S
C1404 H1400 0.949 . S
C1404 C1412 1.574 . S
C1404 C1420 1.368 . S
H1405 C1413 0.950 . S
H1406 C1411 0.950 . S
H1407 C1412 0.949 . S
H1408 C1414 0.950 . S
H1409 C1415 0.950 . S
H1410 C1416 0.949 . S
C1411 H1406 0.950 . S
C1411 C1413 1.327 . S
C1411 C1417 1.429 . S
C1412 C1404 1.574 . S
C1412 H1407 0.949 . S
C1412 C1418 1.368 . S
C1413 C1397 1.349 . S
C1413 H1405 0.950 . S
C1413 C1411 1.327 . S
C1414 C1402 1.349 . S
C1414 H1408 0.950 . S
C1414 C1415 1.327 . S
C1415 H1409 0.950 . S
C1415 C1414 1.327 . S
C1415 C1419 1.429 . S
C1416 C1399 1.574 . S
C1416 H1410 0.949 . S
C1416 C1420 1.368 . S
C1417 C1398 1.429 . S
C1417 C1411 1.429 . S
C1417 C1418 1.523 . S
C1418 C1399 1.368 . S
C1418 C1412 1.368 . S
C1418 C1417 1.523 . S
C1419 C1403 1.429 . S
C1419 C1415 1.429 . S
C1419 C1420 1.523 . S
C1420 C1404 1.368 . S
C1420 C1416 1.368 . S
C1420 C1419 1.523 . S
H1421 C1396 0.950 . S
H1422 C1398 0.950 . S
H1423 C1399 0.949 . S
H1424 C1401 0.950 . S
H1425 C1403 0.950 . S
C1426 C1427 1.349 . S
C1426 C1428 1.327 . S
C1426 H1451 0.950 . S
C1427 C1426 1.349 . S
C1427 C1443 1.349 . S
C1428 C1426 1.327 . S
C1428 C1447 1.429 . S
C1428 H1452 0.950 . S
C1429 C1446 1.574 . S
C1429 C1448 1.368 . S
C1429 H1453 0.949 . S
H1430 C1434 0.949 . S
C1431 C1432 1.349 . S
C1431 C1433 1.327 . S
C1431 H1454 0.950 . S
C1432 C1431 1.349 . S
C1432 C1444 1.349 . S
C1433 C1431 1.327 . S
C1433 C1449 1.429 . S
C1433 H1455 0.950 . S
C1434 H1430 0.949 . S
C1434 C1442 1.574 . S
C1434 C1450 1.368 . S
H1435 C1443 0.950 . S
H1436 C1441 0.950 . S
H1437 C1442 0.949 . S
H1438 C1444 0.950 . S
H1439 C1445 0.950 . S
H1440 C1446 0.949 . S
C1441 H1436 0.950 . S
C1441 C1443 1.327 . S
C1441 C1447 1.429 . S
C1442 C1434 1.574 . S
C1442 H1437 0.949 . S
C1442 C1448 1.368 . S
C1443 C1427 1.349 . S
C1443 H1435 0.950 . S
C1443 C1441 1.327 . S
C1444 C1432 1.349 . S
C1444 H1438 0.950 . S
C1444 C1445 1.327 . S
C1445 H1439 0.950 . S
C1445 C1444 1.327 . S
C1445 C1449 1.429 . S
C1446 C1429 1.574 . S
C1446 H1440 0.949 . S
C1446 C1450 1.368 . S
C1447 C1428 1.429 . S
C1447 C1441 1.429 . S
C1447 C1448 1.523 . S
C1448 C1429 1.368 . S
C1448 C1442 1.368 . S
C1448 C1447 1.523 . S
C1449 C1433 1.429 . S
C1449 C1445 1.429 . S
C1449 C1450 1.523 . S
C1450 C1434 1.368 . S
C1450 C1446 1.368 . S
C1450 C1449 1.523 . S
H1451 C1426 0.950 . S
H1452 C1428 0.950 . S
H1453 C1429 0.949 . S
H1454 C1431 0.950 . S
H1455 C1433 0.950 . S
C1456 C1457 1.349 . S
C1456 C1458 1.327 . S
C1456 H1481 0.950 . S
C1457 C1456 1.349 . S
C1457 C1473 1.349 1_554 S
C1458 C1456 1.327 . S
C1458 C1477 1.429 . S
C1458 H1482 0.950 . S
C1459 C1476 1.574 . S
C1459 C1478 1.368 . S
C1459 H1483 0.949 . S
H1460 C1464 0.959 . S
C1461 C1462 1.349 1_565 S
C1461 C1463 1.327 . S
C1461 H1484 0.950 . S
C1462 C1461 1.349 1_545 S
C1462 C1474 1.349 . S
C1463 C1461 1.327 . S
C1463 C1479 1.429 . S
C1463 H1485 0.950 . S
C1464 H1460 0.959 . S
C1464 C1472 1.574 . S
C1464 C1480 1.368 . S
H1465 C1473 0.950 . S
H1466 C1471 0.950 1_556 S
H1467 C1472 0.949 . S
H1468 C1474 0.950 . S
H1469 C1475 0.950 . S
H1470 C1476 0.949 . S
C1471 H1466 0.950 1_554 S
C1471 C1473 1.327 1_554 S
C1471 C1477 1.429 . S
C1472 C1464 1.574 . S
C1472 H1467 0.949 . S
C1472 C1478 1.368 . S
C1473 C1457 1.349 1_556 S
C1473 H1465 0.950 . S
C1473 C1471 1.327 1_556 S
C1474 C1462 1.349 . S
C1474 H1468 0.950 . S
C1474 C1475 1.327 . S
C1475 H1469 0.950 . S
C1475 C1474 1.327 . S
C1475 C1479 1.429 1_545 S
C1476 C1459 1.574 . S
C1476 H1470 0.949 . S
C1476 C1480 1.368 . S
C1477 C1458 1.429 . S
C1477 C1471 1.429 . S
C1477 C1478 1.523 . S
C1478 C1459 1.368 . S
C1478 C1472 1.368 . S
C1478 C1477 1.523 . S
C1479 C1463 1.429 . S
C1479 C1475 1.429 1_565 S
C1479 C1480 1.523 . S
C1480 C1464 1.368 . S
C1480 C1476 1.368 . S
C1480 C1479 1.523 . S
H1481 C1456 0.950 . S
H1482 C1458 0.950 . S
H1483 C1459 0.949 . S
H1484 C1461 0.950 . S
H1485 C1463 0.950 . S
C1486 C1487 1.349 . S
C1486 C1488 1.327 . S
C1486 H1511 0.950 . S
C1487 C1486 1.349 . S
C1487 C1503 1.349 . S
C1488 C1486 1.327 . S
C1488 C1507 1.429 . S
C1488 H1512 0.950 . S
C1489 C1506 1.574 . S
C1489 C1508 1.368 . S
C1489 H1513 0.949 . S
H1490 C1494 0.949 . S
C1491 C1492 1.349 . S
C1491 C1493 1.327 . S
C1491 H1514 0.950 . S
C1492 C1491 1.349 . S
C1492 C1504 1.349 . S
C1493 C1491 1.327 . S
C1493 C1509 1.429 . S
C1493 H1515 0.950 . S
C1494 H1490 0.949 . S
C1494 C1502 1.574 . S
C1494 C1510 1.368 . S
H1495 C1503 0.950 . S
H1496 C1501 0.950 . S
H1497 C1502 0.949 . S
H1498 C1504 0.950 . S
H1499 C1505 0.950 . S
H1500 C1506 0.949 . S
C1501 H1496 0.950 . S
C1501 C1503 1.327 . S
C1501 C1507 1.429 . S
C1502 C1494 1.574 . S
C1502 H1497 0.949 . S
C1502 C1508 1.368 . S
C1503 C1487 1.349 . S
C1503 H1495 0.950 . S
C1503 C1501 1.327 . S
C1504 C1492 1.349 . S
C1504 H1498 0.950 . S
C1504 C1505 1.327 . S
C1505 H1499 0.950 . S
C1505 C1504 1.327 . S
C1505 C1509 1.429 . S
C1506 C1489 1.574 . S
C1506 H1500 0.949 . S
C1506 C1510 1.368 . S
C1507 C1488 1.429 . S
C1507 C1501 1.429 . S
C1507 C1508 1.523 . S
C1508 C1489 1.368 . S
C1508 C1502 1.368 . S
C1508 C1507 1.523 . S
C1509 C1493 1.429 . S
C1509 C1505 1.429 . S
C1509 C1510 1.523 . S
C1510 C1494 1.368 . S
C1510 C1506 1.368 . S
C1510 C1509 1.523 . S
H1511 C1486 0.950 . S
H1512 C1488 0.950 . S
H1513 C1489 0.949 . S
H1514 C1491 0.950 . S
H1515 C1493 0.950 . S
C1516 C1517 1.349 . S
C1516 C1518 1.327 . S
C1516 H1541 0.950 . S
C1517 C1516 1.349 . S
C1517 C1533 1.349 . S
C1518 C1516 1.327 . S
C1518 C1537 1.429 . S
C1518 H1542 0.950 . S
C1519 C1536 1.574 . S
C1519 C1538 1.368 . S
C1519 H1543 0.949 . S
H1520 C1524 0.949 . S
C1521 C1522 1.349 . S
C1521 C1523 1.327 . S
C1521 H1544 0.950 . S
C1522 C1521 1.349 . S
C1522 C1534 1.349 . S
C1523 C1521 1.327 . S
C1523 C1539 1.429 . S
C1523 H1545 0.950 . S
C1524 H1520 0.949 . S
C1524 C1532 1.574 . S
C1524 C1540 1.368 . S
H1525 C1533 0.950 . S
H1526 C1531 0.950 . S
H1527 C1532 0.949 . S
H1528 C1534 0.950 . S
H1529 C1535 0.950 . S
H1530 C1536 0.949 . S
C1531 H1526 0.950 . S
C1531 C1533 1.327 . S
C1531 C1537 1.429 . S
C1532 C1524 1.574 . S
C1532 H1527 0.949 . S
C1532 C1538 1.368 . S
C1533 C1517 1.349 . S
C1533 H1525 0.950 . S
C1533 C1531 1.327 . S
C1534 C1522 1.349 . S
C1534 H1528 0.950 . S
C1534 C1535 1.327 . S
C1535 H1529 0.950 . S
C1535 C1534 1.327 . S
C1535 C1539 1.429 . S
C1536 C1519 1.574 . S
C1536 H1530 0.949 . S
C1536 C1540 1.368 . S
C1537 C1518 1.429 . S
C1537 C1531 1.429 . S
C1537 C1538 1.523 . S
C1538 C1519 1.368 . S
C1538 C1532 1.368 . S
C1538 C1537 1.523 . S
C1539 C1523 1.429 . S
C1539 C1535 1.429 . S
C1539 C1540 1.523 . S
C1540 C1524 1.368 . S
C1540 C1536 1.368 . S
C1540 C1539 1.523 . S
H1541 C1516 0.950 . S
H1542 C1518 0.950 . S
H1543 C1519 0.949 . S
H1544 C1521 0.950 . S
H1545 C1523 0.950 . S
C1546 C1547 1.349 . S
C1546 C1548 1.327 . S
C1546 H1571 0.950 . S
C1547 C1546 1.349 . S
C1547 C1563 1.349 . S
C1548 C1546 1.327 . S
C1548 C1567 1.429 . S
C1548 H1572 0.950 . S
C1549 C1566 1.574 . S
C1549 C1568 1.368 . S
C1549 H1573 0.949 . S
H1550 C1554 0.949 . S
C1551 C1552 1.349 . S
C1551 C1553 1.327 . S
C1551 H1574 0.950 . S
C1552 C1551 1.349 . S
C1552 C1564 1.349 . S
C1553 C1551 1.327 . S
C1553 C1569 1.429 . S
C1553 H1575 0.950 . S
C1554 H1550 0.949 . S
C1554 C1562 1.574 . S
C1554 C1570 1.368 . S
H1555 C1563 0.950 . S
H1556 C1561 0.950 . S
H1557 C1562 0.949 . S
H1558 C1564 0.950 . S
H1559 C1565 0.950 . S
H1560 C1566 0.949 . S
C1561 H1556 0.950 . S
C1561 C1563 1.327 . S
C1561 C1567 1.429 . S
C1562 C1554 1.574 . S
C1562 H1557 0.949 . S
C1562 C1568 1.368 . S
C1563 C1547 1.349 . S
C1563 H1555 0.950 . S
C1563 C1561 1.327 . S
C1564 C1552 1.349 . S
C1564 H1558 0.950 . S
C1564 C1565 1.327 . S
C1565 H1559 0.950 . S
C1565 C1564 1.327 . S
C1565 C1569 1.429 . S
C1566 C1549 1.574 . S
C1566 H1560 0.949 . S
C1566 C1570 1.368 . S
C1567 C1548 1.429 . S
C1567 C1561 1.429 . S
C1567 C1568 1.523 . S
C1568 C1549 1.368 . S
C1568 C1562 1.368 . S
C1568 C1567 1.523 . S
C1569 C1553 1.429 . S
C1569 C1565 1.429 . S
C1569 C1570 1.523 . S
C1570 C1554 1.368 . S
C1570 C1566 1.368 . S
C1570 C1569 1.523 . S
H1571 C1546 0.950 . S
H1572 C1548 0.950 . S
H1573 C1549 0.949 . S
H1574 C1551 0.950 . S
H1575 C1553 0.950 . S
C1576 C1577 1.349 . S
C1576 C1578 1.327 . S
C1576 H1601 0.950 . S
C1577 C1576 1.349 . S
C1577 C1593 1.349 . S
C1578 C1576 1.327 . S
C1578 C1597 1.429 . S
C1578 H1602 0.950 . S
C1579 C1596 1.574 . S
C1579 C1598 1.368 . S
C1579 H1603 0.949 . S
H1580 C1584 0.949 . S
C1581 C1582 1.349 . S
C1581 C1583 1.327 . S
C1581 H1604 0.950 . S
C1582 C1581 1.349 . S
C1582 C1594 1.349 . S
C1583 C1581 1.327 . S
C1583 C1599 1.429 . S
C1583 H1605 0.950 . S
C1584 H1580 0.949 . S
C1584 C1592 1.574 . S
C1584 C1600 1.368 . S
H1585 C1593 0.950 . S
H1586 C1591 0.950 . S
H1587 C1592 0.949 . S
H1588 C1594 0.950 . S
H1589 C1595 0.950 . S
H1590 C1596 0.949 . S
C1591 H1586 0.950 . S
C1591 C1593 1.327 . S
C1591 C1597 1.429 . S
C1592 C1584 1.574 . S
C1592 H1587 0.949 . S
C1592 C1598 1.368 . S
C1593 C1577 1.349 . S
C1593 H1585 0.950 . S
C1593 C1591 1.327 . S
C1594 C1582 1.349 . S
C1594 H1588 0.950 . S
C1594 C1595 1.327 . S
C1595 H1589 0.950 . S
C1595 C1594 1.327 . S
C1595 C1599 1.429 . S
C1596 C1579 1.574 . S
C1596 H1590 0.949 . S
C1596 C1600 1.368 . S
C1597 C1578 1.429 . S
C1597 C1591 1.429 . S
C1597 C1598 1.523 . S
C1598 C1579 1.368 . S
C1598 C1592 1.368 . S
C1598 C1597 1.523 . S
C1599 C1583 1.429 . S
C1599 C1595 1.429 . S
C1599 C1600 1.523 . S
C1600 C1584 1.368 . S
C1600 C1596 1.368 . S
C1600 C1599 1.523 . S
H1601 C1576 0.950 . S
H1602 C1578 0.950 . S
H1603 C1579 0.949 . S
H1604 C1581 0.950 . S
H1605 C1583 0.950 . S
C1606 C1607 1.349 . S
C1606 C1608 1.327 . S
C1606 H1631 0.950 . S
C1607 C1606 1.349 . S
C1607 C1623 1.349 . S
C1608 C1606 1.327 . S
C1608 C1627 1.429 . S
C1608 H1632 0.950 . S
C1609 C1626 1.574 . S
C1609 C1628 1.368 . S
C1609 H1633 0.949 . S
H1610 C1614 0.949 . S
C1611 C1612 1.349 . S
C1611 C1613 1.327 . S
C1611 H1634 0.950 . S
C1612 C1611 1.349 . S
C1612 C1624 1.349 . S
C1613 C1611 1.327 . S
C1613 C1629 1.429 . S
C1613 H1635 0.950 . S
C1614 H1610 0.949 . S
C1614 C1622 1.574 . S
C1614 C1630 1.368 . S
H1615 C1623 0.950 . S
H1616 C1621 0.950 . S
H1617 C1622 0.949 . S
H1618 C1624 0.950 . S
H1619 C1625 0.950 . S
H1620 C1626 0.949 . S
C1621 H1616 0.950 . S
C1621 C1623 1.327 . S
C1621 C1627 1.429 . S
C1622 C1614 1.574 . S
C1622 H1617 0.949 . S
C1622 C1628 1.368 . S
C1623 C1607 1.349 . S
C1623 H1615 0.950 . S
C1623 C1621 1.327 . S
C1624 C1612 1.349 . S
C1624 H1618 0.950 . S
C1624 C1625 1.327 . S
C1625 H1619 0.950 . S
C1625 C1624 1.327 . S
C1625 C1629 1.429 . S
C1626 C1609 1.574 . S
C1626 H1620 0.949 . S
C1626 C1630 1.368 . S
C1627 C1608 1.429 . S
C1627 C1621 1.429 . S
C1627 C1628 1.523 . S
C1628 C1609 1.368 . S
C1628 C1622 1.368 . S
C1628 C1627 1.523 . S
C1629 C1613 1.429 . S
C1629 C1625 1.429 . S
C1629 C1630 1.523 . S
C1630 C1614 1.368 . S
C1630 C1626 1.368 . S
C1630 C1629 1.523 . S
H1631 C1606 0.950 . S
H1632 C1608 0.950 . S
H1633 C1609 0.949 . S
H1634 C1611 0.950 . S
H1635 C1613 0.950 . S
C1636 C1637 1.349 . S
C1636 C1638 1.327 . S
C1636 H1661 0.950 . S
C1637 C1636 1.349 . S
C1637 C1653 1.349 . S
C1638 C1636 1.327 . S
C1638 C1657 1.429 . S
C1638 H1662 0.950 . S
C1639 C1656 1.574 . S
C1639 C1658 1.368 . S
C1639 H1663 0.949 . S
H1640 C1644 0.949 . S
C1641 C1642 1.349 . S
C1641 C1643 1.327 . S
C1641 H1664 0.950 . S
C1642 C1641 1.349 . S
C1642 C1654 1.349 . S
C1643 C1641 1.327 . S
C1643 C1659 1.429 . S
C1643 H1665 0.950 . S
C1644 H1640 0.949 . S
C1644 C1652 1.574 . S
C1644 C1660 1.368 . S
H1645 C1653 0.950 . S
H1646 C1651 0.950 . S
H1647 C1652 0.949 . S
H1648 C1654 0.950 . S
H1649 C1655 0.950 . S
H1650 C1656 0.949 . S
C1651 H1646 0.950 . S
C1651 C1653 1.327 . S
C1651 C1657 1.429 . S
C1652 C1644 1.574 . S
C1652 H1647 0.949 . S
C1652 C1658 1.368 . S
C1653 C1637 1.349 . S
C1653 H1645 0.950 . S
C1653 C1651 1.327 . S
C1654 C1642 1.349 . S
C1654 H1648 0.950 . S
C1654 C1655 1.327 . S
C1655 H1649 0.950 . S
C1655 C1654 1.327 . S
C1655 C1659 1.429 . S
C1656 C1639 1.574 . S
C1656 H1650 0.949 . S
C1656 C1660 1.368 . S
C1657 C1638 1.429 . S
C1657 C1651 1.429 . S
C1657 C1658 1.523 . S
C1658 C1639 1.368 . S
C1658 C1652 1.368 . S
C1658 C1657 1.523 . S
C1659 C1643 1.429 . S
C1659 C1655 1.429 . S
C1659 C1660 1.523 . S
C1660 C1644 1.368 . S
C1660 C1656 1.368 . S
C1660 C1659 1.523 . S
H1661 C1636 0.950 . S
H1662 C1638 0.950 . S
H1663 C1639 0.949 . S
H1664 C1641 0.950 . S
H1665 C1643 0.950 . S
C1666 C1667 1.349 . S
C1666 C1668 1.327 . S
C1666 H1691 0.950 . S
C1667 C1666 1.349 . S
C1667 C1683 1.349 . S
C1668 C1666 1.327 . S
C1668 C1687 1.429 . S
C1668 H1692 0.950 . S
C1669 C1686 1.574 . S
C1669 C1688 1.368 . S
C1669 H1693 0.949 . S
H1670 C1674 0.949 . S
C1671 C1672 1.349 . S
C1671 C1673 1.327 . S
C1671 H1694 0.950 . S
C1672 C1671 1.349 . S
C1672 C1684 1.349 . S
C1673 C1671 1.327 . S
C1673 C1689 1.429 . S
C1673 H1695 0.950 . S
C1674 H1670 0.949 . S
C1674 C1682 1.574 . S
C1674 C1690 1.368 . S
H1675 C1683 0.950 . S
H1676 C1681 0.950 . S
H1677 C1682 0.949 . S
H1678 C1684 0.950 . S
H1679 C1685 0.950 . S
H1680 C1686 0.949 . S
C1681 H1676 0.950 . S
C1681 C1683 1.327 . S
C1681 C1687 1.429 . S
C1682 C1674 1.574 . S
C1682 H1677 0.949 . S
C1682 C1688 1.368 . S
C1683 C1667 1.349 . S
C1683 H1675 0.950 . S
C1683 C1681 1.327 . S
C1684 C1672 1.349 . S
C1684 H1678 0.950 . S
C1684 C1685 1.327 . S
C1685 H1679 0.950 . S
C1685 C1684 1.327 . S
C1685 C1689 1.429 . S
C1686 C1669 1.574 . S
C1686 H1680 0.949 . S
C1686 C1690 1.368 . S
C1687 C1668 1.429 . S
C1687 C1681 1.429 . S
C1687 C1688 1.523 . S
C1688 C1669 1.368 . S
C1688 C1682 1.368 . S
C1688 C1687 1.523 . S
C1689 C1673 1.429 . S
C1689 C1685 1.429 . S
C1689 C1690 1.523 . S
C1690 C1674 1.368 . S
C1690 C1686 1.368 . S
C1690 C1689 1.523 . S
H1691 C1666 0.950 . S
H1692 C1668 0.950 . S
H1693 C1669 0.949 . S
H1694 C1671 0.950 . S
H1695 C1673 0.950 . S
C1696 C1697 1.349 . S
C1696 C1698 1.327 . S
C1696 H1721 0.950 . S
C1697 C1696 1.349 . S
C1697 C1713 1.349 . S
C1698 C1696 1.327 . S
C1698 C1717 1.429 . S
C1698 H1722 0.950 . S
C1699 C1716 1.574 . S
C1699 C1718 1.368 . S
C1699 H1723 0.949 . S
H1700 C1704 0.949 . S
C1701 C1702 1.349 . S
C1701 C1703 1.327 . S
C1701 H1724 0.950 . S
C1702 C1701 1.349 . S
C1702 C1714 1.349 . S
C1703 C1701 1.327 . S
C1703 C1719 1.429 . S
C1703 H1725 0.950 . S
C1704 H1700 0.949 . S
C1704 C1712 1.574 . S
C1704 C1720 1.368 . S
H1705 C1713 0.950 . S
H1706 C1711 0.950 . S
H1707 C1712 0.949 . S
H1708 C1714 0.950 . S
H1709 C1715 0.950 . S
H1710 C1716 0.949 . S
C1711 H1706 0.950 . S
C1711 C1713 1.327 . S
C1711 C1717 1.429 . S
C1712 C1704 1.574 . S
C1712 H1707 0.949 . S
C1712 C1718 1.368 . S
C1713 C1697 1.349 . S
C1713 H1705 0.950 . S
C1713 C1711 1.327 . S
C1714 C1702 1.349 . S
C1714 H1708 0.950 . S
C1714 C1715 1.327 . S
C1715 H1709 0.950 . S
C1715 C1714 1.327 . S
C1715 C1719 1.429 . S
C1716 C1699 1.574 . S
C1716 H1710 0.949 . S
C1716 C1720 1.368 . S
C1717 C1698 1.429 . S
C1717 C1711 1.429 . S
C1717 C1718 1.523 . S
C1718 C1699 1.368 . S
C1718 C1712 1.368 . S
C1718 C1717 1.523 . S
C1719 C1703 1.429 . S
C1719 C1715 1.429 . S
C1719 C1720 1.523 . S
C1720 C1704 1.368 . S
C1720 C1716 1.368 . S
C1720 C1719 1.523 . S
H1721 C1696 0.950 . S
H1722 C1698 0.950 . S
H1723 C1699 0.949 . S
H1724 C1701 0.950 . S
H1725 C1703 0.950 . S
C1726 C1727 1.349 . S
C1726 C1728 1.327 . S
C1726 H1751 0.950 . S
C1727 C1726 1.349 . S
C1727 C1743 1.349 . S
C1728 C1726 1.327 . S
C1728 C1747 1.429 . S
C1728 H1752 0.950 . S
C1729 C1746 1.574 . S
C1729 C1748 1.368 . S
C1729 H1753 0.949 . S
H1730 C1734 0.949 . S
C1731 C1732 1.349 . S
C1731 C1733 1.327 . S
C1731 H1754 0.950 . S
C1732 C1731 1.349 . S
C1732 C1744 1.349 . S
C1733 C1731 1.327 . S
C1733 C1749 1.429 . S
C1733 H1755 0.950 . S
C1734 H1730 0.949 . S
C1734 C1742 1.574 . S
C1734 C1750 1.368 . S
H1735 C1743 0.950 . S
H1736 C1741 0.950 . S
H1737 C1742 0.949 . S
H1738 C1744 0.950 . S
H1739 C1745 0.950 . S
H1740 C1746 0.949 . S
C1741 H1736 0.950 . S
C1741 C1743 1.327 . S
C1741 C1747 1.429 . S
C1742 C1734 1.574 . S
C1742 H1737 0.949 . S
C1742 C1748 1.368 . S
C1743 C1727 1.349 . S
C1743 H1735 0.950 . S
C1743 C1741 1.327 . S
C1744 C1732 1.349 . S
C1744 H1738 0.950 . S
C1744 C1745 1.327 . S
C1745 H1739 0.950 . S
C1745 C1744 1.327 . S
C1745 C1749 1.429 . S
C1746 C1729 1.574 . S
C1746 H1740 0.949 . S
C1746 C1750 1.368 . S
C1747 C1728 1.429 . S
C1747 C1741 1.429 . S
C1747 C1748 1.523 . S
C1748 C1729 1.368 . S
C1748 C1742 1.368 . S
C1748 C1747 1.523 . S
C1749 C1733 1.429 . S
C1749 C1745 1.429 . S
C1749 C1750 1.523 . S
C1750 C1734 1.368 . S
C1750 C1746 1.368 . S
C1750 C1749 1.523 . S
H1751 C1726 0.950 . S
H1752 C1728 0.950 . S
H1753 C1729 0.949 . S
H1754 C1731 0.950 . S
H1755 C1733 0.950 . S
C1756 C1757 1.349 . S
C1756 C1758 1.327 . S
C1756 H1781 0.950 . S
C1757 C1756 1.349 . S
C1757 C1773 1.349 . S
C1758 C1756 1.327 . S
C1758 C1777 1.429 . S
C1758 H1782 0.950 . S
C1759 C1776 1.574 . S
C1759 C1778 1.368 . S
C1759 H1783 0.949 . S
H1760 C1764 0.949 . S
C1761 C1762 1.349 . S
C1761 C1763 1.327 . S
C1761 H1784 0.950 . S
C1762 C1761 1.349 . S
C1762 C1774 1.349 . S
C1763 C1761 1.327 . S
C1763 C1779 1.429 . S
C1763 H1785 0.950 . S
C1764 H1760 0.949 . S
C1764 C1772 1.574 . S
C1764 C1780 1.368 . S
H1765 C1773 0.950 . S
H1766 C1771 0.950 . S
H1767 C1772 0.949 . S
H1768 C1774 0.950 . S
H1769 C1775 0.950 . S
H1770 C1776 0.949 . S
C1771 H1766 0.950 . S
C1771 C1773 1.327 . S
C1771 C1777 1.429 . S
C1772 C1764 1.574 . S
C1772 H1767 0.949 . S
C1772 C1778 1.368 . S
C1773 C1757 1.349 . S
C1773 H1765 0.950 . S
C1773 C1771 1.327 . S
C1774 C1762 1.349 . S
C1774 H1768 0.950 . S
C1774 C1775 1.327 . S
C1775 H1769 0.950 . S
C1775 C1774 1.327 . S
C1775 C1779 1.429 . S
C1776 C1759 1.574 . S
C1776 H1770 0.949 . S
C1776 C1780 1.368 . S
C1777 C1758 1.429 . S
C1777 C1771 1.429 . S
C1777 C1778 1.523 . S
C1778 C1759 1.368 . S
C1778 C1772 1.368 . S
C1778 C1777 1.523 . S
C1779 C1763 1.429 . S
C1779 C1775 1.429 . S
C1779 C1780 1.523 . S
C1780 C1764 1.368 . S
C1780 C1776 1.368 . S
C1780 C1779 1.523 . S
H1781 C1756 0.950 . S
H1782 C1758 0.950 . S
H1783 C1759 0.949 . S
H1784 C1761 0.950 . S
H1785 C1763 0.950 . S
C1786 C1787 1.349 . S
C1786 C1788 1.327 . S
C1786 H1811 0.950 . S
C1787 C1786 1.349 . S
C1787 C1803 1.349 . S
C1788 C1786 1.327 . S
C1788 C1807 1.429 . S
C1788 H1812 0.950 . S
C1789 C1806 1.574 . S
C1789 C1808 1.368 . S
C1789 H1813 0.949 . S
H1790 C1794 0.949 . S
C1791 C1792 1.349 . S
C1791 C1793 1.327 . S
C1791 H1814 0.950 . S
C1792 C1791 1.349 . S
C1792 C1804 1.349 . S
C1793 C1791 1.327 . S
C1793 C1809 1.429 . S
C1793 H1815 0.950 . S
C1794 H1790 0.949 . S
C1794 C1802 1.574 . S
C1794 C1810 1.368 . S
H1795 C1803 0.950 . S
H1796 C1801 0.950 . S
H1797 C1802 0.949 . S
H1798 C1804 0.950 . S
H1799 C1805 0.950 . S
H1800 C1806 0.949 . S
C1801 H1796 0.950 . S
C1801 C1803 1.327 . S
C1801 C1807 1.429 . S
C1802 C1794 1.574 . S
C1802 H1797 0.949 . S
C1802 C1808 1.368 . S
C1803 C1787 1.349 . S
C1803 H1795 0.950 . S
C1803 C1801 1.327 . S
C1804 C1792 1.349 . S
C1804 H1798 0.950 . S
C1804 C1805 1.327 . S
C1805 H1799 0.950 . S
C1805 C1804 1.327 . S
C1805 C1809 1.429 . S
C1806 C1789 1.574 . S
C1806 H1800 0.949 . S
C1806 C1810 1.368 . S
C1807 C1788 1.429 . S
C1807 C1801 1.429 . S
C1807 C1808 1.523 . S
C1808 C1789 1.368 . S
C1808 C1802 1.368 . S
C1808 C1807 1.523 . S
C1809 C1793 1.429 . S
C1809 C1805 1.429 . S
C1809 C1810 1.523 . S
C1810 C1794 1.368 . S
C1810 C1806 1.368 . S
C1810 C1809 1.523 . S
H1811 C1786 0.950 . S
H1812 C1788 0.950 . S
H1813 C1789 0.949 . S
H1814 C1791 0.950 . S
H1815 C1793 0.950 . S
C1816 C1817 1.349 . S
C1816 C1818 1.327 . S
C1816 H1841 0.950 . S
C1817 C1816 1.349 . S
C1817 C1833 1.349 . S
C1818 C1816 1.327 . S
C1818 C1837 1.429 . S
C1818 H1842 0.950 . S
C1819 C1836 1.574 . S
C1819 C1838 1.368 . S
C1819 H1843 0.949 . S
H1820 C1824 0.949 . S
C1821 C1822 1.349 . S
C1821 C1823 1.327 . S
C1821 H1844 0.950 . S
C1822 C1821 1.349 . S
C1822 C1834 1.349 . S
C1823 C1821 1.327 . S
C1823 C1839 1.429 . S
C1823 H1845 0.950 . S
C1824 H1820 0.949 . S
C1824 C1832 1.574 . S
C1824 C1840 1.368 . S
H1825 C1833 0.950 . S
H1826 C1831 0.950 . S
H1827 C1832 0.949 . S
H1828 C1834 0.950 . S
H1829 C1835 0.950 . S
H1830 C1836 0.949 . S
C1831 H1826 0.950 . S
C1831 C1833 1.327 . S
C1831 C1837 1.429 . S
C1832 C1824 1.574 . S
C1832 H1827 0.949 . S
C1832 C1838 1.368 . S
C1833 C1817 1.349 . S
C1833 H1825 0.950 . S
C1833 C1831 1.327 . S
C1834 C1822 1.349 . S
C1834 H1828 0.950 . S
C1834 C1835 1.327 . S
C1835 H1829 0.950 . S
C1835 C1834 1.327 . S
C1835 C1839 1.429 . S
C1836 C1819 1.574 . S
C1836 H1830 0.949 . S
C1836 C1840 1.368 . S
C1837 C1818 1.429 . S
C1837 C1831 1.429 . S
C1837 C1838 1.523 . S
C1838 C1819 1.368 . S
C1838 C1832 1.368 . S
C1838 C1837 1.523 . S
C1839 C1823 1.429 . S
C1839 C1835 1.429 . S
C1839 C1840 1.523 . S
C1840 C1824 1.368 . S
C1840 C1836 1.368 . S
C1840 C1839 1.523 . S
H1841 C1816 0.950 . S
H1842 C1818 0.950 . S
H1843 C1819 0.949 . S
H1844 C1821 0.950 . S
H1845 C1823 0.950 . S
C1846 C1847 1.349 . S
C1846 C1848 1.327 . S
C1846 H1871 0.950 . S
C1847 C1846 1.349 . S
C1847 C1863 1.349 . S
C1848 C1846 1.327 . S
C1848 C1867 1.429 . S
C1848 H1872 0.950 . S
C1849 C1866 1.574 . S
C1849 C1868 1.368 . S
C1849 H1873 0.949 . S
H1850 C1854 0.949 . S
C1851 C1852 1.349 . S
C1851 C1853 1.327 . S
C1851 H1874 0.950 . S
C1852 C1851 1.349 . S
C1852 C1864 1.349 . S
C1853 C1851 1.327 . S
C1853 C1869 1.429 . S
C1853 H1875 0.950 . S
C1854 H1850 0.949 . S
C1854 C1862 1.574 . S
C1854 C1870 1.368 . S
H1855 C1863 0.950 . S
H1856 C1861 0.950 . S
H1857 C1862 0.949 . S
H1858 C1864 0.950 . S
H1859 C1865 0.950 . S
H1860 C1866 0.949 . S
C1861 H1856 0.950 . S
C1861 C1863 1.327 . S
C1861 C1867 1.429 . S
C1862 C1854 1.574 . S
C1862 H1857 0.949 . S
C1862 C1868 1.368 . S
C1863 C1847 1.349 . S
C1863 H1855 0.950 . S
C1863 C1861 1.327 . S
C1864 C1852 1.349 . S
C1864 H1858 0.950 . S
C1864 C1865 1.327 . S
C1865 H1859 0.950 . S
C1865 C1864 1.327 . S
C1865 C1869 1.429 . S
C1866 C1849 1.574 . S
C1866 H1860 0.949 . S
C1866 C1870 1.368 . S
C1867 C1848 1.429 . S
C1867 C1861 1.429 . S
C1867 C1868 1.523 . S
C1868 C1849 1.368 . S
C1868 C1862 1.368 . S
C1868 C1867 1.523 . S
C1869 C1853 1.429 . S
C1869 C1865 1.429 . S
C1869 C1870 1.523 . S
C1870 C1854 1.368 . S
C1870 C1866 1.368 . S
C1870 C1869 1.523 . S
H1871 C1846 0.950 . S
H1872 C1848 0.950 . S
H1873 C1849 0.949 . S
H1874 C1851 0.950 . S
H1875 C1853 0.950 . S
C1876 C1877 1.349 . S
C1876 C1878 1.327 . S
C1876 H1901 0.950 . S
C1877 C1876 1.349 . S
C1877 C1893 1.349 . S
C1878 C1876 1.327 . S
C1878 C1897 1.429 . S
C1878 H1902 0.950 . S
C1879 C1896 1.574 . S
C1879 C1898 1.368 . S
C1879 H1903 0.949 . S
H1880 C1884 0.949 . S
C1881 C1882 1.349 . S
C1881 C1883 1.327 . S
C1881 H1904 0.950 . S
C1882 C1881 1.349 . S
C1882 C1894 1.349 . S
C1883 C1881 1.327 . S
C1883 C1899 1.429 . S
C1883 H1905 0.950 . S
C1884 H1880 0.949 . S
C1884 C1892 1.574 . S
C1884 C1900 1.368 . S
H1885 C1893 0.950 . S
H1886 C1891 0.950 . S
H1887 C1892 0.949 . S
H1888 C1894 0.950 1_554 S
H1889 C1895 0.950 . S
H1890 C1896 0.949 . S
C1891 H1886 0.950 . S
C1891 C1893 1.327 . S
C1891 C1897 1.429 . S
C1892 C1884 1.574 . S
C1892 H1887 0.949 . S
C1892 C1898 1.368 . S
C1893 C1877 1.349 . S
C1893 H1885 0.950 . S
C1893 C1891 1.327 . S
C1894 C1882 1.349 . S
C1894 H1888 0.950 1_556 S
C1894 C1895 1.327 . S
C1895 H1889 0.950 . S
C1895 C1894 1.327 . S
C1895 C1899 1.429 . S
C1896 C1879 1.574 . S
C1896 H1890 0.949 . S
C1896 C1900 1.368 . S
C1897 C1878 1.429 . S
C1897 C1891 1.429 . S
C1897 C1898 1.523 . S
C1898 C1879 1.368 . S
C1898 C1892 1.368 . S
C1898 C1897 1.523 . S
C1899 C1883 1.429 . S
C1899 C1895 1.429 . S
C1899 C1900 1.523 . S
C1900 C1884 1.368 . S
C1900 C1896 1.368 . S
C1900 C1899 1.523 . S
H1901 C1876 0.950 . S
H1902 C1878 0.950 . S
H1903 C1879 0.949 . S
H1904 C1881 0.950 . S
H1905 C1883 0.950 . S
C1906 C1907 1.349 . S
C1906 C1908 1.327 . S
C1906 H1931 0.950 . S
C1907 C1906 1.349 . S
C1907 C1923 1.349 . S
C1908 C1906 1.327 . S
C1908 C1927 1.429 . S
C1908 H1932 0.950 . S
C1909 C1926 1.574 . S
C1909 C1928 1.368 . S
C1909 H1933 0.949 . S
H1910 C1914 0.949 . S
C1911 C1912 1.349 . S
C1911 C1913 1.327 . S
C1911 H1934 0.950 . S
C1912 C1911 1.349 . S
C1912 C1924 1.349 . S
C1913 C1911 1.327 . S
C1913 C1929 1.429 . S
C1913 H1935 0.950 . S
C1914 H1910 0.949 . S
C1914 C1922 1.574 . S
C1914 C1930 1.368 . S
H1915 C1923 0.950 . S
H1916 C1921 0.950 . S
H1917 C1922 0.949 . S
H1918 C1924 0.950 . S
H1919 C1925 0.950 . S
H1920 C1926 0.949 . S
C1921 H1916 0.950 . S
C1921 C1923 1.327 . S
C1921 C1927 1.429 . S
C1922 C1914 1.574 . S
C1922 H1917 0.949 . S
C1922 C1928 1.368 . S
C1923 C1907 1.349 . S
C1923 H1915 0.950 . S
C1923 C1921 1.327 . S
C1924 C1912 1.349 . S
C1924 H1918 0.950 . S
C1924 C1925 1.327 . S
C1925 H1919 0.950 . S
C1925 C1924 1.327 . S
C1925 C1929 1.429 . S
C1926 C1909 1.574 . S
C1926 H1920 0.949 . S
C1926 C1930 1.368 . S
C1927 C1908 1.429 . S
C1927 C1921 1.429 . S
C1927 C1928 1.523 . S
C1928 C1909 1.368 . S
C1928 C1922 1.368 . S
C1928 C1927 1.523 . S
C1929 C1913 1.429 . S
C1929 C1925 1.429 . S
C1929 C1930 1.523 . S
C1930 C1914 1.368 . S
C1930 C1926 1.368 . S
C1930 C1929 1.523 . S
H1931 C1906 0.950 . S
H1932 C1908 0.950 . S
H1933 C1909 0.949 . S
H1934 C1911 0.950 . S
H1935 C1913 0.950 . S
C1936 C1937 1.349 . S
C1936 C1938 1.327 . S
C1936 H1961 0.950 . S
C1937 C1936 1.349 . S
C1937 C1953 1.349 . S
C1938 C1936 1.327 . S
C1938 C1957 1.429 . S
C1938 H1962 0.950 . S
C1939 C1956 1.574 . S
C1939 C1958 1.368 . S
C1939 H1963 0.949 . S
H1940 C1944 0.949 . S
C1941 C1942 1.349 . S
C1941 C1943 1.327 . S
C1941 H1964 0.950 . S
C1942 C1941 1.349 . S
C1942 C1954 1.349 . S
C1943 C1941 1.327 . S
C1943 C1959 1.429 . S
C1943 H1965 0.950 . S
C1944 H1940 0.949 . S
C1944 C1952 1.574 . S
C1944 C1960 1.368 . S
H1945 C1953 0.950 . S
H1946 C1951 0.950 . S
H1947 C1952 0.949 . S
H1948 C1954 0.950 1_565 S
H1949 C1955 0.986 . S
H1950 C1956 0.949 . S
C1951 H1946 0.950 . S
C1951 C1953 1.327 . S
C1951 C1957 1.429 . S
C1952 C1944 1.574 . S
C1952 H1947 0.949 . S
C1952 C1958 1.368 . S
C1953 C1937 1.349 . S
C1953 H1945 0.950 . S
C1953 C1951 1.327 . S
C1954 C1942 1.349 . S
C1954 H1948 0.950 1_545 S
C1954 C1955 1.327 . S
C1955 H1949 0.986 . S
C1955 C1954 1.327 . S
C1955 C1959 1.429 . S
C1956 C1939 1.574 . S
C1956 H1950 0.949 . S
C1956 C1960 1.368 . S
C1957 C1938 1.429 . S
C1957 C1951 1.429 . S
C1957 C1958 1.523 . S
C1958 C1939 1.368 . S
C1958 C1952 1.368 . S
C1958 C1957 1.523 . S
C1959 C1943 1.429 . S
C1959 C1955 1.429 . S
C1959 C1960 1.523 . S
C1960 C1944 1.368 . S
C1960 C1956 1.368 . S
C1960 C1959 1.523 . S
H1961 C1936 0.950 . S
H1962 C1938 0.950 . S
H1963 C1939 0.949 . S
H1964 C1941 0.950 . S
H1965 C1943 0.950 . S
C1966 C1967 1.349 . S
C1966 C1968 1.327 . S
C1966 H1991 0.950 . S
C1967 C1966 1.349 . S
C1967 C1983 1.349 . S
C1968 C1966 1.327 . S
C1968 C1987 1.429 . S
C1968 H1992 0.950 . S
C1969 C1986 1.574 . S
C1969 C1988 1.368 . S
C1969 H1993 0.949 . S
H1970 C1974 0.949 . S
C1971 C1972 1.349 . S
C1971 C1973 1.327 . S
C1971 H1994 0.950 . S
C1972 C1971 1.349 . S
C1972 C1984 1.349 . S
C1973 C1971 1.327 . S
C1973 C1989 1.429 . S
C1973 H1995 0.950 . S
C1974 H1970 0.949 . S
C1974 C1982 1.574 . S
C1974 C1990 1.368 . S
H1975 C1983 0.950 . S
H1976 C1981 0.950 . S
H1977 C1982 0.949 . S
H1978 C1984 0.950 . S
H1979 C1985 0.950 . S
H1980 C1986 0.949 . S
C1981 H1976 0.950 . S
C1981 C1983 1.327 . S
C1981 C1987 1.429 . S
C1982 C1974 1.574 . S
C1982 H1977 0.949 . S
C1982 C1988 1.368 . S
C1983 C1967 1.349 . S
C1983 H1975 0.950 . S
C1983 C1981 1.327 . S
C1984 C1972 1.349 . S
C1984 H1978 0.950 . S
C1984 C1985 1.327 . S
C1985 H1979 0.950 . S
C1985 C1984 1.327 . S
C1985 C1989 1.429 . S
C1986 C1969 1.574 . S
C1986 H1980 0.949 . S
C1986 C1990 1.368 . S
C1987 C1968 1.429 . S
C1987 C1981 1.429 . S
C1987 C1988 1.523 . S
C1988 C1969 1.368 . S
C1988 C1982 1.368 . S
C1988 C1987 1.523 . S
C1989 C1973 1.429 . S
C1989 C1985 1.429 . S
C1989 C1990 1.523 . S
C1990 C1974 1.368 . S
C1990 C1986 1.368 . S
C1990 C1989 1.523 . S
H1991 C1966 0.950 . S
H1992 C1968 0.950 . S
H1993 C1969 0.949 . S
H1994 C1971 0.950 . S
H1995 C1973 0.950 . S
C1996 C1997 1.349 . S
C1996 C1998 1.327 . S
C1996 H2021 0.950 . S
C1997 C1996 1.349 . S
C1997 C2013 1.349 . S
C1998 C1996 1.327 . S
C1998 C2017 1.429 . S
C1998 H2022 0.950 . S
C1999 C2016 1.574 . S
C1999 C2018 1.368 . S
C1999 H2023 0.949 . S
H2000 C2004 0.949 . S
C2001 C2002 1.349 . S
C2001 C2003 1.327 . S
C2001 H2024 0.950 . S
C2002 C2001 1.349 . S
C2002 C2014 1.349 . S
C2003 C2001 1.327 . S
C2003 C2019 1.429 . S
C2003 H2025 0.950 . S
C2004 H2000 0.949 . S
C2004 C2012 1.574 . S
C2004 C2020 1.368 . S
H2005 C2013 0.950 . S
H2006 C2011 0.950 . S
H2007 C2012 0.949 . S
H2008 C2014 0.950 . S
H2009 C2015 0.950 . S
H2010 C2016 0.949 . S
C2011 H2006 0.950 . S
C2011 C2013 1.327 . S
C2011 C2017 1.429 . S
C2012 C2004 1.574 . S
C2012 H2007 0.949 . S
C2012 C2018 1.368 . S
C2013 C1997 1.349 . S
C2013 H2005 0.950 . S
C2013 C2011 1.327 . S
C2014 C2002 1.349 . S
C2014 H2008 0.950 . S
C2014 C2015 1.327 . S
C2015 H2009 0.950 . S
C2015 C2014 1.327 . S
C2015 C2019 1.429 . S
C2016 C1999 1.574 . S
C2016 H2010 0.949 . S
C2016 C2020 1.368 . S
C2017 C1998 1.429 . S
C2017 C2011 1.429 . S
C2017 C2018 1.523 . S
C2018 C1999 1.368 . S
C2018 C2012 1.368 . S
C2018 C2017 1.523 . S
C2019 C2003 1.429 . S
C2019 C2015 1.429 . S
C2019 C2020 1.523 . S
C2020 C2004 1.368 . S
C2020 C2016 1.368 . S
C2020 C2019 1.523 . S
H2021 C1996 0.950 . S
H2022 C1998 0.950 . S
H2023 C1999 0.949 . S
H2024 C2001 0.950 . S
H2025 C2003 0.950 . S
C2026 C2027 1.349 . S
C2026 C2028 1.327 . S
C2026 H2051 0.950 . S
C2027 C2026 1.349 . S
C2027 C2043 1.349 . S
C2028 C2026 1.327 . S
C2028 C2047 1.429 . S
C2028 H2052 0.950 . S
C2029 C2046 1.574 . S
C2029 C2048 1.368 . S
C2029 H2053 0.949 . S
H2030 C2034 0.949 . S
C2031 C2032 1.349 . S
C2031 C2033 1.327 . S
C2031 H2054 0.950 . S
C2032 C2031 1.349 . S
C2032 C2044 1.349 . S
C2033 C2031 1.327 . S
C2033 C2049 1.429 . S
C2033 H2055 0.950 . S
C2034 H2030 0.949 . S
C2034 C2042 1.574 . S
C2034 C2050 1.368 . S
H2035 C2043 0.950 . S
H2036 C2041 0.950 . S
H2037 C2042 0.949 . S
H2038 C2044 0.950 . S
H2039 C2045 0.950 . S
H2040 C2046 0.949 . S
C2041 H2036 0.950 . S
C2041 C2043 1.327 . S
C2041 C2047 1.429 . S
C2042 C2034 1.574 . S
C2042 H2037 0.949 . S
C2042 C2048 1.368 . S
C2043 C2027 1.349 . S
C2043 H2035 0.950 . S
C2043 C2041 1.327 . S
C2044 C2032 1.349 . S
C2044 H2038 0.950 . S
C2044 C2045 1.327 . S
C2045 H2039 0.950 . S
C2045 C2044 1.327 . S
C2045 C2049 1.429 . S
C2046 C2029 1.574 . S
C2046 H2040 0.949 . S
C2046 C2050 1.368 . S
C2047 C2028 1.429 . S
C2047 C2041 1.429 . S
C2047 C2048 1.523 . S
C2048 C2029 1.368 . S
C2048 C2042 1.368 . S
C2048 C2047 1.523 . S
C2049 C2033 1.429 . S
C2049 C2045 1.429 . S
C2049 C2050 1.523 . S
C2050 C2034 1.368 . S
C2050 C2046 1.368 . S
C2050 C2049 1.523 . S
H2051 C2026 0.950 . S
H2052 C2028 0.950 . S
H2053 C2029 0.949 . S
H2054 C2031 0.950 . S
H2055 C2033 0.950 . S
C2056 C2057 1.349 . S
C2056 C2058 1.327 . S
C2056 H2081 0.950 . S
C2057 C2056 1.349 . S
C2057 C2073 1.349 . S
C2058 C2056 1.327 . S
C2058 C2077 1.429 . S
C2058 H2082 0.950 . S
C2059 C2076 1.574 . S
C2059 C2078 1.368 . S
C2059 H2083 0.949 . S
H2060 C2064 0.949 . S
C2061 C2062 1.349 . S
C2061 C2063 1.327 . S
C2061 H2084 0.950 . S
C2062 C2061 1.349 . S
C2062 C2074 1.349 . S
C2063 C2061 1.327 . S
C2063 C2079 1.429 . S
C2063 H2085 0.950 . S
C2064 H2060 0.949 . S
C2064 C2072 1.574 . S
C2064 C2080 1.368 . S
H2065 C2073 0.950 . S
H2066 C2071 0.950 . S
H2067 C2072 0.949 . S
H2068 C2074 0.950 . S
H2069 C2075 0.950 . S
H2070 C2076 0.949 . S
C2071 H2066 0.950 . S
C2071 C2073 1.327 . S
C2071 C2077 1.429 . S
C2072 C2064 1.574 . S
C2072 H2067 0.949 . S
C2072 C2078 1.368 . S
C2073 C2057 1.349 . S
C2073 H2065 0.950 . S
C2073 C2071 1.327 . S
C2074 C2062 1.349 . S
C2074 H2068 0.950 . S
C2074 C2075 1.327 . S
C2075 H2069 0.950 . S
C2075 C2074 1.327 . S
C2075 C2079 1.429 . S
C2076 C2059 1.574 . S
C2076 H2070 0.949 . S
C2076 C2080 1.368 . S
C2077 C2058 1.429 . S
C2077 C2071 1.429 . S
C2077 C2078 1.523 . S
C2078 C2059 1.368 . S
C2078 C2072 1.368 . S
C2078 C2077 1.523 . S
C2079 C2063 1.429 . S
C2079 C2075 1.429 . S
C2079 C2080 1.523 . S
C2080 C2064 1.368 . S
C2080 C2076 1.368 . S
C2080 C2079 1.523 . S
H2081 C2056 0.950 . S
H2082 C2058 0.950 . S
H2083 C2059 0.949 . S
H2084 C2061 0.950 . S
H2085 C2063 0.950 . S
C2086 C2087 1.349 . S
C2086 C2088 1.327 . S
C2086 H2111 0.950 . S
C2087 C2086 1.349 . S
C2087 C2103 1.349 . S
C2088 C2086 1.327 . S
C2088 C2107 1.429 . S
C2088 H2112 0.950 . S
C2089 C2106 1.574 . S
C2089 C2108 1.368 . S
C2089 H2113 0.949 . S
H2090 C2094 0.949 . S
C2091 C2092 1.349 . S
C2091 C2093 1.327 . S
C2091 H2114 0.950 . S
C2092 C2091 1.349 . S
C2092 C2104 1.349 . S
C2093 C2091 1.327 . S
C2093 C2109 1.429 . S
C2093 H2115 0.950 . S
C2094 H2090 0.949 . S
C2094 C2102 1.574 . S
C2094 C2110 1.368 . S
H2095 C2103 0.950 . S
H2096 C2101 0.950 . S
H2097 C2102 0.949 . S
H2098 C2104 0.950 . S
H2099 C2105 0.950 . S
H2100 C2106 0.949 . S
C2101 H2096 0.950 . S
C2101 C2103 1.327 . S
C2101 C2107 1.429 . S
C2102 C2094 1.574 . S
C2102 H2097 0.949 . S
C2102 C2108 1.368 . S
C2103 C2087 1.349 . S
C2103 H2095 0.950 . S
C2103 C2101 1.327 . S
C2104 C2092 1.349 . S
C2104 H2098 0.950 . S
C2104 C2105 1.327 . S
C2105 H2099 0.950 . S
C2105 C2104 1.327 . S
C2105 C2109 1.429 . S
C2106 C2089 1.574 . S
C2106 H2100 0.949 . S
C2106 C2110 1.368 . S
C2107 C2088 1.429 . S
C2107 C2101 1.429 . S
C2107 C2108 1.523 . S
C2108 C2089 1.368 . S
C2108 C2102 1.368 . S
C2108 C2107 1.523 . S
C2109 C2093 1.429 . S
C2109 C2105 1.429 . S
C2109 C2110 1.523 . S
C2110 C2094 1.368 . S
C2110 C2106 1.368 . S
C2110 C2109 1.523 . S
H2111 C2086 0.950 . S
H2112 C2088 0.950 . S
H2113 C2089 0.949 . S
H2114 C2091 0.950 . S
H2115 C2093 0.950 . S
C2116 C2117 1.349 . S
C2116 C2118 1.327 . S
C2116 H2141 0.950 . S
C2117 C2116 1.349 . S
C2117 C2133 1.349 . S
C2118 C2116 1.327 . S
C2118 C2137 1.429 . S
C2118 H2142 0.950 . S
C2119 C2136 1.574 . S
C2119 C2138 1.368 . S
C2119 H2143 0.945 1_545 S
H2120 C2124 0.949 . S
C2121 C2122 1.349 . S
C2121 C2123 1.327 . S
C2121 H2144 0.913 1_545 S
C2122 C2121 1.349 . S
C2122 C2134 1.349 . S
C2123 C2121 1.327 . S
C2123 C2139 1.429 . S
C2123 H2145 0.950 1_545 S
C2124 H2120 0.949 . S
C2124 C2132 1.574 . S
C2124 C2140 1.368 . S
H2125 C2133 0.950 . S
H2126 C2131 0.965 . S
H2127 C2132 0.949 . S
H2128 C2134 0.950 . S
H2129 C2135 0.950 . S
H2130 C2136 0.916 1_565 S
C2131 H2126 0.965 . S
C2131 C2133 1.327 . S
C2131 C2137 1.429 . S
C2132 C2124 1.574 . S
C2132 H2127 0.949 . S
C2132 C2138 1.368 . S
C2133 C2117 1.349 . S
C2133 H2125 0.950 . S
C2133 C2131 1.327 . S
C2134 C2122 1.349 . S
C2134 H2128 0.950 . S
C2134 C2135 1.327 . S
C2135 H2129 0.950 . S
C2135 C2134 1.327 . S
C2135 C2139 1.429 . S
C2136 C2119 1.574 . S
C2136 H2130 0.916 1_545 S
C2136 C2140 1.368 . S
C2137 C2118 1.429 . S
C2137 C2131 1.429 . S
C2137 C2138 1.523 . S
C2138 C2119 1.368 . S
C2138 C2132 1.368 . S
C2138 C2137 1.523 . S
C2139 C2123 1.429 . S
C2139 C2135 1.429 . S
C2139 C2140 1.523 . S
C2140 C2124 1.368 . S
C2140 C2136 1.368 . S
C2140 C2139 1.523 . S
H2141 C2116 0.950 . S
H2142 C2118 0.950 . S
H2143 C2119 0.945 1_565 S
H2144 C2121 0.913 1_565 S
H2145 C2123 0.950 1_565 S
C2146 C2147 1.349 . S
C2146 C2148 1.327 . S
C2146 H2171 0.950 . S
C2147 C2146 1.349 . S
C2147 C2163 1.349 . S
C2148 C2146 1.327 . S
C2148 C2167 1.429 . S
C2148 H2172 0.950 . S
C2149 C2166 1.574 . S
C2149 C2168 1.368 . S
C2149 H2173 0.949 . S
H2150 C2154 0.949 . S
C2151 C2152 1.349 . S
C2151 C2153 1.327 . S
C2151 H2174 0.950 . S
C2152 C2151 1.349 . S
C2152 C2164 1.349 . S
C2153 C2151 1.327 . S
C2153 C2169 1.429 . S
C2153 H2175 0.950 . S
C2154 H2150 0.949 . S
C2154 C2162 1.574 . S
C2154 C2170 1.368 . S
H2155 C2163 0.950 . S
H2156 C2161 0.950 . S
H2157 C2162 0.949 . S
H2158 C2164 0.950 . S
H2159 C2165 0.950 . S
H2160 C2166 0.949 . S
C2161 H2156 0.950 . S
C2161 C2163 1.327 . S
C2161 C2167 1.429 . S
C2162 C2154 1.574 . S
C2162 H2157 0.949 . S
C2162 C2168 1.368 . S
C2163 C2147 1.349 . S
C2163 H2155 0.950 . S
C2163 C2161 1.327 . S
C2164 C2152 1.349 . S
C2164 H2158 0.950 . S
C2164 C2165 1.327 . S
C2165 H2159 0.950 . S
C2165 C2164 1.327 . S
C2165 C2169 1.429 . S
C2166 C2149 1.574 . S
C2166 H2160 0.949 . S
C2166 C2170 1.368 . S
C2167 C2148 1.429 . S
C2167 C2161 1.429 . S
C2167 C2168 1.523 . S
C2168 C2149 1.368 . S
C2168 C2162 1.368 . S
C2168 C2167 1.523 . S
C2169 C2153 1.429 . S
C2169 C2165 1.429 . S
C2169 C2170 1.523 . S
C2170 C2154 1.368 . S
C2170 C2166 1.368 . S
C2170 C2169 1.523 . S
H2171 C2146 0.950 . S
H2172 C2148 0.950 . S
H2173 C2149 0.949 . S
H2174 C2151 0.950 . S
H2175 C2153 0.950 . S
C2176 C2177 1.349 . S
C2176 C2178 1.327 . S
C2176 H2201 0.950 . S
C2177 C2176 1.349 . S
C2177 C2193 1.349 . S
C2178 C2176 1.327 . S
C2178 C2197 1.429 . S
C2178 H2202 0.950 . S
C2179 C2196 1.574 . S
C2179 C2198 1.368 . S
C2179 H2203 0.949 . S
H2180 C2184 0.949 . S
C2181 C2182 1.349 . S
C2181 C2183 1.327 . S
C2181 H2204 0.950 . S
C2182 C2181 1.349 . S
C2182 C2194 1.349 1_554 S
C2183 C2181 1.327 . S
C2183 C2199 1.429 . S
C2183 H2205 0.950 . S
C2184 H2180 0.949 . S
C2184 C2192 1.574 . S
C2184 C2200 1.368 . S
H2185 C2193 0.950 . S
H2186 C2191 0.950 . S
H2187 C2192 0.949 . S
H2188 C2194 0.950 . S
H2189 C2195 0.950 1_556 S
H2190 C2196 0.949 . S
C2191 H2186 0.950 . S
C2191 C2193 1.327 . S
C2191 C2197 1.429 . S
C2192 C2184 1.574 . S
C2192 H2187 0.949 . S
C2192 C2198 1.368 . S
C2193 C2177 1.349 . S
C2193 H2185 0.950 . S
C2193 C2191 1.327 . S
C2194 C2182 1.349 1_556 S
C2194 H2188 0.950 . S
C2194 C2195 1.327 1_556 S
C2195 H2189 0.950 1_554 S
C2195 C2194 1.327 1_554 S
C2195 C2199 1.429 . S
C2196 C2179 1.574 . S
C2196 H2190 0.949 . S
C2196 C2200 1.368 . S
C2197 C2178 1.429 . S
C2197 C2191 1.429 . S
C2197 C2198 1.523 . S
C2198 C2179 1.368 . S
C2198 C2192 1.368 . S
C2198 C2197 1.523 . S
C2199 C2183 1.429 . S
C2199 C2195 1.429 . S
C2199 C2200 1.523 . S
C2200 C2184 1.368 . S
C2200 C2196 1.368 . S
C2200 C2199 1.523 . S
H2201 C2176 0.950 . S
H2202 C2178 0.950 . S
H2203 C2179 0.949 . S
H2204 C2181 0.950 . S
H2205 C2183 0.950 . S
C2206 C2207 1.349 . S
C2206 C2208 1.327 . S
C2206 H2231 0.950 . S
C2207 C2206 1.349 . S
C2207 C2223 1.349 . S
C2208 C2206 1.327 . S
C2208 C2227 1.429 . S
C2208 H2232 0.950 . S
C2209 C2226 1.574 . S
C2209 C2228 1.368 . S
C2209 H2233 0.949 . S
H2210 C2214 0.949 . S
C2211 C2212 1.349 . S
C2211 C2213 1.327 . S
C2211 H2234 0.950 . S
C2212 C2211 1.349 . S
C2212 C2224 1.349 . S
C2213 C2211 1.327 . S
C2213 C2229 1.429 . S
C2213 H2235 0.950 . S
C2214 H2210 0.949 . S
C2214 C2222 1.574 . S
C2214 C2230 1.368 . S
H2215 C2223 0.950 . S
H2216 C2221 0.950 . S
H2217 C2222 0.949 . S
H2218 C2224 0.950 . S
H2219 C2225 0.950 . S
H2220 C2226 0.949 . S
C2221 H2216 0.950 . S
C2221 C2223 1.327 . S
C2221 C2227 1.429 . S
C2222 C2214 1.574 . S
C2222 H2217 0.949 . S
C2222 C2228 1.368 . S
C2223 C2207 1.349 . S
C2223 H2215 0.950 . S
C2223 C2221 1.327 . S
C2224 C2212 1.349 . S
C2224 H2218 0.950 . S
C2224 C2225 1.327 . S
C2225 H2219 0.950 . S
C2225 C2224 1.327 . S
C2225 C2229 1.429 . S
C2226 C2209 1.574 . S
C2226 H2220 0.949 . S
C2226 C2230 1.368 . S
C2227 C2208 1.429 . S
C2227 C2221 1.429 . S
C2227 C2228 1.523 . S
C2228 C2209 1.368 . S
C2228 C2222 1.368 . S
C2228 C2227 1.523 . S
C2229 C2213 1.429 . S
C2229 C2225 1.429 . S
C2229 C2230 1.523 . S
C2230 C2214 1.368 . S
C2230 C2226 1.368 . S
C2230 C2229 1.523 . S
H2231 C2206 0.950 . S
H2232 C2208 0.950 . S
H2233 C2209 0.949 . S
H2234 C2211 0.950 . S
H2235 C2213 0.950 . S
C2236 C2237 1.349 . S
C2236 C2238 1.327 . S
C2236 H2261 0.950 . S
C2237 C2236 1.349 . S
C2237 C2253 1.349 . S
C2238 C2236 1.327 . S
C2238 C2257 1.429 . S
C2238 H2262 0.950 . S
C2239 C2256 1.574 . S
C2239 C2258 1.368 . S
C2239 H2263 0.949 . S
H2240 C2244 0.949 . S
C2241 C2242 1.349 . S
C2241 C2243 1.327 . S
C2241 H2264 0.950 . S
C2242 C2241 1.349 . S
C2242 C2254 1.349 . S
C2243 C2241 1.327 . S
C2243 C2259 1.429 . S
C2243 H2265 0.950 . S
C2244 H2240 0.949 . S
C2244 C2252 1.574 . S
C2244 C2260 1.368 . S
H2245 C2253 0.950 . S
H2246 C2251 0.950 . S
H2247 C2252 0.949 . S
H2248 C2254 0.950 . S
H2249 C2255 0.950 . S
H2250 C2256 0.949 . S
C2251 H2246 0.950 . S
C2251 C2253 1.327 . S
C2251 C2257 1.429 . S
C2252 C2244 1.574 . S
C2252 H2247 0.949 . S
C2252 C2258 1.368 . S
C2253 C2237 1.349 . S
C2253 H2245 0.950 . S
C2253 C2251 1.327 . S
C2254 C2242 1.349 . S
C2254 H2248 0.950 . S
C2254 C2255 1.327 . S
C2255 H2249 0.950 . S
C2255 C2254 1.327 . S
C2255 C2259 1.429 . S
C2256 C2239 1.574 . S
C2256 H2250 0.949 . S
C2256 C2260 1.368 . S
C2257 C2238 1.429 . S
C2257 C2251 1.429 . S
C2257 C2258 1.523 . S
C2258 C2239 1.368 . S
C2258 C2252 1.368 . S
C2258 C2257 1.523 . S
C2259 C2243 1.429 . S
C2259 C2255 1.429 . S
C2259 C2260 1.523 . S
C2260 C2244 1.368 . S
C2260 C2256 1.368 . S
C2260 C2259 1.523 . S
H2261 C2236 0.950 . S
H2262 C2238 0.950 . S
H2263 C2239 0.949 . S
H2264 C2241 0.950 . S
H2265 C2243 0.950 . S
C2266 C2267 1.349 . S
C2266 C2268 1.327 . S
C2266 H2291 0.950 . S
C2267 C2266 1.349 . S
C2267 C2283 1.349 . S
C2268 C2266 1.327 . S
C2268 C2287 1.429 . S
C2268 H2292 0.950 . S
C2269 C2286 1.574 . S
C2269 C2288 1.368 . S
C2269 H2293 0.949 . S
H2270 C2274 0.949 . S
C2271 C2272 1.349 . S
C2271 C2273 1.327 . S
C2271 H2294 0.950 . S
C2272 C2271 1.349 . S
C2272 C2284 1.349 . S
C2273 C2271 1.327 . S
C2273 C2289 1.429 . S
C2273 H2295 0.950 . S
C2274 H2270 0.949 . S
C2274 C2282 1.574 . S
C2274 C2290 1.368 . S
H2275 C2283 0.950 . S
H2276 C2281 0.950 . S
H2277 C2282 0.949 . S
H2278 C2284 0.950 . S
H2279 C2285 0.950 . S
H2280 C2286 0.949 . S
C2281 H2276 0.950 . S
C2281 C2283 1.327 . S
C2281 C2287 1.429 . S
C2282 C2274 1.574 . S
C2282 H2277 0.949 . S
C2282 C2288 1.368 . S
C2283 C2267 1.349 . S
C2283 H2275 0.950 . S
C2283 C2281 1.327 . S
C2284 C2272 1.349 . S
C2284 H2278 0.950 . S
C2284 C2285 1.327 . S
C2285 H2279 0.950 . S
C2285 C2284 1.327 . S
C2285 C2289 1.429 . S
C2286 C2269 1.574 . S
C2286 H2280 0.949 . S
C2286 C2290 1.368 . S
C2287 C2268 1.429 . S
C2287 C2281 1.429 . S
C2287 C2288 1.523 . S
C2288 C2269 1.368 . S
C2288 C2282 1.368 . S
C2288 C2287 1.523 . S
C2289 C2273 1.429 . S
C2289 C2285 1.429 . S
C2289 C2290 1.523 . S
C2290 C2274 1.368 . S
C2290 C2286 1.368 . S
C2290 C2289 1.523 . S
H2291 C2266 0.950 . S
H2292 C2268 0.950 . S
H2293 C2269 0.949 . S
H2294 C2271 0.950 . S
H2295 C2273 0.950 . S
C2296 C2297 1.349 . S
C2296 C2298 1.327 . S
C2296 H2321 0.950 . S
C2297 C2296 1.349 . S
C2297 C2313 1.349 . S
C2298 C2296 1.327 . S
C2298 C2317 1.429 . S
C2298 H2322 0.950 . S
C2299 C2316 1.574 . S
C2299 C2318 1.368 . S
C2299 H2323 0.949 . S
H2300 C2304 0.949 . S
C2301 C2302 1.349 . S
C2301 C2303 1.327 . S
C2301 H2324 0.950 . S
C2302 C2301 1.349 . S
C2302 C2314 1.349 . S
C2303 C2301 1.327 . S
C2303 C2319 1.429 . S
C2303 H2325 0.950 . S
C2304 H2300 0.949 . S
C2304 C2312 1.574 . S
C2304 C2320 1.368 . S
H2305 C2313 0.950 . S
H2306 C2311 0.950 . S
H2307 C2312 0.949 . S
H2308 C2314 0.950 . S
H2309 C2315 0.950 . S
H2310 C2316 0.949 . S
C2311 H2306 0.950 . S
C2311 C2313 1.327 . S
C2311 C2317 1.429 . S
C2312 C2304 1.574 . S
C2312 H2307 0.949 . S
C2312 C2318 1.368 . S
C2313 C2297 1.349 . S
C2313 H2305 0.950 . S
C2313 C2311 1.327 . S
C2314 C2302 1.349 . S
C2314 H2308 0.950 . S
C2314 C2315 1.327 . S
C2315 H2309 0.950 . S
C2315 C2314 1.327 . S
C2315 C2319 1.429 . S
C2316 C2299 1.574 . S
C2316 H2310 0.949 . S
C2316 C2320 1.368 . S
C2317 C2298 1.429 . S
C2317 C2311 1.429 . S
C2317 C2318 1.523 . S
C2318 C2299 1.368 . S
C2318 C2312 1.368 . S
C2318 C2317 1.523 . S
C2319 C2303 1.429 . S
C2319 C2315 1.429 . S
C2319 C2320 1.523 . S
C2320 C2304 1.368 . S
C2320 C2316 1.368 . S
C2320 C2319 1.523 . S
H2321 C2296 0.950 . S
H2322 C2298 0.950 . S
H2323 C2299 0.949 . S
H2324 C2301 0.950 . S
H2325 C2303 0.950 . S
C2326 C2327 1.349 . S
C2326 C2328 1.327 . S
C2326 H2351 0.950 . S
C2327 C2326 1.349 . S
C2327 C2343 1.349 . S
C2328 C2326 1.327 . S
C2328 C2347 1.429 . S
C2328 H2352 0.950 . S
C2329 C2346 1.574 . S
C2329 C2348 1.368 . S
C2329 H2353 0.949 . S
H2330 C2334 0.949 . S
C2331 C2332 1.349 . S
C2331 C2333 1.327 . S
C2331 H2354 0.950 . S
C2332 C2331 1.349 . S
C2332 C2344 1.349 . S
C2333 C2331 1.327 . S
C2333 C2349 1.429 . S
C2333 H2355 0.950 . S
C2334 H2330 0.949 . S
C2334 C2342 1.574 . S
C2334 C2350 1.368 . S
H2335 C2343 0.950 . S
H2336 C2341 0.950 . S
H2337 C2342 0.949 . S
H2338 C2344 0.950 . S
H2339 C2345 0.950 . S
H2340 C2346 0.949 . S
C2341 H2336 0.950 . S
C2341 C2343 1.327 . S
C2341 C2347 1.429 . S
C2342 C2334 1.574 . S
C2342 H2337 0.949 . S
C2342 C2348 1.368 . S
C2343 C2327 1.349 . S
C2343 H2335 0.950 . S
C2343 C2341 1.327 . S
C2344 C2332 1.349 . S
C2344 H2338 0.950 . S
C2344 C2345 1.327 . S
C2345 H2339 0.950 . S
C2345 C2344 1.327 . S
C2345 C2349 1.429 . S
C2346 C2329 1.574 . S
C2346 H2340 0.949 . S
C2346 C2350 1.368 . S
C2347 C2328 1.429 . S
C2347 C2341 1.429 . S
C2347 C2348 1.523 . S
C2348 C2329 1.368 . S
C2348 C2342 1.368 . S
C2348 C2347 1.523 . S
C2349 C2333 1.429 . S
C2349 C2345 1.429 . S
C2349 C2350 1.523 . S
C2350 C2334 1.368 . S
C2350 C2346 1.368 . S
C2350 C2349 1.523 . S
H2351 C2326 0.950 . S
H2352 C2328 0.950 . S
H2353 C2329 0.949 . S
H2354 C2331 0.950 . S
H2355 C2333 0.950 . S
C2356 C2357 1.349 . S
C2356 C2358 1.327 . S
C2356 H2381 0.950 . S
C2357 C2356 1.349 . S
C2357 C2373 1.349 . S
C2358 C2356 1.327 . S
C2358 C2377 1.429 . S
C2358 H2382 0.950 . S
C2359 C2376 1.574 . S
C2359 C2378 1.368 . S
C2359 H2383 0.949 . S
H2360 C2364 0.949 . S
C2361 C2362 1.349 . S
C2361 C2363 1.327 . S
C2361 H2384 0.950 . S
C2362 C2361 1.349 . S
C2362 C2374 1.349 . S
C2363 C2361 1.327 . S
C2363 C2379 1.429 . S
C2363 H2385 0.950 . S
C2364 H2360 0.949 . S
C2364 C2372 1.574 . S
C2364 C2380 1.368 . S
H2365 C2373 0.950 . S
H2366 C2371 0.950 . S
H2367 C2372 0.949 . S
H2368 C2374 0.950 . S
H2369 C2375 0.950 . S
H2370 C2376 0.949 . S
C2371 H2366 0.950 . S
C2371 C2373 1.327 . S
C2371 C2377 1.429 . S
C2372 C2364 1.574 . S
C2372 H2367 0.949 . S
C2372 C2378 1.368 . S
C2373 C2357 1.349 . S
C2373 H2365 0.950 . S
C2373 C2371 1.327 . S
C2374 C2362 1.349 . S
C2374 H2368 0.950 . S
C2374 C2375 1.327 . S
C2375 H2369 0.950 . S
C2375 C2374 1.327 . S
C2375 C2379 1.429 . S
C2376 C2359 1.574 . S
C2376 H2370 0.949 . S
C2376 C2380 1.368 . S
C2377 C2358 1.429 . S
C2377 C2371 1.429 . S
C2377 C2378 1.523 . S
C2378 C2359 1.368 . S
C2378 C2372 1.368 . S
C2378 C2377 1.523 . S
C2379 C2363 1.429 . S
C2379 C2375 1.429 . S
C2379 C2380 1.523 . S
C2380 C2364 1.368 . S
C2380 C2376 1.368 . S
C2380 C2379 1.523 . S
H2381 C2356 0.950 . S
H2382 C2358 0.950 . S
H2383 C2359 0.949 . S
H2384 C2361 0.950 . S
H2385 C2363 0.950 . S
C2386 C2387 1.349 . S
C2386 C2388 1.327 . S
C2386 H2411 0.950 . S
C2387 C2386 1.349 . S
C2387 C2403 1.349 . S
C2388 C2386 1.327 . S
C2388 C2407 1.429 . S
C2388 H2412 0.950 . S
C2389 C2406 1.574 . S
C2389 C2408 1.368 . S
C2389 H2413 0.949 . S
H2390 C2394 0.949 . S
C2391 C2392 1.349 . S
C2391 C2393 1.327 . S
C2391 H2414 0.950 . S
C2392 C2391 1.349 . S
C2392 C2404 1.349 . S
C2393 C2391 1.327 . S
C2393 C2409 1.429 . S
C2393 H2415 0.950 . S
C2394 H2390 0.949 . S
C2394 C2402 1.574 . S
C2394 C2410 1.368 . S
H2395 C2403 0.950 . S
H2396 C2401 0.950 . S
H2397 C2402 0.949 . S
H2398 C2404 0.950 . S
H2399 C2405 0.950 . S
H2400 C2406 0.949 . S
C2401 H2396 0.950 . S
C2401 C2403 1.327 . S
C2401 C2407 1.429 . S
C2402 C2394 1.574 . S
C2402 H2397 0.949 . S
C2402 C2408 1.368 . S
C2403 C2387 1.349 . S
C2403 H2395 0.950 . S
C2403 C2401 1.327 . S
C2404 C2392 1.349 . S
C2404 H2398 0.950 . S
C2404 C2405 1.327 . S
C2405 H2399 0.950 . S
C2405 C2404 1.327 . S
C2405 C2409 1.429 . S
C2406 C2389 1.574 . S
C2406 H2400 0.949 . S
C2406 C2410 1.368 . S
C2407 C2388 1.429 . S
C2407 C2401 1.429 . S
C2407 C2408 1.523 . S
C2408 C2389 1.368 . S
C2408 C2402 1.368 . S
C2408 C2407 1.523 . S
C2409 C2393 1.429 . S
C2409 C2405 1.429 . S
C2409 C2410 1.523 . S
C2410 C2394 1.368 . S
C2410 C2406 1.368 . S
C2410 C2409 1.523 . S
H2411 C2386 0.950 . S
H2412 C2388 0.950 . S
H2413 C2389 0.949 . S
H2414 C2391 0.950 . S
H2415 C2393 0.950 . S
C2416 C2417 1.349 . S
C2416 C2418 1.327 . S
C2416 H2441 0.950 . S
C2417 C2416 1.349 . S
C2417 C2433 1.349 . S
C2418 C2416 1.327 . S
C2418 C2437 1.429 . S
C2418 H2442 0.950 . S
C2419 C2436 1.574 . S
C2419 C2438 1.368 . S
C2419 H2443 0.949 . S
H2420 C2424 0.949 . S
C2421 C2422 1.349 . S
C2421 C2423 1.327 . S
C2421 H2444 0.950 . S
C2422 C2421 1.349 . S
C2422 C2434 1.349 . S
C2423 C2421 1.327 . S
C2423 C2439 1.429 . S
C2423 H2445 0.950 . S
C2424 H2420 0.949 . S
C2424 C2432 1.574 . S
C2424 C2440 1.368 . S
H2425 C2433 0.950 . S
H2426 C2431 0.950 . S
H2427 C2432 0.949 . S
H2428 C2434 0.950 . S
H2429 C2435 0.950 . S
H2430 C2436 0.949 . S
C2431 H2426 0.950 . S
C2431 C2433 1.327 . S
C2431 C2437 1.429 . S
C2432 C2424 1.574 . S
C2432 H2427 0.949 . S
C2432 C2438 1.368 . S
C2433 C2417 1.349 . S
C2433 H2425 0.950 . S
C2433 C2431 1.327 . S
C2434 C2422 1.349 . S
C2434 H2428 0.950 . S
C2434 C2435 1.327 . S
C2435 H2429 0.950 . S
C2435 C2434 1.327 . S
C2435 C2439 1.429 . S
C2436 C2419 1.574 . S
C2436 H2430 0.949 . S
C2436 C2440 1.368 . S
C2437 C2418 1.429 . S
C2437 C2431 1.429 . S
C2437 C2438 1.523 . S
C2438 C2419 1.368 . S
C2438 C2432 1.368 . S
C2438 C2437 1.523 . S
C2439 C2423 1.429 . S
C2439 C2435 1.429 . S
C2439 C2440 1.523 . S
C2440 C2424 1.368 . S
C2440 C2436 1.368 . S
C2440 C2439 1.523 . S
H2441 C2416 0.950 . S
H2442 C2418 0.950 . S
H2443 C2419 0.949 . S
H2444 C2421 0.950 . S
H2445 C2423 0.950 . S
C2446 C2447 1.349 . S
C2446 C2448 1.327 . S
C2446 H2471 0.950 . S
C2447 C2446 1.349 . S
C2447 C2463 1.349 . S
C2448 C2446 1.327 . S
C2448 C2467 1.429 . S
C2448 H2472 0.950 . S
C2449 C2466 1.574 . S
C2449 C2468 1.368 . S
C2449 H2473 0.949 . S
H2450 C2454 0.949 . S
C2451 C2452 1.349 . S
C2451 C2453 1.327 . S
C2451 H2474 0.950 . S
C2452 C2451 1.349 . S
C2452 C2464 1.349 . S
C2453 C2451 1.327 . S
C2453 C2469 1.429 . S
C2453 H2475 0.950 . S
C2454 H2450 0.949 . S
C2454 C2462 1.574 . S
C2454 C2470 1.368 . S
H2455 C2463 0.950 . S
H2456 C2461 0.950 . S
H2457 C2462 0.949 . S
H2458 C2464 0.950 . S
H2459 C2465 0.950 . S
H2460 C2466 0.949 . S
C2461 H2456 0.950 . S
C2461 C2463 1.327 . S
C2461 C2467 1.429 . S
C2462 C2454 1.574 . S
C2462 H2457 0.949 . S
C2462 C2468 1.368 . S
C2463 C2447 1.349 . S
C2463 H2455 0.950 . S
C2463 C2461 1.327 . S
C2464 C2452 1.349 . S
C2464 H2458 0.950 . S
C2464 C2465 1.327 . S
C2465 H2459 0.950 . S
C2465 C2464 1.327 . S
C2465 C2469 1.429 . S
C2466 C2449 1.574 . S
C2466 H2460 0.949 . S
C2466 C2470 1.368 . S
C2467 C2448 1.429 . S
C2467 C2461 1.429 . S
C2467 C2468 1.523 . S
C2468 C2449 1.368 . S
C2468 C2462 1.368 . S
C2468 C2467 1.523 . S
C2469 C2453 1.429 . S
C2469 C2465 1.429 . S
C2469 C2470 1.523 . S
C2470 C2454 1.368 . S
C2470 C2466 1.368 . S
C2470 C2469 1.523 . S
H2471 C2446 0.950 . S
H2472 C2448 0.950 . S
H2473 C2449 0.949 . S
H2474 C2451 0.950 . S
H2475 C2453 0.950 . S
C2476 C2477 1.349 . S
C2476 C2478 1.327 . S
C2476 H2501 0.950 . S
C2477 C2476 1.349 . S
C2477 C2493 1.349 1_455 S
C2478 C2476 1.327 . S
C2478 C2497 1.429 . S
C2478 H2502 0.950 . S
C2479 C2496 1.574 . S
C2479 C2498 1.368 . S
C2479 H2503 0.949 1_455 S
H2480 C2484 0.949 1_554 S
C2481 C2482 1.323 1_556 S
C2481 C2483 1.341 . S
C2481 H2504 0.963 . S
C2482 C2481 1.323 1_554 S
C2482 C2494 1.349 . S
C2483 C2481 1.341 . S
C2483 C2499 1.429 . S
C2483 H2505 0.950 . S
C2484 H2480 0.949 1_556 S
C2484 C2492 1.574 . S
C2484 C2500 1.368 . S
H2485 C2493 0.950 . S
H2486 C2491 0.984 . S
H2487 C2492 0.949 . S
H2488 C2494 0.950 . S
H2489 C2495 0.950 . S
H2490 C2496 0.905 1_655 S
C2491 H2486 0.984 . S
C2491 C2493 1.318 . S
C2491 C2497 1.406 1_655 S
C2492 C2484 1.574 . S
C2492 H2487 0.949 . S
C2492 C2498 1.368 . S
C2493 C2477 1.349 1_655 S
C2493 H2485 0.950 . S
C2493 C2491 1.318 . S
C2494 C2482 1.349 . S
C2494 H2488 0.950 . S
C2494 C2495 1.327 . S
C2495 H2489 0.950 . S
C2495 C2494 1.327 . S
C2495 C2499 1.429 1_554 S
C2496 C2479 1.574 . S
C2496 H2490 0.905 1_455 S
C2496 C2500 1.368 . S
C2497 C2478 1.429 . S
C2497 C2491 1.406 1_455 S
C2497 C2498 1.523 . S
C2498 C2479 1.368 . S
C2498 C2492 1.368 . S
C2498 C2497 1.523 . S
C2499 C2483 1.429 . S
C2499 C2495 1.429 1_556 S
C2499 C2500 1.523 . S
C2500 C2484 1.368 . S
C2500 C2496 1.368 . S
C2500 C2499 1.523 . S
H2501 C2476 0.950 . S
H2502 C2478 0.950 . S
H2503 C2479 0.949 1_655 S
H2504 C2481 0.963 . S
H2505 C2483 0.950 . S
C2506 C2507 1.349 . S
C2506 C2508 1.327 1_455 S
C2506 H2531 0.950 . S
C2507 C2506 1.349 . S
C2507 C2523 1.349 . S
C2508 C2506 1.327 1_655 S
C2508 C2527 1.429 . S
C2508 H2532 0.950 . S
C2509 C2526 1.574 . S
C2509 C2528 1.368 . S
C2509 H2533 0.949 . S
H2510 C2514 0.949 . S
C2511 C2512 1.349 . S
C2511 C2513 1.327 . S
C2511 H2534 0.950 . S
C2512 C2511 1.349 . S
C2512 C2524 1.349 . S
C2513 C2511 1.327 . S
C2513 C2529 1.429 . S
C2513 H2535 0.950 . S
C2514 H2510 0.949 . S
C2514 C2522 1.574 . S
C2514 C2530 1.368 . S
H2515 C2523 0.950 . S
H2516 C2521 0.950 . S
H2517 C2522 0.949 . S
H2518 C2524 0.950 . S
H2519 C2525 0.950 . S
H2520 C2526 0.949 . S
C2521 H2516 0.950 . S
C2521 C2523 1.315 1_655 S
C2521 C2527 1.440 . S
C2522 C2514 1.574 . S
C2522 H2517 0.949 . S
C2522 C2528 1.368 . S
C2523 C2507 1.349 . S
C2523 H2515 0.950 . S
C2523 C2521 1.315 1_455 S
C2524 C2512 1.349 . S
C2524 H2518 0.950 . S
C2524 C2525 1.327 . S
C2525 H2519 0.950 . S
C2525 C2524 1.327 . S
C2525 C2529 1.429 . S
C2526 C2509 1.574 . S
C2526 H2520 0.949 . S
C2526 C2530 1.368 . S
C2527 C2508 1.429 . S
C2527 C2521 1.440 . S
C2527 C2528 1.523 . S
C2528 C2509 1.368 . S
C2528 C2522 1.368 . S
C2528 C2527 1.523 . S
C2529 C2513 1.429 . S
C2529 C2525 1.429 . S
C2529 C2530 1.523 . S
C2530 C2514 1.368 . S
C2530 C2526 1.368 . S
C2530 C2529 1.523 . S
H2531 C2506 0.950 . S
H2532 C2508 0.950 . S
H2533 C2509 0.949 . S
H2534 C2511 0.950 . S
H2535 C2513 0.950 . S
C2536 C2537 1.349 . S
C2536 C2538 1.327 . S
C2536 H2561 0.950 . S
C2537 C2536 1.349 . S
C2537 C2553 1.349 . S
C2538 C2536 1.327 . S
C2538 C2557 1.429 . S
C2538 H2562 0.950 . S
C2539 C2556 1.574 . S
C2539 C2558 1.368 . S
C2539 H2563 0.949 . S
H2540 C2544 0.949 . S
C2541 C2542 1.349 . S
C2541 C2543 1.327 . S
C2541 H2564 0.950 . S
C2542 C2541 1.349 . S
C2542 C2554 1.349 . S
C2543 C2541 1.327 . S
C2543 C2559 1.429 . S
C2543 H2565 0.950 . S
C2544 H2540 0.949 . S
C2544 C2552 1.574 . S
C2544 C2560 1.368 . S
H2545 C2553 0.950 . S
H2546 C2551 0.950 . S
H2547 C2552 0.949 . S
H2548 C2554 0.950 . S
H2549 C2555 0.950 . S
H2550 C2556 0.949 . S
C2551 H2546 0.950 . S
C2551 C2553 1.327 . S
C2551 C2557 1.429 . S
C2552 C2544 1.574 . S
C2552 H2547 0.949 . S
C2552 C2558 1.368 . S
C2553 C2537 1.349 . S
C2553 H2545 0.950 . S
C2553 C2551 1.327 . S
C2554 C2542 1.349 . S
C2554 H2548 0.950 . S
C2554 C2555 1.327 . S
C2555 H2549 0.950 . S
C2555 C2554 1.327 . S
C2555 C2559 1.429 . S
C2556 C2539 1.574 . S
C2556 H2550 0.949 . S
C2556 C2560 1.368 . S
C2557 C2538 1.429 . S
C2557 C2551 1.429 . S
C2557 C2558 1.523 . S
C2558 C2539 1.368 . S
C2558 C2552 1.368 . S
C2558 C2557 1.523 . S
C2559 C2543 1.429 . S
C2559 C2555 1.429 . S
C2559 C2560 1.523 . S
C2560 C2544 1.368 . S
C2560 C2556 1.368 . S
C2560 C2559 1.523 . S
H2561 C2536 0.950 . S
H2562 C2538 0.950 . S
H2563 C2539 0.949 . S
H2564 C2541 0.950 . S
H2565 C2543 0.950 . S
C2566 C2567 1.349 . S
C2566 C2568 1.327 . S
C2566 H2591 0.950 . S
C2567 C2566 1.349 . S
C2567 C2583 1.349 . S
C2568 C2566 1.327 . S
C2568 C2587 1.429 . S
C2568 H2592 0.950 . S
C2569 C2586 1.574 . S
C2569 C2588 1.368 . S
C2569 H2593 0.949 . S
H2570 C2574 0.949 . S
C2571 C2572 1.349 . S
C2571 C2573 1.327 . S
C2571 H2594 0.950 . S
C2572 C2571 1.349 . S
C2572 C2584 1.349 . S
C2573 C2571 1.327 . S
C2573 C2589 1.429 . S
C2573 H2595 0.950 . S
C2574 H2570 0.949 . S
C2574 C2582 1.574 . S
C2574 C2590 1.368 . S
H2575 C2583 0.950 . S
H2576 C2581 0.950 . S
H2577 C2582 0.949 . S
H2578 C2584 0.950 . S
H2579 C2585 0.950 . S
H2580 C2586 0.949 . S
C2581 H2576 0.950 . S
C2581 C2583 1.327 . S
C2581 C2587 1.429 . S
C2582 C2574 1.574 . S
C2582 H2577 0.949 . S
C2582 C2588 1.368 . S
C2583 C2567 1.349 . S
C2583 H2575 0.950 . S
C2583 C2581 1.327 . S
C2584 C2572 1.349 . S
C2584 H2578 0.950 . S
C2584 C2585 1.327 . S
C2585 H2579 0.950 . S
C2585 C2584 1.327 . S
C2585 C2589 1.429 . S
C2586 C2569 1.574 . S
C2586 H2580 0.949 . S
C2586 C2590 1.368 . S
C2587 C2568 1.429 . S
C2587 C2581 1.429 . S
C2587 C2588 1.523 . S
C2588 C2569 1.368 . S
C2588 C2582 1.368 . S
C2588 C2587 1.523 . S
C2589 C2573 1.429 . S
C2589 C2585 1.429 . S
C2589 C2590 1.523 . S
C2590 C2574 1.368 . S
C2590 C2586 1.368 . S
C2590 C2589 1.523 . S
H2591 C2566 0.950 . S
H2592 C2568 0.950 . S
H2593 C2569 0.949 . S
H2594 C2571 0.950 . S
H2595 C2573 0.950 . S
C2596 C2597 1.349 . S
C2596 C2598 1.327 . S
C2596 H2621 0.950 . S
C2597 C2596 1.349 . S
C2597 C2613 1.349 . S
C2598 C2596 1.327 . S
C2598 C2617 1.429 . S
C2598 H2622 0.950 . S
C2599 C2616 1.574 . S
C2599 C2618 1.368 . S
C2599 H2623 0.949 . S
H2600 C2604 0.949 . S
C2601 C2602 1.349 . S
C2601 C2603 1.327 . S
C2601 H2624 0.950 . S
C2602 C2601 1.349 . S
C2602 C2614 1.349 . S
C2603 C2601 1.327 . S
C2603 C2619 1.429 . S
C2603 H2625 0.950 . S
C2604 H2600 0.949 . S
C2604 C2612 1.574 . S
C2604 C2620 1.368 . S
H2605 C2613 0.950 . S
H2606 C2611 0.950 . S
H2607 C2612 0.949 . S
H2608 C2614 0.950 . S
H2609 C2615 0.950 . S
H2610 C2616 0.949 . S
C2611 H2606 0.950 . S
C2611 C2613 1.327 . S
C2611 C2617 1.429 . S
C2612 C2604 1.574 . S
C2612 H2607 0.949 . S
C2612 C2618 1.368 . S
C2613 C2597 1.349 . S
C2613 H2605 0.950 . S
C2613 C2611 1.327 . S
C2614 C2602 1.349 . S
C2614 H2608 0.950 . S
C2614 C2615 1.327 . S
C2615 H2609 0.950 . S
C2615 C2614 1.327 . S
C2615 C2619 1.429 . S
C2616 C2599 1.574 . S
C2616 H2610 0.949 . S
C2616 C2620 1.368 . S
C2617 C2598 1.429 . S
C2617 C2611 1.429 . S
C2617 C2618 1.523 . S
C2618 C2599 1.368 . S
C2618 C2612 1.368 . S
C2618 C2617 1.523 . S
C2619 C2603 1.429 . S
C2619 C2615 1.429 . S
C2619 C2620 1.523 . S
C2620 C2604 1.368 . S
C2620 C2616 1.368 . S
C2620 C2619 1.523 . S
H2621 C2596 0.950 . S
H2622 C2598 0.950 . S
H2623 C2599 0.949 . S
H2624 C2601 0.950 . S
H2625 C2603 0.950 . S
C2626 C2627 1.349 . S
C2626 C2628 1.327 . S
C2626 H2651 0.950 . S
C2627 C2626 1.349 . S
C2627 C2643 1.349 . S
C2628 C2626 1.327 . S
C2628 C2647 1.429 . S
C2628 H2652 0.950 . S
C2629 C2646 1.574 . S
C2629 C2648 1.368 . S
C2629 H2653 0.949 . S
H2630 C2634 0.949 . S
C2631 C2632 1.349 . S
C2631 C2633 1.327 . S
C2631 H2654 0.950 . S
C2632 C2631 1.349 . S
C2632 C2644 1.349 . S
C2633 C2631 1.327 . S
C2633 C2649 1.429 . S
C2633 H2655 0.950 . S
C2634 H2630 0.949 . S
C2634 C2642 1.574 . S
C2634 C2650 1.368 . S
H2635 C2643 0.950 . S
H2636 C2641 0.950 . S
H2637 C2642 0.949 . S
H2638 C2644 0.950 . S
H2639 C2645 0.950 . S
H2640 C2646 0.949 . S
C2641 H2636 0.950 . S
C2641 C2643 1.327 . S
C2641 C2647 1.429 . S
C2642 C2634 1.574 . S
C2642 H2637 0.949 . S
C2642 C2648 1.368 . S
C2643 C2627 1.349 . S
C2643 H2635 0.950 . S
C2643 C2641 1.327 . S
C2644 C2632 1.349 . S
C2644 H2638 0.950 . S
C2644 C2645 1.327 . S
C2645 H2639 0.950 . S
C2645 C2644 1.327 . S
C2645 C2649 1.429 . S
C2646 C2629 1.574 . S
C2646 H2640 0.949 . S
C2646 C2650 1.368 . S
C2647 C2628 1.429 . S
C2647 C2641 1.429 . S
C2647 C2648 1.523 . S
C2648 C2629 1.368 . S
C2648 C2642 1.368 . S
C2648 C2647 1.523 . S
C2649 C2633 1.429 . S
C2649 C2645 1.429 . S
C2649 C2650 1.523 . S
C2650 C2634 1.368 . S
C2650 C2646 1.368 . S
C2650 C2649 1.523 . S
H2651 C2626 0.950 . S
H2652 C2628 0.950 . S
H2653 C2629 0.949 . S
H2654 C2631 0.950 . S
H2655 C2633 0.950 . S
C2656 C2657 1.349 . S
C2656 C2658 1.327 . S
C2656 H2681 0.950 . S
C2657 C2656 1.349 . S
C2657 C2673 1.349 . S
C2658 C2656 1.327 . S
C2658 C2677 1.429 . S
C2658 H2682 0.950 . S
C2659 C2676 1.574 . S
C2659 C2678 1.368 . S
C2659 H2683 0.949 . S
H2660 C2664 0.949 . S
C2661 C2662 1.349 . S
C2661 C2663 1.327 . S
C2661 H2684 0.950 . S
C2662 C2661 1.349 . S
C2662 C2674 1.349 . S
C2663 C2661 1.327 . S
C2663 C2679 1.429 . S
C2663 H2685 0.950 . S
C2664 H2660 0.949 . S
C2664 C2672 1.574 . S
C2664 C2680 1.368 . S
H2665 C2673 0.950 . S
H2666 C2671 0.950 . S
H2667 C2672 0.949 . S
H2668 C2674 0.950 . S
H2669 C2675 0.950 . S
H2670 C2676 0.949 . S
C2671 H2666 0.950 . S
C2671 C2673 1.327 . S
C2671 C2677 1.429 . S
C2672 C2664 1.574 . S
C2672 H2667 0.949 . S
C2672 C2678 1.368 . S
C2673 C2657 1.349 . S
C2673 H2665 0.950 . S
C2673 C2671 1.327 . S
C2674 C2662 1.349 . S
C2674 H2668 0.950 . S
C2674 C2675 1.327 . S
C2675 H2669 0.950 . S
C2675 C2674 1.327 . S
C2675 C2679 1.429 . S
C2676 C2659 1.574 . S
C2676 H2670 0.949 . S
C2676 C2680 1.368 . S
C2677 C2658 1.429 . S
C2677 C2671 1.429 . S
C2677 C2678 1.523 . S
C2678 C2659 1.368 . S
C2678 C2672 1.368 . S
C2678 C2677 1.523 . S
C2679 C2663 1.429 . S
C2679 C2675 1.429 . S
C2679 C2680 1.523 . S
C2680 C2664 1.368 . S
C2680 C2676 1.368 . S
C2680 C2679 1.523 . S
H2681 C2656 0.950 . S
H2682 C2658 0.950 . S
H2683 C2659 0.949 . S
H2684 C2661 0.950 . S
H2685 C2663 0.950 . S
C2686 C2687 1.349 . S
C2686 C2688 1.327 1_554 S
C2686 H2711 0.950 . S
C2687 C2686 1.349 . S
C2687 C2703 1.349 1_554 S
C2688 C2686 1.327 1_556 S
C2688 C2707 1.429 . S
C2688 H2712 0.950 . S
C2689 C2706 1.574 . S
C2689 C2708 1.368 . S
C2689 H2713 0.949 . S
H2690 C2694 0.949 . S
C2691 C2692 1.349 . S
C2691 C2693 1.327 . S
C2691 H2714 0.950 . S
C2692 C2691 1.349 . S
C2692 C2704 1.349 . S
C2693 C2691 1.327 . S
C2693 C2709 1.429 . S
C2693 H2715 0.950 . S
C2694 H2690 0.949 . S
C2694 C2702 1.574 . S
C2694 C2710 1.368 . S
H2695 C2703 0.950 1_554 S
H2696 C2701 0.950 . S
H2697 C2702 0.949 . S
H2698 C2704 0.950 . S
H2699 C2705 0.950 . S
H2700 C2706 0.949 . S
C2701 H2696 0.950 . S
C2701 C2703 1.327 . S
C2701 C2707 1.429 . S
C2702 C2694 1.574 . S
C2702 H2697 0.949 . S
C2702 C2708 1.368 . S
C2703 C2687 1.349 1_556 S
C2703 H2695 0.950 1_556 S
C2703 C2701 1.327 . S
C2704 C2692 1.349 . S
C2704 H2698 0.950 . S
C2704 C2705 1.327 . S
C2705 H2699 0.950 . S
C2705 C2704 1.327 . S
C2705 C2709 1.429 . S
C2706 C2689 1.574 . S
C2706 H2700 0.949 . S
C2706 C2710 1.368 . S
C2707 C2688 1.429 . S
C2707 C2701 1.429 . S
C2707 C2708 1.523 . S
C2708 C2689 1.368 . S
C2708 C2702 1.368 . S
C2708 C2707 1.523 . S
C2709 C2693 1.429 . S
C2709 C2705 1.429 . S
C2709 C2710 1.523 . S
C2710 C2694 1.368 . S
C2710 C2706 1.368 . S
C2710 C2709 1.523 . S
H2711 C2686 0.950 . S
H2712 C2688 0.950 . S
H2713 C2689 0.949 . S
H2714 C2691 0.950 . S
H2715 C2693 0.950 . S
C2716 C2717 1.349 . S
C2716 C2718 1.327 . S
C2716 H2741 0.950 . S
C2717 C2716 1.349 . S
C2717 C2733 1.349 . S
C2718 C2716 1.327 . S
C2718 C2737 1.429 . S
C2718 H2742 0.950 . S
C2719 C2736 1.574 . S
C2719 C2738 1.368 . S
C2719 H2743 0.949 . S
H2720 C2724 0.949 . S
C2721 C2722 1.349 . S
C2721 C2723 1.327 . S
C2721 H2744 0.950 . S
C2722 C2721 1.349 . S
C2722 C2734 1.349 . S
C2723 C2721 1.327 . S
C2723 C2739 1.429 . S
C2723 H2745 0.950 . S
C2724 H2720 0.949 . S
C2724 C2732 1.574 . S
C2724 C2740 1.368 . S
H2725 C2733 0.950 . S
H2726 C2731 0.950 . S
H2727 C2732 0.949 . S
H2728 C2734 0.950 . S
H2729 C2735 0.950 . S
H2730 C2736 0.949 . S
C2731 H2726 0.950 . S
C2731 C2733 1.327 . S
C2731 C2737 1.429 . S
C2732 C2724 1.574 . S
C2732 H2727 0.949 . S
C2732 C2738 1.368 . S
C2733 C2717 1.349 . S
C2733 H2725 0.950 . S
C2733 C2731 1.327 . S
C2734 C2722 1.349 . S
C2734 H2728 0.950 . S
C2734 C2735 1.327 . S
C2735 H2729 0.950 . S
C2735 C2734 1.327 . S
C2735 C2739 1.429 . S
C2736 C2719 1.574 . S
C2736 H2730 0.949 . S
C2736 C2740 1.368 . S
C2737 C2718 1.429 . S
C2737 C2731 1.429 . S
C2737 C2738 1.523 . S
C2738 C2719 1.368 . S
C2738 C2732 1.368 . S
C2738 C2737 1.523 . S
C2739 C2723 1.429 . S
C2739 C2735 1.429 . S
C2739 C2740 1.523 . S
C2740 C2724 1.368 . S
C2740 C2736 1.368 . S
C2740 C2739 1.523 . S
H2741 C2716 0.950 . S
H2742 C2718 0.950 . S
H2743 C2719 0.949 . S
H2744 C2721 0.950 . S
H2745 C2723 0.950 . S
C2746 C2747 1.349 . S
C2746 C2748 1.327 . S
C2746 H2771 0.950 . S
C2747 C2746 1.349 . S
C2747 C2763 1.349 . S
C2748 C2746 1.327 . S
C2748 C2767 1.429 . S
C2748 H2772 0.950 . S
C2749 C2766 1.574 . S
C2749 C2768 1.368 . S
C2749 H2773 0.949 . S
H2750 C2754 0.949 . S
C2751 C2752 1.349 . S
C2751 C2753 1.327 . S
C2751 H2774 0.950 . S
C2752 C2751 1.349 . S
C2752 C2764 1.349 . S
C2753 C2751 1.327 . S
C2753 C2769 1.429 . S
C2753 H2775 0.950 . S
C2754 H2750 0.949 . S
C2754 C2762 1.574 . S
C2754 C2770 1.368 . S
H2755 C2763 0.950 . S
H2756 C2761 0.950 . S
H2757 C2762 0.949 . S
H2758 C2764 0.950 . S
H2759 C2765 0.950 . S
H2760 C2766 0.949 . S
C2761 H2756 0.950 . S
C2761 C2763 1.327 . S
C2761 C2767 1.429 . S
C2762 C2754 1.574 . S
C2762 H2757 0.949 . S
C2762 C2768 1.368 . S
C2763 C2747 1.349 . S
C2763 H2755 0.950 . S
C2763 C2761 1.327 . S
C2764 C2752 1.349 . S
C2764 H2758 0.950 . S
C2764 C2765 1.327 . S
C2765 H2759 0.950 . S
C2765 C2764 1.327 . S
C2765 C2769 1.429 . S
C2766 C2749 1.574 . S
C2766 H2760 0.949 . S
C2766 C2770 1.368 . S
C2767 C2748 1.429 . S
C2767 C2761 1.429 . S
C2767 C2768 1.523 . S
C2768 C2749 1.368 . S
C2768 C2762 1.368 . S
C2768 C2767 1.523 . S
C2769 C2753 1.429 . S
C2769 C2765 1.429 . S
C2769 C2770 1.523 . S
C2770 C2754 1.368 . S
C2770 C2766 1.368 . S
C2770 C2769 1.523 . S
H2771 C2746 0.950 . S
H2772 C2748 0.950 . S
H2773 C2749 0.949 . S
H2774 C2751 0.950 . S
H2775 C2753 0.950 . S
C2776 C2777 1.349 . S
C2776 C2778 1.327 . S
C2776 H2801 0.950 . S
C2777 C2776 1.349 . S
C2777 C2793 1.349 . S
C2778 C2776 1.327 . S
C2778 C2797 1.429 . S
C2778 H2802 0.950 . S
C2779 C2796 1.574 . S
C2779 C2798 1.368 . S
C2779 H2803 0.949 . S
H2780 C2784 0.949 . S
C2781 C2782 1.349 . S
C2781 C2783 1.327 . S
C2781 H2804 0.950 . S
C2782 C2781 1.349 . S
C2782 C2794 1.349 . S
C2783 C2781 1.327 . S
C2783 C2799 1.429 . S
C2783 H2805 0.950 . S
C2784 H2780 0.949 . S
C2784 C2792 1.574 . S
C2784 C2800 1.368 . S
H2785 C2793 0.950 . S
H2786 C2791 0.950 . S
H2787 C2792 0.949 . S
H2788 C2794 0.950 . S
H2789 C2795 0.950 . S
H2790 C2796 0.949 . S
C2791 H2786 0.950 . S
C2791 C2793 1.327 . S
C2791 C2797 1.429 . S
C2792 C2784 1.574 . S
C2792 H2787 0.949 . S
C2792 C2798 1.368 . S
C2793 C2777 1.349 . S
C2793 H2785 0.950 . S
C2793 C2791 1.327 . S
C2794 C2782 1.349 . S
C2794 H2788 0.950 . S
C2794 C2795 1.327 . S
C2795 H2789 0.950 . S
C2795 C2794 1.327 . S
C2795 C2799 1.429 . S
C2796 C2779 1.574 . S
C2796 H2790 0.949 . S
C2796 C2800 1.368 . S
C2797 C2778 1.429 . S
C2797 C2791 1.429 . S
C2797 C2798 1.523 . S
C2798 C2779 1.368 . S
C2798 C2792 1.368 . S
C2798 C2797 1.523 . S
C2799 C2783 1.429 . S
C2799 C2795 1.429 . S
C2799 C2800 1.523 . S
C2800 C2784 1.368 . S
C2800 C2796 1.368 . S
C2800 C2799 1.523 . S
H2801 C2776 0.950 . S
H2802 C2778 0.950 . S
H2803 C2779 0.949 . S
H2804 C2781 0.950 . S
H2805 C2783 0.950 . S
C2806 C2807 1.349 . S
C2806 C2808 1.327 . S
C2806 H2831 0.950 . S
C2807 C2806 1.349 . S
C2807 C2823 1.349 . S
C2808 C2806 1.327 . S
C2808 C2827 1.429 . S
C2808 H2832 0.950 . S
C2809 C2826 1.574 . S
C2809 C2828 1.368 . S
C2809 H2833 0.949 . S
H2810 C2814 0.949 . S
C2811 C2812 1.349 . S
C2811 C2813 1.327 . S
C2811 H2834 0.950 . S
C2812 C2811 1.349 . S
C2812 C2824 1.349 . S
C2813 C2811 1.327 . S
C2813 C2829 1.429 . S
C2813 H2835 0.950 . S
C2814 H2810 0.949 . S
C2814 C2822 1.574 . S
C2814 C2830 1.368 . S
H2815 C2823 0.950 . S
H2816 C2821 0.950 . S
H2817 C2822 0.949 . S
H2818 C2824 0.950 . S
H2819 C2825 0.950 . S
H2820 C2826 0.949 . S
C2821 H2816 0.950 . S
C2821 C2823 1.327 . S
C2821 C2827 1.429 . S
C2822 C2814 1.574 . S
C2822 H2817 0.949 . S
C2822 C2828 1.368 . S
C2823 C2807 1.349 . S
C2823 H2815 0.950 . S
C2823 C2821 1.327 . S
C2824 C2812 1.349 . S
C2824 H2818 0.950 . S
C2824 C2825 1.327 . S
C2825 H2819 0.950 . S
C2825 C2824 1.327 . S
C2825 C2829 1.429 . S
C2826 C2809 1.574 . S
C2826 H2820 0.949 . S
C2826 C2830 1.368 . S
C2827 C2808 1.429 . S
C2827 C2821 1.429 . S
C2827 C2828 1.523 . S
C2828 C2809 1.368 . S
C2828 C2822 1.368 . S
C2828 C2827 1.523 . S
C2829 C2813 1.429 . S
C2829 C2825 1.429 . S
C2829 C2830 1.523 . S
C2830 C2814 1.368 . S
C2830 C2826 1.368 . S
C2830 C2829 1.523 . S
H2831 C2806 0.950 . S
H2832 C2808 0.950 . S
H2833 C2809 0.949 . S
H2834 C2811 0.950 . S
H2835 C2813 0.950 . S
C2836 C2837 1.349 . S
C2836 C2838 1.327 . S
C2836 H2861 0.950 . S
C2837 C2836 1.349 . S
C2837 C2853 1.349 . S
C2838 C2836 1.327 . S
C2838 C2857 1.429 . S
C2838 H2862 0.950 . S
C2839 C2856 1.574 . S
C2839 C2858 1.368 . S
C2839 H2863 0.949 . S
H2840 C2844 0.949 . S
C2841 C2842 1.349 . S
C2841 C2843 1.327 . S
C2841 H2864 0.950 . S
C2842 C2841 1.349 . S
C2842 C2854 1.349 . S
C2843 C2841 1.327 . S
C2843 C2859 1.429 . S
C2843 H2865 0.950 . S
C2844 H2840 0.949 . S
C2844 C2852 1.574 . S
C2844 C2860 1.368 . S
H2845 C2853 0.950 . S
H2846 C2851 0.950 . S
H2847 C2852 0.949 . S
H2848 C2854 0.950 . S
H2849 C2855 0.950 . S
H2850 C2856 0.949 . S
C2851 H2846 0.950 . S
C2851 C2853 1.327 . S
C2851 C2857 1.429 . S
C2852 C2844 1.574 . S
C2852 H2847 0.949 . S
C2852 C2858 1.368 . S
C2853 C2837 1.349 . S
C2853 H2845 0.950 . S
C2853 C2851 1.327 . S
C2854 C2842 1.349 . S
C2854 H2848 0.950 . S
C2854 C2855 1.327 . S
C2855 H2849 0.950 . S
C2855 C2854 1.327 . S
C2855 C2859 1.429 . S
C2856 C2839 1.574 . S
C2856 H2850 0.949 . S
C2856 C2860 1.368 . S
C2857 C2838 1.429 . S
C2857 C2851 1.429 . S
C2857 C2858 1.523 . S
C2858 C2839 1.368 . S
C2858 C2852 1.368 . S
C2858 C2857 1.523 . S
C2859 C2843 1.429 . S
C2859 C2855 1.429 . S
C2859 C2860 1.523 . S
C2860 C2844 1.368 . S
C2860 C2856 1.368 . S
C2860 C2859 1.523 . S
H2861 C2836 0.950 . S
H2862 C2838 0.950 . S
H2863 C2839 0.949 . S
H2864 C2841 0.950 . S
H2865 C2843 0.950 . S
C2866 C2867 1.349 . S
C2866 C2868 1.327 . S
C2866 H2891 0.950 . S
C2867 C2866 1.349 . S
C2867 C2883 1.349 . S
C2868 C2866 1.327 . S
C2868 C2887 1.429 . S
C2868 H2892 0.950 . S
C2869 C2886 1.574 . S
C2869 C2888 1.368 . S
C2869 H2893 0.949 . S
H2870 C2874 0.949 . S
C2871 C2872 1.349 . S
C2871 C2873 1.327 . S
C2871 H2894 0.950 . S
C2872 C2871 1.349 . S
C2872 C2884 1.349 . S
C2873 C2871 1.327 . S
C2873 C2889 1.429 . S
C2873 H2895 0.950 . S
C2874 H2870 0.949 . S
C2874 C2882 1.574 . S
C2874 C2890 1.368 . S
H2875 C2883 0.950 . S
H2876 C2881 0.950 . S
H2877 C2882 0.949 . S
H2878 C2884 0.950 . S
H2879 C2885 0.950 . S
H2880 C2886 0.949 . S
C2881 H2876 0.950 . S
C2881 C2883 1.327 . S
C2881 C2887 1.429 . S
C2882 C2874 1.574 . S
C2882 H2877 0.949 . S
C2882 C2888 1.368 . S
C2883 C2867 1.349 . S
C2883 H2875 0.950 . S
C2883 C2881 1.327 . S
C2884 C2872 1.349 . S
C2884 H2878 0.950 . S
C2884 C2885 1.327 . S
C2885 H2879 0.950 . S
C2885 C2884 1.327 . S
C2885 C2889 1.429 . S
C2886 C2869 1.574 . S
C2886 H2880 0.949 . S
C2886 C2890 1.368 . S
C2887 C2868 1.429 . S
C2887 C2881 1.429 . S
C2887 C2888 1.523 . S
C2888 C2869 1.368 . S
C2888 C2882 1.368 . S
C2888 C2887 1.523 . S
C2889 C2873 1.429 . S
C2889 C2885 1.429 . S
C2889 C2890 1.523 . S
C2890 C2874 1.368 . S
C2890 C2886 1.368 . S
C2890 C2889 1.523 . S
H2891 C2866 0.950 . S
H2892 C2868 0.950 . S
H2893 C2869 0.949 . S
H2894 C2871 0.950 . S
H2895 C2873 0.950 . S
C2896 C2897 1.349 . S
C2896 C2898 1.327 . S
C2896 H2921 0.950 . S
C2897 C2896 1.349 . S
C2897 C2913 1.349 . S
C2898 C2896 1.327 . S
C2898 C2917 1.429 . S
C2898 H2922 0.950 . S
C2899 C2916 1.574 . S
C2899 C2918 1.368 . S
C2899 H2923 0.949 . S
H2900 C2904 0.949 . S
C2901 C2902 1.349 . S
C2901 C2903 1.327 . S
C2901 H2924 0.950 . S
C2902 C2901 1.349 . S
C2902 C2914 1.349 . S
C2903 C2901 1.327 . S
C2903 C2919 1.429 . S
C2903 H2925 0.950 . S
C2904 H2900 0.949 . S
C2904 C2912 1.574 . S
C2904 C2920 1.368 . S
H2905 C2913 0.950 . S
H2906 C2911 0.950 . S
H2907 C2912 0.949 . S
H2908 C2914 0.950 . S
H2909 C2915 0.950 . S
H2910 C2916 0.949 . S
C2911 H2906 0.950 . S
C2911 C2913 1.327 . S
C2911 C2917 1.429 . S
C2912 C2904 1.574 . S
C2912 H2907 0.949 . S
C2912 C2918 1.368 . S
C2913 C2897 1.349 . S
C2913 H2905 0.950 . S
C2913 C2911 1.327 . S
C2914 C2902 1.349 . S
C2914 H2908 0.950 . S
C2914 C2915 1.327 . S
C2915 H2909 0.950 . S
C2915 C2914 1.327 . S
C2915 C2919 1.429 . S
C2916 C2899 1.574 . S
C2916 H2910 0.949 . S
C2916 C2920 1.368 . S
C2917 C2898 1.429 . S
C2917 C2911 1.429 . S
C2917 C2918 1.523 . S
C2918 C2899 1.368 . S
C2918 C2912 1.368 . S
C2918 C2917 1.523 . S
C2919 C2903 1.429 . S
C2919 C2915 1.429 . S
C2919 C2920 1.523 . S
C2920 C2904 1.368 . S
C2920 C2916 1.368 . S
C2920 C2919 1.523 . S
H2921 C2896 0.950 . S
H2922 C2898 0.950 . S
H2923 C2899 0.949 . S
H2924 C2901 0.950 . S
H2925 C2903 0.950 . S
C2926 C2927 1.349 . S
C2926 C2928 1.327 . S
C2926 H2951 0.950 . S
C2927 C2926 1.349 . S
C2927 C2943 1.349 . S
C2928 C2926 1.327 . S
C2928 C2947 1.429 . S
C2928 H2952 0.950 . S
C2929 C2946 1.574 . S
C2929 C2948 1.368 . S
C2929 H2953 0.949 . S
H2930 C2934 0.949 . S
C2931 C2932 1.349 . S
C2931 C2933 1.327 . S
C2931 H2954 0.950 . S
C2932 C2931 1.349 . S
C2932 C2944 1.349 . S
C2933 C2931 1.327 . S
C2933 C2949 1.429 . S
C2933 H2955 0.950 . S
C2934 H2930 0.949 . S
C2934 C2942 1.574 . S
C2934 C2950 1.368 . S
H2935 C2943 0.950 . S
H2936 C2941 0.950 . S
H2937 C2942 0.949 . S
H2938 C2944 0.950 . S
H2939 C2945 0.950 . S
H2940 C2946 0.949 . S
C2941 H2936 0.950 . S
C2941 C2943 1.327 . S
C2941 C2947 1.429 . S
C2942 C2934 1.574 . S
C2942 H2937 0.949 . S
C2942 C2948 1.368 . S
C2943 C2927 1.349 . S
C2943 H2935 0.950 . S
C2943 C2941 1.327 . S
C2944 C2932 1.349 . S
C2944 H2938 0.950 . S
C2944 C2945 1.327 . S
C2945 H2939 0.950 . S
C2945 C2944 1.327 . S
C2945 C2949 1.429 . S
C2946 C2929 1.574 . S
C2946 H2940 0.949 . S
C2946 C2950 1.368 . S
C2947 C2928 1.429 . S
C2947 C2941 1.429 . S
C2947 C2948 1.523 . S
C2948 C2929 1.368 . S
C2948 C2942 1.368 . S
C2948 C2947 1.523 . S
C2949 C2933 1.429 . S
C2949 C2945 1.429 . S
C2949 C2950 1.523 . S
C2950 C2934 1.368 . S
C2950 C2946 1.368 . S
C2950 C2949 1.523 . S
H2951 C2926 0.950 . S
H2952 C2928 0.950 . S
H2953 C2929 0.949 . S
H2954 C2931 0.950 . S
H2955 C2933 0.950 . S
C2956 C2957 1.349 . S
C2956 C2958 1.327 . S
C2956 H2981 0.950 1_565 S
C2957 C2956 1.349 . S
C2957 C2973 1.349 . S
C2958 C2956 1.327 . S
C2958 C2977 1.429 . S
C2958 H2982 0.950 . S
C2959 C2976 1.574 . S
C2959 C2978 1.368 . S
C2959 H2983 0.949 . S
H2960 C2964 0.949 . S
C2961 C2962 1.349 . S
C2961 C2963 1.327 . S
C2961 H2984 0.950 . S
C2962 C2961 1.349 . S
C2962 C2974 1.349 . S
C2963 C2961 1.327 . S
C2963 C2979 1.429 . S
C2963 H2985 0.950 . S
C2964 H2960 0.949 . S
C2964 C2972 1.574 . S
C2964 C2980 1.368 . S
H2965 C2973 0.950 . S
H2966 C2971 0.950 . S
H2967 C2972 0.949 . S
H2968 C2974 0.950 . S
H2969 C2975 0.950 . S
H2970 C2976 0.949 . S
C2971 H2966 0.950 . S
C2971 C2973 1.327 . S
C2971 C2977 1.429 . S
C2972 C2964 1.574 . S
C2972 H2967 0.949 . S
C2972 C2978 1.368 . S
C2973 C2957 1.349 . S
C2973 H2965 0.950 . S
C2973 C2971 1.327 . S
C2974 C2962 1.349 . S
C2974 H2968 0.950 . S
C2974 C2975 1.327 . S
C2975 H2969 0.950 . S
C2975 C2974 1.327 . S
C2975 C2979 1.429 . S
C2976 C2959 1.574 . S
C2976 H2970 0.949 . S
C2976 C2980 1.368 . S
C2977 C2958 1.429 . S
C2977 C2971 1.429 . S
C2977 C2978 1.523 . S
C2978 C2959 1.368 . S
C2978 C2972 1.368 . S
C2978 C2977 1.523 . S
C2979 C2963 1.429 . S
C2979 C2975 1.429 . S
C2979 C2980 1.523 . S
C2980 C2964 1.368 . S
C2980 C2976 1.368 . S
C2980 C2979 1.523 . S
H2981 C2956 0.950 1_545 S
H2982 C2958 0.950 . S
H2983 C2959 0.949 . S
H2984 C2961 0.950 . S
H2985 C2963 0.950 . S
C2986 C2987 1.349 . S
C2986 C2988 1.327 . S
C2986 H3011 0.950 . S
C2987 C2986 1.349 . S
C2987 C3003 1.349 1_554 S
C2988 C2986 1.327 . S
C2988 C3007 1.429 . S
C2988 H3012 0.950 . S
C2989 C3006 1.574 . S
C2989 C3008 1.368 1_556 S
C2989 H3013 0.949 . S
H2990 C2994 0.949 . S
C2991 C2992 1.349 . S
C2991 C2993 1.327 . S
C2991 H3014 0.950 1_554 S
C2992 C2991 1.349 . S
C2992 C3004 1.349 . S
C2993 C2991 1.327 . S
C2993 C3009 1.429 1_545 S
C2993 H3015 0.950 1_554 S
C2994 H2990 0.949 . S
C2994 C3002 1.574 . S
C2994 C3010 1.368 . S
H2995 C3003 0.950 . S
H2996 C3001 0.950 . S
H2997 C3002 0.949 . S
H2998 C3004 0.950 1_565 S
H2999 C3005 0.950 . S
H3000 C3006 0.949 1_545 S
C3001 H2996 0.950 . S
C3001 C3003 1.327 . S
C3001 C3007 1.429 1_556 S
C3002 C2994 1.574 . S
C3002 H2997 0.949 . S
C3002 C3008 1.368 . S
C3003 C2987 1.349 1_556 S
C3003 H2995 0.950 . S
C3003 C3001 1.327 . S
C3004 C2992 1.349 . S
C3004 H2998 0.950 1_545 S
C3004 C3005 1.327 1_545 S
C3005 H2999 0.950 . S
C3005 C3004 1.327 1_565 S
C3005 C3009 1.429 . S
C3006 C2989 1.574 . S
C3006 H3000 0.949 1_565 S
C3006 C3010 1.368 1_556 S
C3007 C2988 1.429 . S
C3007 C3001 1.429 1_554 S
C3007 C3008 1.523 . S
C3008 C2989 1.368 1_554 S
C3008 C3002 1.368 . S
C3008 C3007 1.523 . S
C3009 C2993 1.429 1_565 S
C3009 C3005 1.429 . S
C3009 C3010 1.523 . S
C3010 C2994 1.368 . S
C3010 C3006 1.368 1_554 S
C3010 C3009 1.523 . S
H3011 C2986 0.950 . S
H3012 C2988 0.950 . S
H3013 C2989 0.949 . S
H3014 C2991 0.950 1_556 S
H3015 C2993 0.950 1_556 S
C3016 C3017 1.349 . S
C3016 C3018 1.327 . S
C3016 H3041 0.950 . S
C3017 C3016 1.349 . S
C3017 C3033 1.349 . S
C3018 C3016 1.327 . S
C3018 C3037 1.429 . S
C3018 H3042 0.950 . S
C3019 C3036 1.574 . S
C3019 C3038 1.368 . S
C3019 H3043 0.949 . S
H3020 C3024 0.949 . S
C3021 C3022 1.349 . S
C3021 C3023 1.327 . S
C3021 H3044 0.950 . S
C3022 C3021 1.349 . S
C3022 C3034 1.349 . S
C3023 C3021 1.327 . S
C3023 C3039 1.429 . S
C3023 H3045 0.950 . S
C3024 H3020 0.949 . S
C3024 C3032 1.574 . S
C3024 C3040 1.368 . S
H3025 C3033 0.950 . S
H3026 C3031 0.950 . S
H3027 C3032 0.949 . S
H3028 C3034 0.950 . S
H3029 C3035 0.950 . S
H3030 C3036 0.949 . S
C3031 H3026 0.950 . S
C3031 C3033 1.327 . S
C3031 C3037 1.429 . S
C3032 C3024 1.574 . S
C3032 H3027 0.949 . S
C3032 C3038 1.368 . S
C3033 C3017 1.349 . S
C3033 H3025 0.950 . S
C3033 C3031 1.327 . S
C3034 C3022 1.349 . S
C3034 H3028 0.950 . S
C3034 C3035 1.327 . S
C3035 H3029 0.950 . S
C3035 C3034 1.327 . S
C3035 C3039 1.429 . S
C3036 C3019 1.574 . S
C3036 H3030 0.949 . S
C3036 C3040 1.368 . S
C3037 C3018 1.429 . S
C3037 C3031 1.429 . S
C3037 C3038 1.523 . S
C3038 C3019 1.368 . S
C3038 C3032 1.368 . S
C3038 C3037 1.523 . S
C3039 C3023 1.429 . S
C3039 C3035 1.429 . S
C3039 C3040 1.523 . S
C3040 C3024 1.368 . S
C3040 C3036 1.368 . S
C3040 C3039 1.523 . S
H3041 C3016 0.950 . S
H3042 C3018 0.950 . S
H3043 C3019 0.949 . S
H3044 C3021 0.950 . S
H3045 C3023 0.950 . S
C3046 C3047 1.349 . S
C3046 C3048 1.327 . S
C3046 H3071 0.950 . S
C3047 C3046 1.349 . S
C3047 C3063 1.349 . S
C3048 C3046 1.327 . S
C3048 C3067 1.429 . S
C3048 H3072 0.950 . S
C3049 C3066 1.574 . S
C3049 C3068 1.368 . S
C3049 H3073 0.949 . S
H3050 C3054 0.949 . S
C3051 C3052 1.349 . S
C3051 C3053 1.327 . S
C3051 H3074 0.950 . S
C3052 C3051 1.349 . S
C3052 C3064 1.349 . S
C3053 C3051 1.327 . S
C3053 C3069 1.429 . S
C3053 H3075 0.950 . S
C3054 H3050 0.949 . S
C3054 C3062 1.574 . S
C3054 C3070 1.368 . S
H3055 C3063 0.950 . S
H3056 C3061 0.950 . S
H3057 C3062 0.949 . S
H3058 C3064 0.950 . S
H3059 C3065 0.950 . S
H3060 C3066 0.949 . S
C3061 H3056 0.950 . S
C3061 C3063 1.327 . S
C3061 C3067 1.429 . S
C3062 C3054 1.574 . S
C3062 H3057 0.949 . S
C3062 C3068 1.368 . S
C3063 C3047 1.349 . S
C3063 H3055 0.950 . S
C3063 C3061 1.327 . S
C3064 C3052 1.349 . S
C3064 H3058 0.950 . S
C3064 C3065 1.327 . S
C3065 H3059 0.950 . S
C3065 C3064 1.327 . S
C3065 C3069 1.429 . S
C3066 C3049 1.574 . S
C3066 H3060 0.949 . S
C3066 C3070 1.368 . S
C3067 C3048 1.429 . S
C3067 C3061 1.429 . S
C3067 C3068 1.523 . S
C3068 C3049 1.368 . S
C3068 C3062 1.368 . S
C3068 C3067 1.523 . S
C3069 C3053 1.429 . S
C3069 C3065 1.429 . S
C3069 C3070 1.523 . S
C3070 C3054 1.368 . S
C3070 C3066 1.368 . S
C3070 C3069 1.523 . S
H3071 C3046 0.950 . S
H3072 C3048 0.950 . S
H3073 C3049 0.949 . S
H3074 C3051 0.950 . S
H3075 C3053 0.950 . S
C3076 C3077 1.349 . S
C3076 C3078 1.327 . S
C3076 H3101 0.950 . S
C3077 C3076 1.349 . S
C3077 C3093 1.349 . S
C3078 C3076 1.327 . S
C3078 C3097 1.429 . S
C3078 H3102 0.950 . S
C3079 C3096 1.574 . S
C3079 C3098 1.368 . S
C3079 H3103 0.949 . S
H3080 C3084 0.949 . S
C3081 C3082 1.349 . S
C3081 C3083 1.327 . S
C3081 H3104 0.950 . S
C3082 C3081 1.349 . S
C3082 C3094 1.349 . S
C3083 C3081 1.327 . S
C3083 C3099 1.429 . S
C3083 H3105 0.950 . S
C3084 H3080 0.949 . S
C3084 C3092 1.574 . S
C3084 C3100 1.368 . S
H3085 C3093 0.950 . S
H3086 C3091 0.950 . S
H3087 C3092 0.949 . S
H3088 C3094 0.950 . S
H3089 C3095 0.950 . S
H3090 C3096 0.949 . S
C3091 H3086 0.950 . S
C3091 C3093 1.327 . S
C3091 C3097 1.429 . S
C3092 C3084 1.574 . S
C3092 H3087 0.949 . S
C3092 C3098 1.368 . S
C3093 C3077 1.349 . S
C3093 H3085 0.950 . S
C3093 C3091 1.327 . S
C3094 C3082 1.349 . S
C3094 H3088 0.950 . S
C3094 C3095 1.327 . S
C3095 H3089 0.950 . S
C3095 C3094 1.327 . S
C3095 C3099 1.429 . S
C3096 C3079 1.574 . S
C3096 H3090 0.949 . S
C3096 C3100 1.368 . S
C3097 C3078 1.429 . S
C3097 C3091 1.429 . S
C3097 C3098 1.523 . S
C3098 C3079 1.368 . S
C3098 C3092 1.368 . S
C3098 C3097 1.523 . S
C3099 C3083 1.429 . S
C3099 C3095 1.429 . S
C3099 C3100 1.523 . S
C3100 C3084 1.368 . S
C3100 C3096 1.368 . S
C3100 C3099 1.523 . S
H3101 C3076 0.950 . S
H3102 C3078 0.950 . S
H3103 C3079 0.949 . S
H3104 C3081 0.950 . S
H3105 C3083 0.950 . S
C3106 C3107 1.349 . S
C3106 C3108 1.327 . S
C3106 H3131 0.950 . S
C3107 C3106 1.349 . S
C3107 C3123 1.349 . S
C3108 C3106 1.327 . S
C3108 C3127 1.429 . S
C3108 H3132 0.950 . S
C3109 C3126 1.574 . S
C3109 C3128 1.368 . S
C3109 H3133 0.949 . S
H3110 C3114 0.949 . S
C3111 C3112 1.349 . S
C3111 C3113 1.327 . S
C3111 H3134 0.950 . S
C3112 C3111 1.349 . S
C3112 C3124 1.349 . S
C3113 C3111 1.327 . S
C3113 C3129 1.429 . S
C3113 H3135 0.950 . S
C3114 H3110 0.949 . S
C3114 C3122 1.574 . S
C3114 C3130 1.368 . S
H3115 C3123 0.950 . S
H3116 C3121 0.950 . S
H3117 C3122 0.949 . S
H3118 C3124 0.950 . S
H3119 C3125 0.950 . S
H3120 C3126 0.949 . S
C3121 H3116 0.950 . S
C3121 C3123 1.327 . S
C3121 C3127 1.429 . S
C3122 C3114 1.574 . S
C3122 H3117 0.949 . S
C3122 C3128 1.368 . S
C3123 C3107 1.349 . S
C3123 H3115 0.950 . S
C3123 C3121 1.327 . S
C3124 C3112 1.349 . S
C3124 H3118 0.950 . S
C3124 C3125 1.327 . S
C3125 H3119 0.950 . S
C3125 C3124 1.327 . S
C3125 C3129 1.429 . S
C3126 C3109 1.574 . S
C3126 H3120 0.949 . S
C3126 C3130 1.368 . S
C3127 C3108 1.429 . S
C3127 C3121 1.429 . S
C3127 C3128 1.523 . S
C3128 C3109 1.368 . S
C3128 C3122 1.368 . S
C3128 C3127 1.523 . S
C3129 C3113 1.429 . S
C3129 C3125 1.429 . S
C3129 C3130 1.523 . S
C3130 C3114 1.368 . S
C3130 C3126 1.368 . S
C3130 C3129 1.523 . S
H3131 C3106 0.950 . S
H3132 C3108 0.950 . S
H3133 C3109 0.949 . S
H3134 C3111 0.950 . S
H3135 C3113 0.950 . S
C3136 C3137 1.349 . S
C3136 C3138 1.327 . S
C3136 H3161 0.950 . S
C3137 C3136 1.349 . S
C3137 C3153 1.349 . S
C3138 C3136 1.327 . S
C3138 C3157 1.429 . S
C3138 H3162 0.950 . S
C3139 C3156 1.574 . S
C3139 C3158 1.368 . S
C3139 H3163 0.949 . S
H3140 C3144 0.949 . S
C3141 C3142 1.349 . S
C3141 C3143 1.327 . S
C3141 H3164 0.950 . S
C3142 C3141 1.349 . S
C3142 C3154 1.349 . S
C3143 C3141 1.327 . S
C3143 C3159 1.429 . S
C3143 H3165 0.950 . S
C3144 H3140 0.949 . S
C3144 C3152 1.574 . S
C3144 C3160 1.368 . S
H3145 C3153 0.950 . S
H3146 C3151 0.950 . S
H3147 C3152 0.949 . S
H3148 C3154 0.950 . S
H3149 C3155 0.950 . S
H3150 C3156 0.949 . S
C3151 H3146 0.950 . S
C3151 C3153 1.327 . S
C3151 C3157 1.429 . S
C3152 C3144 1.574 . S
C3152 H3147 0.949 . S
C3152 C3158 1.368 . S
C3153 C3137 1.349 . S
C3153 H3145 0.950 . S
C3153 C3151 1.327 . S
C3154 C3142 1.349 . S
C3154 H3148 0.950 . S
C3154 C3155 1.327 . S
C3155 H3149 0.950 . S
C3155 C3154 1.327 . S
C3155 C3159 1.429 . S
C3156 C3139 1.574 . S
C3156 H3150 0.949 . S
C3156 C3160 1.368 . S
C3157 C3138 1.429 . S
C3157 C3151 1.429 . S
C3157 C3158 1.523 . S
C3158 C3139 1.368 . S
C3158 C3152 1.368 . S
C3158 C3157 1.523 . S
C3159 C3143 1.429 . S
C3159 C3155 1.429 . S
C3159 C3160 1.523 . S
C3160 C3144 1.368 . S
C3160 C3156 1.368 . S
C3160 C3159 1.523 . S
H3161 C3136 0.950 . S
H3162 C3138 0.950 . S
H3163 C3139 0.949 . S
H3164 C3141 0.950 . S
H3165 C3143 0.950 . S
C3166 C3167 1.349 . S
C3166 C3168 1.327 . S
C3166 H3191 0.950 . S
C3167 C3166 1.349 . S
C3167 C3183 1.349 . S
C3168 C3166 1.327 . S
C3168 C3187 1.429 . S
C3168 H3192 0.950 . S
C3169 C3186 1.574 . S
C3169 C3188 1.368 . S
C3169 H3193 0.949 . S
H3170 C3174 0.949 . S
C3171 C3172 1.349 . S
C3171 C3173 1.327 . S
C3171 H3194 0.950 . S
C3172 C3171 1.349 . S
C3172 C3184 1.349 . S
C3173 C3171 1.327 . S
C3173 C3189 1.429 . S
C3173 H3195 0.950 . S
C3174 H3170 0.949 . S
C3174 C3182 1.574 . S
C3174 C3190 1.368 . S
H3175 C3183 0.950 . S
H3176 C3181 0.950 . S
H3177 C3182 0.949 . S
H3178 C3184 0.950 . S
H3179 C3185 0.950 . S
H3180 C3186 0.949 . S
C3181 H3176 0.950 . S
C3181 C3183 1.327 . S
C3181 C3187 1.429 . S
C3182 C3174 1.574 . S
C3182 H3177 0.949 . S
C3182 C3188 1.368 . S
C3183 C3167 1.349 . S
C3183 H3175 0.950 . S
C3183 C3181 1.327 . S
C3184 C3172 1.349 . S
C3184 H3178 0.950 . S
C3184 C3185 1.327 . S
C3185 H3179 0.950 . S
C3185 C3184 1.327 . S
C3185 C3189 1.429 . S
C3186 C3169 1.574 . S
C3186 H3180 0.949 . S
C3186 C3190 1.368 . S
C3187 C3168 1.429 . S
C3187 C3181 1.429 . S
C3187 C3188 1.523 . S
C3188 C3169 1.368 . S
C3188 C3182 1.368 . S
C3188 C3187 1.523 . S
C3189 C3173 1.429 . S
C3189 C3185 1.429 . S
C3189 C3190 1.523 . S
C3190 C3174 1.368 . S
C3190 C3186 1.368 . S
C3190 C3189 1.523 . S
H3191 C3166 0.950 . S
H3192 C3168 0.950 . S
H3193 C3169 0.949 . S
H3194 C3171 0.950 . S
H3195 C3173 0.950 . S
C3196 C3197 1.349 . S
C3196 C3198 1.327 . S
C3196 H3221 0.950 . S
C3197 C3196 1.349 . S
C3197 C3213 1.349 . S
C3198 C3196 1.327 . S
C3198 C3217 1.429 . S
C3198 H3222 0.950 . S
C3199 C3216 1.574 . S
C3199 C3218 1.368 . S
C3199 H3223 0.949 . S
H3200 C3204 0.949 . S
C3201 C3202 1.349 . S
C3201 C3203 1.327 . S
C3201 H3224 0.950 . S
C3202 C3201 1.349 . S
C3202 C3214 1.349 . S
C3203 C3201 1.327 . S
C3203 C3219 1.429 . S
C3203 H3225 0.950 . S
C3204 H3200 0.949 . S
C3204 C3212 1.574 . S
C3204 C3220 1.368 . S
H3205 C3213 0.950 . S
H3206 C3211 0.950 . S
H3207 C3212 0.949 . S
H3208 C3214 0.950 . S
H3209 C3215 0.950 . S
H3210 C3216 0.949 . S
C3211 H3206 0.950 . S
C3211 C3213 1.327 . S
C3211 C3217 1.429 . S
C3212 C3204 1.574 . S
C3212 H3207 0.949 . S
C3212 C3218 1.368 . S
C3213 C3197 1.349 . S
C3213 H3205 0.950 . S
C3213 C3211 1.327 . S
C3214 C3202 1.349 . S
C3214 H3208 0.950 . S
C3214 C3215 1.327 . S
C3215 H3209 0.950 . S
C3215 C3214 1.327 . S
C3215 C3219 1.429 . S
C3216 C3199 1.574 . S
C3216 H3210 0.949 . S
C3216 C3220 1.368 . S
C3217 C3198 1.429 . S
C3217 C3211 1.429 . S
C3217 C3218 1.523 . S
C3218 C3199 1.368 . S
C3218 C3212 1.368 . S
C3218 C3217 1.523 . S
C3219 C3203 1.429 . S
C3219 C3215 1.429 . S
C3219 C3220 1.523 . S
C3220 C3204 1.368 . S
C3220 C3216 1.368 . S
C3220 C3219 1.523 . S
H3221 C3196 0.950 . S
H3222 C3198 0.950 . S
H3223 C3199 0.949 . S
H3224 C3201 0.950 . S
H3225 C3203 0.950 . S
C3226 C3227 1.349 . S
C3226 C3228 1.327 . S
C3226 H3251 0.950 . S
C3227 C3226 1.349 . S
C3227 C3243 1.349 . S
C3228 C3226 1.327 . S
C3228 C3247 1.429 . S
C3228 H3252 0.950 . S
C3229 C3246 1.574 . S
C3229 C3248 1.368 . S
C3229 H3253 0.949 . S
H3230 C3234 0.949 . S
C3231 C3232 1.349 . S
C3231 C3233 1.327 . S
C3231 H3254 0.950 . S
C3232 C3231 1.349 . S
C3232 C3244 1.349 . S
C3233 C3231 1.327 . S
C3233 C3249 1.429 . S
C3233 H3255 0.950 . S
C3234 H3230 0.949 . S
C3234 C3242 1.574 . S
C3234 C3250 1.368 . S
H3235 C3243 0.950 . S
H3236 C3241 0.950 . S
H3237 C3242 0.949 . S
H3238 C3244 0.950 . S
H3239 C3245 0.950 . S
H3240 C3246 0.949 . S
C3241 H3236 0.950 . S
C3241 C3243 1.327 . S
C3241 C3247 1.429 . S
C3242 C3234 1.574 . S
C3242 H3237 0.949 . S
C3242 C3248 1.368 . S
C3243 C3227 1.349 . S
C3243 H3235 0.950 . S
C3243 C3241 1.327 . S
C3244 C3232 1.349 . S
C3244 H3238 0.950 . S
C3244 C3245 1.327 . S
C3245 H3239 0.950 . S
C3245 C3244 1.327 . S
C3245 C3249 1.429 . S
C3246 C3229 1.574 . S
C3246 H3240 0.949 . S
C3246 C3250 1.368 . S
C3247 C3228 1.429 . S
C3247 C3241 1.429 . S
C3247 C3248 1.523 . S
C3248 C3229 1.368 . S
C3248 C3242 1.368 . S
C3248 C3247 1.523 . S
C3249 C3233 1.429 . S
C3249 C3245 1.429 . S
C3249 C3250 1.523 . S
C3250 C3234 1.368 . S
C3250 C3246 1.368 . S
C3250 C3249 1.523 . S
H3251 C3226 0.950 . S
H3252 C3228 0.950 . S
H3253 C3229 0.949 . S
H3254 C3231 0.950 . S
H3255 C3233 0.950 . S
C3256 C3257 1.349 . S
C3256 C3258 1.327 . S
C3256 H3281 0.950 . S
C3257 C3256 1.349 . S
C3257 C3273 1.349 . S
C3258 C3256 1.327 . S
C3258 C3277 1.429 . S
C3258 H3282 0.950 . S
C3259 C3276 1.574 . S
C3259 C3278 1.368 . S
C3259 H3283 0.949 . S
H3260 C3264 0.949 . S
C3261 C3262 1.349 . S
C3261 C3263 1.327 . S
C3261 H3284 0.950 . S
C3262 C3261 1.349 . S
C3262 C3274 1.349 . S
C3263 C3261 1.327 . S
C3263 C3279 1.429 . S
C3263 H3285 0.950 . S
C3264 H3260 0.949 . S
C3264 C3272 1.574 . S
C3264 C3280 1.368 . S
H3265 C3273 0.950 . S
H3266 C3271 0.950 . S
H3267 C3272 0.949 . S
H3268 C3274 0.950 1_554 S
H3269 C3275 0.950 . S
H3270 C3276 0.949 . S
C3271 H3266 0.950 . S
C3271 C3273 1.327 . S
C3271 C3277 1.429 . S
C3272 C3264 1.574 . S
C3272 H3267 0.949 . S
C3272 C3278 1.368 . S
C3273 C3257 1.349 . S
C3273 H3265 0.950 . S
C3273 C3271 1.327 . S
C3274 C3262 1.349 . S
C3274 H3268 0.950 1_556 S
C3274 C3275 1.327 . S
C3275 H3269 0.950 . S
C3275 C3274 1.327 . S
C3275 C3279 1.429 . S
C3276 C3259 1.574 . S
C3276 H3270 0.949 . S
C3276 C3280 1.368 . S
C3277 C3258 1.429 . S
C3277 C3271 1.429 . S
C3277 C3278 1.523 . S
C3278 C3259 1.368 . S
C3278 C3272 1.368 . S
C3278 C3277 1.523 . S
C3279 C3263 1.429 . S
C3279 C3275 1.429 . S
C3279 C3280 1.523 . S
C3280 C3264 1.368 . S
C3280 C3276 1.368 . S
C3280 C3279 1.523 . S
H3281 C3256 0.950 . S
H3282 C3258 0.950 . S
H3283 C3259 0.949 . S
H3284 C3261 0.950 . S
H3285 C3263 0.950 . S
C3286 C3287 1.349 . S
C3286 C3288 1.327 . S
C3286 H3311 0.950 . S
C3287 C3286 1.349 . S
C3287 C3303 1.349 . S
C3288 C3286 1.327 . S
C3288 C3307 1.429 . S
C3288 H3312 0.950 . S
C3289 C3306 1.574 . S
C3289 C3308 1.368 . S
C3289 H3313 0.949 . S
H3290 C3294 0.949 . S
C3291 C3292 1.349 . S
C3291 C3293 1.327 . S
C3291 H3314 0.950 . S
C3292 C3291 1.349 . S
C3292 C3304 1.349 . S
C3293 C3291 1.327 . S
C3293 C3309 1.429 . S
C3293 H3315 0.950 . S
C3294 H3290 0.949 . S
C3294 C3302 1.574 . S
C3294 C3310 1.368 . S
H3295 C3303 0.950 . S
H3296 C3301 0.950 . S
H3297 C3302 0.949 . S
H3298 C3304 0.950 . S
H3299 C3305 0.950 . S
H3300 C3306 0.949 . S
C3301 H3296 0.950 . S
C3301 C3303 1.327 . S
C3301 C3307 1.429 . S
C3302 C3294 1.574 . S
C3302 H3297 0.949 . S
C3302 C3308 1.368 . S
C3303 C3287 1.349 . S
C3303 H3295 0.950 . S
C3303 C3301 1.327 . S
C3304 C3292 1.349 . S
C3304 H3298 0.950 . S
C3304 C3305 1.327 . S
C3305 H3299 0.950 . S
C3305 C3304 1.327 . S
C3305 C3309 1.429 . S
C3306 C3289 1.574 . S
C3306 H3300 0.949 . S
C3306 C3310 1.368 . S
C3307 C3288 1.429 . S
C3307 C3301 1.429 . S
C3307 C3308 1.523 . S
C3308 C3289 1.368 . S
C3308 C3302 1.368 . S
C3308 C3307 1.523 . S
C3309 C3293 1.429 . S
C3309 C3305 1.429 . S
C3309 C3310 1.523 . S
C3310 C3294 1.368 . S
C3310 C3306 1.368 . S
C3310 C3309 1.523 . S
H3311 C3286 0.950 . S
H3312 C3288 0.950 . S
H3313 C3289 0.949 . S
H3314 C3291 0.950 . S
H3315 C3293 0.950 . S
C3316 C3317 1.349 . S
C3316 C3318 1.327 . S
C3316 H3341 0.950 . S
C3317 C3316 1.349 . S
C3317 C3333 1.349 . S
C3318 C3316 1.327 . S
C3318 C3337 1.429 . S
C3318 H3342 0.950 . S
C3319 C3336 1.574 . S
C3319 C3338 1.368 . S
C3319 H3343 0.949 . S
H3320 C3324 0.949 . S
C3321 C3322 1.349 . S
C3321 C3323 1.327 . S
C3321 H3344 0.950 . S
C3322 C3321 1.349 . S
C3322 C3334 1.349 . S
C3323 C3321 1.327 . S
C3323 C3339 1.429 . S
C3323 H3345 0.950 . S
C3324 H3320 0.949 . S
C3324 C3332 1.574 . S
C3324 C3340 1.368 . S
H3325 C3333 0.950 . S
H3326 C3331 0.950 . S
H3327 C3332 0.949 . S
H3328 C3334 0.950 . S
H3329 C3335 0.950 . S
H3330 C3336 0.949 . S
C3331 H3326 0.950 . S
C3331 C3333 1.327 . S
C3331 C3337 1.429 . S
C3332 C3324 1.574 . S
C3332 H3327 0.949 . S
C3332 C3338 1.368 . S
C3333 C3317 1.349 . S
C3333 H3325 0.950 . S
C3333 C3331 1.327 . S
C3334 C3322 1.349 . S
C3334 H3328 0.950 . S
C3334 C3335 1.327 . S
C3335 H3329 0.950 . S
C3335 C3334 1.327 . S
C3335 C3339 1.429 . S
C3336 C3319 1.574 . S
C3336 H3330 0.949 . S
C3336 C3340 1.368 . S
C3337 C3318 1.429 . S
C3337 C3331 1.429 . S
C3337 C3338 1.523 . S
C3338 C3319 1.368 . S
C3338 C3332 1.368 . S
C3338 C3337 1.523 . S
C3339 C3323 1.429 . S
C3339 C3335 1.429 . S
C3339 C3340 1.523 . S
C3340 C3324 1.368 . S
C3340 C3336 1.368 . S
C3340 C3339 1.523 . S
H3341 C3316 0.950 . S
H3342 C3318 0.950 . S
H3343 C3319 0.949 . S
H3344 C3321 0.950 . S
H3345 C3323 0.950 . S
C3346 C3347 1.349 . S
C3346 C3348 1.327 . S
C3346 H3371 0.950 . S
C3347 C3346 1.349 . S
C3347 C3363 1.349 . S
C3348 C3346 1.327 . S
C3348 C3367 1.429 . S
C3348 H3372 0.950 . S
C3349 C3366 1.574 . S
C3349 C3368 1.368 . S
C3349 H3373 0.949 . S
H3350 C3354 0.949 . S
C3351 C3352 1.349 . S
C3351 C3353 1.327 . S
C3351 H3374 0.950 . S
C3352 C3351 1.349 . S
C3352 C3364 1.349 . S
C3353 C3351 1.327 . S
C3353 C3369 1.429 . S
C3353 H3375 0.950 . S
C3354 H3350 0.949 . S
C3354 C3362 1.574 . S
C3354 C3370 1.368 . S
H3355 C3363 0.950 . S
H3356 C3361 0.950 . S
H3357 C3362 0.949 . S
H3358 C3364 0.950 . S
H3359 C3365 0.950 . S
H3360 C3366 0.949 . S
C3361 H3356 0.950 . S
C3361 C3363 1.327 . S
C3361 C3367 1.429 . S
C3362 C3354 1.574 . S
C3362 H3357 0.949 . S
C3362 C3368 1.368 . S
C3363 C3347 1.349 . S
C3363 H3355 0.950 . S
C3363 C3361 1.327 . S
C3364 C3352 1.349 . S
C3364 H3358 0.950 . S
C3364 C3365 1.327 . S
C3365 H3359 0.950 . S
C3365 C3364 1.327 . S
C3365 C3369 1.429 . S
C3366 C3349 1.574 . S
C3366 H3360 0.949 . S
C3366 C3370 1.368 . S
C3367 C3348 1.429 . S
C3367 C3361 1.429 . S
C3367 C3368 1.523 . S
C3368 C3349 1.368 . S
C3368 C3362 1.368 . S
C3368 C3367 1.523 . S
C3369 C3353 1.429 . S
C3369 C3365 1.429 . S
C3369 C3370 1.523 . S
C3370 C3354 1.368 . S
C3370 C3366 1.368 . S
C3370 C3369 1.523 . S
H3371 C3346 0.950 . S
H3372 C3348 0.950 . S
H3373 C3349 0.949 . S
H3374 C3351 0.950 . S
H3375 C3353 0.950 . S
C3376 C3377 1.349 . S
C3376 C3378 1.327 . S
C3376 H3401 0.950 . S
C3377 C3376 1.349 . S
C3377 C3393 1.349 . S
C3378 C3376 1.327 . S
C3378 C3397 1.429 . S
C3378 H3402 0.950 . S
C3379 C3396 1.574 . S
C3379 C3398 1.368 . S
C3379 H3403 0.949 . S
H3380 C3384 0.949 . S
C3381 C3382 1.349 . S
C3381 C3383 1.327 . S
C3381 H3404 0.950 . S
C3382 C3381 1.349 . S
C3382 C3394 1.349 . S
C3383 C3381 1.327 . S
C3383 C3399 1.429 . S
C3383 H3405 0.950 . S
C3384 H3380 0.949 . S
C3384 C3392 1.574 . S
C3384 C3400 1.368 . S
H3385 C3393 0.950 . S
H3386 C3391 0.950 . S
H3387 C3392 0.949 . S
H3388 C3394 0.950 . S
H3389 C3395 0.950 . S
H3390 C3396 0.949 . S
C3391 H3386 0.950 . S
C3391 C3393 1.327 . S
C3391 C3397 1.429 . S
C3392 C3384 1.574 . S
C3392 H3387 0.949 . S
C3392 C3398 1.368 . S
C3393 C3377 1.349 . S
C3393 H3385 0.950 . S
C3393 C3391 1.327 . S
C3394 C3382 1.349 . S
C3394 H3388 0.950 . S
C3394 C3395 1.327 . S
C3395 H3389 0.950 . S
C3395 C3394 1.327 . S
C3395 C3399 1.429 . S
C3396 C3379 1.574 . S
C3396 H3390 0.949 . S
C3396 C3400 1.368 . S
C3397 C3378 1.429 . S
C3397 C3391 1.429 . S
C3397 C3398 1.523 . S
C3398 C3379 1.368 . S
C3398 C3392 1.368 . S
C3398 C3397 1.523 . S
C3399 C3383 1.429 . S
C3399 C3395 1.429 . S
C3399 C3400 1.523 . S
C3400 C3384 1.368 . S
C3400 C3396 1.368 . S
C3400 C3399 1.523 . S
H3401 C3376 0.950 . S
H3402 C3378 0.950 . S
H3403 C3379 0.949 . S
H3404 C3381 0.950 . S
H3405 C3383 0.950 . S
C3406 C3407 1.349 . S
C3406 C3408 1.327 . S
C3406 H3431 0.950 . S
C3407 C3406 1.349 . S
C3407 C3423 1.349 . S
C3408 C3406 1.327 . S
C3408 C3427 1.429 . S
C3408 H3432 0.950 . S
C3409 C3426 1.574 . S
C3409 C3428 1.368 . S
C3409 H3433 0.949 . S
H3410 C3414 0.949 . S
C3411 C3412 1.349 . S
C3411 C3413 1.327 . S
C3411 H3434 0.950 . S
C3412 C3411 1.349 . S
C3412 C3424 1.349 . S
C3413 C3411 1.327 . S
C3413 C3429 1.429 . S
C3413 H3435 0.950 . S
C3414 H3410 0.949 . S
C3414 C3422 1.574 . S
C3414 C3430 1.368 . S
H3415 C3423 0.950 . S
H3416 C3421 0.950 . S
H3417 C3422 0.949 . S
H3418 C3424 0.950 . S
H3419 C3425 0.950 . S
H3420 C3426 0.949 . S
C3421 H3416 0.950 . S
C3421 C3423 1.327 . S
C3421 C3427 1.429 . S
C3422 C3414 1.574 . S
C3422 H3417 0.949 . S
C3422 C3428 1.368 . S
C3423 C3407 1.349 . S
C3423 H3415 0.950 . S
C3423 C3421 1.327 . S
C3424 C3412 1.349 . S
C3424 H3418 0.950 . S
C3424 C3425 1.327 . S
C3425 H3419 0.950 . S
C3425 C3424 1.327 . S
C3425 C3429 1.429 . S
C3426 C3409 1.574 . S
C3426 H3420 0.949 . S
C3426 C3430 1.368 . S
C3427 C3408 1.429 . S
C3427 C3421 1.429 . S
C3427 C3428 1.523 . S
C3428 C3409 1.368 . S
C3428 C3422 1.368 . S
C3428 C3427 1.523 . S
C3429 C3413 1.429 . S
C3429 C3425 1.429 . S
C3429 C3430 1.523 . S
C3430 C3414 1.368 . S
C3430 C3426 1.368 . S
C3430 C3429 1.523 . S
H3431 C3406 0.950 . S
H3432 C3408 0.950 . S
H3433 C3409 0.949 . S
H3434 C3411 0.950 . S
H3435 C3413 0.950 . S
C3436 C3437 1.349 . S
C3436 C3438 1.327 . S
C3436 H3461 0.950 . S
C3437 C3436 1.349 . S
C3437 C3453 1.349 . S
C3438 C3436 1.327 . S
C3438 C3457 1.429 . S
C3438 H3462 0.950 . S
C3439 C3456 1.574 . S
C3439 C3458 1.368 . S
C3439 H3463 0.949 . S
H3440 C3444 0.983 . S
C3441 C3442 1.349 . S
C3441 C3443 1.327 1_455 S
C3441 H3464 0.950 . S
C3442 C3441 1.349 . S
C3442 C3454 1.349 . S
C3443 C3441 1.327 1_655 S
C3443 C3459 1.436 . S
C3443 H3465 0.950 . S
C3444 H3440 0.983 . S
C3444 C3452 1.574 . S
C3444 C3460 1.368 . S
H3445 C3453 0.950 . S
H3446 C3451 0.950 . S
H3447 C3452 0.949 . S
H3448 C3454 0.950 . S
H3449 C3455 0.950 . S
H3450 C3456 0.949 . S
C3451 H3446 0.950 . S
C3451 C3453 1.327 . S
C3451 C3457 1.429 . S
C3452 C3444 1.574 . S
C3452 H3447 0.949 . S
C3452 C3458 1.368 . S
C3453 C3437 1.349 . S
C3453 H3445 0.950 . S
C3453 C3451 1.327 . S
C3454 C3442 1.349 . S
C3454 H3448 0.950 . S
C3454 C3455 1.327 . S
C3455 H3449 0.950 . S
C3455 C3454 1.327 . S
C3455 C3459 1.409 1_455 S
C3456 C3439 1.574 . S
C3456 H3450 0.949 . S
C3456 C3460 1.368 . S
C3457 C3438 1.429 . S
C3457 C3451 1.429 . S
C3457 C3458 1.523 . S
C3458 C3439 1.368 . S
C3458 C3452 1.368 . S
C3458 C3457 1.523 . S
C3459 C3443 1.436 . S
C3459 C3455 1.409 1_655 S
C3459 C3460 1.535 . S
C3460 C3444 1.368 . S
C3460 C3456 1.368 . S
C3460 C3459 1.535 . S
H3461 C3436 0.950 . S
H3462 C3438 0.950 . S
H3463 C3439 0.949 . S
H3464 C3441 0.950 . S
H3465 C3443 0.950 . S
C3466 C3467 1.349 . S
C3466 C3468 1.327 . S
C3466 H3491 0.950 . S
C3467 C3466 1.349 . S
C3467 C3483 1.349 . S
C3468 C3466 1.327 . S
C3468 C3487 1.429 . S
C3468 H3492 0.950 . S
C3469 C3486 1.574 . S
C3469 C3488 1.368 . S
C3469 H3493 0.949 . S
H3470 C3474 0.949 . S
C3471 C3472 1.349 . S
C3471 C3473 1.327 . S
C3471 H3494 0.950 . S
C3472 C3471 1.349 . S
C3472 C3484 1.349 . S
C3473 C3471 1.327 . S
C3473 C3489 1.429 . S
C3473 H3495 0.950 . S
C3474 H3470 0.949 . S
C3474 C3482 1.574 . S
C3474 C3490 1.368 . S
H3475 C3483 0.950 . S
H3476 C3481 0.950 . S
H3477 C3482 0.949 . S
H3478 C3484 0.950 . S
H3479 C3485 0.950 . S
H3480 C3486 0.949 . S
C3481 H3476 0.950 . S
C3481 C3483 1.327 . S
C3481 C3487 1.429 . S
C3482 C3474 1.574 . S
C3482 H3477 0.949 . S
C3482 C3488 1.368 . S
C3483 C3467 1.349 . S
C3483 H3475 0.950 . S
C3483 C3481 1.327 . S
C3484 C3472 1.349 . S
C3484 H3478 0.950 . S
C3484 C3485 1.327 . S
C3485 H3479 0.950 . S
C3485 C3484 1.327 . S
C3485 C3489 1.429 . S
C3486 C3469 1.574 . S
C3486 H3480 0.949 . S
C3486 C3490 1.368 . S
C3487 C3468 1.429 . S
C3487 C3481 1.429 . S
C3487 C3488 1.523 . S
C3488 C3469 1.368 . S
C3488 C3482 1.368 . S
C3488 C3487 1.523 . S
C3489 C3473 1.429 . S
C3489 C3485 1.429 . S
C3489 C3490 1.523 . S
C3490 C3474 1.368 . S
C3490 C3486 1.368 . S
C3490 C3489 1.523 . S
H3491 C3466 0.950 . S
H3492 C3468 0.950 . S
H3493 C3469 0.949 . S
H3494 C3471 0.950 . S
H3495 C3473 0.950 . S
C3496 C3497 1.349 . S
C3496 C3498 1.327 . S
C3496 H3521 0.950 . S
C3497 C3496 1.349 . S
C3497 C3513 1.349 . S
C3498 C3496 1.327 . S
C3498 C3517 1.429 . S
C3498 H3522 0.950 . S
C3499 C3516 1.574 . S
C3499 C3518 1.368 . S
C3499 H3523 0.949 . S
H3500 C3504 0.949 . S
C3501 C3502 1.349 . S
C3501 C3503 1.327 . S
C3501 H3524 0.950 . S
C3502 C3501 1.349 . S
C3502 C3514 1.349 . S
C3503 C3501 1.327 . S
C3503 C3519 1.429 . S
C3503 H3525 0.950 . S
C3504 H3500 0.949 . S
C3504 C3512 1.574 . S
C3504 C3520 1.368 . S
H3505 C3513 0.950 . S
H3506 C3511 0.950 . S
H3507 C3512 0.949 . S
H3508 C3514 0.950 . S
H3509 C3515 0.950 . S
H3510 C3516 0.949 . S
C3511 H3506 0.950 . S
C3511 C3513 1.327 . S
C3511 C3517 1.429 . S
C3512 C3504 1.574 . S
C3512 H3507 0.949 . S
C3512 C3518 1.368 . S
C3513 C3497 1.349 . S
C3513 H3505 0.950 . S
C3513 C3511 1.327 . S
C3514 C3502 1.349 . S
C3514 H3508 0.950 . S
C3514 C3515 1.327 . S
C3515 H3509 0.950 . S
C3515 C3514 1.327 . S
C3515 C3519 1.429 . S
C3516 C3499 1.574 . S
C3516 H3510 0.949 . S
C3516 C3520 1.368 . S
C3517 C3498 1.429 . S
C3517 C3511 1.429 . S
C3517 C3518 1.523 . S
C3518 C3499 1.368 . S
C3518 C3512 1.368 . S
C3518 C3517 1.523 . S
C3519 C3503 1.429 . S
C3519 C3515 1.429 . S
C3519 C3520 1.523 . S
C3520 C3504 1.368 . S
C3520 C3516 1.368 . S
C3520 C3519 1.523 . S
H3521 C3496 0.950 . S
H3522 C3498 0.950 . S
H3523 C3499 0.949 . S
H3524 C3501 0.950 . S
H3525 C3503 0.950 . S
C3526 C3527 1.349 . S
C3526 C3528 1.327 . S
C3526 H3551 0.950 . S
C3527 C3526 1.349 . S
C3527 C3543 1.349 . S
C3528 C3526 1.327 . S
C3528 C3547 1.429 . S
C3528 H3552 0.950 . S
C3529 C3546 1.574 . S
C3529 C3548 1.368 . S
C3529 H3553 0.949 . S
H3530 C3534 0.949 . S
C3531 C3532 1.349 . S
C3531 C3533 1.327 . S
C3531 H3554 0.950 . S
C3532 C3531 1.349 . S
C3532 C3544 1.349 . S
C3533 C3531 1.327 . S
C3533 C3549 1.429 . S
C3533 H3555 0.950 . S
C3534 H3530 0.949 . S
C3534 C3542 1.574 . S
C3534 C3550 1.368 . S
H3535 C3543 0.950 . S
H3536 C3541 0.950 . S
H3537 C3542 0.949 . S
H3538 C3544 0.950 . S
H3539 C3545 0.950 . S
H3540 C3546 0.949 . S
C3541 H3536 0.950 . S
C3541 C3543 1.327 . S
C3541 C3547 1.429 . S
C3542 C3534 1.574 . S
C3542 H3537 0.949 . S
C3542 C3548 1.368 . S
C3543 C3527 1.349 . S
C3543 H3535 0.950 . S
C3543 C3541 1.327 . S
C3544 C3532 1.349 . S
C3544 H3538 0.950 . S
C3544 C3545 1.327 . S
C3545 H3539 0.950 . S
C3545 C3544 1.327 . S
C3545 C3549 1.429 . S
C3546 C3529 1.574 . S
C3546 H3540 0.949 . S
C3546 C3550 1.368 . S
C3547 C3528 1.429 . S
C3547 C3541 1.429 . S
C3547 C3548 1.523 . S
C3548 C3529 1.368 . S
C3548 C3542 1.368 . S
C3548 C3547 1.523 . S
C3549 C3533 1.429 . S
C3549 C3545 1.429 . S
C3549 C3550 1.523 . S
C3550 C3534 1.368 . S
C3550 C3546 1.368 . S
C3550 C3549 1.523 . S
H3551 C3526 0.950 . S
H3552 C3528 0.950 . S
H3553 C3529 0.949 . S
H3554 C3531 0.950 . S
H3555 C3533 0.950 . S
C3556 C3557 1.349 . S
C3556 C3558 1.327 . S
C3556 H3581 0.950 . S
C3557 C3556 1.349 . S
C3557 C3573 1.349 . S
C3558 C3556 1.327 . S
C3558 C3577 1.429 . S
C3558 H3582 0.950 . S
C3559 C3576 1.574 . S
C3559 C3578 1.368 . S
C3559 H3583 0.949 . S
H3560 C3564 0.949 . S
C3561 C3562 1.349 1_655 S
C3561 C3563 1.327 . S
C3561 H3584 0.950 . S
C3562 C3561 1.349 1_455 S
C3562 C3574 1.349 . S
C3563 C3561 1.327 . S
C3563 C3579 1.429 . S
C3563 H3585 0.950 . S
C3564 H3560 0.949 . S
C3564 C3572 1.574 . S
C3564 C3580 1.368 . S
H3565 C3573 0.950 . S
H3566 C3571 0.950 . S
H3567 C3572 0.949 . S
H3568 C3574 0.950 . S
H3569 C3575 0.950 . S
H3570 C3576 0.949 . S
C3571 H3566 0.950 . S
C3571 C3573 1.327 . S
C3571 C3577 1.429 . S
C3572 C3564 1.574 . S
C3572 H3567 0.949 . S
C3572 C3578 1.368 . S
C3573 C3557 1.349 . S
C3573 H3565 0.950 . S
C3573 C3571 1.327 . S
C3574 C3562 1.349 . S
C3574 H3568 0.950 . S
C3574 C3575 1.327 . S
C3575 H3569 0.950 . S
C3575 C3574 1.327 . S
C3575 C3579 1.429 1_455 S
C3576 C3559 1.574 . S
C3576 H3570 0.949 . S
C3576 C3580 1.368 . S
C3577 C3558 1.429 . S
C3577 C3571 1.429 . S
C3577 C3578 1.523 . S
C3578 C3559 1.368 . S
C3578 C3572 1.368 . S
C3578 C3577 1.523 . S
C3579 C3563 1.429 . S
C3579 C3575 1.429 1_655 S
C3579 C3580 1.523 . S
C3580 C3564 1.368 . S
C3580 C3576 1.368 . S
C3580 C3579 1.523 . S
H3581 C3556 0.950 . S
H3582 C3558 0.950 . S
H3583 C3559 0.949 . S
H3584 C3561 0.950 . S
H3585 C3563 0.950 . S
C3586 C3587 1.349 . S
C3586 C3588 1.327 . S
C3586 H3611 0.950 . S
C3587 C3586 1.349 . S
C3587 C3603 1.349 . S
C3588 C3586 1.327 . S
C3588 C3607 1.429 . S
C3588 H3612 0.950 . S
C3589 C3606 1.574 . S
C3589 C3608 1.368 . S
C3589 H3613 0.949 . S
H3590 C3594 0.949 . S
C3591 C3592 1.349 . S
C3591 C3593 1.327 . S
C3591 H3614 0.950 . S
C3592 C3591 1.349 . S
C3592 C3604 1.349 . S
C3593 C3591 1.327 . S
C3593 C3609 1.429 . S
C3593 H3615 0.950 . S
C3594 H3590 0.949 . S
C3594 C3602 1.574 . S
C3594 C3610 1.368 . S
H3595 C3603 0.950 . S
H3596 C3601 0.950 . S
H3597 C3602 0.949 . S
H3598 C3604 0.950 . S
H3599 C3605 0.950 . S
H3600 C3606 0.949 . S
C3601 H3596 0.950 . S
C3601 C3603 1.327 . S
C3601 C3607 1.429 . S
C3602 C3594 1.574 . S
C3602 H3597 0.949 . S
C3602 C3608 1.368 . S
C3603 C3587 1.349 . S
C3603 H3595 0.950 . S
C3603 C3601 1.327 . S
C3604 C3592 1.349 . S
C3604 H3598 0.950 . S
C3604 C3605 1.327 . S
C3605 H3599 0.950 . S
C3605 C3604 1.327 . S
C3605 C3609 1.429 . S
C3606 C3589 1.574 . S
C3606 H3600 0.949 . S
C3606 C3610 1.368 . S
C3607 C3588 1.429 . S
C3607 C3601 1.429 . S
C3607 C3608 1.523 . S
C3608 C3589 1.368 . S
C3608 C3602 1.368 . S
C3608 C3607 1.523 . S
C3609 C3593 1.429 . S
C3609 C3605 1.429 . S
C3609 C3610 1.523 . S
C3610 C3594 1.368 . S
C3610 C3606 1.368 . S
C3610 C3609 1.523 . S
H3611 C3586 0.950 . S
H3612 C3588 0.950 . S
H3613 C3589 0.949 . S
H3614 C3591 0.950 . S
H3615 C3593 0.950 . S
C3616 C3617 1.349 . S
C3616 C3618 1.327 . S
C3616 H3641 0.950 . S
C3617 C3616 1.349 . S
C3617 C3633 1.349 . S
C3618 C3616 1.327 . S
C3618 C3637 1.429 . S
C3618 H3642 0.950 . S
C3619 C3636 1.574 . S
C3619 C3638 1.368 . S
C3619 H3643 0.949 . S
H3620 C3624 0.949 . S
C3621 C3622 1.349 . S
C3621 C3623 1.327 . S
C3621 H3644 0.950 . S
C3622 C3621 1.349 . S
C3622 C3634 1.349 . S
C3623 C3621 1.327 . S
C3623 C3639 1.429 . S
C3623 H3645 0.950 . S
C3624 H3620 0.949 . S
C3624 C3632 1.574 . S
C3624 C3640 1.368 . S
H3625 C3633 0.950 . S
H3626 C3631 0.950 . S
H3627 C3632 0.949 . S
H3628 C3634 0.950 . S
H3629 C3635 0.950 . S
H3630 C3636 0.949 . S
C3631 H3626 0.950 . S
C3631 C3633 1.327 . S
C3631 C3637 1.429 . S
C3632 C3624 1.574 . S
C3632 H3627 0.949 . S
C3632 C3638 1.368 . S
C3633 C3617 1.349 . S
C3633 H3625 0.950 . S
C3633 C3631 1.327 . S
C3634 C3622 1.349 . S
C3634 H3628 0.950 . S
C3634 C3635 1.327 . S
C3635 H3629 0.950 . S
C3635 C3634 1.327 . S
C3635 C3639 1.429 . S
C3636 C3619 1.574 . S
C3636 H3630 0.949 . S
C3636 C3640 1.368 . S
C3637 C3618 1.429 . S
C3637 C3631 1.429 . S
C3637 C3638 1.523 . S
C3638 C3619 1.368 . S
C3638 C3632 1.368 . S
C3638 C3637 1.523 . S
C3639 C3623 1.429 . S
C3639 C3635 1.429 . S
C3639 C3640 1.523 . S
C3640 C3624 1.368 . S
C3640 C3636 1.368 . S
C3640 C3639 1.523 . S
H3641 C3616 0.950 . S
H3642 C3618 0.950 . S
H3643 C3619 0.949 . S
H3644 C3621 0.950 . S
H3645 C3623 0.950 . S
C3646 C3647 1.349 . S
C3646 C3648 1.327 . S
C3646 H3671 0.950 . S
C3647 C3646 1.349 . S
C3647 C3663 1.349 . S
C3648 C3646 1.327 . S
C3648 C3667 1.429 . S
C3648 H3672 0.950 . S
C3649 C3666 1.574 . S
C3649 C3668 1.368 . S
C3649 H3673 0.949 . S
H3650 C3654 0.949 . S
C3651 C3652 1.349 . S
C3651 C3653 1.327 . S
C3651 H3674 0.950 . S
C3652 C3651 1.349 . S
C3652 C3664 1.365 . S
C3653 C3651 1.327 . S
C3653 C3669 1.429 . S
C3653 H3675 0.950 . S
C3654 H3650 0.949 . S
C3654 C3662 1.574 . S
C3654 C3670 1.368 . S
H3655 C3663 0.950 . S
H3656 C3661 0.950 . S
H3657 C3662 0.949 . S
H3658 C3664 0.916 1_545 S
H3659 C3665 0.950 . S
H3660 C3666 0.949 . S
C3661 H3656 0.950 . S
C3661 C3663 1.327 . S
C3661 C3667 1.429 . S
C3662 C3654 1.574 . S
C3662 H3657 0.949 . S
C3662 C3668 1.368 . S
C3663 C3647 1.349 . S
C3663 H3655 0.950 . S
C3663 C3661 1.327 . S
C3664 C3652 1.365 . S
C3664 H3658 0.916 1_565 S
C3664 C3665 1.347 . S
C3665 H3659 0.950 . S
C3665 C3664 1.347 . S
C3665 C3669 1.429 . S
C3666 C3649 1.574 . S
C3666 H3660 0.949 . S
C3666 C3670 1.368 . S
C3667 C3648 1.429 . S
C3667 C3661 1.429 . S
C3667 C3668 1.523 . S
C3668 C3649 1.368 . S
C3668 C3662 1.368 . S
C3668 C3667 1.523 . S
C3669 C3653 1.429 . S
C3669 C3665 1.429 . S
C3669 C3670 1.523 . S
C3670 C3654 1.368 . S
C3670 C3666 1.368 . S
C3670 C3669 1.523 . S
H3671 C3646 0.950 . S
H3672 C3648 0.950 . S
H3673 C3649 0.949 . S
H3674 C3651 0.950 . S
H3675 C3653 0.950 . S
C3676 C3677 1.349 . S
C3676 C3678 1.327 . S
C3676 H3701 0.950 . S
C3677 C3676 1.349 . S
C3677 C3693 1.349 . S
C3678 C3676 1.327 . S
C3678 C3697 1.429 . S
C3678 H3702 0.950 . S
C3679 C3696 1.574 . S
C3679 C3698 1.368 . S
C3679 H3703 0.949 . S
H3680 C3684 0.949 . S
C3681 C3682 1.349 . S
C3681 C3683 1.327 . S
C3681 H3704 0.950 . S
C3682 C3681 1.349 . S
C3682 C3694 1.349 . S
C3683 C3681 1.327 . S
C3683 C3699 1.429 . S
C3683 H3705 0.950 . S
C3684 H3680 0.949 . S
C3684 C3692 1.574 . S
C3684 C3700 1.368 . S
H3685 C3693 0.950 . S
H3686 C3691 0.950 . S
H3687 C3692 0.949 . S
H3688 C3694 0.950 . S
H3689 C3695 0.950 . S
H3690 C3696 0.949 . S
C3691 H3686 0.950 . S
C3691 C3693 1.327 . S
C3691 C3697 1.429 . S
C3692 C3684 1.574 . S
C3692 H3687 0.949 . S
C3692 C3698 1.368 . S
C3693 C3677 1.349 . S
C3693 H3685 0.950 . S
C3693 C3691 1.327 . S
C3694 C3682 1.349 . S
C3694 H3688 0.950 . S
C3694 C3695 1.327 . S
C3695 H3689 0.950 . S
C3695 C3694 1.327 . S
C3695 C3699 1.429 . S
C3696 C3679 1.574 . S
C3696 H3690 0.949 . S
C3696 C3700 1.368 . S
C3697 C3678 1.429 . S
C3697 C3691 1.429 . S
C3697 C3698 1.523 . S
C3698 C3679 1.368 . S
C3698 C3692 1.368 . S
C3698 C3697 1.523 . S
C3699 C3683 1.429 . S
C3699 C3695 1.429 . S
C3699 C3700 1.523 . S
C3700 C3684 1.368 . S
C3700 C3696 1.368 . S
C3700 C3699 1.523 . S
H3701 C3676 0.950 . S
H3702 C3678 0.950 . S
H3703 C3679 0.949 . S
H3704 C3681 0.950 . S
H3705 C3683 0.950 . S
C3706 C3707 1.349 . S
C3706 C3708 1.327 . S
C3706 H3731 0.950 . S
C3707 C3706 1.349 . S
C3707 C3723 1.349 . S
C3708 C3706 1.327 . S
C3708 C3727 1.429 . S
C3708 H3732 0.950 . S
C3709 C3726 1.574 . S
C3709 C3728 1.368 . S
C3709 H3733 0.949 . S
H3710 C3714 0.949 . S
C3711 C3712 1.349 . S
C3711 C3713 1.327 . S
C3711 H3734 0.950 . S
C3712 C3711 1.349 . S
C3712 C3724 1.349 . S
C3713 C3711 1.327 . S
C3713 C3729 1.429 . S
C3713 H3735 0.950 . S
C3714 H3710 0.949 . S
C3714 C3722 1.574 . S
C3714 C3730 1.368 . S
H3715 C3723 0.950 . S
H3716 C3721 0.950 . S
H3717 C3722 0.949 . S
H3718 C3724 0.950 . S
H3719 C3725 0.950 . S
H3720 C3726 0.949 . S
C3721 H3716 0.950 . S
C3721 C3723 1.327 . S
C3721 C3727 1.429 . S
C3722 C3714 1.574 . S
C3722 H3717 0.949 . S
C3722 C3728 1.368 . S
C3723 C3707 1.349 . S
C3723 H3715 0.950 . S
C3723 C3721 1.327 . S
C3724 C3712 1.349 . S
C3724 H3718 0.950 . S
C3724 C3725 1.327 . S
C3725 H3719 0.950 . S
C3725 C3724 1.327 . S
C3725 C3729 1.429 . S
C3726 C3709 1.574 . S
C3726 H3720 0.949 . S
C3726 C3730 1.368 . S
C3727 C3708 1.429 . S
C3727 C3721 1.429 . S
C3727 C3728 1.523 . S
C3728 C3709 1.368 . S
C3728 C3722 1.368 . S
C3728 C3727 1.523 . S
C3729 C3713 1.429 . S
C3729 C3725 1.429 . S
C3729 C3730 1.523 . S
C3730 C3714 1.368 . S
C3730 C3726 1.368 . S
C3730 C3729 1.523 . S
H3731 C3706 0.950 . S
H3732 C3708 0.950 . S
H3733 C3709 0.949 . S
H3734 C3711 0.950 . S
H3735 C3713 0.950 . S
C3736 C3737 1.349 . S
C3736 C3738 1.327 . S
C3736 H3761 0.950 . S
C3737 C3736 1.349 . S
C3737 C3753 1.349 . S
C3738 C3736 1.327 . S
C3738 C3757 1.429 . S
C3738 H3762 0.950 . S
C3739 C3756 1.574 . S
C3739 C3758 1.368 . S
C3739 H3763 0.949 . S
H3740 C3744 0.949 . S
C3741 C3742 1.349 . S
C3741 C3743 1.327 . S
C3741 H3764 0.950 . S
C3742 C3741 1.349 . S
C3742 C3754 1.349 . S
C3743 C3741 1.327 . S
C3743 C3759 1.429 . S
C3743 H3765 0.950 . S
C3744 H3740 0.949 . S
C3744 C3752 1.574 . S
C3744 C3760 1.368 . S
H3745 C3753 0.950 . S
H3746 C3751 0.950 . S
H3747 C3752 0.949 . S
H3748 C3754 0.950 . S
H3749 C3755 0.950 . S
H3750 C3756 0.949 . S
C3751 H3746 0.950 . S
C3751 C3753 1.327 . S
C3751 C3757 1.429 . S
C3752 C3744 1.574 . S
C3752 H3747 0.949 . S
C3752 C3758 1.368 . S
C3753 C3737 1.349 . S
C3753 H3745 0.950 . S
C3753 C3751 1.327 . S
C3754 C3742 1.349 . S
C3754 H3748 0.950 . S
C3754 C3755 1.327 . S
C3755 H3749 0.950 . S
C3755 C3754 1.327 . S
C3755 C3759 1.429 . S
C3756 C3739 1.574 . S
C3756 H3750 0.949 . S
C3756 C3760 1.368 . S
C3757 C3738 1.429 . S
C3757 C3751 1.429 . S
C3757 C3758 1.523 . S
C3758 C3739 1.368 . S
C3758 C3752 1.368 . S
C3758 C3757 1.523 . S
C3759 C3743 1.429 . S
C3759 C3755 1.429 . S
C3759 C3760 1.523 . S
C3760 C3744 1.368 . S
C3760 C3756 1.368 . S
C3760 C3759 1.523 . S
H3761 C3736 0.950 . S
H3762 C3738 0.950 . S
H3763 C3739 0.949 . S
H3764 C3741 0.950 . S
H3765 C3743 0.950 . S
C3766 C3767 1.349 . S
C3766 C3768 1.327 . S
C3766 H3791 0.950 . S
C3767 C3766 1.349 . S
C3767 C3783 1.349 . S
C3768 C3766 1.327 . S
C3768 C3787 1.429 . S
C3768 H3792 0.950 1_554 S
C3769 C3786 1.574 . S
C3769 C3788 1.368 . S
C3769 H3793 0.949 . S
H3770 C3774 0.976 . S
C3771 C3772 1.349 . S
C3771 C3773 1.327 . S
C3771 H3794 0.950 . S
C3772 C3771 1.349 . S
C3772 C3784 1.349 1_554 S
C3773 C3771 1.327 . S
C3773 C3789 1.429 . S
C3773 H3795 0.950 . S
C3774 H3770 0.976 . S
C3774 C3782 1.569 1_556 S
C3774 C3790 1.345 1_556 S
H3775 C3783 0.950 . S
H3776 C3781 0.950 . S
H3777 C3782 0.949 1_556 S
H3778 C3784 0.950 . S
H3779 C3785 0.950 . S
H3780 C3786 0.949 . S
C3781 H3776 0.950 . S
C3781 C3783 1.327 . S
C3781 C3787 1.429 . S
C3782 C3774 1.569 1_554 S
C3782 H3777 0.949 1_554 S
C3782 C3788 1.368 . S
C3783 C3767 1.349 . S
C3783 H3775 0.950 . S
C3783 C3781 1.327 . S
C3784 C3772 1.349 1_556 S
C3784 H3778 0.950 . S
C3784 C3785 1.327 . S
C3785 H3779 0.950 . S
C3785 C3784 1.327 . S
C3785 C3789 1.429 1_556 S
C3786 C3769 1.574 . S
C3786 H3780 0.949 . S
C3786 C3790 1.368 . S
C3787 C3768 1.429 . S
C3787 C3781 1.429 . S
C3787 C3788 1.523 . S
C3788 C3769 1.368 . S
C3788 C3782 1.368 . S
C3788 C3787 1.523 . S
C3789 C3773 1.429 . S
C3789 C3785 1.429 1_554 S
C3789 C3790 1.523 . S
C3790 C3774 1.345 1_554 S
C3790 C3786 1.368 . S
C3790 C3789 1.523 . S
H3791 C3766 0.950 . S
H3792 C3768 0.950 1_556 S
H3793 C3769 0.949 . S
H3794 C3771 0.950 . S
H3795 C3773 0.950 . S
C3796 C3797 1.349 . S
C3796 C3798 1.327 . S
C3796 H3821 0.950 . S
C3797 C3796 1.349 . S
C3797 C3813 1.349 . S
C3798 C3796 1.327 . S
C3798 C3817 1.429 . S
C3798 H3822 0.950 . S
C3799 C3816 1.574 . S
C3799 C3818 1.368 . S
C3799 H3823 0.949 . S
H3800 C3804 0.949 . S
C3801 C3802 1.349 . S
C3801 C3803 1.327 . S
C3801 H3824 0.950 . S
C3802 C3801 1.349 . S
C3802 C3814 1.349 . S
C3803 C3801 1.327 . S
C3803 C3819 1.429 . S
C3803 H3825 0.950 . S
C3804 H3800 0.949 . S
C3804 C3812 1.574 . S
C3804 C3820 1.368 . S
H3805 C3813 0.950 . S
H3806 C3811 0.950 . S
H3807 C3812 0.949 . S
H3808 C3814 0.950 . S
H3809 C3815 0.950 . S
H3810 C3816 0.949 . S
C3811 H3806 0.950 . S
C3811 C3813 1.327 . S
C3811 C3817 1.429 . S
C3812 C3804 1.574 . S
C3812 H3807 0.949 . S
C3812 C3818 1.368 . S
C3813 C3797 1.349 . S
C3813 H3805 0.950 . S
C3813 C3811 1.327 . S
C3814 C3802 1.349 . S
C3814 H3808 0.950 . S
C3814 C3815 1.327 . S
C3815 H3809 0.950 . S
C3815 C3814 1.327 . S
C3815 C3819 1.429 . S
C3816 C3799 1.574 . S
C3816 H3810 0.949 . S
C3816 C3820 1.368 . S
C3817 C3798 1.429 . S
C3817 C3811 1.429 . S
C3817 C3818 1.523 . S
C3818 C3799 1.368 . S
C3818 C3812 1.368 . S
C3818 C3817 1.523 . S
C3819 C3803 1.429 . S
C3819 C3815 1.429 . S
C3819 C3820 1.523 . S
C3820 C3804 1.368 . S
C3820 C3816 1.368 . S
C3820 C3819 1.523 . S
H3821 C3796 0.950 . S
H3822 C3798 0.950 . S
H3823 C3799 0.949 . S
H3824 C3801 0.950 . S
H3825 C3803 0.950 . S
C3826 C3827 1.349 . S
C3826 C3828 1.327 . S
C3826 H3851 0.950 . S
C3827 C3826 1.349 . S
C3827 C3843 1.349 . S
C3828 C3826 1.327 . S
C3828 C3847 1.429 . S
C3828 H3852 0.950 . S
C3829 C3846 1.574 . S
C3829 C3848 1.368 . S
C3829 H3853 0.949 . S
H3830 C3834 0.949 . S
C3831 C3832 1.349 . S
C3831 C3833 1.327 . S
C3831 H3854 0.950 . S
C3832 C3831 1.349 . S
C3832 C3844 1.349 . S
C3833 C3831 1.327 . S
C3833 C3849 1.429 . S
C3833 H3855 0.950 . S
C3834 H3830 0.949 . S
C3834 C3842 1.574 . S
C3834 C3850 1.368 . S
H3835 C3843 0.950 . S
H3836 C3841 0.950 . S
H3837 C3842 0.949 . S
H3838 C3844 0.950 . S
H3839 C3845 0.950 . S
H3840 C3846 0.949 . S
C3841 H3836 0.950 . S
C3841 C3843 1.327 . S
C3841 C3847 1.429 . S
C3842 C3834 1.574 . S
C3842 H3837 0.949 . S
C3842 C3848 1.368 . S
C3843 C3827 1.349 . S
C3843 H3835 0.950 . S
C3843 C3841 1.327 . S
C3844 C3832 1.349 . S
C3844 H3838 0.950 . S
C3844 C3845 1.327 . S
C3845 H3839 0.950 . S
C3845 C3844 1.327 . S
C3845 C3849 1.429 . S
C3846 C3829 1.574 . S
C3846 H3840 0.949 . S
C3846 C3850 1.368 . S
C3847 C3828 1.429 . S
C3847 C3841 1.429 . S
C3847 C3848 1.523 . S
C3848 C3829 1.368 . S
C3848 C3842 1.368 . S
C3848 C3847 1.523 . S
C3849 C3833 1.429 . S
C3849 C3845 1.429 . S
C3849 C3850 1.523 . S
C3850 C3834 1.368 . S
C3850 C3846 1.368 . S
C3850 C3849 1.523 . S
H3851 C3826 0.950 . S
H3852 C3828 0.950 . S
H3853 C3829 0.949 . S
H3854 C3831 0.950 . S
H3855 C3833 0.950 . S
C977 C105 2.051 . S
C982 C367 2.014 . S
C1007 C65 1.757 . S
C1012 C378 1.752 . S
C1037 C73 1.563 . S
C1042 C447 1.535 . S
C1072 C460 1.222 . S
C1067 C92 1.235 . S
C1097 C17 2.598 . S
C1102 C516 2.560 . S
C1132 C567 1.946 . S
C1127 C37 1.960 . S
C1162 C596 2.441 . S
C1157 C49 2.384 . S
C1187 C8 2.373 . S
C1192 C647 2.319 . S
C1222 C338 1.113 . S
C1217 C231 1.092 . S
C1247 C241 0.821 . S
C1252 C380 0.814 . S
C1282 C418 1.056 . S
C1277 C273 1.037 . S
C1312 C487 1.528 . S
C1307 C171 1.529 . S
C1337 C227 0.481 . S
C1342 C521 0.505 . S
C1372 C538 1.418 . S
C1367 C245 1.380 . S
C1402 C601 0.325 . S
C1397 C269 0.258 . S
C1432 C618 2.031 . S
C1427 C175 2.033 . S
C1462 C340 1.482 . S
C1457 C162 1.544 1_554 S
C1487 C289 1.620 . S
C1492 C679 1.579 . S
C1522 C700 1.279 . S
C1517 C330 1.327 . S
C1552 C759 0.311 . S
C1547 C317 0.267 . S
C1577 C120 0.867 . S
C1582 C620 0.859 . S
C1607 C134 1.363 . S
C1612 C420 1.342 . S
C1637 C331 0.826 . S
C1642 C778 0.827 . S
C1672 C847 0.879 . S
C1667 C303 0.891 . S
C1702 C356 2.048 . S
C1697 C59 2.064 . S
C1732 C839 1.805 . S
C1727 C107 1.808 . S
C1757 C91 1.596 . S
C1762 C436 1.598 . S
C1787 C78 1.264 . S
C1792 C801 1.253 . S
C1822 C527 2.625 . S
C1817 C7 2.611 . S
C1847 C51 2.001 . S
C1852 C716 1.985 . S
C1882 C607 2.499 1_556 S
C1877 C31 2.521 . S
C1912 C876 2.352 . S
C1907 C22 2.394 1_655 S
C1942 C359 1.144 . S
C1937 C143 1.152 . S
C1972 C841 0.855 . S
C1967 C315 0.852 . S
C1997 C115 1.113 . S
C2002 C439 1.101 . S
C2027 C287 1.571 . S
C2032 C796 1.601 . S
C2057 C147 0.564 . S
C2062 C500 0.541 . S
C2092 C719 1.461 . S
C2087 C311 1.472 . S
C2117 C119 0.411 . S
C2122 C580 0.352 . S
C2147 C283 2.104 . S
C2152 C879 2.079 . S
C2177 C190 1.518 . S
C2182 C361 1.478 . S
C2207 C177 1.651 . S
C2212 C658 1.613 . S
C2237 C260 1.292 . S
C2242 C561 1.267 . S
C2267 C247 0.327 . S
C2272 C738 0.345 . S
C2302 C881 0.852 . S
C2297 C274 0.854 . S
C2327 C218 1.365 . S
C2332 C441 1.353 . S
C2362 C479 0.885 . S
C2357 C261 0.880 . S
C2392 C396 0.915 . S
C2387 C205 0.927 . S
C2417 C77 2.051 . S
C2422 C927 2.017 . S
C2452 C818 1.752 . S
C2447 C93 1.757 . S
C2477 C101 1.564 . S
C2482 C967 1.536 . S
C2507 C64 1.235 . S
C2512 C780 1.222 . S
C2537 C45 2.597 . S
C2542 C676 2.560 . S
C2572 C727 1.946 . S
C2567 C9 1.960 . S
C2602 C756 2.441 . S
C2597 C21 2.384 . S
C2632 C887 2.319 . S
C2627 C36 2.373 . S
C2662 C898 1.113 . S
C2657 C259 1.092 . S
C2687 C185 0.821 . S
C2692 C820 0.814 . S
C2722 C938 1.056 . S
C2717 C203 1.037 . S
C2752 C807 1.528 . S
C2747 C213 1.529 . S
C2782 C681 0.505 . S
C2777 C255 0.481 . S
C2807 C189 1.380 . S
C2812 C698 1.418 . S
C2842 C761 0.325 . S
C2837 C199 0.258 . S
C2867 C217 2.033 . S
C2872 C858 2.031 . S
C2902 C900 1.482 . S
C2897 C316 1.549 . S
C2927 C135 1.620 . S
C2932 C519 1.580 . S
C2962 C540 1.279 . S
C2957 C148 1.327 1_565 S
C2992 C599 0.311 . S
C2987 C163 0.268 . S
C3022 C860 0.859 . S
C3017 C302 0.867 . S
C3047 C288 1.363 . S
C3052 C940 1.342 . S
C3082 C458 0.827 . S
C3077 C149 0.826 . S
C3112 C407 0.879 . S
C3107 C121 0.891 . S
C3137 C87 2.065 . S
C3142 C916 2.048 . S
C3172 C399 1.805 . S
C3167 C79 1.803 . S
C3197 C63 1.596 . S
C3202 C956 1.598 . S
C3227 C106 1.264 . S
C3232 C481 1.246 . S
C3257 C35 2.611 . S
C3262 C687 2.625 1_556 S
C3292 C556 1.985 . S
C3287 C23 2.001 . S
C3317 C3 2.521 . S
C3322 C767 2.499 . S
C3347 C50 2.394 . S
C3352 C636 2.353 . S
C3382 C919 1.144 . S
C3377 C325 1.152 . S
C3407 C161 0.852 . S
C3412 C401 0.848 . S
C3442 C959 1.101 . S
C3437 C297 1.112 . S
C3467 C133 1.571 . S
C3472 C476 1.601 . S
C3497 C329 0.564 . S
C3502 C660 0.540 . S
C3532 C559 1.462 . S
C3527 C157 1.478 . S
C3557 C301 0.411 . S
C3562 C740 0.352 . S
C3592 C639 2.079 . S
C3587 C129 2.104 . S
C3622 C921 1.474 . S
C3617 C246 1.518 . S
C3652 C498 1.607 1_565 S
C3647 C219 1.651 . S
C3677 C232 1.292 . S
C3682 C721 1.266 . S
C3712 C578 0.345 . S
C3707 C191 0.327 . S
C3737 C204 0.854 . S
C3742 C641 0.852 . S
C3767 C176 1.365 . S
C3772 C961 1.353 . S
C3802 C799 0.885 . S
C3797 C233 0.880 . S
C3832 C836 0.915 . S
C3827 C275 0.927 . S
