# Generated by pormake.
# Topology ctn, (3,4)-cn, num edge types: 1
# Building blocks:
#     Node 0, Type 0, BuildingBlock: OLANEW_clean_sbu_2, # of connection points: 3
#     Node 1, Type 0, BuildingBlock: OLANEW_clean_sbu_2, # of connection points: 3
#     Node 2, Type 0, BuildingBlock: OLANEW_clean_sbu_2, # of connection points: 3
#     Node 3, Type 0, BuildingBlock: OLANEW_clean_sbu_2, # of connection points: 3
#     Node 4, Type 0, BuildingBlock: OLANEW_clean_sbu_2, # of connection points: 3
#     Node 5, Type 0, BuildingBlock: OLANEW_clean_sbu_2, # of connection points: 3
#     Node 6, Type 0, BuildingBlock: OLANEW_clean_sbu_2, # of connection points: 3
#     Node 7, Type 0, BuildingBlock: OLANEW_clean_sbu_2, # of connection points: 3
#     Node 8, Type 0, BuildingBlock: OLANEW_clean_sbu_2, # of connection points: 3
#     Node 9, Type 0, BuildingBlock: OLANEW_clean_sbu_2, # of connection points: 3
#     Node 10, Type 0, BuildingBlock: OLANEW_clean_sbu_2, # of connection points: 3
#     Node 11, Type 0, BuildingBlock: OLANEW_clean_sbu_2, # of connection points: 3
#     Node 12, Type 0, BuildingBlock: OLANEW_clean_sbu_2, # of connection points: 3
#     Node 13, Type 0, BuildingBlock: OLANEW_clean_sbu_2, # of connection points: 3
#     Node 14, Type 0, BuildingBlock: OLANEW_clean_sbu_2, # of connection points: 3
#     Node 15, Type 0, BuildingBlock: OLANEW_clean_sbu_2, # of connection points: 3
#     Node 16, Type 1, BuildingBlock: NAHDIM_clean_sbu_0, # of connection points: 4
#     Node 17, Type 1, BuildingBlock: NAHDIM_clean_sbu_0, # of connection points: 4
#     Node 18, Type 1, BuildingBlock: NAHDIM_clean_sbu_0, # of connection points: 4
#     Node 19, Type 1, BuildingBlock: NAHDIM_clean_sbu_0, # of connection points: 4
#     Node 20, Type 1, BuildingBlock: NAHDIM_clean_sbu_0, # of connection points: 4
#     Node 21, Type 1, BuildingBlock: NAHDIM_clean_sbu_0, # of connection points: 4
#     Node 22, Type 1, BuildingBlock: NAHDIM_clean_sbu_0, # of connection points: 4
#     Node 23, Type 1, BuildingBlock: NAHDIM_clean_sbu_0, # of connection points: 4
#     Node 24, Type 1, BuildingBlock: NAHDIM_clean_sbu_0, # of connection points: 4
#     Node 25, Type 1, BuildingBlock: NAHDIM_clean_sbu_0, # of connection points: 4
#     Node 26, Type 1, BuildingBlock: NAHDIM_clean_sbu_0, # of connection points: 4
#     Node 27, Type 1, BuildingBlock: NAHDIM_clean_sbu_0, # of connection points: 4
#     Edge 28, Type (0, 1), BuildingBlock: TEMPAE_clean_linker_10, # of connection points: 2
#     Edge 29, Type (0, 1), BuildingBlock: TEMPAE_clean_linker_10, # of connection points: 2
#     Edge 30, Type (0, 1), BuildingBlock: TEMPAE_clean_linker_10, # of connection points: 2
#     Edge 31, Type (0, 1), BuildingBlock: TEMPAE_clean_linker_10, # of connection points: 2
#     Edge 32, Type (0, 1), BuildingBlock: TEMPAE_clean_linker_10, # of connection points: 2
#     Edge 33, Type (0, 1), BuildingBlock: TEMPAE_clean_linker_10, # of connection points: 2
#     Edge 34, Type (0, 1), BuildingBlock: TEMPAE_clean_linker_10, # of connection points: 2
#     Edge 35, Type (0, 1), BuildingBlock: TEMPAE_clean_linker_10, # of connection points: 2
#     Edge 36, Type (0, 1), BuildingBlock: TEMPAE_clean_linker_10, # of connection points: 2
#     Edge 37, Type (0, 1), BuildingBlock: TEMPAE_clean_linker_10, # of connection points: 2
#     Edge 38, Type (0, 1), BuildingBlock: TEMPAE_clean_linker_10, # of connection points: 2
#     Edge 39, Type (0, 1), BuildingBlock: TEMPAE_clean_linker_10, # of connection points: 2
#     Edge 40, Type (0, 1), BuildingBlock: TEMPAE_clean_linker_10, # of connection points: 2
#     Edge 41, Type (0, 1), BuildingBlock: TEMPAE_clean_linker_10, # of connection points: 2
#     Edge 42, Type (0, 1), BuildingBlock: TEMPAE_clean_linker_10, # of connection points: 2
#     Edge 43, Type (0, 1), BuildingBlock: TEMPAE_clean_linker_10, # of connection points: 2
#     Edge 44, Type (0, 1), BuildingBlock: TEMPAE_clean_linker_10, # of connection points: 2
#     Edge 45, Type (0, 1), BuildingBlock: TEMPAE_clean_linker_10, # of connection points: 2
#     Edge 46, Type (0, 1), BuildingBlock: TEMPAE_clean_linker_10, # of connection points: 2
#     Edge 47, Type (0, 1), BuildingBlock: TEMPAE_clean_linker_10, # of connection points: 2
#     Edge 48, Type (0, 1), BuildingBlock: TEMPAE_clean_linker_10, # of connection points: 2
#     Edge 49, Type (0, 1), BuildingBlock: TEMPAE_clean_linker_10, # of connection points: 2
#     Edge 50, Type (0, 1), BuildingBlock: TEMPAE_clean_linker_10, # of connection points: 2
#     Edge 51, Type (0, 1), BuildingBlock: TEMPAE_clean_linker_10, # of connection points: 2
#     Edge 52, Type (0, 1), BuildingBlock: TEMPAE_clean_linker_10, # of connection points: 2
#     Edge 53, Type (0, 1), BuildingBlock: TEMPAE_clean_linker_10, # of connection points: 2
#     Edge 54, Type (0, 1), BuildingBlock: TEMPAE_clean_linker_10, # of connection points: 2
#     Edge 55, Type (0, 1), BuildingBlock: TEMPAE_clean_linker_10, # of connection points: 2
#     Edge 56, Type (0, 1), BuildingBlock: TEMPAE_clean_linker_10, # of connection points: 2
#     Edge 57, Type (0, 1), BuildingBlock: TEMPAE_clean_linker_10, # of connection points: 2
#     Edge 58, Type (0, 1), BuildingBlock: TEMPAE_clean_linker_10, # of connection points: 2
#     Edge 59, Type (0, 1), BuildingBlock: TEMPAE_clean_linker_10, # of connection points: 2
#     Edge 60, Type (0, 1), BuildingBlock: TEMPAE_clean_linker_10, # of connection points: 2
#     Edge 61, Type (0, 1), BuildingBlock: TEMPAE_clean_linker_10, # of connection points: 2
#     Edge 62, Type (0, 1), BuildingBlock: TEMPAE_clean_linker_10, # of connection points: 2
#     Edge 63, Type (0, 1), BuildingBlock: TEMPAE_clean_linker_10, # of connection points: 2
#     Edge 64, Type (0, 1), BuildingBlock: TEMPAE_clean_linker_10, # of connection points: 2
#     Edge 65, Type (0, 1), BuildingBlock: TEMPAE_clean_linker_10, # of connection points: 2
#     Edge 66, Type (0, 1), BuildingBlock: TEMPAE_clean_linker_10, # of connection points: 2
#     Edge 67, Type (0, 1), BuildingBlock: TEMPAE_clean_linker_10, # of connection points: 2
#     Edge 68, Type (0, 1), BuildingBlock: TEMPAE_clean_linker_10, # of connection points: 2
#     Edge 69, Type (0, 1), BuildingBlock: TEMPAE_clean_linker_10, # of connection points: 2
#     Edge 70, Type (0, 1), BuildingBlock: TEMPAE_clean_linker_10, # of connection points: 2
#     Edge 71, Type (0, 1), BuildingBlock: TEMPAE_clean_linker_10, # of connection points: 2
#     Edge 72, Type (0, 1), BuildingBlock: TEMPAE_clean_linker_10, # of connection points: 2
#     Edge 73, Type (0, 1), BuildingBlock: TEMPAE_clean_linker_10, # of connection points: 2
#     Edge 74, Type (0, 1), BuildingBlock: TEMPAE_clean_linker_10, # of connection points: 2
#     Edge 75, Type (0, 1), BuildingBlock: TEMPAE_clean_linker_10, # of connection points: 2
# Relax obj value: 0.050
# Max RMSD: 0.166
# Mean RMSD: 0.095
data_MOF--net-ctn--node1-OLANEW_clean_sbu_2--node2-NAHDIM_clean_sbu_0--edge1-TEMPAE_clean_linker_10
_symmetry_space_group_name_H-M    P1
_symmetry_Int_Tables_number       1
_symmetry_cell_setting            triclinic
loop_
_symmetry_equiv_pos_as_xyz
'x, y, z'
_cell_length_a     58.908882
_cell_length_b     61.247186
_cell_length_c     56.807183
_cell_angle_alpha  92.803491
_cell_angle_beta   94.664758
_cell_angle_gamma 98.112821
loop_
_atom_site_label
_atom_site_type_symbol
_atom_site_fract_x
_atom_site_fract_y
_atom_site_fract_z
_atom_type_partial_charge
O0 O 0.05348 0.06347 0.00498 0.0
Cd1 Cd 0.05713 0.03804 0.03674 0.0
O2 O 0.0171 0.06441 0.01063 0.0
Cd3 Cd 0.01637 0.04586 0.04243 0.0
O4 O 0.00592 0.04115 0.07804 0.0
C5 C -0.00193 0.05742 0.08755 0.0
O6 O -0.00265 0.07524 0.07568 0.0
C7 C 0.03441 0.07014 -0.00084 0.0
C8 C 0.09386 0.01378 0.03492 0.0
O9 O 0.07426 0.00674 0.02363 0.0
O10 O 0.09621 0.03246 0.04673 0.0
O11 O 0.30968 0.73261 0.26924 0.0
Cd12 Cd 0.27162 0.72691 0.24724 0.0
O13 O 0.30635 0.69822 0.2796 0.0
Cd14 Cd 0.27149 0.6872 0.26344 0.0
O15 O 0.2402 0.66306 0.25962 0.0
C16 C 0.23183 0.65716 0.27864 0.0
O17 O 0.24159 0.66672 0.29888 0.0
C18 C 0.31806 0.71735 0.27985 0.0
C19 C 0.26704 0.75803 0.21342 0.0
O20 O 0.26164 0.76145 0.23456 0.0
O21 O 0.2747 0.73996 0.20835 0.0
O22 O 0.97065 0.46643 0.08014 0.0
Cd23 Cd 0.9497 0.46272 0.04094 0.0
O24 O 0.96493 0.4307 0.08495 0.0
Cd25 Cd 0.95244 0.42091 0.0482 0.0
O26 O 0.95395 0.4002 0.01611 0.0
C27 C 0.97364 0.4001 0.00848 0.0
O28 O 0.99135 0.41324 0.01935 0.0
C29 C 0.97243 0.45032 0.09312 0.0
C30 C 0.9177 0.49232 0.03883 0.0
O31 O 0.91265 0.47303 0.04645 0.0
O32 O 0.93782 0.49753 0.03189 0.0
O33 O 0.75219 0.83957 0.23115 0.0
Cd34 Cd 0.72403 0.80598 0.23035 0.0
O35 O 0.77409 0.83017 0.26108 0.0
Cd36 Cd 0.74855 0.80224 0.26749 0.0
O37 O 0.71702 0.78801 0.28203 0.0
C38 C 0.70281 0.80138 0.28554 0.0
O39 O 0.70779 0.82185 0.27955 0.0
C40 C 0.77035 0.8436 0.24532 0.0
C41 C 0.734 0.77223 0.19968 0.0
O42 O 0.72122 0.78629 0.19247 0.0
O43 O 0.74217 0.77419 0.22141 0.0
O44 O 0.12699 0.92804 0.48603 0.0
Cd45 Cd 0.10349 0.89237 0.47476 0.0
O46 O 0.09728 0.94262 0.4722 0.0
Cd47 Cd 0.07749 0.96773 0.45881 0.0
O48 O 0.05066 0.98196 0.43869 0.0
C49 C 0.0553 -0.00601 0.42163 0.0
O50 O 0.07685 -0.00119 0.41693 0.0
C51 C 0.118 0.94516 0.48131 0.0
C52 C 0.07934 0.87343 0.51065 0.0
O53 O 0.09939 0.86886 0.507 0.0
O54 O 0.07091 0.88735 0.49761 0.0
O55 O 0.22417 0.7452 0.85895 0.0
Cd56 Cd 0.21131 0.7216 0.82283 0.0
O57 O 0.19414 0.73201 0.87722 0.0
Cd58 Cd 0.17645 0.71307 0.84595 0.0
O59 O 0.14893 0.71132 0.81755 0.0
C60 C 0.15028 0.72679 0.80337 0.0
O61 O 0.16873 0.7418 0.80554 0.0
C62 C 0.21316 0.74477 0.87733 0.0
C63 C 0.23746 0.68777 0.81443 0.0
O64 O 0.2428 0.70695 0.80664 0.0
O65 O 0.21996 0.68471 0.82654 0.0
O66 O 0.98703 0.51912 0.47588 0.0
Cd67 Cd 0.96626 0.53182 0.50834 0.0
O68 O 0.97151 0.5397 0.4502 0.0
Cd69 Cd 0.95332 0.55526 0.47679 0.0
O70 O 0.94741 0.57742 0.50617 0.0
C71 C 0.96536 0.58935 0.5161 0.0
O72 O 0.98535 0.58719 0.50825 0.0
C73 C 0.98485 0.52558 0.45497 0.0
C74 C 0.92551 0.50372 0.51309 0.0
O75 O 0.926 0.51933 0.49884 0.0
O76 O 0.94432 0.50138 0.52508 0.0
O77 O 0.79023 0.76614 0.85929 0.0
Cd78 Cd 0.79101 0.79475 0.83068 0.0
O79 O 0.75286 0.76298 0.8619 0.0
Cd80 Cd 0.74735 0.79057 0.8402 0.0
O81 O 0.73213 0.81938 0.82903 0.0
C82 C 0.71847 0.82648 0.84279 0.0
O83 O 0.71474 0.81633 0.86227 0.0
C84 C 0.77218 0.75679 0.86759 0.0
C85 C 0.82386 0.78898 0.79903 0.0
O86 O 0.82921 0.80109 0.81827 0.0
O87 O 0.80288 0.77986 0.7946 0.0
O88 O 0.28458 0.26789 0.36003 0.0
Cd89 Cd 0.28419 0.29878 0.33433 0.0
O90 O 0.25144 0.24993 0.3443 0.0
Cd91 Cd 0.24401 0.27782 0.32393 0.0
O92 O 0.2299 0.30769 0.3145 0.0
C93 C 0.21755 0.31539 0.32931 0.0
O94 O 0.2143 0.30512 0.3488 0.0
C95 C 0.26928 0.2509 0.35873 0.0
C96 C 0.31558 0.29614 0.30041 0.0
O97 O 0.32177 0.30618 0.32074 0.0
O98 O 0.29443 0.28757 0.296 0.0
O99 O 0.45768 0.9548 0.5893 0.0
Cd100 Cd 0.43939 0.94997 0.54885 0.0
O101 O 0.49095 0.97031 0.57859 0.0
Cd102 Cd 0.48218 0.95967 0.54134 0.0
O103 O 0.48572 0.9375 0.51096 0.0
C104 C 0.47317 0.91874 0.50817 0.0
O105 O 0.45729 0.91379 0.52278 0.0
C106 C 0.47808 0.96456 0.5948 0.0
C107 C 0.40909 0.98071 0.54154 0.0
O108 O 0.40248 0.96198 0.54977 0.0
O109 O 0.43004 0.98486 0.53655 0.0
O110 O 0.24381 0.33412 0.71109 0.0
Cd111 Cd 0.21452 0.30121 0.70606 0.0
O112 O 0.25679 0.3266 0.74674 0.0
Cd113 Cd 0.23099 0.29755 0.74789 0.0
O114 O 0.1995 0.27897 0.75844 0.0
C115 C 0.18123 0.28769 0.75536 0.0
O116 O 0.18217 0.30648 0.74502 0.0
C117 C 0.2577 0.33912 0.72953 0.0
C118 C 0.22531 0.26744 0.67601 0.0
O119 O 0.21532 0.28314 0.66787 0.0
O120 O 0.23051 0.26786 0.69841 0.0
O121 O 0.80476 0.22495 0.75349 0.0
Cd122 Cd 0.76572 0.21946 0.73352 0.0
O123 O 0.8073 0.18949 0.74941 0.0
Cd124 Cd 0.77201 0.17895 0.73439 0.0
O125 O 0.7399 0.15643 0.73462 0.0
C126 C 0.73278 0.1531 0.75485 0.0
O127 O 0.74427 0.16419 0.77352 0.0
C128 C 0.81628 0.20906 0.75646 0.0
C129 C 0.75816 0.25062 0.70052 0.0
O130 O 0.75406 0.25375 0.72215 0.0
O131 O 0.7661 0.2329 0.6946 0.0
O132 O 0.54603 0.57534 0.52222 0.0
Cd133 Cd 0.54546 0.54546 0.54953 0.0
O134 O 0.52831 0.59524 0.54612 0.0
Cd135 Cd 0.52294 0.57193 0.57366 0.0
O136 O 0.50244 0.56134 0.6025 0.0
C137 C 0.48947 0.57497 0.60907 0.0
O138 O 0.48992 0.59366 0.59857 0.0
C139 C 0.53759 0.59291 0.52689 0.0
C140 C 0.58021 0.5191 0.545 0.0
O141 O 0.56085 0.51462 0.53245 0.0
O142 O 0.58324 0.53621 0.55945 0.0
O143 O 0.57495 0.49222 0.99138 0.0
Cd144 Cd 0.53855 0.46776 0.9813 0.0
O145 O 0.55871 0.51831 0.00844 0.0
Cd146 Cd 0.52382 0.50281 0.99612 0.0
O147 O 0.49171 0.49986 0.97331 0.0
C148 C 0.49015 0.48964 0.95309 0.0
O149 O 0.50748 0.4799 0.947 0.0
C150 C 0.57674 0.51086 0.00279 0.0
C151 C 0.52838 0.43786 0.01582 0.0
O152 O 0.54028 0.43319 -0.00117 0.0
O153 O 0.52135 0.45674 0.01651 0.0
O154 O 0.75694 0.25295 0.35591 0.0
Cd155 Cd 0.76012 0.23135 0.31918 0.0
O156 O 0.72401 0.25819 0.33831 0.0
Cd157 Cd 0.69191 0.27172 0.3308 0.0
O158 O 0.6591 0.27706 0.31287 0.0
C159 C 0.65672 0.27343 0.29052 0.0
O160 O 0.67402 0.26738 0.27986 0.0
C161 C 0.73873 0.26184 0.35625 0.0
C162 C 0.78548 0.19625 0.32266 0.0
O163 O 0.79527 0.21583 0.31953 0.0
O164 O 0.76378 0.19342 0.32484 0.0
O165 O 0.47935 0.05648 0.96119 0.0
Cd166 Cd 0.45552 0.07008 0.99031 0.0
O167 O 0.50534 0.04813 0.98798 0.0
Cd168 Cd 0.4911 0.06579 0.01635 0.0
O169 O 0.48459 0.0929 0.0402 0.0
C170 C 0.48076 0.11076 0.03116 0.0
O171 O 0.48017 0.1118 0.00807 0.0
C172 C 0.49753 0.04808 0.96642 0.0
C173 C 0.42199 0.0362 0.0015 0.0
O174 O 0.41811 0.0485 0.98444 0.0
O175 O 0.44171 0.04006 0.01343 0.0
C176 C 0.2262 0.92499 0.03597 0.0
O177 O 0.24358 0.93128 0.02356 0.0
O178 O 0.25196 0.86882 0.02275 0.0
Zn179 Zn 0.25507 0.89264 0.04926 0.0
O180 O 0.28305 0.91522 0.04633 0.0
C181 C 0.24343 0.86171 0.0837 0.0
O182 O 0.22532 0.85666 0.06831 0.0
O183 O 0.22695 0.90838 0.04848 0.0
C184 C 0.2992 0.91151 0.03383 0.0
O185 O 0.29826 0.89194 0.02294 0.0
C186 C 0.24065 0.8694 0.00282 0.0
O187 O 0.23005 0.88646 -0.00143 0.0
O188 O 0.25882 0.87754 0.07979 0.0
C189 C 0.13926 0.44954 0.30179 0.0
O190 O 0.14882 0.46922 0.31065 0.0
O191 O 0.08238 0.47614 0.31371 0.0
Zn192 Zn 0.10197 0.47318 0.28658 0.0
O193 O 0.12408 0.50123 0.28507 0.0
C194 C 0.06132 0.47256 0.25395 0.0
O195 O 0.0526 0.48012 0.27274 0.0
O196 O 0.11931 0.44732 0.29081 0.0
C197 C 0.11644 0.51935 0.28187 0.0
O198 O 0.09407 0.51943 0.27973 0.0
C199 C 0.08997 0.488 0.33244 0.0
O200 O 0.11131 0.49808 0.33441 0.0
O201 O 0.08186 0.46824 0.25583 0.0
C202 C 0.79812 0.59536 0.03128 0.0
O203 O 0.7792 0.58913 0.01731 0.0
O204 O 0.77755 0.65128 0.01296 0.0
Zn205 Zn 0.77414 0.63182 0.04058 0.0
O206 O 0.74399 0.61114 0.03606 0.0
C207 C 0.75924 0.64897 0.08457 0.0
O208 O 0.74407 0.63093 0.08189 0.0
O209 O 0.80021 0.61356 0.04362 0.0
C210 C 0.72663 0.61491 0.02294 0.0
O211 O 0.72798 0.6331 0.01148 0.0
C212 C 0.77687 0.64445 0.99138 0.0
O213 O 0.77403 0.62311 0.98586 0.0
O214 O 0.7742 0.65226 0.0697 0.0
C215 C 0.87224 0.06679 0.30223 0.0
O216 O 0.88172 0.05743 0.3201 0.0
O217 O 0.91621 0.03245 0.30095 0.0
Zn218 Zn 0.89203 0.03451 0.2742 0.0
O219 O 0.87027 0.00563 0.2698 0.0
C220 C 0.92837 0.04831 0.24395 0.0
O221 O 0.94048 0.05503 0.26408 0.0
O222 O 0.87437 0.05967 0.28123 0.0
C223 C 0.87261 0.99105 0.25378 0.0
O224 O 0.8892 -0.00492 0.23978 0.0
C225 C 0.92787 0.01652 0.30015 0.0
O226 O 0.92364 0.0019 0.28207 0.0
O227 O 0.90745 0.03971 0.24413 0.0
C228 C 0.29258 0.08512 0.51547 0.0
O229 O 0.27534 0.07886 0.49929 0.0
O230 O 0.2653 0.13757 0.49701 0.0
Zn231 Zn 0.26447 0.11839 0.52502 0.0
O232 O 0.23626 0.09505 0.52124 0.0
C233 C 0.24408 0.14189 0.56105 0.0
O234 O 0.22508 0.13077 0.55025 0.0
O235 O 0.2923 0.10243 0.52872 0.0
C236 C 0.22413 0.08999 0.50168 0.0
O237 O 0.22945 0.10085 0.48304 0.0
C238 C 0.27763 0.13645 0.47974 0.0
O239 O 0.29144 0.12143 0.47897 0.0
O240 O 0.26333 0.13879 0.55385 0.0
C241 C 0.32505 0.56276 0.77253 0.0
O242 O 0.31898 0.55047 0.75281 0.0
O243 O 0.38079 0.52968 0.80726 0.0
Zn244 Zn 0.36111 0.53493 0.77805 0.0
O245 O 0.34107 0.50622 0.76699 0.0
C246 C 0.37629 0.54016 0.73108 0.0
O247 O 0.35532 0.53034 0.72433 0.0
O248 O 0.34226 0.55897 0.78588 0.0
C249 C 0.35102 0.49027 0.75997 0.0
O250 O 0.37354 0.4934 0.75981 0.0
C251 C 0.37361 0.51596 0.82204 0.0
O252 O 0.35255 0.50524 0.81846 0.0
O253 O 0.38228 0.54423 0.75304 0.0
C254 C 0.70563 0.42315 0.53244 0.0
O255 O 0.72305 0.4297 0.5202 0.0
O256 O 0.72622 0.36559 0.51262 0.0
Zn257 Zn 0.73192 0.3876 0.54092 0.0
O258 O 0.76139 0.4082 0.53816 0.0
C259 C 0.72203 0.35396 0.57396 0.0
O260 O 0.70359 0.34835 0.55911 0.0
O261 O 0.70544 0.40529 0.54301 0.0
C262 C 0.77833 0.40115 0.52932 0.0
O263 O 0.77647 0.38021 0.52211 0.0
C264 C 0.72672 0.37145 0.49149 0.0
O265 O 0.73003 0.39261 0.48774 0.0
O266 O 0.73634 0.37069 0.57012 0.0
C267 C 0.63491 0.95608 0.80832 0.0
O268 O 0.6441 0.97621 0.81606 0.0
O269 O 0.58068 0.98529 0.82001 0.0
Zn270 Zn 0.59768 0.97875 0.79161 0.0
O271 O 0.62015 0.00544 0.7853 0.0
C272 C 0.55668 0.97964 0.75998 0.0
O273 O 0.55108 -0.00764 0.77722 0.0
O274 O 0.61492 0.95304 0.79737 0.0
C275 C 0.61334 0.0237 0.78077 0.0
O276 O 0.5913 0.02521 0.7805 0.0
C277 C 0.5894 -3e-05 0.83605 0.0
O278 O 0.61009 0.0107 0.83433 0.0
O279 O 0.57536 0.97148 0.76257 0.0
C280 C 0.01625 0.19085 0.88772 0.0
O281 O 0.01241 0.1875 0.86463 0.0
O282 O 0.98384 0.23011 0.85523 0.0
Zn283 Zn 0.01228 0.23646 0.87801 0.0
O284 O 0.00853 0.26214 0.90016 0.0
C285 C 0.04093 0.23616 0.83924 0.0
O286 O 0.02347 0.22202 0.82946 0.0
O287 O 0.01665 0.2102 0.89708 0.0
C288 C 0.00226 0.27951 0.89196 0.0
O289 O -0.00108 0.28061 0.86892 0.0
C290 C 0.96407 0.22842 0.86297 0.0
O291 O 0.96261 0.22985 0.88594 0.0
O292 O 0.03998 0.24453 0.86 0.0
C293 C 0.51375 0.70754 0.40944 0.0
O294 O 0.49608 0.70347 0.39342 0.0
O295 O 0.48985 0.74332 0.3696 0.0
Zn296 Zn 0.51974 0.75118 0.3902 0.0
O297 O 0.5176 0.77872 0.41039 0.0
C298 C 0.56607 0.76307 0.37941 0.0
O299 O 0.56926 0.76512 0.40262 0.0
O300 O 0.52592 0.72652 0.41119 0.0
C301 C 0.50989 0.79485 0.40081 0.0
O302 O 0.50438 0.79342 0.37784 0.0
C303 C 0.47096 0.74498 0.37841 0.0
O304 O 0.47137 0.75084 0.40102 0.0
O305 O 0.5458 0.75721 0.36964 0.0
C306 C 0.98516 0.78043 0.61901 0.0
O307 O 0.96944 0.7645 0.60925 0.0
O308 O 0.95324 0.7639 0.67914 0.0
Zn309 Zn 0.9787 0.75552 0.66034 0.0
O310 O 0.96737 0.72873 0.63827 0.0
C311 C 0.01194 0.75875 0.70163 0.0
O312 O 0.00133 0.77503 0.70874 0.0
O313 O 0.99124 0.78055 0.64101 0.0
C314 C 0.96868 0.70918 0.64423 0.0
O315 O 0.97649 0.7061 0.66595 0.0
C316 C 0.94654 0.75212 0.69578 0.0
O317 O 0.95632 0.7346 0.70025 0.0
O318 O 0.00507 0.74827 0.68191 0.0
C319 C 0.49424 0.32794 0.13978 0.0
O320 O 0.5079 0.32916 0.15941 0.0
O321 O 0.44541 0.29136 0.17696 0.0
Zn322 Zn 0.47284 0.28772 0.15879 0.0
O323 O 0.46798 0.25834 0.14006 0.0
C324 C 0.50593 0.27228 0.19233 0.0
O325 O 0.49206 0.25347 0.18827 0.0
O326 O 0.47787 0.31192 0.13597 0.0
C327 C 0.48501 0.25279 0.13004 0.0
O328 O 0.50453 0.26639 0.13223 0.0
C329 C 0.43556 0.27529 0.18749 0.0
O330 O 0.44304 0.25611 0.18574 0.0
O331 O 0.50108 0.28914 0.18187 0.0
C332 C 0.23989 0.77731 0.89691 0.0
C333 C 0.22094 0.76076 0.89785 0.0
C334 C 0.24524 0.79447 0.91469 0.0
C335 C 0.23131 0.7951 0.93381 0.0
C336 C 0.21294 0.77783 0.9355 0.0
C337 C 0.20801 0.76087 0.91754 0.0
C338 C 0.2651 0.8125 0.91239 0.0
C339 C 0.19775 0.77783 0.95568 0.0
C340 C 0.25104 0.83287 0.98898 0.0
C341 C 0.23903 0.85075 0.98482 0.0
C342 C 0.2491 0.81482 0.97234 0.0
C343 C 0.23474 0.8146 0.95109 0.0
C344 C 0.22285 0.83274 0.94664 0.0
C345 C 0.22517 0.8506 0.96353 0.0
C346 C 0.26212 0.79583 0.97765 0.0
C347 C 0.20732 0.83311 0.9242 0.0
H348 H 0.25003 0.77735 0.88183 0.0
H349 H 0.19342 0.74811 0.91854 0.0
H350 H 0.2584 0.82816 0.90878 0.0
H351 H 0.27638 0.81543 0.92918 0.0
H352 H 0.27564 0.80846 0.89786 0.0
H353 H 0.18535 0.76235 0.95541 0.0
H354 H 0.20836 0.77997 0.9729 0.0
H355 H 0.18789 0.79196 0.95461 0.0
H356 H 0.26187 0.83288 0.00535 0.0
H357 H 0.21586 0.86433 0.96013 0.0
H358 H 0.27287 0.79269 0.96305 0.0
H359 H 0.2498 0.78055 0.9789 0.0
H360 H 0.2734 0.799 0.99447 0.0
H361 H 0.21707 0.83107 0.90853 0.0
H362 H 0.19979 0.84871 0.92312 0.0
H363 H 0.19306 0.81907 0.92321 0.0
C364 C 0.01249 0.50115 0.44107 0.0
C365 C -0.00122 0.51772 0.43657 0.0
C366 C 0.02694 0.4947 0.42436 0.0
C367 C 0.02785 0.50519 0.40273 0.0
C368 C 0.01369 0.52156 0.39786 0.0
C369 C -0.00074 0.52755 0.41478 0.0
C370 C 0.04161 0.477 0.43005 0.0
C371 C 0.01425 0.53321 0.37503 0.0
C372 C 0.08166 0.50731 0.36991 0.0
C373 C 0.07452 0.49143 0.35117 0.0
C374 C 0.06676 0.51167 0.38704 0.0
C375 C 0.04423 0.49973 0.38551 0.0
C376 C 0.0371 0.48327 0.367 0.0
C377 C 0.0523 0.47939 0.34998 0.0
C378 C 0.07494 0.52945 0.40645 0.0
C379 C 0.01329 0.47007 0.36492 0.0
H380 H 0.01216 0.49339 0.45781 0.0
H381 H 0.98877 0.54038 0.41113 0.0
H382 H 0.03873 0.4637 0.41569 0.0
H383 H 0.06009 0.48412 0.43121 0.0
H384 H 0.03791 0.46955 0.44702 0.0
H385 H 0.00164 0.54507 0.37364 0.0
H386 H 0.03172 0.54235 0.37378 0.0
H387 H 0.0105 0.52097 0.35967 0.0
H388 H 0.09878 0.51671 0.37096 0.0
H389 H 0.04667 0.46702 0.33561 0.0
H390 H 0.0731 0.5226 0.42402 0.0
H391 H 0.0641 0.54284 0.40513 0.0
H392 H 0.09319 0.53675 0.40556 0.0
H393 H 0.00997 0.46216 0.38171 0.0
H394 H 0.01086 0.45702 0.35027 0.0
H395 H 0.0002 0.48122 0.36175 0.0
C396 C 0.75361 0.72838 0.89298 0.0
C397 C 0.77365 0.73914 0.8844 0.0
C398 C 0.75473 0.71235 0.90969 0.0
C399 C 0.7764 0.70694 0.91809 0.0
C400 C 0.79666 0.71741 0.90921 0.0
C401 C 0.79505 0.73337 0.89245 0.0
C402 C 0.73272 0.70149 0.91868 0.0
C403 C 0.82008 0.71208 0.91777 0.0
C404 C 0.77983 0.68319 0.97854 0.0
C405 C 0.77794 0.66046 0.9726 0.0
C406 C 0.77979 0.69851 0.96097 0.0
C407 C 0.77784 0.69094 0.93685 0.0
C408 C 0.7764 0.66807 0.93071 0.0
C409 C 0.77646 0.65309 0.94867 0.0
C410 C 0.78137 0.72277 0.96823 0.0
C411 C 0.77435 0.6594 0.90517 0.0
H412 H 0.73699 0.73263 0.88683 0.0
H413 H 0.81062 0.74157 0.88592 0.0
H414 H 0.73123 0.68326 0.91598 0.0
H415 H 0.733 0.70546 0.93797 0.0
H416 H 0.71719 0.70692 0.9097 0.0
H417 H 0.83407 0.72098 0.90837 0.0
H418 H 0.82365 0.71661 0.937 0.0
H419 H 0.82046 0.69406 0.91526 0.0
H420 H 0.78104 0.68906 -0.00302 0.0
H421 H 0.77505 0.63557 0.9439 0.0
H422 H 0.76549 0.72902 0.96135 0.0
H423 H 0.79603 0.73235 0.96044 0.0
H424 H 0.78365 0.72603 0.98775 0.0
H425 H 0.75814 0.66319 0.89599 0.0
H426 H 0.7744 0.64126 0.90338 0.0
H427 H 0.78877 0.6677 0.89596 0.0
C428 C 0.01338 -0.00655 0.4096 0.0
C429 C 0.03645 0.00047 0.40578 0.0
C430 C -0.00463 -0.0025 0.39344 0.0
C431 C 0.00052 0.00888 0.373 0.0
C432 C 0.0237 0.01683 0.36956 0.0
C433 C 0.0414 0.01251 0.38598 0.0
C434 C 0.97086 0.98878 0.39775 0.0
C435 C 0.02986 0.02916 0.34804 0.0
C436 C 0.95814 -0.00366 0.31847 0.0
C437 C 0.94629 0.01465 0.31898 0.0
C438 C 0.97578 -0.0057 0.33597 0.0
C439 C 0.98183 0.01102 0.35441 0.0
C440 C 0.96997 0.02957 0.35506 0.0
C441 C 0.95229 0.03115 0.33734 0.0
C442 C 0.98796 0.97421 0.33473 0.0
C443 C 0.97599 0.04774 0.37442 0.0
H444 H 0.00937 0.98422 0.4249 0.0
H445 H 0.05915 0.0181 0.38295 0.0
H446 H 0.96 0.00215 0.39656 0.0
H447 H 0.9636 0.97571 0.38388 0.0
H448 H 0.96963 0.98173 0.41533 0.0
H449 H 0.04848 0.03578 0.34893 0.0
H450 H 0.02536 0.01793 0.3319 0.0
H451 H 0.0198 0.04307 0.34611 0.0
H452 H 0.95361 0.9835 0.30438 0.0
H453 H 0.94325 0.04538 0.33783 0.0
H454 H 0.98609 0.96518 0.35108 0.0
H455 H 0.00664 0.97937 0.33358 0.0
H456 H 0.98115 0.96267 0.31927 0.0
H457 H 0.9738 0.04085 0.39193 0.0
H458 H 0.96516 0.06109 0.37235 0.0
H459 H -0.00567 0.05505 0.37444 0.0
C460 C 0.23732 0.23012 0.66933 0.0
C461 C 0.23008 0.24907 0.66006 0.0
C462 C 0.24072 0.21214 0.65436 0.0
C463 C 0.23701 0.21323 0.62953 0.0
C464 C 0.23022 0.23253 0.62007 0.0
C465 C 0.22674 0.25016 0.63543 0.0
C466 C 0.2478 0.19179 0.66511 0.0
C467 C 0.22629 0.23441 0.59368 0.0
C468 C 0.26227 0.17452 0.58784 0.0
C469 C 0.24285 0.15909 0.58001 0.0
C470 C 0.26076 0.19199 0.60434 0.0
C471 C 0.23938 0.19396 0.61338 0.0
C472 C 0.21993 0.17801 0.60614 0.0
C473 C 0.22188 0.16084 0.58948 0.0
C474 C 0.28184 0.20875 0.61152 0.0
C475 C 0.1969 0.17938 0.61556 0.0
H476 H 0.23989 0.22913 0.68833 0.0
H477 H 0.22126 0.26477 0.62812 0.0
H478 H 0.23421 0.17743 0.66029 0.0
H479 H 0.26378 0.1878 0.65792 0.0
H480 H 0.25076 0.19385 0.68471 0.0
H481 H 0.22204 0.2509 0.58915 0.0
H482 H 0.24186 0.23141 0.58501 0.0
H483 H 0.21195 0.22163 0.58617 0.0
H484 H 0.27853 0.17332 0.58058 0.0
H485 H 0.20683 0.14892 0.58364 0.0
H486 H 0.28521 0.21038 0.63107 0.0
H487 H 0.27885 0.22519 0.60562 0.0
H488 H 0.29743 0.20427 0.60382 0.0
H489 H 0.19873 0.18036 0.6352 0.0
H490 H 0.18382 0.16496 0.60924 0.0
H491 H 0.19043 0.19464 0.60993 0.0
C492 C 0.47224 0.54961 0.63839 0.0
C493 C 0.47359 0.56983 0.62764 0.0
C494 C 0.45676 0.54449 0.65555 0.0
C495 C 0.44231 0.55997 0.66209 0.0
C496 C 0.44375 0.58048 0.65147 0.0
C497 C 0.45936 0.58516 0.63439 0.0
C498 C 0.45571 0.52246 0.66654 0.0
C499 C 0.42866 0.59743 0.658 0.0
C500 C 0.38692 0.53981 0.68929 0.0
C501 C 0.39311 0.54546 0.71342 0.0
C502 C 0.40282 0.54427 0.67242 0.0
C503 C 0.42545 0.55468 0.67985 0.0
C504 C 0.43182 0.56045 0.70416 0.0
C505 C 0.41558 0.55576 0.72065 0.0
C506 C 0.39539 0.5379 0.64664 0.0
C507 C 0.45578 0.57162 0.71274 0.0
H508 H 0.48318 0.53768 0.63329 0.0
H509 H 0.46028 0.60084 0.62621 0.0
H510 H 0.45911 0.525 0.68605 0.0
H511 H 0.43819 0.51297 0.66279 0.0
H512 H 0.46834 0.51239 0.6598 0.0
H513 H 0.43215 0.61273 0.64834 0.0
H514 H 0.41027 0.59037 0.65399 0.0
H515 H 0.43139 0.60192 0.67728 0.0
H516 H 0.36962 0.53179 0.68354 0.0
H517 H 0.42054 0.56016 0.73926 0.0
H518 H 0.40668 0.52659 0.63953 0.0
H519 H 0.3972 0.55282 0.63624 0.0
H520 H 0.37726 0.52964 0.64381 0.0
H521 H 0.46869 0.56122 0.70739 0.0
H522 H 0.45808 0.57479 0.73227 0.0
H523 H 0.45949 0.5876 0.70441 0.0
C524 C 0.759 0.2636 0.65942 0.0
C525 C 0.75342 0.26676 0.68277 0.0
C526 C 0.75403 0.27838 0.64225 0.0
C527 C 0.74314 0.29674 0.64853 0.0
C528 C 0.73764 0.30014 0.6721 0.0
C529 C 0.74289 0.28514 0.68896 0.0
C530 C 0.76028 0.27424 0.61732 0.0
C531 C 0.72596 0.31949 0.67945 0.0
C532 C 0.74786 0.34457 0.60812 0.0
C533 C 0.72688 0.34011 0.59396 0.0
C534 C 0.75323 0.33079 0.62619 0.0
C535 C 0.73722 0.31216 0.63028 0.0
C536 C 0.71581 0.30785 0.61641 0.0
C537 C 0.71092 0.32184 0.5984 0.0
C538 C 0.77626 0.33591 0.64057 0.0
C539 C 0.69822 0.28821 0.62032 0.0
H540 H 0.76718 0.24948 0.65449 0.0
H541 H 0.73849 0.28771 0.70694 0.0
H542 H 0.74452 0.27183 0.60485 0.0
H543 H 0.7717 0.28881 0.61198 0.0
H544 H 0.76914 0.25947 0.61543 0.0
H545 H 0.72316 0.32001 0.69857 0.0
H546 H 0.73648 0.33521 0.67566 0.0
H547 H 0.70905 0.31857 0.66903 0.0
H548 H 0.76031 0.35863 0.60484 0.0
H549 H 0.69464 0.31829 0.58761 0.0
H550 H 0.78637 0.32217 0.63784 0.0
H551 H 0.77378 0.33737 0.6597 0.0
H552 H 0.78646 0.35146 0.63575 0.0
H553 H 0.70543 0.2727 0.61685 0.0
H554 H 0.68203 0.28767 0.60868 0.0
H555 H 0.69405 0.28866 0.63902 0.0
C556 C 0.50813 0.98208 0.62634 0.0
C557 C 0.48733 0.9681 0.61994 0.0
C558 C 0.51802 0.98433 0.64979 0.0
C559 C 0.50702 0.97207 0.66722 0.0
C560 C 0.48576 0.95832 0.66102 0.0
C561 C 0.47608 0.95661 0.63747 0.0
C562 C 0.54055 -0.00058 0.6558 0.0
C563 C 0.47363 0.94485 0.67909 0.0
C564 C 0.5465 0.9605 0.71985 0.0
C565 C 0.54259 0.97651 0.73696 0.0
C566 C 0.53448 0.95844 0.69731 0.0
C567 C 0.51837 0.97291 0.69167 0.0
C568 C 0.51396 0.98877 0.70903 0.0
C569 C 0.52602 0.99028 0.73154 0.0
C570 C 0.53942 0.9411 0.67937 0.0
C571 C 0.49707 0.00462 0.70358 0.0
H572 H 0.51684 0.99113 0.61293 0.0
H573 H 0.46005 0.94571 0.63266 0.0
H574 H 0.539 0.01132 0.67075 0.0
H575 H 0.55419 0.98956 0.66155 0.0
H576 H 0.54614 0.00884 0.64054 0.0
H577 H 0.45667 0.93582 0.67169 0.0
H578 H 0.48451 0.93265 0.68567 0.0
H579 H 0.47098 0.95568 0.69455 0.0
H580 H 0.55917 0.94971 0.72397 0.0
H581 H 0.52297 0.00275 0.74465 0.0
H582 H 0.54721 0.94922 0.6643 0.0
H583 H 0.52317 0.93066 0.67217 0.0
H584 H 0.55136 0.93026 0.68701 0.0
H585 H 0.50323 0.01542 0.68959 0.0
H586 H 0.49473 0.01523 0.71937 0.0
H587 H 0.48007 -0.0046 0.69666 0.0
C588 C 0.85105 0.19483 0.77447 0.0
C589 C 0.83946 0.21284 0.76958 0.0
C590 C 0.87196 0.19766 0.7887 0.0
C591 C 0.88165 0.21903 0.79819 0.0
C592 C 0.87051 0.23741 0.79266 0.0
C593 C 0.8495 0.2341 0.77846 0.0
C594 C 0.88329 0.17763 0.79422 0.0
C595 C 0.88047 0.26049 0.8023 0.0
C596 C 0.92121 0.22249 0.85486 0.0
C597 C 0.94304 0.2259 0.84634 0.0
C598 C 0.90112 0.22041 0.83938 0.0
C599 C 0.90288 0.22191 0.81478 0.0
C600 C 0.92484 0.22549 0.80606 0.0
C601 C 0.94467 0.22737 0.82194 0.0
C602 C 0.87798 0.21643 0.84934 0.0
C603 C 0.92739 0.22728 0.77996 0.0
H604 H 0.84349 0.17834 0.76768 0.0
H605 H 0.84072 0.24812 0.77473 0.0
H606 H 0.90135 0.18011 0.78953 0.0
H607 H 0.88378 0.17529 0.81349 0.0
H608 H 0.87409 0.16229 0.78457 0.0
H609 H 0.87051 0.27317 0.79512 0.0
H610 H 0.88059 0.26152 0.82187 0.0
H611 H 0.89857 0.26447 0.79803 0.0
H612 H 0.91979 0.22135 0.87368 0.0
H613 H 0.96147 0.23012 0.81521 0.0
H614 H 0.8682 0.20052 0.84165 0.0
H615 H 0.86773 0.22964 0.84441 0.0
H616 H 0.87958 0.21595 0.86892 0.0
H617 H 0.91931 0.2117 0.77005 0.0
H618 H 0.9457 0.23068 0.7761 0.0
H619 H 0.9183 0.2407 0.77319 0.0
C620 C 0.4978 0.90532 0.47821 0.0
C621 C 0.47787 0.90188 0.4903 0.0
C622 C 0.50346 0.8887 0.46277 0.0
C623 C 0.48873 0.86824 0.45917 0.0
C624 C 0.46823 0.86493 0.47074 0.0
C625 C 0.4631 0.88175 0.48623 0.0
C626 C 0.52552 0.8928 0.45082 0.0
C627 C 0.45195 0.84343 0.46715 0.0
C628 C 0.49327 0.83007 0.4055 0.0
C629 C 0.50554 0.81424 0.4155 0.0
C630 C 0.48789 0.84787 0.41944 0.0
C631 C 0.49509 0.85 0.44393 0.0
C632 C 0.50791 0.83434 0.45403 0.0
C633 C 0.5129 0.81661 0.43971 0.0
C634 C 0.47408 0.86416 0.40807 0.0
C635 C 0.51606 0.83616 0.48005 0.0
H636 H 0.50935 0.9208 0.48127 0.0
H637 H 0.44761 0.879 0.49541 0.0
H638 H 0.53719 0.88105 0.45678 0.0
H639 H 0.52187 0.88986 0.43137 0.0
H640 H 0.53464 0.9099 0.45475 0.0
H641 H 0.43619 0.84387 0.47654 0.0
H642 H 0.44678 0.83953 0.44802 0.0
H643 H 0.46076 0.82975 0.47369 0.0
H644 H 0.48746 0.82835 0.38682 0.0
H645 H 0.52245 0.8045 0.44756 0.0
H646 H 0.48351 0.88118 0.41128 0.0
H647 H 0.45752 0.86382 0.41616 0.0
H648 H 0.47033 0.86053 0.38867 0.0
H649 H 0.52649 0.85254 0.48486 0.0
H650 H 0.52658 0.82311 0.48497 0.0
H651 H 0.50104 0.83484 0.49073 0.0
C652 C 0.15938 0.25923 0.77846 0.0
C653 C 0.15982 0.27806 0.76529 0.0
C654 C 0.1398 0.25115 0.78967 0.0
C655 C 0.12021 0.26215 0.78764 0.0
C656 C 0.12027 0.2807 0.77372 0.0
C657 C 0.14007 0.28843 0.76271 0.0
C658 C 0.14033 0.23127 0.8043 0.0
C659 C 0.09967 0.29282 0.77106 0.0
C660 C 0.0625 0.2332 0.80327 0.0
C661 C 0.06138 0.24246 0.82616 0.0
C662 C 0.08164 0.23927 0.79057 0.0
C663 C 0.10008 0.25499 0.80102 0.0
C664 C 0.09914 0.26427 0.82418 0.0
C665 C 0.07981 0.25789 0.83647 0.0
C666 C 0.08207 0.22902 0.76592 0.0
C667 C 0.11847 0.2811 0.83591 0.0
H668 H 0.17454 0.25108 0.78049 0.0
H669 H 0.14021 0.30292 0.75249 0.0
H670 H 0.13909 0.23616 0.82317 0.0
H671 H 0.12531 0.21852 0.79862 0.0
H672 H 0.15632 0.22379 0.80292 0.0
H673 H 0.10201 0.30619 0.75857 0.0
H674 H 0.084 0.28113 0.76466 0.0
H675 H 0.09661 0.30021 0.78854 0.0
H676 H 0.04835 0.22123 0.79518 0.0
H677 H 0.07911 0.26512 0.85415 0.0
H678 H 0.0976 0.2208 0.76487 0.0
H679 H 0.08309 0.24208 0.75302 0.0
H680 H 0.06658 0.21669 0.76053 0.0
H681 H 0.13488 0.27412 0.8367 0.0
H682 H 0.11525 0.28645 0.85416 0.0
H683 H 0.12077 0.29586 0.8253 0.0
C684 C 0.52772 0.62949 0.5152 0.0
C685 C 0.53723 0.61031 0.5096 0.0
C686 C 0.52539 0.6454 0.49859 0.0
C687 C 0.53283 0.64218 0.47579 0.0
C688 C 0.54312 0.62324 0.47021 0.0
C689 C 0.54518 0.6075 0.48718 0.0
C690 C 0.51433 0.66537 0.50527 0.0
C691 C 0.55142 0.61935 0.44612 0.0
C692 C 0.50332 0.67121 0.42704 0.0
C693 C 0.51919 0.69034 0.4256 0.0
C694 C 0.50779 0.65517 0.44292 0.0
C695 C 0.52877 0.6582 0.45756 0.0
C696 C 0.54515 0.67718 0.45574 0.0
C697 C 0.5401 0.6931 0.43989 0.0
C698 C 0.48977 0.63527 0.44452 0.0
C699 C 0.56779 0.68088 0.47089 0.0
H700 H 0.5216 0.63193 0.53248 0.0
H701 H 0.55259 0.59278 0.4827 0.0
H702 H 0.52587 0.68075 0.50235 0.0
H703 H 0.49813 0.66527 0.49381 0.0
H704 H 0.51029 0.66585 0.52404 0.0
H705 H 0.56042 0.60461 0.44508 0.0
H706 H 0.53656 0.61695 0.43247 0.0
H707 H 0.56329 0.634 0.44169 0.0
H708 H 0.48712 0.66896 0.41609 0.0
H709 H 0.55255 0.70775 0.43876 0.0
H710 H 0.48354 0.63535 0.46243 0.0
H711 H 0.49735 0.61985 0.44186 0.0
H712 H 0.47478 0.63491 0.43124 0.0
H713 H 0.56463 0.68304 0.48979 0.0
H714 H 0.57932 0.69569 0.46618 0.0
H715 H 0.5768 0.66624 0.46901 0.0
C716 C 0.86465 0.79421 0.78846 0.0
C717 C 0.84153 0.78508 0.78277 0.0
C718 C 0.88175 0.78972 0.77384 0.0
C719 C 0.87558 0.77579 0.75301 0.0
C720 C 0.85221 0.76691 0.74689 0.0
C721 C 0.83547 0.77165 0.76185 0.0
C722 C 0.9065 0.7995 0.78096 0.0
C723 C 0.84495 0.75203 0.72479 0.0
C724 C 0.91767 0.77686 0.70558 0.0
C725 C 0.92826 0.75819 0.71022 0.0
C726 C 0.90046 0.78279 0.71932 0.0
C727 C 0.8937 0.76975 0.73815 0.0
C728 C 0.90429 0.75088 0.7429 0.0
C729 C 0.92141 0.74533 0.72888 0.0
C730 C 0.88954 0.80302 0.71372 0.0
C731 C 0.89756 0.73656 0.76284 0.0
H732 H 0.8695 0.80463 0.80456 0.0
H733 H 0.81764 0.76456 0.75727 0.0
H734 H 0.91695 0.78606 0.78426 0.0
H735 H 0.91379 0.80884 0.7664 0.0
H736 H 0.90832 0.81074 0.79717 0.0
H737 H 0.82598 0.74727 0.72199 0.0
H738 H 0.85099 0.76039 0.70907 0.0
H739 H 0.85304 0.73678 0.72596 0.0
H740 H 0.92285 0.7869 0.6912 0.0
H741 H 0.92948 0.73089 0.73263 0.0
H742 H 0.89229 0.81501 0.72933 0.0
H743 H 0.87067 0.79837 0.70975 0.0
H744 H 0.89665 0.81134 0.69841 0.0
H745 H 0.90052 0.74657 0.77992 0.0
H746 H 0.90743 0.72243 0.76418 0.0
H747 H 0.87894 0.73 0.76021 0.0
C748 C 0.07332 0.84402 0.53944 0.0
C749 C 0.06589 0.86219 0.52865 0.0
C750 C 0.0599 0.83207 0.55511 0.0
C751 C 0.03866 0.83861 0.56035 0.0
C752 C 0.03145 0.85741 0.55018 0.0
C753 C 0.04509 0.86891 0.53433 0.0
C754 C 0.06812 0.81201 0.56546 0.0
C755 C 0.00906 0.86505 0.5556 0.0
C756 C -0.00578 0.79341 0.57936 0.0
C757 C -0.00266 0.79661 0.60409 0.0
C758 C 0.0072 0.8073 0.56492 0.0
C759 C 0.02351 0.82499 0.57544 0.0
C760 C 0.02611 0.82885 0.60036 0.0
C761 C 0.01308 0.81453 0.61441 0.0
C762 C 0.00403 0.80253 0.53842 0.0
C763 C 0.04309 0.84774 0.61219 0.0
H764 H 0.08935 0.83871 0.53512 0.0
H765 H 0.0393 0.88302 0.52616 0.0
H766 H 0.06879 0.81352 0.58504 0.0
H767 H 0.05577 0.79701 0.55936 0.0
H768 H 0.08543 0.80961 0.5603 0.0
H769 H 0.00676 0.88091 0.54768 0.0
H770 H -0.00559 0.85235 0.54865 0.0
H771 H 0.00829 0.86715 0.57502 0.0
H772 H 0.98212 0.7796 0.57122 0.0
H773 H 0.0155 0.81718 0.63351 0.0
H774 H 0.02025 0.79826 0.53202 0.0
H775 H 8e-05 0.81743 0.52949 0.0
H776 H 0.98998 0.78868 0.53297 0.0
H777 H 0.06088 0.84499 0.60921 0.0
H778 H 0.04175 0.84955 0.63156 0.0
H779 H 0.0403 0.86348 0.60432 0.0
C780 C 0.13231 0.74613 0.77054 0.0
C781 C 0.13042 0.72934 0.78652 0.0
C782 C 0.11314 0.75012 0.75594 0.0
C783 C 0.09152 0.73709 0.75744 0.0
C784 C 0.08962 0.71971 0.77303 0.0
C785 C 0.10911 0.71599 0.78733 0.0
C786 C 0.1159 0.76866 0.73935 0.0
C787 C 0.06683 0.70549 0.77512 0.0
C788 C 0.03839 0.76288 0.73887 0.0
C789 C 0.03198 0.75285 0.71613 0.0
C790 C 0.05757 0.75768 0.75261 0.0
C791 C 0.07076 0.7422 0.74331 0.0
C792 C 0.06432 0.73193 0.72043 0.0
C793 C 0.04496 0.73732 0.70715 0.0
C794 C 0.06383 0.76886 0.77702 0.0
C795 C 0.07804 0.71546 0.70987 0.0
H796 H 0.14872 0.75645 0.76971 0.0
H797 H 0.10748 0.703 0.79963 0.0
H798 H 0.10946 0.76239 0.72103 0.0
H799 H 0.10546 0.78153 0.74456 0.0
H800 H 0.13411 0.77648 0.73939 0.0
H801 H 0.06845 0.69203 0.78729 0.0
H802 H 0.05443 0.71585 0.78179 0.0
H803 H 0.05943 0.69803 0.75749 0.0
H804 H 0.02841 0.77482 0.74598 0.0
H805 H 0.04016 0.7295 0.68957 0.0
H806 H 0.08129 0.77858 0.77794 0.0
H807 H 0.06429 0.75627 0.79038 0.0
H808 H 0.05148 0.78009 0.78188 0.0
H809 H 0.09598 0.72342 0.70857 0.0
H810 H 0.07055 0.7087 0.69197 0.0
H811 H 0.07889 0.70153 0.72153 0.0
C812 C 0.98375 0.61995 0.54507 0.0
C813 C 0.9639 0.60585 0.53566 0.0
C814 C 0.98277 0.6361 0.56316 0.0
C815 C 0.96142 0.63817 0.57218 0.0
C816 C 0.94134 0.62384 0.563 0.0
C817 C 0.9428 0.60785 0.54478 0.0
C818 C 0.00457 0.65112 0.57244 0.0
C819 C 0.91831 0.62551 0.57228 0.0
C820 C 0.96647 0.66897 0.6324 0.0
C821 C 0.96402 0.69045 0.62616 0.0
C822 C 0.96461 0.65151 0.61507 0.0
C823 C 0.96028 0.65567 0.59094 0.0
C824 C 0.95677 0.6771 0.58463 0.0
C825 C 0.95863 0.69422 0.60232 0.0
C826 C 0.9683 0.62885 0.62249 0.0
C827 C 0.95212 0.68219 0.55909 0.0
H828 H 0.00012 0.61854 0.53814 0.0
H829 H 0.92739 0.59698 0.53765 0.0
H830 H 0.00257 0.66856 0.56961 0.0
H831 H 0.00792 0.64973 0.59177 0.0
H832 H 0.01983 0.64719 0.56369 0.0
H833 H 0.90445 0.61275 0.5637 0.0
H834 H 0.91944 0.62372 0.59167 0.0
H835 H 0.91344 0.64206 0.56924 0.0
H836 H 0.97049 0.66587 0.65078 0.0
H837 H 0.95662 0.71074 0.59733 0.0
H838 H 0.98458 0.62468 0.61614 0.0
H839 H 0.95416 0.61617 0.61434 0.0
H840 H 0.96928 0.62784 0.64201 0.0
H841 H 0.96751 0.68048 0.54951 0.0
H842 H 0.94793 0.69919 0.5573 0.0
H843 H 0.93764 0.67026 0.5503 0.0
C844 C 0.78062 0.88089 0.22956 0.0
C845 C 0.78628 0.86454 0.24455 0.0
C846 C 0.79462 0.90149 0.23008 0.0
C847 C 0.81481 0.90581 0.24586 0.0
C848 C 0.82095 0.88918 0.26057 0.0
C849 C 0.8066 0.86877 0.25977 0.0
C850 C 0.78751 0.91882 0.21413 0.0
C851 C 0.84246 0.89311 0.2775 0.0
C852 C 0.86138 0.95284 0.23498 0.0
C853 C 0.8574 0.96947 0.25137 0.0
C854 C 0.84756 0.93209 0.23287 0.0
C855 C 0.82926 0.92789 0.24744 0.0
C856 C 0.82496 0.94468 0.26382 0.0
C857 C 0.83911 0.96526 0.26563 0.0
C858 C 0.85272 0.91457 0.21525 0.0
C859 C 0.80551 0.94084 0.27958 0.0
H860 H 0.76495 0.8778 0.21777 0.0
H861 H 0.81116 0.85624 0.27137 0.0
H862 H 0.78424 0.93342 0.22501 0.0
H863 H 0.8016 0.92454 0.20308 0.0
H864 H 0.77173 0.91261 0.2023 0.0
H865 H 0.84527 0.87819 0.28707 0.0
H866 H 0.85773 0.89823 0.26778 0.0
H867 H 0.84127 0.90677 0.29071 0.0
H868 H 0.87548 0.95592 0.22389 0.0
H869 H 0.83588 0.97803 0.27829 0.0
H870 H 0.83733 0.90895 0.20271 0.0
H871 H 0.85688 0.89996 0.22461 0.0
H872 H 0.86736 0.92059 0.20497 0.0
H873 H 0.78893 0.93589 0.26865 0.0
H874 H 0.80414 0.95576 0.29101 0.0
H875 H 0.80812 0.92711 0.29106 0.0
C876 C 0.82231 0.18064 0.31994 0.0
C877 C 0.79861 0.1773 0.32249 0.0
C878 C 0.83463 0.16271 0.3179 0.0
C879 C 0.82294 0.14091 0.31835 0.0
C880 C 0.79915 0.13744 0.32158 0.0
C881 C 0.78728 0.15568 0.32364 0.0
C882 C 0.86002 0.16708 0.31462 0.0
C883 C 0.7861 0.11444 0.32215 0.0
C884 C 0.84846 0.09492 0.28737 0.0
C885 C 0.85942 0.08559 0.30645 0.0
C886 C 0.83644 0.11283 0.29104 0.0
C887 C 0.83539 0.12171 0.31435 0.0
C888 C 0.84635 0.11235 0.3337 0.0
C889 C 0.85821 0.09438 0.32952 0.0
C890 C 0.8249 0.1223 0.26994 0.0
C891 C 0.84566 0.12141 0.35879 0.0
H892 H 0.83123 0.19728 0.3191 0.0
H893 H 0.76897 0.15294 0.32563 0.0
H894 H 0.86989 0.15882 0.32811 0.0
H895 H 0.86315 0.16005 0.29701 0.0
H896 H 0.8668 0.18501 0.31595 0.0
H897 H 0.76792 0.11459 0.32599 0.0
H898 H 0.78623 0.10528 0.30484 0.0
H899 H 0.79459 0.10518 0.33577 0.0
H900 H 0.84925 0.08823 0.26949 0.0
H901 H 0.86663 0.0873 0.34437 0.0
H902 H 0.83213 0.13995 0.26907 0.0
H903 H 0.80622 0.12157 0.27184 0.0
H904 H 0.82712 0.11335 0.25299 0.0
H905 H 0.85352 0.13903 0.36066 0.0
H906 H 0.85493 0.11218 0.37189 0.0
H907 H 0.82755 0.12067 0.36311 0.0
C908 C 0.40854 0.0048 0.02605 0.0
C909 C 0.40429 0.01795 0.00709 0.0
C910 C 0.392 0.9873 0.03131 0.0
C911 C 0.37071 0.9828 0.01724 0.0
C912 C 0.3663 -0.00396 -0.00188 0.0
C913 C 0.38312 0.01346 0.99329 0.0
C914 C 0.3973 0.97357 0.05187 0.0
C915 C 0.34381 -0.00826 0.98269 0.0
C916 C 0.3353 0.92578 0.01565 0.0
C917 C 0.31817 0.92945 0.03054 0.0
C918 C 0.35272 0.94292 0.01145 0.0
C919 C 0.35303 0.96423 0.02243 0.0
C920 C 0.33605 0.96794 0.03781 0.0
C921 C 0.31882 0.95052 0.04167 0.0
C922 C 0.37054 0.93832 0.99493 0.0
C923 C 0.33585 0.99043 0.04989 0.0
H924 H 0.42485 0.00816 0.03681 0.0
H925 H 0.37968 0.0235 0.97859 0.0
H926 H 0.3842 0.9742 0.06477 0.0
H927 H 0.39648 0.95602 0.04555 0.0
H928 H 0.4146 0.9793 0.06118 0.0
H929 H 0.34304 0.00359 0.96855 0.0
H930 H 0.34136 0.97474 0.9743 0.0
H931 H 0.32923 -0.00707 0.99365 0.0
H932 H 0.33496 0.90956 0.00698 0.0
H933 H 0.30567 0.95352 0.05323 0.0
H934 H 0.38808 0.94284 0.00404 0.0
H935 H 0.36941 0.94864 0.97947 0.0
H936 H 0.36832 0.92068 0.98839 0.0
H937 H 0.35263 -0.00385 0.06021 0.0
H938 H 0.32195 0.9904 0.06199 0.0
H939 H 0.33343 0.00261 0.03642 0.0
C940 C 0.19255 0.34313 0.34096 0.0
C941 C 0.20674 0.33539 0.32473 0.0
C942 C 0.18192 0.36187 0.33691 0.0
C943 C 0.18559 0.37322 0.31613 0.0
C944 C 0.2 0.3656 0.29971 0.0
C945 C 0.21039 0.34675 0.30419 0.0
C946 C 0.16666 0.36946 0.35484 0.0
C947 C 0.20434 0.37731 0.27738 0.0
C948 C 0.14087 0.40899 0.29603 0.0
C949 C 0.15141 0.43012 0.30484 0.0
C950 C 0.15196 0.39038 0.29926 0.0
C951 C 0.17414 0.39294 0.31157 0.0
C952 C 0.18502 0.41424 0.32021 0.0
C953 C 0.17352 0.43257 0.31677 0.0
C954 C 0.13978 0.36793 0.28981 0.0
C955 C 0.20868 0.41763 0.3334 0.0
H956 H 0.18961 0.33448 0.35688 0.0
H957 H 0.22135 0.34091 0.29157 0.0
H958 H 0.17319 0.38672 0.36147 0.0
H959 H 0.14899 0.36929 0.34636 0.0
H960 H 0.1657 0.35889 0.37017 0.0
H961 H 0.2162 0.36944 0.26655 0.0
H962 H 0.18784 0.37734 0.2665 0.0
H963 H 0.21185 0.39481 0.28189 0.0
H964 H 0.12381 0.40692 0.28675 0.0
H965 H 0.18184 0.44883 0.32358 0.0
H966 H 0.13695 0.35702 0.30464 0.0
H967 H 0.15063 0.36006 0.27782 0.0
H968 H 0.12287 0.36883 0.28 0.0
H969 H 0.20829 0.40853 0.34981 0.0
H970 H 0.2151 0.43534 0.33827 0.0
H971 H 0.2211 0.41085 0.32243 0.0
C972 C 0.15595 0.96933 0.48399 0.0
C973 C 0.13205 0.96726 0.48498 0.0
C974 C 0.16973 0.99006 0.48697 0.0
C975 C 0.15938 0.00921 0.49125 0.0
C976 C 0.13528 0.00722 0.49259 0.0
C977 C 0.12189 0.98623 0.4895 0.0
C978 C 0.19536 -0.00852 0.48536 0.0
C979 C 0.12369 0.02725 0.49739 0.0
C980 C 0.20033 0.05878 0.51924 0.0
C981 C 0.20577 0.0706 0.4994 0.0
C982 C 0.18453 0.03922 0.51699 0.0
C983 C 0.17396 0.03123 0.49434 0.0
C984 C 0.17869 0.04352 0.47439 0.0
C985 C 0.19451 0.06308 0.47716 0.0
C986 C 0.17982 0.02665 0.53871 0.0
C987 C 0.16775 0.03554 0.44995 0.0
H988 H 0.16389 0.95471 0.48052 0.0
H989 H 0.10356 0.98466 0.49109 0.0
H990 H 0.20068 0.00216 0.47096 0.0
H991 H 0.20481 -0.00084 0.50209 0.0
H992 H 0.2007 0.97501 0.48189 0.0
H993 H 0.10475 0.02293 0.49761 0.0
H994 H 0.13082 0.03565 0.51471 0.0
H995 H 0.12722 0.03927 0.48369 0.0
H996 H 0.20883 0.06454 0.53652 0.0
H997 H 0.19853 0.07213 0.46174 0.0
H998 H 0.18668 0.01071 0.53733 0.0
H999 H 0.16101 0.02276 0.54001 0.0
H1000 H 0.18786 0.03602 0.55525 0.0
H1001 H 0.17386 0.0199 0.44442 0.0
H1002 H 0.17191 0.04778 0.43658 0.0
H1003 H 0.14877 0.03195 0.45006 0.0
C1004 C 0.70609 0.13175 0.78029 0.0
C1005 C 0.7133 0.13559 0.75773 0.0
C1006 C 0.68899 0.1141 0.78372 0.0
C1007 C 0.67883 0.09993 0.76411 0.0
C1008 C 0.68551 0.10409 0.74117 0.0
C1009 C 0.70267 0.12189 0.73825 0.0
C1010 C 0.68224 0.11026 0.80843 0.0
C1011 C 0.675 0.08936 0.71983 0.0
C1012 C 0.65362 0.04163 0.7768 0.0
C1013 C 0.63004 0.04312 0.77614 0.0
C1014 C 0.66964 0.05995 0.77268 0.0
C1015 C 0.6619 0.08026 0.76779 0.0
C1016 C 0.63812 0.08184 0.76694 0.0
C1017 C 0.62247 0.06325 0.77113 0.0
C1018 C 0.69489 0.05763 0.77375 0.0
C1019 C 0.62925 0.10323 0.76179 0.0
H1020 H 0.71414 0.14229 0.79544 0.0
H1021 H 0.7081 0.12476 0.72074 0.0
H1022 H 0.66335 0.10952 0.80885 0.0
H1023 H 0.6867 0.09412 0.81386 0.0
H1024 H 0.69097 0.12339 0.82161 0.0
H1025 H 0.68121 0.0955 0.70307 0.0
H1026 H 0.6793 0.07243 0.72171 0.0
H1027 H 0.65597 0.0881 0.71859 0.0
H1028 H 0.65962 0.02614 0.78064 0.0
H1029 H 0.60427 0.06454 0.77055 0.0
H1030 H 0.70465 0.06922 0.78786 0.0
H1031 H 0.70187 0.06206 0.75678 0.0
H1032 H 0.69804 0.04059 0.77734 0.0
H1033 H 0.63681 0.1163 0.77554 0.0
H1034 H 0.61019 0.1016 0.76126 0.0
H1035 H 0.63462 0.10887 0.74455 0.0
C1036 C 0.37105 -0.00662 0.54623 0.0
C1037 C 0.39298 -0.00296 0.53797 0.0
C1038 C 0.35552 0.00858 0.54288 0.0
C1039 C 0.36198 0.02785 0.53079 0.0
C1040 C 0.38414 0.03173 0.52251 0.0
C1041 C 0.39941 0.01632 0.52628 0.0
C1042 C 0.3321 0.00393 0.55213 0.0
C1043 C 0.39157 0.05199 0.50937 0.0
C1044 C 0.31279 0.05408 0.50222 0.0
C1045 C 0.31137 0.07151 0.51875 0.0
C1046 C 0.32957 0.04012 0.50564 0.0
C1047 C 0.34521 0.04354 0.52619 0.0
C1048 C 0.34419 0.06137 0.54273 0.0
C1049 C 0.32733 0.07522 0.53876 0.0
C1050 C 0.33023 0.02143 0.48747 0.0
C1051 C 0.3605 0.06546 0.56492 0.0
H1052 H 0.36597 0.97859 0.55539 0.0
H1053 H 0.41632 0.01927 0.51982 0.0
H1054 H 0.32927 0.01794 0.56413 0.0
H1055 H 0.31848 0.00225 0.5372 0.0
H1056 H 0.33003 0.98858 0.56187 0.0
H1057 H 0.40956 0.05283 0.50453 0.0
H1058 H 0.38 0.05202 0.49295 0.0
H1059 H 0.39017 0.06714 0.52035 0.0
H1060 H 0.30063 0.05116 0.48664 0.0
H1061 H 0.32632 0.08863 0.55163 0.0
H1062 H 0.32637 0.00536 0.49558 0.0
H1063 H 0.34772 0.02229 0.48132 0.0
H1064 H 0.31765 0.02171 0.47186 0.0
H1065 H 0.35778 0.05111 0.57609 0.0
H1066 H 0.35809 0.08057 0.57551 0.0
H1067 H 0.37858 0.06715 0.56034 0.0
C1068 C 0.59541 0.48686 0.5262 0.0
C1069 C 0.5984 0.50479 0.54307 0.0
C1070 C 0.61243 0.47311 0.5243 0.0
C1071 C 0.6329 0.47729 0.53971 0.0
C1072 C 0.63598 0.49529 0.55685 0.0
C1073 C 0.61873 0.50884 0.55828 0.0
C1074 C 0.60857 0.45416 0.50571 0.0
C1075 C 0.65753 0.50025 0.57365 0.0
C1076 C 0.66903 0.43099 0.54875 0.0
C1077 C 0.68673 0.43668 0.53409 0.0
C1078 C 0.65135 0.44401 0.55071 0.0
C1079 C 0.65132 0.46311 0.53762 0.0
C1080 C 0.66902 0.46882 0.52265 0.0
C1081 C 0.68651 0.45558 0.52111 0.0
C1082 C 0.63281 0.43743 0.56692 0.0
C1083 C 0.66954 0.48898 0.50831 0.0
H1084 H 0.57977 0.4836 0.51438 0.0
H1085 H 0.62116 0.5226 0.57142 0.0
H1086 H 0.62234 0.45616 0.49344 0.0
H1087 H 0.6095 0.43833 0.51419 0.0
H1088 H 0.59163 0.45301 0.49523 0.0
H1089 H 0.6571 0.51462 0.58624 0.0
H1090 H 0.65981 0.48564 0.58391 0.0
H1091 H 0.67281 0.50376 0.56351 0.0
H1092 H 0.66906 0.41644 0.55887 0.0
H1093 H 0.70007 0.4601 0.50969 0.0
H1094 H 0.61566 0.43493 0.55676 0.0
H1095 H 0.63275 0.45088 0.58072 0.0
H1096 H 0.63521 0.42203 0.57576 0.0
H1097 H 0.65336 0.48789 0.4966 0.0
H1098 H 0.68431 0.49096 0.49723 0.0
H1099 H 0.67068 0.50404 0.52028 0.0
C1100 C 0.71351 0.28026 0.38214 0.0
C1101 C 0.73556 0.27692 0.37654 0.0
C1102 C 0.71055 0.29518 0.40084 0.0
C1103 C 0.73013 0.30683 0.41444 0.0
C1104 C 0.75242 0.30311 0.40924 0.0
C1105 C 0.75486 0.28818 0.39039 0.0
C1106 C 0.6865 0.29857 0.40597 0.0
C1107 C 0.77373 0.31512 0.42339 0.0
C1108 C 0.72665 0.36115 0.44827 0.0
C1109 C 0.72575 0.35467 0.47156 0.0
C1110 C 0.72746 0.34565 0.42943 0.0
C1111 C 0.72743 0.32312 0.43397 0.0
C1112 C 0.7259 0.31637 0.45734 0.0
C1113 C 0.72504 0.33222 0.47585 0.0
C1114 C 0.72895 0.35347 0.40472 0.0
C1115 C 0.72585 0.29251 0.46291 0.0
H1116 H 0.69852 0.27097 0.37218 0.0
H1117 H 0.77196 0.28561 0.38623 0.0
H1118 H 0.68355 0.29447 0.42438 0.0
H1119 H 0.68443 0.31619 0.40446 0.0
H1120 H 0.67309 0.28827 0.39371 0.0
H1121 H 0.78979 0.31002 0.4174 0.0
H1122 H 0.77453 0.3332 0.42187 0.0
H1123 H 0.77303 0.31196 0.4424 0.0
H1124 H 0.72712 0.37844 0.44476 0.0
H1125 H 0.72432 0.32703 0.49378 0.0
H1126 H 0.71502 0.34394 0.39245 0.0
H1127 H 0.74557 0.35052 0.39821 0.0
H1128 H 0.7276 0.37134 0.40396 0.0
H1129 H 0.71205 0.28175 0.45161 0.0
H1130 H 0.72327 0.28977 0.48176 0.0
H1131 H 0.74246 0.28723 0.45894 0.0
C1132 C 0.52754 0.02632 0.95284 0.0
C1133 C 0.51005 0.03911 0.94743 0.0
C1134 C 0.54021 0.0186 0.9351 0.0
C1135 C 0.53552 0.02409 0.91145 0.0
C1136 C 0.51769 0.03674 0.90582 0.0
C1137 C 0.50507 0.04395 0.92384 0.0
C1138 C 0.55885 0.00486 0.94171 0.0
C1139 C 0.51235 0.04314 0.88085 0.0
C1140 C 0.58309 0.02516 0.87008 0.0
C1141 C 0.57604 0.00562 0.85588 0.0
C1142 C 0.57013 0.03127 0.88832 0.0
C1143 C 0.5498 0.01735 0.89269 0.0
C1144 C 0.54283 -0.00263 0.87875 0.0
C1145 C 0.55595 -0.00818 0.86038 0.0
C1146 C 0.57797 0.05285 0.90262 0.0
C1147 C 0.52143 0.98196 0.88311 0.0
H1148 H 0.53139 0.02239 0.971 0.0
H1149 H 0.49165 0.05389 0.91951 0.0
H1150 H 0.55606 0.98914 0.93061 0.0
H1151 H 0.57586 0.01383 0.93826 0.0
H1152 H 0.55947 0.00097 0.96063 0.0
H1153 H 0.4976 0.05262 0.87932 0.0
H1154 H 0.52766 0.05336 0.87488 0.0
H1155 H 0.5083 0.02816 0.86862 0.0
H1156 H 0.59854 0.03596 0.86665 0.0
H1157 H 0.55047 0.97663 0.84954 0.0
H1158 H 0.5805 0.04984 0.92168 0.0
H1159 H 0.56452 0.06378 0.90061 0.0
H1160 H 0.5943 0.06169 0.89713 0.0
H1161 H 0.52238 0.97741 0.9018 0.0
H1162 H 0.51895 0.96658 0.87141 0.0
H1163 H 0.50607 0.9904 0.88012 0.0
C1164 C 0.28981 0.23506 0.39277 0.0
C1165 C 0.27172 0.23278 0.37474 0.0
C1166 C 0.29144 0.21875 0.40909 0.0
C1167 C 0.27467 0.19962 0.40727 0.0
C1168 C 0.2568 0.19688 0.38868 0.0
C1169 C 0.25549 0.21352 0.37268 0.0
C1170 C 0.31071 0.22231 0.42873 0.0
C1171 C 0.23871 0.17661 0.38605 0.0
C1172 C 0.28837 0.15003 0.44062 0.0
C1173 C 0.27662 0.1523 0.46092 0.0
C1174 C 0.28771 0.16517 0.42286 0.0
C1175 C 0.27515 0.18307 0.42556 0.0
C1176 C 0.26321 0.18541 0.44596 0.0
C1177 C 0.26401 0.16997 0.46333 0.0
C1178 C 0.30051 0.16206 0.40125 0.0
C1179 C 0.24973 0.20436 0.44956 0.0
H1180 H 0.30245 0.24986 0.39451 0.0
H1181 H 0.24153 0.21154 0.35874 0.0
H1182 H 0.30344 0.22354 0.44608 0.0
H1183 H 0.32035 0.20801 0.42883 0.0
H1184 H 0.32298 0.23757 0.42702 0.0
H1185 H 0.22682 0.17632 0.36978 0.0
H1186 H 0.247 0.16144 0.38552 0.0
H1187 H 0.22843 0.17609 0.40159 0.0
H1188 H 0.29808 0.13639 0.43857 0.0
H1189 H 0.25491 0.1719 0.47896 0.0
H1190 H 0.31379 0.17662 0.39999 0.0
H1191 H 0.28847 0.16083 0.38502 0.0
H1192 H 0.30906 0.14701 0.40159 0.0
H1193 H 0.26133 0.22031 0.44971 0.0
H1194 H 0.24132 0.20376 0.46637 0.0
H1195 H 0.23627 0.2041 0.43467 0.0
C1196 C 0.4542 0.50495 0.94025 0.0
C1197 C 0.47039 0.4909 0.9356 0.0
C1198 C 0.43695 0.50822 0.92279 0.0
C1199 C 0.43579 0.49708 0.9002 0.0
C1200 C 0.45138 0.48209 0.89577 0.0
C1201 C 0.46854 0.47923 0.9135 0.0
C1202 C 0.42062 0.52434 0.92817 0.0
C1203 C 0.45055 0.46974 0.87197 0.0
C1204 C 0.38217 0.49483 0.85759 0.0
C1205 C 0.38912 0.51155 0.84256 0.0
C1206 C 0.39708 0.49002 0.87659 0.0
C1207 C 0.41941 0.50229 0.88067 0.0
C1208 C 0.4264 0.51939 0.86577 0.0
C1209 C 0.4112 0.52378 0.84688 0.0
C1210 C 0.38908 0.47163 0.89208 0.0
C1211 C 0.45005 0.53291 0.86962 0.0
H1212 H 0.45546 0.51401 0.9573 0.0
H1213 H 0.48086 0.46822 0.90981 0.0
H1214 H 0.42383 0.53881 0.91725 0.0
H1215 H 0.40253 0.51657 0.92349 0.0
H1216 H 0.42259 0.53031 0.94711 0.0
H1217 H 0.46265 0.45737 0.87199 0.0
H1218 H 0.43288 0.46114 0.86665 0.0
H1219 H 0.45505 0.4816 0.85834 0.0
H1220 H 0.36516 0.48528 0.85436 0.0
H1221 H 0.4167 0.53677 0.83541 0.0
H1222 H 0.3905 0.478 0.91084 0.0
H1223 H 0.4003 0.45858 0.89098 0.0
H1224 H 0.37099 0.46403 0.88691 0.0
H1225 H 0.45282 0.54085 0.8878 0.0
H1226 H 0.45261 0.54597 0.8568 0.0
H1227 H 0.46341 0.52199 0.86789 0.0
C1228 C 0.7531 0.73892 0.19143 0.0
C1229 C 0.73895 0.75414 0.18343 0.0
C1230 C 0.75759 0.7215 0.17629 0.0
C1231 C 0.74767 0.71924 0.15259 0.0
C1232 C 0.7335 0.73463 0.14437 0.0
C1233 C 0.72934 0.75189 0.15987 0.0
C1234 C 0.77282 0.70544 0.18568 0.0
C1235 C 0.72258 0.73276 0.11922 0.0
C1236 C 0.77294 0.68605 0.10556 0.0
C1237 C 0.7575 0.66625 0.10331 0.0
C1238 C 0.7703 0.70324 0.12195 0.0
C1239 C 0.75175 0.70059 0.13641 0.0
C1240 C 0.73648 0.68042 0.13469 0.0
C1241 C 0.73956 0.6635 0.1182 0.0
C1242 C 0.787 0.72447 0.12334 0.0
C1243 C 0.71649 0.67695 0.14981 0.0
H1244 H 0.76063 0.74054 0.2096 0.0
H1245 H 0.71839 0.76357 0.15351 0.0
H1246 H 0.76302 0.6885 0.18439 0.0
H1247 H 0.78759 0.7051 0.1748 0.0
H1248 H 0.77957 0.70973 0.20442 0.0
H1249 H 0.71223 0.74623 0.11551 0.0
H1250 H 0.73608 0.73324 0.10666 0.0
H1251 H 0.71122 0.71668 0.11572 0.0
H1252 H 0.78689 0.68833 0.09418 0.0
H1253 H 0.72754 0.64826 0.11663 0.0
H1254 H 0.7945 0.72863 0.14184 0.0
H1255 H 0.77777 0.73824 0.11789 0.0
H1256 H 0.80124 0.72346 0.11184 0.0
H1257 H 0.7227 0.68012 0.16879 0.0
H1258 H 0.70684 0.65995 0.14713 0.0
H1259 H 0.70444 0.68887 0.14552 0.0
C1260 C 0.97969 0.0741 0.12082 0.0
C1261 C 0.9891 0.05623 0.11115 0.0
C1262 C 0.97036 0.07308 0.14275 0.0
C1263 C 0.97047 0.05374 0.15536 0.0
C1264 C 0.98025 0.03575 0.1459 0.0
C1265 C 0.98944 0.0372 0.12388 0.0
C1266 C 0.96007 0.09259 0.15225 0.0
C1267 C 0.98073 0.01488 0.15891 0.0
C1268 C 0.96258 0.05818 0.22107 0.0
C1269 C 0.93914 0.04991 0.2213 0.0
C1270 C 0.97307 0.05936 0.19975 0.0
C1271 C 0.95979 0.05216 0.17816 0.0
C1272 C 0.93614 0.04381 0.17828 0.0
C1273 C 0.92611 0.04277 0.19984 0.0
C1274 C -0.00166 0.06834 0.20031 0.0
C1275 C 0.92139 0.03604 0.1556 0.0
H1276 H 0.97938 0.08889 0.11115 0.0
H1277 H -0.00328 0.02334 0.11656 0.0
H1278 H 0.94151 0.08756 0.15423 0.0
H1279 H 0.96852 0.09841 0.17005 0.0
H1280 H 0.96185 0.10662 0.14053 0.0
H1281 H 0.98959 0.00266 0.1495 0.0
H1282 H 0.9896 0.01884 0.17691 0.0
H1283 H 0.96288 0.00712 0.16105 0.0
H1284 H 0.9728 0.06367 0.23757 0.0
H1285 H 0.908 0.03632 0.19984 0.0
H1286 H 0.00068 0.08314 0.18976 0.0
H1287 H 0.0077 0.05585 0.19214 0.0
H1288 H 0.00633 0.07297 0.21859 0.0
H1289 H 0.92133 0.04982 0.14363 0.0
H1290 H 0.90332 0.02979 0.15876 0.0
H1291 H 0.92868 0.02267 0.14626 0.0
C1292 C 0.25461 0.79347 0.20066 0.0
C1293 C 0.26421 0.77431 0.1953 0.0
C1294 C 0.25128 0.80869 0.18344 0.0
C1295 C 0.25775 0.8047 0.16034 0.0
C1296 C 0.26773 0.78555 0.15491 0.0
C1297 C 0.2708 0.77058 0.17244 0.0
C1298 C 0.24055 0.82891 0.18989 0.0
C1299 C 0.27492 0.78073 0.1305 0.0
C1300 C 0.22944 0.83069 0.1084 0.0
C1301 C 0.24658 0.8481 0.10429 0.0
C1302 C 0.23268 0.81674 0.12688 0.0
C1303 C 0.25359 0.82022 0.14161 0.0
C1304 C 0.27077 0.83804 0.1379 0.0
C1305 C 0.26705 0.85179 0.11931 0.0
C1306 C 0.2139 0.79798 0.13032 0.0
C1307 C 0.29329 0.84228 0.15325 0.0
H1308 H 0.24947 0.79649 0.21827 0.0
H1309 H 0.27829 0.75586 0.16814 0.0
H1310 H 0.2521 0.84408 0.18629 0.0
H1311 H 0.22414 0.82872 0.17876 0.0
H1312 H 0.23701 0.8299 0.20879 0.0
H1313 H 0.28297 0.76541 0.12931 0.0
H1314 H 0.25971 0.77892 0.11731 0.0
H1315 H 0.28734 0.79473 0.12553 0.0
H1316 H 0.21354 0.82774 0.09695 0.0
H1317 H 0.28039 0.8652 0.11628 0.0
H1318 H 0.20896 0.79896 0.14873 0.0
H1319 H 0.22032 0.78195 0.12749 0.0
H1320 H 0.19829 0.79806 0.11798 0.0
H1321 H 0.29005 0.8441 0.17216 0.0
H1322 H 0.30448 0.85736 0.14869 0.0
H1323 H 0.30273 0.82795 0.15121 0.0
C1324 C 0.98452 0.43657 0.13229 0.0
C1325 C 0.98391 0.4542 0.11747 0.0
C1326 C -0.00371 0.43969 0.15495 0.0
C1327 C 0.00783 0.46092 0.16295 0.0
C1328 C 0.00694 0.47888 0.1483 0.0
C1329 C -0.00507 0.47531 0.12575 0.0
C1330 C -0.00327 0.42017 0.17014 0.0
C1331 C 0.0191 0.50174 0.15624 0.0
C1332 C 0.02438 0.4727 0.22886 0.0
C1333 C 0.04758 0.46956 0.23071 0.0
C1334 C 0.01121 0.46999 0.20691 0.0
C1335 C 0.02154 0.46412 0.18632 0.0
C1336 C 0.04497 0.46102 0.18805 0.0
C1337 C 0.05768 0.46371 0.21023 0.0
C1338 C 0.98624 0.47331 0.20574 0.0
C1339 C 0.0566 0.45484 0.16647 0.0
H1340 H 0.97597 0.42022 0.12612 0.0
H1341 H -0.00544 0.48903 0.11443 0.0
H1342 H 0.01468 0.4168 0.17357 0.0
H1343 H 0.99041 0.42393 0.18755 0.0
H1344 H 0.98603 0.40497 0.16173 0.0
H1345 H 0.01603 0.5141 0.1431 0.0
H1346 H 0.01324 0.50721 0.17334 0.0
H1347 H 0.0379 0.50146 0.15916 0.0
H1348 H 0.01643 0.47719 0.2446 0.0
H1349 H 0.07561 0.46133 0.21148 0.0
H1350 H 0.97513 0.45791 0.19848 0.0
H1351 H 0.98318 0.48645 0.19361 0.0
H1352 H 0.98082 0.47794 0.22337 0.0
H1353 H 0.04769 0.43886 0.15804 0.0
H1354 H 0.07503 0.45335 0.17078 0.0
H1355 H 0.05544 0.46746 0.15323 0.0
C1356 C 0.3501 0.7047 0.30479 0.0
C1357 C 0.34118 0.72171 0.29305 0.0
C1358 C 0.37154 0.70855 0.31808 0.0
C1359 C 0.38447 0.72995 0.3197 0.0
C1360 C 0.37579 0.74715 0.30765 0.0
C1361 C 0.35423 0.74283 0.29445 0.0
C1362 C 0.38022 0.68978 0.33068 0.0
C1363 C 0.38913 0.77018 0.30896 0.0
C1364 C 0.4283 0.74418 0.37294 0.0
C1365 C 0.44889 0.74115 0.36331 0.0
C1366 C 0.40727 0.74089 0.35886 0.0
C1367 C 0.4068 0.73437 0.33455 0.0
C1368 C 0.42752 0.73137 0.32467 0.0
C1369 C 0.44833 0.73481 0.33917 0.0
C1370 C 0.38551 0.74423 0.37004 0.0
C1371 C 0.42768 0.72437 0.29884 0.0
H1372 H 0.34021 0.68831 0.30381 0.0
H1373 H 0.34751 0.75607 0.28544 0.0
H1374 H 0.39735 0.68736 0.32509 0.0
H1375 H 0.38238 0.69385 0.35005 0.0
H1376 H 0.36834 0.67397 0.32712 0.0
H1377 H 0.38032 0.78155 0.298 0.0
H1378 H 0.39154 0.77705 0.32758 0.0
H1379 H 0.40651 0.76967 0.30295 0.0
H1380 H 0.42856 0.74916 0.39155 0.0
H1381 H 0.46417 0.73248 0.33156 0.0
H1382 H 0.37336 0.72854 0.36845 0.0
H1383 H 0.37684 0.75663 0.3606 0.0
H1384 H 0.38889 0.74985 0.38906 0.0
H1385 H 0.41698 0.70799 0.29485 0.0
H1386 H 0.44532 0.7233 0.29376 0.0
H1387 H 0.41999 0.73626 0.28765 0.0
C1388 C 0.95888 0.36792 0.97966 0.0
C1389 C 0.97708 0.384 0.98922 0.0
C1390 C 0.96248 0.35144 0.96288 0.0
C1391 C 0.98479 0.35106 0.95543 0.0
C1392 C 0.00306 0.36765 0.96443 0.0
C1393 C -0.00101 0.3839 0.98122 0.0
C1394 C 0.94256 0.33403 0.95365 0.0
C1395 C 0.02707 0.36788 0.95682 0.0
C1396 C 0.00031 0.29619 0.93275 0.0
C1397 C -0.00194 0.29795 0.90816 0.0
C1398 C -0.00402 0.31334 0.94829 0.0
C1399 C 0.98929 0.33276 0.93905 0.0
C1400 C 0.98706 0.33469 0.91427 0.0
C1401 C 0.99145 0.31725 0.89912 0.0
C1402 C -0.00148 0.31065 0.97462 0.0
C1403 C 0.98004 0.35517 0.90378 0.0
H1404 H 0.94189 0.36788 0.98571 0.0
H1405 H 0.01315 0.3963 0.98842 0.0
H1406 H 0.94062 0.33317 0.93402 0.0
H1407 H 0.94602 0.31759 0.95914 0.0
H1408 H 0.92605 0.3373 0.96026 0.0
H1409 H 0.03908 0.3826 0.96449 0.0
H1410 H 0.03397 0.35283 0.96244 0.0
H1411 H 0.02668 0.36765 0.93725 0.0
H1412 H 0.00536 0.28133 0.93991 0.0
H1413 H 0.98966 0.31876 0.88015 0.0
H1414 H 0.98199 0.3121 0.98222 0.0
H1415 H 0.01158 0.32401 0.9834 0.0
H1416 H 0.00374 0.29447 0.97895 0.0
H1417 H 0.96297 0.35788 0.90932 0.0
H1418 H 0.9791 0.3541 0.88414 0.0
H1419 H 0.99252 0.36987 0.91051 0.0
C1420 C 0.67654 0.77296 0.30459 0.0
C1421 C 0.68175 0.7946 0.29752 0.0
C1422 C 0.65729 0.76681 0.31713 0.0
C1423 C 0.64296 0.78269 0.32276 0.0
C1424 C 0.64785 0.8044 0.31523 0.0
C1425 C 0.66714 0.81008 0.30268 0.0
C1426 C 0.65252 0.74345 0.32476 0.0
C1427 C 0.63298 0.8218 0.3209 0.0
C1428 C 0.58259 0.76437 0.34014 0.0
C1429 C 0.58578 0.7676 0.36488 0.0
C1430 C 0.60111 0.76888 0.32619 0.0
C1431 C 0.62332 0.77689 0.33726 0.0
C1432 C 0.6267 0.78001 0.36222 0.0
C1433 C 0.6079 0.7753 0.37573 0.0
C1434 C 0.59687 0.76528 0.29962 0.0
C1435 C 0.65013 0.78862 0.37466 0.0
H1436 H 0.68769 0.76088 0.30062 0.0
H1437 H 0.67098 0.82682 0.29725 0.0
H1438 H 0.6539 0.74358 0.34436 0.0
H1439 H 0.6347 0.73596 0.31835 0.0
H1440 H 0.66467 0.73282 0.31802 0.0
H1441 H 0.63867 0.83771 0.31307 0.0
H1442 H 0.61481 0.81595 0.31424 0.0
H1443 H 0.63345 0.82484 0.34037 0.0
H1444 H 0.56557 0.75836 0.33161 0.0
H1445 H 0.61054 0.77784 0.39483 0.0
H1446 H 0.60831 0.75391 0.29294 0.0
H1447 H 0.60108 0.78119 0.29128 0.0
H1448 H 0.57873 0.75828 0.29382 0.0
H1449 H 0.66276 0.77771 0.36984 0.0
H1450 H 0.64995 0.78968 0.39422 0.0
H1451 H 0.65626 0.8053 0.36886 0.0
C1452 C 0.01085 0.09174 0.97306 0.0
C1453 C 0.03238 0.08566 0.98008 0.0
C1454 C 0.00869 0.10792 0.95672 0.0
C1455 C 0.02855 0.11836 0.94713 0.0
C1456 C 0.05023 0.11179 0.95345 0.0
C1457 C 0.05189 0.09548 0.96984 0.0
C1458 C 0.98523 0.11436 0.95036 0.0
C1459 C 0.07178 0.12253 0.94353 0.0
C1460 C 0.01873 0.15075 0.89266 0.0
C1461 C 0.02012 0.17234 0.90273 0.0
C1462 C 0.02194 0.13305 0.90681 0.0
C1463 C 0.02667 0.13704 0.93161 0.0
C1464 C 0.02847 0.15884 0.94181 0.0
C1465 C 0.02515 0.1762 0.92728 0.0
C1466 C 0.01983 0.11002 0.8953 0.0
C1467 C 0.03351 0.16379 0.96818 0.0
H1468 H -0.00438 0.08417 0.98072 0.0
H1469 H 0.06859 0.09089 0.97513 0.0
H1470 H 0.98507 0.13176 0.95669 0.0
H1471 H 0.98134 0.11329 0.93087 0.0
H1472 H 0.97132 0.10373 0.95825 0.0
H1473 H 0.087 0.11446 0.94884 0.0
H1474 H 0.06929 0.12193 0.92393 0.0
H1475 H 0.07546 0.1402 0.94987 0.0
H1476 H 0.01491 0.1476 0.87372 0.0
H1477 H 0.02636 0.19282 0.93523 0.0
H1478 H 0.00509 0.09936 0.90178 0.0
H1479 H 0.03553 0.10258 0.90023 0.0
H1480 H 0.01719 0.10982 0.8757 0.0
H1481 H 0.01941 0.1551 0.97755 0.0
H1482 H 0.03533 0.18175 0.97322 0.0
H1483 H 0.04961 0.1576 0.97448 0.0
C1484 C 0.32526 0.28497 0.25981 0.0
C1485 C 0.3325 0.29408 0.28279 0.0
C1486 C 0.34123 0.28228 0.24323 0.0
C1487 C 0.36503 0.28867 0.24986 0.0
C1488 C 0.37242 0.29809 0.27294 0.0
C1489 C 0.35607 0.30077 0.28909 0.0
C1490 C 0.33268 0.27235 0.21871 0.0
C1491 C 0.39766 0.30497 0.28074 0.0
C1492 C 0.40842 0.26167 0.21699 0.0
C1493 C 0.41672 0.2784 0.20254 0.0
C1494 C 0.3914 0.26471 0.23224 0.0
C1495 C 0.3823 0.2849 0.23294 0.0
C1496 C 0.39022 0.30167 0.21803 0.0
C1497 C 0.40741 0.29826 0.20308 0.0
C1498 C 0.3835 0.24647 0.24797 0.0
C1499 C 0.38076 0.32334 0.21813 0.0
H1500 H 0.30707 0.27984 0.25477 0.0
H1501 H 0.36183 0.30779 0.30681 0.0
H1502 H 0.33913 0.2836 0.20522 0.0
H1503 H 0.33946 0.25656 0.21556 0.0
H1504 H 0.31359 0.26911 0.21603 0.0
H1505 H 0.40055 0.31243 0.29915 0.0
H1506 H 0.40688 0.2904 0.27964 0.0
H1507 H 0.40546 0.3171 0.26876 0.0
H1508 H 0.41553 0.24628 0.21673 0.0
H1509 H 0.41365 0.31124 0.19191 0.0
H1510 H 0.36458 0.24164 0.2449 0.0
H1511 H 0.3874 0.25246 0.26682 0.0
H1512 H 0.39191 0.23157 0.2449 0.0
H1513 H 0.36174 0.32029 0.21461 0.0
H1514 H 0.38798 0.33429 0.20471 0.0
H1515 H 0.38477 0.33214 0.23584 0.0
C1516 C 0.50894 0.42673 0.05191 0.0
C1517 C 0.5229 0.4219 0.03405 0.0
C1518 C 0.50363 0.41174 0.06928 0.0
C1519 C 0.51257 0.39146 0.06883 0.0
C1520 C 0.52664 0.38646 0.05084 0.0
C1521 C 0.53161 0.40172 0.03366 0.0
C1522 C 0.4885 0.41762 0.08815 0.0
C1523 C 0.53655 0.36503 0.04982 0.0
C1524 C 0.51748 0.36134 0.12552 0.0
C1525 C 0.49844 0.34459 0.12193 0.0
C1526 C 0.52216 0.3768 0.10846 0.0
C1527 C 0.50742 0.37554 0.08733 0.0
C1528 C 0.48802 0.35885 0.08371 0.0
C1529 C 0.48378 0.34356 0.10104 0.0
C1530 C 0.54306 0.39432 0.11294 0.0
C1531 C 0.47186 0.35703 0.06143 0.0
H1532 H 0.5021 0.44226 0.05233 0.0
H1533 H 0.54242 0.39784 0.01993 0.0
H1534 H 0.47311 0.40483 0.08781 0.0
H1535 H 0.49798 0.41798 0.10589 0.0
H1536 H 0.48269 0.43393 0.08585 0.0
H1537 H 0.54708 0.3636 0.03461 0.0
H1538 H 0.54749 0.36374 0.06639 0.0
H1539 H 0.52246 0.35083 0.04838 0.0
H1540 H 0.52892 0.36228 0.14158 0.0
H1541 H 0.46901 0.3307 0.09812 0.0
H1542 H 0.53782 0.41099 0.11207 0.0
H1543 H 0.55493 0.39264 0.09898 0.0
H1544 H 0.55258 0.39328 0.13045 0.0
H1545 H 0.46488 0.37278 0.05921 0.0
H1546 H 0.45724 0.34344 0.06158 0.0
H1547 H 0.48138 0.35405 0.04579 0.0
C1548 C 0.61568 0.28048 0.28804 0.0
C1549 C 0.63459 0.27497 0.27673 0.0
C1550 C 0.59439 0.28104 0.27516 0.0
C1551 C 0.59199 0.27596 0.25042 0.0
C1552 C 0.61111 0.27074 0.23887 0.0
C1553 C 0.63216 0.27032 0.25215 0.0
C1554 C 0.57438 0.28673 0.28807 0.0
C1555 C 0.60923 0.26524 0.2125 0.0
C1556 C 0.53301 0.25478 0.21913 0.0
C1557 C 0.52745 0.27357 0.2081 0.0
C1558 C 0.55375 0.25547 0.23334 0.0
C1559 C 0.56933 0.27542 0.23661 0.0
C1560 C 0.56364 0.29457 0.22591 0.0
C1561 C 0.54277 0.29341 0.21177 0.0
C1562 C 0.55921 0.2347 0.24446 0.0
C1563 C 0.57981 0.31615 0.22902 0.0
H1564 H 0.61741 0.28413 0.30702 0.0
H1565 H 0.64667 0.26609 0.24324 0.0
H1566 H 0.56741 0.30085 0.2801 0.0
H1567 H 0.5603 0.2725 0.28624 0.0
H1568 H 0.57929 0.29105 0.3072 0.0
H1569 H 0.62589 0.26214 0.20612 0.0
H1570 H 0.59632 0.25031 0.20789 0.0
H1571 H 0.60319 0.27897 0.20288 0.0
H1572 H 0.52126 0.2394 0.21645 0.0
H1573 H 0.5386 0.30803 0.20336 0.0
H1574 H 0.56293 0.23784 0.26389 0.0
H1575 H 0.57487 0.22965 0.23748 0.0
H1576 H 0.54489 0.22075 0.24093 0.0
H1577 H 0.58409 0.32099 0.24811 0.0
H1578 H 0.5724 0.32975 0.22038 0.0
H1579 H 0.59618 0.31415 0.22135 0.0
C1580 C 0.47376 0.14999 0.03608 0.0
C1581 C 0.47865 0.13062 0.04636 0.0
C1582 C 0.47333 0.16945 0.05003 0.0
C1583 C 0.478 0.1696 0.07488 0.0
C1584 C 0.48228 0.14994 0.08545 0.0
C1585 C 0.48251 0.13067 0.07107 0.0
C1586 C 0.46855 0.19004 0.0381 0.0
C1587 C 0.48736 0.14946 0.11189 0.0
C1588 C 0.50251 0.22486 0.1067 0.0
C1589 C 0.48311 0.23131 0.11629 0.0
C1590 C 0.5011 0.2047 0.09346 0.0
C1591 C 0.47974 0.19065 0.0896 0.0
C1592 C 0.46009 0.19696 0.09934 0.0
C1593 C 0.46202 0.21721 0.11262 0.0
C1594 C 0.52247 0.19852 0.08343 0.0
C1595 C 0.43701 0.18243 0.09553 0.0
H1596 H 0.47061 0.15009 0.01702 0.0
H1597 H 0.48627 0.11577 0.07917 0.0
H1598 H 0.45437 0.19699 0.04612 0.0
H1599 H 0.48404 0.20281 0.0408 0.0
H1600 H 0.46383 0.18684 0.01878 0.0
H1601 H 0.48893 0.13257 0.11748 0.0
H1602 H 0.50369 0.16045 0.11768 0.0
H1603 H 0.47357 0.15581 0.12122 0.0
H1604 H 0.5189 0.23558 0.10951 0.0
H1605 H 0.44694 0.22206 0.11998 0.0
H1606 H 0.51975 0.19667 0.06384 0.0
H1607 H 0.52603 0.18237 0.08972 0.0
H1608 H 0.53787 0.21105 0.0885 0.0
H1609 H 0.43142 0.18007 0.07634 0.0
H1610 H 0.42351 0.18951 0.10469 0.0
H1611 H 0.43843 0.16585 0.10204 0.0
C1612 C 0.28672 0.3671 0.75336 0.0
C1613 C 0.27357 0.36034 0.73185 0.0
C1614 C 0.29997 0.38808 0.75677 0.0
C1615 C 0.30025 0.40265 0.73818 0.0
C1616 C 0.28772 0.39568 0.71613 0.0
C1617 C 0.27448 0.37462 0.71324 0.0
C1618 C 0.3131 0.39492 0.78056 0.0
C1619 C 0.2878 0.41069 0.69583 0.0
C1620 C 0.31419 0.46387 0.75646 0.0
C1621 C 0.33767 0.46822 0.75307 0.0
C1622 C 0.30169 0.44269 0.75122 0.0
C1623 C 0.31292 0.42549 0.74225 0.0
C1624 C 0.33646 0.42992 0.73819 0.0
C1625 C 0.34858 0.45122 0.74373 0.0
C1626 C 0.27661 0.43858 0.75587 0.0
C1627 C 0.34897 0.41205 0.72847 0.0
H1628 H 0.28617 0.35622 0.76785 0.0
H1629 H 0.26444 0.36954 0.69654 0.0
H1630 H 0.33154 0.40035 0.77835 0.0
H1631 H 0.30631 0.40918 0.78881 0.0
H1632 H 0.31183 0.38134 0.79287 0.0
H1633 H 0.27839 0.40228 0.67937 0.0
H1634 H 0.27964 0.42535 0.70063 0.0
H1635 H 0.30574 0.41679 0.69219 0.0
H1636 H 0.30563 0.47691 0.76366 0.0
H1637 H 0.3667 0.45446 0.74093 0.0
H1638 H 0.2741 0.4263 0.7695 0.0
H1639 H 0.26594 0.43154 0.73954 0.0
H1640 H 0.27022 0.4539 0.76206 0.0
H1641 H 0.34948 0.39892 0.7412 0.0
H1642 H 0.36692 0.41849 0.72503 0.0
H1643 H 0.33965 0.40423 0.71174 0.0
C1644 C 0.26981 0.67314 0.79573 0.0
C1645 C 0.25077 0.66957 0.80912 0.0
C1646 C 0.28214 0.65589 0.78995 0.0
C1647 C 0.27527 0.63453 0.79771 0.0
C1648 C 0.2562 0.63085 0.81139 0.0
C1649 C 0.2442 0.64841 0.81694 0.0
C1650 C 0.30242 0.66048 0.77537 0.0
C1651 C 0.24836 0.60832 0.82 0.0
C1652 C 0.29328 0.58535 0.76429 0.0
C1653 C 0.31218 0.58099 0.77906 0.0
C1654 C 0.28109 0.60268 0.77017 0.0
C1655 C 0.28794 0.61599 0.79134 0.0
C1656 C 0.30695 0.61165 0.80636 0.0
C1657 C 0.31883 0.59421 0.80005 0.0
C1658 C 0.2609 0.60679 0.75369 0.0
C1659 C 0.31479 0.62547 0.82907 0.0
H1660 H 0.27503 0.68942 0.78961 0.0
H1661 H 0.22951 0.64548 0.82728 0.0
H1662 H 0.31814 0.65621 0.7851 0.0
H1663 H 0.2993 0.64997 0.75863 0.0
H1664 H 0.30575 0.67806 0.77099 0.0
H1665 H 0.23339 0.60825 0.8307 0.0
H1666 H 0.24351 0.59614 0.80468 0.0
H1667 H 0.26265 0.60266 0.8309 0.0
H1668 H 0.288 0.57525 0.74804 0.0
H1669 H 0.3334 0.59099 0.8116 0.0
H1670 H 0.26404 0.62377 0.74752 0.0
H1671 H 0.24512 0.60558 0.76324 0.0
H1672 H 0.25768 0.59488 0.73799 0.0
H1673 H 0.31955 0.64302 0.82518 0.0
H1674 H 0.32982 0.61988 0.83887 0.0
H1675 H 0.30052 0.62477 0.84073 0.0
C1676 C 0.88437 0.48921 0.49979 0.0
C1677 C 0.90385 0.48882 0.51561 0.0
C1678 C 0.86379 0.47506 0.50184 0.0
C1679 C 0.86259 0.46034 0.52031 0.0
C1680 C 0.88214 0.46 0.53645 0.0
C1681 C 0.90258 0.47416 0.53382 0.0
C1682 C 0.84337 0.47574 0.48414 0.0
C1683 C 0.88145 0.4447 0.55651 0.0
C1684 C 0.80345 0.43764 0.53817 0.0
C1685 C 0.79984 0.41633 0.52703 0.0
C1686 C 0.82385 0.4521 0.53624 0.0
C1687 C 0.84093 0.44518 0.52263 0.0
C1688 C 0.83732 0.42375 0.51122 0.0
C1689 C 0.81688 0.40954 0.51366 0.0
C1690 C 0.82719 0.47476 0.54886 0.0
C1691 C 0.85502 0.41585 0.49634 0.0
H1692 H 0.88524 0.50044 0.48562 0.0
H1693 H 0.91754 0.47383 0.54618 0.0
H1694 H 0.83806 0.45923 0.47484 0.0
H1695 H 0.82852 0.47985 0.49341 0.0
H1696 H 0.84715 0.48806 0.47074 0.0
H1697 H 0.89801 0.44674 0.5678 0.0
H1698 H 0.86757 0.44782 0.56776 0.0
H1699 H 0.87744 0.42727 0.54936 0.0
H1700 H 0.7904 0.44299 0.54859 0.0
H1701 H 0.81418 0.39314 0.5049 0.0
H1702 H 0.8296 0.48766 0.53588 0.0
H1703 H 0.84298 0.47694 0.5613 0.0
H1704 H 0.81235 0.47753 0.55894 0.0
H1705 H 0.85838 0.4271 0.48189 0.0
H1706 H 0.84946 0.39881 0.48839 0.0
H1707 H 0.87155 0.41619 0.50731 0.0
C1708 C 0.71021 0.85649 0.81617 0.0
C1709 C 0.70671 0.84569 0.83708 0.0
C1710 C 0.69895 0.87459 0.81065 0.0
C1711 C 0.68385 0.88205 0.82641 0.0
C1712 C 0.6803 0.87125 0.84755 0.0
C1713 C 0.69176 0.85322 0.85261 0.0
C1714 C 0.70316 0.88571 0.78794 0.0
C1715 C 0.66435 0.87872 0.86482 0.0
C1716 C 0.66966 0.9406 0.82463 0.0
C1717 C 0.64766 0.93719 0.8124 0.0
C1718 C 0.6818 0.92285 0.82897 0.0
C1719 C 0.6717 0.90115 0.82089 0.0
C1720 C 0.64963 0.89761 0.80828 0.0
C1721 C 0.63787 0.91566 0.80419 0.0
C1722 C 0.7053 0.92728 0.84249 0.0
C1723 C 0.6383 0.8747 0.79938 0.0
H1724 H 0.72173 0.85078 0.80406 0.0
H1725 H 0.68893 0.84501 0.86882 0.0
H1726 H 0.68668 0.88497 0.77678 0.0
H1727 H 0.71009 0.90342 0.79191 0.0
H1728 H 0.71545 0.87794 0.7776 0.0
H1729 H 0.66351 0.86857 0.8805 0.0
H1730 H 0.6702 0.89623 0.871 0.0
H1731 H 0.64673 0.87777 0.85594 0.0
H1732 H 0.6774 0.95717 0.83099 0.0
H1733 H 0.62091 0.91286 0.79466 0.0
H1734 H 0.71818 0.92069 0.83199 0.0
H1735 H 0.70501 0.91862 0.85919 0.0
H1736 H 0.71105 0.94518 0.84689 0.0
H1737 H 0.64966 0.86692 0.7879 0.0
H1738 H 0.62141 0.87483 0.78919 0.0
H1739 H 0.63562 0.86416 0.81453 0.0
C1740 C 0.60199 0.54399 0.02282 0.0
C1741 C 0.59958 0.52461 0.00805 0.0
C1742 C 0.62303 0.55817 0.02633 0.0
C1743 C 0.64206 0.55297 0.01461 0.0
C1744 C 0.63993 0.53316 0.00018 0.0
C1745 C 0.61875 0.51915 -0.00283 0.0
C1746 C 0.62472 0.57901 0.04213 0.0
C1747 C 0.65981 0.52711 0.98728 0.0
C1748 C 0.68749 0.60077 0.00309 0.0
C1749 C 0.70508 0.59898 0.02074 0.0
C1750 C 0.66699 0.58577 0.00078 0.0
C1751 C 0.66389 0.56872 0.01668 0.0
C1752 C 0.68155 0.56685 0.03459 0.0
C1753 C 0.70199 0.58193 0.03632 0.0
C1754 C 0.64864 0.58815 0.98128 0.0
C1755 C 0.67877 0.54903 0.05203 0.0
H1756 H 0.58731 0.54828 0.0314 0.0
H1757 H 0.61705 0.50424 0.98567 0.0
H1758 H 0.63945 0.57994 0.05579 0.0
H1759 H 0.62796 0.59367 0.03149 0.0
H1760 H 0.60879 0.57997 0.0511 0.0
H1761 H 0.65566 0.51067 0.97754 0.0
H1762 H 0.66456 0.53971 0.97445 0.0
H1763 H 0.67515 0.52701 -6e-05 0.0
H1764 H 0.68979 0.61383 0.99091 0.0
H1765 H 0.71548 0.58049 0.05008 0.0
H1766 H 0.63252 0.59097 0.98901 0.0
H1767 H 0.64467 0.57266 0.96981 0.0
H1768 H 0.6539 0.60204 0.9701 0.0
H1769 H 0.66351 0.55056 0.06189 0.0
H1770 H 0.69412 0.54986 0.06495 0.0
H1771 H 0.67571 0.53251 0.04248 0.0
C1772 C 0.2042 0.62639 0.25706 0.0
C1773 C 0.21285 0.63845 0.27831 0.0
C1774 C 0.1876 0.60751 0.2569 0.0
C1775 C 0.17942 0.60058 0.27848 0.0
C1776 C 0.18754 0.61308 0.29987 0.0
C1777 C 0.20415 0.63185 0.29953 0.0
C1778 C 0.1793 0.59461 0.23372 0.0
C1779 C 0.17915 0.60627 0.32323 0.0
C1780 C 0.12406 0.56015 0.27744 0.0
C1781 C 0.13251 0.54011 0.28073 0.0
C1782 C 0.13911 0.57996 0.27649 0.0
C1783 C 0.16317 0.5797 0.27888 0.0
C1784 C 0.1718 0.55952 0.28209 0.0
C1785 C 0.15637 0.53997 0.28298 0.0
C1786 C 0.12928 0.60118 0.27309 0.0
C1787 C 0.19736 0.55858 0.28471 0.0
H1788 H 0.2108 0.63138 0.24058 0.0
H1789 H 0.21064 0.64111 0.31602 0.0
H1790 H 0.18445 0.57788 0.2341 0.0
H1791 H 0.16023 0.59242 0.23107 0.0
H1792 H 0.18641 0.60284 0.21836 0.0
H1793 H 0.18626 0.61841 0.33809 0.0
H1794 H 0.16008 0.60439 0.32223 0.0
H1795 H 0.18421 0.58998 0.32724 0.0
H1796 H 0.10564 0.56042 0.27567 0.0
H1797 H 0.16306 0.52457 0.28552 0.0
H1798 H 0.13557 0.60892 0.25713 0.0
H1799 H 0.13525 0.61309 0.28843 0.0
H1800 H 0.11016 0.59852 0.27114 0.0
H1801 H 0.2054 0.56517 0.26903 0.0
H1802 H 0.20127 0.54151 0.28673 0.0
H1803 H 0.20553 0.56914 0.30041 0.0
C1804 C 0.88056 0.50378 0.04959 0.0
C1805 C 0.90083 0.50813 0.0382 0.0
C1806 C 0.8644 0.51857 0.04916 0.0
C1807 C 0.86844 0.53806 0.03679 0.0
C1808 C 0.88891 0.5426 0.02533 0.0
C1809 C 0.90492 0.52764 0.02629 0.0
C1810 C 0.84288 0.51325 0.06179 0.0
C1811 C 0.8937 0.56308 0.01173 0.0
C1812 C 0.81587 0.56354 0.01567 0.0
C1813 C 0.81654 0.58119 0.03253 0.0
C1814 C 0.83286 0.54962 0.01666 0.0
C1815 C 0.85084 0.55326 0.03513 0.0
C1816 C 0.85171 0.57111 0.05217 0.0
C1817 C 0.83461 0.58496 0.05058 0.0
C1818 C 0.83147 0.53093 -0.002 0.0
C1819 C 0.8705 0.57536 0.07225 0.0
H1820 H 0.87735 0.48882 0.05897 0.0
H1821 H 0.92053 0.5311 0.01742 0.0
H1822 H 0.8413 0.5271 0.0746 0.0
H1823 H 0.82748 0.51123 0.04884 0.0
H1824 H 0.84278 0.4979 0.07144 0.0
H1825 H 0.91063 0.56443 0.0042 0.0
H1826 H 0.88004 0.56292 -0.00295 0.0
H1827 H 0.89339 0.57805 0.02343 0.0
H1828 H 0.80206 0.56059 0.00157 0.0
H1829 H 0.83521 0.59853 0.0637 0.0
H1830 H 0.82953 0.51487 0.00638 0.0
H1831 H 0.84764 0.53228 0.98909 0.0
H1832 H 0.8168 0.53078 0.98437 0.0
H1833 H 0.86996 0.56077 0.08313 0.0
H1834 H 0.86889 0.59008 0.08388 0.0
H1835 H 0.88761 0.57787 0.06516 0.0
C1836 C 0.13358 0.00725 0.04921 0.0
C1837 C 0.1131 0.00053 0.03471 0.0
C1838 C 0.15175 -0.00534 0.04957 0.0
C1839 C 0.14949 0.97493 0.03496 0.0
C1840 C 0.1289 0.96809 0.02021 0.0
C1841 C 0.11093 0.98093 0.02032 0.0
C1842 C 0.17339 0.00246 0.06563 0.0
C1843 C 0.1259 0.94725 0.00424 0.0
C1844 C 0.20463 0.95412 0.01971 0.0
C1845 C 0.20621 0.93729 0.03541 0.0
C1846 C 0.18613 0.96629 0.0192 0.0
C1847 C 0.16882 0.96165 0.03486 0.0
C1848 C 0.17021 0.94459 0.05065 0.0
C1849 C 0.18884 0.93255 0.05068 0.0
C1850 C 0.1852 0.98424 0.00197 0.0
C1851 C 0.15214 0.93922 0.06771 0.0
H1852 H 0.13538 0.02232 0.06046 0.0
H1853 H 0.09518 0.97561 0.00904 0.0
H1854 H 0.17672 0.98954 0.07796 0.0
H1855 H 0.18839 0.00531 0.05498 0.0
H1856 H 0.1723 0.01798 0.07617 0.0
H1857 H 0.10881 0.94419 0.99388 0.0
H1858 H 0.13949 0.94834 0.99175 0.0
H1859 H 0.12784 0.93283 0.01491 0.0
H1860 H 0.2179 0.95785 0.00777 0.0
H1861 H 0.18993 0.9196 0.06288 0.0
H1862 H 0.18568 0.00043 0.01178 0.0
H1863 H 0.16878 0.98107 0.99048 0.0
H1864 H 0.19972 0.98542 0.99056 0.0
H1865 H 0.15147 0.95395 0.07967 0.0
H1866 H 0.15556 0.92529 0.07864 0.0
H1867 H 0.13491 0.93488 0.05786 0.0
loop_
_geom_bond_atom_site_label_1
_geom_bond_atom_site_label_2
_geom_bond_distance
_geom_bond_site_symmetry_2
_ccdc_geom_bond_type
O0 Cd1 2.300 . S
O0 C7 1.275 . S
Cd1 O0 2.300 . S
Cd1 O9 2.381 . S
Cd1 O10 2.378 . S
O2 Cd3 2.385 . S
O2 C7 1.255 . S
Cd3 O2 2.385 . S
Cd3 O4 2.317 . S
O4 Cd3 2.317 . S
O4 C5 1.232 1_455 S
C5 O4 1.232 1_655 S
C5 O6 1.218 . S
O6 C5 1.218 . S
C7 O0 1.275 . S
C7 O2 1.255 . S
C8 O9 1.258 . S
C8 O10 1.256 . S
O9 Cd1 2.381 . S
O9 C8 1.258 . S
O10 Cd1 2.378 . S
O10 C8 1.256 . S
O11 Cd12 2.300 . S
O11 C18 1.275 . S
Cd12 O11 2.300 . S
Cd12 O20 2.381 . S
Cd12 O21 2.378 . S
O13 Cd14 2.385 . S
O13 C18 1.255 . S
Cd14 O13 2.385 . S
Cd14 O15 2.317 . S
O15 Cd14 2.317 . S
O15 C16 1.232 . S
C16 O15 1.232 . S
C16 O17 1.218 . S
O17 C16 1.218 . S
C18 O11 1.275 . S
C18 O13 1.255 . S
C19 O20 1.258 . S
C19 O21 1.256 . S
O20 Cd12 2.381 . S
O20 C19 1.258 . S
O21 Cd12 2.378 . S
O21 C19 1.256 . S
O22 Cd23 2.300 . S
O22 C29 1.275 . S
Cd23 O22 2.300 . S
Cd23 O31 2.381 . S
Cd23 O32 2.378 . S
O24 Cd25 2.385 1_655 S
O24 C29 1.255 . S
Cd25 O24 2.385 1_455 S
Cd25 O26 2.317 1_455 S
O26 Cd25 2.317 1_655 S
O26 C27 1.232 . S
C27 O26 1.232 . S
C27 O28 1.218 1_655 S
O28 C27 1.218 1_455 S
C29 O22 1.275 . S
C29 O24 1.255 . S
C30 O31 1.258 . S
C30 O32 1.256 . S
O31 Cd23 2.381 . S
O31 C30 1.258 . S
O32 Cd23 2.378 . S
O32 C30 1.256 . S
O33 Cd34 2.300 . S
O33 C40 1.275 . S
Cd34 O33 2.300 . S
Cd34 O42 2.381 . S
Cd34 O43 2.378 . S
O35 Cd36 2.385 . S
O35 C40 1.255 . S
Cd36 O35 2.385 . S
Cd36 O37 2.317 . S
O37 Cd36 2.317 . S
O37 C38 1.232 . S
C38 O37 1.232 . S
C38 O39 1.218 . S
O39 C38 1.218 . S
C40 O33 1.275 . S
C40 O35 1.255 . S
C41 O42 1.258 . S
C41 O43 1.256 . S
O42 Cd34 2.381 . S
O42 C41 1.258 . S
O43 Cd34 2.378 . S
O43 C41 1.256 . S
O44 Cd45 2.300 . S
O44 C51 1.275 1_565 S
Cd45 O44 2.300 . S
Cd45 O53 2.381 . S
Cd45 O54 2.378 . S
O46 Cd47 2.385 . S
O46 C51 1.255 . S
Cd47 O46 2.385 . S
Cd47 O48 2.317 1_545 S
O48 Cd47 2.317 1_565 S
O48 C49 1.232 1_565 S
C49 O48 1.232 1_545 S
C49 O50 1.218 . S
O50 C49 1.218 . S
C51 O44 1.275 1_545 S
C51 O46 1.255 . S
C52 O53 1.258 . S
C52 O54 1.256 . S
O53 Cd45 2.381 . S
O53 C52 1.258 . S
O54 Cd45 2.378 . S
O54 C52 1.256 . S
O55 Cd56 2.300 . S
O55 C62 1.275 . S
Cd56 O55 2.300 . S
Cd56 O64 2.381 . S
Cd56 O65 2.378 . S
O57 Cd58 2.385 . S
O57 C62 1.255 . S
Cd58 O57 2.385 . S
Cd58 O59 2.317 . S
O59 Cd58 2.317 . S
O59 C60 1.232 . S
C60 O59 1.232 . S
C60 O61 1.218 . S
O61 C60 1.218 . S
C62 O55 1.275 . S
C62 O57 1.255 . S
C63 O64 1.258 . S
C63 O65 1.256 . S
O64 Cd56 2.381 . S
O64 C63 1.258 . S
O65 Cd56 2.378 . S
O65 C63 1.256 . S
O66 Cd67 2.300 . S
O66 C73 1.275 . S
Cd67 O66 2.300 . S
Cd67 O75 2.381 . S
Cd67 O76 2.378 . S
O68 Cd69 2.385 . S
O68 C73 1.255 1_455 S
Cd69 O68 2.385 . S
Cd69 O70 2.317 1_455 S
O70 Cd69 2.317 1_655 S
O70 C71 1.232 1_655 S
C71 O70 1.232 1_455 S
C71 O72 1.218 . S
O72 C71 1.218 . S
C73 O66 1.275 . S
C73 O68 1.255 1_655 S
C74 O75 1.258 . S
C74 O76 1.256 . S
O75 Cd67 2.381 . S
O75 C74 1.258 . S
O76 Cd67 2.378 . S
O76 C74 1.256 . S
O77 Cd78 2.300 . S
O77 C84 1.275 . S
Cd78 O77 2.300 . S
Cd78 O86 2.381 . S
Cd78 O87 2.378 . S
O79 Cd80 2.385 . S
O79 C84 1.255 . S
Cd80 O79 2.385 . S
Cd80 O81 2.317 . S
O81 Cd80 2.317 . S
O81 C82 1.232 . S
C82 O81 1.232 . S
C82 O83 1.218 . S
O83 C82 1.218 . S
C84 O77 1.275 . S
C84 O79 1.255 . S
C85 O86 1.258 . S
C85 O87 1.256 . S
O86 Cd78 2.381 . S
O86 C85 1.258 . S
O87 Cd78 2.378 . S
O87 C85 1.256 . S
O88 Cd89 2.300 . S
O88 C95 1.275 . S
Cd89 O88 2.300 . S
Cd89 O97 2.381 . S
Cd89 O98 2.378 . S
O90 Cd91 2.385 . S
O90 C95 1.255 . S
Cd91 O90 2.385 . S
Cd91 O92 2.317 . S
O92 Cd91 2.317 . S
O92 C93 1.232 . S
C93 O92 1.232 . S
C93 O94 1.218 . S
O94 C93 1.218 . S
C95 O88 1.275 . S
C95 O90 1.255 . S
C96 O97 1.258 . S
C96 O98 1.256 . S
O97 Cd89 2.381 . S
O97 C96 1.258 . S
O98 Cd89 2.378 . S
O98 C96 1.256 . S
O99 Cd100 2.300 1_565 S
O99 C106 1.275 . S
Cd100 O99 2.300 1_545 S
Cd100 O108 2.381 . S
Cd100 O109 2.378 . S
O101 Cd102 2.385 . S
O101 C106 1.255 . S
Cd102 O101 2.385 . S
Cd102 O103 2.317 . S
O103 Cd102 2.317 . S
O103 C104 1.232 . S
C104 O103 1.232 . S
C104 O105 1.218 . S
O105 C104 1.218 . S
C106 O99 1.275 . S
C106 O101 1.255 . S
C107 O108 1.258 . S
C107 O109 1.256 . S
O108 Cd100 2.381 . S
O108 C107 1.258 . S
O109 Cd100 2.378 . S
O109 C107 1.256 . S
O110 Cd111 2.300 . S
O110 C117 1.275 . S
Cd111 O110 2.300 . S
Cd111 O119 2.381 . S
Cd111 O120 2.378 . S
O112 Cd113 2.385 . S
O112 C117 1.255 . S
Cd113 O112 2.385 . S
Cd113 O114 2.317 . S
O114 Cd113 2.317 . S
O114 C115 1.232 . S
C115 O114 1.232 . S
C115 O116 1.218 . S
O116 C115 1.218 . S
C117 O110 1.275 . S
C117 O112 1.255 . S
C118 O119 1.258 . S
C118 O120 1.256 . S
O119 Cd111 2.381 . S
O119 C118 1.258 . S
O120 Cd111 2.378 . S
O120 C118 1.256 . S
O121 Cd122 2.300 . S
O121 C128 1.275 . S
Cd122 O121 2.300 . S
Cd122 O130 2.381 . S
Cd122 O131 2.378 . S
O123 Cd124 2.385 . S
O123 C128 1.255 . S
Cd124 O123 2.385 . S
Cd124 O125 2.317 . S
O125 Cd124 2.317 . S
O125 C126 1.232 . S
C126 O125 1.232 . S
C126 O127 1.218 . S
O127 C126 1.218 . S
C128 O121 1.275 . S
C128 O123 1.255 . S
C129 O130 1.258 . S
C129 O131 1.256 . S
O130 Cd122 2.381 . S
O130 C129 1.258 . S
O131 Cd122 2.378 . S
O131 C129 1.256 . S
O132 Cd133 2.300 . S
O132 C139 1.275 . S
Cd133 O132 2.300 . S
Cd133 O141 2.381 . S
Cd133 O142 2.378 . S
O134 Cd135 2.385 . S
O134 C139 1.255 . S
Cd135 O134 2.385 . S
Cd135 O136 2.317 . S
O136 Cd135 2.317 . S
O136 C137 1.232 . S
C137 O136 1.232 . S
C137 O138 1.218 . S
O138 C137 1.218 . S
C139 O132 1.275 . S
C139 O134 1.255 . S
C140 O141 1.258 . S
C140 O142 1.256 . S
O141 Cd133 2.381 . S
O141 C140 1.258 . S
O142 Cd133 2.378 . S
O142 C140 1.256 . S
O143 Cd144 2.300 1_556 S
O143 C150 1.275 . S
Cd144 O143 2.300 1_554 S
Cd144 O152 2.381 . S
Cd144 O153 2.378 . S
O145 Cd146 2.385 . S
O145 C150 1.255 . S
Cd146 O145 2.385 . S
Cd146 O147 2.317 . S
O147 Cd146 2.317 . S
O147 C148 1.232 . S
C148 O147 1.232 . S
C148 O149 1.218 . S
O149 C148 1.218 . S
C150 O143 1.275 . S
C150 O145 1.255 . S
C151 O152 1.258 . S
C151 O153 1.256 . S
O152 Cd144 2.381 . S
O152 C151 1.258 . S
O153 Cd144 2.378 . S
O153 C151 1.256 . S
O154 Cd155 2.300 . S
O154 C161 1.275 . S
Cd155 O154 2.300 . S
Cd155 O163 2.381 . S
Cd155 O164 2.378 . S
O156 Cd157 2.385 . S
O156 C161 1.255 . S
Cd157 O156 2.385 . S
Cd157 O158 2.317 . S
O158 Cd157 2.317 . S
O158 C159 1.232 . S
C159 O158 1.232 . S
C159 O160 1.218 . S
O160 C159 1.218 . S
C161 O154 1.275 . S
C161 O156 1.255 . S
C162 O163 1.258 . S
C162 O164 1.256 . S
O163 Cd155 2.381 . S
O163 C162 1.258 . S
O164 Cd155 2.378 . S
O164 C162 1.256 . S
O165 Cd166 2.300 1_556 S
O165 C172 1.275 . S
Cd166 O165 2.300 1_554 S
Cd166 O174 2.381 1_554 S
Cd166 O175 2.378 . S
O167 Cd168 2.385 1_556 S
O167 C172 1.255 . S
Cd168 O167 2.385 1_554 S
Cd168 O169 2.317 . S
O169 Cd168 2.317 . S
O169 C170 1.232 . S
C170 O169 1.232 . S
C170 O171 1.218 . S
O171 C170 1.218 . S
C172 O165 1.275 . S
C172 O167 1.255 . S
C173 O174 1.258 1_564 S
C173 O175 1.256 1_565 S
O174 Cd166 2.381 1_556 S
O174 C173 1.258 1_546 S
O175 Cd166 2.378 . S
O175 C173 1.256 1_545 S
C176 O177 1.160 1_554 S
C176 O183 1.185 . S
O177 C176 1.160 1_556 S
O178 Zn179 1.899 1_556 S
O178 C186 1.284 . S
Zn179 O178 1.899 1_554 S
Zn179 O180 2.032 . S
Zn179 O183 2.086 . S
Zn179 O188 1.977 . S
O180 Zn179 2.032 . S
O180 C184 1.278 . S
C181 O182 1.203 . S
C181 O188 1.267 . S
O182 C181 1.203 . S
O183 C176 1.185 . S
O183 Zn179 2.086 . S
C184 O180 1.278 . S
C184 O185 1.211 . S
O185 C184 1.211 . S
C186 O178 1.284 . S
C186 O187 1.273 . S
O187 C186 1.273 . S
O188 Zn179 1.977 . S
O188 C181 1.267 . S
C189 O190 1.160 . S
C189 O196 1.185 . S
O190 C189 1.160 . S
O191 Zn192 1.899 . S
O191 C199 1.284 . S
Zn192 O191 1.899 . S
Zn192 O193 2.032 . S
Zn192 O196 2.086 . S
Zn192 O201 1.977 . S
O193 Zn192 2.032 . S
O193 C197 1.278 . S
C194 O195 1.203 . S
C194 O201 1.267 . S
O195 C194 1.203 . S
O196 C189 1.185 . S
O196 Zn192 2.086 . S
C197 O193 1.278 . S
C197 O198 1.211 . S
O198 C197 1.211 . S
C199 O191 1.284 . S
C199 O200 1.273 . S
O200 C199 1.273 . S
O201 Zn192 1.977 . S
O201 C194 1.267 . S
C202 O203 1.160 1_554 S
C202 O209 1.185 . S
O203 C202 1.160 1_556 S
O204 Zn205 1.899 1_556 S
O204 C212 1.284 . S
Zn205 O204 1.899 1_554 S
Zn205 O206 2.032 . S
Zn205 O209 2.086 . S
Zn205 O214 1.977 . S
O206 Zn205 2.032 . S
O206 C210 1.278 . S
C207 O208 1.203 . S
C207 O214 1.267 . S
O208 C207 1.203 . S
O209 C202 1.185 . S
O209 Zn205 2.086 . S
C210 O206 1.278 . S
C210 O211 1.211 . S
O211 C210 1.211 . S
C212 O204 1.284 . S
C212 O213 1.273 . S
O213 C212 1.273 . S
O214 Zn205 1.977 . S
O214 C207 1.267 . S
C215 O216 1.160 . S
C215 O222 1.185 . S
O216 C215 1.160 . S
O217 Zn218 1.899 . S
O217 C225 1.284 . S
Zn218 O217 1.899 . S
Zn218 O219 2.032 . S
Zn218 O222 2.086 . S
Zn218 O227 1.977 . S
O219 Zn218 2.032 . S
O219 C223 1.278 1_545 S
C220 O221 1.203 . S
C220 O227 1.267 . S
O221 C220 1.203 . S
O222 C215 1.185 . S
O222 Zn218 2.086 . S
C223 O219 1.278 1_565 S
C223 O224 1.211 . S
O224 C223 1.211 . S
C225 O217 1.284 . S
C225 O226 1.266 1_545 S
O226 C225 1.266 1_565 S
O227 Zn218 1.977 . S
O227 C220 1.267 . S
C228 O229 1.160 . S
C228 O235 1.185 . S
O229 C228 1.160 . S
O230 Zn231 1.899 . S
O230 C238 1.284 . S
Zn231 O230 1.899 . S
Zn231 O232 2.032 . S
Zn231 O235 2.086 . S
Zn231 O240 1.977 . S
O232 Zn231 2.032 . S
O232 C236 1.278 . S
C233 O234 1.203 . S
C233 O240 1.267 . S
O234 C233 1.203 . S
O235 C228 1.185 . S
O235 Zn231 2.086 . S
C236 O232 1.278 . S
C236 O237 1.211 . S
O237 C236 1.211 . S
C238 O230 1.284 . S
C238 O239 1.273 . S
O239 C238 1.273 . S
O240 Zn231 1.977 . S
O240 C233 1.267 . S
C241 O242 1.160 . S
C241 O248 1.185 . S
O242 C241 1.160 . S
O243 Zn244 1.899 . S
O243 C251 1.284 . S
Zn244 O243 1.899 . S
Zn244 O245 2.032 . S
Zn244 O248 2.086 . S
Zn244 O253 1.977 . S
O245 Zn244 2.032 . S
O245 C249 1.278 . S
C246 O247 1.203 . S
C246 O253 1.267 . S
O247 C246 1.203 . S
O248 C241 1.185 . S
O248 Zn244 2.086 . S
C249 O245 1.278 . S
C249 O250 1.211 . S
O250 C249 1.211 . S
C251 O243 1.284 . S
C251 O252 1.273 . S
O252 C251 1.273 . S
O253 Zn244 1.977 . S
O253 C246 1.267 . S
C254 O255 1.160 . S
C254 O261 1.185 . S
O255 C254 1.160 . S
O256 Zn257 1.899 . S
O256 C264 1.284 . S
Zn257 O256 1.899 . S
Zn257 O258 2.032 . S
Zn257 O261 2.086 . S
Zn257 O266 1.977 . S
O258 Zn257 2.032 . S
O258 C262 1.278 . S
C259 O260 1.203 . S
C259 O266 1.267 . S
O260 C259 1.203 . S
O261 C254 1.185 . S
O261 Zn257 2.086 . S
C262 O258 1.278 . S
C262 O263 1.211 . S
O263 C262 1.211 . S
C264 O256 1.284 . S
C264 O265 1.273 . S
O265 C264 1.273 . S
O266 Zn257 1.977 . S
O266 C259 1.267 . S
C267 O268 1.160 . S
C267 O274 1.185 . S
O268 C267 1.160 . S
O269 Zn270 1.899 . S
O269 C277 1.284 1_565 S
Zn270 O269 1.899 . S
Zn270 O271 2.032 1_565 S
Zn270 O274 2.086 . S
Zn270 O279 1.977 . S
O271 Zn270 2.032 1_545 S
O271 C275 1.278 . S
C272 O273 1.203 1_565 S
C272 O279 1.267 . S
O273 C272 1.203 1_545 S
O274 C267 1.185 . S
O274 Zn270 2.086 . S
C275 O271 1.278 . S
C275 O276 1.211 . S
O276 C275 1.211 . S
C277 O269 1.284 1_545 S
C277 O278 1.273 . S
O278 C277 1.273 . S
O279 Zn270 1.977 . S
O279 C272 1.267 . S
C280 O281 1.160 1_455 S
C280 O287 1.185 . S
O281 C280 1.160 1_655 S
O282 Zn283 1.899 1_655 S
O282 C290 1.284 . S
Zn283 O282 1.899 1_455 S
Zn283 O284 2.032 . S
Zn283 O287 2.086 . S
Zn283 O292 1.977 . S
O284 Zn283 2.032 . S
O284 C288 1.278 . S
C285 O286 1.203 . S
C285 O292 1.267 . S
O286 C285 1.203 . S
O287 C280 1.185 . S
O287 Zn283 2.086 . S
C288 O284 1.278 . S
C288 O289 1.211 . S
O289 C288 1.211 . S
C290 O282 1.284 . S
C290 O291 1.273 . S
O291 C290 1.273 . S
O292 Zn283 1.977 . S
O292 C285 1.267 . S
C293 O294 1.160 . S
C293 O300 1.185 . S
O294 C293 1.160 . S
O295 Zn296 1.899 . S
O295 C303 1.284 . S
Zn296 O295 1.899 . S
Zn296 O297 2.032 . S
Zn296 O300 2.086 . S
Zn296 O305 1.977 . S
O297 Zn296 2.032 . S
O297 C301 1.278 . S
C298 O299 1.203 . S
C298 O305 1.267 . S
O299 C298 1.203 . S
O300 C293 1.185 . S
O300 Zn296 2.086 . S
C301 O297 1.278 . S
C301 O302 1.211 . S
O302 C301 1.211 . S
C303 O295 1.284 . S
C303 O304 1.273 . S
O304 C303 1.273 . S
O305 Zn296 1.977 . S
O305 C298 1.267 . S
C306 O307 1.160 . S
C306 O313 1.185 . S
O307 C306 1.160 . S
O308 Zn309 1.899 . S
O308 C316 1.284 1_455 S
Zn309 O308 1.899 . S
Zn309 O310 2.032 . S
Zn309 O313 2.086 . S
Zn309 O318 1.977 . S
O310 Zn309 2.032 . S
O310 C314 1.278 . S
C311 O312 1.203 . S
C311 O318 1.267 . S
O312 C311 1.203 . S
O313 C306 1.185 . S
O313 Zn309 2.086 . S
C314 O310 1.278 . S
C314 O315 1.211 . S
O315 C314 1.211 . S
C316 O308 1.284 1_655 S
C316 O317 1.273 . S
O317 C316 1.273 . S
O318 Zn309 1.977 . S
O318 C311 1.267 . S
C319 O320 1.160 . S
C319 O326 1.185 . S
O320 C319 1.160 . S
O321 Zn322 1.899 . S
O321 C329 1.284 . S
Zn322 O321 1.899 . S
Zn322 O323 2.032 . S
Zn322 O326 2.086 . S
Zn322 O331 1.977 . S
O323 Zn322 2.032 . S
O323 C327 1.278 . S
C324 O325 1.203 . S
C324 O331 1.267 . S
O325 C324 1.203 . S
O326 C319 1.185 . S
O326 Zn322 2.086 . S
C327 O323 1.278 . S
C327 O328 1.211 . S
O328 C327 1.211 . S
C329 O321 1.284 . S
C329 O330 1.273 . S
O330 C329 1.273 . S
O331 Zn322 1.977 . S
O331 C324 1.267 . S
C332 C333 1.391 . S
C332 C334 1.394 . S
C332 H348 0.931 . S
C333 C332 1.391 . S
C333 C337 1.376 . S
C334 C332 1.394 . S
C334 C335 1.369 . S
C334 C338 1.531 . S
C335 C334 1.369 . S
C335 C336 1.410 . S
C335 C343 1.503 . S
C336 C335 1.410 . S
C336 C337 1.392 . S
C336 C339 1.511 . S
C337 C333 1.376 . S
C337 C336 1.392 . S
C337 H349 0.929 . S
C338 C334 1.531 . S
C338 H350 0.960 . S
C338 H351 0.962 . S
C338 H352 0.960 . S
C339 C336 1.511 . S
C339 H353 0.961 . S
C339 H354 0.961 . S
C339 H355 0.961 . S
C340 C341 1.370 . S
C340 C342 1.363 . S
C340 H356 0.931 . S
C341 C340 1.370 . S
C341 C345 1.408 . S
C342 C340 1.363 . S
C342 C343 1.370 . S
C342 C346 1.524 . S
C343 C335 1.503 . S
C343 C342 1.370 . S
C343 C344 1.403 . S
C344 C343 1.403 . S
C344 C345 1.404 . S
C344 C347 1.539 . S
C345 C341 1.408 . S
C345 C344 1.404 . S
C345 H357 0.930 . S
C346 C342 1.524 . S
C346 H358 0.956 . S
C346 H359 0.961 . S
C346 H360 0.961 . S
C347 C344 1.539 . S
C347 H361 0.958 . S
C347 H362 0.961 . S
C347 H363 0.960 . S
H348 C332 0.931 . S
H349 C337 0.929 . S
H350 C338 0.960 . S
H351 C338 0.962 . S
H352 C338 0.960 . S
H353 C339 0.961 . S
H354 C339 0.961 . S
H355 C339 0.961 . S
H356 C340 0.931 . S
H357 C345 0.930 . S
H358 C346 0.956 . S
H359 C346 0.961 . S
H360 C346 0.961 . S
H361 C347 0.958 . S
H362 C347 0.961 . S
H363 C347 0.960 . S
C364 C365 1.391 . S
C364 C366 1.394 . S
C364 H380 0.936 . S
C365 C364 1.391 . S
C365 C369 1.376 . S
C366 C364 1.394 . S
C366 C367 1.369 . S
C366 C370 1.531 . S
C367 C366 1.369 . S
C367 C368 1.410 . S
C367 C375 1.503 . S
C368 C367 1.410 . S
C368 C369 1.392 . S
C368 C371 1.511 . S
C369 C365 1.376 . S
C369 C368 1.392 . S
C369 H381 0.929 . S
C370 C366 1.531 . S
C370 H382 0.960 . S
C370 H383 0.962 . S
C370 H384 0.960 . S
C371 C368 1.511 . S
C371 H385 0.961 . S
C371 H386 0.961 . S
C371 H387 0.961 . S
C372 C373 1.370 . S
C372 C374 1.363 . S
C372 H388 0.931 . S
C373 C372 1.370 . S
C373 C377 1.408 . S
C374 C372 1.363 . S
C374 C375 1.370 . S
C374 C378 1.524 . S
C375 C367 1.503 . S
C375 C374 1.370 . S
C375 C376 1.403 . S
C376 C375 1.403 . S
C376 C377 1.404 . S
C376 C379 1.539 . S
C377 C373 1.408 . S
C377 C376 1.404 . S
C377 H389 0.930 . S
C378 C374 1.524 . S
C378 H390 0.956 . S
C378 H391 0.961 . S
C378 H392 0.961 . S
C379 C376 1.539 . S
C379 H393 0.958 . S
C379 H394 0.961 . S
C379 H395 0.960 . S
H380 C364 0.936 . S
H381 C369 0.929 . S
H382 C370 0.960 . S
H383 C370 0.962 . S
H384 C370 0.960 . S
H385 C371 0.961 . S
H386 C371 0.961 . S
H387 C371 0.961 . S
H388 C372 0.931 . S
H389 C377 0.930 . S
H390 C378 0.956 . S
H391 C378 0.961 . S
H392 C378 0.961 . S
H393 C379 0.958 . S
H394 C379 0.961 . S
H395 C379 0.960 . S
C396 C397 1.391 . S
C396 C398 1.394 . S
C396 H412 0.931 . S
C397 C396 1.391 . S
C397 C401 1.376 . S
C398 C396 1.394 . S
C398 C399 1.369 . S
C398 C402 1.531 . S
C399 C398 1.369 . S
C399 C400 1.410 . S
C399 C407 1.503 . S
C400 C399 1.410 . S
C400 C401 1.392 . S
C400 C403 1.511 . S
C401 C397 1.376 . S
C401 C400 1.392 . S
C401 H413 0.929 . S
C402 C398 1.531 . S
C402 H414 0.960 . S
C402 H415 0.962 . S
C402 H416 0.960 . S
C403 C400 1.511 . S
C403 H417 0.961 . S
C403 H418 0.961 . S
C403 H419 0.961 . S
C404 C405 1.370 . S
C404 C406 1.363 . S
C404 H420 0.931 . S
C405 C404 1.370 . S
C405 C409 1.408 . S
C406 C404 1.363 . S
C406 C407 1.370 . S
C406 C410 1.524 . S
C407 C399 1.503 . S
C407 C406 1.370 . S
C407 C408 1.403 . S
C408 C407 1.403 . S
C408 C409 1.404 . S
C408 C411 1.539 . S
C409 C405 1.408 . S
C409 C408 1.404 . S
C409 H421 0.930 . S
C410 C406 1.524 . S
C410 H422 0.956 . S
C410 H423 0.961 . S
C410 H424 0.961 . S
C411 C408 1.539 . S
C411 H425 0.958 . S
C411 H426 0.961 . S
C411 H427 0.960 . S
H412 C396 0.931 . S
H413 C401 0.929 . S
H414 C402 0.960 . S
H415 C402 0.962 . S
H416 C402 0.960 . S
H417 C403 0.961 . S
H418 C403 0.961 . S
H419 C403 0.961 . S
H420 C404 0.931 . S
H421 C409 0.930 . S
H422 C410 0.956 . S
H423 C410 0.961 . S
H424 C410 0.961 . S
H425 C411 0.958 . S
H426 C411 0.961 . S
H427 C411 0.960 . S
C428 C429 1.391 1_655 S
C428 C430 1.394 . S
C428 H444 0.931 . S
C429 C428 1.391 1_455 S
C429 C433 1.376 . S
C430 C428 1.394 . S
C430 C431 1.369 . S
C430 C434 1.531 . S
C431 C430 1.369 . S
C431 C432 1.410 . S
C431 C439 1.503 . S
C432 C431 1.410 . S
C432 C433 1.392 1_655 S
C432 C435 1.511 . S
C433 C429 1.376 . S
C433 C432 1.392 1_455 S
C433 H445 0.929 . S
C434 C430 1.531 . S
C434 H446 0.960 . S
C434 H447 0.958 1_545 S
C434 H448 0.960 . S
C435 C432 1.511 . S
C435 H449 0.961 1_655 S
C435 H450 0.961 . S
C435 H451 0.961 1_655 S
C436 C437 1.352 1_565 S
C436 C438 1.368 . S
C436 H452 0.945 . S
C437 C436 1.352 1_545 S
C437 C441 1.408 . S
C438 C436 1.368 . S
C438 C439 1.370 1_565 S
C438 C442 1.524 . S
C439 C431 1.503 . S
C439 C438 1.370 1_545 S
C439 C440 1.403 . S
C440 C439 1.403 . S
C440 C441 1.404 . S
C440 C443 1.539 . S
C441 C437 1.408 . S
C441 C440 1.404 . S
C441 H453 0.930 . S
C442 C438 1.524 . S
C442 H454 0.956 . S
C442 H455 0.961 . S
C442 H456 0.961 . S
C443 C440 1.539 . S
C443 H457 0.958 . S
C443 H458 0.961 . S
C443 H459 0.960 . S
H444 C428 0.931 . S
H445 C433 0.929 . S
H446 C434 0.960 . S
H447 C434 0.958 1_565 S
H448 C434 0.960 . S
H449 C435 0.961 1_455 S
H450 C435 0.961 . S
H451 C435 0.961 1_455 S
H452 C436 0.945 . S
H453 C441 0.930 . S
H454 C442 0.956 . S
H455 C442 0.961 . S
H456 C442 0.961 . S
H457 C443 0.958 . S
H458 C443 0.961 . S
H459 C443 0.960 . S
C460 C461 1.391 . S
C460 C462 1.394 . S
C460 H476 0.931 . S
C461 C460 1.391 . S
C461 C465 1.376 . S
C462 C460 1.394 . S
C462 C463 1.369 . S
C462 C466 1.531 . S
C463 C462 1.369 . S
C463 C464 1.410 . S
C463 C471 1.503 . S
C464 C463 1.410 . S
C464 C465 1.392 . S
C464 C467 1.511 . S
C465 C461 1.376 . S
C465 C464 1.392 . S
C465 H477 0.929 . S
C466 C462 1.531 . S
C466 H478 0.960 . S
C466 H479 0.962 . S
C466 H480 0.960 . S
C467 C464 1.511 . S
C467 H481 0.961 . S
C467 H482 0.961 . S
C467 H483 0.961 . S
C468 C469 1.370 . S
C468 C470 1.363 . S
C468 H484 0.931 . S
C469 C468 1.370 . S
C469 C473 1.408 . S
C470 C468 1.363 . S
C470 C471 1.370 . S
C470 C474 1.524 . S
C471 C463 1.503 . S
C471 C470 1.370 . S
C471 C472 1.403 . S
C472 C471 1.403 . S
C472 C473 1.404 . S
C472 C475 1.539 . S
C473 C469 1.408 . S
C473 C472 1.404 . S
C473 H485 0.930 . S
C474 C470 1.524 . S
C474 H486 0.956 . S
C474 H487 0.961 . S
C474 H488 0.961 . S
C475 C472 1.539 . S
C475 H489 0.958 . S
C475 H490 0.961 . S
C475 H491 0.960 . S
H476 C460 0.931 . S
H477 C465 0.929 . S
H478 C466 0.960 . S
H479 C466 0.962 . S
H480 C466 0.960 . S
H481 C467 0.961 . S
H482 C467 0.961 . S
H483 C467 0.961 . S
H484 C468 0.931 . S
H485 C473 0.930 . S
H486 C474 0.956 . S
H487 C474 0.961 . S
H488 C474 0.961 . S
H489 C475 0.958 . S
H490 C475 0.961 . S
H491 C475 0.960 . S
C492 C493 1.391 . S
C492 C494 1.394 . S
C492 H508 0.931 . S
C493 C492 1.391 . S
C493 C497 1.376 . S
C494 C492 1.394 . S
C494 C495 1.369 . S
C494 C498 1.531 . S
C495 C494 1.369 . S
C495 C496 1.410 . S
C495 C503 1.503 . S
C496 C495 1.410 . S
C496 C497 1.392 . S
C496 C499 1.511 . S
C497 C493 1.376 . S
C497 C496 1.392 . S
C497 H509 0.929 . S
C498 C494 1.531 . S
C498 H510 0.960 . S
C498 H511 0.962 . S
C498 H512 0.960 . S
C499 C496 1.511 . S
C499 H513 0.961 . S
C499 H514 0.961 . S
C499 H515 0.961 . S
C500 C501 1.370 . S
C500 C502 1.363 . S
C500 H516 0.931 . S
C501 C500 1.370 . S
C501 C505 1.408 . S
C502 C500 1.363 . S
C502 C503 1.370 . S
C502 C506 1.524 . S
C503 C495 1.503 . S
C503 C502 1.370 . S
C503 C504 1.403 . S
C504 C503 1.403 . S
C504 C505 1.404 . S
C504 C507 1.539 . S
C505 C501 1.408 . S
C505 C504 1.404 . S
C505 H517 0.930 . S
C506 C502 1.524 . S
C506 H518 0.956 . S
C506 H519 0.961 . S
C506 H520 0.961 . S
C507 C504 1.539 . S
C507 H521 0.958 . S
C507 H522 0.961 . S
C507 H523 0.960 . S
H508 C492 0.931 . S
H509 C497 0.929 . S
H510 C498 0.960 . S
H511 C498 0.962 . S
H512 C498 0.960 . S
H513 C499 0.961 . S
H514 C499 0.961 . S
H515 C499 0.961 . S
H516 C500 0.931 . S
H517 C505 0.930 . S
H518 C506 0.956 . S
H519 C506 0.961 . S
H520 C506 0.961 . S
H521 C507 0.958 . S
H522 C507 0.961 . S
H523 C507 0.960 . S
C524 C525 1.391 . S
C524 C526 1.394 . S
C524 H540 0.931 . S
C525 C524 1.391 . S
C525 C529 1.376 . S
C526 C524 1.394 . S
C526 C527 1.369 . S
C526 C530 1.531 . S
C527 C526 1.369 . S
C527 C528 1.410 . S
C527 C535 1.503 . S
C528 C527 1.410 . S
C528 C529 1.392 . S
C528 C531 1.511 . S
C529 C525 1.376 . S
C529 C528 1.392 . S
C529 H541 0.929 . S
C530 C526 1.531 . S
C530 H542 0.960 . S
C530 H543 0.962 . S
C530 H544 0.960 . S
C531 C528 1.511 . S
C531 H545 0.961 . S
C531 H546 0.961 . S
C531 H547 0.961 . S
C532 C533 1.370 . S
C532 C534 1.363 . S
C532 H548 0.931 . S
C533 C532 1.370 . S
C533 C537 1.408 . S
C534 C532 1.363 . S
C534 C535 1.370 . S
C534 C538 1.524 . S
C535 C527 1.503 . S
C535 C534 1.370 . S
C535 C536 1.403 . S
C536 C535 1.403 . S
C536 C537 1.404 . S
C536 C539 1.539 . S
C537 C533 1.408 . S
C537 C536 1.404 . S
C537 H549 0.930 . S
C538 C534 1.524 . S
C538 H550 0.956 . S
C538 H551 0.961 . S
C538 H552 0.961 . S
C539 C536 1.539 . S
C539 H553 0.958 . S
C539 H554 0.961 . S
C539 H555 0.960 . S
H540 C524 0.931 . S
H541 C529 0.929 . S
H542 C530 0.960 . S
H543 C530 0.962 . S
H544 C530 0.960 . S
H545 C531 0.961 . S
H546 C531 0.961 . S
H547 C531 0.961 . S
H548 C532 0.931 . S
H549 C537 0.930 . S
H550 C538 0.956 . S
H551 C538 0.961 . S
H552 C538 0.961 . S
H553 C539 0.958 . S
H554 C539 0.961 . S
H555 C539 0.960 . S
C556 C557 1.391 . S
C556 C558 1.394 . S
C556 H572 0.931 . S
C557 C556 1.391 . S
C557 C561 1.376 . S
C558 C556 1.394 . S
C558 C559 1.369 . S
C558 C562 1.531 . S
C559 C558 1.369 . S
C559 C560 1.410 . S
C559 C567 1.503 . S
C560 C559 1.410 . S
C560 C561 1.392 . S
C560 C563 1.511 . S
C561 C557 1.376 . S
C561 C560 1.392 . S
C561 H573 0.929 . S
C562 C558 1.531 . S
C562 H574 0.960 1_565 S
C562 H575 0.962 . S
C562 H576 0.960 1_565 S
C563 C560 1.511 . S
C563 H577 0.961 . S
C563 H578 0.961 . S
C563 H579 0.931 1_565 S
C564 C565 1.370 . S
C564 C566 1.363 . S
C564 H580 0.931 . S
C565 C564 1.370 . S
C565 C569 1.408 1_565 S
C566 C564 1.363 . S
C566 C567 1.370 . S
C566 C570 1.524 . S
C567 C559 1.503 . S
C567 C566 1.370 . S
C567 C568 1.403 1_565 S
C568 C567 1.403 1_545 S
C568 C569 1.404 . S
C568 C571 1.539 . S
C569 C565 1.408 1_545 S
C569 C568 1.404 . S
C569 H581 0.930 . S
C570 C566 1.524 . S
C570 H582 0.956 . S
C570 H583 0.961 . S
C570 H584 0.961 . S
C571 C568 1.539 . S
C571 H585 0.958 . S
C571 H586 0.961 . S
C571 H587 0.960 . S
H572 C556 0.931 . S
H573 C561 0.929 . S
H574 C562 0.960 1_545 S
H575 C562 0.962 . S
H576 C562 0.960 1_545 S
H577 C563 0.961 . S
H578 C563 0.961 . S
H579 C563 0.931 1_545 S
H580 C564 0.931 . S
H581 C569 0.930 . S
H582 C570 0.956 . S
H583 C570 0.961 . S
H584 C570 0.961 . S
H585 C571 0.958 . S
H586 C571 0.961 . S
H587 C571 0.960 . S
C588 C589 1.391 . S
C588 C590 1.394 . S
C588 H604 0.931 . S
C589 C588 1.391 . S
C589 C593 1.376 . S
C590 C588 1.394 . S
C590 C591 1.369 . S
C590 C594 1.531 . S
C591 C590 1.369 . S
C591 C592 1.410 . S
C591 C599 1.503 . S
C592 C591 1.410 . S
C592 C593 1.392 . S
C592 C595 1.511 . S
C593 C589 1.376 . S
C593 C592 1.392 . S
C593 H605 0.929 . S
C594 C590 1.531 . S
C594 H606 0.960 . S
C594 H607 0.962 . S
C594 H608 0.960 . S
C595 C592 1.511 . S
C595 H609 0.961 . S
C595 H610 0.961 . S
C595 H611 0.961 . S
C596 C597 1.370 . S
C596 C598 1.363 . S
C596 H612 0.931 . S
C597 C596 1.370 . S
C597 C601 1.408 . S
C598 C596 1.363 . S
C598 C599 1.370 . S
C598 C602 1.524 . S
C599 C591 1.503 . S
C599 C598 1.370 . S
C599 C600 1.403 . S
C600 C599 1.403 . S
C600 C601 1.404 . S
C600 C603 1.539 . S
C601 C597 1.408 . S
C601 C600 1.404 . S
C601 H613 0.930 . S
C602 C598 1.524 . S
C602 H614 0.956 . S
C602 H615 0.961 . S
C602 H616 0.961 . S
C603 C600 1.539 . S
C603 H617 0.958 . S
C603 H618 0.961 . S
C603 H619 0.960 . S
H604 C588 0.931 . S
H605 C593 0.929 . S
H606 C594 0.960 . S
H607 C594 0.962 . S
H608 C594 0.960 . S
H609 C595 0.961 . S
H610 C595 0.961 . S
H611 C595 0.961 . S
H612 C596 0.931 . S
H613 C601 0.930 . S
H614 C602 0.956 . S
H615 C602 0.961 . S
H616 C602 0.961 . S
H617 C603 0.958 . S
H618 C603 0.961 . S
H619 C603 0.960 . S
C620 C621 1.391 . S
C620 C622 1.394 . S
C620 H636 0.931 . S
C621 C620 1.391 . S
C621 C625 1.376 . S
C622 C620 1.394 . S
C622 C623 1.369 . S
C622 C626 1.531 . S
C623 C622 1.369 . S
C623 C624 1.410 . S
C623 C631 1.503 . S
C624 C623 1.410 . S
C624 C625 1.392 . S
C624 C627 1.511 . S
C625 C621 1.376 . S
C625 C624 1.392 . S
C625 H637 0.929 . S
C626 C622 1.531 . S
C626 H638 0.960 . S
C626 H639 0.962 . S
C626 H640 0.960 . S
C627 C624 1.511 . S
C627 H641 0.961 . S
C627 H642 0.961 . S
C627 H643 0.961 . S
C628 C629 1.370 . S
C628 C630 1.363 . S
C628 H644 0.931 . S
C629 C628 1.370 . S
C629 C633 1.408 . S
C630 C628 1.363 . S
C630 C631 1.370 . S
C630 C634 1.524 . S
C631 C623 1.503 . S
C631 C630 1.370 . S
C631 C632 1.403 . S
C632 C631 1.403 . S
C632 C633 1.404 . S
C632 C635 1.539 . S
C633 C629 1.408 . S
C633 C632 1.404 . S
C633 H645 0.930 . S
C634 C630 1.524 . S
C634 H646 0.956 . S
C634 H647 0.961 . S
C634 H648 0.961 . S
C635 C632 1.539 . S
C635 H649 0.958 . S
C635 H650 0.961 . S
C635 H651 0.960 . S
H636 C620 0.931 . S
H637 C625 0.929 . S
H638 C626 0.960 . S
H639 C626 0.962 . S
H640 C626 0.960 . S
H641 C627 0.961 . S
H642 C627 0.961 . S
H643 C627 0.961 . S
H644 C628 0.931 . S
H645 C633 0.930 . S
H646 C634 0.956 . S
H647 C634 0.961 . S
H648 C634 0.961 . S
H649 C635 0.958 . S
H650 C635 0.961 . S
H651 C635 0.960 . S
C652 C653 1.391 . S
C652 C654 1.394 . S
C652 H668 0.931 . S
C653 C652 1.391 . S
C653 C657 1.376 . S
C654 C652 1.394 . S
C654 C655 1.369 . S
C654 C658 1.531 . S
C655 C654 1.369 . S
C655 C656 1.410 . S
C655 C663 1.503 . S
C656 C655 1.410 . S
C656 C657 1.392 . S
C656 C659 1.511 . S
C657 C653 1.376 . S
C657 C656 1.392 . S
C657 H669 0.929 . S
C658 C654 1.531 . S
C658 H670 0.960 . S
C658 H671 0.962 . S
C658 H672 0.960 . S
C659 C656 1.511 . S
C659 H673 0.961 . S
C659 H674 0.961 . S
C659 H675 0.961 . S
C660 C661 1.370 . S
C660 C662 1.363 . S
C660 H676 0.931 . S
C661 C660 1.370 . S
C661 C665 1.408 . S
C662 C660 1.363 . S
C662 C663 1.370 . S
C662 C666 1.524 . S
C663 C655 1.503 . S
C663 C662 1.370 . S
C663 C664 1.403 . S
C664 C663 1.403 . S
C664 C665 1.404 . S
C664 C667 1.539 . S
C665 C661 1.408 . S
C665 C664 1.404 . S
C665 H677 0.930 . S
C666 C662 1.524 . S
C666 H678 0.956 . S
C666 H679 0.961 . S
C666 H680 0.961 . S
C667 C664 1.539 . S
C667 H681 0.958 . S
C667 H682 0.961 . S
C667 H683 0.960 . S
H668 C652 0.931 . S
H669 C657 0.929 . S
H670 C658 0.960 . S
H671 C658 0.962 . S
H672 C658 0.960 . S
H673 C659 0.961 . S
H674 C659 0.961 . S
H675 C659 0.961 . S
H676 C660 0.931 . S
H677 C665 0.930 . S
H678 C666 0.956 . S
H679 C666 0.961 . S
H680 C666 0.961 . S
H681 C667 0.958 . S
H682 C667 0.961 . S
H683 C667 0.960 . S
C684 C685 1.391 . S
C684 C686 1.394 . S
C684 H700 0.931 . S
C685 C684 1.391 . S
C685 C689 1.376 . S
C686 C684 1.394 . S
C686 C687 1.369 . S
C686 C690 1.531 . S
C687 C686 1.369 . S
C687 C688 1.410 . S
C687 C695 1.503 . S
C688 C687 1.410 . S
C688 C689 1.392 . S
C688 C691 1.511 . S
C689 C685 1.376 . S
C689 C688 1.392 . S
C689 H701 0.929 . S
C690 C686 1.531 . S
C690 H702 0.960 . S
C690 H703 0.962 . S
C690 H704 0.960 . S
C691 C688 1.511 . S
C691 H705 0.961 . S
C691 H706 0.961 . S
C691 H707 0.961 . S
C692 C693 1.370 . S
C692 C694 1.363 . S
C692 H708 0.931 . S
C693 C692 1.370 . S
C693 C697 1.408 . S
C694 C692 1.363 . S
C694 C695 1.370 . S
C694 C698 1.524 . S
C695 C687 1.503 . S
C695 C694 1.370 . S
C695 C696 1.403 . S
C696 C695 1.403 . S
C696 C697 1.404 . S
C696 C699 1.539 . S
C697 C693 1.408 . S
C697 C696 1.404 . S
C697 H709 0.930 . S
C698 C694 1.524 . S
C698 H710 0.956 . S
C698 H711 0.961 . S
C698 H712 0.961 . S
C699 C696 1.539 . S
C699 H713 0.958 . S
C699 H714 0.961 . S
C699 H715 0.960 . S
H700 C684 0.931 . S
H701 C689 0.929 . S
H702 C690 0.960 . S
H703 C690 0.962 . S
H704 C690 0.960 . S
H705 C691 0.961 . S
H706 C691 0.961 . S
H707 C691 0.961 . S
H708 C692 0.931 . S
H709 C697 0.930 . S
H710 C698 0.956 . S
H711 C698 0.961 . S
H712 C698 0.961 . S
H713 C699 0.958 . S
H714 C699 0.961 . S
H715 C699 0.960 . S
C716 C717 1.391 . S
C716 C718 1.394 . S
C716 H732 0.931 . S
C717 C716 1.391 . S
C717 C721 1.376 . S
C718 C716 1.394 . S
C718 C719 1.369 . S
C718 C722 1.531 . S
C719 C718 1.369 . S
C719 C720 1.410 . S
C719 C727 1.503 . S
C720 C719 1.410 . S
C720 C721 1.392 . S
C720 C723 1.511 . S
C721 C717 1.376 . S
C721 C720 1.392 . S
C721 H733 0.929 . S
C722 C718 1.531 . S
C722 H734 0.960 . S
C722 H735 0.962 . S
C722 H736 0.960 . S
C723 C720 1.511 . S
C723 H737 0.961 . S
C723 H738 0.961 . S
C723 H739 0.961 . S
C724 C725 1.370 . S
C724 C726 1.363 . S
C724 H740 0.931 . S
C725 C724 1.370 . S
C725 C729 1.408 . S
C726 C724 1.363 . S
C726 C727 1.370 . S
C726 C730 1.524 . S
C727 C719 1.503 . S
C727 C726 1.370 . S
C727 C728 1.403 . S
C728 C727 1.403 . S
C728 C729 1.404 . S
C728 C731 1.539 . S
C729 C725 1.408 . S
C729 C728 1.404 . S
C729 H741 0.930 . S
C730 C726 1.524 . S
C730 H742 0.956 . S
C730 H743 0.961 . S
C730 H744 0.961 . S
C731 C728 1.539 . S
C731 H745 0.958 . S
C731 H746 0.961 . S
C731 H747 0.960 . S
H732 C716 0.931 . S
H733 C721 0.929 . S
H734 C722 0.960 . S
H735 C722 0.962 . S
H736 C722 0.960 . S
H737 C723 0.961 . S
H738 C723 0.961 . S
H739 C723 0.961 . S
H740 C724 0.931 . S
H741 C729 0.930 . S
H742 C730 0.956 . S
H743 C730 0.961 . S
H744 C730 0.961 . S
H745 C731 0.958 . S
H746 C731 0.961 . S
H747 C731 0.960 . S
C748 C749 1.391 . S
C748 C750 1.394 . S
C748 H764 0.931 . S
C749 C748 1.391 . S
C749 C753 1.376 . S
C750 C748 1.394 . S
C750 C751 1.369 . S
C750 C754 1.531 . S
C751 C750 1.369 . S
C751 C752 1.410 . S
C751 C759 1.503 . S
C752 C751 1.410 . S
C752 C753 1.392 . S
C752 C755 1.511 . S
C753 C749 1.376 . S
C753 C752 1.392 . S
C753 H765 0.929 . S
C754 C750 1.531 . S
C754 H766 0.960 . S
C754 H767 0.962 . S
C754 H768 0.960 . S
C755 C752 1.511 . S
C755 H769 0.961 . S
C755 H770 0.961 . S
C755 H771 0.961 . S
C756 C757 1.370 . S
C756 C758 1.363 . S
C756 H772 0.931 . S
C757 C756 1.370 . S
C757 C761 1.408 . S
C758 C756 1.363 . S
C758 C759 1.370 . S
C758 C762 1.497 1_455 S
C759 C751 1.503 . S
C759 C758 1.370 . S
C759 C760 1.403 . S
C760 C759 1.403 . S
C760 C761 1.404 . S
C760 C763 1.539 . S
C761 C757 1.408 . S
C761 C760 1.404 . S
C761 H773 0.930 . S
C762 C758 1.497 1_655 S
C762 H774 0.956 . S
C762 H775 0.962 1_655 S
C762 H776 0.988 . S
C763 C760 1.539 . S
C763 H777 0.958 . S
C763 H778 0.961 . S
C763 H779 0.960 . S
H764 C748 0.931 . S
H765 C753 0.929 . S
H766 C754 0.960 . S
H767 C754 0.962 . S
H768 C754 0.960 . S
H769 C755 0.961 . S
H770 C755 0.961 . S
H771 C755 0.961 . S
H772 C756 0.931 . S
H773 C761 0.930 . S
H774 C762 0.956 . S
H775 C762 0.962 1_455 S
H776 C762 0.988 . S
H777 C763 0.958 . S
H778 C763 0.961 . S
H779 C763 0.960 . S
C780 C781 1.391 . S
C780 C782 1.394 . S
C780 H796 0.931 . S
C781 C780 1.391 . S
C781 C785 1.376 . S
C782 C780 1.394 . S
C782 C783 1.369 . S
C782 C786 1.531 . S
C783 C782 1.369 . S
C783 C784 1.410 . S
C783 C791 1.503 . S
C784 C783 1.410 . S
C784 C785 1.392 . S
C784 C787 1.511 . S
C785 C781 1.376 . S
C785 C784 1.392 . S
C785 H797 0.929 . S
C786 C782 1.531 . S
C786 H798 0.960 . S
C786 H799 0.962 . S
C786 H800 0.960 . S
C787 C784 1.511 . S
C787 H801 0.961 . S
C787 H802 0.961 . S
C787 H803 0.961 . S
C788 C789 1.370 . S
C788 C790 1.363 . S
C788 H804 0.931 . S
C789 C788 1.370 . S
C789 C793 1.408 . S
C790 C788 1.363 . S
C790 C791 1.370 . S
C790 C794 1.524 . S
C791 C783 1.503 . S
C791 C790 1.370 . S
C791 C792 1.403 . S
C792 C791 1.403 . S
C792 C793 1.404 . S
C792 C795 1.539 . S
C793 C789 1.408 . S
C793 C792 1.404 . S
C793 H805 0.930 . S
C794 C790 1.524 . S
C794 H806 0.956 . S
C794 H807 0.961 . S
C794 H808 0.961 . S
C795 C792 1.539 . S
C795 H809 0.958 . S
C795 H810 0.961 . S
C795 H811 0.960 . S
H796 C780 0.931 . S
H797 C785 0.929 . S
H798 C786 0.960 . S
H799 C786 0.962 . S
H800 C786 0.960 . S
H801 C787 0.961 . S
H802 C787 0.961 . S
H803 C787 0.961 . S
H804 C788 0.931 . S
H805 C793 0.930 . S
H806 C794 0.956 . S
H807 C794 0.961 . S
H808 C794 0.961 . S
H809 C795 0.958 . S
H810 C795 0.961 . S
H811 C795 0.960 . S
C812 C813 1.391 1_455 S
C812 C814 1.394 . S
C812 H828 0.931 . S
C813 C812 1.391 1_655 S
C813 C817 1.376 . S
C814 C812 1.394 . S
C814 C815 1.369 . S
C814 C818 1.531 . S
C815 C814 1.369 . S
C815 C816 1.410 1_455 S
C815 C823 1.503 . S
C816 C815 1.410 1_655 S
C816 C817 1.392 . S
C816 C819 1.511 . S
C817 C813 1.376 . S
C817 C816 1.392 . S
C817 H829 0.929 . S
C818 C814 1.531 . S
C818 H830 0.960 . S
C818 H831 0.962 . S
C818 H832 0.960 . S
C819 C816 1.511 . S
C819 H833 0.961 . S
C819 H834 0.961 . S
C819 H835 0.961 . S
C820 C821 1.370 . S
C820 C822 1.363 . S
C820 H836 0.931 . S
C821 C820 1.370 . S
C821 C825 1.423 . S
C822 C820 1.363 . S
C822 C823 1.370 . S
C822 C826 1.524 . S
C823 C815 1.503 . S
C823 C822 1.370 . S
C823 C824 1.403 1_455 S
C824 C823 1.403 1_655 S
C824 C825 1.407 1_655 S
C824 C827 1.539 . S
C825 C821 1.423 . S
C825 C824 1.407 1_455 S
C825 H837 0.914 1_455 S
C826 C822 1.524 . S
C826 H838 0.956 . S
C826 H839 0.961 . S
C826 H840 0.961 . S
C827 C824 1.539 . S
C827 H841 0.958 . S
C827 H842 0.961 . S
C827 H843 0.960 . S
H828 C812 0.931 . S
H829 C817 0.929 . S
H830 C818 0.960 . S
H831 C818 0.962 . S
H832 C818 0.960 . S
H833 C819 0.961 . S
H834 C819 0.961 . S
H835 C819 0.961 . S
H836 C820 0.931 . S
H837 C825 0.914 1_655 S
H838 C826 0.956 . S
H839 C826 0.961 . S
H840 C826 0.961 . S
H841 C827 0.958 . S
H842 C827 0.961 . S
H843 C827 0.960 . S
C844 C845 1.391 . S
C844 C846 1.394 . S
C844 H860 0.931 . S
C845 C844 1.391 . S
C845 C849 1.376 . S
C846 C844 1.394 . S
C846 C847 1.369 . S
C846 C850 1.531 . S
C847 C846 1.369 . S
C847 C848 1.410 . S
C847 C855 1.503 . S
C848 C847 1.410 . S
C848 C849 1.392 . S
C848 C851 1.511 . S
C849 C845 1.376 . S
C849 C848 1.392 . S
C849 H861 0.929 . S
C850 C846 1.531 . S
C850 H862 0.960 . S
C850 H863 0.962 . S
C850 H864 0.960 . S
C851 C848 1.511 . S
C851 H865 0.961 . S
C851 H866 0.961 . S
C851 H867 0.961 . S
C852 C853 1.370 . S
C852 C854 1.363 . S
C852 H868 0.931 . S
C853 C852 1.370 . S
C853 C857 1.408 . S
C854 C852 1.363 . S
C854 C855 1.370 . S
C854 C858 1.524 . S
C855 C847 1.503 . S
C855 C854 1.370 . S
C855 C856 1.403 . S
C856 C855 1.403 . S
C856 C857 1.404 . S
C856 C859 1.539 . S
C857 C853 1.408 . S
C857 C856 1.404 . S
C857 H869 0.930 . S
C858 C854 1.524 . S
C858 H870 0.956 . S
C858 H871 0.961 . S
C858 H872 0.961 . S
C859 C856 1.539 . S
C859 H873 0.958 . S
C859 H874 0.961 . S
C859 H875 0.960 . S
H860 C844 0.931 . S
H861 C849 0.929 . S
H862 C850 0.960 . S
H863 C850 0.962 . S
H864 C850 0.960 . S
H865 C851 0.961 . S
H866 C851 0.961 . S
H867 C851 0.961 . S
H868 C852 0.931 . S
H869 C857 0.930 . S
H870 C858 0.956 . S
H871 C858 0.961 . S
H872 C858 0.961 . S
H873 C859 0.958 . S
H874 C859 0.961 . S
H875 C859 0.960 . S
C876 C877 1.391 . S
C876 C878 1.394 . S
C876 H892 0.931 . S
C877 C876 1.391 . S
C877 C881 1.376 . S
C878 C876 1.394 . S
C878 C879 1.369 . S
C878 C882 1.531 . S
C879 C878 1.369 . S
C879 C880 1.410 . S
C879 C887 1.503 . S
C880 C879 1.410 . S
C880 C881 1.392 . S
C880 C883 1.511 . S
C881 C877 1.376 . S
C881 C880 1.392 . S
C881 H893 0.929 . S
C882 C878 1.531 . S
C882 H894 0.960 . S
C882 H895 0.962 . S
C882 H896 0.960 . S
C883 C880 1.511 . S
C883 H897 0.961 . S
C883 H898 0.961 . S
C883 H899 0.961 . S
C884 C885 1.370 . S
C884 C886 1.363 . S
C884 H900 0.931 . S
C885 C884 1.370 . S
C885 C889 1.408 . S
C886 C884 1.363 . S
C886 C887 1.370 . S
C886 C890 1.524 . S
C887 C879 1.503 . S
C887 C886 1.370 . S
C887 C888 1.403 . S
C888 C887 1.403 . S
C888 C889 1.404 . S
C888 C891 1.539 . S
C889 C885 1.408 . S
C889 C888 1.404 . S
C889 H901 0.930 . S
C890 C886 1.524 . S
C890 H902 0.956 . S
C890 H903 0.961 . S
C890 H904 0.961 . S
C891 C888 1.539 . S
C891 H905 0.958 . S
C891 H906 0.961 . S
C891 H907 0.960 . S
H892 C876 0.931 . S
H893 C881 0.929 . S
H894 C882 0.960 . S
H895 C882 0.962 . S
H896 C882 0.960 . S
H897 C883 0.961 . S
H898 C883 0.961 . S
H899 C883 0.961 . S
H900 C884 0.931 . S
H901 C889 0.930 . S
H902 C890 0.956 . S
H903 C890 0.961 . S
H904 C890 0.961 . S
H905 C891 0.958 . S
H906 C891 0.961 . S
H907 C891 0.960 . S
C908 C909 1.391 . S
C908 C910 1.394 . S
C908 H924 0.931 . S
C909 C908 1.391 . S
C909 C913 1.376 1_554 S
C910 C908 1.394 . S
C910 C911 1.369 . S
C910 C914 1.531 . S
C911 C910 1.369 . S
C911 C912 1.410 1_554 S
C911 C919 1.503 . S
C912 C911 1.410 1_556 S
C912 C913 1.392 . S
C912 C915 1.511 . S
C913 C909 1.376 1_556 S
C913 C912 1.392 . S
C913 H925 0.929 . S
C914 C910 1.531 . S
C914 H926 0.960 . S
C914 H927 0.962 . S
C914 H928 0.960 . S
C915 C912 1.511 . S
C915 H929 0.961 . S
C915 H930 0.961 . S
C915 H931 0.961 . S
C916 C917 1.370 . S
C916 C918 1.369 . S
C916 H932 0.931 1_554 S
C917 C916 1.370 . S
C917 C921 1.408 . S
C918 C916 1.369 . S
C918 C919 1.385 . S
C918 C922 1.505 1_554 S
C919 C911 1.503 . S
C919 C918 1.385 . S
C919 C920 1.403 . S
C920 C919 1.403 . S
C920 C921 1.404 . S
C920 C923 1.539 . S
C921 C917 1.408 . S
C921 C920 1.404 . S
C921 H933 0.930 . S
C922 C918 1.505 1_556 S
C922 H934 0.956 . S
C922 H935 0.961 . S
C922 H936 0.961 . S
C923 C920 1.539 . S
C923 H937 0.958 . S
C923 H938 0.961 . S
C923 H939 0.960 . S
H924 C908 0.931 . S
H925 C913 0.929 . S
H926 C914 0.960 . S
H927 C914 0.962 . S
H928 C914 0.960 . S
H929 C915 0.961 . S
H930 C915 0.961 . S
H931 C915 0.961 . S
H932 C916 0.931 1_556 S
H933 C921 0.930 . S
H934 C922 0.956 . S
H935 C922 0.961 . S
H936 C922 0.961 . S
H937 C923 0.958 . S
H938 C923 0.961 . S
H939 C923 0.960 . S
C940 C941 1.391 . S
C940 C942 1.394 . S
C940 H956 0.931 . S
C941 C940 1.391 . S
C941 C945 1.376 . S
C942 C940 1.394 . S
C942 C943 1.369 . S
C942 C946 1.531 . S
C943 C942 1.369 . S
C943 C944 1.410 . S
C943 C951 1.503 . S
C944 C943 1.410 . S
C944 C945 1.392 . S
C944 C947 1.511 . S
C945 C941 1.376 . S
C945 C944 1.392 . S
C945 H957 0.929 . S
C946 C942 1.531 . S
C946 H958 0.960 . S
C946 H959 0.962 . S
C946 H960 0.960 . S
C947 C944 1.511 . S
C947 H961 0.961 . S
C947 H962 0.961 . S
C947 H963 0.961 . S
C948 C949 1.370 . S
C948 C950 1.363 . S
C948 H964 0.931 . S
C949 C948 1.370 . S
C949 C953 1.408 . S
C950 C948 1.363 . S
C950 C951 1.370 . S
C950 C954 1.524 . S
C951 C943 1.503 . S
C951 C950 1.370 . S
C951 C952 1.403 . S
C952 C951 1.403 . S
C952 C953 1.404 . S
C952 C955 1.539 . S
C953 C949 1.408 . S
C953 C952 1.404 . S
C953 H965 0.930 . S
C954 C950 1.524 . S
C954 H966 0.956 . S
C954 H967 0.961 . S
C954 H968 0.961 . S
C955 C952 1.539 . S
C955 H969 0.958 . S
C955 H970 0.961 . S
C955 H971 0.960 . S
H956 C940 0.931 . S
H957 C945 0.929 . S
H958 C946 0.960 . S
H959 C946 0.962 . S
H960 C946 0.960 . S
H961 C947 0.961 . S
H962 C947 0.961 . S
H963 C947 0.961 . S
H964 C948 0.931 . S
H965 C953 0.930 . S
H966 C954 0.956 . S
H967 C954 0.961 . S
H968 C954 0.961 . S
H969 C955 0.958 . S
H970 C955 0.961 . S
H971 C955 0.960 . S
C972 C973 1.391 . S
C972 C974 1.394 . S
C972 H988 0.931 . S
C973 C972 1.391 . S
C973 C977 1.376 . S
C974 C972 1.394 . S
C974 C975 1.369 . S
C974 C978 1.531 . S
C975 C974 1.369 . S
C975 C976 1.410 . S
C975 C983 1.503 . S
C976 C975 1.410 . S
C976 C977 1.392 . S
C976 C979 1.511 . S
C977 C973 1.376 . S
C977 C976 1.392 . S
C977 H989 0.929 . S
C978 C974 1.531 . S
C978 H990 0.960 . S
C978 H991 0.962 . S
C978 H992 0.960 . S
C979 C976 1.511 . S
C979 H993 0.961 . S
C979 H994 0.961 . S
C979 H995 0.961 . S
C980 C981 1.370 . S
C980 C982 1.363 . S
C980 H996 0.931 . S
C981 C980 1.370 . S
C981 C985 1.408 . S
C982 C980 1.363 . S
C982 C983 1.370 . S
C982 C986 1.524 . S
C983 C975 1.503 . S
C983 C982 1.370 . S
C983 C984 1.403 . S
C984 C983 1.403 . S
C984 C985 1.404 . S
C984 C987 1.539 . S
C985 C981 1.408 . S
C985 C984 1.404 . S
C985 H997 0.930 . S
C986 C982 1.524 . S
C986 H998 0.956 . S
C986 H999 0.961 . S
C986 H1000 0.961 . S
C987 C984 1.539 . S
C987 H1001 0.958 . S
C987 H1002 0.961 . S
C987 H1003 0.960 . S
H988 C972 0.931 . S
H989 C977 0.929 . S
H990 C978 0.960 . S
H991 C978 0.962 . S
H992 C978 0.960 . S
H993 C979 0.961 . S
H994 C979 0.961 . S
H995 C979 0.961 . S
H996 C980 0.931 . S
H997 C985 0.930 . S
H998 C986 0.956 . S
H999 C986 0.961 . S
H1000 C986 0.961 . S
H1001 C987 0.958 . S
H1002 C987 0.961 . S
H1003 C987 0.960 . S
C1004 C1005 1.391 . S
C1004 C1006 1.394 . S
C1004 H1020 0.931 . S
C1005 C1004 1.391 . S
C1005 C1009 1.376 . S
C1006 C1004 1.394 . S
C1006 C1007 1.369 . S
C1006 C1010 1.531 . S
C1007 C1006 1.369 . S
C1007 C1008 1.410 . S
C1007 C1015 1.503 . S
C1008 C1007 1.410 . S
C1008 C1009 1.392 . S
C1008 C1011 1.511 . S
C1009 C1005 1.376 . S
C1009 C1008 1.392 . S
C1009 H1021 0.929 . S
C1010 C1006 1.531 . S
C1010 H1022 0.960 . S
C1010 H1023 0.962 . S
C1010 H1024 0.960 . S
C1011 C1008 1.511 . S
C1011 H1025 0.961 . S
C1011 H1026 0.961 . S
C1011 H1027 0.961 . S
C1012 C1013 1.370 . S
C1012 C1014 1.363 . S
C1012 H1028 0.931 . S
C1013 C1012 1.370 . S
C1013 C1017 1.408 . S
C1014 C1012 1.363 . S
C1014 C1015 1.370 . S
C1014 C1018 1.524 . S
C1015 C1007 1.503 . S
C1015 C1014 1.370 . S
C1015 C1016 1.403 . S
C1016 C1015 1.403 . S
C1016 C1017 1.404 . S
C1016 C1019 1.539 . S
C1017 C1013 1.408 . S
C1017 C1016 1.404 . S
C1017 H1029 0.930 . S
C1018 C1014 1.524 . S
C1018 H1030 0.956 . S
C1018 H1031 0.961 . S
C1018 H1032 0.961 . S
C1019 C1016 1.539 . S
C1019 H1033 0.958 . S
C1019 H1034 0.961 . S
C1019 H1035 0.960 . S
H1020 C1004 0.931 . S
H1021 C1009 0.929 . S
H1022 C1010 0.960 . S
H1023 C1010 0.962 . S
H1024 C1010 0.960 . S
H1025 C1011 0.961 . S
H1026 C1011 0.961 . S
H1027 C1011 0.961 . S
H1028 C1012 0.931 . S
H1029 C1017 0.930 . S
H1030 C1018 0.956 . S
H1031 C1018 0.961 . S
H1032 C1018 0.961 . S
H1033 C1019 0.958 . S
H1034 C1019 0.961 . S
H1035 C1019 0.960 . S
C1036 C1037 1.391 . S
C1036 C1038 1.394 . S
C1036 H1052 0.931 . S
C1037 C1036 1.391 . S
C1037 C1041 1.376 . S
C1038 C1036 1.394 . S
C1038 C1039 1.369 . S
C1038 C1042 1.531 . S
C1039 C1038 1.369 . S
C1039 C1040 1.410 . S
C1039 C1047 1.503 . S
C1040 C1039 1.410 . S
C1040 C1041 1.392 . S
C1040 C1043 1.511 . S
C1041 C1037 1.376 . S
C1041 C1040 1.392 . S
C1041 H1053 0.929 . S
C1042 C1038 1.531 . S
C1042 H1054 0.960 . S
C1042 H1055 0.962 . S
C1042 H1056 0.960 . S
C1043 C1040 1.511 . S
C1043 H1057 0.961 . S
C1043 H1058 0.961 . S
C1043 H1059 0.961 . S
C1044 C1045 1.370 . S
C1044 C1046 1.363 . S
C1044 H1060 0.931 . S
C1045 C1044 1.370 . S
C1045 C1049 1.408 . S
C1046 C1044 1.363 . S
C1046 C1047 1.370 . S
C1046 C1050 1.524 . S
C1047 C1039 1.503 . S
C1047 C1046 1.370 . S
C1047 C1048 1.403 . S
C1048 C1047 1.403 . S
C1048 C1049 1.404 . S
C1048 C1051 1.539 . S
C1049 C1045 1.408 . S
C1049 C1048 1.404 . S
C1049 H1061 0.930 . S
C1050 C1046 1.524 . S
C1050 H1062 0.956 . S
C1050 H1063 0.961 . S
C1050 H1064 0.961 . S
C1051 C1048 1.539 . S
C1051 H1065 0.958 . S
C1051 H1066 0.961 . S
C1051 H1067 0.960 . S
H1052 C1036 0.931 . S
H1053 C1041 0.929 . S
H1054 C1042 0.960 . S
H1055 C1042 0.962 . S
H1056 C1042 0.960 . S
H1057 C1043 0.961 . S
H1058 C1043 0.961 . S
H1059 C1043 0.961 . S
H1060 C1044 0.931 . S
H1061 C1049 0.930 . S
H1062 C1050 0.956 . S
H1063 C1050 0.961 . S
H1064 C1050 0.961 . S
H1065 C1051 0.958 . S
H1066 C1051 0.961 . S
H1067 C1051 0.960 . S
C1068 C1069 1.391 . S
C1068 C1070 1.394 . S
C1068 H1084 0.931 . S
C1069 C1068 1.391 . S
C1069 C1073 1.376 . S
C1070 C1068 1.394 . S
C1070 C1071 1.369 . S
C1070 C1074 1.531 . S
C1071 C1070 1.369 . S
C1071 C1072 1.410 . S
C1071 C1079 1.503 . S
C1072 C1071 1.410 . S
C1072 C1073 1.392 . S
C1072 C1075 1.511 . S
C1073 C1069 1.376 . S
C1073 C1072 1.392 . S
C1073 H1085 0.929 . S
C1074 C1070 1.531 . S
C1074 H1086 0.960 . S
C1074 H1087 0.962 . S
C1074 H1088 0.960 . S
C1075 C1072 1.511 . S
C1075 H1089 0.961 . S
C1075 H1090 0.961 . S
C1075 H1091 0.961 . S
C1076 C1077 1.370 . S
C1076 C1078 1.363 . S
C1076 H1092 0.931 . S
C1077 C1076 1.370 . S
C1077 C1081 1.408 . S
C1078 C1076 1.363 . S
C1078 C1079 1.370 . S
C1078 C1082 1.524 . S
C1079 C1071 1.503 . S
C1079 C1078 1.370 . S
C1079 C1080 1.403 . S
C1080 C1079 1.403 . S
C1080 C1081 1.404 . S
C1080 C1083 1.539 . S
C1081 C1077 1.408 . S
C1081 C1080 1.404 . S
C1081 H1093 0.930 . S
C1082 C1078 1.524 . S
C1082 H1094 0.956 . S
C1082 H1095 0.961 . S
C1082 H1096 0.961 . S
C1083 C1080 1.539 . S
C1083 H1097 0.958 . S
C1083 H1098 0.961 . S
C1083 H1099 0.960 . S
H1084 C1068 0.931 . S
H1085 C1073 0.929 . S
H1086 C1074 0.960 . S
H1087 C1074 0.962 . S
H1088 C1074 0.960 . S
H1089 C1075 0.961 . S
H1090 C1075 0.961 . S
H1091 C1075 0.961 . S
H1092 C1076 0.931 . S
H1093 C1081 0.930 . S
H1094 C1082 0.956 . S
H1095 C1082 0.961 . S
H1096 C1082 0.961 . S
H1097 C1083 0.958 . S
H1098 C1083 0.961 . S
H1099 C1083 0.960 . S
C1100 C1101 1.391 . S
C1100 C1102 1.394 . S
C1100 H1116 0.931 . S
C1101 C1100 1.391 . S
C1101 C1105 1.376 . S
C1102 C1100 1.394 . S
C1102 C1103 1.369 . S
C1102 C1106 1.531 . S
C1103 C1102 1.369 . S
C1103 C1104 1.410 . S
C1103 C1111 1.503 . S
C1104 C1103 1.410 . S
C1104 C1105 1.392 . S
C1104 C1107 1.511 . S
C1105 C1101 1.376 . S
C1105 C1104 1.392 . S
C1105 H1117 0.929 . S
C1106 C1102 1.531 . S
C1106 H1118 0.960 . S
C1106 H1119 0.962 . S
C1106 H1120 0.960 . S
C1107 C1104 1.511 . S
C1107 H1121 0.961 . S
C1107 H1122 0.961 . S
C1107 H1123 0.961 . S
C1108 C1109 1.370 . S
C1108 C1110 1.363 . S
C1108 H1124 0.931 . S
C1109 C1108 1.370 . S
C1109 C1113 1.408 . S
C1110 C1108 1.363 . S
C1110 C1111 1.370 . S
C1110 C1114 1.524 . S
C1111 C1103 1.503 . S
C1111 C1110 1.370 . S
C1111 C1112 1.403 . S
C1112 C1111 1.403 . S
C1112 C1113 1.404 . S
C1112 C1115 1.539 . S
C1113 C1109 1.408 . S
C1113 C1112 1.404 . S
C1113 H1125 0.930 . S
C1114 C1110 1.524 . S
C1114 H1126 0.956 . S
C1114 H1127 0.961 . S
C1114 H1128 0.961 . S
C1115 C1112 1.539 . S
C1115 H1129 0.958 . S
C1115 H1130 0.961 . S
C1115 H1131 0.960 . S
H1116 C1100 0.931 . S
H1117 C1105 0.929 . S
H1118 C1106 0.960 . S
H1119 C1106 0.962 . S
H1120 C1106 0.960 . S
H1121 C1107 0.961 . S
H1122 C1107 0.961 . S
H1123 C1107 0.961 . S
H1124 C1108 0.931 . S
H1125 C1113 0.930 . S
H1126 C1114 0.956 . S
H1127 C1114 0.961 . S
H1128 C1114 0.961 . S
H1129 C1115 0.958 . S
H1130 C1115 0.961 . S
H1131 C1115 0.960 . S
C1132 C1133 1.391 . S
C1132 C1134 1.394 . S
C1132 H1148 0.931 . S
C1133 C1132 1.391 . S
C1133 C1137 1.376 . S
C1134 C1132 1.394 . S
C1134 C1135 1.369 . S
C1134 C1138 1.531 . S
C1135 C1134 1.369 . S
C1135 C1136 1.410 . S
C1135 C1143 1.503 . S
C1136 C1135 1.410 . S
C1136 C1137 1.392 . S
C1136 C1139 1.511 1_545 S
C1137 C1133 1.376 . S
C1137 C1136 1.392 . S
C1137 H1149 0.929 . S
C1138 C1134 1.531 . S
C1138 H1150 0.960 . S
C1138 H1151 0.962 . S
C1138 H1152 0.960 . S
C1139 C1136 1.511 1_565 S
C1139 H1153 0.961 . S
C1139 H1154 0.961 . S
C1139 H1155 0.961 . S
C1140 C1141 1.370 . S
C1140 C1142 1.363 . S
C1140 H1156 0.931 . S
C1141 C1140 1.370 . S
C1141 C1145 1.408 . S
C1142 C1140 1.363 . S
C1142 C1143 1.370 . S
C1142 C1146 1.524 . S
C1143 C1135 1.503 . S
C1143 C1142 1.370 . S
C1143 C1144 1.403 . S
C1144 C1143 1.403 . S
C1144 C1145 1.404 . S
C1144 C1147 1.539 . S
C1145 C1141 1.408 . S
C1145 C1144 1.404 . S
C1145 H1157 0.930 . S
C1146 C1142 1.524 . S
C1146 H1158 0.956 . S
C1146 H1159 0.961 . S
C1146 H1160 0.961 . S
C1147 C1144 1.539 . S
C1147 H1161 0.958 . S
C1147 H1162 0.961 1_545 S
C1147 H1163 0.960 . S
H1148 C1132 0.931 . S
H1149 C1137 0.929 . S
H1150 C1138 0.960 . S
H1151 C1138 0.962 . S
H1152 C1138 0.960 . S
H1153 C1139 0.961 . S
H1154 C1139 0.961 . S
H1155 C1139 0.961 . S
H1156 C1140 0.931 . S
H1157 C1145 0.930 . S
H1158 C1146 0.956 . S
H1159 C1146 0.961 . S
H1160 C1146 0.961 . S
H1161 C1147 0.958 . S
H1162 C1147 0.961 1_565 S
H1163 C1147 0.960 . S
C1164 C1165 1.391 . S
C1164 C1166 1.394 . S
C1164 H1180 0.931 . S
C1165 C1164 1.391 . S
C1165 C1169 1.376 . S
C1166 C1164 1.394 . S
C1166 C1167 1.369 . S
C1166 C1170 1.531 . S
C1167 C1166 1.369 . S
C1167 C1168 1.410 . S
C1167 C1175 1.503 . S
C1168 C1167 1.410 . S
C1168 C1169 1.392 . S
C1168 C1171 1.511 . S
C1169 C1165 1.376 . S
C1169 C1168 1.392 . S
C1169 H1181 0.929 . S
C1170 C1166 1.531 . S
C1170 H1182 0.960 . S
C1170 H1183 0.962 . S
C1170 H1184 0.960 . S
C1171 C1168 1.511 . S
C1171 H1185 0.961 . S
C1171 H1186 0.961 . S
C1171 H1187 0.961 . S
C1172 C1173 1.370 . S
C1172 C1174 1.363 . S
C1172 H1188 0.931 . S
C1173 C1172 1.370 . S
C1173 C1177 1.408 . S
C1174 C1172 1.363 . S
C1174 C1175 1.370 . S
C1174 C1178 1.524 . S
C1175 C1167 1.503 . S
C1175 C1174 1.370 . S
C1175 C1176 1.403 . S
C1176 C1175 1.403 . S
C1176 C1177 1.404 . S
C1176 C1179 1.539 . S
C1177 C1173 1.408 . S
C1177 C1176 1.404 . S
C1177 H1189 0.930 . S
C1178 C1174 1.524 . S
C1178 H1190 0.956 . S
C1178 H1191 0.961 . S
C1178 H1192 0.961 . S
C1179 C1176 1.539 . S
C1179 H1193 0.958 . S
C1179 H1194 0.961 . S
C1179 H1195 0.960 . S
H1180 C1164 0.931 . S
H1181 C1169 0.929 . S
H1182 C1170 0.960 . S
H1183 C1170 0.962 . S
H1184 C1170 0.960 . S
H1185 C1171 0.961 . S
H1186 C1171 0.961 . S
H1187 C1171 0.961 . S
H1188 C1172 0.931 . S
H1189 C1177 0.930 . S
H1190 C1178 0.956 . S
H1191 C1178 0.961 . S
H1192 C1178 0.961 . S
H1193 C1179 0.958 . S
H1194 C1179 0.961 . S
H1195 C1179 0.960 . S
C1196 C1197 1.391 . S
C1196 C1198 1.394 . S
C1196 H1212 0.931 . S
C1197 C1196 1.391 . S
C1197 C1201 1.376 . S
C1198 C1196 1.394 . S
C1198 C1199 1.369 . S
C1198 C1202 1.531 . S
C1199 C1198 1.369 . S
C1199 C1200 1.410 . S
C1199 C1207 1.503 . S
C1200 C1199 1.410 . S
C1200 C1201 1.392 . S
C1200 C1203 1.511 . S
C1201 C1197 1.376 . S
C1201 C1200 1.392 . S
C1201 H1213 0.929 . S
C1202 C1198 1.531 . S
C1202 H1214 0.960 . S
C1202 H1215 0.962 . S
C1202 H1216 0.960 . S
C1203 C1200 1.511 . S
C1203 H1217 0.961 . S
C1203 H1218 0.961 . S
C1203 H1219 0.961 . S
C1204 C1205 1.370 . S
C1204 C1206 1.363 . S
C1204 H1220 0.931 . S
C1205 C1204 1.370 . S
C1205 C1209 1.408 . S
C1206 C1204 1.363 . S
C1206 C1207 1.370 . S
C1206 C1210 1.524 . S
C1207 C1199 1.503 . S
C1207 C1206 1.370 . S
C1207 C1208 1.403 . S
C1208 C1207 1.403 . S
C1208 C1209 1.404 . S
C1208 C1211 1.539 . S
C1209 C1205 1.408 . S
C1209 C1208 1.404 . S
C1209 H1221 0.930 . S
C1210 C1206 1.524 . S
C1210 H1222 0.956 . S
C1210 H1223 0.961 . S
C1210 H1224 0.961 . S
C1211 C1208 1.539 . S
C1211 H1225 0.958 . S
C1211 H1226 0.961 . S
C1211 H1227 0.960 . S
H1212 C1196 0.931 . S
H1213 C1201 0.929 . S
H1214 C1202 0.960 . S
H1215 C1202 0.962 . S
H1216 C1202 0.960 . S
H1217 C1203 0.961 . S
H1218 C1203 0.961 . S
H1219 C1203 0.961 . S
H1220 C1204 0.931 . S
H1221 C1209 0.930 . S
H1222 C1210 0.956 . S
H1223 C1210 0.961 . S
H1224 C1210 0.961 . S
H1225 C1211 0.958 . S
H1226 C1211 0.961 . S
H1227 C1211 0.960 . S
C1228 C1229 1.391 . S
C1228 C1230 1.394 . S
C1228 H1244 0.931 . S
C1229 C1228 1.391 . S
C1229 C1233 1.376 . S
C1230 C1228 1.394 . S
C1230 C1231 1.369 . S
C1230 C1234 1.531 . S
C1231 C1230 1.369 . S
C1231 C1232 1.410 . S
C1231 C1239 1.503 . S
C1232 C1231 1.410 . S
C1232 C1233 1.392 . S
C1232 C1235 1.511 . S
C1233 C1229 1.376 . S
C1233 C1232 1.392 . S
C1233 H1245 0.929 . S
C1234 C1230 1.531 . S
C1234 H1246 0.960 . S
C1234 H1247 0.962 . S
C1234 H1248 0.960 . S
C1235 C1232 1.511 . S
C1235 H1249 0.961 . S
C1235 H1250 0.961 . S
C1235 H1251 0.961 . S
C1236 C1237 1.370 . S
C1236 C1238 1.363 . S
C1236 H1252 0.931 . S
C1237 C1236 1.370 . S
C1237 C1241 1.408 . S
C1238 C1236 1.363 . S
C1238 C1239 1.370 . S
C1238 C1242 1.524 . S
C1239 C1231 1.503 . S
C1239 C1238 1.370 . S
C1239 C1240 1.403 . S
C1240 C1239 1.403 . S
C1240 C1241 1.404 . S
C1240 C1243 1.539 . S
C1241 C1237 1.408 . S
C1241 C1240 1.404 . S
C1241 H1253 0.930 . S
C1242 C1238 1.524 . S
C1242 H1254 0.956 . S
C1242 H1255 0.961 . S
C1242 H1256 0.961 . S
C1243 C1240 1.539 . S
C1243 H1257 0.958 . S
C1243 H1258 0.961 . S
C1243 H1259 0.960 . S
H1244 C1228 0.931 . S
H1245 C1233 0.929 . S
H1246 C1234 0.960 . S
H1247 C1234 0.962 . S
H1248 C1234 0.960 . S
H1249 C1235 0.961 . S
H1250 C1235 0.961 . S
H1251 C1235 0.961 . S
H1252 C1236 0.931 . S
H1253 C1241 0.930 . S
H1254 C1242 0.956 . S
H1255 C1242 0.961 . S
H1256 C1242 0.961 . S
H1257 C1243 0.958 . S
H1258 C1243 0.961 . S
H1259 C1243 0.960 . S
C1260 C1261 1.391 . S
C1260 C1262 1.394 . S
C1260 H1276 0.931 . S
C1261 C1260 1.391 . S
C1261 C1265 1.376 . S
C1262 C1260 1.394 . S
C1262 C1263 1.369 . S
C1262 C1266 1.531 . S
C1263 C1262 1.369 . S
C1263 C1264 1.410 . S
C1263 C1271 1.503 . S
C1264 C1263 1.410 . S
C1264 C1265 1.392 . S
C1264 C1267 1.511 . S
C1265 C1261 1.376 . S
C1265 C1264 1.392 . S
C1265 H1277 0.929 . S
C1266 C1262 1.531 . S
C1266 H1278 0.960 . S
C1266 H1279 0.962 . S
C1266 H1280 0.960 . S
C1267 C1264 1.511 . S
C1267 H1281 0.961 . S
C1267 H1282 0.961 . S
C1267 H1283 0.961 1_545 S
C1268 C1269 1.370 . S
C1268 C1270 1.363 . S
C1268 H1284 0.931 . S
C1269 C1268 1.370 . S
C1269 C1273 1.408 . S
C1270 C1268 1.363 . S
C1270 C1271 1.370 . S
C1270 C1274 1.524 . S
C1271 C1263 1.503 . S
C1271 C1270 1.370 . S
C1271 C1272 1.403 . S
C1272 C1271 1.403 . S
C1272 C1273 1.404 . S
C1272 C1275 1.539 1_545 S
C1273 C1269 1.408 . S
C1273 C1272 1.404 . S
C1273 H1285 0.930 . S
C1274 C1270 1.524 . S
C1274 H1286 0.956 . S
C1274 H1287 0.961 . S
C1274 H1288 0.961 . S
C1275 C1272 1.539 1_565 S
C1275 H1289 0.958 1_565 S
C1275 H1290 0.961 . S
C1275 H1291 0.960 . S
H1276 C1260 0.931 . S
H1277 C1265 0.929 . S
H1278 C1266 0.960 . S
H1279 C1266 0.962 . S
H1280 C1266 0.960 . S
H1281 C1267 0.961 . S
H1282 C1267 0.961 . S
H1283 C1267 0.961 1_565 S
H1284 C1268 0.931 . S
H1285 C1273 0.930 . S
H1286 C1274 0.956 . S
H1287 C1274 0.961 . S
H1288 C1274 0.961 . S
H1289 C1275 0.958 1_545 S
H1290 C1275 0.961 . S
H1291 C1275 0.960 . S
C1292 C1293 1.391 . S
C1292 C1294 1.394 . S
C1292 H1308 0.931 . S
C1293 C1292 1.391 . S
C1293 C1297 1.376 . S
C1294 C1292 1.394 . S
C1294 C1295 1.369 . S
C1294 C1298 1.531 . S
C1295 C1294 1.369 . S
C1295 C1296 1.410 . S
C1295 C1303 1.503 . S
C1296 C1295 1.410 . S
C1296 C1297 1.392 . S
C1296 C1299 1.511 . S
C1297 C1293 1.376 . S
C1297 C1296 1.392 . S
C1297 H1309 0.929 . S
C1298 C1294 1.531 . S
C1298 H1310 0.960 . S
C1298 H1311 0.962 . S
C1298 H1312 0.960 . S
C1299 C1296 1.511 . S
C1299 H1313 0.961 . S
C1299 H1314 0.961 . S
C1299 H1315 0.961 . S
C1300 C1301 1.370 . S
C1300 C1302 1.363 . S
C1300 H1316 0.931 . S
C1301 C1300 1.370 . S
C1301 C1305 1.408 . S
C1302 C1300 1.363 . S
C1302 C1303 1.370 . S
C1302 C1306 1.524 . S
C1303 C1295 1.503 . S
C1303 C1302 1.370 . S
C1303 C1304 1.403 . S
C1304 C1303 1.403 . S
C1304 C1305 1.404 . S
C1304 C1307 1.539 . S
C1305 C1301 1.408 . S
C1305 C1304 1.404 . S
C1305 H1317 0.930 . S
C1306 C1302 1.524 . S
C1306 H1318 0.956 . S
C1306 H1319 0.961 . S
C1306 H1320 0.961 . S
C1307 C1304 1.539 . S
C1307 H1321 0.958 . S
C1307 H1322 0.961 . S
C1307 H1323 0.960 . S
H1308 C1292 0.931 . S
H1309 C1297 0.929 . S
H1310 C1298 0.960 . S
H1311 C1298 0.962 . S
H1312 C1298 0.960 . S
H1313 C1299 0.961 . S
H1314 C1299 0.961 . S
H1315 C1299 0.961 . S
H1316 C1300 0.931 . S
H1317 C1305 0.930 . S
H1318 C1306 0.956 . S
H1319 C1306 0.961 . S
H1320 C1306 0.961 . S
H1321 C1307 0.958 . S
H1322 C1307 0.961 . S
H1323 C1307 0.960 . S
C1324 C1325 1.391 . S
C1324 C1326 1.394 . S
C1324 H1340 0.931 . S
C1325 C1324 1.391 . S
C1325 C1329 1.376 1_455 S
C1326 C1324 1.394 . S
C1326 C1327 1.369 . S
C1326 C1330 1.531 . S
C1327 C1326 1.369 . S
C1327 C1328 1.410 . S
C1327 C1335 1.503 . S
C1328 C1327 1.410 . S
C1328 C1329 1.393 1_455 S
C1328 C1331 1.511 . S
C1329 C1325 1.376 1_655 S
C1329 C1328 1.393 1_655 S
C1329 H1341 0.928 . S
C1330 C1326 1.531 . S
C1330 H1342 0.960 . S
C1330 H1343 0.962 . S
C1330 H1344 0.960 . S
C1331 C1328 1.511 . S
C1331 H1345 0.961 1_455 S
C1331 H1346 0.961 . S
C1331 H1347 0.961 . S
C1332 C1333 1.370 . S
C1332 C1334 1.363 . S
C1332 H1348 0.931 . S
C1333 C1332 1.370 . S
C1333 C1337 1.408 . S
C1334 C1332 1.363 . S
C1334 C1335 1.370 . S
C1334 C1338 1.524 . S
C1335 C1327 1.503 . S
C1335 C1334 1.370 . S
C1335 C1336 1.403 . S
C1336 C1335 1.403 . S
C1336 C1337 1.404 . S
C1336 C1339 1.539 . S
C1337 C1333 1.408 . S
C1337 C1336 1.404 . S
C1337 H1349 0.930 . S
C1338 C1334 1.524 . S
C1338 H1350 0.956 . S
C1338 H1351 0.961 . S
C1338 H1352 0.961 . S
C1339 C1336 1.539 . S
C1339 H1353 0.958 . S
C1339 H1354 0.961 . S
C1339 H1355 0.960 . S
H1340 C1324 0.931 . S
H1341 C1329 0.928 . S
H1342 C1330 0.960 . S
H1343 C1330 0.962 . S
H1344 C1330 0.960 . S
H1345 C1331 0.961 1_655 S
H1346 C1331 0.961 . S
H1347 C1331 0.961 . S
H1348 C1332 0.931 . S
H1349 C1337 0.930 . S
H1350 C1338 0.956 . S
H1351 C1338 0.961 . S
H1352 C1338 0.961 . S
H1353 C1339 0.958 . S
H1354 C1339 0.961 . S
H1355 C1339 0.960 . S
C1356 C1357 1.391 . S
C1356 C1358 1.394 . S
C1356 H1372 0.931 . S
C1357 C1356 1.391 . S
C1357 C1361 1.376 . S
C1358 C1356 1.394 . S
C1358 C1359 1.369 . S
C1358 C1362 1.531 . S
C1359 C1358 1.369 . S
C1359 C1360 1.410 . S
C1359 C1367 1.503 . S
C1360 C1359 1.410 . S
C1360 C1361 1.392 . S
C1360 C1363 1.511 . S
C1361 C1357 1.376 . S
C1361 C1360 1.392 . S
C1361 H1373 0.929 . S
C1362 C1358 1.531 . S
C1362 H1374 0.960 . S
C1362 H1375 0.962 . S
C1362 H1376 0.960 . S
C1363 C1360 1.511 . S
C1363 H1377 0.961 . S
C1363 H1378 0.961 . S
C1363 H1379 0.961 . S
C1364 C1365 1.370 . S
C1364 C1366 1.363 . S
C1364 H1380 0.931 . S
C1365 C1364 1.370 . S
C1365 C1369 1.408 . S
C1366 C1364 1.363 . S
C1366 C1367 1.370 . S
C1366 C1370 1.524 . S
C1367 C1359 1.503 . S
C1367 C1366 1.370 . S
C1367 C1368 1.403 . S
C1368 C1367 1.403 . S
C1368 C1369 1.404 . S
C1368 C1371 1.539 . S
C1369 C1365 1.408 . S
C1369 C1368 1.404 . S
C1369 H1381 0.930 . S
C1370 C1366 1.524 . S
C1370 H1382 0.956 . S
C1370 H1383 0.961 . S
C1370 H1384 0.961 . S
C1371 C1368 1.539 . S
C1371 H1385 0.958 . S
C1371 H1386 0.961 . S
C1371 H1387 0.960 . S
H1372 C1356 0.931 . S
H1373 C1361 0.929 . S
H1374 C1362 0.960 . S
H1375 C1362 0.962 . S
H1376 C1362 0.960 . S
H1377 C1363 0.961 . S
H1378 C1363 0.961 . S
H1379 C1363 0.961 . S
H1380 C1364 0.931 . S
H1381 C1369 0.930 . S
H1382 C1370 0.956 . S
H1383 C1370 0.961 . S
H1384 C1370 0.961 . S
H1385 C1371 0.958 . S
H1386 C1371 0.961 . S
H1387 C1371 0.960 . S
C1388 C1389 1.391 . S
C1388 C1390 1.394 . S
C1388 H1404 0.931 . S
C1389 C1388 1.391 . S
C1389 C1393 1.376 1_655 S
C1390 C1388 1.394 . S
C1390 C1391 1.369 . S
C1390 C1394 1.531 1_554 S
C1391 C1390 1.369 . S
C1391 C1392 1.410 1_655 S
C1391 C1399 1.503 1_554 S
C1392 C1391 1.410 1_455 S
C1392 C1393 1.392 . S
C1392 C1395 1.511 . S
C1393 C1389 1.376 1_455 S
C1393 C1392 1.392 . S
C1393 H1405 0.929 . S
C1394 C1390 1.531 1_556 S
C1394 H1406 0.960 . S
C1394 H1407 0.962 . S
C1394 H1408 0.960 . S
C1395 C1392 1.511 . S
C1395 H1409 0.961 . S
C1395 H1410 0.961 . S
C1395 H1411 0.961 . S
C1396 C1397 1.370 1_655 S
C1396 C1398 1.363 1_556 S
C1396 H1412 0.931 . S
C1397 C1396 1.370 1_455 S
C1397 C1401 1.408 . S
C1398 C1396 1.363 1_554 S
C1398 C1399 1.370 1_554 S
C1398 C1402 1.524 . S
C1399 C1391 1.503 1_556 S
C1399 C1398 1.370 1_556 S
C1399 C1400 1.403 1_655 S
C1400 C1399 1.403 1_455 S
C1400 C1401 1.404 . S
C1400 C1403 1.539 . S
C1401 C1397 1.408 . S
C1401 C1400 1.404 . S
C1401 H1413 0.930 . S
C1402 C1398 1.524 . S
C1402 H1414 0.956 . S
C1402 H1415 0.961 . S
C1402 H1416 0.961 . S
C1403 C1400 1.539 . S
C1403 H1417 0.958 . S
C1403 H1418 0.961 . S
C1403 H1419 0.960 . S
H1404 C1388 0.931 . S
H1405 C1393 0.929 . S
H1406 C1394 0.960 . S
H1407 C1394 0.962 . S
H1408 C1394 0.960 . S
H1409 C1395 0.961 . S
H1410 C1395 0.961 . S
H1411 C1395 0.961 . S
H1412 C1396 0.931 . S
H1413 C1401 0.930 . S
H1414 C1402 0.956 . S
H1415 C1402 0.961 . S
H1416 C1402 0.961 . S
H1417 C1403 0.958 . S
H1418 C1403 0.961 . S
H1419 C1403 0.960 . S
C1420 C1421 1.391 . S
C1420 C1422 1.394 . S
C1420 H1436 0.931 . S
C1421 C1420 1.391 . S
C1421 C1425 1.376 . S
C1422 C1420 1.394 . S
C1422 C1423 1.369 . S
C1422 C1426 1.531 . S
C1423 C1422 1.369 . S
C1423 C1424 1.410 . S
C1423 C1431 1.503 . S
C1424 C1423 1.410 . S
C1424 C1425 1.392 . S
C1424 C1427 1.511 . S
C1425 C1421 1.376 . S
C1425 C1424 1.392 . S
C1425 H1437 0.929 . S
C1426 C1422 1.531 . S
C1426 H1438 0.960 . S
C1426 H1439 0.962 . S
C1426 H1440 0.960 . S
C1427 C1424 1.511 . S
C1427 H1441 0.961 . S
C1427 H1442 0.961 . S
C1427 H1443 0.961 . S
C1428 C1429 1.370 . S
C1428 C1430 1.363 . S
C1428 H1444 0.931 . S
C1429 C1428 1.370 . S
C1429 C1433 1.408 . S
C1430 C1428 1.363 . S
C1430 C1431 1.370 . S
C1430 C1434 1.524 . S
C1431 C1423 1.503 . S
C1431 C1430 1.370 . S
C1431 C1432 1.403 . S
C1432 C1431 1.403 . S
C1432 C1433 1.404 . S
C1432 C1435 1.539 . S
C1433 C1429 1.408 . S
C1433 C1432 1.404 . S
C1433 H1445 0.930 . S
C1434 C1430 1.524 . S
C1434 H1446 0.956 . S
C1434 H1447 0.961 . S
C1434 H1448 0.961 . S
C1435 C1432 1.539 . S
C1435 H1449 0.958 . S
C1435 H1450 0.961 . S
C1435 H1451 0.960 . S
H1436 C1420 0.931 . S
H1437 C1425 0.929 . S
H1438 C1426 0.960 . S
H1439 C1426 0.962 . S
H1440 C1426 0.960 . S
H1441 C1427 0.961 . S
H1442 C1427 0.961 . S
H1443 C1427 0.961 . S
H1444 C1428 0.931 . S
H1445 C1433 0.930 . S
H1446 C1434 0.956 . S
H1447 C1434 0.961 . S
H1448 C1434 0.961 . S
H1449 C1435 0.958 . S
H1450 C1435 0.961 . S
H1451 C1435 0.960 . S
C1452 C1453 1.391 . S
C1452 C1454 1.394 . S
C1452 H1468 0.931 1_455 S
C1453 C1452 1.391 . S
C1453 C1457 1.376 . S
C1454 C1452 1.394 . S
C1454 C1455 1.369 . S
C1454 C1458 1.531 1_455 S
C1455 C1454 1.369 . S
C1455 C1456 1.410 . S
C1455 C1463 1.503 1_554 S
C1456 C1455 1.410 . S
C1456 C1457 1.392 . S
C1456 C1459 1.511 1_554 S
C1457 C1453 1.376 . S
C1457 C1456 1.392 . S
C1457 H1469 0.929 . S
C1458 C1454 1.531 1_655 S
C1458 H1470 0.960 . S
C1458 H1471 0.962 . S
C1458 H1472 0.960 . S
C1459 C1456 1.511 1_556 S
C1459 H1473 0.961 . S
C1459 H1474 0.961 . S
C1459 H1475 0.961 . S
C1460 C1461 1.370 . S
C1460 C1462 1.363 . S
C1460 H1476 0.931 1_455 S
C1461 C1460 1.370 . S
C1461 C1465 1.408 . S
C1462 C1460 1.363 . S
C1462 C1463 1.370 . S
C1462 C1466 1.524 1_455 S
C1463 C1455 1.503 1_556 S
C1463 C1462 1.370 . S
C1463 C1464 1.403 1_556 S
C1464 C1463 1.403 1_554 S
C1464 C1465 1.404 1_554 S
C1464 C1467 1.539 . S
C1465 C1461 1.408 . S
C1465 C1464 1.404 1_556 S
C1465 H1477 0.926 1_556 S
C1466 C1462 1.524 1_655 S
C1466 H1478 0.956 . S
C1466 H1479 0.961 1_655 S
C1466 H1480 0.961 . S
C1467 C1464 1.539 . S
C1467 H1481 0.958 . S
C1467 H1482 0.961 . S
C1467 H1483 0.960 . S
H1468 C1452 0.931 1_655 S
H1469 C1457 0.929 . S
H1470 C1458 0.960 . S
H1471 C1458 0.962 . S
H1472 C1458 0.960 . S
H1473 C1459 0.961 . S
H1474 C1459 0.961 . S
H1475 C1459 0.961 . S
H1476 C1460 0.931 1_655 S
H1477 C1465 0.926 1_554 S
H1478 C1466 0.956 . S
H1479 C1466 0.961 1_455 S
H1480 C1466 0.961 . S
H1481 C1467 0.958 . S
H1482 C1467 0.961 . S
H1483 C1467 0.960 . S
C1484 C1485 1.391 . S
C1484 C1486 1.394 . S
C1484 H1500 0.931 . S
C1485 C1484 1.391 . S
C1485 C1489 1.376 . S
C1486 C1484 1.394 . S
C1486 C1487 1.369 . S
C1486 C1490 1.531 . S
C1487 C1486 1.369 . S
C1487 C1488 1.410 . S
C1487 C1495 1.503 . S
C1488 C1487 1.410 . S
C1488 C1489 1.392 . S
C1488 C1491 1.511 . S
C1489 C1485 1.376 . S
C1489 C1488 1.392 . S
C1489 H1501 0.929 . S
C1490 C1486 1.531 . S
C1490 H1502 0.960 . S
C1490 H1503 0.962 . S
C1490 H1504 0.960 . S
C1491 C1488 1.511 . S
C1491 H1505 0.961 . S
C1491 H1506 0.961 . S
C1491 H1507 0.961 . S
C1492 C1493 1.370 . S
C1492 C1494 1.363 . S
C1492 H1508 0.931 . S
C1493 C1492 1.370 . S
C1493 C1497 1.408 . S
C1494 C1492 1.363 . S
C1494 C1495 1.370 . S
C1494 C1498 1.524 . S
C1495 C1487 1.503 . S
C1495 C1494 1.370 . S
C1495 C1496 1.403 . S
C1496 C1495 1.403 . S
C1496 C1497 1.404 . S
C1496 C1499 1.539 . S
C1497 C1493 1.408 . S
C1497 C1496 1.404 . S
C1497 H1509 0.930 . S
C1498 C1494 1.524 . S
C1498 H1510 0.956 . S
C1498 H1511 0.961 . S
C1498 H1512 0.961 . S
C1499 C1496 1.539 . S
C1499 H1513 0.958 . S
C1499 H1514 0.961 . S
C1499 H1515 0.960 . S
H1500 C1484 0.931 . S
H1501 C1489 0.929 . S
H1502 C1490 0.960 . S
H1503 C1490 0.962 . S
H1504 C1490 0.960 . S
H1505 C1491 0.961 . S
H1506 C1491 0.961 . S
H1507 C1491 0.961 . S
H1508 C1492 0.931 . S
H1509 C1497 0.930 . S
H1510 C1498 0.956 . S
H1511 C1498 0.961 . S
H1512 C1498 0.961 . S
H1513 C1499 0.958 . S
H1514 C1499 0.961 . S
H1515 C1499 0.960 . S
C1516 C1517 1.391 . S
C1516 C1518 1.394 . S
C1516 H1532 0.931 . S
C1517 C1516 1.391 . S
C1517 C1521 1.376 . S
C1518 C1516 1.394 . S
C1518 C1519 1.369 . S
C1518 C1522 1.531 . S
C1519 C1518 1.369 . S
C1519 C1520 1.410 . S
C1519 C1527 1.503 . S
C1520 C1519 1.410 . S
C1520 C1521 1.392 . S
C1520 C1523 1.511 . S
C1521 C1517 1.376 . S
C1521 C1520 1.392 . S
C1521 H1533 0.929 . S
C1522 C1518 1.531 . S
C1522 H1534 0.960 . S
C1522 H1535 0.962 . S
C1522 H1536 0.960 . S
C1523 C1520 1.511 . S
C1523 H1537 0.961 . S
C1523 H1538 0.961 . S
C1523 H1539 0.961 . S
C1524 C1525 1.370 . S
C1524 C1526 1.363 . S
C1524 H1540 0.931 . S
C1525 C1524 1.370 . S
C1525 C1529 1.408 . S
C1526 C1524 1.363 . S
C1526 C1527 1.370 . S
C1526 C1530 1.524 . S
C1527 C1519 1.503 . S
C1527 C1526 1.370 . S
C1527 C1528 1.403 . S
C1528 C1527 1.403 . S
C1528 C1529 1.404 . S
C1528 C1531 1.539 . S
C1529 C1525 1.408 . S
C1529 C1528 1.404 . S
C1529 H1541 0.930 . S
C1530 C1526 1.524 . S
C1530 H1542 0.956 . S
C1530 H1543 0.961 . S
C1530 H1544 0.961 . S
C1531 C1528 1.539 . S
C1531 H1545 0.958 . S
C1531 H1546 0.961 . S
C1531 H1547 0.960 . S
H1532 C1516 0.931 . S
H1533 C1521 0.929 . S
H1534 C1522 0.960 . S
H1535 C1522 0.962 . S
H1536 C1522 0.960 . S
H1537 C1523 0.961 . S
H1538 C1523 0.961 . S
H1539 C1523 0.961 . S
H1540 C1524 0.931 . S
H1541 C1529 0.930 . S
H1542 C1530 0.956 . S
H1543 C1530 0.961 . S
H1544 C1530 0.961 . S
H1545 C1531 0.958 . S
H1546 C1531 0.961 . S
H1547 C1531 0.960 . S
C1548 C1549 1.391 . S
C1548 C1550 1.394 . S
C1548 H1564 0.931 . S
C1549 C1548 1.391 . S
C1549 C1553 1.376 . S
C1550 C1548 1.394 . S
C1550 C1551 1.369 . S
C1550 C1554 1.531 . S
C1551 C1550 1.369 . S
C1551 C1552 1.410 . S
C1551 C1559 1.503 . S
C1552 C1551 1.410 . S
C1552 C1553 1.392 . S
C1552 C1555 1.511 . S
C1553 C1549 1.376 . S
C1553 C1552 1.392 . S
C1553 H1565 0.929 . S
C1554 C1550 1.531 . S
C1554 H1566 0.960 . S
C1554 H1567 0.962 . S
C1554 H1568 0.960 . S
C1555 C1552 1.511 . S
C1555 H1569 0.961 . S
C1555 H1570 0.961 . S
C1555 H1571 0.961 . S
C1556 C1557 1.370 . S
C1556 C1558 1.363 . S
C1556 H1572 0.931 . S
C1557 C1556 1.370 . S
C1557 C1561 1.408 . S
C1558 C1556 1.363 . S
C1558 C1559 1.370 . S
C1558 C1562 1.524 . S
C1559 C1551 1.503 . S
C1559 C1558 1.370 . S
C1559 C1560 1.403 . S
C1560 C1559 1.403 . S
C1560 C1561 1.404 . S
C1560 C1563 1.539 . S
C1561 C1557 1.408 . S
C1561 C1560 1.404 . S
C1561 H1573 0.930 . S
C1562 C1558 1.524 . S
C1562 H1574 0.956 . S
C1562 H1575 0.961 . S
C1562 H1576 0.961 . S
C1563 C1560 1.539 . S
C1563 H1577 0.958 . S
C1563 H1578 0.961 . S
C1563 H1579 0.960 . S
H1564 C1548 0.931 . S
H1565 C1553 0.929 . S
H1566 C1554 0.960 . S
H1567 C1554 0.962 . S
H1568 C1554 0.960 . S
H1569 C1555 0.961 . S
H1570 C1555 0.961 . S
H1571 C1555 0.961 . S
H1572 C1556 0.931 . S
H1573 C1561 0.930 . S
H1574 C1562 0.956 . S
H1575 C1562 0.961 . S
H1576 C1562 0.961 . S
H1577 C1563 0.958 . S
H1578 C1563 0.961 . S
H1579 C1563 0.960 . S
C1580 C1581 1.391 . S
C1580 C1582 1.394 . S
C1580 H1596 0.931 . S
C1581 C1580 1.391 . S
C1581 C1585 1.376 . S
C1582 C1580 1.394 . S
C1582 C1583 1.369 . S
C1582 C1586 1.531 . S
C1583 C1582 1.369 . S
C1583 C1584 1.410 . S
C1583 C1591 1.503 . S
C1584 C1583 1.410 . S
C1584 C1585 1.392 . S
C1584 C1587 1.511 . S
C1585 C1581 1.376 . S
C1585 C1584 1.392 . S
C1585 H1597 0.929 . S
C1586 C1582 1.531 . S
C1586 H1598 0.960 . S
C1586 H1599 0.962 . S
C1586 H1600 0.960 . S
C1587 C1584 1.511 . S
C1587 H1601 0.961 . S
C1587 H1602 0.961 . S
C1587 H1603 0.961 . S
C1588 C1589 1.370 . S
C1588 C1590 1.363 . S
C1588 H1604 0.931 . S
C1589 C1588 1.370 . S
C1589 C1593 1.408 . S
C1590 C1588 1.363 . S
C1590 C1591 1.370 . S
C1590 C1594 1.524 . S
C1591 C1583 1.503 . S
C1591 C1590 1.370 . S
C1591 C1592 1.403 . S
C1592 C1591 1.403 . S
C1592 C1593 1.404 . S
C1592 C1595 1.539 . S
C1593 C1589 1.408 . S
C1593 C1592 1.404 . S
C1593 H1605 0.930 . S
C1594 C1590 1.524 . S
C1594 H1606 0.956 . S
C1594 H1607 0.961 . S
C1594 H1608 0.961 . S
C1595 C1592 1.539 . S
C1595 H1609 0.958 . S
C1595 H1610 0.961 . S
C1595 H1611 0.960 . S
H1596 C1580 0.931 . S
H1597 C1585 0.929 . S
H1598 C1586 0.960 . S
H1599 C1586 0.962 . S
H1600 C1586 0.960 . S
H1601 C1587 0.961 . S
H1602 C1587 0.961 . S
H1603 C1587 0.961 . S
H1604 C1588 0.931 . S
H1605 C1593 0.930 . S
H1606 C1594 0.956 . S
H1607 C1594 0.961 . S
H1608 C1594 0.961 . S
H1609 C1595 0.958 . S
H1610 C1595 0.961 . S
H1611 C1595 0.960 . S
C1612 C1613 1.391 . S
C1612 C1614 1.394 . S
C1612 H1628 0.931 . S
C1613 C1612 1.391 . S
C1613 C1617 1.376 . S
C1614 C1612 1.394 . S
C1614 C1615 1.369 . S
C1614 C1618 1.531 . S
C1615 C1614 1.369 . S
C1615 C1616 1.410 . S
C1615 C1623 1.503 . S
C1616 C1615 1.410 . S
C1616 C1617 1.392 . S
C1616 C1619 1.511 . S
C1617 C1613 1.376 . S
C1617 C1616 1.392 . S
C1617 H1629 0.929 . S
C1618 C1614 1.531 . S
C1618 H1630 0.960 . S
C1618 H1631 0.962 . S
C1618 H1632 0.960 . S
C1619 C1616 1.511 . S
C1619 H1633 0.961 . S
C1619 H1634 0.961 . S
C1619 H1635 0.961 . S
C1620 C1621 1.370 . S
C1620 C1622 1.363 . S
C1620 H1636 0.931 . S
C1621 C1620 1.370 . S
C1621 C1625 1.408 . S
C1622 C1620 1.363 . S
C1622 C1623 1.370 . S
C1622 C1626 1.524 . S
C1623 C1615 1.503 . S
C1623 C1622 1.370 . S
C1623 C1624 1.403 . S
C1624 C1623 1.403 . S
C1624 C1625 1.404 . S
C1624 C1627 1.539 . S
C1625 C1621 1.408 . S
C1625 C1624 1.404 . S
C1625 H1637 0.930 . S
C1626 C1622 1.524 . S
C1626 H1638 0.956 . S
C1626 H1639 0.961 . S
C1626 H1640 0.961 . S
C1627 C1624 1.539 . S
C1627 H1641 0.958 . S
C1627 H1642 0.961 . S
C1627 H1643 0.960 . S
H1628 C1612 0.931 . S
H1629 C1617 0.929 . S
H1630 C1618 0.960 . S
H1631 C1618 0.962 . S
H1632 C1618 0.960 . S
H1633 C1619 0.961 . S
H1634 C1619 0.961 . S
H1635 C1619 0.961 . S
H1636 C1620 0.931 . S
H1637 C1625 0.930 . S
H1638 C1626 0.956 . S
H1639 C1626 0.961 . S
H1640 C1626 0.961 . S
H1641 C1627 0.958 . S
H1642 C1627 0.961 . S
H1643 C1627 0.960 . S
C1644 C1645 1.391 . S
C1644 C1646 1.394 . S
C1644 H1660 0.931 . S
C1645 C1644 1.391 . S
C1645 C1649 1.376 . S
C1646 C1644 1.394 . S
C1646 C1647 1.369 . S
C1646 C1650 1.531 . S
C1647 C1646 1.369 . S
C1647 C1648 1.410 . S
C1647 C1655 1.503 . S
C1648 C1647 1.410 . S
C1648 C1649 1.392 . S
C1648 C1651 1.511 . S
C1649 C1645 1.376 . S
C1649 C1648 1.392 . S
C1649 H1661 0.929 . S
C1650 C1646 1.531 . S
C1650 H1662 0.960 . S
C1650 H1663 0.962 . S
C1650 H1664 0.960 . S
C1651 C1648 1.511 . S
C1651 H1665 0.961 . S
C1651 H1666 0.961 . S
C1651 H1667 0.961 . S
C1652 C1653 1.370 . S
C1652 C1654 1.363 . S
C1652 H1668 0.931 . S
C1653 C1652 1.370 . S
C1653 C1657 1.408 . S
C1654 C1652 1.363 . S
C1654 C1655 1.370 . S
C1654 C1658 1.524 . S
C1655 C1647 1.503 . S
C1655 C1654 1.370 . S
C1655 C1656 1.403 . S
C1656 C1655 1.403 . S
C1656 C1657 1.404 . S
C1656 C1659 1.539 . S
C1657 C1653 1.408 . S
C1657 C1656 1.404 . S
C1657 H1669 0.930 . S
C1658 C1654 1.524 . S
C1658 H1670 0.956 . S
C1658 H1671 0.961 . S
C1658 H1672 0.961 . S
C1659 C1656 1.539 . S
C1659 H1673 0.958 . S
C1659 H1674 0.961 . S
C1659 H1675 0.960 . S
H1660 C1644 0.931 . S
H1661 C1649 0.929 . S
H1662 C1650 0.960 . S
H1663 C1650 0.962 . S
H1664 C1650 0.960 . S
H1665 C1651 0.961 . S
H1666 C1651 0.961 . S
H1667 C1651 0.961 . S
H1668 C1652 0.931 . S
H1669 C1657 0.930 . S
H1670 C1658 0.956 . S
H1671 C1658 0.961 . S
H1672 C1658 0.961 . S
H1673 C1659 0.958 . S
H1674 C1659 0.961 . S
H1675 C1659 0.960 . S
C1676 C1677 1.391 . S
C1676 C1678 1.394 . S
C1676 H1692 0.931 . S
C1677 C1676 1.391 . S
C1677 C1681 1.376 . S
C1678 C1676 1.394 . S
C1678 C1679 1.369 . S
C1678 C1682 1.531 . S
C1679 C1678 1.369 . S
C1679 C1680 1.410 . S
C1679 C1687 1.503 . S
C1680 C1679 1.410 . S
C1680 C1681 1.392 . S
C1680 C1683 1.511 . S
C1681 C1677 1.376 . S
C1681 C1680 1.392 . S
C1681 H1693 0.929 . S
C1682 C1678 1.531 . S
C1682 H1694 0.960 . S
C1682 H1695 0.962 . S
C1682 H1696 0.960 . S
C1683 C1680 1.511 . S
C1683 H1697 0.961 . S
C1683 H1698 0.961 . S
C1683 H1699 0.961 . S
C1684 C1685 1.370 . S
C1684 C1686 1.363 . S
C1684 H1700 0.931 . S
C1685 C1684 1.370 . S
C1685 C1689 1.408 . S
C1686 C1684 1.363 . S
C1686 C1687 1.370 . S
C1686 C1690 1.524 . S
C1687 C1679 1.503 . S
C1687 C1686 1.370 . S
C1687 C1688 1.403 . S
C1688 C1687 1.403 . S
C1688 C1689 1.404 . S
C1688 C1691 1.539 . S
C1689 C1685 1.408 . S
C1689 C1688 1.404 . S
C1689 H1701 0.930 . S
C1690 C1686 1.524 . S
C1690 H1702 0.956 . S
C1690 H1703 0.961 . S
C1690 H1704 0.961 . S
C1691 C1688 1.539 . S
C1691 H1705 0.958 . S
C1691 H1706 0.961 . S
C1691 H1707 0.960 . S
H1692 C1676 0.931 . S
H1693 C1681 0.929 . S
H1694 C1682 0.960 . S
H1695 C1682 0.962 . S
H1696 C1682 0.960 . S
H1697 C1683 0.961 . S
H1698 C1683 0.961 . S
H1699 C1683 0.961 . S
H1700 C1684 0.931 . S
H1701 C1689 0.930 . S
H1702 C1690 0.956 . S
H1703 C1690 0.961 . S
H1704 C1690 0.961 . S
H1705 C1691 0.958 . S
H1706 C1691 0.961 . S
H1707 C1691 0.960 . S
C1708 C1709 1.391 . S
C1708 C1710 1.394 . S
C1708 H1724 0.931 . S
C1709 C1708 1.391 . S
C1709 C1713 1.376 . S
C1710 C1708 1.394 . S
C1710 C1711 1.369 . S
C1710 C1714 1.531 . S
C1711 C1710 1.369 . S
C1711 C1712 1.410 . S
C1711 C1719 1.503 . S
C1712 C1711 1.410 . S
C1712 C1713 1.392 . S
C1712 C1715 1.511 . S
C1713 C1709 1.376 . S
C1713 C1712 1.392 . S
C1713 H1725 0.929 . S
C1714 C1710 1.531 . S
C1714 H1726 0.960 . S
C1714 H1727 0.962 . S
C1714 H1728 0.960 . S
C1715 C1712 1.511 . S
C1715 H1729 0.961 . S
C1715 H1730 0.961 . S
C1715 H1731 0.961 . S
C1716 C1717 1.370 . S
C1716 C1718 1.363 . S
C1716 H1732 0.931 . S
C1717 C1716 1.370 . S
C1717 C1721 1.408 . S
C1718 C1716 1.363 . S
C1718 C1719 1.370 . S
C1718 C1722 1.524 . S
C1719 C1711 1.503 . S
C1719 C1718 1.370 . S
C1719 C1720 1.403 . S
C1720 C1719 1.403 . S
C1720 C1721 1.404 . S
C1720 C1723 1.539 . S
C1721 C1717 1.408 . S
C1721 C1720 1.404 . S
C1721 H1733 0.930 . S
C1722 C1718 1.524 . S
C1722 H1734 0.956 . S
C1722 H1735 0.961 . S
C1722 H1736 0.961 . S
C1723 C1720 1.539 . S
C1723 H1737 0.958 . S
C1723 H1738 0.961 . S
C1723 H1739 0.960 . S
H1724 C1708 0.931 . S
H1725 C1713 0.929 . S
H1726 C1714 0.960 . S
H1727 C1714 0.962 . S
H1728 C1714 0.960 . S
H1729 C1715 0.961 . S
H1730 C1715 0.961 . S
H1731 C1715 0.961 . S
H1732 C1716 0.931 . S
H1733 C1721 0.930 . S
H1734 C1722 0.956 . S
H1735 C1722 0.961 . S
H1736 C1722 0.961 . S
H1737 C1723 0.958 . S
H1738 C1723 0.961 . S
H1739 C1723 0.960 . S
C1740 C1741 1.406 . S
C1740 C1742 1.394 1_556 S
C1740 H1756 0.916 1_556 S
C1741 C1740 1.406 . S
C1741 C1745 1.376 . S
C1742 C1740 1.394 1_554 S
C1742 C1743 1.369 1_554 S
C1742 C1746 1.531 . S
C1743 C1742 1.369 1_556 S
C1743 C1744 1.410 . S
C1743 C1751 1.503 . S
C1744 C1743 1.410 . S
C1744 C1745 1.392 . S
C1744 C1747 1.511 . S
C1745 C1741 1.376 . S
C1745 C1744 1.392 . S
C1745 H1757 0.929 . S
C1746 C1742 1.531 . S
C1746 H1758 0.960 . S
C1746 H1759 0.962 . S
C1746 H1760 0.960 . S
C1747 C1744 1.511 . S
C1747 H1761 0.961 . S
C1747 H1762 0.961 . S
C1747 H1763 0.961 . S
C1748 C1749 1.355 1_554 S
C1748 C1750 1.361 1_554 S
C1748 H1764 0.951 . S
C1749 C1748 1.355 1_556 S
C1749 C1753 1.408 . S
C1750 C1748 1.361 1_556 S
C1750 C1751 1.370 . S
C1750 C1754 1.524 1_556 S
C1751 C1743 1.503 . S
C1751 C1750 1.370 . S
C1751 C1752 1.403 . S
C1752 C1751 1.403 . S
C1752 C1753 1.404 . S
C1752 C1755 1.539 . S
C1753 C1749 1.408 . S
C1753 C1752 1.404 . S
C1753 H1765 0.930 . S
C1754 C1750 1.524 1_554 S
C1754 H1766 0.956 . S
C1754 H1767 0.961 1_554 S
C1754 H1768 0.961 . S
C1755 C1752 1.539 . S
C1755 H1769 0.958 . S
C1755 H1770 0.961 . S
C1755 H1771 0.960 . S
H1756 C1740 0.916 1_554 S
H1757 C1745 0.929 . S
H1758 C1746 0.960 . S
H1759 C1746 0.962 . S
H1760 C1746 0.960 . S
H1761 C1747 0.961 . S
H1762 C1747 0.961 . S
H1763 C1747 0.961 . S
H1764 C1748 0.951 . S
H1765 C1753 0.930 . S
H1766 C1754 0.956 . S
H1767 C1754 0.961 1_556 S
H1768 C1754 0.961 . S
H1769 C1755 0.958 . S
H1770 C1755 0.961 . S
H1771 C1755 0.960 . S
C1772 C1773 1.391 . S
C1772 C1774 1.394 . S
C1772 H1788 0.931 . S
C1773 C1772 1.391 . S
C1773 C1777 1.376 . S
C1774 C1772 1.394 . S
C1774 C1775 1.369 . S
C1774 C1778 1.531 . S
C1775 C1774 1.369 . S
C1775 C1776 1.410 . S
C1775 C1783 1.503 . S
C1776 C1775 1.410 . S
C1776 C1777 1.392 . S
C1776 C1779 1.511 . S
C1777 C1773 1.376 . S
C1777 C1776 1.392 . S
C1777 H1789 0.929 . S
C1778 C1774 1.531 . S
C1778 H1790 0.960 . S
C1778 H1791 0.962 . S
C1778 H1792 0.960 . S
C1779 C1776 1.511 . S
C1779 H1793 0.961 . S
C1779 H1794 0.961 . S
C1779 H1795 0.961 . S
C1780 C1781 1.370 . S
C1780 C1782 1.363 . S
C1780 H1796 0.931 . S
C1781 C1780 1.370 . S
C1781 C1785 1.408 . S
C1782 C1780 1.363 . S
C1782 C1783 1.370 . S
C1782 C1786 1.524 . S
C1783 C1775 1.503 . S
C1783 C1782 1.370 . S
C1783 C1784 1.403 . S
C1784 C1783 1.403 . S
C1784 C1785 1.404 . S
C1784 C1787 1.539 . S
C1785 C1781 1.408 . S
C1785 C1784 1.404 . S
C1785 H1797 0.930 . S
C1786 C1782 1.524 . S
C1786 H1798 0.956 . S
C1786 H1799 0.961 . S
C1786 H1800 0.961 . S
C1787 C1784 1.539 . S
C1787 H1801 0.958 . S
C1787 H1802 0.961 . S
C1787 H1803 0.960 . S
H1788 C1772 0.931 . S
H1789 C1777 0.929 . S
H1790 C1778 0.960 . S
H1791 C1778 0.962 . S
H1792 C1778 0.960 . S
H1793 C1779 0.961 . S
H1794 C1779 0.961 . S
H1795 C1779 0.961 . S
H1796 C1780 0.931 . S
H1797 C1785 0.930 . S
H1798 C1786 0.956 . S
H1799 C1786 0.961 . S
H1800 C1786 0.961 . S
H1801 C1787 0.958 . S
H1802 C1787 0.961 . S
H1803 C1787 0.960 . S
C1804 C1805 1.391 . S
C1804 C1806 1.394 . S
C1804 H1820 0.931 . S
C1805 C1804 1.391 . S
C1805 C1809 1.376 . S
C1806 C1804 1.394 . S
C1806 C1807 1.369 . S
C1806 C1810 1.531 . S
C1807 C1806 1.369 . S
C1807 C1808 1.410 . S
C1807 C1815 1.503 . S
C1808 C1807 1.410 . S
C1808 C1809 1.392 . S
C1808 C1811 1.511 . S
C1809 C1805 1.376 . S
C1809 C1808 1.392 . S
C1809 H1821 0.929 . S
C1810 C1806 1.531 . S
C1810 H1822 0.960 . S
C1810 H1823 0.962 . S
C1810 H1824 0.960 . S
C1811 C1808 1.511 . S
C1811 H1825 0.961 . S
C1811 H1826 0.961 . S
C1811 H1827 0.961 . S
C1812 C1813 1.370 . S
C1812 C1814 1.363 . S
C1812 H1828 0.931 1_554 S
C1813 C1812 1.370 . S
C1813 C1817 1.408 . S
C1814 C1812 1.363 . S
C1814 C1815 1.370 . S
C1814 C1818 1.524 . S
C1815 C1807 1.503 . S
C1815 C1814 1.370 . S
C1815 C1816 1.403 . S
C1816 C1815 1.403 . S
C1816 C1817 1.404 . S
C1816 C1819 1.539 . S
C1817 C1813 1.408 . S
C1817 C1816 1.404 . S
C1817 H1829 0.930 . S
C1818 C1814 1.524 . S
C1818 H1830 0.956 . S
C1818 H1831 0.961 . S
C1818 H1832 0.961 1_554 S
C1819 C1816 1.539 . S
C1819 H1833 0.958 . S
C1819 H1834 0.961 . S
C1819 H1835 0.960 . S
H1820 C1804 0.931 . S
H1821 C1809 0.929 . S
H1822 C1810 0.960 . S
H1823 C1810 0.962 . S
H1824 C1810 0.960 . S
H1825 C1811 0.961 . S
H1826 C1811 0.961 . S
H1827 C1811 0.961 . S
H1828 C1812 0.931 1_556 S
H1829 C1817 0.930 . S
H1830 C1818 0.956 . S
H1831 C1818 0.961 . S
H1832 C1818 0.961 1_556 S
H1833 C1819 0.958 . S
H1834 C1819 0.961 . S
H1835 C1819 0.960 . S
C1836 C1837 1.381 1_545 S
C1836 C1838 1.367 1_545 S
C1836 H1852 0.968 . S
C1837 C1836 1.381 1_565 S
C1837 C1841 1.376 . S
C1838 C1836 1.367 1_565 S
C1838 C1839 1.369 . S
C1838 C1842 1.531 . S
C1839 C1838 1.369 . S
C1839 C1840 1.410 . S
C1839 C1847 1.503 . S
C1840 C1839 1.410 . S
C1840 C1841 1.392 . S
C1840 C1843 1.511 . S
C1841 C1837 1.376 . S
C1841 C1840 1.392 . S
C1841 H1853 0.929 . S
C1842 C1838 1.531 . S
C1842 H1854 0.960 . S
C1842 H1855 0.962 . S
C1842 H1856 0.960 1_565 S
C1843 C1840 1.511 . S
C1843 H1857 0.961 . S
C1843 H1858 0.961 . S
C1843 H1859 0.961 . S
C1844 C1845 1.370 . S
C1844 C1846 1.363 . S
C1844 H1860 0.931 1_554 S
C1845 C1844 1.370 . S
C1845 C1849 1.408 . S
C1846 C1844 1.363 . S
C1846 C1847 1.370 . S
C1846 C1850 1.524 1_554 S
C1847 C1839 1.503 . S
C1847 C1846 1.370 . S
C1847 C1848 1.403 . S
C1848 C1847 1.403 . S
C1848 C1849 1.404 . S
C1848 C1851 1.539 . S
C1849 C1845 1.408 . S
C1849 C1848 1.404 . S
C1849 H1861 0.930 . S
C1850 C1846 1.524 1_556 S
C1850 H1862 0.956 . S
C1850 H1863 0.961 . S
C1850 H1864 0.961 . S
C1851 C1848 1.539 . S
C1851 H1865 0.958 . S
C1851 H1866 0.961 . S
C1851 H1867 0.960 . S
H1852 C1836 0.968 . S
H1853 C1841 0.929 . S
H1854 C1842 0.960 . S
H1855 C1842 0.962 . S
H1856 C1842 0.960 1_545 S
H1857 C1843 0.961 . S
H1858 C1843 0.961 . S
H1859 C1843 0.961 . S
H1860 C1844 0.931 1_556 S
H1861 C1849 0.930 . S
H1862 C1850 0.956 . S
H1863 C1850 0.961 . S
H1864 C1850 0.961 . S
H1865 C1851 0.958 . S
H1866 C1851 0.961 . S
H1867 C1851 0.960 . S
C341 C186 1.102 . S
C333 C62 1.121 . S
C373 C199 1.635 . S
C365 C73 1.596 1_455 S
C397 C84 1.431 . S
C405 C212 1.516 . S
C437 C225 1.302 . S
C429 C49 1.090 . S
C469 C233 1.358 . S
C461 C118 1.390 . S
C501 C246 1.539 . S
C493 C137 1.288 . S
C525 C129 1.544 . S
C533 C259 1.546 . S
C565 C272 1.848 . S
C557 C106 1.800 . S
C589 C128 1.702 . S
C597 C290 1.772 . S
C629 C301 1.646 . S
C621 C104 1.473 . S
C653 C115 1.504 . S
C661 C285 1.747 . S
C693 C293 1.704 . S
C685 C139 1.651 . S
C717 C85 1.561 . S
C725 C316 1.560 . S
C749 C52 1.212 . S
C757 C306 1.196 . S
C781 C60 1.020 . S
C789 C311 1.034 . S
C813 C71 1.507 1_655 S
C821 C314 1.585 . S
C845 C40 1.640 . S
C853 C223 1.708 . S
C877 C162 1.069 . S
C885 C215 1.033 . S
C917 C184 1.176 . S
C909 C173 1.186 . S
C949 C189 1.748 . S
C941 C93 1.578 . S
C973 C51 1.469 . S
C981 C236 1.471 . S
C1013 C275 1.515 . S
C1005 C126 1.412 . S
C1045 C228 1.758 . S
C1037 C107 1.764 . S
C1077 C254 1.551 . S
C1069 C140 1.552 . S
C1109 C264 1.098 . S
C1101 C161 1.053 . S
C1133 C172 1.576 . S
C1141 C277 1.637 . S
C1165 C95 1.486 . S
C1173 C238 1.520 . S
C1205 C251 1.300 . S
C1197 C148 1.126 . S
C1229 C41 1.381 . S
C1237 C207 1.363 . S
C1269 C220 1.531 . S
C1261 C5 1.388 . S
C1301 C181 1.558 . S
C1293 C19 1.571 . S
C1333 C194 1.852 . S
C1325 C29 1.804 1_455 S
C1357 C18 1.724 . S
C1365 C303 1.778 . S
C1389 C27 1.430 . S
C1397 C288 1.630 . S
C1421 C38 1.543 . S
C1429 C298 1.740 . S
C1453 C7 1.656 . S
C1461 C280 1.705 . S
C1493 C329 1.572 . S
C1485 C96 1.574 . S
C1525 C319 1.199 . S
C1517 C151 1.219 . S
C1557 C324 1.028 . S
C1549 C159 0.982 . S
C1581 C170 1.510 . S
C1589 C327 1.589 . S
C1613 C117 1.605 . S
C1621 C249 1.702 . S
C1653 C241 1.039 . S
C1645 C63 1.072 . S
C1685 C262 1.170 . S
C1677 C74 1.198 . S
C1717 C267 1.752 . S
C1709 C82 1.521 . S
C1741 C150 1.450 . S
C1749 C210 1.476 1_556 S
C1781 C197 1.517 . S
C1773 C16 1.314 . S
C1805 C30 1.761 . S
C1813 C202 1.757 . S
C1845 C176 1.556 . S
C1837 C8 1.537 1_565 S
