# Generated by pormake.
# Topology myd, (4,6)-cn, num edge types: 1
# Building blocks:
#     Node 0, Type 0, BuildingBlock: NAWXER_clean_sbu_0, # of connection points: 4
#     Node 1, Type 0, BuildingBlock: NAWXER_clean_sbu_0, # of connection points: 4
#     Node 2, Type 0, BuildingBlock: NAWXER_clean_sbu_0, # of connection points: 4
#     Node 3, Type 0, BuildingBlock: NAWXER_clean_sbu_0, # of connection points: 4
#     Node 4, Type 0, BuildingBlock: NAWXER_clean_sbu_0, # of connection points: 4
#     Node 5, Type 0, BuildingBlock: NAWXER_clean_sbu_0, # of connection points: 4
#     Node 6, Type 0, BuildingBlock: NAWXER_clean_sbu_0, # of connection points: 4
#     Node 7, Type 0, BuildingBlock: NAWXER_clean_sbu_0, # of connection points: 4
#     Node 8, Type 0, BuildingBlock: NAWXER_clean_sbu_0, # of connection points: 4
#     Node 9, Type 0, BuildingBlock: NAWXER_clean_sbu_0, # of connection points: 4
#     Node 10, Type 0, BuildingBlock: NAWXER_clean_sbu_0, # of connection points: 4
#     Node 11, Type 0, BuildingBlock: NAWXER_clean_sbu_0, # of connection points: 4
#     Node 12, Type 1, BuildingBlock: FUNLAD_clean_sbu_0, # of connection points: 6
#     Node 13, Type 1, BuildingBlock: FUNLAD_clean_sbu_0, # of connection points: 6
#     Node 14, Type 1, BuildingBlock: FUNLAD_clean_sbu_0, # of connection points: 6
#     Node 15, Type 1, BuildingBlock: FUNLAD_clean_sbu_0, # of connection points: 6
#     Node 16, Type 1, BuildingBlock: FUNLAD_clean_sbu_0, # of connection points: 6
#     Node 17, Type 1, BuildingBlock: FUNLAD_clean_sbu_0, # of connection points: 6
#     Node 18, Type 1, BuildingBlock: FUNLAD_clean_sbu_0, # of connection points: 6
#     Node 19, Type 1, BuildingBlock: FUNLAD_clean_sbu_0, # of connection points: 6
#     Edge 20, Type (0, 1), BuildingBlock: XUDNAN_clean_linker_2, # of connection points: 2
#     Edge 21, Type (0, 1), BuildingBlock: XUDNAN_clean_linker_2, # of connection points: 2
#     Edge 22, Type (0, 1), BuildingBlock: XUDNAN_clean_linker_2, # of connection points: 2
#     Edge 23, Type (0, 1), BuildingBlock: XUDNAN_clean_linker_2, # of connection points: 2
#     Edge 24, Type (0, 1), BuildingBlock: XUDNAN_clean_linker_2, # of connection points: 2
#     Edge 25, Type (0, 1), BuildingBlock: XUDNAN_clean_linker_2, # of connection points: 2
#     Edge 26, Type (0, 1), BuildingBlock: XUDNAN_clean_linker_2, # of connection points: 2
#     Edge 27, Type (0, 1), BuildingBlock: XUDNAN_clean_linker_2, # of connection points: 2
#     Edge 28, Type (0, 1), BuildingBlock: XUDNAN_clean_linker_2, # of connection points: 2
#     Edge 29, Type (0, 1), BuildingBlock: XUDNAN_clean_linker_2, # of connection points: 2
#     Edge 30, Type (0, 1), BuildingBlock: XUDNAN_clean_linker_2, # of connection points: 2
#     Edge 31, Type (0, 1), BuildingBlock: XUDNAN_clean_linker_2, # of connection points: 2
#     Edge 32, Type (0, 1), BuildingBlock: XUDNAN_clean_linker_2, # of connection points: 2
#     Edge 33, Type (0, 1), BuildingBlock: XUDNAN_clean_linker_2, # of connection points: 2
#     Edge 34, Type (0, 1), BuildingBlock: XUDNAN_clean_linker_2, # of connection points: 2
#     Edge 35, Type (0, 1), BuildingBlock: XUDNAN_clean_linker_2, # of connection points: 2
#     Edge 36, Type (0, 1), BuildingBlock: XUDNAN_clean_linker_2, # of connection points: 2
#     Edge 37, Type (0, 1), BuildingBlock: XUDNAN_clean_linker_2, # of connection points: 2
#     Edge 38, Type (0, 1), BuildingBlock: XUDNAN_clean_linker_2, # of connection points: 2
#     Edge 39, Type (0, 1), BuildingBlock: XUDNAN_clean_linker_2, # of connection points: 2
#     Edge 40, Type (0, 1), BuildingBlock: XUDNAN_clean_linker_2, # of connection points: 2
#     Edge 41, Type (0, 1), BuildingBlock: XUDNAN_clean_linker_2, # of connection points: 2
#     Edge 42, Type (0, 1), BuildingBlock: XUDNAN_clean_linker_2, # of connection points: 2
#     Edge 43, Type (0, 1), BuildingBlock: XUDNAN_clean_linker_2, # of connection points: 2
#     Edge 44, Type (0, 1), BuildingBlock: XUDNAN_clean_linker_2, # of connection points: 2
#     Edge 45, Type (0, 1), BuildingBlock: XUDNAN_clean_linker_2, # of connection points: 2
#     Edge 46, Type (0, 1), BuildingBlock: XUDNAN_clean_linker_2, # of connection points: 2
#     Edge 47, Type (0, 1), BuildingBlock: XUDNAN_clean_linker_2, # of connection points: 2
#     Edge 48, Type (0, 1), BuildingBlock: XUDNAN_clean_linker_2, # of connection points: 2
#     Edge 49, Type (0, 1), BuildingBlock: XUDNAN_clean_linker_2, # of connection points: 2
#     Edge 50, Type (0, 1), BuildingBlock: XUDNAN_clean_linker_2, # of connection points: 2
#     Edge 51, Type (0, 1), BuildingBlock: XUDNAN_clean_linker_2, # of connection points: 2
#     Edge 52, Type (0, 1), BuildingBlock: XUDNAN_clean_linker_2, # of connection points: 2
#     Edge 53, Type (0, 1), BuildingBlock: XUDNAN_clean_linker_2, # of connection points: 2
#     Edge 54, Type (0, 1), BuildingBlock: XUDNAN_clean_linker_2, # of connection points: 2
#     Edge 55, Type (0, 1), BuildingBlock: XUDNAN_clean_linker_2, # of connection points: 2
#     Edge 56, Type (0, 1), BuildingBlock: XUDNAN_clean_linker_2, # of connection points: 2
#     Edge 57, Type (0, 1), BuildingBlock: XUDNAN_clean_linker_2, # of connection points: 2
#     Edge 58, Type (0, 1), BuildingBlock: XUDNAN_clean_linker_2, # of connection points: 2
#     Edge 59, Type (0, 1), BuildingBlock: XUDNAN_clean_linker_2, # of connection points: 2
#     Edge 60, Type (0, 1), BuildingBlock: XUDNAN_clean_linker_2, # of connection points: 2
#     Edge 61, Type (0, 1), BuildingBlock: XUDNAN_clean_linker_2, # of connection points: 2
#     Edge 62, Type (0, 1), BuildingBlock: XUDNAN_clean_linker_2, # of connection points: 2
#     Edge 63, Type (0, 1), BuildingBlock: XUDNAN_clean_linker_2, # of connection points: 2
#     Edge 64, Type (0, 1), BuildingBlock: XUDNAN_clean_linker_2, # of connection points: 2
#     Edge 65, Type (0, 1), BuildingBlock: XUDNAN_clean_linker_2, # of connection points: 2
#     Edge 66, Type (0, 1), BuildingBlock: XUDNAN_clean_linker_2, # of connection points: 2
#     Edge 67, Type (0, 1), BuildingBlock: XUDNAN_clean_linker_2, # of connection points: 2
# Relax obj value: 0.292
# Max RMSD: 0.235
# Mean RMSD: 0.147
data_MOF--net-myd--node1-NAWXER_clean_sbu_0--node2-FUNLAD_clean_sbu_0--edge1-XUDNAN_clean_linker_2
_symmetry_space_group_name_H-M    P1
_symmetry_Int_Tables_number       1
_symmetry_cell_setting            triclinic
loop_
_symmetry_equiv_pos_as_xyz
'x, y, z'
_cell_length_a     45.924507
_cell_length_b     45.600975
_cell_length_c     50.294122
_cell_angle_alpha  84.125491
_cell_angle_beta   83.020183
_cell_angle_gamma 88.316427
loop_
_atom_site_label
_atom_site_type_symbol
_atom_site_fract_x
_atom_site_fract_y
_atom_site_fract_z
_atom_type_partial_charge
C0 C 0.04566 0.22287 0.32189 0.0
C1 C 0.02047 0.2968 0.38652 0.0
O2 O 0.06371 0.23278 0.33605 0.0
Zn3 Zn 0.03437 0.25616 0.35716 0.0
O4 O 0.01853 0.23045 0.32562 0.0
Zn5 Zn 0.98911 0.25683 0.34986 0.0
O6 O 0.97557 0.28373 0.32083 0.0
O7 O 0.0227 0.2869 0.32511 0.0
O8 O 0.99828 0.28837 0.37628 0.0
O9 O 0.04481 0.2829 0.3825 0.0
O10 O 0.00993 0.22069 0.37902 0.0
O11 O 0.9643 0.2257 0.36977 0.0
C12 C 1.00049 0.29537 0.31303 0.0
C13 C 0.98387 0.21073 0.38132 0.0
C14 C 0.04044 0.76351 0.20315 0.0
C15 C 0.01418 0.70631 0.13337 0.0
O16 O 0.05823 0.74982 0.18709 0.0
Zn17 Zn 0.02778 0.73577 0.16862 0.0
O18 O 0.01279 0.76351 0.20154 0.0
Zn19 Zn 0.98298 0.74619 0.17742 0.0
O20 O 0.95866 0.72169 0.20503 0.0
O21 O 0.00502 0.70724 0.20186 0.0
O22 O 0.99155 0.71898 0.145 0.0
O23 O 0.03915 0.71002 0.14069 0.0
O24 O 0.01448 0.77851 0.14924 0.0
O25 O 0.96712 0.78315 0.16179 0.0
C26 C 0.97864 0.70461 0.21358 0.0
C27 C 0.99069 0.7941 0.14927 0.0
C28 C 0.34572 0.99998 0.18842 0.0
C29 C 0.26997 0.99142 0.26732 0.0
O30 O 0.33613 0.97625 0.20167 0.0
Zn31 Zn 0.30845 0.99434 0.22847 0.0
O32 O 0.33643 0.02485 0.19605 0.0
Zn33 Zn 0.30531 0.04125 0.22653 0.0
O34 O 0.32959 0.06216 0.24754 0.0
O35 O 0.33557 0.01392 0.25332 0.0
O36 O 0.27544 0.01819 0.25793 0.0
O37 O 0.28387 0.97041 0.25629 0.0
O38 O 0.27751 0.0144 0.20314 0.0
O39 O 0.27931 0.06276 0.20341 0.0
C40 C 0.34145 0.03962 0.25921 0.0
C41 C 0.26905 0.04039 0.19479 0.0
C42 C 0.74009 0.49143 0.19304 0.0
C43 C 0.66886 0.50025 0.27371 0.0
O44 O 0.72902 0.47015 0.20913 0.0
Zn45 Zn 0.70317 0.49398 0.23242 0.0
O46 O 0.73159 0.518 0.1963 0.0
Zn47 Zn 0.70083 0.54103 0.22335 0.0
O48 O 0.72698 0.56643 0.23767 0.0
O49 O 0.73444 0.51856 0.24799 0.0
O50 O 0.67412 0.52482 0.25939 0.0
O51 O 0.68075 0.47664 0.26579 0.0
O52 O 0.67204 0.50928 0.20592 0.0
O53 O 0.67298 0.55789 0.19991 0.0
C54 C 0.74142 0.54537 0.24879 0.0
C55 C 0.66283 0.53375 0.19471 0.0
C56 C 0.22245 0.36244 0.97183 0.0
C57 C 0.2983 0.28551 0.95481 0.0
O58 O 0.23586 0.35654 0.9493 0.0
Zn59 Zn 0.26279 0.32557 0.96183 0.0
O60 O 0.23085 0.34943 0.99353 0.0
Zn61 Zn 0.26313 0.31648 0.00452 0.0
O62 O 0.2938 0.33694 0.02025 0.0
O63 O 0.29733 0.34703 0.97635 0.0
O64 O 0.29074 0.28857 0.97975 0.0
O65 O 0.28733 0.30253 0.93674 0.0
O66 O 0.23316 0.29216 0.98142 0.0
O67 O 0.23724 0.28569 0.02488 0.0
C68 C 0.30754 0.34922 0.99861 0.0
C69 C 0.22533 0.27875 0.00479 0.0
C70 C 0.24327 0.75489 0.50008 0.0
C71 C 0.3243 0.68194 0.51527 0.0
O72 O 0.25887 0.74752 0.47891 0.0
Zn73 Zn 0.29629 0.72164 0.46713 0.0
O74 O 0.25043 0.74515 0.52311 0.0
Zn75 Zn 0.2843 0.71939 0.5106 0.0
O76 O 0.31803 0.74891 0.49519 0.0
O77 O 0.32615 0.75013 0.45088 0.0
O78 O 0.30714 0.69234 0.53412 0.0
O79 O 0.32155 0.69106 0.49071 0.0
O80 O 0.27805 0.69522 0.44615 0.0
O81 O 0.26359 0.68864 0.48999 0.0
C82 C 0.33232 0.75867 0.47281 0.0
C83 C 0.26253 0.68159 0.4661 0.0
C84 C 0.71634 0.85321 0.48068 0.0
C85 C 0.7934 0.77681 0.46917 0.0
O86 O 0.72917 0.84419 0.45913 0.0
Zn87 Zn 0.75669 0.8156 0.47448 0.0
O88 O 0.72539 0.84344 0.50312 0.0
Zn89 Zn 0.75883 0.81275 0.51601 0.0
O90 O 0.78788 0.83624 0.52974 0.0
O91 O 0.79192 0.84092 0.48557 0.0
O92 O 0.78708 0.78221 0.49377 0.0
O93 O 0.78061 0.79128 0.45077 0.0
O94 O 0.72809 0.78242 0.4985 0.0
O95 O 0.73505 0.78536 0.54076 0.0
C96 C 0.8016 0.84646 0.50738 0.0
C97 C 0.72217 0.77354 0.52364 0.0
C98 C 0.48092 0.80482 0.823 0.0
C99 C 0.48383 0.71299 0.88332 0.0
O100 O 0.45856 0.78944 0.83254 0.0
Zn101 Zn 0.47986 0.76196 0.85615 0.0
O102 O 0.50607 0.79773 0.83056 0.0
Zn103 Zn 0.52645 0.7647 0.85628 0.0
O104 O 0.55359 0.74767 0.8284 0.0
O105 O 0.50649 0.74235 0.82482 0.0
O106 O 0.50892 0.72512 0.87771 0.0
O107 O 0.46119 0.72721 0.87657 0.0
O108 O 0.49212 0.79193 0.88292 0.0
O109 O 0.54019 0.78918 0.88181 0.0
C110 C 0.5335 0.73838 0.81613 0.0
C111 C 0.51581 0.80099 0.89025 0.0
C112 C 0.49237 0.19769 0.71592 0.0
C113 C 0.48801 0.28711 0.65084 0.0
O114 O 0.4695 0.21335 0.71217 0.0
Zn115 Zn 0.4869 0.23837 0.68027 0.0
O116 O 0.51583 0.20229 0.69937 0.0
Zn117 Zn 0.5315 0.23265 0.66435 0.0
O118 O 0.56379 0.24994 0.67852 0.0
O119 O 0.51936 0.25894 0.69895 0.0
O120 O 0.51269 0.2733 0.64804 0.0
O121 O 0.46665 0.27445 0.66574 0.0
O122 O 0.49292 0.20793 0.64986 0.0
O123 O 0.54003 0.20869 0.63473 0.0
C124 C 0.54722 0.26197 0.69668 0.0
C125 C 0.5146 0.19892 0.634 0.0
C126 C 0.78035 0.53079 0.69198 0.0
C127 C 0.85012 0.53498 0.75838 0.0
O128 O 0.78685 0.55382 0.70219 0.0
Zn129 Zn 0.81576 0.53481 0.72405 0.0
O130 O 0.7923 0.50591 0.69889 0.0
Zn131 Zn 0.82341 0.48806 0.72474 0.0
O132 O 0.79939 0.46166 0.7515 0.0
O133 O 0.78744 0.50868 0.75367 0.0
O134 O 0.8471 0.50916 0.75125 0.0
O135 O 0.8369 0.5568 0.74695 0.0
O136 O 0.84925 0.52201 0.6935 0.0
O137 O 0.85337 0.47344 0.6978 0.0
C138 C 0.78345 0.48155 0.76237 0.0
C139 C 0.8611 0.49823 0.68535 0.0
C140 C 0.23061 0.97663 0.68569 0.0
C141 C 0.15668 0.98327 0.76482 0.0
O142 O 0.21354 0.95619 0.69667 0.0
Zn143 Zn 0.19086 0.97867 0.72376 0.0
O144 O 0.22779 1.00229 0.69396 0.0
Zn145 Zn 0.20045 0.0247 0.72293 0.0
O146 O 0.22919 0.03768 0.74374 0.0
O147 O 0.22272 0.98936 0.74881 0.0
O148 O 0.16923 0.00759 0.7557 0.0
O149 O 0.16146 0.96065 0.75188 0.0
O150 O 0.16504 0.0074 0.70027 0.0
O151 O 0.17849 0.05323 0.70139 0.0
C152 C 0.23477 0.01224 0.75518 0.0
C153 C 0.16219 0.03496 0.69306 0.0
C154 C 0.7413 0.18658 0.02789 0.0
C155 C 0.81186 0.26247 0.03402 0.0
O156 O 0.74478 0.19925 0.04864 0.0
Zn157 Zn 0.77671 0.22402 0.03203 0.0
O158 O 0.7585 0.19248 0.00604 0.0
Zn159 Zn 0.79465 0.22063 0.99098 0.0
O160 O 0.8284 0.19282 0.98406 0.0
O161 O 0.8121 0.19319 0.027 0.0
O162 O 0.81411 0.25317 0.01065 0.0
O163 O 0.79289 0.25152 0.05264 0.0
O164 O 0.75545 0.25198 1.00294 0.0
O165 O 0.77676 0.24482 0.96236 0.0
C166 C 0.83022 0.18324 0.00851 0.0
C167 C 0.757 0.2577 0.97733 0.0
C168 C 0.12071 0.03455 0.07478 0.0
N169 N 0.0781 0.03374 0.00478 0.0
C170 C 0.10052 0.04521 0.98688 0.0
C171 C 0.10538 0.03659 0.96077 0.0
C172 C 0.0877 0.01508 0.95283 0.0
C173 C 0.06506 1.00319 0.97202 0.0
C174 C 0.0604 0.01311 0.99771 0.0
Zn175 Zn 0.07104 0.04833 0.043 0.0
C176 C 0.04181 1.00084 0.08462 0.0
N177 N 0.05796 0.07755 0.12218 0.0
C178 C 0.08334 0.08892 0.12791 0.0
C179 C 0.03342 0.07684 0.14039 0.0
C180 C 0.03402 0.08791 0.16541 0.0
C181 C 0.0602 0.09947 0.1717 0.0
C182 C 0.08496 0.09986 0.15247 0.0
Zn183 Zn 0.06122 0.06238 0.0845 0.0
O184 O 0.11522 0.03487 0.05054 0.0
C185 C 0.09192 0.10906 0.04366 0.0
O186 O 0.10111 0.0429 0.09241 0.0
H187 H 0.01343 0.06779 0.13553 0.0
H188 H 0.1147 0.06131 0.99268 0.0
H189 H 0.10268 0.08977 0.11331 0.0
O190 O 0.08756 0.09064 0.02729 0.0
O191 O 0.08337 0.10284 0.06853 0.0
H192 H 0.04259 1.0042 0.01201 0.0
O193 O 0.02041 0.08121 0.07608 0.0
O194 O 0.02683 0.06395 0.03635 0.0
O195 O 0.03991 0.02188 0.09965 0.0
O196 O 0.05449 1.00527 0.06055 0.0
C197 C 0.0109 0.07773 0.05385 0.0
H198 H 0.12271 0.04721 0.94697 0.0
H199 H 0.05104 0.98616 0.96752 0.0
H200 H 0.01437 0.08726 0.17971 0.0
H201 H 0.10538 0.10917 0.15606 0.0
C202 C 0.91636 0.48656 0.06175 0.0
N203 N 0.95364 0.49407 0.98027 0.0
C204 C 0.92862 0.48328 0.97323 0.0
C205 C 0.91957 0.49188 0.94798 0.0
C206 C 0.93619 0.51206 0.92968 0.0
C207 C 0.96183 0.52303 0.9375 0.0
C208 C 0.97026 0.5136 0.96293 0.0
Zn209 Zn 0.96557 0.48029 0.01808 0.0
C210 C 0.98931 0.53066 0.04411 0.0
N211 N 0.98905 0.45304 0.09647 0.0
C212 C 0.9689 0.43492 0.11139 0.0
C213 C 0.01373 0.4604 0.10651 0.0
C214 C 0.01913 0.44876 0.13234 0.0
C215 C 0.99914 0.429 0.14776 0.0
C216 C 0.97368 0.42237 0.13686 0.0
Zn217 Zn 0.97989 0.46762 0.05856 0.0
O218 O 0.9214 0.48862 0.03617 0.0
C219 C 0.95394 0.41784 0.03467 0.0
O220 O 0.93729 0.47974 0.07562 0.0
H221 H 0.02934 0.47507 0.09441 0.0
H222 H 0.91548 0.46801 0.98729 0.0
H223 H 0.94913 0.42962 0.10336 0.0
O224 O 0.95285 0.43646 0.0142 0.0
O225 O 0.96481 0.42541 0.05485 0.0
H226 H 0.9901 0.5219 0.96881 0.0
O227 O 0.02242 0.45524 0.04136 0.0
O228 O 0.01037 0.47013 1.00113 0.0
O229 O 0.99432 0.51002 0.06203 0.0
O230 O 0.97747 0.5247 0.02366 0.0
C231 C 0.02941 0.45898 0.01599 0.0
H232 H 0.89944 0.48315 0.94302 0.0
H233 H 0.97545 0.53845 0.92398 0.0
H234 H 0.03884 0.45503 0.13998 0.0
H235 H 0.95784 0.40686 0.14741 0.0
C236 C 0.0287 1.00156 0.42348 0.0
N237 N 0.04887 0.92209 0.3886 0.0
C238 C 0.02461 0.92212 0.37554 0.0
C239 C 0.02591 0.90896 0.35143 0.0
C240 C 0.05251 0.89615 0.34085 0.0
C241 C 0.07696 0.89652 0.35484 0.0
C242 C 0.07464 0.90951 0.3787 0.0
Zn243 Zn 0.05117 0.94106 0.42308 0.0
C244 C 0.10976 0.97121 0.41549 0.0
N245 N 0.06744 0.97792 0.49356 0.0
C246 C 0.04458 0.99293 0.50613 0.0
C247 C 0.09458 0.97743 0.50185 0.0
C248 C 0.09967 0.99287 0.5233 0.0
C249 C 0.07657 0.00868 0.53636 0.0
C250 C 0.04866 0.00846 0.52791 0.0
Zn251 Zn 0.0619 0.95807 0.46012 0.0
O252 O 0.02768 0.98008 0.40929 0.0
C253 C 1.00203 0.92723 0.46539 0.0
O254 O 0.04185 0.9979 0.44443 0.0
H255 H 0.1124 0.96532 0.49161 0.0
H256 H 0.00439 0.93231 0.38377 0.0
H257 H 0.02326 0.99318 0.49905 0.0
O258 O 0.01123 0.92252 0.44131 0.0
O259 O 0.01832 0.94152 0.47834 0.0
H260 H 0.09374 0.90952 0.38928 0.0
O261 O 0.08293 0.91899 0.47571 0.0
O262 O 0.07522 0.902 0.43811 0.0
O263 O 0.10485 0.97318 0.44071 0.0
O264 O 0.09039 0.96018 0.40393 0.0
C265 C 0.08633 0.89852 0.46027 0.0
H266 H 0.00652 0.9089 0.34114 0.0
H267 H 0.09764 0.88625 0.34774 0.0
H268 H 0.12138 0.99242 0.52973 0.0
H269 H 0.0304 0.02033 0.53786 0.0
C270 C 0.93304 0.61136 0.45436 0.0
N271 N 0.01911 0.57653 0.4473 0.0
C272 C 0.0293 0.60388 0.43812 0.0
C273 C 0.05807 0.61128 0.44088 0.0
C274 C 0.07683 0.59014 0.4527 0.0
C275 C 0.06563 0.56198 0.46163 0.0
C276 C 0.03661 0.5558 0.45911 0.0
Zn277 Zn 0.9774 0.56488 0.44248 0.0
C278 C 0.94547 0.53619 0.4965 0.0
N279 N 0.89122 0.53804 0.43431 0.0
C280 C 0.87421 0.561 0.42517 0.0
C281 C 0.88452 0.50971 0.43147 0.0
C282 C 0.86286 0.50409 0.41548 0.0
C283 C 0.84774 0.52788 0.40308 0.0
C284 C 0.85198 0.55631 0.40983 0.0
Zn285 Zn 0.93266 0.54837 0.44128 0.0
O286 O 0.96073 0.60809 0.45006 0.0
C287 C 0.96209 0.57938 0.3876 0.0
O288 O 0.91686 0.58955 0.45348 0.0
H289 H 0.89784 0.4916 0.43914 0.0
H290 H 0.01512 0.62004 0.42864 0.0
H291 H 0.87978 0.58349 0.42671 0.0
O292 O 0.98453 0.58047 0.40003 0.0
O293 O 0.93914 0.56727 0.40019 0.0
H294 H 0.02816 0.53421 0.46642 0.0
O295 O 0.94961 0.5067 0.42975 0.0
O296 O 0.99354 0.52124 0.43423 0.0
O297 O 0.92595 0.53067 0.48189 0.0
O298 O 0.96846 0.54992 0.48549 0.0
C299 C 0.97689 0.50106 0.42946 0.0
H300 H 0.06528 0.63346 0.43407 0.0
H301 H 0.07914 0.54457 0.4703 0.0
H302 H 0.85988 0.48176 0.41087 0.0
H303 H 0.84101 0.57531 0.40046 0.0
C304 C 0.40847 0.97444 0.55656 0.0
N305 N 0.45062 0.99438 0.47704 0.0
C306 C 0.42495 0.98537 0.46978 0.0
C307 C 0.41635 0.99499 0.44464 0.0
C308 C 0.43413 0.0143 0.42652 0.0
C309 C 0.46028 0.0238 0.43463 0.0
C310 C 0.46823 0.0134 0.46008 0.0
Zn311 Zn 0.46119 0.97662 0.51431 0.0
C312 C 0.47998 0.02116 0.54757 0.0
N313 N 0.47893 0.93661 0.5923 0.0
C314 C 0.46483 0.91153 0.60314 0.0
C315 C 0.49579 0.95096 0.60709 0.0
C316 C 0.49784 0.94101 0.63401 0.0
C317 C 0.48345 0.91516 0.64588 0.0
C318 C 0.46731 0.90009 0.62963 0.0
Zn319 Zn 0.47104 0.95521 0.55453 0.0
O320 O 0.41604 0.98386 0.53201 0.0
C321 C 0.45114 0.91193 0.52031 0.0
O322 O 0.42737 0.96169 0.57031 0.0
H323 H 0.50709 0.97074 0.59839 0.0
H324 H 0.41108 0.97039 0.48344 0.0
H325 H 0.45101 0.90049 0.59154 0.0
O326 O 0.44932 0.93544 0.50485 0.0
O327 O 0.4606 0.91297 0.54294 0.0
H328 H 0.48856 0.02028 0.46615 0.0
O329 O 0.51522 0.9483 0.53872 0.0
O330 O 0.50659 0.96723 0.49836 0.0
O331 O 0.4805 0.99838 0.5644 0.0
O332 O 0.47325 0.0186 0.52412 0.0
C333 C 0.52431 0.95464 0.51393 0.0
H334 H 0.39577 0.98747 0.43952 0.0
H335 H 0.47472 0.0386 0.42126 0.0
H336 H 0.51007 0.95415 0.64535 0.0
H337 H 0.45637 0.8797 0.63709 0.0
C338 C 0.61037 0.5296 0.59171 0.0
N339 N 0.57838 0.53245 0.51584 0.0
C340 C 0.60597 0.53694 0.50291 0.0
C341 C 0.61288 0.53095 0.47601 0.0
C342 C 0.59109 0.52064 0.46211 0.0
C343 C 0.56307 0.51544 0.47621 0.0
C344 C 0.55723 0.52135 0.50313 0.0
Zn345 Zn 0.5669 0.54503 0.55437 0.0
C346 C 0.5316 0.49646 0.5912 0.0
N347 N 0.5399 0.57277 0.63282 0.0
C348 C 0.56343 0.58158 0.64395 0.0
C349 C 0.51202 0.57886 0.64373 0.0
C350 C 0.50722 0.59584 0.66564 0.0
C351 C 0.53134 0.60587 0.67669 0.0
C352 C 0.55962 0.59762 0.66622 0.0
Zn353 Zn 0.54931 0.55764 0.59526 0.0
O354 O 0.60797 0.52884 0.56684 0.0
C355 C 0.58596 0.60545 0.56066 0.0
O356 O 0.58867 0.53854 0.60704 0.0
H357 H 0.49354 0.57222 0.63447 0.0
H358 H 0.62249 0.54595 0.5132 0.0
H359 H 0.58545 0.57833 0.63447 0.0
O360 O 0.58747 0.58791 0.54234 0.0
O361 O 0.57126 0.59775 0.5832 0.0
H362 H 0.53548 0.51773 0.51369 0.0
O363 O 0.51005 0.57693 0.58272 0.0
O364 O 0.525 0.56267 0.54289 0.0
O365 O 0.52774 0.51672 0.60707 0.0
O366 O 0.54697 0.50189 0.5683 0.0
C367 C 0.50552 0.57512 0.55854 0.0
H368 H 0.63469 0.53551 0.46588 0.0
H369 H 0.54568 0.50723 0.4664 0.0
H370 H 0.48505 0.60215 0.67312 0.0
H371 H 0.57875 0.60562 0.67372 0.0
C372 C 0.53518 0.50299 0.91633 0.0
N373 N 0.55386 0.42945 0.87276 0.0
C374 C 0.52828 0.42779 0.86192 0.0
C375 C 0.52834 0.41613 0.83718 0.0
C376 C 0.55506 0.40683 0.82356 0.0
C377 C 0.58097 0.40952 0.83495 0.0
C378 C 0.57984 0.42051 0.8597 0.0
Zn379 Zn 0.55743 0.44355 0.90938 0.0
C380 C 0.61659 0.47201 0.90418 0.0
N381 N 0.57601 0.46957 0.98367 0.0
C382 C 0.55443 0.48576 0.99668 0.0
C383 C 0.60194 0.46361 0.99376 0.0
C384 C 0.60695 0.47411 0.01787 0.0
C385 C 0.58519 0.49116 0.03154 0.0
C386 C 0.55866 0.497 0.02069 0.0
Zn387 Zn 0.56934 0.45503 0.94794 0.0
O388 O 0.5327 0.48299 0.90088 0.0
C389 C 0.50946 0.4253 0.95213 0.0
O390 O 0.54996 0.49742 0.93615 0.0
H391 H 0.61886 0.45087 0.983 0.0
H392 H 0.50786 0.4348 0.87272 0.0
H393 H 0.53393 0.49011 0.98836 0.0
O394 O 0.5179 0.42235 0.92745 0.0
O395 O 0.52618 0.4385 0.96543 0.0
H396 H 0.59993 0.42103 0.86875 0.0
O397 O 0.58968 0.41363 0.95887 0.0
O398 O 0.58336 0.40409 0.91828 0.0
O399 O 0.61231 0.46987 0.92977 0.0
O400 O 0.59606 0.46532 0.8914 0.0
C401 C 0.59456 0.39695 0.94002 0.0
H402 H 0.50784 0.41395 0.829 0.0
H403 H 0.60185 0.40176 0.82549 0.0
H404 H 0.62783 0.4694 0.02551 0.0
H405 H 0.54128 0.50984 0.03079 0.0
C406 C 0.4324 0.1152 0.95608 0.0
N407 N 0.51596 0.07746 0.96385 0.0
C408 C 0.52885 0.10344 0.95397 0.0
C409 C 0.55408 0.11206 0.96389 0.0
C410 C 0.56592 0.09388 0.98433 0.0
C411 C 0.55253 0.06692 0.9937 0.0
C412 C 0.52754 0.05905 0.98306 0.0
Zn413 Zn 0.47706 0.0663 0.95208 0.0
C414 C 0.43714 0.03998 1.00171 0.0
N415 N 0.3947 0.04271 0.93195 0.0
C416 C 0.37952 0.06499 0.9194 0.0
C417 C 0.3861 0.01425 0.93339 0.0
C418 C 0.36285 0.0071 0.91989 0.0
C419 C 0.34799 0.0296 0.90538 0.0
C420 C 0.35561 0.05897 0.90657 0.0
Zn421 Zn 0.43362 0.05291 0.94379 0.0
O422 O 0.45989 0.11063 0.95591 0.0
C423 C 0.47284 0.08111 0.89437 0.0
O424 O 0.41618 0.09401 0.95336 0.0
H425 H 0.39828 0.99685 0.94363 0.0
H426 H 0.51919 0.1178 0.93881 0.0
H427 H 0.38678 0.08746 0.91792 0.0
O428 O 0.49191 0.07963 0.91085 0.0
O429 O 0.4471 0.07192 0.90272 0.0
H430 H 0.51703 0.03844 0.99058 0.0
O431 O 0.45179 0.01094 0.93462 0.0
O432 O 0.49371 0.02214 0.94725 0.0
O433 O 0.4201 0.03527 0.9845 0.0
O434 O 0.46122 0.053 0.99354 0.0
C435 C 0.47778 1.00339 0.93899 0.0
H436 H 0.56365 0.13315 0.95628 0.0
H437 H 0.56121 0.05212 0.00919 0.0
H438 H 0.35788 0.9841 0.91952 0.0
H439 H 0.34424 0.07716 0.89644 0.0
H440 H 0.01643 0.17676 0.41521 0.0
H441 H 0.94289 0.17302 0.36924 0.0
H442 H 0.94456 0.11853 0.37652 0.0
H443 H 0.0562 0.11884 0.38998 0.0
H444 H 0.0698 0.1044 0.42093 0.0
H445 H 0.06026 0.14291 0.41554 0.0
H446 H 0.0242 0.13888 0.4595 0.0
H447 H 0.03409 0.10043 0.46541 0.0
H448 H 0.99615 0.11133 0.46449 0.0
H449 H 0.95998 0.0639 0.38275 0.0
H450 H 0.98282 0.0147 0.39331 0.0
H451 H 0.04452 0.05484 0.43681 0.0
C452 C 0.99996 0.16455 0.4075 0.0
C453 C 0.97935 0.17928 0.39184 0.0
C454 C 0.95855 0.16236 0.3817 0.0
C455 C 0.95954 0.13132 0.38551 0.0
C456 C 0.98112 0.11749 0.39993 0.0
C457 C 1.00045 0.13366 0.41136 0.0
C458 C 0.02245 0.11373 0.42491 0.0
C459 C 0.05403 0.12037 0.41206 0.0
C460 C 0.019 0.11624 0.45539 0.0
C461 C 0.013 0.08385 0.41879 0.0
C462 C 0.98925 0.08634 0.40421 0.0
C463 C 0.97818 0.0617 0.39465 0.0
C464 C 0.99141 0.03387 0.40055 0.0
C465 C 0.01523 0.03085 0.41611 0.0
C466 C 0.02601 0.0563 0.42525 0.0
H467 H 0.97274 0.33436 0.39291 0.0
H468 H 0.0642 0.3249 0.4066 0.0
H469 H 0.0628 0.37569 0.41999 0.0
H470 H 0.97644 0.40749 0.36349 0.0
H471 H 0.94066 0.41857 0.37843 0.0
H472 H 0.94794 0.38066 0.37238 0.0
H473 H 0.93184 0.36395 0.42268 0.0
H474 H 0.92412 0.4018 0.42882 0.0
H475 H 0.94886 0.37981 0.44821 0.0
H476 H 0.0523 0.42938 0.42835 0.0
H477 H 0.03281 0.47975 0.43402 0.0
H478 H 0.94815 0.45394 0.41488 0.0
C479 C 0.99236 0.34262 0.39931 0.0
C480 C 0.01858 0.32533 0.39886 0.0
C481 C 0.04378 0.33743 0.40699 0.0
C482 C 0.04322 0.36638 0.41452 0.0
C483 C 0.01727 0.38305 0.41392 0.0
C484 C 0.99219 0.37144 0.40682 0.0
C485 C 0.96739 0.39422 0.40683 0.0
C486 C 0.95754 0.4006 0.3786 0.0
C487 C 0.94153 0.38435 0.42789 0.0
C488 C 0.98246 0.4206 0.41479 0.0
C489 C 0.01123 0.41374 0.41876 0.0
C490 C 0.02973 0.43484 0.4255 0.0
C491 C 0.01847 0.4635 0.42856 0.0
C492 C 0.9889 0.47097 0.42494 0.0
C493 C 0.9708 0.44906 0.41789 0.0
H494 H 0.03492 0.824 0.11531 0.0
H495 H 0.94886 0.83682 0.1592 0.0
H496 H 0.95229 0.8904 0.14668 0.0
H497 H 0.06783 0.88781 0.13201 0.0
H498 H 0.08837 0.89668 0.09943 0.0
H499 H 0.07895 0.85901 0.11069 0.0
H500 H 0.05357 0.85545 0.06793 0.0
H501 H 0.06314 0.89306 0.05641 0.0
H502 H 0.02539 0.88206 0.05976 0.0
H503 H 0.96727 0.94325 0.1338 0.0
H504 H 0.98989 0.99102 0.11624 0.0
H505 H 0.06427 0.94491 0.07691 0.0
C506 C 0.01657 0.83802 0.12189 0.0
C507 C 0.99153 0.82592 0.13828 0.0
C508 C 0.96816 0.84525 0.14651 0.0
C509 C 0.96997 0.87586 0.13961 0.0
C510 C 0.9951 0.88709 0.12397 0.0
C511 C 0.01775 0.86875 0.1147 0.0
C512 C 0.04226 0.88667 0.09804 0.0
C513 C 0.07105 0.88227 0.11081 0.0
C514 C 0.04632 0.87884 0.0688 0.0
C515 C 0.03007 0.91791 0.09982 0.0
C516 C 1.00297 0.9176 0.11518 0.0
C517 C 0.98821 0.9437 0.12132 0.0
C518 C 1.00128 0.97077 0.11136 0.0
C519 C 0.02861 0.97176 0.09492 0.0
C520 C 0.04307 0.94487 0.08899 0.0
H521 H 0.04245 0.65353 0.12768 0.0
H522 H 0.97677 0.71193 0.09477 0.0
H523 H 0.96799 0.67533 0.06355 0.0
H524 H 0.07048 0.61913 0.06583 0.0
H525 H 0.07358 0.58316 0.08389 0.0
H526 H 0.07809 0.61576 0.10035 0.0
H527 H 0.03722 0.5983 0.13839 0.0
H528 H 0.03265 0.56571 0.1221 0.0
H529 H 1.00163 0.5898 0.12983 0.0
H530 H 0.96448 0.63094 0.03775 0.0
H531 H 0.96207 0.58074 0.02361 0.0
H532 H 0.02708 0.55008 0.07631 0.0
C533 C 0.02684 0.6589 0.11334 0.0
C534 C 0.01072 0.68575 0.11313 0.0
C535 C 0.98958 0.69159 0.09493 0.0
C536 C 0.98457 0.67101 0.07708 0.0
C537 C 1.00055 0.64449 0.07803 0.0
C538 C 0.02102 0.63827 0.09594 0.0
C539 C 0.03257 0.60684 0.09537 0.0
C540 C 0.06565 0.6062 0.08578 0.0
C541 C 0.02559 0.58913 0.12306 0.0
C542 C 0.01509 0.59617 0.07468 0.0
C543 C 0.99725 0.61838 0.06441 0.0
C544 C 0.97849 0.61344 0.04555 0.0
C545 C 0.97735 0.58489 0.03754 0.0
C546 C 0.99441 0.56154 0.04882 0.0
C547 C 0.01388 0.56752 0.06724 0.0
H548 H 0.33089 0.99518 0.13817 0.0
H549 H 0.40477 0.00745 0.18152 0.0
H550 H 0.43696 0.01583 0.13825 0.0
H551 H 0.37204 0.95892 0.08162 0.0
H552 H 0.35059 0.97765 0.05712 0.0
H553 H 0.33436 0.9692 0.09143 0.0
H554 H 0.32019 0.02429 0.09414 0.0
H555 H 0.33657 0.03296 0.05997 0.0
H556 H 0.34829 0.05169 0.08659 0.0
H557 H 0.45994 0.02716 0.09038 0.0
H558 H 0.47264 0.03967 0.04159 0.0
H559 H 0.38371 0.02056 0.02852 0.0
C560 C 0.35409 0.99862 0.13844 0.0
C561 C 0.36571 0.99977 0.16309 0.0
C562 C 0.39578 1.00568 0.16282 0.0
C563 C 0.41412 0.0106 0.13834 0.0
C564 C 0.40196 0.00975 0.11429 0.0
C565 C 0.37266 1.00374 0.11412 0.0
C566 C 0.36469 1.00611 0.08549 0.0
C567 C 0.35484 0.97619 0.07851 0.0
C568 C 0.34104 0.03019 0.08131 0.0
C569 C 0.39395 0.01484 0.06959 0.0
C570 C 0.41515 0.01667 0.08663 0.0
C571 C 0.44358 0.02548 0.07686 0.0
C572 C 0.45056 0.03265 0.04903 0.0
C573 C 0.42927 0.03102 0.03104 0.0
C574 C 0.40061 0.02175 0.0416 0.0
H575 H 0.64998 0.48583 0.17071 0.0
H576 H 0.63365 0.58018 0.16927 0.0
H577 H 0.6073 0.57882 0.12925 0.0
H578 H 0.66774 0.4856 0.10227 0.0
H579 H 0.65164 0.4505 0.1 0.0
H580 H 0.66473 0.45808 0.13082 0.0
H581 H 0.61353 0.44655 0.15707 0.0
H582 H 0.6003 0.4386 0.12632 0.0
H583 H 0.5815 0.46571 0.14616 0.0
H584 H 0.58663 0.56739 0.08689 0.0
H585 H 0.57497 0.54741 0.0455 0.0
H586 H 0.6073 0.46122 0.07459 0.0
C587 C 0.64016 0.50615 0.16254 0.0
C588 C 0.64355 0.53308 0.17331 0.0
C589 C 0.63106 0.55926 0.16148 0.0
C590 C 0.61605 0.55867 0.13879 0.0
C591 C 0.61389 0.53178 0.12823 0.0
C592 C 0.62561 0.50601 0.13982 0.0
C593 C 0.62313 0.4805 0.1233 0.0
C594 C 0.65362 0.46795 0.11352 0.0
C595 C 0.60343 0.45642 0.13916 0.0
C596 C 0.60865 0.49598 0.10025 0.0
C597 C 0.60304 0.52543 0.10357 0.0
C598 C 0.59065 0.54431 0.08424 0.0
C599 C 0.58407 0.53279 0.06087 0.0
C600 C 0.59031 0.50282 0.05693 0.0
C601 C 0.60246 0.48425 0.07705 0.0
H602 H 0.35809 0.99535 0.2953 0.0
H603 H 0.36531 0.08968 0.27382 0.0
H604 H 0.39279 0.09339 0.31283 0.0
H605 H 0.34438 0.99891 0.36525 0.0
H606 H 0.36449 0.96543 0.37382 0.0
H607 H 0.34792 0.97011 0.34299 0.0
H608 H 0.39834 0.96034 0.31583 0.0
H609 H 0.41507 0.95555 0.34662 0.0
H610 H 0.42929 0.98231 0.31965 0.0
H611 H 0.41807 0.08645 0.35596 0.0
H612 H 0.43643 0.07007 0.39951 0.0
H613 H 0.41113 0.98059 0.39232 0.0
C614 C 0.36586 0.01679 0.29841 0.0
C615 C 0.3598 0.04221 0.28124 0.0
C616 C 0.36986 0.06987 0.28655 0.0
C617 C 0.38551 0.07216 0.30866 0.0
C618 C 0.39077 0.04662 0.32535 0.0
C619 C 0.38114 0.01949 0.32044 0.0
C620 C 0.38787 0.99559 0.34213 0.0
C621 C 0.35948 0.98171 0.35691 0.0
C622 C 0.4089 0.97206 0.33034 0.0
C623 C 0.40268 0.01345 0.36022 0.0
C624 C 0.40445 0.0428 0.35018 0.0
C625 C 0.41688 0.06348 0.36387 0.0
C626 C 0.42739 0.05396 0.38854 0.0
C627 C 0.42515 0.02407 0.39943 0.0
C628 C 0.41291 1.00365 0.38475 0.0
H629 H 0.68234 0.47838 0.32381 0.0
H630 H 0.61471 0.52511 0.28257 0.0
H631 H 0.58602 0.5323 0.3264 0.0
H632 H 0.63388 0.44329 0.38237 0.0
H633 H 0.65947 0.44883 0.40581 0.0
H634 H 0.67273 0.44373 0.37133 0.0
H635 H 0.70045 0.4927 0.36709 0.0
H636 H 0.68701 0.49847 0.40131 0.0
H637 H 0.68059 0.52622 0.37437 0.0
H638 H 0.56589 0.53678 0.37439 0.0
H639 H 0.55657 0.54038 0.42332 0.0
H640 H 0.63864 0.49375 0.43424 0.0
C641 C 0.66103 0.48924 0.32413 0.0
C642 C 0.65023 0.50048 0.29986 0.0
C643 C 0.62297 0.51584 0.30096 0.0
C644 C 0.60659 0.52005 0.32575 0.0
C645 C 0.618 0.50923 0.34936 0.0
C646 C 0.64465 0.49423 0.34883 0.0
C647 C 0.65306 0.48728 0.37716 0.0
C648 C 0.65489 0.45379 0.38461 0.0
C649 C 0.68199 0.50207 0.38015 0.0
C650 C 0.62722 0.50105 0.39359 0.0
C651 C 0.60705 0.51314 0.37713 0.0
C652 C 0.58145 0.52723 0.38749 0.0
C653 C 0.57629 0.52908 0.41535 0.0
C654 C 0.59677 0.51726 0.4327 0.0
C655 C 0.6226 0.50307 0.42153 0.0
H656 H 0.18473 0.37402 0.01668 0.0
H657 H 0.19871 0.39443 0.92995 0.0
H658 H 0.15207 0.4231 0.9318 0.0
H659 H 0.10819 0.36342 0.02152 0.0
H660 H 0.09972 0.37963 0.05282 0.0
H661 H 0.1351 0.36253 0.04488 0.0
H662 H 0.16052 0.41083 0.05134 0.0
H663 H 0.12518 0.42806 0.05942 0.0
H664 H 0.15083 0.4448 0.03258 0.0
H665 H 0.10181 0.44746 0.94307 0.0
H666 H 0.05347 0.46572 0.96279 0.0
H667 H 0.07261 0.4294 0.04209 0.0
C668 C 0.1783 0.38489 0.99808 0.0
C669 C 0.1957 0.38203 0.97315 0.0
C670 C 0.18602 0.39634 0.94932 0.0
C671 C 0.15946 0.41269 0.95017 0.0
C672 C 0.14266 0.41466 0.97502 0.0
C673 C 0.15182 0.40124 0.99856 0.0
C674 C 0.12928 0.40577 0.02256 0.0
C675 C 0.11737 0.37607 0.03624 0.0
C676 C 0.14223 0.42342 0.04266 0.0
C677 C 0.10587 0.4236 0.00888 0.0
C678 C 0.11398 0.42859 0.98145 0.0
C679 C 0.09542 0.44384 0.96456 0.0
C680 C 0.06793 0.45414 0.97596 0.0
C681 C 0.0591 0.44922 0.00404 0.0
C682 C 0.07861 0.43383 0.02058 0.0
H683 H 0.22545 0.6819 0.42708 0.0
H684 H 0.25063 0.63183 0.49896 0.0
H685 H 0.20801 0.59987 0.5006 0.0
H686 H 0.1519 0.68422 0.4483 0.0
H687 H 0.13891 0.68032 0.41645 0.0
H688 H 0.17426 0.69596 0.41726 0.0
H689 H 0.19916 0.65669 0.38789 0.0
H690 H 0.16376 0.64124 0.38646 0.0
H691 H 0.193 0.61813 0.39828 0.0
H692 H 0.15914 0.57965 0.49962 0.0
H693 H 0.10871 0.56841 0.49354 0.0
H694 H 0.11485 0.62926 0.42065 0.0
C695 C 0.22264 0.66334 0.44236 0.0
C696 C 0.24148 0.65893 0.46267 0.0
C697 C 0.23655 0.63527 0.48309 0.0
C698 C 0.21239 0.61704 0.4842 0.0
C699 C 0.19338 0.62273 0.46469 0.0
C700 C 0.19837 0.64494 0.44386 0.0
C701 C 0.17289 0.64797 0.42709 0.0
C702 C 0.15866 0.67895 0.42731 0.0
C703 C 0.1828 0.64055 0.39821 0.0
C704 C 0.15254 0.62471 0.44234 0.0
C705 C 0.16493 0.61041 0.46386 0.0
C706 C 0.14953 0.58995 0.48231 0.0
C707 C 0.12078 0.58359 0.47854 0.0
C708 C 0.1076 0.59734 0.45624 0.0
C709 C 0.12397 0.61819 0.43791 0.0
H710 H 0.84366 0.85772 0.46379 0.0
H711 H 0.82477 0.86956 0.54867 0.0
H712 H 0.87343 0.89204 0.54743 0.0
H713 H 0.91894 0.83705 0.46562 0.0
H714 H 0.9311 0.85557 0.43293 0.0
H715 H 0.89423 0.84209 0.44021 0.0
H716 H 0.87362 0.89435 0.42704 0.0
H717 H 0.91044 0.90795 0.41958 0.0
H718 H 0.88441 0.92509 0.44326 0.0
H719 H 0.92554 0.91291 0.53666 0.0
H720 H 0.97543 0.92932 0.51758 0.0
H721 H 0.9604 0.90205 0.44028 0.0
C722 C 0.8495 0.86543 0.48207 0.0
C723 C 0.83004 0.8621 0.5063 0.0
C724 C 0.83905 0.87199 0.52982 0.0
C725 C 0.86674 0.88479 0.5293 0.0
C726 C 0.88549 0.88741 0.50516 0.0
C727 C 0.87717 0.87795 0.48198 0.0
C728 C 0.90167 0.88222 0.45884 0.0
C729 C 0.91209 0.85246 0.44882 0.0
C730 C 0.89195 0.90368 0.43582 0.0
C731 C 0.92509 0.89561 0.47252 0.0
C732 C 0.91538 0.89858 0.49922 0.0
C733 C 0.93328 0.91061 0.51577 0.0
C734 C 0.96168 0.91987 0.50476 0.0
C735 C 0.97214 0.91694 0.47743 0.0
C736 C 0.95336 0.90453 0.46129 0.0
H737 H 0.35637 0.67325 0.55928 0.0
H738 H 0.34745 0.64204 0.48204 0.0
H739 H 0.39132 0.61039 0.48567 0.0
H740 H 0.43379 0.67735 0.54967 0.0
H741 H 0.43936 0.66472 0.58386 0.0
H742 H 0.40553 0.6832 0.57688 0.0
H743 H 0.37603 0.63871 0.60124 0.0
H744 H 0.40979 0.62019 0.60853 0.0
H745 H 0.38441 0.60235 0.59102 0.0
H746 H 0.43832 0.58529 0.49517 0.0
H747 H 0.48425 0.56582 0.51163 0.0
H748 H 0.46381 0.61182 0.58323 0.0
C749 C 0.36326 0.65916 0.54352 0.0
C750 C 0.34825 0.66008 0.52041 0.0
C751 C 0.35846 0.6418 0.49993 0.0
C752 C 0.38344 0.62367 0.50178 0.0
C753 C 0.39823 0.62386 0.5243 0.0
C754 C 0.38847 0.64084 0.54499 0.0
C755 C 0.40947 0.63765 0.56637 0.0
C756 C 0.42282 0.66751 0.56936 0.0
C757 C 0.39399 0.6239 0.59339 0.0
C758 C 0.43254 0.61661 0.55422 0.0
C759 C 0.42554 0.60899 0.52994 0.0
C760 C 0.4439 0.59082 0.51432 0.0
C761 C 0.47006 0.57994 0.5238 0.0
C762 C 0.47772 0.58709 0.54878 0.0
C763 C 0.45853 0.60568 0.56416 0.0
H764 H 0.52525 0.67891 0.9078 0.0
H765 H 0.44062 0.67422 0.87857 0.0
H766 H 0.44361 0.61979 0.88518 0.0
H767 H 0.55888 0.61984 0.87706 0.0
H768 H 0.57904 0.60602 0.90444 0.0
H769 H 0.56913 0.64453 0.90001 0.0
H770 H 0.54264 0.64153 0.94869 0.0
H771 H 0.5529 0.60308 0.95348 0.0
H772 H 0.51487 0.61425 0.95929 0.0
H773 H 0.45947 0.56564 0.88876 0.0
H774 H 0.48332 0.51641 0.8957 0.0
H775 H 0.5557 0.55629 0.92577 0.0
C776 C 0.50694 0.66648 0.9035 0.0
C777 C 0.4826 0.68096 0.89279 0.0
C778 C 0.4593 0.66376 0.88713 0.0
C779 C 0.46093 0.63276 0.89062 0.0
C780 C 0.48574 0.6192 0.90027 0.0
C781 C 0.50799 0.63554 0.90728 0.0
C782 C 0.5326 0.61567 0.91668 0.0
C783 C 0.56162 0.6219 0.89846 0.0
C784 C 0.53594 0.61882 0.9463 0.0
C785 C 0.52104 0.58561 0.91335 0.0
C786 C 0.49412 0.58809 0.90358 0.0
C787 C 0.48024 0.56344 0.89695 0.0
C788 C 0.49401 0.53559 0.90078 0.0
C789 C 0.52114 0.5325 0.91157 0.0
C790 C 0.53468 0.55792 0.91796 0.0
H791 H 0.4692 0.83917 0.89855 0.0
H792 H 0.56062 0.82633 0.91141 0.0
H793 H 0.56046 0.876 0.9273 0.0
H794 H 0.47539 0.91265 0.87149 0.0
H795 H 0.4398 0.9243 0.8864 0.0
H796 H 0.44605 0.8866 0.87926 0.0
H797 H 0.42896 0.86851 0.92909 0.0
H798 H 0.42228 0.90618 0.93633 0.0
H799 H 0.44615 0.88265 0.95541 0.0
H800 H 0.55091 0.92917 0.93869 0.0
H801 H 0.53272 0.97984 0.94536 0.0
H802 H 0.44807 0.95773 0.92347 0.0
C803 C 0.48903 0.84635 0.9054 0.0
C804 C 0.51485 0.8285 0.90405 0.0
C805 C 0.54047 0.83933 0.91254 0.0
C806 C 0.5406 0.8676 0.92152 0.0
C807 C 0.51497 0.88491 0.9218 0.0
C808 C 0.48962 0.87455 0.91409 0.0
C809 C 0.46551 0.89802 0.91451 0.0
C810 C 0.45615 0.90585 0.88624 0.0
C811 C 0.43917 0.88825 0.93507 0.0
C812 C 0.48125 0.92336 0.92347 0.0
C813 C 0.50971 0.9154 0.92773 0.0
C814 C 0.52859 0.93549 0.93556 0.0
C815 C 0.51807 0.9643 0.93924 0.0
C816 C 0.48895 0.97293 0.93495 0.0
C817 C 0.47044 0.95198 0.92697 0.0
H818 H 0.52885 0.31933 0.61548 0.0
H819 H 0.4442 0.32783 0.66302 0.0
H820 H 0.44512 0.38181 0.6512 0.0
H821 H 0.56018 0.38289 0.63312 0.0
H822 H 0.57973 0.39327 0.60037 0.0
H823 H 0.57152 0.35515 0.61073 0.0
H824 H 0.54511 0.35232 0.56845 0.0
H825 H 0.55346 0.39041 0.55781 0.0
H826 H 0.51601 0.37839 0.56166 0.0
H827 H 0.45811 0.43575 0.63849 0.0
H828 H 0.47955 0.4844 0.62227 0.0
H829 H 0.55436 0.44134 0.58039 0.0
C830 C 0.51015 0.33241 0.62295 0.0
C831 C 0.4863 0.31901 0.64014 0.0
C832 C 0.46255 0.33725 0.64963 0.0
C833 C 0.46297 0.36807 0.64312 0.0
C834 C 0.48713 0.38056 0.62672 0.0
C835 C 0.51006 0.36322 0.61636 0.0
C836 C 0.53374 0.38221 0.59969 0.0
C837 C 0.56302 0.37813 0.6117 0.0
C838 C 0.53728 0.37542 0.57015 0.0
C839 C 0.52082 0.41299 0.60261 0.0
C840 C 0.494 0.41152 0.61848 0.0
C841 C 0.47881 0.43705 0.62565 0.0
C842 C 0.49122 0.46465 0.61639 0.0
C843 C 0.51842 0.46684 0.59969 0.0
C844 C 0.53322 0.4405 0.59259 0.0
H845 H 0.48528 0.14713 0.64675 0.0
H846 H 0.53575 0.19899 0.58097 0.0
H847 H 0.53071 0.15996 0.55103 0.0
H848 H 0.5191 0.07824 0.63132 0.0
H849 H 0.48635 0.05707 0.64129 0.0
H850 H 0.49145 0.09017 0.65674 0.0
H851 H 0.44186 0.11124 0.64294 0.0
H852 H 0.43656 0.07814 0.62751 0.0
H853 H 0.43551 0.11357 0.6081 0.0
H854 H 0.51914 0.11547 0.52813 0.0
H855 H 0.50665 0.06682 0.51521 0.0
H856 H 0.4686 0.0416 0.59727 0.0
C857 C 0.49482 0.15038 0.62591 0.0
C858 C 0.51041 0.17623 0.61589 0.0
C859 C 0.52347 0.17943 0.58883 0.0
C860 C 0.52068 0.15742 0.57173 0.0
C861 C 0.50534 0.13203 0.58222 0.0
C862 C 0.493 0.12821 0.6088 0.0
C863 C 0.47967 0.09791 0.61563 0.0
C864 C 0.49507 0.07978 0.63754 0.0
C865 C 0.44643 0.10038 0.62403 0.0
C866 C 0.48629 0.08535 0.58872 0.0
C867 C 0.50065 0.10557 0.5696 0.0
C868 C 0.50814 0.09937 0.54301 0.0
C869 C 0.50092 0.07174 0.53583 0.0
C870 C 0.48698 0.0504 0.55529 0.0
C871 C 0.47965 0.05737 0.58207 0.0
H872 H 0.8517 0.48068 0.63684 0.0
H873 H 0.91495 0.52323 0.67658 0.0
H874 H 0.94592 0.53366 0.63285 0.0
H875 H 0.90368 0.4494 0.58418 0.0
H876 H 0.87935 0.45751 0.55873 0.0
H877 H 0.86451 0.44971 0.59352 0.0
H878 H 0.83563 0.49939 0.5912 0.0
H879 H 0.85047 0.50738 0.5565 0.0
H880 H 0.85513 0.53311 0.58052 0.0
H881 H 0.96834 0.54234 0.58413 0.0
H882 H 0.97913 0.55084 0.53463 0.0
H883 H 0.89974 0.50508 0.52612 0.0
C884 C 0.8726 0.49124 0.63636 0.0
C885 C 0.88157 0.50027 0.66013 0.0
C886 C 0.90821 0.51546 0.65865 0.0
C887 C 0.92584 0.52152 0.6339 0.0
C888 C 0.91626 0.51271 0.61067 0.0
C889 C 0.89017 0.49799 0.61168 0.0
C890 C 0.88341 0.49357 0.58355 0.0
C891 C 0.8827 0.46058 0.57978 0.0
C892 C 0.85445 0.5093 0.5776 0.0
C893 C 0.90959 0.50829 0.56655 0.0
C894 C 0.92847 0.51886 0.58258 0.0
C895 C 0.95377 0.53397 0.57141 0.0
C896 C 0.95975 0.53867 0.5432 0.0
C897 C 0.94041 0.52861 0.5263 0.0
C898 C 0.91514 0.51295 0.53834 0.0
H899 H 0.11568 1.00488 0.68263 0.0
H900 H 0.16487 0.08453 0.6569 0.0
H901 H 0.13932 0.09208 0.61612 0.0
H902 H 0.12365 0.97782 0.62382 0.0
H903 H 0.08799 0.96166 0.6259 0.0
H904 H 0.10332 0.96698 0.65614 0.0
H905 H 0.05755 0.99777 0.67256 0.0
H906 H 0.04173 0.99218 0.64239 0.0
H907 H 0.04593 0.02903 0.65122 0.0
H908 H 0.11839 0.08385 0.57384 0.0
H909 H 0.10151 0.06222 0.53522 0.0
H910 H 0.0655 0.98845 0.58878 0.0
C911 C 0.12018 0.02458 0.66896 0.0
C912 C 0.14216 0.04416 0.67285 0.0
C913 C 0.14782 0.06948 0.65442 0.0
C914 C 0.13342 0.07388 0.63119 0.0
C915 C 0.11311 0.05308 0.62711 0.0
C916 C 0.10605 0.02921 0.64583 0.0
C917 C 0.0869 0.00772 0.63526 0.0
C918 C 0.10135 0.97675 0.63527 0.0
C919 C 0.0562 1.00663 0.65131 0.0
C920 C 0.08582 0.02214 0.60699 0.0
C921 C 0.10057 0.04859 0.60276 0.0
C922 C 0.10591 0.06378 0.57716 0.0
C923 C 0.09637 0.05138 0.55538 0.0
C924 C 0.08173 0.0242 0.55948 0.0
C925 C 0.07581 0.00979 0.58556 0.0
H926 H 0.86629 0.4912 0.79515 0.0
H927 H 0.87 0.58593 0.77502 0.0
H928 H 0.89452 0.59045 0.81571 0.0
H929 H 0.84834 0.49355 0.8653 0.0
H930 H 0.86943 0.46088 0.87436 0.0
H931 H 0.85442 0.46513 0.84272 0.0
H932 H 0.90629 0.45774 0.81736 0.0
H933 H 0.92147 0.45335 0.84894 0.0
H934 H 0.93571 0.48095 0.82273 0.0
H935 H 0.9179 0.58413 0.85978 0.0
H936 H 0.93569 0.56811 0.9036 0.0
H937 H 0.9147 0.47773 0.89488 0.0
C938 C 0.87266 0.51292 0.79896 0.0
C939 C 0.86654 0.53821 0.78163 0.0
C940 C 0.87465 0.56623 0.78785 0.0
C941 C 0.8886 0.56898 0.81092 0.0
C942 C 0.89402 0.54353 0.82769 0.0
C943 C 0.88615 0.51606 0.82197 0.0
C944 C 0.89283 0.49226 0.8438 0.0
C945 C 0.86457 0.47708 0.85734 0.0
C946 C 0.91542 0.46975 0.83253 0.0
C947 C 0.9057 0.51054 0.86284 0.0
C948 C 0.90648 0.54004 0.85316 0.0
C949 C 0.91742 0.56107 0.86745 0.0
C950 C 0.92762 0.55174 0.89228 0.0
C951 C 0.92657 0.52166 0.90277 0.0
C952 C 0.91555 0.50091 0.88762 0.0
H953 H 0.1781 0.99905 0.80862 0.0
H954 H 0.10075 0.96357 0.7831 0.0
H955 H 0.07453 0.96606 0.82921 0.0
H956 H 0.17004 0.95932 0.87643 0.0
H957 H 0.1842 0.98958 0.8911 0.0
H958 H 0.1964 0.98366 0.85662 0.0
H959 H 0.18084 0.03715 0.84153 0.0
H960 H 0.16817 0.04322 0.87584 0.0
H961 H 0.14355 0.04936 0.85043 0.0
H962 H 0.05577 0.97822 0.87721 0.0
H963 H 0.04735 0.99338 0.92308 0.0
H964 H 0.13958 0.01521 0.91792 0.0
C965 C 0.15573 0.99142 0.81287 0.0
C966 C 0.14127 0.98121 0.79246 0.0
C967 C 0.11213 0.97132 0.79861 0.0
C968 C 0.09714 0.97278 0.82467 0.0
C969 C 0.11195 0.98354 0.8443 0.0
C970 C 0.14086 0.99206 0.83875 0.0
C971 C 0.15207 1.00272 0.86311 0.0
C972 C 0.17715 0.98261 0.87237 0.0
C973 C 0.16171 0.03503 0.85737 0.0
C974 C 0.12472 0.99971 0.88322 0.0
C975 C 0.10175 0.98881 0.87203 0.0
C976 C 0.07385 0.98609 0.88632 0.0
C977 C 0.06936 0.99463 0.91265 0.0
C978 C 0.09274 1.00542 0.92484 0.0
C979 C 0.12086 0.00756 0.90964 0.0
H980 H 0.67744 0.86807 0.52359 0.0
H981 H 0.69468 0.88284 0.43657 0.0
H982 H 0.64909 0.91301 0.43553 0.0
H983 H 0.60075 0.85947 0.52638 0.0
H984 H 0.59171 0.8776 0.5566 0.0
H985 H 0.62674 0.85918 0.55055 0.0
H986 H 0.6531 0.9074 0.55563 0.0
H987 H 0.6181 0.92597 0.56171 0.0
H988 H 0.64509 0.94068 0.53501 0.0
H989 H 0.59958 0.93998 0.44409 0.0
H990 H 0.55095 0.95991 0.46139 0.0
H991 H 0.56625 0.92685 0.54262 0.0
C992 C 0.67194 0.87802 0.50431 0.0
C993 C 0.68995 0.87318 0.48016 0.0
C994 C 0.68146 0.88626 0.45538 0.0
C995 C 0.65555 0.90349 0.45459 0.0
C996 C 0.63815 0.90751 0.47874 0.0
C997 C 0.64606 0.89511 0.50315 0.0
C998 C 0.62291 0.9015 0.52613 0.0
C999 C 0.60975 0.87273 0.54077 0.0
C1000 C 0.63556 0.91999 0.54578 0.0
C1001 C 0.6006 0.91919 0.51089 0.0
C1002 C 0.6098 0.92263 0.48359 0.0
C1003 C 0.59232 0.93753 0.46548 0.0
C1004 C 0.56469 0.94886 0.47549 0.0
C1005 C 0.55462 0.94517 0.5034 0.0
C1006 C 0.57318 0.93034 0.52119 0.0
H1007 H 0.71934 0.17036 0.98382 0.0
H1008 H 0.70496 0.16108 0.07115 0.0
H1009 H 0.65975 0.13325 0.06961 0.0
H1010 H 0.64601 0.18458 0.97421 0.0
H1011 H 0.6473 0.16517 0.94461 0.0
H1012 H 0.68006 0.1812 0.95269 0.0
H1013 H 0.70688 0.13041 0.9521 0.0
H1014 H 0.67425 0.11421 0.9438 0.0
H1015 H 0.69098 0.09899 0.97291 0.0
H1016 H 0.61471 0.10876 0.05811 0.0
H1017 H 0.57286 0.09111 0.03783 0.0
H1018 H 0.61657 0.1184 0.95812 0.0
C1019 C 0.7071 0.16194 1.00269 0.0
C1020 C 0.71585 0.16756 0.02765 0.0
C1021 C 0.69875 0.15681 0.05183 0.0
C1022 C 0.6731 0.14098 0.05113 0.0
C1023 C 0.66486 0.13632 0.02611 0.0
C1024 C 0.68138 0.14654 1.00234 0.0
C1025 C 0.66681 0.14064 0.97805 0.0
C1026 C 0.65962 0.16962 0.96142 0.0
C1027 C 0.68587 0.11982 0.9607 0.0
C1028 C 0.63927 0.12573 0.99181 0.0
C1029 C 0.63866 0.12311 0.01951 0.0
C1030 C 0.61507 0.11052 0.03645 0.0
C1031 C 0.59148 0.10048 0.02475 0.0
C1032 C 0.59153 0.10337 0.99641 0.0
C1033 C 0.61585 0.11606 0.97983 0.0
H1034 H 0.34737 0.36345 0.95432 0.0
H1035 H 0.33511 0.36512 0.04104 0.0
H1036 H 0.3852 0.38503 0.03891 0.0
H1037 H 0.42219 0.33917 0.94962 0.0
H1038 H 0.43262 0.36072 0.91799 0.0
H1039 H 0.39551 0.34819 0.92644 0.0
H1040 H 0.37605 0.40198 0.91933 0.0
H1041 H 0.4131 0.41466 0.91073 0.0
H1042 H 0.38957 0.42979 0.9375 0.0
H1043 H 0.43779 0.40505 0.02652 0.0
H1044 H 0.48693 0.4218 0.00572 0.0
H1045 H 0.46475 0.40462 0.92741 0.0
C1046 C 0.35492 0.36835 0.97293 0.0
C1047 C 0.33691 0.36302 0.99789 0.0
C1048 C 0.34822 0.3692 0.02168 0.0
C1049 C 0.37673 0.38049 0.02062 0.0
C1050 C 0.39392 0.38521 0.99565 0.0
C1051 C 0.38334 0.37919 0.97227 0.0
C1052 C 0.4063 0.38509 0.94803 0.0
C1053 C 0.41464 0.3566 0.93474 0.0
C1054 C 0.39561 0.40932 0.9277 0.0
C1055 C 0.43154 0.3956 0.96126 0.0
C1056 C 0.42402 0.39566 0.98873 0.0
C1057 C 0.4438 0.40494 0.00504 0.0
C1058 C 0.47176 0.41443 0.99302 0.0
C1059 C 0.48001 0.41444 0.96489 0.0
C1060 C 0.45942 0.40473 0.94898 0.0
H1061 H 0.88444 0.16857 0.98055 0.0
H1062 H 0.82848 0.14933 0.05604 0.0
H1063 H 0.86744 0.11821 0.07393 0.0
H1064 H 0.92092 0.09405 0.98066 0.0
H1065 H 0.95619 0.10873 0.96685 0.0
H1066 H 0.92306 0.12778 0.95848 0.0
H1067 H 0.94074 0.17524 0.97524 0.0
H1068 H 0.97381 0.15631 0.98381 0.0
H1069 H 0.95041 0.17407 0.00903 0.0
H1070 H 0.91317 0.0941 0.0862 0.0
H1071 H 0.96311 0.07465 0.09091 0.0
H1072 H 0.99092 0.1058 0.00753 0.0
C1073 C 0.88022 0.15722 1.00058 0.0
C1074 C 0.85321 0.16155 0.01684 0.0
C1075 C 0.84885 0.14663 0.04314 0.0
C1076 C 0.87089 0.12876 0.05356 0.0
C1077 C 0.8974 0.1256 0.03747 0.0
C1078 C 0.90222 0.13901 0.01143 0.0
C1079 C 0.93348 0.13256 0.99914 0.0
C1080 C 0.9334 0.11472 0.97483 0.0
C1081 C 0.95062 0.16126 0.99135 0.0
C1082 C 0.94545 0.11411 0.02257 0.0
C1083 C 0.92408 0.11052 0.04443 0.0
C1084 C 0.92997 0.09627 0.06909 0.0
C1085 C 0.95844 0.08539 0.07161 0.0
C1086 C 0.98077 0.08836 0.04956 0.0
C1087 C 0.97408 0.10266 0.02457 0.0
H1088 H 0.01388 0.20947 0.28281 0.0
H1089 H 0.0972 0.19003 0.31388 0.0
H1090 H 0.1091 0.1539 0.28019 0.0
H1091 H 0.99826 0.13626 0.27029 0.0
H1092 H 0.98212 0.14794 0.23993 0.0
H1093 H 0.98049 0.17196 0.26638 0.0
H1094 H 0.00539 0.21333 0.23282 0.0
H1095 H 0.00676 0.18961 0.20619 0.0
H1096 H 0.03994 0.20572 0.21342 0.0
H1097 H 0.11098 0.11944 0.24291 0.0
H1098 H 0.1048 0.09275 0.20367 0.0
H1099 H 0.02016 0.13607 0.19755 0.0
C1100 C 0.0347 0.19766 0.28268 0.0
C1101 C 0.05461 0.20248 0.30111 0.0
C1102 C 0.08168 0.18675 0.29993 0.0
C1103 C 0.08849 0.16609 0.28097 0.0
C1104 C 0.06802 0.16162 0.2634 0.0
C1105 C 0.04179 0.17723 0.26403 0.0
C1106 C 0.02366 0.16915 0.24274 0.0
C1107 C 0.99441 0.15551 0.25561 0.0
C1108 C 0.01866 0.19605 0.2226 0.0
C1109 C 0.04376 0.14646 0.22979 0.0
C1110 C 0.06917 0.14225 0.24206 0.0
C1111 C 0.09121 0.12269 0.23318 0.0
C1112 C 0.0875 0.10767 0.21083 0.0
C1113 C 0.062 0.11237 0.19746 0.0
C1114 C 0.03967 0.13164 0.20751 0.0
H1115 H 0.95922 0.32845 0.28632 0.0
H1116 H 0.05299 0.31236 0.28617 0.0
H1117 H 0.06274 0.34811 0.24649 0.0
H1118 H 0.9589 0.33516 0.2157 0.0
H1119 H 0.93192 0.36464 0.21471 0.0
H1120 H 0.93192 0.33897 0.24438 0.0
H1121 H 0.93555 0.38234 0.27329 0.0
H1122 H 0.93562 0.40815 0.24365 0.0
H1123 H 0.96498 0.40814 0.26439 0.0
H1124 H 0.06282 0.38162 0.20479 0.0
H1125 H 0.05288 0.41173 0.16345 0.0
H1126 H 0.95953 0.41041 0.19185 0.0
C1127 C 0.98175 0.33266 0.27802 0.0
C1128 C 0.00527 0.3176 0.28944 0.0
C1129 C 0.03452 0.3237 0.27796 0.0
C1130 C 0.04039 0.34404 0.25538 0.0
C1131 C 0.01684 0.35848 0.24458 0.0
C1132 C 0.98811 0.35332 0.25551 0.0
C1133 C 0.96699 0.37139 0.23925 0.0
C1134 C 0.94622 0.35134 0.22784 0.0
C1135 C 0.94977 0.39384 0.25616 0.0
C1136 C 0.98839 0.38663 0.21713 0.0
C1137 C 0.01701 0.37893 0.22071 0.0
C1138 C 0.04053 0.38838 0.20197 0.0
C1139 C 0.03463 0.40576 0.17857 0.0
C1140 C 0.00541 0.41375 0.17416 0.0
C1141 C 0.98214 0.40457 0.19422 0.0
H1142 H 0.01052 0.77528 0.25046 0.0
H1143 H 0.09259 0.79242 0.19944 0.0
H1144 H 0.10451 0.82961 0.22902 0.0
H1145 H 0.99273 0.84773 0.26203 0.0
H1146 H 0.97733 0.83951 0.29662 0.0
H1147 H 0.97662 0.81233 0.27317 0.0
H1148 H 1.00389 0.77442 0.30379 0.0
H1149 H 1.00393 0.80118 0.32775 0.0
H1150 H 0.03797 0.7844 0.31458 0.0
H1151 H 0.10473 0.8679 0.26192 0.0
H1152 H 0.09672 0.89989 0.29905 0.0
H1153 H 0.01435 0.85666 0.32801 0.0
C1154 C 0.03128 0.78647 0.24579 0.0
C1155 C 0.0507 0.78118 0.22279 0.0
C1156 C 0.07765 0.79608 0.21722 0.0
C1157 C 0.08442 0.81734 0.23373 0.0
C1158 C 0.06407 0.82294 0.25566 0.0
C1159 C 0.03834 0.80748 0.26199 0.0
C1160 C 0.01981 0.81784 0.28626 0.0
C1161 C 0.98986 0.83008 0.27907 0.0
C1162 C 0.01621 0.79299 0.30947 0.0
C1163 C 0.03887 0.84202 0.29244 0.0
C1164 C 0.06426 0.84471 0.27457 0.0
C1165 C 0.0851 0.86577 0.27619 0.0
C1166 C 0.08031 0.88385 0.29724 0.0
C1167 C 0.05494 0.88061 0.31634 0.0
C1168 C 0.03373 0.85986 0.3135 0.0
H1169 H 0.01506 0.68308 0.25124 0.0
H1170 H 0.92642 0.67759 0.23084 0.0
H1171 H 0.91403 0.64285 0.27144 0.0
H1172 H 0.02315 0.60685 0.28028 0.0
H1173 H 0.04267 0.61656 0.30704 0.0
H1174 H 0.04541 0.63931 0.27539 0.0
H1175 H 0.02809 0.68485 0.30027 0.0
H1176 H 0.02535 0.66226 0.33198 0.0
H1177 H 0.99397 0.68352 0.32223 0.0
H1178 H 0.9109 0.6092 0.31433 0.0
H1179 H 0.91564 0.58192 0.35837 0.0
H1180 H 0.00565 0.61071 0.35348 0.0
C1181 C 0.99317 0.67419 0.25513 0.0
C1182 C 0.97177 0.68278 0.23758 0.0
C1183 C 0.94319 0.67126 0.24383 0.0
C1184 C 0.93598 0.65143 0.26684 0.0
C1185 C 0.95746 0.64354 0.28377 0.0
C1186 C 0.98541 0.65475 0.27841 0.0
C1187 C 1.00373 0.6441 0.30093 0.0
C1188 C 0.03032 0.6256 0.29027 0.0
C1189 C 0.01335 0.67024 0.31467 0.0
C1190 C 0.98173 0.62512 0.31977 0.0
C1191 C 0.95531 0.62493 0.30922 0.0
C1192 C 0.93149 0.60923 0.32276 0.0
C1193 C 0.93448 0.59368 0.34787 0.0
C1194 C 0.96106 0.59396 0.35964 0.0
C1195 C 0.98509 0.6098 0.34512 0.0
H1196 H 0.22094 0.00822 0.19109 0.0
H1197 H 0.27481 0.079 0.14931 0.0
H1198 H 0.24691 0.07939 0.11001 0.0
H1199 H 0.21065 0.96948 0.13437 0.0
H1200 H 0.1727 0.96145 0.14569 0.0
H1201 H 0.19784 0.9656 0.16987 0.0
H1202 H 0.16449 1.00657 0.19036 0.0
H1203 H 0.13888 1.00174 0.16686 0.0
H1204 H 0.15342 0.0377 0.16854 0.0
H1205 H 0.21301 0.07131 0.07503 0.0
H1206 H 0.16984 0.06328 0.05168 0.0
H1207 H 0.13676 1.00002 0.11773 0.0
C1208 C 0.22669 0.02391 0.17369 0.0
C1209 C 0.24991 0.04362 0.17311 0.0
C1210 C 0.2568 0.06398 0.15017 0.0
C1211 C 0.24136 0.06405 0.12767 0.0
C1212 C 0.21889 0.04386 0.12864 0.0
C1213 C 0.21108 0.02474 0.1514 0.0
C1214 C 0.18446 0.00712 0.14842 0.0
C1215 C 0.19188 0.97395 0.14966 0.0
C1216 C 0.1588 0.01369 0.1698 0.0
C1217 C 0.17842 0.01927 0.12043 0.0
C1218 C 0.19889 0.03995 0.10904 0.0
C1219 C 0.19701 0.05499 0.08367 0.0
C1220 C 0.1727 0.04995 0.07031 0.0
C1221 C 0.15048 0.03048 0.08264 0.0
C1222 C 0.15397 0.0143 0.10754 0.0
H1223 H 0.79678 0.50872 0.18765 0.0
H1224 H 0.73494 0.46369 0.14827 0.0
H1225 H 0.7725 0.46032 0.10866 0.0
H1226 H 0.83241 0.55065 0.12962 0.0
H1227 H 0.86859 0.54623 0.14007 0.0
H1228 H 0.83682 0.54544 0.16494 0.0
H1229 H 0.85302 0.49419 0.18592 0.0
H1230 H 0.88509 0.49504 0.16141 0.0
H1231 H 0.86038 0.46453 0.16481 0.0
H1232 H 0.81663 0.46473 0.07222 0.0
H1233 H 0.86554 0.46898 0.0453 0.0
H1234 H 0.8994 0.50739 0.11043 0.0
C1235 C 0.79135 0.49789 0.17074 0.0
C1236 C 0.76317 0.48631 0.17085 0.0
C1237 C 0.75661 0.47235 0.14852 0.0
C1238 C 0.7777 0.4706 0.12592 0.0
C1239 C 0.80531 0.48257 0.12624 0.0
C1240 C 0.81233 0.49535 0.14837 0.0
C1241 C 0.8439 0.50532 0.14428 0.0
C1242 C 0.84551 0.5389 0.14475 0.0
C1243 C 0.86164 0.48877 0.16535 0.0
C1244 C 0.85359 0.49631 0.11635 0.0
C1245 C 0.8309 0.48374 0.10602 0.0
C1246 C 0.83456 0.47436 0.08023 0.0
C1247 C 0.86232 0.47712 0.06497 0.0
C1248 C 0.88617 0.48861 0.07575 0.0
C1249 C 0.88153 0.49858 0.10166 0.0
H1250 H 0.21193 0.00757 0.27676 0.0
H1251 H 0.28296 0.96299 0.31474 0.0
H1252 H 0.2511 0.95761 0.35842 0.0
H1253 H 0.17973 0.04642 0.33205 0.0
H1254 H 0.14239 0.04043 0.32657 0.0
H1255 H 0.17109 0.04208 0.29867 0.0
H1256 H 0.15705 0.99059 0.28716 0.0
H1257 H 0.12796 0.98911 0.31466 0.0
H1258 H 0.15526 0.95994 0.31293 0.0
H1259 H 0.21128 0.95883 0.39865 0.0
H1260 H 0.16481 0.95808 0.4296 0.0
H1261 H 0.11889 0.9978 0.36427 0.0
C1262 C 0.22062 0.99655 0.2943 0.0
C1263 C 0.24982 0.98564 0.29251 0.0
C1264 C 0.26052 0.97121 0.31575 0.0
C1265 C 0.24267 0.96835 0.34066 0.0
C1266 C 0.21398 0.9796 0.3419 0.0
C1267 C 0.20282 0.99275 0.31915 0.0
C1268 C 0.17065 1.00096 0.32539 0.0
C1269 C 0.16569 0.03447 0.32037 0.0
C1270 C 0.15162 0.98414 0.30907 0.0
C1271 C 0.16547 0.99056 0.35519 0.0
C1272 C 0.19085 0.97887 0.36453 0.0
C1273 C 0.19129 0.9679 0.39149 0.0
C1274 C 0.1649 0.96787 0.40904 0.0
C1275 C 0.13839 0.97819 0.39941 0.0
C1276 C 0.13894 0.99011 0.37225 0.0
H1277 H 0.73746 0.57197 0.29482 0.0
H1278 H 0.79705 0.52596 0.23911 0.0
H1279 H 0.83133 0.5166 0.27331 0.0
H1280 H 0.79568 0.60331 0.33139 0.0
H1281 H 0.77265 0.59756 0.36308 0.0
H1282 H 0.75633 0.60608 0.33232 0.0
H1283 H 0.72532 0.5589 0.34405 0.0
H1284 H 0.74244 0.54943 0.37418 0.0
H1285 H 0.74371 0.52366 0.34916 0.0
H1286 H 0.85412 0.50443 0.3152 0.0
H1287 H 0.87015 0.49897 0.36046 0.0
H1288 H 0.79531 0.552 0.38978 0.0
C1289 C 0.75858 0.5616 0.28942 0.0
C1290 C 0.76527 0.55037 0.26431 0.0
C1291 C 0.79221 0.53536 0.25813 0.0
C1292 C 0.81157 0.52967 0.27749 0.0
C1293 C 0.80348 0.53919 0.3028 0.0
C1294 C 0.77808 0.55558 0.30866 0.0
C1295 C 0.77339 0.56084 0.33813 0.0
C1296 C 0.7746 0.59391 0.34142 0.0
C1297 C 0.74449 0.54742 0.3522 0.0
C1298 C 0.79964 0.54419 0.34796 0.0
C1299 C 0.81658 0.53178 0.32727 0.0
C1300 C 0.84131 0.51439 0.33154 0.0
C1301 C 0.8499 0.51093 0.35743 0.0
C1302 C 0.8338 0.52487 0.37861 0.0
C1303 C 0.80791 0.54103 0.37392 0.0
H1304 H 0.20276 0.24149 0.05003 0.0
H1305 H 0.19702 0.26217 0.9645 0.0
H1306 H 0.16147 0.22291 0.96598 0.0
H1307 H 0.19788 0.16277 0.05044 0.0
H1308 H 0.1755 0.15742 0.08251 0.0
H1309 H 0.2002 0.18795 0.07547 0.0
H1310 H 0.15695 0.22422 0.08631 0.0
H1311 H 0.13212 0.19377 0.09335 0.0
H1312 H 0.12506 0.22386 0.06869 0.0
H1313 H 0.12854 0.18012 0.97523 0.0
H1314 H 0.09881 0.13657 0.99261 0.0
H1315 H 0.12313 0.14303 0.07253 0.0
C1316 C 0.19386 0.23787 0.0317 0.0
C1317 C 0.20293 0.25517 0.00714 0.0
C1318 C 0.19069 0.24946 0.98361 0.0
C1319 C 0.17033 0.2271 0.98418 0.0
C1320 C 0.16202 0.21042 0.00847 0.0
C1321 C 0.17319 0.21546 0.03188 0.0
C1322 C 0.16055 0.19368 0.05513 0.0
C1323 C 0.18499 0.17431 0.06656 0.0
C1324 C 0.1426 0.20985 0.07717 0.0
C1325 C 0.14084 0.17568 0.04095 0.0
C1326 C 0.14217 0.18578 0.01401 0.0
C1327 C 0.12704 0.17216 0.99637 0.0
C1328 C 0.11021 0.14739 0.00642 0.0
C1329 C 0.1083 0.13654 0.03395 0.0
C1330 C 0.12369 0.15112 0.05147 0.0
H1331 H 0.21995 0.8064 0.52088 0.0
H1332 H 0.20342 0.73929 0.46965 0.0
H1333 H 0.15936 0.76671 0.45708 0.0
H1334 H 0.14125 0.82473 0.54283 0.0
H1335 H 0.14788 0.86364 0.54153 0.0
H1336 H 0.17637 0.83723 0.54928 0.0
H1337 H 0.21153 0.86241 0.50997 0.0
H1338 H 0.18313 0.88877 0.50205 0.0
H1339 H 0.20056 0.86688 0.47654 0.0
H1340 H 0.12025 0.80306 0.44614 0.0
H1341 H 0.08743 0.84607 0.43836 0.0
H1342 H 0.1276 0.89088 0.49638 0.0
C1343 C 0.2065 0.79719 0.50766 0.0
C1344 C 0.2149 0.77047 0.4965 0.0
C1345 C 0.19728 0.75957 0.47857 0.0
C1346 C 0.17216 0.775 0.4713 0.0
C1347 C 0.16477 0.80155 0.482 0.0
C1348 C 0.18122 0.81262 0.4999 0.0
C1349 C 0.16923 0.84278 0.50678 0.0
C1350 C 0.15802 0.84204 0.5369 0.0
C1351 C 0.1925 0.86661 0.49833 0.0
C1352 C 0.14398 0.847 0.48961 0.0
C1353 C 0.14181 0.82279 0.47562 0.0
C1354 C 0.12143 0.82198 0.45729 0.0
C1355 C 0.10288 0.84658 0.45295 0.0
C1356 C 0.10458 0.87178 0.46694 0.0
C1357 C 0.1253 0.87175 0.48575 0.0
H1358 H 0.79889 0.72028 0.49168 0.0
H1359 H 0.84159 0.7857 0.43228 0.0
H1360 H 0.88442 0.75182 0.42482 0.0
H1361 H 0.86233 0.69034 0.52005 0.0
H1362 H 0.85048 0.65267 0.5233 0.0
H1363 H 0.82372 0.68233 0.52463 0.0
H1364 H 0.79995 0.66352 0.48551 0.0
H1365 H 0.82627 0.63349 0.48444 0.0
H1366 H 0.8225 0.65788 0.45446 0.0
H1367 H 0.92367 0.71129 0.42586 0.0
H1368 H 0.95212 0.66427 0.42874 0.0
H1369 H 0.88153 0.62402 0.48433 0.0
C1370 C 0.81722 0.72728 0.47697 0.0
C1371 C 0.81715 0.75544 0.46249 0.0
C1372 C 0.84128 0.764 0.44331 0.0
C1373 C 0.86575 0.74505 0.43918 0.0
C1374 C 0.86538 0.71747 0.45406 0.0
C1375 C 0.84139 0.70833 0.47206 0.0
C1376 C 0.8456 0.67692 0.48417 0.0
C1377 C 0.84553 0.6755 0.51486 0.0
C1378 C 0.8222 0.65677 0.47669 0.0
C1379 C 0.87578 0.66984 0.47036 0.0
C1380 C 0.88712 0.69369 0.4535 0.0
C1381 C 0.91492 0.69244 0.43889 0.0
C1382 C 0.93105 0.66578 0.44085 0.0
C1383 C 0.91904 0.64067 0.45684 0.0
C1384 C 0.89127 0.64297 0.47206 0.0
H1385 H 0.34337 0.8164 0.45354 0.0
H1386 H 0.37859 0.73958 0.49763 0.0
H1387 H 0.41714 0.76981 0.51075 0.0
H1388 H 0.41633 0.85457 0.4318 0.0
H1389 H 0.39975 0.89027 0.4365 0.0
H1390 H 0.37863 0.86165 0.42614 0.0
H1391 H 0.33923 0.86776 0.46675 0.0
H1392 H 0.36038 0.89596 0.47747 0.0
H1393 H 0.34986 0.86394 0.50031 0.0
H1394 H 0.44543 0.80922 0.52613 0.0
H1395 H 0.46497 0.85514 0.53898 0.0
H1396 H 0.41275 0.90646 0.484 0.0
C1397 C 0.36013 0.80588 0.46481 0.0
C1398 C 0.35863 0.7757 0.47412 0.0
C1399 C 0.37994 0.76266 0.48994 0.0
C1400 C 0.40182 0.77964 0.49754 0.0
C1401 C 0.40214 0.80964 0.48906 0.0
C1402 C 0.38222 0.82265 0.47264 0.0
C1403 C 0.38563 0.85581 0.46866 0.0
C1404 C 0.3957 0.86618 0.43901 0.0
C1405 C 0.35708 0.87178 0.47892 0.0
C1406 C 0.40964 0.85937 0.48621 0.0
C1407 C 0.41897 0.83249 0.49771 0.0
C1408 C 0.43891 0.8304 0.51671 0.0
C1409 C 0.44974 0.85653 0.52404 0.0
C1410 C 0.4407 0.88424 0.51222 0.0
C1411 C 0.4206 0.88553 0.49292 0.0
H1412 H 0.55981 0.68503 0.80601 0.0
H1413 H 0.51739 0.76239 0.76937 0.0
H1414 H 0.51252 0.7366 0.72944 0.0
H1415 H 0.59927 0.66104 0.74093 0.0
H1416 H 0.59382 0.62261 0.75237 0.0
H1417 H 0.59784 0.64864 0.77627 0.0
H1418 H 0.54846 0.63155 0.803 0.0
H1419 H 0.5438 0.60613 0.77878 0.0
H1420 H 0.5158 0.6336 0.78627 0.0
H1421 H 0.50494 0.7007 0.69737 0.0
H1422 H 0.5037 0.65891 0.66992 0.0
H1423 H 0.55276 0.60468 0.72555 0.0
C1424 C 0.55091 0.69687 0.78894 0.0
C1425 C 0.53961 0.72586 0.79028 0.0
C1426 C 0.52676 0.74039 0.76825 0.0
C1427 C 0.52365 0.72583 0.74565 0.0
C1428 C 0.53365 0.69677 0.74536 0.0
C1429 C 0.54777 0.6826 0.766 0.0
C1430 C 0.55511 0.65081 0.76097 0.0
C1431 C 0.5885 0.64547 0.75742 0.0
C1432 C 0.53988 0.62926 0.78361 0.0
C1433 C 0.54224 0.64928 0.73475 0.0
C1434 C 0.52974 0.676 0.72631 0.0
C1435 C 0.51508 0.67976 0.70348 0.0
C1436 C 0.5141 0.65584 0.68824 0.0
C1437 C 0.52795 0.62867 0.69577 0.0
C1438 C 0.54195 0.62528 0.71946 0.0
H1439 H 0.44195 0.8144 0.78493 0.0
H1440 H 0.5184 0.85022 0.81224 0.0
H1441 H 0.52484 0.88499 0.77145 0.0
H1442 H 0.46915 0.81513 0.71845 0.0
H1443 H 0.436 0.82662 0.70418 0.0
H1444 H 0.43385 0.80736 0.7374 0.0
H1445 H 0.40269 0.85006 0.75709 0.0
H1446 H 0.40414 0.86924 0.7238 0.0
H1447 H 0.41611 0.88718 0.75079 0.0
H1448 H 0.52939 0.90801 0.72477 0.0
H1449 H 0.52715 0.92462 0.67735 0.0
H1450 H 0.44418 0.87953 0.68096 0.0
C1451 C 0.45929 0.83037 0.78276 0.0
C1452 C 0.47972 0.82954 0.80171 0.0
C1453 C 0.50257 0.85033 0.79791 0.0
C1454 C 0.50644 0.87023 0.7748 0.0
C1455 C 0.48697 0.8695 0.7558 0.0
C1456 C 0.46335 0.85075 0.75973 0.0
C1457 C 0.44684 0.85355 0.73518 0.0
C1458 C 0.44645 0.8239 0.7231 0.0
C1459 C 0.41559 0.86574 0.74213 0.0
C1460 C 0.46565 0.87579 0.71663 0.0
C1461 C 0.48868 0.88455 0.72898 0.0
C1462 C 0.51078 0.90233 0.71514 0.0
C1463 C 0.50911 0.91188 0.68802 0.0
C1464 C 0.48509 0.90429 0.67488 0.0
C1465 C 0.46302 0.88599 0.68978 0.0
H1466 H 0.52416 0.27051 0.74704 0.0
H1467 H 0.59385 0.29942 0.68461 0.0
H1468 H 0.60317 0.34134 0.71012 0.0
H1469 H 0.49452 0.33923 0.75688 0.0
H1470 H 0.48525 0.33215 0.79279 0.0
H1471 H 0.48695 0.30222 0.77193 0.0
H1472 H 0.52499 0.27411 0.79958 0.0
H1473 H 0.5226 0.30341 0.82122 0.0
H1474 H 0.55775 0.29251 0.80479 0.0
H1475 H 0.60102 0.38259 0.74076 0.0
H1476 H 0.59208 0.41619 0.77671 0.0
H1477 H 0.52223 0.36016 0.81721 0.0
C1478 C 0.54198 0.28519 0.7391 0.0
C1479 C 0.55845 0.28184 0.71404 0.0
C1480 C 0.58139 0.30147 0.70407 0.0
C1481 C 0.58655 0.32545 0.71824 0.0
C1482 C 0.56863 0.32906 0.74224 0.0
C1483 C 0.54721 0.30907 0.7528 0.0
C1484 C 0.52992 0.31832 0.77815 0.0
C1485 C 0.49723 0.32327 0.7747 0.0
C1486 C 0.53408 0.29575 0.80237 0.0
C1487 C 0.54461 0.34699 0.78014 0.0
C1488 C 0.56691 0.35288 0.75931 0.0
C1489 C 0.58372 0.37811 0.75719 0.0
C1490 C 0.57836 0.39712 0.77752 0.0
C1491 C 0.55628 0.39079 0.79946 0.0
C1492 C 0.53878 0.36583 0.80035 0.0
H1493 H 0.44745 0.18044 0.75673 0.0
H1494 H 0.54007 0.16612 0.73099 0.0
H1495 H 0.54434 0.13373 0.77254 0.0
H1496 H 0.45365 0.18255 0.82642 0.0
H1497 H 0.42041 0.16286 0.83848 0.0
H1498 H 0.4238 0.18411 0.80607 0.0
H1499 H 0.41213 0.13791 0.7836 0.0
H1500 H 0.4086 0.11654 0.81599 0.0
H1501 H 0.43385 0.10469 0.7887 0.0
H1502 H 0.54018 0.10625 0.8185 0.0
H1503 H 0.52663 0.08237 0.86452 0.0
H1504 H 0.43621 0.11103 0.8606 0.0
C1505 C 0.46853 0.17017 0.75966 0.0
C1506 C 0.49342 0.17601 0.74031 0.0
C1507 C 0.52059 0.16214 0.74522 0.0
C1508 C 0.52331 0.14364 0.76889 0.0
C1509 C 0.49861 0.13871 0.78764 0.0
C1510 C 0.47161 0.15122 0.78324 0.0
C1511 C 0.44869 0.14234 0.80703 0.0
C1512 C 0.43589 0.16959 0.82028 0.0
C1513 C 0.42438 0.12429 0.7983 0.0
C1514 C 0.46718 0.12334 0.82553 0.0
C1515 C 0.49596 0.12173 0.81393 0.0
C1516 C 0.51761 0.10697 0.82761 0.0
C1517 C 0.50973 0.09351 0.85381 0.0
C1518 C 0.48034 0.09441 0.86609 0.0
C1519 C 0.45877 0.1094 0.85156 0.0
H1520 H 0.7228 0.54877 0.69733 0.0
H1521 H 0.79109 0.5129 0.64203 0.0
H1522 H 0.75523 0.50806 0.60978 0.0
H1523 H 0.66808 0.49952 0.68652 0.0
H1524 H 0.63826 0.52602 0.68943 0.0
H1525 H 0.66977 0.52962 0.70686 0.0
H1526 H 0.67772 0.58268 0.68358 0.0
H1527 H 0.64593 0.57935 0.66643 0.0
H1528 H 0.68076 0.5889 0.64737 0.0
H1529 H 0.71114 0.50669 0.58372 0.0
H1530 H 0.66263 0.50867 0.56656 0.0
H1531 H 0.62311 0.54077 0.64123 0.0
C1532 C 0.73021 0.54066 0.67811 0.0
C1533 C 0.75968 0.53186 0.67172 0.0
C1534 C 0.76858 0.5202 0.64692 0.0
C1535 C 0.74839 0.51728 0.62858 0.0
C1536 C 0.71925 0.52556 0.63563 0.0
C1537 C 0.71017 0.53694 0.65985 0.0
C1538 C 0.67733 0.54236 0.66337 0.0
C1539 C 0.6625 0.52323 0.68801 0.0
C1540 C 0.67001 0.57527 0.66529 0.0
C1541 C 0.66942 0.53244 0.63737 0.0
C1542 C 0.69383 0.52305 0.62147 0.0
C1543 C 0.69182 0.51384 0.5961 0.0
C1544 C 0.66419 0.51487 0.58655 0.0
C1545 C 0.63895 0.52465 0.60254 0.0
C1546 C 0.64179 0.53295 0.62846 0.0
H1547 H 0.28718 0.99398 0.68081 0.0
H1548 H 0.22628 0.94897 0.64032 0.0
H1549 H 0.26422 0.94665 0.60082 0.0
H1550 H 0.32291 0.03717 0.62403 0.0
H1551 H 0.35896 0.03264 0.63478 0.0
H1552 H 0.32695 0.03112 0.6594 0.0
H1553 H 0.34323 0.97949 0.67953 0.0
H1554 H 0.37556 0.98113 0.65532 0.0
H1555 H 0.35114 0.95049 0.65776 0.0
H1556 H 0.30891 0.95256 0.56438 0.0
H1557 H 0.35834 0.95761 0.5382 0.0
H1558 H 0.39039 0.9946 0.60485 0.0
C1559 C 0.28195 0.98343 0.66367 0.0
C1560 C 0.25387 0.9717 0.66346 0.0
C1561 C 0.24779 0.95786 0.64087 0.0
C1562 C 0.2691 0.95673 0.6183 0.0
C1563 C 0.2965 0.96904 0.61895 0.0
C1564 C 0.30313 0.98143 0.64141 0.0
C1565 C 0.33457 0.99163 0.63788 0.0
C1566 C 0.33591 0.02513 0.63909 0.0
C1567 C 0.35216 0.97466 0.65886 0.0
C1568 C 0.34465 0.98337 0.6098 0.0
C1569 C 0.32231 0.97089 0.5989 0.0
C1570 C 0.32655 0.96213 0.57285 0.0
C1571 C 0.35454 0.96535 0.558 0.0
C1572 C 0.37795 0.97669 0.56949 0.0
C1573 C 0.37274 0.98606 0.59556 0.0
H1574 H 0.7262 0.49966 0.76895 0.0
H1575 H 0.79201 0.44925 0.80972 0.0
H1576 H 0.75775 0.44507 0.85207 0.0
H1577 H 0.69555 0.53991 0.82237 0.0
H1578 H 0.65808 0.53743 0.81564 0.0
H1579 H 0.68757 0.53635 0.78863 0.0
H1580 H 0.66953 0.48642 0.77696 0.0
H1581 H 0.63955 0.48775 0.80346 0.0
H1582 H 0.66408 0.45618 0.80301 0.0
H1583 H 0.71664 0.44959 0.89091 0.0
H1584 H 0.66957 0.45362 0.92029 0.0
H1585 H 0.62983 0.49789 0.85289 0.0
C1586 C 0.73315 0.48732 0.78673 0.0
C1587 C 0.7616 0.47457 0.78615 0.0
C1588 C 0.7701 0.45873 0.80973 0.0
C1589 C 0.75091 0.45657 0.8339 0.0
C1590 C 0.72314 0.46998 0.83398 0.0
C1591 C 0.71402 0.48431 0.81077 0.0
C1592 C 0.68264 0.49555 0.81574 0.0
C1593 C 0.68088 0.52931 0.81027 0.0
C1594 C 0.66278 0.48057 0.7988 0.0
C1595 C 0.67557 0.48572 0.84548 0.0
C1596 C 0.69933 0.47144 0.85582 0.0
C1597 C 0.6979 0.46062 0.88295 0.0
C1598 C 0.67119 0.46337 0.89961 0.0
C1599 C 0.64615 0.47639 0.88897 0.0
C1600 C 0.6487 0.48817 0.86168 0.0
H1601 H 0.27541 0.04955 0.76848 0.0
H1602 H 0.22977 0.96781 0.79557 0.0
H1603 H 0.25239 0.96408 0.8377 0.0
H1604 H 0.34319 0.02638 0.79577 0.0
H1605 H 0.35 0.06259 0.80481 0.0
H1606 H 0.33005 0.05869 0.77673 0.0
H1607 H 0.28705 0.08975 0.79849 0.0
H1608 H 0.3067 0.09328 0.82686 0.0
H1609 H 0.27036 0.07823 0.83212 0.0
H1610 H 0.27762 0.9706 0.87797 0.0
H1611 H 0.30865 0.98406 0.9115 0.0
H1612 H 0.34078 0.05895 0.85625 0.0
C1613 C 0.27045 0.03076 0.78319 0.0
C1614 C 0.25099 0.00897 0.77877 0.0
C1615 C 0.24497 0.98463 0.79842 0.0
C1616 C 0.25748 0.98239 0.82253 0.0
C1617 C 0.27625 1.00445 0.82648 0.0
C1618 C 0.28319 0.02787 0.8072 0.0
C1619 C 0.30473 0.04806 0.8162 0.0
C1620 C 0.33371 0.04896 0.79726 0.0
C1621 C 0.2914 0.07917 0.81856 0.0
C1622 C 0.30858 0.0324 0.84356 0.0
C1623 C 0.29171 0.00752 0.84929 0.0
C1624 C 0.29125 0.98986 0.87364 0.0
C1625 C 0.30903 0.99761 0.89249 0.0
C1626 C 0.32721 0.02259 0.88666 0.0
C1627 C 0.32674 0.04011 0.86182 0.0
H1628 H 0.70369 0.72951 0.49542 0.0
H1629 H 0.69009 0.76513 0.57287 0.0
H1630 H 0.65258 0.72783 0.58899 0.0
H1631 H 0.62794 0.70989 0.49229 0.0
H1632 H 0.6373 0.6758 0.4778 0.0
H1633 H 0.66238 0.70608 0.47143 0.0
H1634 H 0.70343 0.67243 0.48954 0.0
H1635 H 0.67853 0.64203 0.49584 0.0
H1636 H 0.69702 0.65306 0.52275 0.0
H1637 H 0.61646 0.68777 0.59695 0.0
H1638 H 0.58648 0.64404 0.59829 0.0
H1639 H 0.62398 0.63057 0.51674 0.0
C1640 C 0.69266 0.72951 0.51571 0.0
C1641 C 0.69978 0.75048 0.53285 0.0
C1642 C 0.68514 0.7494 0.55938 0.0
C1643 C 0.66366 0.72833 0.56869 0.0
C1644 C 0.65714 0.70807 0.55141 0.0
C1645 C 0.67137 0.70813 0.52559 0.0
C1646 C 0.66097 0.6827 0.51182 0.0
C1647 C 0.64627 0.69432 0.48685 0.0
C1648 C 0.68651 0.66129 0.50456 0.0
C1649 C 0.63867 0.66847 0.53397 0.0
C1650 C 0.63674 0.68386 0.55643 0.0
C1651 C 0.61784 0.67549 0.57952 0.0
C1652 C 0.60077 0.65048 0.57999 0.0
C1653 C 0.60266 0.63355 0.55763 0.0
C1654 C 0.62181 0.64296 0.53414 0.0
H1655 H 0.72025 0.29688 0.00346 0.0
H1656 H 0.742 0.26356 0.92558 0.0
H1657 H 0.7013 0.2937 0.90825 0.0
H1658 H 0.64237 0.29864 0.00441 0.0
H1659 H 0.63703 0.33247 0.02017 0.0
H1660 H 0.66792 0.30856 0.02637 0.0
H1661 H 0.70351 0.35158 0.01038 0.0
H1662 H 0.67271 0.37571 0.00449 0.0
H1663 H 0.7019 0.37146 0.9777 0.0
H1664 H 0.65669 0.32645 0.90006 0.0
H1665 H 0.61572 0.36268 0.90002 0.0
H1666 H 0.62407 0.37577 0.98303 0.0
C1667 C 0.71662 0.296 0.98268 0.0
C1668 C 0.7344 0.27774 0.96588 0.0
C1669 C 0.72887 0.27744 0.93881 0.0
C1670 C 0.70565 0.29437 0.92885 0.0
C1671 C 0.68826 0.31172 0.94612 0.0
C1672 C 0.69378 0.31296 0.97237 0.0
C1673 C 0.67235 0.33386 0.98667 0.0
C1674 C 0.65382 0.31739 0.01083 0.0
C1675 C 0.68859 0.35969 0.99531 0.0
C1676 C 0.65376 0.34417 0.96443 0.0
C1677 C 0.66312 0.33093 0.94128 0.0
C1678 C 0.64929 0.33696 0.91808 0.0
C1679 C 0.62584 0.3575 0.91833 0.0
C1680 C 0.6164 0.37211 0.94156 0.0
C1681 C 0.63047 0.36492 0.96499 0.0
H1682 H 0.29864 0.22842 0.97554 0.0
H1683 H 0.34931 0.29241 0.92059 0.0
H1684 H 0.39114 0.25662 0.9169 0.0
H1685 H 0.35557 0.19815 0.01086 0.0
H1686 H 0.34325 0.16067 0.01373 0.0
H1687 H 0.31716 0.19079 0.01119 0.0
H1688 H 0.29915 0.17113 0.96956 0.0
H1689 H 0.32461 0.14051 0.97243 0.0
H1690 H 0.32542 0.16391 0.94122 0.0
H1691 H 0.42889 0.21439 0.9228 0.0
H1692 H 0.45567 0.16682 0.93078 0.0
H1693 H 0.37844 0.13033 0.97961 0.0
C1694 C 0.31835 0.2346 0.96226 0.0
C1695 C 0.32082 0.26291 0.9481 0.0
C1696 C 0.34693 0.27053 0.93114 0.0
C1697 C 0.37085 0.25049 0.92923 0.0
C1698 C 0.36798 0.2229 0.94412 0.0
C1699 C 0.34205 0.21474 0.95973 0.0
C1700 C 0.34408 0.18367 0.97323 0.0
C1701 C 0.33976 0.18332 0.00408 0.0
C1702 C 0.32202 0.16362 0.96352 0.0
C1703 C 0.37534 0.1756 0.9631 0.0
C1704 C 0.38903 0.19859 0.94667 0.0
C1705 C 0.41826 0.19621 0.93546 0.0
C1706 C 0.43343 0.16929 0.94036 0.0
C1707 C 0.41913 0.14509 0.95595 0.0
C1708 C 0.38992 0.14857 0.96775 0.0
H1709 H 0.83815 0.30578 0.99847 0.0
H1710 H 0.83344 0.26764 0.08149 0.0
H1711 H 0.87286 0.30053 0.08913 0.0
H1712 H 0.91584 0.31642 0.98638 0.0
H1713 H 0.91322 0.35156 0.96676 0.0
H1714 H 0.88522 0.32455 0.96738 0.0
H1715 H 0.84521 0.36228 0.9834 0.0
H1716 H 0.87302 0.38953 0.98231 0.0
H1717 H 0.84893 0.38051 0.01294 0.0
H1718 H 0.9138 0.33577 0.08716 0.0
H1719 H 0.94768 0.37729 0.07861 0.0
H1720 H 0.92372 0.39511 0.99746 0.0
C1721 C 0.84539 0.30448 0.01827 0.0
C1722 C 0.83296 0.28416 0.03941 0.0
C1723 C 0.84263 0.28321 0.06513 0.0
C1724 C 0.86517 0.30156 0.06955 0.0
C1725 C 0.87738 0.32095 0.04813 0.0
C1726 C 0.8674 0.32304 0.02318 0.0
C1727 C 0.88304 0.34701 0.00408 0.0
C1728 C 0.90036 0.3341 0.97971 0.0
C1729 C 0.86125 0.37127 0.99517 0.0
C1730 C 0.90344 0.35807 0.02221 0.0
C1731 C 0.90015 0.34231 0.04735 0.0
C1732 C 0.91645 0.34839 0.06761 0.0
C1733 C 0.93579 0.37198 0.06245 0.0
C1734 C 0.93833 0.38958 0.03735 0.0
C1735 C 0.92243 0.382 0.01677 0.0
loop_
_geom_bond_atom_site_label_1
_geom_bond_atom_site_label_2
_geom_bond_distance
_geom_bond_site_symmetry_2
_ccdc_geom_bond_type
C0 O2 1.247 . S
C0 O4 1.258 1_455 S
C1 O8 1.247 . S
C1 O9 1.258 1_655 S
O2 C0 1.247 . S
O2 Zn3 2.028 . S
Zn3 O2 2.028 . S
Zn3 O7 2.035 . S
Zn3 O9 2.035 . S
Zn3 O10 2.028 . S
O4 C0 1.258 1_655 S
O4 Zn5 2.035 . S
Zn5 O4 2.035 . S
Zn5 O6 2.028 . S
Zn5 O8 2.028 . S
Zn5 O11 2.035 . S
O6 Zn5 2.028 . S
O6 C12 1.247 . S
O7 Zn3 2.035 . S
O7 C12 1.258 1_455 S
O8 C1 1.247 . S
O8 Zn5 2.028 . S
O9 C1 1.258 1_455 S
O9 Zn3 2.035 . S
O10 Zn3 2.028 . S
O10 C13 1.247 . S
O11 Zn5 2.035 . S
O11 C13 1.258 1_655 S
C12 O6 1.247 . S
C12 O7 1.258 1_655 S
C13 O10 1.247 . S
C13 O11 1.258 1_455 S
C14 O16 1.247 . S
C14 O18 1.258 1_455 S
C15 O22 1.247 . S
C15 O23 1.258 1_655 S
O16 C14 1.247 . S
O16 Zn17 2.028 . S
Zn17 O16 2.028 . S
Zn17 O21 2.035 . S
Zn17 O23 2.035 . S
Zn17 O24 2.028 . S
O18 C14 1.258 1_655 S
O18 Zn19 2.035 . S
Zn19 O18 2.035 . S
Zn19 O20 2.028 . S
Zn19 O22 2.028 . S
Zn19 O25 2.035 . S
O20 Zn19 2.028 . S
O20 C26 1.247 . S
O21 Zn17 2.035 . S
O21 C26 1.258 1_455 S
O22 C15 1.247 . S
O22 Zn19 2.028 . S
O23 C15 1.258 1_455 S
O23 Zn17 2.035 . S
O24 Zn17 2.028 . S
O24 C27 1.247 . S
O25 Zn19 2.035 . S
O25 C27 1.258 1_655 S
C26 O20 1.247 . S
C26 O21 1.258 1_655 S
C27 O24 1.247 . S
C27 O25 1.258 1_455 S
C28 O30 1.247 1_545 S
C28 O32 1.258 . S
C29 O36 1.247 . S
C29 O37 1.258 1_545 S
O30 C28 1.247 1_565 S
O30 Zn31 2.028 . S
Zn31 O30 2.028 . S
Zn31 O35 2.035 . S
Zn31 O37 2.035 . S
Zn31 O38 2.028 . S
O32 C28 1.258 . S
O32 Zn33 2.035 . S
Zn33 O32 2.035 . S
Zn33 O34 2.028 . S
Zn33 O36 2.028 . S
Zn33 O39 2.035 . S
O34 Zn33 2.028 . S
O34 C40 1.247 . S
O35 Zn31 2.035 . S
O35 C40 1.258 1_565 S
O36 C29 1.247 . S
O36 Zn33 2.028 . S
O37 C29 1.258 1_565 S
O37 Zn31 2.035 . S
O38 Zn31 2.028 . S
O38 C41 1.247 1_565 S
O39 Zn33 2.035 . S
O39 C41 1.258 . S
C40 O34 1.247 . S
C40 O35 1.258 1_545 S
C41 O38 1.247 1_545 S
C41 O39 1.258 . S
C42 O44 1.247 . S
C42 O46 1.258 . S
C43 O50 1.247 . S
C43 O51 1.258 . S
O44 C42 1.247 . S
O44 Zn45 2.028 . S
Zn45 O44 2.028 . S
Zn45 O49 2.035 . S
Zn45 O51 2.035 . S
Zn45 O52 2.028 . S
O46 C42 1.258 . S
O46 Zn47 2.035 . S
Zn47 O46 2.035 . S
Zn47 O48 2.028 . S
Zn47 O50 2.028 . S
Zn47 O53 2.035 . S
O48 Zn47 2.028 . S
O48 C54 1.247 . S
O49 Zn45 2.035 . S
O49 C54 1.258 . S
O50 C43 1.247 . S
O50 Zn47 2.028 . S
O51 C43 1.258 . S
O51 Zn45 2.035 . S
O52 Zn45 2.028 . S
O52 C55 1.247 . S
O53 Zn47 2.035 . S
O53 C55 1.258 . S
C54 O48 1.247 . S
C54 O49 1.258 . S
C55 O52 1.247 . S
C55 O53 1.258 . S
C56 O58 1.247 1_554 S
C56 O60 1.258 . S
C57 O64 1.247 1_556 S
C57 O65 1.258 . S
O58 C56 1.247 1_556 S
O58 Zn59 2.028 . S
Zn59 O58 2.028 . S
Zn59 O63 2.035 . S
Zn59 O65 2.035 . S
Zn59 O66 2.028 . S
O60 C56 1.258 . S
O60 Zn61 2.035 . S
Zn61 O60 2.035 . S
Zn61 O62 2.028 . S
Zn61 O64 2.028 . S
Zn61 O67 2.035 . S
O62 Zn61 2.028 . S
O62 C68 1.247 1_554 S
O63 Zn59 2.035 . S
O63 C68 1.258 . S
O64 C57 1.247 1_554 S
O64 Zn61 2.028 . S
O65 C57 1.258 . S
O65 Zn59 2.035 . S
O66 Zn59 2.028 . S
O66 C69 1.247 1_556 S
O67 Zn61 2.035 . S
O67 C69 1.258 . S
C68 O62 1.247 1_556 S
C68 O63 1.258 . S
C69 O66 1.247 1_554 S
C69 O67 1.258 . S
C70 O72 1.247 . S
C70 O74 1.258 . S
C71 O78 1.247 . S
C71 O79 1.258 . S
O72 C70 1.247 . S
O72 Zn73 2.028 . S
Zn73 O72 2.028 . S
Zn73 O77 2.035 . S
Zn73 O79 2.035 . S
Zn73 O80 2.028 . S
O74 C70 1.258 . S
O74 Zn75 2.035 . S
Zn75 O74 2.035 . S
Zn75 O76 2.028 . S
Zn75 O78 2.028 . S
Zn75 O81 2.035 . S
O76 Zn75 2.028 . S
O76 C82 1.247 . S
O77 Zn73 2.035 . S
O77 C82 1.258 . S
O78 C71 1.247 . S
O78 Zn75 2.028 . S
O79 C71 1.258 . S
O79 Zn73 2.035 . S
O80 Zn73 2.028 . S
O80 C83 1.247 . S
O81 Zn75 2.035 . S
O81 C83 1.258 . S
C82 O76 1.247 . S
C82 O77 1.258 . S
C83 O80 1.247 . S
C83 O81 1.258 . S
C84 O86 1.247 . S
C84 O88 1.258 . S
C85 O92 1.247 . S
C85 O93 1.258 . S
O86 C84 1.247 . S
O86 Zn87 2.028 . S
Zn87 O86 2.028 . S
Zn87 O91 2.035 . S
Zn87 O93 2.035 . S
Zn87 O94 2.028 . S
O88 C84 1.258 . S
O88 Zn89 2.035 . S
Zn89 O88 2.035 . S
Zn89 O90 2.028 . S
Zn89 O92 2.028 . S
Zn89 O95 2.035 . S
O90 Zn89 2.028 . S
O90 C96 1.247 . S
O91 Zn87 2.035 . S
O91 C96 1.258 . S
O92 C85 1.247 . S
O92 Zn89 2.028 . S
O93 C85 1.258 . S
O93 Zn87 2.035 . S
O94 Zn87 2.028 . S
O94 C97 1.247 . S
O95 Zn89 2.035 . S
O95 C97 1.258 . S
C96 O90 1.247 . S
C96 O91 1.258 . S
C97 O94 1.247 . S
C97 O95 1.258 . S
C98 O100 1.247 . S
C98 O102 1.258 . S
C99 O106 1.247 . S
C99 O107 1.258 . S
O100 C98 1.247 . S
O100 Zn101 2.028 . S
Zn101 O100 2.028 . S
Zn101 O105 2.035 . S
Zn101 O107 2.035 . S
Zn101 O108 2.028 . S
O102 C98 1.258 . S
O102 Zn103 2.035 . S
Zn103 O102 2.035 . S
Zn103 O104 2.028 . S
Zn103 O106 2.028 . S
Zn103 O109 2.035 . S
O104 Zn103 2.028 . S
O104 C110 1.247 . S
O105 Zn101 2.035 . S
O105 C110 1.258 . S
O106 C99 1.247 . S
O106 Zn103 2.028 . S
O107 C99 1.258 . S
O107 Zn101 2.035 . S
O108 Zn101 2.028 . S
O108 C111 1.247 . S
O109 Zn103 2.035 . S
O109 C111 1.258 . S
C110 O104 1.247 . S
C110 O105 1.258 . S
C111 O108 1.247 . S
C111 O109 1.258 . S
C112 O114 1.247 . S
C112 O116 1.258 . S
C113 O120 1.247 . S
C113 O121 1.258 . S
O114 C112 1.247 . S
O114 Zn115 2.028 . S
Zn115 O114 2.028 . S
Zn115 O119 2.035 . S
Zn115 O121 2.035 . S
Zn115 O122 2.028 . S
O116 C112 1.258 . S
O116 Zn117 2.035 . S
Zn117 O116 2.035 . S
Zn117 O118 2.028 . S
Zn117 O120 2.028 . S
Zn117 O123 2.035 . S
O118 Zn117 2.028 . S
O118 C124 1.247 . S
O119 Zn115 2.035 . S
O119 C124 1.258 . S
O120 C113 1.247 . S
O120 Zn117 2.028 . S
O121 C113 1.258 . S
O121 Zn115 2.035 . S
O122 Zn115 2.028 . S
O122 C125 1.247 . S
O123 Zn117 2.035 . S
O123 C125 1.258 . S
C124 O118 1.247 . S
C124 O119 1.258 . S
C125 O122 1.247 . S
C125 O123 1.258 . S
C126 O128 1.247 . S
C126 O130 1.258 . S
C127 O134 1.247 . S
C127 O135 1.258 . S
O128 C126 1.247 . S
O128 Zn129 2.028 . S
Zn129 O128 2.028 . S
Zn129 O133 2.035 . S
Zn129 O135 2.035 . S
Zn129 O136 2.028 . S
O130 C126 1.258 . S
O130 Zn131 2.035 . S
Zn131 O130 2.035 . S
Zn131 O132 2.028 . S
Zn131 O134 2.028 . S
Zn131 O137 2.035 . S
O132 Zn131 2.028 . S
O132 C138 1.247 . S
O133 Zn129 2.035 . S
O133 C138 1.258 . S
O134 C127 1.247 . S
O134 Zn131 2.028 . S
O135 C127 1.258 . S
O135 Zn129 2.035 . S
O136 Zn129 2.028 . S
O136 C139 1.247 . S
O137 Zn131 2.035 . S
O137 C139 1.258 . S
C138 O132 1.247 . S
C138 O133 1.258 . S
C139 O136 1.247 . S
C139 O137 1.258 . S
C140 O142 1.247 . S
C140 O144 1.258 1_565 S
C141 O148 1.247 . S
C141 O149 1.258 1_545 S
O142 C140 1.247 . S
O142 Zn143 2.028 . S
Zn143 O142 2.028 . S
Zn143 O147 2.035 . S
Zn143 O149 2.035 . S
Zn143 O150 2.028 . S
O144 C140 1.258 1_545 S
O144 Zn145 2.035 . S
Zn145 O144 2.035 . S
Zn145 O146 2.028 . S
Zn145 O148 2.028 . S
Zn145 O151 2.035 . S
O146 Zn145 2.028 . S
O146 C152 1.247 . S
O147 Zn143 2.035 . S
O147 C152 1.258 1_565 S
O148 C141 1.247 . S
O148 Zn145 2.028 . S
O149 C141 1.258 1_565 S
O149 Zn143 2.035 . S
O150 Zn143 2.028 . S
O150 C153 1.247 . S
O151 Zn145 2.035 . S
O151 C153 1.258 1_545 S
C152 O146 1.247 . S
C152 O147 1.258 1_545 S
C153 O150 1.247 . S
C153 O151 1.258 1_565 S
C154 O156 1.247 . S
C154 O158 1.258 1_554 S
C155 O162 1.247 1_554 S
C155 O163 1.258 . S
O156 C154 1.247 . S
O156 Zn157 2.028 . S
Zn157 O156 2.028 . S
Zn157 O161 2.035 . S
Zn157 O163 2.035 . S
Zn157 O164 2.028 . S
O158 C154 1.258 1_556 S
O158 Zn159 2.035 . S
Zn159 O158 2.035 . S
Zn159 O160 2.028 . S
Zn159 O162 2.028 . S
Zn159 O165 2.035 . S
O160 Zn159 2.028 . S
O160 C166 1.247 1_556 S
O161 Zn157 2.035 . S
O161 C166 1.258 . S
O162 C155 1.247 1_556 S
O162 Zn159 2.028 . S
O163 C155 1.258 . S
O163 Zn157 2.035 . S
O164 Zn157 2.028 . S
O164 C167 1.215 1_554 S
O165 Zn159 2.035 . S
O165 C167 1.283 . S
C166 O160 1.247 1_554 S
C166 O161 1.258 . S
C167 O164 1.215 1_556 S
C167 O165 1.283 . S
C168 O184 1.251 . S
C168 O186 1.254 . S
N169 C170 1.333 . S
N169 C174 1.307 . S
N169 Zn175 2.020 1_556 S
C170 N169 1.333 . S
C170 C171 1.379 . S
C170 H188 0.929 1_556 S
C171 C170 1.379 . S
C171 C172 1.390 . S
C171 H198 0.949 . S
C172 C171 1.390 . S
C172 C173 1.357 . S
C173 C172 1.357 . S
C173 C174 1.370 . S
C173 H199 0.950 1_545 S
C174 N169 1.307 . S
C174 C173 1.370 . S
C174 H192 0.948 . S
Zn175 N169 2.020 1_554 S
Zn175 O184 2.039 . S
Zn175 O190 2.034 . S
Zn175 O194 2.025 . S
Zn175 O196 2.024 . S
C176 O195 1.264 . S
C176 O196 1.249 . S
N177 C178 1.307 . S
N177 C179 1.306 1_455 S
N177 Zn183 2.020 . S
C178 N177 1.307 . S
C178 C182 1.370 . S
C178 H189 0.948 . S
C179 N177 1.306 1_655 S
C179 C180 1.388 . S
C179 H187 0.971 . S
C180 C179 1.388 . S
C180 C181 1.390 1_655 S
C180 H200 0.949 . S
C181 C180 1.390 1_455 S
C181 C182 1.357 . S
C182 C178 1.370 . S
C182 C181 1.357 . S
C182 H201 0.950 . S
Zn183 N177 2.020 . S
Zn183 O186 2.025 . S
Zn183 O191 2.024 . S
Zn183 O193 2.039 . S
Zn183 O195 2.034 . S
O184 C168 1.251 . S
O184 Zn175 2.039 . S
C185 O190 1.246 . S
C185 O191 1.249 . S
O186 C168 1.254 . S
O186 Zn183 2.025 . S
H187 C179 0.971 . S
H188 C170 0.929 1_554 S
H189 C178 0.948 . S
O190 Zn175 2.034 . S
O190 C185 1.246 . S
O191 Zn183 2.024 . S
O191 C185 1.249 . S
H192 C174 0.948 . S
O193 Zn183 2.039 . S
O193 C197 1.251 . S
O194 Zn175 2.025 . S
O194 C197 1.254 . S
O195 C176 1.264 . S
O195 Zn183 2.034 . S
O196 Zn175 2.024 . S
O196 C176 1.249 . S
C197 O193 1.251 . S
C197 O194 1.254 . S
H198 C171 0.949 . S
H199 C173 0.950 1_565 S
H200 C180 0.949 . S
H201 C182 0.950 . S
C202 O218 1.251 . S
C202 O220 1.254 . S
N203 C204 1.333 . S
N203 C208 1.307 . S
N203 Zn209 2.020 1_556 S
C204 N203 1.333 . S
C204 C205 1.379 . S
C204 H222 0.952 . S
C205 C204 1.379 . S
C205 C206 1.390 . S
C205 H232 0.949 . S
C206 C205 1.390 . S
C206 C207 1.357 . S
C207 C206 1.357 . S
C207 C208 1.370 . S
C207 H233 0.950 . S
C208 N203 1.307 . S
C208 C207 1.370 . S
C208 H226 0.948 . S
Zn209 N203 2.020 1_554 S
Zn209 O218 2.039 . S
Zn209 O224 2.034 . S
Zn209 O228 2.025 1_655 S
Zn209 O230 2.024 . S
C210 O229 1.246 . S
C210 O230 1.249 . S
N211 C212 1.307 . S
N211 C213 1.333 1_655 S
N211 Zn217 2.020 . S
C212 N211 1.307 . S
C212 C216 1.370 . S
C212 H223 0.948 . S
C213 N211 1.333 1_455 S
C213 C214 1.379 . S
C213 H221 0.952 . S
C214 C213 1.379 . S
C214 C215 1.390 . S
C214 H234 0.949 . S
C215 C214 1.390 . S
C215 C216 1.357 1_455 S
C216 C212 1.370 . S
C216 C215 1.357 1_655 S
C216 H235 0.950 . S
Zn217 N211 2.020 . S
Zn217 O220 2.025 . S
Zn217 O225 2.024 . S
Zn217 O227 2.039 1_655 S
Zn217 O229 2.034 . S
O218 C202 1.251 . S
O218 Zn209 2.039 . S
C219 O224 1.246 . S
C219 O225 1.249 . S
O220 C202 1.254 . S
O220 Zn217 2.025 . S
H221 C213 0.952 . S
H222 C204 0.952 . S
H223 C212 0.948 . S
O224 Zn209 2.034 . S
O224 C219 1.246 . S
O225 Zn217 2.024 . S
O225 C219 1.249 . S
H226 C208 0.948 . S
O227 Zn217 2.039 1_455 S
O227 C231 1.251 . S
O228 Zn209 2.025 1_455 S
O228 C231 1.254 . S
O229 C210 1.246 . S
O229 Zn217 2.034 . S
O230 Zn209 2.024 . S
O230 C210 1.249 . S
C231 O227 1.251 . S
C231 O228 1.254 . S
H232 C205 0.949 . S
H233 C207 0.950 . S
H234 C214 0.949 . S
H235 C216 0.950 . S
C236 O252 1.251 . S
C236 O254 1.254 . S
N237 C238 1.333 . S
N237 C242 1.307 . S
N237 Zn243 2.020 . S
C238 N237 1.333 . S
C238 C239 1.379 . S
C238 H256 0.952 . S
C239 C238 1.379 . S
C239 C240 1.390 . S
C239 H266 0.949 1_455 S
C240 C239 1.390 . S
C240 C241 1.357 . S
C241 C240 1.357 . S
C241 C242 1.370 . S
C241 H267 0.950 . S
C242 N237 1.307 . S
C242 C241 1.370 . S
C242 H260 0.948 . S
Zn243 N237 2.020 . S
Zn243 O252 2.039 . S
Zn243 O258 2.034 . S
Zn243 O262 2.025 . S
Zn243 O264 2.024 . S
C244 O263 1.246 . S
C244 O264 1.249 . S
N245 C246 1.307 . S
N245 C247 1.333 . S
N245 Zn251 2.020 . S
C246 N245 1.307 . S
C246 C250 1.370 1_565 S
C246 H257 0.948 1_565 S
C247 N245 1.333 . S
C247 C248 1.379 . S
C247 H255 0.952 . S
C248 C247 1.379 . S
C248 C249 1.379 1_565 S
C248 H268 0.949 . S
C249 C248 1.379 1_545 S
C249 C250 1.361 . S
C250 C246 1.370 1_545 S
C250 C249 1.361 . S
C250 H269 0.950 . S
Zn251 N245 2.020 . S
Zn251 O254 2.025 . S
Zn251 O259 2.024 . S
Zn251 O261 2.039 . S
Zn251 O263 2.034 . S
O252 C236 1.251 . S
O252 Zn243 2.039 . S
C253 O258 1.246 . S
C253 O259 1.249 . S
O254 C236 1.254 . S
O254 Zn251 2.025 . S
H255 C247 0.952 . S
H256 C238 0.952 . S
H257 C246 0.948 1_545 S
O258 Zn243 2.034 . S
O258 C253 1.246 . S
O259 Zn251 2.024 . S
O259 C253 1.249 . S
H260 C242 0.948 . S
O261 Zn251 2.039 . S
O261 C265 1.251 . S
O262 Zn243 2.025 . S
O262 C265 1.254 . S
O263 C244 1.246 . S
O263 Zn251 2.034 . S
O264 Zn243 2.024 . S
O264 C244 1.249 . S
C265 O261 1.251 . S
C265 O262 1.254 . S
H266 C239 0.949 1_655 S
H267 C241 0.950 . S
H268 C248 0.949 . S
H269 C250 0.950 . S
C270 O286 1.251 . S
C270 O288 1.254 . S
N271 C272 1.333 . S
N271 C276 1.307 . S
N271 Zn277 2.020 1_455 S
C272 N271 1.333 . S
C272 C273 1.379 . S
C272 H290 0.952 . S
C273 C272 1.379 . S
C273 C274 1.390 . S
C273 H300 0.949 . S
C274 C273 1.390 . S
C274 C275 1.357 . S
C275 C274 1.357 . S
C275 C276 1.370 . S
C275 H301 0.950 . S
C276 N271 1.307 . S
C276 C275 1.370 . S
C276 H294 0.948 . S
Zn277 N271 2.020 1_655 S
Zn277 O286 2.039 . S
Zn277 O292 2.034 . S
Zn277 O296 2.025 . S
Zn277 O298 2.024 . S
C278 O297 1.246 . S
C278 O298 1.249 . S
N279 C280 1.307 . S
N279 C281 1.333 . S
N279 Zn285 2.020 . S
C280 N279 1.307 . S
C280 C284 1.370 . S
C280 H291 0.948 . S
C281 N279 1.333 . S
C281 C282 1.379 . S
C281 H289 0.952 . S
C282 C281 1.379 . S
C282 C283 1.390 . S
C282 H302 0.949 . S
C283 C282 1.390 . S
C283 C284 1.357 . S
C284 C280 1.370 . S
C284 C283 1.357 . S
C284 H303 0.950 . S
Zn285 N279 2.020 . S
Zn285 O288 2.025 . S
Zn285 O293 2.024 . S
Zn285 O295 2.039 . S
Zn285 O297 2.034 . S
O286 C270 1.251 . S
O286 Zn277 2.039 . S
C287 O292 1.246 . S
C287 O293 1.249 . S
O288 C270 1.254 . S
O288 Zn285 2.025 . S
H289 C281 0.952 . S
H290 C272 0.952 . S
H291 C280 0.948 . S
O292 Zn277 2.034 . S
O292 C287 1.246 . S
O293 Zn285 2.024 . S
O293 C287 1.249 . S
H294 C276 0.948 . S
O295 Zn285 2.039 . S
O295 C299 1.251 . S
O296 Zn277 2.025 . S
O296 C299 1.254 . S
O297 C278 1.246 . S
O297 Zn285 2.034 . S
O298 Zn277 2.024 . S
O298 C278 1.249 . S
C299 O295 1.251 . S
C299 O296 1.254 . S
H300 C273 0.949 . S
H301 C275 0.950 . S
H302 C282 0.949 . S
H303 C284 0.950 . S
C304 O320 1.251 . S
C304 O322 1.254 . S
N305 C306 1.333 1_565 S
N305 C310 1.307 1_565 S
N305 Zn311 2.020 . S
C306 N305 1.333 1_545 S
C306 C307 1.379 . S
C306 H324 0.952 1_545 S
C307 C306 1.379 . S
C307 C308 1.390 . S
C307 H334 0.949 . S
C308 C307 1.390 . S
C308 C309 1.357 . S
C309 C308 1.357 . S
C309 C310 1.370 . S
C309 H335 0.950 . S
C310 N305 1.307 1_545 S
C310 C309 1.370 . S
C310 H328 0.948 . S
Zn311 N305 2.020 . S
Zn311 O320 2.039 . S
Zn311 O326 2.034 . S
Zn311 O330 2.025 . S
Zn311 O332 2.024 1_565 S
C312 O331 1.246 1_545 S
C312 O332 1.249 . S
N313 C314 1.307 . S
N313 C315 1.333 . S
N313 Zn319 2.020 . S
C314 N313 1.307 . S
C314 C318 1.370 . S
C314 H325 0.948 . S
C315 N313 1.333 . S
C315 C316 1.379 . S
C315 H323 0.952 . S
C316 C315 1.379 . S
C316 C317 1.390 . S
C316 H336 0.949 . S
C317 C316 1.390 . S
C317 C318 1.357 . S
C318 C314 1.370 . S
C318 C317 1.357 . S
C318 H337 0.950 . S
Zn319 N313 2.020 . S
Zn319 O322 2.025 . S
Zn319 O327 2.024 . S
Zn319 O329 2.039 . S
Zn319 O331 2.034 . S
O320 C304 1.251 . S
O320 Zn311 2.039 . S
C321 O326 1.246 . S
C321 O327 1.249 . S
O322 C304 1.254 . S
O322 Zn319 2.025 . S
H323 C315 0.952 . S
H324 C306 0.952 1_565 S
H325 C314 0.948 . S
O326 Zn311 2.034 . S
O326 C321 1.246 . S
O327 Zn319 2.024 . S
O327 C321 1.249 . S
H328 C310 0.948 . S
O329 Zn319 2.039 . S
O329 C333 1.251 . S
O330 Zn311 2.025 . S
O330 C333 1.254 . S
O331 C312 1.246 1_565 S
O331 Zn319 2.034 . S
O332 Zn311 2.024 1_545 S
O332 C312 1.249 . S
C333 O329 1.251 . S
C333 O330 1.254 . S
H334 C307 0.949 . S
H335 C309 0.950 . S
H336 C316 0.949 . S
H337 C318 0.950 . S
C338 O354 1.251 . S
C338 O356 1.254 . S
N339 C340 1.333 . S
N339 C344 1.307 . S
N339 Zn345 2.020 . S
C340 N339 1.333 . S
C340 C341 1.379 . S
C340 H358 0.952 . S
C341 C340 1.379 . S
C341 C342 1.390 . S
C341 H368 0.949 . S
C342 C341 1.390 . S
C342 C343 1.357 . S
C343 C342 1.357 . S
C343 C344 1.370 . S
C343 H369 0.950 . S
C344 N339 1.307 . S
C344 C343 1.370 . S
C344 H362 0.948 . S
Zn345 N339 2.020 . S
Zn345 O354 2.039 . S
Zn345 O360 2.034 . S
Zn345 O364 2.025 . S
Zn345 O366 2.024 . S
C346 O365 1.246 . S
C346 O366 1.249 . S
N347 C348 1.307 . S
N347 C349 1.333 . S
N347 Zn353 2.020 . S
C348 N347 1.307 . S
C348 C352 1.370 . S
C348 H359 0.948 . S
C349 N347 1.333 . S
C349 C350 1.379 . S
C349 H357 0.952 . S
C350 C349 1.379 . S
C350 C351 1.390 . S
C350 H370 0.949 . S
C351 C350 1.390 . S
C351 C352 1.357 . S
C352 C348 1.370 . S
C352 C351 1.357 . S
C352 H371 0.950 . S
Zn353 N347 2.020 . S
Zn353 O356 2.025 . S
Zn353 O361 2.024 . S
Zn353 O363 2.039 . S
Zn353 O365 2.034 . S
O354 C338 1.251 . S
O354 Zn345 2.039 . S
C355 O360 1.246 . S
C355 O361 1.249 . S
O356 C338 1.254 . S
O356 Zn353 2.025 . S
H357 C349 0.952 . S
H358 C340 0.952 . S
H359 C348 0.948 . S
O360 Zn345 2.034 . S
O360 C355 1.246 . S
O361 Zn353 2.024 . S
O361 C355 1.249 . S
H362 C344 0.948 . S
O363 Zn353 2.039 . S
O363 C367 1.251 . S
O364 Zn345 2.025 . S
O364 C367 1.254 . S
O365 C346 1.246 . S
O365 Zn353 2.034 . S
O366 Zn345 2.024 . S
O366 C346 1.249 . S
C367 O363 1.251 . S
C367 O364 1.254 . S
H368 C341 0.949 . S
H369 C343 0.950 . S
H370 C350 0.949 . S
H371 C352 0.950 . S
C372 O388 1.251 . S
C372 O390 1.254 . S
N373 C374 1.333 . S
N373 C378 1.307 . S
N373 Zn379 2.020 . S
C374 N373 1.333 . S
C374 C375 1.379 . S
C374 H392 0.952 . S
C375 C374 1.379 . S
C375 C376 1.390 . S
C375 H402 0.949 . S
C376 C375 1.390 . S
C376 C377 1.357 . S
C377 C376 1.357 . S
C377 C378 1.370 . S
C377 H403 0.950 . S
C378 N373 1.307 . S
C378 C377 1.370 . S
C378 H396 0.948 . S
Zn379 N373 2.020 . S
Zn379 O388 2.039 . S
Zn379 O394 2.034 . S
Zn379 O398 2.025 . S
Zn379 O400 2.024 . S
C380 O399 1.246 . S
C380 O400 1.249 . S
N381 C382 1.307 1_556 S
N381 C383 1.322 1_556 S
N381 Zn387 2.020 . S
C382 N381 1.307 1_554 S
C382 C386 1.370 . S
C382 H393 0.948 1_554 S
C383 N381 1.322 1_554 S
C383 C384 1.400 . S
C383 H391 0.942 1_554 S
C384 C383 1.400 . S
C384 C385 1.390 . S
C384 H404 0.949 . S
C385 C384 1.390 . S
C385 C386 1.357 . S
C386 C382 1.370 . S
C386 C385 1.357 . S
C386 H405 0.950 . S
Zn387 N381 2.020 . S
Zn387 O390 2.025 . S
Zn387 O395 2.024 . S
Zn387 O397 2.039 . S
Zn387 O399 2.034 . S
O388 C372 1.251 . S
O388 Zn379 2.039 . S
C389 O394 1.246 . S
C389 O395 1.249 . S
O390 C372 1.254 . S
O390 Zn387 2.025 . S
H391 C383 0.942 1_556 S
H392 C374 0.952 . S
H393 C382 0.948 1_556 S
O394 Zn379 2.034 . S
O394 C389 1.246 . S
O395 Zn387 2.024 . S
O395 C389 1.249 . S
H396 C378 0.948 . S
O397 Zn387 2.039 . S
O397 C401 1.251 . S
O398 Zn379 2.025 . S
O398 C401 1.254 . S
O399 C380 1.246 . S
O399 Zn387 2.034 . S
O400 Zn379 2.024 . S
O400 C380 1.249 . S
C401 O397 1.251 . S
C401 O398 1.254 . S
H402 C375 0.949 . S
H403 C377 0.950 . S
H404 C384 0.949 . S
H405 C386 0.950 . S
C406 O422 1.251 . S
C406 O424 1.254 . S
N407 C408 1.333 . S
N407 C412 1.307 . S
N407 Zn413 2.020 . S
C408 N407 1.333 . S
C408 C409 1.379 . S
C408 H426 0.952 . S
C409 C408 1.379 . S
C409 C410 1.390 . S
C409 H436 0.949 . S
C410 C409 1.390 . S
C410 C411 1.357 . S
C411 C410 1.357 . S
C411 C412 1.370 . S
C411 H437 0.950 . S
C412 N407 1.307 . S
C412 C411 1.370 . S
C412 H430 0.948 . S
Zn413 N407 2.020 . S
Zn413 O422 2.039 . S
Zn413 O428 2.034 . S
Zn413 O432 2.025 . S
Zn413 O434 2.024 . S
C414 O433 1.246 . S
C414 O434 1.249 . S
N415 C416 1.307 . S
N415 C417 1.333 1_545 S
N415 Zn421 2.020 . S
C416 N415 1.307 . S
C416 C420 1.370 . S
C416 H427 0.948 . S
C417 N415 1.333 1_565 S
C417 C418 1.379 . S
C417 H425 0.952 . S
C418 C417 1.379 . S
C418 C419 1.390 1_565 S
C418 H438 0.949 . S
C419 C418 1.390 1_545 S
C419 C420 1.357 . S
C420 C416 1.370 . S
C420 C419 1.357 . S
C420 H439 0.950 . S
Zn421 N415 2.020 . S
Zn421 O424 2.025 . S
Zn421 O429 2.024 . S
Zn421 O431 2.039 . S
Zn421 O433 2.034 . S
O422 C406 1.251 . S
O422 Zn413 2.039 . S
C423 O428 1.246 . S
C423 O429 1.249 . S
O424 C406 1.254 . S
O424 Zn421 2.025 . S
H425 C417 0.952 . S
H426 C408 0.952 . S
H427 C416 0.948 . S
O428 Zn413 2.034 . S
O428 C423 1.246 . S
O429 Zn421 2.024 . S
O429 C423 1.249 . S
H430 C412 0.948 . S
O431 Zn421 2.039 . S
O431 C435 1.251 1_545 S
O432 Zn413 2.025 . S
O432 C435 1.254 1_545 S
O433 C414 1.246 . S
O433 Zn421 2.034 . S
O434 Zn413 2.024 . S
O434 C414 1.249 . S
C435 O431 1.251 1_565 S
C435 O432 1.254 1_565 S
H436 C409 0.949 . S
H437 C411 0.950 . S
H438 C418 0.949 . S
H439 C420 0.950 . S
H440 C452 0.930 1_655 S
H441 C454 0.930 . S
H442 C455 0.930 . S
H443 C459 0.959 . S
H444 C459 0.959 . S
H445 C459 0.961 . S
H446 C460 0.960 . S
H447 C460 0.961 . S
H448 C460 0.959 . S
H449 C463 0.929 . S
H450 C464 0.931 . S
H451 C466 0.937 . S
C452 H440 0.930 1_455 S
C452 C453 1.399 . S
C452 C457 1.399 . S
C453 C452 1.399 . S
C453 C454 1.376 . S
C454 H441 0.930 . S
C454 C453 1.376 . S
C454 C455 1.388 . S
C455 H442 0.930 . S
C455 C454 1.388 . S
C455 C456 1.390 . S
C456 C455 1.390 . S
C456 C457 1.394 . S
C456 C462 1.465 . S
C457 C452 1.399 . S
C457 C456 1.394 . S
C457 C458 1.515 . S
C458 C457 1.515 . S
C458 C459 1.506 1_455 S
C458 C460 1.560 . S
C458 C461 1.524 . S
C459 H443 0.959 . S
C459 H444 0.959 . S
C459 H445 0.961 . S
C459 C458 1.506 1_655 S
C460 H446 0.960 . S
C460 H447 0.961 . S
C460 H448 0.959 . S
C460 C458 1.560 . S
C461 C458 1.524 . S
C461 C462 1.396 . S
C461 C466 1.390 . S
C462 C456 1.465 . S
C462 C461 1.396 . S
C462 C463 1.399 . S
C463 H449 0.929 . S
C463 C462 1.399 . S
C463 C464 1.385 . S
C464 H450 0.931 . S
C464 C463 1.385 . S
C464 C465 1.389 . S
C465 C464 1.389 . S
C465 C466 1.387 . S
C466 H451 0.937 . S
C466 C461 1.390 . S
C466 C465 1.387 . S
H467 C479 0.930 . S
H468 C481 0.930 . S
H469 C482 0.930 . S
H470 C486 0.959 . S
H471 C486 0.959 . S
H472 C486 0.961 . S
H473 C487 0.960 . S
H474 C487 0.961 . S
H475 C487 0.959 . S
H476 C490 0.929 . S
H477 C491 0.931 . S
H478 C493 0.930 . S
C479 H467 0.930 . S
C479 C480 1.399 . S
C479 C484 1.399 . S
C480 C479 1.399 . S
C480 C481 1.376 1_655 S
C481 H468 0.930 . S
C481 C480 1.376 1_455 S
C481 C482 1.388 . S
C482 H469 0.930 . S
C482 C481 1.388 . S
C482 C483 1.390 . S
C483 C482 1.390 . S
C483 C484 1.394 1_455 S
C483 C489 1.465 . S
C484 C479 1.399 . S
C484 C483 1.394 1_655 S
C484 C485 1.516 . S
C485 C484 1.516 . S
C485 C486 1.502 . S
C485 C487 1.561 . S
C485 C488 1.526 . S
C486 H470 0.959 . S
C486 H471 0.959 . S
C486 H472 0.961 . S
C486 C485 1.502 . S
C487 H473 0.960 . S
C487 H474 0.961 . S
C487 H475 0.959 . S
C487 C485 1.561 . S
C488 C485 1.526 . S
C488 C489 1.396 1_655 S
C488 C493 1.390 . S
C489 C483 1.465 . S
C489 C488 1.396 1_455 S
C489 C490 1.399 . S
C490 H476 0.929 . S
C490 C489 1.399 . S
C490 C491 1.385 . S
C491 H477 0.931 . S
C491 C490 1.385 . S
C491 C492 1.389 1_455 S
C492 C491 1.389 1_655 S
C492 C493 1.387 . S
C493 H478 0.930 . S
C493 C488 1.390 . S
C493 C492 1.387 . S
H494 C506 0.930 . S
H495 C508 0.930 . S
H496 C509 0.930 . S
H497 C513 0.959 . S
H498 C513 0.959 . S
H499 C513 0.961 . S
H500 C514 0.960 . S
H501 C514 0.961 . S
H502 C514 0.959 . S
H503 C517 0.929 . S
H504 C518 0.931 . S
H505 C520 0.930 . S
C506 H494 0.930 . S
C506 C507 1.399 . S
C506 C511 1.399 . S
C507 C506 1.399 . S
C507 C508 1.376 . S
C508 H495 0.930 . S
C508 C507 1.376 . S
C508 C509 1.388 . S
C509 H496 0.930 . S
C509 C508 1.388 . S
C509 C510 1.390 . S
C510 C509 1.390 . S
C510 C511 1.394 . S
C510 C516 1.465 . S
C511 C506 1.399 . S
C511 C510 1.394 . S
C511 C512 1.516 . S
C512 C511 1.516 . S
C512 C513 1.502 . S
C512 C514 1.561 1_455 S
C512 C515 1.526 . S
C513 H497 0.959 . S
C513 H498 0.959 . S
C513 H499 0.961 . S
C513 C512 1.502 . S
C514 H500 0.960 . S
C514 H501 0.961 . S
C514 H502 0.959 . S
C514 C512 1.561 1_655 S
C515 C512 1.526 . S
C515 C516 1.396 . S
C515 C520 1.390 . S
C516 C510 1.465 . S
C516 C515 1.396 . S
C516 C517 1.399 . S
C517 H503 0.929 . S
C517 C516 1.399 . S
C517 C518 1.385 . S
C518 H504 0.931 . S
C518 C517 1.385 . S
C518 C519 1.389 . S
C519 C518 1.389 . S
C519 C520 1.387 . S
C520 H505 0.930 . S
C520 C515 1.390 . S
C520 C519 1.387 . S
H521 C533 0.930 . S
H522 C535 0.930 . S
H523 C536 0.930 . S
H524 C540 0.959 . S
H525 C540 0.959 . S
H526 C540 0.961 . S
H527 C541 0.960 . S
H528 C541 0.961 . S
H529 C541 0.959 1_655 S
H530 C544 0.929 . S
H531 C545 0.931 . S
H532 C547 0.930 . S
C533 H521 0.930 . S
C533 C534 1.399 1_455 S
C533 C538 1.399 . S
C534 C533 1.399 1_655 S
C534 C535 1.376 . S
C535 H522 0.930 . S
C535 C534 1.376 . S
C535 C536 1.388 . S
C536 H523 0.930 . S
C536 C535 1.388 . S
C536 C537 1.390 . S
C537 C536 1.390 . S
C537 C538 1.394 1_655 S
C537 C543 1.465 . S
C538 C533 1.399 . S
C538 C537 1.394 1_455 S
C538 C539 1.516 . S
C539 C538 1.516 . S
C539 C540 1.502 . S
C539 C541 1.561 . S
C539 C542 1.526 . S
C540 H524 0.959 . S
C540 H525 0.959 . S
C540 H526 0.961 . S
C540 C539 1.502 . S
C541 H527 0.960 . S
C541 H528 0.961 . S
C541 H529 0.959 1_455 S
C541 C539 1.561 . S
C542 C539 1.526 . S
C542 C543 1.396 1_455 S
C542 C547 1.390 . S
C543 C537 1.465 . S
C543 C542 1.396 1_655 S
C543 C544 1.399 . S
C544 H530 0.929 . S
C544 C543 1.399 . S
C544 C545 1.385 . S
C545 H531 0.931 . S
C545 C544 1.385 . S
C545 C546 1.389 . S
C546 C545 1.389 . S
C546 C547 1.387 1_655 S
C547 H532 0.930 . S
C547 C542 1.390 . S
C547 C546 1.387 1_455 S
H548 C560 0.930 1_565 S
H549 C562 0.930 . S
H550 C563 0.930 . S
H551 C567 0.959 1_545 S
H552 C567 0.959 . S
H553 C567 0.961 . S
H554 C568 0.960 . S
H555 C568 0.961 . S
H556 C568 0.959 . S
H557 C571 0.929 . S
H558 C572 0.929 1_556 S
H559 C574 0.911 1_565 S
C560 H548 0.930 1_545 S
C560 C561 1.399 . S
C560 C565 1.399 . S
C561 C560 1.399 . S
C561 C562 1.376 . S
C562 H549 0.930 . S
C562 C561 1.376 . S
C562 C563 1.388 . S
C563 H550 0.930 . S
C563 C562 1.388 . S
C563 C564 1.390 . S
C564 C563 1.390 . S
C564 C565 1.394 . S
C564 C570 1.465 . S
C565 C560 1.399 . S
C565 C564 1.394 . S
C565 C566 1.516 1_545 S
C566 C565 1.516 1_565 S
C566 C567 1.502 . S
C566 C568 1.561 . S
C566 C569 1.526 1_565 S
C567 H551 0.959 1_565 S
C567 H552 0.959 . S
C567 H553 0.961 . S
C567 C566 1.502 . S
C568 H554 0.960 . S
C568 H555 0.961 . S
C568 H556 0.959 . S
C568 C566 1.561 . S
C569 C566 1.526 1_545 S
C569 C570 1.396 . S
C569 C574 1.395 . S
C570 C564 1.465 . S
C570 C569 1.396 . S
C570 C571 1.399 . S
C571 H557 0.929 . S
C571 C570 1.399 . S
C571 C572 1.385 . S
C572 H558 0.929 1_554 S
C572 C571 1.385 . S
C572 C573 1.389 . S
C573 C572 1.389 . S
C573 C574 1.400 . S
C574 H559 0.911 1_545 S
C574 C569 1.395 . S
C574 C573 1.400 . S
H575 C587 0.930 . S
H576 C589 0.930 . S
H577 C590 0.930 . S
H578 C594 0.959 . S
H579 C594 0.959 . S
H580 C594 0.961 . S
H581 C595 0.960 . S
H582 C595 0.961 . S
H583 C595 0.959 . S
H584 C598 0.929 . S
H585 C599 0.931 . S
H586 C601 0.930 . S
C587 H575 0.930 . S
C587 C588 1.399 . S
C587 C592 1.399 . S
C588 C587 1.399 . S
C588 C589 1.376 . S
C589 H576 0.930 . S
C589 C588 1.376 . S
C589 C590 1.388 . S
C590 H577 0.930 . S
C590 C589 1.388 . S
C590 C591 1.390 . S
C591 C590 1.390 . S
C591 C592 1.394 . S
C591 C597 1.465 . S
C592 C587 1.399 . S
C592 C591 1.394 . S
C592 C593 1.516 . S
C593 C592 1.516 . S
C593 C594 1.502 . S
C593 C595 1.561 . S
C593 C596 1.526 . S
C594 H578 0.959 . S
C594 H579 0.959 . S
C594 H580 0.961 . S
C594 C593 1.502 . S
C595 H581 0.960 . S
C595 H582 0.961 . S
C595 H583 0.959 . S
C595 C593 1.561 . S
C596 C593 1.526 . S
C596 C597 1.396 . S
C596 C601 1.390 . S
C597 C591 1.465 . S
C597 C596 1.396 . S
C597 C598 1.399 . S
C598 H584 0.929 . S
C598 C597 1.399 . S
C598 C599 1.385 . S
C599 H585 0.931 . S
C599 C598 1.385 . S
C599 C600 1.389 . S
C600 C599 1.389 . S
C600 C601 1.387 . S
C601 H586 0.930 . S
C601 C596 1.390 . S
C601 C600 1.387 . S
H602 C614 0.930 . S
H603 C616 0.930 . S
H604 C617 0.930 . S
H605 C621 0.959 . S
H606 C621 0.959 . S
H607 C621 0.961 . S
H608 C622 0.960 . S
H609 C622 0.961 . S
H610 C622 0.959 . S
H611 C625 0.929 . S
H612 C626 0.931 . S
H613 C628 0.930 1_565 S
C614 H602 0.930 . S
C614 C615 1.399 1_565 S
C614 C619 1.401 1_565 S
C615 C614 1.399 1_545 S
C615 C616 1.376 . S
C616 H603 0.930 . S
C616 C615 1.376 . S
C616 C617 1.388 . S
C617 H604 0.930 . S
C617 C616 1.388 . S
C617 C618 1.390 . S
C618 C617 1.390 . S
C618 C619 1.390 . S
C618 C624 1.465 . S
C619 C614 1.401 1_545 S
C619 C618 1.390 . S
C619 C620 1.518 1_545 S
C620 C619 1.518 1_565 S
C620 C621 1.502 . S
C620 C622 1.561 . S
C620 C623 1.526 1_565 S
C621 H605 0.959 . S
C621 H606 0.959 . S
C621 H607 0.961 . S
C621 C620 1.502 . S
C622 H608 0.960 . S
C622 H609 0.961 . S
C622 H610 0.959 . S
C622 C620 1.561 . S
C623 C620 1.526 1_545 S
C623 C624 1.396 . S
C623 C628 1.390 . S
C624 C618 1.465 . S
C624 C623 1.396 . S
C624 C625 1.399 . S
C625 H611 0.929 . S
C625 C624 1.399 . S
C625 C626 1.385 . S
C626 H612 0.931 . S
C626 C625 1.385 . S
C626 C627 1.389 . S
C627 C626 1.389 . S
C627 C628 1.387 . S
C628 H613 0.930 1_545 S
C628 C623 1.390 . S
C628 C627 1.387 . S
H629 C641 0.930 . S
H630 C643 0.930 . S
H631 C644 0.930 . S
H632 C648 0.959 . S
H633 C648 0.959 . S
H634 C648 0.961 . S
H635 C649 0.960 . S
H636 C649 0.961 . S
H637 C649 0.959 . S
H638 C652 0.929 . S
H639 C653 0.931 . S
H640 C655 0.930 . S
C641 H629 0.930 . S
C641 C642 1.399 . S
C641 C646 1.399 . S
C642 C641 1.399 . S
C642 C643 1.376 . S
C643 H630 0.930 . S
C643 C642 1.376 . S
C643 C644 1.388 . S
C644 H631 0.930 . S
C644 C643 1.388 . S
C644 C645 1.390 . S
C645 C644 1.390 . S
C645 C646 1.394 . S
C645 C651 1.465 . S
C646 C641 1.399 . S
C646 C645 1.394 . S
C646 C647 1.516 . S
C647 C646 1.516 . S
C647 C648 1.502 . S
C647 C649 1.561 . S
C647 C650 1.526 . S
C648 H632 0.959 . S
C648 H633 0.959 . S
C648 H634 0.961 . S
C648 C647 1.502 . S
C649 H635 0.960 . S
C649 H636 0.961 . S
C649 H637 0.959 . S
C649 C647 1.561 . S
C650 C647 1.526 . S
C650 C651 1.396 . S
C650 C655 1.390 . S
C651 C645 1.465 . S
C651 C650 1.396 . S
C651 C652 1.399 . S
C652 H638 0.929 . S
C652 C651 1.399 . S
C652 C653 1.385 . S
C653 H639 0.931 . S
C653 C652 1.385 . S
C653 C654 1.389 . S
C654 C653 1.389 . S
C654 C655 1.387 . S
C655 H640 0.930 . S
C655 C650 1.390 . S
C655 C654 1.387 . S
H656 C668 0.930 . S
H657 C670 0.930 . S
H658 C671 0.930 . S
H659 C675 0.959 . S
H660 C675 0.959 . S
H661 C675 0.961 . S
H662 C676 0.960 . S
H663 C676 0.961 . S
H664 C676 0.959 . S
H665 C679 0.929 . S
H666 C680 0.931 . S
H667 C682 0.930 . S
C668 H656 0.930 . S
C668 C669 1.399 1_556 S
C668 C673 1.401 . S
C669 C668 1.399 1_554 S
C669 C670 1.376 . S
C670 H657 0.930 . S
C670 C669 1.376 . S
C670 C671 1.388 . S
C671 H658 0.930 . S
C671 C670 1.388 . S
C671 C672 1.390 . S
C672 C671 1.390 . S
C672 C673 1.376 1_554 S
C672 C678 1.465 . S
C673 C668 1.401 . S
C673 C672 1.376 1_556 S
C673 C674 1.530 . S
C674 C673 1.530 . S
C674 C675 1.502 . S
C674 C676 1.561 . S
C674 C677 1.530 . S
C675 H659 0.959 . S
C675 H660 0.959 . S
C675 H661 0.961 . S
C675 C674 1.502 . S
C676 H662 0.960 . S
C676 H663 0.961 . S
C676 H664 0.959 . S
C676 C674 1.561 . S
C677 C674 1.530 . S
C677 C678 1.390 1_556 S
C677 C682 1.391 . S
C678 C672 1.465 . S
C678 C677 1.390 1_554 S
C678 C679 1.399 . S
C679 H665 0.929 . S
C679 C678 1.399 . S
C679 C680 1.385 . S
C680 H666 0.931 . S
C680 C679 1.385 . S
C680 C681 1.389 . S
C681 C680 1.389 . S
C681 C682 1.387 1_554 S
C682 H667 0.930 . S
C682 C677 1.391 . S
C682 C681 1.387 1_556 S
H683 C695 0.930 . S
H684 C697 0.930 . S
H685 C698 0.930 . S
H686 C702 0.959 . S
H687 C702 0.959 . S
H688 C702 0.961 . S
H689 C703 0.960 . S
H690 C703 0.961 . S
H691 C703 0.959 . S
H692 C706 0.929 . S
H693 C707 0.931 . S
H694 C709 0.930 . S
C695 H683 0.930 . S
C695 C696 1.399 . S
C695 C700 1.399 . S
C696 C695 1.399 . S
C696 C697 1.376 . S
C697 H684 0.930 . S
C697 C696 1.376 . S
C697 C698 1.388 . S
C698 H685 0.930 . S
C698 C697 1.388 . S
C698 C699 1.390 . S
C699 C698 1.390 . S
C699 C700 1.394 . S
C699 C705 1.465 . S
C700 C695 1.399 . S
C700 C699 1.394 . S
C700 C701 1.516 . S
C701 C700 1.516 . S
C701 C702 1.502 . S
C701 C703 1.561 . S
C701 C704 1.526 . S
C702 H686 0.959 . S
C702 H687 0.959 . S
C702 H688 0.961 . S
C702 C701 1.502 . S
C703 H689 0.960 . S
C703 H690 0.961 . S
C703 H691 0.959 . S
C703 C701 1.561 . S
C704 C701 1.526 . S
C704 C705 1.396 . S
C704 C709 1.390 . S
C705 C699 1.465 . S
C705 C704 1.396 . S
C705 C706 1.399 . S
C706 H692 0.929 . S
C706 C705 1.399 . S
C706 C707 1.385 . S
C707 H693 0.931 . S
C707 C706 1.385 . S
C707 C708 1.389 . S
C708 C707 1.389 . S
C708 C709 1.387 . S
C709 H694 0.930 . S
C709 C704 1.390 . S
C709 C708 1.387 . S
H710 C722 0.930 . S
H711 C724 0.930 . S
H712 C725 0.930 . S
H713 C729 0.959 . S
H714 C729 0.959 . S
H715 C729 0.961 . S
H716 C730 0.960 . S
H717 C730 0.961 . S
H718 C730 0.959 . S
H719 C733 0.929 . S
H720 C734 0.931 . S
H721 C736 0.930 . S
C722 H710 0.930 . S
C722 C723 1.399 . S
C722 C727 1.399 . S
C723 C722 1.399 . S
C723 C724 1.376 . S
C724 H711 0.930 . S
C724 C723 1.376 . S
C724 C725 1.388 . S
C725 H712 0.930 . S
C725 C724 1.388 . S
C725 C726 1.390 . S
C726 C725 1.390 . S
C726 C727 1.394 . S
C726 C732 1.465 . S
C727 C722 1.399 . S
C727 C726 1.394 . S
C727 C728 1.516 . S
C728 C727 1.516 . S
C728 C729 1.502 . S
C728 C730 1.561 . S
C728 C731 1.526 . S
C729 H713 0.959 . S
C729 H714 0.959 . S
C729 H715 0.961 . S
C729 C728 1.502 . S
C730 H716 0.960 . S
C730 H717 0.961 . S
C730 H718 0.959 . S
C730 C728 1.561 . S
C731 C728 1.526 . S
C731 C732 1.396 . S
C731 C736 1.390 . S
C732 C726 1.465 . S
C732 C731 1.396 . S
C732 C733 1.399 . S
C733 H719 0.929 . S
C733 C732 1.399 . S
C733 C734 1.385 . S
C734 H720 0.931 . S
C734 C733 1.385 . S
C734 C735 1.389 . S
C735 C734 1.389 . S
C735 C736 1.387 . S
C736 H721 0.930 . S
C736 C731 1.390 . S
C736 C735 1.387 . S
H737 C749 0.930 . S
H738 C751 0.930 . S
H739 C752 0.930 . S
H740 C756 0.959 . S
H741 C756 0.959 . S
H742 C756 0.961 . S
H743 C757 0.960 . S
H744 C757 0.961 . S
H745 C757 0.959 . S
H746 C760 0.929 . S
H747 C761 0.931 . S
H748 C763 0.930 . S
C749 H737 0.930 . S
C749 C750 1.399 . S
C749 C754 1.399 . S
C750 C749 1.399 . S
C750 C751 1.376 . S
C751 H738 0.930 . S
C751 C750 1.376 . S
C751 C752 1.388 . S
C752 H739 0.930 . S
C752 C751 1.388 . S
C752 C753 1.390 . S
C753 C752 1.390 . S
C753 C754 1.394 . S
C753 C759 1.465 . S
C754 C749 1.399 . S
C754 C753 1.394 . S
C754 C755 1.516 . S
C755 C754 1.516 . S
C755 C756 1.502 . S
C755 C757 1.561 . S
C755 C758 1.526 . S
C756 H740 0.959 . S
C756 H741 0.959 . S
C756 H742 0.961 . S
C756 C755 1.502 . S
C757 H743 0.960 . S
C757 H744 0.961 . S
C757 H745 0.959 . S
C757 C755 1.561 . S
C758 C755 1.526 . S
C758 C759 1.396 . S
C758 C763 1.390 . S
C759 C753 1.465 . S
C759 C758 1.396 . S
C759 C760 1.399 . S
C760 H746 0.929 . S
C760 C759 1.399 . S
C760 C761 1.385 . S
C761 H747 0.931 . S
C761 C760 1.385 . S
C761 C762 1.389 . S
C762 C761 1.389 . S
C762 C763 1.387 . S
C763 H748 0.930 . S
C763 C758 1.390 . S
C763 C762 1.387 . S
H764 C776 0.930 . S
H765 C778 0.930 . S
H766 C779 0.930 . S
H767 C783 0.959 . S
H768 C783 0.959 . S
H769 C783 0.961 . S
H770 C784 0.960 . S
H771 C784 0.961 . S
H772 C784 0.959 . S
H773 C787 0.929 . S
H774 C788 0.931 . S
H775 C790 0.930 . S
C776 H764 0.930 . S
C776 C777 1.399 . S
C776 C781 1.399 . S
C777 C776 1.399 . S
C777 C778 1.376 . S
C778 H765 0.930 . S
C778 C777 1.376 . S
C778 C779 1.388 . S
C779 H766 0.930 . S
C779 C778 1.388 . S
C779 C780 1.390 . S
C780 C779 1.390 . S
C780 C781 1.394 . S
C780 C786 1.465 . S
C781 C776 1.399 . S
C781 C780 1.394 . S
C781 C782 1.516 . S
C782 C781 1.516 . S
C782 C783 1.502 . S
C782 C784 1.561 . S
C782 C785 1.526 . S
C783 H767 0.959 . S
C783 H768 0.959 . S
C783 H769 0.961 . S
C783 C782 1.502 . S
C784 H770 0.960 . S
C784 H771 0.961 . S
C784 H772 0.959 . S
C784 C782 1.561 . S
C785 C782 1.526 . S
C785 C786 1.396 . S
C785 C790 1.390 . S
C786 C780 1.465 . S
C786 C785 1.396 . S
C786 C787 1.399 . S
C787 H773 0.929 . S
C787 C786 1.399 . S
C787 C788 1.385 . S
C788 H774 0.931 . S
C788 C787 1.385 . S
C788 C789 1.389 . S
C789 C788 1.389 . S
C789 C790 1.387 . S
C790 H775 0.930 . S
C790 C785 1.390 . S
C790 C789 1.387 . S
H791 C803 0.930 . S
H792 C805 0.930 . S
H793 C806 0.930 . S
H794 C810 0.959 . S
H795 C810 0.959 . S
H796 C810 0.961 . S
H797 C811 0.960 . S
H798 C811 0.961 . S
H799 C811 0.959 . S
H800 C814 0.929 . S
H801 C815 0.931 . S
H802 C817 0.930 . S
C803 H791 0.930 . S
C803 C804 1.399 . S
C803 C808 1.399 . S
C804 C803 1.399 . S
C804 C805 1.376 . S
C805 H792 0.930 . S
C805 C804 1.376 . S
C805 C806 1.388 . S
C806 H793 0.930 . S
C806 C805 1.388 . S
C806 C807 1.390 . S
C807 C806 1.390 . S
C807 C808 1.394 . S
C807 C813 1.465 . S
C808 C803 1.399 . S
C808 C807 1.394 . S
C808 C809 1.516 . S
C809 C808 1.516 . S
C809 C810 1.502 . S
C809 C811 1.561 . S
C809 C812 1.526 . S
C810 H794 0.959 . S
C810 H795 0.959 . S
C810 H796 0.961 . S
C810 C809 1.502 . S
C811 H797 0.960 . S
C811 H798 0.961 . S
C811 H799 0.959 . S
C811 C809 1.561 . S
C812 C809 1.526 . S
C812 C813 1.396 . S
C812 C817 1.390 . S
C813 C807 1.465 . S
C813 C812 1.396 . S
C813 C814 1.399 . S
C814 H800 0.929 . S
C814 C813 1.399 . S
C814 C815 1.385 . S
C815 H801 0.931 . S
C815 C814 1.385 . S
C815 C816 1.389 . S
C816 C815 1.389 . S
C816 C817 1.387 . S
C817 H802 0.930 . S
C817 C812 1.390 . S
C817 C816 1.387 . S
H818 C830 0.930 . S
H819 C832 0.930 . S
H820 C833 0.930 . S
H821 C837 0.959 . S
H822 C837 0.959 . S
H823 C837 0.961 . S
H824 C838 0.960 . S
H825 C838 0.961 . S
H826 C838 0.959 . S
H827 C841 0.929 . S
H828 C842 0.931 . S
H829 C844 0.930 . S
C830 H818 0.930 . S
C830 C831 1.399 . S
C830 C835 1.399 . S
C831 C830 1.399 . S
C831 C832 1.376 . S
C832 H819 0.930 . S
C832 C831 1.376 . S
C832 C833 1.388 . S
C833 H820 0.930 . S
C833 C832 1.388 . S
C833 C834 1.390 . S
C834 C833 1.390 . S
C834 C835 1.394 . S
C834 C840 1.465 . S
C835 C830 1.399 . S
C835 C834 1.394 . S
C835 C836 1.516 . S
C836 C835 1.516 . S
C836 C837 1.502 . S
C836 C838 1.561 . S
C836 C839 1.526 . S
C837 H821 0.959 . S
C837 H822 0.959 . S
C837 H823 0.961 . S
C837 C836 1.502 . S
C838 H824 0.960 . S
C838 H825 0.961 . S
C838 H826 0.959 . S
C838 C836 1.561 . S
C839 C836 1.526 . S
C839 C840 1.396 . S
C839 C844 1.390 . S
C840 C834 1.465 . S
C840 C839 1.396 . S
C840 C841 1.399 . S
C841 H827 0.929 . S
C841 C840 1.399 . S
C841 C842 1.385 . S
C842 H828 0.931 . S
C842 C841 1.385 . S
C842 C843 1.389 . S
C843 C842 1.389 . S
C843 C844 1.387 . S
C844 H829 0.930 . S
C844 C839 1.390 . S
C844 C843 1.387 . S
H845 C857 0.930 . S
H846 C859 0.930 . S
H847 C860 0.930 . S
H848 C864 0.959 . S
H849 C864 0.959 . S
H850 C864 0.961 . S
H851 C865 0.960 . S
H852 C865 0.961 . S
H853 C865 0.959 . S
H854 C868 0.929 . S
H855 C869 0.931 . S
H856 C871 0.930 . S
C857 H845 0.930 . S
C857 C858 1.399 . S
C857 C862 1.399 . S
C858 C857 1.399 . S
C858 C859 1.376 . S
C859 H846 0.930 . S
C859 C858 1.376 . S
C859 C860 1.388 . S
C860 H847 0.930 . S
C860 C859 1.388 . S
C860 C861 1.390 . S
C861 C860 1.390 . S
C861 C862 1.394 . S
C861 C867 1.465 . S
C862 C857 1.399 . S
C862 C861 1.394 . S
C862 C863 1.516 . S
C863 C862 1.516 . S
C863 C864 1.502 . S
C863 C865 1.561 . S
C863 C866 1.526 . S
C864 H848 0.959 . S
C864 H849 0.959 . S
C864 H850 0.961 . S
C864 C863 1.502 . S
C865 H851 0.960 . S
C865 H852 0.961 . S
C865 H853 0.959 . S
C865 C863 1.561 . S
C866 C863 1.526 . S
C866 C867 1.396 . S
C866 C871 1.390 . S
C867 C861 1.465 . S
C867 C866 1.396 . S
C867 C868 1.399 . S
C868 H854 0.929 . S
C868 C867 1.399 . S
C868 C869 1.385 . S
C869 H855 0.931 . S
C869 C868 1.385 . S
C869 C870 1.389 . S
C870 C869 1.389 . S
C870 C871 1.387 . S
C871 H856 0.930 . S
C871 C866 1.390 . S
C871 C870 1.387 . S
H872 C884 0.930 . S
H873 C886 0.930 . S
H874 C887 0.930 . S
H875 C891 0.959 . S
H876 C891 0.959 . S
H877 C891 0.961 . S
H878 C892 0.960 . S
H879 C892 0.961 . S
H880 C892 0.959 . S
H881 C895 0.929 . S
H882 C896 0.931 . S
H883 C898 0.930 . S
C884 H872 0.930 . S
C884 C885 1.399 . S
C884 C889 1.399 . S
C885 C884 1.399 . S
C885 C886 1.376 . S
C886 H873 0.930 . S
C886 C885 1.376 . S
C886 C887 1.388 . S
C887 H874 0.930 . S
C887 C886 1.388 . S
C887 C888 1.390 . S
C888 C887 1.390 . S
C888 C889 1.394 . S
C888 C894 1.465 . S
C889 C884 1.399 . S
C889 C888 1.394 . S
C889 C890 1.516 . S
C890 C889 1.516 . S
C890 C891 1.502 . S
C890 C892 1.561 . S
C890 C893 1.526 . S
C891 H875 0.959 . S
C891 H876 0.959 . S
C891 H877 0.961 . S
C891 C890 1.502 . S
C892 H878 0.960 . S
C892 H879 0.961 . S
C892 H880 0.959 . S
C892 C890 1.561 . S
C893 C890 1.526 . S
C893 C894 1.396 . S
C893 C898 1.390 . S
C894 C888 1.465 . S
C894 C893 1.396 . S
C894 C895 1.399 . S
C895 H881 0.929 . S
C895 C894 1.399 . S
C895 C896 1.385 . S
C896 H882 0.931 . S
C896 C895 1.385 . S
C896 C897 1.389 . S
C897 C896 1.389 . S
C897 C898 1.387 . S
C898 H883 0.930 . S
C898 C893 1.390 . S
C898 C897 1.387 . S
H899 C911 0.930 . S
H900 C913 0.930 . S
H901 C914 0.930 . S
H902 C918 0.959 . S
H903 C918 0.959 . S
H904 C918 0.961 . S
H905 C919 0.960 . S
H906 C919 0.961 . S
H907 C919 0.959 . S
H908 C922 0.929 . S
H909 C923 0.931 . S
H910 C925 0.930 . S
C911 H899 0.930 . S
C911 C912 1.399 . S
C911 C916 1.399 . S
C912 C911 1.399 . S
C912 C913 1.376 1_565 S
C913 H900 0.930 . S
C913 C912 1.376 1_545 S
C913 C914 1.388 . S
C914 H901 0.930 . S
C914 C913 1.388 . S
C914 C915 1.390 . S
C915 C914 1.390 . S
C915 C916 1.394 1_545 S
C915 C921 1.465 . S
C916 C911 1.399 . S
C916 C915 1.394 1_565 S
C916 C917 1.516 . S
C917 C916 1.516 . S
C917 C918 1.502 . S
C917 C919 1.561 . S
C917 C920 1.526 . S
C918 H902 0.959 . S
C918 H903 0.959 . S
C918 H904 0.961 . S
C918 C917 1.502 . S
C919 H905 0.960 . S
C919 H906 0.961 . S
C919 H907 0.959 . S
C919 C917 1.561 . S
C920 C917 1.526 . S
C920 C921 1.396 1_565 S
C920 C925 1.390 . S
C921 C915 1.465 . S
C921 C920 1.396 1_545 S
C921 C922 1.399 . S
C922 H908 0.929 . S
C922 C921 1.399 . S
C922 C923 1.385 . S
C923 H909 0.931 . S
C923 C922 1.385 . S
C923 C924 1.389 . S
C924 C923 1.389 . S
C924 C925 1.387 1_545 S
C925 H910 0.930 . S
C925 C920 1.390 . S
C925 C924 1.387 1_565 S
H926 C938 0.930 . S
H927 C940 0.930 . S
H928 C941 0.930 . S
H929 C945 0.959 . S
H930 C945 0.959 . S
H931 C945 0.961 . S
H932 C946 0.960 . S
H933 C946 0.961 . S
H934 C946 0.959 . S
H935 C949 0.929 . S
H936 C950 0.931 . S
H937 C952 0.930 . S
C938 H926 0.930 . S
C938 C939 1.399 . S
C938 C943 1.399 . S
C939 C938 1.399 . S
C939 C940 1.376 . S
C940 H927 0.930 . S
C940 C939 1.376 . S
C940 C941 1.388 . S
C941 H928 0.930 . S
C941 C940 1.388 . S
C941 C942 1.390 . S
C942 C941 1.390 . S
C942 C943 1.394 . S
C942 C948 1.465 . S
C943 C938 1.399 . S
C943 C942 1.394 . S
C943 C944 1.516 . S
C944 C943 1.516 . S
C944 C945 1.502 . S
C944 C946 1.561 . S
C944 C947 1.526 . S
C945 H929 0.959 . S
C945 H930 0.959 . S
C945 H931 0.961 . S
C945 C944 1.502 . S
C946 H932 0.960 . S
C946 H933 0.961 . S
C946 H934 0.959 . S
C946 C944 1.561 . S
C947 C944 1.526 . S
C947 C948 1.396 . S
C947 C952 1.390 . S
C948 C942 1.465 . S
C948 C947 1.396 . S
C948 C949 1.399 . S
C949 H935 0.929 . S
C949 C948 1.399 . S
C949 C950 1.385 . S
C950 H936 0.931 . S
C950 C949 1.385 . S
C950 C951 1.389 . S
C951 C950 1.389 . S
C951 C952 1.387 . S
C952 H937 0.930 . S
C952 C947 1.390 . S
C952 C951 1.387 . S
H953 C965 0.930 . S
H954 C967 0.930 . S
H955 C968 0.930 . S
H956 C972 0.959 . S
H957 C972 0.959 . S
H958 C972 0.961 . S
H959 C973 0.960 . S
H960 C973 0.961 . S
H961 C973 0.959 . S
H962 C976 0.929 . S
H963 C977 0.931 . S
H964 C979 0.930 . S
C965 H953 0.930 . S
C965 C966 1.399 1_565 S
C965 C970 1.399 . S
C966 C965 1.399 1_545 S
C966 C967 1.376 . S
C967 H954 0.930 . S
C967 C966 1.376 . S
C967 C968 1.388 . S
C968 H955 0.930 . S
C968 C967 1.388 . S
C968 C969 1.390 . S
C969 C968 1.390 . S
C969 C970 1.394 1_545 S
C969 C975 1.465 . S
C970 C965 1.399 . S
C970 C969 1.394 1_565 S
C970 C971 1.516 . S
C971 C970 1.516 . S
C971 C972 1.502 . S
C971 C973 1.561 . S
C971 C974 1.526 . S
C972 H956 0.959 . S
C972 H957 0.959 . S
C972 H958 0.961 . S
C972 C971 1.502 . S
C973 H959 0.960 . S
C973 H960 0.961 . S
C973 H961 0.959 . S
C973 C971 1.561 . S
C974 C971 1.526 . S
C974 C975 1.396 1_565 S
C974 C979 1.390 . S
C975 C969 1.465 . S
C975 C974 1.396 1_545 S
C975 C976 1.399 . S
C976 H962 0.929 . S
C976 C975 1.399 . S
C976 C977 1.385 . S
C977 H963 0.931 . S
C977 C976 1.385 . S
C977 C978 1.398 . S
C978 C977 1.398 . S
C978 C979 1.380 1_545 S
C979 H964 0.930 . S
C979 C974 1.390 . S
C979 C978 1.380 1_565 S
H980 C992 0.930 . S
H981 C994 0.930 . S
H982 C995 0.930 . S
H983 C999 0.959 . S
H984 C999 0.959 . S
H985 C999 0.961 . S
H986 C1000 0.960 . S
H987 C1000 0.961 . S
H988 C1000 0.959 . S
H989 C1003 0.929 . S
H990 C1004 0.931 . S
H991 C1006 0.930 . S
C992 H980 0.930 . S
C992 C993 1.399 . S
C992 C997 1.399 . S
C993 C992 1.399 . S
C993 C994 1.376 . S
C994 H981 0.930 . S
C994 C993 1.376 . S
C994 C995 1.388 . S
C995 H982 0.930 . S
C995 C994 1.388 . S
C995 C996 1.390 . S
C996 C995 1.390 . S
C996 C997 1.394 . S
C996 C1002 1.465 . S
C997 C992 1.399 . S
C997 C996 1.394 . S
C997 C998 1.516 . S
C998 C997 1.516 . S
C998 C999 1.502 . S
C998 C1000 1.561 . S
C998 C1001 1.526 . S
C999 H983 0.959 . S
C999 H984 0.959 . S
C999 H985 0.961 . S
C999 C998 1.502 . S
C1000 H986 0.960 . S
C1000 H987 0.961 . S
C1000 H988 0.959 . S
C1000 C998 1.561 . S
C1001 C998 1.526 . S
C1001 C1002 1.396 . S
C1001 C1006 1.390 . S
C1002 C996 1.465 . S
C1002 C1001 1.396 . S
C1002 C1003 1.399 . S
C1003 H989 0.929 . S
C1003 C1002 1.399 . S
C1003 C1004 1.385 . S
C1004 H990 0.931 . S
C1004 C1003 1.385 . S
C1004 C1005 1.389 . S
C1005 C1004 1.389 . S
C1005 C1006 1.387 . S
C1006 H991 0.930 . S
C1006 C1001 1.390 . S
C1006 C1005 1.387 . S
H1007 C1019 0.930 . S
H1008 C1021 0.930 . S
H1009 C1022 0.930 . S
H1010 C1026 0.959 . S
H1011 C1026 0.959 . S
H1012 C1026 0.961 . S
H1013 C1027 0.960 . S
H1014 C1027 0.961 . S
H1015 C1027 0.959 . S
H1016 C1030 0.929 . S
H1017 C1031 0.931 . S
H1018 C1033 0.930 . S
C1019 H1007 0.930 . S
C1019 C1020 1.395 1_556 S
C1019 C1024 1.399 . S
C1020 C1019 1.395 1_554 S
C1020 C1021 1.379 . S
C1021 H1008 0.930 . S
C1021 C1020 1.379 . S
C1021 C1022 1.388 . S
C1022 H1009 0.930 . S
C1022 C1021 1.388 . S
C1022 C1023 1.390 . S
C1023 C1022 1.390 . S
C1023 C1024 1.394 1_554 S
C1023 C1029 1.458 1_554 S
C1024 C1019 1.399 . S
C1024 C1023 1.394 1_556 S
C1024 C1025 1.516 . S
C1025 C1024 1.516 . S
C1025 C1026 1.502 . S
C1025 C1027 1.561 1_556 S
C1025 C1028 1.526 . S
C1026 H1010 0.959 . S
C1026 H1011 0.959 . S
C1026 H1012 0.961 . S
C1026 C1025 1.502 . S
C1027 H1013 0.960 . S
C1027 H1014 0.961 . S
C1027 H1015 0.959 . S
C1027 C1025 1.561 1_554 S
C1028 C1025 1.526 . S
C1028 C1029 1.407 . S
C1028 C1033 1.390 . S
C1029 C1023 1.458 1_556 S
C1029 C1028 1.407 . S
C1029 C1030 1.398 1_556 S
C1030 H1016 0.929 . S
C1030 C1029 1.398 1_554 S
C1030 C1031 1.385 1_554 S
C1031 H1017 0.931 . S
C1031 C1030 1.385 1_556 S
C1031 C1032 1.389 . S
C1032 C1031 1.389 . S
C1032 C1033 1.387 . S
C1033 H1018 0.930 . S
C1033 C1028 1.390 . S
C1033 C1032 1.387 . S
H1034 C1046 0.930 . S
H1035 C1048 0.930 . S
H1036 C1049 0.930 . S
H1037 C1053 0.959 . S
H1038 C1053 0.959 . S
H1039 C1053 0.961 . S
H1040 C1054 0.960 . S
H1041 C1054 0.961 . S
H1042 C1054 0.959 . S
H1043 C1057 0.929 . S
H1044 C1058 0.931 1_554 S
H1045 C1060 0.930 . S
C1046 H1034 0.930 . S
C1046 C1047 1.399 . S
C1046 C1051 1.399 . S
C1047 C1046 1.399 . S
C1047 C1048 1.376 1_556 S
C1048 H1035 0.930 . S
C1048 C1047 1.376 1_554 S
C1048 C1049 1.388 . S
C1049 H1036 0.930 . S
C1049 C1048 1.388 . S
C1049 C1050 1.390 1_554 S
C1050 C1049 1.390 1_556 S
C1050 C1051 1.394 . S
C1050 C1056 1.465 . S
C1051 C1046 1.399 . S
C1051 C1050 1.394 . S
C1051 C1052 1.516 . S
C1052 C1051 1.516 . S
C1052 C1053 1.502 . S
C1052 C1054 1.561 . S
C1052 C1055 1.526 . S
C1053 H1037 0.959 . S
C1053 H1038 0.959 . S
C1053 H1039 0.961 . S
C1053 C1052 1.502 . S
C1054 H1040 0.960 . S
C1054 H1041 0.961 . S
C1054 H1042 0.959 . S
C1054 C1052 1.561 . S
C1055 C1052 1.526 . S
C1055 C1056 1.396 . S
C1055 C1060 1.390 . S
C1056 C1050 1.465 . S
C1056 C1055 1.396 . S
C1056 C1057 1.399 1_556 S
C1057 H1043 0.929 . S
C1057 C1056 1.399 1_554 S
C1057 C1058 1.385 1_554 S
C1058 H1044 0.931 1_556 S
C1058 C1057 1.385 1_556 S
C1058 C1059 1.389 . S
C1059 C1058 1.389 . S
C1059 C1060 1.387 . S
C1060 H1045 0.930 . S
C1060 C1055 1.390 . S
C1060 C1059 1.387 . S
H1061 C1073 0.930 1_556 S
H1062 C1075 0.930 . S
H1063 C1076 0.930 . S
H1064 C1080 0.959 . S
H1065 C1080 0.959 . S
H1066 C1080 0.961 . S
H1067 C1081 0.960 . S
H1068 C1081 0.961 . S
H1069 C1081 0.959 . S
H1070 C1084 0.929 . S
H1071 C1085 0.931 . S
H1072 C1087 0.930 1_556 S
C1073 H1061 0.930 1_554 S
C1073 C1074 1.399 . S
C1073 C1078 1.399 . S
C1074 C1073 1.399 . S
C1074 C1075 1.376 . S
C1075 H1062 0.930 . S
C1075 C1074 1.376 . S
C1075 C1076 1.388 . S
C1076 H1063 0.930 . S
C1076 C1075 1.388 . S
C1076 C1077 1.390 . S
C1077 C1076 1.390 . S
C1077 C1078 1.394 . S
C1077 C1083 1.465 . S
C1078 C1073 1.399 . S
C1078 C1077 1.394 . S
C1078 C1079 1.516 1_554 S
C1079 C1078 1.516 1_556 S
C1079 C1080 1.502 . S
C1079 C1081 1.561 . S
C1079 C1082 1.526 1_556 S
C1080 H1064 0.959 . S
C1080 H1065 0.959 . S
C1080 H1066 0.961 . S
C1080 C1079 1.502 . S
C1081 H1067 0.960 . S
C1081 H1068 0.961 . S
C1081 H1069 0.959 . S
C1081 C1079 1.561 . S
C1082 C1079 1.526 1_554 S
C1082 C1083 1.396 . S
C1082 C1087 1.390 . S
C1083 C1077 1.465 . S
C1083 C1082 1.396 . S
C1083 C1084 1.399 . S
C1084 H1070 0.929 . S
C1084 C1083 1.399 . S
C1084 C1085 1.385 . S
C1085 H1071 0.931 . S
C1085 C1084 1.385 . S
C1085 C1086 1.389 . S
C1086 C1085 1.389 . S
C1086 C1087 1.387 . S
C1087 H1072 0.930 1_554 S
C1087 C1082 1.390 . S
C1087 C1086 1.387 . S
H1088 C1100 0.937 . S
H1089 C1102 0.930 . S
H1090 C1103 0.930 . S
H1091 C1107 0.959 . S
H1092 C1107 0.959 . S
H1093 C1107 0.961 . S
H1094 C1108 0.960 . S
H1095 C1108 0.961 . S
H1096 C1108 0.959 . S
H1097 C1111 0.929 . S
H1098 C1112 0.931 . S
H1099 C1114 0.930 . S
C1100 H1088 0.937 . S
C1100 C1101 1.399 . S
C1100 C1105 1.399 . S
C1101 C1100 1.399 . S
C1101 C1102 1.376 . S
C1102 H1089 0.930 . S
C1102 C1101 1.376 . S
C1102 C1103 1.388 . S
C1103 H1090 0.930 . S
C1103 C1102 1.388 . S
C1103 C1104 1.390 . S
C1104 C1103 1.390 . S
C1104 C1105 1.394 . S
C1104 C1110 1.465 . S
C1105 C1100 1.399 . S
C1105 C1104 1.394 . S
C1105 C1106 1.523 . S
C1106 C1105 1.523 . S
C1106 C1107 1.480 1_455 S
C1106 C1108 1.579 . S
C1106 C1109 1.526 . S
C1107 H1091 0.959 . S
C1107 H1092 0.959 . S
C1107 H1093 0.961 . S
C1107 C1106 1.480 1_655 S
C1108 H1094 0.960 . S
C1108 H1095 0.961 . S
C1108 H1096 0.959 . S
C1108 C1106 1.579 . S
C1109 C1106 1.526 . S
C1109 C1110 1.396 . S
C1109 C1114 1.390 1_455 S
C1110 C1104 1.465 . S
C1110 C1109 1.396 . S
C1110 C1111 1.399 . S
C1111 H1097 0.929 . S
C1111 C1110 1.399 . S
C1111 C1112 1.385 . S
C1112 H1098 0.931 . S
C1112 C1111 1.385 . S
C1112 C1113 1.388 1_455 S
C1113 C1112 1.388 1_655 S
C1113 C1114 1.387 . S
C1114 H1099 0.930 . S
C1114 C1109 1.390 1_655 S
C1114 C1113 1.387 . S
H1115 C1127 0.930 . S
H1116 C1129 0.930 . S
H1117 C1130 0.930 . S
H1118 C1134 0.959 . S
H1119 C1134 0.959 . S
H1120 C1134 0.961 . S
H1121 C1135 0.960 . S
H1122 C1135 0.961 . S
H1123 C1135 0.959 1_455 S
H1124 C1138 0.929 . S
H1125 C1139 0.931 . S
H1126 C1141 0.930 . S
C1127 H1115 0.930 . S
C1127 C1128 1.399 . S
C1127 C1132 1.399 . S
C1128 C1127 1.399 . S
C1128 C1129 1.376 1_655 S
C1129 H1116 0.930 . S
C1129 C1128 1.376 1_455 S
C1129 C1130 1.388 . S
C1130 H1117 0.930 . S
C1130 C1129 1.388 . S
C1130 C1131 1.390 . S
C1131 C1130 1.390 . S
C1131 C1132 1.394 1_455 S
C1131 C1137 1.465 . S
C1132 C1127 1.399 . S
C1132 C1131 1.394 1_655 S
C1132 C1133 1.516 . S
C1133 C1132 1.516 . S
C1133 C1134 1.502 . S
C1133 C1135 1.561 . S
C1133 C1136 1.526 . S
C1134 H1118 0.959 . S
C1134 H1119 0.959 . S
C1134 H1120 0.961 . S
C1134 C1133 1.502 . S
C1135 H1121 0.960 . S
C1135 H1122 0.961 . S
C1135 H1123 0.959 1_655 S
C1135 C1133 1.561 . S
C1136 C1133 1.526 . S
C1136 C1137 1.396 1_655 S
C1136 C1141 1.390 . S
C1137 C1131 1.465 . S
C1137 C1136 1.396 1_455 S
C1137 C1138 1.399 . S
C1138 H1124 0.929 . S
C1138 C1137 1.399 . S
C1138 C1139 1.385 . S
C1139 H1125 0.931 . S
C1139 C1138 1.385 . S
C1139 C1140 1.389 . S
C1140 C1139 1.389 . S
C1140 C1141 1.387 1_455 S
C1141 H1126 0.930 . S
C1141 C1136 1.390 . S
C1141 C1140 1.387 1_655 S
H1142 C1154 0.930 1_655 S
H1143 C1156 0.930 . S
H1144 C1157 0.930 . S
H1145 C1161 0.959 . S
H1146 C1161 0.959 . S
H1147 C1161 0.961 . S
H1148 C1162 0.960 . S
H1149 C1162 0.960 1_655 S
H1150 C1162 0.959 . S
H1151 C1165 0.929 . S
H1152 C1166 0.931 . S
H1153 C1168 0.930 1_655 S
C1154 H1142 0.930 1_455 S
C1154 C1155 1.399 . S
C1154 C1159 1.399 . S
C1155 C1154 1.399 . S
C1155 C1156 1.376 . S
C1156 H1143 0.930 . S
C1156 C1155 1.376 . S
C1156 C1157 1.388 . S
C1157 H1144 0.930 . S
C1157 C1156 1.388 . S
C1157 C1158 1.390 . S
C1158 C1157 1.390 . S
C1158 C1159 1.394 . S
C1158 C1164 1.465 . S
C1159 C1154 1.399 . S
C1159 C1158 1.394 . S
C1159 C1160 1.516 1_455 S
C1160 C1159 1.516 1_655 S
C1160 C1161 1.502 . S
C1160 C1162 1.561 1_655 S
C1160 C1163 1.526 1_655 S
C1161 H1145 0.959 . S
C1161 H1146 0.959 . S
C1161 H1147 0.961 . S
C1161 C1160 1.502 . S
C1162 H1148 0.960 . S
C1162 H1149 0.960 1_455 S
C1162 H1150 0.959 . S
C1162 C1160 1.561 1_455 S
C1163 C1160 1.526 1_455 S
C1163 C1164 1.396 . S
C1163 C1168 1.390 . S
C1164 C1158 1.465 . S
C1164 C1163 1.396 . S
C1164 C1165 1.399 . S
C1165 H1151 0.929 . S
C1165 C1164 1.399 . S
C1165 C1166 1.385 . S
C1166 H1152 0.931 . S
C1166 C1165 1.385 . S
C1166 C1167 1.389 . S
C1167 C1166 1.389 . S
C1167 C1168 1.387 . S
C1168 H1153 0.930 1_455 S
C1168 C1163 1.390 . S
C1168 C1167 1.387 . S
H1169 C1181 0.930 1_455 S
H1170 C1183 0.930 . S
H1171 C1184 0.930 . S
H1172 C1188 0.959 . S
H1173 C1188 0.959 . S
H1174 C1188 0.961 . S
H1175 C1189 0.960 . S
H1176 C1189 0.961 . S
H1177 C1189 0.959 . S
H1178 C1192 0.929 . S
H1179 C1193 0.931 . S
H1180 C1195 0.930 . S
C1181 H1169 0.930 1_655 S
C1181 C1182 1.399 . S
C1181 C1186 1.399 . S
C1182 C1181 1.399 . S
C1182 C1183 1.376 . S
C1183 H1170 0.930 . S
C1183 C1182 1.376 . S
C1183 C1184 1.388 . S
C1184 H1171 0.930 . S
C1184 C1183 1.388 . S
C1184 C1185 1.390 . S
C1185 C1184 1.390 . S
C1185 C1186 1.394 . S
C1185 C1191 1.465 . S
C1186 C1181 1.399 . S
C1186 C1185 1.394 . S
C1186 C1187 1.516 . S
C1187 C1186 1.516 . S
C1187 C1188 1.502 1_655 S
C1187 C1189 1.561 . S
C1187 C1190 1.526 . S
C1188 H1172 0.959 . S
C1188 H1173 0.959 . S
C1188 H1174 0.961 . S
C1188 C1187 1.502 1_455 S
C1189 H1175 0.960 . S
C1189 H1176 0.961 . S
C1189 H1177 0.959 . S
C1189 C1187 1.561 . S
C1190 C1187 1.526 . S
C1190 C1191 1.396 . S
C1190 C1195 1.390 . S
C1191 C1185 1.465 . S
C1191 C1190 1.396 . S
C1191 C1192 1.399 . S
C1192 H1178 0.929 . S
C1192 C1191 1.399 . S
C1192 C1193 1.385 . S
C1193 H1179 0.931 . S
C1193 C1192 1.385 . S
C1193 C1194 1.389 . S
C1194 C1193 1.389 . S
C1194 C1195 1.387 . S
C1195 H1180 0.930 . S
C1195 C1190 1.390 . S
C1195 C1194 1.387 . S
H1196 C1208 0.905 1_565 S
H1197 C1210 0.930 . S
H1198 C1211 0.930 . S
H1199 C1215 0.959 . S
H1200 C1215 0.959 . S
H1201 C1215 0.961 . S
H1202 C1216 0.960 . S
H1203 C1216 0.961 . S
H1204 C1216 0.959 . S
H1205 C1219 0.929 . S
H1206 C1220 0.931 . S
H1207 C1222 0.930 1_565 S
C1208 H1196 0.905 1_545 S
C1208 C1209 1.421 . S
C1208 C1213 1.403 . S
C1209 C1208 1.421 . S
C1209 C1210 1.376 . S
C1210 H1197 0.930 . S
C1210 C1209 1.376 . S
C1210 C1211 1.388 . S
C1211 H1198 0.930 . S
C1211 C1210 1.388 . S
C1211 C1212 1.390 . S
C1212 C1211 1.390 . S
C1212 C1213 1.394 . S
C1212 C1218 1.465 . S
C1213 C1208 1.403 . S
C1213 C1212 1.394 . S
C1213 C1214 1.516 1_545 S
C1214 C1213 1.516 1_565 S
C1214 C1215 1.502 . S
C1214 C1216 1.561 . S
C1214 C1217 1.526 1_565 S
C1215 H1199 0.959 . S
C1215 H1200 0.959 . S
C1215 H1201 0.961 . S
C1215 C1214 1.502 . S
C1216 H1202 0.960 . S
C1216 H1203 0.961 . S
C1216 H1204 0.959 . S
C1216 C1214 1.561 . S
C1217 C1214 1.526 1_545 S
C1217 C1218 1.396 . S
C1217 C1222 1.390 . S
C1218 C1212 1.465 . S
C1218 C1217 1.396 . S
C1218 C1219 1.399 . S
C1219 H1205 0.929 . S
C1219 C1218 1.399 . S
C1219 C1220 1.385 . S
C1220 H1206 0.931 . S
C1220 C1219 1.385 . S
C1220 C1221 1.389 . S
C1221 C1220 1.389 . S
C1221 C1222 1.387 . S
C1222 H1207 0.930 1_545 S
C1222 C1217 1.390 . S
C1222 C1221 1.387 . S
H1223 C1235 0.930 . S
H1224 C1237 0.930 . S
H1225 C1238 0.930 . S
H1226 C1242 0.959 . S
H1227 C1242 0.959 . S
H1228 C1242 0.961 . S
H1229 C1243 0.960 . S
H1230 C1243 0.961 . S
H1231 C1243 0.959 . S
H1232 C1246 0.929 . S
H1233 C1247 0.931 . S
H1234 C1249 0.930 . S
C1235 H1223 0.930 . S
C1235 C1236 1.399 . S
C1235 C1240 1.399 . S
C1236 C1235 1.399 . S
C1236 C1237 1.376 . S
C1237 H1224 0.930 . S
C1237 C1236 1.376 . S
C1237 C1238 1.388 . S
C1238 H1225 0.930 . S
C1238 C1237 1.388 . S
C1238 C1239 1.390 . S
C1239 C1238 1.390 . S
C1239 C1240 1.394 . S
C1239 C1245 1.465 . S
C1240 C1235 1.399 . S
C1240 C1239 1.394 . S
C1240 C1241 1.516 . S
C1241 C1240 1.516 . S
C1241 C1242 1.502 . S
C1241 C1243 1.561 . S
C1241 C1244 1.526 . S
C1242 H1226 0.959 . S
C1242 H1227 0.959 . S
C1242 H1228 0.961 . S
C1242 C1241 1.502 . S
C1243 H1229 0.960 . S
C1243 H1230 0.961 . S
C1243 H1231 0.959 . S
C1243 C1241 1.561 . S
C1244 C1241 1.526 . S
C1244 C1245 1.396 . S
C1244 C1249 1.390 . S
C1245 C1239 1.465 . S
C1245 C1244 1.396 . S
C1245 C1246 1.399 . S
C1246 H1232 0.929 . S
C1246 C1245 1.399 . S
C1246 C1247 1.385 . S
C1247 H1233 0.931 . S
C1247 C1246 1.385 . S
C1247 C1248 1.389 . S
C1248 C1247 1.389 . S
C1248 C1249 1.387 . S
C1249 H1234 0.930 . S
C1249 C1244 1.390 . S
C1249 C1248 1.387 . S
H1250 C1262 0.930 . S
H1251 C1264 0.930 . S
H1252 C1265 0.930 . S
H1253 C1269 0.959 . S
H1254 C1269 0.959 . S
H1255 C1269 0.961 . S
H1256 C1270 0.960 . S
H1257 C1270 0.961 . S
H1258 C1270 0.959 . S
H1259 C1273 0.929 . S
H1260 C1274 0.931 . S
H1261 C1276 0.899 1_545 S
C1262 H1250 0.930 . S
C1262 C1263 1.399 1_545 S
C1262 C1267 1.399 . S
C1263 C1262 1.399 1_565 S
C1263 C1264 1.376 . S
C1264 H1251 0.930 . S
C1264 C1263 1.376 . S
C1264 C1265 1.388 . S
C1265 H1252 0.930 . S
C1265 C1264 1.388 . S
C1265 C1266 1.390 . S
C1266 C1265 1.390 . S
C1266 C1267 1.394 1_565 S
C1266 C1272 1.465 . S
C1267 C1262 1.399 . S
C1267 C1266 1.394 1_545 S
C1267 C1268 1.516 . S
C1268 C1267 1.516 . S
C1268 C1269 1.502 . S
C1268 C1270 1.561 . S
C1268 C1271 1.526 1_545 S
C1269 H1253 0.959 . S
C1269 H1254 0.959 . S
C1269 H1255 0.961 . S
C1269 C1268 1.502 . S
C1270 H1256 0.960 . S
C1270 H1257 0.961 . S
C1270 H1258 0.959 . S
C1270 C1268 1.561 . S
C1271 C1268 1.526 1_565 S
C1271 C1272 1.396 . S
C1271 C1276 1.394 . S
C1272 C1266 1.465 . S
C1272 C1271 1.396 . S
C1272 C1273 1.399 . S
C1273 H1259 0.929 . S
C1273 C1272 1.399 . S
C1273 C1274 1.385 . S
C1274 H1260 0.931 . S
C1274 C1273 1.385 . S
C1274 C1275 1.389 . S
C1275 C1274 1.389 . S
C1275 C1276 1.415 . S
C1276 H1261 0.899 1_565 S
C1276 C1271 1.394 . S
C1276 C1275 1.415 . S
H1277 C1289 0.930 . S
H1278 C1291 0.930 . S
H1279 C1292 0.930 . S
H1280 C1296 0.959 . S
H1281 C1296 0.959 . S
H1282 C1296 0.961 . S
H1283 C1297 0.960 . S
H1284 C1297 0.961 . S
H1285 C1297 0.959 . S
H1286 C1300 0.929 . S
H1287 C1301 0.931 . S
H1288 C1303 0.930 . S
C1289 H1277 0.930 . S
C1289 C1290 1.399 . S
C1289 C1294 1.399 . S
C1290 C1289 1.399 . S
C1290 C1291 1.376 . S
C1291 H1278 0.930 . S
C1291 C1290 1.376 . S
C1291 C1292 1.388 . S
C1292 H1279 0.930 . S
C1292 C1291 1.388 . S
C1292 C1293 1.390 . S
C1293 C1292 1.390 . S
C1293 C1294 1.394 . S
C1293 C1299 1.465 . S
C1294 C1289 1.399 . S
C1294 C1293 1.394 . S
C1294 C1295 1.516 . S
C1295 C1294 1.516 . S
C1295 C1296 1.502 . S
C1295 C1297 1.561 . S
C1295 C1298 1.526 . S
C1296 H1280 0.959 . S
C1296 H1281 0.959 . S
C1296 H1282 0.961 . S
C1296 C1295 1.502 . S
C1297 H1283 0.960 . S
C1297 H1284 0.961 . S
C1297 H1285 0.959 . S
C1297 C1295 1.561 . S
C1298 C1295 1.526 . S
C1298 C1299 1.396 . S
C1298 C1303 1.390 . S
C1299 C1293 1.465 . S
C1299 C1298 1.396 . S
C1299 C1300 1.399 . S
C1300 H1286 0.929 . S
C1300 C1299 1.399 . S
C1300 C1301 1.385 . S
C1301 H1287 0.931 . S
C1301 C1300 1.385 . S
C1301 C1302 1.389 . S
C1302 C1301 1.389 . S
C1302 C1303 1.387 . S
C1303 H1288 0.930 . S
C1303 C1298 1.390 . S
C1303 C1302 1.387 . S
H1304 C1316 0.930 . S
H1305 C1318 0.930 . S
H1306 C1319 0.930 . S
H1307 C1323 0.959 . S
H1308 C1323 0.959 . S
H1309 C1323 0.961 . S
H1310 C1324 0.960 . S
H1311 C1324 0.961 . S
H1312 C1324 0.959 . S
H1313 C1327 0.929 . S
H1314 C1328 0.931 1_556 S
H1315 C1330 0.930 . S
C1316 H1304 0.930 . S
C1316 C1317 1.399 . S
C1316 C1321 1.399 . S
C1317 C1316 1.399 . S
C1317 C1318 1.376 1_554 S
C1318 H1305 0.930 . S
C1318 C1317 1.376 1_556 S
C1318 C1319 1.388 . S
C1319 H1306 0.930 . S
C1319 C1318 1.388 . S
C1319 C1320 1.390 1_556 S
C1320 C1319 1.390 1_554 S
C1320 C1321 1.394 . S
C1320 C1326 1.465 . S
C1321 C1316 1.399 . S
C1321 C1320 1.394 . S
C1321 C1322 1.516 . S
C1322 C1321 1.516 . S
C1322 C1323 1.502 . S
C1322 C1324 1.561 . S
C1322 C1325 1.526 . S
C1323 H1307 0.959 . S
C1323 H1308 0.959 . S
C1323 H1309 0.961 . S
C1323 C1322 1.502 . S
C1324 H1310 0.960 . S
C1324 H1311 0.961 . S
C1324 H1312 0.959 . S
C1324 C1322 1.561 . S
C1325 C1322 1.526 . S
C1325 C1326 1.396 . S
C1325 C1330 1.390 . S
C1326 C1320 1.465 . S
C1326 C1325 1.396 . S
C1326 C1327 1.399 1_554 S
C1327 H1313 0.929 . S
C1327 C1326 1.399 1_556 S
C1327 C1328 1.385 1_556 S
C1328 H1314 0.931 1_554 S
C1328 C1327 1.385 1_554 S
C1328 C1329 1.389 . S
C1329 C1328 1.389 . S
C1329 C1330 1.387 . S
C1330 H1315 0.930 . S
C1330 C1325 1.390 . S
C1330 C1329 1.387 . S
H1331 C1343 0.930 . S
H1332 C1345 0.930 . S
H1333 C1346 0.930 . S
H1334 C1350 0.959 . S
H1335 C1350 0.959 . S
H1336 C1350 0.961 . S
H1337 C1351 0.960 . S
H1338 C1351 0.961 . S
H1339 C1351 0.959 . S
H1340 C1354 0.929 . S
H1341 C1355 0.931 . S
H1342 C1357 0.930 . S
C1343 H1331 0.930 . S
C1343 C1344 1.399 . S
C1343 C1348 1.399 . S
C1344 C1343 1.399 . S
C1344 C1345 1.376 . S
C1345 H1332 0.930 . S
C1345 C1344 1.376 . S
C1345 C1346 1.388 . S
C1346 H1333 0.930 . S
C1346 C1345 1.388 . S
C1346 C1347 1.390 . S
C1347 C1346 1.390 . S
C1347 C1348 1.394 . S
C1347 C1353 1.465 . S
C1348 C1343 1.399 . S
C1348 C1347 1.394 . S
C1348 C1349 1.516 . S
C1349 C1348 1.516 . S
C1349 C1350 1.502 . S
C1349 C1351 1.561 . S
C1349 C1352 1.526 . S
C1350 H1334 0.959 . S
C1350 H1335 0.959 . S
C1350 H1336 0.961 . S
C1350 C1349 1.502 . S
C1351 H1337 0.960 . S
C1351 H1338 0.961 . S
C1351 H1339 0.959 . S
C1351 C1349 1.561 . S
C1352 C1349 1.526 . S
C1352 C1353 1.396 . S
C1352 C1357 1.390 . S
C1353 C1347 1.465 . S
C1353 C1352 1.396 . S
C1353 C1354 1.399 . S
C1354 H1340 0.929 . S
C1354 C1353 1.399 . S
C1354 C1355 1.385 . S
C1355 H1341 0.931 . S
C1355 C1354 1.385 . S
C1355 C1356 1.389 . S
C1356 C1355 1.389 . S
C1356 C1357 1.387 . S
C1357 H1342 0.930 . S
C1357 C1352 1.390 . S
C1357 C1356 1.387 . S
H1358 C1370 0.930 . S
H1359 C1372 0.930 . S
H1360 C1373 0.930 . S
H1361 C1377 0.959 . S
H1362 C1377 0.959 . S
H1363 C1377 0.961 . S
H1364 C1378 0.960 . S
H1365 C1378 0.961 . S
H1366 C1378 0.959 . S
H1367 C1381 0.929 . S
H1368 C1382 0.931 . S
H1369 C1384 0.930 . S
C1370 H1358 0.930 . S
C1370 C1371 1.399 . S
C1370 C1375 1.399 . S
C1371 C1370 1.399 . S
C1371 C1372 1.376 . S
C1372 H1359 0.930 . S
C1372 C1371 1.376 . S
C1372 C1373 1.388 . S
C1373 H1360 0.930 . S
C1373 C1372 1.388 . S
C1373 C1374 1.390 . S
C1374 C1373 1.390 . S
C1374 C1375 1.394 . S
C1374 C1380 1.465 . S
C1375 C1370 1.399 . S
C1375 C1374 1.394 . S
C1375 C1376 1.516 . S
C1376 C1375 1.516 . S
C1376 C1377 1.502 . S
C1376 C1378 1.561 . S
C1376 C1379 1.526 . S
C1377 H1361 0.959 . S
C1377 H1362 0.959 . S
C1377 H1363 0.961 . S
C1377 C1376 1.502 . S
C1378 H1364 0.960 . S
C1378 H1365 0.961 . S
C1378 H1366 0.959 . S
C1378 C1376 1.561 . S
C1379 C1376 1.526 . S
C1379 C1380 1.396 . S
C1379 C1384 1.390 . S
C1380 C1374 1.465 . S
C1380 C1379 1.396 . S
C1380 C1381 1.399 . S
C1381 H1367 0.929 . S
C1381 C1380 1.399 . S
C1381 C1382 1.385 . S
C1382 H1368 0.931 . S
C1382 C1381 1.385 . S
C1382 C1383 1.389 . S
C1383 C1382 1.389 . S
C1383 C1384 1.387 . S
C1384 H1369 0.930 . S
C1384 C1379 1.390 . S
C1384 C1383 1.387 . S
H1385 C1397 0.930 . S
H1386 C1399 0.930 . S
H1387 C1400 0.930 . S
H1388 C1404 0.959 . S
H1389 C1404 0.959 . S
H1390 C1404 0.961 . S
H1391 C1405 0.960 . S
H1392 C1405 0.961 . S
H1393 C1405 0.959 . S
H1394 C1408 0.929 . S
H1395 C1409 0.931 . S
H1396 C1411 0.930 . S
C1397 H1385 0.930 . S
C1397 C1398 1.399 . S
C1397 C1402 1.399 . S
C1398 C1397 1.399 . S
C1398 C1399 1.376 . S
C1399 H1386 0.930 . S
C1399 C1398 1.376 . S
C1399 C1400 1.388 . S
C1400 H1387 0.930 . S
C1400 C1399 1.388 . S
C1400 C1401 1.390 . S
C1401 C1400 1.390 . S
C1401 C1402 1.394 . S
C1401 C1407 1.465 . S
C1402 C1397 1.399 . S
C1402 C1401 1.394 . S
C1402 C1403 1.516 . S
C1403 C1402 1.516 . S
C1403 C1404 1.502 . S
C1403 C1405 1.561 . S
C1403 C1406 1.526 . S
C1404 H1388 0.959 . S
C1404 H1389 0.959 . S
C1404 H1390 0.961 . S
C1404 C1403 1.502 . S
C1405 H1391 0.960 . S
C1405 H1392 0.961 . S
C1405 H1393 0.959 . S
C1405 C1403 1.561 . S
C1406 C1403 1.526 . S
C1406 C1407 1.396 . S
C1406 C1411 1.390 . S
C1407 C1401 1.465 . S
C1407 C1406 1.396 . S
C1407 C1408 1.399 . S
C1408 H1394 0.929 . S
C1408 C1407 1.399 . S
C1408 C1409 1.385 . S
C1409 H1395 0.931 . S
C1409 C1408 1.385 . S
C1409 C1410 1.389 . S
C1410 C1409 1.389 . S
C1410 C1411 1.387 . S
C1411 H1396 0.930 . S
C1411 C1406 1.390 . S
C1411 C1410 1.387 . S
H1412 C1424 0.930 . S
H1413 C1426 0.930 . S
H1414 C1427 0.930 . S
H1415 C1431 0.959 . S
H1416 C1431 0.959 . S
H1417 C1431 0.961 . S
H1418 C1432 0.960 . S
H1419 C1432 0.961 . S
H1420 C1432 0.959 . S
H1421 C1435 0.929 . S
H1422 C1436 0.931 . S
H1423 C1438 0.930 . S
C1424 H1412 0.930 . S
C1424 C1425 1.399 . S
C1424 C1429 1.399 . S
C1425 C1424 1.399 . S
C1425 C1426 1.376 . S
C1426 H1413 0.930 . S
C1426 C1425 1.376 . S
C1426 C1427 1.388 . S
C1427 H1414 0.930 . S
C1427 C1426 1.388 . S
C1427 C1428 1.390 . S
C1428 C1427 1.390 . S
C1428 C1429 1.394 . S
C1428 C1434 1.465 . S
C1429 C1424 1.399 . S
C1429 C1428 1.394 . S
C1429 C1430 1.516 . S
C1430 C1429 1.516 . S
C1430 C1431 1.502 . S
C1430 C1432 1.561 . S
C1430 C1433 1.526 . S
C1431 H1415 0.959 . S
C1431 H1416 0.959 . S
C1431 H1417 0.961 . S
C1431 C1430 1.502 . S
C1432 H1418 0.960 . S
C1432 H1419 0.961 . S
C1432 H1420 0.959 . S
C1432 C1430 1.561 . S
C1433 C1430 1.526 . S
C1433 C1434 1.396 . S
C1433 C1438 1.390 . S
C1434 C1428 1.465 . S
C1434 C1433 1.396 . S
C1434 C1435 1.399 . S
C1435 H1421 0.929 . S
C1435 C1434 1.399 . S
C1435 C1436 1.385 . S
C1436 H1422 0.931 . S
C1436 C1435 1.385 . S
C1436 C1437 1.389 . S
C1437 C1436 1.389 . S
C1437 C1438 1.387 . S
C1438 H1423 0.930 . S
C1438 C1433 1.390 . S
C1438 C1437 1.387 . S
H1439 C1451 0.930 . S
H1440 C1453 0.930 . S
H1441 C1454 0.930 . S
H1442 C1458 0.959 . S
H1443 C1458 0.959 . S
H1444 C1458 0.961 . S
H1445 C1459 0.960 . S
H1446 C1459 0.961 . S
H1447 C1459 0.959 . S
H1448 C1462 0.929 . S
H1449 C1463 0.931 . S
H1450 C1465 0.930 . S
C1451 H1439 0.930 . S
C1451 C1452 1.399 . S
C1451 C1456 1.399 . S
C1452 C1451 1.399 . S
C1452 C1453 1.376 . S
C1453 H1440 0.930 . S
C1453 C1452 1.376 . S
C1453 C1454 1.388 . S
C1454 H1441 0.930 . S
C1454 C1453 1.388 . S
C1454 C1455 1.390 . S
C1455 C1454 1.390 . S
C1455 C1456 1.394 . S
C1455 C1461 1.465 . S
C1456 C1451 1.399 . S
C1456 C1455 1.394 . S
C1456 C1457 1.516 . S
C1457 C1456 1.516 . S
C1457 C1458 1.502 . S
C1457 C1459 1.561 . S
C1457 C1460 1.526 . S
C1458 H1442 0.959 . S
C1458 H1443 0.959 . S
C1458 H1444 0.961 . S
C1458 C1457 1.502 . S
C1459 H1445 0.960 . S
C1459 H1446 0.961 . S
C1459 H1447 0.959 . S
C1459 C1457 1.561 . S
C1460 C1457 1.526 . S
C1460 C1461 1.396 . S
C1460 C1465 1.390 . S
C1461 C1455 1.465 . S
C1461 C1460 1.396 . S
C1461 C1462 1.399 . S
C1462 H1448 0.929 . S
C1462 C1461 1.399 . S
C1462 C1463 1.385 . S
C1463 H1449 0.931 . S
C1463 C1462 1.385 . S
C1463 C1464 1.389 . S
C1464 C1463 1.389 . S
C1464 C1465 1.387 . S
C1465 H1450 0.930 . S
C1465 C1460 1.390 . S
C1465 C1464 1.387 . S
H1466 C1478 0.930 . S
H1467 C1480 0.930 . S
H1468 C1481 0.930 . S
H1469 C1485 0.959 . S
H1470 C1485 0.959 . S
H1471 C1485 0.961 . S
H1472 C1486 0.960 . S
H1473 C1486 0.961 . S
H1474 C1486 0.959 . S
H1475 C1489 0.929 . S
H1476 C1490 0.931 . S
H1477 C1492 0.930 . S
C1478 H1466 0.930 . S
C1478 C1479 1.399 . S
C1478 C1483 1.399 . S
C1479 C1478 1.399 . S
C1479 C1480 1.376 . S
C1480 H1467 0.930 . S
C1480 C1479 1.376 . S
C1480 C1481 1.388 . S
C1481 H1468 0.930 . S
C1481 C1480 1.388 . S
C1481 C1482 1.390 . S
C1482 C1481 1.390 . S
C1482 C1483 1.394 . S
C1482 C1488 1.465 . S
C1483 C1478 1.399 . S
C1483 C1482 1.394 . S
C1483 C1484 1.516 . S
C1484 C1483 1.516 . S
C1484 C1485 1.502 . S
C1484 C1486 1.561 . S
C1484 C1487 1.526 . S
C1485 H1469 0.959 . S
C1485 H1470 0.959 . S
C1485 H1471 0.961 . S
C1485 C1484 1.502 . S
C1486 H1472 0.960 . S
C1486 H1473 0.961 . S
C1486 H1474 0.959 . S
C1486 C1484 1.561 . S
C1487 C1484 1.526 . S
C1487 C1488 1.396 . S
C1487 C1492 1.390 . S
C1488 C1482 1.465 . S
C1488 C1487 1.396 . S
C1488 C1489 1.399 . S
C1489 H1475 0.929 . S
C1489 C1488 1.399 . S
C1489 C1490 1.385 . S
C1490 H1476 0.931 . S
C1490 C1489 1.385 . S
C1490 C1491 1.389 . S
C1491 C1490 1.389 . S
C1491 C1492 1.387 . S
C1492 H1477 0.930 . S
C1492 C1487 1.390 . S
C1492 C1491 1.387 . S
H1493 C1505 0.930 . S
H1494 C1507 0.930 . S
H1495 C1508 0.930 . S
H1496 C1512 0.959 . S
H1497 C1512 0.959 . S
H1498 C1512 0.961 . S
H1499 C1513 0.960 . S
H1500 C1513 0.961 . S
H1501 C1513 0.959 . S
H1502 C1516 0.929 . S
H1503 C1517 0.931 . S
H1504 C1519 0.930 . S
C1505 H1493 0.930 . S
C1505 C1506 1.399 . S
C1505 C1510 1.399 . S
C1506 C1505 1.399 . S
C1506 C1507 1.376 . S
C1507 H1494 0.930 . S
C1507 C1506 1.376 . S
C1507 C1508 1.388 . S
C1508 H1495 0.930 . S
C1508 C1507 1.388 . S
C1508 C1509 1.390 . S
C1509 C1508 1.390 . S
C1509 C1510 1.394 . S
C1509 C1515 1.465 . S
C1510 C1505 1.399 . S
C1510 C1509 1.394 . S
C1510 C1511 1.516 . S
C1511 C1510 1.516 . S
C1511 C1512 1.502 . S
C1511 C1513 1.561 . S
C1511 C1514 1.526 . S
C1512 H1496 0.959 . S
C1512 H1497 0.959 . S
C1512 H1498 0.961 . S
C1512 C1511 1.502 . S
C1513 H1499 0.960 . S
C1513 H1500 0.961 . S
C1513 H1501 0.959 . S
C1513 C1511 1.561 . S
C1514 C1511 1.526 . S
C1514 C1515 1.396 . S
C1514 C1519 1.390 . S
C1515 C1509 1.465 . S
C1515 C1514 1.396 . S
C1515 C1516 1.399 . S
C1516 H1502 0.929 . S
C1516 C1515 1.399 . S
C1516 C1517 1.385 . S
C1517 H1503 0.931 . S
C1517 C1516 1.385 . S
C1517 C1518 1.389 . S
C1518 C1517 1.389 . S
C1518 C1519 1.387 . S
C1519 H1504 0.930 . S
C1519 C1514 1.390 . S
C1519 C1518 1.387 . S
H1520 C1532 0.930 . S
H1521 C1534 0.930 . S
H1522 C1535 0.930 . S
H1523 C1539 0.959 . S
H1524 C1539 0.959 . S
H1525 C1539 0.961 . S
H1526 C1540 0.960 . S
H1527 C1540 0.961 . S
H1528 C1540 0.959 . S
H1529 C1543 0.929 . S
H1530 C1544 0.931 . S
H1531 C1546 0.930 . S
C1532 H1520 0.930 . S
C1532 C1533 1.399 . S
C1532 C1537 1.399 . S
C1533 C1532 1.399 . S
C1533 C1534 1.376 . S
C1534 H1521 0.930 . S
C1534 C1533 1.376 . S
C1534 C1535 1.388 . S
C1535 H1522 0.930 . S
C1535 C1534 1.388 . S
C1535 C1536 1.390 . S
C1536 C1535 1.390 . S
C1536 C1537 1.394 . S
C1536 C1542 1.465 . S
C1537 C1532 1.399 . S
C1537 C1536 1.394 . S
C1537 C1538 1.516 . S
C1538 C1537 1.516 . S
C1538 C1539 1.502 . S
C1538 C1540 1.561 . S
C1538 C1541 1.526 . S
C1539 H1523 0.959 . S
C1539 H1524 0.959 . S
C1539 H1525 0.961 . S
C1539 C1538 1.502 . S
C1540 H1526 0.960 . S
C1540 H1527 0.961 . S
C1540 H1528 0.959 . S
C1540 C1538 1.561 . S
C1541 C1538 1.526 . S
C1541 C1542 1.396 . S
C1541 C1546 1.390 . S
C1542 C1536 1.465 . S
C1542 C1541 1.396 . S
C1542 C1543 1.399 . S
C1543 H1529 0.929 . S
C1543 C1542 1.399 . S
C1543 C1544 1.385 . S
C1544 H1530 0.931 . S
C1544 C1543 1.385 . S
C1544 C1545 1.389 . S
C1545 C1544 1.389 . S
C1545 C1546 1.387 . S
C1546 H1531 0.930 . S
C1546 C1541 1.390 . S
C1546 C1545 1.387 . S
H1547 C1559 0.930 . S
H1548 C1561 0.930 . S
H1549 C1562 0.930 . S
H1550 C1566 0.959 . S
H1551 C1566 0.959 . S
H1552 C1566 0.961 . S
H1553 C1567 0.960 . S
H1554 C1567 0.961 . S
H1555 C1567 0.959 . S
H1556 C1570 0.929 . S
H1557 C1571 0.931 . S
H1558 C1573 0.930 . S
C1559 H1547 0.930 . S
C1559 C1560 1.399 1_545 S
C1559 C1564 1.399 . S
C1560 C1559 1.399 1_565 S
C1560 C1561 1.376 . S
C1561 H1548 0.930 . S
C1561 C1560 1.376 . S
C1561 C1562 1.388 . S
C1562 H1549 0.930 . S
C1562 C1561 1.388 . S
C1562 C1563 1.390 . S
C1563 C1562 1.390 . S
C1563 C1564 1.394 1_565 S
C1563 C1569 1.465 . S
C1564 C1559 1.399 . S
C1564 C1563 1.394 1_545 S
C1564 C1565 1.516 . S
C1565 C1564 1.516 . S
C1565 C1566 1.502 . S
C1565 C1567 1.561 . S
C1565 C1568 1.526 . S
C1566 H1550 0.959 . S
C1566 H1551 0.959 . S
C1566 H1552 0.961 . S
C1566 C1565 1.502 . S
C1567 H1553 0.960 . S
C1567 H1554 0.961 . S
C1567 H1555 0.959 . S
C1567 C1565 1.561 . S
C1568 C1565 1.526 . S
C1568 C1569 1.396 1_545 S
C1568 C1573 1.390 . S
C1569 C1563 1.465 . S
C1569 C1568 1.396 1_565 S
C1569 C1570 1.399 . S
C1570 H1556 0.929 . S
C1570 C1569 1.399 . S
C1570 C1571 1.385 . S
C1571 H1557 0.931 . S
C1571 C1570 1.385 . S
C1571 C1572 1.389 . S
C1572 C1571 1.389 . S
C1572 C1573 1.387 1_565 S
C1573 H1558 0.930 . S
C1573 C1568 1.390 . S
C1573 C1572 1.387 1_545 S
H1574 C1586 0.930 . S
H1575 C1588 0.930 . S
H1576 C1589 0.930 . S
H1577 C1593 0.959 . S
H1578 C1593 0.959 . S
H1579 C1593 0.961 . S
H1580 C1594 0.960 . S
H1581 C1594 0.961 . S
H1582 C1594 0.959 . S
H1583 C1597 0.929 . S
H1584 C1598 0.931 . S
H1585 C1600 0.930 . S
C1586 H1574 0.930 . S
C1586 C1587 1.399 . S
C1586 C1591 1.399 . S
C1587 C1586 1.399 . S
C1587 C1588 1.376 . S
C1588 H1575 0.930 . S
C1588 C1587 1.376 . S
C1588 C1589 1.388 . S
C1589 H1576 0.930 . S
C1589 C1588 1.388 . S
C1589 C1590 1.390 . S
C1590 C1589 1.390 . S
C1590 C1591 1.394 . S
C1590 C1596 1.465 . S
C1591 C1586 1.399 . S
C1591 C1590 1.394 . S
C1591 C1592 1.516 . S
C1592 C1591 1.516 . S
C1592 C1593 1.502 . S
C1592 C1594 1.561 . S
C1592 C1595 1.526 . S
C1593 H1577 0.959 . S
C1593 H1578 0.959 . S
C1593 H1579 0.961 . S
C1593 C1592 1.502 . S
C1594 H1580 0.960 . S
C1594 H1581 0.961 . S
C1594 H1582 0.959 . S
C1594 C1592 1.561 . S
C1595 C1592 1.526 . S
C1595 C1596 1.396 . S
C1595 C1600 1.390 . S
C1596 C1590 1.465 . S
C1596 C1595 1.396 . S
C1596 C1597 1.399 . S
C1597 H1583 0.929 . S
C1597 C1596 1.399 . S
C1597 C1598 1.385 . S
C1598 H1584 0.931 . S
C1598 C1597 1.385 . S
C1598 C1599 1.389 . S
C1599 C1598 1.389 . S
C1599 C1600 1.387 . S
C1600 H1585 0.930 . S
C1600 C1595 1.390 . S
C1600 C1599 1.387 . S
H1601 C1613 0.930 . S
H1602 C1615 0.930 . S
H1603 C1616 0.930 . S
H1604 C1620 0.959 . S
H1605 C1620 0.959 . S
H1606 C1620 0.961 . S
H1607 C1621 0.960 . S
H1608 C1621 0.961 . S
H1609 C1621 0.959 . S
H1610 C1624 0.929 . S
H1611 C1625 0.931 . S
H1612 C1627 0.930 . S
C1613 H1601 0.930 . S
C1613 C1614 1.399 . S
C1613 C1618 1.399 . S
C1614 C1613 1.399 . S
C1614 C1615 1.376 1_545 S
C1615 H1602 0.930 . S
C1615 C1614 1.376 1_565 S
C1615 C1616 1.388 . S
C1616 H1603 0.930 . S
C1616 C1615 1.388 . S
C1616 C1617 1.390 . S
C1617 C1616 1.390 . S
C1617 C1618 1.394 1_565 S
C1617 C1623 1.465 . S
C1618 C1613 1.399 . S
C1618 C1617 1.394 1_545 S
C1618 C1619 1.516 . S
C1619 C1618 1.516 . S
C1619 C1620 1.502 . S
C1619 C1621 1.561 . S
C1619 C1622 1.526 . S
C1620 H1604 0.959 . S
C1620 H1605 0.959 . S
C1620 H1606 0.961 . S
C1620 C1619 1.502 . S
C1621 H1607 0.960 . S
C1621 H1608 0.961 . S
C1621 H1609 0.959 . S
C1621 C1619 1.561 . S
C1622 C1619 1.526 . S
C1622 C1623 1.396 1_545 S
C1622 C1627 1.390 . S
C1623 C1617 1.465 . S
C1623 C1622 1.396 1_565 S
C1623 C1624 1.399 . S
C1624 H1610 0.929 . S
C1624 C1623 1.399 . S
C1624 C1625 1.385 . S
C1625 H1611 0.931 . S
C1625 C1624 1.385 . S
C1625 C1626 1.389 . S
C1626 C1625 1.389 . S
C1626 C1627 1.387 1_565 S
C1627 H1612 0.930 . S
C1627 C1622 1.390 . S
C1627 C1626 1.387 1_545 S
H1628 C1640 0.930 . S
H1629 C1642 0.930 . S
H1630 C1643 0.930 . S
H1631 C1647 0.959 . S
H1632 C1647 0.959 . S
H1633 C1647 0.961 . S
H1634 C1648 0.960 . S
H1635 C1648 0.961 . S
H1636 C1648 0.959 . S
H1637 C1651 0.929 . S
H1638 C1652 0.931 . S
H1639 C1654 0.930 . S
C1640 H1628 0.930 . S
C1640 C1641 1.399 . S
C1640 C1645 1.399 . S
C1641 C1640 1.399 . S
C1641 C1642 1.376 . S
C1642 H1629 0.930 . S
C1642 C1641 1.376 . S
C1642 C1643 1.388 . S
C1643 H1630 0.930 . S
C1643 C1642 1.388 . S
C1643 C1644 1.390 . S
C1644 C1643 1.390 . S
C1644 C1645 1.394 . S
C1644 C1650 1.465 . S
C1645 C1640 1.399 . S
C1645 C1644 1.394 . S
C1645 C1646 1.516 . S
C1646 C1645 1.516 . S
C1646 C1647 1.502 . S
C1646 C1648 1.561 . S
C1646 C1649 1.526 . S
C1647 H1631 0.959 . S
C1647 H1632 0.959 . S
C1647 H1633 0.961 . S
C1647 C1646 1.502 . S
C1648 H1634 0.960 . S
C1648 H1635 0.961 . S
C1648 H1636 0.959 . S
C1648 C1646 1.561 . S
C1649 C1646 1.526 . S
C1649 C1650 1.396 . S
C1649 C1654 1.390 . S
C1650 C1644 1.465 . S
C1650 C1649 1.396 . S
C1650 C1651 1.399 . S
C1651 H1637 0.929 . S
C1651 C1650 1.399 . S
C1651 C1652 1.385 . S
C1652 H1638 0.931 . S
C1652 C1651 1.385 . S
C1652 C1653 1.389 . S
C1653 C1652 1.389 . S
C1653 C1654 1.387 . S
C1654 H1639 0.930 . S
C1654 C1649 1.390 . S
C1654 C1653 1.387 . S
H1655 C1667 0.930 . S
H1656 C1669 0.930 . S
H1657 C1670 0.930 . S
H1658 C1674 0.959 . S
H1659 C1674 0.959 . S
H1660 C1674 0.961 . S
H1661 C1675 0.960 . S
H1662 C1675 0.961 . S
H1663 C1675 0.959 . S
H1664 C1678 0.929 . S
H1665 C1679 0.931 . S
H1666 C1681 0.930 . S
C1667 H1655 0.930 . S
C1667 C1668 1.399 1_554 S
C1667 C1672 1.399 1_554 S
C1668 C1667 1.399 1_556 S
C1668 C1669 1.376 . S
C1669 H1656 0.930 . S
C1669 C1668 1.376 . S
C1669 C1670 1.388 . S
C1670 H1657 0.930 . S
C1670 C1669 1.388 . S
C1670 C1671 1.390 . S
C1671 C1670 1.390 . S
C1671 C1672 1.394 . S
C1671 C1677 1.465 . S
C1672 C1667 1.399 1_556 S
C1672 C1671 1.394 . S
C1672 C1673 1.516 1_556 S
C1673 C1672 1.516 1_554 S
C1673 C1674 1.502 . S
C1673 C1675 1.561 . S
C1673 C1676 1.526 1_554 S
C1674 H1658 0.959 . S
C1674 H1659 0.959 . S
C1674 H1660 0.961 . S
C1674 C1673 1.502 . S
C1675 H1661 0.960 . S
C1675 H1662 0.961 . S
C1675 H1663 0.959 . S
C1675 C1673 1.561 . S
C1676 C1673 1.526 1_556 S
C1676 C1677 1.396 . S
C1676 C1681 1.390 . S
C1677 C1671 1.465 . S
C1677 C1676 1.396 . S
C1677 C1678 1.399 . S
C1678 H1664 0.929 . S
C1678 C1677 1.399 . S
C1678 C1679 1.385 . S
C1679 H1665 0.931 . S
C1679 C1678 1.385 . S
C1679 C1680 1.389 . S
C1680 C1679 1.389 . S
C1680 C1681 1.387 . S
C1681 H1666 0.930 . S
C1681 C1676 1.390 . S
C1681 C1680 1.387 . S
H1682 C1694 0.913 1_554 S
H1683 C1696 0.930 . S
H1684 C1697 0.930 . S
H1685 C1701 0.959 1_556 S
H1686 C1701 0.959 . S
H1687 C1701 0.961 . S
H1688 C1702 0.960 . S
H1689 C1702 0.961 . S
H1690 C1702 0.959 . S
H1691 C1705 0.929 . S
H1692 C1706 0.931 . S
H1693 C1708 0.930 . S
C1694 H1682 0.913 1_556 S
C1694 C1695 1.410 . S
C1694 C1699 1.406 . S
C1695 C1694 1.410 . S
C1695 C1696 1.376 . S
C1696 H1683 0.930 . S
C1696 C1695 1.376 . S
C1696 C1697 1.388 . S
C1697 H1684 0.930 . S
C1697 C1696 1.388 . S
C1697 C1698 1.390 . S
C1698 C1697 1.390 . S
C1698 C1699 1.394 . S
C1698 C1704 1.465 . S
C1699 C1694 1.406 . S
C1699 C1698 1.394 . S
C1699 C1700 1.516 1_556 S
C1700 C1699 1.516 1_554 S
C1700 C1701 1.502 . S
C1700 C1702 1.561 . S
C1700 C1703 1.526 1_554 S
C1701 H1685 0.959 1_554 S
C1701 H1686 0.959 . S
C1701 H1687 0.961 . S
C1701 C1700 1.502 . S
C1702 H1688 0.960 . S
C1702 H1689 0.961 . S
C1702 H1690 0.959 . S
C1702 C1700 1.561 . S
C1703 C1700 1.526 1_556 S
C1703 C1704 1.396 . S
C1703 C1708 1.390 . S
C1704 C1698 1.465 . S
C1704 C1703 1.396 . S
C1704 C1705 1.399 . S
C1705 H1691 0.929 . S
C1705 C1704 1.399 . S
C1705 C1706 1.385 . S
C1706 H1692 0.931 . S
C1706 C1705 1.385 . S
C1706 C1707 1.389 . S
C1707 C1706 1.389 . S
C1707 C1708 1.387 . S
C1708 H1693 0.930 . S
C1708 C1703 1.390 . S
C1708 C1707 1.387 . S
H1709 C1721 0.930 1_556 S
H1710 C1723 0.930 . S
H1711 C1724 0.930 . S
H1712 C1728 0.959 . S
H1713 C1728 0.959 . S
H1714 C1728 0.961 . S
H1715 C1729 0.960 . S
H1716 C1729 0.961 . S
H1717 C1729 0.959 . S
H1718 C1732 0.929 . S
H1719 C1733 0.931 . S
H1720 C1735 0.930 1_556 S
C1721 H1709 0.930 1_554 S
C1721 C1722 1.399 . S
C1721 C1726 1.399 . S
C1722 C1721 1.399 . S
C1722 C1723 1.376 . S
C1723 H1710 0.930 . S
C1723 C1722 1.376 . S
C1723 C1724 1.388 . S
C1724 H1711 0.930 . S
C1724 C1723 1.388 . S
C1724 C1725 1.390 . S
C1725 C1724 1.390 . S
C1725 C1726 1.394 . S
C1725 C1731 1.465 . S
C1726 C1721 1.399 . S
C1726 C1725 1.394 . S
C1726 C1727 1.516 1_554 S
C1727 C1726 1.516 1_556 S
C1727 C1728 1.502 . S
C1727 C1729 1.561 . S
C1727 C1730 1.526 1_556 S
C1728 H1712 0.959 . S
C1728 H1713 0.959 . S
C1728 H1714 0.961 . S
C1728 C1727 1.502 . S
C1729 H1715 0.960 . S
C1729 H1716 0.961 . S
C1729 H1717 0.959 . S
C1729 C1727 1.561 . S
C1730 C1727 1.526 1_554 S
C1730 C1731 1.396 . S
C1730 C1735 1.390 . S
C1731 C1725 1.465 . S
C1731 C1730 1.396 . S
C1731 C1732 1.399 . S
C1732 H1718 0.929 . S
C1732 C1731 1.399 . S
C1732 C1733 1.385 . S
C1733 H1719 0.931 . S
C1733 C1732 1.385 . S
C1733 C1734 1.389 . S
C1734 C1733 1.389 . S
C1734 C1735 1.387 . S
C1735 H1720 0.930 1_554 S
C1735 C1730 1.390 . S
C1735 C1734 1.387 . S
C453 C13 1.542 . S
C465 C236 1.504 1_545 S
C492 C299 1.767 . S
C480 C1 1.765 . S
C519 C176 1.761 1_565 S
C507 C27 1.750 . S
C534 C15 1.678 . S
C546 C210 1.650 . S
C561 C28 1.734 . S
C573 C414 1.720 1_554 S
C588 C55 1.077 . S
C600 C385 1.106 . S
C627 C308 1.950 . S
C615 C40 1.986 . S
C642 C43 1.324 . S
C654 C342 1.293 . S
C681 C231 1.866 . S
C669 C56 1.904 . S
C708 C274 1.349 . S
C696 C83 1.348 . S
C723 C96 1.880 . S
C735 C253 1.863 1_655 S
C750 C71 1.530 . S
C762 C367 1.535 . S
C789 C372 1.553 . S
C777 C99 1.494 . S
C816 C435 1.727 . S
C804 C111 1.775 . S
C831 C113 1.762 . S
C843 C346 1.798 . S
C870 C312 1.658 . S
C858 C125 1.653 . S
C885 C139 1.739 . S
C897 C278 1.716 . S
C912 C153 1.067 . S
C924 C249 1.111 . S
C951 C206 1.952 . S
C939 C127 1.984 . S
C966 C141 1.326 . S
C978 C172 1.294 . S
C1005 C333 1.907 . S
C993 C84 1.902 . S
C1032 C410 1.332 . S
C1020 C154 1.330 . S
C1047 C68 1.884 . S
C1059 C389 1.858 . S
C1074 C166 1.531 . S
C1086 C197 1.495 1_655 S
C1113 C181 1.058 1_655 S
C1101 C0 1.113 . S
C1128 C12 1.011 . S
C1140 C215 1.066 . S
C1167 C240 0.995 . S
C1155 C14 1.033 . S
C1194 C287 1.816 . S
C1182 C26 1.849 . S
C1209 C41 1.480 . S
C1221 C168 1.427 . S
C1236 C42 1.372 . S
C1248 C202 1.357 . S
C1275 C244 1.478 . S
C1263 C29 1.540 1_565 S
C1290 C54 0.920 . S
C1302 C283 0.982 . S
C1317 C69 1.630 . S
C1329 C185 1.613 . S
C1356 C265 1.631 . S
C1344 C70 1.678 . S
C1371 C85 1.545 . S
C1383 C270 1.540 . S
C1398 C82 1.467 . S
C1410 C321 1.415 . S
C1437 C351 1.082 . S
C1425 C110 1.046 . S
C1452 C98 1.008 . S
C1464 C317 1.058 . S
C1479 C124 1.015 . S
C1491 C376 0.950 . S
C1506 C112 1.845 . S
C1518 C423 1.840 . S
C1533 C126 1.497 . S
C1545 C338 1.495 . S
C1572 C304 1.351 . S
C1560 C140 1.391 . S
C1587 C138 1.554 . S
C1599 C380 1.537 . S
C1626 C419 0.982 1_565 S
C1614 C152 0.920 . S
C1653 C355 1.562 . S
C1641 C97 1.629 . S
C1680 C401 1.628 . S
C1668 C167 1.689 . S
C1707 C406 1.538 . S
C1695 C57 1.543 . S
C1722 C155 1.469 . S
C1734 C219 1.416 . S
