# Generated by pormake.
# Topology gar, (4,6)-cn, num edge types: 1
# Building blocks:
#     Node 0, Type 0, BuildingBlock: CEKHIL_clean_sbu_0, # of connection points: 4
#     Node 1, Type 0, BuildingBlock: CEKHIL_clean_sbu_0, # of connection points: 4
#     Node 2, Type 0, BuildingBlock: CEKHIL_clean_sbu_0, # of connection points: 4
#     Node 3, Type 0, BuildingBlock: CEKHIL_clean_sbu_0, # of connection points: 4
#     Node 4, Type 0, BuildingBlock: CEKHIL_clean_sbu_0, # of connection points: 4
#     Node 5, Type 0, BuildingBlock: CEKHIL_clean_sbu_0, # of connection points: 4
#     Node 6, Type 0, BuildingBlock: CEKHIL_clean_sbu_0, # of connection points: 4
#     Node 7, Type 0, BuildingBlock: CEKHIL_clean_sbu_0, # of connection points: 4
#     Node 8, Type 0, BuildingBlock: CEKHIL_clean_sbu_0, # of connection points: 4
#     Node 9, Type 0, BuildingBlock: CEKHIL_clean_sbu_0, # of connection points: 4
#     Node 10, Type 0, BuildingBlock: CEKHIL_clean_sbu_0, # of connection points: 4
#     Node 11, Type 0, BuildingBlock: CEKHIL_clean_sbu_0, # of connection points: 4
#     Node 12, Type 0, BuildingBlock: CEKHIL_clean_sbu_0, # of connection points: 4
#     Node 13, Type 0, BuildingBlock: CEKHIL_clean_sbu_0, # of connection points: 4
#     Node 14, Type 0, BuildingBlock: CEKHIL_clean_sbu_0, # of connection points: 4
#     Node 15, Type 0, BuildingBlock: CEKHIL_clean_sbu_0, # of connection points: 4
#     Node 16, Type 0, BuildingBlock: CEKHIL_clean_sbu_0, # of connection points: 4
#     Node 17, Type 0, BuildingBlock: CEKHIL_clean_sbu_0, # of connection points: 4
#     Node 18, Type 0, BuildingBlock: CEKHIL_clean_sbu_0, # of connection points: 4
#     Node 19, Type 0, BuildingBlock: CEKHIL_clean_sbu_0, # of connection points: 4
#     Node 20, Type 0, BuildingBlock: CEKHIL_clean_sbu_0, # of connection points: 4
#     Node 21, Type 0, BuildingBlock: CEKHIL_clean_sbu_0, # of connection points: 4
#     Node 22, Type 0, BuildingBlock: CEKHIL_clean_sbu_0, # of connection points: 4
#     Node 23, Type 0, BuildingBlock: CEKHIL_clean_sbu_0, # of connection points: 4
#     Node 24, Type 1, BuildingBlock: MIFKUJ_clean_sbu_0, # of connection points: 6
#     Node 25, Type 1, BuildingBlock: MIFKUJ_clean_sbu_0, # of connection points: 6
#     Node 26, Type 1, BuildingBlock: MIFKUJ_clean_sbu_0, # of connection points: 6
#     Node 27, Type 1, BuildingBlock: MIFKUJ_clean_sbu_0, # of connection points: 6
#     Node 28, Type 1, BuildingBlock: MIFKUJ_clean_sbu_0, # of connection points: 6
#     Node 29, Type 1, BuildingBlock: MIFKUJ_clean_sbu_0, # of connection points: 6
#     Node 30, Type 1, BuildingBlock: MIFKUJ_clean_sbu_0, # of connection points: 6
#     Node 31, Type 1, BuildingBlock: MIFKUJ_clean_sbu_0, # of connection points: 6
#     Node 32, Type 1, BuildingBlock: MIFKUJ_clean_sbu_0, # of connection points: 6
#     Node 33, Type 1, BuildingBlock: MIFKUJ_clean_sbu_0, # of connection points: 6
#     Node 34, Type 1, BuildingBlock: MIFKUJ_clean_sbu_0, # of connection points: 6
#     Node 35, Type 1, BuildingBlock: MIFKUJ_clean_sbu_0, # of connection points: 6
#     Node 36, Type 1, BuildingBlock: MIFKUJ_clean_sbu_0, # of connection points: 6
#     Node 37, Type 1, BuildingBlock: MIFKUJ_clean_sbu_0, # of connection points: 6
#     Node 38, Type 1, BuildingBlock: MIFKUJ_clean_sbu_0, # of connection points: 6
#     Node 39, Type 1, BuildingBlock: MIFKUJ_clean_sbu_0, # of connection points: 6
#     Edge 40, Type (0, 1), BuildingBlock: UVAHIK_clean_linker_0, # of connection points: 2
#     Edge 41, Type (0, 1), BuildingBlock: UVAHIK_clean_linker_0, # of connection points: 2
#     Edge 42, Type (0, 1), BuildingBlock: UVAHIK_clean_linker_0, # of connection points: 2
#     Edge 43, Type (0, 1), BuildingBlock: UVAHIK_clean_linker_0, # of connection points: 2
#     Edge 44, Type (0, 1), BuildingBlock: UVAHIK_clean_linker_0, # of connection points: 2
#     Edge 45, Type (0, 1), BuildingBlock: UVAHIK_clean_linker_0, # of connection points: 2
#     Edge 46, Type (0, 1), BuildingBlock: UVAHIK_clean_linker_0, # of connection points: 2
#     Edge 47, Type (0, 1), BuildingBlock: UVAHIK_clean_linker_0, # of connection points: 2
#     Edge 48, Type (0, 1), BuildingBlock: UVAHIK_clean_linker_0, # of connection points: 2
#     Edge 49, Type (0, 1), BuildingBlock: UVAHIK_clean_linker_0, # of connection points: 2
#     Edge 50, Type (0, 1), BuildingBlock: UVAHIK_clean_linker_0, # of connection points: 2
#     Edge 51, Type (0, 1), BuildingBlock: UVAHIK_clean_linker_0, # of connection points: 2
#     Edge 52, Type (0, 1), BuildingBlock: UVAHIK_clean_linker_0, # of connection points: 2
#     Edge 53, Type (0, 1), BuildingBlock: UVAHIK_clean_linker_0, # of connection points: 2
#     Edge 54, Type (0, 1), BuildingBlock: UVAHIK_clean_linker_0, # of connection points: 2
#     Edge 55, Type (0, 1), BuildingBlock: UVAHIK_clean_linker_0, # of connection points: 2
#     Edge 56, Type (0, 1), BuildingBlock: UVAHIK_clean_linker_0, # of connection points: 2
#     Edge 57, Type (0, 1), BuildingBlock: UVAHIK_clean_linker_0, # of connection points: 2
#     Edge 58, Type (0, 1), BuildingBlock: UVAHIK_clean_linker_0, # of connection points: 2
#     Edge 59, Type (0, 1), BuildingBlock: UVAHIK_clean_linker_0, # of connection points: 2
#     Edge 60, Type (0, 1), BuildingBlock: UVAHIK_clean_linker_0, # of connection points: 2
#     Edge 61, Type (0, 1), BuildingBlock: UVAHIK_clean_linker_0, # of connection points: 2
#     Edge 62, Type (0, 1), BuildingBlock: UVAHIK_clean_linker_0, # of connection points: 2
#     Edge 63, Type (0, 1), BuildingBlock: UVAHIK_clean_linker_0, # of connection points: 2
#     Edge 64, Type (0, 1), BuildingBlock: UVAHIK_clean_linker_0, # of connection points: 2
#     Edge 65, Type (0, 1), BuildingBlock: UVAHIK_clean_linker_0, # of connection points: 2
#     Edge 66, Type (0, 1), BuildingBlock: UVAHIK_clean_linker_0, # of connection points: 2
#     Edge 67, Type (0, 1), BuildingBlock: UVAHIK_clean_linker_0, # of connection points: 2
#     Edge 68, Type (0, 1), BuildingBlock: UVAHIK_clean_linker_0, # of connection points: 2
#     Edge 69, Type (0, 1), BuildingBlock: UVAHIK_clean_linker_0, # of connection points: 2
#     Edge 70, Type (0, 1), BuildingBlock: UVAHIK_clean_linker_0, # of connection points: 2
#     Edge 71, Type (0, 1), BuildingBlock: UVAHIK_clean_linker_0, # of connection points: 2
#     Edge 72, Type (0, 1), BuildingBlock: UVAHIK_clean_linker_0, # of connection points: 2
#     Edge 73, Type (0, 1), BuildingBlock: UVAHIK_clean_linker_0, # of connection points: 2
#     Edge 74, Type (0, 1), BuildingBlock: UVAHIK_clean_linker_0, # of connection points: 2
#     Edge 75, Type (0, 1), BuildingBlock: UVAHIK_clean_linker_0, # of connection points: 2
#     Edge 76, Type (0, 1), BuildingBlock: UVAHIK_clean_linker_0, # of connection points: 2
#     Edge 77, Type (0, 1), BuildingBlock: UVAHIK_clean_linker_0, # of connection points: 2
#     Edge 78, Type (0, 1), BuildingBlock: UVAHIK_clean_linker_0, # of connection points: 2
#     Edge 79, Type (0, 1), BuildingBlock: UVAHIK_clean_linker_0, # of connection points: 2
#     Edge 80, Type (0, 1), BuildingBlock: UVAHIK_clean_linker_0, # of connection points: 2
#     Edge 81, Type (0, 1), BuildingBlock: UVAHIK_clean_linker_0, # of connection points: 2
#     Edge 82, Type (0, 1), BuildingBlock: UVAHIK_clean_linker_0, # of connection points: 2
#     Edge 83, Type (0, 1), BuildingBlock: UVAHIK_clean_linker_0, # of connection points: 2
#     Edge 84, Type (0, 1), BuildingBlock: UVAHIK_clean_linker_0, # of connection points: 2
#     Edge 85, Type (0, 1), BuildingBlock: UVAHIK_clean_linker_0, # of connection points: 2
#     Edge 86, Type (0, 1), BuildingBlock: UVAHIK_clean_linker_0, # of connection points: 2
#     Edge 87, Type (0, 1), BuildingBlock: UVAHIK_clean_linker_0, # of connection points: 2
#     Edge 88, Type (0, 1), BuildingBlock: UVAHIK_clean_linker_0, # of connection points: 2
#     Edge 89, Type (0, 1), BuildingBlock: UVAHIK_clean_linker_0, # of connection points: 2
#     Edge 90, Type (0, 1), BuildingBlock: UVAHIK_clean_linker_0, # of connection points: 2
#     Edge 91, Type (0, 1), BuildingBlock: UVAHIK_clean_linker_0, # of connection points: 2
#     Edge 92, Type (0, 1), BuildingBlock: UVAHIK_clean_linker_0, # of connection points: 2
#     Edge 93, Type (0, 1), BuildingBlock: UVAHIK_clean_linker_0, # of connection points: 2
#     Edge 94, Type (0, 1), BuildingBlock: UVAHIK_clean_linker_0, # of connection points: 2
#     Edge 95, Type (0, 1), BuildingBlock: UVAHIK_clean_linker_0, # of connection points: 2
#     Edge 96, Type (0, 1), BuildingBlock: UVAHIK_clean_linker_0, # of connection points: 2
#     Edge 97, Type (0, 1), BuildingBlock: UVAHIK_clean_linker_0, # of connection points: 2
#     Edge 98, Type (0, 1), BuildingBlock: UVAHIK_clean_linker_0, # of connection points: 2
#     Edge 99, Type (0, 1), BuildingBlock: UVAHIK_clean_linker_0, # of connection points: 2
#     Edge 100, Type (0, 1), BuildingBlock: UVAHIK_clean_linker_0, # of connection points: 2
#     Edge 101, Type (0, 1), BuildingBlock: UVAHIK_clean_linker_0, # of connection points: 2
#     Edge 102, Type (0, 1), BuildingBlock: UVAHIK_clean_linker_0, # of connection points: 2
#     Edge 103, Type (0, 1), BuildingBlock: UVAHIK_clean_linker_0, # of connection points: 2
#     Edge 104, Type (0, 1), BuildingBlock: UVAHIK_clean_linker_0, # of connection points: 2
#     Edge 105, Type (0, 1), BuildingBlock: UVAHIK_clean_linker_0, # of connection points: 2
#     Edge 106, Type (0, 1), BuildingBlock: UVAHIK_clean_linker_0, # of connection points: 2
#     Edge 107, Type (0, 1), BuildingBlock: UVAHIK_clean_linker_0, # of connection points: 2
#     Edge 108, Type (0, 1), BuildingBlock: UVAHIK_clean_linker_0, # of connection points: 2
#     Edge 109, Type (0, 1), BuildingBlock: UVAHIK_clean_linker_0, # of connection points: 2
#     Edge 110, Type (0, 1), BuildingBlock: UVAHIK_clean_linker_0, # of connection points: 2
#     Edge 111, Type (0, 1), BuildingBlock: UVAHIK_clean_linker_0, # of connection points: 2
#     Edge 112, Type (0, 1), BuildingBlock: UVAHIK_clean_linker_0, # of connection points: 2
#     Edge 113, Type (0, 1), BuildingBlock: UVAHIK_clean_linker_0, # of connection points: 2
#     Edge 114, Type (0, 1), BuildingBlock: UVAHIK_clean_linker_0, # of connection points: 2
#     Edge 115, Type (0, 1), BuildingBlock: UVAHIK_clean_linker_0, # of connection points: 2
#     Edge 116, Type (0, 1), BuildingBlock: UVAHIK_clean_linker_0, # of connection points: 2
#     Edge 117, Type (0, 1), BuildingBlock: UVAHIK_clean_linker_0, # of connection points: 2
#     Edge 118, Type (0, 1), BuildingBlock: UVAHIK_clean_linker_0, # of connection points: 2
#     Edge 119, Type (0, 1), BuildingBlock: UVAHIK_clean_linker_0, # of connection points: 2
#     Edge 120, Type (0, 1), BuildingBlock: UVAHIK_clean_linker_0, # of connection points: 2
#     Edge 121, Type (0, 1), BuildingBlock: UVAHIK_clean_linker_0, # of connection points: 2
#     Edge 122, Type (0, 1), BuildingBlock: UVAHIK_clean_linker_0, # of connection points: 2
#     Edge 123, Type (0, 1), BuildingBlock: UVAHIK_clean_linker_0, # of connection points: 2
#     Edge 124, Type (0, 1), BuildingBlock: UVAHIK_clean_linker_0, # of connection points: 2
#     Edge 125, Type (0, 1), BuildingBlock: UVAHIK_clean_linker_0, # of connection points: 2
#     Edge 126, Type (0, 1), BuildingBlock: UVAHIK_clean_linker_0, # of connection points: 2
#     Edge 127, Type (0, 1), BuildingBlock: UVAHIK_clean_linker_0, # of connection points: 2
#     Edge 128, Type (0, 1), BuildingBlock: UVAHIK_clean_linker_0, # of connection points: 2
#     Edge 129, Type (0, 1), BuildingBlock: UVAHIK_clean_linker_0, # of connection points: 2
#     Edge 130, Type (0, 1), BuildingBlock: UVAHIK_clean_linker_0, # of connection points: 2
#     Edge 131, Type (0, 1), BuildingBlock: UVAHIK_clean_linker_0, # of connection points: 2
#     Edge 132, Type (0, 1), BuildingBlock: UVAHIK_clean_linker_0, # of connection points: 2
#     Edge 133, Type (0, 1), BuildingBlock: UVAHIK_clean_linker_0, # of connection points: 2
#     Edge 134, Type (0, 1), BuildingBlock: UVAHIK_clean_linker_0, # of connection points: 2
#     Edge 135, Type (0, 1), BuildingBlock: UVAHIK_clean_linker_0, # of connection points: 2
# Relax obj value: 0.094
# Max RMSD: 0.263
# Mean RMSD: 0.126
data_MOF--net-gar--node1-CEKHIL_clean_sbu_0--node2-MIFKUJ_clean_sbu_0--edge1-UVAHIK_clean_linker_0
_symmetry_space_group_name_H-M    P1
_symmetry_Int_Tables_number       1
_symmetry_cell_setting            triclinic
loop_
_symmetry_equiv_pos_as_xyz
'x, y, z'
_cell_length_a     72.295393
_cell_length_b     71.613339
_cell_length_c     68.636887
_cell_angle_alpha  94.222905
_cell_angle_beta   94.373339
_cell_angle_gamma 98.457617
loop_
_atom_site_label
_atom_site_type_symbol
_atom_site_fract_x
_atom_site_fract_y
_atom_site_fract_z
_atom_type_partial_charge
Co0 Co 0.02601 0.2734 0.39223 0.0
O1 O 0.05176 0.26919 0.39441 0.0
O2 O 0.0319 0.26114 0.36792 0.0
C3 C 0.03166 0.30362 0.40554 0.0
O4 O 0.99891 0.27611 0.38388 0.0
Co5 Co 0.00508 0.28303 0.42868 0.0
O6 O 0.98575 0.28913 0.4091 0.0
C7 C 0.01223 0.24385 0.41952 0.0
C8 C 0.04875 0.2619 0.37635 0.0
C9 C 0.98538 0.28345 0.39102 0.0
O10 O 0.01798 0.24817 0.40286 0.0
O11 O 0.00789 0.25606 0.43229 0.0
O12 O 0.03388 0.29979 0.38713 0.0
O13 O 0.02756 0.28917 0.41542 0.0
Co14 Co 0.99938 0.75795 0.6412 0.0
O15 O 0.97331 0.76054 0.64002 0.0
O16 O 0.9886 0.74944 0.6647 0.0
C17 C 0.00924 0.78698 0.63173 0.0
O18 O 0.02655 0.75416 0.64776 0.0
Co19 Co 0.02024 0.75964 0.6031 0.0
O20 O 0.04277 0.76015 0.62159 0.0
C21 C 0.99288 0.72617 0.60878 0.0
C22 C 0.97304 0.75422 0.65723 0.0
C23 C 0.04202 0.75635 0.63941 0.0
O24 O 0.99287 0.73171 0.62708 0.0
O25 O 0.00115 0.73634 0.59649 0.0
O26 O 0.00631 0.7849 0.64995 0.0
O27 O 0.00466 0.77193 0.61987 0.0
Co28 Co 0.52852 0.77418 0.89154 0.0
O29 O 0.55412 0.76943 0.89326 0.0
O30 O 0.53357 0.76104 0.86736 0.0
C31 C 0.53505 0.80468 0.90394 0.0
O32 O 0.5014 0.7772 0.88369 0.0
Co33 Co 0.50851 0.7857 0.92804 0.0
O34 O 0.49015 0.79329 0.90832 0.0
C35 C 0.51432 0.74583 0.91988 0.0
C36 C 0.55056 0.76168 0.8754 0.0
C37 C 0.4889 0.78631 0.89057 0.0
O38 O 0.5203 0.74949 0.90314 0.0
O39 O 0.51017 0.75854 0.93222 0.0
O40 O 0.53671 0.80025 0.88551 0.0
O41 O 0.53088 0.79063 0.91433 0.0
Co42 Co 0.49697 0.25754 0.13973 0.0
O43 O 0.47067 0.25929 0.13964 0.0
O44 O 0.48774 0.24992 0.16417 0.0
C45 C 0.50537 0.28596 0.12816 0.0
O46 O 0.52455 0.25496 0.14563 0.0
Co47 Co 0.51677 0.25779 0.10095 0.0
O48 O 0.53999 0.26065 0.11893 0.0
C49 C 0.49117 0.22386 0.1093 0.0
C50 C 0.47161 0.25378 0.15723 0.0
C51 C 0.53981 0.25757 0.13699 0.0
O52 O 0.49092 0.23062 0.1272 0.0
O53 O 0.49902 0.23335 0.09626 0.0
O54 O 0.50321 0.28492 0.14671 0.0
O55 O 0.50091 0.27026 0.11728 0.0
Co56 Co 0.01274 0.77118 0.14587 0.0
O57 O 0.98587 0.76429 0.14311 0.0
O58 O 0.00428 0.76082 0.16946 0.0
C59 C 0.01303 0.79983 0.13411 0.0
O60 O 0.04067 0.77716 0.1547 0.0
Co61 Co 0.03571 0.77875 0.11016 0.0
O62 O 0.05721 0.78725 0.13008 0.0
C63 C 0.02088 0.7394 0.11747 0.0
C64 C 0.9874 0.75913 0.16083 0.0
C65 C 0.0562 0.78384 0.14796 0.0
O66 O 0.01577 0.74523 0.13413 0.0
O67 O 0.02763 0.75065 0.10522 0.0
O68 O 0.01018 0.79766 0.15233 0.0
O69 O 0.01431 0.78456 0.12341 0.0
Co70 Co 0.50994 0.75652 0.38518 0.0
O71 O 0.53692 0.76195 0.38651 0.0
O72 O 0.51881 0.74583 0.36157 0.0
C73 C 0.50548 0.78603 0.39542 0.0
O74 O 0.48179 0.74914 0.37778 0.0
Co75 Co 0.48828 0.76044 0.42223 0.0
O76 O 0.46594 0.75777 0.40302 0.0
C77 C 0.50895 0.72821 0.41614 0.0
C78 C 0.53559 0.75318 0.3691 0.0
C79 C 0.4664 0.75161 0.38518 0.0
O80 O 0.51143 0.73241 0.39849 0.0
O81 O 0.50152 0.73859 0.42837 0.0
O82 O 0.50817 0.78187 0.3772 0.0
O83 O 0.50716 0.77284 0.40699 0.0
Co84 Co 0.51224 0.2712 0.64572 0.0
O85 O 0.4854 0.26391 0.64303 0.0
O86 O 0.50397 0.26111 0.6695 0.0
C87 C 0.51215 0.29962 0.63349 0.0
O88 O 0.54014 0.27769 0.65452 0.0
Co89 Co 0.53513 0.2785 0.60993 0.0
O90 O 0.55653 0.2877 0.62978 0.0
C91 C 0.52097 0.23919 0.61795 0.0
C92 C 0.48706 0.25904 0.66086 0.0
C93 C 0.55558 0.28453 0.64773 0.0
O94 O 0.51566 0.24522 0.63445 0.0
O95 O 0.52761 0.25028 0.60551 0.0
O96 O 0.50931 0.29764 0.65175 0.0
O97 O 0.5136 0.28427 0.62301 0.0
Co98 Co 0.0098 0.25683 0.88399 0.0
O99 O 0.03674 0.26216 0.88488 0.0
O100 O 0.01827 0.2463 0.86005 0.0
C101 C 0.00562 0.2863 0.89469 0.0
O102 O 0.98157 0.24964 0.87719 0.0
Co103 Co 0.98919 0.26047 0.92184 0.0
O104 O 0.96637 0.25767 0.90319 0.0
C105 C 0.01055 0.22904 0.91505 0.0
C106 C 0.03515 0.25354 0.86739 0.0
C107 C 0.96639 0.25189 0.88516 0.0
O108 O 0.01142 0.2326 0.89698 0.0
O109 O 0.00408 0.23971 0.92781 0.0
O110 O 0.00798 0.28229 0.87635 0.0
O111 O 0.0075 0.273 0.90605 0.0
Co112 Co 0.38915 0.02583 0.27832 0.0
O113 O 0.38949 0.05152 0.27158 0.0
O114 O 0.36496 0.02875 0.26596 0.0
C115 C 0.40349 0.0335 0.30881 0.0
O116 O 0.38276 0.99818 0.28379 0.0
Co117 Co 0.4254 0.00879 0.28907 0.0
O118 O 0.40802 0.98685 0.29642 0.0
C119 C 0.41549 0.01724 0.24841 0.0
C120 C 0.37203 0.04638 0.26491 0.0
C121 C 0.39045 0.98505 0.29153 0.0
O122 O 0.39858 0.01876 0.25224 0.0
O123 O 0.42851 0.01535 0.26152 0.0
O124 O 0.38551 0.03354 0.30566 0.0
O125 O 0.41208 0.03001 0.29353 0.0
Co126 Co 0.26886 0.12697 0.4951 0.0
O127 O 0.29562 0.12991 0.50172 0.0
O128 O 0.27568 0.10392 0.50464 0.0
C129 C 0.27077 0.13988 0.46603 0.0
O130 O 0.24073 0.11789 0.48926 0.0
Co131 Co 0.24756 0.16094 0.48864 0.0
O132 O 0.22566 0.14133 0.47961 0.0
C133 C 0.26074 0.15341 0.52887 0.0
C134 C 0.29293 0.11254 0.50644 0.0
C135 C 0.22577 0.12404 0.48275 0.0
O136 O 0.26508 0.13735 0.52252 0.0
O137 O 0.2552 0.16526 0.51749 0.0
O138 O 0.27248 0.12216 0.46718 0.0
O139 O 0.26903 0.14924 0.48237 0.0
Co140 Co 0.14103 0.00064 0.78751 0.0
O141 O 0.13831 0.97349 0.78225 0.0
O142 O 0.16391 0.99341 0.77837 0.0
C143 C 0.12835 -0.00017 0.81671 0.0
O144 O 0.14981 0.02919 0.79205 0.0
Co145 Co 0.10711 0.02205 0.79284 0.0
O146 O 0.12638 0.04456 0.80073 0.0
C147 C 0.11437 0.00695 0.75323 0.0
C148 C 0.15551 0.97599 0.77755 0.0
C149 C 0.14354 0.04444 0.79773 0.0
O150 O 0.13052 0.00323 0.75977 0.0
O151 O 0.1026 0.01275 0.76439 0.0
O152 O 0.14594 0.99816 0.81573 0.0
O153 O 0.11904 0.0009 0.80019 0.0
Co154 Co 0.24103 0.88587 0.00383 0.0
O155 O 0.21681 0.88686 0.01355 0.0
O156 O 0.24075 0.91033 0.01757 0.0
C157 C 0.23006 0.87274 0.9735 0.0
O158 O 0.26765 0.89091 0.99552 0.0
Co159 Co 0.25442 0.84832 0.98918 0.0
O160 O 0.2753 0.86515 0.97931 0.0
C161 C 0.25491 0.85906 0.03184 0.0
C162 C 0.2234 0.90417 0.02033 0.0
C163 C 0.27887 0.88265 0.9854 0.0
O164 O 0.25019 0.87532 0.02868 0.0
O165 O 0.256 0.84622 0.01814 0.0
O166 O 0.23124 0.89092 0.97761 0.0
O167 O 0.2342 0.86319 0.98796 0.0
Co168 Co 0.25882 0.39252 0.02786 0.0
O169 O 0.23182 0.38887 0.02352 0.0
O170 O 0.24922 0.41452 0.03881 0.0
C171 C 0.26394 0.38268 0.99702 0.0
O172 O 0.2869 0.40207 0.03409 0.0
Co173 Co 0.28132 0.3588 0.02302 0.0
O174 O 0.30344 0.379 0.02537 0.0
C175 C 0.2585 0.36242 0.05655 0.0
C176 C 0.23266 0.40583 0.03199 0.0
C177 C 0.30257 0.3961 0.03136 0.0
O178 O 0.25704 0.37968 0.05324 0.0
O179 O 0.26588 0.35136 0.04499 0.0
O180 O 0.26076 0.39988 0.00104 0.0
O181 O 0.26237 0.37179 0.01112 0.0
Co182 Co 0.77699 0.12841 0.01638 0.0
O183 O 0.8027 0.12802 0.01144 0.0
O184 O 0.78367 0.10357 0.02023 0.0
C185 C 0.76958 0.14292 0.98942 0.0
O186 O 0.74938 0.12338 0.0218 0.0
Co187 Co 0.76194 0.16695 0.0225 0.0
O188 O 0.73721 0.15054 0.02123 0.0
C189 C 0.78781 0.15502 0.05282 0.0
C190 C 0.80015 0.11038 0.01515 0.0
C191 C 0.73541 0.13266 0.02229 0.0
O192 O 0.78496 0.13788 0.04475 0.0
O193 O 0.78176 0.16883 0.04484 0.0
O194 O 0.76943 0.12469 0.98804 0.0
O195 O 0.77543 0.15156 0.00633 0.0
Co196 Co 0.1362 0.48769 0.26863 0.0
O197 O 0.13783 0.46199 0.27424 0.0
O198 O 0.15893 0.4803 0.25956 0.0
C199 C 0.12811 0.49756 0.29825 0.0
O200 O 0.14012 0.515 0.26144 0.0
Co201 Co 0.09872 0.50422 0.26981 0.0
O202 O 0.11502 0.52878 0.26801 0.0
C203 C 0.10395 0.47707 0.23699 0.0
C204 C 0.15384 0.46418 0.26666 0.0
C205 C 0.13176 0.52965 0.26307 0.0
O206 O 0.12161 0.4786 0.24247 0.0
O207 O 0.09233 0.48454 0.2471 0.0
O208 O 0.14562 0.49671 0.29572 0.0
O209 O 0.11623 0.49082 0.28358 0.0
Co210 Co 0.75797 0.89185 0.52716 0.0
O211 O 0.73105 0.88858 0.5224 0.0
O212 O 0.74841 0.91378 0.53853 0.0
C213 C 0.76329 0.8827 0.49614 0.0
O214 O 0.78612 0.90084 0.5339 0.0
Co215 Co 0.77972 0.85769 0.52147 0.0
O216 O 0.80213 0.87758 0.52438 0.0
C217 C 0.75652 0.86079 0.55477 0.0
C218 C 0.73187 0.90533 0.53131 0.0
C219 C 0.80162 0.89461 0.53091 0.0
O220 O 0.75556 0.87829 0.55207 0.0
O221 O 0.76375 0.84985 0.54292 0.0
O222 O 0.76057 0.89997 0.50071 0.0
O223 O 0.76126 0.87143 0.50987 0.0
Co224 Co 0.8806 0.0145 0.2528 0.0
O225 O 0.88266 0.04161 0.25817 0.0
O226 O 0.85804 0.02322 0.24234 0.0
C227 C 0.89116 0.00882 0.2833 0.0
O228 O 0.87252 0.98604 0.24568 0.0
Co229 Co 0.91529 0.9935 0.25659 0.0
O230 O 0.89617 0.97041 0.25459 0.0
C231 C 0.91025 0.01737 0.22387 0.0
C232 C 0.86574 0.04006 0.24974 0.0
C233 C 0.87909 0.97056 0.24851 0.0
O234 O 0.89306 0.01802 0.22745 0.0
O235 O 0.92167 0.00996 0.235 0.0
O236 O 0.87374 0.01099 0.27957 0.0
O237 O 0.90167 0.01158 0.26913 0.0
Co238 Co 0.27847 0.6277 0.51689 0.0
O239 O 0.30431 0.62669 0.51299 0.0
O240 O 0.2845 0.60278 0.52165 0.0
C241 C 0.27253 0.6418 0.48926 0.0
O242 O 0.25059 0.62323 0.52129 0.0
Co243 Co 0.26364 0.66647 0.52105 0.0
O244 O 0.23868 0.65038 0.51897 0.0
C245 C 0.28837 0.65505 0.55283 0.0
C246 C 0.30124 0.60914 0.51697 0.0
C247 C 0.23666 0.63259 0.52066 0.0
O248 O 0.28565 0.63773 0.54524 0.0
O249 O 0.28266 0.66865 0.54417 0.0
O250 O 0.27185 0.62351 0.48838 0.0
O251 O 0.2778 0.65067 0.50618 0.0
Co252 Co 0.3826 0.51457 0.75446 0.0
O253 O 0.38465 0.5417 0.75968 0.0
O254 O 0.35997 0.52323 0.74409 0.0
C255 C 0.39339 0.50912 0.78497 0.0
O256 O 0.37447 0.4861 0.74752 0.0
Co257 Co 0.41723 0.49351 0.75813 0.0
O258 O 0.39812 0.47042 0.75628 0.0
C259 C 0.41202 0.51722 0.7253 0.0
C260 C 0.36768 0.5401 0.75136 0.0
C261 C 0.38102 0.4706 0.7503 0.0
O262 O 0.39487 0.51795 0.72899 0.0
O263 O 0.42349 0.50983 0.73639 0.0
O264 O 0.37594 0.51124 0.78133 0.0
O265 O 0.40378 0.51174 0.77068 0.0
Co266 Co 0.63367 0.9919 0.769 0.0
O267 O 0.63338 0.96621 0.77578 0.0
O268 O 0.6558 0.98254 0.76089 0.0
C269 C 0.62558 0.00365 0.79789 0.0
O270 O 0.63979 0.01867 0.76079 0.0
Co271 Co 0.598 0.0115 0.76795 0.0
O272 O 0.61569 0.03479 0.76465 0.0
C273 C 0.60184 0.98196 0.73691 0.0
C274 C 0.6495 0.96698 0.76844 0.0
C275 C 0.63255 0.03404 0.76077 0.0
O276 O 0.61931 0.98263 0.74279 0.0
O277 O 0.59067 0.99084 0.74627 0.0
O278 O 0.6429 0.00144 0.79595 0.0
O279 O 0.61371 0.99719 0.7831 0.0
Co280 Co 0.76888 0.62804 0.99498 0.0
O281 O 0.79578 0.63219 0.0011 0.0
O282 O 0.77693 0.60563 0.0047 0.0
C283 C 0.76968 0.64059 0.96566 0.0
O284 O 0.74105 0.61753 0.98965 0.0
Co285 Co 0.74512 0.66 0.9881 0.0
O286 O 0.72427 0.63925 0.97887 0.0
C287 C 0.75958 0.65404 0.02848 0.0
C288 C 0.79392 0.61484 0.00592 0.0
C289 C 0.72557 0.62233 0.98269 0.0
O290 O 0.76503 0.63845 0.02234 0.0
O291 O 0.75286 0.66512 0.01692 0.0
O292 O 0.77233 0.62315 0.96707 0.0
O293 O 0.76758 0.64995 0.9819 0.0
Co294 Co 0.891 0.52502 0.77916 0.0
O295 O 0.89365 0.54954 0.76901 0.0
O296 O 0.86728 0.52907 0.76652 0.0
C297 C 0.90647 0.53505 0.80874 0.0
O298 O 0.8823 0.49892 0.78828 0.0
Co299 Co 0.92512 0.50556 0.79212 0.0
O300 O 0.90633 0.48802 0.80406 0.0
C301 C 0.91331 0.50619 0.74986 0.0
C302 C 0.87588 0.54562 0.76315 0.0
C303 C 0.8889 0.48678 0.79872 0.0
O304 O 0.89859 0.51342 0.75384 0.0
O305 O 0.92587 0.5032 0.76296 0.0
O306 O 0.88886 0.53675 0.80546 0.0
O307 O 0.91425 0.52865 0.7939 0.0
Co308 Co 0.74151 0.38619 0.50363 0.0
O309 O 0.71704 0.3868 0.51291 0.0
O310 O 0.74062 0.41066 0.51695 0.0
C311 C 0.7313 0.37254 0.47334 0.0
O312 O 0.76818 0.39176 0.4957 0.0
Co313 Co 0.75617 0.34903 0.49025 0.0
O314 O 0.77728 0.36602 0.48095 0.0
C315 C 0.75491 0.35995 0.53255 0.0
C316 C 0.72331 0.40423 0.51958 0.0
C317 C 0.78005 0.38368 0.48638 0.0
O318 O 0.75053 0.37621 0.52883 0.0
O319 O 0.75631 0.3469 0.51918 0.0
O320 O 0.73194 0.3907 0.47718 0.0
O321 O 0.73544 0.36327 0.48804 0.0
Co322 Co 0.64204 0.50062 0.28807 0.0
O323 O 0.63933 0.47351 0.28217 0.0
O324 O 0.66493 0.49364 0.27878 0.0
C325 C 0.62922 0.49928 0.31719 0.0
O326 O 0.65087 0.52913 0.29316 0.0
Co327 Co 0.60823 0.52208 0.29381 0.0
O328 O 0.62752 0.54448 0.30208 0.0
C329 C 0.61552 0.50763 0.25395 0.0
C330 C 0.65651 0.4762 0.2774 0.0
C331 C 0.64467 0.54435 0.29907 0.0
O332 O 0.63162 0.50372 0.26042 0.0
O333 O 0.60378 0.51334 0.26521 0.0
O334 O 0.64681 0.49761 0.31621 0.0
O335 O 0.61998 0.50066 0.30071 0.0
Zn336 Zn 0.03678 0.01124 0.03541 0.0
Zn337 Zn 0.99997 0.01815 0.00813 0.0
C338 C 0.0239 0.98149 0.05684 0.0
O339 O 0.02991 0.99554 0.07029 0.0
C340 C 0.01608 0.04873 0.98775 0.0
O341 O 0.01212 0.03533 0.97329 0.0
O342 O 0.06359 0.01124 0.04675 0.0
O343 O 0.03998 0.01542 0.00693 0.0
O344 O 0.01332 0.00021 0.99225 0.0
C345 C 0.07106 0.99945 0.03631 0.0
O346 O 0.06091 0.98948 0.02136 0.0
O347 O 0.02447 0.98462 0.03886 0.0
C348 C 0.96679 0.03261 0.00332 0.0
O349 O 0.97772 0.04528 0.01552 0.0
O350 O 0.97316 0.01793 0.99682 0.0
O351 O 0.99653 0.01398 0.03633 0.0
O352 O 0.02312 0.02908 0.05133 0.0
O353 O 0.01287 0.04481 0.00508 0.0
C354 C 0.03091 0.00549 0.99219 0.0
C355 C 0.00542 0.0242 0.05097 0.0
Zn356 Zn 0.24836 0.75087 0.28604 0.0
Zn357 Zn 0.26878 0.76799 0.25195 0.0
C358 C 0.2224 0.72012 0.2691 0.0
O359 O 0.21157 0.7314 0.27676 0.0
C360 C 0.29283 0.79785 0.27334 0.0
O361 O 0.30457 0.78787 0.26531 0.0
O362 O 0.2396 0.74511 0.31212 0.0
O363 O 0.27666 0.75557 0.29095 0.0
O364 O 0.28437 0.74871 0.26117 0.0
C365 C 0.24786 0.75325 0.32814 0.0
O366 O 0.26117 0.7678 0.3277 0.0
O367 O 0.23999 0.72581 0.2701 0.0
C368 C 0.26926 0.79168 0.22239 0.0
O369 O 0.25849 0.79848 0.23486 0.0
O370 O 0.27659 0.77715 0.22638 0.0
O371 O 0.24099 0.76034 0.24608 0.0
O372 O 0.23374 0.77029 0.27504 0.0
O373 O 0.27533 0.79164 0.27074 0.0
C374 C 0.2881 0.74968 0.27965 0.0
C375 C 0.22984 0.76771 0.25661 0.0
Zn376 Zn 0.49054 0.01057 0.53332 0.0
Zn377 Zn 0.52764 -0.0003 0.51346 0.0
C378 C 0.50582 0.04038 0.56143 0.0
O379 O 0.49671 0.02838 0.57227 0.0
C380 C 0.51155 0.97216 0.48337 0.0
O381 O 0.51976 0.98558 0.47347 0.0
O382 O 0.46406 0.01496 0.5386 0.0
O383 O 0.48939 0.00717 0.50403 0.0
O384 O 0.51789 0.02025 0.49873 0.0
C385 C 0.46048 0.0304 0.53212 0.0
O386 O 0.47348 0.04062 0.52338 0.0
O387 O 0.50661 0.03536 0.54339 0.0
C388 C 0.55857 0.98057 0.51298 0.0
O389 O 0.54533 0.96828 0.51897 0.0
O390 O 0.55467 0.99668 0.50877 0.0
O391 O 0.52824 0.00215 0.54278 0.0
O392 O 0.49956 0.98988 0.54827 0.0
O393 O 0.51212 0.975 0.50193 0.0
C394 C 0.50025 0.01747 0.49407 0.0
C395 C 0.51722 0.99157 0.55232 0.0
Zn396 Zn 0.28109 0.24758 0.76256 0.0
Zn397 Zn 0.24419 0.26585 0.77387 0.0
C398 C 0.26806 0.21983 0.73198 0.0
O399 O 0.27521 0.21013 0.74541 0.0
C400 C 0.26137 0.29299 0.80466 0.0
O401 O 0.25804 0.30435 0.79109 0.0
O402 O 0.30743 0.24175 0.75992 0.0
O403 O 0.28469 0.27619 0.76562 0.0
O404 O 0.25691 0.28149 0.75384 0.0
C405 C 0.31382 0.24787 0.74442 0.0
O406 O 0.30343 0.25721 0.73333 0.0
O407 O 0.26767 0.23738 0.73616 0.0
C408 C 0.20342 0.26099 0.76787 0.0
O409 O 0.20558 0.24694 0.75524 0.0
O410 O 0.2179 0.27167 0.77624 0.0
O411 O 0.24089 0.23734 0.77034 0.0
O412 O 0.26849 0.23205 0.78269 0.0
O413 O 0.25718 0.27516 0.80066 0.0
C414 C 0.27458 0.2866 0.75678 0.0
C415 C 0.25085 0.22694 0.77936 0.0
Zn416 Zn 0.02324 0.99072 0.52032 0.0
Zn417 Zn 0.00582 0.02534 0.50433 0.0
C418 C 0.05042 0.00695 0.5502 0.0
O419 O 0.0604 0.99915 0.53756 0.0
C420 C 0.9778 0.00906 0.47548 0.0
O421 O 0.96858 0.01777 0.4882 0.0
O422 O 0.02856 0.96507 0.52748 0.0
O423 O 0.99488 0.9871 0.51632 0.0
O424 O 0.99039 0.01592 0.52595 0.0
C425 C 0.02209 0.96141 0.54375 0.0
O426 O 0.01258 0.97346 0.55235 0.0
O427 O 0.03308 0.00701 0.54536 0.0
C428 C 0.00803 0.05622 0.48261 0.0
O429 O 0.0167 0.04416 0.47283 0.0
O430 O 0.00104 0.05143 0.49832 0.0
O431 O 0.03406 0.02876 0.50782 0.0
O432 O 0.03924 -3e-05 0.49902 0.0
O433 O 0.99532 0.0092 0.47941 0.0
C434 C 0.98477 0.99816 0.52414 0.0
C435 C 0.04435 0.0178 0.50022 0.0
Zn436 Zn 0.25862 0.77613 0.75427 0.0
Zn437 Zn 0.27071 0.73986 0.77534 0.0
C438 C 0.22733 0.75911 0.72968 0.0
O439 O 0.23926 0.76569 0.7174 0.0
C440 C 0.30242 0.75465 0.79987 0.0
O441 O 0.29102 0.746 0.81153 0.0
O442 O 0.25398 0.8028 0.74846 0.0
O443 O 0.26635 0.77898 0.78316 0.0
O444 O 0.25321 0.75179 0.79243 0.0
C445 C 0.23996 0.80681 0.75726 0.0
O446 O 0.2316 0.79417 0.76794 0.0
O447 O 0.23281 0.76048 0.74785 0.0
C448 C 0.26614 0.69839 0.77207 0.0
O449 O 0.2521 0.69958 0.75913 0.0
O450 O 0.2745 0.71341 0.78194 0.0
O451 O 0.26374 0.73733 0.74634 0.0
O452 O 0.27657 0.7647 0.7372 0.0
O453 O 0.29665 0.75488 0.78193 0.0
C454 C 0.25685 0.76978 0.79511 0.0
C455 C 0.27361 0.74667 0.73476 0.0
Zn456 Zn 0.51447 0.02451 0.99678 0.0
Zn457 Zn 0.49749 0.00036 0.02849 0.0
C458 C 0.54344 0.04781 0.02042 0.0
O459 O 0.53305 0.06011 0.01415 0.0
C460 C 0.46813 0.97493 0.0069 0.0
O461 O 0.47974 0.9632 0.0117 0.0
O462 O 0.52429 0.03606 0.97289 0.0
O463 O 0.50873 0.9968 0.98803 0.0
O464 O 0.51757 0.98757 0.01658 0.0
C465 C 0.54037 0.03173 0.96998 0.0
O466 O 0.5477 0.02042 0.98156 0.0
O467 O 0.53729 0.03024 0.01665 0.0
C468 C 0.50106 0.99777 0.06971 0.0
O469 O 0.51599 0.01041 0.06857 0.0
O470 O 0.49198 0.98987 0.05397 0.0
O471 O 0.50141 0.02852 0.03562 0.0
O472 O 0.49392 0.03786 0.00671 0.0
O473 O 0.47297 0.99255 0.01179 0.0
C474 C 0.51596 0.98504 -0.00203 0.0
C475 C 0.49441 0.04015 0.02528 0.0
Zn476 Zn 0.26017 0.23434 0.25007 0.0
Zn477 Zn 0.25296 0.27253 0.27533 0.0
C478 C 0.29365 0.24028 0.2335 0.0
O479 O 0.28136 0.23171 0.21937 0.0
C480 C 0.22187 0.26096 0.2952 0.0
O481 O 0.2351 0.26766 0.30923 0.0
O482 O 0.25968 0.20658 0.24071 0.0
O483 O 0.2517 0.23275 0.27739 0.0
O484 O 0.26924 0.25817 0.29215 0.0
C485 C 0.26985 0.19927 0.25309 0.0
O486 O 0.27832 0.20998 0.26849 0.0
O487 O 0.28784 0.24489 0.24997 0.0
C488 C 0.26231 0.3136 0.28031 0.0
O489 O 0.27432 0.31101 0.26731 0.0
O490 O 0.25343 0.29924 0.28721 0.0
O491 O 0.25787 0.27586 0.24718 0.0
O492 O 0.24602 0.24845 0.23084 0.0
O493 O 0.22597 0.26088 0.27749 0.0
C494 C 0.26201 0.2409 0.2923 0.0
C495 C 0.25058 0.26636 0.23138 0.0
Zn496 Zn 0.52249 0.4917 0.01998 0.0
Zn497 Zn 0.50789 0.52812 0.00787 0.0
C498 C 0.55037 0.50479 0.0506 0.0
O499 O 0.55983 0.49672 0.03763 0.0
C500 C 0.48071 0.51355 0.97765 0.0
O501 O 0.47141 0.52244 0.99016 0.0
O502 O 0.52694 0.46516 0.02475 0.0
O503 O 0.49425 0.48942 0.01689 0.0
O504 O 0.49103 0.51821 0.02818 0.0
C505 C 0.52024 0.46033 0.04059 0.0
O506 O 0.51106 0.47203 0.0502 0.0
O507 O 0.53323 0.50602 0.04592 0.0
C508 C 0.51224 0.5601 0.98757 0.0
O509 O 0.52165 0.54845 0.97819 0.0
O510 O 0.50423 0.55472 0.00252 0.0
O511 O 0.53597 0.53006 0.01313 0.0
O512 O 0.53816 0.50215 -0.00113 0.0
O513 O 0.49803 0.51304 0.98211 0.0
C514 C 0.48472 0.5006 0.02545 0.0
C515 C 0.54521 0.51937 0.0035 0.0
Zn516 Zn 0.75708 0.27637 0.25174 0.0
Zn517 Zn 0.76951 0.24018 0.27334 0.0
C518 C 0.72575 0.26047 0.22692 0.0
O519 O 0.73799 0.26697 0.2149 0.0
C520 C 0.80183 0.25908 0.29617 0.0
O521 O 0.7907 0.25428 0.30984 0.0
O522 O 0.75319 0.30299 0.24504 0.0
O523 O 0.76412 0.27985 0.28076 0.0
O524 O 0.75249 0.2524 0.29079 0.0
C525 C 0.73919 0.30772 0.25341 0.0
O526 O 0.73041 0.29579 0.26453 0.0
O527 O 0.73104 0.26133 0.2451 0.0
C528 C 0.76492 0.1988 0.27107 0.0
O529 O 0.75041 0.19978 0.25865 0.0
O530 O 0.77365 0.21397 0.28034 0.0
O531 O 0.76143 0.23721 0.24458 0.0
O532 O 0.77498 0.26416 0.23522 0.0
O533 O 0.79563 0.2552 0.27827 0.0
C534 C 0.75539 0.27042 0.2931 0.0
C535 C 0.77162 0.24614 0.23298 0.0
Zn536 Zn 0.0152 0.52487 0.49598 0.0
Zn537 Zn 0.99754 0.50274 0.5287 0.0
C538 C 0.04405 0.54903 0.51867 0.0
O539 O 0.03374 0.56092 0.51133 0.0
C540 C 0.96769 0.47732 0.50783 0.0
O541 O 0.9785 0.46534 0.51401 0.0
O542 O 0.02549 0.53506 0.47168 0.0
O543 O 0.00916 0.49703 0.48852 0.0
O544 O 0.0173 0.48874 0.5177 0.0
C545 C 0.04149 0.53024 0.46935 0.0
O546 O 0.04839 0.51931 0.48167 0.0
O547 O 0.03784 0.53138 0.51604 0.0
C548 C 0.99858 0.50203 0.57046 0.0
O549 O 0.01218 0.51631 0.57004 0.0
O550 O 0.99126 0.49305 0.55442 0.0
O551 O 0.00191 0.53117 0.53436 0.0
O552 O 0.99454 0.53865 0.50462 0.0
O553 O 0.97327 0.49499 0.51159 0.0
C554 C 0.01589 0.48549 0.49916 0.0
C555 C 0.99499 0.54214 0.52308 0.0
Zn556 Zn 0.78126 0.74801 0.26296 0.0
Zn557 Zn 0.74427 0.76618 0.27442 0.0
C558 C 0.76849 0.7205 0.23211 0.0
O559 O 0.7759 0.71077 0.24535 0.0
C560 C 0.75839 0.79539 0.30318 0.0
O561 O 0.75136 0.80442 0.28908 0.0
O562 O 0.80774 0.74278 0.26001 0.0
O563 O 0.78422 0.77658 0.2665 0.0
O564 O 0.75654 0.78076 0.25341 0.0
C565 C 0.81402 0.74916 0.24458 0.0
O566 O 0.80345 0.75845 0.23363 0.0
O567 O 0.76779 0.73794 0.23655 0.0
C568 C 0.70348 0.76077 0.26872 0.0
O569 O 0.70571 0.74638 0.25658 0.0
O570 O 0.7179 0.77185 0.27664 0.0
O571 O 0.74114 0.73766 0.27278 0.0
O572 O 0.76928 0.73194 0.28301 0.0
O573 O 0.75769 0.77752 0.30042 0.0
C574 C 0.77407 0.78647 0.25696 0.0
C575 C 0.75156 0.72701 0.28075 0.0
Zn576 Zn 0.74763 0.25243 0.78602 0.0
Zn577 Zn 0.76817 0.27132 0.75341 0.0
C578 C 0.74678 0.21358 0.77295 0.0
O579 O 0.75922 0.21481 0.78817 0.0
C580 C 0.79114 0.30075 0.77717 0.0
O581 O 0.80363 0.29111 0.77014 0.0
O582 O 0.73801 0.24437 0.81104 0.0
O583 O 0.77575 0.25818 0.7922 0.0
O584 O 0.784 0.2521 0.7625 0.0
C585 C 0.7442 0.25289 0.82763 0.0
O586 O 0.75586 0.26889 0.82842 0.0
O587 O 0.7407 0.2285 0.76809 0.0
C588 C 0.76929 0.29594 0.7246 0.0
O589 O 0.75857 0.30265 0.73717 0.0
O590 O 0.77635 0.28117 0.72823 0.0
O591 O 0.74048 0.26336 0.74686 0.0
O592 O 0.73247 0.2718 0.77598 0.0
O593 O 0.77379 0.29461 0.77283 0.0
C594 C 0.78748 0.2527 0.781 0.0
C595 C 0.72893 0.26993 0.75748 0.0
Zn596 Zn 0.76352 0.73418 0.74715 0.0
Zn597 Zn 0.75227 0.76978 0.77236 0.0
C598 C 0.79535 0.75192 0.73125 0.0
O599 O 0.78384 0.74592 0.71557 0.0
C600 C 0.72147 0.75679 0.79166 0.0
O601 O 0.73462 0.76361 0.8057 0.0
O602 O 0.76812 0.7086 0.7354 0.0
O603 O 0.75639 0.72893 0.77416 0.0
O604 O 0.76888 0.75631 0.78993 0.0
C605 C 0.78269 0.70397 0.74423 0.0
O606 O 0.7915 0.71509 0.75918 0.0
O607 O 0.7894 0.74991 0.74806 0.0
C608 C 0.74142 0.80495 0.77239 0.0
O609 O 0.73288 0.79574 0.75618 0.0
O610 O 0.75168 0.7966 0.78367 0.0
O611 O 0.75847 0.77344 0.74449 0.0
O612 O 0.74589 0.74598 0.72915 0.0
O613 O 0.72552 0.75707 0.77394 0.0
C614 C 0.76434 0.73843 0.78969 0.0
C615 C 0.75004 0.76387 0.72922 0.0
Zn616 Zn 0.53693 0.5115 0.53532 0.0
Zn617 Zn 0.49991 0.51706 0.50812 0.0
C618 C 0.52421 0.48149 0.5565 0.0
O619 O 0.53033 0.49541 0.57006 0.0
C620 C 0.51243 0.54618 0.48514 0.0
O621 O 0.50595 0.53194 0.47204 0.0
O622 O 0.56373 0.51148 0.54654 0.0
O623 O 0.53989 0.51608 0.5069 0.0
O624 O 0.51381 0.49913 0.49284 0.0
C625 C 0.5713 0.49989 0.53595 0.0
O626 O 0.56124 0.49009 0.52083 0.0
O627 O 0.52465 0.4848 0.53856 0.0
C628 C 0.46614 0.5302 0.50289 0.0
O629 O 0.47696 0.54366 0.51427 0.0
O630 O 0.47285 0.51552 0.49701 0.0
O631 O 0.49673 0.51435 0.53669 0.0
O632 O 0.52349 0.52923 0.55154 0.0
O633 O 0.5121 0.5435 0.50325 0.0
C634 C 0.53115 0.5055 0.4924 0.0
C635 C 0.50581 0.52442 0.55133 0.0
Zn636 Zn 0.99152 0.51019 0.03143 0.0
Zn637 Zn 0.0292 0.50131 0.0137 0.0
C638 C 0.00534 0.54076 0.05881 0.0
O639 O 0.99605 0.52878 0.06953 0.0
C640 C 0.01485 0.47289 0.98386 0.0
O641 O 0.02355 0.48612 0.97407 0.0
O642 O 0.96469 0.51467 0.03514 0.0
O643 O 0.9915 0.50523 0.0023 0.0
O644 O 0.01906 0.52136 -0.00162 0.0
C645 C 0.96149 0.52926 0.02663 0.0
O646 O 0.97487 0.53812 0.01727 0.0
O647 O 0.00685 0.53552 0.04097 0.0
C648 C 0.06036 0.48289 0.01479 0.0
O649 O 0.04718 0.47109 0.02156 0.0
O650 O 0.0564 0.49867 0.00956 0.0
O651 O 0.02921 0.50412 0.04297 0.0
O652 O 1.00077 0.49059 0.04789 0.0
O653 O 0.01447 0.47611 0.00229 0.0
C654 C 0.00176 0.51642 0.99262 0.0
C655 C 0.0184 0.49332 0.05253 0.0
C656 C 0.01105 0.1942 0.91011 0.0
C657 C 0.01644 0.21148 0.92151 0.0
C658 C 0.01445 0.17723 0.91757 0.0
C659 C 0.02566 0.15777 0.96549 0.0
H660 H 0.02848 0.11298 0.93135 0.0
C661 C 0.01387 0.08314 0.99285 0.0
C662 C 0.02142 0.06846 0.98317 0.0
C663 C 0.01621 0.10125 0.98618 0.0
C664 C 0.02813 0.12536 0.94126 0.0
H665 H 0.03068 0.2249 0.94897 0.0
H666 H 0.03789 0.19564 0.96145 0.0
H667 H 0.02837 0.14306 0.91756 0.0
H668 H 0.03833 0.0613 0.95986 0.0
H669 H 0.04364 0.09315 0.94904 0.0
H670 H 0.02649 0.14032 0.98933 0.0
C671 C 0.03012 0.19482 0.94722 0.0
C672 C 0.02766 0.14268 0.93322 0.0
C673 C 0.02621 0.21167 0.93999 0.0
C674 C 0.03228 0.07242 0.96748 0.0
C675 C 0.03509 0.09064 0.96114 0.0
C676 C 0.02664 0.14057 0.9736 0.0
C677 C 0.02379 0.17725 0.9364 0.0
C678 C 0.026 0.15909 0.94514 0.0
C679 C 0.02657 0.1052 0.96996 0.0
C680 C 0.02746 0.12398 0.96158 0.0
H681 H 0.00333 0.1937 0.89587 0.0
H682 H 0.00905 0.16411 0.90882 0.0
H683 H 0.02411 0.16989 0.97527 0.0
H684 H 0.0052 0.08035 0.00482 0.0
H685 H 0.00911 0.11183 0.99323 0.0
C686 C 0.07355 0.78329 0.18109 0.0
C687 C 0.07386 0.78603 0.161 0.0
C688 C 0.09028 0.78323 0.1928 0.0
C689 C 0.1373 0.77196 0.18826 0.0
H690 H 0.1505 0.79848 0.23989 0.0
C691 C 0.21039 0.77397 0.22699 0.0
C692 C 0.21208 0.77211 0.24725 0.0
C693 C 0.19344 0.77691 0.21756 0.0
C694 C 0.1469 0.79079 0.2256 0.0
H695 H 0.09216 0.79171 0.13776 0.0
H696 H 0.12115 0.79145 0.15813 0.0
H697 H 0.12084 0.80168 0.22156 0.0
H698 H 0.19742 0.77234 0.27363 0.0
H699 H 0.16746 0.777 0.25699 0.0
H700 H 0.16288 0.76065 0.19223 0.0
C701 C 0.10796 0.78923 0.16476 0.0
C702 C 0.12997 0.79269 0.2151 0.0
C703 C 0.09132 0.78947 0.15312 0.0
C704 C 0.19653 0.77376 0.25799 0.0
C705 C 0.1794 0.77649 0.24847 0.0
C706 C 0.15404 0.7699 0.19877 0.0
C707 C 0.10759 0.78572 0.1846 0.0
C708 C 0.12516 0.78349 0.19621 0.0
C709 C 0.17759 0.7778 0.22805 0.0
C710 C 0.15924 0.77951 0.21745 0.0
H711 H 0.06037 0.78067 0.18767 0.0
H712 H 0.0896 0.78046 0.20805 0.0
H713 H 0.13374 0.76435 0.17391 0.0
H714 H 0.2222 0.77306 0.21834 0.0
H715 H 0.19276 0.7784 0.20194 0.0
C716 C 0.49857 0.80843 0.42257 0.0
C717 C 0.50102 0.80464 0.40263 0.0
C718 C 0.49562 0.82639 0.42978 0.0
C719 C 0.50528 0.87606 0.41893 0.0
H720 H 0.47329 0.88409 0.46066 0.0
C721 C 0.50229 0.95096 0.45261 0.0
C722 C 0.50424 0.95332 0.47321 0.0
C723 C 0.49809 0.93288 0.4428 0.0
C724 C 0.48232 0.88206 0.44905 0.0
H725 H 0.50156 0.81643 0.37445 0.0
H726 H 0.49626 0.84784 0.38703 0.0
H727 H 0.47292 0.85211 0.44535 0.0
H728 H 0.50226 0.93865 0.49968 0.0
H729 H 0.49519 0.90701 0.48254 0.0
H730 H 0.51507 0.90582 0.4229 0.0
C731 C 0.49689 0.83698 0.39714 0.0
C732 C 0.48211 0.86376 0.44028 0.0
C733 C 0.49984 0.81898 0.38992 0.0
C734 C 0.50084 0.93728 0.48379 0.0
C735 C 0.49672 0.91915 0.47395 0.0
C736 C 0.50548 0.89431 0.42767 0.0
C737 C 0.49505 0.84097 0.41722 0.0
C738 C 0.49381 0.86053 0.42531 0.0
C739 C 0.49583 0.91673 0.45335 0.0
C740 C 0.4942 0.89751 0.44302 0.0
H741 H 0.49937 0.79764 0.43273 0.0
H742 H 0.4945 0.82904 0.44535 0.0
H743 H 0.51471 0.87405 0.40769 0.0
H744 H 0.50459 0.96307 0.44403 0.0
H745 H 0.4971 0.93153 0.42692 0.0
C746 C 0.45237 0.25022 0.66103 0.0
C747 C 0.47032 0.25245 0.67108 0.0
C748 C 0.43635 0.24547 0.67084 0.0
C749 C 0.41954 0.24893 0.71992 0.0
H750 H 0.37506 0.21806 0.69302 0.0
C751 C 0.3463 0.23974 0.75149 0.0
C752 C 0.33216 0.24418 0.73818 0.0
C753 C 0.36388 0.23727 0.74522 0.0
C754 C 0.3874 0.22662 0.70078 0.0
H755 H 0.48559 0.25093 0.69922 0.0
H756 H 0.45749 0.2425 0.71641 0.0
H757 H 0.40489 0.21966 0.67842 0.0
H758 H 0.32512 0.24889 0.70781 0.0
H759 H 0.35544 0.24437 0.69694 0.0
H760 H 0.40178 0.25623 0.74204 0.0
C761 C 0.45585 0.2446 0.70095 0.0
C762 C 0.40447 0.22761 0.69238 0.0
C763 C 0.47193 0.24933 0.69108 0.0
C764 C 0.33574 0.24559 0.71847 0.0
C765 C 0.35307 0.24283 0.71218 0.0
C766 C 0.40243 0.24784 0.72839 0.0
C767 C 0.43786 0.24281 0.69097 0.0
C768 C 0.4206 0.2393 0.7015 0.0
C769 C 0.36739 0.2388 0.72547 0.0
C770 C 0.38608 0.23719 0.71854 0.0
H771 H 0.45062 0.25256 0.64563 0.0
H772 H 0.42274 0.24453 0.66275 0.0
H773 H 0.43166 0.25815 0.72729 0.0
H774 H 0.34392 0.2386 0.76678 0.0
H775 H 0.37471 0.23418 0.75575 0.0
C776 C 0.01765 0.82224 0.63692 0.0
C777 C 0.0161 0.80544 0.62461 0.0
C778 C 0.02194 0.83981 0.62938 0.0
C779 C 0.03992 0.86369 0.58701 0.0
H780 H 0.00544 0.89846 0.59981 0.0
C781 C 0.02937 0.92812 0.54292 0.0
C782 C 0.0254 0.94438 0.55349 0.0
C783 C 0.03088 0.91165 0.55237 0.0
C784 C 0.01544 0.88911 0.59632 0.0
H785 H 0.01888 0.79377 0.59509 0.0
H786 H 0.02632 0.8244 0.58196 0.0
H787 H 0.00422 0.86916 0.61564 0.0
H788 H 0.02121 0.95668 0.58237 0.0
H789 H 0.02436 0.92834 0.59883 0.0
H790 H 0.05101 0.88368 0.56749 0.0
C791 C 0.02428 0.82404 0.59741 0.0
C792 C 0.01473 0.8723 0.60542 0.0
C793 C 0.01989 0.80649 0.60491 0.0
C794 C 0.02389 0.94422 0.57375 0.0
C795 C 0.02563 0.92794 0.58319 0.0
C796 C 0.04072 0.88063 0.57794 0.0
C797 C 0.02487 0.84087 0.60944 0.0
C798 C 0.02686 0.85935 0.60079 0.0
C799 C 0.02865 0.9113 0.57256 0.0
C800 C 0.02841 0.8935 0.58244 0.0
H801 H 0.01489 0.82184 0.65219 0.0
H802 H 0.02253 0.85259 0.63904 0.0
H803 H 0.0495 0.85398 0.58323 0.0
H804 H 0.03062 0.92792 0.52729 0.0
H805 H 0.03311 0.89903 0.54373 0.0
C806 C 0.46536 0.774 0.86212 0.0
C807 C 0.47173 0.78764 0.87789 0.0
C808 C 0.44806 0.77408 0.85153 0.0
C809 C 0.40287 0.79148 0.85762 0.0
H810 H 0.39134 0.77042 0.80366 0.0
C811 C 0.32788 0.76109 0.82718 0.0
C812 C 0.32194 0.76257 0.80747 0.0
C813 C 0.34649 0.76722 0.8344 0.0
C814 C 0.39435 0.77664 0.81863 0.0
H815 H 0.46562 0.81286 0.89403 0.0
H816 H 0.43587 0.81349 0.87513 0.0
H817 H 0.42384 0.77624 0.81783 0.0
H818 H 0.33085 0.77211 0.77993 0.0
H819 H 0.36351 0.78319 0.79268 0.0
H820 H 0.37351 0.7922 0.85837 0.0
C821 C 0.44381 0.80225 0.87136 0.0
C822 C 0.41298 0.77973 0.82688 0.0
C823 C 0.46094 0.80197 0.88215 0.0
C824 C 0.33501 0.77076 0.7952 0.0
C825 C 0.35373 0.77699 0.80247 0.0
C826 C 0.38434 0.7886 0.84934 0.0
C827 C 0.43685 0.78799 0.85628 0.0
C828 C 0.41744 0.78675 0.84664 0.0
C829 C 0.35972 0.77515 0.82215 0.0
C830 C 0.37974 0.78062 0.82993 0.0
H831 H 0.47335 0.76275 0.85851 0.0
H832 H 0.44314 0.76272 0.84022 0.0
H833 H 0.4056 0.79672 0.87293 0.0
H834 H 0.31824 0.7548 0.83706 0.0
H835 H 0.35061 0.76519 0.84951 0.0
C836 C 0.47883 0.19785 0.08342 0.0
C837 C 0.48344 0.20378 0.1034 0.0
C838 C 0.47473 0.17864 0.07708 0.0
C839 C 0.48725 0.13385 0.09114 0.0
H840 H 0.45386 0.11327 0.0452 0.0
C841 C 0.48819 0.05874 0.05569 0.0
C842 C 0.48856 0.05712 0.03517 0.0
C843 C 0.48384 0.07513 0.0654 0.0
C844 C 0.46328 0.11883 0.05802 0.0
H845 H 0.48608 0.19423 0.13259 0.0
H846 H 0.47887 0.16045 0.12146 0.0
H847 H 0.45162 0.14463 0.0606 0.0
H848 H 0.48405 0.07123 0.00872 0.0
H849 H 0.47669 0.10004 0.02574 0.0
H850 H 0.49936 0.10842 0.08822 0.0
C851 C 0.47863 0.17077 0.1107 0.0
C852 C 0.46195 0.13675 0.06688 0.0
C853 C 0.48262 0.19009 0.11709 0.0
C854 C 0.48389 0.07204 0.02452 0.0
C855 C 0.47956 0.08849 0.03428 0.0
C856 C 0.48856 0.11595 0.08231 0.0
C857 C 0.4752 0.16486 0.09056 0.0
C858 C 0.47426 0.14466 0.08324 0.0
C859 C 0.47976 0.09032 0.05486 0.0
C860 C 0.4769 0.10843 0.06537 0.0
H861 H 0.47916 0.20805 0.07251 0.0
H862 H 0.47232 0.17464 0.06146 0.0
H863 H 0.49715 0.13963 0.10352 0.0
H864 H 0.4915 0.04743 0.06434 0.0
H865 H 0.48383 0.07597 0.08122 0.0
C866 C 0.08153 0.25481 0.37587 0.0
C867 C 0.06417 0.25583 0.36567 0.0
C868 C 0.09669 0.2507 0.36577 0.0
C869 C 0.11577 0.25548 0.31838 0.0
H870 H 0.15125 0.22483 0.33938 0.0
C871 C 0.1871 0.25215 0.28606 0.0
C872 C 0.20251 0.25488 0.3003 0.0
C873 C 0.16874 0.24829 0.29161 0.0
C874 C 0.14149 0.23344 0.33332 0.0
H875 H 0.0489 0.25283 0.33688 0.0
H876 H 0.07555 0.24578 0.31916 0.0
H877 H 0.1215 0.22533 0.3538 0.0
H878 H 0.21078 0.25483 0.33136 0.0
H879 H 0.17906 0.24829 0.34095 0.0
H880 H 0.13609 0.26423 0.29845 0.0
C881 C 0.07738 0.24819 0.335 0.0
C882 C 0.12445 0.23371 0.34157 0.0
C883 C 0.06212 0.25213 0.34515 0.0
C884 C 0.19924 0.2529 0.32001 0.0
C885 C 0.181 0.24896 0.32551 0.0
C886 C 0.13287 0.25527 0.31016 0.0
C887 C 0.09489 0.24765 0.3452 0.0
C888 C 0.11163 0.24515 0.33457 0.0
C889 C 0.1655 0.2469 0.31145 0.0
C890 C 0.14617 0.24469 0.31793 0.0
H891 H 0.08356 0.25758 0.39168 0.0
H892 H 0.11004 0.25062 0.37405 0.0
H893 H 0.10624 0.26454 0.31275 0.0
H894 H 0.18918 0.25358 0.27075 0.0
H895 H 0.15709 0.24662 0.2804 0.0
C896 C 0.90602 0.02398 0.18833 0.0
C897 C 0.91757 0.02469 0.20587 0.0
C898 C 0.91397 0.02802 0.17078 0.0
C899 C 0.95831 0.04862 0.15049 0.0
H900 H 0.94208 0.01027 0.10735 0.0
C901 C 0.00418 0.03421 0.08682 0.0
C902 C 0.99498 0.02867 0.06806 0.0
C903 C 0.99377 0.03669 0.103 0.0
C904 C 0.94663 0.02132 0.11909 0.0
H905 H 0.94626 0.03155 0.21904 0.0
H906 H 0.95996 0.03854 0.18876 0.0
H907 H 0.92481 0.01032 0.13639 0.0
H908 H 0.9677 0.02246 0.05142 0.0
H909 H 0.94975 0.02707 0.07939 0.0
H910 H 0.98045 0.05932 0.13332 0.0
C911 C 0.94485 0.03488 0.18835 0.0
C912 C 0.93665 0.02137 0.13575 0.0
C913 C 0.93698 0.0307 0.20573 0.0
C914 C 0.97526 0.02644 0.06572 0.0
C915 C 0.96492 0.02902 0.08179 0.0
C916 C 0.9683 0.04858 0.1338 0.0
C917 C 0.93355 0.03308 0.17055 0.0
C918 C 0.94256 0.03479 0.15182 0.0
C919 C 0.97398 0.03379 0.10071 0.0
C920 C 0.96276 0.03474 0.11801 0.0
H921 H 0.89103 0.01939 0.18799 0.0
H922 H 0.90486 0.0267 0.15732 0.0
H923 H 0.96311 0.05931 0.16251 0.0
H924 H 0.01935 0.036 0.08911 0.0
H925 H 0.00122 0.04023 0.1174 0.0
C926 C 0.25866 0.64316 0.45471 0.0
C927 C 0.26783 0.65232 0.47238 0.0
C928 C 0.25456 0.65377 0.43898 0.0
C929 C 0.27124 0.69811 0.41876 0.0
H930 H 0.22112 0.69509 0.39303 0.0
C931 C 0.25603 0.75123 0.36392 0.0
C932 C 0.24553 0.74367 0.34634 0.0
C933 C 0.25664 0.74044 0.38003 0.0
C934 C 0.23523 0.69598 0.39995 0.0
H935 H 0.27987 0.67961 0.48751 0.0
H936 H 0.27303 0.69784 0.46017 0.0
H937 H 0.2269 0.67402 0.41863 0.0
H938 H 0.22628 0.71939 0.33234 0.0
H939 H 0.22771 0.7005 0.36019 0.0
H940 H 0.27984 0.71965 0.40005 0.0
C941 C 0.26895 0.68259 0.45841 0.0
C942 C 0.2385 0.68389 0.41453 0.0
C943 C 0.27278 0.67212 0.47408 0.0
C944 C 0.2346 0.72563 0.34565 0.0
C945 C 0.23535 0.71478 0.36168 0.0
C946 C 0.26804 0.71001 0.40412 0.0
C947 C 0.2599 0.67355 0.44071 0.0
C948 C 0.2565 0.68504 0.42418 0.0
C949 C 0.24689 0.72181 0.37882 0.0
C950 C 0.24996 0.70927 0.39468 0.0
H951 H 0.25465 0.62791 0.45307 0.0
H952 H 0.24759 0.64652 0.42539 0.0
H953 H 0.2853 0.69909 0.42586 0.0
H954 H 0.26444 0.76516 0.36499 0.0
H955 H 0.26526 0.74648 0.39323 0.0
C956 C 0.60632 0.96957 0.7027 0.0
C957 C 0.59437 0.97228 0.71752 0.0
C958 C 0.59883 0.96447 0.6833 0.0
C959 C 0.55401 0.95007 0.65118 0.0
H960 H 0.57773 0.98642 0.61814 0.0
C961 C 0.51504 0.9773 0.58466 0.0
C962 C 0.52542 0.98262 0.56895 0.0
C963 C 0.52387 0.97085 0.60121 0.0
C964 C 0.57108 0.97585 0.62692 0.0
H965 H 0.56525 0.96969 0.72406 0.0
H966 H 0.5523 0.96109 0.69044 0.0
H967 H 0.59315 0.98284 0.64988 0.0
H968 H 0.55275 0.984 0.55757 0.0
H969 H 0.56784 0.97225 0.58592 0.0
H970 H 0.53151 0.9437 0.62833 0.0
C971 C 0.56739 0.96287 0.69361 0.0
C972 C 0.58 0.97375 0.64517 0.0
C973 C 0.57485 0.96801 0.71291 0.0
C974 C 0.54441 0.98028 0.56957 0.0
C975 C 0.55311 0.97361 0.58588 0.0
C976 C 0.54505 0.95216 0.63283 0.0
C977 C 0.57929 0.96191 0.67845 0.0
C978 C 0.57138 0.9612 0.65775 0.0
C979 C 0.54315 0.96942 0.60218 0.0
C980 C 0.55331 0.9654 0.62069 0.0
H981 H 0.62143 0.97262 0.70582 0.0
H982 H 0.60836 0.96352 0.67195 0.0
H983 H 0.54709 0.94015 0.66047 0.0
H984 H 0.50038 0.97894 0.58455 0.0
H985 H 0.51581 0.96786 0.61359 0.0
C986 C 0.26164 0.38283 0.96055 0.0
C987 C 0.26867 0.37568 0.9776 0.0
C988 C 0.26429 0.37454 0.94207 0.0
C989 C 0.27629 0.32963 0.91864 0.0
H990 H 0.27545 0.35759 0.87249 0.0
C991 C 0.26091 0.29178 0.84087 0.0
C992 C 0.26743 0.30111 0.82489 0.0
C993 C 0.26411 0.30087 0.85982 0.0
C994 C 0.27611 0.34953 0.88518 0.0
H995 H 0.28503 0.35519 0.98886 0.0
H996 H 0.29074 0.34154 0.95683 0.0
H997 H 0.27647 0.37433 0.90456 0.0
H998 H 0.28353 0.3266 0.81618 0.0
H999 H 0.29022 0.34203 0.84932 0.0
H1000 H 0.27689 0.30499 0.89936 0.0
C1001 C 0.28234 0.35286 0.95749 0.0
C1002 C 0.2763 0.35916 0.90368 0.0
C1003 C 0.27924 0.36081 0.97591 0.0
C1004 C 0.2782 0.31919 0.82829 0.0
C1005 C 0.28183 0.3281 0.84728 0.0
C1006 C 0.27655 0.32009 0.90019 0.0
C1007 C 0.27446 0.35922 0.94027 0.0
C1008 C 0.27598 0.3493 0.92067 0.0
C1009 C 0.27431 0.31934 0.86326 0.0
C1010 C 0.27603 0.3298 0.88313 0.0
H1011 H 0.25332 0.39422 0.9615 0.0
H1012 H 0.25772 0.37973 0.92928 0.0
H1013 H 0.27578 0.32137 0.93122 0.0
H1014 H 0.25241 0.2779 0.83861 0.0
H1015 H 0.2578 0.29368 0.87156 0.0
C1016 C 0.91717 0.99928 0.30437 0.0
C1017 C 0.89878 0.00351 0.30234 0.0
C1018 C 0.92521 0.99572 0.32257 0.0
C1019 C 0.91496 0.98464 0.37294 0.0
H1020 H 0.96588 0.01048 0.38628 0.0
C1021 C 0.94894 0.00163 0.45222 0.0
C1022 C 0.96838 0.00193 0.4559 0.0
C1023 C 0.94027 0.99784 0.43318 0.0
C1024 C 0.95181 0.00283 0.3827 0.0
H1025 H 0.87415 0.00666 0.31763 0.0
H1026 H 0.88837 0.00077 0.34968 0.0
H1027 H 0.95079 0.01169 0.35367 0.0
H1028 H 0.99378 0.99724 0.44267 0.0
H1029 H 0.97858 0.99041 0.40934 0.0
H1030 H 0.91592 0.97622 0.40228 0.0
C1031 C 0.89647 -3e-05 0.33709 0.0
C1032 C 0.94312 0.00356 0.36397 0.0
C1033 C 0.88835 0.00345 0.31878 0.0
C1034 C 0.97879 0.99721 0.44029 0.0
C1035 C 0.97011 0.99344 0.42119 0.0
C1036 C 0.92368 0.98392 0.39173 0.0
C1037 C 0.91514 0.99643 0.33924 0.0
C1038 C 0.92453 0.99464 0.35891 0.0
C1039 C 0.95085 0.99426 0.41735 0.0
C1040 C 0.94214 0.9932 0.39689 0.0
H1041 H 0.92553 0.99902 0.29194 0.0
H1042 H 0.93947 0.99266 0.32362 0.0
H1043 H 0.90072 0.97742 0.36942 0.0
H1044 H 0.94048 0.0051 0.46395 0.0
H1045 H 0.92546 0.99874 0.43076 0.0
C1046 C 0.30576 0.67841 0.57873 0.0
C1047 C 0.29658 0.65987 0.57324 0.0
C1048 C 0.30874 0.6853 0.5984 0.0
C1049 C 0.28499 0.6776 0.64273 0.0
H1050 H 0.32229 0.71988 0.66494 0.0
C1051 C 0.27827 0.71625 0.71723 0.0
C1052 C 0.28033 0.73615 0.718 0.0
C1053 C 0.28362 0.70579 0.7013 0.0
C1054 C 0.31177 0.70811 0.65887 0.0
H1055 H 0.28525 0.63329 0.58403 0.0
H1056 H 0.29081 0.64521 0.61867 0.0
H1057 H 0.32762 0.70184 0.63475 0.0
H1058 H 0.29037 0.7607 0.70291 0.0
H1059 H 0.29967 0.74222 0.67472 0.0
H1060 H 0.269 0.68404 0.66657 0.0
C1061 C 0.29529 0.65457 0.60768 0.0
C1062 C 0.31483 0.69773 0.64164 0.0
C1063 C 0.29231 0.64765 0.58787 0.0
C1064 C 0.28852 0.74539 0.70269 0.0
C1065 C 0.29394 0.73483 0.68665 0.0
C1066 C 0.28203 0.68786 0.65997 0.0
C1067 C 0.30263 0.67377 0.61306 0.0
C1068 C 0.30126 0.6826 0.63311 0.0
C1069 C 0.29122 0.7149 0.68568 0.0
C1070 C 0.2952 0.70344 0.66803 0.0
H1071 H 0.30939 0.68809 0.56771 0.0
H1072 H 0.31437 0.70013 0.60188 0.0
H1073 H 0.27402 0.66636 0.63641 0.0
H1074 H 0.27234 0.70862 0.72888 0.0
H1075 H 0.28166 0.69048 0.70115 0.0
C1076 C 0.60088 0.01627 0.81599 0.0
C1077 C 0.61964 0.01337 0.8155 0.0
C1078 C 0.59468 0.02422 0.83298 0.0
C1079 C 0.60516 0.02735 0.88583 0.0
H1080 H 0.56658 0.05972 0.88603 0.0
C1081 C 0.57043 0.04116 0.95579 0.0
C1082 C 0.55074 0.03831 0.95356 0.0
C1083 C 0.58069 0.04387 0.9396 0.0
C1084 C 0.57734 0.05068 0.8862 0.0
H1085 H 0.64686 0.01726 0.83208 0.0
H1086 H 0.63598 0.03115 0.86197 0.0
H1087 H 0.58179 0.05383 0.85603 0.0
H1088 H 0.52626 0.03734 0.9331 0.0
H1089 H 0.54418 0.04142 0.90446 0.0
H1090 H 0.60026 0.02339 0.91557 0.0
C1091 C 0.62606 0.02714 0.84919 0.0
C1092 C 0.58607 0.04734 0.86906 0.0
C1093 C 0.63229 0.01922 0.83211 0.0
C1094 C 0.54145 0.03955 0.93513 0.0
C1095 C 0.55175 0.04195 0.91878 0.0
C1096 C 0.59643 0.03063 0.9029 0.0
C1097 C 0.6071 0.02939 0.84989 0.0
C1098 C 0.59978 0.0353 0.8686 0.0
C1099 C 0.57146 0.04339 0.92076 0.0
C1100 C 0.58216 0.04203 0.90321 0.0
H1101 H 0.5908 0.01196 0.80338 0.0
H1102 H 0.57995 0.02551 0.83311 0.0
H1103 H 0.61541 0.01774 0.88589 0.0
H1104 H 0.5779 0.04056 0.96998 0.0
H1105 H 0.59586 0.04548 0.94173 0.0
C1106 C 0.25315 0.36605 0.09242 0.0
C1107 C 0.25214 0.35462 0.07472 0.0
C1108 C 0.24984 0.35776 0.10998 0.0
C1109 C 0.23016 0.31282 0.13018 0.0
H1110 H 0.26866 0.32898 0.17296 0.0
C1111 C 0.2431 0.26712 0.19491 0.0
C1112 C 0.24802 0.27669 0.21362 0.0
C1113 C 0.24154 0.27734 0.17833 0.0
C1114 C 0.25761 0.32444 0.1613 0.0
H1115 H 0.2456 0.32576 0.06132 0.0
H1116 H 0.23977 0.31146 0.09165 0.0
H1117 H 0.26842 0.34639 0.14382 0.0
H1118 H 0.25447 0.30456 0.22959 0.0
H1119 H 0.2516 0.32212 0.20095 0.0
H1120 H 0.21955 0.29064 0.14755 0.0
C1121 C 0.24316 0.32674 0.09215 0.0
C1122 C 0.25745 0.33449 0.1446 0.0
C1123 C 0.24666 0.33495 0.07475 0.0
C1124 C 0.25091 0.29665 0.2154 0.0
C1125 C 0.24933 0.30679 0.19893 0.0
C1126 C 0.2303 0.30277 0.14691 0.0
C1127 C 0.24517 0.33795 0.11006 0.0
C1128 C 0.24389 0.32865 0.12871 0.0
C1129 C 0.24484 0.29731 0.18015 0.0
C1130 C 0.24417 0.30832 0.16258 0.0
H1131 H 0.25738 0.38124 0.09283 0.0
H1132 H 0.25132 0.36679 0.12355 0.0
H1133 H 0.2194 0.30807 0.11827 0.0
H1134 H 0.24078 0.25179 0.19302 0.0
H1135 H 0.23821 0.26958 0.16404 0.0
C1136 C 0.21783 0.9361 0.03409 0.0
C1137 C 0.2113 0.91668 0.02946 0.0
C1138 C 0.20567 0.9483 0.0405 0.0
C1139 C 0.15858 0.94979 0.05867 0.0
H1140 H 0.15876 0.99368 0.02877 0.0
C1141 C 0.10088 0.99245 0.02422 0.0
C1142 C 0.09074 0.99659 0.0402 0.0
C1143 C 0.11846 0.98687 0.02715 0.0
C1144 C 0.15868 0.98163 0.03745 0.0
H1145 H 0.18716 0.89468 0.02896 0.0
H1146 H 0.16597 0.91592 0.04001 0.0
H1147 H 0.18416 0.9749 0.02686 0.0
H1148 H 0.09117 0.99876 0.07186 0.0
H1149 H 0.12208 0.98842 0.07708 0.0
H1150 H 0.13247 0.95601 0.06835 0.0
C1151 C 0.1805 0.92175 0.03883 0.0
C1152 C 0.1733 0.97092 0.03646 0.0
C1153 C 0.19262 0.90957 0.03234 0.0
C1154 C 0.09883 0.99577 0.05932 0.0
C1155 C 0.11639 0.98977 0.06228 0.0
C1156 C 0.14399 0.96059 0.05975 0.0
C1157 C 0.18675 0.94133 0.04253 0.0
C1158 C 0.17308 0.95448 0.0465 0.0
C1159 C 0.12622 0.98497 0.04615 0.0
C1160 C 0.14355 0.97621 0.04856 0.0
H1161 H 0.23217 0.942 0.03212 0.0
H1162 H 0.21096 0.96328 0.04343 0.0
H1163 H 0.15814 0.93734 0.06678 0.0
H1164 H 0.09494 0.99298 0.00932 0.0
H1165 H 0.12554 0.98305 0.01442 0.0
C1166 C 0.6914 0.612 0.9715 0.0
C1167 C 0.7083 0.60801 0.98065 0.0
C1168 C 0.67471 0.5993 0.9715 0.0
C1169 C 0.65264 0.56425 0.00163 0.0
H1170 H 0.6143 0.5525 0.95794 0.0
C1171 C 0.5746 0.5425 0.01135 0.0
C1172 C 0.56472 0.52665 -0.00027 0.0
C1173 C 0.59289 0.54985 0.00793 0.0
C1174 C 0.62497 0.55549 0.97019 0.0
H1175 H 0.72096 0.58708 0.99622 0.0
H1176 H 0.69182 0.56512 0.99636 0.0
H1177 H 0.64517 0.56997 0.95292 0.0
H1178 H 0.56628 0.50609 0.97535 0.0
H1179 H 0.5984 0.51939 0.96899 0.0
H1180 H 0.63229 0.55044 0.01906 0.0
C1181 C 0.69152 0.5781 0.98925 0.0
C1182 C 0.64255 0.56559 0.96735 0.0
C1183 C 0.70823 0.59068 0.98909 0.0
C1184 C 0.57359 0.51828 0.98456 0.0
C1185 C 0.59187 0.52591 0.98088 0.0
C1186 C 0.63503 0.55443 0.0045 0.0
C1187 C 0.67453 0.58244 0.9808 0.0
C1188 C 0.65647 0.57027 0.98312 0.0
C1189 C 0.60169 0.54173 0.99261 0.0
C1190 C 0.62094 0.55021 0.9889 0.0
H1191 H 0.69094 0.62516 0.96479 0.0
H1192 H 0.66181 0.6031 0.96498 0.0
H1193 H 0.66301 0.5678 0.0141 0.0
H1194 H 0.56821 0.54922 0.02322 0.0
H1195 H 0.60007 0.56216 0.01707 0.0
C1196 C 0.65662 0.4414 0.27035 0.0
C1197 C 0.66611 0.46007 0.27123 0.0
C1198 C 0.66571 0.42606 0.2652 0.0
C1199 C 0.71283 0.41199 0.26341 0.0
H1200 H 0.68462 0.36762 0.23322 0.0
C1201 C 0.74381 0.34214 0.24603 0.0
C1202 C 0.73221 0.32593 0.25091 0.0
C1203 C 0.73699 0.35953 0.24553 0.0
C1204 C 0.69271 0.37991 0.24163 0.0
H1205 H 0.69261 0.47725 0.26718 0.0
H1206 H 0.70848 0.45041 0.258 0.0
H1207 H 0.67033 0.39618 0.23802 0.0
H1208 H 0.70422 0.3151 0.25835 0.0
H1209 H 0.69243 0.34501 0.25722 0.0
H1210 H 0.73511 0.39543 0.26725 0.0
C1211 C 0.69403 0.44765 0.26149 0.0
C1212 C 0.68449 0.39627 0.24447 0.0
C1213 C 0.6849 0.46304 0.26665 0.0
C1214 C 0.71358 0.32731 0.25461 0.0
C1215 C 0.70674 0.34447 0.25383 0.0
C1216 C 0.7211 0.39558 0.26048 0.0
C1217 C 0.68455 0.42894 0.26074 0.0
C1218 C 0.69422 0.41236 0.25586 0.0
C1219 C 0.71836 0.36085 0.24949 0.0
C1220 C 0.71093 0.37919 0.25002 0.0
H1221 H 0.64218 0.43858 0.27387 0.0
H1222 H 0.65804 0.41188 0.26514 0.0
H1223 H 0.72072 0.42407 0.27234 0.0
H1224 H 0.75825 0.34151 0.2432 0.0
H1225 H 0.74626 0.37193 0.2421 0.0
C1226 C 0.81326 0.38636 0.47728 0.0
C1227 C 0.79814 0.39517 0.48297 0.0
C1228 C 0.83083 0.39708 0.47592 0.0
C1229 C 0.85898 0.44286 0.49524 0.0
H1230 H 0.89365 0.42823 0.45863 0.0
C1231 C 0.9347 0.48218 0.49811 0.0
C1232 C 0.9484 0.47015 0.49905 0.0
C1233 C 0.91589 0.47476 0.49248 0.0
C1234 C 0.88409 0.43249 0.46891 0.0
H1235 H 0.78941 0.4223 0.49063 0.0
H1236 H 0.81991 0.44099 0.48781 0.0
H1237 H 0.86121 0.41212 0.4554 0.0
H1238 H 0.95333 0.44114 0.49364 0.0
H1239 H 0.9206 0.42826 0.48372 0.0
H1240 H 0.88193 0.46303 0.5089 0.0
C1241 C 0.81834 0.42575 0.48491 0.0
C1242 C 0.86554 0.42322 0.46713 0.0
C1243 C 0.8008 0.41502 0.48643 0.0
C1244 C 0.94309 0.45077 0.49317 0.0
C1245 C 0.92434 0.44339 0.48736 0.0
C1246 C 0.87747 0.45221 0.49692 0.0
C1247 C 0.83369 0.41688 0.48005 0.0
C1248 C 0.85285 0.42802 0.48053 0.0
C1249 C 0.91047 0.45522 0.48746 0.0
C1250 C 0.89033 0.44687 0.48403 0.0
H1251 H 0.81173 0.3711 0.47455 0.0
H1252 H 0.84235 0.3897 0.47239 0.0
H1253 H 0.84975 0.44675 0.50604 0.0
H1254 H 0.93835 0.49719 0.50253 0.0
H1255 H 0.90551 0.48424 0.4925 0.0
C1256 C 0.36862 0.07924 0.2569 0.0
C1257 C 0.36046 0.06031 0.25777 0.0
C1258 C 0.35746 0.09297 0.25254 0.0
C1259 C 0.31021 0.10139 0.23366 0.0
H1260 H 0.32175 0.14567 0.27105 0.0
C1261 C 0.27709 0.17169 0.23177 0.0
C1262 C 0.27377 0.17969 0.25024 0.0
C1263 C 0.28537 0.15514 0.23032 0.0
C1264 C 0.31828 0.13337 0.26053 0.0
H1265 H 0.33431 0.04071 0.25358 0.0
H1266 H 0.31474 0.06482 0.24616 0.0
H1267 H 0.34156 0.12115 0.27195 0.0
H1268 H 0.27464 0.17591 0.2813 0.0
H1269 H 0.2886 0.14703 0.27874 0.0
H1270 H 0.28664 0.11383 0.22248 0.0
C1271 C 0.3298 0.06899 0.24874 0.0
C1272 C 0.32979 0.11941 0.26088 0.0
C1273 C 0.341 0.05521 0.2531 0.0
C1274 C 0.27727 0.17011 0.26691 0.0
C1275 C 0.28534 0.15364 0.26546 0.0
C1276 C 0.29869 0.11555 0.2332 0.0
C1277 C 0.33786 0.08811 0.24899 0.0
C1278 C 0.32587 0.10321 0.24756 0.0
C1279 C 0.29031 0.14648 0.24733 0.0
C1280 C 0.3025 0.13154 0.24686 0.0
H1281 H 0.38359 0.08361 0.26021 0.0
H1282 H 0.36412 0.10754 0.2525 0.0
H1283 H 0.3069 0.08907 0.22316 0.0
H1284 H 0.27463 0.17894 0.21873 0.0
H1285 H 0.28905 0.14988 0.21615 0.0
C1286 C 0.3273 0.1128 0.51466 0.0
C1287 C 0.30888 0.10294 0.51291 0.0
C1288 C 0.34251 0.10368 0.51992 0.0
C1289 C 0.35697 0.05635 0.51992 0.0
H1290 H 0.39994 0.08394 0.55249 0.0
C1291 C 0.42594 0.02498 0.53739 0.0
C1292 C 0.44224 0.03719 0.534 0.0
C1293 C 0.40863 0.03168 0.53765 0.0
C1294 C 0.38804 0.07603 0.54338 0.0
H1295 H 0.29197 0.07577 0.51558 0.0
H1296 H 0.31861 0.05982 0.52491 0.0
H1297 H 0.37149 0.09816 0.54769 0.0
H1298 H 0.45326 0.0661 0.52884 0.0
H1299 H 0.42342 0.07767 0.52946 0.0
H1300 H 0.3738 0.03436 0.51535 0.0
C1301 C 0.32127 0.0746 0.52203 0.0
C1302 C 0.37176 0.08421 0.54056 0.0
C1303 C 0.306 0.08376 0.51679 0.0
C1304 C 0.44098 0.05627 0.53144 0.0
C1305 C 0.42387 0.06297 0.53193 0.0
C1306 C 0.3733 0.04813 0.52279 0.0
C1307 C 0.33973 0.08444 0.52358 0.0
C1308 C 0.35618 0.07471 0.52837 0.0
C1309 C 0.40744 0.05077 0.53486 0.0
C1310 C 0.38919 0.0581 0.53413 0.0
H1311 H 0.33003 0.12756 0.51171 0.0
H1312 H 0.35653 0.11164 0.52063 0.0
H1313 H 0.34529 0.04868 0.51034 0.0
H1314 H 0.42647 0.01019 0.53936 0.0
H1315 H 0.3962 0.02196 0.54 0.0
C1316 C 0.67667 0.56356 0.29772 0.0
C1317 C 0.65756 0.56274 0.30089 0.0
C1318 C 0.68823 0.58106 0.29745 0.0
C1319 C 0.68479 0.62972 0.28657 0.0
H1320 H 0.7351 0.64294 0.31247 0.0
C1321 C 0.72343 0.70547 0.28885 0.0
C1322 C 0.74265 0.70832 0.28607 0.0
C1323 C 0.71421 0.68759 0.29206 0.0
C1324 C 0.72116 0.63939 0.30495 0.0
H1325 H 0.63591 0.57984 0.30712 0.0
H1326 H 0.65598 0.61014 0.30655 0.0
H1327 H 0.71697 0.61174 0.31565 0.0
H1328 H 0.76746 0.69471 0.2851 0.0
H1329 H 0.75121 0.66316 0.29027 0.0
H1330 H 0.68887 0.65693 0.27548 0.0
C1331 C 0.66198 0.59725 0.30409 0.0
C1332 C 0.71078 0.62154 0.30683 0.0
C1333 C 0.6505 0.57984 0.30452 0.0
C1334 C 0.75264 0.69295 0.28724 0.0
C1335 C 0.74332 0.67489 0.29024 0.0
C1336 C 0.69516 0.64739 0.28456 0.0
C1337 C 0.68086 0.59808 0.30017 0.0
C1338 C 0.69237 0.61665 0.29787 0.0
C1339 C 0.72388 0.67194 0.2923 0.0
C1340 C 0.71338 0.65263 0.29396 0.0
H1341 H 0.68262 0.5507 0.29493 0.0
H1342 H 0.70272 0.58126 0.29435 0.0
H1343 H 0.67081 0.62621 0.27911 0.0
H1344 H 0.71536 0.71707 0.28832 0.0
H1345 H 0.69939 0.68604 0.29416 0.0
C1346 C 0.85749 0.46576 0.79473 0.0
C1347 C 0.87619 0.46965 0.80308 0.0
C1348 C 0.84646 0.44829 0.79657 0.0
C1349 C 0.85296 0.39943 0.80155 0.0
H1350 H 0.79998 0.39042 0.80953 0.0
C1351 C 0.81514 0.32362 0.79791 0.0
C1352 C 0.79755 0.31979 0.78712 0.0
C1353 C 0.82314 0.34223 0.80414 0.0
C1354 C 0.81475 0.3927 0.80717 0.0
H1355 H 0.89741 0.45873 0.82121 0.0
H1356 H 0.87821 0.42843 0.82435 0.0
H1357 H 0.81683 0.42293 0.81235 0.0
H1358 H 0.77399 0.33217 0.77525 0.0
H1359 H 0.78825 0.36484 0.78546 0.0
H1360 H 0.85099 0.36959 0.79547 0.0
C1361 C 0.87219 0.43876 0.81612 0.0
C1362 C 0.82438 0.41131 0.80883 0.0
C1363 C 0.88318 0.45616 0.81433 0.0
C1364 C 0.78755 0.33478 0.78369 0.0
C1365 C 0.79574 0.3535 0.78958 0.0
C1366 C 0.84336 0.38095 0.7997 0.0
C1367 C 0.85394 0.4344 0.80676 0.0
C1368 C 0.84359 0.41482 0.80602 0.0
C1369 C 0.81395 0.35748 0.79926 0.0
C1370 C 0.82412 0.37728 0.80247 0.0
H1371 H 0.85161 0.47584 0.78603 0.0
H1372 H 0.83245 0.4453 0.78914 0.0
H1373 H 0.86766 0.40169 0.79884 0.0
H1374 H 0.82303 0.31225 0.80091 0.0
H1375 H 0.83691 0.34468 0.81211 0.0
C1376 C 0.01201 0.83475 0.13749 0.0
C1377 C 0.01392 0.81835 0.12576 0.0
C1378 C 0.01193 0.85202 0.12922 0.0
C1379 C 0.02538 0.87694 0.0858 0.0
H1380 H 0.99062 0.91 0.10257 0.0
C1381 C 0.01813 0.94612 0.04963 0.0
C1382 C 0.01874 0.96216 0.06289 0.0
C1383 C 0.01567 0.92795 0.05622 0.0
C1384 C 1.00045 0.90094 0.09779 0.0
H1385 H 0.01742 0.8072 0.09624 0.0
H1386 H 0.01707 0.8372 0.08182 0.0
H1387 H 0.99088 0.87973 0.11664 0.0
H1388 H 0.0163 0.9717 0.0932 0.0
H1389 H 0.012 0.94015 0.10462 0.0
H1390 H 0.03503 0.89822 0.06704 0.0
C1391 C 0.01587 0.83684 0.09743 0.0
C1392 C 1.00066 0.88364 0.10591 0.0
C1393 C 0.01599 0.8196 0.10569 0.0
C1394 C 0.01597 0.95963 0.08262 0.0
C1395 C 0.01339 0.94152 0.08916 0.0
C1396 C 0.02513 0.89422 0.07764 0.0
C1397 C 0.01372 0.85324 0.10906 0.0
C1398 C 0.01325 0.8715 0.10015 0.0
C1399 C 0.01361 0.92549 0.07614 0.0
C1400 C 0.01278 0.90649 0.08367 0.0
H1401 H 0.01044 0.83422 0.15301 0.0
H1402 H 0.01055 0.86445 0.13866 0.0
H1403 H 0.03542 0.86804 0.08121 0.0
H1404 H 0.02024 0.94763 0.03434 0.0
H1405 H 0.01568 0.91583 0.0458 0.0
C1406 C 0.93124 0.24848 0.88159 0.0
C1407 C 0.94819 0.24808 0.87289 0.0
C1408 C 0.91414 0.24597 0.87009 0.0
C1409 C 0.89389 0.25136 0.82051 0.0
H1410 H 0.84917 0.22321 0.83823 0.0
C1411 C 0.82042 0.24589 0.77804 0.0
C1412 C 0.80579 0.24884 0.78973 0.0
C1413 C 0.83795 0.2433 0.78669 0.0
C1414 C 0.86151 0.23119 0.83311 0.0
H1415 H 0.9603 0.24437 0.84515 0.0
H1416 H 0.93034 0.23998 0.82505 0.0
H1417 H 0.8796 0.22311 0.85611 0.0
H1418 H 0.79802 0.25094 0.81966 0.0
H1419 H 0.82843 0.2466 0.83463 0.0
H1420 H 0.8757 0.25983 0.7978 0.0
C1421 C 0.93039 0.24236 0.84082 0.0
C1422 C 0.87895 0.23113 0.84336 0.0
C1423 C 0.94754 0.24476 0.85236 0.0
C1424 C 0.80896 0.24873 0.81019 0.0
C1425 C 0.82639 0.24608 0.81879 0.0
C1426 C 0.87641 0.25145 0.81026 0.0
C1427 C 0.9135 0.24305 0.84956 0.0
C1428 C 0.8953 0.24152 0.83743 0.0
C1429 C 0.84116 0.24347 0.80719 0.0
C1430 C 0.85996 0.2417 0.8167 0.0
H1431 H 0.93115 0.25099 0.89734 0.0
H1432 H 0.90143 0.24685 0.87728 0.0
H1433 H 0.90619 0.25965 0.81566 0.0
H1434 H 0.81843 0.24589 0.76224 0.0
H1435 H 0.849 0.24116 0.77733 0.0
C1436 C 0.51492 0.20557 0.6271 0.0
C1437 C 0.52003 0.21849 0.61325 0.0
C1438 C 0.51485 0.18615 0.62278 0.0
C1439 C 0.5341 0.15228 0.5893 0.0
H1440 H 0.49355 0.11591 0.60416 0.0
C1441 C 0.51826 0.07419 0.55679 0.0
C1442 C 0.51188 0.06034 0.56923 0.0
C1443 C 0.52128 0.0934 0.56352 0.0
C1444 C 0.50514 0.12586 0.60017 0.0
H1445 H 0.52871 0.22095 0.58381 0.0
H1446 H 0.52827 0.18723 0.57625 0.0
H1447 H 0.49425 0.14956 0.61322 0.0
H1448 H 0.5047 0.05573 0.59882 0.0
H1449 H 0.51014 0.08918 0.61056 0.0
H1450 H 0.54478 0.12856 0.57593 0.0
C1451 C 0.52471 0.19211 0.5906 0.0
C1452 C 0.50553 0.14516 0.60535 0.0
C1453 C 0.52481 0.21148 0.59491 0.0
C1454 C 0.5095 0.06604 0.5888 0.0
C1455 C 0.51248 0.08522 0.59551 0.0
C1456 C 0.53368 0.13298 0.58407 0.0
C1457 C 0.51986 0.17922 0.60451 0.0
C1458 C 0.51991 0.15862 0.59982 0.0
C1459 C 0.51796 0.09914 0.58282 0.0
C1460 C 0.51911 0.11956 0.58931 0.0
H1461 H 0.51121 0.21045 0.64139 0.0
H1462 H 0.51118 0.1766 0.63388 0.0
H1463 H 0.54557 0.16226 0.58511 0.0
H1464 H 0.5202 0.07028 0.54162 0.0
H1465 H 0.52539 0.10378 0.55334 0.0
C1466 C 0.551 0.74264 0.33946 0.0
C1467 C 0.55229 0.75286 0.35793 0.0
C1468 C 0.56659 0.74352 0.32844 0.0
C1469 C 0.61069 0.77429 0.32205 0.0
H1470 H 0.62565 0.72908 0.29739 0.0
C1471 C 0.68307 0.77464 0.29205 0.0
C1472 C 0.68478 0.76214 0.27574 0.0
C1473 C 0.66599 0.77415 0.3004 0.0
C1474 C 0.6215 0.74191 0.30385 0.0
H1475 H 0.57104 0.77172 0.37946 0.0
H1476 H 0.59811 0.77329 0.36023 0.0
H1477 H 0.59768 0.7264 0.31537 0.0
H1478 H 0.66957 0.73998 0.2548 0.0
H1479 H 0.63961 0.73951 0.269 0.0
H1480 H 0.63433 0.78988 0.31049 0.0
C1481 C 0.58504 0.76471 0.35421 0.0
C1482 C 0.6055 0.74033 0.31423 0.0
C1483 C 0.56955 0.76369 0.36528 0.0
C1484 C 0.66877 0.74974 0.26743 0.0
C1485 C 0.65162 0.74935 0.27569 0.0
C1486 C 0.62657 0.77591 0.31152 0.0
C1487 C 0.58369 0.7548 0.33559 0.0
C1488 C 0.60008 0.75648 0.32368 0.0
C1489 C 0.6501 0.76127 0.29255 0.0
C1490 C 0.63236 0.75971 0.3025 0.0
H1491 H 0.53788 0.73418 0.33339 0.0
H1492 H 0.56513 0.73577 0.31411 0.0
H1493 H 0.60667 0.78704 0.32889 0.0
H1494 H 0.69513 0.78432 0.29891 0.0
H1495 H 0.66548 0.78339 0.3135 0.0
C1496 C 0.01734 0.21005 0.41256 0.0
C1497 C 0.01055 0.2239 0.42447 0.0
C1498 C 0.01621 0.19144 0.41787 0.0
C1499 C 0.99147 0.15776 0.44914 0.0
H1500 H 0.03518 0.13256 0.44582 0.0
C1501 C 0.99899 0.08881 0.48609 0.0
C1502 C 0.00704 0.07504 0.47544 0.0
C1503 C 0.99874 0.10673 0.47929 0.0
C1504 C 0.02277 0.13931 0.44662 0.0
H1505 H 0.99699 0.22887 0.45117 0.0
H1506 H 0.99519 0.19665 0.46036 0.0
H1507 H 0.03576 0.16401 0.43429 0.0
H1508 H 0.02083 0.06917 0.44912 0.0
H1509 H 0.02016 0.10018 0.43725 0.0
H1510 H 0.97851 0.13309 0.46158 0.0
C1511 C 0.00121 0.20008 0.44685 0.0
C1512 C 0.0231 0.15731 0.43998 0.0
C1513 C 0.00239 0.21863 0.44162 0.0
C1514 C 0.0146 0.07947 0.45777 0.0
C1515 C 0.01434 0.09731 0.45099 0.0
C1516 C 0.99113 0.13974 0.45577 0.0
C1517 C 0.00819 0.1863 0.43512 0.0
C1518 C 0.00749 0.16678 0.44126 0.0
C1519 C 0.00654 0.11121 0.46172 0.0
C1520 C 0.0068 0.13034 0.45464 0.0
H1521 H 0.0237 0.21361 0.39927 0.0
H1522 H 0.02157 0.18106 0.40844 0.0
H1523 H 0.97913 0.16461 0.45009 0.0
H1524 H 0.99309 0.08582 0.49977 0.0
H1525 H 0.99278 0.1172 0.48799 0.0
C1526 C 0.57459 0.25823 0.13855 0.0
C1527 C 0.55805 0.25683 0.14822 0.0
C1528 C 0.59188 0.25782 0.14884 0.0
C1529 C 0.61463 0.24367 0.19425 0.0
H1530 H 0.65719 0.27751 0.17933 0.0
C1531 C 0.69145 0.25469 0.2326 0.0
C1532 C 0.70568 0.25568 0.21964 0.0
C1533 C 0.67258 0.2535 0.22538 0.0
C1534 C 0.64546 0.26788 0.18358 0.0
H1535 H 0.54681 0.25366 0.17643 0.0
H1536 H 0.57725 0.25316 0.19452 0.0
H1537 H 0.6259 0.27893 0.16442 0.0
H1538 H 0.71115 0.25478 0.18897 0.0
H1539 H 0.67846 0.25266 0.17652 0.0
H1540 H 0.63451 0.23276 0.21357 0.0
C1541 C 0.57668 0.25441 0.17886 0.0
C1542 C 0.62752 0.26868 0.17502 0.0
C1543 C 0.55927 0.25479 0.16851 0.0
C1544 C 0.70058 0.25427 0.19937 0.0
C1545 C 0.68185 0.25315 0.19222 0.0
C1546 C 0.63269 0.24296 0.20296 0.0
C1547 C 0.59322 0.25611 0.16914 0.0
C1548 C 0.61193 0.25628 0.17986 0.0
C1549 C 0.66772 0.25337 0.20514 0.0
C1550 C 0.64832 0.25477 0.19732 0.0
H1551 H 0.57427 0.25963 0.12293 0.0
H1552 H 0.60426 0.25873 0.14079 0.0
H1553 H 0.60291 0.23391 0.19827 0.0
H1554 H 0.69494 0.25578 0.24831 0.0
H1555 H 0.66195 0.25365 0.23566 0.0
C1556 C 0.53627 0.8281 0.93281 0.0
C1557 C 0.53613 0.82439 0.91241 0.0
C1558 C 0.53654 0.8465 0.94112 0.0
C1559 C 0.52301 0.8919 0.93009 0.0
H1560 H 0.5536 0.91057 0.97844 0.0
C1561 C 0.52149 0.96634 0.96735 0.0
C1562 C 0.52105 0.96782 0.98784 0.0
C1563 C 0.52534 0.94979 0.95749 0.0
C1564 C 0.54486 0.90551 0.96503 0.0
H1565 H 0.53639 0.83704 0.88469 0.0
H1566 H 0.5367 0.86941 0.89928 0.0
H1567 H 0.55691 0.87997 0.96207 0.0
H1568 H 0.52464 0.95321 0.01411 0.0
H1569 H 0.53103 0.92414 0.99688 0.0
H1570 H 0.51054 0.91711 0.93329 0.0
C1571 C 0.5366 0.85798 0.90879 0.0
C1572 C 0.5468 0.88802 0.95562 0.0
C1573 C 0.5365 0.83952 0.90046 0.0
C1574 C 0.52494 0.95253 -0.00168 0.0
C1575 C 0.52869 0.9359 0.98844 0.0
C1576 C 0.52098 0.90934 0.93955 0.0
C1577 C 0.53655 0.86162 0.92921 0.0
C1578 C 0.53572 0.88093 0.9382 0.0
C1579 C 0.52876 0.93428 0.96788 0.0
C1580 C 0.53173 0.91625 0.95726 0.0
H1581 H 0.536 0.81673 0.94241 0.0
H1582 H 0.53623 0.84881 0.95686 0.0
H1583 H 0.5141 0.88668 0.91682 0.0
H1584 H 0.51876 0.97796 0.95885 0.0
H1585 H 0.52562 0.94915 0.94171 0.0
C1586 C 0.93993 0.75955 0.65896 0.0
C1587 C 0.95606 0.75395 0.66805 0.0
C1588 C 0.92431 0.76114 0.6693 0.0
C1589 C 0.89989 0.74558 0.71142 0.0
H1590 H 0.87477 0.78894 0.70272 0.0
C1591 C 0.82933 0.75428 0.74333 0.0
C1592 C 0.8155 0.75756 0.72898 0.0
C1593 C 0.84824 0.75635 0.73942 0.0
C1594 C 0.88163 0.77678 0.70534 0.0
H1595 H 0.96823 0.74506 0.69503 0.0
H1596 H 0.94061 0.74769 0.71321 0.0
H1597 H 0.90457 0.78675 0.68901 0.0
H1598 H 0.81066 0.76658 0.69984 0.0
H1599 H 0.84349 0.77048 0.69314 0.0
H1600 H 0.87655 0.73534 0.72726 0.0
C1601 C 0.94021 0.75091 0.69802 0.0
C1602 C 0.89868 0.7755 0.69746 0.0
C1603 C 0.95599 0.74939 0.68763 0.0
C1604 C 0.82102 0.76398 0.71117 0.0
C1605 C 0.83986 0.76628 0.70737 0.0
C1606 C 0.88277 0.74687 0.71934 0.0
C1607 C 0.92434 0.75715 0.68903 0.0
C1608 C 0.9077 0.7596 0.69986 0.0
C1609 C 0.85364 0.76203 0.72123 0.0
C1610 C 0.87319 0.76221 0.71585 0.0
H1611 H 0.93942 0.76305 0.64386 0.0
H1612 H 0.91214 0.76553 0.6618 0.0
H1613 H 0.90649 0.73316 0.71349 0.0
H1614 H 0.82544 0.74914 0.75713 0.0
H1615 H 0.85856 0.75309 0.75042 0.0
C1616 C 0.09945 0.999 0.83436 0.0
C1617 C 0.11907 0.00018 0.8352 0.0
C1618 C 0.09019 0.99888 0.85145 0.0
C1619 C 0.09603 0.99085 0.9043 0.0
H1620 H 0.05204 0.01588 0.90632 0.0
C1621 C 0.06042 0.00585 0.97536 0.0
C1622 C 0.04067 0.00243 0.97425 0.0
C1623 C 0.06991 0.00432 0.95849 0.0
C1624 C 0.06416 0.00864 0.90589 0.0
H1625 H 0.14442 0.00228 0.8547 0.0
H1626 H 0.12827 0.00264 0.88481 0.0
H1627 H 0.06934 0.0168 0.87726 0.0
H1628 H 0.01544 0.99442 0.95448 0.0
H1629 H 0.0321 0.99204 0.92482 0.0
H1630 H 0.09101 0.98321 0.93329 0.0
C1631 C 0.11998 0.0014 0.87083 0.0
C1632 C 0.07411 0.00913 0.88921 0.0
C1633 C 0.12928 0.00133 0.8536 0.0
C1634 C 0.03064 0.9971 0.95585 0.0
C1635 C 0.04017 0.99585 0.93887 0.0
C1636 C 0.08617 0.99055 0.9211 0.0
C1637 C 0.10028 0.00017 0.86996 0.0
C1638 C 0.09013 0.00014 0.88811 0.0
C1639 C 0.05991 -0.00041 0.94002 0.0
C1640 C 0.07009 0.99937 0.92202 0.0
H1641 H 0.09111 0.99791 0.82041 0.0
H1642 H 0.07501 0.99746 0.85007 0.0
H1643 H 0.10809 0.98352 0.90392 0.0
H1644 H 0.06862 0.01002 0.98928 0.0
H1645 H 0.0851 0.00745 0.95983 0.0
C1646 C 0.76613 0.33934 0.55734 0.0
C1647 C 0.75873 0.35587 0.55318 0.0
C1648 C 0.76942 0.335 0.57662 0.0
C1649 C 0.75392 0.34316 0.62544 0.0
H1650 H 0.79812 0.32162 0.64216 0.0
C1651 C 0.76606 0.32264 0.704 0.0
C1652 C 0.77177 0.30492 0.70611 0.0
C1653 C 0.76655 0.33058 0.68608 0.0
C1654 C 0.78565 0.32749 0.63766 0.0
H1655 H 0.74923 0.38093 0.56617 0.0
H1656 H 0.75498 0.37326 0.60003 0.0
H1657 H 0.79509 0.33283 0.60949 0.0
H1658 H 0.78312 0.2819 0.69134 0.0
H1659 H 0.78371 0.29567 0.65979 0.0
H1660 H 0.74423 0.33744 0.65334 0.0
C1661 C 0.75813 0.36366 0.58822 0.0
C1662 C 0.78394 0.33395 0.61899 0.0
C1663 C 0.75491 0.36809 0.56885 0.0
C1664 C 0.77866 0.2956 0.69013 0.0
C1665 C 0.77906 0.30352 0.6721 0.0
C1666 C 0.75561 0.33667 0.64407 0.0
C1667 C 0.76536 0.34703 0.59226 0.0
C1668 C 0.76795 0.34166 0.61262 0.0
C1669 C 0.77266 0.32094 0.66981 0.0
C1670 C 0.77142 0.32861 0.65033 0.0
H1671 H 0.76931 0.3296 0.54568 0.0
H1672 H 0.77473 0.32195 0.57924 0.0
H1673 H 0.7413 0.34874 0.62083 0.0
H1674 H 0.76088 0.3303 0.71612 0.0
H1675 H 0.76191 0.3442 0.68492 0.0
C1676 C 0.43344 0.03863 0.33005 0.0
C1677 C 0.41372 0.03597 0.32848 0.0
C1678 C 0.44359 0.03986 0.34828 0.0
C1679 C 0.44037 0.04736 0.40174 0.0
H1680 H 0.48216 0.019 0.4044 0.0
C1681 C 0.47263 0.02435 0.4735 0.0
C1682 C 0.49211 0.02427 0.47601 0.0
C1683 C 0.46423 0.02899 0.45595 0.0
C1684 C 0.47077 0.0273 0.40386 0.0
H1685 H 0.38913 0.03301 0.34479 0.0
H1686 H 0.40694 0.03476 0.37692 0.0
H1687 H 0.46466 0.02049 0.37301 0.0
H1688 H 0.51817 0.0297 0.4623 0.0
H1689 H 0.50338 0.03777 0.43132 0.0
H1690 H 0.44626 0.05369 0.43278 0.0
C1691 C 0.41453 0.03616 0.36397 0.0
C1692 C 0.46069 0.02812 0.38586 0.0
C1693 C 0.40432 0.03507 0.34561 0.0
C1694 C 0.50314 0.02962 0.46078 0.0
C1695 C 0.49466 0.03413 0.44304 0.0
C1696 C 0.45044 0.04649 0.41978 0.0
C1697 C 0.43429 0.03827 0.36544 0.0
C1698 C 0.44527 0.03803 0.3846 0.0
C1699 C 0.47507 0.03357 0.44037 0.0
C1700 C 0.46563 0.03627 0.42105 0.0
H1701 H 0.44112 0.03963 0.31712 0.0
H1702 H 0.45878 0.04191 0.34891 0.0
H1703 H 0.42875 0.05534 0.40121 0.0
H1704 H 0.46373 0.02039 0.485 0.0
H1705 H 0.44911 0.0282 0.4543 0.0
C1706 C 0.76439 0.64692 0.06384 0.0
C1707 C 0.76048 0.65953 0.04986 0.0
C1708 C 0.76412 0.65212 0.08391 0.0
C1709 C 0.74539 0.68617 0.11774 0.0
H1710 H 0.78358 0.67469 0.15583 0.0
C1711 C 0.75917 0.72292 0.19649 0.0
C1712 C 0.76386 0.71191 0.21171 0.0
C1713 C 0.7571 0.71523 0.17696 0.0
C1714 C 0.77265 0.67778 0.14541 0.0
H1715 H 0.75385 0.68778 0.04618 0.0
H1716 H 0.7537 0.6968 0.08084 0.0
H1717 H 0.78369 0.66353 0.1214 0.0
H1718 H 0.76919 0.68393 0.21842 0.0
H1719 H 0.76544 0.67054 0.18446 0.0
H1720 H 0.73456 0.70071 0.1417 0.0
C1721 C 0.7565 0.68273 0.07638 0.0
C1722 C 0.77272 0.67136 0.12567 0.0
C1723 C 0.75672 0.67756 0.05644 0.0
C1724 C 0.7657 0.69286 0.20705 0.0
C1725 C 0.76368 0.68519 0.18756 0.0
C1726 C 0.74536 0.69262 0.13744 0.0
C1727 C 0.75996 0.67004 0.09037 0.0
C1728 C 0.75923 0.6757 0.11156 0.0
C1729 C 0.75971 0.69638 0.17227 0.0
C1730 C 0.7591 0.68867 0.15148 0.0
H1731 H 0.76731 0.63292 0.05929 0.0
H1732 H 0.76679 0.64198 0.09432 0.0
H1733 H 0.73457 0.68943 0.10731 0.0
H1734 H 0.75772 0.73766 0.19957 0.0
H1735 H 0.75417 0.72426 0.1655 0.0
C1736 C 0.09015 0.00563 0.72505 0.0
C1737 C 0.10894 0.00526 0.73181 0.0
C1738 C 0.08485 0.00566 0.70512 0.0
C1739 C 0.10325 0.01821 0.65867 0.0
H1740 H 0.05536 0.99013 0.63647 0.0
C1741 C 0.07751 0.01141 0.57583 0.0
C1742 C 0.05827 0.01136 0.57085 0.0
C1743 C 0.08453 0.01196 0.59544 0.0
C1744 C 0.06866 0.99826 0.64251 0.0
H1745 H 0.13687 0.00415 0.72273 0.0
H1746 H 0.1275 0.00409 0.6876 0.0
H1747 H 0.06643 0.98665 0.67019 0.0
H1748 H 0.03149 0.01298 0.5826 0.0
H1749 H 0.04378 0.01415 0.61686 0.0
H1750 H 0.10542 0.02976 0.63083 0.0
C1751 C 0.11694 0.00454 0.69793 0.0
C1752 C 0.07505 0.99619 0.66181 0.0
C1753 C 0.12228 0.00442 0.71801 0.0
C1754 C 0.04638 0.01301 0.58594 0.0
C1755 C 0.05339 0.01346 0.60555 0.0
C1756 C 0.09686 0.02024 0.63927 0.0
C1757 C 0.09817 0.00531 0.69131 0.0
C1758 C 0.0923 0.00632 0.67022 0.0
C1759 C 0.07243 0.01239 0.61048 0.0
C1760 C 0.07937 0.01045 0.63107 0.0
H1761 H 0.07944 0.0062 0.7352 0.0
H1762 H 0.07033 0.00652 0.70061 0.0
H1763 H 0.1165 0.02637 0.66478 0.0
H1764 H 0.08706 0.0102 0.56454 0.0
H1765 H 0.09925 0.01106 0.59874 0.0
C1766 C 0.73109 0.3736 0.43686 0.0
C1767 C 0.72881 0.36317 0.45326 0.0
C1768 C 0.73098 0.36423 0.4182 0.0
C1769 C 0.71833 0.31739 0.38965 0.0
H1770 H 0.76076 0.33501 0.36099 0.0
C1771 C 0.74327 0.27148 0.32657 0.0
C1772 C 0.74985 0.28085 0.3106 0.0
C1773 C 0.73871 0.28186 0.34317 0.0
C1774 C 0.74865 0.33004 0.36862 0.0
H1775 H 0.72362 0.33487 0.46298 0.0
H1776 H 0.72338 0.31861 0.43059 0.0
H1777 H 0.75526 0.35319 0.39076 0.0
H1778 H 0.75617 0.30841 0.29926 0.0
H1779 H 0.74795 0.32626 0.32781 0.0
H1780 H 0.71188 0.29407 0.36759 0.0
C1781 C 0.72522 0.33395 0.43201 0.0
C1782 C 0.74549 0.34051 0.38566 0.0
C1783 C 0.7255 0.34328 0.45059 0.0
C1784 C 0.75135 0.3007 0.31138 0.0
C1785 C 0.74671 0.311 0.32782 0.0
C1786 C 0.72146 0.30693 0.37252 0.0
C1787 C 0.72837 0.3443 0.41567 0.0
C1788 C 0.73043 0.3342 0.39649 0.0
C1789 C 0.74058 0.30177 0.34403 0.0
C1790 C 0.73677 0.31305 0.36192 0.0
H1791 H 0.73367 0.38895 0.43853 0.0
H1792 H 0.73328 0.37255 0.40581 0.0
H1793 H 0.70651 0.31227 0.39762 0.0
H1794 H 0.74195 0.2562 0.3264 0.0
H1795 H 0.73416 0.27433 0.3555 0.0
C1796 C 0.43883 0.02586 0.22477 0.0
C1797 C 0.42066 0.01752 0.2281 0.0
C1798 C 0.44511 0.02426 0.20616 0.0
C1799 C 0.4395 0.99228 0.16222 0.0
H1800 H 0.47063 0.03382 0.14165 0.0
C1801 C 0.47427 0.98593 0.08885 0.0
C1802 C 0.49229 0.99637 0.08841 0.0
C1803 C 0.46436 0.98764 0.10543 0.0
C1804 C 0.46213 0.02203 0.14731 0.0
H1805 H 0.3945 0.00154 0.21454 0.0
H1806 H 0.40571 0.99841 0.18165 0.0
H1807 H 0.45379 0.03997 0.17029 0.0
H1808 H 0.51461 0.0156 0.10557 0.0
H1809 H 0.49749 0.01827 0.1346 0.0
H1810 H 0.44826 0.97425 0.13951 0.0
C1811 C 0.41499 0.00626 0.19357 0.0
C1812 C 0.45236 0.0256 0.16358 0.0
C1813 C 0.40855 0.00815 0.21227 0.0
C1814 C 0.5007 0.0075 0.10536 0.0
C1815 C 0.49081 0.00918 0.12192 0.0
C1816 C 0.44933 0.98869 0.14592 0.0
C1817 C 0.43344 0.01409 0.19047 0.0
C1818 C 0.44128 0.01071 0.17146 0.0
C1819 C 0.4723 -0.00021 0.12189 0.0
C1820 C 0.46108 0.00349 0.13857 0.0
H1821 H 0.44841 0.03325 0.23673 0.0
H1822 H 0.45944 0.03029 0.20426 0.0
H1823 H 0.43121 0.98052 0.16815 0.0
H1824 H 0.46739 0.97718 0.07605 0.0
H1825 H 0.45014 0.9802 0.10496 0.0
C1826 C 0.77024 0.63933 0.92894 0.0
C1827 C 0.76939 0.64966 0.94697 0.0
C1828 C 0.77047 0.64844 0.91153 0.0
C1829 C 0.78213 0.69554 0.89328 0.0
H1830 H 0.74926 0.67423 0.84731 0.0
C1831 C 0.76975 0.73835 0.82634 0.0
C1832 C 0.76701 0.72849 0.80764 0.0
C1833 C 0.77097 0.7285 0.84319 0.0
C1834 C 0.75877 0.68027 0.85989 0.0
H1835 H 0.76803 0.67759 0.96089 0.0
H1836 H 0.76852 0.69335 0.93071 0.0
H1837 H 0.74979 0.65701 0.87664 0.0
H1838 H 0.7642 0.70067 0.7919 0.0
H1839 H 0.76686 0.68366 0.82108 0.0
H1840 H 0.79125 0.71873 0.87659 0.0
C1841 C 0.76913 0.67829 0.92996 0.0
C1842 C 0.75903 0.67038 0.87671 0.0
C1843 C 0.76871 0.6692 0.94724 0.0
C1844 C 0.76608 0.70868 0.80612 0.0
C1845 C 0.76748 0.69889 0.82288 0.0
C1846 C 0.782 0.70537 0.87641 0.0
C1847 C 0.77009 0.66806 0.91191 0.0
C1848 C 0.77057 0.67799 0.89365 0.0
C1849 C 0.76967 0.70861 0.84167 0.0
C1850 C 0.77021 0.69795 0.85953 0.0
H1851 H 0.7708 0.62427 0.92828 0.0
H1852 H 0.77128 0.64021 0.89782 0.0
H1853 H 0.79136 0.70166 0.90604 0.0
H1854 H 0.77044 0.7536 0.828 0.0
H1855 H 0.77244 0.73647 0.85739 0.0
C1856 C 0.83259 0.10711 0.00712 0.0
C1857 C 0.81516 0.09863 0.01251 0.0
C1858 C 0.84655 0.09624 0.00315 0.0
C1859 C 0.86366 0.0517 0.01208 0.0
H1860 H 0.89376 0.06561 0.96943 0.0
C1861 C 0.93216 0.02101 0.99733 0.0
C1862 C 0.94742 0.03573 -0.00195 0.0
C1863 C 0.91371 0.02505 0.99565 0.0
C1864 C 0.88537 0.06143 0.98126 0.0
H1865 H 0.79884 0.07206 0.01837 0.0
H1866 H 0.8235 0.05291 0.01147 0.0
H1867 H 0.86541 0.07956 0.97383 0.0
H1868 H 0.95556 0.06589 0.9966 0.0
H1869 H 0.92359 0.07285 0.99303 0.0
H1870 H 0.88414 0.034 0.01981 0.0
C1871 C 0.82624 0.06805 0.01032 0.0
C1872 C 0.86921 0.06948 0.98387 0.0
C1873 C 0.81215 0.079 0.01427 0.0
C1874 C 0.94401 0.0543 0.99603 0.0
C1875 C 0.92571 0.05825 0.99392 0.0
C1876 C 0.87986 0.04353 0.00939 0.0
C1877 C 0.8435 0.07656 0.00442 0.0
C1878 C 0.8586 0.06533 -0.00022 0.0
C1879 C 0.91037 0.04379 0.99417 0.0
C1880 C 0.89124 0.04891 0.9944 0.0
H1881 H 0.83546 0.12221 0.00575 0.0
H1882 H 0.85983 0.10334 -0.00085 0.0
H1883 H 0.85579 0.04822 0.02447 0.0
H1884 H 0.9345 0.00661 -0.0009 0.0
H1885 H 0.90209 0.01366 0.99589 0.0
C1886 C 0.33767 0.40246 0.03579 0.0
C1887 C 0.32048 0.40948 0.03512 0.0
C1888 C 0.35467 0.41478 0.03838 0.0
C1889 C 0.37611 0.46295 0.0307 0.0
H1890 H 0.41821 0.44933 0.0621 0.0
C1891 C 0.45208 0.50464 0.03384 0.0
C1892 C 0.46577 0.49292 0.03076 0.0
C1893 C 0.43383 0.49676 0.03743 0.0
C1894 C 0.40659 0.45335 0.05328 0.0
H1895 H 0.30777 0.43511 0.03688 0.0
H1896 H 0.33768 0.45674 0.04134 0.0
H1897 H 0.38696 0.43136 0.06294 0.0
H1898 H 0.4712 0.46387 0.0296 0.0
H1899 H 0.43968 0.45028 0.03591 0.0
H1900 H 0.39596 0.48462 0.0206 0.0
C1901 C 0.33786 0.44161 0.03982 0.0
C1902 C 0.38869 0.44305 0.05375 0.0
C1903 C 0.32075 0.42922 0.03737 0.0
C1904 C 0.461 0.47331 0.03187 0.0
C1905 C 0.44293 0.46551 0.03564 0.0
C1906 C 0.39408 0.47331 0.03024 0.0
C1907 C 0.35501 0.4345 0.0403 0.0
C1908 C 0.37334 0.44733 0.04201 0.0
C1909 C 0.42907 0.47708 0.03829 0.0
C1910 C 0.40961 0.46822 0.04107 0.0
H1911 H 0.33807 0.38737 0.03413 0.0
H1912 H 0.36759 0.40882 0.03836 0.0
H1913 H 0.36459 0.46656 0.02141 0.0
H1914 H 0.45533 0.5198 0.033 0.0
H1915 H 0.42345 0.50603 0.03947 0.0
C1916 C 0.33865 0.55449 0.74306 0.0
C1917 C 0.35713 0.5564 0.75183 0.0
C1918 C 0.32817 0.56939 0.74516 0.0
C1919 C 0.3251 0.6117 0.77811 0.0
H1920 H 0.29435 0.62609 0.73464 0.0
C1921 C 0.29187 0.68041 0.78295 0.0
C1922 C 0.27445 0.68061 0.7724 0.0
C1923 C 0.30101 0.66453 0.78109 0.0
C1924 C 0.3026 0.62208 0.74705 0.0
H1925 H 0.37923 0.57566 0.76926 0.0
H1926 H 0.361 0.60157 0.77287 0.0
H1927 H 0.31231 0.60014 0.72941 0.0
H1928 H 0.25261 0.66385 0.7523 0.0
H1929 H 0.26828 0.63598 0.7495 0.0
H1930 H 0.31534 0.63345 0.79583 0.0
C1931 C 0.35453 0.58851 0.76454 0.0
C1932 C 0.31297 0.60722 0.744 0.0
C1933 C 0.36504 0.57369 0.76232 0.0
C1934 C 0.26604 0.66423 0.7606 0.0
C1935 C 0.27513 0.64829 0.75883 0.0
C1936 C 0.31464 0.62645 0.7812 0.0
C1937 C 0.33589 0.58647 0.75621 0.0
C1938 C 0.32448 0.60197 0.75945 0.0
C1939 C 0.29293 0.64835 0.76874 0.0
C1940 C 0.30336 0.63197 0.76568 0.0
H1941 H 0.33213 0.54134 0.73492 0.0
H1942 H 0.31382 0.56733 0.73863 0.0
H1943 H 0.33356 0.60779 0.79042 0.0
H1944 H 0.29884 0.69281 0.79208 0.0
H1945 H 0.31477 0.66526 0.7888 0.0
C1946 C 0.20235 0.63288 0.52328 0.0
C1947 C 0.21739 0.62253 0.52216 0.0
C1948 C 0.18412 0.6237 0.52439 0.0
C1949 C 0.15622 0.57911 0.53633 0.0
H1950 H 0.11639 0.59835 0.50662 0.0
C1951 C 0.07744 0.54343 0.52483 0.0
C1952 C 0.06407 0.55587 0.52507 0.0
C1953 C 0.09667 0.55056 0.52654 0.0
C1954 C 0.12732 0.59293 0.51518 0.0
H1955 H 0.22492 0.59427 0.52156 0.0
H1956 H 0.19286 0.57816 0.52324 0.0
H1957 H 0.14883 0.61224 0.50452 0.0
H1958 H 0.06041 0.58539 0.52897 0.0
H1959 H 0.0938 0.59773 0.53219 0.0
H1960 H 0.13442 0.55958 0.54674 0.0
C1961 C 0.19533 0.59346 0.52347 0.0
C1962 C 0.14594 0.60089 0.51398 0.0
C1963 C 0.21369 0.60269 0.5224 0.0
C1964 C 0.07033 0.57543 0.52853 0.0
C1965 C 0.08946 0.58252 0.53023 0.0
C1966 C 0.13748 0.57102 0.53745 0.0
C1967 C 0.18031 0.60387 0.5243 0.0
C1968 C 0.16063 0.59433 0.52478 0.0
C1969 C 0.10282 0.57022 0.52851 0.0
C1970 C 0.12283 0.5781 0.52713 0.0
H1971 H 0.2046 0.64817 0.52332 0.0
H1972 H 0.17298 0.63222 0.52544 0.0
H1973 H 0.16719 0.57377 0.5449 0.0
H1974 H 0.07306 0.52828 0.52211 0.0
H1975 H 0.10665 0.54074 0.52518 0.0
C1976 C 0.65577 0.93669 0.78174 0.0
C1977 C 0.66064 0.95131 0.76962 0.0
C1978 C 0.66684 0.92238 0.78367 0.0
C1979 C 0.69952 0.89746 0.75806 0.0
H1980 H 0.71427 0.88204 0.80925 0.0
C1981 C 0.74374 0.83801 0.76376 0.0
C1982 C 0.73853 0.82457 0.77694 0.0
C1983 C 0.73721 0.85542 0.76496 0.0
C1984 C 0.71015 0.88604 0.79483 0.0
H1985 H 0.68082 0.96231 0.7499 0.0
H1986 H 0.69994 0.93704 0.75296 0.0
H1987 H 0.69614 0.90814 0.80673 0.0
H1988 H 0.72296 0.81863 0.802 0.0
H1989 H 0.71088 0.8488 0.80381 0.0
H1990 H 0.71262 0.87503 0.74596 0.0
C1991 C 0.68762 0.93675 0.76104 0.0
C1992 C 0.6998 0.90102 0.79341 0.0
C1993 C 0.67669 0.95121 0.75931 0.0
C1994 C 0.72742 0.82903 0.79195 0.0
C1995 C 0.72051 0.84632 0.79292 0.0
C1996 C 0.70961 0.88236 0.75943 0.0
C1997 C 0.68286 0.92226 0.77333 0.0
C1998 C 0.69433 0.90681 0.775 0.0
C1999 C 0.72479 0.85947 0.77898 0.0
C2000 C 0.71504 0.87638 0.77783 0.0
H2001 H 0.64353 0.93643 0.78995 0.0
H2002 H 0.66274 0.91126 0.79307 0.0
H2003 H 0.69527 0.90146 0.74366 0.0
H2004 H 0.75221 0.83471 0.75198 0.0
H2005 H 0.74128 0.86536 0.75434 0.0
C2006 C 0.6972 0.9042 0.52545 0.0
C2007 C 0.71492 0.91476 0.53144 0.0
C2008 C 0.68135 0.91313 0.52318 0.0
C2009 C 0.66228 0.95762 0.5352 0.0
H2010 H 0.62659 0.93757 0.49088 0.0
C2011 C 0.59384 0.98918 0.5145 0.0
C2012 C 0.57763 0.97544 0.5121 0.0
C2013 C 0.61174 0.98367 0.51576 0.0
C2014 C 0.63642 0.94335 0.50331 0.0
H2015 H 0.72981 0.94298 0.5404 0.0
H2016 H 0.70205 0.9587 0.53621 0.0
H2017 H 0.65551 0.92434 0.49611 0.0
H2018 H 0.56746 0.94524 0.50845 0.0
H2019 H 0.5984 0.93574 0.51022 0.0
H2020 H 0.64292 0.97663 0.54231 0.0
C2021 C 0.7004 0.94344 0.53343 0.0
C2022 C 0.65297 0.93568 0.50642 0.0
C2023 C 0.71632 0.93444 0.53583 0.0
C2024 C 0.57966 0.95619 0.51032 0.0
C2025 C 0.59742 0.95073 0.51125 0.0
C2026 C 0.6457 0.9654 0.532 0.0
C2027 C 0.68277 0.93292 0.52665 0.0
C2028 C 0.66592 0.94235 0.52268 0.0
C2029 C 0.61368 0.96435 0.51422 0.0
C2030 C 0.63239 0.95803 0.51627 0.0
H2031 H 0.69558 0.88899 0.52211 0.0
H2032 H 0.66795 0.90447 0.51848 0.0
H2033 H 0.67189 0.96309 0.54789 0.0
H2034 H 0.59268 0.00412 0.51606 0.0
H2035 H 0.62405 0.99448 0.51798 0.0
C2036 C 0.37565 0.43508 0.74768 0.0
C2037 C 0.36828 0.45215 0.74683 0.0
C2038 C 0.36382 0.41766 0.74551 0.0
C2039 C 0.31543 0.3957 0.75113 0.0
H2040 H 0.33119 0.35206 0.72402 0.0
C2041 C 0.27264 0.31973 0.74742 0.0
C2042 C 0.28343 0.30552 0.75185 0.0
C2043 C 0.28141 0.33791 0.74414 0.0
C2044 C 0.3266 0.36409 0.73169 0.0
H2045 H 0.34252 0.46413 0.74273 0.0
H2046 H 0.32181 0.43356 0.7389 0.0
H2047 H 0.34931 0.38342 0.72292 0.0
H2048 H 0.31185 0.29915 0.75575 0.0
H2049 H 0.32699 0.33061 0.75001 0.0
H2050 H 0.29291 0.37621 0.76022 0.0
C2051 C 0.33681 0.43377 0.74137 0.0
C2052 C 0.337 0.38207 0.73108 0.0
C2053 C 0.3487 0.45128 0.74344 0.0
C2054 C 0.30309 0.30975 0.75242 0.0
C2055 C 0.31179 0.32779 0.74899 0.0
C2056 C 0.30499 0.37766 0.75172 0.0
C2057 C 0.34425 0.41674 0.74247 0.0
C2058 C 0.33183 0.39805 0.74119 0.0
C2059 C 0.30111 0.34216 0.74497 0.0
C2060 C 0.31073 0.36158 0.7424 0.0
H2061 H 0.39062 0.43511 0.75027 0.0
H2062 H 0.37005 0.40488 0.74676 0.0
H2063 H 0.31112 0.40766 0.7592 0.0
H2064 H 0.25747 0.31695 0.74692 0.0
H2065 H 0.27278 0.34865 0.74096 0.0
C2066 C 0.1612 0.55059 0.25612 0.0
C2067 C 0.14203 0.54837 0.2593 0.0
C2068 C 0.171 0.56844 0.25343 0.0
C2069 C 0.16417 0.6165 0.24075 0.0
H2070 H 0.21205 0.63263 0.27114 0.0
C2071 C 0.19482 0.69474 0.26053 0.0
C2072 C 0.21437 0.70036 0.26204 0.0
C2073 C 0.18708 0.67569 0.25645 0.0
C2074 C 0.19889 0.62826 0.26223 0.0
H2075 H 0.11809 0.56323 0.26176 0.0
H2076 H 0.13515 0.59423 0.25716 0.0
H2077 H 0.19646 0.60005 0.27119 0.0
H2078 H 0.24111 0.69048 0.25952 0.0
H2079 H 0.22754 0.65711 0.25222 0.0
H2080 H 0.16638 0.64481 0.23215 0.0
C2081 C 0.14259 0.58215 0.25657 0.0
C2082 C 0.18993 0.60958 0.26229 0.0
C2083 C 0.13283 0.56436 0.25935 0.0
C2084 C 0.22599 0.6866 0.25848 0.0
C2085 C 0.21823 0.66747 0.25445 0.0
C2086 C 0.17314 0.63515 0.24065 0.0
C2087 C 0.16181 0.58443 0.25372 0.0
C2088 C 0.17227 0.60361 0.25191 0.0
C2089 C 0.1987 0.66177 0.25378 0.0
C2090 C 0.1904 0.64138 0.25175 0.0
H2091 H 0.16875 0.53859 0.25598 0.0
H2092 H 0.18577 0.56973 0.25112 0.0
H2093 H 0.15074 0.61224 0.23232 0.0
H2094 H 0.18545 0.70497 0.26314 0.0
H2095 H 0.17201 0.67182 0.25628 0.0
C2096 C 0.51866 0.69616 0.40927 0.0
C2097 C 0.51425 0.71028 0.42271 0.0
C2098 C 0.52225 0.67876 0.41554 0.0
C2099 C 0.53397 0.65455 0.4599 0.0
H2100 H 0.50702 0.60966 0.42957 0.0
C2101 C 0.51875 0.58161 0.49137 0.0
C2102 C 0.51801 0.56524 0.47858 0.0
C2103 C 0.52158 0.59956 0.48429 0.0
C2104 C 0.51496 0.62199 0.43806 0.0
H2105 H 0.51094 0.71739 0.45345 0.0
H2106 H 0.51707 0.6872 0.46423 0.0
H2107 H 0.50635 0.64057 0.4173 0.0
H2108 H 0.52091 0.55483 0.44865 0.0
H2109 H 0.52626 0.58604 0.43643 0.0
H2110 H 0.5423 0.63596 0.48085 0.0
C2111 C 0.51786 0.68954 0.44889 0.0
C2112 C 0.51456 0.63974 0.431 0.0
C2113 C 0.51417 0.70683 0.44263 0.0
C2114 C 0.52116 0.56719 0.45883 0.0
C2115 C 0.52412 0.58508 0.45179 0.0
C2116 C 0.53443 0.63677 0.46695 0.0
C2117 C 0.52166 0.67519 0.4354 0.0
C2118 C 0.5238 0.65625 0.44197 0.0
C2119 C 0.52386 0.60147 0.4643 0.0
C2120 C 0.5247 0.62029 0.45624 0.0
H2121 H 0.5189 0.69835 0.39384 0.0
H2122 H 0.52531 0.66802 0.40483 0.0
H2123 H 0.54144 0.66701 0.46858 0.0
H2124 H 0.5163 0.58054 0.50666 0.0
H2125 H 0.52114 0.61186 0.49431 0.0
C2126 C 0.59069 0.29135 0.65306 0.0
C2127 C 0.57325 0.28721 0.66083 0.0
C2128 C 0.6074 0.29155 0.66475 0.0
C2129 C 0.62909 0.29458 0.71534 0.0
H2130 H 0.66338 0.26447 0.69199 0.0
C2131 C 0.69542 0.27547 0.75849 0.0
C2132 C 0.71128 0.27454 0.74804 0.0
C2133 C 0.67841 0.27835 0.7488 0.0
C2134 C 0.65416 0.2732 0.69867 0.0
H2135 H 0.55981 0.28109 0.68737 0.0
H2136 H 0.58912 0.28159 0.70781 0.0
H2137 H 0.63427 0.26787 0.67346 0.0
H2138 H 0.7221 0.277 0.71957 0.0
H2139 H 0.69286 0.28257 0.70292 0.0
H2140 H 0.64918 0.30007 0.74053 0.0
C2141 C 0.58976 0.2846 0.69262 0.0
C2142 C 0.63743 0.2751 0.68803 0.0
C2143 C 0.57298 0.28424 0.68087 0.0
C2144 C 0.71004 0.27732 0.72797 0.0
C2145 C 0.69321 0.28041 0.71839 0.0
C2146 C 0.646 0.29283 0.72598 0.0
C2147 C 0.60709 0.28776 0.68453 0.0
C2148 C 0.62478 0.2859 0.69617 0.0
C2149 C 0.67704 0.28052 0.72854 0.0
C2150 C 0.65881 0.28223 0.71768 0.0
H2151 H 0.59149 0.29381 0.63775 0.0
H2152 H 0.62059 0.29431 0.65821 0.0
H2153 H 0.61958 0.30301 0.72195 0.0
H2154 H 0.69597 0.27337 0.77398 0.0
H2155 H 0.66622 0.27827 0.75705 0.0
C2156 C 1.00054 0.31952 0.88979 0.0
C2157 C 0.00155 0.30496 0.90227 0.0
C2158 C 0.99811 0.33758 0.89735 0.0
C2159 C 0.98449 0.36445 0.941 0.0
H2160 H 0.01827 0.40595 0.92375 0.0
C2161 C 0.00403 0.43805 0.98445 0.0
C2162 C 0.00769 0.45399 0.97378 0.0
C2163 C 0.99986 0.41987 0.97471 0.0
C2164 C 0.00846 0.39461 0.9285 0.0
H2165 H 1.00009 0.29763 0.93228 0.0
H2166 H 0.99609 0.32914 0.94548 0.0
H2167 H 0.01713 0.37414 0.90832 0.0
H2168 H 0.00849 0.46356 0.94456 0.0
H2169 H 1.00086 0.43197 0.92761 0.0
H2170 H 0.97617 0.38499 0.96153 0.0
C2171 C 0.99698 0.32662 0.92985 0.0
C2172 C 0.00782 0.37634 0.91963 0.0
C2173 C 0.99942 0.30859 0.9223 0.0
C2174 C 0.006 0.45152 0.9532 0.0
C2175 C 0.00172 0.4334 0.94348 0.0
C2176 C 0.98512 0.38278 0.94989 0.0
C2177 C 0.99663 0.34142 0.91752 0.0
C2178 C 0.996 0.361 0.92592 0.0
C2179 C 0.99916 0.41733 0.95412 0.0
C2180 C 0.99728 0.39804 0.94387 0.0
H2181 H 0.00202 0.3171 0.87426 0.0
H2182 H 0.99764 0.34862 0.88743 0.0
H2183 H 0.97508 0.35295 0.94602 0.0
H2184 H 0.00527 0.43952 0.00034 0.0
H2185 H 0.9981 0.40779 0.98336 0.0
C2186 C 0.95264 0.75096 0.1609 0.0
C2187 C 0.97055 0.75268 0.17094 0.0
C2188 C 0.93655 0.7464 0.17064 0.0
C2189 C 0.91973 0.74951 0.21976 0.0
H2190 H 0.87475 0.71999 0.19237 0.0
C2191 C 0.84643 0.74078 0.25132 0.0
C2192 C 0.83239 0.74571 0.23822 0.0
C2193 C 0.86397 0.7383 0.24493 0.0
C2194 C 0.88723 0.72818 0.20025 0.0
H2195 H 0.98565 0.75044 0.19899 0.0
H2196 H 0.95741 0.74232 0.21606 0.0
H2197 H 0.90455 0.72116 0.17775 0.0
H2198 H 0.82552 0.75141 0.20811 0.0
H2199 H 0.85577 0.74686 0.19704 0.0
H2200 H 0.90215 0.75684 0.24205 0.0
C2201 C 0.95587 0.74469 0.20066 0.0
C2202 C 0.90428 0.72892 0.19186 0.0
C2203 C 0.97203 0.74923 0.19086 0.0
C2204 C 0.83605 0.7477 0.21861 0.0
C2205 C 0.85334 0.74494 0.2122 0.0
C2206 C 0.90264 0.74866 0.22823 0.0
C2207 C 0.93793 0.74342 0.19069 0.0
C2208 C 0.92061 0.74013 0.20116 0.0
C2209 C 0.86753 0.74033 0.22527 0.0
C2210 C 0.88612 0.7385 0.21822 0.0
H2211 H 0.95099 0.75356 0.14556 0.0
H2212 H 0.92299 0.74588 0.16256 0.0
H2213 H 0.93201 0.75837 0.22727 0.0
H2214 H 0.844 0.73919 0.26652 0.0
H2215 H 0.8747 0.73475 0.2553 0.0
C2216 C 0.517 0.30332 0.10028 0.0
C2217 C 0.51216 0.30379 0.11973 0.0
C2218 C 0.52188 0.32009 0.09149 0.0
C2219 C 0.53487 0.37229 0.10179 0.0
H2220 H 0.51217 0.37295 0.04881 0.0
C2221 C 0.51997 0.44015 0.06855 0.0
C2222 C 0.52319 0.44244 0.04887 0.0
C2223 C 0.52211 0.42326 0.07666 0.0
C2224 C 0.5189 0.37291 0.06346 0.0
H2225 H 0.50923 0.32212 0.14547 0.0
H2226 H 0.51727 0.35152 0.12999 0.0
H2227 H 0.50942 0.34334 0.0644 0.0
H2228 H 0.53153 0.42895 0.02232 0.0
H2229 H 0.53497 0.39903 0.03652 0.0
H2230 H 0.54364 0.4021 0.10103 0.0
C2231 C 0.51764 0.33819 0.1216 0.0
C2232 C 0.51735 0.35594 0.07243 0.0
C2233 C 0.51293 0.32136 0.13047 0.0
C2234 C 0.52892 0.42754 0.03751 0.0
C2235 C 0.53084 0.41046 0.04561 0.0
C2236 C 0.53632 0.38928 0.09285 0.0
C2237 C 0.52185 0.33773 0.10188 0.0
C2238 C 0.52502 0.35548 0.09183 0.0
C2239 C 0.52737 0.40817 0.06526 0.0
C2240 C 0.52804 0.38982 0.07374 0.0
H2241 H 0.51672 0.28997 0.09167 0.0
H2242 H 0.52542 0.3192 0.07644 0.0
H2243 H 0.54126 0.37237 0.1166 0.0
H2244 H 0.51568 0.45141 0.07775 0.0
H2245 H 0.51908 0.42183 0.09174 0.0
C2246 C 0.96691 0.27838 0.35793 0.0
C2247 C 0.9683 0.28465 0.37798 0.0
C2248 C 0.95038 0.27871 0.34599 0.0
C2249 C 0.90563 0.29888 0.34433 0.0
H2250 H 0.88644 0.25404 0.30939 0.0
C2251 C 0.82733 0.27479 0.32108 0.0
C2252 C 0.82177 0.26687 0.30183 0.0
C2253 C 0.84632 0.28004 0.32741 0.0
C2254 C 0.89176 0.26682 0.31879 0.0
H2255 H 0.95342 0.29654 0.40103 0.0
H2256 H 0.92471 0.29678 0.38043 0.0
H2257 H 0.91789 0.25725 0.32611 0.0
H2258 H 0.83169 0.25885 0.27385 0.0
H2259 H 0.86505 0.26782 0.28505 0.0
H2260 H 0.87911 0.30799 0.33767 0.0
C2261 C 0.93645 0.29191 0.37378 0.0
C2262 C 0.9098 0.26868 0.32838 0.0
C2263 C 0.95293 0.29161 0.38567 0.0
C2264 C 0.83557 0.26497 0.28876 0.0
C2265 C 0.85464 0.26999 0.29519 0.0
C2266 C 0.88756 0.29695 0.33486 0.0
C2267 C 0.93488 0.28533 0.35382 0.0
C2268 C 0.91677 0.28451 0.34167 0.0
C2269 C 0.86019 0.2773 0.31468 0.0
C2270 C 0.88027 0.28069 0.32237 0.0
H2271 H 0.9785 0.27301 0.35146 0.0
H2272 H 0.94973 0.27373 0.33063 0.0
H2273 H 0.91071 0.31146 0.35411 0.0
H2274 H 0.81702 0.27648 0.33147 0.0
H2275 H 0.85015 0.28546 0.34256 0.0
C2276 C 0.98573 0.6915 0.61316 0.0
C2277 C 0.98452 0.70664 0.60147 0.0
C2278 C 0.98174 0.67279 0.6047 0.0
C2279 C 0.98367 0.64756 0.55664 0.0
H2280 H 0.96388 0.60303 0.5817 0.0
C2281 C 0.98273 0.57284 0.51949 0.0
C2282 C 0.98926 0.55977 0.53158 0.0
C2283 C 0.97838 0.58995 0.52768 0.0
C2284 C 0.96948 0.61535 0.57454 0.0
H2285 H 0.97631 0.71417 0.57239 0.0
H2286 H 0.96879 0.68165 0.55784 0.0
H2287 H 0.96216 0.63456 0.59714 0.0
H2288 H 0.99569 0.55411 0.56182 0.0
H2289 H 0.98847 0.58401 0.576 0.0
H2290 H 0.99152 0.62858 0.5344 0.0
C2291 C 0.97345 0.68413 0.57331 0.0
C2292 C 0.96848 0.63339 0.58339 0.0
C2293 C 0.97765 0.70275 0.58167 0.0
C2294 C 0.99077 0.5639 0.55205 0.0
C2295 C 0.98646 0.58099 0.56022 0.0
C2296 C 0.98467 0.62961 0.54784 0.0
C2297 C 0.97631 0.66897 0.58449 0.0
C2298 C 0.97574 0.6497 0.5746 0.0
C2299 C 0.98049 0.59435 0.54813 0.0
C2300 C 0.9778 0.61329 0.55678 0.0
H2301 H 0.99104 0.69413 0.62846 0.0
H2302 H 0.98411 0.66143 0.61372 0.0
H2303 H 0.98982 0.6598 0.54967 0.0
H2304 H 0.98127 0.57002 0.50368 0.0
H2305 H 0.97356 0.59984 0.51798 0.0
C2306 C 0.56305 0.75116 0.84396 0.0
C2307 C 0.56553 0.75499 0.86445 0.0
C2308 C 0.57795 0.7467 0.8335 0.0
C2309 C 0.6244 0.73083 0.83906 0.0
H2310 H 0.63629 0.76135 0.796 0.0
C2311 C 0.69902 0.7481 0.81645 0.0
C2312 C 0.70214 0.75055 0.79679 0.0
C2313 C 0.68083 0.74439 0.82214 0.0
C2314 C 0.63299 0.75237 0.80767 0.0
H2315 H 0.58527 0.7564 0.89013 0.0
H2316 H 0.61113 0.74849 0.87196 0.0
H2317 H 0.60683 0.76248 0.81085 0.0
H2318 H 0.68858 0.75023 0.76746 0.0
H2319 H 0.65657 0.74361 0.77743 0.0
H2320 H 0.65073 0.72106 0.83626 0.0
C2321 C 0.59772 0.7489 0.86394 0.0
C2322 C 0.61611 0.75305 0.81622 0.0
C2323 C 0.58293 0.75355 0.87434 0.0
C2324 C 0.68662 0.74841 0.78273 0.0
C2325 C 0.6683 0.74476 0.78847 0.0
C2326 C 0.64121 0.73005 0.83046 0.0
C2327 C 0.59551 0.74574 0.84338 0.0
C2328 C 0.61191 0.74274 0.8324 0.0
C2329 C 0.66522 0.74302 0.80831 0.0
C2330 C 0.646 0.74129 0.81509 0.0
H2331 H 0.5498 0.75218 0.83593 0.0
H2332 H 0.57581 0.74423 0.81767 0.0
H2333 H 0.6214 0.72247 0.85129 0.0
H2334 H 0.71066 0.74957 0.82765 0.0
H2335 H 0.67906 0.74343 0.83757 0.0
C2336 C 0.40759 0.52377 0.68975 0.0
C2337 C 0.41924 0.52446 0.70721 0.0
C2338 C 0.41543 0.52778 0.67214 0.0
C2339 C 0.45962 0.54838 0.65156 0.0
H2340 H 0.44306 0.51019 0.60836 0.0
C2341 C 0.5049 0.53425 0.58728 0.0
C2342 C 0.49554 0.52882 0.56858 0.0
C2343 C 0.49465 0.53664 0.60361 0.0
C2344 C 0.4477 0.52119 0.62012 0.0
H2345 H 0.448 0.53125 0.72018 0.0
H2346 H 0.46151 0.5382 0.6898 0.0
H2347 H 0.42602 0.51013 0.63757 0.0
H2348 H 0.46812 0.52272 0.5522 0.0
H2349 H 0.45045 0.52716 0.58041 0.0
H2350 H 0.4816 0.55914 0.63424 0.0
C2351 C 0.4464 0.53457 0.6895 0.0
C2352 C 0.43785 0.52118 0.63688 0.0
C2353 C 0.43864 0.53041 0.70694 0.0
C2354 C 0.47581 0.52662 0.56645 0.0
C2355 C 0.46563 0.52909 0.58266 0.0
C2356 C 0.46947 0.5484 0.63477 0.0
C2357 C 0.435 0.53281 0.67177 0.0
C2358 C 0.44388 0.53456 0.65296 0.0
C2359 C 0.47486 0.53375 0.60152 0.0
C2360 C 0.4638 0.53462 0.61895 0.0
H2361 H 0.3926 0.51923 0.68951 0.0
H2362 H 0.40624 0.5265 0.65873 0.0
H2363 H 0.46451 0.55904 0.6636 0.0
H2364 H 0.52008 0.53602 0.58941 0.0
H2365 H 0.50223 0.5401 0.61796 0.0
C2366 C 0.75625 0.14441 0.9547 0.0
C2367 C 0.76352 0.15354 0.9731 0.0
C2368 C 0.7515 0.15509 0.93927 0.0
C2369 C 0.76436 0.20189 0.92233 0.0
H2370 H 0.71735 0.19162 0.88947 0.0
C2371 C 0.74861 0.25166 0.86401 0.0
C2372 C 0.7413 0.24291 0.8455 0.0
C2373 C 0.74865 0.24118 0.88038 0.0
C2374 C 0.7306 0.19458 0.89843 0.0
H2375 H 0.77103 0.18088 0.98993 0.0
H2376 H 0.76292 0.19929 0.96315 0.0
H2377 H 0.72304 0.1714 0.91587 0.0
H2378 H 0.7272 0.21657 0.82986 0.0
H2379 H 0.72771 0.19826 0.85821 0.0
H2380 H 0.77231 0.22461 0.9048 0.0
C2381 C 0.76097 0.18398 0.96056 0.0
C2382 C 0.73383 0.18299 0.91349 0.0
C2383 C 0.76555 0.17339 0.97591 0.0
C2384 C 0.73299 0.22376 0.84392 0.0
C2385 C 0.7332 0.21324 0.86023 0.0
C2386 C 0.76123 0.21332 0.90723 0.0
C2387 C 0.75416 0.175 0.94204 0.0
C2388 C 0.75071 0.18664 0.92562 0.0
C2389 C 0.74156 0.22168 0.87853 0.0
C2390 C 0.74429 0.20989 0.89513 0.0
H2391 H 0.7545 0.12912 0.95218 0.0
H2392 H 0.7463 0.14786 0.92506 0.0
H2393 H 0.77762 0.20482 0.9313 0.0
H2394 H 0.75494 0.26644 0.86574 0.0
H2395 H 0.75477 0.24823 0.89439 0.0
C2396 C 0.0772 0.46321 0.21264 0.0
C2397 C 0.09668 0.46836 0.21716 0.0
C2398 C 0.06964 0.45943 0.19321 0.0
C2399 C 0.08102 0.47574 0.14618 0.0
H2400 H 0.03406 0.44397 0.1269 0.0
C2401 C 0.04621 0.48409 0.07072 0.0
C2402 C 0.02685 0.48489 0.06942 0.0
C2403 C 0.05498 0.47755 0.08705 0.0
C2404 C 0.04714 0.45296 0.13212 0.0
H2405 H 0.12364 0.47155 0.20496 0.0
H2406 H 0.11041 0.46476 0.17089 0.0
H2407 H 0.04989 0.43885 0.15845 0.0
H2408 H 0.00133 0.47872 0.0839 0.0
H2409 H 0.01688 0.46781 0.11303 0.0
H2410 H 0.07805 0.49038 0.12047 0.0
C2411 C 0.10098 0.46403 0.18244 0.0
C2412 C 0.05625 0.44997 0.15012 0.0
C2413 C 0.10858 0.46778 0.20195 0.0
C2414 C 0.01628 0.4783 0.08454 0.0
C2415 C 0.02517 0.47194 0.10114 0.0
C2416 C 0.07194 0.47874 0.1283 0.0
C2417 C 0.08139 0.46073 0.17784 0.0
C2418 C 0.07315 0.46156 0.15749 0.0
C2419 C 0.04472 0.47193 0.10273 0.0
C2420 C 0.05476 0.46758 0.12116 0.0
H2421 H 0.06765 0.46325 0.22406 0.0
H2422 H 0.05451 0.45698 0.19024 0.0
H2423 H 0.09373 0.48525 0.15159 0.0
H2424 H 0.05476 0.48882 0.05921 0.0
H2425 H 0.06996 0.47729 0.08755 0.0
C2426 C 0.76909 0.88811 0.46128 0.0
C2427 C 0.76797 0.87604 0.4765 0.0
C2428 C 0.77207 0.88117 0.44236 0.0
C2429 C 0.78679 0.84026 0.41401 0.0
H2430 H 0.7539 0.85414 0.37202 0.0
C2431 C 0.76799 0.79605 0.3392 0.0
C2432 C 0.76504 0.80577 0.32246 0.0
C2433 C 0.77186 0.80599 0.35775 0.0
C2434 C 0.76345 0.85035 0.38348 0.0
H2435 H 0.76977 0.84743 0.48405 0.0
H2436 H 0.77468 0.83531 0.45115 0.0
H2437 H 0.75443 0.86944 0.40489 0.0
H2438 H 0.76512 0.83359 0.31186 0.0
H2439 H 0.7721 0.85086 0.34409 0.0
H2440 H 0.79537 0.82074 0.39258 0.0
C2441 C 0.7735 0.85017 0.45376 0.0
C2442 C 0.76376 0.85916 0.40236 0.0
C2443 C 0.77054 0.8571 0.47262 0.0
C2444 C 0.76706 0.82565 0.3245 0.0
C2445 C 0.77099 0.83556 0.34299 0.0
C2446 C 0.78644 0.83141 0.3951 0.0
C2447 C 0.774 0.86202 0.43832 0.0
C2448 C 0.77521 0.85402 0.41792 0.0
C2449 C 0.77291 0.82583 0.35988 0.0
C2450 C 0.77457 0.83618 0.37967 0.0
H2451 H 0.76727 0.90281 0.46387 0.0
H2452 H 0.77262 0.89073 0.43084 0.0
H2453 H 0.79597 0.83618 0.42563 0.0
H2454 H 0.76653 0.78073 0.33809 0.0
H2455 H 0.77316 0.79804 0.37048 0.0
C2456 C 0.39093 0.50438 0.82063 0.0
C2457 C 0.40121 0.50416 0.80409 0.0
C2458 C 0.39925 0.50133 0.839 0.0
C2459 C 0.44612 0.50573 0.86562 0.0
H2460 H 0.41931 0.47935 0.9048 0.0
C2461 C 0.48199 0.5015 0.94254 0.0
C2462 C 0.47148 0.50643 0.95799 0.0
C2463 C 0.47339 0.49738 0.92342 0.0
C2464 C 0.42697 0.48679 0.89401 0.0
H2465 H 0.4279 0.49962 0.79359 0.0
H2466 H 0.4422 0.494 0.82539 0.0
H2467 H 0.40393 0.47959 0.87186 0.0
H2468 H 0.44352 0.50974 0.96573 0.0
H2469 H 0.42865 0.50275 0.93255 0.0
H2470 H 0.46896 0.51335 0.88777 0.0
C2471 C 0.4279 0.49695 0.82436 0.0
C2472 C 0.41814 0.48696 0.87516 0.0
C2473 C 0.41965 0.50008 0.80609 0.0
C2474 C 0.45205 0.50611 0.95413 0.0
C2475 C 0.44347 0.50195 0.93509 0.0
C2476 C 0.45492 0.50555 0.88441 0.0
C2477 C 0.41797 0.49795 0.84112 0.0
C2478 C 0.42755 0.49664 0.86082 0.0
C2479 C 0.45411 0.49803 0.91942 0.0
C2480 C 0.44538 0.49631 0.89892 0.0
H2481 H 0.37669 0.50749 0.8195 0.0
H2482 H 0.39125 0.50234 0.85165 0.0
H2483 H 0.45368 0.51361 0.85505 0.0
H2484 H 0.49697 0.50156 0.94506 0.0
H2485 H 0.48192 0.49413 0.91169 0.0
C2486 C 0.79222 0.14674 0.08749 0.0
C2487 C 0.79643 0.1593 0.07313 0.0
C2488 C 0.79538 0.15323 0.1074 0.0
C2489 C 0.81495 0.19579 0.14216 0.0
H2490 H 0.76851 0.18234 0.1661 0.0
C2491 C 0.78771 0.24411 0.20171 0.0
C2492 C 0.77868 0.2352 0.21674 0.0
C2493 C 0.79354 0.23325 0.18615 0.0
C2494 C 0.78172 0.18607 0.15982 0.0
H2495 H 0.80939 0.18761 0.06815 0.0
H2496 H 0.81473 0.19891 0.10253 0.0
H2497 H 0.77396 0.16471 0.1361 0.0
H2498 H 0.76958 0.20792 0.22764 0.0
H2499 H 0.77969 0.18923 0.20077 0.0
H2500 H 0.82216 0.21785 0.16557 0.0
C2501 C 0.80899 0.18414 0.09875 0.0
C2502 C 0.78492 0.17583 0.14265 0.0
C2503 C 0.80581 0.17769 0.07896 0.0
C2504 C 0.77619 0.2153 0.21619 0.0
C2505 C 0.782 0.20452 0.20076 0.0
C2506 C 0.81167 0.20614 0.15933 0.0
C2507 C 0.80284 0.17233 0.11317 0.0
C2508 C 0.80137 0.18083 0.13333 0.0
C2509 C 0.79045 0.21332 0.18539 0.0
C2510 C 0.79484 0.2016 0.1681 0.0
H2511 H 0.78501 0.13248 0.08338 0.0
H2512 H 0.79086 0.14365 0.1182 0.0
H2513 H 0.82787 0.19988 0.13549 0.0
H2514 H 0.78991 0.25941 0.20176 0.0
H2515 H 0.79991 0.24042 0.17441 0.0
C2516 C 0.10315 0.50926 0.31664 0.0
C2517 C 0.12204 0.50689 0.31601 0.0
C2518 C 0.09695 0.51739 0.33353 0.0
C2519 C 0.10743 0.52225 0.38627 0.0
H2520 H 0.06924 0.55508 0.38506 0.0
C2521 C 0.07193 0.53824 0.45538 0.0
C2522 C 0.05226 0.5359 0.45287 0.0
C2523 C 0.08247 0.54024 0.4393 0.0
C2524 C 0.07987 0.5459 0.38564 0.0
H2525 H 0.14941 0.51162 0.33236 0.0
H2526 H 0.13846 0.5257 0.36217 0.0
H2527 H 0.08453 0.54815 0.35538 0.0
H2528 H 0.02812 0.53502 0.43197 0.0
H2529 H 0.04649 0.53781 0.40355 0.0
H2530 H 0.10225 0.51913 0.41609 0.0
C2531 C 0.12849 0.52125 0.34951 0.0
C2532 C 0.08866 0.54199 0.36868 0.0
C2533 C 0.13475 0.51321 0.33249 0.0
C2534 C 0.0433 0.53685 0.43421 0.0
C2535 C 0.05386 0.53852 0.41799 0.0
C2536 C 0.0986 0.52607 0.40316 0.0
C2537 C 0.10947 0.52323 0.35023 0.0
C2538 C 0.10222 0.52977 0.36873 0.0
C2539 C 0.07353 0.53953 0.4203 0.0
C2540 C 0.08443 0.53762 0.40296 0.0
H2541 H 0.09299 0.50455 0.30418 0.0
H2542 H 0.08216 0.51844 0.33373 0.0
H2543 H 0.1176 0.51256 0.3867 0.0
H2544 H 0.07916 0.53787 0.46975 0.0
H2545 H 0.0976 0.54154 0.44168 0.0
C2546 C 0.75266 0.8628 0.59099 0.0
C2547 C 0.74977 0.85249 0.57252 0.0
C2548 C 0.74945 0.85352 0.60803 0.0
C2549 C 0.74817 0.80538 0.62469 0.0
H2550 H 0.73062 0.82716 0.67191 0.0
C2551 C 0.73986 0.7636 0.6932 0.0
C2552 C 0.7469 0.7737 0.71122 0.0
C2553 C 0.73781 0.77315 0.67624 0.0
C2554 C 0.73563 0.82092 0.65884 0.0
H2555 H 0.73971 0.82488 0.55721 0.0
H2556 H 0.73352 0.80896 0.58661 0.0
H2557 H 0.73098 0.84447 0.64249 0.0
H2558 H 0.75692 0.80185 0.72553 0.0
H2559 H 0.75345 0.8183 0.69612 0.0
H2560 H 0.75308 0.78201 0.64099 0.0
C2561 C 0.73893 0.82397 0.58817 0.0
C2562 C 0.73585 0.83086 0.642 0.0
C2563 C 0.74234 0.83313 0.57129 0.0
C2564 C 0.75144 0.79356 0.71193 0.0
C2565 C 0.74932 0.80307 0.69506 0.0
C2566 C 0.7479 0.79546 0.64146 0.0
C2567 C 0.74313 0.83384 0.60681 0.0
C2568 C 0.74219 0.82324 0.62471 0.0
C2569 C 0.74267 0.79299 0.67695 0.0
C2570 C 0.74175 0.80313 0.65879 0.0
H2571 H 0.75846 0.87771 0.59236 0.0
H2572 H 0.75285 0.86156 0.62216 0.0
H2573 H 0.75356 0.79923 0.61182 0.0
H2574 H 0.73618 0.74833 0.69214 0.0
H2575 H 0.73246 0.76498 0.66254 0.0
C2576 C 0.71755 0.43585 0.53391 0.0
C2577 C 0.71098 0.41654 0.52862 0.0
C2578 C 0.70534 0.44794 0.54043 0.0
C2579 C 0.6579 0.44909 0.55774 0.0
H2580 H 0.65917 0.49414 0.52949 0.0
C2581 C 0.6013 0.49328 0.52405 0.0
C2582 C 0.59092 0.49698 0.53997 0.0
C2583 C 0.61881 0.48755 0.52704 0.0
C2584 C 0.65879 0.48176 0.53772 0.0
H2585 H 0.68669 0.39458 0.52697 0.0
H2586 H 0.66538 0.41564 0.53817 0.0
H2587 H 0.68439 0.47514 0.52733 0.0
H2588 H 0.59084 0.49825 0.57157 0.0
H2589 H 0.62161 0.48765 0.57686 0.0
H2590 H 0.63169 0.45522 0.5672 0.0
C2591 C 0.67999 0.42146 0.53746 0.0
C2592 C 0.67329 0.47092 0.53658 0.0
C2593 C 0.69218 0.40939 0.53088 0.0
C2594 C 0.5987 0.49561 0.55909 0.0
C2595 C 0.61618 0.48945 0.56209 0.0
C2596 C 0.64343 0.46002 0.55897 0.0
C2597 C 0.68631 0.44095 0.54187 0.0
C2598 C 0.67268 0.45409 0.54601 0.0
C2599 C 0.62623 0.48506 0.54601 0.0
C2600 C 0.6434 0.47607 0.54837 0.0
H2601 H 0.732 0.44178 0.53245 0.0
H2602 H 0.71069 0.46284 0.54392 0.0
H2603 H 0.65717 0.43633 0.56538 0.0
H2604 H 0.59558 0.49424 0.50915 0.0
H2605 H 0.62607 0.48406 0.51434 0.0
C2606 C 0.20674 0.09179 0.48432 0.0
C2607 C 0.20762 0.11093 0.48045 0.0
C2608 C 0.18938 0.08011 0.48429 0.0
C2609 C 0.14087 0.08394 0.49326 0.0
H2610 H 0.1283 0.03238 0.46939 0.0
C2611 C 0.06584 0.04533 0.49058 0.0
C2612 C 0.06292 0.02622 0.49456 0.0
C2613 C 0.08361 0.05429 0.48721 0.0
C2614 C 0.13168 0.04668 0.47633 0.0
H2615 H 0.1908 0.13244 0.47254 0.0
H2616 H 0.16073 0.11215 0.47259 0.0
H2617 H 0.15935 0.05048 0.46633 0.0
H2618 H 0.07628 0.00127 0.49742 0.0
H2619 H 0.1077 0.01714 0.49201 0.0
H2620 H 0.11365 0.08027 0.50368 0.0
C2621 C 0.17346 0.10624 0.47585 0.0
C2622 C 0.14943 0.05705 0.47452 0.0
C2623 C 0.19074 0.11785 0.47574 0.0
C2624 C 0.07811 0.01602 0.49435 0.0
C2625 C 0.09609 0.02511 0.49122 0.0
C2626 C 0.1233 0.0736 0.49521 0.0
C2627 C 0.17255 0.08738 0.48055 0.0
C2628 C 0.15407 0.07589 0.48274 0.0
C2629 C 0.09911 0.04451 0.48806 0.0
C2630 C 0.11831 0.05495 0.48651 0.0
H2631 H 0.21943 0.08594 0.48794 0.0
H2632 H 0.18911 0.06564 0.48801 0.0
H2633 H 0.1442 0.09827 0.50018 0.0
H2634 H 0.05438 0.05354 0.49035 0.0
H2635 H 0.08524 0.06906 0.48423 0.0
C2636 C 0.15647 0.94114 0.77473 0.0
C2637 C 0.16529 0.95964 0.77271 0.0
C2638 C 0.16603 0.92572 0.77179 0.0
C2639 C 0.20536 0.90852 0.74889 0.0
H2640 H 0.20119 0.87309 0.78897 0.0
C2641 C 0.24357 0.84142 0.75037 0.0
C2642 C 0.23279 0.82513 0.75623 0.0
C2643 C 0.23679 0.85888 0.75143 0.0
C2644 C 0.20239 0.88272 0.77752 0.0
H2645 H 0.1909 0.97637 0.76529 0.0
H2646 H 0.20759 0.94922 0.75993 0.0
H2647 H 0.18644 0.90139 0.79223 0.0
H2648 H 0.20603 0.81421 0.76664 0.0
H2649 H 0.19426 0.84412 0.76808 0.0
H2650 H 0.22105 0.88945 0.73398 0.0
C2651 C 0.19327 0.94676 0.76387 0.0
C2652 C 0.19394 0.89898 0.77943 0.0
C2653 C 0.18373 0.96229 0.76701 0.0
C2654 C 0.21489 0.8265 0.76233 0.0
C2655 C 0.20814 0.84375 0.76328 0.0
C2656 C 0.21377 0.89207 0.74689 0.0
C2657 C 0.18462 0.92835 0.76662 0.0
C2658 C 0.19497 0.91188 0.76496 0.0
C2659 C 0.21912 0.86028 0.75833 0.0
C2660 C 0.212 0.87876 0.761 0.0
H2661 H 0.14227 0.93856 0.77903 0.0
H2662 H 0.15888 0.91168 0.77373 0.0
H2663 H 0.20642 0.91825 0.73752 0.0
H2664 H 0.25742 0.84079 0.74559 0.0
H2665 H 0.24559 0.87136 0.74746 0.0
C2666 C 0.31094 0.88428 0.97337 0.0
C2667 C 0.29734 0.89347 0.98207 0.0
C2668 C 0.32904 0.89388 0.97223 0.0
C2669 C 0.35821 0.94115 0.97565 0.0
H2670 H 0.39764 0.9142 0.99495 0.0
C2671 C 0.43411 0.97787 0.00053 0.0
C2672 C 0.44885 0.9673 -0.00156 0.0
C2673 C 0.41549 0.96948 0.99527 0.0
C2674 C 0.38691 0.92185 0.98911 0.0
H2675 H 0.29192 0.92035 0.99543 0.0
H2676 H 0.32356 0.93707 0.99341 0.0
H2677 H 0.36532 0.8985 0.9914 0.0
H2678 H 0.45583 0.94017 0.98781 0.0
H2679 H 0.42353 0.92576 0.97798 0.0
H2680 H 0.37988 0.96458 0.97348 0.0
C2681 C 0.32016 0.92242 0.98747 0.0
C2682 C 0.36833 0.91282 0.98714 0.0
C2683 C 0.30205 0.91278 0.98872 0.0
C2684 C 0.44474 0.94859 0.98984 0.0
C2685 C 0.42619 0.9403 0.98434 0.0
C2686 C 0.37689 0.95017 0.97747 0.0
C2687 C 0.33396 0.91293 0.97965 0.0
C2688 C 0.35375 0.92239 0.98053 0.0
C2689 C 0.41127 0.95041 0.98759 0.0
C2690 C 0.39147 0.94066 0.98438 0.0
H2691 H 0.30782 0.86946 0.96796 0.0
H2692 H 0.33932 0.88628 0.96586 0.0
H2693 H 0.34726 0.94883 0.97039 0.0
H2694 H 0.43685 0.99231 0.00718 0.0
H2695 H 0.4044 0.97768 -0.00187 0.0
C2696 C 0.84603 0.55699 0.75156 0.0
C2697 C 0.86575 0.55995 0.75451 0.0
C2698 C 0.83645 0.57162 0.74589 0.0
C2699 C 0.84326 0.62339 0.75069 0.0
H2700 H 0.79827 0.61845 0.71493 0.0
C2701 C 0.81008 0.68865 0.73699 0.0
C2702 C 0.79061 0.68702 0.73779 0.0
C2703 C 0.81865 0.67253 0.73482 0.0
C2704 C 0.81077 0.62 0.72504 0.0
H2705 H 0.8909 0.58009 0.75248 0.0
H2706 H 0.87426 0.60545 0.74243 0.0
H2707 H 0.81452 0.591 0.71886 0.0
H2708 H 0.76457 0.6675 0.7359 0.0
H2709 H 0.77966 0.63897 0.73273 0.0
H2710 H 0.83944 0.65199 0.75745 0.0
C2711 C 0.86616 0.59199 0.74488 0.0
C2712 C 0.82007 0.60431 0.72726 0.0
C2713 C 0.87571 0.57742 0.75057 0.0
C2714 C 0.77962 0.66902 0.73518 0.0
C2715 C 0.78828 0.65274 0.73337 0.0
C2716 C 0.83399 0.63893 0.74856 0.0
C2717 C 0.84643 0.58946 0.74307 0.0
C2718 C 0.83649 0.60591 0.74006 0.0
C2719 C 0.80799 0.65436 0.73393 0.0
C2720 C 0.81771 0.63753 0.73562 0.0
H2721 H 0.83797 0.54365 0.75444 0.0
H2722 H 0.82125 0.56926 0.74469 0.0
H2723 H 0.85556 0.62498 0.76109 0.0
H2724 H 0.81879 0.70245 0.73878 0.0
H2725 H 0.83378 0.67433 0.73468 0.0
C2726 C 0.80821 0.58705 0.01706 0.0
C2727 C 0.81045 0.60558 0.01112 0.0
C2728 C 0.8238 0.57775 0.02023 0.0
C2729 C 0.87094 0.57754 0.00429 0.0
H2730 H 0.88053 0.54965 0.0494 0.0
C2731 C 0.94232 0.55468 0.02041 0.0
C2732 C 0.94339 0.53667 0.02689 0.0
C2733 C 0.92542 0.56183 0.01937 0.0
C2734 C 0.87789 0.55714 0.03658 0.0
H2735 H 0.83085 0.62908 0.00447 0.0
H2736 H 0.85793 0.61286 0.00987 0.0
H2737 H 0.85223 0.56478 0.04632 0.0
H2738 H 0.92749 0.51223 0.03792 0.0
H2739 H 0.89755 0.52473 0.03584 0.0
H2740 H 0.89628 0.56991 0.99433 0.0
C2741 C 0.84414 0.60546 0.01196 0.0
C2742 C 0.86173 0.56585 0.03486 0.0
C2743 C 0.82862 0.6148 0.00899 0.0
C2744 C 0.92711 0.52614 0.03283 0.0
C2745 C 0.91 0.53332 0.03169 0.0
C2746 C 0.88691 0.56877 0.00591 0.0
C2747 C 0.84188 0.58673 0.0173 0.0
C2748 C 0.85832 0.57648 0.01888 0.0
C2749 C 0.90893 0.55116 0.02462 0.0
C2750 C 0.89086 0.55882 0.02229 0.0
H2751 H 0.79438 0.57957 0.01886 0.0
H2752 H 0.82163 0.56331 0.02429 0.0
H2753 H 0.86846 0.58521 0.99155 0.0
H2754 H 0.95461 0.56336 0.01599 0.0
H2755 H 0.9253 0.57583 0.01441 0.0
C2756 C 0.1756 0.06367 0.79684 0.0
C2757 C 0.15634 0.06285 0.79934 0.0
C2758 C 0.18715 0.08115 0.79649 0.0
C2759 C 0.18405 0.12933 0.78393 0.0
H2760 H 0.23322 0.14361 0.81222 0.0
C2761 C 0.22223 0.20525 0.78595 0.0
C2762 C 0.24169 0.20826 0.78445 0.0
C2763 C 0.21292 0.1874 0.78908 0.0
C2764 C 0.21962 0.13975 0.80402 0.0
H2765 H 0.13441 0.07996 0.80419 0.0
H2766 H 0.15447 0.11023 0.80342 0.0
H2767 H 0.21508 0.11241 0.81538 0.0
H2768 H 0.26677 0.19498 0.78561 0.0
H2769 H 0.25036 0.16346 0.79059 0.0
H2770 H 0.1885 0.1562 0.77215 0.0
C2771 C 0.16059 0.09735 0.80161 0.0
C2772 C 0.20923 0.12191 0.80589 0.0
C2773 C 0.14911 0.07995 0.80215 0.0
C2774 C 0.25176 0.19309 0.78676 0.0
C2775 C 0.24235 0.17505 0.78966 0.0
C2776 C 0.19445 0.14698 0.7819 0.0
C2777 C 0.17964 0.09815 0.79842 0.0
C2778 C 0.19121 0.11666 0.79608 0.0
C2779 C 0.22273 0.17192 0.79049 0.0
C2780 C 0.21224 0.1526 0.79215 0.0
H2781 H 0.18168 0.0508 0.7947 0.0
H2782 H 0.20179 0.08135 0.79397 0.0
H2783 H 0.17038 0.12551 0.77582 0.0
H2784 H 0.21409 0.21671 0.78454 0.0
H2785 H 0.19792 0.18572 0.79023 0.0
C2786 C 0.38656 0.95117 0.29969 0.0
C2787 C 0.37846 0.9669 0.29421 0.0
C2788 C 0.37533 0.9338 0.30125 0.0
C2789 C 0.32888 0.90677 0.2835 0.0
H2790 H 0.34246 0.87254 0.32152 0.0
C2791 C 0.28821 0.83119 0.283 0.0
C2792 C 0.29992 0.81718 0.28238 0.0
C2793 C 0.29584 0.85018 0.28826 0.0
C2794 C 0.33846 0.88198 0.31086 0.0
H2795 H 0.35205 0.97681 0.28673 0.0
H2796 H 0.33248 0.94661 0.28977 0.0
H2797 H 0.35957 0.90475 0.3233 0.0
H2798 H 0.32849 0.8118 0.28806 0.0
H2799 H 0.34171 0.84478 0.29739 0.0
H2800 H 0.30801 0.88387 0.27086 0.0
C2801 C 0.34756 0.9476 0.29248 0.0
C2802 C 0.34831 0.90039 0.31181 0.0
C2803 C 0.3588 0.96495 0.29082 0.0
C2804 C 0.31913 0.82231 0.28834 0.0
C2805 C 0.3267 0.8412 0.29379 0.0
C2806 C 0.31896 0.8884 0.28264 0.0
C2807 C 0.3557 0.93174 0.29749 0.0
C2808 C 0.34394 0.91288 0.29785 0.0
C2809 C 0.31524 0.85543 0.29325 0.0
C2810 C 0.32393 0.87567 0.29603 0.0
H2811 H 0.40164 0.95211 0.30236 0.0
H2812 H 0.38213 0.92184 0.30483 0.0
H2813 H 0.32526 0.91588 0.27236 0.0
H2814 H 0.27335 0.82765 0.27842 0.0
H2815 H 0.28665 0.86084 0.28788 0.0
C2816 C 0.51503 0.31916 0.60485 0.0
C2817 C 0.51298 0.31804 0.62495 0.0
C2818 C 0.51495 0.33635 0.59647 0.0
C2819 C 0.50003 0.38335 0.60478 0.0
H2820 H 0.53456 0.3977 0.56599 0.0
C2821 C 0.51621 0.45943 0.58209 0.0
C2822 C 0.51899 0.4621 0.56239 0.0
C2823 C 0.51347 0.44125 0.58846 0.0
C2824 C 0.52462 0.39376 0.57656 0.0
H2825 H 0.50957 0.33412 0.6521 0.0
H2826 H 0.50976 0.36424 0.63755 0.0
H2827 H 0.53461 0.36742 0.58005 0.0
H2828 H 0.52039 0.44775 0.53372 0.0
H2829 H 0.51556 0.41584 0.5449 0.0
H2830 H 0.4903 0.40987 0.60154 0.0
C2831 C 0.51108 0.35174 0.62818 0.0
C2832 C 0.52467 0.37642 0.58466 0.0
C2833 C 0.51112 0.33453 0.63656 0.0
C2834 C 0.51827 0.44614 0.549 0.0
C2835 C 0.51566 0.42789 0.55542 0.0
C2836 C 0.50002 0.4007 0.59672 0.0
C2837 C 0.51287 0.35284 0.608 0.0
C2838 C 0.5125 0.37107 0.59901 0.0
C2839 C 0.51353 0.42529 0.5753 0.0
C2840 C 0.51244 0.40619 0.58266 0.0
H2841 H 0.51643 0.30668 0.5955 0.0
H2842 H 0.51616 0.33662 0.58086 0.0
H2843 H 0.49021 0.37951 0.6155 0.0
H2844 H 0.51663 0.47143 0.59277 0.0
H2845 H 0.51205 0.43977 0.60389 0.0
C2846 C 0.43126 0.74751 0.38082 0.0
C2847 C 0.44845 0.74746 0.37252 0.0
C2848 C 0.41435 0.74455 0.36898 0.0
C2849 C 0.39461 0.74937 0.31915 0.0
H2850 H 0.35019 0.72012 0.33626 0.0
C2851 C 0.32108 0.74306 0.27647 0.0
C2852 C 0.30646 0.74582 0.28824 0.0
C2853 C 0.33869 0.74057 0.28504 0.0
C2854 C 0.36245 0.72839 0.3313 0.0
H2855 H 0.46122 0.74399 0.34513 0.0
H2856 H 0.43155 0.73887 0.3244 0.0
H2857 H 0.3806 0.72059 0.35441 0.0
H2858 H 0.29876 0.74767 0.31821 0.0
H2859 H 0.32926 0.74347 0.33302 0.0
H2860 H 0.37634 0.7576 0.29635 0.0
C2861 C 0.43127 0.74126 0.34014 0.0
C2862 C 0.37987 0.72865 0.3417 0.0
C2863 C 0.44825 0.7441 0.35203 0.0
C2864 C 0.30969 0.7456 0.30868 0.0
C2865 C 0.32718 0.74304 0.31719 0.0
C2866 C 0.37714 0.74914 0.30874 0.0
C2867 C 0.41414 0.74155 0.34849 0.0
C2868 C 0.39609 0.7395 0.33604 0.0
C2869 C 0.34195 0.74063 0.30553 0.0
C2870 C 0.36079 0.73901 0.31499 0.0
H2871 H 0.43083 0.75003 0.39652 0.0
H2872 H 0.40143 0.74512 0.37587 0.0
H2873 H 0.40682 0.75798 0.3145 0.0
H2874 H 0.31905 0.74317 0.26069 0.0
H2875 H 0.34975 0.73862 0.27565 0.0
C2876 C 0.02423 0.71199 0.0938 0.0
C2877 C 0.01959 0.71873 0.1123 0.0
C2878 C 0.02385 0.69265 0.08907 0.0
C2879 C 0.00422 0.64548 0.10287 0.0
H2880 H 0.04352 0.62905 0.0734 0.0
C2881 C 0.0084 0.56647 0.08603 0.0
C2882 C 0.01102 0.56079 0.06652 0.0
C2883 C 0.01117 0.58565 0.09271 0.0
C2884 C 0.03239 0.63343 0.08153 0.0
H2885 H 0.0107 0.71024 0.14027 0.0
H2886 H 0.01018 0.67642 0.13201 0.0
H2887 H 0.04445 0.66268 0.08301 0.0
H2888 H 0.01945 0.57076 0.03896 0.0
H2889 H 0.02428 0.60428 0.05063 0.0
H2890 H 0.9921 0.61625 0.10127 0.0
C2891 C 0.01396 0.68617 0.12112 0.0
C2892 C 0.0329 0.65269 0.08701 0.0
C2893 C 0.01431 0.70557 0.12587 0.0
C2894 C 0.01736 0.57466 0.05409 0.0
C2895 C 0.02015 0.59388 0.06079 0.0
C2896 C 0.00374 0.62622 0.09743 0.0
C2897 C 0.01886 0.67951 0.1027 0.0
C2898 C 0.01872 0.65896 0.0976 0.0
C2899 C 0.01666 0.59959 0.08004 0.0
C2900 C 0.01775 0.61998 0.08658 0.0
H2901 H 0.02824 0.72166 0.08291 0.0
H2902 H 0.02733 0.68798 0.07462 0.0
H2903 H 0.99295 0.64984 0.11077 0.0
H2904 H 0.00364 0.55614 0.09603 0.0
H2905 H 0.00871 0.58958 0.10772 0.0
C2906 C 0.05022 0.24334 0.83735 0.0
C2907 C 0.05172 0.25323 0.85601 0.0
C2908 C 0.06576 0.24423 0.82623 0.0
C2909 C 0.11023 0.27465 0.82031 0.0
H2910 H 0.12475 0.22953 0.79496 0.0
C2911 C 0.18292 0.27457 0.79129 0.0
C2912 C 0.18468 0.26238 0.77474 0.0
C2913 C 0.16572 0.27412 0.79939 0.0
C2914 C 0.12072 0.24234 0.80161 0.0
H2915 H 0.07076 0.27152 0.87777 0.0
H2916 H 0.0977 0.27311 0.85839 0.0
H2917 H 0.09659 0.22688 0.81267 0.0
H2918 H 0.16945 0.24081 0.75317 0.0
H2919 H 0.13931 0.2404 0.76698 0.0
H2920 H 0.13419 0.29018 0.80926 0.0
C2921 C 0.08453 0.26479 0.85228 0.0
C2922 C 0.10461 0.24078 0.81183 0.0
C2923 C 0.06911 0.26375 0.86344 0.0
C2924 C 0.16862 0.25033 0.76598 0.0
C2925 C 0.15136 0.24997 0.77402 0.0
C2926 C 0.12622 0.27625 0.80995 0.0
C2927 C 0.083 0.2552 0.83349 0.0
C2928 C 0.09937 0.25689 0.82156 0.0
C2929 C 0.14977 0.26159 0.79107 0.0
C2930 C 0.13187 0.26008 0.80072 0.0
H2931 H 0.037 0.23513 0.83122 0.0
H2932 H 0.06416 0.23673 0.81177 0.0
H2933 H 0.10635 0.28737 0.82737 0.0
H2934 H 0.19501 0.28397 0.79849 0.0
H2935 H 0.16516 0.2831 0.81266 0.0
C2936 C 0.50325 0.72137 0.94234 0.0
C2937 C 0.51231 0.72609 0.92554 0.0
C2938 C 0.50206 0.70313 0.94847 0.0
C2939 C 0.50591 0.65362 0.93213 0.0
H2940 H 0.51502 0.64912 0.98791 0.0
C2941 C 0.51939 0.5839 0.96335 0.0
C2942 C 0.51105 0.57893 0.98046 0.0
C2943 C 0.5185 0.6016 0.95642 0.0
C2944 C 0.51219 0.65012 0.97233 0.0
H2945 H 0.52692 0.71512 0.9018 0.0
H2946 H 0.52504 0.68323 0.9127 0.0
H2947 H 0.5156 0.68036 0.97594 0.0
H2948 H 0.4951 0.58862 0.00367 0.0
H2949 H 0.49352 0.61967 0.9915 0.0
H2950 H 0.50273 0.62334 0.92855 0.0
C2951 C 0.51867 0.69367 0.92098 0.0
C2952 C 0.51253 0.66803 0.96544 0.0
C2953 C 0.51981 0.71196 0.91478 0.0
C2954 C 0.50171 0.59205 0.99048 0.0
C2955 C 0.50087 0.60984 0.98355 0.0
C2956 C 0.5056 0.6357 0.93902 0.0
C2957 C 0.50996 0.68912 0.93804 0.0
C2958 C 0.50943 0.67 0.94526 0.0
C2959 C 0.50927 0.61479 0.96644 0.0
C2960 C 0.50881 0.63376 0.95919 0.0
H2961 H 0.4971 0.7318 0.95091 0.0
H2962 H 0.49492 0.70001 0.96143 0.0
H2963 H 0.50319 0.65463 0.91654 0.0
H2964 H 0.52672 0.57415 0.95526 0.0
H2965 H 0.52534 0.60507 0.94337 0.0
C2966 C 0.07614 0.75364 0.6408 0.0
C2967 C 0.0599 0.7544 0.65068 0.0
C2968 C 0.09328 0.75266 0.65109 0.0
C2969 C 0.11604 0.7413 0.69777 0.0
H2970 H 0.15905 0.77227 0.67991 0.0
C2971 C 0.1931 0.75352 0.73561 0.0
C2972 C 0.20728 0.75357 0.72264 0.0
C2973 C 0.17421 0.75183 0.72832 0.0
C2974 C 0.14721 0.76342 0.68498 0.0
H2975 H 0.04895 0.75419 0.67924 0.0
H2976 H 0.07921 0.75273 0.69736 0.0
H2977 H 0.12783 0.77354 0.66486 0.0
H2978 H 0.21266 0.75032 0.69201 0.0
H2979 H 0.1799 0.74724 0.67942 0.0
H2980 H 0.13577 0.73135 0.71808 0.0
C2981 C 0.07849 0.75276 0.68155 0.0
C2982 C 0.1293 0.76413 0.67635 0.0
C2983 C 0.06119 0.75367 0.67118 0.0
C2984 C 0.20211 0.75059 0.70238 0.0
C2985 C 0.18335 0.74891 0.69516 0.0
C2986 C 0.1341 0.74067 0.70655 0.0
C2987 C 0.09479 0.75256 0.6716 0.0
C2988 C 0.11353 0.75278 0.68228 0.0
C2989 C 0.16927 0.7502 0.70799 0.0
C2990 C 0.14989 0.75142 0.69989 0.0
H2991 H 0.0757 0.75388 0.62501 0.0
H2992 H 0.10544 0.75204 0.6429 0.0
H2993 H 0.10416 0.73238 0.70266 0.0
H2994 H 0.19666 0.75584 0.7513 0.0
H2995 H 0.16363 0.75284 0.73854 0.0
C2996 C 0.03143 0.32619 0.43486 0.0
C2997 C 0.03247 0.3231 0.41455 0.0
C2998 C 0.03174 0.34445 0.44361 0.0
C2999 C 0.02086 0.39103 0.43294 0.0
H3000 H 0.04948 0.40772 0.48289 0.0
C3001 C 0.02231 0.46608 0.46948 0.0
C3002 C 0.02069 0.4678 0.48979 0.0
C3003 C 0.02561 0.44908 0.46013 0.0
C3004 C 0.04128 0.40321 0.46904 0.0
H3005 H 0.03482 0.33667 0.38746 0.0
H3006 H 0.03526 0.36874 0.40281 0.0
H3007 H 0.05193 0.37685 0.46654 0.0
H3008 H 0.0217 0.4532 0.51632 0.0
H3009 H 0.02713 0.42329 0.49991 0.0
H3010 H 0.00983 0.41711 0.43557 0.0
C3011 C 0.03416 0.35697 0.41191 0.0
C3012 C 0.04273 0.38556 0.45965 0.0
C3013 C 0.03399 0.33866 0.40315 0.0
C3014 C 0.02294 0.4523 0.50066 0.0
C3015 C 0.02612 0.4352 0.49126 0.0
C3016 C 0.01934 0.40863 0.44235 0.0
C3017 C 0.03299 0.36002 0.43224 0.0
C3018 C 0.03242 0.37923 0.44158 0.0
C3019 C 0.02724 0.43333 0.47083 0.0
C3020 C 0.02944 0.41488 0.46058 0.0
H3021 H 0.03026 0.31448 0.44405 0.0
H3022 H 0.03056 0.34631 0.45925 0.0
H3023 H 0.01253 0.38642 0.41917 0.0
H3024 H 0.02089 0.47785 0.46072 0.0
H3025 H 0.0268 0.44827 0.44447 0.0
C3026 C 0.43967 0.2613 0.16262 0.0
C3027 C 0.4552 0.25291 0.16897 0.0
C3028 C 0.42425 0.26105 0.17371 0.0
C3029 C 0.39848 0.2338 0.20814 0.0
H3030 H 0.37398 0.27825 0.21518 0.0
C3031 C 0.31993 0.23018 0.21618 0.0
C3032 C 0.31386 0.24237 0.23051 0.0
C3033 C 0.33882 0.23182 0.21275 0.0
C3034 C 0.38082 0.26581 0.21362 0.0
H3035 H 0.46675 0.23763 0.19193 0.0
H3036 H 0.43941 0.23676 0.21115 0.0
H3037 H 0.40442 0.28092 0.20138 0.0
H3038 H 0.32284 0.26575 0.25266 0.0
H3039 H 0.35616 0.26908 0.24612 0.0
H3040 H 0.37448 0.21851 0.21951 0.0
C3041 C 0.43935 0.24369 0.19764 0.0
C3042 C 0.39813 0.26729 0.20558 0.0
C3043 C 0.45496 0.24418 0.18666 0.0
C3044 C 0.32716 0.2562 0.24151 0.0
C3045 C 0.34615 0.2581 0.23777 0.0
C3046 C 0.38107 0.23227 0.21593 0.0
C3047 C 0.42387 0.2522 0.1913 0.0
C3048 C 0.40691 0.2512 0.20231 0.0
C3049 C 0.35211 0.24587 0.22335 0.0
C3050 C 0.37185 0.24816 0.21829 0.0
H3051 H 0.43944 0.2682 0.14911 0.0
H3052 H 0.41241 0.26746 0.16829 0.0
H3053 H 0.40488 0.22115 0.20572 0.0
H3054 H 0.31006 0.21925 0.20757 0.0
H3055 H 0.34296 0.22236 0.20138 0.0
C3056 C 0.63003 0.50105 0.35411 0.0
C3057 C 0.61985 0.49946 0.33565 0.0
C3058 C 0.62066 0.50119 0.3713 0.0
C3059 C 0.57433 0.50819 0.38919 0.0
H3060 H 0.59203 0.48405 0.43425 0.0
C3061 C 0.53105 0.49653 0.45617 0.0
C3062 C 0.54099 0.50255 0.47449 0.0
C3063 C 0.54062 0.49525 0.43921 0.0
C3064 C 0.58696 0.49089 0.42177 0.0
H3065 H 0.59188 0.49637 0.32072 0.0
H3066 H 0.57567 0.49597 0.3503 0.0
H3067 H 0.60917 0.48406 0.40493 0.0
H3068 H 0.56884 0.51144 0.48939 0.0
H3069 H 0.5854 0.50878 0.46002 0.0
H3070 H 0.55195 0.51471 0.40599 0.0
C3071 C 0.59086 0.49773 0.35176 0.0
C3072 C 0.59685 0.49102 0.405 0.0
C3073 C 0.60019 0.49782 0.33471 0.0
C3074 C 0.56071 0.50672 0.47554 0.0
C3075 C 0.57025 0.50513 0.45871 0.0
C3076 C 0.56434 0.50784 0.40585 0.0
C3077 C 0.60091 0.49955 0.37033 0.0
C3078 C 0.59068 0.49968 0.38845 0.0
C3079 C 0.56033 0.49964 0.44032 0.0
C3080 C 0.57055 0.49923 0.42234 0.0
H3081 H 0.6452 0.50237 0.35529 0.0
H3082 H 0.62892 0.50284 0.38532 0.0
H3083 H 0.56933 0.51538 0.37697 0.0
H3084 H 0.51587 0.49329 0.45484 0.0
H3085 H 0.53261 0.49086 0.42522 0.0
C3086 C 0.25356 0.86461 0.06831 0.0
C3087 C 0.25952 0.85459 0.05217 0.0
C3088 C 0.25698 0.85916 0.08728 0.0
C3089 C 0.26622 0.81719 0.11223 0.0
H3090 H 0.27947 0.85286 0.15819 0.0
C3091 C 0.28086 0.79201 0.18885 0.0
C3092 C 0.27169 0.80038 0.20373 0.0
C3093 C 0.28172 0.7997 0.17072 0.0
C3094 C 0.27571 0.84274 0.14547 0.0
H3095 H 0.27471 0.83178 0.0434 0.0
H3096 H 0.28087 0.8226 0.07625 0.0
H3097 H 0.27618 0.86464 0.12576 0.0
H3098 H 0.25686 0.82373 0.21157 0.0
H3099 H 0.25824 0.83693 0.18005 0.0
H3100 H 0.26549 0.79532 0.13185 0.0
C3101 C 0.2731 0.83426 0.07431 0.0
C3102 C 0.27378 0.84949 0.12694 0.0
C3103 C 0.2696 0.83959 0.05545 0.0
C3104 C 0.26398 0.81689 0.20039 0.0
C3105 C 0.26489 0.82458 0.18235 0.0
C3106 C 0.26819 0.81047 0.13071 0.0
C3107 C 0.26651 0.8437 0.09039 0.0
C3108 C 0.26893 0.83677 0.11013 0.0
C3109 C 0.27351 0.81591 0.16722 0.0
C3110 C 0.27283 0.82316 0.14754 0.0
H3111 H 0.24579 0.87624 0.06624 0.0
H3112 H 0.25164 0.86665 0.0994 0.0
H3113 H 0.26213 0.80702 0.09961 0.0
H3114 H 0.28698 0.77932 0.19102 0.0
H3115 H 0.28863 0.79284 0.15937 0.0
C3116 C 0.93488 0.53376 0.83114 0.0
C3117 C 0.91678 0.53857 0.82839 0.0
C3118 C 0.94464 0.53622 0.84966 0.0
C3119 C 0.93647 0.5399 0.90198 0.0
H3120 H 0.99092 0.54774 0.90794 0.0
C3121 C 0.00171 0.53827 0.96546 0.0
C3122 C 0.99337 0.5224 0.97423 0.0
C3123 C 0.99272 0.54418 0.94867 0.0
C3124 C 0.97573 0.54588 0.90668 0.0
H3125 H 0.89495 0.55043 0.84275 0.0
H3126 H 0.91222 0.55519 0.87524 0.0
H3127 H 0.97459 0.55249 0.87678 0.0
H3128 H 0.96942 0.49992 0.97195 0.0
H3129 H 0.95426 0.5097 0.94267 0.0
H3130 H 0.93758 0.53359 0.93193 0.0
C3131 C 0.91872 0.5491 0.86309 0.0
C3132 C 0.96633 0.54834 0.8887 0.0
C3133 C 0.90882 0.54644 0.84449 0.0
C3134 C 0.97615 0.51236 0.96572 0.0
C3135 C 0.96731 0.51811 0.94898 0.0
C3136 C 0.94585 0.53771 0.92 0.0
C3137 C 0.93668 0.54379 0.86595 0.0
C3138 C 0.94658 0.54463 0.8859 0.0
C3139 C 0.9753 0.53422 0.94035 0.0
C3140 C 0.96558 0.53988 0.92233 0.0
H3141 H 0.94145 0.52769 0.81903 0.0
H3142 H 0.95822 0.53155 0.85126 0.0
H3143 H 0.92128 0.53689 0.90046 0.0
H3144 H 0.01494 0.54633 0.97179 0.0
H3145 H 0.99925 0.55667 0.9424 0.0
C3146 C 0.25862 0.17687 0.5571 0.0
C3147 C 0.26144 0.15857 0.55029 0.0
C3148 C 0.25803 0.18177 0.57703 0.0
C3149 C 0.27191 0.16902 0.62631 0.0
H3150 H 0.23473 0.19999 0.64143 0.0
C3151 C 0.26455 0.19178 0.70734 0.0
C3152 C 0.26333 0.21104 0.71168 0.0
C3153 C 0.26247 0.18385 0.68795 0.0
C3154 C 0.24525 0.19144 0.63744 0.0
H3155 H 0.26632 0.13118 0.55934 0.0
H3156 H 0.26525 0.13982 0.59442 0.0
H3157 H 0.23515 0.1887 0.60712 0.0
H3158 H 0.25822 0.23689 0.69909 0.0
H3159 H 0.25461 0.22306 0.66519 0.0
H3160 H 0.28217 0.17199 0.65664 0.0
C3161 C 0.26353 0.15034 0.58415 0.0
C3162 C 0.24551 0.18496 0.61778 0.0
C3163 C 0.26413 0.1454 0.56407 0.0
C3164 C 0.25918 0.222 0.69624 0.0
C3165 C 0.25708 0.21406 0.67682 0.0
C3166 C 0.27164 0.17548 0.64601 0.0
C3167 C 0.26021 0.16853 0.59079 0.0
C3168 C 0.25904 0.17396 0.61193 0.0
C3169 C 0.25907 0.19498 0.67243 0.0
C3170 C 0.25848 0.187 0.65175 0.0
H3171 H 0.25671 0.18751 0.54702 0.0
H3172 H 0.25593 0.19603 0.58167 0.0
H3173 H 0.28262 0.16072 0.62226 0.0
H3174 H 0.26762 0.18288 0.7189 0.0
H3175 H 0.26377 0.16904 0.68508 0.0
C3176 C 0.62313 0.50402 0.21865 0.0
C3177 C 0.61006 0.50609 0.23253 0.0
C3178 C 0.61775 0.50382 0.19853 0.0
C3179 C 0.57552 0.49632 0.16292 0.0
H3180 H 0.607 0.52661 0.13005 0.0
C3181 C 0.54711 0.51175 0.0864 0.0
C3182 C 0.55857 0.50888 0.07116 0.0
C3183 C 0.55431 0.5124 0.10597 0.0
C3184 C 0.59812 0.51799 0.13903 0.0
H3185 H 0.58097 0.50912 0.23598 0.0
H3186 H 0.57182 0.50889 0.20136 0.0
H3187 H 0.61818 0.5242 0.16421 0.0
H3188 H 0.58685 0.50562 0.06452 0.0
H3189 H 0.59938 0.50681 0.09864 0.0
H3190 H 0.55542 0.49019 0.13792 0.0
C3191 C 0.58615 0.50727 0.20586 0.0
C3192 C 0.60456 0.51652 0.15854 0.0
C3193 C 0.59149 0.50754 0.22581 0.0
C3194 C 0.57763 0.50778 0.07592 0.0
C3195 C 0.58485 0.50852 0.09549 0.0
C3196 C 0.56908 0.49782 0.1435 0.0
C3197 C 0.59918 0.5055 0.19195 0.0
C3198 C 0.59322 0.50585 0.17078 0.0
C3199 C 0.57314 0.51031 0.11072 0.0
C3200 C 0.5802 0.50884 0.13138 0.0
H3201 H 0.63754 0.50289 0.22331 0.0
H3202 H 0.62808 0.50229 0.18814 0.0
H3203 H 0.56657 0.48767 0.17183 0.0
H3204 H 0.53238 0.51265 0.08323 0.0
H3205 H 0.54502 0.51414 0.11741 0.0
C3206 C 0.22321 0.84374 0.95046 0.0
C3207 C 0.22732 0.86358 0.95333 0.0
C3208 C 0.22303 0.83445 0.93187 0.0
C3209 C 0.24516 0.84051 0.8865 0.0
H3210 H 0.2109 0.79485 0.86726 0.0
C3211 C 0.25303 0.80029 0.81306 0.0
C3212 C 0.25087 0.78039 0.81224 0.0
C3213 C 0.24795 0.81077 0.82913 0.0
C3214 C 0.22066 0.80749 0.87253 0.0
H3215 H 0.23364 0.88938 0.93892 0.0
H3216 H 0.23341 0.87307 0.90618 0.0
H3217 H 0.20491 0.81331 0.89688 0.0
H3218 H 0.24138 0.75588 0.82762 0.0
H3219 H 0.23287 0.77433 0.85616 0.0
H3220 H 0.26124 0.8345 0.86262 0.0
C3221 C 0.2304 0.86473 0.91842 0.0
C3222 C 0.21717 0.81811 0.88941 0.0
C3223 C 0.23041 0.87407 0.93708 0.0
C3224 C 0.24321 0.77118 0.82782 0.0
C3225 C 0.23824 0.78175 0.84409 0.0
C3226 C 0.24868 0.82988 0.86971 0.0
C3227 C 0.22709 0.84479 0.91573 0.0
C3228 C 0.2295 0.83463 0.89668 0.0
C3229 C 0.24076 0.80169 0.84499 0.0
C3230 C 0.23656 0.81316 0.86259 0.0
H3231 H 0.2207 0.83529 0.96272 0.0
H3232 H 0.22063 0.8191 0.93034 0.0
H3233 H 0.25513 0.85295 0.89195 0.0
H3234 H 0.25868 0.8079 0.80123 0.0
H3235 H 0.2497 0.82605 0.82913 0.0
C3236 C 0.92886 0.48878 0.72465 0.0
C3237 C 0.91664 0.50171 0.72918 0.0
C3238 C 0.93435 0.48636 0.70573 0.0
C3239 C 0.9425 0.51349 0.66383 0.0
H3240 H 0.9527 0.46583 0.63954 0.0
C3241 C 0.99508 0.51123 0.60567 0.0
C3242 C 0.98943 0.49885 0.58873 0.0
C3243 C 0.9847 0.51009 0.62199 0.0
C3244 C 0.9498 0.47922 0.64605 0.0
H3245 H 0.89971 0.52145 0.71718 0.0
H3246 H 0.90946 0.51727 0.68392 0.0
H3247 H 0.93485 0.46593 0.66839 0.0
H3248 H 0.96901 0.47494 0.576 0.0
H3249 H 0.95097 0.47293 0.6046 0.0
H3250 H 0.95762 0.52681 0.64169 0.0
C3251 C 0.91483 0.5091 0.69514 0.0
C3252 C 0.93965 0.47928 0.66259 0.0
C3253 C 0.90917 0.51141 0.71411 0.0
C3254 C 0.97373 0.4847 0.58883 0.0
C3255 C 0.96339 0.48353 0.6052 0.0
C3256 C 0.95271 0.51343 0.64737 0.0
C3257 C 0.92785 0.49689 0.69091 0.0
C3258 C 0.93619 0.49645 0.67185 0.0
C3259 C 0.96851 0.49652 0.62175 0.0
C3260 C 0.95677 0.49634 0.63855 0.0
H3261 H 0.93471 0.48096 0.7359 0.0
H3262 H 0.94451 0.47697 0.703 0.0
H3263 H 0.94024 0.52696 0.67074 0.0
H3264 H 0.00713 0.52224 0.60612 0.0
H3265 H 0.9892 0.52004 0.63472 0.0
C3266 C 0.27354 0.1691 0.44827 0.0
C3267 C 0.27083 0.14921 0.44751 0.0
C3268 C 0.27367 0.17835 0.43108 0.0
C3269 C 0.25554 0.17303 0.37989 0.0
H3270 H 0.29474 0.21501 0.37428 0.0
C3271 C 0.25815 0.21074 0.30872 0.0
C3272 C 0.26421 0.23041 0.30997 0.0
C3273 C 0.25985 0.20053 0.32513 0.0
C3274 C 0.28353 0.20351 0.37569 0.0
H3275 H 0.26603 0.12337 0.42814 0.0
H3276 H 0.2658 0.13966 0.39783 0.0
H3277 H 0.29611 0.19741 0.40335 0.0
H3278 H 0.27666 0.25481 0.32965 0.0
H3279 H 0.27898 0.23712 0.35862 0.0
H3280 H 0.24248 0.17944 0.35274 0.0
C3281 C 0.26799 0.14801 0.41185 0.0
C3282 C 0.28441 0.19335 0.39229 0.0
C3283 C 0.26818 0.13871 0.42914 0.0
C3284 C 0.27198 0.23966 0.32815 0.0
C3285 C 0.27341 0.22946 0.34473 0.0
C3286 C 0.2545 0.18334 0.36342 0.0
C3287 C 0.27082 0.16794 0.41269 0.0
C3288 C 0.2704 0.17803 0.39457 0.0
C3289 C 0.26731 0.20973 0.34345 0.0
C3290 C 0.26848 0.19875 0.36107 0.0
H3291 H 0.27567 0.17761 0.4622 0.0
H3292 H 0.27568 0.1937 0.43218 0.0
H3293 H 0.24441 0.16147 0.38142 0.0
H3294 H 0.25211 0.20309 0.29496 0.0
H3295 H 0.25539 0.18535 0.32336 0.0
C3296 C 0.31263 0.57749 0.51756 0.0
C3297 C 0.31591 0.59691 0.5147 0.0
C3298 C 0.3263 0.56598 0.51375 0.0
C3299 C 0.36726 0.56448 0.48498 0.0
H3300 H 0.38491 0.5324 0.5232 0.0
C3301 C 0.44254 0.55051 0.49396 0.0
C3302 C 0.4465 0.5325 0.49786 0.0
C3303 C 0.42409 0.55409 0.49237 0.0
C3304 C 0.37984 0.54093 0.51216 0.0
H3305 H 0.33629 0.61954 0.50613 0.0
H3306 H 0.35988 0.59966 0.49961 0.0
H3307 H 0.35692 0.54709 0.52844 0.0
H3308 H 0.43441 0.50392 0.50277 0.0
H3309 H 0.40177 0.51035 0.50044 0.0
H3310 H 0.39062 0.55917 0.4692 0.0
C3311 C 0.34672 0.59319 0.50448 0.0
C3312 C 0.36386 0.54937 0.51519 0.0
C3313 C 0.33322 0.60463 0.5084 0.0
C3314 C 0.43162 0.51786 0.49949 0.0
C3315 C 0.41304 0.52157 0.49832 0.0
C3316 C 0.38316 0.55612 0.48198 0.0
C3317 C 0.34335 0.5737 0.5068 0.0
C3318 C 0.3579 0.56186 0.50202 0.0
C3319 C 0.40917 0.53983 0.49501 0.0
C3320 C 0.39005 0.54487 0.49592 0.0
H3321 H 0.29941 0.57114 0.5224 0.0
H3322 H 0.32338 0.551 0.51575 0.0
H3323 H 0.36273 0.57369 0.47434 0.0
H3324 H 0.45381 0.56204 0.49276 0.0
H3325 H 0.4216 0.56835 0.49006 0.0
C3326 C 0.82047 0.92743 0.53723 0.0
C3327 C 0.81976 0.90764 0.53482 0.0
C3328 C 0.8378 0.93949 0.53949 0.0
C3329 C 0.88876 0.93984 0.55222 0.0
H3330 H 0.89589 0.98182 0.51958 0.0
C3331 C 0.96121 0.97056 0.53038 0.0
C3332 C 0.96582 0.99019 0.5293 0.0
C3333 C 0.94315 0.96257 0.53406 0.0
C3334 C 0.89407 0.97037 0.52906 0.0
H3335 H 0.83681 0.88508 0.53348 0.0
H3336 H 0.8667 0.90594 0.53739 0.0
H3337 H 0.86445 0.96409 0.52083 0.0
H3338 H 0.95506 0.01691 0.53156 0.0
H3339 H 0.9233 0.00286 0.53795 0.0
H3340 H 0.91839 0.94571 0.56003 0.0
C3341 C 0.85396 0.91222 0.53765 0.0
C3342 C 0.87605 0.96021 0.52979 0.0
C3343 C 0.83675 0.90023 0.53525 0.0
C3344 C 0.95197 0.00173 0.53234 0.0
C3345 C 0.93376 0.99368 0.53588 0.0
C3346 C 0.90672 0.94996 0.55149 0.0
C3347 C 0.85475 0.93199 0.53963 0.0
C3348 C 0.87328 0.94449 0.54096 0.0
C3349 C 0.92914 0.97398 0.5367 0.0
C3350 C 0.90969 0.96501 0.53949 0.0
H3351 H 0.80767 0.93362 0.53692 0.0
H3352 H 0.83794 0.95467 0.54109 0.0
H3353 H 0.88706 0.92807 0.56131 0.0
H3354 H 0.97153 0.96124 0.52815 0.0
H3355 H 0.94004 0.94733 0.53431 0.0
C3356 C 0.86323 0.07369 0.26065 0.0
C3357 C 0.85523 0.05638 0.25024 0.0
C3358 C 0.85278 0.08854 0.26293 0.0
C3359 C 0.81104 0.10724 0.24277 0.0
H3360 H 0.81416 0.13381 0.29451 0.0
C3361 C 0.76452 0.16451 0.25989 0.0
C3362 C 0.77318 0.18099 0.27139 0.0
C3363 C 0.77353 0.14852 0.25806 0.0
C3364 C 0.81324 0.1267 0.27991 0.0
H3365 H 0.8301 0.04133 0.23355 0.0
H3366 H 0.81187 0.06737 0.23739 0.0
H3367 H 0.8322 0.10803 0.28898 0.0
H3368 H 0.79794 0.1933 0.29049 0.0
H3369 H 0.8137 0.16563 0.28714 0.0
H3370 H 0.79235 0.12612 0.23358 0.0
C3371 C 0.82626 0.06942 0.24379 0.0
C3372 C 0.82361 0.11189 0.27674 0.0
C3373 C 0.8367 0.05449 0.24162 0.0
C3374 C 0.79078 0.18083 0.28159 0.0
C3375 C 0.79982 0.16489 0.2797 0.0
C3376 C 0.80075 0.12215 0.2459 0.0
C3377 C 0.83408 0.08651 0.25477 0.0
C3378 C 0.82273 0.10205 0.25811 0.0
C3379 C 0.79148 0.14862 0.26763 0.0
C3380 C 0.80179 0.13216 0.2645 0.0
H3381 H 0.87747 0.07565 0.26747 0.0
H3382 H 0.85933 0.10161 0.27119 0.0
H3383 H 0.81018 0.10008 0.2282 0.0
H3384 H 0.75096 0.1641 0.25185 0.0
H3385 H 0.76649 0.13615 0.24896 0.0
C3386 C 0.71259 0.10247 0.02304 0.0
C3387 C 0.71633 0.1224 0.02427 0.0
C3388 C 0.69433 0.09309 0.02434 0.0
C3389 C 0.64495 0.10122 0.01785 0.0
H3390 H 0.63407 0.05709 0.04699 0.0
C3391 C 0.56966 0.07383 0.03192 0.0
C3392 C 0.56347 0.05442 0.02698 0.0
C3393 C 0.58877 0.08102 0.03386 0.0
C3394 C 0.63694 0.06934 0.03872 0.0
H3395 H 0.7038 0.14801 0.0285 0.0
H3396 H 0.67236 0.13178 0.03103 0.0
H3397 H 0.66676 0.07162 0.04523 0.0
H3398 H 0.57256 0.02709 0.02164 0.0
H3399 H 0.6061 0.03972 0.02504 0.0
H3400 H 0.61533 0.0991 0.01137 0.0
C3401 C 0.68336 0.12334 0.0286 0.0
C3402 C 0.65563 0.07762 0.03765 0.0
C3403 C 0.70148 0.13267 0.02724 0.0
C3404 C 0.57688 0.04212 0.0255 0.0
C3405 C 0.5961 0.04935 0.02742 0.0
C3406 C 0.62639 0.09305 0.019 0.0
C3407 C 0.67946 0.10345 0.02691 0.0
C3408 C 0.65982 0.09382 0.0274 0.0
C3409 C 0.60218 0.06897 0.03086 0.0
C3410 C 0.62212 0.07718 0.02965 0.0
H3411 H 0.72368 0.09411 0.02077 0.0
H3412 H 0.69178 0.07774 0.02288 0.0
H3413 H 0.64766 0.11335 0.00938 0.0
H3414 H 0.55969 0.08366 0.03335 0.0
H3415 H 0.59305 0.09615 0.03698 0.0
C3416 C 0.18355 0.45191 0.25916 0.0
C3417 C 0.16629 0.44954 0.26753 0.0
C3418 C 0.19589 0.43872 0.2614 0.0
C3419 C 0.20766 0.40258 0.29378 0.0
H3420 H 0.23147 0.38285 0.24963 0.0
C3421 C 0.2406 0.33416 0.29443 0.0
C3422 C 0.25585 0.33223 0.28328 0.0
C3423 C 0.23208 0.35044 0.29421 0.0
C3424 C 0.22526 0.38848 0.26223 0.0
H3425 H 0.14831 0.4313 0.28448 0.0
H3426 H 0.16979 0.40834 0.28834 0.0
H3427 H 0.2115 0.40711 0.2451 0.0
H3428 H 0.27494 0.34655 0.26431 0.0
H3429 H 0.26032 0.37515 0.26431 0.0
H3430 H 0.22129 0.38395 0.31092 0.0
C3431 C 0.17387 0.42048 0.28022 0.0
C3432 C 0.21374 0.40233 0.25958 0.0
C3433 C 0.16149 0.43355 0.27786 0.0
C3434 C 0.26315 0.34751 0.27297 0.0
C3435 C 0.25465 0.36384 0.27281 0.0
C3436 C 0.21927 0.38884 0.29646 0.0
C3437 C 0.19129 0.42301 0.2722 0.0
C3438 C 0.20454 0.40927 0.27524 0.0
C3439 C 0.23865 0.36526 0.28294 0.0
C3440 C 0.22796 0.38135 0.28064 0.0
H3441 H 0.18766 0.46411 0.25115 0.0
H3442 H 0.20924 0.44107 0.25509 0.0
H3443 H 0.20104 0.40793 0.30622 0.0
H3444 H 0.23459 0.32269 0.30255 0.0
H3445 H 0.2197 0.35092 0.30207 0.0
C3446 C 0.21728 0.43501 0.0361 0.0
C3447 C 0.21574 0.41528 0.03207 0.0
C3448 C 0.20143 0.44409 0.03373 0.0
C3449 C 0.15359 0.43625 0.00761 0.0
H3450 H 0.14486 0.47835 0.04278 0.0
C3451 C 0.08102 0.45812 0.01278 0.0
C3452 C 0.07926 0.47744 0.01381 0.0
C3453 C 0.09865 0.45239 0.0135 0.0
C3454 C 0.14728 0.4668 0.03267 0.0
H3455 H 0.19623 0.38951 0.02334 0.0
H3456 H 0.16865 0.40513 0.0198 0.0
H3457 H 0.17362 0.46444 0.04819 0.0
H3458 H 0.09465 0.50596 0.01622 0.0
H3459 H 0.12583 0.49586 0.01782 0.0
H3460 H 0.12702 0.4382 0.9925 0.0
C3461 C 0.18213 0.41376 0.02419 0.0
C3462 C 0.16374 0.45879 0.03577 0.0
C3463 C 0.19794 0.40475 0.02641 0.0
C3464 C 0.0956 0.49098 0.01527 0.0
C3465 C 0.11339 0.48521 0.01633 0.0
C3466 C 0.13716 0.44414 0.00462 0.0
C3467 C 0.1837 0.4336 0.02735 0.0
C3468 C 0.1669 0.44313 0.0235 0.0
C3469 C 0.11505 0.46582 0.01551 0.0
C3470 C 0.13363 0.45925 0.01732 0.0
H3471 H 0.23084 0.44354 0.04039 0.0
H3472 H 0.20322 0.45938 0.03623 0.0
H3473 H 0.15577 0.42461 0.99749 0.0
H3474 H 0.0687 0.44733 0.01164 0.0
H3475 H 0.09944 0.43738 0.01304 0.0
C3476 C 0.84681 0.95115 0.24159 0.0
C3477 C 0.86639 0.95208 0.245 0.0
C3478 C 0.83497 0.93361 0.23958 0.0
C3479 C 0.83535 0.88188 0.22969 0.0
H3480 H 0.79134 0.87607 0.25894 0.0
C3481 C 0.8023 0.80988 0.25243 0.0
C3482 C 0.78266 0.80537 0.25175 0.0
C3483 C 0.81077 0.82789 0.24867 0.0
C3484 C 0.80339 0.87751 0.25041 0.0
H3485 H 0.88879 0.93513 0.24853 0.0
H3486 H 0.86831 0.90487 0.24515 0.0
H3487 H 0.80934 0.90757 0.25754 0.0
H3488 H 0.75648 0.81628 0.24634 0.0
H3489 H 0.77139 0.848 0.23986 0.0
H3490 H 0.82976 0.85181 0.22304 0.0
C3491 C 0.86204 0.9176 0.24382 0.0
C3492 C 0.81371 0.89557 0.2496 0.0
C3493 C 0.87382 0.93505 0.24592 0.0
C3494 C 0.77165 0.81929 0.24692 0.0
C3495 C 0.78018 0.83747 0.24334 0.0
C3496 C 0.82509 0.86388 0.23054 0.0
C3497 C 0.84246 0.91662 0.24077 0.0
C3498 C 0.8301 0.8979 0.23964 0.0
C3499 C 0.79986 0.84198 0.24424 0.0
C3500 C 0.80926 0.8614 0.24131 0.0
H3501 H 0.84059 0.96397 0.24083 0.0
H3502 H 0.81996 0.93335 0.23711 0.0
H3503 H 0.84764 0.8832 0.22152 0.0
H3504 H 0.81122 0.7995 0.25606 0.0
H3505 H 0.82596 0.83094 0.24976 0.0
C3506 C 0.66415 0.05342 0.7595 0.0
C3507 C 0.64449 0.05171 0.75673 0.0
C3508 C 0.67544 0.07056 0.75714 0.0
C3509 C 0.67286 0.1219 0.75693 0.0
H3510 H 0.72327 0.12413 0.74057 0.0
C3511 C 0.71997 0.19305 0.75293 0.0
C3512 C 0.73722 0.19475 0.76437 0.0
C3513 C 0.70914 0.17527 0.74797 0.0
C3514 C 0.70919 0.12369 0.7451 0.0
H3515 H 0.6213 0.06634 0.74836 0.0
H3516 H 0.64095 0.09598 0.7435 0.0
H3517 H 0.70288 0.09357 0.73921 0.0
H3518 H 0.7573 0.17905 0.77822 0.0
H3519 H 0.73847 0.14797 0.76929 0.0
H3520 H 0.67921 0.15201 0.76276 0.0
C3521 C 0.64769 0.08433 0.74816 0.0
C3522 C 0.69753 0.10619 0.74445 0.0
C3523 C 0.6364 0.06728 0.75083 0.0
C3524 C 0.74403 0.17821 0.76948 0.0
C3525 C 0.73329 0.16041 0.76431 0.0
C3526 C 0.68441 0.13937 0.7573 0.0
C3527 C 0.66736 0.08633 0.75166 0.0
C3528 C 0.6793 0.10503 0.75068 0.0
C3529 C 0.71546 0.15883 0.7541 0.0
C3530 C 0.70278 0.14042 0.75167 0.0
H3531 H 0.67083 0.04172 0.76416 0.0
H3532 H 0.69047 0.07158 0.7603 0.0
H3533 H 0.65912 0.12164 0.76225 0.0
H3534 H 0.71432 0.2055 0.7487 0.0
H3535 H 0.69552 0.17441 0.7399 0.0
loop_
_geom_bond_atom_site_label_1
_geom_bond_atom_site_label_2
_geom_bond_distance
_geom_bond_site_symmetry_2
_ccdc_geom_bond_type
Co0 O1 2.216 . S
Co0 O2 2.091 . S
Co0 O4 2.004 1_455 S
Co0 O10 2.021 . S
Co0 O12 2.137 . S
Co0 O13 2.244 . S
O1 Co0 2.216 . S
O1 C8 1.247 . S
O2 Co0 2.091 . S
O2 C8 1.261 . S
C3 O12 1.247 . S
C3 O13 1.272 . S
O4 Co0 2.004 1_655 S
O4 C9 1.259 . S
Co5 O6 2.061 . S
Co5 O11 2.052 1_655 S
Co5 O13 2.135 1_655 S
O6 Co5 2.061 . S
O6 C9 1.235 . S
C7 O10 1.238 . S
C7 O11 1.241 . S
C8 O1 1.247 . S
C8 O2 1.261 . S
C9 O4 1.259 . S
C9 O6 1.235 . S
O10 Co0 2.021 . S
O10 C7 1.238 . S
O11 Co5 2.052 1_455 S
O11 C7 1.241 . S
O12 Co0 2.137 . S
O12 C3 1.247 . S
O13 Co0 2.244 . S
O13 C3 1.272 . S
O13 Co5 2.135 1_455 S
Co14 O15 2.216 1_455 S
Co14 O16 2.091 1_455 S
Co14 O18 2.004 . S
Co14 O24 2.021 . S
Co14 O26 2.137 . S
Co14 O27 2.244 . S
O15 Co14 2.216 1_655 S
O15 C22 1.247 . S
O16 Co14 2.091 1_655 S
O16 C22 1.261 . S
C17 O26 1.247 . S
C17 O27 1.272 . S
O18 Co14 2.004 . S
O18 C23 1.259 . S
Co19 O20 2.061 . S
Co19 O25 2.052 . S
Co19 O27 2.135 . S
O20 Co19 2.061 . S
O20 C23 1.235 . S
C21 O24 1.238 . S
C21 O25 1.241 . S
C22 O15 1.247 . S
C22 O16 1.261 . S
C23 O18 1.259 . S
C23 O20 1.235 . S
O24 Co14 2.021 . S
O24 C21 1.238 . S
O25 Co19 2.052 . S
O25 C21 1.241 . S
O26 Co14 2.137 . S
O26 C17 1.247 . S
O27 Co14 2.244 . S
O27 C17 1.272 . S
O27 Co19 2.135 . S
Co28 O29 2.216 . S
Co28 O30 2.091 . S
Co28 O32 2.004 . S
Co28 O38 2.021 . S
Co28 O40 2.137 . S
Co28 O41 2.244 . S
O29 Co28 2.216 . S
O29 C36 1.247 . S
O30 Co28 2.091 . S
O30 C36 1.261 . S
C31 O40 1.247 . S
C31 O41 1.272 . S
O32 Co28 2.004 . S
O32 C37 1.259 . S
Co33 O34 2.061 . S
Co33 O39 2.052 . S
Co33 O41 2.135 . S
O34 Co33 2.061 . S
O34 C37 1.235 . S
C35 O38 1.238 . S
C35 O39 1.241 . S
C36 O29 1.247 . S
C36 O30 1.261 . S
C37 O32 1.259 . S
C37 O34 1.235 . S
O38 Co28 2.021 . S
O38 C35 1.238 . S
O39 Co33 2.052 . S
O39 C35 1.241 . S
O40 Co28 2.137 . S
O40 C31 1.247 . S
O41 Co28 2.244 . S
O41 C31 1.272 . S
O41 Co33 2.135 . S
Co42 O43 2.216 . S
Co42 O44 2.091 . S
Co42 O46 2.004 . S
Co42 O52 2.021 . S
Co42 O54 2.137 . S
Co42 O55 2.244 . S
O43 Co42 2.216 . S
O43 C50 1.247 . S
O44 Co42 2.091 . S
O44 C50 1.261 . S
C45 O54 1.247 . S
C45 O55 1.272 . S
O46 Co42 2.004 . S
O46 C51 1.259 . S
Co47 O48 2.061 . S
Co47 O53 2.052 . S
Co47 O55 2.135 . S
O48 Co47 2.061 . S
O48 C51 1.235 . S
C49 O52 1.238 . S
C49 O53 1.241 . S
C50 O43 1.247 . S
C50 O44 1.261 . S
C51 O46 1.259 . S
C51 O48 1.235 . S
O52 Co42 2.021 . S
O52 C49 1.238 . S
O53 Co47 2.052 . S
O53 C49 1.241 . S
O54 Co42 2.137 . S
O54 C45 1.247 . S
O55 Co42 2.244 . S
O55 C45 1.272 . S
O55 Co47 2.135 . S
Co56 O57 2.216 1_455 S
Co56 O58 2.123 . S
Co56 O60 2.004 . S
Co56 O66 2.021 . S
Co56 O68 2.137 . S
Co56 O69 2.244 . S
O57 Co56 2.216 1_655 S
O57 C64 1.247 . S
O58 Co56 2.123 . S
O58 C64 1.225 1_455 S
C59 O68 1.247 . S
C59 O69 1.272 . S
O60 Co56 2.004 . S
O60 C65 1.259 . S
Co61 O62 2.061 . S
Co61 O67 2.052 . S
Co61 O69 2.135 . S
O62 Co61 2.061 . S
O62 C65 1.235 . S
C63 O66 1.238 . S
C63 O67 1.241 . S
C64 O57 1.247 . S
C64 O58 1.225 1_655 S
C65 O60 1.259 . S
C65 O62 1.235 . S
O66 Co56 2.021 . S
O66 C63 1.238 . S
O67 Co61 2.052 . S
O67 C63 1.241 . S
O68 Co56 2.137 . S
O68 C59 1.247 . S
O69 Co56 2.244 . S
O69 C59 1.272 . S
O69 Co61 2.135 . S
Co70 O71 2.216 . S
Co70 O72 2.091 . S
Co70 O74 2.004 . S
Co70 O80 2.021 . S
Co70 O82 2.137 . S
Co70 O83 2.244 . S
O71 Co70 2.216 . S
O71 C78 1.247 . S
O72 Co70 2.091 . S
O72 C78 1.261 . S
C73 O82 1.247 . S
C73 O83 1.272 . S
O74 Co70 2.004 . S
O74 C79 1.259 . S
Co75 O76 2.061 . S
Co75 O81 2.052 . S
Co75 O83 2.135 . S
O76 Co75 2.061 . S
O76 C79 1.235 . S
C77 O80 1.238 . S
C77 O81 1.241 . S
C78 O71 1.247 . S
C78 O72 1.261 . S
C79 O74 1.259 . S
C79 O76 1.235 . S
O80 Co70 2.021 . S
O80 C77 1.238 . S
O81 Co75 2.052 . S
O81 C77 1.241 . S
O82 Co70 2.137 . S
O82 C73 1.247 . S
O83 Co70 2.244 . S
O83 C73 1.272 . S
O83 Co75 2.135 . S
Co84 O85 2.216 . S
Co84 O86 2.091 . S
Co84 O88 2.004 . S
Co84 O94 2.021 . S
Co84 O96 2.137 . S
Co84 O97 2.244 . S
O85 Co84 2.216 . S
O85 C92 1.247 . S
O86 Co84 2.091 . S
O86 C92 1.261 . S
C87 O96 1.247 . S
C87 O97 1.272 . S
O88 Co84 2.004 . S
O88 C93 1.259 . S
Co89 O90 2.061 . S
Co89 O95 2.052 . S
Co89 O97 2.135 . S
O90 Co89 2.061 . S
O90 C93 1.235 . S
C91 O94 1.238 . S
C91 O95 1.241 . S
C92 O85 1.247 . S
C92 O86 1.261 . S
C93 O88 1.259 . S
C93 O90 1.235 . S
O94 Co84 2.021 . S
O94 C91 1.238 . S
O95 Co89 2.052 . S
O95 C91 1.241 . S
O96 Co84 2.137 . S
O96 C87 1.247 . S
O97 Co84 2.244 . S
O97 C87 1.272 . S
O97 Co89 2.135 . S
Co98 O99 2.216 . S
Co98 O100 2.091 . S
Co98 O102 2.004 1_455 S
Co98 O108 2.021 . S
Co98 O110 2.137 . S
Co98 O111 2.244 1_455 S
O99 Co98 2.216 . S
O99 C106 1.247 . S
O100 Co98 2.091 . S
O100 C106 1.261 . S
C101 O110 1.247 . S
C101 O111 1.272 1_455 S
O102 Co98 2.004 1_655 S
O102 C107 1.259 . S
Co103 O104 2.061 . S
Co103 O109 2.052 . S
Co103 O111 2.135 . S
O104 Co103 2.061 . S
O104 C107 1.235 . S
C105 O108 1.238 1_655 S
C105 O109 1.241 . S
C106 O99 1.247 . S
C106 O100 1.261 . S
C107 O102 1.259 . S
C107 O104 1.235 . S
O108 Co98 2.021 . S
O108 C105 1.238 1_455 S
O109 Co103 2.052 . S
O109 C105 1.241 . S
O110 Co98 2.137 . S
O110 C101 1.247 . S
O111 Co98 2.244 1_655 S
O111 C101 1.272 1_655 S
O111 Co103 2.135 . S
Co112 O113 2.216 . S
Co112 O114 2.091 . S
Co112 O116 2.004 1_545 S
Co112 O122 2.021 . S
Co112 O124 2.137 . S
Co112 O125 2.244 . S
O113 Co112 2.216 . S
O113 C120 1.247 . S
O114 Co112 2.091 . S
O114 C120 1.261 . S
C115 O124 1.247 . S
C115 O125 1.272 . S
O116 Co112 2.004 1_565 S
O116 C121 1.259 . S
Co117 O118 2.061 . S
Co117 O123 2.052 1_565 S
Co117 O125 2.135 1_565 S
O118 Co117 2.061 . S
O118 C121 1.235 . S
C119 O122 1.238 . S
C119 O123 1.241 . S
C120 O113 1.247 . S
C120 O114 1.261 . S
C121 O116 1.259 . S
C121 O118 1.235 . S
O122 Co112 2.021 . S
O122 C119 1.238 . S
O123 Co117 2.052 1_545 S
O123 C119 1.241 . S
O124 Co112 2.137 . S
O124 C115 1.247 . S
O125 Co112 2.244 . S
O125 C115 1.272 . S
O125 Co117 2.135 1_545 S
Co126 O127 2.216 . S
Co126 O128 2.091 . S
Co126 O130 2.004 . S
Co126 O136 2.021 . S
Co126 O138 2.137 . S
Co126 O139 2.244 . S
O127 Co126 2.216 . S
O127 C134 1.247 . S
O128 Co126 2.091 . S
O128 C134 1.261 . S
C129 O138 1.247 . S
C129 O139 1.272 . S
O130 Co126 2.004 . S
O130 C135 1.259 . S
Co131 O132 2.061 . S
Co131 O137 2.052 . S
Co131 O139 2.135 . S
O132 Co131 2.061 . S
O132 C135 1.235 . S
C133 O136 1.238 . S
C133 O137 1.241 . S
C134 O127 1.247 . S
C134 O128 1.261 . S
C135 O130 1.259 . S
C135 O132 1.235 . S
O136 Co126 2.021 . S
O136 C133 1.238 . S
O137 Co131 2.052 . S
O137 C133 1.241 . S
O138 Co126 2.137 . S
O138 C129 1.247 . S
O139 Co126 2.244 . S
O139 C129 1.272 . S
O139 Co131 2.135 . S
Co140 O141 2.216 1_545 S
Co140 O142 2.091 1_545 S
Co140 O144 2.004 . S
Co140 O150 2.021 . S
Co140 O152 2.137 . S
Co140 O153 2.244 . S
O141 Co140 2.216 1_565 S
O141 C148 1.247 . S
O142 Co140 2.091 1_565 S
O142 C148 1.261 . S
C143 O152 1.247 . S
C143 O153 1.272 . S
O144 Co140 2.004 . S
O144 C149 1.259 . S
Co145 O146 2.061 . S
Co145 O151 2.052 . S
Co145 O153 2.135 . S
O146 Co145 2.061 . S
O146 C149 1.235 . S
C147 O150 1.238 . S
C147 O151 1.241 . S
C148 O141 1.247 . S
C148 O142 1.261 . S
C149 O144 1.259 . S
C149 O146 1.235 . S
O150 Co140 2.021 . S
O150 C147 1.238 . S
O151 Co145 2.052 . S
O151 C147 1.241 . S
O152 Co140 2.137 . S
O152 C143 1.247 . S
O153 Co140 2.244 . S
O153 C143 1.272 . S
O153 Co145 2.135 . S
Co154 O155 2.216 . S
Co154 O156 2.091 . S
Co154 O158 2.004 . S
Co154 O164 2.021 . S
Co154 O166 2.137 1_554 S
Co154 O167 2.244 1_554 S
O155 Co154 2.216 . S
O155 C162 1.247 . S
O156 Co154 2.091 . S
O156 C162 1.261 . S
C157 O166 1.247 . S
C157 O167 1.272 . S
O158 Co154 2.004 . S
O158 C163 1.259 . S
Co159 O160 2.061 . S
Co159 O165 2.052 . S
Co159 O167 2.135 1_554 S
O160 Co159 2.061 . S
O160 C163 1.235 . S
C161 O164 1.238 . S
C161 O165 1.241 . S
C162 O155 1.247 . S
C162 O156 1.261 . S
C163 O158 1.259 . S
C163 O160 1.235 . S
O164 Co154 2.021 . S
O164 C161 1.238 . S
O165 Co159 2.052 . S
O165 C161 1.241 . S
O166 Co154 2.137 1_556 S
O166 C157 1.247 . S
O167 Co154 2.244 1_556 S
O167 C157 1.272 . S
O167 Co159 2.135 1_556 S
Co168 O169 2.216 . S
Co168 O170 2.091 . S
Co168 O172 2.004 . S
Co168 O178 2.021 . S
Co168 O180 2.137 . S
Co168 O181 2.244 . S
O169 Co168 2.216 . S
O169 C176 1.247 . S
O170 Co168 2.091 . S
O170 C176 1.261 . S
C171 O180 1.247 . S
C171 O181 1.272 . S
O172 Co168 2.004 . S
O172 C177 1.259 . S
Co173 O174 2.061 . S
Co173 O179 2.052 . S
Co173 O181 2.135 . S
O174 Co173 2.061 . S
O174 C177 1.235 . S
C175 O178 1.238 . S
C175 O179 1.241 . S
C176 O169 1.247 . S
C176 O170 1.261 . S
C177 O172 1.259 . S
C177 O174 1.235 . S
O178 Co168 2.021 . S
O178 C175 1.238 . S
O179 Co173 2.052 . S
O179 C175 1.241 . S
O180 Co168 2.137 . S
O180 C171 1.247 . S
O181 Co168 2.244 . S
O181 C171 1.272 . S
O181 Co173 2.135 . S
Co182 O183 2.216 . S
Co182 O184 2.091 . S
Co182 O186 2.004 . S
Co182 O192 2.021 . S
Co182 O194 2.137 1_554 S
Co182 O195 2.244 . S
O183 Co182 2.216 . S
O183 C190 1.247 . S
O184 Co182 2.091 . S
O184 C190 1.261 . S
C185 O194 1.247 . S
C185 O195 1.272 1_556 S
O186 Co182 2.004 . S
O186 C191 1.259 . S
Co187 O188 2.061 . S
Co187 O193 2.052 . S
Co187 O195 2.135 . S
O188 Co187 2.061 . S
O188 C191 1.235 . S
C189 O192 1.238 . S
C189 O193 1.241 . S
C190 O183 1.247 . S
C190 O184 1.261 . S
C191 O186 1.259 . S
C191 O188 1.235 . S
O192 Co182 2.021 . S
O192 C189 1.238 . S
O193 Co187 2.052 . S
O193 C189 1.241 . S
O194 Co182 2.137 1_556 S
O194 C185 1.247 . S
O195 Co182 2.244 . S
O195 C185 1.272 1_554 S
O195 Co187 2.135 . S
Co196 O197 2.216 . S
Co196 O198 2.091 . S
Co196 O200 2.004 . S
Co196 O206 2.021 . S
Co196 O208 2.137 . S
Co196 O209 2.244 . S
O197 Co196 2.216 . S
O197 C204 1.247 . S
O198 Co196 2.091 . S
O198 C204 1.261 . S
C199 O208 1.247 . S
C199 O209 1.272 . S
O200 Co196 2.004 . S
O200 C205 1.259 . S
Co201 O202 2.061 . S
Co201 O207 2.052 . S
Co201 O209 2.135 . S
O202 Co201 2.061 . S
O202 C205 1.235 . S
C203 O206 1.238 . S
C203 O207 1.241 . S
C204 O197 1.247 . S
C204 O198 1.261 . S
C205 O200 1.259 . S
C205 O202 1.235 . S
O206 Co196 2.021 . S
O206 C203 1.238 . S
O207 Co201 2.052 . S
O207 C203 1.241 . S
O208 Co196 2.137 . S
O208 C199 1.247 . S
O209 Co196 2.244 . S
O209 C199 1.272 . S
O209 Co201 2.135 . S
Co210 O211 2.216 . S
Co210 O212 2.091 . S
Co210 O214 2.004 . S
Co210 O220 2.021 . S
Co210 O222 2.137 . S
Co210 O223 2.244 . S
O211 Co210 2.216 . S
O211 C218 1.247 . S
O212 Co210 2.091 . S
O212 C218 1.261 . S
C213 O222 1.247 . S
C213 O223 1.272 . S
O214 Co210 2.004 . S
O214 C219 1.259 . S
Co215 O216 2.061 . S
Co215 O221 2.052 . S
Co215 O223 2.135 . S
O216 Co215 2.061 . S
O216 C219 1.235 . S
C217 O220 1.238 . S
C217 O221 1.241 . S
C218 O211 1.247 . S
C218 O212 1.261 . S
C219 O214 1.259 . S
C219 O216 1.235 . S
O220 Co210 2.021 . S
O220 C217 1.238 . S
O221 Co215 2.052 . S
O221 C217 1.241 . S
O222 Co210 2.137 . S
O222 C213 1.247 . S
O223 Co210 2.244 . S
O223 C213 1.272 . S
O223 Co215 2.135 . S
Co224 O225 2.216 . S
Co224 O226 2.091 . S
Co224 O228 2.004 1_545 S
Co224 O234 2.021 . S
Co224 O236 2.137 . S
Co224 O237 2.244 . S
O225 Co224 2.216 . S
O225 C232 1.247 . S
O226 Co224 2.091 . S
O226 C232 1.261 . S
C227 O236 1.247 . S
C227 O237 1.272 . S
O228 Co224 2.004 1_565 S
O228 C233 1.259 . S
Co229 O230 2.061 . S
Co229 O235 2.052 1_565 S
Co229 O237 2.135 1_565 S
O230 Co229 2.061 . S
O230 C233 1.235 . S
C231 O234 1.238 . S
C231 O235 1.241 . S
C232 O225 1.247 . S
C232 O226 1.261 . S
C233 O228 1.259 . S
C233 O230 1.235 . S
O234 Co224 2.021 . S
O234 C231 1.238 . S
O235 Co229 2.052 1_545 S
O235 C231 1.241 . S
O236 Co224 2.137 . S
O236 C227 1.247 . S
O237 Co224 2.244 . S
O237 C227 1.272 . S
O237 Co229 2.135 1_545 S
Co238 O239 2.216 . S
Co238 O240 2.091 . S
Co238 O242 2.004 . S
Co238 O248 2.021 . S
Co238 O250 2.137 . S
Co238 O251 2.244 . S
O239 Co238 2.216 . S
O239 C246 1.247 . S
O240 Co238 2.091 . S
O240 C246 1.261 . S
C241 O250 1.247 . S
C241 O251 1.272 . S
O242 Co238 2.004 . S
O242 C247 1.259 . S
Co243 O244 2.061 . S
Co243 O249 2.052 . S
Co243 O251 2.135 . S
O244 Co243 2.061 . S
O244 C247 1.235 . S
C245 O248 1.238 . S
C245 O249 1.241 . S
C246 O239 1.247 . S
C246 O240 1.261 . S
C247 O242 1.259 . S
C247 O244 1.235 . S
O248 Co238 2.021 . S
O248 C245 1.238 . S
O249 Co243 2.052 . S
O249 C245 1.241 . S
O250 Co238 2.137 . S
O250 C241 1.247 . S
O251 Co238 2.244 . S
O251 C241 1.272 . S
O251 Co243 2.135 . S
Co252 O253 2.216 . S
Co252 O254 2.091 . S
Co252 O256 2.004 . S
Co252 O262 2.021 . S
Co252 O264 2.137 . S
Co252 O265 2.244 . S
O253 Co252 2.216 . S
O253 C260 1.247 . S
O254 Co252 2.091 . S
O254 C260 1.261 . S
C255 O264 1.247 . S
C255 O265 1.272 . S
O256 Co252 2.004 . S
O256 C261 1.259 . S
Co257 O258 2.061 . S
Co257 O263 2.052 . S
Co257 O265 2.135 . S
O258 Co257 2.061 . S
O258 C261 1.235 . S
C259 O262 1.238 . S
C259 O263 1.241 . S
C260 O253 1.247 . S
C260 O254 1.261 . S
C261 O256 1.259 . S
C261 O258 1.235 . S
O262 Co252 2.021 . S
O262 C259 1.238 . S
O263 Co257 2.052 . S
O263 C259 1.241 . S
O264 Co252 2.137 . S
O264 C255 1.247 . S
O265 Co252 2.244 . S
O265 C255 1.272 . S
O265 Co257 2.135 . S
Co266 O267 2.216 . S
Co266 O268 2.091 . S
Co266 O270 2.004 1_565 S
Co266 O276 2.021 . S
Co266 O278 2.137 . S
Co266 O279 2.244 1_565 S
O267 Co266 2.216 . S
O267 C274 1.247 . S
O268 Co266 2.091 . S
O268 C274 1.261 . S
C269 O278 1.235 1_545 S
C269 O279 1.282 . S
O270 Co266 2.004 1_545 S
O270 C275 1.259 . S
Co271 O272 2.061 . S
Co271 O277 2.052 . S
Co271 O279 2.135 . S
O272 Co271 2.061 . S
O272 C275 1.235 . S
C273 O276 1.235 1_545 S
C273 O277 1.245 . S
C274 O267 1.247 . S
C274 O268 1.261 . S
C275 O270 1.259 . S
C275 O272 1.235 . S
O276 Co266 2.021 . S
O276 C273 1.235 1_565 S
O277 Co271 2.052 . S
O277 C273 1.245 . S
O278 Co266 2.137 . S
O278 C269 1.235 1_565 S
O279 Co266 2.244 1_545 S
O279 C269 1.282 . S
O279 Co271 2.135 . S
Co280 O281 2.216 . S
Co280 O282 2.093 . S
Co280 O284 2.004 . S
Co280 O290 2.021 1_556 S
Co280 O292 2.137 . S
Co280 O293 2.244 . S
O281 Co280 2.216 . S
O281 C288 1.242 1_556 S
O282 Co280 2.093 . S
O282 C288 1.266 1_556 S
C283 O292 1.247 . S
C283 O293 1.272 . S
O284 Co280 2.004 . S
O284 C289 1.259 . S
Co285 O286 2.063 1_554 S
Co285 O291 2.058 . S
Co285 O293 2.130 1_554 S
O286 Co285 2.063 1_556 S
O286 C289 1.236 . S
C287 O290 1.238 . S
C287 O291 1.241 . S
C288 O281 1.242 1_554 S
C288 O282 1.266 1_554 S
C289 O284 1.259 . S
C289 O286 1.236 . S
O290 Co280 2.021 1_554 S
O290 C287 1.238 . S
O291 Co285 2.058 . S
O291 C287 1.241 . S
O292 Co280 2.137 . S
O292 C283 1.247 . S
O293 Co280 2.244 . S
O293 C283 1.272 . S
O293 Co285 2.130 1_556 S
Co294 O295 2.216 . S
Co294 O296 2.091 . S
Co294 O298 2.004 . S
Co294 O304 2.021 . S
Co294 O306 2.137 . S
Co294 O307 2.244 . S
O295 Co294 2.216 . S
O295 C302 1.247 . S
O296 Co294 2.091 . S
O296 C302 1.261 . S
C297 O306 1.247 . S
C297 O307 1.272 . S
O298 Co294 2.004 . S
O298 C303 1.259 . S
Co299 O300 2.061 . S
Co299 O305 2.052 . S
Co299 O307 2.135 . S
O300 Co299 2.061 . S
O300 C303 1.235 . S
C301 O304 1.238 . S
C301 O305 1.241 . S
C302 O295 1.247 . S
C302 O296 1.261 . S
C303 O298 1.259 . S
C303 O300 1.235 . S
O304 Co294 2.021 . S
O304 C301 1.238 . S
O305 Co299 2.052 . S
O305 C301 1.241 . S
O306 Co294 2.137 . S
O306 C297 1.247 . S
O307 Co294 2.244 . S
O307 C297 1.272 . S
O307 Co299 2.135 . S
Co308 O309 2.216 . S
Co308 O310 2.091 . S
Co308 O312 2.004 . S
Co308 O318 2.021 . S
Co308 O320 2.137 . S
Co308 O321 2.244 . S
O309 Co308 2.216 . S
O309 C316 1.247 . S
O310 Co308 2.091 . S
O310 C316 1.261 . S
C311 O320 1.247 . S
C311 O321 1.272 . S
O312 Co308 2.004 . S
O312 C317 1.259 . S
Co313 O314 2.061 . S
Co313 O319 2.052 . S
Co313 O321 2.135 . S
O314 Co313 2.061 . S
O314 C317 1.235 . S
C315 O318 1.238 . S
C315 O319 1.241 . S
C316 O309 1.247 . S
C316 O310 1.261 . S
C317 O312 1.259 . S
C317 O314 1.235 . S
O318 Co308 2.021 . S
O318 C315 1.238 . S
O319 Co313 2.052 . S
O319 C315 1.241 . S
O320 Co308 2.137 . S
O320 C311 1.247 . S
O321 Co308 2.244 . S
O321 C311 1.272 . S
O321 Co313 2.135 . S
Co322 O323 2.216 . S
Co322 O324 2.091 . S
Co322 O326 2.004 . S
Co322 O332 2.021 . S
Co322 O334 2.137 . S
Co322 O335 2.244 . S
O323 Co322 2.216 . S
O323 C330 1.247 . S
O324 Co322 2.091 . S
O324 C330 1.261 . S
C325 O334 1.247 . S
C325 O335 1.272 . S
O326 Co322 2.004 . S
O326 C331 1.259 . S
Co327 O328 2.061 . S
Co327 O333 2.052 . S
Co327 O335 2.135 . S
O328 Co327 2.061 . S
O328 C331 1.235 . S
C329 O332 1.238 . S
C329 O333 1.241 . S
C330 O323 1.247 . S
C330 O324 1.261 . S
C331 O326 1.259 . S
C331 O328 1.235 . S
O332 Co322 2.021 . S
O332 C329 1.238 . S
O333 Co327 2.052 . S
O333 C329 1.241 . S
O334 Co322 2.137 . S
O334 C325 1.247 . S
O335 Co322 2.244 . S
O335 C325 1.272 . S
O335 Co327 2.135 . S
Zn336 O342 1.969 . S
Zn336 O343 1.965 1_565 S
Zn336 O347 2.024 . S
Zn336 O352 1.969 1_565 S
Zn337 O344 1.969 1_654 S
Zn337 O350 1.969 1_554 S
Zn337 O351 1.965 . S
Zn337 O353 2.024 1_655 S
C338 O339 1.229 . S
C338 O347 1.058 . S
O339 C338 1.229 . S
C340 O341 1.229 1_454 S
C340 O353 1.058 . S
O341 C340 1.229 1_656 S
O342 Zn336 1.969 . S
O342 C345 1.267 . S
O343 Zn336 1.965 1_545 S
O343 C354 1.260 1_554 S
O344 Zn337 1.969 1_456 S
O344 C354 1.258 . S
C345 O342 1.267 . S
C345 O346 1.228 . S
O346 C345 1.228 . S
O347 Zn336 2.024 . S
O347 C338 1.058 . S
C348 O349 1.228 . S
C348 O350 1.267 1_554 S
O349 C348 1.228 . S
O350 Zn337 1.969 1_556 S
O350 C348 1.267 1_556 S
O351 Zn337 1.965 . S
O351 C355 1.260 1_655 S
O352 Zn336 1.969 1_545 S
O352 C355 1.258 . S
O353 Zn337 2.024 1_455 S
O353 C340 1.058 . S
C354 O343 1.260 1_556 S
C354 O344 1.258 . S
C355 O351 1.260 1_455 S
C355 O352 1.258 . S
Zn356 O362 1.969 . S
Zn356 O363 1.965 . S
Zn356 O367 2.024 . S
Zn356 O372 1.969 . S
Zn357 O364 1.969 . S
Zn357 O370 1.969 . S
Zn357 O371 1.965 . S
Zn357 O373 2.024 . S
C358 O359 1.229 . S
C358 O367 1.058 . S
O359 C358 1.229 . S
C360 O361 1.229 . S
C360 O373 1.058 . S
O361 C360 1.229 . S
O362 Zn356 1.969 . S
O362 C365 1.267 . S
O363 Zn356 1.965 . S
O363 C374 1.260 . S
O364 Zn357 1.969 . S
O364 C374 1.258 . S
C365 O362 1.267 . S
C365 O366 1.228 . S
O366 C365 1.228 . S
O367 Zn356 2.024 . S
O367 C358 1.058 . S
C368 O369 1.228 . S
C368 O370 1.267 . S
O369 C368 1.228 . S
O370 Zn357 1.969 . S
O370 C368 1.267 . S
O371 Zn357 1.965 . S
O371 C375 1.260 . S
O372 Zn356 1.969 . S
O372 C375 1.258 . S
O373 Zn357 2.024 . S
O373 C360 1.058 . S
C374 O363 1.260 . S
C374 O364 1.258 . S
C375 O371 1.260 . S
C375 O372 1.258 . S
Zn376 O382 1.969 . S
Zn376 O383 1.965 . S
Zn376 O387 2.024 . S
Zn376 O392 1.969 . S
Zn377 O384 1.969 . S
Zn377 O390 1.969 . S
Zn377 O391 1.965 1_565 S
Zn377 O393 2.024 . S
C378 O379 1.229 . S
C378 O387 1.058 . S
O379 C378 1.229 . S
C380 O381 1.229 . S
C380 O393 1.058 . S
O381 C380 1.229 . S
O382 Zn376 1.969 . S
O382 C385 1.267 . S
O383 Zn376 1.965 . S
O383 C394 1.260 . S
O384 Zn377 1.969 . S
O384 C394 1.258 1_565 S
C385 O382 1.267 . S
C385 O386 1.228 . S
O386 C385 1.228 . S
O387 Zn376 2.024 . S
O387 C378 1.058 . S
C388 O389 1.228 . S
C388 O390 1.267 . S
O389 C388 1.228 . S
O390 Zn377 1.969 . S
O390 C388 1.267 . S
O391 Zn377 1.965 1_545 S
O391 C395 1.260 . S
O392 Zn376 1.969 . S
O392 C395 1.258 . S
O393 Zn377 2.024 . S
O393 C380 1.058 . S
C394 O383 1.260 . S
C394 O384 1.258 1_545 S
C395 O391 1.260 . S
C395 O392 1.258 . S
Zn396 O402 1.969 . S
Zn396 O403 1.965 . S
Zn396 O407 2.024 . S
Zn396 O412 1.969 . S
Zn397 O404 1.969 . S
Zn397 O410 1.969 . S
Zn397 O411 1.965 . S
Zn397 O413 2.024 . S
C398 O399 1.229 . S
C398 O407 1.058 . S
O399 C398 1.229 . S
C400 O401 1.229 . S
C400 O413 1.058 . S
O401 C400 1.229 . S
O402 Zn396 1.969 . S
O402 C405 1.267 . S
O403 Zn396 1.965 . S
O403 C414 1.260 . S
O404 Zn397 1.969 . S
O404 C414 1.258 . S
C405 O402 1.267 . S
C405 O406 1.228 . S
O406 C405 1.228 . S
O407 Zn396 2.024 . S
O407 C398 1.058 . S
C408 O409 1.228 . S
C408 O410 1.267 . S
O409 C408 1.228 . S
O410 Zn397 1.969 . S
O410 C408 1.267 . S
O411 Zn397 1.965 . S
O411 C415 1.260 . S
O412 Zn396 1.969 . S
O412 C415 1.258 . S
O413 Zn397 2.024 . S
O413 C400 1.058 . S
C414 O403 1.260 . S
C414 O404 1.258 . S
C415 O411 1.260 . S
C415 O412 1.258 . S
Zn416 O422 1.969 . S
Zn416 O423 1.965 1_455 S
Zn416 O427 2.024 1_565 S
Zn416 O432 1.969 1_565 S
Zn417 O424 1.969 1_455 S
Zn417 O430 1.969 1_455 S
Zn417 O431 1.965 . S
Zn417 O433 2.024 . S
C418 O419 1.229 1_545 S
C418 O427 1.058 . S
O419 C418 1.229 1_565 S
C420 O421 1.229 . S
C420 O433 1.058 1_655 S
O421 C420 1.229 . S
O422 Zn416 1.969 . S
O422 C425 1.267 . S
O423 Zn416 1.965 1_655 S
O423 C434 1.260 . S
O424 Zn417 1.969 1_655 S
O424 C434 1.258 1_545 S
C425 O422 1.267 . S
C425 O426 1.228 . S
O426 C425 1.228 . S
O427 Zn416 2.024 1_545 S
O427 C418 1.058 . S
C428 O429 1.228 . S
C428 O430 1.267 1_455 S
O429 C428 1.228 . S
O430 Zn417 1.969 1_655 S
O430 C428 1.267 1_655 S
O431 Zn417 1.965 . S
O431 C435 1.260 . S
O432 Zn416 1.969 1_545 S
O432 C435 1.258 . S
O433 Zn417 2.024 . S
O433 C420 1.058 1_455 S
C434 O423 1.260 . S
C434 O424 1.258 1_565 S
C435 O431 1.260 . S
C435 O432 1.258 . S
Zn436 O442 1.969 . S
Zn436 O443 1.965 . S
Zn436 O447 2.024 . S
Zn436 O452 1.969 . S
Zn437 O444 1.969 . S
Zn437 O450 1.969 . S
Zn437 O451 1.965 . S
Zn437 O453 2.024 . S
C438 O439 1.229 . S
C438 O447 1.058 . S
O439 C438 1.229 . S
C440 O441 1.229 . S
C440 O453 1.058 . S
O441 C440 1.229 . S
O442 Zn436 1.969 . S
O442 C445 1.267 . S
O443 Zn436 1.965 . S
O443 C454 1.260 . S
O444 Zn437 1.969 . S
O444 C454 1.258 . S
C445 O442 1.267 . S
C445 O446 1.228 . S
O446 C445 1.228 . S
O447 Zn436 2.024 . S
O447 C438 1.058 . S
C448 O449 1.228 . S
C448 O450 1.267 . S
O449 C448 1.228 . S
O450 Zn437 1.969 . S
O450 C448 1.267 . S
O451 Zn437 1.965 . S
O451 C455 1.260 . S
O452 Zn436 1.969 . S
O452 C455 1.258 . S
O453 Zn437 2.024 . S
O453 C440 1.058 . S
C454 O443 1.260 . S
C454 O444 1.258 . S
C455 O451 1.260 . S
C455 O452 1.258 . S
Zn456 O462 2.006 . S
Zn456 O463 1.965 1_545 S
Zn456 O467 2.004 1_556 S
Zn456 O472 1.951 1_556 S
Zn457 O464 1.969 1_545 S
Zn457 O470 1.969 1_545 S
Zn457 O471 1.965 . S
Zn457 O473 2.024 . S
C458 O459 1.229 . S
C458 O467 1.058 . S
O459 C458 1.229 . S
C460 O461 1.229 . S
C460 O473 1.058 1_565 S
O461 C460 1.229 . S
O462 Zn456 2.006 . S
O462 C465 1.267 . S
O463 Zn456 1.965 1_565 S
O463 C474 1.238 1_556 S
O464 Zn457 1.969 1_565 S
O464 C474 1.258 . S
C465 O462 1.267 . S
C465 O466 1.228 . S
O466 C465 1.228 . S
O467 Zn456 2.004 1_554 S
O467 C458 1.058 . S
C468 O469 1.228 . S
C468 O470 1.267 1_545 S
O469 C468 1.228 . S
O470 Zn457 1.969 1_565 S
O470 C468 1.267 1_565 S
O471 Zn457 1.965 . S
O471 C475 1.260 . S
O472 Zn456 1.951 1_554 S
O472 C475 1.258 . S
O473 Zn457 2.024 . S
O473 C460 1.058 1_545 S
C474 O463 1.238 1_554 S
C474 O464 1.258 . S
C475 O471 1.260 . S
C475 O472 1.258 . S
Zn476 O482 1.969 . S
Zn476 O483 1.965 . S
Zn476 O487 2.024 . S
Zn476 O492 1.969 . S
Zn477 O484 1.969 . S
Zn477 O490 1.969 . S
Zn477 O491 1.965 . S
Zn477 O493 2.024 . S
C478 O479 1.229 . S
C478 O487 1.058 . S
O479 C478 1.229 . S
C480 O481 1.229 . S
C480 O493 1.058 . S
O481 C480 1.229 . S
O482 Zn476 1.969 . S
O482 C485 1.267 . S
O483 Zn476 1.965 . S
O483 C494 1.260 . S
O484 Zn477 1.969 . S
O484 C494 1.258 . S
C485 O482 1.267 . S
C485 O486 1.228 . S
O486 C485 1.228 . S
O487 Zn476 2.024 . S
O487 C478 1.058 . S
C488 O489 1.228 . S
C488 O490 1.267 . S
O489 C488 1.228 . S
O490 Zn477 1.969 . S
O490 C488 1.267 . S
O491 Zn477 1.965 . S
O491 C495 1.260 . S
O492 Zn476 1.969 . S
O492 C495 1.258 . S
O493 Zn477 2.024 . S
O493 C480 1.058 . S
C494 O483 1.260 . S
C494 O484 1.258 . S
C495 O491 1.260 . S
C495 O492 1.258 . S
Zn496 O502 1.969 . S
Zn496 O503 1.965 . S
Zn496 O507 2.024 . S
Zn496 O512 1.969 . S
Zn497 O504 1.969 1_556 S
Zn497 O510 1.969 1_556 S
Zn497 O511 1.965 1_556 S
Zn497 O513 2.024 . S
C498 O499 1.229 . S
C498 O507 1.058 . S
O499 C498 1.229 . S
C500 O501 1.229 . S
C500 O513 1.058 . S
O501 C500 1.229 . S
O502 Zn496 1.969 . S
O502 C505 1.267 . S
O503 Zn496 1.965 . S
O503 C514 1.260 . S
O504 Zn497 1.969 1_554 S
O504 C514 1.258 . S
C505 O502 1.267 . S
C505 O506 1.228 . S
O506 C505 1.228 . S
O507 Zn496 2.024 . S
O507 C498 1.058 . S
C508 O509 1.228 . S
C508 O510 1.267 1_556 S
O509 C508 1.228 . S
O510 Zn497 1.969 1_554 S
O510 C508 1.267 1_554 S
O511 Zn497 1.965 1_554 S
O511 C515 1.260 . S
O512 Zn496 1.969 . S
O512 C515 1.258 . S
O513 Zn497 2.024 . S
O513 C500 1.058 . S
C514 O503 1.260 . S
C514 O504 1.258 . S
C515 O511 1.260 . S
C515 O512 1.258 . S
Zn516 O522 1.969 . S
Zn516 O523 1.965 . S
Zn516 O527 2.024 . S
Zn516 O532 1.969 . S
Zn517 O524 1.969 . S
Zn517 O530 1.969 . S
Zn517 O531 1.965 . S
Zn517 O533 2.024 . S
C518 O519 1.229 . S
C518 O527 1.058 . S
O519 C518 1.229 . S
C520 O521 1.229 . S
C520 O533 1.058 . S
O521 C520 1.229 . S
O522 Zn516 1.969 . S
O522 C525 1.267 . S
O523 Zn516 1.965 . S
O523 C534 1.260 . S
O524 Zn517 1.969 . S
O524 C534 1.258 . S
C525 O522 1.267 . S
C525 O526 1.228 . S
O526 C525 1.228 . S
O527 Zn516 2.024 . S
O527 C518 1.058 . S
C528 O529 1.228 . S
C528 O530 1.267 . S
O529 C528 1.228 . S
O530 Zn517 1.969 . S
O530 C528 1.267 . S
O531 Zn517 1.965 . S
O531 C535 1.260 . S
O532 Zn516 1.969 . S
O532 C535 1.258 . S
O533 Zn517 2.024 . S
O533 C520 1.058 . S
C534 O523 1.260 . S
C534 O524 1.258 . S
C535 O531 1.260 . S
C535 O532 1.258 . S
Zn536 O542 1.969 . S
Zn536 O543 1.965 . S
Zn536 O547 2.024 . S
Zn536 O552 1.969 . S
Zn537 O544 1.969 . S
Zn537 O550 1.969 . S
Zn537 O551 1.965 1_655 S
Zn537 O553 2.024 . S
C538 O539 1.229 . S
C538 O547 1.058 . S
O539 C538 1.229 . S
C540 O541 1.229 . S
C540 O553 1.058 . S
O541 C540 1.229 . S
O542 Zn536 1.969 . S
O542 C545 1.267 . S
O543 Zn536 1.965 . S
O543 C554 1.260 . S
O544 Zn537 1.969 . S
O544 C554 1.258 1_655 S
C545 O542 1.267 . S
C545 O546 1.228 . S
O546 C545 1.228 . S
O547 Zn536 2.024 . S
O547 C538 1.058 . S
C548 O549 1.228 . S
C548 O550 1.267 . S
O549 C548 1.228 . S
O550 Zn537 1.969 . S
O550 C548 1.267 . S
O551 Zn537 1.965 1_455 S
O551 C555 1.260 . S
O552 Zn536 1.969 . S
O552 C555 1.258 . S
O553 Zn537 2.024 . S
O553 C540 1.058 . S
C554 O543 1.260 . S
C554 O544 1.258 1_455 S
C555 O551 1.260 . S
C555 O552 1.258 . S
Zn556 O562 1.969 . S
Zn556 O563 1.965 . S
Zn556 O567 2.024 . S
Zn556 O572 1.969 . S
Zn557 O564 1.969 . S
Zn557 O570 1.969 . S
Zn557 O571 1.965 . S
Zn557 O573 2.024 . S
C558 O559 1.229 . S
C558 O567 1.058 . S
O559 C558 1.229 . S
C560 O561 1.229 . S
C560 O573 1.058 . S
O561 C560 1.229 . S
O562 Zn556 1.969 . S
O562 C565 1.267 . S
O563 Zn556 1.965 . S
O563 C574 1.260 . S
O564 Zn557 1.969 . S
O564 C574 1.258 . S
C565 O562 1.267 . S
C565 O566 1.228 . S
O566 C565 1.228 . S
O567 Zn556 2.024 . S
O567 C558 1.058 . S
C568 O569 1.228 . S
C568 O570 1.267 . S
O569 C568 1.228 . S
O570 Zn557 1.969 . S
O570 C568 1.267 . S
O571 Zn557 1.965 . S
O571 C575 1.260 . S
O572 Zn556 1.969 . S
O572 C575 1.258 . S
O573 Zn557 2.024 . S
O573 C560 1.058 . S
C574 O563 1.260 . S
C574 O564 1.258 . S
C575 O571 1.260 . S
C575 O572 1.258 . S
Zn576 O582 1.969 . S
Zn576 O583 1.965 . S
Zn576 O587 2.024 . S
Zn576 O592 1.969 . S
Zn577 O584 1.969 . S
Zn577 O590 1.969 . S
Zn577 O591 1.965 . S
Zn577 O593 2.024 . S
C578 O579 1.229 . S
C578 O587 1.058 . S
O579 C578 1.229 . S
C580 O581 1.229 . S
C580 O593 1.058 . S
O581 C580 1.229 . S
O582 Zn576 1.969 . S
O582 C585 1.267 . S
O583 Zn576 1.965 . S
O583 C594 1.260 . S
O584 Zn577 1.969 . S
O584 C594 1.258 . S
C585 O582 1.267 . S
C585 O586 1.228 . S
O586 C585 1.228 . S
O587 Zn576 2.024 . S
O587 C578 1.058 . S
C588 O589 1.228 . S
C588 O590 1.267 . S
O589 C588 1.228 . S
O590 Zn577 1.969 . S
O590 C588 1.267 . S
O591 Zn577 1.965 . S
O591 C595 1.260 . S
O592 Zn576 1.969 . S
O592 C595 1.258 . S
O593 Zn577 2.024 . S
O593 C580 1.058 . S
C594 O583 1.260 . S
C594 O584 1.258 . S
C595 O591 1.260 . S
C595 O592 1.258 . S
Zn596 O602 1.969 . S
Zn596 O603 1.965 . S
Zn596 O607 2.024 . S
Zn596 O612 1.969 . S
Zn597 O604 1.969 . S
Zn597 O610 1.969 . S
Zn597 O611 1.965 . S
Zn597 O613 2.024 . S
C598 O599 1.229 . S
C598 O607 1.058 . S
O599 C598 1.229 . S
C600 O601 1.229 . S
C600 O613 1.058 . S
O601 C600 1.229 . S
O602 Zn596 1.969 . S
O602 C605 1.267 . S
O603 Zn596 1.965 . S
O603 C614 1.260 . S
O604 Zn597 1.969 . S
O604 C614 1.258 . S
C605 O602 1.267 . S
C605 O606 1.228 . S
O606 C605 1.228 . S
O607 Zn596 2.024 . S
O607 C598 1.058 . S
C608 O609 1.228 . S
C608 O610 1.267 . S
O609 C608 1.228 . S
O610 Zn597 1.969 . S
O610 C608 1.267 . S
O611 Zn597 1.965 . S
O611 C615 1.260 . S
O612 Zn596 1.969 . S
O612 C615 1.258 . S
O613 Zn597 2.024 . S
O613 C600 1.058 . S
C614 O603 1.260 . S
C614 O604 1.258 . S
C615 O611 1.260 . S
C615 O612 1.258 . S
Zn616 O622 1.969 . S
Zn616 O623 1.965 . S
Zn616 O627 2.024 . S
Zn616 O632 1.969 . S
Zn617 O624 1.969 . S
Zn617 O630 1.969 . S
Zn617 O631 1.965 . S
Zn617 O633 2.024 . S
C618 O619 1.229 . S
C618 O627 1.058 . S
O619 C618 1.229 . S
C620 O621 1.229 . S
C620 O633 1.058 . S
O621 C620 1.229 . S
O622 Zn616 1.969 . S
O622 C625 1.267 . S
O623 Zn616 1.965 . S
O623 C634 1.260 . S
O624 Zn617 1.969 . S
O624 C634 1.258 . S
C625 O622 1.267 . S
C625 O626 1.228 . S
O626 C625 1.228 . S
O627 Zn616 2.024 . S
O627 C618 1.058 . S
C628 O629 1.228 . S
C628 O630 1.267 . S
O629 C628 1.228 . S
O630 Zn617 1.969 . S
O630 C628 1.267 . S
O631 Zn617 1.965 . S
O631 C635 1.260 . S
O632 Zn616 1.969 . S
O632 C635 1.258 . S
O633 Zn617 2.024 . S
O633 C620 1.058 . S
C634 O623 1.260 . S
C634 O624 1.258 . S
C635 O631 1.260 . S
C635 O632 1.258 . S
Zn636 O642 1.969 . S
Zn636 O643 1.965 . S
Zn636 O647 2.024 1_655 S
Zn636 O652 1.969 1_655 S
Zn637 O644 1.969 1_554 S
Zn637 O650 1.969 . S
Zn637 O651 1.965 . S
Zn637 O653 2.024 . S
C638 O639 1.229 1_455 S
C638 O647 1.058 . S
O639 C638 1.229 1_655 S
C640 O641 1.229 1_554 S
C640 O653 1.058 . S
O641 C640 1.229 1_556 S
O642 Zn636 1.969 . S
O642 C645 1.267 . S
O643 Zn636 1.965 . S
O643 C654 1.260 1_654 S
O644 Zn637 1.969 1_556 S
O644 C654 1.258 . S
C645 O642 1.267 . S
C645 O646 1.228 . S
O646 C645 1.228 . S
O647 Zn636 2.024 1_455 S
O647 C638 1.058 . S
C648 O649 1.228 . S
C648 O650 1.267 . S
O649 C648 1.228 . S
O650 Zn637 1.969 . S
O650 C648 1.267 . S
O651 Zn637 1.965 . S
O651 C655 1.260 . S
O652 Zn636 1.969 1_455 S
O652 C655 1.258 . S
O653 Zn637 2.024 . S
O653 C640 1.058 . S
C654 O643 1.260 1_456 S
C654 O644 1.258 . S
C655 O651 1.260 . S
C655 O652 1.258 . S
C656 C657 1.347 . S
C656 C658 1.327 . S
C656 H681 0.950 . S
C657 C656 1.347 . S
C657 C673 1.350 1_455 S
C658 C656 1.327 . S
C658 C677 1.429 . S
C658 H682 0.950 . S
C659 C676 1.574 . S
C659 C678 1.368 . S
C659 H683 0.949 1_455 S
H660 C664 0.949 . S
C661 C662 1.349 . S
C661 C663 1.327 . S
C661 H684 0.950 . S
C662 C661 1.349 . S
C662 C674 1.349 1_554 S
C663 C661 1.327 . S
C663 C679 1.429 1_554 S
C663 H685 0.950 . S
C664 H660 0.949 . S
C664 C672 1.574 . S
C664 C680 1.368 . S
H665 C673 0.950 . S
H666 C671 0.950 . S
H667 C672 0.949 . S
H668 C674 0.950 . S
H669 C675 0.950 . S
H670 C676 0.949 . S
C671 H666 0.950 . S
C671 C673 1.327 . S
C671 C677 1.429 1_655 S
C672 C664 1.574 . S
C672 H667 0.949 . S
C672 C678 1.368 . S
C673 C657 1.350 1_655 S
C673 H665 0.950 . S
C673 C671 1.327 . S
C674 C662 1.349 1_556 S
C674 H668 0.950 . S
C674 C675 1.327 . S
C675 H669 0.950 . S
C675 C674 1.327 . S
C675 C679 1.429 . S
C676 C659 1.574 . S
C676 H670 0.949 . S
C676 C680 1.368 . S
C677 C658 1.429 . S
C677 C671 1.429 1_455 S
C677 C678 1.523 . S
C678 C659 1.368 . S
C678 C672 1.368 . S
C678 C677 1.523 . S
C679 C663 1.429 1_556 S
C679 C675 1.429 . S
C679 C680 1.523 . S
C680 C664 1.368 . S
C680 C676 1.368 . S
C680 C679 1.523 . S
H681 C656 0.950 . S
H682 C658 0.950 . S
H683 C659 0.949 1_655 S
H684 C661 0.950 . S
H685 C663 0.950 . S
C686 C687 1.349 . S
C686 C688 1.327 . S
C686 H711 0.950 . S
C687 C686 1.349 . S
C687 C703 1.349 . S
C688 C686 1.327 . S
C688 C707 1.429 . S
C688 H712 0.950 . S
C689 C706 1.574 . S
C689 C708 1.368 . S
C689 H713 0.949 . S
H690 C694 0.949 . S
C691 C692 1.349 . S
C691 C693 1.327 . S
C691 H714 0.950 . S
C692 C691 1.349 . S
C692 C704 1.349 . S
C693 C691 1.327 . S
C693 C709 1.429 . S
C693 H715 0.950 . S
C694 H690 0.949 . S
C694 C702 1.574 . S
C694 C710 1.368 . S
H695 C703 0.950 . S
H696 C701 0.950 . S
H697 C702 0.949 . S
H698 C704 0.950 . S
H699 C705 0.950 . S
H700 C706 0.949 . S
C701 H696 0.950 . S
C701 C703 1.327 . S
C701 C707 1.429 . S
C702 C694 1.574 . S
C702 H697 0.949 . S
C702 C708 1.368 . S
C703 C687 1.349 . S
C703 H695 0.950 . S
C703 C701 1.327 . S
C704 C692 1.349 . S
C704 H698 0.950 . S
C704 C705 1.327 . S
C705 H699 0.950 . S
C705 C704 1.327 . S
C705 C709 1.429 . S
C706 C689 1.574 . S
C706 H700 0.949 . S
C706 C710 1.368 . S
C707 C688 1.429 . S
C707 C701 1.429 . S
C707 C708 1.523 . S
C708 C689 1.368 . S
C708 C702 1.368 . S
C708 C707 1.523 . S
C709 C693 1.429 . S
C709 C705 1.429 . S
C709 C710 1.523 . S
C710 C694 1.368 . S
C710 C706 1.368 . S
C710 C709 1.523 . S
H711 C686 0.950 . S
H712 C688 0.950 . S
H713 C689 0.949 . S
H714 C691 0.950 . S
H715 C693 0.950 . S
C716 C717 1.349 . S
C716 C718 1.327 . S
C716 H741 0.950 . S
C717 C716 1.349 . S
C717 C733 1.349 . S
C718 C716 1.327 . S
C718 C737 1.429 . S
C718 H742 0.950 . S
C719 C736 1.574 . S
C719 C738 1.368 . S
C719 H743 0.949 . S
H720 C724 0.949 . S
C721 C722 1.349 . S
C721 C723 1.327 . S
C721 H744 0.950 . S
C722 C721 1.349 . S
C722 C734 1.349 . S
C723 C721 1.327 . S
C723 C739 1.429 . S
C723 H745 0.950 . S
C724 H720 0.949 . S
C724 C732 1.574 . S
C724 C740 1.368 . S
H725 C733 0.950 . S
H726 C731 0.950 . S
H727 C732 0.949 . S
H728 C734 0.950 . S
H729 C735 0.950 . S
H730 C736 0.949 . S
C731 H726 0.950 . S
C731 C733 1.327 . S
C731 C737 1.429 . S
C732 C724 1.574 . S
C732 H727 0.949 . S
C732 C738 1.368 . S
C733 C717 1.349 . S
C733 H725 0.950 . S
C733 C731 1.327 . S
C734 C722 1.349 . S
C734 H728 0.950 . S
C734 C735 1.327 . S
C735 H729 0.950 . S
C735 C734 1.327 . S
C735 C739 1.429 . S
C736 C719 1.574 . S
C736 H730 0.949 . S
C736 C740 1.368 . S
C737 C718 1.429 . S
C737 C731 1.429 . S
C737 C738 1.523 . S
C738 C719 1.368 . S
C738 C732 1.368 . S
C738 C737 1.523 . S
C739 C723 1.429 . S
C739 C735 1.429 . S
C739 C740 1.523 . S
C740 C724 1.368 . S
C740 C736 1.368 . S
C740 C739 1.523 . S
H741 C716 0.950 . S
H742 C718 0.950 . S
H743 C719 0.949 . S
H744 C721 0.950 . S
H745 C723 0.950 . S
C746 C747 1.349 . S
C746 C748 1.327 . S
C746 H771 0.950 . S
C747 C746 1.349 . S
C747 C763 1.349 . S
C748 C746 1.327 . S
C748 C767 1.429 . S
C748 H772 0.950 . S
C749 C766 1.574 . S
C749 C768 1.368 . S
C749 H773 0.949 . S
H750 C754 0.949 . S
C751 C752 1.349 . S
C751 C753 1.327 . S
C751 H774 0.950 . S
C752 C751 1.349 . S
C752 C764 1.349 . S
C753 C751 1.327 . S
C753 C769 1.429 . S
C753 H775 0.950 . S
C754 H750 0.949 . S
C754 C762 1.574 . S
C754 C770 1.368 . S
H755 C763 0.950 . S
H756 C761 0.950 . S
H757 C762 0.949 . S
H758 C764 0.950 . S
H759 C765 0.950 . S
H760 C766 0.949 . S
C761 H756 0.950 . S
C761 C763 1.327 . S
C761 C767 1.429 . S
C762 C754 1.574 . S
C762 H757 0.949 . S
C762 C768 1.368 . S
C763 C747 1.349 . S
C763 H755 0.950 . S
C763 C761 1.327 . S
C764 C752 1.349 . S
C764 H758 0.950 . S
C764 C765 1.327 . S
C765 H759 0.950 . S
C765 C764 1.327 . S
C765 C769 1.429 . S
C766 C749 1.574 . S
C766 H760 0.949 . S
C766 C770 1.368 . S
C767 C748 1.429 . S
C767 C761 1.429 . S
C767 C768 1.523 . S
C768 C749 1.368 . S
C768 C762 1.368 . S
C768 C767 1.523 . S
C769 C753 1.429 . S
C769 C765 1.429 . S
C769 C770 1.523 . S
C770 C754 1.368 . S
C770 C766 1.368 . S
C770 C769 1.523 . S
H771 C746 0.950 . S
H772 C748 0.950 . S
H773 C749 0.949 . S
H774 C751 0.950 . S
H775 C753 0.950 . S
C776 C777 1.349 . S
C776 C778 1.327 . S
C776 H801 0.950 . S
C777 C776 1.349 . S
C777 C793 1.349 . S
C778 C776 1.327 . S
C778 C797 1.429 . S
C778 H802 0.950 . S
C779 C796 1.574 . S
C779 C798 1.368 . S
C779 H803 0.949 . S
H780 C784 0.949 . S
C781 C782 1.349 . S
C781 C783 1.327 . S
C781 H804 0.950 . S
C782 C781 1.349 . S
C782 C794 1.349 . S
C783 C781 1.327 . S
C783 C799 1.429 . S
C783 H805 0.950 . S
C784 H780 0.949 . S
C784 C792 1.574 . S
C784 C800 1.368 . S
H785 C793 0.950 . S
H786 C791 0.950 . S
H787 C792 0.949 . S
H788 C794 0.950 . S
H789 C795 0.950 . S
H790 C796 0.949 . S
C791 H786 0.950 . S
C791 C793 1.327 . S
C791 C797 1.429 . S
C792 C784 1.574 . S
C792 H787 0.949 . S
C792 C798 1.368 . S
C793 C777 1.349 . S
C793 H785 0.950 . S
C793 C791 1.327 . S
C794 C782 1.349 . S
C794 H788 0.950 . S
C794 C795 1.327 . S
C795 H789 0.950 . S
C795 C794 1.327 . S
C795 C799 1.429 . S
C796 C779 1.574 . S
C796 H790 0.949 . S
C796 C800 1.368 . S
C797 C778 1.429 . S
C797 C791 1.429 . S
C797 C798 1.523 . S
C798 C779 1.368 . S
C798 C792 1.368 . S
C798 C797 1.523 . S
C799 C783 1.429 . S
C799 C795 1.429 . S
C799 C800 1.523 . S
C800 C784 1.368 . S
C800 C796 1.368 . S
C800 C799 1.523 . S
H801 C776 0.950 . S
H802 C778 0.950 . S
H803 C779 0.949 . S
H804 C781 0.950 . S
H805 C783 0.950 . S
C806 C807 1.349 . S
C806 C808 1.327 . S
C806 H831 0.950 . S
C807 C806 1.349 . S
C807 C823 1.349 . S
C808 C806 1.327 . S
C808 C827 1.429 . S
C808 H832 0.950 . S
C809 C826 1.574 . S
C809 C828 1.368 . S
C809 H833 0.949 . S
H810 C814 0.949 . S
C811 C812 1.349 . S
C811 C813 1.327 . S
C811 H834 0.950 . S
C812 C811 1.349 . S
C812 C824 1.349 . S
C813 C811 1.327 . S
C813 C829 1.429 . S
C813 H835 0.950 . S
C814 H810 0.949 . S
C814 C822 1.574 . S
C814 C830 1.368 . S
H815 C823 0.950 . S
H816 C821 0.950 . S
H817 C822 0.949 . S
H818 C824 0.950 . S
H819 C825 0.950 . S
H820 C826 0.949 . S
C821 H816 0.950 . S
C821 C823 1.327 . S
C821 C827 1.429 . S
C822 C814 1.574 . S
C822 H817 0.949 . S
C822 C828 1.368 . S
C823 C807 1.349 . S
C823 H815 0.950 . S
C823 C821 1.327 . S
C824 C812 1.349 . S
C824 H818 0.950 . S
C824 C825 1.327 . S
C825 H819 0.950 . S
C825 C824 1.327 . S
C825 C829 1.429 . S
C826 C809 1.574 . S
C826 H820 0.949 . S
C826 C830 1.368 . S
C827 C808 1.429 . S
C827 C821 1.429 . S
C827 C828 1.523 . S
C828 C809 1.368 . S
C828 C822 1.368 . S
C828 C827 1.523 . S
C829 C813 1.429 . S
C829 C825 1.429 . S
C829 C830 1.523 . S
C830 C814 1.368 . S
C830 C826 1.368 . S
C830 C829 1.523 . S
H831 C806 0.950 . S
H832 C808 0.950 . S
H833 C809 0.949 . S
H834 C811 0.950 . S
H835 C813 0.950 . S
C836 C837 1.349 . S
C836 C838 1.327 . S
C836 H861 0.950 . S
C837 C836 1.349 . S
C837 C853 1.349 . S
C838 C836 1.327 . S
C838 C857 1.429 . S
C838 H862 0.950 . S
C839 C856 1.574 . S
C839 C858 1.368 . S
C839 H863 0.949 . S
H840 C844 0.949 . S
C841 C842 1.349 . S
C841 C843 1.327 . S
C841 H864 0.950 . S
C842 C841 1.349 . S
C842 C854 1.349 . S
C843 C841 1.327 . S
C843 C859 1.429 . S
C843 H865 0.950 . S
C844 H840 0.949 . S
C844 C852 1.574 . S
C844 C860 1.368 . S
H845 C853 0.950 . S
H846 C851 0.950 . S
H847 C852 0.949 . S
H848 C854 0.950 . S
H849 C855 0.950 . S
H850 C856 0.949 . S
C851 H846 0.950 . S
C851 C853 1.327 . S
C851 C857 1.429 . S
C852 C844 1.574 . S
C852 H847 0.949 . S
C852 C858 1.368 . S
C853 C837 1.349 . S
C853 H845 0.950 . S
C853 C851 1.327 . S
C854 C842 1.349 . S
C854 H848 0.950 . S
C854 C855 1.327 . S
C855 H849 0.950 . S
C855 C854 1.327 . S
C855 C859 1.429 . S
C856 C839 1.574 . S
C856 H850 0.949 . S
C856 C860 1.368 . S
C857 C838 1.429 . S
C857 C851 1.429 . S
C857 C858 1.523 . S
C858 C839 1.368 . S
C858 C852 1.368 . S
C858 C857 1.523 . S
C859 C843 1.429 . S
C859 C855 1.429 . S
C859 C860 1.523 . S
C860 C844 1.368 . S
C860 C856 1.368 . S
C860 C859 1.523 . S
H861 C836 0.950 . S
H862 C838 0.950 . S
H863 C839 0.949 . S
H864 C841 0.950 . S
H865 C843 0.950 . S
C866 C867 1.349 . S
C866 C868 1.327 . S
C866 H891 0.950 . S
C867 C866 1.349 . S
C867 C883 1.349 . S
C868 C866 1.327 . S
C868 C887 1.429 . S
C868 H892 0.950 . S
C869 C886 1.574 . S
C869 C888 1.368 . S
C869 H893 0.949 . S
H870 C874 0.949 . S
C871 C872 1.349 . S
C871 C873 1.327 . S
C871 H894 0.950 . S
C872 C871 1.349 . S
C872 C884 1.349 . S
C873 C871 1.327 . S
C873 C889 1.429 . S
C873 H895 0.950 . S
C874 H870 0.949 . S
C874 C882 1.574 . S
C874 C890 1.368 . S
H875 C883 0.950 . S
H876 C881 0.950 . S
H877 C882 0.949 . S
H878 C884 0.950 . S
H879 C885 0.950 . S
H880 C886 0.949 . S
C881 H876 0.950 . S
C881 C883 1.327 . S
C881 C887 1.429 . S
C882 C874 1.574 . S
C882 H877 0.949 . S
C882 C888 1.368 . S
C883 C867 1.349 . S
C883 H875 0.950 . S
C883 C881 1.327 . S
C884 C872 1.349 . S
C884 H878 0.950 . S
C884 C885 1.327 . S
C885 H879 0.950 . S
C885 C884 1.327 . S
C885 C889 1.429 . S
C886 C869 1.574 . S
C886 H880 0.949 . S
C886 C890 1.368 . S
C887 C868 1.429 . S
C887 C881 1.429 . S
C887 C888 1.523 . S
C888 C869 1.368 . S
C888 C882 1.368 . S
C888 C887 1.523 . S
C889 C873 1.429 . S
C889 C885 1.429 . S
C889 C890 1.523 . S
C890 C874 1.368 . S
C890 C886 1.368 . S
C890 C889 1.523 . S
H891 C866 0.950 . S
H892 C868 0.950 . S
H893 C869 0.949 . S
H894 C871 0.950 . S
H895 C873 0.950 . S
C896 C897 1.325 1_565 S
C896 C898 1.327 . S
C896 H921 0.974 . S
C897 C896 1.325 1_545 S
C897 C913 1.349 . S
C898 C896 1.327 . S
C898 C917 1.418 1_565 S
C898 H922 0.961 . S
C899 C916 1.574 . S
C899 C918 1.368 . S
C899 H923 0.949 . S
H900 C904 0.949 1_565 S
C901 C902 1.350 1_455 S
C901 C903 1.301 1_455 S
C901 H924 0.978 . S
C902 C901 1.350 1_655 S
C902 C914 1.349 . S
C903 C901 1.301 1_655 S
C903 C919 1.429 . S
C903 H925 0.950 . S
C904 H900 0.949 1_545 S
C904 C912 1.574 . S
C904 C920 1.368 . S
H905 C913 0.950 . S
H906 C911 0.950 . S
H907 C912 0.942 1_565 S
H908 C914 0.950 1_565 S
H909 C915 0.950 1_565 S
H910 C916 0.949 . S
C911 H906 0.950 . S
C911 C913 1.327 . S
C911 C917 1.429 . S
C912 C904 1.574 . S
C912 H907 0.942 1_545 S
C912 C918 1.376 . S
C913 C897 1.349 . S
C913 H905 0.950 . S
C913 C911 1.327 . S
C914 C902 1.349 . S
C914 H908 0.950 1_545 S
C914 C915 1.327 . S
C915 H909 0.950 1_545 S
C915 C914 1.327 . S
C915 C919 1.429 . S
C916 C899 1.574 . S
C916 H910 0.949 . S
C916 C920 1.368 . S
C917 C898 1.418 1_545 S
C917 C911 1.429 . S
C917 C918 1.523 . S
C918 C899 1.368 . S
C918 C912 1.376 . S
C918 C917 1.523 . S
C919 C903 1.429 . S
C919 C915 1.429 . S
C919 C920 1.523 . S
C920 C904 1.368 . S
C920 C916 1.368 . S
C920 C919 1.523 . S
H921 C896 0.974 . S
H922 C898 0.961 . S
H923 C899 0.949 . S
H924 C901 0.978 . S
H925 C903 0.950 . S
C926 C927 1.349 . S
C926 C928 1.327 . S
C926 H951 0.950 . S
C927 C926 1.349 . S
C927 C943 1.349 . S
C928 C926 1.327 . S
C928 C947 1.429 . S
C928 H952 0.950 . S
C929 C946 1.574 . S
C929 C948 1.368 . S
C929 H953 0.949 . S
H930 C934 0.949 . S
C931 C932 1.349 . S
C931 C933 1.327 . S
C931 H954 0.950 . S
C932 C931 1.349 . S
C932 C944 1.349 . S
C933 C931 1.327 . S
C933 C949 1.429 . S
C933 H955 0.950 . S
C934 H930 0.949 . S
C934 C942 1.574 . S
C934 C950 1.368 . S
H935 C943 0.950 . S
H936 C941 0.950 . S
H937 C942 0.949 . S
H938 C944 0.950 . S
H939 C945 0.950 . S
H940 C946 0.949 . S
C941 H936 0.950 . S
C941 C943 1.327 . S
C941 C947 1.429 . S
C942 C934 1.574 . S
C942 H937 0.949 . S
C942 C948 1.368 . S
C943 C927 1.349 . S
C943 H935 0.950 . S
C943 C941 1.327 . S
C944 C932 1.349 . S
C944 H938 0.950 . S
C944 C945 1.327 . S
C945 H939 0.950 . S
C945 C944 1.327 . S
C945 C949 1.429 . S
C946 C929 1.574 . S
C946 H940 0.949 . S
C946 C950 1.368 . S
C947 C928 1.429 . S
C947 C941 1.429 . S
C947 C948 1.523 . S
C948 C929 1.368 . S
C948 C942 1.368 . S
C948 C947 1.523 . S
C949 C933 1.429 . S
C949 C945 1.429 . S
C949 C950 1.523 . S
C950 C934 1.368 . S
C950 C946 1.368 . S
C950 C949 1.523 . S
H951 C926 0.950 . S
H952 C928 0.950 . S
H953 C929 0.949 . S
H954 C931 0.950 . S
H955 C933 0.950 . S
C956 C957 1.349 1_545 S
C956 C958 1.327 . S
C956 H981 0.950 . S
C957 C956 1.349 1_565 S
C957 C973 1.349 . S
C958 C956 1.327 . S
C958 C977 1.429 1_545 S
C958 H982 0.950 . S
C959 C976 1.574 . S
C959 C978 1.368 . S
C959 H983 0.949 . S
H960 C964 0.949 . S
C961 C962 1.349 1_565 S
C961 C963 1.327 . S
C961 H984 0.950 . S
C962 C961 1.349 1_545 S
C962 C974 1.349 . S
C963 C961 1.327 . S
C963 C979 1.400 1_565 S
C963 H985 0.950 . S
C964 H960 0.949 . S
C964 C972 1.574 . S
C964 C980 1.365 . S
H965 C973 0.950 . S
H966 C971 0.950 . S
H967 C972 0.949 . S
H968 C974 0.950 . S
H969 C975 0.950 . S
H970 C976 0.949 . S
C971 H966 0.950 . S
C971 C973 1.327 . S
C971 C977 1.429 . S
C972 C964 1.574 . S
C972 H967 0.949 . S
C972 C978 1.368 1_545 S
C973 C957 1.349 . S
C973 H965 0.950 . S
C973 C971 1.327 . S
C974 C962 1.349 . S
C974 H968 0.950 . S
C974 C975 1.327 . S
C975 H969 0.950 . S
C975 C974 1.327 . S
C975 C979 1.467 . S
C976 C959 1.574 . S
C976 H970 0.949 . S
C976 C980 1.372 1_565 S
C977 C958 1.429 1_565 S
C977 C971 1.429 . S
C977 C978 1.523 . S
C978 C959 1.368 . S
C978 C972 1.368 1_565 S
C978 C977 1.523 . S
C979 C963 1.400 1_545 S
C979 C975 1.467 . S
C979 C980 1.515 . S
C980 C964 1.365 . S
C980 C976 1.372 1_545 S
C980 C979 1.515 . S
H981 C956 0.950 . S
H982 C958 0.950 . S
H983 C959 0.949 . S
H984 C961 0.950 . S
H985 C963 0.950 . S
C986 C987 1.349 . S
C986 C988 1.327 . S
C986 H1011 0.950 . S
C987 C986 1.349 . S
C987 C1003 1.349 . S
C988 C986 1.327 . S
C988 C1007 1.429 . S
C988 H1012 0.950 . S
C989 C1006 1.574 . S
C989 C1008 1.368 . S
C989 H1013 0.949 . S
H990 C994 0.949 . S
C991 C992 1.349 . S
C991 C993 1.327 . S
C991 H1014 0.950 . S
C992 C991 1.349 . S
C992 C1004 1.349 . S
C993 C991 1.327 . S
C993 C1009 1.429 . S
C993 H1015 0.950 . S
C994 H990 0.949 . S
C994 C1002 1.574 . S
C994 C1010 1.368 . S
H995 C1003 0.950 . S
H996 C1001 0.950 . S
H997 C1002 0.949 . S
H998 C1004 0.950 . S
H999 C1005 0.950 . S
H1000 C1006 0.949 . S
C1001 H996 0.950 . S
C1001 C1003 1.327 . S
C1001 C1007 1.429 . S
C1002 C994 1.574 . S
C1002 H997 0.949 . S
C1002 C1008 1.368 . S
C1003 C987 1.349 . S
C1003 H995 0.950 . S
C1003 C1001 1.327 . S
C1004 C992 1.349 . S
C1004 H998 0.950 . S
C1004 C1005 1.327 . S
C1005 H999 0.950 . S
C1005 C1004 1.327 . S
C1005 C1009 1.429 . S
C1006 C989 1.574 . S
C1006 H1000 0.949 . S
C1006 C1010 1.368 . S
C1007 C988 1.429 . S
C1007 C1001 1.429 . S
C1007 C1008 1.523 . S
C1008 C989 1.368 . S
C1008 C1002 1.368 . S
C1008 C1007 1.523 . S
C1009 C993 1.429 . S
C1009 C1005 1.429 . S
C1009 C1010 1.523 . S
C1010 C994 1.368 . S
C1010 C1006 1.368 . S
C1010 C1009 1.523 . S
H1011 C986 0.950 . S
H1012 C988 0.950 . S
H1013 C989 0.949 . S
H1014 C991 0.950 . S
H1015 C993 0.950 . S
C1016 C1017 1.349 . S
C1016 C1018 1.331 . S
C1016 H1041 0.950 1_545 S
C1017 C1016 1.349 . S
C1017 C1033 1.349 . S
C1018 C1016 1.331 . S
C1018 C1037 1.439 . S
C1018 H1042 0.936 1_545 S
C1019 C1036 1.574 . S
C1019 C1038 1.368 . S
C1019 H1043 0.949 . S
H1020 C1024 0.949 . S
C1021 C1022 1.349 . S
C1021 C1023 1.327 . S
C1021 H1044 0.950 . S
C1022 C1021 1.349 . S
C1022 C1034 1.349 1_545 S
C1023 C1021 1.327 . S
C1023 C1039 1.429 . S
C1023 H1045 0.950 . S
C1024 H1020 0.949 . S
C1024 C1032 1.574 . S
C1024 C1040 1.368 1_565 S
H1025 C1033 0.950 . S
H1026 C1031 0.950 . S
H1027 C1032 0.949 . S
H1028 C1034 0.973 . S
H1029 C1035 0.950 . S
H1030 C1036 0.949 . S
C1031 H1026 0.950 . S
C1031 C1033 1.327 . S
C1031 C1037 1.429 . S
C1032 C1024 1.574 . S
C1032 H1027 0.949 . S
C1032 C1038 1.368 1_565 S
C1033 C1017 1.349 . S
C1033 H1025 0.950 . S
C1033 C1031 1.327 . S
C1034 C1022 1.349 1_565 S
C1034 H1028 0.973 . S
C1034 C1035 1.327 . S
C1035 H1029 0.950 . S
C1035 C1034 1.327 . S
C1035 C1039 1.429 1_565 S
C1036 C1019 1.574 . S
C1036 H1030 0.949 . S
C1036 C1040 1.368 . S
C1037 C1018 1.439 . S
C1037 C1031 1.429 . S
C1037 C1038 1.523 . S
C1038 C1019 1.368 . S
C1038 C1032 1.368 1_545 S
C1038 C1037 1.523 . S
C1039 C1023 1.429 . S
C1039 C1035 1.429 1_545 S
C1039 C1040 1.523 . S
C1040 C1024 1.368 1_545 S
C1040 C1036 1.368 . S
C1040 C1039 1.523 . S
H1041 C1016 0.950 1_565 S
H1042 C1018 0.936 1_565 S
H1043 C1019 0.949 . S
H1044 C1021 0.950 . S
H1045 C1023 0.950 . S
C1046 C1047 1.349 . S
C1046 C1048 1.327 . S
C1046 H1071 0.950 . S
C1047 C1046 1.349 . S
C1047 C1063 1.349 . S
C1048 C1046 1.327 . S
C1048 C1067 1.429 . S
C1048 H1072 0.950 . S
C1049 C1066 1.574 . S
C1049 C1068 1.368 . S
C1049 H1073 0.949 . S
H1050 C1054 0.949 . S
C1051 C1052 1.349 . S
C1051 C1053 1.327 . S
C1051 H1074 0.950 . S
C1052 C1051 1.349 . S
C1052 C1064 1.349 . S
C1053 C1051 1.327 . S
C1053 C1069 1.429 . S
C1053 H1075 0.950 . S
C1054 H1050 0.949 . S
C1054 C1062 1.574 . S
C1054 C1070 1.368 . S
H1055 C1063 0.950 . S
H1056 C1061 0.950 . S
H1057 C1062 0.949 . S
H1058 C1064 0.950 . S
H1059 C1065 0.950 . S
H1060 C1066 0.949 . S
C1061 H1056 0.950 . S
C1061 C1063 1.327 . S
C1061 C1067 1.429 . S
C1062 C1054 1.574 . S
C1062 H1057 0.949 . S
C1062 C1068 1.368 . S
C1063 C1047 1.349 . S
C1063 H1055 0.950 . S
C1063 C1061 1.327 . S
C1064 C1052 1.349 . S
C1064 H1058 0.950 . S
C1064 C1065 1.327 . S
C1065 H1059 0.950 . S
C1065 C1064 1.327 . S
C1065 C1069 1.429 . S
C1066 C1049 1.574 . S
C1066 H1060 0.949 . S
C1066 C1070 1.368 . S
C1067 C1048 1.429 . S
C1067 C1061 1.429 . S
C1067 C1068 1.523 . S
C1068 C1049 1.368 . S
C1068 C1062 1.368 . S
C1068 C1067 1.523 . S
C1069 C1053 1.429 . S
C1069 C1065 1.429 . S
C1069 C1070 1.523 . S
C1070 C1054 1.368 . S
C1070 C1066 1.368 . S
C1070 C1069 1.523 . S
H1071 C1046 0.950 . S
H1072 C1048 0.950 . S
H1073 C1049 0.949 . S
H1074 C1051 0.950 . S
H1075 C1053 0.950 . S
C1076 C1077 1.349 . S
C1076 C1078 1.327 . S
C1076 H1101 0.950 . S
C1077 C1076 1.349 . S
C1077 C1093 1.349 1_545 S
C1078 C1076 1.327 . S
C1078 C1097 1.429 . S
C1078 H1102 0.950 . S
C1079 C1096 1.574 1_565 S
C1079 C1098 1.368 1_565 S
C1079 H1103 0.949 . S
H1080 C1084 0.949 . S
C1081 C1082 1.349 . S
C1081 C1083 1.327 . S
C1081 H1104 0.950 . S
C1082 C1081 1.349 . S
C1082 C1094 1.349 . S
C1083 C1081 1.327 . S
C1083 C1099 1.429 . S
C1083 H1105 0.950 1_545 S
C1084 H1080 0.949 . S
C1084 C1092 1.574 . S
C1084 C1100 1.368 . S
H1085 C1093 0.950 . S
H1086 C1091 0.950 . S
H1087 C1092 0.949 . S
H1088 C1094 0.950 . S
H1089 C1095 0.950 . S
H1090 C1096 0.949 1_565 S
C1091 H1086 0.950 . S
C1091 C1093 1.327 . S
C1091 C1097 1.429 1_565 S
C1092 C1084 1.574 . S
C1092 H1087 0.949 . S
C1092 C1098 1.368 . S
C1093 C1077 1.349 1_565 S
C1093 H1085 0.950 . S
C1093 C1091 1.327 . S
C1094 C1082 1.349 . S
C1094 H1088 0.950 . S
C1094 C1095 1.327 . S
C1095 H1089 0.950 . S
C1095 C1094 1.327 . S
C1095 C1099 1.429 . S
C1096 C1079 1.574 1_545 S
C1096 H1090 0.949 1_545 S
C1096 C1100 1.368 . S
C1097 C1078 1.429 . S
C1097 C1091 1.429 1_545 S
C1097 C1098 1.523 . S
C1098 C1079 1.368 1_545 S
C1098 C1092 1.368 . S
C1098 C1097 1.523 . S
C1099 C1083 1.429 . S
C1099 C1095 1.429 . S
C1099 C1100 1.523 . S
C1100 C1084 1.368 . S
C1100 C1096 1.368 . S
C1100 C1099 1.523 . S
H1101 C1076 0.950 . S
H1102 C1078 0.950 . S
H1103 C1079 0.949 . S
H1104 C1081 0.950 . S
H1105 C1083 0.950 1_565 S
C1106 C1107 1.349 . S
C1106 C1108 1.327 . S
C1106 H1131 0.950 . S
C1107 C1106 1.349 . S
C1107 C1123 1.349 . S
C1108 C1106 1.327 . S
C1108 C1127 1.429 . S
C1108 H1132 0.950 . S
C1109 C1126 1.574 . S
C1109 C1128 1.368 . S
C1109 H1133 0.949 . S
H1110 C1114 0.949 . S
C1111 C1112 1.349 . S
C1111 C1113 1.327 . S
C1111 H1134 0.950 . S
C1112 C1111 1.349 . S
C1112 C1124 1.349 . S
C1113 C1111 1.327 . S
C1113 C1129 1.429 . S
C1113 H1135 0.950 . S
C1114 H1110 0.949 . S
C1114 C1122 1.574 . S
C1114 C1130 1.368 . S
H1115 C1123 0.950 . S
H1116 C1121 0.950 . S
H1117 C1122 0.949 . S
H1118 C1124 0.950 . S
H1119 C1125 0.950 . S
H1120 C1126 0.949 . S
C1121 H1116 0.950 . S
C1121 C1123 1.327 . S
C1121 C1127 1.429 . S
C1122 C1114 1.574 . S
C1122 H1117 0.949 . S
C1122 C1128 1.368 . S
C1123 C1107 1.349 . S
C1123 H1115 0.950 . S
C1123 C1121 1.327 . S
C1124 C1112 1.349 . S
C1124 H1118 0.950 . S
C1124 C1125 1.327 . S
C1125 H1119 0.950 . S
C1125 C1124 1.327 . S
C1125 C1129 1.429 . S
C1126 C1109 1.574 . S
C1126 H1120 0.949 . S
C1126 C1130 1.368 . S
C1127 C1108 1.429 . S
C1127 C1121 1.429 . S
C1127 C1128 1.523 . S
C1128 C1109 1.368 . S
C1128 C1122 1.368 . S
C1128 C1127 1.523 . S
C1129 C1113 1.429 . S
C1129 C1125 1.429 . S
C1129 C1130 1.523 . S
C1130 C1114 1.368 . S
C1130 C1126 1.368 . S
C1130 C1129 1.523 . S
H1131 C1106 0.950 . S
H1132 C1108 0.950 . S
H1133 C1109 0.949 . S
H1134 C1111 0.950 . S
H1135 C1113 0.950 . S
C1136 C1137 1.349 . S
C1136 C1138 1.327 . S
C1136 H1161 0.950 . S
C1137 C1136 1.349 . S
C1137 C1153 1.349 . S
C1138 C1136 1.327 . S
C1138 C1157 1.429 . S
C1138 H1162 0.950 . S
C1139 C1156 1.574 . S
C1139 C1158 1.368 . S
C1139 H1163 0.949 1_554 S
H1140 C1144 0.949 . S
C1141 C1142 1.349 . S
C1141 C1143 1.327 . S
C1141 H1164 0.950 . S
C1142 C1141 1.349 . S
C1142 C1154 1.349 . S
C1143 C1141 1.327 . S
C1143 C1159 1.429 . S
C1143 H1165 0.950 . S
C1144 H1140 0.949 . S
C1144 C1152 1.574 . S
C1144 C1160 1.368 . S
H1145 C1153 0.950 1_556 S
H1146 C1151 0.950 1_556 S
H1147 C1152 0.949 . S
H1148 C1154 0.950 . S
H1149 C1155 0.950 . S
H1150 C1156 0.949 . S
C1151 H1146 0.950 1_554 S
C1151 C1153 1.327 . S
C1151 C1157 1.429 . S
C1152 C1144 1.574 . S
C1152 H1147 0.949 . S
C1152 C1158 1.368 . S
C1153 C1137 1.349 . S
C1153 H1145 0.950 1_554 S
C1153 C1151 1.327 . S
C1154 C1142 1.349 . S
C1154 H1148 0.950 . S
C1154 C1155 1.327 . S
C1155 H1149 0.950 . S
C1155 C1154 1.327 . S
C1155 C1159 1.429 . S
C1156 C1139 1.574 . S
C1156 H1150 0.949 . S
C1156 C1160 1.368 . S
C1157 C1138 1.429 . S
C1157 C1151 1.429 . S
C1157 C1158 1.523 . S
C1158 C1139 1.368 . S
C1158 C1152 1.368 . S
C1158 C1157 1.523 . S
C1159 C1143 1.429 . S
C1159 C1155 1.429 . S
C1159 C1160 1.523 . S
C1160 C1144 1.368 . S
C1160 C1156 1.368 . S
C1160 C1159 1.523 . S
H1161 C1136 0.950 . S
H1162 C1138 0.950 . S
H1163 C1139 0.949 1_556 S
H1164 C1141 0.950 . S
H1165 C1143 0.950 . S
C1166 C1167 1.349 . S
C1166 C1168 1.327 . S
C1166 H1191 0.950 . S
C1167 C1166 1.349 . S
C1167 C1183 1.349 1_556 S
C1168 C1166 1.327 . S
C1168 C1187 1.418 1_556 S
C1168 H1192 0.950 . S
C1169 C1186 1.574 . S
C1169 C1188 1.368 . S
C1169 H1193 0.949 . S
H1170 C1174 0.949 . S
C1171 C1172 1.349 . S
C1171 C1173 1.327 . S
C1171 H1194 0.950 . S
C1172 C1171 1.349 . S
C1172 C1184 1.349 . S
C1173 C1171 1.327 . S
C1173 C1189 1.429 . S
C1173 H1195 0.950 . S
C1174 H1170 0.949 . S
C1174 C1182 1.574 . S
C1174 C1190 1.368 1_556 S
H1175 C1183 0.950 . S
H1176 C1181 0.950 . S
H1177 C1182 0.949 . S
H1178 C1184 0.950 1_556 S
H1179 C1185 0.936 1_556 S
H1180 C1186 0.949 . S
C1181 H1176 0.950 . S
C1181 C1183 1.327 . S
C1181 C1187 1.434 . S
C1182 C1174 1.574 . S
C1182 H1177 0.949 . S
C1182 C1188 1.368 1_556 S
C1183 C1167 1.349 1_554 S
C1183 H1175 0.950 . S
C1183 C1181 1.327 . S
C1184 C1172 1.349 . S
C1184 H1178 0.950 1_554 S
C1184 C1185 1.334 . S
C1185 H1179 0.936 1_554 S
C1185 C1184 1.334 . S
C1185 C1189 1.436 . S
C1186 C1169 1.574 . S
C1186 H1180 0.949 . S
C1186 C1190 1.368 . S
C1187 C1168 1.418 1_554 S
C1187 C1181 1.434 . S
C1187 C1188 1.528 . S
C1188 C1169 1.368 . S
C1188 C1182 1.368 1_554 S
C1188 C1187 1.528 . S
C1189 C1173 1.429 . S
C1189 C1185 1.436 . S
C1189 C1190 1.523 . S
C1190 C1174 1.368 1_554 S
C1190 C1186 1.368 . S
C1190 C1189 1.523 . S
H1191 C1166 0.950 . S
H1192 C1168 0.950 . S
H1193 C1169 0.949 . S
H1194 C1171 0.950 . S
H1195 C1173 0.950 . S
C1196 C1197 1.349 . S
C1196 C1198 1.327 . S
C1196 H1221 0.950 . S
C1197 C1196 1.349 . S
C1197 C1213 1.349 . S
C1198 C1196 1.327 . S
C1198 C1217 1.429 . S
C1198 H1222 0.950 . S
C1199 C1216 1.574 . S
C1199 C1218 1.368 . S
C1199 H1223 0.949 . S
H1200 C1204 0.949 . S
C1201 C1202 1.349 . S
C1201 C1203 1.327 . S
C1201 H1224 0.950 . S
C1202 C1201 1.349 . S
C1202 C1214 1.349 . S
C1203 C1201 1.327 . S
C1203 C1219 1.429 . S
C1203 H1225 0.950 . S
C1204 H1200 0.949 . S
C1204 C1212 1.574 . S
C1204 C1220 1.368 . S
H1205 C1213 0.950 . S
H1206 C1211 0.950 . S
H1207 C1212 0.949 . S
H1208 C1214 0.950 . S
H1209 C1215 0.950 . S
H1210 C1216 0.949 . S
C1211 H1206 0.950 . S
C1211 C1213 1.327 . S
C1211 C1217 1.429 . S
C1212 C1204 1.574 . S
C1212 H1207 0.949 . S
C1212 C1218 1.368 . S
C1213 C1197 1.349 . S
C1213 H1205 0.950 . S
C1213 C1211 1.327 . S
C1214 C1202 1.349 . S
C1214 H1208 0.950 . S
C1214 C1215 1.327 . S
C1215 H1209 0.950 . S
C1215 C1214 1.327 . S
C1215 C1219 1.429 . S
C1216 C1199 1.574 . S
C1216 H1210 0.949 . S
C1216 C1220 1.368 . S
C1217 C1198 1.429 . S
C1217 C1211 1.429 . S
C1217 C1218 1.523 . S
C1218 C1199 1.368 . S
C1218 C1212 1.368 . S
C1218 C1217 1.523 . S
C1219 C1203 1.429 . S
C1219 C1215 1.429 . S
C1219 C1220 1.523 . S
C1220 C1204 1.368 . S
C1220 C1216 1.368 . S
C1220 C1219 1.523 . S
H1221 C1196 0.950 . S
H1222 C1198 0.950 . S
H1223 C1199 0.949 . S
H1224 C1201 0.950 . S
H1225 C1203 0.950 . S
C1226 C1227 1.349 . S
C1226 C1228 1.327 . S
C1226 H1251 0.950 . S
C1227 C1226 1.349 . S
C1227 C1243 1.349 . S
C1228 C1226 1.327 . S
C1228 C1247 1.429 . S
C1228 H1252 0.950 . S
C1229 C1246 1.574 . S
C1229 C1248 1.368 . S
C1229 H1253 0.949 . S
H1230 C1234 0.949 . S
C1231 C1232 1.349 . S
C1231 C1233 1.327 . S
C1231 H1254 0.950 . S
C1232 C1231 1.349 . S
C1232 C1244 1.349 . S
C1233 C1231 1.327 . S
C1233 C1249 1.429 . S
C1233 H1255 0.950 . S
C1234 H1230 0.949 . S
C1234 C1242 1.574 . S
C1234 C1250 1.368 . S
H1235 C1243 0.950 . S
H1236 C1241 0.950 . S
H1237 C1242 0.949 . S
H1238 C1244 0.950 . S
H1239 C1245 0.950 . S
H1240 C1246 0.949 . S
C1241 H1236 0.950 . S
C1241 C1243 1.327 . S
C1241 C1247 1.429 . S
C1242 C1234 1.574 . S
C1242 H1237 0.949 . S
C1242 C1248 1.368 . S
C1243 C1227 1.349 . S
C1243 H1235 0.950 . S
C1243 C1241 1.327 . S
C1244 C1232 1.349 . S
C1244 H1238 0.950 . S
C1244 C1245 1.327 . S
C1245 H1239 0.950 . S
C1245 C1244 1.327 . S
C1245 C1249 1.429 . S
C1246 C1229 1.574 . S
C1246 H1240 0.949 . S
C1246 C1250 1.368 . S
C1247 C1228 1.429 . S
C1247 C1241 1.429 . S
C1247 C1248 1.523 . S
C1248 C1229 1.368 . S
C1248 C1242 1.368 . S
C1248 C1247 1.523 . S
C1249 C1233 1.429 . S
C1249 C1245 1.429 . S
C1249 C1250 1.523 . S
C1250 C1234 1.368 . S
C1250 C1246 1.368 . S
C1250 C1249 1.523 . S
H1251 C1226 0.950 . S
H1252 C1228 0.950 . S
H1253 C1229 0.949 . S
H1254 C1231 0.950 . S
H1255 C1233 0.950 . S
C1256 C1257 1.349 . S
C1256 C1258 1.327 . S
C1256 H1281 0.950 . S
C1257 C1256 1.349 . S
C1257 C1273 1.349 . S
C1258 C1256 1.327 . S
C1258 C1277 1.429 . S
C1258 H1282 0.950 . S
C1259 C1276 1.574 . S
C1259 C1278 1.368 . S
C1259 H1283 0.949 . S
H1260 C1264 0.949 . S
C1261 C1262 1.349 . S
C1261 C1263 1.327 . S
C1261 H1284 0.950 . S
C1262 C1261 1.349 . S
C1262 C1274 1.349 . S
C1263 C1261 1.327 . S
C1263 C1279 1.429 . S
C1263 H1285 0.950 . S
C1264 H1260 0.949 . S
C1264 C1272 1.574 . S
C1264 C1280 1.368 . S
H1265 C1273 0.950 . S
H1266 C1271 0.950 . S
H1267 C1272 0.949 . S
H1268 C1274 0.950 . S
H1269 C1275 0.950 . S
H1270 C1276 0.949 . S
C1271 H1266 0.950 . S
C1271 C1273 1.327 . S
C1271 C1277 1.429 . S
C1272 C1264 1.574 . S
C1272 H1267 0.949 . S
C1272 C1278 1.368 . S
C1273 C1257 1.349 . S
C1273 H1265 0.950 . S
C1273 C1271 1.327 . S
C1274 C1262 1.349 . S
C1274 H1268 0.950 . S
C1274 C1275 1.327 . S
C1275 H1269 0.950 . S
C1275 C1274 1.327 . S
C1275 C1279 1.429 . S
C1276 C1259 1.574 . S
C1276 H1270 0.949 . S
C1276 C1280 1.368 . S
C1277 C1258 1.429 . S
C1277 C1271 1.429 . S
C1277 C1278 1.523 . S
C1278 C1259 1.368 . S
C1278 C1272 1.368 . S
C1278 C1277 1.523 . S
C1279 C1263 1.429 . S
C1279 C1275 1.429 . S
C1279 C1280 1.523 . S
C1280 C1264 1.368 . S
C1280 C1276 1.368 . S
C1280 C1279 1.523 . S
H1281 C1256 0.950 . S
H1282 C1258 0.950 . S
H1283 C1259 0.949 . S
H1284 C1261 0.950 . S
H1285 C1263 0.950 . S
C1286 C1287 1.349 . S
C1286 C1288 1.327 . S
C1286 H1311 0.950 . S
C1287 C1286 1.349 . S
C1287 C1303 1.349 . S
C1288 C1286 1.327 . S
C1288 C1307 1.429 . S
C1288 H1312 0.950 . S
C1289 C1306 1.574 . S
C1289 C1308 1.368 . S
C1289 H1313 0.949 . S
H1290 C1294 0.949 . S
C1291 C1292 1.349 . S
C1291 C1293 1.327 . S
C1291 H1314 0.950 . S
C1292 C1291 1.349 . S
C1292 C1304 1.349 . S
C1293 C1291 1.327 . S
C1293 C1309 1.429 . S
C1293 H1315 0.950 . S
C1294 H1290 0.949 . S
C1294 C1302 1.574 . S
C1294 C1310 1.368 . S
H1295 C1303 0.950 . S
H1296 C1301 0.950 . S
H1297 C1302 0.949 . S
H1298 C1304 0.950 . S
H1299 C1305 0.950 . S
H1300 C1306 0.949 . S
C1301 H1296 0.950 . S
C1301 C1303 1.327 . S
C1301 C1307 1.429 . S
C1302 C1294 1.574 . S
C1302 H1297 0.949 . S
C1302 C1308 1.368 . S
C1303 C1287 1.349 . S
C1303 H1295 0.950 . S
C1303 C1301 1.327 . S
C1304 C1292 1.349 . S
C1304 H1298 0.950 . S
C1304 C1305 1.327 . S
C1305 H1299 0.950 . S
C1305 C1304 1.327 . S
C1305 C1309 1.429 . S
C1306 C1289 1.574 . S
C1306 H1300 0.949 . S
C1306 C1310 1.368 . S
C1307 C1288 1.429 . S
C1307 C1301 1.429 . S
C1307 C1308 1.523 . S
C1308 C1289 1.368 . S
C1308 C1302 1.368 . S
C1308 C1307 1.523 . S
C1309 C1293 1.429 . S
C1309 C1305 1.429 . S
C1309 C1310 1.523 . S
C1310 C1294 1.368 . S
C1310 C1306 1.368 . S
C1310 C1309 1.523 . S
H1311 C1286 0.950 . S
H1312 C1288 0.950 . S
H1313 C1289 0.949 . S
H1314 C1291 0.950 . S
H1315 C1293 0.950 . S
C1316 C1317 1.349 . S
C1316 C1318 1.327 . S
C1316 H1341 0.950 . S
C1317 C1316 1.349 . S
C1317 C1333 1.349 . S
C1318 C1316 1.327 . S
C1318 C1337 1.429 . S
C1318 H1342 0.950 . S
C1319 C1336 1.574 . S
C1319 C1338 1.368 . S
C1319 H1343 0.949 . S
H1320 C1324 0.949 . S
C1321 C1322 1.349 . S
C1321 C1323 1.327 . S
C1321 H1344 0.950 . S
C1322 C1321 1.349 . S
C1322 C1334 1.349 . S
C1323 C1321 1.327 . S
C1323 C1339 1.429 . S
C1323 H1345 0.950 . S
C1324 H1320 0.949 . S
C1324 C1332 1.574 . S
C1324 C1340 1.368 . S
H1325 C1333 0.950 . S
H1326 C1331 0.950 . S
H1327 C1332 0.949 . S
H1328 C1334 0.950 . S
H1329 C1335 0.950 . S
H1330 C1336 0.949 . S
C1331 H1326 0.950 . S
C1331 C1333 1.327 . S
C1331 C1337 1.429 . S
C1332 C1324 1.574 . S
C1332 H1327 0.949 . S
C1332 C1338 1.368 . S
C1333 C1317 1.349 . S
C1333 H1325 0.950 . S
C1333 C1331 1.327 . S
C1334 C1322 1.349 . S
C1334 H1328 0.950 . S
C1334 C1335 1.327 . S
C1335 H1329 0.950 . S
C1335 C1334 1.327 . S
C1335 C1339 1.429 . S
C1336 C1319 1.574 . S
C1336 H1330 0.949 . S
C1336 C1340 1.368 . S
C1337 C1318 1.429 . S
C1337 C1331 1.429 . S
C1337 C1338 1.523 . S
C1338 C1319 1.368 . S
C1338 C1332 1.368 . S
C1338 C1337 1.523 . S
C1339 C1323 1.429 . S
C1339 C1335 1.429 . S
C1339 C1340 1.523 . S
C1340 C1324 1.368 . S
C1340 C1336 1.368 . S
C1340 C1339 1.523 . S
H1341 C1316 0.950 . S
H1342 C1318 0.950 . S
H1343 C1319 0.949 . S
H1344 C1321 0.950 . S
H1345 C1323 0.950 . S
C1346 C1347 1.349 . S
C1346 C1348 1.327 . S
C1346 H1371 0.950 . S
C1347 C1346 1.349 . S
C1347 C1363 1.349 . S
C1348 C1346 1.327 . S
C1348 C1367 1.429 . S
C1348 H1372 0.950 . S
C1349 C1366 1.574 . S
C1349 C1368 1.368 . S
C1349 H1373 0.949 . S
H1350 C1354 0.949 . S
C1351 C1352 1.349 . S
C1351 C1353 1.327 . S
C1351 H1374 0.950 . S
C1352 C1351 1.349 . S
C1352 C1364 1.349 . S
C1353 C1351 1.327 . S
C1353 C1369 1.429 . S
C1353 H1375 0.950 . S
C1354 H1350 0.949 . S
C1354 C1362 1.574 . S
C1354 C1370 1.368 . S
H1355 C1363 0.950 . S
H1356 C1361 0.950 . S
H1357 C1362 0.949 . S
H1358 C1364 0.950 . S
H1359 C1365 0.950 . S
H1360 C1366 0.949 . S
C1361 H1356 0.950 . S
C1361 C1363 1.327 . S
C1361 C1367 1.429 . S
C1362 C1354 1.574 . S
C1362 H1357 0.949 . S
C1362 C1368 1.368 . S
C1363 C1347 1.349 . S
C1363 H1355 0.950 . S
C1363 C1361 1.327 . S
C1364 C1352 1.349 . S
C1364 H1358 0.950 . S
C1364 C1365 1.327 . S
C1365 H1359 0.950 . S
C1365 C1364 1.327 . S
C1365 C1369 1.429 . S
C1366 C1349 1.574 . S
C1366 H1360 0.949 . S
C1366 C1370 1.368 . S
C1367 C1348 1.429 . S
C1367 C1361 1.429 . S
C1367 C1368 1.523 . S
C1368 C1349 1.368 . S
C1368 C1362 1.368 . S
C1368 C1367 1.523 . S
C1369 C1353 1.429 . S
C1369 C1365 1.429 . S
C1369 C1370 1.523 . S
C1370 C1354 1.368 . S
C1370 C1366 1.368 . S
C1370 C1369 1.523 . S
H1371 C1346 0.950 . S
H1372 C1348 0.950 . S
H1373 C1349 0.949 . S
H1374 C1351 0.950 . S
H1375 C1353 0.950 . S
C1376 C1377 1.349 . S
C1376 C1378 1.327 . S
C1376 H1401 0.950 . S
C1377 C1376 1.349 . S
C1377 C1393 1.349 . S
C1378 C1376 1.327 . S
C1378 C1397 1.429 . S
C1378 H1402 0.950 . S
C1379 C1396 1.574 . S
C1379 C1398 1.368 . S
C1379 H1403 0.949 1_455 S
H1380 C1384 0.949 . S
C1381 C1382 1.325 1_655 S
C1381 C1383 1.319 1_655 S
C1381 H1404 0.982 . S
C1382 C1381 1.325 1_455 S
C1382 C1394 1.349 . S
C1383 C1381 1.319 1_455 S
C1383 C1399 1.442 . S
C1383 H1405 0.939 1_455 S
C1384 H1380 0.949 . S
C1384 C1392 1.574 . S
C1384 C1400 1.368 . S
H1385 C1393 0.950 . S
H1386 C1391 0.950 1_655 S
H1387 C1392 0.949 . S
H1388 C1394 0.950 . S
H1389 C1395 0.950 . S
H1390 C1396 0.949 1_655 S
C1391 H1386 0.950 1_455 S
C1391 C1393 1.327 . S
C1391 C1397 1.429 . S
C1392 C1384 1.574 . S
C1392 H1387 0.949 . S
C1392 C1398 1.368 . S
C1393 C1377 1.349 . S
C1393 H1385 0.950 . S
C1393 C1391 1.327 . S
C1394 C1382 1.349 . S
C1394 H1388 0.950 . S
C1394 C1395 1.327 . S
C1395 H1389 0.950 . S
C1395 C1394 1.327 . S
C1395 C1399 1.429 . S
C1396 C1379 1.574 . S
C1396 H1390 0.949 1_455 S
C1396 C1400 1.368 . S
C1397 C1378 1.429 . S
C1397 C1391 1.429 . S
C1397 C1398 1.523 . S
C1398 C1379 1.368 . S
C1398 C1392 1.368 . S
C1398 C1397 1.523 . S
C1399 C1383 1.442 . S
C1399 C1395 1.429 . S
C1399 C1400 1.523 . S
C1400 C1384 1.368 . S
C1400 C1396 1.368 . S
C1400 C1399 1.523 . S
H1401 C1376 0.950 . S
H1402 C1378 0.950 . S
H1403 C1379 0.949 1_655 S
H1404 C1381 0.982 . S
H1405 C1383 0.939 1_655 S
C1406 C1407 1.349 . S
C1406 C1408 1.327 . S
C1406 H1431 0.950 . S
C1407 C1406 1.349 . S
C1407 C1423 1.349 . S
C1408 C1406 1.327 . S
C1408 C1427 1.429 . S
C1408 H1432 0.950 . S
C1409 C1426 1.574 . S
C1409 C1428 1.368 . S
C1409 H1433 0.949 . S
H1410 C1414 0.949 . S
C1411 C1412 1.349 . S
C1411 C1413 1.327 . S
C1411 H1434 0.950 . S
C1412 C1411 1.349 . S
C1412 C1424 1.349 . S
C1413 C1411 1.327 . S
C1413 C1429 1.429 . S
C1413 H1435 0.950 . S
C1414 H1410 0.949 . S
C1414 C1422 1.574 . S
C1414 C1430 1.368 . S
H1415 C1423 0.950 . S
H1416 C1421 0.950 . S
H1417 C1422 0.949 . S
H1418 C1424 0.950 . S
H1419 C1425 0.950 . S
H1420 C1426 0.949 . S
C1421 H1416 0.950 . S
C1421 C1423 1.327 . S
C1421 C1427 1.429 . S
C1422 C1414 1.574 . S
C1422 H1417 0.949 . S
C1422 C1428 1.368 . S
C1423 C1407 1.349 . S
C1423 H1415 0.950 . S
C1423 C1421 1.327 . S
C1424 C1412 1.349 . S
C1424 H1418 0.950 . S
C1424 C1425 1.327 . S
C1425 H1419 0.950 . S
C1425 C1424 1.327 . S
C1425 C1429 1.429 . S
C1426 C1409 1.574 . S
C1426 H1420 0.949 . S
C1426 C1430 1.368 . S
C1427 C1408 1.429 . S
C1427 C1421 1.429 . S
C1427 C1428 1.523 . S
C1428 C1409 1.368 . S
C1428 C1422 1.368 . S
C1428 C1427 1.523 . S
C1429 C1413 1.429 . S
C1429 C1425 1.429 . S
C1429 C1430 1.523 . S
C1430 C1414 1.368 . S
C1430 C1426 1.368 . S
C1430 C1429 1.523 . S
H1431 C1406 0.950 . S
H1432 C1408 0.950 . S
H1433 C1409 0.949 . S
H1434 C1411 0.950 . S
H1435 C1413 0.950 . S
C1436 C1437 1.349 . S
C1436 C1438 1.327 . S
C1436 H1461 0.950 . S
C1437 C1436 1.349 . S
C1437 C1453 1.349 . S
C1438 C1436 1.327 . S
C1438 C1457 1.429 . S
C1438 H1462 0.950 . S
C1439 C1456 1.574 . S
C1439 C1458 1.368 . S
C1439 H1463 0.949 . S
H1440 C1444 0.949 . S
C1441 C1442 1.349 . S
C1441 C1443 1.327 . S
C1441 H1464 0.950 . S
C1442 C1441 1.349 . S
C1442 C1454 1.349 . S
C1443 C1441 1.327 . S
C1443 C1459 1.429 . S
C1443 H1465 0.950 . S
C1444 H1440 0.949 . S
C1444 C1452 1.574 . S
C1444 C1460 1.368 . S
H1445 C1453 0.950 . S
H1446 C1451 0.950 . S
H1447 C1452 0.949 . S
H1448 C1454 0.950 . S
H1449 C1455 0.950 . S
H1450 C1456 0.949 . S
C1451 H1446 0.950 . S
C1451 C1453 1.327 . S
C1451 C1457 1.429 . S
C1452 C1444 1.574 . S
C1452 H1447 0.949 . S
C1452 C1458 1.368 . S
C1453 C1437 1.349 . S
C1453 H1445 0.950 . S
C1453 C1451 1.327 . S
C1454 C1442 1.349 . S
C1454 H1448 0.950 . S
C1454 C1455 1.327 . S
C1455 H1449 0.950 . S
C1455 C1454 1.327 . S
C1455 C1459 1.429 . S
C1456 C1439 1.574 . S
C1456 H1450 0.949 . S
C1456 C1460 1.368 . S
C1457 C1438 1.429 . S
C1457 C1451 1.429 . S
C1457 C1458 1.523 . S
C1458 C1439 1.368 . S
C1458 C1452 1.368 . S
C1458 C1457 1.523 . S
C1459 C1443 1.429 . S
C1459 C1455 1.429 . S
C1459 C1460 1.523 . S
C1460 C1444 1.368 . S
C1460 C1456 1.368 . S
C1460 C1459 1.523 . S
H1461 C1436 0.950 . S
H1462 C1438 0.950 . S
H1463 C1439 0.949 . S
H1464 C1441 0.950 . S
H1465 C1443 0.950 . S
C1466 C1467 1.349 . S
C1466 C1468 1.327 . S
C1466 H1491 0.950 . S
C1467 C1466 1.349 . S
C1467 C1483 1.349 . S
C1468 C1466 1.327 . S
C1468 C1487 1.429 . S
C1468 H1492 0.950 . S
C1469 C1486 1.574 . S
C1469 C1488 1.368 . S
C1469 H1493 0.949 . S
H1470 C1474 0.949 . S
C1471 C1472 1.349 . S
C1471 C1473 1.327 . S
C1471 H1494 0.950 . S
C1472 C1471 1.349 . S
C1472 C1484 1.349 . S
C1473 C1471 1.327 . S
C1473 C1489 1.429 . S
C1473 H1495 0.950 . S
C1474 H1470 0.949 . S
C1474 C1482 1.574 . S
C1474 C1490 1.368 . S
H1475 C1483 0.950 . S
H1476 C1481 0.950 . S
H1477 C1482 0.949 . S
H1478 C1484 0.950 . S
H1479 C1485 0.950 . S
H1480 C1486 0.949 . S
C1481 H1476 0.950 . S
C1481 C1483 1.327 . S
C1481 C1487 1.429 . S
C1482 C1474 1.574 . S
C1482 H1477 0.949 . S
C1482 C1488 1.368 . S
C1483 C1467 1.349 . S
C1483 H1475 0.950 . S
C1483 C1481 1.327 . S
C1484 C1472 1.349 . S
C1484 H1478 0.950 . S
C1484 C1485 1.327 . S
C1485 H1479 0.950 . S
C1485 C1484 1.327 . S
C1485 C1489 1.429 . S
C1486 C1469 1.574 . S
C1486 H1480 0.949 . S
C1486 C1490 1.368 . S
C1487 C1468 1.429 . S
C1487 C1481 1.429 . S
C1487 C1488 1.523 . S
C1488 C1469 1.368 . S
C1488 C1482 1.368 . S
C1488 C1487 1.523 . S
C1489 C1473 1.429 . S
C1489 C1485 1.429 . S
C1489 C1490 1.523 . S
C1490 C1474 1.368 . S
C1490 C1486 1.368 . S
C1490 C1489 1.523 . S
H1491 C1466 0.950 . S
H1492 C1468 0.950 . S
H1493 C1469 0.949 . S
H1494 C1471 0.950 . S
H1495 C1473 0.950 . S
C1496 C1497 1.349 . S
C1496 C1498 1.327 . S
C1496 H1521 0.950 . S
C1497 C1496 1.349 . S
C1497 C1513 1.349 . S
C1498 C1496 1.327 . S
C1498 C1517 1.429 . S
C1498 H1522 0.950 . S
C1499 C1516 1.574 . S
C1499 C1518 1.368 . S
C1499 H1523 0.949 . S
H1500 C1504 0.949 . S
C1501 C1502 1.372 . S
C1501 C1503 1.326 . S
C1501 H1524 0.932 1_455 S
C1502 C1501 1.372 . S
C1502 C1514 1.349 . S
C1503 C1501 1.326 . S
C1503 C1519 1.429 . S
C1503 H1525 0.929 1_455 S
C1504 H1500 0.949 . S
C1504 C1512 1.574 . S
C1504 C1520 1.368 . S
H1505 C1513 0.950 . S
H1506 C1511 0.950 . S
H1507 C1512 0.949 . S
H1508 C1514 0.950 . S
H1509 C1515 0.950 . S
H1510 C1516 0.962 . S
C1511 H1506 0.950 . S
C1511 C1513 1.327 . S
C1511 C1517 1.429 . S
C1512 C1504 1.574 . S
C1512 H1507 0.949 . S
C1512 C1518 1.368 . S
C1513 C1497 1.349 . S
C1513 H1505 0.950 . S
C1513 C1511 1.327 . S
C1514 C1502 1.349 . S
C1514 H1508 0.950 . S
C1514 C1515 1.327 . S
C1515 H1509 0.950 . S
C1515 C1514 1.327 . S
C1515 C1519 1.429 . S
C1516 C1499 1.574 . S
C1516 H1510 0.962 . S
C1516 C1520 1.368 . S
C1517 C1498 1.429 . S
C1517 C1511 1.429 . S
C1517 C1518 1.523 . S
C1518 C1499 1.368 . S
C1518 C1512 1.368 . S
C1518 C1517 1.523 . S
C1519 C1503 1.429 . S
C1519 C1515 1.429 . S
C1519 C1520 1.523 . S
C1520 C1504 1.368 . S
C1520 C1516 1.368 . S
C1520 C1519 1.523 . S
H1521 C1496 0.950 . S
H1522 C1498 0.950 . S
H1523 C1499 0.949 . S
H1524 C1501 0.932 1_655 S
H1525 C1503 0.929 1_655 S
C1526 C1527 1.349 . S
C1526 C1528 1.327 . S
C1526 H1551 0.950 . S
C1527 C1526 1.349 . S
C1527 C1543 1.349 . S
C1528 C1526 1.327 . S
C1528 C1547 1.429 . S
C1528 H1552 0.950 . S
C1529 C1546 1.574 . S
C1529 C1548 1.368 . S
C1529 H1553 0.949 . S
H1530 C1534 0.949 . S
C1531 C1532 1.349 . S
C1531 C1533 1.327 . S
C1531 H1554 0.950 . S
C1532 C1531 1.349 . S
C1532 C1544 1.349 . S
C1533 C1531 1.327 . S
C1533 C1549 1.429 . S
C1533 H1555 0.950 . S
C1534 H1530 0.949 . S
C1534 C1542 1.574 . S
C1534 C1550 1.368 . S
H1535 C1543 0.950 . S
H1536 C1541 0.950 . S
H1537 C1542 0.949 . S
H1538 C1544 0.950 . S
H1539 C1545 0.950 . S
H1540 C1546 0.949 . S
C1541 H1536 0.950 . S
C1541 C1543 1.327 . S
C1541 C1547 1.429 . S
C1542 C1534 1.574 . S
C1542 H1537 0.949 . S
C1542 C1548 1.368 . S
C1543 C1527 1.349 . S
C1543 H1535 0.950 . S
C1543 C1541 1.327 . S
C1544 C1532 1.349 . S
C1544 H1538 0.950 . S
C1544 C1545 1.327 . S
C1545 H1539 0.950 . S
C1545 C1544 1.327 . S
C1545 C1549 1.429 . S
C1546 C1529 1.574 . S
C1546 H1540 0.949 . S
C1546 C1550 1.368 . S
C1547 C1528 1.429 . S
C1547 C1541 1.429 . S
C1547 C1548 1.523 . S
C1548 C1529 1.368 . S
C1548 C1542 1.368 . S
C1548 C1547 1.523 . S
C1549 C1533 1.429 . S
C1549 C1545 1.429 . S
C1549 C1550 1.523 . S
C1550 C1534 1.368 . S
C1550 C1546 1.368 . S
C1550 C1549 1.523 . S
H1551 C1526 0.950 . S
H1552 C1528 0.950 . S
H1553 C1529 0.949 . S
H1554 C1531 0.950 . S
H1555 C1533 0.950 . S
C1556 C1557 1.349 . S
C1556 C1558 1.327 . S
C1556 H1581 0.950 . S
C1557 C1556 1.349 . S
C1557 C1573 1.349 . S
C1558 C1556 1.327 . S
C1558 C1577 1.429 . S
C1558 H1582 0.950 . S
C1559 C1576 1.574 . S
C1559 C1578 1.368 . S
C1559 H1583 0.949 . S
H1560 C1564 0.949 . S
C1561 C1562 1.352 . S
C1561 C1563 1.327 . S
C1561 H1584 0.950 . S
C1562 C1561 1.352 . S
C1562 C1574 1.348 1_556 S
C1563 C1561 1.327 . S
C1563 C1579 1.429 . S
C1563 H1585 0.950 . S
C1564 H1560 0.949 . S
C1564 C1572 1.574 . S
C1564 C1580 1.368 . S
H1565 C1573 0.950 . S
H1566 C1571 0.950 . S
H1567 C1572 0.949 . S
H1568 C1574 0.950 . S
H1569 C1575 0.950 . S
H1570 C1576 0.949 . S
C1571 H1566 0.950 . S
C1571 C1573 1.327 . S
C1571 C1577 1.429 . S
C1572 C1564 1.574 . S
C1572 H1567 0.949 . S
C1572 C1578 1.368 . S
C1573 C1557 1.349 . S
C1573 H1565 0.950 . S
C1573 C1571 1.327 . S
C1574 C1562 1.348 1_554 S
C1574 H1568 0.950 . S
C1574 C1575 1.327 1_554 S
C1575 H1569 0.950 . S
C1575 C1574 1.327 1_556 S
C1575 C1579 1.429 . S
C1576 C1559 1.574 . S
C1576 H1570 0.949 . S
C1576 C1580 1.368 . S
C1577 C1558 1.429 . S
C1577 C1571 1.429 . S
C1577 C1578 1.523 . S
C1578 C1559 1.368 . S
C1578 C1572 1.368 . S
C1578 C1577 1.523 . S
C1579 C1563 1.429 . S
C1579 C1575 1.429 . S
C1579 C1580 1.523 . S
C1580 C1564 1.368 . S
C1580 C1576 1.368 . S
C1580 C1579 1.523 . S
H1581 C1556 0.950 . S
H1582 C1558 0.950 . S
H1583 C1559 0.949 . S
H1584 C1561 0.950 . S
H1585 C1563 0.950 . S
C1586 C1587 1.349 . S
C1586 C1588 1.327 . S
C1586 H1611 0.950 . S
C1587 C1586 1.349 . S
C1587 C1603 1.349 . S
C1588 C1586 1.327 . S
C1588 C1607 1.429 . S
C1588 H1612 0.950 . S
C1589 C1606 1.574 . S
C1589 C1608 1.368 . S
C1589 H1613 0.949 . S
H1590 C1594 0.949 . S
C1591 C1592 1.349 . S
C1591 C1593 1.327 . S
C1591 H1614 0.950 . S
C1592 C1591 1.349 . S
C1592 C1604 1.349 . S
C1593 C1591 1.327 . S
C1593 C1609 1.429 . S
C1593 H1615 0.950 . S
C1594 H1590 0.949 . S
C1594 C1602 1.574 . S
C1594 C1610 1.368 . S
H1595 C1603 0.950 . S
H1596 C1601 0.950 . S
H1597 C1602 0.949 . S
H1598 C1604 0.950 . S
H1599 C1605 0.950 . S
H1600 C1606 0.949 . S
C1601 H1596 0.950 . S
C1601 C1603 1.327 . S
C1601 C1607 1.429 . S
C1602 C1594 1.574 . S
C1602 H1597 0.949 . S
C1602 C1608 1.368 . S
C1603 C1587 1.349 . S
C1603 H1595 0.950 . S
C1603 C1601 1.327 . S
C1604 C1592 1.349 . S
C1604 H1598 0.950 . S
C1604 C1605 1.327 . S
C1605 H1599 0.950 . S
C1605 C1604 1.327 . S
C1605 C1609 1.429 . S
C1606 C1589 1.574 . S
C1606 H1600 0.949 . S
C1606 C1610 1.368 . S
C1607 C1588 1.429 . S
C1607 C1601 1.429 . S
C1607 C1608 1.523 . S
C1608 C1589 1.368 . S
C1608 C1602 1.368 . S
C1608 C1607 1.523 . S
C1609 C1593 1.429 . S
C1609 C1605 1.429 . S
C1609 C1610 1.523 . S
C1610 C1594 1.368 . S
C1610 C1606 1.368 . S
C1610 C1609 1.523 . S
H1611 C1586 0.950 . S
H1612 C1588 0.950 . S
H1613 C1589 0.949 . S
H1614 C1591 0.950 . S
H1615 C1593 0.950 . S
C1616 C1617 1.349 . S
C1616 C1618 1.327 . S
C1616 H1641 0.950 . S
C1617 C1616 1.349 . S
C1617 C1633 1.349 1_545 S
C1618 C1616 1.327 . S
C1618 C1637 1.429 . S
C1618 H1642 0.950 . S
C1619 C1636 1.574 . S
C1619 C1638 1.368 1_565 S
C1619 H1643 0.949 . S
H1620 C1624 0.949 . S
C1621 C1622 1.349 1_565 S
C1621 C1623 1.327 . S
C1621 H1644 0.950 . S
C1622 C1621 1.349 1_545 S
C1622 C1634 1.349 . S
C1623 C1621 1.327 . S
C1623 C1639 1.429 1_565 S
C1623 H1645 0.950 . S
C1624 H1620 0.949 . S
C1624 C1632 1.574 . S
C1624 C1640 1.368 . S
H1625 C1633 0.950 . S
H1626 C1631 0.950 . S
H1627 C1632 0.949 . S
H1628 C1634 0.950 . S
H1629 C1635 0.950 . S
H1630 C1636 0.949 . S
C1631 H1626 0.950 . S
C1631 C1633 1.327 . S
C1631 C1637 1.429 1_565 S
C1632 C1624 1.574 . S
C1632 H1627 0.949 . S
C1632 C1638 1.368 . S
C1633 C1617 1.349 1_565 S
C1633 H1625 0.950 . S
C1633 C1631 1.327 . S
C1634 C1622 1.349 . S
C1634 H1628 0.950 . S
C1634 C1635 1.327 . S
C1635 H1629 0.950 . S
C1635 C1634 1.327 . S
C1635 C1639 1.429 . S
C1636 C1619 1.574 . S
C1636 H1630 0.949 . S
C1636 C1640 1.368 1_565 S
C1637 C1618 1.429 . S
C1637 C1631 1.429 1_545 S
C1637 C1638 1.523 . S
C1638 C1619 1.368 1_545 S
C1638 C1632 1.368 . S
C1638 C1637 1.523 . S
C1639 C1623 1.429 1_545 S
C1639 C1635 1.429 . S
C1639 C1640 1.523 . S
C1640 C1624 1.368 . S
C1640 C1636 1.368 1_545 S
C1640 C1639 1.523 . S
H1641 C1616 0.950 . S
H1642 C1618 0.950 . S
H1643 C1619 0.949 . S
H1644 C1621 0.950 . S
H1645 C1623 0.950 . S
C1646 C1647 1.349 . S
C1646 C1648 1.327 . S
C1646 H1671 0.950 . S
C1647 C1646 1.349 . S
C1647 C1663 1.349 . S
C1648 C1646 1.327 . S
C1648 C1667 1.429 . S
C1648 H1672 0.950 . S
C1649 C1666 1.574 . S
C1649 C1668 1.368 . S
C1649 H1673 0.949 . S
H1650 C1654 0.949 . S
C1651 C1652 1.349 . S
C1651 C1653 1.327 . S
C1651 H1674 0.950 . S
C1652 C1651 1.349 . S
C1652 C1664 1.349 . S
C1653 C1651 1.327 . S
C1653 C1669 1.429 . S
C1653 H1675 0.950 . S
C1654 H1650 0.949 . S
C1654 C1662 1.574 . S
C1654 C1670 1.368 . S
H1655 C1663 0.950 . S
H1656 C1661 0.950 . S
H1657 C1662 0.949 . S
H1658 C1664 0.950 . S
H1659 C1665 0.950 . S
H1660 C1666 0.949 . S
C1661 H1656 0.950 . S
C1661 C1663 1.327 . S
C1661 C1667 1.429 . S
C1662 C1654 1.574 . S
C1662 H1657 0.949 . S
C1662 C1668 1.368 . S
C1663 C1647 1.349 . S
C1663 H1655 0.950 . S
C1663 C1661 1.327 . S
C1664 C1652 1.349 . S
C1664 H1658 0.950 . S
C1664 C1665 1.327 . S
C1665 H1659 0.950 . S
C1665 C1664 1.327 . S
C1665 C1669 1.429 . S
C1666 C1649 1.574 . S
C1666 H1660 0.949 . S
C1666 C1670 1.368 . S
C1667 C1648 1.429 . S
C1667 C1661 1.429 . S
C1667 C1668 1.523 . S
C1668 C1649 1.368 . S
C1668 C1662 1.368 . S
C1668 C1667 1.523 . S
C1669 C1653 1.429 . S
C1669 C1665 1.429 . S
C1669 C1670 1.523 . S
C1670 C1654 1.368 . S
C1670 C1666 1.368 . S
C1670 C1669 1.523 . S
H1671 C1646 0.950 . S
H1672 C1648 0.950 . S
H1673 C1649 0.949 . S
H1674 C1651 0.950 . S
H1675 C1653 0.950 . S
C1676 C1677 1.349 . S
C1676 C1678 1.327 . S
C1676 H1701 0.942 1_545 S
C1677 C1676 1.349 . S
C1677 C1693 1.349 . S
C1678 C1676 1.327 . S
C1678 C1697 1.429 . S
C1678 H1702 0.950 1_545 S
C1679 C1696 1.574 . S
C1679 C1698 1.368 . S
C1679 H1703 0.949 . S
H1680 C1684 0.949 1_565 S
C1681 C1682 1.349 . S
C1681 C1683 1.327 . S
C1681 H1704 0.950 . S
C1682 C1681 1.349 . S
C1682 C1694 1.349 . S
C1683 C1681 1.327 . S
C1683 C1699 1.429 . S
C1683 H1705 0.950 . S
C1684 H1680 0.949 1_545 S
C1684 C1692 1.574 . S
C1684 C1700 1.368 . S
H1685 C1693 0.950 . S
H1686 C1691 0.950 . S
H1687 C1692 0.949 1_565 S
H1688 C1694 0.950 1_565 S
H1689 C1695 0.950 1_565 S
H1690 C1696 0.949 . S
C1691 H1686 0.950 . S
C1691 C1693 1.327 . S
C1691 C1697 1.429 . S
C1692 C1684 1.574 . S
C1692 H1687 0.949 1_545 S
C1692 C1698 1.368 . S
C1693 C1677 1.349 . S
C1693 H1685 0.950 . S
C1693 C1691 1.327 . S
C1694 C1682 1.349 . S
C1694 H1688 0.950 1_545 S
C1694 C1695 1.327 . S
C1695 H1689 0.950 1_545 S
C1695 C1694 1.327 . S
C1695 C1699 1.429 . S
C1696 C1679 1.574 . S
C1696 H1690 0.949 . S
C1696 C1700 1.368 . S
C1697 C1678 1.429 . S
C1697 C1691 1.429 . S
C1697 C1698 1.523 . S
C1698 C1679 1.368 . S
C1698 C1692 1.368 . S
C1698 C1697 1.523 . S
C1699 C1683 1.429 . S
C1699 C1695 1.429 . S
C1699 C1700 1.523 . S
C1700 C1684 1.368 . S
C1700 C1696 1.368 . S
C1700 C1699 1.523 . S
H1701 C1676 0.942 1_565 S
H1702 C1678 0.950 1_565 S
H1703 C1679 0.949 . S
H1704 C1681 0.950 . S
H1705 C1683 0.950 . S
C1706 C1707 1.349 . S
C1706 C1708 1.327 . S
C1706 H1731 0.950 . S
C1707 C1706 1.349 . S
C1707 C1723 1.349 . S
C1708 C1706 1.327 . S
C1708 C1727 1.429 . S
C1708 H1732 0.950 . S
C1709 C1726 1.574 . S
C1709 C1728 1.368 . S
C1709 H1733 0.949 . S
H1710 C1714 0.949 . S
C1711 C1712 1.349 . S
C1711 C1713 1.327 . S
C1711 H1734 0.950 . S
C1712 C1711 1.349 . S
C1712 C1724 1.349 . S
C1713 C1711 1.327 . S
C1713 C1729 1.429 . S
C1713 H1735 0.950 . S
C1714 H1710 0.949 . S
C1714 C1722 1.574 . S
C1714 C1730 1.368 . S
H1715 C1723 0.950 . S
H1716 C1721 0.950 . S
H1717 C1722 0.949 . S
H1718 C1724 0.950 . S
H1719 C1725 0.950 . S
H1720 C1726 0.949 . S
C1721 H1716 0.950 . S
C1721 C1723 1.327 . S
C1721 C1727 1.429 . S
C1722 C1714 1.574 . S
C1722 H1717 0.949 . S
C1722 C1728 1.368 . S
C1723 C1707 1.349 . S
C1723 H1715 0.950 . S
C1723 C1721 1.327 . S
C1724 C1712 1.349 . S
C1724 H1718 0.950 . S
C1724 C1725 1.327 . S
C1725 H1719 0.950 . S
C1725 C1724 1.327 . S
C1725 C1729 1.429 . S
C1726 C1709 1.574 . S
C1726 H1720 0.949 . S
C1726 C1730 1.368 . S
C1727 C1708 1.429 . S
C1727 C1721 1.429 . S
C1727 C1728 1.523 . S
C1728 C1709 1.368 . S
C1728 C1722 1.368 . S
C1728 C1727 1.523 . S
C1729 C1713 1.429 . S
C1729 C1725 1.429 . S
C1729 C1730 1.523 . S
C1730 C1714 1.368 . S
C1730 C1726 1.368 . S
C1730 C1729 1.523 . S
H1731 C1706 0.950 . S
H1732 C1708 0.950 . S
H1733 C1709 0.949 . S
H1734 C1711 0.950 . S
H1735 C1713 0.950 . S
C1736 C1737 1.349 1_565 S
C1736 C1738 1.327 . S
C1736 H1761 0.950 . S
C1737 C1736 1.349 1_545 S
C1737 C1753 1.349 . S
C1738 C1736 1.327 . S
C1738 C1757 1.429 1_565 S
C1738 H1762 0.950 . S
C1739 C1756 1.574 . S
C1739 C1758 1.368 . S
C1739 H1763 0.949 . S
H1740 C1744 0.949 . S
C1741 C1742 1.349 . S
C1741 C1743 1.327 . S
C1741 H1764 0.950 . S
C1742 C1741 1.349 . S
C1742 C1754 1.349 1_545 S
C1743 C1741 1.327 . S
C1743 C1759 1.429 . S
C1743 H1765 0.950 . S
C1744 H1740 0.949 . S
C1744 C1752 1.574 . S
C1744 C1760 1.368 1_565 S
H1745 C1753 0.950 . S
H1746 C1751 0.950 . S
H1747 C1752 0.949 . S
H1748 C1754 0.950 . S
H1749 C1755 0.950 . S
H1750 C1756 0.949 . S
C1751 H1746 0.950 . S
C1751 C1753 1.327 . S
C1751 C1757 1.429 . S
C1752 C1744 1.574 . S
C1752 H1747 0.949 . S
C1752 C1758 1.368 1_565 S
C1753 C1737 1.349 . S
C1753 H1745 0.950 . S
C1753 C1751 1.327 . S
C1754 C1742 1.349 1_565 S
C1754 H1748 0.950 . S
C1754 C1755 1.327 . S
C1755 H1749 0.950 . S
C1755 C1754 1.327 . S
C1755 C1759 1.429 1_565 S
C1756 C1739 1.574 . S
C1756 H1750 0.949 . S
C1756 C1760 1.368 . S
C1757 C1738 1.429 1_545 S
C1757 C1751 1.429 . S
C1757 C1758 1.523 . S
C1758 C1739 1.368 . S
C1758 C1752 1.368 1_545 S
C1758 C1757 1.523 . S
C1759 C1743 1.429 . S
C1759 C1755 1.429 1_545 S
C1759 C1760 1.523 . S
C1760 C1744 1.368 1_545 S
C1760 C1756 1.368 . S
C1760 C1759 1.523 . S
H1761 C1736 0.950 . S
H1762 C1738 0.950 . S
H1763 C1739 0.949 . S
H1764 C1741 0.950 . S
H1765 C1743 0.950 . S
C1766 C1767 1.349 . S
C1766 C1768 1.327 . S
C1766 H1791 0.950 . S
C1767 C1766 1.349 . S
C1767 C1783 1.349 . S
C1768 C1766 1.327 . S
C1768 C1787 1.429 . S
C1768 H1792 0.950 . S
C1769 C1786 1.574 . S
C1769 C1788 1.368 . S
C1769 H1793 0.949 . S
H1770 C1774 0.949 . S
C1771 C1772 1.349 . S
C1771 C1773 1.327 . S
C1771 H1794 0.950 . S
C1772 C1771 1.349 . S
C1772 C1784 1.349 . S
C1773 C1771 1.327 . S
C1773 C1789 1.429 . S
C1773 H1795 0.950 . S
C1774 H1770 0.949 . S
C1774 C1782 1.574 . S
C1774 C1790 1.368 . S
H1775 C1783 0.950 . S
H1776 C1781 0.950 . S
H1777 C1782 0.949 . S
H1778 C1784 0.950 . S
H1779 C1785 0.950 . S
H1780 C1786 0.949 . S
C1781 H1776 0.950 . S
C1781 C1783 1.327 . S
C1781 C1787 1.429 . S
C1782 C1774 1.574 . S
C1782 H1777 0.949 . S
C1782 C1788 1.368 . S
C1783 C1767 1.349 . S
C1783 H1775 0.950 . S
C1783 C1781 1.327 . S
C1784 C1772 1.349 . S
C1784 H1778 0.950 . S
C1784 C1785 1.327 . S
C1785 H1779 0.950 . S
C1785 C1784 1.327 . S
C1785 C1789 1.429 . S
C1786 C1769 1.574 . S
C1786 H1780 0.949 . S
C1786 C1790 1.368 . S
C1787 C1768 1.429 . S
C1787 C1781 1.429 . S
C1787 C1788 1.523 . S
C1788 C1769 1.368 . S
C1788 C1782 1.368 . S
C1788 C1787 1.523 . S
C1789 C1773 1.429 . S
C1789 C1785 1.429 . S
C1789 C1790 1.523 . S
C1790 C1774 1.368 . S
C1790 C1786 1.368 . S
C1790 C1789 1.523 . S
H1791 C1766 0.950 . S
H1792 C1768 0.950 . S
H1793 C1769 0.949 . S
H1794 C1771 0.950 . S
H1795 C1773 0.950 . S
C1796 C1797 1.349 . S
C1796 C1798 1.327 . S
C1796 H1821 0.950 . S
C1797 C1796 1.349 . S
C1797 C1813 1.349 . S
C1798 C1796 1.327 . S
C1798 C1817 1.429 . S
C1798 H1822 0.950 . S
C1799 C1816 1.574 . S
C1799 C1818 1.368 1_565 S
C1799 H1823 0.949 . S
H1800 C1804 0.949 . S
C1801 C1802 1.349 1_565 S
C1801 C1803 1.327 . S
C1801 H1824 0.950 . S
C1802 C1801 1.349 1_545 S
C1802 C1814 1.349 . S
C1803 C1801 1.327 . S
C1803 C1819 1.429 1_565 S
C1803 H1825 0.950 . S
C1804 H1800 0.949 . S
C1804 C1812 1.574 . S
C1804 C1820 1.368 . S
H1805 C1813 0.950 1_565 S
H1806 C1811 0.950 1_565 S
H1807 C1812 0.949 . S
H1808 C1814 0.950 . S
H1809 C1815 0.950 . S
H1810 C1816 0.949 . S
C1811 H1806 0.950 1_545 S
C1811 C1813 1.327 . S
C1811 C1817 1.429 . S
C1812 C1804 1.574 . S
C1812 H1807 0.949 . S
C1812 C1818 1.368 . S
C1813 C1797 1.349 . S
C1813 H1805 0.950 1_545 S
C1813 C1811 1.327 . S
C1814 C1802 1.349 . S
C1814 H1808 0.950 . S
C1814 C1815 1.327 . S
C1815 H1809 0.950 . S
C1815 C1814 1.327 . S
C1815 C1819 1.429 . S
C1816 C1799 1.574 . S
C1816 H1810 0.949 . S
C1816 C1820 1.368 1_565 S
C1817 C1798 1.429 . S
C1817 C1811 1.429 . S
C1817 C1818 1.523 . S
C1818 C1799 1.368 1_545 S
C1818 C1812 1.368 . S
C1818 C1817 1.523 . S
C1819 C1803 1.429 1_545 S
C1819 C1815 1.429 . S
C1819 C1820 1.523 . S
C1820 C1804 1.368 . S
C1820 C1816 1.368 1_545 S
C1820 C1819 1.523 . S
H1821 C1796 0.950 . S
H1822 C1798 0.950 . S
H1823 C1799 0.949 . S
H1824 C1801 0.950 . S
H1825 C1803 0.950 . S
C1826 C1827 1.349 . S
C1826 C1828 1.327 . S
C1826 H1851 0.950 . S
C1827 C1826 1.349 . S
C1827 C1843 1.349 . S
C1828 C1826 1.327 . S
C1828 C1847 1.429 . S
C1828 H1852 0.950 . S
C1829 C1846 1.574 . S
C1829 C1848 1.368 . S
C1829 H1853 0.949 . S
H1830 C1834 0.949 . S
C1831 C1832 1.349 . S
C1831 C1833 1.327 . S
C1831 H1854 0.950 . S
C1832 C1831 1.349 . S
C1832 C1844 1.349 . S
C1833 C1831 1.327 . S
C1833 C1849 1.429 . S
C1833 H1855 0.950 . S
C1834 H1830 0.949 . S
C1834 C1842 1.574 . S
C1834 C1850 1.368 . S
H1835 C1843 0.950 . S
H1836 C1841 0.950 . S
H1837 C1842 0.949 . S
H1838 C1844 0.950 . S
H1839 C1845 0.950 . S
H1840 C1846 0.949 . S
C1841 H1836 0.950 . S
C1841 C1843 1.327 . S
C1841 C1847 1.429 . S
C1842 C1834 1.574 . S
C1842 H1837 0.949 . S
C1842 C1848 1.368 . S
C1843 C1827 1.349 . S
C1843 H1835 0.950 . S
C1843 C1841 1.327 . S
C1844 C1832 1.349 . S
C1844 H1838 0.950 . S
C1844 C1845 1.327 . S
C1845 H1839 0.950 . S
C1845 C1844 1.327 . S
C1845 C1849 1.429 . S
C1846 C1829 1.574 . S
C1846 H1840 0.949 . S
C1846 C1850 1.368 . S
C1847 C1828 1.429 . S
C1847 C1841 1.429 . S
C1847 C1848 1.523 . S
C1848 C1829 1.368 . S
C1848 C1842 1.368 . S
C1848 C1847 1.523 . S
C1849 C1833 1.429 . S
C1849 C1845 1.429 . S
C1849 C1850 1.523 . S
C1850 C1834 1.368 . S
C1850 C1846 1.368 . S
C1850 C1849 1.523 . S
H1851 C1826 0.950 . S
H1852 C1828 0.950 . S
H1853 C1829 0.949 . S
H1854 C1831 0.950 . S
H1855 C1833 0.950 . S
C1856 C1857 1.349 . S
C1856 C1858 1.327 . S
C1856 H1881 0.950 . S
C1857 C1856 1.349 . S
C1857 C1873 1.349 . S
C1858 C1856 1.327 . S
C1858 C1877 1.429 . S
C1858 H1882 0.950 1_554 S
C1859 C1876 1.574 . S
C1859 C1878 1.368 . S
C1859 H1883 0.949 . S
H1860 C1864 0.947 1_556 S
C1861 C1862 1.349 . S
C1861 C1863 1.327 . S
C1861 H1884 0.950 . S
C1862 C1861 1.349 . S
C1862 C1874 1.349 1_554 S
C1863 C1861 1.327 . S
C1863 C1879 1.429 . S
C1863 H1885 0.950 . S
C1864 H1860 0.947 1_554 S
C1864 C1872 1.574 . S
C1864 C1880 1.370 . S
H1865 C1873 0.950 . S
H1866 C1871 0.950 . S
H1867 C1872 0.949 1_556 S
H1868 C1874 0.950 . S
H1869 C1875 0.950 . S
H1870 C1876 0.949 . S
C1871 H1866 0.950 . S
C1871 C1873 1.327 . S
C1871 C1877 1.429 . S
C1872 C1864 1.574 . S
C1872 H1867 0.949 1_554 S
C1872 C1878 1.368 . S
C1873 C1857 1.349 . S
C1873 H1865 0.950 . S
C1873 C1871 1.327 . S
C1874 C1862 1.349 1_556 S
C1874 H1868 0.950 . S
C1874 C1875 1.327 . S
C1875 H1869 0.950 . S
C1875 C1874 1.327 . S
C1875 C1879 1.429 1_556 S
C1876 C1859 1.574 . S
C1876 H1870 0.949 . S
C1876 C1880 1.368 . S
C1877 C1858 1.429 . S
C1877 C1871 1.429 . S
C1877 C1878 1.523 . S
C1878 C1859 1.368 . S
C1878 C1872 1.368 . S
C1878 C1877 1.523 . S
C1879 C1863 1.429 . S
C1879 C1875 1.429 1_554 S
C1879 C1880 1.523 . S
C1880 C1864 1.370 . S
C1880 C1876 1.368 . S
C1880 C1879 1.523 . S
H1881 C1856 0.950 . S
H1882 C1858 0.950 1_556 S
H1883 C1859 0.949 . S
H1884 C1861 0.950 . S
H1885 C1863 0.950 . S
C1886 C1887 1.349 . S
C1886 C1888 1.327 . S
C1886 H1911 0.950 . S
C1887 C1886 1.349 . S
C1887 C1903 1.349 . S
C1888 C1886 1.327 . S
C1888 C1907 1.429 . S
C1888 H1912 0.950 . S
C1889 C1906 1.574 . S
C1889 C1908 1.368 . S
C1889 H1913 0.949 . S
H1890 C1894 0.949 . S
C1891 C1892 1.349 . S
C1891 C1893 1.327 . S
C1891 H1914 0.950 1_554 S
C1892 C1891 1.349 . S
C1892 C1904 1.349 . S
C1893 C1891 1.327 . S
C1893 C1909 1.429 . S
C1893 H1915 0.951 . S
C1894 H1890 0.949 . S
C1894 C1902 1.574 . S
C1894 C1910 1.368 . S
H1895 C1903 0.950 . S
H1896 C1901 0.950 . S
H1897 C1902 0.949 . S
H1898 C1904 0.950 . S
H1899 C1905 0.950 . S
H1900 C1906 0.949 . S
C1901 H1896 0.950 . S
C1901 C1903 1.327 . S
C1901 C1907 1.429 . S
C1902 C1894 1.574 . S
C1902 H1897 0.949 . S
C1902 C1908 1.368 . S
C1903 C1887 1.349 . S
C1903 H1895 0.950 . S
C1903 C1901 1.327 . S
C1904 C1892 1.349 . S
C1904 H1898 0.950 . S
C1904 C1905 1.327 . S
C1905 H1899 0.950 . S
C1905 C1904 1.327 . S
C1905 C1909 1.429 . S
C1906 C1889 1.574 . S
C1906 H1900 0.949 . S
C1906 C1910 1.368 . S
C1907 C1888 1.429 . S
C1907 C1901 1.429 . S
C1907 C1908 1.523 . S
C1908 C1889 1.368 . S
C1908 C1902 1.368 . S
C1908 C1907 1.523 . S
C1909 C1893 1.429 . S
C1909 C1905 1.429 . S
C1909 C1910 1.523 . S
C1910 C1894 1.368 . S
C1910 C1906 1.368 . S
C1910 C1909 1.523 . S
H1911 C1886 0.950 . S
H1912 C1888 0.950 . S
H1913 C1889 0.949 . S
H1914 C1891 0.950 1_556 S
H1915 C1893 0.951 . S
C1916 C1917 1.349 . S
C1916 C1918 1.327 . S
C1916 H1941 0.950 . S
C1917 C1916 1.349 . S
C1917 C1933 1.349 . S
C1918 C1916 1.327 . S
C1918 C1937 1.429 . S
C1918 H1942 0.950 . S
C1919 C1936 1.574 . S
C1919 C1938 1.368 . S
C1919 H1943 0.949 . S
H1920 C1924 0.949 . S
C1921 C1922 1.349 . S
C1921 C1923 1.327 . S
C1921 H1944 0.950 . S
C1922 C1921 1.349 . S
C1922 C1934 1.349 . S
C1923 C1921 1.327 . S
C1923 C1939 1.429 . S
C1923 H1945 0.950 . S
C1924 H1920 0.949 . S
C1924 C1932 1.574 . S
C1924 C1940 1.368 . S
H1925 C1933 0.950 . S
H1926 C1931 0.950 . S
H1927 C1932 0.949 . S
H1928 C1934 0.950 . S
H1929 C1935 0.950 . S
H1930 C1936 0.949 . S
C1931 H1926 0.950 . S
C1931 C1933 1.327 . S
C1931 C1937 1.429 . S
C1932 C1924 1.574 . S
C1932 H1927 0.949 . S
C1932 C1938 1.368 . S
C1933 C1917 1.349 . S
C1933 H1925 0.950 . S
C1933 C1931 1.327 . S
C1934 C1922 1.349 . S
C1934 H1928 0.950 . S
C1934 C1935 1.327 . S
C1935 H1929 0.950 . S
C1935 C1934 1.327 . S
C1935 C1939 1.429 . S
C1936 C1919 1.574 . S
C1936 H1930 0.949 . S
C1936 C1940 1.368 . S
C1937 C1918 1.429 . S
C1937 C1931 1.429 . S
C1937 C1938 1.523 . S
C1938 C1919 1.368 . S
C1938 C1932 1.368 . S
C1938 C1937 1.523 . S
C1939 C1923 1.429 . S
C1939 C1935 1.429 . S
C1939 C1940 1.523 . S
C1940 C1924 1.368 . S
C1940 C1936 1.368 . S
C1940 C1939 1.523 . S
H1941 C1916 0.950 . S
H1942 C1918 0.950 . S
H1943 C1919 0.949 . S
H1944 C1921 0.950 . S
H1945 C1923 0.950 . S
C1946 C1947 1.349 . S
C1946 C1948 1.327 . S
C1946 H1971 0.950 . S
C1947 C1946 1.349 . S
C1947 C1963 1.349 . S
C1948 C1946 1.327 . S
C1948 C1967 1.429 . S
C1948 H1972 0.950 . S
C1949 C1966 1.574 . S
C1949 C1968 1.368 . S
C1949 H1973 0.949 . S
H1950 C1954 0.949 . S
C1951 C1952 1.349 . S
C1951 C1953 1.327 . S
C1951 H1974 0.950 . S
C1952 C1951 1.349 . S
C1952 C1964 1.349 . S
C1953 C1951 1.327 . S
C1953 C1969 1.429 . S
C1953 H1975 0.950 . S
C1954 H1950 0.949 . S
C1954 C1962 1.574 . S
C1954 C1970 1.368 . S
H1955 C1963 0.950 . S
H1956 C1961 0.950 . S
H1957 C1962 0.949 . S
H1958 C1964 0.950 . S
H1959 C1965 0.950 . S
H1960 C1966 0.949 . S
C1961 H1956 0.950 . S
C1961 C1963 1.327 . S
C1961 C1967 1.429 . S
C1962 C1954 1.574 . S
C1962 H1957 0.949 . S
C1962 C1968 1.368 . S
C1963 C1947 1.349 . S
C1963 H1955 0.950 . S
C1963 C1961 1.327 . S
C1964 C1952 1.349 . S
C1964 H1958 0.950 . S
C1964 C1965 1.327 . S
C1965 H1959 0.950 . S
C1965 C1964 1.327 . S
C1965 C1969 1.429 . S
C1966 C1949 1.574 . S
C1966 H1960 0.949 . S
C1966 C1970 1.368 . S
C1967 C1948 1.429 . S
C1967 C1961 1.429 . S
C1967 C1968 1.523 . S
C1968 C1949 1.368 . S
C1968 C1962 1.368 . S
C1968 C1967 1.523 . S
C1969 C1953 1.429 . S
C1969 C1965 1.429 . S
C1969 C1970 1.523 . S
C1970 C1954 1.368 . S
C1970 C1966 1.368 . S
C1970 C1969 1.523 . S
H1971 C1946 0.950 . S
H1972 C1948 0.950 . S
H1973 C1949 0.949 . S
H1974 C1951 0.950 . S
H1975 C1953 0.950 . S
C1976 C1977 1.349 . S
C1976 C1978 1.327 . S
C1976 H2001 0.950 . S
C1977 C1976 1.349 . S
C1977 C1993 1.349 . S
C1978 C1976 1.327 . S
C1978 C1997 1.429 . S
C1978 H2002 0.950 . S
C1979 C1996 1.574 . S
C1979 C1998 1.368 . S
C1979 H2003 0.949 . S
H1980 C1984 0.949 . S
C1981 C1982 1.349 . S
C1981 C1983 1.327 . S
C1981 H2004 0.950 . S
C1982 C1981 1.349 . S
C1982 C1994 1.349 . S
C1983 C1981 1.327 . S
C1983 C1999 1.429 . S
C1983 H2005 0.950 . S
C1984 H1980 0.949 . S
C1984 C1992 1.574 . S
C1984 C2000 1.368 . S
H1985 C1993 0.950 . S
H1986 C1991 0.950 . S
H1987 C1992 0.949 . S
H1988 C1994 0.950 . S
H1989 C1995 0.950 . S
H1990 C1996 0.949 . S
C1991 H1986 0.950 . S
C1991 C1993 1.327 . S
C1991 C1997 1.429 . S
C1992 C1984 1.574 . S
C1992 H1987 0.949 . S
C1992 C1998 1.368 . S
C1993 C1977 1.349 . S
C1993 H1985 0.950 . S
C1993 C1991 1.327 . S
C1994 C1982 1.349 . S
C1994 H1988 0.950 . S
C1994 C1995 1.327 . S
C1995 H1989 0.950 . S
C1995 C1994 1.327 . S
C1995 C1999 1.429 . S
C1996 C1979 1.574 . S
C1996 H1990 0.949 . S
C1996 C2000 1.368 . S
C1997 C1978 1.429 . S
C1997 C1991 1.429 . S
C1997 C1998 1.523 . S
C1998 C1979 1.368 . S
C1998 C1992 1.368 . S
C1998 C1997 1.523 . S
C1999 C1983 1.429 . S
C1999 C1995 1.429 . S
C1999 C2000 1.523 . S
C2000 C1984 1.368 . S
C2000 C1996 1.368 . S
C2000 C1999 1.523 . S
H2001 C1976 0.950 . S
H2002 C1978 0.950 . S
H2003 C1979 0.949 . S
H2004 C1981 0.950 . S
H2005 C1983 0.950 . S
C2006 C2007 1.349 . S
C2006 C2008 1.327 . S
C2006 H2031 0.950 . S
C2007 C2006 1.349 . S
C2007 C2023 1.349 . S
C2008 C2006 1.327 . S
C2008 C2027 1.429 . S
C2008 H2032 0.950 . S
C2009 C2026 1.574 . S
C2009 C2028 1.368 . S
C2009 H2033 0.949 . S
H2010 C2014 0.949 . S
C2011 C2012 1.349 . S
C2011 C2013 1.327 . S
C2011 H2034 0.950 . S
C2012 C2011 1.349 . S
C2012 C2024 1.349 . S
C2013 C2011 1.327 . S
C2013 C2029 1.429 . S
C2013 H2035 0.950 . S
C2014 H2010 0.949 . S
C2014 C2022 1.574 . S
C2014 C2030 1.368 . S
H2015 C2023 0.950 . S
H2016 C2021 0.950 . S
H2017 C2022 0.949 . S
H2018 C2024 0.950 . S
H2019 C2025 0.950 . S
H2020 C2026 0.949 . S
C2021 H2016 0.950 . S
C2021 C2023 1.327 . S
C2021 C2027 1.429 . S
C2022 C2014 1.574 . S
C2022 H2017 0.949 . S
C2022 C2028 1.368 . S
C2023 C2007 1.349 . S
C2023 H2015 0.950 . S
C2023 C2021 1.327 . S
C2024 C2012 1.349 . S
C2024 H2018 0.950 . S
C2024 C2025 1.327 . S
C2025 H2019 0.950 . S
C2025 C2024 1.327 . S
C2025 C2029 1.429 . S
C2026 C2009 1.574 . S
C2026 H2020 0.949 . S
C2026 C2030 1.368 . S
C2027 C2008 1.429 . S
C2027 C2021 1.429 . S
C2027 C2028 1.523 . S
C2028 C2009 1.368 . S
C2028 C2022 1.368 . S
C2028 C2027 1.523 . S
C2029 C2013 1.429 . S
C2029 C2025 1.429 . S
C2029 C2030 1.523 . S
C2030 C2014 1.368 . S
C2030 C2026 1.368 . S
C2030 C2029 1.523 . S
H2031 C2006 0.950 . S
H2032 C2008 0.950 . S
H2033 C2009 0.949 . S
H2034 C2011 0.950 . S
H2035 C2013 0.950 . S
C2036 C2037 1.349 . S
C2036 C2038 1.327 . S
C2036 H2061 0.950 . S
C2037 C2036 1.349 . S
C2037 C2053 1.349 . S
C2038 C2036 1.327 . S
C2038 C2057 1.429 . S
C2038 H2062 0.950 . S
C2039 C2056 1.574 . S
C2039 C2058 1.368 . S
C2039 H2063 0.949 . S
H2040 C2044 0.949 . S
C2041 C2042 1.349 . S
C2041 C2043 1.327 . S
C2041 H2064 0.950 . S
C2042 C2041 1.349 . S
C2042 C2054 1.349 . S
C2043 C2041 1.327 . S
C2043 C2059 1.429 . S
C2043 H2065 0.950 . S
C2044 H2040 0.949 . S
C2044 C2052 1.574 . S
C2044 C2060 1.368 . S
H2045 C2053 0.950 . S
H2046 C2051 0.950 . S
H2047 C2052 0.949 . S
H2048 C2054 0.950 . S
H2049 C2055 0.950 . S
H2050 C2056 0.949 . S
C2051 H2046 0.950 . S
C2051 C2053 1.327 . S
C2051 C2057 1.429 . S
C2052 C2044 1.574 . S
C2052 H2047 0.949 . S
C2052 C2058 1.368 . S
C2053 C2037 1.349 . S
C2053 H2045 0.950 . S
C2053 C2051 1.327 . S
C2054 C2042 1.349 . S
C2054 H2048 0.950 . S
C2054 C2055 1.327 . S
C2055 H2049 0.950 . S
C2055 C2054 1.327 . S
C2055 C2059 1.429 . S
C2056 C2039 1.574 . S
C2056 H2050 0.949 . S
C2056 C2060 1.368 . S
C2057 C2038 1.429 . S
C2057 C2051 1.429 . S
C2057 C2058 1.523 . S
C2058 C2039 1.368 . S
C2058 C2052 1.368 . S
C2058 C2057 1.523 . S
C2059 C2043 1.429 . S
C2059 C2055 1.429 . S
C2059 C2060 1.523 . S
C2060 C2044 1.368 . S
C2060 C2056 1.368 . S
C2060 C2059 1.523 . S
H2061 C2036 0.950 . S
H2062 C2038 0.950 . S
H2063 C2039 0.949 . S
H2064 C2041 0.950 . S
H2065 C2043 0.950 . S
C2066 C2067 1.349 . S
C2066 C2068 1.327 . S
C2066 H2091 0.950 . S
C2067 C2066 1.349 . S
C2067 C2083 1.349 . S
C2068 C2066 1.327 . S
C2068 C2087 1.429 . S
C2068 H2092 0.950 . S
C2069 C2086 1.574 . S
C2069 C2088 1.368 . S
C2069 H2093 0.949 . S
H2070 C2074 0.949 . S
C2071 C2072 1.349 . S
C2071 C2073 1.327 . S
C2071 H2094 0.950 . S
C2072 C2071 1.349 . S
C2072 C2084 1.349 . S
C2073 C2071 1.327 . S
C2073 C2089 1.429 . S
C2073 H2095 0.950 . S
C2074 H2070 0.949 . S
C2074 C2082 1.574 . S
C2074 C2090 1.368 . S
H2075 C2083 0.950 . S
H2076 C2081 0.950 . S
H2077 C2082 0.949 . S
H2078 C2084 0.950 . S
H2079 C2085 0.950 . S
H2080 C2086 0.949 . S
C2081 H2076 0.950 . S
C2081 C2083 1.327 . S
C2081 C2087 1.429 . S
C2082 C2074 1.574 . S
C2082 H2077 0.949 . S
C2082 C2088 1.368 . S
C2083 C2067 1.349 . S
C2083 H2075 0.950 . S
C2083 C2081 1.327 . S
C2084 C2072 1.349 . S
C2084 H2078 0.950 . S
C2084 C2085 1.327 . S
C2085 H2079 0.950 . S
C2085 C2084 1.327 . S
C2085 C2089 1.429 . S
C2086 C2069 1.574 . S
C2086 H2080 0.949 . S
C2086 C2090 1.368 . S
C2087 C2068 1.429 . S
C2087 C2081 1.429 . S
C2087 C2088 1.523 . S
C2088 C2069 1.368 . S
C2088 C2082 1.368 . S
C2088 C2087 1.523 . S
C2089 C2073 1.429 . S
C2089 C2085 1.429 . S
C2089 C2090 1.523 . S
C2090 C2074 1.368 . S
C2090 C2086 1.368 . S
C2090 C2089 1.523 . S
H2091 C2066 0.950 . S
H2092 C2068 0.950 . S
H2093 C2069 0.949 . S
H2094 C2071 0.950 . S
H2095 C2073 0.950 . S
C2096 C2097 1.349 . S
C2096 C2098 1.327 . S
C2096 H2121 0.950 . S
C2097 C2096 1.349 . S
C2097 C2113 1.349 . S
C2098 C2096 1.327 . S
C2098 C2117 1.429 . S
C2098 H2122 0.950 . S
C2099 C2116 1.574 . S
C2099 C2118 1.368 . S
C2099 H2123 0.949 . S
H2100 C2104 0.949 . S
C2101 C2102 1.349 . S
C2101 C2103 1.327 . S
C2101 H2124 0.950 . S
C2102 C2101 1.349 . S
C2102 C2114 1.349 . S
C2103 C2101 1.327 . S
C2103 C2119 1.429 . S
C2103 H2125 0.950 . S
C2104 H2100 0.949 . S
C2104 C2112 1.574 . S
C2104 C2120 1.368 . S
H2105 C2113 0.950 . S
H2106 C2111 0.950 . S
H2107 C2112 0.949 . S
H2108 C2114 0.950 . S
H2109 C2115 0.950 . S
H2110 C2116 0.949 . S
C2111 H2106 0.950 . S
C2111 C2113 1.327 . S
C2111 C2117 1.429 . S
C2112 C2104 1.574 . S
C2112 H2107 0.949 . S
C2112 C2118 1.368 . S
C2113 C2097 1.349 . S
C2113 H2105 0.950 . S
C2113 C2111 1.327 . S
C2114 C2102 1.349 . S
C2114 H2108 0.950 . S
C2114 C2115 1.327 . S
C2115 H2109 0.950 . S
C2115 C2114 1.327 . S
C2115 C2119 1.429 . S
C2116 C2099 1.574 . S
C2116 H2110 0.949 . S
C2116 C2120 1.368 . S
C2117 C2098 1.429 . S
C2117 C2111 1.429 . S
C2117 C2118 1.523 . S
C2118 C2099 1.368 . S
C2118 C2112 1.368 . S
C2118 C2117 1.523 . S
C2119 C2103 1.429 . S
C2119 C2115 1.429 . S
C2119 C2120 1.523 . S
C2120 C2104 1.368 . S
C2120 C2116 1.368 . S
C2120 C2119 1.523 . S
H2121 C2096 0.950 . S
H2122 C2098 0.950 . S
H2123 C2099 0.949 . S
H2124 C2101 0.950 . S
H2125 C2103 0.950 . S
C2126 C2127 1.349 . S
C2126 C2128 1.327 . S
C2126 H2151 0.950 . S
C2127 C2126 1.349 . S
C2127 C2143 1.349 . S
C2128 C2126 1.327 . S
C2128 C2147 1.429 . S
C2128 H2152 0.950 . S
C2129 C2146 1.574 . S
C2129 C2148 1.368 . S
C2129 H2153 0.949 . S
H2130 C2134 0.949 . S
C2131 C2132 1.349 . S
C2131 C2133 1.327 . S
C2131 H2154 0.950 . S
C2132 C2131 1.349 . S
C2132 C2144 1.349 . S
C2133 C2131 1.327 . S
C2133 C2149 1.429 . S
C2133 H2155 0.950 . S
C2134 H2130 0.949 . S
C2134 C2142 1.574 . S
C2134 C2150 1.368 . S
H2135 C2143 0.950 . S
H2136 C2141 0.950 . S
H2137 C2142 0.949 . S
H2138 C2144 0.950 . S
H2139 C2145 0.950 . S
H2140 C2146 0.949 . S
C2141 H2136 0.950 . S
C2141 C2143 1.327 . S
C2141 C2147 1.429 . S
C2142 C2134 1.574 . S
C2142 H2137 0.949 . S
C2142 C2148 1.368 . S
C2143 C2127 1.349 . S
C2143 H2135 0.950 . S
C2143 C2141 1.327 . S
C2144 C2132 1.349 . S
C2144 H2138 0.950 . S
C2144 C2145 1.327 . S
C2145 H2139 0.950 . S
C2145 C2144 1.327 . S
C2145 C2149 1.429 . S
C2146 C2129 1.574 . S
C2146 H2140 0.949 . S
C2146 C2150 1.368 . S
C2147 C2128 1.429 . S
C2147 C2141 1.429 . S
C2147 C2148 1.523 . S
C2148 C2129 1.368 . S
C2148 C2142 1.368 . S
C2148 C2147 1.523 . S
C2149 C2133 1.429 . S
C2149 C2145 1.429 . S
C2149 C2150 1.523 . S
C2150 C2134 1.368 . S
C2150 C2146 1.368 . S
C2150 C2149 1.523 . S
H2151 C2126 0.950 . S
H2152 C2128 0.950 . S
H2153 C2129 0.949 . S
H2154 C2131 0.950 . S
H2155 C2133 0.950 . S
C2156 C2157 1.349 1_655 S
C2156 C2158 1.327 . S
C2156 H2181 0.950 . S
C2157 C2156 1.349 1_455 S
C2157 C2173 1.349 . S
C2158 C2156 1.327 . S
C2158 C2177 1.429 1_655 S
C2158 H2182 0.950 . S
C2159 C2176 1.574 . S
C2159 C2178 1.368 . S
C2159 H2183 0.949 . S
H2160 C2164 0.949 . S
C2161 C2162 1.362 . S
C2161 C2163 1.347 . S
C2161 H2184 0.950 . S
C2162 C2161 1.362 . S
C2162 C2174 1.317 1_454 S
C2163 C2161 1.347 . S
C2163 C2179 1.384 1_554 S
C2163 H2185 0.976 . S
C2164 H2160 0.949 . S
C2164 C2172 1.574 . S
C2164 C2180 1.368 1_655 S
H2165 C2173 0.950 . S
H2166 C2171 0.950 . S
H2167 C2172 0.949 . S
H2168 C2174 0.967 . S
H2169 C2175 0.963 . S
H2170 C2176 0.949 . S
C2171 H2166 0.950 . S
C2171 C2173 1.327 . S
C2171 C2177 1.429 . S
C2172 C2164 1.574 . S
C2172 H2167 0.949 . S
C2172 C2178 1.368 1_655 S
C2173 C2157 1.349 . S
C2173 H2165 0.950 . S
C2173 C2171 1.327 . S
C2174 C2162 1.317 1_656 S
C2174 H2168 0.967 . S
C2174 C2175 1.329 . S
C2175 H2169 0.963 . S
C2175 C2174 1.329 . S
C2175 C2179 1.408 1_655 S
C2176 C2159 1.574 . S
C2176 H2170 0.949 . S
C2176 C2180 1.368 . S
C2177 C2158 1.429 1_455 S
C2177 C2171 1.429 . S
C2177 C2178 1.523 . S
C2178 C2159 1.368 . S
C2178 C2172 1.368 1_455 S
C2178 C2177 1.523 . S
C2179 C2163 1.384 1_556 S
C2179 C2175 1.408 1_455 S
C2179 C2180 1.523 . S
C2180 C2164 1.368 1_455 S
C2180 C2176 1.368 . S
C2180 C2179 1.523 . S
H2181 C2156 0.950 . S
H2182 C2158 0.950 . S
H2183 C2159 0.949 . S
H2184 C2161 0.950 . S
H2185 C2163 0.976 . S
C2186 C2187 1.349 . S
C2186 C2188 1.327 . S
C2186 H2211 0.950 . S
C2187 C2186 1.349 . S
C2187 C2203 1.349 . S
C2188 C2186 1.327 . S
C2188 C2207 1.429 . S
C2188 H2212 0.950 . S
C2189 C2206 1.574 . S
C2189 C2208 1.368 . S
C2189 H2213 0.949 . S
H2190 C2194 0.949 . S
C2191 C2192 1.349 . S
C2191 C2193 1.327 . S
C2191 H2214 0.950 . S
C2192 C2191 1.349 . S
C2192 C2204 1.349 . S
C2193 C2191 1.327 . S
C2193 C2209 1.429 . S
C2193 H2215 0.950 . S
C2194 H2190 0.949 . S
C2194 C2202 1.574 . S
C2194 C2210 1.368 . S
H2195 C2203 0.950 . S
H2196 C2201 0.950 . S
H2197 C2202 0.949 . S
H2198 C2204 0.950 . S
H2199 C2205 0.950 . S
H2200 C2206 0.949 . S
C2201 H2196 0.950 . S
C2201 C2203 1.327 . S
C2201 C2207 1.429 . S
C2202 C2194 1.574 . S
C2202 H2197 0.949 . S
C2202 C2208 1.368 . S
C2203 C2187 1.349 . S
C2203 H2195 0.950 . S
C2203 C2201 1.327 . S
C2204 C2192 1.349 . S
C2204 H2198 0.950 . S
C2204 C2205 1.327 . S
C2205 H2199 0.950 . S
C2205 C2204 1.327 . S
C2205 C2209 1.429 . S
C2206 C2189 1.574 . S
C2206 H2200 0.949 . S
C2206 C2210 1.368 . S
C2207 C2188 1.429 . S
C2207 C2201 1.429 . S
C2207 C2208 1.523 . S
C2208 C2189 1.368 . S
C2208 C2202 1.368 . S
C2208 C2207 1.523 . S
C2209 C2193 1.429 . S
C2209 C2205 1.429 . S
C2209 C2210 1.523 . S
C2210 C2194 1.368 . S
C2210 C2206 1.368 . S
C2210 C2209 1.523 . S
H2211 C2186 0.950 . S
H2212 C2188 0.950 . S
H2213 C2189 0.949 . S
H2214 C2191 0.950 . S
H2215 C2193 0.950 . S
C2216 C2217 1.349 . S
C2216 C2218 1.327 . S
C2216 H2241 0.950 . S
C2217 C2216 1.349 . S
C2217 C2233 1.349 . S
C2218 C2216 1.327 . S
C2218 C2237 1.429 . S
C2218 H2242 0.950 . S
C2219 C2236 1.574 . S
C2219 C2238 1.368 . S
C2219 H2243 0.949 . S
H2220 C2224 0.949 . S
C2221 C2222 1.349 . S
C2221 C2223 1.327 . S
C2221 H2244 0.950 . S
C2222 C2221 1.349 . S
C2222 C2234 1.349 . S
C2223 C2221 1.327 . S
C2223 C2239 1.429 . S
C2223 H2245 0.950 . S
C2224 H2220 0.949 . S
C2224 C2232 1.574 . S
C2224 C2240 1.368 . S
H2225 C2233 0.950 . S
H2226 C2231 0.950 . S
H2227 C2232 0.949 . S
H2228 C2234 0.950 . S
H2229 C2235 0.950 . S
H2230 C2236 0.949 . S
C2231 H2226 0.950 . S
C2231 C2233 1.327 . S
C2231 C2237 1.429 . S
C2232 C2224 1.574 . S
C2232 H2227 0.949 . S
C2232 C2238 1.368 . S
C2233 C2217 1.349 . S
C2233 H2225 0.950 . S
C2233 C2231 1.327 . S
C2234 C2222 1.349 . S
C2234 H2228 0.950 . S
C2234 C2235 1.327 . S
C2235 H2229 0.950 . S
C2235 C2234 1.327 . S
C2235 C2239 1.429 . S
C2236 C2219 1.574 . S
C2236 H2230 0.949 . S
C2236 C2240 1.368 . S
C2237 C2218 1.429 . S
C2237 C2231 1.429 . S
C2237 C2238 1.523 . S
C2238 C2219 1.368 . S
C2238 C2232 1.368 . S
C2238 C2237 1.523 . S
C2239 C2223 1.429 . S
C2239 C2235 1.429 . S
C2239 C2240 1.523 . S
C2240 C2224 1.368 . S
C2240 C2236 1.368 . S
C2240 C2239 1.523 . S
H2241 C2216 0.950 . S
H2242 C2218 0.950 . S
H2243 C2219 0.949 . S
H2244 C2221 0.950 . S
H2245 C2223 0.950 . S
C2246 C2247 1.349 . S
C2246 C2248 1.327 . S
C2246 H2271 0.950 . S
C2247 C2246 1.349 . S
C2247 C2263 1.349 . S
C2248 C2246 1.327 . S
C2248 C2267 1.429 . S
C2248 H2272 0.950 . S
C2249 C2266 1.574 . S
C2249 C2268 1.368 . S
C2249 H2273 0.949 . S
H2250 C2254 0.949 . S
C2251 C2252 1.349 . S
C2251 C2253 1.327 . S
C2251 H2274 0.950 . S
C2252 C2251 1.349 . S
C2252 C2264 1.349 . S
C2253 C2251 1.327 . S
C2253 C2269 1.429 . S
C2253 H2275 0.950 . S
C2254 H2250 0.949 . S
C2254 C2262 1.574 . S
C2254 C2270 1.368 . S
H2255 C2263 0.950 . S
H2256 C2261 0.950 . S
H2257 C2262 0.949 . S
H2258 C2264 0.950 . S
H2259 C2265 0.950 . S
H2260 C2266 0.949 . S
C2261 H2256 0.950 . S
C2261 C2263 1.327 . S
C2261 C2267 1.429 . S
C2262 C2254 1.574 . S
C2262 H2257 0.949 . S
C2262 C2268 1.368 . S
C2263 C2247 1.349 . S
C2263 H2255 0.950 . S
C2263 C2261 1.327 . S
C2264 C2252 1.349 . S
C2264 H2258 0.950 . S
C2264 C2265 1.327 . S
C2265 H2259 0.950 . S
C2265 C2264 1.327 . S
C2265 C2269 1.429 . S
C2266 C2249 1.574 . S
C2266 H2260 0.949 . S
C2266 C2270 1.368 . S
C2267 C2248 1.429 . S
C2267 C2261 1.429 . S
C2267 C2268 1.523 . S
C2268 C2249 1.368 . S
C2268 C2262 1.368 . S
C2268 C2267 1.523 . S
C2269 C2253 1.429 . S
C2269 C2265 1.429 . S
C2269 C2270 1.523 . S
C2270 C2254 1.368 . S
C2270 C2266 1.368 . S
C2270 C2269 1.523 . S
H2271 C2246 0.950 . S
H2272 C2248 0.950 . S
H2273 C2249 0.949 . S
H2274 C2251 0.950 . S
H2275 C2253 0.950 . S
C2276 C2277 1.349 1_655 S
C2276 C2278 1.327 . S
C2276 H2301 0.950 . S
C2277 C2276 1.349 1_455 S
C2277 C2293 1.349 . S
C2278 C2276 1.327 . S
C2278 C2297 1.429 1_655 S
C2278 H2302 0.950 . S
C2279 C2296 1.574 . S
C2279 C2298 1.368 . S
C2279 H2303 0.949 . S
H2280 C2284 0.949 . S
C2281 C2282 1.349 . S
C2281 C2283 1.327 . S
C2281 H2304 0.950 . S
C2282 C2281 1.349 . S
C2282 C2294 1.327 1_455 S
C2283 C2281 1.327 . S
C2283 C2299 1.429 . S
C2283 H2305 0.950 . S
C2284 H2280 0.949 . S
C2284 C2292 1.574 . S
C2284 C2300 1.368 1_655 S
H2285 C2293 0.950 . S
H2286 C2291 0.950 . S
H2287 C2292 0.949 . S
H2288 C2294 0.963 . S
H2289 C2295 0.950 . S
H2290 C2296 0.949 . S
C2291 H2286 0.950 . S
C2291 C2293 1.327 . S
C2291 C2297 1.429 . S
C2292 C2284 1.574 . S
C2292 H2287 0.949 . S
C2292 C2298 1.368 1_655 S
C2293 C2277 1.349 . S
C2293 H2285 0.950 . S
C2293 C2291 1.327 . S
C2294 C2282 1.327 1_655 S
C2294 H2288 0.963 . S
C2294 C2295 1.341 . S
C2295 H2289 0.950 . S
C2295 C2294 1.341 . S
C2295 C2299 1.429 1_655 S
C2296 C2279 1.574 . S
C2296 H2290 0.949 . S
C2296 C2300 1.368 . S
C2297 C2278 1.429 1_455 S
C2297 C2291 1.429 . S
C2297 C2298 1.523 . S
C2298 C2279 1.368 . S
C2298 C2292 1.368 1_455 S
C2298 C2297 1.523 . S
C2299 C2283 1.429 . S
C2299 C2295 1.429 1_455 S
C2299 C2300 1.523 . S
C2300 C2284 1.368 1_455 S
C2300 C2296 1.368 . S
C2300 C2299 1.523 . S
H2301 C2276 0.950 . S
H2302 C2278 0.950 . S
H2303 C2279 0.949 . S
H2304 C2281 0.950 . S
H2305 C2283 0.950 . S
C2306 C2307 1.349 . S
C2306 C2308 1.327 . S
C2306 H2331 0.950 . S
C2307 C2306 1.349 . S
C2307 C2323 1.349 . S
C2308 C2306 1.327 . S
C2308 C2327 1.429 . S
C2308 H2332 0.950 . S
C2309 C2326 1.574 . S
C2309 C2328 1.368 . S
C2309 H2333 0.949 . S
H2310 C2314 0.949 . S
C2311 C2312 1.349 . S
C2311 C2313 1.327 . S
C2311 H2334 0.950 . S
C2312 C2311 1.349 . S
C2312 C2324 1.349 . S
C2313 C2311 1.327 . S
C2313 C2329 1.429 . S
C2313 H2335 0.950 . S
C2314 H2310 0.949 . S
C2314 C2322 1.574 . S
C2314 C2330 1.368 . S
H2315 C2323 0.950 . S
H2316 C2321 0.950 . S
H2317 C2322 0.949 . S
H2318 C2324 0.950 . S
H2319 C2325 0.950 . S
H2320 C2326 0.949 . S
C2321 H2316 0.950 . S
C2321 C2323 1.327 . S
C2321 C2327 1.429 . S
C2322 C2314 1.574 . S
C2322 H2317 0.949 . S
C2322 C2328 1.368 . S
C2323 C2307 1.349 . S
C2323 H2315 0.950 . S
C2323 C2321 1.327 . S
C2324 C2312 1.349 . S
C2324 H2318 0.950 . S
C2324 C2325 1.327 . S
C2325 H2319 0.950 . S
C2325 C2324 1.327 . S
C2325 C2329 1.429 . S
C2326 C2309 1.574 . S
C2326 H2320 0.949 . S
C2326 C2330 1.368 . S
C2327 C2308 1.429 . S
C2327 C2321 1.429 . S
C2327 C2328 1.523 . S
C2328 C2309 1.368 . S
C2328 C2322 1.368 . S
C2328 C2327 1.523 . S
C2329 C2313 1.429 . S
C2329 C2325 1.429 . S
C2329 C2330 1.523 . S
C2330 C2314 1.368 . S
C2330 C2326 1.368 . S
C2330 C2329 1.523 . S
H2331 C2306 0.950 . S
H2332 C2308 0.950 . S
H2333 C2309 0.949 . S
H2334 C2311 0.950 . S
H2335 C2313 0.950 . S
C2336 C2337 1.349 . S
C2336 C2338 1.327 . S
C2336 H2361 0.950 . S
C2337 C2336 1.349 . S
C2337 C2353 1.349 . S
C2338 C2336 1.327 . S
C2338 C2357 1.429 . S
C2338 H2362 0.950 . S
C2339 C2356 1.574 . S
C2339 C2358 1.368 . S
C2339 H2363 0.949 . S
H2340 C2344 0.949 . S
C2341 C2342 1.349 . S
C2341 C2343 1.327 . S
C2341 H2364 0.950 . S
C2342 C2341 1.349 . S
C2342 C2354 1.349 . S
C2343 C2341 1.327 . S
C2343 C2359 1.429 . S
C2343 H2365 0.950 . S
C2344 H2340 0.949 . S
C2344 C2352 1.574 . S
C2344 C2360 1.368 . S
H2345 C2353 0.950 . S
H2346 C2351 0.950 . S
H2347 C2352 0.949 . S
H2348 C2354 0.950 . S
H2349 C2355 0.950 . S
H2350 C2356 0.949 . S
C2351 H2346 0.950 . S
C2351 C2353 1.327 . S
C2351 C2357 1.429 . S
C2352 C2344 1.574 . S
C2352 H2347 0.949 . S
C2352 C2358 1.368 . S
C2353 C2337 1.349 . S
C2353 H2345 0.950 . S
C2353 C2351 1.327 . S
C2354 C2342 1.349 . S
C2354 H2348 0.950 . S
C2354 C2355 1.327 . S
C2355 H2349 0.950 . S
C2355 C2354 1.327 . S
C2355 C2359 1.429 . S
C2356 C2339 1.574 . S
C2356 H2350 0.949 . S
C2356 C2360 1.368 . S
C2357 C2338 1.429 . S
C2357 C2351 1.429 . S
C2357 C2358 1.523 . S
C2358 C2339 1.368 . S
C2358 C2352 1.368 . S
C2358 C2357 1.523 . S
C2359 C2343 1.429 . S
C2359 C2355 1.429 . S
C2359 C2360 1.523 . S
C2360 C2344 1.368 . S
C2360 C2356 1.368 . S
C2360 C2359 1.523 . S
H2361 C2336 0.950 . S
H2362 C2338 0.950 . S
H2363 C2339 0.949 . S
H2364 C2341 0.950 . S
H2365 C2343 0.950 . S
C2366 C2367 1.349 . S
C2366 C2368 1.327 . S
C2366 H2391 0.950 . S
C2367 C2366 1.349 . S
C2367 C2383 1.349 . S
C2368 C2366 1.327 . S
C2368 C2387 1.429 . S
C2368 H2392 0.950 . S
C2369 C2386 1.574 . S
C2369 C2388 1.368 . S
C2369 H2393 0.949 . S
H2370 C2374 0.949 . S
C2371 C2372 1.349 . S
C2371 C2373 1.327 . S
C2371 H2394 0.950 . S
C2372 C2371 1.349 . S
C2372 C2384 1.349 . S
C2373 C2371 1.327 . S
C2373 C2389 1.429 . S
C2373 H2395 0.950 . S
C2374 H2370 0.949 . S
C2374 C2382 1.574 . S
C2374 C2390 1.368 . S
H2375 C2383 0.950 . S
H2376 C2381 0.950 . S
H2377 C2382 0.949 . S
H2378 C2384 0.950 . S
H2379 C2385 0.950 . S
H2380 C2386 0.949 . S
C2381 H2376 0.950 . S
C2381 C2383 1.327 . S
C2381 C2387 1.429 . S
C2382 C2374 1.574 . S
C2382 H2377 0.949 . S
C2382 C2388 1.368 . S
C2383 C2367 1.349 . S
C2383 H2375 0.950 . S
C2383 C2381 1.327 . S
C2384 C2372 1.349 . S
C2384 H2378 0.950 . S
C2384 C2385 1.327 . S
C2385 H2379 0.950 . S
C2385 C2384 1.327 . S
C2385 C2389 1.429 . S
C2386 C2369 1.574 . S
C2386 H2380 0.949 . S
C2386 C2390 1.368 . S
C2387 C2368 1.429 . S
C2387 C2381 1.429 . S
C2387 C2388 1.523 . S
C2388 C2369 1.368 . S
C2388 C2382 1.368 . S
C2388 C2387 1.523 . S
C2389 C2373 1.429 . S
C2389 C2385 1.429 . S
C2389 C2390 1.523 . S
C2390 C2374 1.368 . S
C2390 C2386 1.368 . S
C2390 C2389 1.523 . S
H2391 C2366 0.950 . S
H2392 C2368 0.950 . S
H2393 C2369 0.949 . S
H2394 C2371 0.950 . S
H2395 C2373 0.950 . S
C2396 C2397 1.349 . S
C2396 C2398 1.327 . S
C2396 H2421 0.950 . S
C2397 C2396 1.349 . S
C2397 C2413 1.349 . S
C2398 C2396 1.327 . S
C2398 C2417 1.429 . S
C2398 H2422 0.950 . S
C2399 C2416 1.574 . S
C2399 C2418 1.368 . S
C2399 H2423 0.949 . S
H2400 C2404 0.949 . S
C2401 C2402 1.349 . S
C2401 C2403 1.327 . S
C2401 H2424 0.950 . S
C2402 C2401 1.349 . S
C2402 C2414 1.349 . S
C2403 C2401 1.327 . S
C2403 C2419 1.429 . S
C2403 H2425 0.950 . S
C2404 H2400 0.949 . S
C2404 C2412 1.574 . S
C2404 C2420 1.368 . S
H2405 C2413 0.950 . S
H2406 C2411 0.950 . S
H2407 C2412 0.949 . S
H2408 C2414 0.950 . S
H2409 C2415 0.950 . S
H2410 C2416 0.949 . S
C2411 H2406 0.950 . S
C2411 C2413 1.327 . S
C2411 C2417 1.429 . S
C2412 C2404 1.574 . S
C2412 H2407 0.949 . S
C2412 C2418 1.368 . S
C2413 C2397 1.349 . S
C2413 H2405 0.950 . S
C2413 C2411 1.327 . S
C2414 C2402 1.349 . S
C2414 H2408 0.950 . S
C2414 C2415 1.327 . S
C2415 H2409 0.950 . S
C2415 C2414 1.327 . S
C2415 C2419 1.429 . S
C2416 C2399 1.574 . S
C2416 H2410 0.949 . S
C2416 C2420 1.368 . S
C2417 C2398 1.429 . S
C2417 C2411 1.429 . S
C2417 C2418 1.523 . S
C2418 C2399 1.368 . S
C2418 C2412 1.368 . S
C2418 C2417 1.523 . S
C2419 C2403 1.429 . S
C2419 C2415 1.429 . S
C2419 C2420 1.523 . S
C2420 C2404 1.368 . S
C2420 C2416 1.368 . S
C2420 C2419 1.523 . S
H2421 C2396 0.950 . S
H2422 C2398 0.950 . S
H2423 C2399 0.949 . S
H2424 C2401 0.950 . S
H2425 C2403 0.950 . S
C2426 C2427 1.349 . S
C2426 C2428 1.327 . S
C2426 H2451 0.950 . S
C2427 C2426 1.349 . S
C2427 C2443 1.349 . S
C2428 C2426 1.327 . S
C2428 C2447 1.429 . S
C2428 H2452 0.950 . S
C2429 C2446 1.574 . S
C2429 C2448 1.368 . S
C2429 H2453 0.949 . S
H2430 C2434 0.949 . S
C2431 C2432 1.349 . S
C2431 C2433 1.327 . S
C2431 H2454 0.950 . S
C2432 C2431 1.349 . S
C2432 C2444 1.349 . S
C2433 C2431 1.327 . S
C2433 C2449 1.429 . S
C2433 H2455 0.950 . S
C2434 H2430 0.949 . S
C2434 C2442 1.574 . S
C2434 C2450 1.368 . S
H2435 C2443 0.950 . S
H2436 C2441 0.950 . S
H2437 C2442 0.949 . S
H2438 C2444 0.950 . S
H2439 C2445 0.950 . S
H2440 C2446 0.949 . S
C2441 H2436 0.950 . S
C2441 C2443 1.327 . S
C2441 C2447 1.429 . S
C2442 C2434 1.574 . S
C2442 H2437 0.949 . S
C2442 C2448 1.368 . S
C2443 C2427 1.349 . S
C2443 H2435 0.950 . S
C2443 C2441 1.327 . S
C2444 C2432 1.349 . S
C2444 H2438 0.950 . S
C2444 C2445 1.327 . S
C2445 H2439 0.950 . S
C2445 C2444 1.327 . S
C2445 C2449 1.429 . S
C2446 C2429 1.574 . S
C2446 H2440 0.949 . S
C2446 C2450 1.368 . S
C2447 C2428 1.429 . S
C2447 C2441 1.429 . S
C2447 C2448 1.523 . S
C2448 C2429 1.368 . S
C2448 C2442 1.368 . S
C2448 C2447 1.523 . S
C2449 C2433 1.429 . S
C2449 C2445 1.429 . S
C2449 C2450 1.523 . S
C2450 C2434 1.368 . S
C2450 C2446 1.368 . S
C2450 C2449 1.523 . S
H2451 C2426 0.950 . S
H2452 C2428 0.950 . S
H2453 C2429 0.949 . S
H2454 C2431 0.950 . S
H2455 C2433 0.950 . S
C2456 C2457 1.349 . S
C2456 C2458 1.327 . S
C2456 H2481 0.950 . S
C2457 C2456 1.349 . S
C2457 C2473 1.349 . S
C2458 C2456 1.327 . S
C2458 C2477 1.429 . S
C2458 H2482 0.950 . S
C2459 C2476 1.574 . S
C2459 C2478 1.368 . S
C2459 H2483 0.949 . S
H2460 C2464 0.949 . S
C2461 C2462 1.349 . S
C2461 C2463 1.327 . S
C2461 H2484 0.950 . S
C2462 C2461 1.349 . S
C2462 C2474 1.349 . S
C2463 C2461 1.327 . S
C2463 C2479 1.429 . S
C2463 H2485 0.950 . S
C2464 H2460 0.949 . S
C2464 C2472 1.574 . S
C2464 C2480 1.368 . S
H2465 C2473 0.950 . S
H2466 C2471 0.950 . S
H2467 C2472 0.949 . S
H2468 C2474 0.950 . S
H2469 C2475 0.950 . S
H2470 C2476 0.949 . S
C2471 H2466 0.950 . S
C2471 C2473 1.327 . S
C2471 C2477 1.429 . S
C2472 C2464 1.574 . S
C2472 H2467 0.949 . S
C2472 C2478 1.368 . S
C2473 C2457 1.349 . S
C2473 H2465 0.950 . S
C2473 C2471 1.327 . S
C2474 C2462 1.349 . S
C2474 H2468 0.950 . S
C2474 C2475 1.327 . S
C2475 H2469 0.950 . S
C2475 C2474 1.327 . S
C2475 C2479 1.429 . S
C2476 C2459 1.574 . S
C2476 H2470 0.949 . S
C2476 C2480 1.368 . S
C2477 C2458 1.429 . S
C2477 C2471 1.429 . S
C2477 C2478 1.523 . S
C2478 C2459 1.368 . S
C2478 C2472 1.368 . S
C2478 C2477 1.523 . S
C2479 C2463 1.429 . S
C2479 C2475 1.429 . S
C2479 C2480 1.523 . S
C2480 C2464 1.368 . S
C2480 C2476 1.368 . S
C2480 C2479 1.523 . S
H2481 C2456 0.950 . S
H2482 C2458 0.950 . S
H2483 C2459 0.949 . S
H2484 C2461 0.950 . S
H2485 C2463 0.950 . S
C2486 C2487 1.349 . S
C2486 C2488 1.327 . S
C2486 H2511 0.950 . S
C2487 C2486 1.349 . S
C2487 C2503 1.349 . S
C2488 C2486 1.327 . S
C2488 C2507 1.429 . S
C2488 H2512 0.950 . S
C2489 C2506 1.574 . S
C2489 C2508 1.368 . S
C2489 H2513 0.949 . S
H2490 C2494 0.949 . S
C2491 C2492 1.349 . S
C2491 C2493 1.327 . S
C2491 H2514 0.950 . S
C2492 C2491 1.349 . S
C2492 C2504 1.349 . S
C2493 C2491 1.327 . S
C2493 C2509 1.429 . S
C2493 H2515 0.950 . S
C2494 H2490 0.949 . S
C2494 C2502 1.574 . S
C2494 C2510 1.368 . S
H2495 C2503 0.950 . S
H2496 C2501 0.950 . S
H2497 C2502 0.949 . S
H2498 C2504 0.950 . S
H2499 C2505 0.950 . S
H2500 C2506 0.949 . S
C2501 H2496 0.950 . S
C2501 C2503 1.327 . S
C2501 C2507 1.429 . S
C2502 C2494 1.574 . S
C2502 H2497 0.949 . S
C2502 C2508 1.368 . S
C2503 C2487 1.349 . S
C2503 H2495 0.950 . S
C2503 C2501 1.327 . S
C2504 C2492 1.349 . S
C2504 H2498 0.950 . S
C2504 C2505 1.327 . S
C2505 H2499 0.950 . S
C2505 C2504 1.327 . S
C2505 C2509 1.429 . S
C2506 C2489 1.574 . S
C2506 H2500 0.949 . S
C2506 C2510 1.368 . S
C2507 C2488 1.429 . S
C2507 C2501 1.429 . S
C2507 C2508 1.523 . S
C2508 C2489 1.368 . S
C2508 C2502 1.368 . S
C2508 C2507 1.523 . S
C2509 C2493 1.429 . S
C2509 C2505 1.429 . S
C2509 C2510 1.523 . S
C2510 C2494 1.368 . S
C2510 C2506 1.368 . S
C2510 C2509 1.523 . S
H2511 C2486 0.950 . S
H2512 C2488 0.950 . S
H2513 C2489 0.949 . S
H2514 C2491 0.950 . S
H2515 C2493 0.950 . S
C2516 C2517 1.349 . S
C2516 C2518 1.327 . S
C2516 H2541 0.950 . S
C2517 C2516 1.349 . S
C2517 C2533 1.349 . S
C2518 C2516 1.327 . S
C2518 C2537 1.429 . S
C2518 H2542 0.950 . S
C2519 C2536 1.574 . S
C2519 C2538 1.368 . S
C2519 H2543 0.949 . S
H2520 C2524 0.949 . S
C2521 C2522 1.349 . S
C2521 C2523 1.327 . S
C2521 H2544 0.950 . S
C2522 C2521 1.349 . S
C2522 C2534 1.349 . S
C2523 C2521 1.327 . S
C2523 C2539 1.429 . S
C2523 H2545 0.950 . S
C2524 H2520 0.949 . S
C2524 C2532 1.574 . S
C2524 C2540 1.368 . S
H2525 C2533 0.950 . S
H2526 C2531 0.950 . S
H2527 C2532 0.949 . S
H2528 C2534 0.950 . S
H2529 C2535 0.950 . S
H2530 C2536 0.949 . S
C2531 H2526 0.950 . S
C2531 C2533 1.327 . S
C2531 C2537 1.429 . S
C2532 C2524 1.574 . S
C2532 H2527 0.949 . S
C2532 C2538 1.368 . S
C2533 C2517 1.349 . S
C2533 H2525 0.950 . S
C2533 C2531 1.327 . S
C2534 C2522 1.349 . S
C2534 H2528 0.950 . S
C2534 C2535 1.327 . S
C2535 H2529 0.950 . S
C2535 C2534 1.327 . S
C2535 C2539 1.429 . S
C2536 C2519 1.574 . S
C2536 H2530 0.949 . S
C2536 C2540 1.368 . S
C2537 C2518 1.429 . S
C2537 C2531 1.429 . S
C2537 C2538 1.523 . S
C2538 C2519 1.368 . S
C2538 C2532 1.368 . S
C2538 C2537 1.523 . S
C2539 C2523 1.429 . S
C2539 C2535 1.429 . S
C2539 C2540 1.523 . S
C2540 C2524 1.368 . S
C2540 C2536 1.368 . S
C2540 C2539 1.523 . S
H2541 C2516 0.950 . S
H2542 C2518 0.950 . S
H2543 C2519 0.949 . S
H2544 C2521 0.950 . S
H2545 C2523 0.950 . S
C2546 C2547 1.349 . S
C2546 C2548 1.327 . S
C2546 H2571 0.950 . S
C2547 C2546 1.349 . S
C2547 C2563 1.349 . S
C2548 C2546 1.327 . S
C2548 C2567 1.429 . S
C2548 H2572 0.950 . S
C2549 C2566 1.574 . S
C2549 C2568 1.368 . S
C2549 H2573 0.949 . S
H2550 C2554 0.949 . S
C2551 C2552 1.349 . S
C2551 C2553 1.327 . S
C2551 H2574 0.950 . S
C2552 C2551 1.349 . S
C2552 C2564 1.349 . S
C2553 C2551 1.327 . S
C2553 C2569 1.429 . S
C2553 H2575 0.950 . S
C2554 H2550 0.949 . S
C2554 C2562 1.574 . S
C2554 C2570 1.368 . S
H2555 C2563 0.950 . S
H2556 C2561 0.950 . S
H2557 C2562 0.949 . S
H2558 C2564 0.950 . S
H2559 C2565 0.950 . S
H2560 C2566 0.949 . S
C2561 H2556 0.950 . S
C2561 C2563 1.327 . S
C2561 C2567 1.429 . S
C2562 C2554 1.574 . S
C2562 H2557 0.949 . S
C2562 C2568 1.368 . S
C2563 C2547 1.349 . S
C2563 H2555 0.950 . S
C2563 C2561 1.327 . S
C2564 C2552 1.349 . S
C2564 H2558 0.950 . S
C2564 C2565 1.327 . S
C2565 H2559 0.950 . S
C2565 C2564 1.327 . S
C2565 C2569 1.429 . S
C2566 C2549 1.574 . S
C2566 H2560 0.949 . S
C2566 C2570 1.368 . S
C2567 C2548 1.429 . S
C2567 C2561 1.429 . S
C2567 C2568 1.523 . S
C2568 C2549 1.368 . S
C2568 C2562 1.368 . S
C2568 C2567 1.523 . S
C2569 C2553 1.429 . S
C2569 C2565 1.429 . S
C2569 C2570 1.523 . S
C2570 C2554 1.368 . S
C2570 C2566 1.368 . S
C2570 C2569 1.523 . S
H2571 C2546 0.950 . S
H2572 C2548 0.950 . S
H2573 C2549 0.949 . S
H2574 C2551 0.950 . S
H2575 C2553 0.950 . S
C2576 C2577 1.349 . S
C2576 C2578 1.327 . S
C2576 H2601 0.950 . S
C2577 C2576 1.349 . S
C2577 C2593 1.349 . S
C2578 C2576 1.327 . S
C2578 C2597 1.429 . S
C2578 H2602 0.950 . S
C2579 C2596 1.574 . S
C2579 C2598 1.368 . S
C2579 H2603 0.949 . S
H2580 C2584 0.949 . S
C2581 C2582 1.349 . S
C2581 C2583 1.327 . S
C2581 H2604 0.950 . S
C2582 C2581 1.349 . S
C2582 C2594 1.349 . S
C2583 C2581 1.327 . S
C2583 C2599 1.429 . S
C2583 H2605 0.950 . S
C2584 H2580 0.949 . S
C2584 C2592 1.574 . S
C2584 C2600 1.368 . S
H2585 C2593 0.950 . S
H2586 C2591 0.950 . S
H2587 C2592 0.949 . S
H2588 C2594 0.950 . S
H2589 C2595 0.950 . S
H2590 C2596 0.949 . S
C2591 H2586 0.950 . S
C2591 C2593 1.327 . S
C2591 C2597 1.429 . S
C2592 C2584 1.574 . S
C2592 H2587 0.949 . S
C2592 C2598 1.368 . S
C2593 C2577 1.349 . S
C2593 H2585 0.950 . S
C2593 C2591 1.327 . S
C2594 C2582 1.349 . S
C2594 H2588 0.950 . S
C2594 C2595 1.327 . S
C2595 H2589 0.950 . S
C2595 C2594 1.327 . S
C2595 C2599 1.429 . S
C2596 C2579 1.574 . S
C2596 H2590 0.949 . S
C2596 C2600 1.368 . S
C2597 C2578 1.429 . S
C2597 C2591 1.429 . S
C2597 C2598 1.523 . S
C2598 C2579 1.368 . S
C2598 C2592 1.368 . S
C2598 C2597 1.523 . S
C2599 C2583 1.429 . S
C2599 C2595 1.429 . S
C2599 C2600 1.523 . S
C2600 C2584 1.368 . S
C2600 C2596 1.368 . S
C2600 C2599 1.523 . S
H2601 C2576 0.950 . S
H2602 C2578 0.950 . S
H2603 C2579 0.949 . S
H2604 C2581 0.950 . S
H2605 C2583 0.950 . S
C2606 C2607 1.349 . S
C2606 C2608 1.327 . S
C2606 H2631 0.950 . S
C2607 C2606 1.349 . S
C2607 C2623 1.349 . S
C2608 C2606 1.327 . S
C2608 C2627 1.429 . S
C2608 H2632 0.950 . S
C2609 C2626 1.574 . S
C2609 C2628 1.368 . S
C2609 H2633 0.949 . S
H2610 C2614 0.949 . S
C2611 C2612 1.349 . S
C2611 C2613 1.327 . S
C2611 H2634 0.950 . S
C2612 C2611 1.349 . S
C2612 C2624 1.349 . S
C2613 C2611 1.327 . S
C2613 C2629 1.429 . S
C2613 H2635 0.950 . S
C2614 H2610 0.949 . S
C2614 C2622 1.574 . S
C2614 C2630 1.368 . S
H2615 C2623 0.950 . S
H2616 C2621 0.950 . S
H2617 C2622 0.949 . S
H2618 C2624 0.950 . S
H2619 C2625 0.950 . S
H2620 C2626 0.949 . S
C2621 H2616 0.950 . S
C2621 C2623 1.327 . S
C2621 C2627 1.429 . S
C2622 C2614 1.574 . S
C2622 H2617 0.949 . S
C2622 C2628 1.368 . S
C2623 C2607 1.349 . S
C2623 H2615 0.950 . S
C2623 C2621 1.327 . S
C2624 C2612 1.349 . S
C2624 H2618 0.950 . S
C2624 C2625 1.327 . S
C2625 H2619 0.950 . S
C2625 C2624 1.327 . S
C2625 C2629 1.429 . S
C2626 C2609 1.574 . S
C2626 H2620 0.949 . S
C2626 C2630 1.368 . S
C2627 C2608 1.429 . S
C2627 C2621 1.429 . S
C2627 C2628 1.523 . S
C2628 C2609 1.368 . S
C2628 C2622 1.368 . S
C2628 C2627 1.523 . S
C2629 C2613 1.429 . S
C2629 C2625 1.429 . S
C2629 C2630 1.523 . S
C2630 C2614 1.368 . S
C2630 C2626 1.368 . S
C2630 C2629 1.523 . S
H2631 C2606 0.950 . S
H2632 C2608 0.950 . S
H2633 C2609 0.949 . S
H2634 C2611 0.950 . S
H2635 C2613 0.950 . S
C2636 C2637 1.349 . S
C2636 C2638 1.327 . S
C2636 H2661 0.950 . S
C2637 C2636 1.349 . S
C2637 C2653 1.349 . S
C2638 C2636 1.327 . S
C2638 C2657 1.429 . S
C2638 H2662 0.950 . S
C2639 C2656 1.574 . S
C2639 C2658 1.368 . S
C2639 H2663 0.949 . S
H2640 C2644 0.949 . S
C2641 C2642 1.349 . S
C2641 C2643 1.327 . S
C2641 H2664 0.950 . S
C2642 C2641 1.349 . S
C2642 C2654 1.349 . S
C2643 C2641 1.327 . S
C2643 C2659 1.429 . S
C2643 H2665 0.950 . S
C2644 H2640 0.949 . S
C2644 C2652 1.574 . S
C2644 C2660 1.368 . S
H2645 C2653 0.950 . S
H2646 C2651 0.950 . S
H2647 C2652 0.949 . S
H2648 C2654 0.950 . S
H2649 C2655 0.950 . S
H2650 C2656 0.949 . S
C2651 H2646 0.950 . S
C2651 C2653 1.327 . S
C2651 C2657 1.429 . S
C2652 C2644 1.574 . S
C2652 H2647 0.949 . S
C2652 C2658 1.368 . S
C2653 C2637 1.349 . S
C2653 H2645 0.950 . S
C2653 C2651 1.327 . S
C2654 C2642 1.349 . S
C2654 H2648 0.950 . S
C2654 C2655 1.327 . S
C2655 H2649 0.950 . S
C2655 C2654 1.327 . S
C2655 C2659 1.429 . S
C2656 C2639 1.574 . S
C2656 H2650 0.949 . S
C2656 C2660 1.368 . S
C2657 C2638 1.429 . S
C2657 C2651 1.429 . S
C2657 C2658 1.523 . S
C2658 C2639 1.368 . S
C2658 C2652 1.368 . S
C2658 C2657 1.523 . S
C2659 C2643 1.429 . S
C2659 C2655 1.429 . S
C2659 C2660 1.523 . S
C2660 C2644 1.368 . S
C2660 C2656 1.368 . S
C2660 C2659 1.523 . S
H2661 C2636 0.950 . S
H2662 C2638 0.950 . S
H2663 C2639 0.949 . S
H2664 C2641 0.950 . S
H2665 C2643 0.950 . S
C2666 C2667 1.349 . S
C2666 C2668 1.327 . S
C2666 H2691 0.950 . S
C2667 C2666 1.349 . S
C2667 C2683 1.349 . S
C2668 C2666 1.327 . S
C2668 C2687 1.429 . S
C2668 H2692 0.950 . S
C2669 C2686 1.574 . S
C2669 C2688 1.368 . S
C2669 H2693 0.949 . S
H2670 C2674 0.949 . S
C2671 C2672 1.349 . S
C2671 C2673 1.327 . S
C2671 H2694 0.950 1_565 S
C2672 C2671 1.349 . S
C2672 C2684 1.349 . S
C2673 C2671 1.327 . S
C2673 C2689 1.429 . S
C2673 H2695 0.950 . S
C2674 H2670 0.949 . S
C2674 C2682 1.574 . S
C2674 C2690 1.368 . S
H2675 C2683 0.950 . S
H2676 C2681 0.950 . S
H2677 C2682 0.949 . S
H2678 C2684 0.950 . S
H2679 C2685 0.950 . S
H2680 C2686 0.949 . S
C2681 H2676 0.950 . S
C2681 C2683 1.327 . S
C2681 C2687 1.429 . S
C2682 C2674 1.574 . S
C2682 H2677 0.949 . S
C2682 C2688 1.368 . S
C2683 C2667 1.349 . S
C2683 H2675 0.950 . S
C2683 C2681 1.327 . S
C2684 C2672 1.349 . S
C2684 H2678 0.950 . S
C2684 C2685 1.327 . S
C2685 H2679 0.950 . S
C2685 C2684 1.327 . S
C2685 C2689 1.429 . S
C2686 C2669 1.574 . S
C2686 H2680 0.949 . S
C2686 C2690 1.368 . S
C2687 C2668 1.429 . S
C2687 C2681 1.429 . S
C2687 C2688 1.523 . S
C2688 C2669 1.368 . S
C2688 C2682 1.368 . S
C2688 C2687 1.523 . S
C2689 C2673 1.429 . S
C2689 C2685 1.429 . S
C2689 C2690 1.523 . S
C2690 C2674 1.368 . S
C2690 C2686 1.368 . S
C2690 C2689 1.523 . S
H2691 C2666 0.950 . S
H2692 C2668 0.950 . S
H2693 C2669 0.949 . S
H2694 C2671 0.950 1_545 S
H2695 C2673 0.950 . S
C2696 C2697 1.349 . S
C2696 C2698 1.327 . S
C2696 H2721 0.950 . S
C2697 C2696 1.349 . S
C2697 C2713 1.349 . S
C2698 C2696 1.327 . S
C2698 C2717 1.429 . S
C2698 H2722 0.950 . S
C2699 C2716 1.574 . S
C2699 C2718 1.368 . S
C2699 H2723 0.949 . S
H2700 C2704 0.949 . S
C2701 C2702 1.349 . S
C2701 C2703 1.327 . S
C2701 H2724 0.950 . S
C2702 C2701 1.349 . S
C2702 C2714 1.349 . S
C2703 C2701 1.327 . S
C2703 C2719 1.429 . S
C2703 H2725 0.950 . S
C2704 H2700 0.949 . S
C2704 C2712 1.574 . S
C2704 C2720 1.368 . S
H2705 C2713 0.950 . S
H2706 C2711 0.950 . S
H2707 C2712 0.949 . S
H2708 C2714 0.950 . S
H2709 C2715 0.950 . S
H2710 C2716 0.949 . S
C2711 H2706 0.950 . S
C2711 C2713 1.327 . S
C2711 C2717 1.429 . S
C2712 C2704 1.574 . S
C2712 H2707 0.949 . S
C2712 C2718 1.368 . S
C2713 C2697 1.349 . S
C2713 H2705 0.950 . S
C2713 C2711 1.327 . S
C2714 C2702 1.349 . S
C2714 H2708 0.950 . S
C2714 C2715 1.327 . S
C2715 H2709 0.950 . S
C2715 C2714 1.327 . S
C2715 C2719 1.429 . S
C2716 C2699 1.574 . S
C2716 H2710 0.949 . S
C2716 C2720 1.368 . S
C2717 C2698 1.429 . S
C2717 C2711 1.429 . S
C2717 C2718 1.523 . S
C2718 C2699 1.368 . S
C2718 C2712 1.368 . S
C2718 C2717 1.523 . S
C2719 C2703 1.429 . S
C2719 C2715 1.429 . S
C2719 C2720 1.523 . S
C2720 C2704 1.368 . S
C2720 C2716 1.368 . S
C2720 C2719 1.523 . S
H2721 C2696 0.950 . S
H2722 C2698 0.950 . S
H2723 C2699 0.949 . S
H2724 C2701 0.950 . S
H2725 C2703 0.950 . S
C2726 C2727 1.349 . S
C2726 C2728 1.327 . S
C2726 H2751 0.950 . S
C2727 C2726 1.349 . S
C2727 C2743 1.349 1_554 S
C2728 C2726 1.327 . S
C2728 C2747 1.429 . S
C2728 H2752 0.950 . S
C2729 C2746 1.574 . S
C2729 C2748 1.368 . S
C2729 H2753 0.949 1_554 S
H2730 C2734 0.949 . S
C2731 C2732 1.349 . S
C2731 C2733 1.327 . S
C2731 H2754 0.950 . S
C2732 C2731 1.349 . S
C2732 C2744 1.349 . S
C2733 C2731 1.327 . S
C2733 C2749 1.429 . S
C2733 H2755 0.950 . S
C2734 H2730 0.949 . S
C2734 C2742 1.574 . S
C2734 C2750 1.368 . S
H2735 C2743 0.950 . S
H2736 C2741 0.950 . S
H2737 C2742 0.949 . S
H2738 C2744 0.950 . S
H2739 C2745 0.950 . S
H2740 C2746 0.949 1_556 S
C2741 H2736 0.950 . S
C2741 C2743 1.327 . S
C2741 C2747 1.429 1_556 S
C2742 C2734 1.574 . S
C2742 H2737 0.949 . S
C2742 C2748 1.368 . S
C2743 C2727 1.349 1_556 S
C2743 H2735 0.950 . S
C2743 C2741 1.327 . S
C2744 C2732 1.349 . S
C2744 H2738 0.950 . S
C2744 C2745 1.327 . S
C2745 H2739 0.950 . S
C2745 C2744 1.327 . S
C2745 C2749 1.429 . S
C2746 C2729 1.574 . S
C2746 H2740 0.949 1_554 S
C2746 C2750 1.368 . S
C2747 C2728 1.429 . S
C2747 C2741 1.429 1_554 S
C2747 C2748 1.523 . S
C2748 C2729 1.368 . S
C2748 C2742 1.368 . S
C2748 C2747 1.523 . S
C2749 C2733 1.429 . S
C2749 C2745 1.429 . S
C2749 C2750 1.523 . S
C2750 C2734 1.368 . S
C2750 C2746 1.368 . S
C2750 C2749 1.523 . S
H2751 C2726 0.950 . S
H2752 C2728 0.950 . S
H2753 C2729 0.949 1_556 S
H2754 C2731 0.950 . S
H2755 C2733 0.950 . S
C2756 C2757 1.349 . S
C2756 C2758 1.327 . S
C2756 H2781 0.950 . S
C2757 C2756 1.349 . S
C2757 C2773 1.349 . S
C2758 C2756 1.327 . S
C2758 C2777 1.429 . S
C2758 H2782 0.950 . S
C2759 C2776 1.574 . S
C2759 C2778 1.368 . S
C2759 H2783 0.949 . S
H2760 C2764 0.949 . S
C2761 C2762 1.349 . S
C2761 C2763 1.327 . S
C2761 H2784 0.950 . S
C2762 C2761 1.349 . S
C2762 C2774 1.349 . S
C2763 C2761 1.327 . S
C2763 C2779 1.429 . S
C2763 H2785 0.950 . S
C2764 H2760 0.949 . S
C2764 C2772 1.574 . S
C2764 C2780 1.368 . S
H2765 C2773 0.950 . S
H2766 C2771 0.950 . S
H2767 C2772 0.949 . S
H2768 C2774 0.950 . S
H2769 C2775 0.950 . S
H2770 C2776 0.949 . S
C2771 H2766 0.950 . S
C2771 C2773 1.327 . S
C2771 C2777 1.429 . S
C2772 C2764 1.574 . S
C2772 H2767 0.949 . S
C2772 C2778 1.368 . S
C2773 C2757 1.349 . S
C2773 H2765 0.950 . S
C2773 C2771 1.327 . S
C2774 C2762 1.349 . S
C2774 H2768 0.950 . S
C2774 C2775 1.327 . S
C2775 H2769 0.950 . S
C2775 C2774 1.327 . S
C2775 C2779 1.429 . S
C2776 C2759 1.574 . S
C2776 H2770 0.949 . S
C2776 C2780 1.368 . S
C2777 C2758 1.429 . S
C2777 C2771 1.429 . S
C2777 C2778 1.523 . S
C2778 C2759 1.368 . S
C2778 C2772 1.368 . S
C2778 C2777 1.523 . S
C2779 C2763 1.429 . S
C2779 C2775 1.429 . S
C2779 C2780 1.523 . S
C2780 C2764 1.368 . S
C2780 C2776 1.368 . S
C2780 C2779 1.523 . S
H2781 C2756 0.950 . S
H2782 C2758 0.950 . S
H2783 C2759 0.949 . S
H2784 C2761 0.950 . S
H2785 C2763 0.950 . S
C2786 C2787 1.349 . S
C2786 C2788 1.327 . S
C2786 H2811 0.950 . S
C2787 C2786 1.349 . S
C2787 C2803 1.349 . S
C2788 C2786 1.327 . S
C2788 C2807 1.429 . S
C2788 H2812 0.950 . S
C2789 C2806 1.574 . S
C2789 C2808 1.368 . S
C2789 H2813 0.949 . S
H2790 C2794 0.949 . S
C2791 C2792 1.349 . S
C2791 C2793 1.327 . S
C2791 H2814 0.950 . S
C2792 C2791 1.349 . S
C2792 C2804 1.349 . S
C2793 C2791 1.327 . S
C2793 C2809 1.429 . S
C2793 H2815 0.950 . S
C2794 H2790 0.949 . S
C2794 C2802 1.574 . S
C2794 C2810 1.368 . S
H2795 C2803 0.950 . S
H2796 C2801 0.950 . S
H2797 C2802 0.949 . S
H2798 C2804 0.950 . S
H2799 C2805 0.950 . S
H2800 C2806 0.949 . S
C2801 H2796 0.950 . S
C2801 C2803 1.327 . S
C2801 C2807 1.429 . S
C2802 C2794 1.574 . S
C2802 H2797 0.949 . S
C2802 C2808 1.368 . S
C2803 C2787 1.349 . S
C2803 H2795 0.950 . S
C2803 C2801 1.327 . S
C2804 C2792 1.349 . S
C2804 H2798 0.950 . S
C2804 C2805 1.327 . S
C2805 H2799 0.950 . S
C2805 C2804 1.327 . S
C2805 C2809 1.429 . S
C2806 C2789 1.574 . S
C2806 H2800 0.949 . S
C2806 C2810 1.368 . S
C2807 C2788 1.429 . S
C2807 C2801 1.429 . S
C2807 C2808 1.523 . S
C2808 C2789 1.368 . S
C2808 C2802 1.368 . S
C2808 C2807 1.523 . S
C2809 C2793 1.429 . S
C2809 C2805 1.429 . S
C2809 C2810 1.523 . S
C2810 C2794 1.368 . S
C2810 C2806 1.368 . S
C2810 C2809 1.523 . S
H2811 C2786 0.950 . S
H2812 C2788 0.950 . S
H2813 C2789 0.949 . S
H2814 C2791 0.950 . S
H2815 C2793 0.950 . S
C2816 C2817 1.349 . S
C2816 C2818 1.327 . S
C2816 H2841 0.950 . S
C2817 C2816 1.349 . S
C2817 C2833 1.349 . S
C2818 C2816 1.327 . S
C2818 C2837 1.429 . S
C2818 H2842 0.950 . S
C2819 C2836 1.574 . S
C2819 C2838 1.368 . S
C2819 H2843 0.949 . S
H2820 C2824 0.949 . S
C2821 C2822 1.349 . S
C2821 C2823 1.327 . S
C2821 H2844 0.950 . S
C2822 C2821 1.349 . S
C2822 C2834 1.349 . S
C2823 C2821 1.327 . S
C2823 C2839 1.429 . S
C2823 H2845 0.950 . S
C2824 H2820 0.949 . S
C2824 C2832 1.574 . S
C2824 C2840 1.368 . S
H2825 C2833 0.950 . S
H2826 C2831 0.950 . S
H2827 C2832 0.949 . S
H2828 C2834 0.950 . S
H2829 C2835 0.950 . S
H2830 C2836 0.949 . S
C2831 H2826 0.950 . S
C2831 C2833 1.327 . S
C2831 C2837 1.429 . S
C2832 C2824 1.574 . S
C2832 H2827 0.949 . S
C2832 C2838 1.368 . S
C2833 C2817 1.349 . S
C2833 H2825 0.950 . S
C2833 C2831 1.327 . S
C2834 C2822 1.349 . S
C2834 H2828 0.950 . S
C2834 C2835 1.327 . S
C2835 H2829 0.950 . S
C2835 C2834 1.327 . S
C2835 C2839 1.429 . S
C2836 C2819 1.574 . S
C2836 H2830 0.949 . S
C2836 C2840 1.368 . S
C2837 C2818 1.429 . S
C2837 C2831 1.429 . S
C2837 C2838 1.523 . S
C2838 C2819 1.368 . S
C2838 C2832 1.368 . S
C2838 C2837 1.523 . S
C2839 C2823 1.429 . S
C2839 C2835 1.429 . S
C2839 C2840 1.523 . S
C2840 C2824 1.368 . S
C2840 C2836 1.368 . S
C2840 C2839 1.523 . S
H2841 C2816 0.950 . S
H2842 C2818 0.950 . S
H2843 C2819 0.949 . S
H2844 C2821 0.950 . S
H2845 C2823 0.950 . S
C2846 C2847 1.349 . S
C2846 C2848 1.327 . S
C2846 H2871 0.950 . S
C2847 C2846 1.349 . S
C2847 C2863 1.349 . S
C2848 C2846 1.327 . S
C2848 C2867 1.429 . S
C2848 H2872 0.950 . S
C2849 C2866 1.574 . S
C2849 C2868 1.368 . S
C2849 H2873 0.949 . S
H2850 C2854 0.949 . S
C2851 C2852 1.349 . S
C2851 C2853 1.327 . S
C2851 H2874 0.950 . S
C2852 C2851 1.349 . S
C2852 C2864 1.349 . S
C2853 C2851 1.327 . S
C2853 C2869 1.429 . S
C2853 H2875 0.950 . S
C2854 H2850 0.949 . S
C2854 C2862 1.574 . S
C2854 C2870 1.368 . S
H2855 C2863 0.950 . S
H2856 C2861 0.950 . S
H2857 C2862 0.949 . S
H2858 C2864 0.950 . S
H2859 C2865 0.950 . S
H2860 C2866 0.949 . S
C2861 H2856 0.950 . S
C2861 C2863 1.327 . S
C2861 C2867 1.429 . S
C2862 C2854 1.574 . S
C2862 H2857 0.949 . S
C2862 C2868 1.368 . S
C2863 C2847 1.349 . S
C2863 H2855 0.950 . S
C2863 C2861 1.327 . S
C2864 C2852 1.349 . S
C2864 H2858 0.950 . S
C2864 C2865 1.327 . S
C2865 H2859 0.950 . S
C2865 C2864 1.327 . S
C2865 C2869 1.429 . S
C2866 C2849 1.574 . S
C2866 H2860 0.949 . S
C2866 C2870 1.368 . S
C2867 C2848 1.429 . S
C2867 C2861 1.429 . S
C2867 C2868 1.523 . S
C2868 C2849 1.368 . S
C2868 C2862 1.368 . S
C2868 C2867 1.523 . S
C2869 C2853 1.429 . S
C2869 C2865 1.429 . S
C2869 C2870 1.523 . S
C2870 C2854 1.368 . S
C2870 C2866 1.368 . S
C2870 C2869 1.523 . S
H2871 C2846 0.950 . S
H2872 C2848 0.950 . S
H2873 C2849 0.949 . S
H2874 C2851 0.950 . S
H2875 C2853 0.950 . S
C2876 C2877 1.349 . S
C2876 C2878 1.327 . S
C2876 H2901 0.950 . S
C2877 C2876 1.349 . S
C2877 C2893 1.349 . S
C2878 C2876 1.327 . S
C2878 C2897 1.429 . S
C2878 H2902 0.950 . S
C2879 C2896 1.574 . S
C2879 C2898 1.368 . S
C2879 H2903 0.949 1_455 S
H2880 C2884 0.949 . S
C2881 C2882 1.349 . S
C2881 C2883 1.327 . S
C2881 H2904 0.950 1_455 S
C2882 C2881 1.349 . S
C2882 C2894 1.349 . S
C2883 C2881 1.327 . S
C2883 C2899 1.429 . S
C2883 H2905 0.950 1_455 S
C2884 H2880 0.949 . S
C2884 C2892 1.574 . S
C2884 C2900 1.368 . S
H2885 C2893 0.953 . S
H2886 C2891 0.929 1_655 S
H2887 C2892 0.949 . S
H2888 C2894 0.950 . S
H2889 C2895 0.950 . S
H2890 C2896 0.949 1_655 S
C2891 H2886 0.929 1_455 S
C2891 C2893 1.327 . S
C2891 C2897 1.429 . S
C2892 C2884 1.574 . S
C2892 H2887 0.949 . S
C2892 C2898 1.368 . S
C2893 C2877 1.349 . S
C2893 H2885 0.953 . S
C2893 C2891 1.327 . S
C2894 C2882 1.349 . S
C2894 H2888 0.950 . S
C2894 C2895 1.327 . S
C2895 H2889 0.950 . S
C2895 C2894 1.327 . S
C2895 C2899 1.429 . S
C2896 C2879 1.574 . S
C2896 H2890 0.949 1_455 S
C2896 C2900 1.368 . S
C2897 C2878 1.429 . S
C2897 C2891 1.429 . S
C2897 C2898 1.523 . S
C2898 C2879 1.368 . S
C2898 C2892 1.368 . S
C2898 C2897 1.523 . S
C2899 C2883 1.429 . S
C2899 C2895 1.429 . S
C2899 C2900 1.523 . S
C2900 C2884 1.368 . S
C2900 C2896 1.368 . S
C2900 C2899 1.523 . S
H2901 C2876 0.950 . S
H2902 C2878 0.950 . S
H2903 C2879 0.949 1_655 S
H2904 C2881 0.950 1_655 S
H2905 C2883 0.950 1_655 S
C2906 C2907 1.349 . S
C2906 C2908 1.327 . S
C2906 H2931 0.950 . S
C2907 C2906 1.349 . S
C2907 C2923 1.349 . S
C2908 C2906 1.327 . S
C2908 C2927 1.429 . S
C2908 H2932 0.950 . S
C2909 C2926 1.574 . S
C2909 C2928 1.368 . S
C2909 H2933 0.949 . S
H2910 C2914 0.949 . S
C2911 C2912 1.349 . S
C2911 C2913 1.327 . S
C2911 H2934 0.950 . S
C2912 C2911 1.349 . S
C2912 C2924 1.349 . S
C2913 C2911 1.327 . S
C2913 C2929 1.429 . S
C2913 H2935 0.950 . S
C2914 H2910 0.949 . S
C2914 C2922 1.574 . S
C2914 C2930 1.368 . S
H2915 C2923 0.950 . S
H2916 C2921 0.950 . S
H2917 C2922 0.949 . S
H2918 C2924 0.950 . S
H2919 C2925 0.950 . S
H2920 C2926 0.949 . S
C2921 H2916 0.950 . S
C2921 C2923 1.327 . S
C2921 C2927 1.429 . S
C2922 C2914 1.574 . S
C2922 H2917 0.949 . S
C2922 C2928 1.368 . S
C2923 C2907 1.349 . S
C2923 H2915 0.950 . S
C2923 C2921 1.327 . S
C2924 C2912 1.349 . S
C2924 H2918 0.950 . S
C2924 C2925 1.327 . S
C2925 H2919 0.950 . S
C2925 C2924 1.327 . S
C2925 C2929 1.429 . S
C2926 C2909 1.574 . S
C2926 H2920 0.949 . S
C2926 C2930 1.368 . S
C2927 C2908 1.429 . S
C2927 C2921 1.429 . S
C2927 C2928 1.523 . S
C2928 C2909 1.368 . S
C2928 C2922 1.368 . S
C2928 C2927 1.523 . S
C2929 C2913 1.429 . S
C2929 C2925 1.429 . S
C2929 C2930 1.523 . S
C2930 C2914 1.368 . S
C2930 C2926 1.368 . S
C2930 C2929 1.523 . S
H2931 C2906 0.950 . S
H2932 C2908 0.950 . S
H2933 C2909 0.949 . S
H2934 C2911 0.950 . S
H2935 C2913 0.950 . S
C2936 C2937 1.349 . S
C2936 C2938 1.327 . S
C2936 H2961 0.950 . S
C2937 C2936 1.349 . S
C2937 C2953 1.349 . S
C2938 C2936 1.327 . S
C2938 C2957 1.429 . S
C2938 H2962 0.950 . S
C2939 C2956 1.574 . S
C2939 C2958 1.368 . S
C2939 H2963 0.949 . S
H2940 C2944 0.949 . S
C2941 C2942 1.349 . S
C2941 C2943 1.327 . S
C2941 H2964 0.950 . S
C2942 C2941 1.349 . S
C2942 C2954 1.349 . S
C2943 C2941 1.327 . S
C2943 C2959 1.429 . S
C2943 H2965 0.950 . S
C2944 H2940 0.949 . S
C2944 C2952 1.574 . S
C2944 C2960 1.368 . S
H2945 C2953 0.950 . S
H2946 C2951 0.950 . S
H2947 C2952 0.949 . S
H2948 C2954 0.950 1_554 S
H2949 C2955 0.950 . S
H2950 C2956 0.949 . S
C2951 H2946 0.950 . S
C2951 C2953 1.327 . S
C2951 C2957 1.429 . S
C2952 C2944 1.574 . S
C2952 H2947 0.949 . S
C2952 C2958 1.368 . S
C2953 C2937 1.349 . S
C2953 H2945 0.950 . S
C2953 C2951 1.327 . S
C2954 C2942 1.349 . S
C2954 H2948 0.950 1_556 S
C2954 C2955 1.327 . S
C2955 H2949 0.950 . S
C2955 C2954 1.327 . S
C2955 C2959 1.429 . S
C2956 C2939 1.574 . S
C2956 H2950 0.949 . S
C2956 C2960 1.368 . S
C2957 C2938 1.429 . S
C2957 C2951 1.429 . S
C2957 C2958 1.523 . S
C2958 C2939 1.368 . S
C2958 C2952 1.368 . S
C2958 C2957 1.523 . S
C2959 C2943 1.429 . S
C2959 C2955 1.429 . S
C2959 C2960 1.523 . S
C2960 C2944 1.368 . S
C2960 C2956 1.368 . S
C2960 C2959 1.523 . S
H2961 C2936 0.950 . S
H2962 C2938 0.950 . S
H2963 C2939 0.949 . S
H2964 C2941 0.950 . S
H2965 C2943 0.950 . S
C2966 C2967 1.349 . S
C2966 C2968 1.327 . S
C2966 H2991 0.950 . S
C2967 C2966 1.349 . S
C2967 C2983 1.349 . S
C2968 C2966 1.327 . S
C2968 C2987 1.429 . S
C2968 H2992 0.950 . S
C2969 C2986 1.574 . S
C2969 C2988 1.368 . S
C2969 H2993 0.949 . S
H2970 C2974 0.949 . S
C2971 C2972 1.349 . S
C2971 C2973 1.327 . S
C2971 H2994 0.950 . S
C2972 C2971 1.349 . S
C2972 C2984 1.349 . S
C2973 C2971 1.327 . S
C2973 C2989 1.429 . S
C2973 H2995 0.950 . S
C2974 H2970 0.949 . S
C2974 C2982 1.574 . S
C2974 C2990 1.368 . S
H2975 C2983 0.950 . S
H2976 C2981 0.950 . S
H2977 C2982 0.949 . S
H2978 C2984 0.950 . S
H2979 C2985 0.950 . S
H2980 C2986 0.949 . S
C2981 H2976 0.950 . S
C2981 C2983 1.327 . S
C2981 C2987 1.429 . S
C2982 C2974 1.574 . S
C2982 H2977 0.949 . S
C2982 C2988 1.368 . S
C2983 C2967 1.349 . S
C2983 H2975 0.950 . S
C2983 C2981 1.327 . S
C2984 C2972 1.349 . S
C2984 H2978 0.950 . S
C2984 C2985 1.327 . S
C2985 H2979 0.950 . S
C2985 C2984 1.327 . S
C2985 C2989 1.429 . S
C2986 C2969 1.574 . S
C2986 H2980 0.949 . S
C2986 C2990 1.368 . S
C2987 C2968 1.429 . S
C2987 C2981 1.429 . S
C2987 C2988 1.523 . S
C2988 C2969 1.368 . S
C2988 C2982 1.368 . S
C2988 C2987 1.523 . S
C2989 C2973 1.429 . S
C2989 C2985 1.429 . S
C2989 C2990 1.523 . S
C2990 C2974 1.368 . S
C2990 C2986 1.368 . S
C2990 C2989 1.523 . S
H2991 C2966 0.950 . S
H2992 C2968 0.950 . S
H2993 C2969 0.949 . S
H2994 C2971 0.950 . S
H2995 C2973 0.950 . S
C2996 C2997 1.349 . S
C2996 C2998 1.327 . S
C2996 H3021 0.950 . S
C2997 C2996 1.349 . S
C2997 C3013 1.349 . S
C2998 C2996 1.327 . S
C2998 C3017 1.429 . S
C2998 H3022 0.950 . S
C2999 C3016 1.574 . S
C2999 C3018 1.368 . S
C2999 H3023 0.949 . S
H3000 C3004 0.949 . S
C3001 C3002 1.349 . S
C3001 C3003 1.327 . S
C3001 H3024 0.950 . S
C3002 C3001 1.349 . S
C3002 C3014 1.349 . S
C3003 C3001 1.327 . S
C3003 C3019 1.429 . S
C3003 H3025 0.950 . S
C3004 H3000 0.949 . S
C3004 C3012 1.574 . S
C3004 C3020 1.368 . S
H3005 C3013 0.950 . S
H3006 C3011 0.950 . S
H3007 C3012 0.949 . S
H3008 C3014 0.950 . S
H3009 C3015 0.950 . S
H3010 C3016 0.949 . S
C3011 H3006 0.950 . S
C3011 C3013 1.327 . S
C3011 C3017 1.429 . S
C3012 C3004 1.574 . S
C3012 H3007 0.949 . S
C3012 C3018 1.368 . S
C3013 C2997 1.349 . S
C3013 H3005 0.950 . S
C3013 C3011 1.327 . S
C3014 C3002 1.349 . S
C3014 H3008 0.950 . S
C3014 C3015 1.327 . S
C3015 H3009 0.950 . S
C3015 C3014 1.327 . S
C3015 C3019 1.429 . S
C3016 C2999 1.574 . S
C3016 H3010 0.949 . S
C3016 C3020 1.368 . S
C3017 C2998 1.429 . S
C3017 C3011 1.429 . S
C3017 C3018 1.523 . S
C3018 C2999 1.368 . S
C3018 C3012 1.368 . S
C3018 C3017 1.523 . S
C3019 C3003 1.429 . S
C3019 C3015 1.429 . S
C3019 C3020 1.523 . S
C3020 C3004 1.368 . S
C3020 C3016 1.368 . S
C3020 C3019 1.523 . S
H3021 C2996 0.950 . S
H3022 C2998 0.950 . S
H3023 C2999 0.949 . S
H3024 C3001 0.950 . S
H3025 C3003 0.950 . S
C3026 C3027 1.349 . S
C3026 C3028 1.327 . S
C3026 H3051 0.950 . S
C3027 C3026 1.349 . S
C3027 C3043 1.349 . S
C3028 C3026 1.327 . S
C3028 C3047 1.429 . S
C3028 H3052 0.950 . S
C3029 C3046 1.574 . S
C3029 C3048 1.368 . S
C3029 H3053 0.949 . S
H3030 C3034 0.949 . S
C3031 C3032 1.349 . S
C3031 C3033 1.327 . S
C3031 H3054 0.950 . S
C3032 C3031 1.349 . S
C3032 C3044 1.349 . S
C3033 C3031 1.327 . S
C3033 C3049 1.429 . S
C3033 H3055 0.950 . S
C3034 H3030 0.949 . S
C3034 C3042 1.574 . S
C3034 C3050 1.368 . S
H3035 C3043 0.950 . S
H3036 C3041 0.950 . S
H3037 C3042 0.949 . S
H3038 C3044 0.950 . S
H3039 C3045 0.950 . S
H3040 C3046 0.949 . S
C3041 H3036 0.950 . S
C3041 C3043 1.327 . S
C3041 C3047 1.429 . S
C3042 C3034 1.574 . S
C3042 H3037 0.949 . S
C3042 C3048 1.368 . S
C3043 C3027 1.349 . S
C3043 H3035 0.950 . S
C3043 C3041 1.327 . S
C3044 C3032 1.349 . S
C3044 H3038 0.950 . S
C3044 C3045 1.327 . S
C3045 H3039 0.950 . S
C3045 C3044 1.327 . S
C3045 C3049 1.429 . S
C3046 C3029 1.574 . S
C3046 H3040 0.949 . S
C3046 C3050 1.368 . S
C3047 C3028 1.429 . S
C3047 C3041 1.429 . S
C3047 C3048 1.523 . S
C3048 C3029 1.368 . S
C3048 C3042 1.368 . S
C3048 C3047 1.523 . S
C3049 C3033 1.429 . S
C3049 C3045 1.429 . S
C3049 C3050 1.523 . S
C3050 C3034 1.368 . S
C3050 C3046 1.368 . S
C3050 C3049 1.523 . S
H3051 C3026 0.950 . S
H3052 C3028 0.950 . S
H3053 C3029 0.949 . S
H3054 C3031 0.950 . S
H3055 C3033 0.950 . S
C3056 C3057 1.349 . S
C3056 C3058 1.327 . S
C3056 H3081 0.950 . S
C3057 C3056 1.349 . S
C3057 C3073 1.349 . S
C3058 C3056 1.327 . S
C3058 C3077 1.429 . S
C3058 H3082 0.950 . S
C3059 C3076 1.574 . S
C3059 C3078 1.368 . S
C3059 H3083 0.949 . S
H3060 C3064 0.949 . S
C3061 C3062 1.349 . S
C3061 C3063 1.327 . S
C3061 H3084 0.950 . S
C3062 C3061 1.349 . S
C3062 C3074 1.349 . S
C3063 C3061 1.327 . S
C3063 C3079 1.429 . S
C3063 H3085 0.950 . S
C3064 H3060 0.949 . S
C3064 C3072 1.574 . S
C3064 C3080 1.368 . S
H3065 C3073 0.950 . S
H3066 C3071 0.950 . S
H3067 C3072 0.949 . S
H3068 C3074 0.950 . S
H3069 C3075 0.950 . S
H3070 C3076 0.949 . S
C3071 H3066 0.950 . S
C3071 C3073 1.327 . S
C3071 C3077 1.429 . S
C3072 C3064 1.574 . S
C3072 H3067 0.949 . S
C3072 C3078 1.368 . S
C3073 C3057 1.349 . S
C3073 H3065 0.950 . S
C3073 C3071 1.327 . S
C3074 C3062 1.349 . S
C3074 H3068 0.950 . S
C3074 C3075 1.327 . S
C3075 H3069 0.950 . S
C3075 C3074 1.327 . S
C3075 C3079 1.429 . S
C3076 C3059 1.574 . S
C3076 H3070 0.949 . S
C3076 C3080 1.368 . S
C3077 C3058 1.429 . S
C3077 C3071 1.429 . S
C3077 C3078 1.523 . S
C3078 C3059 1.368 . S
C3078 C3072 1.368 . S
C3078 C3077 1.523 . S
C3079 C3063 1.429 . S
C3079 C3075 1.429 . S
C3079 C3080 1.523 . S
C3080 C3064 1.368 . S
C3080 C3076 1.368 . S
C3080 C3079 1.523 . S
H3081 C3056 0.950 . S
H3082 C3058 0.950 . S
H3083 C3059 0.949 . S
H3084 C3061 0.950 . S
H3085 C3063 0.950 . S
C3086 C3087 1.349 . S
C3086 C3088 1.327 . S
C3086 H3111 0.950 . S
C3087 C3086 1.349 . S
C3087 C3103 1.349 . S
C3088 C3086 1.327 . S
C3088 C3107 1.429 . S
C3088 H3112 0.950 . S
C3089 C3106 1.574 . S
C3089 C3108 1.368 . S
C3089 H3113 0.949 . S
H3090 C3094 0.949 . S
C3091 C3092 1.349 . S
C3091 C3093 1.327 . S
C3091 H3114 0.950 . S
C3092 C3091 1.349 . S
C3092 C3104 1.349 . S
C3093 C3091 1.327 . S
C3093 C3109 1.429 . S
C3093 H3115 0.950 . S
C3094 H3090 0.949 . S
C3094 C3102 1.574 . S
C3094 C3110 1.368 . S
H3095 C3103 0.950 . S
H3096 C3101 0.950 . S
H3097 C3102 0.949 . S
H3098 C3104 0.950 . S
H3099 C3105 0.950 . S
H3100 C3106 0.949 . S
C3101 H3096 0.950 . S
C3101 C3103 1.327 . S
C3101 C3107 1.429 . S
C3102 C3094 1.574 . S
C3102 H3097 0.949 . S
C3102 C3108 1.368 . S
C3103 C3087 1.349 . S
C3103 H3095 0.950 . S
C3103 C3101 1.327 . S
C3104 C3092 1.349 . S
C3104 H3098 0.950 . S
C3104 C3105 1.327 . S
C3105 H3099 0.950 . S
C3105 C3104 1.327 . S
C3105 C3109 1.429 . S
C3106 C3089 1.574 . S
C3106 H3100 0.949 . S
C3106 C3110 1.368 . S
C3107 C3088 1.429 . S
C3107 C3101 1.429 . S
C3107 C3108 1.523 . S
C3108 C3089 1.368 . S
C3108 C3102 1.368 . S
C3108 C3107 1.523 . S
C3109 C3093 1.429 . S
C3109 C3105 1.429 . S
C3109 C3110 1.523 . S
C3110 C3094 1.368 . S
C3110 C3106 1.368 . S
C3110 C3109 1.523 . S
H3111 C3086 0.950 . S
H3112 C3088 0.950 . S
H3113 C3089 0.949 . S
H3114 C3091 0.950 . S
H3115 C3093 0.950 . S
C3116 C3117 1.349 . S
C3116 C3118 1.327 . S
C3116 H3141 0.950 . S
C3117 C3116 1.349 . S
C3117 C3133 1.349 . S
C3118 C3116 1.327 . S
C3118 C3137 1.429 . S
C3118 H3142 0.950 . S
C3119 C3136 1.574 . S
C3119 C3138 1.368 . S
C3119 H3143 0.949 . S
H3120 C3124 0.949 . S
C3121 C3122 1.349 . S
C3121 C3123 1.327 . S
C3121 H3144 0.950 . S
C3122 C3121 1.349 . S
C3122 C3134 1.349 . S
C3123 C3121 1.327 . S
C3123 C3139 1.429 . S
C3123 H3145 0.950 . S
C3124 H3120 0.949 . S
C3124 C3132 1.574 . S
C3124 C3140 1.368 . S
H3125 C3133 0.950 . S
H3126 C3131 0.950 . S
H3127 C3132 0.949 . S
H3128 C3134 0.950 1_455 S
H3129 C3135 0.950 . S
H3130 C3136 0.949 . S
C3131 H3126 0.950 . S
C3131 C3133 1.327 . S
C3131 C3137 1.429 . S
C3132 C3124 1.574 . S
C3132 H3127 0.949 . S
C3132 C3138 1.368 . S
C3133 C3117 1.349 . S
C3133 H3125 0.950 . S
C3133 C3131 1.327 . S
C3134 C3122 1.349 . S
C3134 H3128 0.950 1_655 S
C3134 C3135 1.327 . S
C3135 H3129 0.950 . S
C3135 C3134 1.327 . S
C3135 C3139 1.429 . S
C3136 C3119 1.574 . S
C3136 H3130 0.949 . S
C3136 C3140 1.368 . S
C3137 C3118 1.429 . S
C3137 C3131 1.429 . S
C3137 C3138 1.523 . S
C3138 C3119 1.368 . S
C3138 C3132 1.368 . S
C3138 C3137 1.523 . S
C3139 C3123 1.429 . S
C3139 C3135 1.429 . S
C3139 C3140 1.523 . S
C3140 C3124 1.368 . S
C3140 C3136 1.368 . S
C3140 C3139 1.523 . S
H3141 C3116 0.950 . S
H3142 C3118 0.950 . S
H3143 C3119 0.949 . S
H3144 C3121 0.950 . S
H3145 C3123 0.950 . S
C3146 C3147 1.349 . S
C3146 C3148 1.327 . S
C3146 H3171 0.950 . S
C3147 C3146 1.349 . S
C3147 C3163 1.349 . S
C3148 C3146 1.327 . S
C3148 C3167 1.429 . S
C3148 H3172 0.950 . S
C3149 C3166 1.574 . S
C3149 C3168 1.368 . S
C3149 H3173 0.949 . S
H3150 C3154 0.949 . S
C3151 C3152 1.349 . S
C3151 C3153 1.327 . S
C3151 H3174 0.950 . S
C3152 C3151 1.349 . S
C3152 C3164 1.349 . S
C3153 C3151 1.327 . S
C3153 C3169 1.429 . S
C3153 H3175 0.950 . S
C3154 H3150 0.949 . S
C3154 C3162 1.574 . S
C3154 C3170 1.368 . S
H3155 C3163 0.950 . S
H3156 C3161 0.950 . S
H3157 C3162 0.949 . S
H3158 C3164 0.950 . S
H3159 C3165 0.950 . S
H3160 C3166 0.949 . S
C3161 H3156 0.950 . S
C3161 C3163 1.327 . S
C3161 C3167 1.429 . S
C3162 C3154 1.574 . S
C3162 H3157 0.949 . S
C3162 C3168 1.368 . S
C3163 C3147 1.349 . S
C3163 H3155 0.950 . S
C3163 C3161 1.327 . S
C3164 C3152 1.349 . S
C3164 H3158 0.950 . S
C3164 C3165 1.327 . S
C3165 H3159 0.950 . S
C3165 C3164 1.327 . S
C3165 C3169 1.429 . S
C3166 C3149 1.574 . S
C3166 H3160 0.949 . S
C3166 C3170 1.368 . S
C3167 C3148 1.429 . S
C3167 C3161 1.429 . S
C3167 C3168 1.523 . S
C3168 C3149 1.368 . S
C3168 C3162 1.368 . S
C3168 C3167 1.523 . S
C3169 C3153 1.429 . S
C3169 C3165 1.429 . S
C3169 C3170 1.523 . S
C3170 C3154 1.368 . S
C3170 C3166 1.368 . S
C3170 C3169 1.523 . S
H3171 C3146 0.950 . S
H3172 C3148 0.950 . S
H3173 C3149 0.949 . S
H3174 C3151 0.950 . S
H3175 C3153 0.950 . S
C3176 C3177 1.349 . S
C3176 C3178 1.327 . S
C3176 H3201 0.950 . S
C3177 C3176 1.349 . S
C3177 C3193 1.349 . S
C3178 C3176 1.327 . S
C3178 C3197 1.429 . S
C3178 H3202 0.950 . S
C3179 C3196 1.574 . S
C3179 C3198 1.368 . S
C3179 H3203 0.949 . S
H3180 C3184 0.949 . S
C3181 C3182 1.349 . S
C3181 C3183 1.327 . S
C3181 H3204 0.950 . S
C3182 C3181 1.349 . S
C3182 C3194 1.349 . S
C3183 C3181 1.327 . S
C3183 C3199 1.429 . S
C3183 H3205 0.950 . S
C3184 H3180 0.949 . S
C3184 C3192 1.574 . S
C3184 C3200 1.368 . S
H3185 C3193 0.950 . S
H3186 C3191 0.950 . S
H3187 C3192 0.949 . S
H3188 C3194 0.950 . S
H3189 C3195 0.950 . S
H3190 C3196 0.949 . S
C3191 H3186 0.950 . S
C3191 C3193 1.327 . S
C3191 C3197 1.429 . S
C3192 C3184 1.574 . S
C3192 H3187 0.949 . S
C3192 C3198 1.368 . S
C3193 C3177 1.349 . S
C3193 H3185 0.950 . S
C3193 C3191 1.327 . S
C3194 C3182 1.349 . S
C3194 H3188 0.950 . S
C3194 C3195 1.327 . S
C3195 H3189 0.950 . S
C3195 C3194 1.327 . S
C3195 C3199 1.429 . S
C3196 C3179 1.574 . S
C3196 H3190 0.949 . S
C3196 C3200 1.368 . S
C3197 C3178 1.429 . S
C3197 C3191 1.429 . S
C3197 C3198 1.523 . S
C3198 C3179 1.368 . S
C3198 C3192 1.368 . S
C3198 C3197 1.523 . S
C3199 C3183 1.429 . S
C3199 C3195 1.429 . S
C3199 C3200 1.523 . S
C3200 C3184 1.368 . S
C3200 C3196 1.368 . S
C3200 C3199 1.523 . S
H3201 C3176 0.950 . S
H3202 C3178 0.950 . S
H3203 C3179 0.949 . S
H3204 C3181 0.950 . S
H3205 C3183 0.950 . S
C3206 C3207 1.349 . S
C3206 C3208 1.327 . S
C3206 H3231 0.950 . S
C3207 C3206 1.349 . S
C3207 C3223 1.349 . S
C3208 C3206 1.327 . S
C3208 C3227 1.429 . S
C3208 H3232 0.950 . S
C3209 C3226 1.574 . S
C3209 C3228 1.368 . S
C3209 H3233 0.949 . S
H3210 C3214 0.949 . S
C3211 C3212 1.349 . S
C3211 C3213 1.327 . S
C3211 H3234 0.950 . S
C3212 C3211 1.349 . S
C3212 C3224 1.349 . S
C3213 C3211 1.327 . S
C3213 C3229 1.429 . S
C3213 H3235 0.950 . S
C3214 H3210 0.949 . S
C3214 C3222 1.574 . S
C3214 C3230 1.368 . S
H3215 C3223 0.950 . S
H3216 C3221 0.950 . S
H3217 C3222 0.949 . S
H3218 C3224 0.950 . S
H3219 C3225 0.950 . S
H3220 C3226 0.949 . S
C3221 H3216 0.950 . S
C3221 C3223 1.327 . S
C3221 C3227 1.429 . S
C3222 C3214 1.574 . S
C3222 H3217 0.949 . S
C3222 C3228 1.368 . S
C3223 C3207 1.349 . S
C3223 H3215 0.950 . S
C3223 C3221 1.327 . S
C3224 C3212 1.349 . S
C3224 H3218 0.950 . S
C3224 C3225 1.327 . S
C3225 H3219 0.950 . S
C3225 C3224 1.327 . S
C3225 C3229 1.429 . S
C3226 C3209 1.574 . S
C3226 H3220 0.949 . S
C3226 C3230 1.368 . S
C3227 C3208 1.429 . S
C3227 C3221 1.429 . S
C3227 C3228 1.523 . S
C3228 C3209 1.368 . S
C3228 C3222 1.368 . S
C3228 C3227 1.523 . S
C3229 C3213 1.429 . S
C3229 C3225 1.429 . S
C3229 C3230 1.523 . S
C3230 C3214 1.368 . S
C3230 C3226 1.368 . S
C3230 C3229 1.523 . S
H3231 C3206 0.950 . S
H3232 C3208 0.950 . S
H3233 C3209 0.949 . S
H3234 C3211 0.950 . S
H3235 C3213 0.950 . S
C3236 C3237 1.349 . S
C3236 C3238 1.327 . S
C3236 H3261 0.950 . S
C3237 C3236 1.349 . S
C3237 C3253 1.349 . S
C3238 C3236 1.327 . S
C3238 C3257 1.429 . S
C3238 H3262 0.950 . S
C3239 C3256 1.574 . S
C3239 C3258 1.368 . S
C3239 H3263 0.949 . S
H3240 C3244 0.949 . S
C3241 C3242 1.349 . S
C3241 C3243 1.327 . S
C3241 H3264 0.950 . S
C3242 C3241 1.349 . S
C3242 C3254 1.349 . S
C3243 C3241 1.327 . S
C3243 C3259 1.429 . S
C3243 H3265 0.950 . S
C3244 H3240 0.949 . S
C3244 C3252 1.574 . S
C3244 C3260 1.368 . S
H3245 C3253 0.950 . S
H3246 C3251 0.950 . S
H3247 C3252 0.949 . S
H3248 C3254 0.950 . S
H3249 C3255 0.950 . S
H3250 C3256 0.949 . S
C3251 H3246 0.950 . S
C3251 C3253 1.327 . S
C3251 C3257 1.429 . S
C3252 C3244 1.574 . S
C3252 H3247 0.949 . S
C3252 C3258 1.368 . S
C3253 C3237 1.349 . S
C3253 H3245 0.950 . S
C3253 C3251 1.327 . S
C3254 C3242 1.349 . S
C3254 H3248 0.950 . S
C3254 C3255 1.327 . S
C3255 H3249 0.950 . S
C3255 C3254 1.327 . S
C3255 C3259 1.429 . S
C3256 C3239 1.574 . S
C3256 H3250 0.949 . S
C3256 C3260 1.368 . S
C3257 C3238 1.429 . S
C3257 C3251 1.429 . S
C3257 C3258 1.523 . S
C3258 C3239 1.368 . S
C3258 C3252 1.368 . S
C3258 C3257 1.523 . S
C3259 C3243 1.429 . S
C3259 C3255 1.429 . S
C3259 C3260 1.523 . S
C3260 C3244 1.368 . S
C3260 C3256 1.368 . S
C3260 C3259 1.523 . S
H3261 C3236 0.950 . S
H3262 C3238 0.950 . S
H3263 C3239 0.949 . S
H3264 C3241 0.950 . S
H3265 C3243 0.950 . S
C3266 C3267 1.349 . S
C3266 C3268 1.327 . S
C3266 H3291 0.950 . S
C3267 C3266 1.349 . S
C3267 C3283 1.349 . S
C3268 C3266 1.327 . S
C3268 C3287 1.429 . S
C3268 H3292 0.950 . S
C3269 C3286 1.574 . S
C3269 C3288 1.368 . S
C3269 H3293 0.949 . S
H3270 C3274 0.949 . S
C3271 C3272 1.349 . S
C3271 C3273 1.327 . S
C3271 H3294 0.950 . S
C3272 C3271 1.349 . S
C3272 C3284 1.349 . S
C3273 C3271 1.327 . S
C3273 C3289 1.429 . S
C3273 H3295 0.950 . S
C3274 H3270 0.949 . S
C3274 C3282 1.574 . S
C3274 C3290 1.368 . S
H3275 C3283 0.950 . S
H3276 C3281 0.950 . S
H3277 C3282 0.949 . S
H3278 C3284 0.950 . S
H3279 C3285 0.950 . S
H3280 C3286 0.949 . S
C3281 H3276 0.950 . S
C3281 C3283 1.327 . S
C3281 C3287 1.429 . S
C3282 C3274 1.574 . S
C3282 H3277 0.949 . S
C3282 C3288 1.368 . S
C3283 C3267 1.349 . S
C3283 H3275 0.950 . S
C3283 C3281 1.327 . S
C3284 C3272 1.349 . S
C3284 H3278 0.950 . S
C3284 C3285 1.327 . S
C3285 H3279 0.950 . S
C3285 C3284 1.327 . S
C3285 C3289 1.429 . S
C3286 C3269 1.574 . S
C3286 H3280 0.949 . S
C3286 C3290 1.368 . S
C3287 C3268 1.429 . S
C3287 C3281 1.429 . S
C3287 C3288 1.523 . S
C3288 C3269 1.368 . S
C3288 C3282 1.368 . S
C3288 C3287 1.523 . S
C3289 C3273 1.429 . S
C3289 C3285 1.429 . S
C3289 C3290 1.523 . S
C3290 C3274 1.368 . S
C3290 C3286 1.368 . S
C3290 C3289 1.523 . S
H3291 C3266 0.950 . S
H3292 C3268 0.950 . S
H3293 C3269 0.949 . S
H3294 C3271 0.950 . S
H3295 C3273 0.950 . S
C3296 C3297 1.349 . S
C3296 C3298 1.327 . S
C3296 H3321 0.950 . S
C3297 C3296 1.349 . S
C3297 C3313 1.349 . S
C3298 C3296 1.327 . S
C3298 C3317 1.429 . S
C3298 H3322 0.950 . S
C3299 C3316 1.574 . S
C3299 C3318 1.368 . S
C3299 H3323 0.949 . S
H3300 C3304 0.949 . S
C3301 C3302 1.349 . S
C3301 C3303 1.327 . S
C3301 H3324 0.950 . S
C3302 C3301 1.349 . S
C3302 C3314 1.349 . S
C3303 C3301 1.327 . S
C3303 C3319 1.429 . S
C3303 H3325 0.950 . S
C3304 H3300 0.949 . S
C3304 C3312 1.574 . S
C3304 C3320 1.368 . S
H3305 C3313 0.950 . S
H3306 C3311 0.950 . S
H3307 C3312 0.949 . S
H3308 C3314 0.950 . S
H3309 C3315 0.950 . S
H3310 C3316 0.949 . S
C3311 H3306 0.950 . S
C3311 C3313 1.327 . S
C3311 C3317 1.429 . S
C3312 C3304 1.574 . S
C3312 H3307 0.949 . S
C3312 C3318 1.368 . S
C3313 C3297 1.349 . S
C3313 H3305 0.950 . S
C3313 C3311 1.327 . S
C3314 C3302 1.349 . S
C3314 H3308 0.950 . S
C3314 C3315 1.327 . S
C3315 H3309 0.950 . S
C3315 C3314 1.327 . S
C3315 C3319 1.429 . S
C3316 C3299 1.574 . S
C3316 H3310 0.949 . S
C3316 C3320 1.368 . S
C3317 C3298 1.429 . S
C3317 C3311 1.429 . S
C3317 C3318 1.523 . S
C3318 C3299 1.368 . S
C3318 C3312 1.368 . S
C3318 C3317 1.523 . S
C3319 C3303 1.429 . S
C3319 C3315 1.429 . S
C3319 C3320 1.523 . S
C3320 C3304 1.368 . S
C3320 C3316 1.368 . S
C3320 C3319 1.523 . S
H3321 C3296 0.950 . S
H3322 C3298 0.950 . S
H3323 C3299 0.949 . S
H3324 C3301 0.950 . S
H3325 C3303 0.950 . S
C3326 C3327 1.349 . S
C3326 C3328 1.327 . S
C3326 H3351 0.950 . S
C3327 C3326 1.349 . S
C3327 C3343 1.349 . S
C3328 C3326 1.327 . S
C3328 C3347 1.429 . S
C3328 H3352 0.950 . S
C3329 C3346 1.574 . S
C3329 C3348 1.368 . S
C3329 H3353 0.949 . S
H3330 C3334 0.949 . S
C3331 C3332 1.349 . S
C3331 C3333 1.327 . S
C3331 H3354 0.950 . S
C3332 C3331 1.349 . S
C3332 C3344 1.349 . S
C3333 C3331 1.327 . S
C3333 C3349 1.429 . S
C3333 H3355 0.950 . S
C3334 H3330 0.949 . S
C3334 C3342 1.574 . S
C3334 C3350 1.368 . S
H3335 C3343 0.950 . S
H3336 C3341 0.950 . S
H3337 C3342 0.949 . S
H3338 C3344 0.950 . S
H3339 C3345 0.950 . S
H3340 C3346 0.949 . S
C3341 H3336 0.950 . S
C3341 C3343 1.327 . S
C3341 C3347 1.429 . S
C3342 C3334 1.574 . S
C3342 H3337 0.949 . S
C3342 C3348 1.368 . S
C3343 C3327 1.349 . S
C3343 H3335 0.950 . S
C3343 C3341 1.327 . S
C3344 C3332 1.349 . S
C3344 H3338 0.950 . S
C3344 C3345 1.327 . S
C3345 H3339 0.950 . S
C3345 C3344 1.327 . S
C3345 C3349 1.429 . S
C3346 C3329 1.574 . S
C3346 H3340 0.949 . S
C3346 C3350 1.368 . S
C3347 C3328 1.429 . S
C3347 C3341 1.429 . S
C3347 C3348 1.523 . S
C3348 C3329 1.368 . S
C3348 C3342 1.368 . S
C3348 C3347 1.523 . S
C3349 C3333 1.429 . S
C3349 C3345 1.429 . S
C3349 C3350 1.523 . S
C3350 C3334 1.368 . S
C3350 C3346 1.368 . S
C3350 C3349 1.523 . S
H3351 C3326 0.950 . S
H3352 C3328 0.950 . S
H3353 C3329 0.949 . S
H3354 C3331 0.950 . S
H3355 C3333 0.950 . S
C3356 C3357 1.349 . S
C3356 C3358 1.327 . S
C3356 H3381 0.950 . S
C3357 C3356 1.349 . S
C3357 C3373 1.349 . S
C3358 C3356 1.327 . S
C3358 C3377 1.429 . S
C3358 H3382 0.950 . S
C3359 C3376 1.574 . S
C3359 C3378 1.368 . S
C3359 H3383 0.949 . S
H3360 C3364 0.949 . S
C3361 C3362 1.349 . S
C3361 C3363 1.327 . S
C3361 H3384 0.950 . S
C3362 C3361 1.349 . S
C3362 C3374 1.349 . S
C3363 C3361 1.327 . S
C3363 C3379 1.429 . S
C3363 H3385 0.950 . S
C3364 H3360 0.949 . S
C3364 C3372 1.574 . S
C3364 C3380 1.368 . S
H3365 C3373 0.950 . S
H3366 C3371 0.950 . S
H3367 C3372 0.949 . S
H3368 C3374 0.950 . S
H3369 C3375 0.950 . S
H3370 C3376 0.949 . S
C3371 H3366 0.950 . S
C3371 C3373 1.327 . S
C3371 C3377 1.429 . S
C3372 C3364 1.574 . S
C3372 H3367 0.949 . S
C3372 C3378 1.368 . S
C3373 C3357 1.349 . S
C3373 H3365 0.950 . S
C3373 C3371 1.327 . S
C3374 C3362 1.349 . S
C3374 H3368 0.950 . S
C3374 C3375 1.327 . S
C3375 H3369 0.950 . S
C3375 C3374 1.327 . S
C3375 C3379 1.429 . S
C3376 C3359 1.574 . S
C3376 H3370 0.949 . S
C3376 C3380 1.368 . S
C3377 C3358 1.429 . S
C3377 C3371 1.429 . S
C3377 C3378 1.523 . S
C3378 C3359 1.368 . S
C3378 C3372 1.368 . S
C3378 C3377 1.523 . S
C3379 C3363 1.429 . S
C3379 C3375 1.429 . S
C3379 C3380 1.523 . S
C3380 C3364 1.368 . S
C3380 C3376 1.368 . S
C3380 C3379 1.523 . S
H3381 C3356 0.950 . S
H3382 C3358 0.950 . S
H3383 C3359 0.949 . S
H3384 C3361 0.950 . S
H3385 C3363 0.950 . S
C3386 C3387 1.349 . S
C3386 C3388 1.327 . S
C3386 H3411 0.950 1_554 S
C3387 C3386 1.349 . S
C3387 C3403 1.349 . S
C3388 C3386 1.327 . S
C3388 C3407 1.429 . S
C3388 H3412 0.950 1_554 S
C3389 C3406 1.574 . S
C3389 C3408 1.368 . S
C3389 H3413 0.949 . S
H3390 C3394 0.949 1_556 S
C3391 C3392 1.349 . S
C3391 C3393 1.327 . S
C3391 H3414 0.950 . S
C3392 C3391 1.349 . S
C3392 C3404 1.349 . S
C3393 C3391 1.327 . S
C3393 C3409 1.429 . S
C3393 H3415 0.950 . S
C3394 H3390 0.949 1_554 S
C3394 C3402 1.574 . S
C3394 C3410 1.368 . S
H3395 C3403 0.950 . S
H3396 C3401 0.950 . S
H3397 C3402 0.949 1_556 S
H3398 C3404 0.950 1_556 S
H3399 C3405 0.950 1_556 S
H3400 C3406 0.949 . S
C3401 H3396 0.950 . S
C3401 C3403 1.327 . S
C3401 C3407 1.429 . S
C3402 C3394 1.574 . S
C3402 H3397 0.949 1_554 S
C3402 C3408 1.368 . S
C3403 C3387 1.349 . S
C3403 H3395 0.950 . S
C3403 C3401 1.327 . S
C3404 C3392 1.349 . S
C3404 H3398 0.950 1_554 S
C3404 C3405 1.327 . S
C3405 H3399 0.950 1_554 S
C3405 C3404 1.327 . S
C3405 C3409 1.429 . S
C3406 C3389 1.574 . S
C3406 H3400 0.949 . S
C3406 C3410 1.368 . S
C3407 C3388 1.429 . S
C3407 C3401 1.429 . S
C3407 C3408 1.523 . S
C3408 C3389 1.368 . S
C3408 C3402 1.368 . S
C3408 C3407 1.523 . S
C3409 C3393 1.429 . S
C3409 C3405 1.429 . S
C3409 C3410 1.523 . S
C3410 C3394 1.368 . S
C3410 C3406 1.368 . S
C3410 C3409 1.523 . S
H3411 C3386 0.950 1_556 S
H3412 C3388 0.950 1_556 S
H3413 C3389 0.949 . S
H3414 C3391 0.950 . S
H3415 C3393 0.950 . S
C3416 C3417 1.349 . S
C3416 C3418 1.327 . S
C3416 H3441 0.950 . S
C3417 C3416 1.349 . S
C3417 C3433 1.349 . S
C3418 C3416 1.327 . S
C3418 C3437 1.429 . S
C3418 H3442 0.950 . S
C3419 C3436 1.574 . S
C3419 C3438 1.368 . S
C3419 H3443 0.949 . S
H3420 C3424 0.949 . S
C3421 C3422 1.349 . S
C3421 C3423 1.327 . S
C3421 H3444 0.950 . S
C3422 C3421 1.349 . S
C3422 C3434 1.349 . S
C3423 C3421 1.327 . S
C3423 C3439 1.429 . S
C3423 H3445 0.950 . S
C3424 H3420 0.949 . S
C3424 C3432 1.574 . S
C3424 C3440 1.368 . S
H3425 C3433 0.950 . S
H3426 C3431 0.950 . S
H3427 C3432 0.949 . S
H3428 C3434 0.950 . S
H3429 C3435 0.950 . S
H3430 C3436 0.949 . S
C3431 H3426 0.950 . S
C3431 C3433 1.327 . S
C3431 C3437 1.429 . S
C3432 C3424 1.574 . S
C3432 H3427 0.949 . S
C3432 C3438 1.368 . S
C3433 C3417 1.349 . S
C3433 H3425 0.950 . S
C3433 C3431 1.327 . S
C3434 C3422 1.349 . S
C3434 H3428 0.950 . S
C3434 C3435 1.327 . S
C3435 H3429 0.950 . S
C3435 C3434 1.327 . S
C3435 C3439 1.429 . S
C3436 C3419 1.574 . S
C3436 H3430 0.949 . S
C3436 C3440 1.368 . S
C3437 C3418 1.429 . S
C3437 C3431 1.429 . S
C3437 C3438 1.523 . S
C3438 C3419 1.368 . S
C3438 C3432 1.368 . S
C3438 C3437 1.523 . S
C3439 C3423 1.429 . S
C3439 C3435 1.429 . S
C3439 C3440 1.523 . S
C3440 C3424 1.368 . S
C3440 C3436 1.368 . S
C3440 C3439 1.523 . S
H3441 C3416 0.950 . S
H3442 C3418 0.950 . S
H3443 C3419 0.949 . S
H3444 C3421 0.950 . S
H3445 C3423 0.950 . S
C3446 C3447 1.349 . S
C3446 C3448 1.327 . S
C3446 H3471 0.950 . S
C3447 C3446 1.349 . S
C3447 C3463 1.349 . S
C3448 C3446 1.327 . S
C3448 C3467 1.429 . S
C3448 H3472 0.950 . S
C3449 C3466 1.574 . S
C3449 C3468 1.368 . S
C3449 H3473 0.967 . S
H3450 C3454 0.949 . S
C3451 C3452 1.349 1_556 S
C3451 C3453 1.327 1_556 S
C3451 H3474 0.950 . S
C3452 C3451 1.349 1_554 S
C3452 C3464 1.349 . S
C3453 C3451 1.327 1_554 S
C3453 C3469 1.429 . S
C3453 H3475 0.950 1_554 S
C3454 H3450 0.949 . S
C3454 C3462 1.574 . S
C3454 C3470 1.368 . S
H3455 C3463 0.950 . S
H3456 C3461 0.950 . S
H3457 C3462 0.949 . S
H3458 C3464 0.950 . S
H3459 C3465 0.950 . S
H3460 C3466 0.949 1_556 S
C3461 H3456 0.950 . S
C3461 C3463 1.327 . S
C3461 C3467 1.429 . S
C3462 C3454 1.574 . S
C3462 H3457 0.949 . S
C3462 C3468 1.368 . S
C3463 C3447 1.349 . S
C3463 H3455 0.950 . S
C3463 C3461 1.327 . S
C3464 C3452 1.349 . S
C3464 H3458 0.950 . S
C3464 C3465 1.327 . S
C3465 H3459 0.950 . S
C3465 C3464 1.327 . S
C3465 C3469 1.429 . S
C3466 C3449 1.574 . S
C3466 H3460 0.949 1_554 S
C3466 C3470 1.368 . S
C3467 C3448 1.429 . S
C3467 C3461 1.429 . S
C3467 C3468 1.523 . S
C3468 C3449 1.368 . S
C3468 C3462 1.368 . S
C3468 C3467 1.523 . S
C3469 C3453 1.429 . S
C3469 C3465 1.429 . S
C3469 C3470 1.523 . S
C3470 C3454 1.368 . S
C3470 C3466 1.368 . S
C3470 C3469 1.523 . S
H3471 C3446 0.950 . S
H3472 C3448 0.950 . S
H3473 C3449 0.967 . S
H3474 C3451 0.950 . S
H3475 C3453 0.950 1_556 S
C3476 C3477 1.349 . S
C3476 C3478 1.327 . S
C3476 H3501 0.950 . S
C3477 C3476 1.349 . S
C3477 C3493 1.349 . S
C3478 C3476 1.327 . S
C3478 C3497 1.429 . S
C3478 H3502 0.950 . S
C3479 C3496 1.574 . S
C3479 C3498 1.368 . S
C3479 H3503 0.949 . S
H3480 C3484 0.949 . S
C3481 C3482 1.349 . S
C3481 C3483 1.327 . S
C3481 H3504 0.950 . S
C3482 C3481 1.349 . S
C3482 C3494 1.349 . S
C3483 C3481 1.327 . S
C3483 C3499 1.429 . S
C3483 H3505 0.950 . S
C3484 H3480 0.949 . S
C3484 C3492 1.574 . S
C3484 C3500 1.368 . S
H3485 C3493 0.950 . S
H3486 C3491 0.950 . S
H3487 C3492 0.949 . S
H3488 C3494 0.950 . S
H3489 C3495 0.950 . S
H3490 C3496 0.949 . S
C3491 H3486 0.950 . S
C3491 C3493 1.327 . S
C3491 C3497 1.429 . S
C3492 C3484 1.574 . S
C3492 H3487 0.949 . S
C3492 C3498 1.368 . S
C3493 C3477 1.349 . S
C3493 H3485 0.950 . S
C3493 C3491 1.327 . S
C3494 C3482 1.349 . S
C3494 H3488 0.950 . S
C3494 C3495 1.327 . S
C3495 H3489 0.950 . S
C3495 C3494 1.327 . S
C3495 C3499 1.429 . S
C3496 C3479 1.574 . S
C3496 H3490 0.949 . S
C3496 C3500 1.368 . S
C3497 C3478 1.429 . S
C3497 C3491 1.429 . S
C3497 C3498 1.523 . S
C3498 C3479 1.368 . S
C3498 C3492 1.368 . S
C3498 C3497 1.523 . S
C3499 C3483 1.429 . S
C3499 C3495 1.429 . S
C3499 C3500 1.523 . S
C3500 C3484 1.368 . S
C3500 C3496 1.368 . S
C3500 C3499 1.523 . S
H3501 C3476 0.950 . S
H3502 C3478 0.950 . S
H3503 C3479 0.949 . S
H3504 C3481 0.950 . S
H3505 C3483 0.950 . S
C3506 C3507 1.349 . S
C3506 C3508 1.327 . S
C3506 H3531 0.950 . S
C3507 C3506 1.349 . S
C3507 C3523 1.349 . S
C3508 C3506 1.327 . S
C3508 C3527 1.429 . S
C3508 H3532 0.950 . S
C3509 C3526 1.574 . S
C3509 C3528 1.368 . S
C3509 H3533 0.949 . S
H3510 C3514 0.949 . S
C3511 C3512 1.349 . S
C3511 C3513 1.327 . S
C3511 H3534 0.950 . S
C3512 C3511 1.349 . S
C3512 C3524 1.349 . S
C3513 C3511 1.327 . S
C3513 C3529 1.429 . S
C3513 H3535 0.950 . S
C3514 H3510 0.949 . S
C3514 C3522 1.574 . S
C3514 C3530 1.368 . S
H3515 C3523 0.950 . S
H3516 C3521 0.950 . S
H3517 C3522 0.949 . S
H3518 C3524 0.950 . S
H3519 C3525 0.950 . S
H3520 C3526 0.949 . S
C3521 H3516 0.950 . S
C3521 C3523 1.327 . S
C3521 C3527 1.429 . S
C3522 C3514 1.574 . S
C3522 H3517 0.949 . S
C3522 C3528 1.368 . S
C3523 C3507 1.349 . S
C3523 H3515 0.950 . S
C3523 C3521 1.327 . S
C3524 C3512 1.349 . S
C3524 H3518 0.950 . S
C3524 C3525 1.327 . S
C3525 H3519 0.950 . S
C3525 C3524 1.327 . S
C3525 C3529 1.429 . S
C3526 C3509 1.574 . S
C3526 H3520 0.949 . S
C3526 C3530 1.368 . S
C3527 C3508 1.429 . S
C3527 C3521 1.429 . S
C3527 C3528 1.523 . S
C3528 C3509 1.368 . S
C3528 C3522 1.368 . S
C3528 C3527 1.523 . S
C3529 C3513 1.429 . S
C3529 C3525 1.429 . S
C3529 C3530 1.523 . S
C3530 C3514 1.368 . S
C3530 C3526 1.368 . S
C3530 C3529 1.523 . S
H3531 C3506 0.950 . S
H3532 C3508 0.950 . S
H3533 C3509 0.949 . S
H3534 C3511 0.950 . S
H3535 C3513 0.950 . S
C657 C105 1.346 1_455 S
C662 C340 1.216 . S
C687 C65 1.478 . S
C692 C375 1.441 . S
C717 C73 0.995 . S
C722 C380 0.928 . S
C752 C405 1.381 . S
C747 C92 1.463 . S
C777 C17 1.524 . S
C782 C425 1.441 . S
C812 C440 0.916 . S
C807 C37 0.978 . S
C842 C475 1.458 . S
C837 C49 1.453 . S
C867 C8 1.304 . S
C872 C480 1.161 . S
C902 C355 1.432 1_655 S
C897 C231 1.457 . S
C927 C241 0.919 . S
C932 C365 0.884 . S
C962 C395 1.413 . S
C957 C273 1.408 1_565 S
C992 C400 1.033 . S
C987 C171 1.119 1_556 S
C1017 C227 1.104 . S
C1022 C420 1.020 . S
C1052 C455 1.412 . S
C1047 C245 1.407 . S
C1082 C465 0.895 . S
C1077 C269 0.935 . S
C1112 C495 1.426 . S
C1107 C175 1.452 . S
C1142 C345 1.270 . S
C1137 C162 1.377 . S
C1167 C289 1.758 . S
C1172 C515 1.721 . S
C1202 C525 1.387 . S
C1197 C330 1.485 . S
C1232 C540 0.915 . S
C1227 C317 0.974 . S
C1257 C120 1.328 . S
C1262 C485 1.224 . S
C1287 C134 1.512 . S
C1292 C385 1.414 . S
C1317 C331 1.714 . S
C1322 C575 1.678 . S
C1352 C580 0.882 . S
C1347 C303 0.933 . S
C1382 C338 1.239 . S
C1377 C59 1.382 . S
C1412 C594 1.487 . S
C1407 C107 1.518 . S
C1437 C91 1.018 . S
C1442 C378 0.968 . S
C1467 C78 1.502 . S
C1472 C568 1.423 . S
C1502 C428 1.490 . S
C1497 C7 1.540 . S
C1527 C51 1.016 . S
C1532 C518 0.948 . S
C1562 C474 1.500 1_556 S
C1557 C31 1.541 . S
C1592 C598 1.188 . S
C1587 C22 1.322 . S
C1622 C354 1.467 . S
C1617 C143 1.529 . S
C1652 C588 0.929 . S
C1647 C315 0.947 . S
C1677 C115 1.491 . S
C1682 C394 1.451 . S
C1707 C287 1.133 . S
C1712 C558 1.069 . S
C1737 C147 1.123 . S
C1742 C418 1.066 . S
C1772 C534 1.451 . S
C1767 C311 1.490 . S
C1797 C119 0.954 . S
C1802 C468 0.936 . S
C1827 C283 1.523 . S
C1832 C614 1.467 . S
C1857 C190 1.394 . S
C1862 C348 1.296 . S
C1887 C177 1.795 . S
C1892 C514 1.769 . S
C1917 C260 1.508 . S
C1922 C448 1.420 . S
C1947 C247 1.017 . S
C1952 C538 0.952 . S
C1982 C608 1.252 . S
C1977 C274 1.353 . S
C2007 C218 1.540 . S
C2012 C388 1.451 . S
C2042 C414 1.725 . S
C2037 C261 1.753 . S
C2072 C358 0.918 . S
C2067 C205 0.976 . S
C2097 C77 1.345 . S
C2102 C620 1.216 . S
C2132 C595 1.440 . S
C2127 C93 1.478 . S
C2157 C101 0.995 . S
C2162 C640 0.929 . S
C2187 C64 1.462 . S
C2192 C565 1.381 . S
C2217 C45 1.525 . S
C2222 C505 1.441 . S
C2252 C520 0.916 . S
C2247 C9 0.979 . S
C2282 C555 1.458 . S
C2277 C21 1.453 . S
C2312 C600 1.160 . S
C2307 C36 1.303 . S
C2342 C635 1.431 . S
C2337 C259 1.457 . S
C2367 C185 0.919 . S
C2372 C585 0.884 . S
C2402 C655 1.413 . S
C2397 C203 1.409 . S
C2432 C560 1.033 . S
C2427 C213 1.119 . S
C2462 C500 1.020 . S
C2457 C255 1.104 . S
C2487 C189 1.407 . S
C2492 C535 1.413 . S
C2522 C545 0.895 . S
C2517 C199 0.933 . S
C2547 C217 1.451 . S
C2552 C615 1.426 . S
C2582 C625 1.271 . S
C2577 C316 1.378 . S
C2607 C135 1.758 . S
C2612 C435 1.724 . S
C2642 C445 1.388 . S
C2637 C148 1.486 . S
C2672 C460 0.914 . S
C2667 C163 0.973 . S
C2702 C605 1.225 . S
C2697 C302 1.328 . S
C2727 C288 1.516 . S
C2732 C645 1.414 . S
C2762 C415 1.678 . S
C2757 C149 1.714 . S
C2792 C360 0.882 . S
C2787 C121 0.933 . S
C2817 C87 1.383 . S
C2822 C618 1.239 . S
C2852 C374 1.487 . S
C2847 C79 1.518 . S
C2877 C63 1.018 . S
C2882 C638 0.967 . S
C2907 C106 1.502 . S
C2912 C408 1.423 . S
C2937 C35 1.539 . S
C2942 C508 1.490 . S
C2972 C438 0.949 . S
C2967 C23 1.016 . S
C2997 C3 1.541 . S
C3002 C554 1.501 . S
C3027 C50 1.321 . S
C3032 C478 1.187 . S
C3062 C634 1.467 . S
C3057 C325 1.529 . S
C3087 C161 0.947 . S
C3092 C368 0.929 . S
C3122 C654 1.451 1_655 S
C3117 C297 1.491 . S
C3147 C133 1.133 . S
C3152 C398 1.076 . S
C3177 C329 1.123 . S
C3182 C498 1.066 . S
C3212 C454 1.451 . S
C3207 C157 1.491 . S
C3237 C301 0.954 . S
C3242 C548 0.936 . S
C3272 C494 1.461 . S
C3267 C129 1.522 . S
C3302 C628 1.296 . S
C3297 C246 1.393 . S
C3332 C434 1.768 . S
C3327 C219 1.795 . S
C3357 C232 1.509 . S
C3362 C528 1.421 . S
C3392 C458 0.952 . S
C3387 C191 1.017 . S
C3417 C204 1.347 . S
C3422 C488 1.253 . S
C3447 C176 1.539 . S
C3452 C648 1.451 . S
C3482 C574 1.725 . S
C3477 C233 1.753 . S
C3512 C578 0.917 . S
C3507 C275 0.970 . S
