# Generated by pormake.
# Topology cor, (4,6)-cn, num edge types: 1
# Building blocks:
#     Node 0, Type 0, BuildingBlock: GALJAG_clean_sbu_0, # of connection points: 4
#     Node 1, Type 0, BuildingBlock: GALJAG_clean_sbu_0, # of connection points: 4
#     Node 2, Type 0, BuildingBlock: GALJAG_clean_sbu_0, # of connection points: 4
#     Node 3, Type 0, BuildingBlock: GALJAG_clean_sbu_0, # of connection points: 4
#     Node 4, Type 0, BuildingBlock: GALJAG_clean_sbu_0, # of connection points: 4
#     Node 5, Type 0, BuildingBlock: GALJAG_clean_sbu_0, # of connection points: 4
#     Node 6, Type 0, BuildingBlock: GALJAG_clean_sbu_0, # of connection points: 4
#     Node 7, Type 0, BuildingBlock: GALJAG_clean_sbu_0, # of connection points: 4
#     Node 8, Type 0, BuildingBlock: GALJAG_clean_sbu_0, # of connection points: 4
#     Node 9, Type 0, BuildingBlock: GALJAG_clean_sbu_0, # of connection points: 4
#     Node 10, Type 0, BuildingBlock: GALJAG_clean_sbu_0, # of connection points: 4
#     Node 11, Type 0, BuildingBlock: GALJAG_clean_sbu_0, # of connection points: 4
#     Node 12, Type 0, BuildingBlock: GALJAG_clean_sbu_0, # of connection points: 4
#     Node 13, Type 0, BuildingBlock: GALJAG_clean_sbu_0, # of connection points: 4
#     Node 14, Type 0, BuildingBlock: GALJAG_clean_sbu_0, # of connection points: 4
#     Node 15, Type 0, BuildingBlock: GALJAG_clean_sbu_0, # of connection points: 4
#     Node 16, Type 0, BuildingBlock: GALJAG_clean_sbu_0, # of connection points: 4
#     Node 17, Type 0, BuildingBlock: GALJAG_clean_sbu_0, # of connection points: 4
#     Node 18, Type 1, BuildingBlock: MIDCAF_clean_sbu_0, # of connection points: 6
#     Node 19, Type 1, BuildingBlock: MIDCAF_clean_sbu_0, # of connection points: 6
#     Node 20, Type 1, BuildingBlock: MIDCAF_clean_sbu_0, # of connection points: 6
#     Node 21, Type 1, BuildingBlock: MIDCAF_clean_sbu_0, # of connection points: 6
#     Node 22, Type 1, BuildingBlock: MIDCAF_clean_sbu_0, # of connection points: 6
#     Node 23, Type 1, BuildingBlock: MIDCAF_clean_sbu_0, # of connection points: 6
#     Node 24, Type 1, BuildingBlock: MIDCAF_clean_sbu_0, # of connection points: 6
#     Node 25, Type 1, BuildingBlock: MIDCAF_clean_sbu_0, # of connection points: 6
#     Node 26, Type 1, BuildingBlock: MIDCAF_clean_sbu_0, # of connection points: 6
#     Node 27, Type 1, BuildingBlock: MIDCAF_clean_sbu_0, # of connection points: 6
#     Node 28, Type 1, BuildingBlock: MIDCAF_clean_sbu_0, # of connection points: 6
#     Node 29, Type 1, BuildingBlock: MIDCAF_clean_sbu_0, # of connection points: 6
#     Edge 30, Type (0, 1), BuildingBlock: XIVTED_clean_linker_0, # of connection points: 2
#     Edge 31, Type (0, 1), BuildingBlock: XIVTED_clean_linker_0, # of connection points: 2
#     Edge 32, Type (0, 1), BuildingBlock: XIVTED_clean_linker_0, # of connection points: 2
#     Edge 33, Type (0, 1), BuildingBlock: XIVTED_clean_linker_0, # of connection points: 2
#     Edge 34, Type (0, 1), BuildingBlock: XIVTED_clean_linker_0, # of connection points: 2
#     Edge 35, Type (0, 1), BuildingBlock: XIVTED_clean_linker_0, # of connection points: 2
#     Edge 36, Type (0, 1), BuildingBlock: XIVTED_clean_linker_0, # of connection points: 2
#     Edge 37, Type (0, 1), BuildingBlock: XIVTED_clean_linker_0, # of connection points: 2
#     Edge 38, Type (0, 1), BuildingBlock: XIVTED_clean_linker_0, # of connection points: 2
#     Edge 39, Type (0, 1), BuildingBlock: XIVTED_clean_linker_0, # of connection points: 2
#     Edge 40, Type (0, 1), BuildingBlock: XIVTED_clean_linker_0, # of connection points: 2
#     Edge 41, Type (0, 1), BuildingBlock: XIVTED_clean_linker_0, # of connection points: 2
#     Edge 42, Type (0, 1), BuildingBlock: XIVTED_clean_linker_0, # of connection points: 2
#     Edge 43, Type (0, 1), BuildingBlock: XIVTED_clean_linker_0, # of connection points: 2
#     Edge 44, Type (0, 1), BuildingBlock: XIVTED_clean_linker_0, # of connection points: 2
#     Edge 45, Type (0, 1), BuildingBlock: XIVTED_clean_linker_0, # of connection points: 2
#     Edge 46, Type (0, 1), BuildingBlock: XIVTED_clean_linker_0, # of connection points: 2
#     Edge 47, Type (0, 1), BuildingBlock: XIVTED_clean_linker_0, # of connection points: 2
#     Edge 48, Type (0, 1), BuildingBlock: XIVTED_clean_linker_0, # of connection points: 2
#     Edge 49, Type (0, 1), BuildingBlock: XIVTED_clean_linker_0, # of connection points: 2
#     Edge 50, Type (0, 1), BuildingBlock: XIVTED_clean_linker_0, # of connection points: 2
#     Edge 51, Type (0, 1), BuildingBlock: XIVTED_clean_linker_0, # of connection points: 2
#     Edge 52, Type (0, 1), BuildingBlock: XIVTED_clean_linker_0, # of connection points: 2
#     Edge 53, Type (0, 1), BuildingBlock: XIVTED_clean_linker_0, # of connection points: 2
#     Edge 54, Type (0, 1), BuildingBlock: XIVTED_clean_linker_0, # of connection points: 2
#     Edge 55, Type (0, 1), BuildingBlock: XIVTED_clean_linker_0, # of connection points: 2
#     Edge 56, Type (0, 1), BuildingBlock: XIVTED_clean_linker_0, # of connection points: 2
#     Edge 57, Type (0, 1), BuildingBlock: XIVTED_clean_linker_0, # of connection points: 2
#     Edge 58, Type (0, 1), BuildingBlock: XIVTED_clean_linker_0, # of connection points: 2
#     Edge 59, Type (0, 1), BuildingBlock: XIVTED_clean_linker_0, # of connection points: 2
#     Edge 60, Type (0, 1), BuildingBlock: XIVTED_clean_linker_0, # of connection points: 2
#     Edge 61, Type (0, 1), BuildingBlock: XIVTED_clean_linker_0, # of connection points: 2
#     Edge 62, Type (0, 1), BuildingBlock: XIVTED_clean_linker_0, # of connection points: 2
#     Edge 63, Type (0, 1), BuildingBlock: XIVTED_clean_linker_0, # of connection points: 2
#     Edge 64, Type (0, 1), BuildingBlock: XIVTED_clean_linker_0, # of connection points: 2
#     Edge 65, Type (0, 1), BuildingBlock: XIVTED_clean_linker_0, # of connection points: 2
#     Edge 66, Type (0, 1), BuildingBlock: XIVTED_clean_linker_0, # of connection points: 2
#     Edge 67, Type (0, 1), BuildingBlock: XIVTED_clean_linker_0, # of connection points: 2
#     Edge 68, Type (0, 1), BuildingBlock: XIVTED_clean_linker_0, # of connection points: 2
#     Edge 69, Type (0, 1), BuildingBlock: XIVTED_clean_linker_0, # of connection points: 2
#     Edge 70, Type (0, 1), BuildingBlock: XIVTED_clean_linker_0, # of connection points: 2
#     Edge 71, Type (0, 1), BuildingBlock: XIVTED_clean_linker_0, # of connection points: 2
#     Edge 72, Type (0, 1), BuildingBlock: XIVTED_clean_linker_0, # of connection points: 2
#     Edge 73, Type (0, 1), BuildingBlock: XIVTED_clean_linker_0, # of connection points: 2
#     Edge 74, Type (0, 1), BuildingBlock: XIVTED_clean_linker_0, # of connection points: 2
#     Edge 75, Type (0, 1), BuildingBlock: XIVTED_clean_linker_0, # of connection points: 2
#     Edge 76, Type (0, 1), BuildingBlock: XIVTED_clean_linker_0, # of connection points: 2
#     Edge 77, Type (0, 1), BuildingBlock: XIVTED_clean_linker_0, # of connection points: 2
#     Edge 78, Type (0, 1), BuildingBlock: XIVTED_clean_linker_0, # of connection points: 2
#     Edge 79, Type (0, 1), BuildingBlock: XIVTED_clean_linker_0, # of connection points: 2
#     Edge 80, Type (0, 1), BuildingBlock: XIVTED_clean_linker_0, # of connection points: 2
#     Edge 81, Type (0, 1), BuildingBlock: XIVTED_clean_linker_0, # of connection points: 2
#     Edge 82, Type (0, 1), BuildingBlock: XIVTED_clean_linker_0, # of connection points: 2
#     Edge 83, Type (0, 1), BuildingBlock: XIVTED_clean_linker_0, # of connection points: 2
#     Edge 84, Type (0, 1), BuildingBlock: XIVTED_clean_linker_0, # of connection points: 2
#     Edge 85, Type (0, 1), BuildingBlock: XIVTED_clean_linker_0, # of connection points: 2
#     Edge 86, Type (0, 1), BuildingBlock: XIVTED_clean_linker_0, # of connection points: 2
#     Edge 87, Type (0, 1), BuildingBlock: XIVTED_clean_linker_0, # of connection points: 2
#     Edge 88, Type (0, 1), BuildingBlock: XIVTED_clean_linker_0, # of connection points: 2
#     Edge 89, Type (0, 1), BuildingBlock: XIVTED_clean_linker_0, # of connection points: 2
#     Edge 90, Type (0, 1), BuildingBlock: XIVTED_clean_linker_0, # of connection points: 2
#     Edge 91, Type (0, 1), BuildingBlock: XIVTED_clean_linker_0, # of connection points: 2
#     Edge 92, Type (0, 1), BuildingBlock: XIVTED_clean_linker_0, # of connection points: 2
#     Edge 93, Type (0, 1), BuildingBlock: XIVTED_clean_linker_0, # of connection points: 2
#     Edge 94, Type (0, 1), BuildingBlock: XIVTED_clean_linker_0, # of connection points: 2
#     Edge 95, Type (0, 1), BuildingBlock: XIVTED_clean_linker_0, # of connection points: 2
#     Edge 96, Type (0, 1), BuildingBlock: XIVTED_clean_linker_0, # of connection points: 2
#     Edge 97, Type (0, 1), BuildingBlock: XIVTED_clean_linker_0, # of connection points: 2
#     Edge 98, Type (0, 1), BuildingBlock: XIVTED_clean_linker_0, # of connection points: 2
#     Edge 99, Type (0, 1), BuildingBlock: XIVTED_clean_linker_0, # of connection points: 2
#     Edge 100, Type (0, 1), BuildingBlock: XIVTED_clean_linker_0, # of connection points: 2
#     Edge 101, Type (0, 1), BuildingBlock: XIVTED_clean_linker_0, # of connection points: 2
# Relax obj value: 0.119
# Max RMSD: 0.171
# Mean RMSD: 0.112
data_MOF--net-cor--node1-GALJAG_clean_sbu_0--node2-MIDCAF_clean_sbu_0--edge1-XIVTED_clean_linker_0
_symmetry_space_group_name_H-M    P1
_symmetry_Int_Tables_number       1
_symmetry_cell_setting            triclinic
loop_
_symmetry_equiv_pos_as_xyz
'x, y, z'
_cell_length_a     38.083516
_cell_length_b     38.107875
_cell_length_c     104.04115
_cell_angle_alpha  89.940893
_cell_angle_beta   90.0809
_cell_angle_gamma 120.24346
loop_
_atom_site_label
_atom_site_type_symbol
_atom_site_fract_x
_atom_site_fract_y
_atom_site_fract_z
_atom_type_partial_charge
In0 In 0.75179 0.01572 0.27172 0.0
O1 O 0.76605 0.08135 0.2736 0.0
O2 O 0.72039 0.04281 0.26026 0.0
C3 C 0.78832 0.00745 0.29281 0.0
C4 C 0.7982 0.02566 0.25094 0.0
C5 C 0.67959 0.95141 0.27829 0.0
O6 O 0.77815 0.03428 0.29206 0.0
O7 O 0.78252 0.98703 0.28268 0.0
O8 O 0.70172 0.94938 0.26961 0.0
O9 O 0.69263 0.9864 0.28295 0.0
C10 C 0.74153 0.0781 0.26484 0.0
O11 O 0.76136 -0.00221 0.25155 0.0
O12 O 0.81194 0.0464 0.26108 0.0
In13 In 0.01063 0.75465 0.2711 0.0
O14 O 0.07637 0.76911 0.26928 0.0
O15 O 0.03791 0.72364 0.28267 0.0
C16 C 0.00221 0.79121 0.25006 0.0
C17 C 0.02034 0.80097 0.29188 0.0
C18 C 0.94701 0.68226 0.26433 0.0
O19 O 0.02938 0.78149 0.25084 0.0
O20 O 0.98148 0.78493 0.26015 0.0
O21 O 0.94437 0.70405 0.273 0.0
O22 O 0.98224 0.69574 0.2598 0.0
C23 C 0.0732 0.74478 0.27809 0.0
O24 O -0.00755 0.76414 0.29126 0.0
O25 O 0.04114 0.81471 0.28176 0.0
In26 In 0.2683 0.27364 0.27106 0.0
O27 O 0.2542 0.32504 0.26923 0.0
O28 O 0.30006 0.33238 0.28248 0.0
C29 C 0.23169 0.22901 0.24993 0.0
C30 C 0.22186 0.23701 0.29184 0.0
C31 C 0.34019 0.28122 0.26457 0.0
O32 O 0.2424 0.26621 0.25067 0.0
O33 O 0.237 0.21411 0.26009 0.0
O34 O 0.31779 0.25694 0.27322 0.0
O35 O 0.3276 0.30347 0.2599 0.0
C36 C 0.27887 0.34642 0.27795 0.0
O37 O 0.25866 0.2461 0.29125 0.0
O38 O 0.20815 0.24393 0.28169 0.0
In39 In 0.26866 0.01233 0.77072 0.0
O40 O 0.25936 0.03085 0.79085 0.0
O41 O 0.2087 0.98196 0.78143 0.0
C42 C 0.34121 0.07521 0.76374 0.0
C43 C 0.27844 0.94975 0.77769 0.0
C44 C 0.23212 0.02175 0.74986 0.0
O45 O 0.32008 0.07818 0.77258 0.0
O46 O 0.32705 0.03996 0.75916 0.0
O47 O 0.24084 -0.00615 0.75054 0.0
O48 O 0.23929 0.04262 0.75995 0.0
C49 C 0.22252 0.00297 0.79151 0.0
O50 O 0.2541 0.94659 0.76887 0.0
O51 O 0.29961 0.98501 0.78229 0.0
In52 In 0.00793 0.27275 0.77041 0.0
O53 O 0.02632 0.26315 0.75029 0.0
O54 O 0.97755 0.21265 0.7598 0.0
C55 C 0.0708 0.34543 0.77733 0.0
C56 C 0.94518 0.28222 0.76337 0.0
C57 C 0.01737 0.23635 0.7913 0.0
O58 O 0.07379 0.32422 0.76852 0.0
O59 O 0.03554 0.33125 0.78192 0.0
O60 O -0.01055 0.24504 0.79059 0.0
O61 O 0.03832 0.24355 0.78121 0.0
C62 C -0.00155 0.2263 0.74969 0.0
O63 O 0.94215 0.25816 0.77226 0.0
O64 O 0.98043 0.30332 0.75875 0.0
In65 In 0.74961 0.75217 0.77085 0.0
O66 O 0.75728 0.77859 0.75055 0.0
O67 O 0.80934 0.78384 0.75997 0.0
C68 C 0.67703 0.74239 0.77768 0.0
C69 C 0.74161 0.68034 0.76408 0.0
C70 C 0.78614 0.79712 0.79192 0.0
O71 O 0.69899 0.76747 0.76913 0.0
O72 O 0.6904 0.72045 0.78205 0.0
O73 O 0.77632 0.76017 0.79112 0.0
O74 O 0.77999 0.81171 0.78184 0.0
C75 C 0.79452 0.78939 0.74983 0.0
O76 O 0.76607 0.70247 0.77275 0.0
O77 O 0.7194 0.69317 0.75954 0.0
In78 In 0.41641 0.34603 0.60354 0.0
O79 O 0.42459 0.32738 0.58331 0.0
O80 O 0.4762 0.3753 0.59266 0.0
C81 C 0.34418 0.28204 0.61029 0.0
C82 C 0.40716 0.40904 0.59664 0.0
C83 C 0.45319 0.33826 0.62464 0.0
O84 O 0.36622 0.27967 0.60165 0.0
O85 O 0.35732 0.3172 0.61482 0.0
O86 O 0.44287 0.36496 0.62384 0.0
O87 O 0.4474 0.31767 0.61455 0.0
C88 C 0.46167 0.35455 0.58257 0.0
O89 O 0.43203 0.41212 0.60525 0.0
O90 O 0.38519 0.37366 0.59222 0.0
In91 In 0.67686 0.08786 0.604 0.0
O92 O 0.6574 0.09593 0.62411 0.0
O93 O 0.70652 0.14727 0.61506 0.0
C94 C 0.61267 0.01625 0.59694 0.0
C95 C 0.73857 0.07691 0.61126 0.0
C96 C 0.66999 0.12527 0.58293 0.0
O97 O 0.61032 0.03801 0.60569 0.0
O98 O 0.64788 0.02937 0.59244 0.0
O99 O 0.69652 0.1147 0.58377 0.0
O100 O 0.64924 0.11946 0.59299 0.0
C101 C 0.68507 0.13276 0.62502 0.0
O102 O 0.74296 0.10285 0.60287 0.0
O103 O 0.70263 0.05484 0.61523 0.0
In104 In 0.93801 0.60605 0.60469 0.0
O105 O 0.92276 0.65666 0.60282 0.0
O106 O 0.96942 0.66518 0.61591 0.0
C107 C 0.9012 0.56026 0.58379 0.0
C108 C 0.89254 0.56956 0.62566 0.0
C109 C 0.01017 0.61467 0.59802 0.0
O110 O 0.91116 0.59729 0.58439 0.0
O111 O 0.90734 0.54611 0.59397 0.0
O112 O 0.98839 0.59062 0.60681 0.0
O113 O -0.00317 0.63624 0.59329 0.0
C114 C 0.94759 0.67856 0.61144 0.0
O115 O 0.92952 0.57932 0.62496 0.0
O116 O 0.8782 0.57577 0.61553 0.0
In117 In 0.93357 0.34639 0.10532 0.0
O118 O 0.91908 0.28065 0.10369 0.0
O119 O 0.96572 0.31973 0.11667 0.0
C120 C 0.89173 0.35079 0.08502 0.0
C121 C 0.89052 0.33837 0.1268 0.0
C122 C 0.00477 0.41013 0.09752 0.0
O123 O 0.90477 0.32616 0.08536 0.0
O124 O 0.898 0.37141 0.09514 0.0
O125 O 0.9837 0.4132 0.10635 0.0
O126 O -0.00886 0.3746 0.09325 0.0
C127 C 0.94416 0.28423 0.11229 0.0
O128 O 0.92707 0.36653 0.12556 0.0
O129 O 0.87545 0.31634 0.11698 0.0
In130 In 0.67417 0.60429 0.10513 0.0
O131 O 0.69249 0.59465 0.08504 0.0
O132 O 0.6482 0.54293 0.09532 0.0
C133 C 0.73703 0.67773 0.1115 0.0
C134 C 0.60975 0.61107 0.09792 0.0
C135 C 0.68472 0.57043 0.12647 0.0
O136 O 0.73954 0.65618 0.10272 0.0
O137 O 0.7021 0.66351 0.11636 0.0
O138 O 0.65596 0.57786 0.1255 0.0
O139 O 0.70602 0.57771 0.11647 0.0
C140 C 0.66791 0.55678 0.08502 0.0
O141 O 0.60758 0.58756 0.10686 0.0
O142 O 0.6448 0.63273 0.09324 0.0
In143 In 0.41683 0.08812 0.10494 0.0
O144 O 0.43432 0.03894 0.10643 0.0
O145 O 0.38785 0.02979 0.0932 0.0
C146 C 0.45139 0.13123 0.12649 0.0
C147 C 0.46338 0.12961 0.08463 0.0
C148 C 0.34379 0.07817 0.11132 0.0
O149 O 0.44226 0.09454 0.12538 0.0
O150 O 0.44537 0.14641 0.11653 0.0
O151 O 0.36603 0.10295 0.10276 0.0
O152 O 0.35713 0.05651 0.11596 0.0
C153 C 0.41021 0.01705 0.09767 0.0
O154 O 0.42543 0.11562 0.0848 0.0
O155 O 0.47784 0.12439 0.09491 0.0
In156 In 0.08826 0.68564 0.93729 0.0
O157 O 0.1052 0.75215 0.93913 0.0
O158 O 0.05818 0.71444 0.92604 0.0
C159 C 0.12427 0.67536 0.95817 0.0
C160 C 0.13276 0.69319 0.91623 0.0
C161 C 0.01495 0.62338 0.94402 0.0
O162 O 0.11564 0.70332 0.95755 0.0
O163 O 0.11726 0.6548 0.94801 0.0
O164 O 0.03619 0.62025 0.93526 0.0
O165 O 0.02952 0.65852 0.94873 0.0
C166 C 0.08059 0.74965 0.93051 0.0
O167 O 0.09561 0.66631 0.91709 0.0
O168 O 0.14774 0.71416 0.92626 0.0
In169 In 0.33812 0.42096 0.93812 0.0
O170 O 0.40402 0.43609 0.93616 0.0
O171 O 0.36574 0.38957 0.94931 0.0
C172 C 0.32939 0.45842 0.91737 0.0
C173 C 0.34671 0.46539 0.9593 0.0
C174 C 0.27536 0.34867 0.93083 0.0
O175 O 0.35712 0.44946 0.91807 0.0
O176 O 0.30827 0.45103 0.92743 0.0
O177 O 0.27205 0.36962 0.93966 0.0
O178 O 0.31079 0.36291 0.9264 0.0
C179 C 0.40099 0.41116 0.94474 0.0
O180 O 0.3192 0.42849 0.95839 0.0
O181 O 0.36775 0.48016 0.94928 0.0
In182 In 0.60184 0.93585 0.93771 0.0
O183 O 0.59453 0.91007 0.9581 0.0
O184 O 0.54241 0.90496 0.94877 0.0
C185 C 0.6742 0.94538 0.93073 0.0
C186 C 0.61058 0.00824 0.94413 0.0
C187 C 0.56469 0.8906 0.91673 0.0
O188 O 0.65234 0.92027 0.93929 0.0
O189 O 0.66084 0.9674 0.92644 0.0
O190 O 0.57459 0.92756 0.91753 0.0
O191 O 0.57105 0.87608 0.9268 0.0
C192 C 0.55739 0.89959 0.9589 0.0
O193 O 0.58596 0.98585 0.93554 0.0
O194 O 0.63248 -0.00474 0.94883 0.0
In195 In 0.60235 0.67967 0.4377 0.0
O196 O 0.59299 0.6971 0.45797 0.0
O197 O 0.54226 0.64891 0.44835 0.0
C198 C 0.67503 0.74335 0.43123 0.0
C199 C 0.61152 0.61637 0.44421 0.0
C200 C 0.56605 0.68984 0.4169 0.0
O201 O 0.65338 0.74545 0.44006 0.0
O202 O 0.66127 0.70851 0.42636 0.0
O203 O 0.5754 0.66237 0.41739 0.0
O204 O 0.57256 0.70996 0.42713 0.0
C205 C 0.5561 0.66931 0.45854 0.0
O206 O 0.58741 0.61394 0.43542 0.0
O207 O 0.63285 0.65133 0.449 0.0
In208 In 0.3445 0.94011 0.43724 0.0
O209 O 0.36272 0.93244 0.41689 0.0
O210 O 0.31524 0.88056 0.42626 0.0
C211 C 0.40807 0.01265 0.44396 0.0
C212 C 0.28058 0.94841 0.43075 0.0
C213 C 0.3541 0.90327 0.458 0.0
O214 O 0.41043 0.99112 0.43514 0.0
O215 O 0.37305 -0.00114 0.4487 0.0
O216 O 0.3268 0.91286 0.45749 0.0
O217 O 0.37437 0.90984 0.44779 0.0
C218 C 0.33569 0.89533 0.41613 0.0
O219 O 0.27828 0.92389 0.43936 0.0
O220 O 0.31567 0.97056 0.42614 0.0
In221 In 0.08403 0.41997 0.43769 0.0
O222 O 0.09362 0.4475 0.41748 0.0
O223 O 0.14426 0.45015 0.42709 0.0
C224 C 0.01209 0.41218 0.44427 0.0
C225 C 0.07387 0.34739 0.43074 0.0
C226 C 0.12055 0.4643 0.45886 0.0
O227 O 0.03449 0.43668 0.43566 0.0
O228 O 0.02468 0.38978 0.44882 0.0
O229 O 0.10997 0.42715 0.45805 0.0
O230 O 0.11517 0.47933 0.44875 0.0
C231 C 0.13052 0.45691 0.41692 0.0
O232 O 0.09841 0.36879 0.4395 0.0
O233 O 0.05257 0.3613 0.42621 0.0
Zn234 Zn 0.00838 0.01385 0.13767 0.0
Zn235 Zn 0.00989 0.01336 0.18416 0.0
Zn236 Zn 0.00899 0.01358 0.16222 0.0
C237 C 0.96298 0.93595 0.18054 0.0
C238 C 0.08719 0.04482 0.18027 0.0
O239 O 0.97639 0.04543 0.15613 0.0
O240 O 0.97565 0.04005 0.13499 0.0
C241 C 0.9692 0.93277 0.14465 0.0
O242 O 0.98145 0.95001 0.16974 0.0
O243 O 0.96207 0.96024 0.18854 0.0
O244 O 0.06319 0.0188 0.18819 0.0
O245 O 0.07275 0.04968 0.16962 0.0
O246 O 0.98171 0.95485 0.13475 0.0
O247 O 0.97659 0.94918 0.15588 0.0
O248 O 0.07325 0.04594 0.15571 0.0
O249 O 0.06738 0.04647 0.13461 0.0
C250 C 0.08956 0.0555 0.14448 0.0
O251 O 0.97366 0.04127 0.17 0.0
O252 O 0.00496 0.06114 0.18858 0.0
C253 C 0.96656 0.05248 0.14498 0.0
C254 C 0.9791 0.06004 0.18078 0.0
Zn255 Zn 0.00939 0.01307 0.35856 0.0
Zn256 Zn 0.0114 0.01382 0.40499 0.0
Zn257 Zn 0.01049 0.01351 0.38045 0.0
C258 C 0.05388 0.09466 0.39785 0.0
C259 C 0.93015 0.97519 0.39821 0.0
O260 O 0.03762 0.97755 0.37276 0.0
O261 O 0.05718 0.00819 0.35408 0.0
C262 C 0.04072 0.0906 0.36209 0.0
O263 O 0.04361 0.07796 0.38668 0.0
O264 O 0.04498 0.07286 0.40779 0.0
O265 O 0.95247 0.98801 0.40806 0.0
O266 O 0.94633 0.9819 0.38696 0.0
O267 O 0.01439 0.06602 0.35434 0.0
O268 O 0.04629 0.07688 0.37278 0.0
O269 O 0.94674 0.98613 0.37306 0.0
O270 O 0.95609 0.96496 0.35446 0.0
C271 C 0.9322 0.96694 0.3624 0.0
O272 O 0.04218 0.98081 0.38662 0.0
O273 O 0.03705 0.98063 0.40776 0.0
C274 C 0.05613 0.98254 0.36195 0.0
C275 C 0.04929 0.9712 0.3978 0.0
Zn276 Zn 0.0088 0.01329 0.90428 0.0
Zn277 Zn 0.008 0.01348 0.85787 0.0
Zn278 Zn 0.00858 0.01356 0.87976 0.0
C279 C 0.05368 0.09109 0.86144 0.0
C280 C 0.93053 0.98107 0.86164 0.0
O281 O 0.04279 0.98351 0.88598 0.0
O282 O 0.04395 0.98981 0.90709 0.0
C283 C 0.04498 0.09419 0.89728 0.0
O284 O 0.03492 0.07694 0.87219 0.0
O285 O 0.05542 0.06696 0.85356 0.0
O286 O 0.95443 0.00725 0.85374 0.0
O287 O 0.94502 0.97637 0.8723 0.0
O288 O 0.03254 0.07209 0.90717 0.0
O289 O 0.03897 0.07782 0.88607 0.0
O290 O 0.94432 0.97943 0.88619 0.0
O291 O 0.95002 0.97802 0.90728 0.0
C292 C 0.92792 0.96874 0.89739 0.0
O293 O 0.04535 0.9873 0.87209 0.0
O294 O 0.01396 0.96622 0.85356 0.0
C295 C 0.05339 0.97748 0.89715 0.0
C296 C 0.04027 0.96832 0.86137 0.0
Zn297 Zn 0.01004 0.0121 0.68357 0.0
Zn298 Zn 0.00837 0.01173 0.63709 0.0
Zn299 Zn 0.00933 0.01205 0.66165 0.0
C300 C 0.96647 0.93088 0.64424 0.0
C301 C 0.0897 0.05085 0.64389 0.0
O302 O 0.9823 0.04809 0.66934 0.0
O303 O 0.96259 0.01754 0.68803 0.0
C304 C 0.97838 0.93465 0.68001 0.0
O305 O 0.97642 0.94759 0.65541 0.0
O306 O 0.9755 0.95267 0.63429 0.0
O307 O 0.06737 0.03826 0.63404 0.0
O308 O 0.07355 0.04382 0.65515 0.0
O309 O 0.00456 0.95898 0.68785 0.0
O310 O 0.97327 0.94862 0.6693 0.0
O311 O 0.0731 0.03958 0.66903 0.0
O312 O 0.06336 0.05998 0.68771 0.0
C313 C 0.08745 0.0585 0.67974 0.0
O314 O 0.97735 0.04447 0.65546 0.0
O315 O 0.9818 0.04404 0.63431 0.0
C316 C 0.96384 0.04325 0.68015 0.0
C317 C 0.96965 0.05356 0.64428 0.0
Zn318 Zn 0.67741 0.34742 0.51691 0.0
Zn319 Zn 0.67846 0.34828 0.47043 0.0
Zn320 Zn 0.67806 0.34796 0.49496 0.0
C321 C 0.75935 0.39098 0.47761 0.0
C322 C 0.63978 0.26726 0.47734 0.0
O323 O 0.64166 0.37487 0.50247 0.0
O324 O 0.6717 0.3948 0.52123 0.0
C325 C 0.75517 0.37924 0.51343 0.0
O326 O 0.74262 0.38114 0.48878 0.0
O327 O 0.73752 0.38163 0.46765 0.0
O328 O 0.65256 0.28935 0.46745 0.0
O329 O 0.64655 0.28366 0.48856 0.0
O330 O 0.73063 0.35325 0.52126 0.0
O331 O 0.74143 0.38426 0.50266 0.0
O332 O 0.65085 0.28441 0.50245 0.0
O333 O 0.62973 0.2939 0.52104 0.0
C334 C 0.63172 0.26999 0.51312 0.0
O335 O 0.6452 0.37928 0.48861 0.0
O336 O 0.64537 0.37394 0.46748 0.0
C337 C 0.6462 0.39346 0.51324 0.0
C338 C 0.63572 0.38623 0.47738 0.0
Zn339 Zn 0.67517 0.34605 0.73755 0.0
Zn340 Zn 0.67545 0.34664 0.69105 0.0
Zn341 Zn 0.67521 0.34624 0.71301 0.0
C342 C 0.59778 0.30035 0.69462 0.0
C343 C 0.70708 0.42408 0.69485 0.0
O344 O 0.70628 0.31313 0.71932 0.0
O345 O 0.69991 0.31204 0.74043 0.0
C346 C 0.59425 0.30839 0.73045 0.0
O347 O 0.61178 0.3191 0.70538 0.0
O348 O 0.6221 0.29899 0.68672 0.0
O349 O 0.68131 0.39999 0.68687 0.0
O350 O 0.71172 0.40978 0.70555 0.0
O351 O 0.61622 0.32109 0.74038 0.0
O352 O 0.61079 0.31483 0.71926 0.0
O353 O 0.70842 0.41051 0.71942 0.0
O354 O 0.70926 0.40493 0.74053 0.0
C355 C 0.71852 0.42698 0.73063 0.0
O356 O 0.70237 0.31021 0.70544 0.0
O357 O 0.72309 0.34116 0.68684 0.0
C358 C 0.71261 0.30291 0.73051 0.0
C359 C 0.72143 0.31529 0.69473 0.0
Zn360 Zn 0.67504 0.34696 0.23922 0.0
Zn361 Zn 0.67548 0.34671 0.19247 0.0
Zn362 Zn 0.67529 0.34681 0.21457 0.0
C363 C 0.72021 0.42474 0.19629 0.0
C364 C 0.59742 0.31333 0.1962 0.0
O365 O 0.70863 0.31613 0.22105 0.0
O366 O 0.70874 0.3219 0.24217 0.0
C367 C 0.71284 0.42779 0.2321 0.0
O368 O 0.70184 0.41026 0.20707 0.0
O369 O 0.7217 0.40093 0.18822 0.0
O370 O 0.62138 0.33853 0.18809 0.0
O371 O 0.61179 0.30957 0.20702 0.0
O372 O 0.70031 0.40593 0.24204 0.0
O373 O 0.70623 0.41115 0.22092 0.0
O374 O 0.61087 0.31324 0.22085 0.0
O375 O 0.616 0.31313 0.242 0.0
C376 C 0.59416 0.30346 0.23203 0.0
O377 O 0.71243 0.32057 0.2072 0.0
O378 O 0.68346 0.30066 0.18827 0.0
C379 C 0.71838 0.30955 0.23228 0.0
C380 C 0.70867 0.30223 0.19643 0.0
Zn381 Zn 0.67648 0.34696 0.03647 0.0
Zn382 Zn 0.6759 0.34725 0.96824 0.0
Zn383 Zn 0.67612 0.34725 0.99186 0.0
C384 C 0.63638 0.26564 0.97542 0.0
C385 C 0.75763 0.38953 0.9754 0.0
O386 O 0.64837 0.38136 1.00023 0.0
O387 O 0.66313 0.36001 1.01766 0.0
C388 C 0.64251 0.28591 1.01244 0.0
O389 O 0.64511 0.28208 0.98665 0.0
O390 O 0.64535 0.28772 0.96552 0.0
O391 O 0.73545 0.37641 0.96552 0.0
O392 O 0.74132 0.38178 0.98665 0.0
O393 O 0.66331 0.32087 1.01763 0.0
O394 O 0.6417 0.28503 1.00015 0.0
O395 O 0.7384 0.37509 1.00015 0.0
O396 O 0.70253 0.36041 1.01763 0.0
C397 C 0.73749 0.37472 1.01245 0.0
O398 O 0.64189 0.37807 0.98672 0.0
O399 O 0.64697 0.37771 0.96559 0.0
C400 C 0.64875 0.3806 1.01253 0.0
C401 C 0.63411 0.38676 0.9755 0.0
Zn402 Zn 0.34282 0.67985 0.84978 0.0
Zn403 Zn 0.34314 0.6797 0.8035 0.0
Zn404 Zn 0.34293 0.67962 0.82798 0.0
C405 C 0.42405 0.72235 0.81057 0.0
C406 C 0.30458 0.59871 0.81056 0.0
O407 O 0.30775 0.70778 0.83551 0.0
O408 O 0.33981 0.72897 0.85392 0.0
C409 C 0.41987 0.70917 0.84635 0.0
O410 O 0.4074 0.71209 0.82174 0.0
O411 O 0.40217 0.71357 0.80064 0.0
O412 O 0.31783 0.62071 0.80066 0.0
O413 O 0.31085 0.61521 0.82175 0.0
O414 O 0.395 0.68302 0.85408 0.0
O415 O 0.40639 0.71501 0.83565 0.0
O416 O 0.31466 0.61625 0.83568 0.0
O417 O 0.29352 0.62757 0.85398 0.0
C418 C 0.29511 0.60277 0.84635 0.0
O419 O 0.31054 0.71137 0.82161 0.0
O420 O 0.30942 0.70472 0.80051 0.0
C421 C 0.31367 0.72738 0.84615 0.0
C422 C 0.30046 0.71771 0.81039 0.0
Zn423 Zn 0.34165 0.68036 0.07216 0.0
Zn424 Zn 0.3425 0.68013 0.02567 0.0
Zn425 Zn 0.34197 0.68022 0.04756 0.0
C426 C 0.26486 0.63455 0.02903 0.0
C427 C 0.37437 0.7576 0.02915 0.0
O428 O 0.37299 0.6471 0.05401 0.0
O429 O 0.3678 0.64764 0.07513 0.0
C430 C 0.26061 0.64184 0.06486 0.0
O431 O 0.27871 0.65349 0.03977 0.0
O432 O 0.28921 0.63243 0.02133 0.0
O433 O 0.34834 0.73331 0.02128 0.0
O434 O 0.37899 0.74363 0.03993 0.0
O435 O 0.28243 0.65408 0.07483 0.0
O436 O 0.27733 0.64891 0.05369 0.0
O437 O 0.37523 0.74476 0.05381 0.0
O438 O 0.37456 0.73949 0.07496 0.0
C439 C 0.38446 0.76139 0.06501 0.0
O440 O 0.36857 0.64348 0.0401 0.0
O441 O 0.39013 0.67454 0.02155 0.0
C442 C 0.38007 0.63784 0.06525 0.0
C443 C 0.38772 0.64829 0.02943 0.0
Zn444 Zn 0.34478 0.6804 0.57117 0.0
Zn445 Zn 0.34269 0.67872 0.5247 0.0
Zn446 Zn 0.34363 0.67965 0.54661 0.0
C447 C 0.38936 0.75637 0.52797 0.0
C448 C 0.26539 0.6475 0.52859 0.0
O449 O 0.37671 0.64854 0.55295 0.0
O450 O 0.37844 0.65528 0.57405 0.0
C451 C 0.38231 0.76112 0.5638 0.0
O452 O 0.37082 0.74284 0.53879 0.0
O453 O 0.39043 0.7317 0.52016 0.0
O454 O 0.28941 0.67316 0.52058 0.0
O455 O 0.27984 0.64297 0.53928 0.0
O456 O 0.37027 0.73946 0.5738 0.0
O457 O 0.3752 0.74426 0.55265 0.0
O458 O 0.27953 0.64681 0.55316 0.0
O459 O 0.28584 0.64684 0.57426 0.0
C460 C 0.26345 0.63725 0.56443 0.0
O461 O 0.37943 0.65223 0.53906 0.0
O462 O 0.34778 0.63082 0.52059 0.0
C463 C 0.38714 0.64228 0.56411 0.0
C464 C 0.37402 0.63285 0.5284 0.0
Zn465 Zn 0.34381 0.68092 0.30394 0.0
Zn466 Zn 0.34327 0.68101 0.35037 0.0
Zn467 Zn 0.34352 0.68073 0.32848 0.0
C468 C 0.42077 0.72733 0.34689 0.0
C469 C 0.31241 0.60353 0.34683 0.0
O470 O 0.31213 0.71345 0.32206 0.0
O471 O 0.31859 0.71443 0.30095 0.0
C472 C 0.42472 0.71915 0.31111 0.0
O473 O 0.40689 0.70822 0.33618 0.0
O474 O 0.39636 0.7291 0.35466 0.0
O475 O 0.33825 0.62813 0.3547 0.0
O476 O 0.30734 0.61725 0.33607 0.0
O477 O 0.40286 0.70646 0.30116 0.0
O478 O 0.40802 0.7124 0.32228 0.0
O479 O 0.3106 0.61636 0.32219 0.0
O480 O 0.31007 0.62191 0.30107 0.0
C481 C 0.3007 0.5999 0.31098 0.0
O482 O 0.31609 0.71668 0.33594 0.0
O483 O 0.29521 0.68583 0.35454 0.0
C484 C 0.30571 0.72347 0.31085 0.0
C485 C 0.29692 0.71165 0.34661 0.0
H486 H 0.21577 0.25237 0.22663 0.0
H487 H 0.13819 0.03388 0.19585 0.0
H488 H 0.217 0.15231 0.24563 0.0
H489 H 0.12383 0.12688 0.17719 0.0
H490 H 0.18327 0.0837 0.21158 0.0
H491 H 0.19419 0.21241 0.20669 0.0
C492 C 0.21144 0.22202 0.22661 0.0
C493 C 0.21755 0.20538 0.23786 0.0
C494 C 0.17117 0.09361 0.20387 0.0
C495 C 0.19383 0.15996 0.21507 0.0
C496 C 0.14598 0.06527 0.19475 0.0
C497 C 0.12691 0.07619 0.18532 0.0
C498 C 0.17681 0.133 0.20367 0.0
C499 C 0.13789 0.11722 0.18434 0.0
C500 C 0.19946 0.19937 0.21521 0.0
C501 C 0.21207 0.16615 0.23725 0.0
N502 N 0.16125 0.14399 0.19365 0.0
N503 N 0.20041 0.14481 0.22609 0.0
H504 H 0.87431 0.08975 0.24692 0.0
H505 H 0.8969 0.01766 0.17725 0.0
H506 H 0.77717 0.98575 0.22771 0.0
H507 H -0.00779 0.1209 0.19719 0.0
H508 H 0.84812 0.01398 0.19329 0.0
H509 H 0.91402 0.10783 0.22719 0.0
C510 C 0.86137 0.07057 0.23854 0.0
C511 C 0.82261 0.03581 0.23903 0.0
C512 C 0.87948 0.0382 0.19395 0.0
C513 C 0.86794 0.05659 0.21625 0.0
C514 C 0.90722 0.04079 0.18464 0.0
C515 C 0.94872 0.0693 0.18602 0.0
C516 C 0.89355 0.06442 0.20462 0.0
C517 C 0.9605 0.0982 0.19587 0.0
C518 C 0.88396 0.08112 0.22722 0.0
C519 C 0.80717 0.01252 0.2278 0.0
N520 N 0.93326 0.09448 0.20495 0.0
N521 N 0.83003 0.02312 0.21689 0.0
H522 H 0.042 0.80822 0.22684 0.0
H523 H 0.90086 0.88522 0.19616 0.0
H524 H 0.93958 0.80489 0.24572 0.0
H525 H 0.00784 0.89907 0.17736 0.0
H526 H 0.9054 0.84012 0.21187 0.0
H527 H 0.0236 0.82987 0.20694 0.0
C528 C 0.01572 0.8121 0.2268 0.0
C529 C -0.00733 0.80538 0.23801 0.0
C530 C 0.92737 0.8521 0.20414 0.0
C531 C 0.97095 0.82923 0.21525 0.0
C532 C 0.92431 0.87729 0.19503 0.0
C533 C 0.95426 0.89619 0.18555 0.0
C534 C 0.96101 0.84631 0.20388 0.0
C535 C 0.98414 0.8851 0.18454 0.0
C536 C 0.00504 0.82413 0.21542 0.0
C537 C 0.95859 0.8103 0.23738 0.0
N538 N 0.98749 0.86175 0.19383 0.0
N539 N 0.94892 0.82206 0.22624 0.0
H540 H 0.146 0.2251 0.29588 0.0
H541 H 0.12293 0.13011 0.36557 0.0
H542 H 0.24276 0.21812 0.31509 0.0
H543 H 0.02824 0.1389 0.34573 0.0
H544 H 0.17187 0.17527 0.34951 0.0
H545 H 0.10642 0.20363 0.31564 0.0
C546 C 0.15887 0.21886 0.30426 0.0
C547 C 0.19749 0.22278 0.30377 0.0
C548 C 0.14063 0.16831 0.34888 0.0
C549 C 0.15231 0.19842 0.32658 0.0
C550 C 0.1128 0.14311 0.35819 0.0
C551 C 0.07139 0.13032 0.35684 0.0
C552 C 0.12674 0.18069 0.33823 0.0
C553 C 0.05986 0.14772 0.34702 0.0
C554 C 0.13636 0.20692 0.3156 0.0
C555 C 0.21287 0.21495 0.31501 0.0
N556 N 0.08717 0.17127 0.33794 0.0
N557 N 0.19008 0.20277 0.32593 0.0
H558 H 0.80503 0.04702 0.31607 0.0
H559 H 0.8808 0.90494 0.34683 0.0
H560 H 0.8021 0.94493 0.29713 0.0
H561 H 0.89624 0.01271 0.36548 0.0
H562 H 0.83592 0.90992 0.33111 0.0
H563 H 0.82651 0.02848 0.33599 0.0
C564 C 0.80897 0.02079 0.3161 0.0
C565 C 0.80241 -0.00213 0.30487 0.0
C566 C 0.84822 0.93198 0.33882 0.0
C567 C 0.82602 0.97598 0.32764 0.0
C568 C 0.87329 0.92868 0.34793 0.0
C569 C 0.89259 0.95871 0.35736 0.0
C570 C 0.84294 0.96591 0.33903 0.0
C571 C 0.88198 0.98895 0.35834 0.0
C572 C 0.82089 0.01003 0.32749 0.0
C573 C 0.80739 0.96384 0.30549 0.0
N574 N 0.85874 -0.0075 0.34904 0.0
N575 N 0.81901 0.95408 0.31664 0.0
H576 H 0.08476 0.8768 0.29594 0.0
H577 H 0.01295 0.90045 0.36551 0.0
H578 H 0.98025 0.78019 0.3151 0.0
H579 H 0.11699 -0.0051 0.34565 0.0
H580 H 0.00877 0.85137 0.3495 0.0
H581 H 0.10305 0.91649 0.31567 0.0
C582 C 0.0655 0.86398 0.30431 0.0
C583 C 0.03054 0.82537 0.30381 0.0
C584 C 0.03327 0.88259 0.34886 0.0
C585 C 0.05158 0.8707 0.32659 0.0
C586 C 0.03614 0.9105 0.35814 0.0
C587 C 0.06504 0.95187 0.35677 0.0
C588 C 0.05961 0.89638 0.33822 0.0
C589 C 0.094 0.96331 0.34696 0.0
C590 C 0.07618 0.88656 0.31563 0.0
C591 C 0.00718 0.81007 0.31502 0.0
N592 N 0.09002 0.93592 0.3379 0.0
N593 N 0.0179 0.83294 0.32593 0.0
H594 H 0.8032 0.77408 0.81508 0.0
H595 H 0.87921 0.99178 0.84616 0.0
H596 H 0.7996 0.87333 0.79639 0.0
H597 H 0.8944 0.89903 0.86462 0.0
H598 H 0.83411 0.94196 0.83042 0.0
H599 H 0.82474 0.81383 0.83505 0.0
C600 C 0.807 0.80422 0.81518 0.0
C601 C 0.80025 0.82069 0.80401 0.0
C602 C 0.8464 0.93209 0.83809 0.0
C603 C 0.82395 0.86589 0.82683 0.0
C604 C 0.8716 0.96043 0.84721 0.0
C605 C 0.89089 0.94958 0.85659 0.0
C606 C 0.84099 0.89279 0.83824 0.0
C607 C 0.88016 0.90862 0.85751 0.0
C608 C 0.81896 0.82674 0.82659 0.0
C609 C 0.80505 0.85963 0.80471 0.0
N610 N 0.85679 0.88186 0.8482 0.0
N611 N 0.81673 0.88089 0.81588 0.0
H612 H 0.14679 0.93853 0.79567 0.0
H613 H 0.12246 0.01237 0.86483 0.0
H614 H 0.2432 0.0438 0.8146 0.0
H615 H 0.02842 0.90735 0.84521 0.0
H616 H 0.17174 0.01639 0.84891 0.0
H617 H 0.10702 0.92082 0.81537 0.0
C618 C 0.15955 0.95807 0.80398 0.0
C619 C 0.19813 -0.00693 0.80342 0.0
C620 C 0.14057 0.99174 0.8483 0.0
C621 C 0.1527 0.97272 0.82617 0.0
C622 C 0.11256 0.98898 0.85754 0.0
C623 C 0.07123 0.9598 0.8562 0.0
C624 C 0.12694 0.96502 0.83776 0.0
C625 C 0.05997 0.93057 0.84649 0.0
C626 C 0.13693 0.94773 0.81529 0.0
C627 C 0.21335 0.01682 0.81457 0.0
N628 N 0.08745 0.93443 0.83749 0.0
N629 N 0.19043 0.00643 0.82547 0.0
H630 H 0.08214 0.22609 0.79555 0.0
H631 H 0.00916 0.12834 0.86486 0.0
H632 H 0.97672 0.21619 0.81442 0.0
H633 H 0.1148 0.14118 0.8454 0.0
H634 H 0.00467 0.17314 0.84886 0.0
H635 H 0.10029 0.20488 0.81533 0.0
C636 C 0.06265 0.21925 0.80386 0.0
C637 C 0.02748 0.22229 0.80327 0.0
C638 C 0.02958 0.16717 0.8483 0.0
C639 C 0.04834 0.19818 0.82612 0.0
C640 C 0.0326 0.14219 0.85759 0.0
C641 C 0.0621 0.13066 0.85633 0.0
C642 C 0.05634 0.1806 0.83777 0.0
C643 C 0.09137 0.14906 0.84663 0.0
C644 C 0.07324 0.20746 0.81522 0.0
C645 C 0.00382 0.21372 0.81442 0.0
N646 N 0.08724 0.17237 0.83757 0.0
N647 N 0.01446 0.20167 0.82537 0.0
H648 H 0.77108 0.80532 0.72655 0.0
H649 H -0.00998 0.88456 0.69579 0.0
H650 H 0.87158 0.80485 0.74558 0.0
H651 H 0.89617 0.89742 0.67705 0.0
H652 H 0.94052 0.83958 0.7116 0.0
H653 H 0.81114 0.82732 0.70665 0.0
C654 C 0.80156 0.80991 0.72655 0.0
C655 C 0.81827 0.80387 0.73779 0.0
C656 C 0.93035 0.85134 0.70386 0.0
C657 C 0.86383 0.8281 0.71503 0.0
C658 C 0.95852 0.87647 0.69469 0.0
C659 C 0.94724 0.89506 0.6852 0.0
C660 C 0.89077 0.84526 0.70364 0.0
C661 C 0.90609 0.88372 0.68424 0.0
C662 C 0.82426 0.82214 0.71517 0.0
C663 C 0.85766 0.8097 0.7372 0.0
N664 N 0.87948 0.86041 0.69358 0.0
N665 N 0.87907 0.82161 0.72606 0.0
H666 H 0.22193 0.08654 0.74564 0.0
H667 H 0.12497 0.01431 0.6762 0.0
H668 H 0.21226 0.9814 0.72667 0.0
H669 H 0.13776 0.11983 0.69571 0.0
H670 H 0.16977 0.00979 0.69221 0.0
H671 H 0.2011 0.10498 0.72584 0.0
C672 C 0.21521 0.06717 0.7373 0.0
C673 C 0.2182 0.03199 0.73788 0.0
C674 C 0.1638 0.03469 0.69277 0.0
C675 C 0.19455 0.0532 0.715 0.0
C676 C 0.13883 0.03774 0.68348 0.0
C677 C 0.12723 0.06717 0.68477 0.0
C678 C 0.17716 0.06136 0.70333 0.0
C679 C 0.14567 0.09643 0.69446 0.0
C680 C 0.20365 0.07794 0.72593 0.0
C681 C 0.20981 0.00849 0.72669 0.0
N682 N 0.16895 0.09226 0.70354 0.0
N683 N 0.19798 0.0193 0.71573 0.0
H684 H 0.93408 0.15042 0.74569 0.0
H685 H 0.00696 0.1253 0.67646 0.0
H686 H 0.03888 0.24664 0.72653 0.0
H687 H 0.90302 0.03111 0.69643 0.0
H688 H 0.01084 0.1747 0.6923 0.0
H689 H 0.91616 0.11028 0.72607 0.0
C690 C 0.95348 0.16307 0.73735 0.0
C691 C 0.98842 0.2017 0.73782 0.0
C692 C 0.98644 0.14345 0.693 0.0
C693 C 0.96781 0.15583 0.71516 0.0
C694 C 0.98375 0.11536 0.68381 0.0
C695 C 0.95495 0.07399 0.68527 0.0
C696 C 0.96002 0.12986 0.70362 0.0
C697 C 0.92594 0.0627 0.69506 0.0
C698 C 0.94301 0.14023 0.72608 0.0
C699 C 0.01197 0.21676 0.72663 0.0
N700 N 0.92974 0.09027 0.70401 0.0
N701 N 0.00145 0.19363 0.71578 0.0
H702 H 0.88869 0.48427 0.57972 0.0
H703 H 0.79392 0.46138 0.51003 0.0
H704 H 0.88293 0.5816 0.56049 0.0
H705 H 0.80416 0.3673 0.52965 0.0
H706 H 0.83892 0.51041 0.52612 0.0
H707 H 0.86731 0.44488 0.55994 0.0
C708 C 0.88272 0.49731 0.57133 0.0
C709 C 0.88697 0.53604 0.57182 0.0
C710 C 0.83233 0.4793 0.52669 0.0
C711 C 0.86268 0.49104 0.54897 0.0
C712 C 0.80723 0.45143 0.51736 0.0
C713 C 0.7949 0.41014 0.51864 0.0
C714 C 0.84505 0.46555 0.53729 0.0
C715 C 0.81264 0.39882 0.5284 0.0
C716 C 0.87084 0.4749 0.55997 0.0
C717 C 0.8795 0.55163 0.56057 0.0
N718 N 0.83607 0.42614 0.53751 0.0
N719 N 0.86733 0.52891 0.54962 0.0
H720 H 0.4387 0.31457 0.55938 0.0
H721 H 0.65782 0.45559 0.5288 0.0
H722 H 0.53844 0.4172 0.57826 0.0
H723 H 0.56409 0.34827 0.51007 0.0
H724 H 0.60809 0.4511 0.54444 0.0
H725 H 0.47891 0.33278 0.53952 0.0
C726 C 0.46904 0.34086 0.55935 0.0
C727 C 0.4855 0.36402 0.57054 0.0
C728 C 0.598 0.42904 0.53674 0.0
C729 C 0.53126 0.38551 0.54783 0.0
C730 C 0.6263 0.43206 0.52766 0.0
C731 C 0.6151 0.40202 0.51823 0.0
C732 C 0.55837 0.39535 0.53649 0.0
C733 C 0.57394 0.37204 0.51722 0.0
C734 C 0.49184 0.35142 0.54799 0.0
C735 C 0.52473 0.3981 0.56992 0.0
N736 N 0.54719 0.36874 0.52648 0.0
N737 N 0.54625 0.40767 0.5588 0.0
H738 H 0.71024 0.14204 0.55978 0.0
H739 H 0.5693 0.21856 0.52854 0.0
H740 H 0.60795 0.13968 0.57843 0.0
H741 H 0.67762 0.2341 0.51022 0.0
H742 H 0.57383 0.17358 0.5443 0.0
H743 H 0.69238 0.16384 0.53979 0.0
C744 C 0.68412 0.14618 0.55968 0.0
C745 C 0.66094 0.13968 0.57084 0.0
C746 C 0.59612 0.18593 0.53666 0.0
C747 C 0.6398 0.16362 0.54799 0.0
C748 C 0.59308 0.21105 0.52752 0.0
C749 C 0.62337 0.23038 0.51818 0.0
C750 C 0.63007 0.18063 0.53656 0.0
C751 C 0.65366 0.2198 0.5173 0.0
C752 C 0.67375 0.15828 0.54825 0.0
C753 C 0.62706 0.14491 0.57012 0.0
N754 N 0.65695 0.19649 0.52663 0.0
N755 N 0.61766 0.15668 0.55894 0.0
H756 H 0.9151 0.55266 0.64893 0.0
H757 H 0.696 0.47479 0.67919 0.0
H758 H 0.81606 0.55583 0.62986 0.0
H759 H 0.78912 0.46124 0.69816 0.0
H760 H 0.7461 0.52027 0.6636 0.0
H761 H 0.87476 0.53094 0.66877 0.0
C762 C 0.88488 0.54872 0.64892 0.0
C763 C 0.86864 0.5554 0.63768 0.0
C764 C 0.75598 0.50826 0.67135 0.0
C765 C 0.82276 0.53148 0.66036 0.0
C766 C 0.72746 0.48283 0.68039 0.0
C767 C 0.73837 0.46389 0.68986 0.0
C768 C 0.79551 0.51424 0.67168 0.0
C769 C 0.77948 0.47519 0.69097 0.0
C770 C 0.86202 0.53667 0.66026 0.0
C771 C 0.82959 0.55044 0.63824 0.0
N772 N 0.80642 0.49876 0.68174 0.0
N773 N 0.808 0.53863 0.64935 0.0
H774 H 0.46958 0.37812 0.64784 0.0
H775 H 0.54717 0.23808 0.67901 0.0
H776 H 0.46766 0.27622 0.6291 0.0
H777 H 0.56099 0.34541 0.69753 0.0
H778 H 0.50219 0.24237 0.66318 0.0
H779 H 0.49128 0.36016 0.66782 0.0
C780 C 0.47379 0.35205 0.64793 0.0
C781 C 0.46744 0.32901 0.63674 0.0
C782 C 0.51415 0.26447 0.67088 0.0
C783 C 0.49133 0.30779 0.65958 0.0
C784 C 0.53927 0.26157 0.68006 0.0
C785 C 0.55812 0.29167 0.68949 0.0
C786 C 0.50837 0.2981 0.67102 0.0
C787 C 0.54706 0.32159 0.69038 0.0
C788 C 0.48584 0.34163 0.65935 0.0
C789 C 0.47277 0.29521 0.63743 0.0
N790 N 0.52377 0.32477 0.68102 0.0
N791 N 0.48452 0.28577 0.64861 0.0
H792 H 0.64399 0.10949 0.64801 0.0
H793 H 0.78398 0.32764 0.67923 0.0
H794 H 0.748 0.20914 0.62965 0.0
H795 H 0.67651 0.23313 0.69767 0.0
H796 H 0.78015 0.27842 0.6635 0.0
H797 H 0.66155 0.1492 0.66796 0.0
C798 C 0.67045 0.13971 0.64817 0.0
C799 C 0.6942 0.1563 0.6371 0.0
C800 C 0.75791 0.26805 0.67116 0.0
C801 C 0.71493 0.20149 0.65991 0.0
C802 C 0.76055 0.29606 0.68028 0.0
C803 C 0.73027 0.28449 0.68966 0.0
C804 C 0.72437 0.22834 0.67131 0.0
C805 C 0.70045 0.24327 0.69057 0.0
C806 C 0.68065 0.16222 0.65958 0.0
C807 C 0.72847 0.19535 0.63789 0.0
N808 N 0.69752 0.21681 0.68126 0.0
N809 N 0.73765 0.21661 0.64906 0.0
H810 H 0.46929 0.10754 0.14942 0.0
H811 H 0.54527 0.32419 0.1812 0.0
H812 H 0.46317 0.20649 0.13152 0.0
H813 H 0.56147 0.23135 0.19912 0.0
H814 H 0.49929 0.27447 0.1656 0.0
H815 H 0.49109 0.14663 0.16953 0.0
C816 C 0.47253 0.13744 0.14972 0.0
C817 C 0.46507 0.15408 0.13872 0.0
C818 C 0.51198 0.26453 0.17313 0.0
C819 C 0.48911 0.19851 0.1617 0.0
C820 C 0.53768 0.29282 0.18218 0.0
C821 C 0.55745 0.2819 0.19136 0.0
C822 C 0.50661 0.22524 0.17313 0.0
C823 C 0.5468 0.24095 0.19217 0.0
C824 C 0.48465 0.15959 0.16121 0.0
C825 C 0.46918 0.19269 0.13969 0.0
N826 N 0.52296 0.21426 0.18292 0.0
N827 N 0.48108 0.21359 0.15092 0.0
H828 H 0.91406 0.38128 0.14951 0.0
H829 H 0.69794 0.23889 0.18166 0.0
H830 H 0.81558 0.2741 0.13205 0.0
H831 H 0.79068 0.34924 0.19927 0.0
H832 H 0.74764 0.24288 0.1661 0.0
H833 H 0.87512 0.36423 0.16963 0.0
C834 C 0.88429 0.35421 0.14991 0.0
C835 C 0.86775 0.32944 0.13903 0.0
C836 C 0.75757 0.26575 0.17355 0.0
C837 C 0.82348 0.30932 0.16203 0.0
C838 C 0.7293 0.26302 0.18259 0.0
C839 C 0.74018 0.29396 0.19167 0.0
C840 C 0.79681 0.30008 0.17346 0.0
C841 C 0.78111 0.32474 0.19241 0.0
C842 C 0.86223 0.34433 0.16141 0.0
C843 C 0.82931 0.29443 0.14013 0.0
N844 N 0.80778 0.32773 0.18316 0.0
N845 N 0.80849 0.28558 0.15137 0.0
H846 H 0.75122 0.56357 0.13124 0.0
H847 H 0.67529 0.46144 0.19987 0.0
H848 H 0.64274 0.54872 0.14938 0.0
H849 H 0.78198 0.47605 0.18065 0.0
H850 H 0.67116 0.50702 0.18409 0.0
H851 H 0.76919 0.5427 0.15112 0.0
C852 C 0.73104 0.55576 0.13942 0.0
C853 C 0.69504 0.55721 0.13858 0.0
C854 C 0.69622 0.50127 0.18355 0.0
C855 C 0.71566 0.5334 0.16153 0.0
C856 C 0.69903 0.47585 0.19272 0.0
C857 C 0.72873 0.4646 0.19143 0.0
C858 C 0.72343 0.51546 0.17314 0.0
C859 C 0.7584 0.48371 0.18189 0.0
C860 C 0.74152 0.54413 0.15083 0.0
C861 C 0.67051 0.54746 0.14957 0.0
N862 N 0.75449 0.50748 0.17295 0.0
N863 N 0.68104 0.53553 0.16057 0.0
H864 H 0.43917 0.13857 0.06055 0.0
H865 H 0.6659 0.26606 0.03435 0.0
H866 H 0.54526 0.16197 0.08236 0.0
H867 H 0.56168 0.22908 1.0099 0.0
H868 H 0.62141 0.22228 0.05134 0.0
H869 H 0.48224 0.16791 0.0415 0.0
C870 C 0.47151 0.14998 0.06134 0.0
C871 C 0.48874 0.14824 0.07309 0.0
C872 C 0.6081 0.2229 0.0422 0.0
C873 C 0.53802 0.18132 0.05134 0.0
C874 C 0.63359 0.24758 0.03245 0.0
C875 C 0.61734 0.25081 1.02073 0.0
C876 C 0.56582 0.20199 0.04034 0.0
C877 C 0.57531 0.22688 1.01879 0.0
C878 C 0.496 0.16641 0.05044 0.0
C879 C 0.5307 0.16301 0.07353 0.0
N880 N 0.55077 0.20395 0.02861 0.0
N881 N 0.55385 0.17907 0.06286 0.0
H882 H 0.88125 0.31615 0.06112 0.0
H883 H 0.75841 0.41878 0.03419 0.0
H884 H 0.86105 0.40141 0.08246 0.0
H885 H 0.79282 0.34919 1.01012 0.0
H886 H 0.80152 0.4175 0.0513 0.0
H887 H 0.8524 0.32993 0.04196 0.0
C888 C 0.87062 0.33764 0.06179 0.0
C889 C 0.87315 0.35735 0.07344 0.0
C890 C 0.8005 0.40318 0.04221 0.0
C891 C 0.84066 0.37362 0.05156 0.0
C892 C 0.77623 0.40434 0.0324 0.0
C893 C 0.77249 0.38441 1.02074 0.0
C894 C 0.82046 0.38099 0.04049 0.0
C895 C 0.7955 0.36544 1.01894 0.0
C896 C 0.85449 0.34574 0.05083 0.0
C897 C 0.85939 0.38525 0.07372 0.0
N898 N 0.81801 0.36351 0.02883 0.0
N899 N 0.84361 0.39237 0.06299 0.0
H900 H 0.61793 0.47486 0.08323 0.0
H901 H 0.66895 0.46015 1.00937 0.0
H902 H 0.70037 0.57959 0.06078 0.0
H903 H 0.6089 0.35801 0.03508 0.0
H904 H 0.66934 0.50472 0.02659 0.0
H905 H 0.60455 0.43211 0.06434 0.0
C906 C 0.63333 0.48887 0.07432 0.0
C907 C 0.66069 0.53078 0.07362 0.0
C908 C 0.65532 0.47241 0.02834 0.0
C909 C 0.64515 0.48195 0.05185 0.0
C910 C 0.65456 0.44698 1.01848 0.0
C911 C 0.63879 0.4055 1.02087 0.0
C912 C 0.63988 0.45591 0.04055 0.0
C913 C 0.6213 0.3899 0.03289 0.0
C914 C 0.62554 0.46445 0.06351 0.0
C915 C 0.67941 0.54731 0.06177 0.0
N916 N 0.6226 0.41512 0.0423 0.0
N917 N 0.67141 0.52282 0.05134 0.0
H918 H 0.54858 0.91422 0.89355 0.0
H919 H 0.46863 0.69606 0.86231 0.0
H920 H 0.54964 0.81374 0.91231 0.0
H921 H 0.45858 0.79145 0.84353 0.0
H922 H 0.51354 0.7448 0.87833 0.0
H923 H 0.52686 0.87465 0.87356 0.0
C924 C 0.54416 0.88383 0.89347 0.0
C925 C 0.5503 0.86699 0.90466 0.0
C926 C 0.50242 0.75546 0.87053 0.0
C927 C 0.52633 0.82194 0.88181 0.0
C928 C 0.47733 0.72772 0.86126 0.0
C929 C 0.45953 0.73967 0.85169 0.0
C930 C 0.50925 0.79529 0.87034 0.0
C931 C 0.47164 0.781 0.85078 0.0
C932 C 0.5321 0.8614 0.88204 0.0
C933 C 0.54471 0.82773 0.90397 0.0
N934 N 0.49489 0.80719 0.86022 0.0
N935 N 0.5329 0.80655 0.89278 0.0
H936 H 0.10855 0.65281 0.89313 0.0
H937 H 0.32724 0.78998 0.86182 0.0
H938 H 0.20987 0.75489 0.91167 0.0
H939 H 0.23131 0.68354 0.84335 0.0
H940 H 0.27861 0.78679 0.87768 0.0
H941 H 0.14807 0.67001 0.87315 0.0
C942 C 0.1391 0.67877 0.89301 0.0
C943 C 0.15619 0.70207 0.90414 0.0
C944 C 0.26782 0.76465 0.86998 0.0
C945 C 0.20119 0.7224 0.88129 0.0
C946 C 0.2955 0.76692 0.86079 0.0
C947 C 0.28334 0.73672 0.85137 0.0
C948 C 0.22784 0.73155 0.86985 0.0
C949 C 0.24192 0.7074 0.85049 0.0
C950 C 0.16151 0.68876 0.88158 0.0
C951 C 0.19567 0.73571 0.90338 0.0
N952 N 0.21577 0.70482 0.85986 0.0
N953 N 0.21681 0.74471 0.8922 0.0
H954 H 0.26567 0.47049 0.91316 0.0
H955 H 0.33792 0.56357 0.84322 0.0
H956 H 0.36963 0.47734 0.8942 0.0
H957 H 0.23417 0.55485 0.8628 0.0
H958 H 0.34181 0.5193 0.85955 0.0
H959 H 0.24779 0.49164 0.89329 0.0
C960 C 0.28491 0.47666 0.90481 0.0
C961 C 0.31958 0.47276 0.9054 0.0
C962 C 0.31745 0.52608 0.86007 0.0
C963 C 0.29899 0.49671 0.88246 0.0
C964 C 0.31474 0.55075 0.8506 0.0
C965 C 0.28601 0.56332 0.85179 0.0
C966 C 0.29113 0.51398 0.87071 0.0
C967 C 0.25704 0.54618 0.86162 0.0
C968 C 0.27446 0.48841 0.89341 0.0
C969 C 0.34293 0.4805 0.89421 0.0
N970 N 0.26088 0.52315 0.87086 0.0
N971 N 0.33242 0.49245 0.88322 0.0
H972 H 0.58104 0.88374 0.98217 0.0
H973 H 0.3635 0.8084 1.01349 0.0
H974 H 0.48084 0.88535 0.96335 0.0
H975 H 0.45651 0.79359 0.03197 0.0
H976 H 0.41303 0.85266 0.99755 0.0
H977 H 0.5415 0.86266 1.00219 0.0
C978 C 0.55074 0.87959 0.98224 0.0
C979 C 0.53395 0.88568 0.97102 0.0
C980 C 0.42303 0.84064 1.00527 0.0
C981 C 0.48901 0.86253 0.99391 0.0
C982 C 0.39486 0.81595 1.0145 0.0
C983 C 0.40585 0.79701 0.02396 0.0
C984 C 0.46231 0.84593 1.00538 0.0
C985 C 0.44682 0.8076 0.02481 0.0
C986 C 0.52834 0.86789 0.99368 0.0
C987 C 0.4948 0.88044 0.9717 0.0
N988 N 0.4734 0.83049 1.0154 0.0
N989 N 0.47369 0.86906 0.98291 0.0
H990 H 0.13471 0.61062 0.9622 0.0
H991 H 0.22793 0.67948 0.03227 0.0
H992 H 0.14326 0.7148 0.9815 0.0
H993 H 0.21552 0.57445 1.01254 0.0
H994 H 0.18457 0.68522 1.01599 0.0
H995 H 0.15485 0.59146 0.98202 0.0
C996 C 0.14104 0.62963 0.97062 0.0
C997 C 0.13791 0.66473 0.97013 0.0
C998 C 0.19031 0.66018 1.01542 0.0
C999 C 0.16074 0.64268 0.99302 0.0
C1000 C 0.21446 0.65643 0.02487 0.0
C1001 C 0.22574 0.62674 0.02363 0.0
C1002 C 0.17745 0.63396 1.00475 0.0
C1003 C 0.20784 0.59801 1.01376 0.0
C1004 C 0.15221 0.61845 0.98199 0.0
C1005 C 0.14581 0.68777 0.98141 0.0
N1006 N 0.18535 0.60286 1.00455 0.0
N1007 N 0.15724 0.67655 0.99237 0.0
H1008 H 0.30606 0.44205 0.98239 0.0
H1009 H 0.4498 0.65907 1.01396 0.0
H1010 H 0.41012 0.54145 0.96396 0.0
H1011 H 0.34083 0.5662 0.03219 0.0
H1012 H 0.4445 0.60954 0.9981 0.0
H1013 H 0.3244 0.48151 1.00241 0.0
C1014 C 0.33269 0.47216 0.98255 0.0
C1015 C 0.35624 0.48875 0.97143 0.0
C1016 C 0.42223 0.59957 1.00574 0.0
C1017 C 0.37787 0.53362 0.99434 0.0
C1018 C 0.42571 0.62774 1.01494 0.0
C1019 C 0.39549 0.61679 0.0243 0.0
C1020 C 0.38793 0.56033 1.0058 0.0
C1021 C 0.36477 0.57586 0.02511 0.0
C1022 C 0.34332 0.49451 0.994 0.0
C1023 C 0.39074 0.52765 0.97223 0.0
N1024 N 0.36108 0.54928 1.01573 0.0
N1025 N 0.40037 0.54874 0.98344 0.0
H1026 H 0.13669 0.44065 0.48208 0.0
H1027 H 0.21405 0.65856 0.51322 0.0
H1028 H 0.1349 0.5408 0.46335 0.0
H1029 H 0.22885 0.56547 0.53161 0.0
H1030 H 0.16874 0.60887 0.4975 0.0
H1031 H 0.15825 0.48026 0.50208 0.0
C1032 C 0.14089 0.47095 0.48217 0.0
C1033 C 0.13464 0.48772 0.47098 0.0
C1034 C 0.18098 0.5989 0.50515 0.0
C1035 C 0.15834 0.53274 0.49384 0.0
C1036 C 0.20629 0.62716 0.51427 0.0
C1037 C 0.22554 0.61617 0.52362 0.0
C1038 C 0.17541 0.55953 0.50527 0.0
C1039 C 0.21463 0.57516 0.52453 0.0
C1040 C 0.15286 0.49339 0.4936 0.0
C1041 C 0.13994 0.52686 0.47168 0.0
N1042 N 0.19116 0.54847 0.51522 0.0
N1043 N 0.15161 0.54802 0.48287 0.0
H1044 H 0.48031 0.60473 0.46252 0.0
H1045 H 0.45615 0.67611 0.53205 0.0
H1046 H 0.57688 0.70895 0.48183 0.0
H1047 H 0.36191 0.57196 0.51215 0.0
H1048 H 0.50544 0.68025 0.51613 0.0
H1049 H 0.44055 0.58615 0.48224 0.0
C1050 C 0.49311 0.62385 0.47092 0.0
C1051 C 0.53171 0.65883 0.47046 0.0
C1052 C 0.47421 0.65574 0.51546 0.0
C1053 C 0.48631 0.63747 0.49322 0.0
C1054 C 0.44619 0.65291 0.52469 0.0
C1055 C 0.40481 0.62401 0.52327 0.0
C1056 C 0.46054 0.62938 0.50482 0.0
C1057 C 0.3935 0.59498 0.51349 0.0
C1058 C 0.47049 0.61301 0.48223 0.0
C1059 C 0.547 0.68202 0.48172 0.0
N1060 N 0.421 0.59895 0.50448 0.0
N1061 N 0.52409 0.67115 0.49261 0.0
H1062 H 0.41768 0.89078 0.46184 0.0
H1063 H 0.34671 0.79554 0.53156 0.0
H1064 H 0.31479 0.88456 0.48134 0.0
H1065 H 0.44999 0.80481 0.51152 0.0
H1066 H 0.34274 0.84065 0.51557 0.0
H1067 H 0.43591 0.86902 0.4815 0.0
C1068 C 0.39877 0.88464 0.47027 0.0
C1069 C 0.36427 0.88887 0.46989 0.0
C1070 C 0.36703 0.83381 0.51488 0.0
C1071 C 0.38524 0.86415 0.49259 0.0
C1072 C 0.36978 0.80864 0.52416 0.0
C1073 C 0.3984 0.79602 0.52274 0.0
C1074 C 0.39319 0.84633 0.50419 0.0
C1075 C 0.42721 0.81351 0.51287 0.0
C1076 C 0.40941 0.87253 0.48155 0.0
C1077 C 0.34134 0.88116 0.48118 0.0
N1078 N 0.42334 0.83703 0.50383 0.0
N1079 N 0.35201 0.86879 0.49205 0.0
H1080 H 0.20654 0.46917 0.41297 0.0
H1081 H 0.23026 0.56435 0.34328 0.0
H1082 H 0.10971 0.47571 0.39363 0.0
H1083 H 0.32452 0.55488 0.36314 0.0
H1084 H 0.18112 0.51924 0.35932 0.0
H1085 H 0.24629 0.49076 0.39325 0.0
C1086 C 0.19369 0.47535 0.40457 0.0
C1087 C 0.15499 0.47126 0.40501 0.0
C1088 C 0.21231 0.52603 0.35995 0.0
C1089 C 0.20038 0.49576 0.38224 0.0
C1090 C 0.24024 0.55118 0.35065 0.0
C1091 C 0.2816 0.56376 0.35201 0.0
C1092 C 0.22604 0.51348 0.3706 0.0
C1093 C 0.29295 0.5462 0.36183 0.0
C1094 C 0.21629 0.48735 0.39325 0.0
C1095 C 0.13965 0.47901 0.39375 0.0
N1096 N 0.26554 0.5227 0.37091 0.0
N1097 N 0.16254 0.49126 0.38285 0.0
H1098 H 0.55426 0.75384 0.41311 0.0
H1099 H 0.45946 0.68423 0.34327 0.0
H1100 H 0.54741 0.65087 0.39349 0.0
H1101 H 0.46955 0.7877 0.36339 0.0
H1102 H 0.50427 0.67972 0.35928 0.0
H1103 H 0.53303 0.77262 0.39344 0.0
C1104 C 0.54809 0.73502 0.40466 0.0
C1105 C 0.55198 0.70035 0.405 0.0
C1106 C 0.49767 0.70416 0.35998 0.0
C1107 C 0.52788 0.72194 0.3823 0.0
C1108 C 0.47267 0.70721 0.3507 0.0
C1109 C 0.46033 0.73603 0.35215 0.0
C1110 C 0.51032 0.73022 0.37069 0.0
C1111 C 0.478 0.76475 0.36203 0.0
C1112 C 0.53629 0.74598 0.39337 0.0
C1113 C 0.54426 0.67756 0.39368 0.0
N1114 N 0.50135 0.76058 0.37108 0.0
N1115 N 0.53219 0.68854 0.38281 0.0
H1116 H 0.37528 0.9187 0.39289 0.0
H1117 H 0.2347 0.69972 0.36221 0.0
H1118 H 0.27314 0.81856 0.41179 0.0
H1119 H 0.34183 0.79377 0.34349 0.0
H1120 H 0.23901 0.74927 0.37789 0.0
H1121 H 0.35696 0.87868 0.37298 0.0
C1122 C 0.34907 0.88832 0.39285 0.0
C1123 C 0.32608 0.87168 0.40406 0.0
C1124 C 0.26106 0.75946 0.37018 0.0
C1125 C 0.30446 0.82614 0.38131 0.0
C1126 C 0.25815 0.73126 0.36109 0.0
C1127 C 0.28822 0.7426 0.35165 0.0
C1128 C 0.29466 0.79914 0.36994 0.0
C1129 C 0.31806 0.78379 0.35065 0.0
C1130 C 0.33844 0.86563 0.38147 0.0
C1131 C 0.29209 0.83241 0.40343 0.0
N1132 N 0.32126 0.81045 0.35992 0.0
N1133 N 0.28247 0.81099 0.39229 0.0
H1134 H 0.3082 0.12089 0.10284 0.0
H1135 H 0.14081 0.03998 0.15877 0.0
H1136 H 0.29827 0.03623 0.13217 0.0
H1137 H 0.13686 0.10415 0.12514 0.0
H1138 H 0.20638 0.04965 0.15151 0.0
H1139 H 0.25151 0.12384 0.11274 0.0
C1140 C 0.29389 0.1027 0.11131 0.0
C1141 C 0.30764 0.07792 0.1166 0.0
C1142 C 0.19147 0.06224 0.14585 0.0
C1143 C 0.24328 0.08175 0.12814 0.0
C1144 C 0.15437 0.05727 0.1501 0.0
C1145 C 0.13334 0.07108 0.14249 0.0
C1146 C 0.20754 0.08134 0.13399 0.0
C1147 C 0.152 0.09276 0.13123 0.0
C1148 C 0.26171 0.10459 0.11701 0.0
C1149 C 0.28831 0.05538 0.12769 0.0
N1150 N 0.18779 0.09684 0.12725 0.0
N1151 N 0.25711 0.05782 0.13309 0.0
H1152 H 0.98817 0.28333 0.13294 0.0
H1153 H 0.91376 0.04806 0.12667 0.0
H1154 H 0.90081 0.20469 0.10472 0.0
H1155 H 0.9852 0.12113 0.15864 0.0
H1156 H 0.90381 0.10351 0.11963 0.0
H1157 H 0.98547 0.22402 0.14304 0.0
C1158 C 0.96864 0.2536 0.12881 0.0
C1159 C 0.94499 0.24897 0.11789 0.0
C1160 C 0.92102 0.10729 0.12833 0.0
C1161 C 0.94131 0.18088 0.12952 0.0
C1162 C 0.92639 0.07547 0.13241 0.0
C1163 C 0.95045 0.08015 0.14321 0.0
C1164 C 0.94052 0.14441 0.13495 0.0
C1165 C 0.96626 0.11627 0.15029 0.0
C1166 C 0.9668 0.2197 0.13466 0.0
C1167 C 0.91983 0.20969 0.11306 0.0
N1168 N 0.9617 0.14742 0.14589 0.0
N1169 N 0.9188 0.17721 0.11886 0.0
H1170 H 0.81545 0.71454 0.10285 0.0
H1171 H 0.90253 0.88116 0.15902 0.0
H1172 H 0.74076 0.72241 0.13255 0.0
H1173 H 0.97069 0.88567 0.12537 0.0
H1174 H 0.84644 0.81534 0.15177 0.0
H1175 H 0.87533 0.77139 0.11277 0.0
C1176 C 0.81162 0.72844 0.1114 0.0
C1177 C 0.77303 0.71405 0.11679 0.0
C1178 C 0.874 0.83042 0.1461 0.0
C1179 C 0.84151 0.77862 0.12836 0.0
C1180 C 0.90623 0.86767 0.15035 0.0
C1181 C 0.9411 0.88892 0.14273 0.0
C1182 C 0.87699 0.81447 0.13423 0.0
C1183 C 0.94412 0.87035 0.13147 0.0
C1184 C 0.84584 0.7607 0.11712 0.0
C1185 C 0.76991 0.73287 0.12799 0.0
N1186 N 0.91232 0.83445 0.12749 0.0
N1187 N 0.80369 0.76419 0.1334 0.0
H1188 H 0.03106 0.30284 0.40987 0.0
H1189 H 0.10601 0.14294 0.41638 0.0
H1190 H 0.11699 0.31142 0.43855 0.0
H1191 H 0.03577 0.14492 0.38415 0.0
H1192 H 0.11546 0.20811 0.4235 0.0
H1193 H 0.03457 0.24679 0.39975 0.0
C1194 C 0.05044 0.29272 0.4141 0.0
C1195 C 0.07345 0.31154 0.42515 0.0
C1196 C 0.09864 0.19481 0.41472 0.0
C1197 C 0.07808 0.24778 0.41351 0.0
C1198 C 0.09355 0.15776 0.41059 0.0
C1199 C 0.06993 0.1385 0.3997 0.0
C1200 C 0.0793 0.2124 0.40805 0.0
C1201 C 0.05436 0.15888 0.39257 0.0
C1202 C 0.05275 0.26099 0.40824 0.0
C1203 C 0.09845 0.29754 0.43011 0.0
N1204 N 0.05862 0.19442 0.39701 0.0
N1205 N 0.09995 0.2664 0.42429 0.0
H1206 H 0.71149 0.82167 0.43999 0.0
H1207 H 0.87775 0.90917 0.38375 0.0
H1208 H 0.71953 0.74759 0.41011 0.0
H1209 H 0.88369 0.97665 0.41774 0.0
H1210 H 0.81171 0.85349 0.39094 0.0
H1211 H 0.76834 0.88175 0.43013 0.0
C1212 C 0.7254 0.81803 0.4314 0.0
C1213 C 0.71111 0.77955 0.42595 0.0
C1214 C 0.82716 0.88082 0.3967 0.0
C1215 C 0.77559 0.8482 0.41446 0.0
C1216 C 0.86454 0.91283 0.39249 0.0
C1217 C 0.88627 0.94738 0.40022 0.0
C1218 C 0.81152 0.88366 0.40865 0.0
C1219 C 0.86802 0.95032 0.41156 0.0
C1220 C 0.75765 0.85234 0.42573 0.0
C1221 C 0.72991 0.77664 0.41472 0.0
N1222 N 0.83195 0.9187 0.41551 0.0
N1223 N 0.76119 0.8105 0.40935 0.0
H1224 H 0.20179 0.90454 0.43905 0.0
H1225 H 0.11563 0.9863 0.38335 0.0
H1226 H 0.2769 0.99019 0.40992 0.0
H1227 H 0.04715 0.92162 0.4169 0.0
H1228 H 0.17128 0.97607 0.39048 0.0
H1229 H 0.14188 0.90112 0.42909 0.0
C1230 C 0.2057 0.92282 0.43061 0.0
C1231 C 0.24442 0.94806 0.4254 0.0
C1232 C 0.14373 0.96345 0.39614 0.0
C1233 C 0.17597 0.9437 0.41379 0.0
C1234 C 0.11174 0.96876 0.39197 0.0
C1235 C 0.07693 0.95503 0.39961 0.0
C1236 C 0.14058 0.94411 0.40797 0.0
C1237 C 0.07369 0.93297 0.4108 0.0
C1238 C 0.17148 0.92066 0.42488 0.0
C1239 C 0.24765 0.9707 0.41435 0.0
N1240 N 0.10527 0.9286 0.41471 0.0
N1241 N 0.21389 0.968 0.40892 0.0
H1242 H 0.71884 0.98889 0.91 0.0
H1243 H 0.88073 0.91667 0.91611 0.0
H1244 H 0.71001 0.90175 0.93822 0.0
H1245 H 0.87624 0.98494 0.88372 0.0
H1246 H 0.81515 0.90605 0.92334 0.0
H1247 H 0.77501 0.98589 0.89979 0.0
C1248 C 0.72893 0.96933 0.91411 0.0
C1249 C 0.71002 0.94585 0.92507 0.0
C1250 C 0.82799 0.92266 0.9145 0.0
C1251 C 0.77398 0.94185 0.91331 0.0
C1252 C 0.86528 0.92843 0.91032 0.0
C1253 C 0.88396 0.95188 0.89934 0.0
C1254 C 0.80958 0.94114 0.9078 0.0
C1255 C 0.86277 0.96652 0.8922 0.0
C1256 C 0.76073 0.96731 0.90819 0.0
C1257 C 0.72398 0.92065 0.92986 0.0
N1258 N 0.82702 0.96163 0.8967 0.0
N1259 N 0.75526 0.91948 0.924 0.0
H1260 H 0.12446 0.82873 0.93859 0.0
H1261 H 0.03991 0.91162 0.88275 0.0
H1262 H 0.03858 0.75253 0.90964 0.0
H1263 H 0.10372 0.98113 0.91628 0.0
H1264 H 0.0518 0.85714 0.88992 0.0
H1265 H 0.12719 0.88814 0.92848 0.0
C1266 C 0.10603 0.82449 0.93015 0.0
C1267 C 0.08087 0.78561 0.92505 0.0
C1268 C 0.06387 0.88468 0.89557 0.0
C1269 C 0.08445 0.85343 0.91328 0.0
C1270 C 0.05762 0.91601 0.89138 0.0
C1271 C 0.07059 0.95073 0.899 0.0
C1272 C 0.08337 0.88837 0.90741 0.0
C1273 C 0.0929 0.95462 0.91019 0.0
C1274 C 0.10779 0.8584 0.92434 0.0
C1275 C 0.05801 0.78191 0.914 0.0
N1276 N 0.09817 0.92363 0.91414 0.0
N1277 N 0.06032 0.81537 0.90849 0.0
H1278 H 0.27427 0.30542 0.90978 0.0
H1279 H 0.03975 0.14088 0.91599 0.0
H1280 H 0.19573 0.31147 0.93845 0.0
H1281 H 0.11281 0.1465 0.88358 0.0
H1282 H 0.09463 0.20675 0.92323 0.0
H1283 H 0.21496 0.24909 0.89948 0.0
C1284 C 0.24454 0.2947 0.91397 0.0
C1285 C 0.23996 0.31286 0.92508 0.0
C1286 C 0.09848 0.19409 0.91439 0.0
C1287 C 0.17183 0.24871 0.91322 0.0
C1288 C 0.067 0.15663 0.9102 0.0
C1289 C 0.07191 0.13819 0.89922 0.0
C1290 C 0.13547 0.21292 0.90769 0.0
C1291 C 0.10777 0.15977 0.89207 0.0
C1292 C 0.21064 0.2628 0.908 0.0
C1293 C 0.20068 0.29809 0.92997 0.0
N1294 N 0.1386 0.1957 0.89658 0.0
N1295 N 0.16816 0.26674 0.92405 0.0
H1296 H -0.00912 0.72381 0.63213 0.0
H1297 H 0.91444 0.88245 0.62572 0.0
H1298 H 0.90356 0.71369 0.60374 0.0
H1299 H 0.98484 0.88085 0.65796 0.0
H1300 H 0.90524 0.81737 0.61861 0.0
H1301 H 0.98709 0.77972 0.64223 0.0
C1302 C 0.97113 0.73357 0.62796 0.0
C1303 C 0.9478 0.71435 0.61699 0.0
C1304 C 0.92204 0.83073 0.62739 0.0
C1305 C 0.94288 0.77798 0.62862 0.0
C1306 C 0.92698 0.86773 0.63151 0.0
C1307 C 0.95057 0.88706 0.6424 0.0
C1308 C 0.9415 0.81327 0.63407 0.0
C1309 C 0.96627 0.86682 0.64954 0.0
C1310 C 0.96867 0.76522 0.63381 0.0
C1311 C 0.92235 0.7279 0.61211 0.0
N1312 N 0.96215 0.83133 0.6451 0.0
N1313 N 0.92071 0.75899 0.61792 0.0
H1314 H 0.30861 0.20323 0.60205 0.0
H1315 H 0.14198 0.11733 0.65821 0.0
H1316 H 0.29932 0.2785 0.63124 0.0
H1317 H 0.13625 0.04892 0.62449 0.0
H1318 H 0.20796 0.17295 0.65091 0.0
H1319 H 0.25201 0.14342 0.61211 0.0
C1320 C 0.29449 0.20719 0.61053 0.0
C1321 C 0.30834 0.24592 0.61572 0.0
C1322 C 0.19257 0.14542 0.64524 0.0
C1323 C 0.24413 0.17759 0.62744 0.0
C1324 C 0.15523 0.11346 0.64951 0.0
C1325 C 0.13358 0.07867 0.64188 0.0
C1326 C 0.20826 0.14226 0.63333 0.0
C1327 C 0.15187 0.07544 0.63058 0.0
C1328 C 0.26237 0.17303 0.61632 0.0
C1329 C 0.28927 0.24923 0.62682 0.0
N1330 N 0.1879 0.107 0.62658 0.0
N1331 N 0.25812 0.21553 0.63231 0.0
H1332 H 0.73667 0.02872 0.63099 0.0
H1333 H 0.9071 0.04304 0.65998 0.0
H1334 H 0.81938 0.12264 0.60514 0.0
H1335 H 0.96664 0.09752 0.62417 0.0
H1336 H 0.85054 0.05257 0.65373 0.0
H1337 H 0.79423 0.0295 0.6415 0.0
C1338 C 0.76704 0.04959 0.62754 0.0
C1339 C 0.77323 0.07551 0.61712 0.0
C1340 C 0.87593 0.06245 0.64722 0.0
C1341 C 0.83974 0.07776 0.62946 0.0
C1342 C 0.90873 0.05789 0.65095 0.0
C1343 C 0.94135 0.06903 0.64251 0.0
C1344 C 0.87584 0.078 0.63494 0.0
C1345 C 0.94175 0.08795 0.63088 0.0
C1346 C 0.80008 0.05057 0.63372 0.0
C1347 C 0.81322 0.10199 0.61309 0.0
N1348 N 0.90929 0.0914 0.62738 0.0
N1349 N 0.84493 0.10223 0.61921 0.0
H1350 H 0.97797 0.45665 0.4361 0.0
H1351 H 0.81048 0.37561 0.49199 0.0
H1352 H 0.96654 0.37053 0.46512 0.0
H1353 H 0.80709 0.44077 0.45854 0.0
H1354 H 0.8762 0.38554 0.48478 0.0
H1355 H 0.92204 0.4606 0.44619 0.0
C1356 C 0.96351 0.43838 0.44454 0.0
C1357 C 0.97657 0.41284 0.44968 0.0
C1358 C 0.8614 0.39834 0.47916 0.0
C1359 C 0.91314 0.41782 0.46144 0.0
C1360 C 0.82422 0.39321 0.48338 0.0
C1361 C 0.80327 0.40714 0.47579 0.0
C1362 C 0.87762 0.4177 0.46733 0.0
C1363 C 0.82216 0.42926 0.46461 0.0
C1364 C 0.93178 0.44085 0.45035 0.0
C1365 C 0.9571 0.39024 0.46074 0.0
N1366 N 0.858 0.43344 0.46064 0.0
N1367 N 0.92635 0.39323 0.46625 0.0
H1368 H 0.56894 0.53778 0.43567 0.0
H1369 H 0.65001 0.45235 0.4918 0.0
H1370 H 0.65266 0.61289 0.46525 0.0
H1371 H 0.58658 0.38388 0.45808 0.0
H1372 H 0.63942 0.50766 0.48459 0.0
H1373 H 0.56587 0.47809 0.44564 0.0
C1374 C 0.58688 0.54173 0.44421 0.0
C1375 C 0.61147 0.58039 0.44955 0.0
C1376 C 0.62716 0.48018 0.4789 0.0
C1377 C 0.6075 0.51218 0.46116 0.0
C1378 C 0.63266 0.44839 0.48312 0.0
C1379 C 0.61939 0.41369 0.47547 0.0
C1380 C 0.6081 0.47696 0.46701 0.0
C1381 C 0.5976 0.41034 0.4642 0.0
C1382 C 0.58491 0.50764 0.44995 0.0
C1383 C 0.63367 0.58369 0.46072 0.0
N1384 N 0.59304 0.44175 0.46024 0.0
N1385 N 0.63118 0.55004 0.46616 0.0
H1386 H 0.48668 0.04889 0.43548 0.0
H1387 H 0.57321 0.21535 0.49168 0.0
H1388 H 0.41183 0.05712 0.46506 0.0
H1389 H 0.64164 0.22032 0.45805 0.0
H1390 H 0.51742 0.14941 0.48443 0.0
H1391 H 0.54659 0.10553 0.44549 0.0
C1392 C 0.48283 0.0628 0.44403 0.0
C1393 C 0.44418 0.04862 0.44935 0.0
C1394 C 0.54498 0.16462 0.47877 0.0
C1395 C 0.51266 0.1129 0.46101 0.0
C1396 C 0.57705 0.20194 0.48301 0.0
C1397 C 0.61191 0.22337 0.47539 0.0
C1398 C 0.54808 0.14876 0.46689 0.0
C1399 C 0.61508 0.20488 0.46414 0.0
C1400 C 0.51705 0.09494 0.44979 0.0
C1401 C 0.44102 0.06743 0.46054 0.0
N1402 N 0.58341 0.16889 0.46015 0.0
N1403 N 0.4748 0.09862 0.466 0.0
H1404 H 0.78542 0.64558 0.77232 0.0
H1405 H 0.70396 0.47868 0.71627 0.0
H1406 H 0.70013 0.63529 0.74312 0.0
H1407 H 0.76796 0.47411 0.74988 0.0
H1408 H 0.71448 0.54454 0.7235 0.0
H1409 H 0.78891 0.58941 0.76224 0.0
C1410 C 0.76724 0.63133 0.76384 0.0
C1411 C 0.74207 0.64476 0.75864 0.0
C1412 C 0.72688 0.52944 0.72916 0.0
C1413 C 0.74651 0.58106 0.74691 0.0
C1414 C 0.72142 0.49217 0.72493 0.0
C1415 C 0.73486 0.47086 0.73255 0.0
C1416 C 0.74607 0.54539 0.74103 0.0
C1417 C 0.75681 0.48946 0.74379 0.0
C1418 C 0.76945 0.59946 0.75804 0.0
C1419 C 0.71957 0.62555 0.74754 0.0
N1420 N 0.76132 0.52541 0.74776 0.0
N1421 N 0.72229 0.59465 0.74204 0.0
H1422 H 0.38508 0.07709 0.74274 0.0
H1423 H 0.54668 0.31252 0.74907 0.0
H1424 H 0.37778 0.15459 0.77153 0.0
H1425 H 0.54306 0.24007 0.71675 0.0
H1426 H 0.48131 0.25678 0.75629 0.0
H1427 H 0.44107 0.13686 0.73252 0.0
C1428 C 0.39547 0.10668 0.74697 0.0
C1429 C 0.37703 0.11084 0.75809 0.0
C1430 C 0.4943 0.25322 0.74748 0.0
C1431 C 0.44076 0.1795 0.74632 0.0
C1432 C 0.53146 0.28519 0.74329 0.0
C1433 C 0.55032 0.28075 0.73235 0.0
C1434 C 0.47619 0.21619 0.7408 0.0
C1435 C 0.52943 0.24476 0.72522 0.0
C1436 C 0.42717 0.14084 0.74105 0.0
C1437 C 0.39138 0.14995 0.76305 0.0
N1438 N 0.49379 0.21346 0.72972 0.0
N1439 N 0.42251 0.18273 0.75717 0.0
H1440 H 0.94334 0.32418 0.74233 0.0
H1441 H 0.70848 0.25128 0.74921 0.0
H1442 H 0.86589 0.23959 0.77132 0.0
H1443 H 0.78063 0.31998 0.71673 0.0
H1444 H 0.76399 0.24145 0.75632 0.0
H1445 H 0.88363 0.32067 0.73225 0.0
C1446 C 0.91377 0.30508 0.74663 0.0
C1447 C 0.90961 0.28246 0.75777 0.0
C1448 C 0.76752 0.25801 0.7475 0.0
C1449 C 0.84103 0.27786 0.74617 0.0
C1450 C 0.73568 0.26332 0.74338 0.0
C1451 C 0.74011 0.28664 0.73241 0.0
C1452 C 0.8044 0.2768 0.74074 0.0
C1453 C 0.77594 0.30165 0.72521 0.0
C1454 C 0.87964 0.30277 0.74079 0.0
C1455 C 0.87053 0.25782 0.76282 0.0
N1456 N 0.80711 0.29716 0.72965 0.0
N1457 N 0.83779 0.25633 0.75702 0.0
H1458 H 0.37458 0.23733 0.27307 0.0
H1459 H 0.54264 0.31756 0.21739 0.0
H1460 H 0.38573 0.32223 0.24365 0.0
H1461 H 0.54663 0.25433 0.25126 0.0
H1462 H 0.47658 0.30714 0.22439 0.0
H1463 H 0.43088 0.23348 0.26321 0.0
C1464 C 0.38904 0.25534 0.26459 0.0
C1465 C 0.37582 0.28053 0.25927 0.0
C1466 C 0.49159 0.29487 0.23015 0.0
C1467 C 0.43965 0.27567 0.24778 0.0
C1468 C 0.52898 0.30027 0.22605 0.0
C1469 C 0.55018 0.28703 0.23382 0.0
C1470 C 0.47542 0.27594 0.24203 0.0
C1471 C 0.53136 0.26532 0.24506 0.0
C1472 C 0.42098 0.25294 0.25891 0.0
C1473 C 0.3953 0.30281 0.24816 0.0
N1474 N 0.49531 0.26086 0.24891 0.0
N1475 N 0.42625 0.29988 0.24279 0.0
H1476 H 0.69899 0.07967 0.2439 0.0
H1477 H 0.76955 0.31368 0.25116 0.0
H1478 H 0.78372 0.15729 0.27286 0.0
H1479 H 0.70229 0.242 0.2184 0.0
H1480 H 0.7799 0.2585 0.25823 0.0
H1481 H 0.7018 0.13918 0.23394 0.0
C1482 C 0.71797 0.10923 0.24822 0.0
C1483 C 0.74084 0.1135 0.25931 0.0
C1484 C 0.76354 0.25501 0.24936 0.0
C1485 C 0.74463 0.18184 0.24785 0.0
C1486 C 0.75793 0.28666 0.24526 0.0
C1487 C 0.73488 0.28227 0.23422 0.0
C1488 C 0.74531 0.21832 0.24249 0.0
C1489 C 0.72041 0.24667 0.22694 0.0
C1490 C 0.71988 0.14324 0.24245 0.0
C1491 C 0.76531 0.15256 0.26439 0.0
N1492 N 0.72517 0.21565 0.23134 0.0
N1493 N 0.7664 0.18518 0.25866 0.0
H1494 H 0.94441 0.63741 0.24351 0.0
H1495 H 0.70945 0.47547 0.25085 0.0
H1496 H 0.86777 0.64633 0.27228 0.0
H1497 H 0.78049 0.47897 0.21813 0.0
H1498 H 0.76532 0.54116 0.25781 0.0
H1499 H 0.88428 0.58095 0.2336 0.0
C1500 C 0.91493 0.62729 0.2478 0.0
C1501 C 0.91112 0.64631 0.25883 0.0
C1502 C 0.76851 0.52807 0.24896 0.0
C1503 C 0.84205 0.58201 0.24741 0.0
C1504 C 0.73647 0.49071 0.24493 0.0
C1505 C 0.74049 0.47174 0.23394 0.0
C1506 C 0.80518 0.54626 0.24209 0.0
C1507 C 0.77611 0.49267 0.22663 0.0
C1508 C 0.88056 0.59531 0.24205 0.0
C1509 C 0.87213 0.63229 0.26386 0.0
N1510 N 0.80749 0.52851 0.23098 0.0
N1511 N 0.83914 0.60085 0.25816 0.0
H1512 H 0.56826 0.04381 0.93526 0.0
H1513 H 0.65033 0.21433 0.99026 0.0
H1514 H 0.6524 0.05432 0.96491 0.0
H1515 H 0.58918 0.21835 0.95585 0.0
H1516 H 0.63974 0.14792 0.9835 0.0
H1517 H 0.56624 0.10158 0.94466 0.0
C1518 C 0.58648 0.05843 0.94371 0.0
C1519 C 0.6109 0.04458 0.94922 0.0
C1520 C 0.62806 0.16309 0.97755 0.0
C1521 C 0.60818 0.1102 0.96018 0.0
C1522 C 0.63362 0.20068 0.98149 0.0
C1523 C 0.62092 0.2219 0.97353 0.0
C1524 C 0.60939 0.14672 0.96565 0.0
C1525 C 0.59979 0.2031 0.9622 0.0
C1526 C 0.58515 0.09124 0.94912 0.0
C1527 C 0.63352 0.06434 0.96026 0.0
N1528 N 0.59504 0.1668 0.95854 0.0
N1529 N 0.63164 0.09618 0.96537 0.0
H1530 H 0.97018 0.62123 0.96484 0.0
H1531 H 0.80521 0.3873 0.95645 0.0
H1532 H 0.97719 0.54464 0.93565 0.0
H1533 H 0.80847 0.45737 0.98941 0.0
H1534 H 0.87101 0.44318 0.94965 0.0
H1535 H 0.91233 0.56143 0.97442 0.0
C1536 C 0.95936 0.59185 0.96039 0.0
C1537 C 0.97826 0.58793 0.94935 0.0
C1538 C 0.85782 0.44623 0.95849 0.0
C1539 C 0.91244 0.51931 0.96037 0.0
C1540 C 0.82038 0.41419 0.96243 0.0
C1541 C 0.80139 0.41789 0.97346 0.0
C1542 C 0.87613 0.48262 0.96551 0.0
C1543 C 0.82223 0.45331 0.98086 0.0
C1544 C 0.92658 0.55768 0.96594 0.0
C1545 C 0.96331 0.54909 0.94409 0.0
N1546 N 0.85824 0.48472 0.97661 0.0
N1547 N 0.93119 0.51634 0.94961 0.0
H1548 H 0.40314 0.36766 0.96532 0.0
H1549 H 0.63642 0.43669 0.95653 0.0
H1550 H 0.47991 0.45346 0.93647 0.0
H1551 H 0.56685 0.37015 0.98968 0.0
H1552 H 0.58088 0.44709 0.94991 0.0
H1553 H 0.4629 0.36951 0.97475 0.0
C1554 C 0.43255 0.3867 0.96091 0.0
C1555 C 0.43653 0.41015 0.95001 0.0
C1556 C 0.5779 0.43082 0.95876 0.0
C1557 C 0.50511 0.41278 0.96086 0.0
C1558 C 0.60974 0.42513 0.96258 0.0
C1559 C 0.60605 0.40236 0.97362 0.0
C1560 C 0.54172 0.41294 0.96588 0.0
C1561 C 0.5709 0.38801 0.98113 0.0
C1562 C 0.46671 0.38804 0.96639 0.0
C1563 C 0.47542 0.43464 0.94481 0.0
N1564 N 0.53966 0.39287 0.97698 0.0
N1565 N 0.50816 0.43515 0.95024 0.0
H1566 H 0.6317 0.69872 0.79831 0.0
H1567 H 0.47232 0.77436 0.79203 0.0
H1568 H 0.64173 0.78635 0.77009 0.0
H1569 H 0.47431 0.70409 0.82423 0.0
H1570 H 0.53751 0.78379 0.7849 0.0
H1571 H 0.57556 0.70212 0.80841 0.0
C1572 C 0.62188 0.71846 0.79418 0.0
C1573 C 0.64113 0.74199 0.78325 0.0
C1574 C 0.52421 0.76696 0.79367 0.0
C1575 C 0.57724 0.74646 0.79488 0.0
C1576 C 0.48714 0.76188 0.7978 0.0
C1577 C 0.46789 0.73827 0.80869 0.0
C1578 C 0.54182 0.74763 0.80034 0.0
C1579 C 0.48826 0.72267 0.81581 0.0
C1580 C 0.59009 0.7207 0.80003 0.0
C1581 C 0.6275 0.76742 0.77842 0.0
N1582 N 0.52382 0.72693 0.81136 0.0
N1583 N 0.59628 0.76883 0.78423 0.0
H1584 H 0.32097 0.94815 0.79862 0.0
H1585 H 0.24906 0.71369 0.79161 0.0
H1586 H 0.23597 0.87049 0.76973 0.0
H1587 H 0.31759 0.78581 0.82414 0.0
H1588 H 0.23905 0.76906 0.78451 0.0
H1589 H 0.31802 0.88864 0.80862 0.0
C1590 C 0.30189 0.91858 0.79432 0.0
C1591 C 0.27899 0.9143 0.78324 0.0
C1592 C 0.25562 0.77262 0.79334 0.0
C1593 C 0.27504 0.84595 0.79474 0.0
C1594 C 0.26105 0.74086 0.79745 0.0
C1595 C 0.28434 0.74531 0.80844 0.0
C1596 C 0.27426 0.80944 0.80013 0.0
C1597 C 0.29927 0.7811 0.81565 0.0
C1598 C 0.29991 0.88456 0.80011 0.0
C1599 C 0.2544 0.87522 0.77819 0.0
N1600 N 0.29466 0.81219 0.81122 0.0
N1601 N 0.25323 0.84259 0.78394 0.0
H1602 H 0.07267 0.38959 0.79825 0.0
H1603 H 0.30837 0.55103 0.7919 0.0
H1604 H 0.1502 0.38204 0.76952 0.0
H1605 H 0.23588 0.54783 0.82416 0.0
H1606 H 0.25245 0.48579 0.78467 0.0
H1607 H 0.13247 0.44581 0.8084 0.0
C1608 C 0.10227 0.39998 0.79402 0.0
C1609 C 0.10644 0.38138 0.78294 0.0
C1610 C 0.24891 0.49885 0.79347 0.0
C1611 C 0.17512 0.44538 0.79463 0.0
C1612 C 0.28099 0.53594 0.79766 0.0
C1613 C 0.27661 0.55487 0.8086 0.0
C1614 C 0.21185 0.48087 0.80013 0.0
C1615 C 0.24053 0.53414 0.81571 0.0
C1616 C 0.13645 0.43182 0.7999 0.0
C1617 C 0.14556 0.39574 0.77798 0.0
N1618 N 0.20915 0.49855 0.8112 0.0
N1619 N 0.17836 0.42699 0.78382 0.0
H1620 H 0.45368 0.98197 0.10597 0.0
H1621 H 0.37053 0.81317 0.05042 0.0
H1622 H 0.36892 0.97209 0.07665 0.0
H1623 H 0.43362 0.80871 0.08427 0.0
H1624 H 0.3817 0.87955 0.0574 0.0
H1625 H 0.45633 0.92506 0.0961 0.0
C1626 C 0.4355 0.9677 0.09749 0.0
C1627 C 0.41067 0.98145 0.09221 0.0
C1628 C 0.39376 0.86435 0.06316 0.0
C1629 C 0.41409 0.91679 0.08073 0.0
C1630 C 0.38791 0.82677 0.05908 0.0
C1631 C 0.40096 0.80538 0.06683 0.0
C1632 C 0.41299 0.88055 0.07501 0.0
C1633 C 0.4228 0.82412 0.07807 0.0
C1634 C 0.43718 0.93538 0.09181 0.0
C1635 C 0.38811 0.96214 0.08112 0.0
N1636 N 0.42775 0.86038 0.08189 0.0
N1637 N 0.39031 0.93078 0.07575 0.0
H1638 H 0.04867 0.41159 0.07655 0.0
H1639 H 0.2129 0.64609 0.0834 0.0
H1640 H 0.04126 0.48977 0.10505 0.0
H1641 H 0.20921 0.57379 0.05103 0.0
H1642 H 0.1468 0.59092 0.09034 0.0
H1643 H 0.10554 0.47103 0.06647 0.0
C1644 C 0.05915 0.44126 0.08074 0.0
C1645 C 0.04047 0.4457 0.09175 0.0
C1646 C 0.15993 0.58727 0.08158 0.0
C1647 C 0.1053 0.51396 0.08016 0.0
C1648 C 0.19754 0.61892 0.07756 0.0
C1649 C 0.21656 0.61438 0.06666 0.0
C1650 C 0.14149 0.55041 0.0748 0.0
C1651 C 0.19547 0.57857 0.05945 0.0
C1652 C 0.09139 0.47523 0.0749 0.0
C1653 C 0.05499 0.48491 0.09665 0.0
N1654 N 0.15935 0.54756 0.0638 0.0
N1655 N 0.08667 0.51748 0.09086 0.0
H1656 H 0.53114 0.56889 0.10653 0.0
H1657 H 0.44559 0.65091 0.05067 0.0
H1658 H 0.60599 0.65141 0.0767 0.0
H1659 H 0.37817 0.58954 0.08476 0.0
H1660 H 0.50054 0.63942 0.0577 0.0
H1661 H 0.4715 0.56657 0.09675 0.0
C1662 C 0.53504 0.58665 0.09796 0.0
C1663 C 0.57364 0.61075 0.09251 0.0
C1664 C 0.47336 0.62782 0.06351 0.0
C1665 C 0.50546 0.6077 0.08113 0.0
C1666 C 0.44177 0.63386 0.0594 0.0
C1667 C 0.40745 0.62137 0.06719 0.0
C1668 C 0.47035 0.609 0.07543 0.0
C1669 C 0.40432 0.59994 0.07852 0.0
C1670 C 0.50097 0.58515 0.09233 0.0
C1671 C 0.57685 0.63278 0.08131 0.0
N1672 N 0.43552 0.59482 0.08237 0.0
N1673 N 0.54324 0.63077 0.07599 0.0
H1674 H 0.04581 0.57199 0.60654 0.0
H1675 H 0.21121 0.65108 0.55006 0.0
H1676 H 0.05463 0.65527 0.57687 0.0
H1677 H 0.21697 0.5889 0.58395 0.0
H1678 H 0.1455 0.64082 0.55738 0.0
H1679 H 0.10203 0.56845 0.59651 0.0
C1680 C 0.05976 0.58973 0.59796 0.0
C1681 C 0.04588 0.61434 0.59262 0.0
C1682 C 0.16082 0.62876 0.56308 0.0
C1683 C 0.10963 0.60982 0.58094 0.0
C1684 C 0.19802 0.63408 0.5588 0.0
C1685 C 0.21962 0.62107 0.56647 0.0
C1686 C 0.14525 0.61015 0.57504 0.0
C1687 C 0.2014 0.59971 0.57782 0.0
C1688 C 0.09165 0.58749 0.59219 0.0
C1689 C 0.06471 0.63628 0.5814 0.0
N1690 N 0.16552 0.59533 0.58184 0.0
N1691 N 0.09564 0.63353 0.57593 0.0
H1692 H 0.36395 0.41088 0.57593 0.0
H1693 H 0.43894 0.64604 0.58272 0.0
H1694 H 0.451 0.48841 0.6044 0.0
H1695 H 0.36922 0.57403 0.55034 0.0
H1696 H 0.44847 0.5903 0.58976 0.0
H1697 H 0.36743 0.47065 0.56593 0.0
C1698 C 0.38359 0.44048 0.58013 0.0
C1699 C 0.40691 0.44465 0.5911 0.0
C1700 C 0.43175 0.58685 0.58097 0.0
C1701 C 0.41147 0.51328 0.57959 0.0
C1702 C 0.42661 0.61882 0.57689 0.0
C1703 C 0.40312 0.61451 0.56597 0.0
C1704 C 0.41262 0.54997 0.57421 0.0
C1705 C 0.38771 0.57864 0.55878 0.0
C1706 C 0.38587 0.47463 0.57434 0.0
C1707 C 0.43222 0.48376 0.59603 0.0
N1708 N 0.39204 0.54735 0.56317 0.0
N1709 N 0.43367 0.51653 0.59028 0.0
H1710 H 0.5337 0.98105 0.60502 0.0
H1711 H 0.44856 0.8129 0.54933 0.0
H1712 H 0.60924 0.97149 0.57598 0.0
H1713 H 0.37962 0.80856 0.58275 0.0
H1714 H 0.50391 0.87938 0.5564 0.0
H1715 H 0.47392 0.9245 0.59491 0.0
C1716 C 0.53772 0.9669 0.59656 0.0
C1717 C 0.57652 0.98062 0.59143 0.0
C1718 C 0.47631 0.8642 0.56204 0.0
C1719 C 0.50823 0.91644 0.57967 0.0
C1720 C 0.4445 0.82657 0.55791 0.0
C1721 C 0.40968 0.80517 0.56554 0.0
C1722 C 0.47296 0.88039 0.57382 0.0
C1723 C 0.40619 0.82399 0.57666 0.0
C1724 C 0.50358 0.93481 0.59074 0.0
C1725 C 0.57992 0.96152 0.58035 0.0
N1726 N 0.43761 0.86027 0.58055 0.0
N1727 N 0.54623 0.93037 0.57484 0.0
H1728 H 0.32186 0.39083 0.29882 0.0
H1729 H 0.24889 0.55223 0.29229 0.0
H1730 H 0.23617 0.38286 0.27015 0.0
H1731 H 0.31793 0.549 0.32468 0.0
H1732 H 0.23899 0.48693 0.28512 0.0
H1733 H 0.31881 0.44712 0.30894 0.0
C1734 C 0.30263 0.40114 0.2946 0.0
C1735 C 0.27954 0.38241 0.28354 0.0
C1736 C 0.25565 0.49999 0.29394 0.0
C1737 C 0.27545 0.44647 0.29519 0.0
C1738 C 0.261 0.53711 0.29809 0.0
C1739 C 0.28441 0.55605 0.30906 0.0
C1740 C 0.27452 0.48199 0.30065 0.0
C1741 C 0.29952 0.5353 0.31621 0.0
C1742 C 0.30058 0.43301 0.30045 0.0
C1743 C 0.25475 0.39666 0.27859 0.0
N1744 N 0.29501 0.49969 0.31174 0.0
N1745 N 0.25351 0.42794 0.28441 0.0
H1746 H 0.64445 0.87279 0.26989 0.0
H1747 H 0.47632 0.7855 0.32559 0.0
H1748 H 0.63428 0.94723 0.29919 0.0
H1749 H 0.47218 0.71746 0.29195 0.0
H1750 H 0.54246 0.84133 0.31851 0.0
H1751 H 0.5878 0.81265 0.2798 0.0
C1752 C 0.63013 0.87649 0.27836 0.0
C1753 C 0.64374 0.91509 0.28363 0.0
C1754 C 0.52739 0.81384 0.31281 0.0
C1755 C 0.57948 0.84639 0.29518 0.0
C1756 C 0.48995 0.78174 0.31696 0.0
C1757 C 0.4687 0.747 0.30929 0.0
C1758 C 0.54355 0.81087 0.30098 0.0
C1759 C 0.48748 0.74394 0.29808 0.0
C1760 C 0.59798 0.84215 0.28407 0.0
C1761 C 0.62442 0.91808 0.29472 0.0
N1762 N 0.52358 0.77564 0.29419 0.0
N1763 N 0.59325 0.8842 0.30012 0.0
H1764 H 0.07488 0.70237 0.29904 0.0
H1765 H 0.30965 0.77485 0.29209 0.0
H1766 H 0.15248 0.7873 0.27014 0.0
H1767 H 0.23759 0.70627 0.3246 0.0
H1768 H 0.25414 0.78467 0.28498 0.0
H1769 H 0.13452 0.70552 0.30906 0.0
C1770 C 0.10446 0.72147 0.29475 0.0
C1771 C 0.10869 0.7443 0.28366 0.0
C1772 C 0.25062 0.76813 0.29381 0.0
C1773 C 0.17718 0.74848 0.29519 0.0
C1774 C 0.28246 0.76282 0.29793 0.0
C1775 C 0.27807 0.73957 0.30891 0.0
C1776 C 0.21377 0.74941 0.30059 0.0
C1777 C 0.24225 0.72456 0.31611 0.0
C1778 C 0.13855 0.72357 0.30055 0.0
C1779 C 0.14779 0.76891 0.27861 0.0
N1780 N 0.21107 0.72905 0.31168 0.0
N1781 N 0.18048 0.7702 0.28438 0.0
loop_
_geom_bond_atom_site_label_1
_geom_bond_atom_site_label_2
_geom_bond_distance
_geom_bond_site_symmetry_2
_ccdc_geom_bond_type
In0 O1 2.294 . S
In0 O2 2.326 . S
In0 O6 2.266 . S
In0 O7 2.326 1_545 S
In0 O8 2.266 1_545 S
In0 O9 2.326 . S
In0 O11 2.294 1_545 S
In0 O12 2.326 . S
O1 In0 2.294 . S
O1 C10 1.240 . S
O2 In0 2.326 . S
O2 C10 1.252 . S
C3 O6 1.252 . S
C3 O7 1.260 1_545 S
C4 O11 1.240 1_545 S
C4 O12 1.252 . S
C5 O8 1.252 . S
C5 O9 1.260 1_565 S
O6 In0 2.266 . S
O6 C3 1.252 . S
O7 In0 2.326 1_565 S
O7 C3 1.260 1_565 S
O8 In0 2.266 1_565 S
O8 C5 1.252 . S
O9 In0 2.326 . S
O9 C5 1.260 1_545 S
C10 O1 1.240 . S
C10 O2 1.252 . S
O11 In0 2.294 1_565 S
O11 C4 1.240 1_565 S
O12 In0 2.326 . S
O12 C4 1.252 . S
In13 O14 2.294 . S
In13 O15 2.326 . S
In13 O19 2.266 . S
In13 O20 2.326 1_455 S
In13 O21 2.266 1_455 S
In13 O22 2.326 . S
In13 O24 2.294 1_455 S
In13 O25 2.326 . S
O14 In13 2.294 . S
O14 C23 1.240 . S
O15 In13 2.326 . S
O15 C23 1.252 . S
C16 O19 1.252 . S
C16 O20 1.260 1_455 S
C17 O24 1.240 1_455 S
C17 O25 1.252 . S
C18 O21 1.252 . S
C18 O22 1.260 1_655 S
O19 In13 2.266 . S
O19 C16 1.252 . S
O20 In13 2.326 1_655 S
O20 C16 1.260 1_655 S
O21 In13 2.266 1_655 S
O21 C18 1.252 . S
O22 In13 2.326 . S
O22 C18 1.260 1_455 S
C23 O14 1.240 . S
C23 O15 1.252 . S
O24 In13 2.294 1_655 S
O24 C17 1.240 1_655 S
O25 In13 2.326 . S
O25 C17 1.252 . S
In26 O27 2.294 . S
In26 O28 2.326 . S
In26 O32 2.266 . S
In26 O33 2.326 . S
In26 O34 2.266 . S
In26 O35 2.326 . S
In26 O37 2.294 . S
In26 O38 2.326 . S
O27 In26 2.294 . S
O27 C36 1.240 . S
O28 In26 2.326 . S
O28 C36 1.252 . S
C29 O32 1.252 . S
C29 O33 1.260 . S
C30 O37 1.240 . S
C30 O38 1.252 . S
C31 O34 1.252 . S
C31 O35 1.260 . S
O32 In26 2.266 . S
O32 C29 1.252 . S
O33 In26 2.326 . S
O33 C29 1.260 . S
O34 In26 2.266 . S
O34 C31 1.252 . S
O35 In26 2.326 . S
O35 C31 1.260 . S
C36 O27 1.240 . S
C36 O28 1.252 . S
O37 In26 2.294 . S
O37 C30 1.240 . S
O38 In26 2.326 . S
O38 C30 1.252 . S
In39 O40 2.294 . S
In39 O41 2.326 1_545 S
In39 O45 2.266 . S
In39 O46 2.326 . S
In39 O47 2.266 1_545 S
In39 O48 2.326 . S
In39 O50 2.294 1_545 S
In39 O51 2.326 . S
O40 In39 2.294 . S
O40 C49 1.240 . S
O41 In39 2.326 1_565 S
O41 C49 1.252 1_565 S
C42 O45 1.252 . S
C42 O46 1.260 . S
C43 O50 1.240 . S
C43 O51 1.252 1_565 S
C44 O47 1.252 1_545 S
C44 O48 1.260 . S
O45 In39 2.266 . S
O45 C42 1.252 . S
O46 In39 2.326 . S
O46 C42 1.260 . S
O47 In39 2.266 1_565 S
O47 C44 1.252 1_565 S
O48 In39 2.326 . S
O48 C44 1.260 . S
C49 O40 1.240 . S
C49 O41 1.252 1_545 S
O50 In39 2.294 1_565 S
O50 C43 1.240 . S
O51 In39 2.326 . S
O51 C43 1.252 1_545 S
In52 O53 2.294 . S
In52 O54 2.326 1_455 S
In52 O58 2.266 . S
In52 O59 2.326 . S
In52 O60 2.266 1_455 S
In52 O61 2.326 . S
In52 O63 2.294 1_455 S
In52 O64 2.326 . S
O53 In52 2.294 . S
O53 C62 1.240 . S
O54 In52 2.326 1_655 S
O54 C62 1.252 1_655 S
C55 O58 1.252 . S
C55 O59 1.260 . S
C56 O63 1.240 . S
C56 O64 1.252 1_655 S
C57 O60 1.252 1_455 S
C57 O61 1.260 . S
O58 In52 2.266 . S
O58 C55 1.252 . S
O59 In52 2.326 . S
O59 C55 1.260 . S
O60 In52 2.266 1_655 S
O60 C57 1.252 1_655 S
O61 In52 2.326 . S
O61 C57 1.260 . S
C62 O53 1.240 . S
C62 O54 1.252 1_455 S
O63 In52 2.294 1_655 S
O63 C56 1.240 . S
O64 In52 2.326 . S
O64 C56 1.252 1_455 S
In65 O66 2.294 . S
In65 O67 2.326 . S
In65 O71 2.266 . S
In65 O72 2.326 . S
In65 O73 2.266 . S
In65 O74 2.326 . S
In65 O76 2.294 . S
In65 O77 2.326 . S
O66 In65 2.294 . S
O66 C75 1.240 . S
O67 In65 2.326 . S
O67 C75 1.252 . S
C68 O71 1.252 . S
C68 O72 1.260 . S
C69 O76 1.240 . S
C69 O77 1.252 . S
C70 O73 1.252 . S
C70 O74 1.260 . S
O71 In65 2.266 . S
O71 C68 1.252 . S
O72 In65 2.326 . S
O72 C68 1.260 . S
O73 In65 2.266 . S
O73 C70 1.252 . S
O74 In65 2.326 . S
O74 C70 1.260 . S
C75 O66 1.240 . S
C75 O67 1.252 . S
O76 In65 2.294 . S
O76 C69 1.240 . S
O77 In65 2.326 . S
O77 C69 1.252 . S
In78 O79 2.294 . S
In78 O80 2.326 . S
In78 O84 2.266 . S
In78 O85 2.326 . S
In78 O86 2.266 . S
In78 O87 2.326 . S
In78 O89 2.294 . S
In78 O90 2.326 . S
O79 In78 2.294 . S
O79 C88 1.240 . S
O80 In78 2.326 . S
O80 C88 1.252 . S
C81 O84 1.252 . S
C81 O85 1.260 . S
C82 O89 1.240 . S
C82 O90 1.252 . S
C83 O86 1.252 . S
C83 O87 1.260 . S
O84 In78 2.266 . S
O84 C81 1.252 . S
O85 In78 2.326 . S
O85 C81 1.260 . S
O86 In78 2.266 . S
O86 C83 1.252 . S
O87 In78 2.326 . S
O87 C83 1.260 . S
C88 O79 1.240 . S
C88 O80 1.252 . S
O89 In78 2.294 . S
O89 C82 1.240 . S
O90 In78 2.326 . S
O90 C82 1.252 . S
In91 O92 2.294 . S
In91 O93 2.326 . S
In91 O97 2.266 . S
In91 O98 2.326 . S
In91 O99 2.266 . S
In91 O100 2.326 . S
In91 O102 2.294 . S
In91 O103 2.326 . S
O92 In91 2.294 . S
O92 C101 1.240 . S
O93 In91 2.326 . S
O93 C101 1.252 . S
C94 O97 1.252 . S
C94 O98 1.260 . S
C95 O102 1.240 . S
C95 O103 1.252 . S
C96 O99 1.252 . S
C96 O100 1.260 . S
O97 In91 2.266 . S
O97 C94 1.252 . S
O98 In91 2.326 . S
O98 C94 1.260 . S
O99 In91 2.266 . S
O99 C96 1.252 . S
O100 In91 2.326 . S
O100 C96 1.260 . S
C101 O92 1.240 . S
C101 O93 1.252 . S
O102 In91 2.294 . S
O102 C95 1.240 . S
O103 In91 2.326 . S
O103 C95 1.252 . S
In104 O105 2.294 . S
In104 O106 2.326 1_655 S
In104 O110 2.266 . S
In104 O111 2.326 . S
In104 O112 2.266 1_655 S
In104 O113 2.326 1_655 S
In104 O115 2.294 . S
In104 O116 2.326 . S
O105 In104 2.294 . S
O105 C114 1.240 . S
O106 In104 2.326 1_455 S
O106 C114 1.252 1_455 S
C107 O110 1.252 . S
C107 O111 1.260 . S
C108 O115 1.240 . S
C108 O116 1.252 . S
C109 O112 1.252 . S
C109 O113 1.260 . S
O110 In104 2.266 . S
O110 C107 1.252 . S
O111 In104 2.326 . S
O111 C107 1.260 . S
O112 In104 2.266 1_455 S
O112 C109 1.252 . S
O113 In104 2.326 1_455 S
O113 C109 1.260 . S
C114 O105 1.240 . S
C114 O106 1.252 1_655 S
O115 In104 2.294 . S
O115 C108 1.240 . S
O116 In104 2.326 . S
O116 C108 1.252 . S
In117 O118 2.294 . S
In117 O119 2.326 . S
In117 O123 2.266 . S
In117 O124 2.326 . S
In117 O125 2.266 1_655 S
In117 O126 2.326 1_655 S
In117 O128 2.294 . S
In117 O129 2.326 . S
O118 In117 2.294 . S
O118 C127 1.240 . S
O119 In117 2.326 . S
O119 C127 1.252 . S
C120 O123 1.252 . S
C120 O124 1.260 . S
C121 O128 1.240 . S
C121 O129 1.252 . S
C122 O125 1.252 . S
C122 O126 1.260 . S
O123 In117 2.266 . S
O123 C120 1.252 . S
O124 In117 2.326 . S
O124 C120 1.260 . S
O125 In117 2.266 1_455 S
O125 C122 1.252 . S
O126 In117 2.326 1_455 S
O126 C122 1.260 . S
C127 O118 1.240 . S
C127 O119 1.252 . S
O128 In117 2.294 . S
O128 C121 1.240 . S
O129 In117 2.326 . S
O129 C121 1.252 . S
In130 O131 2.294 . S
In130 O132 2.326 . S
In130 O136 2.266 . S
In130 O137 2.326 . S
In130 O138 2.266 . S
In130 O139 2.326 . S
In130 O141 2.294 . S
In130 O142 2.326 . S
O131 In130 2.294 . S
O131 C140 1.240 . S
O132 In130 2.326 . S
O132 C140 1.252 . S
C133 O136 1.252 . S
C133 O137 1.260 . S
C134 O141 1.240 . S
C134 O142 1.252 . S
C135 O138 1.252 . S
C135 O139 1.260 . S
O136 In130 2.266 . S
O136 C133 1.252 . S
O137 In130 2.326 . S
O137 C133 1.260 . S
O138 In130 2.266 . S
O138 C135 1.252 . S
O139 In130 2.326 . S
O139 C135 1.260 . S
C140 O131 1.240 . S
C140 O132 1.252 . S
O141 In130 2.294 . S
O141 C134 1.240 . S
O142 In130 2.326 . S
O142 C134 1.252 . S
In143 O144 2.294 . S
In143 O145 2.326 . S
In143 O149 2.266 . S
In143 O150 2.326 . S
In143 O151 2.266 . S
In143 O152 2.326 . S
In143 O154 2.294 . S
In143 O155 2.326 . S
O144 In143 2.294 . S
O144 C153 1.240 . S
O145 In143 2.326 . S
O145 C153 1.252 . S
C146 O149 1.252 . S
C146 O150 1.260 . S
C147 O154 1.240 . S
C147 O155 1.252 . S
C148 O151 1.252 . S
C148 O152 1.260 . S
O149 In143 2.266 . S
O149 C146 1.252 . S
O150 In143 2.326 . S
O150 C146 1.260 . S
O151 In143 2.266 . S
O151 C148 1.252 . S
O152 In143 2.326 . S
O152 C148 1.260 . S
C153 O144 1.240 . S
C153 O145 1.252 . S
O154 In143 2.294 . S
O154 C147 1.240 . S
O155 In143 2.326 . S
O155 C147 1.252 . S
In156 O157 2.294 . S
In156 O158 2.326 . S
In156 O162 2.266 . S
In156 O163 2.326 . S
In156 O164 2.266 . S
In156 O165 2.326 . S
In156 O167 2.294 . S
In156 O168 2.326 . S
O157 In156 2.294 . S
O157 C166 1.240 . S
O158 In156 2.326 . S
O158 C166 1.252 . S
C159 O162 1.252 . S
C159 O163 1.260 . S
C160 O167 1.240 . S
C160 O168 1.252 . S
C161 O164 1.252 . S
C161 O165 1.260 . S
O162 In156 2.266 . S
O162 C159 1.252 . S
O163 In156 2.326 . S
O163 C159 1.260 . S
O164 In156 2.266 . S
O164 C161 1.252 . S
O165 In156 2.326 . S
O165 C161 1.260 . S
C166 O157 1.240 . S
C166 O158 1.252 . S
O167 In156 2.294 . S
O167 C160 1.240 . S
O168 In156 2.326 . S
O168 C160 1.252 . S
In169 O170 2.294 . S
In169 O171 2.326 . S
In169 O175 2.266 . S
In169 O176 2.326 . S
In169 O177 2.266 . S
In169 O178 2.326 . S
In169 O180 2.294 . S
In169 O181 2.326 . S
O170 In169 2.294 . S
O170 C179 1.240 . S
O171 In169 2.326 . S
O171 C179 1.252 . S
C172 O175 1.252 . S
C172 O176 1.260 . S
C173 O180 1.240 . S
C173 O181 1.252 . S
C174 O177 1.252 . S
C174 O178 1.260 . S
O175 In169 2.266 . S
O175 C172 1.252 . S
O176 In169 2.326 . S
O176 C172 1.260 . S
O177 In169 2.266 . S
O177 C174 1.252 . S
O178 In169 2.326 . S
O178 C174 1.260 . S
C179 O170 1.240 . S
C179 O171 1.252 . S
O180 In169 2.294 . S
O180 C173 1.240 . S
O181 In169 2.326 . S
O181 C173 1.252 . S
In182 O183 2.294 . S
In182 O184 2.326 . S
In182 O188 2.266 . S
In182 O189 2.326 1_565 S
In182 O190 2.266 . S
In182 O191 2.326 . S
In182 O193 2.294 1_565 S
In182 O194 2.326 1_565 S
O183 In182 2.294 . S
O183 C192 1.240 . S
O184 In182 2.326 . S
O184 C192 1.252 . S
C185 O188 1.252 . S
C185 O189 1.260 1_565 S
C186 O193 1.240 . S
C186 O194 1.252 . S
C187 O190 1.252 . S
C187 O191 1.260 . S
O188 In182 2.266 . S
O188 C185 1.252 . S
O189 In182 2.326 1_545 S
O189 C185 1.260 1_545 S
O190 In182 2.266 . S
O190 C187 1.252 . S
O191 In182 2.326 . S
O191 C187 1.260 . S
C192 O183 1.240 . S
C192 O184 1.252 . S
O193 In182 2.294 1_545 S
O193 C186 1.240 . S
O194 In182 2.326 1_545 S
O194 C186 1.252 . S
In195 O196 2.294 . S
In195 O197 2.326 . S
In195 O201 2.266 . S
In195 O202 2.326 . S
In195 O203 2.266 . S
In195 O204 2.326 . S
In195 O206 2.294 . S
In195 O207 2.326 . S
O196 In195 2.294 . S
O196 C205 1.240 . S
O197 In195 2.326 . S
O197 C205 1.252 . S
C198 O201 1.252 . S
C198 O202 1.260 . S
C199 O206 1.240 . S
C199 O207 1.252 . S
C200 O203 1.252 . S
C200 O204 1.260 . S
O201 In195 2.266 . S
O201 C198 1.252 . S
O202 In195 2.326 . S
O202 C198 1.260 . S
O203 In195 2.266 . S
O203 C200 1.252 . S
O204 In195 2.326 . S
O204 C200 1.260 . S
C205 O196 1.240 . S
C205 O197 1.252 . S
O206 In195 2.294 . S
O206 C199 1.240 . S
O207 In195 2.326 . S
O207 C199 1.252 . S
In208 O209 2.294 . S
In208 O210 2.326 . S
In208 O214 2.266 1_565 S
In208 O215 2.326 1_565 S
In208 O216 2.266 . S
In208 O217 2.326 . S
In208 O219 2.294 . S
In208 O220 2.326 . S
O209 In208 2.294 . S
O209 C218 1.240 . S
O210 In208 2.326 . S
O210 C218 1.252 . S
C211 O214 1.252 . S
C211 O215 1.260 . S
C212 O219 1.240 . S
C212 O220 1.252 . S
C213 O216 1.252 . S
C213 O217 1.260 . S
O214 In208 2.266 1_545 S
O214 C211 1.252 . S
O215 In208 2.326 1_545 S
O215 C211 1.260 . S
O216 In208 2.266 . S
O216 C213 1.252 . S
O217 In208 2.326 . S
O217 C213 1.260 . S
C218 O209 1.240 . S
C218 O210 1.252 . S
O219 In208 2.294 . S
O219 C212 1.240 . S
O220 In208 2.326 . S
O220 C212 1.252 . S
In221 O222 2.294 . S
In221 O223 2.326 . S
In221 O227 2.266 . S
In221 O228 2.326 . S
In221 O229 2.266 . S
In221 O230 2.326 . S
In221 O232 2.294 . S
In221 O233 2.326 . S
O222 In221 2.294 . S
O222 C231 1.240 . S
O223 In221 2.326 . S
O223 C231 1.252 . S
C224 O227 1.252 . S
C224 O228 1.260 . S
C225 O232 1.240 . S
C225 O233 1.252 . S
C226 O229 1.252 . S
C226 O230 1.260 . S
O227 In221 2.266 . S
O227 C224 1.252 . S
O228 In221 2.326 . S
O228 C224 1.260 . S
O229 In221 2.266 . S
O229 C226 1.252 . S
O230 In221 2.326 . S
O230 C226 1.260 . S
C231 O222 1.240 . S
C231 O223 1.252 . S
O232 In221 2.294 . S
O232 C225 1.240 . S
O233 In221 2.326 . S
O233 C225 1.252 . S
Zn234 O240 1.920 1_455 S
Zn234 O246 1.898 1_445 S
Zn234 O249 1.905 . S
Zn235 O243 1.905 1_545 S
Zn235 O244 1.898 . S
Zn235 O252 1.920 1_455 S
Zn236 O239 2.080 . S
Zn236 O242 2.114 1_545 S
Zn236 O245 2.120 . S
Zn236 O247 2.120 1_445 S
Zn236 O248 2.114 . S
Zn236 O251 2.080 1_455 S
C237 O242 1.166 . S
C237 O243 1.182 . S
C238 O244 1.167 . S
C238 O245 1.299 . S
O239 Zn236 2.080 . S
O239 C253 1.305 . S
O240 Zn234 1.920 1_655 S
O240 C253 1.234 1_655 S
C241 O246 1.167 . S
C241 O247 1.299 . S
O242 Zn236 2.114 1_565 S
O242 C237 1.166 . S
O243 Zn235 1.905 1_565 S
O243 C237 1.182 . S
O244 Zn235 1.898 . S
O244 C238 1.167 . S
O245 Zn236 2.120 . S
O245 C238 1.299 . S
O246 Zn234 1.898 1_665 S
O246 C241 1.167 . S
O247 Zn236 2.120 1_665 S
O247 C241 1.299 . S
O248 Zn236 2.114 . S
O248 C250 1.166 . S
O249 Zn234 1.905 . S
O249 C250 1.182 . S
C250 O248 1.166 . S
C250 O249 1.182 . S
O251 Zn236 2.080 1_655 S
O251 C254 1.305 . S
O252 Zn235 1.920 1_655 S
O252 C254 1.234 . S
C253 O239 1.305 . S
C253 O240 1.234 1_455 S
C254 O251 1.305 . S
C254 O252 1.234 . S
Zn255 O261 1.920 1_545 S
Zn255 O267 1.898 . S
Zn255 O270 1.905 1_455 S
Zn256 O264 1.905 . S
Zn256 O265 1.898 1_445 S
Zn256 O273 1.920 1_545 S
Zn257 O260 2.080 1_545 S
Zn257 O263 2.114 . S
Zn257 O266 2.120 1_445 S
Zn257 O268 2.120 . S
Zn257 O269 2.114 1_455 S
Zn257 O272 2.080 . S
C258 O263 1.166 . S
C258 O264 1.182 . S
C259 O265 1.167 . S
C259 O266 1.299 . S
O260 Zn257 2.080 1_565 S
O260 C274 1.305 . S
O261 Zn255 1.920 1_565 S
O261 C274 1.234 . S
C262 O267 1.167 . S
C262 O268 1.299 . S
O263 Zn257 2.114 . S
O263 C258 1.166 . S
O264 Zn256 1.905 . S
O264 C258 1.182 . S
O265 Zn256 1.898 1_665 S
O265 C259 1.167 . S
O266 Zn257 2.120 1_665 S
O266 C259 1.299 . S
O267 Zn255 1.898 . S
O267 C262 1.167 . S
O268 Zn257 2.120 . S
O268 C262 1.299 . S
O269 Zn257 2.114 1_655 S
O269 C271 1.166 . S
O270 Zn255 1.905 1_655 S
O270 C271 1.182 . S
C271 O269 1.166 . S
C271 O270 1.182 . S
O272 Zn257 2.080 . S
O272 C275 1.305 . S
O273 Zn256 1.920 1_565 S
O273 C275 1.234 1_565 S
C274 O260 1.305 . S
C274 O261 1.234 . S
C275 O272 1.305 . S
C275 O273 1.234 1_545 S
Zn276 O282 1.920 1_545 S
Zn276 O288 1.898 . S
Zn276 O291 1.905 1_445 S
Zn277 O285 1.905 . S
Zn277 O286 1.898 1_445 S
Zn277 O294 1.920 . S
Zn278 O281 2.080 1_545 S
Zn278 O284 2.114 . S
Zn278 O287 2.120 1_445 S
Zn278 O289 2.120 . S
Zn278 O290 2.114 1_455 S
Zn278 O293 2.080 . S
C279 O284 1.166 . S
C279 O285 1.182 . S
C280 O286 1.167 . S
C280 O287 1.299 . S
O281 Zn278 2.080 1_565 S
O281 C295 1.305 . S
O282 Zn276 1.920 1_565 S
O282 C295 1.234 . S
C283 O288 1.167 . S
C283 O289 1.299 . S
O284 Zn278 2.114 . S
O284 C279 1.166 . S
O285 Zn277 1.905 . S
O285 C279 1.182 . S
O286 Zn277 1.898 1_665 S
O286 C280 1.167 . S
O287 Zn278 2.120 1_665 S
O287 C280 1.299 . S
O288 Zn276 1.898 . S
O288 C283 1.167 . S
O289 Zn278 2.120 . S
O289 C283 1.299 . S
O290 Zn278 2.114 1_655 S
O290 C292 1.166 . S
O291 Zn276 1.905 1_665 S
O291 C292 1.182 1_565 S
C292 O290 1.166 . S
C292 O291 1.182 1_545 S
O293 Zn278 2.080 . S
O293 C296 1.305 . S
O294 Zn277 1.920 . S
O294 C296 1.234 . S
C295 O281 1.305 . S
C295 O282 1.234 . S
C296 O293 1.305 . S
C296 O294 1.234 . S
Zn297 O303 1.920 . S
Zn297 O309 1.898 1_445 S
Zn297 O312 1.905 . S
Zn298 O306 1.905 1_445 S
Zn298 O307 1.898 . S
Zn298 O315 1.920 1_455 S
Zn299 O302 2.080 . S
Zn299 O305 2.114 1_545 S
Zn299 O308 2.120 . S
Zn299 O310 2.120 1_445 S
Zn299 O311 2.114 . S
Zn299 O314 2.080 1_455 S
C300 O305 1.166 . S
C300 O306 1.182 1_455 S
C301 O307 1.167 . S
C301 O308 1.299 . S
O302 Zn299 2.080 . S
O302 C316 1.305 . S
O303 Zn297 1.920 . S
O303 C316 1.234 . S
C304 O309 1.167 . S
C304 O310 1.299 . S
O305 Zn299 2.114 1_565 S
O305 C300 1.166 . S
O306 Zn298 1.905 1_665 S
O306 C300 1.182 1_655 S
O307 Zn298 1.898 . S
O307 C301 1.167 . S
O308 Zn299 2.120 . S
O308 C301 1.299 . S
O309 Zn297 1.898 1_665 S
O309 C304 1.167 . S
O310 Zn299 2.120 1_665 S
O310 C304 1.299 . S
O311 Zn299 2.114 . S
O311 C313 1.166 . S
O312 Zn297 1.905 . S
O312 C313 1.182 . S
C313 O311 1.166 . S
C313 O312 1.182 . S
O314 Zn299 2.080 1_655 S
O314 C317 1.305 . S
O315 Zn298 1.920 1_655 S
O315 C317 1.234 . S
C316 O302 1.305 . S
C316 O303 1.234 . S
C317 O314 1.305 . S
C317 O315 1.234 . S
Zn318 O324 1.920 . S
Zn318 O330 1.898 . S
Zn318 O333 1.905 . S
Zn319 O327 1.905 . S
Zn319 O328 1.898 . S
Zn319 O336 1.920 . S
Zn320 O323 2.080 . S
Zn320 O326 2.114 . S
Zn320 O329 2.120 . S
Zn320 O331 2.120 . S
Zn320 O332 2.114 . S
Zn320 O335 2.080 . S
C321 O326 1.166 . S
C321 O327 1.182 . S
C322 O328 1.167 . S
C322 O329 1.299 . S
O323 Zn320 2.080 . S
O323 C337 1.305 . S
O324 Zn318 1.920 . S
O324 C337 1.234 . S
C325 O330 1.167 . S
C325 O331 1.299 . S
O326 Zn320 2.114 . S
O326 C321 1.166 . S
O327 Zn319 1.905 . S
O327 C321 1.182 . S
O328 Zn319 1.898 . S
O328 C322 1.167 . S
O329 Zn320 2.120 . S
O329 C322 1.299 . S
O330 Zn318 1.898 . S
O330 C325 1.167 . S
O331 Zn320 2.120 . S
O331 C325 1.299 . S
O332 Zn320 2.114 . S
O332 C334 1.166 . S
O333 Zn318 1.905 . S
O333 C334 1.182 . S
C334 O332 1.166 . S
C334 O333 1.182 . S
O335 Zn320 2.080 . S
O335 C338 1.305 . S
O336 Zn319 1.920 . S
O336 C338 1.234 . S
C337 O323 1.305 . S
C337 O324 1.234 . S
C338 O335 1.305 . S
C338 O336 1.234 . S
Zn339 O345 1.920 . S
Zn339 O351 1.898 . S
Zn339 O354 1.905 . S
Zn340 O348 1.905 . S
Zn340 O349 1.898 . S
Zn340 O357 1.920 . S
Zn341 O344 2.080 . S
Zn341 O347 2.114 . S
Zn341 O350 2.120 . S
Zn341 O352 2.120 . S
Zn341 O353 2.114 . S
Zn341 O356 2.080 . S
C342 O347 1.166 . S
C342 O348 1.182 . S
C343 O349 1.167 . S
C343 O350 1.299 . S
O344 Zn341 2.080 . S
O344 C358 1.305 . S
O345 Zn339 1.920 . S
O345 C358 1.234 . S
C346 O351 1.167 . S
C346 O352 1.299 . S
O347 Zn341 2.114 . S
O347 C342 1.166 . S
O348 Zn340 1.905 . S
O348 C342 1.182 . S
O349 Zn340 1.898 . S
O349 C343 1.167 . S
O350 Zn341 2.120 . S
O350 C343 1.299 . S
O351 Zn339 1.898 . S
O351 C346 1.167 . S
O352 Zn341 2.120 . S
O352 C346 1.299 . S
O353 Zn341 2.114 . S
O353 C355 1.166 . S
O354 Zn339 1.905 . S
O354 C355 1.182 . S
C355 O353 1.166 . S
C355 O354 1.182 . S
O356 Zn341 2.080 . S
O356 C359 1.305 . S
O357 Zn340 1.920 . S
O357 C359 1.234 . S
C358 O344 1.305 . S
C358 O345 1.234 . S
C359 O356 1.305 . S
C359 O357 1.234 . S
Zn360 O366 1.920 . S
Zn360 O372 1.898 . S
Zn360 O375 1.905 . S
Zn361 O369 1.905 . S
Zn361 O370 1.898 . S
Zn361 O378 1.920 . S
Zn362 O365 2.080 . S
Zn362 O368 2.114 . S
Zn362 O371 2.120 . S
Zn362 O373 2.120 . S
Zn362 O374 2.114 . S
Zn362 O377 2.080 . S
C363 O368 1.166 . S
C363 O369 1.182 . S
C364 O370 1.167 . S
C364 O371 1.299 . S
O365 Zn362 2.080 . S
O365 C379 1.305 . S
O366 Zn360 1.920 . S
O366 C379 1.234 . S
C367 O372 1.167 . S
C367 O373 1.299 . S
O368 Zn362 2.114 . S
O368 C363 1.166 . S
O369 Zn361 1.905 . S
O369 C363 1.182 . S
O370 Zn361 1.898 . S
O370 C364 1.167 . S
O371 Zn362 2.120 . S
O371 C364 1.299 . S
O372 Zn360 1.898 . S
O372 C367 1.167 . S
O373 Zn362 2.120 . S
O373 C367 1.299 . S
O374 Zn362 2.114 . S
O374 C376 1.166 . S
O375 Zn360 1.905 . S
O375 C376 1.182 . S
C376 O374 1.166 . S
C376 O375 1.182 . S
O377 Zn362 2.080 . S
O377 C380 1.305 . S
O378 Zn361 1.920 . S
O378 C380 1.234 . S
C379 O365 1.305 . S
C379 O366 1.234 . S
C380 O377 1.305 . S
C380 O378 1.234 . S
Zn381 O387 1.920 . S
Zn381 O393 1.898 . S
Zn381 O396 1.905 . S
Zn382 O390 1.905 . S
Zn382 O391 1.898 . S
Zn382 O399 1.920 . S
Zn383 O386 2.080 . S
Zn383 O389 2.114 . S
Zn383 O392 2.120 . S
Zn383 O394 2.120 . S
Zn383 O395 2.114 . S
Zn383 O398 2.080 . S
C384 O389 1.166 . S
C384 O390 1.182 . S
C385 O391 1.167 . S
C385 O392 1.299 . S
O386 Zn383 2.080 . S
O386 C400 1.305 1_556 S
O387 Zn381 1.920 . S
O387 C400 1.234 . S
C388 O393 1.167 . S
C388 O394 1.299 1_554 S
O389 Zn383 2.114 . S
O389 C384 1.166 . S
O390 Zn382 1.905 . S
O390 C384 1.182 . S
O391 Zn382 1.898 . S
O391 C385 1.167 . S
O392 Zn383 2.120 . S
O392 C385 1.299 . S
O393 Zn381 1.898 . S
O393 C388 1.167 . S
O394 Zn383 2.120 . S
O394 C388 1.299 1_556 S
O395 Zn383 2.114 . S
O395 C397 1.166 1_556 S
O396 Zn381 1.905 . S
O396 C397 1.182 . S
C397 O395 1.166 1_554 S
C397 O396 1.182 . S
O398 Zn383 2.080 . S
O398 C401 1.305 . S
O399 Zn382 1.920 . S
O399 C401 1.234 . S
C400 O386 1.305 1_554 S
C400 O387 1.234 . S
C401 O398 1.305 . S
C401 O399 1.234 . S
Zn402 O408 1.920 . S
Zn402 O414 1.898 . S
Zn402 O417 1.905 . S
Zn403 O411 1.905 . S
Zn403 O412 1.898 . S
Zn403 O420 1.920 . S
Zn404 O407 2.080 . S
Zn404 O410 2.114 . S
Zn404 O413 2.120 . S
Zn404 O415 2.120 . S
Zn404 O416 2.114 . S
Zn404 O419 2.080 . S
C405 O410 1.166 . S
C405 O411 1.182 . S
C406 O412 1.167 . S
C406 O413 1.299 . S
O407 Zn404 2.080 . S
O407 C421 1.305 . S
O408 Zn402 1.920 . S
O408 C421 1.234 . S
C409 O414 1.167 . S
C409 O415 1.299 . S
O410 Zn404 2.114 . S
O410 C405 1.166 . S
O411 Zn403 1.905 . S
O411 C405 1.182 . S
O412 Zn403 1.898 . S
O412 C406 1.167 . S
O413 Zn404 2.120 . S
O413 C406 1.299 . S
O414 Zn402 1.898 . S
O414 C409 1.167 . S
O415 Zn404 2.120 . S
O415 C409 1.299 . S
O416 Zn404 2.114 . S
O416 C418 1.166 . S
O417 Zn402 1.905 . S
O417 C418 1.182 . S
C418 O416 1.166 . S
C418 O417 1.182 . S
O419 Zn404 2.080 . S
O419 C422 1.305 . S
O420 Zn403 1.920 . S
O420 C422 1.234 . S
C421 O407 1.305 . S
C421 O408 1.234 . S
C422 O419 1.305 . S
C422 O420 1.234 . S
Zn423 O429 1.920 . S
Zn423 O435 1.898 . S
Zn423 O438 1.905 . S
Zn424 O432 1.905 . S
Zn424 O433 1.898 . S
Zn424 O441 1.920 . S
Zn425 O428 2.080 . S
Zn425 O431 2.114 . S
Zn425 O434 2.120 . S
Zn425 O436 2.120 . S
Zn425 O437 2.114 . S
Zn425 O440 2.080 . S
C426 O431 1.166 1_556 S
C426 O432 1.182 . S
C427 O433 1.167 . S
C427 O434 1.299 1_556 S
O428 Zn425 2.080 . S
O428 C442 1.305 . S
O429 Zn423 1.920 . S
O429 C442 1.234 . S
C430 O435 1.167 . S
C430 O436 1.299 . S
O431 Zn425 2.114 . S
O431 C426 1.166 1_554 S
O432 Zn424 1.905 . S
O432 C426 1.182 . S
O433 Zn424 1.898 . S
O433 C427 1.167 . S
O434 Zn425 2.120 . S
O434 C427 1.299 1_554 S
O435 Zn423 1.898 . S
O435 C430 1.167 . S
O436 Zn425 2.120 . S
O436 C430 1.299 . S
O437 Zn425 2.114 . S
O437 C439 1.166 . S
O438 Zn423 1.905 . S
O438 C439 1.182 . S
C439 O437 1.166 . S
C439 O438 1.182 . S
O440 Zn425 2.080 . S
O440 C443 1.305 1_554 S
O441 Zn424 1.920 . S
O441 C443 1.234 . S
C442 O428 1.305 . S
C442 O429 1.234 . S
C443 O440 1.305 1_556 S
C443 O441 1.234 . S
Zn444 O450 1.920 . S
Zn444 O456 1.898 . S
Zn444 O459 1.905 . S
Zn445 O453 1.905 . S
Zn445 O454 1.898 . S
Zn445 O462 1.920 . S
Zn446 O449 2.080 . S
Zn446 O452 2.114 . S
Zn446 O455 2.120 . S
Zn446 O457 2.120 . S
Zn446 O458 2.114 . S
Zn446 O461 2.080 . S
C447 O452 1.166 . S
C447 O453 1.182 . S
C448 O454 1.167 . S
C448 O455 1.299 . S
O449 Zn446 2.080 . S
O449 C463 1.305 . S
O450 Zn444 1.920 . S
O450 C463 1.234 . S
C451 O456 1.167 . S
C451 O457 1.299 . S
O452 Zn446 2.114 . S
O452 C447 1.166 . S
O453 Zn445 1.905 . S
O453 C447 1.182 . S
O454 Zn445 1.898 . S
O454 C448 1.167 . S
O455 Zn446 2.120 . S
O455 C448 1.299 . S
O456 Zn444 1.898 . S
O456 C451 1.167 . S
O457 Zn446 2.120 . S
O457 C451 1.299 . S
O458 Zn446 2.114 . S
O458 C460 1.166 . S
O459 Zn444 1.905 . S
O459 C460 1.182 . S
C460 O458 1.166 . S
C460 O459 1.182 . S
O461 Zn446 2.080 . S
O461 C464 1.305 . S
O462 Zn445 1.920 . S
O462 C464 1.234 . S
C463 O449 1.305 . S
C463 O450 1.234 . S
C464 O461 1.305 . S
C464 O462 1.234 . S
Zn465 O471 1.920 . S
Zn465 O477 1.898 . S
Zn465 O480 1.905 . S
Zn466 O474 1.905 . S
Zn466 O475 1.898 . S
Zn466 O483 1.920 . S
Zn467 O470 2.080 . S
Zn467 O473 2.114 . S
Zn467 O476 2.120 . S
Zn467 O478 2.120 . S
Zn467 O479 2.114 . S
Zn467 O482 2.080 . S
C468 O473 1.166 . S
C468 O474 1.182 . S
C469 O475 1.167 . S
C469 O476 1.299 . S
O470 Zn467 2.080 . S
O470 C484 1.305 . S
O471 Zn465 1.920 . S
O471 C484 1.234 . S
C472 O477 1.167 . S
C472 O478 1.299 . S
O473 Zn467 2.114 . S
O473 C468 1.166 . S
O474 Zn466 1.905 . S
O474 C468 1.182 . S
O475 Zn466 1.898 . S
O475 C469 1.167 . S
O476 Zn467 2.120 . S
O476 C469 1.299 . S
O477 Zn465 1.898 . S
O477 C472 1.167 . S
O478 Zn467 2.120 . S
O478 C472 1.299 . S
O479 Zn467 2.114 . S
O479 C481 1.166 . S
O480 Zn465 1.905 . S
O480 C481 1.182 . S
C481 O479 1.166 . S
C481 O480 1.182 . S
O482 Zn467 2.080 . S
O482 C485 1.305 . S
O483 Zn466 1.920 . S
O483 C485 1.234 . S
C484 O470 1.305 . S
C484 O471 1.234 . S
C485 O482 1.305 . S
C485 O483 1.234 . S
H486 C492 0.930 . S
H487 C496 0.930 . S
H488 C501 0.929 . S
H489 C499 0.929 . S
H490 C494 0.929 . S
H491 C500 0.929 . S
C492 H486 0.930 . S
C492 C493 1.367 . S
C492 C500 1.378 . S
C493 C492 1.367 . S
C493 C501 1.433 . S
C494 H490 0.929 . S
C494 C496 1.378 . S
C494 C498 1.350 . S
C495 C498 1.463 . S
C495 C500 1.350 . S
C495 N503 1.427 . S
C496 H487 0.930 . S
C496 C494 1.378 . S
C496 C497 1.367 . S
C497 C496 1.367 . S
C497 C499 1.433 . S
C498 C494 1.350 . S
C498 C495 1.463 . S
C498 N502 1.427 . S
C499 H489 0.929 . S
C499 C497 1.433 . S
C499 N502 1.384 . S
C500 H491 0.929 . S
C500 C492 1.378 . S
C500 C495 1.350 . S
C501 H488 0.929 . S
C501 C493 1.433 . S
C501 N503 1.384 . S
N502 C498 1.427 . S
N502 C499 1.384 . S
N503 C495 1.427 . S
N503 C501 1.384 . S
H504 C510 0.930 . S
H505 C514 0.930 . S
H506 C519 0.929 . S
H507 C517 0.929 . S
H508 C512 0.929 . S
H509 C518 0.929 . S
C510 H504 0.930 . S
C510 C511 1.367 . S
C510 C518 1.378 . S
C511 C510 1.367 . S
C511 C519 1.433 . S
C512 H508 0.929 . S
C512 C514 1.378 . S
C512 C516 1.350 . S
C513 C516 1.463 . S
C513 C518 1.350 . S
C513 N521 1.427 . S
C514 H505 0.930 . S
C514 C512 1.378 . S
C514 C515 1.367 . S
C515 C514 1.367 . S
C515 C517 1.433 . S
C516 C512 1.350 . S
C516 C513 1.463 . S
C516 N520 1.427 . S
C517 H507 0.929 . S
C517 C515 1.433 . S
C517 N520 1.384 . S
C518 H509 0.929 . S
C518 C510 1.378 . S
C518 C513 1.350 . S
C519 H506 0.929 . S
C519 C511 1.433 . S
C519 N521 1.384 . S
N520 C516 1.427 . S
N520 C517 1.384 . S
N521 C513 1.427 . S
N521 C519 1.384 . S
H522 C528 0.930 1_655 S
H523 C532 0.930 . S
H524 C537 0.929 . S
H525 C535 0.929 . S
H526 C530 0.929 . S
H527 C536 0.929 1_655 S
C528 H522 0.930 1_455 S
C528 C529 1.367 . S
C528 C536 1.378 . S
C529 C528 1.367 . S
C529 C537 1.433 . S
C530 H526 0.929 . S
C530 C532 1.378 . S
C530 C534 1.350 . S
C531 C534 1.463 . S
C531 C536 1.350 . S
C531 N539 1.427 . S
C532 H523 0.930 . S
C532 C530 1.378 . S
C532 C533 1.367 . S
C533 C532 1.367 . S
C533 C535 1.433 1_455 S
C534 C530 1.350 . S
C534 C531 1.463 . S
C534 N538 1.427 1_455 S
C535 H525 0.929 . S
C535 C533 1.433 1_655 S
C535 N538 1.384 . S
C536 H527 0.929 1_455 S
C536 C528 1.378 . S
C536 C531 1.350 . S
C537 H524 0.929 . S
C537 C529 1.433 . S
C537 N539 1.384 . S
N538 C534 1.427 1_655 S
N538 C535 1.384 . S
N539 C531 1.427 . S
N539 C537 1.384 . S
H540 C546 0.930 . S
H541 C550 0.930 . S
H542 C555 0.929 . S
H543 C553 0.929 . S
H544 C548 0.929 . S
H545 C554 0.929 . S
C546 H540 0.930 . S
C546 C547 1.367 . S
C546 C554 1.378 . S
C547 C546 1.367 . S
C547 C555 1.433 . S
C548 H544 0.929 . S
C548 C550 1.378 . S
C548 C552 1.350 . S
C549 C552 1.463 . S
C549 C554 1.350 . S
C549 N557 1.427 . S
C550 H541 0.930 . S
C550 C548 1.378 . S
C550 C551 1.367 . S
C551 C550 1.367 . S
C551 C553 1.433 . S
C552 C548 1.350 . S
C552 C549 1.463 . S
C552 N556 1.427 . S
C553 H543 0.929 . S
C553 C551 1.433 . S
C553 N556 1.384 . S
C554 H545 0.929 . S
C554 C546 1.378 . S
C554 C549 1.350 . S
C555 H542 0.929 . S
C555 C547 1.433 . S
C555 N557 1.384 . S
N556 C552 1.427 . S
N556 C553 1.384 . S
N557 C549 1.427 . S
N557 C555 1.384 . S
H558 C564 0.930 . S
H559 C568 0.930 . S
H560 C573 0.929 . S
H561 C571 0.929 . S
H562 C566 0.929 . S
H563 C572 0.929 . S
C564 H558 0.930 . S
C564 C565 1.367 . S
C564 C572 1.378 . S
C565 C564 1.367 . S
C565 C573 1.433 1_545 S
C566 H562 0.929 . S
C566 C568 1.378 . S
C566 C570 1.350 1_565 S
C567 C570 1.463 . S
C567 C572 1.350 . S
C567 N575 1.427 1_545 S
C568 H559 0.930 . S
C568 C566 1.378 . S
C568 C569 1.367 1_565 S
C569 C568 1.367 1_545 S
C569 C571 1.433 . S
C570 C566 1.350 1_545 S
C570 C567 1.463 . S
C570 N574 1.427 . S
C571 H561 0.929 . S
C571 C569 1.433 . S
C571 N574 1.384 . S
C572 H563 0.929 . S
C572 C564 1.378 . S
C572 C567 1.350 . S
C573 H560 0.929 . S
C573 C565 1.433 1_565 S
C573 N575 1.384 . S
N574 C570 1.427 . S
N574 C571 1.384 . S
N575 C567 1.427 1_565 S
N575 C573 1.384 . S
H576 C582 0.930 . S
H577 C586 0.930 1_655 S
H578 C591 0.929 . S
H579 C589 0.929 . S
H580 C584 0.939 . S
H581 C590 0.929 . S
C582 H576 0.930 . S
C582 C583 1.367 . S
C582 C590 1.378 . S
C583 C582 1.367 . S
C583 C591 1.433 1_455 S
C584 H580 0.939 . S
C584 C586 1.382 1_655 S
C584 C588 1.335 1_655 S
C585 C588 1.463 . S
C585 C590 1.350 . S
C585 N593 1.427 1_455 S
C586 H577 0.930 1_455 S
C586 C584 1.382 1_455 S
C586 C587 1.367 . S
C587 C586 1.367 . S
C587 C589 1.433 . S
C588 C584 1.335 1_455 S
C588 C585 1.463 . S
C588 N592 1.427 . S
C589 H579 0.929 . S
C589 C587 1.433 . S
C589 N592 1.384 . S
C590 H581 0.929 . S
C590 C582 1.378 . S
C590 C585 1.350 . S
C591 H578 0.929 . S
C591 C583 1.433 1_655 S
C591 N593 1.384 . S
N592 C588 1.427 . S
N592 C589 1.384 . S
N593 C585 1.427 1_655 S
N593 C591 1.384 . S
H594 C600 0.930 . S
H595 C604 0.930 . S
H596 C609 0.929 . S
H597 C607 0.929 . S
H598 C602 0.929 . S
H599 C608 0.929 . S
C600 H594 0.930 . S
C600 C601 1.367 . S
C600 C608 1.378 . S
C601 C600 1.367 . S
C601 C609 1.433 . S
C602 H598 0.929 . S
C602 C604 1.378 . S
C602 C606 1.350 . S
C603 C606 1.463 . S
C603 C608 1.350 . S
C603 N611 1.427 . S
C604 H595 0.930 . S
C604 C602 1.378 . S
C604 C605 1.367 . S
C605 C604 1.367 . S
C605 C607 1.433 . S
C606 C602 1.350 . S
C606 C603 1.463 . S
C606 N610 1.427 . S
C607 H597 0.929 . S
C607 C605 1.433 . S
C607 N610 1.384 . S
C608 H599 0.929 . S
C608 C600 1.378 . S
C608 C603 1.350 . S
C609 H596 0.929 . S
C609 C601 1.433 . S
C609 N611 1.384 . S
N610 C606 1.427 . S
N610 C607 1.384 . S
N611 C603 1.427 . S
N611 C609 1.384 . S
H612 C618 0.930 . S
H613 C622 0.930 . S
H614 C627 0.929 . S
H615 C625 0.924 . S
H616 C620 0.929 . S
H617 C626 0.929 . S
C618 H612 0.930 . S
C618 C619 1.367 . S
C618 C626 1.378 . S
C619 C618 1.367 . S
C619 C627 1.433 . S
C620 H616 0.929 . S
C620 C622 1.378 . S
C620 C624 1.350 . S
C621 C624 1.463 . S
C621 C626 1.350 . S
C621 N629 1.427 . S
C622 H613 0.930 . S
C622 C620 1.378 . S
C622 C623 1.367 . S
C623 C622 1.367 . S
C623 C625 1.433 . S
C624 C620 1.350 . S
C624 C621 1.463 . S
C624 N628 1.427 . S
C625 H615 0.924 . S
C625 C623 1.433 . S
C625 N628 1.384 . S
C626 H617 0.929 . S
C626 C618 1.378 . S
C626 C621 1.350 . S
C627 H614 0.929 . S
C627 C619 1.433 . S
C627 N629 1.384 . S
N628 C624 1.427 . S
N628 C625 1.384 . S
N629 C621 1.427 . S
N629 C627 1.384 . S
H630 C636 0.930 . S
H631 C640 0.930 . S
H632 C645 0.929 . S
H633 C643 0.929 . S
H634 C638 0.929 . S
H635 C644 0.929 . S
C636 H630 0.930 . S
C636 C637 1.367 . S
C636 C644 1.378 . S
C637 C636 1.367 . S
C637 C645 1.433 1_455 S
C638 H634 0.929 . S
C638 C640 1.378 . S
C638 C642 1.350 1_655 S
C639 C642 1.463 . S
C639 C644 1.350 . S
C639 N647 1.427 1_455 S
C640 H631 0.930 . S
C640 C638 1.378 . S
C640 C641 1.367 1_655 S
C641 C640 1.367 1_455 S
C641 C643 1.433 . S
C642 C638 1.350 1_455 S
C642 C639 1.463 . S
C642 N646 1.427 . S
C643 H633 0.929 . S
C643 C641 1.433 . S
C643 N646 1.384 . S
C644 H635 0.929 . S
C644 C636 1.378 . S
C644 C639 1.350 . S
C645 H632 0.929 . S
C645 C637 1.433 1_655 S
C645 N647 1.384 . S
N646 C642 1.427 . S
N646 C643 1.384 . S
N647 C639 1.427 1_655 S
N647 C645 1.384 . S
H648 C654 0.930 . S
H649 C658 0.930 . S
H650 C663 0.929 . S
H651 C661 0.929 . S
H652 C656 0.929 . S
H653 C662 0.929 . S
C654 H648 0.930 . S
C654 C655 1.367 . S
C654 C662 1.378 . S
C655 C654 1.367 . S
C655 C663 1.433 . S
C656 H652 0.929 . S
C656 C658 1.378 . S
C656 C660 1.350 . S
C657 C660 1.463 . S
C657 C662 1.350 . S
C657 N665 1.427 . S
C658 H649 0.930 . S
C658 C656 1.378 . S
C658 C659 1.367 . S
C659 C658 1.367 . S
C659 C661 1.433 . S
C660 C656 1.350 . S
C660 C657 1.463 . S
C660 N664 1.427 . S
C661 H651 0.929 . S
C661 C659 1.433 . S
C661 N664 1.384 . S
C662 H653 0.929 . S
C662 C654 1.378 . S
C662 C657 1.350 . S
C663 H650 0.929 . S
C663 C655 1.433 . S
C663 N665 1.384 . S
N664 C660 1.427 . S
N664 C661 1.384 . S
N665 C657 1.427 . S
N665 C663 1.384 . S
H666 C672 0.930 . S
H667 C676 0.930 . S
H668 C681 0.929 . S
H669 C679 0.929 . S
H670 C674 0.929 . S
H671 C680 0.929 . S
C672 H666 0.930 . S
C672 C673 1.367 . S
C672 C680 1.378 . S
C673 C672 1.367 . S
C673 C681 1.433 1_545 S
C674 H670 0.929 . S
C674 C676 1.378 . S
C674 C678 1.350 1_565 S
C675 C678 1.463 . S
C675 C680 1.350 . S
C675 N683 1.427 1_545 S
C676 H667 0.930 . S
C676 C674 1.378 . S
C676 C677 1.367 1_565 S
C677 C676 1.367 1_545 S
C677 C679 1.433 . S
C678 C674 1.350 1_545 S
C678 C675 1.463 . S
C678 N682 1.427 . S
C679 H669 0.929 . S
C679 C677 1.433 . S
C679 N682 1.384 . S
C680 H671 0.929 . S
C680 C672 1.378 . S
C680 C675 1.350 . S
C681 H668 0.929 . S
C681 C673 1.433 1_565 S
C681 N683 1.384 . S
N682 C678 1.427 . S
N682 C679 1.384 . S
N683 C675 1.427 1_565 S
N683 C681 1.384 . S
H684 C690 0.930 . S
H685 C694 0.930 . S
H686 C699 0.929 . S
H687 C697 0.929 . S
H688 C692 0.929 . S
H689 C698 0.929 . S
C690 H684 0.930 . S
C690 C691 1.367 1_655 S
C690 C698 1.378 . S
C691 C690 1.367 1_455 S
C691 C699 1.433 . S
C692 H688 0.929 . S
C692 C694 1.378 . S
C692 C696 1.350 . S
C693 C696 1.463 . S
C693 C698 1.350 1_455 S
C693 N701 1.427 . S
C694 H685 0.930 . S
C694 C692 1.378 . S
C694 C695 1.367 . S
C695 C694 1.367 . S
C695 C697 1.433 1_455 S
C696 C692 1.350 . S
C696 C693 1.463 . S
C696 N700 1.427 1_455 S
C697 H687 0.929 . S
C697 C695 1.433 1_655 S
C697 N700 1.384 . S
C698 H689 0.929 . S
C698 C690 1.378 . S
C698 C693 1.350 1_655 S
C699 H686 0.929 . S
C699 C691 1.433 . S
C699 N701 1.384 . S
N700 C696 1.427 1_655 S
N700 C697 1.384 . S
N701 C693 1.427 . S
N701 C699 1.384 . S
H702 C708 0.930 . S
H703 C712 0.930 . S
H704 C717 0.929 . S
H705 C715 0.929 . S
H706 C710 0.929 . S
H707 C716 0.929 . S
C708 H702 0.930 . S
C708 C709 1.367 . S
C708 C716 1.378 . S
C709 C708 1.367 . S
C709 C717 1.433 . S
C710 H706 0.929 . S
C710 C712 1.378 . S
C710 C714 1.350 . S
C711 C714 1.463 . S
C711 C716 1.350 . S
C711 N719 1.427 . S
C712 H703 0.930 . S
C712 C710 1.378 . S
C712 C713 1.367 . S
C713 C712 1.367 . S
C713 C715 1.433 . S
C714 C710 1.350 . S
C714 C711 1.463 . S
C714 N718 1.427 . S
C715 H705 0.929 . S
C715 C713 1.433 . S
C715 N718 1.384 . S
C716 H707 0.929 . S
C716 C708 1.378 . S
C716 C711 1.350 . S
C717 H704 0.929 . S
C717 C709 1.433 . S
C717 N719 1.384 . S
N718 C714 1.427 . S
N718 C715 1.384 . S
N719 C711 1.427 . S
N719 C717 1.384 . S
H720 C726 0.930 . S
H721 C730 0.930 . S
H722 C735 0.929 . S
H723 C733 0.929 . S
H724 C728 0.929 . S
H725 C734 0.929 . S
C726 H720 0.930 . S
C726 C727 1.367 . S
C726 C734 1.378 . S
C727 C726 1.367 . S
C727 C735 1.433 . S
C728 H724 0.929 . S
C728 C730 1.378 . S
C728 C732 1.350 . S
C729 C732 1.463 . S
C729 C734 1.350 . S
C729 N737 1.427 . S
C730 H721 0.930 . S
C730 C728 1.378 . S
C730 C731 1.367 . S
C731 C730 1.367 . S
C731 C733 1.433 . S
C732 C728 1.350 . S
C732 C729 1.463 . S
C732 N736 1.427 . S
C733 H723 0.929 . S
C733 C731 1.433 . S
C733 N736 1.384 . S
C734 H725 0.929 . S
C734 C726 1.378 . S
C734 C729 1.350 . S
C735 H722 0.929 . S
C735 C727 1.433 . S
C735 N737 1.384 . S
N736 C732 1.427 . S
N736 C733 1.384 . S
N737 C729 1.427 . S
N737 C735 1.384 . S
H738 C744 0.930 . S
H739 C748 0.930 . S
H740 C753 0.929 . S
H741 C751 0.929 . S
H742 C746 0.929 . S
H743 C752 0.929 . S
C744 H738 0.930 . S
C744 C745 1.367 . S
C744 C752 1.378 . S
C745 C744 1.367 . S
C745 C753 1.433 . S
C746 H742 0.929 . S
C746 C748 1.378 . S
C746 C750 1.350 . S
C747 C750 1.463 . S
C747 C752 1.350 . S
C747 N755 1.427 . S
C748 H739 0.930 . S
C748 C746 1.378 . S
C748 C749 1.367 . S
C749 C748 1.367 . S
C749 C751 1.433 . S
C750 C746 1.350 . S
C750 C747 1.463 . S
C750 N754 1.427 . S
C751 H741 0.929 . S
C751 C749 1.433 . S
C751 N754 1.384 . S
C752 H743 0.929 . S
C752 C744 1.378 . S
C752 C747 1.350 . S
C753 H740 0.929 . S
C753 C745 1.433 . S
C753 N755 1.384 . S
N754 C750 1.427 . S
N754 C751 1.384 . S
N755 C747 1.427 . S
N755 C753 1.384 . S
H756 C762 0.930 . S
H757 C766 0.930 . S
H758 C771 0.929 . S
H759 C769 0.929 . S
H760 C764 0.929 . S
H761 C770 0.929 . S
C762 H756 0.930 . S
C762 C763 1.367 . S
C762 C770 1.378 . S
C763 C762 1.367 . S
C763 C771 1.433 . S
C764 H760 0.929 . S
C764 C766 1.378 . S
C764 C768 1.350 . S
C765 C768 1.463 . S
C765 C770 1.350 . S
C765 N773 1.427 . S
C766 H757 0.930 . S
C766 C764 1.378 . S
C766 C767 1.367 . S
C767 C766 1.367 . S
C767 C769 1.433 . S
C768 C764 1.350 . S
C768 C765 1.463 . S
C768 N772 1.427 . S
C769 H759 0.929 . S
C769 C767 1.433 . S
C769 N772 1.384 . S
C770 H761 0.929 . S
C770 C762 1.378 . S
C770 C765 1.350 . S
C771 H758 0.929 . S
C771 C763 1.433 . S
C771 N773 1.384 . S
N772 C768 1.427 . S
N772 C769 1.384 . S
N773 C765 1.427 . S
N773 C771 1.384 . S
H774 C780 0.930 . S
H775 C784 0.930 . S
H776 C789 0.929 . S
H777 C787 0.929 . S
H778 C782 0.929 . S
H779 C788 0.929 . S
C780 H774 0.930 . S
C780 C781 1.367 . S
C780 C788 1.378 . S
C781 C780 1.367 . S
C781 C789 1.433 . S
C782 H778 0.929 . S
C782 C784 1.378 . S
C782 C786 1.350 . S
C783 C786 1.463 . S
C783 C788 1.350 . S
C783 N791 1.427 . S
C784 H775 0.930 . S
C784 C782 1.378 . S
C784 C785 1.367 . S
C785 C784 1.367 . S
C785 C787 1.433 . S
C786 C782 1.350 . S
C786 C783 1.463 . S
C786 N790 1.427 . S
C787 H777 0.929 . S
C787 C785 1.433 . S
C787 N790 1.384 . S
C788 H779 0.929 . S
C788 C780 1.378 . S
C788 C783 1.350 . S
C789 H776 0.929 . S
C789 C781 1.433 . S
C789 N791 1.384 . S
N790 C786 1.427 . S
N790 C787 1.384 . S
N791 C783 1.427 . S
N791 C789 1.384 . S
H792 C798 0.930 . S
H793 C802 0.930 . S
H794 C807 0.929 . S
H795 C805 0.929 . S
H796 C800 0.929 . S
H797 C806 0.929 . S
C798 H792 0.930 . S
C798 C799 1.367 . S
C798 C806 1.378 . S
C799 C798 1.367 . S
C799 C807 1.433 . S
C800 H796 0.929 . S
C800 C802 1.378 . S
C800 C804 1.350 . S
C801 C804 1.463 . S
C801 C806 1.350 . S
C801 N809 1.427 . S
C802 H793 0.930 . S
C802 C800 1.378 . S
C802 C803 1.367 . S
C803 C802 1.367 . S
C803 C805 1.433 . S
C804 C800 1.350 . S
C804 C801 1.463 . S
C804 N808 1.427 . S
C805 H795 0.929 . S
C805 C803 1.433 . S
C805 N808 1.384 . S
C806 H797 0.929 . S
C806 C798 1.378 . S
C806 C801 1.350 . S
C807 H794 0.929 . S
C807 C799 1.433 . S
C807 N809 1.384 . S
N808 C804 1.427 . S
N808 C805 1.384 . S
N809 C801 1.427 . S
N809 C807 1.384 . S
H810 C816 0.930 . S
H811 C820 0.930 . S
H812 C825 0.929 . S
H813 C823 0.929 . S
H814 C818 0.929 . S
H815 C824 0.929 . S
C816 H810 0.930 . S
C816 C817 1.367 . S
C816 C824 1.378 . S
C817 C816 1.367 . S
C817 C825 1.433 . S
C818 H814 0.929 . S
C818 C820 1.378 . S
C818 C822 1.350 . S
C819 C822 1.463 . S
C819 C824 1.350 . S
C819 N827 1.427 . S
C820 H811 0.930 . S
C820 C818 1.378 . S
C820 C821 1.367 . S
C821 C820 1.367 . S
C821 C823 1.433 . S
C822 C818 1.350 . S
C822 C819 1.463 . S
C822 N826 1.427 . S
C823 H813 0.929 . S
C823 C821 1.433 . S
C823 N826 1.384 . S
C824 H815 0.929 . S
C824 C816 1.378 . S
C824 C819 1.350 . S
C825 H812 0.929 . S
C825 C817 1.433 . S
C825 N827 1.384 . S
N826 C822 1.427 . S
N826 C823 1.384 . S
N827 C819 1.427 . S
N827 C825 1.384 . S
H828 C834 0.930 . S
H829 C838 0.930 . S
H830 C843 0.929 . S
H831 C841 0.929 . S
H832 C836 0.929 . S
H833 C842 0.929 . S
C834 H828 0.930 . S
C834 C835 1.367 . S
C834 C842 1.378 . S
C835 C834 1.367 . S
C835 C843 1.433 . S
C836 H832 0.929 . S
C836 C838 1.378 . S
C836 C840 1.350 . S
C837 C840 1.463 . S
C837 C842 1.350 . S
C837 N845 1.427 . S
C838 H829 0.930 . S
C838 C836 1.378 . S
C838 C839 1.367 . S
C839 C838 1.367 . S
C839 C841 1.433 . S
C840 C836 1.350 . S
C840 C837 1.463 . S
C840 N844 1.427 . S
C841 H831 0.929 . S
C841 C839 1.433 . S
C841 N844 1.384 . S
C842 H833 0.929 . S
C842 C834 1.378 . S
C842 C837 1.350 . S
C843 H830 0.929 . S
C843 C835 1.433 . S
C843 N845 1.384 . S
N844 C840 1.427 . S
N844 C841 1.384 . S
N845 C837 1.427 . S
N845 C843 1.384 . S
H846 C852 0.930 . S
H847 C856 0.930 . S
H848 C861 0.929 . S
H849 C859 0.929 . S
H850 C854 0.929 . S
H851 C860 0.929 . S
C852 H846 0.930 . S
C852 C853 1.367 . S
C852 C860 1.378 . S
C853 C852 1.367 . S
C853 C861 1.433 . S
C854 H850 0.929 . S
C854 C856 1.378 . S
C854 C858 1.350 . S
C855 C858 1.463 . S
C855 C860 1.350 . S
C855 N863 1.427 . S
C856 H847 0.930 . S
C856 C854 1.378 . S
C856 C857 1.367 . S
C857 C856 1.367 . S
C857 C859 1.433 . S
C858 C854 1.350 . S
C858 C855 1.463 . S
C858 N862 1.427 . S
C859 H849 0.929 . S
C859 C857 1.433 . S
C859 N862 1.384 . S
C860 H851 0.929 . S
C860 C852 1.378 . S
C860 C855 1.350 . S
C861 H848 0.929 . S
C861 C853 1.433 . S
C861 N863 1.384 . S
N862 C858 1.427 . S
N862 C859 1.384 . S
N863 C855 1.427 . S
N863 C861 1.384 . S
H864 C870 0.930 . S
H865 C874 0.930 . S
H866 C879 0.929 . S
H867 C877 0.929 1_556 S
H868 C872 0.929 . S
H869 C878 0.929 . S
C870 H864 0.930 . S
C870 C871 1.367 . S
C870 C878 1.378 . S
C871 C870 1.367 . S
C871 C879 1.433 . S
C872 H868 0.929 . S
C872 C874 1.378 . S
C872 C876 1.350 . S
C873 C876 1.463 . S
C873 C878 1.350 . S
C873 N881 1.427 . S
C874 H865 0.930 . S
C874 C872 1.378 . S
C874 C875 1.367 . S
C875 C874 1.367 . S
C875 C877 1.433 . S
C876 C872 1.350 . S
C876 C873 1.463 . S
C876 N880 1.427 . S
C877 H867 0.929 1_554 S
C877 C875 1.433 . S
C877 N880 1.384 . S
C878 H869 0.929 . S
C878 C870 1.378 . S
C878 C873 1.350 . S
C879 H866 0.929 . S
C879 C871 1.433 . S
C879 N881 1.384 . S
N880 C876 1.427 . S
N880 C877 1.384 . S
N881 C873 1.427 . S
N881 C879 1.384 . S
H882 C888 0.930 . S
H883 C892 0.930 . S
H884 C897 0.929 . S
H885 C895 0.929 . S
H886 C890 0.929 . S
H887 C896 0.929 . S
C888 H882 0.930 . S
C888 C889 1.367 . S
C888 C896 1.378 . S
C889 C888 1.367 . S
C889 C897 1.433 . S
C890 H886 0.929 . S
C890 C892 1.378 . S
C890 C894 1.350 . S
C891 C894 1.463 . S
C891 C896 1.350 . S
C891 N899 1.427 . S
C892 H883 0.930 . S
C892 C890 1.378 . S
C892 C893 1.367 . S
C893 C892 1.367 . S
C893 C895 1.433 . S
C894 C890 1.350 . S
C894 C891 1.463 . S
C894 N898 1.427 . S
C895 H885 0.929 . S
C895 C893 1.433 . S
C895 N898 1.384 . S
C896 H887 0.929 . S
C896 C888 1.378 . S
C896 C891 1.350 . S
C897 H884 0.929 . S
C897 C889 1.433 . S
C897 N899 1.384 . S
N898 C894 1.427 . S
N898 C895 1.384 . S
N899 C891 1.427 . S
N899 C897 1.384 . S
H900 C906 0.930 . S
H901 C910 0.930 1_556 S
H902 C915 0.929 . S
H903 C913 0.929 . S
H904 C908 0.929 . S
H905 C914 0.929 . S
C906 H900 0.930 . S
C906 C907 1.367 . S
C906 C914 1.378 . S
C907 C906 1.367 . S
C907 C915 1.433 . S
C908 H904 0.929 . S
C908 C910 1.378 . S
C908 C912 1.350 . S
C909 C912 1.463 . S
C909 C914 1.350 . S
C909 N917 1.427 . S
C910 H901 0.930 1_554 S
C910 C908 1.378 . S
C910 C911 1.367 . S
C911 C910 1.367 . S
C911 C913 1.433 . S
C912 C908 1.350 . S
C912 C909 1.463 . S
C912 N916 1.427 . S
C913 H903 0.929 . S
C913 C911 1.433 . S
C913 N916 1.384 . S
C914 H905 0.929 . S
C914 C906 1.378 . S
C914 C909 1.350 . S
C915 H902 0.929 . S
C915 C907 1.433 . S
C915 N917 1.384 . S
N916 C912 1.427 . S
N916 C913 1.384 . S
N917 C909 1.427 . S
N917 C915 1.384 . S
H918 C924 0.930 . S
H919 C928 0.930 . S
H920 C933 0.929 . S
H921 C931 0.929 . S
H922 C926 0.929 . S
H923 C932 0.929 . S
C924 H918 0.930 . S
C924 C925 1.367 . S
C924 C932 1.378 . S
C925 C924 1.367 . S
C925 C933 1.433 . S
C926 H922 0.929 . S
C926 C928 1.378 . S
C926 C930 1.350 . S
C927 C930 1.463 . S
C927 C932 1.350 . S
C927 N935 1.427 . S
C928 H919 0.930 . S
C928 C926 1.378 . S
C928 C929 1.367 . S
C929 C928 1.367 . S
C929 C931 1.433 . S
C930 C926 1.350 . S
C930 C927 1.463 . S
C930 N934 1.427 . S
C931 H921 0.929 . S
C931 C929 1.433 . S
C931 N934 1.384 . S
C932 H923 0.929 . S
C932 C924 1.378 . S
C932 C927 1.350 . S
C933 H920 0.929 . S
C933 C925 1.433 . S
C933 N935 1.384 . S
N934 C930 1.427 . S
N934 C931 1.384 . S
N935 C927 1.427 . S
N935 C933 1.384 . S
H936 C942 0.930 . S
H937 C946 0.930 . S
H938 C951 0.929 . S
H939 C949 0.929 . S
H940 C944 0.929 . S
H941 C950 0.929 . S
C942 H936 0.930 . S
C942 C943 1.367 . S
C942 C950 1.378 . S
C943 C942 1.367 . S
C943 C951 1.433 . S
C944 H940 0.929 . S
C944 C946 1.378 . S
C944 C948 1.350 . S
C945 C948 1.463 . S
C945 C950 1.350 . S
C945 N953 1.427 . S
C946 H937 0.930 . S
C946 C944 1.378 . S
C946 C947 1.367 . S
C947 C946 1.367 . S
C947 C949 1.433 . S
C948 C944 1.350 . S
C948 C945 1.463 . S
C948 N952 1.427 . S
C949 H939 0.929 . S
C949 C947 1.433 . S
C949 N952 1.384 . S
C950 H941 0.929 . S
C950 C942 1.378 . S
C950 C945 1.350 . S
C951 H938 0.929 . S
C951 C943 1.433 . S
C951 N953 1.384 . S
N952 C948 1.427 . S
N952 C949 1.384 . S
N953 C945 1.427 . S
N953 C951 1.384 . S
H954 C960 0.930 . S
H955 C964 0.930 . S
H956 C969 0.929 . S
H957 C967 0.929 . S
H958 C962 0.929 . S
H959 C968 0.929 . S
C960 H954 0.930 . S
C960 C961 1.367 . S
C960 C968 1.378 . S
C961 C960 1.367 . S
C961 C969 1.433 . S
C962 H958 0.929 . S
C962 C964 1.378 . S
C962 C966 1.350 . S
C963 C966 1.463 . S
C963 C968 1.350 . S
C963 N971 1.427 . S
C964 H955 0.930 . S
C964 C962 1.378 . S
C964 C965 1.367 . S
C965 C964 1.367 . S
C965 C967 1.433 . S
C966 C962 1.350 . S
C966 C963 1.463 . S
C966 N970 1.427 . S
C967 H957 0.929 . S
C967 C965 1.433 . S
C967 N970 1.384 . S
C968 H959 0.929 . S
C968 C960 1.378 . S
C968 C963 1.350 . S
C969 H956 0.929 . S
C969 C961 1.433 . S
C969 N971 1.384 . S
N970 C966 1.427 . S
N970 C967 1.384 . S
N971 C963 1.427 . S
N971 C969 1.384 . S
H972 C978 0.930 . S
H973 C982 0.930 . S
H974 C987 0.929 . S
H975 C985 0.929 . S
H976 C980 0.929 . S
H977 C986 0.929 . S
C978 H972 0.930 . S
C978 C979 1.367 . S
C978 C986 1.378 . S
C979 C978 1.367 . S
C979 C987 1.433 . S
C980 H976 0.929 . S
C980 C982 1.378 . S
C980 C984 1.350 . S
C981 C984 1.463 . S
C981 C986 1.350 . S
C981 N989 1.427 . S
C982 H973 0.930 . S
C982 C980 1.378 . S
C982 C983 1.367 . S
C983 C982 1.367 . S
C983 C985 1.433 . S
C984 C980 1.350 . S
C984 C981 1.463 . S
C984 N988 1.427 . S
C985 H975 0.929 . S
C985 C983 1.433 . S
C985 N988 1.384 . S
C986 H977 0.929 . S
C986 C978 1.378 . S
C986 C981 1.350 . S
C987 H974 0.929 . S
C987 C979 1.433 . S
C987 N989 1.384 . S
N988 C984 1.427 . S
N988 C985 1.384 . S
N989 C981 1.427 . S
N989 C987 1.384 . S
H990 C996 0.930 . S
H991 C1000 0.930 . S
H992 C1005 0.929 . S
H993 C1003 0.929 . S
H994 C998 0.929 . S
H995 C1004 0.929 . S
C996 H990 0.930 . S
C996 C997 1.367 . S
C996 C1004 1.378 . S
C997 C996 1.367 . S
C997 C1005 1.433 . S
C998 H994 0.929 . S
C998 C1000 1.378 . S
C998 C1002 1.350 . S
C999 C1002 1.463 . S
C999 C1004 1.350 . S
C999 N1007 1.427 . S
C1000 H991 0.930 . S
C1000 C998 1.378 . S
C1000 C1001 1.367 . S
C1001 C1000 1.367 . S
C1001 C1003 1.433 . S
C1002 C998 1.350 . S
C1002 C999 1.463 . S
C1002 N1006 1.427 . S
C1003 H993 0.929 . S
C1003 C1001 1.433 . S
C1003 N1006 1.384 . S
C1004 H995 0.929 . S
C1004 C996 1.378 . S
C1004 C999 1.350 . S
C1005 H992 0.929 . S
C1005 C997 1.433 . S
C1005 N1007 1.384 . S
N1006 C1002 1.427 . S
N1006 C1003 1.384 . S
N1007 C999 1.427 . S
N1007 C1005 1.384 . S
H1008 C1014 0.930 . S
H1009 C1018 0.930 . S
H1010 C1023 0.929 . S
H1011 C1021 0.929 . S
H1012 C1016 0.929 . S
H1013 C1022 0.929 . S
C1014 H1008 0.930 . S
C1014 C1015 1.367 . S
C1014 C1022 1.378 . S
C1015 C1014 1.367 . S
C1015 C1023 1.433 . S
C1016 H1012 0.929 . S
C1016 C1018 1.378 . S
C1016 C1020 1.350 . S
C1017 C1020 1.463 . S
C1017 C1022 1.350 . S
C1017 N1025 1.427 . S
C1018 H1009 0.930 . S
C1018 C1016 1.378 . S
C1018 C1019 1.367 . S
C1019 C1018 1.367 . S
C1019 C1021 1.433 . S
C1020 C1016 1.350 . S
C1020 C1017 1.463 . S
C1020 N1024 1.427 . S
C1021 H1011 0.929 . S
C1021 C1019 1.433 . S
C1021 N1024 1.384 . S
C1022 H1013 0.929 . S
C1022 C1014 1.378 . S
C1022 C1017 1.350 . S
C1023 H1010 0.929 . S
C1023 C1015 1.433 . S
C1023 N1025 1.384 . S
N1024 C1020 1.427 . S
N1024 C1021 1.384 . S
N1025 C1017 1.427 . S
N1025 C1023 1.384 . S
H1026 C1032 0.930 . S
H1027 C1036 0.930 . S
H1028 C1041 0.929 . S
H1029 C1039 0.929 . S
H1030 C1034 0.929 . S
H1031 C1040 0.929 . S
C1032 H1026 0.930 . S
C1032 C1033 1.367 . S
C1032 C1040 1.378 . S
C1033 C1032 1.367 . S
C1033 C1041 1.433 . S
C1034 H1030 0.929 . S
C1034 C1036 1.378 . S
C1034 C1038 1.350 . S
C1035 C1038 1.463 . S
C1035 C1040 1.350 . S
C1035 N1043 1.427 . S
C1036 H1027 0.930 . S
C1036 C1034 1.378 . S
C1036 C1037 1.367 . S
C1037 C1036 1.367 . S
C1037 C1039 1.433 . S
C1038 C1034 1.350 . S
C1038 C1035 1.463 . S
C1038 N1042 1.427 . S
C1039 H1029 0.929 . S
C1039 C1037 1.433 . S
C1039 N1042 1.384 . S
C1040 H1031 0.929 . S
C1040 C1032 1.378 . S
C1040 C1035 1.350 . S
C1041 H1028 0.929 . S
C1041 C1033 1.433 . S
C1041 N1043 1.384 . S
N1042 C1038 1.427 . S
N1042 C1039 1.384 . S
N1043 C1035 1.427 . S
N1043 C1041 1.384 . S
H1044 C1050 0.930 . S
H1045 C1054 0.930 . S
H1046 C1059 0.929 . S
H1047 C1057 0.929 . S
H1048 C1052 0.929 . S
H1049 C1058 0.929 . S
C1050 H1044 0.930 . S
C1050 C1051 1.367 . S
C1050 C1058 1.378 . S
C1051 C1050 1.367 . S
C1051 C1059 1.433 . S
C1052 H1048 0.929 . S
C1052 C1054 1.378 . S
C1052 C1056 1.350 . S
C1053 C1056 1.463 . S
C1053 C1058 1.350 . S
C1053 N1061 1.427 . S
C1054 H1045 0.930 . S
C1054 C1052 1.378 . S
C1054 C1055 1.367 . S
C1055 C1054 1.367 . S
C1055 C1057 1.433 . S
C1056 C1052 1.350 . S
C1056 C1053 1.463 . S
C1056 N1060 1.427 . S
C1057 H1047 0.929 . S
C1057 C1055 1.433 . S
C1057 N1060 1.384 . S
C1058 H1049 0.929 . S
C1058 C1050 1.378 . S
C1058 C1053 1.350 . S
C1059 H1046 0.929 . S
C1059 C1051 1.433 . S
C1059 N1061 1.384 . S
N1060 C1056 1.427 . S
N1060 C1057 1.384 . S
N1061 C1053 1.427 . S
N1061 C1059 1.384 . S
H1062 C1068 0.930 . S
H1063 C1072 0.930 . S
H1064 C1077 0.929 . S
H1065 C1075 0.929 . S
H1066 C1070 0.929 . S
H1067 C1076 0.929 . S
C1068 H1062 0.930 . S
C1068 C1069 1.367 . S
C1068 C1076 1.378 . S
C1069 C1068 1.367 . S
C1069 C1077 1.433 . S
C1070 H1066 0.929 . S
C1070 C1072 1.378 . S
C1070 C1074 1.350 . S
C1071 C1074 1.463 . S
C1071 C1076 1.350 . S
C1071 N1079 1.427 . S
C1072 H1063 0.930 . S
C1072 C1070 1.378 . S
C1072 C1073 1.367 . S
C1073 C1072 1.367 . S
C1073 C1075 1.433 . S
C1074 C1070 1.350 . S
C1074 C1071 1.463 . S
C1074 N1078 1.427 . S
C1075 H1065 0.929 . S
C1075 C1073 1.433 . S
C1075 N1078 1.384 . S
C1076 H1067 0.929 . S
C1076 C1068 1.378 . S
C1076 C1071 1.350 . S
C1077 H1064 0.929 . S
C1077 C1069 1.433 . S
C1077 N1079 1.384 . S
N1078 C1074 1.427 . S
N1078 C1075 1.384 . S
N1079 C1071 1.427 . S
N1079 C1077 1.384 . S
H1080 C1086 0.930 . S
H1081 C1090 0.930 . S
H1082 C1095 0.929 . S
H1083 C1093 0.929 . S
H1084 C1088 0.929 . S
H1085 C1094 0.929 . S
C1086 H1080 0.930 . S
C1086 C1087 1.367 . S
C1086 C1094 1.378 . S
C1087 C1086 1.367 . S
C1087 C1095 1.433 . S
C1088 H1084 0.929 . S
C1088 C1090 1.378 . S
C1088 C1092 1.350 . S
C1089 C1092 1.463 . S
C1089 C1094 1.350 . S
C1089 N1097 1.427 . S
C1090 H1081 0.930 . S
C1090 C1088 1.378 . S
C1090 C1091 1.367 . S
C1091 C1090 1.367 . S
C1091 C1093 1.433 . S
C1092 C1088 1.350 . S
C1092 C1089 1.463 . S
C1092 N1096 1.427 . S
C1093 H1083 0.929 . S
C1093 C1091 1.433 . S
C1093 N1096 1.384 . S
C1094 H1085 0.929 . S
C1094 C1086 1.378 . S
C1094 C1089 1.350 . S
C1095 H1082 0.929 . S
C1095 C1087 1.433 . S
C1095 N1097 1.384 . S
N1096 C1092 1.427 . S
N1096 C1093 1.384 . S
N1097 C1089 1.427 . S
N1097 C1095 1.384 . S
H1098 C1104 0.930 . S
H1099 C1108 0.930 . S
H1100 C1113 0.929 . S
H1101 C1111 0.929 . S
H1102 C1106 0.929 . S
H1103 C1112 0.929 . S
C1104 H1098 0.930 . S
C1104 C1105 1.367 . S
C1104 C1112 1.378 . S
C1105 C1104 1.367 . S
C1105 C1113 1.433 . S
C1106 H1102 0.929 . S
C1106 C1108 1.378 . S
C1106 C1110 1.350 . S
C1107 C1110 1.463 . S
C1107 C1112 1.350 . S
C1107 N1115 1.427 . S
C1108 H1099 0.930 . S
C1108 C1106 1.378 . S
C1108 C1109 1.367 . S
C1109 C1108 1.367 . S
C1109 C1111 1.433 . S
C1110 C1106 1.350 . S
C1110 C1107 1.463 . S
C1110 N1114 1.427 . S
C1111 H1101 0.929 . S
C1111 C1109 1.433 . S
C1111 N1114 1.384 . S
C1112 H1103 0.929 . S
C1112 C1104 1.378 . S
C1112 C1107 1.350 . S
C1113 H1100 0.929 . S
C1113 C1105 1.433 . S
C1113 N1115 1.384 . S
N1114 C1110 1.427 . S
N1114 C1111 1.384 . S
N1115 C1107 1.427 . S
N1115 C1113 1.384 . S
H1116 C1122 0.930 . S
H1117 C1126 0.930 . S
H1118 C1131 0.929 . S
H1119 C1129 0.929 . S
H1120 C1124 0.929 . S
H1121 C1130 0.929 . S
C1122 H1116 0.930 . S
C1122 C1123 1.367 . S
C1122 C1130 1.378 . S
C1123 C1122 1.367 . S
C1123 C1131 1.433 . S
C1124 H1120 0.929 . S
C1124 C1126 1.378 . S
C1124 C1128 1.350 . S
C1125 C1128 1.463 . S
C1125 C1130 1.350 . S
C1125 N1133 1.427 . S
C1126 H1117 0.930 . S
C1126 C1124 1.378 . S
C1126 C1127 1.367 . S
C1127 C1126 1.367 . S
C1127 C1129 1.433 . S
C1128 C1124 1.350 . S
C1128 C1125 1.463 . S
C1128 N1132 1.427 . S
C1129 H1119 0.929 . S
C1129 C1127 1.433 . S
C1129 N1132 1.384 . S
C1130 H1121 0.929 . S
C1130 C1122 1.378 . S
C1130 C1125 1.350 . S
C1131 H1118 0.929 . S
C1131 C1123 1.433 . S
C1131 N1133 1.384 . S
N1132 C1128 1.427 . S
N1132 C1129 1.384 . S
N1133 C1125 1.427 . S
N1133 C1131 1.384 . S
H1134 C1140 0.930 . S
H1135 C1144 0.930 . S
H1136 C1149 0.929 . S
H1137 C1147 0.929 . S
H1138 C1142 0.929 . S
H1139 C1148 0.929 . S
C1140 H1134 0.930 . S
C1140 C1141 1.367 . S
C1140 C1148 1.378 . S
C1141 C1140 1.367 . S
C1141 C1149 1.433 . S
C1142 H1138 0.929 . S
C1142 C1144 1.378 . S
C1142 C1146 1.350 . S
C1143 C1146 1.463 . S
C1143 C1148 1.350 . S
C1143 N1151 1.427 . S
C1144 H1135 0.930 . S
C1144 C1142 1.378 . S
C1144 C1145 1.367 . S
C1145 C1144 1.367 . S
C1145 C1147 1.433 . S
C1146 C1142 1.350 . S
C1146 C1143 1.463 . S
C1146 N1150 1.427 . S
C1147 H1137 0.929 . S
C1147 C1145 1.433 . S
C1147 N1150 1.384 . S
C1148 H1139 0.929 . S
C1148 C1140 1.378 . S
C1148 C1143 1.350 . S
C1149 H1136 0.929 . S
C1149 C1141 1.433 . S
C1149 N1151 1.384 . S
N1150 C1146 1.427 . S
N1150 C1147 1.384 . S
N1151 C1143 1.427 . S
N1151 C1149 1.384 . S
H1152 C1158 0.930 . S
H1153 C1162 0.930 . S
H1154 C1167 0.929 . S
H1155 C1165 0.929 . S
H1156 C1160 0.929 . S
H1157 C1166 0.929 . S
C1158 H1152 0.930 . S
C1158 C1159 1.367 . S
C1158 C1166 1.378 . S
C1159 C1158 1.367 . S
C1159 C1167 1.433 1_655 S
C1160 H1156 0.929 . S
C1160 C1162 1.378 . S
C1160 C1164 1.350 1_455 S
C1161 C1164 1.463 . S
C1161 C1166 1.350 . S
C1161 N1169 1.427 1_655 S
C1162 H1153 0.930 . S
C1162 C1160 1.378 . S
C1162 C1163 1.367 1_455 S
C1163 C1162 1.367 1_655 S
C1163 C1165 1.433 . S
C1164 C1160 1.350 1_655 S
C1164 C1161 1.463 . S
C1164 N1168 1.427 . S
C1165 H1155 0.929 . S
C1165 C1163 1.433 . S
C1165 N1168 1.384 . S
C1166 H1157 0.929 . S
C1166 C1158 1.378 . S
C1166 C1161 1.350 . S
C1167 H1154 0.929 . S
C1167 C1159 1.433 1_455 S
C1167 N1169 1.384 . S
N1168 C1164 1.427 . S
N1168 C1165 1.384 . S
N1169 C1161 1.427 1_455 S
N1169 C1167 1.384 . S
H1170 C1176 0.930 . S
H1171 C1180 0.930 . S
H1172 C1185 0.929 . S
H1173 C1183 0.929 . S
H1174 C1178 0.929 . S
H1175 C1184 0.929 . S
C1176 H1170 0.930 . S
C1176 C1177 1.367 . S
C1176 C1184 1.378 . S
C1177 C1176 1.367 . S
C1177 C1185 1.433 . S
C1178 H1174 0.929 . S
C1178 C1180 1.378 . S
C1178 C1182 1.350 . S
C1179 C1182 1.463 . S
C1179 C1184 1.350 . S
C1179 N1187 1.427 . S
C1180 H1171 0.930 . S
C1180 C1178 1.378 . S
C1180 C1181 1.367 . S
C1181 C1180 1.367 . S
C1181 C1183 1.433 . S
C1182 C1178 1.350 . S
C1182 C1179 1.463 . S
C1182 N1186 1.427 . S
C1183 H1173 0.929 . S
C1183 C1181 1.433 . S
C1183 N1186 1.384 . S
C1184 H1175 0.929 . S
C1184 C1176 1.378 . S
C1184 C1179 1.350 . S
C1185 H1172 0.929 . S
C1185 C1177 1.433 . S
C1185 N1187 1.384 . S
N1186 C1182 1.427 . S
N1186 C1183 1.384 . S
N1187 C1179 1.427 . S
N1187 C1185 1.384 . S
H1188 C1194 0.930 . S
H1189 C1198 0.930 . S
H1190 C1203 0.929 . S
H1191 C1201 0.929 . S
H1192 C1196 0.929 . S
H1193 C1202 0.929 . S
C1194 H1188 0.930 . S
C1194 C1195 1.367 . S
C1194 C1202 1.378 . S
C1195 C1194 1.367 . S
C1195 C1203 1.433 . S
C1196 H1192 0.929 . S
C1196 C1198 1.378 . S
C1196 C1200 1.350 . S
C1197 C1200 1.463 . S
C1197 C1202 1.350 . S
C1197 N1205 1.427 . S
C1198 H1189 0.930 . S
C1198 C1196 1.378 . S
C1198 C1199 1.367 . S
C1199 C1198 1.367 . S
C1199 C1201 1.433 . S
C1200 C1196 1.350 . S
C1200 C1197 1.463 . S
C1200 N1204 1.427 . S
C1201 H1191 0.929 . S
C1201 C1199 1.433 . S
C1201 N1204 1.384 . S
C1202 H1193 0.929 . S
C1202 C1194 1.378 . S
C1202 C1197 1.350 . S
C1203 H1190 0.929 . S
C1203 C1195 1.433 . S
C1203 N1205 1.384 . S
N1204 C1200 1.427 . S
N1204 C1201 1.384 . S
N1205 C1197 1.427 . S
N1205 C1203 1.384 . S
H1206 C1212 0.930 . S
H1207 C1216 0.930 . S
H1208 C1221 0.929 . S
H1209 C1219 0.929 . S
H1210 C1214 0.929 . S
H1211 C1220 0.929 . S
C1212 H1206 0.930 . S
C1212 C1213 1.367 . S
C1212 C1220 1.378 . S
C1213 C1212 1.367 . S
C1213 C1221 1.433 . S
C1214 H1210 0.929 . S
C1214 C1216 1.378 . S
C1214 C1218 1.350 . S
C1215 C1218 1.463 . S
C1215 C1220 1.350 . S
C1215 N1223 1.427 . S
C1216 H1207 0.930 . S
C1216 C1214 1.378 . S
C1216 C1217 1.367 . S
C1217 C1216 1.367 . S
C1217 C1219 1.433 . S
C1218 C1214 1.350 . S
C1218 C1215 1.463 . S
C1218 N1222 1.427 . S
C1219 H1209 0.929 . S
C1219 C1217 1.433 . S
C1219 N1222 1.384 . S
C1220 H1211 0.929 . S
C1220 C1212 1.378 . S
C1220 C1215 1.350 . S
C1221 H1208 0.929 . S
C1221 C1213 1.433 . S
C1221 N1223 1.384 . S
N1222 C1218 1.427 . S
N1222 C1219 1.384 . S
N1223 C1215 1.427 . S
N1223 C1221 1.384 . S
H1224 C1230 0.930 . S
H1225 C1234 0.930 . S
H1226 C1239 0.929 1_545 S
H1227 C1237 0.929 . S
H1228 C1232 0.929 . S
H1229 C1238 0.929 . S
C1230 H1224 0.930 . S
C1230 C1231 1.367 . S
C1230 C1238 1.378 . S
C1231 C1230 1.367 . S
C1231 C1239 1.433 . S
C1232 H1228 0.929 . S
C1232 C1234 1.378 . S
C1232 C1236 1.350 1_545 S
C1233 C1236 1.463 . S
C1233 C1238 1.350 . S
C1233 N1241 1.427 . S
C1234 H1225 0.930 . S
C1234 C1232 1.378 . S
C1234 C1235 1.367 1_545 S
C1235 C1234 1.367 1_565 S
C1235 C1237 1.433 . S
C1236 C1232 1.350 1_565 S
C1236 C1233 1.463 . S
C1236 N1240 1.427 . S
C1237 H1227 0.929 . S
C1237 C1235 1.433 . S
C1237 N1240 1.384 . S
C1238 H1229 0.929 . S
C1238 C1230 1.378 . S
C1238 C1233 1.350 . S
C1239 H1226 0.929 1_565 S
C1239 C1231 1.433 . S
C1239 N1241 1.384 . S
N1240 C1236 1.427 . S
N1240 C1237 1.384 . S
N1241 C1233 1.427 . S
N1241 C1239 1.384 . S
H1242 C1248 0.930 . S
H1243 C1252 0.930 . S
H1244 C1257 0.929 . S
H1245 C1255 0.929 . S
H1246 C1250 0.929 . S
H1247 C1256 0.929 . S
C1248 H1242 0.930 . S
C1248 C1249 1.367 . S
C1248 C1256 1.378 . S
C1249 C1248 1.367 . S
C1249 C1257 1.433 1_565 S
C1250 H1246 0.929 . S
C1250 C1252 1.378 . S
C1250 C1254 1.350 1_545 S
C1251 C1254 1.463 . S
C1251 C1256 1.350 . S
C1251 N1259 1.427 1_565 S
C1252 H1243 0.930 . S
C1252 C1250 1.378 . S
C1252 C1253 1.367 1_545 S
C1253 C1252 1.367 1_565 S
C1253 C1255 1.433 . S
C1254 C1250 1.350 1_565 S
C1254 C1251 1.463 . S
C1254 N1258 1.427 . S
C1255 H1245 0.929 . S
C1255 C1253 1.433 . S
C1255 N1258 1.384 . S
C1256 H1247 0.929 . S
C1256 C1248 1.378 . S
C1256 C1251 1.350 . S
C1257 H1244 0.929 . S
C1257 C1249 1.433 1_545 S
C1257 N1259 1.384 . S
N1258 C1254 1.427 . S
N1258 C1255 1.384 . S
N1259 C1251 1.427 1_545 S
N1259 C1257 1.384 . S
H1260 C1266 0.930 . S
H1261 C1270 0.930 . S
H1262 C1275 0.929 . S
H1263 C1273 0.929 . S
H1264 C1268 0.929 . S
H1265 C1274 0.929 . S
C1266 H1260 0.930 . S
C1266 C1267 1.367 . S
C1266 C1274 1.378 . S
C1267 C1266 1.367 . S
C1267 C1275 1.433 . S
C1268 H1264 0.929 . S
C1268 C1270 1.378 . S
C1268 C1272 1.350 . S
C1269 C1272 1.463 . S
C1269 C1274 1.350 . S
C1269 N1277 1.427 . S
C1270 H1261 0.930 . S
C1270 C1268 1.378 . S
C1270 C1271 1.367 . S
C1271 C1270 1.367 . S
C1271 C1273 1.433 . S
C1272 C1268 1.350 . S
C1272 C1269 1.463 . S
C1272 N1276 1.427 . S
C1273 H1263 0.929 . S
C1273 C1271 1.433 . S
C1273 N1276 1.384 . S
C1274 H1265 0.929 . S
C1274 C1266 1.378 . S
C1274 C1269 1.350 . S
C1275 H1262 0.929 . S
C1275 C1267 1.433 . S
C1275 N1277 1.384 . S
N1276 C1272 1.427 . S
N1276 C1273 1.384 . S
N1277 C1269 1.427 . S
N1277 C1275 1.384 . S
H1278 C1284 0.930 . S
H1279 C1288 0.930 . S
H1280 C1293 0.929 . S
H1281 C1291 0.929 . S
H1282 C1286 0.929 . S
H1283 C1292 0.929 . S
C1284 H1278 0.930 . S
C1284 C1285 1.367 . S
C1284 C1292 1.378 . S
C1285 C1284 1.367 . S
C1285 C1293 1.433 . S
C1286 H1282 0.929 . S
C1286 C1288 1.378 . S
C1286 C1290 1.350 . S
C1287 C1290 1.463 . S
C1287 C1292 1.350 . S
C1287 N1295 1.427 . S
C1288 H1279 0.930 . S
C1288 C1286 1.378 . S
C1288 C1289 1.367 . S
C1289 C1288 1.367 . S
C1289 C1291 1.433 . S
C1290 C1286 1.350 . S
C1290 C1287 1.463 . S
C1290 N1294 1.427 . S
C1291 H1281 0.929 . S
C1291 C1289 1.433 . S
C1291 N1294 1.384 . S
C1292 H1283 0.929 . S
C1292 C1284 1.378 . S
C1292 C1287 1.350 . S
C1293 H1280 0.929 . S
C1293 C1285 1.433 . S
C1293 N1295 1.384 . S
N1294 C1290 1.427 . S
N1294 C1291 1.384 . S
N1295 C1287 1.427 . S
N1295 C1293 1.384 . S
H1296 C1302 0.930 . S
H1297 C1306 0.930 . S
H1298 C1311 0.925 1_455 S
H1299 C1309 0.929 . S
H1300 C1304 0.929 . S
H1301 C1310 0.929 . S
C1302 H1296 0.930 . S
C1302 C1303 1.367 . S
C1302 C1310 1.378 . S
C1303 C1302 1.367 . S
C1303 C1311 1.428 . S
C1304 H1300 0.929 . S
C1304 C1306 1.378 . S
C1304 C1308 1.350 1_455 S
C1305 C1308 1.463 . S
C1305 C1310 1.350 . S
C1305 N1313 1.427 1_655 S
C1306 H1297 0.930 . S
C1306 C1304 1.378 . S
C1306 C1307 1.367 1_455 S
C1307 C1306 1.367 1_655 S
C1307 C1309 1.433 . S
C1308 C1304 1.350 1_655 S
C1308 C1305 1.463 . S
C1308 N1312 1.427 . S
C1309 H1299 0.929 . S
C1309 C1307 1.433 . S
C1309 N1312 1.384 . S
C1310 H1301 0.929 . S
C1310 C1302 1.378 . S
C1310 C1305 1.350 . S
C1311 H1298 0.925 1_655 S
C1311 C1303 1.428 . S
C1311 N1313 1.393 1_655 S
N1312 C1308 1.427 . S
N1312 C1309 1.384 . S
N1313 C1305 1.427 1_455 S
N1313 C1311 1.393 1_455 S
H1314 C1320 0.930 . S
H1315 C1324 0.930 . S
H1316 C1329 0.929 . S
H1317 C1327 0.929 . S
H1318 C1322 0.929 . S
H1319 C1328 0.929 . S
C1320 H1314 0.930 . S
C1320 C1321 1.367 . S
C1320 C1328 1.378 . S
C1321 C1320 1.367 . S
C1321 C1329 1.433 . S
C1322 H1318 0.929 . S
C1322 C1324 1.378 . S
C1322 C1326 1.350 . S
C1323 C1326 1.463 . S
C1323 C1328 1.350 . S
C1323 N1331 1.427 . S
C1324 H1315 0.930 . S
C1324 C1322 1.378 . S
C1324 C1325 1.367 . S
C1325 C1324 1.367 . S
C1325 C1327 1.433 . S
C1326 C1322 1.350 . S
C1326 C1323 1.463 . S
C1326 N1330 1.427 . S
C1327 H1317 0.929 . S
C1327 C1325 1.433 . S
C1327 N1330 1.384 . S
C1328 H1319 0.929 . S
C1328 C1320 1.378 . S
C1328 C1323 1.350 . S
C1329 H1316 0.929 . S
C1329 C1321 1.433 . S
C1329 N1331 1.384 . S
N1330 C1326 1.427 . S
N1330 C1327 1.384 . S
N1331 C1323 1.427 . S
N1331 C1329 1.384 . S
H1332 C1338 0.930 . S
H1333 C1342 0.957 . S
H1334 C1347 0.929 . S
H1335 C1345 0.929 . S
H1336 C1340 0.929 . S
H1337 C1346 0.929 . S
C1338 H1332 0.930 . S
C1338 C1339 1.367 . S
C1338 C1346 1.378 . S
C1339 C1338 1.367 . S
C1339 C1347 1.433 . S
C1340 H1336 0.929 . S
C1340 C1342 1.378 . S
C1340 C1344 1.350 . S
C1341 C1344 1.463 . S
C1341 C1346 1.350 . S
C1341 N1349 1.427 . S
C1342 H1333 0.957 . S
C1342 C1340 1.378 . S
C1342 C1343 1.367 . S
C1343 C1342 1.367 . S
C1343 C1345 1.433 . S
C1344 C1340 1.350 . S
C1344 C1341 1.463 . S
C1344 N1348 1.427 . S
C1345 H1335 0.929 . S
C1345 C1343 1.433 . S
C1345 N1348 1.384 . S
C1346 H1337 0.929 . S
C1346 C1338 1.378 . S
C1346 C1341 1.350 . S
C1347 H1334 0.929 . S
C1347 C1339 1.433 . S
C1347 N1349 1.384 . S
N1348 C1344 1.427 . S
N1348 C1345 1.384 . S
N1349 C1341 1.427 . S
N1349 C1347 1.384 . S
H1350 C1356 0.930 . S
H1351 C1360 0.930 . S
H1352 C1365 0.929 . S
H1353 C1363 0.929 . S
H1354 C1358 0.929 . S
H1355 C1364 0.929 . S
C1356 H1350 0.930 . S
C1356 C1357 1.367 . S
C1356 C1364 1.378 . S
C1357 C1356 1.367 . S
C1357 C1365 1.433 . S
C1358 H1354 0.929 . S
C1358 C1360 1.378 . S
C1358 C1362 1.350 . S
C1359 C1362 1.463 . S
C1359 C1364 1.350 . S
C1359 N1367 1.427 . S
C1360 H1351 0.930 . S
C1360 C1358 1.378 . S
C1360 C1361 1.367 . S
C1361 C1360 1.367 . S
C1361 C1363 1.433 . S
C1362 C1358 1.350 . S
C1362 C1359 1.463 . S
C1362 N1366 1.427 . S
C1363 H1353 0.929 . S
C1363 C1361 1.433 . S
C1363 N1366 1.384 . S
C1364 H1355 0.929 . S
C1364 C1356 1.378 . S
C1364 C1359 1.350 . S
C1365 H1352 0.929 . S
C1365 C1357 1.433 . S
C1365 N1367 1.384 . S
N1366 C1362 1.427 . S
N1366 C1363 1.384 . S
N1367 C1359 1.427 . S
N1367 C1365 1.384 . S
H1368 C1374 0.930 . S
H1369 C1378 0.930 . S
H1370 C1383 0.929 . S
H1371 C1381 0.929 . S
H1372 C1376 0.929 . S
H1373 C1382 0.929 . S
C1374 H1368 0.930 . S
C1374 C1375 1.367 . S
C1374 C1382 1.378 . S
C1375 C1374 1.367 . S
C1375 C1383 1.433 . S
C1376 H1372 0.929 . S
C1376 C1378 1.378 . S
C1376 C1380 1.350 . S
C1377 C1380 1.463 . S
C1377 C1382 1.350 . S
C1377 N1385 1.427 . S
C1378 H1369 0.930 . S
C1378 C1376 1.378 . S
C1378 C1379 1.367 . S
C1379 C1378 1.367 . S
C1379 C1381 1.433 . S
C1380 C1376 1.350 . S
C1380 C1377 1.463 . S
C1380 N1384 1.427 . S
C1381 H1371 0.929 . S
C1381 C1379 1.433 . S
C1381 N1384 1.384 . S
C1382 H1373 0.929 . S
C1382 C1374 1.378 . S
C1382 C1377 1.350 . S
C1383 H1370 0.929 . S
C1383 C1375 1.433 . S
C1383 N1385 1.384 . S
N1384 C1380 1.427 . S
N1384 C1381 1.384 . S
N1385 C1377 1.427 . S
N1385 C1383 1.384 . S
H1386 C1392 0.930 . S
H1387 C1396 0.930 . S
H1388 C1401 0.929 . S
H1389 C1399 0.929 . S
H1390 C1394 0.929 . S
H1391 C1400 0.929 . S
C1392 H1386 0.930 . S
C1392 C1393 1.367 . S
C1392 C1400 1.378 . S
C1393 C1392 1.367 . S
C1393 C1401 1.433 . S
C1394 H1390 0.929 . S
C1394 C1396 1.378 . S
C1394 C1398 1.350 . S
C1395 C1398 1.463 . S
C1395 C1400 1.350 . S
C1395 N1403 1.427 . S
C1396 H1387 0.930 . S
C1396 C1394 1.378 . S
C1396 C1397 1.367 . S
C1397 C1396 1.367 . S
C1397 C1399 1.433 . S
C1398 C1394 1.350 . S
C1398 C1395 1.463 . S
C1398 N1402 1.427 . S
C1399 H1389 0.929 . S
C1399 C1397 1.433 . S
C1399 N1402 1.384 . S
C1400 H1391 0.929 . S
C1400 C1392 1.378 . S
C1400 C1395 1.350 . S
C1401 H1388 0.929 . S
C1401 C1393 1.433 . S
C1401 N1403 1.384 . S
N1402 C1398 1.427 . S
N1402 C1399 1.384 . S
N1403 C1395 1.427 . S
N1403 C1401 1.384 . S
H1404 C1410 0.930 . S
H1405 C1414 0.930 . S
H1406 C1419 0.929 . S
H1407 C1417 0.929 . S
H1408 C1412 0.929 . S
H1409 C1418 0.929 . S
C1410 H1404 0.930 . S
C1410 C1411 1.367 . S
C1410 C1418 1.378 . S
C1411 C1410 1.367 . S
C1411 C1419 1.433 . S
C1412 H1408 0.929 . S
C1412 C1414 1.378 . S
C1412 C1416 1.350 . S
C1413 C1416 1.463 . S
C1413 C1418 1.350 . S
C1413 N1421 1.427 . S
C1414 H1405 0.930 . S
C1414 C1412 1.378 . S
C1414 C1415 1.367 . S
C1415 C1414 1.367 . S
C1415 C1417 1.433 . S
C1416 C1412 1.350 . S
C1416 C1413 1.463 . S
C1416 N1420 1.427 . S
C1417 H1407 0.929 . S
C1417 C1415 1.433 . S
C1417 N1420 1.384 . S
C1418 H1409 0.929 . S
C1418 C1410 1.378 . S
C1418 C1413 1.350 . S
C1419 H1406 0.929 . S
C1419 C1411 1.433 . S
C1419 N1421 1.384 . S
N1420 C1416 1.427 . S
N1420 C1417 1.384 . S
N1421 C1413 1.427 . S
N1421 C1419 1.384 . S
H1422 C1428 0.930 . S
H1423 C1432 0.930 . S
H1424 C1437 0.929 . S
H1425 C1435 0.929 . S
H1426 C1430 0.929 . S
H1427 C1436 0.929 . S
C1428 H1422 0.930 . S
C1428 C1429 1.367 . S
C1428 C1436 1.378 . S
C1429 C1428 1.367 . S
C1429 C1437 1.433 . S
C1430 H1426 0.929 . S
C1430 C1432 1.378 . S
C1430 C1434 1.350 . S
C1431 C1434 1.463 . S
C1431 C1436 1.350 . S
C1431 N1439 1.427 . S
C1432 H1423 0.930 . S
C1432 C1430 1.378 . S
C1432 C1433 1.367 . S
C1433 C1432 1.367 . S
C1433 C1435 1.433 . S
C1434 C1430 1.350 . S
C1434 C1431 1.463 . S
C1434 N1438 1.427 . S
C1435 H1425 0.929 . S
C1435 C1433 1.433 . S
C1435 N1438 1.384 . S
C1436 H1427 0.929 . S
C1436 C1428 1.378 . S
C1436 C1431 1.350 . S
C1437 H1424 0.929 . S
C1437 C1429 1.433 . S
C1437 N1439 1.384 . S
N1438 C1434 1.427 . S
N1438 C1435 1.384 . S
N1439 C1431 1.427 . S
N1439 C1437 1.384 . S
H1440 C1446 0.930 . S
H1441 C1450 0.930 . S
H1442 C1455 0.929 . S
H1443 C1453 0.929 . S
H1444 C1448 0.929 . S
H1445 C1454 0.929 . S
C1446 H1440 0.930 . S
C1446 C1447 1.367 . S
C1446 C1454 1.378 . S
C1447 C1446 1.367 . S
C1447 C1455 1.433 . S
C1448 H1444 0.929 . S
C1448 C1450 1.378 . S
C1448 C1452 1.350 . S
C1449 C1452 1.463 . S
C1449 C1454 1.350 . S
C1449 N1457 1.427 . S
C1450 H1441 0.930 . S
C1450 C1448 1.378 . S
C1450 C1451 1.367 . S
C1451 C1450 1.367 . S
C1451 C1453 1.433 . S
C1452 C1448 1.350 . S
C1452 C1449 1.463 . S
C1452 N1456 1.427 . S
C1453 H1443 0.929 . S
C1453 C1451 1.433 . S
C1453 N1456 1.384 . S
C1454 H1445 0.929 . S
C1454 C1446 1.378 . S
C1454 C1449 1.350 . S
C1455 H1442 0.929 . S
C1455 C1447 1.433 . S
C1455 N1457 1.384 . S
N1456 C1452 1.427 . S
N1456 C1453 1.384 . S
N1457 C1449 1.427 . S
N1457 C1455 1.384 . S
H1458 C1464 0.930 . S
H1459 C1468 0.930 . S
H1460 C1473 0.929 . S
H1461 C1471 0.929 . S
H1462 C1466 0.929 . S
H1463 C1472 0.929 . S
C1464 H1458 0.930 . S
C1464 C1465 1.367 . S
C1464 C1472 1.378 . S
C1465 C1464 1.367 . S
C1465 C1473 1.433 . S
C1466 H1462 0.929 . S
C1466 C1468 1.378 . S
C1466 C1470 1.350 . S
C1467 C1470 1.463 . S
C1467 C1472 1.350 . S
C1467 N1475 1.427 . S
C1468 H1459 0.930 . S
C1468 C1466 1.378 . S
C1468 C1469 1.367 . S
C1469 C1468 1.367 . S
C1469 C1471 1.433 . S
C1470 C1466 1.350 . S
C1470 C1467 1.463 . S
C1470 N1474 1.427 . S
C1471 H1461 0.929 . S
C1471 C1469 1.433 . S
C1471 N1474 1.384 . S
C1472 H1463 0.929 . S
C1472 C1464 1.378 . S
C1472 C1467 1.350 . S
C1473 H1460 0.929 . S
C1473 C1465 1.433 . S
C1473 N1475 1.384 . S
N1474 C1470 1.427 . S
N1474 C1471 1.384 . S
N1475 C1467 1.427 . S
N1475 C1473 1.384 . S
H1476 C1482 0.930 . S
H1477 C1486 0.930 . S
H1478 C1491 0.929 . S
H1479 C1489 0.929 . S
H1480 C1484 0.929 . S
H1481 C1490 0.929 . S
C1482 H1476 0.930 . S
C1482 C1483 1.367 . S
C1482 C1490 1.378 . S
C1483 C1482 1.367 . S
C1483 C1491 1.433 . S
C1484 H1480 0.929 . S
C1484 C1486 1.378 . S
C1484 C1488 1.350 . S
C1485 C1488 1.463 . S
C1485 C1490 1.350 . S
C1485 N1493 1.427 . S
C1486 H1477 0.930 . S
C1486 C1484 1.378 . S
C1486 C1487 1.367 . S
C1487 C1486 1.367 . S
C1487 C1489 1.433 . S
C1488 C1484 1.350 . S
C1488 C1485 1.463 . S
C1488 N1492 1.427 . S
C1489 H1479 0.929 . S
C1489 C1487 1.433 . S
C1489 N1492 1.384 . S
C1490 H1481 0.929 . S
C1490 C1482 1.378 . S
C1490 C1485 1.350 . S
C1491 H1478 0.929 . S
C1491 C1483 1.433 . S
C1491 N1493 1.384 . S
N1492 C1488 1.427 . S
N1492 C1489 1.384 . S
N1493 C1485 1.427 . S
N1493 C1491 1.384 . S
H1494 C1500 0.930 . S
H1495 C1504 0.930 . S
H1496 C1509 0.929 . S
H1497 C1507 0.929 . S
H1498 C1502 0.929 . S
H1499 C1508 0.929 . S
C1500 H1494 0.930 . S
C1500 C1501 1.367 . S
C1500 C1508 1.378 . S
C1501 C1500 1.367 . S
C1501 C1509 1.433 . S
C1502 H1498 0.929 . S
C1502 C1504 1.378 . S
C1502 C1506 1.350 . S
C1503 C1506 1.463 . S
C1503 C1508 1.350 . S
C1503 N1511 1.427 . S
C1504 H1495 0.930 . S
C1504 C1502 1.378 . S
C1504 C1505 1.367 . S
C1505 C1504 1.367 . S
C1505 C1507 1.433 . S
C1506 C1502 1.350 . S
C1506 C1503 1.463 . S
C1506 N1510 1.427 . S
C1507 H1497 0.929 . S
C1507 C1505 1.433 . S
C1507 N1510 1.384 . S
C1508 H1499 0.929 . S
C1508 C1500 1.378 . S
C1508 C1503 1.350 . S
C1509 H1496 0.929 . S
C1509 C1501 1.433 . S
C1509 N1511 1.384 . S
N1510 C1506 1.427 . S
N1510 C1507 1.384 . S
N1511 C1503 1.427 . S
N1511 C1509 1.384 . S
H1512 C1518 0.930 . S
H1513 C1522 0.930 . S
H1514 C1527 0.929 . S
H1515 C1525 0.929 . S
H1516 C1520 0.929 . S
H1517 C1526 0.929 . S
C1518 H1512 0.930 . S
C1518 C1519 1.367 . S
C1518 C1526 1.378 . S
C1519 C1518 1.367 . S
C1519 C1527 1.433 . S
C1520 H1516 0.929 . S
C1520 C1522 1.378 . S
C1520 C1524 1.350 . S
C1521 C1524 1.463 . S
C1521 C1526 1.350 . S
C1521 N1529 1.427 . S
C1522 H1513 0.930 . S
C1522 C1520 1.378 . S
C1522 C1523 1.367 . S
C1523 C1522 1.367 . S
C1523 C1525 1.433 . S
C1524 C1520 1.350 . S
C1524 C1521 1.463 . S
C1524 N1528 1.427 . S
C1525 H1515 0.929 . S
C1525 C1523 1.433 . S
C1525 N1528 1.384 . S
C1526 H1517 0.929 . S
C1526 C1518 1.378 . S
C1526 C1521 1.350 . S
C1527 H1514 0.929 . S
C1527 C1519 1.433 . S
C1527 N1529 1.384 . S
N1528 C1524 1.427 . S
N1528 C1525 1.384 . S
N1529 C1521 1.427 . S
N1529 C1527 1.384 . S
H1530 C1536 0.930 . S
H1531 C1540 0.930 . S
H1532 C1545 0.929 . S
H1533 C1543 0.929 . S
H1534 C1538 0.929 . S
H1535 C1544 0.929 . S
C1536 H1530 0.930 . S
C1536 C1537 1.367 . S
C1536 C1544 1.378 . S
C1537 C1536 1.367 . S
C1537 C1545 1.433 . S
C1538 H1534 0.929 . S
C1538 C1540 1.378 . S
C1538 C1542 1.350 . S
C1539 C1542 1.463 . S
C1539 C1544 1.350 . S
C1539 N1547 1.427 . S
C1540 H1531 0.930 . S
C1540 C1538 1.378 . S
C1540 C1541 1.367 . S
C1541 C1540 1.367 . S
C1541 C1543 1.433 . S
C1542 C1538 1.350 . S
C1542 C1539 1.463 . S
C1542 N1546 1.427 . S
C1543 H1533 0.929 . S
C1543 C1541 1.433 . S
C1543 N1546 1.384 . S
C1544 H1535 0.929 . S
C1544 C1536 1.378 . S
C1544 C1539 1.350 . S
C1545 H1532 0.929 . S
C1545 C1537 1.433 . S
C1545 N1547 1.384 . S
N1546 C1542 1.427 . S
N1546 C1543 1.384 . S
N1547 C1539 1.427 . S
N1547 C1545 1.384 . S
H1548 C1554 0.930 . S
H1549 C1558 0.930 . S
H1550 C1563 0.929 . S
H1551 C1561 0.929 . S
H1552 C1556 0.929 . S
H1553 C1562 0.929 . S
C1554 H1548 0.930 . S
C1554 C1555 1.367 . S
C1554 C1562 1.378 . S
C1555 C1554 1.367 . S
C1555 C1563 1.433 . S
C1556 H1552 0.929 . S
C1556 C1558 1.378 . S
C1556 C1560 1.350 . S
C1557 C1560 1.463 . S
C1557 C1562 1.350 . S
C1557 N1565 1.427 . S
C1558 H1549 0.930 . S
C1558 C1556 1.378 . S
C1558 C1559 1.367 . S
C1559 C1558 1.367 . S
C1559 C1561 1.433 . S
C1560 C1556 1.350 . S
C1560 C1557 1.463 . S
C1560 N1564 1.427 . S
C1561 H1551 0.929 . S
C1561 C1559 1.433 . S
C1561 N1564 1.384 . S
C1562 H1553 0.929 . S
C1562 C1554 1.378 . S
C1562 C1557 1.350 . S
C1563 H1550 0.929 . S
C1563 C1555 1.433 . S
C1563 N1565 1.384 . S
N1564 C1560 1.427 . S
N1564 C1561 1.384 . S
N1565 C1557 1.427 . S
N1565 C1563 1.384 . S
H1566 C1572 0.930 . S
H1567 C1576 0.930 . S
H1568 C1581 0.929 . S
H1569 C1579 0.929 . S
H1570 C1574 0.929 . S
H1571 C1580 0.929 . S
C1572 H1566 0.930 . S
C1572 C1573 1.367 . S
C1572 C1580 1.378 . S
C1573 C1572 1.367 . S
C1573 C1581 1.433 . S
C1574 H1570 0.929 . S
C1574 C1576 1.378 . S
C1574 C1578 1.350 . S
C1575 C1578 1.463 . S
C1575 C1580 1.350 . S
C1575 N1583 1.427 . S
C1576 H1567 0.930 . S
C1576 C1574 1.378 . S
C1576 C1577 1.367 . S
C1577 C1576 1.367 . S
C1577 C1579 1.433 . S
C1578 C1574 1.350 . S
C1578 C1575 1.463 . S
C1578 N1582 1.427 . S
C1579 H1569 0.929 . S
C1579 C1577 1.433 . S
C1579 N1582 1.384 . S
C1580 H1571 0.929 . S
C1580 C1572 1.378 . S
C1580 C1575 1.350 . S
C1581 H1568 0.929 . S
C1581 C1573 1.433 . S
C1581 N1583 1.384 . S
N1582 C1578 1.427 . S
N1582 C1579 1.384 . S
N1583 C1575 1.427 . S
N1583 C1581 1.384 . S
H1584 C1590 0.930 . S
H1585 C1594 0.930 . S
H1586 C1599 0.929 . S
H1587 C1597 0.929 . S
H1588 C1592 0.929 . S
H1589 C1598 0.929 . S
C1590 H1584 0.930 . S
C1590 C1591 1.367 . S
C1590 C1598 1.378 . S
C1591 C1590 1.367 . S
C1591 C1599 1.433 . S
C1592 H1588 0.929 . S
C1592 C1594 1.378 . S
C1592 C1596 1.350 . S
C1593 C1596 1.463 . S
C1593 C1598 1.350 . S
C1593 N1601 1.427 . S
C1594 H1585 0.930 . S
C1594 C1592 1.378 . S
C1594 C1595 1.367 . S
C1595 C1594 1.367 . S
C1595 C1597 1.433 . S
C1596 C1592 1.350 . S
C1596 C1593 1.463 . S
C1596 N1600 1.427 . S
C1597 H1587 0.929 . S
C1597 C1595 1.433 . S
C1597 N1600 1.384 . S
C1598 H1589 0.929 . S
C1598 C1590 1.378 . S
C1598 C1593 1.350 . S
C1599 H1586 0.929 . S
C1599 C1591 1.433 . S
C1599 N1601 1.384 . S
N1600 C1596 1.427 . S
N1600 C1597 1.384 . S
N1601 C1593 1.427 . S
N1601 C1599 1.384 . S
H1602 C1608 0.930 . S
H1603 C1612 0.930 . S
H1604 C1617 0.929 . S
H1605 C1615 0.929 . S
H1606 C1610 0.929 . S
H1607 C1616 0.929 . S
C1608 H1602 0.930 . S
C1608 C1609 1.367 . S
C1608 C1616 1.378 . S
C1609 C1608 1.367 . S
C1609 C1617 1.433 . S
C1610 H1606 0.929 . S
C1610 C1612 1.378 . S
C1610 C1614 1.350 . S
C1611 C1614 1.463 . S
C1611 C1616 1.350 . S
C1611 N1619 1.427 . S
C1612 H1603 0.930 . S
C1612 C1610 1.378 . S
C1612 C1613 1.367 . S
C1613 C1612 1.367 . S
C1613 C1615 1.433 . S
C1614 C1610 1.350 . S
C1614 C1611 1.463 . S
C1614 N1618 1.427 . S
C1615 H1605 0.929 . S
C1615 C1613 1.433 . S
C1615 N1618 1.384 . S
C1616 H1607 0.929 . S
C1616 C1608 1.378 . S
C1616 C1611 1.350 . S
C1617 H1604 0.929 . S
C1617 C1609 1.433 . S
C1617 N1619 1.384 . S
N1618 C1614 1.427 . S
N1618 C1615 1.384 . S
N1619 C1611 1.427 . S
N1619 C1617 1.384 . S
H1620 C1626 0.930 . S
H1621 C1630 0.930 . S
H1622 C1635 0.929 . S
H1623 C1633 0.929 . S
H1624 C1628 0.929 . S
H1625 C1634 0.929 . S
C1626 H1620 0.930 . S
C1626 C1627 1.367 . S
C1626 C1634 1.378 . S
C1627 C1626 1.367 . S
C1627 C1635 1.433 . S
C1628 H1624 0.929 . S
C1628 C1630 1.378 . S
C1628 C1632 1.350 . S
C1629 C1632 1.463 . S
C1629 C1634 1.350 . S
C1629 N1637 1.427 . S
C1630 H1621 0.930 . S
C1630 C1628 1.378 . S
C1630 C1631 1.367 . S
C1631 C1630 1.367 . S
C1631 C1633 1.433 . S
C1632 C1628 1.350 . S
C1632 C1629 1.463 . S
C1632 N1636 1.427 . S
C1633 H1623 0.929 . S
C1633 C1631 1.433 . S
C1633 N1636 1.384 . S
C1634 H1625 0.929 . S
C1634 C1626 1.378 . S
C1634 C1629 1.350 . S
C1635 H1622 0.929 . S
C1635 C1627 1.433 . S
C1635 N1637 1.384 . S
N1636 C1632 1.427 . S
N1636 C1633 1.384 . S
N1637 C1629 1.427 . S
N1637 C1635 1.384 . S
H1638 C1644 0.930 . S
H1639 C1648 0.930 . S
H1640 C1653 0.929 . S
H1641 C1651 0.929 . S
H1642 C1646 0.929 . S
H1643 C1652 0.929 . S
C1644 H1638 0.930 . S
C1644 C1645 1.367 . S
C1644 C1652 1.378 . S
C1645 C1644 1.367 . S
C1645 C1653 1.433 . S
C1646 H1642 0.929 . S
C1646 C1648 1.378 . S
C1646 C1650 1.350 . S
C1647 C1650 1.463 . S
C1647 C1652 1.350 . S
C1647 N1655 1.427 . S
C1648 H1639 0.930 . S
C1648 C1646 1.378 . S
C1648 C1649 1.367 . S
C1649 C1648 1.367 . S
C1649 C1651 1.433 . S
C1650 C1646 1.350 . S
C1650 C1647 1.463 . S
C1650 N1654 1.427 . S
C1651 H1641 0.929 . S
C1651 C1649 1.433 . S
C1651 N1654 1.384 . S
C1652 H1643 0.929 . S
C1652 C1644 1.378 . S
C1652 C1647 1.350 . S
C1653 H1640 0.929 . S
C1653 C1645 1.433 . S
C1653 N1655 1.384 . S
N1654 C1650 1.427 . S
N1654 C1651 1.384 . S
N1655 C1647 1.427 . S
N1655 C1653 1.384 . S
H1656 C1662 0.930 . S
H1657 C1666 0.930 . S
H1658 C1671 0.929 . S
H1659 C1669 0.929 . S
H1660 C1664 0.929 . S
H1661 C1670 0.929 . S
C1662 H1656 0.930 . S
C1662 C1663 1.367 . S
C1662 C1670 1.378 . S
C1663 C1662 1.367 . S
C1663 C1671 1.433 . S
C1664 H1660 0.929 . S
C1664 C1666 1.378 . S
C1664 C1668 1.350 . S
C1665 C1668 1.463 . S
C1665 C1670 1.350 . S
C1665 N1673 1.427 . S
C1666 H1657 0.930 . S
C1666 C1664 1.378 . S
C1666 C1667 1.367 . S
C1667 C1666 1.367 . S
C1667 C1669 1.433 . S
C1668 C1664 1.350 . S
C1668 C1665 1.463 . S
C1668 N1672 1.427 . S
C1669 H1659 0.929 . S
C1669 C1667 1.433 . S
C1669 N1672 1.384 . S
C1670 H1661 0.929 . S
C1670 C1662 1.378 . S
C1670 C1665 1.350 . S
C1671 H1658 0.929 . S
C1671 C1663 1.433 . S
C1671 N1673 1.384 . S
N1672 C1668 1.427 . S
N1672 C1669 1.384 . S
N1673 C1665 1.427 . S
N1673 C1671 1.384 . S
H1674 C1680 0.930 . S
H1675 C1684 0.930 . S
H1676 C1689 0.929 . S
H1677 C1687 0.929 . S
H1678 C1682 0.929 . S
H1679 C1688 0.929 . S
C1680 H1674 0.930 . S
C1680 C1681 1.367 . S
C1680 C1688 1.378 . S
C1681 C1680 1.367 . S
C1681 C1689 1.433 . S
C1682 H1678 0.929 . S
C1682 C1684 1.378 . S
C1682 C1686 1.350 . S
C1683 C1686 1.463 . S
C1683 C1688 1.350 . S
C1683 N1691 1.427 . S
C1684 H1675 0.930 . S
C1684 C1682 1.378 . S
C1684 C1685 1.367 . S
C1685 C1684 1.367 . S
C1685 C1687 1.433 . S
C1686 C1682 1.350 . S
C1686 C1683 1.463 . S
C1686 N1690 1.427 . S
C1687 H1677 0.929 . S
C1687 C1685 1.433 . S
C1687 N1690 1.384 . S
C1688 H1679 0.929 . S
C1688 C1680 1.378 . S
C1688 C1683 1.350 . S
C1689 H1676 0.929 . S
C1689 C1681 1.433 . S
C1689 N1691 1.384 . S
N1690 C1686 1.427 . S
N1690 C1687 1.384 . S
N1691 C1683 1.427 . S
N1691 C1689 1.384 . S
H1692 C1698 0.930 . S
H1693 C1702 0.930 . S
H1694 C1707 0.929 . S
H1695 C1705 0.929 . S
H1696 C1700 0.929 . S
H1697 C1706 0.929 . S
C1698 H1692 0.930 . S
C1698 C1699 1.367 . S
C1698 C1706 1.378 . S
C1699 C1698 1.367 . S
C1699 C1707 1.433 . S
C1700 H1696 0.929 . S
C1700 C1702 1.378 . S
C1700 C1704 1.350 . S
C1701 C1704 1.463 . S
C1701 C1706 1.350 . S
C1701 N1709 1.427 . S
C1702 H1693 0.930 . S
C1702 C1700 1.378 . S
C1702 C1703 1.367 . S
C1703 C1702 1.367 . S
C1703 C1705 1.433 . S
C1704 C1700 1.350 . S
C1704 C1701 1.463 . S
C1704 N1708 1.427 . S
C1705 H1695 0.929 . S
C1705 C1703 1.433 . S
C1705 N1708 1.384 . S
C1706 H1697 0.929 . S
C1706 C1698 1.378 . S
C1706 C1701 1.350 . S
C1707 H1694 0.929 . S
C1707 C1699 1.433 . S
C1707 N1709 1.384 . S
N1708 C1704 1.427 . S
N1708 C1705 1.384 . S
N1709 C1701 1.427 . S
N1709 C1707 1.384 . S
H1710 C1716 0.930 . S
H1711 C1720 0.930 . S
H1712 C1725 0.929 . S
H1713 C1723 0.929 . S
H1714 C1718 0.929 . S
H1715 C1724 0.929 . S
C1716 H1710 0.930 . S
C1716 C1717 1.367 . S
C1716 C1724 1.378 . S
C1717 C1716 1.367 . S
C1717 C1725 1.433 . S
C1718 H1714 0.929 . S
C1718 C1720 1.378 . S
C1718 C1722 1.350 . S
C1719 C1722 1.463 . S
C1719 C1724 1.350 . S
C1719 N1727 1.427 . S
C1720 H1711 0.930 . S
C1720 C1718 1.378 . S
C1720 C1721 1.367 . S
C1721 C1720 1.367 . S
C1721 C1723 1.433 . S
C1722 C1718 1.350 . S
C1722 C1719 1.463 . S
C1722 N1726 1.427 . S
C1723 H1713 0.929 . S
C1723 C1721 1.433 . S
C1723 N1726 1.384 . S
C1724 H1715 0.929 . S
C1724 C1716 1.378 . S
C1724 C1719 1.350 . S
C1725 H1712 0.929 . S
C1725 C1717 1.433 . S
C1725 N1727 1.384 . S
N1726 C1722 1.427 . S
N1726 C1723 1.384 . S
N1727 C1719 1.427 . S
N1727 C1725 1.384 . S
H1728 C1734 0.930 . S
H1729 C1738 0.930 . S
H1730 C1743 0.929 . S
H1731 C1741 0.929 . S
H1732 C1736 0.929 . S
H1733 C1742 0.929 . S
C1734 H1728 0.930 . S
C1734 C1735 1.367 . S
C1734 C1742 1.378 . S
C1735 C1734 1.367 . S
C1735 C1743 1.433 . S
C1736 H1732 0.929 . S
C1736 C1738 1.378 . S
C1736 C1740 1.350 . S
C1737 C1740 1.463 . S
C1737 C1742 1.350 . S
C1737 N1745 1.427 . S
C1738 H1729 0.930 . S
C1738 C1736 1.378 . S
C1738 C1739 1.367 . S
C1739 C1738 1.367 . S
C1739 C1741 1.433 . S
C1740 C1736 1.350 . S
C1740 C1737 1.463 . S
C1740 N1744 1.427 . S
C1741 H1731 0.929 . S
C1741 C1739 1.433 . S
C1741 N1744 1.384 . S
C1742 H1733 0.929 . S
C1742 C1734 1.378 . S
C1742 C1737 1.350 . S
C1743 H1730 0.929 . S
C1743 C1735 1.433 . S
C1743 N1745 1.384 . S
N1744 C1740 1.427 . S
N1744 C1741 1.384 . S
N1745 C1737 1.427 . S
N1745 C1743 1.384 . S
H1746 C1752 0.930 . S
H1747 C1756 0.930 . S
H1748 C1761 0.929 . S
H1749 C1759 0.929 . S
H1750 C1754 0.929 . S
H1751 C1760 0.929 . S
C1752 H1746 0.930 . S
C1752 C1753 1.367 . S
C1752 C1760 1.378 . S
C1753 C1752 1.367 . S
C1753 C1761 1.433 . S
C1754 H1750 0.929 . S
C1754 C1756 1.378 . S
C1754 C1758 1.350 . S
C1755 C1758 1.463 . S
C1755 C1760 1.350 . S
C1755 N1763 1.427 . S
C1756 H1747 0.930 . S
C1756 C1754 1.378 . S
C1756 C1757 1.367 . S
C1757 C1756 1.367 . S
C1757 C1759 1.433 . S
C1758 C1754 1.350 . S
C1758 C1755 1.463 . S
C1758 N1762 1.427 . S
C1759 H1749 0.929 . S
C1759 C1757 1.433 . S
C1759 N1762 1.384 . S
C1760 H1751 0.929 . S
C1760 C1752 1.378 . S
C1760 C1755 1.350 . S
C1761 H1748 0.929 . S
C1761 C1753 1.433 . S
C1761 N1763 1.384 . S
N1762 C1758 1.427 . S
N1762 C1759 1.384 . S
N1763 C1755 1.427 . S
N1763 C1761 1.384 . S
H1764 C1770 0.930 . S
H1765 C1774 0.930 . S
H1766 C1779 0.929 . S
H1767 C1777 0.929 . S
H1768 C1772 0.929 . S
H1769 C1778 0.929 . S
C1770 H1764 0.930 . S
C1770 C1771 1.367 . S
C1770 C1778 1.378 . S
C1771 C1770 1.367 . S
C1771 C1779 1.433 . S
C1772 H1768 0.929 . S
C1772 C1774 1.378 . S
C1772 C1776 1.350 . S
C1773 C1776 1.463 . S
C1773 C1778 1.350 . S
C1773 N1781 1.427 . S
C1774 H1765 0.930 . S
C1774 C1772 1.378 . S
C1774 C1775 1.367 . S
C1775 C1774 1.367 . S
C1775 C1777 1.433 . S
C1776 C1772 1.350 . S
C1776 C1773 1.463 . S
C1776 N1780 1.427 . S
C1777 H1767 0.929 . S
C1777 C1775 1.433 . S
C1777 N1780 1.384 . S
C1778 H1769 0.929 . S
C1778 C1770 1.378 . S
C1778 C1773 1.350 . S
C1779 H1766 0.929 . S
C1779 C1771 1.433 . S
C1779 N1781 1.384 . S
N1780 C1776 1.427 . S
N1780 C1777 1.384 . S
N1781 C1773 1.427 . S
N1781 C1779 1.384 . S
C493 C29 1.348 . S
C497 C238 1.159 . S
C511 C4 1.320 . S
C515 C254 1.150 . S
C533 C237 1.159 . S
C529 C16 1.360 . S
C551 C262 1.151 . S
C547 C30 1.339 . S
C565 C3 1.359 . S
C569 C271 1.169 . S
C587 C274 1.124 . S
C583 C17 1.321 . S
C601 C70 1.348 . S
C605 C280 1.134 . S
C623 C296 1.151 . S
C619 C49 1.321 . S
C641 C279 1.172 . S
C637 C57 1.356 . S
C655 C75 1.342 . S
C659 C304 1.129 . S
C677 C313 1.167 . S
C673 C44 1.355 . S
C695 C316 1.125 . S
C691 C62 1.320 . S
C713 C325 1.145 . S
C709 C107 1.345 . S
C731 C337 1.150 . S
C727 C88 1.322 . S
C749 C334 1.184 . S
C745 C96 1.359 . S
C763 C108 1.341 . S
C767 C343 1.162 . S
C785 C342 1.183 . S
C781 C83 1.357 . S
C799 C101 1.324 . S
C803 C359 1.131 . S
C821 C364 1.144 . S
C817 C146 1.349 . S
C839 C380 1.146 . S
C835 C121 1.324 . S
C853 C135 1.359 . S
C857 C363 1.160 . S
C875 C388 1.132 . S
C871 C147 1.344 . S
C893 C397 1.174 . S
C889 C120 1.359 . S
C907 C140 1.320 . S
C911 C400 1.149 . S
C925 C187 1.348 . S
C929 C409 1.134 . S
C947 C421 1.124 . S
C943 C160 1.324 . S
C965 C418 1.177 . S
C961 C172 1.356 . S
C979 C192 1.344 . S
C983 C427 1.142 . S
C1001 C426 1.177 . S
C997 C159 1.354 . S
C1015 C173 1.324 . S
C1019 C443 1.134 . S
C1037 C448 1.166 . S
C1033 C226 1.346 . S
C1055 C464 1.121 . S
C1051 C205 1.322 . S
C1069 C213 1.356 . S
C1073 C447 1.181 . S
C1091 C469 1.161 . S
C1087 C231 1.340 . S
C1109 C468 1.183 . S
C1105 C200 1.354 . S
C1127 C485 1.119 . S
C1123 C218 1.323 . S
C1145 C250 1.511 . S
C1141 C148 1.619 . S
C1159 C127 1.592 . S
C1163 C253 1.470 1_655 S
C1181 C241 1.459 . S
C1177 C133 1.587 . S
C1195 C225 1.609 . S
C1199 C258 1.488 . S
C1213 C198 1.586 . S
C1217 C259 1.470 . S
C1235 C275 1.484 1_565 S
C1231 C212 1.590 . S
C1253 C292 1.491 1_565 S
C1249 C185 1.616 . S
C1271 C295 1.489 . S
C1267 C166 1.595 . S
C1285 C174 1.591 . S
C1289 C283 1.463 . S
C1307 C300 1.488 1_655 S
C1303 C114 1.610 . S
C1321 C81 1.585 . S
C1325 C301 1.467 . S
C1339 C95 1.588 . S
C1343 C317 1.467 . S
C1357 C224 1.616 1_655 S
C1361 C321 1.491 . S
C1375 C199 1.591 . S
C1379 C338 1.477 . S
C1397 C322 1.475 . S
C1393 C211 1.591 . S
C1415 C355 1.488 . S
C1411 C69 1.609 . S
C1433 C346 1.456 . S
C1429 C42 1.586 . S
C1447 C56 1.591 . S
C1451 C358 1.473 . S
C1469 C376 1.492 . S
C1465 C31 1.616 . S
C1487 C379 1.479 . S
C1483 C10 1.595 . S
C1501 C18 1.590 . S
C1505 C367 1.461 . S
C1523 C384 1.501 . S
C1519 C186 1.610 . S
C1541 C385 1.462 . S
C1537 C161 1.587 1_655 S
C1559 C401 1.480 . S
C1555 C179 1.592 . S
C1577 C405 1.497 . S
C1573 C68 1.619 . S
C1595 C422 1.471 . S
C1591 C43 1.593 . S
C1609 C55 1.588 . S
C1613 C406 1.455 . S
C1627 C153 1.613 1_565 S
C1631 C439 1.507 . S
C1645 C122 1.584 . S
C1649 C430 1.449 . S
C1667 C442 1.472 . S
C1663 C134 1.588 . S
C1681 C109 1.616 . S
C1685 C460 1.505 . S
C1699 C82 1.595 . S
C1703 C463 1.476 . S
C1721 C451 1.471 . S
C1717 C94 1.589 1_565 S
C1739 C481 1.505 . S
C1735 C36 1.614 . S
C1757 C472 1.458 . S
C1753 C5 1.583 . S
C1771 C23 1.589 . S
C1775 C484 1.466 . S
