# Generated by pormake.
# Topology gar, (4,6)-cn, num edge types: 1
# Building blocks:
#     Node 0, Type 0, BuildingBlock: UXUYUI_clean_sbu_0, # of connection points: 4
#     Node 1, Type 0, BuildingBlock: UXUYUI_clean_sbu_0, # of connection points: 4
#     Node 2, Type 0, BuildingBlock: UXUYUI_clean_sbu_0, # of connection points: 4
#     Node 3, Type 0, BuildingBlock: UXUYUI_clean_sbu_0, # of connection points: 4
#     Node 4, Type 0, BuildingBlock: UXUYUI_clean_sbu_0, # of connection points: 4
#     Node 5, Type 0, BuildingBlock: UXUYUI_clean_sbu_0, # of connection points: 4
#     Node 6, Type 0, BuildingBlock: UXUYUI_clean_sbu_0, # of connection points: 4
#     Node 7, Type 0, BuildingBlock: UXUYUI_clean_sbu_0, # of connection points: 4
#     Node 8, Type 0, BuildingBlock: UXUYUI_clean_sbu_0, # of connection points: 4
#     Node 9, Type 0, BuildingBlock: UXUYUI_clean_sbu_0, # of connection points: 4
#     Node 10, Type 0, BuildingBlock: UXUYUI_clean_sbu_0, # of connection points: 4
#     Node 11, Type 0, BuildingBlock: UXUYUI_clean_sbu_0, # of connection points: 4
#     Node 12, Type 0, BuildingBlock: UXUYUI_clean_sbu_0, # of connection points: 4
#     Node 13, Type 0, BuildingBlock: UXUYUI_clean_sbu_0, # of connection points: 4
#     Node 14, Type 0, BuildingBlock: UXUYUI_clean_sbu_0, # of connection points: 4
#     Node 15, Type 0, BuildingBlock: UXUYUI_clean_sbu_0, # of connection points: 4
#     Node 16, Type 0, BuildingBlock: UXUYUI_clean_sbu_0, # of connection points: 4
#     Node 17, Type 0, BuildingBlock: UXUYUI_clean_sbu_0, # of connection points: 4
#     Node 18, Type 0, BuildingBlock: UXUYUI_clean_sbu_0, # of connection points: 4
#     Node 19, Type 0, BuildingBlock: UXUYUI_clean_sbu_0, # of connection points: 4
#     Node 20, Type 0, BuildingBlock: UXUYUI_clean_sbu_0, # of connection points: 4
#     Node 21, Type 0, BuildingBlock: UXUYUI_clean_sbu_0, # of connection points: 4
#     Node 22, Type 0, BuildingBlock: UXUYUI_clean_sbu_0, # of connection points: 4
#     Node 23, Type 0, BuildingBlock: UXUYUI_clean_sbu_0, # of connection points: 4
#     Node 24, Type 1, BuildingBlock: PAMTUU_clean_sbu_0, # of connection points: 6
#     Node 25, Type 1, BuildingBlock: PAMTUU_clean_sbu_0, # of connection points: 6
#     Node 26, Type 1, BuildingBlock: PAMTUU_clean_sbu_0, # of connection points: 6
#     Node 27, Type 1, BuildingBlock: PAMTUU_clean_sbu_0, # of connection points: 6
#     Node 28, Type 1, BuildingBlock: PAMTUU_clean_sbu_0, # of connection points: 6
#     Node 29, Type 1, BuildingBlock: PAMTUU_clean_sbu_0, # of connection points: 6
#     Node 30, Type 1, BuildingBlock: PAMTUU_clean_sbu_0, # of connection points: 6
#     Node 31, Type 1, BuildingBlock: PAMTUU_clean_sbu_0, # of connection points: 6
#     Node 32, Type 1, BuildingBlock: PAMTUU_clean_sbu_0, # of connection points: 6
#     Node 33, Type 1, BuildingBlock: PAMTUU_clean_sbu_0, # of connection points: 6
#     Node 34, Type 1, BuildingBlock: PAMTUU_clean_sbu_0, # of connection points: 6
#     Node 35, Type 1, BuildingBlock: PAMTUU_clean_sbu_0, # of connection points: 6
#     Node 36, Type 1, BuildingBlock: PAMTUU_clean_sbu_0, # of connection points: 6
#     Node 37, Type 1, BuildingBlock: PAMTUU_clean_sbu_0, # of connection points: 6
#     Node 38, Type 1, BuildingBlock: PAMTUU_clean_sbu_0, # of connection points: 6
#     Node 39, Type 1, BuildingBlock: PAMTUU_clean_sbu_0, # of connection points: 6
#     Edge 40, Type (0, 1), BuildingBlock: TEMPAE_clean_linker_10, # of connection points: 2
#     Edge 41, Type (0, 1), BuildingBlock: TEMPAE_clean_linker_10, # of connection points: 2
#     Edge 42, Type (0, 1), BuildingBlock: TEMPAE_clean_linker_10, # of connection points: 2
#     Edge 43, Type (0, 1), BuildingBlock: TEMPAE_clean_linker_10, # of connection points: 2
#     Edge 44, Type (0, 1), BuildingBlock: TEMPAE_clean_linker_10, # of connection points: 2
#     Edge 45, Type (0, 1), BuildingBlock: TEMPAE_clean_linker_10, # of connection points: 2
#     Edge 46, Type (0, 1), BuildingBlock: TEMPAE_clean_linker_10, # of connection points: 2
#     Edge 47, Type (0, 1), BuildingBlock: TEMPAE_clean_linker_10, # of connection points: 2
#     Edge 48, Type (0, 1), BuildingBlock: TEMPAE_clean_linker_10, # of connection points: 2
#     Edge 49, Type (0, 1), BuildingBlock: TEMPAE_clean_linker_10, # of connection points: 2
#     Edge 50, Type (0, 1), BuildingBlock: TEMPAE_clean_linker_10, # of connection points: 2
#     Edge 51, Type (0, 1), BuildingBlock: TEMPAE_clean_linker_10, # of connection points: 2
#     Edge 52, Type (0, 1), BuildingBlock: TEMPAE_clean_linker_10, # of connection points: 2
#     Edge 53, Type (0, 1), BuildingBlock: TEMPAE_clean_linker_10, # of connection points: 2
#     Edge 54, Type (0, 1), BuildingBlock: TEMPAE_clean_linker_10, # of connection points: 2
#     Edge 55, Type (0, 1), BuildingBlock: TEMPAE_clean_linker_10, # of connection points: 2
#     Edge 56, Type (0, 1), BuildingBlock: TEMPAE_clean_linker_10, # of connection points: 2
#     Edge 57, Type (0, 1), BuildingBlock: TEMPAE_clean_linker_10, # of connection points: 2
#     Edge 58, Type (0, 1), BuildingBlock: TEMPAE_clean_linker_10, # of connection points: 2
#     Edge 59, Type (0, 1), BuildingBlock: TEMPAE_clean_linker_10, # of connection points: 2
#     Edge 60, Type (0, 1), BuildingBlock: TEMPAE_clean_linker_10, # of connection points: 2
#     Edge 61, Type (0, 1), BuildingBlock: TEMPAE_clean_linker_10, # of connection points: 2
#     Edge 62, Type (0, 1), BuildingBlock: TEMPAE_clean_linker_10, # of connection points: 2
#     Edge 63, Type (0, 1), BuildingBlock: TEMPAE_clean_linker_10, # of connection points: 2
#     Edge 64, Type (0, 1), BuildingBlock: TEMPAE_clean_linker_10, # of connection points: 2
#     Edge 65, Type (0, 1), BuildingBlock: TEMPAE_clean_linker_10, # of connection points: 2
#     Edge 66, Type (0, 1), BuildingBlock: TEMPAE_clean_linker_10, # of connection points: 2
#     Edge 67, Type (0, 1), BuildingBlock: TEMPAE_clean_linker_10, # of connection points: 2
#     Edge 68, Type (0, 1), BuildingBlock: TEMPAE_clean_linker_10, # of connection points: 2
#     Edge 69, Type (0, 1), BuildingBlock: TEMPAE_clean_linker_10, # of connection points: 2
#     Edge 70, Type (0, 1), BuildingBlock: TEMPAE_clean_linker_10, # of connection points: 2
#     Edge 71, Type (0, 1), BuildingBlock: TEMPAE_clean_linker_10, # of connection points: 2
#     Edge 72, Type (0, 1), BuildingBlock: TEMPAE_clean_linker_10, # of connection points: 2
#     Edge 73, Type (0, 1), BuildingBlock: TEMPAE_clean_linker_10, # of connection points: 2
#     Edge 74, Type (0, 1), BuildingBlock: TEMPAE_clean_linker_10, # of connection points: 2
#     Edge 75, Type (0, 1), BuildingBlock: TEMPAE_clean_linker_10, # of connection points: 2
#     Edge 76, Type (0, 1), BuildingBlock: TEMPAE_clean_linker_10, # of connection points: 2
#     Edge 77, Type (0, 1), BuildingBlock: TEMPAE_clean_linker_10, # of connection points: 2
#     Edge 78, Type (0, 1), BuildingBlock: TEMPAE_clean_linker_10, # of connection points: 2
#     Edge 79, Type (0, 1), BuildingBlock: TEMPAE_clean_linker_10, # of connection points: 2
#     Edge 80, Type (0, 1), BuildingBlock: TEMPAE_clean_linker_10, # of connection points: 2
#     Edge 81, Type (0, 1), BuildingBlock: TEMPAE_clean_linker_10, # of connection points: 2
#     Edge 82, Type (0, 1), BuildingBlock: TEMPAE_clean_linker_10, # of connection points: 2
#     Edge 83, Type (0, 1), BuildingBlock: TEMPAE_clean_linker_10, # of connection points: 2
#     Edge 84, Type (0, 1), BuildingBlock: TEMPAE_clean_linker_10, # of connection points: 2
#     Edge 85, Type (0, 1), BuildingBlock: TEMPAE_clean_linker_10, # of connection points: 2
#     Edge 86, Type (0, 1), BuildingBlock: TEMPAE_clean_linker_10, # of connection points: 2
#     Edge 87, Type (0, 1), BuildingBlock: TEMPAE_clean_linker_10, # of connection points: 2
#     Edge 88, Type (0, 1), BuildingBlock: TEMPAE_clean_linker_10, # of connection points: 2
#     Edge 89, Type (0, 1), BuildingBlock: TEMPAE_clean_linker_10, # of connection points: 2
#     Edge 90, Type (0, 1), BuildingBlock: TEMPAE_clean_linker_10, # of connection points: 2
#     Edge 91, Type (0, 1), BuildingBlock: TEMPAE_clean_linker_10, # of connection points: 2
#     Edge 92, Type (0, 1), BuildingBlock: TEMPAE_clean_linker_10, # of connection points: 2
#     Edge 93, Type (0, 1), BuildingBlock: TEMPAE_clean_linker_10, # of connection points: 2
#     Edge 94, Type (0, 1), BuildingBlock: TEMPAE_clean_linker_10, # of connection points: 2
#     Edge 95, Type (0, 1), BuildingBlock: TEMPAE_clean_linker_10, # of connection points: 2
#     Edge 96, Type (0, 1), BuildingBlock: TEMPAE_clean_linker_10, # of connection points: 2
#     Edge 97, Type (0, 1), BuildingBlock: TEMPAE_clean_linker_10, # of connection points: 2
#     Edge 98, Type (0, 1), BuildingBlock: TEMPAE_clean_linker_10, # of connection points: 2
#     Edge 99, Type (0, 1), BuildingBlock: TEMPAE_clean_linker_10, # of connection points: 2
#     Edge 100, Type (0, 1), BuildingBlock: TEMPAE_clean_linker_10, # of connection points: 2
#     Edge 101, Type (0, 1), BuildingBlock: TEMPAE_clean_linker_10, # of connection points: 2
#     Edge 102, Type (0, 1), BuildingBlock: TEMPAE_clean_linker_10, # of connection points: 2
#     Edge 103, Type (0, 1), BuildingBlock: TEMPAE_clean_linker_10, # of connection points: 2
#     Edge 104, Type (0, 1), BuildingBlock: TEMPAE_clean_linker_10, # of connection points: 2
#     Edge 105, Type (0, 1), BuildingBlock: TEMPAE_clean_linker_10, # of connection points: 2
#     Edge 106, Type (0, 1), BuildingBlock: TEMPAE_clean_linker_10, # of connection points: 2
#     Edge 107, Type (0, 1), BuildingBlock: TEMPAE_clean_linker_10, # of connection points: 2
#     Edge 108, Type (0, 1), BuildingBlock: TEMPAE_clean_linker_10, # of connection points: 2
#     Edge 109, Type (0, 1), BuildingBlock: TEMPAE_clean_linker_10, # of connection points: 2
#     Edge 110, Type (0, 1), BuildingBlock: TEMPAE_clean_linker_10, # of connection points: 2
#     Edge 111, Type (0, 1), BuildingBlock: TEMPAE_clean_linker_10, # of connection points: 2
#     Edge 112, Type (0, 1), BuildingBlock: TEMPAE_clean_linker_10, # of connection points: 2
#     Edge 113, Type (0, 1), BuildingBlock: TEMPAE_clean_linker_10, # of connection points: 2
#     Edge 114, Type (0, 1), BuildingBlock: TEMPAE_clean_linker_10, # of connection points: 2
#     Edge 115, Type (0, 1), BuildingBlock: TEMPAE_clean_linker_10, # of connection points: 2
#     Edge 116, Type (0, 1), BuildingBlock: TEMPAE_clean_linker_10, # of connection points: 2
#     Edge 117, Type (0, 1), BuildingBlock: TEMPAE_clean_linker_10, # of connection points: 2
#     Edge 118, Type (0, 1), BuildingBlock: TEMPAE_clean_linker_10, # of connection points: 2
#     Edge 119, Type (0, 1), BuildingBlock: TEMPAE_clean_linker_10, # of connection points: 2
#     Edge 120, Type (0, 1), BuildingBlock: TEMPAE_clean_linker_10, # of connection points: 2
#     Edge 121, Type (0, 1), BuildingBlock: TEMPAE_clean_linker_10, # of connection points: 2
#     Edge 122, Type (0, 1), BuildingBlock: TEMPAE_clean_linker_10, # of connection points: 2
#     Edge 123, Type (0, 1), BuildingBlock: TEMPAE_clean_linker_10, # of connection points: 2
#     Edge 124, Type (0, 1), BuildingBlock: TEMPAE_clean_linker_10, # of connection points: 2
#     Edge 125, Type (0, 1), BuildingBlock: TEMPAE_clean_linker_10, # of connection points: 2
#     Edge 126, Type (0, 1), BuildingBlock: TEMPAE_clean_linker_10, # of connection points: 2
#     Edge 127, Type (0, 1), BuildingBlock: TEMPAE_clean_linker_10, # of connection points: 2
#     Edge 128, Type (0, 1), BuildingBlock: TEMPAE_clean_linker_10, # of connection points: 2
#     Edge 129, Type (0, 1), BuildingBlock: TEMPAE_clean_linker_10, # of connection points: 2
#     Edge 130, Type (0, 1), BuildingBlock: TEMPAE_clean_linker_10, # of connection points: 2
#     Edge 131, Type (0, 1), BuildingBlock: TEMPAE_clean_linker_10, # of connection points: 2
#     Edge 132, Type (0, 1), BuildingBlock: TEMPAE_clean_linker_10, # of connection points: 2
#     Edge 133, Type (0, 1), BuildingBlock: TEMPAE_clean_linker_10, # of connection points: 2
#     Edge 134, Type (0, 1), BuildingBlock: TEMPAE_clean_linker_10, # of connection points: 2
#     Edge 135, Type (0, 1), BuildingBlock: TEMPAE_clean_linker_10, # of connection points: 2
# Relax obj value: 0.182
# Max RMSD: 0.304
# Mean RMSD: 0.204
data_MOF--net-gar--node1-UXUYUI_clean_sbu_0--node2-PAMTUU_clean_sbu_0--edge1-TEMPAE_clean_linker_10
_symmetry_space_group_name_H-M    P1
_symmetry_Int_Tables_number       1
_symmetry_cell_setting            triclinic
loop_
_symmetry_equiv_pos_as_xyz
'x, y, z'
_cell_length_a     73.054323
_cell_length_b     69.306406
_cell_length_c     72.558778
_cell_angle_alpha  93.548823
_cell_angle_beta   93.363895
_cell_angle_gamma 106.45893
loop_
_atom_site_label
_atom_site_type_symbol
_atom_site_fract_x
_atom_site_fract_y
_atom_site_fract_z
_atom_type_partial_charge
Li0 Li 0.03894 0.27114 0.37782 0.0
Li1 Li 0.06025 0.29442 0.40405 0.0
Li2 Li 0.07691 0.27468 0.37824 0.0
Li3 Li 0.05585 0.25308 0.40264 0.0
C4 C 0.05761 0.3035 0.35998 0.0
N5 N 0.04793 0.31778 0.3272 0.0
C6 C 0.05166 0.32097 0.36028 0.0
C7 C 0.05876 0.29335 0.34304 0.0
C8 C 0.04679 0.32793 0.34355 0.0
C9 C 0.05378 0.3008 0.32661 0.0
C10 C 0.01781 0.26587 0.40718 0.0
C11 C 0.98609 0.24289 0.40069 0.0
N12 N 0.97858 0.25721 0.40807 0.0
C13 C 1.0098 0.28033 0.41475 0.0
C14 C 1.0059 0.24697 0.40014 0.0
C15 C 0.98993 0.27567 0.41507 0.0
C16 C 1.00065 0.25483 0.35261 0.0
N17 N 1.01243 0.27092 0.36354 0.0
C18 C 0.98815 0.28864 0.35876 0.0
C19 C 1.00618 0.28763 0.36655 0.0
C20 C 0.97548 0.27228 0.3475 0.0
C21 C 0.98241 0.25521 0.34457 0.0
H22 H 1.00513 0.24134 0.35029 0.0
H23 H 0.01512 0.30038 0.37534 0.0
C24 C 0.04822 0.33105 0.41441 0.0
N25 N 0.06159 0.32154 0.41939 0.0
C26 C 0.04782 0.34955 0.4237 0.0
C27 C 0.07492 0.34886 0.44356 0.0
C28 C 0.07487 0.33034 0.43382 0.0
C29 C 0.06125 0.35909 0.43872 0.0
H30 H 0.03763 0.32427 0.40306 0.0
H31 H 0.08556 0.32305 0.43794 0.0
C32 C 0.05686 0.2356 0.36218 0.0
N33 N 0.065 0.20801 0.33726 0.0
C34 C 0.06801 0.22343 0.36809 0.0
C35 C 0.04978 0.23372 0.34365 0.0
C36 C 0.07199 0.20958 0.35526 0.0
C37 C 0.05407 0.21968 0.33125 0.0
C38 C 0.09112 0.27863 0.4226 0.0
C39 C 0.11011 0.27827 0.42209 0.0
C40 C 0.08331 0.27969 0.43962 0.0
C41 C 0.12101 0.27894 0.43872 0.0
C42 C 0.09469 0.28034 0.45594 0.0
N43 N 0.11314 0.27994 0.45515 0.0
C44 C 0.10966 0.28919 0.35184 0.0
C45 C 0.1129 0.26256 0.36889 0.0
C46 C 0.12705 0.28989 0.34338 0.0
N47 N 0.1026 0.27564 0.36453 0.0
C48 C 0.13035 0.26281 0.36081 0.0
C49 C 0.13813 0.27665 0.34769 0.0
H50 H 0.10195 0.29982 0.34824 0.0
H51 H 0.10771 0.25175 0.37889 0.0
C52 C 0.03805 0.21122 0.41644 0.0
N53 N 0.05451 0.22695 0.41726 0.0
C54 C 0.0371 0.19332 0.42553 0.0
C55 C 0.06999 0.20733 0.43648 0.0
C56 C 0.07035 0.22493 0.42714 0.0
C57 C 0.0532 0.19077 0.43594 0.0
H58 H 0.02544 0.21228 0.40849 0.0
H59 H 0.0836 0.23696 0.4278 0.0
O60 O 0.06202 0.29609 0.37616 0.0
O61 O 0.03717 0.27037 0.40607 0.0
O62 O 0.05305 0.24943 0.37446 0.0
O63 O 0.08012 0.27776 0.40651 0.0
H64 H 0.05079 0.32906 0.37327 0.0
H65 H 0.06338 0.27983 0.3426 0.0
H66 H 0.04209 0.3414 0.34356 0.0
H67 H 0.05454 0.29306 0.31339 0.0
H68 H 0.97669 0.2284 0.39513 0.0
H69 H 0.01882 0.295 0.42031 0.0
H70 H 1.01188 0.23577 0.3939 0.0
H71 H 0.98352 0.28674 0.42085 0.0
H72 H 0.98435 0.30245 0.36159 0.0
H73 H 0.97366 0.24185 0.33641 0.0
H74 H 0.03707 0.3564 0.41879 0.0
H75 H 0.08558 0.3549 0.45503 0.0
H76 H 0.07361 0.22477 0.3824 0.0
H77 H 0.04109 0.24304 0.3389 0.0
H78 H 0.08066 0.2001 0.35961 0.0
H79 H 0.04871 0.21806 0.31685 0.0
H80 H 0.11634 0.27748 0.409 0.0
H81 H 0.0686 0.27993 0.4402 0.0
H82 H 0.13573 0.27865 0.43855 0.0
H83 H 0.08884 0.28113 0.46923 0.0
H84 H 0.1319 0.30118 0.33372 0.0
H85 H 0.13754 0.25188 0.36482 0.0
H86 H 0.02373 0.18138 0.424 0.0
H87 H 0.08296 0.20696 0.44425 0.0
Li88 Li 0.05111 0.80619 0.65217 0.0
Li89 Li 0.06749 0.7887 0.67701 0.0
Li90 Li 0.04654 0.7649 0.65148 0.0
Li91 Li 0.02927 0.78363 0.67785 0.0
C92 C 0.088 0.79469 0.64482 0.0
N93 N 0.12579 0.80607 0.63647 0.0
C94 C 0.10069 0.81252 0.65326 0.0
C95 C 0.09447 0.78274 0.632 0.0
C96 C 0.11976 0.81799 0.6489 0.0
C97 C 0.11364 0.78874 0.62799 0.0
C98 C 0.06147 0.82425 0.69416 0.0
C99 C 0.06708 0.83689 0.72632 0.0
N100 N 0.08078 0.85335 0.72177 0.0
C101 C 0.07544 0.84138 0.68976 0.0
C102 C 0.0571 0.82204 0.71254 0.0
C103 C 0.08511 0.85589 0.70393 0.0
C104 C 0.03572 0.83694 0.63285 0.0
N105 N 0.05211 0.83165 0.63699 0.0
C106 C 0.06968 0.8611 0.62182 0.0
C107 C 0.06893 0.84362 0.6315 0.0
C108 C 0.05301 0.86707 0.61736 0.0
C109 C 0.03586 0.85429 0.6232 0.0
H110 H 0.02231 0.82777 0.63717 0.0
H111 H 0.08204 0.83973 0.63464 0.0
C112 C 0.10436 0.77787 0.68367 0.0
N113 N 0.09427 0.78977 0.69146 0.0
C114 C 0.12253 0.7774 0.69155 0.0
C115 C 0.12033 0.80108 0.71605 0.0
C116 C 0.10219 0.80126 0.70757 0.0
C117 C 0.13124 0.78905 0.7082 0.0
H118 H 0.09837 0.76856 0.67102 0.0
H119 H 0.09449 0.8107 0.71408 0.0
C120 C 1.01266 0.77421 0.63519 0.0
N121 N 0.98438 0.75873 0.60685 0.0
C122 C 0.99514 0.76101 0.63886 0.0
C123 C 0.01584 0.77955 0.61715 0.0
C124 C 0.98101 0.75335 0.62432 0.0
C125 C 1.00135 0.77155 0.603 0.0
C126 C 0.0529 0.75568 0.69399 0.0
C127 C 0.06288 0.74145 0.69091 0.0
C128 C 0.0516 0.763 0.71209 0.0
C129 C 0.07152 0.73489 0.70603 0.0
C130 C 0.06043 0.75607 0.72684 0.0
N131 N 0.07015 0.74229 0.72353 0.0
C132 C 0.06177 0.73173 0.63729 0.0
C133 C 0.03009 0.72623 0.62496 0.0
C134 C 0.06272 0.7135 0.6279 0.0
N135 N 0.04565 0.73804 0.63588 0.0
C136 C 0.03045 0.70781 0.61527 0.0
C137 C 0.04695 0.70086 0.61651 0.0
H138 H 0.07414 0.74084 0.64594 0.0
H139 H 0.01721 0.73096 0.6237 0.0
C140 C 0.99011 0.79074 0.68325 0.0
N141 N 1.00311 0.78213 0.69112 0.0
C142 C 0.97248 0.79024 0.69111 0.0
C143 C 0.98108 0.77208 0.71543 0.0
C144 C 0.99856 0.77285 0.7071 0.0
C145 C 0.96729 0.78082 0.70763 0.0
H146 H 0.99331 0.79817 0.67065 0.0
H147 H 1.00843 0.76579 0.71358 0.0
O148 O 0.06937 0.7889 0.64918 0.0
O149 O 0.05203 0.80976 0.68052 0.0
O150 O 0.02671 0.78175 0.64918 0.0
O151 O 0.04502 0.76295 0.67936 0.0
H152 H 0.09594 0.82187 0.66327 0.0
H153 H 0.08477 0.76905 0.62514 0.0
H154 H 0.12977 0.83167 0.65544 0.0
H155 H 0.11886 0.77961 0.61812 0.0
H156 H 0.06391 0.83534 0.74063 0.0
H157 H 0.07871 0.84351 0.67554 0.0
H158 H 0.04609 0.80903 0.71613 0.0
H159 H 0.09602 0.86919 0.70075 0.0
H160 H 0.08341 0.86972 0.6177 0.0
H161 H 0.02245 0.85778 0.62068 0.0
H162 H 0.12971 0.76799 0.68423 0.0
H163 H 0.12555 0.81028 0.7289 0.0
H164 H 0.99253 0.75671 0.65277 0.0
H165 H 0.02937 0.78973 0.61413 0.0
H166 H 0.96738 0.7431 0.62693 0.0
H167 H 1.00359 0.77554 0.58895 0.0
H168 H 0.06405 0.73563 0.67701 0.0
H169 H 0.04398 0.77405 0.7147 0.0
H170 H 0.07938 0.72396 0.70384 0.0
H171 H 0.0596 0.76169 0.74092 0.0
H172 H 0.07579 0.70924 0.62995 0.0
H173 H 0.01781 0.69923 0.60668 0.0
H174 H 0.96311 0.79761 0.6842 0.0
H175 H 0.97837 0.76428 0.72789 0.0
Li176 Li 0.53692 0.77619 0.88067 0.0
Li177 Li 0.55932 0.79945 0.90764 0.0
Li178 Li 0.57555 0.77984 0.88157 0.0
Li179 Li 0.55504 0.7586 0.90597 0.0
C180 C 0.55692 0.81411 0.86765 0.0
N181 N 0.54975 0.84042 0.84305 0.0
C182 C 0.54683 0.82766 0.87291 0.0
C183 C 0.56342 0.81394 0.84993 0.0
C184 C 0.54333 0.84084 0.86025 0.0
C185 C 0.55964 0.82737 0.83767 0.0
C186 C 0.5193 0.77583 0.91599 0.0
C187 C 0.49265 0.76097 0.93362 0.0
N188 N 0.4851 0.77631 0.93002 0.0
C189 C 0.5113 0.79144 0.91245 0.0
C190 C 0.50994 0.76045 0.92664 0.0
C191 C 0.49399 0.79141 0.91968 0.0
C192 C 0.49319 0.76424 0.87331 0.0
N193 N 0.50986 0.77499 0.86652 0.0
C194 C 0.49017 0.78653 0.84359 0.0
C195 C 0.5083 0.78584 0.85162 0.0
C196 C 0.47273 0.77613 0.85072 0.0
C197 C 0.47482 0.76475 0.86586 0.0
H198 H 0.49395 0.75534 0.88489 0.0
H199 H 0.52115 0.79438 0.84589 0.0
C200 C 0.57329 0.84423 0.9191 0.0
N201 N 0.56108 0.82636 0.92326 0.0
C202 C 0.57354 0.86296 0.92846 0.0
C203 C 0.54857 0.84519 0.94638 0.0
C204 C 0.54903 0.82677 0.93694 0.0
C205 C 0.56088 0.86391 0.94228 0.0
H206 H 0.58274 0.84413 0.90818 0.0
H207 H 0.53943 0.81277 0.94052 0.0
C208 C 0.55601 0.74328 0.86334 0.0
N209 N 0.5657 0.72145 0.83429 0.0
C210 C 0.56793 0.73109 0.86672 0.0
C211 C 0.549 0.74441 0.84523 0.0
C212 C 0.57268 0.72016 0.85183 0.0
C213 C 0.55405 0.73322 0.83072 0.0
C214 C 0.59156 0.77892 0.92281 0.0
C215 C 0.60009 0.76365 0.91871 0.0
C216 C 0.59537 0.7895 0.94029 0.0
C217 C 0.61239 0.75924 0.93222 0.0
C218 C 0.60776 0.78464 0.95342 0.0
N219 N 0.61593 0.76973 0.94915 0.0
C220 C 0.61864 0.78667 0.87801 0.0
C221 C 0.6015 0.77721 0.84898 0.0
C222 C 0.63619 0.78729 0.86999 0.0
N223 N 0.60135 0.78151 0.86769 0.0
C224 C 0.61881 0.77787 0.84038 0.0
C225 C 0.63688 0.78286 0.85074 0.0
H226 H 0.61904 0.7904 0.89274 0.0
H227 H 0.58811 0.77309 0.84046 0.0
C228 C 0.54516 0.71388 0.91259 0.0
N229 N 0.55342 0.73289 0.92098 0.0
C230 C 0.54442 0.69621 0.92195 0.0
C231 C 0.56077 0.71728 0.94871 0.0
C232 C 0.561 0.73457 0.93894 0.0
C233 C 0.5524 0.69742 0.94042 0.0
H234 H 0.53917 0.71223 0.89839 0.0
H235 H 0.56744 0.74941 0.94589 0.0
O236 O 0.56036 0.80098 0.87975 0.0
O237 O 0.53608 0.77541 0.90881 0.0
O238 O 0.5516 0.75448 0.87764 0.0
O239 O 0.57922 0.78321 0.9099 0.0
H240 H 0.54169 0.82794 0.88658 0.0
H241 H 0.57122 0.80349 0.84567 0.0
H242 H 0.5355 0.85139 0.8641 0.0
H243 H 0.56453 0.8274 0.82389 0.0
H244 H 0.48521 0.74917 0.94189 0.0
H245 H 0.51834 0.80337 0.90412 0.0
H246 H 0.51595 0.74823 0.92943 0.0
H247 H 0.4876 0.80337 0.91703 0.0
H248 H 0.48996 0.79569 0.83208 0.0
H249 H 0.46227 0.75602 0.87198 0.0
H250 H 0.58329 0.8767 0.92447 0.0
H251 H 0.53866 0.84468 0.95699 0.0
H252 H 0.57354 0.73017 0.88068 0.0
H253 H 0.53986 0.75393 0.84242 0.0
H254 H 0.58193 0.71068 0.85422 0.0
H255 H 0.54878 0.73396 0.81661 0.0
H256 H 0.59715 0.75524 0.90526 0.0
H257 H 0.58876 0.80129 0.94367 0.0
H258 H 0.61907 0.74744 0.92926 0.0
H259 H 0.61084 0.79268 0.96703 0.0
H260 H 0.64926 0.7916 0.87901 0.0
H261 H 0.61786 0.77408 0.82559 0.0
H262 H 0.53791 0.68162 0.9145 0.0
H263 H 0.56696 0.71961 0.96288 0.0
Li264 Li 0.55585 0.31276 0.15358 0.0
Li265 Li 0.5724 0.29477 0.17746 0.0
Li266 Li 0.55144 0.27167 0.15157 0.0
Li267 Li 0.53423 0.29008 0.17834 0.0
C268 C 0.59322 0.30177 0.14652 0.0
N269 N 0.63177 0.31344 0.14101 0.0
C270 C 0.60515 0.31996 0.15508 0.0
C271 C 0.60084 0.28959 0.13503 0.0
C272 C 0.62462 0.32557 0.15216 0.0
C273 C 0.62038 0.29574 0.13244 0.0
C274 C 0.56691 0.32965 0.19591 0.0
C275 C 0.57454 0.33959 0.22854 0.0
N276 N 0.5867 0.35734 0.2244 0.0
C277 C 0.57943 0.348 0.19198 0.0
C278 C 0.56441 0.32539 0.21432 0.0
C279 C 0.58933 0.3618 0.20658 0.0
C280 C 0.54008 0.34163 0.13156 0.0
N281 N 0.55665 0.33866 0.139 0.0
C282 C 0.57401 0.37107 0.12824 0.0
C283 C 0.57347 0.35324 0.13728 0.0
C284 C 0.55713 0.37463 0.12035 0.0
C285 C 0.54002 0.35911 0.12223 0.0
H286 H 0.52661 0.33046 0.13287 0.0
H287 H 0.58673 0.35132 0.14315 0.0
C288 C 0.60841 0.28223 0.18381 0.0
N289 N 0.59922 0.29516 0.19141 0.0
C290 C 0.62662 0.28141 0.19124 0.0
C291 C 0.62638 0.30694 0.21482 0.0
C292 C 0.60816 0.30743 0.20682 0.0
C293 C 0.6363 0.29387 0.20709 0.0
H294 H 0.60164 0.27236 0.1717 0.0
H295 H 0.60134 0.31787 0.21304 0.0
C296 C 0.52059 0.2875 0.13357 0.0
N297 N 0.49908 0.28693 0.10085 0.0
C298 C 0.50236 0.2902 0.13394 0.0
C299 C 0.5279 0.28456 0.1166 0.0
C300 C 0.4917 0.28985 0.11722 0.0
C301 C 0.51679 0.2843 0.1002 0.0
C302 C 0.55554 0.26114 0.19456 0.0
C303 C 0.56731 0.24848 0.19286 0.0
C304 C 0.54975 0.26561 0.21193 0.0
C305 C 0.5734 0.24076 0.20867 0.0
C306 C 0.55612 0.25757 0.22741 0.0
N307 N 0.56774 0.24544 0.22548 0.0
C308 C 0.56581 0.23788 0.1381 0.0
C309 C 0.53473 0.23382 0.12469 0.0
C310 C 0.56632 0.21947 0.1288 0.0
N311 N 0.55019 0.24496 0.13608 0.0
C312 C 0.53466 0.21525 0.11507 0.0
C313 C 0.55063 0.20751 0.11692 0.0
H314 H 0.57806 0.24649 0.14715 0.0
H315 H 0.52224 0.2392 0.12303 0.0
C316 C 0.50762 0.29859 0.20789 0.0
N317 N 0.50817 0.28768 0.19159 0.0
C318 C 0.49007 0.29759 0.21609 0.0
C319 C 0.47323 0.27434 0.19089 0.0
C320 C 0.49109 0.27556 0.18328 0.0
C321 C 0.47215 0.28544 0.20768 0.0
H322 H 0.52082 0.30844 0.21466 0.0
H323 H 0.49112 0.26675 0.17044 0.0
O324 O 0.57422 0.2958 0.1496 0.0
O325 O 0.55716 0.31593 0.1818 0.0
O326 O 0.53135 0.28792 0.14972 0.0
O327 O 0.54978 0.26928 0.17935 0.0
H328 H 0.59949 0.32946 0.16413 0.0
H329 H 0.59176 0.27556 0.12815 0.0
H330 H 0.63405 0.33953 0.15883 0.0
H331 H 0.62649 0.28643 0.12362 0.0
H332 H 0.57278 0.33647 0.24286 0.0
H333 H 0.58143 0.35159 0.17781 0.0
H334 H 0.55488 0.31123 0.21761 0.0
H335 H 0.59908 0.37605 0.20373 0.0
H336 H 0.58777 0.38213 0.12784 0.0
H337 H 0.52641 0.36017 0.11642 0.0
H338 H 0.63292 0.27072 0.18457 0.0
H339 H 0.63279 0.31716 0.22685 0.0
H340 H 0.49659 0.29274 0.14696 0.0
H341 H 0.54203 0.28251 0.11613 0.0
H342 H 0.47759 0.29196 0.11727 0.0
H343 H 0.52226 0.28202 0.08695 0.0
H344 H 0.5718 0.24475 0.1795 0.0
H345 H 0.54042 0.27517 0.21342 0.0
H346 H 0.58263 0.23106 0.20758 0.0
H347 H 0.55181 0.26097 0.24096 0.0
H348 H 0.57897 0.21453 0.1313 0.0
H349 H 0.52215 0.20718 0.10607 0.0
H350 H 0.49064 0.30678 0.22884 0.0
H351 H 0.4603 0.26444 0.18362 0.0
Li352 Li 0.07912 0.81677 0.11491 0.0
Li353 Li 0.09646 0.80155 0.13849 0.0
Li354 Li 0.07562 0.78037 0.11374 0.0
Li355 Li 0.06201 0.79473 0.13888 0.0
C356 C 0.10761 0.79514 0.09797 0.0
N357 N 0.12326 0.77701 0.07053 0.0
C358 C 0.12183 0.78599 0.10262 0.0
C359 C 0.10149 0.79528 0.07938 0.0
C360 C 0.12953 0.77686 0.08853 0.0
C361 C 0.10955 0.78597 0.06571 0.0
C362 C 0.09387 0.83488 0.15561 0.0
C363 C 0.1085 0.84371 0.18681 0.0
N364 N 0.11944 0.86154 0.18148 0.0
C365 C 0.10519 0.85331 0.15045 0.0
C366 C 0.09545 0.83005 0.17394 0.0
C367 C 0.11805 0.86658 0.16374 0.0
C368 C 0.06166 0.84463 0.1021 0.0
N369 N 0.0787 0.84033 0.10279 0.0
C370 C 0.09355 0.87109 0.08942 0.0
C371 C 0.0945 0.85298 0.09648 0.0
C372 C 0.07617 0.87614 0.08885 0.0
C373 C 0.06003 0.86239 0.09503 0.0
H374 H 0.04936 0.83433 0.10731 0.0
H375 H 0.10794 0.8493 0.09742 0.0
C376 C 0.12052 0.78811 0.16244 0.0
N377 N 0.11989 0.80426 0.15298 0.0
C378 C 0.13737 0.78776 0.17223 0.0
C379 C 0.15286 0.82077 0.16252 0.0
C380 C 0.13562 0.82045 0.15279 0.0
C381 C 0.15392 0.80411 0.17221 0.0
H382 H 0.10802 0.77523 0.16205 0.0
H383 H 0.13489 0.83289 0.14477 0.0
C384 C 0.04315 0.78574 0.09632 0.0
N385 N 0.0189 0.7694 0.06507 0.0
C386 C 0.02746 0.76879 0.09727 0.0
C387 C 0.04647 0.79441 0.07949 0.0
C388 C 0.01538 0.76074 0.08131 0.0
C389 C 0.03405 0.78592 0.06385 0.0
C390 C 0.06689 0.76141 0.15069 0.0
C391 C 0.05435 0.74341 0.14235 0.0
C392 C 0.06852 0.76506 0.16997 0.0
C393 C 0.04364 0.72936 0.15347 0.0
C394 C 0.05752 0.75065 0.18059 0.0
N395 N 0.04542 0.73324 0.1722 0.0
C396 C 0.08554 0.74541 0.10696 0.0
C397 C 0.0636 0.74835 0.08275 0.0
C398 C 0.08566 0.72655 0.09917 0.0
N399 N 0.07438 0.75578 0.09894 0.0
C400 C 0.06305 0.72932 0.07458 0.0
C401 C 0.07394 0.71794 0.08299 0.0
H402 H 0.09423 0.75172 0.11968 0.0
H403 H 0.0552 0.75691 0.07623 0.0
C404 C 0.04151 0.80755 0.16659 0.0
N405 N 0.04109 0.79183 0.15423 0.0
C406 C 0.0264 0.80647 0.1778 0.0
C407 C 1.01064 0.77305 0.16338 0.0
C408 C 0.026 0.77483 0.15238 0.0
C409 C 1.01066 0.78904 0.17628 0.0
H410 H 0.05347 0.82107 0.16758 0.0
H411 H 0.02583 0.76261 0.14236 0.0
O412 O 0.09953 0.80366 0.11157 0.0
O413 O 0.08143 0.82153 0.14275 0.0
O414 O 0.05494 0.79405 0.11187 0.0
O415 O 0.07746 0.77545 0.14007 0.0
H416 H 0.12669 0.78575 0.11696 0.0
H417 H 0.09054 0.80236 0.07559 0.0
H418 H 0.14045 0.76958 0.09192 0.0
H419 H 0.10487 0.78583 0.05126 0.0
H420 H 0.10995 0.84013 0.20102 0.0
H421 H 0.10415 0.85727 0.13633 0.0
H422 H 0.08679 0.81584 0.17815 0.0
H423 H 0.12695 0.88087 0.15993 0.0
H424 H 0.10642 0.88126 0.08499 0.0
H425 H 0.04623 0.86534 0.09452 0.0
H426 H 0.13747 0.77471 0.17967 0.0
H427 H 0.16535 0.83361 0.16202 0.0
H428 H 0.02471 0.76184 0.11013 0.0
H429 H 0.05852 0.80752 0.07848 0.0
H430 H 1.00323 0.74759 0.08183 0.0
H431 H 0.03647 0.79245 0.05073 0.0
H432 H 0.05264 0.74042 0.12746 0.0
H433 H 0.07811 0.77893 0.17665 0.0
H434 H 0.03383 0.71541 0.1472 0.0
H435 H 0.05859 0.75331 0.19552 0.0
H436 H 0.09476 0.71875 0.10591 0.0
H437 H 0.05376 0.72338 0.06211 0.0
H438 H 0.0269 0.81933 0.1873 0.0
H439 H 0.99894 0.75922 0.16186 0.0
Li440 Li 0.51308 0.78616 0.43506 0.0
Li441 Li 0.49243 0.76547 0.40914 0.0
Li442 Li 0.50934 0.74989 0.43183 0.0
Li443 Li 0.52661 0.77131 0.40933 0.0
C444 C 0.48056 0.77005 0.45025 0.0
N445 N 0.46395 0.78521 0.47884 0.0
C446 C 0.4638 0.77556 0.44664 0.0
C447 C 0.48882 0.77214 0.46839 0.0
C448 C 0.45563 0.78321 0.46129 0.0
C449 C 0.48023 0.77988 0.48266 0.0
C450 C 0.52389 0.80537 0.39867 0.0
C451 C 0.53758 0.81514 0.36999 0.0
N452 N 0.54911 0.8325 0.379 0.0
C453 C 0.53587 0.82333 0.40764 0.0
C454 C 0.52471 0.80126 0.37967 0.0
C455 C 0.54851 0.83685 0.39745 0.0
C456 C 0.53258 0.8192 0.46161 0.0
N457 N 0.51613 0.81037 0.45076 0.0
C458 C 0.50429 0.83858 0.45797 0.0
C459 C 0.50213 0.81967 0.44877 0.0
C460 C 0.5213 0.84832 0.46887 0.0
C461 C 0.53552 0.83837 0.47076 0.0
H462 H 0.54372 0.81175 0.46255 0.0
H463 H 0.48955 0.81272 0.43948 0.0
C464 C 0.45234 0.74974 0.39767 0.0
N465 N 0.46927 0.76274 0.39397 0.0
C466 C 0.43548 0.74865 0.38691 0.0
C467 C 0.45388 0.77399 0.36852 0.0
C468 C 0.47028 0.77471 0.37971 0.0
C469 C 0.43607 0.76105 0.37216 0.0
H470 H 0.4519 0.74046 0.40918 0.0
H471 H 0.48382 0.785 0.3771 0.0
C472 C 0.54459 0.76432 0.44694 0.0
N473 N 0.56584 0.7455 0.46831 0.0
C474 C 0.55526 0.75291 0.4385 0.0
C475 C 0.54484 0.7663 0.46624 0.0
C476 C 0.56588 0.74347 0.44955 0.0
C477 C 0.55565 0.75664 0.4768 0.0
C478 C 0.49306 0.73196 0.39253 0.0
C479 C 0.48002 0.71563 0.39944 0.0
C480 C 0.49128 0.73515 0.37376 0.0
C481 C 0.4655 0.70266 0.3874 0.0
C482 C 0.47653 0.72186 0.36217 0.0
N483 N 0.46406 0.70602 0.36917 0.0
C484 C 0.50481 0.72204 0.46107 0.0
C485 C 0.51671 0.71275 0.43326 0.0
C486 C 0.50694 0.7047 0.46886 0.0
N487 N 0.50982 0.72578 0.44359 0.0
C488 C 0.519 0.69529 0.44043 0.0
C489 C 0.51431 0.6911 0.45855 0.0
H490 H 0.49949 0.73265 0.4691 0.0
H491 H 0.52072 0.7161 0.41944 0.0
C492 C 0.56498 0.78918 0.40195 0.0
N493 N 0.54843 0.77517 0.39524 0.0
C494 C 0.58148 0.79188 0.39242 0.0
C495 C 0.56351 0.76584 0.36918 0.0
C496 C 0.54742 0.76353 0.37924 0.0
C497 C 0.58086 0.78008 0.37581 0.0
H498 H 0.56538 0.79813 0.4148 0.0
H499 H 0.53419 0.75226 0.3744 0.0
O500 O 0.48892 0.76278 0.43606 0.0
O501 O 0.51171 0.7917 0.40849 0.0
O502 O 0.53359 0.77309 0.43634 0.0
O503 O 0.50703 0.74518 0.40422 0.0
H504 H 0.45728 0.77414 0.43266 0.0
H505 H 0.50187 0.76813 0.47139 0.0
H506 H 0.4427 0.78761 0.4587 0.0
H507 H 0.48653 0.78171 0.49676 0.0
H508 H 0.53848 0.81204 0.35532 0.0
H509 H 0.53553 0.8268 0.42231 0.0
H510 H 0.51585 0.78726 0.37254 0.0
H511 H 0.55789 0.85078 0.40424 0.0
H512 H 0.49315 0.84591 0.4559 0.0
H513 H 0.54887 0.84547 0.479 0.0
H514 H 0.42208 0.73859 0.39039 0.0
H515 H 0.45519 0.78355 0.35713 0.0
H516 H 0.5551 0.75107 0.42356 0.0
H517 H 0.53667 0.77509 0.47298 0.0
H518 H 0.57409 0.73446 0.4432 0.0
H519 H 0.55589 0.75795 0.49176 0.0
H520 H 0.48092 0.71315 0.41399 0.0
H521 H 0.50094 0.74797 0.36824 0.0
H522 H 0.45529 0.68999 0.39256 0.0
H523 H 0.47492 0.72421 0.34764 0.0
H524 H 0.50331 0.70223 0.48295 0.0
H525 H 0.5244 0.68516 0.4318 0.0
H526 H 0.59456 0.80308 0.39795 0.0
H527 H 0.56252 0.75623 0.35659 0.0
Li528 Li 0.57954 0.31788 0.61232 0.0
Li529 Li 0.59885 0.30334 0.63574 0.0
Li530 Li 0.57687 0.28168 0.61098 0.0
Li531 Li 0.56406 0.29713 0.63561 0.0
C532 C 0.60523 0.29792 0.59167 0.0
N533 N 0.61414 0.28269 0.55838 0.0
C534 C 0.62115 0.29057 0.59102 0.0
C535 C 0.59391 0.29764 0.57539 0.0
C536 C 0.6254 0.28291 0.57405 0.0
C537 C 0.59863 0.28985 0.5587 0.0
C538 C 0.57637 0.33284 0.65297 0.0
C539 C 0.57131 0.34008 0.68489 0.0
N540 N 0.55868 0.35009 0.6793 0.0
C541 C 0.56339 0.34325 0.64753 0.0
C542 C 0.58042 0.33127 0.67178 0.0
C543 C 0.55459 0.35186 0.66106 0.0
C544 C 0.56725 0.34011 0.5847 0.0
N545 N 0.57968 0.34133 0.59972 0.0
C546 C 0.59034 0.37733 0.59994 0.0
C547 C 0.59129 0.35941 0.60726 0.0
C548 C 0.57732 0.37665 0.58469 0.0
C549 C 0.56589 0.35766 0.57687 0.0
H550 H 0.55803 0.32556 0.57911 0.0
H551 H 0.60092 0.35995 0.61932 0.0
C552 C 0.63027 0.29049 0.64523 0.0
N553 N 0.62236 0.30553 0.64961 0.0
C554 C 0.64654 0.28912 0.65544 0.0
C555 C 0.64637 0.31884 0.67461 0.0
C556 C 0.63016 0.31979 0.6638 0.0
C557 C 0.65464 0.30315 0.67064 0.0
H558 H 0.6236 0.27922 0.63403 0.0
H559 H 0.6235 0.33153 0.66707 0.0
C560 C 0.5389 0.2802 0.60389 0.0
N561 N 0.50471 0.2506 0.59443 0.0
C562 C 0.53377 0.26311 0.61387 0.0
C563 C 0.5266 0.28225 0.58913 0.0
C564 C 0.51644 0.24832 0.60887 0.0
C565 C 0.50939 0.26712 0.58455 0.0
C566 C 0.57819 0.2652 0.65103 0.0
C567 C 0.56863 0.24465 0.6474 0.0
C568 C 0.58727 0.27244 0.66863 0.0
C569 C 0.56808 0.23173 0.66152 0.0
C570 C 0.5864 0.25904 0.68238 0.0
N571 N 0.5769 0.23913 0.67858 0.0
C572 C 0.58749 0.2472 0.60319 0.0
C573 C 0.56159 0.24827 0.58246 0.0
C574 C 0.5865 0.22784 0.59586 0.0
N575 N 0.57492 0.25684 0.59673 0.0
C576 C 0.55998 0.22876 0.57475 0.0
C577 C 0.57229 0.21809 0.58176 0.0
H578 H 0.59799 0.2544 0.61449 0.0
H579 H 0.55183 0.25626 0.57741 0.0
C580 C 0.52735 0.29892 0.64411 0.0
N581 N 0.54306 0.29419 0.65118 0.0
C582 C 0.51167 0.29749 0.65458 0.0
C583 C 0.52877 0.28705 0.67977 0.0
C584 C 0.54404 0.28844 0.66871 0.0
C585 C 0.51228 0.2915 0.67267 0.0
H586 H 0.52709 0.30409 0.63037 0.0
H587 H 0.55678 0.2853 0.6743 0.0
O588 O 0.6004 0.30487 0.60819 0.0
O589 O 0.58462 0.32375 0.63989 0.0
O590 O 0.55587 0.29488 0.60841 0.0
O591 O 0.57931 0.27797 0.63721 0.0
H592 H 0.63009 0.29072 0.60347 0.0
H593 H 0.58144 0.30311 0.57571 0.0
H594 H 0.63764 0.27711 0.57334 0.0
H595 H 0.58993 0.28942 0.54601 0.0
H596 H 0.57421 0.33886 0.6995 0.0
H597 H 0.55994 0.34442 0.63301 0.0
H598 H 0.59026 0.32307 0.67622 0.0
H599 H 0.54443 0.35985 0.65706 0.0
H600 H 0.59958 0.39159 0.60628 0.0
H601 H 0.5555 0.35641 0.56526 0.0
H602 H 0.65256 0.27701 0.65156 0.0
H603 H 0.65194 0.32988 0.68629 0.0
H604 H 0.54299 0.26132 0.62539 0.0
H605 H 0.53033 0.29538 0.58126 0.0
H606 H 0.51232 0.23502 0.61649 0.0
H607 H 0.49975 0.2685 0.57314 0.0
H608 H 0.56174 0.23868 0.6338 0.0
H609 H 0.5947 0.28828 0.67172 0.0
H610 H 0.56069 0.2158 0.65891 0.0
H611 H 0.59327 0.26448 0.69608 0.0
H612 H 0.59659 0.22046 0.60142 0.0
H613 H 0.54878 0.22184 0.56393 0.0
H614 H 0.49935 0.30144 0.64874 0.0
H615 H 0.52981 0.28244 0.6937 0.0
Li616 Li 1.01363 0.28514 0.93596 0.0
Li617 Li 0.99064 0.26245 0.91075 0.0
Li618 Li 1.01034 0.24839 0.93423 0.0
Li619 Li 0.02534 0.26864 0.91082 0.0
C620 C 0.97893 0.26556 0.95201 0.0
N621 N 0.95629 0.27258 0.97938 0.0
C622 C 0.96254 0.27141 0.94744 0.0
C623 C 0.98361 0.26292 0.97046 0.0
C624 C 0.95133 0.275 0.96149 0.0
C625 C 0.97203 0.26664 0.9841 0.0
C626 C 0.01887 0.3001 0.89604 0.0
C627 C 0.02036 0.30866 0.86435 0.0
N628 N 0.03709 0.3233 0.86921 0.0
C629 C 0.03603 0.31528 0.90075 0.0
C630 C 1.01092 0.29676 0.87772 0.0
C631 C 0.04504 0.32683 0.88697 0.0
C632 C 0.03602 0.32223 0.95454 0.0
N633 N 0.0177 0.31062 0.95006 0.0
C634 C 1.00562 0.33757 0.96103 0.0
C635 C 1.0026 0.31789 0.95314 0.0
C636 C 0.02439 0.35008 0.96537 0.0
C637 C 0.0397 0.3421 0.96224 0.0
H638 H 0.0478 0.3163 0.95152 0.0
H639 H 0.98823 0.30877 0.94876 0.0
C640 C 0.95474 0.24116 0.89057 0.0
N641 N 0.96682 0.25945 0.89703 0.0
C642 C 0.93783 0.23998 0.87985 0.0
C643 C 0.94584 0.27639 0.88329 0.0
C644 C 0.9626 0.27686 0.89378 0.0
C645 C 0.93327 0.2578 0.87591 0.0
H646 H 0.95843 0.22753 0.89345 0.0
H647 H 0.97235 0.29118 0.89932 0.0
C648 C 0.04332 0.27029 0.95412 0.0
N649 N 0.06148 0.26716 0.98786 0.0
C650 C 0.05902 0.2625 0.95482 0.0
C651 C 0.03695 0.27656 0.97061 0.0
C652 C 0.06797 0.261 0.972 0.0
C653 C 0.04629 0.27485 0.98751 0.0
C654 C 1.00909 0.23316 0.89088 0.0
C655 C 0.0236 0.22364 0.89137 0.0
C656 C 0.99888 0.23341 0.87402 0.0
C657 C 0.02774 0.21466 0.87497 0.0
C658 C 1.0034 0.2242 0.85794 0.0
N659 N 0.01764 0.21511 0.85874 0.0
C660 C 0.99641 0.21562 0.95758 0.0
C661 C 0.0257 0.2177 0.94432 0.0
C662 C 0.99707 0.19792 0.96565 0.0
N663 N 1.01064 0.22509 0.94713 0.0
C664 C 0.02683 0.20005 0.95191 0.0
C665 C 1.01233 0.18979 0.96261 0.0
H666 H 0.98439 0.22155 0.95937 0.0
H667 H 0.0368 0.22544 0.93596 0.0
C668 C 0.06421 0.27766 0.90383 0.0
N669 N 0.04629 0.27243 0.89516 0.0
C670 C 0.08013 0.27936 0.89363 0.0
C671 C 0.05899 0.271 0.86561 0.0
C672 C 0.04349 0.26963 0.87636 0.0
C673 C 0.07759 0.27566 0.87428 0.0
H674 H 0.06616 0.28037 0.91872 0.0
H675 H 0.02923 0.26611 0.86966 0.0
O676 O 0.98999 0.26188 0.9384 0.0
O677 O 1.01003 0.28839 0.90926 0.0
O678 O 0.0342 0.27158 0.93739 0.0
O679 O 1.00481 0.24206 0.90678 0.0
H680 H 0.95859 0.27333 0.93323 0.0
H681 H 0.99594 0.25788 0.97421 0.0
H682 H 0.93869 0.27969 0.95816 0.0
H683 H 0.97553 0.26473 0.99844 0.0
H684 H 0.01443 0.30618 0.8501 0.0
H685 H 0.04242 0.31795 0.91485 0.0
H686 H 0.99773 0.28494 0.87382 0.0
H687 H 0.05838 0.33856 0.89038 0.0
H688 H 0.99343 0.34325 0.96291 0.0
H689 H 0.05439 0.35123 0.96542 0.0
H690 H 0.92866 0.22532 0.87437 0.0
H691 H 0.94276 0.29049 0.88103 0.0
H692 H 0.06412 0.25743 0.94224 0.0
H693 H 0.0249 0.28267 0.9704 0.0
H694 H 0.08007 0.25491 0.97272 0.0
H695 H 0.04146 0.27962 1.00036 0.0
H696 H 0.03177 0.22341 0.9042 0.0
H697 H 0.9878 0.24093 0.87327 0.0
H698 H 0.03902 0.20736 0.87515 0.0
H699 H 0.99568 0.22438 0.8448 0.0
H700 H 0.98554 0.19039 0.97374 0.0
H701 H 0.03897 0.19446 0.94943 0.0
H702 H 0.09424 0.28302 0.90087 0.0
H703 H 0.05645 0.26845 0.85069 0.0
Li704 Li 0.44178 0.05607 0.3246 0.0
Li705 Li 0.41696 0.03257 0.30358 0.0
Li706 Li 0.44091 0.06091 0.29252 0.0
Li707 Li 0.41533 0.06641 0.31044 0.0
C708 C 0.45711 0.02806 0.31202 0.0
N709 N 0.4815 0.00976 0.32972 0.0
C710 C 0.45019 0.00825 0.31692 0.0
C711 C 0.47649 0.03851 0.31604 0.0
C712 C 0.46275 0.99927 0.32585 0.0
C713 C 0.48857 0.02902 0.32504 0.0
C714 C 0.40205 0.04831 0.34037 0.0
C715 C 0.37014 0.04679 0.34846 0.0
N716 N 0.37746 0.05594 0.3655 0.0
C717 C 0.40926 0.05764 0.35798 0.0
C718 C 0.38233 0.04275 0.33558 0.0
C719 C 0.39658 0.06137 0.37049 0.0
C720 C 0.47306 0.07368 0.35118 0.0
N721 N 0.45773 0.05739 0.34624 0.0
C722 C 0.46629 0.03966 0.37087 0.0
C723 C 0.45396 0.04072 0.35587 0.0
C724 C 0.48246 0.05612 0.37622 0.0
C725 C 0.4857 0.07338 0.36627 0.0
H726 H 0.4756 0.08676 0.34327 0.0
H727 H 0.44163 0.02801 0.35151 0.0
C728 C 0.40508 0.99458 0.28295 0.0
N729 N 0.4025 1.00519 0.29849 0.0
C730 C 0.39453 0.97438 0.27914 0.0
C731 C 0.37948 0.97626 0.30775 0.0
C732 C 0.39014 0.99647 0.31089 0.0
C733 C 0.3816 0.96501 0.29168 0.0
H734 H 0.41542 1.00179 0.27361 0.0
H735 H 0.38869 1.00513 0.32333 0.0
C736 C 0.45355 0.0982 0.30597 0.0
N737 N 0.47472 0.13101 0.28912 0.0
C738 C 0.44464 0.11167 0.29852 0.0
C739 C 0.47323 0.10145 0.30494 0.0
C740 C 0.4556 0.12818 0.29006 0.0
C741 C 0.48367 0.1181 0.29632 0.0
C742 C 0.40111 0.03953 0.27211 0.0
C743 C 0.40831 0.03473 0.25555 0.0
C744 C 0.38178 0.03098 0.27476 0.0
C745 C 0.39603 0.02135 0.24193 0.0
C746 C 0.36998 0.01763 0.26083 0.0
N747 N 0.37729 0.01313 0.24484 0.0
C748 C 0.47057 0.06074 0.27019 0.0
C749 C 0.45104 0.08057 0.25965 0.0
C750 C 0.48103 0.06415 0.25471 0.0
N751 N 0.45581 0.06874 0.27227 0.0
C752 C 0.46109 0.08429 0.24381 0.0
C753 C 0.47613 0.07574 0.2411 0.0
H754 H 0.47377 0.05104 0.28016 0.0
H755 H 0.43904 0.08651 0.26158 0.0
C756 C 0.39785 0.09279 0.32985 0.0
N757 N 0.39791 0.08189 0.31361 0.0
C758 C 0.38378 0.10264 0.3322 0.0
C759 C 0.37095 0.09081 0.30072 0.0
C760 C 0.38503 0.081 0.29909 0.0
C761 C 0.37011 0.10163 0.31749 0.0
H762 H 0.40852 0.09357 0.34106 0.0
H763 H 0.38561 0.07254 0.28624 0.0
O764 O 0.44496 0.03724 0.30353 0.0
O765 O 0.41423 0.04466 0.32788 0.0
O766 O 0.44301 0.08177 0.31402 0.0
O767 O 0.41295 0.05241 0.28571 0.0
H768 H 0.43527 0.99992 0.31402 0.0
H769 H 0.48207 0.05396 0.31263 0.0
H770 H 0.45756 0.98398 0.32978 0.0
H771 H 0.50353 0.03701 0.3284 0.0
H772 H 0.35487 0.0427 0.34489 0.0
H773 H 0.42447 0.06211 0.36191 0.0
H774 H 0.37652 0.0356 0.32198 0.0
H775 H 0.40196 0.06864 0.38414 0.0
H776 H 0.46337 0.02595 0.37797 0.0
H777 H 0.49779 0.08653 0.37014 0.0
H778 H 0.39675 0.96606 0.26674 0.0
H779 H 0.36963 0.96951 0.31773 0.0
H780 H 0.42942 0.10934 0.29916 0.0
H781 H 0.4803 0.09104 0.31045 0.0
H782 H 0.4489 0.1387 0.28418 0.0
H783 H 0.49888 0.12072 0.2953 0.0
H784 H 0.42324 0.04108 0.25329 0.0
H785 H 0.376 0.03445 0.28753 0.0
H786 H 0.40141 0.01743 0.22908 0.0
H787 H 0.35502 0.01081 0.26274 0.0
H788 H 0.49219 0.05685 0.25297 0.0
H789 H 0.45686 0.09327 0.23359 0.0
H790 H 0.38369 0.11109 0.34524 0.0
H791 H 0.36062 0.08969 0.28907 0.0
Li792 Li 0.30443 0.21534 0.54084 0.0
Li793 Li 0.31759 0.19121 0.52374 0.0
Li794 Li 0.30431 0.21386 0.50634 0.0
Li795 Li 0.2832 0.18672 0.52163 0.0
C796 C 0.34392 0.22821 0.53598 0.0
N797 N 0.37809 0.24179 0.55773 0.0
C798 C 0.34561 0.22118 0.55345 0.0
C799 C 0.35959 0.24213 0.52955 0.0
C800 C 0.36301 0.22823 0.56425 0.0
C801 C 0.37675 0.24882 0.54076 0.0
C802 C 0.29665 0.16711 0.54922 0.0
C803 C 0.29216 0.13153 0.54213 0.0
N804 N 0.28965 0.1284 0.56025 0.0
C805 C 0.29408 0.16356 0.56777 0.0
C806 C 0.29573 0.15098 0.53629 0.0
C807 C 0.29054 0.14388 0.57307 0.0
C808 C 0.29143 0.21862 0.57575 0.0
N809 N 0.30489 0.22935 0.5652 0.0
C810 C 0.3178 0.25388 0.59104 0.0
C811 C 0.31781 0.24693 0.57238 0.0
C812 C 0.3045 0.24257 0.60247 0.0
C813 C 0.29101 0.22488 0.59439 0.0
H814 H 0.28122 0.20478 0.56976 0.0
H815 H 0.32847 0.25526 0.56384 0.0
C816 C 0.34322 0.17237 0.50779 0.0
N817 N 0.33702 0.17744 0.5242 0.0
C818 C 0.35662 0.16142 0.50726 0.0
C819 C 0.35732 0.16143 0.54058 0.0
C820 C 0.34386 0.17231 0.54046 0.0
C821 C 0.3638 0.15566 0.52381 0.0
H822 H 0.33754 0.17662 0.49507 0.0
H823 H 0.33871 0.17644 0.55335 0.0
C824 C 0.28077 0.23438 0.52214 0.0
N825 N 0.27625 0.2726 0.52175 0.0
C826 C 0.26256 0.2368 0.51878 0.0
C827 C 0.29671 0.25139 0.52528 0.0
C828 C 0.26056 0.25625 0.51864 0.0
C829 C 0.29411 0.27059 0.52504 0.0
C830 C 0.28866 0.17797 0.48471 0.0
C831 C 0.27158 0.183 0.48154 0.0
C832 C 0.2947 0.16678 0.47089 0.0
C833 C 0.26084 0.17679 0.46455 0.0
C834 C 0.28356 0.16084 0.45407 0.0
N835 N 0.26701 0.16593 0.45127 0.0
C836 C 0.32432 0.23066 0.4757 0.0
C837 C 0.29189 0.23055 0.47358 0.0
C838 C 0.32649 0.23706 0.45776 0.0
N839 N 0.30716 0.22729 0.48321 0.0
C840 C 0.29337 0.23674 0.4555 0.0
C841 C 0.31079 0.23981 0.4471 0.0
H842 H 0.33623 0.22774 0.48345 0.0
H843 H 0.27825 0.2275 0.47959 0.0
C844 C 0.24577 0.17362 0.53213 0.0
N845 N 0.25842 0.16768 0.52177 0.0
C846 C 0.22773 0.16035 0.53404 0.0
C847 C 0.23603 0.13502 0.51458 0.0
C848 C 0.2539 0.14883 0.51297 0.0
C849 C 0.22268 0.1407 0.52529 0.0
H850 H 0.24985 0.18862 0.53914 0.0
H851 H 0.26424 0.14442 0.50487 0.0
O852 O 0.32709 0.22148 0.52507 0.0
O853 O 0.3001 0.18631 0.54384 0.0
O854 O 0.28286 0.21539 0.52215 0.0
O855 O 0.29955 0.18403 0.50118 0.0
H856 H 0.33364 0.21042 0.55867 0.0
H857 H 0.3585 0.24769 0.51603 0.0
H858 H 0.36451 0.22292 0.5778 0.0
H859 H 0.38901 0.2596 0.53597 0.0
H860 H 0.29139 0.11891 0.53226 0.0
H861 H 0.29485 0.17588 0.57799 0.0
H862 H 0.29777 0.15342 0.52188 0.0
H863 H 0.28851 0.14091 0.58739 0.0
H864 H 0.32851 0.26758 0.59663 0.0
H865 H 0.28026 0.21584 0.60245 0.0
H866 H 0.36097 0.15714 0.49398 0.0
H867 H 0.36262 0.15762 0.55371 0.0
H868 H 0.2501 0.22376 0.51628 0.0
H869 H 0.31092 0.24986 0.52788 0.0
H870 H 0.24655 0.25835 0.51605 0.0
H871 H 0.3063 0.28388 0.52747 0.0
H872 H 0.26667 0.1917 0.49203 0.0
H873 H 0.30787 0.16273 0.47312 0.0
H874 H 0.24762 0.18063 0.4619 0.0
H875 H 0.28808 0.15219 0.44324 0.0
H876 H 0.34035 0.23956 0.45226 0.0
H877 H 0.2807 0.23828 0.44797 0.0
H878 H 0.218 0.1653 0.5426 0.0
H879 H 0.23266 0.1201 0.50743 0.0
Li880 Li 0.20044 0.04841 0.8188 0.0
Li881 Li 0.17607 0.03172 0.837 0.0
Li882 Li 0.18737 0.013 0.81311 0.0
Li883 Li 0.16762 0.03546 0.80416 0.0
C884 C 0.21863 0.03517 0.84648 0.0
N885 N 0.25323 0.05025 0.8674 0.0
C886 C 0.21919 0.0433 0.8647 0.0
C887 C 0.23567 0.03459 0.83895 0.0
C888 C 0.23682 0.05086 0.87505 0.0
C889 C 0.25302 0.04234 0.84973 0.0
C890 C 0.18502 0.07642 0.8306 0.0
C891 C 0.19525 0.1113 0.82375 0.0
N892 N 0.20266 0.11664 0.84159 0.0
C893 C 0.19265 0.08226 0.84888 0.0
C894 C 0.18621 0.09105 0.81794 0.0
C895 C 0.2015 0.10267 0.85417 0.0
C896 C 0.2236 0.0776 0.79978 0.0
N897 N 0.22224 0.07107 0.81705 0.0
C898 C 0.24729 0.10019 0.82934 0.0
C899 C 0.23389 0.08184 0.83172 0.0
C900 C 0.24834 0.10778 0.81178 0.0
C901 C 0.23652 0.09596 0.79683 0.0
H902 H 0.21378 0.06917 0.78844 0.0
H903 H 0.23212 0.0769 0.84546 0.0
C904 C 0.16894 0.01812 0.87273 0.0
N905 N 0.16572 0.03077 0.86016 0.0
C906 C 0.16046 0.01735 0.88952 0.0
C907 C 0.14555 0.04253 0.87988 0.0
C908 C 0.15425 0.04278 0.86333 0.0
C909 C 0.14864 0.02973 0.89323 0.0
H910 H 0.17801 0.00861 0.86965 0.0
H911 H 0.1517 0.05237 0.85287 0.0
C912 C 0.19839 0.02546 0.77992 0.0
N913 N 0.21149 1.00763 0.75035 0.0
C914 C 0.18624 0.0176 0.76396 0.0
C915 C 0.21728 0.02456 0.78074 0.0
C916 C 0.19312 0.00859 0.74917 0.0
C917 C 0.22361 0.01537 0.76568 0.0
C918 C 0.14812 0.99825 0.82809 0.0
C919 C 0.1528 0.9819 0.83538 0.0
C920 C 0.13127 1.00257 0.83255 0.0
C921 C 0.14054 0.97016 0.84712 0.0
C922 C 0.11941 0.9905 0.84438 0.0
N923 N 0.12425 0.97468 0.85135 0.0
C924 C 0.20795 0.98457 0.81359 0.0
C925 C 0.1832 0.97827 0.78938 0.0
C926 C 0.21484 0.96947 0.80565 0.0
N927 N 0.19285 0.98908 0.80502 0.0
C928 C 0.18978 0.96323 0.78079 0.0
C929 C 0.20609 0.95911 0.78873 0.0
H930 H 0.21519 0.99332 0.82611 0.0
H931 H 0.17109 0.98214 0.78303 0.0
C932 C 0.15685 0.05412 0.77454 0.0
N933 N 0.14998 0.0395 0.78605 0.0
C934 C 0.14505 0.05707 0.75986 0.0
C935 C 0.11929 0.02988 0.76924 0.0
C936 C 0.13161 0.02749 0.7838 0.0
C937 C 0.12606 0.04472 0.75695 0.0
H938 H 0.17169 0.06306 0.77645 0.0
H939 H 0.12668 0.01576 0.79303 0.0
O940 O 0.20147 0.02732 0.83627 0.0
O941 O 0.17684 0.05643 0.82501 0.0
O942 O 0.19177 0.03386 0.79473 0.0
O943 O 0.16025 0.0103 0.81707 0.0
H944 H 0.2062 0.04391 0.87079 0.0
H945 H 0.23553 0.02831 0.82492 0.0
H946 H 0.23746 0.05726 0.88913 0.0
H947 H 0.26631 0.04207 0.84405 0.0
H948 H 0.19644 0.12276 0.81406 0.0
H949 H 0.192 0.07113 0.85882 0.0
H950 H 0.18042 0.0868 0.80374 0.0
H951 H 0.20759 0.10738 0.86824 0.0
H952 H 0.25616 0.10871 0.84127 0.0
H953 H 0.23633 0.10133 0.78314 0.0
H954 H 0.16319 1.0073 0.89949 0.0
H955 H 0.13619 0.05196 0.88204 0.0
H956 H 0.17157 0.01819 0.76311 0.0
H957 H 0.22689 0.03073 0.79293 0.0
H958 H 0.18384 1.00229 0.73679 0.0
H959 H 0.23814 0.01438 0.7662 0.0
H960 H 0.16587 0.97845 0.83217 0.0
H961 H 0.12757 0.01534 0.82722 0.0
H962 H 0.14402 0.95751 0.85293 0.0
H963 H 0.10641 0.99376 0.84808 0.0
H964 H 0.22751 0.96673 0.81213 0.0
H965 H 0.1826 0.95538 0.76782 0.0
H966 H 0.15095 0.06838 0.75047 0.0
H967 H 0.10473 0.02007 0.76744 0.0
Li968 Li 0.27908 0.94228 0.00638 0.0
Li969 Li 0.28921 0.9122 0.01366 0.0
Li970 Li 0.31078 0.94045 1.00079 0.0
Li971 Li 0.28431 0.9187 0.9822 0.0
C972 C 0.31271 0.95368 0.03599 0.0
N973 N 0.34184 0.98113 0.05795 0.0
C974 C 0.32418 0.94692 0.04866 0.0
C975 C 0.31594 0.97436 0.03455 0.0
C976 C 0.33887 0.96105 0.05963 0.0
C977 C 0.33077 0.98801 0.04576 0.0
C978 C 0.25176 0.8962 0.00562 0.0
C979 C 0.24211 0.86037 0.00895 0.0
N980 N 0.22626 0.86217 0.01699 0.0
C981 C 0.23525 0.89764 0.01371 0.0
C982 C 0.25509 0.87737 0.00301 0.0
C983 C 0.22257 0.88028 0.01944 0.0
C984 C 0.26659 0.97775 0.0082 0.0
N985 N 0.26488 0.95952 0.01497 0.0
C986 C 0.24194 0.96459 0.0354 0.0
C987 C 0.25329 0.95305 0.02866 0.0
C988 C 0.24285 0.98314 0.02819 0.0
C989 C 0.25558 0.98986 0.01462 0.0
H990 H 0.27644 0.98293 0.99781 0.0
H991 H 0.25292 0.93891 0.03435 0.0
C992 C 0.29833 0.87957 0.02908 0.0
N993 N 0.2888 0.8936 0.03167 0.0
C994 C 0.30025 0.8673 0.04315 0.0
C995 C 0.28232 0.88409 0.06219 0.0
C996 C 0.28063 0.89594 0.04768 0.0
C997 C 0.29254 0.86977 0.06014 0.0
H998 H 0.30493 0.87831 0.01631 0.0
H999 H 0.27341 0.9075 0.04937 0.0
C1000 C 0.28228 0.95599 0.97123 0.0
N1001 N 0.26027 0.96999 0.946 0.0
C1002 C 0.29085 0.97209 0.96097 0.0
C1003 C 0.2625 0.94695 0.96859 0.0
C1004 C 0.27948 0.97897 0.9483 0.0
C1005 C 0.25163 0.95427 0.95579 0.0
C1006 C 0.3128 0.90263 0.97945 0.0
C1007 C 0.32599 0.91439 0.96845 0.0
C1008 C 0.30569 0.8818 0.97495 0.0
C1009 C 0.33175 0.90514 0.95307 0.0
C1010 C 0.31176 0.87314 0.95942 0.0
N1011 N 0.32455 0.88488 0.94889 0.0
C1012 C 0.34887 0.94594 0.01079 0.0
C1013 C 0.34358 0.97277 0.99451 0.0
C1014 C 0.36856 0.95484 0.01197 0.0
N1015 N 0.33691 0.95495 1.00215 0.0
C1016 C 0.36328 0.98219 0.99525 0.0
C1017 C 0.37604 0.97307 0.00392 0.0
H1018 H 0.34304 0.93172 0.01667 0.0
H1019 H 0.33363 0.97948 0.98765 0.0
C1020 C 0.26459 0.88795 0.95406 0.0
N1021 N 0.27717 0.90665 0.95765 0.0
C1022 C 0.26295 0.8777 0.93658 0.0
C1023 C 0.28614 0.90678 0.92659 0.0
C1024 C 0.28738 0.91639 0.94422 0.0
C1025 C 0.27436 0.88689 0.92282 0.0
H1026 H 0.25669 0.88051 0.96499 0.0
H1027 H 0.29747 0.93115 0.94752 0.0
O1028 O 0.29861 0.94009 0.02479 0.0
O1029 O 0.26446 0.91308 1.00011 0.0
O1030 O 0.29339 0.94909 0.98356 0.0
O1031 O 0.3065 0.91151 0.99425 0.0
H1032 H 0.32187 0.93092 0.04986 0.0
H1033 H 0.30723 0.97979 0.02471 0.0
H1034 H 0.34793 0.95606 0.06944 0.0
H1035 H 0.33353 1.00407 0.04473 0.0
H1036 H 0.24466 0.84576 0.00718 0.0
H1037 H 0.23209 0.91194 0.01537 0.0
H1038 H 0.26772 0.87596 0.99669 0.0
H1039 H 0.20977 0.8812 0.02577 0.0
H1040 H 0.23259 0.95912 0.04618 0.0
H1041 H 0.25671 1.00411 0.00875 0.0
H1042 H 0.30801 0.85629 0.04088 0.0
H1043 H 0.27639 0.88672 0.07512 0.0
H1044 H 0.30615 0.9792 0.96278 0.0
H1045 H 0.25555 0.93445 0.9763 0.0
H1046 H 0.28593 0.99143 0.94028 0.0
H1047 H 0.23632 0.94744 0.95364 0.0
H1048 H 0.33145 0.93054 0.97147 0.0
H1049 H 0.29541 0.87242 0.98318 0.0
H1050 H 0.34183 0.91409 0.94437 0.0
H1051 H 0.30625 0.85708 0.9557 0.0
H1052 H 0.37782 0.94749 0.01912 0.0
H1053 H 0.36847 0.99617 0.98877 0.0
H1054 H 0.25377 0.86232 0.93424 0.0
H1055 H 0.29499 0.91447 0.91627 0.0
Li1056 Li 0.28532 0.38078 0.0343 0.0
Li1057 Li 0.29881 0.357 0.04944 0.0
Li1058 Li 0.32024 0.38375 0.03355 0.0
Li1059 Li 0.29635 0.35603 0.01508 0.0
C1060 C 0.30299 0.38892 0.07358 0.0
N1061 N 0.29777 0.39125 0.111 0.0
C1062 C 0.28461 0.38595 0.07955 0.0
C1063 C 0.3187 0.39309 0.08667 0.0
C1064 C 0.28227 0.38723 0.09852 0.0
C1065 C 0.31577 0.39418 0.10551 0.0
C1066 C 0.26566 0.33056 0.03095 0.0
C1067 C 0.26629 0.29591 0.0281 0.0
N1068 N 0.24693 0.28972 0.02863 0.0
C1069 C 0.24578 0.32387 0.03147 0.0
C1070 C 0.27603 0.31649 0.02927 0.0
C1071 C 0.23657 0.30315 0.03028 0.0
C1072 C 0.25064 0.38897 0.02316 0.0
N1073 N 0.26688 0.39574 0.03468 0.0
C1074 C 0.25736 0.42443 0.0457 0.0
C1075 C 0.27046 0.41313 0.04582 0.0
C1076 C 0.24044 0.41792 0.03387 0.0
C1077 C 0.23717 0.39986 0.02252 0.0
H1078 H 0.24825 0.37521 0.01429 0.0
H1079 H 0.28356 0.4183 0.05476 0.0
C1080 C 0.31326 0.34118 0.08153 0.0
N1081 N 0.2971 0.34306 0.07241 0.0
C1082 C 0.3129 0.33486 0.09958 0.0
C1083 C 0.27925 0.33219 0.09859 0.0
C1084 C 0.28019 0.33826 0.08047 0.0
C1085 C 0.29582 0.33068 0.1087 0.0
H1086 H 0.32664 0.34534 0.07505 0.0
H1087 H 0.26757 0.34023 0.07321 0.0
C1088 C 0.30342 0.40465 0.00815 0.0
N1089 N 0.30713 0.44349 0.99858 0.0
C1090 C 0.29932 0.40814 0.98981 0.0
C1091 C 0.30951 0.42096 0.02161 0.0
C1092 C 0.30126 0.42788 0.98525 0.0
C1093 C 0.31127 0.44046 0.0165 0.0
C1094 C 0.3331 0.35115 0.02251 0.0
C1095 C 0.33717 0.3599 0.00582 0.0
C1096 C 0.34406 0.33922 0.02937 0.0
C1097 C 0.35214 0.35651 0.99622 0.0
C1098 C 0.35892 0.33619 0.01936 0.0
N1099 N 0.36261 0.34482 0.00313 0.0
C1100 C 0.35885 0.4049 0.0475 0.0
C1101 C 0.35061 0.41046 0.01664 0.0
C1102 C 0.37744 0.41765 0.0467 0.0
N1103 N 0.34577 0.40175 0.03266 0.0
C1104 C 0.3689 0.42342 0.01531 0.0
C1105 C 0.3826 0.42724 0.03047 0.0
H1106 H 0.35493 0.39738 0.05988 0.0
H1107 H 0.34038 0.40718 0.0047 0.0
C1108 C 0.28259 0.34999 0.97749 0.0
N1109 N 0.2919 0.34177 0.99023 0.0
C1110 C 0.2817 0.34407 0.95856 0.0
C1111 C 0.29883 0.32016 0.96603 0.0
C1112 C 0.29953 0.32669 0.9849 0.0
C1113 C 0.29029 0.32929 0.95247 0.0
H1114 H 0.2764 0.36174 0.982 0.0
H1115 H 0.30695 0.32033 0.99515 0.0
O1116 O 0.3055 0.38718 0.05507 0.0
O1117 O 0.2748 0.35081 0.0322 0.0
O1118 O 0.30143 0.38536 0.01288 0.0
O1119 O 0.31867 0.35442 0.03229 0.0
H1120 H 0.27221 0.38221 0.06967 0.0
H1121 H 0.333 0.39527 0.08235 0.0
H1122 H 0.26812 0.38483 0.10332 0.0
H1123 H 0.3278 0.39728 0.11578 0.0
H1124 H 0.27412 0.28485 0.02679 0.0
H1125 H 0.23757 0.3346 0.03281 0.0
H1126 H 0.2914 0.32133 0.02889 0.0
H1127 H 0.22119 0.29776 0.03067 0.0
H1128 H 0.26043 0.43807 0.05488 0.0
H1129 H 0.22453 0.39439 0.01295 0.0
H1130 H 0.32603 0.33356 0.10637 0.0
H1131 H 0.26576 0.32958 0.10482 0.0
H1132 H 0.29476 0.39578 0.97915 0.0
H1133 H 0.31291 0.41864 0.03584 0.0
H1134 H 0.29813 0.43078 0.97111 0.0
H1135 H 0.31593 0.4532 0.02678 0.0
H1136 H 0.3288 0.36912 1.00027 0.0
H1137 H 0.34112 0.3324 0.04231 0.0
H1138 H 0.35541 0.36316 0.98327 0.0
H1139 H 0.36752 0.32698 0.0245 0.0
H1140 H 0.3876 0.42013 0.05871 0.0
H1141 H 0.37239 0.43011 1.00239 0.0
H1142 H 0.2746 0.35126 0.94874 0.0
H1143 H 0.30568 0.30875 0.96207 0.0
Li1144 Li 0.82442 0.15813 0.07001 0.0
Li1145 Li 0.83165 0.13989 0.0439 0.0
Li1146 Li 0.81485 0.16451 0.03945 0.0
Li1147 Li 0.79923 0.13331 0.05177 0.0
C1148 C 0.86024 0.17416 0.05713 0.0
N1149 N 0.89824 0.18364 0.07035 0.0
C1150 C 0.86591 0.16321 0.0708 0.0
C1151 C 0.87389 0.18994 0.0502 0.0
C1152 C 0.88519 0.16823 0.0773 0.0
C1153 C 0.89304 0.1945 0.05706 0.0
C1154 C 0.81872 0.10837 0.06651 0.0
C1155 C 0.81253 0.07571 0.04976 0.0
N1156 N 0.81446 0.06742 0.06601 0.0
C1157 C 0.82065 0.09953 0.08303 0.0
C1158 C 0.81463 0.09638 0.04972 0.0
C1159 C 0.81843 0.0788 0.0825 0.0
C1160 C 0.82103 0.15789 0.10742 0.0
N1161 N 0.83101 0.16924 0.09473 0.0
C1162 C 0.84401 0.19682 0.11756 0.0
C1163 C 0.84271 0.1882 0.09943 0.0
C1164 C 0.83305 0.18579 0.13075 0.0
C1165 C 0.8219 0.16588 0.12564 0.0
H1166 H 0.81167 0.14295 0.10313 0.0
H1167 H 0.85021 0.19701 0.08894 0.0
C1168 C 0.85009 0.12867 0.01448 0.0
N1169 N 0.84952 0.12849 0.03315 0.0
C1170 C 0.86192 0.11932 0.00528 0.0
C1171 C 0.87282 0.11042 0.03483 0.0
C1172 C 0.86067 0.11981 0.04345 0.0
C1173 C 0.87334 0.10989 0.01548 0.0
H1174 H 0.84111 0.13584 0.00673 0.0
H1175 H 0.85982 0.11979 0.05827 0.0
C1176 C 0.79753 0.17899 0.06796 0.0
N1177 N 0.79423 0.2156 0.08243 0.0
C1178 C 0.78093 0.17994 0.07615 0.0
C1179 C 0.81243 0.1967 0.06708 0.0
C1180 C 0.77954 0.19858 0.08339 0.0
C1181 C 0.81049 0.21504 0.07449 0.0
C1182 C 0.79378 0.13403 0.01376 0.0
C1183 C 0.77758 0.13997 0.01774 0.0
C1184 C 0.79462 0.12494 0.99621 0.0
C1185 C 0.76251 0.13678 0.00407 0.0
C1186 C 0.77925 0.12202 0.98291 0.0
N1187 N 0.76366 0.12796 0.98708 0.0
C1188 C 0.82439 0.18802 0.00999 0.0
C1189 C 0.79549 0.18998 0.0222 0.0
C1190 C 0.82151 0.19938 0.99548 0.0
N1191 N 0.81132 0.18333 0.02277 0.0
C1192 C 0.7921 0.2015 0.00799 0.0
C1193 C 0.805 0.20593 0.99419 0.0
H1194 H 0.8367 0.18225 0.01071 0.0
H1195 H 0.78507 0.18563 0.03227 0.0
C1196 C 0.76395 0.11839 0.06567 0.0
N1197 N 0.7752 0.11398 0.05278 0.0
C1198 C 0.74491 0.10691 0.06557 0.0
C1199 C 0.7498 0.08563 0.03975 0.0
C1200 C 0.76871 0.09773 0.04019 0.0
C1201 C 0.73744 0.09054 0.0522 0.0
H1202 H 0.76957 0.13139 0.07551 0.0
H1203 H 0.77794 0.09465 0.02998 0.0
O1204 O 0.84148 0.16958 0.05042 0.0
O1205 O 0.8209 0.12867 0.06695 0.0
O1206 O 0.79911 0.16075 0.06101 0.0
O1207 O 0.80877 0.13692 0.02687 0.0
H1208 H 0.8556 0.15097 0.07638 0.0
H1209 H 0.86972 0.19855 0.03961 0.0
H1210 H 0.88978 0.15987 0.08786 0.0
H1211 H 0.90376 0.20667 0.05182 0.0
H1212 H 0.80938 0.06627 0.03687 0.0
H1213 H 0.82383 0.10862 0.09614 0.0
H1214 H 0.81315 0.1029 0.03678 0.0
H1215 H 0.81988 0.07177 0.09519 0.0
H1216 H 0.85258 0.21231 0.12092 0.0
H1217 H 0.81338 0.15684 0.13546 0.0
H1218 H 0.86206 0.11936 0.99036 0.0
H1219 H 0.88126 0.10308 0.04315 0.0
H1220 H 0.76921 0.16643 0.07691 0.0
H1221 H 0.82538 0.19637 0.06077 0.0
H1222 H 0.76677 0.19952 0.08979 0.0
H1223 H 0.82193 0.22884 0.07392 0.0
H1224 H 0.77656 0.14692 0.03124 0.0
H1225 H 0.807 0.12016 0.9929 0.0
H1226 H 0.74991 0.14131 0.00699 0.0
H1227 H 0.77972 0.11502 0.96927 0.0
H1228 H 0.83184 0.20261 0.98515 0.0
H1229 H 0.77906 0.20603 0.0073 0.0
H1230 H 0.73594 0.11152 0.07528 0.0
H1231 H 0.74478 0.07297 0.02939 0.0
Li1232 Li 0.15413 0.52727 0.24597 0.0
Li1233 Li 0.12709 0.5055 0.25827 0.0
Li1234 Li 0.15366 0.49353 0.25172 0.0
Li1235 Li 0.13198 0.49955 0.22652 0.0
C1236 C 0.17099 0.52245 0.27967 0.0
N1237 N 0.20676 0.53672 0.29859 0.0
C1238 C 0.17269 0.52748 0.29876 0.0
C1239 C 0.1875 0.52469 0.27019 0.0
C1240 C 0.1909 0.53467 0.30808 0.0
C1241 C 0.20545 0.53192 0.28001 0.0
C1242 C 0.12319 0.54179 0.24081 0.0
C1243 C 0.11753 0.57112 0.22806 0.0
N1244 N 0.11642 0.579 0.24545 0.0
C1245 C 0.12189 0.55016 0.25855 0.0
C1246 C 0.1209 0.55232 0.22542 0.0
C1247 C 0.1185 0.56899 0.26061 0.0
C1248 C 0.18391 0.56211 0.23617 0.0
N1249 N 0.17051 0.55469 0.24819 0.0
C1250 C 0.1805 0.58595 0.26712 0.0
C1251 C 0.16889 0.56612 0.26361 0.0
C1252 C 0.19427 0.59398 0.25486 0.0
C1253 C 0.19598 0.58181 0.23925 0.0
H1254 H 0.18562 0.55283 0.22434 0.0
H1255 H 0.15883 0.55968 0.27346 0.0
C1256 C 0.1099 0.49809 0.29149 0.0
N1257 N 0.10718 0.50325 0.27403 0.0
C1258 C 0.09563 0.49664 0.30366 0.0
C1259 C 0.07605 0.50584 0.27958 0.0
C1260 C 0.09057 0.50669 0.26774 0.0
C1261 C 0.07863 0.50089 0.29779 0.0
H1262 H 0.12326 0.49534 0.29598 0.0
H1263 H 0.0888 0.51051 0.25364 0.0
C1264 C 0.16746 0.51501 0.21256 0.0
N1265 N 0.18113 0.53057 0.18024 0.0
C1266 C 0.15732 0.52542 0.20207 0.0
C1267 C 0.18455 0.51249 0.2066 0.0
C1268 C 0.16445 0.53317 0.18577 0.0
C1269 C 0.19123 0.5205 0.19024 0.0
C1270 C 0.11124 0.46656 0.25172 0.0
C1271 C 0.11373 0.45654 0.26739 0.0
C1272 C 0.09285 0.46383 0.2434 0.0
C1273 C 0.09767 0.4441 0.27464 0.0
C1274 C 0.07716 0.45126 0.25108 0.0
N1275 N 0.07987 0.44176 0.26641 0.0
C1276 C 0.1717 0.47387 0.27677 0.0
C1277 C 0.17898 0.47117 0.24543 0.0
C1278 C 0.18516 0.4641 0.28216 0.0
N1279 N 0.16917 0.47745 0.25873 0.0
C1280 C 0.19256 0.46136 0.25018 0.0
C1281 C 0.19602 0.45806 0.2688 0.0
H1282 H 0.1637 0.4792 0.28702 0.0
H1283 H 0.17655 0.47422 0.23121 0.0
C1284 C 0.10346 0.49739 0.1996 0.0
N1285 N 0.11848 0.49008 0.20351 0.0
C1286 C 0.0926 0.49164 0.18277 0.0
C1287 C 0.11244 0.47026 0.17454 0.0
C1288 C 0.12304 0.47657 0.19161 0.0
C1289 C 0.0971 0.47802 0.16988 0.0
H1290 H 0.10011 0.50796 0.20949 0.0
H1291 H 0.13501 0.4709 0.1953 0.0
O1292 O 0.15318 0.51544 0.27045 0.0
O1293 O 0.12656 0.52336 0.23844 0.0
O1294 O 0.16063 0.507 0.22843 0.0
O1295 O 0.12672 0.47923 0.24473 0.0
H1296 H 0.16004 0.52585 0.30629 0.0
H1297 H 0.18655 0.52091 0.25542 0.0
H1298 H 0.19242 0.53862 0.32287 0.0
H1299 H 0.21833 0.53372 0.27284 0.0
H1300 H 0.11577 0.57943 0.21627 0.0
H1301 H 0.12382 0.54239 0.27066 0.0
H1302 H 0.12166 0.54604 0.21156 0.0
H1303 H 0.11761 0.57569 0.27427 0.0
H1304 H 0.17901 0.59475 0.27951 0.0
H1305 H 0.20648 0.5875 0.22949 0.0
H1306 H 0.09818 0.49313 0.31775 0.0
H1307 H 0.06314 0.50934 0.27472 0.0
H1308 H 0.14416 0.52761 0.2065 0.0
H1309 H 0.1926 0.5045 0.21457 0.0
H1310 H 0.15675 0.54127 0.17754 0.0
H1311 H 0.20446 0.51869 0.18548 0.0
H1312 H 0.12789 0.45855 0.27399 0.0
H1313 H 0.0907 0.47154 0.23129 0.0
H1314 H 0.09935 0.43636 0.28684 0.0
H1315 H 0.06282 0.44912 0.24488 0.0
H1316 H 0.1875 0.4619 0.29666 0.0
H1317 H 0.20041 0.45659 0.23944 0.0
H1318 H 0.08126 0.49844 0.17965 0.0
H1319 H 0.11634 0.45969 0.16504 0.0
Li1320 Li 0.78313 0.8795 0.53435 0.0
Li1321 Li 0.79486 0.85478 0.5512 0.0
Li1322 Li 0.81731 0.8819 0.53452 0.0
Li1323 Li 0.79448 0.85328 0.51576 0.0
C1324 C 0.79825 0.8997 0.56678 0.0
N1325 N 0.78901 0.92967 0.58791 0.0
C1326 C 0.79049 0.8957 0.58377 0.0
C1327 C 0.80155 0.91903 0.56068 0.0
C1328 C 0.78586 0.91103 0.59422 0.0
C1329 C 0.79671 0.93396 0.57151 0.0
C1330 C 0.7588 0.83214 0.5349 0.0
C1331 C 0.74669 0.79582 0.5318 0.0
N1332 N 0.73111 0.797 0.54068 0.0
C1333 C 0.74257 0.83302 0.5438 0.0
C1334 C 0.7608 0.81342 0.52868 0.0
C1335 C 0.72877 0.81508 0.54667 0.0
C1336 C 0.7616 0.9041 0.51942 0.0
N1337 N 0.76408 0.89382 0.53428 0.0
C1338 C 0.73935 0.90376 0.54909 0.0
C1339 C 0.75312 0.89326 0.54887 0.0
C1340 C 0.73668 0.91486 0.53408 0.0
C1341 C 0.74804 0.91486 0.51908 0.0
H1342 H 0.77013 0.90394 0.50778 0.0
H1343 H 0.75505 0.88463 0.56036 0.0
C1344 C 0.80825 0.83799 0.583 0.0
N1345 N 0.79259 0.84185 0.57471 0.0
C1346 C 0.80816 0.83196 0.60114 0.0
C1347 C 0.77583 0.8339 0.60211 0.0
C1348 C 0.77647 0.83968 0.58388 0.0
C1349 C 0.79193 0.8302 0.61124 0.0
H1350 H 0.82111 0.8402 0.57573 0.0
H1351 H 0.76442 0.84358 0.57748 0.0
C1352 C 0.81059 0.89682 0.50279 0.0
N1353 N 0.83357 0.92506 0.48228 0.0
C1354 C 0.82111 0.89077 0.48921 0.0
C1355 C 0.8117 0.91726 0.50582 0.0
C1356 C 0.83264 0.90526 0.47901 0.0
C1357 C 0.82342 0.93129 0.49535 0.0
C1358 C 0.82045 0.83513 0.52999 0.0
C1359 C 0.83471 0.83535 0.51791 0.0
C1360 C 0.8111 0.81712 0.53736 0.0
C1361 C 0.83934 0.8175 0.51336 0.0
C1362 C 0.81614 0.79959 0.53248 0.0
N1363 N 0.83003 0.80014 0.52068 0.0
C1364 C 0.84893 0.9161 0.54825 0.0
C1365 C 0.85437 0.89691 0.52209 0.0
C1366 C 0.86705 0.92994 0.54789 0.0
N1367 N 0.84283 0.90013 0.53526 0.0
C1368 C 0.87242 0.9105 0.52104 0.0
C1369 C 0.87891 0.92738 0.53395 0.0
H1370 H 0.83972 0.91819 0.55883 0.0
H1371 H 0.84944 0.88396 0.51215 0.0
C1372 C 0.78493 0.8486 0.47726 0.0
N1373 N 0.79036 0.8384 0.49101 0.0
C1374 C 0.78403 0.8416 0.4586 0.0
C1375 C 0.79251 0.81245 0.46828 0.0
C1376 C 0.79374 0.82033 0.48683 0.0
C1377 C 0.78803 0.82331 0.45365 0.0
H1378 H 0.782 0.86277 0.48071 0.0
H1379 H 0.79762 0.81205 0.49779 0.0
O1380 O 0.8025 0.88475 0.55614 0.0
O1381 O 0.77245 0.84954 0.53198 0.0
O1382 O 0.79936 0.88284 0.51308 0.0
O1383 O 0.8158 0.85249 0.53468 0.0
H1384 H 0.78804 0.88095 0.58886 0.0
H1385 H 0.80773 0.92246 0.5477 0.0
H1386 H 0.77976 0.9081 0.60736 0.0
H1387 H 0.79909 0.94894 0.56687 0.0
H1388 H 0.74811 0.78122 0.52712 0.0
H1389 H 0.74071 0.8474 0.54854 0.0
H1390 H 0.77309 0.81249 0.52146 0.0
H1391 H 0.7162 0.81553 0.55366 0.0
H1392 H 0.73072 0.90297 0.56081 0.0
H1393 H 0.74665 0.92328 0.50726 0.0
H1394 H 0.82086 0.82898 0.60723 0.0
H1395 H 0.76307 0.83324 0.6092 0.0
H1396 H 0.82078 0.87511 0.48687 0.0
H1397 H 0.8036 0.92229 0.51611 0.0
H1398 H 0.84097 0.90078 0.46859 0.0
H1399 H 0.82443 0.94715 0.49762 0.0
H1400 H 0.84206 0.84908 0.51199 0.0
H1401 H 0.79997 0.8166 0.54665 0.0
H1402 H 0.8503 0.81744 0.50398 0.0
H1403 H 0.80896 0.78554 0.53805 0.0
H1404 H 0.87158 0.94273 0.55817 0.0
H1405 H 0.88127 0.90776 0.51028 0.0
H1406 H 0.78081 0.85097 0.44824 0.0
H1407 H 0.79518 0.79801 0.46556 0.0
Li1408 Li 0.95068 0.03732 0.26331 0.0
Li1409 Li 0.91965 0.01577 0.24883 0.0
Li1410 Li 0.94225 0.03966 0.23164 0.0
Li1411 Li 0.92468 0.05154 0.25497 0.0
C1412 C 0.95756 1.00464 0.24813 0.0
N1413 N 0.98186 0.98304 0.2601 0.0
C1414 C 0.9501 0.98557 0.25449 0.0
C1415 C 0.97737 0.01264 0.24768 0.0
C1416 C 0.96263 0.9749 0.26052 0.0
C1417 C 0.98941 1.00151 0.25385 0.0
C1418 C 0.9168 0.0369 0.28777 0.0
C1419 C 0.8886 0.03973 0.30208 0.0
N1420 N 0.89981 0.04969 0.31733 0.0
C1421 C 0.92803 0.04705 0.30361 0.0
C1422 C 0.89691 0.03306 0.28702 0.0
C1423 C 0.91917 0.05342 0.31841 0.0
C1424 C 0.98561 0.05512 0.28517 0.0
N1425 N 0.97026 0.03849 0.28182 0.0
C1426 C 0.98149 0.02253 0.30643 0.0
C1427 C 0.9679 0.02243 0.29215 0.0
C1428 C 0.99738 0.03964 0.31057 0.0
C1429 C 0.99943 0.05605 0.29961 0.0
H1430 H 0.98691 0.06781 0.27688 0.0
H1431 H 0.95534 0.00958 0.28934 0.0
C1432 C 0.89408 0.97837 0.2329 0.0
N1433 N 0.90145 0.99016 0.24877 0.0
C1434 C 0.88004 0.96 0.23352 0.0
C1435 C 0.88261 0.96562 0.2669 0.0
C1436 C 0.8962 0.98405 0.26559 0.0
C1437 C 0.8741 0.95338 0.25072 0.0
H1438 H 0.89898 0.98325 0.21974 0.0
H1439 H 0.90277 0.99339 0.27804 0.0
C1440 C 0.96254 0.07703 0.24144 0.0
N1441 N 0.98295 0.10617 0.2202 0.0
C1442 C 0.95488 0.09224 0.23581 0.0
C1443 C 0.98065 0.07672 0.23642 0.0
C1444 C 0.96542 0.10683 0.22506 0.0
C1445 C 0.99071 0.09155 0.22561 0.0
C1446 C 0.89863 0.02444 0.22034 0.0
C1447 C 0.90063 0.0187 0.20193 0.0
C1448 C 0.88053 0.01888 0.2272 0.0
C1449 C 0.88448 1.00744 0.19069 0.0
C1450 C 0.86474 1.0076 0.21552 0.0
N1451 N 0.86703 1.00216 0.19766 0.0
C1452 C 0.96226 0.03086 0.20261 0.0
C1453 C 0.94813 0.05706 0.19712 0.0
C1454 C 0.96957 0.03213 0.18534 0.0
N1455 N 0.9519 0.04329 0.20818 0.0
C1456 C 0.95524 0.05891 0.17967 0.0
C1457 C 0.96617 0.04635 0.17365 0.0
H1458 H 0.96464 0.01973 0.21148 0.0
H1459 H 0.9395 0.06647 0.20182 0.0
C1460 C 0.91865 0.08305 0.27811 0.0
N1461 N 0.91196 0.07041 0.26258 0.0
C1462 C 0.90733 0.09418 0.28573 0.0
C1463 C 0.88317 0.08004 0.26045 0.0
C1464 C 0.89492 0.06921 0.25338 0.0
C1465 C 0.88912 0.09227 0.2771 0.0
H1466 H 0.93237 0.08376 0.28503 0.0
H1467 H 0.8902 0.05942 0.24083 0.0
O1468 O 0.94554 0.01542 0.24235 0.0
O1469 O 0.92523 0.03088 0.27299 0.0
O1470 O 0.95235 0.06249 0.25177 0.0
O1471 O 0.91427 0.03558 0.23154 0.0
H1472 H 0.93482 0.97911 0.25487 0.0
H1473 H 0.98337 0.0274 0.24284 0.0
H1474 H 0.95706 0.96017 0.26555 0.0
H1475 H 1.00477 1.00758 0.25373 0.0
H1476 H 0.87325 0.03704 0.30163 0.0
H1477 H 0.94345 0.05016 0.30441 0.0
H1478 H 0.88802 0.02522 0.27485 0.0
H1479 H 0.92769 0.06139 0.33073 0.0
H1480 H 0.97945 0.00935 0.31421 0.0
H1481 H 1.01126 0.06966 0.30245 0.0
H1482 H 0.87393 0.95117 0.22065 0.0
H1483 H 0.87914 0.96091 0.28053 0.0
H1484 H 0.94088 0.09267 0.2396 0.0
H1485 H 0.98675 0.06501 0.24066 0.0
H1486 H 0.95964 0.11865 0.22052 0.0
H1487 H 1.00467 0.09143 0.2215 0.0
H1488 H 0.91449 0.02276 0.19636 0.0
H1489 H 0.87872 0.02302 0.24145 0.0
H1490 H 0.88583 1.00286 0.17643 0.0
H1491 H 0.85068 1.00311 0.22068 0.0
H1492 H 0.97753 0.02183 0.18106 0.0
H1493 H 0.95233 0.07007 0.17104 0.0
H1494 H 0.91244 0.10357 0.29854 0.0
H1495 H 0.86948 0.07868 0.25308 0.0
Li1496 Li 0.32315 0.66932 0.57169 0.0
Li1497 Li 0.33168 0.64693 0.55016 0.0
Li1498 Li 0.31521 0.67106 0.54026 0.0
Li1499 Li 0.29818 0.64168 0.55531 0.0
C1500 C 0.35604 0.6894 0.56343 0.0
N1501 N 0.38479 0.71459 0.58751 0.0
C1502 C 0.36946 0.68175 0.57266 0.0
C1503 C 0.35728 0.70987 0.56635 0.0
C1504 C 0.38389 0.69474 0.58479 0.0
C1505 C 0.37191 0.72236 0.57861 0.0
C1506 C 0.31199 0.63346 0.58953 0.0
C1507 C 0.31042 0.61279 0.61529 0.0
N1508 N 0.29766 0.62139 0.62273 0.0
C1509 C 0.29881 0.64207 0.59744 0.0
C1510 C 0.31784 0.6187 0.59854 0.0
C1511 C 0.29177 0.63578 0.61422 0.0
C1512 C 0.32321 0.70047 0.59806 0.0
N1513 N 0.32996 0.68431 0.59516 0.0
C1514 C 0.33998 0.6859 0.62728 0.0
C1515 C 0.33897 0.67743 0.60914 0.0
C1516 C 0.33189 0.70176 0.63085 0.0
C1517 C 0.32425 0.70964 0.61583 0.0
H1518 H 0.31625 0.70572 0.58672 0.0
H1519 H 0.34432 0.66458 0.6064 0.0
C1520 C 0.35218 0.63317 0.52439 0.0
N1521 N 0.34871 0.6329 0.54257 0.0
C1522 C 0.36184 0.62037 0.51673 0.0
C1523 C 0.36517 0.60817 0.54696 0.0
C1524 C 0.35514 0.62102 0.55399 0.0
C1525 C 0.36816 0.60747 0.52802 0.0
H1526 H 0.34667 0.64272 0.5157 0.0
H1527 H 0.35189 0.62102 0.56833 0.0
C1528 C 0.28707 0.68198 0.55516 0.0
N1529 N 0.26497 0.70614 0.5437 0.0
C1530 C 0.26718 0.67412 0.55233 0.0
C1531 C 0.29566 0.7023 0.55258 0.0
C1532 C 0.25627 0.68653 0.54645 0.0
C1533 C 0.28426 0.71421 0.54665 0.0
C1534 C 0.30513 0.62345 0.52269 0.0
C1535 C 0.30063 0.6207 0.50355 0.0
C1536 C 0.30516 0.60681 0.53264 0.0
C1537 C 0.29628 0.60131 0.49464 0.0
C1538 C 0.30075 0.58767 0.52322 0.0
N1539 N 0.29644 0.58533 0.50458 0.0
C1540 C 0.32491 0.70328 0.51659 0.0
C1541 C 0.29507 0.67832 0.50941 0.0
C1542 C 0.3216 0.71351 0.50133 0.0
N1543 N 0.31166 0.68606 0.52026 0.0
C1544 C 0.29121 0.68799 0.49404 0.0
C1545 C 0.30462 0.70575 0.48978 0.0
H1546 H 0.33805 0.70894 0.52541 0.0
H1547 H 0.28487 0.66457 0.51274 0.0
C1548 C 0.2681 0.60796 0.56633 0.0
N1549 N 0.27394 0.62201 0.55397 0.0
C1550 C 0.24952 0.5949 0.56427 0.0
C1551 C 0.24391 0.61001 0.53611 0.0
C1552 C 0.26246 0.62287 0.53882 0.0
C1553 C 0.23715 0.59608 0.54912 0.0
H1554 H 0.27765 0.60687 0.57785 0.0
H1555 H 0.26762 0.63396 0.52907 0.0
O1556 O 0.34152 0.67679 0.55192 0.0
O1557 O 0.31952 0.63959 0.5733 0.0
O1558 O 0.29799 0.66996 0.56081 0.0
O1559 O 0.30957 0.64241 0.53154 0.0
H1560 H 0.36861 0.66591 0.57062 0.0
H1561 H 0.34691 0.71599 0.55942 0.0
H1562 H 0.39432 0.68901 0.59211 0.0
H1563 H 0.37298 0.7382 0.5811 0.0
H1564 H 0.31484 0.60138 0.6224 0.0
H1565 H 0.29403 0.65348 0.59077 0.0
H1566 H 0.32805 0.6119 0.59266 0.0
H1567 H 0.2816 0.64234 0.62049 0.0
H1568 H 0.34601 0.67934 0.63843 0.0
H1569 H 0.3184 0.72226 0.61786 0.0
H1570 H 0.3641 0.6203 0.50211 0.0
H1571 H 0.36983 0.59832 0.556 0.0
H1572 H 0.26018 0.65867 0.55487 0.0
H1573 H 0.31102 0.7087 0.55475 0.0
H1574 H 0.24086 0.68058 0.54414 0.0
H1575 H 0.29077 0.72986 0.54434 0.0
H1576 H 0.30055 0.63344 0.49567 0.0
H1577 H 0.30859 0.60863 0.54747 0.0
H1578 H 0.29279 0.59895 0.47982 0.0
H1579 H 0.30075 0.57467 0.53074 0.0
H1580 H 0.33237 0.72706 0.49836 0.0
H1581 H 0.27786 0.68166 0.4856 0.0
H1582 H 0.24482 0.58411 0.57443 0.0
H1583 H 0.23472 0.61147 0.52432 0.0
Li1584 Li 0.41382 0.52871 0.73982 0.0
Li1585 Li 0.4455 0.54433 0.7557 0.0
Li1586 Li 0.42334 0.56335 0.74924 0.0
Li1587 Li 0.4384 0.55089 0.72418 0.0
C1588 C 0.41522 0.54851 0.78151 0.0
N1589 N 0.40538 0.56509 0.81378 0.0
C1590 C 0.42899 0.55624 0.79637 0.0
C1591 C 0.39639 0.54904 0.78319 0.0
C1592 C 0.42373 0.56456 0.81254 0.0
C1593 C 0.39172 0.55756 0.79956 0.0
C1594 C 0.45436 0.51968 0.72833 0.0
C1595 C 0.48818 0.52867 0.72424 0.0
N1596 N 0.48622 0.50938 0.71749 0.0
C1597 C 0.45267 0.49996 0.72134 0.0
C1598 C 0.47225 0.53419 0.7298 0.0
C1599 C 0.46895 0.49505 0.71594 0.0
C1600 C 0.39011 0.49213 0.72135 0.0
N1601 N 0.39386 0.50429 0.73738 0.0
C1602 C 0.37042 0.48031 0.75219 0.0
C1603 C 0.38427 0.49886 0.75258 0.0
C1604 C 0.36651 0.46713 0.73603 0.0
C1605 C 0.37634 0.47334 0.72035 0.0
H1606 H 0.39813 0.49687 0.70954 0.0
H1607 H 0.38781 0.50866 0.76521 0.0
C1608 C 0.47991 0.55396 0.77928 0.0
N1609 N 0.46355 0.53949 0.77293 0.0
C1610 C 0.49159 0.55044 0.79386 0.0
C1611 C 0.46962 0.51701 0.79445 0.0
C1612 C 0.45844 0.52115 0.77987 0.0
C1613 C 0.48617 0.53194 0.80191 0.0
H1614 H 0.48345 0.56846 0.77352 0.0
H1615 H 0.44527 0.51003 0.77449 0.0
C1616 C 0.39375 0.54211 0.7153 0.0
N1617 N 0.35833 0.52386 0.69666 0.0
C1618 C 0.39208 0.53834 0.69604 0.0
C1619 C 0.3773 0.53702 0.72501 0.0
C1620 C 0.37408 0.529 0.68688 0.0
C1621 C 0.35956 0.52767 0.71537 0.0
C1622 C 0.45698 0.5902 0.73996 0.0
C1623 C 0.44488 0.59685 0.72783 0.0
C1624 C 0.47484 0.60331 0.74646 0.0
C1625 C 0.45093 0.61647 0.72233 0.0
C1626 C 0.48036 0.62282 0.74063 0.0
N1627 N 0.4684 0.62894 0.72879 0.0
C1628 C 0.42377 0.59638 0.77421 0.0
C1629 C 0.39798 0.58687 0.7509 0.0
C1630 C 0.41555 0.6099 0.78313 0.0
N1631 N 0.41453 0.58475 0.7588 0.0
C1632 C 0.38939 0.60032 0.7592 0.0
C1633 C 0.39796 0.61165 0.77576 0.0
H1634 H 0.43708 0.5945 0.78 0.0
H1635 H 0.39113 0.57765 0.73849 0.0
C1636 C 0.44076 0.53808 0.68807 0.0
N1637 N 0.44873 0.55385 0.70085 0.0
C1638 C 0.44771 0.5377 0.67064 0.0
C1639 C 0.4713 0.56967 0.67995 0.0
C1640 C 0.46386 0.56942 0.69722 0.0
C1641 C 0.46325 0.5536 0.66645 0.0
H1642 H 0.42915 0.52559 0.69159 0.0
H1643 H 0.47056 0.58138 0.70779 0.0
O1644 O 0.42017 0.54059 0.76542 0.0
O1645 O 0.43846 0.52471 0.73343 0.0
O1646 O 0.41132 0.55109 0.72454 0.0
O1647 O 0.45139 0.57114 0.74578 0.0
H1648 H 0.44363 0.55606 0.7954 0.0
H1649 H 0.38551 0.54317 0.7719 0.0
H1650 H 0.43428 0.5707 0.82408 0.0
H1651 H 0.37725 0.55825 0.80095 0.0
H1652 H 0.5021 0.53974 0.72528 0.0
H1653 H 0.4389 0.4886 0.72006 0.0
H1654 H 0.47384 0.54956 0.73506 0.0
H1655 H 0.46785 0.47984 0.7105 0.0
H1656 H 0.36354 0.47595 0.76472 0.0
H1657 H 0.37371 0.4636 0.70762 0.0
H1658 H 0.50416 0.56238 0.79936 0.0
H1659 H 0.4651 0.5025 0.80019 0.0
H1660 H 0.40449 0.54276 0.68818 0.0
H1661 H 0.37826 0.54001 0.73988 0.0
H1662 H 0.37262 0.52591 0.67199 0.0
H1663 H 0.34677 0.52344 0.72277 0.0
H1664 H 0.43101 0.58703 0.72262 0.0
H1665 H 0.48435 0.59846 0.7559 0.0
H1666 H 0.44173 0.62179 0.71293 0.0
H1667 H 0.49416 0.6331 0.74553 0.0
H1668 H 0.42266 0.6186 0.79578 0.0
H1669 H 0.37578 0.60123 0.75314 0.0
H1670 H 0.44109 0.52503 0.66062 0.0
H1671 H 0.48361 0.58196 0.6774 0.0
Li1672 Li 0.62612 0.99653 0.75534 0.0
Li1673 Li 0.6532 0.0212 0.74294 0.0
Li1674 Li 0.63355 0.99156 0.72533 0.0
Li1675 Li 0.65499 0.98703 0.75035 0.0
C1676 C 0.61637 0.02005 0.72083 0.0
N1677 N 0.59824 0.02986 0.68979 0.0
C1678 C 0.62585 0.0363 0.71115 0.0
C1679 C 0.59756 0.00897 0.71486 0.0
C1680 C 0.61645 0.041 0.69547 0.0
C1681 C 0.58869 0.01409 0.69907 0.0
C1682 C 0.66823 0.01811 0.77871 0.0
C1683 C 0.70261 0.03081 0.78371 0.0
N1684 N 0.70088 0.0364 0.80168 0.0
C1685 C 0.66678 0.02396 0.79722 0.0
C1686 C 0.68627 0.02154 0.77189 0.0
C1687 C 0.68346 0.0332 0.80861 0.0
C1688 C 0.61154 0.98851 0.78929 0.0
N1689 N 0.60748 0.99466 0.77255 0.0
C1690 C 0.57859 1.00005 0.78238 0.0
C1691 C 0.59131 1.00015 0.76874 0.0
C1692 C 0.58277 0.99449 0.8001 0.0
C1693 C 0.59934 0.98831 0.80335 0.0
H1694 H 0.62461 0.98435 0.79186 0.0
H1695 H 0.58853 1.00504 0.75527 0.0
C1696 C 0.68544 0.05404 0.73822 0.0
N1697 N 0.66779 0.04863 0.74472 0.0
C1698 C 0.6968 0.07406 0.74081 0.0
C1699 C 0.67156 0.08251 0.75669 0.0
C1700 C 0.66068 0.06232 0.75377 0.0
C1701 C 0.68995 0.08859 0.75028 0.0
H1702 H 0.69086 0.04272 0.73141 0.0
H1703 H 0.64668 0.05744 0.75902 0.0
C1704 C 0.61389 0.95737 0.75094 0.0
N1705 N 0.58474 0.931 0.76731 0.0
C1706 C 0.61807 0.94424 0.7633 0.0
C1707 C 0.59482 0.95678 0.74662 0.0
C1708 C 0.60316 0.93109 0.7715 0.0
C1709 C 0.5803 0.94345 0.75513 0.0
C1710 C 0.66715 0.99444 0.71153 0.0
C1711 C 0.67636 1.0077 0.69896 0.0
C1712 C 0.66255 0.97361 0.70713 0.0
C1713 C 0.68073 0.99986 0.68212 0.0
C1714 C 0.66716 0.96637 0.69015 0.0
N1715 N 0.67608 0.97954 0.6781 0.0
C1716 C 0.62785 0.99367 0.68682 0.0
C1717 C 0.60803 0.96423 0.69825 0.0
C1718 C 0.61789 0.98864 0.66947 0.0
N1719 N 0.62246 0.98178 0.70091 0.0
C1720 C 0.59738 0.9588 0.68116 0.0
C1721 C 0.60206 0.97138 0.66671 0.0
H1722 H 0.63913 1.00771 0.68936 0.0
H1723 H 0.60417 0.95493 0.7096 0.0
C1724 C 0.67009 0.96726 0.77735 0.0
N1725 N 0.67224 0.97387 0.76014 0.0
C1726 C 0.68305 0.95811 0.78524 0.0
C1727 C 0.70055 0.96358 0.75783 0.0
C1728 C 0.68725 0.97252 0.75047 0.0
C1729 C 0.69844 0.95606 0.77535 0.0
H1730 H 0.65836 0.9692 0.78496 0.0
H1731 H 0.68912 0.97872 0.7372 0.0
O1732 O 0.62549 0.01502 0.73603 0.0
O1733 O 0.65199 0.00906 0.76743 0.0
O1734 O 0.62835 0.97055 0.74294 0.0
O1735 O 0.6625 1.00179 0.72799 0.0
H1736 H 0.6404 0.04504 0.71553 0.0
H1737 H 0.59 0.99634 0.72214 0.0
H1738 H 0.62366 0.05344 0.68777 0.0
H1739 H 0.57423 1.00548 0.69416 0.0
H1740 H 0.71666 0.03356 0.77861 0.0
H1741 H 0.6529 0.0214 0.8027 0.0
H1742 H 0.68768 0.01708 0.75761 0.0
H1743 H 0.68255 0.03781 0.82296 0.0
H1744 H 0.56592 1.00478 0.77925 0.0
H1745 H 0.60339 0.98432 0.81687 0.0
H1746 H 0.71081 0.07811 0.73548 0.0
H1747 H 0.66583 0.09313 0.7643 0.0
H1748 H 0.63265 0.94408 0.76645 0.0
H1749 H 0.59128 0.96677 0.73706 0.0
H1750 H 0.60622 0.92092 0.78116 0.0
H1751 H 0.56552 0.94303 0.75208 0.0
H1752 H 0.67985 0.02386 0.70204 0.0
H1753 H 0.65535 0.96315 0.71669 0.0
H1754 H 0.68776 0.00994 0.67221 0.0
H1755 H 0.66362 0.9503 0.68653 0.0
H1756 H 0.62165 0.99894 0.65874 0.0
H1757 H 0.5852 0.94541 0.67946 0.0
H1758 H 0.68093 0.95254 0.7988 0.0
H1759 H 0.71253 0.96283 0.74998 0.0
Li1760 Li 0.80871 0.71371 0.04203 0.0
Li1761 Li 0.82212 0.68976 0.02314 0.0
Li1762 Li 0.80898 0.71397 0.00791 0.0
Li1763 Li 0.7872 0.6867 0.02145 0.0
C1764 C 0.84833 0.72602 0.03777 0.0
N1765 N 0.88199 0.73781 0.06042 0.0
C1766 C 0.85084 0.71491 0.05268 0.0
C1767 C 0.86295 0.74308 0.03436 0.0
C1768 C 0.86796 0.72112 0.06396 0.0
C1769 C 0.87985 0.74882 0.04598 0.0
C1770 C 0.79478 0.66604 0.04885 0.0
C1771 C 0.78228 0.62988 0.04301 0.0
N1772 N 0.77405 0.62902 0.05939 0.0
C1773 C 0.78629 0.66479 0.06567 0.0
C1774 C 0.79284 0.64844 0.03745 0.0
C1775 C 0.77583 0.64594 0.07073 0.0
C1776 C 0.79255 0.72014 0.07509 0.0
N1777 N 0.80921 0.72688 0.06688 0.0
C1778 C 0.8243 0.74595 0.09533 0.0
C1779 C 0.82483 0.74005 0.0765 0.0
C1780 C 0.80754 0.7383 0.10444 0.0
C1781 C 0.7914 0.72559 0.09382 0.0
H1782 H 0.78023 0.70989 0.0672 0.0
H1783 H 0.83792 0.74558 0.06981 0.0
C1784 C 0.85379 0.67852 0.00957 0.0
N1785 N 0.84127 0.67558 0.02299 0.0
C1786 C 0.86754 0.66798 0.00892 0.0
C1787 C 0.85552 0.65192 0.03614 0.0
C1788 C 0.84214 0.66286 0.03634 0.0
C1789 C 0.86836 0.65425 0.02221 0.0
H1790 H 0.85307 0.68903 0.99933 0.0
H1791 H 0.83248 0.66121 0.04723 0.0
C1792 C 0.78627 0.73474 0.02492 0.0
N1793 N 0.78334 0.77368 0.02723 0.0
C1794 C 0.76838 0.73815 0.02235 0.0
C1795 C 0.80269 0.75113 0.0287 0.0
C1796 C 0.76719 0.75795 0.02356 0.0
C1797 C 0.8009 0.7707 0.02981 0.0
C1798 C 0.79903 0.6825 0.98261 0.0
C1799 C 0.78119 0.6837 0.97557 0.0
C1800 C 0.81256 0.68031 0.97042 0.0
C1801 C 0.77723 0.68281 0.95641 0.0
C1802 C 0.80807 0.67953 0.95135 0.0
N1803 N 0.79065 0.6808 0.9448 0.0
C1804 C 0.82847 0.73156 0.97713 0.0
C1805 C 0.79655 0.73312 0.977 0.0
C1806 C 0.82995 0.73826 0.95926 0.0
N1807 N 0.81184 0.72876 0.98553 0.0
C1808 C 0.79741 0.73984 0.95911 0.0
C1809 C 0.81415 0.74212 0.94973 0.0
H1810 H 0.84035 0.72768 0.98398 0.0
H1811 H 0.78327 0.7303 0.98363 0.0
C1812 C 0.75088 0.67103 0.03387 0.0
N1813 N 0.76222 0.66791 0.02048 0.0
C1814 C 0.73307 0.65714 0.03528 0.0
C1815 C 0.73863 0.63732 0.00873 0.0
C1816 C 0.7565 0.65147 0.008 0.0
C1817 C 0.72677 0.63998 0.02265 0.0
H1818 H 0.75589 0.68414 0.04371 0.0
H1819 H 0.76597 0.64912 0.99773 0.0
O1820 O 0.83184 0.72015 0.02631 0.0
O1821 O 0.8045 0.68441 0.04327 0.0
O1822 O 0.78755 0.71539 0.02367 0.0
O1823 O 0.80338 0.68401 1.00133 0.0
H1824 H 0.83968 0.70174 0.05563 0.0
H1825 H 0.86124 0.75179 0.02283 0.0
H1826 H 0.87007 0.7127 0.07557 0.0
H1827 H 0.89129 0.762 0.04352 0.0
H1828 H 0.78056 0.61616 0.03426 0.0
H1829 H 0.78771 0.67819 0.07472 0.0
H1830 H 0.79919 0.64916 0.02431 0.0
H1831 H 0.76912 0.64476 0.08368 0.0
H1832 H 0.83713 0.7558 0.10282 0.0
H1833 H 0.778 0.71966 0.09996 0.0
H1834 H 0.87716 0.67025 0.99794 0.0
H1835 H 0.85592 0.64184 0.04689 0.0
H1836 H 0.75554 0.7256 0.01941 0.0
H1837 H 0.81667 0.74886 0.03078 0.0
H1838 H 0.75343 0.76081 0.02157 0.0
H1839 H 0.81348 0.78353 0.03273 0.0
H1840 H 0.77065 0.6857 0.98481 0.0
H1841 H 0.82643 0.6794 0.97563 0.0
H1842 H 0.76354 0.68388 0.95077 0.0
H1843 H 0.81845 0.67798 0.94176 0.0
H1844 H 0.84328 0.74003 0.95285 0.0
H1845 H 0.78472 0.74227 0.95239 0.0
H1846 H 0.72427 0.65982 0.0461 0.0
H1847 H 0.73433 0.62419 0.99883 0.0
Li1848 Li 0.91609 0.52583 0.80047 0.0
Li1849 Li 0.94303 0.54869 0.81816 0.0
Li1850 Li 0.91628 0.55962 0.80758 0.0
Li1851 Li 0.93786 0.55217 0.78496 0.0
C1852 C 0.91591 0.54744 0.84307 0.0
N1853 N 0.91577 0.56405 0.87868 0.0
C1854 C 0.92362 0.56824 0.8474 0.0
C1855 C 0.90814 0.53512 0.85688 0.0
C1856 C 0.92341 0.57634 0.86548 0.0
C1857 C 0.90819 0.5438 0.87479 0.0
C1858 C 0.95167 0.51447 0.79576 0.0
C1859 C 0.97568 0.50033 0.7839 0.0
N1860 N 0.96849 0.48346 0.79284 0.0
C1861 C 0.94454 0.49697 0.80484 0.0
C1862 C 0.96737 0.51616 0.7852 0.0
C1863 C 0.95324 0.48148 0.8032 0.0
C1864 C 0.90147 0.48758 0.78099 0.0
N1865 N 0.90049 0.4989 0.79666 0.0
C1866 C 0.87725 0.47133 0.80766 0.0
C1867 C 0.88863 0.49132 0.80984 0.0
C1868 C 0.8781 0.45914 0.79172 0.0
C1869 C 0.89028 0.46752 0.77819 0.0
H1870 H 0.91111 0.49411 0.77079 0.0
H1871 H 0.88809 0.50082 0.82208 0.0
C1872 C 0.97066 0.56974 0.84692 0.0
N1873 N 0.96226 0.5514 0.83764 0.0
C1874 C 0.98451 0.57173 0.86153 0.0
C1875 C 0.98083 0.53596 0.85669 0.0
C1876 C 0.967 0.53466 0.84229 0.0
C1877 C 0.9896 0.55463 0.86665 0.0
H1878 H 0.96635 0.58278 0.84325 0.0
H1879 H 0.95982 0.52022 0.8351 0.0
C1880 C 0.89394 0.53259 0.7728 0.0
N1881 N 0.86201 0.50778 0.75216 0.0
C1882 C 0.89496 0.52697 0.75414 0.0
C1883 C 0.87662 0.52574 0.78091 0.0
C1884 C 0.87868 0.51439 0.74395 0.0
C1885 C 0.86066 0.51315 0.77026 0.0
C1886 C 0.96258 0.58553 0.80524 0.0
C1887 C 0.96731 0.60652 0.80838 0.0
C1888 C 0.97692 0.5764 0.80154 0.0
C1889 C 0.98631 0.61805 0.80768 0.0
C1890 C 0.99574 0.58845 0.80096 0.0
N1891 N 1.0 0.60886 0.80401 0.0
C1892 C 0.9056 0.59419 0.80343 0.0
C1893 C 0.88224 0.56804 0.81586 0.0
C1894 C 0.89212 0.60441 0.79968 0.0
N1895 N 0.90024 0.57606 0.81074 0.0
C1896 C 0.86819 0.57758 0.81204 0.0
C1897 C 0.87299 0.59556 0.80317 0.0
H1898 H 0.91993 0.59983 0.7991 0.0
H1899 H 0.87846 0.55346 0.82149 0.0
C1900 C 0.94854 0.54173 0.75105 0.0
N1901 N 0.94907 0.55805 0.76261 0.0
C1902 C 0.9573 0.54424 0.73453 0.0
C1903 C 0.96689 0.58042 0.74204 0.0
C1904 C 0.95758 0.5772 0.75832 0.0
C1905 C 0.96684 0.56375 0.73005 0.0
H1906 H 0.94154 0.52672 0.75486 0.0
H1907 H 0.95745 0.58993 0.76764 0.0
O1908 O 0.91615 0.53897 0.82556 0.0
O1909 O 0.94311 0.52967 0.79677 0.0
O1910 O 0.90983 0.54463 0.78309 0.0
O1911 O 0.94402 0.57411 0.80595 0.0
H1912 H 0.92979 0.57808 0.83701 0.0
H1913 H 0.9022 0.51898 0.8538 0.0
H1914 H 0.92937 0.59239 0.86901 0.0
H1915 H 0.90224 0.53442 0.8856 0.0
H1916 H 0.98783 0.50145 0.77577 0.0
H1917 H 0.9326 0.49548 0.81331 0.0
H1918 H 0.97312 0.52957 0.77809 0.0
H1919 H 0.94789 0.4679 0.8102 0.0
H1920 H 0.86785 0.46547 0.81828 0.0
H1921 H 0.89148 0.45854 0.76581 0.0
H1922 H 0.99065 0.58633 0.86913 0.0
H1923 H 0.98439 0.52241 0.86018 0.0
H1924 H 0.90818 0.53225 0.74759 0.0
H1925 H 0.87561 0.52969 0.79537 0.0
H1926 H 0.87929 0.50987 0.72951 0.0
H1927 H 0.84722 0.50759 0.77642 0.0
H1928 H 0.9564 0.61381 0.81134 0.0
H1929 H 0.97361 0.56021 0.79919 0.0
H1930 H 0.99016 0.63432 0.81007 0.0
H1931 H 1.00695 0.58158 0.79809 0.0
H1932 H 0.89624 0.61816 0.79265 0.0
H1933 H 0.85354 0.57043 0.81495 0.0
H1934 H 0.95721 0.53105 0.72565 0.0
H1935 H 0.97413 0.59565 0.73891 0.0
Li1936 Li 0.78945 0.40593 0.51843 0.0
Li1937 Li 0.77958 0.43291 0.50495 0.0
Li1938 Li 0.7882 0.40691 0.48445 0.0
Li1939 Li 0.81215 0.43346 0.50351 0.0
C1940 C 0.7515 0.38655 0.50216 0.0
N1941 N 0.72088 0.35282 0.50478 0.0
C1942 C 0.73561 0.38824 0.51126 0.0
C1943 C 0.7516 0.36775 0.49406 0.0
C1944 C 0.72032 0.371 0.51253 0.0
C1945 C 0.73605 0.35087 0.49563 0.0
C1946 C 0.79394 0.4473 0.53939 0.0
C1947 C 0.79318 0.48019 0.55165 0.0
N1948 N 0.78327 0.4716 0.56579 0.0
C1949 C 0.78387 0.43881 0.55411 0.0
C1950 C 0.79879 0.46817 0.53822 0.0
C1951 C 0.77857 0.45135 0.5673 0.0
C1952 C 0.80582 0.38902 0.54581 0.0
N1953 N 0.78839 0.38909 0.53824 0.0
C1954 C 0.77267 0.36576 0.55921 0.0
C1955 C 0.77193 0.37793 0.5447 0.0
C1956 C 0.79051 0.36522 0.56715 0.0
C1957 C 0.80723 0.37709 0.56027 0.0
H1958 H 0.81867 0.39818 0.54045 0.0
H1959 H 0.75825 0.37852 0.53877 0.0
C1960 C 0.76492 0.46474 0.49585 0.0
N1961 N 0.7634 0.44976 0.50741 0.0
C1962 C 0.75456 0.47863 0.49839 0.0
C1963 C 0.74077 0.461 0.5243 0.0
C1964 C 0.75146 0.4475 0.5213 0.0
C1965 C 0.74243 0.47692 0.51286 0.0
H1966 H 0.77434 0.46604 0.48478 0.0
H1967 H 0.75064 0.43556 0.53037 0.0
C1968 C 0.81549 0.38748 0.49904 0.0
N1969 N 0.82813 0.35358 0.49445 0.0
C1970 C 0.83417 0.38929 0.49435 0.0
C1971 C 0.80338 0.36843 0.50171 0.0
C1972 C 0.84024 0.37198 0.49198 0.0
C1973 C 0.80999 0.35148 0.49926 0.0
C1974 C 0.80629 0.45086 0.47326 0.0
C1975 C 0.81109 0.44568 0.45564 0.0
C1976 C 0.81371 0.4707 0.48112 0.0
C1977 C 0.82353 0.46037 0.44632 0.0
C1978 C 0.82612 0.48494 0.47137 0.0
N1979 N 0.83075 0.47952 0.45432 0.0
C1980 C 0.76734 0.38408 0.45171 0.0
C1981 C 0.80103 0.38996 0.4544 0.0
C1982 C 0.76595 0.37346 0.43441 0.0
N1983 N 0.78471 0.39185 0.46133 0.0
C1984 C 0.80031 0.37949 0.43729 0.0
C1985 C 0.78261 0.37098 0.42712 0.0
H1986 H 0.75464 0.38618 0.45744 0.0
H1987 H 0.8147 0.39705 0.46198 0.0
C1988 C 0.84612 0.46258 0.51864 0.0
N1989 N 0.83784 0.44904 0.50407 0.0
C1990 C 0.86559 0.47285 0.5194 0.0
C1991 C 0.86739 0.45524 0.48999 0.0
C1992 C 0.84792 0.44543 0.48976 0.0
C1993 C 0.87649 0.46887 0.50511 0.0
H1994 H 0.83773 0.46498 0.52988 0.0
H1995 H 0.84086 0.43455 0.47838 0.0
O1996 O 0.76654 0.40334 0.50073 0.0
O1997 O 0.79906 0.43523 0.52623 0.0
O1998 O 0.80934 0.40434 0.50142 0.0
O1999 O 0.7943 0.4366 0.4827 0.0
H2000 H 0.73509 0.40266 0.51738 0.0
H2001 H 0.76344 0.36619 0.48646 0.0
H2002 H 0.70802 0.37208 0.51967 0.0
H2003 H 0.73601 0.33623 0.48949 0.0
H2004 H 0.7967 0.49634 0.55083 0.0
H2005 H 0.78004 0.42269 0.55526 0.0
H2006 H 0.80665 0.47501 0.52697 0.0
H2007 H 0.77067 0.44497 0.57871 0.0
H2008 H 0.75944 0.35709 0.56431 0.0
H2009 H 0.82128 0.37697 0.56585 0.0
H2010 H 0.75597 0.49053 0.4891 0.0
H2011 H 0.73166 0.45929 0.5357 0.0
H2012 H 0.84388 0.40389 0.49249 0.0
H2013 H 0.78915 0.36674 0.50596 0.0
H2014 H 0.85461 0.37318 0.48822 0.0
H2015 H 0.80074 0.33666 0.50129 0.0
H2016 H 0.80527 0.43052 0.44919 0.0
H2017 H 0.81009 0.475 0.49469 0.0
H2018 H 0.82743 0.45654 0.4327 0.0
H2019 H 0.83209 0.5003 0.47737 0.0
H2020 H 0.75204 0.36714 0.42692 0.0
H2021 H 0.81354 0.3784 0.43192 0.0
H2022 H 0.87221 0.48313 0.53136 0.0
H2023 H 0.87534 0.45194 0.47866 0.0
Li2024 Li 0.65345 0.50297 0.32699 0.0
Li2025 Li 0.67242 0.53254 0.31378 0.0
Li2026 Li 0.64411 0.50939 0.2965 0.0
Li2027 Li 0.67322 0.4998 0.30195 0.0
C2028 C 0.63661 0.53118 0.33432 0.0
N2029 N 0.61969 0.53892 0.36594 0.0
C2030 C 0.64691 0.54591 0.34806 0.0
C2031 C 0.61765 0.52049 0.33659 0.0
C2032 C 0.6381 0.54959 0.36395 0.0
C2033 C 0.60937 0.52459 0.3527 0.0
C2034 C 0.69616 0.50517 0.33213 0.0
C2035 C 0.72834 0.5032 0.32926 0.0
N2036 N 0.72507 0.4879 0.34062 0.0
C2037 C 0.69312 0.4894 0.34376 0.0
C2038 C 0.71393 0.51215 0.32483 0.0
C2039 C 0.70792 0.4809 0.34791 0.0
C2040 C 0.62789 0.48017 0.35104 0.0
N2041 N 0.64492 0.4943 0.34992 0.0
C2042 C 0.64791 0.50306 0.38246 0.0
C2043 C 0.65528 0.50516 0.3652 0.0
C2044 C 0.62966 0.48979 0.38384 0.0
C2045 C 0.61987 0.47771 0.36803 0.0
H2046 H 0.61997 0.47184 0.33862 0.0
H2047 H 0.66867 0.51646 0.36376 0.0
C2048 C 0.67911 0.57435 0.31272 0.0
N2049 N 0.68689 0.55989 0.31844 0.0
C2050 C 0.69048 0.59426 0.31289 0.0
C2051 C 0.71725 0.58418 0.32601 0.0
C2052 C 0.70533 0.56449 0.32565 0.0
C2053 C 0.70996 0.59919 0.31905 0.0
H2054 H 0.66434 0.57017 0.30712 0.0
H2055 H 0.711 0.55274 0.33042 0.0
C2056 C 0.63303 0.4701 0.29338 0.0
N2057 N 0.60525 0.4444 0.26868 0.0
C2058 C 0.63829 0.46012 0.27814 0.0
C2059 C 0.61365 0.46694 0.2961 0.0
C2060 C 0.62402 0.44718 0.26581 0.0
C2061 C 0.59982 0.45392 0.28343 0.0
C2062 C 0.67756 0.53855 0.27904 0.0
C2063 C 0.66585 0.54863 0.27024 0.0
C2064 C 0.69747 0.54665 0.27985 0.0
C2065 C 0.67427 0.56663 0.2624 0.0
C2066 C 0.70532 0.56474 0.27191 0.0
N2067 N 0.69366 0.57426 0.26342 0.0
C2068 C 0.60823 0.51308 0.28111 0.0
C2069 C 0.62785 0.50174 0.2606 0.0
C2070 C 0.59514 0.5133 0.26633 0.0
N2071 N 0.62429 0.5076 0.2779 0.0
C2072 C 0.6153 0.5019 0.24547 0.0
C2073 C 0.59893 0.50813 0.24823 0.0
H2074 H 0.60591 0.51791 0.295 0.0
H2075 H 0.64085 0.49763 0.25851 0.0
C2076 C 0.68958 0.46785 0.29914 0.0
N2077 N 0.68887 0.48517 0.29174 0.0
C2078 C 0.70248 0.45782 0.29321 0.0
C2079 C 0.71286 0.48304 0.27143 0.0
C2080 C 0.69978 0.4926 0.27783 0.0
C2081 C 0.71457 0.46566 0.27943 0.0
H2082 H 0.68044 0.46214 0.30996 0.0
H2083 H 0.69859 0.50614 0.27194 0.0
O2084 O 0.64518 0.52692 0.31892 0.0
O2085 O 0.68173 0.51349 0.32765 0.0
O2086 O 0.64678 0.48311 0.30543 0.0
O2087 O 0.66959 0.52115 0.28722 0.0
H2088 H 0.66164 0.55422 0.3466 0.0
H2089 H 0.60955 0.50884 0.32623 0.0
H2090 H 0.64595 0.56086 0.37475 0.0
H2091 H 0.59479 0.51628 0.35474 0.0
H2092 H 0.74209 0.50833 0.32357 0.0
H2093 H 0.67941 0.48359 0.34935 0.0
H2094 H 0.71645 0.52403 0.31548 0.0
H2095 H 0.70573 0.46865 0.35685 0.0
H2096 H 0.65574 0.51283 0.39429 0.0
H2097 H 0.60577 0.46729 0.36865 0.0
H2098 H 0.68438 0.60541 0.30729 0.0
H2099 H 0.73213 0.58751 0.33112 0.0
H2100 H 0.6532 0.46245 0.27575 0.0
H2101 H 0.60931 0.47478 0.30765 0.0
H2102 H 0.62787 0.43942 0.25392 0.0
H2103 H 0.58477 0.45147 0.28528 0.0
H2104 H 0.65044 0.54282 0.26969 0.0
H2105 H 0.70677 0.53932 0.28691 0.0
H2106 H 0.66538 0.57462 0.25562 0.0
H2107 H 0.72069 0.57127 0.27262 0.0
H2108 H 0.58273 0.51838 0.26889 0.0
H2109 H 0.61862 0.49775 0.23169 0.0
H2110 H 0.70311 0.4442 0.29944 0.0
H2111 H 0.72192 0.4895 0.26076 0.0
Tb2112 Tb 0.06493 0.04975 0.03886 0.0
Tb2113 Tb 0.02756 0.01941 0.01424 0.0
C2114 C 0.02492 0.03863 0.05359 0.0
C2115 C 0.11369 0.06829 0.06051 0.0
C2116 C 0.14788 0.05729 0.06023 0.0
C2117 C 0.13224 0.04559 0.0688 0.0
C2118 C 0.11523 0.05097 0.06885 0.0
C2119 C 0.12982 0.08079 0.05322 0.0
C2120 C 0.14675 0.07526 0.05295 0.0
C2121 C 0.09489 0.07177 0.05668 0.0
O2122 O 0.06125 0.01984 0.04885 0.0
O2123 O 0.04323 0.99933 0.02413 0.0
O2124 O 0.05045 0.03052 0.99633 0.0
O2125 O 0.07552 0.03373 0.01751 0.0
O2126 O 0.99912 1.00092 0.0122 0.0
O2127 O 0.01541 1.00478 0.98828 0.0
O2128 O 0.02347 0.0492 0.01367 0.0
O2129 O 0.05485 0.0681 0.01946 0.0
O2130 O 0.04 0.0536 0.05132 0.0
O2131 O 0.02064 0.02171 0.04293 0.0
C2132 C 0.05419 1.00198 0.03965 0.0
O2133 O 0.09045 0.0732 0.03924 0.0
O2134 O 0.08045 0.0605 0.06455 0.0
C2135 C 0.06831 0.03102 1.00034 0.0
C2136 C 0.98347 1.00562 0.98472 0.0
C2137 C 0.95403 0.02318 0.97619 0.0
C2138 C 0.94967 1.00257 0.97939 0.0
C2139 C 0.96431 0.99391 0.9838 0.0
C2140 C 0.98787 0.02554 0.97966 0.0
C2141 C 0.97331 0.03424 0.97544 0.0
C2142 C 0.99841 0.99864 0.99421 0.0
C2143 C 0.03701 0.06631 0.01355 0.0
H2144 H 0.13273 0.03157 0.07436 0.0
H2145 H 0.10301 0.04095 0.07449 0.0
H2146 H 0.12895 0.09418 0.04669 0.0
H2147 H 0.1587 0.08455 0.04636 0.0
H2148 H 0.93495 0.99348 0.97963 0.0
H2149 H 0.96066 0.9785 0.98766 0.0
H2150 H 1.00259 0.03489 0.9803 0.0
H2151 H 0.97731 0.05012 0.97312 0.0
Tb2152 Tb 0.28252 0.78108 0.28947 0.0
Tb2153 Tb 0.30444 0.77448 0.25244 0.0
C2154 C 0.26599 0.78598 0.24974 0.0
C2155 C 0.26974 0.77792 0.33703 0.0
C2156 C 0.27752 0.76535 0.37197 0.0
C2157 C 0.2666 0.779 0.37012 0.0
C2158 C 0.26279 0.7853 0.35273 0.0
C2159 C 0.28038 0.76408 0.33878 0.0
C2160 C 0.28421 0.75782 0.35609 0.0
C2161 C 0.26721 0.78557 0.31901 0.0
O2162 O 0.27967 0.74904 0.2858 0.0
O2163 O 0.28132 0.74718 0.25445 0.0
O2164 O 0.31851 0.7624 0.27426 0.0
O2165 O 0.31108 0.78034 0.29903 0.0
O2166 O 0.30293 0.76004 0.22588 0.0
O2167 O 0.32915 0.78128 0.23775 0.0
O2168 O 0.3186 0.8046 0.26522 0.0
O2169 O 0.29336 0.81059 0.27929 0.0
O2170 O 0.26206 0.77884 0.26587 0.0
O2171 O 0.28323 0.78942 0.24392 0.0
C2172 C 0.27607 0.73863 0.26965 0.0
O2173 O 0.28246 0.79855 0.31409 0.0
O2174 O 0.25907 0.7719 0.30556 0.0
C2175 C 0.32137 0.76948 0.29176 0.0
C2176 C 0.32057 0.78213 0.20622 0.0
C2177 C 0.31794 0.80155 0.17366 0.0
C2178 C 0.32554 0.78501 0.17364 0.0
C2179 C 0.32678 0.77532 0.18982 0.0
C2180 C 0.31344 0.79891 0.20642 0.0
C2181 C 0.31208 0.8085 0.19029 0.0
C2182 C 0.31996 0.77092 0.22274 0.0
C2183 C 0.31016 0.81713 0.27276 0.0
H2184 H 0.26139 0.78515 0.38215 0.0
H2185 H 0.25472 0.79616 0.35157 0.0
H2186 H 0.28594 0.75832 0.32676 0.0
H2187 H 0.2924 0.74705 0.35703 0.0
H2188 H 0.33038 0.77946 0.16109 0.0
H2189 H 0.33224 0.76232 0.18945 0.0
H2190 H 0.30848 0.8043 0.21896 0.0
H2191 H 0.30586 0.82096 0.19074 0.0
Tb2192 Tb 0.52448 0.02959 0.52743 0.0
Tb2193 Tb 0.57116 0.03533 0.52899 0.0
C2194 C 0.54627 0.01838 0.56061 0.0
C2195 C 0.47787 0.04224 0.52523 0.0
C2196 C 0.45466 0.06881 0.52349 0.0
C2197 C 0.46299 0.06556 0.54057 0.0
C2198 C 0.47439 0.05243 0.54144 0.0
C2199 C 0.46961 0.04551 0.50814 0.0
C2200 C 0.4582 0.05867 0.50727 0.0
C2201 C 0.48938 0.02769 0.52623 0.0
O2202 O 0.5387 0.05813 0.54345 0.0
O2203 O 0.56858 0.06586 0.53228 0.0
O2204 O 0.56044 0.03533 0.50037 0.0
O2205 O 0.53647 0.04927 0.50653 0.0
O2206 O 0.59711 0.03945 0.545 0.0
O2207 O 0.59614 0.03724 0.51522 0.0
O2208 O 0.55755 1.003 0.52558 0.0
O2209 O 0.52823 1.003 0.51191 0.0
O2210 O 0.53107 0.01178 0.54897 0.0
O2211 O 0.56117 0.03269 0.55658 0.0
C2212 C 0.55505 0.07128 0.54061 0.0
O2213 O 0.49824 0.02475 0.51165 0.0
O2214 O 0.50006 0.02874 0.54155 0.0
C2215 C 0.54858 0.04543 0.4953 0.0
C2216 C 0.61853 0.02383 0.53093 0.0
C2217 C 0.64302 0.99861 0.53177 0.0
C2218 C 0.64453 0.01291 0.51855 0.0
C2219 C 0.63249 0.0254 0.5182 0.0
C2220 C 0.61667 0.00932 0.54396 0.0
C2221 C 0.62881 0.99688 0.54439 0.0
C2222 C 0.60652 0.03782 0.53057 0.0
C2223 C 0.54134 0.99378 0.51581 0.0
H2224 H 0.46033 0.07283 0.55338 0.0
H2225 H 0.4803 0.05011 0.55488 0.0
H2226 H 0.47187 0.0378 0.4954 0.0
H2227 H 0.45219 0.06095 0.49386 0.0
H2228 H 0.65501 0.01444 0.50837 0.0
H2229 H 0.63416 0.03641 0.50799 0.0
H2230 H 0.60599 1.00771 0.55396 0.0
H2231 H 0.62731 0.9862 0.55488 0.0
Tb2232 Tb 0.32204 0.29311 0.78053 0.0
Tb2233 Tb 0.27571 0.2875 0.77317 0.0
C2234 C 0.29146 0.2519 0.78347 0.0
C2235 C 0.37223 0.29512 0.77202 0.0
C2236 C 0.40128 0.2908 0.74956 0.0
C2237 C 0.40279 0.28838 0.76864 0.0
C2238 C 0.3884 0.2906 0.77978 0.0
C2239 C 0.37038 0.29688 0.75286 0.0
C2240 C 0.38482 0.29482 0.74175 0.0
C2241 C 0.35783 0.29878 0.78409 0.0
O2242 O 0.3163 0.28911 0.75037 0.0
O2243 O 0.28347 0.27521 0.74724 0.0
O2244 O 0.29171 0.31394 0.76058 0.0
O2245 O 0.31638 0.32219 0.78264 0.0
O2246 O 0.24723 0.27005 0.76613 0.0
O2247 O 0.25451 0.30244 0.77183 0.0
O2248 O 0.2833 0.29974 0.80214 0.0
O2249 O 0.31228 0.29332 0.80837 0.0
O2250 O 0.30792 0.26095 0.77717 0.0
O2251 O 0.2784 0.26117 0.78635 0.0
C2252 C 0.30029 0.27973 0.74023 0.0
O2253 O 0.34969 0.31232 0.77914 0.0
O2254 O 0.34547 0.28292 0.78933 0.0
C2255 C 0.30625 0.32744 0.76947 0.0
C2256 C 0.22421 0.28368 0.78007 0.0
C2257 C 0.192 0.28071 0.80073 0.0
C2258 C 0.20083 0.29867 0.79276 0.0
C2259 C 0.21664 0.30008 0.78248 0.0
C2260 C 0.21556 0.26572 0.78813 0.0
C2261 C 0.19961 0.26426 0.79836 0.0
C2262 C 0.2407 0.28564 0.7687 0.0
C2263 C 0.29723 0.29826 0.81393 0.0
H2264 H 0.41538 0.2854 0.77505 0.0
H2265 H 0.39007 0.28917 0.79453 0.0
H2266 H 0.35796 0.30024 0.74652 0.0
H2267 H 0.38316 0.2965 0.72705 0.0
H2268 H 0.19559 0.31174 0.79456 0.0
H2269 H 0.22298 0.31407 0.77637 0.0
H2270 H 0.22098 0.25276 0.78644 0.0
H2271 H 0.19304 0.25013 0.80412 0.0
Tb2272 Tb 0.05019 0.04091 0.54529 0.0
Tb2273 Tb 0.054 0.01598 0.50757 0.0
C2274 C 0.01486 0.01161 0.52368 0.0
C2275 C 0.05361 0.05799 0.5947 0.0
C2276 C 0.06655 0.05556 0.63148 0.0
C2277 C 0.05558 0.0687 0.62737 0.0
C2278 C 0.04917 0.06991 0.60907 0.0
C2279 C 0.06439 0.04474 0.59872 0.0
C2280 C 0.0708 0.04352 0.61697 0.0
C2281 C 0.0469 0.0592 0.57554 0.0
O2282 O 0.04945 0.01057 0.55443 0.0
O2283 O 0.06016 0.9967 0.52915 0.0
O2284 O 0.08047 0.03993 0.5132 0.0
O2285 O 0.08049 0.043 0.54458 0.0
O2286 O 0.041 1.00083 0.48223 0.0
O2287 O 0.07031 1.00248 0.49098 0.0
O2288 O 0.04759 0.04344 0.49754 0.0
O2289 O 0.05273 0.06377 0.52472 0.0
O2290 O 0.02191 0.03036 0.53053 0.0
O2291 O 0.02629 1.00176 0.51733 0.0
C2292 C 0.05519 0.99578 0.54644 0.0
O2293 O 0.06026 0.06619 0.56453 0.0
O2294 O 0.03414 0.04305 0.56797 0.0
C2295 C 0.08961 0.04609 0.52949 0.0
C2296 C 0.06245 1.00441 0.45932 0.0
C2297 C 0.06648 0.01927 0.42413 0.0
C2298 C 0.07505 0.03187 0.44013 0.0
C2299 C 0.07292 0.02452 0.45762 0.0
C2300 C 0.05501 0.99148 0.44343 0.0
C2301 C 0.05697 0.99882 0.42598 0.0
C2302 C 0.05687 0.99759 0.4774 0.0
C2303 C 0.04998 0.06146 0.50641 0.0
H2304 H 0.05224 0.07826 0.63827 0.0
H2305 H 0.04083 0.08019 0.60612 0.0
H2306 H 0.06783 0.03535 0.58774 0.0
H2307 H 0.07898 0.03305 0.61974 0.0
H2308 H 0.08263 0.04761 0.4392 0.0
H2309 H 0.07864 0.03477 0.46983 0.0
H2310 H 0.04672 0.97599 0.44455 0.0
H2311 H 0.04984 0.98874 0.41407 0.0
Tb2312 Tb 0.31132 0.80482 0.77297 0.0
Tb2313 Tb 0.2919 0.76317 0.79057 0.0
C2314 C 0.31191 0.76409 0.75334 0.0
C2315 C 0.31124 0.85135 0.75466 0.0
C2316 C 0.28775 0.87635 0.74764 0.0
C2317 C 0.30703 0.88216 0.74337 0.0
C2318 C 0.31872 0.86962 0.7468 0.0
C2319 C 0.29202 0.84555 0.75873 0.0
C2320 C 0.2804 0.85784 0.75522 0.0
C2321 C 0.3229 0.83791 0.75893 0.0
O2322 O 0.28165 0.7936 0.75916 0.0
O2323 O 0.26681 0.77307 0.78062 0.0
O2324 O 0.29567 0.78696 0.81249 0.0
O2325 O 0.2943 0.81205 0.79429 0.0
O2326 O 0.27451 0.73306 0.78761 0.0
O2327 O 0.28767 0.74704 0.81426 0.0
O2328 O 0.32317 0.76662 0.79458 0.0
O2329 O 0.33503 0.8006 0.79186 0.0
O2330 O 0.32161 0.78291 0.75778 0.0
O2331 O 0.29743 0.75488 0.76247 0.0
C2332 C 0.26565 0.78365 0.76621 0.0
O2333 O 0.32567 0.83585 0.77655 0.0
O2334 O 0.31746 0.8205 0.74921 0.0
C2335 C 0.29279 0.80446 0.81033 0.0
C2336 C 0.2892 0.71467 0.80653 0.0
C2337 C 0.31258 0.68972 0.81358 0.0
C2338 C 0.29593 0.68767 0.82296 0.0
C2339 C 0.28437 0.70033 0.8196 0.0
C2340 C 0.30541 0.71604 0.79668 0.0
C2341 C 0.31704 0.70377 0.80025 0.0
C2342 C 0.27924 0.73009 0.80458 0.0
C2343 C 0.33769 0.78336 0.79678 0.0
H2344 H 0.31306 0.89642 0.73759 0.0
H2345 H 0.33354 0.87428 0.74356 0.0
H2346 H 0.28603 0.83162 0.76499 0.0
H2347 H 0.26581 0.85315 0.75916 0.0
H2348 H 0.29221 0.67671 0.83315 0.0
H2349 H 0.272 0.69928 0.82744 0.0
H2350 H 0.30939 0.72701 0.78655 0.0
H2351 H 0.32962 0.70528 0.7926 0.0
Tb2352 Tb 0.55451 0.02538 0.04865 0.0
Tb2353 Tb 0.55918 0.04722 0.01055 0.0
C2354 C 0.59391 0.04535 0.03562 0.0
C2355 C 0.54229 0.01843 0.09573 0.0
C2356 C 0.52914 0.03515 0.12678 0.0
C2357 C 0.53913 0.02065 0.12877 0.0
C2358 C 0.54569 0.01237 0.11333 0.0
C2359 C 0.53221 0.03276 0.09365 0.0
C2360 C 0.52566 0.04102 0.10903 0.0
C2361 C 0.55049 0.01125 0.07969 0.0
O2362 O 0.55924 0.05781 0.05747 0.0
O2363 O 0.55233 0.06966 0.02989 0.0
O2364 O 0.53018 0.02757 0.00882 0.0
O2365 O 0.52698 0.02916 0.0398 0.0
O2366 O 0.57681 0.05794 0.98944 0.0
O2367 O 0.54871 0.06237 0.99011 0.0
O2368 O 0.56186 0.01674 1.00231 0.0
O2369 O 0.55203 0.99971 0.02797 0.0
O2370 O 0.58325 0.02845 0.0409 0.0
O2371 O 0.58597 0.05777 0.02775 0.0
C2372 C 0.55533 0.07217 0.04814 0.0
O2373 O 0.53851 1.00399 0.06517 0.0
O2374 O 0.56631 0.02385 0.07536 0.0
C2375 C 0.51937 0.02578 0.02271 0.0
C2376 C 0.55956 0.05651 0.96106 0.0
C2377 C 0.55565 0.04134 0.92384 0.0
C2378 C 0.54671 0.02898 0.93728 0.0
C2379 C 0.54873 0.0365 0.95583 0.0
C2380 C 0.56781 0.0691 0.9476 0.0
C2381 C 0.56588 0.06157 0.92909 0.0
C2382 C 0.56359 0.06389 0.9806 0.0
C2383 C 0.55706 0.99973 0.01071 0.0
H2384 H 0.54221 0.01602 0.14231 0.0
H2385 H 0.55369 1.00155 0.11516 0.0
H2386 H 0.52963 0.03775 0.08014 0.0
H2387 H 0.51782 0.05195 0.10701 0.0
H2388 H 0.53893 0.01328 0.93358 0.0
H2389 H 0.54239 0.02656 0.96616 0.0
H2390 H 0.57623 0.08456 0.95148 0.0
H2391 H 0.57278 0.07141 0.91893 0.0
Tb2392 Tb 0.29624 0.25676 0.26956 0.0
Tb2393 Tb 0.31329 0.30373 0.28364 0.0
C2394 C 0.29685 0.29064 0.24222 0.0
C2395 C 0.27545 0.20205 0.27073 0.0
C2396 C 0.27549 0.1716 0.29448 0.0
C2397 C 0.27546 0.16776 0.27517 0.0
C2398 C 0.27553 0.18294 0.26341 0.0
C2399 C 0.2728 0.20509 0.28958 0.0
C2400 C 0.27279 0.18992 0.30141 0.0
C2401 C 0.28349 0.21943 0.26022 0.0
O2402 O 0.32747 0.26321 0.26526 0.0
O2403 O 0.33761 0.29774 0.26966 0.0
O2404 O 0.32277 0.28738 0.30546 0.0
O2405 O 0.29944 0.2575 0.29957 0.0
O2406 O 0.32915 0.33305 0.2788 0.0
O2407 O 0.31764 0.32674 0.30511 0.0
O2408 O 0.28357 0.29656 0.29264 0.0
O2409 O 0.27035 0.26436 0.2791 0.0
O2410 O 0.29814 0.27242 0.24437 0.0
O2411 O 0.29789 0.30349 0.25666 0.0
C2412 C 0.34088 0.28054 0.26419 0.0
O2413 O 0.27347 0.23208 0.25782 0.0
O2414 O 0.30131 0.22873 0.26552 0.0
C2415 C 0.3124 0.27028 0.31102 0.0
C2416 C 0.31647 0.35732 0.29339 0.0
C2417 C 0.29431 0.3844 0.29077 0.0
C2418 C 0.29892 0.37824 0.30808 0.0
C2419 C 0.30997 0.36483 0.30938 0.0
C2420 C 0.31284 0.3645 0.27626 0.0
C2421 C 0.30188 0.37792 0.27498 0.0
C2422 C 0.32538 0.34076 0.29445 0.0
C2423 C 0.2686 0.28034 0.28913 0.0
H2424 H 0.27766 0.15391 0.26932 0.0
H2425 H 0.27771 0.1804 0.24891 0.0
H2426 H 0.27269 0.21981 0.29546 0.0
H2427 H 0.2725 0.19321 0.31616 0.0
H2428 H 0.29323 0.38299 0.32046 0.0
H2429 H 0.3127 0.35965 0.32277 0.0
H2430 H 0.31782 0.3592 0.26368 0.0
H2431 H 0.29885 0.38277 0.26152 0.0
Tb2432 Tb 0.55261 0.54871 0.04982 0.0
Tb2433 Tb 0.55719 0.52431 0.01199 0.0
C2434 C 0.51733 0.51854 0.02732 0.0
C2435 C 0.54442 0.55896 0.09832 0.0
C2436 C 0.54079 0.54285 0.13302 0.0
C2437 C 0.53225 0.53072 0.11677 0.0
C2438 C 0.53416 0.53869 0.09953 0.0
C2439 C 0.55193 0.5714 0.1145 0.0
C2440 C 0.55016 0.56344 0.13172 0.0
C2441 C 0.5497 0.56643 0.08035 0.0
O2442 O 0.55954 0.52136 0.05949 0.0
O2443 O 0.55443 0.50117 0.03224 0.0
O2444 O 0.58512 0.53504 0.02739 0.0
O2445 O 0.58015 0.56352 0.04007 0.0
O2446 O 0.54773 0.49966 0.99199 0.0
O2447 O 0.57424 0.5228 0.98998 0.0
O2448 O 0.55756 0.55465 0.00318 0.0
O2449 O 0.54618 0.56797 0.02835 0.0
O2450 O 0.5261 0.52489 0.04375 0.0
O2451 O 0.52671 0.52136 0.01237 0.0
C2452 C 0.55724 0.50341 0.05054 0.0
O2453 O 0.56567 0.56374 0.07521 0.0
O2454 O 0.53617 0.56158 0.06685 0.0
C2455 C 0.59187 0.55387 0.03405 0.0
C2456 C 0.55582 0.50925 0.96241 0.0
C2457 C 0.54596 0.5152 0.92558 0.0
C2458 C 0.55914 0.50435 0.92953 0.0
C2459 C 0.56405 0.50142 0.94785 0.0
C2460 C 0.54267 0.52006 0.95856 0.0
C2461 C 0.53772 0.52294 0.94031 0.0
C2462 C 0.56161 0.50704 0.98162 0.0
C2463 C 0.55137 0.56913 0.01113 0.0
H2464 H 0.52477 0.51488 0.1173 0.0
H2465 H 0.52841 0.52879 0.08711 0.0
H2466 H 0.56009 0.58702 0.11376 0.0
H2467 H 0.55723 0.57316 0.14386 0.0
H2468 H 0.56586 0.49838 0.9185 0.0
H2469 H 0.57438 0.49322 0.95065 0.0
H2470 H 0.53629 0.52632 0.9697 0.0
H2471 H 0.52727 0.53106 0.93773 0.0
Tb2472 Tb 0.81661 0.30349 0.26807 0.0
Tb2473 Tb 0.79538 0.26165 0.28453 0.0
C2474 C 0.81423 0.26204 0.24702 0.0
C2475 C 0.82394 0.3549 0.25732 0.0
C2476 C 0.80393 0.38389 0.25636 0.0
C2477 C 0.81753 0.38357 0.24353 0.0
C2478 C 0.82743 0.36898 0.24393 0.0
C2479 C 0.81107 0.35596 0.27068 0.0
C2480 C 0.8012 0.37036 0.27023 0.0
C2481 C 0.83119 0.33728 0.25597 0.0
O2482 O 0.78561 0.30158 0.26396 0.0
O2483 O 0.77255 0.26763 0.2659 0.0
O2484 O 0.78635 0.28421 0.30032 0.0
O2485 O 0.81202 0.31102 0.29661 0.0
O2486 O 0.77783 0.23178 0.28033 0.0
O2487 O 0.78929 0.24511 0.30781 0.0
O2488 O 0.82537 0.27014 0.29766 0.0
O2489 O 0.84084 0.292 0.27737 0.0
O2490 O 0.81336 0.28048 0.24557 0.0
O2491 O 0.81111 0.25337 0.26248 0.0
C2492 C 0.77063 0.28526 0.26138 0.0
O2493 O 0.83706 0.33198 0.27165 0.0
O2494 O 0.81993 0.32187 0.24584 0.0
C2495 C 0.79705 0.30251 0.30541 0.0
C2496 C 0.78985 0.2122 0.29989 0.0
C2497 C 0.80669 0.18067 0.30096 0.0
C2498 C 0.7883 0.17807 0.30701 0.0
C2499 C 0.77982 0.19382 0.30637 0.0
C2500 C 0.8085 0.21496 0.29459 0.0
C2501 C 0.81683 0.19931 0.29507 0.0
C2502 C 0.781 0.22841 0.29756 0.0
C2503 C 0.84156 0.28042 0.2911 0.0
H2504 H 0.8198 0.39392 0.23273 0.0
H2505 H 0.83714 0.36814 0.23338 0.0
H2506 H 0.80799 0.34508 0.281 0.0
H2507 H 0.79095 0.37053 0.28041 0.0
H2508 H 0.78032 0.16372 0.31157 0.0
H2509 H 0.7654 0.19154 0.3105 0.0
H2510 H 0.81646 0.22908 0.28962 0.0
H2511 H 0.83111 0.20164 0.29051 0.0
Tb2512 Tb 0.05649 0.52057 0.54672 0.0
Tb2513 Tb 0.05825 0.54199 0.50863 0.0
C2514 C 0.09459 0.54216 0.532 0.0
C2515 C 0.04762 0.51385 0.59428 0.0
C2516 C 0.03594 0.53221 0.62525 0.0
C2517 C 0.04953 0.52146 0.62749 0.0
C2518 C 0.05537 0.51236 0.61206 0.0
C2519 C 0.03398 0.52445 0.59203 0.0
C2520 C 0.02812 0.53344 0.60737 0.0
C2521 C 0.05536 0.5068 0.57789 0.0
O2522 O 0.05964 0.55272 0.55578 0.0
O2523 O 0.05163 0.56428 0.5284 0.0
O2524 O 0.02995 0.52119 0.5085 0.0
O2525 O 0.02817 0.52324 0.53966 0.0
O2526 O 0.07418 0.55404 0.48686 0.0
O2527 O 0.04497 0.55507 0.48837 0.0
O2528 O 0.06256 0.51216 0.50029 0.0
O2529 O 0.05298 0.49486 0.52578 0.0
O2530 O 0.0848 0.52494 0.53742 0.0
O2531 O 0.08567 0.55397 0.52448 0.0
C2532 C 0.05499 0.56684 0.54663 0.0
O2533 O 0.04284 0.49858 0.56396 0.0
O2534 O 0.07035 0.52 0.57271 0.0
C2535 C 0.01982 0.51958 0.52287 0.0
C2536 C 0.0549 0.54918 0.45894 0.0
C2537 C 0.04818 0.53417 0.42166 0.0
C2538 C 0.04367 0.55189 0.42734 0.0
C2539 C 0.0471 0.55941 0.44593 0.0
C2540 C 0.05846 0.53091 0.45335 0.0
C2541 C 0.05526 0.52355 0.43481 0.0
C2542 C 0.05947 0.55767 0.47821 0.0
C2543 C 0.05795 0.49501 0.5085 0.0
H2544 H 0.05589 0.52041 0.64111 0.0
H2545 H 0.06622 0.50461 0.61395 0.0
H2546 H 0.0281 0.5261 0.57836 0.0
H2547 H 0.01738 0.54128 0.6052 0.0
H2548 H 0.03835 0.56034 0.4173 0.0
H2549 H 0.04411 0.57342 0.45009 0.0
H2550 H 0.06421 0.52261 0.46322 0.0
H2551 H 0.05881 0.50984 0.43062 0.0
Tb2552 Tb 0.81861 0.7737 0.28461 0.0
Tb2553 Tb 0.77364 0.77283 0.27572 0.0
C2554 C 0.78517 0.73572 0.28585 0.0
C2555 C 0.86903 0.77554 0.27849 0.0
C2556 C 0.89981 0.77911 0.256 0.0
C2557 C 0.9009 0.77287 0.27402 0.0
C2558 C 0.88563 0.77112 0.28516 0.0
C2559 C 0.86785 0.78186 0.26056 0.0
C2560 C 0.88314 0.7837 0.24942 0.0
C2561 C 0.8528 0.77283 0.29005 0.0
O2562 O 0.81166 0.76298 0.25521 0.0
O2563 O 0.78459 0.77288 0.24837 0.0
O2564 O 0.79008 0.80439 0.27992 0.0
O2565 O 0.81896 0.80095 0.27161 0.0
O2566 O 0.74506 0.75535 0.27575 0.0
O2567 O 0.752 0.78532 0.2664 0.0
O2568 O 0.77812 0.77484 0.30601 0.0
O2569 O 0.81101 0.78737 0.30995 0.0
O2570 O 0.80002 0.74763 0.29578 0.0
O2571 O 0.77703 0.7428 0.27239 0.0
C2572 C 0.79896 0.76645 0.24312 0.0
O2573 O 0.84718 0.7888 0.29383 0.0
O2574 O 0.83839 0.7569 0.28526 0.0
C2575 C 0.8073 0.81194 0.27449 0.0
C2576 C 0.72326 0.77372 0.28114 0.0
C2577 C 0.69376 0.77819 0.30286 0.0
C2578 C 0.71292 0.78914 0.3081 0.0
C2579 C 0.72761 0.78682 0.29737 0.0
C2580 C 0.70415 0.76314 0.2757 0.0
C2581 C 0.68953 0.76532 0.28646 0.0
C2582 C 0.73837 0.76975 0.27033 0.0
C2583 C 0.79403 0.78354 0.31653 0.0
H2584 H 0.91362 0.76945 0.27954 0.0
H2585 H 0.88674 0.76618 0.29896 0.0
H2586 H 0.85502 0.78518 0.25514 0.0
H2587 H 0.88179 0.78832 0.23554 0.0
H2588 H 0.71659 0.79904 0.32074 0.0
H2589 H 0.74233 0.79493 0.30189 0.0
H2590 H 0.70057 0.7529 0.26326 0.0
H2591 H 0.67489 0.75687 0.28198 0.0
Tb2592 Tb 0.77813 0.27517 0.79276 0.0
Tb2593 Tb 0.80143 0.26949 0.75648 0.0
C2594 C 0.76229 0.28052 0.75256 0.0
C2595 C 0.76537 0.27296 0.84071 0.0
C2596 C 0.77263 0.26252 0.87666 0.0
C2597 C 0.7563 0.26873 0.87217 0.0
C2598 C 0.75275 0.27404 0.85429 0.0
C2599 C 0.78146 0.26639 0.84509 0.0
C2600 C 0.78512 0.26133 0.86293 0.0
C2601 C 0.76216 0.27903 0.82209 0.0
O2602 O 0.77481 0.24317 0.78719 0.0
O2603 O 0.77649 0.24347 0.75595 0.0
O2604 O 0.81496 0.25742 0.77869 0.0
O2605 O 0.80668 0.27503 0.80311 0.0
O2606 O 0.8074 0.25132 0.73464 0.0
O2607 O 0.82237 0.28302 0.73899 0.0
O2608 O 0.8158 0.29819 0.77187 0.0
O2609 O 0.78929 0.30456 0.78253 0.0
O2610 O 0.75823 0.27476 0.76917 0.0
O2611 O 0.77924 0.28244 0.74634 0.0
C2612 C 0.77088 0.23384 0.77054 0.0
O2613 O 0.77647 0.29291 0.81668 0.0
O2614 O 0.75523 0.26433 0.80923 0.0
C2615 C 0.81737 0.26442 0.79619 0.0
C2616 C 0.81413 0.2699 0.70841 0.0
C2617 C 0.80592 0.28351 0.674 0.0
C2618 C 0.82493 0.28511 0.68029 0.0
C2619 C 0.82898 0.27837 0.69738 0.0
C2620 C 0.79508 0.26733 0.70178 0.0
C2621 C 0.79101 0.27398 0.68467 0.0
C2622 C 0.81873 0.2668 0.72775 0.0
C2623 C 0.80684 0.31102 0.77773 0.0
H2624 H 0.74647 0.26977 0.88254 0.0
H2625 H 0.74026 0.27907 0.85109 0.0
H2626 H 0.79125 0.26528 0.83472 0.0
H2627 H 0.79763 0.25625 0.86593 0.0
H2628 H 0.83675 0.29258 0.6725 0.0
H2629 H 0.84377 0.28072 0.70242 0.0
H2630 H 0.7834 0.26099 0.71018 0.0
H2631 H 0.77622 0.27225 0.68006 0.0
Tb2632 Tb 0.79256 0.75939 0.77291 0.0
Tb2633 Tb 0.81196 0.80563 0.78671 0.0
C2634 C 0.7959 0.79312 0.74543 0.0
C2635 C 0.78121 0.70602 0.75228 0.0
C2636 C 0.79199 0.67081 0.7452 0.0
C2637 C 0.77259 0.6697 0.74637 0.0
C2638 C 0.76726 0.68727 0.75004 0.0
C2639 C 0.80008 0.7074 0.74835 0.0
C2640 C 0.80546 0.68984 0.74481 0.0
C2641 C 0.77702 0.7226 0.76297 0.0
O2642 O 0.82363 0.76337 0.76852 0.0
O2643 O 0.83515 0.79799 0.77188 0.0
O2644 O 0.8214 0.78793 0.80724 0.0
O2645 O 0.79464 0.76159 0.80309 0.0
O2646 O 0.82453 0.83582 0.78139 0.0
O2647 O 0.8222 0.82715 0.80931 0.0
O2648 O 0.78269 0.79965 0.79697 0.0
O2649 O 0.7674 0.7697 0.78019 0.0
O2650 O 0.79746 0.77507 0.74785 0.0
O2651 O 0.79653 0.80585 0.75984 0.0
C2652 C 0.8376 0.78023 0.76679 0.0
O2653 O 0.78825 0.72929 0.77805 0.0
O2654 O 0.77375 0.73719 0.75403 0.0
C2655 C 0.80944 0.7725 0.81378 0.0
C2656 C 0.81705 0.8584 0.80336 0.0
C2657 C 0.79595 0.88628 0.80874 0.0
C2658 C 0.79573 0.87175 0.82144 0.0
C2659 C 0.80616 0.85792 0.81878 0.0
C2660 C 0.81832 0.87378 0.79139 0.0
C2661 C 0.80779 0.88753 0.79399 0.0
C2662 C 0.82584 0.84215 0.79884 0.0
C2663 C 0.76672 0.78498 0.79183 0.0
H2664 H 0.7619 0.65522 0.7464 0.0
H2665 H 0.7526 0.68601 0.75295 0.0
H2666 H 0.81101 0.72184 0.74999 0.0
H2667 H 0.82052 0.69122 0.74396 0.0
H2668 H 0.78698 0.87063 0.8331 0.0
H2669 H 0.80508 0.84642 0.82845 0.0
H2670 H 0.82674 0.87459 0.77951 0.0
H2671 H 0.80814 0.89841 0.78384 0.0
Tb2672 Tb 0.56762 0.54919 0.53128 0.0
Tb2673 Tb 0.52705 0.52 0.5115 0.0
C2674 C 0.52923 0.54292 0.55041 0.0
C2675 C 0.61885 0.56776 0.53984 0.0
C2676 C 0.6535 0.55991 0.53251 0.0
C2677 C 0.65318 0.57504 0.54626 0.0
C2678 C 0.6359 0.57898 0.54988 0.0
C2679 C 0.61921 0.55289 0.52599 0.0
C2680 C 0.63633 0.54902 0.52234 0.0
C2681 C 0.60038 0.57056 0.54398 0.0
O2682 O 0.56884 0.51836 0.53368 0.0
O2683 O 0.5366 0.50205 0.53152 0.0
O2684 O 0.54936 0.51086 0.49837 0.0
O2685 O 0.5715 0.54173 0.50248 0.0
O2686 O 0.49937 0.50057 0.5129 0.0
O2687 O 0.51073 0.50778 0.48656 0.0
O2688 O 0.5329 0.54923 0.49968 0.0
O2689 O 0.55064 0.5692 0.52437 0.0
O2690 O 0.54769 0.54502 0.55266 0.0
O2691 O 0.51953 0.53737 0.5342 0.0
C2692 C 0.55443 0.50261 0.53624 0.0
O2693 O 0.59079 0.575 0.52995 0.0
O2694 O 0.58963 0.55624 0.55272 0.0
C2695 C 0.5651 0.5236 0.49396 0.0
C2696 C 0.47884 0.50681 0.48973 0.0
C2697 C 0.44684 0.52137 0.4849 0.0
C2698 C 0.44447 0.50047 0.48466 0.0
C2699 C 0.46043 0.49323 0.4871 0.0
C2700 C 0.48125 0.52755 0.48917 0.0
C2701 C 0.46544 0.53476 0.48674 0.0
C2702 C 0.49544 0.49997 0.49507 0.0
C2703 C 0.53968 0.567 0.50896 0.0
H2704 H 0.66622 0.58363 0.55432 0.0
H2705 H 0.63579 0.59047 0.56067 0.0
H2706 H 0.60612 0.5439 0.51826 0.0
H2707 H 0.63598 0.53693 0.51199 0.0
H2708 H 0.4303 0.48981 0.48323 0.0
H2709 H 0.45837 0.47717 0.48762 0.0
H2710 H 0.49533 0.5383 0.49146 0.0
H2711 H 0.46783 0.55095 0.48745 0.0
Tb2712 Tb 0.03115 0.53215 0.02251 0.0
Tb2713 Tb 0.07789 0.53939 0.02051 0.0
C2714 C 0.05557 0.51961 0.05323 0.0
C2715 C 0.98402 0.54302 0.02308 0.0
C2716 C 0.96073 0.56941 0.02231 0.0
C2717 C 0.95908 0.55549 0.03588 0.0
C2718 C 0.97055 0.54241 0.0362 0.0
C2719 C 0.98588 0.55706 0.0096 0.0
C2720 C 0.97426 0.57004 0.00917 0.0
C2721 C 0.99597 0.52901 0.02382 0.0
O2722 O 0.04587 0.56018 0.03903 0.0
O2723 O 0.07459 0.56944 0.02569 0.0
O2724 O 0.06567 0.5422 0.99312 0.0
O2725 O 0.04046 0.55306 1.0018 0.0
O2726 O 0.10599 0.54897 0.03317 0.0
O2727 O 0.10037 0.53677 0.00469 0.0
O2728 O 0.06476 0.50698 0.01711 0.0
O2729 O 0.03468 0.50651 0.00541 0.0
O2730 O 0.03943 0.51394 0.04279 0.0
O2731 O 0.07065 0.53336 0.04861 0.0
C2732 C 0.06155 0.57395 0.03549 0.0
O2733 O 1.00375 0.52548 0.0087 0.0
O2734 O 1.00789 0.53156 0.03848 0.0
C2735 C 0.05246 0.55122 0.98959 0.0
C2736 C 0.1257 0.52975 0.02176 0.0
C2737 C 0.14927 0.50395 0.02548 0.0
C2738 C 0.15422 0.52036 0.01444 0.0
C2739 C 0.14256 0.53312 0.01263 0.0
C2740 C 0.12067 0.51346 0.03289 0.0
C2741 C 0.13243 0.50073 0.03482 0.0
C2742 C 0.11315 0.54275 0.01869 0.0
C2743 C 0.04818 0.49754 0.00812 0.0
H2744 H 0.94867 0.55449 0.04608 0.0
H2745 H 0.96888 0.53173 0.04672 0.0
H2746 H 0.99629 0.55803 0.9994 0.0
H2747 H 0.976 0.58073 0.99867 0.0
H2748 H 0.16719 0.52339 0.00725 0.0
H2749 H 0.14662 0.54556 0.00392 0.0
H2750 H 0.10757 0.51045 0.03988 0.0
H2751 H 0.12815 0.48813 0.04329 0.0
C2752 C 0.01772 0.15572 0.95891 0.0
C2753 C 1.01322 0.17061 0.97024 0.0
C2754 C 0.02004 0.13812 0.96608 0.0
C2755 C 0.01802 0.13541 0.98511 0.0
C2756 C 1.01286 0.15009 0.9965 0.0
C2757 C 1.01042 0.16748 0.9889 0.0
C2758 C 0.02514 0.12268 0.95337 0.0
C2759 C 1.01052 0.14771 0.01684 0.0
C2760 C 1.01298 0.08276 1.00068 0.0
C2761 C 0.03197 0.08411 0.00673 0.0
C2762 C 1.00809 0.09939 0.99395 0.0
C2763 C 0.02255 0.11788 0.99323 0.0
C2764 C 0.04165 0.11945 0.99964 0.0
C2765 C 0.04613 0.10258 0.00626 0.0
C2766 C 0.98754 0.09695 0.98718 0.0
C2767 C 0.05747 0.13893 0.99928 0.0
H2768 H 0.01958 0.15791 0.9444 0.0
H2769 H 1.00699 0.17898 0.99771 0.0
H2770 H 0.03961 0.12168 0.95783 0.0
H2771 H 0.01491 0.10755 0.95418 0.0
H2772 H 0.02505 0.12644 0.93871 0.0
H2773 H 1.00553 0.15992 0.0236 0.0
H2774 H 1.00012 0.13296 0.01872 0.0
H2775 H 0.02441 0.14786 0.02401 0.0
H2776 H 1.00188 0.06864 1.0011 0.0
H2777 H 0.06082 0.10387 0.01098 0.0
H2778 H 0.98622 0.09587 0.97181 0.0
H2779 H 0.98294 0.1102 0.99208 0.0
H2780 H 0.97757 0.08313 0.99183 0.0
H2781 H 0.05923 0.14288 0.98478 0.0
H2782 H 0.0714 0.13795 0.0055 0.0
H2783 H 0.05367 0.15143 0.00693 0.0
C2784 C 0.17757 0.78549 0.18058 0.0
C2785 C 0.17212 0.80335 0.182 0.0
C2786 C 0.19383 0.78378 0.19083 0.0
C2787 C 0.20499 0.80036 0.20281 0.0
C2788 C 0.20001 0.81871 0.20379 0.0
C2789 C 0.18363 0.82 0.19333 0.0
C2790 C 0.19869 0.76399 0.1893 0.0
C2791 C 0.21159 0.83672 0.21638 0.0
C2792 C 0.23214 0.78689 0.24393 0.0
C2793 C 0.25065 0.79046 0.23796 0.0
C2794 C 0.21731 0.79051 0.23278 0.0
C2795 C 0.22101 0.7979 0.21521 0.0
C2796 C 0.23973 0.8019 0.20921 0.0
C2797 C 0.25432 0.79812 0.22065 0.0
C2798 C 0.19753 0.786 0.23968 0.0
C2799 C 0.24425 0.8098 0.19057 0.0
H2800 H 0.16895 0.7727 0.17154 0.0
H2801 H 0.17945 0.83381 0.19454 0.0
H2802 H 0.21376 0.76653 0.18592 0.0
H2803 H 0.19728 0.75722 0.20279 0.0
H2804 H 0.18923 0.75297 0.17854 0.0
H2805 H 0.20678 0.85035 0.21443 0.0
H2806 H 0.2103 0.83317 0.23104 0.0
H2807 H 0.22697 0.84024 0.21386 0.0
H2808 H 0.22913 0.78104 0.25728 0.0
H2809 H 0.26857 0.80099 0.21591 0.0
H2810 H 0.18736 0.77389 0.23036 0.0
H2811 H 0.19236 0.79957 0.23946 0.0
H2812 H 0.1972 0.78111 0.25398 0.0
H2813 H 0.23592 0.79856 0.17939 0.0
H2814 H 0.25971 0.81306 0.18834 0.0
H2815 H 0.23995 0.82381 0.18926 0.0
C2816 C 0.54096 0.8845 0.47379 0.0
C2817 C 0.52452 0.86927 0.47716 0.0
C2818 C 0.54352 0.90469 0.48028 0.0
C2819 C 0.52949 0.90973 0.49073 0.0
C2820 C 0.51309 0.89429 0.49458 0.0
C2821 C 0.51069 0.87428 0.48756 0.0
C2822 C 0.56104 0.92072 0.47559 0.0
C2823 C 0.49803 0.89892 0.50604 0.0
C2824 C 0.54539 0.95977 0.52031 0.0
C2825 C 0.53764 0.97217 0.50962 0.0
C2826 C 0.54243 0.93931 0.51458 0.0
C2827 C 0.53191 0.93117 0.49746 0.0
C2828 C 0.52403 0.94365 0.48662 0.0
C2829 C 0.52677 0.96394 0.49296 0.0
C2830 C 0.55064 0.92645 0.52681 0.0
C2831 C 0.51306 0.93568 0.46813 0.0
H2832 H 0.55154 0.88068 0.46555 0.0
H2833 H 0.498 0.8625 0.49023 0.0
H2834 H 0.55664 0.93212 0.46773 0.0
H2835 H 0.56938 0.92872 0.48848 0.0
H2836 H 0.57053 0.91435 0.46722 0.0
H2837 H 0.48657 0.8851 0.50849 0.0
H2838 H 0.50472 0.90672 0.51963 0.0
H2839 H 0.49138 0.90928 0.49896 0.0
H2840 H 0.55362 0.96603 0.53333 0.0
H2841 H 0.52086 0.97354 0.48463 0.0
H2842 H 0.56161 0.92129 0.51962 0.0
H2843 H 0.53922 0.91278 0.52962 0.0
H2844 H 0.55735 0.93473 0.54024 0.0
H2845 H 0.52231 0.93018 0.45876 0.0
H2846 H 0.50793 0.94733 0.46134 0.0
H2847 H 0.50053 0.92265 0.46991 0.0
C2848 C 0.49899 0.29919 0.70238 0.0
C2849 C 0.4959 0.2903 0.68415 0.0
C2850 C 0.48356 0.29882 0.71316 0.0
C2851 C 0.46462 0.28909 0.70559 0.0
C2852 C 0.46146 0.27976 0.68731 0.0
C2853 C 0.47713 0.2806 0.67676 0.0
C2854 C 0.48751 0.30917 0.73251 0.0
C2855 C 0.4415 0.26903 0.67884 0.0
C2856 C 0.42588 0.27441 0.73919 0.0
C2857 C 0.41718 0.28996 0.73799 0.0
C2858 C 0.44119 0.27378 0.72854 0.0
C2859 C 0.4481 0.28921 0.71663 0.0
C2860 C 0.43935 0.30493 0.71537 0.0
C2861 C 0.42393 0.30505 0.72599 0.0
C2862 C 0.44998 0.25662 0.73006 0.0
C2863 C 0.44644 0.32179 0.703 0.0
H2864 H 0.51347 0.30689 0.70805 0.0
H2865 H 0.47473 0.27353 0.66273 0.0
H2866 H 0.48049 0.32141 0.73356 0.0
H2867 H 0.48135 0.29829 0.74267 0.0
H2868 H 0.50307 0.31577 0.73644 0.0
H2869 H 0.44154 0.26186 0.66472 0.0
H2870 H 0.4342 0.25722 0.68774 0.0
H2871 H 0.43292 0.27988 0.67798 0.0
H2872 H 0.42058 0.26264 0.74834 0.0
H2873 H 0.41739 0.31724 0.72521 0.0
H2874 H 0.46531 0.26262 0.73511 0.0
H2875 H 0.44933 0.24862 0.7162 0.0
H2876 H 0.44264 0.24555 0.73962 0.0
H2877 H 0.46169 0.32986 0.70714 0.0
H2878 H 0.43805 0.33288 0.70359 0.0
H2879 H 0.44563 0.31551 0.68844 0.0
C2880 C 0.03743 0.88797 0.59601 0.0
C2881 C 0.05351 0.88619 0.60694 0.0
C2882 C 0.03767 0.90548 0.5864 0.0
C2883 C 0.05441 0.92231 0.58732 0.0
C2884 C 0.07069 0.92069 0.59828 0.0
C2885 C 0.07006 0.90302 0.60778 0.0
C2886 C 0.01982 0.90589 0.5751 0.0
C2887 C 0.08898 0.93782 0.60006 0.0
C2888 C 0.06063 0.96063 0.54887 0.0
C2889 C 0.05548 0.9772 0.55708 0.0
C2890 C 0.06042 0.94308 0.55838 0.0
C2891 C 0.0549 0.94139 0.5769 0.0
C2892 C 0.04978 0.9581 0.58529 0.0
C2893 C 0.05011 0.97548 0.57547 0.0
C2894 C 0.06609 0.92615 0.54846 0.0
C2895 C 0.04377 0.95761 0.60482 0.0
H2896 H 0.02448 0.87544 0.59462 0.0
H2897 H 0.08267 0.90265 0.61617 0.0
H2898 H 0.01517 0.91907 0.5801 0.0
H2899 H 0.02288 0.90767 0.5604 0.0
H2900 H 1.00783 0.89195 0.57577 0.0
H2901 H 0.10052 0.93449 0.60883 0.0
H2902 H 0.09408 0.94101 0.58615 0.0
H2903 H 0.0863 0.95174 0.60619 0.0
H2904 H 0.06479 0.96128 0.53478 0.0
H2905 H 0.04603 0.98781 0.58229 0.0
H2906 H 0.05401 0.91207 0.5475 0.0
H2907 H 0.0783 0.9232 0.55645 0.0
H2908 H 0.07022 0.92954 0.53426 0.0
H2909 H 0.03091 0.94461 0.60565 0.0
H2910 H 0.04046 0.97167 0.60969 0.0
H2911 H 0.05531 0.95543 0.61439 0.0
C2912 C 0.4374 0.77616 0.85388 0.0
C2913 C 0.45282 0.77717 0.84265 0.0
C2914 C 0.41905 0.77727 0.84671 0.0
C2915 C 0.41518 0.77922 0.82751 0.0
C2916 C 0.43058 0.78006 0.81606 0.0
C2917 C 0.4489 0.77921 0.82363 0.0
C2918 C 0.40369 0.7765 0.85988 0.0
C2919 C 0.42765 0.78163 0.79553 0.0
C2920 C 0.36169 0.76384 0.80642 0.0
C2921 C 0.35759 0.78245 0.80462 0.0
C2922 C 0.38004 0.76259 0.81344 0.0
C2923 C 0.39524 0.78033 0.8195 0.0
C2924 C 0.39113 0.79915 0.81787 0.0
C2925 C 0.37276 0.79997 0.81042 0.0
C2926 C 0.38305 0.74202 0.81441 0.0
C2927 C 0.40623 0.81864 0.82419 0.0
H2928 H 0.43973 0.77486 0.86857 0.0
H2929 H 0.46012 0.77977 0.8144 0.0
H2930 H 0.39862 0.79011 0.85913 0.0
H2931 H 0.39121 0.76317 0.85578 0.0
H2932 H 0.4088 0.77561 0.87444 0.0
H2933 H 0.44065 0.78182 0.78826 0.0
H2934 H 0.41564 0.76868 0.78939 0.0
H2935 H 0.42365 0.79558 0.79302 0.0
H2936 H 0.3505 0.75 0.80213 0.0
H2937 H 0.37023 0.81455 0.80935 0.0
H2938 H 0.38401 0.73857 0.8291 0.0
H2939 H 0.39671 0.74172 0.80863 0.0
H2940 H 0.37119 0.72995 0.80677 0.0
H2941 H 0.41097 0.81854 0.83899 0.0
H2942 H 0.40101 0.83205 0.8225 0.0
H2943 H 0.41897 0.82011 0.81619 0.0
C2944 C 0.56832 0.18395 0.10175 0.0
C2945 C 0.55101 0.18737 0.10679 0.0
C2946 C 0.569 0.16537 0.09261 0.0
C2947 C 0.55198 0.14923 0.088 0.0
C2948 C 0.53446 0.15252 0.09296 0.0
C2949 C 0.53418 0.17124 0.10217 0.0
C2950 C 0.58812 0.16307 0.08779 0.0
C2951 C 0.51582 0.13612 0.08855 0.0
C2952 C 0.55186 0.10809 0.04879 0.0
C2953 C 0.55434 0.0918 0.05843 0.0
C2954 C 0.55099 0.1265 0.0581 0.0
C2955 C 0.55253 0.12922 0.07781 0.0
C2956 C 0.55486 0.11277 0.08764 0.0
C2957 C 0.55576 0.09453 0.07797 0.0
C2958 C 0.54844 0.14317 0.04672 0.0
C2959 C 0.55644 0.11442 0.10853 0.0
H2960 H 0.58155 0.19597 0.10468 0.0
H2961 H 0.52063 0.17303 0.10599 0.0
H2962 H 0.59071 0.14986 0.09421 0.0
H2963 H 0.58807 0.16017 0.07258 0.0
H2964 H 0.60015 0.17667 0.09252 0.0
H2965 H 0.50335 0.14081 0.09307 0.0
H2966 H 0.51358 0.13186 0.07342 0.0
H2967 H 0.51637 0.12242 0.09545 0.0
H2968 H 0.55068 0.10653 0.03378 0.0
H2969 H 0.55754 0.0823 0.08583 0.0
H2970 H 0.56078 0.15687 0.04996 0.0
H2971 H 0.53539 0.14726 0.05031 0.0
H2972 H 0.54722 0.13885 0.0316 0.0
H2973 H 0.56895 0.12724 0.11388 0.0
H2974 H 0.55803 0.10044 0.11427 0.0
H2975 H 0.54352 0.11759 0.11374 0.0
C2976 C 0.17196 0.27063 0.34785 0.0
C2977 C 0.15734 0.27728 0.33883 0.0
C2978 C 0.18964 0.27111 0.33992 0.0
C2979 C 0.19361 0.27838 0.32216 0.0
C2980 C 0.17899 0.28511 0.31296 0.0
C2981 C 0.16145 0.28452 0.32122 0.0
C2982 C 0.20427 0.26382 0.35076 0.0
C2983 C 0.18184 0.29295 0.2941 0.0
C2984 C 0.24691 0.29649 0.30836 0.0
C2985 C 0.24921 0.27998 0.29716 0.0
C2986 C 0.2293 0.29621 0.31633 0.0
C2987 C 0.21284 0.27899 0.31337 0.0
C2988 C 0.21503 0.26231 0.30201 0.0
C2989 C 0.23282 0.26297 0.29423 0.0
C2990 C 0.2284 0.31453 0.32815 0.0
C2991 C 0.19843 0.24348 0.29807 0.0
H2992 H 0.16983 0.26524 0.36146 0.0
H2993 H 0.15075 0.28955 0.31353 0.0
H2994 H 0.20747 0.25128 0.34258 0.0
H2995 H 0.21785 0.27619 0.35339 0.0
H2996 H 0.19936 0.2585 0.36425 0.0
H2997 H 0.16944 0.29769 0.28853 0.0
H2998 H 0.19487 0.30604 0.29484 0.0
H2999 H 0.18409 0.2811 0.28424 0.0
H3000 H 0.25905 0.30984 0.31107 0.0
H3001 H 0.23387 0.24992 0.28581 0.0
H3002 H 0.2249 0.31033 0.34231 0.0
H3003 H 0.21681 0.32034 0.32232 0.0
H3004 H 0.24209 0.32684 0.32918 0.0
H3005 H 0.19401 0.23694 0.31124 0.0
H3006 H 0.20197 0.23186 0.28886 0.0
H3007 H 0.18596 0.24729 0.29144 0.0
C3008 C 0.96233 0.04901 0.13946 0.0
C3009 C 0.97381 0.04758 0.1552 0.0
C3010 C 0.96902 0.04847 0.12175 0.0
C3011 C 0.98753 0.04633 0.11986 0.0
C3012 C 0.99935 0.04544 0.13575 0.0
C3013 C 0.99238 0.0462 0.15323 0.0
C3014 C 0.95616 0.0497 0.10507 0.0
C3015 C 0.01922 0.04324 0.13428 0.0
C3016 C 1.00122 0.02358 0.07593 0.0
C3017 C 1.01335 0.04069 0.06915 0.0
C3018 C 0.99188 0.0253 0.09202 0.0
C3019 C 0.99462 0.0446 0.10132 0.0
C3020 C 1.0059 0.06202 0.09388 0.0
C3021 C 0.01523 0.05984 0.07791 0.0
C3022 C 0.98 1.00638 0.09964 0.0
C3023 C 1.00893 0.08286 0.10329 0.0
H3024 H 0.94791 0.04992 0.14092 0.0
H3025 H 1.00142 0.04549 0.16541 0.0
H3026 H 0.96373 0.0618 0.09657 0.0
H3027 H 0.95243 0.03529 0.09621 0.0
H3028 H 0.9427 0.05271 0.10901 0.0
H3029 H 0.02662 0.04296 0.14804 0.0
H3030 H 0.0184 0.02907 0.12584 0.0
H3031 H 0.02807 0.05591 0.12715 0.0
H3032 H 0.99968 0.00876 0.06915 0.0
H3033 H 0.02435 0.07316 0.07253 0.0
H3034 H 0.9658 0.00797 0.10282 0.0
H3035 H 0.98725 1.00396 0.1128 0.0
H3036 H 0.9778 0.99279 0.08986 0.0
H3037 H 0.99505 0.08512 0.10676 0.0
H3038 H 0.0161 0.09494 0.09454 0.0
H3039 H 0.01793 0.08453 0.11648 0.0
C3040 C 0.30449 0.73672 0.47381 0.0
C3041 C 0.30104 0.71573 0.47305 0.0
C3042 C 0.3009 0.7462 0.45802 0.0
C3043 C 0.29381 0.73436 0.44113 0.0
C3044 C 0.2904 0.71318 0.44028 0.0
C3045 C 0.29405 0.70412 0.45626 0.0
C3046 C 0.30461 0.76883 0.4594 0.0
C3047 C 0.28297 0.70007 0.42247 0.0
C3048 C 0.26782 0.75348 0.40279 0.0
C3049 C 0.28203 0.75889 0.39035 0.0
C3050 C 0.27164 0.74607 0.41971 0.0
C3051 C 0.29008 0.74403 0.4242 0.0
C3052 C 0.30464 0.75005 0.41195 0.0
C3053 C 0.30044 0.75746 0.39518 0.0
C3054 C 0.25577 0.73979 0.43247 0.0
C3055 C 0.32449 0.74811 0.41629 0.0
H3056 H 0.30972 0.74569 0.48683 0.0
H3057 H 0.29165 0.68791 0.45558 0.0
H3058 H 0.31518 0.77564 0.44954 0.0
H3059 H 0.29121 0.77263 0.45549 0.0
H3060 H 0.31011 0.77584 0.47357 0.0
H3061 H 0.28098 0.68381 0.4242 0.0
H3062 H 0.26905 0.70201 0.41731 0.0
H3063 H 0.29309 0.70476 0.41166 0.0
H3064 H 0.25353 0.75442 0.39905 0.0
H3065 H 0.31156 0.76198 0.38574 0.0
H3066 H 0.26061 0.74711 0.44664 0.0
H3067 H 0.25199 0.72323 0.43345 0.0
H3068 H 0.24268 0.74372 0.42758 0.0
H3069 H 0.33054 0.756 0.43002 0.0
H3070 H 0.33443 0.75443 0.40571 0.0
H3071 H 0.32375 0.73197 0.41701 0.0
C3072 C 0.56994 0.96825 0.6515 0.0
C3073 C 0.58905 0.96867 0.64984 0.0
C3074 C 0.55886 0.97196 0.63645 0.0
C3075 C 0.5672 0.97607 0.61949 0.0
C3076 C 0.5857 0.97404 0.61718 0.0
C3077 C 0.5965 0.97049 0.63249 0.0
C3078 C 0.53911 0.97377 0.63936 0.0
C3079 C 0.59492 0.97786 0.59915 0.0
C3080 C 0.54122 0.98658 0.57623 0.0
C3081 C 0.54823 1.00767 0.57706 0.0
C3082 C 0.54645 0.97588 0.59044 0.0
C3083 C 0.5587 0.98667 0.60579 0.0
C3084 C 0.56459 0.00807 0.60725 0.0
C3085 C 0.55944 0.0183 0.59273 0.0
C3086 C 0.54003 0.9531 0.5883 0.0
C3087 C 0.57736 0.02017 0.62361 0.0
H3088 H 0.56421 0.96692 0.66498 0.0
H3089 H 0.61125 0.97059 0.63124 0.0
H3090 H 0.53987 0.98997 0.64164 0.0
H3091 H 0.52909 0.96733 0.62698 0.0
H3092 H 0.53323 0.96606 0.65162 0.0
H3093 H 0.6078 0.97238 0.59864 0.0
H3094 H 0.58463 0.9704 0.58721 0.0
H3095 H 0.59936 0.99433 0.59753 0.0
H3096 H 0.53272 0.97838 0.56393 0.0
H3097 H 0.56474 0.03463 0.59332 0.0
H3098 H 0.53641 0.94676 0.60173 0.0
H3099 H 0.55187 0.94758 0.58336 0.0
H3100 H 0.52742 0.94722 0.57807 0.0
H3101 H 0.57139 0.01514 0.63679 0.0
H3102 H 0.57915 0.03662 0.62338 0.0
H3103 H 0.59172 0.01772 0.62351 0.0
C3104 C 0.29531 0.33962 0.91994 0.0
C3105 C 0.29101 0.32422 0.93212 0.0
C3106 C 0.29625 0.33532 0.90083 0.0
C3107 C 0.29263 0.31505 0.89345 0.0
C3108 C 0.28821 0.2994 0.90563 0.0
C3109 C 0.28759 0.30416 0.92477 0.0
C3110 C 0.30131 0.35255 0.88854 0.0
C3111 C 0.28402 0.27757 0.89843 0.0
C3112 C 0.27874 0.30362 0.84125 0.0
C3113 C 0.29598 0.30244 0.83428 0.0
C3114 C 0.27737 0.30737 0.8604 0.0
C3115 C 0.29368 0.31032 0.87304 0.0
C3116 C 0.31112 0.30919 0.86609 0.0
C3117 C 0.31203 0.30515 0.84692 0.0
C3118 C 0.25841 0.30819 0.8671 0.0
C3119 C 0.32896 0.31247 0.87892 0.0
H3120 H 0.29829 0.35519 0.92544 0.0
H3121 H 0.28413 0.29212 0.93396 0.0
H3122 H 0.31441 0.35244 0.88158 0.0
H3123 H 0.28962 0.35072 0.87752 0.0
H3124 H 0.30382 0.36748 0.89637 0.0
H3125 H 0.28051 0.26713 0.90957 0.0
H3126 H 0.27182 0.27359 0.88767 0.0
H3127 H 0.29658 0.27518 0.89177 0.0
H3128 H 0.26619 0.30143 0.83174 0.0
H3129 H 0.32546 0.30435 0.8418 0.0
H3130 H 0.25988 0.32337 0.87396 0.0
H3131 H 0.25396 0.29712 0.87757 0.0
H3132 H 0.24691 0.30493 0.85565 0.0
H3133 H 0.33271 0.32772 0.88636 0.0
H3134 H 0.3414 0.31106 0.87142 0.0
H3135 H 0.32632 0.30136 0.88954 0.0
C3136 C 1.00466 0.03162 0.34277 0.0
C3137 C 1.01125 0.04043 0.32663 0.0
C3138 C 0.01739 0.03103 0.35772 0.0
C3139 C 0.03726 0.04005 0.35681 0.0
C3140 C 0.04403 0.04983 0.34095 0.0
C3141 C 0.03094 0.04968 0.32591 0.0
C3142 C 1.00953 0.02037 0.37438 0.0
C3143 C 0.06505 0.06008 0.33971 0.0
C3144 C 0.06037 0.04616 0.40524 0.0
C3145 C 0.06479 0.02776 0.406 0.0
C3146 C 0.05353 0.05173 0.38854 0.0
C3147 C 0.05064 0.03835 0.3724 0.0
C3148 C 0.05713 0.02097 0.37264 0.0
C3149 C 0.06438 0.01602 0.38944 0.0
C3150 C 0.04745 0.07081 0.38869 0.0
C3151 C 0.05433 1.00631 0.35573 0.0
H3152 H 0.98945 0.02504 0.34375 0.0
H3153 H 0.03621 0.05647 0.31347 0.0
H3154 H 0.01614 0.00808 0.37683 0.0
H3155 H 1.01316 0.0311 0.38694 0.0
H3156 H 0.99374 0.01373 0.37266 0.0
H3157 H 0.06756 0.06985 0.32799 0.0
H3158 H 0.0714 0.0694 0.35276 0.0
H3159 H 0.07274 0.04852 0.33768 0.0
H3160 H 0.06067 0.05545 0.41789 0.0
H3161 H 0.06838 1.00213 0.38982 0.0
H3162 H 0.03175 0.06701 0.38973 0.0
H3163 H 0.0507 0.0783 0.3757 0.0
H3164 H 0.05462 0.08163 0.40066 0.0
H3165 H 0.03896 0.99766 0.35338 0.0
H3166 H 0.06281 0.99541 0.35735 0.0
H3167 H 0.0584 0.0144 0.34321 0.0
C3168 C 0.34467 0.71137 0.66414 0.0
C3169 C 0.32999 0.7091 0.65009 0.0
C3170 C 0.34284 0.71863 0.68224 0.0
C3171 C 0.32609 0.72398 0.68622 0.0
C3172 C 0.31107 0.72126 0.67222 0.0
C3173 C 0.31313 0.71364 0.65441 0.0
C3174 C 0.35898 0.72105 0.69696 0.0
C3175 C 0.29303 0.72694 0.67588 0.0
C3176 C 0.31113 0.73237 0.73448 0.0
C3177 C 0.31699 0.7535 0.73705 0.0
C3178 C 0.31505 0.72239 0.71842 0.0
C3179 C 0.32464 0.73388 0.70454 0.0
C3180 C 0.33111 0.75518 0.70738 0.0
C3181 C 0.32735 0.76472 0.72368 0.0
C3182 C 0.30833 0.69962 0.716 0.0
C3183 C 0.3411 0.76798 0.69276 0.0
H3184 H 0.35773 0.70788 0.66092 0.0
H3185 H 0.30145 0.71131 0.64381 0.0
H3186 H 0.36584 0.73733 0.70101 0.0
H3187 H 0.35338 0.71395 0.70956 0.0
H3188 H 0.3701 0.71425 0.69214 0.0
H3189 H 0.28254 0.72343 0.66355 0.0
H3190 H 0.28609 0.71883 0.68748 0.0
H3191 H 0.29667 0.74335 0.68004 0.0
H3192 H 0.30336 0.72365 0.74493 0.0
H3193 H 0.33189 0.78107 0.72559 0.0
H3194 H 0.31998 0.69359 0.71134 0.0
H3195 H 0.29625 0.69464 0.70514 0.0
H3196 H 0.30344 0.69291 0.72901 0.0
H3197 H 0.35342 0.76292 0.68848 0.0
H3198 H 0.34634 0.78426 0.69765 0.0
H3199 H 0.33104 0.76623 0.68029 0.0
C3200 C 0.56558 0.01495 0.818 0.0
C3201 C 0.5714 0.99736 0.81579 0.0
C3202 C 0.55885 0.02027 0.83469 0.0
C3203 C 0.55819 1.00786 0.84954 0.0
C3204 C 0.56222 0.98914 0.84677 0.0
C3205 C 0.56867 0.98404 0.82984 0.0
C3206 C 0.55434 0.0402 0.83701 0.0
C3207 C 0.56163 0.97543 0.86224 0.0
C3208 C 0.57333 0.03597 0.89675 0.0
C3209 C 0.55585 0.03278 0.90473 0.0
C3210 C 0.57419 0.02776 0.87885 0.0
C3211 C 0.55708 0.0162 0.86861 0.0
C3212 C 0.53933 0.01291 0.87657 0.0
C3213 C 0.53894 0.02115 0.89468 0.0
C3214 C 0.59346 0.03142 0.87095 0.0
C3215 C 0.52084 1.00087 0.86593 0.0
H3216 H 0.56765 0.02538 0.80727 0.0
H3217 H 0.57266 0.97017 0.82802 0.0
H3218 H 0.54148 0.03876 0.84482 0.0
H3219 H 0.56653 0.05148 0.84504 0.0
H3220 H 0.55192 0.04606 0.82345 0.0
H3221 H 0.56177 0.96007 0.85702 0.0
H3222 H 0.57434 0.98193 0.87221 0.0
H3223 H 0.54872 0.97415 0.86993 0.0
H3224 H 0.58644 0.04466 0.90467 0.0
H3225 H 0.52542 0.01874 0.90091 0.0
H3226 H 0.59361 0.03957 0.85825 0.0
H3227 H 0.59614 0.0168 0.86697 0.0
H3228 H 0.6054 0.04041 0.88092 0.0
H3229 H 0.51855 0.00821 0.85318 0.0
H3230 H 0.50828 0.99943 0.87422 0.0
H3231 H 0.52161 0.98553 0.8615 0.0
C3232 C 0.27876 0.31269 0.13519 0.0
C3233 C 0.29538 0.32536 0.12864 0.0
C3234 C 0.27813 0.30783 0.15382 0.0
C3235 C 0.29462 0.31536 0.16639 0.0
C3236 C 0.31142 0.32814 0.15996 0.0
C3237 C 0.31154 0.33312 0.14137 0.0
C3238 C 0.2598 0.29436 0.15999 0.0
C3239 C 0.32946 0.33634 0.17267 0.0
C3240 C 0.29077 0.31469 0.21907 0.0
C3241 C 0.29542 0.29692 0.22286 0.0
C3242 C 0.29013 0.32073 0.20081 0.0
C3243 C 0.29463 0.309 0.18592 0.0
C3244 C 0.2994 0.29112 0.18973 0.0
C3245 C 0.29956 0.28526 0.20797 0.0
C3246 C 0.28464 0.33969 0.19744 0.0
C3247 C 0.30467 0.27827 0.17452 0.0
H3248 H 0.2662 0.30622 0.12571 0.0
H3249 H 0.32438 0.3433 0.1369 0.0
H3250 H 0.26204 0.2799 0.16384 0.0
H3251 H 0.2556 0.30159 0.17249 0.0
H3252 H 0.24781 0.29097 0.14903 0.0
H3253 H 0.34132 0.3462 0.16568 0.0
H3254 H 0.32661 0.34513 0.18492 0.0
H3255 H 0.33422 0.32368 0.17785 0.0
H3256 H 0.28756 0.32387 0.23038 0.0
H3257 H 0.3034 0.27162 0.21061 0.0
H3258 H 0.27218 0.33619 0.18701 0.0
H3259 H 0.29663 0.35078 0.19172 0.0
H3260 H 0.28094 0.34681 0.21029 0.0
H3261 H 0.29266 0.27295 0.16362 0.0
H3262 H 0.30821 0.26491 0.17972 0.0
H3263 H 0.3172 0.28741 0.16788 0.0
C3264 C 0.23741 0.01603 0.03868 0.0
C3265 C 0.23018 0.99513 0.0344 0.0
C3266 C 0.22532 0.02757 0.04394 0.0
C3267 C 0.20555 0.01796 0.04474 0.0
C3268 C 0.19822 0.99682 0.04062 0.0
C3269 C 0.21066 0.98565 0.03558 0.0
C3270 C 0.23362 0.05005 0.04842 0.0
C3271 C 0.17716 0.98607 0.04112 0.0
C3272 C 0.1734 0.04214 0.07121 0.0
C3273 C 0.16426 0.0494 0.05684 0.0
C3274 C 0.18754 0.03261 0.0676 0.0
C3275 C 0.19228 0.03 0.04915 0.0
C3276 C 0.18338 0.03775 0.03467 0.0
C3277 C 0.16955 0.04749 0.03872 0.0
C3278 C 0.19692 0.02475 0.08341 0.0
C3279 C 0.18781 0.03495 0.01477 0.0
H3280 H 0.25255 0.02334 0.03795 0.0
H3281 H 0.205 0.96953 0.03206 0.0
H3282 H 0.22726 0.05825 0.03838 0.0
H3283 H 0.22999 0.05446 0.0624 0.0
H3284 H 0.24944 0.05504 0.048 0.0
H3285 H 0.17386 0.9695 0.03793 0.0
H3286 H 0.17237 0.98893 0.05498 0.0
H3287 H 0.16868 0.99203 0.03091 0.0
H3288 H 0.16926 0.04365 0.08522 0.0
H3289 H 0.16222 0.05281 0.02756 0.0
H3290 H 0.21273 0.03008 0.08326 0.0
H3291 H 0.19265 0.00801 0.08177 0.0
H3292 H 0.19288 0.02957 0.0971 0.0
H3293 H 0.20343 0.04082 0.01352 0.0
H3294 H 0.18027 0.0427 0.00528 0.0
H3295 H 0.18347 0.01862 0.01013 0.0
C3296 C 0.69489 0.61841 0.00841 0.0
C3297 C 0.70789 0.62505 0.02406 0.0
C3298 C 0.67643 0.60549 0.00986 0.0
C3299 C 0.67097 0.59883 0.02735 0.0
C3300 C 0.68435 0.60484 0.04304 0.0
C3301 C 0.70259 0.618 0.04123 0.0
C3302 C 0.66252 0.59965 0.99284 0.0
C3303 C 0.6792 0.59786 0.06186 0.0
C3304 C 0.61827 0.58616 0.03587 0.0
C3305 C 0.61234 0.56501 0.03308 0.0
C3306 C 0.63726 0.59726 0.03402 0.0
C3307 C 0.65083 0.587 0.02951 0.0
C3308 C 0.64506 0.56563 0.02699 0.0
C3309 C 0.62583 0.55488 0.02867 0.0
C3310 C 0.64274 0.62003 0.03662 0.0
C3311 C 0.65918 0.55416 0.02243 0.0
H3312 H 0.69891 0.62393 0.99513 0.0
H3313 H 0.71273 0.62289 0.05331 0.0
H3314 H 0.65637 0.58301 0.9909 0.0
H3315 H 0.65046 0.60618 0.99466 0.0
H3316 H 0.66935 0.60501 0.9801 0.0
H3317 H 0.69173 0.60239 0.07228 0.0
H3318 H 0.66798 0.60438 0.06683 0.0
H3319 H 0.67322 0.58119 0.06096 0.0
H3320 H 0.60794 0.59416 0.03915 0.0
H3321 H 0.62137 0.53855 0.02651 0.0
H3322 H 0.64845 0.62656 0.02382 0.0
H3323 H 0.65425 0.62566 0.04797 0.0
H3324 H 0.63044 0.6257 0.03995 0.0
H3325 H 0.6651 0.55842 0.00904 0.0
H3326 H 0.65257 0.53755 0.02147 0.0
H3327 H 0.67139 0.55821 0.03317 0.0
C3328 C 0.73198 0.45272 0.25506 0.0
C3329 C 0.7292 0.45597 0.27382 0.0
C3330 C 0.74523 0.44266 0.24968 0.0
C3331 C 0.7558 0.43573 0.26342 0.0
C3332 C 0.75354 0.43966 0.2824 0.0
C3333 C 0.74027 0.44976 0.28736 0.0
C3334 C 0.74734 0.43875 0.22933 0.0
C3335 C 0.76462 0.43253 0.29746 0.0
C3336 C 0.77174 0.38907 0.25501 0.0
C3337 C 0.79159 0.39733 0.25497 0.0
C3338 C 0.75975 0.4015 0.25657 0.0
C3339 C 0.76788 0.4227 0.25815 0.0
C3340 C 0.78779 0.43112 0.25685 0.0
C3341 C 0.79949 0.41825 0.25523 0.0
C3342 C 0.73857 0.39191 0.25777 0.0
C3343 C 0.79687 0.45367 0.25836 0.0
H3344 H 0.72339 0.45748 0.24456 0.0
H3345 H 0.73843 0.45268 0.30189 0.0
H3346 H 0.76268 0.44316 0.22654 0.0
H3347 H 0.74142 0.42237 0.22516 0.0
H3348 H 0.73974 0.44708 0.22053 0.0
H3349 H 0.76207 0.43795 0.31155 0.0
H3350 H 0.76038 0.41578 0.29643 0.0
H3351 H 0.78019 0.43784 0.29573 0.0
H3352 H 0.76568 0.37282 0.2545 0.0
H3353 H 0.81486 0.42455 0.25516 0.0
H3354 H 0.73008 0.39857 0.24823 0.0
H3355 H 0.73476 0.39491 0.27204 0.0
H3356 H 0.73433 0.37531 0.25438 0.0
H3357 H 0.78849 0.4611 0.24945 0.0
H3358 H 0.81187 0.45773 0.25439 0.0
H3359 H 0.79693 0.45981 0.27286 0.0
C3360 C 0.90581 0.49825 0.51168 0.0
C3361 C 0.89748 0.47764 0.50663 0.0
C3362 C 0.92577 0.5064 0.51392 0.0
C3363 C 0.93752 0.49351 0.51127 0.0
C3364 C 0.92915 0.47272 0.506 0.0
C3365 C 0.9092 0.46506 0.50367 0.0
C3366 C 0.93429 0.5287 0.51929 0.0
C3367 C 0.94124 0.45849 0.50323 0.0
C3368 C 0.98977 0.5139 0.50251 0.0
C3369 C 0.99877 0.51368 0.52007 0.0
C3370 C 0.96977 0.508 0.49956 0.0
C3371 C 0.95859 0.50152 0.5145 0.0
C3372 C 0.96758 0.50156 0.53232 0.0
C3373 C 0.9876 0.50777 0.53492 0.0
C3374 C 0.96063 0.50836 0.48042 0.0
C3375 C 0.95606 0.49453 0.54852 0.0
H3376 H 0.8967 0.50798 0.51384 0.0
H3377 H 0.90273 0.44905 0.50001 0.0
H3378 H 0.94249 0.531 0.53301 0.0
H3379 H 0.9445 0.5356 0.50915 0.0
H3380 H 0.92319 0.53678 0.52 0.0
H3381 H 0.93245 0.4428 0.49883 0.0
H3382 H 0.95144 0.46375 0.49261 0.0
H3383 H 0.94983 0.45835 0.51632 0.0
H3384 H 0.99835 0.51867 0.49102 0.0
H3385 H 0.9945 0.50759 0.54853 0.0
H3386 H 0.95004 0.51708 0.48106 0.0
H3387 H 0.95276 0.49276 0.47481 0.0
H3388 H 0.97133 0.51511 0.47062 0.0
H3389 H 0.94559 0.5032 0.5505 0.0
H3390 H 0.96524 0.49623 0.56163 0.0
H3391 H 0.9478 0.4784 0.54566 0.0
C3392 C 0.34348 0.10912 0.33416 0.0
C3393 C 0.35509 0.11198 0.31926 0.0
C3394 C 0.3282 0.11766 0.33498 0.0
C3395 C 0.32463 0.12932 0.32058 0.0
C3396 C 0.33679 0.13276 0.30586 0.0
C3397 C 0.35181 0.124 0.30538 0.0
C3398 C 0.31555 0.1136 0.35085 0.0
C3399 C 0.33374 0.14539 0.29034 0.0
C3400 C 0.27877 0.13809 0.30266 0.0
C3401 C 0.28316 0.15899 0.30691 0.0
C3402 C 0.29109 0.12731 0.30918 0.0
C3403 C 0.30806 0.13775 0.32021 0.0
C3404 C 0.31089 0.15807 0.3269 0.0
C3405 C 0.29837 0.16849 0.32015 0.0
C3406 C 0.28723 0.10545 0.30223 0.0
C3407 C 0.32853 0.16963 0.33909 0.0
H3408 H 0.34596 0.09968 0.34485 0.0
H3409 H 0.36098 0.12642 0.294 0.0
H3410 H 0.31207 0.12745 0.35601 0.0
H3411 H 0.30185 0.10215 0.34596 0.0
H3412 H 0.32232 0.10777 0.36254 0.0
H3413 H 0.34482 0.147 0.28023 0.0
H3414 H 0.31949 0.13841 0.28281 0.0
H3415 H 0.334 0.16069 0.29608 0.0
H3416 H 0.26673 0.13055 0.29282 0.0
H3417 H 0.30188 0.18462 0.32368 0.0
H3418 H 0.29106 0.09659 0.31327 0.0
H3419 H 0.2962 0.1044 0.29058 0.0
H3420 H 0.27197 0.09855 0.29717 0.0
H3421 H 0.33242 0.16006 0.34945 0.0
H3422 H 0.32647 0.18332 0.34645 0.0
H3423 H 0.34074 0.1745 0.33037 0.0
C3424 C 0.37613 0.12784 0.53539 0.0
C3425 C 0.37764 0.1434 0.52355 0.0
C3426 C 0.38891 0.11604 0.53523 0.0
C3427 C 0.40356 0.11974 0.52284 0.0
C3428 C 0.40519 0.13539 0.51083 0.0
C3429 C 0.39227 0.14705 0.51136 0.0
C3430 C 0.38667 0.09951 0.54827 0.0
C3431 C 0.42059 0.13981 0.4974 0.0
C3432 C 0.44653 0.10046 0.53407 0.0
C3433 C 0.44198 0.08232 0.52273 0.0
C3434 C 0.4343 0.1129 0.53408 0.0
C3435 C 0.41709 0.10713 0.52241 0.0
C3436 C 0.41257 0.08903 0.51069 0.0
C3437 C 0.42502 0.07685 0.51101 0.0
C3438 C 0.43969 0.13208 0.54677 0.0
C3439 C 0.39438 0.08235 0.49801 0.0
H3440 H 0.36471 0.12463 0.54464 0.0
H3441 H 0.39375 0.15919 0.50233 0.0
H3442 H 0.38396 0.08469 0.54024 0.0
H3443 H 0.40011 0.10198 0.55722 0.0
H3444 H 0.37473 0.09875 0.55726 0.0
H3445 H 0.41991 0.15245 0.48894 0.0
H3446 H 0.43492 0.14369 0.50505 0.0
H3447 H 0.4192 0.12618 0.48794 0.0
H3448 H 0.45973 0.105 0.54296 0.0
H3449 H 0.42122 0.06275 0.50237 0.0
H3450 H 0.42862 0.13142 0.55674 0.0
H3451 H 0.44023 0.14523 0.53862 0.0
H3452 H 0.45377 0.13467 0.55468 0.0
H3453 H 0.38177 0.07969 0.50635 0.0
H3454 H 0.39329 0.06829 0.48924 0.0
H3455 H 0.39366 0.0944 0.48886 0.0
C3456 C 0.74009 0.62104 0.3083 0.0
C3457 C 0.72291 0.61937 0.3166 0.0
C3458 C 0.75165 0.63984 0.30407 0.0
C3459 C 0.74588 0.65733 0.3083 0.0
C3460 C 0.72891 0.65583 0.3173 0.0
C3461 C 0.71756 0.63681 0.32128 0.0
C3462 C 0.76959 0.64086 0.29434 0.0
C3463 C 0.72243 0.67423 0.32217 0.0
C3464 C 0.78154 0.70911 0.30815 0.0
C3465 C 0.77626 0.7151 0.29101 0.0
C3466 C 0.77194 0.6902 0.31391 0.0
C3467 C 0.75685 0.67699 0.30216 0.0
C3468 C 0.75186 0.68272 0.28461 0.0
C3469 C 0.76158 0.70176 0.27928 0.0
C3470 C 0.77757 0.68457 0.33275 0.0
C3471 C 0.73596 0.66891 0.27162 0.0
H3472 H 0.7441 0.60753 0.30441 0.0
H3473 H 0.70435 0.63552 0.32782 0.0
H3474 H 0.76789 0.64556 0.28015 0.0
H3475 H 0.78204 0.65233 0.30177 0.0
H3476 H 0.7728 0.62611 0.2933 0.0
H3477 H 0.70966 0.67068 0.33034 0.0
H3478 H 0.73415 0.68604 0.33024 0.0
H3479 H 0.71883 0.68068 0.3093 0.0
H3480 H 0.79283 0.71941 0.31732 0.0
H3481 H 0.7575 0.70628 0.26598 0.0
H3482 H 0.78102 0.66998 0.33143 0.0
H3483 H 0.76537 0.68254 0.34157 0.0
H3484 H 0.79012 0.69622 0.3399 0.0
H3485 H 0.73872 0.65408 0.26893 0.0
H3486 H 0.7344 0.67531 0.25816 0.0
H3487 H 0.72218 0.6661 0.27813 0.0
C3488 C 0.85688 0.42907 0.77244 0.0
C3489 C 0.86677 0.43763 0.78948 0.0
C3490 C 0.84651 0.40857 0.77007 0.0
C3491 C 0.84614 0.39641 0.78509 0.0
C3492 C 0.85597 0.40502 0.80237 0.0
C3493 C 0.86615 0.42555 0.80436 0.0
C3494 C 0.83608 0.3999 0.75148 0.0
C3495 C 0.85596 0.39247 0.81866 0.0
C3496 C 0.80713 0.34684 0.78494 0.0
C3497 C 0.81675 0.33289 0.77928 0.0
C3498 C 0.81645 0.36762 0.78666 0.0
C3499 C 0.83584 0.37455 0.78266 0.0
C3500 C 0.84558 0.36058 0.77679 0.0
C3501 C 0.8359 0.3399 0.77513 0.0
C3502 C 0.80562 0.38214 0.79291 0.0
C3503 C 0.86629 0.36745 0.77244 0.0
H3504 H 0.85717 0.43845 0.76098 0.0
H3505 H 0.87399 0.43208 0.81748 0.0
H3506 H 0.84185 0.38782 0.74569 0.0
H3507 H 0.82067 0.3929 0.75311 0.0
H3508 H 0.83743 0.41151 0.74136 0.0
H3509 H 0.86398 0.40159 0.83127 0.0
H3510 H 0.84105 0.38517 0.82191 0.0
H3511 H 0.86253 0.38024 0.81514 0.0
H3512 H 0.7923 0.34155 0.7881 0.0
H3513 H 0.84343 0.32922 0.77072 0.0
H3514 H 0.80599 0.39334 0.78255 0.0
H3515 H 0.81258 0.39064 0.80615 0.0
H3516 H 0.79043 0.37434 0.79495 0.0
H3517 H 0.86806 0.37819 0.76151 0.0
H3518 H 0.87168 0.35467 0.7677 0.0
H3519 H 0.87535 0.37557 0.78493 0.0
C3520 C 0.06334 0.90619 0.09092 0.0
C3521 C 0.07477 0.8957 0.08221 0.0
C3522 C 0.06097 0.92404 0.08435 0.0
C3523 C 0.07046 0.93186 0.0688 0.0
C3524 C 0.08254 0.92177 0.06029 0.0
C3525 C 0.08448 0.90379 0.06703 0.0
C3526 C 0.04793 0.93427 0.09382 0.0
C3527 C 0.09304 0.92972 0.04377 0.0
C3528 C 0.04781 0.96457 0.04028 0.0
C3529 C 0.05869 0.98415 0.04697 0.0
C3530 C 0.05164 0.94749 0.04714 0.0
C3531 C 0.06688 0.94996 0.0609 0.0
C3532 C 0.07815 0.96967 0.06749 0.0
C3533 C 0.07384 0.98653 0.06055 0.0
C3534 C 0.03913 0.92677 0.03987 0.0
C3535 C 0.09468 0.97296 0.08196 0.0
H3536 H 0.05614 0.90042 0.10293 0.0
H3537 H 0.09324 0.89579 0.0601 0.0
H3538 H 0.0558 0.9502 0.09834 0.0
H3539 H 0.03582 0.93445 0.08392 0.0
H3540 H 0.04202 0.92659 0.10608 0.0
H3541 H 0.10294 0.92098 0.03957 0.0
H3542 H 0.08258 0.92903 0.03185 0.0
H3543 H 0.10138 0.94579 0.04691 0.0
H3544 H 0.03605 0.96254 0.02984 0.0
H3545 H 0.08244 1.00158 0.06568 0.0
H3546 H 0.03186 0.91874 0.05139 0.0
H3547 H 0.04804 0.91766 0.03407 0.0
H3548 H 0.02806 0.92741 0.02895 0.0
H3549 H 0.08932 0.96687 0.09503 0.0
H3550 H 0.10267 0.98918 0.08492 0.0
H3551 H 0.10476 0.96466 0.07732 0.0
C3552 C 0.89838 0.24225 0.8654 0.0
C3553 C 0.91573 0.25718 0.86401 0.0
C3554 C 0.88172 0.24192 0.85448 0.0
C3555 C 0.88237 0.25696 0.84198 0.0
C3556 C 0.89986 0.27193 0.84039 0.0
C3557 C 0.9163 0.27178 0.8513 0.0
C3558 C 0.86336 0.22563 0.85649 0.0
C3559 C 0.90117 0.28828 0.82726 0.0
C3560 C 0.84475 0.24969 0.80162 0.0
C3561 C 0.83321 0.26127 0.80829 0.0
C3562 C 0.86043 0.2476 0.81266 0.0
C3563 C 0.86476 0.2574 0.83076 0.0
C3564 C 0.85287 0.26863 0.83776 0.0
C3565 C 0.83725 0.27039 0.82647 0.0
C3566 C 0.87264 0.23531 0.80477 0.0
C3567 C 0.85701 0.27935 0.85697 0.0
H3568 H 0.89771 0.23101 0.87528 0.0
H3569 H 0.9297 0.28313 0.84981 0.0
H3570 H 0.85244 0.23254 0.86158 0.0
H3571 H 0.85754 0.21746 0.84281 0.0
H3572 H 0.86541 0.21455 0.86624 0.0
H3573 H 0.91585 0.2988 0.82763 0.0
H3574 H 0.8968 0.28142 0.81288 0.0
H3575 H 0.89119 0.29712 0.83085 0.0
H3576 H 0.84171 0.24247 0.78766 0.0
H3577 H 0.82844 0.27933 0.83183 0.0
H3578 H 0.87412 0.22385 0.81433 0.0
H3579 H 0.88724 0.24529 0.80334 0.0
H3580 H 0.86661 0.22749 0.79099 0.0
H3581 H 0.85832 0.26865 0.86738 0.0
H3582 H 0.8457 0.28638 0.86078 0.0
H3583 H 0.87089 0.29134 0.85777 0.0
C3584 C 0.56549 0.18995 0.55631 0.0
C3585 C 0.56991 0.19665 0.57513 0.0
C3586 C 0.56316 0.16969 0.5501 0.0
C3587 C 0.56535 0.15582 0.563 0.0
C3588 C 0.56981 0.16249 0.582 0.0
C3589 C 0.57194 0.18274 0.58782 0.0
C3590 C 0.55832 0.16312 0.52974 0.0
C3591 C 0.57222 0.14819 0.59622 0.0
C3592 C 0.54225 0.09954 0.55157 0.0
C3593 C 0.55783 0.09293 0.54636 0.0
C3594 C 0.54443 0.11998 0.55668 0.0
C3595 C 0.56268 0.13422 0.55678 0.0
C3596 C 0.57847 0.12769 0.55151 0.0
C3597 C 0.57584 0.10714 0.54629 0.0
C3598 C 0.52719 0.12633 0.56205 0.0
C3599 C 0.59819 0.14238 0.55159 0.0
H3600 H 0.56405 0.20059 0.54638 0.0
H3601 H 0.57494 0.18763 0.60244 0.0
H3602 H 0.56949 0.15686 0.52425 0.0
H3603 H 0.54457 0.15093 0.52773 0.0
H3604 H 0.55711 0.17574 0.52149 0.0
H3605 H 0.57617 0.15588 0.61038 0.0
H3606 H 0.5587 0.13586 0.59643 0.0
H3607 H 0.58348 0.14111 0.59246 0.0
H3608 H 0.52821 0.08874 0.55151 0.0
H3609 H 0.58796 0.10221 0.54229 0.0
H3610 H 0.52509 0.13822 0.5533 0.0
H3611 H 0.52957 0.1329 0.57664 0.0
H3612 H 0.51386 0.11352 0.56061 0.0
H3613 H 0.59776 0.15459 0.54254 0.0
H3614 H 0.6089 0.13498 0.54678 0.0
H3615 H 0.60305 0.14958 0.5658 0.0
C3616 C 0.61573 0.78264 0.37529 0.0
C3617 C 0.59832 0.78207 0.36572 0.0
C3618 C 0.63204 0.78315 0.36577 0.0
C3619 C 0.63092 0.78327 0.34623 0.0
C3620 C 0.61352 0.78333 0.33656 0.0
C3621 C 0.59741 0.78264 0.34641 0.0
C3622 C 0.65026 0.78287 0.37655 0.0
C3623 C 0.61181 0.78367 0.31575 0.0
C3624 C 0.67669 0.79851 0.32137 0.0
C3625 C 0.67817 0.77967 0.3146 0.0
C3626 C 0.66147 0.79996 0.33183 0.0
C3627 C 0.64756 0.78213 0.33576 0.0
C3628 C 0.64926 0.76306 0.32931 0.0
C3629 C 0.66449 0.76207 0.31874 0.0
C3630 C 0.66004 0.82055 0.33836 0.0
C3631 C 0.63489 0.74368 0.3334 0.0
H3632 H 0.61645 0.78201 0.3902 0.0
H3633 H 0.58403 0.78245 0.339 0.0
H3634 H 0.65377 0.76869 0.37254 0.0
H3635 H 0.66239 0.79558 0.3732 0.0
H3636 H 0.64909 0.78391 0.39176 0.0
H3637 H 0.59765 0.78495 0.31045 0.0
H3638 H 0.62318 0.79653 0.31137 0.0
H3639 H 0.61386 0.76964 0.30915 0.0
H3640 H 0.68719 0.81214 0.31809 0.0
H3641 H 0.66576 0.74747 0.31376 0.0
H3642 H 0.6595 0.82178 0.35362 0.0
H3643 H 0.64657 0.82271 0.33218 0.0
H3644 H 0.67228 0.83292 0.33457 0.0
H3645 H 0.63393 0.74314 0.34857 0.0
H3646 H 0.63864 0.73009 0.32791 0.0
H3647 H 0.62047 0.74308 0.32718 0.0
C3648 C 0.06917 0.16512 0.44995 0.0
C3649 C 0.05255 0.1713 0.4459 0.0
C3650 C 0.0688 0.14738 0.45923 0.0
C3651 C 0.05138 0.1347 0.4649 0.0
C3652 C 0.03454 0.14066 0.46077 0.0
C3653 C 0.03531 0.15855 0.45156 0.0
C3654 C 0.0873 0.14221 0.46305 0.0
C3655 C 0.01548 0.12811 0.46624 0.0
C3656 C 0.04769 0.07892 0.47601 0.0
C3657 C 0.04998 0.08001 0.49558 0.0
C3658 C 0.04805 0.09622 0.466 0.0
C3659 C 0.05085 0.11568 0.47544 0.0
C3660 C 0.05319 0.11683 0.49517 0.0
C3661 C 0.05272 0.09932 0.50481 0.0
C3662 C 0.04547 0.09362 0.44514 0.0
C3663 C 0.05633 0.13679 0.50626 0.0
H3664 H 0.0827 0.17405 0.44566 0.0
H3665 H 0.0222 0.16265 0.44909 0.0
H3666 H 0.09011 0.14161 0.47816 0.0
H3667 H 0.08613 0.12703 0.45635 0.0
H3668 H 0.09972 0.15333 0.45792 0.0
H3669 H 1.00352 0.13409 0.46166 0.0
H3670 H 1.01245 0.11234 0.46015 0.0
H3671 H 0.01595 0.12766 0.48151 0.0
H3672 H 0.04566 0.06444 0.46837 0.0
H3673 H 0.05462 0.10088 0.5198 0.0
H3674 H 0.05839 0.10305 0.43928 0.0
H3675 H 0.03319 0.09886 0.44015 0.0
H3676 H 0.04296 0.07767 0.43967 0.0
H3677 H 0.06938 0.14788 0.50221 0.0
H3678 H 0.05794 0.13549 0.52142 0.0
H3679 H 0.0441 0.14291 0.50321 0.0
C3680 C 0.66218 0.29723 0.2344 0.0
C3681 C 0.65628 0.29315 0.21525 0.0
C3682 C 0.68041 0.29622 0.24204 0.0
C3683 C 0.69386 0.29116 0.23055 0.0
C3684 C 0.68811 0.28725 0.21123 0.0
C3685 C 0.66975 0.2882 0.20397 0.0
C3686 C 0.68522 0.30042 0.26265 0.0
C3687 C 0.70152 0.28206 0.19802 0.0
C3688 C 0.74839 0.3052 0.24803 0.0
C3689 C 0.75098 0.28683 0.25349 0.0
C3690 C 0.73027 0.30682 0.24071 0.0
C3691 C 0.71364 0.28975 0.23864 0.0
C3692 C 0.71616 0.27121 0.24423 0.0
C3693 C 0.73445 0.26999 0.25141 0.0
C3694 C 0.72897 0.32701 0.23512 0.0
C3695 C 0.69934 0.25245 0.24266 0.0
H3696 H 0.65233 0.30087 0.24366 0.0
H3697 H 0.66611 0.28529 0.18919 0.0
H3698 H 0.68804 0.28704 0.26852 0.0
H3699 H 0.69848 0.31317 0.26556 0.0
H3700 H 0.67354 0.30419 0.26989 0.0
H3701 H 0.69537 0.2797 0.18341 0.0
H3702 H 0.71521 0.29434 0.1991 0.0
H3703 H 0.70493 0.26813 0.20181 0.0
H3704 H 0.76066 0.31851 0.24942 0.0
H3705 H 0.73575 0.25562 0.25547 0.0
H3706 H 0.7188 0.33215 0.24357 0.0
H3707 H 0.72333 0.32562 0.22042 0.0
H3708 H 0.74306 0.33875 0.23691 0.0
H3709 H 0.68772 0.25517 0.25069 0.0
H3710 H 0.70324 0.23925 0.24778 0.0
H3711 H 0.69353 0.24869 0.22799 0.0
C3712 C 0.57722 0.89992 0.95734 0.0
C3713 C 0.56036 0.88405 0.95215 0.0
C3714 C 0.57692 0.91854 0.96672 0.0
C3715 C 0.55929 0.92212 0.97093 0.0
C3716 C 0.5422 0.90628 0.9655 0.0
C3717 C 0.54295 0.88765 0.9565 0.0
C3718 C 0.59565 0.93439 0.97238 0.0
C3719 C 0.52295 0.90907 0.96907 0.0
C3720 C 0.55785 0.96284 0.01004 0.0
C3721 C 0.55757 0.97988 1.00045 0.0
C3722 C 0.55863 0.94436 1.00077 0.0
C3723 C 0.55872 0.94216 0.98112 0.0
C3724 C 0.55821 0.95924 0.97134 0.0
C3725 C 0.55787 0.97771 0.981 0.0
C3726 C 0.55954 0.92712 0.01215 0.0
C3727 C 0.55785 0.95799 0.9505 0.0
H3728 H 0.59087 0.89764 0.95441 0.0
H3729 H 0.52969 0.87593 0.95251 0.0
H3730 H 0.59602 0.94847 0.96575 0.0
H3731 H 0.59698 0.9381 0.9876 0.0
H3732 H 0.60819 0.92942 0.96851 0.0
H3733 H 0.51091 0.8958 0.96354 0.0
H3734 H 0.52197 0.91164 0.98418 0.0
H3735 H 0.52126 0.92263 0.96261 0.0
H3736 H 0.55776 0.964 0.02499 0.0
H3737 H 0.55757 0.99046 0.97318 0.0
H3738 H 0.57246 0.92237 0.00932 0.0
H3739 H 0.5469 0.91391 0.00817 0.0
H3740 H 0.55996 0.93118 0.02725 0.0
H3741 H 0.57101 0.95474 0.94602 0.0
H3742 H 0.55683 0.97217 0.94474 0.0
H3743 H 0.54549 0.94537 0.94446 0.0
C3744 C 0.94574 0.77821 0.73562 0.0
C3745 C 0.94801 0.78015 0.71646 0.0
C3746 C 0.92821 0.77775 0.74388 0.0
C3747 C 0.9117 0.77919 0.73311 0.0
C3748 C 0.9138 0.78104 0.71379 0.0
C3749 C 0.93149 0.78149 0.70589 0.0
C3750 C 0.92744 0.77586 0.76442 0.0
C3751 C 0.89714 0.78256 0.70127 0.0
C3752 C 0.86019 0.76147 0.75175 0.0
C3753 C 0.85667 0.77959 0.75851 0.0
C3754 C 0.87764 0.76108 0.74367 0.0
C3755 C 0.89263 0.77922 0.74199 0.0
C3756 C 0.88915 0.79751 0.74886 0.0
C3757 C 0.8716 0.79747 0.75682 0.0
C3758 C 0.87998 0.74102 0.73678 0.0
C3759 C 0.90408 0.81743 0.74773 0.0
H3760 H 0.95789 0.77739 0.74449 0.0
H3761 H 0.93217 0.78266 0.69113 0.0
H3762 H 0.92437 0.7893 0.77115 0.0
H3763 H 0.91562 0.76247 0.76704 0.0
H3764 H 0.94104 0.77444 0.77105 0.0
H3765 H 0.9006 0.78371 0.6866 0.0
H3766 H 0.88467 0.76913 0.70204 0.0
H3767 H 0.89274 0.79601 0.70596 0.0
H3768 H 0.84918 0.74738 0.75264 0.0
H3769 H 0.8696 0.81176 0.76174 0.0
H3770 H 0.8929 0.73868 0.74399 0.0
H3771 H 0.88216 0.74092 0.72177 0.0
H3772 H 0.86737 0.72821 0.73898 0.0
H3773 H 0.91774 0.8173 0.75519 0.0
H3774 H 0.89964 0.83038 0.75373 0.0
H3775 H 0.90693 0.81976 0.73306 0.0
C3776 C 0.12989 0.01056 0.91739 0.0
C3777 C 0.13908 0.02909 0.91068 0.0
C3778 C 0.11923 0.00978 0.93292 0.0
C3779 C 0.11774 0.02797 0.94181 0.0
C3780 C 0.12762 0.04674 0.93554 0.0
C3781 C 0.13823 0.04707 0.92006 0.0
C3782 C 0.10894 0.98951 0.93933 0.0
C3783 C 0.12641 0.06645 0.94474 0.0
C3784 C 0.07366 0.02767 0.96679 0.0
C3785 C 0.08072 0.02928 0.98537 0.0
C3786 C 0.0855 0.02678 0.95247 0.0
C3787 C 0.10481 0.02743 0.95686 0.0
C3788 C 0.11193 0.02858 0.97557 0.0
C3789 C 0.09978 0.02952 0.98963 0.0
C3790 C 0.07746 0.02562 0.93263 0.0
C3791 C 0.13245 0.02923 0.98074 0.0
H3792 H 0.13042 0.99663 0.91007 0.0
H3793 H 0.14562 0.06143 0.91509 0.0
H3794 H 0.11217 0.98929 0.95444 0.0
H3795 H 0.09324 0.98678 0.93688 0.0
H3796 H 0.11294 0.97694 0.93197 0.0
H3797 H 0.13584 0.07976 0.93881 0.0
H3798 H 0.11144 0.06722 0.94306 0.0
H3799 H 0.13044 0.06741 0.95982 0.0
H3800 H 0.05894 0.02741 0.96341 0.0
H3801 H 0.10532 0.03065 0.00397 0.0
H3802 H 0.07958 0.01236 0.92463 0.0
H3803 H 0.08521 0.03927 0.92601 0.0
H3804 H 0.06194 0.02445 0.93156 0.0
H3805 H 0.1358 0.01616 0.97363 0.0
H3806 H 0.13545 0.02908 0.99591 0.0
H3807 H 0.14227 0.04309 0.97607 0.0
C3808 C 0.8054 0.35991 0.59764 0.0
C3809 C 0.79177 0.35244 0.58256 0.0
C3810 C 0.80708 0.34791 0.61214 0.0
C3811 C 0.79479 0.32798 0.61157 0.0
C3812 C 0.78091 0.32036 0.59647 0.0
C3813 C 0.77956 0.3327 0.58212 0.0
C3814 C 0.82202 0.35659 0.62807 0.0
C3815 C 0.76755 0.29918 0.59543 0.0
C3816 C 0.81177 0.29239 0.64143 0.0
C3817 C 0.80187 0.29337 0.65728 0.0
C3818 C 0.80924 0.30318 0.62622 0.0
C3819 C 0.79647 0.31519 0.62689 0.0
C3820 C 0.78602 0.31577 0.64262 0.0
C3821 C 0.78891 0.30493 0.65765 0.0
C3822 C 0.82062 0.30219 0.60965 0.0
C3823 C 0.77228 0.32841 0.64387 0.0
H3824 H 0.81467 0.37526 0.5982 0.0
H3825 H 0.76915 0.32677 0.57039 0.0
H3826 H 0.81504 0.35643 0.64125 0.0
H3827 H 0.83194 0.34715 0.62934 0.0
H3828 H 0.83053 0.37233 0.62634 0.0
H3829 H 0.75746 0.29559 0.5828 0.0
H3830 H 0.77595 0.28812 0.59551 0.0
H3831 H 0.75914 0.29718 0.60778 0.0
H3832 H 0.82167 0.28334 0.64101 0.0
H3833 H 0.78151 0.3061 0.67 0.0
H3834 H 0.83048 0.31735 0.60808 0.0
H3835 H 0.81089 0.2977 0.59682 0.0
H3836 H 0.8292 0.29135 0.61091 0.0
H3837 H 0.78032 0.34464 0.64417 0.0
H3838 H 0.76421 0.32602 0.65645 0.0
H3839 H 0.76189 0.32483 0.63149 0.0
C3840 C 0.48823 0.04641 0.4081 0.0
C3841 C 0.49565 0.0553 0.39228 0.0
C3842 C 0.50032 0.04555 0.4235 0.0
C3843 C 0.52034 0.05411 0.4232 0.0
C3844 C 0.528 0.06297 0.40725 0.0
C3845 C 0.51554 0.06338 0.3919 0.0
C3846 C 0.49158 0.03587 0.44026 0.0
C3847 C 0.54926 0.07236 0.40657 0.0
C3848 C 0.54138 0.0676 0.47229 0.0
C3849 C 0.54658 0.05022 0.47604 0.0
C3850 C 0.53474 0.07016 0.45441 0.0
C3851 C 0.53282 0.05466 0.44016 0.0
C3852 C 0.53971 0.03794 0.44354 0.0
C3853 C 0.54673 0.03601 0.46153 0.0
C3854 C 0.52798 0.08844 0.45125 0.0
C3855 C 0.53778 0.02105 0.42874 0.0
H3856 H 0.47288 0.04045 0.40863 0.0
H3857 H 0.52138 0.07001 0.37959 0.0
H3858 H 0.49836 0.02415 0.44429 0.0
H3859 H 0.4942 0.04741 0.45217 0.0
H3860 H 0.47588 0.02877 0.43776 0.0
H3861 H 0.55303 0.07749 0.39271 0.0
H3862 H 0.55429 0.08553 0.41699 0.0
H3863 H 0.55715 0.06142 0.41018 0.0
H3864 H 0.54151 0.07868 0.48357 0.0
H3865 H 0.55071 0.02253 0.46453 0.0
H3866 H 0.51211 0.08406 0.45059 0.0
H3867 H 0.53242 0.09451 0.4379 0.0
H3868 H 0.53363 0.10062 0.46258 0.0
H3869 H 0.52268 0.01146 0.42706 0.0
H3870 H 0.54704 0.01138 0.43239 0.0
H3871 H 0.54146 0.02705 0.41519 0.0
C3872 C 0.79711 0.72784 0.13585 0.0
C3873 C 0.80693 0.7429 0.12491 0.0
C3874 C 0.79623 0.73177 0.15502 0.0
C3875 C 0.80537 0.7513 0.16372 0.0
C3876 C 0.81544 0.76656 0.15284 0.0
C3877 C 0.81613 0.76219 0.13365 0.0
C3878 C 0.78543 0.71497 0.16598 0.0
C3879 C 0.82535 0.78761 0.16144 0.0
C3880 C 0.78726 0.76583 0.20955 0.0
C3881 C 0.80083 0.76285 0.2228 0.0
C3882 C 0.7887 0.76238 0.1904 0.0
C3883 C 0.8041 0.75576 0.18412 0.0
C3884 C 0.81795 0.7529 0.19739 0.0
C3885 C 0.81617 0.75647 0.21648 0.0
C3886 C 0.7736 0.76568 0.17685 0.0
C3887 C 0.83462 0.74588 0.19142 0.0
H3888 H 0.79025 0.71277 0.12944 0.0
H3889 H 0.82363 0.77404 0.12543 0.0
H3890 H 0.79511 0.7124 0.17733 0.0
H3891 H 0.77364 0.71929 0.17249 0.0
H3892 H 0.77925 0.70056 0.15726 0.0
H3893 H 0.83288 0.7977 0.15123 0.0
H3894 H 0.81473 0.79429 0.16752 0.0
H3895 H 0.83591 0.78706 0.17288 0.0
H3896 H 0.77536 0.7708 0.21413 0.0
H3897 H 0.82683 0.75418 0.22646 0.0
H3898 H 0.76611 0.75131 0.16857 0.0
H3899 H 0.78039 0.77668 0.16702 0.0
H3900 H 0.7628 0.77136 0.18386 0.0
H3901 H 0.82926 0.73077 0.18373 0.0
H3902 H 0.8445 0.74496 0.20335 0.0
H3903 H 0.84283 0.75634 0.18186 0.0
C3904 C 0.10353 0.02913 0.72929 0.0
C3905 C 0.11397 0.04649 0.74039 0.0
C3906 C 0.09404 0.03062 0.71231 0.0
C3907 C 0.09507 0.04993 0.70634 0.0
C3908 C 0.10474 0.06748 0.71793 0.0
C3909 C 0.1141 0.06554 0.73483 0.0
C3910 C 0.08386 0.01157 0.70031 0.0
C3911 C 0.10601 0.08832 0.71207 0.0
C3912 C 0.09274 0.05422 0.65458 0.0
C3913 C 0.07381 0.05454 0.65077 0.0
C3914 C 0.09982 0.05285 0.67264 0.0
C3915 C 0.08767 0.05179 0.68726 0.0
C3916 C 0.06858 0.0523 0.68358 0.0
C3917 C 0.06186 0.05369 0.66533 0.0
C3918 C 0.12031 0.05244 0.67605 0.0
C3919 C 0.05524 0.05115 0.69886 0.0
H3920 H 0.10354 0.01437 0.73344 0.0
H3921 H 0.12194 0.07898 0.74352 0.0
H3922 H 0.06926 0.01182 0.69543 0.0
H3923 H 0.09178 0.01059 0.68787 0.0
H3924 H 0.0827 0.99778 0.70775 0.0
H3925 H 0.11241 0.10029 0.72341 0.0
H3926 H 0.11495 0.09131 0.70013 0.0
H3927 H 0.0916 0.08936 0.70746 0.0
H3928 H 0.1021 0.0552 0.6434 0.0
H3929 H 0.04716 0.05375 0.66239 0.0
H3930 H 0.12067 0.03825 0.68216 0.0
H3931 H 0.12826 0.06514 0.68616 0.0
H3932 H 0.1279 0.05352 0.66316 0.0
H3933 H 0.05328 0.03669 0.70533 0.0
H3934 H 0.04096 0.05225 0.69374 0.0
H3935 H 0.06156 0.06349 0.70986 0.0
C3936 C 0.79279 0.34639 0.40662 0.0
C3937 C 0.78189 0.35994 0.40885 0.0
C3938 C 0.7938 0.33715 0.38918 0.0
C3939 C 0.78357 0.34151 0.37358 0.0
C3940 C 0.77201 0.35466 0.37579 0.0
C3941 C 0.7713 0.36375 0.39347 0.0
C3942 C 0.80617 0.32307 0.38738 0.0
C3943 C 0.76086 0.35956 0.35944 0.0
C3944 C 0.80398 0.33284 0.32808 0.0
C3945 C 0.79251 0.31337 0.32189 0.0
C3946 C 0.80067 0.3426 0.34452 0.0
C3947 C 0.78553 0.33263 0.35495 0.0
C3948 C 0.77337 0.31338 0.34835 0.0
C3949 C 0.77701 0.30397 0.33189 0.0
C3950 C 0.81389 0.36321 0.35112 0.0
C3951 C 0.75703 0.30234 0.35908 0.0
H3952 H 0.80075 0.34318 0.41857 0.0
H3953 H 0.76297 0.37435 0.39514 0.0
H3954 H 0.79754 0.30813 0.38082 0.0
H3955 H 0.81777 0.32921 0.37828 0.0
H3956 H 0.81278 0.32086 0.40098 0.0
H3957 H 0.75163 0.36906 0.36367 0.0
H3958 H 0.77092 0.36771 0.34972 0.0
H3959 H 0.75174 0.34546 0.35174 0.0
H3960 H 0.81587 0.3403 0.32034 0.0
H3961 H 0.76795 0.28899 0.32713 0.0
H3962 H 0.82242 0.36213 0.36399 0.0
H3963 H 0.80548 0.37382 0.35452 0.0
H3964 H 0.82391 0.36962 0.34064 0.0
H3965 H 0.76281 0.29811 0.37221 0.0
H3966 H 0.74779 0.2884 0.35117 0.0
H3967 H 0.74804 0.31227 0.36278 0.0
C3968 C 0.50501 0.07898 0.22336 0.0
C3969 C 0.48532 0.07669 0.22338 0.0
C3970 C 0.51318 0.07531 0.20699 0.0
C3971 C 0.50133 0.0693 0.19029 0.0
C3972 C 0.48179 0.06873 0.18993 0.0
C3973 C 0.47399 0.07241 0.20653 0.0
C3974 C 0.53411 0.07624 0.2079 0.0
C3975 C 0.46875 0.06257 0.17233 0.0
C3976 C 0.524 0.06483 0.14504 0.0
C3977 C 0.52227 0.04409 0.14312 0.0
C3978 C 0.51724 0.07336 0.16031 0.0
C3979 C 0.50865 0.06082 0.17396 0.0
C3980 C 0.50695 0.03991 0.17213 0.0
C3981 C 0.51375 0.0318 0.15671 0.0
C3982 C 0.51928 0.0957 0.16183 0.0
C3983 C 0.49786 0.02604 0.18642 0.0
H3984 H 0.51387 0.08263 0.23634 0.0
H3985 H 0.45874 0.07051 0.20647 0.0
H3986 H 0.53547 0.06068 0.20656 0.0
H3987 H 0.54117 0.08426 0.1963 0.0
H3988 H 0.54187 0.08393 0.22118 0.0
H3989 H 0.45485 0.06585 0.17376 0.0
H3990 H 0.47566 0.07045 0.1606 0.0
H3991 H 0.46586 0.04612 0.1688 0.0
H3992 H 0.5308 0.07445 0.13467 0.0
H3993 H 0.51212 0.01573 0.15515 0.0
H3994 H 0.52797 0.10295 0.17479 0.0
H3995 H 0.505 0.09822 0.16257 0.0
H3996 H 0.52617 0.10331 0.14992 0.0
H3997 H 0.50568 0.0313 0.20022 0.0
H3998 H 0.4978 0.01018 0.18299 0.0
H3999 H 0.48286 0.02636 0.18756 0.0
C4000 C 0.82447 0.73866 0.91722 0.0
C4001 C 0.81483 0.74758 0.92993 0.0
C4002 C 0.82465 0.74302 0.89848 0.0
C4003 C 0.81488 0.7566 0.89202 0.0
C4004 C 0.8053 0.76584 0.90478 0.0
C4005 C 0.80541 0.76126 0.92347 0.0
C4006 C 0.83502 0.73274 0.88546 0.0
C4007 C 0.79467 0.78038 0.89861 0.0
C4008 C 0.82656 0.78017 0.84598 0.0
C4009 C 0.81157 0.76808 0.83364 0.0
C4010 C 0.82794 0.77655 0.86491 0.0
C4011 C 0.81398 0.76048 0.87181 0.0
C4012 C 0.79895 0.74812 0.85937 0.0
C4013 C 0.79795 0.75203 0.84055 0.0
C4014 C 0.84425 0.79006 0.87759 0.0
C4015 C 0.78371 0.73085 0.86597 0.0
H4016 H 0.83153 0.7278 0.9218 0.0
H4017 H 0.79811 0.76851 0.93308 0.0
H4018 H 0.82463 0.72292 0.87461 0.0
H4019 H 0.84548 0.74416 0.87835 0.0
H4020 H 0.84274 0.72337 0.89275 0.0
H4021 H 0.7884 0.78676 0.91026 0.0
H4022 H 0.80446 0.79299 0.89215 0.0
H4023 H 0.78296 0.77258 0.88795 0.0
H4024 H 0.83715 0.79263 0.84091 0.0
H4025 H 0.78626 0.74255 0.83127 0.0
H4026 H 0.85249 0.78089 0.8844 0.0
H4027 H 0.83853 0.79785 0.88871 0.0
H4028 H 0.85417 0.80163 0.8701 0.0
H4029 H 0.79041 0.72014 0.87242 0.0
H4030 H 0.77311 0.72246 0.85455 0.0
H4031 H 0.77601 0.73666 0.87674 0.0
C4032 C 0.87705 0.08502 0.99059 0.0
C4033 C 0.88506 0.09869 0.00599 0.0
C4034 C 0.88731 0.07277 0.98263 0.0
C4035 C 0.90599 0.07433 0.99026 0.0
C4036 C 0.9145 0.08887 0.00519 0.0
C4037 C 0.90388 0.10082 0.01294 0.0
C4038 C 0.87781 0.05746 0.96672 0.0
C4039 C 0.93453 0.09117 0.01353 0.0
C4040 C 0.92539 0.02932 0.98984 0.0
C4041 C 0.93914 0.03399 0.97682 0.0
C4042 C 0.9137 0.04175 0.9935 0.0
C4043 C 0.91593 0.05944 0.98408 0.0
C4044 C 0.9289 0.06365 0.97013 0.0
C4045 C 0.94027 0.05077 0.96656 0.0
C4046 C 0.8999 0.03666 0.0084 0.0
C4047 C 0.93171 0.0824 0.95982 0.0
H4048 H 0.86244 0.08327 0.98526 0.0
H4049 H 0.91018 0.11162 0.02466 0.0
H4050 H 0.88751 0.05825 0.95541 0.0
H4051 H 0.87469 0.04204 0.97149 0.0
H4052 H 0.86417 0.05972 0.96104 0.0
H4053 H 0.9396 0.10425 0.02406 0.0
H4054 H 0.93487 0.07729 0.02023 0.0
H4055 H 0.94469 0.0931 0.00255 0.0
H4056 H 0.92455 0.01665 0.99811 0.0
H4057 H 0.95063 0.05434 0.95627 0.0
H4058 H 0.88552 0.03745 0.00335 0.0
H4059 H 0.90499 0.04785 0.02056 0.0
H4060 H 0.89847 0.02136 0.01305 0.0
H4061 H 0.91773 0.08468 0.95539 0.0
H4062 H 0.93983 0.08176 0.94744 0.0
H4063 H 0.9398 0.09576 0.96916 0.0
C4064 C 0.41838 0.43557 0.03547 0.0
C4065 C 0.40216 0.44102 0.02919 0.0
C4066 C 0.43692 0.44837 0.03411 0.0
C4067 C 0.4393 0.46718 0.02648 0.0
C4068 C 0.42297 0.47275 0.02011 0.0
C4069 C 0.40461 0.45956 0.02146 0.0
C4070 C 0.45397 0.4418 0.04092 0.0
C4071 C 0.42487 0.49278 0.01216 0.0
C4072 C 0.48605 0.50751 0.04141 0.0
C4073 C 0.49683 0.50673 0.02614 0.0
C4074 C 0.46718 0.49512 0.04147 0.0
C4075 C 0.45887 0.48139 0.02595 0.0
C4076 C 0.46948 0.48085 0.01028 0.0
C4077 C 0.48832 0.49364 0.0105 0.0
C4078 C 0.4563 0.49641 0.05836 0.0
C4079 C 0.46116 0.46632 0.99351 0.0
H4080 H 0.41658 0.42115 0.04124 0.0
H4081 H 0.39211 0.46394 0.01675 0.0
H4082 H 0.46369 0.44206 0.02968 0.0
H4083 H 0.46223 0.45248 0.05251 0.0
H4084 H 0.44972 0.42638 0.04578 0.0
H4085 H 0.41078 0.49462 0.00736 0.0
H4086 H 0.43203 0.50528 0.02278 0.0
H4087 H 0.43397 0.49431 1.00032 0.0
H4088 H 0.49246 0.51768 0.05352 0.0
H4089 H 0.49659 0.49286 0.9987 0.0
H4090 H 0.45309 0.48187 0.06486 0.0
H4091 H 0.44241 0.49911 0.05431 0.0
H4092 H 0.46444 0.50864 0.06887 0.0
H4093 H 0.45821 0.45058 0.99746 0.0
H4094 H 0.47093 0.46834 0.98216 0.0
H4095 H 0.44732 0.46834 0.98821 0.0
C4096 C 0.38535 0.62288 0.80453 0.0
C4097 C 0.38793 0.62439 0.78561 0.0
C4098 C 0.37392 0.63315 0.81347 0.0
C4099 C 0.36495 0.64511 0.80318 0.0
C4100 C 0.36817 0.64729 0.78426 0.0
C4101 C 0.37964 0.63689 0.77571 0.0
C4102 C 0.37093 0.63071 0.8337 0.0
C4103 C 0.35906 0.66016 0.77286 0.0
C4104 C 0.31865 0.65624 0.81208 0.0
C4105 C 0.32533 0.67703 0.81682 0.0
C4106 C 0.3316 0.64497 0.80943 0.0
C4107 C 0.35153 0.65486 0.81167 0.0
C4108 C 0.35819 0.67536 0.81862 0.0
C4109 C 0.34494 0.68626 0.82104 0.0
C4110 C 0.32395 0.62307 0.8022 0.0
C4111 C 0.37928 0.68645 0.82148 0.0
H4112 H 0.39165 0.61305 0.81214 0.0
H4113 H 0.38186 0.63824 0.76115 0.0
H4114 H 0.37376 0.6457 0.84147 0.0
H4115 H 0.35581 0.62229 0.8352 0.0
H4116 H 0.38033 0.62245 0.84012 0.0
H4117 H 0.36346 0.66064 0.75845 0.0
H4118 H 0.34323 0.65414 0.77229 0.0
H4119 H 0.36302 0.67583 0.7794 0.0
H4120 H 0.30344 0.6492 0.80881 0.0
H4121 H 0.34999 0.70237 0.8249 0.0
H4122 H 0.33204 0.6138 0.80907 0.0
H4123 H 0.32573 0.62166 0.78713 0.0
H4124 H 0.30851 0.61682 0.80429 0.0
H4125 H 0.38772 0.67653 0.82649 0.0
H4126 H 0.38201 0.6999 0.83152 0.0
H4127 H 0.3845 0.69168 0.80807 0.0
C4128 C 0.20579 0.58391 0.56263 0.0
C4129 C 0.21684 0.58404 0.54748 0.0
C4130 C 0.1859 0.5753 0.56058 0.0
C4131 C 0.177 0.56653 0.543 0.0
C4132 C 0.18824 0.56553 0.52794 0.0
C4133 C 0.20808 0.57442 0.53035 0.0
C4134 C 0.17433 0.57669 0.57693 0.0
C4135 C 0.17924 0.55601 0.50906 0.0
C4136 C 0.12529 0.53448 0.54014 0.0
C4137 C 0.11566 0.54828 0.53457 0.0
C4138 C 0.14531 0.54012 0.5428 0.0
C4139 C 0.15586 0.56007 0.53996 0.0
C4140 C 0.14623 0.57406 0.53432 0.0
C4141 C 0.12622 0.56796 0.53161 0.0
C4142 C 0.15516 0.52479 0.54866 0.0
C4143 C 0.15707 0.59553 0.53129 0.0
H4144 H 0.21255 0.59152 0.57584 0.0
H4145 H 0.21671 0.57435 0.51869 0.0
H4146 H 0.16561 0.58715 0.57434 0.0
H4147 H 0.16428 0.56173 0.5788 0.0
H4148 H 0.18354 0.58226 0.59001 0.0
H4149 H 0.19011 0.55453 0.49941 0.0
H4150 H 0.16923 0.54083 0.51023 0.0
H4151 H 0.17078 0.56538 0.50296 0.0
H4152 H 0.11719 0.5192 0.54237 0.0
H4153 H 0.11885 0.5787 0.52735 0.0
H4154 H 0.16355 0.53014 0.56217 0.0
H4155 H 0.1654 0.52301 0.53844 0.0
H4156 H 0.14486 0.50979 0.54996 0.0
H4157 H 0.16566 0.60306 0.54421 0.0
H4158 H 0.1474 0.60454 0.52699 0.0
H4159 H 0.1672 0.59561 0.52046 0.0
C4160 C 0.7193 0.95008 0.80181 0.0
C4161 C 0.71229 0.94612 0.78312 0.0
C4162 C 0.73294 0.9412 0.809 0.0
C4163 C 0.73972 0.92821 0.79716 0.0
C4164 C 0.73247 0.92394 0.77837 0.0
C4165 C 0.71878 0.93287 0.77162 0.0
C4166 C 0.74028 0.94591 0.82914 0.0
C4167 C 0.73934 0.91011 0.76531 0.0
C4168 C 0.7878 0.9186 0.80487 0.0
C4169 C 0.78232 0.89854 0.8095 0.0
C4170 C 0.77416 0.92905 0.80205 0.0
C4171 C 0.75465 0.9192 0.80407 0.0
C4172 C 0.74927 0.89955 0.81022 0.0
C4173 C 0.76318 0.8894 0.81277 0.0
C4174 C 0.78043 0.95002 0.79553 0.0
C4175 C 0.72863 0.88863 0.81269 0.0
H4176 H 0.71443 0.96045 0.81071 0.0
H4177 H 0.71311 0.92945 0.75727 0.0
H4178 H 0.73839 0.93171 0.83606 0.0
H4179 H 0.75583 0.95384 0.83025 0.0
H4180 H 0.73283 0.9555 0.8367 0.0
H4181 H 0.7322 0.90835 0.75111 0.0
H4182 H 0.75502 0.91614 0.76447 0.0
H4183 H 0.7366 0.89497 0.77062 0.0
H4184 H 0.80264 0.92584 0.80268 0.0
H4185 H 0.75878 0.87383 0.81619 0.0
H4186 H 0.77398 0.9603 0.80343 0.0
H4187 H 0.77538 0.94947 0.78072 0.0
H4188 H 0.79625 0.95649 0.79694 0.0
H4189 H 0.72176 0.89869 0.82035 0.0
H4190 H 0.72725 0.87487 0.82023 0.0
H4191 H 0.72062 0.88404 0.7989 0.0
C4192 C 0.71127 0.92714 0.51768 0.0
C4193 C 0.72222 0.92639 0.53406 0.0
C4194 C 0.698 0.93838 0.51734 0.0
C4195 C 0.69545 0.94908 0.5338 0.0
C4196 C 0.70621 0.94816 0.55044 0.0
C4197 C 0.71948 0.93691 0.55036 0.0
C4198 C 0.68685 0.93899 0.4993 0.0
C4199 C 0.70389 0.95931 0.56829 0.0
C4200 C 0.6758 0.99408 0.52944 0.0
C4201 C 0.65642 0.98585 0.53249 0.0
C4202 C 0.68859 0.98229 0.5298 0.0
C4203 C 0.68196 0.96174 0.53347 0.0
C4204 C 0.66248 0.95335 0.53674 0.0
C4205 C 0.64995 0.96546 0.53615 0.0
C4206 C 0.70922 0.99184 0.5262 0.0
C4207 C 0.65486 0.93153 0.54078 0.0
H4208 H 0.713 0.91881 0.50508 0.0
H4209 H 0.72801 0.93669 0.56303 0.0
H4210 H 0.67126 0.9336 0.50091 0.0
H4211 H 0.69005 0.95478 0.49543 0.0
H4212 H 0.69027 0.92959 0.48779 0.0
H4213 H 0.71275 0.95641 0.5802 0.0
H4214 H 0.70804 0.97578 0.56679 0.0
H4215 H 0.68866 0.95476 0.57149 0.0
H4216 H 0.68108 0.00988 0.52694 0.0
H4217 H 0.63498 0.95885 0.5383 0.0
H4218 H 0.71305 0.98355 0.51414 0.0
H4219 H 0.71879 0.99081 0.53832 0.0
H4220 H 0.71209 0.00796 0.5234 0.0
H4221 H 0.65678 0.92155 0.52895 0.0
H4222 H 0.63944 0.92738 0.54334 0.0
H4223 H 0.66305 0.92855 0.5531 0.0
C4224 C 0.35961 0.42987 0.72955 0.0
C4225 C 0.35377 0.44634 0.73645 0.0
C4226 C 0.34974 0.41014 0.73308 0.0
C4227 C 0.33375 0.40688 0.74383 0.0
C4228 C 0.32694 0.42326 0.74963 0.0
C4229 C 0.33702 0.44283 0.74582 0.0
C4230 C 0.35731 0.39298 0.72649 0.0
C4231 C 0.30984 0.42034 0.76099 0.0
C4232 C 0.30388 0.35286 0.74718 0.0
C4233 C 0.31227 0.34814 0.76355 0.0
C4234 C 0.31047 0.37206 0.74068 0.0
C4235 C 0.32571 0.38684 0.75087 0.0
C4236 C 0.33386 0.38233 0.76767 0.0
C4237 C 0.32707 0.363 0.77378 0.0
C4238 C 0.30152 0.37636 0.72268 0.0
C4239 C 0.35006 0.3978 0.779 0.0
H4240 H 0.37261 0.43248 0.72242 0.0
H4241 H 0.33228 0.45552 0.75089 0.0
H4242 H 0.36395 0.38757 0.73852 0.0
H4243 H 0.34548 0.38007 0.72001 0.0
H4244 H 0.36822 0.39761 0.71634 0.0
H4245 H 0.30487 0.43407 0.76228 0.0
H4246 H 0.29779 0.4075 0.75477 0.0
H4247 H 0.31371 0.41668 0.7751 0.0
H4248 H 0.29245 0.34141 0.73917 0.0
H4249 H 0.33355 0.35948 0.78648 0.0
H4250 H 0.31228 0.37917 0.71225 0.0
H4251 H 0.29685 0.39019 0.72467 0.0
H4252 H 0.28899 0.36366 0.71704 0.0
H4253 H 0.36274 0.40212 0.7708 0.0
H4254 H 0.35431 0.3921 0.79208 0.0
H4255 H 0.34584 0.41167 0.78247 0.0
C4256 C 0.19902 0.63075 0.26269 0.0
C4257 C 0.20686 0.61493 0.25837 0.0
C4258 C 0.21066 0.65078 0.26539 0.0
C4259 C 0.23063 0.655 0.26396 0.0
C4260 C 0.23869 0.63901 0.26008 0.0
C4261 C 0.22667 0.61915 0.2572 0.0
C4262 C 0.20152 0.66746 0.26926 0.0
C4263 C 0.25995 0.64292 0.2587 0.0
C4264 C 0.25719 0.70709 0.25099 0.0
C4265 C 0.2651 0.71703 0.2683 0.0
C4266 C 0.24604 0.68688 0.24942 0.0
C4267 C 0.24291 0.67625 0.26551 0.0
C4268 C 0.25115 0.68604 0.283 0.0
C4269 C 0.26206 0.70639 0.28421 0.0
C4270 C 0.23731 0.67702 0.23055 0.0
C4271 C 0.24832 0.67506 0.30041 0.0
H4272 H 0.18368 0.62749 0.26346 0.0
H4273 H 0.23276 0.60687 0.25409 0.0
H4274 H 0.20831 0.67666 0.28223 0.0
H4275 H 0.20383 0.67768 0.25789 0.0
H4276 H 0.18588 0.66157 0.27057 0.0
H4277 H 0.26407 0.62873 0.25672 0.0
H4278 H 0.26449 0.65208 0.24687 0.0
H4279 H 0.26797 0.65173 0.27142 0.0
H4280 H 0.25938 0.71522 0.23864 0.0
H4281 H 0.26822 0.71396 0.29761 0.0
H4282 H 0.22147 0.67193 0.23054 0.0
H4283 H 0.24207 0.66344 0.22725 0.0
H4284 H 0.24122 0.68737 0.21939 0.0
H4285 H 0.23288 0.67016 0.30281 0.0
H4286 H 0.25631 0.6846 0.31282 0.0
H4287 H 0.2531 0.66125 0.29884 0.0
C4288 C 0.50416 0.66123 0.47772 0.0
C4289 C 0.51745 0.67283 0.46658 0.0
C4290 C 0.50691 0.64377 0.48496 0.0
C4291 C 0.52331 0.6377 0.48094 0.0
C4292 C 0.53679 0.64938 0.46978 0.0
C4293 C 0.53376 0.66679 0.46284 0.0
C4294 C 0.49223 0.63177 0.49686 0.0
C4295 C 0.55448 0.6435 0.46517 0.0
C4296 C 0.54152 0.60379 0.51218 0.0
C4297 C 0.53495 0.58491 0.50199 0.0
C4298 C 0.53746 0.62095 0.5057 0.0
C4299 C 0.52661 0.6193 0.48855 0.0
C4300 C 0.51966 0.60023 0.47833 0.0
C4301 C 0.52389 0.58329 0.48516 0.0
C4302 C 0.54504 0.64095 0.51711 0.0
C4303 C 0.50804 0.5978 0.45998 0.0
H4304 H 0.49143 0.6656 0.48056 0.0
H4305 H 0.54432 0.67582 0.45457 0.0
H4306 H 0.48607 0.61615 0.49041 0.0
H4307 H 0.49915 0.63069 0.51063 0.0
H4308 H 0.48037 0.6386 0.49889 0.0
H4309 H 0.56342 0.65399 0.45605 0.0
H4310 H 0.56332 0.6433 0.47808 0.0
H4311 H 0.55034 0.62803 0.45814 0.0
H4312 H 0.54996 0.60525 0.52525 0.0
H4313 H 0.51869 0.5688 0.47718 0.0
H4314 H 0.53313 0.64741 0.51994 0.0
H4315 H 0.5552 0.65183 0.50924 0.0
H4316 H 0.55252 0.63955 0.53052 0.0
H4317 H 0.49542 0.60346 0.46161 0.0
H4318 H 0.50298 0.58183 0.45412 0.0
H4319 H 0.51682 0.60695 0.4499 0.0
C4320 C 0.68575 0.31774 0.69031 0.0
C4321 C 0.6711 0.30082 0.68258 0.0
C4322 C 0.70118 0.31554 0.70169 0.0
C4323 C 0.70209 0.29596 0.70526 0.0
C4324 C 0.68745 0.27885 0.69741 0.0
C4325 C 0.67209 0.28149 0.68635 0.0
C4326 C 0.71643 0.33416 0.70999 0.0
C4327 C 0.68795 0.2577 0.70078 0.0
C4328 C 0.74942 0.28745 0.72161 0.0
C4329 C 0.74725 0.28523 0.74053 0.0
C4330 C 0.73498 0.29129 0.71 0.0
C4331 C 0.71808 0.29323 0.71754 0.0
C4332 C 0.71602 0.29152 0.7367 0.0
C4333 C 0.73056 0.28742 0.74792 0.0
C4334 C 0.73762 0.29281 0.6896 0.0
C4335 C 0.69832 0.29373 0.74531 0.0
H4336 H 0.68528 0.33273 0.68735 0.0
H4337 H 0.66067 0.2683 0.68086 0.0
H4338 H 0.71735 0.33436 0.72532 0.0
H4339 H 0.73061 0.33389 0.70547 0.0
H4340 H 0.71357 0.3483 0.70597 0.0
H4341 H 0.67585 0.24597 0.69305 0.0
H4342 H 0.70158 0.25537 0.69658 0.0
H4343 H 0.68734 0.25551 0.71577 0.0
H4344 H 0.76226 0.28582 0.71575 0.0
H4345 H 0.72881 0.28594 0.76255 0.0
H4346 H 0.73627 0.30749 0.6854 0.0
H4347 H 0.72623 0.28076 0.68139 0.0
H4348 H 0.75175 0.29136 0.686 0.0
H4349 H 0.6958 0.30826 0.74209 0.0
H4350 H 0.69941 0.29316 0.76059 0.0
H4351 H 0.68561 0.28148 0.73935 0.0
C4352 C 0.01758 0.37713 0.9862 0.0
C4353 C 0.02793 0.37163 0.97211 0.0
C4354 C 0.02053 0.3975 0.99234 0.0
C4355 C 0.03396 0.41277 0.98401 0.0
C4356 C 0.04437 0.4073 0.96972 0.0
C4357 C 0.04133 0.38681 0.96403 0.0
C4358 C 1.00937 0.40269 0.00782 0.0
C4359 C 0.05864 0.4231 0.96032 0.0
C4360 C 0.02967 0.4664 0.98818 0.0
C4361 C 0.04433 0.47586 1.00192 0.0
C4362 C 0.02613 0.44588 0.98219 0.0
C4363 C 0.03731 0.43448 0.99037 0.0
C4364 C 0.05192 0.4439 0.00445 0.0
C4365 C 0.05535 0.46447 0.00994 0.0
C4366 C 1.01058 0.43646 0.96698 0.0
C4367 C 0.06396 0.43224 0.01373 0.0
H4368 H 1.0073 0.36544 0.99256 0.0
H4369 H 0.04916 0.38266 0.95295 0.0
H4370 H 0.01937 0.41128 0.01956 0.0
H4371 H 1.00075 0.41252 0.00299 0.0
H4372 H 0.9996 0.38905 0.01296 0.0
H4373 H 0.06533 0.41637 0.94921 0.0
H4374 H 0.05148 0.4336 0.95418 0.0
H4375 H 0.07013 0.4322 0.97064 0.0
H4376 H 0.02113 0.47511 0.9819 0.0
H4377 H 0.06657 0.47159 0.02073 0.0
H4378 H 0.9998 0.4235 0.97197 0.0
H4379 H 0.01679 0.4305 0.95507 0.0
H4380 H 1.00319 0.44737 0.96204 0.0
H4381 H 0.05461 0.41904 0.01984 0.0
H4382 H 0.07436 0.44164 0.02485 0.0
H4383 H 0.072 0.42633 0.00334 0.0
C4384 C 0.99747 0.79532 0.20656 0.0
C4385 C 0.99427 0.78766 0.18792 0.0
C4386 C 0.98215 0.79422 0.21765 0.0
C4387 C 0.96315 0.78509 0.20998 0.0
C4388 C 0.9598 0.77729 0.1912 0.0
C4389 C 0.97539 0.77873 0.18039 0.0
C4390 C 0.98629 0.80274 0.23762 0.0
C4391 C 0.93975 0.76742 0.18252 0.0
C4392 C 0.92498 0.76528 0.24304 0.0
C4393 C 0.91593 0.78062 0.24408 0.0
C4394 C 0.94029 0.76649 0.23192 0.0
C4395 C 0.94679 0.78352 0.22166 0.0
C4396 C 0.9377 0.79905 0.22263 0.0
C4397 C 0.92233 0.79738 0.23378 0.0
C4398 C 0.9495 0.74954 0.23112 0.0
C4399 C 0.9443 0.8175 0.212 0.0
H4400 H 1.012 0.80199 0.21259 0.0
H4401 H 0.97274 0.77306 0.16593 0.0
H4402 H 0.9787 0.81429 0.24027 0.0
H4403 H 0.98088 0.79059 0.2469 0.0
H4404 H 1.00184 0.80973 0.24137 0.0
H4405 H 0.93959 0.76199 0.16777 0.0
H4406 H 0.9326 0.75441 0.19026 0.0
H4407 H 0.93115 0.77827 0.18337 0.0
H4408 H 0.91992 0.75216 0.25076 0.0
H4409 H 0.91551 0.80937 0.23469 0.0
H4410 H 0.96492 0.75543 0.23584 0.0
H4411 H 0.94853 0.74301 0.21661 0.0
H4412 H 0.94267 0.73728 0.23984 0.0
H4413 H 0.95952 0.82552 0.21633 0.0
H4414 H 0.93565 0.82818 0.21417 0.0
H4415 H 0.94341 0.81295 0.19696 0.0
C4416 C 0.54085 0.4009 0.10817 0.0
C4417 C 0.55732 0.39404 0.11047 0.0
C4418 C 0.54075 0.41853 0.09892 0.0
C4419 C 0.55758 0.43049 0.09164 0.0
C4420 C 0.5743 0.42391 0.09406 0.0
C4421 C 0.57395 0.40606 0.10313 0.0
C4422 C 0.52237 0.42432 0.09684 0.0
C4423 C 0.59278 0.43579 0.08691 0.0
C4424 C 0.55372 0.46543 0.05205 0.0
C4425 C 0.55757 0.48492 0.06125 0.0
C4426 C 0.5536 0.44797 0.06161 0.0
C4427 C 0.55757 0.44941 0.0812 0.0
C4428 C 0.5615 0.46904 0.09061 0.0
C4429 C 0.56137 0.48626 0.0807 0.0
C4430 C 0.54901 0.42778 0.0506 0.0
C4431 C 0.56593 0.47193 0.11133 0.0
H4432 H 0.52779 0.39263 0.11379 0.0
H4433 H 0.58691 0.40146 0.10417 0.0
H4434 H 0.52445 0.4396 0.10374 0.0
H4435 H 0.51831 0.42495 0.08196 0.0
H4436 H 0.51035 0.41353 0.10285 0.0
H4437 H 0.60483 0.42953 0.09047 0.0
H4438 H 0.59094 0.43584 0.07163 0.0
H4439 H 0.59664 0.45174 0.09276 0.0
H4440 H 0.55061 0.46369 0.03715 0.0
H4441 H 0.56431 0.50091 0.08831 0.0
H4442 H 0.53639 0.41708 0.05582 0.0
H4443 H 0.5612 0.4213 0.0524 0.0
H4444 H 0.54595 0.42884 0.03558 0.0
H4445 H 0.55364 0.46277 0.11825 0.0
H4446 H 0.56902 0.48797 0.11675 0.0
H4447 H 0.57846 0.46655 0.11517 0.0
C4448 C 0.94603 0.26113 0.32292 0.0
C4449 C 0.95551 0.27306 0.33916 0.0
C4450 C 0.92775 0.26187 0.31513 0.0
C4451 C 0.91799 0.27493 0.32339 0.0
C4452 C 0.92737 0.28696 0.33976 0.0
C4453 C 0.94558 0.28586 0.34732 0.0
C4454 C 0.91886 0.24856 0.29781 0.0
C4455 C 0.91809 0.30118 0.34945 0.0
C4456 C 0.87868 0.29114 0.29398 0.0
C4457 C 0.8611 0.27891 0.29934 0.0
C4458 C 0.89689 0.29 0.30153 0.0
C4459 C 0.89825 0.27616 0.31495 0.0
C4460 C 0.88055 0.26366 0.32032 0.0
C4461 C 0.86253 0.2652 0.31264 0.0
C4462 C 0.91484 0.30385 0.29509 0.0
C4463 C 0.88061 0.24847 0.3343 0.0
H4464 H 0.953 0.25125 0.31594 0.0
H4465 H 0.9519 0.29504 0.35996 0.0
H4466 H 0.90448 0.23875 0.30029 0.0
H4467 H 0.91687 0.25802 0.2865 0.0
H4468 H 0.92774 0.23887 0.2931 0.0
H4469 H 0.92699 0.30973 0.36188 0.0
H4470 H 0.9155 0.31209 0.33978 0.0
H4471 H 0.90396 0.29258 0.35375 0.0
H4472 H 0.87828 0.30186 0.28382 0.0
H4473 H 0.84942 0.25545 0.31708 0.0
H4474 H 0.92365 0.29482 0.28896 0.0
H4475 H 0.92359 0.31345 0.30709 0.0
H4476 H 0.9117 0.31378 0.28465 0.0
H4477 H 0.88858 0.23795 0.32937 0.0
H4478 H 0.86592 0.23954 0.33693 0.0
H4479 H 0.88812 0.25633 0.34759 0.0
C4480 C 0.06527 0.67814 0.60077 0.0
C4481 C 0.04783 0.68089 0.60625 0.0
C4482 C 0.06642 0.65978 0.59151 0.0
C4483 C 0.04976 0.64311 0.58719 0.0
C4484 C 0.0321 0.6457 0.59258 0.0
C4485 C 0.03136 0.66423 0.6019 0.0
C4486 C 0.08567 0.65827 0.58626 0.0
C4487 C 1.01381 0.62875 0.58854 0.0
C4488 C 0.0502 0.60231 0.54765 0.0
C4489 C 0.05353 0.58627 0.55712 0.0
C4490 C 0.04887 0.6205 0.55711 0.0
C4491 C 0.05082 0.62328 0.57683 0.0
C4492 C 0.05402 0.60707 0.58649 0.0
C4493 C 0.05535 0.58905 0.57667 0.0
C4494 C 0.04539 0.63688 0.54586 0.0
C4495 C 0.05607 0.60874 0.60738 0.0
H4496 H 0.07825 0.69054 0.60346 0.0
H4497 H 0.01771 0.66546 0.60604 0.0
H4498 H 0.08893 0.6453 0.59255 0.0
H4499 H 0.08535 0.65542 0.57101 0.0
H4500 H 0.09741 0.67219 0.5908 0.0
H4501 H 1.00115 0.63295 0.59325 0.0
H4502 H 1.01139 0.6243 0.57344 0.0
H4503 H 0.01501 0.61531 0.59552 0.0
H4504 H 0.04868 0.60074 0.53264 0.0
H4505 H 0.05779 0.57702 0.58443 0.0
H4506 H 0.0574 0.65091 0.5489 0.0
H4507 H 0.03216 0.64039 0.54977 0.0
H4508 H 0.04394 0.63257 0.53073 0.0
H4509 H 0.06806 0.62217 0.61256 0.0
H4510 H 0.05876 0.59515 0.613 0.0
H4511 H 0.04286 0.61087 0.61287 0.0
C4512 C 0.67151 0.77903 0.85161 0.0
C4513 C 0.656 0.78343 0.8418 0.0
C4514 C 0.68914 0.77944 0.84362 0.0
C4515 C 0.69222 0.78462 0.82508 0.0
C4516 C 0.67673 0.78921 0.81511 0.0
C4517 C 0.65914 0.78845 0.82336 0.0
C4518 C 0.70455 0.77406 0.85515 0.0
C4519 C 0.67875 0.79515 0.79553 0.0
C4520 C 0.74514 0.80238 0.81002 0.0
C4521 C 0.74749 0.78523 0.79986 0.0
C4522 C 0.72756 0.80251 0.81787 0.0
C4523 C 0.71133 0.78496 0.81617 0.0
C4524 C 0.71366 0.76762 0.80598 0.0
C4525 C 0.73128 0.768 0.798 0.0
C4526 C 0.72637 0.82168 0.82809 0.0
C4527 C 0.69745 0.74831 0.80363 0.0
H4528 H 0.66983 0.77481 0.86567 0.0
H4529 H 0.64788 0.79221 0.81528 0.0
H4530 H 0.708 0.76099 0.84812 0.0
H4531 H 0.71784 0.78688 0.85655 0.0
H4532 H 0.70027 0.77023 0.86921 0.0
H4533 H 0.66585 0.79868 0.78954 0.0
H4534 H 0.69134 0.80856 0.79519 0.0
H4535 H 0.68134 0.78274 0.78663 0.0
H4536 H 0.75715 0.81594 0.81182 0.0
H4537 H 0.73242 0.75446 0.79046 0.0
H4538 H 0.72373 0.81904 0.84275 0.0
H4539 H 0.71413 0.82626 0.82192 0.0
H4540 H 0.73967 0.83432 0.82774 0.0
H4541 H 0.69344 0.74321 0.81743 0.0
H4542 H 0.70121 0.73602 0.79556 0.0
H4543 H 0.68465 0.75097 0.79649 0.0
C4544 C 0.4745 0.53489 0.64112 0.0
C4545 C 0.47164 0.55291 0.64843 0.0
C4546 C 0.48315 0.53409 0.62449 0.0
C4547 C 0.48914 0.55177 0.61502 0.0
C4548 C 0.486 0.56994 0.62214 0.0
C4549 C 0.47728 0.5703 0.63881 0.0
C4550 C 0.48632 0.51444 0.61733 0.0
C4551 C 0.49218 0.58905 0.61233 0.0
C4552 C 0.52919 0.55277 0.58406 0.0
C4553 C 0.51909 0.54672 0.56665 0.0
C4554 C 0.51965 0.55513 0.59984 0.0
C4555 C 0.49953 0.55135 0.59815 0.0
C4556 C 0.4893 0.5459 0.58055 0.0
C4557 C 0.49922 0.54364 0.56497 0.0
C4558 C 0.53103 0.56103 0.61842 0.0
C4559 C 0.46782 0.5418 0.57826 0.0
H4560 H 0.47043 0.52149 0.64865 0.0
H4561 H 0.47488 0.58419 0.64434 0.0
H4562 H 0.47993 0.51021 0.60287 0.0
H4563 H 0.5019 0.51627 0.61715 0.0
H4564 H 0.48003 0.50186 0.62592 0.0
H4565 H 0.48788 0.60166 0.61924 0.0
H4566 H 0.50798 0.59375 0.61191 0.0
H4567 H 0.48589 0.58632 0.59778 0.0
H4568 H 0.54456 0.5553 0.58548 0.0
H4569 H 0.4913 0.53905 0.55155 0.0
H4570 H 0.52676 0.54849 0.62752 0.0
H4571 H 0.52793 0.57435 0.62536 0.0
H4572 H 0.54671 0.56465 0.61719 0.0
H4573 H 0.46087 0.5282 0.58536 0.0
H4574 H 0.46222 0.53928 0.56347 0.0
H4575 H 0.46359 0.5546 0.58482 0.0
C4576 C 0.80226 0.20793 0.96001 0.0
C4577 C 0.80053 0.21597 0.9778 0.0
C4578 C 0.79736 0.21661 0.94423 0.0
C4579 C 0.79066 0.23383 0.94631 0.0
C4580 C 0.78902 0.24214 0.96424 0.0
C4581 C 0.79389 0.23303 0.97982 0.0
C4582 C 0.79914 0.2072 0.92532 0.0
C4583 C 0.78213 0.26062 0.96695 0.0
C4584 C 0.79512 0.26417 0.90435 0.0
C4585 C 0.77663 0.25686 0.89548 0.0
C4586 C 0.79967 0.25748 0.92138 0.0
C4587 C 0.78542 0.24301 0.9296 0.0
C4588 C 0.76654 0.23614 0.92104 0.0
C4589 C 0.76234 0.24325 0.90408 0.0
C4590 C 0.81991 0.26532 0.93019 0.0
C4591 C 0.75101 0.22058 0.92934 0.0
H4592 H 0.80707 0.19453 0.95841 0.0
H4593 H 0.79264 0.23931 0.99358 0.0
H4594 H 0.78501 0.20259 0.91723 0.0
H4595 H 0.80908 0.2184 0.91755 0.0
H4596 H 0.80449 0.19376 0.92612 0.0
H4597 H 0.78188 0.26535 0.98182 0.0
H4598 H 0.79155 0.27336 0.96032 0.0
H4599 H 0.76749 0.2576 0.96013 0.0
H4600 H 0.80611 0.27491 0.89779 0.0
H4601 H 0.74808 0.23749 0.89715 0.0
H4602 H 0.82674 0.25291 0.93 0.0
H4603 H 0.81987 0.27072 0.9449 0.0
H4604 H 0.82881 0.27784 0.92289 0.0
H4605 H 0.7546 0.20605 0.9291 0.0
H4606 H 0.73677 0.21798 0.92172 0.0
H4607 H 0.75004 0.22536 0.94404 0.0
C4608 C 0.09766 0.4747 0.13547 0.0
C4609 C 0.0871 0.47406 0.15106 0.0
C4610 C 0.0897 0.47698 0.11799 0.0
C4611 C 0.07099 0.47911 0.11629 0.0
C4612 C 0.05949 0.47586 0.13145 0.0
C4613 C 0.06765 0.47311 0.14866 0.0
C4614 C 0.10212 0.47955 0.10189 0.0
C4615 C 0.0394 0.4778 0.13014 0.0
C4616 C 0.06778 0.52031 0.08576 0.0
C4617 C 0.05759 0.50922 0.06983 0.0
C4618 C 0.07148 0.51058 0.10124 0.0
C4619 C 0.06534 0.4892 0.10045 0.0
C4620 C 0.05474 0.47791 0.08442 0.0
C4621 C 0.05078 0.48814 0.06928 0.0
C4622 C 0.08242 0.52322 0.11827 0.0
C4623 C 0.04847 0.45513 0.08285 0.0
H4624 H 0.11264 0.47527 0.1371 0.0
H4625 H 0.05922 0.47185 0.16057 0.0
H4626 H 0.09369 0.47201 0.08889 0.0
H4627 H 0.10784 0.49586 0.09992 0.0
H4628 H 0.11443 0.47334 0.1043 0.0
H4629 H 0.03121 0.47102 0.14174 0.0
H4630 H 0.0401 0.49403 0.13069 0.0
H4631 H 0.03149 0.47051 0.11684 0.0
H4632 H 0.07297 0.53663 0.08605 0.0
H4633 H 0.04316 0.47963 0.05672 0.0
H4634 H 0.09657 0.52041 0.12049 0.0
H4635 H 0.07456 0.51897 0.13072 0.0
H4636 H 0.08481 0.53964 0.11708 0.0
H4637 H 0.06105 0.44959 0.08054 0.0
H4638 H 0.03749 0.44882 0.07112 0.0
H4639 H 0.04264 0.4492 0.09581 0.0
C4640 C 0.7767 0.82173 0.41954 0.0
C4641 C 0.78799 0.8161 0.43349 0.0
C4642 C 0.77756 0.81641 0.4006 0.0
C4643 C 0.78941 0.80439 0.39517 0.0
C4644 C 0.80028 0.79796 0.40908 0.0
C4645 C 0.7997 0.80412 0.42791 0.0
C4646 C 0.76599 0.82401 0.38633 0.0
C4647 C 0.81273 0.78467 0.40406 0.0
C4648 C 0.77826 0.77709 0.34641 0.0
C4649 C 0.79281 0.78885 0.3366 0.0
C4650 C 0.77723 0.78167 0.36549 0.0
C4651 C 0.79067 0.79888 0.37496 0.0
C4652 C 0.8052 0.81099 0.365 0.0
C4653 C 0.80629 0.80565 0.34609 0.0
C4654 C 0.76187 0.76793 0.37556 0.0
C4655 C 0.81947 0.82982 0.37425 0.0
H4656 H 0.76709 0.8304 0.42332 0.0
H4657 H 0.8088 0.79978 0.43819 0.0
H4658 H 0.77559 0.83276 0.37657 0.0
H4659 H 0.75562 0.8111 0.37807 0.0
H4660 H 0.75796 0.83378 0.39271 0.0
H4661 H 0.81907 0.77957 0.41648 0.0
H4662 H 0.80422 0.77118 0.39509 0.0
H4663 H 0.82452 0.793 0.39607 0.0
H4664 H 0.76788 0.76397 0.33925 0.0
H4665 H 0.8175 0.81491 0.33861 0.0
H4666 H 0.75225 0.77635 0.38106 0.0
H4667 H 0.76849 0.76249 0.38759 0.0
H4668 H 0.75308 0.75465 0.36648 0.0
H4669 H 0.81181 0.84018 0.38019 0.0
H4670 H 0.82951 0.83798 0.36449 0.0
H4671 H 0.82793 0.82589 0.38586 0.0
C4672 C 0.48651 0.52116 0.83398 0.0
C4673 C 0.49671 0.52882 0.81898 0.0
C4674 C 0.49605 0.51892 0.85064 0.0
C4675 C 0.5163 0.52439 0.85231 0.0
C4676 C 0.52671 0.53185 0.83713 0.0
C4677 C 0.51676 0.5341 0.82063 0.0
C4678 C 0.48444 0.51113 0.86659 0.0
C4679 C 0.5483 0.53761 0.83841 0.0
C4680 C 0.53795 0.53677 0.90177 0.0
C4681 C 0.54045 0.51822 0.9062 0.0
C4682 C 0.53089 0.53928 0.88399 0.0
C4683 C 0.5264 0.52288 0.87026 0.0
C4684 C 0.52985 0.50445 0.87434 0.0
C4685 C 0.53677 0.50231 0.89231 0.0
C4686 C 0.52736 0.55916 0.88017 0.0
C4687 C 0.52535 0.48669 0.85999 0.0
H4688 H 0.47102 0.5174 0.83284 0.0
H4689 H 0.52464 0.53993 0.80899 0.0
H4690 H 0.48791 0.49753 0.87124 0.0
H4691 H 0.48816 0.52273 0.87852 0.0
H4692 H 0.46878 0.50718 0.86287 0.0
H4693 H 0.55421 0.54235 0.8251 0.0
H4694 H 0.55425 0.5502 0.84927 0.0
H4695 H 0.55331 0.52469 0.84253 0.0
H4696 H 0.54118 0.54927 0.91235 0.0
H4697 H 0.53856 0.48789 0.89566 0.0
H4698 H 0.51175 0.55696 0.87765 0.0
H4699 H 0.53411 0.56482 0.86751 0.0
H4700 H 0.533 0.57087 0.89188 0.0
H4701 H 0.50961 0.48067 0.85699 0.0
H4702 H 0.53092 0.47431 0.86468 0.0
H4703 H 0.53154 0.49145 0.84683 0.0
C4704 C 0.84805 0.20799 0.15948 0.0
C4705 C 0.83167 0.19563 0.14912 0.0
C4706 C 0.84655 0.21838 0.1763 0.0
C4707 C 0.82823 0.21647 0.18272 0.0
C4708 C 0.81171 0.20369 0.17248 0.0
C4709 C 0.81364 0.19341 0.15583 0.0
C4710 C 0.86448 0.23176 0.18697 0.0
C4711 C 0.79191 0.20141 0.17879 0.0
C4712 C 0.82177 0.23178 0.23247 0.0
C4713 C 0.81877 0.25075 0.2308 0.0
C4714 C 0.8255 0.22069 0.21703 0.0
C4715 C 0.82609 0.2287 0.19954 0.0
C4716 C 0.82345 0.24799 0.19784 0.0
C4717 C 0.81988 0.2588 0.21351 0.0
C4718 C 0.82838 0.20021 0.21936 0.0
C4719 C 0.82384 0.25697 0.17936 0.0
H4720 H 0.86201 0.20962 0.15437 0.0
H4721 H 0.80091 0.18414 0.1477 0.0
H4722 H 0.86429 0.24773 0.18731 0.0
H4723 H 0.86505 0.22778 0.20153 0.0
H4724 H 0.87768 0.23053 0.18076 0.0
H4725 H 0.78062 0.19013 0.16968 0.0
H4726 H 0.79117 0.19674 0.19314 0.0
H4727 H 0.78872 0.21615 0.1789 0.0
H4728 H 0.82108 0.22551 0.24582 0.0
H4729 H 0.8176 0.27345 0.21209 0.0
H4730 H 0.84194 0.19942 0.21369 0.0
H4731 H 0.81658 0.18835 0.21144 0.0
H4732 H 0.82875 0.19673 0.2341 0.0
H4733 H 0.83745 0.25742 0.17313 0.0
H4734 H 0.82236 0.2725 0.18056 0.0
H4735 H 0.81201 0.24734 0.16967 0.0
C4736 C 0.06162 0.52133 0.3153 0.0
C4737 C 0.06503 0.50266 0.31152 0.0
C4738 C 0.05385 0.52545 0.33177 0.0
C4739 C 0.04924 0.51039 0.34444 0.0
C4740 C 0.05025 0.49068 0.3394 0.0
C4741 C 0.05843 0.48711 0.32303 0.0
C4742 C 0.0531 0.54669 0.33664 0.0
C4743 C 0.04492 0.47406 0.3523 0.0
C4744 C 0.0651 0.52789 0.39458 0.0
C4745 C 0.04788 0.52808 0.40187 0.0
C4746 C 0.06563 0.52235 0.37585 0.0
C4747 C 0.04838 0.5165 0.36421 0.0
C4748 C 0.03086 0.51659 0.37153 0.0
C4749 C 0.03085 0.52264 0.39037 0.0
C4750 C 0.08472 0.52283 0.36855 0.0
C4751 C 1.01222 0.51001 0.35957 0.0
H4752 H 0.06678 0.53335 0.30634 0.0
H4753 H 0.0609 0.47259 0.31989 0.0
H4754 H 0.04019 0.54669 0.34395 0.0
H4755 H 0.06584 0.55482 0.34607 0.0
H4756 H 0.05315 0.55518 0.32413 0.0
H4757 H 0.04229 0.45893 0.34481 0.0
H4758 H 0.05683 0.4761 0.36314 0.0
H4759 H 0.03197 0.47455 0.35933 0.0
H4760 H 0.07825 0.53233 0.40357 0.0
H4761 H 0.01756 0.5228 0.39621 0.0
H4762 H 0.08744 0.53264 0.35689 0.0
H4763 H 0.08455 0.50744 0.36318 0.0
H4764 H 0.09682 0.52853 0.37936 0.0
H4765 H 1.01331 0.51857 0.34707 0.0
H4766 H 1.00004 0.51212 0.36713 0.0
H4767 H 1.00904 0.49382 0.35473 0.0
C4768 C 0.80888 0.83202 0.64317 0.0
C4769 C 0.79202 0.82529 0.63125 0.0
C4770 C 0.80925 0.82751 0.66187 0.0
C4771 C 0.79229 0.81616 0.66917 0.0
C4772 C 0.77514 0.8096 0.65737 0.0
C4773 C 0.77524 0.81409 0.63864 0.0
C4774 C 0.82792 0.8347 0.67379 0.0
C4775 C 0.75668 0.79756 0.66448 0.0
C4776 C 0.79714 0.78655 0.71109 0.0
C4777 C 0.79437 0.79912 0.726 0.0
C4778 C 0.79648 0.79192 0.6927 0.0
C4779 C 0.79273 0.81028 0.68883 0.0
C4780 C 0.78969 0.82298 0.70376 0.0
C4781 C 0.79067 0.81734 0.72213 0.0
C4782 C 0.80006 0.77796 0.6774 0.0
C4783 C 0.78544 0.84258 0.70032 0.0
H4784 H 0.8219 0.84106 0.63797 0.0
H4785 H 0.76212 0.80849 0.62973 0.0
H4786 H 0.82628 0.84415 0.68613 0.0
H4787 H 0.83193 0.82155 0.67886 0.0
H4788 H 0.8398 0.84362 0.66619 0.0
H4789 H 0.74433 0.79463 0.65396 0.0
H4790 H 0.75811 0.78286 0.66857 0.0
H4791 H 0.75356 0.8057 0.67701 0.0
H4792 H 0.80014 0.7725 0.71377 0.0
H4793 H 0.78849 0.8272 0.73345 0.0
H4794 H 0.8126 0.786 0.67014 0.0
H4795 H 0.78755 0.77324 0.667 0.0
H4796 H 0.80277 0.76422 0.68265 0.0
H4797 H 0.79758 0.8527 0.69391 0.0
H4798 H 0.78292 0.85054 0.71326 0.0
H4799 H 0.77261 0.83968 0.69043 0.0
C4800 C 0.71207 0.48487 0.51907 0.0
C4801 C 0.73151 0.49164 0.51599 0.0
C4802 C 0.70143 0.49856 0.52191 0.0
C4803 C 0.71052 0.51951 0.52176 0.0
C4804 C 0.73019 0.52647 0.51881 0.0
C4805 C 0.74047 0.5124 0.51588 0.0
C4806 C 0.6804 0.49055 0.52487 0.0
C4807 C 0.74032 0.5487 0.51871 0.0
C4808 C 0.67517 0.54868 0.51171 0.0
C4809 C 0.67109 0.55392 0.52967 0.0
C4810 C 0.68898 0.53859 0.50885 0.0
C4811 C 0.69911 0.53391 0.52435 0.0
C4812 C 0.69632 0.54082 0.54245 0.0
C4813 C 0.68225 0.55071 0.54491 0.0
C4814 C 0.69156 0.53148 0.48933 0.0
C4815 C 0.70705 0.53631 0.55929 0.0
H4816 H 0.7051 0.46881 0.51895 0.0
H4817 H 0.75558 0.51764 0.51371 0.0
H4818 H 0.67744 0.49703 0.53835 0.0
H4819 H 0.67172 0.49523 0.51389 0.0
H4820 H 0.67558 0.47383 0.5247 0.0
H4821 H 0.75576 0.55164 0.51655 0.0
H4822 H 0.73352 0.55524 0.50758 0.0
H4823 H 0.73895 0.55675 0.53203 0.0
H4824 H 0.6668 0.55151 0.49988 0.0
H4825 H 0.6791 0.55466 0.55882 0.0
H4826 H 0.68523 0.51486 0.48719 0.0
H4827 H 0.70697 0.53484 0.487 0.0
H4828 H 0.68451 0.53857 0.4788 0.0
H4829 H 0.70142 0.52008 0.56158 0.0
H4830 H 0.70551 0.54537 0.57198 0.0
H4831 H 0.7225 0.53935 0.55719 0.0
C4832 C 0.20188 0.10602 0.53038 0.0
C4833 C 0.20359 0.12625 0.52736 0.0
C4834 C 0.18391 0.09221 0.53211 0.0
C4835 C 0.16722 0.09873 0.53068 0.0
C4836 C 0.16888 0.11919 0.52788 0.0
C4837 C 0.18702 0.13268 0.52629 0.0
C4838 C 0.18276 0.07056 0.53518 0.0
C4839 C 0.15143 0.12672 0.52609 0.0
C4840 C 0.11943 0.0611 0.51398 0.0
C4841 C 0.11006 0.05814 0.53039 0.0
C4842 C 0.13814 0.07387 0.514 0.0
C4843 C 0.14788 0.08396 0.53086 0.0
C4844 C 0.1388 0.08057 0.54759 0.0
C4845 C 0.11997 0.06771 0.54716 0.0
C4846 C 0.14725 0.07704 0.49584 0.0
C4847 C 0.14878 0.09096 0.56585 0.0
H4848 H 0.21464 0.101 0.5315 0.0
H4849 H 0.18819 0.14822 0.52377 0.0
H4850 H 0.17495 0.06597 0.54759 0.0
H4851 H 0.17459 0.06049 0.52317 0.0
H4852 H 0.19713 0.06815 0.53703 0.0
H4853 H 0.15522 0.14326 0.52483 0.0
H4854 H 0.14205 0.1189 0.51368 0.0
H4855 H 0.14299 0.1232 0.5383 0.0
H4856 H 0.11199 0.05374 0.50093 0.0
H4857 H 0.11288 0.06553 0.5599 0.0
H4858 H 0.1612 0.07363 0.49674 0.0
H4859 H 0.15012 0.09309 0.49284 0.0
H4860 H 0.13805 0.06744 0.48406 0.0
H4861 H 0.16298 0.08825 0.56802 0.0
H4862 H 0.14031 0.08571 0.57775 0.0
H4863 H 0.15131 0.1075 0.56569 0.0
C4864 C 0.21922 0.94803 0.76031 0.0
C4865 C 0.21508 0.94542 0.77878 0.0
C4866 C 0.23014 0.93707 0.75147 0.0
C4867 C 0.23693 0.92321 0.76138 0.0
C4868 C 0.23196 0.91983 0.77973 0.0
C4869 C 0.22115 0.93106 0.78824 0.0
C4870 C 0.23519 0.94106 0.73191 0.0
C4871 C 0.23874 0.90495 0.79068 0.0
C4872 C 0.25605 0.88234 0.7406 0.0
C4873 C 0.27561 0.89012 0.7463 0.0
C4874 C 0.24327 0.8936 0.7441 0.0
C4875 C 0.25034 0.91316 0.75328 0.0
C4876 C 0.27032 0.92188 0.75723 0.0
C4877 C 0.28275 0.9102 0.75373 0.0
C4878 C 0.22209 0.88381 0.73957 0.0
C4879 C 0.27841 0.94283 0.76678 0.0
H4880 H 0.2147 0.95933 0.75307 0.0
H4881 H 0.21779 0.92897 0.80247 0.0
H4882 H 0.25067 0.94908 0.732 0.0
H4883 H 0.2325 0.92666 0.7232 0.0
H4884 H 0.22692 0.95043 0.72541 0.0
H4885 H 0.2326 0.9032 0.80434 0.0
H4886 H 0.23477 0.88994 0.78277 0.0
H4887 H 0.25458 0.91009 0.79305 0.0
H4888 H 0.25055 0.86692 0.7345 0.0
H4889 H 0.29783 0.91627 0.7582 0.0
H4890 H 0.21513 0.8946 0.73369 0.0
H4891 H 0.21529 0.87907 0.75248 0.0
H4892 H 0.21925 0.87024 0.72963 0.0
H4893 H 0.27182 0.9536 0.7603 0.0
H4894 H 0.2942 0.94847 0.76636 0.0
H4895 H 0.27505 0.94263 0.7815 0.0
C4896 C 0.40518 1.00312 0.00842 0.0
C4897 C 0.39706 0.98224 0.00458 0.0
C4898 C 0.42513 0.01164 0.01031 0.0
C4899 C 0.43715 0.99892 0.00849 0.0
C4900 C 0.42904 0.97794 0.00405 0.0
C4901 C 0.40911 0.96989 1.00202 0.0
C4902 C 0.43333 0.03412 0.01483 0.0
C4903 C 0.4414 0.96388 1.00203 0.0
C4904 C 0.4899 0.0194 1.00118 0.0
C4905 C 0.49834 0.01985 0.01913 0.0
C4906 C 0.46993 0.01327 0.99758 0.0
C4907 C 0.4582 1.00723 0.01225 0.0
C4908 C 0.46663 0.00798 0.03045 0.0
C4909 C 0.4866 0.01439 0.03368 0.0
C4910 C 0.4614 0.01289 0.97805 0.0
C4911 C 0.45456 1.00146 0.04642 0.0
H4912 H 0.39596 0.01274 0.01051 0.0
H4913 H 0.40292 0.95381 0.99861 0.0
H4914 H 0.44068 0.03715 0.02898 0.0
H4915 H 0.44419 0.04055 0.0051 0.0
H4916 H 0.42212 0.0421 0.01417 0.0
H4917 H 0.43284 0.94804 0.9979 0.0
H4918 H 0.45179 0.96894 0.99152 0.0
H4919 H 0.4498 0.96422 0.01536 0.0
H4920 H 0.4989 0.02378 0.98989 0.0
H4921 H 0.49302 0.01469 0.04759 0.0
H4922 H 0.45066 0.02144 0.97786 0.0
H4923 H 0.45384 0.9971 0.97273 0.0
H4924 H 0.47243 0.0194 0.96847 0.0
H4925 H 0.44392 0.01006 0.04756 0.0
H4926 H 0.46332 1.00369 0.05984 0.0
H4927 H 0.44647 0.98525 0.04387 0.0
C4928 C 0.84308 0.59084 0.78304 0.0
C4929 C 0.85794 0.60354 0.79506 0.0
C4930 C 0.83014 0.59862 0.77309 0.0
C4931 C 0.83207 0.61952 0.77545 0.0
C4932 C 0.84669 0.63228 0.78806 0.0
C4933 C 0.85957 0.62413 0.79762 0.0
C4934 C 0.81487 0.58466 0.75962 0.0
C4935 C 0.84895 0.65462 0.79119 0.0
C4936 C 0.81442 0.64979 0.74068 0.0
C4937 C 0.79888 0.65329 0.74933 0.0
C4938 C 0.82452 0.63729 0.7482 0.0
C4939 C 0.81896 0.62833 0.76479 0.0
C4940 C 0.80223 0.63029 0.77255 0.0
C4941 C 0.79234 0.64271 0.76467 0.0
C4942 C 0.84208 0.63512 0.73932 0.0
C4943 C 0.79588 0.62102 0.79026 0.0
H4944 H 0.84209 0.57494 0.78082 0.0
H4945 H 0.87111 0.63388 0.80691 0.0
H4946 H 0.80055 0.58604 0.76255 0.0
H4947 H 0.81739 0.58903 0.74532 0.0
H4948 H 0.81468 0.56862 0.76015 0.0
H4949 H 0.86062 0.66226 0.80198 0.0
H4950 H 0.85215 0.6619 0.7781 0.0
H4951 H 0.83539 0.65708 0.79545 0.0
H4952 H 0.8194 0.65782 0.72873 0.0
H4953 H 0.78049 0.64552 0.77161 0.0
H4954 H 0.84248 0.61921 0.73874 0.0
H4955 H 0.8551 0.6444 0.74778 0.0
H4956 H 0.84265 0.64015 0.72507 0.0
H4957 H 0.79641 0.60517 0.78989 0.0
H4958 H 0.78113 0.62133 0.79287 0.0
H4959 H 0.80576 0.62958 0.80209 0.0
C4960 C 0.87658 0.62164 0.02431 0.0
C4961 C 0.88237 0.64229 0.02155 0.0
C4962 C 0.8896 0.61012 0.024 0.0
C4963 C 0.90899 0.61948 0.021 0.0
C4964 C 0.91493 0.64031 0.01812 0.0
C4965 C 0.90154 0.65143 0.01834 0.0
C4966 C 0.88262 0.58793 0.02693 0.0
C4967 C 0.93549 0.65089 0.01505 0.0
C4968 C 0.94515 0.59313 0.03818 0.0
C4969 C 0.94818 0.583 0.02181 0.0
C4970 C 0.93279 0.60541 0.03804 0.0
C4971 C 0.92303 0.60747 0.02115 0.0
C4972 C 0.92622 0.59748 0.00454 0.0
C4973 C 0.93882 0.58545 0.00505 0.0
C4974 C 0.92997 0.61598 0.05602 0.0
C4975 C 0.91598 0.59911 0.98627 0.0
H4976 H 0.86174 0.61441 0.02653 0.0
H4977 H 0.90616 0.66742 0.01637 0.0
H4978 H 0.88563 0.57885 0.01496 0.0
H4979 H 0.89041 0.58471 0.03941 0.0
H4980 H 0.86701 0.58284 0.02868 0.0
H4981 H 0.93777 0.66709 0.01282 0.0
H4982 H 0.94498 0.64978 0.02721 0.0
H4983 H 0.93993 0.64342 0.00284 0.0
H4984 H 0.95253 0.5915 0.05113 0.0
H4985 H 0.94096 0.57751 0.99239 0.0
H4986 H 0.91482 0.6104 0.05927 0.0
H4987 H 0.93314 0.63244 0.0547 0.0
H4988 H 0.93924 0.61354 0.06782 0.0
H4989 H 0.90029 0.59283 0.98694 0.0
H4990 H 0.92047 0.59093 0.97452 0.0
H4991 H 0.91876 0.61519 0.98343 0.0
C4992 C 0.26084 0.14442 0.8229 0.0
C4993 C 0.25985 0.12876 0.8093 0.0
C4994 C 0.26871 0.16466 0.81948 0.0
C4995 C 0.27525 0.16935 0.80188 0.0
C4996 C 0.27539 0.15367 0.7885 0.0
C4997 C 0.26795 0.13354 0.7925 0.0
C4998 C 0.26882 0.18101 0.83428 0.0
C4999 C 0.28205 0.15808 0.76949 0.0
C5000 C 0.26876 0.218 0.78563 0.0
C5001 C 0.28756 0.2307 0.78766 0.0
C5002 C 0.26469 0.19785 0.78982 0.0
C5003 C 0.27973 0.19046 0.79673 0.0
C5004 C 0.29874 0.20327 0.79892 0.0
C5005 C 0.30248 0.22324 0.79408 0.0
C5006 C 0.24427 0.18448 0.78689 0.0
C5007 C 0.31501 0.19605 0.80676 0.0
H5008 H 0.25448 0.14101 0.83587 0.0
H5009 H 0.26771 0.12155 0.78209 0.0
H5010 H 0.28271 0.193 0.83548 0.0
H5011 H 0.25746 0.18813 0.83045 0.0
H5012 H 0.26619 0.17498 0.84802 0.0
H5013 H 0.2831 0.14435 0.76139 0.0
H5014 H 0.27178 0.16431 0.76171 0.0
H5015 H 0.2962 0.16962 0.77053 0.0
H5016 H 0.25725 0.22377 0.78053 0.0
H5017 H 0.31701 0.23318 0.79583 0.0
H5018 H 0.23903 0.17945 0.80033 0.0
H5019 H 0.24356 0.17076 0.77782 0.0
H5020 H 0.23445 0.1923 0.78051 0.0
H5021 H 0.31232 0.19159 0.82101 0.0
H5022 H 0.32903 0.20782 0.80726 0.0
H5023 H 0.3159 0.18249 0.79834 0.0
C5024 C 0.3609 0.93591 0.27097 0.0
C5025 C 0.37068 0.94346 0.28828 0.0
C5026 C 0.35046 0.91549 0.26764 0.0
C5027 C 0.35004 0.90237 0.28191 0.0
C5028 C 0.35996 0.90994 0.29939 0.0
C5029 C 0.37009 0.93045 0.30239 0.0
C5030 C 0.33986 0.90796 0.2489 0.0
C5031 C 0.36002 0.89634 0.31486 0.0
C5032 C 0.31068 0.85292 0.28079 0.0
C5033 C 0.32001 0.83903 0.27426 0.0
C5034 C 0.32015 0.87367 0.28293 0.0
C5035 C 0.33942 0.88064 0.27857 0.0
C5036 C 0.34882 0.86675 0.27168 0.0
C5037 C 0.33897 0.84612 0.26955 0.0
C5038 C 0.30964 0.88809 0.29016 0.0
C5039 C 0.36942 0.87365 0.26698 0.0
H5040 H 0.36123 0.94605 0.26012 0.0
H5041 H 0.37784 0.93627 0.31571 0.0
H5042 H 0.3453 0.89599 0.24237 0.0
H5043 H 0.32441 0.90111 0.25051 0.0
H5044 H 0.34138 0.92019 0.23941 0.0
H5045 H 0.36847 0.90463 0.32762 0.0
H5046 H 0.34515 0.88917 0.31828 0.0
H5047 H 0.36612 0.88403 0.31035 0.0
H5048 H 0.29599 0.84759 0.28436 0.0
H5049 H 0.3463 0.8355 0.26448 0.0
H5050 H 0.31026 0.90003 0.28051 0.0
H5051 H 0.31668 0.89569 0.3037 0.0
H5052 H 0.29439 0.88035 0.29199 0.0
H5053 H 0.37118 0.88515 0.25674 0.0
H5054 H 0.37445 0.86099 0.26123 0.0
H5055 H 0.37877 0.88087 0.2796 0.0
C5056 C 0.57475 0.41194 0.58981 0.0
C5057 C 0.57508 0.39563 0.57749 0.0
C5058 C 0.57196 0.42967 0.58333 0.0
C5059 C 0.56948 0.43121 0.56403 0.0
C5060 C 0.57006 0.41492 0.5515 0.0
C5061 C 0.5728 0.39732 0.55837 0.0
C5062 C 0.57132 0.44663 0.59716 0.0
C5063 C 0.56759 0.416 0.53082 0.0
C5064 C 0.54321 0.46796 0.54744 0.0
C5065 C 0.55836 0.48451 0.54365 0.0
C5066 C 0.54665 0.45059 0.55409 0.0
C5067 C 0.5657 0.44963 0.55698 0.0
C5068 C 0.58107 0.46627 0.55322 0.0
C5069 C 0.57723 0.48351 0.54665 0.0
C5070 C 0.52985 0.43322 0.558 0.0
C5071 C 0.60158 0.46583 0.55607 0.0
H5072 H 0.5762 0.41067 0.60461 0.0
H5073 H 0.57325 0.38489 0.54876 0.0
H5074 H 0.58212 0.46081 0.59442 0.0
H5075 H 0.55707 0.44934 0.59567 0.0
H5076 H 0.57407 0.44332 0.61168 0.0
H5077 H 0.56896 0.4023 0.52292 0.0
H5078 H 0.55329 0.41782 0.52693 0.0
H5079 H 0.57844 0.42939 0.52657 0.0
H5080 H 0.52859 0.46854 0.54522 0.0
H5081 H 0.58905 0.49615 0.54372 0.0
H5082 H 0.53115 0.42995 0.57272 0.0
H5083 H 0.52981 0.4194 0.5494 0.0
H5084 H 0.51591 0.43637 0.55512 0.0
H5085 H 0.60496 0.46357 0.57074 0.0
H5086 H 0.61191 0.47996 0.55243 0.0
H5087 H 0.60366 0.45293 0.54748 0.0
C5088 C 0.40371 0.7429 0.3559 0.0
C5089 C 0.41829 0.76095 0.36086 0.0
C5090 C 0.3871 0.74275 0.34497 0.0
C5091 C 0.3851 0.76105 0.33868 0.0
C5092 C 0.39968 0.77931 0.34374 0.0
C5093 C 0.41597 0.77905 0.35485 0.0
C5094 C 0.37177 0.72302 0.34003 0.0
C5095 C 0.39814 0.79915 0.33731 0.0
C5096 C 0.35242 0.76096 0.29585 0.0
C5097 C 0.33697 0.76568 0.30367 0.0
C5098 C 0.36798 0.75889 0.3071 0.0
C5099 C 0.36791 0.76125 0.32663 0.0
C5100 C 0.35195 0.76515 0.3346 0.0
C5101 C 0.33677 0.76751 0.32303 0.0
C5102 C 0.38482 0.75495 0.29806 0.0
C5103 C 0.35112 0.76739 0.35535 0.0
H5104 H 0.40539 0.7288 0.3603 0.0
H5105 H 0.42689 0.79316 0.35893 0.0
H5106 H 0.35782 0.72422 0.34446 0.0
H5107 H 0.37001 0.71955 0.32479 0.0
H5108 H 0.37515 0.71024 0.34658 0.0
H5109 H 0.41084 0.81197 0.34227 0.0
H5110 H 0.39657 0.79823 0.32195 0.0
H5111 H 0.38519 0.80239 0.34235 0.0
H5112 H 0.35269 0.75958 0.28091 0.0
H5113 H 0.32476 0.77091 0.32919 0.0
H5114 H 0.38806 0.74156 0.30345 0.0
H5115 H 0.3977 0.76803 0.30153 0.0
H5116 H 0.38222 0.75242 0.28274 0.0
H5117 H 0.35403 0.7543 0.36172 0.0
H5118 H 0.33699 0.76859 0.3593 0.0
H5119 H 0.36235 0.78112 0.3613 0.0
C5120 C 0.07342 0.68213 0.08751 0.0
C5121 C 0.07271 0.69703 0.07542 0.0
C5122 C 0.07229 0.66237 0.08078 0.0
C5123 C 0.07 0.65713 0.06145 0.0
C5124 C 0.06916 0.67198 0.04913 0.0
C5125 C 0.07065 0.69177 0.05624 0.0
C5126 C 0.07336 0.64702 0.0944 0.0
C5127 C 0.06648 0.66692 0.02842 0.0
C5128 C 0.08198 0.60958 0.04371 0.0
C5129 C 0.0639 0.59527 0.04205 0.0
C5130 C 0.08419 0.6298 0.04993 0.0
C5131 C 0.06789 0.63592 0.05424 0.0
C5132 C 0.04958 0.6216 0.05225 0.0
C5133 C 0.04783 0.60144 0.04635 0.0
C5134 C 0.104 0.64456 0.05216 0.0
C5135 C 0.03179 0.62754 0.05641 0.0
H5136 H 0.07456 0.68579 0.10234 0.0
H5137 H 0.07032 0.70314 0.04674 0.0
H5138 H 0.0597 0.63469 0.09321 0.0
H5139 H 0.08488 0.6401 0.09119 0.0
H5140 H 0.07615 0.65376 0.10895 0.0
H5141 H 0.06614 0.68017 0.0207 0.0
H5142 H 0.07826 0.66111 0.02375 0.0
H5143 H 0.0529 0.65478 0.02477 0.0
H5144 H 0.09445 0.60491 0.04043 0.0
H5145 H 0.03376 0.59054 0.04486 0.0
H5146 H 0.10749 0.65075 0.06683 0.0
H5147 H 0.10452 0.65747 0.04371 0.0
H5148 H 0.11516 0.63749 0.04799 0.0
H5149 H 0.03271 0.63298 0.07123 0.0
H5150 H 0.01852 0.61479 0.05334 0.0
H5151 H 0.03064 0.64014 0.04814 0.0
C5152 C 0.09311 0.26097 0.84931 0.0
C5153 C 0.09422 0.27629 0.86326 0.0
C5154 C 0.10885 0.26106 0.83907 0.0
C5155 C 0.12607 0.27695 0.84278 0.0
C5156 C 0.12724 0.29251 0.85679 0.0
C5157 C 0.11132 0.29195 0.86691 0.0
C5158 C 0.1071 0.24412 0.82434 0.0
C5159 C 0.14528 0.30981 0.86103 0.0
C5160 C 0.17274 0.26938 0.82773 0.0
C5161 C 0.17487 0.27922 0.81132 0.0
C5162 C 0.15683 0.26834 0.83802 0.0
C5163 C 0.14278 0.27747 0.83182 0.0
C5164 C 0.14476 0.28729 0.81522 0.0
C5165 C 0.16071 0.28795 0.80513 0.0
C5166 C 0.15515 0.25764 0.85562 0.0
C5167 C 0.1301 0.29723 0.80816 0.0
H5168 H 0.08001 0.24868 0.84662 0.0
H5169 H 0.11218 0.30392 0.87756 0.0
H5170 H 0.10967 0.25029 0.81067 0.0
H5171 H 0.11816 0.23637 0.82744 0.0
H5172 H 0.09278 0.2328 0.82328 0.0
H5173 H 0.14389 0.32066 0.87241 0.0
H5174 H 0.15747 0.30395 0.865 0.0
H5175 H 0.14885 0.31804 0.84847 0.0
H5176 H 0.1837 0.2628 0.83274 0.0
H5177 H 0.16203 0.29526 0.7923 0.0
H5178 H 0.14133 0.24556 0.85488 0.0
H5179 H 0.15523 0.26843 0.8676 0.0
H5180 H 0.16699 0.25079 0.85825 0.0
H5181 H 0.11582 0.28594 0.80581 0.0
H5182 H 0.13378 0.3043 0.79502 0.0
H5183 H 0.1289 0.30903 0.81869 0.0
C5184 C 0.56697 0.67798 0.96397 0.0
C5185 C 0.55204 0.67839 0.95079 0.0
C5186 C 0.5669 0.66049 0.97352 0.0
C5187 C 0.55141 0.64241 0.97038 0.0
C5188 C 0.53623 0.64273 0.9572 0.0
C5189 C 0.53678 0.66034 0.94766 0.0
C5190 C 0.58369 0.66137 0.987 0.0
C5191 C 0.51916 0.62435 0.95323 0.0
C5192 C 0.55839 0.59057 0.98303 0.0
C5193 C 0.55089 0.58766 1.00052 0.0
C5194 C 0.55866 0.60797 0.97328 0.0
C5195 C 0.55109 0.62336 0.98076 0.0
C5196 C 0.54332 0.62041 0.9983 0.0
C5197 C 0.54341 0.60296 0.00786 0.0
C5198 C 0.5673 0.60994 0.95487 0.0
C5199 C 0.53481 0.63581 0.00711 0.0
H5200 H 0.5791 0.69134 0.96665 0.0
H5201 H 0.52489 0.65999 0.93788 0.0
H5202 H 0.57872 0.65841 1.00099 0.0
H5203 H 0.59033 0.64941 0.98273 0.0
H5204 H 0.59479 0.67622 0.98793 0.0
H5205 H 0.50835 0.62679 0.94292 0.0
H5206 H 0.52385 0.61132 0.94792 0.0
H5207 H 0.51225 0.62024 0.96622 0.0
H5208 H 0.56434 0.57925 0.97692 0.0
H5209 H 0.53752 0.60132 0.02122 0.0
H5210 H 0.57936 0.62402 0.95552 0.0
H5211 H 0.5565 0.6111 0.94393 0.0
H5212 H 0.57267 0.59695 0.95078 0.0
H5213 H 0.54591 0.65061 0.00964 0.0
H5214 H 0.52884 0.63135 0.02045 0.0
H5215 H 0.52324 0.63795 0.99756 0.0
C5216 C 0.16282 0.80416 0.72979 0.0
C5217 C 0.15116 0.78853 0.71703 0.0
C5218 C 0.18111 0.80378 0.7379 0.0
C5219 C 0.18883 0.7875 0.73332 0.0
C5220 C 0.17731 0.77177 0.72043 0.0
C5221 C 0.15897 0.77237 0.71275 0.0
C5222 C 0.19226 0.82104 0.75149 0.0
C5223 C 0.18442 0.75409 0.7146 0.0
C5224 C 0.24417 0.79468 0.74169 0.0
C5225 C 0.24597 0.78462 0.75779 0.0
C5226 C 0.22607 0.79573 0.73375 0.0
C5227 C 0.20868 0.78678 0.74195 0.0
C5228 C 0.21045 0.77685 0.75834 0.0
C5229 C 0.22871 0.7758 0.76586 0.0
C5230 C 0.22559 0.80645 0.71635 0.0
C5231 C 0.19289 0.76731 0.76814 0.0
H5232 H 0.15784 0.81707 0.73343 0.0
H5233 H 0.15068 0.75976 0.70341 0.0
H5234 H 0.19609 0.81518 0.76462 0.0
H5235 H 0.20585 0.82914 0.74581 0.0
H5236 H 0.18414 0.83202 0.75462 0.0
H5237 H 0.1744 0.74336 0.70401 0.0
H5238 H 0.19857 0.75955 0.70887 0.0
H5239 H 0.18645 0.74583 0.72681 0.0
H5240 H 0.25704 0.80177 0.7351 0.0
H5241 H 0.22942 0.76808 0.7783 0.0
H5242 H 0.21992 0.81951 0.71905 0.0
H5243 H 0.2158 0.79613 0.70536 0.0
H5244 H 0.23998 0.81198 0.7111 0.0
H5245 H 0.18542 0.77875 0.77178 0.0
H5246 H 0.19639 0.76072 0.78099 0.0
H5247 H 0.18274 0.75522 0.75879 0.0
C5248 C 0.04384 0.38503 0.44983 0.0
C5249 C 0.0609 0.37925 0.44903 0.0
C5250 C 0.04329 0.40363 0.45909 0.0
C5251 C 0.06015 0.4174 0.46824 0.0
C5252 C 0.0774 0.41172 0.46761 0.0
C5253 C 0.07758 0.39306 0.45814 0.0
C5254 C 0.02445 0.40853 0.45911 0.0
C5255 C 0.09586 0.42545 0.477 0.0
C5256 C 0.06235 0.47407 0.47926 0.0
C5257 C 0.05853 0.47519 0.49809 0.0
C5258 C 0.06288 0.45569 0.46952 0.0
C5259 C 0.05967 0.43746 0.47857 0.0
C5260 C 0.05588 0.43853 0.49759 0.0
C5261 C 0.0553 0.45706 0.50695 0.0
C5262 C 0.06684 0.4558 0.44936 0.0
C5263 C 0.05243 0.41995 0.50819 0.0
H5264 H 0.0306 0.37485 0.44341 0.0
H5265 H 0.09106 0.38952 0.45771 0.0
H5266 H 0.02053 0.41015 0.47355 0.0
H5267 H 0.02578 0.42317 0.45313 0.0
H5268 H 1.01265 0.39673 0.45108 0.0
H5269 H 0.10808 0.41906 0.47557 0.0
H5270 H 0.09931 0.44028 0.471 0.0
H5271 H 0.09424 0.42826 0.49195 0.0
H5272 H 0.06488 0.48764 0.47197 0.0
H5273 H 0.05236 0.4573 0.52141 0.0
H5274 H 0.05484 0.44473 0.4409 0.0
H5275 H 0.07994 0.45109 0.44735 0.0
H5276 H 0.0688 0.47091 0.44409 0.0
H5277 H 0.03985 0.40799 0.50154 0.0
H5278 H 0.04986 0.42304 0.52287 0.0
H5279 H 0.06495 0.41391 0.50784 0.0
C5280 C 0.45128 0.28666 0.23551 0.0
C5281 C 0.45277 0.28444 0.21615 0.0
C5282 C 0.43353 0.2857 0.24345 0.0
C5283 C 0.41615 0.28269 0.2321 0.0
C5284 C 0.41754 0.28055 0.21257 0.0
C5285 C 0.43542 0.2813 0.205 0.0
C5286 C 0.4334 0.28781 0.26424 0.0
C5287 C 0.4 0.27765 0.19949 0.0
C5288 C 0.36578 0.26321 0.25226 0.0
C5289 C 0.36027 0.28092 0.25627 0.0
C5290 C 0.38361 0.26356 0.24472 0.0
C5291 C 0.3968 0.28203 0.24054 0.0
C5292 C 0.39125 0.29993 0.24446 0.0
C5293 C 0.37348 0.29918 0.25223 0.0
C5294 C 0.38837 0.24393 0.24124 0.0
C5295 C 0.40412 0.3201 0.24027 0.0
H5296 H 0.46406 0.28884 0.24468 0.0
H5297 H 0.43579 0.27979 0.1901 0.0
H5298 H 0.42858 0.3011 0.26854 0.0
H5299 H 0.42307 0.27433 0.26897 0.0
H5300 H 0.44773 0.28961 0.27137 0.0
H5301 H 0.40311 0.27632 0.18473 0.0
H5302 H 0.38877 0.26384 0.20232 0.0
H5303 H 0.39403 0.29058 0.20175 0.0
H5304 H 0.35613 0.24887 0.25511 0.0
H5305 H 0.36984 0.31314 0.25495 0.0
H5306 H 0.40222 0.24477 0.24889 0.0
H5307 H 0.39007 0.24123 0.22629 0.0
H5308 H 0.37716 0.23086 0.24555 0.0
H5309 H 0.41824 0.32319 0.2482 0.0
H5310 H 0.39796 0.33267 0.24375 0.0
H5311 H 0.4067 0.31983 0.22535 0.0
C5312 C 0.60174 0.4941 0.39971 0.0
C5313 C 0.61987 0.49096 0.40092 0.0
C5314 C 0.59326 0.49833 0.41566 0.0
C5315 C 0.60308 0.49923 0.43323 0.0
C5316 C 0.62106 0.49525 0.4346 0.0
C5317 C 0.62934 0.49131 0.41835 0.0
C5318 C 0.57416 0.50274 0.41365 0.0
C5319 C 0.63178 0.4958 0.45316 0.0
C5320 C 0.58963 0.53173 0.47091 0.0
C5321 C 0.57578 0.51732 0.47924 0.0
C5322 C 0.59911 0.52596 0.45623 0.0
C5323 C 0.5948 0.50528 0.45002 0.0
C5324 C 0.58147 0.49059 0.45895 0.0
C5325 C 0.57199 0.49681 0.47338 0.0
C5326 C 0.61315 0.54206 0.44691 0.0
C5327 C 0.57683 0.46837 0.45291 0.0
H5328 H 0.59459 0.49423 0.38621 0.0
H5329 H 0.64338 0.48889 0.41924 0.0
H5330 H 0.56371 0.49265 0.42186 0.0
H5331 H 0.57581 0.5185 0.41914 0.0
H5332 H 0.56815 0.50078 0.399 0.0
H5333 H 0.64473 0.49058 0.45189 0.0
H5334 H 0.63628 0.51143 0.45981 0.0
H5335 H 0.62234 0.4862 0.46252 0.0
H5336 H 0.59268 0.54759 0.47548 0.0
H5337 H 0.56151 0.48557 0.48001 0.0
H5338 H 0.6077 0.54222 0.43233 0.0
H5339 H 0.6271 0.53869 0.44658 0.0
H5340 H 0.61559 0.55735 0.454 0.0
H5341 H 0.56938 0.46531 0.43881 0.0
H5342 H 0.56753 0.45879 0.46242 0.0
H5343 H 0.59019 0.46384 0.45221 0.0
C5344 C 0.31423 0.85548 0.07952 0.0
C5345 C 0.29614 0.85839 0.07596 0.0
C5346 C 0.3182 0.8456 0.09487 0.0
C5347 C 0.3038 0.83863 0.10708 0.0
C5348 C 0.28544 0.84128 0.1035 0.0
C5349 C 0.28181 0.85107 0.08793 0.0
C5350 C 0.33793 0.84299 0.09823 0.0
C5351 C 0.26975 0.83408 0.11628 0.0
C5352 C 0.30836 0.7992 0.13967 0.0
C5353 C 0.31537 0.81112 0.15632 0.0
C5354 C 0.30477 0.80797 0.12345 0.0
C5355 C 0.30813 0.82914 0.12395 0.0
C5356 C 0.31545 0.84129 0.14063 0.0
C5357 C 0.31907 0.83214 0.15659 0.0
C5358 C 0.29709 0.79458 0.10585 0.0
C5359 C 0.3192 0.86393 0.14168 0.0
H5360 H 0.32549 0.8614 0.07054 0.0
H5361 H 0.26774 0.85303 0.08515 0.0
H5362 H 0.34496 0.85148 0.11144 0.0
H5363 H 0.33685 0.82685 0.09957 0.0
H5364 H 0.34722 0.84838 0.08691 0.0
H5365 H 0.25615 0.83693 0.11132 0.0
H5366 H 0.26701 0.81767 0.11761 0.0
H5367 H 0.27432 0.84186 0.13033 0.0
H5368 H 0.30522 0.78293 0.13942 0.0
H5369 H 0.32475 0.84146 0.16934 0.0
H5370 H 0.30654 0.79961 0.09459 0.0
H5371 H 0.28272 0.79578 0.10131 0.0
H5372 H 0.29592 0.77848 0.10763 0.0
H5373 H 0.3295 0.87051 0.13152 0.0
H5374 H 0.32504 0.87121 0.15569 0.0
H5375 H 0.30572 0.86768 0.13801 0.0
C5376 C 0.99817 0.54113 0.89585 0.0
C5377 C 1.00281 0.5559 0.88321 0.0
C5378 C 1.00963 0.5426 0.91227 0.0
C5379 C 0.02611 0.55934 0.91618 0.0
C5380 C 0.03126 0.57401 0.90324 0.0
C5381 C 0.01947 0.57214 0.88686 0.0
C5382 C 1.00363 0.52663 0.92577 0.0
C5383 C 0.04881 0.59196 0.90698 0.0
C5384 C 0.03665 0.56883 0.96771 0.0
C5385 C 0.04935 0.55734 0.97086 0.0
C5386 C 0.03029 0.57127 0.94969 0.0
C5387 C 0.03682 0.56196 0.93454 0.0
C5388 C 0.05109 0.55207 0.93759 0.0
C5389 C 0.05724 0.54988 0.9558 0.0
C5390 C 0.01519 0.5821 0.947 0.0
C5391 C 0.05853 0.54217 0.92173 0.0
H5392 H 0.98515 0.52873 0.89324 0.0
H5393 H 0.02318 0.58347 0.87699 0.0
H5394 H 0.01561 0.52032 0.92941 0.0
H5395 H 0.99997 0.53347 0.93876 0.0
H5396 H 0.99103 0.51402 0.92012 0.0
H5397 H 0.05208 0.60063 0.89461 0.0
H5398 H 0.04653 0.60219 0.91842 0.0
H5399 H 0.06143 0.58703 0.91146 0.0
H5400 H 0.03081 0.57501 0.97932 0.0
H5401 H 0.06724 0.54117 0.95817 0.0
H5402 H 1.00112 0.57087 0.94291 0.0
H5403 H 0.0185 0.59236 0.93574 0.0
H5404 H 1.01382 0.59102 0.95984 0.0
H5405 H 0.04768 0.52778 0.91662 0.0
H5406 H 0.07205 0.53875 0.92603 0.0
H5407 H 0.06105 0.5519 0.91002 0.0
C5408 C 0.30241 0.23408 0.63574 0.0
C5409 C 0.30481 0.24865 0.62275 0.0
C5410 C 0.30211 0.23925 0.65479 0.0
C5411 C 0.30411 0.25953 0.66121 0.0
C5412 C 0.30671 0.27438 0.64821 0.0
C5413 C 0.30715 0.2688 0.62921 0.0
C5414 C 0.29959 0.22293 0.66807 0.0
C5415 C 0.30872 0.29613 0.65434 0.0
C5416 C 0.28457 0.26846 0.70787 0.0
C5417 C 0.30126 0.27455 0.72001 0.0
C5418 C 0.28533 0.26384 0.68877 0.0
C5419 C 0.30319 0.26507 0.68147 0.0
C5420 C 0.32008 0.27114 0.69365 0.0
C5421 C 0.31892 0.27588 0.71266 0.0
C5422 C 0.26697 0.25762 0.67636 0.0
C5423 C 0.33941 0.27245 0.68663 0.0
H5424 H 0.3009 0.21852 0.63101 0.0
H5425 H 0.30888 0.28018 0.61934 0.0
H5426 H 0.31173 0.22696 0.67889 0.0
H5427 H 0.28633 0.22159 0.67522 0.0
H5428 H 0.29873 0.20798 0.66099 0.0
H5429 H 0.31086 0.30592 0.64262 0.0
H5430 H 0.29571 0.29724 0.66097 0.0
H5431 H 0.32103 0.30203 0.66485 0.0
H5432 H 0.27084 0.26746 0.71327 0.0
H5433 H 0.33193 0.28045 0.72181 0.0
H5434 H 0.26465 0.24212 0.66983 0.0
H5435 H 0.26797 0.26781 0.66502 0.0
H5436 H 0.25431 0.25793 0.68402 0.0
H5437 H 0.33947 0.25746 0.68034 0.0
H5438 H 0.3512 0.27753 0.69781 0.0
H5439 H 0.34232 0.2831 0.67564 0.0
C5440 C 0.56709 0.50281 0.23058 0.0
C5441 C 0.58703 0.51108 0.23208 0.0
C5442 C 0.55596 0.50564 0.21506 0.0
C5443 C 0.56505 0.51731 0.20106 0.0
C5444 C 0.58518 0.52587 0.20271 0.0
C5445 C 0.59591 0.52254 0.21815 0.0
C5446 C 0.53458 0.49602 0.21355 0.0
C5447 C 0.59544 0.53866 0.18821 0.0
C5448 C 0.5467 0.51534 0.15116 0.0
C5449 C 0.54227 0.53376 0.15087 0.0
C5450 C 0.55234 0.50867 0.16782 0.0
C5451 C 0.55386 0.52088 0.18454 0.0
C5452 C 0.54776 0.53852 0.18456 0.0
C5453 C 0.54188 0.54467 0.16772 0.0
C5454 C 0.5584 0.48956 0.16723 0.0
C5455 C 0.54918 0.55198 0.20208 0.0
H5456 H 0.56027 0.49389 0.24138 0.0
H5457 H 0.61132 0.52918 0.21948 0.0
H5458 H 0.52703 0.50776 0.21237 0.0
H5459 H 0.53026 0.48561 0.20078 0.0
H5460 H 0.52971 0.48743 0.22565 0.0
H5461 H 0.61112 0.54455 0.19184 0.0
H5462 H 0.59302 0.52965 0.17465 0.0
H5463 H 0.58964 0.55166 0.18648 0.0
H5464 H 0.54716 0.50679 0.13825 0.0
H5465 H 0.53801 0.55865 0.16765 0.0
H5466 H 0.55349 0.48078 0.17919 0.0
H5467 H 0.57426 0.49353 0.16805 0.0
H5468 H 0.55271 0.47984 0.15422 0.0
H5469 H 0.54374 0.54293 0.21373 0.0
H5470 H 0.54109 0.56321 0.20034 0.0
H5471 H 0.56444 0.56026 0.20597 0.0
C5472 C 0.29352 0.87618 0.89905 0.0
C5473 C 0.27553 0.87519 0.90538 0.0
C5474 C 0.29522 0.86457 0.88312 0.0
C5475 C 0.27853 0.85158 0.87332 0.0
C5476 C 0.2603 0.85059 0.87952 0.0
C5477 C 0.25901 0.86241 0.89556 0.0
C5478 C 0.31494 0.86595 0.87699 0.0
C5479 C 0.24221 0.83691 0.86935 0.0
C5480 C 0.28473 0.83473 0.82402 0.0
C5481 C 0.28791 0.81594 0.82622 0.0
C5482 C 0.28096 0.84621 0.83914 0.0
C5483 C 0.28038 0.83871 0.85685 0.0
C5484 C 0.283 0.81949 0.85907 0.0
C5485 C 0.28674 0.80832 0.84371 0.0
C5486 C 0.27821 0.86664 0.83626 0.0
C5487 C 0.28246 0.81101 0.87777 0.0
H5488 H 0.30636 0.8857 0.90683 0.0
H5489 H 0.24509 0.86168 0.90041 0.0
H5490 H 0.31765 0.85101 0.8773 0.0
H5491 H 0.31585 0.87018 0.86251 0.0
H5492 H 0.32643 0.87719 0.88592 0.0
H5493 H 0.22912 0.8383 0.8757 0.0
H5494 H 0.24134 0.84047 0.85469 0.0
H5495 H 0.24245 0.82097 0.86932 0.0
H5496 H 0.28549 0.84067 0.81052 0.0
H5497 H 0.28906 0.79376 0.84551 0.0
H5498 H 0.29021 0.87863 0.84378 0.0
H5499 H 0.26481 0.86783 0.84204 0.0
H5500 H 0.27762 0.8696 0.8214 0.0
H5501 H 0.29454 0.82057 0.88725 0.0
H5502 H 0.28348 0.79529 0.87692 0.0
H5503 H 0.26903 0.81121 0.88405 0.0
C5504 C 0.96902 0.55647 0.69648 0.0
C5505 C 0.97777 0.56622 0.71354 0.0
C5506 C 0.97997 0.55486 0.68161 0.0
C5507 C 1.00013 0.56298 0.68405 0.0
C5508 C 1.00886 0.57428 0.70078 0.0
C5509 C 0.99749 0.57584 0.71539 0.0
C5510 C 0.97011 0.543 0.66384 0.0
C5511 C 0.0303 0.58318 0.70385 0.0
C5512 C 0.02494 0.53088 0.65714 0.0
C5513 C 0.02928 0.54155 0.64144 0.0
C5514 C 0.0164 0.53835 0.67162 0.0
C5515 C 1.01198 0.55686 0.67027 0.0
C5516 C 0.01727 0.56826 0.65493 0.0
C5517 C 0.02593 0.56047 0.64068 0.0
C5518 C 1.01112 0.52585 0.68789 0.0
C5519 C 1.01286 0.58809 0.65308 0.0
H5520 H 0.9537 0.54922 0.6951 0.0
H5521 H 1.00421 0.58331 0.72867 0.0
H5522 H 0.97549 0.55116 0.65168 0.0
H5523 H 0.97332 0.52827 0.66263 0.0
H5524 H 0.95432 0.54006 0.66331 0.0
H5525 H 0.03444 0.59445 0.71605 0.0
H5526 H 0.03696 0.57093 0.70623 0.0
H5527 H 0.03625 0.59049 0.69147 0.0
H5528 H 0.02738 0.5162 0.65772 0.0
H5529 H 0.02963 0.56896 0.6287 0.0
H5530 H 0.9953 0.52008 0.68776 0.0
H5531 H 0.01641 0.53525 0.70111 0.0
H5532 H 0.01707 0.51276 0.68761 0.0
H5533 H 0.99722 0.58521 0.64999 0.0
H5534 H 0.02034 0.59641 0.64179 0.0
H5535 H 0.01697 0.59783 0.66624 0.0
C5536 C 0.32427 0.2378 0.41575 0.0
C5537 C 0.31238 0.24509 0.42723 0.0
C5538 C 0.32555 0.24217 0.39703 0.0
C5539 C 0.31448 0.25392 0.38927 0.0
C5540 C 0.30252 0.2614 0.40073 0.0
C5541 C 0.30172 0.25705 0.41948 0.0
C5542 C 0.33856 0.23391 0.38546 0.0
C5543 C 0.2903 0.27381 0.3931 0.0
C5544 C 0.32713 0.2791 0.34413 0.0
C5545 C 0.31416 0.26563 0.33087 0.0
C5546 C 0.32767 0.27532 0.36306 0.0
C5547 C 0.31483 0.25775 0.36904 0.0
C5548 C 0.30197 0.24395 0.35566 0.0
C5549 C 0.30185 0.24799 0.33686 0.0
C5550 C 0.34184 0.2903 0.37673 0.0
C5551 C 0.28796 0.22505 0.36124 0.0
H5552 H 0.33234 0.22824 0.42123 0.0
H5553 H 0.29271 0.26313 0.42808 0.0
H5554 H 0.32993 0.22297 0.37422 0.0
H5555 H 0.34844 0.24629 0.3788 0.0
H5556 H 0.3472 0.2262 0.39378 0.0
H5557 H 0.28189 0.2787 0.40377 0.0
H5558 H 0.29944 0.2874 0.38738 0.0
H5559 H 0.28023 0.26487 0.38156 0.0
H5560 H 0.33671 0.29276 0.33978 0.0
H5561 H 0.29173 0.2374 0.32689 0.0
H5562 H 0.35071 0.28254 0.38465 0.0
H5563 H 0.33408 0.29696 0.38687 0.0
H5564 H 0.35146 0.30271 0.36986 0.0
H5565 H 0.29575 0.21573 0.36844 0.0
H5566 H 0.27902 0.21573 0.34917 0.0
H5567 H 0.27837 0.22916 0.37111 0.0
C5568 C 0.36847 0.58008 0.50424 0.0
C5569 C 0.37735 0.59293 0.51989 0.0
C5570 C 0.37709 0.56626 0.49627 0.0
C5571 C 0.3951 0.56562 0.50402 0.0
C5572 C 0.40409 0.57858 0.51987 0.0
C5573 C 0.39499 0.59198 0.52772 0.0
C5574 C 0.36698 0.55238 0.47962 0.0
C5575 C 0.42344 0.57849 0.52838 0.0
C5576 C 0.4161 0.52206 0.49782 0.0
C5577 C 0.43031 0.52969 0.48584 0.0
C5578 C 0.40326 0.53284 0.50266 0.0
C5579 C 0.40495 0.55175 0.49553 0.0
C5580 C 0.41807 0.55859 0.48212 0.0
C5581 C 0.43047 0.54732 0.47726 0.0
C5582 C 0.38911 0.52484 0.51668 0.0
C5583 C 0.42032 0.57871 0.47421 0.0
H5584 H 0.35468 0.58072 0.49836 0.0
H5585 H 0.40183 0.60204 0.53977 0.0
H5586 H 0.37586 0.55523 0.46763 0.0
H5587 H 0.365 0.53643 0.48254 0.0
H5588 H 0.35276 0.55439 0.47564 0.0
H5589 H 0.4285 0.58966 0.54059 0.0
H5590 H 0.42278 0.56328 0.53279 0.0
H5591 H 0.43419 0.58197 0.51795 0.0
H5592 H 0.41589 0.50849 0.50456 0.0
H5593 H 0.44117 0.55303 0.46766 0.0
H5594 H 0.37497 0.52697 0.51265 0.0
H5595 H 0.39432 0.53334 0.53034 0.0
H5596 H 0.3872 0.50857 0.51827 0.0
H5597 H 0.40617 0.58058 0.46984 0.0
H5598 H 0.42921 0.58052 0.46217 0.0
H5599 H 0.42732 0.59103 0.48507 0.0
C5600 C 0.90359 0.94934 0.51581 0.0
C5601 C 0.89802 0.94204 0.53283 0.0
C5602 C 0.92201 0.96223 0.51423 0.0
C5603 C 0.93531 0.96773 0.53001 0.0
C5604 C 0.9296 0.96083 0.54735 0.0
C5605 C 0.91097 0.94818 0.54858 0.0
C5606 C 0.92742 0.96949 0.49555 0.0
C5607 C 0.94341 0.96612 0.56445 0.0
C5608 C 0.98803 0.97964 0.5216 0.0
C5609 C 0.99431 1.00076 0.52465 0.0
C5610 C 0.96893 0.96879 0.52337 0.0
C5611 C 0.9556 0.97929 0.52805 0.0
C5612 C 0.96173 1.00065 0.53086 0.0
C5613 C 0.98106 0.01113 0.52927 0.0
C5614 C 0.96308 0.94602 0.52045 0.0
C5615 C 0.94788 0.01239 0.53562 0.0
H5616 H 0.89351 0.94484 0.50366 0.0
H5617 H 0.90674 0.94248 0.56174 0.0
H5618 H 0.93367 0.98613 0.49672 0.0
H5619 H 0.9385 0.96279 0.49051 0.0
H5620 H 0.91496 0.96535 0.48506 0.0
H5621 H 0.93641 0.96063 0.57708 0.0
H5622 H 0.95529 0.95933 0.56255 0.0
H5623 H 0.94984 0.98271 0.56666 0.0
H5624 H 0.99816 0.97143 0.51816 0.0
H5625 H 0.98577 0.02745 0.53163 0.0
H5626 H 0.95163 0.94077 0.50901 0.0
H5627 H 0.95717 0.93937 0.53312 0.0
H5628 H 0.97524 0.94013 0.51707 0.0
H5629 H 0.93576 0.00879 0.5248 0.0
H5630 H 0.95477 0.02896 0.53689 0.0
H5631 H 0.94178 0.00793 0.54889 0.0
C5632 C 0.85669 0.09298 0.28549 0.0
C5633 C 0.87625 0.10296 0.28518 0.0
C5634 C 0.84382 0.10351 0.29075 0.0
C5635 C 0.85076 0.12448 0.29579 0.0
C5636 C 0.87067 0.13431 0.29683 0.0
C5637 C 0.88322 0.1234 0.29148 0.0
C5638 C 0.8227 0.0925 0.28961 0.0
C5639 C 0.87859 0.15667 0.30226 0.0
C5640 C 0.82091 0.15843 0.2824 0.0
C5641 C 0.81527 0.16392 0.29956 0.0
C5642 C 0.83177 0.14485 0.28093 0.0
C5643 C 0.83718 0.1367 0.29708 0.0
C5644 C 0.83066 0.14139 0.31433 0.0
C5645 C 0.81966 0.15501 0.31537 0.0
C5646 C 0.83824 0.14004 0.26223 0.0
C5647 C 0.83615 0.1329 0.33179 0.0
H5648 H 0.85135 0.07702 0.28104 0.0
H5649 H 0.89834 0.13114 0.29127 0.0
H5650 H 0.81608 0.0968 0.302 0.0
H5651 H 0.81545 0.0968 0.27732 0.0
H5652 H 0.81998 0.07585 0.28834 0.0
H5653 H 0.89445 0.16144 0.3047 0.0
H5654 H 0.87454 0.16522 0.29103 0.0
H5655 H 0.87241 0.16088 0.31497 0.0
H5656 H 0.81732 0.16534 0.27021 0.0
H5657 H 0.8153 0.15945 0.32863 0.0
H5658 H 0.83442 0.12347 0.25898 0.0
H5659 H 0.85405 0.14601 0.26247 0.0
H5660 H 0.83176 0.14668 0.25091 0.0
H5661 H 0.83386 0.11639 0.32942 0.0
H5662 H 0.82788 0.13583 0.34348 0.0
H5663 H 0.85162 0.13991 0.33585 0.0
C5664 C 0.70687 0.07455 0.03255 0.0
C5665 C 0.71656 0.08002 0.05023 0.0
C5666 C 0.68687 0.06699 0.03033 0.0
C5667 C 0.67627 0.06525 0.04614 0.0
C5668 C 0.68592 0.06994 0.06404 0.0
C5669 C 0.70597 0.07707 0.06588 0.0
C5670 C 0.67706 0.06179 0.01101 0.0
C5671 C 0.67506 0.06839 0.08123 0.0
C5672 C 0.62618 0.0705 0.03882 0.0
C5673 C 0.61492 0.05043 0.0386 0.0
C5674 C 0.64617 0.07554 0.04162 0.0
C5675 C 0.65508 0.06006 0.04386 0.0
C5676 C 0.64378 0.03974 0.04357 0.0
C5677 C 0.62378 0.03518 0.04113 0.0
C5678 C 0.65777 0.09744 0.04215 0.0
C5679 C 0.65282 0.02282 0.04554 0.0
H5680 H 0.71481 0.07701 0.02033 0.0
H5681 H 0.71334 0.08084 0.0796 0.0
H5682 H 0.66633 0.04671 0.01004 0.0
H5683 H 0.6693 0.07295 0.00776 0.0
H5684 H 0.68738 0.06177 1.00035 0.0
H5685 H 0.68471 0.0713 0.09414 0.0
H5686 H 0.66673 0.07953 0.08143 0.0
H5687 H 0.66468 0.05321 0.08115 0.0
H5688 H 0.61936 0.08233 0.03701 0.0
H5689 H 0.61509 0.01961 0.04083 0.0
H5690 H 0.66738 0.09961 0.03069 0.0
H5691 H 0.66696 0.1019 0.05533 0.0
H5692 H 0.64859 0.1077 0.04088 0.0
H5693 H 0.66227 0.02248 0.03417 0.0
H5694 H 0.64198 1.00784 0.04519 0.0
H5695 H 0.66191 0.02542 0.05876 0.0
C5696 C 0.22899 0.45489 0.26668 0.0
C5697 C 0.21121 0.44877 0.2742 0.0
C5698 C 0.2432 0.4455 0.27072 0.0
C5699 C 0.23949 0.42963 0.28259 0.0
C5700 C 0.22184 0.42388 0.29079 0.0
C5701 C 0.20787 0.43355 0.28648 0.0
C5702 C 0.26189 0.45205 0.26177 0.0
C5703 C 0.21744 0.40699 0.30351 0.0
C5704 C 0.26571 0.39045 0.27459 0.0
C5705 C 0.28044 0.39623 0.28886 0.0
C5706 C 0.2522 0.40113 0.27254 0.0
C5707 C 0.25344 0.41796 0.28511 0.0
C5708 C 0.26817 0.4238 0.29966 0.0
C5709 C 0.28153 0.41281 0.30139 0.0
C5710 C 0.23664 0.39441 0.25688 0.0
C5711 C 0.26987 0.44172 0.31327 0.0
H5712 H 0.23174 0.46695 0.25747 0.0
H5713 H 0.1941 0.42875 0.29225 0.0
H5714 H 0.27414 0.45547 0.27241 0.0
H5715 H 0.26319 0.43959 0.25205 0.0
H5716 H 0.26302 0.46558 0.25396 0.0
H5717 H 0.20376 0.40555 0.30999 0.0
H5718 H 0.21645 0.39248 0.29557 0.0
H5719 H 0.22915 0.40951 0.31463 0.0
H5720 H 0.26459 0.37736 0.26513 0.0
H5721 H 0.29296 0.41731 0.31239 0.0
H5722 H 0.23759 0.40677 0.24764 0.0
H5723 H 0.22236 0.39095 0.26247 0.0
H5724 H 0.23759 0.38083 0.24846 0.0
H5725 H 0.27217 0.45562 0.30583 0.0
H5726 H 0.28188 0.44397 0.32407 0.0
H5727 H 0.25637 0.43972 0.32016 0.0
C5728 C 0.23298 0.45124 0.03442 0.0
C5729 C 0.22649 0.43006 0.03317 0.0
C5730 C 0.22008 0.46289 0.03365 0.0
C5731 C 0.20013 0.45319 0.0314 0.0
C5732 C 0.19344 0.43184 0.03017 0.0
C5733 C 0.20667 0.42055 0.03114 0.0
C5734 C 0.22782 0.48563 0.03505 0.0
C5735 C 0.1723 0.42091 0.02769 0.0
C5736 C 0.16655 0.48425 0.04428 0.0
C5737 C 0.16161 0.49022 0.027 0.0
C5738 C 0.1789 0.47201 0.04591 0.0
C5739 C 0.18634 0.46543 0.02987 0.0
C5740 C 0.18105 0.47105 0.01235 0.0
C5741 C 0.16882 0.48341 0.01115 0.0
C5742 C 0.1843 0.46649 0.06486 0.0
C5743 C 0.18846 0.46417 0.99487 0.0
H5744 H 0.24822 0.45879 0.03568 0.0
H5745 H 0.20145 0.40422 0.03044 0.0
H5746 H 0.22357 0.49152 0.0221 0.0
H5747 H 0.2216 0.49228 0.04655 0.0
H5748 H 0.24368 0.49087 0.03744 0.0
H5749 H 0.1694 0.40425 0.02708 0.0
H5750 H 0.16492 0.42572 0.03929 0.0
H5751 H 0.16593 0.42489 0.01473 0.0
H5752 H 0.16115 0.48958 0.0566 0.0
H5753 H 0.16483 0.48771 0.99772 0.0
H5754 H 0.19997 0.47279 0.0682 0.0
H5755 H 0.18085 0.44985 0.065 0.0
H5756 H 0.17681 0.47225 0.07588 0.0
H5757 H 0.2043 0.47014 0.99566 0.0
H5758 H 0.18246 0.46926 0.98227 0.0
H5759 H 0.18485 0.44746 0.99343 0.0
C5760 C 0.84754 0.93053 0.26634 0.0
C5761 C 0.85997 0.93339 0.25205 0.0
C5762 C 0.83636 0.91119 0.26963 0.0
C5763 C 0.83717 0.89441 0.25795 0.0
C5764 C 0.84831 0.89736 0.24251 0.0
C5765 C 0.85982 0.91677 0.2399 0.0
C5766 C 0.82485 0.90861 0.28639 0.0
C5767 C 0.8491 0.87983 0.22944 0.0
C5768 C 0.83287 0.8443 0.2776 0.0
C5769 C 0.81406 0.83342 0.27153 0.0
C5770 C 0.84024 0.86447 0.2739 0.0
C5771 C 0.82867 0.87368 0.2633 0.0
C5772 C 0.80951 0.8628 0.25732 0.0
C5773 C 0.8023 0.84277 0.26178 0.0
C5774 C 0.86057 0.87575 0.281 0.0
C5775 C 0.79699 0.87198 0.24554 0.0
H5776 H 0.84703 0.94334 0.27545 0.0
H5777 H 0.86938 0.91865 0.22887 0.0
H5778 H 0.81015 0.89856 0.2827 0.0
H5779 H 0.8317 0.90138 0.29694 0.0
H5780 H 0.82389 0.92326 0.29274 0.0
H5781 H 0.85581 0.88494 0.21656 0.0
H5782 H 0.85759 0.871 0.23638 0.0
H5783 H 0.8345 0.86955 0.22563 0.0
H5784 H 0.84184 0.83698 0.28527 0.0
H5785 H 0.78778 0.83414 0.25696 0.0
H5786 H 0.86097 0.89024 0.28868 0.0
H5787 H 0.86956 0.8794 0.26918 0.0
H5788 H 0.86704 0.86689 0.2903 0.0
H5789 H 0.79691 0.88687 0.25202 0.0
H5790 H 0.782 0.86211 0.24329 0.0
H5791 H 0.80287 0.87456 0.23185 0.0
C5792 C 0.69396 0.12582 0.75185 0.0
C5793 C 0.70204 0.10987 0.75371 0.0
C5794 C 0.70522 0.14597 0.75503 0.0
C5795 C 0.72505 0.15029 0.76012 0.0
C5796 C 0.7333 0.13428 0.7621 0.0
C5797 C 0.72168 0.11426 0.75892 0.0
C5798 C 0.69592 0.16266 0.7528 0.0
C5799 C 0.75441 0.1383 0.7675 0.0
C5800 C 0.75687 0.20171 0.75053 0.0
C5801 C 0.75962 0.2123 0.76806 0.0
C5802 C 0.74583 0.18145 0.74781 0.0
C5803 C 0.73724 0.17157 0.76297 0.0
C5804 C 0.74008 0.1821 0.78073 0.0
C5805 C 0.75129 0.20234 0.78309 0.0
C5806 C 0.74323 0.17067 0.72868 0.0
C5807 C 0.73108 0.17206 0.7972 0.0
H5808 H 0.67884 0.12255 0.74762 0.0
H5809 H 0.72797 0.10202 0.76069 0.0
H5810 H 0.69853 0.17271 0.76578 0.0
H5811 H 0.70238 0.17204 0.74168 0.0
H5812 H 0.68022 0.15677 0.74928 0.0
H5813 H 0.75856 0.12416 0.7686 0.0
H5814 H 0.76293 0.14719 0.7571 0.0
H5815 H 0.7583 0.14744 0.78101 0.0
H5816 H 0.76331 0.20925 0.73886 0.0
H5817 H 0.75331 0.21042 0.79667 0.0
H5818 H 0.72783 0.16562 0.72378 0.0
H5819 H 0.7482 0.15697 0.72911 0.0
H5820 H 0.75121 0.18038 0.71845 0.0
H5821 H 0.71526 0.16714 0.79456 0.0
H5822 H 0.73494 0.18224 0.81015 0.0
H5823 H 0.73565 0.15835 0.79933 0.0
loop_
_geom_bond_atom_site_label_1
_geom_bond_atom_site_label_2
_geom_bond_distance
_geom_bond_site_symmetry_2
_ccdc_geom_bond_type
Li0 N17 1.990 1_455 S
Li0 O60 1.956 . S
Li0 O61 1.970 . S
Li0 O62 1.961 . S
Li1 N25 1.990 . S
Li1 O60 1.970 . S
Li1 O61 1.956 . S
Li1 O63 1.961 . S
Li2 N47 1.990 . S
Li2 O60 1.961 . S
Li2 O62 1.956 . S
Li2 O63 1.970 . S
Li3 N53 1.990 . S
Li3 O61 1.961 . S
Li3 O62 1.970 . S
Li3 O63 1.956 . S
C4 C6 1.348 . S
C4 C7 1.356 . S
C4 O60 1.325 . S
N5 C8 1.314 . S
N5 C9 1.279 . S
C6 C4 1.348 . S
C6 C8 1.353 . S
C6 H64 0.929 . S
C7 C4 1.356 . S
C7 C9 1.358 . S
C7 H65 0.930 . S
C8 N5 1.314 . S
C8 C6 1.353 . S
C8 H66 0.930 . S
C9 N5 1.279 . S
C9 C7 1.358 . S
C9 H67 0.930 . S
C10 C13 1.348 . S
C10 C14 1.356 . S
C10 O61 1.325 1_655 S
C11 N12 1.279 . S
C11 C14 1.358 . S
C11 H68 0.930 . S
N12 C11 1.279 . S
N12 C15 1.314 . S
C13 C10 1.348 . S
C13 C15 1.353 . S
C13 H69 0.929 . S
C14 C10 1.356 . S
C14 C11 1.358 . S
C14 H70 0.930 1_655 S
C15 N12 1.314 . S
C15 C13 1.353 . S
C15 H71 0.930 . S
C16 N17 1.314 . S
C16 C21 1.353 . S
C16 H22 0.930 . S
N17 Li0 1.990 1_655 S
N17 C16 1.314 . S
N17 C19 1.279 . S
C18 C19 1.358 . S
C18 C20 1.356 . S
C18 H72 0.930 . S
C19 N17 1.279 . S
C19 C18 1.358 . S
C19 H23 0.930 . S
C20 C18 1.356 . S
C20 C21 1.348 . S
C21 C16 1.353 . S
C21 C20 1.348 . S
C21 H73 0.929 . S
H22 C16 0.930 . S
H23 C19 0.930 . S
C24 N25 1.314 . S
C24 C26 1.353 . S
C24 H30 0.930 . S
N25 Li1 1.990 . S
N25 C24 1.314 . S
N25 C28 1.279 . S
C26 C24 1.353 . S
C26 C29 1.348 . S
C26 H74 0.929 . S
C27 C28 1.358 . S
C27 C29 1.356 . S
C27 H75 0.930 . S
C28 N25 1.279 . S
C28 C27 1.358 . S
C28 H31 0.930 . S
C29 C26 1.348 . S
C29 C27 1.356 . S
H30 C24 0.930 . S
H31 C28 0.930 . S
C32 C34 1.348 . S
C32 C35 1.356 . S
C32 O62 1.325 . S
N33 C36 1.314 . S
N33 C37 1.279 . S
C34 C32 1.348 . S
C34 C36 1.353 . S
C34 H76 0.929 . S
C35 C32 1.356 . S
C35 C37 1.358 . S
C35 H77 0.930 . S
C36 N33 1.314 . S
C36 C34 1.353 . S
C36 H78 0.930 . S
C37 N33 1.279 . S
C37 C35 1.358 . S
C37 H79 0.930 . S
C38 C39 1.348 . S
C38 C40 1.356 . S
C38 O63 1.325 . S
C39 C38 1.348 . S
C39 C41 1.353 . S
C39 H80 0.929 . S
C40 C38 1.356 . S
C40 C42 1.358 . S
C40 H81 0.930 . S
C41 C39 1.353 . S
C41 N43 1.314 . S
C41 H82 0.930 . S
C42 C40 1.358 . S
C42 N43 1.279 . S
C42 H83 0.930 . S
N43 C41 1.314 . S
N43 C42 1.279 . S
C44 C46 1.353 . S
C44 N47 1.314 . S
C44 H50 0.930 . S
C45 N47 1.279 . S
C45 C48 1.358 . S
C45 H51 0.930 . S
C46 C44 1.353 . S
C46 C49 1.348 . S
C46 H84 0.929 . S
N47 Li2 1.990 . S
N47 C44 1.314 . S
N47 C45 1.279 . S
C48 C45 1.358 . S
C48 C49 1.356 . S
C48 H85 0.930 . S
C49 C46 1.348 . S
C49 C48 1.356 . S
H50 C44 0.930 . S
H51 C45 0.930 . S
C52 N53 1.314 . S
C52 C54 1.353 . S
C52 H58 0.952 . S
N53 Li3 1.990 . S
N53 C52 1.314 . S
N53 C56 1.279 . S
C54 C52 1.353 . S
C54 C57 1.348 . S
C54 H86 0.929 1_455 S
C55 C56 1.358 . S
C55 C57 1.356 . S
C55 H87 0.930 . S
C56 N53 1.279 . S
C56 C55 1.358 . S
C56 H59 0.930 . S
C57 C54 1.348 . S
C57 C55 1.356 . S
H58 C52 0.952 . S
H59 C56 0.930 . S
O60 Li0 1.956 . S
O60 Li1 1.970 . S
O60 Li2 1.961 . S
O60 C4 1.325 . S
O61 Li0 1.970 . S
O61 Li1 1.956 . S
O61 Li3 1.961 . S
O61 C10 1.325 1_455 S
O62 Li0 1.961 . S
O62 Li2 1.956 . S
O62 Li3 1.970 . S
O62 C32 1.325 . S
O63 Li1 1.961 . S
O63 Li2 1.970 . S
O63 Li3 1.956 . S
O63 C38 1.325 . S
H64 C6 0.929 . S
H65 C7 0.930 . S
H66 C8 0.930 . S
H67 C9 0.930 . S
H68 C11 0.930 . S
H69 C13 0.929 . S
H70 C14 0.930 1_455 S
H71 C15 0.930 . S
H72 C18 0.930 . S
H73 C21 0.929 . S
H74 C26 0.929 . S
H75 C27 0.930 . S
H76 C34 0.929 . S
H77 C35 0.930 . S
H78 C36 0.930 . S
H79 C37 0.930 . S
H80 C39 0.929 . S
H81 C40 0.930 . S
H82 C41 0.930 . S
H83 C42 0.930 . S
H84 C46 0.929 . S
H85 C48 0.930 . S
H86 C54 0.929 1_655 S
H87 C55 0.930 . S
Li88 N105 1.990 . S
Li88 O148 1.956 . S
Li88 O149 1.970 . S
Li88 O150 1.961 . S
Li89 N113 1.990 . S
Li89 O148 1.970 . S
Li89 O149 1.956 . S
Li89 O151 1.961 . S
Li90 N135 1.990 . S
Li90 O148 1.961 . S
Li90 O150 1.956 . S
Li90 O151 1.970 . S
Li91 N141 2.031 . S
Li91 O149 1.961 . S
Li91 O150 1.970 . S
Li91 O151 1.956 . S
C92 C94 1.348 . S
C92 C95 1.356 . S
C92 O148 1.325 . S
N93 C96 1.314 . S
N93 C97 1.279 . S
C94 C92 1.348 . S
C94 C96 1.353 . S
C94 H152 0.929 . S
C95 C92 1.356 . S
C95 C97 1.358 . S
C95 H153 0.930 . S
C96 N93 1.314 . S
C96 C94 1.353 . S
C96 H154 0.930 . S
C97 N93 1.279 . S
C97 C95 1.358 . S
C97 H155 0.930 . S
C98 C101 1.348 . S
C98 C102 1.356 . S
C98 O149 1.325 . S
C99 N100 1.279 . S
C99 C102 1.358 . S
C99 H156 0.930 . S
N100 C99 1.279 . S
N100 C103 1.314 . S
C101 C98 1.348 . S
C101 C103 1.353 . S
C101 H157 0.929 . S
C102 C98 1.356 . S
C102 C99 1.358 . S
C102 H158 0.930 . S
C103 N100 1.314 . S
C103 C101 1.353 . S
C103 H159 0.930 . S
C104 N105 1.314 . S
C104 C109 1.353 . S
C104 H110 0.930 . S
N105 Li88 1.990 . S
N105 C104 1.314 . S
N105 C107 1.279 . S
C106 C107 1.358 . S
C106 C108 1.356 . S
C106 H160 0.930 . S
C107 N105 1.279 . S
C107 C106 1.358 . S
C107 H111 0.930 . S
C108 C106 1.356 . S
C108 C109 1.348 . S
C109 C104 1.353 . S
C109 C108 1.348 . S
C109 H161 0.929 . S
H110 C104 0.930 . S
H111 C107 0.930 . S
C112 N113 1.314 . S
C112 C114 1.353 . S
C112 H118 0.930 . S
N113 Li89 1.990 . S
N113 C112 1.314 . S
N113 C116 1.279 . S
C114 C112 1.353 . S
C114 C117 1.348 . S
C114 H162 0.929 . S
C115 C116 1.358 . S
C115 C117 1.356 . S
C115 H163 0.930 . S
C116 N113 1.279 . S
C116 C115 1.358 . S
C116 H119 0.930 . S
C117 C114 1.348 . S
C117 C115 1.356 . S
H118 C112 0.930 . S
H119 C116 0.930 . S
C120 C122 1.348 1_455 S
C120 C123 1.356 . S
C120 O150 1.325 . S
N121 C124 1.314 . S
N121 C125 1.279 . S
C122 C120 1.348 1_655 S
C122 C124 1.353 . S
C122 H164 0.929 . S
C123 C120 1.356 . S
C123 C125 1.358 1_455 S
C123 H165 0.930 . S
C124 N121 1.314 . S
C124 C122 1.353 . S
C124 H166 0.930 . S
C125 N121 1.279 . S
C125 C123 1.358 1_655 S
C125 H167 0.930 . S
C126 C127 1.348 . S
C126 C128 1.356 . S
C126 O151 1.325 . S
C127 C126 1.348 . S
C127 C129 1.353 . S
C127 H168 0.929 . S
C128 C126 1.356 . S
C128 C130 1.358 . S
C128 H169 0.930 . S
C129 C127 1.353 . S
C129 N131 1.314 . S
C129 H170 0.930 . S
C130 C128 1.358 . S
C130 N131 1.279 . S
C130 H171 0.930 . S
N131 C129 1.314 . S
N131 C130 1.279 . S
C132 C134 1.353 . S
C132 N135 1.314 . S
C132 H138 0.930 . S
C133 N135 1.279 . S
C133 C136 1.358 . S
C133 H139 0.930 . S
C134 C132 1.353 . S
C134 C137 1.348 . S
C134 H172 0.929 . S
N135 Li90 1.990 . S
N135 C132 1.314 . S
N135 C133 1.279 . S
C136 C133 1.358 . S
C136 C137 1.356 . S
C136 H173 0.950 . S
C137 C134 1.348 . S
C137 C136 1.356 . S
H138 C132 0.930 . S
H139 C133 0.930 . S
C140 N141 1.279 1_655 S
C140 C142 1.353 . S
C140 H146 0.930 . S
N141 Li91 2.031 . S
N141 C140 1.279 1_455 S
N141 C144 1.267 1_455 S
C142 C140 1.353 . S
C142 C145 1.348 . S
C142 H174 0.929 . S
C143 C144 1.358 . S
C143 C145 1.356 . S
C143 H175 0.930 . S
C144 N141 1.267 1_655 S
C144 C143 1.358 . S
C144 H147 0.930 . S
C145 C142 1.348 . S
C145 C143 1.356 . S
H146 C140 0.930 . S
H147 C144 0.930 . S
O148 Li88 1.956 . S
O148 Li89 1.970 . S
O148 Li90 1.961 . S
O148 C92 1.325 . S
O149 Li88 1.970 . S
O149 Li89 1.956 . S
O149 Li91 1.961 . S
O149 C98 1.325 . S
O150 Li88 1.961 . S
O150 Li90 1.956 . S
O150 Li91 1.970 . S
O150 C120 1.325 . S
O151 Li89 1.961 . S
O151 Li90 1.970 . S
O151 Li91 1.956 . S
O151 C126 1.325 . S
H152 C94 0.929 . S
H153 C95 0.930 . S
H154 C96 0.930 . S
H155 C97 0.930 . S
H156 C99 0.930 . S
H157 C101 0.929 . S
H158 C102 0.930 . S
H159 C103 0.930 . S
H160 C106 0.930 . S
H161 C109 0.929 . S
H162 C114 0.929 . S
H163 C115 0.930 . S
H164 C122 0.929 . S
H165 C123 0.930 . S
H166 C124 0.930 . S
H167 C125 0.930 . S
H168 C127 0.929 . S
H169 C128 0.930 . S
H170 C129 0.930 . S
H171 C130 0.930 . S
H172 C134 0.929 . S
H173 C136 0.950 . S
H174 C142 0.929 . S
H175 C143 0.930 . S
Li176 N193 1.990 . S
Li176 O236 1.956 . S
Li176 O237 1.970 . S
Li176 O238 1.961 . S
Li177 N201 1.990 . S
Li177 O236 1.970 . S
Li177 O237 1.956 . S
Li177 O239 1.961 . S
Li178 N223 1.990 . S
Li178 O236 1.961 . S
Li178 O238 1.956 . S
Li178 O239 1.970 . S
Li179 N229 1.990 . S
Li179 O237 1.961 . S
Li179 O238 1.970 . S
Li179 O239 1.956 . S
C180 C182 1.348 . S
C180 C183 1.356 . S
C180 O236 1.325 . S
N181 C184 1.314 . S
N181 C185 1.279 . S
C182 C180 1.348 . S
C182 C184 1.353 . S
C182 H240 0.929 . S
C183 C180 1.356 . S
C183 C185 1.358 . S
C183 H241 0.930 . S
C184 N181 1.314 . S
C184 C182 1.353 . S
C184 H242 0.930 . S
C185 N181 1.279 . S
C185 C183 1.358 . S
C185 H243 0.930 . S
C186 C189 1.348 . S
C186 C190 1.356 . S
C186 O237 1.325 . S
C187 N188 1.279 . S
C187 C190 1.358 . S
C187 H244 0.930 . S
N188 C187 1.279 . S
N188 C191 1.314 . S
C189 C186 1.348 . S
C189 C191 1.353 . S
C189 H245 0.929 . S
C190 C186 1.356 . S
C190 C187 1.358 . S
C190 H246 0.930 . S
C191 N188 1.314 . S
C191 C189 1.353 . S
C191 H247 0.930 . S
C192 N193 1.314 . S
C192 C197 1.353 . S
C192 H198 0.930 . S
N193 Li176 1.990 . S
N193 C192 1.314 . S
N193 C195 1.279 . S
C194 C195 1.358 . S
C194 C196 1.356 . S
C194 H248 0.930 . S
C195 N193 1.279 . S
C195 C194 1.358 . S
C195 H199 0.930 . S
C196 C194 1.356 . S
C196 C197 1.348 . S
C197 C192 1.353 . S
C197 C196 1.348 . S
C197 H249 0.929 . S
H198 C192 0.930 . S
H199 C195 0.930 . S
C200 N201 1.314 . S
C200 C202 1.353 . S
C200 H206 0.930 . S
N201 Li177 1.990 . S
N201 C200 1.314 . S
N201 C204 1.279 . S
C202 C200 1.353 . S
C202 C205 1.348 . S
C202 H250 0.929 . S
C203 C204 1.358 . S
C203 C205 1.356 . S
C203 H251 0.930 . S
C204 N201 1.279 . S
C204 C203 1.358 . S
C204 H207 0.930 . S
C205 C202 1.348 . S
C205 C203 1.356 . S
H206 C200 0.930 . S
H207 C204 0.930 . S
C208 C210 1.348 . S
C208 C211 1.356 . S
C208 O238 1.325 . S
N209 C212 1.314 . S
N209 C213 1.279 . S
C210 C208 1.348 . S
C210 C212 1.353 . S
C210 H252 0.929 . S
C211 C208 1.356 . S
C211 C213 1.358 . S
C211 H253 0.930 . S
C212 N209 1.314 . S
C212 C210 1.353 . S
C212 H254 0.930 . S
C213 N209 1.279 . S
C213 C211 1.358 . S
C213 H255 0.930 . S
C214 C215 1.348 . S
C214 C216 1.356 . S
C214 O239 1.325 . S
C215 C214 1.348 . S
C215 C217 1.353 . S
C215 H256 0.929 . S
C216 C214 1.356 . S
C216 C218 1.358 . S
C216 H257 0.930 . S
C217 C215 1.353 . S
C217 N219 1.314 . S
C217 H258 0.930 . S
C218 C216 1.358 . S
C218 N219 1.279 . S
C218 H259 0.930 . S
N219 C217 1.314 . S
N219 C218 1.279 . S
C220 C222 1.353 . S
C220 N223 1.314 . S
C220 H226 0.930 . S
C221 N223 1.279 . S
C221 C224 1.358 . S
C221 H227 0.930 . S
C222 C220 1.353 . S
C222 C225 1.348 . S
C222 H260 0.929 . S
N223 Li178 1.990 . S
N223 C220 1.314 . S
N223 C221 1.279 . S
C224 C221 1.358 . S
C224 C225 1.356 . S
C224 H261 0.930 . S
C225 C222 1.348 . S
C225 C224 1.356 . S
H226 C220 0.930 . S
H227 C221 0.930 . S
C228 N229 1.314 . S
C228 C230 1.353 . S
C228 H234 0.930 . S
N229 Li179 1.990 . S
N229 C228 1.314 . S
N229 C232 1.279 . S
C230 C228 1.353 . S
C230 C233 1.348 . S
C230 H262 0.929 . S
C231 C232 1.358 . S
C231 C233 1.356 . S
C231 H263 0.930 . S
C232 N229 1.279 . S
C232 C231 1.358 . S
C232 H235 0.930 . S
C233 C230 1.348 . S
C233 C231 1.356 . S
H234 C228 0.930 . S
H235 C232 0.930 . S
O236 Li176 1.956 . S
O236 Li177 1.970 . S
O236 Li178 1.961 . S
O236 C180 1.325 . S
O237 Li176 1.970 . S
O237 Li177 1.956 . S
O237 Li179 1.961 . S
O237 C186 1.325 . S
O238 Li176 1.961 . S
O238 Li178 1.956 . S
O238 Li179 1.970 . S
O238 C208 1.325 . S
O239 Li177 1.961 . S
O239 Li178 1.970 . S
O239 Li179 1.956 . S
O239 C214 1.325 . S
H240 C182 0.929 . S
H241 C183 0.930 . S
H242 C184 0.930 . S
H243 C185 0.930 . S
H244 C187 0.930 . S
H245 C189 0.929 . S
H246 C190 0.930 . S
H247 C191 0.930 . S
H248 C194 0.930 . S
H249 C197 0.929 . S
H250 C202 0.929 . S
H251 C203 0.930 . S
H252 C210 0.929 . S
H253 C211 0.930 . S
H254 C212 0.930 . S
H255 C213 0.930 . S
H256 C215 0.929 . S
H257 C216 0.930 . S
H258 C217 0.930 . S
H259 C218 0.930 . S
H260 C222 0.929 . S
H261 C224 0.930 . S
H262 C230 0.929 . S
H263 C231 0.930 . S
Li264 N281 1.990 . S
Li264 O324 1.956 . S
Li264 O325 1.970 . S
Li264 O326 1.961 . S
Li265 N289 1.990 . S
Li265 O324 1.970 . S
Li265 O325 1.956 . S
Li265 O327 1.961 . S
Li266 N311 1.990 . S
Li266 O324 1.961 . S
Li266 O326 1.956 . S
Li266 O327 1.970 . S
Li267 N317 1.990 . S
Li267 O325 1.961 . S
Li267 O326 1.970 . S
Li267 O327 1.956 . S
C268 C270 1.348 . S
C268 C271 1.356 . S
C268 O324 1.325 . S
N269 C272 1.314 . S
N269 C273 1.279 . S
C270 C268 1.348 . S
C270 C272 1.353 . S
C270 H328 0.929 . S
C271 C268 1.356 . S
C271 C273 1.358 . S
C271 H329 0.930 . S
C272 N269 1.314 . S
C272 C270 1.353 . S
C272 H330 0.930 . S
C273 N269 1.279 . S
C273 C271 1.358 . S
C273 H331 0.930 . S
C274 C277 1.348 . S
C274 C278 1.356 . S
C274 O325 1.325 . S
C275 N276 1.279 . S
C275 C278 1.358 . S
C275 H332 0.930 . S
N276 C275 1.279 . S
N276 C279 1.314 . S
C277 C274 1.348 . S
C277 C279 1.353 . S
C277 H333 0.929 . S
C278 C274 1.356 . S
C278 C275 1.358 . S
C278 H334 0.930 . S
C279 N276 1.314 . S
C279 C277 1.353 . S
C279 H335 0.930 . S
C280 N281 1.314 . S
C280 C285 1.353 . S
C280 H286 0.930 . S
N281 Li264 1.990 . S
N281 C280 1.314 . S
N281 C283 1.279 . S
C282 C283 1.358 . S
C282 C284 1.356 . S
C282 H336 0.930 . S
C283 N281 1.279 . S
C283 C282 1.358 . S
C283 H287 0.930 . S
C284 C282 1.356 . S
C284 C285 1.348 . S
C285 C280 1.353 . S
C285 C284 1.348 . S
C285 H337 0.929 . S
H286 C280 0.930 . S
H287 C283 0.930 . S
C288 N289 1.314 . S
C288 C290 1.353 . S
C288 H294 0.930 . S
N289 Li265 1.990 . S
N289 C288 1.314 . S
N289 C292 1.279 . S
C290 C288 1.353 . S
C290 C293 1.348 . S
C290 H338 0.929 . S
C291 C292 1.358 . S
C291 C293 1.356 . S
C291 H339 0.930 . S
C292 N289 1.279 . S
C292 C291 1.358 . S
C292 H295 0.930 . S
C293 C290 1.348 . S
C293 C291 1.356 . S
H294 C288 0.930 . S
H295 C292 0.930 . S
C296 C298 1.348 . S
C296 C299 1.356 . S
C296 O326 1.325 . S
N297 C300 1.314 . S
N297 C301 1.279 . S
C298 C296 1.348 . S
C298 C300 1.353 . S
C298 H340 0.929 . S
C299 C296 1.356 . S
C299 C301 1.358 . S
C299 H341 0.930 . S
C300 N297 1.314 . S
C300 C298 1.353 . S
C300 H342 0.930 . S
C301 N297 1.279 . S
C301 C299 1.358 . S
C301 H343 0.930 . S
C302 C303 1.348 . S
C302 C304 1.356 . S
C302 O327 1.325 . S
C303 C302 1.348 . S
C303 C305 1.353 . S
C303 H344 0.929 . S
C304 C302 1.356 . S
C304 C306 1.358 . S
C304 H345 0.930 . S
C305 C303 1.353 . S
C305 N307 1.314 . S
C305 H346 0.930 . S
C306 C304 1.358 . S
C306 N307 1.279 . S
C306 H347 0.930 . S
N307 C305 1.314 . S
N307 C306 1.279 . S
C308 C310 1.353 . S
C308 N311 1.314 . S
C308 H314 0.930 . S
C309 N311 1.279 . S
C309 C312 1.358 . S
C309 H315 0.930 . S
C310 C308 1.353 . S
C310 C313 1.348 . S
C310 H348 0.929 . S
N311 Li266 1.990 . S
N311 C308 1.314 . S
N311 C309 1.279 . S
C312 C309 1.358 . S
C312 C313 1.356 . S
C312 H349 0.930 . S
C313 C310 1.348 . S
C313 C312 1.356 . S
H314 C308 0.930 . S
H315 C309 0.930 . S
C316 N317 1.314 . S
C316 C318 1.353 . S
C316 H322 0.930 . S
N317 Li267 1.990 . S
N317 C316 1.314 . S
N317 C320 1.279 . S
C318 C316 1.353 . S
C318 C321 1.348 . S
C318 H350 0.929 . S
C319 C320 1.358 . S
C319 C321 1.356 . S
C319 H351 0.930 . S
C320 N317 1.279 . S
C320 C319 1.358 . S
C320 H323 0.930 . S
C321 C318 1.348 . S
C321 C319 1.356 . S
H322 C316 0.930 . S
H323 C320 0.930 . S
O324 Li264 1.956 . S
O324 Li265 1.970 . S
O324 Li266 1.961 . S
O324 C268 1.325 . S
O325 Li264 1.970 . S
O325 Li265 1.956 . S
O325 Li267 1.961 . S
O325 C274 1.325 . S
O326 Li264 1.961 . S
O326 Li266 1.956 . S
O326 Li267 1.970 . S
O326 C296 1.325 . S
O327 Li265 1.961 . S
O327 Li266 1.970 . S
O327 Li267 1.956 . S
O327 C302 1.325 . S
H328 C270 0.929 . S
H329 C271 0.930 . S
H330 C272 0.930 . S
H331 C273 0.930 . S
H332 C275 0.930 . S
H333 C277 0.929 . S
H334 C278 0.930 . S
H335 C279 0.930 . S
H336 C282 0.930 . S
H337 C285 0.929 . S
H338 C290 0.929 . S
H339 C291 0.930 . S
H340 C298 0.929 . S
H341 C299 0.930 . S
H342 C300 0.930 . S
H343 C301 0.930 . S
H344 C303 0.929 . S
H345 C304 0.930 . S
H346 C305 0.930 . S
H347 C306 0.930 . S
H348 C310 0.929 . S
H349 C312 0.930 . S
H350 C318 0.929 . S
H351 C319 0.930 . S
Li352 N369 1.990 . S
Li352 O412 1.956 . S
Li352 O413 1.970 . S
Li352 O414 1.961 . S
Li353 N377 1.990 . S
Li353 O412 1.970 . S
Li353 O413 1.956 . S
Li353 O415 1.961 . S
Li354 N399 1.990 . S
Li354 O412 1.961 . S
Li354 O414 1.956 . S
Li354 O415 1.970 . S
Li355 N405 1.990 . S
Li355 O413 1.961 . S
Li355 O414 1.970 . S
Li355 O415 1.956 . S
C356 C358 1.348 . S
C356 C359 1.356 . S
C356 O412 1.325 . S
N357 C360 1.314 . S
N357 C361 1.279 . S
C358 C356 1.348 . S
C358 C360 1.353 . S
C358 H416 0.929 . S
C359 C356 1.356 . S
C359 C361 1.358 . S
C359 H417 0.930 . S
C360 N357 1.314 . S
C360 C358 1.353 . S
C360 H418 0.930 . S
C361 N357 1.279 . S
C361 C359 1.358 . S
C361 H419 0.930 . S
C362 C365 1.348 . S
C362 C366 1.356 . S
C362 O413 1.325 . S
C363 N364 1.279 . S
C363 C366 1.358 . S
C363 H420 0.930 . S
N364 C363 1.279 . S
N364 C367 1.314 . S
C365 C362 1.348 . S
C365 C367 1.353 . S
C365 H421 0.929 . S
C366 C362 1.356 . S
C366 C363 1.358 . S
C366 H422 0.930 . S
C367 N364 1.314 . S
C367 C365 1.353 . S
C367 H423 0.930 . S
C368 N369 1.314 . S
C368 C373 1.353 . S
C368 H374 0.930 . S
N369 Li352 1.990 . S
N369 C368 1.314 . S
N369 C371 1.279 . S
C370 C371 1.358 . S
C370 C372 1.356 . S
C370 H424 0.930 . S
C371 N369 1.279 . S
C371 C370 1.358 . S
C371 H375 0.930 . S
C372 C370 1.356 . S
C372 C373 1.348 . S
C373 C368 1.353 . S
C373 C372 1.348 . S
C373 H425 0.929 . S
H374 C368 0.930 . S
H375 C371 0.930 . S
C376 N377 1.314 . S
C376 C378 1.353 . S
C376 H382 0.930 . S
N377 Li353 1.990 . S
N377 C376 1.314 . S
N377 C380 1.279 . S
C378 C376 1.353 . S
C378 C381 1.348 . S
C378 H426 0.929 . S
C379 C380 1.358 . S
C379 C381 1.356 . S
C379 H427 0.930 . S
C380 N377 1.279 . S
C380 C379 1.358 . S
C380 H383 0.930 . S
C381 C378 1.348 . S
C381 C379 1.356 . S
H382 C376 0.930 . S
H383 C380 0.930 . S
C384 C386 1.348 . S
C384 C387 1.356 . S
C384 O414 1.325 . S
N385 C388 1.314 . S
N385 C389 1.279 . S
C386 C384 1.348 . S
C386 C388 1.353 . S
C386 H428 0.929 . S
C387 C384 1.356 . S
C387 C389 1.358 . S
C387 H429 0.930 . S
C388 N385 1.314 . S
C388 C386 1.353 . S
C388 H430 0.930 1_455 S
C389 N385 1.279 . S
C389 C387 1.358 . S
C389 H431 0.930 . S
C390 C391 1.348 . S
C390 C392 1.356 . S
C390 O415 1.325 . S
C391 C390 1.348 . S
C391 C393 1.353 . S
C391 H432 0.929 . S
C392 C390 1.356 . S
C392 C394 1.358 . S
C392 H433 0.930 . S
C393 C391 1.353 . S
C393 N395 1.314 . S
C393 H434 0.930 . S
C394 C392 1.358 . S
C394 N395 1.279 . S
C394 H435 0.930 . S
N395 C393 1.314 . S
N395 C394 1.279 . S
C396 C398 1.353 . S
C396 N399 1.314 . S
C396 H402 0.930 . S
C397 N399 1.279 . S
C397 C400 1.358 . S
C397 H403 0.930 . S
C398 C396 1.353 . S
C398 C401 1.348 . S
C398 H436 0.929 . S
N399 Li354 1.990 . S
N399 C396 1.314 . S
N399 C397 1.279 . S
C400 C397 1.358 . S
C400 C401 1.356 . S
C400 H437 0.930 . S
C401 C398 1.348 . S
C401 C400 1.356 . S
H402 C396 0.930 . S
H403 C397 0.930 . S
C404 N405 1.314 . S
C404 C406 1.353 . S
C404 H410 0.930 . S
N405 Li355 1.990 . S
N405 C404 1.314 . S
N405 C408 1.279 . S
C406 C404 1.353 . S
C406 C409 1.345 1_455 S
C406 H438 0.929 . S
C407 C408 1.358 . S
C407 C409 1.350 1_455 S
C407 H439 0.930 . S
C408 N405 1.279 . S
C408 C407 1.358 . S
C408 H411 0.930 . S
C409 C406 1.345 1_655 S
C409 C407 1.350 1_655 S
H410 C404 0.930 . S
H411 C408 0.930 . S
O412 Li352 1.956 . S
O412 Li353 1.970 . S
O412 Li354 1.961 . S
O412 C356 1.325 . S
O413 Li352 1.970 . S
O413 Li353 1.956 . S
O413 Li355 1.961 . S
O413 C362 1.325 . S
O414 Li352 1.961 . S
O414 Li354 1.956 . S
O414 Li355 1.970 . S
O414 C384 1.325 . S
O415 Li353 1.961 . S
O415 Li354 1.970 . S
O415 Li355 1.956 . S
O415 C390 1.325 . S
H416 C358 0.929 . S
H417 C359 0.930 . S
H418 C360 0.930 . S
H419 C361 0.930 . S
H420 C363 0.930 . S
H421 C365 0.929 . S
H422 C366 0.930 . S
H423 C367 0.930 . S
H424 C370 0.930 . S
H425 C373 0.929 . S
H426 C378 0.929 . S
H427 C379 0.930 . S
H428 C386 0.929 . S
H429 C387 0.930 . S
H430 C388 0.930 1_655 S
H431 C389 0.930 . S
H432 C391 0.929 . S
H433 C392 0.930 . S
H434 C393 0.930 . S
H435 C394 0.930 . S
H436 C398 0.929 . S
H437 C400 0.930 . S
H438 C406 0.929 . S
H439 C407 0.930 . S
Li440 N457 1.990 . S
Li440 O500 1.956 . S
Li440 O501 1.970 . S
Li440 O502 1.961 . S
Li441 N465 1.990 . S
Li441 O500 1.970 . S
Li441 O501 1.956 . S
Li441 O503 1.961 . S
Li442 N487 1.990 . S
Li442 O500 1.961 . S
Li442 O502 1.956 . S
Li442 O503 1.970 . S
Li443 N493 1.990 . S
Li443 O501 1.961 . S
Li443 O502 1.970 . S
Li443 O503 1.956 . S
C444 C446 1.348 . S
C444 C447 1.356 . S
C444 O500 1.325 . S
N445 C448 1.314 . S
N445 C449 1.279 . S
C446 C444 1.348 . S
C446 C448 1.353 . S
C446 H504 0.929 . S
C447 C444 1.356 . S
C447 C449 1.358 . S
C447 H505 0.930 . S
C448 N445 1.314 . S
C448 C446 1.353 . S
C448 H506 0.930 . S
C449 N445 1.279 . S
C449 C447 1.358 . S
C449 H507 0.930 . S
C450 C453 1.348 . S
C450 C454 1.356 . S
C450 O501 1.325 . S
C451 N452 1.279 . S
C451 C454 1.358 . S
C451 H508 0.930 . S
N452 C451 1.279 . S
N452 C455 1.314 . S
C453 C450 1.348 . S
C453 C455 1.353 . S
C453 H509 0.929 . S
C454 C450 1.356 . S
C454 C451 1.358 . S
C454 H510 0.930 . S
C455 N452 1.314 . S
C455 C453 1.353 . S
C455 H511 0.930 . S
C456 N457 1.314 . S
C456 C461 1.353 . S
C456 H462 0.930 . S
N457 Li440 1.990 . S
N457 C456 1.314 . S
N457 C459 1.279 . S
C458 C459 1.358 . S
C458 C460 1.356 . S
C458 H512 0.930 . S
C459 N457 1.279 . S
C459 C458 1.358 . S
C459 H463 0.930 . S
C460 C458 1.356 . S
C460 C461 1.348 . S
C461 C456 1.353 . S
C461 C460 1.348 . S
C461 H513 0.929 . S
H462 C456 0.930 . S
H463 C459 0.930 . S
C464 N465 1.314 . S
C464 C466 1.353 . S
C464 H470 0.930 . S
N465 Li441 1.990 . S
N465 C464 1.314 . S
N465 C468 1.279 . S
C466 C464 1.353 . S
C466 C469 1.348 . S
C466 H514 0.929 . S
C467 C468 1.358 . S
C467 C469 1.356 . S
C467 H515 0.930 . S
C468 N465 1.279 . S
C468 C467 1.358 . S
C468 H471 0.930 . S
C469 C466 1.348 . S
C469 C467 1.356 . S
H470 C464 0.930 . S
H471 C468 0.930 . S
C472 C474 1.348 . S
C472 C475 1.356 . S
C472 O502 1.325 . S
N473 C476 1.314 . S
N473 C477 1.279 . S
C474 C472 1.348 . S
C474 C476 1.353 . S
C474 H516 0.929 . S
C475 C472 1.356 . S
C475 C477 1.358 . S
C475 H517 0.930 . S
C476 N473 1.314 . S
C476 C474 1.353 . S
C476 H518 0.930 . S
C477 N473 1.279 . S
C477 C475 1.358 . S
C477 H519 0.930 . S
C478 C479 1.348 . S
C478 C480 1.356 . S
C478 O503 1.325 . S
C479 C478 1.348 . S
C479 C481 1.353 . S
C479 H520 0.929 . S
C480 C478 1.356 . S
C480 C482 1.358 . S
C480 H521 0.930 . S
C481 C479 1.353 . S
C481 N483 1.314 . S
C481 H522 0.930 . S
C482 C480 1.358 . S
C482 N483 1.279 . S
C482 H523 0.930 . S
N483 C481 1.314 . S
N483 C482 1.279 . S
C484 C486 1.353 . S
C484 N487 1.314 . S
C484 H490 0.930 . S
C485 N487 1.279 . S
C485 C488 1.358 . S
C485 H491 0.930 . S
C486 C484 1.353 . S
C486 C489 1.348 . S
C486 H524 0.929 . S
N487 Li442 1.990 . S
N487 C484 1.314 . S
N487 C485 1.279 . S
C488 C485 1.358 . S
C488 C489 1.356 . S
C488 H525 0.930 . S
C489 C486 1.348 . S
C489 C488 1.356 . S
H490 C484 0.930 . S
H491 C485 0.930 . S
C492 N493 1.314 . S
C492 C494 1.353 . S
C492 H498 0.930 . S
N493 Li443 1.990 . S
N493 C492 1.314 . S
N493 C496 1.279 . S
C494 C492 1.353 . S
C494 C497 1.348 . S
C494 H526 0.929 . S
C495 C496 1.358 . S
C495 C497 1.356 . S
C495 H527 0.930 . S
C496 N493 1.279 . S
C496 C495 1.358 . S
C496 H499 0.930 . S
C497 C494 1.348 . S
C497 C495 1.356 . S
H498 C492 0.930 . S
H499 C496 0.930 . S
O500 Li440 1.956 . S
O500 Li441 1.970 . S
O500 Li442 1.961 . S
O500 C444 1.325 . S
O501 Li440 1.970 . S
O501 Li441 1.956 . S
O501 Li443 1.961 . S
O501 C450 1.325 . S
O502 Li440 1.961 . S
O502 Li442 1.956 . S
O502 Li443 1.970 . S
O502 C472 1.325 . S
O503 Li441 1.961 . S
O503 Li442 1.970 . S
O503 Li443 1.956 . S
O503 C478 1.325 . S
H504 C446 0.929 . S
H505 C447 0.930 . S
H506 C448 0.930 . S
H507 C449 0.930 . S
H508 C451 0.930 . S
H509 C453 0.929 . S
H510 C454 0.930 . S
H511 C455 0.930 . S
H512 C458 0.930 . S
H513 C461 0.929 . S
H514 C466 0.929 . S
H515 C467 0.930 . S
H516 C474 0.929 . S
H517 C475 0.930 . S
H518 C476 0.930 . S
H519 C477 0.930 . S
H520 C479 0.929 . S
H521 C480 0.930 . S
H522 C481 0.930 . S
H523 C482 0.930 . S
H524 C486 0.929 . S
H525 C488 0.930 . S
H526 C494 0.929 . S
H527 C495 0.930 . S
Li528 N545 1.990 . S
Li528 O588 1.956 . S
Li528 O589 1.970 . S
Li528 O590 1.961 . S
Li529 N553 1.990 . S
Li529 O588 1.970 . S
Li529 O589 1.956 . S
Li529 O591 1.961 . S
Li530 N575 1.990 . S
Li530 O588 1.961 . S
Li530 O590 1.956 . S
Li530 O591 1.970 . S
Li531 N581 1.990 . S
Li531 O589 1.961 . S
Li531 O590 1.970 . S
Li531 O591 1.956 . S
C532 C534 1.348 . S
C532 C535 1.356 . S
C532 O588 1.325 . S
N533 C536 1.314 . S
N533 C537 1.279 . S
C534 C532 1.348 . S
C534 C536 1.353 . S
C534 H592 0.929 . S
C535 C532 1.356 . S
C535 C537 1.358 . S
C535 H593 0.930 . S
C536 N533 1.314 . S
C536 C534 1.353 . S
C536 H594 0.930 . S
C537 N533 1.279 . S
C537 C535 1.358 . S
C537 H595 0.930 . S
C538 C541 1.348 . S
C538 C542 1.356 . S
C538 O589 1.325 . S
C539 N540 1.279 . S
C539 C542 1.358 . S
C539 H596 0.930 . S
N540 C539 1.279 . S
N540 C543 1.314 . S
C541 C538 1.348 . S
C541 C543 1.353 . S
C541 H597 0.929 . S
C542 C538 1.356 . S
C542 C539 1.358 . S
C542 H598 0.930 . S
C543 N540 1.314 . S
C543 C541 1.353 . S
C543 H599 0.930 . S
C544 N545 1.314 . S
C544 C549 1.353 . S
C544 H550 0.930 . S
N545 Li528 1.990 . S
N545 C544 1.314 . S
N545 C547 1.279 . S
C546 C547 1.358 . S
C546 C548 1.356 . S
C546 H600 0.930 . S
C547 N545 1.279 . S
C547 C546 1.358 . S
C547 H551 0.930 . S
C548 C546 1.356 . S
C548 C549 1.348 . S
C549 C544 1.353 . S
C549 C548 1.348 . S
C549 H601 0.929 . S
H550 C544 0.930 . S
H551 C547 0.930 . S
C552 N553 1.314 . S
C552 C554 1.353 . S
C552 H558 0.930 . S
N553 Li529 1.990 . S
N553 C552 1.314 . S
N553 C556 1.279 . S
C554 C552 1.353 . S
C554 C557 1.348 . S
C554 H602 0.929 . S
C555 C556 1.358 . S
C555 C557 1.356 . S
C555 H603 0.930 . S
C556 N553 1.279 . S
C556 C555 1.358 . S
C556 H559 0.930 . S
C557 C554 1.348 . S
C557 C555 1.356 . S
H558 C552 0.930 . S
H559 C556 0.930 . S
C560 C562 1.348 . S
C560 C563 1.356 . S
C560 O590 1.325 . S
N561 C564 1.314 . S
N561 C565 1.279 . S
C562 C560 1.348 . S
C562 C564 1.353 . S
C562 H604 0.929 . S
C563 C560 1.356 . S
C563 C565 1.358 . S
C563 H605 0.930 . S
C564 N561 1.314 . S
C564 C562 1.353 . S
C564 H606 0.930 . S
C565 N561 1.279 . S
C565 C563 1.358 . S
C565 H607 0.930 . S
C566 C567 1.348 . S
C566 C568 1.356 . S
C566 O591 1.325 . S
C567 C566 1.348 . S
C567 C569 1.353 . S
C567 H608 0.929 . S
C568 C566 1.356 . S
C568 C570 1.358 . S
C568 H609 0.930 . S
C569 C567 1.353 . S
C569 N571 1.314 . S
C569 H610 0.930 . S
C570 C568 1.358 . S
C570 N571 1.279 . S
C570 H611 0.930 . S
N571 C569 1.314 . S
N571 C570 1.279 . S
C572 C574 1.353 . S
C572 N575 1.314 . S
C572 H578 0.930 . S
C573 N575 1.279 . S
C573 C576 1.358 . S
C573 H579 0.930 . S
C574 C572 1.353 . S
C574 C577 1.348 . S
C574 H612 0.929 . S
N575 Li530 1.990 . S
N575 C572 1.314 . S
N575 C573 1.279 . S
C576 C573 1.358 . S
C576 C577 1.356 . S
C576 H613 0.930 . S
C577 C574 1.348 . S
C577 C576 1.356 . S
H578 C572 0.930 . S
H579 C573 0.930 . S
C580 N581 1.314 . S
C580 C582 1.353 . S
C580 H586 0.930 . S
N581 Li531 1.990 . S
N581 C580 1.314 . S
N581 C584 1.279 . S
C582 C580 1.353 . S
C582 C585 1.348 . S
C582 H614 0.929 . S
C583 C584 1.358 . S
C583 C585 1.356 . S
C583 H615 0.930 . S
C584 N581 1.279 . S
C584 C583 1.358 . S
C584 H587 0.930 . S
C585 C582 1.348 . S
C585 C583 1.356 . S
H586 C580 0.930 . S
H587 C584 0.930 . S
O588 Li528 1.956 . S
O588 Li529 1.970 . S
O588 Li530 1.961 . S
O588 C532 1.325 . S
O589 Li528 1.970 . S
O589 Li529 1.956 . S
O589 Li531 1.961 . S
O589 C538 1.325 . S
O590 Li528 1.961 . S
O590 Li530 1.956 . S
O590 Li531 1.970 . S
O590 C560 1.325 . S
O591 Li529 1.961 . S
O591 Li530 1.970 . S
O591 Li531 1.956 . S
O591 C566 1.325 . S
H592 C534 0.929 . S
H593 C535 0.930 . S
H594 C536 0.930 . S
H595 C537 0.930 . S
H596 C539 0.930 . S
H597 C541 0.929 . S
H598 C542 0.930 . S
H599 C543 0.930 . S
H600 C546 0.930 . S
H601 C549 0.929 . S
H602 C554 0.929 . S
H603 C555 0.930 . S
H604 C562 0.929 . S
H605 C563 0.930 . S
H606 C564 0.930 . S
H607 C565 0.930 . S
H608 C567 0.929 . S
H609 C568 0.930 . S
H610 C569 0.930 . S
H611 C570 0.930 . S
H612 C574 0.929 . S
H613 C576 0.930 . S
H614 C582 0.929 . S
H615 C583 0.930 . S
Li616 N633 1.990 . S
Li616 O676 1.956 1_455 S
Li616 O677 1.970 . S
Li616 O678 1.961 . S
Li617 N641 1.990 . S
Li617 O676 1.970 . S
Li617 O677 1.956 1_655 S
Li617 O679 1.961 . S
Li618 N663 1.990 . S
Li618 O676 1.961 . S
Li618 O678 1.956 1_655 S
Li618 O679 1.970 . S
Li619 N669 1.990 . S
Li619 O677 1.961 . S
Li619 O678 1.970 . S
Li619 O679 1.956 1_455 S
C620 C622 1.348 . S
C620 C623 1.356 . S
C620 O676 1.325 . S
N621 C624 1.314 . S
N621 C625 1.279 . S
C622 C620 1.348 . S
C622 C624 1.353 . S
C622 H680 0.929 . S
C623 C620 1.356 . S
C623 C625 1.358 . S
C623 H681 0.930 . S
C624 N621 1.314 . S
C624 C622 1.353 . S
C624 H682 0.930 . S
C625 N621 1.279 . S
C625 C623 1.358 . S
C625 H683 0.930 . S
C626 C629 1.348 . S
C626 C630 1.356 . S
C626 O677 1.325 . S
C627 N628 1.279 . S
C627 C630 1.358 . S
C627 H684 0.930 . S
N628 C627 1.279 . S
N628 C631 1.314 . S
C629 C626 1.348 . S
C629 C631 1.353 . S
C629 H685 0.910 1_455 S
C630 C626 1.356 . S
C630 C627 1.358 . S
C630 H686 0.930 . S
C631 N628 1.314 . S
C631 C629 1.353 . S
C631 H687 0.930 . S
C632 N633 1.314 . S
C632 C637 1.353 . S
C632 H638 0.930 . S
N633 Li616 1.990 . S
N633 C632 1.314 . S
N633 C635 1.279 1_455 S
C634 C635 1.358 . S
C634 C636 1.356 1_655 S
C634 H688 0.930 . S
C635 N633 1.279 1_655 S
C635 C634 1.358 . S
C635 H639 0.930 . S
C636 C634 1.356 1_455 S
C636 C637 1.348 . S
C637 C632 1.353 . S
C637 C636 1.348 . S
C637 H689 0.929 . S
H638 C632 0.930 . S
H639 C635 0.930 . S
C640 N641 1.314 . S
C640 C642 1.353 . S
C640 H646 0.930 . S
N641 Li617 1.990 . S
N641 C640 1.314 . S
N641 C644 1.279 . S
C642 C640 1.353 . S
C642 C645 1.348 . S
C642 H690 0.929 . S
C643 C644 1.358 . S
C643 C645 1.356 . S
C643 H691 0.930 . S
C644 N641 1.279 . S
C644 C643 1.358 . S
C644 H647 0.930 . S
C645 C642 1.348 . S
C645 C643 1.356 . S
H646 C640 0.930 . S
H647 C644 0.930 . S
C648 C650 1.348 . S
C648 C651 1.356 . S
C648 O678 1.325 . S
N649 C652 1.314 . S
N649 C653 1.279 . S
C650 C648 1.348 . S
C650 C652 1.353 . S
C650 H692 0.929 . S
C651 C648 1.356 . S
C651 C653 1.358 . S
C651 H693 0.930 . S
C652 N649 1.314 . S
C652 C650 1.353 . S
C652 H694 0.930 . S
C653 N649 1.279 . S
C653 C651 1.358 . S
C653 H695 0.930 . S
C654 C655 1.348 . S
C654 C656 1.356 . S
C654 O679 1.325 . S
C655 C654 1.348 . S
C655 C657 1.353 . S
C655 H696 0.921 1_655 S
C656 C654 1.356 . S
C656 C658 1.358 . S
C656 H697 0.930 . S
C657 C655 1.353 . S
C657 N659 1.314 . S
C657 H698 0.930 . S
C658 C656 1.358 . S
C658 N659 1.279 . S
C658 H699 0.930 . S
N659 C657 1.314 . S
N659 C658 1.279 . S
C660 C662 1.353 . S
C660 N663 1.314 . S
C660 H666 0.930 . S
C661 N663 1.279 1_455 S
C661 C664 1.358 . S
C661 H667 0.930 . S
C662 C660 1.353 . S
C662 C665 1.348 . S
C662 H700 0.929 . S
N663 Li618 1.990 . S
N663 C660 1.314 . S
N663 C661 1.279 1_655 S
C664 C661 1.358 . S
C664 C665 1.356 1_455 S
C664 H701 0.930 . S
C665 C662 1.348 . S
C665 C664 1.356 1_655 S
H666 C660 0.930 . S
H667 C661 0.930 . S
C668 N669 1.314 . S
C668 C670 1.353 . S
C668 H674 0.930 . S
N669 Li619 1.990 . S
N669 C668 1.314 . S
N669 C672 1.279 . S
C670 C668 1.353 . S
C670 C673 1.348 . S
C670 H702 0.929 . S
C671 C672 1.358 . S
C671 C673 1.356 . S
C671 H703 0.930 . S
C672 N669 1.279 . S
C672 C671 1.358 . S
C672 H675 0.930 . S
C673 C670 1.348 . S
C673 C671 1.356 . S
H674 C668 0.930 . S
H675 C672 0.930 . S
O676 Li616 1.956 1_655 S
O676 Li617 1.970 . S
O676 Li618 1.961 . S
O676 C620 1.325 . S
O677 Li616 1.970 . S
O677 Li617 1.956 1_455 S
O677 Li619 1.961 . S
O677 C626 1.325 . S
O678 Li616 1.961 . S
O678 Li618 1.956 1_455 S
O678 Li619 1.970 . S
O678 C648 1.325 . S
O679 Li617 1.961 . S
O679 Li618 1.970 . S
O679 Li619 1.956 1_655 S
O679 C654 1.325 . S
H680 C622 0.929 . S
H681 C623 0.930 . S
H682 C624 0.930 . S
H683 C625 0.930 . S
H684 C627 0.930 . S
H685 C629 0.910 1_655 S
H686 C630 0.930 . S
H687 C631 0.930 . S
H688 C634 0.930 . S
H689 C637 0.929 . S
H690 C642 0.929 . S
H691 C643 0.930 . S
H692 C650 0.929 . S
H693 C651 0.930 . S
H694 C652 0.930 . S
H695 C653 0.930 . S
H696 C655 0.921 1_455 S
H697 C656 0.930 . S
H698 C657 0.930 . S
H699 C658 0.930 . S
H700 C662 0.929 . S
H701 C664 0.930 . S
H702 C670 0.929 . S
H703 C671 0.930 . S
Li704 N721 1.990 . S
Li704 O764 1.956 . S
Li704 O765 1.970 . S
Li704 O766 1.961 . S
Li705 N729 1.990 1_545 S
Li705 O764 1.970 . S
Li705 O765 1.956 . S
Li705 O767 1.961 . S
Li706 N751 1.990 . S
Li706 O764 1.961 . S
Li706 O766 1.956 . S
Li706 O767 1.970 . S
Li707 N757 1.990 . S
Li707 O765 1.961 . S
Li707 O766 1.970 . S
Li707 O767 1.956 . S
C708 C710 1.348 . S
C708 C711 1.356 . S
C708 O764 1.325 1_565 S
N709 C712 1.314 . S
N709 C713 1.279 . S
C710 C708 1.348 . S
C710 C712 1.353 . S
C710 H768 0.929 . S
C711 C708 1.356 . S
C711 C713 1.358 . S
C711 H769 0.930 1_565 S
C712 N709 1.314 . S
C712 C710 1.353 . S
C712 H770 0.930 . S
C713 N709 1.279 . S
C713 C711 1.358 . S
C713 H771 0.930 . S
C714 C717 1.348 . S
C714 C718 1.356 . S
C714 O765 1.325 . S
C715 N716 1.279 . S
C715 C718 1.358 . S
C715 H772 0.930 . S
N716 C715 1.279 . S
N716 C719 1.314 . S
C717 C714 1.348 . S
C717 C719 1.353 . S
C717 H773 0.929 . S
C718 C714 1.356 . S
C718 C715 1.358 . S
C718 H774 0.930 . S
C719 N716 1.314 . S
C719 C717 1.353 . S
C719 H775 0.930 . S
C720 N721 1.314 . S
C720 C725 1.353 . S
C720 H726 0.930 . S
N721 Li704 1.990 . S
N721 C720 1.314 . S
N721 C723 1.279 . S
C722 C723 1.358 . S
C722 C724 1.356 . S
C722 H776 0.930 . S
C723 N721 1.279 . S
C723 C722 1.358 . S
C723 H727 0.930 . S
C724 C722 1.356 . S
C724 C725 1.348 . S
C725 C720 1.353 . S
C725 C724 1.348 . S
C725 H777 0.929 . S
H726 C720 0.930 . S
H727 C723 0.930 . S
C728 N729 1.314 . S
C728 C730 1.353 . S
C728 H734 0.930 . S
N729 Li705 1.990 1_565 S
N729 C728 1.314 . S
N729 C732 1.279 . S
C730 C728 1.353 . S
C730 C733 1.348 . S
C730 H778 0.929 . S
C731 C732 1.358 . S
C731 C733 1.356 . S
C731 H779 0.930 . S
C732 N729 1.279 . S
C732 C731 1.358 . S
C732 H735 0.930 . S
C733 C730 1.348 . S
C733 C731 1.356 . S
H734 C728 0.930 . S
H735 C732 0.930 . S
C736 C738 1.348 . S
C736 C739 1.356 . S
C736 O766 1.325 . S
N737 C740 1.314 . S
N737 C741 1.279 . S
C738 C736 1.348 . S
C738 C740 1.353 . S
C738 H780 0.929 . S
C739 C736 1.356 . S
C739 C741 1.358 . S
C739 H781 0.930 . S
C740 N737 1.314 . S
C740 C738 1.353 . S
C740 H782 0.930 . S
C741 N737 1.279 . S
C741 C739 1.358 . S
C741 H783 0.930 . S
C742 C743 1.348 . S
C742 C744 1.356 . S
C742 O767 1.325 . S
C743 C742 1.348 . S
C743 C745 1.353 . S
C743 H784 0.929 . S
C744 C742 1.356 . S
C744 C746 1.358 . S
C744 H785 0.930 . S
C745 C743 1.353 . S
C745 N747 1.314 . S
C745 H786 0.930 . S
C746 C744 1.358 . S
C746 N747 1.279 . S
C746 H787 0.930 . S
N747 C745 1.314 . S
N747 C746 1.279 . S
C748 C750 1.353 . S
C748 N751 1.314 . S
C748 H754 0.930 . S
C749 N751 1.279 . S
C749 C752 1.358 . S
C749 H755 0.930 . S
C750 C748 1.353 . S
C750 C753 1.348 . S
C750 H788 0.929 . S
N751 Li706 1.990 . S
N751 C748 1.314 . S
N751 C749 1.279 . S
C752 C749 1.358 . S
C752 C753 1.356 . S
C752 H789 0.930 . S
C753 C750 1.348 . S
C753 C752 1.356 . S
H754 C748 0.930 . S
H755 C749 0.930 . S
C756 N757 1.314 . S
C756 C758 1.353 . S
C756 H762 0.930 . S
N757 Li707 1.990 . S
N757 C756 1.314 . S
N757 C760 1.279 . S
C758 C756 1.353 . S
C758 C761 1.348 . S
C758 H790 0.929 . S
C759 C760 1.358 . S
C759 C761 1.356 . S
C759 H791 0.930 . S
C760 N757 1.279 . S
C760 C759 1.358 . S
C760 H763 0.930 . S
C761 C758 1.348 . S
C761 C759 1.356 . S
H762 C756 0.930 . S
H763 C760 0.930 . S
O764 Li704 1.956 . S
O764 Li705 1.970 . S
O764 Li706 1.961 . S
O764 C708 1.325 1_545 S
O765 Li704 1.970 . S
O765 Li705 1.956 . S
O765 Li707 1.961 . S
O765 C714 1.325 . S
O766 Li704 1.961 . S
O766 Li706 1.956 . S
O766 Li707 1.970 . S
O766 C736 1.325 . S
O767 Li705 1.961 . S
O767 Li706 1.970 . S
O767 Li707 1.956 . S
O767 C742 1.325 . S
H768 C710 0.929 . S
H769 C711 0.930 1_545 S
H770 C712 0.930 . S
H771 C713 0.930 . S
H772 C715 0.930 . S
H773 C717 0.929 . S
H774 C718 0.930 . S
H775 C719 0.930 . S
H776 C722 0.930 . S
H777 C725 0.929 . S
H778 C730 0.929 . S
H779 C731 0.930 . S
H780 C738 0.929 . S
H781 C739 0.930 . S
H782 C740 0.930 . S
H783 C741 0.930 . S
H784 C743 0.929 . S
H785 C744 0.930 . S
H786 C745 0.930 . S
H787 C746 0.930 . S
H788 C750 0.929 . S
H789 C752 0.930 . S
H790 C758 0.929 . S
H791 C759 0.930 . S
Li792 N809 1.990 . S
Li792 O852 1.956 . S
Li792 O853 1.970 . S
Li792 O854 1.961 . S
Li793 N817 1.990 . S
Li793 O852 1.970 . S
Li793 O853 1.956 . S
Li793 O855 1.961 . S
Li794 N839 1.990 . S
Li794 O852 1.961 . S
Li794 O854 1.956 . S
Li794 O855 1.970 . S
Li795 N845 1.990 . S
Li795 O853 1.961 . S
Li795 O854 1.970 . S
Li795 O855 1.956 . S
C796 C798 1.348 . S
C796 C799 1.356 . S
C796 O852 1.325 . S
N797 C800 1.314 . S
N797 C801 1.279 . S
C798 C796 1.348 . S
C798 C800 1.353 . S
C798 H856 0.929 . S
C799 C796 1.356 . S
C799 C801 1.358 . S
C799 H857 0.930 . S
C800 N797 1.314 . S
C800 C798 1.353 . S
C800 H858 0.930 . S
C801 N797 1.279 . S
C801 C799 1.358 . S
C801 H859 0.930 . S
C802 C805 1.348 . S
C802 C806 1.356 . S
C802 O853 1.325 . S
C803 N804 1.279 . S
C803 C806 1.358 . S
C803 H860 0.930 . S
N804 C803 1.279 . S
N804 C807 1.314 . S
C805 C802 1.348 . S
C805 C807 1.353 . S
C805 H861 0.929 . S
C806 C802 1.356 . S
C806 C803 1.358 . S
C806 H862 0.930 . S
C807 N804 1.314 . S
C807 C805 1.353 . S
C807 H863 0.930 . S
C808 N809 1.314 . S
C808 C813 1.353 . S
C808 H814 0.930 . S
N809 Li792 1.990 . S
N809 C808 1.314 . S
N809 C811 1.279 . S
C810 C811 1.358 . S
C810 C812 1.356 . S
C810 H864 0.930 . S
C811 N809 1.279 . S
C811 C810 1.358 . S
C811 H815 0.930 . S
C812 C810 1.356 . S
C812 C813 1.348 . S
C813 C808 1.353 . S
C813 C812 1.348 . S
C813 H865 0.929 . S
H814 C808 0.930 . S
H815 C811 0.930 . S
C816 N817 1.314 . S
C816 C818 1.353 . S
C816 H822 0.930 . S
N817 Li793 1.990 . S
N817 C816 1.314 . S
N817 C820 1.279 . S
C818 C816 1.353 . S
C818 C821 1.348 . S
C818 H866 0.929 . S
C819 C820 1.358 . S
C819 C821 1.356 . S
C819 H867 0.930 . S
C820 N817 1.279 . S
C820 C819 1.358 . S
C820 H823 0.930 . S
C821 C818 1.348 . S
C821 C819 1.356 . S
H822 C816 0.930 . S
H823 C820 0.930 . S
C824 C826 1.348 . S
C824 C827 1.356 . S
C824 O854 1.325 . S
N825 C828 1.314 . S
N825 C829 1.279 . S
C826 C824 1.348 . S
C826 C828 1.353 . S
C826 H868 0.929 . S
C827 C824 1.356 . S
C827 C829 1.358 . S
C827 H869 0.930 . S
C828 N825 1.314 . S
C828 C826 1.353 . S
C828 H870 0.930 . S
C829 N825 1.279 . S
C829 C827 1.358 . S
C829 H871 0.930 . S
C830 C831 1.348 . S
C830 C832 1.356 . S
C830 O855 1.325 . S
C831 C830 1.348 . S
C831 C833 1.353 . S
C831 H872 0.929 . S
C832 C830 1.356 . S
C832 C834 1.358 . S
C832 H873 0.930 . S
C833 C831 1.353 . S
C833 N835 1.314 . S
C833 H874 0.930 . S
C834 C832 1.358 . S
C834 N835 1.279 . S
C834 H875 0.930 . S
N835 C833 1.314 . S
N835 C834 1.279 . S
C836 C838 1.353 . S
C836 N839 1.314 . S
C836 H842 0.930 . S
C837 N839 1.279 . S
C837 C840 1.358 . S
C837 H843 0.930 . S
C838 C836 1.353 . S
C838 C841 1.348 . S
C838 H876 0.929 . S
N839 Li794 1.990 . S
N839 C836 1.314 . S
N839 C837 1.279 . S
C840 C837 1.358 . S
C840 C841 1.356 . S
C840 H877 0.930 . S
C841 C838 1.348 . S
C841 C840 1.356 . S
H842 C836 0.930 . S
H843 C837 0.930 . S
C844 N845 1.314 . S
C844 C846 1.353 . S
C844 H850 0.930 . S
N845 Li795 1.990 . S
N845 C844 1.314 . S
N845 C848 1.279 . S
C846 C844 1.353 . S
C846 C849 1.348 . S
C846 H878 0.929 . S
C847 C848 1.358 . S
C847 C849 1.356 . S
C847 H879 0.930 . S
C848 N845 1.279 . S
C848 C847 1.358 . S
C848 H851 0.930 . S
C849 C846 1.348 . S
C849 C847 1.356 . S
H850 C844 0.930 . S
H851 C848 0.930 . S
O852 Li792 1.956 . S
O852 Li793 1.970 . S
O852 Li794 1.961 . S
O852 C796 1.325 . S
O853 Li792 1.970 . S
O853 Li793 1.956 . S
O853 Li795 1.961 . S
O853 C802 1.325 . S
O854 Li792 1.961 . S
O854 Li794 1.956 . S
O854 Li795 1.970 . S
O854 C824 1.325 . S
O855 Li793 1.961 . S
O855 Li794 1.970 . S
O855 Li795 1.956 . S
O855 C830 1.325 . S
H856 C798 0.929 . S
H857 C799 0.930 . S
H858 C800 0.930 . S
H859 C801 0.930 . S
H860 C803 0.930 . S
H861 C805 0.929 . S
H862 C806 0.930 . S
H863 C807 0.930 . S
H864 C810 0.930 . S
H865 C813 0.929 . S
H866 C818 0.929 . S
H867 C819 0.930 . S
H868 C826 0.929 . S
H869 C827 0.930 . S
H870 C828 0.930 . S
H871 C829 0.930 . S
H872 C831 0.929 . S
H873 C832 0.930 . S
H874 C833 0.930 . S
H875 C834 0.930 . S
H876 C838 0.929 . S
H877 C840 0.930 . S
H878 C846 0.929 . S
H879 C847 0.930 . S
Li880 N897 1.990 . S
Li880 O940 1.956 . S
Li880 O941 1.970 . S
Li880 O942 1.961 . S
Li881 N905 1.990 . S
Li881 O940 1.970 . S
Li881 O941 1.956 . S
Li881 O943 1.961 . S
Li882 N927 1.990 . S
Li882 O940 1.961 . S
Li882 O942 1.956 . S
Li882 O943 1.970 . S
Li883 N933 1.990 . S
Li883 O941 1.961 . S
Li883 O942 1.970 . S
Li883 O943 1.956 . S
C884 C886 1.348 . S
C884 C887 1.356 . S
C884 O940 1.325 . S
N885 C888 1.314 . S
N885 C889 1.279 . S
C886 C884 1.348 . S
C886 C888 1.353 . S
C886 H944 0.929 . S
C887 C884 1.356 . S
C887 C889 1.358 . S
C887 H945 0.930 . S
C888 N885 1.314 . S
C888 C886 1.353 . S
C888 H946 0.930 . S
C889 N885 1.279 . S
C889 C887 1.358 . S
C889 H947 0.930 . S
C890 C893 1.348 . S
C890 C894 1.356 . S
C890 O941 1.325 . S
C891 N892 1.279 . S
C891 C894 1.358 . S
C891 H948 0.930 . S
N892 C891 1.279 . S
N892 C895 1.314 . S
C893 C890 1.348 . S
C893 C895 1.353 . S
C893 H949 0.929 . S
C894 C890 1.356 . S
C894 C891 1.358 . S
C894 H950 0.930 . S
C895 N892 1.314 . S
C895 C893 1.353 . S
C895 H951 0.930 . S
C896 N897 1.314 . S
C896 C901 1.353 . S
C896 H902 0.930 . S
N897 Li880 1.990 . S
N897 C896 1.314 . S
N897 C899 1.279 . S
C898 C899 1.358 . S
C898 C900 1.356 . S
C898 H952 0.930 . S
C899 N897 1.279 . S
C899 C898 1.358 . S
C899 H903 0.930 . S
C900 C898 1.356 . S
C900 C901 1.348 . S
C901 C896 1.353 . S
C901 C900 1.348 . S
C901 H953 0.929 . S
H902 C896 0.930 . S
H903 C899 0.930 . S
C904 N905 1.314 . S
C904 C906 1.353 . S
C904 H910 0.930 . S
N905 Li881 1.990 . S
N905 C904 1.314 . S
N905 C908 1.279 . S
C906 C904 1.353 . S
C906 C909 1.348 . S
C906 H954 0.929 . S
C907 C908 1.358 . S
C907 C909 1.356 . S
C907 H955 0.930 . S
C908 N905 1.279 . S
C908 C907 1.358 . S
C908 H911 0.930 . S
C909 C906 1.348 . S
C909 C907 1.356 . S
H910 C904 0.930 . S
H911 C908 0.930 . S
C912 C914 1.348 . S
C912 C915 1.356 . S
C912 O942 1.325 . S
N913 C916 1.314 . S
N913 C917 1.279 . S
C914 C912 1.348 . S
C914 C916 1.353 . S
C914 H956 0.929 . S
C915 C912 1.356 . S
C915 C917 1.358 . S
C915 H957 0.930 . S
C916 N913 1.314 . S
C916 C914 1.353 . S
C916 H958 0.930 . S
C917 N913 1.279 . S
C917 C915 1.358 . S
C917 H959 0.930 . S
C918 C919 1.348 . S
C918 C920 1.356 . S
C918 O943 1.325 1_565 S
C919 C918 1.348 . S
C919 C921 1.353 . S
C919 H960 0.929 . S
C920 C918 1.356 . S
C920 C922 1.358 . S
C920 H961 0.930 1_565 S
C921 C919 1.353 . S
C921 N923 1.314 . S
C921 H962 0.930 . S
C922 C920 1.358 . S
C922 N923 1.279 . S
C922 H963 0.930 . S
N923 C921 1.314 . S
N923 C922 1.279 . S
C924 C926 1.353 . S
C924 N927 1.314 1_565 S
C924 H930 0.930 . S
C925 N927 1.279 1_565 S
C925 C928 1.358 . S
C925 H931 0.930 1_565 S
C926 C924 1.353 . S
C926 C929 1.348 . S
C926 H964 0.929 . S
N927 Li882 1.990 . S
N927 C924 1.314 1_545 S
N927 C925 1.279 1_545 S
C928 C925 1.358 . S
C928 C929 1.356 . S
C928 H965 0.930 . S
C929 C926 1.348 . S
C929 C928 1.356 . S
H930 C924 0.930 . S
H931 C925 0.930 1_545 S
C932 N933 1.314 . S
C932 C934 1.353 . S
C932 H938 0.930 . S
N933 Li883 1.990 . S
N933 C932 1.314 . S
N933 C936 1.279 . S
C934 C932 1.353 . S
C934 C937 1.348 . S
C934 H966 0.929 . S
C935 C936 1.358 . S
C935 C937 1.356 . S
C935 H967 0.930 1_545 S
C936 N933 1.279 . S
C936 C935 1.358 . S
C936 H939 0.930 . S
C937 C934 1.348 . S
C937 C935 1.356 . S
H938 C932 0.930 . S
H939 C936 0.930 . S
O940 Li880 1.956 . S
O940 Li881 1.970 . S
O940 Li882 1.961 . S
O940 C884 1.325 . S
O941 Li880 1.970 . S
O941 Li881 1.956 . S
O941 Li883 1.961 . S
O941 C890 1.325 . S
O942 Li880 1.961 . S
O942 Li882 1.956 . S
O942 Li883 1.970 . S
O942 C912 1.325 . S
O943 Li881 1.961 . S
O943 Li882 1.970 . S
O943 Li883 1.956 . S
O943 C918 1.325 1_545 S
H944 C886 0.929 . S
H945 C887 0.930 . S
H946 C888 0.930 . S
H947 C889 0.930 . S
H948 C891 0.930 . S
H949 C893 0.929 . S
H950 C894 0.930 . S
H951 C895 0.930 . S
H952 C898 0.930 . S
H953 C901 0.929 . S
H954 C906 0.929 . S
H955 C907 0.930 . S
H956 C914 0.929 . S
H957 C915 0.930 . S
H958 C916 0.930 . S
H959 C917 0.930 . S
H960 C919 0.929 . S
H961 C920 0.930 1_545 S
H962 C921 0.930 . S
H963 C922 0.930 . S
H964 C926 0.929 . S
H965 C928 0.930 . S
H966 C934 0.929 . S
H967 C935 0.930 1_565 S
Li968 N985 1.991 . S
Li968 O1028 1.987 . S
Li968 O1029 1.971 1_554 S
Li968 O1030 1.927 1_554 S
Li969 N993 1.990 . S
Li969 O1028 1.970 . S
Li969 O1029 1.956 1_554 S
Li969 O1031 1.986 . S
Li970 N1015 1.988 . S
Li970 O1028 2.012 . S
Li970 O1030 1.911 1_554 S
Li970 O1031 1.972 . S
Li971 N1021 1.990 . S
Li971 O1029 1.961 . S
Li971 O1030 1.970 . S
Li971 O1031 1.931 1_556 S
C972 C974 1.348 . S
C972 C975 1.356 . S
C972 O1028 1.325 . S
N973 C976 1.314 . S
N973 C977 1.279 . S
C974 C972 1.348 . S
C974 C976 1.353 . S
C974 H1032 0.929 . S
C975 C972 1.356 . S
C975 C977 1.358 . S
C975 H1033 0.930 . S
C976 N973 1.314 . S
C976 C974 1.353 . S
C976 H1034 0.930 . S
C977 N973 1.279 . S
C977 C975 1.358 . S
C977 H1035 0.930 . S
C978 C981 1.348 1_556 S
C978 C982 1.356 . S
C978 O1029 1.325 . S
C979 N980 1.279 . S
C979 C982 1.358 . S
C979 H1036 0.930 . S
N980 C979 1.279 . S
N980 C983 1.314 1_556 S
C981 C978 1.348 1_554 S
C981 C983 1.353 . S
C981 H1037 0.929 . S
C982 C978 1.356 . S
C982 C979 1.358 . S
C982 H1038 0.930 . S
C983 N980 1.314 1_554 S
C983 C981 1.353 . S
C983 H1039 0.930 . S
C984 N985 1.314 1_556 S
C984 C989 1.353 . S
C984 H990 0.930 . S
N985 Li968 1.991 . S
N985 C984 1.314 1_554 S
N985 C987 1.279 . S
C986 C987 1.358 . S
C986 C988 1.368 . S
C986 H1040 0.930 . S
C987 N985 1.279 . S
C987 C986 1.358 . S
C987 H991 0.930 . S
C988 C986 1.368 . S
C988 C989 1.335 1_554 S
C989 C984 1.353 . S
C989 C988 1.335 1_556 S
C989 H1041 0.929 . S
H990 C984 0.930 . S
H991 C987 0.930 . S
C992 N993 1.314 . S
C992 C994 1.353 . S
C992 H998 0.930 . S
N993 Li969 1.990 . S
N993 C992 1.314 . S
N993 C996 1.279 . S
C994 C992 1.353 . S
C994 C997 1.348 . S
C994 H1042 0.929 . S
C995 C996 1.358 . S
C995 C997 1.356 . S
C995 H1043 0.930 . S
C996 N993 1.279 . S
C996 C995 1.358 . S
C996 H999 0.930 . S
C997 C994 1.348 . S
C997 C995 1.356 . S
H998 C992 0.930 . S
H999 C996 0.930 . S
C1000 C1002 1.348 . S
C1000 C1003 1.356 . S
C1000 O1030 1.325 . S
N1001 C1004 1.314 . S
N1001 C1005 1.279 . S
C1002 C1000 1.348 . S
C1002 C1004 1.353 . S
C1002 H1044 0.929 . S
C1003 C1000 1.356 . S
C1003 C1005 1.358 . S
C1003 H1045 0.930 . S
C1004 N1001 1.314 . S
C1004 C1002 1.353 . S
C1004 H1046 0.930 . S
C1005 N1001 1.279 . S
C1005 C1003 1.358 . S
C1005 H1047 0.930 . S
C1006 C1007 1.348 1_554 S
C1006 C1008 1.356 . S
C1006 O1031 1.324 . S
C1007 C1006 1.348 1_556 S
C1007 C1009 1.353 . S
C1007 H1048 0.929 . S
C1008 C1006 1.356 . S
C1008 C1010 1.358 . S
C1008 H1049 0.930 . S
C1009 C1007 1.353 . S
C1009 N1011 1.314 . S
C1009 H1050 0.930 . S
C1010 C1008 1.358 . S
C1010 N1011 1.279 1_554 S
C1010 H1051 0.930 . S
N1011 C1009 1.314 . S
N1011 C1010 1.279 1_556 S
C1012 C1014 1.353 . S
C1012 N1015 1.314 . S
C1012 H1018 0.930 . S
C1013 N1015 1.279 1_556 S
C1013 C1016 1.358 . S
C1013 H1019 0.930 . S
C1014 C1012 1.353 . S
C1014 C1017 1.348 . S
C1014 H1052 0.929 . S
N1015 Li970 1.988 . S
N1015 C1012 1.314 . S
N1015 C1013 1.279 1_554 S
C1016 C1013 1.358 . S
C1016 C1017 1.356 1_556 S
C1016 H1053 0.930 . S
C1017 C1014 1.348 . S
C1017 C1016 1.356 1_554 S
H1018 C1012 0.930 . S
H1019 C1013 0.930 . S
C1020 N1021 1.314 . S
C1020 C1022 1.353 . S
C1020 H1026 0.930 . S
N1021 Li971 1.990 . S
N1021 C1020 1.314 . S
N1021 C1024 1.279 . S
C1022 C1020 1.353 . S
C1022 C1025 1.348 . S
C1022 H1054 0.929 . S
C1023 C1024 1.358 . S
C1023 C1025 1.356 . S
C1023 H1055 0.930 . S
C1024 N1021 1.279 . S
C1024 C1023 1.358 . S
C1024 H1027 0.930 . S
C1025 C1022 1.348 . S
C1025 C1023 1.356 . S
H1026 C1020 0.930 . S
H1027 C1024 0.930 . S
O1028 Li968 1.987 . S
O1028 Li969 1.970 . S
O1028 Li970 2.012 . S
O1028 C972 1.325 . S
O1029 Li968 1.971 1_556 S
O1029 Li969 1.956 1_556 S
O1029 Li971 1.961 . S
O1029 C978 1.325 . S
O1030 Li968 1.927 1_556 S
O1030 Li970 1.911 1_556 S
O1030 Li971 1.970 . S
O1030 C1000 1.325 . S
O1031 Li969 1.986 . S
O1031 Li970 1.972 . S
O1031 Li971 1.931 1_554 S
O1031 C1006 1.324 . S
H1032 C974 0.929 . S
H1033 C975 0.930 . S
H1034 C976 0.930 . S
H1035 C977 0.930 . S
H1036 C979 0.930 . S
H1037 C981 0.929 . S
H1038 C982 0.930 . S
H1039 C983 0.930 . S
H1040 C986 0.930 . S
H1041 C989 0.929 . S
H1042 C994 0.929 . S
H1043 C995 0.930 . S
H1044 C1002 0.929 . S
H1045 C1003 0.930 . S
H1046 C1004 0.930 . S
H1047 C1005 0.930 . S
H1048 C1007 0.929 . S
H1049 C1008 0.930 . S
H1050 C1009 0.930 . S
H1051 C1010 0.930 . S
H1052 C1014 0.929 . S
H1053 C1016 0.930 . S
H1054 C1022 0.929 . S
H1055 C1023 0.930 . S
Li1056 N1073 1.990 . S
Li1056 O1116 1.956 . S
Li1056 O1117 1.970 . S
Li1056 O1118 1.961 . S
Li1057 N1081 1.990 . S
Li1057 O1116 1.970 . S
Li1057 O1117 1.956 . S
Li1057 O1119 1.961 . S
Li1058 N1103 1.990 . S
Li1058 O1116 1.961 . S
Li1058 O1118 1.956 . S
Li1058 O1119 1.970 . S
Li1059 N1109 1.990 1_554 S
Li1059 O1117 1.961 . S
Li1059 O1118 1.970 . S
Li1059 O1119 1.956 . S
C1060 C1062 1.348 . S
C1060 C1063 1.356 . S
C1060 O1116 1.325 . S
N1061 C1064 1.314 . S
N1061 C1065 1.279 . S
C1062 C1060 1.348 . S
C1062 C1064 1.353 . S
C1062 H1120 0.929 . S
C1063 C1060 1.356 . S
C1063 C1065 1.358 . S
C1063 H1121 0.930 . S
C1064 N1061 1.314 . S
C1064 C1062 1.353 . S
C1064 H1122 0.930 . S
C1065 N1061 1.279 . S
C1065 C1063 1.358 . S
C1065 H1123 0.930 . S
C1066 C1069 1.348 . S
C1066 C1070 1.356 . S
C1066 O1117 1.325 . S
C1067 N1068 1.279 . S
C1067 C1070 1.358 . S
C1067 H1124 0.930 . S
N1068 C1067 1.279 . S
N1068 C1071 1.314 . S
C1069 C1066 1.348 . S
C1069 C1071 1.353 . S
C1069 H1125 0.929 . S
C1070 C1066 1.356 . S
C1070 C1067 1.358 . S
C1070 H1126 0.930 . S
C1071 N1068 1.314 . S
C1071 C1069 1.353 . S
C1071 H1127 0.930 . S
C1072 N1073 1.314 . S
C1072 C1077 1.353 . S
C1072 H1078 0.882 1_554 S
N1073 Li1056 1.990 . S
N1073 C1072 1.314 . S
N1073 C1075 1.279 . S
C1074 C1075 1.358 . S
C1074 C1076 1.356 . S
C1074 H1128 0.930 . S
C1075 N1073 1.279 . S
C1075 C1074 1.358 . S
C1075 H1079 0.930 . S
C1076 C1074 1.356 . S
C1076 C1077 1.348 . S
C1077 C1072 1.353 . S
C1077 C1076 1.348 . S
C1077 H1129 0.929 1_554 S
H1078 C1072 0.882 1_556 S
H1079 C1075 0.930 . S
C1080 N1081 1.314 . S
C1080 C1082 1.353 . S
C1080 H1086 0.930 . S
N1081 Li1057 1.990 . S
N1081 C1080 1.314 . S
N1081 C1084 1.279 . S
C1082 C1080 1.353 . S
C1082 C1085 1.348 . S
C1082 H1130 0.929 . S
C1083 C1084 1.358 . S
C1083 C1085 1.356 . S
C1083 H1131 0.930 . S
C1084 N1081 1.279 . S
C1084 C1083 1.358 . S
C1084 H1087 0.930 . S
C1085 C1082 1.348 . S
C1085 C1083 1.356 . S
H1086 C1080 0.930 . S
H1087 C1084 0.930 . S
C1088 C1090 1.348 . S
C1088 C1091 1.356 . S
C1088 O1118 1.325 1_556 S
N1089 C1092 1.314 . S
N1089 C1093 1.279 . S
C1090 C1088 1.348 . S
C1090 C1092 1.353 . S
C1090 H1132 0.929 . S
C1091 C1088 1.356 . S
C1091 C1093 1.358 . S
C1091 H1133 0.930 1_556 S
C1092 N1089 1.314 . S
C1092 C1090 1.353 . S
C1092 H1134 0.930 . S
C1093 N1089 1.279 . S
C1093 C1091 1.358 . S
C1093 H1135 0.930 . S
C1094 C1095 1.348 . S
C1094 C1096 1.356 . S
C1094 O1119 1.325 . S
C1095 C1094 1.348 . S
C1095 C1097 1.353 . S
C1095 H1136 0.929 . S
C1096 C1094 1.356 . S
C1096 C1098 1.358 . S
C1096 H1137 0.930 . S
C1097 C1095 1.353 . S
C1097 N1099 1.314 . S
C1097 H1138 0.930 . S
C1098 C1096 1.358 . S
C1098 N1099 1.279 . S
C1098 H1139 0.930 . S
N1099 C1097 1.314 . S
N1099 C1098 1.279 . S
C1100 C1102 1.353 . S
C1100 N1103 1.314 . S
C1100 H1106 0.930 . S
C1101 N1103 1.279 . S
C1101 C1104 1.358 . S
C1101 H1107 0.930 . S
C1102 C1100 1.353 . S
C1102 C1105 1.348 . S
C1102 H1140 0.929 . S
N1103 Li1058 1.990 . S
N1103 C1100 1.314 . S
N1103 C1101 1.279 . S
C1104 C1101 1.358 . S
C1104 C1105 1.356 . S
C1104 H1141 0.930 . S
C1105 C1102 1.348 . S
C1105 C1104 1.356 . S
H1106 C1100 0.930 . S
H1107 C1101 0.930 . S
C1108 N1109 1.314 . S
C1108 C1110 1.353 . S
C1108 H1114 0.930 . S
N1109 Li1059 1.990 1_556 S
N1109 C1108 1.314 . S
N1109 C1112 1.279 . S
C1110 C1108 1.353 . S
C1110 C1113 1.348 . S
C1110 H1142 0.929 . S
C1111 C1112 1.358 . S
C1111 C1113 1.356 . S
C1111 H1143 0.930 . S
C1112 N1109 1.279 . S
C1112 C1111 1.358 . S
C1112 H1115 0.930 . S
C1113 C1110 1.348 . S
C1113 C1111 1.356 . S
H1114 C1108 0.930 . S
H1115 C1112 0.930 . S
O1116 Li1056 1.956 . S
O1116 Li1057 1.970 . S
O1116 Li1058 1.961 . S
O1116 C1060 1.325 . S
O1117 Li1056 1.970 . S
O1117 Li1057 1.956 . S
O1117 Li1059 1.961 . S
O1117 C1066 1.325 . S
O1118 Li1056 1.961 . S
O1118 Li1058 1.956 . S
O1118 Li1059 1.970 . S
O1118 C1088 1.325 1_554 S
O1119 Li1057 1.961 . S
O1119 Li1058 1.970 . S
O1119 Li1059 1.956 . S
O1119 C1094 1.325 . S
H1120 C1062 0.929 . S
H1121 C1063 0.930 . S
H1122 C1064 0.930 . S
H1123 C1065 0.930 . S
H1124 C1067 0.930 . S
H1125 C1069 0.929 . S
H1126 C1070 0.930 . S
H1127 C1071 0.930 . S
H1128 C1074 0.930 . S
H1129 C1077 0.929 1_556 S
H1130 C1082 0.929 . S
H1131 C1083 0.930 . S
H1132 C1090 0.929 . S
H1133 C1091 0.930 1_554 S
H1134 C1092 0.930 . S
H1135 C1093 0.930 . S
H1136 C1095 0.929 . S
H1137 C1096 0.930 . S
H1138 C1097 0.930 . S
H1139 C1098 0.930 . S
H1140 C1102 0.929 . S
H1141 C1104 0.930 . S
H1142 C1110 0.929 . S
H1143 C1111 0.930 . S
Li1144 N1161 1.990 . S
Li1144 O1204 1.956 . S
Li1144 O1205 1.970 . S
Li1144 O1206 1.961 . S
Li1145 N1169 1.990 . S
Li1145 O1204 1.970 . S
Li1145 O1205 1.956 . S
Li1145 O1207 1.961 . S
Li1146 N1191 1.990 . S
Li1146 O1204 1.961 . S
Li1146 O1206 1.956 . S
Li1146 O1207 1.970 . S
Li1147 N1197 1.990 . S
Li1147 O1205 1.961 . S
Li1147 O1206 1.970 . S
Li1147 O1207 1.956 . S
C1148 C1150 1.348 . S
C1148 C1151 1.356 . S
C1148 O1204 1.325 . S
N1149 C1152 1.314 . S
N1149 C1153 1.279 . S
C1150 C1148 1.348 . S
C1150 C1152 1.353 . S
C1150 H1208 0.929 . S
C1151 C1148 1.356 . S
C1151 C1153 1.358 . S
C1151 H1209 0.930 . S
C1152 N1149 1.314 . S
C1152 C1150 1.353 . S
C1152 H1210 0.930 . S
C1153 N1149 1.279 . S
C1153 C1151 1.358 . S
C1153 H1211 0.930 . S
C1154 C1157 1.348 . S
C1154 C1158 1.356 . S
C1154 O1205 1.325 . S
C1155 N1156 1.279 . S
C1155 C1158 1.358 . S
C1155 H1212 0.930 . S
N1156 C1155 1.279 . S
N1156 C1159 1.314 . S
C1157 C1154 1.348 . S
C1157 C1159 1.353 . S
C1157 H1213 0.929 . S
C1158 C1154 1.356 . S
C1158 C1155 1.358 . S
C1158 H1214 0.930 . S
C1159 N1156 1.314 . S
C1159 C1157 1.353 . S
C1159 H1215 0.930 . S
C1160 N1161 1.314 . S
C1160 C1165 1.353 . S
C1160 H1166 0.930 . S
N1161 Li1144 1.990 . S
N1161 C1160 1.314 . S
N1161 C1163 1.279 . S
C1162 C1163 1.358 . S
C1162 C1164 1.356 . S
C1162 H1216 0.930 . S
C1163 N1161 1.279 . S
C1163 C1162 1.358 . S
C1163 H1167 0.930 . S
C1164 C1162 1.356 . S
C1164 C1165 1.348 . S
C1165 C1160 1.353 . S
C1165 C1164 1.348 . S
C1165 H1217 0.929 . S
H1166 C1160 0.930 . S
H1167 C1163 0.930 . S
C1168 N1169 1.314 . S
C1168 C1170 1.353 . S
C1168 H1174 0.930 . S
N1169 Li1145 1.990 . S
N1169 C1168 1.314 . S
N1169 C1172 1.279 . S
C1170 C1168 1.353 . S
C1170 C1173 1.348 . S
C1170 H1218 0.929 . S
C1171 C1172 1.358 . S
C1171 C1173 1.356 . S
C1171 H1219 0.930 . S
C1172 N1169 1.279 . S
C1172 C1171 1.358 . S
C1172 H1175 0.930 . S
C1173 C1170 1.348 . S
C1173 C1171 1.356 . S
H1174 C1168 0.930 . S
H1175 C1172 0.930 . S
C1176 C1178 1.348 . S
C1176 C1179 1.356 . S
C1176 O1206 1.325 . S
N1177 C1180 1.314 . S
N1177 C1181 1.279 . S
C1178 C1176 1.348 . S
C1178 C1180 1.353 . S
C1178 H1220 0.929 . S
C1179 C1176 1.356 . S
C1179 C1181 1.358 . S
C1179 H1221 0.930 . S
C1180 N1177 1.314 . S
C1180 C1178 1.353 . S
C1180 H1222 0.930 . S
C1181 N1177 1.279 . S
C1181 C1179 1.358 . S
C1181 H1223 0.930 . S
C1182 C1183 1.348 1_554 S
C1182 C1184 1.356 . S
C1182 O1207 1.325 . S
C1183 C1182 1.348 1_556 S
C1183 C1185 1.353 . S
C1183 H1224 0.929 . S
C1184 C1182 1.356 . S
C1184 C1186 1.358 1_554 S
C1184 H1225 0.930 . S
C1185 C1183 1.353 . S
C1185 N1187 1.314 . S
C1185 H1226 0.930 . S
C1186 C1184 1.358 1_556 S
C1186 N1187 1.279 . S
C1186 H1227 0.930 . S
N1187 C1185 1.314 . S
N1187 C1186 1.279 . S
C1188 C1190 1.353 1_554 S
C1188 N1191 1.314 . S
C1188 H1194 0.930 . S
C1189 N1191 1.279 . S
C1189 C1192 1.358 1_554 S
C1189 H1195 0.930 . S
C1190 C1188 1.353 1_556 S
C1190 C1193 1.348 . S
C1190 H1228 0.929 . S
N1191 Li1146 1.990 . S
N1191 C1188 1.314 . S
N1191 C1189 1.279 . S
C1192 C1189 1.358 1_556 S
C1192 C1193 1.356 . S
C1192 H1229 0.930 . S
C1193 C1190 1.348 . S
C1193 C1192 1.356 . S
H1194 C1188 0.930 . S
H1195 C1189 0.930 . S
C1196 N1197 1.314 . S
C1196 C1198 1.353 . S
C1196 H1202 0.930 . S
N1197 Li1147 1.990 . S
N1197 C1196 1.314 . S
N1197 C1200 1.279 . S
C1198 C1196 1.353 . S
C1198 C1201 1.348 . S
C1198 H1230 0.929 . S
C1199 C1200 1.358 . S
C1199 C1201 1.356 . S
C1199 H1231 0.930 . S
C1200 N1197 1.279 . S
C1200 C1199 1.358 . S
C1200 H1203 0.930 . S
C1201 C1198 1.348 . S
C1201 C1199 1.356 . S
H1202 C1196 0.930 . S
H1203 C1200 0.930 . S
O1204 Li1144 1.956 . S
O1204 Li1145 1.970 . S
O1204 Li1146 1.961 . S
O1204 C1148 1.325 . S
O1205 Li1144 1.970 . S
O1205 Li1145 1.956 . S
O1205 Li1147 1.961 . S
O1205 C1154 1.325 . S
O1206 Li1144 1.961 . S
O1206 Li1146 1.956 . S
O1206 Li1147 1.970 . S
O1206 C1176 1.325 . S
O1207 Li1145 1.961 . S
O1207 Li1146 1.970 . S
O1207 Li1147 1.956 . S
O1207 C1182 1.325 . S
H1208 C1150 0.929 . S
H1209 C1151 0.930 . S
H1210 C1152 0.930 . S
H1211 C1153 0.930 . S
H1212 C1155 0.930 . S
H1213 C1157 0.929 . S
H1214 C1158 0.930 . S
H1215 C1159 0.930 . S
H1216 C1162 0.930 . S
H1217 C1165 0.929 . S
H1218 C1170 0.929 . S
H1219 C1171 0.930 . S
H1220 C1178 0.929 . S
H1221 C1179 0.930 . S
H1222 C1180 0.930 . S
H1223 C1181 0.930 . S
H1224 C1183 0.929 . S
H1225 C1184 0.930 . S
H1226 C1185 0.930 . S
H1227 C1186 0.930 . S
H1228 C1190 0.929 . S
H1229 C1192 0.930 . S
H1230 C1198 0.929 . S
H1231 C1199 0.930 . S
Li1232 N1249 1.990 . S
Li1232 O1292 1.956 . S
Li1232 O1293 1.970 . S
Li1232 O1294 1.961 . S
Li1233 N1257 1.990 . S
Li1233 O1292 1.970 . S
Li1233 O1293 1.956 . S
Li1233 O1295 1.961 . S
Li1234 N1279 1.990 . S
Li1234 O1292 1.961 . S
Li1234 O1294 1.956 . S
Li1234 O1295 1.970 . S
Li1235 N1285 1.990 . S
Li1235 O1293 1.961 . S
Li1235 O1294 1.970 . S
Li1235 O1295 1.956 . S
C1236 C1238 1.348 . S
C1236 C1239 1.356 . S
C1236 O1292 1.325 . S
N1237 C1240 1.314 . S
N1237 C1241 1.279 . S
C1238 C1236 1.348 . S
C1238 C1240 1.353 . S
C1238 H1296 0.929 . S
C1239 C1236 1.356 . S
C1239 C1241 1.358 . S
C1239 H1297 0.930 . S
C1240 N1237 1.314 . S
C1240 C1238 1.353 . S
C1240 H1298 0.930 . S
C1241 N1237 1.279 . S
C1241 C1239 1.358 . S
C1241 H1299 0.930 . S
C1242 C1245 1.348 . S
C1242 C1246 1.356 . S
C1242 O1293 1.325 . S
C1243 N1244 1.279 . S
C1243 C1246 1.358 . S
C1243 H1300 0.930 . S
N1244 C1243 1.279 . S
N1244 C1247 1.314 . S
C1245 C1242 1.348 . S
C1245 C1247 1.353 . S
C1245 H1301 0.929 . S
C1246 C1242 1.356 . S
C1246 C1243 1.358 . S
C1246 H1302 0.930 . S
C1247 N1244 1.314 . S
C1247 C1245 1.353 . S
C1247 H1303 0.930 . S
C1248 N1249 1.314 . S
C1248 C1253 1.353 . S
C1248 H1254 0.930 . S
N1249 Li1232 1.990 . S
N1249 C1248 1.314 . S
N1249 C1251 1.279 . S
C1250 C1251 1.358 . S
C1250 C1252 1.356 . S
C1250 H1304 0.930 . S
C1251 N1249 1.279 . S
C1251 C1250 1.358 . S
C1251 H1255 0.930 . S
C1252 C1250 1.356 . S
C1252 C1253 1.348 . S
C1253 C1248 1.353 . S
C1253 C1252 1.348 . S
C1253 H1305 0.929 . S
H1254 C1248 0.930 . S
H1255 C1251 0.930 . S
C1256 N1257 1.314 . S
C1256 C1258 1.353 . S
C1256 H1262 0.930 . S
N1257 Li1233 1.990 . S
N1257 C1256 1.314 . S
N1257 C1260 1.279 . S
C1258 C1256 1.353 . S
C1258 C1261 1.348 . S
C1258 H1306 0.929 . S
C1259 C1260 1.358 . S
C1259 C1261 1.356 . S
C1259 H1307 0.930 . S
C1260 N1257 1.279 . S
C1260 C1259 1.358 . S
C1260 H1263 0.930 . S
C1261 C1258 1.348 . S
C1261 C1259 1.356 . S
H1262 C1256 0.930 . S
H1263 C1260 0.930 . S
C1264 C1266 1.348 . S
C1264 C1267 1.356 . S
C1264 O1294 1.325 . S
N1265 C1268 1.314 . S
N1265 C1269 1.279 . S
C1266 C1264 1.348 . S
C1266 C1268 1.353 . S
C1266 H1308 0.929 . S
C1267 C1264 1.356 . S
C1267 C1269 1.358 . S
C1267 H1309 0.930 . S
C1268 N1265 1.314 . S
C1268 C1266 1.353 . S
C1268 H1310 0.930 . S
C1269 N1265 1.279 . S
C1269 C1267 1.358 . S
C1269 H1311 0.930 . S
C1270 C1271 1.348 . S
C1270 C1272 1.356 . S
C1270 O1295 1.325 . S
C1271 C1270 1.348 . S
C1271 C1273 1.353 . S
C1271 H1312 0.929 . S
C1272 C1270 1.356 . S
C1272 C1274 1.358 . S
C1272 H1313 0.930 . S
C1273 C1271 1.353 . S
C1273 N1275 1.314 . S
C1273 H1314 0.930 . S
C1274 C1272 1.358 . S
C1274 N1275 1.279 . S
C1274 H1315 0.930 . S
N1275 C1273 1.314 . S
N1275 C1274 1.279 . S
C1276 C1278 1.353 . S
C1276 N1279 1.314 . S
C1276 H1282 0.930 . S
C1277 N1279 1.279 . S
C1277 C1280 1.358 . S
C1277 H1283 0.930 . S
C1278 C1276 1.353 . S
C1278 C1281 1.348 . S
C1278 H1316 0.929 . S
N1279 Li1234 1.990 . S
N1279 C1276 1.314 . S
N1279 C1277 1.279 . S
C1280 C1277 1.358 . S
C1280 C1281 1.356 . S
C1280 H1317 0.930 . S
C1281 C1278 1.348 . S
C1281 C1280 1.356 . S
H1282 C1276 0.930 . S
H1283 C1277 0.930 . S
C1284 N1285 1.314 . S
C1284 C1286 1.353 . S
C1284 H1290 0.930 . S
N1285 Li1235 1.990 . S
N1285 C1284 1.314 . S
N1285 C1288 1.279 . S
C1286 C1284 1.353 . S
C1286 C1289 1.348 . S
C1286 H1318 0.929 . S
C1287 C1288 1.358 . S
C1287 C1289 1.356 . S
C1287 H1319 0.930 . S
C1288 N1285 1.279 . S
C1288 C1287 1.358 . S
C1288 H1291 0.930 . S
C1289 C1286 1.348 . S
C1289 C1287 1.356 . S
H1290 C1284 0.930 . S
H1291 C1288 0.930 . S
O1292 Li1232 1.956 . S
O1292 Li1233 1.970 . S
O1292 Li1234 1.961 . S
O1292 C1236 1.325 . S
O1293 Li1232 1.970 . S
O1293 Li1233 1.956 . S
O1293 Li1235 1.961 . S
O1293 C1242 1.325 . S
O1294 Li1232 1.961 . S
O1294 Li1234 1.956 . S
O1294 Li1235 1.970 . S
O1294 C1264 1.325 . S
O1295 Li1233 1.961 . S
O1295 Li1234 1.970 . S
O1295 Li1235 1.956 . S
O1295 C1270 1.325 . S
H1296 C1238 0.929 . S
H1297 C1239 0.930 . S
H1298 C1240 0.930 . S
H1299 C1241 0.930 . S
H1300 C1243 0.930 . S
H1301 C1245 0.929 . S
H1302 C1246 0.930 . S
H1303 C1247 0.930 . S
H1304 C1250 0.930 . S
H1305 C1253 0.929 . S
H1306 C1258 0.929 . S
H1307 C1259 0.930 . S
H1308 C1266 0.929 . S
H1309 C1267 0.930 . S
H1310 C1268 0.930 . S
H1311 C1269 0.930 . S
H1312 C1271 0.929 . S
H1313 C1272 0.930 . S
H1314 C1273 0.930 . S
H1315 C1274 0.930 . S
H1316 C1278 0.929 . S
H1317 C1280 0.930 . S
H1318 C1286 0.929 . S
H1319 C1287 0.930 . S
Li1320 N1337 1.990 . S
Li1320 O1380 1.956 . S
Li1320 O1381 1.970 . S
Li1320 O1382 1.961 . S
Li1321 N1345 1.990 . S
Li1321 O1380 1.970 . S
Li1321 O1381 1.956 . S
Li1321 O1383 1.961 . S
Li1322 N1367 1.990 . S
Li1322 O1380 1.961 . S
Li1322 O1382 1.956 . S
Li1322 O1383 1.970 . S
Li1323 N1373 1.990 . S
Li1323 O1381 1.961 . S
Li1323 O1382 1.970 . S
Li1323 O1383 1.956 . S
C1324 C1326 1.348 . S
C1324 C1327 1.356 . S
C1324 O1380 1.325 . S
N1325 C1328 1.314 . S
N1325 C1329 1.279 . S
C1326 C1324 1.348 . S
C1326 C1328 1.353 . S
C1326 H1384 0.929 . S
C1327 C1324 1.356 . S
C1327 C1329 1.358 . S
C1327 H1385 0.930 . S
C1328 N1325 1.314 . S
C1328 C1326 1.353 . S
C1328 H1386 0.930 . S
C1329 N1325 1.279 . S
C1329 C1327 1.358 . S
C1329 H1387 0.930 . S
C1330 C1333 1.348 . S
C1330 C1334 1.356 . S
C1330 O1381 1.325 . S
C1331 N1332 1.279 . S
C1331 C1334 1.358 . S
C1331 H1388 0.930 . S
N1332 C1331 1.279 . S
N1332 C1335 1.314 . S
C1333 C1330 1.348 . S
C1333 C1335 1.353 . S
C1333 H1389 0.929 . S
C1334 C1330 1.356 . S
C1334 C1331 1.358 . S
C1334 H1390 0.930 . S
C1335 N1332 1.314 . S
C1335 C1333 1.353 . S
C1335 H1391 0.930 . S
C1336 N1337 1.314 . S
C1336 C1341 1.353 . S
C1336 H1342 0.930 . S
N1337 Li1320 1.990 . S
N1337 C1336 1.314 . S
N1337 C1339 1.279 . S
C1338 C1339 1.358 . S
C1338 C1340 1.356 . S
C1338 H1392 0.930 . S
C1339 N1337 1.279 . S
C1339 C1338 1.358 . S
C1339 H1343 0.930 . S
C1340 C1338 1.356 . S
C1340 C1341 1.348 . S
C1341 C1336 1.353 . S
C1341 C1340 1.348 . S
C1341 H1393 0.929 . S
H1342 C1336 0.930 . S
H1343 C1339 0.930 . S
C1344 N1345 1.314 . S
C1344 C1346 1.353 . S
C1344 H1350 0.930 . S
N1345 Li1321 1.990 . S
N1345 C1344 1.314 . S
N1345 C1348 1.279 . S
C1346 C1344 1.353 . S
C1346 C1349 1.348 . S
C1346 H1394 0.929 . S
C1347 C1348 1.358 . S
C1347 C1349 1.356 . S
C1347 H1395 0.930 . S
C1348 N1345 1.279 . S
C1348 C1347 1.358 . S
C1348 H1351 0.930 . S
C1349 C1346 1.348 . S
C1349 C1347 1.356 . S
H1350 C1344 0.930 . S
H1351 C1348 0.930 . S
C1352 C1354 1.348 . S
C1352 C1355 1.356 . S
C1352 O1382 1.325 . S
N1353 C1356 1.314 . S
N1353 C1357 1.279 . S
C1354 C1352 1.348 . S
C1354 C1356 1.353 . S
C1354 H1396 0.929 . S
C1355 C1352 1.356 . S
C1355 C1357 1.358 . S
C1355 H1397 0.930 . S
C1356 N1353 1.314 . S
C1356 C1354 1.353 . S
C1356 H1398 0.930 . S
C1357 N1353 1.279 . S
C1357 C1355 1.358 . S
C1357 H1399 0.930 . S
C1358 C1359 1.348 . S
C1358 C1360 1.356 . S
C1358 O1383 1.325 . S
C1359 C1358 1.348 . S
C1359 C1361 1.353 . S
C1359 H1400 0.929 . S
C1360 C1358 1.356 . S
C1360 C1362 1.358 . S
C1360 H1401 0.930 . S
C1361 C1359 1.353 . S
C1361 N1363 1.314 . S
C1361 H1402 0.930 . S
C1362 C1360 1.358 . S
C1362 N1363 1.279 . S
C1362 H1403 0.930 . S
N1363 C1361 1.314 . S
N1363 C1362 1.279 . S
C1364 C1366 1.353 . S
C1364 N1367 1.314 . S
C1364 H1370 0.930 . S
C1365 N1367 1.279 . S
C1365 C1368 1.358 . S
C1365 H1371 0.930 . S
C1366 C1364 1.353 . S
C1366 C1369 1.348 . S
C1366 H1404 0.929 . S
N1367 Li1322 1.990 . S
N1367 C1364 1.314 . S
N1367 C1365 1.279 . S
C1368 C1365 1.358 . S
C1368 C1369 1.356 . S
C1368 H1405 0.930 . S
C1369 C1366 1.348 . S
C1369 C1368 1.356 . S
H1370 C1364 0.930 . S
H1371 C1365 0.930 . S
C1372 N1373 1.314 . S
C1372 C1374 1.353 . S
C1372 H1378 0.930 . S
N1373 Li1323 1.990 . S
N1373 C1372 1.314 . S
N1373 C1376 1.279 . S
C1374 C1372 1.353 . S
C1374 C1377 1.348 . S
C1374 H1406 0.929 . S
C1375 C1376 1.358 . S
C1375 C1377 1.356 . S
C1375 H1407 0.930 . S
C1376 N1373 1.279 . S
C1376 C1375 1.358 . S
C1376 H1379 0.930 . S
C1377 C1374 1.348 . S
C1377 C1375 1.356 . S
H1378 C1372 0.930 . S
H1379 C1376 0.930 . S
O1380 Li1320 1.956 . S
O1380 Li1321 1.970 . S
O1380 Li1322 1.961 . S
O1380 C1324 1.325 . S
O1381 Li1320 1.970 . S
O1381 Li1321 1.956 . S
O1381 Li1323 1.961 . S
O1381 C1330 1.325 . S
O1382 Li1320 1.961 . S
O1382 Li1322 1.956 . S
O1382 Li1323 1.970 . S
O1382 C1352 1.325 . S
O1383 Li1321 1.961 . S
O1383 Li1322 1.970 . S
O1383 Li1323 1.956 . S
O1383 C1358 1.325 . S
H1384 C1326 0.929 . S
H1385 C1327 0.930 . S
H1386 C1328 0.930 . S
H1387 C1329 0.930 . S
H1388 C1331 0.930 . S
H1389 C1333 0.929 . S
H1390 C1334 0.930 . S
H1391 C1335 0.930 . S
H1392 C1338 0.930 . S
H1393 C1341 0.929 . S
H1394 C1346 0.929 . S
H1395 C1347 0.930 . S
H1396 C1354 0.929 . S
H1397 C1355 0.930 . S
H1398 C1356 0.930 . S
H1399 C1357 0.930 . S
H1400 C1359 0.929 . S
H1401 C1360 0.930 . S
H1402 C1361 0.930 . S
H1403 C1362 0.930 . S
H1404 C1366 0.929 . S
H1405 C1368 0.930 . S
H1406 C1374 0.929 . S
H1407 C1375 0.930 . S
Li1408 N1425 1.990 . S
Li1408 O1468 1.956 1_545 S
Li1408 O1469 1.970 . S
Li1408 O1470 1.961 . S
Li1409 N1433 1.990 . S
Li1409 O1468 1.970 . S
Li1409 O1469 1.956 1_565 S
Li1409 O1471 1.961 1_565 S
Li1410 N1455 1.990 . S
Li1410 O1468 1.961 1_545 S
Li1410 O1470 1.956 . S
Li1410 O1471 1.970 . S
Li1411 N1461 1.990 . S
Li1411 O1469 1.961 . S
Li1411 O1470 1.970 . S
Li1411 O1471 1.956 . S
C1412 C1414 1.348 . S
C1412 C1415 1.356 . S
C1412 O1468 1.325 . S
N1413 C1416 1.314 . S
N1413 C1417 1.279 . S
C1414 C1412 1.348 . S
C1414 C1416 1.353 . S
C1414 H1472 0.929 . S
C1415 C1412 1.356 . S
C1415 C1417 1.358 . S
C1415 H1473 0.930 . S
C1416 N1413 1.314 . S
C1416 C1414 1.353 . S
C1416 H1474 0.930 . S
C1417 N1413 1.279 . S
C1417 C1415 1.358 . S
C1417 H1475 0.930 . S
C1418 C1421 1.348 . S
C1418 C1422 1.356 . S
C1418 O1469 1.325 . S
C1419 N1420 1.279 . S
C1419 C1422 1.358 . S
C1419 H1476 0.930 . S
N1420 C1419 1.279 . S
N1420 C1423 1.314 . S
C1421 C1418 1.348 . S
C1421 C1423 1.353 . S
C1421 H1477 0.929 . S
C1422 C1418 1.356 . S
C1422 C1419 1.358 . S
C1422 H1478 0.930 . S
C1423 N1420 1.314 . S
C1423 C1421 1.353 . S
C1423 H1479 0.936 . S
C1424 N1425 1.314 . S
C1424 C1429 1.353 . S
C1424 H1430 0.930 . S
N1425 Li1408 1.990 . S
N1425 C1424 1.314 . S
N1425 C1427 1.279 . S
C1426 C1427 1.358 . S
C1426 C1428 1.356 . S
C1426 H1480 0.930 1_545 S
C1427 N1425 1.279 . S
C1427 C1426 1.358 . S
C1427 H1431 0.930 1_545 S
C1428 C1426 1.356 . S
C1428 C1429 1.348 . S
C1429 C1424 1.353 . S
C1429 C1428 1.348 . S
C1429 H1481 0.929 . S
H1430 C1424 0.930 . S
H1431 C1427 0.930 1_565 S
C1432 N1433 1.314 . S
C1432 C1434 1.353 . S
C1432 H1438 0.930 . S
N1433 Li1409 1.990 . S
N1433 C1432 1.314 . S
N1433 C1436 1.279 . S
C1434 C1432 1.353 . S
C1434 C1437 1.348 . S
C1434 H1482 0.929 . S
C1435 C1436 1.358 . S
C1435 C1437 1.356 . S
C1435 H1483 0.930 . S
C1436 N1433 1.279 . S
C1436 C1435 1.358 . S
C1436 H1439 0.930 . S
C1437 C1434 1.348 . S
C1437 C1435 1.356 . S
H1438 C1432 0.930 . S
H1439 C1436 0.930 . S
C1440 C1442 1.348 . S
C1440 C1443 1.356 . S
C1440 O1470 1.325 . S
N1441 C1444 1.314 . S
N1441 C1445 1.279 . S
C1442 C1440 1.348 . S
C1442 C1444 1.353 . S
C1442 H1484 0.929 . S
C1443 C1440 1.356 . S
C1443 C1445 1.358 . S
C1443 H1485 0.930 . S
C1444 N1441 1.314 . S
C1444 C1442 1.353 . S
C1444 H1486 0.930 . S
C1445 N1441 1.279 . S
C1445 C1443 1.358 . S
C1445 H1487 0.930 . S
C1446 C1447 1.348 . S
C1446 C1448 1.356 1_545 S
C1446 O1471 1.325 . S
C1447 C1446 1.348 . S
C1447 C1449 1.353 . S
C1447 H1488 0.929 . S
C1448 C1446 1.356 1_565 S
C1448 C1450 1.358 . S
C1448 H1489 0.930 . S
C1449 C1447 1.353 . S
C1449 N1451 1.314 1_545 S
C1449 H1490 0.930 . S
C1450 C1448 1.358 . S
C1450 N1451 1.279 . S
C1450 H1491 0.930 . S
N1451 C1449 1.314 1_565 S
N1451 C1450 1.279 . S
C1452 C1454 1.353 . S
C1452 N1455 1.314 . S
C1452 H1458 0.930 1_545 S
C1453 N1455 1.279 . S
C1453 C1456 1.358 . S
C1453 H1459 0.930 . S
C1454 C1452 1.353 . S
C1454 C1457 1.348 . S
C1454 H1492 0.929 1_545 S
N1455 Li1410 1.990 . S
N1455 C1452 1.314 . S
N1455 C1453 1.279 . S
C1456 C1453 1.358 . S
C1456 C1457 1.356 . S
C1456 H1493 0.930 . S
C1457 C1454 1.348 . S
C1457 C1456 1.356 . S
H1458 C1452 0.930 1_565 S
H1459 C1453 0.930 . S
C1460 N1461 1.314 . S
C1460 C1462 1.353 . S
C1460 H1466 0.930 . S
N1461 Li1411 1.990 . S
N1461 C1460 1.314 . S
N1461 C1464 1.279 . S
C1462 C1460 1.353 . S
C1462 C1465 1.348 . S
C1462 H1494 0.929 . S
C1463 C1464 1.358 . S
C1463 C1465 1.356 . S
C1463 H1495 0.930 . S
C1464 N1461 1.279 . S
C1464 C1463 1.358 . S
C1464 H1467 0.930 . S
C1465 C1462 1.348 . S
C1465 C1463 1.356 . S
H1466 C1460 0.930 . S
H1467 C1464 0.930 . S
O1468 Li1408 1.956 1_565 S
O1468 Li1409 1.970 . S
O1468 Li1410 1.961 1_565 S
O1468 C1412 1.325 . S
O1469 Li1408 1.970 . S
O1469 Li1409 1.956 1_545 S
O1469 Li1411 1.961 . S
O1469 C1418 1.325 . S
O1470 Li1408 1.961 . S
O1470 Li1410 1.956 . S
O1470 Li1411 1.970 . S
O1470 C1440 1.325 . S
O1471 Li1409 1.961 1_545 S
O1471 Li1410 1.970 . S
O1471 Li1411 1.956 . S
O1471 C1446 1.325 . S
H1472 C1414 0.929 . S
H1473 C1415 0.930 . S
H1474 C1416 0.930 . S
H1475 C1417 0.930 . S
H1476 C1419 0.930 . S
H1477 C1421 0.929 . S
H1478 C1422 0.930 . S
H1479 C1423 0.936 . S
H1480 C1426 0.930 1_565 S
H1481 C1429 0.929 . S
H1482 C1434 0.929 . S
H1483 C1435 0.930 . S
H1484 C1442 0.929 . S
H1485 C1443 0.930 . S
H1486 C1444 0.930 . S
H1487 C1445 0.930 . S
H1488 C1447 0.929 . S
H1489 C1448 0.930 . S
H1490 C1449 0.930 . S
H1491 C1450 0.930 . S
H1492 C1454 0.929 1_565 S
H1493 C1456 0.930 . S
H1494 C1462 0.929 . S
H1495 C1463 0.930 . S
Li1496 N1513 1.990 . S
Li1496 O1556 1.956 . S
Li1496 O1557 1.970 . S
Li1496 O1558 1.961 . S
Li1497 N1521 1.990 . S
Li1497 O1556 1.970 . S
Li1497 O1557 1.956 . S
Li1497 O1559 1.961 . S
Li1498 N1543 1.990 . S
Li1498 O1556 1.961 . S
Li1498 O1558 1.956 . S
Li1498 O1559 1.970 . S
Li1499 N1549 1.990 . S
Li1499 O1557 1.961 . S
Li1499 O1558 1.970 . S
Li1499 O1559 1.956 . S
C1500 C1502 1.348 . S
C1500 C1503 1.356 . S
C1500 O1556 1.325 . S
N1501 C1504 1.314 . S
N1501 C1505 1.279 . S
C1502 C1500 1.348 . S
C1502 C1504 1.353 . S
C1502 H1560 0.929 . S
C1503 C1500 1.356 . S
C1503 C1505 1.358 . S
C1503 H1561 0.930 . S
C1504 N1501 1.314 . S
C1504 C1502 1.353 . S
C1504 H1562 0.930 . S
C1505 N1501 1.279 . S
C1505 C1503 1.358 . S
C1505 H1563 0.930 . S
C1506 C1509 1.348 . S
C1506 C1510 1.356 . S
C1506 O1557 1.325 . S
C1507 N1508 1.279 . S
C1507 C1510 1.358 . S
C1507 H1564 0.930 . S
N1508 C1507 1.279 . S
N1508 C1511 1.314 . S
C1509 C1506 1.348 . S
C1509 C1511 1.353 . S
C1509 H1565 0.929 . S
C1510 C1506 1.356 . S
C1510 C1507 1.358 . S
C1510 H1566 0.930 . S
C1511 N1508 1.314 . S
C1511 C1509 1.353 . S
C1511 H1567 0.930 . S
C1512 N1513 1.314 . S
C1512 C1517 1.353 . S
C1512 H1518 0.930 . S
N1513 Li1496 1.990 . S
N1513 C1512 1.314 . S
N1513 C1515 1.279 . S
C1514 C1515 1.358 . S
C1514 C1516 1.356 . S
C1514 H1568 0.930 . S
C1515 N1513 1.279 . S
C1515 C1514 1.358 . S
C1515 H1519 0.930 . S
C1516 C1514 1.356 . S
C1516 C1517 1.348 . S
C1517 C1512 1.353 . S
C1517 C1516 1.348 . S
C1517 H1569 0.929 . S
H1518 C1512 0.930 . S
H1519 C1515 0.930 . S
C1520 N1521 1.314 . S
C1520 C1522 1.353 . S
C1520 H1526 0.930 . S
N1521 Li1497 1.990 . S
N1521 C1520 1.314 . S
N1521 C1524 1.279 . S
C1522 C1520 1.353 . S
C1522 C1525 1.348 . S
C1522 H1570 0.929 . S
C1523 C1524 1.358 . S
C1523 C1525 1.356 . S
C1523 H1571 0.930 . S
C1524 N1521 1.279 . S
C1524 C1523 1.358 . S
C1524 H1527 0.930 . S
C1525 C1522 1.348 . S
C1525 C1523 1.356 . S
H1526 C1520 0.930 . S
H1527 C1524 0.930 . S
C1528 C1530 1.348 . S
C1528 C1531 1.356 . S
C1528 O1558 1.325 . S
N1529 C1532 1.314 . S
N1529 C1533 1.279 . S
C1530 C1528 1.348 . S
C1530 C1532 1.353 . S
C1530 H1572 0.929 . S
C1531 C1528 1.356 . S
C1531 C1533 1.358 . S
C1531 H1573 0.930 . S
C1532 N1529 1.314 . S
C1532 C1530 1.353 . S
C1532 H1574 0.930 . S
C1533 N1529 1.279 . S
C1533 C1531 1.358 . S
C1533 H1575 0.930 . S
C1534 C1535 1.348 . S
C1534 C1536 1.356 . S
C1534 O1559 1.325 . S
C1535 C1534 1.348 . S
C1535 C1537 1.353 . S
C1535 H1576 0.929 . S
C1536 C1534 1.356 . S
C1536 C1538 1.358 . S
C1536 H1577 0.930 . S
C1537 C1535 1.353 . S
C1537 N1539 1.314 . S
C1537 H1578 0.930 . S
C1538 C1536 1.358 . S
C1538 N1539 1.279 . S
C1538 H1579 0.930 . S
N1539 C1537 1.314 . S
N1539 C1538 1.279 . S
C1540 C1542 1.353 . S
C1540 N1543 1.314 . S
C1540 H1546 0.930 . S
C1541 N1543 1.279 . S
C1541 C1544 1.358 . S
C1541 H1547 0.930 . S
C1542 C1540 1.353 . S
C1542 C1545 1.348 . S
C1542 H1580 0.929 . S
N1543 Li1498 1.990 . S
N1543 C1540 1.314 . S
N1543 C1541 1.279 . S
C1544 C1541 1.358 . S
C1544 C1545 1.356 . S
C1544 H1581 0.930 . S
C1545 C1542 1.348 . S
C1545 C1544 1.356 . S
H1546 C1540 0.930 . S
H1547 C1541 0.930 . S
C1548 N1549 1.314 . S
C1548 C1550 1.353 . S
C1548 H1554 0.930 . S
N1549 Li1499 1.990 . S
N1549 C1548 1.314 . S
N1549 C1552 1.279 . S
C1550 C1548 1.353 . S
C1550 C1553 1.348 . S
C1550 H1582 0.929 . S
C1551 C1552 1.358 . S
C1551 C1553 1.356 . S
C1551 H1583 0.930 . S
C1552 N1549 1.279 . S
C1552 C1551 1.358 . S
C1552 H1555 0.930 . S
C1553 C1550 1.348 . S
C1553 C1551 1.356 . S
H1554 C1548 0.930 . S
H1555 C1552 0.930 . S
O1556 Li1496 1.956 . S
O1556 Li1497 1.970 . S
O1556 Li1498 1.961 . S
O1556 C1500 1.325 . S
O1557 Li1496 1.970 . S
O1557 Li1497 1.956 . S
O1557 Li1499 1.961 . S
O1557 C1506 1.325 . S
O1558 Li1496 1.961 . S
O1558 Li1498 1.956 . S
O1558 Li1499 1.970 . S
O1558 C1528 1.325 . S
O1559 Li1497 1.961 . S
O1559 Li1498 1.970 . S
O1559 Li1499 1.956 . S
O1559 C1534 1.325 . S
H1560 C1502 0.929 . S
H1561 C1503 0.930 . S
H1562 C1504 0.930 . S
H1563 C1505 0.930 . S
H1564 C1507 0.930 . S
H1565 C1509 0.929 . S
H1566 C1510 0.930 . S
H1567 C1511 0.930 . S
H1568 C1514 0.930 . S
H1569 C1517 0.929 . S
H1570 C1522 0.929 . S
H1571 C1523 0.930 . S
H1572 C1530 0.929 . S
H1573 C1531 0.930 . S
H1574 C1532 0.930 . S
H1575 C1533 0.930 . S
H1576 C1535 0.929 . S
H1577 C1536 0.930 . S
H1578 C1537 0.930 . S
H1579 C1538 0.930 . S
H1580 C1542 0.929 . S
H1581 C1544 0.930 . S
H1582 C1550 0.929 . S
H1583 C1551 0.930 . S
Li1584 N1601 1.990 . S
Li1584 O1644 1.956 . S
Li1584 O1645 1.970 . S
Li1584 O1646 1.961 . S
Li1585 N1609 1.990 . S
Li1585 O1644 1.970 . S
Li1585 O1645 1.956 . S
Li1585 O1647 1.961 . S
Li1586 N1631 1.990 . S
Li1586 O1644 1.961 . S
Li1586 O1646 1.956 . S
Li1586 O1647 1.970 . S
Li1587 N1637 1.990 . S
Li1587 O1645 1.961 . S
Li1587 O1646 1.970 . S
Li1587 O1647 1.956 . S
C1588 C1590 1.348 . S
C1588 C1591 1.356 . S
C1588 O1644 1.325 . S
N1589 C1592 1.314 . S
N1589 C1593 1.279 . S
C1590 C1588 1.348 . S
C1590 C1592 1.353 . S
C1590 H1648 0.929 . S
C1591 C1588 1.356 . S
C1591 C1593 1.358 . S
C1591 H1649 0.930 . S
C1592 N1589 1.314 . S
C1592 C1590 1.353 . S
C1592 H1650 0.930 . S
C1593 N1589 1.279 . S
C1593 C1591 1.358 . S
C1593 H1651 0.930 . S
C1594 C1597 1.348 . S
C1594 C1598 1.356 . S
C1594 O1645 1.325 . S
C1595 N1596 1.279 . S
C1595 C1598 1.358 . S
C1595 H1652 0.930 . S
N1596 C1595 1.279 . S
N1596 C1599 1.314 . S
C1597 C1594 1.348 . S
C1597 C1599 1.353 . S
C1597 H1653 0.929 . S
C1598 C1594 1.356 . S
C1598 C1595 1.358 . S
C1598 H1654 0.930 . S
C1599 N1596 1.314 . S
C1599 C1597 1.353 . S
C1599 H1655 0.930 . S
C1600 N1601 1.314 . S
C1600 C1605 1.353 . S
C1600 H1606 0.930 . S
N1601 Li1584 1.990 . S
N1601 C1600 1.314 . S
N1601 C1603 1.279 . S
C1602 C1603 1.358 . S
C1602 C1604 1.356 . S
C1602 H1656 0.930 . S
C1603 N1601 1.279 . S
C1603 C1602 1.358 . S
C1603 H1607 0.930 . S
C1604 C1602 1.356 . S
C1604 C1605 1.348 . S
C1605 C1600 1.353 . S
C1605 C1604 1.348 . S
C1605 H1657 0.929 . S
H1606 C1600 0.930 . S
H1607 C1603 0.930 . S
C1608 N1609 1.314 . S
C1608 C1610 1.353 . S
C1608 H1614 0.930 . S
N1609 Li1585 1.990 . S
N1609 C1608 1.314 . S
N1609 C1612 1.279 . S
C1610 C1608 1.353 . S
C1610 C1613 1.348 . S
C1610 H1658 0.929 . S
C1611 C1612 1.358 . S
C1611 C1613 1.356 . S
C1611 H1659 0.930 . S
C1612 N1609 1.279 . S
C1612 C1611 1.358 . S
C1612 H1615 0.930 . S
C1613 C1610 1.348 . S
C1613 C1611 1.356 . S
H1614 C1608 0.930 . S
H1615 C1612 0.930 . S
C1616 C1618 1.348 . S
C1616 C1619 1.356 . S
C1616 O1646 1.325 . S
N1617 C1620 1.314 . S
N1617 C1621 1.279 . S
C1618 C1616 1.348 . S
C1618 C1620 1.353 . S
C1618 H1660 0.929 . S
C1619 C1616 1.356 . S
C1619 C1621 1.358 . S
C1619 H1661 0.930 . S
C1620 N1617 1.314 . S
C1620 C1618 1.353 . S
C1620 H1662 0.930 . S
C1621 N1617 1.279 . S
C1621 C1619 1.358 . S
C1621 H1663 0.930 . S
C1622 C1623 1.348 . S
C1622 C1624 1.356 . S
C1622 O1647 1.325 . S
C1623 C1622 1.348 . S
C1623 C1625 1.353 . S
C1623 H1664 0.929 . S
C1624 C1622 1.356 . S
C1624 C1626 1.358 . S
C1624 H1665 0.930 . S
C1625 C1623 1.353 . S
C1625 N1627 1.314 . S
C1625 H1666 0.930 . S
C1626 C1624 1.358 . S
C1626 N1627 1.279 . S
C1626 H1667 0.930 . S
N1627 C1625 1.314 . S
N1627 C1626 1.279 . S
C1628 C1630 1.353 . S
C1628 N1631 1.314 . S
C1628 H1634 0.930 . S
C1629 N1631 1.279 . S
C1629 C1632 1.358 . S
C1629 H1635 0.930 . S
C1630 C1628 1.353 . S
C1630 C1633 1.348 . S
C1630 H1668 0.929 . S
N1631 Li1586 1.990 . S
N1631 C1628 1.314 . S
N1631 C1629 1.279 . S
C1632 C1629 1.358 . S
C1632 C1633 1.356 . S
C1632 H1669 0.930 . S
C1633 C1630 1.348 . S
C1633 C1632 1.356 . S
H1634 C1628 0.930 . S
H1635 C1629 0.930 . S
C1636 N1637 1.314 . S
C1636 C1638 1.353 . S
C1636 H1642 0.930 . S
N1637 Li1587 1.990 . S
N1637 C1636 1.314 . S
N1637 C1640 1.279 . S
C1638 C1636 1.353 . S
C1638 C1641 1.348 . S
C1638 H1670 0.929 . S
C1639 C1640 1.358 . S
C1639 C1641 1.356 . S
C1639 H1671 0.930 . S
C1640 N1637 1.279 . S
C1640 C1639 1.358 . S
C1640 H1643 0.930 . S
C1641 C1638 1.348 . S
C1641 C1639 1.356 . S
H1642 C1636 0.930 . S
H1643 C1640 0.930 . S
O1644 Li1584 1.956 . S
O1644 Li1585 1.970 . S
O1644 Li1586 1.961 . S
O1644 C1588 1.325 . S
O1645 Li1584 1.970 . S
O1645 Li1585 1.956 . S
O1645 Li1587 1.961 . S
O1645 C1594 1.325 . S
O1646 Li1584 1.961 . S
O1646 Li1586 1.956 . S
O1646 Li1587 1.970 . S
O1646 C1616 1.325 . S
O1647 Li1585 1.961 . S
O1647 Li1586 1.970 . S
O1647 Li1587 1.956 . S
O1647 C1622 1.325 . S
H1648 C1590 0.929 . S
H1649 C1591 0.930 . S
H1650 C1592 0.930 . S
H1651 C1593 0.930 . S
H1652 C1595 0.930 . S
H1653 C1597 0.929 . S
H1654 C1598 0.930 . S
H1655 C1599 0.930 . S
H1656 C1602 0.930 . S
H1657 C1605 0.929 . S
H1658 C1610 0.929 . S
H1659 C1611 0.930 . S
H1660 C1618 0.929 . S
H1661 C1619 0.930 . S
H1662 C1620 0.930 . S
H1663 C1621 0.930 . S
H1664 C1623 0.929 . S
H1665 C1624 0.930 . S
H1666 C1625 0.930 . S
H1667 C1626 0.930 . S
H1668 C1630 0.929 . S
H1669 C1632 0.930 . S
H1670 C1638 0.929 . S
H1671 C1639 0.930 . S
Li1672 N1689 1.990 . S
Li1672 O1732 1.956 . S
Li1672 O1733 1.970 . S
Li1672 O1734 1.961 1_545 S
Li1673 N1697 1.990 . S
Li1673 O1732 1.970 . S
Li1673 O1733 1.956 . S
Li1673 O1735 1.961 . S
Li1674 N1719 1.990 . S
Li1674 O1732 1.961 . S
Li1674 O1734 1.956 1_545 S
Li1674 O1735 1.970 . S
Li1675 N1725 1.990 1_545 S
Li1675 O1733 1.961 . S
Li1675 O1734 1.970 1_545 S
Li1675 O1735 1.956 . S
C1676 C1678 1.348 . S
C1676 C1679 1.356 . S
C1676 O1732 1.325 . S
N1677 C1680 1.314 . S
N1677 C1681 1.279 . S
C1678 C1676 1.348 . S
C1678 C1680 1.353 . S
C1678 H1736 0.929 . S
C1679 C1676 1.356 . S
C1679 C1681 1.358 . S
C1679 H1737 0.930 . S
C1680 N1677 1.314 . S
C1680 C1678 1.353 . S
C1680 H1738 0.930 . S
C1681 N1677 1.279 . S
C1681 C1679 1.358 . S
C1681 H1739 0.930 . S
C1682 C1685 1.348 . S
C1682 C1686 1.356 . S
C1682 O1733 1.325 . S
C1683 N1684 1.279 . S
C1683 C1686 1.358 . S
C1683 H1740 0.930 . S
N1684 C1683 1.279 . S
N1684 C1687 1.314 . S
C1685 C1682 1.348 . S
C1685 C1687 1.353 . S
C1685 H1741 0.929 . S
C1686 C1682 1.356 . S
C1686 C1683 1.358 . S
C1686 H1742 0.930 . S
C1687 N1684 1.314 . S
C1687 C1685 1.353 . S
C1687 H1743 0.930 . S
C1688 N1689 1.314 . S
C1688 C1693 1.353 . S
C1688 H1694 0.930 1_545 S
N1689 Li1672 1.990 . S
N1689 C1688 1.314 . S
N1689 C1691 1.279 . S
C1690 C1691 1.358 . S
C1690 C1692 1.356 . S
C1690 H1744 0.930 . S
C1691 N1689 1.279 . S
C1691 C1690 1.358 . S
C1691 H1695 0.930 . S
C1692 C1690 1.356 . S
C1692 C1693 1.348 . S
C1693 C1688 1.353 . S
C1693 C1692 1.348 . S
C1693 H1745 0.929 1_545 S
H1694 C1688 0.930 1_565 S
H1695 C1691 0.930 . S
C1696 N1697 1.314 . S
C1696 C1698 1.353 . S
C1696 H1702 0.930 . S
N1697 Li1673 1.990 . S
N1697 C1696 1.314 . S
N1697 C1700 1.279 . S
C1698 C1696 1.353 . S
C1698 C1701 1.348 . S
C1698 H1746 0.929 . S
C1699 C1700 1.358 . S
C1699 C1701 1.356 . S
C1699 H1747 0.930 . S
C1700 N1697 1.279 . S
C1700 C1699 1.358 . S
C1700 H1703 0.930 . S
C1701 C1698 1.348 . S
C1701 C1699 1.356 . S
H1702 C1696 0.930 . S
H1703 C1700 0.930 . S
C1704 C1706 1.348 . S
C1704 C1707 1.356 . S
C1704 O1734 1.325 . S
N1705 C1708 1.314 . S
N1705 C1709 1.279 . S
C1706 C1704 1.348 . S
C1706 C1708 1.353 . S
C1706 H1748 0.929 . S
C1707 C1704 1.356 . S
C1707 C1709 1.358 . S
C1707 H1749 0.930 . S
C1708 N1705 1.314 . S
C1708 C1706 1.353 . S
C1708 H1750 0.930 . S
C1709 N1705 1.279 . S
C1709 C1707 1.358 . S
C1709 H1751 0.930 . S
C1710 C1711 1.348 . S
C1710 C1712 1.356 . S
C1710 O1735 1.325 . S
C1711 C1710 1.348 . S
C1711 C1713 1.353 . S
C1711 H1752 0.929 . S
C1712 C1710 1.356 . S
C1712 C1714 1.358 . S
C1712 H1753 0.930 . S
C1713 C1711 1.353 . S
C1713 N1715 1.314 . S
C1713 H1754 0.930 . S
C1714 C1712 1.358 . S
C1714 N1715 1.279 . S
C1714 H1755 0.930 . S
N1715 C1713 1.314 . S
N1715 C1714 1.279 . S
C1716 C1718 1.353 . S
C1716 N1719 1.314 . S
C1716 H1722 0.930 . S
C1717 N1719 1.279 1_565 S
C1717 C1720 1.358 . S
C1717 H1723 0.930 . S
C1718 C1716 1.353 . S
C1718 C1721 1.348 . S
C1718 H1756 0.929 . S
N1719 Li1674 1.990 . S
N1719 C1716 1.314 . S
N1719 C1717 1.279 1_545 S
C1720 C1717 1.358 . S
C1720 C1721 1.356 1_565 S
C1720 H1757 0.930 . S
C1721 C1718 1.348 . S
C1721 C1720 1.356 1_545 S
H1722 C1716 0.930 . S
H1723 C1717 0.930 . S
C1724 N1725 1.314 . S
C1724 C1726 1.353 . S
C1724 H1730 0.930 . S
N1725 Li1675 1.990 1_565 S
N1725 C1724 1.314 . S
N1725 C1728 1.279 . S
C1726 C1724 1.353 . S
C1726 C1729 1.348 . S
C1726 H1758 0.929 . S
C1727 C1728 1.358 . S
C1727 C1729 1.356 . S
C1727 H1759 0.930 . S
C1728 N1725 1.279 . S
C1728 C1727 1.358 . S
C1728 H1731 0.930 . S
C1729 C1726 1.348 . S
C1729 C1727 1.356 . S
H1730 C1724 0.930 . S
H1731 C1728 0.930 . S
O1732 Li1672 1.956 . S
O1732 Li1673 1.970 . S
O1732 Li1674 1.961 . S
O1732 C1676 1.325 . S
O1733 Li1672 1.970 . S
O1733 Li1673 1.956 . S
O1733 Li1675 1.961 . S
O1733 C1682 1.325 . S
O1734 Li1672 1.961 1_565 S
O1734 Li1674 1.956 1_565 S
O1734 Li1675 1.970 1_565 S
O1734 C1704 1.325 . S
O1735 Li1673 1.961 . S
O1735 Li1674 1.970 . S
O1735 Li1675 1.956 . S
O1735 C1710 1.325 . S
H1736 C1678 0.929 . S
H1737 C1679 0.930 . S
H1738 C1680 0.930 . S
H1739 C1681 0.930 . S
H1740 C1683 0.930 . S
H1741 C1685 0.929 . S
H1742 C1686 0.930 . S
H1743 C1687 0.930 . S
H1744 C1690 0.930 . S
H1745 C1693 0.929 1_565 S
H1746 C1698 0.929 . S
H1747 C1699 0.930 . S
H1748 C1706 0.929 . S
H1749 C1707 0.930 . S
H1750 C1708 0.930 . S
H1751 C1709 0.930 . S
H1752 C1711 0.929 . S
H1753 C1712 0.930 . S
H1754 C1713 0.930 . S
H1755 C1714 0.930 . S
H1756 C1718 0.929 . S
H1757 C1720 0.930 . S
H1758 C1726 0.929 . S
H1759 C1727 0.930 . S
Li1760 N1777 1.990 . S
Li1760 O1820 1.956 . S
Li1760 O1821 1.970 . S
Li1760 O1822 1.961 . S
Li1761 N1785 1.990 . S
Li1761 O1820 1.970 . S
Li1761 O1821 1.956 . S
Li1761 O1823 1.961 . S
Li1762 N1807 1.990 1_554 S
Li1762 O1820 1.961 . S
Li1762 O1822 1.956 . S
Li1762 O1823 1.970 . S
Li1763 N1813 1.990 . S
Li1763 O1821 1.961 . S
Li1763 O1822 1.970 . S
Li1763 O1823 1.956 . S
C1764 C1766 1.348 . S
C1764 C1767 1.356 . S
C1764 O1820 1.325 . S
N1765 C1768 1.314 . S
N1765 C1769 1.279 . S
C1766 C1764 1.348 . S
C1766 C1768 1.353 . S
C1766 H1824 0.929 . S
C1767 C1764 1.356 . S
C1767 C1769 1.358 . S
C1767 H1825 0.930 . S
C1768 N1765 1.314 . S
C1768 C1766 1.353 . S
C1768 H1826 0.930 . S
C1769 N1765 1.279 . S
C1769 C1767 1.358 . S
C1769 H1827 0.930 . S
C1770 C1773 1.348 . S
C1770 C1774 1.356 . S
C1770 O1821 1.325 . S
C1771 N1772 1.279 . S
C1771 C1774 1.358 . S
C1771 H1828 0.930 . S
N1772 C1771 1.279 . S
N1772 C1775 1.314 . S
C1773 C1770 1.348 . S
C1773 C1775 1.353 . S
C1773 H1829 0.929 . S
C1774 C1770 1.356 . S
C1774 C1771 1.358 . S
C1774 H1830 0.930 . S
C1775 N1772 1.314 . S
C1775 C1773 1.353 . S
C1775 H1831 0.930 . S
C1776 N1777 1.314 . S
C1776 C1781 1.353 . S
C1776 H1782 0.930 . S
N1777 Li1760 1.990 . S
N1777 C1776 1.314 . S
N1777 C1779 1.279 . S
C1778 C1779 1.358 . S
C1778 C1780 1.356 . S
C1778 H1832 0.930 . S
C1779 N1777 1.279 . S
C1779 C1778 1.358 . S
C1779 H1783 0.930 . S
C1780 C1778 1.356 . S
C1780 C1781 1.348 . S
C1781 C1776 1.353 . S
C1781 C1780 1.348 . S
C1781 H1833 0.929 . S
H1782 C1776 0.930 . S
H1783 C1779 0.930 . S
C1784 N1785 1.314 . S
C1784 C1786 1.353 . S
C1784 H1790 0.957 . S
N1785 Li1761 1.990 . S
N1785 C1784 1.314 . S
N1785 C1788 1.279 . S
C1786 C1784 1.353 . S
C1786 C1789 1.348 . S
C1786 H1834 0.929 1_554 S
C1787 C1788 1.358 . S
C1787 C1789 1.356 . S
C1787 H1835 0.930 . S
C1788 N1785 1.279 . S
C1788 C1787 1.358 . S
C1788 H1791 0.930 . S
C1789 C1786 1.348 . S
C1789 C1787 1.356 . S
H1790 C1784 0.957 . S
H1791 C1788 0.930 . S
C1792 C1794 1.348 . S
C1792 C1795 1.356 . S
C1792 O1822 1.325 . S
N1793 C1796 1.314 . S
N1793 C1797 1.279 . S
C1794 C1792 1.348 . S
C1794 C1796 1.353 . S
C1794 H1836 0.929 . S
C1795 C1792 1.356 . S
C1795 C1797 1.358 . S
C1795 H1837 0.930 . S
C1796 N1793 1.314 . S
C1796 C1794 1.353 . S
C1796 H1838 0.930 . S
C1797 N1793 1.279 . S
C1797 C1795 1.358 . S
C1797 H1839 0.930 . S
C1798 C1799 1.348 . S
C1798 C1800 1.356 . S
C1798 O1823 1.325 1_556 S
C1799 C1798 1.348 . S
C1799 C1801 1.353 . S
C1799 H1840 0.929 . S
C1800 C1798 1.356 . S
C1800 C1802 1.358 . S
C1800 H1841 0.930 1_556 S
C1801 C1799 1.353 . S
C1801 N1803 1.314 . S
C1801 H1842 0.930 . S
C1802 C1800 1.358 . S
C1802 N1803 1.279 . S
C1802 H1843 0.930 . S
N1803 C1801 1.314 . S
N1803 C1802 1.279 . S
C1804 C1806 1.353 . S
C1804 N1807 1.314 . S
C1804 H1810 0.930 . S
C1805 N1807 1.279 . S
C1805 C1808 1.358 . S
C1805 H1811 0.930 . S
C1806 C1804 1.353 . S
C1806 C1809 1.348 . S
C1806 H1844 0.929 . S
N1807 Li1762 1.990 1_556 S
N1807 C1804 1.314 . S
N1807 C1805 1.279 . S
C1808 C1805 1.358 . S
C1808 C1809 1.356 . S
C1808 H1845 0.930 . S
C1809 C1806 1.348 . S
C1809 C1808 1.356 . S
H1810 C1804 0.930 . S
H1811 C1805 0.930 . S
C1812 N1813 1.314 . S
C1812 C1814 1.353 . S
C1812 H1818 0.930 . S
N1813 Li1763 1.990 . S
N1813 C1812 1.314 . S
N1813 C1816 1.279 . S
C1814 C1812 1.353 . S
C1814 C1817 1.348 . S
C1814 H1846 0.929 . S
C1815 C1816 1.358 . S
C1815 C1817 1.356 . S
C1815 H1847 0.930 1_554 S
C1816 N1813 1.279 . S
C1816 C1815 1.358 . S
C1816 H1819 0.930 1_554 S
C1817 C1814 1.348 . S
C1817 C1815 1.356 . S
H1818 C1812 0.930 . S
H1819 C1816 0.930 1_556 S
O1820 Li1760 1.956 . S
O1820 Li1761 1.970 . S
O1820 Li1762 1.961 . S
O1820 C1764 1.325 . S
O1821 Li1760 1.970 . S
O1821 Li1761 1.956 . S
O1821 Li1763 1.961 . S
O1821 C1770 1.325 . S
O1822 Li1760 1.961 . S
O1822 Li1762 1.956 . S
O1822 Li1763 1.970 . S
O1822 C1792 1.325 . S
O1823 Li1761 1.961 . S
O1823 Li1762 1.970 . S
O1823 Li1763 1.956 . S
O1823 C1798 1.325 1_554 S
H1824 C1766 0.929 . S
H1825 C1767 0.930 . S
H1826 C1768 0.930 . S
H1827 C1769 0.930 . S
H1828 C1771 0.930 . S
H1829 C1773 0.929 . S
H1830 C1774 0.930 . S
H1831 C1775 0.930 . S
H1832 C1778 0.930 . S
H1833 C1781 0.929 . S
H1834 C1786 0.929 1_556 S
H1835 C1787 0.930 . S
H1836 C1794 0.929 . S
H1837 C1795 0.930 . S
H1838 C1796 0.930 . S
H1839 C1797 0.930 . S
H1840 C1799 0.929 . S
H1841 C1800 0.930 1_554 S
H1842 C1801 0.930 . S
H1843 C1802 0.930 . S
H1844 C1806 0.929 . S
H1845 C1808 0.930 . S
H1846 C1814 0.929 . S
H1847 C1815 0.930 1_556 S
Li1848 N1865 1.990 . S
Li1848 O1908 1.956 . S
Li1848 O1909 1.970 . S
Li1848 O1910 1.961 . S
Li1849 N1873 1.990 . S
Li1849 O1908 1.970 . S
Li1849 O1909 1.956 . S
Li1849 O1911 1.961 . S
Li1850 N1895 1.990 . S
Li1850 O1908 1.961 . S
Li1850 O1910 1.956 . S
Li1850 O1911 1.970 . S
Li1851 N1901 1.990 . S
Li1851 O1909 1.961 . S
Li1851 O1910 1.970 . S
Li1851 O1911 1.956 . S
C1852 C1854 1.348 . S
C1852 C1855 1.356 . S
C1852 O1908 1.325 . S
N1853 C1856 1.314 . S
N1853 C1857 1.279 . S
C1854 C1852 1.348 . S
C1854 C1856 1.353 . S
C1854 H1912 0.929 . S
C1855 C1852 1.356 . S
C1855 C1857 1.358 . S
C1855 H1913 0.930 . S
C1856 N1853 1.314 . S
C1856 C1854 1.353 . S
C1856 H1914 0.930 . S
C1857 N1853 1.279 . S
C1857 C1855 1.358 . S
C1857 H1915 0.930 . S
C1858 C1861 1.348 . S
C1858 C1862 1.356 . S
C1858 O1909 1.325 . S
C1859 N1860 1.279 . S
C1859 C1862 1.358 . S
C1859 H1916 0.930 . S
N1860 C1859 1.279 . S
N1860 C1863 1.314 . S
C1861 C1858 1.348 . S
C1861 C1863 1.353 . S
C1861 H1917 0.929 . S
C1862 C1858 1.356 . S
C1862 C1859 1.358 . S
C1862 H1918 0.930 . S
C1863 N1860 1.314 . S
C1863 C1861 1.353 . S
C1863 H1919 0.930 . S
C1864 N1865 1.314 . S
C1864 C1869 1.353 . S
C1864 H1870 0.930 . S
N1865 Li1848 1.990 . S
N1865 C1864 1.314 . S
N1865 C1867 1.279 . S
C1866 C1867 1.358 . S
C1866 C1868 1.356 . S
C1866 H1920 0.930 . S
C1867 N1865 1.279 . S
C1867 C1866 1.358 . S
C1867 H1871 0.930 . S
C1868 C1866 1.356 . S
C1868 C1869 1.348 . S
C1869 C1864 1.353 . S
C1869 C1868 1.348 . S
C1869 H1921 0.929 . S
H1870 C1864 0.930 . S
H1871 C1867 0.930 . S
C1872 N1873 1.314 . S
C1872 C1874 1.353 . S
C1872 H1878 0.930 . S
N1873 Li1849 1.990 . S
N1873 C1872 1.314 . S
N1873 C1876 1.279 . S
C1874 C1872 1.353 . S
C1874 C1877 1.348 . S
C1874 H1922 0.929 . S
C1875 C1876 1.358 . S
C1875 C1877 1.356 . S
C1875 H1923 0.930 . S
C1876 N1873 1.279 . S
C1876 C1875 1.358 . S
C1876 H1879 0.930 . S
C1877 C1874 1.348 . S
C1877 C1875 1.356 . S
H1878 C1872 0.930 . S
H1879 C1876 0.930 . S
C1880 C1882 1.348 . S
C1880 C1883 1.356 . S
C1880 O1910 1.325 . S
N1881 C1884 1.314 . S
N1881 C1885 1.279 . S
C1882 C1880 1.348 . S
C1882 C1884 1.353 . S
C1882 H1924 0.929 . S
C1883 C1880 1.356 . S
C1883 C1885 1.358 . S
C1883 H1925 0.930 . S
C1884 N1881 1.314 . S
C1884 C1882 1.353 . S
C1884 H1926 0.930 . S
C1885 N1881 1.279 . S
C1885 C1883 1.358 . S
C1885 H1927 0.930 . S
C1886 C1887 1.348 . S
C1886 C1888 1.356 . S
C1886 O1911 1.325 . S
C1887 C1886 1.348 . S
C1887 C1889 1.353 . S
C1887 H1928 0.929 . S
C1888 C1886 1.356 . S
C1888 C1890 1.358 . S
C1888 H1929 0.930 . S
C1889 C1887 1.353 . S
C1889 N1891 1.314 . S
C1889 H1930 0.930 . S
C1890 C1888 1.358 . S
C1890 N1891 1.279 . S
C1890 H1931 0.930 . S
N1891 C1889 1.314 . S
N1891 C1890 1.279 . S
C1892 C1894 1.353 . S
C1892 N1895 1.314 . S
C1892 H1898 0.930 . S
C1893 N1895 1.279 . S
C1893 C1896 1.358 . S
C1893 H1899 0.930 . S
C1894 C1892 1.353 . S
C1894 C1897 1.348 . S
C1894 H1932 0.929 . S
N1895 Li1850 1.990 . S
N1895 C1892 1.314 . S
N1895 C1893 1.279 . S
C1896 C1893 1.358 . S
C1896 C1897 1.356 . S
C1896 H1933 0.930 . S
C1897 C1894 1.348 . S
C1897 C1896 1.356 . S
H1898 C1892 0.930 . S
H1899 C1893 0.930 . S
C1900 N1901 1.314 . S
C1900 C1902 1.353 . S
C1900 H1906 0.930 . S
N1901 Li1851 1.990 . S
N1901 C1900 1.314 . S
N1901 C1904 1.279 . S
C1902 C1900 1.353 . S
C1902 C1905 1.348 . S
C1902 H1934 0.929 . S
C1903 C1904 1.358 . S
C1903 C1905 1.356 . S
C1903 H1935 0.930 . S
C1904 N1901 1.279 . S
C1904 C1903 1.358 . S
C1904 H1907 0.930 . S
C1905 C1902 1.348 . S
C1905 C1903 1.356 . S
H1906 C1900 0.930 . S
H1907 C1904 0.930 . S
O1908 Li1848 1.956 . S
O1908 Li1849 1.970 . S
O1908 Li1850 1.961 . S
O1908 C1852 1.325 . S
O1909 Li1848 1.970 . S
O1909 Li1849 1.956 . S
O1909 Li1851 1.961 . S
O1909 C1858 1.325 . S
O1910 Li1848 1.961 . S
O1910 Li1850 1.956 . S
O1910 Li1851 1.970 . S
O1910 C1880 1.325 . S
O1911 Li1849 1.961 . S
O1911 Li1850 1.970 . S
O1911 Li1851 1.956 . S
O1911 C1886 1.325 . S
H1912 C1854 0.929 . S
H1913 C1855 0.930 . S
H1914 C1856 0.930 . S
H1915 C1857 0.930 . S
H1916 C1859 0.930 . S
H1917 C1861 0.929 . S
H1918 C1862 0.930 . S
H1919 C1863 0.930 . S
H1920 C1866 0.930 . S
H1921 C1869 0.929 . S
H1922 C1874 0.929 . S
H1923 C1875 0.930 . S
H1924 C1882 0.929 . S
H1925 C1883 0.930 . S
H1926 C1884 0.930 . S
H1927 C1885 0.930 . S
H1928 C1887 0.929 . S
H1929 C1888 0.930 . S
H1930 C1889 0.930 . S
H1931 C1890 0.930 . S
H1932 C1894 0.929 . S
H1933 C1896 0.930 . S
H1934 C1902 0.929 . S
H1935 C1903 0.930 . S
Li1936 N1953 1.990 . S
Li1936 O1996 1.956 . S
Li1936 O1997 1.970 . S
Li1936 O1998 1.961 . S
Li1937 N1961 1.990 . S
Li1937 O1996 1.970 . S
Li1937 O1997 1.956 . S
Li1937 O1999 1.961 . S
Li1938 N1983 1.990 . S
Li1938 O1996 1.961 . S
Li1938 O1998 1.956 . S
Li1938 O1999 1.970 . S
Li1939 N1989 1.990 . S
Li1939 O1997 1.961 . S
Li1939 O1998 1.970 . S
Li1939 O1999 1.956 . S
C1940 C1942 1.348 . S
C1940 C1943 1.356 . S
C1940 O1996 1.325 . S
N1941 C1944 1.314 . S
N1941 C1945 1.279 . S
C1942 C1940 1.348 . S
C1942 C1944 1.353 . S
C1942 H2000 0.929 . S
C1943 C1940 1.356 . S
C1943 C1945 1.358 . S
C1943 H2001 0.930 . S
C1944 N1941 1.314 . S
C1944 C1942 1.353 . S
C1944 H2002 0.930 . S
C1945 N1941 1.279 . S
C1945 C1943 1.358 . S
C1945 H2003 0.930 . S
C1946 C1949 1.348 . S
C1946 C1950 1.356 . S
C1946 O1997 1.325 . S
C1947 N1948 1.279 . S
C1947 C1950 1.358 . S
C1947 H2004 0.930 . S
N1948 C1947 1.279 . S
N1948 C1951 1.314 . S
C1949 C1946 1.348 . S
C1949 C1951 1.353 . S
C1949 H2005 0.929 . S
C1950 C1946 1.356 . S
C1950 C1947 1.358 . S
C1950 H2006 0.930 . S
C1951 N1948 1.314 . S
C1951 C1949 1.353 . S
C1951 H2007 0.930 . S
C1952 N1953 1.314 . S
C1952 C1957 1.353 . S
C1952 H1958 0.930 . S
N1953 Li1936 1.990 . S
N1953 C1952 1.314 . S
N1953 C1955 1.279 . S
C1954 C1955 1.358 . S
C1954 C1956 1.356 . S
C1954 H2008 0.930 . S
C1955 N1953 1.279 . S
C1955 C1954 1.358 . S
C1955 H1959 0.930 . S
C1956 C1954 1.356 . S
C1956 C1957 1.348 . S
C1957 C1952 1.353 . S
C1957 C1956 1.348 . S
C1957 H2009 0.929 . S
H1958 C1952 0.930 . S
H1959 C1955 0.930 . S
C1960 N1961 1.314 . S
C1960 C1962 1.353 . S
C1960 H1966 0.930 . S
N1961 Li1937 1.990 . S
N1961 C1960 1.314 . S
N1961 C1964 1.279 . S
C1962 C1960 1.353 . S
C1962 C1965 1.348 . S
C1962 H2010 0.929 . S
C1963 C1964 1.358 . S
C1963 C1965 1.356 . S
C1963 H2011 0.930 . S
C1964 N1961 1.279 . S
C1964 C1963 1.358 . S
C1964 H1967 0.930 . S
C1965 C1962 1.348 . S
C1965 C1963 1.356 . S
H1966 C1960 0.930 . S
H1967 C1964 0.930 . S
C1968 C1970 1.348 . S
C1968 C1971 1.356 . S
C1968 O1998 1.325 . S
N1969 C1972 1.314 . S
N1969 C1973 1.279 . S
C1970 C1968 1.348 . S
C1970 C1972 1.353 . S
C1970 H2012 0.929 . S
C1971 C1968 1.356 . S
C1971 C1973 1.358 . S
C1971 H2013 0.930 . S
C1972 N1969 1.314 . S
C1972 C1970 1.353 . S
C1972 H2014 0.930 . S
C1973 N1969 1.279 . S
C1973 C1971 1.358 . S
C1973 H2015 0.930 . S
C1974 C1975 1.348 . S
C1974 C1976 1.356 . S
C1974 O1999 1.325 . S
C1975 C1974 1.348 . S
C1975 C1977 1.353 . S
C1975 H2016 0.929 . S
C1976 C1974 1.356 . S
C1976 C1978 1.358 . S
C1976 H2017 0.930 . S
C1977 C1975 1.353 . S
C1977 N1979 1.314 . S
C1977 H2018 0.930 . S
C1978 C1976 1.358 . S
C1978 N1979 1.279 . S
C1978 H2019 0.930 . S
N1979 C1977 1.314 . S
N1979 C1978 1.279 . S
C1980 C1982 1.353 . S
C1980 N1983 1.314 . S
C1980 H1986 0.930 . S
C1981 N1983 1.279 . S
C1981 C1984 1.358 . S
C1981 H1987 0.930 . S
C1982 C1980 1.353 . S
C1982 C1985 1.348 . S
C1982 H2020 0.929 . S
N1983 Li1938 1.990 . S
N1983 C1980 1.314 . S
N1983 C1981 1.279 . S
C1984 C1981 1.358 . S
C1984 C1985 1.356 . S
C1984 H2021 0.930 . S
C1985 C1982 1.348 . S
C1985 C1984 1.356 . S
H1986 C1980 0.930 . S
H1987 C1981 0.930 . S
C1988 N1989 1.314 . S
C1988 C1990 1.353 . S
C1988 H1994 0.930 . S
N1989 Li1939 1.990 . S
N1989 C1988 1.314 . S
N1989 C1992 1.279 . S
C1990 C1988 1.353 . S
C1990 C1993 1.348 . S
C1990 H2022 0.929 . S
C1991 C1992 1.358 . S
C1991 C1993 1.356 . S
C1991 H2023 0.930 . S
C1992 N1989 1.279 . S
C1992 C1991 1.358 . S
C1992 H1995 0.930 . S
C1993 C1990 1.348 . S
C1993 C1991 1.356 . S
H1994 C1988 0.930 . S
H1995 C1992 0.930 . S
O1996 Li1936 1.956 . S
O1996 Li1937 1.970 . S
O1996 Li1938 1.961 . S
O1996 C1940 1.325 . S
O1997 Li1936 1.970 . S
O1997 Li1937 1.956 . S
O1997 Li1939 1.961 . S
O1997 C1946 1.325 . S
O1998 Li1936 1.961 . S
O1998 Li1938 1.956 . S
O1998 Li1939 1.970 . S
O1998 C1968 1.325 . S
O1999 Li1937 1.961 . S
O1999 Li1938 1.970 . S
O1999 Li1939 1.956 . S
O1999 C1974 1.325 . S
H2000 C1942 0.929 . S
H2001 C1943 0.930 . S
H2002 C1944 0.930 . S
H2003 C1945 0.930 . S
H2004 C1947 0.930 . S
H2005 C1949 0.929 . S
H2006 C1950 0.930 . S
H2007 C1951 0.930 . S
H2008 C1954 0.930 . S
H2009 C1957 0.929 . S
H2010 C1962 0.929 . S
H2011 C1963 0.930 . S
H2012 C1970 0.929 . S
H2013 C1971 0.930 . S
H2014 C1972 0.930 . S
H2015 C1973 0.930 . S
H2016 C1975 0.929 . S
H2017 C1976 0.930 . S
H2018 C1977 0.930 . S
H2019 C1978 0.930 . S
H2020 C1982 0.929 . S
H2021 C1984 0.930 . S
H2022 C1990 0.929 . S
H2023 C1991 0.930 . S
Li2024 N2041 1.990 . S
Li2024 O2084 1.956 . S
Li2024 O2085 1.970 . S
Li2024 O2086 1.961 . S
Li2025 N2049 1.990 . S
Li2025 O2084 1.970 . S
Li2025 O2085 1.956 . S
Li2025 O2087 1.961 . S
Li2026 N2071 1.990 . S
Li2026 O2084 1.961 . S
Li2026 O2086 1.956 . S
Li2026 O2087 1.970 . S
Li2027 N2077 1.990 . S
Li2027 O2085 1.961 . S
Li2027 O2086 1.970 . S
Li2027 O2087 1.956 . S
C2028 C2030 1.348 . S
C2028 C2031 1.356 . S
C2028 O2084 1.325 . S
N2029 C2032 1.314 . S
N2029 C2033 1.279 . S
C2030 C2028 1.348 . S
C2030 C2032 1.353 . S
C2030 H2088 0.929 . S
C2031 C2028 1.356 . S
C2031 C2033 1.358 . S
C2031 H2089 0.930 . S
C2032 N2029 1.314 . S
C2032 C2030 1.353 . S
C2032 H2090 0.930 . S
C2033 N2029 1.279 . S
C2033 C2031 1.358 . S
C2033 H2091 0.930 . S
C2034 C2037 1.348 . S
C2034 C2038 1.356 . S
C2034 O2085 1.325 . S
C2035 N2036 1.279 . S
C2035 C2038 1.358 . S
C2035 H2092 0.930 . S
N2036 C2035 1.279 . S
N2036 C2039 1.314 . S
C2037 C2034 1.348 . S
C2037 C2039 1.353 . S
C2037 H2093 0.929 . S
C2038 C2034 1.356 . S
C2038 C2035 1.358 . S
C2038 H2094 0.930 . S
C2039 N2036 1.314 . S
C2039 C2037 1.353 . S
C2039 H2095 0.930 . S
C2040 N2041 1.314 . S
C2040 C2045 1.353 . S
C2040 H2046 0.930 . S
N2041 Li2024 1.990 . S
N2041 C2040 1.314 . S
N2041 C2043 1.279 . S
C2042 C2043 1.358 . S
C2042 C2044 1.356 . S
C2042 H2096 0.930 . S
C2043 N2041 1.279 . S
C2043 C2042 1.358 . S
C2043 H2047 0.930 . S
C2044 C2042 1.356 . S
C2044 C2045 1.348 . S
C2045 C2040 1.353 . S
C2045 C2044 1.348 . S
C2045 H2097 0.929 . S
H2046 C2040 0.930 . S
H2047 C2043 0.930 . S
C2048 N2049 1.314 . S
C2048 C2050 1.353 . S
C2048 H2054 0.930 . S
N2049 Li2025 1.990 . S
N2049 C2048 1.314 . S
N2049 C2052 1.279 . S
C2050 C2048 1.353 . S
C2050 C2053 1.348 . S
C2050 H2098 0.929 . S
C2051 C2052 1.358 . S
C2051 C2053 1.356 . S
C2051 H2099 0.930 . S
C2052 N2049 1.279 . S
C2052 C2051 1.358 . S
C2052 H2055 0.930 . S
C2053 C2050 1.348 . S
C2053 C2051 1.356 . S
H2054 C2048 0.930 . S
H2055 C2052 0.930 . S
C2056 C2058 1.348 . S
C2056 C2059 1.356 . S
C2056 O2086 1.325 . S
N2057 C2060 1.314 . S
N2057 C2061 1.279 . S
C2058 C2056 1.348 . S
C2058 C2060 1.353 . S
C2058 H2100 0.929 . S
C2059 C2056 1.356 . S
C2059 C2061 1.358 . S
C2059 H2101 0.930 . S
C2060 N2057 1.314 . S
C2060 C2058 1.353 . S
C2060 H2102 0.930 . S
C2061 N2057 1.279 . S
C2061 C2059 1.358 . S
C2061 H2103 0.930 . S
C2062 C2063 1.348 . S
C2062 C2064 1.356 . S
C2062 O2087 1.325 . S
C2063 C2062 1.348 . S
C2063 C2065 1.353 . S
C2063 H2104 0.929 . S
C2064 C2062 1.356 . S
C2064 C2066 1.358 . S
C2064 H2105 0.930 . S
C2065 C2063 1.353 . S
C2065 N2067 1.314 . S
C2065 H2106 0.930 . S
C2066 C2064 1.358 . S
C2066 N2067 1.279 . S
C2066 H2107 0.930 . S
N2067 C2065 1.314 . S
N2067 C2066 1.279 . S
C2068 C2070 1.353 . S
C2068 N2071 1.314 . S
C2068 H2074 0.930 . S
C2069 N2071 1.279 . S
C2069 C2072 1.358 . S
C2069 H2075 0.930 . S
C2070 C2068 1.353 . S
C2070 C2073 1.348 . S
C2070 H2108 0.929 . S
N2071 Li2026 1.990 . S
N2071 C2068 1.314 . S
N2071 C2069 1.279 . S
C2072 C2069 1.358 . S
C2072 C2073 1.356 . S
C2072 H2109 0.930 . S
C2073 C2070 1.348 . S
C2073 C2072 1.356 . S
H2074 C2068 0.930 . S
H2075 C2069 0.930 . S
C2076 N2077 1.314 . S
C2076 C2078 1.353 . S
C2076 H2082 0.930 . S
N2077 Li2027 1.990 . S
N2077 C2076 1.314 . S
N2077 C2080 1.279 . S
C2078 C2076 1.353 . S
C2078 C2081 1.348 . S
C2078 H2110 0.929 . S
C2079 C2080 1.358 . S
C2079 C2081 1.356 . S
C2079 H2111 0.930 . S
C2080 N2077 1.279 . S
C2080 C2079 1.358 . S
C2080 H2083 0.930 . S
C2081 C2078 1.348 . S
C2081 C2079 1.356 . S
H2082 C2076 0.930 . S
H2083 C2080 0.930 . S
O2084 Li2024 1.956 . S
O2084 Li2025 1.970 . S
O2084 Li2026 1.961 . S
O2084 C2028 1.325 . S
O2085 Li2024 1.970 . S
O2085 Li2025 1.956 . S
O2085 Li2027 1.961 . S
O2085 C2034 1.325 . S
O2086 Li2024 1.961 . S
O2086 Li2026 1.956 . S
O2086 Li2027 1.970 . S
O2086 C2056 1.325 . S
O2087 Li2025 1.961 . S
O2087 Li2026 1.970 . S
O2087 Li2027 1.956 . S
O2087 C2062 1.325 . S
H2088 C2030 0.929 . S
H2089 C2031 0.930 . S
H2090 C2032 0.930 . S
H2091 C2033 0.930 . S
H2092 C2035 0.930 . S
H2093 C2037 0.929 . S
H2094 C2038 0.930 . S
H2095 C2039 0.930 . S
H2096 C2042 0.930 . S
H2097 C2045 0.929 . S
H2098 C2050 0.929 . S
H2099 C2051 0.930 . S
H2100 C2058 0.929 . S
H2101 C2059 0.930 . S
H2102 C2060 0.930 . S
H2103 C2061 0.930 . S
H2104 C2063 0.929 . S
H2105 C2064 0.930 . S
H2106 C2065 0.930 . S
H2107 C2066 0.930 . S
H2108 C2070 0.929 . S
H2109 C2072 0.930 . S
H2110 C2078 0.929 . S
H2111 C2079 0.930 . S
Tb2112 C2121 2.764 . S
Tb2112 O2122 2.325 . S
Tb2112 O2125 2.303 . S
Tb2112 O2129 2.322 . S
Tb2112 O2130 2.349 . S
Tb2112 O2133 2.415 . S
Tb2112 O2134 2.399 . S
Tb2113 O2123 2.322 1_545 S
Tb2113 O2124 2.349 1_554 S
Tb2113 O2126 2.415 1_455 S
Tb2113 O2127 2.399 1_454 S
Tb2113 O2128 2.325 . S
Tb2113 O2131 2.303 . S
Tb2113 C2142 2.764 1_455 S
C2114 O2130 1.261 . S
C2114 O2131 1.257 . S
C2115 C2118 1.358 . S
C2115 C2119 1.332 . S
C2115 C2121 1.504 . S
C2116 C2117 1.373 . S
C2116 C2120 1.308 . S
C2117 C2116 1.373 . S
C2117 C2118 1.429 . S
C2117 H2144 0.932 . S
C2118 C2115 1.358 . S
C2118 C2117 1.429 . S
C2118 H2145 0.930 . S
C2119 C2115 1.332 . S
C2119 C2120 1.394 . S
C2119 H2146 0.932 . S
C2120 C2116 1.308 . S
C2120 C2119 1.394 . S
C2120 H2147 0.929 1_545 S
C2121 Tb2112 2.764 . S
C2121 C2115 1.504 . S
C2121 O2133 1.239 . S
C2121 O2134 1.263 . S
O2122 Tb2112 2.325 . S
O2122 C2132 1.236 1_545 S
O2123 Tb2113 2.322 1_565 S
O2123 C2132 1.257 . S
O2124 Tb2113 2.349 1_556 S
O2124 C2135 1.261 . S
O2125 Tb2112 2.303 . S
O2125 C2135 1.257 1_554 S
O2126 Tb2113 2.415 1_655 S
O2126 C2142 1.239 . S
O2127 Tb2113 2.399 1_656 S
O2127 C2142 1.263 1_556 S
O2128 Tb2113 2.325 . S
O2128 C2143 1.236 . S
O2129 Tb2112 2.322 . S
O2129 C2143 1.257 . S
O2130 Tb2112 2.349 . S
O2130 C2114 1.261 . S
O2131 Tb2113 2.303 . S
O2131 C2114 1.257 . S
C2132 O2122 1.236 1_565 S
C2132 O2123 1.257 . S
O2133 Tb2112 2.415 . S
O2133 C2121 1.239 . S
O2134 Tb2112 2.399 . S
O2134 C2121 1.263 . S
C2135 O2124 1.261 . S
C2135 O2125 1.257 1_556 S
C2136 C2139 1.358 1_554 S
C2136 C2140 1.332 . S
C2136 C2142 1.504 . S
C2137 C2138 1.373 . S
C2137 C2141 1.308 1_556 S
C2138 C2137 1.373 . S
C2138 C2139 1.429 . S
C2138 H2148 0.932 . S
C2139 C2136 1.358 1_556 S
C2139 C2138 1.429 . S
C2139 H2149 0.930 . S
C2140 C2136 1.332 . S
C2140 C2141 1.394 . S
C2140 H2150 0.932 . S
C2141 C2137 1.308 1_554 S
C2141 C2140 1.394 . S
C2141 H2151 0.929 . S
C2142 Tb2113 2.764 1_655 S
C2142 O2126 1.239 . S
C2142 O2127 1.263 1_554 S
C2142 C2136 1.504 . S
C2143 O2128 1.236 . S
C2143 O2129 1.257 . S
H2144 C2117 0.932 . S
H2145 C2118 0.930 . S
H2146 C2119 0.932 . S
H2147 C2120 0.929 1_565 S
H2148 C2138 0.932 . S
H2149 C2139 0.930 . S
H2150 C2140 0.932 . S
H2151 C2141 0.929 . S
Tb2152 C2161 2.764 . S
Tb2152 O2162 2.325 . S
Tb2152 O2165 2.303 . S
Tb2152 O2169 2.322 . S
Tb2152 O2170 2.349 . S
Tb2152 O2173 2.415 . S
Tb2152 O2174 2.399 . S
Tb2153 O2163 2.322 . S
Tb2153 O2164 2.349 . S
Tb2153 O2166 2.415 . S
Tb2153 O2167 2.399 . S
Tb2153 O2168 2.325 . S
Tb2153 O2171 2.303 . S
Tb2153 C2182 2.764 . S
C2154 O2170 1.261 . S
C2154 O2171 1.257 . S
C2155 C2158 1.358 . S
C2155 C2159 1.332 . S
C2155 C2161 1.504 . S
C2156 C2157 1.373 . S
C2156 C2160 1.308 . S
C2157 C2156 1.373 . S
C2157 C2158 1.429 . S
C2157 H2184 0.932 . S
C2158 C2155 1.358 . S
C2158 C2157 1.429 . S
C2158 H2185 0.930 . S
C2159 C2155 1.332 . S
C2159 C2160 1.394 . S
C2159 H2186 0.932 . S
C2160 C2156 1.308 . S
C2160 C2159 1.394 . S
C2160 H2187 0.929 . S
C2161 Tb2152 2.764 . S
C2161 C2155 1.504 . S
C2161 O2173 1.239 . S
C2161 O2174 1.263 . S
O2162 Tb2152 2.325 . S
O2162 C2172 1.236 . S
O2163 Tb2153 2.322 . S
O2163 C2172 1.257 . S
O2164 Tb2153 2.349 . S
O2164 C2175 1.261 . S
O2165 Tb2152 2.303 . S
O2165 C2175 1.257 . S
O2166 Tb2153 2.415 . S
O2166 C2182 1.239 . S
O2167 Tb2153 2.399 . S
O2167 C2182 1.263 . S
O2168 Tb2153 2.325 . S
O2168 C2183 1.236 . S
O2169 Tb2152 2.322 . S
O2169 C2183 1.257 . S
O2170 Tb2152 2.349 . S
O2170 C2154 1.261 . S
O2171 Tb2153 2.303 . S
O2171 C2154 1.257 . S
C2172 O2162 1.236 . S
C2172 O2163 1.257 . S
O2173 Tb2152 2.415 . S
O2173 C2161 1.239 . S
O2174 Tb2152 2.399 . S
O2174 C2161 1.263 . S
C2175 O2164 1.261 . S
C2175 O2165 1.257 . S
C2176 C2179 1.358 . S
C2176 C2180 1.332 . S
C2176 C2182 1.504 . S
C2177 C2178 1.373 . S
C2177 C2181 1.308 . S
C2178 C2177 1.373 . S
C2178 C2179 1.429 . S
C2178 H2188 0.932 . S
C2179 C2176 1.358 . S
C2179 C2178 1.429 . S
C2179 H2189 0.930 . S
C2180 C2176 1.332 . S
C2180 C2181 1.394 . S
C2180 H2190 0.932 . S
C2181 C2177 1.308 . S
C2181 C2180 1.394 . S
C2181 H2191 0.929 . S
C2182 Tb2153 2.764 . S
C2182 O2166 1.239 . S
C2182 O2167 1.263 . S
C2182 C2176 1.504 . S
C2183 O2168 1.236 . S
C2183 O2169 1.257 . S
H2184 C2157 0.932 . S
H2185 C2158 0.930 . S
H2186 C2159 0.932 . S
H2187 C2160 0.929 . S
H2188 C2178 0.932 . S
H2189 C2179 0.930 . S
H2190 C2180 0.932 . S
H2191 C2181 0.929 . S
Tb2192 C2201 2.764 . S
Tb2192 O2202 2.325 . S
Tb2192 O2205 2.303 . S
Tb2192 O2209 2.322 1_545 S
Tb2192 O2210 2.349 . S
Tb2192 O2213 2.415 . S
Tb2192 O2214 2.399 . S
Tb2193 O2203 2.322 . S
Tb2193 O2204 2.349 . S
Tb2193 O2206 2.415 . S
Tb2193 O2207 2.399 . S
Tb2193 O2208 2.325 1_545 S
Tb2193 O2211 2.303 . S
Tb2193 C2222 2.764 . S
C2194 O2210 1.261 . S
C2194 O2211 1.257 . S
C2195 C2198 1.358 . S
C2195 C2199 1.332 . S
C2195 C2201 1.504 . S
C2196 C2197 1.373 . S
C2196 C2200 1.308 . S
C2197 C2196 1.373 . S
C2197 C2198 1.429 . S
C2197 H2224 0.932 . S
C2198 C2195 1.358 . S
C2198 C2197 1.429 . S
C2198 H2225 0.930 . S
C2199 C2195 1.332 . S
C2199 C2200 1.394 . S
C2199 H2226 0.932 . S
C2200 C2196 1.308 . S
C2200 C2199 1.394 . S
C2200 H2227 0.929 . S
C2201 Tb2192 2.764 . S
C2201 C2195 1.504 . S
C2201 O2213 1.239 . S
C2201 O2214 1.263 . S
O2202 Tb2192 2.325 . S
O2202 C2212 1.236 . S
O2203 Tb2193 2.322 . S
O2203 C2212 1.257 . S
O2204 Tb2193 2.349 . S
O2204 C2215 1.261 . S
O2205 Tb2192 2.303 . S
O2205 C2215 1.257 . S
O2206 Tb2193 2.415 . S
O2206 C2222 1.239 . S
O2207 Tb2193 2.399 . S
O2207 C2222 1.263 . S
O2208 Tb2193 2.325 1_565 S
O2208 C2223 1.236 . S
O2209 Tb2192 2.322 1_565 S
O2209 C2223 1.257 . S
O2210 Tb2192 2.349 . S
O2210 C2194 1.261 . S
O2211 Tb2193 2.303 . S
O2211 C2194 1.257 . S
C2212 O2202 1.236 . S
C2212 O2203 1.257 . S
O2213 Tb2192 2.415 . S
O2213 C2201 1.239 . S
O2214 Tb2192 2.399 . S
O2214 C2201 1.263 . S
C2215 O2204 1.261 . S
C2215 O2205 1.257 . S
C2216 C2219 1.358 . S
C2216 C2220 1.332 . S
C2216 C2222 1.504 1_565 S
C2217 C2218 1.373 . S
C2217 C2221 1.308 . S
C2218 C2217 1.373 . S
C2218 C2219 1.443 . S
C2218 H2228 0.932 . S
C2219 C2216 1.358 . S
C2219 C2218 1.443 . S
C2219 H2229 0.916 1_565 S
C2220 C2216 1.332 . S
C2220 C2221 1.394 . S
C2220 H2230 0.932 . S
C2221 C2217 1.308 . S
C2221 C2220 1.394 . S
C2221 H2231 0.929 . S
C2222 Tb2193 2.764 . S
C2222 O2206 1.239 . S
C2222 O2207 1.263 . S
C2222 C2216 1.504 1_545 S
C2223 O2208 1.236 . S
C2223 O2209 1.257 . S
H2224 C2197 0.932 . S
H2225 C2198 0.930 . S
H2226 C2199 0.932 . S
H2227 C2200 0.929 . S
H2228 C2218 0.932 . S
H2229 C2219 0.916 1_545 S
H2230 C2220 0.932 . S
H2231 C2221 0.929 . S
Tb2232 C2241 2.764 . S
Tb2232 O2242 2.325 . S
Tb2232 O2245 2.303 . S
Tb2232 O2249 2.322 . S
Tb2232 O2250 2.349 . S
Tb2232 O2253 2.415 . S
Tb2232 O2254 2.399 . S
Tb2233 O2243 2.322 . S
Tb2233 O2244 2.349 . S
Tb2233 O2246 2.415 . S
Tb2233 O2247 2.399 . S
Tb2233 O2248 2.325 . S
Tb2233 O2251 2.303 . S
Tb2233 C2262 2.764 . S
C2234 O2250 1.261 . S
C2234 O2251 1.257 . S
C2235 C2238 1.358 . S
C2235 C2239 1.332 . S
C2235 C2241 1.504 . S
C2236 C2237 1.373 . S
C2236 C2240 1.308 . S
C2237 C2236 1.373 . S
C2237 C2238 1.429 . S
C2237 H2264 0.932 . S
C2238 C2235 1.358 . S
C2238 C2237 1.429 . S
C2238 H2265 0.930 . S
C2239 C2235 1.332 . S
C2239 C2240 1.394 . S
C2239 H2266 0.932 . S
C2240 C2236 1.308 . S
C2240 C2239 1.394 . S
C2240 H2267 0.929 . S
C2241 Tb2232 2.764 . S
C2241 C2235 1.504 . S
C2241 O2253 1.239 . S
C2241 O2254 1.263 . S
O2242 Tb2232 2.325 . S
O2242 C2252 1.236 . S
O2243 Tb2233 2.322 . S
O2243 C2252 1.257 . S
O2244 Tb2233 2.349 . S
O2244 C2255 1.261 . S
O2245 Tb2232 2.303 . S
O2245 C2255 1.257 . S
O2246 Tb2233 2.415 . S
O2246 C2262 1.239 . S
O2247 Tb2233 2.399 . S
O2247 C2262 1.263 . S
O2248 Tb2233 2.325 . S
O2248 C2263 1.236 . S
O2249 Tb2232 2.322 . S
O2249 C2263 1.257 . S
O2250 Tb2232 2.349 . S
O2250 C2234 1.261 . S
O2251 Tb2233 2.303 . S
O2251 C2234 1.257 . S
C2252 O2242 1.236 . S
C2252 O2243 1.257 . S
O2253 Tb2232 2.415 . S
O2253 C2241 1.239 . S
O2254 Tb2232 2.399 . S
O2254 C2241 1.263 . S
C2255 O2244 1.261 . S
C2255 O2245 1.257 . S
C2256 C2259 1.358 . S
C2256 C2260 1.332 . S
C2256 C2262 1.504 . S
C2257 C2258 1.373 . S
C2257 C2261 1.308 . S
C2258 C2257 1.373 . S
C2258 C2259 1.429 . S
C2258 H2268 0.932 . S
C2259 C2256 1.358 . S
C2259 C2258 1.429 . S
C2259 H2269 0.930 . S
C2260 C2256 1.332 . S
C2260 C2261 1.394 . S
C2260 H2270 0.932 . S
C2261 C2257 1.308 . S
C2261 C2260 1.394 . S
C2261 H2271 0.929 . S
C2262 Tb2233 2.764 . S
C2262 O2246 1.239 . S
C2262 O2247 1.263 . S
C2262 C2256 1.504 . S
C2263 O2248 1.236 . S
C2263 O2249 1.257 . S
H2264 C2237 0.932 . S
H2265 C2238 0.930 . S
H2266 C2239 0.932 . S
H2267 C2240 0.929 . S
H2268 C2258 0.932 . S
H2269 C2259 0.930 . S
H2270 C2260 0.932 . S
H2271 C2261 0.929 . S
Tb2272 C2281 2.764 . S
Tb2272 O2282 2.325 . S
Tb2272 O2285 2.303 . S
Tb2272 O2289 2.322 . S
Tb2272 O2290 2.349 . S
Tb2272 O2293 2.415 . S
Tb2272 O2294 2.399 . S
Tb2273 O2283 2.322 1_545 S
Tb2273 O2284 2.349 . S
Tb2273 O2286 2.415 . S
Tb2273 O2287 2.399 . S
Tb2273 O2288 2.325 . S
Tb2273 O2291 2.303 . S
Tb2273 C2302 2.764 . S
C2274 O2290 1.262 1_655 S
C2274 O2291 1.233 1_655 S
C2275 C2278 1.358 . S
C2275 C2279 1.332 . S
C2275 C2281 1.504 . S
C2276 C2277 1.373 . S
C2276 C2280 1.308 . S
C2277 C2276 1.373 . S
C2277 C2278 1.429 . S
C2277 H2304 0.932 . S
C2278 C2275 1.358 . S
C2278 C2277 1.429 . S
C2278 H2305 0.930 . S
C2279 C2275 1.332 . S
C2279 C2280 1.394 . S
C2279 H2306 0.932 . S
C2280 C2276 1.308 . S
C2280 C2279 1.394 . S
C2280 H2307 0.929 . S
C2281 Tb2272 2.764 . S
C2281 C2275 1.504 . S
C2281 O2293 1.239 . S
C2281 O2294 1.263 . S
O2282 Tb2272 2.325 . S
O2282 C2292 1.236 1_545 S
O2283 Tb2273 2.322 1_565 S
O2283 C2292 1.257 . S
O2284 Tb2273 2.349 . S
O2284 C2295 1.261 . S
O2285 Tb2272 2.303 . S
O2285 C2295 1.257 . S
O2286 Tb2273 2.415 . S
O2286 C2302 1.239 . S
O2287 Tb2273 2.399 . S
O2287 C2302 1.263 . S
O2288 Tb2273 2.325 . S
O2288 C2303 1.236 . S
O2289 Tb2272 2.322 . S
O2289 C2303 1.257 . S
O2290 Tb2272 2.349 . S
O2290 C2274 1.262 1_455 S
O2291 Tb2273 2.303 . S
O2291 C2274 1.233 1_455 S
C2292 O2282 1.236 1_565 S
C2292 O2283 1.257 . S
O2293 Tb2272 2.415 . S
O2293 C2281 1.239 . S
O2294 Tb2272 2.399 . S
O2294 C2281 1.263 . S
C2295 O2284 1.261 . S
C2295 O2285 1.257 . S
C2296 C2299 1.358 . S
C2296 C2300 1.286 1_455 S
C2296 C2302 1.504 . S
C2297 C2298 1.373 . S
C2297 C2301 1.308 1_455 S
C2298 C2297 1.373 . S
C2298 C2299 1.429 . S
C2298 H2308 0.932 . S
C2299 C2296 1.358 . S
C2299 C2298 1.429 . S
C2299 H2309 0.930 . S
C2300 C2296 1.286 1_655 S
C2300 C2301 1.408 . S
C2300 H2310 0.966 . S
C2301 C2297 1.308 1_655 S
C2301 C2300 1.408 . S
C2301 H2311 0.929 . S
C2302 Tb2273 2.764 . S
C2302 O2286 1.239 . S
C2302 O2287 1.263 . S
C2302 C2296 1.504 . S
C2303 O2288 1.236 . S
C2303 O2289 1.257 . S
H2304 C2277 0.932 . S
H2305 C2278 0.930 . S
H2306 C2279 0.932 . S
H2307 C2280 0.929 . S
H2308 C2298 0.932 . S
H2309 C2299 0.930 . S
H2310 C2300 0.966 . S
H2311 C2301 0.929 . S
Tb2312 C2321 2.764 . S
Tb2312 O2322 2.325 . S
Tb2312 O2325 2.303 . S
Tb2312 O2329 2.322 . S
Tb2312 O2330 2.349 . S
Tb2312 O2333 2.415 . S
Tb2312 O2334 2.399 . S
Tb2313 O2323 2.322 . S
Tb2313 O2324 2.349 . S
Tb2313 O2326 2.415 . S
Tb2313 O2327 2.399 . S
Tb2313 O2328 2.325 . S
Tb2313 O2331 2.303 . S
Tb2313 C2342 2.764 . S
C2314 O2330 1.261 . S
C2314 O2331 1.257 . S
C2315 C2318 1.358 . S
C2315 C2319 1.332 . S
C2315 C2321 1.504 . S
C2316 C2317 1.373 . S
C2316 C2320 1.308 . S
C2317 C2316 1.373 . S
C2317 C2318 1.429 . S
C2317 H2344 0.932 . S
C2318 C2315 1.358 . S
C2318 C2317 1.429 . S
C2318 H2345 0.930 . S
C2319 C2315 1.332 . S
C2319 C2320 1.394 . S
C2319 H2346 0.932 . S
C2320 C2316 1.308 . S
C2320 C2319 1.394 . S
C2320 H2347 0.929 . S
C2321 Tb2312 2.764 . S
C2321 C2315 1.504 . S
C2321 O2333 1.239 . S
C2321 O2334 1.263 . S
O2322 Tb2312 2.325 . S
O2322 C2332 1.236 . S
O2323 Tb2313 2.322 . S
O2323 C2332 1.257 . S
O2324 Tb2313 2.349 . S
O2324 C2335 1.261 . S
O2325 Tb2312 2.303 . S
O2325 C2335 1.257 . S
O2326 Tb2313 2.415 . S
O2326 C2342 1.239 . S
O2327 Tb2313 2.399 . S
O2327 C2342 1.263 . S
O2328 Tb2313 2.325 . S
O2328 C2343 1.236 . S
O2329 Tb2312 2.322 . S
O2329 C2343 1.257 . S
O2330 Tb2312 2.349 . S
O2330 C2314 1.261 . S
O2331 Tb2313 2.303 . S
O2331 C2314 1.257 . S
C2332 O2322 1.236 . S
C2332 O2323 1.257 . S
O2333 Tb2312 2.415 . S
O2333 C2321 1.239 . S
O2334 Tb2312 2.399 . S
O2334 C2321 1.263 . S
C2335 O2324 1.261 . S
C2335 O2325 1.257 . S
C2336 C2339 1.358 . S
C2336 C2340 1.332 . S
C2336 C2342 1.504 . S
C2337 C2338 1.373 . S
C2337 C2341 1.308 . S
C2338 C2337 1.373 . S
C2338 C2339 1.429 . S
C2338 H2348 0.932 . S
C2339 C2336 1.358 . S
C2339 C2338 1.429 . S
C2339 H2349 0.930 . S
C2340 C2336 1.332 . S
C2340 C2341 1.394 . S
C2340 H2350 0.932 . S
C2341 C2337 1.308 . S
C2341 C2340 1.394 . S
C2341 H2351 0.929 . S
C2342 Tb2313 2.764 . S
C2342 O2326 1.239 . S
C2342 O2327 1.263 . S
C2342 C2336 1.504 . S
C2343 O2328 1.236 . S
C2343 O2329 1.257 . S
H2344 C2317 0.932 . S
H2345 C2318 0.930 . S
H2346 C2319 0.932 . S
H2347 C2320 0.929 . S
H2348 C2338 0.932 . S
H2349 C2339 0.930 . S
H2350 C2340 0.932 . S
H2351 C2341 0.929 . S
Tb2352 C2361 2.764 . S
Tb2352 O2362 2.325 . S
Tb2352 O2365 2.303 . S
Tb2352 O2369 2.322 1_545 S
Tb2352 O2370 2.349 . S
Tb2352 O2373 2.415 . S
Tb2352 O2374 2.399 . S
Tb2353 O2363 2.324 1_556 S
Tb2353 O2364 2.351 . S
Tb2353 O2366 2.413 . S
Tb2353 O2367 2.397 . S
Tb2353 O2368 2.325 . S
Tb2353 O2371 2.305 1_556 S
Tb2353 C2382 2.762 . S
C2354 O2370 1.261 . S
C2354 O2371 1.257 . S
C2355 C2358 1.358 . S
C2355 C2359 1.332 . S
C2355 C2361 1.504 . S
C2356 C2357 1.373 . S
C2356 C2360 1.308 . S
C2357 C2356 1.373 . S
C2357 C2358 1.429 . S
C2357 H2384 0.932 . S
C2358 C2355 1.358 . S
C2358 C2357 1.429 . S
C2358 H2385 0.930 . S
C2359 C2355 1.332 . S
C2359 C2360 1.394 . S
C2359 H2386 0.932 . S
C2360 C2356 1.308 . S
C2360 C2359 1.394 . S
C2360 H2387 0.929 . S
C2361 Tb2352 2.764 . S
C2361 C2355 1.504 . S
C2361 O2373 1.239 . S
C2361 O2374 1.263 . S
O2362 Tb2352 2.325 . S
O2362 C2372 1.236 . S
O2363 Tb2353 2.324 1_554 S
O2363 C2372 1.257 . S
O2364 Tb2353 2.351 . S
O2364 C2375 1.245 1_556 S
O2365 Tb2352 2.303 . S
O2365 C2375 1.257 . S
O2366 Tb2353 2.413 . S
O2366 C2382 1.239 . S
O2367 Tb2353 2.397 . S
O2367 C2382 1.263 . S
O2368 Tb2353 2.325 . S
O2368 C2383 1.236 1_546 S
O2369 Tb2352 2.322 1_565 S
O2369 C2383 1.257 . S
O2370 Tb2352 2.349 . S
O2370 C2354 1.261 . S
O2371 Tb2353 2.305 1_554 S
O2371 C2354 1.257 . S
C2372 O2362 1.236 . S
C2372 O2363 1.257 . S
O2373 Tb2352 2.415 . S
O2373 C2361 1.239 . S
O2374 Tb2352 2.399 . S
O2374 C2361 1.263 . S
C2375 O2364 1.245 1_554 S
C2375 O2365 1.257 . S
C2376 C2379 1.358 . S
C2376 C2380 1.332 . S
C2376 C2382 1.504 . S
C2377 C2378 1.373 . S
C2377 C2381 1.308 . S
C2378 C2377 1.373 . S
C2378 C2379 1.429 . S
C2378 H2388 0.932 . S
C2379 C2376 1.358 . S
C2379 C2378 1.429 . S
C2379 H2389 0.930 . S
C2380 C2376 1.332 . S
C2380 C2381 1.394 . S
C2380 H2390 0.932 . S
C2381 C2377 1.308 . S
C2381 C2380 1.394 . S
C2381 H2391 0.929 . S
C2382 Tb2353 2.762 . S
C2382 O2366 1.239 . S
C2382 O2367 1.263 . S
C2382 C2376 1.504 . S
C2383 O2368 1.236 1_564 S
C2383 O2369 1.257 . S
H2384 C2357 0.932 . S
H2385 C2358 0.930 . S
H2386 C2359 0.932 . S
H2387 C2360 0.929 . S
H2388 C2378 0.932 . S
H2389 C2379 0.930 . S
H2390 C2380 0.932 . S
H2391 C2381 0.929 . S
Tb2392 C2401 2.764 . S
Tb2392 O2402 2.325 . S
Tb2392 O2405 2.303 . S
Tb2392 O2409 2.322 . S
Tb2392 O2410 2.349 . S
Tb2392 O2413 2.415 . S
Tb2392 O2414 2.399 . S
Tb2393 O2403 2.322 . S
Tb2393 O2404 2.349 . S
Tb2393 O2406 2.415 . S
Tb2393 O2407 2.399 . S
Tb2393 O2408 2.325 . S
Tb2393 O2411 2.303 . S
Tb2393 C2422 2.764 . S
C2394 O2410 1.261 . S
C2394 O2411 1.257 . S
C2395 C2398 1.358 . S
C2395 C2399 1.332 . S
C2395 C2401 1.504 . S
C2396 C2397 1.373 . S
C2396 C2400 1.308 . S
C2397 C2396 1.373 . S
C2397 C2398 1.429 . S
C2397 H2424 0.932 . S
C2398 C2395 1.358 . S
C2398 C2397 1.429 . S
C2398 H2425 0.930 . S
C2399 C2395 1.332 . S
C2399 C2400 1.394 . S
C2399 H2426 0.932 . S
C2400 C2396 1.308 . S
C2400 C2399 1.394 . S
C2400 H2427 0.929 . S
C2401 Tb2392 2.764 . S
C2401 C2395 1.504 . S
C2401 O2413 1.239 . S
C2401 O2414 1.263 . S
O2402 Tb2392 2.325 . S
O2402 C2412 1.236 . S
O2403 Tb2393 2.322 . S
O2403 C2412 1.257 . S
O2404 Tb2393 2.349 . S
O2404 C2415 1.261 . S
O2405 Tb2392 2.303 . S
O2405 C2415 1.257 . S
O2406 Tb2393 2.415 . S
O2406 C2422 1.239 . S
O2407 Tb2393 2.399 . S
O2407 C2422 1.263 . S
O2408 Tb2393 2.325 . S
O2408 C2423 1.236 . S
O2409 Tb2392 2.322 . S
O2409 C2423 1.257 . S
O2410 Tb2392 2.349 . S
O2410 C2394 1.261 . S
O2411 Tb2393 2.303 . S
O2411 C2394 1.257 . S
C2412 O2402 1.236 . S
C2412 O2403 1.257 . S
O2413 Tb2392 2.415 . S
O2413 C2401 1.239 . S
O2414 Tb2392 2.399 . S
O2414 C2401 1.263 . S
C2415 O2404 1.261 . S
C2415 O2405 1.257 . S
C2416 C2419 1.358 . S
C2416 C2420 1.332 . S
C2416 C2422 1.504 . S
C2417 C2418 1.373 . S
C2417 C2421 1.308 . S
C2418 C2417 1.373 . S
C2418 C2419 1.429 . S
C2418 H2428 0.932 . S
C2419 C2416 1.358 . S
C2419 C2418 1.429 . S
C2419 H2429 0.930 . S
C2420 C2416 1.332 . S
C2420 C2421 1.394 . S
C2420 H2430 0.932 . S
C2421 C2417 1.308 . S
C2421 C2420 1.394 . S
C2421 H2431 0.929 . S
C2422 Tb2393 2.764 . S
C2422 O2406 1.239 . S
C2422 O2407 1.263 . S
C2422 C2416 1.504 . S
C2423 O2408 1.236 . S
C2423 O2409 1.257 . S
H2424 C2397 0.932 . S
H2425 C2398 0.930 . S
H2426 C2399 0.932 . S
H2427 C2400 0.929 . S
H2428 C2418 0.932 . S
H2429 C2419 0.930 . S
H2430 C2420 0.932 . S
H2431 C2421 0.929 . S
Tb2432 C2441 2.764 . S
Tb2432 O2442 2.325 . S
Tb2432 O2445 2.303 . S
Tb2432 O2449 2.322 . S
Tb2432 O2450 2.349 . S
Tb2432 O2453 2.415 . S
Tb2432 O2454 2.399 . S
Tb2433 O2443 2.281 1_556 S
Tb2433 O2444 2.347 1_556 S
Tb2433 O2446 2.453 . S
Tb2433 O2447 2.452 . S
Tb2433 O2448 2.330 . S
Tb2433 O2451 2.267 1_556 S
Tb2433 C2462 2.815 . S
C2434 O2450 1.261 . S
C2434 O2451 1.257 . S
C2435 C2438 1.358 . S
C2435 C2439 1.332 . S
C2435 C2441 1.504 . S
C2436 C2437 1.373 . S
C2436 C2440 1.308 . S
C2437 C2436 1.373 . S
C2437 C2438 1.429 . S
C2437 H2464 0.932 . S
C2438 C2435 1.358 . S
C2438 C2437 1.429 . S
C2438 H2465 0.930 . S
C2439 C2435 1.332 . S
C2439 C2440 1.394 . S
C2439 H2466 0.932 . S
C2440 C2436 1.308 . S
C2440 C2439 1.394 . S
C2440 H2467 0.929 . S
C2441 Tb2432 2.764 . S
C2441 C2435 1.504 . S
C2441 O2453 1.239 . S
C2441 O2454 1.263 . S
O2442 Tb2432 2.325 . S
O2442 C2452 1.236 . S
O2443 Tb2433 2.281 1_554 S
O2443 C2452 1.257 . S
O2444 Tb2433 2.347 1_554 S
O2444 C2455 1.261 . S
O2445 Tb2432 2.303 . S
O2445 C2455 1.257 . S
O2446 Tb2433 2.453 . S
O2446 C2462 1.239 . S
O2447 Tb2433 2.452 . S
O2447 C2462 1.263 . S
O2448 Tb2433 2.330 . S
O2448 C2463 1.236 1_556 S
O2449 Tb2432 2.322 . S
O2449 C2463 1.257 . S
O2450 Tb2432 2.349 . S
O2450 C2434 1.261 . S
O2451 Tb2433 2.267 1_554 S
O2451 C2434 1.257 . S
C2452 O2442 1.236 . S
C2452 O2443 1.257 . S
O2453 Tb2432 2.415 . S
O2453 C2441 1.239 . S
O2454 Tb2432 2.399 . S
O2454 C2441 1.263 . S
C2455 O2444 1.261 . S
C2455 O2445 1.257 . S
C2456 C2459 1.358 . S
C2456 C2460 1.332 . S
C2456 C2462 1.504 . S
C2457 C2458 1.373 . S
C2457 C2461 1.308 . S
C2458 C2457 1.373 . S
C2458 C2459 1.429 . S
C2458 H2468 0.932 . S
C2459 C2456 1.358 . S
C2459 C2458 1.429 . S
C2459 H2469 0.930 . S
C2460 C2456 1.332 . S
C2460 C2461 1.394 . S
C2460 H2470 0.932 . S
C2461 C2457 1.308 . S
C2461 C2460 1.394 . S
C2461 H2471 0.929 . S
C2462 Tb2433 2.815 . S
C2462 O2446 1.239 . S
C2462 O2447 1.263 . S
C2462 C2456 1.504 . S
C2463 O2448 1.236 1_554 S
C2463 O2449 1.257 . S
H2464 C2437 0.932 . S
H2465 C2438 0.930 . S
H2466 C2439 0.932 . S
H2467 C2440 0.929 . S
H2468 C2458 0.932 . S
H2469 C2459 0.930 . S
H2470 C2460 0.932 . S
H2471 C2461 0.929 . S
Tb2472 C2481 2.764 . S
Tb2472 O2482 2.325 . S
Tb2472 O2485 2.303 . S
Tb2472 O2489 2.322 . S
Tb2472 O2490 2.349 . S
Tb2472 O2493 2.415 . S
Tb2472 O2494 2.399 . S
Tb2473 O2483 2.322 . S
Tb2473 O2484 2.349 . S
Tb2473 O2486 2.415 . S
Tb2473 O2487 2.399 . S
Tb2473 O2488 2.325 . S
Tb2473 O2491 2.303 . S
Tb2473 C2502 2.764 . S
C2474 O2490 1.261 . S
C2474 O2491 1.257 . S
C2475 C2478 1.358 . S
C2475 C2479 1.332 . S
C2475 C2481 1.504 . S
C2476 C2477 1.373 . S
C2476 C2480 1.308 . S
C2477 C2476 1.373 . S
C2477 C2478 1.429 . S
C2477 H2504 0.932 . S
C2478 C2475 1.358 . S
C2478 C2477 1.429 . S
C2478 H2505 0.930 . S
C2479 C2475 1.332 . S
C2479 C2480 1.394 . S
C2479 H2506 0.932 . S
C2480 C2476 1.308 . S
C2480 C2479 1.394 . S
C2480 H2507 0.929 . S
C2481 Tb2472 2.764 . S
C2481 C2475 1.504 . S
C2481 O2493 1.239 . S
C2481 O2494 1.263 . S
O2482 Tb2472 2.325 . S
O2482 C2492 1.236 . S
O2483 Tb2473 2.322 . S
O2483 C2492 1.257 . S
O2484 Tb2473 2.349 . S
O2484 C2495 1.261 . S
O2485 Tb2472 2.303 . S
O2485 C2495 1.257 . S
O2486 Tb2473 2.415 . S
O2486 C2502 1.239 . S
O2487 Tb2473 2.399 . S
O2487 C2502 1.263 . S
O2488 Tb2473 2.325 . S
O2488 C2503 1.236 . S
O2489 Tb2472 2.322 . S
O2489 C2503 1.257 . S
O2490 Tb2472 2.349 . S
O2490 C2474 1.261 . S
O2491 Tb2473 2.303 . S
O2491 C2474 1.257 . S
C2492 O2482 1.236 . S
C2492 O2483 1.257 . S
O2493 Tb2472 2.415 . S
O2493 C2481 1.239 . S
O2494 Tb2472 2.399 . S
O2494 C2481 1.263 . S
C2495 O2484 1.261 . S
C2495 O2485 1.257 . S
C2496 C2499 1.358 . S
C2496 C2500 1.332 . S
C2496 C2502 1.504 . S
C2497 C2498 1.373 . S
C2497 C2501 1.308 . S
C2498 C2497 1.373 . S
C2498 C2499 1.429 . S
C2498 H2508 0.932 . S
C2499 C2496 1.358 . S
C2499 C2498 1.429 . S
C2499 H2509 0.930 . S
C2500 C2496 1.332 . S
C2500 C2501 1.394 . S
C2500 H2510 0.932 . S
C2501 C2497 1.308 . S
C2501 C2500 1.394 . S
C2501 H2511 0.929 . S
C2502 Tb2473 2.764 . S
C2502 O2486 1.239 . S
C2502 O2487 1.263 . S
C2502 C2496 1.504 . S
C2503 O2488 1.236 . S
C2503 O2489 1.257 . S
H2504 C2477 0.932 . S
H2505 C2478 0.930 . S
H2506 C2479 0.932 . S
H2507 C2480 0.929 . S
H2508 C2498 0.932 . S
H2509 C2499 0.930 . S
H2510 C2500 0.932 . S
H2511 C2501 0.929 . S
Tb2512 C2521 2.764 . S
Tb2512 O2522 2.325 . S
Tb2512 O2525 2.303 . S
Tb2512 O2529 2.322 . S
Tb2512 O2530 2.349 . S
Tb2512 O2533 2.415 . S
Tb2512 O2534 2.399 . S
Tb2513 O2523 2.322 . S
Tb2513 O2524 2.349 . S
Tb2513 O2526 2.415 . S
Tb2513 O2527 2.399 . S
Tb2513 O2528 2.325 . S
Tb2513 O2531 2.303 . S
Tb2513 C2542 2.764 . S
C2514 O2530 1.261 . S
C2514 O2531 1.257 . S
C2515 C2518 1.358 . S
C2515 C2519 1.332 . S
C2515 C2521 1.504 . S
C2516 C2517 1.373 . S
C2516 C2520 1.308 1_455 S
C2517 C2516 1.373 . S
C2517 C2518 1.429 . S
C2517 H2544 0.932 . S
C2518 C2515 1.358 . S
C2518 C2517 1.429 . S
C2518 H2545 0.930 . S
C2519 C2515 1.332 . S
C2519 C2520 1.394 1_455 S
C2519 H2546 0.932 1_455 S
C2520 C2516 1.308 1_655 S
C2520 C2519 1.394 1_655 S
C2520 H2547 0.929 . S
C2521 Tb2512 2.764 . S
C2521 C2515 1.504 . S
C2521 O2533 1.239 . S
C2521 O2534 1.263 . S
O2522 Tb2512 2.325 . S
O2522 C2532 1.236 . S
O2523 Tb2513 2.322 . S
O2523 C2532 1.257 . S
O2524 Tb2513 2.349 . S
O2524 C2535 1.257 1_455 S
O2525 Tb2512 2.303 . S
O2525 C2535 1.230 1_455 S
O2526 Tb2513 2.415 . S
O2526 C2542 1.239 . S
O2527 Tb2513 2.399 . S
O2527 C2542 1.263 . S
O2528 Tb2513 2.325 . S
O2528 C2543 1.236 . S
O2529 Tb2512 2.322 . S
O2529 C2543 1.257 . S
O2530 Tb2512 2.349 . S
O2530 C2514 1.261 . S
O2531 Tb2513 2.303 . S
O2531 C2514 1.257 . S
C2532 O2522 1.236 . S
C2532 O2523 1.257 . S
O2533 Tb2512 2.415 . S
O2533 C2521 1.239 . S
O2534 Tb2512 2.399 . S
O2534 C2521 1.263 . S
C2535 O2524 1.257 1_655 S
C2535 O2525 1.230 1_655 S
C2536 C2539 1.358 . S
C2536 C2540 1.332 . S
C2536 C2542 1.504 . S
C2537 C2538 1.373 . S
C2537 C2541 1.308 . S
C2538 C2537 1.373 . S
C2538 C2539 1.429 . S
C2538 H2548 0.932 . S
C2539 C2536 1.358 . S
C2539 C2538 1.429 . S
C2539 H2549 0.930 . S
C2540 C2536 1.332 . S
C2540 C2541 1.394 . S
C2540 H2550 0.932 . S
C2541 C2537 1.308 . S
C2541 C2540 1.394 . S
C2541 H2551 0.929 . S
C2542 Tb2513 2.764 . S
C2542 O2526 1.239 . S
C2542 O2527 1.263 . S
C2542 C2536 1.504 . S
C2543 O2528 1.236 . S
C2543 O2529 1.257 . S
H2544 C2517 0.932 . S
H2545 C2518 0.930 . S
H2546 C2519 0.932 1_655 S
H2547 C2520 0.929 . S
H2548 C2538 0.932 . S
H2549 C2539 0.930 . S
H2550 C2540 0.932 . S
H2551 C2541 0.929 . S
Tb2552 C2561 2.764 . S
Tb2552 O2562 2.325 . S
Tb2552 O2565 2.303 . S
Tb2552 O2569 2.322 . S
Tb2552 O2570 2.349 . S
Tb2552 O2573 2.415 . S
Tb2552 O2574 2.399 . S
Tb2553 O2563 2.322 . S
Tb2553 O2564 2.349 . S
Tb2553 O2566 2.415 . S
Tb2553 O2567 2.399 . S
Tb2553 O2568 2.325 . S
Tb2553 O2571 2.303 . S
Tb2553 C2582 2.764 . S
C2554 O2570 1.261 . S
C2554 O2571 1.257 . S
C2555 C2558 1.358 . S
C2555 C2559 1.332 . S
C2555 C2561 1.504 . S
C2556 C2557 1.373 . S
C2556 C2560 1.308 . S
C2557 C2556 1.373 . S
C2557 C2558 1.429 . S
C2557 H2584 0.932 . S
C2558 C2555 1.358 . S
C2558 C2557 1.429 . S
C2558 H2585 0.930 . S
C2559 C2555 1.332 . S
C2559 C2560 1.394 . S
C2559 H2586 0.932 . S
C2560 C2556 1.308 . S
C2560 C2559 1.394 . S
C2560 H2587 0.929 . S
C2561 Tb2552 2.764 . S
C2561 C2555 1.504 . S
C2561 O2573 1.239 . S
C2561 O2574 1.263 . S
O2562 Tb2552 2.325 . S
O2562 C2572 1.236 . S
O2563 Tb2553 2.322 . S
O2563 C2572 1.257 . S
O2564 Tb2553 2.349 . S
O2564 C2575 1.261 . S
O2565 Tb2552 2.303 . S
O2565 C2575 1.257 . S
O2566 Tb2553 2.415 . S
O2566 C2582 1.239 . S
O2567 Tb2553 2.399 . S
O2567 C2582 1.263 . S
O2568 Tb2553 2.325 . S
O2568 C2583 1.236 . S
O2569 Tb2552 2.322 . S
O2569 C2583 1.257 . S
O2570 Tb2552 2.349 . S
O2570 C2554 1.261 . S
O2571 Tb2553 2.303 . S
O2571 C2554 1.257 . S
C2572 O2562 1.236 . S
C2572 O2563 1.257 . S
O2573 Tb2552 2.415 . S
O2573 C2561 1.239 . S
O2574 Tb2552 2.399 . S
O2574 C2561 1.263 . S
C2575 O2564 1.261 . S
C2575 O2565 1.257 . S
C2576 C2579 1.358 . S
C2576 C2580 1.332 . S
C2576 C2582 1.504 . S
C2577 C2578 1.373 . S
C2577 C2581 1.308 . S
C2578 C2577 1.373 . S
C2578 C2579 1.429 . S
C2578 H2588 0.932 . S
C2579 C2576 1.358 . S
C2579 C2578 1.429 . S
C2579 H2589 0.930 . S
C2580 C2576 1.332 . S
C2580 C2581 1.394 . S
C2580 H2590 0.932 . S
C2581 C2577 1.308 . S
C2581 C2580 1.394 . S
C2581 H2591 0.929 . S
C2582 Tb2553 2.764 . S
C2582 O2566 1.239 . S
C2582 O2567 1.263 . S
C2582 C2576 1.504 . S
C2583 O2568 1.236 . S
C2583 O2569 1.257 . S
H2584 C2557 0.932 . S
H2585 C2558 0.930 . S
H2586 C2559 0.932 . S
H2587 C2560 0.929 . S
H2588 C2578 0.932 . S
H2589 C2579 0.930 . S
H2590 C2580 0.932 . S
H2591 C2581 0.929 . S
Tb2592 C2601 2.764 . S
Tb2592 O2602 2.325 . S
Tb2592 O2605 2.303 . S
Tb2592 O2609 2.322 . S
Tb2592 O2610 2.349 . S
Tb2592 O2613 2.415 . S
Tb2592 O2614 2.399 . S
Tb2593 O2603 2.322 . S
Tb2593 O2604 2.349 . S
Tb2593 O2606 2.415 . S
Tb2593 O2607 2.399 . S
Tb2593 O2608 2.325 . S
Tb2593 O2611 2.303 . S
Tb2593 C2622 2.764 . S
C2594 O2610 1.261 . S
C2594 O2611 1.257 . S
C2595 C2598 1.358 . S
C2595 C2599 1.332 . S
C2595 C2601 1.504 . S
C2596 C2597 1.373 . S
C2596 C2600 1.308 . S
C2597 C2596 1.373 . S
C2597 C2598 1.429 . S
C2597 H2624 0.932 . S
C2598 C2595 1.358 . S
C2598 C2597 1.429 . S
C2598 H2625 0.930 . S
C2599 C2595 1.332 . S
C2599 C2600 1.394 . S
C2599 H2626 0.932 . S
C2600 C2596 1.308 . S
C2600 C2599 1.394 . S
C2600 H2627 0.929 . S
C2601 Tb2592 2.764 . S
C2601 C2595 1.504 . S
C2601 O2613 1.239 . S
C2601 O2614 1.263 . S
O2602 Tb2592 2.325 . S
O2602 C2612 1.236 . S
O2603 Tb2593 2.322 . S
O2603 C2612 1.257 . S
O2604 Tb2593 2.349 . S
O2604 C2615 1.261 . S
O2605 Tb2592 2.303 . S
O2605 C2615 1.257 . S
O2606 Tb2593 2.415 . S
O2606 C2622 1.239 . S
O2607 Tb2593 2.399 . S
O2607 C2622 1.263 . S
O2608 Tb2593 2.325 . S
O2608 C2623 1.236 . S
O2609 Tb2592 2.322 . S
O2609 C2623 1.257 . S
O2610 Tb2592 2.349 . S
O2610 C2594 1.261 . S
O2611 Tb2593 2.303 . S
O2611 C2594 1.257 . S
C2612 O2602 1.236 . S
C2612 O2603 1.257 . S
O2613 Tb2592 2.415 . S
O2613 C2601 1.239 . S
O2614 Tb2592 2.399 . S
O2614 C2601 1.263 . S
C2615 O2604 1.261 . S
C2615 O2605 1.257 . S
C2616 C2619 1.358 . S
C2616 C2620 1.332 . S
C2616 C2622 1.504 . S
C2617 C2618 1.373 . S
C2617 C2621 1.308 . S
C2618 C2617 1.373 . S
C2618 C2619 1.429 . S
C2618 H2628 0.932 . S
C2619 C2616 1.358 . S
C2619 C2618 1.429 . S
C2619 H2629 0.930 . S
C2620 C2616 1.332 . S
C2620 C2621 1.394 . S
C2620 H2630 0.932 . S
C2621 C2617 1.308 . S
C2621 C2620 1.394 . S
C2621 H2631 0.929 . S
C2622 Tb2593 2.764 . S
C2622 O2606 1.239 . S
C2622 O2607 1.263 . S
C2622 C2616 1.504 . S
C2623 O2608 1.236 . S
C2623 O2609 1.257 . S
H2624 C2597 0.932 . S
H2625 C2598 0.930 . S
H2626 C2599 0.932 . S
H2627 C2600 0.929 . S
H2628 C2618 0.932 . S
H2629 C2619 0.930 . S
H2630 C2620 0.932 . S
H2631 C2621 0.929 . S
Tb2632 C2641 2.764 . S
Tb2632 O2642 2.325 . S
Tb2632 O2645 2.303 . S
Tb2632 O2649 2.322 . S
Tb2632 O2650 2.349 . S
Tb2632 O2653 2.415 . S
Tb2632 O2654 2.399 . S
Tb2633 O2643 2.322 . S
Tb2633 O2644 2.349 . S
Tb2633 O2646 2.415 . S
Tb2633 O2647 2.399 . S
Tb2633 O2648 2.325 . S
Tb2633 O2651 2.303 . S
Tb2633 C2662 2.764 . S
C2634 O2650 1.261 . S
C2634 O2651 1.257 . S
C2635 C2638 1.358 . S
C2635 C2639 1.332 . S
C2635 C2641 1.504 . S
C2636 C2637 1.373 . S
C2636 C2640 1.308 . S
C2637 C2636 1.373 . S
C2637 C2638 1.429 . S
C2637 H2664 0.932 . S
C2638 C2635 1.358 . S
C2638 C2637 1.429 . S
C2638 H2665 0.930 . S
C2639 C2635 1.332 . S
C2639 C2640 1.394 . S
C2639 H2666 0.932 . S
C2640 C2636 1.308 . S
C2640 C2639 1.394 . S
C2640 H2667 0.929 . S
C2641 Tb2632 2.764 . S
C2641 C2635 1.504 . S
C2641 O2653 1.239 . S
C2641 O2654 1.263 . S
O2642 Tb2632 2.325 . S
O2642 C2652 1.236 . S
O2643 Tb2633 2.322 . S
O2643 C2652 1.257 . S
O2644 Tb2633 2.349 . S
O2644 C2655 1.261 . S
O2645 Tb2632 2.303 . S
O2645 C2655 1.257 . S
O2646 Tb2633 2.415 . S
O2646 C2662 1.239 . S
O2647 Tb2633 2.399 . S
O2647 C2662 1.263 . S
O2648 Tb2633 2.325 . S
O2648 C2663 1.236 . S
O2649 Tb2632 2.322 . S
O2649 C2663 1.257 . S
O2650 Tb2632 2.349 . S
O2650 C2634 1.261 . S
O2651 Tb2633 2.303 . S
O2651 C2634 1.257 . S
C2652 O2642 1.236 . S
C2652 O2643 1.257 . S
O2653 Tb2632 2.415 . S
O2653 C2641 1.239 . S
O2654 Tb2632 2.399 . S
O2654 C2641 1.263 . S
C2655 O2644 1.261 . S
C2655 O2645 1.257 . S
C2656 C2659 1.358 . S
C2656 C2660 1.332 . S
C2656 C2662 1.504 . S
C2657 C2658 1.373 . S
C2657 C2661 1.308 . S
C2658 C2657 1.373 . S
C2658 C2659 1.429 . S
C2658 H2668 0.932 . S
C2659 C2656 1.358 . S
C2659 C2658 1.429 . S
C2659 H2669 0.930 . S
C2660 C2656 1.332 . S
C2660 C2661 1.394 . S
C2660 H2670 0.932 . S
C2661 C2657 1.308 . S
C2661 C2660 1.394 . S
C2661 H2671 0.929 . S
C2662 Tb2633 2.764 . S
C2662 O2646 1.239 . S
C2662 O2647 1.263 . S
C2662 C2656 1.504 . S
C2663 O2648 1.236 . S
C2663 O2649 1.257 . S
H2664 C2637 0.932 . S
H2665 C2638 0.930 . S
H2666 C2639 0.932 . S
H2667 C2640 0.929 . S
H2668 C2658 0.932 . S
H2669 C2659 0.930 . S
H2670 C2660 0.932 . S
H2671 C2661 0.929 . S
Tb2672 C2681 2.764 . S
Tb2672 O2682 2.325 . S
Tb2672 O2685 2.303 . S
Tb2672 O2689 2.322 . S
Tb2672 O2690 2.349 . S
Tb2672 O2693 2.415 . S
Tb2672 O2694 2.399 . S
Tb2673 O2683 2.322 . S
Tb2673 O2684 2.349 . S
Tb2673 O2686 2.415 . S
Tb2673 O2687 2.399 . S
Tb2673 O2688 2.325 . S
Tb2673 O2691 2.303 . S
Tb2673 C2702 2.764 . S
C2674 O2690 1.261 . S
C2674 O2691 1.257 . S
C2675 C2678 1.358 . S
C2675 C2679 1.332 . S
C2675 C2681 1.504 . S
C2676 C2677 1.373 . S
C2676 C2680 1.308 . S
C2677 C2676 1.373 . S
C2677 C2678 1.429 . S
C2677 H2704 0.932 . S
C2678 C2675 1.358 . S
C2678 C2677 1.429 . S
C2678 H2705 0.930 . S
C2679 C2675 1.332 . S
C2679 C2680 1.394 . S
C2679 H2706 0.932 . S
C2680 C2676 1.308 . S
C2680 C2679 1.394 . S
C2680 H2707 0.929 . S
C2681 Tb2672 2.764 . S
C2681 C2675 1.504 . S
C2681 O2693 1.239 . S
C2681 O2694 1.263 . S
O2682 Tb2672 2.325 . S
O2682 C2692 1.236 . S
O2683 Tb2673 2.322 . S
O2683 C2692 1.257 . S
O2684 Tb2673 2.349 . S
O2684 C2695 1.261 . S
O2685 Tb2672 2.303 . S
O2685 C2695 1.257 . S
O2686 Tb2673 2.415 . S
O2686 C2702 1.239 . S
O2687 Tb2673 2.399 . S
O2687 C2702 1.263 . S
O2688 Tb2673 2.325 . S
O2688 C2703 1.236 . S
O2689 Tb2672 2.322 . S
O2689 C2703 1.257 . S
O2690 Tb2672 2.349 . S
O2690 C2674 1.261 . S
O2691 Tb2673 2.303 . S
O2691 C2674 1.257 . S
C2692 O2682 1.236 . S
C2692 O2683 1.257 . S
O2693 Tb2672 2.415 . S
O2693 C2681 1.239 . S
O2694 Tb2672 2.399 . S
O2694 C2681 1.263 . S
C2695 O2684 1.261 . S
C2695 O2685 1.257 . S
C2696 C2699 1.358 . S
C2696 C2700 1.332 . S
C2696 C2702 1.504 . S
C2697 C2698 1.373 . S
C2697 C2701 1.308 . S
C2698 C2697 1.373 . S
C2698 C2699 1.429 . S
C2698 H2708 0.932 . S
C2699 C2696 1.358 . S
C2699 C2698 1.429 . S
C2699 H2709 0.930 . S
C2700 C2696 1.332 . S
C2700 C2701 1.394 . S
C2700 H2710 0.932 . S
C2701 C2697 1.308 . S
C2701 C2700 1.394 . S
C2701 H2711 0.929 . S
C2702 Tb2673 2.764 . S
C2702 O2686 1.239 . S
C2702 O2687 1.263 . S
C2702 C2696 1.504 . S
C2703 O2688 1.236 . S
C2703 O2689 1.257 . S
H2704 C2677 0.932 . S
H2705 C2678 0.930 . S
H2706 C2679 0.932 . S
H2707 C2680 0.929 . S
H2708 C2698 0.932 . S
H2709 C2699 0.930 . S
H2710 C2700 0.932 . S
H2711 C2701 0.929 . S
Tb2712 C2721 2.764 1_455 S
Tb2712 O2722 2.325 . S
Tb2712 O2725 2.303 . S
Tb2712 O2729 2.322 . S
Tb2712 O2730 2.349 . S
Tb2712 O2733 2.415 1_455 S
Tb2712 O2734 2.399 1_455 S
Tb2713 O2723 2.322 . S
Tb2713 O2724 2.349 1_554 S
Tb2713 O2726 2.415 . S
Tb2713 O2727 2.399 1_554 S
Tb2713 O2728 2.325 . S
Tb2713 O2731 2.303 . S
Tb2713 C2742 2.764 . S
C2714 O2730 1.261 . S
C2714 O2731 1.257 . S
C2715 C2718 1.358 . S
C2715 C2719 1.332 . S
C2715 C2721 1.504 . S
C2716 C2717 1.373 . S
C2716 C2720 1.308 . S
C2717 C2716 1.373 . S
C2717 C2718 1.429 . S
C2717 H2744 0.932 . S
C2718 C2715 1.358 . S
C2718 C2717 1.429 . S
C2718 H2745 0.930 . S
C2719 C2715 1.332 . S
C2719 C2720 1.394 . S
C2719 H2746 0.932 . S
C2720 C2716 1.308 . S
C2720 C2719 1.394 . S
C2720 H2747 0.929 . S
C2721 Tb2712 2.764 1_655 S
C2721 C2715 1.504 . S
C2721 O2733 1.239 . S
C2721 O2734 1.263 . S
O2722 Tb2712 2.325 . S
O2722 C2732 1.236 . S
O2723 Tb2713 2.322 . S
O2723 C2732 1.257 . S
O2724 Tb2713 2.349 1_556 S
O2724 C2735 1.261 . S
O2725 Tb2712 2.303 . S
O2725 C2735 1.257 1_554 S
O2726 Tb2713 2.415 . S
O2726 C2742 1.239 . S
O2727 Tb2713 2.399 1_556 S
O2727 C2742 1.263 1_556 S
O2728 Tb2713 2.325 . S
O2728 C2743 1.236 . S
O2729 Tb2712 2.322 . S
O2729 C2743 1.257 . S
O2730 Tb2712 2.349 . S
O2730 C2714 1.261 . S
O2731 Tb2713 2.303 . S
O2731 C2714 1.257 . S
C2732 O2722 1.236 . S
C2732 O2723 1.257 . S
O2733 Tb2712 2.415 1_655 S
O2733 C2721 1.239 . S
O2734 Tb2712 2.399 1_655 S
O2734 C2721 1.263 . S
C2735 O2724 1.261 . S
C2735 O2725 1.257 1_556 S
C2736 C2739 1.358 1_554 S
C2736 C2740 1.332 . S
C2736 C2742 1.504 . S
C2737 C2738 1.373 1_554 S
C2737 C2741 1.308 . S
C2738 C2737 1.373 1_556 S
C2738 C2739 1.429 . S
C2738 H2748 0.932 . S
C2739 C2736 1.358 1_556 S
C2739 C2738 1.429 . S
C2739 H2749 0.930 . S
C2740 C2736 1.332 . S
C2740 C2741 1.394 . S
C2740 H2750 0.932 . S
C2741 C2737 1.308 . S
C2741 C2740 1.394 . S
C2741 H2751 0.929 . S
C2742 Tb2713 2.764 . S
C2742 O2726 1.239 . S
C2742 O2727 1.263 1_554 S
C2742 C2736 1.504 . S
C2743 O2728 1.236 . S
C2743 O2729 1.257 . S
H2744 C2717 0.932 . S
H2745 C2718 0.930 . S
H2746 C2719 0.932 . S
H2747 C2720 0.929 . S
H2748 C2738 0.932 . S
H2749 C2739 0.930 . S
H2750 C2740 0.932 . S
H2751 C2741 0.929 . S
C2752 C2753 1.391 1_455 S
C2752 C2754 1.394 . S
C2752 H2768 0.931 . S
C2753 C2752 1.391 1_655 S
C2753 C2757 1.429 . S
C2754 C2752 1.394 . S
C2754 C2755 1.369 . S
C2754 C2758 1.531 . S
C2755 C2754 1.369 . S
C2755 C2756 1.410 1_456 S
C2755 C2763 1.503 1_556 S
C2756 C2755 1.410 1_654 S
C2756 C2757 1.368 1_554 S
C2756 C2759 1.511 . S
C2757 C2753 1.429 . S
C2757 C2756 1.368 1_556 S
C2757 H2769 0.902 1_556 S
C2758 C2754 1.531 . S
C2758 H2770 0.960 . S
C2758 H2771 0.962 . S
C2758 H2772 0.960 . S
C2759 C2756 1.511 . S
C2759 H2773 0.961 . S
C2759 H2774 0.961 . S
C2759 H2775 0.961 . S
C2760 C2761 1.401 . S
C2760 C2762 1.350 1_554 S
C2760 H2776 0.916 1_554 S
C2761 C2760 1.401 . S
C2761 C2765 1.408 . S
C2762 C2760 1.350 1_556 S
C2762 C2763 1.370 1_556 S
C2762 C2766 1.524 1_455 S
C2763 C2755 1.503 1_554 S
C2763 C2762 1.370 1_554 S
C2763 C2764 1.403 . S
C2764 C2763 1.403 . S
C2764 C2765 1.404 . S
C2764 C2767 1.539 . S
C2765 C2761 1.408 . S
C2765 C2764 1.404 . S
C2765 H2777 0.930 . S
C2766 C2762 1.524 1_655 S
C2766 H2778 0.956 . S
C2766 H2779 0.961 . S
C2766 H2780 0.961 . S
C2767 C2764 1.539 . S
C2767 H2781 0.958 . S
C2767 H2782 0.961 . S
C2767 H2783 0.960 . S
H2768 C2752 0.931 . S
H2769 C2757 0.902 1_554 S
H2770 C2758 0.960 . S
H2771 C2758 0.962 . S
H2772 C2758 0.960 . S
H2773 C2759 0.961 . S
H2774 C2759 0.961 . S
H2775 C2759 0.961 . S
H2776 C2760 0.916 1_556 S
H2777 C2765 0.930 . S
H2778 C2766 0.956 . S
H2779 C2766 0.961 . S
H2780 C2766 0.961 . S
H2781 C2767 0.958 . S
H2782 C2767 0.961 . S
H2783 C2767 0.960 . S
C2784 C2785 1.391 . S
C2784 C2786 1.394 . S
C2784 H2800 0.931 . S
C2785 C2784 1.391 . S
C2785 C2789 1.376 . S
C2786 C2784 1.394 . S
C2786 C2787 1.369 . S
C2786 C2790 1.531 . S
C2787 C2786 1.369 . S
C2787 C2788 1.410 . S
C2787 C2795 1.503 . S
C2788 C2787 1.410 . S
C2788 C2789 1.392 . S
C2788 C2791 1.511 . S
C2789 C2785 1.376 . S
C2789 C2788 1.392 . S
C2789 H2801 0.929 . S
C2790 C2786 1.531 . S
C2790 H2802 0.960 . S
C2790 H2803 0.962 . S
C2790 H2804 0.960 . S
C2791 C2788 1.511 . S
C2791 H2805 0.961 . S
C2791 H2806 0.961 . S
C2791 H2807 0.961 . S
C2792 C2793 1.370 . S
C2792 C2794 1.363 . S
C2792 H2808 0.931 . S
C2793 C2792 1.370 . S
C2793 C2797 1.408 . S
C2794 C2792 1.363 . S
C2794 C2795 1.370 . S
C2794 C2798 1.524 . S
C2795 C2787 1.503 . S
C2795 C2794 1.370 . S
C2795 C2796 1.403 . S
C2796 C2795 1.403 . S
C2796 C2797 1.404 . S
C2796 C2799 1.539 . S
C2797 C2793 1.408 . S
C2797 C2796 1.404 . S
C2797 H2809 0.930 . S
C2798 C2794 1.524 . S
C2798 H2810 0.956 . S
C2798 H2811 0.961 . S
C2798 H2812 0.961 . S
C2799 C2796 1.539 . S
C2799 H2813 0.958 . S
C2799 H2814 0.961 . S
C2799 H2815 0.960 . S
H2800 C2784 0.931 . S
H2801 C2789 0.929 . S
H2802 C2790 0.960 . S
H2803 C2790 0.962 . S
H2804 C2790 0.960 . S
H2805 C2791 0.961 . S
H2806 C2791 0.961 . S
H2807 C2791 0.961 . S
H2808 C2792 0.931 . S
H2809 C2797 0.930 . S
H2810 C2798 0.956 . S
H2811 C2798 0.961 . S
H2812 C2798 0.961 . S
H2813 C2799 0.958 . S
H2814 C2799 0.961 . S
H2815 C2799 0.960 . S
C2816 C2817 1.391 . S
C2816 C2818 1.394 . S
C2816 H2832 0.931 . S
C2817 C2816 1.391 . S
C2817 C2821 1.376 . S
C2818 C2816 1.394 . S
C2818 C2819 1.369 . S
C2818 C2822 1.531 . S
C2819 C2818 1.369 . S
C2819 C2820 1.410 . S
C2819 C2827 1.503 . S
C2820 C2819 1.410 . S
C2820 C2821 1.392 . S
C2820 C2823 1.511 . S
C2821 C2817 1.376 . S
C2821 C2820 1.392 . S
C2821 H2833 0.929 . S
C2822 C2818 1.531 . S
C2822 H2834 0.960 . S
C2822 H2835 0.962 . S
C2822 H2836 0.960 . S
C2823 C2820 1.511 . S
C2823 H2837 0.961 . S
C2823 H2838 0.961 . S
C2823 H2839 0.961 . S
C2824 C2825 1.370 . S
C2824 C2826 1.363 . S
C2824 H2840 0.931 . S
C2825 C2824 1.370 . S
C2825 C2829 1.408 . S
C2826 C2824 1.363 . S
C2826 C2827 1.370 . S
C2826 C2830 1.524 . S
C2827 C2819 1.503 . S
C2827 C2826 1.370 . S
C2827 C2828 1.403 . S
C2828 C2827 1.403 . S
C2828 C2829 1.404 . S
C2828 C2831 1.539 . S
C2829 C2825 1.408 . S
C2829 C2828 1.404 . S
C2829 H2841 0.930 . S
C2830 C2826 1.524 . S
C2830 H2842 0.956 . S
C2830 H2843 0.961 . S
C2830 H2844 0.961 . S
C2831 C2828 1.539 . S
C2831 H2845 0.958 . S
C2831 H2846 0.961 . S
C2831 H2847 0.960 . S
H2832 C2816 0.931 . S
H2833 C2821 0.929 . S
H2834 C2822 0.960 . S
H2835 C2822 0.962 . S
H2836 C2822 0.960 . S
H2837 C2823 0.961 . S
H2838 C2823 0.961 . S
H2839 C2823 0.961 . S
H2840 C2824 0.931 . S
H2841 C2829 0.930 . S
H2842 C2830 0.956 . S
H2843 C2830 0.961 . S
H2844 C2830 0.961 . S
H2845 C2831 0.958 . S
H2846 C2831 0.961 . S
H2847 C2831 0.960 . S
C2848 C2849 1.391 . S
C2848 C2850 1.394 . S
C2848 H2864 0.931 . S
C2849 C2848 1.391 . S
C2849 C2853 1.376 . S
C2850 C2848 1.394 . S
C2850 C2851 1.369 . S
C2850 C2854 1.531 . S
C2851 C2850 1.369 . S
C2851 C2852 1.410 . S
C2851 C2859 1.503 . S
C2852 C2851 1.410 . S
C2852 C2853 1.392 . S
C2852 C2855 1.511 . S
C2853 C2849 1.376 . S
C2853 C2852 1.392 . S
C2853 H2865 0.929 . S
C2854 C2850 1.531 . S
C2854 H2866 0.960 . S
C2854 H2867 0.962 . S
C2854 H2868 0.960 . S
C2855 C2852 1.511 . S
C2855 H2869 0.961 . S
C2855 H2870 0.961 . S
C2855 H2871 0.961 . S
C2856 C2857 1.370 . S
C2856 C2858 1.363 . S
C2856 H2872 0.931 . S
C2857 C2856 1.370 . S
C2857 C2861 1.408 . S
C2858 C2856 1.363 . S
C2858 C2859 1.370 . S
C2858 C2862 1.524 . S
C2859 C2851 1.503 . S
C2859 C2858 1.370 . S
C2859 C2860 1.403 . S
C2860 C2859 1.403 . S
C2860 C2861 1.404 . S
C2860 C2863 1.539 . S
C2861 C2857 1.408 . S
C2861 C2860 1.404 . S
C2861 H2873 0.930 . S
C2862 C2858 1.524 . S
C2862 H2874 0.956 . S
C2862 H2875 0.961 . S
C2862 H2876 0.961 . S
C2863 C2860 1.539 . S
C2863 H2877 0.958 . S
C2863 H2878 0.961 . S
C2863 H2879 0.960 . S
H2864 C2848 0.931 . S
H2865 C2853 0.929 . S
H2866 C2854 0.960 . S
H2867 C2854 0.962 . S
H2868 C2854 0.960 . S
H2869 C2855 0.961 . S
H2870 C2855 0.961 . S
H2871 C2855 0.961 . S
H2872 C2856 0.931 . S
H2873 C2861 0.930 . S
H2874 C2862 0.956 . S
H2875 C2862 0.961 . S
H2876 C2862 0.961 . S
H2877 C2863 0.958 . S
H2878 C2863 0.961 . S
H2879 C2863 0.960 . S
C2880 C2881 1.391 . S
C2880 C2882 1.394 . S
C2880 H2896 0.931 . S
C2881 C2880 1.391 . S
C2881 C2885 1.376 . S
C2882 C2880 1.394 . S
C2882 C2883 1.369 . S
C2882 C2886 1.531 . S
C2883 C2882 1.369 . S
C2883 C2884 1.410 . S
C2883 C2891 1.503 . S
C2884 C2883 1.410 . S
C2884 C2885 1.392 . S
C2884 C2887 1.511 . S
C2885 C2881 1.376 . S
C2885 C2884 1.392 . S
C2885 H2897 0.929 . S
C2886 C2882 1.531 . S
C2886 H2898 0.960 . S
C2886 H2899 0.962 . S
C2886 H2900 0.960 . S
C2887 C2884 1.511 . S
C2887 H2901 0.961 . S
C2887 H2902 0.961 . S
C2887 H2903 0.961 . S
C2888 C2889 1.370 . S
C2888 C2890 1.363 . S
C2888 H2904 0.931 . S
C2889 C2888 1.370 . S
C2889 C2893 1.408 . S
C2890 C2888 1.363 . S
C2890 C2891 1.370 . S
C2890 C2894 1.524 . S
C2891 C2883 1.503 . S
C2891 C2890 1.370 . S
C2891 C2892 1.403 . S
C2892 C2891 1.403 . S
C2892 C2893 1.404 . S
C2892 C2895 1.539 . S
C2893 C2889 1.408 . S
C2893 C2892 1.404 . S
C2893 H2905 0.930 . S
C2894 C2890 1.524 . S
C2894 H2906 0.956 . S
C2894 H2907 0.961 . S
C2894 H2908 0.961 . S
C2895 C2892 1.539 . S
C2895 H2909 0.958 . S
C2895 H2910 0.961 . S
C2895 H2911 0.960 . S
H2896 C2880 0.931 . S
H2897 C2885 0.929 . S
H2898 C2886 0.960 . S
H2899 C2886 0.962 . S
H2900 C2886 0.960 . S
H2901 C2887 0.961 . S
H2902 C2887 0.961 . S
H2903 C2887 0.961 . S
H2904 C2888 0.931 . S
H2905 C2893 0.930 . S
H2906 C2894 0.956 . S
H2907 C2894 0.961 . S
H2908 C2894 0.961 . S
H2909 C2895 0.958 . S
H2910 C2895 0.961 . S
H2911 C2895 0.960 . S
C2912 C2913 1.391 . S
C2912 C2914 1.394 . S
C2912 H2928 0.931 . S
C2913 C2912 1.391 . S
C2913 C2917 1.376 . S
C2914 C2912 1.394 . S
C2914 C2915 1.369 . S
C2914 C2918 1.531 . S
C2915 C2914 1.369 . S
C2915 C2916 1.410 . S
C2915 C2923 1.503 . S
C2916 C2915 1.410 . S
C2916 C2917 1.392 . S
C2916 C2919 1.511 . S
C2917 C2913 1.376 . S
C2917 C2916 1.392 . S
C2917 H2929 0.929 . S
C2918 C2914 1.531 . S
C2918 H2930 0.960 . S
C2918 H2931 0.962 . S
C2918 H2932 0.960 . S
C2919 C2916 1.511 . S
C2919 H2933 0.961 . S
C2919 H2934 0.961 . S
C2919 H2935 0.961 . S
C2920 C2921 1.370 . S
C2920 C2922 1.363 . S
C2920 H2936 0.931 . S
C2921 C2920 1.370 . S
C2921 C2925 1.408 . S
C2922 C2920 1.363 . S
C2922 C2923 1.370 . S
C2922 C2926 1.524 . S
C2923 C2915 1.503 . S
C2923 C2922 1.370 . S
C2923 C2924 1.403 . S
C2924 C2923 1.403 . S
C2924 C2925 1.404 . S
C2924 C2927 1.539 . S
C2925 C2921 1.408 . S
C2925 C2924 1.404 . S
C2925 H2937 0.930 . S
C2926 C2922 1.524 . S
C2926 H2938 0.956 . S
C2926 H2939 0.961 . S
C2926 H2940 0.961 . S
C2927 C2924 1.539 . S
C2927 H2941 0.958 . S
C2927 H2942 0.961 . S
C2927 H2943 0.960 . S
H2928 C2912 0.931 . S
H2929 C2917 0.929 . S
H2930 C2918 0.960 . S
H2931 C2918 0.962 . S
H2932 C2918 0.960 . S
H2933 C2919 0.961 . S
H2934 C2919 0.961 . S
H2935 C2919 0.961 . S
H2936 C2920 0.931 . S
H2937 C2925 0.930 . S
H2938 C2926 0.956 . S
H2939 C2926 0.961 . S
H2940 C2926 0.961 . S
H2941 C2927 0.958 . S
H2942 C2927 0.961 . S
H2943 C2927 0.960 . S
C2944 C2945 1.391 . S
C2944 C2946 1.394 . S
C2944 H2960 0.931 . S
C2945 C2944 1.391 . S
C2945 C2949 1.376 . S
C2946 C2944 1.394 . S
C2946 C2947 1.369 . S
C2946 C2950 1.531 . S
C2947 C2946 1.369 . S
C2947 C2948 1.410 . S
C2947 C2955 1.503 . S
C2948 C2947 1.410 . S
C2948 C2949 1.392 . S
C2948 C2951 1.511 . S
C2949 C2945 1.376 . S
C2949 C2948 1.392 . S
C2949 H2961 0.929 . S
C2950 C2946 1.531 . S
C2950 H2962 0.960 . S
C2950 H2963 0.962 . S
C2950 H2964 0.960 . S
C2951 C2948 1.511 . S
C2951 H2965 0.961 . S
C2951 H2966 0.961 . S
C2951 H2967 0.961 . S
C2952 C2953 1.370 . S
C2952 C2954 1.363 . S
C2952 H2968 0.931 . S
C2953 C2952 1.370 . S
C2953 C2957 1.408 . S
C2954 C2952 1.363 . S
C2954 C2955 1.370 . S
C2954 C2958 1.524 . S
C2955 C2947 1.503 . S
C2955 C2954 1.370 . S
C2955 C2956 1.403 . S
C2956 C2955 1.403 . S
C2956 C2957 1.404 . S
C2956 C2959 1.539 . S
C2957 C2953 1.408 . S
C2957 C2956 1.404 . S
C2957 H2969 0.930 . S
C2958 C2954 1.524 . S
C2958 H2970 0.956 . S
C2958 H2971 0.961 . S
C2958 H2972 0.961 . S
C2959 C2956 1.539 . S
C2959 H2973 0.958 . S
C2959 H2974 0.961 . S
C2959 H2975 0.960 . S
H2960 C2944 0.931 . S
H2961 C2949 0.929 . S
H2962 C2950 0.960 . S
H2963 C2950 0.962 . S
H2964 C2950 0.960 . S
H2965 C2951 0.961 . S
H2966 C2951 0.961 . S
H2967 C2951 0.961 . S
H2968 C2952 0.931 . S
H2969 C2957 0.930 . S
H2970 C2958 0.956 . S
H2971 C2958 0.961 . S
H2972 C2958 0.961 . S
H2973 C2959 0.958 . S
H2974 C2959 0.961 . S
H2975 C2959 0.960 . S
C2976 C2977 1.391 . S
C2976 C2978 1.394 . S
C2976 H2992 0.931 . S
C2977 C2976 1.391 . S
C2977 C2981 1.376 . S
C2978 C2976 1.394 . S
C2978 C2979 1.369 . S
C2978 C2982 1.531 . S
C2979 C2978 1.369 . S
C2979 C2980 1.410 . S
C2979 C2987 1.503 . S
C2980 C2979 1.410 . S
C2980 C2981 1.392 . S
C2980 C2983 1.511 . S
C2981 C2977 1.376 . S
C2981 C2980 1.392 . S
C2981 H2993 0.929 . S
C2982 C2978 1.531 . S
C2982 H2994 0.960 . S
C2982 H2995 0.962 . S
C2982 H2996 0.960 . S
C2983 C2980 1.511 . S
C2983 H2997 0.961 . S
C2983 H2998 0.961 . S
C2983 H2999 0.961 . S
C2984 C2985 1.370 . S
C2984 C2986 1.363 . S
C2984 H3000 0.931 . S
C2985 C2984 1.370 . S
C2985 C2989 1.408 . S
C2986 C2984 1.363 . S
C2986 C2987 1.370 . S
C2986 C2990 1.524 . S
C2987 C2979 1.503 . S
C2987 C2986 1.370 . S
C2987 C2988 1.403 . S
C2988 C2987 1.403 . S
C2988 C2989 1.404 . S
C2988 C2991 1.539 . S
C2989 C2985 1.408 . S
C2989 C2988 1.404 . S
C2989 H3001 0.930 . S
C2990 C2986 1.524 . S
C2990 H3002 0.956 . S
C2990 H3003 0.961 . S
C2990 H3004 0.961 . S
C2991 C2988 1.539 . S
C2991 H3005 0.958 . S
C2991 H3006 0.961 . S
C2991 H3007 0.960 . S
H2992 C2976 0.931 . S
H2993 C2981 0.929 . S
H2994 C2982 0.960 . S
H2995 C2982 0.962 . S
H2996 C2982 0.960 . S
H2997 C2983 0.961 . S
H2998 C2983 0.961 . S
H2999 C2983 0.961 . S
H3000 C2984 0.931 . S
H3001 C2989 0.930 . S
H3002 C2990 0.956 . S
H3003 C2990 0.961 . S
H3004 C2990 0.961 . S
H3005 C2991 0.958 . S
H3006 C2991 0.961 . S
H3007 C2991 0.960 . S
C3008 C3009 1.391 . S
C3008 C3010 1.394 . S
C3008 H3024 0.931 . S
C3009 C3008 1.391 . S
C3009 C3013 1.376 . S
C3010 C3008 1.394 . S
C3010 C3011 1.369 . S
C3010 C3014 1.531 . S
C3011 C3010 1.369 . S
C3011 C3012 1.408 . S
C3011 C3019 1.503 1_655 S
C3012 C3011 1.408 . S
C3012 C3013 1.389 . S
C3012 C3015 1.516 1_655 S
C3013 C3009 1.376 . S
C3013 C3012 1.389 . S
C3013 H3025 0.929 . S
C3014 C3010 1.531 . S
C3014 H3026 0.960 . S
C3014 H3027 0.962 . S
C3014 H3028 0.960 . S
C3015 C3012 1.516 1_455 S
C3015 H3029 0.942 1_545 S
C3015 H3030 0.961 . S
C3015 H3031 0.961 . S
C3016 C3017 1.370 . S
C3016 C3018 1.363 1_455 S
C3016 H3032 0.931 . S
C3017 C3016 1.370 . S
C3017 C3021 1.408 . S
C3018 C3016 1.363 1_655 S
C3018 C3019 1.370 1_655 S
C3018 C3022 1.524 1_545 S
C3019 C3011 1.503 1_455 S
C3019 C3018 1.370 1_455 S
C3019 C3020 1.403 . S
C3020 C3019 1.403 . S
C3020 C3021 1.404 . S
C3020 C3023 1.539 . S
C3021 C3017 1.408 . S
C3021 C3020 1.404 . S
C3021 H3033 0.930 . S
C3022 C3018 1.524 1_565 S
C3022 H3034 0.956 1_565 S
C3022 H3035 0.961 . S
C3022 H3036 0.961 . S
C3023 C3020 1.539 . S
C3023 H3037 0.958 . S
C3023 H3038 0.961 . S
C3023 H3039 0.960 . S
H3024 C3008 0.931 . S
H3025 C3013 0.929 . S
H3026 C3014 0.960 . S
H3027 C3014 0.962 . S
H3028 C3014 0.960 . S
H3029 C3015 0.942 1_565 S
H3030 C3015 0.961 . S
H3031 C3015 0.961 . S
H3032 C3016 0.931 . S
H3033 C3021 0.930 . S
H3034 C3022 0.956 1_545 S
H3035 C3022 0.961 . S
H3036 C3022 0.961 . S
H3037 C3023 0.958 . S
H3038 C3023 0.961 . S
H3039 C3023 0.960 . S
C3040 C3041 1.391 . S
C3040 C3042 1.394 . S
C3040 H3056 0.931 . S
C3041 C3040 1.391 . S
C3041 C3045 1.376 . S
C3042 C3040 1.394 . S
C3042 C3043 1.369 . S
C3042 C3046 1.531 . S
C3043 C3042 1.369 . S
C3043 C3044 1.410 . S
C3043 C3051 1.503 . S
C3044 C3043 1.410 . S
C3044 C3045 1.392 . S
C3044 C3047 1.511 . S
C3045 C3041 1.376 . S
C3045 C3044 1.392 . S
C3045 H3057 0.929 . S
C3046 C3042 1.531 . S
C3046 H3058 0.960 . S
C3046 H3059 0.962 . S
C3046 H3060 0.960 . S
C3047 C3044 1.511 . S
C3047 H3061 0.961 . S
C3047 H3062 0.961 . S
C3047 H3063 0.961 . S
C3048 C3049 1.370 . S
C3048 C3050 1.363 . S
C3048 H3064 0.931 . S
C3049 C3048 1.370 . S
C3049 C3053 1.408 . S
C3050 C3048 1.363 . S
C3050 C3051 1.370 . S
C3050 C3054 1.524 . S
C3051 C3043 1.503 . S
C3051 C3050 1.370 . S
C3051 C3052 1.403 . S
C3052 C3051 1.403 . S
C3052 C3053 1.404 . S
C3052 C3055 1.539 . S
C3053 C3049 1.408 . S
C3053 C3052 1.404 . S
C3053 H3065 0.930 . S
C3054 C3050 1.524 . S
C3054 H3066 0.956 . S
C3054 H3067 0.961 . S
C3054 H3068 0.961 . S
C3055 C3052 1.539 . S
C3055 H3069 0.958 . S
C3055 H3070 0.961 . S
C3055 H3071 0.960 . S
H3056 C3040 0.931 . S
H3057 C3045 0.929 . S
H3058 C3046 0.960 . S
H3059 C3046 0.962 . S
H3060 C3046 0.960 . S
H3061 C3047 0.961 . S
H3062 C3047 0.961 . S
H3063 C3047 0.961 . S
H3064 C3048 0.931 . S
H3065 C3053 0.930 . S
H3066 C3054 0.956 . S
H3067 C3054 0.961 . S
H3068 C3054 0.961 . S
H3069 C3055 0.958 . S
H3070 C3055 0.961 . S
H3071 C3055 0.960 . S
C3072 C3073 1.391 . S
C3072 C3074 1.394 . S
C3072 H3088 0.931 . S
C3073 C3072 1.391 . S
C3073 C3077 1.376 . S
C3074 C3072 1.394 . S
C3074 C3075 1.369 . S
C3074 C3078 1.531 . S
C3075 C3074 1.369 . S
C3075 C3076 1.410 . S
C3075 C3083 1.503 . S
C3076 C3075 1.410 . S
C3076 C3077 1.392 . S
C3076 C3079 1.511 . S
C3077 C3073 1.376 . S
C3077 C3076 1.392 . S
C3077 H3089 0.929 . S
C3078 C3074 1.531 . S
C3078 H3090 0.960 . S
C3078 H3091 0.962 . S
C3078 H3092 0.960 . S
C3079 C3076 1.511 . S
C3079 H3093 0.961 1_545 S
C3079 H3094 0.961 . S
C3079 H3095 0.961 . S
C3080 C3081 1.371 1_565 S
C3080 C3082 1.357 . S
C3080 H3096 0.930 . S
C3081 C3080 1.371 1_545 S
C3081 C3085 1.408 . S
C3082 C3080 1.357 . S
C3082 C3083 1.350 1_565 S
C3082 C3086 1.551 . S
C3083 C3075 1.503 . S
C3083 C3082 1.350 1_545 S
C3083 C3084 1.403 . S
C3084 C3083 1.403 . S
C3084 C3085 1.404 . S
C3084 C3087 1.539 . S
C3085 C3081 1.408 . S
C3085 C3084 1.404 . S
C3085 H3097 0.930 . S
C3086 C3082 1.551 . S
C3086 H3098 0.956 . S
C3086 H3099 0.961 . S
C3086 H3100 0.961 . S
C3087 C3084 1.539 . S
C3087 H3101 0.958 . S
C3087 H3102 0.961 . S
C3087 H3103 0.960 . S
H3088 C3072 0.931 . S
H3089 C3077 0.929 . S
H3090 C3078 0.960 . S
H3091 C3078 0.962 . S
H3092 C3078 0.960 . S
H3093 C3079 0.961 1_565 S
H3094 C3079 0.961 . S
H3095 C3079 0.961 . S
H3096 C3080 0.930 . S
H3097 C3085 0.930 . S
H3098 C3086 0.956 . S
H3099 C3086 0.961 . S
H3100 C3086 0.961 . S
H3101 C3087 0.958 . S
H3102 C3087 0.961 . S
H3103 C3087 0.960 . S
C3104 C3105 1.391 . S
C3104 C3106 1.394 . S
C3104 H3120 0.931 . S
C3105 C3104 1.391 . S
C3105 C3109 1.376 . S
C3106 C3104 1.394 . S
C3106 C3107 1.369 . S
C3106 C3110 1.531 . S
C3107 C3106 1.369 . S
C3107 C3108 1.410 . S
C3107 C3115 1.503 . S
C3108 C3107 1.410 . S
C3108 C3109 1.392 . S
C3108 C3111 1.511 . S
C3109 C3105 1.376 . S
C3109 C3108 1.392 . S
C3109 H3121 0.929 . S
C3110 C3106 1.531 . S
C3110 H3122 0.960 . S
C3110 H3123 0.962 . S
C3110 H3124 0.960 . S
C3111 C3108 1.511 . S
C3111 H3125 0.961 . S
C3111 H3126 0.961 . S
C3111 H3127 0.961 . S
C3112 C3113 1.370 . S
C3112 C3114 1.363 . S
C3112 H3128 0.931 . S
C3113 C3112 1.370 . S
C3113 C3117 1.408 . S
C3114 C3112 1.363 . S
C3114 C3115 1.370 . S
C3114 C3118 1.524 . S
C3115 C3107 1.503 . S
C3115 C3114 1.370 . S
C3115 C3116 1.403 . S
C3116 C3115 1.403 . S
C3116 C3117 1.404 . S
C3116 C3119 1.539 . S
C3117 C3113 1.408 . S
C3117 C3116 1.404 . S
C3117 H3129 0.930 . S
C3118 C3114 1.524 . S
C3118 H3130 0.956 . S
C3118 H3131 0.961 . S
C3118 H3132 0.961 . S
C3119 C3116 1.539 . S
C3119 H3133 0.958 . S
C3119 H3134 0.961 . S
C3119 H3135 0.960 . S
H3120 C3104 0.931 . S
H3121 C3109 0.929 . S
H3122 C3110 0.960 . S
H3123 C3110 0.962 . S
H3124 C3110 0.960 . S
H3125 C3111 0.961 . S
H3126 C3111 0.961 . S
H3127 C3111 0.961 . S
H3128 C3112 0.931 . S
H3129 C3117 0.930 . S
H3130 C3118 0.956 . S
H3131 C3118 0.961 . S
H3132 C3118 0.961 . S
H3133 C3119 0.958 . S
H3134 C3119 0.961 . S
H3135 C3119 0.960 . S
C3136 C3137 1.391 . S
C3136 C3138 1.394 . S
C3136 H3152 0.932 . S
C3137 C3136 1.391 . S
C3137 C3141 1.376 . S
C3138 C3136 1.394 . S
C3138 C3139 1.369 . S
C3138 C3142 1.531 1_545 S
C3139 C3138 1.369 . S
C3139 C3140 1.410 . S
C3139 C3147 1.503 . S
C3140 C3139 1.410 . S
C3140 C3141 1.392 . S
C3140 C3143 1.511 1_655 S
C3141 C3137 1.376 . S
C3141 C3140 1.392 . S
C3141 H3153 0.929 . S
C3142 C3138 1.531 1_565 S
C3142 H3154 0.960 . S
C3142 H3155 0.962 . S
C3142 H3156 0.960 . S
C3143 C3140 1.511 1_455 S
C3143 H3157 0.961 . S
C3143 H3158 0.961 . S
C3143 H3159 0.961 . S
C3144 C3145 1.370 1_655 S
C3144 C3146 1.363 . S
C3144 H3160 0.931 . S
C3145 C3144 1.370 1_455 S
C3145 C3149 1.437 . S
C3146 C3144 1.363 . S
C3146 C3147 1.370 . S
C3146 C3150 1.524 . S
C3147 C3139 1.503 . S
C3147 C3146 1.370 . S
C3147 C3148 1.403 1_655 S
C3148 C3147 1.403 1_455 S
C3148 C3149 1.420 . S
C3148 C3151 1.539 1_545 S
C3149 C3145 1.437 . S
C3149 C3148 1.420 . S
C3149 H3161 0.889 1_545 S
C3150 C3146 1.524 . S
C3150 H3162 0.956 . S
C3150 H3163 0.961 . S
C3150 H3164 0.961 . S
C3151 C3148 1.539 1_565 S
C3151 H3165 0.958 . S
C3151 H3166 0.961 . S
C3151 H3167 0.960 1_565 S
H3152 C3136 0.932 . S
H3153 C3141 0.929 . S
H3154 C3142 0.960 . S
H3155 C3142 0.962 . S
H3156 C3142 0.960 . S
H3157 C3143 0.961 . S
H3158 C3143 0.961 . S
H3159 C3143 0.961 . S
H3160 C3144 0.931 . S
H3161 C3149 0.889 1_565 S
H3162 C3150 0.956 . S
H3163 C3150 0.961 . S
H3164 C3150 0.961 . S
H3165 C3151 0.958 . S
H3166 C3151 0.961 . S
H3167 C3151 0.960 1_545 S
C3168 C3169 1.391 . S
C3168 C3170 1.394 . S
C3168 H3184 0.931 . S
C3169 C3168 1.391 . S
C3169 C3173 1.376 . S
C3170 C3168 1.394 . S
C3170 C3171 1.369 . S
C3170 C3174 1.531 . S
C3171 C3170 1.369 . S
C3171 C3172 1.410 . S
C3171 C3179 1.503 . S
C3172 C3171 1.410 . S
C3172 C3173 1.392 . S
C3172 C3175 1.511 . S
C3173 C3169 1.376 . S
C3173 C3172 1.392 . S
C3173 H3185 0.929 . S
C3174 C3170 1.531 . S
C3174 H3186 0.960 . S
C3174 H3187 0.962 . S
C3174 H3188 0.960 . S
C3175 C3172 1.511 . S
C3175 H3189 0.961 . S
C3175 H3190 0.961 . S
C3175 H3191 0.961 . S
C3176 C3177 1.370 . S
C3176 C3178 1.363 . S
C3176 H3192 0.931 . S
C3177 C3176 1.370 . S
C3177 C3181 1.408 . S
C3178 C3176 1.363 . S
C3178 C3179 1.370 . S
C3178 C3182 1.524 . S
C3179 C3171 1.503 . S
C3179 C3178 1.370 . S
C3179 C3180 1.403 . S
C3180 C3179 1.403 . S
C3180 C3181 1.404 . S
C3180 C3183 1.539 . S
C3181 C3177 1.408 . S
C3181 C3180 1.404 . S
C3181 H3193 0.930 . S
C3182 C3178 1.524 . S
C3182 H3194 0.956 . S
C3182 H3195 0.961 . S
C3182 H3196 0.961 . S
C3183 C3180 1.539 . S
C3183 H3197 0.958 . S
C3183 H3198 0.961 . S
C3183 H3199 0.960 . S
H3184 C3168 0.931 . S
H3185 C3173 0.929 . S
H3186 C3174 0.960 . S
H3187 C3174 0.962 . S
H3188 C3174 0.960 . S
H3189 C3175 0.961 . S
H3190 C3175 0.961 . S
H3191 C3175 0.961 . S
H3192 C3176 0.931 . S
H3193 C3181 0.930 . S
H3194 C3182 0.956 . S
H3195 C3182 0.961 . S
H3196 C3182 0.961 . S
H3197 C3183 0.958 . S
H3198 C3183 0.961 . S
H3199 C3183 0.960 . S
C3200 C3201 1.391 . S
C3200 C3202 1.394 . S
C3200 H3216 0.931 . S
C3201 C3200 1.391 . S
C3201 C3205 1.376 . S
C3202 C3200 1.394 . S
C3202 C3203 1.369 . S
C3202 C3206 1.531 . S
C3203 C3202 1.369 . S
C3203 C3204 1.410 . S
C3203 C3211 1.503 . S
C3204 C3203 1.410 . S
C3204 C3205 1.392 . S
C3204 C3207 1.511 1_545 S
C3205 C3201 1.376 . S
C3205 C3204 1.392 . S
C3205 H3217 0.929 1_545 S
C3206 C3202 1.531 . S
C3206 H3218 0.960 . S
C3206 H3219 0.962 . S
C3206 H3220 0.960 . S
C3207 C3204 1.511 1_565 S
C3207 H3221 0.961 . S
C3207 H3222 0.961 . S
C3207 H3223 0.961 . S
C3208 C3209 1.370 . S
C3208 C3210 1.363 . S
C3208 H3224 0.931 . S
C3209 C3208 1.370 . S
C3209 C3213 1.408 . S
C3210 C3208 1.363 . S
C3210 C3211 1.370 . S
C3210 C3214 1.524 . S
C3211 C3203 1.503 . S
C3211 C3210 1.370 . S
C3211 C3212 1.403 . S
C3212 C3211 1.403 . S
C3212 C3213 1.404 . S
C3212 C3215 1.539 . S
C3213 C3209 1.408 . S
C3213 C3212 1.404 . S
C3213 H3225 0.930 . S
C3214 C3210 1.524 . S
C3214 H3226 0.956 . S
C3214 H3227 0.961 1_545 S
C3214 H3228 0.961 1_545 S
C3215 C3212 1.539 . S
C3215 H3229 0.958 . S
C3215 H3230 0.961 . S
C3215 H3231 0.960 . S
H3216 C3200 0.931 . S
H3217 C3205 0.929 1_565 S
H3218 C3206 0.960 . S
H3219 C3206 0.962 . S
H3220 C3206 0.960 . S
H3221 C3207 0.961 . S
H3222 C3207 0.961 . S
H3223 C3207 0.961 . S
H3224 C3208 0.931 . S
H3225 C3213 0.930 . S
H3226 C3214 0.956 . S
H3227 C3214 0.961 1_565 S
H3228 C3214 0.961 1_565 S
H3229 C3215 0.958 . S
H3230 C3215 0.961 . S
H3231 C3215 0.960 . S
C3232 C3233 1.391 . S
C3232 C3234 1.394 . S
C3232 H3248 0.931 . S
C3233 C3232 1.391 . S
C3233 C3237 1.376 . S
C3234 C3232 1.394 . S
C3234 C3235 1.369 . S
C3234 C3238 1.531 . S
C3235 C3234 1.369 . S
C3235 C3236 1.410 . S
C3235 C3243 1.503 . S
C3236 C3235 1.410 . S
C3236 C3237 1.392 . S
C3236 C3239 1.511 . S
C3237 C3233 1.376 . S
C3237 C3236 1.392 . S
C3237 H3249 0.929 . S
C3238 C3234 1.531 . S
C3238 H3250 0.960 . S
C3238 H3251 0.962 . S
C3238 H3252 0.960 . S
C3239 C3236 1.511 . S
C3239 H3253 0.961 . S
C3239 H3254 0.961 . S
C3239 H3255 0.961 . S
C3240 C3241 1.370 . S
C3240 C3242 1.363 . S
C3240 H3256 0.931 . S
C3241 C3240 1.370 . S
C3241 C3245 1.408 . S
C3242 C3240 1.363 . S
C3242 C3243 1.370 . S
C3242 C3246 1.524 . S
C3243 C3235 1.503 . S
C3243 C3242 1.370 . S
C3243 C3244 1.403 . S
C3244 C3243 1.403 . S
C3244 C3245 1.404 . S
C3244 C3247 1.539 . S
C3245 C3241 1.408 . S
C3245 C3244 1.404 . S
C3245 H3257 0.930 . S
C3246 C3242 1.524 . S
C3246 H3258 0.956 . S
C3246 H3259 0.961 . S
C3246 H3260 0.961 . S
C3247 C3244 1.539 . S
C3247 H3261 0.958 . S
C3247 H3262 0.961 . S
C3247 H3263 0.960 . S
H3248 C3232 0.931 . S
H3249 C3237 0.929 . S
H3250 C3238 0.960 . S
H3251 C3238 0.962 . S
H3252 C3238 0.960 . S
H3253 C3239 0.961 . S
H3254 C3239 0.961 . S
H3255 C3239 0.961 . S
H3256 C3240 0.931 . S
H3257 C3245 0.930 . S
H3258 C3246 0.956 . S
H3259 C3246 0.961 . S
H3260 C3246 0.961 . S
H3261 C3247 0.958 . S
H3262 C3247 0.961 . S
H3263 C3247 0.960 . S
C3264 C3265 1.391 1_556 S
C3264 C3266 1.394 1_556 S
C3264 H3280 0.931 . S
C3265 C3264 1.391 1_554 S
C3265 C3269 1.376 . S
C3266 C3264 1.394 1_554 S
C3266 C3267 1.369 . S
C3266 C3270 1.531 1_554 S
C3267 C3266 1.369 . S
C3267 C3268 1.410 . S
C3267 C3275 1.503 . S
C3268 C3267 1.410 . S
C3268 C3269 1.392 . S
C3268 C3271 1.511 . S
C3269 C3265 1.376 . S
C3269 C3268 1.392 . S
C3269 H3281 0.929 . S
C3270 C3266 1.531 1_556 S
C3270 H3282 0.960 . S
C3270 H3283 0.962 1_565 S
C3270 H3284 0.960 . S
C3271 C3268 1.511 . S
C3271 H3285 0.961 . S
C3271 H3286 0.961 . S
C3271 H3287 0.961 . S
C3272 C3273 1.370 . S
C3272 C3274 1.363 . S
C3272 H3288 0.931 . S
C3273 C3272 1.370 . S
C3273 C3277 1.408 1_545 S
C3274 C3272 1.363 . S
C3274 C3275 1.370 1_545 S
C3274 C3278 1.524 . S
C3275 C3267 1.503 . S
C3275 C3274 1.370 1_565 S
C3275 C3276 1.403 . S
C3276 C3275 1.403 . S
C3276 C3277 1.404 . S
C3276 C3279 1.539 . S
C3277 C3273 1.408 1_565 S
C3277 C3276 1.404 . S
C3277 H3289 0.930 . S
C3278 C3274 1.524 . S
C3278 H3290 0.956 . S
C3278 H3291 0.961 . S
C3278 H3292 0.961 . S
C3279 C3276 1.539 . S
C3279 H3293 0.958 . S
C3279 H3294 0.961 . S
C3279 H3295 0.960 . S
H3280 C3264 0.931 . S
H3281 C3269 0.929 . S
H3282 C3270 0.960 . S
H3283 C3270 0.962 1_545 S
H3284 C3270 0.960 . S
H3285 C3271 0.961 . S
H3286 C3271 0.961 . S
H3287 C3271 0.961 . S
H3288 C3272 0.931 . S
H3289 C3277 0.930 . S
H3290 C3278 0.956 . S
H3291 C3278 0.961 . S
H3292 C3278 0.961 . S
H3293 C3279 0.958 . S
H3294 C3279 0.961 . S
H3295 C3279 0.960 . S
C3296 C3297 1.391 . S
C3296 C3298 1.394 . S
C3296 H3312 0.931 1_554 S
C3297 C3296 1.391 . S
C3297 C3301 1.376 . S
C3298 C3296 1.394 . S
C3298 C3299 1.369 . S
C3298 C3302 1.531 1_554 S
C3299 C3298 1.369 . S
C3299 C3300 1.410 . S
C3299 C3307 1.503 . S
C3300 C3299 1.410 . S
C3300 C3301 1.392 . S
C3300 C3303 1.511 . S
C3301 C3297 1.376 . S
C3301 C3300 1.392 . S
C3301 H3313 0.929 . S
C3302 C3298 1.531 1_556 S
C3302 H3314 0.960 . S
C3302 H3315 0.962 . S
C3302 H3316 0.960 . S
C3303 C3300 1.511 . S
C3303 H3317 0.961 . S
C3303 H3318 0.961 . S
C3303 H3319 0.961 . S
C3304 C3305 1.370 . S
C3304 C3306 1.363 . S
C3304 H3320 0.931 . S
C3305 C3304 1.370 . S
C3305 C3309 1.408 . S
C3306 C3304 1.363 . S
C3306 C3307 1.370 . S
C3306 C3310 1.524 . S
C3307 C3299 1.503 . S
C3307 C3306 1.370 . S
C3307 C3308 1.403 . S
C3308 C3307 1.403 . S
C3308 C3309 1.404 . S
C3308 C3311 1.539 . S
C3309 C3305 1.408 . S
C3309 C3308 1.404 . S
C3309 H3321 0.930 . S
C3310 C3306 1.524 . S
C3310 H3322 0.956 . S
C3310 H3323 0.961 . S
C3310 H3324 0.961 . S
C3311 C3308 1.539 . S
C3311 H3325 0.916 1_554 S
C3311 H3326 0.961 . S
C3311 H3327 0.960 . S
H3312 C3296 0.931 1_556 S
H3313 C3301 0.929 . S
H3314 C3302 0.960 . S
H3315 C3302 0.962 . S
H3316 C3302 0.960 . S
H3317 C3303 0.961 . S
H3318 C3303 0.961 . S
H3319 C3303 0.961 . S
H3320 C3304 0.931 . S
H3321 C3309 0.930 . S
H3322 C3310 0.956 . S
H3323 C3310 0.961 . S
H3324 C3310 0.961 . S
H3325 C3311 0.916 1_556 S
H3326 C3311 0.961 . S
H3327 C3311 0.960 . S
C3328 C3329 1.391 . S
C3328 C3330 1.394 . S
C3328 H3344 0.931 . S
C3329 C3328 1.391 . S
C3329 C3333 1.376 . S
C3330 C3328 1.394 . S
C3330 C3331 1.369 . S
C3330 C3334 1.531 . S
C3331 C3330 1.369 . S
C3331 C3332 1.410 . S
C3331 C3339 1.503 . S
C3332 C3331 1.410 . S
C3332 C3333 1.392 . S
C3332 C3335 1.511 . S
C3333 C3329 1.376 . S
C3333 C3332 1.392 . S
C3333 H3345 0.929 . S
C3334 C3330 1.531 . S
C3334 H3346 0.960 . S
C3334 H3347 0.962 . S
C3334 H3348 0.960 . S
C3335 C3332 1.511 . S
C3335 H3349 0.961 . S
C3335 H3350 0.961 . S
C3335 H3351 0.961 . S
C3336 C3337 1.370 . S
C3336 C3338 1.363 . S
C3336 H3352 0.931 . S
C3337 C3336 1.370 . S
C3337 C3341 1.408 . S
C3338 C3336 1.363 . S
C3338 C3339 1.370 . S
C3338 C3342 1.524 . S
C3339 C3331 1.503 . S
C3339 C3338 1.370 . S
C3339 C3340 1.403 . S
C3340 C3339 1.403 . S
C3340 C3341 1.404 . S
C3340 C3343 1.539 . S
C3341 C3337 1.408 . S
C3341 C3340 1.404 . S
C3341 H3353 0.930 . S
C3342 C3338 1.524 . S
C3342 H3354 0.956 . S
C3342 H3355 0.961 . S
C3342 H3356 0.961 . S
C3343 C3340 1.539 . S
C3343 H3357 0.958 . S
C3343 H3358 0.961 . S
C3343 H3359 0.960 . S
H3344 C3328 0.931 . S
H3345 C3333 0.929 . S
H3346 C3334 0.960 . S
H3347 C3334 0.962 . S
H3348 C3334 0.960 . S
H3349 C3335 0.961 . S
H3350 C3335 0.961 . S
H3351 C3335 0.961 . S
H3352 C3336 0.931 . S
H3353 C3341 0.930 . S
H3354 C3342 0.956 . S
H3355 C3342 0.961 . S
H3356 C3342 0.961 . S
H3357 C3343 0.958 . S
H3358 C3343 0.961 . S
H3359 C3343 0.960 . S
C3360 C3361 1.391 . S
C3360 C3362 1.394 . S
C3360 H3376 0.931 . S
C3361 C3360 1.391 . S
C3361 C3365 1.376 . S
C3362 C3360 1.394 . S
C3362 C3363 1.369 . S
C3362 C3366 1.531 . S
C3363 C3362 1.369 . S
C3363 C3364 1.410 . S
C3363 C3371 1.503 . S
C3364 C3363 1.410 . S
C3364 C3365 1.392 . S
C3364 C3367 1.511 . S
C3365 C3361 1.376 . S
C3365 C3364 1.392 . S
C3365 H3377 0.929 . S
C3366 C3362 1.531 . S
C3366 H3378 0.960 . S
C3366 H3379 0.962 . S
C3366 H3380 0.960 . S
C3367 C3364 1.511 . S
C3367 H3381 0.961 . S
C3367 H3382 0.961 . S
C3367 H3383 0.961 . S
C3368 C3369 1.370 . S
C3368 C3370 1.363 . S
C3368 H3384 0.931 . S
C3369 C3368 1.370 . S
C3369 C3373 1.408 . S
C3370 C3368 1.363 . S
C3370 C3371 1.370 . S
C3370 C3374 1.524 . S
C3371 C3363 1.503 . S
C3371 C3370 1.370 . S
C3371 C3372 1.403 . S
C3372 C3371 1.403 . S
C3372 C3373 1.404 . S
C3372 C3375 1.539 . S
C3373 C3369 1.408 . S
C3373 C3372 1.404 . S
C3373 H3385 0.930 . S
C3374 C3370 1.524 . S
C3374 H3386 0.956 . S
C3374 H3387 0.961 . S
C3374 H3388 0.961 . S
C3375 C3372 1.539 . S
C3375 H3389 0.958 . S
C3375 H3390 0.961 . S
C3375 H3391 0.960 . S
H3376 C3360 0.931 . S
H3377 C3365 0.929 . S
H3378 C3366 0.960 . S
H3379 C3366 0.962 . S
H3380 C3366 0.960 . S
H3381 C3367 0.961 . S
H3382 C3367 0.961 . S
H3383 C3367 0.961 . S
H3384 C3368 0.931 . S
H3385 C3373 0.930 . S
H3386 C3374 0.956 . S
H3387 C3374 0.961 . S
H3388 C3374 0.961 . S
H3389 C3375 0.958 . S
H3390 C3375 0.961 . S
H3391 C3375 0.960 . S
C3392 C3393 1.391 . S
C3392 C3394 1.394 . S
C3392 H3408 0.931 . S
C3393 C3392 1.391 . S
C3393 C3397 1.376 . S
C3394 C3392 1.394 . S
C3394 C3395 1.369 . S
C3394 C3398 1.531 . S
C3395 C3394 1.369 . S
C3395 C3396 1.410 . S
C3395 C3403 1.503 . S
C3396 C3395 1.410 . S
C3396 C3397 1.392 . S
C3396 C3399 1.511 . S
C3397 C3393 1.376 . S
C3397 C3396 1.392 . S
C3397 H3409 0.929 . S
C3398 C3394 1.531 . S
C3398 H3410 0.960 . S
C3398 H3411 0.962 . S
C3398 H3412 0.960 . S
C3399 C3396 1.511 . S
C3399 H3413 0.961 . S
C3399 H3414 0.961 . S
C3399 H3415 0.961 . S
C3400 C3401 1.370 . S
C3400 C3402 1.363 . S
C3400 H3416 0.931 . S
C3401 C3400 1.370 . S
C3401 C3405 1.408 . S
C3402 C3400 1.363 . S
C3402 C3403 1.370 . S
C3402 C3406 1.524 . S
C3403 C3395 1.503 . S
C3403 C3402 1.370 . S
C3403 C3404 1.403 . S
C3404 C3403 1.403 . S
C3404 C3405 1.404 . S
C3404 C3407 1.539 . S
C3405 C3401 1.408 . S
C3405 C3404 1.404 . S
C3405 H3417 0.930 . S
C3406 C3402 1.524 . S
C3406 H3418 0.956 . S
C3406 H3419 0.961 . S
C3406 H3420 0.961 . S
C3407 C3404 1.539 . S
C3407 H3421 0.958 . S
C3407 H3422 0.961 . S
C3407 H3423 0.960 . S
H3408 C3392 0.931 . S
H3409 C3397 0.929 . S
H3410 C3398 0.960 . S
H3411 C3398 0.962 . S
H3412 C3398 0.960 . S
H3413 C3399 0.961 . S
H3414 C3399 0.961 . S
H3415 C3399 0.961 . S
H3416 C3400 0.931 . S
H3417 C3405 0.930 . S
H3418 C3406 0.956 . S
H3419 C3406 0.961 . S
H3420 C3406 0.961 . S
H3421 C3407 0.958 . S
H3422 C3407 0.961 . S
H3423 C3407 0.960 . S
C3424 C3425 1.391 . S
C3424 C3426 1.394 . S
C3424 H3440 0.931 . S
C3425 C3424 1.391 . S
C3425 C3429 1.376 . S
C3426 C3424 1.394 . S
C3426 C3427 1.369 . S
C3426 C3430 1.531 . S
C3427 C3426 1.369 . S
C3427 C3428 1.410 . S
C3427 C3435 1.503 . S
C3428 C3427 1.410 . S
C3428 C3429 1.392 . S
C3428 C3431 1.511 . S
C3429 C3425 1.376 . S
C3429 C3428 1.392 . S
C3429 H3441 0.929 . S
C3430 C3426 1.531 . S
C3430 H3442 0.960 . S
C3430 H3443 0.962 . S
C3430 H3444 0.960 . S
C3431 C3428 1.511 . S
C3431 H3445 0.961 . S
C3431 H3446 0.961 . S
C3431 H3447 0.961 . S
C3432 C3433 1.370 . S
C3432 C3434 1.363 . S
C3432 H3448 0.931 . S
C3433 C3432 1.370 . S
C3433 C3437 1.408 . S
C3434 C3432 1.363 . S
C3434 C3435 1.370 . S
C3434 C3438 1.524 . S
C3435 C3427 1.503 . S
C3435 C3434 1.370 . S
C3435 C3436 1.403 . S
C3436 C3435 1.403 . S
C3436 C3437 1.404 . S
C3436 C3439 1.539 . S
C3437 C3433 1.408 . S
C3437 C3436 1.404 . S
C3437 H3449 0.930 . S
C3438 C3434 1.524 . S
C3438 H3450 0.956 . S
C3438 H3451 0.961 . S
C3438 H3452 0.961 . S
C3439 C3436 1.539 . S
C3439 H3453 0.958 . S
C3439 H3454 0.961 . S
C3439 H3455 0.960 . S
H3440 C3424 0.931 . S
H3441 C3429 0.929 . S
H3442 C3430 0.960 . S
H3443 C3430 0.962 . S
H3444 C3430 0.960 . S
H3445 C3431 0.961 . S
H3446 C3431 0.961 . S
H3447 C3431 0.961 . S
H3448 C3432 0.931 . S
H3449 C3437 0.930 . S
H3450 C3438 0.956 . S
H3451 C3438 0.961 . S
H3452 C3438 0.961 . S
H3453 C3439 0.958 . S
H3454 C3439 0.961 . S
H3455 C3439 0.960 . S
C3456 C3457 1.391 . S
C3456 C3458 1.394 . S
C3456 H3472 0.931 . S
C3457 C3456 1.391 . S
C3457 C3461 1.376 . S
C3458 C3456 1.394 . S
C3458 C3459 1.369 . S
C3458 C3462 1.531 . S
C3459 C3458 1.369 . S
C3459 C3460 1.410 . S
C3459 C3467 1.503 . S
C3460 C3459 1.410 . S
C3460 C3461 1.392 . S
C3460 C3463 1.511 . S
C3461 C3457 1.376 . S
C3461 C3460 1.392 . S
C3461 H3473 0.929 . S
C3462 C3458 1.531 . S
C3462 H3474 0.960 . S
C3462 H3475 0.962 . S
C3462 H3476 0.960 . S
C3463 C3460 1.511 . S
C3463 H3477 0.961 . S
C3463 H3478 0.961 . S
C3463 H3479 0.961 . S
C3464 C3465 1.370 . S
C3464 C3466 1.363 . S
C3464 H3480 0.931 . S
C3465 C3464 1.370 . S
C3465 C3469 1.408 . S
C3466 C3464 1.363 . S
C3466 C3467 1.370 . S
C3466 C3470 1.524 . S
C3467 C3459 1.503 . S
C3467 C3466 1.370 . S
C3467 C3468 1.403 . S
C3468 C3467 1.403 . S
C3468 C3469 1.404 . S
C3468 C3471 1.539 . S
C3469 C3465 1.408 . S
C3469 C3468 1.404 . S
C3469 H3481 0.930 . S
C3470 C3466 1.524 . S
C3470 H3482 0.956 . S
C3470 H3483 0.961 . S
C3470 H3484 0.961 . S
C3471 C3468 1.539 . S
C3471 H3485 0.958 . S
C3471 H3486 0.961 . S
C3471 H3487 0.960 . S
H3472 C3456 0.931 . S
H3473 C3461 0.929 . S
H3474 C3462 0.960 . S
H3475 C3462 0.962 . S
H3476 C3462 0.960 . S
H3477 C3463 0.961 . S
H3478 C3463 0.961 . S
H3479 C3463 0.961 . S
H3480 C3464 0.931 . S
H3481 C3469 0.930 . S
H3482 C3470 0.956 . S
H3483 C3470 0.961 . S
H3484 C3470 0.961 . S
H3485 C3471 0.958 . S
H3486 C3471 0.961 . S
H3487 C3471 0.960 . S
C3488 C3489 1.391 . S
C3488 C3490 1.394 . S
C3488 H3504 0.931 . S
C3489 C3488 1.391 . S
C3489 C3493 1.376 . S
C3490 C3488 1.394 . S
C3490 C3491 1.369 . S
C3490 C3494 1.531 . S
C3491 C3490 1.369 . S
C3491 C3492 1.410 . S
C3491 C3499 1.503 . S
C3492 C3491 1.410 . S
C3492 C3493 1.392 . S
C3492 C3495 1.511 . S
C3493 C3489 1.376 . S
C3493 C3492 1.392 . S
C3493 H3505 0.929 . S
C3494 C3490 1.531 . S
C3494 H3506 0.960 . S
C3494 H3507 0.962 . S
C3494 H3508 0.960 . S
C3495 C3492 1.511 . S
C3495 H3509 0.961 . S
C3495 H3510 0.961 . S
C3495 H3511 0.961 . S
C3496 C3497 1.370 . S
C3496 C3498 1.363 . S
C3496 H3512 0.931 . S
C3497 C3496 1.370 . S
C3497 C3501 1.408 . S
C3498 C3496 1.363 . S
C3498 C3499 1.370 . S
C3498 C3502 1.524 . S
C3499 C3491 1.503 . S
C3499 C3498 1.370 . S
C3499 C3500 1.403 . S
C3500 C3499 1.403 . S
C3500 C3501 1.404 . S
C3500 C3503 1.539 . S
C3501 C3497 1.408 . S
C3501 C3500 1.404 . S
C3501 H3513 0.930 . S
C3502 C3498 1.524 . S
C3502 H3514 0.956 . S
C3502 H3515 0.961 . S
C3502 H3516 0.961 . S
C3503 C3500 1.539 . S
C3503 H3517 0.958 . S
C3503 H3518 0.961 . S
C3503 H3519 0.960 . S
H3504 C3488 0.931 . S
H3505 C3493 0.929 . S
H3506 C3494 0.960 . S
H3507 C3494 0.962 . S
H3508 C3494 0.960 . S
H3509 C3495 0.961 . S
H3510 C3495 0.961 . S
H3511 C3495 0.961 . S
H3512 C3496 0.931 . S
H3513 C3501 0.930 . S
H3514 C3502 0.956 . S
H3515 C3502 0.961 . S
H3516 C3502 0.961 . S
H3517 C3503 0.958 . S
H3518 C3503 0.961 . S
H3519 C3503 0.960 . S
C3520 C3521 1.391 . S
C3520 C3522 1.394 . S
C3520 H3536 0.931 . S
C3521 C3520 1.391 . S
C3521 C3525 1.376 . S
C3522 C3520 1.394 . S
C3522 C3523 1.369 . S
C3522 C3526 1.531 . S
C3523 C3522 1.369 . S
C3523 C3524 1.410 . S
C3523 C3531 1.503 . S
C3524 C3523 1.410 . S
C3524 C3525 1.392 . S
C3524 C3527 1.511 . S
C3525 C3521 1.376 . S
C3525 C3524 1.392 . S
C3525 H3537 0.929 . S
C3526 C3522 1.531 . S
C3526 H3538 0.960 . S
C3526 H3539 0.962 . S
C3526 H3540 0.960 . S
C3527 C3524 1.511 . S
C3527 H3541 0.961 . S
C3527 H3542 0.961 . S
C3527 H3543 0.961 . S
C3528 C3529 1.370 . S
C3528 C3530 1.363 . S
C3528 H3544 0.931 . S
C3529 C3528 1.370 . S
C3529 C3533 1.408 . S
C3530 C3528 1.363 . S
C3530 C3531 1.370 . S
C3530 C3534 1.524 . S
C3531 C3523 1.503 . S
C3531 C3530 1.370 . S
C3531 C3532 1.403 . S
C3532 C3531 1.403 . S
C3532 C3533 1.404 . S
C3532 C3535 1.539 . S
C3533 C3529 1.408 . S
C3533 C3532 1.404 . S
C3533 H3545 0.930 . S
C3534 C3530 1.524 . S
C3534 H3546 0.956 . S
C3534 H3547 0.961 . S
C3534 H3548 0.961 . S
C3535 C3532 1.539 . S
C3535 H3549 0.958 . S
C3535 H3550 0.961 . S
C3535 H3551 0.960 . S
H3536 C3520 0.931 . S
H3537 C3525 0.929 . S
H3538 C3526 0.960 . S
H3539 C3526 0.962 . S
H3540 C3526 0.960 . S
H3541 C3527 0.961 . S
H3542 C3527 0.961 . S
H3543 C3527 0.961 . S
H3544 C3528 0.931 . S
H3545 C3533 0.930 . S
H3546 C3534 0.956 . S
H3547 C3534 0.961 . S
H3548 C3534 0.961 . S
H3549 C3535 0.958 . S
H3550 C3535 0.961 . S
H3551 C3535 0.960 . S
C3552 C3553 1.391 . S
C3552 C3554 1.394 . S
C3552 H3568 0.931 . S
C3553 C3552 1.391 . S
C3553 C3557 1.376 . S
C3554 C3552 1.394 . S
C3554 C3555 1.369 . S
C3554 C3558 1.531 . S
C3555 C3554 1.369 . S
C3555 C3556 1.410 . S
C3555 C3563 1.503 . S
C3556 C3555 1.410 . S
C3556 C3557 1.392 . S
C3556 C3559 1.511 . S
C3557 C3553 1.376 . S
C3557 C3556 1.392 . S
C3557 H3569 0.929 . S
C3558 C3554 1.531 . S
C3558 H3570 0.960 . S
C3558 H3571 0.962 . S
C3558 H3572 0.960 . S
C3559 C3556 1.511 . S
C3559 H3573 0.961 . S
C3559 H3574 0.961 . S
C3559 H3575 0.961 . S
C3560 C3561 1.370 . S
C3560 C3562 1.363 . S
C3560 H3576 0.931 . S
C3561 C3560 1.370 . S
C3561 C3565 1.408 . S
C3562 C3560 1.363 . S
C3562 C3563 1.370 . S
C3562 C3566 1.524 . S
C3563 C3555 1.503 . S
C3563 C3562 1.370 . S
C3563 C3564 1.403 . S
C3564 C3563 1.403 . S
C3564 C3565 1.404 . S
C3564 C3567 1.539 . S
C3565 C3561 1.408 . S
C3565 C3564 1.404 . S
C3565 H3577 0.930 . S
C3566 C3562 1.524 . S
C3566 H3578 0.956 . S
C3566 H3579 0.961 . S
C3566 H3580 0.961 . S
C3567 C3564 1.539 . S
C3567 H3581 0.958 . S
C3567 H3582 0.961 . S
C3567 H3583 0.960 . S
H3568 C3552 0.931 . S
H3569 C3557 0.929 . S
H3570 C3558 0.960 . S
H3571 C3558 0.962 . S
H3572 C3558 0.960 . S
H3573 C3559 0.961 . S
H3574 C3559 0.961 . S
H3575 C3559 0.961 . S
H3576 C3560 0.931 . S
H3577 C3565 0.930 . S
H3578 C3566 0.956 . S
H3579 C3566 0.961 . S
H3580 C3566 0.961 . S
H3581 C3567 0.958 . S
H3582 C3567 0.961 . S
H3583 C3567 0.960 . S
C3584 C3585 1.391 . S
C3584 C3586 1.394 . S
C3584 H3600 0.931 . S
C3585 C3584 1.391 . S
C3585 C3589 1.376 . S
C3586 C3584 1.394 . S
C3586 C3587 1.369 . S
C3586 C3590 1.531 . S
C3587 C3586 1.369 . S
C3587 C3588 1.410 . S
C3587 C3595 1.503 . S
C3588 C3587 1.410 . S
C3588 C3589 1.392 . S
C3588 C3591 1.511 . S
C3589 C3585 1.376 . S
C3589 C3588 1.392 . S
C3589 H3601 0.929 . S
C3590 C3586 1.531 . S
C3590 H3602 0.960 . S
C3590 H3603 0.962 . S
C3590 H3604 0.960 . S
C3591 C3588 1.511 . S
C3591 H3605 0.961 . S
C3591 H3606 0.961 . S
C3591 H3607 0.961 . S
C3592 C3593 1.370 . S
C3592 C3594 1.363 . S
C3592 H3608 0.931 . S
C3593 C3592 1.370 . S
C3593 C3597 1.408 . S
C3594 C3592 1.363 . S
C3594 C3595 1.370 . S
C3594 C3598 1.524 . S
C3595 C3587 1.503 . S
C3595 C3594 1.370 . S
C3595 C3596 1.403 . S
C3596 C3595 1.403 . S
C3596 C3597 1.404 . S
C3596 C3599 1.539 . S
C3597 C3593 1.408 . S
C3597 C3596 1.404 . S
C3597 H3609 0.930 . S
C3598 C3594 1.524 . S
C3598 H3610 0.956 . S
C3598 H3611 0.961 . S
C3598 H3612 0.961 . S
C3599 C3596 1.539 . S
C3599 H3613 0.958 . S
C3599 H3614 0.961 . S
C3599 H3615 0.960 . S
H3600 C3584 0.931 . S
H3601 C3589 0.929 . S
H3602 C3590 0.960 . S
H3603 C3590 0.962 . S
H3604 C3590 0.960 . S
H3605 C3591 0.961 . S
H3606 C3591 0.961 . S
H3607 C3591 0.961 . S
H3608 C3592 0.931 . S
H3609 C3597 0.930 . S
H3610 C3598 0.956 . S
H3611 C3598 0.961 . S
H3612 C3598 0.961 . S
H3613 C3599 0.958 . S
H3614 C3599 0.961 . S
H3615 C3599 0.960 . S
C3616 C3617 1.391 . S
C3616 C3618 1.394 . S
C3616 H3632 0.931 . S
C3617 C3616 1.391 . S
C3617 C3621 1.376 . S
C3618 C3616 1.394 . S
C3618 C3619 1.369 . S
C3618 C3622 1.531 . S
C3619 C3618 1.369 . S
C3619 C3620 1.410 . S
C3619 C3627 1.503 . S
C3620 C3619 1.410 . S
C3620 C3621 1.392 . S
C3620 C3623 1.511 . S
C3621 C3617 1.376 . S
C3621 C3620 1.392 . S
C3621 H3633 0.929 . S
C3622 C3618 1.531 . S
C3622 H3634 0.960 . S
C3622 H3635 0.962 . S
C3622 H3636 0.960 . S
C3623 C3620 1.511 . S
C3623 H3637 0.961 . S
C3623 H3638 0.961 . S
C3623 H3639 0.961 . S
C3624 C3625 1.370 . S
C3624 C3626 1.363 . S
C3624 H3640 0.931 . S
C3625 C3624 1.370 . S
C3625 C3629 1.408 . S
C3626 C3624 1.363 . S
C3626 C3627 1.370 . S
C3626 C3630 1.524 . S
C3627 C3619 1.503 . S
C3627 C3626 1.370 . S
C3627 C3628 1.403 . S
C3628 C3627 1.403 . S
C3628 C3629 1.404 . S
C3628 C3631 1.539 . S
C3629 C3625 1.408 . S
C3629 C3628 1.404 . S
C3629 H3641 0.930 . S
C3630 C3626 1.524 . S
C3630 H3642 0.956 . S
C3630 H3643 0.961 . S
C3630 H3644 0.961 . S
C3631 C3628 1.539 . S
C3631 H3645 0.958 . S
C3631 H3646 0.961 . S
C3631 H3647 0.960 . S
H3632 C3616 0.931 . S
H3633 C3621 0.929 . S
H3634 C3622 0.960 . S
H3635 C3622 0.962 . S
H3636 C3622 0.960 . S
H3637 C3623 0.961 . S
H3638 C3623 0.961 . S
H3639 C3623 0.961 . S
H3640 C3624 0.931 . S
H3641 C3629 0.930 . S
H3642 C3630 0.956 . S
H3643 C3630 0.961 . S
H3644 C3630 0.961 . S
H3645 C3631 0.958 . S
H3646 C3631 0.961 . S
H3647 C3631 0.960 . S
C3648 C3649 1.391 . S
C3648 C3650 1.394 . S
C3648 H3664 0.931 . S
C3649 C3648 1.391 . S
C3649 C3653 1.376 . S
C3650 C3648 1.394 . S
C3650 C3651 1.369 . S
C3650 C3654 1.531 . S
C3651 C3650 1.369 . S
C3651 C3652 1.410 . S
C3651 C3659 1.503 . S
C3652 C3651 1.410 . S
C3652 C3653 1.392 . S
C3652 C3655 1.511 1_455 S
C3653 C3649 1.376 . S
C3653 C3652 1.392 . S
C3653 H3665 0.929 1_455 S
C3654 C3650 1.531 . S
C3654 H3666 0.960 . S
C3654 H3667 0.962 . S
C3654 H3668 0.960 . S
C3655 C3652 1.511 1_655 S
C3655 H3669 0.961 . S
C3655 H3670 0.961 . S
C3655 H3671 0.961 . S
C3656 C3657 1.370 . S
C3656 C3658 1.363 . S
C3656 H3672 0.931 . S
C3657 C3656 1.370 . S
C3657 C3661 1.408 . S
C3658 C3656 1.363 . S
C3658 C3659 1.370 . S
C3658 C3662 1.524 . S
C3659 C3651 1.503 . S
C3659 C3658 1.370 . S
C3659 C3660 1.403 . S
C3660 C3659 1.403 . S
C3660 C3661 1.404 . S
C3660 C3663 1.539 . S
C3661 C3657 1.408 . S
C3661 C3660 1.404 . S
C3661 H3673 0.930 . S
C3662 C3658 1.524 . S
C3662 H3674 0.956 . S
C3662 H3675 0.961 . S
C3662 H3676 0.961 . S
C3663 C3660 1.539 . S
C3663 H3677 0.958 . S
C3663 H3678 0.961 . S
C3663 H3679 0.960 . S
H3664 C3648 0.931 . S
H3665 C3653 0.929 1_655 S
H3666 C3654 0.960 . S
H3667 C3654 0.962 . S
H3668 C3654 0.960 . S
H3669 C3655 0.961 . S
H3670 C3655 0.961 . S
H3671 C3655 0.961 . S
H3672 C3656 0.931 . S
H3673 C3661 0.930 . S
H3674 C3662 0.956 . S
H3675 C3662 0.961 . S
H3676 C3662 0.961 . S
H3677 C3663 0.958 . S
H3678 C3663 0.961 . S
H3679 C3663 0.960 . S
C3680 C3681 1.391 . S
C3680 C3682 1.394 . S
C3680 H3696 0.931 . S
C3681 C3680 1.391 . S
C3681 C3685 1.376 . S
C3682 C3680 1.394 . S
C3682 C3683 1.369 . S
C3682 C3686 1.531 . S
C3683 C3682 1.369 . S
C3683 C3684 1.410 . S
C3683 C3691 1.503 . S
C3684 C3683 1.410 . S
C3684 C3685 1.392 . S
C3684 C3687 1.511 . S
C3685 C3681 1.376 . S
C3685 C3684 1.392 . S
C3685 H3697 0.929 . S
C3686 C3682 1.531 . S
C3686 H3698 0.960 . S
C3686 H3699 0.962 . S
C3686 H3700 0.960 . S
C3687 C3684 1.511 . S
C3687 H3701 0.961 . S
C3687 H3702 0.961 . S
C3687 H3703 0.961 . S
C3688 C3689 1.370 . S
C3688 C3690 1.363 . S
C3688 H3704 0.931 . S
C3689 C3688 1.370 . S
C3689 C3693 1.408 . S
C3690 C3688 1.363 . S
C3690 C3691 1.370 . S
C3690 C3694 1.524 . S
C3691 C3683 1.503 . S
C3691 C3690 1.370 . S
C3691 C3692 1.403 . S
C3692 C3691 1.403 . S
C3692 C3693 1.404 . S
C3692 C3695 1.539 . S
C3693 C3689 1.408 . S
C3693 C3692 1.404 . S
C3693 H3705 0.930 . S
C3694 C3690 1.524 . S
C3694 H3706 0.956 . S
C3694 H3707 0.961 . S
C3694 H3708 0.961 . S
C3695 C3692 1.539 . S
C3695 H3709 0.958 . S
C3695 H3710 0.961 . S
C3695 H3711 0.960 . S
H3696 C3680 0.931 . S
H3697 C3685 0.929 . S
H3698 C3686 0.960 . S
H3699 C3686 0.962 . S
H3700 C3686 0.960 . S
H3701 C3687 0.961 . S
H3702 C3687 0.961 . S
H3703 C3687 0.961 . S
H3704 C3688 0.931 . S
H3705 C3693 0.930 . S
H3706 C3694 0.956 . S
H3707 C3694 0.961 . S
H3708 C3694 0.961 . S
H3709 C3695 0.958 . S
H3710 C3695 0.961 . S
H3711 C3695 0.960 . S
C3712 C3713 1.391 . S
C3712 C3714 1.394 . S
C3712 H3728 0.931 . S
C3713 C3712 1.391 . S
C3713 C3717 1.376 . S
C3714 C3712 1.394 . S
C3714 C3715 1.369 . S
C3714 C3718 1.531 . S
C3715 C3714 1.369 . S
C3715 C3716 1.410 . S
C3715 C3723 1.503 . S
C3716 C3715 1.410 . S
C3716 C3717 1.392 . S
C3716 C3719 1.511 . S
C3717 C3713 1.376 . S
C3717 C3716 1.392 . S
C3717 H3729 0.929 . S
C3718 C3714 1.531 . S
C3718 H3730 0.960 . S
C3718 H3731 0.962 . S
C3718 H3732 0.960 . S
C3719 C3716 1.511 . S
C3719 H3733 0.961 . S
C3719 H3734 0.961 . S
C3719 H3735 0.961 . S
C3720 C3721 1.370 . S
C3720 C3722 1.363 . S
C3720 H3736 0.931 1_556 S
C3721 C3720 1.370 . S
C3721 C3725 1.408 . S
C3722 C3720 1.363 . S
C3722 C3723 1.370 . S
C3722 C3726 1.524 . S
C3723 C3715 1.503 . S
C3723 C3722 1.370 . S
C3723 C3724 1.403 . S
C3724 C3723 1.403 . S
C3724 C3725 1.404 . S
C3724 C3727 1.539 . S
C3725 C3721 1.408 . S
C3725 C3724 1.404 . S
C3725 H3737 0.930 . S
C3726 C3722 1.524 . S
C3726 H3738 0.956 . S
C3726 H3739 0.961 . S
C3726 H3740 0.961 . S
C3727 C3724 1.539 . S
C3727 H3741 0.958 . S
C3727 H3742 0.961 . S
C3727 H3743 0.960 . S
H3728 C3712 0.931 . S
H3729 C3717 0.929 . S
H3730 C3718 0.960 . S
H3731 C3718 0.962 . S
H3732 C3718 0.960 . S
H3733 C3719 0.961 . S
H3734 C3719 0.961 . S
H3735 C3719 0.961 . S
H3736 C3720 0.931 1_554 S
H3737 C3725 0.930 . S
H3738 C3726 0.956 . S
H3739 C3726 0.961 . S
H3740 C3726 0.961 . S
H3741 C3727 0.958 . S
H3742 C3727 0.961 . S
H3743 C3727 0.960 . S
C3744 C3745 1.391 . S
C3744 C3746 1.394 . S
C3744 H3760 0.931 . S
C3745 C3744 1.391 . S
C3745 C3749 1.376 . S
C3746 C3744 1.394 . S
C3746 C3747 1.369 . S
C3746 C3750 1.531 . S
C3747 C3746 1.369 . S
C3747 C3748 1.410 . S
C3747 C3755 1.503 . S
C3748 C3747 1.410 . S
C3748 C3749 1.392 . S
C3748 C3751 1.511 . S
C3749 C3745 1.376 . S
C3749 C3748 1.392 . S
C3749 H3761 0.929 . S
C3750 C3746 1.531 . S
C3750 H3762 0.960 . S
C3750 H3763 0.962 . S
C3750 H3764 0.960 . S
C3751 C3748 1.511 . S
C3751 H3765 0.961 . S
C3751 H3766 0.961 . S
C3751 H3767 0.961 . S
C3752 C3753 1.370 . S
C3752 C3754 1.363 . S
C3752 H3768 0.931 . S
C3753 C3752 1.370 . S
C3753 C3757 1.408 . S
C3754 C3752 1.363 . S
C3754 C3755 1.370 . S
C3754 C3758 1.524 . S
C3755 C3747 1.503 . S
C3755 C3754 1.370 . S
C3755 C3756 1.403 . S
C3756 C3755 1.403 . S
C3756 C3757 1.404 . S
C3756 C3759 1.539 . S
C3757 C3753 1.408 . S
C3757 C3756 1.404 . S
C3757 H3769 0.930 . S
C3758 C3754 1.524 . S
C3758 H3770 0.956 . S
C3758 H3771 0.961 . S
C3758 H3772 0.961 . S
C3759 C3756 1.539 . S
C3759 H3773 0.958 . S
C3759 H3774 0.961 . S
C3759 H3775 0.960 . S
H3760 C3744 0.931 . S
H3761 C3749 0.929 . S
H3762 C3750 0.960 . S
H3763 C3750 0.962 . S
H3764 C3750 0.960 . S
H3765 C3751 0.961 . S
H3766 C3751 0.961 . S
H3767 C3751 0.961 . S
H3768 C3752 0.931 . S
H3769 C3757 0.930 . S
H3770 C3758 0.956 . S
H3771 C3758 0.961 . S
H3772 C3758 0.961 . S
H3773 C3759 0.958 . S
H3774 C3759 0.961 . S
H3775 C3759 0.960 . S
C3776 C3777 1.391 . S
C3776 C3778 1.394 . S
C3776 H3792 0.931 . S
C3777 C3776 1.391 . S
C3777 C3781 1.376 . S
C3778 C3776 1.394 . S
C3778 C3779 1.369 . S
C3778 C3782 1.531 1_545 S
C3779 C3778 1.369 . S
C3779 C3780 1.410 . S
C3779 C3787 1.503 . S
C3780 C3779 1.410 . S
C3780 C3781 1.392 . S
C3780 C3783 1.511 . S
C3781 C3777 1.376 . S
C3781 C3780 1.392 . S
C3781 H3793 0.929 . S
C3782 C3778 1.531 1_565 S
C3782 H3794 0.960 . S
C3782 H3795 0.962 1_565 S
C3782 H3796 0.960 . S
C3783 C3780 1.511 . S
C3783 H3797 0.961 . S
C3783 H3798 0.961 . S
C3783 H3799 0.961 . S
C3784 C3785 1.370 . S
C3784 C3786 1.363 . S
C3784 H3800 0.931 . S
C3785 C3784 1.370 . S
C3785 C3789 1.408 . S
C3786 C3784 1.363 . S
C3786 C3787 1.370 . S
C3786 C3790 1.524 . S
C3787 C3779 1.503 . S
C3787 C3786 1.370 . S
C3787 C3788 1.403 . S
C3788 C3787 1.403 . S
C3788 C3789 1.404 . S
C3788 C3791 1.539 1_545 S
C3789 C3785 1.408 . S
C3789 C3788 1.404 . S
C3789 H3801 0.930 1_545 S
C3790 C3786 1.524 . S
C3790 H3802 0.956 . S
C3790 H3803 0.961 . S
C3790 H3804 0.961 . S
C3791 C3788 1.539 1_565 S
C3791 H3805 0.958 . S
C3791 H3806 0.961 . S
C3791 H3807 0.960 . S
H3792 C3776 0.931 . S
H3793 C3781 0.929 . S
H3794 C3782 0.960 . S
H3795 C3782 0.962 1_545 S
H3796 C3782 0.960 . S
H3797 C3783 0.961 . S
H3798 C3783 0.961 . S
H3799 C3783 0.961 . S
H3800 C3784 0.931 . S
H3801 C3789 0.930 1_565 S
H3802 C3790 0.956 . S
H3803 C3790 0.961 . S
H3804 C3790 0.961 . S
H3805 C3791 0.958 . S
H3806 C3791 0.961 . S
H3807 C3791 0.960 . S
C3808 C3809 1.391 . S
C3808 C3810 1.394 . S
C3808 H3824 0.931 . S
C3809 C3808 1.391 . S
C3809 C3813 1.376 . S
C3810 C3808 1.394 . S
C3810 C3811 1.369 . S
C3810 C3814 1.531 . S
C3811 C3810 1.369 . S
C3811 C3812 1.410 . S
C3811 C3819 1.503 . S
C3812 C3811 1.410 . S
C3812 C3813 1.392 . S
C3812 C3815 1.511 . S
C3813 C3809 1.376 . S
C3813 C3812 1.392 . S
C3813 H3825 0.929 . S
C3814 C3810 1.531 . S
C3814 H3826 0.960 . S
C3814 H3827 0.962 . S
C3814 H3828 0.960 . S
C3815 C3812 1.511 . S
C3815 H3829 0.961 . S
C3815 H3830 0.961 . S
C3815 H3831 0.961 . S
C3816 C3817 1.370 . S
C3816 C3818 1.363 . S
C3816 H3832 0.931 . S
C3817 C3816 1.370 . S
C3817 C3821 1.408 . S
C3818 C3816 1.363 . S
C3818 C3819 1.370 . S
C3818 C3822 1.524 . S
C3819 C3811 1.503 . S
C3819 C3818 1.370 . S
C3819 C3820 1.403 . S
C3820 C3819 1.403 . S
C3820 C3821 1.404 . S
C3820 C3823 1.539 . S
C3821 C3817 1.408 . S
C3821 C3820 1.404 . S
C3821 H3833 0.930 . S
C3822 C3818 1.524 . S
C3822 H3834 0.956 . S
C3822 H3835 0.961 . S
C3822 H3836 0.961 . S
C3823 C3820 1.539 . S
C3823 H3837 0.958 . S
C3823 H3838 0.961 . S
C3823 H3839 0.960 . S
H3824 C3808 0.931 . S
H3825 C3813 0.929 . S
H3826 C3814 0.960 . S
H3827 C3814 0.962 . S
H3828 C3814 0.960 . S
H3829 C3815 0.961 . S
H3830 C3815 0.961 . S
H3831 C3815 0.961 . S
H3832 C3816 0.931 . S
H3833 C3821 0.930 . S
H3834 C3822 0.956 . S
H3835 C3822 0.961 . S
H3836 C3822 0.961 . S
H3837 C3823 0.958 . S
H3838 C3823 0.961 . S
H3839 C3823 0.960 . S
C3840 C3841 1.391 . S
C3840 C3842 1.394 . S
C3840 H3856 0.931 . S
C3841 C3840 1.391 . S
C3841 C3845 1.376 . S
C3842 C3840 1.394 . S
C3842 C3843 1.369 . S
C3842 C3846 1.531 . S
C3843 C3842 1.369 . S
C3843 C3844 1.410 . S
C3843 C3851 1.503 . S
C3844 C3843 1.410 . S
C3844 C3845 1.392 . S
C3844 C3847 1.511 . S
C3845 C3841 1.376 . S
C3845 C3844 1.392 . S
C3845 H3857 0.929 . S
C3846 C3842 1.531 . S
C3846 H3858 0.960 . S
C3846 H3859 0.962 . S
C3846 H3860 0.952 1_545 S
C3847 C3844 1.511 . S
C3847 H3861 0.961 . S
C3847 H3862 0.961 . S
C3847 H3863 0.961 . S
C3848 C3849 1.370 . S
C3848 C3850 1.363 . S
C3848 H3864 0.931 . S
C3849 C3848 1.370 . S
C3849 C3853 1.408 . S
C3850 C3848 1.363 . S
C3850 C3851 1.370 . S
C3850 C3854 1.524 . S
C3851 C3843 1.503 . S
C3851 C3850 1.370 . S
C3851 C3852 1.403 . S
C3852 C3851 1.403 . S
C3852 C3853 1.404 . S
C3852 C3855 1.539 . S
C3853 C3849 1.408 . S
C3853 C3852 1.404 . S
C3853 H3865 0.930 . S
C3854 C3850 1.524 . S
C3854 H3866 0.956 . S
C3854 H3867 0.961 . S
C3854 H3868 0.961 . S
C3855 C3852 1.539 . S
C3855 H3869 0.958 1_545 S
C3855 H3870 0.961 . S
C3855 H3871 0.960 . S
H3856 C3840 0.931 . S
H3857 C3845 0.929 . S
H3858 C3846 0.960 . S
H3859 C3846 0.962 . S
H3860 C3846 0.952 1_565 S
H3861 C3847 0.961 . S
H3862 C3847 0.961 . S
H3863 C3847 0.961 . S
H3864 C3848 0.931 . S
H3865 C3853 0.930 . S
H3866 C3854 0.956 . S
H3867 C3854 0.961 . S
H3868 C3854 0.961 . S
H3869 C3855 0.958 1_565 S
H3870 C3855 0.961 . S
H3871 C3855 0.960 . S
C3872 C3873 1.391 . S
C3872 C3874 1.394 . S
C3872 H3888 0.931 . S
C3873 C3872 1.391 . S
C3873 C3877 1.376 . S
C3874 C3872 1.394 . S
C3874 C3875 1.369 . S
C3874 C3878 1.531 . S
C3875 C3874 1.369 . S
C3875 C3876 1.410 . S
C3875 C3883 1.503 . S
C3876 C3875 1.410 . S
C3876 C3877 1.392 . S
C3876 C3879 1.511 . S
C3877 C3873 1.376 . S
C3877 C3876 1.392 . S
C3877 H3889 0.929 . S
C3878 C3874 1.531 . S
C3878 H3890 0.960 . S
C3878 H3891 0.962 . S
C3878 H3892 0.960 . S
C3879 C3876 1.511 . S
C3879 H3893 0.961 . S
C3879 H3894 0.961 . S
C3879 H3895 0.961 . S
C3880 C3881 1.370 . S
C3880 C3882 1.363 . S
C3880 H3896 0.931 . S
C3881 C3880 1.370 . S
C3881 C3885 1.408 . S
C3882 C3880 1.363 . S
C3882 C3883 1.370 . S
C3882 C3886 1.524 . S
C3883 C3875 1.503 . S
C3883 C3882 1.370 . S
C3883 C3884 1.403 . S
C3884 C3883 1.403 . S
C3884 C3885 1.404 . S
C3884 C3887 1.539 . S
C3885 C3881 1.408 . S
C3885 C3884 1.404 . S
C3885 H3897 0.930 . S
C3886 C3882 1.524 . S
C3886 H3898 0.956 . S
C3886 H3899 0.961 . S
C3886 H3900 0.961 . S
C3887 C3884 1.539 . S
C3887 H3901 0.958 . S
C3887 H3902 0.961 . S
C3887 H3903 0.960 . S
H3888 C3872 0.931 . S
H3889 C3877 0.929 . S
H3890 C3878 0.960 . S
H3891 C3878 0.962 . S
H3892 C3878 0.960 . S
H3893 C3879 0.961 . S
H3894 C3879 0.961 . S
H3895 C3879 0.961 . S
H3896 C3880 0.931 . S
H3897 C3885 0.930 . S
H3898 C3886 0.956 . S
H3899 C3886 0.961 . S
H3900 C3886 0.961 . S
H3901 C3887 0.958 . S
H3902 C3887 0.961 . S
H3903 C3887 0.960 . S
C3904 C3905 1.391 . S
C3904 C3906 1.394 . S
C3904 H3920 0.931 . S
C3905 C3904 1.391 . S
C3905 C3909 1.376 . S
C3906 C3904 1.394 . S
C3906 C3907 1.369 . S
C3906 C3910 1.531 . S
C3907 C3906 1.369 . S
C3907 C3908 1.410 . S
C3907 C3915 1.503 . S
C3908 C3907 1.410 . S
C3908 C3909 1.392 . S
C3908 C3911 1.511 . S
C3909 C3905 1.376 . S
C3909 C3908 1.392 . S
C3909 H3921 0.929 . S
C3910 C3906 1.531 . S
C3910 H3922 0.960 . S
C3910 H3923 0.962 . S
C3910 H3924 0.960 1_545 S
C3911 C3908 1.511 . S
C3911 H3925 0.961 . S
C3911 H3926 0.961 . S
C3911 H3927 0.961 . S
C3912 C3913 1.370 . S
C3912 C3914 1.363 . S
C3912 H3928 0.931 . S
C3913 C3912 1.370 . S
C3913 C3917 1.408 . S
C3914 C3912 1.363 . S
C3914 C3915 1.370 . S
C3914 C3918 1.524 . S
C3915 C3907 1.503 . S
C3915 C3914 1.370 . S
C3915 C3916 1.403 . S
C3916 C3915 1.403 . S
C3916 C3917 1.404 . S
C3916 C3919 1.539 1_545 S
C3917 C3913 1.408 . S
C3917 C3916 1.404 . S
C3917 H3929 0.930 . S
C3918 C3914 1.524 . S
C3918 H3930 0.956 . S
C3918 H3931 0.961 . S
C3918 H3932 0.961 . S
C3919 C3916 1.539 1_565 S
C3919 H3933 0.958 . S
C3919 H3934 0.961 . S
C3919 H3935 0.960 . S
H3920 C3904 0.931 . S
H3921 C3909 0.929 . S
H3922 C3910 0.960 . S
H3923 C3910 0.962 . S
H3924 C3910 0.960 1_565 S
H3925 C3911 0.961 . S
H3926 C3911 0.961 . S
H3927 C3911 0.961 . S
H3928 C3912 0.931 . S
H3929 C3917 0.930 . S
H3930 C3918 0.956 . S
H3931 C3918 0.961 . S
H3932 C3918 0.961 . S
H3933 C3919 0.958 . S
H3934 C3919 0.961 . S
H3935 C3919 0.960 . S
C3936 C3937 1.391 . S
C3936 C3938 1.394 . S
C3936 H3952 0.931 . S
C3937 C3936 1.391 . S
C3937 C3941 1.376 . S
C3938 C3936 1.394 . S
C3938 C3939 1.369 . S
C3938 C3942 1.531 . S
C3939 C3938 1.369 . S
C3939 C3940 1.410 . S
C3939 C3947 1.503 . S
C3940 C3939 1.410 . S
C3940 C3941 1.392 . S
C3940 C3943 1.511 . S
C3941 C3937 1.376 . S
C3941 C3940 1.392 . S
C3941 H3953 0.929 . S
C3942 C3938 1.531 . S
C3942 H3954 0.960 . S
C3942 H3955 0.962 . S
C3942 H3956 0.960 . S
C3943 C3940 1.511 . S
C3943 H3957 0.961 . S
C3943 H3958 0.961 . S
C3943 H3959 0.961 . S
C3944 C3945 1.370 . S
C3944 C3946 1.363 . S
C3944 H3960 0.931 . S
C3945 C3944 1.370 . S
C3945 C3949 1.408 . S
C3946 C3944 1.363 . S
C3946 C3947 1.370 . S
C3946 C3950 1.524 . S
C3947 C3939 1.503 . S
C3947 C3946 1.370 . S
C3947 C3948 1.403 . S
C3948 C3947 1.403 . S
C3948 C3949 1.404 . S
C3948 C3951 1.539 . S
C3949 C3945 1.408 . S
C3949 C3948 1.404 . S
C3949 H3961 0.930 . S
C3950 C3946 1.524 . S
C3950 H3962 0.956 . S
C3950 H3963 0.961 . S
C3950 H3964 0.961 . S
C3951 C3948 1.539 . S
C3951 H3965 0.958 . S
C3951 H3966 0.961 . S
C3951 H3967 0.960 . S
H3952 C3936 0.931 . S
H3953 C3941 0.929 . S
H3954 C3942 0.960 . S
H3955 C3942 0.962 . S
H3956 C3942 0.960 . S
H3957 C3943 0.961 . S
H3958 C3943 0.961 . S
H3959 C3943 0.961 . S
H3960 C3944 0.931 . S
H3961 C3949 0.930 . S
H3962 C3950 0.956 . S
H3963 C3950 0.961 . S
H3964 C3950 0.961 . S
H3965 C3951 0.958 . S
H3966 C3951 0.961 . S
H3967 C3951 0.960 . S
C3968 C3969 1.391 . S
C3968 C3970 1.394 . S
C3968 H3984 0.931 . S
C3969 C3968 1.391 . S
C3969 C3973 1.376 . S
C3970 C3968 1.394 . S
C3970 C3971 1.369 . S
C3970 C3974 1.531 . S
C3971 C3970 1.369 . S
C3971 C3972 1.410 . S
C3971 C3979 1.503 . S
C3972 C3971 1.410 . S
C3972 C3973 1.392 . S
C3972 C3975 1.511 . S
C3973 C3969 1.376 . S
C3973 C3972 1.392 . S
C3973 H3985 0.929 . S
C3974 C3970 1.531 . S
C3974 H3986 0.958 . S
C3974 H3987 0.962 . S
C3974 H3988 0.960 1_545 S
C3975 C3972 1.511 . S
C3975 H3989 0.961 . S
C3975 H3990 0.961 . S
C3975 H3991 0.961 . S
C3976 C3977 1.370 . S
C3976 C3978 1.363 . S
C3976 H3992 0.931 . S
C3977 C3976 1.370 . S
C3977 C3981 1.408 . S
C3978 C3976 1.363 . S
C3978 C3979 1.370 . S
C3978 C3982 1.524 . S
C3979 C3971 1.503 . S
C3979 C3978 1.370 . S
C3979 C3980 1.403 . S
C3980 C3979 1.403 . S
C3980 C3981 1.404 . S
C3980 C3983 1.539 1_545 S
C3981 C3977 1.408 . S
C3981 C3980 1.404 . S
C3981 H3993 0.930 1_545 S
C3982 C3978 1.524 . S
C3982 H3994 0.956 . S
C3982 H3995 0.961 . S
C3982 H3996 0.961 . S
C3983 C3980 1.539 1_565 S
C3983 H3997 0.958 . S
C3983 H3998 0.961 . S
C3983 H3999 0.960 . S
H3984 C3968 0.931 . S
H3985 C3973 0.929 . S
H3986 C3974 0.958 . S
H3987 C3974 0.962 . S
H3988 C3974 0.960 1_565 S
H3989 C3975 0.961 . S
H3990 C3975 0.961 . S
H3991 C3975 0.961 . S
H3992 C3976 0.931 . S
H3993 C3981 0.930 1_565 S
H3994 C3982 0.956 . S
H3995 C3982 0.961 . S
H3996 C3982 0.961 . S
H3997 C3983 0.958 . S
H3998 C3983 0.961 . S
H3999 C3983 0.960 . S
C4000 C4001 1.391 . S
C4000 C4002 1.394 . S
C4000 H4016 0.931 . S
C4001 C4000 1.391 . S
C4001 C4005 1.376 . S
C4002 C4000 1.394 . S
C4002 C4003 1.369 . S
C4002 C4006 1.531 . S
C4003 C4002 1.369 . S
C4003 C4004 1.410 . S
C4003 C4011 1.503 . S
C4004 C4003 1.410 . S
C4004 C4005 1.392 . S
C4004 C4007 1.511 . S
C4005 C4001 1.376 . S
C4005 C4004 1.392 . S
C4005 H4017 0.929 . S
C4006 C4002 1.531 . S
C4006 H4018 0.960 . S
C4006 H4019 0.962 . S
C4006 H4020 0.960 . S
C4007 C4004 1.511 . S
C4007 H4021 0.961 . S
C4007 H4022 0.961 . S
C4007 H4023 0.961 . S
C4008 C4009 1.370 . S
C4008 C4010 1.363 . S
C4008 H4024 0.931 . S
C4009 C4008 1.370 . S
C4009 C4013 1.408 . S
C4010 C4008 1.363 . S
C4010 C4011 1.370 . S
C4010 C4014 1.524 . S
C4011 C4003 1.503 . S
C4011 C4010 1.370 . S
C4011 C4012 1.403 . S
C4012 C4011 1.403 . S
C4012 C4013 1.404 . S
C4012 C4015 1.539 . S
C4013 C4009 1.408 . S
C4013 C4012 1.404 . S
C4013 H4025 0.930 . S
C4014 C4010 1.524 . S
C4014 H4026 0.956 . S
C4014 H4027 0.961 . S
C4014 H4028 0.961 . S
C4015 C4012 1.539 . S
C4015 H4029 0.958 . S
C4015 H4030 0.961 . S
C4015 H4031 0.960 . S
H4016 C4000 0.931 . S
H4017 C4005 0.929 . S
H4018 C4006 0.960 . S
H4019 C4006 0.962 . S
H4020 C4006 0.960 . S
H4021 C4007 0.961 . S
H4022 C4007 0.961 . S
H4023 C4007 0.961 . S
H4024 C4008 0.931 . S
H4025 C4013 0.930 . S
H4026 C4014 0.956 . S
H4027 C4014 0.961 . S
H4028 C4014 0.961 . S
H4029 C4015 0.958 . S
H4030 C4015 0.961 . S
H4031 C4015 0.960 . S
C4032 C4033 1.391 . S
C4032 C4034 1.394 . S
C4032 H4048 0.931 . S
C4033 C4032 1.391 . S
C4033 C4037 1.376 . S
C4034 C4032 1.394 . S
C4034 C4035 1.369 . S
C4034 C4038 1.531 1_554 S
C4035 C4034 1.369 . S
C4035 C4036 1.410 . S
C4035 C4043 1.503 . S
C4036 C4035 1.410 . S
C4036 C4037 1.392 . S
C4036 C4039 1.511 . S
C4037 C4033 1.376 . S
C4037 C4036 1.392 . S
C4037 H4049 0.929 . S
C4038 C4034 1.531 1_556 S
C4038 H4050 0.960 . S
C4038 H4051 0.962 . S
C4038 H4052 0.960 . S
C4039 C4036 1.511 . S
C4039 H4053 0.961 . S
C4039 H4054 0.961 . S
C4039 H4055 0.961 . S
C4040 C4041 1.376 . S
C4040 C4042 1.363 . S
C4040 H4056 0.918 1_554 S
C4041 C4040 1.376 . S
C4041 C4045 1.413 . S
C4042 C4040 1.363 . S
C4042 C4043 1.370 . S
C4042 C4046 1.524 . S
C4043 C4035 1.503 . S
C4043 C4042 1.370 . S
C4043 C4044 1.403 . S
C4044 C4043 1.403 . S
C4044 C4045 1.404 . S
C4044 C4047 1.539 . S
C4045 C4041 1.413 . S
C4045 C4044 1.404 . S
C4045 H4057 0.930 . S
C4046 C4042 1.524 . S
C4046 H4058 0.956 . S
C4046 H4059 0.961 . S
C4046 H4060 0.961 . S
C4047 C4044 1.539 . S
C4047 H4061 0.958 . S
C4047 H4062 0.961 . S
C4047 H4063 0.960 . S
H4048 C4032 0.931 . S
H4049 C4037 0.929 . S
H4050 C4038 0.960 . S
H4051 C4038 0.962 . S
H4052 C4038 0.960 . S
H4053 C4039 0.961 . S
H4054 C4039 0.961 . S
H4055 C4039 0.961 . S
H4056 C4040 0.918 1_556 S
H4057 C4045 0.930 . S
H4058 C4046 0.956 . S
H4059 C4046 0.961 . S
H4060 C4046 0.961 . S
H4061 C4047 0.958 . S
H4062 C4047 0.961 . S
H4063 C4047 0.960 . S
C4064 C4065 1.391 . S
C4064 C4066 1.394 . S
C4064 H4080 0.931 . S
C4065 C4064 1.391 . S
C4065 C4069 1.376 . S
C4066 C4064 1.394 . S
C4066 C4067 1.369 . S
C4066 C4070 1.531 . S
C4067 C4066 1.369 . S
C4067 C4068 1.410 . S
C4067 C4075 1.503 . S
C4068 C4067 1.410 . S
C4068 C4069 1.392 . S
C4068 C4071 1.511 . S
C4069 C4065 1.376 . S
C4069 C4068 1.392 . S
C4069 H4081 0.929 . S
C4070 C4066 1.531 . S
C4070 H4082 0.960 . S
C4070 H4083 0.962 . S
C4070 H4084 0.960 . S
C4071 C4068 1.511 . S
C4071 H4085 0.961 . S
C4071 H4086 0.961 . S
C4071 H4087 0.961 1_554 S
C4072 C4073 1.370 . S
C4072 C4074 1.363 . S
C4072 H4088 0.931 . S
C4073 C4072 1.370 . S
C4073 C4077 1.408 . S
C4074 C4072 1.363 . S
C4074 C4075 1.370 . S
C4074 C4078 1.524 . S
C4075 C4067 1.503 . S
C4075 C4074 1.370 . S
C4075 C4076 1.403 . S
C4076 C4075 1.403 . S
C4076 C4077 1.404 . S
C4076 C4079 1.539 1_554 S
C4077 C4073 1.408 . S
C4077 C4076 1.404 . S
C4077 H4089 0.930 1_554 S
C4078 C4074 1.524 . S
C4078 H4090 0.956 . S
C4078 H4091 0.961 . S
C4078 H4092 0.961 . S
C4079 C4076 1.539 1_556 S
C4079 H4093 0.958 . S
C4079 H4094 0.961 . S
C4079 H4095 0.960 . S
H4080 C4064 0.931 . S
H4081 C4069 0.929 . S
H4082 C4070 0.960 . S
H4083 C4070 0.962 . S
H4084 C4070 0.960 . S
H4085 C4071 0.961 . S
H4086 C4071 0.961 . S
H4087 C4071 0.961 1_556 S
H4088 C4072 0.931 . S
H4089 C4077 0.930 1_556 S
H4090 C4078 0.956 . S
H4091 C4078 0.961 . S
H4092 C4078 0.961 . S
H4093 C4079 0.958 . S
H4094 C4079 0.961 . S
H4095 C4079 0.960 . S
C4096 C4097 1.391 . S
C4096 C4098 1.394 . S
C4096 H4112 0.931 . S
C4097 C4096 1.391 . S
C4097 C4101 1.376 . S
C4098 C4096 1.394 . S
C4098 C4099 1.369 . S
C4098 C4102 1.531 . S
C4099 C4098 1.369 . S
C4099 C4100 1.410 . S
C4099 C4107 1.503 . S
C4100 C4099 1.410 . S
C4100 C4101 1.392 . S
C4100 C4103 1.511 . S
C4101 C4097 1.376 . S
C4101 C4100 1.392 . S
C4101 H4113 0.929 . S
C4102 C4098 1.531 . S
C4102 H4114 0.960 . S
C4102 H4115 0.962 . S
C4102 H4116 0.960 . S
C4103 C4100 1.511 . S
C4103 H4117 0.961 . S
C4103 H4118 0.961 . S
C4103 H4119 0.961 . S
C4104 C4105 1.370 . S
C4104 C4106 1.363 . S
C4104 H4120 0.931 . S
C4105 C4104 1.370 . S
C4105 C4109 1.408 . S
C4106 C4104 1.363 . S
C4106 C4107 1.370 . S
C4106 C4110 1.524 . S
C4107 C4099 1.503 . S
C4107 C4106 1.370 . S
C4107 C4108 1.403 . S
C4108 C4107 1.403 . S
C4108 C4109 1.404 . S
C4108 C4111 1.539 . S
C4109 C4105 1.408 . S
C4109 C4108 1.404 . S
C4109 H4121 0.930 . S
C4110 C4106 1.524 . S
C4110 H4122 0.956 . S
C4110 H4123 0.961 . S
C4110 H4124 0.961 . S
C4111 C4108 1.539 . S
C4111 H4125 0.958 . S
C4111 H4126 0.961 . S
C4111 H4127 0.960 . S
H4112 C4096 0.931 . S
H4113 C4101 0.929 . S
H4114 C4102 0.960 . S
H4115 C4102 0.962 . S
H4116 C4102 0.960 . S
H4117 C4103 0.961 . S
H4118 C4103 0.961 . S
H4119 C4103 0.961 . S
H4120 C4104 0.931 . S
H4121 C4109 0.930 . S
H4122 C4110 0.956 . S
H4123 C4110 0.961 . S
H4124 C4110 0.961 . S
H4125 C4111 0.958 . S
H4126 C4111 0.961 . S
H4127 C4111 0.960 . S
C4128 C4129 1.391 . S
C4128 C4130 1.394 . S
C4128 H4144 0.931 . S
C4129 C4128 1.391 . S
C4129 C4133 1.376 . S
C4130 C4128 1.394 . S
C4130 C4131 1.369 . S
C4130 C4134 1.531 . S
C4131 C4130 1.369 . S
C4131 C4132 1.410 . S
C4131 C4139 1.503 . S
C4132 C4131 1.410 . S
C4132 C4133 1.392 . S
C4132 C4135 1.511 . S
C4133 C4129 1.376 . S
C4133 C4132 1.392 . S
C4133 H4145 0.929 . S
C4134 C4130 1.531 . S
C4134 H4146 0.960 . S
C4134 H4147 0.962 . S
C4134 H4148 0.960 . S
C4135 C4132 1.511 . S
C4135 H4149 0.961 . S
C4135 H4150 0.961 . S
C4135 H4151 0.961 . S
C4136 C4137 1.370 . S
C4136 C4138 1.363 . S
C4136 H4152 0.931 . S
C4137 C4136 1.370 . S
C4137 C4141 1.408 . S
C4138 C4136 1.363 . S
C4138 C4139 1.370 . S
C4138 C4142 1.524 . S
C4139 C4131 1.503 . S
C4139 C4138 1.370 . S
C4139 C4140 1.403 . S
C4140 C4139 1.403 . S
C4140 C4141 1.404 . S
C4140 C4143 1.539 . S
C4141 C4137 1.408 . S
C4141 C4140 1.404 . S
C4141 H4153 0.930 . S
C4142 C4138 1.524 . S
C4142 H4154 0.956 . S
C4142 H4155 0.961 . S
C4142 H4156 0.961 . S
C4143 C4140 1.539 . S
C4143 H4157 0.958 . S
C4143 H4158 0.961 . S
C4143 H4159 0.960 . S
H4144 C4128 0.931 . S
H4145 C4133 0.929 . S
H4146 C4134 0.960 . S
H4147 C4134 0.962 . S
H4148 C4134 0.960 . S
H4149 C4135 0.961 . S
H4150 C4135 0.961 . S
H4151 C4135 0.961 . S
H4152 C4136 0.931 . S
H4153 C4141 0.930 . S
H4154 C4142 0.956 . S
H4155 C4142 0.961 . S
H4156 C4142 0.961 . S
H4157 C4143 0.958 . S
H4158 C4143 0.961 . S
H4159 C4143 0.960 . S
C4160 C4161 1.391 . S
C4160 C4162 1.394 . S
C4160 H4176 0.931 . S
C4161 C4160 1.391 . S
C4161 C4165 1.376 . S
C4162 C4160 1.394 . S
C4162 C4163 1.369 . S
C4162 C4166 1.531 . S
C4163 C4162 1.369 . S
C4163 C4164 1.410 . S
C4163 C4171 1.503 . S
C4164 C4163 1.410 . S
C4164 C4165 1.392 . S
C4164 C4167 1.511 . S
C4165 C4161 1.376 . S
C4165 C4164 1.392 . S
C4165 H4177 0.929 . S
C4166 C4162 1.531 . S
C4166 H4178 0.960 . S
C4166 H4179 0.962 . S
C4166 H4180 0.960 . S
C4167 C4164 1.511 . S
C4167 H4181 0.961 . S
C4167 H4182 0.961 . S
C4167 H4183 0.961 . S
C4168 C4169 1.370 . S
C4168 C4170 1.363 . S
C4168 H4184 0.931 . S
C4169 C4168 1.370 . S
C4169 C4173 1.408 . S
C4170 C4168 1.363 . S
C4170 C4171 1.370 . S
C4170 C4174 1.524 . S
C4171 C4163 1.503 . S
C4171 C4170 1.370 . S
C4171 C4172 1.403 . S
C4172 C4171 1.403 . S
C4172 C4173 1.404 . S
C4172 C4175 1.539 . S
C4173 C4169 1.408 . S
C4173 C4172 1.404 . S
C4173 H4185 0.930 . S
C4174 C4170 1.524 . S
C4174 H4186 0.956 . S
C4174 H4187 0.961 . S
C4174 H4188 0.961 . S
C4175 C4172 1.539 . S
C4175 H4189 0.958 . S
C4175 H4190 0.961 . S
C4175 H4191 0.960 . S
H4176 C4160 0.931 . S
H4177 C4165 0.929 . S
H4178 C4166 0.960 . S
H4179 C4166 0.962 . S
H4180 C4166 0.960 . S
H4181 C4167 0.961 . S
H4182 C4167 0.961 . S
H4183 C4167 0.961 . S
H4184 C4168 0.931 . S
H4185 C4173 0.930 . S
H4186 C4174 0.956 . S
H4187 C4174 0.961 . S
H4188 C4174 0.961 . S
H4189 C4175 0.958 . S
H4190 C4175 0.961 . S
H4191 C4175 0.960 . S
C4192 C4193 1.391 . S
C4192 C4194 1.394 . S
C4192 H4208 0.931 . S
C4193 C4192 1.391 . S
C4193 C4197 1.376 . S
C4194 C4192 1.394 . S
C4194 C4195 1.369 . S
C4194 C4198 1.531 . S
C4195 C4194 1.369 . S
C4195 C4196 1.410 . S
C4195 C4203 1.503 . S
C4196 C4195 1.410 . S
C4196 C4197 1.392 . S
C4196 C4199 1.511 . S
C4197 C4193 1.376 . S
C4197 C4196 1.392 . S
C4197 H4209 0.929 . S
C4198 C4194 1.531 . S
C4198 H4210 0.960 . S
C4198 H4211 0.962 . S
C4198 H4212 0.960 . S
C4199 C4196 1.511 . S
C4199 H4213 0.961 . S
C4199 H4214 0.961 . S
C4199 H4215 0.961 . S
C4200 C4201 1.370 . S
C4200 C4202 1.363 . S
C4200 H4216 0.931 . S
C4201 C4200 1.370 . S
C4201 C4205 1.408 . S
C4202 C4200 1.363 . S
C4202 C4203 1.370 . S
C4202 C4206 1.524 . S
C4203 C4195 1.503 . S
C4203 C4202 1.370 . S
C4203 C4204 1.403 . S
C4204 C4203 1.403 . S
C4204 C4205 1.404 . S
C4204 C4207 1.539 . S
C4205 C4201 1.408 . S
C4205 C4204 1.404 . S
C4205 H4217 0.930 . S
C4206 C4202 1.524 . S
C4206 H4218 0.956 . S
C4206 H4219 0.961 . S
C4206 H4220 0.961 . S
C4207 C4204 1.539 . S
C4207 H4221 0.958 . S
C4207 H4222 0.961 . S
C4207 H4223 0.960 . S
H4208 C4192 0.931 . S
H4209 C4197 0.929 . S
H4210 C4198 0.960 . S
H4211 C4198 0.962 . S
H4212 C4198 0.960 . S
H4213 C4199 0.961 . S
H4214 C4199 0.961 . S
H4215 C4199 0.961 . S
H4216 C4200 0.931 . S
H4217 C4205 0.930 . S
H4218 C4206 0.956 . S
H4219 C4206 0.961 . S
H4220 C4206 0.961 . S
H4221 C4207 0.958 . S
H4222 C4207 0.961 . S
H4223 C4207 0.960 . S
C4224 C4225 1.391 . S
C4224 C4226 1.394 . S
C4224 H4240 0.931 . S
C4225 C4224 1.391 . S
C4225 C4229 1.376 . S
C4226 C4224 1.394 . S
C4226 C4227 1.369 . S
C4226 C4230 1.531 . S
C4227 C4226 1.369 . S
C4227 C4228 1.410 . S
C4227 C4235 1.503 . S
C4228 C4227 1.410 . S
C4228 C4229 1.392 . S
C4228 C4231 1.511 . S
C4229 C4225 1.376 . S
C4229 C4228 1.392 . S
C4229 H4241 0.929 . S
C4230 C4226 1.531 . S
C4230 H4242 0.960 . S
C4230 H4243 0.962 . S
C4230 H4244 0.960 . S
C4231 C4228 1.511 . S
C4231 H4245 0.961 . S
C4231 H4246 0.961 . S
C4231 H4247 0.961 . S
C4232 C4233 1.370 . S
C4232 C4234 1.363 . S
C4232 H4248 0.931 . S
C4233 C4232 1.370 . S
C4233 C4237 1.408 . S
C4234 C4232 1.363 . S
C4234 C4235 1.370 . S
C4234 C4238 1.524 . S
C4235 C4227 1.503 . S
C4235 C4234 1.370 . S
C4235 C4236 1.403 . S
C4236 C4235 1.403 . S
C4236 C4237 1.404 . S
C4236 C4239 1.539 . S
C4237 C4233 1.408 . S
C4237 C4236 1.404 . S
C4237 H4249 0.930 . S
C4238 C4234 1.524 . S
C4238 H4250 0.956 . S
C4238 H4251 0.961 . S
C4238 H4252 0.961 . S
C4239 C4236 1.539 . S
C4239 H4253 0.958 . S
C4239 H4254 0.961 . S
C4239 H4255 0.960 . S
H4240 C4224 0.931 . S
H4241 C4229 0.929 . S
H4242 C4230 0.960 . S
H4243 C4230 0.962 . S
H4244 C4230 0.960 . S
H4245 C4231 0.961 . S
H4246 C4231 0.961 . S
H4247 C4231 0.961 . S
H4248 C4232 0.931 . S
H4249 C4237 0.930 . S
H4250 C4238 0.956 . S
H4251 C4238 0.961 . S
H4252 C4238 0.961 . S
H4253 C4239 0.958 . S
H4254 C4239 0.961 . S
H4255 C4239 0.960 . S
C4256 C4257 1.391 . S
C4256 C4258 1.394 . S
C4256 H4272 0.931 . S
C4257 C4256 1.391 . S
C4257 C4261 1.376 . S
C4258 C4256 1.394 . S
C4258 C4259 1.369 . S
C4258 C4262 1.531 . S
C4259 C4258 1.369 . S
C4259 C4260 1.410 . S
C4259 C4267 1.503 . S
C4260 C4259 1.410 . S
C4260 C4261 1.392 . S
C4260 C4263 1.511 . S
C4261 C4257 1.376 . S
C4261 C4260 1.392 . S
C4261 H4273 0.929 . S
C4262 C4258 1.531 . S
C4262 H4274 0.960 . S
C4262 H4275 0.962 . S
C4262 H4276 0.960 . S
C4263 C4260 1.511 . S
C4263 H4277 0.961 . S
C4263 H4278 0.961 . S
C4263 H4279 0.961 . S
C4264 C4265 1.370 . S
C4264 C4266 1.363 . S
C4264 H4280 0.931 . S
C4265 C4264 1.370 . S
C4265 C4269 1.408 . S
C4266 C4264 1.363 . S
C4266 C4267 1.370 . S
C4266 C4270 1.524 . S
C4267 C4259 1.503 . S
C4267 C4266 1.370 . S
C4267 C4268 1.403 . S
C4268 C4267 1.403 . S
C4268 C4269 1.404 . S
C4268 C4271 1.539 . S
C4269 C4265 1.408 . S
C4269 C4268 1.404 . S
C4269 H4281 0.930 . S
C4270 C4266 1.524 . S
C4270 H4282 0.956 . S
C4270 H4283 0.961 . S
C4270 H4284 0.961 . S
C4271 C4268 1.539 . S
C4271 H4285 0.958 . S
C4271 H4286 0.961 . S
C4271 H4287 0.960 . S
H4272 C4256 0.931 . S
H4273 C4261 0.929 . S
H4274 C4262 0.960 . S
H4275 C4262 0.962 . S
H4276 C4262 0.960 . S
H4277 C4263 0.961 . S
H4278 C4263 0.961 . S
H4279 C4263 0.961 . S
H4280 C4264 0.931 . S
H4281 C4269 0.930 . S
H4282 C4270 0.956 . S
H4283 C4270 0.961 . S
H4284 C4270 0.961 . S
H4285 C4271 0.958 . S
H4286 C4271 0.961 . S
H4287 C4271 0.960 . S
C4288 C4289 1.391 . S
C4288 C4290 1.394 . S
C4288 H4304 0.931 . S
C4289 C4288 1.391 . S
C4289 C4293 1.376 . S
C4290 C4288 1.394 . S
C4290 C4291 1.369 . S
C4290 C4294 1.531 . S
C4291 C4290 1.369 . S
C4291 C4292 1.410 . S
C4291 C4299 1.503 . S
C4292 C4291 1.410 . S
C4292 C4293 1.392 . S
C4292 C4295 1.511 . S
C4293 C4289 1.376 . S
C4293 C4292 1.392 . S
C4293 H4305 0.929 . S
C4294 C4290 1.531 . S
C4294 H4306 0.960 . S
C4294 H4307 0.962 . S
C4294 H4308 0.960 . S
C4295 C4292 1.511 . S
C4295 H4309 0.961 . S
C4295 H4310 0.961 . S
C4295 H4311 0.961 . S
C4296 C4297 1.370 . S
C4296 C4298 1.363 . S
C4296 H4312 0.931 . S
C4297 C4296 1.370 . S
C4297 C4301 1.408 . S
C4298 C4296 1.363 . S
C4298 C4299 1.370 . S
C4298 C4302 1.524 . S
C4299 C4291 1.503 . S
C4299 C4298 1.370 . S
C4299 C4300 1.403 . S
C4300 C4299 1.403 . S
C4300 C4301 1.404 . S
C4300 C4303 1.539 . S
C4301 C4297 1.408 . S
C4301 C4300 1.404 . S
C4301 H4313 0.930 . S
C4302 C4298 1.524 . S
C4302 H4314 0.956 . S
C4302 H4315 0.961 . S
C4302 H4316 0.961 . S
C4303 C4300 1.539 . S
C4303 H4317 0.958 . S
C4303 H4318 0.961 . S
C4303 H4319 0.960 . S
H4304 C4288 0.931 . S
H4305 C4293 0.929 . S
H4306 C4294 0.960 . S
H4307 C4294 0.962 . S
H4308 C4294 0.960 . S
H4309 C4295 0.961 . S
H4310 C4295 0.961 . S
H4311 C4295 0.961 . S
H4312 C4296 0.931 . S
H4313 C4301 0.930 . S
H4314 C4302 0.956 . S
H4315 C4302 0.961 . S
H4316 C4302 0.961 . S
H4317 C4303 0.958 . S
H4318 C4303 0.961 . S
H4319 C4303 0.960 . S
C4320 C4321 1.391 . S
C4320 C4322 1.394 . S
C4320 H4336 0.931 . S
C4321 C4320 1.391 . S
C4321 C4325 1.376 . S
C4322 C4320 1.394 . S
C4322 C4323 1.369 . S
C4322 C4326 1.531 . S
C4323 C4322 1.369 . S
C4323 C4324 1.410 . S
C4323 C4331 1.503 . S
C4324 C4323 1.410 . S
C4324 C4325 1.392 . S
C4324 C4327 1.511 . S
C4325 C4321 1.376 . S
C4325 C4324 1.392 . S
C4325 H4337 0.929 . S
C4326 C4322 1.531 . S
C4326 H4338 0.960 . S
C4326 H4339 0.962 . S
C4326 H4340 0.960 . S
C4327 C4324 1.511 . S
C4327 H4341 0.961 . S
C4327 H4342 0.961 . S
C4327 H4343 0.961 . S
C4328 C4329 1.370 . S
C4328 C4330 1.363 . S
C4328 H4344 0.931 . S
C4329 C4328 1.370 . S
C4329 C4333 1.408 . S
C4330 C4328 1.363 . S
C4330 C4331 1.370 . S
C4330 C4334 1.524 . S
C4331 C4323 1.503 . S
C4331 C4330 1.370 . S
C4331 C4332 1.403 . S
C4332 C4331 1.403 . S
C4332 C4333 1.404 . S
C4332 C4335 1.539 . S
C4333 C4329 1.408 . S
C4333 C4332 1.404 . S
C4333 H4345 0.930 . S
C4334 C4330 1.524 . S
C4334 H4346 0.956 . S
C4334 H4347 0.961 . S
C4334 H4348 0.961 . S
C4335 C4332 1.539 . S
C4335 H4349 0.958 . S
C4335 H4350 0.961 . S
C4335 H4351 0.960 . S
H4336 C4320 0.931 . S
H4337 C4325 0.929 . S
H4338 C4326 0.960 . S
H4339 C4326 0.962 . S
H4340 C4326 0.960 . S
H4341 C4327 0.961 . S
H4342 C4327 0.961 . S
H4343 C4327 0.961 . S
H4344 C4328 0.931 . S
H4345 C4333 0.930 . S
H4346 C4334 0.956 . S
H4347 C4334 0.961 . S
H4348 C4334 0.961 . S
H4349 C4335 0.958 . S
H4350 C4335 0.961 . S
H4351 C4335 0.960 . S
C4352 C4353 1.391 . S
C4352 C4354 1.394 1_556 S
C4352 H4368 0.931 1_456 S
C4353 C4352 1.391 . S
C4353 C4357 1.376 . S
C4354 C4352 1.394 1_554 S
C4354 C4355 1.371 . S
C4354 C4358 1.531 1_455 S
C4355 C4354 1.371 . S
C4355 C4356 1.407 1_554 S
C4355 C4363 1.504 . S
C4356 C4355 1.407 1_556 S
C4356 C4357 1.392 . S
C4356 C4359 1.511 . S
C4357 C4353 1.376 . S
C4357 C4356 1.392 . S
C4357 H4369 0.929 . S
C4358 C4354 1.531 1_655 S
C4358 H4370 0.951 1_655 S
C4358 H4371 0.962 . S
C4358 H4372 0.960 . S
C4359 C4356 1.511 . S
C4359 H4373 0.961 . S
C4359 H4374 0.961 . S
C4359 H4375 0.961 . S
C4360 C4361 1.370 1_556 S
C4360 C4362 1.363 . S
C4360 H4376 0.931 . S
C4361 C4360 1.370 1_554 S
C4361 C4365 1.408 . S
C4362 C4360 1.363 . S
C4362 C4363 1.370 1_556 S
C4362 C4366 1.524 . S
C4363 C4355 1.504 . S
C4363 C4362 1.370 1_554 S
C4363 C4364 1.403 . S
C4364 C4363 1.403 . S
C4364 C4365 1.404 . S
C4364 C4367 1.539 . S
C4365 C4361 1.408 . S
C4365 C4364 1.404 . S
C4365 H4377 0.930 . S
C4366 C4362 1.524 . S
C4366 H4378 0.956 1_455 S
C4366 H4379 0.961 . S
C4366 H4380 0.967 . S
C4367 C4364 1.539 . S
C4367 H4381 0.958 . S
C4367 H4382 0.961 . S
C4367 H4383 0.960 . S
H4368 C4352 0.931 1_654 S
H4369 C4357 0.929 . S
H4370 C4358 0.951 1_455 S
H4371 C4358 0.962 . S
H4372 C4358 0.960 . S
H4373 C4359 0.961 . S
H4374 C4359 0.961 . S
H4375 C4359 0.961 . S
H4376 C4360 0.931 . S
H4377 C4365 0.930 . S
H4378 C4366 0.956 1_655 S
H4379 C4366 0.961 . S
H4380 C4366 0.967 . S
H4381 C4367 0.958 . S
H4382 C4367 0.961 . S
H4383 C4367 0.960 . S
C4384 C4385 1.391 . S
C4384 C4386 1.394 . S
C4384 H4400 0.931 . S
C4385 C4384 1.391 . S
C4385 C4389 1.376 . S
C4386 C4384 1.394 . S
C4386 C4387 1.369 . S
C4386 C4390 1.531 . S
C4387 C4386 1.369 . S
C4387 C4388 1.410 . S
C4387 C4395 1.503 . S
C4388 C4387 1.410 . S
C4388 C4389 1.392 . S
C4388 C4391 1.511 . S
C4389 C4385 1.376 . S
C4389 C4388 1.392 . S
C4389 H4401 0.929 . S
C4390 C4386 1.531 . S
C4390 H4402 0.960 . S
C4390 H4403 0.962 . S
C4390 H4404 0.960 . S
C4391 C4388 1.511 . S
C4391 H4405 0.961 . S
C4391 H4406 0.961 . S
C4391 H4407 0.961 . S
C4392 C4393 1.370 . S
C4392 C4394 1.363 . S
C4392 H4408 0.931 . S
C4393 C4392 1.370 . S
C4393 C4397 1.408 . S
C4394 C4392 1.363 . S
C4394 C4395 1.370 . S
C4394 C4398 1.524 . S
C4395 C4387 1.503 . S
C4395 C4394 1.370 . S
C4395 C4396 1.403 . S
C4396 C4395 1.403 . S
C4396 C4397 1.404 . S
C4396 C4399 1.539 . S
C4397 C4393 1.408 . S
C4397 C4396 1.404 . S
C4397 H4409 0.930 . S
C4398 C4394 1.524 . S
C4398 H4410 0.956 . S
C4398 H4411 0.961 . S
C4398 H4412 0.961 . S
C4399 C4396 1.539 . S
C4399 H4413 0.958 . S
C4399 H4414 0.961 . S
C4399 H4415 0.960 . S
H4400 C4384 0.931 . S
H4401 C4389 0.929 . S
H4402 C4390 0.960 . S
H4403 C4390 0.962 . S
H4404 C4390 0.960 . S
H4405 C4391 0.961 . S
H4406 C4391 0.961 . S
H4407 C4391 0.961 . S
H4408 C4392 0.931 . S
H4409 C4397 0.930 . S
H4410 C4398 0.956 . S
H4411 C4398 0.961 . S
H4412 C4398 0.961 . S
H4413 C4399 0.958 . S
H4414 C4399 0.961 . S
H4415 C4399 0.960 . S
C4416 C4417 1.391 . S
C4416 C4418 1.394 . S
C4416 H4432 0.931 . S
C4417 C4416 1.391 . S
C4417 C4421 1.376 . S
C4418 C4416 1.394 . S
C4418 C4419 1.369 . S
C4418 C4422 1.531 . S
C4419 C4418 1.369 . S
C4419 C4420 1.410 . S
C4419 C4427 1.503 . S
C4420 C4419 1.410 . S
C4420 C4421 1.392 . S
C4420 C4423 1.511 . S
C4421 C4417 1.376 . S
C4421 C4420 1.392 . S
C4421 H4433 0.929 . S
C4422 C4418 1.531 . S
C4422 H4434 0.960 . S
C4422 H4435 0.962 . S
C4422 H4436 0.960 . S
C4423 C4420 1.511 . S
C4423 H4437 0.961 . S
C4423 H4438 0.961 . S
C4423 H4439 0.961 . S
C4424 C4425 1.370 . S
C4424 C4426 1.363 . S
C4424 H4440 0.931 . S
C4425 C4424 1.370 . S
C4425 C4429 1.408 . S
C4426 C4424 1.363 . S
C4426 C4427 1.370 . S
C4426 C4430 1.524 . S
C4427 C4419 1.503 . S
C4427 C4426 1.370 . S
C4427 C4428 1.403 . S
C4428 C4427 1.403 . S
C4428 C4429 1.404 . S
C4428 C4431 1.539 . S
C4429 C4425 1.408 . S
C4429 C4428 1.404 . S
C4429 H4441 0.930 . S
C4430 C4426 1.524 . S
C4430 H4442 0.956 . S
C4430 H4443 0.961 . S
C4430 H4444 0.961 . S
C4431 C4428 1.539 . S
C4431 H4445 0.958 . S
C4431 H4446 0.961 . S
C4431 H4447 0.960 . S
H4432 C4416 0.931 . S
H4433 C4421 0.929 . S
H4434 C4422 0.960 . S
H4435 C4422 0.962 . S
H4436 C4422 0.960 . S
H4437 C4423 0.961 . S
H4438 C4423 0.961 . S
H4439 C4423 0.961 . S
H4440 C4424 0.931 . S
H4441 C4429 0.930 . S
H4442 C4430 0.956 . S
H4443 C4430 0.961 . S
H4444 C4430 0.961 . S
H4445 C4431 0.958 . S
H4446 C4431 0.961 . S
H4447 C4431 0.960 . S
C4448 C4449 1.391 . S
C4448 C4450 1.394 . S
C4448 H4464 0.931 . S
C4449 C4448 1.391 . S
C4449 C4453 1.376 . S
C4450 C4448 1.394 . S
C4450 C4451 1.369 . S
C4450 C4454 1.531 . S
C4451 C4450 1.369 . S
C4451 C4452 1.410 . S
C4451 C4459 1.503 . S
C4452 C4451 1.410 . S
C4452 C4453 1.392 . S
C4452 C4455 1.511 . S
C4453 C4449 1.376 . S
C4453 C4452 1.392 . S
C4453 H4465 0.929 . S
C4454 C4450 1.531 . S
C4454 H4466 0.960 . S
C4454 H4467 0.962 . S
C4454 H4468 0.960 . S
C4455 C4452 1.511 . S
C4455 H4469 0.961 . S
C4455 H4470 0.961 . S
C4455 H4471 0.961 . S
C4456 C4457 1.370 . S
C4456 C4458 1.363 . S
C4456 H4472 0.931 . S
C4457 C4456 1.370 . S
C4457 C4461 1.408 . S
C4458 C4456 1.363 . S
C4458 C4459 1.370 . S
C4458 C4462 1.524 . S
C4459 C4451 1.503 . S
C4459 C4458 1.370 . S
C4459 C4460 1.403 . S
C4460 C4459 1.403 . S
C4460 C4461 1.404 . S
C4460 C4463 1.539 . S
C4461 C4457 1.408 . S
C4461 C4460 1.404 . S
C4461 H4473 0.930 . S
C4462 C4458 1.524 . S
C4462 H4474 0.956 . S
C4462 H4475 0.961 . S
C4462 H4476 0.961 . S
C4463 C4460 1.539 . S
C4463 H4477 0.958 . S
C4463 H4478 0.961 . S
C4463 H4479 0.960 . S
H4464 C4448 0.931 . S
H4465 C4453 0.929 . S
H4466 C4454 0.960 . S
H4467 C4454 0.962 . S
H4468 C4454 0.960 . S
H4469 C4455 0.961 . S
H4470 C4455 0.961 . S
H4471 C4455 0.961 . S
H4472 C4456 0.931 . S
H4473 C4461 0.930 . S
H4474 C4462 0.956 . S
H4475 C4462 0.961 . S
H4476 C4462 0.961 . S
H4477 C4463 0.958 . S
H4478 C4463 0.961 . S
H4479 C4463 0.960 . S
C4480 C4481 1.391 . S
C4480 C4482 1.394 . S
C4480 H4496 0.931 . S
C4481 C4480 1.391 . S
C4481 C4485 1.376 . S
C4482 C4480 1.394 . S
C4482 C4483 1.369 . S
C4482 C4486 1.531 . S
C4483 C4482 1.369 . S
C4483 C4484 1.410 . S
C4483 C4491 1.503 . S
C4484 C4483 1.410 . S
C4484 C4485 1.392 . S
C4484 C4487 1.511 1_455 S
C4485 C4481 1.376 . S
C4485 C4484 1.392 . S
C4485 H4497 0.867 1_455 S
C4486 C4482 1.531 . S
C4486 H4498 0.960 . S
C4486 H4499 0.962 . S
C4486 H4500 0.960 . S
C4487 C4484 1.511 1_655 S
C4487 H4501 0.961 . S
C4487 H4502 0.961 . S
C4487 H4503 0.961 . S
C4488 C4489 1.370 . S
C4488 C4490 1.363 . S
C4488 H4504 0.931 . S
C4489 C4488 1.370 . S
C4489 C4493 1.408 . S
C4490 C4488 1.363 . S
C4490 C4491 1.370 . S
C4490 C4494 1.524 . S
C4491 C4483 1.503 . S
C4491 C4490 1.370 . S
C4491 C4492 1.403 . S
C4492 C4491 1.403 . S
C4492 C4493 1.404 . S
C4492 C4495 1.539 . S
C4493 C4489 1.408 . S
C4493 C4492 1.404 . S
C4493 H4505 0.930 . S
C4494 C4490 1.524 . S
C4494 H4506 0.956 . S
C4494 H4507 0.961 . S
C4494 H4508 0.961 . S
C4495 C4492 1.539 . S
C4495 H4509 0.958 . S
C4495 H4510 0.961 . S
C4495 H4511 0.960 . S
H4496 C4480 0.931 . S
H4497 C4485 0.867 1_655 S
H4498 C4486 0.960 . S
H4499 C4486 0.962 . S
H4500 C4486 0.960 . S
H4501 C4487 0.961 . S
H4502 C4487 0.961 . S
H4503 C4487 0.961 . S
H4504 C4488 0.931 . S
H4505 C4493 0.930 . S
H4506 C4494 0.956 . S
H4507 C4494 0.961 . S
H4508 C4494 0.961 . S
H4509 C4495 0.958 . S
H4510 C4495 0.961 . S
H4511 C4495 0.960 . S
C4512 C4513 1.391 . S
C4512 C4514 1.394 . S
C4512 H4528 0.931 . S
C4513 C4512 1.391 . S
C4513 C4517 1.376 . S
C4514 C4512 1.394 . S
C4514 C4515 1.369 . S
C4514 C4518 1.531 . S
C4515 C4514 1.369 . S
C4515 C4516 1.410 . S
C4515 C4523 1.503 . S
C4516 C4515 1.410 . S
C4516 C4517 1.392 . S
C4516 C4519 1.511 . S
C4517 C4513 1.376 . S
C4517 C4516 1.392 . S
C4517 H4529 0.929 . S
C4518 C4514 1.531 . S
C4518 H4530 0.960 . S
C4518 H4531 0.962 . S
C4518 H4532 0.960 . S
C4519 C4516 1.511 . S
C4519 H4533 0.961 . S
C4519 H4534 0.961 . S
C4519 H4535 0.961 . S
C4520 C4521 1.370 . S
C4520 C4522 1.363 . S
C4520 H4536 0.931 . S
C4521 C4520 1.370 . S
C4521 C4525 1.408 . S
C4522 C4520 1.363 . S
C4522 C4523 1.370 . S
C4522 C4526 1.524 . S
C4523 C4515 1.503 . S
C4523 C4522 1.370 . S
C4523 C4524 1.403 . S
C4524 C4523 1.403 . S
C4524 C4525 1.404 . S
C4524 C4527 1.539 . S
C4525 C4521 1.408 . S
C4525 C4524 1.404 . S
C4525 H4537 0.930 . S
C4526 C4522 1.524 . S
C4526 H4538 0.956 . S
C4526 H4539 0.961 . S
C4526 H4540 0.961 . S
C4527 C4524 1.539 . S
C4527 H4541 0.958 . S
C4527 H4542 0.961 . S
C4527 H4543 0.960 . S
H4528 C4512 0.931 . S
H4529 C4517 0.929 . S
H4530 C4518 0.960 . S
H4531 C4518 0.962 . S
H4532 C4518 0.960 . S
H4533 C4519 0.961 . S
H4534 C4519 0.961 . S
H4535 C4519 0.961 . S
H4536 C4520 0.931 . S
H4537 C4525 0.930 . S
H4538 C4526 0.956 . S
H4539 C4526 0.961 . S
H4540 C4526 0.961 . S
H4541 C4527 0.958 . S
H4542 C4527 0.961 . S
H4543 C4527 0.960 . S
C4544 C4545 1.391 . S
C4544 C4546 1.394 . S
C4544 H4560 0.931 . S
C4545 C4544 1.391 . S
C4545 C4549 1.376 . S
C4546 C4544 1.394 . S
C4546 C4547 1.369 . S
C4546 C4550 1.531 . S
C4547 C4546 1.369 . S
C4547 C4548 1.410 . S
C4547 C4555 1.503 . S
C4548 C4547 1.410 . S
C4548 C4549 1.392 . S
C4548 C4551 1.511 . S
C4549 C4545 1.376 . S
C4549 C4548 1.392 . S
C4549 H4561 0.929 . S
C4550 C4546 1.531 . S
C4550 H4562 0.960 . S
C4550 H4563 0.962 . S
C4550 H4564 0.960 . S
C4551 C4548 1.511 . S
C4551 H4565 0.961 . S
C4551 H4566 0.961 . S
C4551 H4567 0.961 . S
C4552 C4553 1.370 . S
C4552 C4554 1.363 . S
C4552 H4568 0.931 . S
C4553 C4552 1.370 . S
C4553 C4557 1.408 . S
C4554 C4552 1.363 . S
C4554 C4555 1.370 . S
C4554 C4558 1.524 . S
C4555 C4547 1.503 . S
C4555 C4554 1.370 . S
C4555 C4556 1.403 . S
C4556 C4555 1.403 . S
C4556 C4557 1.404 . S
C4556 C4559 1.539 . S
C4557 C4553 1.408 . S
C4557 C4556 1.404 . S
C4557 H4569 0.930 . S
C4558 C4554 1.524 . S
C4558 H4570 0.956 . S
C4558 H4571 0.961 . S
C4558 H4572 0.961 . S
C4559 C4556 1.539 . S
C4559 H4573 0.958 . S
C4559 H4574 0.961 . S
C4559 H4575 0.960 . S
H4560 C4544 0.931 . S
H4561 C4549 0.929 . S
H4562 C4550 0.960 . S
H4563 C4550 0.962 . S
H4564 C4550 0.960 . S
H4565 C4551 0.961 . S
H4566 C4551 0.961 . S
H4567 C4551 0.961 . S
H4568 C4552 0.931 . S
H4569 C4557 0.930 . S
H4570 C4558 0.956 . S
H4571 C4558 0.961 . S
H4572 C4558 0.961 . S
H4573 C4559 0.958 . S
H4574 C4559 0.961 . S
H4575 C4559 0.960 . S
C4576 C4577 1.391 . S
C4576 C4578 1.394 . S
C4576 H4592 0.931 . S
C4577 C4576 1.391 . S
C4577 C4581 1.376 . S
C4578 C4576 1.394 . S
C4578 C4579 1.369 . S
C4578 C4582 1.531 . S
C4579 C4578 1.369 . S
C4579 C4580 1.410 . S
C4579 C4587 1.503 . S
C4580 C4579 1.410 . S
C4580 C4581 1.392 . S
C4580 C4583 1.511 . S
C4581 C4577 1.376 . S
C4581 C4580 1.392 . S
C4581 H4593 0.929 . S
C4582 C4578 1.531 . S
C4582 H4594 0.960 . S
C4582 H4595 0.962 . S
C4582 H4596 0.960 . S
C4583 C4580 1.511 . S
C4583 H4597 0.961 . S
C4583 H4598 0.961 . S
C4583 H4599 0.961 . S
C4584 C4585 1.370 . S
C4584 C4586 1.363 . S
C4584 H4600 0.931 . S
C4585 C4584 1.370 . S
C4585 C4589 1.408 . S
C4586 C4584 1.363 . S
C4586 C4587 1.370 . S
C4586 C4590 1.524 . S
C4587 C4579 1.503 . S
C4587 C4586 1.370 . S
C4587 C4588 1.403 . S
C4588 C4587 1.403 . S
C4588 C4589 1.404 . S
C4588 C4591 1.539 . S
C4589 C4585 1.408 . S
C4589 C4588 1.404 . S
C4589 H4601 0.930 . S
C4590 C4586 1.524 . S
C4590 H4602 0.956 . S
C4590 H4603 0.961 . S
C4590 H4604 0.961 . S
C4591 C4588 1.539 . S
C4591 H4605 0.958 . S
C4591 H4606 0.961 . S
C4591 H4607 0.960 . S
H4592 C4576 0.931 . S
H4593 C4581 0.929 . S
H4594 C4582 0.960 . S
H4595 C4582 0.962 . S
H4596 C4582 0.960 . S
H4597 C4583 0.961 . S
H4598 C4583 0.961 . S
H4599 C4583 0.961 . S
H4600 C4584 0.931 . S
H4601 C4589 0.930 . S
H4602 C4590 0.956 . S
H4603 C4590 0.961 . S
H4604 C4590 0.961 . S
H4605 C4591 0.958 . S
H4606 C4591 0.961 . S
H4607 C4591 0.960 . S
C4608 C4609 1.391 . S
C4608 C4610 1.394 . S
C4608 H4624 0.931 . S
C4609 C4608 1.391 . S
C4609 C4613 1.376 . S
C4610 C4608 1.394 . S
C4610 C4611 1.369 . S
C4610 C4614 1.531 . S
C4611 C4610 1.369 . S
C4611 C4612 1.410 . S
C4611 C4619 1.503 . S
C4612 C4611 1.410 . S
C4612 C4613 1.392 . S
C4612 C4615 1.511 . S
C4613 C4609 1.376 . S
C4613 C4612 1.392 . S
C4613 H4625 0.929 . S
C4614 C4610 1.531 . S
C4614 H4626 0.960 . S
C4614 H4627 0.962 . S
C4614 H4628 0.960 . S
C4615 C4612 1.511 . S
C4615 H4629 0.961 . S
C4615 H4630 0.961 . S
C4615 H4631 0.961 . S
C4616 C4617 1.370 . S
C4616 C4618 1.363 . S
C4616 H4632 0.931 . S
C4617 C4616 1.370 . S
C4617 C4621 1.408 . S
C4618 C4616 1.363 . S
C4618 C4619 1.370 . S
C4618 C4622 1.524 . S
C4619 C4611 1.503 . S
C4619 C4618 1.370 . S
C4619 C4620 1.403 . S
C4620 C4619 1.403 . S
C4620 C4621 1.404 . S
C4620 C4623 1.539 . S
C4621 C4617 1.408 . S
C4621 C4620 1.404 . S
C4621 H4633 0.930 . S
C4622 C4618 1.524 . S
C4622 H4634 0.956 . S
C4622 H4635 0.961 . S
C4622 H4636 0.961 . S
C4623 C4620 1.539 . S
C4623 H4637 0.958 . S
C4623 H4638 0.961 . S
C4623 H4639 0.960 . S
H4624 C4608 0.931 . S
H4625 C4613 0.929 . S
H4626 C4614 0.960 . S
H4627 C4614 0.962 . S
H4628 C4614 0.960 . S
H4629 C4615 0.961 . S
H4630 C4615 0.961 . S
H4631 C4615 0.961 . S
H4632 C4616 0.931 . S
H4633 C4621 0.930 . S
H4634 C4622 0.956 . S
H4635 C4622 0.961 . S
H4636 C4622 0.961 . S
H4637 C4623 0.958 . S
H4638 C4623 0.961 . S
H4639 C4623 0.960 . S
C4640 C4641 1.391 . S
C4640 C4642 1.394 . S
C4640 H4656 0.931 . S
C4641 C4640 1.391 . S
C4641 C4645 1.376 . S
C4642 C4640 1.394 . S
C4642 C4643 1.369 . S
C4642 C4646 1.531 . S
C4643 C4642 1.369 . S
C4643 C4644 1.410 . S
C4643 C4651 1.503 . S
C4644 C4643 1.410 . S
C4644 C4645 1.392 . S
C4644 C4647 1.511 . S
C4645 C4641 1.376 . S
C4645 C4644 1.392 . S
C4645 H4657 0.929 . S
C4646 C4642 1.531 . S
C4646 H4658 0.960 . S
C4646 H4659 0.962 . S
C4646 H4660 0.960 . S
C4647 C4644 1.511 . S
C4647 H4661 0.961 . S
C4647 H4662 0.961 . S
C4647 H4663 0.961 . S
C4648 C4649 1.370 . S
C4648 C4650 1.363 . S
C4648 H4664 0.931 . S
C4649 C4648 1.370 . S
C4649 C4653 1.408 . S
C4650 C4648 1.363 . S
C4650 C4651 1.370 . S
C4650 C4654 1.524 . S
C4651 C4643 1.503 . S
C4651 C4650 1.370 . S
C4651 C4652 1.403 . S
C4652 C4651 1.403 . S
C4652 C4653 1.404 . S
C4652 C4655 1.539 . S
C4653 C4649 1.408 . S
C4653 C4652 1.404 . S
C4653 H4665 0.930 . S
C4654 C4650 1.524 . S
C4654 H4666 0.956 . S
C4654 H4667 0.961 . S
C4654 H4668 0.961 . S
C4655 C4652 1.539 . S
C4655 H4669 0.958 . S
C4655 H4670 0.961 . S
C4655 H4671 0.960 . S
H4656 C4640 0.931 . S
H4657 C4645 0.929 . S
H4658 C4646 0.960 . S
H4659 C4646 0.962 . S
H4660 C4646 0.960 . S
H4661 C4647 0.961 . S
H4662 C4647 0.961 . S
H4663 C4647 0.961 . S
H4664 C4648 0.931 . S
H4665 C4653 0.930 . S
H4666 C4654 0.956 . S
H4667 C4654 0.961 . S
H4668 C4654 0.961 . S
H4669 C4655 0.958 . S
H4670 C4655 0.961 . S
H4671 C4655 0.960 . S
C4672 C4673 1.391 . S
C4672 C4674 1.394 . S
C4672 H4688 0.931 . S
C4673 C4672 1.391 . S
C4673 C4677 1.376 . S
C4674 C4672 1.394 . S
C4674 C4675 1.369 . S
C4674 C4678 1.531 . S
C4675 C4674 1.369 . S
C4675 C4676 1.410 . S
C4675 C4683 1.503 . S
C4676 C4675 1.410 . S
C4676 C4677 1.392 . S
C4676 C4679 1.511 . S
C4677 C4673 1.376 . S
C4677 C4676 1.392 . S
C4677 H4689 0.929 . S
C4678 C4674 1.531 . S
C4678 H4690 0.960 . S
C4678 H4691 0.962 . S
C4678 H4692 0.960 . S
C4679 C4676 1.511 . S
C4679 H4693 0.961 . S
C4679 H4694 0.961 . S
C4679 H4695 0.961 . S
C4680 C4681 1.370 . S
C4680 C4682 1.363 . S
C4680 H4696 0.931 . S
C4681 C4680 1.370 . S
C4681 C4685 1.408 . S
C4682 C4680 1.363 . S
C4682 C4683 1.370 . S
C4682 C4686 1.524 . S
C4683 C4675 1.503 . S
C4683 C4682 1.370 . S
C4683 C4684 1.403 . S
C4684 C4683 1.403 . S
C4684 C4685 1.404 . S
C4684 C4687 1.539 . S
C4685 C4681 1.408 . S
C4685 C4684 1.404 . S
C4685 H4697 0.930 . S
C4686 C4682 1.524 . S
C4686 H4698 0.956 . S
C4686 H4699 0.961 . S
C4686 H4700 0.961 . S
C4687 C4684 1.539 . S
C4687 H4701 0.958 . S
C4687 H4702 0.961 . S
C4687 H4703 0.960 . S
H4688 C4672 0.931 . S
H4689 C4677 0.929 . S
H4690 C4678 0.960 . S
H4691 C4678 0.962 . S
H4692 C4678 0.960 . S
H4693 C4679 0.961 . S
H4694 C4679 0.961 . S
H4695 C4679 0.961 . S
H4696 C4680 0.931 . S
H4697 C4685 0.930 . S
H4698 C4686 0.956 . S
H4699 C4686 0.961 . S
H4700 C4686 0.961 . S
H4701 C4687 0.958 . S
H4702 C4687 0.961 . S
H4703 C4687 0.960 . S
C4704 C4705 1.391 . S
C4704 C4706 1.394 . S
C4704 H4720 0.931 . S
C4705 C4704 1.391 . S
C4705 C4709 1.376 . S
C4706 C4704 1.394 . S
C4706 C4707 1.369 . S
C4706 C4710 1.531 . S
C4707 C4706 1.369 . S
C4707 C4708 1.410 . S
C4707 C4715 1.503 . S
C4708 C4707 1.410 . S
C4708 C4709 1.392 . S
C4708 C4711 1.511 . S
C4709 C4705 1.376 . S
C4709 C4708 1.392 . S
C4709 H4721 0.929 . S
C4710 C4706 1.531 . S
C4710 H4722 0.960 . S
C4710 H4723 0.962 . S
C4710 H4724 0.960 . S
C4711 C4708 1.511 . S
C4711 H4725 0.961 . S
C4711 H4726 0.961 . S
C4711 H4727 0.961 . S
C4712 C4713 1.370 . S
C4712 C4714 1.363 . S
C4712 H4728 0.931 . S
C4713 C4712 1.370 . S
C4713 C4717 1.408 . S
C4714 C4712 1.363 . S
C4714 C4715 1.370 . S
C4714 C4718 1.524 . S
C4715 C4707 1.503 . S
C4715 C4714 1.370 . S
C4715 C4716 1.403 . S
C4716 C4715 1.403 . S
C4716 C4717 1.404 . S
C4716 C4719 1.539 . S
C4717 C4713 1.408 . S
C4717 C4716 1.404 . S
C4717 H4729 0.930 . S
C4718 C4714 1.524 . S
C4718 H4730 0.956 . S
C4718 H4731 0.961 . S
C4718 H4732 0.961 . S
C4719 C4716 1.539 . S
C4719 H4733 0.958 . S
C4719 H4734 0.961 . S
C4719 H4735 0.960 . S
H4720 C4704 0.931 . S
H4721 C4709 0.929 . S
H4722 C4710 0.960 . S
H4723 C4710 0.962 . S
H4724 C4710 0.960 . S
H4725 C4711 0.961 . S
H4726 C4711 0.961 . S
H4727 C4711 0.961 . S
H4728 C4712 0.931 . S
H4729 C4717 0.930 . S
H4730 C4718 0.956 . S
H4731 C4718 0.961 . S
H4732 C4718 0.961 . S
H4733 C4719 0.958 . S
H4734 C4719 0.961 . S
H4735 C4719 0.960 . S
C4736 C4737 1.391 . S
C4736 C4738 1.394 . S
C4736 H4752 0.931 . S
C4737 C4736 1.391 . S
C4737 C4741 1.376 . S
C4738 C4736 1.394 . S
C4738 C4739 1.369 . S
C4738 C4742 1.531 . S
C4739 C4738 1.369 . S
C4739 C4740 1.410 . S
C4739 C4747 1.503 . S
C4740 C4739 1.410 . S
C4740 C4741 1.392 . S
C4740 C4743 1.511 . S
C4741 C4737 1.376 . S
C4741 C4740 1.392 . S
C4741 H4753 0.929 . S
C4742 C4738 1.531 . S
C4742 H4754 0.960 . S
C4742 H4755 0.962 . S
C4742 H4756 0.960 . S
C4743 C4740 1.511 . S
C4743 H4757 0.961 . S
C4743 H4758 0.961 . S
C4743 H4759 0.961 . S
C4744 C4745 1.370 . S
C4744 C4746 1.363 . S
C4744 H4760 0.931 . S
C4745 C4744 1.370 . S
C4745 C4749 1.408 . S
C4746 C4744 1.363 . S
C4746 C4747 1.370 . S
C4746 C4750 1.524 . S
C4747 C4739 1.503 . S
C4747 C4746 1.370 . S
C4747 C4748 1.403 . S
C4748 C4747 1.403 . S
C4748 C4749 1.404 . S
C4748 C4751 1.539 . S
C4749 C4745 1.408 . S
C4749 C4748 1.404 . S
C4749 H4761 0.930 . S
C4750 C4746 1.524 . S
C4750 H4762 0.956 . S
C4750 H4763 0.961 . S
C4750 H4764 0.961 . S
C4751 C4748 1.539 . S
C4751 H4765 0.958 . S
C4751 H4766 0.961 . S
C4751 H4767 0.960 . S
H4752 C4736 0.931 . S
H4753 C4741 0.929 . S
H4754 C4742 0.960 . S
H4755 C4742 0.962 . S
H4756 C4742 0.960 . S
H4757 C4743 0.961 . S
H4758 C4743 0.961 . S
H4759 C4743 0.961 . S
H4760 C4744 0.931 . S
H4761 C4749 0.930 . S
H4762 C4750 0.956 . S
H4763 C4750 0.961 . S
H4764 C4750 0.961 . S
H4765 C4751 0.958 . S
H4766 C4751 0.961 . S
H4767 C4751 0.960 . S
C4768 C4769 1.391 . S
C4768 C4770 1.394 . S
C4768 H4784 0.931 . S
C4769 C4768 1.391 . S
C4769 C4773 1.376 . S
C4770 C4768 1.394 . S
C4770 C4771 1.369 . S
C4770 C4774 1.531 . S
C4771 C4770 1.369 . S
C4771 C4772 1.410 . S
C4771 C4779 1.503 . S
C4772 C4771 1.410 . S
C4772 C4773 1.392 . S
C4772 C4775 1.511 . S
C4773 C4769 1.376 . S
C4773 C4772 1.392 . S
C4773 H4785 0.929 . S
C4774 C4770 1.531 . S
C4774 H4786 0.960 . S
C4774 H4787 0.962 . S
C4774 H4788 0.960 . S
C4775 C4772 1.511 . S
C4775 H4789 0.961 . S
C4775 H4790 0.961 . S
C4775 H4791 0.961 . S
C4776 C4777 1.370 . S
C4776 C4778 1.363 . S
C4776 H4792 0.931 . S
C4777 C4776 1.370 . S
C4777 C4781 1.408 . S
C4778 C4776 1.363 . S
C4778 C4779 1.370 . S
C4778 C4782 1.524 . S
C4779 C4771 1.503 . S
C4779 C4778 1.370 . S
C4779 C4780 1.403 . S
C4780 C4779 1.403 . S
C4780 C4781 1.404 . S
C4780 C4783 1.539 . S
C4781 C4777 1.408 . S
C4781 C4780 1.404 . S
C4781 H4793 0.930 . S
C4782 C4778 1.524 . S
C4782 H4794 0.956 . S
C4782 H4795 0.961 . S
C4782 H4796 0.961 . S
C4783 C4780 1.539 . S
C4783 H4797 0.958 . S
C4783 H4798 0.961 . S
C4783 H4799 0.960 . S
H4784 C4768 0.931 . S
H4785 C4773 0.929 . S
H4786 C4774 0.960 . S
H4787 C4774 0.962 . S
H4788 C4774 0.960 . S
H4789 C4775 0.961 . S
H4790 C4775 0.961 . S
H4791 C4775 0.961 . S
H4792 C4776 0.931 . S
H4793 C4781 0.930 . S
H4794 C4782 0.956 . S
H4795 C4782 0.961 . S
H4796 C4782 0.961 . S
H4797 C4783 0.958 . S
H4798 C4783 0.961 . S
H4799 C4783 0.960 . S
C4800 C4801 1.391 . S
C4800 C4802 1.394 . S
C4800 H4816 0.931 . S
C4801 C4800 1.391 . S
C4801 C4805 1.376 . S
C4802 C4800 1.394 . S
C4802 C4803 1.369 . S
C4802 C4806 1.531 . S
C4803 C4802 1.369 . S
C4803 C4804 1.410 . S
C4803 C4811 1.503 . S
C4804 C4803 1.410 . S
C4804 C4805 1.392 . S
C4804 C4807 1.511 . S
C4805 C4801 1.376 . S
C4805 C4804 1.392 . S
C4805 H4817 0.929 . S
C4806 C4802 1.531 . S
C4806 H4818 0.960 . S
C4806 H4819 0.962 . S
C4806 H4820 0.960 . S
C4807 C4804 1.511 . S
C4807 H4821 0.961 . S
C4807 H4822 0.961 . S
C4807 H4823 0.961 . S
C4808 C4809 1.370 . S
C4808 C4810 1.363 . S
C4808 H4824 0.931 . S
C4809 C4808 1.370 . S
C4809 C4813 1.408 . S
C4810 C4808 1.363 . S
C4810 C4811 1.370 . S
C4810 C4814 1.524 . S
C4811 C4803 1.503 . S
C4811 C4810 1.370 . S
C4811 C4812 1.403 . S
C4812 C4811 1.403 . S
C4812 C4813 1.404 . S
C4812 C4815 1.539 . S
C4813 C4809 1.408 . S
C4813 C4812 1.404 . S
C4813 H4825 0.930 . S
C4814 C4810 1.524 . S
C4814 H4826 0.956 . S
C4814 H4827 0.961 . S
C4814 H4828 0.961 . S
C4815 C4812 1.539 . S
C4815 H4829 0.958 . S
C4815 H4830 0.961 . S
C4815 H4831 0.960 . S
H4816 C4800 0.931 . S
H4817 C4805 0.929 . S
H4818 C4806 0.960 . S
H4819 C4806 0.962 . S
H4820 C4806 0.960 . S
H4821 C4807 0.961 . S
H4822 C4807 0.961 . S
H4823 C4807 0.961 . S
H4824 C4808 0.931 . S
H4825 C4813 0.930 . S
H4826 C4814 0.956 . S
H4827 C4814 0.961 . S
H4828 C4814 0.961 . S
H4829 C4815 0.958 . S
H4830 C4815 0.961 . S
H4831 C4815 0.960 . S
C4832 C4833 1.391 . S
C4832 C4834 1.394 . S
C4832 H4848 0.931 . S
C4833 C4832 1.391 . S
C4833 C4837 1.376 . S
C4834 C4832 1.394 . S
C4834 C4835 1.369 . S
C4834 C4838 1.531 . S
C4835 C4834 1.369 . S
C4835 C4836 1.410 . S
C4835 C4843 1.503 . S
C4836 C4835 1.410 . S
C4836 C4837 1.392 . S
C4836 C4839 1.511 . S
C4837 C4833 1.376 . S
C4837 C4836 1.392 . S
C4837 H4849 0.929 . S
C4838 C4834 1.531 . S
C4838 H4850 0.960 . S
C4838 H4851 0.962 . S
C4838 H4852 0.960 . S
C4839 C4836 1.511 . S
C4839 H4853 0.961 . S
C4839 H4854 0.961 . S
C4839 H4855 0.961 . S
C4840 C4841 1.370 . S
C4840 C4842 1.363 . S
C4840 H4856 0.931 . S
C4841 C4840 1.370 . S
C4841 C4845 1.408 . S
C4842 C4840 1.363 . S
C4842 C4843 1.370 . S
C4842 C4846 1.524 . S
C4843 C4835 1.503 . S
C4843 C4842 1.370 . S
C4843 C4844 1.403 . S
C4844 C4843 1.403 . S
C4844 C4845 1.404 . S
C4844 C4847 1.539 . S
C4845 C4841 1.408 . S
C4845 C4844 1.404 . S
C4845 H4857 0.930 . S
C4846 C4842 1.524 . S
C4846 H4858 0.956 . S
C4846 H4859 0.961 . S
C4846 H4860 0.961 . S
C4847 C4844 1.539 . S
C4847 H4861 0.958 . S
C4847 H4862 0.961 . S
C4847 H4863 0.960 . S
H4848 C4832 0.931 . S
H4849 C4837 0.929 . S
H4850 C4838 0.960 . S
H4851 C4838 0.962 . S
H4852 C4838 0.960 . S
H4853 C4839 0.961 . S
H4854 C4839 0.961 . S
H4855 C4839 0.961 . S
H4856 C4840 0.931 . S
H4857 C4845 0.930 . S
H4858 C4846 0.956 . S
H4859 C4846 0.961 . S
H4860 C4846 0.961 . S
H4861 C4847 0.958 . S
H4862 C4847 0.961 . S
H4863 C4847 0.960 . S
C4864 C4865 1.391 . S
C4864 C4866 1.394 . S
C4864 H4880 0.931 . S
C4865 C4864 1.391 . S
C4865 C4869 1.376 . S
C4866 C4864 1.394 . S
C4866 C4867 1.369 . S
C4866 C4870 1.531 . S
C4867 C4866 1.369 . S
C4867 C4868 1.410 . S
C4867 C4875 1.503 . S
C4868 C4867 1.410 . S
C4868 C4869 1.392 . S
C4868 C4871 1.511 . S
C4869 C4865 1.376 . S
C4869 C4868 1.392 . S
C4869 H4881 0.929 . S
C4870 C4866 1.531 . S
C4870 H4882 0.960 . S
C4870 H4883 0.962 . S
C4870 H4884 0.960 . S
C4871 C4868 1.511 . S
C4871 H4885 0.961 . S
C4871 H4886 0.961 . S
C4871 H4887 0.961 . S
C4872 C4873 1.370 . S
C4872 C4874 1.363 . S
C4872 H4888 0.931 . S
C4873 C4872 1.370 . S
C4873 C4877 1.408 . S
C4874 C4872 1.363 . S
C4874 C4875 1.370 . S
C4874 C4878 1.524 . S
C4875 C4867 1.503 . S
C4875 C4874 1.370 . S
C4875 C4876 1.403 . S
C4876 C4875 1.403 . S
C4876 C4877 1.404 . S
C4876 C4879 1.539 . S
C4877 C4873 1.408 . S
C4877 C4876 1.404 . S
C4877 H4889 0.930 . S
C4878 C4874 1.524 . S
C4878 H4890 0.956 . S
C4878 H4891 0.961 . S
C4878 H4892 0.961 . S
C4879 C4876 1.539 . S
C4879 H4893 0.958 . S
C4879 H4894 0.961 . S
C4879 H4895 0.960 . S
H4880 C4864 0.931 . S
H4881 C4869 0.929 . S
H4882 C4870 0.960 . S
H4883 C4870 0.962 . S
H4884 C4870 0.960 . S
H4885 C4871 0.961 . S
H4886 C4871 0.961 . S
H4887 C4871 0.961 . S
H4888 C4872 0.931 . S
H4889 C4877 0.930 . S
H4890 C4878 0.956 . S
H4891 C4878 0.961 . S
H4892 C4878 0.961 . S
H4893 C4879 0.958 . S
H4894 C4879 0.961 . S
H4895 C4879 0.960 . S
C4896 C4897 1.391 1_545 S
C4896 C4898 1.394 . S
C4896 H4912 0.931 . S
C4897 C4896 1.391 1_565 S
C4897 C4901 1.376 1_554 S
C4898 C4896 1.394 . S
C4898 C4899 1.369 1_545 S
C4898 C4902 1.531 . S
C4899 C4898 1.369 1_565 S
C4899 C4900 1.410 1_554 S
C4899 C4907 1.506 1_565 S
C4900 C4899 1.410 1_556 S
C4900 C4901 1.392 . S
C4900 C4903 1.511 . S
C4901 C4897 1.376 1_556 S
C4901 C4900 1.392 . S
C4901 H4913 0.929 . S
C4902 C4898 1.531 . S
C4902 H4914 0.960 . S
C4902 H4915 0.962 . S
C4902 H4916 0.960 . S
C4903 C4900 1.511 . S
C4903 H4917 0.961 . S
C4903 H4918 0.961 . S
C4903 H4919 0.961 . S
C4904 C4905 1.370 . S
C4904 C4906 1.363 . S
C4904 H4920 0.931 . S
C4905 C4904 1.370 . S
C4905 C4909 1.408 1_545 S
C4906 C4904 1.363 . S
C4906 C4907 1.398 . S
C4906 C4910 1.524 1_554 S
C4907 C4899 1.506 1_545 S
C4907 C4906 1.398 . S
C4907 C4908 1.374 1_545 S
C4908 C4907 1.374 1_565 S
C4908 C4909 1.404 . S
C4908 C4911 1.539 . S
C4909 C4905 1.408 1_565 S
C4909 C4908 1.404 . S
C4909 H4921 0.930 . S
C4910 C4906 1.524 1_556 S
C4910 H4922 0.936 1_556 S
C4910 H4923 0.961 . S
C4910 H4924 0.961 . S
C4911 C4908 1.539 . S
C4911 H4925 0.958 . S
C4911 H4926 0.961 . S
C4911 H4927 0.960 . S
H4912 C4896 0.931 . S
H4913 C4901 0.929 . S
H4914 C4902 0.960 . S
H4915 C4902 0.962 . S
H4916 C4902 0.960 . S
H4917 C4903 0.961 . S
H4918 C4903 0.961 . S
H4919 C4903 0.961 . S
H4920 C4904 0.931 . S
H4921 C4909 0.930 . S
H4922 C4910 0.936 1_554 S
H4923 C4910 0.961 . S
H4924 C4910 0.961 . S
H4925 C4911 0.958 . S
H4926 C4911 0.961 . S
H4927 C4911 0.960 . S
C4928 C4929 1.391 . S
C4928 C4930 1.394 . S
C4928 H4944 0.931 . S
C4929 C4928 1.391 . S
C4929 C4933 1.376 . S
C4930 C4928 1.394 . S
C4930 C4931 1.369 . S
C4930 C4934 1.531 . S
C4931 C4930 1.369 . S
C4931 C4932 1.410 . S
C4931 C4939 1.503 . S
C4932 C4931 1.410 . S
C4932 C4933 1.392 . S
C4932 C4935 1.511 . S
C4933 C4929 1.376 . S
C4933 C4932 1.392 . S
C4933 H4945 0.929 . S
C4934 C4930 1.531 . S
C4934 H4946 0.960 . S
C4934 H4947 0.962 . S
C4934 H4948 0.960 . S
C4935 C4932 1.511 . S
C4935 H4949 0.961 . S
C4935 H4950 0.961 . S
C4935 H4951 0.961 . S
C4936 C4937 1.370 . S
C4936 C4938 1.363 . S
C4936 H4952 0.931 . S
C4937 C4936 1.370 . S
C4937 C4941 1.408 . S
C4938 C4936 1.363 . S
C4938 C4939 1.370 . S
C4938 C4942 1.524 . S
C4939 C4931 1.503 . S
C4939 C4938 1.370 . S
C4939 C4940 1.403 . S
C4940 C4939 1.403 . S
C4940 C4941 1.404 . S
C4940 C4943 1.539 . S
C4941 C4937 1.408 . S
C4941 C4940 1.404 . S
C4941 H4953 0.930 . S
C4942 C4938 1.524 . S
C4942 H4954 0.956 . S
C4942 H4955 0.961 . S
C4942 H4956 0.961 . S
C4943 C4940 1.539 . S
C4943 H4957 0.958 . S
C4943 H4958 0.961 . S
C4943 H4959 0.960 . S
H4944 C4928 0.931 . S
H4945 C4933 0.929 . S
H4946 C4934 0.960 . S
H4947 C4934 0.962 . S
H4948 C4934 0.960 . S
H4949 C4935 0.961 . S
H4950 C4935 0.961 . S
H4951 C4935 0.961 . S
H4952 C4936 0.931 . S
H4953 C4941 0.930 . S
H4954 C4942 0.956 . S
H4955 C4942 0.961 . S
H4956 C4942 0.961 . S
H4957 C4943 0.958 . S
H4958 C4943 0.961 . S
H4959 C4943 0.960 . S
C4960 C4961 1.391 . S
C4960 C4962 1.394 . S
C4960 H4976 0.931 . S
C4961 C4960 1.391 . S
C4961 C4965 1.376 . S
C4962 C4960 1.394 . S
C4962 C4963 1.369 . S
C4962 C4966 1.531 . S
C4963 C4962 1.369 . S
C4963 C4964 1.410 . S
C4963 C4971 1.503 . S
C4964 C4963 1.410 . S
C4964 C4965 1.392 . S
C4964 C4967 1.511 . S
C4965 C4961 1.376 . S
C4965 C4964 1.392 . S
C4965 H4977 0.929 . S
C4966 C4962 1.531 . S
C4966 H4978 0.960 . S
C4966 H4979 0.962 . S
C4966 H4980 0.960 . S
C4967 C4964 1.511 . S
C4967 H4981 0.961 . S
C4967 H4982 0.961 . S
C4967 H4983 0.961 . S
C4968 C4969 1.370 . S
C4968 C4970 1.363 . S
C4968 H4984 0.931 . S
C4969 C4968 1.370 . S
C4969 C4973 1.408 . S
C4970 C4968 1.363 . S
C4970 C4971 1.370 . S
C4970 C4974 1.524 . S
C4971 C4963 1.503 . S
C4971 C4970 1.370 . S
C4971 C4972 1.403 . S
C4972 C4971 1.403 . S
C4972 C4973 1.404 . S
C4972 C4975 1.539 . S
C4973 C4969 1.408 . S
C4973 C4972 1.404 . S
C4973 H4985 0.930 . S
C4974 C4970 1.524 . S
C4974 H4986 0.956 . S
C4974 H4987 0.961 . S
C4974 H4988 0.961 . S
C4975 C4972 1.539 . S
C4975 H4989 0.958 1_554 S
C4975 H4990 0.961 1_554 S
C4975 H4991 0.962 . S
H4976 C4960 0.931 . S
H4977 C4965 0.929 . S
H4978 C4966 0.960 . S
H4979 C4966 0.962 . S
H4980 C4966 0.960 . S
H4981 C4967 0.961 . S
H4982 C4967 0.961 . S
H4983 C4967 0.961 . S
H4984 C4968 0.931 . S
H4985 C4973 0.930 . S
H4986 C4974 0.956 . S
H4987 C4974 0.961 . S
H4988 C4974 0.961 . S
H4989 C4975 0.958 1_556 S
H4990 C4975 0.961 1_556 S
H4991 C4975 0.962 . S
C4992 C4993 1.391 . S
C4992 C4994 1.394 . S
C4992 H5008 0.931 . S
C4993 C4992 1.391 . S
C4993 C4997 1.376 . S
C4994 C4992 1.394 . S
C4994 C4995 1.369 . S
C4994 C4998 1.531 . S
C4995 C4994 1.369 . S
C4995 C4996 1.410 . S
C4995 C5003 1.503 . S
C4996 C4995 1.410 . S
C4996 C4997 1.392 . S
C4996 C4999 1.511 . S
C4997 C4993 1.376 . S
C4997 C4996 1.392 . S
C4997 H5009 0.929 . S
C4998 C4994 1.531 . S
C4998 H5010 0.960 . S
C4998 H5011 0.962 . S
C4998 H5012 0.960 . S
C4999 C4996 1.511 . S
C4999 H5013 0.961 . S
C4999 H5014 0.961 . S
C4999 H5015 0.961 . S
C5000 C5001 1.370 . S
C5000 C5002 1.363 . S
C5000 H5016 0.931 . S
C5001 C5000 1.370 . S
C5001 C5005 1.408 . S
C5002 C5000 1.363 . S
C5002 C5003 1.370 . S
C5002 C5006 1.524 . S
C5003 C4995 1.503 . S
C5003 C5002 1.370 . S
C5003 C5004 1.403 . S
C5004 C5003 1.403 . S
C5004 C5005 1.404 . S
C5004 C5007 1.539 . S
C5005 C5001 1.408 . S
C5005 C5004 1.404 . S
C5005 H5017 0.930 . S
C5006 C5002 1.524 . S
C5006 H5018 0.956 . S
C5006 H5019 0.961 . S
C5006 H5020 0.961 . S
C5007 C5004 1.539 . S
C5007 H5021 0.958 . S
C5007 H5022 0.961 . S
C5007 H5023 0.960 . S
H5008 C4992 0.931 . S
H5009 C4997 0.929 . S
H5010 C4998 0.960 . S
H5011 C4998 0.962 . S
H5012 C4998 0.960 . S
H5013 C4999 0.961 . S
H5014 C4999 0.961 . S
H5015 C4999 0.961 . S
H5016 C5000 0.931 . S
H5017 C5005 0.930 . S
H5018 C5006 0.956 . S
H5019 C5006 0.961 . S
H5020 C5006 0.961 . S
H5021 C5007 0.958 . S
H5022 C5007 0.961 . S
H5023 C5007 0.960 . S
C5024 C5025 1.391 . S
C5024 C5026 1.394 . S
C5024 H5040 0.931 . S
C5025 C5024 1.391 . S
C5025 C5029 1.376 . S
C5026 C5024 1.394 . S
C5026 C5027 1.369 . S
C5026 C5030 1.531 . S
C5027 C5026 1.369 . S
C5027 C5028 1.410 . S
C5027 C5035 1.503 . S
C5028 C5027 1.410 . S
C5028 C5029 1.392 . S
C5028 C5031 1.511 . S
C5029 C5025 1.376 . S
C5029 C5028 1.392 . S
C5029 H5041 0.929 . S
C5030 C5026 1.531 . S
C5030 H5042 0.960 . S
C5030 H5043 0.962 . S
C5030 H5044 0.960 . S
C5031 C5028 1.511 . S
C5031 H5045 0.961 . S
C5031 H5046 0.961 . S
C5031 H5047 0.961 . S
C5032 C5033 1.370 . S
C5032 C5034 1.363 . S
C5032 H5048 0.931 . S
C5033 C5032 1.370 . S
C5033 C5037 1.408 . S
C5034 C5032 1.363 . S
C5034 C5035 1.370 . S
C5034 C5038 1.524 . S
C5035 C5027 1.503 . S
C5035 C5034 1.370 . S
C5035 C5036 1.403 . S
C5036 C5035 1.403 . S
C5036 C5037 1.404 . S
C5036 C5039 1.539 . S
C5037 C5033 1.408 . S
C5037 C5036 1.404 . S
C5037 H5049 0.930 . S
C5038 C5034 1.524 . S
C5038 H5050 0.956 . S
C5038 H5051 0.961 . S
C5038 H5052 0.961 . S
C5039 C5036 1.539 . S
C5039 H5053 0.958 . S
C5039 H5054 0.961 . S
C5039 H5055 0.960 . S
H5040 C5024 0.931 . S
H5041 C5029 0.929 . S
H5042 C5030 0.960 . S
H5043 C5030 0.962 . S
H5044 C5030 0.960 . S
H5045 C5031 0.961 . S
H5046 C5031 0.961 . S
H5047 C5031 0.961 . S
H5048 C5032 0.931 . S
H5049 C5037 0.930 . S
H5050 C5038 0.956 . S
H5051 C5038 0.961 . S
H5052 C5038 0.961 . S
H5053 C5039 0.958 . S
H5054 C5039 0.961 . S
H5055 C5039 0.960 . S
C5056 C5057 1.391 . S
C5056 C5058 1.394 . S
C5056 H5072 0.931 . S
C5057 C5056 1.391 . S
C5057 C5061 1.376 . S
C5058 C5056 1.394 . S
C5058 C5059 1.369 . S
C5058 C5062 1.531 . S
C5059 C5058 1.369 . S
C5059 C5060 1.410 . S
C5059 C5067 1.503 . S
C5060 C5059 1.410 . S
C5060 C5061 1.392 . S
C5060 C5063 1.511 . S
C5061 C5057 1.376 . S
C5061 C5060 1.392 . S
C5061 H5073 0.929 . S
C5062 C5058 1.531 . S
C5062 H5074 0.960 . S
C5062 H5075 0.962 . S
C5062 H5076 0.960 . S
C5063 C5060 1.511 . S
C5063 H5077 0.961 . S
C5063 H5078 0.961 . S
C5063 H5079 0.961 . S
C5064 C5065 1.370 . S
C5064 C5066 1.363 . S
C5064 H5080 0.931 . S
C5065 C5064 1.370 . S
C5065 C5069 1.408 . S
C5066 C5064 1.363 . S
C5066 C5067 1.370 . S
C5066 C5070 1.524 . S
C5067 C5059 1.503 . S
C5067 C5066 1.370 . S
C5067 C5068 1.403 . S
C5068 C5067 1.403 . S
C5068 C5069 1.404 . S
C5068 C5071 1.539 . S
C5069 C5065 1.408 . S
C5069 C5068 1.404 . S
C5069 H5081 0.930 . S
C5070 C5066 1.524 . S
C5070 H5082 0.956 . S
C5070 H5083 0.961 . S
C5070 H5084 0.961 . S
C5071 C5068 1.539 . S
C5071 H5085 0.958 . S
C5071 H5086 0.961 . S
C5071 H5087 0.960 . S
H5072 C5056 0.931 . S
H5073 C5061 0.929 . S
H5074 C5062 0.960 . S
H5075 C5062 0.962 . S
H5076 C5062 0.960 . S
H5077 C5063 0.961 . S
H5078 C5063 0.961 . S
H5079 C5063 0.961 . S
H5080 C5064 0.931 . S
H5081 C5069 0.930 . S
H5082 C5070 0.956 . S
H5083 C5070 0.961 . S
H5084 C5070 0.961 . S
H5085 C5071 0.958 . S
H5086 C5071 0.961 . S
H5087 C5071 0.960 . S
C5088 C5089 1.391 . S
C5088 C5090 1.394 . S
C5088 H5104 0.931 . S
C5089 C5088 1.391 . S
C5089 C5093 1.376 . S
C5090 C5088 1.394 . S
C5090 C5091 1.369 . S
C5090 C5094 1.531 . S
C5091 C5090 1.369 . S
C5091 C5092 1.410 . S
C5091 C5099 1.503 . S
C5092 C5091 1.410 . S
C5092 C5093 1.392 . S
C5092 C5095 1.511 . S
C5093 C5089 1.376 . S
C5093 C5092 1.392 . S
C5093 H5105 0.929 . S
C5094 C5090 1.531 . S
C5094 H5106 0.960 . S
C5094 H5107 0.962 . S
C5094 H5108 0.960 . S
C5095 C5092 1.511 . S
C5095 H5109 0.961 . S
C5095 H5110 0.961 . S
C5095 H5111 0.961 . S
C5096 C5097 1.370 . S
C5096 C5098 1.363 . S
C5096 H5112 0.931 . S
C5097 C5096 1.370 . S
C5097 C5101 1.408 . S
C5098 C5096 1.363 . S
C5098 C5099 1.370 . S
C5098 C5102 1.524 . S
C5099 C5091 1.503 . S
C5099 C5098 1.370 . S
C5099 C5100 1.403 . S
C5100 C5099 1.403 . S
C5100 C5101 1.404 . S
C5100 C5103 1.539 . S
C5101 C5097 1.408 . S
C5101 C5100 1.404 . S
C5101 H5113 0.930 . S
C5102 C5098 1.524 . S
C5102 H5114 0.956 . S
C5102 H5115 0.961 . S
C5102 H5116 0.961 . S
C5103 C5100 1.539 . S
C5103 H5117 0.958 . S
C5103 H5118 0.961 . S
C5103 H5119 0.960 . S
H5104 C5088 0.931 . S
H5105 C5093 0.929 . S
H5106 C5094 0.960 . S
H5107 C5094 0.962 . S
H5108 C5094 0.960 . S
H5109 C5095 0.961 . S
H5110 C5095 0.961 . S
H5111 C5095 0.961 . S
H5112 C5096 0.931 . S
H5113 C5101 0.930 . S
H5114 C5102 0.956 . S
H5115 C5102 0.961 . S
H5116 C5102 0.961 . S
H5117 C5103 0.958 . S
H5118 C5103 0.961 . S
H5119 C5103 0.960 . S
C5120 C5121 1.391 . S
C5120 C5122 1.394 . S
C5120 H5136 0.931 . S
C5121 C5120 1.391 . S
C5121 C5125 1.376 . S
C5122 C5120 1.394 . S
C5122 C5123 1.369 . S
C5122 C5126 1.531 . S
C5123 C5122 1.369 . S
C5123 C5124 1.410 . S
C5123 C5131 1.503 . S
C5124 C5123 1.410 . S
C5124 C5125 1.392 . S
C5124 C5127 1.511 . S
C5125 C5121 1.376 . S
C5125 C5124 1.392 . S
C5125 H5137 0.929 . S
C5126 C5122 1.531 . S
C5126 H5138 0.960 . S
C5126 H5139 0.962 . S
C5126 H5140 0.960 . S
C5127 C5124 1.511 . S
C5127 H5141 0.961 . S
C5127 H5142 0.961 . S
C5127 H5143 0.961 . S
C5128 C5129 1.370 . S
C5128 C5130 1.363 . S
C5128 H5144 0.931 . S
C5129 C5128 1.370 . S
C5129 C5133 1.408 . S
C5130 C5128 1.363 . S
C5130 C5131 1.370 . S
C5130 C5134 1.524 . S
C5131 C5123 1.503 . S
C5131 C5130 1.370 . S
C5131 C5132 1.403 . S
C5132 C5131 1.403 . S
C5132 C5133 1.404 . S
C5132 C5135 1.539 . S
C5133 C5129 1.408 . S
C5133 C5132 1.404 . S
C5133 H5145 0.930 . S
C5134 C5130 1.524 . S
C5134 H5146 0.956 . S
C5134 H5147 0.961 . S
C5134 H5148 0.961 . S
C5135 C5132 1.539 . S
C5135 H5149 0.958 . S
C5135 H5150 0.961 . S
C5135 H5151 0.960 . S
H5136 C5120 0.931 . S
H5137 C5125 0.929 . S
H5138 C5126 0.960 . S
H5139 C5126 0.962 . S
H5140 C5126 0.960 . S
H5141 C5127 0.961 . S
H5142 C5127 0.961 . S
H5143 C5127 0.961 . S
H5144 C5128 0.931 . S
H5145 C5133 0.930 . S
H5146 C5134 0.956 . S
H5147 C5134 0.961 . S
H5148 C5134 0.961 . S
H5149 C5135 0.958 . S
H5150 C5135 0.961 . S
H5151 C5135 0.960 . S
C5152 C5153 1.391 . S
C5152 C5154 1.394 . S
C5152 H5168 0.931 . S
C5153 C5152 1.391 . S
C5153 C5157 1.376 . S
C5154 C5152 1.394 . S
C5154 C5155 1.369 . S
C5154 C5158 1.531 . S
C5155 C5154 1.369 . S
C5155 C5156 1.410 . S
C5155 C5163 1.503 . S
C5156 C5155 1.410 . S
C5156 C5157 1.392 . S
C5156 C5159 1.511 . S
C5157 C5153 1.376 . S
C5157 C5156 1.392 . S
C5157 H5169 0.929 . S
C5158 C5154 1.531 . S
C5158 H5170 0.960 . S
C5158 H5171 0.962 . S
C5158 H5172 0.960 . S
C5159 C5156 1.511 . S
C5159 H5173 0.961 . S
C5159 H5174 0.961 . S
C5159 H5175 0.961 . S
C5160 C5161 1.370 . S
C5160 C5162 1.363 . S
C5160 H5176 0.931 . S
C5161 C5160 1.370 . S
C5161 C5165 1.408 . S
C5162 C5160 1.363 . S
C5162 C5163 1.370 . S
C5162 C5166 1.524 . S
C5163 C5155 1.503 . S
C5163 C5162 1.370 . S
C5163 C5164 1.403 . S
C5164 C5163 1.403 . S
C5164 C5165 1.404 . S
C5164 C5167 1.539 . S
C5165 C5161 1.408 . S
C5165 C5164 1.404 . S
C5165 H5177 0.930 . S
C5166 C5162 1.524 . S
C5166 H5178 0.956 . S
C5166 H5179 0.961 . S
C5166 H5180 0.961 . S
C5167 C5164 1.539 . S
C5167 H5181 0.958 . S
C5167 H5182 0.961 . S
C5167 H5183 0.960 . S
H5168 C5152 0.931 . S
H5169 C5157 0.929 . S
H5170 C5158 0.960 . S
H5171 C5158 0.962 . S
H5172 C5158 0.960 . S
H5173 C5159 0.961 . S
H5174 C5159 0.961 . S
H5175 C5159 0.961 . S
H5176 C5160 0.931 . S
H5177 C5165 0.930 . S
H5178 C5166 0.956 . S
H5179 C5166 0.961 . S
H5180 C5166 0.961 . S
H5181 C5167 0.958 . S
H5182 C5167 0.961 . S
H5183 C5167 0.960 . S
C5184 C5185 1.391 . S
C5184 C5186 1.394 . S
C5184 H5200 0.931 . S
C5185 C5184 1.391 . S
C5185 C5189 1.376 . S
C5186 C5184 1.394 . S
C5186 C5187 1.369 . S
C5186 C5190 1.531 . S
C5187 C5186 1.369 . S
C5187 C5188 1.410 . S
C5187 C5195 1.503 . S
C5188 C5187 1.410 . S
C5188 C5189 1.392 . S
C5188 C5191 1.511 . S
C5189 C5185 1.376 . S
C5189 C5188 1.392 . S
C5189 H5201 0.929 . S
C5190 C5186 1.531 . S
C5190 H5202 0.960 . S
C5190 H5203 0.962 . S
C5190 H5204 0.960 . S
C5191 C5188 1.511 . S
C5191 H5205 0.961 . S
C5191 H5206 0.961 . S
C5191 H5207 0.961 . S
C5192 C5193 1.370 . S
C5192 C5194 1.363 . S
C5192 H5208 0.931 . S
C5193 C5192 1.370 . S
C5193 C5197 1.408 . S
C5194 C5192 1.363 . S
C5194 C5195 1.370 . S
C5194 C5198 1.524 . S
C5195 C5187 1.503 . S
C5195 C5194 1.370 . S
C5195 C5196 1.403 . S
C5196 C5195 1.403 . S
C5196 C5197 1.404 . S
C5196 C5199 1.539 . S
C5197 C5193 1.408 . S
C5197 C5196 1.404 . S
C5197 H5209 0.930 1_556 S
C5198 C5194 1.524 . S
C5198 H5210 0.956 . S
C5198 H5211 0.961 . S
C5198 H5212 0.961 . S
C5199 C5196 1.539 . S
C5199 H5213 0.956 1_556 S
C5199 H5214 0.961 . S
C5199 H5215 0.960 . S
H5200 C5184 0.931 . S
H5201 C5189 0.929 . S
H5202 C5190 0.960 . S
H5203 C5190 0.962 . S
H5204 C5190 0.960 . S
H5205 C5191 0.961 . S
H5206 C5191 0.961 . S
H5207 C5191 0.961 . S
H5208 C5192 0.931 . S
H5209 C5197 0.930 1_554 S
H5210 C5198 0.956 . S
H5211 C5198 0.961 . S
H5212 C5198 0.961 . S
H5213 C5199 0.956 1_554 S
H5214 C5199 0.961 . S
H5215 C5199 0.960 . S
C5216 C5217 1.391 . S
C5216 C5218 1.394 . S
C5216 H5232 0.931 . S
C5217 C5216 1.391 . S
C5217 C5221 1.376 . S
C5218 C5216 1.394 . S
C5218 C5219 1.369 . S
C5218 C5222 1.531 . S
C5219 C5218 1.369 . S
C5219 C5220 1.410 . S
C5219 C5227 1.503 . S
C5220 C5219 1.410 . S
C5220 C5221 1.392 . S
C5220 C5223 1.511 . S
C5221 C5217 1.376 . S
C5221 C5220 1.392 . S
C5221 H5233 0.929 . S
C5222 C5218 1.531 . S
C5222 H5234 0.960 . S
C5222 H5235 0.962 . S
C5222 H5236 0.960 . S
C5223 C5220 1.511 . S
C5223 H5237 0.961 . S
C5223 H5238 0.961 . S
C5223 H5239 0.961 . S
C5224 C5225 1.370 . S
C5224 C5226 1.363 . S
C5224 H5240 0.931 . S
C5225 C5224 1.370 . S
C5225 C5229 1.408 . S
C5226 C5224 1.363 . S
C5226 C5227 1.370 . S
C5226 C5230 1.524 . S
C5227 C5219 1.503 . S
C5227 C5226 1.370 . S
C5227 C5228 1.403 . S
C5228 C5227 1.403 . S
C5228 C5229 1.404 . S
C5228 C5231 1.539 . S
C5229 C5225 1.408 . S
C5229 C5228 1.404 . S
C5229 H5241 0.930 . S
C5230 C5226 1.524 . S
C5230 H5242 0.956 . S
C5230 H5243 0.961 . S
C5230 H5244 0.961 . S
C5231 C5228 1.539 . S
C5231 H5245 0.958 . S
C5231 H5246 0.961 . S
C5231 H5247 0.960 . S
H5232 C5216 0.931 . S
H5233 C5221 0.929 . S
H5234 C5222 0.960 . S
H5235 C5222 0.962 . S
H5236 C5222 0.960 . S
H5237 C5223 0.961 . S
H5238 C5223 0.961 . S
H5239 C5223 0.961 . S
H5240 C5224 0.931 . S
H5241 C5229 0.930 . S
H5242 C5230 0.956 . S
H5243 C5230 0.961 . S
H5244 C5230 0.961 . S
H5245 C5231 0.958 . S
H5246 C5231 0.961 . S
H5247 C5231 0.960 . S
C5248 C5249 1.391 . S
C5248 C5250 1.394 . S
C5248 H5264 0.931 . S
C5249 C5248 1.391 . S
C5249 C5253 1.376 . S
C5250 C5248 1.394 . S
C5250 C5251 1.369 . S
C5250 C5254 1.531 . S
C5251 C5250 1.369 . S
C5251 C5252 1.410 . S
C5251 C5259 1.503 . S
C5252 C5251 1.410 . S
C5252 C5253 1.392 . S
C5252 C5255 1.511 . S
C5253 C5249 1.376 . S
C5253 C5252 1.392 . S
C5253 H5265 0.929 . S
C5254 C5250 1.531 . S
C5254 H5266 0.960 . S
C5254 H5267 0.962 . S
C5254 H5268 0.960 . S
C5255 C5252 1.511 . S
C5255 H5269 0.961 . S
C5255 H5270 0.961 . S
C5255 H5271 0.961 . S
C5256 C5257 1.370 . S
C5256 C5258 1.363 . S
C5256 H5272 0.931 . S
C5257 C5256 1.370 . S
C5257 C5261 1.408 . S
C5258 C5256 1.363 . S
C5258 C5259 1.370 . S
C5258 C5262 1.524 . S
C5259 C5251 1.503 . S
C5259 C5258 1.370 . S
C5259 C5260 1.403 . S
C5260 C5259 1.403 . S
C5260 C5261 1.404 . S
C5260 C5263 1.539 . S
C5261 C5257 1.408 . S
C5261 C5260 1.404 . S
C5261 H5273 0.930 . S
C5262 C5258 1.524 . S
C5262 H5274 0.956 . S
C5262 H5275 0.961 . S
C5262 H5276 0.961 . S
C5263 C5260 1.539 . S
C5263 H5277 0.958 . S
C5263 H5278 0.961 1_455 S
C5263 H5279 0.960 . S
H5264 C5248 0.931 . S
H5265 C5253 0.929 . S
H5266 C5254 0.960 . S
H5267 C5254 0.962 . S
H5268 C5254 0.960 . S
H5269 C5255 0.961 . S
H5270 C5255 0.961 . S
H5271 C5255 0.961 . S
H5272 C5256 0.931 . S
H5273 C5261 0.930 . S
H5274 C5262 0.956 . S
H5275 C5262 0.961 . S
H5276 C5262 0.961 . S
H5277 C5263 0.958 . S
H5278 C5263 0.961 1_655 S
H5279 C5263 0.960 . S
C5280 C5281 1.391 . S
C5280 C5282 1.394 . S
C5280 H5296 0.931 . S
C5281 C5280 1.391 . S
C5281 C5285 1.376 . S
C5282 C5280 1.394 . S
C5282 C5283 1.369 . S
C5282 C5286 1.531 . S
C5283 C5282 1.369 . S
C5283 C5284 1.410 . S
C5283 C5291 1.503 . S
C5284 C5283 1.410 . S
C5284 C5285 1.392 . S
C5284 C5287 1.511 . S
C5285 C5281 1.376 . S
C5285 C5284 1.392 . S
C5285 H5297 0.929 . S
C5286 C5282 1.531 . S
C5286 H5298 0.960 . S
C5286 H5299 0.962 . S
C5286 H5300 0.960 . S
C5287 C5284 1.511 . S
C5287 H5301 0.961 . S
C5287 H5302 0.961 . S
C5287 H5303 0.961 . S
C5288 C5289 1.370 . S
C5288 C5290 1.363 . S
C5288 H5304 0.931 . S
C5289 C5288 1.370 . S
C5289 C5293 1.408 . S
C5290 C5288 1.363 . S
C5290 C5291 1.370 . S
C5290 C5294 1.524 . S
C5291 C5283 1.503 . S
C5291 C5290 1.370 . S
C5291 C5292 1.403 . S
C5292 C5291 1.403 . S
C5292 C5293 1.404 . S
C5292 C5295 1.539 . S
C5293 C5289 1.408 . S
C5293 C5292 1.404 . S
C5293 H5305 0.930 . S
C5294 C5290 1.524 . S
C5294 H5306 0.956 . S
C5294 H5307 0.961 . S
C5294 H5308 0.961 . S
C5295 C5292 1.539 . S
C5295 H5309 0.958 . S
C5295 H5310 0.961 . S
C5295 H5311 0.960 . S
H5296 C5280 0.931 . S
H5297 C5285 0.929 . S
H5298 C5286 0.960 . S
H5299 C5286 0.962 . S
H5300 C5286 0.960 . S
H5301 C5287 0.961 . S
H5302 C5287 0.961 . S
H5303 C5287 0.961 . S
H5304 C5288 0.931 . S
H5305 C5293 0.930 . S
H5306 C5294 0.956 . S
H5307 C5294 0.961 . S
H5308 C5294 0.961 . S
H5309 C5295 0.958 . S
H5310 C5295 0.961 . S
H5311 C5295 0.960 . S
C5312 C5313 1.391 . S
C5312 C5314 1.394 . S
C5312 H5328 0.931 . S
C5313 C5312 1.391 . S
C5313 C5317 1.376 . S
C5314 C5312 1.394 . S
C5314 C5315 1.369 . S
C5314 C5318 1.531 . S
C5315 C5314 1.369 . S
C5315 C5316 1.410 . S
C5315 C5323 1.503 . S
C5316 C5315 1.410 . S
C5316 C5317 1.392 . S
C5316 C5319 1.511 . S
C5317 C5313 1.376 . S
C5317 C5316 1.392 . S
C5317 H5329 0.929 . S
C5318 C5314 1.531 . S
C5318 H5330 0.960 . S
C5318 H5331 0.962 . S
C5318 H5332 0.960 . S
C5319 C5316 1.511 . S
C5319 H5333 0.961 . S
C5319 H5334 0.961 . S
C5319 H5335 0.961 . S
C5320 C5321 1.370 . S
C5320 C5322 1.363 . S
C5320 H5336 0.931 . S
C5321 C5320 1.370 . S
C5321 C5325 1.408 . S
C5322 C5320 1.363 . S
C5322 C5323 1.370 . S
C5322 C5326 1.524 . S
C5323 C5315 1.503 . S
C5323 C5322 1.370 . S
C5323 C5324 1.403 . S
C5324 C5323 1.403 . S
C5324 C5325 1.404 . S
C5324 C5327 1.539 . S
C5325 C5321 1.408 . S
C5325 C5324 1.404 . S
C5325 H5337 0.930 . S
C5326 C5322 1.524 . S
C5326 H5338 0.956 . S
C5326 H5339 0.961 . S
C5326 H5340 0.961 . S
C5327 C5324 1.539 . S
C5327 H5341 0.958 . S
C5327 H5342 0.961 . S
C5327 H5343 0.960 . S
H5328 C5312 0.931 . S
H5329 C5317 0.929 . S
H5330 C5318 0.960 . S
H5331 C5318 0.962 . S
H5332 C5318 0.960 . S
H5333 C5319 0.961 . S
H5334 C5319 0.961 . S
H5335 C5319 0.961 . S
H5336 C5320 0.931 . S
H5337 C5325 0.930 . S
H5338 C5326 0.956 . S
H5339 C5326 0.961 . S
H5340 C5326 0.961 . S
H5341 C5327 0.958 . S
H5342 C5327 0.961 . S
H5343 C5327 0.960 . S
C5344 C5345 1.391 . S
C5344 C5346 1.394 . S
C5344 H5360 0.931 . S
C5345 C5344 1.391 . S
C5345 C5349 1.376 . S
C5346 C5344 1.394 . S
C5346 C5347 1.369 . S
C5346 C5350 1.531 . S
C5347 C5346 1.369 . S
C5347 C5348 1.410 . S
C5347 C5355 1.503 . S
C5348 C5347 1.410 . S
C5348 C5349 1.392 . S
C5348 C5351 1.511 . S
C5349 C5345 1.376 . S
C5349 C5348 1.392 . S
C5349 H5361 0.929 . S
C5350 C5346 1.531 . S
C5350 H5362 0.960 . S
C5350 H5363 0.962 . S
C5350 H5364 0.960 . S
C5351 C5348 1.511 . S
C5351 H5365 0.961 . S
C5351 H5366 0.961 . S
C5351 H5367 0.961 . S
C5352 C5353 1.370 . S
C5352 C5354 1.363 . S
C5352 H5368 0.931 . S
C5353 C5352 1.370 . S
C5353 C5357 1.408 . S
C5354 C5352 1.363 . S
C5354 C5355 1.370 . S
C5354 C5358 1.524 . S
C5355 C5347 1.503 . S
C5355 C5354 1.370 . S
C5355 C5356 1.403 . S
C5356 C5355 1.403 . S
C5356 C5357 1.404 . S
C5356 C5359 1.539 . S
C5357 C5353 1.408 . S
C5357 C5356 1.404 . S
C5357 H5369 0.930 . S
C5358 C5354 1.524 . S
C5358 H5370 0.956 . S
C5358 H5371 0.961 . S
C5358 H5372 0.961 . S
C5359 C5356 1.539 . S
C5359 H5373 0.958 . S
C5359 H5374 0.961 . S
C5359 H5375 0.960 . S
H5360 C5344 0.931 . S
H5361 C5349 0.929 . S
H5362 C5350 0.960 . S
H5363 C5350 0.962 . S
H5364 C5350 0.960 . S
H5365 C5351 0.961 . S
H5366 C5351 0.961 . S
H5367 C5351 0.961 . S
H5368 C5352 0.931 . S
H5369 C5357 0.930 . S
H5370 C5358 0.956 . S
H5371 C5358 0.961 . S
H5372 C5358 0.961 . S
H5373 C5359 0.958 . S
H5374 C5359 0.961 . S
H5375 C5359 0.960 . S
C5376 C5377 1.391 . S
C5376 C5378 1.394 . S
C5376 H5392 0.931 . S
C5377 C5376 1.391 . S
C5377 C5381 1.376 1_655 S
C5378 C5376 1.394 . S
C5378 C5379 1.370 1_655 S
C5378 C5382 1.531 . S
C5379 C5378 1.370 1_455 S
C5379 C5380 1.409 . S
C5379 C5387 1.503 . S
C5380 C5379 1.409 . S
C5380 C5381 1.392 . S
C5380 C5383 1.511 . S
C5381 C5377 1.376 1_455 S
C5381 C5380 1.392 . S
C5381 H5393 0.929 . S
C5382 C5378 1.531 . S
C5382 H5394 0.960 . S
C5382 H5395 0.962 . S
C5382 H5396 0.960 . S
C5383 C5380 1.511 . S
C5383 H5397 0.961 . S
C5383 H5398 0.961 . S
C5383 H5399 0.961 . S
C5384 C5385 1.370 . S
C5384 C5386 1.363 . S
C5384 H5400 0.931 . S
C5385 C5384 1.370 . S
C5385 C5389 1.408 . S
C5386 C5384 1.363 . S
C5386 C5387 1.370 . S
C5386 C5390 1.524 . S
C5387 C5379 1.503 . S
C5387 C5386 1.370 . S
C5387 C5388 1.403 . S
C5388 C5387 1.403 . S
C5388 C5389 1.404 . S
C5388 C5391 1.539 . S
C5389 C5385 1.408 . S
C5389 C5388 1.404 . S
C5389 H5401 0.930 . S
C5390 C5386 1.524 . S
C5390 H5402 0.956 1_455 S
C5390 H5403 0.961 . S
C5390 H5404 0.961 . S
C5391 C5388 1.539 . S
C5391 H5405 0.958 1_455 S
C5391 H5406 0.961 . S
C5391 H5407 0.960 . S
H5392 C5376 0.931 . S
H5393 C5381 0.929 . S
H5394 C5382 0.960 . S
H5395 C5382 0.962 . S
H5396 C5382 0.960 . S
H5397 C5383 0.961 . S
H5398 C5383 0.961 . S
H5399 C5383 0.961 . S
H5400 C5384 0.931 . S
H5401 C5389 0.930 . S
H5402 C5390 0.956 1_655 S
H5403 C5390 0.961 . S
H5404 C5390 0.961 . S
H5405 C5391 0.958 1_655 S
H5406 C5391 0.961 . S
H5407 C5391 0.960 . S
C5408 C5409 1.391 . S
C5408 C5410 1.394 . S
C5408 H5424 0.931 . S
C5409 C5408 1.391 . S
C5409 C5413 1.376 . S
C5410 C5408 1.394 . S
C5410 C5411 1.369 . S
C5410 C5414 1.531 . S
C5411 C5410 1.369 . S
C5411 C5412 1.410 . S
C5411 C5419 1.503 . S
C5412 C5411 1.410 . S
C5412 C5413 1.392 . S
C5412 C5415 1.511 . S
C5413 C5409 1.376 . S
C5413 C5412 1.392 . S
C5413 H5425 0.929 . S
C5414 C5410 1.531 . S
C5414 H5426 0.960 . S
C5414 H5427 0.962 . S
C5414 H5428 0.960 . S
C5415 C5412 1.511 . S
C5415 H5429 0.961 . S
C5415 H5430 0.961 . S
C5415 H5431 0.961 . S
C5416 C5417 1.370 . S
C5416 C5418 1.363 . S
C5416 H5432 0.931 . S
C5417 C5416 1.370 . S
C5417 C5421 1.408 . S
C5418 C5416 1.363 . S
C5418 C5419 1.370 . S
C5418 C5422 1.524 . S
C5419 C5411 1.503 . S
C5419 C5418 1.370 . S
C5419 C5420 1.403 . S
C5420 C5419 1.403 . S
C5420 C5421 1.404 . S
C5420 C5423 1.539 . S
C5421 C5417 1.408 . S
C5421 C5420 1.404 . S
C5421 H5433 0.930 . S
C5422 C5418 1.524 . S
C5422 H5434 0.956 . S
C5422 H5435 0.961 . S
C5422 H5436 0.961 . S
C5423 C5420 1.539 . S
C5423 H5437 0.958 . S
C5423 H5438 0.961 . S
C5423 H5439 0.960 . S
H5424 C5408 0.931 . S
H5425 C5413 0.929 . S
H5426 C5414 0.960 . S
H5427 C5414 0.962 . S
H5428 C5414 0.960 . S
H5429 C5415 0.961 . S
H5430 C5415 0.961 . S
H5431 C5415 0.961 . S
H5432 C5416 0.931 . S
H5433 C5421 0.930 . S
H5434 C5422 0.956 . S
H5435 C5422 0.961 . S
H5436 C5422 0.961 . S
H5437 C5423 0.958 . S
H5438 C5423 0.961 . S
H5439 C5423 0.960 . S
C5440 C5441 1.391 . S
C5440 C5442 1.394 . S
C5440 H5456 0.931 . S
C5441 C5440 1.391 . S
C5441 C5445 1.376 . S
C5442 C5440 1.394 . S
C5442 C5443 1.369 . S
C5442 C5446 1.531 . S
C5443 C5442 1.369 . S
C5443 C5444 1.410 . S
C5443 C5451 1.503 . S
C5444 C5443 1.410 . S
C5444 C5445 1.392 . S
C5444 C5447 1.511 . S
C5445 C5441 1.376 . S
C5445 C5444 1.392 . S
C5445 H5457 0.929 . S
C5446 C5442 1.531 . S
C5446 H5458 0.960 . S
C5446 H5459 0.962 . S
C5446 H5460 0.960 . S
C5447 C5444 1.511 . S
C5447 H5461 0.961 . S
C5447 H5462 0.961 . S
C5447 H5463 0.961 . S
C5448 C5449 1.370 . S
C5448 C5450 1.363 . S
C5448 H5464 0.931 . S
C5449 C5448 1.370 . S
C5449 C5453 1.408 . S
C5450 C5448 1.363 . S
C5450 C5451 1.370 . S
C5450 C5454 1.524 . S
C5451 C5443 1.503 . S
C5451 C5450 1.370 . S
C5451 C5452 1.403 . S
C5452 C5451 1.403 . S
C5452 C5453 1.404 . S
C5452 C5455 1.539 . S
C5453 C5449 1.408 . S
C5453 C5452 1.404 . S
C5453 H5465 0.930 . S
C5454 C5450 1.524 . S
C5454 H5466 0.956 . S
C5454 H5467 0.961 . S
C5454 H5468 0.961 . S
C5455 C5452 1.539 . S
C5455 H5469 0.958 . S
C5455 H5470 0.961 . S
C5455 H5471 0.960 . S
H5456 C5440 0.931 . S
H5457 C5445 0.929 . S
H5458 C5446 0.960 . S
H5459 C5446 0.962 . S
H5460 C5446 0.960 . S
H5461 C5447 0.961 . S
H5462 C5447 0.961 . S
H5463 C5447 0.961 . S
H5464 C5448 0.931 . S
H5465 C5453 0.930 . S
H5466 C5454 0.956 . S
H5467 C5454 0.961 . S
H5468 C5454 0.961 . S
H5469 C5455 0.958 . S
H5470 C5455 0.961 . S
H5471 C5455 0.960 . S
C5472 C5473 1.391 . S
C5472 C5474 1.394 . S
C5472 H5488 0.931 . S
C5473 C5472 1.391 . S
C5473 C5477 1.376 . S
C5474 C5472 1.394 . S
C5474 C5475 1.369 . S
C5474 C5478 1.531 . S
C5475 C5474 1.369 . S
C5475 C5476 1.410 . S
C5475 C5483 1.503 . S
C5476 C5475 1.410 . S
C5476 C5477 1.392 . S
C5476 C5479 1.511 . S
C5477 C5473 1.376 . S
C5477 C5476 1.392 . S
C5477 H5489 0.929 . S
C5478 C5474 1.531 . S
C5478 H5490 0.960 . S
C5478 H5491 0.962 . S
C5478 H5492 0.960 . S
C5479 C5476 1.511 . S
C5479 H5493 0.961 . S
C5479 H5494 0.961 . S
C5479 H5495 0.961 . S
C5480 C5481 1.370 . S
C5480 C5482 1.363 . S
C5480 H5496 0.931 . S
C5481 C5480 1.370 . S
C5481 C5485 1.408 . S
C5482 C5480 1.363 . S
C5482 C5483 1.370 . S
C5482 C5486 1.524 . S
C5483 C5475 1.503 . S
C5483 C5482 1.370 . S
C5483 C5484 1.403 . S
C5484 C5483 1.403 . S
C5484 C5485 1.404 . S
C5484 C5487 1.539 . S
C5485 C5481 1.408 . S
C5485 C5484 1.404 . S
C5485 H5497 0.930 . S
C5486 C5482 1.524 . S
C5486 H5498 0.956 . S
C5486 H5499 0.961 . S
C5486 H5500 0.961 . S
C5487 C5484 1.539 . S
C5487 H5501 0.958 . S
C5487 H5502 0.961 . S
C5487 H5503 0.960 . S
H5488 C5472 0.931 . S
H5489 C5477 0.929 . S
H5490 C5478 0.960 . S
H5491 C5478 0.962 . S
H5492 C5478 0.960 . S
H5493 C5479 0.961 . S
H5494 C5479 0.961 . S
H5495 C5479 0.961 . S
H5496 C5480 0.931 . S
H5497 C5485 0.930 . S
H5498 C5486 0.956 . S
H5499 C5486 0.961 . S
H5500 C5486 0.961 . S
H5501 C5487 0.958 . S
H5502 C5487 0.961 . S
H5503 C5487 0.960 . S
C5504 C5505 1.391 . S
C5504 C5506 1.394 . S
C5504 H5520 0.931 . S
C5505 C5504 1.391 . S
C5505 C5509 1.376 . S
C5506 C5504 1.394 . S
C5506 C5507 1.369 . S
C5506 C5510 1.531 . S
C5507 C5506 1.369 . S
C5507 C5508 1.410 1_655 S
C5507 C5515 1.503 . S
C5508 C5507 1.410 1_455 S
C5508 C5509 1.392 1_455 S
C5508 C5511 1.511 . S
C5509 C5505 1.376 . S
C5509 C5508 1.392 1_655 S
C5509 H5521 0.929 1_655 S
C5510 C5506 1.531 . S
C5510 H5522 0.960 . S
C5510 H5523 0.962 . S
C5510 H5524 0.960 . S
C5511 C5508 1.511 . S
C5511 H5525 0.961 . S
C5511 H5526 0.961 . S
C5511 H5527 0.961 . S
C5512 C5513 1.370 . S
C5512 C5514 1.363 1_455 S
C5512 H5528 0.931 . S
C5513 C5512 1.370 . S
C5513 C5517 1.408 . S
C5514 C5512 1.363 1_655 S
C5514 C5515 1.371 . S
C5514 C5518 1.524 . S
C5515 C5507 1.503 . S
C5515 C5514 1.371 . S
C5515 C5516 1.403 . S
C5516 C5515 1.403 . S
C5516 C5517 1.404 1_655 S
C5516 C5519 1.539 . S
C5517 C5513 1.408 . S
C5517 C5516 1.404 1_455 S
C5517 H5529 0.930 . S
C5518 C5514 1.524 . S
C5518 H5530 0.956 . S
C5518 H5531 0.961 1_655 S
C5518 H5532 0.961 1_655 S
C5519 C5516 1.539 . S
C5519 H5533 0.958 . S
C5519 H5534 0.938 1_655 S
C5519 H5535 0.960 . S
H5520 C5504 0.931 . S
H5521 C5509 0.929 1_455 S
H5522 C5510 0.960 . S
H5523 C5510 0.962 . S
H5524 C5510 0.960 . S
H5525 C5511 0.961 . S
H5526 C5511 0.961 . S
H5527 C5511 0.961 . S
H5528 C5512 0.931 . S
H5529 C5517 0.930 . S
H5530 C5518 0.956 . S
H5531 C5518 0.961 1_455 S
H5532 C5518 0.961 1_455 S
H5533 C5519 0.958 . S
H5534 C5519 0.938 1_455 S
H5535 C5519 0.960 . S
C5536 C5537 1.391 . S
C5536 C5538 1.394 . S
C5536 H5552 0.931 . S
C5537 C5536 1.391 . S
C5537 C5541 1.376 . S
C5538 C5536 1.394 . S
C5538 C5539 1.369 . S
C5538 C5542 1.531 . S
C5539 C5538 1.369 . S
C5539 C5540 1.410 . S
C5539 C5547 1.503 . S
C5540 C5539 1.410 . S
C5540 C5541 1.392 . S
C5540 C5543 1.511 . S
C5541 C5537 1.376 . S
C5541 C5540 1.392 . S
C5541 H5553 0.929 . S
C5542 C5538 1.531 . S
C5542 H5554 0.960 . S
C5542 H5555 0.962 . S
C5542 H5556 0.960 . S
C5543 C5540 1.511 . S
C5543 H5557 0.961 . S
C5543 H5558 0.961 . S
C5543 H5559 0.961 . S
C5544 C5545 1.370 . S
C5544 C5546 1.363 . S
C5544 H5560 0.931 . S
C5545 C5544 1.370 . S
C5545 C5549 1.408 . S
C5546 C5544 1.363 . S
C5546 C5547 1.370 . S
C5546 C5550 1.524 . S
C5547 C5539 1.503 . S
C5547 C5546 1.370 . S
C5547 C5548 1.403 . S
C5548 C5547 1.403 . S
C5548 C5549 1.404 . S
C5548 C5551 1.539 . S
C5549 C5545 1.408 . S
C5549 C5548 1.404 . S
C5549 H5561 0.930 . S
C5550 C5546 1.524 . S
C5550 H5562 0.956 . S
C5550 H5563 0.961 . S
C5550 H5564 0.961 . S
C5551 C5548 1.539 . S
C5551 H5565 0.958 . S
C5551 H5566 0.961 . S
C5551 H5567 0.960 . S
H5552 C5536 0.931 . S
H5553 C5541 0.929 . S
H5554 C5542 0.960 . S
H5555 C5542 0.962 . S
H5556 C5542 0.960 . S
H5557 C5543 0.961 . S
H5558 C5543 0.961 . S
H5559 C5543 0.961 . S
H5560 C5544 0.931 . S
H5561 C5549 0.930 . S
H5562 C5550 0.956 . S
H5563 C5550 0.961 . S
H5564 C5550 0.961 . S
H5565 C5551 0.958 . S
H5566 C5551 0.961 . S
H5567 C5551 0.960 . S
C5568 C5569 1.391 . S
C5568 C5570 1.394 . S
C5568 H5584 0.931 . S
C5569 C5568 1.391 . S
C5569 C5573 1.376 . S
C5570 C5568 1.394 . S
C5570 C5571 1.369 . S
C5570 C5574 1.531 . S
C5571 C5570 1.369 . S
C5571 C5572 1.410 . S
C5571 C5579 1.503 . S
C5572 C5571 1.410 . S
C5572 C5573 1.392 . S
C5572 C5575 1.511 . S
C5573 C5569 1.376 . S
C5573 C5572 1.392 . S
C5573 H5585 0.929 . S
C5574 C5570 1.531 . S
C5574 H5586 0.960 . S
C5574 H5587 0.962 . S
C5574 H5588 0.960 . S
C5575 C5572 1.511 . S
C5575 H5589 0.961 . S
C5575 H5590 0.961 . S
C5575 H5591 0.961 . S
C5576 C5577 1.370 . S
C5576 C5578 1.363 . S
C5576 H5592 0.931 . S
C5577 C5576 1.370 . S
C5577 C5581 1.408 . S
C5578 C5576 1.363 . S
C5578 C5579 1.370 . S
C5578 C5582 1.524 . S
C5579 C5571 1.503 . S
C5579 C5578 1.370 . S
C5579 C5580 1.403 . S
C5580 C5579 1.403 . S
C5580 C5581 1.404 . S
C5580 C5583 1.539 . S
C5581 C5577 1.408 . S
C5581 C5580 1.404 . S
C5581 H5593 0.930 . S
C5582 C5578 1.524 . S
C5582 H5594 0.956 . S
C5582 H5595 0.961 . S
C5582 H5596 0.961 . S
C5583 C5580 1.539 . S
C5583 H5597 0.958 . S
C5583 H5598 0.961 . S
C5583 H5599 0.960 . S
H5584 C5568 0.931 . S
H5585 C5573 0.929 . S
H5586 C5574 0.960 . S
H5587 C5574 0.962 . S
H5588 C5574 0.960 . S
H5589 C5575 0.961 . S
H5590 C5575 0.961 . S
H5591 C5575 0.961 . S
H5592 C5576 0.931 . S
H5593 C5581 0.930 . S
H5594 C5582 0.956 . S
H5595 C5582 0.961 . S
H5596 C5582 0.961 . S
H5597 C5583 0.958 . S
H5598 C5583 0.961 . S
H5599 C5583 0.960 . S
C5600 C5601 1.391 . S
C5600 C5602 1.394 . S
C5600 H5616 0.931 . S
C5601 C5600 1.391 . S
C5601 C5605 1.376 . S
C5602 C5600 1.394 . S
C5602 C5603 1.369 . S
C5602 C5606 1.531 . S
C5603 C5602 1.369 . S
C5603 C5604 1.410 . S
C5603 C5611 1.503 . S
C5604 C5603 1.410 . S
C5604 C5605 1.392 . S
C5604 C5607 1.511 . S
C5605 C5601 1.376 . S
C5605 C5604 1.392 . S
C5605 H5617 0.929 . S
C5606 C5602 1.531 . S
C5606 H5618 0.960 1_565 S
C5606 H5619 0.962 . S
C5606 H5620 0.960 . S
C5607 C5604 1.511 . S
C5607 H5621 0.961 . S
C5607 H5622 0.961 . S
C5607 H5623 0.961 . S
C5608 C5609 1.379 . S
C5608 C5610 1.363 . S
C5608 H5624 0.931 . S
C5609 C5608 1.379 . S
C5609 C5613 1.404 1_565 S
C5610 C5608 1.363 . S
C5610 C5611 1.370 . S
C5610 C5614 1.524 . S
C5611 C5603 1.503 . S
C5611 C5610 1.370 . S
C5611 C5612 1.403 . S
C5612 C5611 1.403 . S
C5612 C5613 1.404 1_565 S
C5612 C5615 1.539 . S
C5613 C5609 1.404 1_545 S
C5613 C5612 1.404 1_545 S
C5613 H5625 0.930 . S
C5614 C5610 1.524 . S
C5614 H5626 0.956 . S
C5614 H5627 0.961 . S
C5614 H5628 0.961 . S
C5615 C5612 1.539 . S
C5615 H5629 0.958 1_565 S
C5615 H5630 0.961 . S
C5615 H5631 0.960 . S
H5616 C5600 0.931 . S
H5617 C5605 0.929 . S
H5618 C5606 0.960 1_545 S
H5619 C5606 0.962 . S
H5620 C5606 0.960 . S
H5621 C5607 0.961 . S
H5622 C5607 0.961 . S
H5623 C5607 0.961 . S
H5624 C5608 0.931 . S
H5625 C5613 0.930 . S
H5626 C5614 0.956 . S
H5627 C5614 0.961 . S
H5628 C5614 0.961 . S
H5629 C5615 0.958 1_545 S
H5630 C5615 0.961 . S
H5631 C5615 0.960 . S
C5632 C5633 1.391 . S
C5632 C5634 1.394 . S
C5632 H5648 0.931 . S
C5633 C5632 1.391 . S
C5633 C5637 1.376 . S
C5634 C5632 1.394 . S
C5634 C5635 1.369 . S
C5634 C5638 1.531 . S
C5635 C5634 1.369 . S
C5635 C5636 1.410 . S
C5635 C5643 1.503 . S
C5636 C5635 1.410 . S
C5636 C5637 1.392 . S
C5636 C5639 1.511 . S
C5637 C5633 1.376 . S
C5637 C5636 1.392 . S
C5637 H5649 0.929 . S
C5638 C5634 1.531 . S
C5638 H5650 0.960 . S
C5638 H5651 0.962 . S
C5638 H5652 0.960 . S
C5639 C5636 1.511 . S
C5639 H5653 0.961 . S
C5639 H5654 0.961 . S
C5639 H5655 0.961 . S
C5640 C5641 1.370 . S
C5640 C5642 1.363 . S
C5640 H5656 0.931 . S
C5641 C5640 1.370 . S
C5641 C5645 1.408 . S
C5642 C5640 1.363 . S
C5642 C5643 1.370 . S
C5642 C5646 1.524 . S
C5643 C5635 1.503 . S
C5643 C5642 1.370 . S
C5643 C5644 1.403 . S
C5644 C5643 1.403 . S
C5644 C5645 1.404 . S
C5644 C5647 1.539 . S
C5645 C5641 1.408 . S
C5645 C5644 1.404 . S
C5645 H5657 0.930 . S
C5646 C5642 1.524 . S
C5646 H5658 0.956 . S
C5646 H5659 0.961 . S
C5646 H5660 0.961 . S
C5647 C5644 1.539 . S
C5647 H5661 0.958 . S
C5647 H5662 0.961 . S
C5647 H5663 0.960 . S
H5648 C5632 0.931 . S
H5649 C5637 0.929 . S
H5650 C5638 0.960 . S
H5651 C5638 0.962 . S
H5652 C5638 0.960 . S
H5653 C5639 0.961 . S
H5654 C5639 0.961 . S
H5655 C5639 0.961 . S
H5656 C5640 0.931 . S
H5657 C5645 0.930 . S
H5658 C5646 0.956 . S
H5659 C5646 0.961 . S
H5660 C5646 0.961 . S
H5661 C5647 0.958 . S
H5662 C5647 0.961 . S
H5663 C5647 0.960 . S
C5664 C5665 1.391 . S
C5664 C5666 1.394 . S
C5664 H5680 0.931 . S
C5665 C5664 1.391 . S
C5665 C5669 1.376 . S
C5666 C5664 1.394 . S
C5666 C5667 1.369 . S
C5666 C5670 1.531 . S
C5667 C5666 1.369 . S
C5667 C5668 1.410 . S
C5667 C5675 1.503 . S
C5668 C5667 1.410 . S
C5668 C5669 1.392 . S
C5668 C5671 1.511 . S
C5669 C5665 1.376 . S
C5669 C5668 1.392 . S
C5669 H5681 0.929 . S
C5670 C5666 1.531 . S
C5670 H5682 0.960 . S
C5670 H5683 0.969 . S
C5670 H5684 0.960 1_554 S
C5671 C5668 1.511 . S
C5671 H5685 0.961 . S
C5671 H5686 0.961 . S
C5671 H5687 0.961 . S
C5672 C5673 1.370 . S
C5672 C5674 1.363 . S
C5672 H5688 0.931 . S
C5673 C5672 1.370 . S
C5673 C5677 1.408 . S
C5674 C5672 1.363 . S
C5674 C5675 1.370 . S
C5674 C5678 1.524 . S
C5675 C5667 1.503 . S
C5675 C5674 1.370 . S
C5675 C5676 1.403 . S
C5676 C5675 1.403 . S
C5676 C5677 1.404 . S
C5676 C5679 1.539 . S
C5677 C5673 1.408 . S
C5677 C5676 1.404 . S
C5677 H5689 0.930 . S
C5678 C5674 1.524 . S
C5678 H5690 0.956 . S
C5678 H5691 0.961 . S
C5678 H5692 0.961 . S
C5679 C5676 1.539 . S
C5679 H5693 0.972 . S
C5679 H5694 0.961 1_545 S
C5679 H5695 0.960 . S
H5680 C5664 0.931 . S
H5681 C5669 0.929 . S
H5682 C5670 0.960 . S
H5683 C5670 0.969 . S
H5684 C5670 0.960 1_556 S
H5685 C5671 0.961 . S
H5686 C5671 0.961 . S
H5687 C5671 0.961 . S
H5688 C5672 0.931 . S
H5689 C5677 0.930 . S
H5690 C5678 0.956 . S
H5691 C5678 0.961 . S
H5692 C5678 0.961 . S
H5693 C5679 0.972 . S
H5694 C5679 0.961 1_565 S
H5695 C5679 0.960 . S
C5696 C5697 1.391 . S
C5696 C5698 1.394 . S
C5696 H5712 0.931 . S
C5697 C5696 1.391 . S
C5697 C5701 1.376 . S
C5698 C5696 1.394 . S
C5698 C5699 1.369 . S
C5698 C5702 1.531 . S
C5699 C5698 1.369 . S
C5699 C5700 1.410 . S
C5699 C5707 1.503 . S
C5700 C5699 1.410 . S
C5700 C5701 1.392 . S
C5700 C5703 1.511 . S
C5701 C5697 1.376 . S
C5701 C5700 1.392 . S
C5701 H5713 0.929 . S
C5702 C5698 1.531 . S
C5702 H5714 0.960 . S
C5702 H5715 0.962 . S
C5702 H5716 0.960 . S
C5703 C5700 1.511 . S
C5703 H5717 0.961 . S
C5703 H5718 0.961 . S
C5703 H5719 0.961 . S
C5704 C5705 1.370 . S
C5704 C5706 1.363 . S
C5704 H5720 0.931 . S
C5705 C5704 1.370 . S
C5705 C5709 1.408 . S
C5706 C5704 1.363 . S
C5706 C5707 1.370 . S
C5706 C5710 1.524 . S
C5707 C5699 1.503 . S
C5707 C5706 1.370 . S
C5707 C5708 1.403 . S
C5708 C5707 1.403 . S
C5708 C5709 1.404 . S
C5708 C5711 1.539 . S
C5709 C5705 1.408 . S
C5709 C5708 1.404 . S
C5709 H5721 0.930 . S
C5710 C5706 1.524 . S
C5710 H5722 0.956 . S
C5710 H5723 0.961 . S
C5710 H5724 0.961 . S
C5711 C5708 1.539 . S
C5711 H5725 0.958 . S
C5711 H5726 0.961 . S
C5711 H5727 0.960 . S
H5712 C5696 0.931 . S
H5713 C5701 0.929 . S
H5714 C5702 0.960 . S
H5715 C5702 0.962 . S
H5716 C5702 0.960 . S
H5717 C5703 0.961 . S
H5718 C5703 0.961 . S
H5719 C5703 0.961 . S
H5720 C5704 0.931 . S
H5721 C5709 0.930 . S
H5722 C5710 0.956 . S
H5723 C5710 0.961 . S
H5724 C5710 0.961 . S
H5725 C5711 0.958 . S
H5726 C5711 0.961 . S
H5727 C5711 0.960 . S
C5728 C5729 1.391 . S
C5728 C5730 1.394 . S
C5728 H5744 0.931 . S
C5729 C5728 1.391 . S
C5729 C5733 1.376 . S
C5730 C5728 1.394 . S
C5730 C5731 1.369 . S
C5730 C5734 1.531 . S
C5731 C5730 1.369 . S
C5731 C5732 1.410 . S
C5731 C5739 1.503 . S
C5732 C5731 1.410 . S
C5732 C5733 1.392 . S
C5732 C5735 1.511 . S
C5733 C5729 1.376 . S
C5733 C5732 1.392 . S
C5733 H5745 0.929 . S
C5734 C5730 1.531 . S
C5734 H5746 0.958 1_554 S
C5734 H5747 0.962 . S
C5734 H5748 0.960 . S
C5735 C5732 1.511 . S
C5735 H5749 0.961 . S
C5735 H5750 0.961 . S
C5735 H5751 0.961 1_554 S
C5736 C5737 1.370 . S
C5736 C5738 1.363 . S
C5736 H5752 0.931 . S
C5737 C5736 1.370 . S
C5737 C5741 1.408 1_554 S
C5738 C5736 1.363 . S
C5738 C5739 1.370 . S
C5738 C5742 1.524 . S
C5739 C5731 1.503 . S
C5739 C5738 1.370 . S
C5739 C5740 1.403 1_554 S
C5740 C5739 1.403 1_556 S
C5740 C5741 1.404 . S
C5740 C5743 1.539 . S
C5741 C5737 1.408 1_556 S
C5741 C5740 1.404 . S
C5741 H5753 0.930 . S
C5742 C5738 1.524 . S
C5742 H5754 0.956 . S
C5742 H5755 0.961 . S
C5742 H5756 0.961 . S
C5743 C5740 1.539 . S
C5743 H5757 0.958 . S
C5743 H5758 0.961 . S
C5743 H5759 0.960 . S
H5744 C5728 0.931 . S
H5745 C5733 0.929 . S
H5746 C5734 0.958 1_556 S
H5747 C5734 0.962 . S
H5748 C5734 0.960 . S
H5749 C5735 0.961 . S
H5750 C5735 0.961 . S
H5751 C5735 0.961 1_556 S
H5752 C5736 0.931 . S
H5753 C5741 0.930 . S
H5754 C5742 0.956 . S
H5755 C5742 0.961 . S
H5756 C5742 0.961 . S
H5757 C5743 0.958 . S
H5758 C5743 0.961 . S
H5759 C5743 0.960 . S
C5760 C5761 1.391 . S
C5760 C5762 1.394 . S
C5760 H5776 0.931 . S
C5761 C5760 1.391 . S
C5761 C5765 1.376 . S
C5762 C5760 1.394 . S
C5762 C5763 1.369 . S
C5762 C5766 1.531 . S
C5763 C5762 1.369 . S
C5763 C5764 1.410 . S
C5763 C5771 1.503 . S
C5764 C5763 1.410 . S
C5764 C5765 1.392 . S
C5764 C5767 1.511 . S
C5765 C5761 1.376 . S
C5765 C5764 1.392 . S
C5765 H5777 0.929 . S
C5766 C5762 1.531 . S
C5766 H5778 0.960 . S
C5766 H5779 0.962 . S
C5766 H5780 0.960 . S
C5767 C5764 1.511 . S
C5767 H5781 0.961 . S
C5767 H5782 0.961 . S
C5767 H5783 0.961 . S
C5768 C5769 1.370 . S
C5768 C5770 1.363 . S
C5768 H5784 0.931 . S
C5769 C5768 1.370 . S
C5769 C5773 1.408 . S
C5770 C5768 1.363 . S
C5770 C5771 1.370 . S
C5770 C5774 1.524 . S
C5771 C5763 1.503 . S
C5771 C5770 1.370 . S
C5771 C5772 1.403 . S
C5772 C5771 1.403 . S
C5772 C5773 1.404 . S
C5772 C5775 1.539 . S
C5773 C5769 1.408 . S
C5773 C5772 1.404 . S
C5773 H5785 0.930 . S
C5774 C5770 1.524 . S
C5774 H5786 0.956 . S
C5774 H5787 0.961 . S
C5774 H5788 0.961 . S
C5775 C5772 1.539 . S
C5775 H5789 0.958 . S
C5775 H5790 0.961 . S
C5775 H5791 0.960 . S
H5776 C5760 0.931 . S
H5777 C5765 0.929 . S
H5778 C5766 0.960 . S
H5779 C5766 0.962 . S
H5780 C5766 0.960 . S
H5781 C5767 0.961 . S
H5782 C5767 0.961 . S
H5783 C5767 0.961 . S
H5784 C5768 0.931 . S
H5785 C5773 0.930 . S
H5786 C5774 0.956 . S
H5787 C5774 0.961 . S
H5788 C5774 0.961 . S
H5789 C5775 0.958 . S
H5790 C5775 0.961 . S
H5791 C5775 0.960 . S
C5792 C5793 1.391 . S
C5792 C5794 1.394 . S
C5792 H5808 0.931 . S
C5793 C5792 1.391 . S
C5793 C5797 1.376 . S
C5794 C5792 1.394 . S
C5794 C5795 1.369 . S
C5794 C5798 1.531 . S
C5795 C5794 1.369 . S
C5795 C5796 1.410 . S
C5795 C5803 1.503 . S
C5796 C5795 1.410 . S
C5796 C5797 1.392 . S
C5796 C5799 1.511 . S
C5797 C5793 1.376 . S
C5797 C5796 1.392 . S
C5797 H5809 0.929 . S
C5798 C5794 1.531 . S
C5798 H5810 0.960 . S
C5798 H5811 0.962 . S
C5798 H5812 0.960 . S
C5799 C5796 1.511 . S
C5799 H5813 0.961 . S
C5799 H5814 0.961 . S
C5799 H5815 0.961 . S
C5800 C5801 1.370 . S
C5800 C5802 1.363 . S
C5800 H5816 0.931 . S
C5801 C5800 1.370 . S
C5801 C5805 1.408 . S
C5802 C5800 1.363 . S
C5802 C5803 1.370 . S
C5802 C5806 1.524 . S
C5803 C5795 1.503 . S
C5803 C5802 1.370 . S
C5803 C5804 1.403 . S
C5804 C5803 1.403 . S
C5804 C5805 1.404 . S
C5804 C5807 1.539 . S
C5805 C5801 1.408 . S
C5805 C5804 1.404 . S
C5805 H5817 0.930 . S
C5806 C5802 1.524 . S
C5806 H5818 0.956 . S
C5806 H5819 0.961 . S
C5806 H5820 0.961 . S
C5807 C5804 1.539 . S
C5807 H5821 0.958 . S
C5807 H5822 0.961 . S
C5807 H5823 0.960 . S
H5808 C5792 0.931 . S
H5809 C5797 0.929 . S
H5810 C5798 0.960 . S
H5811 C5798 0.962 . S
H5812 C5798 0.960 . S
H5813 C5799 0.961 . S
H5814 C5799 0.961 . S
H5815 C5799 0.961 . S
H5816 C5800 0.931 . S
H5817 C5805 0.930 . S
H5818 C5806 0.956 . S
H5819 C5806 0.961 . S
H5820 C5806 0.961 . S
H5821 C5807 0.958 . S
H5822 C5807 0.961 . S
H5823 C5807 0.960 . S
C2753 C665 2.027 . S
C2761 C2143 2.063 . S
C2785 C381 1.718 . S
C2793 C2154 1.722 . S
C2817 C460 1.490 . S
C2825 C2223 1.519 . S
C2857 C2236 1.187 . S
C2849 C585 1.209 . S
C2881 C108 2.464 . S
C2889 C2292 2.436 . S
C2921 C2343 2.048 . S
C2913 C196 1.996 . S
C2953 C2372 2.382 . S
C2945 C313 2.379 . S
C2977 C49 2.384 . S
C2985 C2423 2.376 . S
C3017 C2114 1.005 . S
C3009 C1457 1.008 . S
C3041 C1545 0.884 . S
C3049 C2156 0.814 . S
C3081 C2194 1.035 . S
C3073 C1721 1.019 . S
C3113 C2263 1.695 . S
C3105 C1113 1.610 . S
C3137 C1428 0.545 . S
C3145 C2297 0.547 . S
C3177 C2314 1.339 . S
C3169 C1516 1.358 . S
C3209 C2377 0.285 . S
C3201 C1692 0.316 . S
C3241 C2394 2.064 . S
C3233 C1085 2.104 . S
C3273 C2116 1.525 . S
C3265 C988 1.583 . S
C3297 C1817 1.572 . S
C3305 C2455 1.532 . S
C3337 C2476 1.353 . S
C3329 C2081 1.369 . S
C3369 C2535 0.427 . S
C3361 C1993 0.318 . S
C3393 C761 0.922 . S
C3401 C2396 0.852 . S
C3425 C821 1.328 . S
C3433 C2196 1.278 . S
C3457 C2053 0.903 . S
C3465 C2554 0.926 . S
C3497 C2623 0.861 . S
C3489 C1868 0.850 . S
C3529 C2132 2.048 . S
C3521 C372 2.035 . S
C3561 C2615 1.716 . S
C3553 C645 1.691 . S
C3585 C577 1.519 . S
C3593 C2212 1.522 . S
C3617 C497 1.200 . S
C3625 C2577 1.184 . S
C3657 C2303 2.434 . S
C3649 C57 2.457 . S
C3681 C293 2.006 . S
C3689 C2492 2.043 . S
C3721 C2383 2.374 1_556 S
C3713 C205 2.368 . S
C3753 C2652 2.371 . S
C3745 C145 2.371 . S
C3785 C2135 1.012 . S
C3777 C909 1.004 . S
C3817 C2617 0.824 . S
C3809 C1956 0.835 . S
C3841 C724 1.029 . S
C3849 C2215 1.018 . S
C3873 C1780 1.619 . S
C3881 C2572 1.685 . S
C3905 C937 0.589 . S
C3913 C2276 0.516 . S
C3945 C2495 1.344 . S
C3937 C1985 1.354 . S
C3969 C753 0.195 . S
C3977 C2356 0.257 . S
C4001 C1809 2.073 . S
C4009 C2655 2.069 . S
C4033 C1173 1.577 . S
C4041 C2137 1.519 1_554 S
C4065 C1105 1.556 . S
C4073 C2434 1.538 . S
C4097 C1633 1.393 . S
C4105 C2337 1.331 . S
C4129 C1553 0.289 . S
C4137 C2514 0.407 . S
C4169 C2657 0.883 . S
C4161 C1729 0.856 . S
C4193 C1340 1.330 . S
C4201 C2217 1.273 . S
C4233 C2255 0.921 . S
C4225 C1604 0.891 . S
C4265 C2172 0.876 . S
C4257 C1252 0.858 . S
C4289 C489 2.015 . S
C4297 C2703 2.057 . S
C4329 C2594 1.716 . S
C4321 C557 1.703 . S
C4353 C636 1.526 . S
C4361 C2743 1.528 . S
C4385 C409 1.212 . S
C4393 C2556 1.187 . S
C4417 C284 2.467 . S
C4425 C2452 2.440 . S
C4457 C2503 2.038 . S
C4449 C20 2.002 . S
C4489 C2532 2.381 . S
C4481 C137 2.378 . S
C4521 C2663 2.375 . S
C4513 C225 2.368 . S
C4553 C2674 1.013 . S
C4545 C1641 1.009 . S
C4577 C1193 0.810 . S
C4585 C2596 0.863 . S
C4617 C2714 1.034 . S
C4609 C1289 1.058 . S
C4649 C2583 1.694 . S
C4641 C1377 1.609 . S
C4681 C2457 0.547 . S
C4673 C1613 0.546 . S
C4705 C1164 1.357 . S
C4713 C2474 1.343 . S
C4745 C2537 0.277 . S
C4737 C1261 0.346 . S
C4769 C1349 2.078 . S
C4777 C2634 2.080 . S
C4809 C2676 1.548 . S
C4801 C1965 1.560 . S
C4833 C849 1.561 . S
C4841 C2295 1.540 . S
C4873 C2316 1.332 . S
C4865 C929 1.408 . S
C4905 C2375 0.405 . S
C4897 C1017 0.300 . S
C4937 C2636 0.884 . S
C4929 C1897 0.872 . S
C4961 C1789 1.331 . S
C4969 C2716 1.275 . S
C5001 C2234 0.915 . S
C4993 C900 0.959 . S
C5033 C2183 0.861 . S
C5025 C733 0.850 . S
C5057 C548 2.047 . S
C5065 C2692 2.060 . S
C5097 C2175 1.720 . S
C5089 C469 1.707 . S
C5121 C401 1.490 . S
C5129 C2732 1.513 . S
C5153 C673 1.210 . S
C5161 C2257 1.193 . S
C5185 C233 2.462 . S
C5193 C2463 2.439 1_556 S
C5225 C2332 2.044 . S
C5217 C117 2.021 . S
C5249 C29 2.368 . S
C5257 C2543 2.374 . S
C5281 C321 2.363 . S
C5289 C2412 2.366 . S
C5321 C2695 1.006 . S
C5313 C2044 1.006 . S
C5345 C997 0.840 . S
C5353 C2177 0.818 . S
C5385 C2735 1.021 . S
C5377 C1877 1.019 . S
C5409 C812 1.645 . S
C5417 C2252 1.686 . S
C5441 C2073 0.475 . S
C5449 C2436 0.538 . S
C5481 C2335 1.346 . S
C5473 C1025 1.356 . S
C5505 C1905 0.305 . S
C5513 C2516 0.225 . S
C5545 C2415 2.064 . S
C5537 C841 2.080 . S
C5577 C2697 1.537 . S
C5569 C1525 1.560 . S
C5609 C2274 1.539 1_565 S
C5601 C1369 1.572 . S
C5633 C1465 1.369 . S
C5641 C2497 1.351 . S
C5673 C2354 0.347 . S
C5665 C1201 0.488 . S
C5697 C1281 0.846 . S
C5705 C2417 0.900 . S
C5729 C1076 1.303 . S
C5737 C2737 1.297 . S
C5769 C2575 0.912 . S
C5761 C1437 0.943 . S
C5801 C2612 0.876 . S
C5793 C1701 0.860 . S
