# Generated by pormake.
# Topology iac, (4,6)-cn, num edge types: 1
# Building blocks:
#     Node 0, Type 0, BuildingBlock: AZAVOO_clean_sbu_0, # of connection points: 4
#     Node 1, Type 0, BuildingBlock: AZAVOO_clean_sbu_0, # of connection points: 4
#     Node 2, Type 0, BuildingBlock: AZAVOO_clean_sbu_0, # of connection points: 4
#     Node 3, Type 0, BuildingBlock: AZAVOO_clean_sbu_0, # of connection points: 4
#     Node 4, Type 0, BuildingBlock: AZAVOO_clean_sbu_0, # of connection points: 4
#     Node 5, Type 0, BuildingBlock: AZAVOO_clean_sbu_0, # of connection points: 4
#     Node 6, Type 0, BuildingBlock: AZAVOO_clean_sbu_0, # of connection points: 4
#     Node 7, Type 0, BuildingBlock: AZAVOO_clean_sbu_0, # of connection points: 4
#     Node 8, Type 0, BuildingBlock: AZAVOO_clean_sbu_0, # of connection points: 4
#     Node 9, Type 0, BuildingBlock: AZAVOO_clean_sbu_0, # of connection points: 4
#     Node 10, Type 0, BuildingBlock: AZAVOO_clean_sbu_0, # of connection points: 4
#     Node 11, Type 0, BuildingBlock: AZAVOO_clean_sbu_0, # of connection points: 4
#     Node 12, Type 0, BuildingBlock: AZAVOO_clean_sbu_0, # of connection points: 4
#     Node 13, Type 0, BuildingBlock: AZAVOO_clean_sbu_0, # of connection points: 4
#     Node 14, Type 0, BuildingBlock: AZAVOO_clean_sbu_0, # of connection points: 4
#     Node 15, Type 0, BuildingBlock: AZAVOO_clean_sbu_0, # of connection points: 4
#     Node 16, Type 0, BuildingBlock: AZAVOO_clean_sbu_0, # of connection points: 4
#     Node 17, Type 0, BuildingBlock: AZAVOO_clean_sbu_0, # of connection points: 4
#     Node 18, Type 0, BuildingBlock: AZAVOO_clean_sbu_0, # of connection points: 4
#     Node 19, Type 0, BuildingBlock: AZAVOO_clean_sbu_0, # of connection points: 4
#     Node 20, Type 0, BuildingBlock: AZAVOO_clean_sbu_0, # of connection points: 4
#     Node 21, Type 0, BuildingBlock: AZAVOO_clean_sbu_0, # of connection points: 4
#     Node 22, Type 0, BuildingBlock: AZAVOO_clean_sbu_0, # of connection points: 4
#     Node 23, Type 0, BuildingBlock: AZAVOO_clean_sbu_0, # of connection points: 4
#     Node 24, Type 1, BuildingBlock: CIFDUS_clean_sbu_1, # of connection points: 6
#     Node 25, Type 1, BuildingBlock: CIFDUS_clean_sbu_1, # of connection points: 6
#     Node 26, Type 1, BuildingBlock: CIFDUS_clean_sbu_1, # of connection points: 6
#     Node 27, Type 1, BuildingBlock: CIFDUS_clean_sbu_1, # of connection points: 6
#     Node 28, Type 1, BuildingBlock: CIFDUS_clean_sbu_1, # of connection points: 6
#     Node 29, Type 1, BuildingBlock: CIFDUS_clean_sbu_1, # of connection points: 6
#     Node 30, Type 1, BuildingBlock: CIFDUS_clean_sbu_1, # of connection points: 6
#     Node 31, Type 1, BuildingBlock: CIFDUS_clean_sbu_1, # of connection points: 6
#     Node 32, Type 1, BuildingBlock: CIFDUS_clean_sbu_1, # of connection points: 6
#     Node 33, Type 1, BuildingBlock: CIFDUS_clean_sbu_1, # of connection points: 6
#     Node 34, Type 1, BuildingBlock: CIFDUS_clean_sbu_1, # of connection points: 6
#     Node 35, Type 1, BuildingBlock: CIFDUS_clean_sbu_1, # of connection points: 6
#     Node 36, Type 1, BuildingBlock: CIFDUS_clean_sbu_1, # of connection points: 6
#     Node 37, Type 1, BuildingBlock: CIFDUS_clean_sbu_1, # of connection points: 6
#     Node 38, Type 1, BuildingBlock: CIFDUS_clean_sbu_1, # of connection points: 6
#     Node 39, Type 1, BuildingBlock: CIFDUS_clean_sbu_1, # of connection points: 6
#     Edge 40, Type (0, 1), BuildingBlock: CIFDUS_clean_linker_0, # of connection points: 2
#     Edge 41, Type (0, 1), BuildingBlock: CIFDUS_clean_linker_0, # of connection points: 2
#     Edge 42, Type (0, 1), BuildingBlock: CIFDUS_clean_linker_0, # of connection points: 2
#     Edge 43, Type (0, 1), BuildingBlock: CIFDUS_clean_linker_0, # of connection points: 2
#     Edge 44, Type (0, 1), BuildingBlock: CIFDUS_clean_linker_0, # of connection points: 2
#     Edge 45, Type (0, 1), BuildingBlock: CIFDUS_clean_linker_0, # of connection points: 2
#     Edge 46, Type (0, 1), BuildingBlock: CIFDUS_clean_linker_0, # of connection points: 2
#     Edge 47, Type (0, 1), BuildingBlock: CIFDUS_clean_linker_0, # of connection points: 2
#     Edge 48, Type (0, 1), BuildingBlock: CIFDUS_clean_linker_0, # of connection points: 2
#     Edge 49, Type (0, 1), BuildingBlock: CIFDUS_clean_linker_0, # of connection points: 2
#     Edge 50, Type (0, 1), BuildingBlock: CIFDUS_clean_linker_0, # of connection points: 2
#     Edge 51, Type (0, 1), BuildingBlock: CIFDUS_clean_linker_0, # of connection points: 2
#     Edge 52, Type (0, 1), BuildingBlock: CIFDUS_clean_linker_0, # of connection points: 2
#     Edge 53, Type (0, 1), BuildingBlock: CIFDUS_clean_linker_0, # of connection points: 2
#     Edge 54, Type (0, 1), BuildingBlock: CIFDUS_clean_linker_0, # of connection points: 2
#     Edge 55, Type (0, 1), BuildingBlock: CIFDUS_clean_linker_0, # of connection points: 2
#     Edge 56, Type (0, 1), BuildingBlock: CIFDUS_clean_linker_0, # of connection points: 2
#     Edge 57, Type (0, 1), BuildingBlock: CIFDUS_clean_linker_0, # of connection points: 2
#     Edge 58, Type (0, 1), BuildingBlock: CIFDUS_clean_linker_0, # of connection points: 2
#     Edge 59, Type (0, 1), BuildingBlock: CIFDUS_clean_linker_0, # of connection points: 2
#     Edge 60, Type (0, 1), BuildingBlock: CIFDUS_clean_linker_0, # of connection points: 2
#     Edge 61, Type (0, 1), BuildingBlock: CIFDUS_clean_linker_0, # of connection points: 2
#     Edge 62, Type (0, 1), BuildingBlock: CIFDUS_clean_linker_0, # of connection points: 2
#     Edge 63, Type (0, 1), BuildingBlock: CIFDUS_clean_linker_0, # of connection points: 2
#     Edge 64, Type (0, 1), BuildingBlock: CIFDUS_clean_linker_0, # of connection points: 2
#     Edge 65, Type (0, 1), BuildingBlock: CIFDUS_clean_linker_0, # of connection points: 2
#     Edge 66, Type (0, 1), BuildingBlock: CIFDUS_clean_linker_0, # of connection points: 2
#     Edge 67, Type (0, 1), BuildingBlock: CIFDUS_clean_linker_0, # of connection points: 2
#     Edge 68, Type (0, 1), BuildingBlock: CIFDUS_clean_linker_0, # of connection points: 2
#     Edge 69, Type (0, 1), BuildingBlock: CIFDUS_clean_linker_0, # of connection points: 2
#     Edge 70, Type (0, 1), BuildingBlock: CIFDUS_clean_linker_0, # of connection points: 2
#     Edge 71, Type (0, 1), BuildingBlock: CIFDUS_clean_linker_0, # of connection points: 2
#     Edge 72, Type (0, 1), BuildingBlock: CIFDUS_clean_linker_0, # of connection points: 2
#     Edge 73, Type (0, 1), BuildingBlock: CIFDUS_clean_linker_0, # of connection points: 2
#     Edge 74, Type (0, 1), BuildingBlock: CIFDUS_clean_linker_0, # of connection points: 2
#     Edge 75, Type (0, 1), BuildingBlock: CIFDUS_clean_linker_0, # of connection points: 2
#     Edge 76, Type (0, 1), BuildingBlock: CIFDUS_clean_linker_0, # of connection points: 2
#     Edge 77, Type (0, 1), BuildingBlock: CIFDUS_clean_linker_0, # of connection points: 2
#     Edge 78, Type (0, 1), BuildingBlock: CIFDUS_clean_linker_0, # of connection points: 2
#     Edge 79, Type (0, 1), BuildingBlock: CIFDUS_clean_linker_0, # of connection points: 2
#     Edge 80, Type (0, 1), BuildingBlock: CIFDUS_clean_linker_0, # of connection points: 2
#     Edge 81, Type (0, 1), BuildingBlock: CIFDUS_clean_linker_0, # of connection points: 2
#     Edge 82, Type (0, 1), BuildingBlock: CIFDUS_clean_linker_0, # of connection points: 2
#     Edge 83, Type (0, 1), BuildingBlock: CIFDUS_clean_linker_0, # of connection points: 2
#     Edge 84, Type (0, 1), BuildingBlock: CIFDUS_clean_linker_0, # of connection points: 2
#     Edge 85, Type (0, 1), BuildingBlock: CIFDUS_clean_linker_0, # of connection points: 2
#     Edge 86, Type (0, 1), BuildingBlock: CIFDUS_clean_linker_0, # of connection points: 2
#     Edge 87, Type (0, 1), BuildingBlock: CIFDUS_clean_linker_0, # of connection points: 2
#     Edge 88, Type (0, 1), BuildingBlock: CIFDUS_clean_linker_0, # of connection points: 2
#     Edge 89, Type (0, 1), BuildingBlock: CIFDUS_clean_linker_0, # of connection points: 2
#     Edge 90, Type (0, 1), BuildingBlock: CIFDUS_clean_linker_0, # of connection points: 2
#     Edge 91, Type (0, 1), BuildingBlock: CIFDUS_clean_linker_0, # of connection points: 2
#     Edge 92, Type (0, 1), BuildingBlock: CIFDUS_clean_linker_0, # of connection points: 2
#     Edge 93, Type (0, 1), BuildingBlock: CIFDUS_clean_linker_0, # of connection points: 2
#     Edge 94, Type (0, 1), BuildingBlock: CIFDUS_clean_linker_0, # of connection points: 2
#     Edge 95, Type (0, 1), BuildingBlock: CIFDUS_clean_linker_0, # of connection points: 2
#     Edge 96, Type (0, 1), BuildingBlock: CIFDUS_clean_linker_0, # of connection points: 2
#     Edge 97, Type (0, 1), BuildingBlock: CIFDUS_clean_linker_0, # of connection points: 2
#     Edge 98, Type (0, 1), BuildingBlock: CIFDUS_clean_linker_0, # of connection points: 2
#     Edge 99, Type (0, 1), BuildingBlock: CIFDUS_clean_linker_0, # of connection points: 2
#     Edge 100, Type (0, 1), BuildingBlock: CIFDUS_clean_linker_0, # of connection points: 2
#     Edge 101, Type (0, 1), BuildingBlock: CIFDUS_clean_linker_0, # of connection points: 2
#     Edge 102, Type (0, 1), BuildingBlock: CIFDUS_clean_linker_0, # of connection points: 2
#     Edge 103, Type (0, 1), BuildingBlock: CIFDUS_clean_linker_0, # of connection points: 2
#     Edge 104, Type (0, 1), BuildingBlock: CIFDUS_clean_linker_0, # of connection points: 2
#     Edge 105, Type (0, 1), BuildingBlock: CIFDUS_clean_linker_0, # of connection points: 2
#     Edge 106, Type (0, 1), BuildingBlock: CIFDUS_clean_linker_0, # of connection points: 2
#     Edge 107, Type (0, 1), BuildingBlock: CIFDUS_clean_linker_0, # of connection points: 2
#     Edge 108, Type (0, 1), BuildingBlock: CIFDUS_clean_linker_0, # of connection points: 2
#     Edge 109, Type (0, 1), BuildingBlock: CIFDUS_clean_linker_0, # of connection points: 2
#     Edge 110, Type (0, 1), BuildingBlock: CIFDUS_clean_linker_0, # of connection points: 2
#     Edge 111, Type (0, 1), BuildingBlock: CIFDUS_clean_linker_0, # of connection points: 2
#     Edge 112, Type (0, 1), BuildingBlock: CIFDUS_clean_linker_0, # of connection points: 2
#     Edge 113, Type (0, 1), BuildingBlock: CIFDUS_clean_linker_0, # of connection points: 2
#     Edge 114, Type (0, 1), BuildingBlock: CIFDUS_clean_linker_0, # of connection points: 2
#     Edge 115, Type (0, 1), BuildingBlock: CIFDUS_clean_linker_0, # of connection points: 2
#     Edge 116, Type (0, 1), BuildingBlock: CIFDUS_clean_linker_0, # of connection points: 2
#     Edge 117, Type (0, 1), BuildingBlock: CIFDUS_clean_linker_0, # of connection points: 2
#     Edge 118, Type (0, 1), BuildingBlock: CIFDUS_clean_linker_0, # of connection points: 2
#     Edge 119, Type (0, 1), BuildingBlock: CIFDUS_clean_linker_0, # of connection points: 2
#     Edge 120, Type (0, 1), BuildingBlock: CIFDUS_clean_linker_0, # of connection points: 2
#     Edge 121, Type (0, 1), BuildingBlock: CIFDUS_clean_linker_0, # of connection points: 2
#     Edge 122, Type (0, 1), BuildingBlock: CIFDUS_clean_linker_0, # of connection points: 2
#     Edge 123, Type (0, 1), BuildingBlock: CIFDUS_clean_linker_0, # of connection points: 2
#     Edge 124, Type (0, 1), BuildingBlock: CIFDUS_clean_linker_0, # of connection points: 2
#     Edge 125, Type (0, 1), BuildingBlock: CIFDUS_clean_linker_0, # of connection points: 2
#     Edge 126, Type (0, 1), BuildingBlock: CIFDUS_clean_linker_0, # of connection points: 2
#     Edge 127, Type (0, 1), BuildingBlock: CIFDUS_clean_linker_0, # of connection points: 2
#     Edge 128, Type (0, 1), BuildingBlock: CIFDUS_clean_linker_0, # of connection points: 2
#     Edge 129, Type (0, 1), BuildingBlock: CIFDUS_clean_linker_0, # of connection points: 2
#     Edge 130, Type (0, 1), BuildingBlock: CIFDUS_clean_linker_0, # of connection points: 2
#     Edge 131, Type (0, 1), BuildingBlock: CIFDUS_clean_linker_0, # of connection points: 2
#     Edge 132, Type (0, 1), BuildingBlock: CIFDUS_clean_linker_0, # of connection points: 2
#     Edge 133, Type (0, 1), BuildingBlock: CIFDUS_clean_linker_0, # of connection points: 2
#     Edge 134, Type (0, 1), BuildingBlock: CIFDUS_clean_linker_0, # of connection points: 2
#     Edge 135, Type (0, 1), BuildingBlock: CIFDUS_clean_linker_0, # of connection points: 2
# Relax obj value: 0.129
# Max RMSD: 0.178
# Mean RMSD: 0.151
data_MOF--net-iac--node1-AZAVOO_clean_sbu_0--node2-CIFDUS_clean_sbu_1--edge1-CIFDUS_clean_linker_0
_symmetry_space_group_name_H-M    P1
_symmetry_Int_Tables_number       1
_symmetry_cell_setting            triclinic
loop_
_symmetry_equiv_pos_as_xyz
'x, y, z'
_cell_length_a     48.814179
_cell_length_b     46.17923
_cell_length_c     47.626892
_cell_angle_alpha  92.524225
_cell_angle_beta   89.56759
_cell_angle_gamma 91.141873
loop_
_atom_site_label
_atom_site_type_symbol
_atom_site_fract_x
_atom_site_fract_y
_atom_site_fract_z
_atom_type_partial_charge
Mg0 Mg 0.98848 0.27039 0.14295 0.0
O1 O -0.00539 0.22405 0.12378 0.0
O2 O 0.96202 0.21603 0.09146 0.0
Mg3 Mg 0.93221 0.25385 0.09338 0.0
C4 C 0.98325 0.20819 0.10438 0.0
C5 C 0.03638 0.28399 0.18424 0.0
O6 O 0.01696 0.29991 0.19579 0.0
O7 O 0.00123 0.29276 0.10275 0.0
O8 O 0.96379 0.2856 0.07604 0.0
O9 O 0.96156 0.25406 0.17711 0.0
O10 O 0.94676 0.26685 0.13574 0.0
C11 C 0.9873 0.29728 0.08074 0.0
C12 C 0.94142 0.25699 0.15999 0.0
O13 O 0.03161 0.26984 0.16122 0.0
Mg14 Mg -0.00327 0.74122 0.35494 0.0
O15 O 0.00016 0.7831 0.38145 0.0
O16 O 0.9627 0.78729 0.40848 0.0
Mg17 Mg 0.93743 0.74512 0.40203 0.0
C18 C 0.98539 0.79732 0.39912 0.0
C19 C 0.0464 0.75332 0.31615 0.0
O20 O 0.02659 0.75208 0.2976 0.0
O21 O 0.00863 0.71454 0.39154 0.0
O22 O 0.97127 0.71564 0.41889 0.0
O23 O 0.974 0.76531 0.32449 0.0
O24 O 0.95409 0.7415 0.35888 0.0
C25 C -0.00451 0.70679 0.41333 0.0
C26 C 0.95214 0.75921 0.33879 0.0
O27 O 0.04089 0.74854 0.34169 0.0
Mg28 Mg 0.48739 0.77324 0.6474 0.0
O29 O 0.49102 0.72822 0.62422 0.0
O30 O 0.45813 0.72616 0.59169 0.0
Mg31 Mg 0.43095 0.76637 0.59732 0.0
C32 C 0.47866 0.71523 0.60357 0.0
C33 C 0.5396 0.75376 0.68138 0.0
O34 O 0.52217 0.7347 0.69139 0.0
O35 O 0.50163 0.79786 0.60944 0.0
O36 O 0.46443 0.79848 0.58245 0.0
O37 O 0.46008 0.75518 0.68054 0.0
O38 O 0.4451 0.77249 0.64118 0.0
C39 C 0.48882 0.80713 0.58844 0.0
C40 C 0.43961 0.76075 0.66462 0.0
O41 O 0.53143 0.77119 0.6634 0.0
Mg42 Mg 0.48428 0.23968 0.85614 0.0
O43 O 0.48645 0.28543 0.87694 0.0
O44 O 0.44782 0.28964 0.90235 0.0
Mg45 Mg 0.42245 0.2477 0.89925 0.0
C46 C 0.47028 0.30021 0.89292 0.0
C47 C 0.54033 0.25441 0.82409 0.0
O48 O 0.52604 0.27291 0.81034 0.0
O49 O 0.49469 0.21981 0.89714 0.0
O50 O 0.45549 0.2219 0.92154 0.0
O51 O 0.46262 0.25752 0.82046 0.0
O52 O 0.44201 0.24037 0.85803 0.0
C53 C 0.48042 0.21419 0.91882 0.0
C54 C 0.44036 0.25376 0.83495 0.0
O55 O 0.5291 0.24064 0.84378 0.0
Mg56 Mg 0.11758 0.98157 0.26494 0.0
O57 O 0.13584 0.02762 0.26428 0.0
O58 O 0.16453 0.03164 0.30066 0.0
Mg59 Mg 0.15655 0.99273 0.32904 0.0
C60 C 0.15423 0.0415 0.2785 0.0
C61 C 0.08824 0.99539 0.20971 0.0
O62 O 0.07137 0.00844 0.22752 0.0
O63 O 0.15841 0.96181 0.25597 0.0
O64 O 0.17767 0.96001 0.29829 0.0
O65 O 0.07987 0.99638 0.28618 0.0
O66 O 0.11699 0.98273 0.30812 0.0
C67 C 0.17656 0.95243 0.27217 0.0
C68 C 0.09229 0.99201 0.30951 0.0
O69 O 0.10905 0.98287 0.21888 0.0
Mg70 Mg 0.26716 0.89968 0.50316 0.0
O71 O 0.26907 0.86879 0.46394 0.0
O72 O 0.31094 0.84971 0.46493 0.0
Mg73 Mg 0.33395 0.86526 0.50419 0.0
C74 C 0.28794 0.85299 0.45303 0.0
C75 C 0.21226 0.92145 0.48011 0.0
O76 O 0.22837 0.92831 0.45911 0.0
O77 O 0.26127 0.8626 0.53244 0.0
O78 O 0.30335 0.8449 0.53534 0.0
O79 O 0.2845 0.93459 0.47813 0.0
O80 O 0.30928 0.90445 0.50196 0.0
C81 C 0.27819 0.84537 0.54284 0.0
C82 C 0.30827 0.92489 0.48437 0.0
O83 O 0.2216 0.90666 0.49967 0.0
Mg84 Mg 0.39425 0.01201 0.76418 0.0
O85 O 0.37116 0.96918 0.76233 0.0
O86 O 0.34851 0.96529 0.80303 0.0
Mg87 Mg 0.35544 0.00651 0.82998 0.0
C88 C 0.356 0.95501 0.77894 0.0
C89 C 0.42774 0.0045 0.70987 0.0
O90 O 0.44718 0.00734 0.72877 0.0
O91 O 0.35555 0.03605 0.75769 0.0
O92 O 0.33364 0.03534 0.7991 0.0
O93 O 0.42807 0.98959 0.78274 0.0
O94 O 0.39473 0.01121 0.80734 0.0
C95 C 0.33579 0.04358 0.77393 0.0
C96 C 0.41552 0.99436 0.80651 0.0
O97 O 0.40287 0.00644 0.71769 0.0
Mg98 Mg 0.26399 0.10902 0.97615 0.0
O99 O 0.2632 0.1332 0.02009 0.0
O100 O 0.30434 0.15358 0.0284 0.0
Mg101 Mg 0.33125 0.1439 0.98917 0.0
C102 C 0.27983 0.14774 0.03616 0.0
C103 C 0.20786 0.08966 -0.0009 0.0
O104 O 0.22562 0.08193 0.01782 0.0
O105 O 0.26267 0.15067 0.95184 0.0
O106 O 0.30493 0.16951 0.95862 0.0
O107 O 0.28029 0.06905 0.99435 0.0
O108 O 0.3067 0.1042 0.97871 0.0
C109 C 0.28137 0.16966 0.94705 0.0
C110 C 0.3047 0.07949 0.9901 0.0
O111 O 0.21682 0.10291 0.97791 0.0
Mg112 Mg 0.76711 0.39048 0.00941 0.0
O113 O 0.77087 0.36392 0.96708 0.0
O114 O 0.81355 0.34681 0.96755 0.0
Mg115 Mg 0.83521 0.35826 0.0085 0.0
C116 C 0.79079 0.35029 0.95524 0.0
C117 C 0.71562 0.42115 0.02012 0.0
O118 O 0.73523 0.43389 0.03519 0.0
O119 O 0.76123 0.34941 0.03402 0.0
O120 O 0.80384 0.33274 0.03436 0.0
O121 O 0.78437 0.42808 0.98808 0.0
O122 O 0.80938 0.3964 0.00961 0.0
C123 C 0.77867 0.3311 0.04173 0.0
C124 C 0.80822 0.41794 0.99333 0.0
O125 O 0.72131 0.39838 0.00532 0.0
Mg126 Mg 0.88122 0.52008 0.26628 0.0
O127 O 0.8627 0.47432 0.27273 0.0
O128 O 0.84202 0.47744 0.31479 0.0
Mg129 Mg 0.84398 0.52322 0.33403 0.0
C130 C 0.84965 0.46274 0.2929 0.0
C131 C 0.91946 0.5075 0.21606 0.0
O132 O 0.9362 0.51267 0.23722 0.0
O133 O 0.83942 0.53823 0.25537 0.0
O134 O 0.82006 0.54144 0.29811 0.0
O135 O 0.91702 0.50708 0.29071 0.0
O136 O 0.88096 0.52929 0.30925 0.0
C137 C 0.81963 0.54573 0.27181 0.0
C138 C 0.90348 0.51618 0.3127 0.0
O139 O 0.89369 0.50812 0.22069 0.0
Mg140 Mg 0.76213 0.61153 0.4842 0.0
O141 O 0.76885 0.63737 0.5269 0.0
O142 O 0.81098 0.65626 0.5219 0.0
Mg143 Mg 0.83195 0.64034 0.4806 0.0
C144 C 0.78912 0.65274 0.53648 0.0
C145 C 0.7053 0.60066 0.46518 0.0
O146 O 0.72198 0.59744 0.44353 0.0
O147 O 0.75939 0.65158 0.459 0.0
O148 O 0.80321 0.66229 0.44936 0.0
O149 O 0.77701 0.5715 0.50227 0.0
O150 O 0.80378 0.60263 0.48068 0.0
C151 C 0.77761 0.66475 0.44475 0.0
C152 C 0.80137 0.57904 0.49396 0.0
O153 O 0.7155 0.60885 0.48881 0.0
Mg154 Mg 0.62226 0.49259 0.76604 0.0
O155 O 0.64969 0.53253 0.75841 0.0
O156 O 0.68229 0.531 0.79107 0.0
Mg157 Mg 0.67031 0.49809 0.82426 0.0
C158 C 0.67219 0.54189 0.76929 0.0
C159 C 0.58578 0.50402 0.71364 0.0
O160 O 0.5732 0.5221 0.73119 0.0
O161 O 0.65612 0.46217 0.7544 0.0
O162 O 0.67993 0.45946 0.79414 0.0
O163 O 0.59176 0.51741 0.79107 0.0
O164 O 0.62831 0.49704 0.80826 0.0
C165 C 0.67384 0.45007 0.76929 0.0
C166 C 0.60623 0.51119 0.81263 0.0
O167 O 0.60673 0.49083 0.72164 0.0
Mg168 Mg -0.00187 0.73524 0.84548 0.0
O169 O -0.00076 0.77609 0.87511 0.0
O170 O 0.96285 0.77726 0.90368 0.0
Mg171 Mg 0.93893 0.73475 0.89273 0.0
C172 C 0.98511 0.78857 0.89467 0.0
C173 C 0.06197 0.7256 0.83335 0.0
O174 O 0.05671 0.69911 0.84112 0.0
O175 O 0.01124 0.70653 0.8802 0.0
O176 O 0.97403 0.70608 0.9079 0.0
O177 O 0.97196 0.75754 0.8145 0.0
O178 O 0.9557 0.7321 0.84926 0.0
C179 C -0.00165 0.69796 0.90176 0.0
C180 C 0.95095 0.74734 0.8279 0.0
O181 O 0.04271 0.74383 0.83311 0.0
Mg182 Mg 0.00377 0.26497 0.64792 0.0
O183 O -0.00461 0.21836 0.63188 0.0
O184 O 0.95257 0.21457 0.61593 0.0
Mg185 Mg 0.93317 0.25911 0.62289 0.0
C186 C 0.97567 0.20343 0.62091 0.0
C187 C 0.05602 0.23457 0.66286 0.0
O188 O 0.03676 0.21894 0.67474 0.0
O189 O 0.00659 0.28003 0.60331 0.0
O190 O 0.96256 0.28019 0.59094 0.0
O191 O 0.98866 0.25495 0.6909 0.0
O192 O 0.96254 0.26994 0.65678 0.0
C193 C 0.98789 0.28585 0.58597 0.0
C194 C 0.96461 0.26099 0.68186 0.0
O195 O 0.04914 0.25597 0.64881 0.0
Mg196 Mg 0.50216 0.23976 0.36119 0.0
O197 O 0.49811 0.28382 0.38499 0.0
O198 O 0.46268 0.28255 0.41472 0.0
Mg199 Mg 0.44325 0.23697 0.40848 0.0
C200 C 0.48283 0.29604 0.40368 0.0
C201 C 0.56022 0.2356 0.33457 0.0
O202 O 0.54997 0.21073 0.32465 0.0
O203 O 0.51866 0.21789 0.39944 0.0
O204 O 0.48115 0.21567 0.42661 0.0
O205 O 0.47325 0.25346 0.32738 0.0
O206 O 0.46093 0.23133 0.3657 0.0
C207 C 0.5064 0.21038 0.42179 0.0
C208 C 0.45394 0.24233 0.34258 0.0
O209 O 0.5452 0.25268 0.34915 0.0
Mg210 Mg 0.49792 0.77134 0.14155 0.0
O211 O 0.50381 0.72694 0.12086 0.0
O212 O 0.46484 0.70952 0.10199 0.0
Mg213 Mg 0.43359 0.74545 0.10899 0.0
C214 C 0.49013 0.70702 0.10781 0.0
C215 C 0.55506 0.7531 0.15526 0.0
O216 O 0.53899 0.73197 0.16365 0.0
O217 O 0.49888 0.79018 0.09858 0.0
O218 O 0.45843 0.77593 0.08055 0.0
O219 O 0.48383 0.75208 0.18163 0.0
O220 O 0.45645 0.76167 0.14651 0.0
C221 C 0.48128 0.78986 0.07889 0.0
C222 C 0.45967 0.75065 0.17062 0.0
O223 O 0.54423 0.77522 0.14532 0.0
Mg224 Mg 0.88306 0.01684 0.74944 0.0
O225 O 0.86458 0.97141 0.75436 0.0
O226 O 0.83545 0.97115 0.79057 0.0
Mg227 Mg 0.83604 0.01766 0.80925 0.0
C228 C 0.84784 0.95808 0.77021 0.0
C229 C 0.89804 0.01754 0.68523 0.0
O230 O 0.89164 0.04503 0.68784 0.0
O231 O 0.84398 0.03357 0.73127 0.0
O232 O 0.81704 0.03509 0.76944 0.0
O233 O 0.91674 0.00696 0.77867 0.0
O234 O 0.87736 0.02655 0.79168 0.0
C235 C 0.82133 0.03948 0.74344 0.0
C236 C 0.90077 0.01681 0.79859 0.0
O237 O 0.89725 0.00198 0.70653 0.0
Mg238 Mg 0.7652 0.12251 0.482 0.0
O239 O 0.76883 0.14464 0.5259 0.0
O240 O 0.80745 0.17149 0.52677 0.0
Mg241 Mg 0.8282 0.16767 0.4837 0.0
C242 C 0.78605 0.16146 0.53881 0.0
C243 C 0.71967 0.09007 0.51177 0.0
O244 O 0.74237 0.08064 0.52241 0.0
O245 O 0.75263 0.16452 0.46198 0.0
O246 O 0.7928 0.18858 0.46115 0.0
O247 O 0.79028 0.08565 0.49581 0.0
O248 O 0.80769 0.12514 0.47742 0.0
C249 C 0.76745 0.18619 0.4548 0.0
C250 C 0.81152 0.10116 0.48942 0.0
O251 O 0.72128 0.10895 0.49312 0.0
Mg252 Mg 0.61789 0.98787 0.25386 0.0
O253 O 0.63358 0.03365 0.2493 0.0
O254 O 0.64558 0.05239 0.29151 0.0
Mg255 Mg 0.63626 0.01766 0.32346 0.0
C256 C 0.64283 0.05448 0.26504 0.0
C257 C 0.59764 0.97437 0.19815 0.0
O258 O 0.58083 0.96152 0.21557 0.0
O259 O 0.66069 0.97222 0.26033 0.0
O260 O 0.66881 0.98635 0.30502 0.0
O261 O 0.57533 0.00401 0.26076 0.0
O262 O 0.60565 -0.00202 0.29434 0.0
C263 C 0.67548 0.97233 0.28231 0.0
C264 C 0.58199 0.00673 0.28698 0.0
O265 O 0.62101 0.98239 0.20705 0.0
Mg266 Mg 0.74494 0.8894 0.02061 0.0
O267 O 0.73859 0.86864 0.9757 0.0
O268 O 0.77549 0.84232 0.96542 0.0
Mg269 Mg 0.80301 0.84234 0.00429 0.0
C270 C 0.75262 0.85276 0.95852 0.0
C271 C 0.69919 0.93273 0.02957 0.0
O272 O 0.72134 0.94636 0.03913 0.0
O273 O 0.73245 0.84775 0.0425 0.0
O274 O 0.76998 0.82214 0.03248 0.0
O275 O 0.77148 0.92487 0.00287 0.0
O276 O 0.78763 0.88455 0.01884 0.0
C277 C 0.74672 0.82503 0.04473 0.0
C278 C 0.7923 0.90901 0.00789 0.0
O279 O 0.7012 0.90659 0.02031 0.0
Mg280 Mg 0.25548 0.59713 0.99293 0.0
O281 O 0.25878 0.63008 0.03018 0.0
O282 O 0.29536 0.65851 0.02231 0.0
Mg283 Mg 0.31841 0.63989 0.98375 0.0
C284 C 0.27435 0.65169 0.03689 0.0
C285 C 0.20679 0.58081 0.03017 0.0
O286 O 0.2279 0.57559 0.046 0.0
O287 O 0.24397 0.63237 0.96285 0.0
O288 O 0.28399 0.65521 0.95522 0.0
O289 O 0.27938 0.56441 0.01563 0.0
O290 O 0.2979 0.59718 0.98847 0.0
C291 C 0.25844 0.65132 0.9503 0.0
C292 C 0.30116 0.57632 0.00516 0.0
O293 O 0.21102 0.58961 0.00557 0.0
Mg294 Mg 0.12131 0.48901 0.75575 0.0
O295 O 0.13847 0.53352 0.74895 0.0
O296 O 0.16807 0.54822 0.78219 0.0
Mg297 Mg 0.17097 0.50998 0.8107 0.0
C298 C 0.15464 0.5524 0.75998 0.0
C299 C 0.0894 0.51514 0.71037 0.0
O300 O 0.08465 0.53173 0.73292 0.0
O301 O 0.16106 0.47019 0.73902 0.0
O302 O 0.18933 0.48185 0.77467 0.0
O303 O 0.08886 0.50627 0.78468 0.0
O304 O 0.12983 0.49319 0.79836 0.0
C305 C 0.18454 0.46944 0.75062 0.0
C306 C 0.10632 0.50383 0.80471 0.0
O307 O 0.10345 0.49243 0.71254 0.0
Mg308 Mg 0.24507 0.39251 0.51851 0.0
O309 O 0.2391 0.36696 0.47598 0.0
O310 O 0.27369 0.3363 0.47155 0.0
Mg311 Mg 0.30005 0.34203 0.51145 0.0
C312 C 0.25212 0.34739 0.46203 0.0
C313 C 0.19326 0.42387 0.53707 0.0
O314 O 0.21031 0.43208 0.55724 0.0
O315 O 0.23008 0.35579 0.54392 0.0
O316 O 0.26575 0.32632 0.54232 0.0
O317 O 0.27069 0.42544 0.49846 0.0
O318 O 0.28818 0.3881 0.51907 0.0
C319 C 0.24194 0.33326 0.55155 0.0
C320 C 0.29217 0.41188 0.50623 0.0
O321 O 0.20168 0.40771 0.51665 0.0
Mg322 Mg 0.39476 0.50768 0.25247 0.0
O323 O 0.36684 0.46701 0.25092 0.0
O324 O 0.34477 0.46204 0.2918 0.0
Mg325 Mg 0.35666 0.50285 0.31838 0.0
C326 C 0.35048 0.45309 0.26676 0.0
C327 C 0.41252 0.52368 0.19295 0.0
O328 O 0.42156 0.54685 0.20728 0.0
O329 O 0.35843 0.53561 0.246 0.0
O330 O 0.33548 0.53149 0.28655 0.0
O331 O 0.42895 0.48389 0.27157 0.0
O332 O 0.39578 0.50641 0.29532 0.0
C333 C 0.33813 0.5414 0.26199 0.0
C334 C 0.4172 0.49065 0.29537 0.0
O335 O 0.40087 0.50329 0.20578 0.0
O336 O 0.03465 0.02745 -0.00501 0.0
Mn337 Mn -0.00071 0.00079 0.00172 0.0
O338 O 0.06739 -0.00187 0.97971 0.0
Mn339 Mn 0.05046 0.96887 -0.0017 0.0
O340 O 0.96354 0.97537 0.00868 0.0
O341 O 0.98185 0.03766 0.01766 0.0
Mn342 Mn 0.9477 0.03744 0.00611 0.0
O343 O 0.9855 0.00801 0.96129 0.0
O344 O 0.92976 0.00597 0.0204 0.0
O345 O 0.01206 0.99429 0.04232 0.0
O346 O 0.05215 0.97227 0.03705 0.0
O347 O 0.95154 0.07113 0.02732 0.0
O348 O 0.94922 0.03707 0.96738 0.0
C349 C 0.02717 0.9378 0.97623 0.0
C350 C 0.05859 0.02339 0.98427 0.0
C351 C 0.93887 0.98051 0.01699 0.0
C352 C 0.97638 0.06245 0.03025 0.0
C353 C 0.96561 0.0224 0.95165 0.0
C354 C 0.03377 0.98398 0.05253 0.0
O355 O 0.01634 0.9622 0.9861 0.0
O356 O 0.05276 0.93369 0.98179 0.0
O357 O 0.30032 0.73942 0.25014 0.0
Mn358 Mn 0.25782 0.74638 0.25032 0.0
O359 O 0.31951 0.77252 0.22234 0.0
Mn360 Mn 0.28718 0.78398 0.20721 0.0
O361 O 0.2154 0.75408 0.25069 0.0
O362 O 0.25234 0.70649 0.26534 0.0
Mn363 Mn 0.22651 0.7078 0.29125 0.0
O364 O 0.26023 0.7652 0.29115 0.0
O365 O 0.19514 0.71775 0.27344 0.0
O366 O 0.2547 0.72703 0.20962 0.0
O367 O 0.2721 0.75913 0.17988 0.0
O368 O 0.23736 0.67012 0.28925 0.0
O369 O 0.23787 0.73428 0.31917 0.0
C370 C 0.26186 0.81342 0.23001 0.0
C371 C 0.3213 0.75207 0.23921 0.0
C372 C 0.19397 0.7402 0.25908 0.0
C373 C 0.25366 0.67908 0.26973 0.0
C374 C 0.25087 0.758 0.31528 0.0
C375 C 0.26016 0.73505 0.18462 0.0
O376 O 0.26341 0.78619 0.2351 0.0
O377 O 0.27737 0.82195 0.20967 0.0
O378 O 0.47576 0.98686 0.48375 0.0
Mn379 Mn 0.51234 0.00678 0.49731 0.0
O380 O 0.44333 0.02078 0.48631 0.0
Mn381 Mn 0.46195 0.04471 0.51208 0.0
O382 O 0.54878 0.02725 0.51056 0.0
O383 O 0.52968 0.96706 0.49539 0.0
Mn384 Mn 0.56195 0.97054 0.47876 0.0
O385 O 0.52261 0.01392 0.456 0.0
O386 O 0.58247 0.99558 0.50185 0.0
O387 O 0.50122 0.00076 0.53907 0.0
O388 O 0.46517 0.0301 0.54742 0.0
O389 O 0.5588 0.93223 0.48693 0.0
O390 O 0.55615 0.98342 0.44306 0.0
C391 C 0.493 0.07335 0.49619 0.0
C392 C 0.45154 0.99561 0.47865 0.0
C393 C 0.57387 0.01972 0.51202 0.0
C394 C 0.53553 0.93996 0.49778 0.0
C395 C 0.53928 0.0031 0.43781 0.0
C396 C 0.48228 0.01147 0.55508 0.0
O397 O 0.4955 0.04593 0.49889 0.0
O398 O 0.46967 0.08313 0.50501 0.0
O399 O 0.2924 0.27257 0.75726 0.0
Mn400 Mn 0.25518 0.25373 0.74442 0.0
O401 O 0.31799 0.27961 0.71921 0.0
Mn402 Mn 0.30125 0.24809 0.70072 0.0
O403 O 0.21751 0.23557 0.73258 0.0
O404 O 0.24403 0.25495 0.78597 0.0
Mn405 Mn 0.21219 0.2728 0.78785 0.0
O406 O 0.24081 0.2947 0.7377 0.0
O407 O 0.18794 0.24903 0.76714 0.0
O408 O 0.27183 0.21287 0.74861 0.0
O409 O 0.30656 0.2131 0.71677 0.0
O410 O 0.21985 0.26478 0.82412 0.0
O411 O 0.21697 0.31001 0.77549 0.0
C412 C 0.26548 0.25252 0.67636 0.0
C413 C 0.31362 0.28352 0.74541 0.0
C414 C 0.19356 0.23554 0.7439 0.0
C415 C 0.24128 0.25263 0.81304 0.0
C416 C 0.22829 0.31438 0.75193 0.0
C417 C 0.29286 0.20133 0.73636 0.0
O418 O 0.26576 0.25263 0.7035 0.0
O419 O 0.28922 0.24938 0.66444 0.0
O420 O 0.00656 0.97477 0.47465 0.0
Mn421 Mn 0.01257 0.00685 0.50667 0.0
O422 O 0.01174 0.93232 0.49585 0.0
Mn423 Mn 0.01856 0.94679 0.53195 0.0
O424 O 0.01768 0.03887 0.53911 0.0
O425 O 0.02494 0.03454 0.47847 0.0
Mn426 Mn 0.01343 0.06975 0.48478 0.0
O427 O 0.97237 0.01974 0.50211 0.0
O428 O 0.02876 0.08073 0.51895 0.0
O429 O 0.05351 0.99489 0.51047 0.0
O430 O 0.05438 0.95776 0.53924 0.0
O431 O 0.03359 0.06985 0.45149 0.0
O432 O 0.97552 0.06502 0.48573 0.0
C433 C 0.98592 0.96739 0.555 0.0
C434 C 0.0071 0.94689 0.4743 0.0
C435 C 0.02537 0.06572 0.54054 0.0
C436 C 0.03683 0.04278 0.45614 0.0
C437 C 0.96165 0.04319 0.49418 0.0
C438 C 0.06647 0.97721 0.52538 0.0
O439 O -0.00019 0.97884 0.53509 0.0
O440 O -0.00656 0.9415 0.5604 0.0
O441 O 0.2759 0.7834 0.76066 0.0
Mn442 Mn 0.24638 0.75243 0.74875 0.0
O443 O 0.25829 0.82544 0.74806 0.0
Mn444 Mn 0.22504 0.81043 0.7358 0.0
O445 O 0.21668 0.72115 0.73712 0.0
O446 O 0.27683 0.72462 0.74291 0.0
Mn447 Mn 0.26741 0.68976 0.75278 0.0
O448 O 0.24301 0.74085 0.7907 0.0
O449 O 0.23909 0.67975 0.7286 0.0
O450 O 0.25163 0.76239 0.70591 0.0
O451 O 0.22348 0.79855 0.6988 0.0
O452 O 0.30396 0.68831 0.74158 0.0
O453 O 0.25765 0.69462 0.79063 0.0
C454 C 0.19391 0.79685 0.76265 0.0
C455 C 0.27743 0.8108 0.75803 0.0
C456 C 0.21751 0.69475 0.72761 0.0
C457 C 0.30104 0.71551 0.73735 0.0
C458 C 0.248 0.71732 0.80316 0.0
C459 C 0.23986 0.77951 0.68944 0.0
O460 O 0.21512 0.78092 0.75622 0.0
O461 O 0.19382 0.82241 0.75237 0.0
O462 O 0.4781 0.99324 0.97308 0.0
Mn463 Mn 0.50256 0.00497 0.00701 0.0
O464 O 0.50509 0.99548 0.9346 0.0
Mn465 Mn 0.53314 0.01786 0.95103 0.0
O466 O 0.52728 0.01609 0.04107 0.0
O467 O 0.46817 0.00731 0.03074 0.0
Mn468 Mn 0.47273 0.98905 0.06188 0.0
O469 O 0.50692 0.96119 0.01433 0.0
O470 O 0.5016 0.00875 0.07967 0.0
O471 O 0.4987 0.04873 -0.00156 0.0
O472 O 0.52514 0.05631 0.96017 0.0
O473 O 0.43743 0.00257 0.06363 0.0
O474 O 0.47916 0.95087 0.0506 0.0
C475 C 0.56141 0.99635 0.97725 0.0
C476 C 0.4827 0.9884 0.94684 0.0
C477 C 0.52371 0.0172 0.06776 0.0
C478 C 0.44356 0.01271 0.03944 0.0
C479 C 0.49544 0.94328 0.03071 0.0
C480 C 0.50948 0.06537 0.98017 0.0
O481 O 0.53652 0.0024 0.98362 0.0
O482 O 0.56885 0.00465 0.95274 0.0
O483 O 0.28996 0.24699 0.26038 0.0
Mn484 Mn 0.2484 0.24892 0.24897 0.0
O485 O 0.28856 0.22287 0.3005 0.0
Mn486 Mn 0.25116 0.21707 0.3034 0.0
O487 O 0.20626 0.24986 0.23929 0.0
O488 O 0.25751 0.28599 0.2282 0.0
Mn489 Mn 0.23718 0.28201 0.19729 0.0
O490 O 0.25649 0.2225 0.21211 0.0
O491 O 0.20073 0.28277 0.20693 0.0
O492 O 0.24159 0.27608 0.28584 0.0
O493 O 0.23245 0.24691 0.32102 0.0
O494 O 0.25519 0.31608 0.1936 0.0
O495 O 0.24784 0.25011 0.17563 0.0
C496 C 0.23096 0.18631 0.27668 0.0
C497 C 0.30179 0.23613 0.28155 0.0
C498 C 0.19096 0.26527 0.22428 0.0
C499 C 0.26537 0.31061 0.21783 0.0
C500 C 0.25513 0.22635 0.18545 0.0
C501 C 0.23419 0.27208 0.31152 0.0
O502 O 0.23903 0.2118 0.26887 0.0
O503 O 0.2363 0.1806 0.30242 0.0
O504 O 0.49488 0.47304 0.97399 0.0
Mn505 Mn 0.50842 0.50437 0.00436 0.0
O506 O 0.49094 0.43079 -0.00373 0.0
Mn507 Mn 0.50998 0.4421 0.02832 0.0
O508 O 0.52061 0.53525 0.03538 0.0
O509 O 0.51726 0.53107 0.97379 0.0
Mn510 Mn 0.51269 0.56735 0.98445 0.0
O511 O 0.46907 0.5221 0.00758 0.0
O512 O 0.53724 0.57337 0.0134 0.0
O513 O 0.54821 0.48785 0.00132 0.0
O514 O 0.54762 0.44538 0.02334 0.0
O515 O 0.52385 0.56757 0.94733 0.0
O516 O 0.47603 0.56847 -0.00495 0.0
C517 C 0.49003 0.47065 0.0586 0.0
C518 C 0.48792 0.44603 0.97485 0.0
C519 C 0.53199 0.56057 0.03589 0.0
C520 C 0.52439 0.5398 0.9496 0.0
C521 C 0.46069 0.54813 0.0043 0.0
C522 C 0.56006 0.46535 0.01026 0.0
O523 O 0.49965 0.47778 0.03481 0.0
O524 O 0.4931 0.44364 0.06358 0.0
O525 O 0.77781 0.28954 0.25163 0.0
Mn526 Mn 0.74744 0.25708 0.24562 0.0
O527 O 0.75604 0.33238 0.25213 0.0
Mn528 Mn 0.72236 0.31853 0.23927 0.0
O529 O 0.71682 0.2249 0.24026 0.0
O530 O 0.77693 0.22889 0.23696 0.0
Mn531 Mn 0.76805 0.19413 0.24753 0.0
O532 O 0.74902 0.2468 0.28779 0.0
O533 O 0.73782 0.18431 0.22602 0.0
O534 O 0.74497 0.26642 0.203 0.0
O535 O 0.72112 0.3078 0.20131 0.0
O536 O 0.80326 0.19188 0.23283 0.0
O537 O 0.76042 0.19939 0.28591 0.0
C538 C 0.69553 0.29363 0.26553 0.0
C539 C 0.77753 0.31738 0.25444 0.0
C540 C 0.7161 0.19849 0.23058 0.0
C541 C 0.80027 0.21917 0.229 0.0
C542 C 0.75272 0.22251 0.29937 0.0
C543 C 0.73266 0.28584 0.18941 0.0
O544 O 0.71837 0.28531 0.255 0.0
O545 O 0.69001 0.32011 0.2604 0.0
O546 O 0.97767 0.48598 0.46792 0.0
Mn547 Mn 0.00087 0.49567 0.50352 0.0
O548 O 0.0073 0.48313 0.43139 0.0
Mn549 Mn 0.03597 0.50304 0.44909 0.0
O550 O 0.02507 0.50513 0.53891 0.0
O551 O 0.96525 0.50251 0.52491 0.0
Mn552 Mn 0.96876 0.48655 0.5577 0.0
O553 O -0.00085 0.45153 0.51164 0.0
O554 O -0.00302 0.50572 0.57636 0.0
O555 O 0.00279 0.53964 0.49395 0.0
O556 O 0.0315 0.5425 0.45668 0.0
O557 O 0.93459 0.50147 0.55871 0.0
O558 O 0.97209 0.44726 0.54972 0.0
C559 C 0.05942 0.47879 0.47741 0.0
C560 C 0.98364 0.47913 0.44224 0.0
C561 C 0.02028 0.51019 0.56515 0.0
C562 C 0.94062 0.50875 0.53341 0.0
C563 C 0.98601 0.43629 0.52936 0.0
C564 C 0.01622 0.55429 0.47572 0.0
O565 O 0.03545 0.48863 0.48231 0.0
O566 O 0.06937 0.48513 0.45318 0.0
O567 O 0.78691 0.76477 0.27452 0.0
Mn568 Mn 0.75232 0.75646 0.24976 0.0
O569 O 0.82243 0.77237 0.24573 0.0
Mn570 Mn 0.80617 0.75125 0.21626 0.0
O571 O 0.71727 0.7476 0.22585 0.0
O572 O 0.73227 0.74984 0.28613 0.0
Mn573 Mn 0.69981 0.76563 0.28595 0.0
O574 O 0.74313 0.80035 0.25292 0.0
O575 O 0.68177 0.74651 0.25635 0.0
O576 O 0.76198 0.71258 0.2457 0.0
O577 O 0.80143 0.71178 0.22054 0.0
O578 O 0.70283 0.7494 0.3205 0.0
O579 O 0.7071 0.80499 0.28262 0.0
C580 C 0.77833 0.76898 0.18763 0.0
C581 C 0.8118 0.77271 0.27019 0.0
C582 C 0.69206 0.74228 0.23188 0.0
C583 C 0.72702 0.74259 0.31151 0.0
C584 C 0.72586 0.81573 0.26717 0.0
C585 C 0.7815 0.699 0.23278 0.0
O586 O 0.77248 0.76353 0.21345 0.0
O587 O 0.80362 0.76454 0.1806 0.0
O588 O 0.79547 0.24083 0.74386 0.0
Mn589 Mn 0.75311 0.24268 0.75027 0.0
O590 O 0.80474 0.26764 0.70622 0.0
Mn591 Mn 0.76904 0.277 0.69802 0.0
O592 O 0.71057 0.24425 0.75692 0.0
O593 O 0.7546 0.20581 0.76985 0.0
Mn594 Mn 0.73755 0.20653 0.8022 0.0
O595 O 0.75857 0.26692 0.78826 0.0
O596 O 0.70205 0.21516 0.79307 0.0
O597 O 0.74758 0.21797 0.71252 0.0
O598 O 0.74943 0.24903 0.67757 0.0
O599 O 0.7497 0.16895 0.79563 0.0
O600 O 0.75514 0.23568 0.82334 0.0
C601 C 0.74737 0.30635 0.72512 0.0
C602 C 0.81211 0.25163 0.72586 0.0
C603 C 0.6941 0.23195 0.77427 0.0
C604 C 0.75835 0.17864 0.77202 0.0
C605 C 0.75968 0.26096 0.81438 0.0
C606 C 0.74486 0.22387 0.68658 0.0
O607 O 0.75222 0.27993 0.73059 0.0
O608 O 0.75691 0.31442 0.70121 0.0
O609 O 0.78554 0.74494 0.76374 0.0
Mn610 Mn 0.74732 0.75478 0.74704 0.0
O611 O 0.77471 0.72506 0.80501 0.0
Mn612 Mn 0.7367 0.72566 0.80262 0.0
O613 O 0.70862 0.76445 0.73149 0.0
O614 O 0.76469 0.78851 0.72746 0.0
Mn615 Mn 0.75309 0.78818 0.6925 0.0
O616 O 0.75394 0.72603 0.71129 0.0
O617 O 0.71532 0.79208 0.69422 0.0
O618 O 0.74186 0.78386 0.78246 0.0
O619 O 0.72091 0.75943 0.81601 0.0
O620 O 0.77636 0.81981 0.69636 0.0
O621 O 0.76504 0.75427 0.67535 0.0
C622 C 0.71725 0.69707 0.77257 0.0
C623 C 0.79231 0.73398 0.78712 0.0
C624 C 0.69952 0.7793 0.71143 0.0
C625 C 0.77846 0.81188 0.72198 0.0
C626 C 0.76191 0.72947 0.68563 0.0
C627 C 0.73006 0.78306 0.80674 0.0
O628 O 0.72958 0.72113 0.76649 0.0
O629 O 0.71672 0.69178 0.79905 0.0
O630 O 0.53777 0.52986 0.49522 0.0
Mn631 Mn 0.50138 0.50601 0.5021 0.0
O632 O 0.5719 0.49835 0.48988 0.0
Mn633 Mn 0.55281 0.46947 0.50771 0.0
O634 O 0.46393 0.48297 0.50879 0.0
O635 O 0.48367 0.54517 0.50992 0.0
Mn636 Mn 0.45287 0.5445 0.49065 0.0
O637 O 0.49305 0.50603 0.4594 0.0
O638 O 0.43093 0.51588 0.50506 0.0
O639 O 0.5109 0.5047 0.54474 0.0
O640 O 0.54761 0.4758 0.54595 0.0
O641 O 0.45435 0.58043 0.50823 0.0
O642 O 0.46085 0.53893 0.45279 0.0
C643 C 0.52526 0.44114 0.48511 0.0
C644 C 0.56269 0.52382 0.48897 0.0
C645 C 0.43854 0.49038 0.50992 0.0
C646 C 0.47709 0.57138 0.51821 0.0
C647 C 0.47769 0.52011 0.44346 0.0
C648 C 0.52945 0.49157 0.55812 0.0
O649 O 0.51955 0.46742 0.49367 0.0
O650 O 0.54962 0.43293 0.4912 0.0
O651 O 0.9697 0.48547 0.98785 0.0
Mn652 Mn 0.00149 0.51006 0.00668 0.0
O653 O 0.93806 0.51635 0.97486 0.0
Mn654 Mn 0.94767 0.54324 0.00299 0.0
O655 O 0.03393 0.53477 0.02502 0.0
O656 O 0.01982 0.47185 0.01302 0.0
Mn657 Mn 0.05496 0.47673 0.00577 0.0
O658 O 0.02016 0.51292 0.96756 0.0
O659 O 0.06771 0.50381 0.0321 0.0
O660 O 0.98116 0.50782 0.04552 0.0
O661 O 0.94158 0.53133 0.03923 0.0
O662 O 0.05147 0.43886 0.01466 0.0
O663 O 0.05849 0.4869 0.96884 0.0
C664 C 0.97923 0.57429 0.99451 0.0
C665 C 0.9478 0.49101 0.97452 0.0
C666 C 0.05752 0.52888 0.03494 0.0
C667 C 0.02598 0.44542 0.01832 0.0
C668 C 0.04212 0.503 0.95621 0.0
C669 C 0.95739 0.51649 0.05404 0.0
O670 O 0.98331 0.54761 -0.00013 0.0
O671 O 0.95377 0.58158 -0.00473 0.0
H672 H 0.01235 0.18489 0.0602 0.0
H673 H 0.97165 0.16378 0.13739 0.0
H674 H 0.97352 0.11209 0.12408 0.0
H675 H 0.97689 0.07496 0.08568 0.0
H676 H 0.01655 0.09581 0.00801 0.0
H677 H 0.0265 0.14509 0.02669 0.0
C678 C 0.00488 0.16881 0.07446 0.0
C679 C 0.99174 0.17791 0.09961 0.0
C680 C 0.00593 0.13907 0.06654 0.0
C681 C 0.98193 0.1571 0.11798 0.0
C682 C 0.98289 0.12758 0.11031 0.0
C683 C 0.98918 0.08981 0.07353 0.0
C684 C -0.00412 0.08191 0.0455 0.0
C685 C -0.00642 0.11845 0.08401 0.0
C686 C 0.01145 0.10134 0.02975 0.0
C687 C 0.01654 0.12976 0.04023 0.0
H688 H 0.06822 0.7478 0.26351 0.0
H689 H 0.08838 0.77314 0.34934 0.0
H690 H 0.13646 0.77917 0.33622 0.0
H691 H 0.17326 0.76983 0.30237 0.0
H692 H 0.1545 0.73749 0.21847 0.0
H693 H 0.10531 0.74289 0.22818 0.0
C694 C 0.08311 0.75508 0.2792 0.0
C695 C 0.07488 0.7596 0.30742 0.0
C696 C 0.11091 0.75757 0.27167 0.0
C697 C 0.09431 0.76905 0.32758 0.0
C698 C 0.12177 0.77266 0.32007 0.0
C699 C 0.15833 0.7652 0.28589 0.0
C700 C 0.16719 0.75384 0.25964 0.0
C701 C 0.13038 0.76608 0.29242 0.0
C702 C 0.14797 0.74695 0.23858 0.0
C703 C 0.11991 0.7495 0.24436 0.0
H704 H 0.46929 0.83291 0.54189 0.0
H705 H 0.5356 0.8378 0.60169 0.0
H706 H 0.55309 0.88182 0.58125 0.0
H707 H 0.55045 0.9186 0.54605 0.0
H708 H 0.48821 0.91155 0.48278 0.0
H709 H 0.46743 0.86951 0.50542 0.0
C710 C 0.48768 0.84346 0.55033 0.0
C711 C 0.50106 0.83182 0.57334 0.0
C712 C 0.49782 0.86896 0.53837 0.0
C713 C 0.5249 0.84593 0.58391 0.0
C714 C 0.53484 0.87135 0.5724 0.0
C715 C 0.53184 0.90829 0.53781 0.0
C716 C 0.51961 0.91913 0.514 0.0
C717 C 0.52142 0.88312 0.54979 0.0
C718 C 0.49647 0.90484 0.50242 0.0
C719 C 0.48522 0.88031 0.51488 0.0
H720 H 0.43176 0.28696 0.79042 0.0
H721 H 0.38991 0.24612 0.85888 0.0
H722 H 0.34589 0.25987 0.84049 0.0
H723 H 0.31953 0.27536 0.80093 0.0
H724 H 0.36112 0.31133 0.72969 0.0
H725 H 0.40489 0.30888 0.75384 0.0
C726 C 0.41302 0.28142 0.80151 0.0
C727 C 0.41408 0.26515 0.82571 0.0
C728 C 0.3877 0.28865 0.79036 0.0
C729 C 0.38969 0.25849 0.84011 0.0
C730 C 0.36446 0.26633 0.82959 0.0
C731 C 0.33801 0.28352 0.79095 0.0
C732 C 0.33717 0.29269 0.76321 0.0
C733 C 0.36321 0.28036 0.80416 0.0
C734 C 0.36128 0.30366 0.75086 0.0
C735 C 0.38637 0.30196 0.76452 0.0
H736 H 0.95338 0.84384 0.4101 0.0
H737 H 0.03765 0.81751 0.40582 0.0
H738 H 0.05281 0.86609 0.42211 0.0
H739 H 0.04144 0.91315 0.44457 0.0
H740 H 0.95743 0.9395 0.44976 0.0
H741 H 0.94275 0.89439 0.42476 0.0
C742 C 0.97504 0.84885 0.4127 0.0
C743 C -0.00563 0.82701 0.40772 0.0
C744 C 0.98361 0.87694 0.42166 0.0
C745 C 0.02242 0.8339 0.41013 0.0
C746 C 0.03109 0.86167 0.41926 0.0
C747 C 0.0201 0.90954 0.43893 0.0
C748 C 0.0005 0.92939 0.44879 0.0
C749 C 0.01182 0.88307 0.42586 0.0
C750 C 0.97284 0.92459 0.44189 0.0
C751 C 0.96443 0.89853 0.4282 0.0
H752 H 0.42023 0.76008 0.71784 0.0
H753 H 0.39481 0.74961 0.63143 0.0
H754 H 0.34771 0.73956 0.64657 0.0
H755 H 0.31477 0.72899 0.68461 0.0
H756 H 0.34042 0.73932 0.7708 0.0
H757 H 0.38618 0.75514 0.75571 0.0
C758 C 0.40435 0.75557 0.70235 0.0
C759 C 0.41106 0.75496 0.67358 0.0
C760 C 0.37729 0.75027 0.71122 0.0
C761 C 0.39021 0.74988 0.6537 0.0
C762 C 0.36326 0.74422 0.66234 0.0
C763 C 0.33018 0.73574 0.69997 0.0
C764 C 0.32438 0.73351 0.72869 0.0
C765 C 0.35664 0.7439 0.69105 0.0
C766 C 0.34449 0.7415 0.74858 0.0
C767 C 0.37071 0.7501 0.73994 0.0
H768 H 0.45204 0.18017 0.95443 0.0
H769 H 0.53419 0.2019 0.92729 0.0
H770 H 0.55151 0.15931 0.9494 0.0
H771 H 0.54182 0.11131 0.96786 0.0
H772 H 0.45904 0.08725 0.98941 0.0
H773 H 0.44346 0.13541 0.97903 0.0
C774 C 0.47385 0.1761 0.95407 0.0
C775 C 0.4917 0.19384 0.93872 0.0
C776 C 0.48349 0.15089 0.96574 0.0
C777 C 0.51993 0.1883 0.93857 0.0
C778 C 0.52985 0.16387 0.9511 0.0
C779 C 0.52052 0.11699 0.97099 0.0
C780 C 0.50157 0.096 0.97998 0.0
C781 C 0.5116 0.14423 0.96338 0.0
C782 C 0.47405 0.10342 0.98379 0.0
C783 C 0.46511 0.13081 0.9772 0.0
H784 H 0.07279 0.24012 0.1802 0.0
H785 H 0.0603 0.3248 0.21954 0.0
H786 H 0.10632 0.32466 0.23942 0.0
H787 H 0.15197 0.30286 0.24085 0.0
H788 H 0.164 0.21749 0.20337 0.0
H789 H 0.11619 0.21513 0.18792 0.0
C790 C 0.08014 0.25845 0.19324 0.0
C791 C 0.06346 0.28274 0.19784 0.0
C792 C 0.10644 0.25798 0.20507 0.0
C793 C 0.0729 0.30602 0.21539 0.0
C794 C 0.09919 0.30595 0.2268 0.0
C795 C 0.14372 0.28338 0.2302 0.0
C796 C 0.16116 0.26027 0.22346 0.0
C797 C 0.11635 0.28235 0.22123 0.0
C798 C 0.15064 0.23525 0.20925 0.0
C799 C 0.12346 0.23411 0.20007 0.0
H800 H 0.04142 0.01021 0.18354 0.0
H801 H 0.12204 0.97574 0.1679 0.0
H802 H 0.1118 0.96871 0.11818 0.0
H803 H 0.08004 0.97109 0.07958 0.0
H804 H -0.00063 0.00582 0.09389 0.0
H805 H 0.00954 0.01377 0.14391 0.0
C806 C 0.05677 0.00134 0.1692 0.0
C807 C 0.08236 0.99332 0.17942 0.0
C808 C 0.05068 0.99708 0.14054 0.0
C809 C 0.10209 0.98189 0.16061 0.0
C810 C 0.09627 0.9778 0.13217 0.0
C811 C 0.06451 0.9802 0.09357 0.0
C812 C 0.03887 0.98751 0.08303 0.0
C813 C 0.07056 0.98499 0.12201 0.0
C814 C 0.0192 -0.00029 0.1015 0.0
C815 C 0.02504 0.00439 0.13007 0.0
H816 H 0.24155 0.82861 0.4307 0.0
H817 H 0.32625 0.84798 0.4118 0.0
H818 H 0.32167 0.8234 0.36551 0.0
H819 H 0.29454 0.79235 0.332 0.0
H820 H 0.21105 0.76962 0.3532 0.0
H821 H 0.21402 0.7995 0.39659 0.0
C822 C 0.25887 0.82756 0.4163 0.0
C823 C 0.28424 0.83958 0.42466 0.0
C824 C 0.25634 0.81258 0.39013 0.0
C825 C 0.30661 0.83827 0.4059 0.0
C826 C 0.304 0.82434 0.37942 0.0
C827 C 0.27701 0.7943 0.34604 0.0
C828 C 0.25278 0.77863 0.33971 0.0
C829 C 0.27914 0.81076 0.37154 0.0
C830 C 0.2301 0.78122 0.35797 0.0
C831 C 0.23173 0.79831 0.38275 0.0
H832 H 0.4784 0.0059 0.68555 0.0
H833 H 0.39257 0.99156 0.6669 0.0
H834 H 0.40318 0.98728 0.61688 0.0
H835 H 0.43573 0.9936 0.57851 0.0
H836 H 0.52122 0.00991 0.59597 0.0
H837 H 0.51206 0.00676 0.64659 0.0
C838 C 0.46207 0.00156 0.67055 0.0
C839 C 0.43467 -0.00038 0.67987 0.0
C840 C 0.46828 -0.00057 0.64172 0.0
C841 C 0.41376 0.99367 0.66024 0.0
C842 C 0.41979 0.99111 0.63164 0.0
C843 C 0.45242 0.99576 0.59345 0.0
C844 C 0.479 0.00213 0.58391 0.0
C845 C 0.44682 0.99478 0.62218 0.0
C846 C 0.50063 0.00477 0.60309 0.0
C847 C 0.4953 0.00332 0.63194 0.0
H848 H 0.27178 0.15513 0.89244 0.0
H849 H 0.28381 0.22874 0.95006 0.0
H850 H 0.27731 0.26171 0.91168 0.0
H851 H 0.26363 0.26916 0.86275 0.0
H852 H 0.25385 0.19572 0.80454 0.0
H853 H 0.26509 0.16295 0.84175 0.0
C854 C 0.27289 0.17843 0.89649 0.0
C855 C 0.27733 0.18967 0.92411 0.0
C856 C 0.27008 0.19712 0.87413 0.0
C857 C 0.27975 0.21975 0.92908 0.0
C858 C 0.27624 0.23852 0.90711 0.0
C859 C 0.26504 0.24604 0.858 0.0
C860 C 0.25817 0.23483 0.83091 0.0
C861 C 0.27096 0.22743 0.87966 0.0
C862 C 0.25967 0.20487 0.82502 0.0
C863 C 0.26553 0.18612 0.84649 0.0
H864 H 0.11487 0.00029 0.36126 0.0
H865 H 0.03749 0.99156 0.31814 0.0
H866 H 0.01295 -0.0004 0.36245 0.0
H867 H 0.01367 0.01598 0.4119 0.0
H868 H 0.09063 0.02995 0.45426 0.0
H869 H 0.1154 0.01208 0.41217 0.0
C870 C 0.09267 -4e-05 0.36166 0.0
C871 C 0.07797 0.99606 0.33653 0.0
C872 C 0.07871 0.00526 0.38712 0.0
C873 C 0.0492 0.99535 0.33723 0.0
C874 C 0.03516 -0.00032 0.36254 0.0
C875 C 0.0358 0.01401 0.41204 0.0
C876 C 0.05052 0.02365 0.43579 0.0
C877 C 0.04971 0.00552 0.38741 0.0
C878 C 0.07912 0.02194 0.43606 0.0
C879 C 0.0932 0.0122 0.41194 0.0
H880 H 0.27201 0.78889 0.56045 0.0
H881 H 0.27056 0.87919 0.58795 0.0
H882 H 0.26196 0.86602 0.636 0.0
H883 H 0.25328 0.83011 0.66971 0.0
H884 H 0.25024 0.73923 0.6452 0.0
H885 H 0.26264 0.75106 0.59646 0.0
C886 C 0.26955 0.80544 0.57708 0.0
C887 C 0.27142 0.835 0.57081 0.0
C888 C 0.26397 0.79764 0.60499 0.0
C889 C 0.26861 0.8564 0.59235 0.0
C890 C 0.26391 0.84891 0.61981 0.0
C891 C 0.25522 0.81275 0.65372 0.0
C892 C 0.25042 0.78395 0.66078 0.0
C893 C 0.2613 0.81977 0.62625 0.0
C894 C 0.25379 0.76163 0.64012 0.0
C895 C 0.26065 0.76846 0.61231 0.0
H896 H 0.39597 0.00304 0.85951 0.0
H897 H 0.4548 0.95376 0.81006 0.0
H898 H 0.47656 0.93896 0.85283 0.0
H899 H 0.48583 0.95125 0.90223 0.0
H900 H 0.42924 0.00369 0.95104 0.0
H901 H 0.39857 0.00468 0.9108 0.0
C902 C 0.413 0.98835 0.85805 0.0
C903 C 0.42447 0.98039 0.83179 0.0
C904 C 0.42577 0.98053 0.88264 0.0
C905 C 0.44623 0.96095 0.83016 0.0
C906 C 0.45859 0.95237 0.85457 0.0
C907 C 0.46624 0.96189 0.90423 0.0
C908 C 0.46009 0.9783 0.92879 0.0
C909 C 0.44965 0.96369 0.88072 0.0
C910 C 0.43446 0.99134 0.93193 0.0
C911 C 0.41715 0.99224 0.90884 0.0
H912 H 0.31055 0.15895 0.08362 0.0
H913 H 0.22758 0.15962 0.05304 0.0
H914 H 0.21195 0.18011 0.0984 0.0
H915 H 0.22255 0.20265 0.14499 0.0
H916 H 0.30481 0.20093 0.17671 0.0
H917 H 0.31996 0.17543 0.13311 0.0
C918 C 0.28902 0.16346 0.08694 0.0
C919 C 0.27035 0.15829 0.06463 0.0
C920 C 0.28003 0.17482 0.11341 0.0
C921 C 0.24245 0.16362 0.06961 0.0
C922 C 0.23347 0.17533 0.0956 0.0
C923 C 0.24361 0.19578 0.14269 0.0
C924 C 0.26249 0.20337 0.16414 0.0
C925 C 0.25214 0.18156 0.11745 0.0
C926 C 0.2898 0.1948 0.16078 0.0
C927 C 0.29851 0.18064 0.13564 0.0
H928 H 0.16477 0.09794 0.96312 0.0
H929 H 0.18473 0.06134 0.04221 0.0
H930 H 0.13824 0.04251 0.04663 0.0
H931 H 0.0935 0.0316 0.02609 0.0
H932 H 0.07321 0.06375 0.9456 0.0
H933 H 0.11751 0.09018 0.94416 0.0
C934 C 0.1588 0.0862 0.98148 0.0
C935 C 0.17847 0.08097 0.00219 0.0
C936 C 0.13176 0.07491 0.98382 0.0
C937 C 0.17028 0.06567 0.02584 0.0
C938 C 0.14357 0.05488 0.02848 0.0
C939 C 0.09846 0.04524 0.00868 0.0
C940 C 0.08005 0.0463 0.98627 0.0
C941 C 0.12436 0.05883 0.00738 0.0
C942 C 0.08687 0.06322 0.96338 0.0
C943 C 0.11237 0.07791 0.96241 0.0
H944 H 0.67395 0.4106 0.98269 0.0
H945 H 0.6956 0.46128 0.05785 0.0
H946 H 0.65039 0.48272 0.05933 0.0
H947 H 0.60324 0.48431 0.04145 0.0
H948 H 0.58121 0.43385 0.96661 0.0
H949 H 0.62794 0.41559 0.96238 0.0
C950 C 0.66873 0.42632 -0.00064 0.0
C951 C 0.68801 0.43395 0.02034 0.0
C952 C 0.64266 0.43888 -4e-05 0.0
C953 C 0.6811 0.45478 0.04154 0.0
C954 C 0.65524 0.46716 0.0424 0.0
C955 C 0.60904 0.47 0.02381 0.0
C956 C 0.5892 0.4607 0.00412 0.0
C957 C 0.63573 0.45913 0.02195 0.0
C958 C 0.59649 0.44162 0.98167 0.0
C959 C 0.62307 0.43094 0.97947 0.0
H960 H 0.85262 0.42443 0.24727 0.0
H961 H 0.83206 0.42992 0.33571 0.0
H962 H 0.81408 0.38051 0.33292 0.0
H963 H 0.79571 0.3399 0.30367 0.0
H964 H 0.81389 0.3345 0.21512 0.0
H965 H 0.84199 0.379 0.21969 0.0
C966 C 0.84461 0.41464 0.266 0.0
C967 C 0.84278 0.4313 0.29139 0.0
C968 C 0.8339 0.38609 0.26424 0.0
C969 C 0.8329 0.41802 0.31562 0.0
C970 C 0.82273 0.38962 0.31415 0.0
C971 C 0.80699 0.34777 0.28572 0.0
C972 C 0.80298 0.33413 0.2592 0.0
C973 C 0.82194 0.37397 0.28834 0.0
C974 C 0.81713 0.34459 0.23584 0.0
C975 C 0.83276 0.37031 0.23838 0.0
H976 H 0.85501 0.58729 0.47773 0.0
H977 H 0.80095 0.52963 0.52231 0.0
H978 H 0.83945 0.49997 0.53367 0.0
H979 H 0.88828 0.49315 0.53547 0.0
H980 H 0.94407 0.5498 0.49274 0.0
H981 H 0.90504 0.5768 0.47525 0.0
C982 C 0.85173 0.56824 0.48992 0.0
C983 C 0.82519 0.56108 0.49975 0.0
C984 C 0.87417 0.55113 0.49654 0.0
C985 C 0.82115 0.53596 0.51494 0.0
C986 C 0.84314 0.51886 0.52133 0.0
C987 C 0.89193 0.51121 0.52199 0.0
C988 C 0.91886 0.52028 0.51609 0.0
C989 C 0.86968 0.52665 0.51286 0.0
C990 C 0.92342 0.54299 0.49795 0.0
C991 C 0.90112 0.55842 0.48819 0.0
H992 H 0.20155 0.05963 0.25367 0.0
H993 H 0.12402 0.08952 0.28607 0.0
H994 H 0.13879 0.13993 0.28031 0.0
H995 H 0.17695 0.17493 0.27469 0.0
H996 H 0.25473 0.14527 0.24312 0.0
H997 H 0.23648 0.09558 0.23839 0.0
C998 C 0.1878 0.07726 0.25887 0.0
C999 C 0.16198 0.07115 0.27073 0.0
C1000 C 0.19642 0.1062 0.25532 0.0
C1001 C 0.14409 0.09392 0.27716 0.0
C1002 C 0.15252 0.12269 0.27382 0.0
C1003 C 0.18934 0.15782 0.26521 0.0
C1004 C 0.21705 0.16371 0.25907 0.0
C1005 C 0.17902 0.12912 0.26393 0.0
C1006 C 0.23318 0.14131 0.24746 0.0
C1007 C 0.22291 0.11276 0.24543 0.0
H1008 H 0.35966 0.90401 0.48637 0.0
H1009 H 0.3131 0.97384 0.45469 0.0
H1010 H 0.35549 -0.00045 0.44284 0.0
H1011 H 0.40486 0.00627 0.45086 0.0
H1012 H 0.45011 0.938 0.48676 0.0
H1013 H 0.40943 0.90682 0.48622 0.0
C1014 C 0.35869 0.92452 0.47639 0.0
C1015 C 0.33336 0.93738 0.47221 0.0
C1016 C 0.38303 0.93936 0.4702 0.0
C1017 C 0.33246 0.96373 0.45861 0.0
C1018 C 0.35667 0.97846 0.45184 0.0
C1019 C 0.40594 0.98421 0.4577 0.0
C1020 C 0.43038 0.97441 0.46906 0.0
C1021 C 0.38201 0.96712 0.4589 0.0
C1022 C 0.43173 0.94576 0.47748 0.0
C1023 C 0.40826 0.92816 0.47773 0.0
H1024 H 0.81788 0.57109 0.2214 0.0
H1025 H 0.77581 0.56803 0.30129 0.0
H1026 H 0.75598 0.61509 0.29417 0.0
H1027 H 0.75966 0.66162 0.27047 0.0
H1028 H 0.80362 0.66458 0.19163 0.0
H1029 H 0.8133 0.61327 0.19308 0.0
C1030 C 0.80363 0.58017 0.23684 0.0
C1031 C 0.79932 0.56658 0.26231 0.0
C1032 C 0.79314 0.60777 0.23317 0.0
C1033 C 0.78017 0.57839 0.28173 0.0
C1034 C 0.76895 0.6055 0.27783 0.0
C1035 C 0.77075 0.65081 0.25332 0.0
C1036 C 0.78173 0.66702 0.23151 0.0
C1037 C 0.7768 0.62122 0.25451 0.0
C1038 C 0.79571 0.6527 0.20917 0.0
C1039 C 0.80118 0.62331 0.20987 0.0
H1040 H 0.71196 0.41663 0.79365 0.0
H1041 H 0.65828 0.41944 0.72194 0.0
H1042 H 0.67224 0.37145 0.70595 0.0
H1043 H 0.70221 0.33075 0.70961 0.0
H1044 H 0.75876 0.32795 0.77825 0.0
H1045 H 0.74042 0.37338 0.79894 0.0
C1046 C 0.70344 0.40679 0.77446 0.0
C1047 C 0.68443 0.42191 0.75881 0.0
C1048 C 0.71162 0.37899 0.76518 0.0
C1049 C 0.67333 0.40866 0.73417 0.0
C1050 C 0.68104 0.38103 0.72511 0.0
C1051 C 0.70982 0.33971 0.72961 0.0
C1052 C 0.73134 0.32629 0.74271 0.0
C1053 C 0.70034 0.36625 0.74022 0.0
C1054 C 0.74162 0.33786 0.76831 0.0
C1055 C 0.73154 0.36404 0.77973 0.0
H1056 H 0.95661 0.83136 0.92447 0.0
H1057 H 0.03739 0.80895 0.89387 0.0
H1058 H 0.05609 0.85402 0.91441 0.0
H1059 H 0.05048 0.8987 0.94153 0.0
H1060 H 0.97124 0.92332 0.97407 0.0
H1061 H 0.95072 0.87899 0.95141 0.0
C1062 C 0.97828 0.83642 0.92232 0.0
C1063 C -0.00445 0.81661 0.90754 0.0
C1064 C 0.98909 0.86289 0.93416 0.0
C1065 C 0.02355 0.82367 0.90484 0.0
C1066 C 0.03431 0.84951 0.91662 0.0
C1067 C 0.02862 0.89461 0.94372 0.0
C1068 C 0.01248 0.91425 0.95974 0.0
C1069 C 0.01736 0.86913 0.9313 0.0
C1070 C 0.98415 0.90868 0.96181 0.0
C1071 C 0.97252 0.88316 0.94906 0.0
H1072 H 0.92519 0.21976 0.67613 0.0
H1073 H 0.94941 0.296 0.72578 0.0
H1074 H 0.90425 0.29711 0.74867 0.0
H1075 H 0.85573 0.28077 0.74832 0.0
H1076 H 0.83188 0.20431 0.69878 0.0
H1077 H 0.87912 0.19816 0.68255 0.0
C1078 C 0.92066 0.23604 0.69256 0.0
C1079 C 0.94014 0.25782 0.69939 0.0
C1080 C 0.89478 0.23642 0.70554 0.0
C1081 C 0.93446 0.27901 0.72048 0.0
C1082 C 0.90868 0.27969 0.73341 0.0
C1083 C 0.86126 0.26212 0.73498 0.0
C1084 C 0.84072 0.24281 0.72491 0.0
C1085 C 0.88837 0.25911 0.72536 0.0
C1086 C 0.84767 0.21905 0.7071 0.0
C1087 C 0.87456 0.21578 0.69755 0.0
H1088 H 0.52472 0.15755 0.40634 0.0
H1089 H 0.51476 0.21667 0.478 0.0
H1090 H 0.51912 0.17678 0.50967 0.0
H1091 H 0.51208 0.12485 0.51556 0.0
H1092 H 0.5139 0.06568 0.4433 0.0
H1093 H 0.52737 0.1051 0.41337 0.0
C1094 C 0.52482 0.16176 0.42894 0.0
C1095 C 0.51939 0.18982 0.44 0.0
C1096 C 0.5254 0.13838 0.44685 0.0
C1097 C 0.51897 0.19517 0.46919 0.0
C1098 C 0.5212 0.17232 0.48723 0.0
C1099 C 0.51681 0.12049 0.49348 0.0
C1100 C 0.51233 0.09245 0.48165 0.0
C1101 C 0.52242 0.1437 0.47618 0.0
C1102 C 0.51807 0.08686 0.45304 0.0
C1103 C 0.52512 0.10965 0.43579 0.0
H1104 H 0.58258 0.7088 0.17599 0.0
H1105 H 0.59459 0.79417 0.14398 0.0
H1106 H 0.64244 0.79464 0.15895 0.0
H1107 H 0.67738 0.7749 0.18953 0.0
H1108 H 0.66252 0.69242 0.22623 0.0
H1109 H 0.61958 0.68613 0.20037 0.0
C1110 C 0.59572 0.72739 0.17192 0.0
C1111 C 0.58487 0.75178 0.1597 0.0
C1112 C 0.62276 0.7279 0.18142 0.0
C1113 C 0.60233 0.77537 0.15394 0.0
C1114 C 0.62968 0.77565 0.16247 0.0
C1115 C 0.66517 0.75509 0.19083 0.0
C1116 C 0.6728 0.73407 0.20948 0.0
C1117 C 0.6397 0.75262 0.17741 0.0
C1118 C 0.65687 0.70867 0.2117 0.0
C1119 C 0.63224 0.70529 0.19723 0.0
H1120 H 0.02423 0.17548 0.61797 0.0
H1121 H 0.93735 0.16207 0.60479 0.0
H1122 H 0.94551 0.11328 0.58515 0.0
H1123 H 0.9777 0.07841 0.56437 0.0
H1124 H 0.06453 0.09429 0.57206 0.0
H1125 H 0.05615 0.1377 0.60215 0.0
C1126 C 0.007 0.16173 0.61127 0.0
C1127 C 0.98025 0.17265 0.61241 0.0
C1128 C 0.01191 0.134 0.59925 0.0
C1129 C 0.95819 0.15444 0.60373 0.0
C1130 C 0.96282 0.12647 0.59259 0.0
C1131 C -0.00528 0.09052 0.57399 0.0
C1132 C 0.02167 0.08289 0.56682 0.0
C1133 C 0.98965 0.11646 0.58936 0.0
C1134 C 0.04367 0.09946 0.57804 0.0
C1135 C 0.03882 0.12452 0.59476 0.0
H1136 H 0.5904 0.21948 0.28878 0.0
H1137 H 0.59339 0.27163 0.36614 0.0
H1138 H 0.63855 0.29083 0.3534 0.0
H1139 H 0.67431 0.29747 0.31756 0.0
H1140 H 0.66893 0.24932 0.23831 0.0
H1141 H 0.62772 0.22374 0.25428 0.0
C1142 C 0.60118 0.23469 0.30299 0.0
C1143 C 0.5886 0.24443 0.32814 0.0
C1144 C 0.62667 0.24639 0.29509 0.0
C1145 C 0.60262 0.2642 0.34642 0.0
C1146 C 0.62841 0.27514 0.33919 0.0
C1147 C 0.66447 0.28068 0.30429 0.0
C1148 C 0.67491 0.27432 0.27735 0.0
C1149 C 0.64024 0.26705 0.31322 0.0
C1150 C 0.66172 0.25348 0.25964 0.0
C1151 C 0.63794 0.23927 0.26859 0.0
H1152 H 0.52652 0.82329 0.06834 0.0
H1153 H 0.44453 0.80373 0.03865 0.0
H1154 H 0.4444 0.84905 0.0144 0.0
H1155 H 0.46256 0.89908 0.01305 0.0
H1156 H 0.54337 0.91961 0.04458 0.0
H1157 H 0.5492 0.86907 0.05648 0.0
C1158 C 0.5089 0.8285 0.0559 0.0
C1159 C 0.48509 0.81079 0.05641 0.0
C1160 C 0.50858 0.85509 0.04279 0.0
C1161 C 0.46285 0.81736 0.03935 0.0
C1162 C 0.46266 0.84341 0.02558 0.0
C1163 C 0.48181 0.89206 0.02145 0.0
C1164 C 0.50244 0.91265 0.02823 0.0
C1165 C 0.48461 0.86326 0.0289 0.0
C1166 C 0.52735 0.9038 0.03914 0.0
C1167 C 0.53053 0.87503 0.04618 0.0
H1168 H 0.90644 0.71679 0.84384 0.0
H1169 H 0.9318 0.78355 0.78817 0.0
H1170 H 0.88514 0.7847 0.76931 0.0
H1171 H 0.83673 0.7662 0.76885 0.0
H1172 H 0.8137 0.69792 0.8241 0.0
H1173 H 0.85988 0.69765 0.84245 0.0
C1174 C 0.90181 0.73184 0.82776 0.0
C1175 C 0.92254 0.75026 0.81767 0.0
C1176 C 0.87532 0.73182 0.81661 0.0
C1177 C 0.91616 0.76926 0.79647 0.0
C1178 C 0.88951 0.7698 0.78558 0.0
C1179 C 0.84197 0.75102 0.7846 0.0
C1180 C 0.8216 0.73219 0.79508 0.0
C1181 C 0.86889 0.75098 0.79536 0.0
C1182 C 0.82877 0.71282 0.81572 0.0
C1183 C 0.85523 0.71266 0.82635 0.0
H1184 H 0.94904 -0.00058 0.82079 0.0
H1185 H 0.87123 0.03748 0.84319 0.0
H1186 H 0.88507 0.04297 0.89185 0.0
H1187 H 0.91886 0.03823 0.92771 0.0
H1188 H -0.00302 -0.00012 0.90768 0.0
H1189 H 0.98348 0.99364 0.85818 0.0
C1190 C 0.9351 0.0087 0.8364 0.0
C1191 C 0.90907 0.01786 0.82832 0.0
C1192 C 0.94332 0.01215 0.86461 0.0
C1193 C 0.89125 0.02996 0.84874 0.0
C1194 C 0.8992 0.03333 0.87663 0.0
C1195 C 0.93323 0.02873 0.91263 0.0
C1196 C 0.95907 0.01988 0.92137 0.0
C1197 C 0.92521 0.02479 0.88468 0.0
C1198 C 0.97704 0.00712 0.90145 0.0
C1199 C 0.96927 0.00344 0.87321 0.0
H1200 H 0.73797 0.16302 0.56849 0.0
H1201 H 0.82553 0.17464 0.57726 0.0
H1202 H 0.81985 0.18745 0.62709 0.0
H1203 H 0.79011 0.20129 0.66635 0.0
H1204 H 0.70258 0.19808 0.65646 0.0
H1205 H 0.70786 0.17458 0.60942 0.0
C1206 C 0.75576 0.1681 0.58143 0.0
C1207 C 0.7821 0.16824 0.56915 0.0
C1208 C 0.75228 0.1764 0.60999 0.0
C1209 C 0.80502 0.17488 0.5861 0.0
C1210 C 0.80182 0.18196 0.61464 0.0
C1211 C 0.77221 0.19427 0.65426 0.0
C1212 C 0.74604 0.2006 0.66482 0.0
C1213 C 0.77557 0.18343 0.62661 0.0
C1214 C 0.72288 0.1926 0.64885 0.0
C1215 C 0.72597 0.17975 0.62181 0.0
H1216 H 0.59201 0.04513 0.32956 0.0
H1217 H 0.52898 0.98921 0.29307 0.0
H1218 H 0.50517 0.98815 0.33846 0.0
H1219 H 0.51036 0.99184 0.39021 0.0
H1220 H 0.57575 0.04486 0.42637 0.0
H1221 H 0.59068 0.05865 0.37965 0.0
C1222 C 0.57254 0.03362 0.33147 0.0
C1223 C 0.56256 0.01652 0.30868 0.0
C1224 C 0.55988 0.03203 0.35775 0.0
C1225 C 0.53703 0.00229 0.31069 0.0
C1226 C 0.52367 0.00134 0.3367 0.0
C1227 C 0.52722 0.00718 0.38767 0.0
C1228 C 0.54243 0.017 0.41112 0.0
C1229 C 0.5361 0.0143 0.36072 0.0
C1230 C 0.56416 0.03693 0.40818 0.0
C1231 C 0.57268 0.04474 0.38159 0.0
H1232 H 0.72195 0.83638 0.09563 0.0
H1233 H 0.75888 0.76804 0.04451 0.0
H1234 H 0.76701 0.74085 0.08618 0.0
H1235 H 0.774 0.74258 0.13693 0.0
H1236 H 0.73946 0.81094 0.18903 0.0
H1237 H 0.7192 0.83182 0.14746 0.0
C1238 C 0.73057 0.81493 0.0935 0.0
C1239 C 0.74032 0.80449 0.06704 0.0
C1240 C 0.73614 0.79979 0.11785 0.0
C1241 C 0.75149 0.77667 0.06464 0.0
C1242 C 0.7564 0.76122 0.08852 0.0
C1243 C 0.76121 0.76151 0.13925 0.0
C1244 C 0.7585 0.77574 0.16577 0.0
C1245 C 0.75046 0.77349 0.11525 0.0
C1246 C 0.74175 0.79993 0.16873 0.0
C1247 C 0.73048 0.8119 0.14489 0.0
H1248 H 0.9179 0.04515 0.63951 0.0
H1249 H 0.89896 0.96044 0.67047 0.0
H1250 H 0.92077 0.93753 0.6295 0.0
H1251 H 0.95061 0.94146 0.58914 0.0
H1252 H 0.97195 0.02517 0.55806 0.0
H1253 H 0.94313 0.04867 0.59432 0.0
C1254 C 0.91816 0.0217 0.63696 0.0
C1255 C 0.90745 0.0045 0.65824 0.0
C1256 C 0.93129 0.00854 0.61351 0.0
C1257 C 0.90763 0.97414 0.65464 0.0
C1258 C 0.92001 0.96099 0.6312 0.0
C1259 C 0.94875 0.96486 0.59002 0.0
C1260 C 0.96421 0.98173 0.57171 0.0
C1261 C 0.93281 0.97799 0.61117 0.0
C1262 C 0.96088 0.01185 0.57246 0.0
C1263 C 0.94442 0.02525 0.59324 0.0
H1264 H 0.72793 0.17321 0.41639 0.0
H1265 H 0.78643 0.24025 0.44198 0.0
H1266 H 0.78344 0.26131 0.39595 0.0
H1267 H 0.77194 0.25399 0.34541 0.0
H1268 H 0.71714 0.18363 0.31966 0.0
H1269 H 0.71075 0.17071 0.36842 0.0
C1270 C 0.73924 0.19307 0.41233 0.0
C1271 C 0.75775 0.20479 0.43244 0.0
C1272 C 0.73862 0.20404 0.3853 0.0
C1273 C 0.77224 0.23057 0.42673 0.0
C1274 C 0.77077 0.24246 0.40027 0.0
C1275 C 0.75809 0.23637 0.35072 0.0
C1276 C 0.74532 0.21947 0.32915 0.0
C1277 C 0.75531 0.22834 0.37885 0.0
C1278 C 0.72745 0.19662 0.33606 0.0
C1279 C 0.72378 0.18924 0.3639 0.0
H1280 H 0.6141 0.97777 0.14367 0.0
H1281 H 0.55543 0.0101 0.2049 0.0
H1282 H 0.53244 0.03657 0.16914 0.0
H1283 H 0.52324 0.0415 0.11977 0.0
H1284 H 0.57699 0.0031 0.0571 0.0
H1285 H 0.60862 0.98967 0.09364 0.0
C1286 C 0.59643 0.99085 0.14897 0.0
C1287 C 0.58568 0.99129 0.17634 0.0
C1288 C 0.58266 0.00519 0.12802 0.0
C1289 C 0.56327 0.00874 0.18355 0.0
C1290 C 0.55034 0.0241 0.16324 0.0
C1291 C 0.54242 0.03115 0.11415 0.0
C1292 C 0.54745 0.02243 0.08613 0.0
C1293 C 0.55902 0.02128 0.13525 0.0
C1294 C 0.5726 0.00978 0.07871 0.0
C1295 C 0.59039 0.00153 0.09966 0.0
H1296 H 0.78198 0.85013 0.90988 0.0
H1297 H 0.69987 0.84024 0.94242 0.0
H1298 H 0.68403 0.82224 0.896 0.0
H1299 H 0.69524 0.80269 0.84806 0.0
H1300 H 0.7773 0.81375 0.81575 0.0
H1301 H 0.79119 0.83887 0.8596 0.0
C1302 C 0.76054 0.84437 0.90668 0.0
C1303 C 0.74223 0.84584 0.92969 0.0
C1304 C 0.75153 0.83449 0.87983 0.0
C1305 C 0.71441 0.839 0.92513 0.0
C1306 C 0.70536 0.82867 0.89858 0.0
C1307 C 0.71586 0.81164 0.85027 0.0
C1308 C 0.73507 0.80667 0.8284 0.0
C1309 C 0.72392 0.82547 0.87599 0.0
C1310 C 0.76185 0.81803 0.83174 0.0
C1311 C 0.76998 0.83186 0.85715 0.0
H1312 H 0.83438 0.90662 0.04377 0.0
H1313 H 0.81351 0.9337 0.96132 0.0
H1314 H 0.8604 0.9525 0.95474 0.0
H1315 H 0.90519 0.96652 0.97484 0.0
H1316 H 0.92396 0.94573 0.05968 0.0
H1317 H 0.88025 0.91873 0.06312 0.0
C1318 C 0.84031 0.91636 0.02426 0.0
C1319 C 0.82072 0.91896 0.00301 0.0
C1320 C 0.8669 0.92812 0.02121 0.0
C1321 C 0.8283 0.93183 0.97796 0.0
C1322 C 0.85506 0.94243 0.97422 0.0
C1323 C 0.90004 0.9551 0.99367 0.0
C1324 C 0.91791 0.95725 0.01671 0.0
C1325 C 0.87429 0.94132 -0.00404 0.0
C1326 C 0.91082 0.94346 0.04145 0.0
C1327 C 0.88568 0.92848 0.0435 0.0
H1328 H 0.34697 0.60852 0.01542 0.0
H1329 H 0.31694 0.52026 0.00804 0.0
H1330 H 0.36398 0.50262 0.00983 0.0
H1331 H 0.41427 0.51301 0.00784 0.0
H1332 H 0.44276 0.60208 0.01731 0.0
H1333 H 0.39599 0.61847 0.02079 0.0
C1334 C 0.35076 0.58543 0.0145 0.0
C1335 C 0.32875 0.56572 0.01106 0.0
C1336 C 0.37769 0.57554 0.01572 0.0
C1337 C 0.33373 0.53583 0.0106 0.0
C1338 C 0.36061 0.52575 0.01146 0.0
C1339 C 0.41019 0.53591 0.0111 0.0
C1340 C 0.43206 0.55627 0.01126 0.0
C1341 C 0.38289 0.54547 0.01317 0.0
C1342 C 0.42638 0.58589 0.01609 0.0
C1343 C 0.39957 0.59541 0.0182 0.0
H1344 H 0.14006 0.60741 0.77352 0.0
H1345 H 0.1816 0.55398 0.7109 0.0
H1346 H 0.19786 0.59708 0.68725 0.0
H1347 H 0.20877 0.64889 0.69165 0.0
H1348 H 0.16908 0.70231 0.7555 0.0
H1349 H 0.14174 0.6608 0.77011 0.0
C1350 C 0.15224 0.60545 0.7544 0.0
C1351 C 0.16058 0.57811 0.74425 0.0
C1352 C 0.1614 0.63027 0.74097 0.0
C1353 C 0.17564 0.5752 0.71916 0.0
C1354 C 0.18475 0.59972 0.70562 0.0
C1355 C 0.19312 0.65166 0.70781 0.0
C1356 C 0.19185 0.67802 0.72351 0.0
C1357 C 0.17891 0.62733 0.71721 0.0
C1358 C 0.17095 0.6819 0.74367 0.0
C1359 C 0.15572 0.658 0.75245 0.0
H1360 H 0.14831 0.39733 0.51469 0.0
H1361 H 0.17603 0.47602 0.55865 0.0
H1362 H 0.13253 0.49893 0.54899 0.0
H1363 H 0.09129 0.49937 0.5194 0.0
H1364 H 0.06377 0.4208 0.47554 0.0
H1365 H 0.10228 0.39463 0.49415 0.0
C1366 C 0.14455 0.41931 0.52258 0.0
C1367 C 0.16544 0.43537 0.53653 0.0
C1368 C 0.11964 0.43228 0.51686 0.0
C1369 C 0.16027 0.46348 0.54744 0.0
C1370 C 0.13549 0.4766 0.54184 0.0
C1371 C 0.09315 0.47621 0.51511 0.0
C1372 C 0.07492 0.46175 0.49652 0.0
C1373 C 0.11563 0.46164 0.52538 0.0
C1374 C 0.07755 0.43201 0.49027 0.0
C1375 C 0.0997 0.41722 0.50061 0.0
H1376 H 0.80722 0.92387 0.79214 0.0
H1377 H 0.87596 0.92162 0.73444 0.0
H1378 H 0.86373 0.87203 0.71943 0.0
H1379 H 0.82945 0.83272 0.71685 0.0
H1380 H 0.75833 0.83643 0.77065 0.0
H1381 H 0.77604 0.88117 0.79397 0.0
C1382 C 0.81978 0.91238 0.77661 0.0
C1383 C 0.84214 0.92676 0.76402 0.0
C1384 C 0.81231 0.88389 0.76758 0.0
C1385 C 0.85832 0.91138 0.74411 0.0
C1386 C 0.85142 0.88292 0.73556 0.0
C1387 C 0.81845 0.84278 0.73449 0.0
C1388 C 0.793 0.83104 0.74256 0.0
C1389 C 0.82792 0.8694 0.74637 0.0
C1390 C 0.77849 0.84445 0.76489 0.0
C1391 C 0.78832 0.87047 0.77771 0.0
H1392 H 0.66821 0.11003 0.5029 0.0
H1393 H 0.71172 0.04074 0.53979 0.0
H1394 H 0.66867 0.01563 0.54935 0.0
H1395 H 0.61974 0.00957 0.54041 0.0
H1396 H 0.57564 0.07748 0.50243 0.0
H1397 H 0.61751 0.10751 0.50132 0.0
C1398 C 0.66818 0.08962 0.51333 0.0
C1399 C 0.69314 0.07701 0.52008 0.0
C1400 C 0.64322 0.07515 0.5188 0.0
C1401 C 0.69283 0.05082 0.53408 0.0
C1402 C 0.6682 0.03641 0.53963 0.0
C1403 C 0.61918 0.03135 0.53274 0.0
C1404 C 0.59497 0.04119 0.52108 0.0
C1405 C 0.64341 0.04788 0.5312 0.0
C1406 C 0.59416 0.0695 0.51154 0.0
C1407 C 0.61819 0.08646 0.51047 0.0
H1408 H 0.17541 0.42512 0.71219 0.0
H1409 H 0.23804 0.46406 0.76597 0.0
H1410 H 0.26109 0.41781 0.76696 0.0
H1411 H 0.25551 0.36458 0.76374 0.0
H1412 H 0.19167 0.32545 0.71206 0.0
H1413 H 0.1768 0.37339 0.69912 0.0
C1414 C 0.19467 0.42383 0.72323 0.0
C1415 C 0.20426 0.44756 0.74015 0.0
C1416 C 0.20702 0.39685 0.72489 0.0
C1417 C 0.22973 0.44577 0.75354 0.0
C1418 C 0.24278 0.41925 0.75439 0.0
C1419 C 0.23889 0.36675 0.74902 0.0
C1420 C 0.22415 0.3421 0.73927 0.0
C1421 C 0.23032 0.39429 0.74206 0.0
C1422 C 0.2029 0.34455 0.71996 0.0
C1423 C 0.19445 0.37186 0.71262 0.0
H1424 H 0.34932 0.59552 0.24568 0.0
H1425 H 0.28307 0.53461 0.2596 0.0
H1426 H 0.24972 0.57283 0.25454 0.0
H1427 H 0.24052 0.62431 0.25634 0.0
H1428 H 0.30694 0.68659 0.25098 0.0
H1429 H 0.33913 0.64746 0.24122 0.0
C1430 C 0.32751 0.59065 0.2468 0.0
C1431 C 0.31839 0.56261 0.25319 0.0
C1432 C 0.30865 0.61309 0.24554 0.0
C1433 C 0.29029 0.55622 0.25492 0.0
C1434 C 0.27134 0.57802 0.25205 0.0
C1435 C 0.26197 0.62932 0.25227 0.0
C1436 C 0.27148 0.65819 0.25469 0.0
C1437 C 0.2804 0.6067 0.24888 0.0
C1438 C 0.2991 0.66462 0.249 0.0
C1439 C 0.31758 0.64212 0.24391 0.0
H1440 H 0.51087 0.69337 0.56068 0.0
H1441 H 0.45902 0.66864 0.62951 0.0
H1442 H 0.46003 0.61789 0.61254 0.0
H1443 H 0.46814 0.58279 0.57317 0.0
H1444 H 0.51896 0.60718 0.50362 0.0
H1445 H 0.52706 0.65525 0.5262 0.0
C1446 C 0.50053 0.67665 0.57232 0.0
C1447 C 0.48478 0.68458 0.59621 0.0
C1448 C 0.50113 0.6474 0.5623 0.0
C1449 C 0.47129 0.6629 0.61111 0.0
C1450 C 0.47181 0.63392 0.60136 0.0
C1451 C 0.48223 0.59811 0.56376 0.0
C1452 C 0.49316 0.59138 0.53692 0.0
C1453 C 0.48573 0.62609 0.57636 0.0
C1454 C 0.51078 0.61166 0.52454 0.0
C1455 C 0.5149 0.6394 0.5372 0.0
H1456 H 0.57638 0.28448 0.79099 0.0
H1457 H 0.56635 0.20521 0.8353 0.0
H1458 H 0.61128 0.18977 0.81963 0.0
H1459 H 0.65398 0.19927 0.79593 0.0
H1460 H 0.66797 0.27982 0.75505 0.0
H1461 H 0.62053 0.29378 0.76579 0.0
C1462 C 0.58411 0.26386 0.79712 0.0
C1463 C 0.56807 0.24617 0.8145 0.0
C1464 C 0.61047 0.25516 0.78838 0.0
C1465 C 0.57831 0.21947 0.82229 0.0
C1466 C 0.60397 0.21046 0.81317 0.0
C1467 C 0.64672 0.21987 0.78911 0.0
C1468 C 0.66456 0.23859 0.77495 0.0
C1469 C 0.62026 0.22822 0.79654 0.0
C1470 C 0.65459 0.26492 0.76586 0.0
C1471 C 0.62759 0.27304 0.77233 0.0
H1472 H 0.98437 0.35279 0.09799 0.0
H1473 H 0.00342 0.2972 0.0258 0.0
H1474 H 0.01098 0.33983 -0.00263 0.0
H1475 H 0.01605 0.39281 0.99477 0.0
H1476 H -0.00336 0.44829 0.06691 0.0
H1477 H 0.98372 0.40581 0.09354 0.0
C1478 C 0.99053 0.35018 0.07609 0.0
C1479 C -0.0054 0.32225 0.06409 0.0
C1480 C -0.00618 0.37463 0.05986 0.0
C1481 C 0.00125 0.3187 0.03551 0.0
C1482 C 0.00515 0.34298 0.01928 0.0
C1483 C 0.0079 0.39553 0.01597 0.0
C1484 C 0.00707 0.42342 0.02895 0.0
C1485 C 0.00178 0.37102 0.03136 0.0
C1486 C -0.00318 0.42699 0.05642 0.0
C1487 C 0.99012 0.40268 0.0718 0.0
H1488 H 0.90102 0.74094 0.35357 0.0
H1489 H 0.94461 0.80721 0.30911 0.0
H1490 H 0.90183 0.82286 0.28915 0.0
H1491 H 0.85454 0.8103 0.2761 0.0
H1492 H 0.81238 0.74036 0.3162 0.0
H1493 H 0.85133 0.73438 0.34696 0.0
C1494 C 0.901 0.75925 0.34005 0.0
C1495 C 0.9259 0.77232 0.33204 0.0
C1496 C 0.87643 0.76746 0.32784 0.0
C1497 C 0.92569 0.79628 0.31489 0.0
C1498 C 0.90124 0.80529 0.30351 0.0
C1499 C 0.85363 0.79448 0.29229 0.0
C1500 C 0.83067 0.77593 0.29409 0.0
C1501 C 0.87681 0.78992 0.30854 0.0
C1502 C 0.82952 0.75548 0.31506 0.0
C1503 C 0.8521 0.75159 0.3322 0.0
H1504 H 0.4356 0.3417 0.91211 0.0
H1505 H 0.52037 0.32781 0.88981 0.0
H1506 H 0.53222 0.37715 0.90693 0.0
H1507 H 0.51962 0.42054 0.93564 0.0
H1508 H 0.43559 0.43245 0.96081 0.0
H1509 H 0.42197 0.38806 0.93417 0.0
C1510 C 0.45666 0.34951 0.91077 0.0
C1511 C 0.47722 0.33086 0.90045 0.0
C1512 C 0.46331 0.37772 0.92081 0.0
C1513 C 0.50424 0.34158 0.89812 0.0
C1514 C 0.51102 0.3698 0.90783 0.0
C1515 C 0.49816 0.4141 0.93396 0.0
C1516 C 0.4785 0.42975 0.94964 0.0
C1517 C 0.49087 0.38768 0.92008 0.0
C1518 C 0.45086 0.42098 0.94826 0.0
C1519 C 0.44322 0.39531 0.93355 0.0
H1520 H 0.91613 0.2719 0.20878 0.0
H1521 H 0.90345 0.22758 0.12823 0.0
H1522 H 0.85591 0.21649 0.14092 0.0
H1523 H 0.81975 0.21508 0.17681 0.0
H1524 H 0.83157 0.25984 0.25711 0.0
H1525 H 0.8775 0.27605 0.24253 0.0
C1526 C 0.90286 0.25974 0.19416 0.0
C1527 C 0.91314 0.24995 0.16792 0.0
C1528 C 0.87546 0.25401 0.20141 0.0
C1529 C 0.89583 0.23503 0.14864 0.0
C1530 C 0.86872 0.22878 0.15585 0.0
C1531 C 0.83214 0.22923 0.19064 0.0
C1532 C 0.82263 0.23657 0.21774 0.0
C1533 C 0.8585 0.23774 0.18232 0.0
C1534 C 0.8386 0.2545 0.23591 0.0
C1535 C 0.86493 0.26331 0.22774 0.0
H1536 H 0.97141 0.6782 0.45677 0.0
H1537 H 0.04576 0.68235 0.40711 0.0
H1538 H 0.06052 0.63706 0.42564 0.0
H1539 H 0.04906 0.59281 0.44959 0.0
H1540 H 0.9753 0.58776 0.49971 0.0
H1541 H 0.96388 0.63704 0.48771 0.0
C1542 C 0.99112 0.66957 0.45044 0.0
C1543 C 0.00705 0.68343 0.42993 0.0
C1544 C -0.00056 0.64309 0.46091 0.0
C1545 C 0.03276 0.67203 0.42242 0.0
C1546 C 0.04124 0.646 0.43296 0.0
C1547 C 0.03062 0.60255 0.45825 0.0
C1548 C 0.01243 0.58606 0.47453 0.0
C1549 C 0.02418 0.63075 0.45118 0.0
C1550 C 0.98921 0.59951 0.48637 0.0
C1551 C 0.98268 0.62776 0.47951 0.0
H1552 H 0.57894 0.79345 0.66822 0.0
H1553 H 0.56521 0.71765 0.71668 0.0
H1554 H 0.61296 0.71998 0.732 0.0
H1555 H 0.65925 0.74257 0.7301 0.0
H1556 H 0.67237 0.81798 0.68084 0.0
H1557 H 0.62424 0.81691 0.66776 0.0
C1558 C 0.58631 0.77742 0.68218 0.0
C1559 C 0.56847 0.75531 0.69112 0.0
C1560 C 0.61375 0.77889 0.6909 0.0
C1561 C 0.57845 0.73487 0.70936 0.0
C1562 C 0.60579 0.73621 0.71817 0.0
C1563 C 0.65149 0.759 0.71683 0.0
C1564 C 0.66954 0.78027 0.70645 0.0
C1565 C 0.6237 0.75803 0.70894 0.0
C1566 C 0.65909 0.80125 0.68906 0.0
C1567 C 0.63152 0.80065 0.68148 0.0
H1568 H 0.54936 0.53471 0.68382 0.0
H1569 H 0.59687 0.45663 0.68049 0.0
H1570 H 0.58 0.44415 0.63364 0.0
H1571 H 0.55488 0.45667 0.59265 0.0
H1572 H 0.50974 0.53607 0.59272 0.0
H1573 H 0.52179 0.54631 0.64219 0.0
C1574 C 0.55586 0.51494 0.67281 0.0
C1575 C 0.57462 0.49684 0.68546 0.0
C1576 C 0.54639 0.50803 0.64544 0.0
C1577 C 0.58282 0.4712 0.67107 0.0
C1578 C 0.57306 0.46392 0.64432 0.0
C1579 C 0.54745 0.47619 0.60345 0.0
C1580 C 0.53178 0.49578 0.58894 0.0
C1581 C 0.5553 0.48239 0.63118 0.0
C1582 C 0.52185 0.52062 0.60345 0.0
C1583 C 0.52897 0.5266 0.63163 0.0
H1584 H 0.74445 0.33511 0.92574 0.0
H1585 H 0.83252 0.34124 0.91823 0.0
H1586 H 0.83056 0.31833 0.87127 0.0
H1587 H 0.80442 0.2904 0.83487 0.0
H1588 H 0.71675 0.28241 0.84299 0.0
H1589 H 0.7178 0.3123 0.88668 0.0
C1590 C 0.76313 0.33171 0.91365 0.0
C1591 C 0.78858 0.33912 0.92576 0.0
C1592 C 0.76194 0.31805 0.88669 0.0
C1593 C 0.81265 0.33493 0.90972 0.0
C1594 C 0.81159 0.32196 0.88276 0.0
C1595 C 0.78559 0.29606 0.84586 0.0
C1596 C 0.76058 0.28458 0.83593 0.0
C1597 C 0.78646 0.31253 0.87138 0.0
C1598 C 0.7362 0.29144 0.85037 0.0
C1599 C 0.73682 0.30827 0.87542 0.0
H1600 H 0.89148 0.5035 0.16675 0.0
H1601 H 0.97329 0.50373 0.20049 0.0
H1602 H 0.99262 0.50345 0.1531 0.0
H1603 H 0.98638 0.50773 0.10196 0.0
H1604 H 0.90429 0.5091 0.06907 0.0
H1605 H 0.88521 0.50382 0.1159 0.0
C1606 C 0.91352 0.50314 0.16375 0.0
C1607 C 0.93083 0.50397 0.18718 0.0
C1608 C 0.92458 0.50343 0.13644 0.0
C1609 C 0.9594 0.50337 0.18284 0.0
C1610 C 0.97054 0.50323 0.15571 0.0
C1611 C 0.96436 0.50642 0.10507 0.0
C1612 C 0.94684 0.50928 0.08214 0.0
C1613 C 0.95336 0.50394 0.13232 0.0
C1614 C 0.91829 0.50749 0.08646 0.0
C1615 C 0.90728 0.50443 0.11325 0.0
H1616 H 0.79296 0.7153 0.41913 0.0
H1617 H 0.74354 0.63713 0.40856 0.0
H1618 H 0.72824 0.65175 0.36304 0.0
H1619 H 0.7248 0.68857 0.32836 0.0
H1620 H 0.7693 0.7694 0.33979 0.0
H1621 H 0.791 0.7521 0.38219 0.0
C1622 C 0.77884 0.70164 0.40678 0.0
C1623 C 0.76883 0.67552 0.41753 0.0
C1624 C 0.76946 0.71056 0.38056 0.0
C1625 C 0.75083 0.65776 0.40117 0.0
C1626 C 0.74227 0.66593 0.37496 0.0
C1627 C 0.74004 0.70189 0.33963 0.0
C1628 C 0.74632 0.72965 0.33057 0.0
C1629 C 0.75098 0.69247 0.36469 0.0
C1630 C 0.76506 0.74743 0.34591 0.0
C1631 C 0.77705 0.73773 0.3704 0.0
H1632 H 0.55347 0.50742 0.82773 0.0
H1633 H 0.63487 0.52081 0.86103 0.0
H1634 H 0.61625 0.52321 0.90895 0.0
H1635 H 0.57633 0.52688 0.94039 0.0
H1636 H 0.49506 0.5152 0.90681 0.0
H1637 H 0.51408 0.50493 0.85977 0.0
C1638 C 0.56704 0.51117 0.84552 0.0
C1639 C 0.59529 0.51497 0.84113 0.0
C1640 C 0.55628 0.51181 0.87277 0.0
C1641 C 0.61294 0.51858 0.86415 0.0
C1642 C 0.60236 0.51962 0.89143 0.0
C1643 C 0.56299 0.52076 0.92288 0.0
C1644 C 0.53457 0.52137 0.92663 0.0
C1645 C 0.57404 0.51669 0.8959 0.0
C1646 C 0.51709 0.51418 0.90411 0.0
C1647 C 0.52794 0.509 0.87725 0.0
H1648 H 0.72862 0.32375 0.06642 0.0
H1649 H 0.81135 0.29238 0.06699 0.0
H1650 H 0.80239 0.2698 0.1115 0.0
H1651 H 0.77425 0.2681 0.1547 0.0
H1652 H 0.69263 0.30217 0.15479 0.0
H1653 H 0.69777 0.3139 0.1056 0.0
C1654 C 0.74452 0.31138 0.07587 0.0
C1655 C 0.77085 0.31063 0.06376 0.0
C1656 C 0.73952 0.29916 0.10193 0.0
C1657 C 0.79099 0.2939 0.07608 0.0
C1658 C 0.78595 0.28103 0.10168 0.0
C1659 C 0.75732 0.2772 0.14363 0.0
C1660 C 0.73333 0.28482 0.1584 0.0
C1661 C 0.76078 0.2849 0.11554 0.0
C1662 C 0.71149 0.29659 0.14389 0.0
C1663 C 0.71444 0.3034 0.11579 0.0
H1664 H 0.93237 0.46986 0.32652 0.0
H1665 H 0.89049 0.54453 0.36182 0.0
H1666 H 0.90529 0.53328 0.40888 0.0
H1667 H 0.93708 0.50772 0.4379 0.0
H1668 H 0.98251 0.43614 0.40166 0.0
H1669 H 0.95801 0.4393 0.35736 0.0
C1670 C 0.92644 0.48352 0.34459 0.0
C1671 C 0.91119 0.50838 0.3409 0.0
C1672 C 0.93515 0.47704 0.37141 0.0
C1673 C 0.90273 0.52551 0.36434 0.0
C1674 C 0.91102 0.51902 0.3912 0.0
C1675 C 0.94062 0.49204 0.42066 0.0
C1676 C 0.96164 0.4721 0.42249 0.0
C1677 C 0.92808 0.49548 0.3948 0.0
C1678 C 0.96637 0.45179 0.40028 0.0
C1679 C 0.95276 0.45393 0.37491 0.0
H1680 H 0.74835 0.64893 0.57729 0.0
H1681 H 0.82955 0.68463 0.56294 0.0
H1682 H 0.83027 0.70603 0.61031 0.0
H1683 H 0.8065 0.71946 0.65401 0.0
H1684 H 0.72498 0.68645 0.66937 0.0
H1685 H 0.72604 0.6586 0.62414 0.0
C1686 C 0.76619 0.66137 0.58452 0.0
C1687 C 0.78862 0.66549 0.56599 0.0
C1688 C 0.7666 0.6739 0.61225 0.0
C1689 C 0.81172 0.68134 0.57618 0.0
C1690 C 0.8123 0.69354 0.6035 0.0
C1691 C 0.78936 0.70528 0.64791 0.0
C1692 C 0.76587 0.70472 0.66517 0.0
C1693 C 0.78973 0.69045 0.6215 0.0
C1694 C 0.74358 0.68671 0.65681 0.0
C1695 C 0.744 0.67127 0.63064 0.0
H1696 H 0.66241 0.60985 0.50195 0.0
H1697 H 0.68342 0.56765 0.42218 0.0
H1698 H 0.63898 0.54305 0.42048 0.0
H1699 H 0.59702 0.52787 0.44486 0.0
H1700 H 0.57419 0.57097 0.5233 0.0
H1701 H 0.61606 0.60121 0.52214 0.0
C1702 C 0.65705 0.59562 0.48403 0.0
C1703 C 0.67652 0.59007 0.46262 0.0
C1704 C 0.63114 0.5816 0.48297 0.0
C1705 C 0.66905 0.57206 0.4392 0.0
C1706 C 0.64359 0.55788 0.43817 0.0
C1707 C 0.60088 0.54455 0.4612 0.0
C1708 C 0.58284 0.54722 0.48416 0.0
C1709 C 0.6249 0.56168 0.46038 0.0
C1710 C 0.58783 0.56879 0.50531 0.0
C1711 C 0.6119 0.58581 0.50479 0.0
H1712 H 0.1856 0.93287 0.52895 0.0
H1713 H 0.17936 0.94206 0.43949 0.0
H1714 H 0.13491 0.96532 0.44621 0.0
H1715 H 0.09616 0.97878 0.47743 0.0
H1716 H 0.10277 0.96836 0.56661 0.0
H1717 H 0.14936 0.95072 0.56025 0.0
C1718 C 0.17448 0.93983 0.51088 0.0
C1719 C 0.18534 0.93512 0.48371 0.0
C1720 C 0.14931 0.95343 0.51495 0.0
C1721 C 0.17112 0.94505 0.46058 0.0
C1722 C 0.14584 0.95848 0.46443 0.0
C1723 C 0.10824 0.97363 0.4955 0.0
C1724 C 0.0963 0.97495 0.52245 0.0
C1725 C 0.13457 0.9624 0.49151 0.0
C1726 C 0.11175 0.96757 0.54572 0.0
C1727 C 0.1382 0.9572 0.54204 0.0
H1728 H 0.34127 0.91225 0.81328 0.0
H1729 H 0.35413 0.93044 0.72593 0.0
H1730 H 0.33738 0.88185 0.71189 0.0
H1731 H 0.31147 0.83834 0.72424 0.0
H1732 H 0.29586 0.8213 0.81109 0.0
H1733 H 0.32246 0.86485 0.82584 0.0
C1734 C 0.34051 0.9055 0.79118 0.0
C1735 C 0.34798 0.92509 0.77059 0.0
C1736 C 0.33079 0.87767 0.7833 0.0
C1737 C 0.34789 0.91586 0.7421 0.0
C1738 C 0.33846 0.88809 0.73407 0.0
C1739 C 0.31504 0.84362 0.74638 0.0
C1740 C 0.30191 0.82715 0.76667 0.0
C1741 C 0.32891 0.86931 0.75445 0.0
C1742 C 0.30619 0.83379 0.79529 0.0
C1743 C 0.32089 0.85891 0.80362 0.0
H1744 H 0.35638 0.10043 0.00152 0.0
H1745 H 0.30821 0.02122 0.99322 0.0
H1746 H 0.34851 0.99305 0.00326 0.0
H1747 H 0.39665 0.99111 0.01774 0.0
H1748 H 0.44344 0.07015 0.03155 0.0
H1749 H 0.40493 0.09839 0.01539 0.0
C1750 C 0.35474 0.07703 0.00182 0.0
C1751 C 0.32927 0.06297 -0.00312 0.0
C1752 C 0.37793 0.06098 0.00819 0.0
C1753 C 0.32747 0.0326 -0.00257 0.0
C1754 C 0.35055 0.01645 0.00296 0.0
C1755 C 0.39853 0.01445 0.01632 0.0
C1756 C 0.42316 0.02864 0.02419 0.0
C1757 C 0.37578 0.03042 0.0087 0.0
C1758 C 0.42517 0.05888 0.02376 0.0
C1759 C 0.40294 0.07496 0.0152 0.0
H1760 H 0.64872 0.5893 0.74826 0.0
H1761 H 0.72694 0.55255 0.76589 0.0
H1762 H 0.74993 0.59881 0.75748 0.0
H1763 H 0.74632 0.65136 0.75674 0.0
H1764 H 0.6676 0.68971 0.74722 0.0
H1765 H 0.64639 0.64157 0.73923 0.0
C1766 C 0.67087 0.59128 0.7494 0.0
C1767 C 0.68612 0.56773 0.75809 0.0
C1768 C 0.68383 0.61844 0.7459 0.0
C1769 C 0.71478 0.57053 0.75965 0.0
C1770 C 0.72792 0.59697 0.75481 0.0
C1771 C 0.7248 0.64913 0.75129 0.0
C1772 C 0.70854 0.67388 0.75238 0.0
C1773 C 0.71251 0.62139 0.74945 0.0
C1774 C 0.68058 0.67093 0.74599 0.0
C1775 C 0.66837 0.64332 0.74214 0.0
H1776 H 0.86074 0.40029 -0.00149 0.0
H1777 H 0.81127 0.46164 0.95682 0.0
H1778 H 0.85253 0.48508 0.93876 0.0
H1779 H 0.90185 0.49372 0.94316 0.0
H1780 H 0.9508 0.43394 0.98749 0.0
H1781 H 0.91063 0.4028 0.99405 0.0
C1782 C 0.85883 0.41823 0.98489 0.0
C1783 C 0.83298 0.42957 0.97958 0.0
C1784 C 0.88261 0.43168 0.97472 0.0
C1785 C 0.83099 0.45288 0.96176 0.0
C1786 C 0.85457 0.46619 0.95126 0.0
C1787 C 0.90392 0.47339 0.95345 0.0
C1788 C 0.92889 0.46689 0.96608 0.0
C1789 C 0.88045 0.45659 0.95875 0.0
C1790 C 0.93162 0.43991 0.97824 0.0
C1791 C 0.90853 0.42229 0.98243 0.0
H1792 H 0.35805 0.08894 0.75079 0.0
H1793 H 0.28108 0.05685 0.78295 0.0
H1794 H 0.26007 0.10402 0.77509 0.0
H1795 H 0.26489 0.15512 0.75919 0.0
H1796 H 0.34517 0.18549 0.73315 0.0
H1797 H 0.36379 0.13832 0.73929 0.0
C1798 C 0.33648 0.09195 0.75559 0.0
C1799 C 0.32085 0.06939 0.76655 0.0
C1800 C 0.32536 0.11905 0.75266 0.0
C1801 C 0.29328 0.07395 0.77386 0.0
C1802 C 0.28144 0.10091 0.76964 0.0
C1803 C 0.28645 0.15132 0.75525 0.0
C1804 C 0.30342 0.17354 0.74499 0.0
C1805 C 0.29746 0.12381 0.75926 0.0
C1806 C 0.33146 0.16856 0.74031 0.0
C1807 C 0.34223 0.14158 0.74377 0.0
H1808 H 0.20332 0.91192 0.30139 0.0
H1809 H 0.18678 0.93848 0.21734 0.0
H1810 H 0.20821 0.89513 0.19761 0.0
H1811 H 0.23214 0.85054 0.20371 0.0
H1812 H 0.25097 0.8232 0.28654 0.0
H1813 H 0.22733 0.86562 0.3075 0.0
C1814 C 0.20487 0.90844 0.27877 0.0
C1815 C 0.19367 0.92859 0.26086 0.0
C1816 C 0.21699 0.8831 0.26743 0.0
C1817 C 0.19538 0.92349 0.2316 0.0
C1818 C 0.20742 0.89858 0.22027 0.0
C1819 C 0.23068 0.85367 0.2264 0.0
C1820 C 0.24295 0.83394 0.24365 0.0
C1821 C 0.21811 0.87829 0.23795 0.0
C1822 C 0.24107 0.83793 0.27295 0.0
C1823 C 0.22801 0.86241 0.28483 0.0
H1824 H 0.463 0.32667 0.44988 0.0
H1825 H 0.51659 0.33459 0.37793 0.0
H1826 H 0.52996 0.3835 0.39429 0.0
H1827 H 0.53108 0.42153 0.43187 0.0
H1828 H 0.48137 0.41226 0.5059 0.0
H1829 H 0.46104 0.36708 0.48566 0.0
C1830 C 0.47733 0.33923 0.43759 0.0
C1831 C 0.48902 0.32668 0.41286 0.0
C1832 C 0.48536 0.36736 0.44739 0.0
C1833 C 0.50755 0.3434 0.39723 0.0
C1834 C 0.51515 0.37149 0.40651 0.0
C1835 C 0.51493 0.41015 0.44296 0.0
C1836 C 0.50674 0.42071 0.46975 0.0
C1837 C 0.50474 0.3834 0.43188 0.0
C1838 C 0.48679 0.40526 0.48461 0.0
C1839 C 0.47573 0.37907 0.47329 0.0
H1840 H 0.44454 0.76116 0.22463 0.0
H1841 H 0.42203 0.71202 0.14905 0.0
H1842 H 0.37762 0.69948 0.16972 0.0
H1843 H 0.34216 0.71204 0.20433 0.0
H1844 H 0.36185 0.76852 0.27583 0.0
H1845 H 0.41051 0.7676 0.26289 0.0
C1846 C 0.43015 0.74696 0.21317 0.0
C1847 C 0.43616 0.73777 0.18533 0.0
C1848 C 0.40411 0.74118 0.22467 0.0
C1849 C 0.41748 0.71967 0.17036 0.0
C1850 C 0.39216 0.71246 0.18221 0.0
C1851 C 0.35741 0.72281 0.21784 0.0
C1852 C 0.34871 0.74002 0.2411 0.0
C1853 C 0.38475 0.72436 0.20872 0.0
C1854 C 0.36829 0.75467 0.25815 0.0
C1855 C 0.396 0.75463 0.25036 0.0
H1856 H 0.00471 0.69392 0.95798 0.0
H1857 H 0.01516 0.64682 0.87869 0.0
H1858 H 0.01873 0.60139 0.9028 0.0
H1859 H 0.00672 0.57481 0.94523 0.0
H1860 H -0.00436 0.62224 0.02416 0.0
H1861 H 0.00625 0.66776 0.00193 0.0
C1862 C 0.00885 0.67383 0.94618 0.0
C1863 C 0.00922 0.67346 0.91673 0.0
C1864 C 0.01087 0.64782 0.96021 0.0
C1865 C 0.01477 0.64748 0.90146 0.0
C1866 C 0.01664 0.62147 0.91523 0.0
C1867 C 0.00832 0.59495 0.95779 0.0
C1868 C 0.00018 0.59542 0.98614 0.0
C1869 C 0.01312 0.62121 0.94448 0.0
C1870 C 0.00193 0.62154 0.00227 0.0
C1871 C 0.00745 0.64763 0.98943 0.0
H1872 H 0.07574 0.20319 0.70447 0.0
H1873 H 0.10134 0.25687 0.63676 0.0
H1874 H 0.14869 0.25625 0.65312 0.0
H1875 H 0.18097 0.247 0.69091 0.0
H1876 H 0.15348 0.19913 0.76182 0.0
H1877 H 0.10884 0.19017 0.7397 0.0
C1878 C 0.09176 0.21426 0.69293 0.0
C1879 C 0.08505 0.23031 0.66965 0.0
C1880 C 0.1186 0.21482 0.70313 0.0
C1881 C 0.106 0.2446 0.65494 0.0
C1882 C 0.13305 0.24427 0.66428 0.0
C1883 C 0.16545 0.23375 0.70095 0.0
C1884 C 0.1703 0.22346 0.72771 0.0
C1885 C 0.13937 0.23035 0.68894 0.0
C1886 C 0.15003 0.20698 0.74106 0.0
C1887 C 0.12451 0.20212 0.72855 0.0
H1888 H 0.46897 0.65266 0.10562 0.0
H1889 H 0.54339 0.70187 0.09149 0.0
H1890 H 0.56604 0.65804 0.07335 0.0
H1891 H 0.56209 0.60724 0.05527 0.0
H1892 H 0.48627 0.55988 0.06759 0.0
H1893 H 0.46747 0.60061 0.09422 0.0
C1894 C 0.49021 0.65365 0.09877 0.0
C1895 C 0.50433 0.68033 0.09914 0.0
C1896 C 0.50312 0.62844 0.08874 0.0
C1897 C 0.53205 0.68144 0.09097 0.0
C1898 C 0.54502 0.65643 0.0807 0.0
C1899 C 0.54197 0.60552 0.06496 0.0
C1900 C 0.52605 0.58011 0.06029 0.0
C1901 C 0.53048 0.62993 0.07875 0.0
C1902 C 0.49966 0.57837 0.07226 0.0
C1903 C 0.48845 0.60215 0.08671 0.0
H1904 H 0.07854 0.77844 0.81776 0.0
H1905 H 0.1081 0.69209 0.82754 0.0
H1906 H 0.15295 0.70664 0.80857 0.0
H1907 H 0.18279 0.74382 0.78589 0.0
H1908 H 0.1505 0.8294 0.77682 0.0
H1909 H 0.10803 0.81512 0.79875 0.0
C1910 C 0.09472 0.76269 0.81586 0.0
C1911 C 0.08979 0.73416 0.8237 0.0
C1912 C 0.12011 0.77104 0.8048 0.0
C1913 C 0.11125 0.71422 0.82138 0.0
C1914 C 0.1369 0.7225 0.81049 0.0
C1915 C 0.16647 0.75923 0.78891 0.0
C1916 C 0.16984 0.78745 0.77924 0.0
C1917 C 0.14145 0.75082 0.8016 0.0
C1918 C 0.14861 0.8074 0.78372 0.0
C1919 C 0.12411 0.79932 0.79629 0.0
H1920 H 0.95299 0.31012 0.54993 0.0
H1921 H 0.03869 0.3072 0.57112 0.0
H1922 H 0.04724 0.35279 0.54833 0.0
H1923 H 0.02793 0.39911 0.53419 0.0
H1924 H 0.94146 0.40321 0.51788 0.0
H1925 H 0.93565 0.35176 0.52656 0.0
C1926 C 0.97373 0.31892 0.54885 0.0
C1927 C -0.0051 0.30585 0.5633 0.0
C1928 C 0.97824 0.34588 0.53702 0.0
C1929 C 0.02178 0.31718 0.56088 0.0
C1930 C 0.02669 0.34345 0.54802 0.0
C1931 C 0.00812 0.3883 0.53151 0.0
C1932 C 0.98508 0.40462 0.52572 0.0
C1933 C 0.00473 0.35897 0.53786 0.0
C1934 C 0.95938 0.3908 0.52247 0.0
C1935 C 0.95604 0.36147 0.52758 0.0
H1936 H 0.42816 0.26883 0.299 0.0
H1937 H 0.41485 0.20864 0.36507 0.0
H1938 H 0.36826 0.19995 0.34993 0.0
H1939 H 0.33133 0.20887 0.31918 0.0
H1940 H 0.34004 0.27137 0.25478 0.0
H1941 H 0.38858 0.2791 0.26755 0.0
C1942 C 0.41492 0.254 0.31009 0.0
C1943 C 0.42509 0.23957 0.3333 0.0
C1944 C 0.38747 0.24919 0.30143 0.0
C1945 C 0.40769 0.22035 0.34741 0.0
C1946 C 0.38097 0.21513 0.33866 0.0
C1947 C 0.34359 0.22433 0.30774 0.0
C1948 C 0.33185 0.23958 0.28607 0.0
C1949 C 0.37071 0.22938 0.31582 0.0
C1950 C 0.34851 0.25915 0.27145 0.0
C1951 C 0.3762 0.26374 0.27893 0.0
H1952 H 0.46893 0.50099 0.31296 0.0
H1953 H 0.39063 0.46557 0.33806 0.0
H1954 H 0.40472 0.46827 0.38722 0.0
H1955 H 0.43567 0.48915 0.42307 0.0
H1956 H 0.51288 0.52777 0.39917 0.0
H1957 H 0.50317 0.51548 0.34935 0.0
C1958 C 0.45549 0.49287 0.32919 0.0
C1959 C 0.42881 0.48324 0.32227 0.0
C1960 C 0.4633 0.49586 0.35751 0.0
C1961 C 0.41121 0.47315 0.34321 0.0
C1962 C 0.41917 0.47492 0.37124 0.0
C1963 C 0.45049 0.49441 0.40686 0.0
C1964 C 0.4746 0.50971 0.41422 0.0
C1965 C 0.44453 0.48767 0.37866 0.0
C1966 C 0.49404 0.51622 0.39355 0.0
C1967 C 0.48846 0.5092 0.36523 0.0
H1968 H 0.26066 0.63534 0.08965 0.0
H1969 H 0.27198 0.70989 0.03906 0.0
H1970 H 0.26346 0.74217 0.08002 0.0
H1971 H 0.25799 0.74934 0.13045 0.0
H1972 H 0.25147 0.67575 0.18306 0.0
H1973 H 0.25233 0.64289 0.14114 0.0
C1974 C 0.26098 0.65866 0.08773 0.0
C1975 C 0.26723 0.6704 0.06159 0.0
C1976 C 0.25704 0.67717 0.11169 0.0
C1977 C 0.26763 0.70054 0.05913 0.0
C1978 C 0.26268 0.71894 0.08248 0.0
C1979 C 0.25648 0.7261 0.13286 0.0
C1980 C 0.25507 0.71504 0.15989 0.0
C1981 C 0.25817 0.70752 0.10894 0.0
C1982 C 0.25258 0.68488 0.1625 0.0
C1983 C 0.25333 0.66608 0.13854 0.0
H1984 H 0.0561 0.51727 0.8264 0.0
H1985 H 0.14042 0.50544 0.8496 0.0
H1986 H 0.12789 0.50803 0.89884 0.0
H1987 H 0.09274 0.50692 0.93483 0.0
H1988 H 0.00783 0.51634 0.9133 0.0
H1989 H 0.02083 0.52181 0.86388 0.0
C1990 C 0.07176 0.51586 0.84228 0.0
C1991 C 0.09913 0.5109 0.83425 0.0
C1992 C 0.06427 0.5165 0.87081 0.0
C1993 C 0.11923 0.50919 0.85504 0.0
C1994 C 0.11207 0.5105 0.88331 0.0
C1995 C 0.07705 0.51034 0.91935 0.0
C1996 C 0.04939 0.51044 0.92737 0.0
C1997 C 0.08459 0.51301 0.8913 0.0
C1998 C 0.02929 0.51581 0.9074 0.0
C1999 C 0.03671 0.51884 0.87921 0.0
H2000 H 0.23505 0.27564 0.56106 0.0
H2001 H 0.22552 0.36116 0.59939 0.0
H2002 H 0.22205 0.34102 0.6458 0.0
H2003 H 0.23541 0.30092 0.67502 0.0
H2004 H 0.24425 0.21553 0.63668 0.0
H2005 H 0.23223 0.23322 0.59101 0.0
C2006 C 0.23117 0.28964 0.5795 0.0
C2007 C 0.23132 0.31976 0.57703 0.0
C2008 C 0.22894 0.27789 0.60619 0.0
C2009 C 0.22578 0.33782 0.60091 0.0
C2010 C 0.22388 0.32635 0.6275 0.0
C2011 C 0.2329 0.28589 0.65702 0.0
C2012 C 0.2416 0.25729 0.6588 0.0
C2013 C 0.22727 0.29661 0.63052 0.0
C2014 C 0.23801 0.23784 0.63554 0.0
C2015 C 0.23177 0.24809 0.60925 0.0
H2016 H 0.45773 0.54323 0.1662 0.0
H2017 H 0.38319 0.49281 0.15347 0.0
H2018 H 0.3992 0.47607 0.10693 0.0
H2019 H 0.43756 0.46908 0.07405 0.0
H2020 H 0.51422 0.51435 0.08951 0.0
H2021 H 0.49443 0.54014 0.1307 0.0
C2022 C 0.44476 0.52921 0.15287 0.0
C2023 C 0.41954 0.51894 0.16314 0.0
C2024 C 0.4547 0.51854 0.12683 0.0
C2025 C 0.40286 0.50065 0.14592 0.0
C2026 C 0.41201 0.49103 0.11943 0.0
C2027 C 0.44952 0.48527 0.08609 0.0
C2028 C 0.47692 0.4905 0.07884 0.0
C2029 C 0.43837 0.4988 0.11027 0.0
C2030 C 0.4928 0.51071 0.09466 0.0
C2031 C 0.48158 0.52516 0.11827 0.0
H2032 H 0.27425 0.70319 0.92923 0.0
H2033 H 0.21616 0.63217 0.91691 0.0
H2034 H 0.20418 0.64956 0.87106 0.0
H2035 H 0.21641 0.67968 0.83124 0.0
H2036 H 0.27346 0.75136 0.84343 0.0
H2037 H 0.27927 0.73946 0.89269 0.0
C2038 C 0.2585 0.69193 0.91678 0.0
C2039 C 0.24654 0.66606 0.92626 0.0
C2040 C 0.25168 0.70207 0.89031 0.0
C2041 C 0.22582 0.65201 0.91012 0.0
C2042 C 0.21906 0.66185 0.88375 0.0
C2043 C 0.22937 0.69324 0.84503 0.0
C2044 C 0.24462 0.7162 0.83388 0.0
C2045 C 0.23273 0.68608 0.87316 0.0
C2046 C 0.26139 0.7337 0.85173 0.0
C2047 C 0.26493 0.72667 0.87978 0.0
H2048 H 0.10406 0.49369 0.65855 0.0
H2049 H 0.0509 0.55524 0.70123 0.0
H2050 H 0.02904 0.56493 0.65691 0.0
H2051 H 0.01965 0.54939 0.60821 0.0
H2052 H 0.06988 0.48496 0.56647 0.0
H2053 H 0.09938 0.48408 0.60759 0.0
C2054 C 0.08787 0.5094 0.65805 0.0
C2055 C 0.07849 0.52305 0.68314 0.0
C2056 C 0.0752 0.51468 0.63254 0.0
C2057 C 0.05808 0.54401 0.68221 0.0
C2058 C 0.04563 0.54966 0.65689 0.0
C2059 C 0.03767 0.53596 0.60789 0.0
C2060 C 0.04282 0.51733 0.5845 0.0
C2061 C 0.05328 0.53424 0.63219 0.0
C2062 C 0.06609 0.5 0.584 0.0
C2063 C 0.08249 0.49899 0.60781 0.0
H2064 H 0.27457 0.35524 0.41035 0.0
H2065 H 0.20609 0.31492 0.45194 0.0
H2066 H 0.19128 0.29154 0.40722 0.0
H2067 H 0.20135 0.27782 0.35762 0.0
H2068 H 0.26901 0.31914 0.31557 0.0
H2069 H 0.28002 0.34768 0.35858 0.0
C2070 C 0.25618 0.34168 0.40941 0.0
C2071 C 0.24158 0.33644 0.43437 0.0
C2072 C 0.24756 0.32868 0.38347 0.0
C2073 C 0.21766 0.3191 0.43299 0.0
C2074 C 0.20922 0.30575 0.40743 0.0
C2075 C 0.2179 0.29386 0.35759 0.0
C2076 C 0.23432 0.29629 0.33325 0.0
C2077 C 0.22441 0.30979 0.38267 0.0
C2078 C 0.25577 0.31707 0.33368 0.0
C2079 C 0.26238 0.33306 0.35853 0.0
H2080 H 0.34537 0.39295 0.49888 0.0
H2081 H 0.29739 0.46781 0.52251 0.0
H2082 H 0.33882 0.4966 0.53101 0.0
H2083 H 0.38794 0.502 0.529 0.0
H2084 H 0.43752 0.43091 0.49902 0.0
H2085 H 0.3967 0.3989 0.49678 0.0
C2086 C 0.34417 0.41559 0.50572 0.0
C2087 C 0.31832 0.42838 0.50954 0.0
C2088 C 0.3684 0.43258 0.50984 0.0
C2089 C 0.31697 0.45764 0.51872 0.0
C2090 C 0.34067 0.4741 0.52389 0.0
C2091 C 0.39003 0.4794 0.5222 0.0
C2092 C 0.41592 0.46889 0.51423 0.0
C2093 C 0.3664 0.46196 0.51914 0.0
C2094 C 0.41805 0.43946 0.5058 0.0
C2095 C 0.39455 0.42131 0.50403 0.0
H2096 H 0.83344 0.0478 0.48367 0.0
H2097 H 0.851 0.13567 0.51349 0.0
H2098 H 0.89888 0.12418 0.52011 0.0
H2099 H 0.9364 0.09097 0.51249 0.0
H2100 H 0.92058 0.00302 0.48204 0.0
H2101 H 0.87115 0.01238 0.48099 0.0
C2102 C 0.8478 0.0642 0.49195 0.0
C2103 C 0.83913 0.09276 0.49719 0.0
C2104 C 0.87548 0.05746 0.49535 0.0
C2105 C 0.85757 0.11389 0.50823 0.0
C2106 C 0.88486 0.10726 0.51225 0.0
C2107 C 0.92208 0.07382 0.5057 0.0
C2108 C 0.93189 0.04666 0.49663 0.0
C2109 C 0.89416 0.07947 0.50491 0.0
C2110 C 0.9133 0.02423 0.48879 0.0
C2111 C 0.88516 0.02962 0.48812 0.0
H2112 H 0.64419 0.10875 0.28922 0.0
H2113 H 0.6594 0.06088 0.21098 0.0
H2114 H 0.67777 0.10466 0.19028 0.0
H2115 H 0.69639 0.15425 0.19721 0.0
H2116 H 0.68348 0.20082 0.27643 0.0
H2117 H 0.65602 0.16064 0.29337 0.0
C2118 C 0.65128 0.10803 0.26756 0.0
C2119 C 0.65113 0.08158 0.25188 0.0
C2120 C 0.66174 0.13327 0.25577 0.0
C2121 C 0.65968 0.08099 0.2236 0.0
C2122 C 0.67012 0.106 0.21172 0.0
C2123 C 0.68646 0.15598 0.21766 0.0
C2124 C 0.69143 0.18064 0.23529 0.0
C2125 C 0.67211 0.13202 0.22792 0.0
C2126 C 0.679 0.18258 0.262 0.0
C2127 C 0.66393 0.15921 0.27204 0.0
H2128 H 0.64681 0.91116 0.02216 0.0
H2129 H 0.69419 0.99107 0.02955 0.0
H2130 H 0.6541 0.01847 0.01786 0.0
H2131 H 0.60742 0.0192 -0.00058 0.0
H2132 H 0.55891 0.94042 0.99297 0.0
H2133 H 0.59721 0.91311 0.01098 0.0
C2134 C 0.64821 0.93459 0.02155 0.0
C2135 C 0.67362 0.94897 0.02618 0.0
C2136 C 0.62485 0.95041 0.01505 0.0
C2137 C 0.675 0.97939 0.02585 0.0
C2138 C 0.65207 0.99514 0.01912 0.0
C2139 C 0.60506 0.9962 0.00285 0.0
C2140 C 0.58056 0.98174 -0.00478 0.0
C2141 C 0.62716 0.98081 0.01287 0.0
C2142 C 0.57755 0.95196 -0.0007 0.0
C2143 C 0.59957 0.93635 0.00921 0.0
H2144 H 0.3364 0.40207 0.29157 0.0
H2145 H 0.33087 0.44712 0.21433 0.0
H2146 H 0.30472 0.40672 0.1929 0.0
H2147 H 0.28319 0.35978 0.19582 0.0
H2148 H 0.28932 0.3113 0.27074 0.0
H2149 H 0.31602 0.35172 0.29343 0.0
C2150 C 0.3295 0.40281 0.27004 0.0
C2151 C 0.3356 0.42749 0.25445 0.0
C2152 C 0.3148 0.37901 0.2575 0.0
C2153 C 0.32672 0.42827 0.22657 0.0
C2154 C 0.31169 0.40523 0.21434 0.0
C2155 C 0.29032 0.35775 0.21715 0.0
C2156 C 0.28372 0.33274 0.23184 0.0
C2157 C 0.30566 0.38062 0.22958 0.0
C2158 C 0.29365 0.33056 0.25924 0.0
C2159 C 0.30894 0.35365 0.27209 0.0
H2160 H 0.15911 0.60183 0.0107 0.0
H2161 H 0.19153 0.54676 0.07287 0.0
H2162 H 0.14523 0.53203 0.08633 0.0
H2163 H 0.09666 0.52807 0.07437 0.0
H2164 H 0.06417 0.58078 0.01054 0.0
H2165 H 0.10895 0.60456 0.00504 0.0
C2166 C 0.15596 0.58693 0.02746 0.0
C2167 C 0.17868 0.5749 0.04035 0.0
C2168 C 0.12921 0.57849 0.03509 0.0
C2169 C 0.17439 0.55608 0.06242 0.0
C2170 C 0.1479 0.54769 0.07019 0.0
C2171 C 0.09914 0.54573 0.06021 0.0
C2172 C 0.07741 0.55228 0.04251 0.0
C2173 C 0.12526 0.55795 0.05597 0.0
C2174 C 0.08062 0.57535 0.02442 0.0
C2175 C 0.10642 0.58847 0.02079 0.0
H2176 H 0.69813 0.94152 0.23839 0.0
H2177 H 0.70019 0.95233 0.32888 0.0
H2178 H 0.72051 0.90483 0.33187 0.0
H2179 H 0.72767 0.85643 0.30942 0.0
H2180 H 0.72391 0.84524 0.21934 0.0
H2181 H 0.71433 0.89654 0.21544 0.0
C2182 C 0.70379 0.93389 0.25873 0.0
C2183 C 0.69677 0.95004 0.28338 0.0
C2184 C 0.71461 0.90615 0.26038 0.0
C2185 C 0.70491 0.94018 0.30953 0.0
C2186 C 0.71628 0.91282 0.31132 0.0
C2187 C 0.72549 0.86555 0.28896 0.0
C2188 C 0.72636 0.84729 0.26465 0.0
C2189 C 0.71958 0.89498 0.28701 0.0
C2190 C 0.72368 0.85904 0.23821 0.0
C2191 C 0.71793 0.88833 0.23603 0.0
H2192 H 0.83556 0.0894 0.72021 0.0
H2193 H 0.76581 0.03519 0.7399 0.0
H2194 H 0.73638 0.07736 0.74172 0.0
H2195 H 0.73474 0.1292 0.75365 0.0
H2196 H 0.80623 0.18354 0.74233 0.0
H2197 H 0.83078 0.14237 0.72078 0.0
C2198 C 0.81363 0.08672 0.72337 0.0
C2199 C 0.80278 0.0595 0.73038 0.0
C2200 C 0.79745 0.11141 0.72685 0.0
C2201 C 0.77447 0.05606 0.73463 0.0
C2202 C 0.75778 0.08024 0.73608 0.0
C2203 C 0.75533 0.13215 0.74532 0.0
C2204 C 0.76899 0.15891 0.74981 0.0
C2205 C 0.76961 0.10807 0.73473 0.0
C2206 C 0.79545 0.163 0.73891 0.0
C2207 C 0.80953 0.13934 0.72698 0.0
loop_
_geom_bond_atom_site_label_1
_geom_bond_atom_site_label_2
_geom_bond_distance
_geom_bond_site_symmetry_2
_ccdc_geom_bond_type
Mg0 O1 2.028 . S
Mg0 O7 1.986 . S
Mg0 O9 2.114 1_455 S
Mg0 O10 2.251 1_455 S
Mg0 O13 2.010 . S
O1 Mg0 2.028 . S
O1 C4 1.250 . S
O2 Mg3 2.028 . S
O2 C4 1.248 1_655 S
Mg3 O2 2.028 . S
Mg3 O8 2.032 . S
Mg3 O10 2.079 . S
C4 O1 1.250 . S
C4 O2 1.248 1_455 S
C5 O6 1.264 . S
C5 O13 1.249 . S
O6 C5 1.264 . S
O7 Mg0 1.986 . S
O7 C11 1.246 . S
O8 Mg3 2.032 . S
O8 C11 1.259 1_655 S
O9 Mg0 2.114 1_655 S
O9 C12 1.252 . S
O10 Mg0 2.251 1_655 S
O10 Mg3 2.079 . S
O10 C12 1.273 . S
C11 O7 1.246 . S
C11 O8 1.259 1_455 S
C12 O9 1.252 . S
C12 O10 1.273 . S
O13 Mg0 2.010 . S
O13 C5 1.249 . S
Mg14 O15 2.028 . S
Mg14 O21 1.986 . S
Mg14 O23 2.114 1_455 S
Mg14 O24 2.251 1_455 S
Mg14 O27 2.010 . S
O15 Mg14 2.028 . S
O15 C18 1.250 . S
O16 Mg17 2.028 . S
O16 C18 1.248 1_655 S
Mg17 O16 2.028 . S
Mg17 O22 2.032 . S
Mg17 O24 2.079 . S
C18 O15 1.250 . S
C18 O16 1.248 1_455 S
C19 O20 1.264 . S
C19 O27 1.249 . S
O20 C19 1.264 . S
O21 Mg14 1.986 . S
O21 C25 1.246 . S
O22 Mg17 2.032 . S
O22 C25 1.259 1_655 S
O23 Mg14 2.114 1_655 S
O23 C26 1.252 . S
O24 Mg14 2.251 1_655 S
O24 Mg17 2.079 . S
O24 C26 1.273 . S
C25 O21 1.246 . S
C25 O22 1.259 1_455 S
C26 O23 1.252 . S
C26 O24 1.273 . S
O27 Mg14 2.010 . S
O27 C19 1.249 . S
Mg28 O29 2.028 . S
Mg28 O35 1.986 . S
Mg28 O37 2.114 . S
Mg28 O38 2.251 . S
Mg28 O41 2.010 . S
O29 Mg28 2.028 . S
O29 C32 1.250 . S
O30 Mg31 2.028 . S
O30 C32 1.248 . S
Mg31 O30 2.028 . S
Mg31 O36 2.032 . S
Mg31 O38 2.079 . S
C32 O29 1.250 . S
C32 O30 1.248 . S
C33 O34 1.264 . S
C33 O41 1.249 . S
O34 C33 1.264 . S
O35 Mg28 1.986 . S
O35 C39 1.246 . S
O36 Mg31 2.032 . S
O36 C39 1.259 . S
O37 Mg28 2.114 . S
O37 C40 1.252 . S
O38 Mg28 2.251 . S
O38 Mg31 2.079 . S
O38 C40 1.273 . S
C39 O35 1.246 . S
C39 O36 1.259 . S
C40 O37 1.252 . S
C40 O38 1.273 . S
O41 Mg28 2.010 . S
O41 C33 1.249 . S
Mg42 O43 2.028 . S
Mg42 O49 1.986 . S
Mg42 O51 2.114 . S
Mg42 O52 2.251 . S
Mg42 O55 2.010 . S
O43 Mg42 2.028 . S
O43 C46 1.250 . S
O44 Mg45 2.028 . S
O44 C46 1.248 . S
Mg45 O44 2.028 . S
Mg45 O50 2.032 . S
Mg45 O52 2.079 . S
C46 O43 1.250 . S
C46 O44 1.248 . S
C47 O48 1.264 . S
C47 O55 1.249 . S
O48 C47 1.264 . S
O49 Mg42 1.986 . S
O49 C53 1.246 . S
O50 Mg45 2.032 . S
O50 C53 1.259 . S
O51 Mg42 2.114 . S
O51 C54 1.252 . S
O52 Mg42 2.251 . S
O52 Mg45 2.079 . S
O52 C54 1.273 . S
C53 O49 1.246 . S
C53 O50 1.259 . S
C54 O51 1.252 . S
C54 O52 1.273 . S
O55 Mg42 2.010 . S
O55 C47 1.249 . S
Mg56 O57 2.028 1_565 S
Mg56 O63 1.986 . S
Mg56 O65 2.114 1_565 S
Mg56 O66 2.251 . S
Mg56 O69 2.010 . S
O57 Mg56 2.028 1_545 S
O57 C60 1.250 . S
O58 Mg59 2.028 . S
O58 C60 1.248 . S
Mg59 O58 2.028 . S
Mg59 O64 2.032 1_545 S
Mg59 O66 2.079 1_545 S
C60 O57 1.250 . S
C60 O58 1.248 . S
C61 O62 1.264 . S
C61 O69 1.249 . S
O62 C61 1.264 . S
O63 Mg56 1.986 . S
O63 C67 1.246 . S
O64 Mg59 2.032 1_565 S
O64 C67 1.259 . S
O65 Mg56 2.114 1_545 S
O65 C68 1.252 . S
O66 Mg56 2.251 . S
O66 Mg59 2.079 1_565 S
O66 C68 1.273 1_565 S
C67 O63 1.246 . S
C67 O64 1.259 . S
C68 O65 1.252 . S
C68 O66 1.273 1_545 S
O69 Mg56 2.010 . S
O69 C61 1.249 . S
Mg70 O71 2.028 . S
Mg70 O77 1.986 . S
Mg70 O79 2.114 . S
Mg70 O80 2.251 . S
Mg70 O83 2.010 . S
O71 Mg70 2.028 . S
O71 C74 1.250 . S
O72 Mg73 2.028 . S
O72 C74 1.248 . S
Mg73 O72 2.028 . S
Mg73 O78 2.032 . S
Mg73 O80 2.079 . S
C74 O71 1.250 . S
C74 O72 1.248 . S
C75 O76 1.264 . S
C75 O83 1.249 . S
O76 C75 1.264 . S
O77 Mg70 1.986 . S
O77 C81 1.246 . S
O78 Mg73 2.032 . S
O78 C81 1.259 . S
O79 Mg70 2.114 . S
O79 C82 1.252 . S
O80 Mg70 2.251 . S
O80 Mg73 2.079 . S
O80 C82 1.273 . S
C81 O77 1.246 . S
C81 O78 1.259 . S
C82 O79 1.252 . S
C82 O80 1.273 . S
O83 Mg70 2.010 . S
O83 C75 1.249 . S
Mg84 O85 2.028 1_545 S
Mg84 O91 1.986 . S
Mg84 O93 2.114 1_545 S
Mg84 O94 2.251 . S
Mg84 O97 2.010 . S
O85 Mg84 2.028 1_565 S
O85 C88 1.250 . S
O86 Mg87 2.028 1_565 S
O86 C88 1.248 . S
Mg87 O86 2.028 1_545 S
Mg87 O92 2.032 . S
Mg87 O94 2.079 . S
C88 O85 1.250 . S
C88 O86 1.248 . S
C89 O90 1.264 . S
C89 O97 1.249 . S
O90 C89 1.264 . S
O91 Mg84 1.986 . S
O91 C95 1.246 . S
O92 Mg87 2.032 . S
O92 C95 1.259 . S
O93 Mg84 2.114 1_565 S
O93 C96 1.252 1_565 S
O94 Mg84 2.251 . S
O94 Mg87 2.079 . S
O94 C96 1.273 . S
C95 O91 1.246 . S
C95 O92 1.259 . S
C96 O93 1.252 1_545 S
C96 O94 1.273 . S
O97 Mg84 2.010 . S
O97 C89 1.249 . S
Mg98 O99 1.998 1_556 S
Mg98 O105 2.010 . S
Mg98 O107 2.097 1_556 S
Mg98 O108 2.250 1_556 S
Mg98 O111 2.012 . S
O99 Mg98 1.998 1_554 S
O99 C102 1.250 . S
O100 Mg101 2.028 . S
O100 C102 1.248 . S
Mg101 O100 2.028 . S
Mg101 O106 2.032 1_554 S
Mg101 O108 2.079 . S
C102 O99 1.250 . S
C102 O100 1.248 . S
C103 O104 1.264 1_554 S
C103 O111 1.249 1_554 S
O104 C103 1.264 1_556 S
O105 Mg98 2.010 . S
O105 C109 1.246 . S
O106 Mg101 2.032 1_556 S
O106 C109 1.259 . S
O107 Mg98 2.097 1_554 S
O107 C110 1.252 . S
O108 Mg98 2.250 1_554 S
O108 Mg101 2.079 . S
O108 C110 1.273 . S
C109 O105 1.246 . S
C109 O106 1.259 . S
C110 O107 1.252 . S
C110 O108 1.273 . S
O111 Mg98 2.012 . S
O111 C103 1.249 1_556 S
Mg112 O113 2.028 1_554 S
Mg112 O119 1.986 . S
Mg112 O121 2.114 1_554 S
Mg112 O122 2.251 . S
Mg112 O125 2.010 . S
O113 Mg112 2.028 1_556 S
O113 C116 1.250 . S
O114 Mg115 2.028 1_556 S
O114 C116 1.248 . S
Mg115 O114 2.028 1_554 S
Mg115 O120 2.032 . S
Mg115 O122 2.079 . S
C116 O113 1.250 . S
C116 O114 1.248 . S
C117 O118 1.264 . S
C117 O125 1.249 . S
O118 C117 1.264 . S
O119 Mg112 1.986 . S
O119 C123 1.246 . S
O120 Mg115 2.032 . S
O120 C123 1.259 . S
O121 Mg112 2.114 1_556 S
O121 C124 1.252 1_556 S
O122 Mg112 2.251 . S
O122 Mg115 2.079 . S
O122 C124 1.273 . S
C123 O119 1.246 . S
C123 O120 1.259 . S
C124 O121 1.252 1_554 S
C124 O122 1.273 . S
O125 Mg112 2.010 . S
O125 C117 1.249 . S
Mg126 O127 2.028 . S
Mg126 O133 1.986 . S
Mg126 O135 2.114 . S
Mg126 O136 2.251 . S
Mg126 O139 2.010 . S
O127 Mg126 2.028 . S
O127 C130 1.250 . S
O128 Mg129 2.028 . S
O128 C130 1.248 . S
Mg129 O128 2.028 . S
Mg129 O134 2.032 . S
Mg129 O136 2.079 . S
C130 O127 1.250 . S
C130 O128 1.248 . S
C131 O132 1.264 . S
C131 O139 1.249 . S
O132 C131 1.264 . S
O133 Mg126 1.986 . S
O133 C137 1.246 . S
O134 Mg129 2.032 . S
O134 C137 1.259 . S
O135 Mg126 2.114 . S
O135 C138 1.252 . S
O136 Mg126 2.251 . S
O136 Mg129 2.079 . S
O136 C138 1.273 . S
C137 O133 1.246 . S
C137 O134 1.259 . S
C138 O135 1.252 . S
C138 O136 1.273 . S
O139 Mg126 2.010 . S
O139 C131 1.249 . S
Mg140 O141 2.028 . S
Mg140 O147 1.986 . S
Mg140 O149 2.114 . S
Mg140 O150 2.251 . S
Mg140 O153 2.010 . S
O141 Mg140 2.028 . S
O141 C144 1.250 . S
O142 Mg143 2.028 . S
O142 C144 1.248 . S
Mg143 O142 2.028 . S
Mg143 O148 2.032 . S
Mg143 O150 2.079 . S
C144 O141 1.250 . S
C144 O142 1.248 . S
C145 O146 1.264 . S
C145 O153 1.249 . S
O146 C145 1.264 . S
O147 Mg140 1.986 . S
O147 C151 1.246 . S
O148 Mg143 2.032 . S
O148 C151 1.259 . S
O149 Mg140 2.114 . S
O149 C152 1.252 . S
O150 Mg140 2.251 . S
O150 Mg143 2.079 . S
O150 C152 1.273 . S
C151 O147 1.246 . S
C151 O148 1.259 . S
C152 O149 1.252 . S
C152 O150 1.273 . S
O153 Mg140 2.010 . S
O153 C145 1.249 . S
Mg154 O155 2.028 . S
Mg154 O161 1.986 . S
Mg154 O163 2.114 . S
Mg154 O164 2.251 . S
Mg154 O167 2.010 . S
O155 Mg154 2.028 . S
O155 C158 1.250 . S
O156 Mg157 2.028 . S
O156 C158 1.248 . S
Mg157 O156 2.028 . S
Mg157 O162 2.032 . S
Mg157 O164 2.079 . S
C158 O155 1.250 . S
C158 O156 1.248 . S
C159 O160 1.264 . S
C159 O167 1.249 . S
O160 C159 1.264 . S
O161 Mg154 1.986 . S
O161 C165 1.246 . S
O162 Mg157 2.032 . S
O162 C165 1.259 . S
O163 Mg154 2.114 . S
O163 C166 1.252 . S
O164 Mg154 2.251 . S
O164 Mg157 2.079 . S
O164 C166 1.273 . S
C165 O161 1.246 . S
C165 O162 1.259 . S
C166 O163 1.252 . S
C166 O164 1.273 . S
O167 Mg154 2.010 . S
O167 C159 1.249 . S
Mg168 O169 2.028 . S
Mg168 O175 1.986 . S
Mg168 O177 2.114 1_455 S
Mg168 O178 2.251 1_455 S
Mg168 O181 2.010 . S
O169 Mg168 2.028 . S
O169 C172 1.250 . S
O170 Mg171 2.028 . S
O170 C172 1.248 1_655 S
Mg171 O170 2.028 . S
Mg171 O176 2.032 . S
Mg171 O178 2.079 . S
C172 O169 1.250 . S
C172 O170 1.248 1_455 S
C173 O174 1.264 . S
C173 O181 1.249 . S
O174 C173 1.264 . S
O175 Mg168 1.986 . S
O175 C179 1.246 . S
O176 Mg171 2.032 . S
O176 C179 1.259 1_655 S
O177 Mg168 2.114 1_655 S
O177 C180 1.252 . S
O178 Mg168 2.251 1_655 S
O178 Mg171 2.079 . S
O178 C180 1.273 . S
C179 O175 1.246 . S
C179 O176 1.259 1_455 S
C180 O177 1.252 . S
C180 O178 1.273 . S
O181 Mg168 2.010 . S
O181 C173 1.249 . S
Mg182 O183 2.028 . S
Mg182 O189 1.986 . S
Mg182 O191 2.114 1_455 S
Mg182 O192 2.251 1_455 S
Mg182 O195 2.010 . S
O183 Mg182 2.028 . S
O183 C186 1.250 . S
O184 Mg185 2.028 . S
O184 C186 1.248 1_655 S
Mg185 O184 2.028 . S
Mg185 O190 2.032 . S
Mg185 O192 2.079 . S
C186 O183 1.250 . S
C186 O184 1.248 1_455 S
C187 O188 1.264 . S
C187 O195 1.249 . S
O188 C187 1.264 . S
O189 Mg182 1.986 . S
O189 C193 1.246 . S
O190 Mg185 2.032 . S
O190 C193 1.259 1_655 S
O191 Mg182 2.114 1_655 S
O191 C194 1.252 . S
O192 Mg182 2.251 1_655 S
O192 Mg185 2.079 . S
O192 C194 1.273 . S
C193 O189 1.246 . S
C193 O190 1.259 1_455 S
C194 O191 1.252 . S
C194 O192 1.273 . S
O195 Mg182 2.010 . S
O195 C187 1.249 . S
Mg196 O197 2.028 . S
Mg196 O203 1.986 . S
Mg196 O205 2.114 . S
Mg196 O206 2.251 . S
Mg196 O209 2.010 . S
O197 Mg196 2.028 . S
O197 C200 1.250 . S
O198 Mg199 2.028 . S
O198 C200 1.248 . S
Mg199 O198 2.028 . S
Mg199 O204 2.032 . S
Mg199 O206 2.079 . S
C200 O197 1.250 . S
C200 O198 1.248 . S
C201 O202 1.264 . S
C201 O209 1.249 . S
O202 C201 1.264 . S
O203 Mg196 1.986 . S
O203 C207 1.246 . S
O204 Mg199 2.032 . S
O204 C207 1.259 . S
O205 Mg196 2.114 . S
O205 C208 1.252 . S
O206 Mg196 2.251 . S
O206 Mg199 2.079 . S
O206 C208 1.273 . S
C207 O203 1.246 . S
C207 O204 1.259 . S
C208 O205 1.252 . S
C208 O206 1.273 . S
O209 Mg196 2.010 . S
O209 C201 1.249 . S
Mg210 O211 2.028 . S
Mg210 O217 1.986 . S
Mg210 O219 2.114 . S
Mg210 O220 2.251 . S
Mg210 O223 2.010 . S
O211 Mg210 2.028 . S
O211 C214 1.250 . S
O212 Mg213 2.028 . S
O212 C214 1.248 . S
Mg213 O212 2.028 . S
Mg213 O218 2.032 . S
Mg213 O220 2.079 . S
C214 O211 1.250 . S
C214 O212 1.248 . S
C215 O216 1.264 . S
C215 O223 1.249 . S
O216 C215 1.264 . S
O217 Mg210 1.986 . S
O217 C221 1.246 . S
O218 Mg213 2.032 . S
O218 C221 1.259 . S
O219 Mg210 2.114 . S
O219 C222 1.252 . S
O220 Mg210 2.251 . S
O220 Mg213 2.079 . S
O220 C222 1.273 . S
C221 O217 1.246 . S
C221 O218 1.259 . S
C222 O219 1.252 . S
C222 O220 1.273 . S
O223 Mg210 2.010 . S
O223 C215 1.249 . S
Mg224 O225 2.028 1_545 S
Mg224 O231 1.986 . S
Mg224 O233 2.114 1_545 S
Mg224 O234 2.251 . S
Mg224 O237 2.010 . S
O225 Mg224 2.028 1_565 S
O225 C228 1.250 . S
O226 Mg227 2.028 1_565 S
O226 C228 1.248 . S
Mg227 O226 2.028 1_545 S
Mg227 O232 2.032 . S
Mg227 O234 2.079 . S
C228 O225 1.250 . S
C228 O226 1.248 . S
C229 O230 1.264 . S
C229 O237 1.249 . S
O230 C229 1.264 . S
O231 Mg224 1.986 . S
O231 C235 1.246 . S
O232 Mg227 2.032 . S
O232 C235 1.259 . S
O233 Mg224 2.114 1_565 S
O233 C236 1.262 . S
O234 Mg224 2.251 . S
O234 Mg227 2.079 . S
O234 C236 1.259 1_545 S
C235 O231 1.246 . S
C235 O232 1.259 . S
C236 O233 1.262 . S
C236 O234 1.259 1_565 S
O237 Mg224 2.010 . S
O237 C229 1.249 . S
Mg238 O239 2.028 . S
Mg238 O245 1.986 . S
Mg238 O247 2.114 . S
Mg238 O248 2.251 . S
Mg238 O251 2.010 . S
O239 Mg238 2.028 . S
O239 C242 1.250 . S
O240 Mg241 2.028 . S
O240 C242 1.248 . S
Mg241 O240 2.028 . S
Mg241 O246 2.032 . S
Mg241 O248 2.079 . S
C242 O239 1.250 . S
C242 O240 1.248 . S
C243 O244 1.264 . S
C243 O251 1.249 . S
O244 C243 1.264 . S
O245 Mg238 1.986 . S
O245 C249 1.246 . S
O246 Mg241 2.032 . S
O246 C249 1.259 . S
O247 Mg238 2.114 . S
O247 C250 1.252 . S
O248 Mg238 2.251 . S
O248 Mg241 2.079 . S
O248 C250 1.273 . S
C249 O245 1.246 . S
C249 O246 1.259 . S
C250 O247 1.252 . S
C250 O248 1.273 . S
O251 Mg238 2.010 . S
O251 C243 1.249 . S
Mg252 O253 2.028 1_565 S
Mg252 O259 1.986 . S
Mg252 O261 2.114 1_565 S
Mg252 O262 2.251 1_565 S
Mg252 O265 2.010 . S
O253 Mg252 2.028 1_545 S
O253 C256 1.250 . S
O254 Mg255 2.028 . S
O254 C256 1.248 . S
Mg255 O254 2.028 . S
Mg255 O260 2.032 1_545 S
Mg255 O262 2.081 . S
C256 O253 1.250 . S
C256 O254 1.248 . S
C257 O258 1.264 . S
C257 O265 1.249 . S
O258 C257 1.264 . S
O259 Mg252 1.986 . S
O259 C263 1.246 . S
O260 Mg255 2.032 1_565 S
O260 C263 1.259 . S
O261 Mg252 2.114 1_545 S
O261 C264 1.252 . S
O262 Mg252 2.251 1_545 S
O262 Mg255 2.081 . S
O262 C264 1.283 . S
C263 O259 1.246 . S
C263 O260 1.259 . S
C264 O261 1.252 . S
C264 O262 1.283 . S
O265 Mg252 2.010 . S
O265 C257 1.249 . S
Mg266 O267 2.028 1_554 S
Mg266 O273 1.986 . S
Mg266 O275 2.114 . S
Mg266 O276 2.251 . S
Mg266 O279 2.010 . S
O267 Mg266 2.028 1_556 S
O267 C270 1.250 . S
O268 Mg269 2.028 1_556 S
O268 C270 1.248 . S
Mg269 O268 2.028 1_554 S
Mg269 O274 2.032 . S
Mg269 O276 2.079 . S
C270 O267 1.250 . S
C270 O268 1.248 . S
C271 O272 1.264 . S
C271 O279 1.249 . S
O272 C271 1.264 . S
O273 Mg266 1.986 . S
O273 C277 1.246 . S
O274 Mg269 2.032 . S
O274 C277 1.259 . S
O275 Mg266 2.114 . S
O275 C278 1.252 . S
O276 Mg266 2.251 . S
O276 Mg269 2.079 . S
O276 C278 1.273 . S
C277 O273 1.246 . S
C277 O274 1.259 . S
C278 O275 1.252 . S
C278 O276 1.273 . S
O279 Mg266 2.010 . S
O279 C271 1.249 . S
Mg280 O281 2.028 1_556 S
Mg280 O287 1.986 . S
Mg280 O289 2.114 1_556 S
Mg280 O290 2.251 . S
Mg280 O293 2.010 . S
O281 Mg280 2.028 1_554 S
O281 C284 1.250 . S
O282 Mg283 2.028 . S
O282 C284 1.248 . S
Mg283 O282 2.028 . S
Mg283 O288 2.032 1_554 S
Mg283 O290 2.079 1_554 S
C284 O281 1.250 . S
C284 O282 1.248 . S
C285 O286 1.264 . S
C285 O293 1.249 . S
O286 C285 1.264 . S
O287 Mg280 1.986 . S
O287 C291 1.246 . S
O288 Mg283 2.032 1_556 S
O288 C291 1.259 . S
O289 Mg280 2.114 1_554 S
O289 C292 1.252 . S
O290 Mg280 2.251 . S
O290 Mg283 2.079 1_556 S
O290 C292 1.273 1_556 S
C291 O287 1.246 . S
C291 O288 1.259 . S
C292 O289 1.252 . S
C292 O290 1.273 1_554 S
O293 Mg280 2.010 . S
O293 C285 1.249 . S
Mg294 O295 2.028 . S
Mg294 O301 1.986 . S
Mg294 O303 2.114 . S
Mg294 O304 2.251 . S
Mg294 O307 2.010 . S
O295 Mg294 2.028 . S
O295 C298 1.250 . S
O296 Mg297 2.028 . S
O296 C298 1.248 . S
Mg297 O296 2.028 . S
Mg297 O302 2.032 . S
Mg297 O304 2.079 . S
C298 O295 1.250 . S
C298 O296 1.248 . S
C299 O300 1.264 . S
C299 O307 1.249 . S
O300 C299 1.264 . S
O301 Mg294 1.986 . S
O301 C305 1.246 . S
O302 Mg297 2.032 . S
O302 C305 1.259 . S
O303 Mg294 2.114 . S
O303 C306 1.252 . S
O304 Mg294 2.251 . S
O304 Mg297 2.079 . S
O304 C306 1.273 . S
C305 O301 1.246 . S
C305 O302 1.259 . S
C306 O303 1.252 . S
C306 O304 1.273 . S
O307 Mg294 2.010 . S
O307 C299 1.249 . S
Mg308 O309 2.028 . S
Mg308 O315 1.986 . S
Mg308 O317 2.114 . S
Mg308 O318 2.251 . S
Mg308 O321 2.010 . S
O309 Mg308 2.028 . S
O309 C312 1.250 . S
O310 Mg311 2.028 . S
O310 C312 1.248 . S
Mg311 O310 2.028 . S
Mg311 O316 2.032 . S
Mg311 O318 2.079 . S
C312 O309 1.250 . S
C312 O310 1.248 . S
C313 O314 1.264 . S
C313 O321 1.249 . S
O314 C313 1.264 . S
O315 Mg308 1.986 . S
O315 C319 1.246 . S
O316 Mg311 2.032 . S
O316 C319 1.259 . S
O317 Mg308 2.114 . S
O317 C320 1.252 . S
O318 Mg308 2.251 . S
O318 Mg311 2.079 . S
O318 C320 1.273 . S
C319 O315 1.246 . S
C319 O316 1.259 . S
C320 O317 1.252 . S
C320 O318 1.273 . S
O321 Mg308 2.010 . S
O321 C313 1.249 . S
Mg322 O323 2.028 . S
Mg322 O329 1.986 . S
Mg322 O331 2.114 . S
Mg322 O332 2.251 . S
Mg322 O335 2.010 . S
O323 Mg322 2.028 . S
O323 C326 1.250 . S
O324 Mg325 2.028 . S
O324 C326 1.248 . S
Mg325 O324 2.028 . S
Mg325 O330 2.032 . S
Mg325 O332 2.079 . S
C326 O323 1.250 . S
C326 O324 1.248 . S
C327 O328 1.264 . S
C327 O335 1.249 . S
O328 C327 1.264 . S
O329 Mg322 1.986 . S
O329 C333 1.246 . S
O330 Mg325 2.032 . S
O330 C333 1.259 . S
O331 Mg322 2.114 . S
O331 C334 1.252 . S
O332 Mg322 2.251 . S
O332 Mg325 2.079 . S
O332 C334 1.273 . S
C333 O329 1.246 . S
C333 O330 1.259 . S
C334 O331 1.252 . S
C334 O332 1.273 . S
O335 Mg322 2.010 . S
O335 C327 1.249 . S
O336 Mn337 2.163 . S
O336 C350 1.244 . S
Mn337 O336 2.163 . S
Mn337 O340 2.160 1_445 S
Mn337 O341 2.221 1_455 S
Mn337 O343 2.163 1_454 S
Mn337 O345 2.160 1_545 S
Mn337 O355 2.227 1_545 S
O338 Mn339 2.087 1_556 S
O338 C350 1.256 1_566 S
Mn339 O338 2.087 1_554 S
Mn339 O346 2.089 . S
Mn339 O355 2.300 . S
Mn339 O356 2.251 1_554 S
O340 Mn337 2.160 1_665 S
O340 C351 1.239 . S
O341 Mn337 2.221 1_655 S
O341 Mn342 2.299 . S
O341 C352 1.278 . S
Mn342 O341 2.299 . S
Mn342 O344 2.091 . S
Mn342 O347 2.254 . S
Mn342 O348 2.072 1_554 S
O343 Mn337 2.163 1_656 S
O343 C353 1.244 . S
O344 Mn342 2.091 . S
O344 C351 1.256 1_545 S
O345 Mn337 2.160 1_565 S
O345 C354 1.239 . S
O346 Mn339 2.089 . S
O346 C354 1.256 . S
O347 Mn342 2.254 . S
O347 C352 1.241 . S
O348 Mn342 2.072 1_556 S
O348 C353 1.256 . S
C349 O355 1.256 1_556 S
C349 O356 1.241 . S
C350 O336 1.244 . S
C350 O338 1.256 1_544 S
C351 O340 1.239 . S
C351 O344 1.256 1_565 S
C352 O341 1.278 . S
C352 O347 1.241 . S
C353 O343 1.244 . S
C353 O348 1.256 . S
C354 O345 1.239 . S
C354 O346 1.256 . S
O355 Mn337 2.227 1_565 S
O355 Mn339 2.300 . S
O355 C349 1.256 1_554 S
O356 Mn339 2.251 1_556 S
O356 C349 1.241 . S
O357 Mn358 2.163 . S
O357 C371 1.244 . S
Mn358 O357 2.163 . S
Mn358 O361 2.160 . S
Mn358 O362 2.221 . S
Mn358 O364 2.163 . S
Mn358 O366 2.160 . S
Mn358 O376 2.221 . S
O359 Mn360 2.087 . S
O359 C371 1.256 . S
Mn360 O359 2.087 . S
Mn360 O367 2.089 . S
Mn360 O376 2.290 . S
Mn360 O377 2.251 . S
O361 Mn358 2.160 . S
O361 C372 1.239 . S
O362 Mn358 2.221 . S
O362 Mn363 2.290 . S
O362 C373 1.278 . S
Mn363 O362 2.290 . S
Mn363 O365 2.089 . S
Mn363 O368 2.251 . S
Mn363 O369 2.087 . S
O364 Mn358 2.163 . S
O364 C374 1.244 . S
O365 Mn363 2.089 . S
O365 C372 1.256 . S
O366 Mn358 2.160 . S
O366 C375 1.239 . S
O367 Mn360 2.089 . S
O367 C375 1.256 . S
O368 Mn363 2.251 . S
O368 C373 1.241 . S
O369 Mn363 2.087 . S
O369 C374 1.256 . S
C370 O376 1.278 . S
C370 O377 1.241 . S
C371 O357 1.244 . S
C371 O359 1.256 . S
C372 O361 1.239 . S
C372 O365 1.256 . S
C373 O362 1.278 . S
C373 O368 1.241 . S
C374 O364 1.244 . S
C374 O369 1.256 . S
C375 O366 1.239 . S
C375 O367 1.256 . S
O376 Mn358 2.221 . S
O376 Mn360 2.290 . S
O376 C370 1.278 . S
O377 Mn360 2.251 . S
O377 C370 1.241 . S
O378 Mn379 2.163 1_565 S
O378 C392 1.244 . S
Mn379 O378 2.163 1_545 S
Mn379 O382 2.160 . S
Mn379 O383 2.221 1_545 S
Mn379 O385 2.163 . S
Mn379 O387 2.160 . S
Mn379 O397 2.221 . S
O380 Mn381 2.087 . S
O380 C392 1.256 1_545 S
Mn381 O380 2.087 . S
Mn381 O388 2.089 . S
Mn381 O397 2.290 . S
Mn381 O398 2.251 . S
O382 Mn379 2.160 . S
O382 C393 1.239 . S
O383 Mn379 2.221 1_565 S
O383 Mn384 2.290 . S
O383 C394 1.278 . S
Mn384 O383 2.290 . S
Mn384 O386 2.089 1_565 S
Mn384 O389 2.251 . S
Mn384 O390 2.087 . S
O385 Mn379 2.163 . S
O385 C395 1.244 1_545 S
O386 Mn384 2.089 1_545 S
O386 C393 1.256 . S
O387 Mn379 2.160 . S
O387 C396 1.239 . S
O388 Mn381 2.089 . S
O388 C396 1.256 . S
O389 Mn384 2.251 . S
O389 C394 1.241 . S
O390 Mn384 2.087 . S
O390 C395 1.256 . S
C391 O397 1.278 . S
C391 O398 1.241 . S
C392 O378 1.244 . S
C392 O380 1.256 1_565 S
C393 O382 1.239 . S
C393 O386 1.256 . S
C394 O383 1.278 . S
C394 O389 1.241 . S
C395 O385 1.244 1_565 S
C395 O390 1.256 . S
C396 O387 1.239 . S
C396 O388 1.256 . S
O397 Mn379 2.221 . S
O397 Mn381 2.290 . S
O397 C391 1.278 . S
O398 Mn381 2.251 . S
O398 C391 1.241 . S
O399 Mn400 2.163 . S
O399 C413 1.244 . S
Mn400 O399 2.163 . S
Mn400 O403 2.160 . S
Mn400 O404 2.221 . S
Mn400 O406 2.163 . S
Mn400 O408 2.160 . S
Mn400 O418 2.221 . S
O401 Mn402 2.087 . S
O401 C413 1.256 . S
Mn402 O401 2.087 . S
Mn402 O409 2.089 . S
Mn402 O418 2.290 . S
Mn402 O419 2.251 . S
O403 Mn400 2.160 . S
O403 C414 1.239 . S
O404 Mn400 2.221 . S
O404 Mn405 2.290 . S
O404 C415 1.278 . S
Mn405 O404 2.290 . S
Mn405 O407 2.089 . S
Mn405 O410 2.251 . S
Mn405 O411 2.087 . S
O406 Mn400 2.163 . S
O406 C416 1.244 . S
O407 Mn405 2.089 . S
O407 C414 1.256 . S
O408 Mn400 2.160 . S
O408 C417 1.239 . S
O409 Mn402 2.089 . S
O409 C417 1.256 . S
O410 Mn405 2.251 . S
O410 C415 1.241 . S
O411 Mn405 2.087 . S
O411 C416 1.256 . S
C412 O418 1.278 . S
C412 O419 1.241 . S
C413 O399 1.244 . S
C413 O401 1.256 . S
C414 O403 1.239 . S
C414 O407 1.256 . S
C415 O404 1.278 . S
C415 O410 1.241 . S
C416 O406 1.244 . S
C416 O411 1.256 . S
C417 O408 1.239 . S
C417 O409 1.256 . S
O418 Mn400 2.221 . S
O418 Mn402 2.290 . S
O418 C412 1.278 . S
O419 Mn402 2.251 . S
O419 C412 1.241 . S
O420 Mn421 2.163 1_565 S
O420 C434 1.244 . S
Mn421 O420 2.163 1_545 S
Mn421 O424 2.160 . S
Mn421 O425 2.221 . S
Mn421 O427 2.163 1_455 S
Mn421 O429 2.160 1_545 S
Mn421 O439 2.221 1_545 S
O422 Mn423 2.087 . S
O422 C434 1.256 . S
Mn423 O422 2.087 . S
Mn423 O430 2.089 . S
Mn423 O439 2.290 . S
Mn423 O440 2.251 1_455 S
O424 Mn421 2.160 . S
O424 C435 1.239 . S
O425 Mn421 2.221 . S
O425 Mn426 2.290 . S
O425 C436 1.278 . S
Mn426 O425 2.290 . S
Mn426 O428 2.089 . S
Mn426 O431 2.251 . S
Mn426 O432 2.087 1_455 S
O427 Mn421 2.163 1_655 S
O427 C437 1.244 . S
O428 Mn426 2.089 . S
O428 C435 1.256 . S
O429 Mn421 2.160 1_565 S
O429 C438 1.239 . S
O430 Mn423 2.089 . S
O430 C438 1.256 . S
O431 Mn426 2.251 . S
O431 C436 1.241 . S
O432 Mn426 2.087 1_655 S
O432 C437 1.256 . S
C433 O439 1.278 1_655 S
C433 O440 1.241 . S
C434 O420 1.244 . S
C434 O422 1.256 . S
C435 O424 1.239 . S
C435 O428 1.256 . S
C436 O425 1.278 . S
C436 O431 1.241 . S
C437 O427 1.244 . S
C437 O432 1.256 . S
C438 O429 1.239 . S
C438 O430 1.256 . S
O439 Mn421 2.221 1_565 S
O439 Mn423 2.290 . S
O439 C433 1.278 1_455 S
O440 Mn423 2.251 1_655 S
O440 C433 1.241 . S
O441 Mn442 2.163 . S
O441 C455 1.244 . S
Mn442 O441 2.163 . S
Mn442 O445 2.160 . S
Mn442 O446 2.221 . S
Mn442 O448 2.163 . S
Mn442 O450 2.160 . S
Mn442 O460 2.221 . S
O443 Mn444 2.087 . S
O443 C455 1.256 . S
Mn444 O443 2.087 . S
Mn444 O451 2.089 . S
Mn444 O460 2.290 . S
Mn444 O461 2.251 . S
O445 Mn442 2.160 . S
O445 C456 1.239 . S
O446 Mn442 2.221 . S
O446 Mn447 2.290 . S
O446 C457 1.278 . S
Mn447 O446 2.290 . S
Mn447 O449 2.089 . S
Mn447 O452 2.251 . S
Mn447 O453 2.087 . S
O448 Mn442 2.163 . S
O448 C458 1.244 . S
O449 Mn447 2.089 . S
O449 C456 1.256 . S
O450 Mn442 2.160 . S
O450 C459 1.239 . S
O451 Mn444 2.089 . S
O451 C459 1.256 . S
O452 Mn447 2.251 . S
O452 C457 1.241 . S
O453 Mn447 2.087 . S
O453 C458 1.256 . S
C454 O460 1.278 . S
C454 O461 1.241 . S
C455 O441 1.244 . S
C455 O443 1.256 . S
C456 O445 1.239 . S
C456 O449 1.256 . S
C457 O446 1.278 . S
C457 O452 1.241 . S
C458 O448 1.244 . S
C458 O453 1.256 . S
C459 O450 1.239 . S
C459 O451 1.256 . S
O460 Mn442 2.221 . S
O460 Mn444 2.290 . S
O460 C454 1.278 . S
O461 Mn444 2.251 . S
O461 C454 1.241 . S
O462 Mn463 2.162 1_566 S
O462 C476 1.245 . S
Mn463 O462 2.162 1_544 S
Mn463 O466 2.160 . S
Mn463 O467 2.221 . S
Mn463 O469 2.163 1_545 S
Mn463 O471 2.160 1_554 S
Mn463 O481 2.217 1_544 S
O464 Mn465 2.087 1_565 S
O464 C476 1.256 . S
Mn465 O464 2.087 1_545 S
Mn465 O472 2.089 . S
Mn465 O481 2.283 1_545 S
Mn465 O482 2.251 1_545 S
O466 Mn463 2.160 . S
O466 C477 1.239 . S
O467 Mn463 2.221 . S
O467 Mn468 2.290 1_545 S
O467 C478 1.278 . S
Mn468 O467 2.290 1_565 S
Mn468 O470 2.089 1_565 S
Mn468 O473 2.251 1_565 S
Mn468 O474 2.087 . S
O469 Mn463 2.163 1_565 S
O469 C479 1.244 . S
O470 Mn468 2.089 1_545 S
O470 C477 1.256 . S
O471 Mn463 2.160 1_556 S
O471 C480 1.239 . S
O472 Mn465 2.089 . S
O472 C480 1.256 . S
O473 Mn468 2.251 1_545 S
O473 C478 1.241 . S
O474 Mn468 2.087 . S
O474 C479 1.256 . S
C475 O481 1.294 . S
C475 O482 1.241 . S
C476 O462 1.245 . S
C476 O464 1.256 . S
C477 O466 1.239 . S
C477 O470 1.256 . S
C478 O467 1.278 . S
C478 O473 1.241 . S
C479 O469 1.244 . S
C479 O474 1.256 . S
C480 O471 1.239 . S
C480 O472 1.256 . S
O481 Mn463 2.217 1_566 S
O481 Mn465 2.283 1_565 S
O481 C475 1.294 . S
O482 Mn465 2.251 1_565 S
O482 C475 1.241 . S
O483 Mn484 2.163 . S
O483 C497 1.244 . S
Mn484 O483 2.163 . S
Mn484 O487 2.160 . S
Mn484 O488 2.221 . S
Mn484 O490 2.163 . S
Mn484 O492 2.160 . S
Mn484 O502 2.221 . S
O485 Mn486 2.087 . S
O485 C497 1.256 . S
Mn486 O485 2.087 . S
Mn486 O493 2.089 . S
Mn486 O502 2.290 . S
Mn486 O503 2.251 . S
O487 Mn484 2.160 . S
O487 C498 1.239 . S
O488 Mn484 2.221 . S
O488 Mn489 2.290 . S
O488 C499 1.278 . S
Mn489 O488 2.290 . S
Mn489 O491 2.089 . S
Mn489 O494 2.251 . S
Mn489 O495 2.087 . S
O490 Mn484 2.163 . S
O490 C500 1.244 . S
O491 Mn489 2.089 . S
O491 C498 1.256 . S
O492 Mn484 2.160 . S
O492 C501 1.239 . S
O493 Mn486 2.089 . S
O493 C501 1.256 . S
O494 Mn489 2.251 . S
O494 C499 1.241 . S
O495 Mn489 2.087 . S
O495 C500 1.256 . S
C496 O502 1.278 . S
C496 O503 1.241 . S
C497 O483 1.244 . S
C497 O485 1.256 . S
C498 O487 1.239 . S
C498 O491 1.256 . S
C499 O488 1.278 . S
C499 O494 1.241 . S
C500 O490 1.244 . S
C500 O495 1.256 . S
C501 O492 1.239 . S
C501 O493 1.256 . S
O502 Mn484 2.221 . S
O502 Mn486 2.290 . S
O502 C496 1.278 . S
O503 Mn486 2.251 . S
O503 C496 1.241 . S
O504 Mn505 2.163 1_556 S
O504 C518 1.244 . S
Mn505 O504 2.163 1_554 S
Mn505 O508 2.160 . S
Mn505 O509 2.221 1_554 S
Mn505 O511 2.163 . S
Mn505 O513 2.160 . S
Mn505 O523 2.221 . S
O506 Mn507 2.087 . S
O506 C518 1.256 1_554 S
Mn507 O506 2.087 . S
Mn507 O514 2.089 . S
Mn507 O523 2.290 . S
Mn507 O524 2.251 . S
O508 Mn505 2.160 . S
O508 C519 1.239 . S
O509 Mn505 2.221 1_556 S
O509 Mn510 2.290 . S
O509 C520 1.278 . S
Mn510 O509 2.290 . S
Mn510 O512 2.089 1_556 S
Mn510 O515 2.251 . S
Mn510 O516 2.087 . S
O511 Mn505 2.163 . S
O511 C521 1.244 1_554 S
O512 Mn510 2.089 1_554 S
O512 C519 1.256 . S
O513 Mn505 2.160 . S
O513 C522 1.239 . S
O514 Mn507 2.089 . S
O514 C522 1.256 . S
O515 Mn510 2.251 . S
O515 C520 1.241 . S
O516 Mn510 2.087 . S
O516 C521 1.256 . S
C517 O523 1.278 . S
C517 O524 1.241 . S
C518 O504 1.244 . S
C518 O506 1.256 1_556 S
C519 O508 1.239 . S
C519 O512 1.256 . S
C520 O509 1.278 . S
C520 O515 1.241 . S
C521 O511 1.244 1_556 S
C521 O516 1.256 . S
C522 O513 1.239 . S
C522 O514 1.256 . S
O523 Mn505 2.221 . S
O523 Mn507 2.290 . S
O523 C517 1.278 . S
O524 Mn507 2.251 . S
O524 C517 1.241 . S
O525 Mn526 2.163 . S
O525 C539 1.244 . S
Mn526 O525 2.163 . S
Mn526 O529 2.160 . S
Mn526 O530 2.221 . S
Mn526 O532 2.163 . S
Mn526 O534 2.160 . S
Mn526 O544 2.221 . S
O527 Mn528 2.087 . S
O527 C539 1.256 . S
Mn528 O527 2.087 . S
Mn528 O535 2.089 . S
Mn528 O544 2.290 . S
Mn528 O545 2.251 . S
O529 Mn526 2.160 . S
O529 C540 1.239 . S
O530 Mn526 2.221 . S
O530 Mn531 2.290 . S
O530 C541 1.278 . S
Mn531 O530 2.290 . S
Mn531 O533 2.089 . S
Mn531 O536 2.251 . S
Mn531 O537 2.087 . S
O532 Mn526 2.163 . S
O532 C542 1.244 . S
O533 Mn531 2.089 . S
O533 C540 1.256 . S
O534 Mn526 2.160 . S
O534 C543 1.239 . S
O535 Mn528 2.089 . S
O535 C543 1.256 . S
O536 Mn531 2.251 . S
O536 C541 1.241 . S
O537 Mn531 2.087 . S
O537 C542 1.256 . S
C538 O544 1.278 . S
C538 O545 1.241 . S
C539 O525 1.244 . S
C539 O527 1.256 . S
C540 O529 1.239 . S
C540 O533 1.256 . S
C541 O530 1.278 . S
C541 O536 1.241 . S
C542 O532 1.244 . S
C542 O537 1.256 . S
C543 O534 1.239 . S
C543 O535 1.256 . S
O544 Mn526 2.221 . S
O544 Mn528 2.290 . S
O544 C538 1.278 . S
O545 Mn528 2.251 . S
O545 C538 1.241 . S
O546 Mn547 2.163 1_655 S
O546 C560 1.244 . S
Mn547 O546 2.163 1_455 S
Mn547 O550 2.160 . S
Mn547 O551 2.221 1_455 S
Mn547 O553 2.163 . S
Mn547 O555 2.160 . S
Mn547 O565 2.221 . S
O548 Mn549 2.087 . S
O548 C560 1.256 1_455 S
Mn549 O548 2.087 . S
Mn549 O556 2.089 . S
Mn549 O565 2.290 . S
Mn549 O566 2.251 . S
O550 Mn547 2.160 . S
O550 C561 1.239 . S
O551 Mn547 2.221 1_655 S
O551 Mn552 2.290 . S
O551 C562 1.278 . S
Mn552 O551 2.290 . S
Mn552 O554 2.076 1_655 S
Mn552 O557 2.251 . S
Mn552 O558 2.087 . S
O553 Mn547 2.163 . S
O553 C563 1.244 1_455 S
O554 Mn552 2.076 1_455 S
O554 C561 1.266 . S
O555 Mn547 2.160 . S
O555 C564 1.239 . S
O556 Mn549 2.089 . S
O556 C564 1.256 . S
O557 Mn552 2.251 . S
O557 C562 1.241 . S
O558 Mn552 2.087 . S
O558 C563 1.256 . S
C559 O565 1.278 . S
C559 O566 1.241 . S
C560 O546 1.244 . S
C560 O548 1.256 1_655 S
C561 O550 1.239 . S
C561 O554 1.266 . S
C562 O551 1.278 . S
C562 O557 1.241 . S
C563 O553 1.244 1_655 S
C563 O558 1.256 . S
C564 O555 1.239 . S
C564 O556 1.256 . S
O565 Mn547 2.221 . S
O565 Mn549 2.290 . S
O565 C559 1.278 . S
O566 Mn549 2.251 . S
O566 C559 1.241 . S
O567 Mn568 2.163 . S
O567 C581 1.244 . S
Mn568 O567 2.163 . S
Mn568 O571 2.160 . S
Mn568 O572 2.221 . S
Mn568 O574 2.163 . S
Mn568 O576 2.160 . S
Mn568 O586 2.221 . S
O569 Mn570 2.087 . S
O569 C581 1.256 . S
Mn570 O569 2.087 . S
Mn570 O577 2.089 . S
Mn570 O586 2.290 . S
Mn570 O587 2.251 . S
O571 Mn568 2.160 . S
O571 C582 1.239 . S
O572 Mn568 2.221 . S
O572 Mn573 2.290 . S
O572 C583 1.278 . S
Mn573 O572 2.290 . S
Mn573 O575 2.089 . S
Mn573 O578 2.251 . S
Mn573 O579 2.087 . S
O574 Mn568 2.163 . S
O574 C584 1.244 . S
O575 Mn573 2.089 . S
O575 C582 1.256 . S
O576 Mn568 2.160 . S
O576 C585 1.239 . S
O577 Mn570 2.089 . S
O577 C585 1.256 . S
O578 Mn573 2.251 . S
O578 C583 1.241 . S
O579 Mn573 2.087 . S
O579 C584 1.256 . S
C580 O586 1.278 . S
C580 O587 1.241 . S
C581 O567 1.244 . S
C581 O569 1.256 . S
C582 O571 1.239 . S
C582 O575 1.256 . S
C583 O572 1.278 . S
C583 O578 1.241 . S
C584 O574 1.244 . S
C584 O579 1.256 . S
C585 O576 1.239 . S
C585 O577 1.256 . S
O586 Mn568 2.221 . S
O586 Mn570 2.290 . S
O586 C580 1.278 . S
O587 Mn570 2.251 . S
O587 C580 1.241 . S
O588 Mn589 2.163 . S
O588 C602 1.244 . S
Mn589 O588 2.163 . S
Mn589 O592 2.160 . S
Mn589 O593 2.221 . S
Mn589 O595 2.163 . S
Mn589 O597 2.160 . S
Mn589 O607 2.221 . S
O590 Mn591 2.087 . S
O590 C602 1.256 . S
Mn591 O590 2.087 . S
Mn591 O598 2.089 . S
Mn591 O607 2.290 . S
Mn591 O608 2.251 . S
O592 Mn589 2.160 . S
O592 C603 1.239 . S
O593 Mn589 2.221 . S
O593 Mn594 2.290 . S
O593 C604 1.278 . S
Mn594 O593 2.290 . S
Mn594 O596 2.089 . S
Mn594 O599 2.251 . S
Mn594 O600 2.087 . S
O595 Mn589 2.163 . S
O595 C605 1.244 . S
O596 Mn594 2.089 . S
O596 C603 1.256 . S
O597 Mn589 2.160 . S
O597 C606 1.239 . S
O598 Mn591 2.089 . S
O598 C606 1.256 . S
O599 Mn594 2.251 . S
O599 C604 1.241 . S
O600 Mn594 2.087 . S
O600 C605 1.256 . S
C601 O607 1.278 . S
C601 O608 1.241 . S
C602 O588 1.244 . S
C602 O590 1.256 . S
C603 O592 1.239 . S
C603 O596 1.256 . S
C604 O593 1.278 . S
C604 O599 1.241 . S
C605 O595 1.244 . S
C605 O600 1.256 . S
C606 O597 1.239 . S
C606 O598 1.256 . S
O607 Mn589 2.221 . S
O607 Mn591 2.290 . S
O607 C601 1.278 . S
O608 Mn591 2.251 . S
O608 C601 1.241 . S
O609 Mn610 2.163 . S
O609 C623 1.244 . S
Mn610 O609 2.163 . S
Mn610 O613 2.160 . S
Mn610 O614 2.221 . S
Mn610 O616 2.163 . S
Mn610 O618 2.160 . S
Mn610 O628 2.221 . S
O611 Mn612 2.087 . S
O611 C623 1.256 . S
Mn612 O611 2.087 . S
Mn612 O619 2.089 . S
Mn612 O628 2.290 . S
Mn612 O629 2.251 . S
O613 Mn610 2.160 . S
O613 C624 1.239 . S
O614 Mn610 2.221 . S
O614 Mn615 2.290 . S
O614 C625 1.278 . S
Mn615 O614 2.290 . S
Mn615 O617 2.089 . S
Mn615 O620 2.251 . S
Mn615 O621 2.087 . S
O616 Mn610 2.163 . S
O616 C626 1.244 . S
O617 Mn615 2.089 . S
O617 C624 1.256 . S
O618 Mn610 2.160 . S
O618 C627 1.239 . S
O619 Mn612 2.089 . S
O619 C627 1.256 . S
O620 Mn615 2.251 . S
O620 C625 1.241 . S
O621 Mn615 2.087 . S
O621 C626 1.256 . S
C622 O628 1.278 . S
C622 O629 1.241 . S
C623 O609 1.244 . S
C623 O611 1.256 . S
C624 O613 1.239 . S
C624 O617 1.256 . S
C625 O614 1.278 . S
C625 O620 1.241 . S
C626 O616 1.244 . S
C626 O621 1.256 . S
C627 O618 1.239 . S
C627 O619 1.256 . S
O628 Mn610 2.221 . S
O628 Mn612 2.290 . S
O628 C622 1.278 . S
O629 Mn612 2.251 . S
O629 C622 1.241 . S
O630 Mn631 2.163 . S
O630 C644 1.244 . S
Mn631 O630 2.163 . S
Mn631 O634 2.160 . S
Mn631 O635 2.221 . S
Mn631 O637 2.163 . S
Mn631 O639 2.160 . S
Mn631 O649 2.221 . S
O632 Mn633 2.087 . S
O632 C644 1.256 . S
Mn633 O632 2.087 . S
Mn633 O640 2.089 . S
Mn633 O649 2.290 . S
Mn633 O650 2.251 . S
O634 Mn631 2.160 . S
O634 C645 1.239 . S
O635 Mn631 2.221 . S
O635 Mn636 2.290 . S
O635 C646 1.278 . S
Mn636 O635 2.290 . S
Mn636 O638 2.089 . S
Mn636 O641 2.251 . S
Mn636 O642 2.087 . S
O637 Mn631 2.163 . S
O637 C647 1.244 . S
O638 Mn636 2.089 . S
O638 C645 1.256 . S
O639 Mn631 2.160 . S
O639 C648 1.239 . S
O640 Mn633 2.089 . S
O640 C648 1.256 . S
O641 Mn636 2.251 . S
O641 C646 1.241 . S
O642 Mn636 2.087 . S
O642 C647 1.256 . S
C643 O649 1.278 . S
C643 O650 1.241 . S
C644 O630 1.244 . S
C644 O632 1.256 . S
C645 O634 1.239 . S
C645 O638 1.256 . S
C646 O635 1.278 . S
C646 O641 1.241 . S
C647 O637 1.244 . S
C647 O642 1.256 . S
C648 O639 1.239 . S
C648 O640 1.256 . S
O649 Mn631 2.221 . S
O649 Mn633 2.290 . S
O649 C643 1.278 . S
O650 Mn633 2.251 . S
O650 C643 1.241 . S
O651 Mn652 2.158 1_656 S
O651 C665 1.249 . S
Mn652 O651 2.158 1_454 S
Mn652 O655 2.160 . S
Mn652 O656 2.221 . S
Mn652 O658 2.163 1_554 S
Mn652 O660 2.160 1_455 S
Mn652 O670 2.221 1_454 S
O653 Mn654 2.087 1_556 S
O653 C665 1.256 . S
Mn654 O653 2.087 1_554 S
Mn654 O661 2.089 . S
Mn654 O670 2.290 1_554 S
Mn654 O671 2.251 1_554 S
O655 Mn652 2.160 . S
O655 C666 1.239 . S
O656 Mn652 2.221 . S
O656 Mn657 2.290 1_554 S
O656 C667 1.278 . S
Mn657 O656 2.290 1_556 S
Mn657 O659 2.087 1_556 S
Mn657 O662 2.251 1_556 S
Mn657 O663 2.087 . S
O658 Mn652 2.163 1_556 S
O658 C668 1.244 . S
O659 Mn657 2.087 1_554 S
O659 C666 1.264 . S
O660 Mn652 2.160 1_655 S
O660 C669 1.239 . S
O661 Mn654 2.089 . S
O661 C669 1.256 . S
O662 Mn657 2.251 1_554 S
O662 C667 1.241 . S
O663 Mn657 2.087 . S
O663 C668 1.256 . S
C664 O670 1.278 . S
C664 O671 1.241 . S
C665 O651 1.249 . S
C665 O653 1.256 . S
C666 O655 1.239 . S
C666 O659 1.264 . S
C667 O656 1.278 . S
C667 O662 1.241 . S
C668 O658 1.244 . S
C668 O663 1.256 . S
C669 O660 1.239 . S
C669 O661 1.256 . S
O670 Mn652 2.221 1_656 S
O670 Mn654 2.290 1_556 S
O670 C664 1.278 . S
O671 Mn654 2.251 1_556 S
O671 C664 1.241 . S
H672 C678 0.930 . S
H673 C681 0.930 . S
H674 C682 0.930 . S
H675 C683 0.930 . S
H676 C686 0.930 . S
H677 C687 0.930 . S
C678 H672 0.930 . S
C678 C679 1.355 . S
C678 C680 1.415 . S
C679 C678 1.355 . S
C679 C681 1.419 1_455 S
C680 C678 1.415 . S
C680 C685 1.425 1_455 S
C680 C687 1.409 . S
C681 H673 0.930 . S
C681 C679 1.419 1_655 S
C681 C682 1.362 . S
C682 H674 0.930 . S
C682 C681 1.362 . S
C682 C685 1.409 . S
C683 H675 0.930 . S
C683 C684 1.328 1_655 S
C683 C685 1.415 . S
C684 C683 1.328 1_455 S
C684 C686 1.455 . S
C685 C680 1.425 1_655 S
C685 C682 1.409 . S
C685 C683 1.415 . S
C686 H676 0.930 . S
C686 C684 1.455 . S
C686 C687 1.362 . S
C687 H677 0.930 . S
C687 C680 1.409 . S
C687 C686 1.362 . S
H688 C694 0.930 . S
H689 C697 0.930 . S
H690 C698 0.930 . S
H691 C699 0.930 . S
H692 C702 0.930 . S
H693 C703 0.930 . S
C694 H688 0.930 . S
C694 C695 1.355 . S
C694 C696 1.415 . S
C695 C694 1.355 . S
C695 C697 1.419 . S
C696 C694 1.415 . S
C696 C701 1.425 . S
C696 C703 1.409 . S
C697 H689 0.930 . S
C697 C695 1.419 . S
C697 C698 1.362 . S
C698 H690 0.930 . S
C698 C697 1.362 . S
C698 C701 1.409 . S
C699 H691 0.930 . S
C699 C700 1.355 . S
C699 C701 1.415 . S
C700 C699 1.355 . S
C700 C702 1.419 . S
C701 C696 1.425 . S
C701 C698 1.409 . S
C701 C699 1.415 . S
C702 H692 0.930 . S
C702 C700 1.419 . S
C702 C703 1.362 . S
C703 H693 0.930 . S
C703 C696 1.409 . S
C703 C702 1.362 . S
H704 C710 0.930 . S
H705 C713 0.930 . S
H706 C714 0.930 . S
H707 C715 0.930 . S
H708 C718 0.930 . S
H709 C719 0.930 . S
C710 H704 0.930 . S
C710 C711 1.355 . S
C710 C712 1.415 . S
C711 C710 1.355 . S
C711 C713 1.419 . S
C712 C710 1.415 . S
C712 C717 1.425 . S
C712 C719 1.409 . S
C713 H705 0.930 . S
C713 C711 1.419 . S
C713 C714 1.362 . S
C714 H706 0.930 . S
C714 C713 1.362 . S
C714 C717 1.409 . S
C715 H707 0.930 . S
C715 C716 1.355 . S
C715 C717 1.415 . S
C716 C715 1.355 . S
C716 C718 1.419 . S
C717 C712 1.425 . S
C717 C714 1.409 . S
C717 C715 1.415 . S
C718 H708 0.930 . S
C718 C716 1.419 . S
C718 C719 1.362 . S
C719 H709 0.930 . S
C719 C712 1.409 . S
C719 C718 1.362 . S
H720 C726 0.930 . S
H721 C729 0.930 . S
H722 C730 0.930 . S
H723 C731 0.930 . S
H724 C734 0.930 . S
H725 C735 0.930 . S
C726 H720 0.930 . S
C726 C727 1.355 . S
C726 C728 1.415 . S
C727 C726 1.355 . S
C727 C729 1.419 . S
C728 C726 1.415 . S
C728 C733 1.425 . S
C728 C735 1.409 . S
C729 H721 0.930 . S
C729 C727 1.419 . S
C729 C730 1.362 . S
C730 H722 0.930 . S
C730 C729 1.362 . S
C730 C733 1.409 . S
C731 H723 0.930 . S
C731 C732 1.355 . S
C731 C733 1.415 . S
C732 C731 1.355 . S
C732 C734 1.419 . S
C733 C728 1.425 . S
C733 C730 1.409 . S
C733 C731 1.415 . S
C734 H724 0.930 . S
C734 C732 1.419 . S
C734 C735 1.362 . S
C735 H725 0.930 . S
C735 C728 1.409 . S
C735 C734 1.362 . S
H736 C742 0.930 . S
H737 C745 0.930 . S
H738 C746 0.930 . S
H739 C747 0.930 . S
H740 C750 0.930 . S
H741 C751 0.930 . S
C742 H736 0.930 . S
C742 C743 1.355 1_655 S
C742 C744 1.415 . S
C743 C742 1.355 1_455 S
C743 C745 1.419 . S
C744 C742 1.415 . S
C744 C749 1.425 1_655 S
C744 C751 1.409 . S
C745 H737 0.930 . S
C745 C743 1.419 . S
C745 C746 1.362 . S
C746 H738 0.930 . S
C746 C745 1.362 . S
C746 C749 1.409 . S
C747 H739 0.930 . S
C747 C748 1.378 . S
C747 C749 1.415 . S
C748 C747 1.378 . S
C748 C750 1.394 1_455 S
C749 C744 1.425 1_455 S
C749 C746 1.409 . S
C749 C747 1.415 . S
C750 H740 0.930 . S
C750 C748 1.394 1_655 S
C750 C751 1.362 . S
C751 H741 0.930 . S
C751 C744 1.409 . S
C751 C750 1.362 . S
H752 C758 0.930 . S
H753 C761 0.930 . S
H754 C762 0.930 . S
H755 C763 0.930 . S
H756 C766 0.930 . S
H757 C767 0.930 . S
C758 H752 0.930 . S
C758 C759 1.355 . S
C758 C760 1.415 . S
C759 C758 1.355 . S
C759 C761 1.419 . S
C760 C758 1.415 . S
C760 C765 1.425 . S
C760 C767 1.409 . S
C761 H753 0.930 . S
C761 C759 1.419 . S
C761 C762 1.362 . S
C762 H754 0.930 . S
C762 C761 1.362 . S
C762 C765 1.409 . S
C763 H755 0.930 . S
C763 C764 1.355 . S
C763 C765 1.415 . S
C764 C763 1.355 . S
C764 C766 1.419 . S
C765 C760 1.425 . S
C765 C762 1.409 . S
C765 C763 1.415 . S
C766 H756 0.930 . S
C766 C764 1.419 . S
C766 C767 1.362 . S
C767 H757 0.930 . S
C767 C760 1.409 . S
C767 C766 1.362 . S
H768 C774 0.930 . S
H769 C777 0.930 . S
H770 C778 0.930 . S
H771 C779 0.930 . S
H772 C782 0.930 . S
H773 C783 0.930 . S
C774 H768 0.930 . S
C774 C775 1.355 . S
C774 C776 1.415 . S
C775 C774 1.355 . S
C775 C777 1.419 . S
C776 C774 1.415 . S
C776 C781 1.425 . S
C776 C783 1.409 . S
C777 H769 0.930 . S
C777 C775 1.419 . S
C777 C778 1.362 . S
C778 H770 0.930 . S
C778 C777 1.362 . S
C778 C781 1.409 . S
C779 H771 0.930 . S
C779 C780 1.355 . S
C779 C781 1.415 . S
C780 C779 1.355 . S
C780 C782 1.419 . S
C781 C776 1.425 . S
C781 C778 1.409 . S
C781 C779 1.415 . S
C782 H772 0.930 . S
C782 C780 1.419 . S
C782 C783 1.362 . S
C783 H773 0.930 . S
C783 C776 1.409 . S
C783 C782 1.362 . S
H784 C790 0.930 . S
H785 C793 0.930 . S
H786 C794 0.930 . S
H787 C795 0.930 . S
H788 C798 0.930 . S
H789 C799 0.930 . S
C790 H784 0.930 . S
C790 C791 1.355 . S
C790 C792 1.415 . S
C791 C790 1.355 . S
C791 C793 1.419 . S
C792 C790 1.415 . S
C792 C797 1.425 . S
C792 C799 1.409 . S
C793 H785 0.930 . S
C793 C791 1.419 . S
C793 C794 1.362 . S
C794 H786 0.930 . S
C794 C793 1.362 . S
C794 C797 1.409 . S
C795 H787 0.930 . S
C795 C796 1.355 . S
C795 C797 1.415 . S
C796 C795 1.355 . S
C796 C798 1.419 . S
C797 C792 1.425 . S
C797 C794 1.409 . S
C797 C795 1.415 . S
C798 H788 0.930 . S
C798 C796 1.419 . S
C798 C799 1.362 . S
C799 H789 0.930 . S
C799 C792 1.409 . S
C799 C798 1.362 . S
H800 C806 0.930 . S
H801 C809 0.930 . S
H802 C810 0.930 . S
H803 C811 0.930 . S
H804 C814 0.930 . S
H805 C815 0.930 . S
C806 H800 0.930 . S
C806 C807 1.355 . S
C806 C808 1.415 . S
C807 C806 1.355 . S
C807 C809 1.419 1_545 S
C808 C806 1.415 . S
C808 C813 1.425 1_545 S
C808 C815 1.409 . S
C809 H801 0.930 . S
C809 C807 1.419 1_565 S
C809 C810 1.362 . S
C810 H802 0.930 . S
C810 C809 1.362 . S
C810 C813 1.409 . S
C811 H803 0.930 . S
C811 C812 1.355 . S
C811 C813 1.415 . S
C812 C811 1.355 . S
C812 C814 1.419 1_565 S
C813 C808 1.425 1_565 S
C813 C810 1.409 . S
C813 C811 1.415 . S
C814 H804 0.930 . S
C814 C812 1.419 1_545 S
C814 C815 1.362 . S
C815 H805 0.930 . S
C815 C808 1.409 . S
C815 C814 1.362 . S
H816 C822 0.930 . S
H817 C825 0.930 . S
H818 C826 0.930 . S
H819 C827 0.930 . S
H820 C830 0.930 . S
H821 C831 0.930 . S
C822 H816 0.930 . S
C822 C823 1.355 . S
C822 C824 1.415 . S
C823 C822 1.355 . S
C823 C825 1.419 . S
C824 C822 1.415 . S
C824 C829 1.425 . S
C824 C831 1.409 . S
C825 H817 0.930 . S
C825 C823 1.419 . S
C825 C826 1.362 . S
C826 H818 0.930 . S
C826 C825 1.362 . S
C826 C829 1.409 . S
C827 H819 0.930 . S
C827 C828 1.355 . S
C827 C829 1.415 . S
C828 C827 1.355 . S
C828 C830 1.419 . S
C829 C824 1.425 . S
C829 C826 1.409 . S
C829 C827 1.415 . S
C830 H820 0.930 . S
C830 C828 1.419 . S
C830 C831 1.362 . S
C831 H821 0.930 . S
C831 C824 1.409 . S
C831 C830 1.362 . S
H832 C838 0.930 . S
H833 C841 0.930 . S
H834 C842 0.930 . S
H835 C843 0.930 1_565 S
H836 C846 0.930 . S
H837 C847 0.930 . S
C838 H832 0.930 . S
C838 C839 1.353 . S
C838 C840 1.415 . S
C839 C838 1.353 . S
C839 C841 1.420 1_545 S
C840 C838 1.415 . S
C840 C845 1.425 . S
C840 C847 1.409 . S
C841 H833 0.930 . S
C841 C839 1.420 1_565 S
C841 C842 1.362 . S
C842 H834 0.930 . S
C842 C841 1.362 . S
C842 C845 1.409 1_565 S
C843 H835 0.930 1_545 S
C843 C844 1.355 . S
C843 C845 1.415 . S
C844 C843 1.355 . S
C844 C846 1.419 . S
C845 C840 1.425 . S
C845 C842 1.409 1_545 S
C845 C843 1.415 . S
C846 H836 0.930 . S
C846 C844 1.419 . S
C846 C847 1.362 . S
C847 H837 0.930 . S
C847 C840 1.409 . S
C847 C846 1.362 . S
H848 C854 0.930 . S
H849 C857 0.930 . S
H850 C858 0.930 . S
H851 C859 0.930 . S
H852 C862 0.930 . S
H853 C863 0.930 . S
C854 H848 0.930 . S
C854 C855 1.355 . S
C854 C856 1.415 . S
C855 C854 1.355 . S
C855 C857 1.419 . S
C856 C854 1.415 . S
C856 C861 1.425 . S
C856 C863 1.409 . S
C857 H849 0.930 . S
C857 C855 1.419 . S
C857 C858 1.362 . S
C858 H850 0.930 . S
C858 C857 1.362 . S
C858 C861 1.409 . S
C859 H851 0.930 . S
C859 C860 1.355 . S
C859 C861 1.415 . S
C860 C859 1.355 . S
C860 C862 1.419 . S
C861 C856 1.425 . S
C861 C858 1.409 . S
C861 C859 1.415 . S
C862 H852 0.930 . S
C862 C860 1.419 . S
C862 C863 1.362 . S
C863 H853 0.930 . S
C863 C856 1.409 . S
C863 C862 1.362 . S
H864 C870 0.930 . S
H865 C873 0.930 . S
H866 C874 0.930 . S
H867 C875 0.930 . S
H868 C878 0.930 . S
H869 C879 0.930 . S
C870 H864 0.930 . S
C870 C871 1.355 . S
C870 C872 1.415 . S
C871 C870 1.355 . S
C871 C873 1.419 1_545 S
C872 C870 1.415 . S
C872 C877 1.425 1_545 S
C872 C879 1.409 . S
C873 H865 0.930 . S
C873 C871 1.419 1_565 S
C873 C874 1.362 . S
C874 H866 0.930 . S
C874 C873 1.362 . S
C874 C877 1.409 . S
C875 H867 0.930 . S
C875 C876 1.355 1_565 S
C875 C877 1.415 . S
C876 C875 1.355 1_545 S
C876 C878 1.419 . S
C877 C872 1.425 1_565 S
C877 C874 1.409 . S
C877 C875 1.415 . S
C878 H868 0.930 . S
C878 C876 1.419 . S
C878 C879 1.362 . S
C879 H869 0.930 . S
C879 C872 1.409 . S
C879 C878 1.362 . S
H880 C886 0.930 . S
H881 C889 0.930 . S
H882 C890 0.930 . S
H883 C891 0.930 . S
H884 C894 0.930 . S
H885 C895 0.930 . S
C886 H880 0.930 . S
C886 C887 1.355 . S
C886 C888 1.415 . S
C887 C886 1.355 . S
C887 C889 1.419 . S
C888 C886 1.415 . S
C888 C893 1.425 . S
C888 C895 1.409 . S
C889 H881 0.930 . S
C889 C887 1.419 . S
C889 C890 1.362 . S
C890 H882 0.930 . S
C890 C889 1.362 . S
C890 C893 1.409 . S
C891 H883 0.930 . S
C891 C892 1.355 . S
C891 C893 1.415 . S
C892 C891 1.355 . S
C892 C894 1.419 . S
C893 C888 1.425 . S
C893 C890 1.409 . S
C893 C891 1.415 . S
C894 H884 0.930 . S
C894 C892 1.419 . S
C894 C895 1.362 . S
C895 H885 0.930 . S
C895 C888 1.409 . S
C895 C894 1.362 . S
H896 C902 0.930 . S
H897 C905 0.930 . S
H898 C906 0.930 . S
H899 C907 0.930 . S
H900 C910 0.930 . S
H901 C911 0.930 . S
C902 H896 0.930 . S
C902 C903 1.355 . S
C902 C904 1.415 . S
C903 C902 1.355 . S
C903 C905 1.419 1_545 S
C904 C902 1.415 . S
C904 C909 1.425 1_545 S
C904 C911 1.409 . S
C905 H897 0.930 . S
C905 C903 1.419 1_565 S
C905 C906 1.362 . S
C906 H898 0.930 . S
C906 C905 1.362 . S
C906 C909 1.409 . S
C907 H899 0.930 . S
C907 C908 1.355 . S
C907 C909 1.415 . S
C908 C907 1.355 . S
C908 C910 1.419 1_565 S
C909 C904 1.425 1_565 S
C909 C906 1.409 . S
C909 C907 1.415 . S
C910 H900 0.930 . S
C910 C908 1.419 1_545 S
C910 C911 1.362 . S
C911 H901 0.930 . S
C911 C904 1.409 . S
C911 C910 1.362 . S
H912 C918 0.930 . S
H913 C921 0.930 . S
H914 C922 0.930 . S
H915 C923 0.930 . S
H916 C926 0.930 . S
H917 C927 0.930 . S
C918 H912 0.930 . S
C918 C919 1.355 . S
C918 C920 1.415 . S
C919 C918 1.355 . S
C919 C921 1.419 . S
C920 C918 1.415 . S
C920 C925 1.425 . S
C920 C927 1.409 . S
C921 H913 0.930 . S
C921 C919 1.419 . S
C921 C922 1.362 . S
C922 H914 0.930 . S
C922 C921 1.362 . S
C922 C925 1.409 . S
C923 H915 0.930 . S
C923 C924 1.355 . S
C923 C925 1.415 . S
C924 C923 1.355 . S
C924 C926 1.419 . S
C925 C920 1.425 . S
C925 C922 1.409 . S
C925 C923 1.415 . S
C926 H916 0.930 . S
C926 C924 1.419 . S
C926 C927 1.362 . S
C927 H917 0.930 . S
C927 C920 1.409 . S
C927 C926 1.362 . S
H928 C934 0.930 . S
H929 C937 0.930 . S
H930 C938 0.930 . S
H931 C939 0.930 1_556 S
H932 C942 0.933 . S
H933 C943 0.930 . S
C934 H928 0.930 . S
C934 C935 1.355 . S
C934 C936 1.415 . S
C935 C934 1.355 . S
C935 C937 1.419 . S
C936 C934 1.415 . S
C936 C941 1.425 . S
C936 C943 1.409 . S
C937 H929 0.930 . S
C937 C935 1.419 . S
C937 C938 1.362 . S
C938 H930 0.930 . S
C938 C937 1.362 . S
C938 C941 1.409 . S
C939 H931 0.930 1_554 S
C939 C940 1.354 1_554 S
C939 C941 1.415 . S
C940 C939 1.354 1_556 S
C940 C942 1.419 1_556 S
C941 C936 1.425 . S
C941 C938 1.409 . S
C941 C939 1.415 . S
C942 H932 0.933 . S
C942 C940 1.419 1_554 S
C942 C943 1.362 . S
C943 H933 0.930 . S
C943 C936 1.409 . S
C943 C942 1.362 . S
H944 C950 0.930 . S
H945 C953 0.930 . S
H946 C954 0.930 . S
H947 C955 0.930 . S
H948 C958 0.930 . S
H949 C959 0.930 . S
C950 H944 0.930 . S
C950 C951 1.355 1_556 S
C950 C952 1.417 . S
C951 C950 1.355 1_554 S
C951 C953 1.419 . S
C952 C950 1.417 . S
C952 C957 1.419 1_556 S
C952 C959 1.413 . S
C953 H945 0.930 . S
C953 C951 1.419 . S
C953 C954 1.362 . S
C954 H946 0.930 . S
C954 C953 1.362 . S
C954 C957 1.409 . S
C955 H947 0.930 . S
C955 C956 1.355 . S
C955 C957 1.415 . S
C956 C955 1.355 . S
C956 C958 1.419 1_554 S
C957 C952 1.419 1_554 S
C957 C954 1.409 . S
C957 C955 1.415 . S
C958 H948 0.930 . S
C958 C956 1.419 1_556 S
C958 C959 1.362 . S
C959 H949 0.930 . S
C959 C952 1.413 . S
C959 C958 1.362 . S
H960 C966 0.930 . S
H961 C969 0.930 . S
H962 C970 0.930 . S
H963 C971 0.930 . S
H964 C974 0.930 . S
H965 C975 0.930 . S
C966 H960 0.930 . S
C966 C967 1.355 . S
C966 C968 1.415 . S
C967 C966 1.355 . S
C967 C969 1.419 . S
C968 C966 1.415 . S
C968 C973 1.425 . S
C968 C975 1.409 . S
C969 H961 0.930 . S
C969 C967 1.419 . S
C969 C970 1.362 . S
C970 H962 0.930 . S
C970 C969 1.362 . S
C970 C973 1.409 . S
C971 H963 0.930 . S
C971 C972 1.355 . S
C971 C973 1.415 . S
C972 C971 1.355 . S
C972 C974 1.419 . S
C973 C968 1.425 . S
C973 C970 1.409 . S
C973 C971 1.415 . S
C974 H964 0.930 . S
C974 C972 1.419 . S
C974 C975 1.362 . S
C975 H965 0.930 . S
C975 C968 1.409 . S
C975 C974 1.362 . S
H976 C982 0.930 . S
H977 C985 0.930 . S
H978 C986 0.930 . S
H979 C987 0.930 . S
H980 C990 0.930 . S
H981 C991 0.930 . S
C982 H976 0.930 . S
C982 C983 1.355 . S
C982 C984 1.415 . S
C983 C982 1.355 . S
C983 C985 1.419 . S
C984 C982 1.415 . S
C984 C989 1.425 . S
C984 C991 1.409 . S
C985 H977 0.930 . S
C985 C983 1.419 . S
C985 C986 1.362 . S
C986 H978 0.930 . S
C986 C985 1.362 . S
C986 C989 1.409 . S
C987 H979 0.930 . S
C987 C988 1.355 . S
C987 C989 1.415 . S
C988 C987 1.355 . S
C988 C990 1.419 . S
C989 C984 1.425 . S
C989 C986 1.409 . S
C989 C987 1.415 . S
C990 H980 0.930 . S
C990 C988 1.419 . S
C990 C991 1.362 . S
C991 H981 0.930 . S
C991 C984 1.409 . S
C991 C990 1.362 . S
H992 C998 0.930 . S
H993 C1001 0.930 . S
H994 C1002 0.930 . S
H995 C1003 0.930 . S
H996 C1006 0.930 . S
H997 C1007 0.930 . S
C998 H992 0.930 . S
C998 C999 1.355 . S
C998 C1000 1.415 . S
C999 C998 1.355 . S
C999 C1001 1.419 . S
C1000 C998 1.415 . S
C1000 C1005 1.425 . S
C1000 C1007 1.409 . S
C1001 H993 0.930 . S
C1001 C999 1.419 . S
C1001 C1002 1.362 . S
C1002 H994 0.930 . S
C1002 C1001 1.362 . S
C1002 C1005 1.409 . S
C1003 H995 0.930 . S
C1003 C1004 1.355 . S
C1003 C1005 1.415 . S
C1004 C1003 1.355 . S
C1004 C1006 1.419 . S
C1005 C1000 1.425 . S
C1005 C1002 1.409 . S
C1005 C1003 1.415 . S
C1006 H996 0.930 . S
C1006 C1004 1.419 . S
C1006 C1007 1.362 . S
C1007 H997 0.930 . S
C1007 C1000 1.409 . S
C1007 C1006 1.362 . S
H1008 C1014 0.930 . S
H1009 C1017 0.930 . S
H1010 C1018 0.930 . S
H1011 C1019 0.930 . S
H1012 C1022 0.930 . S
H1013 C1023 0.930 . S
C1014 H1008 0.930 . S
C1014 C1015 1.355 . S
C1014 C1016 1.415 . S
C1015 C1014 1.355 . S
C1015 C1017 1.419 . S
C1016 C1014 1.415 . S
C1016 C1021 1.425 . S
C1016 C1023 1.409 . S
C1017 H1009 0.930 . S
C1017 C1015 1.419 . S
C1017 C1018 1.362 . S
C1018 H1010 0.930 . S
C1018 C1017 1.362 . S
C1018 C1021 1.409 . S
C1019 H1011 0.930 . S
C1019 C1020 1.355 . S
C1019 C1021 1.415 . S
C1020 C1019 1.355 . S
C1020 C1022 1.419 . S
C1021 C1016 1.425 . S
C1021 C1018 1.409 . S
C1021 C1019 1.415 . S
C1022 H1012 0.930 . S
C1022 C1020 1.419 . S
C1022 C1023 1.362 . S
C1023 H1013 0.930 . S
C1023 C1016 1.409 . S
C1023 C1022 1.362 . S
H1024 C1030 0.930 . S
H1025 C1033 0.930 . S
H1026 C1034 0.930 . S
H1027 C1035 0.930 . S
H1028 C1038 0.930 . S
H1029 C1039 0.930 . S
C1030 H1024 0.930 . S
C1030 C1031 1.355 . S
C1030 C1032 1.415 . S
C1031 C1030 1.355 . S
C1031 C1033 1.419 . S
C1032 C1030 1.415 . S
C1032 C1037 1.425 . S
C1032 C1039 1.409 . S
C1033 H1025 0.930 . S
C1033 C1031 1.419 . S
C1033 C1034 1.362 . S
C1034 H1026 0.930 . S
C1034 C1033 1.362 . S
C1034 C1037 1.409 . S
C1035 H1027 0.930 . S
C1035 C1036 1.355 . S
C1035 C1037 1.415 . S
C1036 C1035 1.355 . S
C1036 C1038 1.419 . S
C1037 C1032 1.425 . S
C1037 C1034 1.409 . S
C1037 C1035 1.415 . S
C1038 H1028 0.930 . S
C1038 C1036 1.419 . S
C1038 C1039 1.362 . S
C1039 H1029 0.930 . S
C1039 C1032 1.409 . S
C1039 C1038 1.362 . S
H1040 C1046 0.930 . S
H1041 C1049 0.930 . S
H1042 C1050 0.930 . S
H1043 C1051 0.930 . S
H1044 C1054 0.930 . S
H1045 C1055 0.930 . S
C1046 H1040 0.930 . S
C1046 C1047 1.355 . S
C1046 C1048 1.415 . S
C1047 C1046 1.355 . S
C1047 C1049 1.419 . S
C1048 C1046 1.415 . S
C1048 C1053 1.425 . S
C1048 C1055 1.409 . S
C1049 H1041 0.930 . S
C1049 C1047 1.419 . S
C1049 C1050 1.362 . S
C1050 H1042 0.930 . S
C1050 C1049 1.362 . S
C1050 C1053 1.409 . S
C1051 H1043 0.930 . S
C1051 C1052 1.355 . S
C1051 C1053 1.415 . S
C1052 C1051 1.355 . S
C1052 C1054 1.419 . S
C1053 C1048 1.425 . S
C1053 C1050 1.409 . S
C1053 C1051 1.415 . S
C1054 H1044 0.930 . S
C1054 C1052 1.419 . S
C1054 C1055 1.362 . S
C1055 H1045 0.930 . S
C1055 C1048 1.409 . S
C1055 C1054 1.362 . S
H1056 C1062 0.930 . S
H1057 C1065 0.930 . S
H1058 C1066 0.930 . S
H1059 C1067 0.930 . S
H1060 C1070 0.930 . S
H1061 C1071 0.930 . S
C1062 H1056 0.930 . S
C1062 C1063 1.355 1_655 S
C1062 C1064 1.415 . S
C1063 C1062 1.355 1_455 S
C1063 C1065 1.419 . S
C1064 C1062 1.415 . S
C1064 C1069 1.424 1_655 S
C1064 C1071 1.410 . S
C1065 H1057 0.930 . S
C1065 C1063 1.419 . S
C1065 C1066 1.362 . S
C1066 H1058 0.930 . S
C1066 C1065 1.362 . S
C1066 C1069 1.409 . S
C1067 H1059 0.930 . S
C1067 C1068 1.355 . S
C1067 C1069 1.415 . S
C1068 C1067 1.355 . S
C1068 C1070 1.419 1_455 S
C1069 C1064 1.424 1_455 S
C1069 C1066 1.409 . S
C1069 C1067 1.415 . S
C1070 H1060 0.930 . S
C1070 C1068 1.419 1_655 S
C1070 C1071 1.362 . S
C1071 H1061 0.930 . S
C1071 C1064 1.410 . S
C1071 C1070 1.362 . S
H1072 C1078 0.930 . S
H1073 C1081 0.930 . S
H1074 C1082 0.930 . S
H1075 C1083 0.930 . S
H1076 C1086 0.930 . S
H1077 C1087 0.930 . S
C1078 H1072 0.930 . S
C1078 C1079 1.355 . S
C1078 C1080 1.415 . S
C1079 C1078 1.355 . S
C1079 C1081 1.419 . S
C1080 C1078 1.415 . S
C1080 C1085 1.425 . S
C1080 C1087 1.409 . S
C1081 H1073 0.930 . S
C1081 C1079 1.419 . S
C1081 C1082 1.362 . S
C1082 H1074 0.930 . S
C1082 C1081 1.362 . S
C1082 C1085 1.409 . S
C1083 H1075 0.930 . S
C1083 C1084 1.355 . S
C1083 C1085 1.415 . S
C1084 C1083 1.355 . S
C1084 C1086 1.419 . S
C1085 C1080 1.425 . S
C1085 C1082 1.409 . S
C1085 C1083 1.415 . S
C1086 H1076 0.930 . S
C1086 C1084 1.419 . S
C1086 C1087 1.362 . S
C1087 H1077 0.930 . S
C1087 C1080 1.409 . S
C1087 C1086 1.362 . S
H1088 C1094 0.930 . S
H1089 C1097 0.930 . S
H1090 C1098 0.930 . S
H1091 C1099 0.930 . S
H1092 C1102 0.930 . S
H1093 C1103 0.930 . S
C1094 H1088 0.930 . S
C1094 C1095 1.355 . S
C1094 C1096 1.415 . S
C1095 C1094 1.355 . S
C1095 C1097 1.419 . S
C1096 C1094 1.415 . S
C1096 C1101 1.425 . S
C1096 C1103 1.409 . S
C1097 H1089 0.930 . S
C1097 C1095 1.419 . S
C1097 C1098 1.362 . S
C1098 H1090 0.930 . S
C1098 C1097 1.362 . S
C1098 C1101 1.409 . S
C1099 H1091 0.930 . S
C1099 C1100 1.355 . S
C1099 C1101 1.415 . S
C1100 C1099 1.355 . S
C1100 C1102 1.419 . S
C1101 C1096 1.425 . S
C1101 C1098 1.409 . S
C1101 C1099 1.415 . S
C1102 H1092 0.930 . S
C1102 C1100 1.419 . S
C1102 C1103 1.362 . S
C1103 H1093 0.930 . S
C1103 C1096 1.409 . S
C1103 C1102 1.362 . S
H1104 C1110 0.930 . S
H1105 C1113 0.930 . S
H1106 C1114 0.930 . S
H1107 C1115 0.930 . S
H1108 C1118 0.930 . S
H1109 C1119 0.930 . S
C1110 H1104 0.930 . S
C1110 C1111 1.355 . S
C1110 C1112 1.415 . S
C1111 C1110 1.355 . S
C1111 C1113 1.419 . S
C1112 C1110 1.415 . S
C1112 C1117 1.425 . S
C1112 C1119 1.409 . S
C1113 H1105 0.930 . S
C1113 C1111 1.419 . S
C1113 C1114 1.362 . S
C1114 H1106 0.930 . S
C1114 C1113 1.362 . S
C1114 C1117 1.409 . S
C1115 H1107 0.930 . S
C1115 C1116 1.355 . S
C1115 C1117 1.415 . S
C1116 C1115 1.355 . S
C1116 C1118 1.419 . S
C1117 C1112 1.425 . S
C1117 C1114 1.409 . S
C1117 C1115 1.415 . S
C1118 H1108 0.930 . S
C1118 C1116 1.419 . S
C1118 C1119 1.362 . S
C1119 H1109 0.930 . S
C1119 C1112 1.409 . S
C1119 C1118 1.362 . S
H1120 C1126 0.930 . S
H1121 C1129 0.930 . S
H1122 C1130 0.930 . S
H1123 C1131 0.906 1_655 S
H1124 C1134 0.930 . S
H1125 C1135 0.930 . S
C1126 H1120 0.930 . S
C1126 C1127 1.355 . S
C1126 C1128 1.415 . S
C1127 C1126 1.355 . S
C1127 C1129 1.419 1_455 S
C1128 C1126 1.415 . S
C1128 C1133 1.425 . S
C1128 C1135 1.409 . S
C1129 H1121 0.930 . S
C1129 C1127 1.419 1_655 S
C1129 C1130 1.362 . S
C1130 H1122 0.930 . S
C1130 C1129 1.362 . S
C1130 C1133 1.409 1_655 S
C1131 H1123 0.906 1_455 S
C1131 C1132 1.377 . S
C1131 C1133 1.416 . S
C1132 C1131 1.377 . S
C1132 C1134 1.419 . S
C1133 C1128 1.425 . S
C1133 C1130 1.409 1_455 S
C1133 C1131 1.416 . S
C1134 H1124 0.930 . S
C1134 C1132 1.419 . S
C1134 C1135 1.362 . S
C1135 H1125 0.930 . S
C1135 C1128 1.409 . S
C1135 C1134 1.362 . S
H1136 C1142 0.930 . S
H1137 C1145 0.930 . S
H1138 C1146 0.930 . S
H1139 C1147 0.930 . S
H1140 C1150 0.930 . S
H1141 C1151 0.930 . S
C1142 H1136 0.930 . S
C1142 C1143 1.355 . S
C1142 C1144 1.415 . S
C1143 C1142 1.355 . S
C1143 C1145 1.419 . S
C1144 C1142 1.415 . S
C1144 C1149 1.425 . S
C1144 C1151 1.409 . S
C1145 H1137 0.930 . S
C1145 C1143 1.419 . S
C1145 C1146 1.362 . S
C1146 H1138 0.930 . S
C1146 C1145 1.362 . S
C1146 C1149 1.409 . S
C1147 H1139 0.930 . S
C1147 C1148 1.355 . S
C1147 C1149 1.415 . S
C1148 C1147 1.355 . S
C1148 C1150 1.419 . S
C1149 C1144 1.425 . S
C1149 C1146 1.409 . S
C1149 C1147 1.415 . S
C1150 H1140 0.930 . S
C1150 C1148 1.419 . S
C1150 C1151 1.362 . S
C1151 H1141 0.930 . S
C1151 C1144 1.409 . S
C1151 C1150 1.362 . S
H1152 C1158 0.930 . S
H1153 C1161 0.930 . S
H1154 C1162 0.930 . S
H1155 C1163 0.930 . S
H1156 C1166 0.930 . S
H1157 C1167 0.930 . S
C1158 H1152 0.930 . S
C1158 C1159 1.355 . S
C1158 C1160 1.415 . S
C1159 C1158 1.355 . S
C1159 C1161 1.419 . S
C1160 C1158 1.415 . S
C1160 C1165 1.425 . S
C1160 C1167 1.409 . S
C1161 H1153 0.930 . S
C1161 C1159 1.419 . S
C1161 C1162 1.362 . S
C1162 H1154 0.930 . S
C1162 C1161 1.362 . S
C1162 C1165 1.409 . S
C1163 H1155 0.930 . S
C1163 C1164 1.355 . S
C1163 C1165 1.415 . S
C1164 C1163 1.355 . S
C1164 C1166 1.419 . S
C1165 C1160 1.425 . S
C1165 C1162 1.409 . S
C1165 C1163 1.415 . S
C1166 H1156 0.930 . S
C1166 C1164 1.419 . S
C1166 C1167 1.362 . S
C1167 H1157 0.930 . S
C1167 C1160 1.409 . S
C1167 C1166 1.362 . S
H1168 C1174 0.930 . S
H1169 C1177 0.930 . S
H1170 C1178 0.930 . S
H1171 C1179 0.930 . S
H1172 C1182 0.930 . S
H1173 C1183 0.930 . S
C1174 H1168 0.930 . S
C1174 C1175 1.355 . S
C1174 C1176 1.415 . S
C1175 C1174 1.355 . S
C1175 C1177 1.419 . S
C1176 C1174 1.415 . S
C1176 C1181 1.425 . S
C1176 C1183 1.409 . S
C1177 H1169 0.930 . S
C1177 C1175 1.419 . S
C1177 C1178 1.362 . S
C1178 H1170 0.930 . S
C1178 C1177 1.362 . S
C1178 C1181 1.409 . S
C1179 H1171 0.930 . S
C1179 C1180 1.355 . S
C1179 C1181 1.415 . S
C1180 C1179 1.355 . S
C1180 C1182 1.419 . S
C1181 C1176 1.425 . S
C1181 C1178 1.409 . S
C1181 C1179 1.415 . S
C1182 H1172 0.930 . S
C1182 C1180 1.419 . S
C1182 C1183 1.362 . S
C1183 H1173 0.930 . S
C1183 C1176 1.409 . S
C1183 C1182 1.362 . S
H1184 C1190 0.930 . S
H1185 C1193 0.930 . S
H1186 C1194 0.930 . S
H1187 C1195 0.930 . S
H1188 C1198 0.930 1_455 S
H1189 C1199 0.930 . S
C1190 H1184 0.930 . S
C1190 C1191 1.340 1_565 S
C1190 C1192 1.415 . S
C1191 C1190 1.340 1_545 S
C1191 C1193 1.441 . S
C1192 C1190 1.415 . S
C1192 C1197 1.425 1_565 S
C1192 C1199 1.409 . S
C1193 H1185 0.930 . S
C1193 C1191 1.441 . S
C1193 C1194 1.362 . S
C1194 H1186 0.930 . S
C1194 C1193 1.362 . S
C1194 C1197 1.409 . S
C1195 H1187 0.930 . S
C1195 C1196 1.355 . S
C1195 C1197 1.415 . S
C1196 C1195 1.355 . S
C1196 C1198 1.419 1_545 S
C1197 C1192 1.425 1_545 S
C1197 C1194 1.409 . S
C1197 C1195 1.415 . S
C1198 H1188 0.930 1_655 S
C1198 C1196 1.419 1_565 S
C1198 C1199 1.362 . S
C1199 H1189 0.930 . S
C1199 C1192 1.409 . S
C1199 C1198 1.362 . S
H1200 C1206 0.930 . S
H1201 C1209 0.930 . S
H1202 C1210 0.930 . S
H1203 C1211 0.930 . S
H1204 C1214 0.930 . S
H1205 C1215 0.930 . S
C1206 H1200 0.930 . S
C1206 C1207 1.355 . S
C1206 C1208 1.415 . S
C1207 C1206 1.355 . S
C1207 C1209 1.419 . S
C1208 C1206 1.415 . S
C1208 C1213 1.425 . S
C1208 C1215 1.409 . S
C1209 H1201 0.930 . S
C1209 C1207 1.419 . S
C1209 C1210 1.362 . S
C1210 H1202 0.930 . S
C1210 C1209 1.362 . S
C1210 C1213 1.409 . S
C1211 H1203 0.930 . S
C1211 C1212 1.355 . S
C1211 C1213 1.415 . S
C1212 C1211 1.355 . S
C1212 C1214 1.419 . S
C1213 C1208 1.425 . S
C1213 C1210 1.409 . S
C1213 C1211 1.415 . S
C1214 H1204 0.930 . S
C1214 C1212 1.419 . S
C1214 C1215 1.362 . S
C1215 H1205 0.930 . S
C1215 C1208 1.409 . S
C1215 C1214 1.362 . S
H1216 C1222 0.930 . S
H1217 C1225 0.930 . S
H1218 C1226 0.930 . S
H1219 C1227 0.930 . S
H1220 C1230 0.930 . S
H1221 C1231 0.930 . S
C1222 H1216 0.930 . S
C1222 C1223 1.355 . S
C1222 C1224 1.415 . S
C1223 C1222 1.355 . S
C1223 C1225 1.419 . S
C1224 C1222 1.415 . S
C1224 C1229 1.423 1_545 S
C1224 C1231 1.409 . S
C1225 H1217 0.930 . S
C1225 C1223 1.419 . S
C1225 C1226 1.362 1_545 S
C1226 H1218 0.930 . S
C1226 C1225 1.362 1_565 S
C1226 C1229 1.409 . S
C1227 H1219 0.930 . S
C1227 C1228 1.355 . S
C1227 C1229 1.417 . S
C1228 C1227 1.355 . S
C1228 C1230 1.419 1_565 S
C1229 C1224 1.423 1_565 S
C1229 C1226 1.409 . S
C1229 C1227 1.417 . S
C1230 H1220 0.930 . S
C1230 C1228 1.419 1_545 S
C1230 C1231 1.362 . S
C1231 H1221 0.930 . S
C1231 C1224 1.409 . S
C1231 C1230 1.362 . S
H1232 C1238 0.930 . S
H1233 C1241 0.930 . S
H1234 C1242 0.930 . S
H1235 C1243 0.930 . S
H1236 C1246 0.930 . S
H1237 C1247 0.930 . S
C1238 H1232 0.930 . S
C1238 C1239 1.355 . S
C1238 C1240 1.415 . S
C1239 C1238 1.355 . S
C1239 C1241 1.419 . S
C1240 C1238 1.415 . S
C1240 C1245 1.425 . S
C1240 C1247 1.409 . S
C1241 H1233 0.930 . S
C1241 C1239 1.419 . S
C1241 C1242 1.362 . S
C1242 H1234 0.930 . S
C1242 C1241 1.362 . S
C1242 C1245 1.409 . S
C1243 H1235 0.930 . S
C1243 C1244 1.355 . S
C1243 C1245 1.415 . S
C1244 C1243 1.355 . S
C1244 C1246 1.419 . S
C1245 C1240 1.425 . S
C1245 C1242 1.409 . S
C1245 C1243 1.415 . S
C1246 H1236 0.930 . S
C1246 C1244 1.419 . S
C1246 C1247 1.362 . S
C1247 H1237 0.930 . S
C1247 C1240 1.409 . S
C1247 C1246 1.362 . S
H1248 C1254 0.930 . S
H1249 C1257 0.930 . S
H1250 C1258 0.930 . S
H1251 C1259 0.930 . S
H1252 C1262 0.930 . S
H1253 C1263 0.930 . S
C1254 H1248 0.930 . S
C1254 C1255 1.355 1_545 S
C1254 C1256 1.415 . S
C1255 C1254 1.355 1_565 S
C1255 C1257 1.419 . S
C1256 C1254 1.415 . S
C1256 C1261 1.425 1_545 S
C1256 C1263 1.409 . S
C1257 H1249 0.930 . S
C1257 C1255 1.419 . S
C1257 C1258 1.362 . S
C1258 H1250 0.930 . S
C1258 C1257 1.362 . S
C1258 C1261 1.409 . S
C1259 H1251 0.930 . S
C1259 C1260 1.355 . S
C1259 C1261 1.415 . S
C1260 C1259 1.355 . S
C1260 C1262 1.419 1_565 S
C1261 C1256 1.425 1_565 S
C1261 C1258 1.409 . S
C1261 C1259 1.415 . S
C1262 H1252 0.930 . S
C1262 C1260 1.419 1_545 S
C1262 C1263 1.362 . S
C1263 H1253 0.930 . S
C1263 C1256 1.409 . S
C1263 C1262 1.362 . S
H1264 C1270 0.930 . S
H1265 C1273 0.930 . S
H1266 C1274 0.930 . S
H1267 C1275 0.930 . S
H1268 C1278 0.930 . S
H1269 C1279 0.930 . S
C1270 H1264 0.930 . S
C1270 C1271 1.355 . S
C1270 C1272 1.415 . S
C1271 C1270 1.355 . S
C1271 C1273 1.419 . S
C1272 C1270 1.415 . S
C1272 C1277 1.425 . S
C1272 C1279 1.409 . S
C1273 H1265 0.930 . S
C1273 C1271 1.419 . S
C1273 C1274 1.362 . S
C1274 H1266 0.930 . S
C1274 C1273 1.362 . S
C1274 C1277 1.409 . S
C1275 H1267 0.930 . S
C1275 C1276 1.355 . S
C1275 C1277 1.415 . S
C1276 C1275 1.355 . S
C1276 C1278 1.419 . S
C1277 C1272 1.425 . S
C1277 C1274 1.409 . S
C1277 C1275 1.415 . S
C1278 H1268 0.930 . S
C1278 C1276 1.419 . S
C1278 C1279 1.362 . S
C1279 H1269 0.930 . S
C1279 C1272 1.409 . S
C1279 C1278 1.362 . S
H1280 C1286 0.919 1_565 S
H1281 C1289 0.930 . S
H1282 C1290 0.930 . S
H1283 C1291 0.930 . S
H1284 C1294 0.930 . S
H1285 C1295 0.930 1_565 S
C1286 H1280 0.919 1_545 S
C1286 C1287 1.355 . S
C1286 C1288 1.415 . S
C1287 C1286 1.355 . S
C1287 C1289 1.419 . S
C1288 C1286 1.415 . S
C1288 C1293 1.425 . S
C1288 C1295 1.409 . S
C1289 H1281 0.930 . S
C1289 C1287 1.419 . S
C1289 C1290 1.362 . S
C1290 H1282 0.930 . S
C1290 C1289 1.362 . S
C1290 C1293 1.409 . S
C1291 H1283 0.930 . S
C1291 C1292 1.355 . S
C1291 C1293 1.415 . S
C1292 C1291 1.355 . S
C1292 C1294 1.419 . S
C1293 C1288 1.425 . S
C1293 C1290 1.409 . S
C1293 C1291 1.415 . S
C1294 H1284 0.930 . S
C1294 C1292 1.419 . S
C1294 C1295 1.362 . S
C1295 H1285 0.930 1_545 S
C1295 C1288 1.409 . S
C1295 C1294 1.362 . S
H1296 C1302 0.930 . S
H1297 C1305 0.930 . S
H1298 C1306 0.930 . S
H1299 C1307 0.930 . S
H1300 C1310 0.930 . S
H1301 C1311 0.930 . S
C1302 H1296 0.930 . S
C1302 C1303 1.355 . S
C1302 C1304 1.415 . S
C1303 C1302 1.355 . S
C1303 C1305 1.419 . S
C1304 C1302 1.415 . S
C1304 C1309 1.425 . S
C1304 C1311 1.409 . S
C1305 H1297 0.930 . S
C1305 C1303 1.419 . S
C1305 C1306 1.362 . S
C1306 H1298 0.930 . S
C1306 C1305 1.362 . S
C1306 C1309 1.409 . S
C1307 H1299 0.930 . S
C1307 C1308 1.355 . S
C1307 C1309 1.415 . S
C1308 C1307 1.355 . S
C1308 C1310 1.419 . S
C1309 C1304 1.425 . S
C1309 C1306 1.409 . S
C1309 C1307 1.415 . S
C1310 H1300 0.930 . S
C1310 C1308 1.419 . S
C1310 C1311 1.362 . S
C1311 H1301 0.930 . S
C1311 C1304 1.409 . S
C1311 C1310 1.362 . S
H1312 C1318 0.930 . S
H1313 C1321 0.930 . S
H1314 C1322 0.930 . S
H1315 C1323 0.930 1_556 S
H1316 C1326 0.930 . S
H1317 C1327 0.930 . S
C1318 H1312 0.930 . S
C1318 C1319 1.355 . S
C1318 C1320 1.415 . S
C1319 C1318 1.355 . S
C1319 C1321 1.419 1_554 S
C1320 C1318 1.415 . S
C1320 C1325 1.425 . S
C1320 C1327 1.409 . S
C1321 H1313 0.930 . S
C1321 C1319 1.419 1_556 S
C1321 C1322 1.362 . S
C1322 H1314 0.930 . S
C1322 C1321 1.362 . S
C1322 C1325 1.409 1_556 S
C1323 H1315 0.930 1_554 S
C1323 C1324 1.355 . S
C1323 C1325 1.415 . S
C1324 C1323 1.355 . S
C1324 C1326 1.419 . S
C1325 C1320 1.425 . S
C1325 C1322 1.409 1_554 S
C1325 C1323 1.415 . S
C1326 H1316 0.930 . S
C1326 C1324 1.419 . S
C1326 C1327 1.362 . S
C1327 H1317 0.930 . S
C1327 C1320 1.409 . S
C1327 C1326 1.362 . S
H1328 C1334 0.930 . S
H1329 C1337 0.930 . S
H1330 C1338 0.930 . S
H1331 C1339 0.930 . S
H1332 C1342 0.930 . S
H1333 C1343 0.930 . S
C1334 H1328 0.930 . S
C1334 C1335 1.355 1_556 S
C1334 C1336 1.415 . S
C1335 C1334 1.355 1_554 S
C1335 C1337 1.419 . S
C1336 C1334 1.415 . S
C1336 C1341 1.425 1_556 S
C1336 C1343 1.409 . S
C1337 H1329 0.930 . S
C1337 C1335 1.419 . S
C1337 C1338 1.362 . S
C1338 H1330 0.930 . S
C1338 C1337 1.362 . S
C1338 C1341 1.409 . S
C1339 H1331 0.930 . S
C1339 C1340 1.355 1_554 S
C1339 C1341 1.415 . S
C1340 C1339 1.355 1_556 S
C1340 C1342 1.419 . S
C1341 C1336 1.425 1_554 S
C1341 C1338 1.409 . S
C1341 C1339 1.415 . S
C1342 H1332 0.930 . S
C1342 C1340 1.419 . S
C1342 C1343 1.362 . S
C1343 H1333 0.930 . S
C1343 C1336 1.409 . S
C1343 C1342 1.362 . S
H1344 C1350 0.930 . S
H1345 C1353 0.930 . S
H1346 C1354 0.930 . S
H1347 C1355 0.930 . S
H1348 C1358 0.930 . S
H1349 C1359 0.930 . S
C1350 H1344 0.930 . S
C1350 C1351 1.355 . S
C1350 C1352 1.415 . S
C1351 C1350 1.355 . S
C1351 C1353 1.419 . S
C1352 C1350 1.415 . S
C1352 C1357 1.425 . S
C1352 C1359 1.409 . S
C1353 H1345 0.930 . S
C1353 C1351 1.419 . S
C1353 C1354 1.362 . S
C1354 H1346 0.930 . S
C1354 C1353 1.362 . S
C1354 C1357 1.409 . S
C1355 H1347 0.930 . S
C1355 C1356 1.355 . S
C1355 C1357 1.415 . S
C1356 C1355 1.355 . S
C1356 C1358 1.419 . S
C1357 C1352 1.425 . S
C1357 C1354 1.409 . S
C1357 C1355 1.415 . S
C1358 H1348 0.930 . S
C1358 C1356 1.419 . S
C1358 C1359 1.362 . S
C1359 H1349 0.930 . S
C1359 C1352 1.409 . S
C1359 C1358 1.362 . S
H1360 C1366 0.930 . S
H1361 C1369 0.930 . S
H1362 C1370 0.930 . S
H1363 C1371 0.930 . S
H1364 C1374 0.930 . S
H1365 C1375 0.930 . S
C1366 H1360 0.930 . S
C1366 C1367 1.355 . S
C1366 C1368 1.415 . S
C1367 C1366 1.355 . S
C1367 C1369 1.419 . S
C1368 C1366 1.415 . S
C1368 C1373 1.425 . S
C1368 C1375 1.409 . S
C1369 H1361 0.930 . S
C1369 C1367 1.419 . S
C1369 C1370 1.362 . S
C1370 H1362 0.930 . S
C1370 C1369 1.362 . S
C1370 C1373 1.409 . S
C1371 H1363 0.930 . S
C1371 C1372 1.355 . S
C1371 C1373 1.415 . S
C1372 C1371 1.355 . S
C1372 C1374 1.419 . S
C1373 C1368 1.425 . S
C1373 C1370 1.409 . S
C1373 C1371 1.415 . S
C1374 H1364 0.930 . S
C1374 C1372 1.419 . S
C1374 C1375 1.362 . S
C1375 H1365 0.930 . S
C1375 C1368 1.409 . S
C1375 C1374 1.362 . S
H1376 C1382 0.930 . S
H1377 C1385 0.930 . S
H1378 C1386 0.930 . S
H1379 C1387 0.930 . S
H1380 C1390 0.930 . S
H1381 C1391 0.930 . S
C1382 H1376 0.930 . S
C1382 C1383 1.355 . S
C1382 C1384 1.415 . S
C1383 C1382 1.355 . S
C1383 C1385 1.419 . S
C1384 C1382 1.415 . S
C1384 C1389 1.425 . S
C1384 C1391 1.409 . S
C1385 H1377 0.930 . S
C1385 C1383 1.419 . S
C1385 C1386 1.362 . S
C1386 H1378 0.930 . S
C1386 C1385 1.362 . S
C1386 C1389 1.409 . S
C1387 H1379 0.930 . S
C1387 C1388 1.355 . S
C1387 C1389 1.415 . S
C1388 C1387 1.355 . S
C1388 C1390 1.419 . S
C1389 C1384 1.425 . S
C1389 C1386 1.409 . S
C1389 C1387 1.415 . S
C1390 H1380 0.930 . S
C1390 C1388 1.419 . S
C1390 C1391 1.362 . S
C1391 H1381 0.930 . S
C1391 C1384 1.409 . S
C1391 C1390 1.362 . S
H1392 C1398 0.930 . S
H1393 C1401 0.930 . S
H1394 C1402 0.930 . S
H1395 C1403 0.930 . S
H1396 C1406 0.930 . S
H1397 C1407 0.930 . S
C1398 H1392 0.930 . S
C1398 C1399 1.355 . S
C1398 C1400 1.415 . S
C1399 C1398 1.355 . S
C1399 C1401 1.419 . S
C1400 C1398 1.415 . S
C1400 C1405 1.425 . S
C1400 C1407 1.409 . S
C1401 H1393 0.930 . S
C1401 C1399 1.419 . S
C1401 C1402 1.362 . S
C1402 H1394 0.930 . S
C1402 C1401 1.362 . S
C1402 C1405 1.409 . S
C1403 H1395 0.930 . S
C1403 C1404 1.355 . S
C1403 C1405 1.415 . S
C1404 C1403 1.355 . S
C1404 C1406 1.419 . S
C1405 C1400 1.425 . S
C1405 C1402 1.409 . S
C1405 C1403 1.415 . S
C1406 H1396 0.930 . S
C1406 C1404 1.419 . S
C1406 C1407 1.362 . S
C1407 H1397 0.930 . S
C1407 C1400 1.409 . S
C1407 C1406 1.362 . S
H1408 C1414 0.930 . S
H1409 C1417 0.930 . S
H1410 C1418 0.930 . S
H1411 C1419 0.930 . S
H1412 C1422 0.930 . S
H1413 C1423 0.930 . S
C1414 H1408 0.930 . S
C1414 C1415 1.355 . S
C1414 C1416 1.415 . S
C1415 C1414 1.355 . S
C1415 C1417 1.419 . S
C1416 C1414 1.415 . S
C1416 C1421 1.425 . S
C1416 C1423 1.409 . S
C1417 H1409 0.930 . S
C1417 C1415 1.419 . S
C1417 C1418 1.362 . S
C1418 H1410 0.930 . S
C1418 C1417 1.362 . S
C1418 C1421 1.409 . S
C1419 H1411 0.930 . S
C1419 C1420 1.355 . S
C1419 C1421 1.415 . S
C1420 C1419 1.355 . S
C1420 C1422 1.419 . S
C1421 C1416 1.425 . S
C1421 C1418 1.409 . S
C1421 C1419 1.415 . S
C1422 H1412 0.930 . S
C1422 C1420 1.419 . S
C1422 C1423 1.362 . S
C1423 H1413 0.930 . S
C1423 C1416 1.409 . S
C1423 C1422 1.362 . S
H1424 C1430 0.930 . S
H1425 C1433 0.930 . S
H1426 C1434 0.930 . S
H1427 C1435 0.930 . S
H1428 C1438 0.930 . S
H1429 C1439 0.930 . S
C1430 H1424 0.930 . S
C1430 C1431 1.355 . S
C1430 C1432 1.415 . S
C1431 C1430 1.355 . S
C1431 C1433 1.419 . S
C1432 C1430 1.415 . S
C1432 C1437 1.425 . S
C1432 C1439 1.409 . S
C1433 H1425 0.930 . S
C1433 C1431 1.419 . S
C1433 C1434 1.362 . S
C1434 H1426 0.930 . S
C1434 C1433 1.362 . S
C1434 C1437 1.409 . S
C1435 H1427 0.930 . S
C1435 C1436 1.355 . S
C1435 C1437 1.415 . S
C1436 C1435 1.355 . S
C1436 C1438 1.419 . S
C1437 C1432 1.425 . S
C1437 C1434 1.409 . S
C1437 C1435 1.415 . S
C1438 H1428 0.930 . S
C1438 C1436 1.419 . S
C1438 C1439 1.362 . S
C1439 H1429 0.930 . S
C1439 C1432 1.409 . S
C1439 C1438 1.362 . S
H1440 C1446 0.930 . S
H1441 C1449 0.930 . S
H1442 C1450 0.930 . S
H1443 C1451 0.930 . S
H1444 C1454 0.930 . S
H1445 C1455 0.930 . S
C1446 H1440 0.930 . S
C1446 C1447 1.355 . S
C1446 C1448 1.415 . S
C1447 C1446 1.355 . S
C1447 C1449 1.419 . S
C1448 C1446 1.415 . S
C1448 C1453 1.425 . S
C1448 C1455 1.409 . S
C1449 H1441 0.930 . S
C1449 C1447 1.419 . S
C1449 C1450 1.362 . S
C1450 H1442 0.930 . S
C1450 C1449 1.362 . S
C1450 C1453 1.409 . S
C1451 H1443 0.930 . S
C1451 C1452 1.355 . S
C1451 C1453 1.415 . S
C1452 C1451 1.355 . S
C1452 C1454 1.419 . S
C1453 C1448 1.425 . S
C1453 C1450 1.409 . S
C1453 C1451 1.415 . S
C1454 H1444 0.930 . S
C1454 C1452 1.419 . S
C1454 C1455 1.362 . S
C1455 H1445 0.930 . S
C1455 C1448 1.409 . S
C1455 C1454 1.362 . S
H1456 C1462 0.930 . S
H1457 C1465 0.930 . S
H1458 C1466 0.930 . S
H1459 C1467 0.930 . S
H1460 C1470 0.930 . S
H1461 C1471 0.930 . S
C1462 H1456 0.930 . S
C1462 C1463 1.355 . S
C1462 C1464 1.415 . S
C1463 C1462 1.355 . S
C1463 C1465 1.419 . S
C1464 C1462 1.415 . S
C1464 C1469 1.425 . S
C1464 C1471 1.409 . S
C1465 H1457 0.930 . S
C1465 C1463 1.419 . S
C1465 C1466 1.362 . S
C1466 H1458 0.930 . S
C1466 C1465 1.362 . S
C1466 C1469 1.409 . S
C1467 H1459 0.930 . S
C1467 C1468 1.355 . S
C1467 C1469 1.415 . S
C1468 C1467 1.355 . S
C1468 C1470 1.419 . S
C1469 C1464 1.425 . S
C1469 C1466 1.409 . S
C1469 C1467 1.415 . S
C1470 H1460 0.930 . S
C1470 C1468 1.419 . S
C1470 C1471 1.362 . S
C1471 H1461 0.930 . S
C1471 C1464 1.409 . S
C1471 C1470 1.362 . S
H1472 C1478 0.930 . S
H1473 C1481 0.930 . S
H1474 C1482 0.930 . S
H1475 C1483 0.930 . S
H1476 C1486 0.930 . S
H1477 C1487 0.930 . S
C1478 H1472 0.930 . S
C1478 C1479 1.355 . S
C1478 C1480 1.415 . S
C1479 C1478 1.355 . S
C1479 C1481 1.419 . S
C1480 C1478 1.415 . S
C1480 C1485 1.425 . S
C1480 C1487 1.409 . S
C1481 H1473 0.930 . S
C1481 C1479 1.419 . S
C1481 C1482 1.362 . S
C1482 H1474 0.930 . S
C1482 C1481 1.362 . S
C1482 C1485 1.409 . S
C1483 H1475 0.930 . S
C1483 C1484 1.355 . S
C1483 C1485 1.415 . S
C1484 C1483 1.355 . S
C1484 C1486 1.419 . S
C1485 C1480 1.425 . S
C1485 C1482 1.409 . S
C1485 C1483 1.415 . S
C1486 H1476 0.930 . S
C1486 C1484 1.419 . S
C1486 C1487 1.362 . S
C1487 H1477 0.930 . S
C1487 C1480 1.409 . S
C1487 C1486 1.362 . S
H1488 C1494 0.930 . S
H1489 C1497 0.930 . S
H1490 C1498 0.930 . S
H1491 C1499 0.930 . S
H1492 C1502 0.930 . S
H1493 C1503 0.930 . S
C1494 H1488 0.930 . S
C1494 C1495 1.355 . S
C1494 C1496 1.415 . S
C1495 C1494 1.355 . S
C1495 C1497 1.419 . S
C1496 C1494 1.415 . S
C1496 C1501 1.425 . S
C1496 C1503 1.409 . S
C1497 H1489 0.930 . S
C1497 C1495 1.419 . S
C1497 C1498 1.362 . S
C1498 H1490 0.930 . S
C1498 C1497 1.362 . S
C1498 C1501 1.409 . S
C1499 H1491 0.930 . S
C1499 C1500 1.355 . S
C1499 C1501 1.415 . S
C1500 C1499 1.355 . S
C1500 C1502 1.419 . S
C1501 C1496 1.425 . S
C1501 C1498 1.409 . S
C1501 C1499 1.415 . S
C1502 H1492 0.930 . S
C1502 C1500 1.419 . S
C1502 C1503 1.362 . S
C1503 H1493 0.930 . S
C1503 C1496 1.409 . S
C1503 C1502 1.362 . S
H1504 C1510 0.930 . S
H1505 C1513 0.930 . S
H1506 C1514 0.930 . S
H1507 C1515 0.930 . S
H1508 C1518 0.930 1_554 S
H1509 C1519 0.930 . S
C1510 H1504 0.930 . S
C1510 C1511 1.355 . S
C1510 C1512 1.415 . S
C1511 C1510 1.355 . S
C1511 C1513 1.419 . S
C1512 C1510 1.415 . S
C1512 C1517 1.425 . S
C1512 C1519 1.409 . S
C1513 H1505 0.930 . S
C1513 C1511 1.419 . S
C1513 C1514 1.362 . S
C1514 H1506 0.930 . S
C1514 C1513 1.362 . S
C1514 C1517 1.409 . S
C1515 H1507 0.930 . S
C1515 C1516 1.355 . S
C1515 C1517 1.415 . S
C1516 C1515 1.355 . S
C1516 C1518 1.419 . S
C1517 C1512 1.425 . S
C1517 C1514 1.409 . S
C1517 C1515 1.415 . S
C1518 H1508 0.930 1_556 S
C1518 C1516 1.419 . S
C1518 C1519 1.362 . S
C1519 H1509 0.930 . S
C1519 C1512 1.409 . S
C1519 C1518 1.362 . S
H1520 C1526 0.930 . S
H1521 C1529 0.930 . S
H1522 C1530 0.930 . S
H1523 C1531 0.930 . S
H1524 C1534 0.930 . S
H1525 C1535 0.930 . S
C1526 H1520 0.930 . S
C1526 C1527 1.355 . S
C1526 C1528 1.415 . S
C1527 C1526 1.355 . S
C1527 C1529 1.419 . S
C1528 C1526 1.415 . S
C1528 C1533 1.425 . S
C1528 C1535 1.409 . S
C1529 H1521 0.930 . S
C1529 C1527 1.419 . S
C1529 C1530 1.362 . S
C1530 H1522 0.930 . S
C1530 C1529 1.362 . S
C1530 C1533 1.409 . S
C1531 H1523 0.930 . S
C1531 C1532 1.355 . S
C1531 C1533 1.415 . S
C1532 C1531 1.355 . S
C1532 C1534 1.419 . S
C1533 C1528 1.425 . S
C1533 C1530 1.409 . S
C1533 C1531 1.415 . S
C1534 H1524 0.930 . S
C1534 C1532 1.419 . S
C1534 C1535 1.362 . S
C1535 H1525 0.930 . S
C1535 C1528 1.409 . S
C1535 C1534 1.362 . S
H1536 C1542 0.921 1_655 S
H1537 C1545 0.930 . S
H1538 C1546 0.930 . S
H1539 C1547 0.930 . S
H1540 C1550 0.930 . S
H1541 C1551 0.930 1_655 S
C1542 H1536 0.921 1_455 S
C1542 C1543 1.355 . S
C1542 C1544 1.415 . S
C1543 C1542 1.355 . S
C1543 C1545 1.419 . S
C1544 C1542 1.415 . S
C1544 C1549 1.425 . S
C1544 C1551 1.409 . S
C1545 H1537 0.930 . S
C1545 C1543 1.419 . S
C1545 C1546 1.362 . S
C1546 H1538 0.930 . S
C1546 C1545 1.362 . S
C1546 C1549 1.409 . S
C1547 H1539 0.930 . S
C1547 C1548 1.355 . S
C1547 C1549 1.415 . S
C1548 C1547 1.355 . S
C1548 C1550 1.419 . S
C1549 C1544 1.425 . S
C1549 C1546 1.409 . S
C1549 C1547 1.415 . S
C1550 H1540 0.930 . S
C1550 C1548 1.419 . S
C1550 C1551 1.362 . S
C1551 H1541 0.930 1_455 S
C1551 C1544 1.409 . S
C1551 C1550 1.362 . S
H1552 C1558 0.930 . S
H1553 C1561 0.930 . S
H1554 C1562 0.930 . S
H1555 C1563 0.930 . S
H1556 C1566 0.930 . S
H1557 C1567 0.930 . S
C1558 H1552 0.930 . S
C1558 C1559 1.355 . S
C1558 C1560 1.415 . S
C1559 C1558 1.355 . S
C1559 C1561 1.419 . S
C1560 C1558 1.415 . S
C1560 C1565 1.425 . S
C1560 C1567 1.409 . S
C1561 H1553 0.930 . S
C1561 C1559 1.419 . S
C1561 C1562 1.362 . S
C1562 H1554 0.930 . S
C1562 C1561 1.362 . S
C1562 C1565 1.409 . S
C1563 H1555 0.930 . S
C1563 C1564 1.355 . S
C1563 C1565 1.415 . S
C1564 C1563 1.355 . S
C1564 C1566 1.419 . S
C1565 C1560 1.425 . S
C1565 C1562 1.409 . S
C1565 C1563 1.415 . S
C1566 H1556 0.930 . S
C1566 C1564 1.419 . S
C1566 C1567 1.362 . S
C1567 H1557 0.930 . S
C1567 C1560 1.409 . S
C1567 C1566 1.362 . S
H1568 C1574 0.930 . S
H1569 C1577 0.930 . S
H1570 C1578 0.930 . S
H1571 C1579 0.930 . S
H1572 C1582 0.930 . S
H1573 C1583 0.930 . S
C1574 H1568 0.930 . S
C1574 C1575 1.355 . S
C1574 C1576 1.415 . S
C1575 C1574 1.355 . S
C1575 C1577 1.419 . S
C1576 C1574 1.415 . S
C1576 C1581 1.425 . S
C1576 C1583 1.409 . S
C1577 H1569 0.930 . S
C1577 C1575 1.419 . S
C1577 C1578 1.362 . S
C1578 H1570 0.930 . S
C1578 C1577 1.362 . S
C1578 C1581 1.409 . S
C1579 H1571 0.930 . S
C1579 C1580 1.355 . S
C1579 C1581 1.415 . S
C1580 C1579 1.355 . S
C1580 C1582 1.419 . S
C1581 C1576 1.425 . S
C1581 C1578 1.409 . S
C1581 C1579 1.415 . S
C1582 H1572 0.930 . S
C1582 C1580 1.419 . S
C1582 C1583 1.362 . S
C1583 H1573 0.930 . S
C1583 C1576 1.409 . S
C1583 C1582 1.362 . S
H1584 C1590 0.930 . S
H1585 C1593 0.930 . S
H1586 C1594 0.930 . S
H1587 C1595 0.930 . S
H1588 C1598 0.930 . S
H1589 C1599 0.930 . S
C1590 H1584 0.930 . S
C1590 C1591 1.355 . S
C1590 C1592 1.415 . S
C1591 C1590 1.355 . S
C1591 C1593 1.419 . S
C1592 C1590 1.415 . S
C1592 C1597 1.425 . S
C1592 C1599 1.409 . S
C1593 H1585 0.930 . S
C1593 C1591 1.419 . S
C1593 C1594 1.362 . S
C1594 H1586 0.930 . S
C1594 C1593 1.362 . S
C1594 C1597 1.409 . S
C1595 H1587 0.930 . S
C1595 C1596 1.355 . S
C1595 C1597 1.415 . S
C1596 C1595 1.355 . S
C1596 C1598 1.419 . S
C1597 C1592 1.425 . S
C1597 C1594 1.409 . S
C1597 C1595 1.415 . S
C1598 H1588 0.930 . S
C1598 C1596 1.419 . S
C1598 C1599 1.362 . S
C1599 H1589 0.930 . S
C1599 C1592 1.409 . S
C1599 C1598 1.362 . S
H1600 C1606 0.930 . S
H1601 C1609 0.930 . S
H1602 C1610 0.930 . S
H1603 C1611 0.930 1_455 S
H1604 C1614 0.930 . S
H1605 C1615 0.930 . S
C1606 H1600 0.930 . S
C1606 C1607 1.355 . S
C1606 C1608 1.415 . S
C1607 C1606 1.355 . S
C1607 C1609 1.419 . S
C1608 C1606 1.415 . S
C1608 C1613 1.425 . S
C1608 C1615 1.409 . S
C1609 H1601 0.930 . S
C1609 C1607 1.419 . S
C1609 C1610 1.362 . S
C1610 H1602 0.930 . S
C1610 C1609 1.362 . S
C1610 C1613 1.409 . S
C1611 H1603 0.930 1_655 S
C1611 C1612 1.355 . S
C1611 C1613 1.415 . S
C1612 C1611 1.355 . S
C1612 C1614 1.419 . S
C1613 C1608 1.425 . S
C1613 C1610 1.409 . S
C1613 C1611 1.415 . S
C1614 H1604 0.930 . S
C1614 C1612 1.419 . S
C1614 C1615 1.362 . S
C1615 H1605 0.930 . S
C1615 C1608 1.409 . S
C1615 C1614 1.362 . S
H1616 C1622 0.930 . S
H1617 C1625 0.930 . S
H1618 C1626 0.930 . S
H1619 C1627 0.930 . S
H1620 C1630 0.930 . S
H1621 C1631 0.930 . S
C1622 H1616 0.930 . S
C1622 C1623 1.355 . S
C1622 C1624 1.415 . S
C1623 C1622 1.355 . S
C1623 C1625 1.419 . S
C1624 C1622 1.415 . S
C1624 C1629 1.425 . S
C1624 C1631 1.409 . S
C1625 H1617 0.930 . S
C1625 C1623 1.419 . S
C1625 C1626 1.362 . S
C1626 H1618 0.930 . S
C1626 C1625 1.362 . S
C1626 C1629 1.409 . S
C1627 H1619 0.930 . S
C1627 C1628 1.355 . S
C1627 C1629 1.415 . S
C1628 C1627 1.355 . S
C1628 C1630 1.419 . S
C1629 C1624 1.425 . S
C1629 C1626 1.409 . S
C1629 C1627 1.415 . S
C1630 H1620 0.930 . S
C1630 C1628 1.419 . S
C1630 C1631 1.362 . S
C1631 H1621 0.930 . S
C1631 C1624 1.409 . S
C1631 C1630 1.362 . S
H1632 C1638 0.930 . S
H1633 C1641 0.930 . S
H1634 C1642 0.930 . S
H1635 C1643 0.930 . S
H1636 C1646 0.930 . S
H1637 C1647 0.930 . S
C1638 H1632 0.930 . S
C1638 C1639 1.355 . S
C1638 C1640 1.415 . S
C1639 C1638 1.355 . S
C1639 C1641 1.419 . S
C1640 C1638 1.415 . S
C1640 C1645 1.425 . S
C1640 C1647 1.409 . S
C1641 H1633 0.930 . S
C1641 C1639 1.419 . S
C1641 C1642 1.362 . S
C1642 H1634 0.930 . S
C1642 C1641 1.362 . S
C1642 C1645 1.409 . S
C1643 H1635 0.930 . S
C1643 C1644 1.355 . S
C1643 C1645 1.415 . S
C1644 C1643 1.355 . S
C1644 C1646 1.419 . S
C1645 C1640 1.425 . S
C1645 C1642 1.409 . S
C1645 C1643 1.415 . S
C1646 H1636 0.930 . S
C1646 C1644 1.419 . S
C1646 C1647 1.362 . S
C1647 H1637 0.930 . S
C1647 C1640 1.409 . S
C1647 C1646 1.362 . S
H1648 C1654 0.930 . S
H1649 C1657 0.930 . S
H1650 C1658 0.930 . S
H1651 C1659 0.930 . S
H1652 C1662 0.930 . S
H1653 C1663 0.930 . S
C1654 H1648 0.930 . S
C1654 C1655 1.355 . S
C1654 C1656 1.415 . S
C1655 C1654 1.355 . S
C1655 C1657 1.419 . S
C1656 C1654 1.415 . S
C1656 C1661 1.425 . S
C1656 C1663 1.409 . S
C1657 H1649 0.930 . S
C1657 C1655 1.419 . S
C1657 C1658 1.362 . S
C1658 H1650 0.930 . S
C1658 C1657 1.362 . S
C1658 C1661 1.409 . S
C1659 H1651 0.930 . S
C1659 C1660 1.355 . S
C1659 C1661 1.415 . S
C1660 C1659 1.355 . S
C1660 C1662 1.419 . S
C1661 C1656 1.425 . S
C1661 C1658 1.409 . S
C1661 C1659 1.415 . S
C1662 H1652 0.930 . S
C1662 C1660 1.419 . S
C1662 C1663 1.362 . S
C1663 H1653 0.930 . S
C1663 C1656 1.409 . S
C1663 C1662 1.362 . S
H1664 C1670 0.930 . S
H1665 C1673 0.930 . S
H1666 C1674 0.930 . S
H1667 C1675 0.930 . S
H1668 C1678 0.930 . S
H1669 C1679 0.930 . S
C1670 H1664 0.930 . S
C1670 C1671 1.355 . S
C1670 C1672 1.415 . S
C1671 C1670 1.355 . S
C1671 C1673 1.419 . S
C1672 C1670 1.415 . S
C1672 C1677 1.425 . S
C1672 C1679 1.409 . S
C1673 H1665 0.930 . S
C1673 C1671 1.419 . S
C1673 C1674 1.362 . S
C1674 H1666 0.930 . S
C1674 C1673 1.362 . S
C1674 C1677 1.409 . S
C1675 H1667 0.930 . S
C1675 C1676 1.355 . S
C1675 C1677 1.415 . S
C1676 C1675 1.355 . S
C1676 C1678 1.419 . S
C1677 C1672 1.425 . S
C1677 C1674 1.409 . S
C1677 C1675 1.415 . S
C1678 H1668 0.930 . S
C1678 C1676 1.419 . S
C1678 C1679 1.362 . S
C1679 H1669 0.930 . S
C1679 C1672 1.409 . S
C1679 C1678 1.362 . S
H1680 C1686 0.930 . S
H1681 C1689 0.930 . S
H1682 C1690 0.930 . S
H1683 C1691 0.930 . S
H1684 C1694 0.930 . S
H1685 C1695 0.930 . S
C1686 H1680 0.930 . S
C1686 C1687 1.355 . S
C1686 C1688 1.415 . S
C1687 C1686 1.355 . S
C1687 C1689 1.419 . S
C1688 C1686 1.415 . S
C1688 C1693 1.425 . S
C1688 C1695 1.409 . S
C1689 H1681 0.930 . S
C1689 C1687 1.419 . S
C1689 C1690 1.362 . S
C1690 H1682 0.930 . S
C1690 C1689 1.362 . S
C1690 C1693 1.409 . S
C1691 H1683 0.930 . S
C1691 C1692 1.355 . S
C1691 C1693 1.415 . S
C1692 C1691 1.355 . S
C1692 C1694 1.419 . S
C1693 C1688 1.425 . S
C1693 C1690 1.409 . S
C1693 C1691 1.415 . S
C1694 H1684 0.930 . S
C1694 C1692 1.419 . S
C1694 C1695 1.362 . S
C1695 H1685 0.930 . S
C1695 C1688 1.409 . S
C1695 C1694 1.362 . S
H1696 C1702 0.930 . S
H1697 C1705 0.930 . S
H1698 C1706 0.930 . S
H1699 C1707 0.930 . S
H1700 C1710 0.930 . S
H1701 C1711 0.930 . S
C1702 H1696 0.930 . S
C1702 C1703 1.355 . S
C1702 C1704 1.415 . S
C1703 C1702 1.355 . S
C1703 C1705 1.419 . S
C1704 C1702 1.415 . S
C1704 C1709 1.425 . S
C1704 C1711 1.409 . S
C1705 H1697 0.930 . S
C1705 C1703 1.419 . S
C1705 C1706 1.362 . S
C1706 H1698 0.930 . S
C1706 C1705 1.362 . S
C1706 C1709 1.409 . S
C1707 H1699 0.930 . S
C1707 C1708 1.355 . S
C1707 C1709 1.415 . S
C1708 C1707 1.355 . S
C1708 C1710 1.419 . S
C1709 C1704 1.425 . S
C1709 C1706 1.409 . S
C1709 C1707 1.415 . S
C1710 H1700 0.930 . S
C1710 C1708 1.419 . S
C1710 C1711 1.362 . S
C1711 H1701 0.930 . S
C1711 C1704 1.409 . S
C1711 C1710 1.362 . S
H1712 C1718 0.930 . S
H1713 C1721 0.930 . S
H1714 C1722 0.930 . S
H1715 C1723 0.930 . S
H1716 C1726 0.930 . S
H1717 C1727 0.930 . S
C1718 H1712 0.930 . S
C1718 C1719 1.355 . S
C1718 C1720 1.415 . S
C1719 C1718 1.355 . S
C1719 C1721 1.419 . S
C1720 C1718 1.415 . S
C1720 C1725 1.425 . S
C1720 C1727 1.409 . S
C1721 H1713 0.930 . S
C1721 C1719 1.419 . S
C1721 C1722 1.362 . S
C1722 H1714 0.930 . S
C1722 C1721 1.362 . S
C1722 C1725 1.409 . S
C1723 H1715 0.930 . S
C1723 C1724 1.355 . S
C1723 C1725 1.415 . S
C1724 C1723 1.355 . S
C1724 C1726 1.419 . S
C1725 C1720 1.425 . S
C1725 C1722 1.409 . S
C1725 C1723 1.415 . S
C1726 H1716 0.930 . S
C1726 C1724 1.419 . S
C1726 C1727 1.362 . S
C1727 H1717 0.930 . S
C1727 C1720 1.409 . S
C1727 C1726 1.362 . S
H1728 C1734 0.930 . S
H1729 C1737 0.930 . S
H1730 C1738 0.930 . S
H1731 C1739 0.930 . S
H1732 C1742 0.930 . S
H1733 C1743 0.930 . S
C1734 H1728 0.930 . S
C1734 C1735 1.355 . S
C1734 C1736 1.415 . S
C1735 C1734 1.355 . S
C1735 C1737 1.419 . S
C1736 C1734 1.415 . S
C1736 C1741 1.425 . S
C1736 C1743 1.409 . S
C1737 H1729 0.930 . S
C1737 C1735 1.419 . S
C1737 C1738 1.362 . S
C1738 H1730 0.930 . S
C1738 C1737 1.362 . S
C1738 C1741 1.409 . S
C1739 H1731 0.930 . S
C1739 C1740 1.355 . S
C1739 C1741 1.415 . S
C1740 C1739 1.355 . S
C1740 C1742 1.419 . S
C1741 C1736 1.425 . S
C1741 C1738 1.409 . S
C1741 C1739 1.415 . S
C1742 H1732 0.930 . S
C1742 C1740 1.419 . S
C1742 C1743 1.362 . S
C1743 H1733 0.930 . S
C1743 C1736 1.409 . S
C1743 C1742 1.362 . S
H1744 C1750 0.930 . S
H1745 C1753 0.930 . S
H1746 C1754 0.930 . S
H1747 C1755 0.930 . S
H1748 C1758 0.930 . S
H1749 C1759 0.930 . S
C1750 H1744 0.930 . S
C1750 C1751 1.355 . S
C1750 C1752 1.415 . S
C1751 C1750 1.355 . S
C1751 C1753 1.419 1_554 S
C1752 C1750 1.415 . S
C1752 C1757 1.431 . S
C1752 C1759 1.409 . S
C1753 H1745 0.930 . S
C1753 C1751 1.419 1_556 S
C1753 C1754 1.362 . S
C1754 H1746 0.930 . S
C1754 C1753 1.362 . S
C1754 C1757 1.404 1_556 S
C1755 H1747 0.930 . S
C1755 C1756 1.355 1_556 S
C1755 C1757 1.414 1_556 S
C1756 C1755 1.355 1_554 S
C1756 C1758 1.419 . S
C1757 C1752 1.431 . S
C1757 C1754 1.404 1_554 S
C1757 C1755 1.414 1_554 S
C1758 H1748 0.930 . S
C1758 C1756 1.419 . S
C1758 C1759 1.362 . S
C1759 H1749 0.930 . S
C1759 C1752 1.409 . S
C1759 C1758 1.362 . S
H1760 C1766 0.930 . S
H1761 C1769 0.930 . S
H1762 C1770 0.930 . S
H1763 C1771 0.930 . S
H1764 C1774 0.930 . S
H1765 C1775 0.930 . S
C1766 H1760 0.930 . S
C1766 C1767 1.355 . S
C1766 C1768 1.415 . S
C1767 C1766 1.355 . S
C1767 C1769 1.419 . S
C1768 C1766 1.415 . S
C1768 C1773 1.425 . S
C1768 C1775 1.409 . S
C1769 H1761 0.930 . S
C1769 C1767 1.419 . S
C1769 C1770 1.362 . S
C1770 H1762 0.930 . S
C1770 C1769 1.362 . S
C1770 C1773 1.409 . S
C1771 H1763 0.930 . S
C1771 C1772 1.355 . S
C1771 C1773 1.415 . S
C1772 C1771 1.355 . S
C1772 C1774 1.419 . S
C1773 C1768 1.425 . S
C1773 C1770 1.409 . S
C1773 C1771 1.415 . S
C1774 H1764 0.930 . S
C1774 C1772 1.419 . S
C1774 C1775 1.362 . S
C1775 H1765 0.930 . S
C1775 C1768 1.409 . S
C1775 C1774 1.362 . S
H1776 C1782 0.930 . S
H1777 C1785 0.930 . S
H1778 C1786 0.930 . S
H1779 C1787 0.930 . S
H1780 C1790 0.930 . S
H1781 C1791 0.930 . S
C1782 H1776 0.930 . S
C1782 C1783 1.355 . S
C1782 C1784 1.415 . S
C1783 C1782 1.355 . S
C1783 C1785 1.419 1_554 S
C1784 C1782 1.415 . S
C1784 C1789 1.425 1_554 S
C1784 C1791 1.409 . S
C1785 H1777 0.930 . S
C1785 C1783 1.419 1_556 S
C1785 C1786 1.362 . S
C1786 H1778 0.930 . S
C1786 C1785 1.362 . S
C1786 C1789 1.409 . S
C1787 H1779 0.930 . S
C1787 C1788 1.355 . S
C1787 C1789 1.415 . S
C1788 C1787 1.355 . S
C1788 C1790 1.419 1_556 S
C1789 C1784 1.425 1_556 S
C1789 C1786 1.409 . S
C1789 C1787 1.415 . S
C1790 H1780 0.930 . S
C1790 C1788 1.419 1_554 S
C1790 C1791 1.362 . S
C1791 H1781 0.930 . S
C1791 C1784 1.409 . S
C1791 C1790 1.362 . S
H1792 C1798 0.930 . S
H1793 C1801 0.930 . S
H1794 C1802 0.930 . S
H1795 C1803 0.930 . S
H1796 C1806 0.930 . S
H1797 C1807 0.930 . S
C1798 H1792 0.930 . S
C1798 C1799 1.355 . S
C1798 C1800 1.415 . S
C1799 C1798 1.355 . S
C1799 C1801 1.419 . S
C1800 C1798 1.415 . S
C1800 C1805 1.425 . S
C1800 C1807 1.409 . S
C1801 H1793 0.930 . S
C1801 C1799 1.419 . S
C1801 C1802 1.362 . S
C1802 H1794 0.930 . S
C1802 C1801 1.362 . S
C1802 C1805 1.409 . S
C1803 H1795 0.930 . S
C1803 C1804 1.355 . S
C1803 C1805 1.415 . S
C1804 C1803 1.355 . S
C1804 C1806 1.419 . S
C1805 C1800 1.425 . S
C1805 C1802 1.409 . S
C1805 C1803 1.415 . S
C1806 H1796 0.930 . S
C1806 C1804 1.419 . S
C1806 C1807 1.362 . S
C1807 H1797 0.930 . S
C1807 C1800 1.409 . S
C1807 C1806 1.362 . S
H1808 C1814 0.930 . S
H1809 C1817 0.930 . S
H1810 C1818 0.930 . S
H1811 C1819 0.930 . S
H1812 C1822 0.930 . S
H1813 C1823 0.930 . S
C1814 H1808 0.930 . S
C1814 C1815 1.355 . S
C1814 C1816 1.415 . S
C1815 C1814 1.355 . S
C1815 C1817 1.419 . S
C1816 C1814 1.415 . S
C1816 C1821 1.425 . S
C1816 C1823 1.409 . S
C1817 H1809 0.930 . S
C1817 C1815 1.419 . S
C1817 C1818 1.362 . S
C1818 H1810 0.930 . S
C1818 C1817 1.362 . S
C1818 C1821 1.409 . S
C1819 H1811 0.930 . S
C1819 C1820 1.355 . S
C1819 C1821 1.415 . S
C1820 C1819 1.355 . S
C1820 C1822 1.419 . S
C1821 C1816 1.425 . S
C1821 C1818 1.409 . S
C1821 C1819 1.415 . S
C1822 H1812 0.930 . S
C1822 C1820 1.419 . S
C1822 C1823 1.362 . S
C1823 H1813 0.930 . S
C1823 C1816 1.409 . S
C1823 C1822 1.362 . S
H1824 C1830 0.930 . S
H1825 C1833 0.930 . S
H1826 C1834 0.930 . S
H1827 C1835 0.930 . S
H1828 C1838 0.930 . S
H1829 C1839 0.930 . S
C1830 H1824 0.930 . S
C1830 C1831 1.355 . S
C1830 C1832 1.415 . S
C1831 C1830 1.355 . S
C1831 C1833 1.419 . S
C1832 C1830 1.415 . S
C1832 C1837 1.425 . S
C1832 C1839 1.409 . S
C1833 H1825 0.930 . S
C1833 C1831 1.419 . S
C1833 C1834 1.362 . S
C1834 H1826 0.930 . S
C1834 C1833 1.362 . S
C1834 C1837 1.409 . S
C1835 H1827 0.930 . S
C1835 C1836 1.355 . S
C1835 C1837 1.415 . S
C1836 C1835 1.355 . S
C1836 C1838 1.419 . S
C1837 C1832 1.425 . S
C1837 C1834 1.409 . S
C1837 C1835 1.415 . S
C1838 H1828 0.930 . S
C1838 C1836 1.419 . S
C1838 C1839 1.362 . S
C1839 H1829 0.930 . S
C1839 C1832 1.409 . S
C1839 C1838 1.362 . S
H1840 C1846 0.930 . S
H1841 C1849 0.930 . S
H1842 C1850 0.930 . S
H1843 C1851 0.930 . S
H1844 C1854 0.930 . S
H1845 C1855 0.930 . S
C1846 H1840 0.930 . S
C1846 C1847 1.355 . S
C1846 C1848 1.415 . S
C1847 C1846 1.355 . S
C1847 C1849 1.419 . S
C1848 C1846 1.415 . S
C1848 C1853 1.425 . S
C1848 C1855 1.409 . S
C1849 H1841 0.930 . S
C1849 C1847 1.419 . S
C1849 C1850 1.362 . S
C1850 H1842 0.930 . S
C1850 C1849 1.362 . S
C1850 C1853 1.409 . S
C1851 H1843 0.930 . S
C1851 C1852 1.355 . S
C1851 C1853 1.415 . S
C1852 C1851 1.355 . S
C1852 C1854 1.419 . S
C1853 C1848 1.425 . S
C1853 C1850 1.409 . S
C1853 C1851 1.415 . S
C1854 H1844 0.930 . S
C1854 C1852 1.419 . S
C1854 C1855 1.362 . S
C1855 H1845 0.930 . S
C1855 C1848 1.409 . S
C1855 C1854 1.362 . S
H1856 C1862 0.930 . S
H1857 C1865 0.930 . S
H1858 C1866 0.930 . S
H1859 C1867 0.930 . S
H1860 C1870 0.930 . S
H1861 C1871 0.930 . S
C1862 H1856 0.930 . S
C1862 C1863 1.355 . S
C1862 C1864 1.415 . S
C1863 C1862 1.355 . S
C1863 C1865 1.419 1_455 S
C1864 C1862 1.415 . S
C1864 C1869 1.425 1_455 S
C1864 C1871 1.409 . S
C1865 H1857 0.930 . S
C1865 C1863 1.419 1_655 S
C1865 C1866 1.362 . S
C1866 H1858 0.930 . S
C1866 C1865 1.362 . S
C1866 C1869 1.409 . S
C1867 H1859 0.930 . S
C1867 C1868 1.355 . S
C1867 C1869 1.415 . S
C1868 C1867 1.355 . S
C1868 C1870 1.419 1_655 S
C1869 C1864 1.425 1_655 S
C1869 C1866 1.409 . S
C1869 C1867 1.415 . S
C1870 H1860 0.930 . S
C1870 C1868 1.419 1_455 S
C1870 C1871 1.362 . S
C1871 H1861 0.930 . S
C1871 C1864 1.409 . S
C1871 C1870 1.362 . S
H1872 C1878 0.930 . S
H1873 C1881 0.930 . S
H1874 C1882 0.930 . S
H1875 C1883 0.930 . S
H1876 C1886 0.930 . S
H1877 C1887 0.930 . S
C1878 H1872 0.930 . S
C1878 C1879 1.355 . S
C1878 C1880 1.415 . S
C1879 C1878 1.355 . S
C1879 C1881 1.419 . S
C1880 C1878 1.415 . S
C1880 C1885 1.425 . S
C1880 C1887 1.409 . S
C1881 H1873 0.930 . S
C1881 C1879 1.419 . S
C1881 C1882 1.362 . S
C1882 H1874 0.930 . S
C1882 C1881 1.362 . S
C1882 C1885 1.409 . S
C1883 H1875 0.930 . S
C1883 C1884 1.355 . S
C1883 C1885 1.415 . S
C1884 C1883 1.355 . S
C1884 C1886 1.419 . S
C1885 C1880 1.425 . S
C1885 C1882 1.409 . S
C1885 C1883 1.415 . S
C1886 H1876 0.930 . S
C1886 C1884 1.419 . S
C1886 C1887 1.362 . S
C1887 H1877 0.930 . S
C1887 C1880 1.409 . S
C1887 C1886 1.362 . S
H1888 C1894 0.930 . S
H1889 C1897 0.930 . S
H1890 C1898 0.930 . S
H1891 C1899 0.930 . S
H1892 C1902 0.930 . S
H1893 C1903 0.930 . S
C1894 H1888 0.930 . S
C1894 C1895 1.355 . S
C1894 C1896 1.415 . S
C1895 C1894 1.355 . S
C1895 C1897 1.419 . S
C1896 C1894 1.415 . S
C1896 C1901 1.425 . S
C1896 C1903 1.409 . S
C1897 H1889 0.930 . S
C1897 C1895 1.419 . S
C1897 C1898 1.362 . S
C1898 H1890 0.930 . S
C1898 C1897 1.362 . S
C1898 C1901 1.409 . S
C1899 H1891 0.930 . S
C1899 C1900 1.355 . S
C1899 C1901 1.415 . S
C1900 C1899 1.355 . S
C1900 C1902 1.419 . S
C1901 C1896 1.425 . S
C1901 C1898 1.409 . S
C1901 C1899 1.415 . S
C1902 H1892 0.930 . S
C1902 C1900 1.419 . S
C1902 C1903 1.362 . S
C1903 H1893 0.930 . S
C1903 C1896 1.409 . S
C1903 C1902 1.362 . S
H1904 C1910 0.930 . S
H1905 C1913 0.930 . S
H1906 C1914 0.930 . S
H1907 C1915 0.930 . S
H1908 C1918 0.930 . S
H1909 C1919 0.930 . S
C1910 H1904 0.930 . S
C1910 C1911 1.355 . S
C1910 C1912 1.415 . S
C1911 C1910 1.355 . S
C1911 C1913 1.419 . S
C1912 C1910 1.415 . S
C1912 C1917 1.425 . S
C1912 C1919 1.409 . S
C1913 H1905 0.930 . S
C1913 C1911 1.419 . S
C1913 C1914 1.362 . S
C1914 H1906 0.930 . S
C1914 C1913 1.362 . S
C1914 C1917 1.409 . S
C1915 H1907 0.930 . S
C1915 C1916 1.355 . S
C1915 C1917 1.415 . S
C1916 C1915 1.355 . S
C1916 C1918 1.419 . S
C1917 C1912 1.425 . S
C1917 C1914 1.409 . S
C1917 C1915 1.415 . S
C1918 H1908 0.930 . S
C1918 C1916 1.419 . S
C1918 C1919 1.362 . S
C1919 H1909 0.930 . S
C1919 C1912 1.409 . S
C1919 C1918 1.362 . S
H1920 C1926 0.930 . S
H1921 C1929 0.930 . S
H1922 C1930 0.930 . S
H1923 C1931 0.930 . S
H1924 C1934 0.930 . S
H1925 C1935 0.930 . S
C1926 H1920 0.930 . S
C1926 C1927 1.355 1_655 S
C1926 C1928 1.415 . S
C1927 C1926 1.355 1_455 S
C1927 C1929 1.419 . S
C1928 C1926 1.415 . S
C1928 C1933 1.425 1_655 S
C1928 C1935 1.409 . S
C1929 H1921 0.930 . S
C1929 C1927 1.419 . S
C1929 C1930 1.362 . S
C1930 H1922 0.930 . S
C1930 C1929 1.362 . S
C1930 C1933 1.409 . S
C1931 H1923 0.930 . S
C1931 C1932 1.355 1_455 S
C1931 C1933 1.415 . S
C1932 C1931 1.355 1_655 S
C1932 C1934 1.419 . S
C1933 C1928 1.425 1_455 S
C1933 C1930 1.409 . S
C1933 C1931 1.415 . S
C1934 H1924 0.930 . S
C1934 C1932 1.419 . S
C1934 C1935 1.362 . S
C1935 H1925 0.930 . S
C1935 C1928 1.409 . S
C1935 C1934 1.362 . S
H1936 C1942 0.930 . S
H1937 C1945 0.930 . S
H1938 C1946 0.930 . S
H1939 C1947 0.930 . S
H1940 C1950 0.930 . S
H1941 C1951 0.930 . S
C1942 H1936 0.930 . S
C1942 C1943 1.355 . S
C1942 C1944 1.415 . S
C1943 C1942 1.355 . S
C1943 C1945 1.419 . S
C1944 C1942 1.415 . S
C1944 C1949 1.425 . S
C1944 C1951 1.409 . S
C1945 H1937 0.930 . S
C1945 C1943 1.419 . S
C1945 C1946 1.362 . S
C1946 H1938 0.930 . S
C1946 C1945 1.362 . S
C1946 C1949 1.409 . S
C1947 H1939 0.930 . S
C1947 C1948 1.355 . S
C1947 C1949 1.415 . S
C1948 C1947 1.355 . S
C1948 C1950 1.419 . S
C1949 C1944 1.425 . S
C1949 C1946 1.409 . S
C1949 C1947 1.415 . S
C1950 H1940 0.930 . S
C1950 C1948 1.419 . S
C1950 C1951 1.362 . S
C1951 H1941 0.930 . S
C1951 C1944 1.409 . S
C1951 C1950 1.362 . S
H1952 C1958 0.930 . S
H1953 C1961 0.930 . S
H1954 C1962 0.930 . S
H1955 C1963 0.930 . S
H1956 C1966 0.930 . S
H1957 C1967 0.930 . S
C1958 H1952 0.930 . S
C1958 C1959 1.355 . S
C1958 C1960 1.415 . S
C1959 C1958 1.355 . S
C1959 C1961 1.419 . S
C1960 C1958 1.415 . S
C1960 C1965 1.425 . S
C1960 C1967 1.409 . S
C1961 H1953 0.930 . S
C1961 C1959 1.419 . S
C1961 C1962 1.362 . S
C1962 H1954 0.930 . S
C1962 C1961 1.362 . S
C1962 C1965 1.409 . S
C1963 H1955 0.930 . S
C1963 C1964 1.355 . S
C1963 C1965 1.415 . S
C1964 C1963 1.355 . S
C1964 C1966 1.419 . S
C1965 C1960 1.425 . S
C1965 C1962 1.409 . S
C1965 C1963 1.415 . S
C1966 H1956 0.930 . S
C1966 C1964 1.419 . S
C1966 C1967 1.362 . S
C1967 H1957 0.930 . S
C1967 C1960 1.409 . S
C1967 C1966 1.362 . S
H1968 C1974 0.930 . S
H1969 C1977 0.930 . S
H1970 C1978 0.930 . S
H1971 C1979 0.930 . S
H1972 C1982 0.930 . S
H1973 C1983 0.930 . S
C1974 H1968 0.930 . S
C1974 C1975 1.355 . S
C1974 C1976 1.415 . S
C1975 C1974 1.355 . S
C1975 C1977 1.419 . S
C1976 C1974 1.415 . S
C1976 C1981 1.425 . S
C1976 C1983 1.409 . S
C1977 H1969 0.930 . S
C1977 C1975 1.419 . S
C1977 C1978 1.362 . S
C1978 H1970 0.930 . S
C1978 C1977 1.362 . S
C1978 C1981 1.409 . S
C1979 H1971 0.930 . S
C1979 C1980 1.355 . S
C1979 C1981 1.415 . S
C1980 C1979 1.355 . S
C1980 C1982 1.419 . S
C1981 C1976 1.425 . S
C1981 C1978 1.409 . S
C1981 C1979 1.415 . S
C1982 H1972 0.930 . S
C1982 C1980 1.419 . S
C1982 C1983 1.362 . S
C1983 H1973 0.930 . S
C1983 C1976 1.409 . S
C1983 C1982 1.362 . S
H1984 C1990 0.930 . S
H1985 C1993 0.930 . S
H1986 C1994 0.930 . S
H1987 C1995 0.930 . S
H1988 C1998 0.930 . S
H1989 C1999 0.930 . S
C1990 H1984 0.930 . S
C1990 C1991 1.355 . S
C1990 C1992 1.415 . S
C1991 C1990 1.355 . S
C1991 C1993 1.419 . S
C1992 C1990 1.415 . S
C1992 C1997 1.425 . S
C1992 C1999 1.409 . S
C1993 H1985 0.930 . S
C1993 C1991 1.419 . S
C1993 C1994 1.362 . S
C1994 H1986 0.930 . S
C1994 C1993 1.362 . S
C1994 C1997 1.409 . S
C1995 H1987 0.930 . S
C1995 C1996 1.355 . S
C1995 C1997 1.415 . S
C1996 C1995 1.355 . S
C1996 C1998 1.419 . S
C1997 C1992 1.425 . S
C1997 C1994 1.409 . S
C1997 C1995 1.415 . S
C1998 H1988 0.930 . S
C1998 C1996 1.419 . S
C1998 C1999 1.362 . S
C1999 H1989 0.930 . S
C1999 C1992 1.409 . S
C1999 C1998 1.362 . S
H2000 C2006 0.930 . S
H2001 C2009 0.930 . S
H2002 C2010 0.930 . S
H2003 C2011 0.930 . S
H2004 C2014 0.930 . S
H2005 C2015 0.930 . S
C2006 H2000 0.930 . S
C2006 C2007 1.355 . S
C2006 C2008 1.415 . S
C2007 C2006 1.355 . S
C2007 C2009 1.419 . S
C2008 C2006 1.415 . S
C2008 C2013 1.425 . S
C2008 C2015 1.409 . S
C2009 H2001 0.930 . S
C2009 C2007 1.419 . S
C2009 C2010 1.362 . S
C2010 H2002 0.930 . S
C2010 C2009 1.362 . S
C2010 C2013 1.409 . S
C2011 H2003 0.930 . S
C2011 C2012 1.355 . S
C2011 C2013 1.415 . S
C2012 C2011 1.355 . S
C2012 C2014 1.419 . S
C2013 C2008 1.425 . S
C2013 C2010 1.409 . S
C2013 C2011 1.415 . S
C2014 H2004 0.930 . S
C2014 C2012 1.419 . S
C2014 C2015 1.362 . S
C2015 H2005 0.930 . S
C2015 C2008 1.409 . S
C2015 C2014 1.362 . S
H2016 C2022 0.930 . S
H2017 C2025 0.930 . S
H2018 C2026 0.930 . S
H2019 C2027 0.930 . S
H2020 C2030 0.930 . S
H2021 C2031 0.930 . S
C2022 H2016 0.930 . S
C2022 C2023 1.355 . S
C2022 C2024 1.415 . S
C2023 C2022 1.355 . S
C2023 C2025 1.419 . S
C2024 C2022 1.415 . S
C2024 C2029 1.425 . S
C2024 C2031 1.409 . S
C2025 H2017 0.930 . S
C2025 C2023 1.419 . S
C2025 C2026 1.362 . S
C2026 H2018 0.930 . S
C2026 C2025 1.362 . S
C2026 C2029 1.409 . S
C2027 H2019 0.930 . S
C2027 C2028 1.355 . S
C2027 C2029 1.415 . S
C2028 C2027 1.355 . S
C2028 C2030 1.419 . S
C2029 C2024 1.425 . S
C2029 C2026 1.409 . S
C2029 C2027 1.415 . S
C2030 H2020 0.930 . S
C2030 C2028 1.419 . S
C2030 C2031 1.362 . S
C2031 H2021 0.930 . S
C2031 C2024 1.409 . S
C2031 C2030 1.362 . S
H2032 C2038 0.930 . S
H2033 C2041 0.930 . S
H2034 C2042 0.930 . S
H2035 C2043 0.930 . S
H2036 C2046 0.930 . S
H2037 C2047 0.930 . S
C2038 H2032 0.930 . S
C2038 C2039 1.355 . S
C2038 C2040 1.415 . S
C2039 C2038 1.355 . S
C2039 C2041 1.419 . S
C2040 C2038 1.415 . S
C2040 C2045 1.425 . S
C2040 C2047 1.409 . S
C2041 H2033 0.930 . S
C2041 C2039 1.419 . S
C2041 C2042 1.362 . S
C2042 H2034 0.930 . S
C2042 C2041 1.362 . S
C2042 C2045 1.409 . S
C2043 H2035 0.930 . S
C2043 C2044 1.355 . S
C2043 C2045 1.415 . S
C2044 C2043 1.355 . S
C2044 C2046 1.419 . S
C2045 C2040 1.425 . S
C2045 C2042 1.409 . S
C2045 C2043 1.415 . S
C2046 H2036 0.930 . S
C2046 C2044 1.419 . S
C2046 C2047 1.362 . S
C2047 H2037 0.930 . S
C2047 C2040 1.409 . S
C2047 C2046 1.362 . S
H2048 C2054 0.930 . S
H2049 C2057 0.930 . S
H2050 C2058 0.930 . S
H2051 C2059 0.930 . S
H2052 C2062 0.930 . S
H2053 C2063 0.930 . S
C2054 H2048 0.930 . S
C2054 C2055 1.355 . S
C2054 C2056 1.415 . S
C2055 C2054 1.355 . S
C2055 C2057 1.419 . S
C2056 C2054 1.415 . S
C2056 C2061 1.425 . S
C2056 C2063 1.409 . S
C2057 H2049 0.930 . S
C2057 C2055 1.419 . S
C2057 C2058 1.362 . S
C2058 H2050 0.930 . S
C2058 C2057 1.362 . S
C2058 C2061 1.409 . S
C2059 H2051 0.930 . S
C2059 C2060 1.355 . S
C2059 C2061 1.415 . S
C2060 C2059 1.355 . S
C2060 C2062 1.419 . S
C2061 C2056 1.425 . S
C2061 C2058 1.409 . S
C2061 C2059 1.415 . S
C2062 H2052 0.930 . S
C2062 C2060 1.419 . S
C2062 C2063 1.362 . S
C2063 H2053 0.930 . S
C2063 C2056 1.409 . S
C2063 C2062 1.362 . S
H2064 C2070 0.930 . S
H2065 C2073 0.930 . S
H2066 C2074 0.930 . S
H2067 C2075 0.930 . S
H2068 C2078 0.930 . S
H2069 C2079 0.930 . S
C2070 H2064 0.930 . S
C2070 C2071 1.355 . S
C2070 C2072 1.415 . S
C2071 C2070 1.355 . S
C2071 C2073 1.419 . S
C2072 C2070 1.415 . S
C2072 C2077 1.425 . S
C2072 C2079 1.409 . S
C2073 H2065 0.930 . S
C2073 C2071 1.419 . S
C2073 C2074 1.362 . S
C2074 H2066 0.930 . S
C2074 C2073 1.362 . S
C2074 C2077 1.409 . S
C2075 H2067 0.930 . S
C2075 C2076 1.355 . S
C2075 C2077 1.415 . S
C2076 C2075 1.355 . S
C2076 C2078 1.419 . S
C2077 C2072 1.425 . S
C2077 C2074 1.409 . S
C2077 C2075 1.415 . S
C2078 H2068 0.930 . S
C2078 C2076 1.419 . S
C2078 C2079 1.362 . S
C2079 H2069 0.930 . S
C2079 C2072 1.409 . S
C2079 C2078 1.362 . S
H2080 C2086 0.930 . S
H2081 C2089 0.930 . S
H2082 C2090 0.930 . S
H2083 C2091 0.930 . S
H2084 C2094 0.930 . S
H2085 C2095 0.930 . S
C2086 H2080 0.930 . S
C2086 C2087 1.355 . S
C2086 C2088 1.415 . S
C2087 C2086 1.355 . S
C2087 C2089 1.419 . S
C2088 C2086 1.415 . S
C2088 C2093 1.425 . S
C2088 C2095 1.409 . S
C2089 H2081 0.930 . S
C2089 C2087 1.419 . S
C2089 C2090 1.362 . S
C2090 H2082 0.930 . S
C2090 C2089 1.362 . S
C2090 C2093 1.409 . S
C2091 H2083 0.930 . S
C2091 C2092 1.355 . S
C2091 C2093 1.415 . S
C2092 C2091 1.355 . S
C2092 C2094 1.419 . S
C2093 C2088 1.425 . S
C2093 C2090 1.409 . S
C2093 C2091 1.415 . S
C2094 H2084 0.930 . S
C2094 C2092 1.419 . S
C2094 C2095 1.362 . S
C2095 H2085 0.930 . S
C2095 C2088 1.409 . S
C2095 C2094 1.362 . S
H2096 C2102 0.930 . S
H2097 C2105 0.930 . S
H2098 C2106 0.930 . S
H2099 C2107 0.930 . S
H2100 C2110 0.930 1_565 S
H2101 C2111 0.930 . S
C2102 H2096 0.930 . S
C2102 C2103 1.355 . S
C2102 C2104 1.415 . S
C2103 C2102 1.355 . S
C2103 C2105 1.419 . S
C2104 C2102 1.415 . S
C2104 C2109 1.425 . S
C2104 C2111 1.409 . S
C2105 H2097 0.930 . S
C2105 C2103 1.419 . S
C2105 C2106 1.362 . S
C2106 H2098 0.930 . S
C2106 C2105 1.362 . S
C2106 C2109 1.409 . S
C2107 H2099 0.930 . S
C2107 C2108 1.355 . S
C2107 C2109 1.415 . S
C2108 C2107 1.355 . S
C2108 C2110 1.419 . S
C2109 C2104 1.425 . S
C2109 C2106 1.409 . S
C2109 C2107 1.415 . S
C2110 H2100 0.930 1_545 S
C2110 C2108 1.419 . S
C2110 C2111 1.362 . S
C2111 H2101 0.930 . S
C2111 C2104 1.409 . S
C2111 C2110 1.362 . S
H2112 C2118 0.930 . S
H2113 C2121 0.930 . S
H2114 C2122 0.930 . S
H2115 C2123 0.930 . S
H2116 C2126 0.930 . S
H2117 C2127 0.930 . S
C2118 H2112 0.930 . S
C2118 C2119 1.355 . S
C2118 C2120 1.415 . S
C2119 C2118 1.355 . S
C2119 C2121 1.419 . S
C2120 C2118 1.415 . S
C2120 C2125 1.425 . S
C2120 C2127 1.409 . S
C2121 H2113 0.930 . S
C2121 C2119 1.419 . S
C2121 C2122 1.362 . S
C2122 H2114 0.930 . S
C2122 C2121 1.362 . S
C2122 C2125 1.409 . S
C2123 H2115 0.930 . S
C2123 C2124 1.355 . S
C2123 C2125 1.415 . S
C2124 C2123 1.355 . S
C2124 C2126 1.419 . S
C2125 C2120 1.425 . S
C2125 C2122 1.409 . S
C2125 C2123 1.415 . S
C2126 H2116 0.930 . S
C2126 C2124 1.419 . S
C2126 C2127 1.362 . S
C2127 H2117 0.930 . S
C2127 C2120 1.409 . S
C2127 C2126 1.362 . S
H2128 C2134 0.930 . S
H2129 C2137 0.930 . S
H2130 C2138 0.930 . S
H2131 C2139 0.930 . S
H2132 C2142 0.930 . S
H2133 C2143 0.930 . S
C2134 H2128 0.930 . S
C2134 C2135 1.355 . S
C2134 C2136 1.415 . S
C2135 C2134 1.355 . S
C2135 C2137 1.419 1_554 S
C2136 C2134 1.415 . S
C2136 C2141 1.425 1_554 S
C2136 C2143 1.409 . S
C2137 H2129 0.930 . S
C2137 C2135 1.419 1_556 S
C2137 C2138 1.362 . S
C2138 H2130 0.930 . S
C2138 C2137 1.362 . S
C2138 C2141 1.409 . S
C2139 H2131 0.930 . S
C2139 C2140 1.355 . S
C2139 C2141 1.415 . S
C2140 C2139 1.355 . S
C2140 C2142 1.419 1_556 S
C2141 C2136 1.425 1_556 S
C2141 C2138 1.409 . S
C2141 C2139 1.415 . S
C2142 H2132 0.930 . S
C2142 C2140 1.419 1_554 S
C2142 C2143 1.362 . S
C2143 H2133 0.930 . S
C2143 C2136 1.409 . S
C2143 C2142 1.362 . S
H2144 C2150 0.930 . S
H2145 C2153 0.930 . S
H2146 C2154 0.930 . S
H2147 C2155 0.930 . S
H2148 C2158 0.930 . S
H2149 C2159 0.930 . S
C2150 H2144 0.930 . S
C2150 C2151 1.355 . S
C2150 C2152 1.415 . S
C2151 C2150 1.355 . S
C2151 C2153 1.419 . S
C2152 C2150 1.415 . S
C2152 C2157 1.425 . S
C2152 C2159 1.409 . S
C2153 H2145 0.930 . S
C2153 C2151 1.419 . S
C2153 C2154 1.362 . S
C2154 H2146 0.930 . S
C2154 C2153 1.362 . S
C2154 C2157 1.409 . S
C2155 H2147 0.930 . S
C2155 C2156 1.355 . S
C2155 C2157 1.415 . S
C2156 C2155 1.355 . S
C2156 C2158 1.419 . S
C2157 C2152 1.425 . S
C2157 C2154 1.409 . S
C2157 C2155 1.415 . S
C2158 H2148 0.930 . S
C2158 C2156 1.419 . S
C2158 C2159 1.362 . S
C2159 H2149 0.930 . S
C2159 C2152 1.409 . S
C2159 C2158 1.362 . S
H2160 C2166 0.930 1_556 S
H2161 C2169 0.930 . S
H2162 C2170 0.930 . S
H2163 C2171 0.930 . S
H2164 C2174 0.929 1_556 S
H2165 C2175 0.930 . S
C2166 H2160 0.930 1_554 S
C2166 C2167 1.355 . S
C2166 C2168 1.415 . S
C2167 C2166 1.355 . S
C2167 C2169 1.419 . S
C2168 C2166 1.415 . S
C2168 C2173 1.425 . S
C2168 C2175 1.409 1_554 S
C2169 H2161 0.930 . S
C2169 C2167 1.419 . S
C2169 C2170 1.362 . S
C2170 H2162 0.930 . S
C2170 C2169 1.362 . S
C2170 C2173 1.409 . S
C2171 H2163 0.930 . S
C2171 C2172 1.355 . S
C2171 C2173 1.415 . S
C2172 C2171 1.355 . S
C2172 C2174 1.421 . S
C2173 C2168 1.425 . S
C2173 C2170 1.409 . S
C2173 C2171 1.415 . S
C2174 H2164 0.929 1_554 S
C2174 C2172 1.421 . S
C2174 C2175 1.362 1_554 S
C2175 H2165 0.930 . S
C2175 C2168 1.409 1_556 S
C2175 C2174 1.362 1_556 S
H2176 C2182 0.930 . S
H2177 C2185 0.930 . S
H2178 C2186 0.930 . S
H2179 C2187 0.930 . S
H2180 C2190 0.930 . S
H2181 C2191 0.930 . S
C2182 H2176 0.930 . S
C2182 C2183 1.355 . S
C2182 C2184 1.415 . S
C2183 C2182 1.355 . S
C2183 C2185 1.419 . S
C2184 C2182 1.415 . S
C2184 C2189 1.425 . S
C2184 C2191 1.409 . S
C2185 H2177 0.930 . S
C2185 C2183 1.419 . S
C2185 C2186 1.362 . S
C2186 H2178 0.930 . S
C2186 C2185 1.362 . S
C2186 C2189 1.409 . S
C2187 H2179 0.930 . S
C2187 C2188 1.355 . S
C2187 C2189 1.415 . S
C2188 C2187 1.355 . S
C2188 C2190 1.419 . S
C2189 C2184 1.425 . S
C2189 C2186 1.409 . S
C2189 C2187 1.415 . S
C2190 H2180 0.930 . S
C2190 C2188 1.419 . S
C2190 C2191 1.362 . S
C2191 H2181 0.930 . S
C2191 C2184 1.409 . S
C2191 C2190 1.362 . S
H2192 C2198 0.930 . S
H2193 C2201 0.930 . S
H2194 C2202 0.930 . S
H2195 C2203 0.930 . S
H2196 C2206 0.930 . S
H2197 C2207 0.930 . S
C2198 H2192 0.930 . S
C2198 C2199 1.355 . S
C2198 C2200 1.415 . S
C2199 C2198 1.355 . S
C2199 C2201 1.419 . S
C2200 C2198 1.415 . S
C2200 C2205 1.425 . S
C2200 C2207 1.409 . S
C2201 H2193 0.930 . S
C2201 C2199 1.419 . S
C2201 C2202 1.362 . S
C2202 H2194 0.930 . S
C2202 C2201 1.362 . S
C2202 C2205 1.409 . S
C2203 H2195 0.930 . S
C2203 C2204 1.355 . S
C2203 C2205 1.415 . S
C2204 C2203 1.355 . S
C2204 C2206 1.419 . S
C2205 C2200 1.425 . S
C2205 C2202 1.409 . S
C2205 C2203 1.415 . S
C2206 H2196 0.930 . S
C2206 C2204 1.419 . S
C2206 C2207 1.362 . S
C2207 H2197 0.930 . S
C2207 C2200 1.409 . S
C2207 C2206 1.362 . S
C684 C352 1.247 1_455 S
C679 C4 1.256 . S
C695 C19 0.998 . S
C700 C372 1.189 . S
C711 C39 1.245 . S
C716 C394 1.143 . S
C732 C413 1.225 . S
C727 C54 1.291 . S
C743 C18 1.313 . S
C748 C434 1.267 . S
C764 C457 1.233 . S
C759 C40 1.356 . S
C780 C480 1.089 . S
C775 C53 1.149 . S
C791 C5 0.987 . S
C796 C498 1.206 . S
C807 C61 0.969 1_545 S
C812 C354 1.204 . S
C823 C74 1.316 . S
C828 C374 1.316 . S
C844 C396 1.131 . S
C839 C89 0.998 . S
C860 C415 1.187 . S
C855 C109 1.329 . S
C871 C68 1.312 . S
C876 C436 1.162 . S
C892 C459 1.211 . S
C887 C81 1.189 . S
C908 C476 1.248 . S
C903 C96 1.266 . S
C924 C500 1.348 . S
C919 C102 1.378 . S
C940 C350 1.254 1_556 S
C935 C103 1.039 . S
C956 C522 1.107 . S
C951 C117 0.908 . S
C967 C130 1.250 . S
C972 C539 1.273 . S
C988 C562 1.270 . S
C983 C152 1.365 . S
C999 C60 1.311 . S
C1004 C496 1.278 . S
C1020 C392 1.291 . S
C1015 C82 1.303 . S
C1031 C137 1.105 . S
C1036 C585 1.123 . S
C1052 C601 1.149 . S
C1047 C165 1.243 . S
C1063 C172 1.355 . S
C1068 C349 1.280 . S
C1084 C602 1.281 . S
C1079 C194 1.272 . S
C1095 C207 1.337 . S
C1100 C391 1.205 . S
C1111 C215 1.046 . S
C1116 C582 1.185 . S
C1132 C435 1.284 . S
C1127 C186 1.254 . S
C1148 C538 1.187 . S
C1143 C201 1.168 . S
C1164 C479 1.240 . S
C1159 C221 1.234 . S
C1180 C623 1.332 . S
C1175 C180 1.377 . S
C1196 C353 1.324 . S
C1191 C236 1.298 1_545 S
C1207 C242 1.339 . S
C1212 C606 1.350 . S
C1228 C395 1.232 . S
C1223 C264 1.263 . S
C1239 C277 1.331 . S
C1244 C580 1.335 . S
C1255 C229 1.169 1_565 S
C1260 C433 1.210 . S
C1271 C249 1.288 . S
C1276 C542 1.272 . S
C1292 C477 1.134 . S
C1287 C257 1.038 1_545 S
C1303 C270 1.359 . S
C1308 C627 1.273 . S
C1319 C278 1.247 . S
C1324 C351 1.213 . S
C1335 C292 1.347 . S
C1340 C521 1.299 . S
C1351 C298 1.333 . S
C1356 C456 1.295 . S
C1367 C313 1.148 . S
C1372 C559 1.263 . S
C1388 C625 1.232 . S
C1383 C228 1.368 . S
C1404 C393 1.178 . S
C1399 C243 1.041 . S
C1420 C416 1.209 . S
C1415 C305 1.210 . S
C1436 C373 1.246 . S
C1431 C333 1.274 . S
C1447 C32 1.255 . S
C1452 C646 1.270 . S
C1468 C603 1.143 . S
C1463 C47 0.883 . S
C1484 C667 1.155 . S
C1479 C11 1.233 . S
C1495 C26 1.292 . S
C1500 C581 1.227 . S
C1511 C46 1.282 . S
C1516 C518 1.240 . S
C1532 C541 1.255 . S
C1527 C12 1.356 . S
C1548 C564 1.151 . S
C1543 C25 1.146 . S
C1564 C624 1.220 . S
C1559 C33 1.109 . S
C1580 C648 1.175 . S
C1575 C159 0.910 . S
C1591 C116 1.317 . S
C1596 C605 1.315 . S
C1607 C131 0.920 . S
C1612 C669 1.057 . S
C1628 C583 1.216 . S
C1623 C151 1.343 . S
C1644 C520 1.207 . S
C1639 C166 1.317 . S
C1655 C123 1.179 . S
C1660 C543 1.200 . S
C1676 C560 1.216 . S
C1671 C138 1.257 . S
C1687 C144 1.313 . S
C1692 C626 1.318 . S
C1708 C644 1.223 . S
C1703 C145 0.956 . S
C1724 C438 1.135 . S
C1719 C75 1.054 . S
C1740 C455 1.254 . S
C1735 C88 1.300 . S
C1751 C110 1.359 . S
C1756 C478 1.192 . S
C1772 C622 1.273 . S
C1767 C158 1.322 . S
C1783 C124 1.302 . S
C1788 C665 1.290 . S
C1804 C417 1.061 . S
C1799 C95 1.118 . S
C1820 C370 1.189 . S
C1815 C67 1.252 . S
C1831 C200 1.307 . S
C1836 C643 1.161 . S
C1852 C371 1.275 . S
C1847 C222 1.287 . S
C1868 C664 1.229 . S
C1863 C179 1.289 . S
C1879 C187 1.041 . S
C1884 C414 1.189 . S
C1895 C214 1.299 . S
C1900 C519 1.213 . S
C1911 C173 1.146 . S
C1916 C454 1.189 . S
C1927 C193 1.279 . S
C1932 C563 1.241 . S
C1943 C208 1.347 . S
C1948 C497 1.376 . S
C1964 C647 1.305 . S
C1959 C334 1.310 . S
C1975 C284 1.356 . S
C1980 C375 1.336 . S
C1996 C668 1.282 . S
C1991 C306 1.256 . S
C2007 C319 1.351 . S
C2012 C412 1.259 . S
C2023 C327 1.109 . S
C2028 C517 1.102 . S
C2044 C458 1.306 . S
C2039 C291 1.284 . S
C2055 C299 1.027 . S
C2060 C561 1.140 . S
C2076 C501 1.293 . S
C2071 C312 1.367 . S
C2092 C645 1.189 . S
C2087 C320 1.234 . S
C2108 C437 1.342 . S
C2103 C250 1.332 . S
C2119 C256 1.343 . S
C2124 C540 1.275 . S
C2140 C475 1.319 . S
C2135 C271 1.220 . S
C2156 C499 1.316 . S
C2151 C326 1.380 . S
C2167 C285 1.083 1_554 S
C2172 C666 1.157 . S
C2188 C584 1.247 . S
C2183 C263 1.190 . S
C2204 C604 1.249 . S
C2199 C235 1.264 . S
