# Generated by pormake.
# Topology ocu, (6,8)-cn, num edge types: 1
# Building blocks:
#     Node 0, Type 0, BuildingBlock: HISSIN_clean_sbu_0, # of connection points: 6
#     Node 1, Type 0, BuildingBlock: HISSIN_clean_sbu_0, # of connection points: 6
#     Node 2, Type 0, BuildingBlock: HISSIN_clean_sbu_0, # of connection points: 6
#     Node 3, Type 0, BuildingBlock: HISSIN_clean_sbu_0, # of connection points: 6
#     Node 4, Type 0, BuildingBlock: HISSIN_clean_sbu_0, # of connection points: 6
#     Node 5, Type 0, BuildingBlock: HISSIN_clean_sbu_0, # of connection points: 6
#     Node 6, Type 0, BuildingBlock: HISSIN_clean_sbu_0, # of connection points: 6
#     Node 7, Type 0, BuildingBlock: HISSIN_clean_sbu_0, # of connection points: 6
#     Node 8, Type 1, BuildingBlock: AJUNOK_clean_sbu_0, # of connection points: 8
#     Node 9, Type 1, BuildingBlock: AJUNOK_clean_sbu_0, # of connection points: 8
#     Node 10, Type 1, BuildingBlock: AJUNOK_clean_sbu_0, # of connection points: 8
#     Node 11, Type 1, BuildingBlock: AJUNOK_clean_sbu_0, # of connection points: 8
#     Node 12, Type 1, BuildingBlock: AJUNOK_clean_sbu_0, # of connection points: 8
#     Node 13, Type 1, BuildingBlock: AJUNOK_clean_sbu_0, # of connection points: 8
#     Edge 14, Type (0, 1), BuildingBlock: ZUJKAS_clean_linker_0, # of connection points: 2
#     Edge 15, Type (0, 1), BuildingBlock: ZUJKAS_clean_linker_0, # of connection points: 2
#     Edge 16, Type (0, 1), BuildingBlock: ZUJKAS_clean_linker_0, # of connection points: 2
#     Edge 17, Type (0, 1), BuildingBlock: ZUJKAS_clean_linker_0, # of connection points: 2
#     Edge 18, Type (0, 1), BuildingBlock: ZUJKAS_clean_linker_0, # of connection points: 2
#     Edge 19, Type (0, 1), BuildingBlock: ZUJKAS_clean_linker_0, # of connection points: 2
#     Edge 20, Type (0, 1), BuildingBlock: ZUJKAS_clean_linker_0, # of connection points: 2
#     Edge 21, Type (0, 1), BuildingBlock: ZUJKAS_clean_linker_0, # of connection points: 2
#     Edge 22, Type (0, 1), BuildingBlock: ZUJKAS_clean_linker_0, # of connection points: 2
#     Edge 23, Type (0, 1), BuildingBlock: ZUJKAS_clean_linker_0, # of connection points: 2
#     Edge 24, Type (0, 1), BuildingBlock: ZUJKAS_clean_linker_0, # of connection points: 2
#     Edge 25, Type (0, 1), BuildingBlock: ZUJKAS_clean_linker_0, # of connection points: 2
#     Edge 26, Type (0, 1), BuildingBlock: ZUJKAS_clean_linker_0, # of connection points: 2
#     Edge 27, Type (0, 1), BuildingBlock: ZUJKAS_clean_linker_0, # of connection points: 2
#     Edge 28, Type (0, 1), BuildingBlock: ZUJKAS_clean_linker_0, # of connection points: 2
#     Edge 29, Type (0, 1), BuildingBlock: ZUJKAS_clean_linker_0, # of connection points: 2
#     Edge 30, Type (0, 1), BuildingBlock: ZUJKAS_clean_linker_0, # of connection points: 2
#     Edge 31, Type (0, 1), BuildingBlock: ZUJKAS_clean_linker_0, # of connection points: 2
#     Edge 32, Type (0, 1), BuildingBlock: ZUJKAS_clean_linker_0, # of connection points: 2
#     Edge 33, Type (0, 1), BuildingBlock: ZUJKAS_clean_linker_0, # of connection points: 2
#     Edge 34, Type (0, 1), BuildingBlock: ZUJKAS_clean_linker_0, # of connection points: 2
#     Edge 35, Type (0, 1), BuildingBlock: ZUJKAS_clean_linker_0, # of connection points: 2
#     Edge 36, Type (0, 1), BuildingBlock: ZUJKAS_clean_linker_0, # of connection points: 2
#     Edge 37, Type (0, 1), BuildingBlock: ZUJKAS_clean_linker_0, # of connection points: 2
#     Edge 38, Type (0, 1), BuildingBlock: ZUJKAS_clean_linker_0, # of connection points: 2
#     Edge 39, Type (0, 1), BuildingBlock: ZUJKAS_clean_linker_0, # of connection points: 2
#     Edge 40, Type (0, 1), BuildingBlock: ZUJKAS_clean_linker_0, # of connection points: 2
#     Edge 41, Type (0, 1), BuildingBlock: ZUJKAS_clean_linker_0, # of connection points: 2
#     Edge 42, Type (0, 1), BuildingBlock: ZUJKAS_clean_linker_0, # of connection points: 2
#     Edge 43, Type (0, 1), BuildingBlock: ZUJKAS_clean_linker_0, # of connection points: 2
#     Edge 44, Type (0, 1), BuildingBlock: ZUJKAS_clean_linker_0, # of connection points: 2
#     Edge 45, Type (0, 1), BuildingBlock: ZUJKAS_clean_linker_0, # of connection points: 2
#     Edge 46, Type (0, 1), BuildingBlock: ZUJKAS_clean_linker_0, # of connection points: 2
#     Edge 47, Type (0, 1), BuildingBlock: ZUJKAS_clean_linker_0, # of connection points: 2
#     Edge 48, Type (0, 1), BuildingBlock: ZUJKAS_clean_linker_0, # of connection points: 2
#     Edge 49, Type (0, 1), BuildingBlock: ZUJKAS_clean_linker_0, # of connection points: 2
#     Edge 50, Type (0, 1), BuildingBlock: ZUJKAS_clean_linker_0, # of connection points: 2
#     Edge 51, Type (0, 1), BuildingBlock: ZUJKAS_clean_linker_0, # of connection points: 2
#     Edge 52, Type (0, 1), BuildingBlock: ZUJKAS_clean_linker_0, # of connection points: 2
#     Edge 53, Type (0, 1), BuildingBlock: ZUJKAS_clean_linker_0, # of connection points: 2
#     Edge 54, Type (0, 1), BuildingBlock: ZUJKAS_clean_linker_0, # of connection points: 2
#     Edge 55, Type (0, 1), BuildingBlock: ZUJKAS_clean_linker_0, # of connection points: 2
#     Edge 56, Type (0, 1), BuildingBlock: ZUJKAS_clean_linker_0, # of connection points: 2
#     Edge 57, Type (0, 1), BuildingBlock: ZUJKAS_clean_linker_0, # of connection points: 2
#     Edge 58, Type (0, 1), BuildingBlock: ZUJKAS_clean_linker_0, # of connection points: 2
#     Edge 59, Type (0, 1), BuildingBlock: ZUJKAS_clean_linker_0, # of connection points: 2
#     Edge 60, Type (0, 1), BuildingBlock: ZUJKAS_clean_linker_0, # of connection points: 2
#     Edge 61, Type (0, 1), BuildingBlock: ZUJKAS_clean_linker_0, # of connection points: 2
# Relax obj value: 0.126
# Max RMSD: 0.190
# Mean RMSD: 0.165
data_MOF--net-ocu--node1-HISSIN_clean_sbu_0--node2-AJUNOK_clean_sbu_0--edge1-ZUJKAS_clean_linker_0
_symmetry_space_group_name_H-M    P1
_symmetry_Int_Tables_number       1
_symmetry_cell_setting            triclinic
loop_
_symmetry_equiv_pos_as_xyz
'x, y, z'
_cell_length_a     55.512445
_cell_length_b     56.37256
_cell_length_c     46.226458
_cell_angle_alpha  104.1898
_cell_angle_beta   90.266801
_cell_angle_gamma 110.71799
loop_
_atom_site_label
_atom_site_type_symbol
_atom_site_fract_x
_atom_site_fract_y
_atom_site_fract_z
_atom_type_partial_charge
Eu0 Eu 0.28837 0.25518 0.29087 0.0
Eu1 Eu 0.25238 0.24597 0.22863 0.0
C2 C 0.23465 0.20584 0.26923 0.0
C3 C 0.32977 0.23998 0.34418 0.0
C4 C 0.31645 0.2126 0.33598 0.0
C5 C 0.36685 0.2334 0.36436 0.0
C6 C 0.32817 0.19579 0.34212 0.0
C7 C 0.35505 0.25018 0.3584 0.0
C8 C 0.3536 0.20591 0.35634 0.0
C9 C 0.31808 0.25798 0.33683 0.0
O10 O 0.23423 0.26452 0.26719 0.0
O11 O 0.26842 0.28499 0.30408 0.0
C12 C 0.24523 0.28198 0.29277 0.0
O13 O 0.31267 0.28195 0.26453 0.0
O14 O 0.2148 0.23291 0.20291 0.0
O15 O 0.24962 0.25226 0.18406 0.0
O16 O 0.27978 0.28802 0.24161 0.0
C17 C 0.3044 0.29535 0.25013 0.0
O18 O 0.29308 0.22082 0.25723 0.0
O19 O 0.28357 0.22915 0.21329 0.0
O20 O 0.23604 0.20763 0.24143 0.0
O21 O 0.32687 0.26774 0.31454 0.0
O22 O 0.29298 0.25079 0.33607 0.0
O23 O 0.24946 0.22479 0.29166 0.0
C24 C 0.21255 0.26155 0.17414 0.0
C25 C 0.2119 0.28336 0.19624 0.0
C26 C 0.19062 0.27367 0.13765 0.0
C27 C 0.2006 0.30014 0.18913 0.0
C28 C 0.20186 0.25686 0.14482 0.0
C29 C 0.18979 0.29555 0.15971 0.0
C30 C 0.22438 0.24376 0.18155 0.0
C31 C 0.29458 0.21783 0.22825 0.0
H32 H 0.297 0.20414 0.3247 0.0
H33 H 0.38658 0.24202 0.37478 0.0
H34 H 0.31714 0.17485 0.33591 0.0
H35 H 0.36582 0.2712 0.36458 0.0
H36 H 0.22018 0.28744 0.21901 0.0
H37 H 0.18223 0.26928 0.11487 0.0
H38 H 0.20066 0.31693 0.20663 0.0
H39 H 0.20214 0.24013 0.12744 0.0
Eu40 Eu 0.78618 0.24035 0.23724 0.0
Eu41 Eu 0.74425 0.27024 0.24605 0.0
C42 C 0.78561 0.28075 0.30026 0.0
C43 C 0.83083 0.20753 0.25405 0.0
C44 C 0.82978 0.21683 0.2849 0.0
C45 C 0.85237 0.17946 0.26438 0.0
C46 C 0.84001 0.20752 0.30542 0.0
C47 C 0.84222 0.18887 0.24389 0.0
C48 C 0.8513 0.1886 0.29538 0.0
C49 C 0.8189 0.21627 0.23246 0.0
O50 O 0.78169 0.29901 0.23724 0.0
O51 O 0.7984 0.26973 0.2101 0.0
C52 C 0.79758 0.29337 0.2182 0.0
O53 O 0.755 0.2193 0.19866 0.0
O54 O 0.73432 0.30497 0.26276 0.0
O55 O 0.70518 0.2687 0.23651 0.0
O56 O 0.74418 0.2543 0.19651 0.0
C57 C 0.74464 0.23101 0.18388 0.0
O58 O 0.76003 0.22383 0.26981 0.0
O59 O 0.72417 0.23044 0.25459 0.0
O60 O 0.76165 0.27774 0.29288 0.0
O61 O 0.79394 0.20405 0.22613 0.0
O62 O 0.82588 0.24168 0.23706 0.0
O63 O 0.79977 0.27228 0.28059 0.0
C64 C 0.70555 0.308 0.22782 0.0
C65 C 0.71762 0.30863 0.20125 0.0
C66 C 0.68219 0.33371 0.21506 0.0
C67 C 0.71184 0.32154 0.18156 0.0
C68 C 0.68791 0.32067 0.2347 0.0
C69 C 0.69401 0.33417 0.18821 0.0
C70 C 0.71133 0.2939 0.24801 0.0
C71 C 0.73504 0.21847 0.26844 0.0
H72 H 0.82084 0.23114 0.29308 0.0
H73 H 0.86055 0.16458 0.25589 0.0
H74 H 0.83914 0.21518 0.32912 0.0
H75 H 0.8429 0.18132 0.2201 0.0
H76 H 0.73144 0.29904 0.19571 0.0
H77 H 0.66814 0.34299 0.2206 0.0
H78 H 0.72146 0.3218 0.16123 0.0
H79 H 0.67843 0.32031 0.25511 0.0
Eu80 Eu 0.78176 0.77089 0.22396 0.0
Eu81 Eu 0.76151 0.72116 0.25602 0.0
C82 C 0.73047 0.72018 0.19752 0.0
C83 C 0.77442 0.82297 0.19036 0.0
C84 C 0.74752 0.81224 0.19146 0.0
C85 C 0.76881 0.85842 0.17308 0.0
C86 C 0.73144 0.82456 0.18367 0.0
C87 C 0.78491 0.84612 0.18105 0.0
C88 C 0.74182 0.8479 0.17444 0.0
C89 C 0.79147 0.81047 0.19982 0.0
O90 O 0.78305 0.70927 0.2168 0.0
O91 O 0.81002 0.74949 0.21166 0.0
C92 C 0.80409 0.72384 0.20715 0.0
O93 O 0.80222 0.78473 0.27065 0.0
O94 O 0.74668 0.6794 0.25484 0.0
O95 O 0.75983 0.70875 0.29752 0.0
O96 O 0.80297 0.74496 0.27144 0.0
C97 C 0.81117 0.7703 0.28258 0.0
O98 O 0.74486 0.7717 0.24379 0.0
O99 O 0.74535 0.75189 0.28141 0.0
O100 O 0.72799 0.71406 0.22332 0.0
O101 O 0.79465 0.8132 0.22857 0.0
O102 O 0.78755 0.78647 0.18447 0.0
O103 O 0.75223 0.73645 0.19163 0.0
C104 C 0.76947 0.67015 0.29226 0.0
C105 C 0.77145 0.66872 0.32204 0.0
C106 C 0.79964 0.64712 0.28077 0.0
C107 C 0.78738 0.65677 0.33116 0.0
C108 C 0.78381 0.65923 0.27171 0.0
C109 C 0.80178 0.64575 0.3107 0.0
C110 C 0.75325 0.68392 0.28345 0.0
C111 C 0.73767 0.76756 0.26972 0.0
H112 H 0.73894 0.79431 0.19844 0.0
H113 H 0.77759 0.87647 0.16643 0.0
H114 H 0.71079 0.81562 0.18463 0.0
H115 H 0.8056 0.85484 0.18017 0.0
H116 H 0.76084 0.67717 0.33844 0.0
H117 H 0.81002 0.63863 0.26414 0.0
H118 H 0.78875 0.65666 0.35449 0.0
H119 H 0.78292 0.66013 0.24861 0.0
Eu120 Eu 0.29023 0.74549 0.26104 0.0
Eu121 Eu 0.24474 0.77097 0.26866 0.0
C122 C 0.24506 0.72933 0.20851 0.0
C123 C 0.33218 0.71181 0.22117 0.0
C124 C 0.31436 0.70124 0.19546 0.0
C125 C 0.36402 0.69973 0.1916 0.0
C126 C 0.32115 0.68955 0.16811 0.0
C127 C 0.35712 0.71125 0.21905 0.0
C128 C 0.34601 0.68847 0.16588 0.0
C129 C 0.32491 0.72413 0.24984 0.0
O130 O 0.2291 0.73123 0.27806 0.0
O131 O 0.26688 0.73024 0.29635 0.0
C132 C 0.24162 0.72255 0.29452 0.0
O133 O 0.30455 0.78029 0.30142 0.0
O134 O 0.20397 0.76592 0.27078 0.0
O135 O 0.23298 0.8048 0.2766 0.0
O136 O 0.26553 0.78277 0.31467 0.0
C137 C 0.29031 0.78852 0.32113 0.0
O138 O 0.29712 0.77132 0.22975 0.0
O139 O 0.27901 0.80014 0.25476 0.0
O140 O 0.24124 0.75135 0.21945 0.0
O141 O 0.33035 0.7494 0.25523 0.0
O142 O 0.30169 0.71169 0.2562 0.0
O143 O 0.25784 0.72058 0.22461 0.0
C144 C 0.19949 0.80102 0.30735 0.0
C145 C 0.20627 0.79582 0.3338 0.0
C146 C 0.18055 0.83073 0.33629 0.0
C147 C 0.20062 0.80838 0.36147 0.0
C148 C 0.18621 0.81815 0.30866 0.0
C149 C 0.18826 0.82646 0.36304 0.0
C150 C 0.20902 0.79118 0.27915 0.0
C151 C 0.29446 0.79412 0.23537 0.0
H152 H 0.29508 0.7018 0.19656 0.0
H153 H 0.38347 0.69964 0.19055 0.0
H154 H 0.30668 0.68082 0.14894 0.0
H155 H 0.37122 0.7197 0.23858 0.0
H156 H 0.2168 0.7828 0.33318 0.0
H157 H 0.17063 0.84425 0.3368 0.0
H158 H 0.20694 0.80485 0.38167 0.0
H159 H 0.18099 0.82248 0.28847 0.0
Eu160 Eu 0.29167 0.74098 0.74249 0.0
Eu161 Eu 0.24773 0.76889 0.75133 0.0
C162 C 0.28976 0.77955 0.80547 0.0
C163 C 0.33175 0.70176 0.75509 0.0
C164 C 0.33105 0.70742 0.78635 0.0
C165 C 0.34325 0.66428 0.7563 0.0
C166 C 0.33669 0.69176 0.80249 0.0
C167 C 0.33784 0.6801 0.7402 0.0
C168 C 0.34277 0.66999 0.78761 0.0
C169 C 0.32493 0.71749 0.73769 0.0
O170 O 0.27457 0.7877 0.72037 0.0
O171 O 0.31074 0.78092 0.73459 0.0
C172 C 0.29962 0.79311 0.72146 0.0
O173 O 0.27386 0.73413 0.69598 0.0
O174 O 0.2383 0.80419 0.76387 0.0
O175 O 0.20747 0.76587 0.74955 0.0
O176 O 0.23466 0.73606 0.70893 0.0
C177 C 0.24928 0.72899 0.68896 0.0
O178 O 0.25524 0.7117 0.75249 0.0
O179 O 0.23719 0.73994 0.77923 0.0
O180 O 0.27711 0.78982 0.79141 0.0
O181 O 0.30184 0.70676 0.72327 0.0
O182 O 0.33086 0.74239 0.75097 0.0
O183 O 0.29367 0.75798 0.79227 0.0
C184 C 0.20145 0.80134 0.73634 0.0
C185 C 0.2012 0.79289 0.7051 0.0
C186 C 0.18104 0.8315 0.72998 0.0
C187 C 0.1908 0.80366 0.68637 0.0
C188 C 0.19128 0.82061 0.74866 0.0
C189 C 0.1808 0.82322 0.69866 0.0
C190 C 0.21356 0.79131 0.75633 0.0
C191 C 0.23937 0.71685 0.77181 0.0
H192 H 0.32598 0.72383 0.79827 0.0
H193 H 0.34812 0.64777 0.74431 0.0
H194 H 0.33594 0.69645 0.82656 0.0
H195 H 0.33827 0.67533 0.71607 0.0
H196 H 0.2093 0.77821 0.69526 0.0
H197 H 0.17315 0.84629 0.74004 0.0
H198 H 0.19104 0.79707 0.66234 0.0
H199 H 0.19149 0.82742 0.77275 0.0
Eu200 Eu 0.28274 0.27156 0.72445 0.0
Eu201 Eu 0.26459 0.22288 0.75855 0.0
C202 C 0.23053 0.22057 0.70166 0.0
C203 C 0.27401 0.32236 0.68934 0.0
C204 C 0.24698 0.31021 0.68802 0.0
C205 C 0.26799 0.35851 0.67406 0.0
C206 C 0.23061 0.32207 0.67976 0.0
C207 C 0.28435 0.34659 0.68229 0.0
C208 C 0.24084 0.34646 0.6727 0.0
C209 C 0.29136 0.31027 0.69907 0.0
O210 O 0.28447 0.21014 0.7181 0.0
O211 O 0.31087 0.25006 0.71167 0.0
C212 C 0.30507 0.22447 0.70758 0.0
O213 O 0.30364 0.28661 0.77102 0.0
O214 O 0.25072 0.1814 0.75877 0.0
O215 O 0.26446 0.21173 0.80062 0.0
O216 O 0.30611 0.24759 0.77188 0.0
C217 C 0.31325 0.27282 0.78325 0.0
O218 O 0.24659 0.2728 0.74584 0.0
O219 O 0.24837 0.2536 0.78379 0.0
O220 O 0.22974 0.21476 0.72758 0.0
O221 O 0.295 0.31366 0.7279 0.0
O222 O 0.28755 0.28614 0.68426 0.0
O223 O 0.25135 0.23712 0.69427 0.0
C224 C 0.27448 0.17318 0.79631 0.0
C225 C 0.28852 0.18273 0.82485 0.0
C226 C 0.29179 0.13795 0.78535 0.0
C227 C 0.30405 0.17017 0.83345 0.0
C228 C 0.27624 0.15051 0.77674 0.0
C229 C 0.30596 0.14757 0.81385 0.0
C230 C 0.25802 0.18674 0.78732 0.0
C231 C 0.24009 0.26889 0.77207 0.0
H232 H 0.23852 0.2916 0.69363 0.0
H233 H 0.27666 0.37709 0.66847 0.0
H234 H 0.20991 0.31231 0.67945 0.0
H235 H 0.30512 0.35638 0.68324 0.0
H236 H 0.28761 0.20005 0.84061 0.0
H237 H 0.29239 0.12041 0.76975 0.0
H238 H 0.31485 0.17844 0.85541 0.0
H239 H 0.26555 0.14239 0.7547 0.0
Eu240 Eu 0.78693 0.23812 0.75432 0.0
Eu241 Eu 0.74499 0.26795 0.76722 0.0
C242 C 0.74232 0.22905 0.70336 0.0
C243 C 0.82192 0.2001 0.70779 0.0
C244 C 0.81564 0.20801 0.68313 0.0
C245 C 0.83031 0.16437 0.67377 0.0
C246 C 0.81664 0.19413 0.65393 0.0
C247 C 0.82947 0.17837 0.70297 0.0
C248 C 0.82357 0.17191 0.64897 0.0
C249 C 0.81758 0.21254 0.73806 0.0
O250 O 0.72584 0.22601 0.76914 0.0
O251 O 0.76151 0.22098 0.78709 0.0
C252 C 0.73643 0.21476 0.7843 0.0
O253 O 0.80342 0.26919 0.79771 0.0
O254 O 0.70765 0.26708 0.78255 0.0
O255 O 0.73285 0.30119 0.76969 0.0
O256 O 0.76624 0.27597 0.81207 0.0
C257 C 0.7903 0.27857 0.81806 0.0
O258 O 0.7965 0.26826 0.72818 0.0
O259 O 0.78213 0.29761 0.75924 0.0
O260 O 0.73934 0.251 0.71719 0.0
O261 O 0.82552 0.23819 0.74546 0.0
O262 O 0.79436 0.2017 0.74547 0.0
O263 O 0.75475 0.21815 0.71683 0.0
C264 C 0.71103 0.30831 0.81319 0.0
C265 C 0.73208 0.33109 0.8278 0.0
C266 C 0.68781 0.31414 0.8572 0.0
C267 C 0.73091 0.34537 0.85674 0.0
C268 C 0.68889 0.30003 0.82814 0.0
C269 C 0.70878 0.33706 0.87186 0.0
C270 C 0.71279 0.29172 0.78372 0.0
C271 C 0.79664 0.29212 0.7383 0.0
H272 H 0.80925 0.22447 0.68643 0.0
H273 H 0.83605 0.1475 0.67056 0.0
H274 H 0.81118 0.20024 0.63525 0.0
H275 H 0.83407 0.17183 0.72173 0.0
H276 H 0.7496 0.33784 0.81705 0.0
H277 H 0.6706 0.3069 0.86827 0.0
H278 H 0.74725 0.36315 0.86703 0.0
H279 H 0.67257 0.28231 0.81754 0.0
Eu280 Eu 0.78709 0.75166 0.79125 0.0
Eu281 Eu 0.75113 0.74364 0.72963 0.0
C282 C 0.73412 0.70131 0.7674 0.0
C283 C 0.8308 0.73737 0.84267 0.0
C284 C 0.83013 0.73112 0.87028 0.0
C285 C 0.85676 0.71049 0.82593 0.0
C286 C 0.84256 0.71466 0.8757 0.0
C287 C 0.84415 0.72679 0.82046 0.0
C288 C 0.85614 0.70411 0.85363 0.0
C289 C 0.81677 0.75408 0.837 0.0
O290 O 0.73186 0.75973 0.76877 0.0
O291 O 0.76599 0.78029 0.80568 0.0
C292 C 0.74256 0.77681 0.79468 0.0
O293 O 0.811 0.77799 0.76405 0.0
O294 O 0.71387 0.73191 0.70352 0.0
O295 O 0.74938 0.75142 0.6858 0.0
O296 O 0.77736 0.78587 0.74616 0.0
C297 C 0.80222 0.79257 0.75224 0.0
O298 O 0.79293 0.71851 0.75691 0.0
O299 O 0.78273 0.72746 0.71361 0.0
O300 O 0.735 0.70438 0.74012 0.0
O301 O 0.82501 0.76705 0.81697 0.0
O302 O 0.7916 0.74367 0.83462 0.0
O303 O 0.74874 0.71969 0.79046 0.0
C304 C 0.71258 0.76196 0.67575 0.0
C305 C 0.72812 0.78671 0.6721 0.0
C306 C 0.67428 0.77167 0.66596 0.0
C307 C 0.71686 0.80367 0.66543 0.0
C308 C 0.68553 0.75464 0.67244 0.0
C309 C 0.68977 0.79644 0.66237 0.0
C310 C 0.72415 0.74374 0.6831 0.0
C311 C 0.79413 0.71602 0.72797 0.0
H312 H 0.81972 0.73878 0.88763 0.0
H313 H 0.86722 0.70313 0.80846 0.0
H314 H 0.84112 0.70988 0.89708 0.0
H315 H 0.84481 0.73105 0.7988 0.0
H316 H 0.74904 0.7931 0.67454 0.0
H317 H 0.65337 0.76526 0.66337 0.0
H318 H 0.72942 0.82268 0.66313 0.0
H319 H 0.67303 0.73567 0.67491 0.0
Cd320 Cd 0.97857 0.98174 0.53348 0.0
Cd321 Cd 0.02981 0.01663 0.46007 0.0
C322 C 0.01973 0.97441 0.57467 0.0
N323 N 1.01239 0.96896 0.54495 0.0
C324 C 0.03852 0.94284 0.53268 0.0
C325 C 0.0454 0.94705 0.56328 0.0
C326 C 0.03633 0.96363 0.58441 0.0
C327 C 0.02188 0.95398 0.52398 0.0
H328 H 1.01177 0.98623 0.59092 0.0
H329 H 1.01607 0.94982 0.50053 0.0
C330 C 0.9917 0.95996 0.45714 0.0
C331 C 0.97585 0.02072 0.44388 0.0
C332 C 0.95816 0.03189 0.43819 0.0
C333 C 0.9656 0.0594 0.44596 0.0
C334 C 0.99075 0.07496 0.45966 0.0
C335 C 1.00788 0.06296 0.46453 0.0
N336 N 1.00015 0.03633 0.45669 0.0
H337 H 0.97052 -0.00039 0.43714 0.0
H338 H 0.02764 0.07495 0.47344 0.0
C339 C 0.07986 0.00394 0.4648 0.0
N340 N 0.0636 0.01074 0.4841 0.0
C341 C 0.086 0.00495 0.52465 0.0
C342 C 0.1025 0.99691 0.50489 0.0
C343 C 0.09949 0.99699 0.47471 0.0
C344 C 0.06654 0.01181 0.51371 0.0
H345 H 0.07689 0.00293 0.44133 0.0
H346 H 0.05339 0.01707 0.52876 0.0
C347 C 1.01471 0.03828 0.53511 0.0
C348 C 0.94739 0.95372 0.57142 0.0
N349 N 0.9447 0.9893 0.51308 0.0
C350 C 0.93501 0.00376 0.5343 0.0
C351 C 0.91493 0.01094 0.52643 0.0
C352 C 0.90483 0.0034 0.49633 0.0
C353 C 0.915 0.9883 0.47471 0.0
C354 C 0.93496 0.98108 0.48375 0.0
C355 C 0.05989 0.04058 0.41847 0.0
O356 O 0.99236 0.9753 0.48247 0.0
O357 O 1.00505 0.96979 0.43782 0.0
O358 O 1.01319 0.02267 0.50967 0.0
O359 O 1.00155 0.02887 0.55481 0.0
O360 O 0.94812 0.94234 0.5442 0.0
O361 O 0.96071 0.97818 0.58058 0.0
O362 O 0.06377 0.05206 0.44641 0.0
O363 O 0.04194 0.01802 0.41007 0.0
H364 H 0.94323 0.01005 0.55739 0.0
H365 H 0.94284 0.96932 0.46736 0.0
H366 H 0.04561 0.93073 0.5156 0.0
H367 H 0.04106 0.96731 0.60824 0.0
H368 H 0.93908 0.01914 0.4273 0.0
H369 H 0.99757 0.09622 0.46521 0.0
H370 H 0.08757 0.00516 0.54808 0.0
H371 H 0.11121 0.99031 0.45839 0.0
H372 H 0.90793 0.02305 0.54365 0.0
H373 H 0.90771 0.98234 0.45126 0.0
Cd374 Cd 0.50158 0.0034 0.05954 0.0
Cd375 Cd 0.53678 0.99378 0.95482 0.0
C376 C 0.54361 0.99723 0.10596 0.0
N377 N 0.53482 0.99094 0.07649 0.0
C378 C 0.56204 0.96581 0.06312 0.0
C379 C 0.57111 0.97142 0.09343 0.0
C380 C 0.56174 0.98759 0.11494 0.0
C381 C 0.54383 0.9757 0.05517 0.0
H382 H 0.53625 0.00938 0.12259 0.0
H383 H 0.53648 0.97076 0.0319 0.0
C384 C 0.48462 0.96134 0.98272 0.0
C385 C 0.49273 0.99424 0.90594 0.0
C386 C 0.47515 0.0035 0.89484 0.0
C387 C 0.47002 0.02492 0.91295 0.0
C388 C 0.48286 0.03624 0.94212 0.0
C389 C 0.50023 0.02639 0.95226 0.0
N390 N 0.50493 0.00582 0.93421 0.0
H391 H 0.49683 0.97798 0.8919 0.0
H392 H 0.51035 0.03547 0.97454 0.0
C393 C 0.5534 0.94729 0.91264 0.0
N394 N 0.55639 0.96111 0.94191 0.0
C395 C 0.5875 0.94295 0.95314 0.0
C396 C 0.58535 0.92888 0.92283 0.0
C397 C 0.56761 0.93108 0.90265 0.0
C398 C 0.57292 0.95901 0.96218 0.0
H399 H 0.54066 0.94962 0.89668 0.0
H400 H 0.57544 0.97044 0.98526 0.0
C401 C 0.54984 0.0367 0.02877 0.0
C402 C 0.4636 0.96935 0.08527 0.0
N403 N 0.48257 0.03643 0.07515 0.0
C404 C 0.48896 0.05273 0.10343 0.0
C405 C 0.47502 0.06897 0.11481 0.0
C406 C 0.45398 0.06852 0.09714 0.0
C407 C 0.44835 0.05195 0.06768 0.0
C408 C 0.46279 0.03601 0.0572 0.0
C409 C 0.57428 0.02944 0.93043 0.0
O410 O 0.49632 0.98012 0.0055 0.0
O411 O 0.49535 0.9596 0.95837 0.0
O412 O 0.53919 0.01538 0.0086 0.0
O413 O 0.54023 0.03976 0.05375 0.0
O414 O 0.46152 0.96763 0.05735 0.0
O415 O 0.48375 0.98692 0.10113 0.0
O416 O 0.57325 0.03373 0.95865 0.0
O417 O 0.5578 0.00833 0.91374 0.0
H418 H 0.50437 0.0525 0.11764 0.0
H419 H 0.45751 0.02251 0.03506 0.0
H420 H 0.56834 0.95324 0.04568 0.0
H421 H 0.56834 0.99277 0.13852 0.0
H422 H 0.46559 0.99388 0.87234 0.0
H423 H 0.48005 0.05301 0.95685 0.0
H424 H 0.60052 0.94181 0.9698 0.0
H425 H 0.56536 0.92118 0.87902 0.0
H426 H 0.48055 0.08153 0.13745 0.0
H427 H 0.43222 0.05041 0.05315 0.0
Cd428 Cd 1.00731 0.50499 0.04592 0.0
Cd429 Cd 0.04961 0.49667 0.94833 0.0
C430 C 0.04521 0.49349 0.09173 0.0
N431 N 0.03546 0.4868 0.06256 0.0
C432 C 0.05489 0.45429 0.04973 0.0
C433 C 0.06485 0.46031 0.07978 0.0
C434 C 0.06001 0.48045 0.10085 0.0
C435 C 0.04019 0.46776 0.04164 0.0
H436 H 0.04114 0.50864 0.10801 0.0
H437 H 0.03203 0.46258 0.01866 0.0
C438 C 0.99426 0.46673 0.9688 0.0
C439 C 1.00463 0.50479 0.90857 0.0
C440 C 0.98902 0.51769 0.90097 0.0
C441 C 0.99083 0.54232 0.91949 0.0
C442 C 1.00842 0.55308 0.94551 0.0
C443 C 0.02346 0.53946 0.95232 0.0
N444 N 0.02145 0.51585 0.9339 0.0
H445 H 1.00337 0.48599 0.89422 0.0
H446 H 0.037 0.54791 0.97226 0.0
C447 C 0.05819 0.44473 0.90628 0.0
N448 N 0.06534 0.46096 0.93456 0.0
C449 C 0.09664 0.4418 0.94207 0.0
C450 C 0.09032 0.42537 0.91252 0.0
C451 C 0.07033 0.42679 0.89488 0.0
C452 C 0.08403 0.45954 0.95257 0.0
H453 H 0.04368 0.4464 0.89204 0.0
H454 H 0.08997 0.47298 0.97472 0.0
C455 C 0.06422 0.53471 0.02704 0.0
C456 C 0.9696 0.47403 0.07538 0.0
N457 N 0.98924 0.5392 0.05701 0.0
C458 C 1.00247 0.56409 0.07425 0.0
C459 C 0.98956 0.58164 0.08455 0.0
C460 C 0.9626 0.57357 0.07745 0.0
C461 C 0.94976 0.54799 0.05885 0.0
C462 C 0.96337 0.53118 0.04905 0.0
C463 C 0.08746 0.52734 0.91888 0.0
O464 O 1.00593 0.48573 0.9914 0.0
O465 O 1.00606 0.46378 0.94539 0.0
O466 O 0.0528 0.51774 0.00278 0.0
O467 O 0.0519 0.53611 0.05022 0.0
O468 O 0.97005 0.46686 0.04713 0.0
O469 O 0.98699 0.49558 0.08976 0.0
O470 O 0.09027 0.53118 0.94722 0.0
O471 O 0.06714 0.50888 0.90453 0.0
H472 H 0.02287 0.57005 0.0811 0.0
H473 H 0.95295 0.51124 0.03599 0.0
H474 H 0.05769 0.43874 0.0327 0.0
H475 H 0.0675 0.48604 0.12418 0.0
H476 H 0.97557 0.50834 0.8809 0.0
H477 H 1.01103 0.57214 0.96029 0.0
H478 H 0.11202 0.44185 0.95659 0.0
H479 H 0.06429 0.41441 0.8722 0.0
H480 H 1.00044 0.60095 0.09902 0.0
H481 H 0.92918 0.54075 0.0522 0.0
Cd482 Cd 0.48831 0.48076 0.03598 0.0
Cd483 Cd 0.53359 0.50784 0.95723 0.0
C484 C 0.54684 0.48595 0.05128 0.0
N485 N 0.52364 0.46811 0.03728 0.0
C486 C 0.53998 0.43338 0.02922 0.0
C487 C 0.56391 0.45116 0.04448 0.0
C488 C 0.56736 0.47784 0.05523 0.0
C489 C 0.51992 0.44229 0.02612 0.0
H490 H 0.54917 0.50633 0.06022 0.0
H491 H 0.5011 0.42844 0.01582 0.0
C492 C 0.4956 0.45422 0.95997 0.0
C493 C 0.48437 0.506 0.9199 0.0
C494 C 0.46577 0.51436 0.90988 0.0
C495 C 0.46283 0.5373 0.92702 0.0
C496 C 0.4782 0.55072 0.95448 0.0
C497 C 0.49653 0.54168 0.96357 0.0
N498 N 0.49945 0.51987 0.94614 0.0
H499 H 0.48744 0.48897 0.90624 0.0
H500 H 0.50888 0.55259 0.9841 0.0
C501 C 0.56656 0.47548 0.9715 0.0
N502 N 0.5659 0.5 0.98115 0.0
C503 C 0.60651 0.51522 0.01091 0.0
C504 C 0.60814 0.49042 0.99996 0.0
C505 C 0.5876 0.47024 0.98069 0.0
C506 C 0.58501 0.51968 0.00097 0.0
H507 H 0.5514 0.4603 0.95543 0.0
H508 H 0.58419 0.53909 0.00794 0.0
C509 C 0.52432 0.53685 0.03437 0.0
C510 C 0.4631 0.45428 0.07862 0.0
N511 N 0.45372 0.48856 0.01709 0.0
C512 C 0.43936 0.49591 0.03867 0.0
C513 C 0.42046 0.5052 0.03201 0.0
C514 C 0.41629 0.50707 0.00278 0.0
C515 C 0.43044 0.49798 0.98048 0.0
C516 C 0.44924 0.48876 0.98819 0.0
C517 C 0.56489 0.53212 0.91655 0.0
O518 O 0.49966 0.47169 0.98449 0.0
O519 O 0.50751 0.461 0.93823 0.0
O520 O 0.52306 0.52084 0.00923 0.0
O521 O 0.51176 0.52774 0.05463 0.0
O522 O 0.45898 0.44294 0.05069 0.0
O523 O 0.47895 0.47797 0.08661 0.0
O524 O 0.56423 0.54523 0.94301 0.0
O525 O 0.55131 0.50768 0.90941 0.0
H526 H 0.44356 0.49579 0.0615 0.0
H527 H 0.46086 0.48284 0.97135 0.0
H528 H 0.53634 0.41258 0.02111 0.0
H529 H 0.58557 0.49219 0.067 0.0
H530 H 0.45459 0.50357 0.8884 0.0
H531 H 0.47633 0.56824 0.96868 0.0
H532 H 0.62222 0.53122 0.02559 0.0
H533 H 0.58838 0.45088 0.97184 0.0
H534 H 0.41047 0.51246 0.05011 0.0
H535 H 0.42768 0.49892 0.95765 0.0
Cd536 Cd 0.99892 0.50039 0.55652 0.0
Cd537 Cd 0.03703 0.49702 0.45433 0.0
C538 C 0.04376 0.49569 0.60004 0.0
N539 N 0.03133 0.48603 0.5718 0.0
C540 C 0.05416 0.45639 0.55909 0.0
C541 C 0.067 0.46555 0.58826 0.0
C542 C 0.06173 0.48573 0.60874 0.0
C543 C 0.03638 0.46689 0.55136 0.0
H544 H 0.03944 0.51085 0.616 0.0
H545 H 0.02637 0.45953 0.52901 0.0
C546 C 0.98348 0.46184 0.4777 0.0
C547 C 0.99909 0.50371 0.40364 0.0
C548 C 0.98158 0.51297 0.39239 0.0
C549 C 0.9694 0.52736 0.41224 0.0
C550 C 0.9751 0.53159 0.44321 0.0
C551 C 0.99283 0.52215 0.45348 0.0
N552 N 1.00458 0.50863 0.43376 0.0
H553 H 1.00863 0.49298 0.38829 0.0
H554 H 0.99764 0.52608 0.47732 0.0
C555 C 0.05572 0.45273 0.41047 0.0
N556 N 0.05756 0.46512 0.44011 0.0
C557 C 0.08825 0.44633 0.45102 0.0
C558 C 0.08723 0.43369 0.42038 0.0
C559 C 0.0703 0.43695 0.40015 0.0
C560 C 0.07334 0.46201 0.46038 0.0
H561 H 0.04356 0.45584 0.39454 0.0
H562 H 0.07494 0.47229 0.48381 0.0
C563 C 0.05074 0.53408 0.53198 0.0
C564 C 0.96291 0.46788 0.58605 0.0
N565 N 0.97907 0.53301 0.56989 0.0
C566 C 0.991 0.55698 0.58973 0.0
C567 C 0.97712 0.57349 0.6005 0.0
C568 C 0.95052 0.56526 0.59119 0.0
C569 C 0.93904 0.54067 0.5701 0.0
C570 C 0.95361 0.52491 0.55984 0.0
C571 C 0.07467 0.53516 0.43271 0.0
O572 O 0.99436 0.47924 0.5019 0.0
O573 O 0.99531 0.46204 0.45414 0.0
O574 O 0.0388 0.51531 0.50925 0.0
O575 O 0.04011 0.53581 0.55637 0.0
O576 O 0.96032 0.46362 0.55767 0.0
O577 O 0.98268 0.48707 0.60052 0.0
O578 O 0.07213 0.53847 0.46057 0.0
O579 O 0.05934 0.51401 0.4149 0.0
H580 H 1.01107 0.56297 0.59809 0.0
H581 H 0.94426 0.50567 0.54452 0.0
H582 H 0.05781 0.44125 0.54228 0.0
H583 H 0.07088 0.49333 0.63154 0.0
H584 H 0.97764 0.50888 0.36836 0.0
H585 H 0.96655 0.54279 0.45948 0.0
H586 H 0.10059 0.44433 0.46773 0.0
H587 H 0.06893 0.42819 0.3763 0.0
H588 H 0.98694 0.59206 0.61692 0.0
H589 H 0.9188 0.53343 0.56175 0.0
Cd590 Cd 0.50804 0.00517 0.54749 0.0
Cd591 Cd 0.54648 0.99604 0.44604 0.0
C592 C 0.54164 0.99225 0.59685 0.0
N593 N 0.53674 0.98909 0.567 0.0
C594 C 0.56114 0.961 0.55519 0.0
C595 C 0.56611 0.96331 0.58582 0.0
C596 C 0.55634 0.97947 0.60679 0.0
C597 C 0.54629 0.97396 0.54628 0.0
H598 H 0.53361 0.00414 0.61292 0.0
H599 H 0.54172 0.97135 0.52266 0.0
C600 C 0.49215 0.96819 0.47084 0.0
C601 C 0.50692 0.00912 0.40387 0.0
C602 C 0.4917 0.02255 0.3967 0.0
C603 C 0.48649 0.0414 0.41939 0.0
C604 C 0.49639 0.04556 0.44905 0.0
C605 C 0.5117 0.03195 0.45514 0.0
N606 N 0.5169 0.01429 0.43268 0.0
H607 H 0.51137 0.99511 0.3863 0.0
H608 H 0.51986 0.03585 0.47786 0.0
C609 C 0.55801 0.9466 0.40158 0.0
N610 N 0.56263 0.96053 0.43095 0.0
C611 C 0.5917 0.93924 0.43977 0.0
C612 C 0.58788 0.92501 0.40931 0.0
C613 C 0.57033 0.92876 0.39035 0.0
C614 C 0.57897 0.95693 0.45008 0.0
H615 H 0.54547 0.95008 0.38646 0.0
H616 H 0.58283 0.96841 0.47324 0.0
C617 C 0.56401 0.03451 0.52448 0.0
C618 C 0.4684 0.97148 0.57249 0.0
N619 N 0.4917 0.04054 0.56062 0.0
C620 C 0.49743 0.05612 0.58928 0.0
C621 C 0.48478 0.07373 0.59997 0.0
C622 C 0.4657 0.07548 0.58121 0.0
C623 C 0.46091 0.05976 0.55133 0.0
C624 C 0.47405 0.04239 0.54154 0.0
C625 C 0.58258 0.02887 0.41671 0.0
O626 O 0.50543 0.9869 0.49284 0.0
O627 O 0.5024 0.96434 0.44635 0.0
O628 O 0.55208 0.01716 0.50069 0.0
O629 O 0.55272 0.03569 0.54846 0.0
O630 O 0.47272 0.96426 0.54536 0.0
O631 O 0.48282 0.99427 0.58788 0.0
O632 O 0.58557 0.03267 0.44502 0.0
O633 O 0.56321 0.00922 0.40225 0.0
H634 H 0.51119 0.05418 0.60433 0.0
H635 H 0.46935 0.02963 0.51899 0.0
H636 H 0.56783 0.94849 0.53813 0.0
H637 H 0.55983 0.98206 0.63062 0.0
H638 H 0.48481 0.01875 0.37347 0.0
H639 H 0.49254 0.05936 0.46749 0.0
H640 H 0.60465 0.93699 0.45558 0.0
H641 H 0.56683 0.9188 0.36666 0.0
H642 H 0.4897 0.0856 0.62296 0.0
H643 H 0.44632 0.05997 0.53589 0.0
H644 H 0.19537 0.16426 0.2316 0.0
H645 H 0.16269 0.12728 0.24563 0.0
H646 H 0.19811 0.15845 0.33692 0.0
H647 H 0.2307 0.1947 0.32328 0.0
H648 H 0.18541 0.10418 0.31508 0.0
H649 H 0.10282 0.13469 0.29523 0.0
H650 H 0.12189 0.1293 0.26468 0.0
H651 H 0.13603 0.15644 0.2971 0.0
C652 C 0.19623 0.16306 0.25459 0.0
C653 C 0.2155 0.18257 0.27636 0.0
C654 C 0.17751 0.14204 0.26258 0.0
C655 C 0.17786 0.14035 0.29238 0.0
C656 C 0.19748 0.1594 0.3138 0.0
H657 H 0.10376 0.08455 0.43065 0.0
H658 H 0.13075 0.10418 0.39473 0.0
C659 C 0.21606 0.18023 0.30593 0.0
C660 C 0.15768 0.11948 0.30233 0.0
H661 H 0.09553 0.10219 0.32104 0.0
C662 C 0.16558 0.1033 0.31579 0.0
C663 C 0.13184 0.11841 0.30319 0.0
C664 C 0.12249 0.13567 0.28946 0.0
C665 C 0.14881 0.0873 0.33174 0.0
C666 C 0.12359 0.0876 0.3343 0.0
C667 C 0.115 0.10222 0.31903 0.0
C668 C 0.10706 0.07531 0.35552 0.0
C669 C 0.1585 0.07111 0.34695 0.0
C670 C 0.08469 0.05282 0.3452 0.0
C671 C 0.06928 0.04146 0.36569 0.0
C672 C 0.07589 0.05268 0.39674 0.0
C673 C 0.09816 0.07546 0.4069 0.0
C674 C 0.11364 0.08663 0.38644 0.0
H675 H 0.17586 0.06822 0.33728 0.0
H676 H 0.16384 0.08139 0.37114 0.0
H677 H 0.14316 0.05158 0.34505 0.0
H678 H 0.0793 0.04398 0.32137 0.0
H679 H 0.05217 0.02395 0.35721 0.0
H680 H 0.83 0.17547 0.34528 0.0
H681 H 0.8464 0.15703 0.38016 0.0
H682 H 0.9111 0.15814 0.32846 0.0
H683 H 0.89553 0.17762 0.29435 0.0
H684 H 0.85322 0.11066 0.36825 0.0
H685 H 0.94679 0.1914 0.41263 0.0
H686 H 0.92157 0.19568 0.39207 0.0
H687 H 0.9434 0.18174 0.37242 0.0
C688 C 0.84802 0.17231 0.3417 0.0
C689 C 0.86152 0.17809 0.31707 0.0
C690 C 0.85725 0.16162 0.36154 0.0
C691 C 0.88018 0.15664 0.35718 0.0
C692 C 0.89369 0.16241 0.33266 0.0
H693 H 0.93446 0.0444 0.39375 0.0
H694 H 0.90992 0.06789 0.37749 0.0
C695 C 0.88455 0.17319 0.31291 0.0
C696 C 0.88928 0.14388 0.37702 0.0
H697 H 0.94335 0.14843 0.41669 0.0
C698 C 0.87278 0.11909 0.3793 0.0
C699 C 0.91456 0.15517 0.39202 0.0
C700 C 0.93248 0.1826 0.39245 0.0
C701 C 0.8815 0.10454 0.39457 0.0
C702 C 0.90754 0.11484 0.40722 0.0
C703 C 0.92347 0.14035 0.40661 0.0
C704 C 0.91942 0.09886 0.41887 0.0
C705 C 0.86282 0.07817 0.39666 0.0
C706 C 0.93311 0.10853 0.44748 0.0
C707 C 0.94723 0.09512 0.45686 0.0
C708 C 0.94817 0.07196 0.43762 0.0
C709 C 0.93379 0.06191 0.40933 0.0
C710 C 0.91965 0.0753 0.40002 0.0
H711 H 0.84249 0.0772 0.39517 0.0
H712 H 0.86445 0.06254 0.37771 0.0
H713 H 0.86705 0.07402 0.41796 0.0
H714 H 0.9333 0.12677 0.46232 0.0
H715 H 0.95782 0.10315 0.47896 0.0
H716 H 0.82892 0.74447 0.31516 0.0
H717 H 0.85686 0.76341 0.36235 0.0
H718 H 0.8612 0.84082 0.35977 0.0
H719 H 0.83294 0.8221 0.31294 0.0
H720 H 0.90576 0.79749 0.37148 0.0
H721 H 0.84806 0.84227 0.44602 0.0
H722 H 0.83366 0.81661 0.41188 0.0
H723 H 0.84716 0.85067 0.41121 0.0
C724 C 0.83573 0.76556 0.32471 0.0
C725 C 0.82883 0.78191 0.31033 0.0
C726 C 0.85148 0.77623 0.35178 0.0
C727 C 0.8604 0.80333 0.36491 0.0
C728 C 0.8537 0.81968 0.35049 0.0
H729 H 0.98263 0.92318 0.40361 0.0
H730 H 0.9537 0.87743 0.39205 0.0
C731 C 0.83791 0.80905 0.3235 0.0
C732 C 0.87924 0.8154 0.3917 0.0
H733 H 0.89533 0.86923 0.45094 0.0
C734 C 0.90331 0.81254 0.38965 0.0
C735 C 0.87576 0.83403 0.41626 0.0
C736 C 0.84959 0.83578 0.42161 0.0
C737 C 0.92505 0.83106 0.40846 0.0
C738 C 0.92241 0.85297 0.42884 0.0
C739 C 0.89757 0.85291 0.43453 0.0
C740 C 0.9441 0.87851 0.43772 0.0
C741 C 0.95095 0.82833 0.40438 0.0
C742 C 0.94814 0.89448 0.46711 0.0
C743 C 0.96413 0.9209 0.47347 0.0
C744 C 0.97637 0.9317 0.45067 0.0
C745 C 0.97339 0.91539 0.42162 0.0
C746 C 0.95722 0.88906 0.41515 0.0
H747 H 0.94883 0.80742 0.40049 0.0
H748 H 0.95854 0.83467 0.38424 0.0
H749 H 0.96522 0.84035 0.42418 0.0
H750 H 0.93797 0.88685 0.48476 0.0
H751 H 0.96649 0.93304 0.49606 0.0
H752 H 0.17133 0.80949 0.41287 0.0
H753 H 0.16383 0.83572 0.46046 0.0
H754 H 0.18987 0.90459 0.42676 0.0
H755 H 0.19796 0.87889 0.37986 0.0
H756 H 0.20772 0.91348 0.48928 0.0
H757 H 0.1011 0.85941 0.46193 0.0
H758 H 0.12192 0.84142 0.46366 0.0
H759 H 0.12299 0.85672 0.43368 0.0
C760 C 0.17576 0.83031 0.41586 0.0
C761 C 0.18475 0.84207 0.39246 0.0
C762 C 0.17143 0.84521 0.44298 0.0
C763 C 0.17614 0.87202 0.44698 0.0
C764 C 0.18616 0.88393 0.42413 0.0
H765 H 0.15101 0.00201 0.48794 0.0
H766 H 0.17289 0.97182 0.48945 0.0
C767 C 0.19042 0.86914 0.39717 0.0
C768 C 0.16838 0.88765 0.47325 0.0
H769 H 0.11511 0.90129 0.49459 0.0
C770 C 0.18745 0.91048 0.49124 0.0
C771 C 0.14197 0.8834 0.47633 0.0
C772 C 0.12069 0.85898 0.45794 0.0
C773 C 0.18076 0.93056 0.50959 0.0
C774 C 0.15446 0.92787 0.50926 0.0
C775 C 0.13535 0.90357 0.49452 0.0
C776 C 0.14657 0.95102 0.51722 0.0
C777 C 0.20201 0.95511 0.5276 0.0
C778 C 0.12504 0.95024 0.53328 0.0
C779 C 0.11216 0.96726 0.53184 0.0
C780 C 0.1204 0.98513 0.51415 0.0
C781 C 0.14375 0.98799 0.50115 0.0
C782 C 0.15659 0.97096 0.50247 0.0
H783 H 0.21761 0.9501 0.53669 0.0
H784 H 0.21074 0.968 0.51276 0.0
H785 H 0.19465 0.96616 0.54648 0.0
H786 H 0.11693 0.93501 0.54476 0.0
H787 H 0.09446 0.96478 0.54228 0.0
H788 H 0.14792 0.79789 0.64725 0.0
H789 H 0.12786 0.81732 0.61689 0.0
H790 H 0.16887 0.89431 0.67588 0.0
H791 H 0.18929 0.87513 0.70596 0.0
H792 H 0.09637 0.84541 0.64026 0.0
H793 H 0.17934 0.90632 0.59167 0.0
H794 H 0.18058 0.87995 0.60661 0.0
H795 H 0.18484 0.91149 0.63144 0.0
C796 C 0.15304 0.81902 0.65335 0.0
C797 C 0.17006 0.83501 0.67902 0.0
C798 C 0.14155 0.83005 0.63606 0.0
C799 C 0.14717 0.85726 0.64395 0.0
C800 C 0.16466 0.87333 0.6691 0.0
H801 H 0.08476 0.967 0.60867 0.0
H802 H 0.10972 0.94383 0.6255 0.0
C803 C 0.17604 0.86232 0.68647 0.0
C804 C 0.13282 0.8686 0.6279 0.0
H805 H 0.14062 0.91591 0.59088 0.0
C806 C 0.10595 0.86055 0.62906 0.0
C807 C 0.14547 0.88838 0.61343 0.0
C808 C 0.17412 0.89691 0.61041 0.0
C809 C 0.09149 0.87254 0.61723 0.0
C810 C 0.10426 0.89283 0.60353 0.0
C811 C 0.13101 0.90042 0.60159 0.0
C812 C 0.09016 0.90704 0.59218 0.0
C813 C 0.06286 0.86416 0.6205 0.0
C814 C 0.07123 0.89402 0.56767 0.0
C815 C 0.05681 0.90707 0.5582 0.0
C816 C 0.06117 0.93343 0.57303 0.0
C817 C 0.0806 0.94657 0.59719 0.0
C818 C 0.09504 0.93348 0.60661 0.0
H819 H 0.05698 0.8518 0.63652 0.0
H820 H 0.05728 0.88159 0.62827 0.0
H821 H 0.05187 0.85254 0.59836 0.0
H822 H 0.0674 0.87366 0.55612 0.0
H823 H 0.04187 0.89634 0.53965 0.0
H824 H 0.18567 0.18044 0.70391 0.0
H825 H 0.1484 0.15907 0.6659 0.0
H826 H 0.18575 0.21203 0.61251 0.0
H827 H 0.22312 0.23366 0.65025 0.0
H828 H 0.12374 0.19605 0.62441 0.0
H829 H 0.16423 0.11934 0.57552 0.0
H830 H 0.16648 0.12984 0.61584 0.0
H831 H 0.18436 0.15256 0.59541 0.0
C832 C 0.18588 0.18771 0.68425 0.0
C833 C 0.20745 0.20841 0.67982 0.0
C834 C 0.16458 0.17561 0.66273 0.0
C835 C 0.1646 0.18417 0.63671 0.0
C836 C 0.18557 0.2054 0.63265 0.0
H837 H 0.05308 0.05993 0.50265 0.0
H838 H 0.08815 0.1026 0.51851 0.0
C839 C 0.20692 0.21747 0.65409 0.0
C840 C 0.1437 0.16902 0.61261 0.0
H841 H 0.11973 0.10904 0.56266 0.0
C842 C 0.12291 0.17725 0.6103 0.0
C843 C 0.14328 0.14503 0.59389 0.0
C844 C 0.16583 0.13613 0.59498 0.0
C845 C 0.10048 0.16075 0.59117 0.0
C846 C 0.09896 0.13545 0.57479 0.0
C847 C 0.1208 0.12841 0.57527 0.0
C848 C 0.07419 0.11426 0.56133 0.0
C849 C 0.07839 0.17019 0.58955 0.0
C850 C 0.05416 0.10712 0.57961 0.0
C851 C 0.0338 0.08294 0.57026 0.0
C852 C 0.03345 0.06541 0.54272 0.0
C853 C 0.05269 0.07322 0.52376 0.0
C854 C 0.07273 0.0976 0.53281 0.0
H855 H 0.08579 0.19172 0.59198 0.0
H856 H 0.06581 0.15998 0.56808 0.0
H857 H 0.06652 0.16646 0.60837 0.0
H858 H 0.05524 0.11925 0.60209 0.0
H859 H 0.01919 0.07738 0.58532 0.0
H860 H 0.84401 0.18982 0.60117 0.0
H861 H 0.84816 0.16334 0.55206 0.0
H862 H 0.80737 0.09251 0.57866 0.0
H863 H 0.80283 0.11873 0.62725 0.0
H864 H 0.87572 0.13222 0.54937 0.0
H865 H 0.77884 0.07071 0.49145 0.0
H866 H 0.78473 0.10064 0.52075 0.0
H867 H 0.77961 0.07005 0.53 0.0
C868 C 0.83532 0.16859 0.59613 0.0
C869 C 0.82342 0.15628 0.6181 0.0
C870 C 0.8376 0.15352 0.56807 0.0
C871 C 0.82768 0.12595 0.56147 0.0
C872 C 0.81456 0.11371 0.58287 0.0
H873 H 0.85917 0.99883 0.51968 0.0
H874 H 0.83635 0.02888 0.5211 0.0
C875 C 0.81242 0.12872 0.61088 0.0
C876 C 0.8353 0.10994 0.53536 0.0
H877 H 0.81155 0.04974 0.48484 0.0
C878 C 0.86178 0.11468 0.53431 0.0
C879 C 0.81707 0.08719 0.51567 0.0
C880 C 0.78848 0.08204 0.51433 0.0
C881 C 0.8704 0.09566 0.5171 0.0
C882 C 0.85196 0.07157 0.49978 0.0
C883 C 0.82564 0.06816 0.49815 0.0
C884 C 0.85915 0.04817 0.48982 0.0
C885 C 0.89891 0.10029 0.52048 0.0
C886 C 0.87809 0.04762 0.46991 0.0
C887 C 0.89115 0.03036 0.46911 0.0
C888 C 0.8854 0.01364 0.48824 0.0
C889 C 0.86409 0.01178 0.50496 0.0
C890 C 0.851 0.02889 0.50568 0.0
H891 H 0.91028 0.11927 0.5368 0.0
H892 H 0.9019 0.08418 0.52798 0.0
H893 H 0.90671 0.10051 0.49853 0.0
H894 H 0.88449 0.06217 0.45729 0.0
H895 H 0.9074 0.03202 0.45597 0.0
H896 H 0.79197 0.83278 0.73926 0.0
H897 H 0.81848 0.86422 0.71326 0.0
H898 H 0.87837 0.83205 0.7133 0.0
H899 H 0.85229 0.80105 0.74024 0.0
H900 H 0.89822 0.88555 0.72198 0.0
H901 H 0.82326 0.83782 0.62454 0.0
H902 H 0.81131 0.85073 0.65846 0.0
H903 H 0.82262 0.82414 0.65605 0.0
C904 C 0.81099 0.83272 0.7342 0.0
C905 C 0.81996 0.81427 0.7414 0.0
C906 C 0.82602 0.85057 0.7192 0.0
C907 C 0.85001 0.84989 0.7106 0.0
C908 C 0.85978 0.8327 0.71953 0.0
H909 H 0.92424 0.90055 0.56121 0.0
H910 H 0.90147 0.87616 0.59615 0.0
C911 C 0.84489 0.81505 0.73495 0.0
C912 C 0.86406 0.86578 0.69056 0.0
H913 H 0.85815 0.87595 0.62153 0.0
C914 C 0.88952 0.88351 0.70001 0.0
C915 C 0.85275 0.86264 0.66169 0.0
C916 C 0.82609 0.84262 0.64941 0.0
C917 C 0.90395 0.89839 0.68141 0.0
C918 C 0.89232 0.89585 0.65294 0.0
C919 C 0.86691 0.87802 0.64348 0.0
C920 C 0.90633 0.91086 0.6321 0.0
C921 C 0.9317 0.91612 0.69211 0.0
C922 C 0.91623 0.93844 0.64057 0.0
C923 C 0.92943 0.95241 0.62073 0.0
C924 C 0.93255 0.93901 0.59192 0.0
C925 C 0.92208 0.9114 0.58324 0.0
C926 C 0.90912 0.89746 0.60319 0.0
H927 H 0.93969 0.91034 0.71019 0.0
H928 H 0.94417 0.91582 0.67341 0.0
H929 H 0.93266 0.9366 0.70127 0.0
H930 H 0.91367 0.94918 0.66247 0.0
H931 H 0.93714 0.9737 0.62796 0.0
H932 H 0.319 0.19136 0.25245 0.0
H933 H 0.34501 0.16659 0.22833 0.0
H934 H 0.33058 0.18218 0.14451 0.0
H935 H 0.3047 0.20748 0.16869 0.0
H936 H 0.33328 0.12253 0.18241 0.0
H937 H 0.40857 0.20454 0.15051 0.0
H938 H 0.38528 0.20978 0.17594 0.0
H939 H 0.37621 0.19834 0.13614 0.0
C940 C 0.32127 0.18962 0.22885 0.0
C941 C 0.30964 0.20168 0.21267 0.0
C942 C 0.33625 0.17533 0.21502 0.0
C943 C 0.34034 0.1727 0.18457 0.0
C944 C 0.32839 0.18431 0.16816 0.0
H945 H 0.42996 0.09312 0.06816 0.0
H946 H 0.4021 0.1173 0.08835 0.0
C947 C 0.31333 0.19865 0.18201 0.0
C948 C 0.35673 0.15749 0.17026 0.0
H949 H 0.41103 0.16238 0.13322 0.0
C950 C 0.35029 0.13134 0.17172 0.0
C951 C 0.37903 0.1687 0.15609 0.0
C952 C 0.3879 0.19694 0.15475 0.0
C953 C 0.36515 0.11619 0.15936 0.0
C954 C 0.38763 0.12749 0.14554 0.0
C955 C 0.39392 0.15354 0.14375 0.0
C956 C 0.40496 0.11274 0.13321 0.0
C957 C 0.35621 0.08795 0.16073 0.0
C958 C 0.41644 0.10227 0.15157 0.0
C959 C 0.43233 0.08823 0.14 0.0
C960 C 0.43749 0.0843 0.10967 0.0
C961 C 0.42629 0.09523 0.09146 0.0
C962 C 0.41041 0.10931 0.10308 0.0
H963 H 0.33523 0.08007 0.16351 0.0
H964 H 0.35993 0.07523 0.14016 0.0
H965 H 0.36693 0.08674 0.1803 0.0
H966 H 0.41317 0.10499 0.17502 0.0
H967 H 0.44021 0.08005 0.15487 0.0
H968 H 0.83465 0.28963 0.18076 0.0
H969 H 0.86265 0.32352 0.15889 0.0
H970 H 0.8272 0.37739 0.20396 0.0
H971 H 0.7988 0.3435 0.22585 0.0
H972 H 0.83232 0.3746 0.14171 0.0
H973 H 0.92407 0.38966 0.20502 0.0
H974 H 0.90553 0.3559 0.18637 0.0
H975 H 0.89264 0.37341 0.21622 0.0
C976 C 0.8328 0.30868 0.18613 0.0
C977 C 0.81461 0.31394 0.20519 0.0
C978 C 0.84889 0.32803 0.17371 0.0
C979 C 0.84716 0.35295 0.18022 0.0
C980 C 0.82885 0.35824 0.1989 0.0
H981 H 0.96364 0.48512 0.13504 0.0
H982 H 0.93205 0.45758 0.16123 0.0
C983 C 0.81273 0.3389 0.21142 0.0
C984 C 0.86428 0.37328 0.16703 0.0
H985 H 0.92785 0.40794 0.16316 0.0
C986 C 0.8532 0.38214 0.14655 0.0
C987 C 0.89142 0.38321 0.1738 0.0
C988 C 0.90417 0.37527 0.19677 0.0
C989 C 0.86875 0.40011 0.13177 0.0
C990 C 0.89596 0.40903 0.13745 0.0
C991 C 0.90695 0.40084 0.15871 0.0
C992 C 0.91355 0.42642 0.12117 0.0
C993 C 0.85596 0.40937 0.11026 0.0
C994 C 0.91351 0.41791 0.08999 0.0
C995 C 0.9315 0.4336 0.07494 0.0
C996 C 0.94992 0.45789 0.09095 0.0
C997 C 0.9497 0.46646 0.12213 0.0
C998 C 0.93168 0.4508 0.13712 0.0
H999 H 0.83564 0.40667 0.11475 0.0
H1000 H 0.86678 0.43044 0.11162 0.0
H1001 H 0.85565 0.39773 0.08702 0.0
H1002 H 0.9 0.39887 0.07741 0.0
H1003 H 0.93125 0.42648 0.05089 0.0
H1004 H 0.74443 0.87163 0.12844 0.0
H1005 H 0.71635 0.89347 0.11565 0.0
H1006 H 0.67163 0.87569 0.18877 0.0
H1007 H 0.69993 0.85438 0.20216 0.0
H1008 H 0.66262 0.87265 0.09948 0.0
H1009 H 0.68817 0.95471 0.20307 0.0
H1010 H 0.70735 0.93448 0.19263 0.0
H1011 H 0.67785 0.9226 0.20951 0.0
C1012 C 0.72883 0.87262 0.14208 0.0
C1013 C 0.72462 0.86125 0.16646 0.0
C1014 C 0.71265 0.885 0.13459 0.0
C1015 C 0.69201 0.88661 0.15146 0.0
C1016 C 0.68765 0.87516 0.17568 0.0
H1017 H 0.57173 0.9518 0.14233 0.0
H1018 H 0.60096 0.93149 0.15584 0.0
C1019 C 0.70373 0.86267 0.18311 0.0
C1020 C 0.67474 0.89971 0.14329 0.0
H1021 H 0.65303 0.94999 0.16996 0.0
C1022 C 0.66063 0.88965 0.11484 0.0
C1023 C 0.67199 0.92185 0.16332 0.0
C1024 C 0.68729 0.93425 0.19375 0.0
C1025 C 0.64355 0.90071 0.10613 0.0
C1026 C 0.64085 0.92294 0.12612 0.0
C1027 C 0.655 0.933 0.15457 0.0
C1028 C 0.62339 0.93592 0.11803 0.0
C1029 C 0.62797 0.88793 0.07587 0.0
C1030 C 0.62644 0.94579 0.09259 0.0
C1031 C 0.60972 0.95747 0.08479 0.0
C1032 C 0.58963 0.95988 0.10242 0.0
C1033 C 0.58705 0.95057 0.12832 0.0
C1034 C 0.60373 0.93879 0.13602 0.0
H1035 H 0.62652 0.86721 0.06723 0.0
H1036 H 0.6081 0.88825 0.07689 0.0
H1037 H 0.63763 0.89884 0.05957 0.0
H1038 H 0.64187 0.94459 0.07875 0.0
H1039 H 0.61269 0.96483 0.06503 0.0
H1040 H 0.2381 0.67811 0.18341 0.0
H1041 H 0.21783 0.65141 0.13371 0.0
H1042 H 0.20942 0.71888 0.11297 0.0
H1043 H 0.22876 0.74559 0.16354 0.0
H1044 H 0.16615 0.68131 0.10134 0.0
H1045 H 0.23489 0.63807 0.0501 0.0
H1046 H 0.23207 0.63297 0.08682 0.0
H1047 H 0.24482 0.66607 0.08258 0.0
C1048 C 0.23228 0.6874 0.16816 0.0
C1049 C 0.23465 0.71383 0.17751 0.0
C1050 C 0.22108 0.67218 0.13946 0.0
C1051 C 0.21263 0.68322 0.11919 0.0
C1052 C 0.21601 0.70998 0.12808 0.0
H1053 H 0.08265 0.56747 0.99088 0.0
H1054 H 0.12367 0.60547 0.00066 0.0
C1055 C 0.22684 0.72514 0.15706 0.0
C1056 C 0.19631 0.66566 0.09124 0.0
H1057 H 0.18816 0.60773 0.04002 0.0
C1058 C 0.17133 0.66586 0.08702 0.0
C1059 C 0.20309 0.64571 0.07209 0.0
C1060 C 0.23034 0.64596 0.07301 0.0
C1061 C 0.15204 0.6448 0.06712 0.0
C1062 C 0.15798 0.62307 0.0512 0.0
C1063 C 0.18364 0.62431 0.05263 0.0
C1064 C 0.13708 0.59724 0.03977 0.0
C1065 C 0.12476 0.64455 0.0658 0.0
C1066 C 0.13171 0.57968 0.05785 0.0
C1067 C 0.10843 0.55826 0.05243 0.0
C1068 C 0.09044 0.55386 0.02854 0.0
C1069 C 0.09657 0.57026 0.00905 0.0
C1070 C 0.11987 0.59195 0.01466 0.0
H1071 H 0.12345 0.66308 0.0797 0.0
H1072 H 0.11765 0.64174 0.04227 0.0
H1073 H 0.11171 0.62789 0.07376 0.0
H1074 H 0.14468 0.58366 0.07752 0.0
H1075 H 0.10393 0.54585 0.06776 0.0
H1076 H 0.27193 0.8113 0.84665 0.0
H1077 H 0.29364 0.83935 0.89586 0.0
H1078 H 0.35449 0.80796 0.88324 0.0
H1079 H 0.33223 0.77898 0.8347 0.0
H1080 H 0.34491 0.82018 0.94292 0.0
H1081 H 0.35517 0.90295 0.89198 0.0
H1082 H 0.32274 0.88221 0.89492 0.0
H1083 H 0.34256 0.86921 0.8701 0.0
C1084 C 0.28971 0.81008 0.85466 0.0
C1085 C 0.30077 0.79347 0.83667 0.0
C1086 C 0.30206 0.82607 0.88275 0.0
C1087 C 0.326 0.82623 0.89279 0.0
C1088 C 0.33605 0.8082 0.87583 0.0
H1089 H 0.47118 0.90879 0.96289 0.0
H1090 H 0.4274 0.87587 0.95406 0.0
C1091 C 0.32341 0.79177 0.84804 0.0
C1092 C 0.34249 0.84739 0.91842 0.0
H1093 H 0.38001 0.9126 0.93663 0.0
C1094 C 0.35219 0.84052 0.94198 0.0
C1095 C 0.35176 0.874 0.91735 0.0
C1096 C 0.34272 0.88264 0.89219 0.0
C1097 C 0.37235 0.85923 0.96314 0.0
C1098 C 0.3831 0.88523 0.96036 0.0
C1099 C 0.37167 0.89261 0.93869 0.0
C1100 C 0.40921 0.90332 0.97437 0.0
C1101 C 0.38287 0.85077 0.98733 0.0
C1102 C 0.41364 0.92963 0.98925 0.0
C1103 C 0.43874 0.9485 0.9941 0.0
C1104 C 0.45956 0.94122 0.98407 0.0
C1105 C 0.45535 0.9147 0.97102 0.0
C1106 C 0.43037 0.89587 0.96635 0.0
H1107 H 0.36741 0.8347 0.99385 0.0
H1108 H 0.39806 0.84313 0.97868 0.0
H1109 H 0.39154 0.86744 0.00756 0.0
H1110 H 0.39753 0.93584 0.9951 0.0
H1111 H 0.4416 0.969 0.00367 0.0
H1112 H 0.22521 0.27183 0.82987 0.0
H1113 H 0.19877 0.29601 0.85574 0.0
H1114 H 0.19096 0.32183 0.77708 0.0
H1115 H 0.21685 0.29783 0.75123 0.0
H1116 H 0.20676 0.34992 0.8693 0.0
H1117 H 0.11605 0.29282 0.79449 0.0
H1118 H 0.14259 0.2814 0.7945 0.0
H1119 H 0.14332 0.30526 0.77449 0.0
C1120 C 0.21765 0.28243 0.81797 0.0
C1121 C 0.22317 0.28254 0.78825 0.0
C1122 C 0.20257 0.29638 0.83287 0.0
C1123 C 0.19235 0.31054 0.81833 0.0
C1124 C 0.19796 0.3107 0.78875 0.0
H1125 H 0.10416 0.41333 0.85497 0.0
H1126 H 0.12833 0.3854 0.83427 0.0
C1127 C 0.21302 0.29694 0.77397 0.0
C1128 C 0.17641 0.32574 0.83395 0.0
H1129 H 0.11846 0.33385 0.82689 0.0
C1130 C 0.18734 0.34618 0.86021 0.0
C1131 C 0.15101 0.32113 0.82223 0.0
C1132 C 0.13742 0.2988 0.79505 0.0
C1133 C 0.1741 0.36258 0.87423 0.0
C1134 C 0.14885 0.35825 0.86218 0.0
C1135 C 0.13778 0.33747 0.83625 0.0
C1136 C 0.13386 0.37538 0.87543 0.0
C1137 C 0.18783 0.38511 0.90118 0.0
C1138 C 0.12832 0.37908 0.90557 0.0
C1139 C 0.11429 0.39513 0.91758 0.0
C1140 C 0.10508 0.4078 0.89975 0.0
C1141 C 0.11042 0.40375 0.86948 0.0
C1142 C 0.12448 0.38779 0.85755 0.0
H1143 H 0.20912 0.39017 0.90257 0.0
H1144 H 0.18375 0.40291 0.90059 0.0
H1145 H 0.18092 0.37943 0.92186 0.0
H1146 H 0.13458 0.3693 0.91984 0.0
H1147 H 0.11033 0.39726 0.94079 0.0
H1148 H 0.68846 0.2101 0.80117 0.0
H1149 H 0.66222 0.18013 0.82898 0.0
H1150 H 0.72073 0.14605 0.82849 0.0
H1151 H 0.74757 0.17678 0.80185 0.0
H1152 H 0.64097 0.12902 0.81432 0.0
H1153 H 0.70991 0.16045 0.91549 0.0
H1154 H 0.71479 0.17866 0.88753 0.0
H1155 H 0.72377 0.15024 0.88196 0.0
C1156 C 0.69571 0.19621 0.80703 0.0
C1157 C 0.72004 0.19576 0.79953 0.0
C1158 C 0.68076 0.17919 0.82298 0.0
C1159 C 0.68979 0.16127 0.83137 0.0
C1160 C 0.71379 0.1603 0.82312 0.0
H1161 H 0.58983 0.02069 0.87448 0.0
H1162 H 0.61898 0.05313 0.85152 0.0
C1163 C 0.72897 0.17767 0.80765 0.0
C1164 C 0.67357 0.14289 0.84767 0.0
H1165 H 0.67403 0.11987 0.9093 0.0
C1166 C 0.64814 0.12717 0.83522 0.0
C1167 C 0.6828 0.14088 0.87522 0.0
C1168 C 0.70922 0.15867 0.89099 0.0
C1169 C 0.6318 0.10909 0.84923 0.0
C1170 C 0.64156 0.10592 0.87578 0.0
C1171 C 0.66678 0.12205 0.88865 0.0
C1172 C 0.62579 0.08601 0.89054 0.0
C1173 C 0.60414 0.09397 0.83567 0.0
C1174 C 0.62123 0.09354 0.92064 0.0
C1175 C 0.60509 0.07492 0.93403 0.0
C1176 C 0.59313 0.04861 0.91737 0.0
C1177 C 0.5985 0.04096 0.88763 0.0
C1178 C 0.61498 0.05947 0.87445 0.0
H1179 H 0.59767 0.10452 0.82173 0.0
H1180 H 0.60263 0.07463 0.82091 0.0
H1181 H 0.59075 0.09053 0.85327 0.0
H1182 H 0.62963 0.11391 0.93352 0.0
H1183 H 0.6013 0.08127 0.95704 0.0
H1184 H 0.88132 0.70682 0.90659 0.0
H1185 H 0.90245 0.67769 0.91611 0.0
H1186 H 0.88337 0.63284 0.82365 0.0
H1187 H 0.86128 0.66117 0.81399 0.0
H1188 H 0.87765 0.61735 0.90176 0.0
H1189 H 0.96529 0.65644 0.84424 0.0
H1190 H 0.94574 0.67558 0.85857 0.0
H1191 H 0.93415 0.64914 0.82507 0.0
C1192 C 0.88125 0.6906 0.88826 0.0
C1193 C 0.86946 0.68651 0.85945 0.0
C1194 C 0.89353 0.67405 0.89376 0.0
C1195 C 0.89464 0.65322 0.87056 0.0
C1196 C 0.88299 0.64899 0.84181 0.0
H1197 H 0.97607 0.54476 0.86356 0.0
H1198 H 0.95113 0.5697 0.85128 0.0
C1199 C 0.87048 0.66537 0.83632 0.0
C1200 C 0.9078 0.63579 0.87653 0.0
H1201 H 0.96224 0.62114 0.86448 0.0
C1202 C 0.89615 0.61813 0.89363 0.0
C1203 C 0.93178 0.63668 0.86566 0.0
C1204 C 0.94519 0.65553 0.84747 0.0
C1205 C 0.90775 0.6012 0.9 0.0
C1206 C 0.93214 0.60253 0.88979 0.0
C1207 C 0.94362 0.62007 0.8724 0.0
C1208 C 0.94631 0.58632 0.89732 0.0
C1209 C 0.89338 0.58165 0.91701 0.0
C1210 C 0.95207 0.58726 0.9273 0.0
C1211 C 0.96594 0.57261 0.93439 0.0
C1212 C 0.97491 0.55697 0.91171 0.0
C1213 C 0.96918 0.55615 0.88167 0.0
C1214 C 0.95509 0.57064 0.87459 0.0
H1215 H 0.87219 0.57711 0.91433 0.0
H1216 H 0.89689 0.563 0.90941 0.0
H1217 H 0.90005 0.59016 0.94126 0.0
H1218 H 0.94614 0.59964 0.94537 0.0
H1219 H 0.9696 0.57361 0.95776 0.0
H1220 H 0.19287 0.31319 0.1089 0.0
H1221 H 0.17278 0.34214 0.09638 0.0
H1222 H 0.139 0.34729 0.18039 0.0
H1223 H 0.15898 0.31834 0.19307 0.0
H1224 H 0.12162 0.33556 0.08937 0.0
H1225 H 0.1728 0.42425 0.18197 0.0
H1226 H 0.18297 0.39646 0.1724 0.0
H1227 H 0.15623 0.39549 0.19452 0.0
C1228 C 0.1811 0.32038 0.12471 0.0
C1229 C 0.17769 0.31343 0.15209 0.0
C1230 C 0.1697 0.33707 0.11756 0.0
C1231 C 0.1547 0.34734 0.13763 0.0
C1232 C 0.15103 0.34024 0.16484 0.0
H1233 H 0.06274 0.4437 0.13128 0.0
H1234 H 0.08485 0.41683 0.14507 0.0
C1235 C 0.16247 0.32361 0.17206 0.0
C1236 C 0.14228 0.36477 0.12964 0.0
H1237 H 0.13782 0.42543 0.1532 0.0
C1238 C 0.1253 0.35526 0.10325 0.0
C1239 C 0.14699 0.39051 0.14774 0.0
C1240 C 0.16592 0.40243 0.17559 0.0
C1241 C 0.11258 0.37051 0.09479 0.0
C1242 C 0.11724 0.39621 0.11293 0.0
C1243 C 0.13421 0.40574 0.13931 0.0
C1244 C 0.10461 0.41344 0.10491 0.0
C1245 C 0.09376 0.35869 0.06685 0.0
C1246 C 0.10878 0.42107 0.07807 0.0
C1247 C 0.09628 0.4366 0.07018 0.0
C1248 C 0.07936 0.44501 0.08903 0.0
C1249 C 0.07578 0.43788 0.11631 0.0
C1250 C 0.08831 0.42236 0.12418 0.0
H1251 H 0.08737 0.33691 0.05988 0.0
H1252 H 0.07641 0.36414 0.07029 0.0
H1253 H 0.10331 0.36631 0.04822 0.0
H1254 H 0.12174 0.41501 0.06315 0.0
H1255 H 0.09997 0.44209 0.0493 0.0
H1256 H 0.23832 0.66663 0.76135 0.0
H1257 H 0.21358 0.63286 0.78551 0.0
H1258 H 0.18202 0.68686 0.83916 0.0
H1259 H 0.20636 0.72071 0.81487 0.0
H1260 H 0.21549 0.63446 0.84661 0.0
H1261 H 0.11778 0.62171 0.80069 0.0
H1262 H 0.147 0.63856 0.78566 0.0
H1263 H 0.13747 0.6551 0.81946 0.0
C1264 C 0.226 0.67132 0.77816 0.0
C1265 C 0.22414 0.69631 0.78604 0.0
C1266 C 0.21197 0.65202 0.79197 0.0
C1267 C 0.1958 0.65734 0.81378 0.0
C1268 C 0.19407 0.68229 0.82194 0.0
H1269 H 0.12799 0.57304 0.94402 0.0
H1270 H 0.15608 0.60357 0.91793 0.0
C1271 C 0.20804 0.70161 0.8081 0.0
C1272 C 0.18094 0.63685 0.82825 0.0
H1273 H 0.11953 0.60098 0.83917 0.0
C1274 C 0.1945 0.62699 0.84491 0.0
C1275 C 0.1536 0.627 0.82557 0.0
C1276 C 0.13805 0.63593 0.80665 0.0
C1277 C 0.18136 0.6078 0.85955 0.0
C1278 C 0.15405 0.59866 0.85774 0.0
C1279 C 0.14051 0.60819 0.84063 0.0
C1280 C 0.13892 0.57925 0.87346 0.0
C1281 C 0.19678 0.59727 0.87647 0.0
C1282 C 0.11995 0.5556 0.85707 0.0
C1283 C 0.10372 0.53831 0.87187 0.0
C1284 C 0.10621 0.54443 0.90334 0.0
C1285 C 0.12575 0.56776 0.91973 0.0
C1286 C 0.14189 0.58514 0.90488 0.0
H1287 H 0.21642 0.60082 0.86892 0.0
H1288 H 0.19906 0.60739 0.90071 0.0
H1289 H 0.18672 0.57585 0.87368 0.0
H1290 H 0.11735 0.55078 0.8328 0.0
H1291 H 0.08888 0.52043 0.85866 0.0
H1292 H 0.31307 0.13957 0.8692 0.0
H1293 H 0.34069 0.11834 0.88451 0.0
H1294 H 0.36341 0.10282 0.79489 0.0
H1295 H 0.33652 0.12478 0.77961 0.0
H1296 H 0.33908 0.06736 0.86362 0.0
H1297 H 0.43321 0.13756 0.84506 0.0
H1298 H 0.40393 0.14466 0.8459 0.0
H1299 H 0.40967 0.12355 0.81286 0.0
C1300 C 0.32419 0.13199 0.85278 0.0
C1301 C 0.32258 0.13415 0.82315 0.0
C1302 C 0.33987 0.11964 0.86155 0.0
C1303 C 0.35454 0.10927 0.84104 0.0
C1304 C 0.35274 0.11107 0.81136 0.0
H1305 H 0.46305 0.0305 0.85619 0.0
H1306 H 0.43427 0.04939 0.83827 0.0
C1307 C 0.33704 0.1234 0.80254 0.0
C1308 C 0.37128 0.09621 0.85064 0.0
H1309 H 0.43383 0.09916 0.85684 0.0
C1310 C 0.35981 0.07438 0.86221 0.0
C1311 C 0.39836 0.10522 0.84875 0.0
C1312 C 0.41212 0.12917 0.83774 0.0
C1313 C 0.37452 0.06119 0.87152 0.0
C1314 C 0.40165 0.07033 0.86986 0.0
C1315 C 0.41308 0.09206 0.85812 0.0
C1316 C 0.41856 0.05795 0.88064 0.0
C1317 C 0.3607 0.0372 0.88244 0.0
C1318 C 0.41956 0.05648 0.91051 0.0
C1319 C 0.43585 0.04545 0.92079 0.0
C1320 C 0.45184 0.03577 0.90155 0.0
C1321 C 0.4508 0.0373 0.87161 0.0
C1322 C 0.43447 0.04834 0.86135 0.0
H1323 H 0.33983 0.02826 0.874 0.0
H1324 H 0.36952 0.02209 0.87531 0.0
H1325 H 0.36211 0.04299 0.9073 0.0
H1326 H 0.40796 0.0642 0.9261 0.0
H1327 H 0.43583 0.04447 0.94389 0.0
H1328 H 0.83771 0.28401 0.84163 0.0
H1329 H 0.86153 0.31387 0.88871 0.0
H1330 H 0.79623 0.33714 0.91038 0.0
H1331 H 0.7722 0.30738 0.86306 0.0
H1332 H 0.83959 0.3778 0.90881 0.0
H1333 H 0.86366 0.32133 0.97827 0.0
H1334 H 0.8691 0.30946 0.94017 0.0
H1335 H 0.8368 0.30665 0.94924 0.0
C1336 C 0.82816 0.295 0.85667 0.0
C1337 C 0.80323 0.29358 0.84841 0.0
C1338 C 0.84166 0.3118 0.88384 0.0
C1339 C 0.83047 0.3274 0.9033 0.0
C1340 C 0.80505 0.32498 0.89587 0.0
H1341 H 0.95402 0.47515 0.99702 0.0
H1342 H 0.91004 0.44287 0.9947 0.0
C1343 C 0.79144 0.30807 0.86872 0.0
C1344 C 0.84731 0.34959 0.92769 0.0
H1345 H 0.89803 0.36405 0.97903 0.0
C1346 C 0.85179 0.37504 0.92509 0.0
C1347 C 0.86287 0.34593 0.94916 0.0
C1348 C 0.85762 0.31932 0.95457 0.0
C1349 C 0.87373 0.39637 0.94019 0.0
C1350 C 0.89119 0.392 0.95878 0.0
C1351 C 0.88478 0.36724 0.96444 0.0
C1352 C 0.91829 0.41052 0.96623 0.0
C1353 C 0.8795 0.4226 0.9334 0.0
C1354 C 0.93763 0.4027 0.95219 0.0
C1355 C 0.96265 0.42088 0.95401 0.0
C1356 C 0.96877 0.44716 0.97004 0.0
C1357 C 0.94974 0.45483 0.98509 0.0
C1358 C 0.92466 0.43651 0.98354 0.0
H1359 H 0.86494 0.42188 0.9163 0.0
H1360 H 0.87961 0.43752 0.95418 0.0
H1361 H 0.89888 0.42924 0.92512 0.0
H1362 H 0.93306 0.38278 0.93851 0.0
H1363 H 0.97702 0.41455 0.94217 0.0
H1364 H 0.69258 0.77129 0.78015 0.0
H1365 H 0.66804 0.79749 0.80471 0.0
H1366 H 0.73302 0.84463 0.87088 0.0
H1367 H 0.75802 0.81844 0.84614 0.0
H1368 H 0.65312 0.80583 0.86225 0.0
H1369 H 0.71593 0.90074 0.84258 0.0
H1370 H 0.71839 0.8698 0.8234 0.0
H1371 H 0.73217 0.88553 0.86158 0.0
C1372 C 0.70184 0.78721 0.79994 0.0
C1373 C 0.72752 0.79265 0.81097 0.0
C1374 C 0.68763 0.80224 0.81404 0.0
C1375 C 0.69861 0.82342 0.83952 0.0
C1376 C 0.72413 0.82877 0.85094 0.0
H1377 H 0.63595 0.93861 0.94274 0.0
H1378 H 0.66293 0.91297 0.9245 0.0
C1379 C 0.7384 0.8136 0.83686 0.0
C1380 C 0.68302 0.83944 0.85397 0.0
H1381 H 0.68064 0.90127 0.8707 0.0
C1382 C 0.65922 0.82671 0.86411 0.0
C1383 C 0.69079 0.86678 0.85661 0.0
C1384 C 0.71559 0.88158 0.84528 0.0
C1385 C 0.64319 0.84039 0.8768 0.0
C1386 C 0.65067 0.86763 0.87888 0.0
C1387 C 0.67469 0.88045 0.86916 0.0
C1388 C 0.63375 0.88301 0.89056 0.0
C1389 C 0.61858 0.82548 0.8884 0.0
C1390 C 0.60819 0.87511 0.87765 0.0
C1391 C 0.59252 0.88963 0.8883 0.0
C1392 C 0.60192 0.91278 0.91208 0.0
C1393 C 0.62763 0.92074 0.92484 0.0
C1394 C 0.64328 0.90615 0.91418 0.0
H1395 H 0.61971 0.8078 0.894 0.0
H1396 H 0.61432 0.83804 0.90869 0.0
H1397 H 0.60221 0.81873 0.87079 0.0
H1398 H 0.60035 0.85776 0.85898 0.0
H1399 H 0.57289 0.88254 0.87787 0.0
H1400 H 0.85185 0.74551 0.18641 0.0
H1401 H 0.88009 0.72262 0.16282 0.0
H1402 H 0.8244 0.64898 0.17037 0.0
H1403 H 0.79624 0.67135 0.19342 0.0
H1404 H 0.90321 0.69227 0.18413 0.0
H1405 H 0.83652 0.63042 0.08255 0.0
H1406 H 0.83193 0.65844 0.10713 0.0
H1407 H 0.82174 0.62745 0.11657 0.0
C1408 C 0.84549 0.72441 0.1828 0.0
C1409 C 0.82147 0.71042 0.19171 0.0
C1410 C 0.86175 0.7113 0.16936 0.0
C1411 C 0.85434 0.68384 0.16418 0.0
C1412 C 0.83049 0.66998 0.1733 0.0
H1413 H 0.91356 0.55932 0.09615 0.0
H1414 H 0.88918 0.58712 0.11638 0.0
C1415 C 0.81435 0.68298 0.18672 0.0
C1416 C 0.87148 0.66953 0.14996 0.0
H1417 H 0.87182 0.61787 0.0926 0.0
C1418 C 0.89644 0.67621 0.16391 0.0
C1419 C 0.86285 0.64842 0.12356 0.0
C1420 C 0.8369 0.64088 0.10639 0.0
C1421 C 0.91242 0.66186 0.15298 0.0
C1422 C 0.90355 0.6404 0.12688 0.0
C1423 C 0.87879 0.63412 0.11263 0.0
C1424 C 0.91911 0.62364 0.11449 0.0
C1425 C 0.93825 0.66922 0.1703 0.0
C1426 C 0.94425 0.63453 0.10615 0.0
C1427 C 0.95838 0.61852 0.09435 0.0
C1428 C 0.94771 0.59102 0.09017 0.0
C1429 C 0.92247 0.58023 0.0984 0.0
C1430 C 0.90844 0.59623 0.11023 0.0
H1431 H 0.93919 0.68104 0.19365 0.0
H1432 H 0.94229 0.65144 0.17107 0.0
H1433 H 0.95374 0.68122 0.15908 0.0
H1434 H 0.95289 0.65545 0.10834 0.0
H1435 H 0.97751 0.62768 0.08797 0.0
H1436 H 0.33767 0.79532 0.20764 0.0
H1437 H 0.36177 0.82641 0.18008 0.0
H1438 H 0.30728 0.86587 0.19681 0.0
H1439 H 0.28355 0.8353 0.22556 0.0
H1440 H 0.3474 0.83611 0.13039 0.0
H1441 H 0.37497 0.92638 0.22513 0.0
H1442 H 0.36068 0.89385 0.2305 0.0
H1443 H 0.34075 0.90861 0.21664 0.0
C1444 C 0.33087 0.81068 0.20558 0.0
C1445 C 0.30888 0.81307 0.21891 0.0
C1446 C 0.34461 0.82838 0.18976 0.0
C1447 C 0.33647 0.84861 0.18672 0.0
C1448 C 0.31422 0.85077 0.19952 0.0
H1449 H 0.41396 0.9393 0.06141 0.0
H1450 H 0.38017 0.91074 0.08461 0.0
C1451 C 0.30066 0.83328 0.21582 0.0
C1452 C 0.35161 0.86729 0.17012 0.0
H1453 H 0.38856 0.93179 0.17824 0.0
C1454 C 0.35632 0.85707 0.14074 0.0
C1455 C 0.36325 0.89456 0.18384 0.0
C1456 C 0.35989 0.90654 0.21584 0.0
C1457 C 0.37323 0.87324 0.12507 0.0
C1458 C 0.38498 0.9005 0.13886 0.0
C1459 C 0.37944 0.91086 0.16777 0.0
C1460 C 0.4048 0.91832 0.12488 0.0
C1461 C 0.37932 0.86072 0.0946 0.0
C1462 C 0.42954 0.93266 0.14027 0.0
C1463 C 0.44863 0.94938 0.12742 0.0
C1464 C 0.44336 0.9518 0.0988 0.0
C1465 C 0.41857 0.93753 0.0834 0.0
C1466 C 0.39931 0.92114 0.09653 0.0
H1467 H 0.37383 0.83914 0.09071 0.0
H1468 H 0.36826 0.86407 0.07695 0.0
H1469 H 0.40026 0.86943 0.092 0.0
H1470 H 0.43415 0.93074 0.16219 0.0
H1471 H 0.46759 0.96014 0.13974 0.0
H1472 H 0.7243 0.25047 0.14522 0.0
H1473 H 0.69634 0.22534 0.09856 0.0
H1474 H 0.70691 0.15511 0.10719 0.0
H1475 H 0.73523 0.18004 0.15344 0.0
H1476 H 0.70171 0.15879 0.04535 0.0
H1477 H 0.6248 0.17733 0.11457 0.0
H1478 H 0.65139 0.20526 0.10993 0.0
H1479 H 0.65687 0.18467 0.1313 0.0
C1480 C 0.72112 0.22978 0.13686 0.0
C1481 C 0.73147 0.21707 0.15338 0.0
C1482 C 0.70524 0.21552 0.11014 0.0
C1483 C 0.69931 0.18836 0.09976 0.0
C1484 C 0.71132 0.1761 0.11487 0.0
H1485 H 0.59972 0.04131 0.03043 0.0
H1486 H 0.63706 0.08171 0.0349 0.0
C1487 C 0.72733 0.19034 0.14144 0.0
C1488 C 0.67745 0.17174 0.07671 0.0
H1489 H 0.61176 0.14389 0.07065 0.0
C1490 C 0.68196 0.15591 0.05036 0.0
C1491 C 0.65174 0.16832 0.08313 0.0
C1492 C 0.64571 0.18464 0.11127 0.0
C1493 C 0.66136 0.13537 0.0314 0.0
C1494 C 0.63586 0.13022 0.03959 0.0
C1495 C 0.6313 0.14772 0.06434 0.0
C1496 C 0.61452 0.10456 0.02727 0.0
C1497 C 0.66726 0.11879 0.0035 0.0
C1498 C 0.58936 0.10362 0.02081 0.0
C1499 C 0.568 0.08067 0.01915 0.0
C1500 C 0.57165 0.05833 0.02329 0.0
C1501 C 0.59671 0.05841 0.02692 0.0
C1502 C 0.61803 0.08143 0.02906 0.0
H1503 H 0.68337 0.13113 0.99324 0.0
H1504 H 0.67362 0.10391 0.00958 0.0
H1505 H 0.65012 0.10853 0.9866 0.0
H1506 H 0.58615 0.12122 0.0195 0.0
H1507 H 0.54866 0.08082 0.01641 0.0
H1508 H 0.69058 0.66459 0.73185 0.0
H1509 H 0.65788 0.6273 0.74533 0.0
H1510 H 0.70325 0.64678 0.82967 0.0
H1511 H 0.73577 0.68354 0.81648 0.0
H1512 H 0.68121 0.59149 0.79976 0.0
H1513 H 0.61011 0.64186 0.81165 0.0
H1514 H 0.62389 0.6367 0.77654 0.0
H1515 H 0.64402 0.65923 0.80952 0.0
C1516 C 0.69369 0.66063 0.75305 0.0
C1517 C 0.71554 0.67719 0.77329 0.0
C1518 C 0.675 0.63944 0.76073 0.0
C1519 C 0.6781 0.63455 0.78861 0.0
C1520 C 0.70051 0.65027 0.80807 0.0
H1521 H 0.59487 0.58391 0.92534 0.0
H1522 H 0.61986 0.60502 0.88913 0.0
C1523 C 0.719 0.67139 0.80055 0.0
C1524 C 0.65755 0.61449 0.79917 0.0
H1525 H 0.60073 0.60525 0.83098 0.0
C1526 C 0.66327 0.59401 0.80596 0.0
C1527 C 0.63436 0.61815 0.80743 0.0
C1528 C 0.6276 0.6402 0.80112 0.0
C1529 C 0.64708 0.57796 0.82236 0.0
C1530 C 0.62455 0.58247 0.83188 0.0
C1531 C 0.61808 0.60196 0.8236 0.0
C1532 C 0.60904 0.56923 0.85318 0.0
C1533 C 0.65501 0.55746 0.83106 0.0
C1534 C 0.59468 0.54214 0.84484 0.0
C1535 C 0.58043 0.52998 0.86553 0.0
C1536 C 0.5803 0.5448 0.89482 0.0
C1537 C 0.59464 0.57196 0.90299 0.0
C1538 C 0.60884 0.58406 0.88232 0.0
H1539 H 0.67483 0.55894 0.82537 0.0
H1540 H 0.65429 0.5594 0.8555 0.0
H1541 H 0.64128 0.53758 0.81906 0.0
H1542 H 0.5944 0.53045 0.82233 0.0
H1543 H 0.56945 0.50903 0.85853 0.0
H1544 H 0.32486 0.61635 0.77447 0.0
H1545 H 0.33709 0.58926 0.80139 0.0
H1546 H 0.38756 0.65942 0.86556 0.0
H1547 H 0.37503 0.68649 0.83909 0.0
H1548 H 0.38395 0.58808 0.80877 0.0
H1549 H 0.35206 0.61605 0.92087 0.0
H1550 H 0.34147 0.62404 0.88875 0.0
H1551 H 0.3723 0.64444 0.90989 0.0
C1552 C 0.33838 0.62593 0.79449 0.0
C1553 C 0.349 0.6535 0.80473 0.0
C1554 C 0.34524 0.61046 0.80992 0.0
C1555 C 0.36286 0.62228 0.83582 0.0
C1556 C 0.3733 0.64982 0.8462 0.0
H1557 H 0.47068 0.58876 0.93135 0.0
H1558 H 0.44212 0.60629 0.91079 0.0
C1559 C 0.36626 0.66528 0.83095 0.0
C1560 C 0.37234 0.60605 0.85028 0.0
H1561 H 0.385 0.5969 0.91828 0.0
C1562 C 0.38368 0.58958 0.8326 0.0
C1563 C 0.37192 0.60796 0.88138 0.0
C1564 C 0.35852 0.62387 0.90123 0.0
C1565 C 0.39587 0.57613 0.84544 0.0
C1566 C 0.39661 0.57917 0.87671 0.0
C1567 C 0.38442 0.59475 0.89428 0.0
C1568 C 0.41213 0.56831 0.89173 0.0
C1569 C 0.409 0.55979 0.82577 0.0
C1570 C 0.40436 0.54116 0.88825 0.0
C1571 C 0.42057 0.53103 0.9002 0.0
C1572 C 0.44481 0.54792 0.9157 0.0
C1573 C 0.45206 0.57519 0.91983 0.0
C1574 C 0.43581 0.58527 0.90805 0.0
H1575 H 0.40888 0.56162 0.80238 0.0
H1576 H 0.42938 0.56578 0.83512 0.0
H1577 H 0.39892 0.53879 0.82522 0.0
H1578 H 0.38599 0.52784 0.87588 0.0
H1579 H 0.41418 0.50999 0.8972 0.0
H1580 H 0.3234 0.24695 0.82154 0.0
H1581 H 0.34717 0.26615 0.87134 0.0
H1582 H 0.36243 0.34386 0.86027 0.0
H1583 H 0.3379 0.32484 0.81095 0.0
H1584 H 0.39549 0.29446 0.8872 0.0
H1585 H 0.34133 0.35361 0.94335 0.0
H1586 H 0.32775 0.32761 0.90932 0.0
H1587 H 0.34679 0.36066 0.90774 0.0
C1588 C 0.33177 0.26817 0.82977 0.0
C1589 C 0.3289 0.28452 0.81239 0.0
C1590 C 0.34512 0.27904 0.85833 0.0
C1591 C 0.35582 0.30636 0.86987 0.0
C1592 C 0.35336 0.32267 0.85229 0.0
H1593 H 0.4893 0.41078 0.91453 0.0
H1594 H 0.455 0.36794 0.90595 0.0
C1595 C 0.33974 0.31184 0.82392 0.0
C1596 C 0.37213 0.31834 0.89873 0.0
H1597 H 0.38982 0.37593 0.95258 0.0
C1598 C 0.39388 0.31177 0.90233 0.0
C1599 C 0.36939 0.33983 0.91978 0.0
C1600 C 0.3448 0.34552 0.91998 0.0
C1601 C 0.41502 0.32904 0.92291 0.0
C1602 C 0.41452 0.35367 0.93887 0.0
C1603 C 0.39089 0.35762 0.93938 0.0
C1604 C 0.4385 0.37727 0.94787 0.0
C1605 C 0.43839 0.32168 0.92547 0.0
C1606 C 0.44054 0.39719 0.97389 0.0
C1607 C 0.45934 0.42217 0.97783 0.0
C1608 C 0.47703 0.42742 0.95656 0.0
C1609 C 0.47597 0.40719 0.9314 0.0
C1610 C 0.45668 0.38243 0.9269 0.0
H1611 H 0.43218 0.30089 0.92643 0.0
H1612 H 0.44882 0.32317 0.90517 0.0
H1613 H 0.45183 0.33445 0.9457 0.0
H1614 H 0.42658 0.39392 0.99017 0.0
H1615 H 0.45933 0.43773 0.99679 0.0
H1616 H 0.74729 0.36421 0.91868 0.0
H1617 H 0.74512 0.39472 0.9657 0.0
H1618 H 0.66434 0.37613 0.94037 0.0
H1619 H 0.66645 0.34656 0.89346 0.0
H1620 H 0.73464 0.43824 0.96785 0.0
H1621 H 0.66344 0.37957 0.02881 0.0
H1622 H 0.67981 0.36481 0.00022 0.0
H1623 H 0.65029 0.36897 0.99039 0.0
C1624 C 0.729 0.36646 0.92329 0.0
C1625 C 0.70706 0.35298 0.90212 0.0
C1626 C 0.72775 0.38366 0.95034 0.0
C1627 C 0.70444 0.38728 0.9569 0.0
C1628 C 0.68234 0.37301 0.93636 0.0
H1629 H 0.63941 0.48109 0.9584 0.0
H1630 H 0.67365 0.46435 0.96259 0.0
C1631 C 0.68361 0.3561 0.90933 0.0
C1632 C 0.70358 0.40896 0.98207 0.0
H1633 H 0.65856 0.42185 0.02609 0.0
C1634 C 0.7187 0.43479 0.98172 0.0
C1635 C 0.68362 0.40482 0.00129 0.0
C1636 C 0.66864 0.37797 0.00541 0.0
C1637 C 0.71128 0.45583 0.99569 0.0
C1638 C 0.68802 0.45063 0.00958 0.0
C1639 C 0.67592 0.42578 0.01468 0.0
C1640 C 0.67211 0.46697 0.0101 0.0
C1641 C 0.72682 0.48292 0.99266 0.0
C1642 C 0.65987 0.47434 0.03547 0.0
C1643 C 0.64022 0.4842 0.03302 0.0
C1644 C 0.63218 0.4859 0.00501 0.0
C1645 C 0.64538 0.47992 0.9802 0.0
C1646 C 0.66516 0.47062 0.98272 0.0
H1647 H 0.74785 0.48653 0.99477 0.0
H1648 H 0.7218 0.48437 0.97004 0.0
H1649 H 0.72298 0.49843 0.00984 0.0
H1650 H 0.66463 0.4713 0.05668 0.0
H1651 H 0.63031 0.48894 0.05242 0.0
H1652 H 0.68414 0.31611 0.12714 0.0
H1653 H 0.67043 0.33669 0.09257 0.0
H1654 H 0.67433 0.40196 0.16682 0.0
H1655 H 0.68858 0.38185 0.20134 0.0
H1656 H 0.62572 0.34717 0.09537 0.0
H1657 H 0.70962 0.43883 0.10411 0.0
H1658 H 0.71211 0.41146 0.116 0.0
H1659 H 0.70086 0.43474 0.14039 0.0
C1660 C 0.68263 0.33513 0.13599 0.0
C1661 C 0.68737 0.34735 0.16697 0.0
C1662 C 0.67475 0.34681 0.11622 0.0
C1663 C 0.67178 0.37103 0.12706 0.0
C1664 C 0.67707 0.38354 0.15788 0.0
H1665 H 0.5931 0.46506 0.09768 0.0
H1666 H 0.62258 0.44531 0.11141 0.0
C1667 C 0.68484 0.37185 0.17764 0.0
C1668 C 0.66034 0.38193 0.10701 0.0
H1669 H 0.6679 0.43903 0.08869 0.0
C1670 C 0.63513 0.36703 0.09323 0.0
C1671 C 0.67277 0.40775 0.10413 0.0
C1672 C 0.70045 0.42401 0.11669 0.0
C1673 C 0.6212 0.378 0.07874 0.0
C1674 C 0.63302 0.40447 0.0777 0.0
C1675 C 0.65883 0.41881 0.08977 0.0
C1676 C 0.61791 0.41843 0.06758 0.0
C1677 C 0.59339 0.36177 0.06651 0.0
C1678 C 0.60621 0.41044 0.03807 0.0
C1679 C 0.58942 0.42183 0.03008 0.0
C1680 C 0.58414 0.44138 0.05151 0.0
C1681 C 0.59692 0.45019 0.08061 0.0
C1682 C 0.61372 0.43888 0.08851 0.0
H1683 H 0.58596 0.34321 0.07357 0.0
H1684 H 0.58075 0.37312 0.07405 0.0
H1685 H 0.59187 0.35659 0.04165 0.0
H1686 H 0.6096 0.395 0.02144 0.0
H1687 H 0.58017 0.415 0.00735 0.0
H1688 H 0.68255 0.68358 0.19834 0.0
H1689 H 0.6467 0.66462 0.15847 0.0
H1690 H 0.69255 0.71296 0.10462 0.0
H1691 H 0.72847 0.73213 0.14412 0.0
H1692 H 0.62378 0.69684 0.12173 0.0
H1693 H 0.67 0.62844 0.06057 0.0
H1694 H 0.6765 0.64095 0.1008 0.0
H1695 H 0.68872 0.66274 0.07737 0.0
C1696 C 0.68496 0.69031 0.17814 0.0
C1697 C 0.70843 0.70904 0.17422 0.0
C1698 C 0.66446 0.67965 0.15556 0.0
C1699 C 0.6672 0.68762 0.12892 0.0
C1700 C 0.69024 0.70679 0.12519 0.0
H1701 H 0.55495 0.56205 0.99681 0.0
H1702 H 0.58735 0.60664 0.0101 0.0
C1703 C 0.71073 0.71747 0.14771 0.0
C1704 C 0.6467 0.67376 0.10407 0.0
H1705 H 0.6256 0.61694 0.04853 0.0
C1706 C 0.62425 0.67975 0.10506 0.0
C1707 C 0.64787 0.65208 0.08197 0.0
C1708 C 0.67203 0.64552 0.07983 0.0
C1709 C 0.60185 0.66285 0.08618 0.0
C1710 C 0.60198 0.63919 0.06686 0.0
C1711 C 0.6254 0.63498 0.06352 0.0
C1712 C 0.57793 0.61611 0.05587 0.0
C1713 C 0.5779 0.6697 0.08838 0.0
C1714 C 0.56137 0.60695 0.07686 0.0
C1715 C 0.54289 0.58159 0.06926 0.0
C1716 C 0.54092 0.56479 0.04067 0.0
C1717 C 0.55625 0.57454 0.01905 0.0
C1718 C 0.5746 0.60006 0.02655 0.0
H1719 H 0.58314 0.6912 0.09179 0.0
H1720 H 0.56399 0.65909 0.06798 0.0
H1721 H 0.56827 0.66453 0.10816 0.0
H1722 H 0.56404 0.61857 0.09989 0.0
H1723 H 0.53123 0.57469 0.08637 0.0
H1724 H 0.3741 0.65671 0.15855 0.0
H1725 H 0.38299 0.6316 0.11187 0.0
H1726 H 0.34084 0.66191 0.06131 0.0
H1727 H 0.3323 0.68788 0.10827 0.0
H1728 H 0.3262 0.60646 0.04302 0.0
H1729 H 0.43207 0.65574 0.04973 0.0
H1730 H 0.42256 0.64918 0.08485 0.0
H1731 H 0.4118 0.67127 0.0708 0.0
C1732 C 0.36725 0.65866 0.13761 0.0
C1733 C 0.35263 0.67448 0.13723 0.0
C1734 C 0.37231 0.64422 0.11089 0.0
C1735 C 0.36293 0.64526 0.08318 0.0
C1736 C 0.3484 0.66104 0.08252 0.0
H1737 H 0.427 0.54353 0.97069 0.0
H1738 H 0.40805 0.57689 0.97409 0.0
C1739 C 0.34343 0.67571 0.10936 0.0
C1740 C 0.36705 0.62816 0.05539 0.0
H1741 H 0.41488 0.60858 0.02548 0.0
C1742 C 0.34557 0.60726 0.03842 0.0
C1743 C 0.39224 0.62971 0.04861 0.0
C1744 C 0.41596 0.65289 0.06427 0.0
C1745 C 0.34877 0.58613 0.01749 0.0
C1746 C 0.37398 0.58578 0.01419 0.0
C1747 C 0.39542 0.60838 0.02828 0.0
C1748 C 0.37872 0.56105 0.00214 0.0
C1749 C 0.32506 0.56382 0.00037 0.0
C1750 C 0.3674 0.53987 0.01479 0.0
C1751 C 0.37784 0.52036 0.01209 0.0
C1752 C 0.40017 0.52198 0.99727 0.0
C1753 C 0.40968 0.54153 0.98188 0.0
C1754 C 0.39895 0.5608 0.98409 0.0
H1755 H 0.31051 0.5715 0.99399 0.0
H1756 H 0.3298 0.55203 0.97977 0.0
H1757 H 0.316 0.5508 0.01497 0.0
H1758 H 0.35213 0.5397 0.02931 0.0
H1759 H 0.36979 0.50529 0.02379 0.0
H1760 H 0.35695 0.31674 0.26404 0.0
H1761 H 0.38835 0.34972 0.24353 0.0
H1762 H 0.32602 0.35613 0.19379 0.0
H1763 H 0.29455 0.32372 0.21458 0.0
H1764 H 0.39498 0.34324 0.18507 0.0
H1765 H 0.37166 0.43246 0.22625 0.0
H1766 H 0.36012 0.40482 0.24237 0.0
H1767 H 0.34339 0.40451 0.20872 0.0
C1768 C 0.3499 0.32557 0.24922 0.0
C1769 C 0.32325 0.31754 0.24087 0.0
C1770 C 0.36788 0.34441 0.23753 0.0
C1771 C 0.35952 0.35561 0.21742 0.0
C1772 C 0.3329 0.34825 0.20984 0.0
H1773 H 0.42703 0.40464 0.06748 0.0
H1774 H 0.40458 0.3821 0.10395 0.0
C1775 C 0.31492 0.32953 0.22159 0.0
C1776 C 0.37846 0.37269 0.20175 0.0
H1777 H 0.39435 0.4303 0.18172 0.0
C1778 C 0.39516 0.36248 0.18475 0.0
C1779 C 0.37894 0.39792 0.20165 0.0
C1780 C 0.36274 0.41068 0.221 0.0
C1781 C 0.41135 0.37623 0.16642 0.0
C1782 C 0.41037 0.40054 0.16458 0.0
C1783 C 0.39475 0.41144 0.18282 0.0
C1784 C 0.42436 0.41426 0.14274 0.0
C1785 C 0.42911 0.36442 0.14892 0.0
C1786 C 0.44241 0.44007 0.15245 0.0
C1787 C 0.45513 0.45311 0.13162 0.0
C1788 C 0.44987 0.44056 0.10074 0.0
C1789 C 0.43164 0.41476 0.09111 0.0
C1790 C 0.41891 0.40179 0.11193 0.0
H1791 H 0.43356 0.35066 0.15969 0.0
H1792 H 0.41947 0.35313 0.12607 0.0
H1793 H 0.44758 0.37991 0.14677 0.0
H1794 H 0.44671 0.45006 0.17614 0.0
H1795 H 0.46904 0.47301 0.1397 0.0
H1796 H 0.81651 0.687 0.75023 0.0
H1797 H 0.84274 0.66282 0.72561 0.0
H1798 H 0.83373 0.68526 0.64475 0.0
H1799 H 0.80675 0.70923 0.66922 0.0
H1800 H 0.82944 0.6346 0.63126 0.0
H1801 H 0.91709 0.6924 0.71071 0.0
H1802 H 0.88961 0.67808 0.72946 0.0
H1803 H 0.88963 0.7024 0.71041 0.0
C1804 C 0.81999 0.6869 0.72717 0.0
C1805 C 0.80942 0.70035 0.71189 0.0
C1806 C 0.83533 0.67313 0.71312 0.0
C1807 C 0.84098 0.67257 0.68339 0.0
C1808 C 0.82998 0.68545 0.66776 0.0
H1809 H 0.9645 0.61944 0.60634 0.0
H1810 H 0.93834 0.64546 0.62708 0.0
C1811 C 0.81447 0.6992 0.68181 0.0
C1812 C 0.85797 0.65822 0.6687 0.0
H1813 H 0.91666 0.6521 0.67816 0.0
C1814 C 0.84857 0.6386 0.6415 0.0
C1815 C 0.88326 0.6635 0.68149 0.0
C1816 C 0.89562 0.68543 0.70945 0.0
C1817 C 0.86321 0.62378 0.62737 0.0
C1818 C 0.88795 0.62814 0.64098 0.0
C1819 C 0.89766 0.6483 0.66772 0.0
C1820 C 0.90398 0.61206 0.628 0.0
C1821 C 0.85209 0.60388 0.59763 0.0
C1822 C 0.89386 0.58446 0.62187 0.0
C1823 C 0.90882 0.56948 0.60993 0.0
C1824 C 0.93459 0.58156 0.60397 0.0
C1825 C 0.94487 0.60927 0.61065 0.0
C1826 C 0.92982 0.62425 0.62249 0.0
H1827 H 0.83763 0.6087 0.5859 0.0
H1828 H 0.86749 0.60274 0.58272 0.0
H1829 H 0.8421 0.58423 0.60151 0.0
H1830 H 0.87439 0.57438 0.62673 0.0
H1831 H 0.90025 0.54832 0.60591 0.0
H1832 H 0.34949 0.80216 0.70865 0.0
H1833 H 0.37557 0.83366 0.6826 0.0
H1834 H 0.31233 0.85994 0.67435 0.0
H1835 H 0.28575 0.82792 0.69975 0.0
H1836 H 0.33462 0.85261 0.62229 0.0
H1837 H 0.40997 0.91213 0.71713 0.0
H1838 H 0.40579 0.87801 0.70777 0.0
H1839 H 0.37964 0.88796 0.72168 0.0
C1840 C 0.34115 0.81474 0.7015 0.0
C1841 C 0.31562 0.81269 0.70646 0.0
C1842 C 0.35613 0.8328 0.6867 0.0
C1843 C 0.34603 0.84944 0.67707 0.0
C1844 C 0.3205 0.84734 0.68177 0.0
H1845 H 0.44776 0.98514 0.62428 0.0
H1846 H 0.41524 0.95603 0.648 0.0
C1847 C 0.30538 0.82908 0.69633 0.0
C1848 C 0.36207 0.86873 0.66166 0.0
H1849 H 0.4202 0.91897 0.66902 0.0
C1850 C 0.35324 0.86732 0.63255 0.0
C1851 C 0.38611 0.88814 0.67534 0.0
C1852 C 0.39582 0.89187 0.70731 0.0
C1853 C 0.3682 0.8844 0.61638 0.0
C1854 C 0.39288 0.90287 0.62949 0.0
C1855 C 0.40137 0.90465 0.65888 0.0
C1856 C 0.41048 0.92054 0.61332 0.0
C1857 C 0.35727 0.88267 0.58565 0.0
C1858 C 0.41839 0.91028 0.58578 0.0
C1859 C 0.4367 0.92696 0.57195 0.0
C1860 C 0.44781 0.95404 0.58585 0.0
C1861 C 0.43964 0.9643 0.61319 0.0
C1862 C 0.42105 0.94771 0.62673 0.0
H1863 H 0.33577 0.87404 0.58312 0.0
H1864 H 0.3635 0.9023 0.58111 0.0
H1865 H 0.36421 0.86972 0.56844 0.0
H1866 H 0.41102 0.88932 0.57539 0.0
H1867 H 0.44278 0.91856 0.55091 0.0
H1868 H 0.194 0.32309 0.63777 0.0
H1869 H 0.16545 0.34402 0.62407 0.0
H1870 H 0.21899 0.41976 0.6745 0.0
H1871 H 0.24763 0.39901 0.68835 0.0
H1872 H 0.14054 0.37283 0.65873 0.0
H1873 H 0.20818 0.43459 0.59514 0.0
H1874 H 0.21403 0.40835 0.60609 0.0
H1875 H 0.22109 0.43971 0.63278 0.0
C1876 C 0.19973 0.3442 0.6461 0.0
C1877 C 0.22333 0.35928 0.66411 0.0
C1878 C 0.18337 0.35619 0.6381 0.0
C1879 C 0.19015 0.3836 0.64773 0.0
C1880 C 0.21353 0.39869 0.66602 0.0
H1881 H 0.11311 0.49042 0.62474 0.0
H1882 H 0.14241 0.47074 0.63983 0.0
C1883 C 0.22994 0.38673 0.67397 0.0
C1884 C 0.17247 0.39621 0.63926 0.0
H1885 H 0.16931 0.44246 0.60471 0.0
C1886 C 0.14684 0.38797 0.64679 0.0
C1887 C 0.18057 0.41609 0.62375 0.0
C1888 C 0.20738 0.42507 0.61369 0.0
C1889 C 0.12933 0.3992 0.63967 0.0
C1890 C 0.1374 0.41899 0.62408 0.0
C1891 C 0.16306 0.42735 0.61669 0.0
C1892 C 0.11943 0.43096 0.61489 0.0
C1893 C 0.10244 0.39011 0.6495 0.0
C1894 C 0.09682 0.41533 0.5955 0.0
C1895 C 0.07996 0.42652 0.5869 0.0
C1896 C 0.08527 0.45373 0.59733 0.0
C1897 C 0.1081 0.46939 0.61654 0.0
C1898 C 0.12501 0.45817 0.62506 0.0
H1899 H 0.10153 0.38049 0.66799 0.0
H1900 H 0.09576 0.4068 0.65708 0.0
H1901 H 0.08883 0.37554 0.63028 0.0
H1902 H 0.09222 0.39439 0.58686 0.0
H1903 H 0.06253 0.4137 0.57233 0.0
H1904 H 0.73829 0.18011 0.67159 0.0
H1905 H 0.71653 0.15611 0.62194 0.0
H1906 H 0.69955 0.22332 0.61354 0.0
H1907 H 0.72062 0.24737 0.66431 0.0
H1908 H 0.65814 0.18294 0.60108 0.0
H1909 H 0.72908 0.15123 0.53733 0.0
H1910 H 0.72992 0.14335 0.57241 0.0
H1911 H 0.73884 0.1773 0.57173 0.0
C1912 C 0.73028 0.19003 0.65913 0.0
C1913 C 0.73087 0.21555 0.6721 0.0
C1914 C 0.71821 0.17638 0.63035 0.0
C1915 C 0.70694 0.18807 0.61351 0.0
C1916 C 0.70837 0.21398 0.62594 0.0
H1917 H 0.5759 0.06878 0.48962 0.0
H1918 H 0.61443 0.10944 0.49828 0.0
C1919 C 0.72022 0.22762 0.65504 0.0
C1920 C 0.68995 0.1714 0.58564 0.0
H1921 H 0.68382 0.11706 0.52926 0.0
C1922 C 0.66398 0.16928 0.58448 0.0
C1923 C 0.69752 0.15382 0.56353 0.0
C1924 C 0.72548 0.15685 0.56121 0.0
C1925 C 0.6449 0.14786 0.5647 0.0
C1926 C 0.65209 0.12817 0.54578 0.0
C1927 C 0.67836 0.13204 0.54417 0.0
C1928 C 0.63273 0.10139 0.53423 0.0
C1929 C 0.61686 0.14482 0.56665 0.0
C1930 C 0.63098 0.08313 0.55076 0.0
C1931 C 0.60913 0.06023 0.54601 0.0
C1932 C 0.58902 0.05505 0.52427 0.0
C1933 C 0.59158 0.07226 0.50607 0.0
C1934 C 0.61342 0.09543 0.51105 0.0
H1935 H 0.6146 0.16212 0.58235 0.0
H1936 H 0.60766 0.14218 0.54413 0.0
H1937 H 0.60629 0.12705 0.5743 0.0
H1938 H 0.6456 0.08758 0.56895 0.0
H1939 H 0.60731 0.04726 0.56041 0.0
H1940 H 0.83148 0.28426 0.3258 0.0
H1941 H 0.85362 0.31161 0.3746 0.0
H1942 H 0.78906 0.33656 0.39414 0.0
H1943 H 0.76671 0.3093 0.34483 0.0
H1944 H 0.83411 0.37725 0.39971 0.0
H1945 H 0.84894 0.31093 0.46154 0.0
H1946 H 0.85736 0.3025 0.42404 0.0
H1947 H 0.82444 0.29943 0.43016 0.0
C1948 C 0.82173 0.29518 0.3406 0.0
C1949 C 0.79747 0.29485 0.33127 0.0
C1950 C 0.83427 0.31053 0.36876 0.0
C1951 C 0.82279 0.32576 0.38828 0.0
C1952 C 0.79809 0.32467 0.37956 0.0
H1953 H 0.94156 0.46585 0.5062 0.0
H1954 H 0.8974 0.43266 0.49684 0.0
C1955 C 0.78542 0.30918 0.35134 0.0
C1956 C 0.83868 0.34585 0.41507 0.0
H1957 H 0.88467 0.35413 0.46962 0.0
C1958 C 0.84451 0.37235 0.41585 0.0
C1959 C 0.85195 0.33941 0.43632 0.0
C1960 C 0.84509 0.31148 0.43815 0.0
C1961 C 0.86557 0.39228 0.4346 0.0
C1962 C 0.88084 0.38541 0.45328 0.0
C1963 C 0.87306 0.3593 0.45506 0.0
C1964 C 0.90758 0.40338 0.465 0.0
C1965 C 0.87298 0.42007 0.43187 0.0
C1966 C 0.92797 0.39736 0.45138 0.0
C1967 C 0.95301 0.41604 0.45694 0.0
C1968 C 0.95814 0.441 0.47643 0.0
C1969 C 0.9381 0.44652 0.49159 0.0
C1970 C 0.91289 0.42772 0.48602 0.0
H1971 H 0.86 0.42164 0.41465 0.0
H1972 H 0.872 0.43315 0.45372 0.0
H1973 H 0.89316 0.42737 0.42588 0.0
H1974 H 0.92425 0.37873 0.43498 0.0
H1975 H 0.96818 0.41134 0.445 0.0
H1976 H 0.71612 0.79788 0.24894 0.0
H1977 H 0.69095 0.82281 0.27457 0.0
H1978 H 0.69569 0.79511 0.35259 0.0
H1979 H 0.72091 0.76953 0.32668 0.0
H1980 H 0.64665 0.79509 0.34052 0.0
H1981 H 0.71935 0.89161 0.33876 0.0
H1982 H 0.70946 0.86933 0.30205 0.0
H1983 H 0.72642 0.86191 0.32983 0.0
C1984 C 0.71191 0.79691 0.27156 0.0
C1985 C 0.72091 0.78161 0.28565 0.0
C1986 C 0.69753 0.81147 0.28636 0.0
C1987 C 0.69173 0.81155 0.31594 0.0
C1988 C 0.69998 0.7957 0.32989 0.0
H1989 H 0.63807 0.93107 0.42639 0.0
H1990 H 0.66228 0.90308 0.40583 0.0
C1991 C 0.71445 0.78101 0.31501 0.0
C1992 C 0.67712 0.82814 0.33195 0.0
H1993 H 0.6776 0.89112 0.3513 0.0
C1994 C 0.65354 0.81611 0.34301 0.0
C1995 C 0.68603 0.85576 0.33578 0.0
C1996 C 0.71182 0.87048 0.32627 0.0
C1997 C 0.63848 0.83062 0.35683 0.0
C1998 C 0.64686 0.85804 0.35945 0.0
C1999 C 0.67079 0.87015 0.34914 0.0
C2000 C 0.63132 0.87458 0.37287 0.0
C2001 C 0.6139 0.81637 0.36896 0.0
C2002 C 0.60563 0.86832 0.36139 0.0
C2003 C 0.59153 0.88428 0.37337 0.0
C2004 C 0.60266 0.90724 0.39715 0.0
C2005 C 0.62843 0.91345 0.40855 0.0
C2006 C 0.6425 0.89747 0.39656 0.0
H2007 H 0.61423 0.79804 0.37356 0.0
H2008 H 0.61069 0.82902 0.38994 0.0
H2009 H 0.59724 0.81081 0.35206 0.0
H2010 H 0.5965 0.85123 0.34274 0.0
H2011 H 0.57178 0.87849 0.36393 0.0
H2012 H 0.26094 0.70179 0.33251 0.0
H2013 H 0.23641 0.67124 0.36073 0.0
H2014 H 0.165 0.67073 0.32289 0.0
H2015 H 0.18924 0.70149 0.29492 0.0
H2016 H 0.16857 0.67752 0.38575 0.0
H2017 H 0.19331 0.59257 0.32366 0.0
H2018 H 0.22015 0.6227 0.33957 0.0
H2019 H 0.19828 0.62104 0.30976 0.0
C2020 C 0.24001 0.69513 0.33012 0.0
C2021 C 0.227 0.70391 0.31134 0.0
C2022 C 0.22607 0.67765 0.3462 0.0
C2023 C 0.19897 0.66862 0.34357 0.0
C2024 C 0.18595 0.67752 0.32511 0.0
H2025 H 0.08049 0.53616 0.37458 0.0
H2026 H 0.11297 0.56962 0.35591 0.0
C2027 C 0.19983 0.69501 0.30909 0.0
C2028 C 0.18392 0.64979 0.35991 0.0
H2029 H 0.1665 0.58605 0.36253 0.0
C2030 C 0.16821 0.65756 0.38093 0.0
C2031 C 0.18357 0.62383 0.35331 0.0
C2032 C 0.19956 0.61435 0.3302 0.0
C2033 C 0.1515 0.63975 0.39503 0.0
C2034 C 0.15091 0.61368 0.38815 0.0
C2035 C 0.16716 0.60613 0.36775 0.0
C2036 C 0.132 0.59334 0.3999 0.0
C2037 C 0.13384 0.64865 0.41613 0.0
C2038 C 0.13221 0.59557 0.43078 0.0
C2039 C 0.11348 0.57663 0.44154 0.0
C2040 C 0.09457 0.55505 0.42149 0.0
C2041 C 0.09481 0.5526 0.39054 0.0
C2042 C 0.11337 0.57164 0.37985 0.0
H2043 H 0.13294 0.66757 0.41411 0.0
H2044 H 0.11392 0.63362 0.41175 0.0
H2045 H 0.14118 0.65149 0.43958 0.0
H2046 H 0.1468 0.61194 0.44651 0.0
H2047 H 0.11385 0.57886 0.46548 0.0
H2048 H 0.34911 0.15679 0.32193 0.0
H2049 H 0.36948 0.12748 0.33267 0.0
H2050 H 0.40868 0.18548 0.41459 0.0
H2051 H 0.3873 0.21424 0.40497 0.0
H2052 H 0.41906 0.13281 0.33833 0.0
H2053 H 0.37892 0.12194 0.44573 0.0
H2054 H 0.36702 0.13669 0.42123 0.0
H2055 H 0.39598 0.15571 0.44648 0.0
C2056 C 0.36165 0.16318 0.34257 0.0
C2057 C 0.36628 0.18796 0.36266 0.0
C2058 C 0.3735 0.14642 0.34854 0.0
C2059 C 0.3903 0.15395 0.37476 0.0
C2060 C 0.39532 0.17882 0.39459 0.0
H2061 H 0.49406 0.09322 0.44578 0.0
H2062 H 0.46991 0.11907 0.43428 0.0
C2063 C 0.38333 0.19549 0.38877 0.0
C2064 C 0.40314 0.13616 0.38089 0.0
H2065 H 0.41397 0.10715 0.43403 0.0
C2066 C 0.41771 0.12701 0.35915 0.0
C2067 C 0.40139 0.12842 0.40802 0.0
C2068 C 0.38476 0.13597 0.43155 0.0
C2069 C 0.43109 0.11107 0.36412 0.0
C2070 C 0.42981 0.1039 0.3915 0.0
C2071 C 0.41505 0.11276 0.41311 0.0
C2072 C 0.44413 0.08772 0.39844 0.0
C2073 C 0.44708 0.10255 0.34038 0.0
C2074 C 0.43748 0.0613 0.38235 0.0
C2075 C 0.45105 0.04622 0.38915 0.0
C2076 C 0.47163 0.05724 0.41221 0.0
C2077 C 0.4781 0.08376 0.42827 0.0
C2078 C 0.46441 0.09872 0.42159 0.0
H2079 H 0.44994 0.11362 0.32303 0.0
H2080 H 0.46633 0.10528 0.35064 0.0
H2081 H 0.43711 0.08133 0.32914 0.0
H2082 H 0.42163 0.05226 0.36469 0.0
H2083 H 0.44515 0.02582 0.37657 0.0
H2084 H 0.7038 0.82691 0.62261 0.0
H2085 H 0.68391 0.8565 0.61124 0.0
H2086 H 0.62825 0.83624 0.67432 0.0
H2087 H 0.64829 0.80702 0.68625 0.0
H2088 H 0.63204 0.84377 0.58871 0.0
H2089 H 0.65697 0.91722 0.69962 0.0
H2090 H 0.67264 0.89373 0.68839 0.0
H2091 H 0.64087 0.88373 0.7009 0.0
C2092 C 0.68752 0.82898 0.63436 0.0
C2093 C 0.67774 0.81459 0.65545 0.0
C2094 C 0.67607 0.8458 0.62769 0.0
C2095 C 0.65478 0.8489 0.64219 0.0
C2096 C 0.64491 0.83454 0.66318 0.0
H2097 H 0.55604 0.93761 0.63041 0.0
H2098 H 0.57786 0.91039 0.64398 0.0
C2099 C 0.65624 0.8176 0.66974 0.0
C2100 C 0.64245 0.86654 0.6347 0.0
H2101 H 0.62835 0.92138 0.66461 0.0
C2102 C 0.63135 0.86082 0.60526 0.0
C2103 C 0.64142 0.88874 0.65632 0.0
C2104 C 0.65379 0.89644 0.68803 0.0
C2105 C 0.61887 0.87634 0.59699 0.0
C2106 C 0.61795 0.89864 0.61857 0.0
C2107 C 0.62905 0.90435 0.64803 0.0
C2108 C 0.60542 0.91614 0.61102 0.0
C2109 C 0.60617 0.86825 0.56537 0.0
C2110 C 0.61401 0.92906 0.58849 0.0
C2111 C 0.6016 0.94471 0.58071 0.0
C2112 C 0.58043 0.94804 0.59548 0.0
C2113 C 0.5724 0.93574 0.61872 0.0
C2114 C 0.58479 0.92002 0.62641 0.0
H2115 H 0.60232 0.84721 0.55436 0.0
H2116 H 0.5876 0.87154 0.56501 0.0
H2117 H 0.61923 0.88019 0.5519 0.0
H2118 H 0.63032 0.92701 0.57682 0.0
H2119 H 0.60867 0.95425 0.56312 0.0
H2120 H 0.75178 0.19224 0.30137 0.0
H2121 H 0.72577 0.15962 0.32603 0.0
H2122 H 0.65636 0.16706 0.29409 0.0
H2123 H 0.68231 0.20017 0.26949 0.0
H2124 H 0.65948 0.16804 0.35521 0.0
H2125 H 0.67948 0.08362 0.28402 0.0
H2126 H 0.70806 0.11169 0.30052 0.0
H2127 H 0.68603 0.114 0.27365 0.0
C2128 C 0.73097 0.18695 0.29944 0.0
C2129 C 0.71908 0.19871 0.28329 0.0
C2130 C 0.71615 0.16819 0.31346 0.0
C2131 C 0.68917 0.16067 0.31141 0.0
C2132 C 0.67719 0.17256 0.2957 0.0
H2133 H 0.57972 0.02591 0.35706 0.0
H2134 H 0.60599 0.05828 0.33206 0.0
C2135 C 0.69203 0.19142 0.28166 0.0
C2136 C 0.67359 0.14071 0.32621 0.0
H2137 H 0.65891 0.07702 0.32795 0.0
C2138 C 0.65922 0.1481 0.34921 0.0
C2139 C 0.6732 0.1147 0.31806 0.0
C2140 C 0.68732 0.10539 0.29253 0.0
C2141 C 0.6447 0.13017 0.36468 0.0
C2142 C 0.64499 0.10441 0.35717 0.0
C2143 C 0.65904 0.09692 0.33385 0.0
C2144 C 0.62998 0.08457 0.37246 0.0
C2145 C 0.62883 0.13882 0.38853 0.0
C2146 C 0.63524 0.08843 0.40334 0.0
C2147 C 0.62023 0.06998 0.41774 0.0
C2148 C 0.59988 0.04734 0.40137 0.0
C2149 C 0.59524 0.04318 0.37028 0.0
C2150 C 0.6102 0.06163 0.35596 0.0
H2151 H 0.62579 0.15682 0.38651 0.0
H2152 H 0.60965 0.12303 0.38728 0.0
H2153 H 0.63914 0.14327 0.41097 0.0
H2154 H 0.6508 0.10579 0.41631 0.0
H2155 H 0.62429 0.07366 0.44171 0.0
H2156 H 0.79405 0.61671 0.35238 0.0
H2157 H 0.82263 0.59731 0.36935 0.0
H2158 H 0.87659 0.62505 0.30743 0.0
H2159 H 0.84886 0.64575 0.29147 0.0
H2160 H 0.8392 0.55952 0.34075 0.0
H2161 H 0.92484 0.65114 0.38262 0.0
H2162 H 0.89354 0.65138 0.37247 0.0
H2163 H 0.91427 0.64544 0.34397 0.0
C2164 C 0.81219 0.61916 0.34266 0.0
C2165 C 0.81905 0.63315 0.32061 0.0
C2166 C 0.82848 0.60778 0.35226 0.0
C2167 C 0.85215 0.61003 0.34018 0.0
C2168 C 0.85883 0.62351 0.31776 0.0
H2169 H 0.97411 0.55005 0.36513 0.0
H2170 H 0.94533 0.56904 0.34736 0.0
C2171 C 0.84264 0.63504 0.30827 0.0
C2172 C 0.86945 0.59783 0.35061 0.0
H2173 H 0.93121 0.61104 0.37941 0.0
C2174 C 0.85927 0.57087 0.34935 0.0
C2175 C 0.89574 0.61249 0.36192 0.0
C2176 C 0.9077 0.64175 0.36564 0.0
C2177 C 0.87462 0.55819 0.3585 0.0
C2178 C 0.90091 0.57282 0.36958 0.0
C2179 C 0.91112 0.59974 0.37082 0.0
C2180 C 0.91809 0.56063 0.38015 0.0
C2181 C 0.86266 0.52907 0.35562 0.0
C2182 C 0.91258 0.54966 0.40469 0.0
C2183 C 0.92902 0.53871 0.41491 0.0
C2184 C 0.95144 0.53844 0.40086 0.0
C2185 C 0.95688 0.54947 0.37626 0.0
C2186 C 0.9405 0.56055 0.36618 0.0
H2187 H 0.84463 0.51955 0.34 0.0
H2188 H 0.87644 0.51922 0.34757 0.0
H2189 H 0.85769 0.5259 0.37795 0.0
H2190 H 0.89568 0.54981 0.41622 0.0
H2191 H 0.92403 0.53031 0.43376 0.0
H2192 H 0.26878 0.81361 0.36615 0.0
H2193 H 0.29086 0.84409 0.41427 0.0
H2194 H 0.36128 0.83088 0.39218 0.0
H2195 H 0.33956 0.80043 0.34449 0.0
H2196 H 0.35002 0.83516 0.45541 0.0
H2197 H 0.3444 0.91677 0.41068 0.0
H2198 H 0.31536 0.88983 0.41247 0.0
H2199 H 0.3375 0.88455 0.38573 0.0
C2200 C 0.28889 0.81694 0.37175 0.0
C2201 C 0.30259 0.80496 0.35129 0.0
C2202 C 0.30139 0.83428 0.39926 0.0
C2203 C 0.32767 0.83976 0.4066 0.0
C2204 C 0.34091 0.82675 0.38693 0.0
H2205 H 0.47214 0.91529 0.44912 0.0
H2206 H 0.42746 0.88615 0.44868 0.0
C2207 C 0.32853 0.80954 0.35953 0.0
C2208 C 0.34288 0.86137 0.43245 0.0
H2209 H 0.37915 0.92652 0.44578 0.0
C2210 C 0.35578 0.85537 0.4542 0.0
C2211 C 0.34991 0.88777 0.43131 0.0
C2212 C 0.33616 0.89534 0.40887 0.0
C2213 C 0.3778 0.87458 0.47205 0.0
C2214 C 0.38725 0.89996 0.46731 0.0
C2215 C 0.37207 0.90686 0.44897 0.0
C2216 C 0.41496 0.91679 0.47406 0.0
C2217 C 0.392 0.86702 0.49396 0.0
C2218 C 0.42277 0.94373 0.48827 0.0
C2219 C 0.44831 0.96043 0.48821 0.0
C2220 C 0.46624 0.95037 0.47388 0.0
C2221 C 0.45863 0.92338 0.46048 0.0
C2222 C 0.43323 0.9067 0.46069 0.0
H2223 H 0.37815 0.85247 0.50418 0.0
H2224 H 0.40494 0.85767 0.4819 0.0
H2225 H 0.40388 0.88443 0.51207 0.0
H2226 H 0.40885 0.95196 0.49815 0.0
H2227 H 0.45382 0.98131 0.49836 0.0
H2228 H 0.19666 0.27906 0.27584 0.0
H2229 H 0.17225 0.30541 0.30018 0.0
H2230 H 0.23505 0.34881 0.37006 0.0
H2231 H 0.25995 0.32239 0.34555 0.0
H2232 H 0.15491 0.31106 0.35651 0.0
H2233 H 0.22103 0.40799 0.34522 0.0
H2234 H 0.22353 0.37744 0.32462 0.0
H2235 H 0.23573 0.39109 0.36353 0.0
C2236 C 0.2055 0.29418 0.29639 0.0
C2237 C 0.23051 0.29843 0.30857 0.0
C2238 C 0.19135 0.30933 0.31036 0.0
C2239 C 0.20171 0.32947 0.3369 0.0
C2240 C 0.22664 0.33377 0.34934 0.0
H2241 H 0.13703 0.44222 0.44225 0.0
H2242 H 0.16429 0.41693 0.42391 0.0
C2243 C 0.24086 0.31848 0.33536 0.0
C2244 C 0.18599 0.34532 0.35145 0.0
H2245 H 0.18446 0.40751 0.37128 0.0
C2246 C 0.16146 0.33217 0.35974 0.0
C2247 C 0.19433 0.37295 0.35593 0.0
C2248 C 0.21998 0.38827 0.34668 0.0
C2249 C 0.14526 0.34566 0.37233 0.0
C2250 C 0.15331 0.37322 0.37619 0.0
C2251 C 0.17804 0.38646 0.36836 0.0
C2252 C 0.13625 0.3885 0.38779 0.0
C2253 C 0.11981 0.33019 0.38192 0.0
C2254 C 0.11124 0.38138 0.37369 0.0
C2255 C 0.09538 0.39568 0.38439 0.0
C2256 C 0.10405 0.41786 0.40942 0.0
C2257 C 0.12924 0.42509 0.42334 0.0
C2258 C 0.14507 0.41071 0.41264 0.0
H2259 H 0.12021 0.31189 0.38653 0.0
H2260 H 0.11485 0.34199 0.40233 0.0
H2261 H 0.10424 0.32442 0.36357 0.0
H2262 H 0.10396 0.3648 0.35409 0.0
H2263 H 0.07617 0.38915 0.37302 0.0
H2264 H 0.29683 0.17185 0.69313 0.0
H2265 H 0.3252 0.14949 0.67053 0.0
H2266 H 0.3811 0.22325 0.66354 0.0
H2267 H 0.35272 0.24605 0.68666 0.0
H2268 H 0.34418 0.14407 0.61608 0.0
H2269 H 0.42588 0.19562 0.70571 0.0
H2270 H 0.39433 0.19763 0.71023 0.0
H2271 H 0.41628 0.21691 0.68897 0.0
C2272 C 0.31511 0.18351 0.68681 0.0
C2273 C 0.32233 0.21097 0.69196 0.0
C2274 C 0.33141 0.17055 0.67376 0.0
C2275 C 0.35564 0.18452 0.66556 0.0
C2276 C 0.3628 0.21191 0.67012 0.0
H2277 H 0.44649 0.1035 0.55183 0.0
H2278 H 0.42069 0.13024 0.57099 0.0
C2279 C 0.3464 0.22496 0.68317 0.0
C2280 C 0.37302 0.17015 0.65227 0.0
H2281 H 0.43224 0.16568 0.66356 0.0
C2282 C 0.36349 0.14895 0.62642 0.0
C2283 C 0.39817 0.17603 0.66583 0.0
C2284 C 0.40928 0.19761 0.69436 0.0
C2285 C 0.37819 0.13367 0.61388 0.0
C2286 C 0.4035 0.13979 0.62717 0.0
C2287 C 0.41302 0.16097 0.65305 0.0
C2288 C 0.4199 0.12384 0.61532 0.0
C2289 C 0.36605 0.1105 0.58702 0.0
C2290 C 0.42889 0.11165 0.63381 0.0
C2291 C 0.44373 0.09625 0.62287 0.0
C2292 C 0.45031 0.09264 0.59305 0.0
C2293 C 0.44159 0.10525 0.5747 0.0
C2294 C 0.42672 0.12065 0.58569 0.0
H2295 H 0.34463 0.10436 0.58436 0.0
H2296 H 0.37352 0.11603 0.56645 0.0
H2297 H 0.37096 0.09342 0.58883 0.0
H2298 H 0.42402 0.11364 0.65673 0.0
H2299 H 0.44955 0.0867 0.63777 0.0
H2300 H 0.7894 0.33704 0.73546 0.0
H2301 H 0.81387 0.36884 0.70841 0.0
H2302 H 0.86456 0.32565 0.68444 0.0
H2303 H 0.83964 0.29336 0.7102 0.0
H2304 H 0.86256 0.40139 0.71438 0.0
H2305 H 0.8427 0.32934 0.60373 0.0
H2306 H 0.82602 0.3215 0.63551 0.0
H2307 H 0.85744 0.31928 0.63068 0.0
C2308 C 0.80581 0.33443 0.72445 0.0
C2309 C 0.81248 0.31263 0.72455 0.0
C2310 C 0.81971 0.35253 0.70898 0.0
C2311 C 0.84055 0.34914 0.69369 0.0
C2312 C 0.84796 0.32808 0.69513 0.0
H2313 H 0.96937 0.46217 0.64195 0.0
H2314 H 0.93737 0.43461 0.66769 0.0
C2315 C 0.83384 0.30978 0.71006 0.0
C2316 C 0.8549 0.3677 0.6765 0.0
H2317 H 0.87907 0.36983 0.60918 0.0
C2318 C 0.86589 0.39458 0.69123 0.0
C2319 C 0.85861 0.3589 0.64606 0.0
C2320 C 0.84529 0.33072 0.62801 0.0
C2321 C 0.88164 0.41273 0.67678 0.0
C2322 C 0.88725 0.40352 0.64721 0.0
C2323 C 0.87516 0.37684 0.63202 0.0
C2324 C 0.90635 0.42087 0.63196 0.0
C2325 C 0.89197 0.44151 0.69336 0.0
C2326 C 0.89988 0.42145 0.6028 0.0
C2327 C 0.91839 0.43655 0.58769 0.0
C2328 C 0.94355 0.45154 0.60167 0.0
C2329 C 0.95 0.451 0.63083 0.0
C2330 C 0.93165 0.4355 0.64567 0.0
H2331 H 0.87878 0.44613 0.70996 0.0
H2332 H 0.91096 0.44647 0.70588 0.0
H2333 H 0.89458 0.4542 0.67776 0.0
H2334 H 0.88053 0.41014 0.59169 0.0
H2335 H 0.91292 0.43671 0.56522 0.0
H2336 H 0.20072 0.71903 0.66502 0.0
H2337 H 0.17796 0.68719 0.61854 0.0
H2338 H 0.24717 0.67122 0.59697 0.0
H2339 H 0.27019 0.70292 0.64405 0.0
H2340 H 0.18552 0.67807 0.55591 0.0
H2341 H 0.19525 0.60101 0.60636 0.0
H2342 H 0.20326 0.63439 0.62858 0.0
H2343 H 0.2241 0.62659 0.6013 0.0
C2344 C 0.21129 0.70906 0.65028 0.0
C2345 C 0.23709 0.71305 0.65856 0.0
C2346 C 0.1983 0.69102 0.62355 0.0
C2347 C 0.2108 0.67661 0.60457 0.0
C2348 C 0.23712 0.68194 0.61156 0.0
H2349 H 0.09363 0.52658 0.51023 0.0
H2350 H 0.1372 0.5603 0.51506 0.0
C2351 C 0.25021 0.70006 0.63844 0.0
C2352 C 0.19486 0.65381 0.58016 0.0
H2353 H 0.16215 0.58797 0.56833 0.0
C2354 C 0.18091 0.6582 0.55793 0.0
C2355 C 0.18916 0.62787 0.58253 0.0
C2356 C 0.20359 0.62197 0.60597 0.0
C2357 C 0.15965 0.6377 0.54009 0.0
C2358 C 0.15203 0.61242 0.5451 0.0
C2359 C 0.16788 0.60744 0.56472 0.0
C2360 C 0.12547 0.5928 0.53579 0.0
C2361 C 0.14463 0.64373 0.51746 0.0
C2362 C 0.10446 0.59991 0.54562 0.0
C2363 C 0.07982 0.58079 0.54304 0.0
C2364 C 0.07571 0.55425 0.5304 0.0
C2365 C 0.09641 0.54708 0.51958 0.0
C2366 C 0.12119 0.56626 0.52229 0.0
H2367 H 0.15794 0.65806 0.50654 0.0
H2368 H 0.13299 0.62578 0.49989 0.0
H2369 H 0.1314 0.65289 0.52913 0.0
H2370 H 0.10738 0.62009 0.55707 0.0
H2371 H 0.06413 0.58662 0.55192 0.0
loop_
_geom_bond_atom_site_label_1
_geom_bond_atom_site_label_2
_geom_bond_distance
_geom_bond_site_symmetry_2
_ccdc_geom_bond_type
Eu0 C9 2.828 . S
Eu0 O11 2.392 . S
Eu0 O13 2.418 . S
Eu0 O18 2.373 . S
Eu0 O21 2.488 . S
Eu0 O22 2.471 . S
Eu0 O23 2.349 . S
Eu1 O10 2.373 . S
Eu1 O14 2.488 . S
Eu1 O15 2.471 . S
Eu1 O16 2.349 . S
Eu1 O19 2.392 . S
Eu1 O20 2.418 . S
Eu1 C30 2.828 . S
C2 O20 1.244 . S
C2 O23 1.265 . S
C3 C4 1.379 . S
C3 C7 1.373 . S
C3 C9 1.505 . S
C4 C3 1.379 . S
C4 C6 1.369 . S
C4 H32 0.930 . S
C5 C7 1.383 . S
C5 C8 1.382 . S
C5 H33 0.930 . S
C6 C4 1.369 . S
C6 C8 1.392 . S
C6 H34 0.930 . S
C7 C3 1.373 . S
C7 C5 1.383 . S
C7 H35 0.931 . S
C8 C5 1.382 . S
C8 C6 1.392 . S
C9 Eu0 2.828 . S
C9 C3 1.505 . S
C9 O21 1.249 . S
C9 O22 1.244 . S
O10 Eu1 2.373 . S
O10 C12 1.258 . S
O11 Eu0 2.392 . S
O11 C12 1.242 . S
C12 O10 1.258 . S
C12 O11 1.242 . S
O13 Eu0 2.418 . S
O13 C17 1.244 . S
O14 Eu1 2.488 . S
O14 C30 1.249 . S
O15 Eu1 2.471 . S
O15 C30 1.244 . S
O16 Eu1 2.349 . S
O16 C17 1.265 . S
C17 O13 1.244 . S
C17 O16 1.265 . S
O18 Eu0 2.373 . S
O18 C31 1.258 . S
O19 Eu1 2.392 . S
O19 C31 1.242 . S
O20 Eu1 2.418 . S
O20 C2 1.244 . S
O21 Eu0 2.488 . S
O21 C9 1.249 . S
O22 Eu0 2.471 . S
O22 C9 1.244 . S
O23 Eu0 2.349 . S
O23 C2 1.265 . S
C24 C25 1.379 . S
C24 C28 1.373 . S
C24 C30 1.505 . S
C25 C24 1.379 . S
C25 C27 1.369 . S
C25 H36 0.930 . S
C26 C28 1.383 . S
C26 C29 1.382 . S
C26 H37 0.930 . S
C27 C25 1.369 . S
C27 C29 1.392 . S
C27 H38 0.930 . S
C28 C24 1.373 . S
C28 C26 1.383 . S
C28 H39 0.931 . S
C29 C26 1.382 . S
C29 C27 1.392 . S
C30 Eu1 2.828 . S
C30 O14 1.249 . S
C30 O15 1.244 . S
C30 C24 1.505 . S
C31 O18 1.258 . S
C31 O19 1.242 . S
H32 C4 0.930 . S
H33 C5 0.930 . S
H34 C6 0.930 . S
H35 C7 0.931 . S
H36 C25 0.930 . S
H37 C26 0.930 . S
H38 C27 0.930 . S
H39 C28 0.931 . S
Eu40 C49 2.828 . S
Eu40 O51 2.392 . S
Eu40 O53 2.418 . S
Eu40 O58 2.373 . S
Eu40 O61 2.488 . S
Eu40 O62 2.471 . S
Eu40 O63 2.349 . S
Eu41 O50 2.373 . S
Eu41 O54 2.488 . S
Eu41 O55 2.471 . S
Eu41 O56 2.349 . S
Eu41 O59 2.392 . S
Eu41 O60 2.418 . S
Eu41 C70 2.828 . S
C42 O60 1.244 . S
C42 O63 1.265 . S
C43 C44 1.379 . S
C43 C47 1.373 . S
C43 C49 1.505 . S
C44 C43 1.379 . S
C44 C46 1.369 . S
C44 H72 0.930 . S
C45 C47 1.383 . S
C45 C48 1.382 . S
C45 H73 0.930 . S
C46 C44 1.369 . S
C46 C48 1.392 . S
C46 H74 0.930 . S
C47 C43 1.373 . S
C47 C45 1.383 . S
C47 H75 0.931 . S
C48 C45 1.382 . S
C48 C46 1.392 . S
C49 Eu40 2.828 . S
C49 C43 1.505 . S
C49 O61 1.249 . S
C49 O62 1.244 . S
O50 Eu41 2.373 . S
O50 C52 1.258 . S
O51 Eu40 2.392 . S
O51 C52 1.242 . S
C52 O50 1.258 . S
C52 O51 1.242 . S
O53 Eu40 2.418 . S
O53 C57 1.244 . S
O54 Eu41 2.488 . S
O54 C70 1.249 . S
O55 Eu41 2.471 . S
O55 C70 1.244 . S
O56 Eu41 2.349 . S
O56 C57 1.265 . S
C57 O53 1.244 . S
C57 O56 1.265 . S
O58 Eu40 2.373 . S
O58 C71 1.258 . S
O59 Eu41 2.392 . S
O59 C71 1.242 . S
O60 Eu41 2.418 . S
O60 C42 1.244 . S
O61 Eu40 2.488 . S
O61 C49 1.249 . S
O62 Eu40 2.471 . S
O62 C49 1.244 . S
O63 Eu40 2.349 . S
O63 C42 1.265 . S
C64 C65 1.379 . S
C64 C68 1.373 . S
C64 C70 1.505 . S
C65 C64 1.379 . S
C65 C67 1.369 . S
C65 H76 0.930 . S
C66 C68 1.383 . S
C66 C69 1.382 . S
C66 H77 0.930 . S
C67 C65 1.369 . S
C67 C69 1.392 . S
C67 H78 0.930 . S
C68 C64 1.373 . S
C68 C66 1.383 . S
C68 H79 0.931 . S
C69 C66 1.382 . S
C69 C67 1.392 . S
C70 Eu41 2.828 . S
C70 O54 1.249 . S
C70 O55 1.244 . S
C70 C64 1.505 . S
C71 O58 1.258 . S
C71 O59 1.242 . S
H72 C44 0.930 . S
H73 C45 0.930 . S
H74 C46 0.930 . S
H75 C47 0.931 . S
H76 C65 0.930 . S
H77 C66 0.930 . S
H78 C67 0.930 . S
H79 C68 0.931 . S
Eu80 C89 2.828 . S
Eu80 O91 2.392 . S
Eu80 O93 2.418 . S
Eu80 O98 2.373 . S
Eu80 O101 2.488 . S
Eu80 O102 2.471 . S
Eu80 O103 2.349 . S
Eu81 O90 2.373 . S
Eu81 O94 2.488 . S
Eu81 O95 2.471 . S
Eu81 O96 2.349 . S
Eu81 O99 2.392 . S
Eu81 O100 2.418 . S
Eu81 C110 2.828 . S
C82 O100 1.244 . S
C82 O103 1.265 . S
C83 C84 1.379 . S
C83 C87 1.373 . S
C83 C89 1.505 . S
C84 C83 1.379 . S
C84 C86 1.369 . S
C84 H112 0.930 . S
C85 C87 1.383 . S
C85 C88 1.382 . S
C85 H113 0.930 . S
C86 C84 1.369 . S
C86 C88 1.392 . S
C86 H114 0.930 . S
C87 C83 1.373 . S
C87 C85 1.383 . S
C87 H115 0.931 . S
C88 C85 1.382 . S
C88 C86 1.392 . S
C89 Eu80 2.828 . S
C89 C83 1.505 . S
C89 O101 1.249 . S
C89 O102 1.244 . S
O90 Eu81 2.373 . S
O90 C92 1.258 . S
O91 Eu80 2.392 . S
O91 C92 1.242 . S
C92 O90 1.258 . S
C92 O91 1.242 . S
O93 Eu80 2.418 . S
O93 C97 1.244 . S
O94 Eu81 2.488 . S
O94 C110 1.249 . S
O95 Eu81 2.471 . S
O95 C110 1.244 . S
O96 Eu81 2.349 . S
O96 C97 1.265 . S
C97 O93 1.244 . S
C97 O96 1.265 . S
O98 Eu80 2.373 . S
O98 C111 1.258 . S
O99 Eu81 2.392 . S
O99 C111 1.242 . S
O100 Eu81 2.418 . S
O100 C82 1.244 . S
O101 Eu80 2.488 . S
O101 C89 1.249 . S
O102 Eu80 2.471 . S
O102 C89 1.244 . S
O103 Eu80 2.349 . S
O103 C82 1.265 . S
C104 C105 1.379 . S
C104 C108 1.373 . S
C104 C110 1.505 . S
C105 C104 1.379 . S
C105 C107 1.369 . S
C105 H116 0.930 . S
C106 C108 1.383 . S
C106 C109 1.382 . S
C106 H117 0.930 . S
C107 C105 1.369 . S
C107 C109 1.392 . S
C107 H118 0.930 . S
C108 C104 1.373 . S
C108 C106 1.383 . S
C108 H119 0.931 . S
C109 C106 1.382 . S
C109 C107 1.392 . S
C110 Eu81 2.828 . S
C110 O94 1.249 . S
C110 O95 1.244 . S
C110 C104 1.505 . S
C111 O98 1.258 . S
C111 O99 1.242 . S
H112 C84 0.930 . S
H113 C85 0.930 . S
H114 C86 0.930 . S
H115 C87 0.931 . S
H116 C105 0.930 . S
H117 C106 0.930 . S
H118 C107 0.930 . S
H119 C108 0.931 . S
Eu120 C129 2.828 . S
Eu120 O131 2.392 . S
Eu120 O133 2.418 . S
Eu120 O138 2.373 . S
Eu120 O141 2.488 . S
Eu120 O142 2.471 . S
Eu120 O143 2.349 . S
Eu121 O130 2.373 . S
Eu121 O134 2.488 . S
Eu121 O135 2.471 . S
Eu121 O136 2.349 . S
Eu121 O139 2.392 . S
Eu121 O140 2.418 . S
Eu121 C150 2.828 . S
C122 O140 1.244 . S
C122 O143 1.265 . S
C123 C124 1.379 . S
C123 C127 1.373 . S
C123 C129 1.505 . S
C124 C123 1.379 . S
C124 C126 1.369 . S
C124 H152 0.930 . S
C125 C127 1.383 . S
C125 C128 1.382 . S
C125 H153 0.930 . S
C126 C124 1.369 . S
C126 C128 1.392 . S
C126 H154 0.930 . S
C127 C123 1.373 . S
C127 C125 1.383 . S
C127 H155 0.931 . S
C128 C125 1.382 . S
C128 C126 1.392 . S
C129 Eu120 2.828 . S
C129 C123 1.505 . S
C129 O141 1.249 . S
C129 O142 1.244 . S
O130 Eu121 2.373 . S
O130 C132 1.258 . S
O131 Eu120 2.392 . S
O131 C132 1.242 . S
C132 O130 1.258 . S
C132 O131 1.242 . S
O133 Eu120 2.418 . S
O133 C137 1.244 . S
O134 Eu121 2.488 . S
O134 C150 1.249 . S
O135 Eu121 2.471 . S
O135 C150 1.244 . S
O136 Eu121 2.349 . S
O136 C137 1.265 . S
C137 O133 1.244 . S
C137 O136 1.265 . S
O138 Eu120 2.373 . S
O138 C151 1.258 . S
O139 Eu121 2.392 . S
O139 C151 1.242 . S
O140 Eu121 2.418 . S
O140 C122 1.244 . S
O141 Eu120 2.488 . S
O141 C129 1.249 . S
O142 Eu120 2.471 . S
O142 C129 1.244 . S
O143 Eu120 2.349 . S
O143 C122 1.265 . S
C144 C145 1.379 . S
C144 C148 1.373 . S
C144 C150 1.505 . S
C145 C144 1.379 . S
C145 C147 1.369 . S
C145 H156 0.930 . S
C146 C148 1.383 . S
C146 C149 1.382 . S
C146 H157 0.930 . S
C147 C145 1.369 . S
C147 C149 1.392 . S
C147 H158 0.930 . S
C148 C144 1.373 . S
C148 C146 1.383 . S
C148 H159 0.931 . S
C149 C146 1.382 . S
C149 C147 1.392 . S
C150 Eu121 2.828 . S
C150 O134 1.249 . S
C150 O135 1.244 . S
C150 C144 1.505 . S
C151 O138 1.258 . S
C151 O139 1.242 . S
H152 C124 0.930 . S
H153 C125 0.930 . S
H154 C126 0.930 . S
H155 C127 0.931 . S
H156 C145 0.930 . S
H157 C146 0.930 . S
H158 C147 0.930 . S
H159 C148 0.931 . S
Eu160 C169 2.828 . S
Eu160 O171 2.392 . S
Eu160 O173 2.418 . S
Eu160 O178 2.373 . S
Eu160 O181 2.488 . S
Eu160 O182 2.471 . S
Eu160 O183 2.349 . S
Eu161 O170 2.373 . S
Eu161 O174 2.488 . S
Eu161 O175 2.471 . S
Eu161 O176 2.349 . S
Eu161 O179 2.392 . S
Eu161 O180 2.418 . S
Eu161 C190 2.828 . S
C162 O180 1.244 . S
C162 O183 1.265 . S
C163 C164 1.379 . S
C163 C167 1.373 . S
C163 C169 1.505 . S
C164 C163 1.379 . S
C164 C166 1.369 . S
C164 H192 0.930 . S
C165 C167 1.383 . S
C165 C168 1.382 . S
C165 H193 0.930 . S
C166 C164 1.369 . S
C166 C168 1.392 . S
C166 H194 0.930 . S
C167 C163 1.373 . S
C167 C165 1.383 . S
C167 H195 0.931 . S
C168 C165 1.382 . S
C168 C166 1.392 . S
C169 Eu160 2.828 . S
C169 C163 1.505 . S
C169 O181 1.249 . S
C169 O182 1.244 . S
O170 Eu161 2.373 . S
O170 C172 1.258 . S
O171 Eu160 2.392 . S
O171 C172 1.242 . S
C172 O170 1.258 . S
C172 O171 1.242 . S
O173 Eu160 2.418 . S
O173 C177 1.244 . S
O174 Eu161 2.488 . S
O174 C190 1.249 . S
O175 Eu161 2.471 . S
O175 C190 1.244 . S
O176 Eu161 2.349 . S
O176 C177 1.265 . S
C177 O173 1.244 . S
C177 O176 1.265 . S
O178 Eu160 2.373 . S
O178 C191 1.258 . S
O179 Eu161 2.392 . S
O179 C191 1.242 . S
O180 Eu161 2.418 . S
O180 C162 1.244 . S
O181 Eu160 2.488 . S
O181 C169 1.249 . S
O182 Eu160 2.471 . S
O182 C169 1.244 . S
O183 Eu160 2.349 . S
O183 C162 1.265 . S
C184 C185 1.379 . S
C184 C188 1.373 . S
C184 C190 1.505 . S
C185 C184 1.379 . S
C185 C187 1.369 . S
C185 H196 0.930 . S
C186 C188 1.383 . S
C186 C189 1.382 . S
C186 H197 0.930 . S
C187 C185 1.369 . S
C187 C189 1.392 . S
C187 H198 0.930 . S
C188 C184 1.373 . S
C188 C186 1.383 . S
C188 H199 0.931 . S
C189 C186 1.382 . S
C189 C187 1.392 . S
C190 Eu161 2.828 . S
C190 O174 1.249 . S
C190 O175 1.244 . S
C190 C184 1.505 . S
C191 O178 1.258 . S
C191 O179 1.242 . S
H192 C164 0.930 . S
H193 C165 0.930 . S
H194 C166 0.930 . S
H195 C167 0.931 . S
H196 C185 0.930 . S
H197 C186 0.930 . S
H198 C187 0.930 . S
H199 C188 0.931 . S
Eu200 C209 2.828 . S
Eu200 O211 2.392 . S
Eu200 O213 2.418 . S
Eu200 O218 2.373 . S
Eu200 O221 2.488 . S
Eu200 O222 2.471 . S
Eu200 O223 2.349 . S
Eu201 O210 2.373 . S
Eu201 O214 2.488 . S
Eu201 O215 2.471 . S
Eu201 O216 2.349 . S
Eu201 O219 2.392 . S
Eu201 O220 2.418 . S
Eu201 C230 2.828 . S
C202 O220 1.244 . S
C202 O223 1.265 . S
C203 C204 1.379 . S
C203 C207 1.373 . S
C203 C209 1.505 . S
C204 C203 1.379 . S
C204 C206 1.369 . S
C204 H232 0.930 . S
C205 C207 1.383 . S
C205 C208 1.382 . S
C205 H233 0.930 . S
C206 C204 1.369 . S
C206 C208 1.392 . S
C206 H234 0.930 . S
C207 C203 1.373 . S
C207 C205 1.383 . S
C207 H235 0.931 . S
C208 C205 1.382 . S
C208 C206 1.392 . S
C209 Eu200 2.828 . S
C209 C203 1.505 . S
C209 O221 1.249 . S
C209 O222 1.244 . S
O210 Eu201 2.373 . S
O210 C212 1.258 . S
O211 Eu200 2.392 . S
O211 C212 1.242 . S
C212 O210 1.258 . S
C212 O211 1.242 . S
O213 Eu200 2.418 . S
O213 C217 1.244 . S
O214 Eu201 2.488 . S
O214 C230 1.249 . S
O215 Eu201 2.471 . S
O215 C230 1.244 . S
O216 Eu201 2.349 . S
O216 C217 1.265 . S
C217 O213 1.244 . S
C217 O216 1.265 . S
O218 Eu200 2.373 . S
O218 C231 1.258 . S
O219 Eu201 2.392 . S
O219 C231 1.242 . S
O220 Eu201 2.418 . S
O220 C202 1.244 . S
O221 Eu200 2.488 . S
O221 C209 1.249 . S
O222 Eu200 2.471 . S
O222 C209 1.244 . S
O223 Eu200 2.349 . S
O223 C202 1.265 . S
C224 C225 1.379 . S
C224 C228 1.373 . S
C224 C230 1.505 . S
C225 C224 1.379 . S
C225 C227 1.369 . S
C225 H236 0.930 . S
C226 C228 1.383 . S
C226 C229 1.382 . S
C226 H237 0.930 . S
C227 C225 1.369 . S
C227 C229 1.392 . S
C227 H238 0.930 . S
C228 C224 1.373 . S
C228 C226 1.383 . S
C228 H239 0.931 . S
C229 C226 1.382 . S
C229 C227 1.392 . S
C230 Eu201 2.828 . S
C230 O214 1.249 . S
C230 O215 1.244 . S
C230 C224 1.505 . S
C231 O218 1.258 . S
C231 O219 1.242 . S
H232 C204 0.930 . S
H233 C205 0.930 . S
H234 C206 0.930 . S
H235 C207 0.931 . S
H236 C225 0.930 . S
H237 C226 0.930 . S
H238 C227 0.930 . S
H239 C228 0.931 . S
Eu240 C249 2.828 . S
Eu240 O251 2.392 . S
Eu240 O253 2.418 . S
Eu240 O258 2.373 . S
Eu240 O261 2.488 . S
Eu240 O262 2.471 . S
Eu240 O263 2.349 . S
Eu241 O250 2.373 . S
Eu241 O254 2.488 . S
Eu241 O255 2.471 . S
Eu241 O256 2.349 . S
Eu241 O259 2.392 . S
Eu241 O260 2.418 . S
Eu241 C270 2.828 . S
C242 O260 1.244 . S
C242 O263 1.265 . S
C243 C244 1.379 . S
C243 C247 1.373 . S
C243 C249 1.505 . S
C244 C243 1.379 . S
C244 C246 1.369 . S
C244 H272 0.930 . S
C245 C247 1.383 . S
C245 C248 1.382 . S
C245 H273 0.930 . S
C246 C244 1.369 . S
C246 C248 1.392 . S
C246 H274 0.930 . S
C247 C243 1.373 . S
C247 C245 1.383 . S
C247 H275 0.931 . S
C248 C245 1.382 . S
C248 C246 1.392 . S
C249 Eu240 2.828 . S
C249 C243 1.505 . S
C249 O261 1.249 . S
C249 O262 1.244 . S
O250 Eu241 2.373 . S
O250 C252 1.258 . S
O251 Eu240 2.392 . S
O251 C252 1.242 . S
C252 O250 1.258 . S
C252 O251 1.242 . S
O253 Eu240 2.418 . S
O253 C257 1.244 . S
O254 Eu241 2.488 . S
O254 C270 1.249 . S
O255 Eu241 2.471 . S
O255 C270 1.244 . S
O256 Eu241 2.349 . S
O256 C257 1.265 . S
C257 O253 1.244 . S
C257 O256 1.265 . S
O258 Eu240 2.373 . S
O258 C271 1.258 . S
O259 Eu241 2.392 . S
O259 C271 1.242 . S
O260 Eu241 2.418 . S
O260 C242 1.244 . S
O261 Eu240 2.488 . S
O261 C249 1.249 . S
O262 Eu240 2.471 . S
O262 C249 1.244 . S
O263 Eu240 2.349 . S
O263 C242 1.265 . S
C264 C265 1.379 . S
C264 C268 1.373 . S
C264 C270 1.505 . S
C265 C264 1.379 . S
C265 C267 1.369 . S
C265 H276 0.930 . S
C266 C268 1.383 . S
C266 C269 1.382 . S
C266 H277 0.930 . S
C267 C265 1.369 . S
C267 C269 1.392 . S
C267 H278 0.930 . S
C268 C264 1.373 . S
C268 C266 1.383 . S
C268 H279 0.931 . S
C269 C266 1.382 . S
C269 C267 1.392 . S
C270 Eu241 2.828 . S
C270 O254 1.249 . S
C270 O255 1.244 . S
C270 C264 1.505 . S
C271 O258 1.258 . S
C271 O259 1.242 . S
H272 C244 0.930 . S
H273 C245 0.930 . S
H274 C246 0.930 . S
H275 C247 0.931 . S
H276 C265 0.930 . S
H277 C266 0.930 . S
H278 C267 0.930 . S
H279 C268 0.931 . S
Eu280 C289 2.828 . S
Eu280 O291 2.392 . S
Eu280 O293 2.418 . S
Eu280 O298 2.373 . S
Eu280 O301 2.488 . S
Eu280 O302 2.471 . S
Eu280 O303 2.349 . S
Eu281 O290 2.373 . S
Eu281 O294 2.488 . S
Eu281 O295 2.471 . S
Eu281 O296 2.349 . S
Eu281 O299 2.392 . S
Eu281 O300 2.418 . S
Eu281 C310 2.828 . S
C282 O300 1.244 . S
C282 O303 1.265 . S
C283 C284 1.379 . S
C283 C287 1.373 . S
C283 C289 1.505 . S
C284 C283 1.379 . S
C284 C286 1.369 . S
C284 H312 0.930 . S
C285 C287 1.383 . S
C285 C288 1.382 . S
C285 H313 0.930 . S
C286 C284 1.369 . S
C286 C288 1.392 . S
C286 H314 0.930 . S
C287 C283 1.373 . S
C287 C285 1.383 . S
C287 H315 0.931 . S
C288 C285 1.382 . S
C288 C286 1.392 . S
C289 Eu280 2.828 . S
C289 C283 1.505 . S
C289 O301 1.249 . S
C289 O302 1.244 . S
O290 Eu281 2.373 . S
O290 C292 1.258 . S
O291 Eu280 2.392 . S
O291 C292 1.242 . S
C292 O290 1.258 . S
C292 O291 1.242 . S
O293 Eu280 2.418 . S
O293 C297 1.244 . S
O294 Eu281 2.488 . S
O294 C310 1.249 . S
O295 Eu281 2.471 . S
O295 C310 1.244 . S
O296 Eu281 2.349 . S
O296 C297 1.265 . S
C297 O293 1.244 . S
C297 O296 1.265 . S
O298 Eu280 2.373 . S
O298 C311 1.258 . S
O299 Eu281 2.392 . S
O299 C311 1.242 . S
O300 Eu281 2.418 . S
O300 C282 1.244 . S
O301 Eu280 2.488 . S
O301 C289 1.249 . S
O302 Eu280 2.471 . S
O302 C289 1.244 . S
O303 Eu280 2.349 . S
O303 C282 1.265 . S
C304 C305 1.379 . S
C304 C308 1.373 . S
C304 C310 1.505 . S
C305 C304 1.379 . S
C305 C307 1.369 . S
C305 H316 0.930 . S
C306 C308 1.383 . S
C306 C309 1.382 . S
C306 H317 0.930 . S
C307 C305 1.369 . S
C307 C309 1.392 . S
C307 H318 0.930 . S
C308 C304 1.373 . S
C308 C306 1.383 . S
C308 H319 0.931 . S
C309 C306 1.382 . S
C309 C307 1.392 . S
C310 Eu281 2.828 . S
C310 O294 1.249 . S
C310 O295 1.244 . S
C310 C304 1.505 . S
C311 O298 1.258 . S
C311 O299 1.242 . S
H312 C284 0.930 . S
H313 C285 0.930 . S
H314 C286 0.930 . S
H315 C287 0.931 . S
H316 C305 0.930 . S
H317 C306 0.930 . S
H318 C307 0.930 . S
H319 C308 0.931 . S
Cd320 N323 2.334 1_655 S
Cd320 N349 2.304 1_565 S
Cd320 O356 2.268 . S
Cd320 O359 2.273 1_665 S
Cd320 O360 2.417 . S
Cd320 O361 2.330 . S
Cd321 N336 2.304 1_455 S
Cd321 N340 2.334 1_545 S
Cd321 O357 2.273 1_445 S
Cd321 O358 2.268 . S
Cd321 O362 2.417 . S
Cd321 O363 2.330 . S
C322 N323 1.332 . S
C322 C326 1.381 . S
C322 H328 0.931 . S
N323 Cd320 2.334 1_455 S
N323 C322 1.332 . S
N323 C327 1.328 . S
C324 C325 1.396 . S
C324 C327 1.378 . S
C324 H366 0.931 . S
C325 C324 1.396 . S
C325 C326 1.382 . S
C326 C322 1.381 . S
C326 C325 1.382 . S
C326 H367 0.930 . S
C327 N323 1.328 . S
C327 C324 1.378 . S
C327 H329 0.930 1_455 S
H328 C322 0.931 . S
H329 C327 0.930 1_655 S
C330 O356 1.238 . S
C330 O357 1.253 . S
C331 C332 1.379 . S
C331 N336 1.337 . S
C331 H337 0.929 . S
C332 C331 1.379 . S
C332 C333 1.380 . S
C332 H368 0.929 . S
C333 C332 1.380 . S
C333 C334 1.399 . S
C334 C333 1.399 . S
C334 C335 1.414 . S
C334 H369 0.931 . S
C335 C334 1.414 . S
C335 N336 1.330 . S
C335 H338 0.900 1_655 S
N336 Cd321 2.304 1_655 S
N336 C331 1.337 . S
N336 C335 1.330 . S
H337 C331 0.929 . S
H338 C335 0.900 1_455 S
C339 N340 1.332 . S
C339 C343 1.381 . S
C339 H345 0.931 . S
N340 Cd321 2.334 1_565 S
N340 C339 1.332 . S
N340 C344 1.328 . S
C341 C342 1.396 . S
C341 C344 1.378 . S
C341 H370 0.931 . S
C342 C341 1.396 . S
C342 C343 1.382 . S
C343 C339 1.381 . S
C343 C342 1.382 . S
C343 H371 0.930 . S
C344 N340 1.328 . S
C344 C341 1.378 . S
C344 H346 0.930 1_565 S
H345 C339 0.931 . S
H346 C344 0.930 1_545 S
C347 O358 1.238 . S
C347 O359 1.253 . S
C348 O360 1.239 . S
C348 O361 1.230 . S
N349 Cd320 2.304 1_545 S
N349 C350 1.337 . S
N349 C354 1.338 . S
C350 N349 1.337 . S
C350 C351 1.379 . S
C350 H364 0.929 . S
C351 C350 1.379 . S
C351 C352 1.380 . S
C351 H372 0.929 . S
C352 C351 1.380 . S
C352 C353 1.399 . S
C353 C352 1.399 . S
C353 C354 1.376 . S
C353 H373 0.931 . S
C354 N349 1.338 . S
C354 C353 1.376 . S
C354 H365 0.930 1_545 S
C355 O362 1.239 . S
C355 O363 1.230 . S
O356 Cd320 2.268 . S
O356 C330 1.238 . S
O357 Cd321 2.273 1_665 S
O357 C330 1.253 . S
O358 Cd321 2.268 . S
O358 C347 1.238 . S
O359 Cd320 2.273 1_445 S
O359 C347 1.253 . S
O360 Cd320 2.417 . S
O360 C348 1.239 . S
O361 Cd320 2.330 . S
O361 C348 1.230 . S
O362 Cd321 2.417 . S
O362 C355 1.239 . S
O363 Cd321 2.330 . S
O363 C355 1.230 . S
H364 C350 0.929 . S
H365 C354 0.930 1_565 S
H366 C324 0.931 . S
H367 C326 0.930 . S
H368 C332 0.929 . S
H369 C334 0.931 . S
H370 C341 0.931 . S
H371 C343 0.930 . S
H372 C351 0.929 . S
H373 C353 0.931 . S
Cd374 N377 2.334 . S
Cd374 N403 2.304 1_565 S
Cd374 O410 2.268 1_554 S
Cd374 O413 2.273 1_565 S
Cd374 O414 2.417 . S
Cd374 O415 2.330 . S
Cd375 N390 2.304 . S
Cd375 N394 2.334 1_545 S
Cd375 O411 2.273 1_545 S
Cd375 O412 2.268 1_556 S
Cd375 O416 2.417 . S
Cd375 O417 2.330 . S
C376 N377 1.332 . S
C376 C380 1.381 . S
C376 H382 0.931 . S
N377 Cd374 2.334 . S
N377 C376 1.332 . S
N377 C381 1.328 . S
C378 C379 1.396 . S
C378 C381 1.378 . S
C378 H420 0.931 1_554 S
C379 C378 1.396 . S
C379 C380 1.382 . S
C380 C376 1.381 . S
C380 C379 1.382 . S
C380 H421 0.930 . S
C381 N377 1.328 . S
C381 C378 1.378 . S
C381 H383 0.930 1_554 S
H382 C376 0.931 . S
H383 C381 0.930 1_556 S
C384 O410 1.238 . S
C384 O411 1.253 . S
C385 C386 1.379 . S
C385 N390 1.337 . S
C385 H391 0.929 . S
C386 C385 1.379 . S
C386 C387 1.380 . S
C386 H422 0.929 . S
C387 C386 1.380 . S
C387 C388 1.399 . S
C388 C387 1.399 . S
C388 C389 1.376 . S
C388 H423 0.931 1_556 S
C389 C388 1.376 . S
C389 N390 1.338 . S
C389 H392 0.930 1_556 S
N390 Cd375 2.304 . S
N390 C385 1.337 . S
N390 C389 1.338 . S
H391 C385 0.929 . S
H392 C389 0.930 1_554 S
C393 N394 1.332 . S
C393 C397 1.381 . S
C393 H399 0.931 . S
N394 Cd375 2.334 1_565 S
N394 C393 1.332 . S
N394 C398 1.328 . S
C395 C396 1.396 . S
C395 C398 1.378 . S
C395 H424 0.931 1_556 S
C396 C395 1.396 . S
C396 C397 1.382 . S
C397 C393 1.381 . S
C397 C396 1.382 . S
C397 H425 0.930 . S
C398 N394 1.328 . S
C398 C395 1.378 . S
C398 H400 0.930 1_566 S
H399 C393 0.931 . S
H400 C398 0.930 1_544 S
C401 O412 1.238 . S
C401 O413 1.253 . S
C402 O414 1.239 . S
C402 O415 1.230 . S
N403 Cd374 2.304 1_545 S
N403 C404 1.337 . S
N403 C408 1.338 . S
C404 N403 1.337 . S
C404 C405 1.379 . S
C404 H418 0.929 . S
C405 C404 1.379 . S
C405 C406 1.380 . S
C405 H426 0.929 . S
C406 C405 1.380 . S
C406 C407 1.399 . S
C407 C406 1.399 . S
C407 C408 1.376 . S
C407 H427 0.915 1_554 S
C408 N403 1.338 . S
C408 C407 1.376 . S
C408 H419 0.930 1_544 S
C409 O416 1.239 . S
C409 O417 1.230 . S
O410 Cd374 2.268 1_556 S
O410 C384 1.238 . S
O411 Cd375 2.273 1_565 S
O411 C384 1.253 . S
O412 Cd375 2.268 1_554 S
O412 C401 1.238 . S
O413 Cd374 2.273 1_545 S
O413 C401 1.253 . S
O414 Cd374 2.417 . S
O414 C402 1.239 . S
O415 Cd374 2.330 . S
O415 C402 1.230 . S
O416 Cd375 2.417 . S
O416 C409 1.239 . S
O417 Cd375 2.330 . S
O417 C409 1.230 . S
H418 C404 0.929 . S
H419 C408 0.930 1_566 S
H420 C378 0.931 1_556 S
H421 C380 0.930 . S
H422 C386 0.929 . S
H423 C388 0.931 1_554 S
H424 C395 0.931 1_554 S
H425 C397 0.930 . S
H426 C405 0.929 . S
H427 C407 0.915 1_556 S
Cd428 N431 2.334 1_655 S
Cd428 N457 2.304 . S
Cd428 O464 2.268 1_554 S
Cd428 O467 2.273 1_655 S
Cd428 O468 2.417 . S
Cd428 O469 2.330 . S
Cd429 N444 2.304 1_455 S
Cd429 N448 2.334 . S
Cd429 O465 2.273 1_455 S
Cd429 O466 2.268 1_556 S
Cd429 O470 2.417 . S
Cd429 O471 2.330 . S
C430 N431 1.332 . S
C430 C434 1.381 . S
C430 H436 0.931 . S
N431 Cd428 2.334 1_455 S
N431 C430 1.332 . S
N431 C435 1.328 . S
C432 C433 1.396 . S
C432 C435 1.378 . S
C432 H474 0.931 1_554 S
C433 C432 1.396 . S
C433 C434 1.382 . S
C434 C430 1.381 . S
C434 C433 1.382 . S
C434 H475 0.930 . S
C435 N431 1.328 . S
C435 C432 1.378 . S
C435 H437 0.930 1_454 S
H436 C430 0.931 . S
H437 C435 0.930 1_656 S
C438 O464 1.238 . S
C438 O465 1.253 . S
C439 C440 1.379 . S
C439 N444 1.337 . S
C439 H445 0.929 . S
C440 C439 1.379 . S
C440 C441 1.380 . S
C440 H476 0.929 . S
C441 C440 1.380 . S
C441 C442 1.399 . S
C442 C441 1.399 . S
C442 C443 1.418 . S
C442 H477 0.931 1_556 S
C443 C442 1.418 . S
C443 N444 1.329 . S
C443 H446 0.897 1_656 S
N444 Cd429 2.304 1_655 S
N444 C439 1.337 . S
N444 C443 1.329 . S
H445 C439 0.929 . S
H446 C443 0.897 1_454 S
C447 N448 1.332 . S
C447 C451 1.381 . S
C447 H453 0.931 . S
N448 Cd429 2.334 . S
N448 C447 1.332 . S
N448 C452 1.328 . S
C449 C450 1.396 . S
C449 C452 1.378 . S
C449 H478 0.931 1_556 S
C450 C449 1.396 . S
C450 C451 1.382 . S
C451 C447 1.381 . S
C451 C450 1.382 . S
C451 H479 0.930 . S
C452 N448 1.328 . S
C452 C449 1.378 . S
C452 H454 0.930 1_556 S
H453 C447 0.931 . S
H454 C452 0.930 1_554 S
C455 O466 1.238 . S
C455 O467 1.253 . S
C456 O468 1.239 . S
C456 O469 1.230 . S
N457 Cd428 2.304 . S
N457 C458 1.337 . S
N457 C462 1.338 . S
C458 N457 1.337 . S
C458 C459 1.379 . S
C458 H472 0.929 . S
C459 C458 1.379 . S
C459 C460 1.380 . S
C459 H480 0.929 . S
C460 C459 1.380 . S
C460 C461 1.399 . S
C461 C460 1.399 . S
C461 C462 1.376 . S
C461 H481 0.915 1_554 S
C462 N457 1.338 . S
C462 C461 1.376 . S
C462 H473 0.930 1_554 S
C463 O470 1.239 . S
C463 O471 1.230 . S
O464 Cd428 2.268 1_556 S
O464 C438 1.238 . S
O465 Cd429 2.273 1_655 S
O465 C438 1.253 . S
O466 Cd429 2.268 1_554 S
O466 C455 1.238 . S
O467 Cd428 2.273 1_455 S
O467 C455 1.253 . S
O468 Cd428 2.417 . S
O468 C456 1.239 . S
O469 Cd428 2.330 . S
O469 C456 1.230 . S
O470 Cd429 2.417 . S
O470 C463 1.239 . S
O471 Cd429 2.330 . S
O471 C463 1.230 . S
H472 C458 0.929 . S
H473 C462 0.930 1_556 S
H474 C432 0.931 1_556 S
H475 C434 0.930 . S
H476 C440 0.929 . S
H477 C442 0.931 1_554 S
H478 C449 0.931 1_554 S
H479 C451 0.930 . S
H480 C459 0.929 . S
H481 C461 0.915 1_556 S
Cd482 N485 2.334 . S
Cd482 N511 2.304 . S
Cd482 O518 2.268 1_554 S
Cd482 O521 2.273 . S
Cd482 O522 2.417 . S
Cd482 O523 2.330 . S
Cd483 N498 2.304 . S
Cd483 N502 2.334 . S
Cd483 O519 2.273 . S
Cd483 O520 2.268 1_556 S
Cd483 O524 2.417 . S
Cd483 O525 2.330 . S
C484 N485 1.332 . S
C484 C488 1.381 . S
C484 H490 0.931 . S
N485 Cd482 2.334 . S
N485 C484 1.332 . S
N485 C489 1.328 . S
C486 C487 1.396 . S
C486 C489 1.378 . S
C486 H528 0.931 1_554 S
C487 C486 1.396 . S
C487 C488 1.382 . S
C488 C484 1.381 . S
C488 C487 1.382 . S
C488 H529 0.930 . S
C489 N485 1.328 . S
C489 C486 1.378 . S
C489 H491 0.930 1_554 S
H490 C484 0.931 . S
H491 C489 0.930 1_556 S
C492 O518 1.238 . S
C492 O519 1.253 . S
C493 C494 1.379 . S
C493 N498 1.337 . S
C493 H499 0.929 . S
C494 C493 1.379 . S
C494 C495 1.380 . S
C494 H530 0.929 . S
C495 C494 1.380 . S
C495 C496 1.399 . S
C496 C495 1.399 . S
C496 C497 1.376 . S
C496 H531 0.931 1_556 S
C497 C496 1.376 . S
C497 N498 1.338 . S
C497 H500 0.930 1_556 S
N498 Cd483 2.304 . S
N498 C493 1.337 . S
N498 C497 1.338 . S
H499 C493 0.929 . S
H500 C497 0.930 1_554 S
C501 N502 1.332 . S
C501 C505 1.381 . S
C501 H507 0.931 . S
N502 Cd483 2.334 . S
N502 C501 1.332 . S
N502 C506 1.328 . S
C503 C504 1.396 . S
C503 C506 1.378 . S
C503 H532 0.931 1_556 S
C504 C503 1.396 . S
C504 C505 1.382 . S
C505 C501 1.381 . S
C505 C504 1.382 . S
C505 H533 0.930 . S
C506 N502 1.328 . S
C506 C503 1.378 . S
C506 H508 0.930 1_556 S
H507 C501 0.931 . S
H508 C506 0.930 1_554 S
C509 O520 1.238 . S
C509 O521 1.253 . S
C510 O522 1.239 . S
C510 O523 1.230 . S
N511 Cd482 2.304 . S
N511 C512 1.337 . S
N511 C516 1.338 . S
C512 N511 1.337 . S
C512 C513 1.379 . S
C512 H526 0.929 . S
C513 C512 1.379 . S
C513 C514 1.380 . S
C513 H534 0.929 . S
C514 C513 1.380 . S
C514 C515 1.399 . S
C515 C514 1.399 . S
C515 C516 1.376 . S
C515 H535 0.916 1_554 S
C516 N511 1.338 . S
C516 C515 1.376 . S
C516 H527 0.930 1_554 S
C517 O524 1.239 . S
C517 O525 1.230 . S
O518 Cd482 2.268 1_556 S
O518 C492 1.238 . S
O519 Cd483 2.273 . S
O519 C492 1.253 . S
O520 Cd483 2.268 1_554 S
O520 C509 1.238 . S
O521 Cd482 2.273 . S
O521 C509 1.253 . S
O522 Cd482 2.417 . S
O522 C510 1.239 . S
O523 Cd482 2.330 . S
O523 C510 1.230 . S
O524 Cd483 2.417 . S
O524 C517 1.239 . S
O525 Cd483 2.330 . S
O525 C517 1.230 . S
H526 C512 0.929 . S
H527 C516 0.930 1_556 S
H528 C486 0.931 1_556 S
H529 C488 0.930 . S
H530 C494 0.929 . S
H531 C496 0.931 1_554 S
H532 C503 0.931 1_554 S
H533 C505 0.930 . S
H534 C513 0.929 . S
H535 C515 0.916 1_556 S
Cd536 N539 2.334 1_655 S
Cd536 N565 2.304 . S
Cd536 O572 2.268 . S
Cd536 O575 2.273 1_655 S
Cd536 O576 2.417 . S
Cd536 O577 2.330 . S
Cd537 N552 2.304 1_455 S
Cd537 N556 2.334 . S
Cd537 O573 2.273 1_455 S
Cd537 O574 2.268 . S
Cd537 O578 2.417 . S
Cd537 O579 2.330 . S
C538 N539 1.332 . S
C538 C542 1.381 . S
C538 H544 0.931 . S
N539 Cd536 2.334 1_455 S
N539 C538 1.332 . S
N539 C543 1.328 . S
C540 C541 1.396 . S
C540 C543 1.378 . S
C540 H582 0.931 . S
C541 C540 1.396 . S
C541 C542 1.382 . S
C542 C538 1.381 . S
C542 C541 1.382 . S
C542 H583 0.930 . S
C543 N539 1.328 . S
C543 C540 1.378 . S
C543 H545 0.930 1_455 S
H544 C538 0.931 . S
H545 C543 0.930 1_655 S
C546 O572 1.238 . S
C546 O573 1.253 . S
C547 C548 1.379 . S
C547 N552 1.337 . S
C547 H553 0.929 . S
C548 C547 1.379 . S
C548 C549 1.380 . S
C548 H584 0.929 . S
C549 C548 1.380 . S
C549 C550 1.399 . S
C550 C549 1.399 . S
C550 C551 1.417 . S
C550 H585 0.931 . S
C551 C550 1.417 . S
C551 N552 1.329 . S
C551 H554 0.897 1_655 S
N552 Cd537 2.304 1_655 S
N552 C547 1.337 . S
N552 C551 1.329 . S
H553 C547 0.929 . S
H554 C551 0.897 1_455 S
C555 N556 1.332 . S
C555 C559 1.381 . S
C555 H561 0.931 . S
N556 Cd537 2.334 . S
N556 C555 1.332 . S
N556 C560 1.328 . S
C557 C558 1.396 . S
C557 C560 1.378 . S
C557 H586 0.931 . S
C558 C557 1.396 . S
C558 C559 1.382 . S
C559 C555 1.381 . S
C559 C558 1.382 . S
C559 H587 0.930 . S
C560 N556 1.328 . S
C560 C557 1.378 . S
C560 H562 0.930 . S
H561 C555 0.931 . S
H562 C560 0.930 . S
C563 O574 1.238 . S
C563 O575 1.253 . S
C564 O576 1.239 . S
C564 O577 1.230 . S
N565 Cd536 2.304 . S
N565 C566 1.337 . S
N565 C570 1.338 . S
C566 N565 1.337 . S
C566 C567 1.379 . S
C566 H580 0.929 . S
C567 C566 1.379 . S
C567 C568 1.380 . S
C567 H588 0.929 . S
C568 C567 1.380 . S
C568 C569 1.399 . S
C569 C568 1.399 . S
C569 C570 1.376 . S
C569 H589 0.931 . S
C570 N565 1.338 . S
C570 C569 1.376 . S
C570 H581 0.930 . S
C571 O578 1.239 . S
C571 O579 1.230 . S
O572 Cd536 2.268 . S
O572 C546 1.238 . S
O573 Cd537 2.273 1_655 S
O573 C546 1.253 . S
O574 Cd537 2.268 . S
O574 C563 1.238 . S
O575 Cd536 2.273 1_455 S
O575 C563 1.253 . S
O576 Cd536 2.417 . S
O576 C564 1.239 . S
O577 Cd536 2.330 . S
O577 C564 1.230 . S
O578 Cd537 2.417 . S
O578 C571 1.239 . S
O579 Cd537 2.330 . S
O579 C571 1.230 . S
H580 C566 0.929 . S
H581 C570 0.930 . S
H582 C540 0.931 . S
H583 C542 0.930 . S
H584 C548 0.929 . S
H585 C550 0.931 . S
H586 C557 0.931 . S
H587 C559 0.930 . S
H588 C567 0.929 . S
H589 C569 0.931 . S
Cd590 N593 2.334 . S
Cd590 N619 2.304 1_565 S
Cd590 O626 2.268 . S
Cd590 O629 2.273 1_565 S
Cd590 O630 2.417 . S
Cd590 O631 2.330 . S
Cd591 N606 2.304 . S
Cd591 N610 2.334 1_545 S
Cd591 O627 2.273 1_545 S
Cd591 O628 2.268 . S
Cd591 O632 2.417 . S
Cd591 O633 2.330 . S
C592 N593 1.332 . S
C592 C596 1.381 . S
C592 H598 0.931 . S
N593 Cd590 2.334 . S
N593 C592 1.332 . S
N593 C597 1.328 . S
C594 C595 1.396 . S
C594 C597 1.378 . S
C594 H636 0.931 . S
C595 C594 1.396 . S
C595 C596 1.382 . S
C596 C592 1.381 . S
C596 C595 1.382 . S
C596 H637 0.930 . S
C597 N593 1.328 . S
C597 C594 1.378 . S
C597 H599 0.930 . S
H598 C592 0.931 . S
H599 C597 0.930 . S
C600 O626 1.238 . S
C600 O627 1.253 . S
C601 C602 1.379 . S
C601 N606 1.337 . S
C601 H607 0.929 . S
C602 C601 1.379 . S
C602 C603 1.380 . S
C602 H638 0.929 . S
C603 C602 1.380 . S
C603 C604 1.399 . S
C604 C603 1.399 . S
C604 C605 1.376 . S
C604 H639 0.931 . S
C605 C604 1.376 . S
C605 N606 1.338 . S
C605 H608 0.930 . S
N606 Cd591 2.304 . S
N606 C601 1.337 . S
N606 C605 1.338 . S
H607 C601 0.929 . S
H608 C605 0.930 . S
C609 N610 1.332 . S
C609 C613 1.381 . S
C609 H615 0.931 . S
N610 Cd591 2.334 1_565 S
N610 C609 1.332 . S
N610 C614 1.328 . S
C611 C612 1.396 . S
C611 C614 1.378 . S
C611 H640 0.931 . S
C612 C611 1.396 . S
C612 C613 1.382 . S
C613 C609 1.381 . S
C613 C612 1.382 . S
C613 H641 0.930 . S
C614 N610 1.328 . S
C614 C611 1.378 . S
C614 H616 0.930 1_565 S
H615 C609 0.931 . S
H616 C614 0.930 1_545 S
C617 O628 1.238 . S
C617 O629 1.253 . S
C618 O630 1.239 . S
C618 O631 1.230 . S
N619 Cd590 2.304 1_545 S
N619 C620 1.337 . S
N619 C624 1.338 . S
C620 N619 1.337 . S
C620 C621 1.379 . S
C620 H634 0.929 . S
C621 C620 1.379 . S
C621 C622 1.380 . S
C621 H642 0.929 . S
C622 C621 1.380 . S
C622 C623 1.399 . S
C623 C622 1.399 . S
C623 C624 1.376 . S
C623 H643 0.931 . S
C624 N619 1.338 . S
C624 C623 1.376 . S
C624 H635 0.930 1_545 S
C625 O632 1.239 . S
C625 O633 1.230 . S
O626 Cd590 2.268 . S
O626 C600 1.238 . S
O627 Cd591 2.273 1_565 S
O627 C600 1.253 . S
O628 Cd591 2.268 . S
O628 C617 1.238 . S
O629 Cd590 2.273 1_545 S
O629 C617 1.253 . S
O630 Cd590 2.417 . S
O630 C618 1.239 . S
O631 Cd590 2.330 . S
O631 C618 1.230 . S
O632 Cd591 2.417 . S
O632 C625 1.239 . S
O633 Cd591 2.330 . S
O633 C625 1.230 . S
H634 C620 0.929 . S
H635 C624 0.930 1_565 S
H636 C594 0.931 . S
H637 C596 0.930 . S
H638 C602 0.929 . S
H639 C604 0.931 . S
H640 C611 0.931 . S
H641 C613 0.930 . S
H642 C621 0.929 . S
H643 C623 0.931 . S
H644 C652 0.929 . S
H645 C654 0.930 . S
H646 C656 0.930 . S
H647 C659 0.929 . S
H648 C662 0.930 . S
H649 C664 0.960 . S
H650 C664 0.960 . S
H651 C664 0.960 . S
C652 H644 0.929 . S
C652 C653 1.377 . S
C652 C654 1.384 . S
C653 C652 1.377 . S
C653 C659 1.390 . S
C654 H645 0.930 . S
C654 C652 1.384 . S
C654 C655 1.372 . S
C655 C654 1.372 . S
C655 C656 1.400 . S
C655 C660 1.490 . S
C656 H646 0.930 . S
C656 C655 1.400 . S
C656 C659 1.386 . S
H657 C673 0.930 . S
H658 C674 0.931 . S
C659 H647 0.929 . S
C659 C653 1.390 . S
C659 C656 1.386 . S
C660 C655 1.490 . S
C660 C662 1.395 . S
C660 C663 1.403 . S
H661 C667 0.930 . S
C662 H648 0.930 . S
C662 C660 1.395 . S
C662 C665 1.403 . S
C663 C660 1.403 . S
C663 C664 1.524 . S
C663 C667 1.400 . S
C664 H649 0.960 . S
C664 H650 0.960 . S
C664 H651 0.960 . S
C664 C663 1.524 . S
C665 C662 1.403 . S
C665 C666 1.392 . S
C665 C669 1.495 . S
C666 C665 1.392 . S
C666 C667 1.385 . S
C666 C668 1.478 . S
C667 H661 0.930 . S
C667 C663 1.400 . S
C667 C666 1.385 . S
C668 C666 1.478 . S
C668 C670 1.381 . S
C668 C674 1.383 . S
C669 C665 1.495 . S
C669 H675 0.959 . S
C669 H676 0.961 . S
C669 H677 0.960 . S
C670 C668 1.381 . S
C670 C671 1.394 . S
C670 H678 0.930 . S
C671 C670 1.394 . S
C671 C672 1.383 . S
C671 H679 0.929 . S
C672 C671 1.383 . S
C672 C673 1.377 . S
C673 H657 0.930 . S
C673 C672 1.377 . S
C673 C674 1.379 . S
C674 H658 0.931 . S
C674 C668 1.383 . S
C674 C673 1.379 . S
H675 C669 0.959 . S
H676 C669 0.961 . S
H677 C669 0.960 . S
H678 C670 0.930 . S
H679 C671 0.929 . S
H680 C688 0.929 . S
H681 C690 0.930 . S
H682 C692 0.930 . S
H683 C695 0.929 . S
H684 C698 0.930 . S
H685 C700 0.960 . S
H686 C700 0.960 . S
H687 C700 0.960 . S
C688 H680 0.929 . S
C688 C689 1.377 . S
C688 C690 1.384 . S
C689 C688 1.377 . S
C689 C695 1.390 . S
C690 H681 0.930 . S
C690 C688 1.384 . S
C690 C691 1.372 . S
C691 C690 1.372 . S
C691 C692 1.400 . S
C691 C696 1.490 . S
C692 H682 0.930 . S
C692 C691 1.400 . S
C692 C695 1.386 . S
H693 C709 0.930 . S
H694 C710 0.931 . S
C695 H683 0.929 . S
C695 C689 1.390 . S
C695 C692 1.386 . S
C696 C691 1.490 . S
C696 C698 1.395 . S
C696 C699 1.403 . S
H697 C703 0.930 . S
C698 H684 0.930 . S
C698 C696 1.395 . S
C698 C701 1.403 . S
C699 C696 1.403 . S
C699 C700 1.524 . S
C699 C703 1.400 . S
C700 H685 0.960 . S
C700 H686 0.960 . S
C700 H687 0.960 . S
C700 C699 1.524 . S
C701 C698 1.403 . S
C701 C702 1.392 . S
C701 C705 1.495 . S
C702 C701 1.392 . S
C702 C703 1.385 . S
C702 C704 1.478 . S
C703 H697 0.930 . S
C703 C699 1.400 . S
C703 C702 1.385 . S
C704 C702 1.478 . S
C704 C706 1.381 . S
C704 C710 1.383 . S
C705 C701 1.495 . S
C705 H711 0.959 . S
C705 H712 0.961 . S
C705 H713 0.960 . S
C706 C704 1.381 . S
C706 C707 1.394 . S
C706 H714 0.930 . S
C707 C706 1.394 . S
C707 C708 1.383 . S
C707 H715 0.929 . S
C708 C707 1.383 . S
C708 C709 1.377 . S
C709 H693 0.930 . S
C709 C708 1.377 . S
C709 C710 1.379 . S
C710 H694 0.931 . S
C710 C704 1.383 . S
C710 C709 1.379 . S
H711 C705 0.959 . S
H712 C705 0.961 . S
H713 C705 0.960 . S
H714 C706 0.930 . S
H715 C707 0.929 . S
H716 C724 0.929 . S
H717 C726 0.930 . S
H718 C728 0.930 . S
H719 C731 0.929 . S
H720 C734 0.930 . S
H721 C736 0.960 . S
H722 C736 0.960 . S
H723 C736 0.960 . S
C724 H716 0.929 . S
C724 C725 1.377 . S
C724 C726 1.384 . S
C725 C724 1.377 . S
C725 C731 1.390 . S
C726 H717 0.930 . S
C726 C724 1.384 . S
C726 C727 1.372 . S
C727 C726 1.372 . S
C727 C728 1.400 . S
C727 C732 1.490 . S
C728 H718 0.930 . S
C728 C727 1.400 . S
C728 C731 1.386 . S
H729 C745 0.930 . S
H730 C746 0.931 . S
C731 H719 0.929 . S
C731 C725 1.390 . S
C731 C728 1.386 . S
C732 C727 1.490 . S
C732 C734 1.395 . S
C732 C735 1.403 . S
H733 C739 0.930 . S
C734 H720 0.930 . S
C734 C732 1.395 . S
C734 C737 1.403 . S
C735 C732 1.403 . S
C735 C736 1.524 . S
C735 C739 1.400 . S
C736 H721 0.960 . S
C736 H722 0.960 . S
C736 H723 0.960 . S
C736 C735 1.524 . S
C737 C734 1.403 . S
C737 C738 1.392 . S
C737 C741 1.495 . S
C738 C737 1.392 . S
C738 C739 1.385 . S
C738 C740 1.478 . S
C739 H733 0.930 . S
C739 C735 1.400 . S
C739 C738 1.385 . S
C740 C738 1.478 . S
C740 C742 1.381 . S
C740 C746 1.383 . S
C741 C737 1.495 . S
C741 H747 0.959 . S
C741 H748 0.961 . S
C741 H749 0.960 . S
C742 C740 1.381 . S
C742 C743 1.394 . S
C742 H750 0.930 . S
C743 C742 1.394 . S
C743 C744 1.383 . S
C743 H751 0.929 . S
C744 C743 1.383 . S
C744 C745 1.377 . S
C745 H729 0.930 . S
C745 C744 1.377 . S
C745 C746 1.379 . S
C746 H730 0.931 . S
C746 C740 1.383 . S
C746 C745 1.379 . S
H747 C741 0.959 . S
H748 C741 0.961 . S
H749 C741 0.960 . S
H750 C742 0.930 . S
H751 C743 0.929 . S
H752 C760 0.929 . S
H753 C762 0.930 . S
H754 C764 0.930 . S
H755 C767 0.929 . S
H756 C770 0.930 . S
H757 C772 0.960 . S
H758 C772 0.960 . S
H759 C772 0.960 . S
C760 H752 0.929 . S
C760 C761 1.377 . S
C760 C762 1.384 . S
C761 C760 1.377 . S
C761 C767 1.390 . S
C762 H753 0.930 . S
C762 C760 1.384 . S
C762 C763 1.372 . S
C763 C762 1.372 . S
C763 C764 1.400 . S
C763 C768 1.490 . S
C764 H754 0.930 . S
C764 C763 1.400 . S
C764 C767 1.386 . S
H765 C781 0.930 . S
H766 C782 0.931 . S
C767 H755 0.929 . S
C767 C761 1.390 . S
C767 C764 1.386 . S
C768 C763 1.490 . S
C768 C770 1.395 . S
C768 C771 1.403 . S
H769 C775 0.930 . S
C770 H756 0.930 . S
C770 C768 1.395 . S
C770 C773 1.403 . S
C771 C768 1.403 . S
C771 C772 1.524 . S
C771 C775 1.400 . S
C772 H757 0.960 . S
C772 H758 0.960 . S
C772 H759 0.960 . S
C772 C771 1.524 . S
C773 C770 1.403 . S
C773 C774 1.392 . S
C773 C777 1.495 . S
C774 C773 1.392 . S
C774 C775 1.385 . S
C774 C776 1.478 . S
C775 H769 0.930 . S
C775 C771 1.400 . S
C775 C774 1.385 . S
C776 C774 1.478 . S
C776 C778 1.381 . S
C776 C782 1.383 . S
C777 C773 1.495 . S
C777 H783 0.959 . S
C777 H784 0.961 . S
C777 H785 0.960 . S
C778 C776 1.381 . S
C778 C779 1.394 . S
C778 H786 0.930 . S
C779 C778 1.394 . S
C779 C780 1.383 . S
C779 H787 0.929 . S
C780 C779 1.383 . S
C780 C781 1.377 . S
C781 H765 0.930 . S
C781 C780 1.377 . S
C781 C782 1.379 . S
C782 H766 0.931 . S
C782 C776 1.383 . S
C782 C781 1.379 . S
H783 C777 0.959 . S
H784 C777 0.961 . S
H785 C777 0.960 . S
H786 C778 0.930 . S
H787 C779 0.929 . S
H788 C796 0.929 . S
H789 C798 0.930 . S
H790 C800 0.930 . S
H791 C803 0.929 . S
H792 C806 0.930 . S
H793 C808 0.960 . S
H794 C808 0.960 . S
H795 C808 0.960 . S
C796 H788 0.929 . S
C796 C797 1.377 . S
C796 C798 1.384 . S
C797 C796 1.377 . S
C797 C803 1.390 . S
C798 H789 0.930 . S
C798 C796 1.384 . S
C798 C799 1.372 . S
C799 C798 1.372 . S
C799 C800 1.400 . S
C799 C804 1.490 . S
C800 H790 0.930 . S
C800 C799 1.400 . S
C800 C803 1.386 . S
H801 C817 0.930 . S
H802 C818 0.931 . S
C803 H791 0.929 . S
C803 C797 1.390 . S
C803 C800 1.386 . S
C804 C799 1.490 . S
C804 C806 1.395 . S
C804 C807 1.403 . S
H805 C811 0.930 . S
C806 H792 0.930 . S
C806 C804 1.395 . S
C806 C809 1.403 . S
C807 C804 1.403 . S
C807 C808 1.524 . S
C807 C811 1.400 . S
C808 H793 0.960 . S
C808 H794 0.960 . S
C808 H795 0.960 . S
C808 C807 1.524 . S
C809 C806 1.403 . S
C809 C810 1.392 . S
C809 C813 1.495 . S
C810 C809 1.392 . S
C810 C811 1.385 . S
C810 C812 1.478 . S
C811 H805 0.930 . S
C811 C807 1.400 . S
C811 C810 1.385 . S
C812 C810 1.478 . S
C812 C814 1.381 . S
C812 C818 1.383 . S
C813 C809 1.495 . S
C813 H819 0.959 . S
C813 H820 0.961 . S
C813 H821 0.960 . S
C814 C812 1.381 . S
C814 C815 1.394 . S
C814 H822 0.930 . S
C815 C814 1.394 . S
C815 C816 1.383 . S
C815 H823 0.929 . S
C816 C815 1.383 . S
C816 C817 1.377 . S
C817 H801 0.930 . S
C817 C816 1.377 . S
C817 C818 1.379 . S
C818 H802 0.931 . S
C818 C812 1.383 . S
C818 C817 1.379 . S
H819 C813 0.959 . S
H820 C813 0.961 . S
H821 C813 0.960 . S
H822 C814 0.930 . S
H823 C815 0.929 . S
H824 C832 0.929 . S
H825 C834 0.930 . S
H826 C836 0.930 . S
H827 C839 0.929 . S
H828 C842 0.930 . S
H829 C844 0.960 . S
H830 C844 0.960 . S
H831 C844 0.960 . S
C832 H824 0.929 . S
C832 C833 1.377 . S
C832 C834 1.384 . S
C833 C832 1.377 . S
C833 C839 1.390 . S
C834 H825 0.930 . S
C834 C832 1.384 . S
C834 C835 1.372 . S
C835 C834 1.372 . S
C835 C836 1.400 . S
C835 C840 1.490 . S
C836 H826 0.930 . S
C836 C835 1.400 . S
C836 C839 1.386 . S
H837 C853 0.930 . S
H838 C854 0.931 . S
C839 H827 0.929 . S
C839 C833 1.390 . S
C839 C836 1.386 . S
C840 C835 1.490 . S
C840 C842 1.395 . S
C840 C843 1.403 . S
H841 C847 0.930 . S
C842 H828 0.930 . S
C842 C840 1.395 . S
C842 C845 1.403 . S
C843 C840 1.403 . S
C843 C844 1.524 . S
C843 C847 1.400 . S
C844 H829 0.960 . S
C844 H830 0.960 . S
C844 H831 0.960 . S
C844 C843 1.524 . S
C845 C842 1.403 . S
C845 C846 1.392 . S
C845 C849 1.495 . S
C846 C845 1.392 . S
C846 C847 1.385 . S
C846 C848 1.478 . S
C847 H841 0.930 . S
C847 C843 1.400 . S
C847 C846 1.385 . S
C848 C846 1.478 . S
C848 C850 1.381 . S
C848 C854 1.383 . S
C849 C845 1.495 . S
C849 H855 0.959 . S
C849 H856 0.961 . S
C849 H857 0.960 . S
C850 C848 1.381 . S
C850 C851 1.394 . S
C850 H858 0.930 . S
C851 C850 1.394 . S
C851 C852 1.383 . S
C851 H859 0.929 . S
C852 C851 1.383 . S
C852 C853 1.377 . S
C853 H837 0.930 . S
C853 C852 1.377 . S
C853 C854 1.379 . S
C854 H838 0.931 . S
C854 C848 1.383 . S
C854 C853 1.379 . S
H855 C849 0.959 . S
H856 C849 0.961 . S
H857 C849 0.960 . S
H858 C850 0.930 . S
H859 C851 0.929 . S
H860 C868 0.929 . S
H861 C870 0.930 . S
H862 C872 0.930 . S
H863 C875 0.929 . S
H864 C878 0.930 . S
H865 C880 0.960 . S
H866 C880 0.960 . S
H867 C880 0.960 . S
C868 H860 0.929 . S
C868 C869 1.377 . S
C868 C870 1.384 . S
C869 C868 1.377 . S
C869 C875 1.390 . S
C870 H861 0.930 . S
C870 C868 1.384 . S
C870 C871 1.372 . S
C871 C870 1.372 . S
C871 C872 1.400 . S
C871 C876 1.490 . S
C872 H862 0.930 . S
C872 C871 1.400 . S
C872 C875 1.386 . S
H873 C889 0.930 . S
H874 C890 0.931 . S
C875 H863 0.929 . S
C875 C869 1.390 . S
C875 C872 1.386 . S
C876 C871 1.490 . S
C876 C878 1.395 . S
C876 C879 1.403 . S
H877 C883 0.930 . S
C878 H864 0.930 . S
C878 C876 1.395 . S
C878 C881 1.403 . S
C879 C876 1.403 . S
C879 C880 1.524 . S
C879 C883 1.400 . S
C880 H865 0.960 . S
C880 H866 0.960 . S
C880 H867 0.960 . S
C880 C879 1.524 . S
C881 C878 1.403 . S
C881 C882 1.392 . S
C881 C885 1.495 . S
C882 C881 1.392 . S
C882 C883 1.385 . S
C882 C884 1.478 . S
C883 H877 0.930 . S
C883 C879 1.400 . S
C883 C882 1.385 . S
C884 C882 1.478 . S
C884 C886 1.381 . S
C884 C890 1.383 . S
C885 C881 1.495 . S
C885 H891 0.959 . S
C885 H892 0.961 . S
C885 H893 0.960 . S
C886 C884 1.381 . S
C886 C887 1.394 . S
C886 H894 0.930 . S
C887 C886 1.394 . S
C887 C888 1.383 . S
C887 H895 0.929 . S
C888 C887 1.383 . S
C888 C889 1.377 . S
C889 H873 0.930 . S
C889 C888 1.377 . S
C889 C890 1.379 . S
C890 H874 0.931 . S
C890 C884 1.383 . S
C890 C889 1.379 . S
H891 C885 0.959 . S
H892 C885 0.961 . S
H893 C885 0.960 . S
H894 C886 0.930 . S
H895 C887 0.929 . S
H896 C904 0.929 . S
H897 C906 0.930 . S
H898 C908 0.930 . S
H899 C911 0.929 . S
H900 C914 0.930 . S
H901 C916 0.960 . S
H902 C916 0.960 . S
H903 C916 0.960 . S
C904 H896 0.929 . S
C904 C905 1.377 . S
C904 C906 1.384 . S
C905 C904 1.377 . S
C905 C911 1.390 . S
C906 H897 0.930 . S
C906 C904 1.384 . S
C906 C907 1.372 . S
C907 C906 1.372 . S
C907 C908 1.400 . S
C907 C912 1.490 . S
C908 H898 0.930 . S
C908 C907 1.400 . S
C908 C911 1.386 . S
H909 C925 0.930 . S
H910 C926 0.931 . S
C911 H899 0.929 . S
C911 C905 1.390 . S
C911 C908 1.386 . S
C912 C907 1.490 . S
C912 C914 1.395 . S
C912 C915 1.403 . S
H913 C919 0.930 . S
C914 H900 0.930 . S
C914 C912 1.395 . S
C914 C917 1.403 . S
C915 C912 1.403 . S
C915 C916 1.524 . S
C915 C919 1.400 . S
C916 H901 0.960 . S
C916 H902 0.960 . S
C916 H903 0.960 . S
C916 C915 1.524 . S
C917 C914 1.403 . S
C917 C918 1.392 . S
C917 C921 1.495 . S
C918 C917 1.392 . S
C918 C919 1.385 . S
C918 C920 1.478 . S
C919 H913 0.930 . S
C919 C915 1.400 . S
C919 C918 1.385 . S
C920 C918 1.478 . S
C920 C922 1.381 . S
C920 C926 1.383 . S
C921 C917 1.495 . S
C921 H927 0.959 . S
C921 H928 0.961 . S
C921 H929 0.960 . S
C922 C920 1.381 . S
C922 C923 1.394 . S
C922 H930 0.930 . S
C923 C922 1.394 . S
C923 C924 1.383 . S
C923 H931 0.929 . S
C924 C923 1.383 . S
C924 C925 1.377 . S
C925 H909 0.930 . S
C925 C924 1.377 . S
C925 C926 1.379 . S
C926 H910 0.931 . S
C926 C920 1.383 . S
C926 C925 1.379 . S
H927 C921 0.959 . S
H928 C921 0.961 . S
H929 C921 0.960 . S
H930 C922 0.930 . S
H931 C923 0.929 . S
H932 C940 0.929 . S
H933 C942 0.930 . S
H934 C944 0.930 . S
H935 C947 0.929 . S
H936 C950 0.930 . S
H937 C952 0.960 . S
H938 C952 0.960 . S
H939 C952 0.960 . S
C940 H932 0.929 . S
C940 C941 1.377 . S
C940 C942 1.384 . S
C941 C940 1.377 . S
C941 C947 1.390 . S
C942 H933 0.930 . S
C942 C940 1.384 . S
C942 C943 1.372 . S
C943 C942 1.372 . S
C943 C944 1.400 . S
C943 C948 1.490 . S
C944 H934 0.930 . S
C944 C943 1.400 . S
C944 C947 1.386 . S
H945 C961 0.930 . S
H946 C962 0.931 . S
C947 H935 0.929 . S
C947 C941 1.390 . S
C947 C944 1.386 . S
C948 C943 1.490 . S
C948 C950 1.395 . S
C948 C951 1.403 . S
H949 C955 0.930 . S
C950 H936 0.930 . S
C950 C948 1.395 . S
C950 C953 1.403 . S
C951 C948 1.403 . S
C951 C952 1.524 . S
C951 C955 1.400 . S
C952 H937 0.960 . S
C952 H938 0.960 . S
C952 H939 0.960 . S
C952 C951 1.524 . S
C953 C950 1.403 . S
C953 C954 1.392 . S
C953 C957 1.495 . S
C954 C953 1.392 . S
C954 C955 1.385 . S
C954 C956 1.478 . S
C955 H949 0.930 . S
C955 C951 1.400 . S
C955 C954 1.385 . S
C956 C954 1.478 . S
C956 C958 1.381 . S
C956 C962 1.383 . S
C957 C953 1.495 . S
C957 H963 0.959 . S
C957 H964 0.961 . S
C957 H965 0.960 . S
C958 C956 1.381 . S
C958 C959 1.394 . S
C958 H966 0.930 . S
C959 C958 1.394 . S
C959 C960 1.383 . S
C959 H967 0.929 . S
C960 C959 1.383 . S
C960 C961 1.377 . S
C961 H945 0.930 . S
C961 C960 1.377 . S
C961 C962 1.379 . S
C962 H946 0.931 . S
C962 C956 1.383 . S
C962 C961 1.379 . S
H963 C957 0.959 . S
H964 C957 0.961 . S
H965 C957 0.960 . S
H966 C958 0.930 . S
H967 C959 0.929 . S
H968 C976 0.929 . S
H969 C978 0.930 . S
H970 C980 0.930 . S
H971 C983 0.929 . S
H972 C986 0.930 . S
H973 C988 0.960 . S
H974 C988 0.960 . S
H975 C988 0.960 . S
C976 H968 0.929 . S
C976 C977 1.377 . S
C976 C978 1.384 . S
C977 C976 1.377 . S
C977 C983 1.390 . S
C978 H969 0.930 . S
C978 C976 1.384 . S
C978 C979 1.372 . S
C979 C978 1.372 . S
C979 C980 1.400 . S
C979 C984 1.490 . S
C980 H970 0.930 . S
C980 C979 1.400 . S
C980 C983 1.386 . S
H981 C997 0.930 . S
H982 C998 0.931 . S
C983 H971 0.929 . S
C983 C977 1.390 . S
C983 C980 1.386 . S
C984 C979 1.490 . S
C984 C986 1.395 . S
C984 C987 1.403 . S
H985 C991 0.930 . S
C986 H972 0.930 . S
C986 C984 1.395 . S
C986 C989 1.403 . S
C987 C984 1.403 . S
C987 C988 1.524 . S
C987 C991 1.400 . S
C988 H973 0.960 . S
C988 H974 0.960 . S
C988 H975 0.960 . S
C988 C987 1.524 . S
C989 C986 1.403 . S
C989 C990 1.392 . S
C989 C993 1.495 . S
C990 C989 1.392 . S
C990 C991 1.385 . S
C990 C992 1.478 . S
C991 H985 0.930 . S
C991 C987 1.400 . S
C991 C990 1.385 . S
C992 C990 1.478 . S
C992 C994 1.381 . S
C992 C998 1.383 . S
C993 C989 1.495 . S
C993 H999 0.959 . S
C993 H1000 0.961 . S
C993 H1001 0.960 . S
C994 C992 1.381 . S
C994 C995 1.394 . S
C994 H1002 0.930 . S
C995 C994 1.394 . S
C995 C996 1.383 . S
C995 H1003 0.929 . S
C996 C995 1.383 . S
C996 C997 1.377 . S
C997 H981 0.930 . S
C997 C996 1.377 . S
C997 C998 1.379 . S
C998 H982 0.931 . S
C998 C992 1.383 . S
C998 C997 1.379 . S
H999 C993 0.959 . S
H1000 C993 0.961 . S
H1001 C993 0.960 . S
H1002 C994 0.930 . S
H1003 C995 0.929 . S
H1004 C1012 0.929 . S
H1005 C1014 0.930 . S
H1006 C1016 0.930 . S
H1007 C1019 0.929 . S
H1008 C1022 0.930 . S
H1009 C1024 0.960 . S
H1010 C1024 0.960 . S
H1011 C1024 0.960 . S
C1012 H1004 0.929 . S
C1012 C1013 1.377 . S
C1012 C1014 1.384 . S
C1013 C1012 1.377 . S
C1013 C1019 1.390 . S
C1014 H1005 0.930 . S
C1014 C1012 1.384 . S
C1014 C1015 1.372 . S
C1015 C1014 1.372 . S
C1015 C1016 1.400 . S
C1015 C1020 1.490 . S
C1016 H1006 0.930 . S
C1016 C1015 1.400 . S
C1016 C1019 1.386 . S
H1017 C1033 0.930 . S
H1018 C1034 0.931 . S
C1019 H1007 0.929 . S
C1019 C1013 1.390 . S
C1019 C1016 1.386 . S
C1020 C1015 1.490 . S
C1020 C1022 1.395 . S
C1020 C1023 1.403 . S
H1021 C1027 0.930 . S
C1022 H1008 0.930 . S
C1022 C1020 1.395 . S
C1022 C1025 1.403 . S
C1023 C1020 1.403 . S
C1023 C1024 1.524 . S
C1023 C1027 1.400 . S
C1024 H1009 0.960 . S
C1024 H1010 0.960 . S
C1024 H1011 0.960 . S
C1024 C1023 1.524 . S
C1025 C1022 1.403 . S
C1025 C1026 1.392 . S
C1025 C1029 1.495 . S
C1026 C1025 1.392 . S
C1026 C1027 1.385 . S
C1026 C1028 1.478 . S
C1027 H1021 0.930 . S
C1027 C1023 1.400 . S
C1027 C1026 1.385 . S
C1028 C1026 1.478 . S
C1028 C1030 1.381 . S
C1028 C1034 1.383 . S
C1029 C1025 1.495 . S
C1029 H1035 0.959 . S
C1029 H1036 0.961 . S
C1029 H1037 0.960 . S
C1030 C1028 1.381 . S
C1030 C1031 1.394 . S
C1030 H1038 0.930 . S
C1031 C1030 1.394 . S
C1031 C1032 1.383 . S
C1031 H1039 0.929 . S
C1032 C1031 1.383 . S
C1032 C1033 1.377 . S
C1033 H1017 0.930 . S
C1033 C1032 1.377 . S
C1033 C1034 1.379 . S
C1034 H1018 0.931 . S
C1034 C1028 1.383 . S
C1034 C1033 1.379 . S
H1035 C1029 0.959 . S
H1036 C1029 0.961 . S
H1037 C1029 0.960 . S
H1038 C1030 0.930 . S
H1039 C1031 0.929 . S
H1040 C1048 0.929 . S
H1041 C1050 0.930 . S
H1042 C1052 0.930 . S
H1043 C1055 0.929 . S
H1044 C1058 0.930 . S
H1045 C1060 0.960 . S
H1046 C1060 0.960 . S
H1047 C1060 0.960 . S
C1048 H1040 0.929 . S
C1048 C1049 1.377 . S
C1048 C1050 1.384 . S
C1049 C1048 1.377 . S
C1049 C1055 1.390 . S
C1050 H1041 0.930 . S
C1050 C1048 1.384 . S
C1050 C1051 1.372 . S
C1051 C1050 1.372 . S
C1051 C1052 1.400 . S
C1051 C1056 1.490 . S
C1052 H1042 0.930 . S
C1052 C1051 1.400 . S
C1052 C1055 1.386 . S
H1053 C1069 0.930 . S
H1054 C1070 0.931 . S
C1055 H1043 0.929 . S
C1055 C1049 1.390 . S
C1055 C1052 1.386 . S
C1056 C1051 1.490 . S
C1056 C1058 1.395 . S
C1056 C1059 1.403 . S
H1057 C1063 0.930 . S
C1058 H1044 0.930 . S
C1058 C1056 1.395 . S
C1058 C1061 1.403 . S
C1059 C1056 1.403 . S
C1059 C1060 1.524 . S
C1059 C1063 1.400 . S
C1060 H1045 0.960 . S
C1060 H1046 0.960 . S
C1060 H1047 0.960 . S
C1060 C1059 1.524 . S
C1061 C1058 1.403 . S
C1061 C1062 1.392 . S
C1061 C1065 1.495 . S
C1062 C1061 1.392 . S
C1062 C1063 1.385 . S
C1062 C1064 1.478 . S
C1063 H1057 0.930 . S
C1063 C1059 1.400 . S
C1063 C1062 1.385 . S
C1064 C1062 1.478 . S
C1064 C1066 1.381 . S
C1064 C1070 1.383 . S
C1065 C1061 1.495 . S
C1065 H1071 0.959 . S
C1065 H1072 0.961 . S
C1065 H1073 0.960 . S
C1066 C1064 1.381 . S
C1066 C1067 1.394 . S
C1066 H1074 0.930 . S
C1067 C1066 1.394 . S
C1067 C1068 1.383 . S
C1067 H1075 0.929 . S
C1068 C1067 1.383 . S
C1068 C1069 1.377 . S
C1069 H1053 0.930 . S
C1069 C1068 1.377 . S
C1069 C1070 1.379 . S
C1070 H1054 0.931 . S
C1070 C1064 1.383 . S
C1070 C1069 1.379 . S
H1071 C1065 0.959 . S
H1072 C1065 0.961 . S
H1073 C1065 0.960 . S
H1074 C1066 0.930 . S
H1075 C1067 0.929 . S
H1076 C1084 0.929 . S
H1077 C1086 0.930 . S
H1078 C1088 0.930 . S
H1079 C1091 0.929 . S
H1080 C1094 0.930 . S
H1081 C1096 0.960 . S
H1082 C1096 0.960 . S
H1083 C1096 0.960 . S
C1084 H1076 0.929 . S
C1084 C1085 1.377 . S
C1084 C1086 1.384 . S
C1085 C1084 1.377 . S
C1085 C1091 1.390 . S
C1086 H1077 0.930 . S
C1086 C1084 1.384 . S
C1086 C1087 1.372 . S
C1087 C1086 1.372 . S
C1087 C1088 1.400 . S
C1087 C1092 1.490 . S
C1088 H1078 0.930 . S
C1088 C1087 1.400 . S
C1088 C1091 1.386 . S
H1089 C1105 0.930 . S
H1090 C1106 0.931 . S
C1091 H1079 0.929 . S
C1091 C1085 1.390 . S
C1091 C1088 1.386 . S
C1092 C1087 1.490 . S
C1092 C1094 1.395 . S
C1092 C1095 1.403 . S
H1093 C1099 0.930 . S
C1094 H1080 0.930 . S
C1094 C1092 1.395 . S
C1094 C1097 1.403 . S
C1095 C1092 1.403 . S
C1095 C1096 1.524 . S
C1095 C1099 1.400 . S
C1096 H1081 0.960 . S
C1096 H1082 0.960 . S
C1096 H1083 0.960 . S
C1096 C1095 1.524 . S
C1097 C1094 1.403 . S
C1097 C1098 1.392 . S
C1097 C1101 1.495 . S
C1098 C1097 1.392 . S
C1098 C1099 1.385 . S
C1098 C1100 1.478 . S
C1099 H1093 0.930 . S
C1099 C1095 1.400 . S
C1099 C1098 1.385 . S
C1100 C1098 1.478 . S
C1100 C1102 1.381 . S
C1100 C1106 1.383 . S
C1101 C1097 1.495 . S
C1101 H1107 0.959 . S
C1101 H1108 0.961 . S
C1101 H1109 0.960 . S
C1102 C1100 1.381 . S
C1102 C1103 1.394 . S
C1102 H1110 0.930 . S
C1103 C1102 1.394 . S
C1103 C1104 1.383 . S
C1103 H1111 0.929 . S
C1104 C1103 1.383 . S
C1104 C1105 1.377 . S
C1105 H1089 0.930 . S
C1105 C1104 1.377 . S
C1105 C1106 1.379 . S
C1106 H1090 0.931 . S
C1106 C1100 1.383 . S
C1106 C1105 1.379 . S
H1107 C1101 0.959 . S
H1108 C1101 0.961 . S
H1109 C1101 0.960 . S
H1110 C1102 0.930 . S
H1111 C1103 0.929 . S
H1112 C1120 0.929 . S
H1113 C1122 0.930 . S
H1114 C1124 0.930 . S
H1115 C1127 0.929 . S
H1116 C1130 0.930 . S
H1117 C1132 0.960 . S
H1118 C1132 0.960 . S
H1119 C1132 0.960 . S
C1120 H1112 0.929 . S
C1120 C1121 1.377 . S
C1120 C1122 1.384 . S
C1121 C1120 1.377 . S
C1121 C1127 1.390 . S
C1122 H1113 0.930 . S
C1122 C1120 1.384 . S
C1122 C1123 1.372 . S
C1123 C1122 1.372 . S
C1123 C1124 1.400 . S
C1123 C1128 1.490 . S
C1124 H1114 0.930 . S
C1124 C1123 1.400 . S
C1124 C1127 1.386 . S
H1125 C1141 0.930 . S
H1126 C1142 0.931 . S
C1127 H1115 0.929 . S
C1127 C1121 1.390 . S
C1127 C1124 1.386 . S
C1128 C1123 1.490 . S
C1128 C1130 1.395 . S
C1128 C1131 1.403 . S
H1129 C1135 0.930 . S
C1130 H1116 0.930 . S
C1130 C1128 1.395 . S
C1130 C1133 1.403 . S
C1131 C1128 1.403 . S
C1131 C1132 1.524 . S
C1131 C1135 1.400 . S
C1132 H1117 0.960 . S
C1132 H1118 0.960 . S
C1132 H1119 0.960 . S
C1132 C1131 1.524 . S
C1133 C1130 1.403 . S
C1133 C1134 1.392 . S
C1133 C1137 1.495 . S
C1134 C1133 1.392 . S
C1134 C1135 1.385 . S
C1134 C1136 1.478 . S
C1135 H1129 0.930 . S
C1135 C1131 1.400 . S
C1135 C1134 1.385 . S
C1136 C1134 1.478 . S
C1136 C1138 1.381 . S
C1136 C1142 1.383 . S
C1137 C1133 1.495 . S
C1137 H1143 0.959 . S
C1137 H1144 0.961 . S
C1137 H1145 0.960 . S
C1138 C1136 1.381 . S
C1138 C1139 1.394 . S
C1138 H1146 0.930 . S
C1139 C1138 1.394 . S
C1139 C1140 1.383 . S
C1139 H1147 0.929 . S
C1140 C1139 1.383 . S
C1140 C1141 1.377 . S
C1141 H1125 0.930 . S
C1141 C1140 1.377 . S
C1141 C1142 1.379 . S
C1142 H1126 0.931 . S
C1142 C1136 1.383 . S
C1142 C1141 1.379 . S
H1143 C1137 0.959 . S
H1144 C1137 0.961 . S
H1145 C1137 0.960 . S
H1146 C1138 0.930 . S
H1147 C1139 0.929 . S
H1148 C1156 0.929 . S
H1149 C1158 0.930 . S
H1150 C1160 0.930 . S
H1151 C1163 0.929 . S
H1152 C1166 0.930 . S
H1153 C1168 0.960 . S
H1154 C1168 0.960 . S
H1155 C1168 0.960 . S
C1156 H1148 0.929 . S
C1156 C1157 1.377 . S
C1156 C1158 1.384 . S
C1157 C1156 1.377 . S
C1157 C1163 1.390 . S
C1158 H1149 0.930 . S
C1158 C1156 1.384 . S
C1158 C1159 1.372 . S
C1159 C1158 1.372 . S
C1159 C1160 1.400 . S
C1159 C1164 1.490 . S
C1160 H1150 0.930 . S
C1160 C1159 1.400 . S
C1160 C1163 1.386 . S
H1161 C1177 0.930 . S
H1162 C1178 0.931 . S
C1163 H1151 0.929 . S
C1163 C1157 1.390 . S
C1163 C1160 1.386 . S
C1164 C1159 1.490 . S
C1164 C1166 1.395 . S
C1164 C1167 1.403 . S
H1165 C1171 0.930 . S
C1166 H1152 0.930 . S
C1166 C1164 1.395 . S
C1166 C1169 1.403 . S
C1167 C1164 1.403 . S
C1167 C1168 1.524 . S
C1167 C1171 1.400 . S
C1168 H1153 0.960 . S
C1168 H1154 0.960 . S
C1168 H1155 0.960 . S
C1168 C1167 1.524 . S
C1169 C1166 1.403 . S
C1169 C1170 1.392 . S
C1169 C1173 1.495 . S
C1170 C1169 1.392 . S
C1170 C1171 1.385 . S
C1170 C1172 1.478 . S
C1171 H1165 0.930 . S
C1171 C1167 1.400 . S
C1171 C1170 1.385 . S
C1172 C1170 1.478 . S
C1172 C1174 1.381 . S
C1172 C1178 1.383 . S
C1173 C1169 1.495 . S
C1173 H1179 0.959 . S
C1173 H1180 0.961 . S
C1173 H1181 0.960 . S
C1174 C1172 1.381 . S
C1174 C1175 1.394 . S
C1174 H1182 0.930 . S
C1175 C1174 1.394 . S
C1175 C1176 1.383 . S
C1175 H1183 0.929 . S
C1176 C1175 1.383 . S
C1176 C1177 1.377 . S
C1177 H1161 0.930 . S
C1177 C1176 1.377 . S
C1177 C1178 1.379 . S
C1178 H1162 0.931 . S
C1178 C1172 1.383 . S
C1178 C1177 1.379 . S
H1179 C1173 0.959 . S
H1180 C1173 0.961 . S
H1181 C1173 0.960 . S
H1182 C1174 0.930 . S
H1183 C1175 0.929 . S
H1184 C1192 0.929 . S
H1185 C1194 0.930 . S
H1186 C1196 0.930 . S
H1187 C1199 0.929 . S
H1188 C1202 0.930 . S
H1189 C1204 0.960 . S
H1190 C1204 0.960 . S
H1191 C1204 0.960 . S
C1192 H1184 0.929 . S
C1192 C1193 1.377 . S
C1192 C1194 1.384 . S
C1193 C1192 1.377 . S
C1193 C1199 1.390 . S
C1194 H1185 0.930 . S
C1194 C1192 1.384 . S
C1194 C1195 1.372 . S
C1195 C1194 1.372 . S
C1195 C1196 1.400 . S
C1195 C1200 1.490 . S
C1196 H1186 0.930 . S
C1196 C1195 1.400 . S
C1196 C1199 1.386 . S
H1197 C1213 0.930 . S
H1198 C1214 0.931 . S
C1199 H1187 0.929 . S
C1199 C1193 1.390 . S
C1199 C1196 1.386 . S
C1200 C1195 1.490 . S
C1200 C1202 1.395 . S
C1200 C1203 1.403 . S
H1201 C1207 0.930 . S
C1202 H1188 0.930 . S
C1202 C1200 1.395 . S
C1202 C1205 1.403 . S
C1203 C1200 1.403 . S
C1203 C1204 1.524 . S
C1203 C1207 1.400 . S
C1204 H1189 0.960 . S
C1204 H1190 0.960 . S
C1204 H1191 0.960 . S
C1204 C1203 1.524 . S
C1205 C1202 1.403 . S
C1205 C1206 1.392 . S
C1205 C1209 1.495 . S
C1206 C1205 1.392 . S
C1206 C1207 1.385 . S
C1206 C1208 1.478 . S
C1207 H1201 0.930 . S
C1207 C1203 1.400 . S
C1207 C1206 1.385 . S
C1208 C1206 1.478 . S
C1208 C1210 1.381 . S
C1208 C1214 1.383 . S
C1209 C1205 1.495 . S
C1209 H1215 0.959 . S
C1209 H1216 0.961 . S
C1209 H1217 0.960 . S
C1210 C1208 1.381 . S
C1210 C1211 1.394 . S
C1210 H1218 0.930 . S
C1211 C1210 1.394 . S
C1211 C1212 1.383 . S
C1211 H1219 0.890 1_556 S
C1212 C1211 1.383 . S
C1212 C1213 1.377 . S
C1213 H1197 0.930 . S
C1213 C1212 1.377 . S
C1213 C1214 1.379 . S
C1214 H1198 0.931 . S
C1214 C1208 1.383 . S
C1214 C1213 1.379 . S
H1215 C1209 0.959 . S
H1216 C1209 0.961 . S
H1217 C1209 0.960 . S
H1218 C1210 0.930 . S
H1219 C1211 0.890 1_554 S
H1220 C1228 0.929 . S
H1221 C1230 0.930 . S
H1222 C1232 0.930 . S
H1223 C1235 0.929 . S
H1224 C1238 0.930 . S
H1225 C1240 0.960 . S
H1226 C1240 0.960 . S
H1227 C1240 0.960 . S
C1228 H1220 0.929 . S
C1228 C1229 1.377 . S
C1228 C1230 1.384 . S
C1229 C1228 1.377 . S
C1229 C1235 1.390 . S
C1230 H1221 0.930 . S
C1230 C1228 1.384 . S
C1230 C1231 1.372 . S
C1231 C1230 1.372 . S
C1231 C1232 1.400 . S
C1231 C1236 1.490 . S
C1232 H1222 0.930 . S
C1232 C1231 1.400 . S
C1232 C1235 1.386 . S
H1233 C1249 0.930 . S
H1234 C1250 0.931 . S
C1235 H1223 0.929 . S
C1235 C1229 1.390 . S
C1235 C1232 1.386 . S
C1236 C1231 1.490 . S
C1236 C1238 1.395 . S
C1236 C1239 1.403 . S
H1237 C1243 0.930 . S
C1238 H1224 0.930 . S
C1238 C1236 1.395 . S
C1238 C1241 1.403 . S
C1239 C1236 1.403 . S
C1239 C1240 1.524 . S
C1239 C1243 1.400 . S
C1240 H1225 0.960 . S
C1240 H1226 0.960 . S
C1240 H1227 0.960 . S
C1240 C1239 1.524 . S
C1241 C1238 1.403 . S
C1241 C1242 1.392 . S
C1241 C1245 1.495 . S
C1242 C1241 1.392 . S
C1242 C1243 1.385 . S
C1242 C1244 1.478 . S
C1243 H1237 0.930 . S
C1243 C1239 1.400 . S
C1243 C1242 1.385 . S
C1244 C1242 1.478 . S
C1244 C1246 1.381 . S
C1244 C1250 1.383 . S
C1245 C1241 1.495 . S
C1245 H1251 0.959 . S
C1245 H1252 0.961 . S
C1245 H1253 0.960 . S
C1246 C1244 1.381 . S
C1246 C1247 1.394 . S
C1246 H1254 0.930 . S
C1247 C1246 1.394 . S
C1247 C1248 1.383 . S
C1247 H1255 0.929 1_554 S
C1248 C1247 1.383 . S
C1248 C1249 1.377 . S
C1249 H1233 0.930 . S
C1249 C1248 1.377 . S
C1249 C1250 1.379 . S
C1250 H1234 0.931 . S
C1250 C1244 1.383 . S
C1250 C1249 1.379 . S
H1251 C1245 0.959 . S
H1252 C1245 0.961 . S
H1253 C1245 0.960 . S
H1254 C1246 0.930 . S
H1255 C1247 0.929 1_556 S
H1256 C1264 0.929 . S
H1257 C1266 0.930 . S
H1258 C1268 0.930 . S
H1259 C1271 0.929 . S
H1260 C1274 0.930 . S
H1261 C1276 0.960 . S
H1262 C1276 0.960 . S
H1263 C1276 0.960 . S
C1264 H1256 0.929 . S
C1264 C1265 1.377 . S
C1264 C1266 1.384 . S
C1265 C1264 1.377 . S
C1265 C1271 1.390 . S
C1266 H1257 0.930 . S
C1266 C1264 1.384 . S
C1266 C1267 1.372 . S
C1267 C1266 1.372 . S
C1267 C1268 1.400 . S
C1267 C1272 1.490 . S
C1268 H1258 0.930 . S
C1268 C1267 1.400 . S
C1268 C1271 1.386 . S
H1269 C1285 0.930 . S
H1270 C1286 0.931 . S
C1271 H1259 0.929 . S
C1271 C1265 1.390 . S
C1271 C1268 1.386 . S
C1272 C1267 1.490 . S
C1272 C1274 1.395 . S
C1272 C1275 1.403 . S
H1273 C1279 0.930 . S
C1274 H1260 0.930 . S
C1274 C1272 1.395 . S
C1274 C1277 1.403 . S
C1275 C1272 1.403 . S
C1275 C1276 1.524 . S
C1275 C1279 1.400 . S
C1276 H1261 0.960 . S
C1276 H1262 0.960 . S
C1276 H1263 0.960 . S
C1276 C1275 1.524 . S
C1277 C1274 1.403 . S
C1277 C1278 1.392 . S
C1277 C1281 1.495 . S
C1278 C1277 1.392 . S
C1278 C1279 1.385 . S
C1278 C1280 1.478 . S
C1279 H1273 0.930 . S
C1279 C1275 1.400 . S
C1279 C1278 1.385 . S
C1280 C1278 1.478 . S
C1280 C1282 1.381 . S
C1280 C1286 1.383 . S
C1281 C1277 1.495 . S
C1281 H1287 0.959 . S
C1281 H1288 0.961 . S
C1281 H1289 0.960 . S
C1282 C1280 1.381 . S
C1282 C1283 1.394 . S
C1282 H1290 0.930 . S
C1283 C1282 1.394 . S
C1283 C1284 1.383 . S
C1283 H1291 0.929 . S
C1284 C1283 1.383 . S
C1284 C1285 1.377 . S
C1285 H1269 0.930 . S
C1285 C1284 1.377 . S
C1285 C1286 1.379 . S
C1286 H1270 0.931 . S
C1286 C1280 1.383 . S
C1286 C1285 1.379 . S
H1287 C1281 0.959 . S
H1288 C1281 0.961 . S
H1289 C1281 0.960 . S
H1290 C1282 0.930 . S
H1291 C1283 0.929 . S
H1292 C1300 0.929 . S
H1293 C1302 0.930 . S
H1294 C1304 0.930 . S
H1295 C1307 0.929 . S
H1296 C1310 0.930 . S
H1297 C1312 0.960 . S
H1298 C1312 0.960 . S
H1299 C1312 0.960 . S
C1300 H1292 0.929 . S
C1300 C1301 1.377 . S
C1300 C1302 1.384 . S
C1301 C1300 1.377 . S
C1301 C1307 1.390 . S
C1302 H1293 0.930 . S
C1302 C1300 1.384 . S
C1302 C1303 1.372 . S
C1303 C1302 1.372 . S
C1303 C1304 1.400 . S
C1303 C1308 1.490 . S
C1304 H1294 0.930 . S
C1304 C1303 1.400 . S
C1304 C1307 1.386 . S
H1305 C1321 0.930 . S
H1306 C1322 0.931 . S
C1307 H1295 0.929 . S
C1307 C1301 1.390 . S
C1307 C1304 1.386 . S
C1308 C1303 1.490 . S
C1308 C1310 1.395 . S
C1308 C1311 1.403 . S
H1309 C1315 0.930 . S
C1310 H1296 0.930 . S
C1310 C1308 1.395 . S
C1310 C1313 1.403 . S
C1311 C1308 1.403 . S
C1311 C1312 1.524 . S
C1311 C1315 1.400 . S
C1312 H1297 0.960 . S
C1312 H1298 0.960 . S
C1312 H1299 0.960 . S
C1312 C1311 1.524 . S
C1313 C1310 1.403 . S
C1313 C1314 1.392 . S
C1313 C1317 1.495 . S
C1314 C1313 1.392 . S
C1314 C1315 1.385 . S
C1314 C1316 1.478 . S
C1315 H1309 0.930 . S
C1315 C1311 1.400 . S
C1315 C1314 1.385 . S
C1316 C1314 1.478 . S
C1316 C1318 1.381 . S
C1316 C1322 1.383 . S
C1317 C1313 1.495 . S
C1317 H1323 0.959 . S
C1317 H1324 0.961 . S
C1317 H1325 0.960 . S
C1318 C1316 1.381 . S
C1318 C1319 1.394 . S
C1318 H1326 0.930 . S
C1319 C1318 1.394 . S
C1319 C1320 1.383 . S
C1319 H1327 0.929 1_556 S
C1320 C1319 1.383 . S
C1320 C1321 1.377 . S
C1321 H1305 0.930 . S
C1321 C1320 1.377 . S
C1321 C1322 1.379 . S
C1322 H1306 0.931 . S
C1322 C1316 1.383 . S
C1322 C1321 1.379 . S
H1323 C1317 0.959 . S
H1324 C1317 0.961 . S
H1325 C1317 0.960 . S
H1326 C1318 0.930 . S
H1327 C1319 0.929 1_554 S
H1328 C1336 0.929 . S
H1329 C1338 0.930 . S
H1330 C1340 0.930 . S
H1331 C1343 0.929 . S
H1332 C1346 0.930 . S
H1333 C1348 0.960 . S
H1334 C1348 0.960 . S
H1335 C1348 0.960 . S
C1336 H1328 0.929 . S
C1336 C1337 1.377 . S
C1336 C1338 1.384 . S
C1337 C1336 1.377 . S
C1337 C1343 1.390 . S
C1338 H1329 0.930 . S
C1338 C1336 1.384 . S
C1338 C1339 1.372 . S
C1339 C1338 1.372 . S
C1339 C1340 1.400 . S
C1339 C1344 1.490 . S
C1340 H1330 0.930 . S
C1340 C1339 1.400 . S
C1340 C1343 1.386 . S
H1341 C1357 0.930 . S
H1342 C1358 0.931 . S
C1343 H1331 0.929 . S
C1343 C1337 1.390 . S
C1343 C1340 1.386 . S
C1344 C1339 1.490 . S
C1344 C1346 1.395 . S
C1344 C1347 1.403 . S
H1345 C1351 0.930 . S
C1346 H1332 0.930 . S
C1346 C1344 1.395 . S
C1346 C1349 1.403 . S
C1347 C1344 1.403 . S
C1347 C1348 1.524 . S
C1347 C1351 1.400 . S
C1348 H1333 0.960 . S
C1348 H1334 0.960 . S
C1348 H1335 0.960 . S
C1348 C1347 1.524 . S
C1349 C1346 1.403 . S
C1349 C1350 1.392 . S
C1349 C1353 1.495 . S
C1350 C1349 1.392 . S
C1350 C1351 1.385 . S
C1350 C1352 1.478 . S
C1351 H1345 0.930 . S
C1351 C1347 1.400 . S
C1351 C1350 1.385 . S
C1352 C1350 1.478 . S
C1352 C1354 1.381 . S
C1352 C1358 1.383 . S
C1353 C1349 1.495 . S
C1353 H1359 0.959 . S
C1353 H1360 0.961 . S
C1353 H1361 0.960 . S
C1354 C1352 1.381 . S
C1354 C1355 1.394 . S
C1354 H1362 0.930 . S
C1355 C1354 1.394 . S
C1355 C1356 1.383 . S
C1355 H1363 0.929 . S
C1356 C1355 1.383 . S
C1356 C1357 1.377 . S
C1357 H1341 0.930 . S
C1357 C1356 1.377 . S
C1357 C1358 1.379 . S
C1358 H1342 0.931 . S
C1358 C1352 1.383 . S
C1358 C1357 1.379 . S
H1359 C1353 0.959 . S
H1360 C1353 0.961 . S
H1361 C1353 0.960 . S
H1362 C1354 0.930 . S
H1363 C1355 0.929 . S
H1364 C1372 0.929 . S
H1365 C1374 0.930 . S
H1366 C1376 0.930 . S
H1367 C1379 0.929 . S
H1368 C1382 0.930 . S
H1369 C1384 0.960 . S
H1370 C1384 0.960 . S
H1371 C1384 0.960 . S
C1372 H1364 0.929 . S
C1372 C1373 1.377 . S
C1372 C1374 1.384 . S
C1373 C1372 1.377 . S
C1373 C1379 1.390 . S
C1374 H1365 0.930 . S
C1374 C1372 1.384 . S
C1374 C1375 1.372 . S
C1375 C1374 1.372 . S
C1375 C1376 1.400 . S
C1375 C1380 1.490 . S
C1376 H1366 0.930 . S
C1376 C1375 1.400 . S
C1376 C1379 1.386 . S
H1377 C1393 0.930 . S
H1378 C1394 0.931 . S
C1379 H1367 0.929 . S
C1379 C1373 1.390 . S
C1379 C1376 1.386 . S
C1380 C1375 1.490 . S
C1380 C1382 1.395 . S
C1380 C1383 1.403 . S
H1381 C1387 0.930 . S
C1382 H1368 0.930 . S
C1382 C1380 1.395 . S
C1382 C1385 1.403 . S
C1383 C1380 1.403 . S
C1383 C1384 1.524 . S
C1383 C1387 1.400 . S
C1384 H1369 0.960 . S
C1384 H1370 0.960 . S
C1384 H1371 0.960 . S
C1384 C1383 1.524 . S
C1385 C1382 1.403 . S
C1385 C1386 1.392 . S
C1385 C1389 1.495 . S
C1386 C1385 1.392 . S
C1386 C1387 1.385 . S
C1386 C1388 1.478 . S
C1387 H1381 0.930 . S
C1387 C1383 1.400 . S
C1387 C1386 1.385 . S
C1388 C1386 1.478 . S
C1388 C1390 1.381 . S
C1388 C1394 1.383 . S
C1389 C1385 1.495 . S
C1389 H1395 0.959 . S
C1389 H1396 0.961 . S
C1389 H1397 0.960 . S
C1390 C1388 1.381 . S
C1390 C1391 1.394 . S
C1390 H1398 0.930 . S
C1391 C1390 1.394 . S
C1391 C1392 1.383 . S
C1391 H1399 0.929 . S
C1392 C1391 1.383 . S
C1392 C1393 1.377 . S
C1393 H1377 0.930 . S
C1393 C1392 1.377 . S
C1393 C1394 1.379 . S
C1394 H1378 0.931 . S
C1394 C1388 1.383 . S
C1394 C1393 1.379 . S
H1395 C1389 0.959 . S
H1396 C1389 0.961 . S
H1397 C1389 0.960 . S
H1398 C1390 0.930 . S
H1399 C1391 0.929 . S
H1400 C1408 0.929 . S
H1401 C1410 0.930 . S
H1402 C1412 0.930 . S
H1403 C1415 0.929 . S
H1404 C1418 0.930 . S
H1405 C1420 0.960 . S
H1406 C1420 0.960 . S
H1407 C1420 0.960 . S
C1408 H1400 0.929 . S
C1408 C1409 1.377 . S
C1408 C1410 1.384 . S
C1409 C1408 1.377 . S
C1409 C1415 1.390 . S
C1410 H1401 0.930 . S
C1410 C1408 1.384 . S
C1410 C1411 1.372 . S
C1411 C1410 1.372 . S
C1411 C1412 1.400 . S
C1411 C1416 1.490 . S
C1412 H1402 0.930 . S
C1412 C1411 1.400 . S
C1412 C1415 1.386 . S
H1413 C1429 0.930 . S
H1414 C1430 0.931 . S
C1415 H1403 0.929 . S
C1415 C1409 1.390 . S
C1415 C1412 1.386 . S
C1416 C1411 1.490 . S
C1416 C1418 1.395 . S
C1416 C1419 1.403 . S
H1417 C1423 0.930 . S
C1418 H1404 0.930 . S
C1418 C1416 1.395 . S
C1418 C1421 1.403 . S
C1419 C1416 1.403 . S
C1419 C1420 1.524 . S
C1419 C1423 1.400 . S
C1420 H1405 0.960 . S
C1420 H1406 0.960 . S
C1420 H1407 0.960 . S
C1420 C1419 1.524 . S
C1421 C1418 1.403 . S
C1421 C1422 1.392 . S
C1421 C1425 1.495 . S
C1422 C1421 1.392 . S
C1422 C1423 1.385 . S
C1422 C1424 1.478 . S
C1423 H1417 0.930 . S
C1423 C1419 1.400 . S
C1423 C1422 1.385 . S
C1424 C1422 1.478 . S
C1424 C1426 1.381 . S
C1424 C1430 1.383 . S
C1425 C1421 1.495 . S
C1425 H1431 0.959 . S
C1425 H1432 0.961 . S
C1425 H1433 0.960 . S
C1426 C1424 1.381 . S
C1426 C1427 1.394 . S
C1426 H1434 0.930 . S
C1427 C1426 1.394 . S
C1427 C1428 1.383 . S
C1427 H1435 0.929 . S
C1428 C1427 1.383 . S
C1428 C1429 1.377 . S
C1429 H1413 0.930 . S
C1429 C1428 1.377 . S
C1429 C1430 1.379 . S
C1430 H1414 0.931 . S
C1430 C1424 1.383 . S
C1430 C1429 1.379 . S
H1431 C1425 0.959 . S
H1432 C1425 0.961 . S
H1433 C1425 0.960 . S
H1434 C1426 0.930 . S
H1435 C1427 0.929 . S
H1436 C1444 0.929 . S
H1437 C1446 0.930 . S
H1438 C1448 0.930 . S
H1439 C1451 0.929 . S
H1440 C1454 0.930 . S
H1441 C1456 0.960 . S
H1442 C1456 0.960 . S
H1443 C1456 0.960 . S
C1444 H1436 0.929 . S
C1444 C1445 1.377 . S
C1444 C1446 1.384 . S
C1445 C1444 1.377 . S
C1445 C1451 1.390 . S
C1446 H1437 0.930 . S
C1446 C1444 1.384 . S
C1446 C1447 1.372 . S
C1447 C1446 1.372 . S
C1447 C1448 1.400 . S
C1447 C1452 1.490 . S
C1448 H1438 0.930 . S
C1448 C1447 1.400 . S
C1448 C1451 1.386 . S
H1449 C1465 0.930 . S
H1450 C1466 0.931 . S
C1451 H1439 0.929 . S
C1451 C1445 1.390 . S
C1451 C1448 1.386 . S
C1452 C1447 1.490 . S
C1452 C1454 1.395 . S
C1452 C1455 1.403 . S
H1453 C1459 0.930 . S
C1454 H1440 0.930 . S
C1454 C1452 1.395 . S
C1454 C1457 1.403 . S
C1455 C1452 1.403 . S
C1455 C1456 1.524 . S
C1455 C1459 1.400 . S
C1456 H1441 0.960 . S
C1456 H1442 0.960 . S
C1456 H1443 0.960 . S
C1456 C1455 1.524 . S
C1457 C1454 1.403 . S
C1457 C1458 1.392 . S
C1457 C1461 1.495 . S
C1458 C1457 1.392 . S
C1458 C1459 1.385 . S
C1458 C1460 1.478 . S
C1459 H1453 0.930 . S
C1459 C1455 1.400 . S
C1459 C1458 1.385 . S
C1460 C1458 1.478 . S
C1460 C1462 1.381 . S
C1460 C1466 1.383 . S
C1461 C1457 1.495 . S
C1461 H1467 0.959 . S
C1461 H1468 0.961 . S
C1461 H1469 0.960 . S
C1462 C1460 1.381 . S
C1462 C1463 1.394 . S
C1462 H1470 0.930 . S
C1463 C1462 1.394 . S
C1463 C1464 1.383 . S
C1463 H1471 0.929 . S
C1464 C1463 1.383 . S
C1464 C1465 1.377 . S
C1465 H1449 0.930 . S
C1465 C1464 1.377 . S
C1465 C1466 1.379 . S
C1466 H1450 0.931 . S
C1466 C1460 1.383 . S
C1466 C1465 1.379 . S
H1467 C1461 0.959 . S
H1468 C1461 0.961 . S
H1469 C1461 0.960 . S
H1470 C1462 0.930 . S
H1471 C1463 0.929 . S
H1472 C1480 0.929 . S
H1473 C1482 0.930 . S
H1474 C1484 0.930 . S
H1475 C1487 0.929 . S
H1476 C1490 0.930 . S
H1477 C1492 0.960 . S
H1478 C1492 0.960 . S
H1479 C1492 0.960 . S
C1480 H1472 0.929 . S
C1480 C1481 1.377 . S
C1480 C1482 1.384 . S
C1481 C1480 1.377 . S
C1481 C1487 1.390 . S
C1482 H1473 0.930 . S
C1482 C1480 1.384 . S
C1482 C1483 1.372 . S
C1483 C1482 1.372 . S
C1483 C1484 1.400 . S
C1483 C1488 1.490 . S
C1484 H1474 0.930 . S
C1484 C1483 1.400 . S
C1484 C1487 1.386 . S
H1485 C1501 0.930 . S
H1486 C1502 0.931 . S
C1487 H1475 0.929 . S
C1487 C1481 1.390 . S
C1487 C1484 1.386 . S
C1488 C1483 1.490 . S
C1488 C1490 1.395 . S
C1488 C1491 1.403 . S
H1489 C1495 0.930 . S
C1490 H1476 0.930 . S
C1490 C1488 1.395 . S
C1490 C1493 1.403 . S
C1491 C1488 1.403 . S
C1491 C1492 1.524 . S
C1491 C1495 1.400 . S
C1492 H1477 0.960 . S
C1492 H1478 0.960 . S
C1492 H1479 0.960 . S
C1492 C1491 1.524 . S
C1493 C1490 1.403 . S
C1493 C1494 1.392 . S
C1493 C1497 1.495 . S
C1494 C1493 1.392 . S
C1494 C1495 1.385 . S
C1494 C1496 1.478 . S
C1495 H1489 0.930 . S
C1495 C1491 1.400 . S
C1495 C1494 1.385 . S
C1496 C1494 1.478 . S
C1496 C1498 1.381 . S
C1496 C1502 1.383 . S
C1497 C1493 1.495 . S
C1497 H1503 0.959 . S
C1497 H1504 0.961 . S
C1497 H1505 0.960 . S
C1498 C1496 1.381 . S
C1498 C1499 1.394 . S
C1498 H1506 0.930 . S
C1499 C1498 1.394 . S
C1499 C1500 1.383 . S
C1499 H1507 0.929 . S
C1500 C1499 1.383 . S
C1500 C1501 1.377 . S
C1501 H1485 0.930 . S
C1501 C1500 1.377 . S
C1501 C1502 1.379 . S
C1502 H1486 0.931 . S
C1502 C1496 1.383 . S
C1502 C1501 1.379 . S
H1503 C1497 0.959 . S
H1504 C1497 0.961 . S
H1505 C1497 0.960 . S
H1506 C1498 0.930 . S
H1507 C1499 0.929 . S
H1508 C1516 0.929 . S
H1509 C1518 0.930 . S
H1510 C1520 0.930 . S
H1511 C1523 0.929 . S
H1512 C1526 0.930 . S
H1513 C1528 0.960 . S
H1514 C1528 0.960 . S
H1515 C1528 0.960 . S
C1516 H1508 0.929 . S
C1516 C1517 1.377 . S
C1516 C1518 1.384 . S
C1517 C1516 1.377 . S
C1517 C1523 1.390 . S
C1518 H1509 0.930 . S
C1518 C1516 1.384 . S
C1518 C1519 1.372 . S
C1519 C1518 1.372 . S
C1519 C1520 1.400 . S
C1519 C1524 1.490 . S
C1520 H1510 0.930 . S
C1520 C1519 1.400 . S
C1520 C1523 1.386 . S
H1521 C1537 0.930 . S
H1522 C1538 0.931 . S
C1523 H1511 0.929 . S
C1523 C1517 1.390 . S
C1523 C1520 1.386 . S
C1524 C1519 1.490 . S
C1524 C1526 1.395 . S
C1524 C1527 1.403 . S
H1525 C1531 0.930 . S
C1526 H1512 0.930 . S
C1526 C1524 1.395 . S
C1526 C1529 1.403 . S
C1527 C1524 1.403 . S
C1527 C1528 1.524 . S
C1527 C1531 1.400 . S
C1528 H1513 0.960 . S
C1528 H1514 0.960 . S
C1528 H1515 0.960 . S
C1528 C1527 1.524 . S
C1529 C1526 1.403 . S
C1529 C1530 1.392 . S
C1529 C1533 1.495 . S
C1530 C1529 1.392 . S
C1530 C1531 1.385 . S
C1530 C1532 1.478 . S
C1531 H1525 0.930 . S
C1531 C1527 1.400 . S
C1531 C1530 1.385 . S
C1532 C1530 1.478 . S
C1532 C1534 1.381 . S
C1532 C1538 1.383 . S
C1533 C1529 1.495 . S
C1533 H1539 0.959 . S
C1533 H1540 0.961 . S
C1533 H1541 0.960 . S
C1534 C1532 1.381 . S
C1534 C1535 1.394 . S
C1534 H1542 0.930 . S
C1535 C1534 1.394 . S
C1535 C1536 1.383 . S
C1535 H1543 0.929 . S
C1536 C1535 1.383 . S
C1536 C1537 1.377 . S
C1537 H1521 0.930 . S
C1537 C1536 1.377 . S
C1537 C1538 1.379 . S
C1538 H1522 0.931 . S
C1538 C1532 1.383 . S
C1538 C1537 1.379 . S
H1539 C1533 0.959 . S
H1540 C1533 0.961 . S
H1541 C1533 0.960 . S
H1542 C1534 0.930 . S
H1543 C1535 0.929 . S
H1544 C1552 0.929 . S
H1545 C1554 0.930 . S
H1546 C1556 0.930 . S
H1547 C1559 0.929 . S
H1548 C1562 0.930 . S
H1549 C1564 0.960 . S
H1550 C1564 0.960 . S
H1551 C1564 0.960 . S
C1552 H1544 0.929 . S
C1552 C1553 1.377 . S
C1552 C1554 1.384 . S
C1553 C1552 1.377 . S
C1553 C1559 1.390 . S
C1554 H1545 0.930 . S
C1554 C1552 1.384 . S
C1554 C1555 1.372 . S
C1555 C1554 1.372 . S
C1555 C1556 1.400 . S
C1555 C1560 1.490 . S
C1556 H1546 0.930 . S
C1556 C1555 1.400 . S
C1556 C1559 1.386 . S
H1557 C1573 0.930 . S
H1558 C1574 0.931 . S
C1559 H1547 0.929 . S
C1559 C1553 1.390 . S
C1559 C1556 1.386 . S
C1560 C1555 1.490 . S
C1560 C1562 1.395 . S
C1560 C1563 1.403 . S
H1561 C1567 0.930 . S
C1562 H1548 0.930 . S
C1562 C1560 1.395 . S
C1562 C1565 1.403 . S
C1563 C1560 1.403 . S
C1563 C1564 1.524 . S
C1563 C1567 1.400 . S
C1564 H1549 0.960 . S
C1564 H1550 0.960 . S
C1564 H1551 0.960 . S
C1564 C1563 1.524 . S
C1565 C1562 1.403 . S
C1565 C1566 1.392 . S
C1565 C1569 1.495 . S
C1566 C1565 1.392 . S
C1566 C1567 1.385 . S
C1566 C1568 1.478 . S
C1567 H1561 0.930 . S
C1567 C1563 1.400 . S
C1567 C1566 1.385 . S
C1568 C1566 1.478 . S
C1568 C1570 1.381 . S
C1568 C1574 1.383 . S
C1569 C1565 1.495 . S
C1569 H1575 0.959 . S
C1569 H1576 0.961 . S
C1569 H1577 0.960 . S
C1570 C1568 1.381 . S
C1570 C1571 1.394 . S
C1570 H1578 0.930 . S
C1571 C1570 1.394 . S
C1571 C1572 1.383 . S
C1571 H1579 0.929 . S
C1572 C1571 1.383 . S
C1572 C1573 1.377 . S
C1573 H1557 0.930 . S
C1573 C1572 1.377 . S
C1573 C1574 1.379 . S
C1574 H1558 0.931 . S
C1574 C1568 1.383 . S
C1574 C1573 1.379 . S
H1575 C1569 0.959 . S
H1576 C1569 0.961 . S
H1577 C1569 0.960 . S
H1578 C1570 0.930 . S
H1579 C1571 0.929 . S
H1580 C1588 0.929 . S
H1581 C1590 0.930 . S
H1582 C1592 0.930 . S
H1583 C1595 0.929 . S
H1584 C1598 0.930 . S
H1585 C1600 0.960 . S
H1586 C1600 0.960 . S
H1587 C1600 0.960 . S
C1588 H1580 0.929 . S
C1588 C1589 1.377 . S
C1588 C1590 1.384 . S
C1589 C1588 1.377 . S
C1589 C1595 1.390 . S
C1590 H1581 0.930 . S
C1590 C1588 1.384 . S
C1590 C1591 1.372 . S
C1591 C1590 1.372 . S
C1591 C1592 1.400 . S
C1591 C1596 1.490 . S
C1592 H1582 0.930 . S
C1592 C1591 1.400 . S
C1592 C1595 1.386 . S
H1593 C1609 0.930 . S
H1594 C1610 0.931 . S
C1595 H1583 0.929 . S
C1595 C1589 1.390 . S
C1595 C1592 1.386 . S
C1596 C1591 1.490 . S
C1596 C1598 1.395 . S
C1596 C1599 1.403 . S
H1597 C1603 0.930 . S
C1598 H1584 0.930 . S
C1598 C1596 1.395 . S
C1598 C1601 1.403 . S
C1599 C1596 1.403 . S
C1599 C1600 1.524 . S
C1599 C1603 1.400 . S
C1600 H1585 0.960 . S
C1600 H1586 0.960 . S
C1600 H1587 0.960 . S
C1600 C1599 1.524 . S
C1601 C1598 1.403 . S
C1601 C1602 1.392 . S
C1601 C1605 1.495 . S
C1602 C1601 1.392 . S
C1602 C1603 1.385 . S
C1602 C1604 1.478 . S
C1603 H1597 0.930 . S
C1603 C1599 1.400 . S
C1603 C1602 1.385 . S
C1604 C1602 1.478 . S
C1604 C1606 1.381 . S
C1604 C1610 1.383 . S
C1605 C1601 1.495 . S
C1605 H1611 0.959 . S
C1605 H1612 0.961 . S
C1605 H1613 0.960 . S
C1606 C1604 1.381 . S
C1606 C1607 1.394 . S
C1606 H1614 0.930 . S
C1607 C1606 1.394 . S
C1607 C1608 1.383 . S
C1607 H1615 0.929 . S
C1608 C1607 1.383 . S
C1608 C1609 1.377 . S
C1609 H1593 0.930 . S
C1609 C1608 1.377 . S
C1609 C1610 1.379 . S
C1610 H1594 0.931 . S
C1610 C1604 1.383 . S
C1610 C1609 1.379 . S
H1611 C1605 0.959 . S
H1612 C1605 0.961 . S
H1613 C1605 0.960 . S
H1614 C1606 0.930 . S
H1615 C1607 0.929 . S
H1616 C1624 0.929 . S
H1617 C1626 0.930 . S
H1618 C1628 0.930 . S
H1619 C1631 0.929 . S
H1620 C1634 0.930 . S
H1621 C1636 0.960 . S
H1622 C1636 0.960 . S
H1623 C1636 0.960 . S
C1624 H1616 0.929 . S
C1624 C1625 1.377 . S
C1624 C1626 1.384 . S
C1625 C1624 1.377 . S
C1625 C1631 1.390 . S
C1626 H1617 0.930 . S
C1626 C1624 1.384 . S
C1626 C1627 1.372 . S
C1627 C1626 1.372 . S
C1627 C1628 1.400 . S
C1627 C1632 1.490 . S
C1628 H1618 0.930 . S
C1628 C1627 1.400 . S
C1628 C1631 1.386 . S
H1629 C1645 0.930 . S
H1630 C1646 0.931 . S
C1631 H1619 0.929 . S
C1631 C1625 1.390 . S
C1631 C1628 1.386 . S
C1632 C1627 1.490 . S
C1632 C1634 1.395 . S
C1632 C1635 1.403 . S
H1633 C1639 0.930 . S
C1634 H1620 0.930 . S
C1634 C1632 1.395 . S
C1634 C1637 1.403 . S
C1635 C1632 1.403 . S
C1635 C1636 1.524 . S
C1635 C1639 1.400 . S
C1636 H1621 0.960 . S
C1636 H1622 0.960 . S
C1636 H1623 0.960 . S
C1636 C1635 1.524 . S
C1637 C1634 1.403 . S
C1637 C1638 1.392 . S
C1637 C1641 1.495 . S
C1638 C1637 1.392 . S
C1638 C1639 1.385 . S
C1638 C1640 1.478 . S
C1639 H1633 0.930 . S
C1639 C1635 1.400 . S
C1639 C1638 1.385 . S
C1640 C1638 1.478 . S
C1640 C1642 1.381 . S
C1640 C1646 1.383 . S
C1641 C1637 1.495 . S
C1641 H1647 0.959 . S
C1641 H1648 0.961 . S
C1641 H1649 0.960 . S
C1642 C1640 1.381 . S
C1642 C1643 1.394 . S
C1642 H1650 0.930 . S
C1643 C1642 1.394 . S
C1643 C1644 1.383 . S
C1643 H1651 0.929 1_556 S
C1644 C1643 1.383 . S
C1644 C1645 1.377 . S
C1645 H1629 0.930 . S
C1645 C1644 1.377 . S
C1645 C1646 1.379 . S
C1646 H1630 0.931 . S
C1646 C1640 1.383 . S
C1646 C1645 1.379 . S
H1647 C1641 0.959 . S
H1648 C1641 0.961 . S
H1649 C1641 0.960 . S
H1650 C1642 0.930 . S
H1651 C1643 0.929 1_554 S
H1652 C1660 0.929 . S
H1653 C1662 0.930 . S
H1654 C1664 0.930 . S
H1655 C1667 0.929 . S
H1656 C1670 0.930 . S
H1657 C1672 0.960 . S
H1658 C1672 0.960 . S
H1659 C1672 0.960 . S
C1660 H1652 0.929 . S
C1660 C1661 1.377 . S
C1660 C1662 1.384 . S
C1661 C1660 1.377 . S
C1661 C1667 1.390 . S
C1662 H1653 0.930 . S
C1662 C1660 1.384 . S
C1662 C1663 1.372 . S
C1663 C1662 1.372 . S
C1663 C1664 1.400 . S
C1663 C1668 1.490 . S
C1664 H1654 0.930 . S
C1664 C1663 1.400 . S
C1664 C1667 1.386 . S
H1665 C1681 0.930 . S
H1666 C1682 0.931 . S
C1667 H1655 0.929 . S
C1667 C1661 1.390 . S
C1667 C1664 1.386 . S
C1668 C1663 1.490 . S
C1668 C1670 1.395 . S
C1668 C1671 1.403 . S
H1669 C1675 0.930 . S
C1670 H1656 0.930 . S
C1670 C1668 1.395 . S
C1670 C1673 1.403 . S
C1671 C1668 1.403 . S
C1671 C1672 1.524 . S
C1671 C1675 1.400 . S
C1672 H1657 0.960 . S
C1672 H1658 0.960 . S
C1672 H1659 0.960 . S
C1672 C1671 1.524 . S
C1673 C1670 1.403 . S
C1673 C1674 1.392 . S
C1673 C1677 1.495 . S
C1674 C1673 1.392 . S
C1674 C1675 1.385 . S
C1674 C1676 1.478 . S
C1675 H1669 0.930 . S
C1675 C1671 1.400 . S
C1675 C1674 1.385 . S
C1676 C1674 1.478 . S
C1676 C1678 1.381 . S
C1676 C1682 1.383 . S
C1677 C1673 1.495 . S
C1677 H1683 0.959 . S
C1677 H1684 0.961 . S
C1677 H1685 0.960 . S
C1678 C1676 1.381 . S
C1678 C1679 1.394 . S
C1678 H1686 0.930 . S
C1679 C1678 1.394 . S
C1679 C1680 1.383 . S
C1679 H1687 0.929 . S
C1680 C1679 1.383 . S
C1680 C1681 1.377 . S
C1681 H1665 0.930 . S
C1681 C1680 1.377 . S
C1681 C1682 1.379 . S
C1682 H1666 0.931 . S
C1682 C1676 1.383 . S
C1682 C1681 1.379 . S
H1683 C1677 0.959 . S
H1684 C1677 0.961 . S
H1685 C1677 0.960 . S
H1686 C1678 0.930 . S
H1687 C1679 0.929 . S
H1688 C1696 0.929 . S
H1689 C1698 0.930 . S
H1690 C1700 0.930 . S
H1691 C1703 0.929 . S
H1692 C1706 0.930 . S
H1693 C1708 0.960 . S
H1694 C1708 0.960 . S
H1695 C1708 0.960 . S
C1696 H1688 0.929 . S
C1696 C1697 1.377 . S
C1696 C1698 1.384 . S
C1697 C1696 1.377 . S
C1697 C1703 1.390 . S
C1698 H1689 0.930 . S
C1698 C1696 1.384 . S
C1698 C1699 1.372 . S
C1699 C1698 1.372 . S
C1699 C1700 1.400 . S
C1699 C1704 1.490 . S
C1700 H1690 0.930 . S
C1700 C1699 1.400 . S
C1700 C1703 1.386 . S
H1701 C1717 0.930 . S
H1702 C1718 0.931 . S
C1703 H1691 0.929 . S
C1703 C1697 1.390 . S
C1703 C1700 1.386 . S
C1704 C1699 1.490 . S
C1704 C1706 1.395 . S
C1704 C1707 1.403 . S
H1705 C1711 0.930 . S
C1706 H1692 0.930 . S
C1706 C1704 1.395 . S
C1706 C1709 1.403 . S
C1707 C1704 1.403 . S
C1707 C1708 1.524 . S
C1707 C1711 1.400 . S
C1708 H1693 0.960 . S
C1708 H1694 0.960 . S
C1708 H1695 0.960 . S
C1708 C1707 1.524 . S
C1709 C1706 1.403 . S
C1709 C1710 1.392 . S
C1709 C1713 1.495 . S
C1710 C1709 1.392 . S
C1710 C1711 1.385 . S
C1710 C1712 1.478 . S
C1711 H1705 0.930 . S
C1711 C1707 1.400 . S
C1711 C1710 1.385 . S
C1712 C1710 1.478 . S
C1712 C1714 1.381 . S
C1712 C1718 1.383 . S
C1713 C1709 1.495 . S
C1713 H1719 0.959 . S
C1713 H1720 0.961 . S
C1713 H1721 0.960 . S
C1714 C1712 1.381 . S
C1714 C1715 1.394 . S
C1714 H1722 0.930 . S
C1715 C1714 1.394 . S
C1715 C1716 1.383 . S
C1715 H1723 0.929 . S
C1716 C1715 1.383 . S
C1716 C1717 1.377 . S
C1717 H1701 0.930 . S
C1717 C1716 1.377 . S
C1717 C1718 1.379 . S
C1718 H1702 0.931 . S
C1718 C1712 1.383 . S
C1718 C1717 1.379 . S
H1719 C1713 0.959 . S
H1720 C1713 0.961 . S
H1721 C1713 0.960 . S
H1722 C1714 0.930 . S
H1723 C1715 0.929 . S
H1724 C1732 0.929 . S
H1725 C1734 0.930 . S
H1726 C1736 0.930 . S
H1727 C1739 0.929 . S
H1728 C1742 0.930 . S
H1729 C1744 0.960 . S
H1730 C1744 0.960 . S
H1731 C1744 0.960 . S
C1732 H1724 0.929 . S
C1732 C1733 1.377 . S
C1732 C1734 1.384 . S
C1733 C1732 1.377 . S
C1733 C1739 1.390 . S
C1734 H1725 0.930 . S
C1734 C1732 1.384 . S
C1734 C1735 1.372 . S
C1735 C1734 1.372 . S
C1735 C1736 1.400 . S
C1735 C1740 1.490 . S
C1736 H1726 0.930 . S
C1736 C1735 1.400 . S
C1736 C1739 1.386 . S
H1737 C1753 0.958 . S
H1738 C1754 0.931 . S
C1739 H1727 0.929 . S
C1739 C1733 1.390 . S
C1739 C1736 1.386 . S
C1740 C1735 1.490 . S
C1740 C1742 1.395 . S
C1740 C1743 1.403 . S
H1741 C1747 0.930 . S
C1742 H1728 0.930 . S
C1742 C1740 1.395 . S
C1742 C1745 1.403 . S
C1743 C1740 1.403 . S
C1743 C1744 1.524 . S
C1743 C1747 1.400 . S
C1744 H1729 0.960 . S
C1744 H1730 0.960 . S
C1744 H1731 0.960 . S
C1744 C1743 1.524 . S
C1745 C1742 1.403 . S
C1745 C1746 1.392 . S
C1745 C1749 1.495 . S
C1746 C1745 1.392 . S
C1746 C1747 1.385 . S
C1746 C1748 1.478 . S
C1747 H1741 0.930 . S
C1747 C1743 1.400 . S
C1747 C1746 1.385 . S
C1748 C1746 1.478 . S
C1748 C1750 1.381 . S
C1748 C1754 1.383 . S
C1749 C1745 1.495 . S
C1749 H1755 0.959 . S
C1749 H1756 0.961 . S
C1749 H1757 0.960 . S
C1750 C1748 1.381 . S
C1750 C1751 1.394 . S
C1750 H1758 0.930 . S
C1751 C1750 1.394 . S
C1751 C1752 1.383 . S
C1751 H1759 0.929 . S
C1752 C1751 1.383 . S
C1752 C1753 1.377 . S
C1753 H1737 0.958 . S
C1753 C1752 1.377 . S
C1753 C1754 1.379 . S
C1754 H1738 0.931 . S
C1754 C1748 1.383 . S
C1754 C1753 1.379 . S
H1755 C1749 0.959 . S
H1756 C1749 0.961 . S
H1757 C1749 0.960 . S
H1758 C1750 0.930 . S
H1759 C1751 0.929 . S
H1760 C1768 0.929 . S
H1761 C1770 0.930 . S
H1762 C1772 0.930 . S
H1763 C1775 0.929 . S
H1764 C1778 0.930 . S
H1765 C1780 0.960 . S
H1766 C1780 0.960 . S
H1767 C1780 0.960 . S
C1768 H1760 0.929 . S
C1768 C1769 1.377 . S
C1768 C1770 1.384 . S
C1769 C1768 1.377 . S
C1769 C1775 1.390 . S
C1770 H1761 0.930 . S
C1770 C1768 1.384 . S
C1770 C1771 1.372 . S
C1771 C1770 1.372 . S
C1771 C1772 1.400 . S
C1771 C1776 1.490 . S
C1772 H1762 0.930 . S
C1772 C1771 1.400 . S
C1772 C1775 1.386 . S
H1773 C1789 0.930 . S
H1774 C1790 0.931 . S
C1775 H1763 0.929 . S
C1775 C1769 1.390 . S
C1775 C1772 1.386 . S
C1776 C1771 1.490 . S
C1776 C1778 1.395 . S
C1776 C1779 1.403 . S
H1777 C1783 0.930 . S
C1778 H1764 0.930 . S
C1778 C1776 1.395 . S
C1778 C1781 1.403 . S
C1779 C1776 1.403 . S
C1779 C1780 1.524 . S
C1779 C1783 1.400 . S
C1780 H1765 0.960 . S
C1780 H1766 0.960 . S
C1780 H1767 0.960 . S
C1780 C1779 1.524 . S
C1781 C1778 1.403 . S
C1781 C1782 1.392 . S
C1781 C1785 1.495 . S
C1782 C1781 1.392 . S
C1782 C1783 1.385 . S
C1782 C1784 1.478 . S
C1783 H1777 0.930 . S
C1783 C1779 1.400 . S
C1783 C1782 1.385 . S
C1784 C1782 1.478 . S
C1784 C1786 1.381 . S
C1784 C1790 1.383 . S
C1785 C1781 1.495 . S
C1785 H1791 0.959 . S
C1785 H1792 0.961 . S
C1785 H1793 0.960 . S
C1786 C1784 1.381 . S
C1786 C1787 1.394 . S
C1786 H1794 0.930 . S
C1787 C1786 1.394 . S
C1787 C1788 1.383 . S
C1787 H1795 0.929 . S
C1788 C1787 1.383 . S
C1788 C1789 1.377 . S
C1789 H1773 0.930 . S
C1789 C1788 1.377 . S
C1789 C1790 1.379 . S
C1790 H1774 0.931 . S
C1790 C1784 1.383 . S
C1790 C1789 1.379 . S
H1791 C1785 0.959 . S
H1792 C1785 0.961 . S
H1793 C1785 0.960 . S
H1794 C1786 0.930 . S
H1795 C1787 0.929 . S
H1796 C1804 0.929 . S
H1797 C1806 0.930 . S
H1798 C1808 0.930 . S
H1799 C1811 0.929 . S
H1800 C1814 0.930 . S
H1801 C1816 0.960 . S
H1802 C1816 0.960 . S
H1803 C1816 0.960 . S
C1804 H1796 0.929 . S
C1804 C1805 1.377 . S
C1804 C1806 1.384 . S
C1805 C1804 1.377 . S
C1805 C1811 1.390 . S
C1806 H1797 0.930 . S
C1806 C1804 1.384 . S
C1806 C1807 1.372 . S
C1807 C1806 1.372 . S
C1807 C1808 1.400 . S
C1807 C1812 1.490 . S
C1808 H1798 0.930 . S
C1808 C1807 1.400 . S
C1808 C1811 1.386 . S
H1809 C1825 0.930 . S
H1810 C1826 0.931 . S
C1811 H1799 0.929 . S
C1811 C1805 1.390 . S
C1811 C1808 1.386 . S
C1812 C1807 1.490 . S
C1812 C1814 1.395 . S
C1812 C1815 1.403 . S
H1813 C1819 0.930 . S
C1814 H1800 0.930 . S
C1814 C1812 1.395 . S
C1814 C1817 1.403 . S
C1815 C1812 1.403 . S
C1815 C1816 1.524 . S
C1815 C1819 1.400 . S
C1816 H1801 0.960 . S
C1816 H1802 0.960 . S
C1816 H1803 0.960 . S
C1816 C1815 1.524 . S
C1817 C1814 1.403 . S
C1817 C1818 1.392 . S
C1817 C1821 1.495 . S
C1818 C1817 1.392 . S
C1818 C1819 1.385 . S
C1818 C1820 1.478 . S
C1819 H1813 0.930 . S
C1819 C1815 1.400 . S
C1819 C1818 1.385 . S
C1820 C1818 1.478 . S
C1820 C1822 1.381 . S
C1820 C1826 1.383 . S
C1821 C1817 1.495 . S
C1821 H1827 0.959 . S
C1821 H1828 0.961 . S
C1821 H1829 0.960 . S
C1822 C1820 1.381 . S
C1822 C1823 1.394 . S
C1822 H1830 0.930 . S
C1823 C1822 1.394 . S
C1823 C1824 1.383 . S
C1823 H1831 0.929 . S
C1824 C1823 1.383 . S
C1824 C1825 1.377 . S
C1825 H1809 0.930 . S
C1825 C1824 1.377 . S
C1825 C1826 1.379 . S
C1826 H1810 0.931 . S
C1826 C1820 1.383 . S
C1826 C1825 1.379 . S
H1827 C1821 0.959 . S
H1828 C1821 0.961 . S
H1829 C1821 0.960 . S
H1830 C1822 0.930 . S
H1831 C1823 0.929 . S
H1832 C1840 0.929 . S
H1833 C1842 0.930 . S
H1834 C1844 0.930 . S
H1835 C1847 0.929 . S
H1836 C1850 0.930 . S
H1837 C1852 0.960 . S
H1838 C1852 0.960 . S
H1839 C1852 0.960 . S
C1840 H1832 0.929 . S
C1840 C1841 1.377 . S
C1840 C1842 1.384 . S
C1841 C1840 1.377 . S
C1841 C1847 1.390 . S
C1842 H1833 0.930 . S
C1842 C1840 1.384 . S
C1842 C1843 1.372 . S
C1843 C1842 1.372 . S
C1843 C1844 1.400 . S
C1843 C1848 1.490 . S
C1844 H1834 0.930 . S
C1844 C1843 1.400 . S
C1844 C1847 1.386 . S
H1845 C1861 0.930 . S
H1846 C1862 0.931 . S
C1847 H1835 0.929 . S
C1847 C1841 1.390 . S
C1847 C1844 1.386 . S
C1848 C1843 1.490 . S
C1848 C1850 1.395 . S
C1848 C1851 1.403 . S
H1849 C1855 0.930 . S
C1850 H1836 0.930 . S
C1850 C1848 1.395 . S
C1850 C1853 1.403 . S
C1851 C1848 1.403 . S
C1851 C1852 1.524 . S
C1851 C1855 1.400 . S
C1852 H1837 0.960 . S
C1852 H1838 0.960 . S
C1852 H1839 0.960 . S
C1852 C1851 1.524 . S
C1853 C1850 1.403 . S
C1853 C1854 1.392 . S
C1853 C1857 1.495 . S
C1854 C1853 1.392 . S
C1854 C1855 1.385 . S
C1854 C1856 1.478 . S
C1855 H1849 0.930 . S
C1855 C1851 1.400 . S
C1855 C1854 1.385 . S
C1856 C1854 1.478 . S
C1856 C1858 1.381 . S
C1856 C1862 1.383 . S
C1857 C1853 1.495 . S
C1857 H1863 0.959 . S
C1857 H1864 0.961 . S
C1857 H1865 0.960 . S
C1858 C1856 1.381 . S
C1858 C1859 1.394 . S
C1858 H1866 0.930 . S
C1859 C1858 1.394 . S
C1859 C1860 1.383 . S
C1859 H1867 0.929 . S
C1860 C1859 1.383 . S
C1860 C1861 1.377 . S
C1861 H1845 0.930 . S
C1861 C1860 1.377 . S
C1861 C1862 1.379 . S
C1862 H1846 0.931 . S
C1862 C1856 1.383 . S
C1862 C1861 1.379 . S
H1863 C1857 0.959 . S
H1864 C1857 0.961 . S
H1865 C1857 0.960 . S
H1866 C1858 0.930 . S
H1867 C1859 0.929 . S
H1868 C1876 0.929 . S
H1869 C1878 0.930 . S
H1870 C1880 0.930 . S
H1871 C1883 0.929 . S
H1872 C1886 0.930 . S
H1873 C1888 0.960 . S
H1874 C1888 0.960 . S
H1875 C1888 0.960 . S
C1876 H1868 0.929 . S
C1876 C1877 1.377 . S
C1876 C1878 1.384 . S
C1877 C1876 1.377 . S
C1877 C1883 1.390 . S
C1878 H1869 0.930 . S
C1878 C1876 1.384 . S
C1878 C1879 1.372 . S
C1879 C1878 1.372 . S
C1879 C1880 1.400 . S
C1879 C1884 1.490 . S
C1880 H1870 0.930 . S
C1880 C1879 1.400 . S
C1880 C1883 1.386 . S
H1881 C1897 0.930 . S
H1882 C1898 0.931 . S
C1883 H1871 0.929 . S
C1883 C1877 1.390 . S
C1883 C1880 1.386 . S
C1884 C1879 1.490 . S
C1884 C1886 1.395 . S
C1884 C1887 1.403 . S
H1885 C1891 0.930 . S
C1886 H1872 0.930 . S
C1886 C1884 1.395 . S
C1886 C1889 1.403 . S
C1887 C1884 1.403 . S
C1887 C1888 1.524 . S
C1887 C1891 1.400 . S
C1888 H1873 0.960 . S
C1888 H1874 0.960 . S
C1888 H1875 0.960 . S
C1888 C1887 1.524 . S
C1889 C1886 1.403 . S
C1889 C1890 1.392 . S
C1889 C1893 1.495 . S
C1890 C1889 1.392 . S
C1890 C1891 1.385 . S
C1890 C1892 1.478 . S
C1891 H1885 0.930 . S
C1891 C1887 1.400 . S
C1891 C1890 1.385 . S
C1892 C1890 1.478 . S
C1892 C1894 1.381 . S
C1892 C1898 1.383 . S
C1893 C1889 1.495 . S
C1893 H1899 0.959 . S
C1893 H1900 0.961 . S
C1893 H1901 0.960 . S
C1894 C1892 1.381 . S
C1894 C1895 1.394 . S
C1894 H1902 0.930 . S
C1895 C1894 1.394 . S
C1895 C1896 1.383 . S
C1895 H1903 0.929 . S
C1896 C1895 1.383 . S
C1896 C1897 1.377 . S
C1897 H1881 0.930 . S
C1897 C1896 1.377 . S
C1897 C1898 1.379 . S
C1898 H1882 0.931 . S
C1898 C1892 1.383 . S
C1898 C1897 1.379 . S
H1899 C1893 0.959 . S
H1900 C1893 0.961 . S
H1901 C1893 0.960 . S
H1902 C1894 0.930 . S
H1903 C1895 0.929 . S
H1904 C1912 0.929 . S
H1905 C1914 0.930 . S
H1906 C1916 0.930 . S
H1907 C1919 0.929 . S
H1908 C1922 0.930 . S
H1909 C1924 0.960 . S
H1910 C1924 0.960 . S
H1911 C1924 0.960 . S
C1912 H1904 0.929 . S
C1912 C1913 1.377 . S
C1912 C1914 1.384 . S
C1913 C1912 1.377 . S
C1913 C1919 1.390 . S
C1914 H1905 0.930 . S
C1914 C1912 1.384 . S
C1914 C1915 1.372 . S
C1915 C1914 1.372 . S
C1915 C1916 1.400 . S
C1915 C1920 1.490 . S
C1916 H1906 0.930 . S
C1916 C1915 1.400 . S
C1916 C1919 1.386 . S
H1917 C1933 0.930 . S
H1918 C1934 0.931 . S
C1919 H1907 0.929 . S
C1919 C1913 1.390 . S
C1919 C1916 1.386 . S
C1920 C1915 1.490 . S
C1920 C1922 1.395 . S
C1920 C1923 1.403 . S
H1921 C1927 0.930 . S
C1922 H1908 0.930 . S
C1922 C1920 1.395 . S
C1922 C1925 1.403 . S
C1923 C1920 1.403 . S
C1923 C1924 1.524 . S
C1923 C1927 1.400 . S
C1924 H1909 0.960 . S
C1924 H1910 0.960 . S
C1924 H1911 0.960 . S
C1924 C1923 1.524 . S
C1925 C1922 1.403 . S
C1925 C1926 1.392 . S
C1925 C1929 1.495 . S
C1926 C1925 1.392 . S
C1926 C1927 1.385 . S
C1926 C1928 1.478 . S
C1927 H1921 0.930 . S
C1927 C1923 1.400 . S
C1927 C1926 1.385 . S
C1928 C1926 1.478 . S
C1928 C1930 1.381 . S
C1928 C1934 1.383 . S
C1929 C1925 1.495 . S
C1929 H1935 0.959 . S
C1929 H1936 0.961 . S
C1929 H1937 0.960 . S
C1930 C1928 1.381 . S
C1930 C1931 1.394 . S
C1930 H1938 0.930 . S
C1931 C1930 1.394 . S
C1931 C1932 1.383 . S
C1931 H1939 0.929 . S
C1932 C1931 1.383 . S
C1932 C1933 1.377 . S
C1933 H1917 0.930 . S
C1933 C1932 1.377 . S
C1933 C1934 1.379 . S
C1934 H1918 0.931 . S
C1934 C1928 1.383 . S
C1934 C1933 1.379 . S
H1935 C1929 0.959 . S
H1936 C1929 0.961 . S
H1937 C1929 0.960 . S
H1938 C1930 0.930 . S
H1939 C1931 0.929 . S
H1940 C1948 0.929 . S
H1941 C1950 0.930 . S
H1942 C1952 0.930 . S
H1943 C1955 0.929 . S
H1944 C1958 0.930 . S
H1945 C1960 0.960 . S
H1946 C1960 0.960 . S
H1947 C1960 0.960 . S
C1948 H1940 0.929 . S
C1948 C1949 1.377 . S
C1948 C1950 1.384 . S
C1949 C1948 1.377 . S
C1949 C1955 1.390 . S
C1950 H1941 0.930 . S
C1950 C1948 1.384 . S
C1950 C1951 1.372 . S
C1951 C1950 1.372 . S
C1951 C1952 1.400 . S
C1951 C1956 1.490 . S
C1952 H1942 0.930 . S
C1952 C1951 1.400 . S
C1952 C1955 1.386 . S
H1953 C1969 0.930 . S
H1954 C1970 0.931 . S
C1955 H1943 0.929 . S
C1955 C1949 1.390 . S
C1955 C1952 1.386 . S
C1956 C1951 1.490 . S
C1956 C1958 1.395 . S
C1956 C1959 1.403 . S
H1957 C1963 0.930 . S
C1958 H1944 0.930 . S
C1958 C1956 1.395 . S
C1958 C1961 1.403 . S
C1959 C1956 1.403 . S
C1959 C1960 1.524 . S
C1959 C1963 1.400 . S
C1960 H1945 0.960 . S
C1960 H1946 0.960 . S
C1960 H1947 0.960 . S
C1960 C1959 1.524 . S
C1961 C1958 1.403 . S
C1961 C1962 1.392 . S
C1961 C1965 1.495 . S
C1962 C1961 1.392 . S
C1962 C1963 1.385 . S
C1962 C1964 1.478 . S
C1963 H1957 0.930 . S
C1963 C1959 1.400 . S
C1963 C1962 1.385 . S
C1964 C1962 1.478 . S
C1964 C1966 1.381 . S
C1964 C1970 1.383 . S
C1965 C1961 1.495 . S
C1965 H1971 0.959 . S
C1965 H1972 0.961 . S
C1965 H1973 0.960 . S
C1966 C1964 1.381 . S
C1966 C1967 1.394 . S
C1966 H1974 0.930 . S
C1967 C1966 1.394 . S
C1967 C1968 1.383 . S
C1967 H1975 0.929 . S
C1968 C1967 1.383 . S
C1968 C1969 1.377 . S
C1969 H1953 0.930 . S
C1969 C1968 1.377 . S
C1969 C1970 1.379 . S
C1970 H1954 0.931 . S
C1970 C1964 1.383 . S
C1970 C1969 1.379 . S
H1971 C1965 0.959 . S
H1972 C1965 0.961 . S
H1973 C1965 0.960 . S
H1974 C1966 0.930 . S
H1975 C1967 0.929 . S
H1976 C1984 0.929 . S
H1977 C1986 0.930 . S
H1978 C1988 0.930 . S
H1979 C1991 0.929 . S
H1980 C1994 0.930 . S
H1981 C1996 0.960 . S
H1982 C1996 0.960 . S
H1983 C1996 0.960 . S
C1984 H1976 0.929 . S
C1984 C1985 1.377 . S
C1984 C1986 1.384 . S
C1985 C1984 1.377 . S
C1985 C1991 1.390 . S
C1986 H1977 0.930 . S
C1986 C1984 1.384 . S
C1986 C1987 1.372 . S
C1987 C1986 1.372 . S
C1987 C1988 1.400 . S
C1987 C1992 1.490 . S
C1988 H1978 0.930 . S
C1988 C1987 1.400 . S
C1988 C1991 1.386 . S
H1989 C2005 0.930 . S
H1990 C2006 0.931 . S
C1991 H1979 0.929 . S
C1991 C1985 1.390 . S
C1991 C1988 1.386 . S
C1992 C1987 1.490 . S
C1992 C1994 1.395 . S
C1992 C1995 1.403 . S
H1993 C1999 0.930 . S
C1994 H1980 0.930 . S
C1994 C1992 1.395 . S
C1994 C1997 1.403 . S
C1995 C1992 1.403 . S
C1995 C1996 1.524 . S
C1995 C1999 1.400 . S
C1996 H1981 0.960 . S
C1996 H1982 0.960 . S
C1996 H1983 0.960 . S
C1996 C1995 1.524 . S
C1997 C1994 1.403 . S
C1997 C1998 1.392 . S
C1997 C2001 1.495 . S
C1998 C1997 1.392 . S
C1998 C1999 1.385 . S
C1998 C2000 1.478 . S
C1999 H1993 0.930 . S
C1999 C1995 1.400 . S
C1999 C1998 1.385 . S
C2000 C1998 1.478 . S
C2000 C2002 1.381 . S
C2000 C2006 1.383 . S
C2001 C1997 1.495 . S
C2001 H2007 0.959 . S
C2001 H2008 0.961 . S
C2001 H2009 0.960 . S
C2002 C2000 1.381 . S
C2002 C2003 1.394 . S
C2002 H2010 0.930 . S
C2003 C2002 1.394 . S
C2003 C2004 1.383 . S
C2003 H2011 0.929 . S
C2004 C2003 1.383 . S
C2004 C2005 1.377 . S
C2005 H1989 0.930 . S
C2005 C2004 1.377 . S
C2005 C2006 1.379 . S
C2006 H1990 0.931 . S
C2006 C2000 1.383 . S
C2006 C2005 1.379 . S
H2007 C2001 0.959 . S
H2008 C2001 0.961 . S
H2009 C2001 0.960 . S
H2010 C2002 0.930 . S
H2011 C2003 0.929 . S
H2012 C2020 0.929 . S
H2013 C2022 0.930 . S
H2014 C2024 0.930 . S
H2015 C2027 0.929 . S
H2016 C2030 0.930 . S
H2017 C2032 0.960 . S
H2018 C2032 0.960 . S
H2019 C2032 0.960 . S
C2020 H2012 0.929 . S
C2020 C2021 1.377 . S
C2020 C2022 1.384 . S
C2021 C2020 1.377 . S
C2021 C2027 1.390 . S
C2022 H2013 0.930 . S
C2022 C2020 1.384 . S
C2022 C2023 1.372 . S
C2023 C2022 1.372 . S
C2023 C2024 1.400 . S
C2023 C2028 1.490 . S
C2024 H2014 0.930 . S
C2024 C2023 1.400 . S
C2024 C2027 1.386 . S
H2025 C2041 0.930 . S
H2026 C2042 0.931 . S
C2027 H2015 0.929 . S
C2027 C2021 1.390 . S
C2027 C2024 1.386 . S
C2028 C2023 1.490 . S
C2028 C2030 1.395 . S
C2028 C2031 1.403 . S
H2029 C2035 0.930 . S
C2030 H2016 0.930 . S
C2030 C2028 1.395 . S
C2030 C2033 1.403 . S
C2031 C2028 1.403 . S
C2031 C2032 1.524 . S
C2031 C2035 1.400 . S
C2032 H2017 0.960 . S
C2032 H2018 0.960 . S
C2032 H2019 0.960 . S
C2032 C2031 1.524 . S
C2033 C2030 1.403 . S
C2033 C2034 1.392 . S
C2033 C2037 1.495 . S
C2034 C2033 1.392 . S
C2034 C2035 1.385 . S
C2034 C2036 1.478 . S
C2035 H2029 0.930 . S
C2035 C2031 1.400 . S
C2035 C2034 1.385 . S
C2036 C2034 1.478 . S
C2036 C2038 1.381 . S
C2036 C2042 1.383 . S
C2037 C2033 1.495 . S
C2037 H2043 0.959 . S
C2037 H2044 0.961 . S
C2037 H2045 0.960 . S
C2038 C2036 1.381 . S
C2038 C2039 1.394 . S
C2038 H2046 0.930 . S
C2039 C2038 1.394 . S
C2039 C2040 1.383 . S
C2039 H2047 0.929 . S
C2040 C2039 1.383 . S
C2040 C2041 1.377 . S
C2041 H2025 0.930 . S
C2041 C2040 1.377 . S
C2041 C2042 1.379 . S
C2042 H2026 0.931 . S
C2042 C2036 1.383 . S
C2042 C2041 1.379 . S
H2043 C2037 0.959 . S
H2044 C2037 0.961 . S
H2045 C2037 0.960 . S
H2046 C2038 0.930 . S
H2047 C2039 0.929 . S
H2048 C2056 0.929 . S
H2049 C2058 0.930 . S
H2050 C2060 0.930 . S
H2051 C2063 0.929 . S
H2052 C2066 0.930 . S
H2053 C2068 0.960 . S
H2054 C2068 0.960 . S
H2055 C2068 0.960 . S
C2056 H2048 0.929 . S
C2056 C2057 1.377 . S
C2056 C2058 1.384 . S
C2057 C2056 1.377 . S
C2057 C2063 1.390 . S
C2058 H2049 0.930 . S
C2058 C2056 1.384 . S
C2058 C2059 1.372 . S
C2059 C2058 1.372 . S
C2059 C2060 1.400 . S
C2059 C2064 1.490 . S
C2060 H2050 0.930 . S
C2060 C2059 1.400 . S
C2060 C2063 1.386 . S
H2061 C2077 0.930 . S
H2062 C2078 0.931 . S
C2063 H2051 0.929 . S
C2063 C2057 1.390 . S
C2063 C2060 1.386 . S
C2064 C2059 1.490 . S
C2064 C2066 1.395 . S
C2064 C2067 1.403 . S
H2065 C2071 0.930 . S
C2066 H2052 0.930 . S
C2066 C2064 1.395 . S
C2066 C2069 1.403 . S
C2067 C2064 1.403 . S
C2067 C2068 1.524 . S
C2067 C2071 1.400 . S
C2068 H2053 0.960 . S
C2068 H2054 0.960 . S
C2068 H2055 0.960 . S
C2068 C2067 1.524 . S
C2069 C2066 1.403 . S
C2069 C2070 1.392 . S
C2069 C2073 1.495 . S
C2070 C2069 1.392 . S
C2070 C2071 1.385 . S
C2070 C2072 1.478 . S
C2071 H2065 0.930 . S
C2071 C2067 1.400 . S
C2071 C2070 1.385 . S
C2072 C2070 1.478 . S
C2072 C2074 1.381 . S
C2072 C2078 1.383 . S
C2073 C2069 1.495 . S
C2073 H2079 0.959 . S
C2073 H2080 0.961 . S
C2073 H2081 0.960 . S
C2074 C2072 1.381 . S
C2074 C2075 1.394 . S
C2074 H2082 0.930 . S
C2075 C2074 1.394 . S
C2075 C2076 1.383 . S
C2075 H2083 0.929 . S
C2076 C2075 1.383 . S
C2076 C2077 1.377 . S
C2077 H2061 0.930 . S
C2077 C2076 1.377 . S
C2077 C2078 1.379 . S
C2078 H2062 0.931 . S
C2078 C2072 1.383 . S
C2078 C2077 1.379 . S
H2079 C2073 0.959 . S
H2080 C2073 0.961 . S
H2081 C2073 0.960 . S
H2082 C2074 0.930 . S
H2083 C2075 0.929 . S
H2084 C2092 0.929 . S
H2085 C2094 0.930 . S
H2086 C2096 0.930 . S
H2087 C2099 0.929 . S
H2088 C2102 0.930 . S
H2089 C2104 0.960 . S
H2090 C2104 0.960 . S
H2091 C2104 0.960 . S
C2092 H2084 0.929 . S
C2092 C2093 1.377 . S
C2092 C2094 1.384 . S
C2093 C2092 1.377 . S
C2093 C2099 1.390 . S
C2094 H2085 0.930 . S
C2094 C2092 1.384 . S
C2094 C2095 1.372 . S
C2095 C2094 1.372 . S
C2095 C2096 1.400 . S
C2095 C2100 1.490 . S
C2096 H2086 0.930 . S
C2096 C2095 1.400 . S
C2096 C2099 1.386 . S
H2097 C2113 0.930 . S
H2098 C2114 0.931 . S
C2099 H2087 0.929 . S
C2099 C2093 1.390 . S
C2099 C2096 1.386 . S
C2100 C2095 1.490 . S
C2100 C2102 1.395 . S
C2100 C2103 1.403 . S
H2101 C2107 0.930 . S
C2102 H2088 0.930 . S
C2102 C2100 1.395 . S
C2102 C2105 1.403 . S
C2103 C2100 1.403 . S
C2103 C2104 1.524 . S
C2103 C2107 1.400 . S
C2104 H2089 0.960 . S
C2104 H2090 0.960 . S
C2104 H2091 0.960 . S
C2104 C2103 1.524 . S
C2105 C2102 1.403 . S
C2105 C2106 1.392 . S
C2105 C2109 1.495 . S
C2106 C2105 1.392 . S
C2106 C2107 1.385 . S
C2106 C2108 1.478 . S
C2107 H2101 0.930 . S
C2107 C2103 1.400 . S
C2107 C2106 1.385 . S
C2108 C2106 1.478 . S
C2108 C2110 1.381 . S
C2108 C2114 1.383 . S
C2109 C2105 1.495 . S
C2109 H2115 0.959 . S
C2109 H2116 0.961 . S
C2109 H2117 0.960 . S
C2110 C2108 1.381 . S
C2110 C2111 1.394 . S
C2110 H2118 0.930 . S
C2111 C2110 1.394 . S
C2111 C2112 1.383 . S
C2111 H2119 0.929 . S
C2112 C2111 1.383 . S
C2112 C2113 1.377 . S
C2113 H2097 0.930 . S
C2113 C2112 1.377 . S
C2113 C2114 1.379 . S
C2114 H2098 0.931 . S
C2114 C2108 1.383 . S
C2114 C2113 1.379 . S
H2115 C2109 0.959 . S
H2116 C2109 0.961 . S
H2117 C2109 0.960 . S
H2118 C2110 0.930 . S
H2119 C2111 0.929 . S
H2120 C2128 0.929 . S
H2121 C2130 0.930 . S
H2122 C2132 0.930 . S
H2123 C2135 0.929 . S
H2124 C2138 0.930 . S
H2125 C2140 0.960 . S
H2126 C2140 0.960 . S
H2127 C2140 0.960 . S
C2128 H2120 0.929 . S
C2128 C2129 1.377 . S
C2128 C2130 1.384 . S
C2129 C2128 1.377 . S
C2129 C2135 1.390 . S
C2130 H2121 0.930 . S
C2130 C2128 1.384 . S
C2130 C2131 1.372 . S
C2131 C2130 1.372 . S
C2131 C2132 1.400 . S
C2131 C2136 1.490 . S
C2132 H2122 0.930 . S
C2132 C2131 1.400 . S
C2132 C2135 1.386 . S
H2133 C2149 0.930 . S
H2134 C2150 0.931 . S
C2135 H2123 0.929 . S
C2135 C2129 1.390 . S
C2135 C2132 1.386 . S
C2136 C2131 1.490 . S
C2136 C2138 1.395 . S
C2136 C2139 1.403 . S
H2137 C2143 0.930 . S
C2138 H2124 0.930 . S
C2138 C2136 1.395 . S
C2138 C2141 1.403 . S
C2139 C2136 1.403 . S
C2139 C2140 1.524 . S
C2139 C2143 1.400 . S
C2140 H2125 0.960 . S
C2140 H2126 0.960 . S
C2140 H2127 0.960 . S
C2140 C2139 1.524 . S
C2141 C2138 1.403 . S
C2141 C2142 1.392 . S
C2141 C2145 1.495 . S
C2142 C2141 1.392 . S
C2142 C2143 1.385 . S
C2142 C2144 1.478 . S
C2143 H2137 0.930 . S
C2143 C2139 1.400 . S
C2143 C2142 1.385 . S
C2144 C2142 1.478 . S
C2144 C2146 1.381 . S
C2144 C2150 1.383 . S
C2145 C2141 1.495 . S
C2145 H2151 0.959 . S
C2145 H2152 0.961 . S
C2145 H2153 0.960 . S
C2146 C2144 1.381 . S
C2146 C2147 1.394 . S
C2146 H2154 0.930 . S
C2147 C2146 1.394 . S
C2147 C2148 1.383 . S
C2147 H2155 0.929 . S
C2148 C2147 1.383 . S
C2148 C2149 1.377 . S
C2149 H2133 0.930 . S
C2149 C2148 1.377 . S
C2149 C2150 1.379 . S
C2150 H2134 0.931 . S
C2150 C2144 1.383 . S
C2150 C2149 1.379 . S
H2151 C2145 0.959 . S
H2152 C2145 0.961 . S
H2153 C2145 0.960 . S
H2154 C2146 0.930 . S
H2155 C2147 0.929 . S
H2156 C2164 0.929 . S
H2157 C2166 0.930 . S
H2158 C2168 0.930 . S
H2159 C2171 0.929 . S
H2160 C2174 0.930 . S
H2161 C2176 0.960 . S
H2162 C2176 0.960 . S
H2163 C2176 0.960 . S
C2164 H2156 0.929 . S
C2164 C2165 1.377 . S
C2164 C2166 1.384 . S
C2165 C2164 1.377 . S
C2165 C2171 1.390 . S
C2166 H2157 0.930 . S
C2166 C2164 1.384 . S
C2166 C2167 1.372 . S
C2167 C2166 1.372 . S
C2167 C2168 1.400 . S
C2167 C2172 1.490 . S
C2168 H2158 0.930 . S
C2168 C2167 1.400 . S
C2168 C2171 1.386 . S
H2169 C2185 0.930 . S
H2170 C2186 0.931 . S
C2171 H2159 0.929 . S
C2171 C2165 1.390 . S
C2171 C2168 1.386 . S
C2172 C2167 1.490 . S
C2172 C2174 1.395 . S
C2172 C2175 1.403 . S
H2173 C2179 0.930 . S
C2174 H2160 0.930 . S
C2174 C2172 1.395 . S
C2174 C2177 1.403 . S
C2175 C2172 1.403 . S
C2175 C2176 1.524 . S
C2175 C2179 1.400 . S
C2176 H2161 0.960 . S
C2176 H2162 0.960 . S
C2176 H2163 0.960 . S
C2176 C2175 1.524 . S
C2177 C2174 1.403 . S
C2177 C2178 1.392 . S
C2177 C2181 1.495 . S
C2178 C2177 1.392 . S
C2178 C2179 1.385 . S
C2178 C2180 1.478 . S
C2179 H2173 0.930 . S
C2179 C2175 1.400 . S
C2179 C2178 1.385 . S
C2180 C2178 1.478 . S
C2180 C2182 1.381 . S
C2180 C2186 1.383 . S
C2181 C2177 1.495 . S
C2181 H2187 0.959 . S
C2181 H2188 0.961 . S
C2181 H2189 0.960 . S
C2182 C2180 1.381 . S
C2182 C2183 1.394 . S
C2182 H2190 0.930 . S
C2183 C2182 1.394 . S
C2183 C2184 1.383 . S
C2183 H2191 0.929 . S
C2184 C2183 1.383 . S
C2184 C2185 1.377 . S
C2185 H2169 0.930 . S
C2185 C2184 1.377 . S
C2185 C2186 1.379 . S
C2186 H2170 0.931 . S
C2186 C2180 1.383 . S
C2186 C2185 1.379 . S
H2187 C2181 0.959 . S
H2188 C2181 0.961 . S
H2189 C2181 0.960 . S
H2190 C2182 0.930 . S
H2191 C2183 0.929 . S
H2192 C2200 0.929 . S
H2193 C2202 0.930 . S
H2194 C2204 0.930 . S
H2195 C2207 0.929 . S
H2196 C2210 0.930 . S
H2197 C2212 0.960 . S
H2198 C2212 0.960 . S
H2199 C2212 0.960 . S
C2200 H2192 0.929 . S
C2200 C2201 1.377 . S
C2200 C2202 1.384 . S
C2201 C2200 1.377 . S
C2201 C2207 1.390 . S
C2202 H2193 0.930 . S
C2202 C2200 1.384 . S
C2202 C2203 1.372 . S
C2203 C2202 1.372 . S
C2203 C2204 1.400 . S
C2203 C2208 1.490 . S
C2204 H2194 0.930 . S
C2204 C2203 1.400 . S
C2204 C2207 1.386 . S
H2205 C2221 0.930 . S
H2206 C2222 0.931 . S
C2207 H2195 0.929 . S
C2207 C2201 1.390 . S
C2207 C2204 1.386 . S
C2208 C2203 1.490 . S
C2208 C2210 1.395 . S
C2208 C2211 1.403 . S
H2209 C2215 0.930 . S
C2210 H2196 0.930 . S
C2210 C2208 1.395 . S
C2210 C2213 1.403 . S
C2211 C2208 1.403 . S
C2211 C2212 1.524 . S
C2211 C2215 1.400 . S
C2212 H2197 0.960 . S
C2212 H2198 0.960 . S
C2212 H2199 0.960 . S
C2212 C2211 1.524 . S
C2213 C2210 1.403 . S
C2213 C2214 1.392 . S
C2213 C2217 1.495 . S
C2214 C2213 1.392 . S
C2214 C2215 1.385 . S
C2214 C2216 1.478 . S
C2215 H2209 0.930 . S
C2215 C2211 1.400 . S
C2215 C2214 1.385 . S
C2216 C2214 1.478 . S
C2216 C2218 1.381 . S
C2216 C2222 1.383 . S
C2217 C2213 1.495 . S
C2217 H2223 0.959 . S
C2217 H2224 0.961 . S
C2217 H2225 0.960 . S
C2218 C2216 1.381 . S
C2218 C2219 1.394 . S
C2218 H2226 0.930 . S
C2219 C2218 1.394 . S
C2219 C2220 1.383 . S
C2219 H2227 0.929 . S
C2220 C2219 1.383 . S
C2220 C2221 1.377 . S
C2221 H2205 0.930 . S
C2221 C2220 1.377 . S
C2221 C2222 1.379 . S
C2222 H2206 0.931 . S
C2222 C2216 1.383 . S
C2222 C2221 1.379 . S
H2223 C2217 0.959 . S
H2224 C2217 0.961 . S
H2225 C2217 0.960 . S
H2226 C2218 0.930 . S
H2227 C2219 0.929 . S
H2228 C2236 0.929 . S
H2229 C2238 0.930 . S
H2230 C2240 0.930 . S
H2231 C2243 0.929 . S
H2232 C2246 0.930 . S
H2233 C2248 0.960 . S
H2234 C2248 0.960 . S
H2235 C2248 0.960 . S
C2236 H2228 0.929 . S
C2236 C2237 1.377 . S
C2236 C2238 1.384 . S
C2237 C2236 1.377 . S
C2237 C2243 1.390 . S
C2238 H2229 0.930 . S
C2238 C2236 1.384 . S
C2238 C2239 1.372 . S
C2239 C2238 1.372 . S
C2239 C2240 1.400 . S
C2239 C2244 1.490 . S
C2240 H2230 0.930 . S
C2240 C2239 1.400 . S
C2240 C2243 1.386 . S
H2241 C2257 0.930 . S
H2242 C2258 0.931 . S
C2243 H2231 0.929 . S
C2243 C2237 1.390 . S
C2243 C2240 1.386 . S
C2244 C2239 1.490 . S
C2244 C2246 1.395 . S
C2244 C2247 1.403 . S
H2245 C2251 0.930 . S
C2246 H2232 0.930 . S
C2246 C2244 1.395 . S
C2246 C2249 1.403 . S
C2247 C2244 1.403 . S
C2247 C2248 1.524 . S
C2247 C2251 1.400 . S
C2248 H2233 0.960 . S
C2248 H2234 0.960 . S
C2248 H2235 0.960 . S
C2248 C2247 1.524 . S
C2249 C2246 1.403 . S
C2249 C2250 1.392 . S
C2249 C2253 1.495 . S
C2250 C2249 1.392 . S
C2250 C2251 1.385 . S
C2250 C2252 1.478 . S
C2251 H2245 0.930 . S
C2251 C2247 1.400 . S
C2251 C2250 1.385 . S
C2252 C2250 1.478 . S
C2252 C2254 1.381 . S
C2252 C2258 1.383 . S
C2253 C2249 1.495 . S
C2253 H2259 0.959 . S
C2253 H2260 0.961 . S
C2253 H2261 0.960 . S
C2254 C2252 1.381 . S
C2254 C2255 1.394 . S
C2254 H2262 0.930 . S
C2255 C2254 1.394 . S
C2255 C2256 1.383 . S
C2255 H2263 0.929 . S
C2256 C2255 1.383 . S
C2256 C2257 1.377 . S
C2257 H2241 0.930 . S
C2257 C2256 1.377 . S
C2257 C2258 1.379 . S
C2258 H2242 0.931 . S
C2258 C2252 1.383 . S
C2258 C2257 1.379 . S
H2259 C2253 0.959 . S
H2260 C2253 0.961 . S
H2261 C2253 0.960 . S
H2262 C2254 0.930 . S
H2263 C2255 0.929 . S
H2264 C2272 0.929 . S
H2265 C2274 0.930 . S
H2266 C2276 0.930 . S
H2267 C2279 0.929 . S
H2268 C2282 0.930 . S
H2269 C2284 0.960 . S
H2270 C2284 0.960 . S
H2271 C2284 0.960 . S
C2272 H2264 0.929 . S
C2272 C2273 1.377 . S
C2272 C2274 1.384 . S
C2273 C2272 1.377 . S
C2273 C2279 1.390 . S
C2274 H2265 0.930 . S
C2274 C2272 1.384 . S
C2274 C2275 1.372 . S
C2275 C2274 1.372 . S
C2275 C2276 1.400 . S
C2275 C2280 1.490 . S
C2276 H2266 0.930 . S
C2276 C2275 1.400 . S
C2276 C2279 1.386 . S
H2277 C2293 0.930 . S
H2278 C2294 0.931 . S
C2279 H2267 0.929 . S
C2279 C2273 1.390 . S
C2279 C2276 1.386 . S
C2280 C2275 1.490 . S
C2280 C2282 1.395 . S
C2280 C2283 1.403 . S
H2281 C2287 0.930 . S
C2282 H2268 0.930 . S
C2282 C2280 1.395 . S
C2282 C2285 1.403 . S
C2283 C2280 1.403 . S
C2283 C2284 1.524 . S
C2283 C2287 1.400 . S
C2284 H2269 0.960 . S
C2284 H2270 0.960 . S
C2284 H2271 0.960 . S
C2284 C2283 1.524 . S
C2285 C2282 1.403 . S
C2285 C2286 1.392 . S
C2285 C2289 1.495 . S
C2286 C2285 1.392 . S
C2286 C2287 1.385 . S
C2286 C2288 1.478 . S
C2287 H2281 0.930 . S
C2287 C2283 1.400 . S
C2287 C2286 1.385 . S
C2288 C2286 1.478 . S
C2288 C2290 1.381 . S
C2288 C2294 1.383 . S
C2289 C2285 1.495 . S
C2289 H2295 0.959 . S
C2289 H2296 0.961 . S
C2289 H2297 0.960 . S
C2290 C2288 1.381 . S
C2290 C2291 1.394 . S
C2290 H2298 0.930 . S
C2291 C2290 1.394 . S
C2291 C2292 1.383 . S
C2291 H2299 0.929 . S
C2292 C2291 1.383 . S
C2292 C2293 1.377 . S
C2293 H2277 0.930 . S
C2293 C2292 1.377 . S
C2293 C2294 1.379 . S
C2294 H2278 0.931 . S
C2294 C2288 1.383 . S
C2294 C2293 1.379 . S
H2295 C2289 0.959 . S
H2296 C2289 0.961 . S
H2297 C2289 0.960 . S
H2298 C2290 0.930 . S
H2299 C2291 0.929 . S
H2300 C2308 0.929 . S
H2301 C2310 0.930 . S
H2302 C2312 0.930 . S
H2303 C2315 0.929 . S
H2304 C2318 0.930 . S
H2305 C2320 0.960 . S
H2306 C2320 0.960 . S
H2307 C2320 0.960 . S
C2308 H2300 0.929 . S
C2308 C2309 1.377 . S
C2308 C2310 1.384 . S
C2309 C2308 1.377 . S
C2309 C2315 1.390 . S
C2310 H2301 0.930 . S
C2310 C2308 1.384 . S
C2310 C2311 1.372 . S
C2311 C2310 1.372 . S
C2311 C2312 1.400 . S
C2311 C2316 1.490 . S
C2312 H2302 0.930 . S
C2312 C2311 1.400 . S
C2312 C2315 1.386 . S
H2313 C2329 0.930 . S
H2314 C2330 0.931 . S
C2315 H2303 0.929 . S
C2315 C2309 1.390 . S
C2315 C2312 1.386 . S
C2316 C2311 1.490 . S
C2316 C2318 1.395 . S
C2316 C2319 1.403 . S
H2317 C2323 0.930 . S
C2318 H2304 0.930 . S
C2318 C2316 1.395 . S
C2318 C2321 1.403 . S
C2319 C2316 1.403 . S
C2319 C2320 1.524 . S
C2319 C2323 1.400 . S
C2320 H2305 0.960 . S
C2320 H2306 0.960 . S
C2320 H2307 0.960 . S
C2320 C2319 1.524 . S
C2321 C2318 1.403 . S
C2321 C2322 1.392 . S
C2321 C2325 1.495 . S
C2322 C2321 1.392 . S
C2322 C2323 1.385 . S
C2322 C2324 1.478 . S
C2323 H2317 0.930 . S
C2323 C2319 1.400 . S
C2323 C2322 1.385 . S
C2324 C2322 1.478 . S
C2324 C2326 1.381 . S
C2324 C2330 1.383 . S
C2325 C2321 1.495 . S
C2325 H2331 0.959 . S
C2325 H2332 0.961 . S
C2325 H2333 0.960 . S
C2326 C2324 1.381 . S
C2326 C2327 1.394 . S
C2326 H2334 0.930 . S
C2327 C2326 1.394 . S
C2327 C2328 1.383 . S
C2327 H2335 0.929 . S
C2328 C2327 1.383 . S
C2328 C2329 1.377 . S
C2329 H2313 0.930 . S
C2329 C2328 1.377 . S
C2329 C2330 1.379 . S
C2330 H2314 0.931 . S
C2330 C2324 1.383 . S
C2330 C2329 1.379 . S
H2331 C2325 0.959 . S
H2332 C2325 0.961 . S
H2333 C2325 0.960 . S
H2334 C2326 0.930 . S
H2335 C2327 0.929 . S
H2336 C2344 0.929 . S
H2337 C2346 0.930 . S
H2338 C2348 0.930 . S
H2339 C2351 0.929 . S
H2340 C2354 0.930 . S
H2341 C2356 0.960 . S
H2342 C2356 0.960 . S
H2343 C2356 0.960 . S
C2344 H2336 0.929 . S
C2344 C2345 1.377 . S
C2344 C2346 1.384 . S
C2345 C2344 1.377 . S
C2345 C2351 1.390 . S
C2346 H2337 0.930 . S
C2346 C2344 1.384 . S
C2346 C2347 1.372 . S
C2347 C2346 1.372 . S
C2347 C2348 1.400 . S
C2347 C2352 1.490 . S
C2348 H2338 0.930 . S
C2348 C2347 1.400 . S
C2348 C2351 1.386 . S
H2349 C2365 0.930 . S
H2350 C2366 0.931 . S
C2351 H2339 0.929 . S
C2351 C2345 1.390 . S
C2351 C2348 1.386 . S
C2352 C2347 1.490 . S
C2352 C2354 1.395 . S
C2352 C2355 1.403 . S
H2353 C2359 0.930 . S
C2354 H2340 0.930 . S
C2354 C2352 1.395 . S
C2354 C2357 1.403 . S
C2355 C2352 1.403 . S
C2355 C2356 1.524 . S
C2355 C2359 1.400 . S
C2356 H2341 0.960 . S
C2356 H2342 0.960 . S
C2356 H2343 0.960 . S
C2356 C2355 1.524 . S
C2357 C2354 1.403 . S
C2357 C2358 1.392 . S
C2357 C2361 1.495 . S
C2358 C2357 1.392 . S
C2358 C2359 1.385 . S
C2358 C2360 1.478 . S
C2359 H2353 0.930 . S
C2359 C2355 1.400 . S
C2359 C2358 1.385 . S
C2360 C2358 1.478 . S
C2360 C2362 1.381 . S
C2360 C2366 1.383 . S
C2361 C2357 1.495 . S
C2361 H2367 0.959 . S
C2361 H2368 0.961 . S
C2361 H2369 0.960 . S
C2362 C2360 1.381 . S
C2362 C2363 1.394 . S
C2362 H2370 0.930 . S
C2363 C2362 1.394 . S
C2363 C2364 1.383 . S
C2363 H2371 0.929 . S
C2364 C2363 1.383 . S
C2364 C2365 1.377 . S
C2365 H2349 0.930 . S
C2365 C2364 1.377 . S
C2365 C2366 1.379 . S
C2366 H2350 0.931 . S
C2366 C2360 1.383 . S
C2366 C2365 1.379 . S
H2367 C2361 0.959 . S
H2368 C2361 0.961 . S
H2369 C2361 0.960 . S
H2370 C2362 0.930 . S
H2371 C2363 0.929 . S
C672 C355 1.480 . S
C653 C2 1.474 . S
C708 C333 1.602 . S
C689 C48 1.630 . S
C744 C330 0.412 . S
C725 C97 0.412 . S
C761 C149 0.409 . S
C780 C342 0.458 . S
C797 C189 1.629 . S
C816 C325 1.569 . S
C852 C347 0.377 . S
C833 C202 0.398 . S
C869 C248 0.402 . S
C888 C352 0.353 . S
C905 C297 1.476 . S
C924 C348 1.490 . S
C960 C406 3.035 . S
C941 C31 3.095 . S
C977 C52 1.404 . S
C996 C456 1.400 . S
C1032 C379 1.561 . S
C1013 C88 1.596 . S
C1068 C455 0.363 . S
C1049 C122 0.460 . S
C1085 C162 0.404 . S
C1104 C384 0.433 . S
C1140 C450 3.036 . S
C1121 C231 3.086 . S
C1157 C252 1.426 . S
C1176 C409 1.444 . S
C1193 C288 1.632 . S
C1212 C441 1.585 . S
C1229 C29 1.637 . S
C1248 C433 1.580 . S
C1265 C191 1.415 . S
C1284 C463 1.413 . S
C1320 C387 1.571 . S
C1301 C229 1.607 . S
C1356 C438 0.379 . S
C1337 C257 0.452 . S
C1373 C292 3.101 . S
C1392 C396 3.055 . S
C1409 C92 3.098 . S
C1428 C460 3.036 . S
C1464 C402 1.430 . S
C1445 C151 1.427 . S
C1481 C57 0.443 . S
C1500 C401 0.435 . S
C1517 C282 1.472 . S
C1536 C517 1.490 . S
C1553 C168 1.636 . S
C1572 C495 1.567 . S
C1608 C492 0.388 . S
C1589 C217 0.417 . S
C1644 C504 0.430 . S
C1625 C269 0.414 . S
C1661 C69 1.631 . S
C1680 C487 1.583 . S
C1716 C509 0.409 . S
C1697 C82 0.396 . S
C1733 C128 0.393 . S
C1752 C514 0.396 . S
C1769 C17 1.469 . S
C1788 C510 1.473 . S
C1805 C311 3.096 . S
C1824 C568 3.045 . S
C1860 C618 1.399 . S
C1841 C172 1.403 . S
C1877 C208 1.593 . S
C1896 C541 1.524 . S
C1913 C242 0.459 . S
C1932 C617 0.371 . S
C1968 C546 0.358 . S
C1949 C42 0.428 . S
C1985 C111 3.086 . S
C2004 C612 3.031 . S
C2040 C571 1.421 . S
C2021 C132 1.419 . S
C2076 C603 1.553 . S
C2057 C8 1.630 . S
C2112 C595 1.606 . S
C2093 C309 1.639 . S
C2129 C71 1.419 . S
C2148 C625 1.411 . S
C2165 C109 1.607 . S
C2184 C549 1.572 . S
C2220 C600 0.403 . S
C2201 C137 0.445 . S
C2237 C12 3.101 . S
C2256 C558 3.052 . S
C2273 C212 3.099 . S
C2292 C622 3.036 . S
C2328 C564 1.455 . S
C2309 C271 1.431 . S
C2364 C563 0.449 . S
C2345 C177 0.434 . S
