# Generated by pormake.
# Topology pth, (4,4)-cn, num edge types: 1
# Building blocks:
#     Node 0, Type 0, BuildingBlock: KUFVIS_clean_sbu_0, # of connection points: 4
#     Node 1, Type 0, BuildingBlock: KUFVIS_clean_sbu_0, # of connection points: 4
#     Node 2, Type 0, BuildingBlock: KUFVIS_clean_sbu_0, # of connection points: 4
#     Node 3, Type 1, BuildingBlock: KOZSID_clean_sbu_0, # of connection points: 4
#     Node 4, Type 1, BuildingBlock: KOZSID_clean_sbu_0, # of connection points: 4
#     Node 5, Type 1, BuildingBlock: KOZSID_clean_sbu_0, # of connection points: 4
#     Edge 6, Type (0, 1), None
#     Edge 7, Type (0, 1), None
#     Edge 8, Type (0, 1), None
#     Edge 9, Type (0, 1), None
#     Edge 10, Type (0, 1), None
#     Edge 11, Type (0, 1), None
#     Edge 12, Type (0, 1), None
#     Edge 13, Type (0, 1), None
#     Edge 14, Type (0, 1), None
#     Edge 15, Type (0, 1), None
#     Edge 16, Type (0, 1), None
#     Edge 17, Type (0, 1), None
# Relax obj value: 0.011
# Max RMSD: 0.101
# Mean RMSD: 0.056
data_MOF--net-pth--node1-KUFVIS_clean_sbu_0--node2-KOZSID_clean_sbu_0--edge1-none
_symmetry_space_group_name_H-M    P1
_symmetry_Int_Tables_number       1
_symmetry_cell_setting            triclinic
loop_
_symmetry_equiv_pos_as_xyz
'x, y, z'
_cell_length_a     13.014023
_cell_length_b     13.090917
_cell_length_c     30.404622
_cell_angle_alpha  85.734036
_cell_angle_beta   87.076858
_cell_angle_gamma 119.88772
loop_
_atom_site_label
_atom_site_type_symbol
_atom_site_fract_x
_atom_site_fract_y
_atom_site_fract_z
_atom_type_partial_charge
Mn0 Mn 0.1218 0.08629 0.04657 0.0
Mn1 Mn 0.04677 0.22544 0.96585 0.0
C2 C 0.99464 0.96161 0.99812 0.0
C3 C 0.09837 0.96147 0.11051 0.0
C4 C 0.30543 0.31368 0.98808 0.0
O5 O 0.12243 0.2206 0.07595 0.0
O6 O 0.04743 0.29215 0.02428 0.0
C7 C 0.80782 0.14551 0.00649 0.0
N8 N 0.87822 0.15827 0.96896 0.0
C9 C 0.70528 0.06218 0.92994 0.0
C10 C 0.63295 0.05234 0.96753 0.0
C11 C 0.68443 0.09226 0.00632 0.0
C12 C 0.82981 0.1164 0.93202 0.0
H13 H 0.84399 0.17247 0.03737 0.0
C14 C 0.08332 0.28912 0.06305 0.0
O15 O 0.20042 0.0503 0.09444 0.0
O16 O 1.00671 0.95933 0.09467 0.0
N17 N 0.04514 0.17298 0.89984 0.0
C18 C 0.15703 0.12688 0.84858 0.0
C19 C 0.04962 1.00263 0.81709 0.0
C20 C 0.88939 0.94966 0.82868 0.0
C21 C 0.82705 1.00375 0.86537 0.0
C22 C 0.90109 0.10764 0.8998 0.0
H23 H 0.2612 0.15763 0.84941 0.0
O24 O 0.07853 0.94625 0.01308 0.0
O25 O 1.00934 0.06845 1.00239 0.0
O26 O 0.28109 0.21232 0.00719 0.0
O27 O 0.22213 0.32465 0.97197 0.0
C28 C 0.71701 0.9914 0.85927 0.0
C29 C 0.65463 0.01539 0.89154 0.0
H30 H 0.53718 0.01097 0.96735 0.0
H31 H 0.62934 0.08259 0.03601 0.0
H32 H 0.12634 0.06706 0.82743 0.0
H33 H 0.97119 0.95929 0.81758 0.0
H34 H 0.68451 0.97434 0.82765 0.0
H35 H 0.56358 0.99203 0.88727 0.0
Mn36 Mn 0.10809 0.14444 0.36938 0.0
Mn37 Mn 0.23255 0.39738 0.41872 0.0
C38 C 0.23309 0.16861 0.42536 0.0
C39 C 0.11224 0.01722 0.31736 0.0
C40 C 0.96695 0.21411 0.43364 0.0
O41 O 0.09546 0.26445 0.32465 0.0
O42 O 0.19525 0.43201 0.35821 0.0
C43 C 0.46138 0.55435 0.3639 0.0
N44 N 0.40114 0.49109 0.40334 0.0
C45 C 0.58122 0.58228 0.43948 0.0
C46 C 0.64575 0.64385 0.39869 0.0
C47 C 0.5854 0.62973 0.36067 0.0
C48 C 0.45834 0.5045 0.44022 0.0
H49 H 0.41448 0.55058 0.33567 0.0
C50 C 0.1368 0.37617 0.3267 0.0
O51 O 0.01364 1.0028 0.33644 0.0
O52 O 0.20816 0.11176 0.32527 0.0
N53 N 0.2709 0.3743 0.4772 0.0
C54 C 0.19524 0.31197 0.51434 0.0
C55 C 0.2409 0.32016 0.55561 0.0
C56 C 0.36314 0.39512 0.55844 0.0
C57 C 0.43899 0.45896 0.51979 0.0
C58 C 0.38915 0.44369 0.4794 0.0
H59 H 0.1006 0.25725 0.51258 0.0
O60 O 0.15194 0.064 0.41747 0.0
O61 O 0.23561 0.2568 0.4016 0.0
O62 O 0.9716 0.13782 0.41095 0.0
O63 O 0.06008 0.31154 0.43841 0.0
C64 C 0.56129 0.54056 0.51989 0.0
C65 C 0.63291 0.60019 0.47977 0.0
H66 H 0.7409 0.70495 0.39645 0.0
H67 H 0.63373 0.67976 0.32926 0.0
H68 H 0.18169 0.27091 0.58529 0.0
H69 H 0.39752 0.4038 0.59048 0.0
H70 H 0.60093 0.56049 0.55069 0.0
H71 H 0.72699 0.66237 0.48043 0.0
Mn72 Mn 0.1579 0.06886 0.70266 0.0
Mn73 Mn 0.99162 0.15053 0.76558 0.0
C74 C 0.25651 0.18985 0.75783 0.0
C75 C 0.31126 0.09313 0.64997 0.0
C76 C 0.91412 0.88763 0.74721 0.0
O77 O 0.03726 0.07227 0.66075 0.0
O78 O 0.9675 0.16898 0.7012 0.0
C79 C 0.05277 0.3948 0.73591 0.0
N80 N 0.05806 0.3182 0.76757 0.0
C81 C 0.17669 0.47858 0.80906 0.0
C82 C 0.17459 0.55902 0.77657 0.0
C83 C 0.11186 0.51673 0.73977 0.0
C84 C 0.1154 0.3584 0.80323 0.0
H85 H 1.00343 0.36349 0.70772 0.0
C86 C 0.97685 0.12555 0.66538 0.0
O87 O 0.22014 0.99032 0.66376 0.0
O88 O 0.3025 0.18285 0.66072 0.0
N89 N 1.01044 0.14173 0.8359 0.0
C90 C 0.99911 1.00096 0.89113 0.0
C91 C 0.13354 0.07283 0.92385 0.0
C92 C 0.23509 0.22684 0.9097 0.0
C93 C 0.22091 0.32248 0.86927 0.0
C94 C 0.11388 0.27755 0.83353 0.0
H95 H 0.93513 0.89796 0.89204 0.0
O96 O 0.27463 0.1051 0.74773 0.0
O97 O 0.16021 0.18488 0.74268 0.0
O98 O 0.02103 0.91079 0.7385 0.0
O99 O 0.89692 0.97572 0.75042 0.0
C100 C 0.25535 0.43827 0.87616 0.0
C101 C 0.23375 0.51428 0.84759 0.0
H102 H 0.21986 0.65312 0.77974 0.0
H103 H 0.10832 0.57768 0.71465 0.0
H104 H 0.05885 0.01645 0.91327 0.0
H105 H 0.32442 0.25555 0.91699 0.0
H106 H 0.27745 0.46174 0.90789 0.0
H107 H 0.26001 0.60218 0.856 0.0
C108 C 0.20084 0.84366 0.13199 0.0
C109 C 0.29613 0.90407 0.09881 0.0
C110 C 0.37603 0.86798 0.10669 0.0
C111 C 0.32449 0.78518 0.14294 0.0
N112 N 0.21687 0.76584 0.15841 0.0
Co113 Co 0.10257 0.63078 0.20211 0.0
N114 N 0.23355 0.61274 0.22659 0.0
C115 C 0.34221 0.65455 0.20459 0.0
C116 C 0.40628 0.6074 0.22218 0.0
C117 C 0.33321 0.52871 0.25712 0.0
C118 C 0.22974 0.53492 0.25987 0.0
N119 N 0.98777 0.49196 0.24548 0.0
C120 C 1.00667 0.43061 0.2793 0.0
C121 C 0.89987 0.33586 0.29935 0.0
C122 C 0.81157 0.33515 0.27644 0.0
C123 C 0.86896 0.42953 0.24391 0.0
N124 N 0.97386 0.64966 0.17693 0.0
C125 C 0.85703 0.56814 0.18263 0.0
C126 C 0.78833 0.60726 0.16311 0.0
C127 C 0.86663 0.72051 0.14397 0.0
C128 C 0.98009 0.74507 0.15283 0.0
N129 N 0.08752 0.52017 0.15827 0.0
C130 C 0.07956 0.36794 0.09549 0.0
C131 C 0.07213 0.46919 0.08278 0.0
C132 C 0.07634 0.54393 0.11459 0.0
C133 C 0.087 0.34321 0.14048 0.0
C134 C 0.08987 0.41894 0.17098 0.0
N135 N 0.11446 0.74307 0.245 0.0
C136 C 1.01016 0.81549 0.28996 0.0
C137 C 0.1149 0.92385 0.29179 0.0
C138 C 0.22104 0.93721 0.27109 0.0
C139 C 0.21895 0.84617 0.24796 0.0
C140 C 1.01193 0.72716 0.26695 0.0
H141 H 0.30121 0.86072 0.23125 0.0
H142 H 0.92822 0.64759 0.26549 0.0
H143 H 0.07197 0.62177 0.10358 0.0
H144 H 0.09507 0.39471 0.20483 0.0
C145 C 0.37734 0.72998 0.16526 0.0
C146 C 0.09295 0.8548 0.13557 0.0
C147 C 0.12392 0.44971 0.28956 0.0
C148 C 0.81431 0.46712 0.21332 0.0
H149 H 0.30687 0.96384 0.07023 0.0
H150 H 0.4609 0.89768 0.0879 0.0
H151 H 0.49204 0.62181 0.20913 0.0
H152 H 0.34934 0.46508 0.27555 0.0
H153 H 0.88745 0.27125 0.32656 0.0
H154 H 0.71685 0.27285 0.28265 0.0
H155 H 0.6921 0.56131 0.16447 0.0
H156 H 0.84066 0.77663 0.12589 0.0
H157 H 0.06576 0.49211 0.04846 0.0
H158 H 0.09092 0.26528 0.15242 0.0
H159 H 0.92606 0.7987 0.30598 0.0
H160 H 0.30507 0.01804 0.27219 0.0
C161 C 0.43167 1.00484 0.61285 0.0
C162 C 0.35258 0.88724 0.6293 0.0
C163 C 0.36089 0.81893 0.59893 0.0
C164 C 0.4458 0.89774 0.56613 0.0
N165 N 0.49545 0.01135 0.57465 0.0
Co166 Co 0.62531 0.15223 0.53586 0.0
N167 N 0.64624 0.05132 0.49406 0.0
C168 C 0.5695 0.93541 0.49212 0.0
C169 C 0.6076 0.88815 0.4608 0.0
C170 C 0.71631 0.97907 0.44229 0.0
C171 C 0.73929 0.07741 0.46369 0.0
N172 N 0.75755 0.29156 0.49796 0.0
C173 C 0.83852 0.29668 0.46641 0.0
C174 C 0.91059 0.41213 0.44614 0.0
C175 C 0.87833 0.48192 0.4675 0.0
C176 C 0.78694 0.40553 0.49885 0.0
N177 N 0.60438 0.2544 0.57685 0.0
C178 C 0.66492 0.37384 0.57242 0.0
C179 C 0.64045 0.42042 0.60771 0.0
C180 C 0.55287 0.32498 0.63466 0.0
C181 C 0.52863 0.22521 0.61409 0.0
N182 N 0.74535 0.14479 0.57224 0.0
C183 C 0.90701 0.13384 0.62905 0.0
C184 C 0.90989 0.24062 0.61697 0.0
C185 C 0.83051 0.24461 0.58826 0.0
C186 C 0.82469 0.03329 0.61045 0.0
C187 C 0.74458 0.04043 0.58248 0.0
N188 N 0.50383 0.16091 0.49968 0.0
C189 C 0.44797 0.22638 0.43259 0.0
C190 C 0.33066 0.18009 0.45186 0.0
C191 C 0.3021 0.12379 0.49486 0.0
C192 C 0.38884 0.11718 0.51806 0.0
C193 C 0.53229 0.21411 0.45667 0.0
H194 H 0.35812 0.07353 0.55068 0.0
H195 H 0.61945 0.24604 0.43983 0.0
H196 H 0.83784 0.32908 0.57984 0.0
H197 H 0.68065 0.96043 0.56999 0.0
C198 C 0.47939 0.86916 0.52659 0.0
C199 C 0.42505 0.10684 0.6277 0.0
C200 C 0.84934 0.19428 0.45501 0.0
C201 C 0.74337 0.43871 0.53464 0.0
H202 H 0.2911 0.85334 0.65903 0.0
H203 H 0.30869 0.72337 0.60005 0.0
H204 H 0.56503 0.79656 0.45415 0.0
H205 H 0.77167 0.97159 0.41656 0.0
H206 H 0.98041 0.44354 0.41914 0.0
H207 H 0.92061 0.57761 0.46226 0.0
H208 H 0.67963 0.5129 0.61286 0.0
H209 H 0.51048 0.32938 0.66541 0.0
H210 H 0.97246 0.321 0.63014 0.0
H211 H 0.81807 0.94831 0.61917 0.0
H212 H 0.47296 0.26676 0.39848 0.0
H213 H 0.21184 0.08341 0.51064 0.0
C214 C 0.83824 0.67969 0.79828 0.0
C215 C 0.92744 0.65686 0.78483 0.0
C216 C 0.91447 0.56495 0.81402 0.0
C217 C 0.81882 0.53614 0.84374 0.0
N218 N 0.76975 0.60412 0.83557 0.0
Co219 Co 0.62975 0.58976 0.87295 0.0
N220 N 0.61003 0.45534 0.91589 0.0
C221 C 0.68237 0.40961 0.91494 0.0
C222 C 0.65235 0.32227 0.94898 0.0
C223 C 0.55228 0.30833 0.97248 0.0
C224 C 0.5279 0.39058 0.9518 0.0
N225 N 0.49564 0.58295 0.91075 0.0
C226 C 0.44911 0.52812 0.95274 0.0
C227 C 0.38924 0.57735 0.97352 0.0
C228 C 0.39468 0.66318 0.94319 0.0
C229 C 0.45795 0.66191 0.90582 0.0
N230 N 0.64399 0.72 0.82916 0.0
C231 C 0.56354 0.75631 0.82845 0.0
C232 C 0.5601 0.80543 0.78728 0.0
C233 C 0.64876 0.80697 0.7607 0.0
C234 C 0.69975 0.75636 0.78684 0.0
N235 N 0.51806 0.46982 0.83224 0.0
C236 C 0.35621 0.29358 0.77866 0.0
C237 C 0.37147 0.40707 0.77673 0.0
C238 C 0.44934 0.49125 0.80381 0.0
C239 C 0.44167 0.27974 0.80122 0.0
C240 C 0.5173 0.36527 0.8283 0.0
N241 N 0.74141 0.70466 0.9149 0.0
C242 C 0.7909 0.85871 0.96559 0.0
C243 C 0.89542 0.86108 0.97598 0.0
C244 C 0.9095 0.76869 0.9609 0.0
C245 C 0.83306 0.69314 0.931 0.0
C246 C 0.71949 0.78518 0.93429 0.0
H247 H 0.85541 0.63122 0.91941 0.0
H248 H 0.65125 0.80138 0.92477 0.0
H249 H 0.44528 0.56988 0.80221 0.0
H250 H 0.57374 0.34357 0.8461 0.0
C251 C 0.77498 0.44897 0.8806 0.0
C252 C 0.81564 0.76728 0.77276 0.0
C253 C 0.43206 0.41151 0.96905 0.0
C254 C 0.48635 0.73432 0.86597 0.0
H255 H 0.99261 0.69945 0.75618 0.0
H256 H 0.96745 0.52274 0.81378 0.0
H257 H 0.70092 0.27769 0.9562 0.0
H258 H 0.50575 0.24837 1.00233 0.0
H259 H 0.33941 0.5478 0.00599 0.0
H260 H 0.35486 0.71774 0.94747 0.0
H261 H 0.50205 0.83882 0.77813 0.0
H262 H 0.67629 0.8451 0.72638 0.0
H263 H 0.32099 0.4304 0.75521 0.0
H264 H 0.44287 0.19758 0.80141 0.0
H265 H 0.76674 0.91714 0.98015 0.0
H266 H 0.98525 0.76043 0.96907 0.0
loop_
_geom_bond_atom_site_label_1
_geom_bond_atom_site_label_2
_geom_bond_distance
_geom_bond_site_symmetry_2
_ccdc_geom_bond_type
Mn0 O5 2.095 . S
Mn0 O15 2.162 1_545 S
Mn0 O16 2.297 1_545 S
Mn0 O24 2.385 1_544 S
Mn0 O25 2.209 . S
Mn0 O26 2.094 1_554 S
Mn1 O6 2.121 1_556 S
Mn1 N8 2.257 1_455 S
Mn1 N17 2.282 . S
Mn1 O25 2.215 1_556 S
Mn1 O27 2.117 . S
C2 O24 1.234 . S
C2 O25 1.283 1_566 S
C3 O15 1.281 . S
C3 O16 1.236 . S
C4 O26 1.240 . S
C4 O27 1.264 . S
O5 Mn0 2.095 . S
O5 C14 1.250 . S
O6 Mn1 2.121 1_554 S
O6 C14 1.258 . S
C7 N8 1.326 1_554 S
C7 C11 1.460 1_554 S
C7 H13 0.929 . S
N8 Mn1 2.257 1_655 S
N8 C7 1.326 1_556 S
N8 C12 1.362 . S
C9 C10 1.258 . S
C9 C12 1.431 . S
C9 C29 1.449 . S
C10 C9 1.258 . S
C10 C11 1.477 . S
C10 H30 0.931 . S
C11 C7 1.460 1_556 S
C11 C10 1.477 . S
C11 H31 0.930 1_556 S
C12 N8 1.362 . S
C12 C9 1.431 . S
C12 C22 1.476 . S
H13 C7 0.929 . S
C14 O5 1.250 . S
C14 O6 1.258 . S
O15 Mn0 2.162 1_565 S
O15 C3 1.281 . S
O16 Mn0 2.297 1_565 S
O16 C3 1.236 . S
N17 Mn1 2.282 . S
N17 C18 1.328 . S
N17 C22 1.318 1_455 S
C18 N17 1.328 . S
C18 C19 1.457 . S
C18 H23 0.929 . S
C19 C18 1.457 . S
C19 C20 1.291 1_455 S
C19 H32 0.931 . S
C20 C19 1.291 1_655 S
C20 C21 1.373 . S
C20 H33 0.929 . S
C21 C20 1.373 . S
C21 C22 1.396 . S
C21 C28 1.403 . S
C22 C12 1.476 . S
C22 N17 1.318 1_655 S
C22 C21 1.396 . S
H23 C18 0.929 . S
O24 Mn0 2.385 1_566 S
O24 C2 1.234 . S
O25 Mn0 2.209 . S
O25 Mn1 2.215 1_554 S
O25 C2 1.283 1_544 S
O26 Mn0 2.094 1_556 S
O26 C4 1.240 . S
O27 Mn1 2.117 . S
O27 C4 1.264 . S
C28 C21 1.403 . S
C28 C29 1.399 . S
C28 H34 0.929 . S
C29 C9 1.449 . S
C29 C28 1.399 . S
C29 H35 0.930 . S
H30 C10 0.931 . S
H31 C11 0.930 1_554 S
H32 C19 0.931 . S
H33 C20 0.929 . S
H34 C28 0.929 . S
H35 C29 0.930 . S
Mn36 O41 2.095 . S
Mn36 O51 2.162 1_445 S
Mn36 O52 2.297 . S
Mn36 O60 2.385 . S
Mn36 O61 2.209 . S
Mn36 O62 2.094 1_455 S
Mn37 O42 2.121 . S
Mn37 N44 2.257 . S
Mn37 N53 2.282 . S
Mn37 O61 2.215 . S
Mn37 O63 2.117 1_455 S
C38 O60 1.234 . S
C38 O61 1.283 . S
C39 O51 1.281 1_455 S
C39 O52 1.236 1_565 S
C40 O62 1.240 . S
C40 O63 1.264 . S
O41 Mn36 2.095 . S
O41 C50 1.250 . S
O42 Mn37 2.121 . S
O42 C50 1.258 . S
C43 N44 1.326 . S
C43 C47 1.460 . S
C43 H49 0.929 . S
N44 Mn37 2.257 . S
N44 C43 1.326 . S
N44 C48 1.362 . S
C45 C46 1.258 . S
C45 C48 1.431 . S
C45 C65 1.449 . S
C46 C45 1.258 . S
C46 C47 1.477 . S
C46 H66 0.931 . S
C47 C43 1.460 . S
C47 C46 1.477 . S
C47 H67 0.930 . S
C48 N44 1.362 . S
C48 C45 1.431 . S
C48 C58 1.476 . S
H49 C43 0.929 . S
C50 O41 1.250 . S
C50 O42 1.258 . S
O51 Mn36 2.162 1_665 S
O51 C39 1.281 1_655 S
O52 Mn36 2.297 . S
O52 C39 1.236 1_545 S
N53 Mn37 2.282 . S
N53 C54 1.328 . S
N53 C58 1.318 . S
C54 N53 1.328 . S
C54 C55 1.457 . S
C54 H59 0.929 . S
C55 C54 1.457 . S
C55 C56 1.291 . S
C55 H68 0.931 . S
C56 C55 1.291 . S
C56 C57 1.373 . S
C56 H69 0.929 . S
C57 C56 1.373 . S
C57 C58 1.396 . S
C57 C64 1.403 . S
C58 C48 1.476 . S
C58 N53 1.318 . S
C58 C57 1.396 . S
H59 C54 0.929 . S
O60 Mn36 2.385 . S
O60 C38 1.234 . S
O61 Mn36 2.209 . S
O61 Mn37 2.215 . S
O61 C38 1.283 . S
O62 Mn36 2.094 1_655 S
O62 C40 1.240 . S
O63 Mn37 2.117 1_655 S
O63 C40 1.264 . S
C64 C57 1.403 . S
C64 C65 1.399 . S
C64 H70 0.929 . S
C65 C45 1.449 . S
C65 C64 1.399 . S
C65 H71 0.930 . S
H66 C46 0.931 . S
H67 C47 0.930 . S
H68 C55 0.931 . S
H69 C56 0.929 . S
H70 C64 0.929 . S
H71 C65 0.930 . S
Mn72 O77 2.095 . S
Mn72 O87 2.162 1_545 S
Mn72 O88 2.297 . S
Mn72 O96 2.385 . S
Mn72 O97 2.209 . S
Mn72 O98 2.094 1_545 S
Mn73 O78 2.121 . S
Mn73 N80 2.257 1_655 S
Mn73 N89 2.282 1_655 S
Mn73 O97 2.215 1_655 S
Mn73 O99 2.117 1_545 S
C74 O96 1.234 . S
C74 O97 1.283 . S
C75 O87 1.281 1_545 S
C75 O88 1.236 . S
C76 O98 1.240 1_655 S
C76 O99 1.264 . S
O77 Mn72 2.095 . S
O77 C86 1.250 1_455 S
O78 Mn73 2.121 . S
O78 C86 1.258 . S
C79 N80 1.326 . S
C79 C83 1.460 . S
C79 H85 0.929 . S
N80 Mn73 2.257 1_455 S
N80 C79 1.326 . S
N80 C84 1.362 . S
C81 C82 1.258 . S
C81 C84 1.431 . S
C81 C101 1.449 . S
C82 C81 1.258 . S
C82 C83 1.477 . S
C82 H102 0.931 . S
C83 C79 1.460 . S
C83 C82 1.477 . S
C83 H103 0.930 . S
C84 N80 1.362 . S
C84 C81 1.431 . S
C84 C94 1.476 . S
H85 C79 0.929 . S
C86 O77 1.250 1_655 S
C86 O78 1.258 . S
O87 Mn72 2.162 1_565 S
O87 C75 1.281 1_565 S
O88 Mn72 2.297 . S
O88 C75 1.236 . S
N89 Mn73 2.282 1_455 S
N89 C90 1.328 . S
N89 C94 1.318 . S
C90 N89 1.328 . S
C90 C91 1.457 . S
C90 H95 0.929 . S
C91 C90 1.457 . S
C91 C92 1.291 . S
C91 H104 0.931 . S
C92 C91 1.291 . S
C92 C93 1.373 . S
C92 H105 0.929 . S
C93 C92 1.373 . S
C93 C94 1.396 . S
C93 C100 1.403 . S
C94 C84 1.476 . S
C94 N89 1.318 . S
C94 C93 1.396 . S
H95 C90 0.929 . S
O96 Mn72 2.385 . S
O96 C74 1.234 . S
O97 Mn72 2.209 . S
O97 Mn73 2.215 1_455 S
O97 C74 1.283 . S
O98 Mn72 2.094 1_565 S
O98 C76 1.240 1_455 S
O99 Mn73 2.117 1_565 S
O99 C76 1.264 . S
C100 C93 1.403 . S
C100 C101 1.399 . S
C100 H106 0.929 . S
C101 C81 1.449 . S
C101 C100 1.399 . S
C101 H107 0.930 . S
H102 C82 0.931 . S
H103 C83 0.930 . S
H104 C91 0.931 . S
H105 C92 0.929 . S
H106 C100 0.929 . S
H107 C101 0.930 . S
C108 C109 1.443 . S
C108 N112 1.376 . S
C108 C146 1.389 . S
C109 C108 1.443 . S
C109 C110 1.340 . S
C109 H149 0.951 . S
C110 C109 1.340 . S
C110 C111 1.439 . S
C110 H150 0.950 . S
C111 C110 1.439 . S
C111 N112 1.374 . S
C111 C145 1.395 . S
N112 C108 1.376 . S
N112 C111 1.374 . S
N112 Co113 2.008 . S
Co113 N112 2.008 . S
Co113 N114 1.995 . S
Co113 N119 2.008 1_455 S
Co113 N124 1.995 1_455 S
Co113 N129 2.282 . S
Co113 N135 2.282 . S
N114 Co113 1.995 . S
N114 C115 1.376 . S
N114 C118 1.383 . S
C115 N114 1.376 . S
C115 C116 1.446 . S
C115 C145 1.391 . S
C116 C115 1.446 . S
C116 C117 1.339 . S
C116 H151 0.949 . S
C117 C116 1.339 . S
C117 C118 1.439 . S
C117 H152 0.950 . S
C118 N114 1.383 . S
C118 C117 1.439 . S
C118 C147 1.392 . S
N119 Co113 2.008 1_655 S
N119 C120 1.376 . S
N119 C123 1.374 . S
C120 N119 1.376 . S
C120 C121 1.443 . S
C120 C147 1.389 1_655 S
C121 C120 1.443 . S
C121 C122 1.340 . S
C121 H153 0.951 . S
C122 C121 1.340 . S
C122 C123 1.439 . S
C122 H154 0.950 . S
C123 N119 1.374 . S
C123 C122 1.439 . S
C123 C148 1.395 . S
N124 Co113 1.995 1_655 S
N124 C125 1.376 . S
N124 C128 1.383 . S
C125 N124 1.376 . S
C125 C126 1.446 . S
C125 C148 1.391 . S
C126 C125 1.446 . S
C126 C127 1.339 . S
C126 H155 0.949 . S
C127 C126 1.339 . S
C127 C128 1.439 . S
C127 H156 0.950 . S
C128 N124 1.383 . S
C128 C127 1.439 . S
C128 C146 1.392 1_655 S
N129 Co113 2.282 . S
N129 C132 1.326 1_455 S
N129 C134 1.332 . S
C130 C131 1.386 1_455 S
C130 C133 1.388 . S
C131 C130 1.386 1_655 S
C131 C132 1.377 . S
C131 H157 0.950 . S
C132 N129 1.326 1_655 S
C132 C131 1.377 . S
C132 H143 0.962 . S
C133 C130 1.388 . S
C133 C134 1.382 . S
C133 H158 0.950 . S
C134 N129 1.332 . S
C134 C133 1.382 . S
C134 H144 0.948 . S
N135 Co113 2.282 . S
N135 C139 1.332 . S
N135 C140 1.332 1_455 S
C136 C137 1.388 1_655 S
C136 C140 1.382 . S
C136 H159 0.950 . S
C137 C136 1.388 1_455 S
C137 C138 1.386 . S
C138 C137 1.386 . S
C138 C139 1.382 . S
C138 H160 0.950 . S
C139 N135 1.332 . S
C139 C138 1.382 . S
C139 H141 0.952 . S
C140 N135 1.332 1_655 S
C140 C136 1.382 . S
C140 H142 0.948 . S
H141 C139 0.952 . S
H142 C140 0.948 . S
H143 C132 0.962 . S
H144 C134 0.948 . S
C145 C111 1.395 . S
C145 C115 1.391 . S
C146 C108 1.389 . S
C146 C128 1.392 1_455 S
C147 C118 1.392 . S
C147 C120 1.389 1_455 S
C148 C123 1.395 . S
C148 C125 1.391 . S
H149 C109 0.951 . S
H150 C110 0.950 . S
H151 C116 0.949 . S
H152 C117 0.950 . S
H153 C121 0.951 . S
H154 C122 0.950 . S
H155 C126 0.949 . S
H156 C127 0.950 . S
H157 C131 0.950 . S
H158 C133 0.950 . S
H159 C136 0.950 . S
H160 C138 0.950 . S
C161 C162 1.443 1_545 S
C161 N165 1.376 . S
C161 C199 1.389 . S
C162 C161 1.443 1_565 S
C162 C163 1.340 . S
C162 H202 0.951 . S
C163 C162 1.340 . S
C163 C164 1.439 . S
C163 H203 0.950 . S
C164 C163 1.439 . S
C164 N165 1.374 1_565 S
C164 C198 1.395 . S
N165 C161 1.376 . S
N165 C164 1.374 1_545 S
N165 Co166 2.008 . S
Co166 N165 2.008 . S
Co166 N167 1.995 . S
Co166 N172 2.008 . S
Co166 N177 1.995 . S
Co166 N182 2.282 . S
Co166 N188 2.282 . S
N167 Co166 1.995 . S
N167 C168 1.376 1_545 S
N167 C171 1.383 . S
C168 N167 1.376 1_565 S
C168 C169 1.446 . S
C168 C198 1.391 . S
C169 C168 1.446 . S
C169 C170 1.339 . S
C169 H204 0.949 . S
C170 C169 1.339 . S
C170 C171 1.439 1_565 S
C170 H205 0.950 . S
C171 N167 1.383 . S
C171 C170 1.439 1_545 S
C171 C200 1.392 . S
N172 Co166 2.008 . S
N172 C173 1.376 . S
N172 C176 1.374 . S
C173 N172 1.376 . S
C173 C174 1.443 . S
C173 C200 1.389 . S
C174 C173 1.443 . S
C174 C175 1.340 . S
C174 H206 0.951 1_655 S
C175 C174 1.340 . S
C175 C176 1.439 . S
C175 H207 0.950 1_655 S
C176 N172 1.374 . S
C176 C175 1.439 . S
C176 C201 1.395 . S
N177 Co166 1.995 . S
N177 C178 1.376 . S
N177 C181 1.383 . S
C178 N177 1.376 . S
C178 C179 1.446 . S
C178 C201 1.391 . S
C179 C178 1.446 . S
C179 C180 1.339 . S
C179 H208 0.949 . S
C180 C179 1.339 . S
C180 C181 1.439 . S
C180 H209 0.950 . S
C181 N177 1.383 . S
C181 C180 1.439 . S
C181 C199 1.392 . S
N182 Co166 2.282 . S
N182 C185 1.332 . S
N182 C187 1.332 . S
C183 C184 1.386 . S
C183 C186 1.388 . S
C184 C183 1.386 . S
C184 C185 1.382 . S
C184 H210 0.950 . S
C185 N182 1.332 . S
C185 C184 1.382 . S
C185 H196 0.952 . S
C186 C183 1.388 . S
C186 C187 1.382 . S
C186 H211 0.950 1_545 S
C187 N182 1.332 . S
C187 C186 1.382 . S
C187 H197 0.948 1_545 S
N188 Co166 2.282 . S
N188 C192 1.332 . S
N188 C193 1.332 . S
C189 C190 1.388 . S
C189 C193 1.382 . S
C189 H212 0.950 . S
C190 C189 1.388 . S
C190 C191 1.386 . S
C191 C190 1.386 . S
C191 C192 1.382 . S
C191 H213 0.950 . S
C192 N188 1.332 . S
C192 C191 1.382 . S
C192 H194 0.952 . S
C193 N188 1.332 . S
C193 C189 1.382 . S
C193 H195 0.948 . S
H194 C192 0.952 . S
H195 C193 0.948 . S
H196 C185 0.952 . S
H197 C187 0.948 1_565 S
C198 C164 1.395 . S
C198 C168 1.391 . S
C199 C161 1.389 . S
C199 C181 1.392 . S
C200 C171 1.392 . S
C200 C173 1.389 . S
C201 C176 1.395 . S
C201 C178 1.391 . S
H202 C162 0.951 . S
H203 C163 0.950 . S
H204 C169 0.949 . S
H205 C170 0.950 . S
H206 C174 0.951 1_455 S
H207 C175 0.950 1_455 S
H208 C179 0.949 . S
H209 C180 0.950 . S
H210 C184 0.950 . S
H211 C186 0.950 1_565 S
H212 C189 0.950 . S
H213 C191 0.950 . S
C214 C215 1.443 . S
C214 N218 1.376 . S
C214 C252 1.389 . S
C215 C214 1.443 . S
C215 C216 1.340 . S
C215 H255 0.951 1_655 S
C216 C215 1.340 . S
C216 C217 1.439 . S
C216 H256 0.950 1_655 S
C217 C216 1.439 . S
C217 N218 1.374 . S
C217 C251 1.395 . S
N218 C214 1.376 . S
N218 C217 1.374 . S
N218 Co219 2.008 . S
Co219 N218 2.008 . S
Co219 N220 1.995 . S
Co219 N225 2.008 . S
Co219 N230 1.995 . S
Co219 N235 2.282 . S
Co219 N241 2.282 . S
N220 Co219 1.995 . S
N220 C221 1.376 . S
N220 C224 1.383 . S
C221 N220 1.376 . S
C221 C222 1.446 . S
C221 C251 1.391 . S
C222 C221 1.446 . S
C222 C223 1.339 . S
C222 H257 0.949 . S
C223 C222 1.339 . S
C223 C224 1.439 . S
C223 H258 0.950 . S
C224 N220 1.383 . S
C224 C223 1.439 . S
C224 C253 1.392 . S
N225 Co219 2.008 . S
N225 C226 1.376 . S
N225 C229 1.374 . S
C226 N225 1.376 . S
C226 C227 1.443 . S
C226 C253 1.389 . S
C227 C226 1.443 . S
C227 C228 1.340 . S
C227 H259 0.951 . S
C228 C227 1.340 . S
C228 C229 1.439 . S
C228 H260 0.950 . S
C229 N225 1.374 . S
C229 C228 1.439 . S
C229 C254 1.395 . S
N230 Co219 1.995 . S
N230 C231 1.376 . S
N230 C234 1.383 . S
C231 N230 1.376 . S
C231 C232 1.446 . S
C231 C254 1.391 . S
C232 C231 1.446 . S
C232 C233 1.339 . S
C232 H261 0.949 . S
C233 C232 1.339 . S
C233 C234 1.439 . S
C233 H262 0.950 . S
C234 N230 1.383 . S
C234 C233 1.439 . S
C234 C252 1.392 . S
N235 Co219 2.282 . S
N235 C238 1.332 . S
N235 C240 1.332 . S
C236 C237 1.386 . S
C236 C239 1.388 . S
C237 C236 1.386 . S
C237 C238 1.382 . S
C237 H263 0.950 . S
C238 N235 1.332 . S
C238 C237 1.382 . S
C238 H249 0.952 . S
C239 C236 1.388 . S
C239 C240 1.382 . S
C239 H264 0.950 . S
C240 N235 1.332 . S
C240 C239 1.382 . S
C240 H250 0.948 . S
N241 Co219 2.282 . S
N241 C245 1.332 . S
N241 C246 1.332 . S
C242 C243 1.388 . S
C242 C246 1.382 . S
C242 H265 0.950 . S
C243 C242 1.388 . S
C243 C244 1.386 . S
C244 C243 1.386 . S
C244 C245 1.382 . S
C244 H266 0.950 . S
C245 N241 1.332 . S
C245 C244 1.382 . S
C245 H247 0.952 . S
C246 N241 1.332 . S
C246 C242 1.382 . S
C246 H248 0.948 . S
H247 C245 0.952 . S
H248 C246 0.948 . S
H249 C238 0.952 . S
H250 C240 0.948 . S
C251 C217 1.395 . S
C251 C221 1.391 . S
C252 C214 1.389 . S
C252 C234 1.392 . S
C253 C224 1.392 . S
C253 C226 1.389 . S
C254 C229 1.395 . S
C254 C231 1.391 . S
H255 C215 0.951 1_455 S
H256 C216 0.950 1_455 S
H257 C222 0.949 . S
H258 C223 0.950 . S
H259 C227 0.951 . S
H260 C228 0.950 . S
H261 C232 0.949 . S
H262 C233 0.950 . S
H263 C237 0.950 . S
H264 C239 0.950 . S
H265 C242 0.950 . S
H266 C244 0.950 . S
C130 C14 1.481 . S
C40 C200 1.585 . S
C76 C252 1.469 . S
C3 C146 1.531 . S
C190 C38 1.549 . S
C74 C236 1.450 . S
C183 C86 1.451 . S
C2 C243 1.452 1_455 S
C137 C39 1.455 . S
C199 C75 1.580 . S
C253 C4 1.477 . S
C50 C147 1.517 . S
