# Generated by pormake.
# Topology ocu, (6,8)-cn, num edge types: 1
# Building blocks:
#     Node 0, Type 0, BuildingBlock: JUFBIX_clean_sbu_0, # of connection points: 6
#     Node 1, Type 0, BuildingBlock: JUFBIX_clean_sbu_0, # of connection points: 6
#     Node 2, Type 0, BuildingBlock: JUFBIX_clean_sbu_0, # of connection points: 6
#     Node 3, Type 0, BuildingBlock: JUFBIX_clean_sbu_0, # of connection points: 6
#     Node 4, Type 0, BuildingBlock: JUFBIX_clean_sbu_0, # of connection points: 6
#     Node 5, Type 0, BuildingBlock: JUFBIX_clean_sbu_0, # of connection points: 6
#     Node 6, Type 0, BuildingBlock: JUFBIX_clean_sbu_0, # of connection points: 6
#     Node 7, Type 0, BuildingBlock: JUFBIX_clean_sbu_0, # of connection points: 6
#     Node 8, Type 1, BuildingBlock: GIZVER_clean_sbu_0, # of connection points: 8
#     Node 9, Type 1, BuildingBlock: GIZVER_clean_sbu_0, # of connection points: 8
#     Node 10, Type 1, BuildingBlock: GIZVER_clean_sbu_0, # of connection points: 8
#     Node 11, Type 1, BuildingBlock: GIZVER_clean_sbu_0, # of connection points: 8
#     Node 12, Type 1, BuildingBlock: GIZVER_clean_sbu_0, # of connection points: 8
#     Node 13, Type 1, BuildingBlock: GIZVER_clean_sbu_0, # of connection points: 8
#     Edge 14, Type (0, 1), BuildingBlock: XIVTED_clean_linker_0, # of connection points: 2
#     Edge 15, Type (0, 1), BuildingBlock: XIVTED_clean_linker_0, # of connection points: 2
#     Edge 16, Type (0, 1), BuildingBlock: XIVTED_clean_linker_0, # of connection points: 2
#     Edge 17, Type (0, 1), BuildingBlock: XIVTED_clean_linker_0, # of connection points: 2
#     Edge 18, Type (0, 1), BuildingBlock: XIVTED_clean_linker_0, # of connection points: 2
#     Edge 19, Type (0, 1), BuildingBlock: XIVTED_clean_linker_0, # of connection points: 2
#     Edge 20, Type (0, 1), BuildingBlock: XIVTED_clean_linker_0, # of connection points: 2
#     Edge 21, Type (0, 1), BuildingBlock: XIVTED_clean_linker_0, # of connection points: 2
#     Edge 22, Type (0, 1), BuildingBlock: XIVTED_clean_linker_0, # of connection points: 2
#     Edge 23, Type (0, 1), BuildingBlock: XIVTED_clean_linker_0, # of connection points: 2
#     Edge 24, Type (0, 1), BuildingBlock: XIVTED_clean_linker_0, # of connection points: 2
#     Edge 25, Type (0, 1), BuildingBlock: XIVTED_clean_linker_0, # of connection points: 2
#     Edge 26, Type (0, 1), BuildingBlock: XIVTED_clean_linker_0, # of connection points: 2
#     Edge 27, Type (0, 1), BuildingBlock: XIVTED_clean_linker_0, # of connection points: 2
#     Edge 28, Type (0, 1), BuildingBlock: XIVTED_clean_linker_0, # of connection points: 2
#     Edge 29, Type (0, 1), BuildingBlock: XIVTED_clean_linker_0, # of connection points: 2
#     Edge 30, Type (0, 1), BuildingBlock: XIVTED_clean_linker_0, # of connection points: 2
#     Edge 31, Type (0, 1), BuildingBlock: XIVTED_clean_linker_0, # of connection points: 2
#     Edge 32, Type (0, 1), BuildingBlock: XIVTED_clean_linker_0, # of connection points: 2
#     Edge 33, Type (0, 1), BuildingBlock: XIVTED_clean_linker_0, # of connection points: 2
#     Edge 34, Type (0, 1), BuildingBlock: XIVTED_clean_linker_0, # of connection points: 2
#     Edge 35, Type (0, 1), BuildingBlock: XIVTED_clean_linker_0, # of connection points: 2
#     Edge 36, Type (0, 1), BuildingBlock: XIVTED_clean_linker_0, # of connection points: 2
#     Edge 37, Type (0, 1), BuildingBlock: XIVTED_clean_linker_0, # of connection points: 2
#     Edge 38, Type (0, 1), BuildingBlock: XIVTED_clean_linker_0, # of connection points: 2
#     Edge 39, Type (0, 1), BuildingBlock: XIVTED_clean_linker_0, # of connection points: 2
#     Edge 40, Type (0, 1), BuildingBlock: XIVTED_clean_linker_0, # of connection points: 2
#     Edge 41, Type (0, 1), BuildingBlock: XIVTED_clean_linker_0, # of connection points: 2
#     Edge 42, Type (0, 1), BuildingBlock: XIVTED_clean_linker_0, # of connection points: 2
#     Edge 43, Type (0, 1), BuildingBlock: XIVTED_clean_linker_0, # of connection points: 2
#     Edge 44, Type (0, 1), BuildingBlock: XIVTED_clean_linker_0, # of connection points: 2
#     Edge 45, Type (0, 1), BuildingBlock: XIVTED_clean_linker_0, # of connection points: 2
#     Edge 46, Type (0, 1), BuildingBlock: XIVTED_clean_linker_0, # of connection points: 2
#     Edge 47, Type (0, 1), BuildingBlock: XIVTED_clean_linker_0, # of connection points: 2
#     Edge 48, Type (0, 1), BuildingBlock: XIVTED_clean_linker_0, # of connection points: 2
#     Edge 49, Type (0, 1), BuildingBlock: XIVTED_clean_linker_0, # of connection points: 2
#     Edge 50, Type (0, 1), BuildingBlock: XIVTED_clean_linker_0, # of connection points: 2
#     Edge 51, Type (0, 1), BuildingBlock: XIVTED_clean_linker_0, # of connection points: 2
#     Edge 52, Type (0, 1), BuildingBlock: XIVTED_clean_linker_0, # of connection points: 2
#     Edge 53, Type (0, 1), BuildingBlock: XIVTED_clean_linker_0, # of connection points: 2
#     Edge 54, Type (0, 1), BuildingBlock: XIVTED_clean_linker_0, # of connection points: 2
#     Edge 55, Type (0, 1), BuildingBlock: XIVTED_clean_linker_0, # of connection points: 2
#     Edge 56, Type (0, 1), BuildingBlock: XIVTED_clean_linker_0, # of connection points: 2
#     Edge 57, Type (0, 1), BuildingBlock: XIVTED_clean_linker_0, # of connection points: 2
#     Edge 58, Type (0, 1), BuildingBlock: XIVTED_clean_linker_0, # of connection points: 2
#     Edge 59, Type (0, 1), BuildingBlock: XIVTED_clean_linker_0, # of connection points: 2
#     Edge 60, Type (0, 1), BuildingBlock: XIVTED_clean_linker_0, # of connection points: 2
#     Edge 61, Type (0, 1), BuildingBlock: XIVTED_clean_linker_0, # of connection points: 2
# Relax obj value: 0.259
# Max RMSD: 0.325
# Mean RMSD: 0.220
data_MOF--net-ocu--node1-JUFBIX_clean_sbu_0--node2-GIZVER_clean_sbu_0--edge1-XIVTED_clean_linker_0
_symmetry_space_group_name_H-M    P1
_symmetry_Int_Tables_number       1
_symmetry_cell_setting            triclinic
loop_
_symmetry_equiv_pos_as_xyz
'x, y, z'
_cell_length_a     40.557134
_cell_length_b     42.847384
_cell_length_c     31.002028
_cell_angle_alpha  92.021249
_cell_angle_beta   93.60422
_cell_angle_gamma 100.32349
loop_
_atom_site_label
_atom_site_type_symbol
_atom_site_fract_x
_atom_site_fract_y
_atom_site_fract_z
_atom_type_partial_charge
Co0 Co 0.24975 0.25422 0.25283 0.0
C1 C 0.24017 0.30518 0.30784 0.0
Co2 Co 0.29356 0.29278 0.26139 0.0
C3 C 0.20924 0.1914 0.25337 0.0
C4 C 0.1811 0.22609 0.23081 0.0
N5 N 0.2122 0.22248 0.24521 0.0
N6 N 0.1775 0.17552 0.24461 0.0
C7 C 0.15979 0.19732 0.23028 0.0
H8 H 0.22978 0.18076 0.26636 0.0
H9 H 0.17402 0.24841 0.22255 0.0
C10 C 0.30304 0.24215 0.20594 0.0
N11 N 0.3308 0.32467 0.26901 0.0
C12 C 0.3328 0.35555 0.26038 0.0
C13 C 0.3622 0.32196 0.28335 0.0
N14 N 0.36422 0.37218 0.26845 0.0
C15 C 0.38277 0.35113 0.28311 0.0
C16 C 0.29654 0.24421 0.31904 0.0
O17 O 0.27285 0.23109 0.21383 0.0
O18 O 0.31665 0.26949 0.22236 0.0
O19 O 0.3111 0.2713 0.30835 0.0
O20 O 0.26789 0.2325 0.30029 0.0
O21 O 0.27046 0.31591 0.30016 0.0
H22 H 0.36996 0.29998 0.29192 0.0
H23 H 0.3118 0.36552 0.24732 0.0
O24 O 0.22653 0.27772 0.29187 0.0
O25 O 0.23227 0.27597 0.20557 0.0
O26 O 0.27585 0.31425 0.21409 0.0
C27 C 0.2474 0.30286 0.19489 0.0
H28 H 0.13293 0.19319 0.22247 0.0
H29 H 0.40971 0.35601 0.29042 0.0
Co30 Co 0.78721 0.27391 0.24262 0.0
C31 C 0.80706 0.3202 0.31009 0.0
Co32 Co 0.75458 0.27108 0.29676 0.0
C33 C 0.83138 0.30635 0.18617 0.0
C34 C 0.83424 0.25696 0.18353 0.0
N35 N 0.81694 0.27814 0.20006 0.0
N36 N 0.85778 0.30407 0.16292 0.0
C37 C 0.85973 0.27299 0.16089 0.0
H38 H 0.82485 0.32866 0.19683 0.0
H39 H 0.83035 0.23205 0.19044 0.0
C40 C 0.73464 0.22482 0.22883 0.0
N41 N 0.72505 0.2679 0.33957 0.0
C42 C 0.71075 0.2407 0.35618 0.0
C43 C 0.70905 0.29026 0.35588 0.0
N44 N 0.68593 0.24482 0.38143 0.0
C45 C 0.68453 0.27596 0.38134 0.0
C46 C 0.73659 0.30879 0.23057 0.0
O47 O 0.76058 0.23892 0.21195 0.0
O48 O 0.72768 0.23472 0.26577 0.0
O49 O 0.72907 0.29816 0.26708 0.0
O50 O 0.76177 0.3012 0.2133 0.0
O51 O 0.78088 0.30668 0.32685 0.0
H52 H 0.71346 0.3149 0.34757 0.0
H53 H 0.71648 0.21776 0.34685 0.0
O54 O 0.81425 0.30948 0.27389 0.0
O55 O 0.8123 0.24645 0.27166 0.0
O56 O 0.78069 0.24414 0.32667 0.0
C57 C 0.80552 0.23625 0.30865 0.0
H58 H 0.87937 0.26294 0.14655 0.0
H59 H 0.66609 0.28715 0.39665 0.0
Co60 Co 0.77143 0.76077 0.27386 0.0
C61 C 0.82599 0.81079 0.28978 0.0
Co62 Co 0.78073 0.79302 0.22079 0.0
C63 C 0.79037 0.72978 0.34743 0.0
C64 C 0.73711 0.72713 0.34233 0.0
N65 N 0.76513 0.73666 0.32146 0.0
N66 N 0.77964 0.7172 0.38425 0.0
C67 C 0.74599 0.71484 0.38106 0.0
H68 H 0.81642 0.73466 0.33982 0.0
H69 H 0.71218 0.73028 0.33109 0.0
C70 C 0.72604 0.74268 0.20518 0.0
N71 N 0.78818 0.81722 0.1733 0.0
C72 C 0.76452 0.82245 0.1435 0.0
C73 C 0.81764 0.83082 0.15826 0.0
N74 N 0.77784 0.83844 0.11026 0.0
C75 C 0.81129 0.84432 0.11958 0.0
C76 C 0.8139 0.74098 0.2168 0.0
O77 O 0.73332 0.73584 0.24372 0.0
O78 O 0.74365 0.76646 0.18927 0.0
O79 O 0.80992 0.76668 0.19969 0.0
O80 O 0.79881 0.733 0.25057 0.0
O81 O 0.81752 0.81931 0.25254 0.0
H82 H 0.84213 0.83059 0.17412 0.0
H83 H 0.73782 0.81513 0.14649 0.0
O84 O 0.80959 0.78576 0.30396 0.0
O85 O 0.74438 0.78854 0.29701 0.0
O86 O 0.75129 0.81962 0.24238 0.0
C87 C 0.7387 0.81317 0.27835 0.0
H88 H 0.72927 0.70599 0.40553 0.0
H89 H 0.82967 0.85735 0.0999 0.0
Co90 Co 0.25111 0.79341 0.25496 0.0
C91 C 0.29644 0.81304 0.32589 0.0
Co92 Co 0.28723 0.76209 0.26525 0.0
C93 C 0.18666 0.81048 0.24264 0.0
C94 C 0.2262 0.85058 0.23944 0.0
N95 N 0.22031 0.81911 0.24501 0.0
N96 N 0.17104 0.83545 0.23722 0.0
C97 C 0.19601 0.86069 0.23466 0.0
H98 H 0.17391 0.78651 0.24711 0.0
H99 H 0.25082 0.86548 0.24101 0.0
C100 C 0.24127 0.74234 0.19465 0.0
N101 N 0.31825 0.73653 0.27443 0.0
C102 C 0.33963 0.73036 0.24545 0.0
C103 C 0.32461 0.71953 0.3089 0.0
N104 N 0.35916 0.71034 0.26013 0.0
C105 C 0.34963 0.70282 0.29978 0.0
C106 C 0.22786 0.74076 0.30746 0.0
O107 O 0.23148 0.76776 0.20569 0.0
O108 O 0.2668 0.73528 0.21547 0.0
O109 O 0.25707 0.73549 0.30081 0.0
O110 O 0.21969 0.76575 0.29165 0.0
O111 O 0.30714 0.7881 0.31455 0.0
H112 H 0.31144 0.71875 0.33822 0.0
H113 H 0.33981 0.73912 0.21311 0.0
O114 O 0.27081 0.81969 0.30487 0.0
O115 O 0.28213 0.82042 0.21868 0.0
O116 O 0.31822 0.78918 0.22923 0.0
C117 C 0.31112 0.81422 0.2127 0.0
H118 H 0.19295 0.88524 0.23374 0.0
H119 H 0.35952 0.6861 0.32004 0.0
Co120 Co 0.29833 0.76999 0.71663 0.0
C121 C 0.31544 0.81638 0.78395 0.0
Co122 Co 0.26368 0.76593 0.76851 0.0
C123 C 0.34307 0.80059 0.65828 0.0
C124 C 0.34508 0.75111 0.65929 0.0
N125 N 0.3287 0.77342 0.67489 0.0
N126 N 0.36828 0.79649 0.6337 0.0
C127 C 0.36987 0.7654 0.63423 0.0
H128 H 0.337 0.82349 0.66708 0.0
H129 H 0.34066 0.72651 0.66777 0.0
C130 C 0.24657 0.71953 0.7017 0.0
N131 N 0.2331 0.76125 0.81 0.0
C132 C 0.21948 0.73293 0.8243 0.0
C133 C 0.2145 0.7818 0.82518 0.0
N134 N 0.19242 0.73449 0.84655 0.0
C135 C 0.1891 0.76524 0.84745 0.0
C136 C 0.24602 0.80288 0.70135 0.0
O137 O 0.27316 0.73348 0.68616 0.0
O138 O 0.23807 0.73014 0.73717 0.0
O139 O 0.23819 0.79242 0.73788 0.0
O140 O 0.27216 0.79613 0.68533 0.0
O141 O 0.28928 0.80164 0.79976 0.0
H142 H 0.21751 0.80656 0.81758 0.0
H143 H 0.22714 0.71093 0.81459 0.0
O144 O 0.32366 0.8068 0.74754 0.0
O145 O 0.32431 0.74417 0.74796 0.0
O146 O 0.28913 0.7391 0.79895 0.0
C147 C 0.31564 0.73283 0.78365 0.0
H148 H 0.38856 0.75424 0.61945 0.0
H149 H 0.16864 0.77463 0.86076 0.0
Co150 Co 0.27236 0.24838 0.78777 0.0
C151 C 0.3269 0.29867 0.80403 0.0
Co152 Co 0.28167 0.28086 0.73494 0.0
C153 C 0.28793 0.21873 0.86521 0.0
C154 C 0.2349 0.21057 0.84971 0.0
N155 N 0.26456 0.22403 0.83506 0.0
N156 N 0.27424 0.20284 0.89831 0.0
C157 C 0.24084 0.19709 0.88853 0.0
H158 H 0.31468 0.22601 0.86263 0.0
H159 H 0.21055 0.21094 0.83355 0.0
C160 C 0.22728 0.23076 0.71847 0.0
N161 N 0.28833 0.30507 0.68749 0.0
C162 C 0.26328 0.31214 0.66139 0.0
C163 C 0.31646 0.31431 0.66672 0.0
N164 N 0.27421 0.32455 0.62454 0.0
C165 C 0.30782 0.3266 0.62789 0.0
C166 C 0.31447 0.22841 0.73032 0.0
O167 O 0.23571 0.22228 0.75572 0.0
O168 O 0.2436 0.25587 0.70436 0.0
O169 O 0.30882 0.25317 0.71196 0.0
O170 O 0.30182 0.22174 0.76621 0.0
O171 O 0.31967 0.30575 0.76557 0.0
H172 H 0.34128 0.31092 0.67806 0.0
H173 H 0.2372 0.30748 0.66892 0.0
O174 O 0.30933 0.27473 0.81962 0.0
O175 O 0.24311 0.27474 0.80881 0.0
O176 O 0.25413 0.30856 0.75809 0.0
C177 C 0.23903 0.30044 0.7918 0.0
H178 H 0.22221 0.18423 0.90803 0.0
H179 H 0.32468 0.33522 0.60347 0.0
Co180 Co 0.76377 0.27728 0.74721 0.0
C181 C 0.80886 0.29741 0.81877 0.0
Co182 Co 0.79985 0.24611 0.75928 0.0
C183 C 0.71104 0.30928 0.76502 0.0
C184 C 0.7273 0.31981 0.70202 0.0
N185 N 0.73289 0.30284 0.73682 0.0
N186 N 0.69203 0.32948 0.74954 0.0
C187 C 0.70233 0.3368 0.71017 0.0
H188 H 0.71022 0.30066 0.79742 0.0
H189 H 0.74103 0.32043 0.67317 0.0
C190 C 0.75556 0.22602 0.68736 0.0
N191 N 0.8305 0.22034 0.77029 0.0
C192 C 0.86417 0.22857 0.7722 0.0
C193 C 0.82427 0.18895 0.77644 0.0
N194 N 0.87947 0.20338 0.77775 0.0
C195 C 0.85425 0.17848 0.78104 0.0
C196 C 0.73916 0.22554 0.80018 0.0
O197 O 0.74445 0.25091 0.69792 0.0
O198 O 0.78094 0.21969 0.70926 0.0
O199 O 0.76826 0.21932 0.79499 0.0
O200 O 0.73224 0.25044 0.78304 0.0
O201 O 0.81872 0.27185 0.8086 0.0
H202 H 0.79954 0.17428 0.77512 0.0
H203 H 0.87715 0.25235 0.76712 0.0
O204 O 0.7837 0.30442 0.79701 0.0
O205 O 0.79448 0.30365 0.71185 0.0
O206 O 0.83183 0.27363 0.72324 0.0
C207 C 0.82389 0.2984 0.70647 0.0
H208 H 0.69305 0.35364 0.68952 0.0
H209 H 0.85695 0.15383 0.78217 0.0
Co210 Co 0.7576 0.74841 0.75312 0.0
C211 C 0.7488 0.79947 0.80854 0.0
Co212 Co 0.80171 0.78666 0.76166 0.0
C213 C 0.71747 0.68593 0.75325 0.0
C214 C 0.68832 0.72084 0.7345 0.0
N215 N 0.71991 0.71707 0.74595 0.0
N216 N 0.68549 0.67011 0.74739 0.0
C217 C 0.66714 0.69206 0.73533 0.0
H218 H 0.73865 0.67533 0.76402 0.0
H219 H 0.68092 0.74331 0.7278 0.0
C220 C 0.8106 0.7352 0.7068 0.0
N221 N 0.83972 0.81798 0.76895 0.0
C222 C 0.84338 0.84898 0.76003 0.0
C223 C 0.87064 0.81391 0.7835 0.0
N224 N 0.87537 0.86435 0.76846 0.0
C225 C 0.89251 0.8423 0.78337 0.0
C226 C 0.8036 0.73789 0.81955 0.0
O227 O 0.78017 0.72483 0.71422 0.0
O228 O 0.82451 0.76258 0.72281 0.0
O229 O 0.81883 0.76482 0.80908 0.0
O230 O 0.77512 0.72665 0.80026 0.0
O231 O 0.779 0.8104 0.80052 0.0
H232 H 0.87722 0.79148 0.79224 0.0
H233 H 0.82316 0.8599 0.74671 0.0
O234 O 0.73511 0.77211 0.79232 0.0
O235 O 0.74019 0.77011 0.70621 0.0
O236 O 0.78393 0.8084 0.71401 0.0
C237 C 0.75516 0.79701 0.69535 0.0
H238 H 0.64003 0.68815 0.73032 0.0
H239 H 0.91936 0.84595 0.79113 0.0
Co240 Co 0.05067 0.95011 0.49654 0.0
Co241 Co 0.07532 0.98345 0.56311 0.0
Co242 Co 0.0262 1.01981 0.50572 0.0
O243 O 0.06225 0.99436 0.50986 0.0
H244 H 0.08181 1.0043 0.49586 0.0
O245 O 0.98988 0.04506 0.50144 0.0
Co246 Co 1.00086 0.08904 0.51606 0.0
Co247 Co 0.97832 0.05754 0.44867 0.0
H248 H 0.97002 0.03467 0.51443 0.0
O249 O 0.11847 0.97771 0.57407 0.0
O250 O 0.07293 0.93996 0.55317 0.0
O251 O 0.04781 0.99267 0.60804 0.0
O252 O 1.00877 1.0084 0.56396 0.0
O253 O 0.05833 0.05604 0.53318 0.0
O254 O 1.00856 0.1292 0.53476 0.0
O255 O 0.96441 0.0901 0.54386 0.0
O256 O 0.04291 0.09231 0.49182 0.0
O257 O 0.04389 0.0311 0.44757 0.0
O258 O 1.00657 0.04971 0.40422 0.0
O259 O 0.9782 0.1004 0.46004 0.0
O260 O 0.93539 0.06076 0.43463 0.0
C261 C 0.0693 0.92015 0.45904 0.0
C262 C 0.98725 0.95653 0.4938 0.0
C263 C 1.01927 1.00059 0.60118 0.0
C264 C 0.10471 0.94799 0.56684 0.0
C265 C 0.98188 0.11822 0.55453 0.0
C266 C 0.06461 0.08342 0.51783 0.0
C267 C 0.03429 0.04027 0.41078 0.0
C268 C 0.94751 0.0908 0.44252 0.0
O269 O 0.04267 0.90964 0.47916 0.0
O270 O 0.0871 0.94821 0.46914 0.0
O271 O 0.99407 0.98373 0.47815 0.0
O272 O 1.00855 0.94761 0.52039 0.0
Co273 Co 0.56483 0.96049 0.97 0.0
Co274 Co 0.56541 0.97208 0.05321 0.0
Co275 Co 0.52498 0.02022 0.00668 0.0
O276 O 0.56443 0.99808 0.00668 0.0
H277 H 0.58542 1.01294 0.0071 0.0
O278 O 0.48552 0.04235 0.00667 0.0
Co279 Co 0.4854 0.08016 0.043 0.0
Co280 Co 0.4845 0.0681 0.95985 0.0
H281 H 0.46453 0.02753 0.00648 0.0
O282 O 0.60644 0.96674 0.07596 0.0
O283 O 0.5733 0.93736 0.02232 0.0
O284 O 0.52557 0.95918 0.08235 0.0
O285 O 0.49429 0.98703 0.04336 0.0
O286 O 0.54596 0.04556 0.05995 0.0
O287 O 0.48212 0.11419 0.07615 0.0
O288 O 0.4402 0.07452 0.05252 0.0
O289 O 0.53255 0.09123 0.03985 0.0
O290 O 0.55566 0.0534 0.97 0.0
O291 O 0.52429 0.08082 0.93044 0.0
O292 O 0.47683 0.10302 0.99049 0.0
O293 O 0.44345 0.07345 0.93722 0.0
C294 C 0.60021 0.93918 0.93899 0.0
C295 C 0.49785 0.96461 0.95271 0.0
C296 C 0.49705 0.96574 0.0716 0.0
C297 C 0.60136 0.94367 0.04656 0.0
C298 C 0.45033 0.10183 0.07404 0.0
C299 C 0.55201 0.07586 0.06064 0.0
C300 C 0.55286 0.07447 0.94145 0.0
C301 C 0.44868 0.09665 0.96642 0.0
O302 O 0.56845 0.92668 0.93656 0.0
O303 O 0.6101 0.96641 0.96079 0.0
O304 O 0.504 0.99491 0.95343 0.0
O305 O 0.51758 0.94913 0.9728 0.0
Co306 Co 0.0638 0.45614 0.97661 0.0
Co307 Co 0.08323 0.48635 0.04965 0.0
Co308 Co 1.02571 0.51969 1.00527 0.0
O309 O 0.0662 0.49946 0.99781 0.0
H310 H 0.08374 0.51373 0.98502 0.0
O311 O 0.98523 0.53994 0.01272 0.0
Co312 Co 0.98781 0.5834 0.03338 0.0
Co313 Co 0.96804 0.55264 0.9607 0.0
H314 H 0.96776 0.52578 0.02579 0.0
O315 O 0.12736 0.48151 0.05886 0.0
O316 O 0.08329 0.44388 0.03404 0.0
O317 O 0.05586 0.48649 0.09784 0.0
O318 O 1.01156 0.49506 0.05686 0.0
O319 O 0.05488 0.55429 0.04276 0.0
O320 O 0.98644 0.6221 0.05512 0.0
O321 O 0.94642 0.57822 0.05425 0.0
O322 O 0.03316 0.59447 0.01678 0.0
O323 O 0.03976 0.54428 0.95362 0.0
O324 O 0.99514 0.55172 0.91232 0.0
O325 O 0.96831 0.59529 0.97576 0.0
O326 O 0.92395 0.55779 0.9516 0.0
C327 C 0.09496 0.43157 0.94453 0.0
C328 C 0.99416 0.45545 0.97389 0.0
C329 C 1.02456 0.4859 0.09166 0.0
C330 C 0.11457 0.45179 0.04985 0.0
C331 C 0.95681 0.60829 0.06509 0.0
C332 C 0.05726 0.58396 0.03657 0.0
C333 C 0.02652 0.55277 0.91851 0.0
C334 C 0.93692 0.5875 0.96034 0.0
O335 O 0.06535 0.41759 0.95432 0.0
O336 O 0.10525 0.46159 0.95579 0.0
O337 O 0.99656 0.48512 0.96779 0.0
O338 O 1.01841 0.44479 0.9931 0.0
Co339 Co 0.56073 0.45598 0.00961 0.0
Co340 Co 0.5716 0.49179 0.07757 0.0
Co341 Co 0.5251 0.5205 0.007 0.0
O342 O 0.56386 0.49993 0.02133 0.0
H343 H 0.5842 0.51216 0.01156 0.0
O344 O 0.48662 0.54128 0.99262 0.0
Co345 Co 0.49063 0.58572 1.00112 0.0
Co346 Co 0.47797 0.54658 0.93521 0.0
H347 H 0.46641 0.52986 1.00375 0.0
O348 O 0.61352 0.48918 0.10072 0.0
O349 O 0.57351 0.4488 0.07163 0.0
O350 O 0.53831 0.5007 0.11426 0.0
O351 O 0.50107 0.50723 0.06062 0.0
O352 O 0.54986 0.55889 0.03922 0.0
O353 O 0.4898 0.6262 0.01253 0.0
O354 O 0.44836 0.58332 0.01332 0.0
O355 O 0.53757 0.59351 0.99263 0.0
O356 O 0.54894 0.53381 0.9534 0.0
O357 O 0.51091 0.5358 0.89868 0.0
O358 O 0.47875 0.59015 0.93831 0.0
O359 O 0.43577 0.55134 0.91351 0.0
C360 C 0.59163 0.43005 0.98469 0.0
C361 C 0.49432 0.45465 0.98951 0.0
C362 C 0.50902 0.50396 0.10064 0.0
C363 C 0.60251 0.45893 0.09314 0.0
C364 C 0.45996 0.61326 0.02285 0.0
C365 C 0.55654 0.58606 0.02346 0.0
C366 C 0.54074 0.53481 0.91294 0.0
C367 C 0.44861 0.58134 0.91949 0.0
O368 O 0.56206 0.41622 0.99486 0.0
O369 O 0.60294 0.45973 0.99621 0.0
O370 O 0.50025 0.48217 0.97468 0.0
O371 O 0.51403 0.4469 0.01924 0.0
Co372 Co 0.08965 0.47954 0.50248 0.0
Co373 Co 0.06229 0.49041 0.42856 0.0
Co374 Co 1.02529 0.52015 0.50729 0.0
O375 O 0.04491 0.48397 0.4826 0.0
H376 H 0.02923 0.46408 0.48194 0.0
O377 O 1.00564 0.55621 0.53223 0.0
Co378 Co 0.96097 0.56095 0.51247 0.0
Co379 Co 0.98804 0.54931 0.5863 0.0
H380 H 1.02139 0.57606 0.5332 0.0
O381 O 0.06506 0.45541 0.39176 0.0
O382 O 0.10425 0.48005 0.44192 0.0
O383 O 0.07196 0.53363 0.41247 0.0
O384 O 0.05338 0.55547 0.47087 0.0
O385 O 0.98835 0.51075 0.46084 0.0
O386 O 0.92147 0.5678 0.49464 0.0
O387 O 0.96746 0.60411 0.5166 0.0
O388 O 0.94823 0.51652 0.50386 0.0
O389 O 0.99721 0.48481 0.54349 0.0
O390 O 0.97796 0.50584 0.60198 0.0
O391 O 0.94625 0.56001 0.573 0.0
O392 O 0.98538 0.58419 0.62354 0.0
C393 C 0.11535 0.44363 0.51179 0.0
C394 C 0.09245 0.53722 0.54359 0.0
C395 C 0.06943 0.55802 0.43564 0.0
C396 C 0.09464 0.45776 0.41152 0.0
C397 C 0.93558 0.59712 0.50357 0.0
C398 C 0.95808 0.5032 0.47092 0.0
C399 C 0.98105 0.48175 0.57857 0.0
C400 C 0.95586 0.58205 0.60372 0.0
O401 O 0.12918 0.47306 0.5205 0.0
O402 O 0.08347 0.43637 0.49884 0.0
O403 O 0.06221 0.52957 0.55375 0.0
O404 O 0.10221 0.524 0.51052 0.0
Co405 Co 0.59551 0.97859 0.52027 0.0
Co406 Co 0.57131 0.98363 0.44627 0.0
Co407 Co 0.52621 0.02015 0.50492 0.0
O408 O 0.55033 0.98257 0.49643 0.0
H409 H 0.53496 0.9626 0.49705 0.0
O410 O 0.50203 0.05769 0.51349 0.0
Co411 Co 0.45648 0.06131 0.49071 0.0
Co412 Co 0.48159 0.05679 0.56406 0.0
H413 H 0.5173 0.0777 0.5126 0.0
O414 O 0.5691 0.94774 0.41304 0.0
O415 O 0.61181 0.97175 0.46087 0.0
O416 O 0.57516 0.02315 0.41986 0.0
O417 O 0.52693 0.03249 0.44281 0.0
O418 O 0.4833 0.98899 0.49025 0.0
O419 O 0.41697 0.06756 0.46829 0.0
O420 O 0.46342 0.10457 0.48267 0.0
O421 O 0.44186 1.01686 0.49329 0.0
O422 O 0.52573 1.00781 0.56701 0.0
O423 O 0.47788 1.01743 0.59082 0.0
O424 O 0.44105 0.06879 0.55046 0.0
O425 O 0.48452 0.09277 0.59724 0.0
C426 C 0.61949 0.94252 0.54339 0.0
C427 C 0.60023 0.04952 0.52157 0.0
C428 C 0.55231 0.03982 0.42034 0.0
C429 C 0.59989 0.9505 0.42948 0.0
C430 C 0.43189 0.09698 0.46763 0.0
C431 C 0.45212 0.99057 0.48951 0.0
C432 C 0.50073 1.00078 0.59014 0.0
C433 C 0.45352 0.09005 0.58164 0.0
O434 O 0.63467 0.9719 0.54353 0.0
O435 O 0.58817 0.93526 0.52742 0.0
O436 O 0.56907 0.05128 0.51952 0.0
O437 O 0.61038 0.02312 0.51879 0.0
H438 H 0.12328 0.13637 0.20556 0.0
H439 H 0.10216 0.04111 0.41887 0.0
H440 H 0.19943 0.14269 0.31063 0.0
H441 H 1.02145 0.05016 0.32513 0.0
H442 H 0.14266 0.06235 0.36742 0.0
H443 H 0.09164 0.08954 0.23661 0.0
C444 C 0.13362 0.12751 0.23474 0.0
C445 C 0.16345 0.14397 0.25629 0.0
C446 C 0.11608 0.05898 0.35778 0.0
C447 C 0.12743 0.09064 0.29209 0.0
C448 C 0.0929 0.04677 0.38708 0.0
C449 C 0.05836 0.04485 0.37674 0.0
C450 C 0.10455 0.06925 0.31801 0.0
C451 C 0.04787 0.05211 0.3349 0.0
C452 C 0.11563 0.10076 0.25238 0.0
C453 C 0.17631 0.13098 0.29326 0.0
N454 N 0.07089 0.06457 0.30735 0.0
N455 N 0.15782 0.10547 0.31059 0.0
H456 H 0.84064 0.19634 0.26931 0.0
H457 H 0.94363 0.15074 0.47568 0.0
H458 H 0.8186 0.22893 0.39572 0.0
H459 H 0.90591 0.08332 0.36963 0.0
H460 H 0.9085 0.18732 0.44496 0.0
H461 H 0.87595 0.16219 0.30354 0.0
C462 C 0.84331 0.19637 0.30431 0.0
C463 C 0.82647 0.21532 0.32972 0.0
C464 C 0.90804 0.16445 0.42869 0.0
C465 C 0.8675 0.17682 0.36904 0.0
C466 C 0.92814 0.14374 0.44597 0.0
C467 C 0.92753 0.11394 0.42524 0.0
C468 C 0.88823 0.15555 0.38984 0.0
C469 C 0.90694 0.10593 0.38689 0.0
C470 C 0.86341 0.17686 0.32377 0.0
C471 C 0.8309 0.21441 0.37499 0.0
N472 N 0.88845 0.12669 0.37024 0.0
N473 N 0.85127 0.19564 0.39332 0.0
H474 H 0.85433 0.8728 0.2808 0.0
H475 H 0.97492 0.89101 0.49659 0.0
H476 H 0.85686 0.79459 0.36433 0.0
H477 H 0.9385 0.96902 0.43664 0.0
H478 H 0.93639 0.85393 0.44614 0.0
H479 H 0.89256 0.90739 0.33361 0.0
C480 C 0.86327 0.86283 0.30998 0.0
C481 C 0.8523 0.8309 0.31838 0.0
C482 C 0.9368 0.87919 0.44447 0.0
C483 C 0.89565 0.87027 0.37901 0.0
C484 C 0.95859 0.90031 0.47333 0.0
C485 C 0.96038 0.93317 0.4703 0.0
C486 C 0.91706 0.8912 0.41244 0.0
C487 C 0.93845 0.94391 0.43971 0.0
C488 C 0.8848 0.88261 0.34029 0.0
C489 C 0.86457 0.8192 0.35682 0.0
N490 N 0.91806 0.92303 0.41166 0.0
N491 N 0.88562 0.83892 0.38584 0.0
H492 H 0.13425 0.8803 0.21564 0.0
H493 H 0.05054 0.85637 0.43876 0.0
H494 H 0.13095 0.79502 0.28656 0.0
H495 H 0.10111 0.94426 0.39045 0.0
H496 H 0.05772 0.82902 0.36975 0.0
H497 H 0.09422 0.89705 0.26306 0.0
C498 C 0.12429 0.86459 0.24018 0.0
C499 C 0.13779 0.83742 0.24918 0.0
C500 C 0.06679 0.85435 0.37438 0.0
C501 C 0.09236 0.85623 0.30296 0.0
C502 C 0.06328 0.86979 0.41376 0.0
C503 C 0.07624 0.90234 0.42057 0.0
C504 C 0.08251 0.87191 0.34162 0.0
C505 C 0.09174 0.91893 0.38699 0.0
C506 C 0.1015 0.87416 0.26719 0.0
C507 C 0.12261 0.81702 0.27973 0.0
N508 N 0.09446 0.9035 0.34895 0.0
N509 N 0.10152 0.82742 0.30679 0.0
H510 H 0.18048 0.80611 0.71317 0.0
H511 H 0.1726 0.9526 0.5671 0.0
H512 H 0.26203 0.84333 0.63578 0.0
H513 H 0.08291 0.88829 0.59568 0.0
H514 H 0.20658 0.91522 0.59571 0.0
H515 H 0.14511 0.83852 0.67512 0.0
C516 C 0.19097 0.82111 0.68816 0.0
C517 C 0.22436 0.8221 0.67776 0.0
C518 C 0.17947 0.9091 0.59529 0.0
C519 C 0.18396 0.85946 0.63432 0.0
C520 C 0.16003 0.93043 0.57903 0.0
C521 C 0.12485 0.92358 0.57911 0.0
C522 C 0.16372 0.88097 0.61277 0.0
C523 C 0.10993 0.89446 0.59486 0.0
C524 C 0.17066 0.83944 0.66628 0.0
C525 C 0.23647 0.84182 0.64483 0.0
N526 N 0.12946 0.87443 0.6117 0.0
N527 N 0.21641 0.86 0.62464 0.0
H528 H 0.19853 0.16908 0.72863 0.0
H529 H 0.07698 0.14883 0.51394 0.0
H530 H 0.19705 0.24614 0.64284 0.0
H531 H 0.1137 0.07135 0.57492 0.0
H532 H 0.11617 0.18633 0.56313 0.0
H533 H 0.16011 0.1341 0.67653 0.0
C534 C 0.18981 0.17872 0.69907 0.0
C535 C 0.20109 0.21046 0.6899 0.0
C536 C 0.11569 0.16109 0.56528 0.0
C537 C 0.15745 0.1706 0.63008 0.0
C538 C 0.09352 0.13972 0.53715 0.0
C539 C 0.09166 0.10689 0.54082 0.0
C540 C 0.13571 0.14937 0.59725 0.0
C541 C 0.11382 0.09641 0.57134 0.0
C542 C 0.16815 0.1587 0.66918 0.0
C543 C 0.18907 0.22171 0.65099 0.0
N544 N 0.13456 0.11754 0.5987 0.0
N545 N 0.16784 0.20176 0.62239 0.0
H546 H 0.9154 0.1576 0.79814 0.0
H547 H 0.99982 0.18193 0.57525 0.0
H548 H 0.91973 0.2433 0.72786 0.0
H549 H 0.94949 0.09357 0.62251 0.0
H550 H 0.99181 0.20894 0.64412 0.0
H551 H 0.95458 0.14025 0.74992 0.0
C552 C 0.92536 0.17324 0.77353 0.0
C553 C 0.91239 0.20078 0.76504 0.0
C554 C 0.98293 0.18359 0.6393 0.0
C555 C 0.95697 0.18132 0.71043 0.0
C556 C 0.98695 0.16833 0.6 0.0
C557 C 0.97437 0.13573 0.59295 0.0
C558 C 0.96703 0.16583 0.67175 0.0
C559 C 0.95863 0.11893 0.62619 0.0
C560 C 0.94766 0.16332 0.74607 0.0
C561 C 0.92762 0.22106 0.73438 0.0
N562 N 0.95538 0.1342 0.66418 0.0
N563 N 0.94831 0.21037 0.70698 0.0
H564 H 0.93059 0.90274 0.80648 0.0
H565 H 0.95128 0.99926 0.59379 0.0
H566 H 0.85396 0.89724 0.70214 0.0
H567 H 0.03246 0.98971 0.68656 0.0
H568 H 0.91109 0.97715 0.64505 0.0
H569 H 0.96273 0.94907 0.77493 0.0
C570 C 0.92027 0.91165 0.77733 0.0
C571 C 0.89008 0.89558 0.7562 0.0
C572 C 0.9377 0.98056 0.65452 0.0
C573 C 0.92665 0.94843 0.71987 0.0
C574 C 0.96072 0.99328 0.62532 0.0
C575 C 0.99533 0.9954 0.63539 0.0
C576 C 0.94943 0.96995 0.69396 0.0
C577 C 1.00601 0.98769 0.67696 0.0
C578 C 0.93855 0.93813 0.75941 0.0
C579 C 0.87731 0.90865 0.71924 0.0
N580 N 0.98313 0.97474 0.70442 0.0
N581 N 0.89603 0.93394 0.70169 0.0
H582 H 0.36952 0.2568 0.189 0.0
H583 H 0.38038 0.08796 0.07311 0.0
H584 H 0.2831 0.18157 0.16827 0.0
H585 H 0.46581 0.15967 0.11732 0.0
H586 H 0.34312 0.12218 0.10179 0.0
H587 H 0.40369 0.22244 0.15575 0.0
C588 C 0.35756 0.23316 0.17708 0.0
C589 C 0.32322 0.22224 0.18164 0.0
C590 C 0.37006 0.13025 0.10534 0.0
C591 C 0.36269 0.18219 0.14347 0.0
C592 C 0.39136 0.11064 0.08914 0.0
C593 C 0.42647 0.12064 0.09304 0.0
C594 C 0.38391 0.16018 0.12538 0.0
C595 C 0.43906 0.15061 0.11361 0.0
C596 C 0.37721 0.21338 0.15821 0.0
C597 C 0.30942 0.19114 0.16552 0.0
N598 N 0.41796 0.16912 0.12876 0.0
N599 N 0.32914 0.17223 0.14732 0.0
H600 H 0.92536 0.30793 0.16888 0.0
H601 H 0.95861 0.48767 0.10102 0.0
H602 H 0.84695 0.36104 0.13774 0.0
H603 H 0.03784 0.43768 0.14149 0.0
H604 H 0.91738 0.44373 0.12339 0.0
H605 H 0.96726 0.3561 0.16292 0.0
C606 C 0.91706 0.32963 0.16004 0.0
C607 C 0.88276 0.33061 0.15346 0.0
C608 C 0.94381 0.44259 0.12819 0.0
C609 C 0.93022 0.38581 0.14789 0.0
C610 C 0.96736 0.46785 0.11586 0.0
C611 C 1.0016 0.46604 0.11873 0.0
C612 C 0.95463 0.41526 0.14299 0.0
C613 C 1.01164 0.43994 0.13845 0.0
C614 C 0.94088 0.35721 0.15738 0.0
C615 C 0.8732 0.35944 0.1431 0.0
N616 N 0.98816 0.41517 0.14896 0.0
N617 N 0.8968 0.38591 0.14061 0.0
H618 H 0.79211 0.89573 0.07508 0.0
H619 H 0.59781 0.8826 0.01445 0.0
H620 H 0.72021 0.80819 0.06794 0.0
H621 H 0.66778 0.96785 0.05695 0.0
H622 H 0.64544 0.85522 1.00536 0.0
H623 H 0.75059 0.92134 0.03636 0.0
C624 C 0.76798 0.88165 0.06394 0.0
C625 C 0.75889 0.85028 0.07602 0.0
C626 C 0.65026 0.88005 0.01607 0.0
C627 C 0.71133 0.87931 0.03306 0.0
C628 C 0.62319 0.8955 0.02162 0.0
C629 C 0.62906 0.92704 0.038 0.0
C630 C 0.68314 0.89646 0.02685 0.0
C631 C 0.66225 0.94313 0.04572 0.0
C632 C 0.74422 0.89626 0.04215 0.0
C633 C 0.72751 0.83286 0.06049 0.0
N634 N 0.68806 0.92756 0.04053 0.0
N635 N 0.7044 0.84783 0.04075 0.0
H636 H 0.19224 0.75447 0.13646 0.0
H637 H 0.11401 0.57108 0.08098 0.0
H638 H 0.23996 0.67807 0.18077 0.0
H639 H 0.0706 0.649 0.03256 0.0
H640 H 0.16225 0.60928 0.11341 0.0
H641 H 0.15029 0.71599 0.09341 0.0
C642 C 0.19427 0.7296 0.13661 0.0
C643 C 0.21978 0.71959 0.16245 0.0
C644 C 0.14228 0.618 0.09544 0.0
C645 C 0.17101 0.67497 0.11352 0.0
C646 C 0.11463 0.59618 0.07688 0.0
C647 C 0.08789 0.60672 0.05411 0.0
C648 C 0.14332 0.65074 0.09142 0.0
C649 C 0.09039 0.63962 0.04989 0.0
C650 C 0.17012 0.70755 0.11208 0.0
C651 C 0.22092 0.68696 0.16123 0.0
N652 N 0.11738 0.66033 0.06852 0.0
N653 N 0.19668 0.66581 0.13763 0.0
H654 H 0.31851 0.82927 0.871 0.0
H655 H 0.46721 0.97898 0.87674 0.0
H656 H 0.36307 0.86289 0.75451 0.0
H657 H 0.45894 0.91012 0.97552 0.0
H658 H 0.41874 0.94607 0.83529 0.0
H659 H 0.3598 0.86908 0.91356 0.0
C660 C 0.33662 0.84537 0.85433 0.0
C661 C 0.3376 0.84266 0.80921 0.0
C662 C 0.42747 0.93845 0.86624 0.0
C663 C 0.38446 0.88825 0.85762 0.0
C664 C 0.45488 0.95718 0.88989 0.0
C665 C 0.46712 0.94695 0.92923 0.0
C666 C 0.41184 0.9099 0.88282 0.0
C667 C 0.45045 0.91854 0.94498 0.0
C668 C 0.3602 0.86791 0.87863 0.0
C669 C 0.36168 0.86405 0.78928 0.0
N670 N 0.42356 0.90101 0.92175 0.0
N671 N 0.38426 0.88601 0.81366 0.0
H672 H 0.2356 0.36314 0.77837 0.0
H673 H 0.08836 0.36716 0.93724 0.0
H674 H 0.19368 0.28387 0.85212 0.0
H675 H 0.15109 0.453 0.90038 0.0
H676 H 0.12309 0.33593 0.89917 0.0
H677 H 0.20118 0.39606 0.81549 0.0
C678 C 0.21905 0.35261 0.80211 0.0
C679 C 0.21755 0.32067 0.81212 0.0
C680 C 0.12936 0.3616 0.89938 0.0
C681 C 0.17811 0.35811 0.85448 0.0
C682 C 0.10944 0.3795 0.92105 0.0
C683 C 0.11675 0.41281 0.92199 0.0
C684 C 0.15671 0.37696 0.87786 0.0
C685 C 0.1446 0.42738 0.90058 0.0
C686 C 0.19959 0.37146 0.82344 0.0
C687 C 0.19578 0.30836 0.84337 0.0
N688 N 0.16347 0.40937 0.87913 0.0
N689 N 0.1769 0.32701 0.86321 0.0
H690 H 0.67227 0.22855 0.8087 0.0
H691 H 0.62299 0.07346 0.95105 0.0
H692 H 0.74541 0.171 0.84517 0.0
H693 H 0.55209 0.12323 0.88646 0.0
H694 H 0.66903 0.1093 0.91862 0.0
H695 H 0.62956 0.19176 0.84312 0.0
C696 C 0.67959 0.20831 0.82413 0.0
C697 C 0.71301 0.20335 0.82362 0.0
C698 C 0.64332 0.11222 0.91155 0.0
C699 C 0.6631 0.16012 0.8641 0.0
C700 C 0.61685 0.0916 0.93012 0.0
C701 C 0.58292 0.09465 0.92179 0.0
C702 C 0.63618 0.13661 0.88469 0.0
C703 C 0.57733 0.11923 0.8943 0.0
C704 C 0.65493 0.18703 0.84386 0.0
C705 C 0.72023 0.17618 0.84446 0.0
N706 N 0.60321 0.13887 0.87732 0.0
N707 N 0.69576 0.15585 0.86372 0.0
H708 H 0.77993 0.67762 0.84502 0.0
H709 H 0.95701 0.65279 0.95804 0.0
H710 H 0.86724 0.75224 0.86048 0.0
H711 H 0.87009 0.57844 0.93388 0.0
H712 H 0.92353 0.69115 0.92988 0.0
H713 H 0.81123 0.64285 0.88496 0.0
C714 C 0.80553 0.68692 0.85733 0.0
C715 C 0.82083 0.71805 0.84916 0.0
C716 C 0.91176 0.66646 0.93106 0.0
C717 C 0.85731 0.67788 0.89479 0.0
C718 C 0.93087 0.64453 0.94728 0.0
C719 C 0.91658 0.61214 0.94803 0.0
C720 C 0.87801 0.65602 0.9156 0.0
C721 C 0.88247 0.60301 0.93366 0.0
C722 C 0.82353 0.66692 0.88004 0.0
C723 C 0.85426 0.7285 0.86592 0.0
N724 N 0.86456 0.62466 0.91794 0.0
N725 N 0.87139 0.70846 0.88757 0.0
H726 H 0.27115 0.36279 0.1683 0.0
H727 H 0.09441 0.38659 0.05325 0.0
H728 H 0.18375 0.28821 0.15403 0.0
H729 H 0.18139 0.46099 0.07628 0.0
H730 H 0.12777 0.34851 0.08256 0.0
H731 H 0.24 0.39711 0.12726 0.0
C732 C 0.24556 0.3534 0.15606 0.0
C733 C 0.23018 0.32243 0.16486 0.0
C734 C 0.13958 0.37315 0.08086 0.0
C735 C 0.19389 0.36208 0.11792 0.0
C736 C 0.12055 0.39491 0.06397 0.0
C737 C 0.13489 0.42724 0.06259 0.0
C738 C 0.1733 0.3837 0.09636 0.0
C739 C 0.16899 0.43647 0.07698 0.0
C740 C 0.22765 0.37314 0.1327 0.0
C741 C 0.19677 0.31185 0.14812 0.0
N742 N 0.18682 0.41498 0.09336 0.0
N743 N 0.17974 0.33164 0.12581 0.0
H744 H 0.20549 0.67886 0.87403 0.0
H745 H 1.01194 0.5987 0.86511 0.0
H746 H 0.12455 0.72787 0.83834 0.0
H747 H 0.09306 0.55278 0.91102 0.0
H748 H 0.0531 0.64256 0.84203 0.0
H749 H 0.16473 0.63005 0.87917 0.0
C750 C 0.17901 0.6793 0.86772 0.0
C751 C 0.16826 0.70734 0.85607 0.0
C752 C 0.06185 0.62258 0.85638 0.0
C753 C 0.12151 0.65165 0.86117 0.0
C754 C 0.03836 0.59728 0.86898 0.0
C755 C 0.04919 0.57241 0.89087 0.0
C756 C 0.09621 0.6228 0.86571 0.0
C757 C 0.0837 0.57182 0.89498 0.0
C758 C 0.1558 0.65146 0.87031 0.0
C759 C 0.13376 0.70684 0.84818 0.0
N760 N 0.10604 0.59699 0.88329 0.0
N761 N 0.11153 0.67933 0.8508 0.0
H762 H 0.25904 0.14597 0.93442 0.0
H763 H 0.45264 0.15791 0.99801 0.0
H764 H 0.3318 0.23294 0.941 0.0
H765 H 0.38218 0.0728 0.95623 0.0
H766 H 0.40527 0.18578 0.00623 0.0
H767 H 0.29978 0.12035 0.97467 0.0
C768 C 0.28319 0.15994 0.94571 0.0
C769 C 0.29276 0.19111 0.93306 0.0
C770 C 0.40028 0.16087 0.99591 0.0
C771 C 0.33945 0.16206 0.97782 0.0
C772 C 0.4272 0.14513 0.99086 0.0
C773 C 0.42113 0.1135 0.97484 0.0
C774 C 0.36734 0.14465 0.98497 0.0
C775 C 0.38787 0.09759 0.96714 0.0
C776 C 0.30651 0.14532 0.96841 0.0
C777 C 0.32414 0.2084 0.94885 0.0
N778 N 0.36221 0.11344 0.97181 0.0
N779 N 0.34682 0.1934 0.96948 0.0
H780 H 0.85638 0.28533 0.87911 0.0
H781 H 0.93753 0.46862 0.9296 0.0
H782 H 0.81112 0.36199 0.83038 0.0
H783 H 0.97997 0.39052 0.97931 0.0
H784 H 0.88873 0.43067 0.89817 0.0
H785 H 0.89854 0.32388 0.92171 0.0
C786 C 0.85492 0.31029 0.87792 0.0
C787 C 0.83008 0.32034 0.85093 0.0
C788 C 0.90861 0.42186 0.91621 0.0
C789 C 0.8791 0.36501 0.89932 0.0
C790 C 0.93657 0.44354 0.9342 0.0
C791 C 0.96322 0.43286 0.957 0.0
C792 C 0.90712 0.38913 0.92089 0.0
C793 C 0.96028 0.4 0.96189 0.0
C794 C 0.8792 0.33237 0.90218 0.0
C795 C 0.82964 0.35308 0.85084 0.0
N796 N 0.93296 0.37942 0.94383 0.0
N797 N 0.85401 0.37424 0.87419 0.0
H798 H 0.68255 0.78453 0.82619 0.0
H799 H 0.67016 0.95362 0.94001 0.0
H800 H 0.76841 0.86048 0.84519 0.0
H801 H 0.58531 0.88125 0.89591 0.0
H802 H 0.70785 0.91967 0.9117 0.0
H803 H 0.64816 0.81882 0.85905 0.0
C804 C 0.69435 0.80833 0.83764 0.0
C805 C 0.7286 0.81945 0.8327 0.0
C806 C 0.68094 0.91141 0.90808 0.0
C807 C 0.68883 0.85943 0.87044 0.0
C808 C 0.65939 0.93086 0.92408 0.0
C809 C 0.62432 0.92058 0.92011 0.0
C810 C 0.66738 0.88135 0.88822 0.0
C811 C 0.61201 0.89052 0.89966 0.0
C812 C 0.67456 0.82806 0.85629 0.0
C813 C 0.74218 0.85075 0.84826 0.0
N814 N 0.63335 0.87216 0.88475 0.0
N815 N 0.72231 0.86962 0.86626 0.0
H816 H 0.81722 0.67839 0.23094 0.0
H817 H 0.96338 0.67271 0.07095 0.0
H818 H 0.85889 0.75701 0.15588 0.0
H819 H 0.90095 0.58738 0.1099 0.0
H820 H 0.92887 0.70436 0.10867 0.0
H821 H 0.85131 0.6451 0.19394 0.0
C822 C 0.83365 0.6887 0.20692 0.0
C823 C 0.83518 0.72057 0.19652 0.0
C824 C 0.92262 0.67872 0.10899 0.0
C825 C 0.87422 0.6827 0.15429 0.0
C826 C 0.94241 0.66058 0.08754 0.0
C827 C 0.93512 0.62729 0.08731 0.0
C828 C 0.89543 0.66361 0.13102 0.0
C829 C 0.90741 0.61297 0.10915 0.0
C830 C 0.85292 0.66964 0.18567 0.0
C831 C 0.85678 0.73259 0.16493 0.0
N832 N 0.88868 0.63122 0.1304 0.0
N833 N 0.87547 0.71373 0.14516 0.0
H834 H 0.37768 0.81088 0.20262 0.0
H835 H 0.42698 0.96729 0.06288 0.0
H836 H 0.30479 0.86938 0.16906 0.0
H837 H 0.49772 0.91639 0.12555 0.0
H838 H 0.38093 0.93138 0.09523 0.0
H839 H 0.42022 0.84779 0.1682 0.0
C840 C 0.37036 0.83136 0.18782 0.0
C841 C 0.33707 0.83654 0.18916 0.0
C842 C 0.40661 0.92823 0.10189 0.0
C843 C 0.38682 0.87994 0.14869 0.0
C844 C 0.43308 0.94888 0.08337 0.0
C845 C 0.46697 0.94553 0.09119 0.0
C846 C 0.4137 0.90352 0.12818 0.0
C847 C 0.47252 0.92064 0.11812 0.0
C848 C 0.39494 0.85271 0.1681 0.0
C849 C 0.32987 0.86402 0.1691 0.0
N850 N 0.44664 0.90098 0.13506 0.0
N851 N 0.35427 0.88443 0.14983 0.0
H852 H 0.73125 0.21064 0.14219 0.0
H853 H 0.58114 0.06255 0.13822 0.0
H854 H 0.68549 0.18003 0.25925 0.0
H855 H 0.59156 0.12972 0.03734 0.0
H856 H 0.62904 0.09597 0.18022 0.0
H857 H 0.68963 0.1708 0.10047 0.0
C858 C 0.71274 0.19525 0.1592 0.0
C859 C 0.71161 0.19879 0.20422 0.0
C860 C 0.62089 0.1031 0.14871 0.0
C861 C 0.6643 0.15309 0.15667 0.0
C862 C 0.59383 0.08408 0.12476 0.0
C863 C 0.5824 0.09368 0.08459 0.0
C864 C 0.63696 0.13128 0.13164 0.0
C865 C 0.59946 0.12176 0.06846 0.0
C866 C 0.68898 0.17266 0.13533 0.0
C867 C 0.68701 0.17822 0.22453 0.0
N868 N 0.626 0.13955 0.09199 0.0
N869 N 0.66422 0.15616 0.20055 0.0
H870 H 0.71444 0.63547 0.8061 0.0
H871 H 0.60887 0.54454 0.93171 0.0
H872 H 0.62666 0.63234 0.71873 0.0
H873 H 0.534 0.53724 0.82472 0.0
H874 H 0.65169 0.56568 0.88434 0.0
H875 H 0.68626 0.58885 0.83963 0.0
C876 C 0.68935 0.62472 0.79346 0.0
C877 C 0.67237 0.6387 0.76061 0.0
C878 C 0.6262 0.55886 0.87051 0.0
C879 C 0.63903 0.58587 0.80052 0.0
C880 C 0.60153 0.54675 0.89791 0.0
C881 C 0.5676 0.54022 0.88257 0.0
C882 C 0.61678 0.56458 0.82742 0.0
C883 C 0.55973 0.5429 0.83831 0.0
C884 C 0.67291 0.59815 0.81323 0.0
C885 C 0.64016 0.6232 0.7452 0.0
N886 N 0.58403 0.55549 0.81256 0.0
N887 N 0.62429 0.59807 0.76589 0.0
H888 H 0.38179 0.72988 0.77571 0.0
H889 H 0.38051 0.5747 0.9066 0.0
H890 H 0.29601 0.68918 0.84384 0.0
H891 H 0.47204 0.64222 0.89655 0.0
H892 H 0.34836 0.61319 0.87686 0.0
H893 H 0.41483 0.69479 0.81259 0.0
C894 C 0.36992 0.71358 0.79846 0.0
C895 C 0.33608 0.7124 0.80669 0.0
C896 C 0.37546 0.61963 0.88142 0.0
C897 C 0.37361 0.67199 0.84846 0.0
C898 C 0.39384 0.59767 0.89819 0.0
C899 C 0.42902 0.60524 0.90384 0.0
C900 C 0.39239 0.64915 0.86923 0.0
C901 C 0.44496 0.63544 0.89273 0.0
C902 C 0.38884 0.69372 0.81962 0.0
C903 C 0.32203 0.69092 0.83664 0.0
N904 N 0.42656 0.65617 0.87537 0.0
N905 N 0.34075 0.67129 0.85606 0.0
H906 H 0.35462 0.28668 0.88341 0.0
H907 H 0.44862 0.46521 0.92649 0.0
H908 H 0.35946 0.35808 0.78797 0.0
H909 H 0.47918 0.38974 0.99921 0.0
H910 H 0.40906 0.42614 0.88202 0.0
H911 H 0.39515 0.32377 0.93135 0.0
C912 C 0.36438 0.31004 0.8724 0.0
C913 C 0.3536 0.31938 0.83166 0.0
C914 C 0.42437 0.41805 0.90769 0.0
C915 C 0.39928 0.3618 0.88648 0.0
C916 C 0.44691 0.44037 0.93337 0.0
C917 C 0.46762 0.43074 0.96644 0.0
C918 C 0.42206 0.38571 0.91515 0.0
C919 C 0.4638 0.39819 0.97397 0.0
C920 C 0.38746 0.3311 0.89977 0.0
C921 C 0.36707 0.34985 0.81902 0.0
N922 N 0.44145 0.37671 0.94835 0.0
N923 N 0.38894 0.37004 0.8465 0.0
H924 H 0.64302 0.29951 0.79477 0.0
H925 H 0.64687 0.45521 0.9433 0.0
H926 H 0.69451 0.39207 0.76436 0.0
H927 H 0.57715 0.36773 0.9567 0.0
H928 H 0.66797 0.431 0.88092 0.0
H929 H 0.61842 0.32357 0.85467 0.0
C930 C 0.64816 0.32509 0.80014 0.0
C931 C 0.6705 0.34404 0.77503 0.0
C932 C 0.64818 0.41708 0.8977 0.0
C933 C 0.64394 0.37152 0.84388 0.0
C934 C 0.63649 0.43068 0.93371 0.0
C935 C 0.61003 0.41348 0.95491 0.0
C936 C 0.63343 0.38607 0.88314 0.0
C937 C 0.59745 0.38187 0.94105 0.0
C938 C 0.63456 0.33876 0.83445 0.0
C939 C 0.67701 0.37694 0.78301 0.0
N940 N 0.60914 0.3692 0.90573 0.0
N941 N 0.66417 0.38972 0.8174 0.0
H942 H 0.72564 0.31594 0.14359 0.0
H943 H 0.64327 0.46801 0.16728 0.0
H944 H 0.70162 0.3498 0.26839 0.0
H945 H 0.60573 0.39808 0.06404 0.0
H946 H 0.6752 0.43058 0.20028 0.0
H947 H 0.69158 0.3515 0.10886 0.0
C948 C 0.7133 0.33092 0.16362 0.0
C949 C 0.71639 0.32998 0.2089 0.0
C950 C 0.65998 0.4235 0.17038 0.0
C951 C 0.67822 0.37082 0.16958 0.0
C952 C 0.64189 0.44484 0.15139 0.0
C953 C 0.62182 0.43615 0.11279 0.0
C954 C 0.6588 0.39354 0.15007 0.0
C955 C 0.62083 0.4057 0.09382 0.0
C956 C 0.6938 0.35097 0.14382 0.0
C957 C 0.69977 0.34972 0.23339 0.0
N958 N 0.63941 0.38554 0.1124 0.0
N959 N 0.68175 0.36964 0.21345 0.0
H960 H 0.69878 0.75374 0.12509 0.0
H961 H 0.6012 0.57584 0.08795 0.0
H962 H 0.69263 0.68397 0.22284 0.0
H963 H 0.57332 0.65053 0.01126 0.0
H964 H 0.64137 0.61503 0.13136 0.0
H965 H 0.65776 0.71642 0.07805 0.0
C966 C 0.68864 0.7307 0.13678 0.0
C967 C 0.69919 0.72187 0.17792 0.0
C968 C 0.62652 0.62294 0.10506 0.0
C969 C 0.65294 0.67919 0.12416 0.0
C970 C 0.60362 0.60053 0.07999 0.0
C971 C 0.5835 0.60992 0.0461 0.0
C972 C 0.62976 0.65512 0.09618 0.0
C973 C 0.58822 0.64228 0.03718 0.0
C974 C 0.66529 0.7095 0.10993 0.0
C975 C 0.68523 0.6918 0.19145 0.0
N976 N 0.6109 0.66385 0.06223 0.0
N977 N 0.66308 0.67147 0.16448 0.0
H978 H 0.35878 0.64796 0.24663 0.0
H979 H 0.47615 0.67585 0.04984 0.0
H980 H 0.40598 0.74105 0.21215 0.0
H981 H 0.40353 0.59026 0.06308 0.0
H982 H 0.45517 0.6999 0.11264 0.0
H983 H 0.38327 0.62469 0.18562 0.0
C984 C 0.37529 0.66328 0.22696 0.0
C985 C 0.38057 0.69625 0.23386 0.0
C986 C 0.44363 0.67599 0.10139 0.0
C987 C 0.40743 0.67041 0.16395 0.0
C988 C 0.4553 0.66239 0.06532 0.0
C989 C 0.44178 0.63092 0.05159 0.0
C990 C 0.41858 0.6578 0.12386 0.0
C991 C 0.41481 0.61454 0.07275 0.0
C992 C 0.38866 0.65019 0.19181 0.0
C993 C 0.40152 0.71545 0.20736 0.0
N994 N 0.4044 0.62804 0.10833 0.0
N995 N 0.41403 0.70226 0.17313 0.0
H996 H 0.41694 0.41406 0.3058 0.0
H997 H 0.44067 0.49334 0.08264 0.0
H998 H 0.34125 0.40133 0.19947 0.0
H999 H 0.51664 0.50409 0.18883 0.0
H1000 H 0.39825 0.47351 0.13236 0.0
H1001 H 0.44707 0.4603 0.2719 0.0
C1002 C 0.40637 0.42144 0.27573 0.0
C1003 C 0.37717 0.4034 0.25478 0.0
C1004 C 0.4241 0.48085 0.14496 0.0
C1005 C 0.41157 0.45578 0.21541 0.0
C1006 C 0.44836 0.49219 0.11656 0.0
C1007 C 0.4824 0.49925 0.13134 0.0
C1008 C 0.43411 0.47641 0.18821 0.0
C1009 C 0.4908 0.4979 0.17575 0.0
C1010 C 0.42347 0.44785 0.25639 0.0
C1011 C 0.36394 0.41435 0.21645 0.0
N1012 N 0.46692 0.48601 0.20245 0.0
N1013 N 0.3817 0.43941 0.1974 0.0
H1014 H 0.7888 0.67562 0.66738 0.0
H1015 H 0.97524 0.64193 0.64069 0.0
H1016 H 0.87873 0.74559 0.69712 0.0
H1017 H 0.88645 0.57498 0.59515 0.0
H1018 H 0.93989 0.67988 0.66111 0.0
H1019 H 0.82325 0.63886 0.63952 0.0
C1020 C 0.81573 0.68348 0.6676 0.0
C1021 C 0.83072 0.71399 0.68469 0.0
C1022 C 0.928 0.65697 0.64654 0.0
C1023 C 0.8706 0.67145 0.65334 0.0
C1024 C 0.94823 0.63513 0.63502 0.0
C1025 C 0.9339 0.6051 0.61604 0.0
C1026 C 0.89285 0.64883 0.63968 0.0
C1027 C 0.89867 0.59788 0.60942 0.0
C1028 C 0.83543 0.66234 0.65178 0.0
C1029 C 0.86586 0.7225 0.6842 0.0
N1030 N 0.8794 0.61945 0.62134 0.0
N1031 N 0.88447 0.70138 0.66921 0.0
H1032 H 0.35537 0.8499 0.59976 0.0
H1033 H 0.52841 0.94816 0.57154 0.0
H1034 H 0.43614 0.80124 0.63756 0.0
H1035 H 0.45715 0.98181 0.65107 0.0
H1036 H 0.50016 0.89336 0.58086 0.0
H1037 H 0.39626 0.89881 0.59527 0.0
C1038 C 0.38185 0.84947 0.60614 0.0
C1039 C 0.39251 0.82191 0.61972 0.0
C1040 C 0.49158 0.91287 0.59721 0.0
C1041 C 0.43898 0.87733 0.61517 0.0
C1042 C 0.50764 0.94407 0.59212 0.0
C1043 C 0.49416 0.96953 0.60917 0.0
C1044 C 0.46215 0.90774 0.61921 0.0
C1045 C 0.46767 0.96289 0.63625 0.0
C1046 C 0.40499 0.87724 0.60398 0.0
C1047 C 0.42712 0.8222 0.62706 0.0
N1048 N 0.45182 0.93259 0.63936 0.0
N1049 N 0.44943 0.84985 0.62521 0.0
H1050 H 0.2912 0.37175 0.56981 0.0
H1051 H 0.09877 0.3784 0.5168 0.0
H1052 H 0.20981 0.29793 0.59954 0.0
H1053 H 0.18249 0.45519 0.50699 0.0
H1054 H 0.13888 0.34182 0.52602 0.0
H1055 H 0.2518 0.39451 0.52319 0.0
C1056 C 0.26518 0.35998 0.56579 0.0
C1057 C 0.25341 0.3338 0.58989 0.0
C1058 C 0.14825 0.36664 0.52109 0.0
C1059 C 0.20812 0.35991 0.53771 0.0
C1060 C 0.12543 0.38743 0.51611 0.0
C1061 C 0.13745 0.41992 0.51277 0.0
C1062 C 0.18299 0.37866 0.52218 0.0
C1063 C 0.17214 0.43045 0.51108 0.0
C1064 C 0.24262 0.373 0.53939 0.0
C1065 C 0.21953 0.31909 0.58303 0.0
N1066 N 0.19363 0.40997 0.5162 0.0
N1067 N 0.19782 0.33279 0.55836 0.0
H1068 H 0.77089 0.1695 0.6574 0.0
H1069 H 0.59053 0.11143 0.53198 0.0
H1070 H 0.6967 0.22956 0.64048 0.0
H1071 H 0.66802 0.05429 0.54128 0.0
H1072 H 0.63087 0.15678 0.56475 0.0
H1073 H 0.73563 0.12898 0.60878 0.0
C1074 C 0.74742 0.17439 0.64303 0.0
C1075 C 0.73676 0.20301 0.65337 0.0
C1076 C 0.63914 0.1344 0.55918 0.0
C1077 C 0.69586 0.15636 0.59786 0.0
C1078 C 0.61608 0.10844 0.54033 0.0
C1079 C 0.62559 0.07868 0.53431 0.0
C1080 C 0.67197 0.13064 0.57244 0.0
C1081 C 0.65927 0.07655 0.54554 0.0
C1082 C 0.7272 0.15117 0.61527 0.0
C1083 C 0.70599 0.20787 0.63365 0.0
N1084 N 0.68099 0.10196 0.56448 0.0
N1085 N 0.68653 0.18471 0.6073 0.0
H1086 H 0.86647 0.35284 0.28487 0.0
H1087 H 0.89513 0.47518 0.49031 0.0
H1088 H 0.79791 0.35036 0.38637 0.0
H1089 H 0.96913 0.47093 0.39698 0.0
H1090 H 0.85793 0.43111 0.45055 0.0
H1091 H 0.90316 0.39796 0.32341 0.0
C1092 C 0.85911 0.36181 0.31524 0.0
C1093 C 0.82915 0.34779 0.33255 0.0
C1094 C 0.88229 0.43983 0.43874 0.0
C1095 C 0.87097 0.39935 0.37671 0.0
C1096 C 0.90353 0.46504 0.46137 0.0
C1097 C 0.93527 0.47677 0.44689 0.0
C1098 C 0.89279 0.42631 0.40126 0.0
C1099 C 0.94487 0.46262 0.40931 0.0
C1100 C 0.88009 0.38753 0.33724 0.0
C1101 C 0.82083 0.3604 0.37193 0.0
N1102 N 0.92368 0.43812 0.38774 0.0
N1103 N 0.84166 0.38548 0.3927 0.0
H1104 H 0.70406 0.85639 0.24156 0.0
H1105 H 0.65672 0.93081 0.46441 0.0
H1106 H 0.72896 0.81909 0.36443 0.0
H1107 H 0.59416 0.92725 0.34589 0.0
H1108 H 0.69164 0.89805 0.42768 0.0
H1109 H 0.67154 0.89107 0.27877 0.0
C1110 C 0.70278 0.85556 0.27631 0.0
C1111 C 0.71901 0.83461 0.29983 0.0
C1112 C 0.67026 0.90456 0.40985 0.0
C1113 C 0.68251 0.87464 0.34265 0.0
C1114 C 0.65042 0.9233 0.43073 0.0
C1115 C 0.62229 0.93157 0.40835 0.0
C1116 C 0.66243 0.89481 0.366 0.0
C1117 C 0.61536 0.92119 0.36461 0.0
C1118 C 0.6842 0.87528 0.29749 0.0
C1119 C 0.71655 0.83462 0.34492 0.0
N1120 N 0.63536 0.9036 0.34486 0.0
N1121 N 0.69886 0.85442 0.36488 0.0
H1122 H 0.23967 0.68524 0.34181 0.0
H1123 H 0.05598 0.62066 0.42797 0.0
H1124 H 0.16048 0.73978 0.32695 0.0
H1125 H 0.13399 0.56558 0.41408 0.0
H1126 H 0.09321 0.66671 0.39916 0.0
H1127 H 0.20157 0.6443 0.37571 0.0
C1128 C 0.21428 0.6889 0.34581 0.0
C1129 C 0.20381 0.71657 0.33104 0.0
C1130 C 0.10219 0.64457 0.40273 0.0
C1131 C 0.15878 0.66838 0.37087 0.0
C1132 C 0.08095 0.61824 0.41961 0.0
C1133 C 0.09155 0.58875 0.42372 0.0
C1134 C 0.13461 0.64173 0.39034 0.0
C1135 C 0.12428 0.58745 0.41155 0.0
C1136 C 0.19226 0.66517 0.36531 0.0
C1137 C 0.17012 0.71916 0.33765 0.0
N1138 N 0.14421 0.6131 0.39579 0.0
N1139 N 0.14899 0.69557 0.35688 0.0
H1140 H 0.36014 0.26107 0.35913 0.0
H1141 H 0.36502 0.08673 0.44273 0.0
H1142 H 0.27627 0.18292 0.34411 0.0
H1143 H 0.45249 0.16128 0.45259 0.0
H1144 H 0.33186 0.12329 0.41162 0.0
H1145 H 0.39314 0.22706 0.39824 0.0
C1146 C 0.3484 0.2369 0.36453 0.0
C1147 C 0.31513 0.225 0.34814 0.0
C1148 C 0.35825 0.13186 0.42058 0.0
C1149 C 0.3533 0.18561 0.39286 0.0
C1150 C 0.37743 0.11088 0.43846 0.0
C1151 C 0.41195 0.12066 0.45024 0.0
C1152 C 0.37334 0.16328 0.41403 0.0
C1153 C 0.4261 0.15251 0.44398 0.0
C1154 C 0.36744 0.21742 0.38675 0.0
C1155 C 0.30164 0.19334 0.35613 0.0
N1156 N 0.4068 0.1726 0.42616 0.0
N1157 N 0.32074 0.17485 0.37763 0.0
H1158 H 0.77723 0.8574 0.66843 0.0
H1159 H 0.59756 0.87842 0.55779 0.0
H1160 H 0.69098 0.78156 0.65649 0.0
H1161 H 0.68615 0.95171 0.56954 0.0
H1162 H 0.63112 0.84144 0.59028 0.0
H1163 H 0.74447 0.89098 0.62824 0.0
C1164 C 0.75157 0.84759 0.65688 0.0
C1165 C 0.73705 0.81643 0.66597 0.0
C1166 C 0.64316 0.86562 0.58553 0.0
C1167 C 0.69883 0.85524 0.62017 0.0
C1168 C 0.62397 0.88674 0.56692 0.0
C1169 C 0.6388 0.91844 0.56103 0.0
C1170 C 0.67748 0.8762 0.59831 0.0
C1171 C 0.67329 0.9277 0.57358 0.0
C1172 C 0.73271 0.8669 0.63404 0.0
C1173 C 0.70342 0.80533 0.65027 0.0
N1174 N 0.69122 0.90688 0.59157 0.0
N1175 N 0.68549 0.82469 0.6285 0.0
H1176 H 0.69887 0.19137 0.4152 0.0
H1177 H 0.52457 0.09242 0.43935 0.0
H1178 H 0.61808 0.24008 0.37775 0.0
H1179 H 0.59734 0.05969 0.36147 0.0
H1180 H 0.55341 0.14737 0.43223 0.0
H1181 H 0.658 0.14239 0.41938 0.0
C1182 C 0.67238 0.1918 0.4089 0.0
C1183 C 0.66171 0.2194 0.39548 0.0
C1184 C 0.56225 0.12804 0.41582 0.0
C1185 C 0.61526 0.16388 0.3996 0.0
C1186 C 0.54585 0.09677 0.41965 0.0
C1187 C 0.55949 0.07146 0.40242 0.0
C1188 C 0.59217 0.13341 0.39484 0.0
C1189 C 0.58663 0.07844 0.37642 0.0
C1190 C 0.64925 0.16399 0.41087 0.0
C1191 C 0.6271 0.21909 0.38814 0.0
N1192 N 0.60274 0.10878 0.37449 0.0
N1193 N 0.60481 0.19139 0.38973 0.0
H1194 H 0.84347 0.74509 0.40999 0.0
H1195 H 0.86959 0.58716 0.51625 0.0
H1196 H 0.76375 0.66902 0.43769 0.0
H1197 H 0.95185 0.66127 0.48981 0.0
H1198 H 0.831 0.62367 0.50638 0.0
H1199 H 0.88274 0.72212 0.45644 0.0
C1200 C 0.83417 0.72373 0.42635 0.0
C1201 C 0.80065 0.70814 0.41878 0.0
C1202 C 0.85747 0.63226 0.50309 0.0
C1203 C 0.84526 0.68197 0.47208 0.0
C1204 C 0.87958 0.61133 0.50849 0.0
C1205 C 0.91383 0.62107 0.50262 0.0
C1206 C 0.86938 0.66292 0.48997 0.0
C1207 C 0.92549 0.65279 0.49382 0.0
C1208 C 0.85655 0.71078 0.45309 0.0
C1209 C 0.78952 0.6814 0.4421 0.0
N1210 N 0.90307 0.67251 0.48661 0.0
N1211 N 0.81198 0.66875 0.46704 0.0
H1212 H 0.35537 0.80811 0.37147 0.0
H1213 H 0.38367 0.98535 0.47613 0.0
H1214 H 0.283 0.87023 0.35671 0.0
H1215 H 0.46201 0.92921 0.47325 0.0
H1216 H 0.34357 0.94001 0.44383 0.0
H1217 H 0.39126 0.84868 0.41929 0.0
C1218 C 0.34673 0.83009 0.37873 0.0
C1219 C 0.31607 0.83574 0.35968 0.0
C1220 C 0.36945 0.93748 0.45063 0.0
C1221 C 0.35741 0.88255 0.4145 0.0
C1222 C 0.39247 0.96339 0.46934 0.0
C1223 C 0.4266 0.96145 0.477 0.0
C1224 C 0.38039 0.90916 0.43945 0.0
C1225 C 0.43613 0.93208 0.4676 0.0
C1226 C 0.36738 0.85333 0.40597 0.0
C1227 C 0.3064 0.86477 0.37044 0.0
N1228 N 0.41326 0.90726 0.44898 0.0
N1229 N 0.32706 0.88711 0.39682 0.0
H1230 H 0.26187 0.364 0.34944 0.0
H1231 H 0.07552 0.39873 0.37177 0.0
H1232 H 0.17187 0.29485 0.31621 0.0
H1233 H 0.16389 0.46373 0.42367 0.0
H1234 H 0.11084 0.36077 0.35154 0.0
H1235 H 0.22733 0.40047 0.37789 0.0
C1236 C 0.2349 0.35625 0.34856 0.0
C1237 C 0.21992 0.32608 0.3303 0.0
C1238 C 0.12264 0.38325 0.36746 0.0
C1239 C 0.17995 0.36829 0.3623 0.0
C1240 C 0.10243 0.40512 0.37888 0.0
C1241 C 0.11664 0.43465 0.39947 0.0
C1242 C 0.15768 0.39086 0.37607 0.0
C1243 C 0.15174 0.44128 0.40798 0.0
C1244 C 0.21515 0.37722 0.36474 0.0
C1245 C 0.18473 0.31767 0.33003 0.0
N1246 N 0.17102 0.4197 0.39609 0.0
N1247 N 0.16607 0.33865 0.34533 0.0
H1248 H 0.32372 0.22309 0.64413 0.0
H1249 H 0.46055 0.11307 0.66538 0.0
H1250 H 0.34936 0.18486 0.76607 0.0
H1251 H 0.39648 0.11028 0.54831 0.0
H1252 H 0.42549 0.14511 0.70182 0.0
H1253 H 0.35554 0.18781 0.6075 0.0
C1254 C 0.33616 0.20735 0.66328 0.0
C1255 C 0.33397 0.20704 0.70836 0.0
C1256 C 0.41904 0.13741 0.66821 0.0
C1257 C 0.37074 0.16681 0.66646 0.0
C1258 C 0.43913 0.11927 0.64722 0.0
C1259 C 0.43155 0.10903 0.60355 0.0
C1260 C 0.39149 0.14616 0.64525 0.0
C1261 C 0.40326 0.11761 0.58194 0.0
C1262 C 0.35411 0.18709 0.64223 0.0
C1263 C 0.35037 0.18591 0.73133 0.0
N1264 N 0.38447 0.13602 0.60285 0.0
N1265 N 0.36838 0.16691 0.7102 0.0
H1266 H 0.8925 0.30073 0.69423 0.0
H1267 H 0.91338 0.47028 0.58124 0.0
H1268 H 0.81209 0.35187 0.66564 0.0
H1269 H 0.99762 0.42313 0.60345 0.0
H1270 H 0.87658 0.42507 0.60907 0.0
H1271 H 0.93125 0.34234 0.65972 0.0
C1272 C 0.88276 0.32042 0.68051 0.0
C1273 C 0.84847 0.32227 0.68315 0.0
C1274 C 0.90299 0.42415 0.60763 0.0
C1275 C 0.89336 0.37071 0.6433 0.0
C1276 C 0.92417 0.4501 0.59132 0.0
C1277 C 0.95889 0.45077 0.58912 0.0
C1278 C 0.91612 0.398 0.62298 0.0
C1279 C 0.97108 0.42375 0.60359 0.0
C1280 C 0.90508 0.34435 0.66079 0.0
C1281 C 0.83797 0.34888 0.66472 0.0
N1282 N 0.9499 0.39874 0.62003 0.0
N1283 N 0.86002 0.37164 0.64602 0.0
H1284 H 0.25707 0.68967 0.62547 0.0
H1285 H 0.08119 0.56952 0.61733 0.0
H1286 H 0.18714 0.6864 0.72544 0.0
H1287 H 0.15567 0.56504 0.52471 0.0
H1288 H 0.1193 0.61337 0.65638 0.0
H1289 H 0.21988 0.64466 0.58708 0.0
C1290 C 0.23396 0.67944 0.63938 0.0
C1291 C 0.22513 0.69182 0.67861 0.0
C1292 C 0.12735 0.60274 0.62758 0.0
C1293 C 0.18252 0.64052 0.63492 0.0
C1294 C 0.10558 0.57772 0.60523 0.0
C1295 C 0.1153 0.56356 0.56777 0.0
C1296 C 0.159 0.61377 0.61224 0.0
C1297 C 0.14719 0.57519 0.55356 0.0
C1298 C 0.21276 0.65376 0.61748 0.0
C1299 C 0.19492 0.67765 0.69522 0.0
N1300 N 0.16789 0.59968 0.57579 0.0
N1301 N 0.17466 0.65282 0.6732 0.0
loop_
_geom_bond_atom_site_label_1
_geom_bond_atom_site_label_2
_geom_bond_distance
_geom_bond_site_symmetry_2
_ccdc_geom_bond_type
Co0 N5 2.057 . S
Co0 O17 2.021 . S
Co0 O20 2.062 . S
Co0 O24 2.117 . S
Co0 O25 2.020 . S
C1 O21 1.259 . S
C1 O24 1.258 . S
Co2 N11 2.057 . S
Co2 O18 2.117 . S
Co2 O19 2.020 . S
Co2 O21 2.021 . S
Co2 O26 2.062 . S
C3 N5 1.316 . S
C3 N6 1.347 . S
C3 H8 0.931 . S
C4 N5 1.375 . S
C4 C7 1.350 . S
C4 H9 0.930 . S
N5 Co0 2.057 . S
N5 C3 1.316 . S
N5 C4 1.375 . S
N6 C3 1.347 . S
N6 C7 1.373 . S
C7 C4 1.350 . S
C7 N6 1.373 . S
C7 H28 0.931 . S
H8 C3 0.931 . S
H9 C4 0.930 . S
C10 O17 1.259 . S
C10 O18 1.258 . S
N11 Co2 2.057 . S
N11 C12 1.316 . S
N11 C13 1.375 . S
C12 N11 1.316 . S
C12 N14 1.347 . S
C12 H23 0.931 . S
C13 N11 1.375 . S
C13 C15 1.350 . S
C13 H22 0.930 . S
N14 C12 1.347 . S
N14 C15 1.373 . S
C15 C13 1.350 . S
C15 N14 1.373 . S
C15 H29 0.931 . S
C16 O19 1.256 . S
C16 O20 1.255 . S
O17 Co0 2.021 . S
O17 C10 1.259 . S
O18 Co2 2.117 . S
O18 C10 1.258 . S
O19 Co2 2.020 . S
O19 C16 1.256 . S
O20 Co0 2.062 . S
O20 C16 1.255 . S
O21 C1 1.259 . S
O21 Co2 2.021 . S
H22 C13 0.930 . S
H23 C12 0.931 . S
O24 Co0 2.117 . S
O24 C1 1.258 . S
O25 Co0 2.020 . S
O25 C27 1.256 . S
O26 Co2 2.062 . S
O26 C27 1.255 . S
C27 O25 1.256 . S
C27 O26 1.255 . S
H28 C7 0.931 . S
H29 C15 0.931 . S
Co30 N35 2.057 . S
Co30 O47 2.021 . S
Co30 O50 2.062 . S
Co30 O54 2.117 . S
Co30 O55 2.020 . S
C31 O51 1.259 . S
C31 O54 1.258 . S
Co32 N41 2.057 . S
Co32 O48 2.117 . S
Co32 O49 2.020 . S
Co32 O51 2.021 . S
Co32 O56 2.062 . S
C33 N35 1.316 . S
C33 N36 1.347 . S
C33 H38 0.931 . S
C34 N35 1.375 . S
C34 C37 1.350 . S
C34 H39 0.930 . S
N35 Co30 2.057 . S
N35 C33 1.316 . S
N35 C34 1.375 . S
N36 C33 1.347 . S
N36 C37 1.373 . S
C37 C34 1.350 . S
C37 N36 1.373 . S
C37 H58 0.931 . S
H38 C33 0.931 . S
H39 C34 0.930 . S
C40 O47 1.259 . S
C40 O48 1.258 . S
N41 Co32 2.057 . S
N41 C42 1.316 . S
N41 C43 1.375 . S
C42 N41 1.316 . S
C42 N44 1.347 . S
C42 H53 0.931 . S
C43 N41 1.375 . S
C43 C45 1.350 . S
C43 H52 0.930 . S
N44 C42 1.347 . S
N44 C45 1.373 . S
C45 C43 1.350 . S
C45 N44 1.373 . S
C45 H59 0.931 . S
C46 O49 1.256 . S
C46 O50 1.255 . S
O47 Co30 2.021 . S
O47 C40 1.259 . S
O48 Co32 2.117 . S
O48 C40 1.258 . S
O49 Co32 2.020 . S
O49 C46 1.256 . S
O50 Co30 2.062 . S
O50 C46 1.255 . S
O51 C31 1.259 . S
O51 Co32 2.021 . S
H52 C43 0.930 . S
H53 C42 0.931 . S
O54 Co30 2.117 . S
O54 C31 1.258 . S
O55 Co30 2.020 . S
O55 C57 1.256 . S
O56 Co32 2.062 . S
O56 C57 1.255 . S
C57 O55 1.256 . S
C57 O56 1.255 . S
H58 C37 0.931 . S
H59 C45 0.931 . S
Co60 N65 2.057 . S
Co60 O77 2.021 . S
Co60 O80 2.062 . S
Co60 O84 2.117 . S
Co60 O85 2.020 . S
C61 O81 1.259 . S
C61 O84 1.258 . S
Co62 N71 2.057 . S
Co62 O78 2.117 . S
Co62 O79 2.020 . S
Co62 O81 2.021 . S
Co62 O86 2.062 . S
C63 N65 1.316 . S
C63 N66 1.347 . S
C63 H68 0.931 . S
C64 N65 1.375 . S
C64 C67 1.350 . S
C64 H69 0.930 . S
N65 Co60 2.057 . S
N65 C63 1.316 . S
N65 C64 1.375 . S
N66 C63 1.347 . S
N66 C67 1.373 . S
C67 C64 1.350 . S
C67 N66 1.373 . S
C67 H88 0.931 . S
H68 C63 0.931 . S
H69 C64 0.930 . S
C70 O77 1.259 . S
C70 O78 1.258 . S
N71 Co62 2.057 . S
N71 C72 1.316 . S
N71 C73 1.375 . S
C72 N71 1.316 . S
C72 N74 1.347 . S
C72 H83 0.931 . S
C73 N71 1.375 . S
C73 C75 1.350 . S
C73 H82 0.930 . S
N74 C72 1.347 . S
N74 C75 1.373 . S
C75 C73 1.350 . S
C75 N74 1.373 . S
C75 H89 0.931 . S
C76 O79 1.256 . S
C76 O80 1.255 . S
O77 Co60 2.021 . S
O77 C70 1.259 . S
O78 Co62 2.117 . S
O78 C70 1.258 . S
O79 Co62 2.020 . S
O79 C76 1.256 . S
O80 Co60 2.062 . S
O80 C76 1.255 . S
O81 C61 1.259 . S
O81 Co62 2.021 . S
H82 C73 0.930 . S
H83 C72 0.931 . S
O84 Co60 2.117 . S
O84 C61 1.258 . S
O85 Co60 2.020 . S
O85 C87 1.256 . S
O86 Co62 2.062 . S
O86 C87 1.255 . S
C87 O85 1.256 . S
C87 O86 1.255 . S
H88 C67 0.931 . S
H89 C75 0.931 . S
Co90 N95 2.057 . S
Co90 O107 2.021 . S
Co90 O110 2.062 . S
Co90 O114 2.117 . S
Co90 O115 2.020 . S
C91 O111 1.259 . S
C91 O114 1.258 . S
Co92 N101 2.057 . S
Co92 O108 2.117 . S
Co92 O109 2.020 . S
Co92 O111 2.021 . S
Co92 O116 2.062 . S
C93 N95 1.316 . S
C93 N96 1.347 . S
C93 H98 0.931 . S
C94 N95 1.375 . S
C94 C97 1.350 . S
C94 H99 0.930 . S
N95 Co90 2.057 . S
N95 C93 1.316 . S
N95 C94 1.375 . S
N96 C93 1.347 . S
N96 C97 1.373 . S
C97 C94 1.350 . S
C97 N96 1.373 . S
C97 H118 0.931 . S
H98 C93 0.931 . S
H99 C94 0.930 . S
C100 O107 1.259 . S
C100 O108 1.258 . S
N101 Co92 2.057 . S
N101 C102 1.316 . S
N101 C103 1.375 . S
C102 N101 1.316 . S
C102 N104 1.347 . S
C102 H113 0.931 . S
C103 N101 1.375 . S
C103 C105 1.350 . S
C103 H112 0.930 . S
N104 C102 1.347 . S
N104 C105 1.373 . S
C105 C103 1.350 . S
C105 N104 1.373 . S
C105 H119 0.931 . S
C106 O109 1.256 . S
C106 O110 1.255 . S
O107 Co90 2.021 . S
O107 C100 1.259 . S
O108 Co92 2.117 . S
O108 C100 1.258 . S
O109 Co92 2.020 . S
O109 C106 1.256 . S
O110 Co90 2.062 . S
O110 C106 1.255 . S
O111 C91 1.259 . S
O111 Co92 2.021 . S
H112 C103 0.930 . S
H113 C102 0.931 . S
O114 Co90 2.117 . S
O114 C91 1.258 . S
O115 Co90 2.020 . S
O115 C117 1.256 . S
O116 Co92 2.062 . S
O116 C117 1.255 . S
C117 O115 1.256 . S
C117 O116 1.255 . S
H118 C97 0.931 . S
H119 C105 0.931 . S
Co120 N125 2.057 . S
Co120 O137 2.021 . S
Co120 O140 2.062 . S
Co120 O144 2.117 . S
Co120 O145 2.020 . S
C121 O141 1.259 . S
C121 O144 1.258 . S
Co122 N131 2.057 . S
Co122 O138 2.117 . S
Co122 O139 2.020 . S
Co122 O141 2.021 . S
Co122 O146 2.062 . S
C123 N125 1.316 . S
C123 N126 1.347 . S
C123 H128 0.931 . S
C124 N125 1.375 . S
C124 C127 1.350 . S
C124 H129 0.930 . S
N125 Co120 2.057 . S
N125 C123 1.316 . S
N125 C124 1.375 . S
N126 C123 1.347 . S
N126 C127 1.373 . S
C127 C124 1.350 . S
C127 N126 1.373 . S
C127 H148 0.931 . S
H128 C123 0.931 . S
H129 C124 0.930 . S
C130 O137 1.259 . S
C130 O138 1.258 . S
N131 Co122 2.057 . S
N131 C132 1.316 . S
N131 C133 1.375 . S
C132 N131 1.316 . S
C132 N134 1.347 . S
C132 H143 0.931 . S
C133 N131 1.375 . S
C133 C135 1.350 . S
C133 H142 0.930 . S
N134 C132 1.347 . S
N134 C135 1.373 . S
C135 C133 1.350 . S
C135 N134 1.373 . S
C135 H149 0.931 . S
C136 O139 1.256 . S
C136 O140 1.255 . S
O137 Co120 2.021 . S
O137 C130 1.259 . S
O138 Co122 2.117 . S
O138 C130 1.258 . S
O139 Co122 2.020 . S
O139 C136 1.256 . S
O140 Co120 2.062 . S
O140 C136 1.255 . S
O141 C121 1.259 . S
O141 Co122 2.021 . S
H142 C133 0.930 . S
H143 C132 0.931 . S
O144 Co120 2.117 . S
O144 C121 1.258 . S
O145 Co120 2.020 . S
O145 C147 1.256 . S
O146 Co122 2.062 . S
O146 C147 1.255 . S
C147 O145 1.256 . S
C147 O146 1.255 . S
H148 C127 0.931 . S
H149 C135 0.931 . S
Co150 N155 2.057 . S
Co150 O167 2.021 . S
Co150 O170 2.062 . S
Co150 O174 2.117 . S
Co150 O175 2.020 . S
C151 O171 1.259 . S
C151 O174 1.258 . S
Co152 N161 2.057 . S
Co152 O168 2.117 . S
Co152 O169 2.020 . S
Co152 O171 2.021 . S
Co152 O176 2.062 . S
C153 N155 1.316 . S
C153 N156 1.347 . S
C153 H158 0.931 . S
C154 N155 1.375 . S
C154 C157 1.350 . S
C154 H159 0.930 . S
N155 Co150 2.057 . S
N155 C153 1.316 . S
N155 C154 1.375 . S
N156 C153 1.347 . S
N156 C157 1.373 . S
C157 C154 1.350 . S
C157 N156 1.373 . S
C157 H178 0.931 . S
H158 C153 0.931 . S
H159 C154 0.930 . S
C160 O167 1.259 . S
C160 O168 1.258 . S
N161 Co152 2.057 . S
N161 C162 1.316 . S
N161 C163 1.375 . S
C162 N161 1.316 . S
C162 N164 1.347 . S
C162 H173 0.931 . S
C163 N161 1.375 . S
C163 C165 1.350 . S
C163 H172 0.930 . S
N164 C162 1.347 . S
N164 C165 1.373 . S
C165 C163 1.350 . S
C165 N164 1.373 . S
C165 H179 0.931 . S
C166 O169 1.256 . S
C166 O170 1.255 . S
O167 Co150 2.021 . S
O167 C160 1.259 . S
O168 Co152 2.117 . S
O168 C160 1.258 . S
O169 Co152 2.020 . S
O169 C166 1.256 . S
O170 Co150 2.062 . S
O170 C166 1.255 . S
O171 C151 1.259 . S
O171 Co152 2.021 . S
H172 C163 0.930 . S
H173 C162 0.931 . S
O174 Co150 2.117 . S
O174 C151 1.258 . S
O175 Co150 2.020 . S
O175 C177 1.256 . S
O176 Co152 2.062 . S
O176 C177 1.255 . S
C177 O175 1.256 . S
C177 O176 1.255 . S
H178 C157 0.931 . S
H179 C165 0.931 . S
Co180 N185 2.057 . S
Co180 O197 2.021 . S
Co180 O200 2.062 . S
Co180 O204 2.117 . S
Co180 O205 2.020 . S
C181 O201 1.259 . S
C181 O204 1.258 . S
Co182 N191 2.057 . S
Co182 O198 2.117 . S
Co182 O199 2.020 . S
Co182 O201 2.021 . S
Co182 O206 2.062 . S
C183 N185 1.316 . S
C183 N186 1.347 . S
C183 H188 0.931 . S
C184 N185 1.375 . S
C184 C187 1.350 . S
C184 H189 0.930 . S
N185 Co180 2.057 . S
N185 C183 1.316 . S
N185 C184 1.375 . S
N186 C183 1.347 . S
N186 C187 1.373 . S
C187 C184 1.350 . S
C187 N186 1.373 . S
C187 H208 0.931 . S
H188 C183 0.931 . S
H189 C184 0.930 . S
C190 O197 1.259 . S
C190 O198 1.258 . S
N191 Co182 2.057 . S
N191 C192 1.316 . S
N191 C193 1.375 . S
C192 N191 1.316 . S
C192 N194 1.347 . S
C192 H203 0.931 . S
C193 N191 1.375 . S
C193 C195 1.350 . S
C193 H202 0.930 . S
N194 C192 1.347 . S
N194 C195 1.373 . S
C195 C193 1.350 . S
C195 N194 1.373 . S
C195 H209 0.931 . S
C196 O199 1.256 . S
C196 O200 1.255 . S
O197 Co180 2.021 . S
O197 C190 1.259 . S
O198 Co182 2.117 . S
O198 C190 1.258 . S
O199 Co182 2.020 . S
O199 C196 1.256 . S
O200 Co180 2.062 . S
O200 C196 1.255 . S
O201 C181 1.259 . S
O201 Co182 2.021 . S
H202 C193 0.930 . S
H203 C192 0.931 . S
O204 Co180 2.117 . S
O204 C181 1.258 . S
O205 Co180 2.020 . S
O205 C207 1.256 . S
O206 Co182 2.062 . S
O206 C207 1.255 . S
C207 O205 1.256 . S
C207 O206 1.255 . S
H208 C187 0.931 . S
H209 C195 0.931 . S
Co210 N215 2.057 . S
Co210 O227 2.021 . S
Co210 O230 2.062 . S
Co210 O234 2.117 . S
Co210 O235 2.020 . S
C211 O231 1.259 . S
C211 O234 1.258 . S
Co212 N221 2.057 . S
Co212 O228 2.117 . S
Co212 O229 2.020 . S
Co212 O231 2.021 . S
Co212 O236 2.062 . S
C213 N215 1.316 . S
C213 N216 1.347 . S
C213 H218 0.931 . S
C214 N215 1.375 . S
C214 C217 1.350 . S
C214 H219 0.930 . S
N215 Co210 2.057 . S
N215 C213 1.316 . S
N215 C214 1.375 . S
N216 C213 1.347 . S
N216 C217 1.373 . S
C217 C214 1.350 . S
C217 N216 1.373 . S
C217 H238 0.931 . S
H218 C213 0.931 . S
H219 C214 0.930 . S
C220 O227 1.259 . S
C220 O228 1.258 . S
N221 Co212 2.057 . S
N221 C222 1.316 . S
N221 C223 1.375 . S
C222 N221 1.316 . S
C222 N224 1.347 . S
C222 H233 0.931 . S
C223 N221 1.375 . S
C223 C225 1.350 . S
C223 H232 0.930 . S
N224 C222 1.347 . S
N224 C225 1.373 . S
C225 C223 1.350 . S
C225 N224 1.373 . S
C225 H239 0.931 . S
C226 O229 1.256 . S
C226 O230 1.255 . S
O227 Co210 2.021 . S
O227 C220 1.259 . S
O228 Co212 2.117 . S
O228 C220 1.258 . S
O229 Co212 2.020 . S
O229 C226 1.256 . S
O230 Co210 2.062 . S
O230 C226 1.255 . S
O231 C211 1.259 . S
O231 Co212 2.021 . S
H232 C223 0.930 . S
H233 C222 0.931 . S
O234 Co210 2.117 . S
O234 C211 1.258 . S
O235 Co210 2.020 . S
O235 C237 1.256 . S
O236 Co212 2.062 . S
O236 C237 1.255 . S
C237 O235 1.256 . S
C237 O236 1.255 . S
H238 C217 0.931 . S
H239 C225 0.931 . S
Co240 O243 2.042 . S
Co240 O250 2.264 . S
Co240 O269 2.286 . S
Co240 O270 2.069 . S
Co240 O272 2.015 1_455 S
Co241 O243 2.122 . S
Co241 O249 2.073 . S
Co241 O250 2.327 . S
Co241 O251 1.976 1_455 S
Co242 O243 2.078 1_545 S
Co242 O245 2.096 1_455 S
Co242 O252 2.107 1_445 S
Co242 O253 2.150 . S
Co242 O257 2.116 . S
Co242 O271 2.137 1_445 S
O243 Co240 2.042 . S
O243 Co241 2.122 . S
O243 Co242 2.078 1_565 S
O243 H244 0.980 . S
H244 O243 0.980 . S
O245 Co242 2.096 1_655 S
O245 Co246 2.042 . S
O245 Co247 2.122 . S
O245 H248 0.980 . S
Co246 O245 2.042 . S
Co246 O254 2.286 . S
Co246 O255 2.069 . S
Co246 O256 2.015 1_655 S
Co246 O259 2.264 . S
Co247 O245 2.122 . S
Co247 O258 1.976 1_655 S
Co247 O259 2.327 . S
Co247 O260 2.073 . S
H248 O245 0.980 . S
O249 Co241 2.073 . S
O249 C264 1.245 . S
O250 Co240 2.264 . S
O250 Co241 2.327 . S
O250 C264 1.257 . S
O251 Co241 1.976 1_655 S
O251 C263 1.251 . S
O252 Co242 2.107 1_665 S
O252 C263 1.274 . S
O253 Co242 2.150 . S
O253 C266 1.246 . S
O254 Co246 2.286 . S
O254 C265 1.259 . S
O255 Co246 2.069 . S
O255 C265 1.289 . S
O256 Co246 2.015 1_455 S
O256 C266 1.257 . S
O257 Co242 2.116 . S
O257 C267 1.274 . S
O258 Co247 1.976 1_455 S
O258 C267 1.251 . S
O259 Co246 2.264 . S
O259 Co247 2.327 . S
O259 C268 1.257 . S
O260 Co247 2.073 . S
O260 C268 1.245 . S
C261 O269 1.259 . S
C261 O270 1.289 . S
C262 O271 1.246 . S
C262 O272 1.257 . S
C263 O251 1.251 . S
C263 O252 1.274 . S
C264 O249 1.245 . S
C264 O250 1.257 . S
C265 O254 1.259 . S
C265 O255 1.289 . S
C266 O253 1.246 . S
C266 O256 1.257 . S
C267 O257 1.274 . S
C267 O258 1.251 . S
C268 O259 1.257 . S
C268 O260 1.245 . S
O269 Co240 2.286 . S
O269 C261 1.259 . S
O270 Co240 2.069 . S
O270 C261 1.289 . S
O271 Co242 2.137 1_665 S
O271 C262 1.246 . S
O272 Co240 2.015 1_655 S
O272 C262 1.257 . S
Co273 O276 2.042 1_556 S
Co273 O283 2.264 1_556 S
Co273 O302 2.286 . S
Co273 O303 2.069 . S
Co273 O305 2.015 . S
Co274 O276 2.122 . S
Co274 O282 2.073 . S
Co274 O283 2.327 . S
Co274 O284 1.976 . S
Co275 O276 2.077 1_545 S
Co275 O278 2.096 1_554 S
Co275 O285 2.107 1_545 S
Co275 O286 2.150 . S
Co275 O290 2.115 1_554 S
Co275 O304 2.137 1_544 S
O276 Co273 2.042 1_554 S
O276 Co274 2.122 . S
O276 Co275 2.077 1_565 S
O276 H277 0.980 . S
H277 O276 0.980 . S
O278 Co275 2.096 1_556 S
O278 Co279 2.042 1_556 S
O278 Co280 2.122 . S
O278 H281 0.980 . S
Co279 O278 2.042 1_554 S
Co279 O287 2.286 . S
Co279 O288 2.069 . S
Co279 O289 2.015 . S
Co279 O292 2.264 1_554 S
Co280 O278 2.122 . S
Co280 O291 1.976 . S
Co280 O292 2.327 . S
Co280 O293 2.073 . S
H281 O278 0.980 . S
O282 Co274 2.073 . S
O282 C297 1.245 . S
O283 Co273 2.264 1_554 S
O283 Co274 2.327 . S
O283 C297 1.257 . S
O284 Co274 1.976 . S
O284 C296 1.251 . S
O285 Co275 2.107 1_565 S
O285 C296 1.274 . S
O286 Co275 2.150 . S
O286 C299 1.246 . S
O287 Co279 2.286 . S
O287 C298 1.259 . S
O288 Co279 2.069 . S
O288 C298 1.289 . S
O289 Co279 2.015 . S
O289 C299 1.257 . S
O290 Co275 2.115 1_556 S
O290 C300 1.274 . S
O291 Co280 1.976 . S
O291 C300 1.251 . S
O292 Co279 2.264 1_556 S
O292 Co280 2.327 . S
O292 C301 1.257 . S
O293 Co280 2.073 . S
O293 C301 1.245 . S
C294 O302 1.259 . S
C294 O303 1.289 . S
C295 O304 1.246 . S
C295 O305 1.257 . S
C296 O284 1.251 . S
C296 O285 1.274 . S
C297 O282 1.245 . S
C297 O283 1.257 . S
C298 O287 1.259 . S
C298 O288 1.289 . S
C299 O286 1.246 . S
C299 O289 1.257 . S
C300 O290 1.274 . S
C300 O291 1.251 . S
C301 O292 1.257 . S
C301 O293 1.245 . S
O302 Co273 2.286 . S
O302 C294 1.259 . S
O303 Co273 2.069 . S
O303 C294 1.289 . S
O304 Co275 2.137 1_566 S
O304 C295 1.246 . S
O305 Co273 2.015 . S
O305 C295 1.257 . S
Co306 O309 2.042 1_556 S
Co306 O316 2.264 1_556 S
Co306 O335 2.286 . S
Co306 O336 2.069 . S
Co306 O338 2.015 1_455 S
Co307 O309 2.122 . S
Co307 O315 2.073 . S
Co307 O316 2.327 . S
Co307 O317 1.976 1_455 S
Co308 O309 2.087 . S
Co308 O311 2.087 1_454 S
Co308 O318 2.111 1_455 S
Co308 O319 2.144 . S
Co308 O323 2.112 1_554 S
Co308 O337 2.143 1_454 S
O309 Co306 2.042 1_554 S
O309 Co307 2.122 . S
O309 Co308 2.087 . S
O309 H310 0.980 . S
H310 O309 0.980 . S
O311 Co308 2.087 1_656 S
O311 Co312 2.042 1_556 S
O311 Co313 2.122 . S
O311 H314 0.980 . S
Co312 O311 2.042 1_554 S
Co312 O320 2.286 . S
Co312 O321 2.069 . S
Co312 O322 2.015 1_655 S
Co312 O325 2.264 1_554 S
Co313 O311 2.122 . S
Co313 O324 1.976 1_655 S
Co313 O325 2.327 . S
Co313 O326 2.073 . S
H314 O311 0.980 . S
O315 Co307 2.073 . S
O315 C330 1.245 . S
O316 Co306 2.264 1_554 S
O316 Co307 2.327 . S
O316 C330 1.257 . S
O317 Co307 1.976 1_655 S
O317 C329 1.251 . S
O318 Co308 2.111 1_655 S
O318 C329 1.274 . S
O319 Co308 2.144 . S
O319 C332 1.246 . S
O320 Co312 2.286 . S
O320 C331 1.259 . S
O321 Co312 2.069 . S
O321 C331 1.289 . S
O322 Co312 2.015 1_455 S
O322 C332 1.257 . S
O323 Co308 2.112 1_556 S
O323 C333 1.274 . S
O324 Co313 1.976 1_455 S
O324 C333 1.251 . S
O325 Co312 2.264 1_556 S
O325 Co313 2.327 . S
O325 C334 1.257 . S
O326 Co313 2.073 . S
O326 C334 1.245 . S
C327 O335 1.259 . S
C327 O336 1.289 . S
C328 O337 1.246 . S
C328 O338 1.257 . S
C329 O317 1.251 . S
C329 O318 1.274 . S
C330 O315 1.245 . S
C330 O316 1.257 . S
C331 O320 1.259 . S
C331 O321 1.289 . S
C332 O319 1.246 . S
C332 O322 1.257 . S
C333 O323 1.274 . S
C333 O324 1.251 . S
C334 O325 1.257 . S
C334 O326 1.245 . S
O335 Co306 2.286 . S
O335 C327 1.259 . S
O336 Co306 2.069 . S
O336 C327 1.289 . S
O337 Co308 2.143 1_656 S
O337 C328 1.246 . S
O338 Co306 2.015 1_655 S
O338 C328 1.257 . S
Co339 O342 2.042 1_556 S
Co339 O349 2.264 1_556 S
Co339 O368 2.286 . S
Co339 O369 2.069 . S
Co339 O371 2.015 . S
Co340 O342 2.122 . S
Co340 O348 2.073 . S
Co340 O349 2.327 . S
Co340 O350 1.976 . S
Co341 O342 2.087 . S
Co341 O344 2.087 1_554 S
Co341 O351 2.111 . S
Co341 O352 2.143 . S
Co341 O356 2.111 1_554 S
Co341 O370 2.143 1_554 S
O342 Co339 2.042 1_554 S
O342 Co340 2.122 . S
O342 Co341 2.087 . S
O342 H343 0.980 . S
H343 O342 0.980 . S
O344 Co341 2.087 1_556 S
O344 Co345 2.042 1_556 S
O344 Co346 2.122 . S
O344 H347 0.980 . S
Co345 O344 2.042 1_554 S
Co345 O353 2.286 . S
Co345 O354 2.069 . S
Co345 O355 2.015 . S
Co345 O358 2.264 1_554 S
Co346 O344 2.122 . S
Co346 O357 1.976 . S
Co346 O358 2.327 . S
Co346 O359 2.073 . S
H347 O344 0.980 . S
O348 Co340 2.073 . S
O348 C363 1.245 . S
O349 Co339 2.264 1_554 S
O349 Co340 2.327 . S
O349 C363 1.257 . S
O350 Co340 1.976 . S
O350 C362 1.251 . S
O351 Co341 2.111 . S
O351 C362 1.274 . S
O352 Co341 2.143 . S
O352 C365 1.246 . S
O353 Co345 2.286 . S
O353 C364 1.259 . S
O354 Co345 2.069 . S
O354 C364 1.289 . S
O355 Co345 2.015 . S
O355 C365 1.257 . S
O356 Co341 2.111 1_556 S
O356 C366 1.274 . S
O357 Co346 1.976 . S
O357 C366 1.251 . S
O358 Co345 2.264 1_556 S
O358 Co346 2.327 . S
O358 C367 1.257 . S
O359 Co346 2.073 . S
O359 C367 1.245 . S
C360 O368 1.259 . S
C360 O369 1.289 . S
C361 O370 1.246 . S
C361 O371 1.257 . S
C362 O350 1.251 . S
C362 O351 1.274 . S
C363 O348 1.245 . S
C363 O349 1.257 . S
C364 O353 1.259 . S
C364 O354 1.289 . S
C365 O352 1.246 . S
C365 O355 1.257 . S
C366 O356 1.274 . S
C366 O357 1.251 . S
C367 O358 1.257 . S
C367 O359 1.245 . S
O368 Co339 2.286 . S
O368 C360 1.259 . S
O369 Co339 2.069 . S
O369 C360 1.289 . S
O370 Co341 2.143 1_556 S
O370 C361 1.246 . S
O371 Co339 2.015 . S
O371 C361 1.257 . S
Co372 O375 2.042 . S
Co372 O382 2.264 . S
Co372 O401 2.286 . S
Co372 O402 2.069 . S
Co372 O404 2.015 . S
Co373 O375 2.122 . S
Co373 O381 2.073 . S
Co373 O382 2.327 . S
Co373 O383 1.976 . S
Co374 O375 2.087 . S
Co374 O377 2.086 1_455 S
Co374 O384 2.111 . S
Co374 O385 2.143 1_455 S
Co374 O389 2.111 1_455 S
Co374 O403 2.144 . S
O375 Co372 2.042 . S
O375 Co373 2.122 . S
O375 Co374 2.087 . S
O375 H376 0.980 . S
H376 O375 0.980 . S
O377 Co374 2.086 1_655 S
O377 Co378 2.042 . S
O377 Co379 2.122 . S
O377 H380 0.980 . S
Co378 O377 2.042 . S
Co378 O386 2.286 . S
Co378 O387 2.069 . S
Co378 O388 2.015 . S
Co378 O391 2.264 . S
Co379 O377 2.122 . S
Co379 O390 1.976 . S
Co379 O391 2.327 . S
Co379 O392 2.073 . S
H380 O377 0.980 . S
O381 Co373 2.073 . S
O381 C396 1.245 . S
O382 Co372 2.264 . S
O382 Co373 2.327 . S
O382 C396 1.257 . S
O383 Co373 1.976 . S
O383 C395 1.251 . S
O384 Co374 2.111 . S
O384 C395 1.274 . S
O385 Co374 2.143 1_655 S
O385 C398 1.246 . S
O386 Co378 2.286 . S
O386 C397 1.259 . S
O387 Co378 2.069 . S
O387 C397 1.289 . S
O388 Co378 2.015 . S
O388 C398 1.257 . S
O389 Co374 2.111 1_655 S
O389 C399 1.274 . S
O390 Co379 1.976 . S
O390 C399 1.251 . S
O391 Co378 2.264 . S
O391 Co379 2.327 . S
O391 C400 1.257 . S
O392 Co379 2.073 . S
O392 C400 1.245 . S
C393 O401 1.259 . S
C393 O402 1.289 . S
C394 O403 1.246 . S
C394 O404 1.257 . S
C395 O383 1.251 . S
C395 O384 1.274 . S
C396 O381 1.245 . S
C396 O382 1.257 . S
C397 O386 1.259 . S
C397 O387 1.289 . S
C398 O385 1.246 . S
C398 O388 1.257 . S
C399 O389 1.274 . S
C399 O390 1.251 . S
C400 O391 1.257 . S
C400 O392 1.245 . S
O401 Co372 2.286 . S
O401 C393 1.259 . S
O402 Co372 2.069 . S
O402 C393 1.289 . S
O403 Co374 2.144 . S
O403 C394 1.246 . S
O404 Co372 2.015 . S
O404 C394 1.257 . S
Co405 O408 2.042 . S
Co405 O415 2.264 . S
Co405 O434 2.286 . S
Co405 O435 2.069 . S
Co405 O437 2.015 1_565 S
Co406 O408 2.122 . S
Co406 O414 2.073 . S
Co406 O415 2.327 . S
Co406 O416 1.976 1_565 S
Co407 O408 2.078 1_545 S
Co407 O410 2.096 . S
Co407 O417 2.119 . S
Co407 O418 2.139 1_545 S
Co407 O422 2.104 1_545 S
Co407 O436 2.148 . S
O408 Co405 2.042 . S
O408 Co406 2.122 . S
O408 Co407 2.078 1_565 S
O408 H409 0.980 . S
H409 O408 0.980 . S
O410 Co407 2.096 . S
O410 Co411 2.042 . S
O410 Co412 2.122 . S
O410 H413 0.980 . S
Co411 O410 2.042 . S
Co411 O419 2.286 . S
Co411 O420 2.069 . S
Co411 O421 2.015 1_545 S
Co411 O424 2.264 . S
Co412 O410 2.122 . S
Co412 O423 1.976 1_545 S
Co412 O424 2.327 . S
Co412 O425 2.073 . S
H413 O410 0.980 . S
O414 Co406 2.073 . S
O414 C429 1.245 . S
O415 Co405 2.264 . S
O415 Co406 2.327 . S
O415 C429 1.257 . S
O416 Co406 1.976 1_545 S
O416 C428 1.251 . S
O417 Co407 2.119 . S
O417 C428 1.274 . S
O418 Co407 2.139 1_565 S
O418 C431 1.246 . S
O419 Co411 2.286 . S
O419 C430 1.259 . S
O420 Co411 2.069 . S
O420 C430 1.289 . S
O421 Co411 2.015 1_565 S
O421 C431 1.257 . S
O422 Co407 2.104 1_565 S
O422 C432 1.274 . S
O423 Co412 1.976 1_565 S
O423 C432 1.251 . S
O424 Co411 2.264 . S
O424 Co412 2.327 . S
O424 C433 1.257 . S
O425 Co412 2.073 . S
O425 C433 1.245 . S
C426 O434 1.259 . S
C426 O435 1.289 . S
C427 O436 1.246 . S
C427 O437 1.257 . S
C428 O416 1.251 . S
C428 O417 1.274 . S
C429 O414 1.245 . S
C429 O415 1.257 . S
C430 O419 1.259 . S
C430 O420 1.289 . S
C431 O418 1.246 . S
C431 O421 1.257 . S
C432 O422 1.274 . S
C432 O423 1.251 . S
C433 O424 1.257 . S
C433 O425 1.245 . S
O434 Co405 2.286 . S
O434 C426 1.259 . S
O435 Co405 2.069 . S
O435 C426 1.289 . S
O436 Co407 2.148 . S
O436 C427 1.246 . S
O437 Co405 2.015 1_545 S
O437 C427 1.257 . S
H438 C444 0.930 . S
H439 C448 0.930 . S
H440 C453 0.929 . S
H441 C451 0.929 . S
H442 C446 0.929 . S
H443 C452 0.929 . S
C444 H438 0.930 . S
C444 C445 1.367 . S
C444 C452 1.378 . S
C445 C444 1.367 . S
C445 C453 1.433 . S
C446 H442 0.929 . S
C446 C448 1.378 . S
C446 C450 1.350 . S
C447 C450 1.463 . S
C447 C452 1.350 . S
C447 N455 1.427 . S
C448 H439 0.930 . S
C448 C446 1.378 . S
C448 C449 1.367 . S
C449 C448 1.367 . S
C449 C451 1.433 . S
C450 C446 1.350 . S
C450 C447 1.463 . S
C450 N454 1.427 . S
C451 H441 0.929 . S
C451 C449 1.433 . S
C451 N454 1.384 . S
C452 H443 0.929 . S
C452 C444 1.378 . S
C452 C447 1.350 . S
C453 H440 0.929 . S
C453 C445 1.433 . S
C453 N455 1.384 . S
N454 C450 1.427 . S
N454 C451 1.384 . S
N455 C447 1.427 . S
N455 C453 1.384 . S
H456 C462 0.930 . S
H457 C466 0.930 . S
H458 C471 0.929 . S
H459 C469 0.929 . S
H460 C464 0.929 . S
H461 C470 0.929 . S
C462 H456 0.930 . S
C462 C463 1.367 . S
C462 C470 1.378 . S
C463 C462 1.367 . S
C463 C471 1.433 . S
C464 H460 0.929 . S
C464 C466 1.378 . S
C464 C468 1.350 . S
C465 C468 1.463 . S
C465 C470 1.350 . S
C465 N473 1.427 . S
C466 H457 0.930 . S
C466 C464 1.378 . S
C466 C467 1.367 . S
C467 C466 1.367 . S
C467 C469 1.433 . S
C468 C464 1.350 . S
C468 C465 1.463 . S
C468 N472 1.427 . S
C469 H459 0.929 . S
C469 C467 1.433 . S
C469 N472 1.384 . S
C470 H461 0.929 . S
C470 C462 1.378 . S
C470 C465 1.350 . S
C471 H458 0.929 . S
C471 C463 1.433 . S
C471 N473 1.384 . S
N472 C468 1.427 . S
N472 C469 1.384 . S
N473 C465 1.427 . S
N473 C471 1.384 . S
H474 C480 0.930 . S
H475 C484 0.930 . S
H476 C489 0.929 . S
H477 C487 0.929 . S
H478 C482 0.929 . S
H479 C488 0.929 . S
C480 H474 0.930 . S
C480 C481 1.367 . S
C480 C488 1.378 . S
C481 C480 1.367 . S
C481 C489 1.433 . S
C482 H478 0.929 . S
C482 C484 1.378 . S
C482 C486 1.350 . S
C483 C486 1.463 . S
C483 C488 1.350 . S
C483 N491 1.427 . S
C484 H475 0.930 . S
C484 C482 1.378 . S
C484 C485 1.367 . S
C485 C484 1.367 . S
C485 C487 1.433 . S
C486 C482 1.350 . S
C486 C483 1.463 . S
C486 N490 1.427 . S
C487 H477 0.929 . S
C487 C485 1.433 . S
C487 N490 1.384 . S
C488 H479 0.929 . S
C488 C480 1.378 . S
C488 C483 1.350 . S
C489 H476 0.929 . S
C489 C481 1.433 . S
C489 N491 1.384 . S
N490 C486 1.427 . S
N490 C487 1.384 . S
N491 C483 1.427 . S
N491 C489 1.384 . S
H492 C498 0.930 . S
H493 C502 0.930 . S
H494 C507 0.929 . S
H495 C505 0.929 . S
H496 C500 0.929 . S
H497 C506 0.929 . S
C498 H492 0.930 . S
C498 C499 1.367 . S
C498 C506 1.378 . S
C499 C498 1.367 . S
C499 C507 1.433 . S
C500 H496 0.929 . S
C500 C502 1.378 . S
C500 C504 1.350 . S
C501 C504 1.463 . S
C501 C506 1.350 . S
C501 N509 1.427 . S
C502 H493 0.930 . S
C502 C500 1.378 . S
C502 C503 1.367 . S
C503 C502 1.367 . S
C503 C505 1.433 . S
C504 C500 1.350 . S
C504 C501 1.463 . S
C504 N508 1.427 . S
C505 H495 0.929 . S
C505 C503 1.433 . S
C505 N508 1.384 . S
C506 H497 0.929 . S
C506 C498 1.378 . S
C506 C501 1.350 . S
C507 H494 0.929 . S
C507 C499 1.433 . S
C507 N509 1.384 . S
N508 C504 1.427 . S
N508 C505 1.384 . S
N509 C501 1.427 . S
N509 C507 1.384 . S
H510 C516 0.930 . S
H511 C520 0.930 . S
H512 C525 0.929 . S
H513 C523 0.929 . S
H514 C518 0.929 . S
H515 C524 0.929 . S
C516 H510 0.930 . S
C516 C517 1.367 . S
C516 C524 1.378 . S
C517 C516 1.367 . S
C517 C525 1.433 . S
C518 H514 0.929 . S
C518 C520 1.378 . S
C518 C522 1.350 . S
C519 C522 1.463 . S
C519 C524 1.350 . S
C519 N527 1.427 . S
C520 H511 0.930 . S
C520 C518 1.378 . S
C520 C521 1.367 . S
C521 C520 1.367 . S
C521 C523 1.433 . S
C522 C518 1.350 . S
C522 C519 1.463 . S
C522 N526 1.427 . S
C523 H513 0.929 . S
C523 C521 1.433 . S
C523 N526 1.384 . S
C524 H515 0.929 . S
C524 C516 1.378 . S
C524 C519 1.350 . S
C525 H512 0.929 . S
C525 C517 1.433 . S
C525 N527 1.384 . S
N526 C522 1.427 . S
N526 C523 1.384 . S
N527 C519 1.427 . S
N527 C525 1.384 . S
H528 C534 0.930 . S
H529 C538 0.930 . S
H530 C543 0.929 . S
H531 C541 0.929 . S
H532 C536 0.929 . S
H533 C542 0.929 . S
C534 H528 0.930 . S
C534 C535 1.367 . S
C534 C542 1.378 . S
C535 C534 1.367 . S
C535 C543 1.433 . S
C536 H532 0.929 . S
C536 C538 1.378 . S
C536 C540 1.350 . S
C537 C540 1.463 . S
C537 C542 1.350 . S
C537 N545 1.427 . S
C538 H529 0.930 . S
C538 C536 1.378 . S
C538 C539 1.367 . S
C539 C538 1.367 . S
C539 C541 1.433 . S
C540 C536 1.350 . S
C540 C537 1.463 . S
C540 N544 1.427 . S
C541 H531 0.929 . S
C541 C539 1.433 . S
C541 N544 1.384 . S
C542 H533 0.929 . S
C542 C534 1.378 . S
C542 C537 1.350 . S
C543 H530 0.929 . S
C543 C535 1.433 . S
C543 N545 1.384 . S
N544 C540 1.427 . S
N544 C541 1.384 . S
N545 C537 1.427 . S
N545 C543 1.384 . S
H546 C552 0.930 . S
H547 C556 0.930 . S
H548 C561 0.929 . S
H549 C559 0.929 . S
H550 C554 0.929 . S
H551 C560 0.929 . S
C552 H546 0.930 . S
C552 C553 1.367 . S
C552 C560 1.378 . S
C553 C552 1.367 . S
C553 C561 1.433 . S
C554 H550 0.929 . S
C554 C556 1.378 . S
C554 C558 1.350 . S
C555 C558 1.463 . S
C555 C560 1.350 . S
C555 N563 1.427 . S
C556 H547 0.930 . S
C556 C554 1.378 . S
C556 C557 1.367 . S
C557 C556 1.367 . S
C557 C559 1.433 . S
C558 C554 1.350 . S
C558 C555 1.463 . S
C558 N562 1.427 . S
C559 H549 0.929 . S
C559 C557 1.433 . S
C559 N562 1.384 . S
C560 H551 0.929 . S
C560 C552 1.378 . S
C560 C555 1.350 . S
C561 H548 0.929 . S
C561 C553 1.433 . S
C561 N563 1.384 . S
N562 C558 1.427 . S
N562 C559 1.384 . S
N563 C555 1.427 . S
N563 C561 1.384 . S
H564 C570 0.930 . S
H565 C574 0.930 . S
H566 C579 0.929 . S
H567 C577 0.929 . S
H568 C572 0.929 . S
H569 C578 0.929 . S
C570 H564 0.930 . S
C570 C571 1.367 . S
C570 C578 1.378 . S
C571 C570 1.367 . S
C571 C579 1.433 . S
C572 H568 0.929 . S
C572 C574 1.378 . S
C572 C576 1.350 . S
C573 C576 1.463 . S
C573 C578 1.350 . S
C573 N581 1.427 . S
C574 H565 0.930 . S
C574 C572 1.378 . S
C574 C575 1.367 . S
C575 C574 1.367 . S
C575 C577 1.433 . S
C576 C572 1.350 . S
C576 C573 1.463 . S
C576 N580 1.427 . S
C577 H567 0.929 . S
C577 C575 1.433 . S
C577 N580 1.384 . S
C578 H569 0.929 . S
C578 C570 1.378 . S
C578 C573 1.350 . S
C579 H566 0.929 . S
C579 C571 1.433 . S
C579 N581 1.384 . S
N580 C576 1.427 . S
N580 C577 1.384 . S
N581 C573 1.427 . S
N581 C579 1.384 . S
H582 C588 0.930 . S
H583 C592 0.930 . S
H584 C597 0.929 . S
H585 C595 0.929 . S
H586 C590 0.929 . S
H587 C596 0.929 . S
C588 H582 0.930 . S
C588 C589 1.367 . S
C588 C596 1.378 . S
C589 C588 1.367 . S
C589 C597 1.433 . S
C590 H586 0.929 . S
C590 C592 1.378 . S
C590 C594 1.350 . S
C591 C594 1.463 . S
C591 C596 1.350 . S
C591 N599 1.427 . S
C592 H583 0.930 . S
C592 C590 1.378 . S
C592 C593 1.367 . S
C593 C592 1.367 . S
C593 C595 1.433 . S
C594 C590 1.350 . S
C594 C591 1.463 . S
C594 N598 1.427 . S
C595 H585 0.929 . S
C595 C593 1.433 . S
C595 N598 1.384 . S
C596 H587 0.929 . S
C596 C588 1.378 . S
C596 C591 1.350 . S
C597 H584 0.929 . S
C597 C589 1.433 . S
C597 N599 1.384 . S
N598 C594 1.427 . S
N598 C595 1.384 . S
N599 C591 1.427 . S
N599 C597 1.384 . S
H600 C606 0.930 . S
H601 C610 0.930 . S
H602 C615 0.929 . S
H603 C613 0.929 . S
H604 C608 0.929 . S
H605 C614 0.929 . S
C606 H600 0.930 . S
C606 C607 1.367 . S
C606 C614 1.378 . S
C607 C606 1.367 . S
C607 C615 1.433 . S
C608 H604 0.929 . S
C608 C610 1.378 . S
C608 C612 1.350 . S
C609 C612 1.463 . S
C609 C614 1.350 . S
C609 N617 1.427 . S
C610 H601 0.930 . S
C610 C608 1.378 . S
C610 C611 1.367 . S
C611 C610 1.367 . S
C611 C613 1.433 . S
C612 C608 1.350 . S
C612 C609 1.463 . S
C612 N616 1.427 . S
C613 H603 0.929 . S
C613 C611 1.433 . S
C613 N616 1.384 . S
C614 H605 0.929 . S
C614 C606 1.378 . S
C614 C609 1.350 . S
C615 H602 0.929 . S
C615 C607 1.433 . S
C615 N617 1.384 . S
N616 C612 1.427 . S
N616 C613 1.384 . S
N617 C609 1.427 . S
N617 C615 1.384 . S
H618 C624 0.930 . S
H619 C628 0.930 . S
H620 C633 0.929 . S
H621 C631 0.929 . S
H622 C626 0.929 . S
H623 C632 0.929 . S
C624 H618 0.930 . S
C624 C625 1.367 . S
C624 C632 1.378 . S
C625 C624 1.367 . S
C625 C633 1.433 . S
C626 H622 0.929 . S
C626 C628 1.378 . S
C626 C630 1.350 . S
C627 C630 1.463 . S
C627 C632 1.350 . S
C627 N635 1.427 . S
C628 H619 0.930 . S
C628 C626 1.378 . S
C628 C629 1.367 . S
C629 C628 1.367 . S
C629 C631 1.433 . S
C630 C626 1.350 . S
C630 C627 1.463 . S
C630 N634 1.427 . S
C631 H621 0.929 . S
C631 C629 1.433 . S
C631 N634 1.384 . S
C632 H623 0.929 . S
C632 C624 1.378 . S
C632 C627 1.350 . S
C633 H620 0.929 . S
C633 C625 1.433 . S
C633 N635 1.384 . S
N634 C630 1.427 . S
N634 C631 1.384 . S
N635 C627 1.427 . S
N635 C633 1.384 . S
H636 C642 0.930 . S
H637 C646 0.930 . S
H638 C651 0.929 . S
H639 C649 0.929 . S
H640 C644 0.929 . S
H641 C650 0.929 . S
C642 H636 0.930 . S
C642 C643 1.367 . S
C642 C650 1.378 . S
C643 C642 1.367 . S
C643 C651 1.433 . S
C644 H640 0.929 . S
C644 C646 1.378 . S
C644 C648 1.350 . S
C645 C648 1.463 . S
C645 C650 1.350 . S
C645 N653 1.427 . S
C646 H637 0.930 . S
C646 C644 1.378 . S
C646 C647 1.367 . S
C647 C646 1.367 . S
C647 C649 1.433 . S
C648 C644 1.350 . S
C648 C645 1.463 . S
C648 N652 1.427 . S
C649 H639 0.929 . S
C649 C647 1.433 . S
C649 N652 1.384 . S
C650 H641 0.929 . S
C650 C642 1.378 . S
C650 C645 1.350 . S
C651 H638 0.929 . S
C651 C643 1.433 . S
C651 N653 1.384 . S
N652 C648 1.427 . S
N652 C649 1.384 . S
N653 C645 1.427 . S
N653 C651 1.384 . S
H654 C660 0.930 . S
H655 C664 0.930 . S
H656 C669 0.929 . S
H657 C667 0.929 . S
H658 C662 0.929 . S
H659 C668 0.929 . S
C660 H654 0.930 . S
C660 C661 1.367 . S
C660 C668 1.378 . S
C661 C660 1.367 . S
C661 C669 1.433 . S
C662 H658 0.929 . S
C662 C664 1.378 . S
C662 C666 1.350 . S
C663 C666 1.463 . S
C663 C668 1.350 . S
C663 N671 1.427 . S
C664 H655 0.930 . S
C664 C662 1.378 . S
C664 C665 1.367 . S
C665 C664 1.367 . S
C665 C667 1.433 . S
C666 C662 1.350 . S
C666 C663 1.463 . S
C666 N670 1.427 . S
C667 H657 0.929 . S
C667 C665 1.433 . S
C667 N670 1.384 . S
C668 H659 0.929 . S
C668 C660 1.378 . S
C668 C663 1.350 . S
C669 H656 0.929 . S
C669 C661 1.433 . S
C669 N671 1.384 . S
N670 C666 1.427 . S
N670 C667 1.384 . S
N671 C663 1.427 . S
N671 C669 1.384 . S
H672 C678 0.930 . S
H673 C682 0.930 . S
H674 C687 0.929 . S
H675 C685 0.929 . S
H676 C680 0.929 . S
H677 C686 0.929 . S
C678 H672 0.930 . S
C678 C679 1.367 . S
C678 C686 1.378 . S
C679 C678 1.367 . S
C679 C687 1.433 . S
C680 H676 0.929 . S
C680 C682 1.378 . S
C680 C684 1.350 . S
C681 C684 1.463 . S
C681 C686 1.350 . S
C681 N689 1.427 . S
C682 H673 0.930 . S
C682 C680 1.378 . S
C682 C683 1.367 . S
C683 C682 1.367 . S
C683 C685 1.433 . S
C684 C680 1.350 . S
C684 C681 1.463 . S
C684 N688 1.427 . S
C685 H675 0.929 . S
C685 C683 1.433 . S
C685 N688 1.384 . S
C686 H677 0.929 . S
C686 C678 1.378 . S
C686 C681 1.350 . S
C687 H674 0.929 . S
C687 C679 1.433 . S
C687 N689 1.384 . S
N688 C684 1.427 . S
N688 C685 1.384 . S
N689 C681 1.427 . S
N689 C687 1.384 . S
H690 C696 0.930 . S
H691 C700 0.930 . S
H692 C705 0.929 . S
H693 C703 0.929 . S
H694 C698 0.929 . S
H695 C704 0.929 . S
C696 H690 0.930 . S
C696 C697 1.367 . S
C696 C704 1.378 . S
C697 C696 1.367 . S
C697 C705 1.433 . S
C698 H694 0.929 . S
C698 C700 1.378 . S
C698 C702 1.350 . S
C699 C702 1.463 . S
C699 C704 1.350 . S
C699 N707 1.427 . S
C700 H691 0.930 . S
C700 C698 1.378 . S
C700 C701 1.367 . S
C701 C700 1.367 . S
C701 C703 1.433 . S
C702 C698 1.350 . S
C702 C699 1.463 . S
C702 N706 1.427 . S
C703 H693 0.929 . S
C703 C701 1.433 . S
C703 N706 1.384 . S
C704 H695 0.929 . S
C704 C696 1.378 . S
C704 C699 1.350 . S
C705 H692 0.929 . S
C705 C697 1.433 . S
C705 N707 1.384 . S
N706 C702 1.427 . S
N706 C703 1.384 . S
N707 C699 1.427 . S
N707 C705 1.384 . S
H708 C714 0.930 . S
H709 C718 0.930 . S
H710 C723 0.929 . S
H711 C721 0.929 . S
H712 C716 0.929 . S
H713 C722 0.929 . S
C714 H708 0.930 . S
C714 C715 1.367 . S
C714 C722 1.378 . S
C715 C714 1.367 . S
C715 C723 1.433 . S
C716 H712 0.929 . S
C716 C718 1.378 . S
C716 C720 1.350 . S
C717 C720 1.463 . S
C717 C722 1.350 . S
C717 N725 1.427 . S
C718 H709 0.930 . S
C718 C716 1.378 . S
C718 C719 1.367 . S
C719 C718 1.367 . S
C719 C721 1.433 . S
C720 C716 1.350 . S
C720 C717 1.463 . S
C720 N724 1.427 . S
C721 H711 0.929 . S
C721 C719 1.433 . S
C721 N724 1.384 . S
C722 H713 0.929 . S
C722 C714 1.378 . S
C722 C717 1.350 . S
C723 H710 0.929 . S
C723 C715 1.433 . S
C723 N725 1.384 . S
N724 C720 1.427 . S
N724 C721 1.384 . S
N725 C717 1.427 . S
N725 C723 1.384 . S
H726 C732 0.930 . S
H727 C736 0.930 . S
H728 C741 0.929 . S
H729 C739 0.929 . S
H730 C734 0.929 . S
H731 C740 0.929 . S
C732 H726 0.930 . S
C732 C733 1.367 . S
C732 C740 1.378 . S
C733 C732 1.367 . S
C733 C741 1.433 . S
C734 H730 0.929 . S
C734 C736 1.378 . S
C734 C738 1.350 . S
C735 C738 1.463 . S
C735 C740 1.350 . S
C735 N743 1.427 . S
C736 H727 0.930 . S
C736 C734 1.378 . S
C736 C737 1.367 . S
C737 C736 1.367 . S
C737 C739 1.433 . S
C738 C734 1.350 . S
C738 C735 1.463 . S
C738 N742 1.427 . S
C739 H729 0.929 . S
C739 C737 1.433 . S
C739 N742 1.384 . S
C740 H731 0.929 . S
C740 C732 1.378 . S
C740 C735 1.350 . S
C741 H728 0.929 . S
C741 C733 1.433 . S
C741 N743 1.384 . S
N742 C738 1.427 . S
N742 C739 1.384 . S
N743 C735 1.427 . S
N743 C741 1.384 . S
H744 C750 0.930 . S
H745 C754 0.930 1_554 S
H746 C759 0.929 . S
H747 C757 0.929 . S
H748 C752 0.929 . S
H749 C758 0.929 . S
C750 H744 0.930 . S
C750 C751 1.367 . S
C750 C758 1.378 . S
C751 C750 1.367 . S
C751 C759 1.433 . S
C752 H748 0.929 . S
C752 C754 1.378 . S
C752 C756 1.350 . S
C753 C756 1.463 . S
C753 C758 1.350 . S
C753 N761 1.427 . S
C754 H745 0.930 1_556 S
C754 C752 1.378 . S
C754 C755 1.367 . S
C755 C754 1.367 . S
C755 C757 1.433 . S
C756 C752 1.350 . S
C756 C753 1.463 . S
C756 N760 1.427 . S
C757 H747 0.929 . S
C757 C755 1.433 . S
C757 N760 1.384 . S
C758 H749 0.929 . S
C758 C750 1.378 . S
C758 C753 1.350 . S
C759 H746 0.929 . S
C759 C751 1.433 . S
C759 N761 1.384 . S
N760 C756 1.427 . S
N760 C757 1.384 . S
N761 C753 1.427 . S
N761 C759 1.384 . S
H762 C768 0.930 . S
H763 C772 0.930 1_554 S
H764 C777 0.929 . S
H765 C775 0.929 . S
H766 C770 0.929 . S
H767 C776 0.929 . S
C768 H762 0.930 . S
C768 C769 1.367 . S
C768 C776 1.378 . S
C769 C768 1.367 . S
C769 C777 1.433 . S
C770 H766 0.929 . S
C770 C772 1.378 . S
C770 C774 1.350 . S
C771 C774 1.463 . S
C771 C776 1.350 . S
C771 N779 1.427 . S
C772 H763 0.930 1_556 S
C772 C770 1.378 . S
C772 C773 1.367 . S
C773 C772 1.367 . S
C773 C775 1.433 . S
C774 C770 1.350 . S
C774 C771 1.463 . S
C774 N778 1.427 . S
C775 H765 0.929 . S
C775 C773 1.433 . S
C775 N778 1.384 . S
C776 H767 0.929 . S
C776 C768 1.378 . S
C776 C771 1.350 . S
C777 H764 0.929 . S
C777 C769 1.433 . S
C777 N779 1.384 . S
N778 C774 1.427 . S
N778 C775 1.384 . S
N779 C771 1.427 . S
N779 C777 1.384 . S
H780 C786 0.930 . S
H781 C790 0.930 . S
H782 C795 0.929 . S
H783 C793 0.929 . S
H784 C788 0.929 . S
H785 C794 0.929 . S
C786 H780 0.930 . S
C786 C787 1.367 . S
C786 C794 1.378 . S
C787 C786 1.367 . S
C787 C795 1.433 . S
C788 H784 0.929 . S
C788 C790 1.378 . S
C788 C792 1.350 . S
C789 C792 1.463 . S
C789 C794 1.350 . S
C789 N797 1.427 . S
C790 H781 0.930 . S
C790 C788 1.378 . S
C790 C791 1.367 . S
C791 C790 1.367 . S
C791 C793 1.433 . S
C792 C788 1.350 . S
C792 C789 1.463 . S
C792 N796 1.427 . S
C793 H783 0.929 . S
C793 C791 1.433 . S
C793 N796 1.384 . S
C794 H785 0.929 . S
C794 C786 1.378 . S
C794 C789 1.350 . S
C795 H782 0.929 . S
C795 C787 1.433 . S
C795 N797 1.384 . S
N796 C792 1.427 . S
N796 C793 1.384 . S
N797 C789 1.427 . S
N797 C795 1.384 . S
H798 C804 0.930 . S
H799 C808 0.930 . S
H800 C813 0.929 . S
H801 C811 0.929 . S
H802 C806 0.929 . S
H803 C812 0.929 . S
C804 H798 0.930 . S
C804 C805 1.367 . S
C804 C812 1.378 . S
C805 C804 1.367 . S
C805 C813 1.433 . S
C806 H802 0.929 . S
C806 C808 1.378 . S
C806 C810 1.350 . S
C807 C810 1.463 . S
C807 C812 1.350 . S
C807 N815 1.427 . S
C808 H799 0.930 . S
C808 C806 1.378 . S
C808 C809 1.367 . S
C809 C808 1.367 . S
C809 C811 1.433 . S
C810 C806 1.350 . S
C810 C807 1.463 . S
C810 N814 1.427 . S
C811 H801 0.929 . S
C811 C809 1.433 . S
C811 N814 1.384 . S
C812 H803 0.929 . S
C812 C804 1.378 . S
C812 C807 1.350 . S
C813 H800 0.929 . S
C813 C805 1.433 . S
C813 N815 1.384 . S
N814 C810 1.427 . S
N814 C811 1.384 . S
N815 C807 1.427 . S
N815 C813 1.384 . S
H816 C822 0.930 . S
H817 C826 0.930 . S
H818 C831 0.929 . S
H819 C829 0.929 . S
H820 C824 0.929 . S
H821 C830 0.929 . S
C822 H816 0.930 . S
C822 C823 1.367 . S
C822 C830 1.378 . S
C823 C822 1.367 . S
C823 C831 1.433 . S
C824 H820 0.929 . S
C824 C826 1.378 . S
C824 C828 1.350 . S
C825 C828 1.463 . S
C825 C830 1.350 . S
C825 N833 1.427 . S
C826 H817 0.930 . S
C826 C824 1.378 . S
C826 C827 1.367 . S
C827 C826 1.367 . S
C827 C829 1.433 . S
C828 C824 1.350 . S
C828 C825 1.463 . S
C828 N832 1.427 . S
C829 H819 0.929 . S
C829 C827 1.433 . S
C829 N832 1.384 . S
C830 H821 0.929 . S
C830 C822 1.378 . S
C830 C825 1.350 . S
C831 H818 0.929 . S
C831 C823 1.433 . S
C831 N833 1.384 . S
N832 C828 1.427 . S
N832 C829 1.384 . S
N833 C825 1.427 . S
N833 C831 1.384 . S
H834 C840 0.930 . S
H835 C844 0.930 . S
H836 C849 0.929 . S
H837 C847 0.929 . S
H838 C842 0.929 . S
H839 C848 0.929 . S
C840 H834 0.930 . S
C840 C841 1.367 . S
C840 C848 1.378 . S
C841 C840 1.367 . S
C841 C849 1.433 . S
C842 H838 0.929 . S
C842 C844 1.378 . S
C842 C846 1.350 . S
C843 C846 1.463 . S
C843 C848 1.350 . S
C843 N851 1.427 . S
C844 H835 0.930 . S
C844 C842 1.378 . S
C844 C845 1.367 . S
C845 C844 1.367 . S
C845 C847 1.433 . S
C846 C842 1.350 . S
C846 C843 1.463 . S
C846 N850 1.427 . S
C847 H837 0.929 . S
C847 C845 1.433 . S
C847 N850 1.384 . S
C848 H839 0.929 . S
C848 C840 1.378 . S
C848 C843 1.350 . S
C849 H836 0.929 . S
C849 C841 1.433 . S
C849 N851 1.384 . S
N850 C846 1.427 . S
N850 C847 1.384 . S
N851 C843 1.427 . S
N851 C849 1.384 . S
H852 C858 0.930 . S
H853 C862 0.930 . S
H854 C867 0.929 . S
H855 C865 0.929 . S
H856 C860 0.929 . S
H857 C866 0.929 . S
C858 H852 0.930 . S
C858 C859 1.367 . S
C858 C866 1.378 . S
C859 C858 1.367 . S
C859 C867 1.433 . S
C860 H856 0.929 . S
C860 C862 1.378 . S
C860 C864 1.350 . S
C861 C864 1.463 . S
C861 C866 1.350 . S
C861 N869 1.427 . S
C862 H853 0.930 . S
C862 C860 1.378 . S
C862 C863 1.367 . S
C863 C862 1.367 . S
C863 C865 1.433 . S
C864 C860 1.350 . S
C864 C861 1.463 . S
C864 N868 1.427 . S
C865 H855 0.929 . S
C865 C863 1.433 . S
C865 N868 1.384 . S
C866 H857 0.929 . S
C866 C858 1.378 . S
C866 C861 1.350 . S
C867 H854 0.929 . S
C867 C859 1.433 . S
C867 N869 1.384 . S
N868 C864 1.427 . S
N868 C865 1.384 . S
N869 C861 1.427 . S
N869 C867 1.384 . S
H870 C876 0.930 . S
H871 C880 0.930 . S
H872 C885 0.929 . S
H873 C883 0.929 . S
H874 C878 0.929 . S
H875 C884 0.929 . S
C876 H870 0.930 . S
C876 C877 1.367 . S
C876 C884 1.378 . S
C877 C876 1.367 . S
C877 C885 1.433 . S
C878 H874 0.929 . S
C878 C880 1.378 . S
C878 C882 1.350 . S
C879 C882 1.463 . S
C879 C884 1.350 . S
C879 N887 1.427 . S
C880 H871 0.930 . S
C880 C878 1.378 . S
C880 C881 1.367 . S
C881 C880 1.367 . S
C881 C883 1.433 . S
C882 C878 1.350 . S
C882 C879 1.463 . S
C882 N886 1.427 . S
C883 H873 0.929 . S
C883 C881 1.433 . S
C883 N886 1.384 . S
C884 H875 0.929 . S
C884 C876 1.378 . S
C884 C879 1.350 . S
C885 H872 0.929 . S
C885 C877 1.433 . S
C885 N887 1.384 . S
N886 C882 1.427 . S
N886 C883 1.384 . S
N887 C879 1.427 . S
N887 C885 1.384 . S
H888 C894 0.930 . S
H889 C898 0.930 . S
H890 C903 0.929 . S
H891 C901 0.929 . S
H892 C896 0.929 . S
H893 C902 0.929 . S
C894 H888 0.930 . S
C894 C895 1.367 . S
C894 C902 1.378 . S
C895 C894 1.367 . S
C895 C903 1.433 . S
C896 H892 0.929 . S
C896 C898 1.378 . S
C896 C900 1.350 . S
C897 C900 1.463 . S
C897 C902 1.350 . S
C897 N905 1.427 . S
C898 H889 0.930 . S
C898 C896 1.378 . S
C898 C899 1.367 . S
C899 C898 1.367 . S
C899 C901 1.433 . S
C900 C896 1.350 . S
C900 C897 1.463 . S
C900 N904 1.427 . S
C901 H891 0.929 . S
C901 C899 1.433 . S
C901 N904 1.384 . S
C902 H893 0.929 . S
C902 C894 1.378 . S
C902 C897 1.350 . S
C903 H890 0.929 . S
C903 C895 1.433 . S
C903 N905 1.384 . S
N904 C900 1.427 . S
N904 C901 1.384 . S
N905 C897 1.427 . S
N905 C903 1.384 . S
H906 C912 0.930 . S
H907 C916 0.930 . S
H908 C921 0.929 . S
H909 C919 0.929 . S
H910 C914 0.929 . S
H911 C920 0.929 . S
C912 H906 0.930 . S
C912 C913 1.367 . S
C912 C920 1.378 . S
C913 C912 1.367 . S
C913 C921 1.433 . S
C914 H910 0.929 . S
C914 C916 1.378 . S
C914 C918 1.350 . S
C915 C918 1.463 . S
C915 C920 1.350 . S
C915 N923 1.427 . S
C916 H907 0.930 . S
C916 C914 1.378 . S
C916 C917 1.367 . S
C917 C916 1.367 . S
C917 C919 1.433 . S
C918 C914 1.350 . S
C918 C915 1.463 . S
C918 N922 1.427 . S
C919 H909 0.929 . S
C919 C917 1.433 . S
C919 N922 1.384 . S
C920 H911 0.929 . S
C920 C912 1.378 . S
C920 C915 1.350 . S
C921 H908 0.929 . S
C921 C913 1.433 . S
C921 N923 1.384 . S
N922 C918 1.427 . S
N922 C919 1.384 . S
N923 C915 1.427 . S
N923 C921 1.384 . S
H924 C930 0.930 . S
H925 C934 0.930 . S
H926 C939 0.929 . S
H927 C937 0.929 . S
H928 C932 0.929 . S
H929 C938 0.929 . S
C930 H924 0.930 . S
C930 C931 1.367 . S
C930 C938 1.378 . S
C931 C930 1.367 . S
C931 C939 1.433 . S
C932 H928 0.929 . S
C932 C934 1.378 . S
C932 C936 1.350 . S
C933 C936 1.463 . S
C933 C938 1.350 . S
C933 N941 1.427 . S
C934 H925 0.930 . S
C934 C932 1.378 . S
C934 C935 1.367 . S
C935 C934 1.367 . S
C935 C937 1.433 . S
C936 C932 1.350 . S
C936 C933 1.463 . S
C936 N940 1.427 . S
C937 H927 0.929 . S
C937 C935 1.433 . S
C937 N940 1.384 . S
C938 H929 0.929 . S
C938 C930 1.378 . S
C938 C933 1.350 . S
C939 H926 0.929 . S
C939 C931 1.433 . S
C939 N941 1.384 . S
N940 C936 1.427 . S
N940 C937 1.384 . S
N941 C933 1.427 . S
N941 C939 1.384 . S
H942 C948 0.930 . S
H943 C952 0.930 . S
H944 C957 0.929 . S
H945 C955 0.929 . S
H946 C950 0.929 . S
H947 C956 0.929 . S
C948 H942 0.930 . S
C948 C949 1.367 . S
C948 C956 1.378 . S
C949 C948 1.367 . S
C949 C957 1.433 . S
C950 H946 0.929 . S
C950 C952 1.378 . S
C950 C954 1.350 . S
C951 C954 1.463 . S
C951 C956 1.350 . S
C951 N959 1.427 . S
C952 H943 0.930 . S
C952 C950 1.378 . S
C952 C953 1.367 . S
C953 C952 1.367 . S
C953 C955 1.433 . S
C954 C950 1.350 . S
C954 C951 1.463 . S
C954 N958 1.427 . S
C955 H945 0.929 . S
C955 C953 1.433 . S
C955 N958 1.384 . S
C956 H947 0.929 . S
C956 C948 1.378 . S
C956 C951 1.350 . S
C957 H944 0.929 . S
C957 C949 1.433 . S
C957 N959 1.384 . S
N958 C954 1.427 . S
N958 C955 1.384 . S
N959 C951 1.427 . S
N959 C957 1.384 . S
H960 C966 0.930 . S
H961 C970 0.930 . S
H962 C975 0.929 . S
H963 C973 0.929 . S
H964 C968 0.929 . S
H965 C974 0.929 . S
C966 H960 0.930 . S
C966 C967 1.367 . S
C966 C974 1.378 . S
C967 C966 1.367 . S
C967 C975 1.433 . S
C968 H964 0.929 . S
C968 C970 1.378 . S
C968 C972 1.350 . S
C969 C972 1.463 . S
C969 C974 1.350 . S
C969 N977 1.427 . S
C970 H961 0.930 . S
C970 C968 1.378 . S
C970 C971 1.367 . S
C971 C970 1.367 . S
C971 C973 1.433 . S
C972 C968 1.350 . S
C972 C969 1.463 . S
C972 N976 1.427 . S
C973 H963 0.929 . S
C973 C971 1.433 . S
C973 N976 1.384 . S
C974 H965 0.929 . S
C974 C966 1.378 . S
C974 C969 1.350 . S
C975 H962 0.929 . S
C975 C967 1.433 . S
C975 N977 1.384 . S
N976 C972 1.427 . S
N976 C973 1.384 . S
N977 C969 1.427 . S
N977 C975 1.384 . S
H978 C984 0.930 . S
H979 C988 0.930 . S
H980 C993 0.929 . S
H981 C991 0.929 . S
H982 C986 0.929 . S
H983 C992 0.929 . S
C984 H978 0.930 . S
C984 C985 1.367 . S
C984 C992 1.378 . S
C985 C984 1.367 . S
C985 C993 1.433 . S
C986 H982 0.929 . S
C986 C988 1.378 . S
C986 C990 1.350 . S
C987 C990 1.463 . S
C987 C992 1.350 . S
C987 N995 1.427 . S
C988 H979 0.930 . S
C988 C986 1.378 . S
C988 C989 1.367 . S
C989 C988 1.367 . S
C989 C991 1.433 . S
C990 C986 1.350 . S
C990 C987 1.463 . S
C990 N994 1.427 . S
C991 H981 0.929 . S
C991 C989 1.433 . S
C991 N994 1.384 . S
C992 H983 0.929 . S
C992 C984 1.378 . S
C992 C987 1.350 . S
C993 H980 0.929 . S
C993 C985 1.433 . S
C993 N995 1.384 . S
N994 C990 1.427 . S
N994 C991 1.384 . S
N995 C987 1.427 . S
N995 C993 1.384 . S
H996 C1002 0.930 . S
H997 C1006 0.930 . S
H998 C1011 0.929 . S
H999 C1009 0.929 . S
H1000 C1004 0.929 . S
H1001 C1010 0.929 . S
C1002 H996 0.930 . S
C1002 C1003 1.367 . S
C1002 C1010 1.378 . S
C1003 C1002 1.367 . S
C1003 C1011 1.433 . S
C1004 H1000 0.929 . S
C1004 C1006 1.378 . S
C1004 C1008 1.350 . S
C1005 C1008 1.463 . S
C1005 C1010 1.350 . S
C1005 N1013 1.427 . S
C1006 H997 0.930 . S
C1006 C1004 1.378 . S
C1006 C1007 1.367 . S
C1007 C1006 1.367 . S
C1007 C1009 1.433 . S
C1008 C1004 1.350 . S
C1008 C1005 1.463 . S
C1008 N1012 1.427 . S
C1009 H999 0.929 . S
C1009 C1007 1.433 . S
C1009 N1012 1.384 . S
C1010 H1001 0.929 . S
C1010 C1002 1.378 . S
C1010 C1005 1.350 . S
C1011 H998 0.929 . S
C1011 C1003 1.433 . S
C1011 N1013 1.384 . S
N1012 C1008 1.427 . S
N1012 C1009 1.384 . S
N1013 C1005 1.427 . S
N1013 C1011 1.384 . S
H1014 C1020 0.930 . S
H1015 C1024 0.930 . S
H1016 C1029 0.929 . S
H1017 C1027 0.929 . S
H1018 C1022 0.929 . S
H1019 C1028 0.929 . S
C1020 H1014 0.930 . S
C1020 C1021 1.367 . S
C1020 C1028 1.378 . S
C1021 C1020 1.367 . S
C1021 C1029 1.433 . S
C1022 H1018 0.929 . S
C1022 C1024 1.378 . S
C1022 C1026 1.350 . S
C1023 C1026 1.463 . S
C1023 C1028 1.350 . S
C1023 N1031 1.427 . S
C1024 H1015 0.930 . S
C1024 C1022 1.378 . S
C1024 C1025 1.367 . S
C1025 C1024 1.367 . S
C1025 C1027 1.433 . S
C1026 C1022 1.350 . S
C1026 C1023 1.463 . S
C1026 N1030 1.427 . S
C1027 H1017 0.929 . S
C1027 C1025 1.433 . S
C1027 N1030 1.384 . S
C1028 H1019 0.929 . S
C1028 C1020 1.378 . S
C1028 C1023 1.350 . S
C1029 H1016 0.929 . S
C1029 C1021 1.433 . S
C1029 N1031 1.384 . S
N1030 C1026 1.427 . S
N1030 C1027 1.384 . S
N1031 C1023 1.427 . S
N1031 C1029 1.384 . S
H1032 C1038 0.930 . S
H1033 C1042 0.930 . S
H1034 C1047 0.929 . S
H1035 C1045 0.929 . S
H1036 C1040 0.929 . S
H1037 C1046 0.929 . S
C1038 H1032 0.930 . S
C1038 C1039 1.367 . S
C1038 C1046 1.378 . S
C1039 C1038 1.367 . S
C1039 C1047 1.433 . S
C1040 H1036 0.929 . S
C1040 C1042 1.378 . S
C1040 C1044 1.350 . S
C1041 C1044 1.463 . S
C1041 C1046 1.350 . S
C1041 N1049 1.427 . S
C1042 H1033 0.930 . S
C1042 C1040 1.378 . S
C1042 C1043 1.367 . S
C1043 C1042 1.367 . S
C1043 C1045 1.433 . S
C1044 C1040 1.350 . S
C1044 C1041 1.463 . S
C1044 N1048 1.427 . S
C1045 H1035 0.929 . S
C1045 C1043 1.433 . S
C1045 N1048 1.384 . S
C1046 H1037 0.929 . S
C1046 C1038 1.378 . S
C1046 C1041 1.350 . S
C1047 H1034 0.929 . S
C1047 C1039 1.433 . S
C1047 N1049 1.384 . S
N1048 C1044 1.427 . S
N1048 C1045 1.384 . S
N1049 C1041 1.427 . S
N1049 C1047 1.384 . S
H1050 C1056 0.930 . S
H1051 C1060 0.930 . S
H1052 C1065 0.929 . S
H1053 C1063 0.929 . S
H1054 C1058 0.929 . S
H1055 C1064 0.929 . S
C1056 H1050 0.930 . S
C1056 C1057 1.367 . S
C1056 C1064 1.378 . S
C1057 C1056 1.367 . S
C1057 C1065 1.433 . S
C1058 H1054 0.929 . S
C1058 C1060 1.378 . S
C1058 C1062 1.350 . S
C1059 C1062 1.463 . S
C1059 C1064 1.350 . S
C1059 N1067 1.427 . S
C1060 H1051 0.930 . S
C1060 C1058 1.378 . S
C1060 C1061 1.367 . S
C1061 C1060 1.367 . S
C1061 C1063 1.433 . S
C1062 C1058 1.350 . S
C1062 C1059 1.463 . S
C1062 N1066 1.427 . S
C1063 H1053 0.929 . S
C1063 C1061 1.433 . S
C1063 N1066 1.384 . S
C1064 H1055 0.929 . S
C1064 C1056 1.378 . S
C1064 C1059 1.350 . S
C1065 H1052 0.929 . S
C1065 C1057 1.433 . S
C1065 N1067 1.384 . S
N1066 C1062 1.427 . S
N1066 C1063 1.384 . S
N1067 C1059 1.427 . S
N1067 C1065 1.384 . S
H1068 C1074 0.930 . S
H1069 C1078 0.930 . S
H1070 C1083 0.929 . S
H1071 C1081 0.929 . S
H1072 C1076 0.929 . S
H1073 C1082 0.929 . S
C1074 H1068 0.930 . S
C1074 C1075 1.367 . S
C1074 C1082 1.378 . S
C1075 C1074 1.367 . S
C1075 C1083 1.433 . S
C1076 H1072 0.929 . S
C1076 C1078 1.378 . S
C1076 C1080 1.350 . S
C1077 C1080 1.463 . S
C1077 C1082 1.350 . S
C1077 N1085 1.427 . S
C1078 H1069 0.930 . S
C1078 C1076 1.378 . S
C1078 C1079 1.367 . S
C1079 C1078 1.367 . S
C1079 C1081 1.433 . S
C1080 C1076 1.350 . S
C1080 C1077 1.463 . S
C1080 N1084 1.427 . S
C1081 H1071 0.929 . S
C1081 C1079 1.433 . S
C1081 N1084 1.384 . S
C1082 H1073 0.929 . S
C1082 C1074 1.378 . S
C1082 C1077 1.350 . S
C1083 H1070 0.929 . S
C1083 C1075 1.433 . S
C1083 N1085 1.384 . S
N1084 C1080 1.427 . S
N1084 C1081 1.384 . S
N1085 C1077 1.427 . S
N1085 C1083 1.384 . S
H1086 C1092 0.930 . S
H1087 C1096 0.930 . S
H1088 C1101 0.929 . S
H1089 C1099 0.929 . S
H1090 C1094 0.929 . S
H1091 C1100 0.929 . S
C1092 H1086 0.930 . S
C1092 C1093 1.367 . S
C1092 C1100 1.378 . S
C1093 C1092 1.367 . S
C1093 C1101 1.433 . S
C1094 H1090 0.929 . S
C1094 C1096 1.378 . S
C1094 C1098 1.350 . S
C1095 C1098 1.463 . S
C1095 C1100 1.350 . S
C1095 N1103 1.427 . S
C1096 H1087 0.930 . S
C1096 C1094 1.378 . S
C1096 C1097 1.367 . S
C1097 C1096 1.367 . S
C1097 C1099 1.433 . S
C1098 C1094 1.350 . S
C1098 C1095 1.463 . S
C1098 N1102 1.427 . S
C1099 H1089 0.929 . S
C1099 C1097 1.433 . S
C1099 N1102 1.384 . S
C1100 H1091 0.929 . S
C1100 C1092 1.378 . S
C1100 C1095 1.350 . S
C1101 H1088 0.929 . S
C1101 C1093 1.433 . S
C1101 N1103 1.384 . S
N1102 C1098 1.427 . S
N1102 C1099 1.384 . S
N1103 C1095 1.427 . S
N1103 C1101 1.384 . S
H1104 C1110 0.930 . S
H1105 C1114 0.930 . S
H1106 C1119 0.929 . S
H1107 C1117 0.929 . S
H1108 C1112 0.929 . S
H1109 C1118 0.929 . S
C1110 H1104 0.930 . S
C1110 C1111 1.367 . S
C1110 C1118 1.378 . S
C1111 C1110 1.367 . S
C1111 C1119 1.433 . S
C1112 H1108 0.929 . S
C1112 C1114 1.378 . S
C1112 C1116 1.350 . S
C1113 C1116 1.463 . S
C1113 C1118 1.350 . S
C1113 N1121 1.427 . S
C1114 H1105 0.930 . S
C1114 C1112 1.378 . S
C1114 C1115 1.367 . S
C1115 C1114 1.367 . S
C1115 C1117 1.433 . S
C1116 C1112 1.350 . S
C1116 C1113 1.463 . S
C1116 N1120 1.427 . S
C1117 H1107 0.929 . S
C1117 C1115 1.433 . S
C1117 N1120 1.384 . S
C1118 H1109 0.929 . S
C1118 C1110 1.378 . S
C1118 C1113 1.350 . S
C1119 H1106 0.929 . S
C1119 C1111 1.433 . S
C1119 N1121 1.384 . S
N1120 C1116 1.427 . S
N1120 C1117 1.384 . S
N1121 C1113 1.427 . S
N1121 C1119 1.384 . S
H1122 C1128 0.930 . S
H1123 C1132 0.930 . S
H1124 C1137 0.929 . S
H1125 C1135 0.929 . S
H1126 C1130 0.929 . S
H1127 C1136 0.929 . S
C1128 H1122 0.930 . S
C1128 C1129 1.367 . S
C1128 C1136 1.378 . S
C1129 C1128 1.367 . S
C1129 C1137 1.433 . S
C1130 H1126 0.929 . S
C1130 C1132 1.378 . S
C1130 C1134 1.350 . S
C1131 C1134 1.463 . S
C1131 C1136 1.350 . S
C1131 N1139 1.427 . S
C1132 H1123 0.930 . S
C1132 C1130 1.378 . S
C1132 C1133 1.367 . S
C1133 C1132 1.367 . S
C1133 C1135 1.433 . S
C1134 C1130 1.350 . S
C1134 C1131 1.463 . S
C1134 N1138 1.427 . S
C1135 H1125 0.929 . S
C1135 C1133 1.433 . S
C1135 N1138 1.384 . S
C1136 H1127 0.929 . S
C1136 C1128 1.378 . S
C1136 C1131 1.350 . S
C1137 H1124 0.929 . S
C1137 C1129 1.433 . S
C1137 N1139 1.384 . S
N1138 C1134 1.427 . S
N1138 C1135 1.384 . S
N1139 C1131 1.427 . S
N1139 C1137 1.384 . S
H1140 C1146 0.930 . S
H1141 C1150 0.930 . S
H1142 C1155 0.929 . S
H1143 C1153 0.929 . S
H1144 C1148 0.929 . S
H1145 C1154 0.929 . S
C1146 H1140 0.930 . S
C1146 C1147 1.367 . S
C1146 C1154 1.378 . S
C1147 C1146 1.367 . S
C1147 C1155 1.433 . S
C1148 H1144 0.929 . S
C1148 C1150 1.378 . S
C1148 C1152 1.350 . S
C1149 C1152 1.463 . S
C1149 C1154 1.350 . S
C1149 N1157 1.427 . S
C1150 H1141 0.930 . S
C1150 C1148 1.378 . S
C1150 C1151 1.367 . S
C1151 C1150 1.367 . S
C1151 C1153 1.433 . S
C1152 C1148 1.350 . S
C1152 C1149 1.463 . S
C1152 N1156 1.427 . S
C1153 H1143 0.929 . S
C1153 C1151 1.433 . S
C1153 N1156 1.384 . S
C1154 H1145 0.929 . S
C1154 C1146 1.378 . S
C1154 C1149 1.350 . S
C1155 H1142 0.929 . S
C1155 C1147 1.433 . S
C1155 N1157 1.384 . S
N1156 C1152 1.427 . S
N1156 C1153 1.384 . S
N1157 C1149 1.427 . S
N1157 C1155 1.384 . S
H1158 C1164 0.930 . S
H1159 C1168 0.930 . S
H1160 C1173 0.929 . S
H1161 C1171 0.929 . S
H1162 C1166 0.929 . S
H1163 C1172 0.929 . S
C1164 H1158 0.930 . S
C1164 C1165 1.367 . S
C1164 C1172 1.378 . S
C1165 C1164 1.367 . S
C1165 C1173 1.433 . S
C1166 H1162 0.929 . S
C1166 C1168 1.378 . S
C1166 C1170 1.350 . S
C1167 C1170 1.463 . S
C1167 C1172 1.350 . S
C1167 N1175 1.427 . S
C1168 H1159 0.930 . S
C1168 C1166 1.378 . S
C1168 C1169 1.367 . S
C1169 C1168 1.367 . S
C1169 C1171 1.433 . S
C1170 C1166 1.350 . S
C1170 C1167 1.463 . S
C1170 N1174 1.427 . S
C1171 H1161 0.929 . S
C1171 C1169 1.433 . S
C1171 N1174 1.384 . S
C1172 H1163 0.929 . S
C1172 C1164 1.378 . S
C1172 C1167 1.350 . S
C1173 H1160 0.929 . S
C1173 C1165 1.433 . S
C1173 N1175 1.384 . S
N1174 C1170 1.427 . S
N1174 C1171 1.384 . S
N1175 C1167 1.427 . S
N1175 C1173 1.384 . S
H1176 C1182 0.930 . S
H1177 C1186 0.930 . S
H1178 C1191 0.929 . S
H1179 C1189 0.929 . S
H1180 C1184 0.929 . S
H1181 C1190 0.929 . S
C1182 H1176 0.930 . S
C1182 C1183 1.367 . S
C1182 C1190 1.378 . S
C1183 C1182 1.367 . S
C1183 C1191 1.433 . S
C1184 H1180 0.929 . S
C1184 C1186 1.378 . S
C1184 C1188 1.350 . S
C1185 C1188 1.463 . S
C1185 C1190 1.350 . S
C1185 N1193 1.427 . S
C1186 H1177 0.930 . S
C1186 C1184 1.378 . S
C1186 C1187 1.367 . S
C1187 C1186 1.367 . S
C1187 C1189 1.433 . S
C1188 C1184 1.350 . S
C1188 C1185 1.463 . S
C1188 N1192 1.427 . S
C1189 H1179 0.929 . S
C1189 C1187 1.433 . S
C1189 N1192 1.384 . S
C1190 H1181 0.929 . S
C1190 C1182 1.378 . S
C1190 C1185 1.350 . S
C1191 H1178 0.929 . S
C1191 C1183 1.433 . S
C1191 N1193 1.384 . S
N1192 C1188 1.427 . S
N1192 C1189 1.384 . S
N1193 C1185 1.427 . S
N1193 C1191 1.384 . S
H1194 C1200 0.930 . S
H1195 C1204 0.930 . S
H1196 C1209 0.929 . S
H1197 C1207 0.929 . S
H1198 C1202 0.929 . S
H1199 C1208 0.929 . S
C1200 H1194 0.930 . S
C1200 C1201 1.367 . S
C1200 C1208 1.378 . S
C1201 C1200 1.367 . S
C1201 C1209 1.433 . S
C1202 H1198 0.929 . S
C1202 C1204 1.378 . S
C1202 C1206 1.350 . S
C1203 C1206 1.463 . S
C1203 C1208 1.350 . S
C1203 N1211 1.427 . S
C1204 H1195 0.930 . S
C1204 C1202 1.378 . S
C1204 C1205 1.367 . S
C1205 C1204 1.367 . S
C1205 C1207 1.433 . S
C1206 C1202 1.350 . S
C1206 C1203 1.463 . S
C1206 N1210 1.427 . S
C1207 H1197 0.929 . S
C1207 C1205 1.433 . S
C1207 N1210 1.384 . S
C1208 H1199 0.929 . S
C1208 C1200 1.378 . S
C1208 C1203 1.350 . S
C1209 H1196 0.929 . S
C1209 C1201 1.433 . S
C1209 N1211 1.384 . S
N1210 C1206 1.427 . S
N1210 C1207 1.384 . S
N1211 C1203 1.427 . S
N1211 C1209 1.384 . S
H1212 C1218 0.930 . S
H1213 C1222 0.930 . S
H1214 C1227 0.929 . S
H1215 C1225 0.929 . S
H1216 C1220 0.929 . S
H1217 C1226 0.929 . S
C1218 H1212 0.930 . S
C1218 C1219 1.367 . S
C1218 C1226 1.378 . S
C1219 C1218 1.367 . S
C1219 C1227 1.433 . S
C1220 H1216 0.929 . S
C1220 C1222 1.378 . S
C1220 C1224 1.350 . S
C1221 C1224 1.463 . S
C1221 C1226 1.350 . S
C1221 N1229 1.427 . S
C1222 H1213 0.930 . S
C1222 C1220 1.378 . S
C1222 C1223 1.367 . S
C1223 C1222 1.367 . S
C1223 C1225 1.433 . S
C1224 C1220 1.350 . S
C1224 C1221 1.463 . S
C1224 N1228 1.427 . S
C1225 H1215 0.929 . S
C1225 C1223 1.433 . S
C1225 N1228 1.384 . S
C1226 H1217 0.929 . S
C1226 C1218 1.378 . S
C1226 C1221 1.350 . S
C1227 H1214 0.929 . S
C1227 C1219 1.433 . S
C1227 N1229 1.384 . S
N1228 C1224 1.427 . S
N1228 C1225 1.384 . S
N1229 C1221 1.427 . S
N1229 C1227 1.384 . S
H1230 C1236 0.930 . S
H1231 C1240 0.930 . S
H1232 C1245 0.929 . S
H1233 C1243 0.929 . S
H1234 C1238 0.929 . S
H1235 C1244 0.929 . S
C1236 H1230 0.930 . S
C1236 C1237 1.367 . S
C1236 C1244 1.378 . S
C1237 C1236 1.367 . S
C1237 C1245 1.433 . S
C1238 H1234 0.929 . S
C1238 C1240 1.378 . S
C1238 C1242 1.350 . S
C1239 C1242 1.463 . S
C1239 C1244 1.350 . S
C1239 N1247 1.427 . S
C1240 H1231 0.930 . S
C1240 C1238 1.378 . S
C1240 C1241 1.367 . S
C1241 C1240 1.367 . S
C1241 C1243 1.433 . S
C1242 C1238 1.350 . S
C1242 C1239 1.463 . S
C1242 N1246 1.427 . S
C1243 H1233 0.929 . S
C1243 C1241 1.433 . S
C1243 N1246 1.384 . S
C1244 H1235 0.929 . S
C1244 C1236 1.378 . S
C1244 C1239 1.350 . S
C1245 H1232 0.929 . S
C1245 C1237 1.433 . S
C1245 N1247 1.384 . S
N1246 C1242 1.427 . S
N1246 C1243 1.384 . S
N1247 C1239 1.427 . S
N1247 C1245 1.384 . S
H1248 C1254 0.930 . S
H1249 C1258 0.930 . S
H1250 C1263 0.929 . S
H1251 C1261 0.929 . S
H1252 C1256 0.929 . S
H1253 C1262 0.929 . S
C1254 H1248 0.930 . S
C1254 C1255 1.367 . S
C1254 C1262 1.378 . S
C1255 C1254 1.367 . S
C1255 C1263 1.433 . S
C1256 H1252 0.929 . S
C1256 C1258 1.378 . S
C1256 C1260 1.350 . S
C1257 C1260 1.463 . S
C1257 C1262 1.350 . S
C1257 N1265 1.427 . S
C1258 H1249 0.930 . S
C1258 C1256 1.378 . S
C1258 C1259 1.367 . S
C1259 C1258 1.367 . S
C1259 C1261 1.433 . S
C1260 C1256 1.350 . S
C1260 C1257 1.463 . S
C1260 N1264 1.427 . S
C1261 H1251 0.929 . S
C1261 C1259 1.433 . S
C1261 N1264 1.384 . S
C1262 H1253 0.929 . S
C1262 C1254 1.378 . S
C1262 C1257 1.350 . S
C1263 H1250 0.929 . S
C1263 C1255 1.433 . S
C1263 N1265 1.384 . S
N1264 C1260 1.427 . S
N1264 C1261 1.384 . S
N1265 C1257 1.427 . S
N1265 C1263 1.384 . S
H1266 C1272 0.930 . S
H1267 C1276 0.930 . S
H1268 C1281 0.929 . S
H1269 C1279 0.929 . S
H1270 C1274 0.929 . S
H1271 C1280 0.929 . S
C1272 H1266 0.930 . S
C1272 C1273 1.367 . S
C1272 C1280 1.378 . S
C1273 C1272 1.367 . S
C1273 C1281 1.433 . S
C1274 H1270 0.929 . S
C1274 C1276 1.378 . S
C1274 C1278 1.350 . S
C1275 C1278 1.463 . S
C1275 C1280 1.350 . S
C1275 N1283 1.427 . S
C1276 H1267 0.930 . S
C1276 C1274 1.378 . S
C1276 C1277 1.367 . S
C1277 C1276 1.367 . S
C1277 C1279 1.433 . S
C1278 C1274 1.350 . S
C1278 C1275 1.463 . S
C1278 N1282 1.427 . S
C1279 H1269 0.929 . S
C1279 C1277 1.433 . S
C1279 N1282 1.384 . S
C1280 H1271 0.929 . S
C1280 C1272 1.378 . S
C1280 C1275 1.350 . S
C1281 H1268 0.929 . S
C1281 C1273 1.433 . S
C1281 N1283 1.384 . S
N1282 C1278 1.427 . S
N1282 C1279 1.384 . S
N1283 C1275 1.427 . S
N1283 C1281 1.384 . S
H1284 C1290 0.930 . S
H1285 C1294 0.930 . S
H1286 C1299 0.929 . S
H1287 C1297 0.929 . S
H1288 C1292 0.929 . S
H1289 C1298 0.929 . S
C1290 H1284 0.930 . S
C1290 C1291 1.367 . S
C1290 C1298 1.378 . S
C1291 C1290 1.367 . S
C1291 C1299 1.433 . S
C1292 H1288 0.929 . S
C1292 C1294 1.378 . S
C1292 C1296 1.350 . S
C1293 C1296 1.463 . S
C1293 C1298 1.350 . S
C1293 N1301 1.427 . S
C1294 H1285 0.930 . S
C1294 C1292 1.378 . S
C1294 C1295 1.367 . S
C1295 C1294 1.367 . S
C1295 C1297 1.433 . S
C1296 C1292 1.350 . S
C1296 C1293 1.463 . S
C1296 N1300 1.427 . S
C1297 H1287 0.929 . S
C1297 C1295 1.433 . S
C1297 N1300 1.384 . S
C1298 H1289 0.929 . S
C1298 C1290 1.378 . S
C1298 C1293 1.350 . S
C1299 H1286 0.929 . S
C1299 C1291 1.433 . S
C1299 N1301 1.384 . S
N1300 C1296 1.427 . S
N1300 C1297 1.384 . S
N1301 C1293 1.427 . S
N1301 C1299 1.384 . S
C449 C267 0.785 . S
C445 N6 0.764 . S
C467 C268 2.139 . S
C463 C57 2.259 . S
C485 C262 1.350 . S
C481 C61 1.383 . S
C499 N96 0.531 . S
C503 C261 0.429 . S
C517 C136 2.256 . S
C521 C264 2.135 . S
C539 C266 1.350 . S
C535 C160 1.383 . S
C553 N194 0.521 . S
C557 C265 0.419 . S
C571 N224 0.773 . S
C575 C263 0.788 . S
C593 C298 2.012 . S
C589 C10 1.982 . S
C607 N36 0.906 . S
C611 C329 0.924 . S
C629 C297 0.605 . S
C625 N74 0.648 . S
C647 C332 1.248 . S
C643 C100 1.273 . S
C661 C121 1.494 . S
C665 C295 1.464 . S
C683 C327 1.925 . S
C679 C177 1.912 . S
C697 C196 2.079 . S
C701 C300 2.032 . S
C715 C226 1.953 . S
C719 C334 1.918 . S
C733 C27 1.952 . S
C737 C330 1.914 . S
C751 N134 0.880 . S
C755 C333 0.925 . S
C773 C301 0.632 . S
C769 N156 0.643 . S
C791 C328 1.250 . S
C787 C181 1.284 . S
C805 C211 1.983 . S
C809 C294 2.012 . S
C823 C76 1.911 . S
C827 C331 1.922 . S
C845 C296 2.029 . S
C841 C117 2.079 . S
C859 C40 1.494 . S
C863 C299 1.463 . S
C877 N216 0.800 . S
C881 C366 0.772 . S
C895 C147 1.858 . S
C899 C367 1.751 . S
C917 C361 1.249 . S
C913 C151 1.291 . S
C935 C360 0.596 . S
C931 N186 0.626 . S
C949 C46 1.856 . S
C953 C363 1.745 . S
C971 C365 1.248 . S
C967 C70 1.289 . S
C985 N104 0.610 . S
C989 C364 0.595 . S
C1003 N14 0.803 . S
C1007 C362 0.790 . S
C1021 C220 2.095 . S
C1025 C400 2.030 . S
C1043 C432 0.913 . S
C1039 N126 0.836 . S
C1057 N164 0.536 . S
C1061 C393 0.492 . S
C1075 C190 1.526 . S
C1079 C427 1.514 . S
C1097 C398 1.295 . S
C1093 C31 1.302 . S
C1111 C87 2.097 . S
C1115 C429 2.054 . S
C1133 C395 2.195 . S
C1129 C106 2.271 . S
C1151 C430 1.924 . S
C1147 C16 1.861 . S
C1169 C426 1.921 . S
C1165 C237 1.869 . S
C1183 N44 0.839 . S
C1187 C428 0.913 . S
C1201 N66 0.519 . S
C1205 C397 0.485 . S
C1223 C431 1.511 . S
C1219 C91 1.526 . S
C1237 C1 2.096 . S
C1241 C396 2.027 . S
C1255 C166 2.103 . S
C1259 C433 2.044 . S
C1277 C399 2.193 . S
C1273 C207 2.270 . S
C1295 C394 1.294 . S
C1291 C130 1.308 . S
