# Generated by pormake.
# Topology tsx, (6,3)-cn, num edge types: 1
# Building blocks:
#     Node 0, Type 0, BuildingBlock: CIFDUS_clean_sbu_1, # of connection points: 6
#     Node 1, Type 0, BuildingBlock: CIFDUS_clean_sbu_1, # of connection points: 6
#     Node 2, Type 1, BuildingBlock: WUSLED_clean_sbu_0, # of connection points: 3
#     Node 3, Type 1, BuildingBlock: WUSLED_clean_sbu_0, # of connection points: 3
#     Node 4, Type 1, BuildingBlock: WUSLED_clean_sbu_0, # of connection points: 3
#     Node 5, Type 1, BuildingBlock: WUSLED_clean_sbu_0, # of connection points: 3
#     Edge 6, Type (0, 1), BuildingBlock: EZIPEK_clean_linker_0, # of connection points: 2
#     Edge 7, Type (0, 1), BuildingBlock: EZIPEK_clean_linker_0, # of connection points: 2
#     Edge 8, Type (0, 1), BuildingBlock: EZIPEK_clean_linker_0, # of connection points: 2
#     Edge 9, Type (0, 1), BuildingBlock: EZIPEK_clean_linker_0, # of connection points: 2
#     Edge 10, Type (0, 1), BuildingBlock: EZIPEK_clean_linker_0, # of connection points: 2
#     Edge 11, Type (0, 1), BuildingBlock: EZIPEK_clean_linker_0, # of connection points: 2
#     Edge 12, Type (0, 1), BuildingBlock: EZIPEK_clean_linker_0, # of connection points: 2
#     Edge 13, Type (0, 1), BuildingBlock: EZIPEK_clean_linker_0, # of connection points: 2
#     Edge 14, Type (0, 1), BuildingBlock: EZIPEK_clean_linker_0, # of connection points: 2
#     Edge 15, Type (0, 1), BuildingBlock: EZIPEK_clean_linker_0, # of connection points: 2
#     Edge 16, Type (0, 1), BuildingBlock: EZIPEK_clean_linker_0, # of connection points: 2
#     Edge 17, Type (0, 1), BuildingBlock: EZIPEK_clean_linker_0, # of connection points: 2
# Relax obj value: 0.120
# Max RMSD: 0.152
# Mean RMSD: 0.113
data_MOF--net-tsx--node1-CIFDUS_clean_sbu_1--node2-WUSLED_clean_sbu_0--edge1-EZIPEK_clean_linker_0
_symmetry_space_group_name_H-M    P1
_symmetry_Int_Tables_number       1
_symmetry_cell_setting            triclinic
loop_
_symmetry_equiv_pos_as_xyz
'x, y, z'
_cell_length_a     18.722706
_cell_length_b     22.738869
_cell_length_c     37.64637
_cell_angle_alpha  96.728154
_cell_angle_beta   91.506769
_cell_angle_gamma 90.60622
loop_
_atom_site_label
_atom_site_type_symbol
_atom_site_fract_x
_atom_site_fract_y
_atom_site_fract_z
_atom_type_partial_charge
O0 O 1.00368 0.12607 0.02115 0.0
Mn1 Mn 0.06183 0.04658 0.0128 0.0
O2 O 0.89745 0.10823 0.99381 0.0
Mn3 Mn 0.92489 0.03584 0.97262 0.0
O4 O 0.1227 0.9686 1.00343 0.0
O5 O 0.15135 0.09864 0.02421 0.0
Mn6 Mn 0.204 0.06043 0.05375 0.0
O7 O 0.05039 0.0376 0.06765 0.0
O8 O 0.22899 0.98803 0.03125 0.0
O9 O 0.07619 0.05732 0.95843 0.0
O10 O 0.97099 0.03677 0.93028 0.0
O11 O 0.25734 0.12549 0.04829 0.0
O12 O 0.15645 0.0591 0.09558 0.0
C13 C 0.9121 0.95842 0.99561 0.0
C14 C 0.94092 0.14269 0.01239 0.0
C15 C 0.187 0.95379 0.0112 0.0
C16 C 0.2032 0.13797 0.02853 0.0
C17 C 0.0906 0.046 0.09613 0.0
C18 C 0.03682 0.04956 0.92977 0.0
O19 O 0.97028 0.99205 1.00247 0.0
O20 O 0.86297 0.9769 0.97481 0.0
O21 O 0.50006 0.62516 0.51925 0.0
Mn22 Mn 0.55524 0.54378 0.51383 0.0
O23 O 0.38617 0.60583 0.506 0.0
Mn24 Mn 0.41412 0.53796 0.47989 0.0
O25 O 0.61512 0.46446 0.50603 0.0
O26 O 0.64567 0.59762 0.52423 0.0
Mn27 Mn 0.69052 0.55573 0.55535 0.0
O28 O 0.5385 0.54049 0.56918 0.0
O29 O 0.71954 0.48358 0.53481 0.0
O30 O 0.56802 0.54803 0.4588 0.0
O31 O 0.45554 0.54749 0.43708 0.0
O32 O 0.7514 0.61579 0.55292 0.0
O33 O 0.64398 0.55657 0.59739 0.0
C34 C 0.40628 0.45512 0.49732 0.0
C35 C 0.43512 0.64204 0.51715 0.0
C36 C 0.67913 0.44945 0.51408 0.0
C37 C 0.70302 0.6317 0.53085 0.0
C38 C 0.57719 0.54845 0.59814 0.0
C39 C 0.52253 0.54955 0.43272 0.0
O40 O 0.46459 0.48846 0.50405 0.0
O41 O 0.354 0.47735 0.48019 0.0
C42 C 0.94645 0.14728 0.47955 0.0
C43 C 0.92244 0.17039 0.44838 0.0
C44 C 0.84795 0.24056 0.48377 0.0
C45 C 0.8737 0.21687 0.4505 0.0
C46 C 0.87116 0.21695 0.51484 0.0
C47 C 0.92025 0.1707 0.51274 0.0
U48 U 0.05651 0.03602 0.42286 0.0
O49 O 0.16664 1.00491 0.42872 0.0
O50 O 0.07659 0.94123 0.42557 0.0
C51 C 0.14616 0.94945 0.42909 0.0
C52 C 0.99834 0.09871 0.47744 0.0
C53 C 0.18585 0.91289 0.4527 0.0
C54 C 0.27381 0.90109 0.5002 0.0
C55 C 0.22804 0.93735 0.48242 0.0
C56 C 0.23411 0.81586 0.45949 0.0
C57 C 0.27808 0.84032 0.48827 0.0
C58 C 0.18839 0.85176 0.44197 0.0
C59 C 0.02415 0.04826 0.32013 0.0
C60 C 0.09184 0.01893 0.26677 0.0
C61 C 0.973 0.05873 0.26125 0.0
C62 C 0.96743 0.06424 0.29836 0.0
C63 C 0.03563 0.0371 0.24518 0.0
C64 C 0.08621 0.02451 0.30417 0.0
C65 C 0.01757 0.06215 0.35911 0.0
O66 O 0.97296 0.04712 0.463 0.0
O67 O 0.06139 0.11132 0.46549 0.0
O68 O 0.07301 0.08684 0.37745 0.0
O69 O 0.98285 0.02371 0.37589 0.0
H70 H 0.94194 0.15281 0.42249 0.0
H71 H 0.85676 0.23492 0.42631 0.0
H72 H 0.85231 0.23513 0.54075 0.0
H73 H 0.93831 0.15372 0.53706 0.0
H74 H 0.30756 0.92061 0.52237 0.0
H75 H 0.22744 0.98446 0.4911 0.0
H76 H 0.23682 0.76913 0.44988 0.0
H77 H 0.15703 0.83205 0.41892 0.0
H78 H 0.1407 1.0023 0.25475 0.0
H79 H 0.92936 0.0733 0.24511 0.0
H80 H 0.91937 0.08298 0.31022 0.0
H81 H 0.1307 0.01197 0.32052 0.0
C82 C 0.92451 0.95367 0.54124 0.0
C83 C 0.89463 0.92685 0.5693 0.0
C84 C 0.83306 0.85377 0.52622 0.0
C85 C 0.84929 0.87717 0.56182 0.0
C86 C 0.86095 0.88199 0.4983 0.0
C87 C 0.90687 0.93107 0.50578 0.0
U88 U 0.04013 0.05993 0.60569 0.0
O89 O 0.15096 0.09078 0.60166 0.0
O90 O 0.06423 0.15549 0.60648 0.0
C91 C 0.13319 0.14679 0.60301 0.0
C92 C 0.9759 1.00368 0.54836 0.0
C93 C 0.17333 0.185 0.58091 0.0
C94 C 0.26372 0.19903 0.53701 0.0
C95 C 0.21728 0.16168 0.55304 0.0
C96 C 0.22153 0.28353 0.57557 0.0
C97 C 0.26676 0.26018 0.54848 0.0
C98 C 0.17545 0.24631 0.59162 0.0
C99 C 0.0269 0.03848 0.70662 0.0
C100 C 0.09948 0.08413 0.7573 0.0
C101 C 0.99974 0.01959 0.76699 0.0
C102 C 0.98475 0.01098 0.73024 0.0
C103 C 0.05716 0.05601 0.78082 0.0
C104 C 0.08441 0.07539 0.72027 0.0
C105 C 1.00971 0.02608 0.66806 0.0
O106 O 0.95129 0.05243 0.56578 0.0
O107 O 0.03973 0.99003 0.55994 0.0
O108 O 0.06039 1.00233 0.6478 0.0
O109 O 0.97362 0.06666 0.65339 0.0
H110 H 0.90752 0.94358 0.5969 0.0
H111 H 0.82819 0.85611 0.58377 0.0
H112 H 0.84916 0.86467 0.4707 0.0
H113 H 0.92974 0.95053 0.48375 0.0
H114 H 0.29787 0.18025 0.51595 0.0
H115 H 0.21729 0.11456 0.54434 0.0
H116 H 0.22281 0.33052 0.58473 0.0
H117 H 0.14302 0.26529 0.61337 0.0
H118 H 0.14396 0.11248 0.76761 0.0
H119 H 0.96651 0.99767 0.78472 0.0
H120 H 0.94027 0.98235 0.72019 0.0
H121 H 0.11756 0.09698 0.70237 0.0
C122 C 0.43764 0.6408 0.97902 0.0
C123 C 0.42969 0.67318 0.94957 0.0
C124 C 0.34241 0.73652 0.98135 0.0
C125 C 0.38241 0.72063 0.95072 0.0
C126 C 0.34852 0.7029 0.01024 0.0
C127 C 0.39565 0.65533 0.00901 0.0
U128 U 0.55273 0.53177 0.92474 0.0
O129 O 0.66364 0.50306 0.93139 0.0
O130 O 0.57569 0.43721 0.92667 0.0
C131 C 0.64493 0.44701 0.93083 0.0
C132 C 0.48979 0.59234 0.97844 0.0
C133 C 0.68543 0.41042 0.95408 0.0
C134 C 0.76929 0.39858 1.00331 0.0
C135 C 0.72321 0.43439 0.98537 0.0
C136 C 0.73916 0.31486 0.95935 0.0
C137 C 0.77862 0.33889 0.98985 0.0
C138 C 0.69296 0.35024 0.94172 0.0
C139 C 0.52043 0.55072 0.82246 0.0
C140 C 0.58022 0.51577 0.76756 0.0
C141 C 0.473 0.57431 0.76532 0.0
C142 C 0.46877 0.57747 0.80235 0.0
C143 C 0.529 0.54409 0.7477 0.0
C144 C 0.57604 0.5191 0.80497 0.0
C145 C 0.51482 0.56028 0.86151 0.0
O146 O 0.46625 0.54039 0.96351 0.0
O147 O 0.55416 0.60542 0.96828 0.0
O148 O 0.56967 0.58485 0.88038 0.0
O149 O 0.48141 0.51947 0.87697 0.0
H150 H 0.46098 0.66242 0.92594 0.0
H151 H 0.37855 0.7461 0.92818 0.0
H152 H 0.31817 0.71445 0.0341 0.0
H153 H 0.40008 0.63073 0.03178 0.0
H154 H 0.79921 0.41768 0.02696 0.0
H155 H 0.71866 0.48081 0.99532 0.0
H156 H 0.74541 0.26889 0.94867 0.0
H157 H 0.66491 0.33097 0.91751 0.0
H158 H 0.62403 0.49251 0.75422 0.0
H159 H 0.43345 0.5967 0.75045 0.0
H160 H 0.42572 0.60217 0.81548 0.0
H161 H 0.61649 0.49823 0.82015 0.0
C162 C 0.41905 0.45583 0.04308 0.0
C163 C 0.41964 0.40897 0.06436 0.0
C164 C 0.32223 0.35967 0.02788 0.0
C165 C 0.37157 0.36124 0.05677 0.0
C166 C 0.32021 0.40723 0.0073 0.0
C167 C 0.36818 0.455 0.01493 0.0
U168 U 0.54322 0.5602 0.10459 0.0
O169 O 0.65309 0.59063 0.09717 0.0
O170 O 0.56703 0.65568 0.10516 0.0
C171 C 0.63539 0.64676 0.09969 0.0
C172 C 0.47177 0.5051 0.04922 0.0
C173 C 0.67347 0.68619 0.0776 0.0
C174 C 0.76569 0.70308 0.03517 0.0
C175 C 0.71971 0.66433 0.05038 0.0
C176 C 0.7178 0.78604 0.07296 0.0
C177 C 0.76582 0.76421 0.04675 0.0
C178 C 0.67235 0.74746 0.08825 0.0
C179 C 0.54386 0.54129 0.20624 0.0
C180 C 0.53134 0.59864 0.26464 0.0
C181 C 0.58897 0.50331 0.2602 0.0
C182 C 0.5793 0.49746 0.22303 0.0
C183 C 0.56276 0.5529 0.28136 0.0
C184 C 0.522 0.59297 0.22732 0.0
C185 C 0.52107 0.52781 0.16813 0.0
O186 O 0.44957 0.5538 0.06762 0.0
O187 O 0.53694 0.49089 0.05858 0.0
O188 O 0.56813 0.50245 0.14618 0.0
O189 O 0.48216 0.56732 0.15395 0.0
H190 H 0.45774 0.40892 0.08652 0.0
H191 H 0.37345 0.32507 0.07312 0.0
H192 H 0.28214 0.40696 0.98512 0.0
H193 H 0.36592 0.49108 0.99859 0.0
H194 H 0.80219 0.68532 0.01491 0.0
H195 H 0.72232 0.61727 0.04179 0.0
H196 H 0.71687 0.83294 0.08232 0.0
H197 H 0.63827 0.76535 0.1096 0.0
H198 H 0.51029 0.63701 0.28057 0.0
H199 H 0.61263 0.46729 0.27265 0.0
H200 H 0.59594 0.45695 0.20758 0.0
H201 H 0.49428 0.62754 0.21528 0.0
C202 C 0.17861 0.24522 0.03944 0.0
C203 C 0.20271 0.19698 0.01573 0.0
C204 C 0.29244 0.26076 0.99275 0.0
C205 C 0.2736 0.30738 0.01921 0.0
N206 N 0.1872 0.35052 0.06036 0.0
N207 N 0.26403 0.16207 0.96272 0.0
C208 C 0.21223 0.30182 0.03993 0.0
C209 C 0.25289 0.20647 0.9896 0.0
N210 N 0.12723 0.23531 0.06319 0.0
N211 N 0.35068 0.26714 0.97232 0.0
H212 H 0.23497 0.12227 0.96073 0.0
H213 H 0.29648 0.16636 0.94112 0.0
H214 H 0.38009 0.30658 0.97359 0.0
H215 H 0.37197 0.23283 0.95527 0.0
H216 H 0.1124 0.26614 0.08424 0.0
H217 H 0.10047 0.19462 0.06201 0.0
H218 H 0.13971 0.35086 0.07411 0.0
H219 H 0.21145 0.39223 0.06127 0.0
C220 C 0.29134 0.8985 0.98577 0.0
C221 C 0.21858 0.89669 0.9955 0.0
C222 C 0.22308 0.78791 0.98627 0.0
C223 C 0.2987 0.79125 0.9844 0.0
N224 N 0.40598 0.85207 0.98943 0.0
N225 N 0.11527 0.83742 0.00704 0.0
C226 C 0.33324 0.84719 0.98593 0.0
C227 C 0.18382 0.84075 0.99582 0.0
N228 N 0.32033 0.94933 0.97587 0.0
N229 N 0.1888 0.73446 0.97853 0.0
H230 H 0.08441 0.87435 0.01452 0.0
H231 H 0.0906 0.79772 0.01141 0.0
H232 H 0.21606 0.69522 0.97143 0.0
H233 H 0.13342 0.73002 0.97585 0.0
H234 H 0.37179 0.95152 0.96612 0.0
H235 H 0.28994 0.98691 0.97329 0.0
H236 H 0.43261 0.89281 0.99452 0.0
H237 H 0.43911 0.81582 0.99097 0.0
C238 C 0.90085 0.89009 0.04498 0.0
C239 C 0.89784 0.89931 0.00829 0.0
C240 C 0.81262 0.81602 0.99597 0.0
C241 C 0.817 0.80587 0.03235 0.0
N242 N 0.88367 0.82073 0.08842 0.0
N243 N 0.87217 0.85592 0.94766 0.0
C244 C 0.86764 0.83859 0.0558 0.0
C245 C 0.86131 0.85663 0.98344 0.0
N246 N 0.9295 0.93234 0.07 0.0
N247 N 0.75928 0.79024 0.9738 0.0
H248 H 0.90945 0.884 0.93783 0.0
H249 H 0.85035 0.82343 0.92849 0.0
H250 H 0.72078 0.76174 0.9821 0.0
H251 H 0.74938 0.80172 0.94813 0.0
H252 H 0.92568 0.93062 0.09743 0.0
H253 H 0.95064 0.97167 0.06326 0.0
H254 H 0.92486 0.83988 0.10522 0.0
H255 H 0.8608 0.78287 0.09688 0.0
C256 C 0.85108 0.21339 0.03793 0.0
C257 C 0.91705 0.20478 0.02069 0.0
C258 C 0.90251 0.29889 0.99543 0.0
C259 C 0.83059 0.3005 0.00656 0.0
N260 N 0.73691 0.26336 0.04075 0.0
N261 N 1.01153 0.24223 0.98712 0.0
C262 C 0.8055 0.25958 0.0292 0.0
C263 C 0.9455 0.24939 1.00149 0.0
N264 N 0.83225 0.1762 0.0622 0.0
N265 N 0.9287 0.34406 0.97835 0.0
H266 H 0.04534 0.20818 0.99261 0.0
H267 H 0.03275 0.26883 0.96925 0.0
H268 H 0.89779 0.37991 0.97278 0.0
H269 H 0.98194 0.34858 0.97184 0.0
H270 H 0.78721 0.18154 0.07781 0.0
H271 H 0.866 0.14264 0.06887 0.0
H272 H 0.7121 0.23125 0.05387 0.0
H273 H 0.70356 0.29829 0.03606 0.0
C274 C 0.68264 0.74053 0.52919 0.0
C275 C 0.71716 0.68777 0.51552 0.0
C276 C 0.82383 0.74479 0.50377 0.0
C277 C 0.79038 0.79768 0.51837 0.0
N278 N 0.6814 0.84809 0.53462 0.0
N279 N 0.80851 0.64188 0.4789 0.0
C280 C 0.71728 0.79625 0.52745 0.0
C281 C 0.78334 0.69118 0.4986 0.0
N282 N 0.61955 0.7372 0.54619 0.0
N283 N 0.89543 0.74454 0.49748 0.0
H284 H 0.77906 0.60225 0.47516 0.0
H285 H 0.85404 0.64212 0.46358 0.0
H286 H 0.92804 0.78223 0.50203 0.0
H287 H 0.92384 0.70588 0.49072 0.0
H288 H 0.59548 0.77355 0.56025 0.0
H289 H 0.59333 0.69706 0.54781 0.0
H290 H 0.62648 0.84991 0.53827 0.0
H291 H 0.70564 0.88937 0.53356 0.0
C292 C 0.78584 0.39962 0.4872 0.0
C293 C 0.71339 0.39424 0.49692 0.0
C294 C 0.72545 0.28578 0.48856 0.0
C295 C 0.8006 0.29294 0.48641 0.0
N296 N 0.90379 0.35759 0.48723 0.0
N297 N 0.6116 0.33082 0.50354 0.0
C298 C 0.83119 0.3501 0.48647 0.0
C299 C 0.68198 0.33683 0.49616 0.0
N300 N 0.81074 0.45217 0.47774 0.0
N301 N 0.69573 0.23021 0.48275 0.0
H302 H 0.57661 0.36599 0.50475 0.0
H303 H 0.58799 0.29114 0.50866 0.0
H304 H 0.72628 0.19217 0.47771 0.0
H305 H 0.64094 0.22195 0.48017 0.0
H306 H 0.86142 0.45746 0.46766 0.0
H307 H 0.77753 0.48836 0.47591 0.0
H308 H 0.92876 0.39908 0.49173 0.0
H309 H 0.93925 0.3224 0.48636 0.0
C310 C 0.41798 0.37179 0.53816 0.0
C311 C 0.39487 0.39261 0.50581 0.0
C312 C 0.30105 0.31563 0.49727 0.0
C313 C 0.31661 0.30041 0.53203 0.0
N314 N 0.39458 0.30787 0.58435 0.0
N315 N 0.34358 0.36242 0.4472 0.0
C316 C 0.3775 0.32594 0.55185 0.0
C317 C 0.34579 0.35711 0.48298 0.0
N318 N 0.48058 0.39266 0.5543 0.0
N319 N 0.24085 0.2938 0.47874 0.0
H320 H 0.37919 0.39007 0.43586 0.0
H321 H 0.31311 0.3346 0.42856 0.0
H322 H 0.20598 0.26351 0.48818 0.0
H323 H 0.22249 0.30943 0.45527 0.0
H324 H 0.50568 0.3743 0.57531 0.0
H325 H 0.51089 0.4255 0.5446 0.0
H326 H 0.43276 0.32872 0.60224 0.0
H327 H 0.36863 0.27238 0.594 0.0
C328 C 0.35781 0.72387 0.54194 0.0
C329 C 0.41571 0.70562 0.51997 0.0
C330 C 0.39726 0.79132 0.48678 0.0
C331 C 0.33129 0.80175 0.5039 0.0
N332 N 0.24854 0.78036 0.54865 0.0
N333 N 0.4929 0.72278 0.47162 0.0
C334 C 0.31212 0.76944 0.53227 0.0
C335 C 0.43749 0.74057 0.49308 0.0
N336 N 0.34639 0.69645 0.57172 0.0
N337 N 0.42076 0.82964 0.46408 0.0
H338 H 0.52644 0.68821 0.47634 0.0
H339 H 0.50432 0.74088 0.44823 0.0
H340 H 0.3917 0.86649 0.45844 0.0
H341 H 0.47153 0.82814 0.4534 0.0
H342 H 0.3085 0.70994 0.59061 0.0
H343 H 0.38003 0.66331 0.57909 0.0
H344 H 0.22718 0.75395 0.56662 0.0
H345 H 0.21528 0.81478 0.54295 0.0
C346 C 0.05527 0.09577 0.15513 0.0
C347 C 0.06125 0.04243 0.13195 0.0
C348 C 0.04044 0.98521 0.18218 0.0
C349 C 0.04395 0.03846 0.20603 0.0
N350 N 0.06553 0.14407 0.2159 0.0
N351 N 0.06807 0.93602 0.12349 0.0
C352 C 0.05385 0.09377 0.19267 0.0
C353 C 0.05553 0.98691 0.14541 0.0
N354 N 0.0509 0.14842 0.14107 0.0
N355 N 0.02162 0.93325 0.19457 0.0
H356 H 0.07747 0.93561 0.09625 0.0
H357 H 0.07306 0.89473 0.13263 0.0
H358 H 1.01097 0.93039 0.22138 0.0
H359 H 1.01095 0.89414 0.17787 0.0
H360 H 0.04 0.1885 0.15619 0.0
H361 H 0.05108 0.15095 0.11357 0.0
H362 H 0.08108 0.18443 0.20781 0.0
H363 H 0.06609 0.14448 0.24364 0.0
C364 C 0.04022 0.1111 0.87954 0.0
C365 C 0.06496 0.06061 0.89468 0.0
C366 C 0.1079 0.01881 0.83621 0.0
C367 C 0.07139 0.06382 0.8202 0.0
N368 N 1.004 0.15394 0.82589 0.0
N369 N 0.1256 0.9675 0.88892 0.0
C370 C 0.03912 0.11105 0.84175 0.0
C371 C 0.10123 0.01529 0.87355 0.0
N372 N 0.01712 0.1587 0.90161 0.0
N373 N 0.1482 0.97932 0.81544 0.0
H374 H 0.12389 0.96523 0.91641 0.0
H375 H 0.14511 0.92944 0.87456 0.0
H376 H 0.15345 0.98098 0.78804 0.0
H377 H 0.18085 0.94813 0.82557 0.0
H378 H 1.00374 0.19912 0.893 0.0
H379 H 0.01746 0.15918 0.92935 0.0
H380 H 0.97196 0.18561 0.83959 0.0
H381 H 1.00418 0.15624 0.79838 0.0
C382 C 0.57329 0.60084 0.6598 0.0
C383 C 0.54628 0.55411 0.63463 0.0
C384 C 0.49991 0.50361 0.68372 0.0
C385 C 0.53567 0.54649 0.70867 0.0
N386 N 0.60976 0.63429 0.72108 0.0
N387 N 0.46229 0.47355 0.62188 0.0
C388 C 0.57272 0.595 0.69689 0.0
C389 C 0.50317 0.50884 0.64633 0.0
N390 N 0.59654 0.6521 0.64791 0.0
N391 N 0.46386 0.45771 0.69598 0.0
H392 H 0.45478 0.48371 0.59587 0.0
H393 H 0.42901 0.43939 0.62783 0.0
H394 H 0.45972 0.45348 0.72315 0.0
H395 H 0.44058 0.42225 0.67966 0.0
H396 H 0.61068 0.69029 0.66476 0.0
H397 H 0.59389 0.65847 0.62088 0.0
H398 H 0.645 0.66622 0.71379 0.0
H399 H 0.60964 0.63231 0.74862 0.0
C400 C 0.59021 0.59028 0.38288 0.0
C401 C 0.54537 0.54633 0.39499 0.0
C402 C 0.50903 0.51117 0.33319 0.0
C403 C 0.55753 0.55178 0.32066 0.0
N404 N 0.65316 0.62356 0.33298 0.0
N405 N 0.48075 0.45372 0.38102 0.0
C406 C 0.60106 0.5894 0.34536 0.0
C407 C 0.51084 0.50319 0.36985 0.0
N408 N 0.61964 0.63422 0.40681 0.0
N409 N 0.45876 0.48204 0.31042 0.0
H410 H 0.48411 0.44484 0.40759 0.0
H411 H 0.46002 0.41855 0.36339 0.0
H412 H 0.45383 0.48777 0.28339 0.0
H413 H 0.41723 0.45702 0.31923 0.0
H414 H 0.64604 0.67112 0.39925 0.0
H415 H 0.61387 0.63574 0.43435 0.0
H416 H 0.6913 0.64744 0.34958 0.0
H417 H 0.6616 0.62435 0.30575 0.0
loop_
_geom_bond_atom_site_label_1
_geom_bond_atom_site_label_2
_geom_bond_distance
_geom_bond_site_symmetry_2
_ccdc_geom_bond_type
O0 Mn1 2.163 1_655 S
O0 C14 1.244 1_554 S
Mn1 O0 2.163 1_455 S
Mn1 O4 2.160 1_544 S
Mn1 O5 2.222 . S
Mn1 O7 2.175 . S
Mn1 O9 2.148 1_554 S
Mn1 O19 2.220 1_444 S
O2 Mn3 2.087 . S
O2 C14 1.256 . S
Mn3 O2 2.087 . S
Mn3 O10 2.089 . S
Mn3 O19 2.290 1_545 S
Mn3 O20 2.251 1_545 S
O4 Mn1 2.160 1_566 S
O4 C15 1.239 1_556 S
O5 Mn1 2.222 . S
O5 Mn6 2.290 . S
O5 C16 1.278 . S
Mn6 O5 2.290 . S
Mn6 O8 2.089 1_545 S
Mn6 O11 2.251 . S
Mn6 O12 2.087 . S
O7 Mn1 2.175 . S
O7 C17 1.244 . S
O8 Mn6 2.089 1_565 S
O8 C15 1.256 . S
O9 Mn1 2.148 1_556 S
O9 C18 1.239 . S
O10 Mn3 2.089 . S
O10 C18 1.256 1_655 S
O11 Mn6 2.251 . S
O11 C16 1.241 . S
O12 Mn6 2.087 . S
O12 C17 1.256 . S
C13 O19 1.278 1_554 S
C13 O20 1.241 1_554 S
C14 O0 1.244 1_556 S
C14 O2 1.256 . S
C15 O4 1.239 1_554 S
C15 O8 1.256 . S
C16 O5 1.278 . S
C16 O11 1.241 . S
C17 O7 1.244 . S
C17 O12 1.256 . S
C18 O9 1.239 . S
C18 O10 1.256 1_455 S
O19 Mn1 2.220 1_666 S
O19 Mn3 2.290 1_565 S
O19 C13 1.278 1_556 S
O20 Mn3 2.251 1_565 S
O20 C13 1.241 1_556 S
O21 Mn22 2.163 . S
O21 C35 1.244 . S
Mn22 O21 2.163 . S
Mn22 O25 2.160 . S
Mn22 O26 2.221 . S
Mn22 O28 2.163 . S
Mn22 O30 2.160 . S
Mn22 O40 2.221 . S
O23 Mn24 2.087 . S
O23 C35 1.256 . S
Mn24 O23 2.087 . S
Mn24 O31 2.089 . S
Mn24 O40 2.290 . S
Mn24 O41 2.251 . S
O25 Mn22 2.160 . S
O25 C36 1.239 . S
O26 Mn22 2.221 . S
O26 Mn27 2.290 . S
O26 C37 1.278 . S
Mn27 O26 2.290 . S
Mn27 O29 2.089 . S
Mn27 O32 2.251 . S
Mn27 O33 2.087 . S
O28 Mn22 2.163 . S
O28 C38 1.244 . S
O29 Mn27 2.089 . S
O29 C36 1.256 . S
O30 Mn22 2.160 . S
O30 C39 1.239 . S
O31 Mn24 2.089 . S
O31 C39 1.256 . S
O32 Mn27 2.251 . S
O32 C37 1.241 . S
O33 Mn27 2.087 . S
O33 C38 1.256 . S
C34 O40 1.278 . S
C34 O41 1.241 . S
C35 O21 1.244 . S
C35 O23 1.256 . S
C36 O25 1.239 . S
C36 O29 1.256 . S
C37 O26 1.278 . S
C37 O32 1.241 . S
C38 O28 1.244 . S
C38 O33 1.256 . S
C39 O30 1.239 . S
C39 O31 1.256 . S
O40 Mn22 2.221 . S
O40 Mn24 2.290 . S
O40 C34 1.278 . S
O41 Mn24 2.251 . S
O41 C34 1.241 . S
C42 C43 1.264 . S
C42 C47 1.479 . S
C42 C52 1.465 . S
C43 C42 1.264 . S
C43 C45 1.339 . S
C43 H70 0.931 . S
C44 C45 1.395 . S
C44 C46 1.320 . S
C45 C43 1.339 . S
C45 C44 1.395 . S
C45 H71 0.929 . S
C46 C44 1.320 . S
C46 C47 1.405 . S
C46 H72 0.930 . S
C47 C42 1.479 . S
C47 C46 1.405 . S
C47 H73 0.931 . S
U48 O49 2.454 1_545 S
U48 O50 2.458 1_545 S
U48 C51 2.984 1_545 S
U48 C52 2.847 1_455 S
U48 C65 2.882 . S
U48 O66 2.441 . S
U48 O67 2.420 . S
U48 O68 2.455 1_545 S
U48 O69 2.449 . S
O49 U48 2.454 1_565 S
O49 C51 1.353 . S
O50 U48 2.458 1_565 S
O50 C51 1.286 . S
C51 U48 2.984 1_565 S
C51 O49 1.353 . S
C51 O50 1.286 . S
C51 C53 1.363 . S
C52 C42 1.465 . S
C52 U48 2.847 1_655 S
C52 O66 1.249 1_655 S
C52 O67 1.202 1_655 S
C53 C51 1.363 . S
C53 C55 1.408 . S
C53 C58 1.342 . S
C54 C55 1.310 . S
C54 C57 1.461 . S
C54 H74 0.932 . S
C55 C53 1.408 . S
C55 C54 1.310 . S
C55 H75 0.930 . S
C56 C57 1.474 . S
C56 C58 1.285 . S
C56 H76 0.929 . S
C57 C54 1.461 . S
C57 C56 1.474 . S
C58 C53 1.342 . S
C58 C56 1.285 . S
C58 H77 0.930 . S
C59 C62 1.424 . S
C59 C64 1.245 1_545 S
C59 C65 1.428 . S
C60 C63 1.260 . S
C60 C64 1.477 . S
C60 H78 0.932 . S
C61 C62 1.384 . S
C61 C63 1.479 1_545 S
C61 H79 0.922 1_455 S
C62 C59 1.424 . S
C62 C61 1.384 . S
C62 H80 0.928 . S
C63 C60 1.260 . S
C63 C61 1.479 1_565 S
C64 C59 1.245 1_565 S
C64 C60 1.477 . S
C64 H81 0.932 . S
C65 U48 2.882 . S
C65 C59 1.428 . S
C65 O68 1.301 1_545 S
C65 O69 1.282 . S
O66 U48 2.441 . S
O66 C52 1.249 1_455 S
O67 U48 2.420 . S
O67 C52 1.202 1_455 S
O68 U48 2.455 1_565 S
O68 C65 1.301 1_565 S
O69 U48 2.449 . S
O69 C65 1.282 . S
H70 C43 0.931 . S
H71 C45 0.929 . S
H72 C46 0.930 . S
H73 C47 0.931 . S
H74 C54 0.932 . S
H75 C55 0.930 . S
H76 C56 0.929 . S
H77 C58 0.930 . S
H78 C60 0.932 . S
H79 C61 0.922 1_655 S
H80 C62 0.928 . S
H81 C64 0.932 . S
C82 C83 1.264 . S
C82 C87 1.479 . S
C82 C92 1.465 . S
C83 C82 1.264 . S
C83 C85 1.339 . S
C83 H110 0.931 . S
C84 C85 1.395 . S
C84 C86 1.320 . S
C85 C83 1.339 . S
C85 C84 1.395 . S
C85 H111 0.929 . S
C86 C84 1.320 . S
C86 C87 1.405 . S
C86 H112 0.930 . S
C87 C82 1.479 . S
C87 C86 1.405 . S
C87 H113 0.931 . S
U88 O89 2.454 . S
U88 O90 2.458 . S
U88 C91 2.984 . S
U88 C92 2.847 1_445 S
U88 C105 2.882 . S
U88 O106 2.441 1_455 S
U88 O107 2.420 1_445 S
U88 O108 2.455 . S
U88 O109 2.449 . S
O89 U88 2.454 . S
O89 C91 1.353 . S
O90 U88 2.458 . S
O90 C91 1.286 . S
C91 U88 2.984 . S
C91 O89 1.353 . S
C91 O90 1.286 . S
C91 C93 1.363 . S
C92 C82 1.465 . S
C92 U88 2.847 1_665 S
C92 O106 1.249 1_565 S
C92 O107 1.202 . S
C93 C91 1.363 . S
C93 C95 1.408 . S
C93 C98 1.342 . S
C94 C95 1.310 . S
C94 C97 1.461 . S
C94 H114 0.932 . S
C95 C93 1.408 . S
C95 C94 1.310 . S
C95 H115 0.930 . S
C96 C97 1.474 . S
C96 C98 1.285 . S
C96 H116 0.929 . S
C97 C94 1.461 . S
C97 C96 1.474 . S
C98 C93 1.342 . S
C98 C96 1.285 . S
C98 H117 0.930 . S
C99 C102 1.424 1_455 S
C99 C104 1.245 . S
C99 C105 1.428 . S
C100 C103 1.260 . S
C100 C104 1.477 . S
C100 H118 0.932 . S
C101 C102 1.384 . S
C101 C103 1.479 1_655 S
C101 H119 0.929 . S
C102 C99 1.424 1_655 S
C102 C101 1.384 . S
C102 H120 0.928 . S
C103 C100 1.260 . S
C103 C101 1.479 1_455 S
C104 C99 1.245 . S
C104 C100 1.477 . S
C104 H121 0.932 . S
C105 U88 2.882 . S
C105 C99 1.428 . S
C105 O108 1.301 . S
C105 O109 1.282 . S
O106 U88 2.441 1_655 S
O106 C92 1.249 1_545 S
O107 U88 2.420 1_665 S
O107 C92 1.202 . S
O108 U88 2.455 . S
O108 C105 1.301 . S
O109 U88 2.449 . S
O109 C105 1.282 . S
H110 C83 0.931 . S
H111 C85 0.929 . S
H112 C86 0.930 . S
H113 C87 0.931 . S
H114 C94 0.932 . S
H115 C95 0.930 . S
H116 C96 0.929 . S
H117 C98 0.930 . S
H118 C100 0.932 . S
H119 C101 0.929 . S
H120 C102 0.928 . S
H121 C104 0.932 . S
C122 C123 1.264 . S
C122 C127 1.479 1_556 S
C122 C132 1.465 . S
C123 C122 1.264 . S
C123 C125 1.339 . S
C123 H150 0.931 . S
C124 C125 1.395 1_554 S
C124 C126 1.320 . S
C125 C123 1.339 . S
C125 C124 1.395 1_556 S
C125 H151 0.929 . S
C126 C124 1.320 . S
C126 C127 1.405 . S
C126 H152 0.930 . S
C127 C122 1.479 1_554 S
C127 C126 1.405 . S
C127 H153 0.931 . S
U128 O129 2.454 . S
U128 O130 2.458 . S
U128 C131 2.984 . S
U128 C132 2.847 . S
U128 C145 2.882 . S
U128 O146 2.441 . S
U128 O147 2.420 . S
U128 O148 2.455 . S
U128 O149 2.449 . S
O129 U128 2.454 . S
O129 C131 1.353 . S
O130 U128 2.458 . S
O130 C131 1.286 . S
C131 U128 2.984 . S
C131 O129 1.353 . S
C131 O130 1.286 . S
C131 C133 1.363 . S
C132 C122 1.465 . S
C132 U128 2.847 . S
C132 O146 1.249 . S
C132 O147 1.202 . S
C133 C131 1.363 . S
C133 C135 1.408 1_556 S
C133 C138 1.342 . S
C134 C135 1.310 . S
C134 C137 1.451 1_554 S
C134 H154 0.932 . S
C135 C133 1.408 1_554 S
C135 C134 1.310 . S
C135 H155 0.930 . S
C136 C137 1.495 . S
C136 C138 1.285 . S
C136 H156 0.929 . S
C137 C134 1.451 1_556 S
C137 C136 1.495 . S
C138 C133 1.342 . S
C138 C136 1.285 . S
C138 H157 0.930 . S
C139 C142 1.424 . S
C139 C144 1.245 . S
C139 C145 1.428 . S
C140 C143 1.260 . S
C140 C144 1.477 . S
C140 H158 0.932 . S
C141 C142 1.384 . S
C141 C143 1.479 . S
C141 H159 0.929 . S
C142 C139 1.424 . S
C142 C141 1.384 . S
C142 H160 0.928 . S
C143 C140 1.260 . S
C143 C141 1.479 . S
C144 C139 1.245 . S
C144 C140 1.477 . S
C144 H161 0.932 . S
C145 U128 2.882 . S
C145 C139 1.428 . S
C145 O148 1.301 . S
C145 O149 1.282 . S
O146 U128 2.441 . S
O146 C132 1.249 . S
O147 U128 2.420 . S
O147 C132 1.202 . S
O148 U128 2.455 . S
O148 C145 1.301 . S
O149 U128 2.449 . S
O149 C145 1.282 . S
H150 C123 0.931 . S
H151 C125 0.929 . S
H152 C126 0.930 . S
H153 C127 0.931 . S
H154 C134 0.932 . S
H155 C135 0.930 . S
H156 C136 0.929 . S
H157 C138 0.930 . S
H158 C140 0.932 . S
H159 C141 0.929 . S
H160 C142 0.928 . S
H161 C144 0.932 . S
C162 C163 1.264 . S
C162 C167 1.479 1_554 S
C162 C172 1.465 . S
C163 C162 1.264 . S
C163 C165 1.339 . S
C163 H190 0.931 . S
C164 C165 1.370 1_556 S
C164 C166 1.336 . S
C165 C163 1.339 . S
C165 C164 1.370 1_554 S
C165 H191 0.929 . S
C166 C164 1.336 . S
C166 C167 1.405 . S
C166 H192 0.930 . S
C167 C162 1.479 1_556 S
C167 C166 1.405 . S
C167 H193 0.931 . S
U168 O169 2.454 . S
U168 O170 2.458 . S
U168 C171 2.984 . S
U168 C172 2.847 . S
U168 C185 2.882 . S
U168 O186 2.441 . S
U168 O187 2.420 . S
U168 O188 2.455 . S
U168 O189 2.449 . S
O169 U168 2.454 . S
O169 C171 1.353 . S
O170 U168 2.458 . S
O170 C171 1.286 . S
C171 U168 2.984 . S
C171 O169 1.353 . S
C171 O170 1.286 . S
C171 C173 1.363 . S
C172 C162 1.465 . S
C172 U168 2.847 . S
C172 O186 1.249 . S
C172 O187 1.202 . S
C173 C171 1.363 . S
C173 C175 1.408 . S
C173 C178 1.342 . S
C174 C175 1.310 1_556 S
C174 C177 1.461 1_556 S
C174 H194 0.932 . S
C175 C173 1.408 . S
C175 C174 1.310 1_554 S
C175 H195 0.930 1_554 S
C176 C177 1.474 . S
C176 C178 1.285 . S
C176 H196 0.929 . S
C177 C174 1.461 1_554 S
C177 C176 1.474 . S
C178 C173 1.342 . S
C178 C176 1.285 . S
C178 H197 0.930 . S
C179 C182 1.424 . S
C179 C184 1.245 . S
C179 C185 1.428 . S
C180 C183 1.260 . S
C180 C184 1.477 . S
C180 H198 0.932 . S
C181 C182 1.384 . S
C181 C183 1.479 . S
C181 H199 0.929 . S
C182 C179 1.424 . S
C182 C181 1.384 . S
C182 H200 0.928 . S
C183 C180 1.260 . S
C183 C181 1.479 . S
C184 C179 1.245 . S
C184 C180 1.477 . S
C184 H201 0.932 . S
C185 U168 2.882 . S
C185 C179 1.428 . S
C185 O188 1.301 . S
C185 O189 1.282 . S
O186 U168 2.441 . S
O186 C172 1.249 . S
O187 U168 2.420 . S
O187 C172 1.202 . S
O188 U168 2.455 . S
O188 C185 1.301 . S
O189 U168 2.449 . S
O189 C185 1.282 . S
H190 C163 0.931 . S
H191 C165 0.929 . S
H192 C166 0.930 . S
H193 C167 0.931 . S
H194 C174 0.932 . S
H195 C175 0.930 1_556 S
H196 C176 0.929 . S
H197 C178 0.930 . S
H198 C180 0.932 . S
H199 C181 0.929 . S
H200 C182 0.928 . S
H201 C184 0.932 . S
C202 C203 1.363 . S
C202 C208 1.379 . S
C202 N210 1.356 . S
C203 C202 1.363 . S
C203 C209 1.363 1_554 S
C204 C205 1.363 . S
C204 C209 1.379 . S
C204 N211 1.356 . S
C205 C204 1.363 . S
C205 C208 1.363 1_556 S
N206 C208 1.356 . S
N206 H218 0.984 . S
N206 H219 0.985 . S
N207 C209 1.356 . S
N207 H212 0.984 . S
N207 H213 0.985 . S
C208 C202 1.379 . S
C208 C205 1.363 1_554 S
C208 N206 1.356 . S
C209 C203 1.363 1_556 S
C209 C204 1.379 . S
C209 N207 1.356 . S
N210 C202 1.356 . S
N210 H216 0.984 . S
N210 H217 0.984 . S
N211 C204 1.356 . S
N211 H214 0.984 . S
N211 H215 0.985 . S
H212 N207 0.984 . S
H213 N207 0.985 . S
H214 N211 0.984 . S
H215 N211 0.985 . S
H216 N210 0.984 . S
H217 N210 0.984 . S
H218 N206 0.984 . S
H219 N206 0.985 . S
C220 C221 1.363 . S
C220 C226 1.379 . S
C220 N228 1.356 . S
C221 C220 1.363 . S
C221 C227 1.363 1_554 S
C222 C223 1.363 1_556 S
C222 C227 1.379 . S
C222 N229 1.356 . S
C223 C222 1.363 1_554 S
C223 C226 1.363 . S
N224 C226 1.356 . S
N224 H236 0.984 . S
N224 H237 0.985 . S
N225 C227 1.356 . S
N225 H230 0.984 . S
N225 H231 0.985 . S
C226 C220 1.379 . S
C226 C223 1.363 . S
C226 N224 1.356 . S
C227 C221 1.363 1_556 S
C227 C222 1.379 . S
C227 N225 1.356 . S
N228 C220 1.356 . S
N228 H234 0.984 . S
N228 H235 0.984 . S
N229 C222 1.356 . S
N229 H232 0.984 . S
N229 H233 0.985 . S
H230 N225 0.984 . S
H231 N225 0.985 . S
H232 N229 0.984 . S
H233 N229 0.985 . S
H234 N228 0.984 . S
H235 N228 0.984 . S
H236 N224 0.984 . S
H237 N224 0.985 . S
C238 C239 1.363 . S
C238 C244 1.379 . S
C238 N246 1.356 . S
C239 C238 1.363 . S
C239 C245 1.363 1_554 S
C240 C241 1.363 1_556 S
C240 C245 1.379 . S
C240 N247 1.356 . S
C241 C240 1.363 1_554 S
C241 C244 1.363 . S
N242 C244 1.356 . S
N242 H254 0.984 . S
N242 H255 0.985 . S
N243 C245 1.356 . S
N243 H248 0.984 . S
N243 H249 0.985 . S
C244 C238 1.379 . S
C244 C241 1.363 . S
C244 N242 1.356 . S
C245 C239 1.363 1_556 S
C245 C240 1.379 . S
C245 N243 1.356 . S
N246 C238 1.356 . S
N246 H252 0.984 . S
N246 H253 0.984 . S
N247 C240 1.356 . S
N247 H250 0.984 . S
N247 H251 0.985 . S
H248 N243 0.984 . S
H249 N243 0.985 . S
H250 N247 0.984 . S
H251 N247 0.985 . S
H252 N246 0.984 . S
H253 N246 0.984 . S
H254 N242 0.984 . S
H255 N242 0.985 . S
C256 C257 1.363 . S
C256 C262 1.379 . S
C256 N264 1.356 . S
C257 C256 1.363 . S
C257 C263 1.363 1_554 S
C258 C259 1.363 1_556 S
C258 C263 1.379 . S
C258 N265 1.356 . S
C259 C258 1.363 1_554 S
C259 C262 1.363 . S
N260 C262 1.356 . S
N260 H272 0.984 . S
N260 H273 0.985 . S
N261 C263 1.356 . S
N261 H266 0.984 . S
N261 H267 0.985 . S
C262 C256 1.379 . S
C262 C259 1.363 . S
C262 N260 1.356 . S
C263 C257 1.363 1_556 S
C263 C258 1.379 . S
C263 N261 1.356 . S
N264 C256 1.356 . S
N264 H270 0.984 . S
N264 H271 0.984 . S
N265 C258 1.356 . S
N265 H268 0.984 . S
N265 H269 0.985 . S
H266 N261 0.984 . S
H267 N261 0.985 . S
H268 N265 0.984 . S
H269 N265 0.985 . S
H270 N264 0.984 . S
H271 N264 0.984 . S
H272 N260 0.984 . S
H273 N260 0.985 . S
C274 C275 1.363 . S
C274 C280 1.379 . S
C274 N282 1.356 . S
C275 C274 1.363 . S
C275 C281 1.363 . S
C276 C277 1.363 . S
C276 C281 1.379 . S
C276 N283 1.356 . S
C277 C276 1.363 . S
C277 C280 1.363 . S
N278 C280 1.356 . S
N278 H290 0.984 . S
N278 H291 0.985 . S
N279 C281 1.356 . S
N279 H284 0.984 . S
N279 H285 0.985 . S
C280 C274 1.379 . S
C280 C277 1.363 . S
C280 N278 1.356 . S
C281 C275 1.363 . S
C281 C276 1.379 . S
C281 N279 1.356 . S
N282 C274 1.356 . S
N282 H288 0.984 . S
N282 H289 0.984 . S
N283 C276 1.356 . S
N283 H286 0.984 . S
N283 H287 0.985 . S
H284 N279 0.984 . S
H285 N279 0.985 . S
H286 N283 0.984 . S
H287 N283 0.985 . S
H288 N282 0.984 . S
H289 N282 0.984 . S
H290 N278 0.984 . S
H291 N278 0.985 . S
C292 C293 1.363 . S
C292 C298 1.379 . S
C292 N300 1.356 . S
C293 C292 1.363 . S
C293 C299 1.363 . S
C294 C295 1.363 . S
C294 C299 1.379 . S
C294 N301 1.356 . S
C295 C294 1.363 . S
C295 C298 1.363 . S
N296 C298 1.356 . S
N296 H308 0.984 . S
N296 H309 0.985 . S
N297 C299 1.356 . S
N297 H302 0.984 . S
N297 H303 0.985 . S
C298 C292 1.379 . S
C298 C295 1.363 . S
C298 N296 1.356 . S
C299 C293 1.363 . S
C299 C294 1.379 . S
C299 N297 1.356 . S
N300 C292 1.356 . S
N300 H306 0.984 . S
N300 H307 0.984 . S
N301 C294 1.356 . S
N301 H304 0.984 . S
N301 H305 0.985 . S
H302 N297 0.984 . S
H303 N297 0.985 . S
H304 N301 0.984 . S
H305 N301 0.985 . S
H306 N300 0.984 . S
H307 N300 0.984 . S
H308 N296 0.984 . S
H309 N296 0.985 . S
C310 C311 1.363 . S
C310 C316 1.379 . S
C310 N318 1.356 . S
C311 C310 1.363 . S
C311 C317 1.363 . S
C312 C313 1.363 . S
C312 C317 1.379 . S
C312 N319 1.356 . S
C313 C312 1.363 . S
C313 C316 1.363 . S
N314 C316 1.356 . S
N314 H326 0.984 . S
N314 H327 0.985 . S
N315 C317 1.356 . S
N315 H320 0.984 . S
N315 H321 0.985 . S
C316 C310 1.379 . S
C316 C313 1.363 . S
C316 N314 1.356 . S
C317 C311 1.363 . S
C317 C312 1.379 . S
C317 N315 1.356 . S
N318 C310 1.356 . S
N318 H324 0.984 . S
N318 H325 0.984 . S
N319 C312 1.356 . S
N319 H322 0.984 . S
N319 H323 0.985 . S
H320 N315 0.984 . S
H321 N315 0.985 . S
H322 N319 0.984 . S
H323 N319 0.985 . S
H324 N318 0.984 . S
H325 N318 0.984 . S
H326 N314 0.984 . S
H327 N314 0.985 . S
C328 C329 1.363 . S
C328 C334 1.379 . S
C328 N336 1.356 . S
C329 C328 1.363 . S
C329 C335 1.363 . S
C330 C331 1.363 . S
C330 C335 1.379 . S
C330 N337 1.356 . S
C331 C330 1.363 . S
C331 C334 1.363 . S
N332 C334 1.356 . S
N332 H344 0.984 . S
N332 H345 0.985 . S
N333 C335 1.356 . S
N333 H338 0.984 . S
N333 H339 0.985 . S
C334 C328 1.379 . S
C334 C331 1.363 . S
C334 N332 1.356 . S
C335 C329 1.363 . S
C335 C330 1.379 . S
C335 N333 1.356 . S
N336 C328 1.356 . S
N336 H342 0.984 . S
N336 H343 0.984 . S
N337 C330 1.356 . S
N337 H340 0.984 . S
N337 H341 0.985 . S
H338 N333 0.984 . S
H339 N333 0.985 . S
H340 N337 0.984 . S
H341 N337 0.985 . S
H342 N336 0.984 . S
H343 N336 0.984 . S
H344 N332 0.984 . S
H345 N332 0.985 . S
C346 C347 1.363 . S
C346 C352 1.379 . S
C346 N354 1.356 . S
C347 C346 1.363 . S
C347 C353 1.363 1_545 S
C348 C349 1.363 . S
C348 C353 1.379 . S
C348 N355 1.356 . S
C349 C348 1.363 . S
C349 C352 1.363 1_565 S
N350 C352 1.356 . S
N350 H362 0.984 . S
N350 H363 0.985 . S
N351 C353 1.356 . S
N351 H356 0.984 . S
N351 H357 0.985 1_455 S
C352 C346 1.379 . S
C352 C349 1.363 1_545 S
C352 N350 1.356 . S
C353 C347 1.363 1_565 S
C353 C348 1.379 . S
C353 N351 1.356 . S
N354 C346 1.356 . S
N354 H360 0.984 . S
N354 H361 0.984 . S
N355 C348 1.356 . S
N355 H358 0.984 . S
N355 H359 0.985 1_455 S
H356 N351 0.984 . S
H357 N351 0.985 1_655 S
H358 N355 0.984 . S
H359 N355 0.985 1_655 S
H360 N354 0.984 . S
H361 N354 0.984 . S
H362 N350 0.984 . S
H363 N350 0.985 . S
C364 C365 1.363 . S
C364 C370 1.379 1_455 S
C364 N372 1.356 1_455 S
C365 C364 1.363 . S
C365 C371 1.363 . S
C366 C367 1.363 . S
C366 C371 1.379 . S
C366 N373 1.356 . S
C367 C366 1.363 . S
C367 C370 1.363 1_455 S
N368 C370 1.356 . S
N368 H380 0.984 . S
N368 H381 0.985 . S
N369 C371 1.356 1_565 S
N369 H374 0.984 . S
N369 H375 0.985 . S
C370 C364 1.379 1_655 S
C370 C367 1.363 1_655 S
C370 N368 1.356 . S
C371 C365 1.363 . S
C371 C366 1.379 . S
C371 N369 1.356 1_545 S
N372 C364 1.356 1_655 S
N372 H378 0.984 . S
N372 H379 0.985 . S
N373 C366 1.356 . S
N373 H376 0.984 . S
N373 H377 0.985 1_545 S
H374 N369 0.984 . S
H375 N369 0.985 . S
H376 N373 0.984 . S
H377 N373 0.985 1_565 S
H378 N372 0.984 . S
H379 N372 0.985 . S
H380 N368 0.984 . S
H381 N368 0.985 . S
C382 C383 1.363 . S
C382 C388 1.379 . S
C382 N390 1.356 . S
C383 C382 1.363 . S
C383 C389 1.363 . S
C384 C385 1.363 . S
C384 C389 1.379 . S
C384 N391 1.356 . S
C385 C384 1.363 . S
C385 C388 1.363 . S
N386 C388 1.356 . S
N386 H398 0.984 . S
N386 H399 0.985 . S
N387 C389 1.356 . S
N387 H392 0.984 . S
N387 H393 0.985 . S
C388 C382 1.379 . S
C388 C385 1.363 . S
C388 N386 1.356 . S
C389 C383 1.363 . S
C389 C384 1.379 . S
C389 N387 1.356 . S
N390 C382 1.356 . S
N390 H396 0.984 . S
N390 H397 0.984 . S
N391 C384 1.356 . S
N391 H394 0.984 . S
N391 H395 0.985 . S
H392 N387 0.984 . S
H393 N387 0.985 . S
H394 N391 0.984 . S
H395 N391 0.985 . S
H396 N390 0.984 . S
H397 N390 0.984 . S
H398 N386 0.984 . S
H399 N386 0.985 . S
C400 C401 1.363 . S
C400 C406 1.379 . S
C400 N408 1.356 . S
C401 C400 1.363 . S
C401 C407 1.363 . S
C402 C403 1.363 . S
C402 C407 1.379 . S
C402 N409 1.356 . S
C403 C402 1.363 . S
C403 C406 1.363 . S
N404 C406 1.356 . S
N404 H416 0.984 . S
N404 H417 0.985 . S
N405 C407 1.356 . S
N405 H410 0.984 . S
N405 H411 0.985 . S
C406 C400 1.379 . S
C406 C403 1.363 . S
C406 N404 1.356 . S
C407 C401 1.363 . S
C407 C402 1.379 . S
C407 N405 1.356 . S
N408 C400 1.356 . S
N408 H414 0.984 . S
N408 H415 0.984 . S
N409 C402 1.356 . S
N409 H412 0.984 . S
N409 H413 0.985 . S
H410 N405 0.984 . S
H411 N405 0.985 . S
H412 N409 0.984 . S
H413 N409 0.985 . S
H414 N408 0.984 . S
H415 N408 0.984 . S
H416 N404 0.984 . S
H417 N404 0.985 . S
C205 C164 1.613 . S
C203 C16 1.614 . S
C221 C15 1.684 . S
C223 C124 1.648 . S
C239 C13 1.334 . S
C241 C177 1.578 . S
C257 C14 1.471 1_554 S
C259 C137 1.474 1_554 S
C275 C37 1.614 . S
C277 C84 1.614 . S
C293 C36 1.684 . S
C295 C44 1.648 . S
C313 C97 1.578 . S
C311 C34 1.334 . S
C331 C57 1.480 . S
C329 C35 1.471 . S
C347 C17 1.526 . S
C349 C63 1.542 . S
C365 C18 1.414 . S
C367 C103 1.427 . S
C385 C143 1.542 . S
C383 C38 1.526 . S
C401 C39 1.414 . S
C403 C183 1.427 . S
