# Generated by pormake.
# Topology ctn, (3,4)-cn, num edge types: 1
# Building blocks:
#     Node 0, Type 0, BuildingBlock: OLANEW_clean_sbu_2, # of connection points: 3
#     Node 1, Type 0, BuildingBlock: OLANEW_clean_sbu_2, # of connection points: 3
#     Node 2, Type 0, BuildingBlock: OLANEW_clean_sbu_2, # of connection points: 3
#     Node 3, Type 0, BuildingBlock: OLANEW_clean_sbu_2, # of connection points: 3
#     Node 4, Type 0, BuildingBlock: OLANEW_clean_sbu_2, # of connection points: 3
#     Node 5, Type 0, BuildingBlock: OLANEW_clean_sbu_2, # of connection points: 3
#     Node 6, Type 0, BuildingBlock: OLANEW_clean_sbu_2, # of connection points: 3
#     Node 7, Type 0, BuildingBlock: OLANEW_clean_sbu_2, # of connection points: 3
#     Node 8, Type 0, BuildingBlock: OLANEW_clean_sbu_2, # of connection points: 3
#     Node 9, Type 0, BuildingBlock: OLANEW_clean_sbu_2, # of connection points: 3
#     Node 10, Type 0, BuildingBlock: OLANEW_clean_sbu_2, # of connection points: 3
#     Node 11, Type 0, BuildingBlock: OLANEW_clean_sbu_2, # of connection points: 3
#     Node 12, Type 0, BuildingBlock: OLANEW_clean_sbu_2, # of connection points: 3
#     Node 13, Type 0, BuildingBlock: OLANEW_clean_sbu_2, # of connection points: 3
#     Node 14, Type 0, BuildingBlock: OLANEW_clean_sbu_2, # of connection points: 3
#     Node 15, Type 0, BuildingBlock: OLANEW_clean_sbu_2, # of connection points: 3
#     Node 16, Type 1, BuildingBlock: NAHDIM_clean_sbu_0, # of connection points: 4
#     Node 17, Type 1, BuildingBlock: NAHDIM_clean_sbu_0, # of connection points: 4
#     Node 18, Type 1, BuildingBlock: NAHDIM_clean_sbu_0, # of connection points: 4
#     Node 19, Type 1, BuildingBlock: NAHDIM_clean_sbu_0, # of connection points: 4
#     Node 20, Type 1, BuildingBlock: NAHDIM_clean_sbu_0, # of connection points: 4
#     Node 21, Type 1, BuildingBlock: NAHDIM_clean_sbu_0, # of connection points: 4
#     Node 22, Type 1, BuildingBlock: NAHDIM_clean_sbu_0, # of connection points: 4
#     Node 23, Type 1, BuildingBlock: NAHDIM_clean_sbu_0, # of connection points: 4
#     Node 24, Type 1, BuildingBlock: NAHDIM_clean_sbu_0, # of connection points: 4
#     Node 25, Type 1, BuildingBlock: NAHDIM_clean_sbu_0, # of connection points: 4
#     Node 26, Type 1, BuildingBlock: NAHDIM_clean_sbu_0, # of connection points: 4
#     Node 27, Type 1, BuildingBlock: NAHDIM_clean_sbu_0, # of connection points: 4
#     Edge 28, Type (0, 1), BuildingBlock: XIVTED_clean_linker_0, # of connection points: 2
#     Edge 29, Type (0, 1), BuildingBlock: XIVTED_clean_linker_0, # of connection points: 2
#     Edge 30, Type (0, 1), BuildingBlock: XIVTED_clean_linker_0, # of connection points: 2
#     Edge 31, Type (0, 1), BuildingBlock: XIVTED_clean_linker_0, # of connection points: 2
#     Edge 32, Type (0, 1), BuildingBlock: XIVTED_clean_linker_0, # of connection points: 2
#     Edge 33, Type (0, 1), BuildingBlock: XIVTED_clean_linker_0, # of connection points: 2
#     Edge 34, Type (0, 1), BuildingBlock: XIVTED_clean_linker_0, # of connection points: 2
#     Edge 35, Type (0, 1), BuildingBlock: XIVTED_clean_linker_0, # of connection points: 2
#     Edge 36, Type (0, 1), BuildingBlock: XIVTED_clean_linker_0, # of connection points: 2
#     Edge 37, Type (0, 1), BuildingBlock: XIVTED_clean_linker_0, # of connection points: 2
#     Edge 38, Type (0, 1), BuildingBlock: XIVTED_clean_linker_0, # of connection points: 2
#     Edge 39, Type (0, 1), BuildingBlock: XIVTED_clean_linker_0, # of connection points: 2
#     Edge 40, Type (0, 1), BuildingBlock: XIVTED_clean_linker_0, # of connection points: 2
#     Edge 41, Type (0, 1), BuildingBlock: XIVTED_clean_linker_0, # of connection points: 2
#     Edge 42, Type (0, 1), BuildingBlock: XIVTED_clean_linker_0, # of connection points: 2
#     Edge 43, Type (0, 1), BuildingBlock: XIVTED_clean_linker_0, # of connection points: 2
#     Edge 44, Type (0, 1), BuildingBlock: XIVTED_clean_linker_0, # of connection points: 2
#     Edge 45, Type (0, 1), BuildingBlock: XIVTED_clean_linker_0, # of connection points: 2
#     Edge 46, Type (0, 1), BuildingBlock: XIVTED_clean_linker_0, # of connection points: 2
#     Edge 47, Type (0, 1), BuildingBlock: XIVTED_clean_linker_0, # of connection points: 2
#     Edge 48, Type (0, 1), BuildingBlock: XIVTED_clean_linker_0, # of connection points: 2
#     Edge 49, Type (0, 1), BuildingBlock: XIVTED_clean_linker_0, # of connection points: 2
#     Edge 50, Type (0, 1), BuildingBlock: XIVTED_clean_linker_0, # of connection points: 2
#     Edge 51, Type (0, 1), BuildingBlock: XIVTED_clean_linker_0, # of connection points: 2
#     Edge 52, Type (0, 1), BuildingBlock: XIVTED_clean_linker_0, # of connection points: 2
#     Edge 53, Type (0, 1), BuildingBlock: XIVTED_clean_linker_0, # of connection points: 2
#     Edge 54, Type (0, 1), BuildingBlock: XIVTED_clean_linker_0, # of connection points: 2
#     Edge 55, Type (0, 1), BuildingBlock: XIVTED_clean_linker_0, # of connection points: 2
#     Edge 56, Type (0, 1), BuildingBlock: XIVTED_clean_linker_0, # of connection points: 2
#     Edge 57, Type (0, 1), BuildingBlock: XIVTED_clean_linker_0, # of connection points: 2
#     Edge 58, Type (0, 1), BuildingBlock: XIVTED_clean_linker_0, # of connection points: 2
#     Edge 59, Type (0, 1), BuildingBlock: XIVTED_clean_linker_0, # of connection points: 2
#     Edge 60, Type (0, 1), BuildingBlock: XIVTED_clean_linker_0, # of connection points: 2
#     Edge 61, Type (0, 1), BuildingBlock: XIVTED_clean_linker_0, # of connection points: 2
#     Edge 62, Type (0, 1), BuildingBlock: XIVTED_clean_linker_0, # of connection points: 2
#     Edge 63, Type (0, 1), BuildingBlock: XIVTED_clean_linker_0, # of connection points: 2
#     Edge 64, Type (0, 1), BuildingBlock: XIVTED_clean_linker_0, # of connection points: 2
#     Edge 65, Type (0, 1), BuildingBlock: XIVTED_clean_linker_0, # of connection points: 2
#     Edge 66, Type (0, 1), BuildingBlock: XIVTED_clean_linker_0, # of connection points: 2
#     Edge 67, Type (0, 1), BuildingBlock: XIVTED_clean_linker_0, # of connection points: 2
#     Edge 68, Type (0, 1), BuildingBlock: XIVTED_clean_linker_0, # of connection points: 2
#     Edge 69, Type (0, 1), BuildingBlock: XIVTED_clean_linker_0, # of connection points: 2
#     Edge 70, Type (0, 1), BuildingBlock: XIVTED_clean_linker_0, # of connection points: 2
#     Edge 71, Type (0, 1), BuildingBlock: XIVTED_clean_linker_0, # of connection points: 2
#     Edge 72, Type (0, 1), BuildingBlock: XIVTED_clean_linker_0, # of connection points: 2
#     Edge 73, Type (0, 1), BuildingBlock: XIVTED_clean_linker_0, # of connection points: 2
#     Edge 74, Type (0, 1), BuildingBlock: XIVTED_clean_linker_0, # of connection points: 2
#     Edge 75, Type (0, 1), BuildingBlock: XIVTED_clean_linker_0, # of connection points: 2
# Relax obj value: 0.051
# Max RMSD: 0.166
# Mean RMSD: 0.095
data_MOF--net-ctn--node1-OLANEW_clean_sbu_2--node2-NAHDIM_clean_sbu_0--edge1-XIVTED_clean_linker_0
_symmetry_space_group_name_H-M    P1
_symmetry_Int_Tables_number       1
_symmetry_cell_setting            triclinic
loop_
_symmetry_equiv_pos_as_xyz
'x, y, z'
_cell_length_a     58.854247
_cell_length_b     61.23581
_cell_length_c     56.809883
_cell_angle_alpha  92.525886
_cell_angle_beta   94.663434
_cell_angle_gamma 98.057009
loop_
_atom_site_label
_atom_site_type_symbol
_atom_site_fract_x
_atom_site_fract_y
_atom_site_fract_z
_atom_type_partial_charge
O0 O 0.03343 0.04744 0.01176 0.0
Cd1 Cd 0.03057 0.01519 0.03613 0.0
O2 O 0.03925 0.07077 0.04299 0.0
Cd3 Cd 0.03153 0.04604 0.06884 0.0
O4 O 0.01119 0.03467 0.09766 0.0
C5 C -0.00167 0.0482 0.10476 0.0
O6 O -0.00142 0.06709 0.09461 0.0
C7 C 0.03761 0.06718 0.02065 0.0
C8 C 0.06477 -0.01171 0.03078 0.0
O9 O 0.04568 0.98485 0.01771 0.0
O10 O 0.06785 0.00464 0.04615 0.0
O11 O 0.29685 0.72588 0.26213 0.0
Cd12 Cd 0.25912 0.72 0.23934 0.0
O13 O 0.30959 0.69871 0.24295 0.0
Cd14 Cd 0.27554 0.68551 0.2261 0.0
O15 O 0.24575 0.65994 0.22632 0.0
C16 C 0.23709 0.65735 0.24597 0.0
O17 O 0.24545 0.67094 0.26414 0.0
C18 C 0.31308 0.71483 0.25831 0.0
C19 C 0.25723 0.74666 0.20072 0.0
O20 O 0.2518 0.75324 0.22097 0.0
O21 O 0.26366 0.72755 0.19879 0.0
O22 O 0.97625 0.4761 0.08786 0.0
Cd23 Cd 0.95549 0.47095 0.04858 0.0
O24 O 0.98696 0.44304 0.08747 0.0
Cd25 Cd 0.9737 0.43179 0.05132 0.0
O26 O 0.97335 0.40758 0.02178 0.0
C27 C 0.97986 0.38944 0.02748 0.0
O28 O 0.98545 0.38671 0.04991 0.0
C29 C 0.98634 0.46162 0.09811 0.0
C30 C 0.92111 0.4981 0.04587 0.0
O31 O 0.9172 0.47852 0.05314 0.0
O32 O 0.94122 0.50476 0.03953 0.0
O33 O 0.72194 0.83451 0.19738 0.0
Cd34 Cd 0.69599 0.79945 0.19216 0.0
O35 O 0.73057 0.82973 0.23503 0.0
Cd36 Cd 0.70536 0.80023 0.23663 0.0
O37 O 0.6763 0.78118 0.25148 0.0
C38 C 0.67194 0.7887 0.27157 0.0
O39 O 0.6851 0.80639 0.28141 0.0
C40 C 0.73329 0.84111 0.21701 0.0
C41 C 0.71005 0.77038 0.15896 0.0
O42 O 0.69619 0.78391 0.1528 0.0
O43 O 0.71732 0.77061 0.18087 0.0
O44 O 0.07142 -0.01113 0.48196 0.0
Cd45 Cd 0.03434 0.96669 0.46899 0.0
O46 O 0.05637 0.01252 0.50406 0.0
Cd47 Cd 0.02144 0.00023 0.48871 0.0
O48 O -0.00719 0.00083 0.46184 0.0
C49 C 0.98187 0.98368 0.45053 0.0
O50 O 0.98694 0.96416 0.45581 0.0
C51 C 0.07399 0.00549 0.49666 0.0
C52 C 0.02339 0.93272 0.49918 0.0
O53 O 0.03492 0.92985 0.48138 0.0
O54 O 0.01698 0.95166 0.5027 0.0
O55 O 0.23855 0.72684 0.85222 0.0
Cd56 Cd 0.2353 0.70127 0.81726 0.0
O57 O 0.21081 0.73963 0.83175 0.0
Cd58 Cd 0.18281 0.75893 0.82398 0.0
O59 O 0.1517 0.76922 0.80704 0.0
C60 C 0.15108 0.77248 0.78508 0.0
O61 O 0.16939 0.77043 0.77385 0.0
C62 C 0.22443 0.74072 0.85047 0.0
C63 C 0.26383 0.66851 0.81775 0.0
O64 O 0.27041 0.6875 0.80998 0.0
O65 O 0.24407 0.66527 0.82601 0.0
O66 O 0.98249 0.53071 0.47416 0.0
Cd67 Cd 0.95766 0.5443 0.50239 0.0
O68 O 0.01424 0.54741 0.49414 0.0
Cd69 Cd -0.00349 0.56369 0.52071 0.0
O70 O 0.98581 0.58863 0.54449 0.0
C71 C 0.97744 0.60474 0.53552 0.0
O72 O 0.97466 0.60527 0.51237 0.0
C73 C 0.00436 0.5351 0.47658 0.0
C74 C 0.92145 0.51242 0.51236 0.0
O75 O 0.91921 0.52495 0.49509 0.0
O76 O 0.94089 0.51484 0.52482 0.0
O77 O 0.77521 0.76078 0.83917 0.0
Cd78 Cd 0.77553 0.79139 0.81282 0.0
O79 O 0.7378 0.75066 0.83228 0.0
Cd80 Cd 0.73199 0.77924 0.81213 0.0
O81 O 0.71758 0.80892 0.80235 0.0
C82 C 0.72644 0.82765 0.81195 0.0
O83 O 0.74498 0.82894 0.82678 0.0
C84 C 0.75715 0.74755 0.84223 0.0
C85 C 0.80757 0.78952 0.77937 0.0
O86 O 0.81317 0.80013 0.79943 0.0
O87 O 0.78679 0.7798 0.77511 0.0
O88 O 0.28549 0.26517 0.34205 0.0
Cd89 Cd 0.28834 0.29546 0.31522 0.0
O90 O 0.24757 0.26025 0.33866 0.0
Cd91 Cd 0.24389 0.2894 0.31864 0.0
O92 O 0.2291 0.31907 0.30947 0.0
C93 C 0.23729 0.33765 0.31985 0.0
O94 O 0.25554 0.33895 0.33506 0.0
C95 C 0.26645 0.2545 0.34688 0.0
C96 C 0.31927 0.28967 0.28144 0.0
O97 O 0.32605 0.30016 0.30136 0.0
O98 O 0.29783 0.28197 0.27745 0.0
O99 O 0.47427 0.97707 0.58144 0.0
Cd100 Cd 0.45693 0.97395 0.54068 0.0
O101 O 0.47803 0.94185 0.58261 0.0
Cd102 Cd 0.46585 0.9319 0.54591 0.0
O103 O 0.46594 0.90759 0.51664 0.0
C104 C 0.46921 0.88849 0.52284 0.0
O105 O 0.47134 0.88498 0.54551 0.0
C106 C 0.48032 0.96106 0.59273 0.0
C107 C 0.42087 -0.00097 0.536 0.0
O108 O 0.41711 0.97849 0.54016 0.0
O109 O 0.44168 0.00768 0.53387 0.0
O110 O 0.23781 0.3278 0.71517 0.0
Cd111 Cd 0.21087 0.29335 0.71099 0.0
O112 O 0.24224 0.32718 0.75395 0.0
Cd113 Cd 0.21556 0.29901 0.75634 0.0
O114 O 0.18493 0.28087 0.76935 0.0
C115 C 0.16529 0.28573 0.76234 0.0
O116 O 0.16401 0.30057 0.74644 0.0
C117 C 0.2474 0.33622 0.735 0.0
C118 C 0.2211 0.26539 0.67441 0.0
O119 O 0.20713 0.27939 0.6706 0.0
O120 O 0.2302 0.26455 0.69556 0.0
O121 O 0.79469 0.22681 0.77216 0.0
Cd122 Cd 0.7572 0.22292 0.7491 0.0
O123 O 0.80601 0.19939 0.75202 0.0
Cd124 Cd 0.77142 0.18729 0.73585 0.0
O125 O 0.74112 0.1624 0.73668 0.0
C126 C 0.72906 0.1632 0.75419 0.0
O127 O 0.73425 0.17984 0.77002 0.0
C128 C 0.81031 0.21519 0.76774 0.0
C129 C 0.75763 0.2512 0.71177 0.0
O130 O 0.75168 0.25721 0.732 0.0
O131 O 0.76335 0.23185 0.70922 0.0
O132 O 0.537 0.54732 0.50701 0.0
Cd133 Cd 0.53467 0.51476 0.53089 0.0
O134 O 0.5487 0.57062 0.5376 0.0
Cd135 Cd 0.54293 0.54581 0.56375 0.0
O136 O 0.52447 0.5331 0.59329 0.0
C137 C 0.50728 0.54265 0.59753 0.0
O138 O 0.50216 0.55847 0.58403 0.0
C139 C 0.54371 0.56698 0.51545 0.0
C140 C 0.57219 0.49143 0.5292 0.0
O141 O 0.55488 0.48749 0.51364 0.0
O142 O 0.57195 0.50662 0.5454 0.0
O143 O 0.58142 0.47652 0.99172 0.0
Cd144 Cd 0.54537 0.4523 0.97873 0.0
O145 O 0.56619 0.49646 0.01773 0.0
Cd146 Cd 0.53158 0.48166 0.00402 0.0
O147 O 0.50431 0.47917 0.97526 0.0
C148 C 0.51073 0.48753 0.95639 0.0
O149 O 0.53244 0.49609 0.95586 0.0
C150 C 0.58375 0.4919 0.00792 0.0
C151 C 0.53569 0.41742 0.00815 0.0
O152 O 0.54777 0.41551 0.99059 0.0
O153 O 0.5283 0.43586 0.01189 0.0
O154 O 0.72586 0.23685 0.35026 0.0
Cd155 Cd 0.71581 0.215 0.31271 0.0
O156 O 0.68943 0.23662 0.3566 0.0
Cd157 Cd 0.67522 0.22167 0.32204 0.0
O158 O 0.65194 0.22346 0.2905 0.0
C159 C 0.65242 0.24239 0.28205 0.0
O160 O 0.66748 0.25882 0.2918 0.0
C161 C 0.71068 0.24201 0.36338 0.0
C162 C 0.74016 0.17921 0.30798 0.0
O163 O 0.72109 0.17724 0.31764 0.0
O164 O 0.74784 0.19817 0.30078 0.0
O165 O 0.47635 0.02024 0.96382 0.0
Cd166 Cd 0.45229 0.03343 -0.00692 0.0
O167 O 0.50787 0.02623 0.9882 0.0
Cd168 Cd 0.49089 0.04142 0.01609 0.0
O169 O 0.47938 0.0658 0.03986 0.0
C170 C 0.47226 0.08253 0.03089 0.0
O171 O 0.47132 0.08393 0.00783 0.0
C172 C 0.49779 0.01945 0.96801 0.0
C173 C 0.41535 0.00191 0.00193 0.0
O174 O 0.41326 0.01562 0.98575 0.0
O175 O 0.43498 0.003 0.01382 0.0
C176 C 0.18453 0.88683 0.02059 0.0
O177 O 0.18023 0.86893 0.00642 0.0
O178 O 0.2246 0.85093 0.00262 0.0
Zn179 Zn 0.23031 0.8733 0.03047 0.0
O180 O 0.2591 0.89437 0.02587 0.0
C181 C 0.2429 0.83898 0.05972 0.0
O182 O 0.24936 0.83177 0.03955 0.0
O183 O 0.20409 0.89139 0.03235 0.0
C184 C 0.27902 0.89334 0.03587 0.0
O185 O 0.28171 0.87781 0.05064 0.0
C186 C 0.22471 0.85646 0.98132 0.0
O187 O 0.22746 0.87753 0.977 0.0
O188 O 0.23433 0.85693 0.06049 0.0
C189 C 0.14626 0.4643 0.30836 0.0
O190 O 0.15579 0.48437 0.31578 0.0
O191 O 0.08773 0.48867 0.32465 0.0
Zn192 Zn 0.10588 0.48557 0.29639 0.0
O193 O 0.12593 0.51432 0.29183 0.0
C194 C 0.07264 0.49247 0.25843 0.0
O195 O 0.07492 0.51228 0.26899 0.0
O196 O 0.12531 0.46104 0.29992 0.0
C197 C 0.13453 0.51703 0.27217 0.0
O198 O 0.1305 0.50086 0.25572 0.0
C199 C 0.09747 0.49668 0.34456 0.0
O200 O 0.11989 0.50272 0.34678 0.0
O201 O 0.08392 0.47811 0.26727 0.0
C202 C 0.79735 0.59559 0.03731 0.0
O203 O 0.77836 0.58962 0.04748 0.0
O204 O 0.77309 0.64196 0.98595 0.0
Zn205 Zn 0.77011 0.62659 0.01664 0.0
O206 O 0.74181 0.60329 0.01376 0.0
C207 C 0.75144 0.66203 0.03746 0.0
O208 O 0.73947 0.65917 0.01673 0.0
O209 O 0.79822 0.61168 0.02386 0.0
C210 C 0.7289 0.60025 0.03057 0.0
O211 O 0.73399 0.61251 0.05036 0.0
C212 C 0.7571 0.63941 0.96918 0.0
O213 O 0.73819 0.62572 0.97133 0.0
O214 O 0.7667 0.64969 0.04219 0.0
C215 C 0.82534 0.04995 0.28308 0.0
O216 O 0.81904 0.03142 0.29315 0.0
O217 O 0.87872 0.02197 0.29711 0.0
Zn218 Zn 0.85995 0.0255 0.26647 0.0
O219 O 0.83795 -0.00257 0.25835 0.0
C220 C 0.89297 0.0167 0.23352 0.0
O221 O 0.89121 -0.00245 0.24327 0.0
O222 O 0.8424 0.05126 0.27059 0.0
C223 C 0.8297 -0.00943 0.23755 0.0
O224 O 0.83485 0.00264 0.21965 0.0
C225 C 0.88156 0.00288 0.30373 0.0
O226 O 0.87227 0.98538 0.2903 0.0
O227 O 0.88118 0.0312 0.24059 0.0
C228 C 0.29193 0.09 0.51757 0.0
O229 O 0.27178 0.08021 0.50808 0.0
O230 O 0.27159 0.14421 0.48724 0.0
Zn231 Zn 0.2678 0.12771 0.51713 0.0
O232 O 0.23793 0.10652 0.51379 0.0
C233 C 0.25183 0.16332 0.54116 0.0
O234 O 0.23904 0.16211 0.52096 0.0
O235 O 0.29457 0.11061 0.52317 0.0
C236 C 0.22562 0.10272 0.53095 0.0
O237 O 0.2323 0.11287 0.55172 0.0
C238 C 0.25526 0.14337 0.47097 0.0
O239 O 0.23557 0.13093 0.47326 0.0
O240 O 0.26646 0.15002 0.54409 0.0
C241 C 0.34939 0.5403 0.79035 0.0
O242 O 0.34241 0.52086 0.79822 0.0
O243 O 0.40618 0.51384 0.79914 0.0
Zn244 Zn 0.38378 0.51697 0.77118 0.0
O245 O 0.36171 0.48864 0.76561 0.0
C246 C 0.41589 0.51033 0.73691 0.0
O247 O 0.4195 0.49385 0.7501 0.0
O248 O 0.36666 0.54255 0.77814 0.0
C249 C 0.35261 0.48092 0.74537 0.0
O250 O 0.35725 0.49196 0.72661 0.0
C251 C 0.39974 0.50266 0.81636 0.0
O252 O 0.37819 0.49331 0.81584 0.0
O253 O 0.40125 0.52263 0.74249 0.0
C254 C 0.70109 0.39993 0.52467 0.0
O255 O 0.70612 0.39143 0.50444 0.0
O256 O 0.73323 0.35645 0.51488 0.0
Zn257 Zn 0.73986 0.37938 0.5423 0.0
O258 O 0.76832 0.40069 0.53709 0.0
C259 C 0.75513 0.34706 0.57279 0.0
O260 O 0.76467 0.34162 0.55368 0.0
O261 O 0.71308 0.3968 0.54357 0.0
C262 C 0.78688 0.40381 0.55068 0.0
O263 O 0.78832 0.39279 0.56994 0.0
C264 C 0.74874 0.35185 0.50191 0.0
O265 O 0.76978 0.36245 0.50615 0.0
O266 O 0.74388 0.36335 0.57255 0.0
C267 C 0.64319 0.9595 0.79906 0.0
O268 O 0.65342 0.97951 0.80584 0.0
O269 O 0.5857 0.9855 0.81594 0.0
Zn270 Zn 0.60375 0.98204 0.78766 0.0
O271 O 0.62482 0.01007 0.78252 0.0
C272 C 0.56974 -0.00998 0.75125 0.0
O273 O 0.57225 0.00938 0.76283 0.0
O274 O 0.62211 0.9567 0.79107 0.0
C275 C 0.62288 0.02891 0.79183 0.0
O276 O 0.60681 0.03058 0.80629 0.0
C277 C 0.59471 0.98689 0.83715 0.0
O278 O 0.61687 0.98614 0.84119 0.0
O279 O 0.58138 0.97537 0.75878 0.0
C280 C 0.02217 0.19848 0.92454 0.0
O281 O 0.03435 0.21772 0.93128 0.0
O282 O 0.97305 0.22063 0.86925 0.0
Zn283 Zn 0.00298 0.22505 0.89014 0.0
O284 O 0.0026 0.25034 0.91413 0.0
C285 C 0.02691 0.24068 0.85021 0.0
O286 O 0.00641 0.24488 0.84245 0.0
O287 O 0.00711 0.19732 0.90699 0.0
C288 C -0.00155 0.2691 0.90762 0.0
O289 O -0.00507 0.27208 0.88493 0.0
C290 C 0.95458 0.2256 0.87682 0.0
O291 O 0.95472 0.23263 0.89902 0.0
O292 O 0.02954 0.23228 0.87014 0.0
C293 C 0.52239 0.69817 0.42102 0.0
O294 O 0.53494 0.71736 0.42717 0.0
O295 O 0.47366 0.7209 0.36511 0.0
Zn296 Zn 0.50173 0.72532 0.38876 0.0
O297 O 0.49803 0.74903 0.41334 0.0
C298 C 0.53426 0.72629 0.35314 0.0
O299 O 0.52017 0.70895 0.34385 0.0
O300 O 0.50632 0.69714 0.40446 0.0
C301 C 0.49593 0.76828 0.40676 0.0
O302 O 0.49663 0.77218 0.38426 0.0
C303 C 0.45442 0.7253 0.37126 0.0
O304 O 0.45277 0.73155 0.3934 0.0
O305 O 0.52978 0.73579 0.3722 0.0
C306 C -0.00972 0.81015 0.60888 0.0
O307 O 0.00091 0.7927 0.60756 0.0
O308 O 0.94668 0.79049 0.66774 0.0
Zn309 Zn 0.97259 0.78699 0.64728 0.0
O310 O 0.96659 0.75779 0.62833 0.0
C311 C 0.00297 0.78576 0.69008 0.0
O312 O 0.98356 0.78277 0.7002 0.0
O313 O 0.97656 0.81163 0.62487 0.0
C314 C 0.96829 0.73977 0.63817 0.0
O315 O 0.97316 0.74022 0.66119 0.0
C316 C 0.92627 0.78046 0.66315 0.0
O317 O 0.92125 0.76754 0.6438 0.0
O318 O 0.00237 0.78804 0.66791 0.0
C319 C 0.49717 0.2888 0.10887 0.0
O320 O 0.5064 0.27063 0.10599 0.0
O321 O 0.45182 0.2696 0.16669 0.0
Zn322 Zn 0.476 0.26396 0.14484 0.0
O323 O 0.46578 0.23638 0.12387 0.0
C324 C 0.52127 0.27402 0.17122 0.0
O325 O 0.52012 0.29436 0.16533 0.0
O326 O 0.48323 0.28994 0.1247 0.0
C327 C 0.46486 0.21775 0.13304 0.0
O328 O 0.46925 0.21719 0.15604 0.0
C329 C 0.43038 0.26359 0.16142 0.0
O330 O 0.42333 0.25339 0.14074 0.0
O331 O 0.50462 0.25892 0.16454 0.0
H332 H 0.2346 0.73707 0.89774 0.0
H333 H 0.21991 0.86178 0.9336 0.0
H334 H 0.21348 0.78259 0.84739 0.0
H335 H 0.22613 0.81215 0.98448 0.0
H336 H 0.21912 0.83347 0.90167 0.0
H337 H 0.23365 0.76497 0.92975 0.0
C338 C 0.22964 0.7529 0.89345 0.0
C339 C 0.22367 0.75738 0.86993 0.0
C340 C 0.22055 0.82877 0.91982 0.0
C341 C 0.22275 0.78945 0.90637 0.0
C342 C 0.22103 0.84493 0.93807 0.0
C343 C 0.2231 0.83935 0.96177 0.0
C344 C 0.22239 0.80689 0.92529 0.0
C345 C 0.22446 0.81722 0.96648 0.0
C346 C 0.22902 0.76879 0.91171 0.0
C347 C 0.21752 0.7782 0.86532 0.0
N348 N 0.22421 0.80184 0.94842 0.0
N349 N 0.21729 0.79349 0.88336 0.0
H350 H 0.05138 0.54027 0.47703 0.0
H351 H 0.0507 0.48654 0.3459 0.0
H352 H -0.01068 0.51146 0.43462 0.0
H353 H 0.11256 0.51451 0.38911 0.0
H354 H 0.02804 0.49377 0.37884 0.0
H355 H 0.07411 0.52908 0.44579 0.0
C356 C 0.0425 0.53147 0.46121 0.0
C357 C 0.01835 0.52692 0.45843 0.0
C358 C 0.04657 0.49823 0.38115 0.0
C359 C 0.04438 0.51413 0.42243 0.0
C360 C 0.05955 0.49411 0.36234 0.0
C361 C 0.08359 0.50003 0.36468 0.0
C362 C 0.05769 0.50839 0.40248 0.0
C363 C 0.09408 0.50974 0.38644 0.0
C364 C 0.05553 0.52509 0.44334 0.0
C365 C 0.00788 0.51539 0.43753 0.0
N366 N 0.08106 0.51369 0.40443 0.0
N367 N 0.02095 0.50951 0.42029 0.0
H368 H 0.72278 0.71424 0.84969 0.0
H369 H 0.79353 0.66961 0.959 0.0
H370 H 0.79395 0.73928 0.87172 0.0
H371 H 0.72464 0.64074 0.93212 0.0
H372 H 0.79479 0.69412 0.92615 0.0
H373 H 0.72388 0.68608 0.87865 0.0
C374 C 0.73871 0.71374 0.86051 0.0
C375 C 0.75826 0.72928 0.85835 0.0
C376 C 0.77947 0.68231 0.92734 0.0
C377 C 0.75959 0.69707 0.89175 0.0
C378 C 0.77873 0.6683 0.94611 0.0
C379 C 0.75888 0.65317 0.94843 0.0
C380 C 0.76018 0.68128 0.91083 0.0
C381 C 0.74027 0.65219 0.93113 0.0
C382 C 0.73932 0.69762 0.87706 0.0
C383 C 0.77844 0.7277 0.8728 0.0
N384 N 0.74131 0.66615 0.91319 0.0
N385 N 0.77852 0.71201 0.88902 0.0
H386 H 0.9571 0.9509 0.42057 0.0
H387 H 0.90293 0.03533 0.33616 0.0
H388 H 0.96843 0.0217 0.43414 0.0
H389 H 0.89128 0.96453 0.32261 0.0
H390 H 0.92583 0.03055 0.37292 0.0
H391 H 0.93152 0.95541 0.38556 0.0
C392 C 0.9541 0.96738 0.4163 0.0
C393 C 0.96503 0.98595 0.43028 0.0
C394 C 0.91822 0.01605 0.36194 0.0
C395 C 0.93585 -0.00876 0.39013 0.0
C396 C 0.90516 0.01877 0.34092 0.0
C397 C 0.89522 0.00031 0.32622 0.0
C398 C 0.92143 -0.00529 0.36832 0.0
C399 C 0.89865 0.97926 0.33334 0.0
C400 C 0.93952 0.96995 0.39627 0.0
C401 C 0.96046 0.0069 0.42386 0.0
N402 N 0.9115 0.97704 0.35384 0.0
N403 N 0.94632 0.00898 0.40422 0.0
H404 H 0.25065 0.2345 0.67644 0.0
H405 H 0.22312 0.19472 0.53964 0.0
H406 H 0.20392 0.26266 0.62796 0.0
H407 H 0.27228 0.16806 0.58671 0.0
H408 H 0.21625 0.21991 0.57185 0.0
H409 H 0.25905 0.21016 0.64396 0.0
C410 C 0.24216 0.23558 0.65897 0.0
C411 C 0.22651 0.25063 0.65494 0.0
C412 C 0.22859 0.20861 0.57517 0.0
C413 C 0.23607 0.2228 0.61768 0.0
C414 C 0.23254 0.19419 0.55675 0.0
C415 C 0.24829 0.1792 0.56047 0.0
C416 C 0.2404 0.20805 0.59758 0.0
C417 C 0.26 0.17933 0.58303 0.0
C418 C 0.24699 0.22169 0.64043 0.0
C419 C 0.21607 0.25131 0.63192 0.0
N420 N 0.25576 0.19349 0.60076 0.0
N421 N 0.221 0.23758 0.6142 0.0
H422 H 0.51274 0.51085 0.62942 0.0
H423 H 0.41118 0.54174 0.70475 0.0
H424 H 0.47056 0.56103 0.61152 0.0
H425 H 0.45008 0.48875 0.72116 0.0
H426 H 0.43298 0.54892 0.67049 0.0
H427 H 0.49015 0.50231 0.66308 0.0
C428 C 0.49872 0.52003 0.63252 0.0
C429 C 0.49358 0.53672 0.61764 0.0
C430 C 0.43674 0.53569 0.68155 0.0
C431 C 0.46772 0.52707 0.65612 0.0
C432 C 0.4243 0.53159 0.70115 0.0
C433 C 0.42882 0.51464 0.7159 0.0
C434 C 0.45393 0.5228 0.67662 0.0
C435 C 0.44601 0.502 0.71029 0.0
C436 C 0.48583 0.51515 0.65173 0.0
C437 C 0.47519 0.54806 0.62251 0.0
N438 N 0.45797 0.50637 0.69113 0.0
N439 N 0.463 0.54306 0.64132 0.0
H440 H 0.74334 0.29193 0.71035 0.0
H441 H 0.77555 0.30989 0.57758 0.0
H442 H 0.77234 0.24443 0.66791 0.0
H443 H 0.7383 0.35364 0.61593 0.0
H444 H 0.77684 0.28712 0.61166 0.0
H445 H 0.74349 0.316 0.67707 0.0
C446 C 0.74978 0.28657 0.69406 0.0
C447 C 0.7578 0.26609 0.69191 0.0
C448 C 0.7684 0.30171 0.61267 0.0
C449 C 0.75807 0.2936 0.65378 0.0
C450 C 0.7677 0.31478 0.59321 0.0
C451 C 0.75673 0.33371 0.59384 0.0
C452 C 0.75813 0.30757 0.63304 0.0
C453 C 0.74689 0.33918 0.61462 0.0
C454 C 0.74983 0.30032 0.67506 0.0
C455 C 0.76593 0.26002 0.67037 0.0
N456 N 0.7478 0.32616 0.63339 0.0
N457 N 0.76587 0.27371 0.65218 0.0
H458 H 0.496 0.93065 0.6214 0.0
H459 H 0.54563 0.01885 0.72776 0.0
H460 H 0.48912 -0.0001 0.6202 0.0
H461 H 0.55885 0.95123 0.72431 0.0
H462 H 0.52176 0.0116 0.69018 0.0
H463 H 0.51578 0.93731 0.66095 0.0
C464 C 0.49853 0.94726 0.62948 0.0
C465 C 0.491 0.96478 0.61735 0.0
C466 C 0.52983 -0.00166 0.69771 0.0
C467 C 0.51378 0.97252 0.66275 0.0
C468 C 0.54343 0.00245 0.71918 0.0
C469 C 0.55437 0.98565 0.72914 0.0
C470 C 0.52708 0.97726 0.68616 0.0
C471 C 0.55086 0.96472 0.71724 0.0
C472 C 0.50988 0.95105 0.6521 0.0
C473 C 0.49471 0.98592 0.62883 0.0
N474 N 0.53758 0.96115 0.69637 0.0
N475 N 0.50594 -0.01078 0.65086 0.0
H476 H 0.84905 0.19675 0.7601 0.0
H477 H 0.91437 0.24091 0.88541 0.0
H478 H 0.82269 0.24146 0.80837 0.0
H479 H 0.94684 0.20846 0.831 0.0
H480 H 0.88004 0.24001 0.85798 0.0
H481 H 0.88466 0.20005 0.78609 0.0
C482 C 0.85081 0.20741 0.77606 0.0
C483 C 0.83279 0.21879 0.78209 0.0
C484 C 0.89469 0.23313 0.85202 0.0
C485 C 0.87345 0.22242 0.81208 0.0
C486 C 0.91427 0.23353 0.86772 0.0
C487 C 0.9335 0.22467 0.86052 0.0
C488 C 0.89423 0.22364 0.82899 0.0
C489 C 0.93241 0.21544 0.83732 0.0
C490 C 0.87116 0.20927 0.79091 0.0
C491 C 0.8361 0.23239 0.80299 0.0
N492 N 0.91306 0.21509 0.82242 0.0
N493 N 0.85595 0.23368 0.81733 0.0
H494 H 0.46878 0.89052 0.47457 0.0
H495 H 0.49335 0.76585 0.45454 0.0
H496 H 0.47581 0.84607 0.53078 0.0
H497 H 0.48895 0.81063 0.39828 0.0
H498 H 0.48598 0.79488 0.48255 0.0
H499 H 0.47488 0.8612 0.44608 0.0
C500 C 0.4715 0.87459 0.48092 0.0
C501 C 0.47183 0.87077 0.50512 0.0
C502 C 0.48663 0.79838 0.46408 0.0
C503 C 0.47891 0.83719 0.47263 0.0
C504 C 0.49086 0.78179 0.44806 0.0
C505 C 0.49181 0.78581 0.42401 0.0
C506 C 0.48328 0.81916 0.45602 0.0
C507 C 0.48841 0.8068 0.41666 0.0
C508 C 0.47504 0.85787 0.46465 0.0
C509 C 0.47546 0.8498 0.51231 0.0
N510 N 0.48429 0.82268 0.43259 0.0
N511 N 0.47889 0.83384 0.49616 0.0
H512 H 0.16245 0.25794 0.79887 0.0
H513 H 0.02783 0.26082 0.80814 0.0
H514 H 0.12076 0.2927 0.75166 0.0
H515 H 0.0712 0.23238 0.85981 0.0
H516 H 0.06097 0.26993 0.78532 0.0
H517 H 0.12841 0.24547 0.81927 0.0
C518 C 0.14611 0.26282 0.79266 0.0
C519 C 0.1445 0.27651 0.77359 0.0
C520 C 0.06323 0.26166 0.80163 0.0
C521 C 0.10546 0.26235 0.79698 0.0
C522 C 0.0443 0.25644 0.81468 0.0
C523 C 0.04675 0.2459 0.83599 0.0
C524 C 0.08478 0.25625 0.8099 0.0
C525 C 0.06852 0.24059 0.84354 0.0
C526 C 0.12669 0.25574 0.80438 0.0
C527 C 0.12285 0.28226 0.76634 0.0
N528 N 0.08669 0.24585 0.83052 0.0
N529 N 0.10421 0.27523 0.7781 0.0
H530 H 0.56252 0.61007 0.52613 0.0
H531 H 0.50287 0.65507 0.41034 0.0
H532 H 0.52467 0.56704 0.46969 0.0
H533 H 0.55214 0.69581 0.46007 0.0
H534 H 0.51016 0.62261 0.43186 0.0
H535 H 0.55885 0.64164 0.50208 0.0
C536 C 0.55361 0.60722 0.50859 0.0
C537 C 0.54381 0.58585 0.49997 0.0
C538 C 0.51945 0.63865 0.43797 0.0
C539 C 0.53928 0.62206 0.4724 0.0
C540 C 0.51524 0.6572 0.42575 0.0
C541 C 0.52684 0.67823 0.43346 0.0
C542 C 0.53523 0.64116 0.45818 0.0
C543 C 0.54276 0.67996 0.45349 0.0
C544 C 0.55151 0.62528 0.49485 0.0
C545 C 0.53251 0.58321 0.47705 0.0
N546 N 0.54638 0.66171 0.46521 0.0
N547 N 0.53036 0.60112 0.46415 0.0
H548 H 0.80133 0.76773 0.7356 0.0
H549 H 0.93141 0.80449 0.70555 0.0
H550 H 0.85267 0.8089 0.78284 0.0
H551 H 0.88096 0.76143 0.65913 0.0
H552 H 0.90242 0.80715 0.73352 0.0
H553 H 0.82989 0.766 0.70689 0.0
C554 C 0.8186 0.77643 0.73994 0.0
C555 C 0.82461 0.78846 0.7617 0.0
C556 C 0.89766 0.79715 0.7172 0.0
C557 C 0.85741 0.78655 0.72887 0.0
C558 C 0.91422 0.79564 0.70118 0.0
C559 C 0.90864 0.7827 0.67993 0.0
C560 C 0.87531 0.78564 0.71199 0.0
C561 C 0.88606 0.77159 0.67528 0.0
C562 C 0.83491 0.77543 0.72353 0.0
C563 C 0.84726 0.79941 0.76632 0.0
N564 N 0.87024 0.7733 0.69119 0.0
N565 N 0.86281 0.79818 0.75007 0.0
H566 H -0.00228 0.93292 0.53735 0.0
H567 H 0.01701 0.81097 0.57166 0.0
H568 H 0.03634 0.89148 0.49766 0.0
H569 H 0.97357 0.84984 0.60816 0.0
H570 H 0.02465 0.84057 0.54477 0.0
H571 H 0.98908 0.90302 0.56385 0.0
C572 C 0.00437 0.91753 0.53419 0.0
C573 C 0.0178 0.91472 0.51525 0.0
C574 C 0.01341 0.84264 0.55862 0.0
C575 C 0.00799 0.88042 0.54556 0.0
C576 C 0.00904 0.82572 0.57403 0.0
C577 C -0.00537 0.82791 0.59224 0.0
C578 C 0.00338 0.86198 0.56145 0.0
C579 C 0.98478 0.84742 0.59438 0.0
C580 C -0.00059 0.90045 0.54932 0.0
C581 C 0.02592 0.8944 0.51201 0.0
N582 N -0.01062 0.86373 0.5792 0.0
N583 N 0.02094 0.87808 0.52703 0.0
H584 H 0.10913 0.77498 0.80205 0.0
H585 H 0.04618 0.78994 0.67458 0.0
H586 H 0.14397 0.77983 0.73806 0.0
H587 H 0.01053 0.78152 0.73778 0.0
H588 H 0.08257 0.78865 0.69805 0.0
H589 H 0.0733 0.7799 0.77933 0.0
C590 C 0.10929 0.77721 0.78325 0.0
C591 C 0.12958 0.77688 0.77193 0.0
C592 C 0.0668 0.78715 0.70681 0.0
C593 C 0.08858 0.78244 0.74579 0.0
C594 C 0.04599 0.78789 0.69341 0.0
C595 C 0.02523 0.78574 0.7042 0.0
C596 C 0.06689 0.78425 0.73121 0.0
C597 C 0.02609 0.78317 0.72868 0.0
C598 C 0.0888 0.77998 0.77028 0.0
C599 C 0.12874 0.77988 0.74753 0.0
N600 N 0.04656 0.78244 0.74134 0.0
N601 N 0.10857 0.78245 0.73528 0.0
H602 H 0.96159 0.64258 0.5218 0.0
H603 H 0.97408 0.69879 0.65307 0.0
H604 H 0.98261 0.60984 0.584 0.0
H605 H 0.95847 0.73295 0.5902 0.0
H606 H 0.97361 0.66494 0.62847 0.0
H607 H 0.95665 0.6746 0.54699 0.0
C608 C 0.96503 0.64204 0.54078 0.0
C609 C 0.97269 0.62352 0.55077 0.0
C610 C 0.97017 0.67981 0.62007 0.0
C611 C 0.96713 0.66024 0.57976 0.0
C612 C 0.9704 0.69915 0.63411 0.0
C613 C 0.96645 0.7188 0.62368 0.0
C614 C 0.96595 0.68007 0.59539 0.0
C615 C 0.96172 0.71823 0.59901 0.0
C616 C 0.96223 0.66037 0.55516 0.0
C617 C 0.97678 0.62379 0.5755 0.0
N618 N 0.96171 0.69922 0.58572 0.0
N619 N 0.97406 0.6419 0.58912 0.0
H620 H 0.75937 0.86006 0.25657 0.0
H621 H 0.80817 0.97051 0.1958 0.0
H622 H 0.74241 0.87104 0.18306 0.0
H623 H 0.81882 0.96048 0.27042 0.0
H624 H 0.7854 0.93368 0.19004 0.0
H625 H 0.78302 0.89617 0.2611 0.0
C626 C 0.76069 0.87001 0.24131 0.0
C627 C 0.74879 0.86248 0.2194 0.0
C628 C 0.79272 0.93959 0.20766 0.0
C629 C 0.77587 0.90409 0.22454 0.0
C630 C 0.80569 0.96061 0.21097 0.0
C631 C 0.81539 0.96863 0.23364 0.0
C632 C 0.78952 0.92648 0.22714 0.0
C633 C 0.81164 0.95505 0.25263 0.0
C634 C 0.77418 0.8907 0.24394 0.0
C635 C 0.75124 0.87617 0.20029 0.0
N636 N 0.79906 0.93468 0.24894 0.0
N637 N 0.76447 0.89635 0.20331 0.0
H638 H 0.72913 0.13727 0.32257 0.0
H639 H 0.83508 0.09136 0.26662 0.0
H640 H 0.77984 0.17755 0.28625 0.0
H641 H 0.78735 0.05236 0.30745 0.0
H642 H 0.81457 0.12288 0.27288 0.0
H643 H 0.74979 0.1058 0.31659 0.0
C644 C 0.74463 0.13952 0.31337 0.0
C645 C 0.75275 0.1601 0.3049 0.0
C646 C 0.80858 0.10743 0.28048 0.0
C647 C 0.77648 0.12407 0.29792 0.0
C648 C 0.82028 0.0894 0.27689 0.0
C649 C 0.81295 0.06915 0.28653 0.0
C650 C 0.78935 0.10524 0.29377 0.0
C651 C 0.79365 0.06764 0.29969 0.0
C652 C 0.75643 0.12153 0.30996 0.0
C653 C 0.77294 0.16201 0.2931 0.0
N654 N 0.78252 0.08541 0.3029 0.0
N655 N 0.78407 0.14423 0.28993 0.0
H656 H 0.41449 0.96983 0.03415 0.0
H657 H 0.27982 0.92644 0.0049 0.0
H658 H 0.37115 -0.0034 0.9811 0.0
H659 H 0.32381 0.89683 0.05494 0.0
H660 H 0.313 0.95264 -0.00354 0.0
H661 H 0.38145 0.94327 0.04243 0.0
C662 C 0.39804 0.97011 0.02421 0.0
C663 C 0.3956 0.98549 0.0069 0.0
C664 C 0.31542 0.94041 0.00928 0.0
C665 C 0.35766 0.95514 0.01634 0.0
C666 C 0.29645 0.92544 0.01414 0.0
C667 C 0.299 0.90939 0.03068 0.0
C668 C 0.33714 0.9394 0.02105 0.0
C669 C 0.32101 0.90891 0.04206 0.0
C670 C 0.37917 0.95493 0.02895 0.0
C671 C 0.37385 0.98506 -0.00541 0.0
N672 N 0.33921 0.9237 0.03705 0.0
N673 N 0.35574 0.97017 -0.00042 0.0
H674 H 0.25052 0.38005 0.33839 0.0
H675 H 0.13307 0.42159 0.29089 0.0
H676 H 0.19634 0.33953 0.29387 0.0
H677 H 0.19054 0.46464 0.32776 0.0
H678 H 0.15587 0.39123 0.29233 0.0
H679 H 0.2289 0.41122 0.33488 0.0
C680 C 0.23415 0.37772 0.32776 0.0
C681 C 0.22521 0.35709 0.31648 0.0
C682 C 0.16353 0.40732 0.30007 0.0
C683 C 0.20027 0.3927 0.31254 0.0
C684 C 0.15048 0.42467 0.29932 0.0
C685 C 0.15988 0.44572 0.30927 0.0
C686 C 0.18613 0.41095 0.31096 0.0
C687 C 0.18258 0.44871 0.31988 0.0
C688 C 0.2218 0.39554 0.32577 0.0
C689 C 0.20391 0.3551 0.3029 0.0
N690 N 0.1949 0.4315 0.32051 0.0
N691 N 0.19212 0.37262 0.30143 0.0
H692 H 0.11438 0.00044 0.47774 0.0
H693 H 0.19099 0.09689 0.56046 0.0
H694 H 0.08668 0.03829 0.53162 0.0
H695 H 0.21074 0.0731 0.49352 0.0
H696 H 0.15469 0.07162 0.5538 0.0
H697 H 0.152 0.02288 0.4873 0.0
C698 C 0.11624 0.01331 0.49175 0.0
C699 C 0.09729 0.01757 0.5038 0.0
C700 C 0.16701 0.07193 0.54062 0.0
C701 C 0.14032 0.04331 0.51478 0.0
C702 C 0.18775 0.08629 0.54442 0.0
C703 C 0.20387 0.08718 0.52746 0.0
C704 C 0.16249 0.05816 0.51985 0.0
C705 C 0.19874 0.07307 0.50699 0.0
C706 C 0.1377 0.02619 0.4971 0.0
C707 C 0.10077 0.03451 0.52177 0.0
N708 N 0.17851 0.05912 0.50378 0.0
N709 N 0.12186 0.04679 0.5267 0.0
H710 H 0.69902 0.16029 0.78867 0.0
H711 H 0.65431 0.03196 0.75871 0.0
H712 H 0.71884 0.12322 0.72919 0.0
H713 H 0.62578 0.07133 0.81062 0.0
H714 H 0.67871 0.0651 0.7483 0.0
H715 H 0.67231 0.12794 0.79727 0.0
C716 C 0.69764 0.14541 0.7773 0.0
C717 C 0.71128 0.14445 0.75823 0.0
C718 C 0.66707 0.06652 0.76193 0.0
C719 C 0.68088 0.10727 0.76814 0.0
C720 C 0.65319 0.04757 0.76797 0.0
C721 C 0.63799 0.04885 0.78562 0.0
C722 C 0.6659 0.08692 0.77372 0.0
C723 C 0.63725 0.06956 0.79692 0.0
C724 C 0.68239 0.12693 0.78224 0.0
C725 C 0.7087 0.12472 0.74408 0.0
N726 N 0.65106 0.08777 0.79083 0.0
N727 N 0.69394 0.10688 0.74944 0.0
H728 H 0.37457 0.98455 0.53398 0.0
H729 H 0.33768 0.10536 0.52997 0.0
H730 H 0.42362 0.04388 0.53312 0.0
H731 H 0.29021 0.04518 0.51358 0.0
H732 H 0.36928 0.08337 0.53501 0.0
H733 H 0.34326 0.00682 0.53026 0.0
C734 C 0.37877 0.00227 0.53303 0.0
C735 C 0.40176 0.01236 0.53379 0.0
C736 C 0.35194 0.07501 0.53031 0.0
C737 C 0.36596 0.03798 0.52965 0.0
C738 C 0.33388 0.08754 0.52751 0.0
C739 C 0.31127 0.0771 0.52129 0.0
C740 C 0.34729 0.05188 0.5271 0.0
C741 C 0.30737 0.05396 0.51829 0.0
C742 C 0.36087 0.01497 0.53086 0.0
C743 C 0.40615 0.0354 0.5325 0.0
N744 N 0.32518 0.04214 0.52126 0.0
N745 N 0.38842 0.04745 0.53055 0.0
H746 H 0.60867 0.49189 0.56259 0.0
H747 H 0.66912 0.40552 0.48855 0.0
H748 H 0.58004 0.46142 0.49469 0.0
H749 H 0.6895 0.42488 0.56206 0.0
H750 H 0.63802 0.42799 0.48954 0.0
H751 H 0.64011 0.46968 0.56171 0.0
C752 C 0.60902 0.48059 0.54746 0.0
C753 C 0.59166 0.47851 0.52868 0.0
C754 C 0.64926 0.4273 0.50548 0.0
C755 C 0.62764 0.45305 0.52757 0.0
C756 C 0.66707 0.41449 0.50492 0.0
C757 C 0.68196 0.41328 0.52527 0.0
C758 C 0.64637 0.43918 0.52647 0.0
C759 C 0.6784 0.42527 0.54597 0.0
C760 C 0.62694 0.46786 0.54701 0.0
C761 C 0.59301 0.46354 0.50957 0.0
N762 N 0.66103 0.43778 0.54602 0.0
N763 N 0.61069 0.45144 0.50948 0.0
H764 H 0.75399 0.26149 0.38119 0.0
H765 H 0.70708 0.32678 0.48819 0.0
H766 H 0.68266 0.25406 0.39626 0.0
H767 H 0.77798 0.33706 0.47167 0.0
H768 H 0.69841 0.29827 0.45606 0.0
H769 H 0.7638 0.28706 0.41605 0.0
C770 C 0.74042 0.26504 0.39194 0.0
C771 C 0.71744 0.2557 0.38567 0.0
C772 C 0.71589 0.30672 0.45948 0.0
C773 C 0.72852 0.28507 0.42547 0.0
C774 C 0.72084 0.32304 0.47783 0.0
C775 C 0.74327 0.33442 0.48259 0.0
C776 C 0.73347 0.30169 0.44573 0.0
C777 C 0.76042 0.32878 0.46859 0.0
C778 C 0.74603 0.27972 0.41178 0.0
C779 C 0.70059 0.26095 0.40028 0.0
N780 N 0.75515 0.31286 0.45077 0.0
N781 N 0.70646 0.27534 0.41938 0.0
H782 H 0.48268 0.00637 0.92191 0.0
H783 H 0.60849 -0.00761 0.88459 0.0
H784 H 0.54375 0.01554 0.97089 0.0
H785 H 0.54824 -0.01188 0.83495 0.0
H786 H 0.58459 -0.00177 0.91689 0.0
H787 H 0.50592 -0.00328 0.89035 0.0
C788 C 0.50094 0.00621 0.92609 0.0
C789 C 0.51128 0.01191 0.9491 0.0
C790 C 0.57659 -0.00405 0.89893 0.0
C791 C 0.53804 0.00096 0.91296 0.0
C792 C 0.59023 -0.00739 0.88047 0.0
C793 C 0.58039 -0.01015 0.85699 0.0
C794 C 0.5529 -0.00349 0.89391 0.0
C795 C 0.55661 -0.00975 0.85275 0.0
C796 C 0.51422 0.00075 0.90803 0.0
C797 C 0.53503 0.01137 0.95342 0.0
N798 N 0.54371 -0.00643 0.87101 0.0
N799 N 0.54761 0.00609 0.93551 0.0
H800 H 0.30276 0.24152 0.37358 0.0
H801 H 0.22263 0.14793 0.43511 0.0
H802 H 0.22924 0.22547 0.35691 0.0
H803 H 0.29348 0.17108 0.46034 0.0
H804 H 0.22614 0.17309 0.40306 0.0
H805 H 0.30098 0.21265 0.40214 0.0
C806 C 0.28628 0.23183 0.37576 0.0
C807 C 0.26609 0.23605 0.36293 0.0
C808 C 0.24096 0.17261 0.41554 0.0
C809 C 0.26395 0.20302 0.39558 0.0
C810 C 0.23899 0.1582 0.43385 0.0
C811 C 0.25774 0.15749 0.45057 0.0
C812 C 0.26186 0.18643 0.41385 0.0
C813 C 0.27853 0.17116 0.44793 0.0
C814 C 0.28527 0.2154 0.39213 0.0
C815 C 0.24523 0.22294 0.36651 0.0
N816 N 0.28 0.18514 0.42998 0.0
N817 N 0.2447 0.20709 0.38253 0.0
H818 H 0.46443 0.4718 0.9511 0.0
H819 H 0.4459 0.5182 0.8223 0.0
H820 H 0.51918 0.50568 0.91436 0.0
H821 H 0.39136 0.48121 0.85677 0.0
H822 H 0.47293 0.51379 0.85608 0.0
H823 H 0.43729 0.47493 0.91682 0.0
C824 C 0.47076 0.47984 0.93582 0.0
C825 C 0.49411 0.48854 0.93563 0.0
C826 C 0.45505 0.50661 0.85627 0.0
C827 C 0.46316 0.49223 0.8964 0.0
C828 C 0.43959 0.50915 0.83698 0.0
C829 C 0.41631 0.50009 0.83671 0.0
C830 C 0.4472 0.49496 0.8755 0.0
C831 C 0.40915 0.48849 0.85622 0.0
C832 C 0.45526 0.48162 0.91626 0.0
C833 C 0.50134 0.49875 0.91533 0.0
N834 N 0.42453 0.48629 0.87484 0.0
N835 N 0.48593 0.50036 0.89659 0.0
H836 H 0.74005 0.74031 0.166 0.0
H837 H 0.72183 0.69225 0.03139 0.0
H838 H 0.69643 0.76501 0.11161 0.0
H839 H 0.76937 0.66993 0.0838 0.0
H840 H 0.71251 0.719 0.06078 0.0
H841 H 0.75113 0.71441 0.13645 0.0
C842 C 0.73283 0.74032 0.14785 0.0
C843 C 0.71725 0.75484 0.14129 0.0
C844 C 0.72503 0.70832 0.06589 0.0
C845 C 0.72984 0.72522 0.1074 0.0
C846 C 0.73037 0.69299 0.04909 0.0
C847 C 0.74639 0.67877 0.05514 0.0
C848 C 0.7357 0.70945 0.08902 0.0
C849 C 0.75693 0.68058 0.07836 0.0
C850 C 0.73918 0.72554 0.13099 0.0
C851 C 0.70847 0.75412 0.1175 0.0
N852 N 0.75133 0.69559 0.09449 0.0
N853 N 0.71484 0.73954 0.10147 0.0
H854 H -0.00761 0.01038 0.12934 0.0
H855 H 0.90021 0.05431 0.20922 0.0
H856 H 0.96962 0.07413 0.12383 0.0
H857 H 0.9211 -0.01025 0.21453 0.0
H858 H 0.92593 0.06178 0.17806 0.0
H859 H 0.9668 0.00242 0.16078 0.0
C860 C 0.98204 0.0227 0.13474 0.0
C861 C 0.98316 0.04295 0.12392 0.0
C862 C 0.92491 0.04597 0.18602 0.0
C863 C 0.95386 0.03396 0.15984 0.0
C864 C 0.9102 0.04169 0.20384 0.0
C865 C 0.90848 0.02137 0.21454 0.0
C866 C 0.93806 0.02983 0.17877 0.0
C867 C 0.92188 0.00565 0.20679 0.0
C868 C 0.96743 0.01814 0.15267 0.0
C869 C 0.96934 0.05829 0.13163 0.0
N870 N 0.93611 0.01021 0.18939 0.0
N871 N 0.9553 0.05348 0.14908 0.0
H872 H 0.26846 0.73766 0.15584 0.0
H873 H 0.23189 0.84889 0.10472 0.0
H874 H 0.24288 0.78734 0.19854 0.0
H875 H 0.25979 0.79979 0.06339 0.0
H876 H 0.23588 0.82687 0.13938 0.0
H877 H 0.2655 0.76046 0.12187 0.0
C878 C 0.26225 0.75338 0.1581 0.0
C879 C 0.25588 0.76056 0.1801 0.0
C880 C 0.24116 0.82095 0.12273 0.0
C881 C 0.25241 0.78682 0.14116 0.0
C882 C 0.23889 0.83352 0.10292 0.0
C883 C 0.24549 0.82618 0.08107 0.0
C884 C 0.25006 0.80088 0.12067 0.0
C885 C 0.25445 0.80612 0.07983 0.0
C886 C 0.26056 0.76642 0.13866 0.0
C887 C 0.24797 0.78113 0.18192 0.0
N888 N 0.25643 0.79419 0.09931 0.0
N889 N 0.24641 0.79351 0.16271 0.0
H890 H -0.00998 0.49986 0.12627 0.0
H891 H 0.06461 0.45333 0.23195 0.0
H892 H 0.00849 0.43403 0.1254 0.0
H893 H 0.04807 0.51986 0.23312 0.0
H894 H 0.04246 0.4456 0.19361 0.0
H895 H 0.00968 0.50719 0.16606 0.0
C896 C -0.00185 0.48693 0.13444 0.0
C897 C -0.00234 0.46631 0.12241 0.0
C898 C 0.04359 0.46188 0.20226 0.0
C899 C 0.02016 0.4746 0.16793 0.0
C900 C 0.05624 0.46631 0.22419 0.0
C901 C 0.05828 0.48731 0.23575 0.0
C902 C 0.0329 0.47857 0.1917 0.0
C903 C 0.047 0.50344 0.22483 0.0
C904 C 0.00937 0.49113 0.15716 0.0
C905 C 0.00846 0.45019 0.13392 0.0
N906 N 0.03486 0.49876 0.20337 0.0
N907 N 0.01928 0.4547 0.15597 0.0
H908 H 0.32405 0.74258 0.29802 0.0
H909 H 0.44974 0.7087 0.32516 0.0
H910 H 0.35262 0.69698 0.25269 0.0
H911 H 0.41359 0.74045 0.37697 0.0
H912 H 0.4164 0.70814 0.29625 0.0
H913 H 0.35925 0.7464 0.32474 0.0
C914 C 0.33781 0.73357 0.29352 0.0
C915 C 0.33529 0.71932 0.27314 0.0
C916 C 0.41581 0.71523 0.31395 0.0
C917 C 0.37559 0.72353 0.30375 0.0
C918 C 0.43481 0.71555 0.33046 0.0
C919 C 0.4344 0.72452 0.35357 0.0
C920 C 0.39636 0.72413 0.32053 0.0
C921 C 0.41462 0.73322 0.35942 0.0
C922 C 0.35786 0.73566 0.30887 0.0
C923 C 0.35374 0.70804 0.26827 0.0
N924 N 0.39642 0.73284 0.34301 0.0
N925 N 0.37307 0.71033 0.28351 0.0
H926 H 0.97219 0.39007 0.97912 0.0
H927 H 0.00454 0.26851 0.95589 0.0
H928 H -0.00758 0.34879 0.03451 0.0
H929 H 0.9872 0.3103 0.89987 0.0
H930 H -0.00027 0.29774 0.9849 0.0
H931 H 0.97687 0.36094 0.94972 0.0
C932 C 0.97755 0.37488 0.98511 0.0
C933 C 0.98194 0.37189 0.00933 0.0
C934 C -0.003 0.30056 0.96626 0.0
C935 C 0.98737 0.33852 0.9758 0.0
C936 C -0.00023 0.28386 0.94967 0.0
C937 C -0.00373 0.28694 0.92539 0.0
C938 C -0.00936 0.32052 0.95856 0.0
C939 C -0.0099 0.30719 0.9184 0.0
C940 C 0.98026 0.35827 0.96832 0.0
C941 C 0.98887 0.35187 0.01605 0.0
N942 N 0.98744 0.32319 0.9349 0.0
N943 N -0.00863 0.33599 -0.00061 0.0
H944 H 0.64021 0.75254 0.25611 0.0
H945 H 0.56717 0.76121 0.3683 0.0
H946 H 0.65836 0.80131 0.31428 0.0
H947 H 0.54865 0.7111 0.31147 0.0
H948 H 0.60099 0.77565 0.34872 0.0
H949 H 0.60693 0.73659 0.27609 0.0
C950 C 0.63724 0.75986 0.27309 0.0
C951 C 0.65208 0.77832 0.28351 0.0
C952 C 0.58957 0.76147 0.34051 0.0
C953 C 0.61405 0.76021 0.30641 0.0
C954 C 0.57022 0.75321 0.35169 0.0
C955 C 0.555 0.73492 0.3415 0.0
C956 C 0.59381 0.75144 0.3189 0.0
C957 C 0.5599 0.72524 0.31996 0.0
C958 C 0.61824 0.75075 0.28448 0.0
C959 C 0.6474 0.78711 0.30554 0.0
N960 N 0.57887 0.73365 0.30935 0.0
N961 N 0.6288 0.778 0.3162 0.0
H962 H 0.0539 0.11051 0.03304 0.0
H963 H 0.00403 0.15523 0.91255 0.0
H964 H 0.02341 0.0672 0.97337 0.0
H965 H 0.04884 0.19635 0.96587 0.0
H966 H 0.01007 0.1228 0.93469 0.0
H967 H 0.05176 0.14216 0.00875 0.0
C968 C 0.04693 0.10763 0.01475 0.0
C969 C 0.03874 0.08615 0.00526 0.0
C970 C 0.01866 0.13891 0.94145 0.0
C971 C 0.03596 0.12244 0.97738 0.0
C972 C 0.01515 0.15745 0.92888 0.0
C973 C 0.02587 0.17857 0.93741 0.0
C974 C 0.03281 0.14153 0.96283 0.0
C975 C 0.04019 0.18042 0.95862 0.0
C976 C 0.04572 0.12573 0.00088 0.0
C977 C 0.02996 0.08346 0.98141 0.0
N978 N 0.04311 0.16218 0.97065 0.0
N979 N 0.02858 0.10141 0.96835 0.0
H980 H 0.36584 0.3033 0.28499 0.0
H981 H 0.38343 0.25197 0.15661 0.0
H982 H 0.31027 0.26858 0.23739 0.0
H983 H 0.43911 0.28468 0.20545 0.0
H984 H 0.35623 0.25864 0.18551 0.0
H985 H 0.39278 0.29738 0.25563 0.0
C986 C 0.35928 0.29445 0.26835 0.0
C987 C 0.33574 0.28641 0.26367 0.0
C988 C 0.37439 0.26437 0.1899 0.0
C989 C 0.36655 0.27955 0.22992 0.0
C990 C 0.38995 0.26059 0.17339 0.0
C991 C 0.41362 0.26775 0.1786 0.0
C992 C 0.38253 0.27544 0.2118 0.0
C993 C 0.42104 0.27883 0.20065 0.0
C994 C 0.37469 0.29106 0.25158 0.0
C995 C 0.32826 0.27506 0.24178 0.0
N996 N 0.40556 0.28231 0.21641 0.0
N997 N 0.34361 0.27196 0.22573 0.0
H998 H 0.50939 0.41586 0.04585 0.0
H999 H 0.52553 0.29135 0.0729 0.0
H1000 H 0.54948 0.37652 0.00541 0.0
H1001 H 0.48248 0.32938 0.11104 0.0
H1002 H 0.53521 0.32269 0.04863 0.0
H1003 H 0.50013 0.38473 0.07058 0.0
C1004 C 0.51628 0.40069 0.04218 0.0
C1005 C 0.53022 0.3988 0.0235 0.0
C1006 C 0.52364 0.32419 0.0623 0.0
C1007 C 0.51966 0.36306 0.05176 0.0
C1008 C 0.5181 0.30629 0.07619 0.0
C1009 C 0.50313 0.3077 0.09404 0.0
C1010 C 0.5142 0.34373 0.06628 0.0
C1011 C 0.49406 0.32751 0.09747 0.0
C1012 C 0.51096 0.3829 0.0563 0.0
C1013 C 0.53865 0.37873 0.01959 0.0
N1014 N 0.49974 0.34474 0.08373 0.0
N1015 N 0.53324 0.36165 0.03359 0.0
H1016 H 0.64829 0.28113 0.26102 0.0
H1017 H 0.52892 0.23368 0.18658 0.0
H1018 H 0.61647 0.21311 0.26025 0.0
H1019 H 0.55987 0.30208 0.18906 0.0
H1020 H 0.56203 0.22534 0.21151 0.0
H1021 H 0.61743 0.28849 0.23244 0.0
C1022 C 0.6349 0.26768 0.25472 0.0
C1023 C 0.6349 0.24649 0.26318 0.0
C1024 C 0.56162 0.24216 0.20655 0.0
C1025 C 0.5994 0.25487 0.23049 0.0
C1026 C 0.5427 0.24696 0.19231 0.0
C1027 C 0.54154 0.26866 0.18581 0.0
C1028 C 0.57956 0.25917 0.21439 0.0
C1029 C 0.55997 0.28514 0.19371 0.0
C1030 C 0.61725 0.27192 0.23841 0.0
C1031 C 0.61714 0.22971 0.25429 0.0
N1032 N 0.57817 0.28006 0.20764 0.0
N1033 N 0.60003 0.2343 0.23853 0.0
H1034 H 0.47294 0.08544 0.07928 0.0
H1035 H 0.45633 0.21287 0.08478 0.0
H1036 H 0.45995 0.12194 0.01748 0.0
H1037 H 0.46588 0.17553 0.14664 0.0
H1038 H 0.45463 0.17902 0.05988 0.0
H1039 H 0.46752 0.11748 0.10427 0.0
C1040 C 0.46878 0.10012 0.07095 0.0
C1041 C 0.4671 0.10105 0.04623 0.0
C1042 C 0.45691 0.17819 0.07891 0.0
C1043 C 0.46098 0.13786 0.07477 0.0
C1044 C 0.45786 0.19752 0.09315 0.0
C1045 C 0.46145 0.19709 0.11785 0.0
C1046 C 0.45968 0.15827 0.08941 0.0
C1047 C 0.46322 0.17669 0.12769 0.0
C1048 C 0.46569 0.11843 0.08524 0.0
C1049 C 0.46156 0.1205 0.03645 0.0
N1050 N 0.46251 0.15815 0.11344 0.0
N1051 N 0.45888 0.13818 0.05074 0.0
H1052 H 0.27142 0.35798 0.77437 0.0
H1053 H 0.33045 0.45886 0.70495 0.0
H1054 H 0.26098 0.36177 0.69862 0.0
H1055 H 0.33991 0.45403 0.78062 0.0
H1056 H 0.30545 0.42317 0.7019 0.0
H1057 H 0.29728 0.39286 0.77659 0.0
C1058 C 0.27462 0.3661 0.75816 0.0
C1059 C 0.26394 0.35691 0.73627 0.0
C1060 C 0.31302 0.42994 0.71916 0.0
C1061 C 0.29358 0.39706 0.73872 0.0
C1062 C 0.32727 0.45032 0.72092 0.0
C1063 C 0.33728 0.45948 0.74308 0.0
C1064 C 0.30876 0.41864 0.73971 0.0
C1065 C 0.33257 0.44765 0.76316 0.0
C1066 C 0.2894 0.38607 0.75945 0.0
C1067 C 0.26881 0.36823 0.71588 0.0
N1068 N 0.31867 0.42789 0.76098 0.0
N1069 N 0.28323 0.38776 0.71761 0.0
H1070 H 0.30537 0.66944 0.79897 0.0
H1071 H 0.31142 0.54098 0.81509 0.0
H1072 H 0.25452 0.62633 0.83222 0.0
H1073 H 0.35993 0.58311 0.778 0.0
H1074 H 0.29162 0.57254 0.82353 0.0
H1075 H 0.32701 0.6386 0.79348 0.0
C1076 C 0.29883 0.65353 0.80529 0.0
C1077 C 0.27804 0.65046 0.816 0.0
C1078 C 0.30661 0.5749 0.81358 0.0
C1079 C 0.30269 0.61502 0.80964 0.0
C1080 C 0.31794 0.55687 0.80873 0.0
C1081 C 0.33734 0.55936 0.79573 0.0
C1082 C 0.31474 0.59564 0.80541 0.0
C1083 C 0.34501 0.58038 0.78801 0.0
C1084 C 0.31118 0.63591 0.80208 0.0
C1085 C 0.27043 0.62946 0.82382 0.0
N1086 N 0.33367 0.59769 0.79294 0.0
N1087 N 0.2827 0.61254 0.8204 0.0
H1088 H 0.92014 0.48446 0.54878 0.0
H1089 H 0.78944 0.42974 0.51263 0.0
H1090 H 0.87849 0.50269 0.48873 0.0
H1091 H 0.82957 0.41399 0.575 0.0
H1092 H 0.82227 0.45577 0.50304 0.0
H1093 H 0.88761 0.45777 0.55805 0.0
C1094 C 0.90418 0.48283 0.5375 0.0
C1095 C 0.90205 0.49587 0.51795 0.0
C1096 C 0.82392 0.44663 0.51883 0.0
C1097 C 0.8647 0.46533 0.52849 0.0
C1098 C 0.80515 0.43174 0.52433 0.0
C1099 C 0.80671 0.41965 0.54469 0.0
C1100 C 0.84447 0.44949 0.53375 0.0
C1101 C 0.82755 0.42296 0.55914 0.0
C1102 C 0.88559 0.46759 0.54283 0.0
C1103 C 0.88093 0.49302 0.50399 0.0
N1104 N 0.8456 0.43755 0.55339 0.0
N1105 N 0.8631 0.47808 0.50953 0.0
H1106 H 0.68556 0.82998 0.78605 0.0
H1107 H 0.68751 0.95904 0.81784 0.0
H1108 H 0.74103 0.87028 0.82909 0.0
H1109 H 0.62845 0.91656 0.78312 0.0
H1110 H 0.70855 0.92736 0.81968 0.0
H1111 H 0.66572 0.86226 0.78202 0.0
C1112 C 0.69365 0.84564 0.79454 0.0
C1113 C 0.71497 0.84738 0.80803 0.0
C1114 C 0.69099 0.92498 0.81165 0.0
C1115 C 0.69227 0.88443 0.80354 0.0
C1116 C 0.67896 0.94307 0.81059 0.0
C1117 C 0.65614 0.94046 0.80037 0.0
C1118 C 0.68018 0.90412 0.80233 0.0
C1119 C 0.64597 0.91935 0.79124 0.0
C1120 C 0.68227 0.86406 0.79229 0.0
C1121 C 0.7246 0.86813 0.8186 0.0
N1122 N 0.65806 0.90202 0.79243 0.0
N1123 N 0.71316 0.88582 0.81618 0.0
H1124 H 0.59595 0.52393 0.04373 0.0
H1125 H 0.716 0.56865 -0.00555 0.0
H1126 H 0.62306 0.4917 0.98525 0.0
H1127 H 0.69523 0.59248 0.06091 0.0
H1128 H 0.68179 0.54062 0.99048 0.0
H1129 H 0.63215 0.54921 0.05039 0.0
C1130 C 0.60958 0.52202 0.03242 0.0
C1131 C 0.6064 0.50572 0.01382 0.0
C1132 C 0.68478 0.55191 0.00599 0.0
C1133 C 0.6478 0.53479 0.02118 0.0
C1134 C 0.70426 0.56798 0.00822 0.0
C1135 C 0.70846 0.58299 0.02801 0.0
C1136 C 0.66924 0.55095 0.02356 0.0
C1137 C 0.69269 0.58127 0.04535 0.0
C1138 C 0.63025 0.53648 0.03623 0.0
C1139 C 0.62471 0.50402 -0.00022 0.0
N1140 N 0.67373 0.56563 0.04265 0.0
N1141 N 0.64453 0.51851 0.00361 0.0
H1142 H 0.21529 0.64712 0.28564 0.0
H1143 H 0.15367 0.52873 0.23141 0.0
H1144 H 0.21941 0.62336 0.21364 0.0
H1145 H 0.1473 0.55358 0.30253 0.0
H1146 H 0.17691 0.56367 0.22425 0.0
H1147 H 0.18918 0.6136 0.29168 0.0
C1148 C 0.21058 0.63493 0.27103 0.0
C1149 C 0.21967 0.63803 0.24913 0.0
C1150 C 0.17039 0.56151 0.24141 0.0
C1151 C 0.18986 0.59946 0.256 0.0
C1152 C 0.15715 0.54153 0.24554 0.0
C1153 C 0.14858 0.53817 0.26764 0.0
C1154 C 0.17518 0.57829 0.25952 0.0
C1155 C 0.15359 0.55541 0.28523 0.0
C1156 C 0.19568 0.61576 0.27451 0.0
C1157 C 0.21288 0.62167 0.23084 0.0
N1158 N 0.16661 0.57469 0.28081 0.0
N1159 N 0.1985 0.60304 0.23473 0.0
H1160 H 0.87814 0.49003 0.06153 0.0
H1161 H 0.83957 0.60344 0.01952 0.0
H1162 H 0.92291 0.53942 0.02868 0.0
H1163 H 0.79906 0.55777 0.06086 0.0
H1164 H 0.87016 0.58017 0.02213 0.0
H1165 H 0.84864 0.51439 0.06054 0.0
C1166 C 0.88177 0.50599 0.05407 0.0
C1167 C 0.90303 0.51267 0.04513 0.0
C1168 C 0.85462 0.57531 0.03072 0.0
C1169 C 0.86928 0.5407 0.04397 0.0
C1170 C 0.83715 0.5886 0.02926 0.0
C1171 C 0.81667 0.58253 0.03994 0.0
C1172 C 0.85155 0.55574 0.04283 0.0
C1173 C 0.81452 0.56311 0.05233 0.0
C1174 C 0.86493 0.51993 0.05358 0.0
C1175 C 0.90676 0.53358 0.03576 0.0
N1176 N 0.83167 0.55038 0.05333 0.0
N1177 N 0.89003 0.54683 0.03536 0.0
H1178 H 0.06282 0.95149 0.00097 0.0
H1179 H 0.18741 0.92487 0.04872 0.0
H1180 H 0.10716 -0.00866 0.05562 0.0
H1181 H 0.14171 0.88326 -0.00349 0.0
H1182 H 0.15854 0.94976 0.05094 0.0
H1183 H 0.09188 0.92682 -0.00162 0.0
C1184 C 0.07869 0.9551 0.01239 0.0
C1185 C 0.08252 0.97353 0.02856 0.0
C1186 C 0.15481 0.93518 0.03901 0.0
C1187 C 0.11591 0.94527 0.02571 0.0
C1188 C 0.1713 0.92093 0.03773 0.0
C1189 C 0.16701 0.9019 0.02241 0.0
C1190 C 0.13383 0.93044 0.02483 0.0
C1191 C 0.14579 0.8977 0.0086 0.0
C1192 C 0.09527 0.94097 0.01093 0.0
C1193 C 0.10343 0.97734 0.04291 0.0
N1194 N 0.13003 0.91185 0.01013 0.0
N1195 N 0.11931 0.96334 0.04116 0.0
loop_
_geom_bond_atom_site_label_1
_geom_bond_atom_site_label_2
_geom_bond_distance
_geom_bond_site_symmetry_2
_ccdc_geom_bond_type
O0 Cd1 2.300 . S
O0 C7 1.275 . S
Cd1 O0 2.300 . S
Cd1 O9 2.381 . S
Cd1 O10 2.378 . S
O2 Cd3 2.385 . S
O2 C7 1.255 . S
Cd3 O2 2.385 . S
Cd3 O4 2.317 . S
O4 Cd3 2.317 . S
O4 C5 1.232 1_455 S
C5 O4 1.232 1_655 S
C5 O6 1.218 . S
O6 C5 1.218 . S
C7 O0 1.275 . S
C7 O2 1.255 . S
C8 O9 1.258 . S
C8 O10 1.256 . S
O9 Cd1 2.381 . S
O9 C8 1.258 . S
O10 Cd1 2.378 . S
O10 C8 1.256 . S
O11 Cd12 2.300 . S
O11 C18 1.275 . S
Cd12 O11 2.300 . S
Cd12 O20 2.381 . S
Cd12 O21 2.378 . S
O13 Cd14 2.385 . S
O13 C18 1.255 . S
Cd14 O13 2.385 . S
Cd14 O15 2.317 . S
O15 Cd14 2.317 . S
O15 C16 1.232 . S
C16 O15 1.232 . S
C16 O17 1.218 . S
O17 C16 1.218 . S
C18 O11 1.275 . S
C18 O13 1.255 . S
C19 O20 1.258 . S
C19 O21 1.256 . S
O20 Cd12 2.381 . S
O20 C19 1.258 . S
O21 Cd12 2.378 . S
O21 C19 1.256 . S
O22 Cd23 2.300 . S
O22 C29 1.275 . S
Cd23 O22 2.300 . S
Cd23 O31 2.381 . S
Cd23 O32 2.378 . S
O24 Cd25 2.385 1_655 S
O24 C29 1.255 . S
Cd25 O24 2.385 1_455 S
Cd25 O26 2.317 1_455 S
O26 Cd25 2.317 1_655 S
O26 C27 1.232 . S
C27 O26 1.232 . S
C27 O28 1.218 1_655 S
O28 C27 1.218 1_455 S
C29 O22 1.275 . S
C29 O24 1.255 . S
C30 O31 1.258 . S
C30 O32 1.256 . S
O31 Cd23 2.381 . S
O31 C30 1.258 . S
O32 Cd23 2.378 . S
O32 C30 1.256 . S
O33 Cd34 2.300 . S
O33 C40 1.275 . S
Cd34 O33 2.300 . S
Cd34 O42 2.381 . S
Cd34 O43 2.378 . S
O35 Cd36 2.385 . S
O35 C40 1.255 . S
Cd36 O35 2.385 . S
Cd36 O37 2.317 . S
O37 Cd36 2.317 . S
O37 C38 1.232 . S
C38 O37 1.232 . S
C38 O39 1.218 . S
O39 C38 1.218 . S
C40 O33 1.275 . S
C40 O35 1.255 . S
C41 O42 1.258 . S
C41 O43 1.256 . S
O42 Cd34 2.381 . S
O42 C41 1.258 . S
O43 Cd34 2.378 . S
O43 C41 1.256 . S
O44 Cd45 2.300 . S
O44 C51 1.275 1_565 S
Cd45 O44 2.300 . S
Cd45 O53 2.381 . S
Cd45 O54 2.378 . S
O46 Cd47 2.385 . S
O46 C51 1.255 . S
Cd47 O46 2.385 . S
Cd47 O48 2.317 1_545 S
O48 Cd47 2.317 1_565 S
O48 C49 1.232 1_565 S
C49 O48 1.232 1_545 S
C49 O50 1.218 . S
O50 C49 1.218 . S
C51 O44 1.275 1_545 S
C51 O46 1.255 . S
C52 O53 1.258 . S
C52 O54 1.256 . S
O53 Cd45 2.381 . S
O53 C52 1.258 . S
O54 Cd45 2.378 . S
O54 C52 1.256 . S
O55 Cd56 2.300 . S
O55 C62 1.275 . S
Cd56 O55 2.300 . S
Cd56 O64 2.381 . S
Cd56 O65 2.378 . S
O57 Cd58 2.385 . S
O57 C62 1.255 . S
Cd58 O57 2.385 . S
Cd58 O59 2.317 . S
O59 Cd58 2.317 . S
O59 C60 1.232 . S
C60 O59 1.232 . S
C60 O61 1.218 . S
O61 C60 1.218 . S
C62 O55 1.275 . S
C62 O57 1.255 . S
C63 O64 1.258 . S
C63 O65 1.256 . S
O64 Cd56 2.381 . S
O64 C63 1.258 . S
O65 Cd56 2.378 . S
O65 C63 1.256 . S
O66 Cd67 2.300 . S
O66 C73 1.275 . S
Cd67 O66 2.300 . S
Cd67 O75 2.381 . S
Cd67 O76 2.378 . S
O68 Cd69 2.385 . S
O68 C73 1.255 1_455 S
Cd69 O68 2.385 . S
Cd69 O70 2.317 1_455 S
O70 Cd69 2.317 1_655 S
O70 C71 1.232 1_655 S
C71 O70 1.232 1_455 S
C71 O72 1.218 . S
O72 C71 1.218 . S
C73 O66 1.275 . S
C73 O68 1.255 1_655 S
C74 O75 1.258 . S
C74 O76 1.256 . S
O75 Cd67 2.381 . S
O75 C74 1.258 . S
O76 Cd67 2.378 . S
O76 C74 1.256 . S
O77 Cd78 2.300 . S
O77 C84 1.275 . S
Cd78 O77 2.300 . S
Cd78 O86 2.381 . S
Cd78 O87 2.378 . S
O79 Cd80 2.385 . S
O79 C84 1.255 . S
Cd80 O79 2.385 . S
Cd80 O81 2.317 . S
O81 Cd80 2.317 . S
O81 C82 1.232 . S
C82 O81 1.232 . S
C82 O83 1.218 . S
O83 C82 1.218 . S
C84 O77 1.275 . S
C84 O79 1.255 . S
C85 O86 1.258 . S
C85 O87 1.256 . S
O86 Cd78 2.381 . S
O86 C85 1.258 . S
O87 Cd78 2.378 . S
O87 C85 1.256 . S
O88 Cd89 2.300 . S
O88 C95 1.275 . S
Cd89 O88 2.300 . S
Cd89 O97 2.381 . S
Cd89 O98 2.378 . S
O90 Cd91 2.385 . S
O90 C95 1.255 . S
Cd91 O90 2.385 . S
Cd91 O92 2.317 . S
O92 Cd91 2.317 . S
O92 C93 1.232 . S
C93 O92 1.232 . S
C93 O94 1.218 . S
O94 C93 1.218 . S
C95 O88 1.275 . S
C95 O90 1.255 . S
C96 O97 1.258 . S
C96 O98 1.256 . S
O97 Cd89 2.381 . S
O97 C96 1.258 . S
O98 Cd89 2.378 . S
O98 C96 1.256 . S
O99 Cd100 2.300 1_565 S
O99 C106 1.275 . S
Cd100 O99 2.300 1_545 S
Cd100 O108 2.381 . S
Cd100 O109 2.378 . S
O101 Cd102 2.385 . S
O101 C106 1.255 . S
Cd102 O101 2.385 . S
Cd102 O103 2.317 . S
O103 Cd102 2.317 . S
O103 C104 1.232 . S
C104 O103 1.232 . S
C104 O105 1.218 . S
O105 C104 1.218 . S
C106 O99 1.275 . S
C106 O101 1.255 . S
C107 O108 1.258 . S
C107 O109 1.256 . S
O108 Cd100 2.381 . S
O108 C107 1.258 . S
O109 Cd100 2.378 . S
O109 C107 1.256 . S
O110 Cd111 2.300 . S
O110 C117 1.275 . S
Cd111 O110 2.300 . S
Cd111 O119 2.381 . S
Cd111 O120 2.378 . S
O112 Cd113 2.385 . S
O112 C117 1.255 . S
Cd113 O112 2.385 . S
Cd113 O114 2.317 . S
O114 Cd113 2.317 . S
O114 C115 1.232 . S
C115 O114 1.232 . S
C115 O116 1.218 . S
O116 C115 1.218 . S
C117 O110 1.275 . S
C117 O112 1.255 . S
C118 O119 1.258 . S
C118 O120 1.256 . S
O119 Cd111 2.381 . S
O119 C118 1.258 . S
O120 Cd111 2.378 . S
O120 C118 1.256 . S
O121 Cd122 2.300 . S
O121 C128 1.275 . S
Cd122 O121 2.300 . S
Cd122 O130 2.381 . S
Cd122 O131 2.378 . S
O123 Cd124 2.385 . S
O123 C128 1.255 . S
Cd124 O123 2.385 . S
Cd124 O125 2.317 . S
O125 Cd124 2.317 . S
O125 C126 1.232 . S
C126 O125 1.232 . S
C126 O127 1.218 . S
O127 C126 1.218 . S
C128 O121 1.275 . S
C128 O123 1.255 . S
C129 O130 1.258 . S
C129 O131 1.256 . S
O130 Cd122 2.381 . S
O130 C129 1.258 . S
O131 Cd122 2.378 . S
O131 C129 1.256 . S
O132 Cd133 2.300 . S
O132 C139 1.275 . S
Cd133 O132 2.300 . S
Cd133 O141 2.381 . S
Cd133 O142 2.378 . S
O134 Cd135 2.385 . S
O134 C139 1.255 . S
Cd135 O134 2.385 . S
Cd135 O136 2.317 . S
O136 Cd135 2.317 . S
O136 C137 1.232 . S
C137 O136 1.232 . S
C137 O138 1.218 . S
O138 C137 1.218 . S
C139 O132 1.275 . S
C139 O134 1.255 . S
C140 O141 1.258 . S
C140 O142 1.256 . S
O141 Cd133 2.381 . S
O141 C140 1.258 . S
O142 Cd133 2.378 . S
O142 C140 1.256 . S
O143 Cd144 2.300 1_556 S
O143 C150 1.275 . S
Cd144 O143 2.300 1_554 S
Cd144 O152 2.381 . S
Cd144 O153 2.378 . S
O145 Cd146 2.385 . S
O145 C150 1.255 . S
Cd146 O145 2.385 . S
Cd146 O147 2.317 . S
O147 Cd146 2.317 . S
O147 C148 1.232 . S
C148 O147 1.232 . S
C148 O149 1.218 . S
O149 C148 1.218 . S
C150 O143 1.275 . S
C150 O145 1.255 . S
C151 O152 1.258 . S
C151 O153 1.256 . S
O152 Cd144 2.381 . S
O152 C151 1.258 . S
O153 Cd144 2.378 . S
O153 C151 1.256 . S
O154 Cd155 2.300 . S
O154 C161 1.275 . S
Cd155 O154 2.300 . S
Cd155 O163 2.381 . S
Cd155 O164 2.378 . S
O156 Cd157 2.385 . S
O156 C161 1.255 . S
Cd157 O156 2.385 . S
Cd157 O158 2.317 . S
O158 Cd157 2.317 . S
O158 C159 1.232 . S
C159 O158 1.232 . S
C159 O160 1.218 . S
O160 C159 1.218 . S
C161 O154 1.275 . S
C161 O156 1.255 . S
C162 O163 1.258 . S
C162 O164 1.256 . S
O163 Cd155 2.381 . S
O163 C162 1.258 . S
O164 Cd155 2.378 . S
O164 C162 1.256 . S
O165 Cd166 2.300 1_556 S
O165 C172 1.275 . S
Cd166 O165 2.300 1_554 S
Cd166 O174 2.381 1_554 S
Cd166 O175 2.378 . S
O167 Cd168 2.385 1_556 S
O167 C172 1.255 . S
Cd168 O167 2.385 1_554 S
Cd168 O169 2.317 . S
O169 Cd168 2.317 . S
O169 C170 1.232 . S
C170 O169 1.232 . S
C170 O171 1.218 . S
O171 C170 1.218 . S
C172 O165 1.275 . S
C172 O167 1.255 . S
C173 O174 1.258 1_564 S
C173 O175 1.256 1_565 S
O174 Cd166 2.381 1_556 S
O174 C173 1.258 1_546 S
O175 Cd166 2.378 . S
O175 C173 1.256 1_545 S
C176 O177 1.160 1_554 S
C176 O183 1.185 . S
O177 C176 1.160 1_556 S
O178 Zn179 1.899 1_556 S
O178 C186 1.284 . S
Zn179 O178 1.899 1_554 S
Zn179 O180 2.032 . S
Zn179 O183 2.086 . S
Zn179 O188 1.977 . S
O180 Zn179 2.032 . S
O180 C184 1.278 . S
C181 O182 1.203 . S
C181 O188 1.267 . S
O182 C181 1.203 . S
O183 C176 1.185 . S
O183 Zn179 2.086 . S
C184 O180 1.278 . S
C184 O185 1.211 . S
O185 C184 1.211 . S
C186 O178 1.284 . S
C186 O187 1.273 . S
O187 C186 1.273 . S
O188 Zn179 1.977 . S
O188 C181 1.267 . S
C189 O190 1.160 . S
C189 O196 1.185 . S
O190 C189 1.160 . S
O191 Zn192 1.899 . S
O191 C199 1.284 . S
Zn192 O191 1.899 . S
Zn192 O193 2.032 . S
Zn192 O196 2.086 . S
Zn192 O201 1.977 . S
O193 Zn192 2.032 . S
O193 C197 1.278 . S
C194 O195 1.203 . S
C194 O201 1.267 . S
O195 C194 1.203 . S
O196 C189 1.185 . S
O196 Zn192 2.086 . S
C197 O193 1.278 . S
C197 O198 1.211 . S
O198 C197 1.211 . S
C199 O191 1.284 . S
C199 O200 1.273 . S
O200 C199 1.273 . S
O201 Zn192 1.977 . S
O201 C194 1.267 . S
C202 O203 1.160 1_554 S
C202 O209 1.185 . S
O203 C202 1.160 1_556 S
O204 Zn205 1.899 1_556 S
O204 C212 1.284 . S
Zn205 O204 1.899 1_554 S
Zn205 O206 2.032 . S
Zn205 O209 2.086 . S
Zn205 O214 1.977 . S
O206 Zn205 2.032 . S
O206 C210 1.278 . S
C207 O208 1.203 . S
C207 O214 1.267 . S
O208 C207 1.203 . S
O209 C202 1.185 . S
O209 Zn205 2.086 . S
C210 O206 1.278 . S
C210 O211 1.211 . S
O211 C210 1.211 . S
C212 O204 1.284 . S
C212 O213 1.273 . S
O213 C212 1.273 . S
O214 Zn205 1.977 . S
O214 C207 1.267 . S
C215 O216 1.160 . S
C215 O222 1.185 . S
O216 C215 1.160 . S
O217 Zn218 1.899 . S
O217 C225 1.284 . S
Zn218 O217 1.899 . S
Zn218 O219 2.032 . S
Zn218 O222 2.086 . S
Zn218 O227 1.977 . S
O219 Zn218 2.032 . S
O219 C223 1.278 1_545 S
C220 O221 1.203 . S
C220 O227 1.267 . S
O221 C220 1.203 . S
O222 C215 1.185 . S
O222 Zn218 2.086 . S
C223 O219 1.278 1_565 S
C223 O224 1.211 . S
O224 C223 1.211 . S
C225 O217 1.284 . S
C225 O226 1.257 1_545 S
O226 C225 1.257 1_565 S
O227 Zn218 1.977 . S
O227 C220 1.267 . S
C228 O229 1.160 . S
C228 O235 1.185 . S
O229 C228 1.160 . S
O230 Zn231 1.899 . S
O230 C238 1.284 . S
Zn231 O230 1.899 . S
Zn231 O232 2.032 . S
Zn231 O235 2.086 . S
Zn231 O240 1.977 . S
O232 Zn231 2.032 . S
O232 C236 1.278 . S
C233 O234 1.203 . S
C233 O240 1.267 . S
O234 C233 1.203 . S
O235 C228 1.185 . S
O235 Zn231 2.086 . S
C236 O232 1.278 . S
C236 O237 1.211 . S
O237 C236 1.211 . S
C238 O230 1.284 . S
C238 O239 1.273 . S
O239 C238 1.273 . S
O240 Zn231 1.977 . S
O240 C233 1.267 . S
C241 O242 1.160 . S
C241 O248 1.185 . S
O242 C241 1.160 . S
O243 Zn244 1.899 . S
O243 C251 1.284 . S
Zn244 O243 1.899 . S
Zn244 O245 2.032 . S
Zn244 O248 2.086 . S
Zn244 O253 1.977 . S
O245 Zn244 2.032 . S
O245 C249 1.278 . S
C246 O247 1.203 . S
C246 O253 1.267 . S
O247 C246 1.203 . S
O248 C241 1.185 . S
O248 Zn244 2.086 . S
C249 O245 1.278 . S
C249 O250 1.211 . S
O250 C249 1.211 . S
C251 O243 1.284 . S
C251 O252 1.273 . S
O252 C251 1.273 . S
O253 Zn244 1.977 . S
O253 C246 1.267 . S
C254 O255 1.160 . S
C254 O261 1.185 . S
O255 C254 1.160 . S
O256 Zn257 1.899 . S
O256 C264 1.284 . S
Zn257 O256 1.899 . S
Zn257 O258 2.032 . S
Zn257 O261 2.086 . S
Zn257 O266 1.977 . S
O258 Zn257 2.032 . S
O258 C262 1.278 . S
C259 O260 1.203 . S
C259 O266 1.267 . S
O260 C259 1.203 . S
O261 C254 1.185 . S
O261 Zn257 2.086 . S
C262 O258 1.278 . S
C262 O263 1.211 . S
O263 C262 1.211 . S
C264 O256 1.284 . S
C264 O265 1.273 . S
O265 C264 1.273 . S
O266 Zn257 1.977 . S
O266 C259 1.267 . S
C267 O268 1.160 . S
C267 O274 1.185 . S
O268 C267 1.160 . S
O269 Zn270 1.899 . S
O269 C277 1.284 1_565 S
Zn270 O269 1.899 . S
Zn270 O271 2.032 1_565 S
Zn270 O274 2.086 . S
Zn270 O279 1.977 . S
O271 Zn270 2.032 1_545 S
O271 C275 1.278 . S
C272 O273 1.203 1_565 S
C272 O279 1.267 . S
O273 C272 1.203 1_545 S
O274 C267 1.185 . S
O274 Zn270 2.086 . S
C275 O271 1.278 . S
C275 O276 1.211 . S
O276 C275 1.211 . S
C277 O269 1.284 1_545 S
C277 O278 1.273 . S
O278 C277 1.273 . S
O279 Zn270 1.977 . S
O279 C272 1.267 . S
C280 O281 1.160 1_455 S
C280 O287 1.185 . S
O281 C280 1.160 1_655 S
O282 Zn283 1.899 1_655 S
O282 C290 1.284 . S
Zn283 O282 1.899 1_455 S
Zn283 O284 2.032 . S
Zn283 O287 2.086 . S
Zn283 O292 1.977 . S
O284 Zn283 2.032 . S
O284 C288 1.278 . S
C285 O286 1.203 . S
C285 O292 1.267 . S
O286 C285 1.203 . S
O287 C280 1.185 . S
O287 Zn283 2.086 . S
C288 O284 1.278 . S
C288 O289 1.211 . S
O289 C288 1.211 . S
C290 O282 1.284 . S
C290 O291 1.273 . S
O291 C290 1.273 . S
O292 Zn283 1.977 . S
O292 C285 1.267 . S
C293 O294 1.160 . S
C293 O300 1.185 . S
O294 C293 1.160 . S
O295 Zn296 1.899 . S
O295 C303 1.284 . S
Zn296 O295 1.899 . S
Zn296 O297 2.032 . S
Zn296 O300 2.086 . S
Zn296 O305 1.977 . S
O297 Zn296 2.032 . S
O297 C301 1.278 . S
C298 O299 1.203 . S
C298 O305 1.267 . S
O299 C298 1.203 . S
O300 C293 1.185 . S
O300 Zn296 2.086 . S
C301 O297 1.278 . S
C301 O302 1.211 . S
O302 C301 1.211 . S
C303 O295 1.284 . S
C303 O304 1.273 . S
O304 C303 1.273 . S
O305 Zn296 1.977 . S
O305 C298 1.267 . S
C306 O307 1.160 . S
C306 O313 1.185 . S
O307 C306 1.160 . S
O308 Zn309 1.899 . S
O308 C316 1.284 1_455 S
Zn309 O308 1.899 . S
Zn309 O310 2.032 . S
Zn309 O313 2.086 . S
Zn309 O318 1.977 . S
O310 Zn309 2.032 . S
O310 C314 1.278 . S
C311 O312 1.203 . S
C311 O318 1.267 . S
O312 C311 1.203 . S
O313 C306 1.185 . S
O313 Zn309 2.086 . S
C314 O310 1.278 . S
C314 O315 1.211 . S
O315 C314 1.211 . S
C316 O308 1.284 1_655 S
C316 O317 1.273 . S
O317 C316 1.273 . S
O318 Zn309 1.977 . S
O318 C311 1.267 . S
C319 O320 1.160 . S
C319 O326 1.185 . S
O320 C319 1.160 . S
O321 Zn322 1.899 . S
O321 C329 1.284 . S
Zn322 O321 1.899 . S
Zn322 O323 2.032 . S
Zn322 O326 2.086 . S
Zn322 O331 1.977 . S
O323 Zn322 2.032 . S
O323 C327 1.278 . S
C324 O325 1.203 . S
C324 O331 1.267 . S
O325 C324 1.203 . S
O326 C319 1.185 . S
O326 Zn322 2.086 . S
C327 O323 1.278 . S
C327 O328 1.211 . S
O328 C327 1.211 . S
C329 O321 1.284 . S
C329 O330 1.273 . S
O330 C329 1.273 . S
O331 Zn322 1.977 . S
O331 C324 1.267 . S
H332 C338 0.930 . S
H333 C342 0.930 . S
H334 C347 0.929 . S
H335 C345 0.929 . S
H336 C340 0.929 . S
H337 C346 0.929 . S
C338 H332 0.930 . S
C338 C339 1.367 . S
C338 C346 1.378 . S
C339 C338 1.367 . S
C339 C347 1.433 . S
C340 H336 0.929 . S
C340 C342 1.378 . S
C340 C344 1.350 . S
C341 C344 1.463 . S
C341 C346 1.350 . S
C341 N349 1.427 . S
C342 H333 0.930 . S
C342 C340 1.378 . S
C342 C343 1.367 . S
C343 C342 1.367 . S
C343 C345 1.433 . S
C344 C340 1.350 . S
C344 C341 1.463 . S
C344 N348 1.427 . S
C345 H335 0.929 . S
C345 C343 1.433 . S
C345 N348 1.384 . S
C346 H337 0.929 . S
C346 C338 1.378 . S
C346 C341 1.350 . S
C347 H334 0.929 . S
C347 C339 1.433 . S
C347 N349 1.384 . S
N348 C344 1.427 . S
N348 C345 1.384 . S
N349 C341 1.427 . S
N349 C347 1.384 . S
H350 C356 0.930 . S
H351 C360 0.930 . S
H352 C365 0.929 1_655 S
H353 C363 0.929 . S
H354 C358 0.929 . S
H355 C364 0.929 . S
C356 H350 0.930 . S
C356 C357 1.367 . S
C356 C364 1.378 . S
C357 C356 1.367 . S
C357 C365 1.433 . S
C358 H354 0.929 . S
C358 C360 1.378 . S
C358 C362 1.350 . S
C359 C362 1.463 . S
C359 C364 1.350 . S
C359 N367 1.427 . S
C360 H351 0.930 . S
C360 C358 1.378 . S
C360 C361 1.367 . S
C361 C360 1.367 . S
C361 C363 1.433 . S
C362 C358 1.350 . S
C362 C359 1.463 . S
C362 N366 1.427 . S
C363 H353 0.929 . S
C363 C361 1.433 . S
C363 N366 1.384 . S
C364 H355 0.929 . S
C364 C356 1.378 . S
C364 C359 1.350 . S
C365 H352 0.929 1_455 S
C365 C357 1.433 . S
C365 N367 1.384 . S
N366 C362 1.427 . S
N366 C363 1.384 . S
N367 C359 1.427 . S
N367 C365 1.384 . S
H368 C374 0.930 . S
H369 C378 0.930 . S
H370 C383 0.929 . S
H371 C381 0.929 . S
H372 C376 0.929 . S
H373 C382 0.929 . S
C374 H368 0.930 . S
C374 C375 1.367 . S
C374 C382 1.378 . S
C375 C374 1.367 . S
C375 C383 1.433 . S
C376 H372 0.929 . S
C376 C378 1.378 . S
C376 C380 1.350 . S
C377 C380 1.463 . S
C377 C382 1.350 . S
C377 N385 1.427 . S
C378 H369 0.930 . S
C378 C376 1.378 . S
C378 C379 1.367 . S
C379 C378 1.367 . S
C379 C381 1.433 . S
C380 C376 1.350 . S
C380 C377 1.463 . S
C380 N384 1.427 . S
C381 H371 0.929 . S
C381 C379 1.433 . S
C381 N384 1.384 . S
C382 H373 0.929 . S
C382 C374 1.378 . S
C382 C377 1.350 . S
C383 H370 0.929 . S
C383 C375 1.433 . S
C383 N385 1.384 . S
N384 C380 1.427 . S
N384 C381 1.384 . S
N385 C377 1.427 . S
N385 C383 1.384 . S
H386 C392 0.930 1_455 S
H387 C396 0.930 . S
H388 C401 0.929 . S
H389 C399 0.927 1_565 S
H390 C394 0.929 . S
H391 C400 0.929 . S
C392 H386 0.930 1_655 S
C392 C393 1.367 1_665 S
C392 C400 1.378 . S
C393 C392 1.367 1_445 S
C393 C401 1.433 1_455 S
C394 H390 0.929 . S
C394 C396 1.378 . S
C394 C398 1.350 . S
C395 C398 1.463 . S
C395 C400 1.350 1_545 S
C395 N403 1.427 . S
C396 H387 0.930 . S
C396 C394 1.378 . S
C396 C397 1.367 . S
C397 C396 1.367 . S
C397 C399 1.436 . S
C398 C394 1.350 . S
C398 C395 1.463 . S
C398 N402 1.427 1_545 S
C399 H389 0.927 1_545 S
C399 C397 1.436 . S
C399 N402 1.383 1_545 S
C400 H391 0.929 . S
C400 C392 1.378 . S
C400 C395 1.350 1_565 S
C401 H388 0.929 . S
C401 C393 1.433 1_655 S
C401 N403 1.384 . S
N402 C398 1.427 1_565 S
N402 C399 1.383 1_565 S
N403 C395 1.427 . S
N403 C401 1.384 . S
H404 C410 0.930 . S
H405 C414 0.930 . S
H406 C419 0.929 . S
H407 C417 0.929 . S
H408 C412 0.929 . S
H409 C418 0.929 . S
C410 H404 0.930 . S
C410 C411 1.367 . S
C410 C418 1.378 . S
C411 C410 1.367 . S
C411 C419 1.433 . S
C412 H408 0.929 . S
C412 C414 1.378 . S
C412 C416 1.350 . S
C413 C416 1.463 . S
C413 C418 1.350 . S
C413 N421 1.427 . S
C414 H405 0.930 . S
C414 C412 1.378 . S
C414 C415 1.367 . S
C415 C414 1.367 . S
C415 C417 1.433 . S
C416 C412 1.350 . S
C416 C413 1.463 . S
C416 N420 1.427 . S
C417 H407 0.929 . S
C417 C415 1.433 . S
C417 N420 1.384 . S
C418 H409 0.929 . S
C418 C410 1.378 . S
C418 C413 1.350 . S
C419 H406 0.929 . S
C419 C411 1.433 . S
C419 N421 1.384 . S
N420 C416 1.427 . S
N420 C417 1.384 . S
N421 C413 1.427 . S
N421 C419 1.384 . S
H422 C428 0.930 . S
H423 C432 0.930 . S
H424 C437 0.929 . S
H425 C435 0.929 . S
H426 C430 0.929 . S
H427 C436 0.929 . S
C428 H422 0.930 . S
C428 C429 1.367 . S
C428 C436 1.378 . S
C429 C428 1.367 . S
C429 C437 1.433 . S
C430 H426 0.929 . S
C430 C432 1.378 . S
C430 C434 1.350 . S
C431 C434 1.463 . S
C431 C436 1.350 . S
C431 N439 1.427 . S
C432 H423 0.930 . S
C432 C430 1.378 . S
C432 C433 1.367 . S
C433 C432 1.367 . S
C433 C435 1.433 . S
C434 C430 1.350 . S
C434 C431 1.463 . S
C434 N438 1.427 . S
C435 H425 0.929 . S
C435 C433 1.433 . S
C435 N438 1.384 . S
C436 H427 0.929 . S
C436 C428 1.378 . S
C436 C431 1.350 . S
C437 H424 0.929 . S
C437 C429 1.433 . S
C437 N439 1.384 . S
N438 C434 1.427 . S
N438 C435 1.384 . S
N439 C431 1.427 . S
N439 C437 1.384 . S
H440 C446 0.930 . S
H441 C450 0.930 . S
H442 C455 0.929 . S
H443 C453 0.929 . S
H444 C448 0.929 . S
H445 C454 0.929 . S
C446 H440 0.930 . S
C446 C447 1.367 . S
C446 C454 1.378 . S
C447 C446 1.367 . S
C447 C455 1.433 . S
C448 H444 0.929 . S
C448 C450 1.378 . S
C448 C452 1.350 . S
C449 C452 1.463 . S
C449 C454 1.350 . S
C449 N457 1.427 . S
C450 H441 0.930 . S
C450 C448 1.378 . S
C450 C451 1.367 . S
C451 C450 1.367 . S
C451 C453 1.433 . S
C452 C448 1.350 . S
C452 C449 1.463 . S
C452 N456 1.427 . S
C453 H443 0.929 . S
C453 C451 1.433 . S
C453 N456 1.384 . S
C454 H445 0.929 . S
C454 C446 1.378 . S
C454 C449 1.350 . S
C455 H442 0.929 . S
C455 C447 1.433 . S
C455 N457 1.384 . S
N456 C452 1.427 . S
N456 C453 1.384 . S
N457 C449 1.427 . S
N457 C455 1.384 . S
H458 C464 0.930 . S
H459 C468 0.930 . S
H460 C473 0.929 . S
H461 C471 0.929 . S
H462 C466 0.929 . S
H463 C472 0.929 . S
C464 H458 0.930 . S
C464 C465 1.367 . S
C464 C472 1.378 . S
C465 C464 1.367 . S
C465 C473 1.433 1_565 S
C466 H462 0.929 . S
C466 C468 1.378 . S
C466 C470 1.350 1_545 S
C467 C470 1.463 . S
C467 C472 1.350 . S
C467 N475 1.427 1_565 S
C468 H459 0.930 . S
C468 C466 1.378 . S
C468 C469 1.367 1_545 S
C469 C468 1.367 1_565 S
C469 C471 1.433 . S
C470 C466 1.350 1_565 S
C470 C467 1.463 . S
C470 N474 1.427 . S
C471 H461 0.929 . S
C471 C469 1.433 . S
C471 N474 1.384 . S
C472 H463 0.929 . S
C472 C464 1.378 . S
C472 C467 1.350 . S
C473 H460 0.929 . S
C473 C465 1.433 1_545 S
C473 N475 1.384 . S
N474 C470 1.427 . S
N474 C471 1.384 . S
N475 C467 1.427 1_545 S
N475 C473 1.384 . S
H476 C482 0.930 . S
H477 C486 0.930 . S
H478 C491 0.929 . S
H479 C489 0.929 . S
H480 C484 0.929 . S
H481 C490 0.929 . S
C482 H476 0.930 . S
C482 C483 1.367 . S
C482 C490 1.378 . S
C483 C482 1.367 . S
C483 C491 1.433 . S
C484 H480 0.929 . S
C484 C486 1.378 . S
C484 C488 1.350 . S
C485 C488 1.463 . S
C485 C490 1.350 . S
C485 N493 1.427 . S
C486 H477 0.930 . S
C486 C484 1.378 . S
C486 C487 1.367 . S
C487 C486 1.367 . S
C487 C489 1.433 . S
C488 C484 1.350 . S
C488 C485 1.463 . S
C488 N492 1.427 . S
C489 H479 0.929 . S
C489 C487 1.433 . S
C489 N492 1.384 . S
C490 H481 0.929 . S
C490 C482 1.378 . S
C490 C485 1.350 . S
C491 H478 0.929 . S
C491 C483 1.433 . S
C491 N493 1.384 . S
N492 C488 1.427 . S
N492 C489 1.384 . S
N493 C485 1.427 . S
N493 C491 1.384 . S
H494 C500 0.930 . S
H495 C504 0.930 . S
H496 C509 0.929 . S
H497 C507 0.929 . S
H498 C502 0.929 . S
H499 C508 0.929 . S
C500 H494 0.930 . S
C500 C501 1.367 . S
C500 C508 1.378 . S
C501 C500 1.367 . S
C501 C509 1.433 . S
C502 H498 0.929 . S
C502 C504 1.378 . S
C502 C506 1.350 . S
C503 C506 1.463 . S
C503 C508 1.350 . S
C503 N511 1.427 . S
C504 H495 0.930 . S
C504 C502 1.378 . S
C504 C505 1.367 . S
C505 C504 1.367 . S
C505 C507 1.433 . S
C506 C502 1.350 . S
C506 C503 1.463 . S
C506 N510 1.427 . S
C507 H497 0.929 . S
C507 C505 1.433 . S
C507 N510 1.384 . S
C508 H499 0.929 . S
C508 C500 1.378 . S
C508 C503 1.350 . S
C509 H496 0.929 . S
C509 C501 1.433 . S
C509 N511 1.384 . S
N510 C506 1.427 . S
N510 C507 1.384 . S
N511 C503 1.427 . S
N511 C509 1.384 . S
H512 C518 0.930 . S
H513 C522 0.930 . S
H514 C527 0.929 . S
H515 C525 0.929 . S
H516 C520 0.929 . S
H517 C526 0.929 . S
C518 H512 0.930 . S
C518 C519 1.367 . S
C518 C526 1.378 . S
C519 C518 1.367 . S
C519 C527 1.433 . S
C520 H516 0.929 . S
C520 C522 1.378 . S
C520 C524 1.350 . S
C521 C524 1.463 . S
C521 C526 1.350 . S
C521 N529 1.427 . S
C522 H513 0.930 . S
C522 C520 1.378 . S
C522 C523 1.367 . S
C523 C522 1.367 . S
C523 C525 1.433 . S
C524 C520 1.350 . S
C524 C521 1.463 . S
C524 N528 1.427 . S
C525 H515 0.929 . S
C525 C523 1.433 . S
C525 N528 1.384 . S
C526 H517 0.929 . S
C526 C518 1.378 . S
C526 C521 1.350 . S
C527 H514 0.929 . S
C527 C519 1.433 . S
C527 N529 1.384 . S
N528 C524 1.427 . S
N528 C525 1.384 . S
N529 C521 1.427 . S
N529 C527 1.384 . S
H530 C536 0.930 . S
H531 C540 0.930 . S
H532 C545 0.929 . S
H533 C543 0.929 . S
H534 C538 0.929 . S
H535 C544 0.929 . S
C536 H530 0.930 . S
C536 C537 1.367 . S
C536 C544 1.378 . S
C537 C536 1.367 . S
C537 C545 1.433 . S
C538 H534 0.929 . S
C538 C540 1.378 . S
C538 C542 1.350 . S
C539 C542 1.463 . S
C539 C544 1.350 . S
C539 N547 1.427 . S
C540 H531 0.930 . S
C540 C538 1.378 . S
C540 C541 1.367 . S
C541 C540 1.367 . S
C541 C543 1.433 . S
C542 C538 1.350 . S
C542 C539 1.463 . S
C542 N546 1.427 . S
C543 H533 0.929 . S
C543 C541 1.433 . S
C543 N546 1.384 . S
C544 H535 0.929 . S
C544 C536 1.378 . S
C544 C539 1.350 . S
C545 H532 0.929 . S
C545 C537 1.433 . S
C545 N547 1.384 . S
N546 C542 1.427 . S
N546 C543 1.384 . S
N547 C539 1.427 . S
N547 C545 1.384 . S
H548 C554 0.930 . S
H549 C558 0.930 . S
H550 C563 0.929 . S
H551 C561 0.929 . S
H552 C556 0.929 . S
H553 C562 0.929 . S
C554 H548 0.930 . S
C554 C555 1.367 . S
C554 C562 1.378 . S
C555 C554 1.367 . S
C555 C563 1.433 . S
C556 H552 0.929 . S
C556 C558 1.378 . S
C556 C560 1.350 . S
C557 C560 1.463 . S
C557 C562 1.350 . S
C557 N565 1.427 . S
C558 H549 0.930 . S
C558 C556 1.378 . S
C558 C559 1.367 . S
C559 C558 1.367 . S
C559 C561 1.433 . S
C560 C556 1.350 . S
C560 C557 1.463 . S
C560 N564 1.427 . S
C561 H551 0.929 . S
C561 C559 1.433 . S
C561 N564 1.384 . S
C562 H553 0.929 . S
C562 C554 1.378 . S
C562 C557 1.350 . S
C563 H550 0.929 . S
C563 C555 1.433 . S
C563 N565 1.384 . S
N564 C560 1.427 . S
N564 C561 1.384 . S
N565 C557 1.427 . S
N565 C563 1.384 . S
H566 C572 0.930 . S
H567 C576 0.930 . S
H568 C581 0.929 . S
H569 C579 0.929 . S
H570 C574 0.929 . S
H571 C580 0.929 . S
C572 H566 0.930 . S
C572 C573 1.367 . S
C572 C580 1.378 . S
C573 C572 1.367 . S
C573 C581 1.433 . S
C574 H570 0.929 . S
C574 C576 1.378 . S
C574 C578 1.350 . S
C575 C578 1.463 . S
C575 C580 1.350 . S
C575 N583 1.427 . S
C576 H567 0.930 . S
C576 C574 1.378 . S
C576 C577 1.367 . S
C577 C576 1.367 . S
C577 C579 1.433 . S
C578 C574 1.350 . S
C578 C575 1.463 . S
C578 N582 1.427 . S
C579 H569 0.929 . S
C579 C577 1.433 . S
C579 N582 1.384 . S
C580 H571 0.929 . S
C580 C572 1.378 . S
C580 C575 1.350 . S
C581 H568 0.929 . S
C581 C573 1.433 . S
C581 N583 1.384 . S
N582 C578 1.427 . S
N582 C579 1.384 . S
N583 C575 1.427 . S
N583 C581 1.384 . S
H584 C590 0.930 . S
H585 C594 0.930 . S
H586 C599 0.929 . S
H587 C597 0.929 . S
H588 C592 0.929 . S
H589 C598 0.929 . S
C590 H584 0.930 . S
C590 C591 1.367 . S
C590 C598 1.378 . S
C591 C590 1.367 . S
C591 C599 1.433 . S
C592 H588 0.929 . S
C592 C594 1.378 . S
C592 C596 1.350 . S
C593 C596 1.463 . S
C593 C598 1.350 . S
C593 N601 1.427 . S
C594 H585 0.930 . S
C594 C592 1.378 . S
C594 C595 1.367 . S
C595 C594 1.367 . S
C595 C597 1.433 . S
C596 C592 1.350 . S
C596 C593 1.463 . S
C596 N600 1.427 . S
C597 H587 0.929 . S
C597 C595 1.433 . S
C597 N600 1.384 . S
C598 H589 0.929 . S
C598 C590 1.378 . S
C598 C593 1.350 . S
C599 H586 0.929 . S
C599 C591 1.433 . S
C599 N601 1.384 . S
N600 C596 1.427 . S
N600 C597 1.384 . S
N601 C593 1.427 . S
N601 C599 1.384 . S
H602 C608 0.930 . S
H603 C612 0.930 . S
H604 C617 0.929 . S
H605 C615 0.929 . S
H606 C610 0.929 . S
H607 C616 0.929 . S
C608 H602 0.930 . S
C608 C609 1.375 . S
C608 C616 1.378 . S
C609 C608 1.375 . S
C609 C617 1.424 1_455 S
C610 H606 0.929 . S
C610 C612 1.378 . S
C610 C614 1.350 1_655 S
C611 C614 1.463 . S
C611 C616 1.350 . S
C611 N619 1.427 1_455 S
C612 H603 0.930 . S
C612 C610 1.378 . S
C612 C613 1.367 1_655 S
C613 C612 1.367 1_455 S
C613 C615 1.433 . S
C614 C610 1.350 1_455 S
C614 C611 1.463 . S
C614 N618 1.427 . S
C615 H605 0.929 . S
C615 C613 1.433 . S
C615 N618 1.384 . S
C616 H607 0.929 . S
C616 C608 1.378 . S
C616 C611 1.350 . S
C617 H604 0.929 . S
C617 C609 1.424 1_655 S
C617 N619 1.384 . S
N618 C614 1.427 . S
N618 C615 1.384 . S
N619 C611 1.427 1_655 S
N619 C617 1.384 . S
H620 C626 0.930 . S
H621 C630 0.930 . S
H622 C635 0.929 . S
H623 C633 0.929 . S
H624 C628 0.929 . S
H625 C634 0.929 . S
C626 H620 0.930 . S
C626 C627 1.367 . S
C626 C634 1.378 . S
C627 C626 1.367 . S
C627 C635 1.433 . S
C628 H624 0.929 . S
C628 C630 1.378 . S
C628 C632 1.350 . S
C629 C632 1.463 . S
C629 C634 1.350 . S
C629 N637 1.427 . S
C630 H621 0.930 . S
C630 C628 1.378 . S
C630 C631 1.367 . S
C631 C630 1.367 . S
C631 C633 1.433 . S
C632 C628 1.350 . S
C632 C629 1.463 . S
C632 N636 1.427 . S
C633 H623 0.929 . S
C633 C631 1.433 . S
C633 N636 1.384 . S
C634 H625 0.929 . S
C634 C626 1.378 . S
C634 C629 1.350 . S
C635 H622 0.929 . S
C635 C627 1.433 . S
C635 N637 1.384 . S
N636 C632 1.427 . S
N636 C633 1.384 . S
N637 C629 1.427 . S
N637 C635 1.384 . S
H638 C644 0.930 . S
H639 C648 0.930 . S
H640 C653 0.929 . S
H641 C651 0.929 . S
H642 C646 0.929 . S
H643 C652 0.929 . S
C644 H638 0.930 . S
C644 C645 1.367 . S
C644 C652 1.378 . S
C645 C644 1.367 . S
C645 C653 1.433 . S
C646 H642 0.929 . S
C646 C648 1.378 . S
C646 C650 1.350 . S
C647 C650 1.463 . S
C647 C652 1.350 . S
C647 N655 1.427 . S
C648 H639 0.930 . S
C648 C646 1.378 . S
C648 C649 1.367 . S
C649 C648 1.367 . S
C649 C651 1.433 . S
C650 C646 1.350 . S
C650 C647 1.463 . S
C650 N654 1.427 . S
C651 H641 0.929 . S
C651 C649 1.433 . S
C651 N654 1.384 . S
C652 H643 0.929 . S
C652 C644 1.378 . S
C652 C647 1.350 . S
C653 H640 0.929 . S
C653 C645 1.433 . S
C653 N655 1.384 . S
N654 C650 1.427 . S
N654 C651 1.384 . S
N655 C647 1.427 . S
N655 C653 1.384 . S
H656 C662 0.930 . S
H657 C666 0.930 . S
H658 C671 0.929 1_545 S
H659 C669 0.929 . S
H660 C664 0.929 . S
H661 C670 0.929 . S
C662 H656 0.930 . S
C662 C663 1.367 1_556 S
C662 C670 1.378 . S
C663 C662 1.367 1_554 S
C663 C671 1.433 . S
C664 H660 0.929 . S
C664 C666 1.378 . S
C664 C668 1.350 . S
C665 C668 1.463 . S
C665 C670 1.350 1_554 S
C665 N673 1.427 . S
C666 H657 0.930 . S
C666 C664 1.378 . S
C666 C667 1.367 . S
C667 C666 1.367 . S
C667 C669 1.433 . S
C668 C664 1.350 . S
C668 C665 1.463 . S
C668 N672 1.427 . S
C669 H659 0.929 . S
C669 C667 1.433 . S
C669 N672 1.384 . S
C670 H661 0.929 . S
C670 C662 1.378 . S
C670 C665 1.350 1_556 S
C671 H658 0.929 1_565 S
C671 C663 1.433 . S
C671 N673 1.384 . S
N672 C668 1.427 . S
N672 C669 1.384 . S
N673 C665 1.427 . S
N673 C671 1.384 . S
H674 C680 0.930 . S
H675 C684 0.930 . S
H676 C689 0.929 . S
H677 C687 0.929 . S
H678 C682 0.929 . S
H679 C688 0.929 . S
C680 H674 0.930 . S
C680 C681 1.367 . S
C680 C688 1.378 . S
C681 C680 1.367 . S
C681 C689 1.433 . S
C682 H678 0.929 . S
C682 C684 1.378 . S
C682 C686 1.350 . S
C683 C686 1.463 . S
C683 C688 1.350 . S
C683 N691 1.427 . S
C684 H675 0.930 . S
C684 C682 1.378 . S
C684 C685 1.367 . S
C685 C684 1.367 . S
C685 C687 1.433 . S
C686 C682 1.350 . S
C686 C683 1.463 . S
C686 N690 1.427 . S
C687 H677 0.929 . S
C687 C685 1.433 . S
C687 N690 1.384 . S
C688 H679 0.929 . S
C688 C680 1.378 . S
C688 C683 1.350 . S
C689 H676 0.929 . S
C689 C681 1.433 . S
C689 N691 1.384 . S
N690 C686 1.427 . S
N690 C687 1.384 . S
N691 C683 1.427 . S
N691 C689 1.384 . S
H692 C698 0.930 . S
H693 C702 0.930 . S
H694 C707 0.929 . S
H695 C705 0.929 . S
H696 C700 0.929 . S
H697 C706 0.929 . S
C698 H692 0.930 . S
C698 C699 1.367 . S
C698 C706 1.378 . S
C699 C698 1.367 . S
C699 C707 1.433 . S
C700 H696 0.929 . S
C700 C702 1.378 . S
C700 C704 1.350 . S
C701 C704 1.463 . S
C701 C706 1.350 . S
C701 N709 1.427 . S
C702 H693 0.930 . S
C702 C700 1.378 . S
C702 C703 1.367 . S
C703 C702 1.367 . S
C703 C705 1.433 . S
C704 C700 1.350 . S
C704 C701 1.463 . S
C704 N708 1.427 . S
C705 H695 0.929 . S
C705 C703 1.433 . S
C705 N708 1.384 . S
C706 H697 0.929 . S
C706 C698 1.378 . S
C706 C701 1.350 . S
C707 H694 0.929 . S
C707 C699 1.433 . S
C707 N709 1.384 . S
N708 C704 1.427 . S
N708 C705 1.384 . S
N709 C701 1.427 . S
N709 C707 1.384 . S
H710 C716 0.930 . S
H711 C720 0.930 . S
H712 C725 0.929 . S
H713 C723 0.929 . S
H714 C718 0.929 . S
H715 C724 0.929 . S
C716 H710 0.930 . S
C716 C717 1.367 . S
C716 C724 1.378 . S
C717 C716 1.367 . S
C717 C725 1.433 . S
C718 H714 0.929 . S
C718 C720 1.378 . S
C718 C722 1.350 . S
C719 C722 1.463 . S
C719 C724 1.350 . S
C719 N727 1.427 . S
C720 H711 0.930 . S
C720 C718 1.378 . S
C720 C721 1.367 . S
C721 C720 1.367 . S
C721 C723 1.433 . S
C722 C718 1.350 . S
C722 C719 1.463 . S
C722 N726 1.427 . S
C723 H713 0.929 . S
C723 C721 1.433 . S
C723 N726 1.384 . S
C724 H715 0.929 . S
C724 C716 1.378 . S
C724 C719 1.350 . S
C725 H712 0.929 . S
C725 C717 1.433 . S
C725 N727 1.384 . S
N726 C722 1.427 . S
N726 C723 1.384 . S
N727 C719 1.427 . S
N727 C725 1.384 . S
H728 C734 0.930 . S
H729 C738 0.930 . S
H730 C743 0.929 . S
H731 C741 0.929 . S
H732 C736 0.929 . S
H733 C742 0.929 . S
C734 H728 0.930 . S
C734 C735 1.367 . S
C734 C742 1.378 . S
C735 C734 1.367 . S
C735 C743 1.433 . S
C736 H732 0.929 . S
C736 C738 1.378 . S
C736 C740 1.350 . S
C737 C740 1.463 . S
C737 C742 1.350 . S
C737 N745 1.427 . S
C738 H729 0.930 . S
C738 C736 1.378 . S
C738 C739 1.367 . S
C739 C738 1.367 . S
C739 C741 1.433 . S
C740 C736 1.350 . S
C740 C737 1.463 . S
C740 N744 1.427 . S
C741 H731 0.929 . S
C741 C739 1.433 . S
C741 N744 1.384 . S
C742 H733 0.929 . S
C742 C734 1.378 . S
C742 C737 1.350 . S
C743 H730 0.929 . S
C743 C735 1.433 . S
C743 N745 1.384 . S
N744 C740 1.427 . S
N744 C741 1.384 . S
N745 C737 1.427 . S
N745 C743 1.384 . S
H746 C752 0.930 . S
H747 C756 0.930 . S
H748 C761 0.929 . S
H749 C759 0.929 . S
H750 C754 0.929 . S
H751 C760 0.929 . S
C752 H746 0.930 . S
C752 C753 1.367 . S
C752 C760 1.378 . S
C753 C752 1.367 . S
C753 C761 1.433 . S
C754 H750 0.929 . S
C754 C756 1.378 . S
C754 C758 1.350 . S
C755 C758 1.463 . S
C755 C760 1.350 . S
C755 N763 1.427 . S
C756 H747 0.930 . S
C756 C754 1.378 . S
C756 C757 1.367 . S
C757 C756 1.367 . S
C757 C759 1.433 . S
C758 C754 1.350 . S
C758 C755 1.463 . S
C758 N762 1.427 . S
C759 H749 0.929 . S
C759 C757 1.433 . S
C759 N762 1.384 . S
C760 H751 0.929 . S
C760 C752 1.378 . S
C760 C755 1.350 . S
C761 H748 0.929 . S
C761 C753 1.433 . S
C761 N763 1.384 . S
N762 C758 1.427 . S
N762 C759 1.384 . S
N763 C755 1.427 . S
N763 C761 1.384 . S
H764 C770 0.930 . S
H765 C774 0.930 . S
H766 C779 0.929 . S
H767 C777 0.929 . S
H768 C772 0.929 . S
H769 C778 0.929 . S
C770 H764 0.930 . S
C770 C771 1.367 . S
C770 C778 1.378 . S
C771 C770 1.367 . S
C771 C779 1.433 . S
C772 H768 0.929 . S
C772 C774 1.378 . S
C772 C776 1.350 . S
C773 C776 1.463 . S
C773 C778 1.350 . S
C773 N781 1.427 . S
C774 H765 0.930 . S
C774 C772 1.378 . S
C774 C775 1.367 . S
C775 C774 1.367 . S
C775 C777 1.433 . S
C776 C772 1.350 . S
C776 C773 1.463 . S
C776 N780 1.427 . S
C777 H767 0.929 . S
C777 C775 1.433 . S
C777 N780 1.384 . S
C778 H769 0.929 . S
C778 C770 1.378 . S
C778 C773 1.350 . S
C779 H766 0.929 . S
C779 C771 1.433 . S
C779 N781 1.384 . S
N780 C776 1.427 . S
N780 C777 1.384 . S
N781 C773 1.427 . S
N781 C779 1.384 . S
H782 C788 0.930 . S
H783 C792 0.930 . S
H784 C797 0.929 . S
H785 C795 0.929 . S
H786 C790 0.929 . S
H787 C796 0.929 1_565 S
C788 H782 0.930 . S
C788 C789 1.367 . S
C788 C796 1.378 . S
C789 C788 1.367 . S
C789 C797 1.433 . S
C790 H786 0.929 . S
C790 C792 1.378 . S
C790 C794 1.350 . S
C791 C794 1.463 . S
C791 C796 1.350 . S
C791 N799 1.427 . S
C792 H783 0.930 . S
C792 C790 1.378 . S
C792 C793 1.367 . S
C793 C792 1.367 . S
C793 C795 1.433 1_545 S
C794 C790 1.350 . S
C794 C791 1.463 . S
C794 N798 1.444 . S
C795 H785 0.929 . S
C795 C793 1.433 1_565 S
C795 N798 1.378 1_565 S
C796 H787 0.929 1_545 S
C796 C788 1.378 . S
C796 C791 1.350 . S
C797 H784 0.929 . S
C797 C789 1.433 . S
C797 N799 1.384 . S
N798 C794 1.444 . S
N798 C795 1.378 1_545 S
N799 C791 1.427 . S
N799 C797 1.384 . S
H800 C806 0.930 . S
H801 C810 0.930 . S
H802 C815 0.929 . S
H803 C813 0.929 . S
H804 C808 0.929 . S
H805 C814 0.929 . S
C806 H800 0.930 . S
C806 C807 1.367 . S
C806 C814 1.378 . S
C807 C806 1.367 . S
C807 C815 1.433 . S
C808 H804 0.929 . S
C808 C810 1.378 . S
C808 C812 1.350 . S
C809 C812 1.463 . S
C809 C814 1.350 . S
C809 N817 1.427 . S
C810 H801 0.930 . S
C810 C808 1.378 . S
C810 C811 1.367 . S
C811 C810 1.367 . S
C811 C813 1.433 . S
C812 C808 1.350 . S
C812 C809 1.463 . S
C812 N816 1.427 . S
C813 H803 0.929 . S
C813 C811 1.433 . S
C813 N816 1.384 . S
C814 H805 0.929 . S
C814 C806 1.378 . S
C814 C809 1.350 . S
C815 H802 0.929 . S
C815 C807 1.433 . S
C815 N817 1.384 . S
N816 C812 1.427 . S
N816 C813 1.384 . S
N817 C809 1.427 . S
N817 C815 1.384 . S
H818 C824 0.930 . S
H819 C828 0.930 . S
H820 C833 0.929 . S
H821 C831 0.929 . S
H822 C826 0.929 . S
H823 C832 0.929 . S
C824 H818 0.930 . S
C824 C825 1.367 . S
C824 C832 1.378 . S
C825 C824 1.367 . S
C825 C833 1.433 . S
C826 H822 0.929 . S
C826 C828 1.378 . S
C826 C830 1.350 . S
C827 C830 1.463 . S
C827 C832 1.350 . S
C827 N835 1.427 . S
C828 H819 0.930 . S
C828 C826 1.378 . S
C828 C829 1.367 . S
C829 C828 1.367 . S
C829 C831 1.433 . S
C830 C826 1.350 . S
C830 C827 1.463 . S
C830 N834 1.427 . S
C831 H821 0.929 . S
C831 C829 1.433 . S
C831 N834 1.384 . S
C832 H823 0.929 . S
C832 C824 1.378 . S
C832 C827 1.350 . S
C833 H820 0.929 . S
C833 C825 1.433 . S
C833 N835 1.384 . S
N834 C830 1.427 . S
N834 C831 1.384 . S
N835 C827 1.427 . S
N835 C833 1.384 . S
H836 C842 0.930 . S
H837 C846 0.930 . S
H838 C851 0.929 . S
H839 C849 0.929 . S
H840 C844 0.929 . S
H841 C850 0.929 . S
C842 H836 0.930 . S
C842 C843 1.367 . S
C842 C850 1.378 . S
C843 C842 1.367 . S
C843 C851 1.433 . S
C844 H840 0.929 . S
C844 C846 1.378 . S
C844 C848 1.350 . S
C845 C848 1.463 . S
C845 C850 1.350 . S
C845 N853 1.427 . S
C846 H837 0.930 . S
C846 C844 1.378 . S
C846 C847 1.367 . S
C847 C846 1.367 . S
C847 C849 1.433 . S
C848 C844 1.350 . S
C848 C845 1.463 . S
C848 N852 1.427 . S
C849 H839 0.929 . S
C849 C847 1.433 . S
C849 N852 1.384 . S
C850 H841 0.929 . S
C850 C842 1.378 . S
C850 C845 1.350 . S
C851 H838 0.929 . S
C851 C843 1.433 . S
C851 N853 1.384 . S
N852 C848 1.427 . S
N852 C849 1.384 . S
N853 C845 1.427 . S
N853 C851 1.384 . S
H854 C860 0.930 . S
H855 C864 0.930 . S
H856 C869 0.929 . S
H857 C867 0.929 . S
H858 C862 0.929 . S
H859 C868 0.929 . S
C860 H854 0.930 . S
C860 C861 1.367 . S
C860 C868 1.378 . S
C861 C860 1.367 . S
C861 C869 1.433 . S
C862 H858 0.929 . S
C862 C864 1.378 . S
C862 C866 1.350 . S
C863 C866 1.463 . S
C863 C868 1.350 . S
C863 N871 1.427 . S
C864 H855 0.930 . S
C864 C862 1.378 . S
C864 C865 1.367 . S
C865 C864 1.367 . S
C865 C867 1.433 . S
C866 C862 1.350 . S
C866 C863 1.463 . S
C866 N870 1.427 . S
C867 H857 0.929 . S
C867 C865 1.433 . S
C867 N870 1.384 . S
C868 H859 0.929 . S
C868 C860 1.378 . S
C868 C863 1.350 . S
C869 H856 0.929 . S
C869 C861 1.433 . S
C869 N871 1.384 . S
N870 C866 1.427 . S
N870 C867 1.384 . S
N871 C863 1.427 . S
N871 C869 1.384 . S
H872 C878 0.930 . S
H873 C882 0.930 . S
H874 C887 0.929 . S
H875 C885 0.929 . S
H876 C880 0.929 . S
H877 C886 0.929 . S
C878 H872 0.930 . S
C878 C879 1.367 . S
C878 C886 1.378 . S
C879 C878 1.367 . S
C879 C887 1.433 . S
C880 H876 0.929 . S
C880 C882 1.378 . S
C880 C884 1.350 . S
C881 C884 1.463 . S
C881 C886 1.350 . S
C881 N889 1.427 . S
C882 H873 0.930 . S
C882 C880 1.378 . S
C882 C883 1.367 . S
C883 C882 1.367 . S
C883 C885 1.433 . S
C884 C880 1.350 . S
C884 C881 1.463 . S
C884 N888 1.427 . S
C885 H875 0.929 . S
C885 C883 1.433 . S
C885 N888 1.384 . S
C886 H877 0.929 . S
C886 C878 1.378 . S
C886 C881 1.350 . S
C887 H874 0.929 . S
C887 C879 1.433 . S
C887 N889 1.384 . S
N888 C884 1.427 . S
N888 C885 1.384 . S
N889 C881 1.427 . S
N889 C887 1.384 . S
H890 C896 0.930 1_655 S
H891 C900 0.930 . S
H892 C905 0.929 . S
H893 C903 0.929 . S
H894 C898 0.929 . S
H895 C904 0.929 . S
C896 H890 0.930 1_455 S
C896 C897 1.367 . S
C896 C904 1.378 . S
C897 C896 1.367 . S
C897 C905 1.433 . S
C898 H894 0.929 . S
C898 C900 1.378 . S
C898 C902 1.350 . S
C899 C902 1.463 . S
C899 C904 1.350 . S
C899 N907 1.427 . S
C900 H891 0.930 . S
C900 C898 1.378 . S
C900 C901 1.367 . S
C901 C900 1.367 . S
C901 C903 1.433 . S
C902 C898 1.350 . S
C902 C899 1.463 . S
C902 N906 1.427 . S
C903 H893 0.929 . S
C903 C901 1.433 . S
C903 N906 1.384 . S
C904 H895 0.929 . S
C904 C896 1.378 . S
C904 C899 1.350 . S
C905 H892 0.929 . S
C905 C897 1.433 . S
C905 N907 1.384 . S
N906 C902 1.427 . S
N906 C903 1.384 . S
N907 C899 1.427 . S
N907 C905 1.384 . S
H908 C914 0.930 . S
H909 C918 0.930 . S
H910 C923 0.929 . S
H911 C921 0.929 . S
H912 C916 0.929 . S
H913 C922 0.929 . S
C914 H908 0.930 . S
C914 C915 1.367 . S
C914 C922 1.378 . S
C915 C914 1.367 . S
C915 C923 1.433 . S
C916 H912 0.929 . S
C916 C918 1.378 . S
C916 C920 1.350 . S
C917 C920 1.463 . S
C917 C922 1.350 . S
C917 N925 1.427 . S
C918 H909 0.930 . S
C918 C916 1.378 . S
C918 C919 1.367 . S
C919 C918 1.367 . S
C919 C921 1.433 . S
C920 C916 1.350 . S
C920 C917 1.463 . S
C920 N924 1.427 . S
C921 H911 0.929 . S
C921 C919 1.433 . S
C921 N924 1.384 . S
C922 H913 0.929 . S
C922 C914 1.378 . S
C922 C917 1.350 . S
C923 H910 0.929 . S
C923 C915 1.433 . S
C923 N925 1.384 . S
N924 C920 1.427 . S
N924 C921 1.384 . S
N925 C917 1.427 . S
N925 C923 1.384 . S
H926 C932 0.930 . S
H927 C936 0.930 1_554 S
H928 C941 0.929 . S
H929 C939 0.929 . S
H930 C934 0.929 . S
H931 C940 0.929 1_556 S
C932 H926 0.930 . S
C932 C933 1.367 . S
C932 C940 1.378 . S
C933 C932 1.367 . S
C933 C941 1.433 . S
C934 H930 0.929 . S
C934 C936 1.378 1_554 S
C934 C938 1.350 1_554 S
C935 C938 1.463 1_554 S
C935 C940 1.350 . S
C935 N943 1.427 . S
C936 H927 0.930 1_556 S
C936 C934 1.378 1_556 S
C936 C937 1.357 1_655 S
C937 C936 1.357 1_455 S
C937 C939 1.434 . S
C938 C934 1.350 1_556 S
C938 C935 1.463 1_556 S
C938 N942 1.436 . S
C939 H929 0.929 . S
C939 C937 1.434 . S
C939 N942 1.375 1_455 S
C940 H931 0.929 1_554 S
C940 C932 1.378 . S
C940 C935 1.350 . S
C941 H928 0.929 . S
C941 C933 1.433 . S
C941 N943 1.384 . S
N942 C938 1.436 . S
N942 C939 1.375 1_655 S
N943 C935 1.427 . S
N943 C941 1.384 . S
H944 C950 0.930 . S
H945 C954 0.930 . S
H946 C959 0.929 . S
H947 C957 0.929 . S
H948 C952 0.929 . S
H949 C958 0.929 . S
C950 H944 0.930 . S
C950 C951 1.367 . S
C950 C958 1.378 . S
C951 C950 1.367 . S
C951 C959 1.433 . S
C952 H948 0.929 . S
C952 C954 1.378 . S
C952 C956 1.350 . S
C953 C956 1.463 . S
C953 C958 1.350 . S
C953 N961 1.427 . S
C954 H945 0.930 . S
C954 C952 1.378 . S
C954 C955 1.367 . S
C955 C954 1.367 . S
C955 C957 1.433 . S
C956 C952 1.350 . S
C956 C953 1.463 . S
C956 N960 1.427 . S
C957 H947 0.929 . S
C957 C955 1.433 . S
C957 N960 1.384 . S
C958 H949 0.929 . S
C958 C950 1.378 . S
C958 C953 1.350 . S
C959 H946 0.929 . S
C959 C951 1.433 . S
C959 N961 1.384 . S
N960 C956 1.427 . S
N960 C957 1.384 . S
N961 C953 1.427 . S
N961 C959 1.384 . S
H962 C968 0.930 . S
H963 C972 0.930 . S
H964 C977 0.929 1_556 S
H965 C975 0.919 1_654 S
H966 C970 0.929 . S
H967 C976 0.929 . S
C968 H962 0.930 . S
C968 C969 1.367 . S
C968 C976 1.378 . S
C969 C968 1.367 . S
C969 C977 1.433 . S
C970 H966 0.929 . S
C970 C972 1.378 . S
C970 C974 1.350 . S
C971 C974 1.463 1_554 S
C971 C976 1.350 . S
C971 N979 1.427 1_554 S
C972 H963 0.930 . S
C972 C970 1.378 . S
C972 C973 1.367 . S
C973 C972 1.367 . S
C973 C975 1.433 . S
C974 C970 1.350 . S
C974 C971 1.463 1_556 S
C974 N978 1.427 1_556 S
C975 H965 0.919 1_456 S
C975 C973 1.433 . S
C975 N978 1.384 1_556 S
C976 H967 0.929 . S
C976 C968 1.378 . S
C976 C971 1.350 . S
C977 H964 0.929 1_554 S
C977 C969 1.433 . S
C977 N979 1.384 1_554 S
N978 C974 1.427 1_554 S
N978 C975 1.384 1_554 S
N979 C971 1.427 1_556 S
N979 C977 1.384 1_556 S
H980 C986 0.930 . S
H981 C990 0.930 . S
H982 C995 0.929 . S
H983 C993 0.929 . S
H984 C988 0.929 . S
H985 C994 0.929 . S
C986 H980 0.930 . S
C986 C987 1.367 . S
C986 C994 1.378 . S
C987 C986 1.367 . S
C987 C995 1.433 . S
C988 H984 0.929 . S
C988 C990 1.378 . S
C988 C992 1.350 . S
C989 C992 1.463 . S
C989 C994 1.350 . S
C989 N997 1.427 . S
C990 H981 0.930 . S
C990 C988 1.378 . S
C990 C991 1.367 . S
C991 C990 1.367 . S
C991 C993 1.433 . S
C992 C988 1.350 . S
C992 C989 1.463 . S
C992 N996 1.427 . S
C993 H983 0.929 . S
C993 C991 1.433 . S
C993 N996 1.384 . S
C994 H985 0.929 . S
C994 C986 1.378 . S
C994 C989 1.350 . S
C995 H982 0.929 . S
C995 C987 1.433 . S
C995 N997 1.384 . S
N996 C992 1.427 . S
N996 C993 1.384 . S
N997 C989 1.427 . S
N997 C995 1.384 . S
H998 C1004 0.930 . S
H999 C1008 0.930 . S
H1000 C1013 0.929 . S
H1001 C1011 0.929 . S
H1002 C1006 0.929 . S
H1003 C1012 0.929 . S
C1004 H998 0.930 . S
C1004 C1005 1.367 . S
C1004 C1012 1.378 . S
C1005 C1004 1.367 . S
C1005 C1013 1.433 . S
C1006 H1002 0.929 . S
C1006 C1008 1.378 . S
C1006 C1010 1.350 . S
C1007 C1010 1.463 . S
C1007 C1012 1.350 . S
C1007 N1015 1.427 . S
C1008 H999 0.930 . S
C1008 C1006 1.378 . S
C1008 C1009 1.367 . S
C1009 C1008 1.367 . S
C1009 C1011 1.433 . S
C1010 C1006 1.350 . S
C1010 C1007 1.463 . S
C1010 N1014 1.427 . S
C1011 H1001 0.929 . S
C1011 C1009 1.433 . S
C1011 N1014 1.384 . S
C1012 H1003 0.929 . S
C1012 C1004 1.378 . S
C1012 C1007 1.350 . S
C1013 H1000 0.929 . S
C1013 C1005 1.433 . S
C1013 N1015 1.384 . S
N1014 C1010 1.427 . S
N1014 C1011 1.384 . S
N1015 C1007 1.427 . S
N1015 C1013 1.384 . S
H1016 C1022 0.930 . S
H1017 C1026 0.930 . S
H1018 C1031 0.929 . S
H1019 C1029 0.929 . S
H1020 C1024 0.929 . S
H1021 C1030 0.929 . S
C1022 H1016 0.930 . S
C1022 C1023 1.367 . S
C1022 C1030 1.378 . S
C1023 C1022 1.367 . S
C1023 C1031 1.433 . S
C1024 H1020 0.929 . S
C1024 C1026 1.378 . S
C1024 C1028 1.350 . S
C1025 C1028 1.463 . S
C1025 C1030 1.350 . S
C1025 N1033 1.427 . S
C1026 H1017 0.930 . S
C1026 C1024 1.378 . S
C1026 C1027 1.367 . S
C1027 C1026 1.367 . S
C1027 C1029 1.433 . S
C1028 C1024 1.350 . S
C1028 C1025 1.463 . S
C1028 N1032 1.427 . S
C1029 H1019 0.929 . S
C1029 C1027 1.433 . S
C1029 N1032 1.384 . S
C1030 H1021 0.929 . S
C1030 C1022 1.378 . S
C1030 C1025 1.350 . S
C1031 H1018 0.929 . S
C1031 C1023 1.433 . S
C1031 N1033 1.384 . S
N1032 C1028 1.427 . S
N1032 C1029 1.384 . S
N1033 C1025 1.427 . S
N1033 C1031 1.384 . S
H1034 C1040 0.930 . S
H1035 C1044 0.930 . S
H1036 C1049 0.929 . S
H1037 C1047 0.929 . S
H1038 C1042 0.929 . S
H1039 C1048 0.929 . S
C1040 H1034 0.930 . S
C1040 C1041 1.367 . S
C1040 C1048 1.378 . S
C1041 C1040 1.367 . S
C1041 C1049 1.433 . S
C1042 H1038 0.929 . S
C1042 C1044 1.378 . S
C1042 C1046 1.350 . S
C1043 C1046 1.463 . S
C1043 C1048 1.350 . S
C1043 N1051 1.427 . S
C1044 H1035 0.930 . S
C1044 C1042 1.378 . S
C1044 C1045 1.367 . S
C1045 C1044 1.367 . S
C1045 C1047 1.433 . S
C1046 C1042 1.350 . S
C1046 C1043 1.463 . S
C1046 N1050 1.427 . S
C1047 H1037 0.929 . S
C1047 C1045 1.433 . S
C1047 N1050 1.384 . S
C1048 H1039 0.929 . S
C1048 C1040 1.378 . S
C1048 C1043 1.350 . S
C1049 H1036 0.929 . S
C1049 C1041 1.433 . S
C1049 N1051 1.384 . S
N1050 C1046 1.427 . S
N1050 C1047 1.384 . S
N1051 C1043 1.427 . S
N1051 C1049 1.384 . S
H1052 C1058 0.930 . S
H1053 C1062 0.930 . S
H1054 C1067 0.929 . S
H1055 C1065 0.929 . S
H1056 C1060 0.929 . S
H1057 C1066 0.929 . S
C1058 H1052 0.930 . S
C1058 C1059 1.367 . S
C1058 C1066 1.378 . S
C1059 C1058 1.367 . S
C1059 C1067 1.433 . S
C1060 H1056 0.929 . S
C1060 C1062 1.378 . S
C1060 C1064 1.350 . S
C1061 C1064 1.463 . S
C1061 C1066 1.350 . S
C1061 N1069 1.427 . S
C1062 H1053 0.930 . S
C1062 C1060 1.378 . S
C1062 C1063 1.367 . S
C1063 C1062 1.367 . S
C1063 C1065 1.433 . S
C1064 C1060 1.350 . S
C1064 C1061 1.463 . S
C1064 N1068 1.427 . S
C1065 H1055 0.929 . S
C1065 C1063 1.433 . S
C1065 N1068 1.384 . S
C1066 H1057 0.929 . S
C1066 C1058 1.378 . S
C1066 C1061 1.350 . S
C1067 H1054 0.929 . S
C1067 C1059 1.433 . S
C1067 N1069 1.384 . S
N1068 C1064 1.427 . S
N1068 C1065 1.384 . S
N1069 C1061 1.427 . S
N1069 C1067 1.384 . S
H1070 C1076 0.930 . S
H1071 C1080 0.930 . S
H1072 C1085 0.929 . S
H1073 C1083 0.929 . S
H1074 C1078 0.929 . S
H1075 C1084 0.929 . S
C1076 H1070 0.930 . S
C1076 C1077 1.367 . S
C1076 C1084 1.378 . S
C1077 C1076 1.367 . S
C1077 C1085 1.433 . S
C1078 H1074 0.929 . S
C1078 C1080 1.378 . S
C1078 C1082 1.350 . S
C1079 C1082 1.463 . S
C1079 C1084 1.350 . S
C1079 N1087 1.427 . S
C1080 H1071 0.930 . S
C1080 C1078 1.378 . S
C1080 C1081 1.367 . S
C1081 C1080 1.367 . S
C1081 C1083 1.433 . S
C1082 C1078 1.350 . S
C1082 C1079 1.463 . S
C1082 N1086 1.427 . S
C1083 H1073 0.929 . S
C1083 C1081 1.433 . S
C1083 N1086 1.384 . S
C1084 H1075 0.929 . S
C1084 C1076 1.378 . S
C1084 C1079 1.350 . S
C1085 H1072 0.929 . S
C1085 C1077 1.433 . S
C1085 N1087 1.384 . S
N1086 C1082 1.427 . S
N1086 C1083 1.384 . S
N1087 C1079 1.427 . S
N1087 C1085 1.384 . S
H1088 C1094 0.930 . S
H1089 C1098 0.930 . S
H1090 C1103 0.929 . S
H1091 C1101 0.929 . S
H1092 C1096 0.929 . S
H1093 C1102 0.929 . S
C1094 H1088 0.930 . S
C1094 C1095 1.367 . S
C1094 C1102 1.378 . S
C1095 C1094 1.367 . S
C1095 C1103 1.433 . S
C1096 H1092 0.929 . S
C1096 C1098 1.378 . S
C1096 C1100 1.350 . S
C1097 C1100 1.463 . S
C1097 C1102 1.350 . S
C1097 N1105 1.427 . S
C1098 H1089 0.930 . S
C1098 C1096 1.378 . S
C1098 C1099 1.367 . S
C1099 C1098 1.367 . S
C1099 C1101 1.433 . S
C1100 C1096 1.350 . S
C1100 C1097 1.463 . S
C1100 N1104 1.427 . S
C1101 H1091 0.929 . S
C1101 C1099 1.433 . S
C1101 N1104 1.384 . S
C1102 H1093 0.929 . S
C1102 C1094 1.378 . S
C1102 C1097 1.350 . S
C1103 H1090 0.929 . S
C1103 C1095 1.433 . S
C1103 N1105 1.384 . S
N1104 C1100 1.427 . S
N1104 C1101 1.384 . S
N1105 C1097 1.427 . S
N1105 C1103 1.384 . S
H1106 C1112 0.930 . S
H1107 C1116 0.930 . S
H1108 C1121 0.929 . S
H1109 C1119 0.929 . S
H1110 C1114 0.929 . S
H1111 C1120 0.929 . S
C1112 H1106 0.930 . S
C1112 C1113 1.367 . S
C1112 C1120 1.378 . S
C1113 C1112 1.367 . S
C1113 C1121 1.433 . S
C1114 H1110 0.929 . S
C1114 C1116 1.378 . S
C1114 C1118 1.350 . S
C1115 C1118 1.463 . S
C1115 C1120 1.350 . S
C1115 N1123 1.427 . S
C1116 H1107 0.930 . S
C1116 C1114 1.378 . S
C1116 C1117 1.367 . S
C1117 C1116 1.367 . S
C1117 C1119 1.433 . S
C1118 C1114 1.350 . S
C1118 C1115 1.463 . S
C1118 N1122 1.427 . S
C1119 H1109 0.929 . S
C1119 C1117 1.433 . S
C1119 N1122 1.384 . S
C1120 H1111 0.929 . S
C1120 C1112 1.378 . S
C1120 C1115 1.350 . S
C1121 H1108 0.929 . S
C1121 C1113 1.433 . S
C1121 N1123 1.384 . S
N1122 C1118 1.427 . S
N1122 C1119 1.384 . S
N1123 C1115 1.427 . S
N1123 C1121 1.384 . S
H1124 C1130 0.930 . S
H1125 C1134 0.930 . S
H1126 C1139 0.929 . S
H1127 C1137 0.929 . S
H1128 C1132 0.929 . S
H1129 C1138 0.929 1_554 S
C1130 H1124 0.930 . S
C1130 C1131 1.367 . S
C1130 C1138 1.378 . S
C1131 C1130 1.367 . S
C1131 C1139 1.433 . S
C1132 H1128 0.929 . S
C1132 C1134 1.378 . S
C1132 C1136 1.350 . S
C1133 C1136 1.463 . S
C1133 C1138 1.350 . S
C1133 N1141 1.427 . S
C1134 H1125 0.930 . S
C1134 C1132 1.378 . S
C1134 C1135 1.367 . S
C1135 C1134 1.367 . S
C1135 C1137 1.433 1_556 S
C1136 C1132 1.350 . S
C1136 C1133 1.463 . S
C1136 N1140 1.427 1_556 S
C1137 H1127 0.929 . S
C1137 C1135 1.433 1_554 S
C1137 N1140 1.384 . S
C1138 H1129 0.929 1_556 S
C1138 C1130 1.378 . S
C1138 C1133 1.350 . S
C1139 H1126 0.929 . S
C1139 C1131 1.433 . S
C1139 N1141 1.384 . S
N1140 C1136 1.427 1_554 S
N1140 C1137 1.384 . S
N1141 C1133 1.427 . S
N1141 C1139 1.384 . S
H1142 C1148 0.930 . S
H1143 C1152 0.930 . S
H1144 C1157 0.929 . S
H1145 C1155 0.929 . S
H1146 C1150 0.929 . S
H1147 C1156 0.929 . S
C1148 H1142 0.930 . S
C1148 C1149 1.367 . S
C1148 C1156 1.378 . S
C1149 C1148 1.367 . S
C1149 C1157 1.433 . S
C1150 H1146 0.929 . S
C1150 C1152 1.378 . S
C1150 C1154 1.350 . S
C1151 C1154 1.463 . S
C1151 C1156 1.350 . S
C1151 N1159 1.427 . S
C1152 H1143 0.930 . S
C1152 C1150 1.378 . S
C1152 C1153 1.367 . S
C1153 C1152 1.367 . S
C1153 C1155 1.433 . S
C1154 C1150 1.350 . S
C1154 C1151 1.463 . S
C1154 N1158 1.427 . S
C1155 H1145 0.929 . S
C1155 C1153 1.433 . S
C1155 N1158 1.384 . S
C1156 H1147 0.929 . S
C1156 C1148 1.378 . S
C1156 C1151 1.350 . S
C1157 H1144 0.929 . S
C1157 C1149 1.433 . S
C1157 N1159 1.384 . S
N1158 C1154 1.427 . S
N1158 C1155 1.384 . S
N1159 C1151 1.427 . S
N1159 C1157 1.384 . S
H1160 C1166 0.930 . S
H1161 C1170 0.930 . S
H1162 C1175 0.929 . S
H1163 C1173 0.929 . S
H1164 C1168 0.929 . S
H1165 C1174 0.929 . S
C1166 H1160 0.930 . S
C1166 C1167 1.367 . S
C1166 C1174 1.378 . S
C1167 C1166 1.367 . S
C1167 C1175 1.433 . S
C1168 H1164 0.929 . S
C1168 C1170 1.378 . S
C1168 C1172 1.350 . S
C1169 C1172 1.463 . S
C1169 C1174 1.350 . S
C1169 N1177 1.427 . S
C1170 H1161 0.930 . S
C1170 C1168 1.378 . S
C1170 C1171 1.367 . S
C1171 C1170 1.367 . S
C1171 C1173 1.433 . S
C1172 C1168 1.350 . S
C1172 C1169 1.463 . S
C1172 N1176 1.427 . S
C1173 H1163 0.929 . S
C1173 C1171 1.433 . S
C1173 N1176 1.384 . S
C1174 H1165 0.929 . S
C1174 C1166 1.378 . S
C1174 C1169 1.350 . S
C1175 H1162 0.929 . S
C1175 C1167 1.433 . S
C1175 N1177 1.384 . S
N1176 C1172 1.427 . S
N1176 C1173 1.384 . S
N1177 C1169 1.427 . S
N1177 C1175 1.384 . S
H1178 C1184 0.930 . S
H1179 C1188 0.930 . S
H1180 C1193 0.929 . S
H1181 C1191 0.929 1_556 S
H1182 C1186 0.929 . S
H1183 C1192 0.929 1_556 S
C1184 H1178 0.930 . S
C1184 C1185 1.367 . S
C1184 C1192 1.378 . S
C1185 C1184 1.367 . S
C1185 C1193 1.433 . S
C1186 H1182 0.929 . S
C1186 C1188 1.378 . S
C1186 C1190 1.350 . S
C1187 C1190 1.463 . S
C1187 C1192 1.350 . S
C1187 N1195 1.427 . S
C1188 H1179 0.930 . S
C1188 C1186 1.378 . S
C1188 C1189 1.367 . S
C1189 C1188 1.367 . S
C1189 C1191 1.433 . S
C1190 C1186 1.350 . S
C1190 C1187 1.463 . S
C1190 N1194 1.427 . S
C1191 H1181 0.929 1_554 S
C1191 C1189 1.433 . S
C1191 N1194 1.384 . S
C1192 H1183 0.929 1_554 S
C1192 C1184 1.378 . S
C1192 C1187 1.350 . S
C1193 H1180 0.929 . S
C1193 C1185 1.433 . S
C1193 N1195 1.384 . S
N1194 C1190 1.427 . S
N1194 C1191 1.384 . S
N1195 C1187 1.427 . S
N1195 C1193 1.384 . S
C343 C186 1.104 . S
C339 C62 1.084 . S
C361 C199 1.642 . S
C357 C73 1.596 1_455 S
C375 C84 1.471 . S
C379 C212 1.521 . S
C397 C225 1.301 . S
C393 C49 1.156 . S
C415 C233 1.364 . S
C411 C118 1.374 . S
C433 C246 1.538 . S
C429 C137 1.337 . S
C447 C129 1.562 . S
C451 C259 1.550 . S
C469 C272 1.851 . S
C465 C106 1.831 . S
C483 C128 1.737 . S
C487 C290 1.770 . S
C505 C301 1.644 . S
C501 C104 1.466 . S
C519 C115 1.525 . S
C523 C285 1.737 . S
C541 C293 1.688 . S
C537 C139 1.680 . S
C555 C85 1.574 . S
C559 C316 1.571 . S
C573 C52 1.206 . S
C577 C306 1.194 . S
C591 C60 0.941 . S
C595 C311 1.030 . S
C609 C71 1.471 . S
C613 C314 1.576 . S
C627 C40 1.627 . S
C631 C223 1.700 . S
C645 C162 1.062 . S
C649 C215 1.056 . S
C667 C184 1.176 . S
C663 C173 1.194 . S
C685 C189 1.755 . S
C681 C93 1.566 . S
C699 C51 1.437 . S
C703 C236 1.467 . S
C721 C275 1.510 . S
C717 C126 1.381 . S
C739 C228 1.753 . S
C735 C107 1.758 . S
C757 C254 1.551 . S
C753 C140 1.556 . S
C775 C264 1.105 . S
C771 C161 1.085 . S
C789 C172 1.584 . S
C793 C277 1.630 . S
C807 C95 1.460 . S
C811 C238 1.517 . S
C829 C251 1.301 . S
C825 C148 1.148 . S
C843 C41 1.376 . S
C847 C207 1.366 . S
C865 C220 1.538 . S
C861 C5 1.337 . S
C883 C181 1.551 . S
C879 C19 1.562 . S
C901 C194 1.857 . S
C897 C29 1.822 1_455 S
C915 C18 1.737 . S
C919 C303 1.773 . S
C933 C27 1.467 . S
C937 C288 1.655 . S
C951 C38 1.547 . S
C955 C298 1.747 . S
C969 C7 1.684 . S
C973 C280 1.691 . S
C991 C329 1.563 . S
C987 C96 1.578 . S
C1009 C319 1.194 . S
C1005 C151 1.205 . S
C1027 C324 1.023 . S
C1023 C159 0.953 . S
C1041 C170 1.457 . S
C1045 C327 1.585 . S
C1059 C117 1.635 . S
C1063 C249 1.700 . S
C1081 C241 1.045 . S
C1077 C63 1.065 . S
C1099 C262 1.178 . S
C1095 C74 1.191 . S
C1117 C267 1.751 . S
C1113 C82 1.559 . S
C1131 C150 1.438 . S
C1135 C210 1.472 1_556 S
C1153 C197 1.508 . S
C1149 C16 1.377 . S
C1167 C30 1.758 . S
C1171 C202 1.753 . S
C1189 C176 1.554 . S
C1185 C8 1.559 1_565 S
