# Generated by pormake.
# Topology ocu, (6,8)-cn, num edge types: 1
# Building blocks:
#     Node 0, Type 0, BuildingBlock: FUNLAD_clean_sbu_0, # of connection points: 6
#     Node 1, Type 0, BuildingBlock: FUNLAD_clean_sbu_0, # of connection points: 6
#     Node 2, Type 0, BuildingBlock: FUNLAD_clean_sbu_0, # of connection points: 6
#     Node 3, Type 0, BuildingBlock: FUNLAD_clean_sbu_0, # of connection points: 6
#     Node 4, Type 0, BuildingBlock: FUNLAD_clean_sbu_0, # of connection points: 6
#     Node 5, Type 0, BuildingBlock: FUNLAD_clean_sbu_0, # of connection points: 6
#     Node 6, Type 0, BuildingBlock: FUNLAD_clean_sbu_0, # of connection points: 6
#     Node 7, Type 0, BuildingBlock: FUNLAD_clean_sbu_0, # of connection points: 6
#     Node 8, Type 1, BuildingBlock: GIZVER_clean_sbu_0, # of connection points: 8
#     Node 9, Type 1, BuildingBlock: GIZVER_clean_sbu_0, # of connection points: 8
#     Node 10, Type 1, BuildingBlock: GIZVER_clean_sbu_0, # of connection points: 8
#     Node 11, Type 1, BuildingBlock: GIZVER_clean_sbu_0, # of connection points: 8
#     Node 12, Type 1, BuildingBlock: GIZVER_clean_sbu_0, # of connection points: 8
#     Node 13, Type 1, BuildingBlock: GIZVER_clean_sbu_0, # of connection points: 8
#     Edge 14, Type (0, 1), BuildingBlock: ZUJKAS_clean_linker_0, # of connection points: 2
#     Edge 15, Type (0, 1), BuildingBlock: ZUJKAS_clean_linker_0, # of connection points: 2
#     Edge 16, Type (0, 1), BuildingBlock: ZUJKAS_clean_linker_0, # of connection points: 2
#     Edge 17, Type (0, 1), BuildingBlock: ZUJKAS_clean_linker_0, # of connection points: 2
#     Edge 18, Type (0, 1), BuildingBlock: ZUJKAS_clean_linker_0, # of connection points: 2
#     Edge 19, Type (0, 1), BuildingBlock: ZUJKAS_clean_linker_0, # of connection points: 2
#     Edge 20, Type (0, 1), BuildingBlock: ZUJKAS_clean_linker_0, # of connection points: 2
#     Edge 21, Type (0, 1), BuildingBlock: ZUJKAS_clean_linker_0, # of connection points: 2
#     Edge 22, Type (0, 1), BuildingBlock: ZUJKAS_clean_linker_0, # of connection points: 2
#     Edge 23, Type (0, 1), BuildingBlock: ZUJKAS_clean_linker_0, # of connection points: 2
#     Edge 24, Type (0, 1), BuildingBlock: ZUJKAS_clean_linker_0, # of connection points: 2
#     Edge 25, Type (0, 1), BuildingBlock: ZUJKAS_clean_linker_0, # of connection points: 2
#     Edge 26, Type (0, 1), BuildingBlock: ZUJKAS_clean_linker_0, # of connection points: 2
#     Edge 27, Type (0, 1), BuildingBlock: ZUJKAS_clean_linker_0, # of connection points: 2
#     Edge 28, Type (0, 1), BuildingBlock: ZUJKAS_clean_linker_0, # of connection points: 2
#     Edge 29, Type (0, 1), BuildingBlock: ZUJKAS_clean_linker_0, # of connection points: 2
#     Edge 30, Type (0, 1), BuildingBlock: ZUJKAS_clean_linker_0, # of connection points: 2
#     Edge 31, Type (0, 1), BuildingBlock: ZUJKAS_clean_linker_0, # of connection points: 2
#     Edge 32, Type (0, 1), BuildingBlock: ZUJKAS_clean_linker_0, # of connection points: 2
#     Edge 33, Type (0, 1), BuildingBlock: ZUJKAS_clean_linker_0, # of connection points: 2
#     Edge 34, Type (0, 1), BuildingBlock: ZUJKAS_clean_linker_0, # of connection points: 2
#     Edge 35, Type (0, 1), BuildingBlock: ZUJKAS_clean_linker_0, # of connection points: 2
#     Edge 36, Type (0, 1), BuildingBlock: ZUJKAS_clean_linker_0, # of connection points: 2
#     Edge 37, Type (0, 1), BuildingBlock: ZUJKAS_clean_linker_0, # of connection points: 2
#     Edge 38, Type (0, 1), BuildingBlock: ZUJKAS_clean_linker_0, # of connection points: 2
#     Edge 39, Type (0, 1), BuildingBlock: ZUJKAS_clean_linker_0, # of connection points: 2
#     Edge 40, Type (0, 1), BuildingBlock: ZUJKAS_clean_linker_0, # of connection points: 2
#     Edge 41, Type (0, 1), BuildingBlock: ZUJKAS_clean_linker_0, # of connection points: 2
#     Edge 42, Type (0, 1), BuildingBlock: ZUJKAS_clean_linker_0, # of connection points: 2
#     Edge 43, Type (0, 1), BuildingBlock: ZUJKAS_clean_linker_0, # of connection points: 2
#     Edge 44, Type (0, 1), BuildingBlock: ZUJKAS_clean_linker_0, # of connection points: 2
#     Edge 45, Type (0, 1), BuildingBlock: ZUJKAS_clean_linker_0, # of connection points: 2
#     Edge 46, Type (0, 1), BuildingBlock: ZUJKAS_clean_linker_0, # of connection points: 2
#     Edge 47, Type (0, 1), BuildingBlock: ZUJKAS_clean_linker_0, # of connection points: 2
#     Edge 48, Type (0, 1), BuildingBlock: ZUJKAS_clean_linker_0, # of connection points: 2
#     Edge 49, Type (0, 1), BuildingBlock: ZUJKAS_clean_linker_0, # of connection points: 2
#     Edge 50, Type (0, 1), BuildingBlock: ZUJKAS_clean_linker_0, # of connection points: 2
#     Edge 51, Type (0, 1), BuildingBlock: ZUJKAS_clean_linker_0, # of connection points: 2
#     Edge 52, Type (0, 1), BuildingBlock: ZUJKAS_clean_linker_0, # of connection points: 2
#     Edge 53, Type (0, 1), BuildingBlock: ZUJKAS_clean_linker_0, # of connection points: 2
#     Edge 54, Type (0, 1), BuildingBlock: ZUJKAS_clean_linker_0, # of connection points: 2
#     Edge 55, Type (0, 1), BuildingBlock: ZUJKAS_clean_linker_0, # of connection points: 2
#     Edge 56, Type (0, 1), BuildingBlock: ZUJKAS_clean_linker_0, # of connection points: 2
#     Edge 57, Type (0, 1), BuildingBlock: ZUJKAS_clean_linker_0, # of connection points: 2
#     Edge 58, Type (0, 1), BuildingBlock: ZUJKAS_clean_linker_0, # of connection points: 2
#     Edge 59, Type (0, 1), BuildingBlock: ZUJKAS_clean_linker_0, # of connection points: 2
#     Edge 60, Type (0, 1), BuildingBlock: ZUJKAS_clean_linker_0, # of connection points: 2
#     Edge 61, Type (0, 1), BuildingBlock: ZUJKAS_clean_linker_0, # of connection points: 2
# Relax obj value: 0.230
# Max RMSD: 0.287
# Mean RMSD: 0.223
data_MOF--net-ocu--node1-FUNLAD_clean_sbu_0--node2-GIZVER_clean_sbu_0--edge1-ZUJKAS_clean_linker_0
_symmetry_space_group_name_H-M    P1
_symmetry_Int_Tables_number       1
_symmetry_cell_setting            triclinic
loop_
_symmetry_equiv_pos_as_xyz
'x, y, z'
_cell_length_a     53.00811
_cell_length_b     54.941016
_cell_length_c     39.857996
_cell_angle_alpha  84.878681
_cell_angle_beta   85.830833
_cell_angle_gamma 93.526753
loop_
_atom_site_label
_atom_site_type_symbol
_atom_site_fract_x
_atom_site_fract_y
_atom_site_fract_z
_atom_type_partial_charge
C0 C 0.23067 0.28445 0.30623 0.0
N1 N 0.21741 0.21717 0.26641 0.0
C2 C 0.20814 0.20659 0.29732 0.0
C3 C 0.19196 0.18542 0.29996 0.0
C4 C 0.18559 0.17503 0.2705 0.0
C5 C 0.19516 0.18645 0.23897 0.0
C6 C 0.211 0.20776 0.23749 0.0
Zn7 Zn 0.24309 0.24626 0.26234 0.0
C8 C 0.23088 0.28446 0.20933 0.0
N9 N 0.2986 0.30565 0.24953 0.0
C10 C 0.30677 0.31362 0.27854 0.0
C11 C 0.30454 0.31871 0.21907 0.0
C12 C 0.31837 0.34127 0.2172 0.0
C13 C 0.32636 0.35006 0.24689 0.0
C14 C 0.32102 0.33587 0.27773 0.0
Zn15 Zn 0.27323 0.27617 0.25358 0.0
O16 O 0.22186 0.26349 0.29975 0.0
C17 C 0.28549 0.23789 0.30645 0.0
O18 O 0.25157 0.29335 0.29104 0.0
H19 H 0.2978 0.31206 0.19638 0.0
H20 H 0.21367 0.21434 0.31992 0.0
H21 H 0.30143 0.30319 0.30257 0.0
O22 O 0.26409 0.22847 0.29992 0.0
O23 O 0.29386 0.25829 0.29091 0.0
H24 H 0.21853 0.21655 0.21317 0.0
O25 O 0.2947 0.25863 0.21599 0.0
O26 O 0.26439 0.22932 0.22504 0.0
O27 O 0.25227 0.29377 0.21596 0.0
O28 O 0.22236 0.26413 0.22495 0.0
C29 C 0.28531 0.2378 0.20962 0.0
H30 H 0.185 0.17692 0.32474 0.0
H31 H 0.1904 0.17903 0.21577 0.0
H32 H 0.32253 0.35189 0.19298 0.0
H33 H 0.32707 0.3423 0.30098 0.0
C34 C 0.72057 0.28755 0.2292 0.0
N35 N 0.74545 0.22354 0.19231 0.0
C36 C 0.71987 0.22024 0.19094 0.0
C37 C 0.70953 0.20375 0.17041 0.0
C38 C 0.72549 0.19031 0.15092 0.0
C39 C 0.75186 0.19429 0.1517 0.0
C40 C 0.76156 0.21116 0.1729 0.0
Zn41 Zn 0.75585 0.2455 0.22916 0.0
C42 C 0.79279 0.28657 0.20894 0.0
N43 N 0.76709 0.29028 0.30937 0.0
C44 C 0.7507 0.302 0.32929 0.0
C45 C 0.79263 0.29428 0.31026 0.0
C46 C 0.80266 0.31119 0.33039 0.0
C47 C 0.78638 0.32416 0.35016 0.0
C48 C 0.76008 0.3191 0.35031 0.0
Zn49 Zn 0.75685 0.26844 0.27268 0.0
O50 O 0.7286 0.26985 0.21402 0.0
C51 C 0.71969 0.22792 0.29318 0.0
O52 O 0.72928 0.29213 0.257 0.0
H53 H 0.8055 0.28508 0.29422 0.0
H54 H 0.70717 0.22973 0.20682 0.0
H55 H 0.73048 0.29871 0.32803 0.0
O56 O 0.72785 0.22409 0.2634 0.0
O57 O 0.72874 0.24672 0.30595 0.0
H58 H 0.78181 0.21377 0.17461 0.0
O59 O 0.78426 0.24438 0.28767 0.0
O60 O 0.78355 0.22168 0.24512 0.0
O61 O 0.7844 0.28987 0.23876 0.0
O62 O 0.78425 0.26772 0.19572 0.0
C63 C 0.79242 0.22665 0.2727 0.0
H64 H 0.6891 0.20098 0.17049 0.0
H65 H 0.76467 0.18399 0.13701 0.0
H66 H 0.82306 0.31459 0.32983 0.0
H67 H 0.74703 0.32894 0.36534 0.0
C68 C 0.77015 0.7265 0.30477 0.0
N69 N 0.79631 0.79617 0.26302 0.0
C70 C 0.79744 0.79879 0.29651 0.0
C71 C 0.81544 0.81495 0.30751 0.0
C72 C 0.83274 0.82878 0.28401 0.0
C73 C 0.83169 0.82559 0.2495 0.0
C74 C 0.81302 0.80909 0.23943 0.0
Zn75 Zn 0.76813 0.77122 0.25318 0.0
C76 C 0.78324 0.73503 0.20804 0.0
N77 N 0.70799 0.71789 0.24516 0.0
C78 C 0.69087 0.70576 0.26902 0.0
C79 C 0.70659 0.71507 0.21174 0.0
C80 C 0.68756 0.69986 0.20105 0.0
C81 C 0.66959 0.68741 0.22483 0.0
C82 C 0.67123 0.69022 0.25926 0.0
Zn83 Zn 0.7363 0.74271 0.25474 0.0
O84 O 0.78044 0.74699 0.29187 0.0
C85 C 0.72106 0.77876 0.30001 0.0
O86 O 0.74933 0.71856 0.29429 0.0
H87 H 0.72005 0.72502 0.193 0.0
H88 H 0.78436 0.78821 0.31509 0.0
H89 H 0.69224 0.70839 0.29541 0.0
O90 O 0.74325 0.78693 0.28857 0.0
O91 O 0.71185 0.75889 0.29025 0.0
H92 H 0.81189 0.80662 0.21294 0.0
O93 O 0.72396 0.76723 0.21552 0.0
O94 O 0.7554 0.79526 0.21409 0.0
O95 O 0.76106 0.72695 0.2196 0.0
O96 O 0.79253 0.75499 0.21754 0.0
C97 C 0.73464 0.78773 0.20311 0.0
H98 H 0.81598 0.81636 0.3344 0.0
H99 H 0.84484 0.83592 0.23064 0.0
H100 H 0.68666 0.69807 0.17429 0.0
H101 H 0.65745 0.68077 0.27814 0.0
C102 C 0.21992 0.78696 0.27348 0.0
N103 N 0.28755 0.76994 0.31624 0.0
C104 C 0.28448 0.79404 0.31993 0.0
C105 C 0.2996 0.80706 0.33998 0.0
C106 C 0.31925 0.79588 0.35564 0.0
C107 C 0.32163 0.77071 0.35295 0.0
C108 C 0.30544 0.75798 0.3329 0.0
Zn109 Zn 0.2677 0.75699 0.27748 0.0
C110 C 0.22759 0.71911 0.29484 0.0
N111 N 0.2262 0.74414 0.1928 0.0
C112 C 0.21329 0.75855 0.17137 0.0
C113 C 0.22598 0.71951 0.1909 0.0
C114 C 0.21274 0.70844 0.16692 0.0
C115 C 0.19902 0.72261 0.14473 0.0
C116 C 0.19926 0.74803 0.14709 0.0
Zn117 Zn 0.24557 0.75601 0.2318 0.0
O118 O 0.23779 0.77936 0.29027 0.0
C119 C 0.28492 0.79453 0.21484 0.0
O120 O 0.21782 0.78049 0.24397 0.0
H121 H 0.23558 0.7081 0.20867 0.0
H122 H 0.27144 0.80408 0.30553 0.0
H123 H 0.21344 0.77804 0.17352 0.0
O124 O 0.28798 0.78658 0.24517 0.0
O125 O 0.26704 0.78462 0.19996 0.0
H126 H 0.30815 0.73902 0.32922 0.0
O127 O 0.27409 0.73203 0.21975 0.0
O128 O 0.29645 0.73353 0.26377 0.0
O129 O 0.22397 0.72787 0.26502 0.0
O130 O 0.2469 0.72725 0.30884 0.0
C131 C 0.29295 0.72549 0.2354 0.0
H132 H 0.29667 0.82626 0.34175 0.0
H133 H 0.33663 0.76137 0.3646 0.0
H134 H 0.21249 0.68873 0.16665 0.0
H135 H 0.18865 0.75952 0.13054 0.0
C136 C 0.21907 0.79211 0.73501 0.0
N137 N 0.24169 0.72843 0.69536 0.0
C138 C 0.21621 0.7267 0.69256 0.0
C139 C 0.2057 0.71211 0.66979 0.0
C140 C 0.22134 0.69864 0.64971 0.0
C141 C 0.24765 0.70063 0.65281 0.0
C142 C 0.25754 0.71589 0.67586 0.0
Zn143 Zn 0.25267 0.74864 0.73351 0.0
C144 C 0.29146 0.78855 0.7146 0.0
N145 N 0.26598 0.7915 0.81574 0.0
C146 C 0.25044 0.80486 0.83452 0.0
C147 C 0.2914 0.79249 0.81917 0.0
C148 C 0.30205 0.8067 0.84228 0.0
C149 C 0.28671 0.8208 0.86171 0.0
C150 C 0.26056 0.81999 0.85764 0.0
Zn151 Zn 0.25487 0.771 0.77761 0.0
O152 O 0.22658 0.77436 0.71952 0.0
C153 C 0.21646 0.73056 0.79659 0.0
O154 O 0.22799 0.7962 0.76289 0.0
H155 H 0.30382 0.7828 0.80321 0.0
H156 H 0.20367 0.73604 0.70887 0.0
H157 H 0.23037 0.80425 0.83105 0.0
O158 O 0.22415 0.7275 0.76638 0.0
O159 O 0.22602 0.74881 0.8102 0.0
H160 H 0.27769 0.71722 0.67875 0.0
O161 O 0.28133 0.74533 0.79126 0.0
O162 O 0.27899 0.72333 0.74814 0.0
O163 O 0.28338 0.79228 0.74445 0.0
O164 O 0.28187 0.77016 0.70139 0.0
C165 C 0.28838 0.72747 0.77566 0.0
H166 H 0.18528 0.71062 0.66897 0.0
H167 H 0.26033 0.69038 0.63786 0.0
H168 H 0.32238 0.80733 0.84408 0.0
H169 H 0.24821 0.8309 0.87204 0.0
C170 C 0.27606 0.22965 0.80392 0.0
N171 N 0.30149 0.29813 0.75634 0.0
C172 C 0.30305 0.30238 0.78929 0.0
C173 C 0.32193 0.3184 0.79857 0.0
C174 C 0.33977 0.33004 0.77394 0.0
C175 C 0.33815 0.32556 0.74003 0.0
C176 C 0.31851 0.30939 0.73164 0.0
Zn177 Zn 0.27307 0.27253 0.74935 0.0
C178 C 0.28832 0.23447 0.70762 0.0
N179 N 0.21307 0.21783 0.74801 0.0
C180 C 0.19467 0.20947 0.77273 0.0
C181 C 0.21238 0.21088 0.71614 0.0
C182 C 0.19297 0.19485 0.7081 0.0
C183 C 0.17358 0.18631 0.73274 0.0
C184 C 0.17436 0.19373 0.76545 0.0
Zn185 Zn 0.24152 0.24354 0.75413 0.0
O186 O 0.2867 0.24942 0.78893 0.0
C187 C 0.22675 0.2818 0.7961 0.0
O188 O 0.25452 0.22191 0.79554 0.0
H189 H 0.22646 0.21835 0.69638 0.0
H190 H 0.28988 0.29294 0.8088 0.0
H191 H 0.19539 0.21548 0.79778 0.0
O192 O 0.24894 0.28941 0.78409 0.0
O193 O 0.21725 0.2616 0.78776 0.0
H194 H 0.31709 0.30556 0.70566 0.0
O195 O 0.22878 0.26536 0.71293 0.0
O196 O 0.2589 0.29492 0.70923 0.0
O197 O 0.26663 0.22594 0.7207 0.0
O198 O 0.29682 0.25546 0.71449 0.0
C199 C 0.23844 0.28586 0.69903 0.0
H200 H 0.32291 0.32134 0.825 0.0
H201 H 0.3519 0.33426 0.72051 0.0
H202 H 0.19259 0.18989 0.68241 0.0
H203 H 0.15942 0.18758 0.7849 0.0
C204 C 0.71662 0.28704 0.77218 0.0
N205 N 0.78538 0.26992 0.8112 0.0
C206 C 0.78349 0.29368 0.81782 0.0
C207 C 0.79846 0.304 0.84075 0.0
C208 C 0.81627 0.29012 0.85647 0.0
C209 C 0.81803 0.26563 0.84951 0.0
C210 C 0.80205 0.25572 0.82687 0.0
Zn211 Zn 0.76491 0.25907 0.77247 0.0
C212 C 0.72751 0.21804 0.78943 0.0
N213 N 0.72161 0.24467 0.68881 0.0
C214 C 0.70639 0.25869 0.67012 0.0
C215 C 0.72277 0.22037 0.68483 0.0
C216 C 0.70901 0.20941 0.66124 0.0
C217 C 0.69308 0.22319 0.64185 0.0
C218 C 0.69161 0.24815 0.64651 0.0
Zn219 Zn 0.74215 0.25608 0.7276 0.0
O220 O 0.73557 0.28084 0.78785 0.0
C221 C 0.78037 0.29694 0.7109 0.0
O222 O 0.71372 0.27958 0.74329 0.0
H223 H 0.73386 0.209 0.70071 0.0
H224 H 0.77114 0.30521 0.80422 0.0
H225 H 0.70526 0.27784 0.67402 0.0
O226 O 0.78392 0.28937 0.74119 0.0
O227 O 0.76276 0.28622 0.69626 0.0
H228 H 0.80361 0.23701 0.82095 0.0
O229 O 0.77075 0.23343 0.71302 0.0
O230 O 0.79371 0.23638 0.75619 0.0
O231 O 0.72278 0.22593 0.75968 0.0
O232 O 0.74548 0.2287 0.80332 0.0
C233 C 0.78998 0.22769 0.72834 0.0
H234 H 0.79702 0.32312 0.84485 0.0
H235 H 0.83181 0.25449 0.86103 0.0
H236 H 0.71014 0.18998 0.65902 0.0
H237 H 0.67921 0.25926 0.63218 0.0
C238 C 0.72546 0.77809 0.80273 0.0
N239 N 0.71356 0.70994 0.76253 0.0
C240 C 0.70741 0.69677 0.79288 0.0
C241 C 0.6936 0.67421 0.79443 0.0
C242 C 0.68585 0.66553 0.76455 0.0
C243 C 0.69152 0.67978 0.73381 0.0
C244 C 0.70575 0.70199 0.73331 0.0
Zn245 Zn 0.7385 0.73976 0.7588 0.0
C246 C 0.72604 0.77745 0.70531 0.0
N247 N 0.79327 0.7998 0.74646 0.0
C248 C 0.80166 0.80794 0.77525 0.0
C249 C 0.7999 0.81213 0.71569 0.0
C250 C 0.81504 0.83396 0.71314 0.0
C251 C 0.82365 0.84286 0.74249 0.0
C252 C 0.81721 0.82947 0.77378 0.0
Zn253 Zn 0.7681 0.77022 0.75051 0.0
O254 O 0.71649 0.75713 0.79621 0.0
C255 C 0.78036 0.73236 0.80397 0.0
O256 O 0.74631 0.78695 0.78745 0.0
H257 H 0.79306 0.80528 0.69317 0.0
H258 H 0.71389 0.70339 0.81573 0.0
H259 H 0.79584 0.79804 0.79951 0.0
O260 O 0.7593 0.72263 0.79684 0.0
O261 O 0.78871 0.75275 0.78838 0.0
H262 H 0.71128 0.71247 0.70938 0.0
O263 O 0.79007 0.75318 0.71359 0.0
O264 O 0.76081 0.72286 0.72161 0.0
O265 O 0.74704 0.78744 0.71233 0.0
O266 O 0.71795 0.75704 0.72099 0.0
C267 C 0.78174 0.7321 0.70688 0.0
H268 H 0.68919 0.66355 0.81857 0.0
H269 H 0.68567 0.67344 0.71041 0.0
H270 H 0.82004 0.84375 0.68852 0.0
H271 H 0.8236 0.8359 0.79685 0.0
Co272 Co 0.04191 0.96088 0.48663 0.0
Co273 Co 0.05347 0.98603 0.53525 0.0
Co274 Co 0.00936 0.01111 0.50063 0.0
O275 O 0.04137 0.99463 0.49435 0.0
H276 H 0.05419 1.0048 0.48017 0.0
O277 O 0.97735 0.02766 0.50693 0.0
Co278 Co 0.9769 0.06157 0.51396 0.0
Co279 Co 0.96522 0.0359 0.46594 0.0
H280 H 0.96453 0.0176 0.52124 0.0
O281 O 0.08684 0.98094 0.53897 0.0
O282 O 0.05492 0.95286 0.53209 0.0
O283 O 0.03279 0.99188 0.57522 0.0
O284 O 0.99859 0.99351 0.54615 0.0
O285 O 0.02807 0.03659 0.52269 0.0
O286 O 0.97343 0.09214 0.52332 0.0
O287 O 0.94513 0.05953 0.53346 0.0
O288 O 0.01115 0.06771 0.49637 0.0
O289 O 0.01997 0.02858 0.45498 0.0
O290 O 0.98548 0.02863 0.4264 0.0
O291 O 0.9644 0.06919 0.46816 0.0
O292 O 0.93194 0.04151 0.46208 0.0
C293 C 0.0671 0.94049 0.46292 0.0
C294 C 0.9915 0.96272 0.48558 0.0
C295 C 0.00899 0.99225 0.57408 0.0
C296 C 0.07793 0.95825 0.54021 0.0
C297 C 0.95156 0.08247 0.53661 0.0
C298 C 0.02785 0.05949 0.51493 0.0
C299 C 0.00928 0.0282 0.42736 0.0
C300 C 0.94123 0.0641 0.46046 0.0
O301 O 0.04545 0.93039 0.4765 0.0
O302 O 0.07338 0.96336 0.46658 0.0
O303 O 0.99084 0.98562 0.47839 0.0
O304 O 0.00785 0.95461 0.50477 0.0
Co305 Co 0.53877 0.95775 0.99297 0.0
Co306 Co 0.53538 0.9726 0.05241 0.0
Co307 Co 0.50516 0.00814 0.00475 0.0
O308 O 0.53584 0.98922 0.00993 0.0
H309 H 0.55135 0.99957 0.00534 0.0
O310 O 0.47417 0.02699 1.00015 0.0
Co311 Co 0.47071 0.05674 0.02163 0.0
Co312 Co 0.47457 0.04727 0.96154 0.0
H313 H 0.45876 0.0164 1.00296 0.0
O314 O 0.56553 0.96855 0.0704 0.0
O315 O 0.54437 0.94274 0.03932 0.0
O316 O 0.50375 0.96694 0.07926 0.0
O317 O 0.48217 0.98709 0.04117 0.0
O318 O 0.51798 0.03017 0.03784 0.0
O319 O 0.46539 0.08291 0.04279 0.0
O320 O 0.43669 0.05276 0.03383 0.0
O321 O 0.50618 0.06491 0.01329 0.0
O322 O 0.52831 0.02928 0.96793 0.0
O323 O 0.50631 0.05519 0.93736 0.0
O324 O 0.46315 0.07531 0.9779 0.0
O325 O 0.44558 0.05084 0.94145 0.0
C326 C 0.56734 0.9381 0.97345 0.0
C327 C 0.48792 0.96287 0.98124 0.0
C328 C 0.4829 0.97273 0.06823 0.0
C329 C 0.56379 0.94803 0.05654 0.0
C330 C 0.44219 0.07346 0.04647 0.0
C331 C 0.52212 0.05312 0.02956 0.0
C332 C 0.52716 0.0468 0.94452 0.0
C333 C 0.4458 0.07069 0.95698 0.0
O334 O 0.54383 0.92948 0.97664 0.0
O335 O 0.57304 0.95993 0.98266 0.0
O336 O 0.49243 0.98572 0.972 0.0
O337 O 0.50292 0.95139 0.99965 0.0
Co338 Co 0.04072 0.45888 0.99463 0.0
Co339 Co 0.03798 0.47515 0.05292 0.0
Co340 Co 0.00555 0.50789 0.00337 0.0
O341 O 0.03741 0.49075 0.00991 0.0
H342 H 0.05249 0.50153 0.00425 0.0
O343 O 0.97356 0.52496 0.99695 0.0
Co344 Co 0.96996 0.55643 0.01351 0.0
Co345 Co 0.97283 0.54128 0.9544 0.0
H346 H 0.95852 0.51405 1.00228 0.0
O347 O 0.06851 0.4714 0.07095 0.0
O348 O 0.04746 0.44506 0.04077 0.0
O349 O 0.00629 0.46835 0.07939 0.0
O350 O 0.98361 0.48706 0.04121 0.0
O351 O 0.01761 0.53236 0.03428 0.0
O352 O 0.96479 0.58446 0.02987 0.0
O353 O 0.93588 0.5533 0.02614 0.0
O354 O 1.00466 0.56407 0.00387 0.0
O355 O 0.02745 0.5288 0.96555 0.0
O356 O 1.00468 0.54879 0.92857 0.0
O357 O 0.96325 0.57098 0.96795 0.0
O358 O 0.94217 0.54568 0.93647 0.0
C359 C 0.06897 0.43963 0.97369 0.0
C360 C 0.99088 0.4607 0.98329 0.0
C361 C 0.98509 0.47295 0.06837 0.0
C362 C 0.0666 0.45045 0.05826 0.0
C363 C 0.94161 0.57516 0.03531 0.0
C364 C 0.02029 0.55503 0.02334 0.0
C365 C 0.02591 0.54365 0.9391 0.0
C366 C 0.94406 0.56615 0.95038 0.0
O367 O 0.04575 0.43043 0.97928 0.0
O368 O 0.07476 0.46166 0.98221 0.0
O369 O 0.99371 0.48338 0.97236 0.0
O370 O 0.00572 0.45168 0.00401 0.0
Co371 Co 0.53632 0.45581 0.9928 0.0
Co372 Co 0.54574 0.48034 0.04219 0.0
Co373 Co 0.50379 0.50691 1.00162 0.0
O374 O 0.5353 0.48937 1.00089 0.0
H375 H 0.54902 0.49921 0.98803 0.0
O376 O 0.47226 0.52441 1.00232 0.0
Co377 Co 0.47126 0.55775 0.01146 0.0
Co378 Co 0.46218 0.53436 0.96119 0.0
H379 H 0.45846 0.51442 0.01474 0.0
O380 O 0.57922 0.47719 0.04751 0.0
O381 O 0.54945 0.44767 0.03804 0.0
O382 O 0.52364 0.48613 0.08053 0.0
O383 O 0.49153 0.49564 0.04966 0.0
O384 O 0.52331 0.53476 0.01793 0.0
O385 O 0.46726 0.58787 0.02321 0.0
O386 O 0.44005 0.55437 0.03277 0.0
O387 O 0.50485 0.5652 0.99183 0.0
O388 O 0.51606 0.51813 0.95359 0.0
O389 O 0.48474 0.52992 0.92267 0.0
O390 O 0.45749 0.56663 0.96682 0.0
O391 O 0.42871 0.53665 0.95571 0.0
C392 C 0.56186 0.43598 0.96827 0.0
C393 C 0.48448 0.4565 0.99524 0.0
C394 C 0.50082 0.49128 0.07808 0.0
C395 C 0.57198 0.45418 0.04689 0.0
C396 C 0.44604 0.57716 0.03733 0.0
C397 C 0.52304 0.55736 0.00792 0.0
C398 C 0.50727 0.52388 0.92519 0.0
C399 C 0.43522 0.55971 0.95747 0.0
O400 O 0.54047 0.42547 0.98213 0.0
O401 O 0.56777 0.45888 0.97224 0.0
O402 O 0.4843 0.4791 0.98526 0.0
O403 O 0.50247 0.44862 0.01172 0.0
Co404 Co 0.05493 0.47173 0.51068 0.0
Co405 Co 0.03624 0.47635 0.45292 0.0
Co406 Co 1.00472 0.50741 0.50473 0.0
O407 O 0.02155 0.47646 0.49644 0.0
H408 H 0.01013 0.46205 0.50208 0.0
O409 O 0.98779 0.53828 0.51333 0.0
Co410 Co 0.9542 0.54248 0.49959 0.0
Co411 Co 0.97293 0.53772 0.55711 0.0
H412 H 0.99908 0.55279 0.50771 0.0
O413 O 0.03955 0.44709 0.43416 0.0
O414 O 0.06776 0.46664 0.46384 0.0
O415 O 0.04277 0.50739 0.42726 0.0
O416 O 0.02558 0.5292 0.46651 0.0
O417 O 0.97786 0.49736 0.47466 0.0
O418 O 0.92424 0.54809 0.48575 0.0
O419 O 0.95715 0.57561 0.48802 0.0
O420 O 0.94655 0.50871 0.50819 0.0
O421 O 0.98403 0.48557 0.54269 0.0
O422 O 0.9661 0.50626 0.58264 0.0
O423 O 0.94156 0.54803 0.54649 0.0
O424 O 0.97031 0.56684 0.57624 0.0
C425 C 0.07467 0.44304 0.52912 0.0
C426 C 0.05473 0.51979 0.52384 0.0
C427 C 0.0391 0.52781 0.43869 0.0
C428 C 0.06157 0.44843 0.44646 0.0
C429 C 0.9339 0.57049 0.48039 0.0
C430 C 0.95463 0.49493 0.48637 0.0
C431 C 0.97035 0.4862 0.57049 0.0
C432 C 0.94825 0.56604 0.56399 0.0
O433 O 0.08468 0.46537 0.52485 0.0
O434 O 0.05137 0.43856 0.5213 0.0
O435 O 0.03139 0.5174 0.535 0.0
O436 O 0.06326 0.50562 0.50281 0.0
Co437 Co 0.55816 0.97184 0.51168 0.0
Co438 Co 0.54287 0.98095 0.45257 0.0
Co439 Co 0.50759 1.00715 0.50581 0.0
O440 O 0.52603 0.97803 0.49493 0.0
H441 H 0.5149 0.96329 0.49788 0.0
O442 O 0.489 0.03624 0.51656 0.0
Co443 Co 0.45677 0.04215 0.49923 0.0
Co444 Co 0.47148 0.03317 0.55835 0.0
H445 H 0.50021 0.05096 0.51436 0.0
O446 O 0.54587 0.95337 0.43037 0.0
O447 O 0.57327 0.96947 0.46467 0.0
O448 O 0.54929 0.0133 0.43049 0.0
O449 O 0.5281 0.03156 0.47055 0.0
O450 O 0.48267 0.99841 0.47312 0.0
O451 O 0.42816 0.0503 0.48268 0.0
O452 O 0.46147 0.07534 0.49271 0.0
O453 O 0.44776 0.00763 0.5019 0.0
O454 O 0.48708 0.98268 0.54107 0.0
O455 O 0.46505 1.00088 0.58038 0.0
O456 O 0.44118 0.04476 0.54603 0.0
O457 O 0.4686 0.06051 0.58069 0.0
C458 C 0.57599 0.94143 0.52794 0.0
C459 C 0.55604 0.02051 0.52798 0.0
C460 C 0.54287 0.03252 0.44337 0.0
C461 C 0.56704 0.95267 0.44487 0.0
C462 C 0.43886 0.07229 0.482 0.0
C463 C 0.45935 0.99356 0.48309 0.0
C464 C 0.47191 0.98167 0.5679 0.0
C465 C 0.4474 0.0613 0.56625 0.0
O466 O 0.58692 0.9633 0.5277 0.0
O467 O 0.55321 0.93876 0.51769 0.0
O468 O 0.53273 0.01591 0.53838 0.0
O469 O 0.56722 1.00622 0.5091 0.0
H470 H 0.1938 0.13363 0.23917 0.0
H471 H 0.16772 0.09456 0.24727 0.0
H472 H 0.11462 0.1265 0.31481 0.0
H473 H 0.1405 0.16524 0.30715 0.0
H474 H 0.14538 0.07728 0.33434 0.0
H475 H 0.08432 0.0803 0.22675 0.0
H476 H 0.11719 0.092 0.22249 0.0
H477 H 0.09354 0.10902 0.24256 0.0
C478 C 0.17632 0.13231 0.2553 0.0
C479 C 0.16914 0.15224 0.27282 0.0
C480 C 0.16155 0.11011 0.25982 0.0
C481 C 0.13935 0.10792 0.28144 0.0
C482 C 0.13172 0.12806 0.29789 0.0
H483 H 0.01018 0.06414 0.37635 0.0
H484 H 0.04396 0.07363 0.33123 0.0
C485 C 0.14653 0.15004 0.29371 0.0
C486 C 0.12494 0.08427 0.29037 0.0
H487 H 0.06764 0.05673 0.27774 0.0
C488 C 0.12879 0.07192 0.3216 0.0
C489 C 0.10367 0.07756 0.27321 0.0
C490 C 0.09936 0.09025 0.23923 0.0
C491 C 0.10999 0.05539 0.33859 0.0
C492 C 0.08716 0.05061 0.32303 0.0
C493 C 0.08503 0.06052 0.28968 0.0
C494 C 0.06372 0.04094 0.34355 0.0
C495 C 0.11361 0.04578 0.37454 0.0
C496 C 0.06275 0.01875 0.36415 0.0
C497 C 0.04401 0.0139 0.39078 0.0
C498 C 0.02541 0.03059 0.39585 0.0
C499 C 0.02449 0.05115 0.37274 0.0
C500 C 0.0437 0.05643 0.34689 0.0
H501 H 0.13121 0.0539 0.38383 0.0
H502 H 0.09733 0.0498 0.39183 0.0
H503 H 0.11492 0.02565 0.37604 0.0
H504 H 0.07749 1.00614 0.36128 0.0
H505 H 0.04466 0.99772 0.40828 0.0
H506 H 0.82097 0.23886 0.32318 0.0
H507 H 0.84898 0.21337 0.35429 0.0
H508 H 0.83467 0.15536 0.29059 0.0
H509 H 0.80657 0.18105 0.25875 0.0
H510 H 0.83291 0.16881 0.38996 0.0
H511 H 0.91241 0.15918 0.29426 0.0
H512 H 0.89026 0.1827 0.28924 0.0
H513 H 0.88133 0.15183 0.28117 0.0
C514 C 0.82396 0.22078 0.31542 0.0
C515 C 0.81141 0.21186 0.28863 0.0
C516 C 0.84002 0.20627 0.33325 0.0
C517 C 0.84394 0.18257 0.32468 0.0
C518 C 0.83214 0.17379 0.29725 0.0
H519 H 0.89136 0.06056 0.44789 0.0
H520 H 0.8681 0.09109 0.41711 0.0
C521 C 0.81606 0.18842 0.27918 0.0
C522 C 0.85883 0.16659 0.34628 0.0
H523 H 0.91172 0.13423 0.34627 0.0
C524 C 0.85021 0.16133 0.38046 0.0
C525 C 0.88151 0.15716 0.33385 0.0
C526 C 0.89213 0.16313 0.2977 0.0
C527 C 0.86344 0.14644 0.40247 0.0
C528 C 0.88566 0.13636 0.3898 0.0
C529 C 0.8946 0.142 0.3558 0.0
C530 C 0.8992 0.11891 0.41101 0.0
C531 C 0.85362 0.14167 0.43912 0.0
C532 C 0.92432 0.1246 0.41799 0.0
C533 C 0.93771 0.10718 0.43571 0.0
C534 C 0.92623 0.08372 0.4462 0.0
C535 C 0.90077 0.07843 0.44008 0.0
C536 C 0.8874 0.09587 0.42259 0.0
H537 H 0.84039 0.15551 0.44661 0.0
H538 H 0.84321 0.12337 0.44324 0.0
H539 H 0.86948 0.14172 0.45586 0.0
H540 H 0.93369 0.14234 0.40916 0.0
H541 H 0.95731 0.11179 0.43999 0.0
H542 H 0.88401 0.83477 0.26665 0.0
H543 H 0.91558 0.85842 0.29512 0.0
H544 H 0.85553 0.88384 0.35928 0.0
H545 H 0.82417 0.86135 0.33014 0.0
H546 H 0.89095 0.91943 0.34048 0.0
H547 H 0.93589 0.8357 0.38822 0.0
H548 H 0.93648 0.8408 0.34303 0.0
H549 H 0.90667 0.83443 0.36771 0.0
C550 C 0.87763 0.84589 0.28629 0.0
C551 C 0.8517 0.84597 0.29656 0.0
C552 C 0.89565 0.85907 0.30287 0.0
C553 C 0.88792 0.87229 0.32999 0.0
C554 C 0.86196 0.87354 0.33871 0.0
H555 H 0.96398 0.91875 0.50088 0.0
H556 H 0.94047 0.89568 0.46143 0.0
C557 C 0.84406 0.86062 0.3221 0.0
C558 C 0.90647 0.88444 0.35027 0.0
H559 H 0.95288 0.87343 0.4038 0.0
C560 C 0.90461 0.9094 0.35415 0.0
C561 C 0.92392 0.87118 0.36863 0.0
C562 C 0.92579 0.844 0.36703 0.0
C563 C 0.91936 0.92143 0.37621 0.0
C564 C 0.93721 0.90834 0.39399 0.0
C565 C 0.93932 0.88343 0.38992 0.0
C566 C 0.95352 0.92032 0.41723 0.0
C567 C 0.9149 0.94781 0.38118 0.0
C568 C 0.96935 0.94109 0.40519 0.0
C569 C 0.9822 0.95437 0.42758 0.0
C570 C 0.98001 0.94677 0.46233 0.0
C571 C 0.96575 0.92497 0.47419 0.0
C572 C 0.95241 0.91185 0.45172 0.0
H573 H 0.89594 0.95273 0.37371 0.0
H574 H 0.9164 0.95152 0.40793 0.0
H575 H 0.92937 0.95997 0.36517 0.0
H576 H 0.97113 0.94749 0.37857 0.0
H577 H 0.99358 0.97089 0.41776 0.0
H578 H 0.21217 0.79259 0.34003 0.0
H579 H 0.18541 0.82075 0.36688 0.0
H580 H 0.16149 0.84704 0.26975 0.0
H581 H 0.18801 0.81807 0.24248 0.0
H582 H 0.18964 0.87001 0.35713 0.0
H583 H 0.0944 0.83407 0.32674 0.0
H584 H 0.1223 0.81719 0.32108 0.0
H585 H 0.11694 0.84236 0.29105 0.0
C586 C 0.20108 0.80419 0.32428 0.0
C587 C 0.20221 0.80316 0.2891 0.0
C588 C 0.18581 0.82032 0.33971 0.0
C589 C 0.1714 0.83594 0.32038 0.0
C590 C 0.17217 0.83485 0.28521 0.0
H591 H 0.10608 0.95789 0.41685 0.0
H592 H 0.13167 0.93427 0.37971 0.0
C593 C 0.18734 0.81838 0.26966 0.0
C594 C 0.15641 0.85372 0.3376 0.0
H595 H 0.09599 0.86859 0.35784 0.0
C596 C 0.16916 0.86984 0.35713 0.0
C597 C 0.12971 0.85327 0.33772 0.0
C598 C 0.11492 0.83569 0.31828 0.0
C599 C 0.15591 0.88496 0.37769 0.0
C600 C 0.1292 0.8845 0.37788 0.0
C601 C 0.11649 0.86891 0.35757 0.0
C602 C 0.11394 0.89902 0.40033 0.0
C603 C 0.17059 0.90039 0.40014 0.0
C604 C 0.09518 0.88709 0.42382 0.0
C605 C 0.08032 0.90055 0.44472 0.0
C606 C 0.08406 0.92619 0.44263 0.0
C607 C 0.10304 0.93811 0.41937 0.0
C608 C 0.11769 0.92465 0.39816 0.0
H609 H 0.18973 0.89382 0.40354 0.0
H610 H 0.17309 0.91956 0.38841 0.0
H611 H 0.16031 0.90038 0.42543 0.0
H612 H 0.092 0.86733 0.42594 0.0
H613 H 0.06582 0.89087 0.46237 0.0
H614 H 0.20697 0.83823 0.74969 0.0
H615 H 0.18076 0.86576 0.71734 0.0
H616 H 0.16447 0.80918 0.65216 0.0
H617 H 0.19044 0.78185 0.68382 0.0
H618 H 0.18473 0.85448 0.61828 0.0
H619 H 0.10251 0.86481 0.70976 0.0
H620 H 0.13348 0.86964 0.72474 0.0
H621 H 0.12286 0.83973 0.71457 0.0
C622 C 0.1974 0.83158 0.72885 0.0
C623 C 0.20094 0.80799 0.71912 0.0
C624 C 0.18244 0.84727 0.71047 0.0
C625 C 0.17072 0.83941 0.68243 0.0
C626 C 0.17342 0.81556 0.67366 0.0
H627 H 0.06226 0.91036 0.56005 0.0
H628 H 0.08527 0.8804 0.59289 0.0
C629 C 0.18831 0.8 0.69181 0.0
C630 C 0.15724 0.85638 0.66036 0.0
H631 H 0.10465 0.88905 0.65729 0.0
C632 C 0.16721 0.86206 0.62678 0.0
C633 C 0.1343 0.86593 0.67151 0.0
C634 C 0.12244 0.85965 0.70703 0.0
C635 C 0.15492 0.87725 0.60402 0.0
C636 C 0.13223 0.88719 0.61532 0.0
C637 C 0.12209 0.88135 0.64881 0.0
C638 C 0.11917 0.90439 0.59306 0.0
C639 C 0.16611 0.88235 0.56798 0.0
C640 C 0.13087 0.92754 0.58188 0.0
C641 C 0.11786 0.94463 0.56317 0.0
C642 C 0.09284 0.9389 0.55544 0.0
C643 C 0.08152 0.91532 0.56554 0.0
C644 C 0.09455 0.89824 0.58444 0.0
H645 H 0.17988 0.86876 0.5613 0.0
H646 H 0.15101 0.88217 0.55008 0.0
H647 H 0.17627 0.90078 0.56468 0.0
H648 H 0.14979 0.93267 0.58858 0.0
H649 H 0.12715 0.96262 0.55574 0.0
H650 H 0.17506 0.14146 0.71006 0.0
H651 H 0.14303 0.1216 0.67835 0.0
H652 H 0.09265 0.17829 0.69789 0.0
H653 H 0.12469 0.19812 0.73011 0.0
H654 H 0.0835 0.10891 0.69528 0.0
H655 H 0.11597 0.18009 0.58968 0.0
H656 H 0.13619 0.17197 0.62291 0.0
H657 H 0.10905 0.18892 0.6317 0.0
C658 C 0.15676 0.1491 0.70866 0.0
C659 C 0.15213 0.17113 0.72256 0.0
C660 C 0.13858 0.13786 0.6905 0.0
C661 C 0.11569 0.14866 0.68567 0.0
C662 C 0.11027 0.16976 0.70148 0.0
H663 H 0.02147 0.10802 0.52373 0.0
H664 H 0.04016 0.13166 0.56622 0.0
C665 C 0.12841 0.18091 0.72001 0.0
C666 C 0.09919 0.13932 0.66081 0.0
H667 H 0.08931 0.14701 0.57697 0.0
C668 C 0.08437 0.1174 0.66955 0.0
C669 C 0.10039 0.1506 0.62739 0.0
C670 C 0.11625 0.17419 0.61704 0.0
C671 C 0.07128 0.10594 0.64527 0.0
C672 C 0.0738 0.11639 0.61128 0.0
C673 C 0.0876 0.13898 0.60297 0.0
C674 C 0.06381 0.10317 0.58376 0.0
C675 C 0.05516 0.08258 0.65618 0.0
C676 C 0.07196 0.07995 0.5784 0.0
C677 C 0.06126 0.06641 0.55446 0.0
C678 C 0.04236 0.07593 0.5351 0.0
C679 C 0.03567 0.10001 0.53861 0.0
C680 C 0.04628 0.11352 0.5629 0.0
H681 H 0.04857 0.08152 0.68341 0.0
H682 H 0.03835 0.08104 0.64122 0.0
H683 H 0.06662 0.06668 0.65236 0.0
H684 H 0.08617 0.07201 0.59337 0.0
H685 H 0.0672 0.04808 0.55199 0.0
H686 H 0.78037 0.19914 0.67819 0.0
H687 H 0.80908 0.17376 0.64918 0.0
H688 H 0.86778 0.19315 0.71341 0.0
H689 H 0.83869 0.21862 0.74338 0.0
H690 H 0.85421 0.19113 0.61376 0.0
H691 H 0.86871 0.11793 0.71494 0.0
H692 H 0.843 0.13792 0.71801 0.0
H693 H 0.87458 0.14891 0.72513 0.0
C694 C 0.79931 0.19794 0.68648 0.0
C695 C 0.80734 0.21104 0.71298 0.0
C696 C 0.81568 0.18337 0.66982 0.0
C697 C 0.84048 0.18153 0.67918 0.0
C698 C 0.84855 0.19409 0.70614 0.0
H699 H 0.95981 0.13046 0.54765 0.0
H700 H 0.93325 0.1546 0.58252 0.0
C701 C 0.83199 0.20868 0.72312 0.0
C702 C 0.85797 0.16754 0.65902 0.0
H703 H 0.89178 0.1166 0.66212 0.0
C704 C 0.86253 0.17488 0.62435 0.0
C705 C 0.86847 0.14622 0.67289 0.0
C706 C 0.86336 0.13706 0.70972 0.0
C707 C 0.87716 0.16138 0.60304 0.0
C708 C 0.88794 0.14023 0.61695 0.0
C709 C 0.88351 0.13289 0.65164 0.0
C710 C 0.90387 0.12552 0.59576 0.0
C711 C 0.8804 0.16948 0.56569 0.0
C712 C 0.89623 0.10108 0.59197 0.0
C713 C 0.91141 0.08715 0.57205 0.0
C714 C 0.93453 0.09745 0.55581 0.0
C715 C 0.94203 0.122 0.55961 0.0
C716 C 0.92687 0.13586 0.5795 0.0
H717 H 0.86591 0.1822 0.55799 0.0
H718 H 0.89937 0.1792 0.55951 0.0
H719 H 0.87915 0.1535 0.55053 0.0
H720 H 0.87851 0.09281 0.6044 0.0
H721 H 0.90518 0.06826 0.56977 0.0
H722 H 0.87008 0.85018 0.7661 0.0
H723 H 0.89981 0.88615 0.75212 0.0
H724 H 0.84256 0.92331 0.69988 0.0
H725 H 0.81314 0.88705 0.71289 0.0
H726 H 0.88343 0.91694 0.6596 0.0
H727 H 0.9147 0.95598 0.77427 0.0
H728 H 0.91634 0.92337 0.77623 0.0
H729 H 0.88603 0.93631 0.7747 0.0
C730 C 0.8637 0.86635 0.75253 0.0
C731 C 0.83962 0.86591 0.74004 0.0
C732 C 0.88056 0.88697 0.74488 0.0
C733 C 0.8733 0.90748 0.72522 0.0
C734 C 0.84845 0.9077 0.71523 0.0
H735 H 0.96497 0.01285 0.58811 0.0
H736 H 0.93207 0.99803 0.63267 0.0
C737 C 0.83177 0.887 0.7224 0.0
C738 C 0.89281 0.92596 0.70892 0.0
H739 H 0.94258 0.96519 0.72325 0.0
C740 C 0.89599 0.92789 0.67354 0.0
C741 C 0.90943 0.93984 0.72723 0.0
C742 C 0.90633 0.93896 0.76521 0.0
C743 C 0.91581 0.94266 0.65589 0.0
C744 C 0.9327 0.95628 0.67412 0.0
C745 C 0.92941 0.9548 0.7095 0.0
C746 C 0.95463 0.97076 0.65608 0.0
C747 C 0.91913 0.94275 0.61787 0.0
C748 C 0.97868 0.96144 0.65623 0.0
C749 C 0.99761 0.97006 0.631 0.0
C750 C 0.99235 0.98778 0.60533 0.0
C751 C 0.9692 0.99886 0.60742 0.0
C752 C 0.95052 0.99058 0.63294 0.0
H753 H 0.90743 0.92767 0.60854 0.0
H754 H 0.91331 0.96036 0.60598 0.0
H755 H 0.93929 0.941 0.6093 0.0
H756 H 0.98206 0.94605 0.67391 0.0
H757 H 0.0154 0.96135 0.62984 0.0
H758 H 0.33503 0.24348 0.18343 0.0
H759 H 0.35803 0.21479 0.15102 0.0
H760 H 0.28927 0.1685 0.15132 0.0
H761 H 0.26638 0.19669 0.18415 0.0
H762 H 0.32762 0.14247 0.17082 0.0
H763 H 0.35957 0.20082 0.05316 0.0
H764 H 0.36872 0.21425 0.09023 0.0
H765 H 0.33563 0.20958 0.08349 0.0
C766 C 0.32474 0.22742 0.17606 0.0
C767 C 0.29888 0.2224 0.18643 0.0
C768 C 0.33788 0.21105 0.1574 0.0
C769 C 0.32534 0.18955 0.14837 0.0
C770 C 0.29938 0.18493 0.15791 0.0
H771 H 0.38989 0.06589 0.04962 0.0
H772 H 0.35859 0.09253 0.07302 0.0
C773 C 0.28631 0.20114 0.17667 0.0
C774 C 0.33954 0.171 0.13116 0.0
H775 H 0.38037 0.16356 0.06302 0.0
C776 C 0.33884 0.147 0.14698 0.0
C777 C 0.35405 0.1768 0.09992 0.0
C778 C 0.35436 0.20169 0.08052 0.0
C779 C 0.35317 0.12904 0.13323 0.0
C780 C 0.36848 0.13519 0.10281 0.0
C781 C 0.36858 0.15891 0.0864 0.0
C782 C 0.38665 0.1182 0.08955 0.0
C783 C 0.35278 0.10393 0.15202 0.0
C784 C 0.41261 0.12373 0.09135 0.0
C785 C 0.43032 0.10862 0.07836 0.0
C786 C 0.42257 0.0876 0.06296 0.0
C787 C 0.39646 0.08178 0.0616 0.0
C788 C 0.3786 0.09701 0.07482 0.0
H789 H 0.34163 0.10273 0.17689 0.0
H790 H 0.3443 0.09016 0.13664 0.0
H791 H 0.37242 0.09908 0.15612 0.0
H792 H 0.41921 0.13991 0.10271 0.0
H793 H 0.45022 0.11374 0.07997 0.0
H794 H 0.81505 0.32636 0.23401 0.0
H795 H 0.84493 0.35813 0.20543 0.0
H796 H 0.84427 0.32201 0.11384 0.0
H797 H 0.81408 0.28953 0.14269 0.0
H798 H 0.89314 0.33823 0.12805 0.0
H799 H 0.82925 0.41358 0.1372 0.0
H800 H 0.83189 0.39696 0.17748 0.0
H801 H 0.81792 0.38173 0.14446 0.0
C802 C 0.82107 0.32501 0.20772 0.0
C803 C 0.81185 0.3053 0.19066 0.0
C804 C 0.83815 0.34344 0.1913 0.0
C805 C 0.84651 0.34293 0.15718 0.0
C806 C 0.83791 0.323 0.14009 0.0
H807 H 0.93757 0.46866 0.04446 0.0
H808 H 0.90318 0.43746 0.06341 0.0
C809 C 0.82066 0.30441 0.15662 0.0
C810 C 0.86467 0.36303 0.14018 0.0
H811 H 0.87368 0.42554 0.1262 0.0
C812 C 0.88874 0.35728 0.1273 0.0
C813 C 0.85897 0.38799 0.13857 0.0
C814 C 0.83301 0.39545 0.14984 0.0
C815 C 0.90752 0.37575 0.11452 0.0
C816 C 0.90234 0.40074 0.11506 0.0
C817 C 0.87789 0.40646 0.12631 0.0
C818 C 0.92233 0.42104 0.10498 0.0
C819 C 0.93285 0.36836 0.10056 0.0
C820 C 0.94415 0.42297 0.12279 0.0
C821 C 0.96376 0.44091 0.11225 0.0
C822 C 0.96209 0.45754 0.08356 0.0
C823 C 0.93956 0.45641 0.06681 0.0
C824 C 0.9199 0.4384 0.07746 0.0
H825 H 0.9316 0.34925 0.09345 0.0
H826 H 0.94029 0.38078 0.07802 0.0
H827 H 0.94664 0.3695 0.12011 0.0
H828 H 0.94629 0.4102 0.14457 0.0
H829 H 0.98068 0.44111 0.12593 0.0
H830 H 0.74537 0.83635 0.18105 0.0
H831 H 0.71935 0.86279 0.147 0.0
H832 H 0.66797 0.80068 0.13572 0.0
H833 H 0.69378 0.77415 0.16948 0.0
H834 H 0.67893 0.83645 0.07478 0.0
H835 H 0.64851 0.87714 0.19284 0.0
H836 H 0.68217 0.87733 0.18302 0.0
H837 H 0.66384 0.8487 0.19317 0.0
C838 C 0.72883 0.82823 0.17076 0.0
C839 C 0.72151 0.8032 0.17834 0.0
C840 C 0.71395 0.84336 0.15138 0.0
C841 C 0.6916 0.83371 0.13916 0.0
C842 C 0.68512 0.80849 0.14491 0.0
H843 H 0.56243 0.89864 0.04799 0.0
H844 H 0.59426 0.86991 0.06392 0.0
C845 C 0.69988 0.79339 0.16437 0.0
C846 C 0.6736 0.85014 0.12358 0.0
H847 H 0.63304 0.89367 0.14256 0.0
C848 C 0.6689 0.84904 0.08946 0.0
C849 C 0.6603 0.86625 0.14297 0.0
C850 C 0.66371 0.8674 0.1801 0.0
C851 C 0.65173 0.86424 0.07399 0.0
C852 C 0.63865 0.88054 0.09342 0.0
C853 C 0.64317 0.88128 0.12762 0.0
C854 C 0.62073 0.89772 0.07911 0.0
C855 C 0.64817 0.86315 0.03692 0.0
C856 C 0.62504 0.92285 0.08204 0.0
C857 C 0.60682 0.93908 0.07358 0.0
C858 C 0.58378 0.93065 0.06185 0.0
C859 C 0.57993 0.90566 0.05713 0.0
C860 C 0.59821 0.88926 0.06597 0.0
H861 H 0.66389 0.85427 0.02386 0.0
H862 H 0.63022 0.85229 0.03415 0.0
H863 H 0.6469 0.88178 0.02409 0.0
H864 H 0.64227 0.92984 0.09195 0.0
H865 H 0.61063 0.95826 0.07701 0.0
H866 H 0.14911 0.728 0.13467 0.0
H867 H 0.12105 0.70033 0.10681 0.0
H868 H 0.18493 0.66026 0.07622 0.0
H869 H 0.21308 0.6881 0.10335 0.0
H870 H 0.14878 0.66472 0.02725 0.0
H871 H 0.10538 0.63067 0.15521 0.0
H872 H 0.10421 0.66304 0.14473 0.0
H873 H 0.13432 0.65013 0.14863 0.0
C874 C 0.15725 0.71379 0.12106 0.0
C875 C 0.1832 0.70999 0.12149 0.0
C876 C 0.14119 0.69784 0.10549 0.0
C877 C 0.15087 0.67792 0.09019 0.0
C878 C 0.17706 0.67538 0.08815 0.0
H879 H 0.05744 0.54462 0.06638 0.0
H880 H 0.0922 0.57282 0.08005 0.0
C881 C 0.19309 0.69126 0.1037 0.0
C882 C 0.13362 0.65848 0.07912 0.0
H883 H 0.08686 0.61478 0.10883 0.0
C884 C 0.13524 0.65376 0.04502 0.0
C885 C 0.11651 0.64375 0.10257 0.0
C886 C 0.11508 0.64692 0.13989 0.0
C887 C 0.11957 0.63518 0.03355 0.0
C888 C 0.10162 0.62121 0.0568 0.0
C889 C 0.10057 0.6255 0.09103 0.0
C890 C 0.08254 0.60322 0.04603 0.0
C891 C 0.12254 0.63061 0.99671 0.0
C892 C 0.06571 0.61091 0.02237 0.0
C893 C 0.04602 0.59495 0.01459 0.0
C894 C 0.04243 0.57094 0.03059 0.0
C895 C 0.05963 0.56299 0.05375 0.0
C896 C 0.07948 0.57907 0.06152 0.0
H897 H 0.14204 0.63627 0.98546 0.0
H898 H 0.1183 0.611 0.99316 0.0
H899 H 0.10924 0.64162 0.98254 0.0
H900 H 0.06725 0.62956 0.01069 0.0
H901 H 0.03325 0.60172 0.99644 0.0
H902 H 0.3158 0.80747 0.91251 0.0
H903 H 0.34506 0.83426 0.93956 0.0
H904 H 0.31649 0.89752 0.88677 0.0
H905 H 0.28677 0.87062 0.86009 0.0
H906 H 0.38174 0.86296 0.89937 0.0
H907 H 0.32587 0.92062 0.98053 0.0
H908 H 0.31268 0.89237 0.9669 0.0
H909 H 0.31629 0.91975 0.93828 0.0
C910 C 0.31514 0.82713 0.90768 0.0
C911 C 0.29902 0.83703 0.88435 0.0
C912 C 0.33192 0.84242 0.92301 0.0
C913 C 0.33299 0.86791 0.91525 0.0
C914 C 0.31571 0.87795 0.89363 0.0
H915 H 0.45088 0.98107 0.94319 0.0
H916 H 0.41228 0.95896 0.9283 0.0
C917 C 0.29872 0.8626 0.87842 0.0
C918 C 0.35449 0.88329 0.92589 0.0
H919 H 0.37014 0.93146 0.97086 0.0
C920 C 0.37916 0.87785 0.91516 0.0
C921 C 0.35112 0.90292 0.9461 0.0
C922 C 0.32508 0.90923 0.95891 0.0
C923 C 0.40052 0.89139 0.92409 0.0
C924 C 0.39722 0.91073 0.94476 0.0
C925 C 0.37258 0.91653 0.95512 0.0
C926 C 0.41934 0.92475 0.95609 0.0
C927 C 0.42651 0.88505 0.91095 0.0
C928 C 0.4358 0.91296 0.97721 0.0
C929 C 0.45789 0.92543 0.98558 0.0
C930 C 0.46397 0.95003 0.97312 0.0
C931 C 0.44694 0.96207 0.95294 0.0
C932 C 0.4248 0.94952 0.94454 0.0
H933 H 0.42561 0.87384 0.88916 0.0
H934 H 0.43896 0.90189 0.90305 0.0
H935 H 0.43536 0.87434 0.93134 0.0
H936 H 0.43173 0.89393 0.98679 0.0
H937 H 0.47033 0.91566 1.00158 0.0
H938 H 0.17638 0.27579 0.81962 0.0
H939 H 0.15249 0.30346 0.85296 0.0
H940 H 0.22059 0.34999 0.85648 0.0
H941 H 0.24441 0.32284 0.82299 0.0
H942 H 0.15925 0.31914 0.91719 0.0
H943 H 0.17164 0.39783 0.81845 0.0
H944 H 0.17839 0.36712 0.80974 0.0
H945 H 0.20068 0.38556 0.83026 0.0
C946 C 0.18627 0.29186 0.82762 0.0
C947 C 0.21225 0.2972 0.81833 0.0
C948 C 0.1726 0.30767 0.84663 0.0
C949 C 0.18465 0.32908 0.8566 0.0
C950 C 0.21074 0.33394 0.84837 0.0
H951 H 0.1208 0.44971 0.96052 0.0
H952 H 0.15122 0.42325 0.9348 0.0
C953 C 0.22436 0.31827 0.82934 0.0
C954 C 0.17 0.34638 0.87557 0.0
H955 H 0.15174 0.40514 0.87127 0.0
C956 C 0.15764 0.33794 0.90716 0.0
C957 C 0.16808 0.37101 0.86262 0.0
C958 C 0.1802 0.38094 0.82829 0.0
C959 C 0.14329 0.35337 0.92604 0.0
C960 C 0.14087 0.37784 0.91276 0.0
C961 C 0.15374 0.38647 0.88155 0.0
C962 C 0.12309 0.3939 0.92921 0.0
C963 C 0.13079 0.34319 0.96003 0.0
C964 C 0.09726 0.38638 0.93413 0.0
C965 C 0.08005 0.40129 0.94867 0.0
C966 C 0.0881 0.42436 0.95843 0.0
C967 C 0.11399 0.43208 0.9533 0.0
C968 C 0.13136 0.41698 0.93865 0.0
H969 H 0.14191 0.32878 0.97205 0.0
H970 H 0.12848 0.35771 0.97742 0.0
H971 H 0.11174 0.33466 0.95655 0.0
H972 H 0.0903 0.36898 0.92633 0.0
H973 H 0.06027 0.39468 0.95198 0.0
H974 H 0.71151 0.2096 0.85688 0.0
H975 H 0.68134 0.17677 0.88385 0.0
H976 H 0.67885 0.14492 0.78886 0.0
H977 H 0.70737 0.17864 0.7616 0.0
H978 H 0.63471 0.14482 0.81208 0.0
H979 H 0.68491 0.10871 0.92029 0.0
H980 H 0.68119 0.14074 0.92208 0.0
H981 H 0.70029 0.13045 0.88745 0.0
C982 C 0.70474 0.19536 0.84197 0.0
C983 C 0.71179 0.19671 0.80713 0.0
C984 C 0.68762 0.17639 0.85748 0.0
C985 C 0.67789 0.15783 0.83875 0.0
C986 C 0.68582 0.15885 0.80413 0.0
H987 H 0.57658 0.03221 0.93772 0.0
H988 H 0.61447 0.05694 0.91116 0.0
C989 C 0.70224 0.17815 0.78849 0.0
C990 C 0.6578 0.13868 0.85402 0.0
H991 H 0.63979 0.09837 0.92359 0.0
C992 C 0.6362 0.13447 0.83625 0.0
C993 C 0.65947 0.12459 0.88536 0.0
C994 C 0.68286 0.12616 0.90466 0.0
C995 C 0.61624 0.11738 0.84903 0.0
C996 C 0.61697 0.10478 0.88155 0.0
C997 C 0.63888 0.10823 0.89894 0.0
C998 C 0.5945 0.08934 0.89843 0.0
C999 C 0.59467 0.11292 0.82711 0.0
C1000 C 0.57078 0.0993 0.90098 0.0
C1001 C 0.54926 0.08515 0.91516 0.0
C1002 C 0.55072 0.06064 0.92831 0.0
C1003 C 0.57466 0.05083 0.92729 0.0
C1004 C 0.59634 0.06502 0.91227 0.0
H1005 H 0.60121 0.11619 0.79986 0.0
H1006 H 0.58595 0.09392 0.83209 0.0
H1007 H 0.57993 0.1259 0.83218 0.0
H1008 H 0.56883 0.11823 0.89198 0.0
H1009 H 0.53141 0.09376 0.91641 0.0
H1010 H 0.76835 0.68827 0.841 0.0
H1011 H 0.7961 0.66437 0.87534 0.0
H1012 H 0.85519 0.72253 0.85599 0.0
H1013 H 0.82765 0.74654 0.82138 0.0
H1014 H 0.87015 0.67761 0.83926 0.0
H1015 H 0.82292 0.66889 0.96888 0.0
H1016 H 0.80202 0.6613 0.93728 0.0
H1017 H 0.8158 0.6921 0.93652 0.0
C1018 C 0.78708 0.6962 0.84455 0.0
C1019 C 0.79584 0.71926 0.82826 0.0
C1020 C 0.80285 0.68258 0.86443 0.0
C1021 C 0.82761 0.69179 0.86853 0.0
C1022 C 0.83608 0.71517 0.85333 0.0
H1023 H 0.94282 0.61202 0.97271 0.0
H1024 H 0.91453 0.64398 0.9564 0.0
C1025 C 0.82031 0.72884 0.83352 0.0
C1026 C 0.84556 0.67584 0.88501 0.0
H1027 H 0.85405 0.64002 0.95742 0.0
C1028 C 0.86682 0.6697 0.86525 0.0
C1029 C 0.84126 0.66562 0.91898 0.0
C1030 C 0.81939 0.67248 0.94179 0.0
C1031 C 0.88327 0.65281 0.87806 0.0
C1032 C 0.87825 0.64167 0.91139 0.0
C1033 C 0.85765 0.64851 0.93174 0.0
C1034 C 0.89348 0.6218 0.92441 0.0
C1035 C 0.90563 0.64647 0.85563 0.0
C1036 C 0.8905 0.59869 0.91238 0.0
C1037 C 0.90648 0.58042 0.92166 0.0
C1038 C 0.92585 0.58497 0.94306 0.0
C1039 C 0.92818 0.60793 0.95609 0.0
C1040 C 0.91202 0.6262 0.94689 0.0
H1041 H 0.90955 0.65983 0.83295 0.0
H1042 H 0.92289 0.64584 0.86981 0.0
H1043 H 0.90163 0.62805 0.84705 0.0
H1044 H 0.87619 0.595 0.89508 0.0
H1045 H 0.90401 0.56293 0.91133 0.0
H1046 H 0.2433 0.32835 0.17186 0.0
H1047 H 0.21524 0.35321 0.13914 0.0
H1048 H 0.15481 0.29663 0.16125 0.0
H1049 H 0.18264 0.2716 0.19407 0.0
H1050 H 0.18321 0.3425 0.08238 0.0
H1051 H 0.12967 0.35984 0.20243 0.0
H1052 H 0.1609 0.34842 0.20143 0.0
H1053 H 0.13385 0.32833 0.19577 0.0
C1054 C 0.22416 0.32101 0.16937 0.0
C1055 C 0.21513 0.29809 0.18589 0.0
C1056 C 0.20819 0.33522 0.15057 0.0
C1057 C 0.18293 0.32682 0.14811 0.0
C1058 C 0.17421 0.30347 0.16311 0.0
H1059 H 0.0679 0.40348 0.0395 0.0
H1060 H 0.09643 0.37229 0.05803 0.0
C1061 C 0.19017 0.28921 0.18182 0.0
C1062 C 0.16518 0.34336 0.13239 0.0
H1063 H 0.11578 0.37792 0.15195 0.0
C1064 C 0.16832 0.35013 0.09745 0.0
C1065 C 0.14599 0.35341 0.15229 0.0
C1066 C 0.14237 0.34735 0.1901 0.0
C1067 C 0.15271 0.36686 0.0819 0.0
C1068 C 0.13361 0.37695 0.10187 0.0
C1069 C 0.13038 0.36999 0.13672 0.0
C1070 C 0.11778 0.39606 0.08779 0.0
C1071 C 0.15714 0.37425 0.0445 0.0
C1072 C 0.12046 0.4197 0.09822 0.0
C1073 C 0.10428 0.43747 0.08778 0.0
C1074 C 0.08485 0.43191 0.06687 0.0
C1075 C 0.08261 0.40835 0.05566 0.0
C1076 C 0.09895 0.39053 0.06608 0.0
H1077 H 0.17439 0.36668 0.03316 0.0
H1078 H 0.14056 0.3675 0.03171 0.0
H1079 H 0.15896 0.39453 0.03962 0.0
H1080 H 0.13487 0.42429 0.115 0.0
H1081 H 0.10669 0.45542 0.09679 0.0
H1082 H 0.19814 0.72635 0.86411 0.0
H1083 H 0.16857 0.69374 0.89385 0.0
H1084 H 0.16196 0.66049 0.80069 0.0
H1085 H 0.19127 0.69244 0.77116 0.0
H1086 H 0.11852 0.67852 0.88409 0.0
H1087 H 0.18057 0.60309 0.86363 0.0
H1088 H 0.19209 0.63491 0.85714 0.0
H1089 H 0.17594 0.62085 0.82485 0.0
C1090 C 0.19032 0.71211 0.84999 0.0
C1091 C 0.19735 0.71204 0.81522 0.0
C1092 C 0.17345 0.69343 0.86703 0.0
C1093 C 0.16343 0.67422 0.84974 0.0
C1094 C 0.16989 0.67461 0.81492 0.0
H1095 H 0.03041 0.57619 0.8823 0.0
H1096 H 0.06482 0.60726 0.86445 0.0
C1097 C 0.18662 0.69313 0.79796 0.0
C1098 C 0.14585 0.65389 0.86739 0.0
H1099 H 0.13639 0.59131 0.8782 0.0
C1100 C 0.1226 0.65948 0.88315 0.0
C1101 C 0.15119 0.62892 0.86687 0.0
C1102 C 0.17642 0.62155 0.85253 0.0
C1103 C 0.10414 0.64088 0.89655 0.0
C1104 C 0.10882 0.61599 0.89379 0.0
C1105 C 0.13257 0.61035 0.87981 0.0
C1106 C 0.08876 0.59578 0.90375 0.0
C1107 C 0.07958 0.64796 0.9133 0.0
C1108 C 0.09111 0.57822 0.93103 0.0
C1109 C 0.07138 0.56019 0.94132 0.0
C1110 C 0.04893 0.55922 0.92437 0.0
C1111 C 0.04731 0.57619 0.89603 0.0
C1112 C 0.06693 0.5942 0.88592 0.0
H1113 H 0.08128 0.66693 0.92088 0.0
H1114 H 0.0646 0.64696 0.89532 0.0
H1115 H 0.07343 0.63519 0.93601 0.0
H1116 H 0.10782 0.57897 0.9451 0.0
H1117 H 0.0733 0.54773 0.96349 0.0
H1118 H 0.32696 0.23114 0.8071 0.0
H1119 H 0.35136 0.20503 0.84289 0.0
H1120 H 0.28204 0.16974 0.89319 0.0
H1121 H 0.25735 0.19496 0.85542 0.0
H1122 H 0.35748 0.19827 0.90569 0.0
H1123 H 0.31472 0.11083 0.86835 0.0
H1124 H 0.30793 0.14009 0.84829 0.0
H1125 H 0.29242 0.12894 0.88896 0.0
C1126 C 0.31682 0.21786 0.82582 0.0
C1127 C 0.2902 0.21494 0.82822 0.0
C1128 C 0.33085 0.20293 0.84642 0.0
C1129 C 0.31868 0.18496 0.87046 0.0
C1130 C 0.29198 0.18284 0.87414 0.0
H1131 H 0.4273 0.10667 0.99425 0.0
H1132 H 0.39395 0.13386 0.97987 0.0
C1133 C 0.27786 0.1974 0.85276 0.0
C1134 C 0.33439 0.16821 0.89036 0.0
H1135 H 0.34619 0.10806 0.90646 0.0
C1136 C 0.35498 0.17851 0.90592 0.0
C1137 C 0.33119 0.14239 0.89076 0.0
C1138 C 0.31053 0.12988 0.87296 0.0
C1139 C 0.37323 0.16397 0.91991 0.0
C1140 C 0.37018 0.13817 0.9199 0.0
C1141 C 0.34868 0.12781 0.90634 0.0
C1142 C 0.39015 0.1216 0.93012 0.0
C1143 C 0.39629 0.17661 0.93255 0.0
C1144 C 0.39871 0.10502 0.90768 0.0
C1145 C 0.41681 0.08877 0.91656 0.0
C1146 C 0.42736 0.08895 0.94788 0.0
C1147 C 0.41941 0.10594 0.9701 0.0
C1148 C 0.40055 0.12176 0.96164 0.0
H1149 H 0.39887 0.19624 0.92265 0.0
H1150 H 0.39399 0.17579 0.96053 0.0
H1151 H 0.41377 0.16762 0.92515 0.0
H1152 H 0.39131 0.10457 0.88308 0.0
H1153 H 0.42267 0.07612 0.89862 0.0
H1154 H 0.86774 0.29435 0.84736 0.0
H1155 H 0.89643 0.32214 0.87384 0.0
H1156 H 0.83355 0.34191 0.93852 0.0
H1157 H 0.80474 0.31484 0.91107 0.0
H1158 H 0.85886 0.38138 0.90904 0.0
H1159 H 0.92796 0.32 0.96176 0.0
H1160 H 0.92565 0.31744 0.91756 0.0
H1161 H 0.89857 0.30845 0.94701 0.0
C1162 C 0.86025 0.30408 0.86795 0.0
C1163 C 0.83413 0.30238 0.87742 0.0
C1164 C 0.87664 0.31996 0.8831 0.0
C1165 C 0.86723 0.33399 0.90846 0.0
C1166 C 0.84127 0.33131 0.91904 0.0
H1167 H 0.96722 0.42118 0.02093 0.0
H1168 H 0.93515 0.39194 0.00415 0.0
C1169 C 0.82486 0.31574 0.90355 0.0
C1170 C 0.88389 0.35306 0.92173 0.0
H1171 H 0.94037 0.36292 0.95592 0.0
C1172 C 0.87657 0.37728 0.91963 0.0
C1173 C 0.90688 0.34774 0.93585 0.0
C1174 C 0.91509 0.32195 0.94102 0.0
C1175 C 0.89173 0.39635 0.93075 0.0
C1176 C 0.9153 0.39123 0.94333 0.0
C1177 C 0.92243 0.36694 0.94594 0.0
C1178 C 0.93283 0.41058 0.95436 0.0
C1179 C 0.88206 0.42166 0.92946 0.0
C1180 C 0.94188 0.43119 0.93228 0.0
C1181 C 0.9599 0.44832 0.94216 0.0
C1182 C 0.96963 0.4447 0.97391 0.0
C1183 C 0.96019 0.42435 0.99616 0.0
C1184 C 0.94188 0.40758 0.98658 0.0
H1185 H 0.86106 0.42094 0.92956 0.0
H1186 H 0.88783 0.43147 0.95115 0.0
H1187 H 0.89 0.43241 0.90574 0.0
H1188 H 0.93564 0.43364 0.90701 0.0
H1189 H 0.96705 0.46372 0.92444 0.0
H1190 H 0.74212 0.82162 0.82396 0.0
H1191 H 0.7188 0.84829 0.85876 0.0
H1192 H 0.65405 0.79594 0.86951 0.0
H1193 H 0.67746 0.76882 0.83472 0.0
H1194 H 0.67488 0.86914 0.84333 0.0
H1195 H 0.66027 0.81303 0.96672 0.0
H1196 H 0.68314 0.80634 0.93354 0.0
H1197 H 0.65009 0.79741 0.93183 0.0
C1198 C 0.72301 0.81553 0.834 0.0
C1199 C 0.71165 0.79301 0.82644 0.0
C1200 C 0.70971 0.83088 0.85394 0.0
C1201 C 0.68475 0.82409 0.86704 0.0
C1202 C 0.67346 0.80139 0.86022 0.0
H1203 H 0.56028 0.89086 0.95904 0.0
H1204 H 0.59121 0.86474 0.93596 0.0
C1205 C 0.68682 0.78594 0.84019 0.0
C1206 C 0.67011 0.84162 0.88568 0.0
H1207 H 0.63619 0.84821 0.9602 0.0
C1208 C 0.66665 0.86467 0.86903 0.0
C1209 C 0.65949 0.83584 0.91926 0.0
C1210 C 0.6636 0.81191 0.93907 0.0
C1211 C 0.65202 0.88168 0.88447 0.0
C1212 C 0.64085 0.87566 0.91773 0.0
C1213 C 0.64483 0.85285 0.93473 0.0
C1214 C 0.62289 0.89168 0.93392 0.0
C1215 C 0.6477 0.90552 0.86451 0.0
C1216 C 0.63046 0.91555 0.94111 0.0
C1217 C 0.61264 0.93078 0.95437 0.0
C1218 C 0.58698 0.92234 0.96058 0.0
C1219 C 0.57978 0.89818 0.95423 0.0
C1220 C 0.59749 0.88307 0.94117 0.0
H1221 H 0.65382 0.90545 0.83726 0.0
H1222 H 0.62736 0.90934 0.86698 0.0
H1223 H 0.65872 0.92071 0.87456 0.0
H1224 H 0.65009 0.92244 0.93623 0.0
H1225 H 0.61886 0.94916 0.95934 0.0
H1226 H 0.83428 0.74023 0.18807 0.0
H1227 H 0.85873 0.71263 0.15528 0.0
H1228 H 0.79023 0.66831 0.14504 0.0
H1229 H 0.76576 0.69569 0.17729 0.0
H1230 H 0.86162 0.66226 0.17424 0.0
H1231 H 0.82359 0.6766 0.04829 0.0
H1232 H 0.81966 0.69786 0.08003 0.0
H1233 H 0.79989 0.66986 0.08301 0.0
C1234 C 0.82439 0.72486 0.17831 0.0
C1235 C 0.79807 0.7202 0.18535 0.0
C1236 C 0.83837 0.70906 0.15967 0.0
C1237 C 0.82626 0.68853 0.14738 0.0
C1238 C 0.79994 0.68424 0.15367 0.0
H1239 H 0.88974 0.56496 0.04893 0.0
H1240 H 0.85958 0.59092 0.07643 0.0
C1241 C 0.786 0.69989 0.17237 0.0
C1242 C 0.8413 0.67057 0.13026 0.0
H1243 H 0.85018 0.64368 0.05647 0.0
C1244 C 0.85913 0.65825 0.14847 0.0
C1245 C 0.83779 0.66507 0.09679 0.0
C1246 C 0.81935 0.67815 0.07571 0.0
C1247 C 0.87364 0.64073 0.13411 0.0
C1248 C 0.87053 0.63559 0.10044 0.0
C1249 C 0.85237 0.64751 0.08237 0.0
C1250 C 0.88793 0.61989 0.08273 0.0
C1251 C 0.89229 0.62786 0.15509 0.0
C1252 C 0.91357 0.6278 0.07662 0.0
C1253 C 0.93061 0.6132 0.06112 0.0
C1254 C 0.92251 0.59021 0.05114 0.0
C1255 C 0.89662 0.58243 0.05655 0.0
C1256 C 0.87941 0.59726 0.07214 0.0
H1257 H 0.88761 0.62874 0.18256 0.0
H1258 H 0.89279 0.60834 0.14998 0.0
H1259 H 0.91155 0.63687 0.14847 0.0
H1260 H 0.92049 0.64534 0.08407 0.0
H1261 H 0.95031 0.62002 0.05719 0.0
H1262 H 0.32629 0.81648 0.23976 0.0
H1263 H 0.35658 0.84842 0.21182 0.0
H1264 H 0.31503 0.85056 0.12274 0.0
H1265 H 0.28436 0.81827 0.15065 0.0
H1266 H 0.38673 0.84549 0.14896 0.0
H1267 H 0.32524 0.92406 0.14291 0.0
H1268 H 0.3175 0.8969 0.17174 0.0
H1269 H 0.31329 0.89607 0.1276 0.0
C1270 C 0.32337 0.82373 0.21427 0.0
C1271 C 0.30275 0.81468 0.19752 0.0
C1272 C 0.34081 0.84207 0.1983 0.0
C1273 C 0.33805 0.85211 0.16527 0.0
C1274 C 0.3174 0.84335 0.14842 0.0
H1275 H 0.43707 0.96593 0.04079 0.0
H1276 H 0.40119 0.93723 0.06278 0.0
C1277 C 0.29993 0.82479 0.16436 0.0
C1278 C 0.35753 0.87099 0.14843 0.0
H1279 H 0.36765 0.93182 0.12037 0.0
C1280 C 0.38252 0.86434 0.1426 0.0
C1281 C 0.35205 0.89556 0.1398 0.0
C1282 C 0.32563 0.90379 0.14593 0.0
C1283 C 0.40214 0.88153 0.12875 0.0
C1284 C 0.39693 0.90636 0.12136 0.0
C1285 C 0.37177 0.9129 0.12628 0.0
C1286 C 0.41754 0.9257 0.10931 0.0
C1287 C 0.42828 0.87276 0.12176 0.0
C1288 C 0.43832 0.92965 0.12861 0.0
C1289 C 0.4589 0.94595 0.11607 0.0
C1290 C 0.45912 0.9591 0.08406 0.0
C1291 C 0.43757 0.95629 0.06563 0.0
C1292 C 0.41703 0.93975 0.07812 0.0
H1293 H 0.42748 0.8528 0.1189 0.0
H1294 H 0.43809 0.88268 0.09849 0.0
H1295 H 0.43975 0.87607 0.14331 0.0
H1296 H 0.43894 0.91959 0.15315 0.0
H1297 H 0.47503 0.94769 0.13109 0.0
H1298 H 0.7046 0.14609 0.17694 0.0
H1299 H 0.67473 0.11943 0.15048 0.0
H1300 H 0.68768 0.16619 0.0572 0.0
H1301 H 0.71779 0.19287 0.08379 0.0
H1302 H 0.63111 0.14066 0.12602 0.0
H1303 H 0.68447 0.09502 0.02677 0.0
H1304 H 0.69935 0.10671 0.06203 0.0
H1305 H 0.69164 0.12742 0.02746 0.0
C1306 C 0.70183 0.15004 0.15039 0.0
C1307 C 0.71369 0.17122 0.13216 0.0
C1308 C 0.68468 0.13494 0.13536 0.0
C1309 C 0.67906 0.14075 0.10183 0.0
C1310 C 0.69207 0.16112 0.0829 0.0
H1311 H 0.53648 0.10209 0.01837 0.0
H1312 H 0.57545 0.12325 0.03344 0.0
C1313 C 0.70929 0.1763 0.09801 0.0
C1314 C 0.65709 0.12764 0.08868 0.0
H1315 H 0.63954 0.09029 0.02902 0.0
C1316 C 0.63297 0.12962 0.10484 0.0
C1317 C 0.65959 0.11329 0.06105 0.0
C1318 C 0.68514 0.11024 0.04334 0.0
C1319 C 0.61126 0.11768 0.09411 0.0
C1320 C 0.61368 0.10348 0.06634 0.0
C1321 C 0.63778 0.10133 0.0502 0.0
C1322 C 0.59122 0.09039 0.05445 0.0
C1323 C 0.58587 0.12006 0.11282 0.0
C1324 C 0.58743 0.06486 0.06075 0.0
C1325 C 0.56509 0.05269 0.05241 0.0
C1326 C 0.54619 0.06587 0.03741 0.0
C1327 C 0.5505 0.09139 0.03014 0.0
C1328 C 0.57278 0.10353 0.03865 0.0
H1329 H 0.58779 0.12824 0.13709 0.0
H1330 H 0.57442 0.13198 0.09687 0.0
H1331 H 0.57529 0.10187 0.1181 0.0
H1332 H 0.60146 0.05443 0.07296 0.0
H1333 H 0.56253 0.03301 0.05807 0.0
H1334 H 0.63604 0.65702 0.75667 0.0
H1335 H 0.61112 0.61774 0.76793 0.0
H1336 H 0.67953 0.58113 0.78459 0.0
H1337 H 0.7043 0.62078 0.77497 0.0
H1338 H 0.60919 0.57098 0.7462 0.0
H1339 H 0.64151 0.57099 0.87651 0.0
H1340 H 0.64827 0.59701 0.84572 0.0
H1341 H 0.66547 0.56999 0.84259 0.0
C1342 C 0.64567 0.64047 0.76221 0.0
C1343 C 0.67178 0.64165 0.76567 0.0
C1344 C 0.63155 0.61807 0.76834 0.0
C1345 C 0.64347 0.59662 0.77768 0.0
C1346 C 0.66996 0.59755 0.7781 0.0
H1347 H 0.54734 0.49618 0.91558 0.0
H1348 H 0.5815 0.50316 0.87061 0.0
C1349 C 0.68403 0.62007 0.77264 0.0
C1350 C 0.62755 0.57468 0.79217 0.0
H1351 H 0.60672 0.54537 0.86889 0.0
C1352 C 0.60898 0.56484 0.77286 0.0
C1353 C 0.62751 0.5665 0.82688 0.0
C1354 C 0.64661 0.57669 0.84929 0.0
C1355 C 0.58906 0.54863 0.78803 0.0
C1356 C 0.5877 0.54246 0.8233 0.0
C1357 C 0.60774 0.55021 0.84181 0.0
C1358 C 0.56401 0.53247 0.84292 0.0
C1359 C 0.56905 0.53927 0.76648 0.0
C1360 C 0.54225 0.5458 0.84136 0.0
C1361 C 0.52263 0.54176 0.86696 0.0
C1362 C 0.52481 0.52467 0.89472 0.0
C1363 C 0.54549 0.50984 0.8947 0.0
C1364 C 0.56487 0.5136 0.86887 0.0
H1365 H 0.57749 0.53665 0.74082 0.0
H1366 H 0.55939 0.52167 0.77798 0.0
H1367 H 0.55469 0.55301 0.76352 0.0
H1368 H 0.54139 0.56085 0.82208 0.0
H1369 H 0.50683 0.55336 0.86638 0.0
H1370 H 0.32052 0.73847 0.82282 0.0
H1371 H 0.34746 0.71105 0.85285 0.0
H1372 H 0.32369 0.65263 0.79421 0.0
H1373 H 0.29701 0.6803 0.76326 0.0
H1374 H 0.3304 0.66992 0.8923 0.0
H1375 H 0.39987 0.64769 0.7904 0.0
H1376 H 0.37972 0.67286 0.78512 0.0
H1377 H 0.36744 0.64204 0.78147 0.0
C1378 C 0.32129 0.71988 0.81592 0.0
C1379 C 0.30662 0.71144 0.79078 0.0
C1380 C 0.33669 0.70426 0.83313 0.0
C1381 C 0.33766 0.67989 0.82563 0.0
C1382 C 0.32356 0.67153 0.79991 0.0
H1383 H 0.39091 0.55162 0.9282 0.0
H1384 H 0.36687 0.582 0.89836 0.0
C1385 C 0.30829 0.68729 0.78234 0.0
C1386 C 0.35199 0.66294 0.84658 0.0
H1387 H 0.39924 0.62358 0.84333 0.0
C1388 C 0.34558 0.65993 0.88162 0.0
C1389 C 0.37182 0.65003 0.83254 0.0
C1390 C 0.38032 0.65345 0.79537 0.0
C1391 C 0.35825 0.644 0.90293 0.0
C1392 C 0.37763 0.63078 0.88876 0.0
C1393 C 0.38424 0.63385 0.85388 0.0
C1394 C 0.39079 0.61301 0.90966 0.0
C1395 C 0.35072 0.64098 0.94037 0.0
C1396 C 0.41178 0.62068 0.92643 0.0
C1397 C 0.42566 0.60338 0.94353 0.0
C1398 C 0.41868 0.57823 0.94391 0.0
C1399 C 0.39687 0.57082 0.92832 0.0
C1400 C 0.38312 0.5881 0.91118 0.0
H1401 H 0.33478 0.65224 0.94737 0.0
H1402 H 0.34507 0.62143 0.94856 0.0
H1403 H 0.36723 0.64635 0.95437 0.0
H1404 H 0.41781 0.63995 0.92544 0.0
H1405 H 0.44227 0.60966 0.95545 0.0
H1406 H 0.38669 0.31757 0.78803 0.0
H1407 H 0.41386 0.33817 0.82572 0.0
H1408 H 0.36447 0.39771 0.82589 0.0
H1409 H 0.33714 0.37691 0.78869 0.0
H1410 H 0.43938 0.38585 0.82735 0.0
H1411 H 0.35863 0.36643 0.92479 0.0
H1412 H 0.35987 0.35276 0.88522 0.0
H1413 H 0.35095 0.3837 0.88692 0.0
C1414 C 0.38237 0.33557 0.79497 0.0
C1415 C 0.36014 0.34591 0.78531 0.0
C1416 C 0.3977 0.34719 0.8167 0.0
C1417 C 0.39079 0.36914 0.82912 0.0
C1418 C 0.36985 0.38056 0.81696 0.0
H1419 H 0.43977 0.46601 0.96938 0.0
H1420 H 0.41677 0.44159 0.9318 0.0
C1421 C 0.35449 0.36891 0.79539 0.0
C1422 C 0.40381 0.3788 0.85724 0.0
H1423 H 0.39362 0.39143 0.93932 0.0
C1424 C 0.4295 0.38692 0.85192 0.0
C1425 C 0.39086 0.3798 0.88939 0.0
C1426 C 0.36362 0.37 0.89715 0.0
C1427 C 0.44233 0.39704 0.87756 0.0
C1428 C 0.42914 0.39869 0.90936 0.0
C1429 C 0.40363 0.39003 0.91491 0.0
C1430 C 0.44093 0.41133 0.93608 0.0
C1431 C 0.46961 0.40674 0.87015 0.0
C1432 C 0.4613 0.40176 0.95226 0.0
C1433 C 0.4744 0.4156 0.9741 0.0
C1434 C 0.46739 0.43928 0.97966 0.0
C1435 C 0.44577 0.44793 0.96534 0.0
C1436 C 0.43263 0.43403 0.94382 0.0
H1437 H 0.47586 0.40743 0.84284 0.0
H1438 H 0.47237 0.42542 0.87845 0.0
H1439 H 0.48197 0.39469 0.88442 0.0
H1440 H 0.46767 0.38404 0.94695 0.0
H1441 H 0.49087 0.40837 0.98488 0.0
H1442 H 0.71069 0.29343 0.83867 0.0
H1443 H 0.68335 0.32057 0.8666 0.0
H1444 H 0.65489 0.34417 0.77117 0.0
H1445 H 0.68201 0.31612 0.74285 0.0
H1446 H 0.68477 0.36936 0.85683 0.0
H1447 H 0.58984 0.32949 0.83149 0.0
H1448 H 0.6184 0.31386 0.82413 0.0
H1449 H 0.61104 0.33862 0.79467 0.0
C1450 C 0.69849 0.30421 0.82351 0.0
C1451 C 0.69854 0.30266 0.78849 0.0
C1452 C 0.68287 0.31978 0.83958 0.0
C1453 C 0.66698 0.33437 0.82109 0.0
C1454 C 0.66669 0.33277 0.78607 0.0
H1455 H 0.59968 0.4543 0.92088 0.0
H1456 H 0.62515 0.43142 0.88258 0.0
C1457 C 0.68222 0.31683 0.7699 0.0
C1458 C 0.6516 0.35165 0.83899 0.0
H1459 H 0.59086 0.36431 0.86205 0.0
C1460 C 0.66422 0.36836 0.85782 0.0
C1461 C 0.62481 0.35019 0.84045 0.0
C1462 C 0.61013 0.33196 0.82187 0.0
C1463 C 0.65084 0.38306 0.87893 0.0
C1464 C 0.62404 0.38162 0.88043 0.0
C1465 C 0.61141 0.36542 0.86083 0.0
C1466 C 0.60868 0.39575 0.90348 0.0
C1467 C 0.66558 0.39911 0.90057 0.0
C1468 C 0.59056 0.38339 0.92753 0.0
C1469 C 0.57573 0.39644 0.94908 0.0
C1470 C 0.57885 0.42212 0.94719 0.0
C1471 C 0.59715 0.43449 0.92334 0.0
C1472 C 0.61175 0.42143 0.90144 0.0
H1473 H 0.68504 0.39314 0.90327 0.0
H1474 H 0.66733 0.41821 0.88856 0.0
H1475 H 0.6558 0.39903 0.92618 0.0
H1476 H 0.58786 0.36359 0.9296 0.0
H1477 H 0.56173 0.3864 0.96714 0.0
H1478 H 0.6957 0.27907 0.1737 0.0
H1479 H 0.66936 0.30659 0.14276 0.0
H1480 H 0.67784 0.35888 0.21632 0.0
H1481 H 0.70442 0.33131 0.24781 0.0
H1482 H 0.6261 0.34944 0.19317 0.0
H1483 H 0.70224 0.37173 0.08947 0.0
H1484 H 0.69472 0.33963 0.10149 0.0
H1485 H 0.70837 0.35848 0.13095 0.0
C1486 C 0.69187 0.29634 0.18356 0.0
C1487 C 0.70239 0.30318 0.21302 0.0
C1488 C 0.67684 0.31201 0.16577 0.0
C1489 C 0.6721 0.33481 0.17704 0.0
C1490 C 0.68151 0.34133 0.20725 0.0
H1491 H 0.6194 0.4614 0.06812 0.0
H1492 H 0.64352 0.43142 0.09854 0.0
C1493 C 0.69663 0.3256 0.22516 0.0
C1494 C 0.65814 0.35213 0.15634 0.0
H1495 H 0.66206 0.38659 0.08035 0.0
C1496 C 0.6339 0.35764 0.16853 0.0
C1497 C 0.6686 0.36282 0.12439 0.0
C1498 C 0.695 0.35809 0.11078 0.0
C1499 C 0.6196 0.37345 0.14925 0.0
C1500 C 0.62983 0.38368 0.11692 0.0
C1501 C 0.65422 0.37841 0.10497 0.0
C1502 C 0.61604 0.40102 0.09594 0.0
C1503 C 0.59389 0.37945 0.1638 0.0
C1504 C 0.59307 0.39355 0.08335 0.0
C1505 C 0.57919 0.41063 0.06584 0.0
C1506 C 0.58814 0.43542 0.06076 0.0
C1507 C 0.61185 0.4425 0.07186 0.0
C1508 C 0.62568 0.42542 0.08926 0.0
H1509 H 0.59105 0.3741 0.19143 0.0
H1510 H 0.59136 0.39935 0.1591 0.0
H1511 H 0.57895 0.36939 0.15135 0.0
H1512 H 0.58563 0.37463 0.08772 0.0
H1513 H 0.5611 0.40457 0.05735 0.0
H1514 H 0.67026 0.63967 0.21339 0.0
H1515 H 0.64305 0.61855 0.17627 0.0
H1516 H 0.59771 0.68105 0.16763 0.0
H1517 H 0.62478 0.70203 0.20507 0.0
H1518 H 0.56956 0.63411 0.17042 0.0
H1519 H 0.65207 0.64463 0.07485 0.0
H1520 H 0.65811 0.62899 0.11469 0.0
H1521 H 0.65107 0.66065 0.11249 0.0
C1522 C 0.65383 0.64837 0.20465 0.0
C1523 C 0.64923 0.6722 0.21228 0.0
C1524 C 0.63855 0.63651 0.18315 0.0
C1525 C 0.61875 0.6485 0.16874 0.0
C1526 C 0.61297 0.67156 0.17845 0.0
H1527 H 0.51781 0.60608 0.01565 0.0
H1528 H 0.54171 0.63122 0.05193 0.0
C1529 C 0.62823 0.68342 0.19999 0.0
C1530 C 0.60561 0.63799 0.14133 0.0
H1531 H 0.61583 0.62094 0.06141 0.0
C1532 C 0.57957 0.63137 0.14648 0.0
C1533 C 0.61877 0.63478 0.11 0.0
C1534 C 0.6465 0.64283 0.10242 0.0
C1535 C 0.56649 0.62061 0.12156 0.0
C1536 C 0.5798 0.61683 0.09058 0.0
C1537 C 0.60572 0.62397 0.08516 0.0
C1538 C 0.56761 0.60352 0.06475 0.0
C1539 C 0.53876 0.61252 0.12901 0.0
C1540 C 0.57525 0.58028 0.05854 0.0
C1541 C 0.56176 0.56596 0.03786 0.0
C1542 C 0.54042 0.57468 0.0229 0.0
C1543 C 0.53405 0.59878 0.02697 0.0
C1544 C 0.54754 0.61308 0.04789 0.0
H1545 H 0.53245 0.6129 0.15614 0.0
H1546 H 0.52725 0.62496 0.11394 0.0
H1547 H 0.53486 0.59368 0.12176 0.0
H1548 H 0.59088 0.5727 0.07107 0.0
H1549 H 0.5673 0.54756 0.03495 0.0
H1550 H 0.296 0.71547 0.17002 0.0
H1551 H 0.32256 0.68728 0.14302 0.0
H1552 H 0.35555 0.66909 0.23705 0.0
H1553 H 0.32915 0.69819 0.26448 0.0
H1554 H 0.39113 0.67491 0.18358 0.0
H1555 H 0.31131 0.6139 0.15248 0.0
H1556 H 0.30759 0.64491 0.13656 0.0
H1557 H 0.30724 0.63702 0.18149 0.0
C1558 C 0.30882 0.70549 0.18517 0.0
C1559 C 0.31024 0.70888 0.21957 0.0
C1560 C 0.3239 0.6892 0.16966 0.0
C1561 C 0.34047 0.67549 0.18821 0.0
C1562 C 0.34259 0.67927 0.22238 0.0
H1563 H 0.40941 0.55803 0.0859 0.0
H1564 H 0.38484 0.58021 0.12613 0.0
C1565 C 0.32757 0.69589 0.23799 0.0
C1566 C 0.35582 0.6578 0.17113 0.0
H1567 H 0.35083 0.61208 0.11884 0.0
C1568 C 0.38235 0.6609 0.16987 0.0
C1569 C 0.34439 0.63912 0.15383 0.0
C1570 C 0.31607 0.63336 0.15647 0.0
C1571 C 0.39772 0.64676 0.15019 0.0
C1572 C 0.38621 0.6296 0.13048 0.0
C1573 C 0.35971 0.62556 0.13334 0.0
C1574 C 0.40117 0.61613 0.10607 0.0
C1575 C 0.42613 0.65041 0.15082 0.0
C1576 C 0.41803 0.62893 0.08079 0.0
C1577 C 0.43224 0.61628 0.058 0.0
C1578 C 0.42944 0.5906 0.05952 0.0
C1579 C 0.41186 0.57784 0.08397 0.0
C1580 C 0.39791 0.59049 0.10709 0.0
H1581 H 0.43142 0.65719 0.17498 0.0
H1582 H 0.43545 0.63315 0.14743 0.0
H1583 H 0.4336 0.66438 0.13007 0.0
H1584 H 0.42022 0.64874 0.07864 0.0
H1585 H 0.44547 0.62664 0.03923 0.0
H1586 H 0.30709 0.39446 0.23723 0.0
H1587 H 0.33125 0.43435 0.22603 0.0
H1588 H 0.40064 0.39885 0.24025 0.0
H1589 H 0.37636 0.3593 0.25299 0.0
H1590 H 0.40237 0.44632 0.26087 0.0
H1591 H 0.36718 0.4432 0.13245 0.0
H1592 H 0.3439 0.44432 0.16717 0.0
H1593 H 0.36155 0.41758 0.16412 0.0
C1594 C 0.32745 0.39547 0.23876 0.0
C1595 C 0.34014 0.37412 0.2454 0.0
C1596 C 0.34118 0.41813 0.23241 0.0
C1597 C 0.36774 0.41942 0.23163 0.0
C1598 C 0.38015 0.39823 0.24077 0.0
H1599 H 0.5026 0.46336 0.13789 0.0
H1600 H 0.46873 0.45627 0.18315 0.0
C1601 C 0.36638 0.37568 0.24776 0.0
C1602 C 0.38308 0.44137 0.21592 0.0
H1603 H 0.40196 0.46946 0.13784 0.0
C1604 C 0.40195 0.45193 0.23413 0.0
C1605 C 0.38228 0.44885 0.18112 0.0
C1606 C 0.36279 0.43789 0.15991 0.0
C1607 C 0.42135 0.46821 0.21775 0.0
C1608 C 0.42193 0.47366 0.18239 0.0
C1609 C 0.40157 0.46517 0.16498 0.0
C1610 C 0.44517 0.4836 0.16167 0.0
C1611 C 0.44165 0.47843 0.23818 0.0
C1612 C 0.44354 0.50172 0.13494 0.0
C1613 C 0.46252 0.5052 0.10855 0.0
C1614 C 0.48357 0.49084 0.10876 0.0
C1615 C 0.4865 0.47457 0.13714 0.0
C1616 C 0.46727 0.47078 0.16328 0.0
H1617 H 0.43356 0.48163 0.26379 0.0
H1618 H 0.45622 0.46491 0.24143 0.0
H1619 H 0.45099 0.49587 0.22566 0.0
H1620 H 0.42665 0.51177 0.13314 0.0
H1621 H 0.4601 0.51824 0.08716 0.0
H1622 H 0.83129 0.74148 0.68181 0.0
H1623 H 0.85783 0.71436 0.65124 0.0
H1624 H 0.79372 0.66221 0.65128 0.0
H1625 H 0.76705 0.68901 0.68209 0.0
H1626 H 0.85792 0.6581 0.68266 0.0
H1627 H 0.83418 0.67496 0.54901 0.0
H1628 H 0.83323 0.69883 0.57743 0.0
H1629 H 0.80948 0.67388 0.58287 0.0
C1630 C 0.82269 0.72446 0.6748 0.0
C1631 C 0.79705 0.7174 0.68452 0.0
C1632 C 0.8379 0.70899 0.65736 0.0
C1633 C 0.82767 0.68638 0.64888 0.0
C1634 C 0.80189 0.67969 0.65735 0.0
H1635 H 0.89732 0.56618 0.55406 0.0
H1636 H 0.86736 0.59532 0.57341 0.0
C1637 C 0.78672 0.69502 0.67504 0.0
C1638 C 0.84444 0.66875 0.63429 0.0
H1639 H 0.86353 0.64531 0.56071 0.0
C1640 C 0.85922 0.65531 0.656 0.0
C1641 C 0.84566 0.66488 0.59966 0.0
C1642 C 0.82989 0.67885 0.57563 0.0
C1643 C 0.87534 0.63813 0.644 0.0
C1644 C 0.87736 0.63481 0.60906 0.0
C1645 C 0.86216 0.64797 0.5874 0.0
C1646 C 0.89561 0.61818 0.59473 0.0
C1647 C 0.8897 0.62335 0.66909 0.0
C1648 C 0.92154 0.6218 0.59916 0.0
C1649 C 0.93857 0.60512 0.5885 0.0
C1650 C 0.93016 0.58456 0.57268 0.0
C1651 C 0.90439 0.58166 0.5665 0.0
C1652 C 0.88725 0.59833 0.57748 0.0
H1653 H 0.88032 0.62247 0.69507 0.0
H1654 H 0.89141 0.60437 0.66211 0.0
H1655 H 0.90905 0.63219 0.66957 0.0
H1656 H 0.9286 0.63737 0.61144 0.0
H1657 H 0.95835 0.60823 0.59311 0.0
H1658 H 0.31725 0.7856 0.65221 0.0
H1659 H 0.3517 0.81396 0.62404 0.0
H1660 H 0.3457 0.85902 0.70704 0.0
H1661 H 0.31202 0.83085 0.73538 0.0
H1662 H 0.35393 0.86302 0.60193 0.0
H1663 H 0.42045 0.84906 0.70115 0.0
H1664 H 0.39232 0.82907 0.69962 0.0
H1665 H 0.39045 0.85763 0.71837 0.0
C1666 C 0.32335 0.80151 0.66447 0.0
C1667 C 0.31192 0.80572 0.69628 0.0
C1668 C 0.34306 0.81774 0.64833 0.0
C1669 C 0.35183 0.83842 0.66371 0.0
C1670 C 0.33993 0.84289 0.69499 0.0
H1671 H 0.44451 0.97151 0.62895 0.0
H1672 H 0.41776 0.93467 0.6492 0.0
C1673 C 0.32044 0.82675 0.71112 0.0
C1674 C 0.37299 0.85575 0.64725 0.0
H1675 H 0.42877 0.88572 0.66322 0.0
C1676 C 0.37051 0.86769 0.61507 0.0
C1677 C 0.39485 0.86178 0.66414 0.0
C1678 C 0.39984 0.84851 0.69756 0.0
C1679 C 0.38841 0.88642 0.60035 0.0
C1680 C 0.40952 0.89332 0.61814 0.0
C1681 C 0.41254 0.88064 0.64963 0.0
C1682 C 0.42747 0.91493 0.60603 0.0
C1683 C 0.38398 0.89946 0.56656 0.0
C1684 C 0.44265 0.91597 0.57539 0.0
C1685 C 0.45826 0.93712 0.56374 0.0
C1686 C 0.45896 0.95772 0.58245 0.0
C1687 C 0.4445 0.95612 0.61375 0.0
C1688 C 0.42909 0.93501 0.6254 0.0
H1689 H 0.36473 0.89475 0.55871 0.0
H1690 H 0.38651 0.91962 0.56727 0.0
H1691 H 0.39808 0.89415 0.54707 0.0
H1692 H 0.44218 0.90056 0.56024 0.0
H1693 H 0.46904 0.93763 0.53952 0.0
H1694 H 0.19789 0.26837 0.66805 0.0
H1695 H 0.17081 0.29129 0.63175 0.0
H1696 H 0.21896 0.35694 0.63595 0.0
H1697 H 0.24645 0.33399 0.67235 0.0
H1698 H 0.14452 0.33014 0.65133 0.0
H1699 H 0.20714 0.35822 0.53507 0.0
H1700 H 0.21421 0.33403 0.56601 0.0
H1701 H 0.2207 0.36555 0.57325 0.0
C1702 C 0.20305 0.28762 0.66088 0.0
C1703 C 0.22436 0.29937 0.67326 0.0
C1704 C 0.18748 0.30068 0.64008 0.0
C1705 C 0.19288 0.32579 0.63093 0.0
C1706 C 0.21464 0.33747 0.6422 0.0
H1707 H 0.12202 0.44891 0.5501 0.0
H1708 H 0.14892 0.41783 0.57128 0.0
C1709 C 0.23032 0.32436 0.66309 0.0
C1710 C 0.17451 0.34002 0.61221 0.0
H1711 H 0.16882 0.37866 0.54155 0.0
C1712 C 0.14971 0.34051 0.6271 0.0
C1713 C 0.18127 0.35341 0.58054 0.0
C1714 C 0.20721 0.35265 0.56256 0.0
C1715 C 0.13189 0.35499 0.61204 0.0
C1716 C 0.1389 0.36903 0.58089 0.0
C1717 C 0.16343 0.36784 0.5654 0.0
C1718 C 0.12224 0.38727 0.56613 0.0
C1719 C 0.10613 0.3561 0.63044 0.0
C1720 C 0.09819 0.38047 0.55574 0.0
C1721 C 0.08243 0.39842 0.54366 0.0
C1722 C 0.0906 0.42339 0.54167 0.0
C1723 C 0.11493 0.42991 0.55141 0.0
C1724 C 0.13049 0.41212 0.56344 0.0
H1725 H 0.10531 0.34755 0.65686 0.0
H1726 H 0.10102 0.37537 0.63088 0.0
H1727 H 0.09166 0.34618 0.61703 0.0
H1728 H 0.0916 0.36133 0.55706 0.0
H1729 H 0.06397 0.39277 0.53592 0.0
H1730 H 0.70953 0.19763 0.59034 0.0
H1731 H 0.68446 0.16764 0.56252 0.0
H1732 H 0.61629 0.18798 0.61571 0.0
H1733 H 0.64141 0.21844 0.64309 0.0
H1734 H 0.65896 0.12922 0.60061 0.0
H1735 H 0.5921 0.17828 0.52263 0.0
H1736 H 0.61997 0.19352 0.53693 0.0
H1737 H 0.59195 0.18659 0.56521 0.0
C1738 C 0.68908 0.19633 0.59507 0.0
C1739 C 0.67735 0.21039 0.6187 0.0
C1740 C 0.67478 0.17912 0.57931 0.0
C1741 C 0.64846 0.17553 0.58693 0.0
C1742 C 0.63647 0.1907 0.60888 0.0
H1743 H 0.53783 0.05584 0.56589 0.0
H1744 H 0.56006 0.09409 0.57788 0.0
C1745 C 0.65082 0.20813 0.62452 0.0
C1746 C 0.63446 0.15372 0.57582 0.0
H1747 H 0.584 0.13493 0.53348 0.0
C1748 C 0.64272 0.13053 0.58564 0.0
C1749 C 0.6131 0.15538 0.5566 0.0
C1750 C 0.60384 0.17978 0.54444 0.0
C1751 C 0.6301 0.10898 0.57723 0.0
C1752 C 0.60877 0.1106 0.558 0.0
C1753 C 0.6004 0.13375 0.54815 0.0
C1754 C 0.59476 0.08828 0.54859 0.0
C1755 C 0.63931 0.0846 0.58978 0.0
C1756 C 0.60676 0.07252 0.52765 0.0
C1757 C 0.5942 0.05054 0.52094 0.0
C1758 C 0.56931 0.04393 0.5349 0.0
C1759 C 0.55708 0.06017 0.55503 0.0
C1760 C 0.56969 0.08214 0.56175 0.0
H1761 H 0.65206 0.08635 0.61049 0.0
H1762 H 0.62311 0.07134 0.59903 0.0
H1763 H 0.65006 0.07697 0.56867 0.0
H1764 H 0.62597 0.07711 0.51677 0.0
H1765 H 0.60407 0.03869 0.50491 0.0
H1766 H 0.78557 0.32673 0.41846 0.0
H1767 H 0.81108 0.35608 0.44769 0.0
H1768 H 0.83885 0.3941 0.35146 0.0
H1769 H 0.81359 0.36498 0.32249 0.0
H1770 H 0.8657 0.36349 0.43588 0.0
H1771 H 0.81802 0.44945 0.40947 0.0
H1772 H 0.80254 0.41952 0.40683 0.0
H1773 H 0.82443 0.4333 0.37287 0.0
C1774 C 0.79661 0.3418 0.40381 0.0
C1775 C 0.79756 0.34386 0.36838 0.0
C1776 C 0.81127 0.35838 0.42039 0.0
C1777 C 0.82668 0.37733 0.40169 0.0
C1778 C 0.8268 0.37986 0.36637 0.0
H1779 H 0.96286 0.46247 0.43846 0.0
H1780 H 0.93176 0.43217 0.42061 0.0
C1781 C 0.8124 0.36325 0.34987 0.0
C1782 C 0.8442 0.39349 0.41844 0.0
H1783 H 0.86011 0.45361 0.42695 0.0
C1784 C 0.86435 0.38318 0.43434 0.0
C1785 C 0.84231 0.41911 0.4164 0.0
C1786 C 0.82054 0.43104 0.40075 0.0
C1787 C 0.88317 0.39798 0.44731 0.0
C1788 C 0.88184 0.42367 0.44394 0.0
C1789 C 0.86124 0.43389 0.42907 0.0
C1790 C 0.90135 0.44042 0.45618 0.0
C1791 C 0.90432 0.38611 0.46453 0.0
C1792 C 0.8945 0.45497 0.48199 0.0
C1793 C 0.91206 0.47224 0.49206 0.0
C1794 C 0.93687 0.47548 0.47636 0.0
C1795 C 0.94392 0.46046 0.45097 0.0
C1796 C 0.92623 0.44308 0.44089 0.0
H1797 H 0.89982 0.36617 0.47124 0.0
H1798 H 0.92187 0.38852 0.44727 0.0
H1799 H 0.90821 0.39488 0.48784 0.0
H1800 H 0.87541 0.45317 0.49409 0.0
H1801 H 0.90597 0.4833 0.51193 0.0
H1802 H 0.66946 0.77564 0.31572 0.0
H1803 H 0.64504 0.80366 0.34781 0.0
H1804 H 0.71454 0.84252 0.36842 0.0
H1805 H 0.73891 0.81516 0.33587 0.0
H1806 H 0.64395 0.81719 0.4137 0.0
H1807 H 0.67738 0.89651 0.32172 0.0
H1808 H 0.68224 0.86533 0.31346 0.0
H1809 H 0.70255 0.88094 0.34009 0.0
C1810 C 0.67951 0.79001 0.3274 0.0
C1811 C 0.7061 0.79337 0.32284 0.0
C1812 C 0.66555 0.80602 0.34572 0.0
C1813 C 0.67793 0.82558 0.35986 0.0
C1814 C 0.70452 0.82801 0.35698 0.0
H1815 H 0.61719 0.94963 0.45797 0.0
H1816 H 0.64537 0.91785 0.44217 0.0
C1817 C 0.71843 0.81224 0.33847 0.0
C1818 C 0.66313 0.84408 0.3763 0.0
H1819 H 0.6527 0.90509 0.37046 0.0
C1820 C 0.64592 0.83641 0.40429 0.0
C1821 C 0.66566 0.86921 0.36403 0.0
C1822 C 0.68276 0.87852 0.333 0.0
C1823 C 0.63118 0.85317 0.42021 0.0
C1824 C 0.63361 0.87818 0.40771 0.0
C1825 C 0.65112 0.88593 0.38021 0.0
C1826 C 0.61638 0.89619 0.42044 0.0
C1827 C 0.61294 0.84404 0.45013 0.0
C1828 C 0.59082 0.89445 0.41357 0.0
C1829 C 0.57487 0.91262 0.42207 0.0
C1830 C 0.58408 0.93295 0.4378 0.0
C1831 C 0.60954 0.93429 0.44571 0.0
C1832 C 0.62564 0.91615 0.43678 0.0
H1833 H 0.618 0.82615 0.46216 0.0
H1834 H 0.61245 0.85748 0.46936 0.0
H1835 H 0.59358 0.84158 0.44151 0.0
H1836 H 0.58336 0.87936 0.40066 0.0
H1837 H 0.55533 0.91084 0.41588 0.0
H1838 H 0.23374 0.6811 0.34359 0.0
H1839 H 0.20121 0.64942 0.36876 0.0
H1840 H 0.1448 0.68533 0.31344 0.0
H1841 H 0.17721 0.71577 0.28703 0.0
H1842 H 0.15928 0.64706 0.40759 0.0
H1843 H 0.13215 0.61938 0.28481 0.0
H1844 H 0.15922 0.64025 0.28806 0.0
H1845 H 0.12785 0.65123 0.28738 0.0
C1846 C 0.21439 0.68211 0.3368 0.0
C1847 C 0.2082 0.7007 0.3128 0.0
C1848 C 0.19575 0.664 0.35121 0.0
C1849 C 0.17048 0.66432 0.34226 0.0
C1850 C 0.16419 0.6838 0.31979 0.0
H1851 H 0.04269 0.57505 0.45811 0.0
H1852 H 0.07342 0.60876 0.4354 0.0
C1853 C 0.1828 0.70142 0.30485 0.0
C1854 C 0.15064 0.64446 0.35603 0.0
H1855 H 0.1033 0.60584 0.3325 0.0
C1856 C 0.14718 0.63794 0.3911 0.0
C1857 C 0.13497 0.63198 0.33473 0.0
C1858 C 0.13893 0.63588 0.29667 0.0
C1859 C 0.12845 0.61977 0.40533 0.0
C1860 C 0.11183 0.60835 0.38413 0.0
C1861 C 0.11553 0.61473 0.34906 0.0
C1862 C 0.09164 0.58862 0.39717 0.0
C1863 C 0.12737 0.61248 0.44282 0.0
C1864 C 0.09032 0.56639 0.38223 0.0
C1865 C 0.07226 0.54741 0.39444 0.0
C1866 C 0.05493 0.54984 0.42231 0.0
C1867 C 0.05558 0.57242 0.43659 0.0
C1868 C 0.07354 0.59163 0.42395 0.0
H1869 H 0.14583 0.61691 0.45316 0.0
H1870 H 0.11288 0.62279 0.45592 0.0
H1871 H 0.12227 0.59258 0.44881 0.0
H1872 H 0.1038 0.56339 0.36149 0.0
H1873 H 0.07259 0.5304 0.38266 0.0
H1874 H 0.33367 0.25126 0.32159 0.0
H1875 H 0.36184 0.22665 0.35444 0.0
H1876 H 0.30188 0.16959 0.37695 0.0
H1877 H 0.27369 0.19384 0.34373 0.0
H1878 H 0.35915 0.2053 0.42175 0.0
H1879 H 0.35919 0.13511 0.33014 0.0
H1880 H 0.34721 0.16485 0.32113 0.0
H1881 H 0.32791 0.14096 0.34647 0.0
C1882 C 0.32637 0.23356 0.33379 0.0
C1883 C 0.30149 0.22438 0.32969 0.0
C1884 C 0.34251 0.21955 0.35259 0.0
C1885 C 0.33411 0.19611 0.36755 0.0
C1886 C 0.3089 0.18744 0.36499 0.0
H1887 H 0.38838 0.07238 0.47521 0.0
H1888 H 0.36513 0.10492 0.44922 0.0
C1889 C 0.29277 0.20138 0.34613 0.0
C1890 C 0.35191 0.1802 0.3845 0.0
H1891 H 0.37678 0.1245 0.38225 0.0
C1892 C 0.36318 0.18769 0.41306 0.0
C1893 C 0.35756 0.15748 0.37265 0.0
C1894 C 0.34756 0.14919 0.34071 0.0
C1895 C 0.37888 0.17241 0.43115 0.0
C1896 C 0.38347 0.1492 0.42017 0.0
C1897 C 0.37298 0.1422 0.39086 0.0
C1898 C 0.39766 0.131 0.43954 0.0
C1899 C 0.38984 0.18092 0.4623 0.0
C1900 C 0.42368 0.13505 0.44351 0.0
C1901 C 0.43716 0.11633 0.45861 0.0
C1902 C 0.42481 0.09329 0.46949 0.0
C1903 C 0.39858 0.08977 0.46663 0.0
C1904 C 0.3852 0.10839 0.45185 0.0
H1905 H 0.37977 0.19635 0.47192 0.0
H1906 H 0.38902 0.16571 0.48268 0.0
H1907 H 0.41006 0.18723 0.45602 0.0
H1908 H 0.43371 0.15231 0.43389 0.0
H1909 H 0.45734 0.11956 0.46052 0.0
H1910 H 0.73607 0.82249 0.66983 0.0
H1911 H 0.70833 0.84435 0.63284 0.0
H1912 H 0.65314 0.7826 0.64751 0.0
H1913 H 0.68056 0.76067 0.68477 0.0
H1914 H 0.68594 0.83158 0.57238 0.0
H1915 H 0.61386 0.84024 0.67873 0.0
H1916 H 0.64553 0.83163 0.68557 0.0
H1917 H 0.62253 0.80974 0.67258 0.0
C1918 C 0.71812 0.81347 0.665 0.0
C1919 C 0.71043 0.78993 0.68055 0.0
C1920 C 0.70232 0.82597 0.6438 0.0
C1921 C 0.67854 0.81521 0.63785 0.0
C1922 C 0.67124 0.79137 0.65223 0.0
H1923 H 0.55766 0.89345 0.54324 0.0
H1924 H 0.58122 0.85906 0.56516 0.0
C1925 C 0.687 0.77885 0.67344 0.0
C1926 C 0.66103 0.82949 0.61785 0.0
H1927 H 0.60592 0.85833 0.62529 0.0
C1928 C 0.66832 0.83724 0.58383 0.0
C1929 C 0.63794 0.83667 0.63279 0.0
C1930 C 0.62946 0.82934 0.66947 0.0
C1931 C 0.65344 0.85256 0.56458 0.0
C1932 C 0.63097 0.86066 0.57999 0.0
C1933 C 0.62311 0.85202 0.61354 0.0
C1934 C 0.61709 0.88038 0.56334 0.0
C1935 C 0.66209 0.86024 0.52806 0.0
C1936 C 0.62945 0.90366 0.55508 0.0
C1937 C 0.61609 0.92323 0.54295 0.0
C1938 C 0.59001 0.92 0.53887 0.0
C1939 C 0.57772 0.89651 0.5462 0.0
C1940 C 0.59114 0.87687 0.55866 0.0
H1941 H 0.67396 0.84647 0.51715 0.0
H1942 H 0.64573 0.86289 0.51256 0.0
H1943 H 0.67377 0.87783 0.5264 0.0
H1944 H 0.64932 0.90692 0.5591 0.0
H1945 H 0.62621 0.94103 0.53729 0.0
H1946 H 0.69569 0.22983 0.35688 0.0
H1947 H 0.66256 0.20069 0.38632 0.0
H1948 H 0.66583 0.15709 0.30159 0.0
H1949 H 0.69832 0.18608 0.27198 0.0
H1950 H 0.61715 0.16409 0.32315 0.0
H1951 H 0.6697 0.13292 0.43307 0.0
H1952 H 0.6667 0.16537 0.42675 0.0
H1953 H 0.68515 0.15049 0.39601 0.0
C1954 C 0.68941 0.21398 0.3446 0.0
C1955 C 0.69983 0.21036 0.31203 0.0
C1956 C 0.67054 0.19721 0.36157 0.0
C1957 C 0.66182 0.1764 0.34644 0.0
C1958 C 0.67217 0.17289 0.31393 0.0
H1959 H 0.567 0.04346 0.38032 0.0
H1960 H 0.59336 0.0803 0.35887 0.0
C1961 C 0.69088 0.18956 0.29701 0.0
C1962 C 0.64155 0.15837 0.36362 0.0
H1963 H 0.62805 0.11559 0.43154 0.0
C1964 C 0.61954 0.15361 0.34695 0.0
C1965 C 0.6444 0.14473 0.39488 0.0
C1966 C 0.66782 0.14841 0.41369 0.0
C1967 C 0.6007 0.13539 0.36014 0.0
C1968 C 0.604 0.12111 0.39068 0.0
C1969 C 0.6255 0.12647 0.4081 0.0
C1970 C 0.58641 0.09939 0.40346 0.0
C1971 C 0.57743 0.13154 0.3411 0.0
C1972 C 0.57365 0.09761 0.43589 0.0
C1973 C 0.55828 0.07647 0.44824 0.0
C1974 C 0.55573 0.05645 0.42865 0.0
C1975 C 0.56829 0.05851 0.39605 0.0
C1976 C 0.58338 0.07966 0.38366 0.0
H1977 H 0.57389 0.14831 0.32488 0.0
H1978 H 0.58029 0.11665 0.32443 0.0
H1979 H 0.56035 0.12621 0.35865 0.0
H1980 H 0.57583 0.11246 0.45182 0.0
H1981 H 0.54925 0.07543 0.47364 0.0
H1982 H 0.76197 0.67758 0.32805 0.0
H1983 H 0.78909 0.65343 0.36376 0.0
H1984 H 0.83667 0.71857 0.37332 0.0
H1985 H 0.81 0.74263 0.33791 0.0
H1986 H 0.86334 0.67985 0.3514 0.0
H1987 H 0.7992 0.65003 0.46596 0.0
H1988 H 0.78646 0.64411 0.42667 0.0
H1989 H 0.7929 0.67517 0.43601 0.0
C1990 C 0.77791 0.68679 0.33835 0.0
C1991 C 0.78385 0.712 0.32996 0.0
C1992 C 0.79338 0.673 0.35878 0.0
C1993 C 0.81488 0.68424 0.3713 0.0
C1994 C 0.82023 0.70951 0.36393 0.0
H1995 H 0.94375 0.62086 0.47004 0.0
H1996 H 0.91576 0.65092 0.44601 0.0
C1997 C 0.80489 0.72323 0.34364 0.0
C1998 C 0.83299 0.66959 0.38989 0.0
H1999 H 0.83835 0.63126 0.46092 0.0
C2000 C 0.85796 0.66937 0.3755 0.0
C2001 C 0.82597 0.65607 0.42137 0.0
C2002 C 0.79974 0.65644 0.43866 0.0
C2003 C 0.87584 0.65522 0.39106 0.0
C2004 C 0.8687 0.6413 0.42227 0.0
C2005 C 0.84387 0.64202 0.43706 0.0
C2006 C 0.88574 0.6239 0.43821 0.0
C2007 C 0.90184 0.65448 0.37321 0.0
C2008 C 0.87796 0.59894 0.44258 0.0
C2009 C 0.89369 0.58195 0.45636 0.0
C2010 C 0.91774 0.5894 0.46622 0.0
C2011 C 0.92548 0.6145 0.46238 0.0
C2012 C 0.90954 0.63165 0.44857 0.0
H2013 H 0.90258 0.66221 0.3464 0.0
H2014 H 0.91579 0.66544 0.38616 0.0
H2015 H 0.90773 0.63541 0.37397 0.0
H2016 H 0.85976 0.59247 0.4348 0.0
H2017 H 0.88693 0.56282 0.45894 0.0
H2018 H 0.34117 0.78646 0.41614 0.0
H2019 H 0.36893 0.81501 0.44352 0.0
H2020 H 0.36603 0.86937 0.359 0.0
H2021 H 0.34015 0.8408 0.33102 0.0
H2022 H 0.41141 0.86964 0.37705 0.0
H2023 H 0.34659 0.87137 0.49277 0.0
H2024 H 0.35769 0.8419 0.48567 0.0
H2025 H 0.33735 0.85626 0.45678 0.0
C2026 C 0.34682 0.80439 0.40333 0.0
C2027 C 0.33795 0.81154 0.37176 0.0
C2028 C 0.36237 0.82083 0.41919 0.0
C2029 C 0.36905 0.84468 0.40381 0.0
C2030 C 0.36103 0.85125 0.37169 0.0
H2031 H 0.40832 0.98149 0.48343 0.0
H2032 H 0.38778 0.94366 0.46686 0.0
C2033 C 0.34596 0.8349 0.35579 0.0
C2034 C 0.38429 0.86328 0.42031 0.0
H2035 H 0.38379 0.89742 0.48797 0.0
C2036 C 0.40546 0.87557 0.40145 0.0
C2037 C 0.3764 0.87127 0.452 0.0
C2038 C 0.35315 0.85971 0.47293 0.0
C2039 C 0.41818 0.8962 0.41244 0.0
C2040 C 0.41048 0.90411 0.44428 0.0
C2041 C 0.38986 0.8913 0.46375 0.0
C2042 C 0.42282 0.92628 0.45692 0.0
C2043 C 0.43874 0.91006 0.38866 0.0
C2044 C 0.44926 0.92897 0.45782 0.0
C2045 C 0.46101 0.95087 0.46604 0.0
C2046 C 0.44656 0.97023 0.4751 0.0
C2047 C 0.41999 0.96699 0.47631 0.0
C2048 C 0.40824 0.94531 0.46702 0.0
H2049 H 0.43671 0.90629 0.36202 0.0
H2050 H 0.43847 0.93013 0.39009 0.0
H2051 H 0.4575 0.90415 0.39544 0.0
H2052 H 0.46093 0.91429 0.45153 0.0
H2053 H 0.48148 0.95255 0.46529 0.0
H2054 H 0.18442 0.27224 0.34137 0.0
H2055 H 0.15801 0.29923 0.37242 0.0
H2056 H 0.21671 0.35763 0.3526 0.0
H2057 H 0.24328 0.33091 0.32173 0.0
H2058 H 0.17194 0.33377 0.43044 0.0
H2059 H 0.14807 0.37805 0.30647 0.0
H2060 H 0.15869 0.3474 0.31092 0.0
H2061 H 0.18086 0.37324 0.31214 0.0
C2062 C 0.19191 0.29068 0.34412 0.0
C2063 C 0.21591 0.29944 0.32881 0.0
C2064 C 0.17682 0.30605 0.36196 0.0
C2065 C 0.18542 0.33041 0.36469 0.0
C2066 C 0.20977 0.33887 0.35077 0.0
H2067 H 0.11084 0.44644 0.46388 0.0
H2068 H 0.14158 0.41723 0.44733 0.0
C2069 C 0.2249 0.32354 0.33309 0.0
C2070 C 0.16808 0.34769 0.37899 0.0
H2071 H 0.13062 0.39356 0.35538 0.0
C2072 C 0.16291 0.34691 0.41415 0.0
C2073 C 0.15634 0.36471 0.35759 0.0
C2074 C 0.16105 0.36599 0.31964 0.0
C2075 C 0.14615 0.3628 0.42845 0.0
C2076 C 0.13437 0.3798 0.40693 0.0
C2077 C 0.13969 0.38054 0.37182 0.0
C2078 C 0.11549 0.3963 0.41985 0.0
C2079 C 0.14069 0.36096 0.46632 0.0
C2080 C 0.09066 0.39426 0.40991 0.0
C2081 C 0.07314 0.41089 0.41921 0.0
C2082 C 0.08007 0.43012 0.43848 0.0
C2083 C 0.10484 0.43186 0.44905 0.0
C2084 C 0.12241 0.41509 0.43978 0.0
H2085 H 0.14742 0.34393 0.47883 0.0
H2086 H 0.15048 0.37683 0.47647 0.0
H2087 H 0.12005 0.36147 0.47312 0.0
H2088 H 0.08493 0.37994 0.39448 0.0
H2089 H 0.05424 0.40885 0.41073 0.0
H2090 H 0.27279 0.19262 0.6806 0.0
H2091 H 0.29901 0.16498 0.65082 0.0
H2092 H 0.36516 0.21347 0.65738 0.0
H2093 H 0.33904 0.24142 0.68708 0.0
H2094 H 0.33737 0.17603 0.58772 0.0
H2095 H 0.37655 0.14292 0.70812 0.0
H2096 H 0.34695 0.1575 0.70719 0.0
H2097 H 0.37643 0.17555 0.69835 0.0
C2098 C 0.29287 0.1976 0.67538 0.0
C2099 C 0.30385 0.21919 0.68643 0.0
C2100 C 0.30779 0.1818 0.65825 0.0
C2101 C 0.334 0.18712 0.65209 0.0
C2102 C 0.34494 0.20903 0.662 0.0
H2103 H 0.45917 0.10291 0.59547 0.0
H2104 H 0.43105 0.13363 0.61277 0.0
C2105 C 0.32998 0.22499 0.67891 0.0
C2106 C 0.35011 0.16894 0.63746 0.0
H2107 H 0.39252 0.12704 0.65867 0.0
C2108 C 0.34948 0.16528 0.60311 0.0
C2109 C 0.3657 0.15489 0.65771 0.0
C2110 C 0.36647 0.15767 0.69496 0.0
C2111 C 0.36465 0.14833 0.58824 0.0
C2112 C 0.38036 0.13428 0.60853 0.0
C2113 C 0.3806 0.13781 0.64302 0.0
C2114 C 0.39747 0.1164 0.59472 0.0
C2115 C 0.36423 0.14618 0.55082 0.0
C2116 C 0.38817 0.09652 0.57814 0.0
C2117 C 0.40443 0.0789 0.56776 0.0
C2118 C 0.43015 0.08061 0.57441 0.0
C2119 C 0.43942 0.10081 0.5903 0.0
C2120 C 0.42333 0.11846 0.60022 0.0
H2121 H 0.3574 0.16285 0.53747 0.0
H2122 H 0.38334 0.14308 0.53936 0.0
H2123 H 0.35111 0.13039 0.5467 0.0
H2124 H 0.36822 0.09421 0.5741 0.0
H2125 H 0.39671 0.06358 0.55553 0.0
H2126 H 0.80814 0.33147 0.73991 0.0
H2127 H 0.84017 0.36217 0.71306 0.0
H2128 H 0.82609 0.3383 0.61552 0.0
H2129 H 0.79306 0.30797 0.64242 0.0
H2130 H 0.88326 0.35637 0.68074 0.0
H2131 H 0.82757 0.41023 0.59189 0.0
H2132 H 0.81272 0.38792 0.62442 0.0
H2133 H 0.82661 0.37828 0.58562 0.0
C2134 C 0.81149 0.33298 0.71264 0.0
C2135 C 0.79783 0.31727 0.69334 0.0
C2136 C 0.82999 0.35056 0.69726 0.0
C2137 C 0.83566 0.35294 0.66207 0.0
C2138 C 0.82181 0.33745 0.64258 0.0
H2139 H 0.95722 0.44506 0.53953 0.0
H2140 H 0.92572 0.41161 0.56059 0.0
C2141 C 0.80291 0.31999 0.658 0.0
C2142 C 0.85691 0.37077 0.64661 0.0
H2143 H 0.87207 0.41954 0.58715 0.0
C2144 C 0.88066 0.37018 0.66032 0.0
C2145 C 0.85388 0.38889 0.61976 0.0
C2146 C 0.82877 0.39158 0.60475 0.0
C2147 C 0.90109 0.3871 0.64834 0.0
C2148 C 0.89795 0.40524 0.62181 0.0
C2149 C 0.87451 0.40559 0.60745 0.0
C2150 C 0.91841 0.42468 0.60972 0.0
C2151 C 0.92601 0.38547 0.66413 0.0
C2152 C 0.92509 0.44309 0.63039 0.0
C2153 C 0.94299 0.46237 0.61836 0.0
C2154 C 0.95492 0.46359 0.58543 0.0
C2155 C 0.94883 0.44459 0.56521 0.0
C2156 C 0.93061 0.42552 0.57709 0.0
H2157 H 0.92704 0.36774 0.67956 0.0
H2158 H 0.94207 0.38775 0.64436 0.0
H2159 H 0.92832 0.40045 0.68081 0.0
H2160 H 0.91584 0.44298 0.65555 0.0
H2161 H 0.94695 0.47674 0.63455 0.0
H2162 H 0.23109 0.65083 0.64348 0.0
H2163 H 0.20561 0.62071 0.61609 0.0
H2164 H 0.15812 0.67728 0.58144 0.0
H2165 H 0.1839 0.70745 0.60769 0.0
H2166 H 0.15576 0.60872 0.63423 0.0
H2167 H 0.16756 0.64118 0.49818 0.0
H2168 H 0.18846 0.65212 0.52819 0.0
H2169 H 0.15822 0.6648 0.52381 0.0
C2170 C 0.21576 0.65696 0.62901 0.0
C2171 C 0.20943 0.68147 0.62781 0.0
C2172 C 0.20108 0.63971 0.61364 0.0
C2173 C 0.18001 0.64674 0.59657 0.0
C2174 C 0.1745 0.67145 0.59392 0.0
H2175 H 0.04533 0.55251 0.57093 0.0
H2176 H 0.07529 0.58396 0.5883 0.0
C2177 C 0.18915 0.68866 0.60919 0.0
C2178 C 0.16226 0.62804 0.5846 0.0
H2179 H 0.13184 0.61286 0.51602 0.0
C2180 C 0.15073 0.60947 0.60828 0.0
C2181 C 0.15572 0.62901 0.55074 0.0
C2182 C 0.16833 0.64771 0.5237 0.0
C2183 C 0.13259 0.59206 0.59917 0.0
C2184 C 0.12537 0.5936 0.56561 0.0
C2185 C 0.13717 0.61192 0.54181 0.0
C2186 C 0.1066 0.57556 0.55424 0.0
C2187 C 0.12164 0.57197 0.62543 0.0
C2188 C 0.11398 0.56106 0.52853 0.0
C2189 C 0.09696 0.54326 0.51849 0.0
C2190 C 0.07207 0.5396 0.53384 0.0
C2191 C 0.06441 0.55469 0.55886 0.0
C2192 C 0.08155 0.57256 0.56894 0.0
H2193 H 0.13357 0.56984 0.64716 0.0
H2194 H 0.10254 0.57653 0.63521 0.0
H2195 H 0.11965 0.55417 0.61438 0.0
H2196 H 0.13313 0.5632 0.51664 0.0
H2197 H 0.10348 0.53219 0.49886 0.0
loop_
_geom_bond_atom_site_label_1
_geom_bond_atom_site_label_2
_geom_bond_distance
_geom_bond_site_symmetry_2
_ccdc_geom_bond_type
C0 O16 1.251 . S
C0 O18 1.254 . S
N1 C2 1.333 . S
N1 C6 1.307 . S
N1 Zn7 2.020 . S
C2 N1 1.333 . S
C2 C3 1.379 . S
C2 H20 0.952 . S
C3 C2 1.379 . S
C3 C4 1.390 . S
C3 H30 0.949 . S
C4 C3 1.390 . S
C4 C5 1.357 . S
C5 C4 1.357 . S
C5 C6 1.370 . S
C5 H31 0.950 . S
C6 N1 1.307 . S
C6 C5 1.370 . S
C6 H24 0.948 . S
Zn7 N1 2.020 . S
Zn7 O16 2.039 . S
Zn7 O22 2.034 . S
Zn7 O26 2.025 . S
Zn7 O28 2.024 . S
C8 O27 1.246 . S
C8 O28 1.249 . S
N9 C10 1.307 . S
N9 C11 1.333 . S
N9 Zn15 2.020 . S
C10 N9 1.307 . S
C10 C14 1.370 . S
C10 H21 0.948 . S
C11 N9 1.333 . S
C11 C12 1.379 . S
C11 H19 0.952 . S
C12 C11 1.379 . S
C12 C13 1.390 . S
C12 H32 0.949 . S
C13 C12 1.390 . S
C13 C14 1.357 . S
C14 C10 1.370 . S
C14 C13 1.357 . S
C14 H33 0.950 . S
Zn15 N9 2.020 . S
Zn15 O18 2.025 . S
Zn15 O23 2.024 . S
Zn15 O25 2.039 . S
Zn15 O27 2.034 . S
O16 C0 1.251 . S
O16 Zn7 2.039 . S
C17 O22 1.246 . S
C17 O23 1.249 . S
O18 C0 1.254 . S
O18 Zn15 2.025 . S
H19 C11 0.952 . S
H20 C2 0.952 . S
H21 C10 0.948 . S
O22 Zn7 2.034 . S
O22 C17 1.246 . S
O23 Zn15 2.024 . S
O23 C17 1.249 . S
H24 C6 0.948 . S
O25 Zn15 2.039 . S
O25 C29 1.251 . S
O26 Zn7 2.025 . S
O26 C29 1.254 . S
O27 C8 1.246 . S
O27 Zn15 2.034 . S
O28 Zn7 2.024 . S
O28 C8 1.249 . S
C29 O25 1.251 . S
C29 O26 1.254 . S
H30 C3 0.949 . S
H31 C5 0.950 . S
H32 C12 0.949 . S
H33 C14 0.950 . S
C34 O50 1.251 . S
C34 O52 1.254 . S
N35 C36 1.333 . S
N35 C40 1.307 . S
N35 Zn41 2.020 . S
C36 N35 1.333 . S
C36 C37 1.379 . S
C36 H54 0.952 . S
C37 C36 1.379 . S
C37 C38 1.390 . S
C37 H64 0.949 . S
C38 C37 1.390 . S
C38 C39 1.357 . S
C39 C38 1.357 . S
C39 C40 1.370 . S
C39 H65 0.950 . S
C40 N35 1.307 . S
C40 C39 1.370 . S
C40 H58 0.948 . S
Zn41 N35 2.020 . S
Zn41 O50 2.039 . S
Zn41 O56 2.034 . S
Zn41 O60 2.025 . S
Zn41 O62 2.024 . S
C42 O61 1.246 . S
C42 O62 1.249 . S
N43 C44 1.307 . S
N43 C45 1.333 . S
N43 Zn49 2.020 . S
C44 N43 1.307 . S
C44 C48 1.370 . S
C44 H55 0.948 . S
C45 N43 1.333 . S
C45 C46 1.379 . S
C45 H53 0.952 . S
C46 C45 1.379 . S
C46 C47 1.390 . S
C46 H66 0.949 . S
C47 C46 1.390 . S
C47 C48 1.357 . S
C48 C44 1.370 . S
C48 C47 1.357 . S
C48 H67 0.950 . S
Zn49 N43 2.020 . S
Zn49 O52 2.025 . S
Zn49 O57 2.024 . S
Zn49 O59 2.039 . S
Zn49 O61 2.034 . S
O50 C34 1.251 . S
O50 Zn41 2.039 . S
C51 O56 1.246 . S
C51 O57 1.249 . S
O52 C34 1.254 . S
O52 Zn49 2.025 . S
H53 C45 0.952 . S
H54 C36 0.952 . S
H55 C44 0.948 . S
O56 Zn41 2.034 . S
O56 C51 1.246 . S
O57 Zn49 2.024 . S
O57 C51 1.249 . S
H58 C40 0.948 . S
O59 Zn49 2.039 . S
O59 C63 1.251 . S
O60 Zn41 2.025 . S
O60 C63 1.254 . S
O61 C42 1.246 . S
O61 Zn49 2.034 . S
O62 Zn41 2.024 . S
O62 C42 1.249 . S
C63 O59 1.251 . S
C63 O60 1.254 . S
H64 C37 0.949 . S
H65 C39 0.950 . S
H66 C46 0.949 . S
H67 C48 0.950 . S
C68 O84 1.251 . S
C68 O86 1.254 . S
N69 C70 1.333 . S
N69 C74 1.307 . S
N69 Zn75 2.020 . S
C70 N69 1.333 . S
C70 C71 1.379 . S
C70 H88 0.952 . S
C71 C70 1.379 . S
C71 C72 1.390 . S
C71 H98 0.949 . S
C72 C71 1.390 . S
C72 C73 1.357 . S
C73 C72 1.357 . S
C73 C74 1.370 . S
C73 H99 0.950 . S
C74 N69 1.307 . S
C74 C73 1.370 . S
C74 H92 0.948 . S
Zn75 N69 2.020 . S
Zn75 O84 2.039 . S
Zn75 O90 2.034 . S
Zn75 O94 2.025 . S
Zn75 O96 2.024 . S
C76 O95 1.246 . S
C76 O96 1.249 . S
N77 C78 1.307 . S
N77 C79 1.333 . S
N77 Zn83 2.020 . S
C78 N77 1.307 . S
C78 C82 1.370 . S
C78 H89 0.948 . S
C79 N77 1.333 . S
C79 C80 1.379 . S
C79 H87 0.952 . S
C80 C79 1.379 . S
C80 C81 1.390 . S
C80 H100 0.949 . S
C81 C80 1.390 . S
C81 C82 1.357 . S
C82 C78 1.370 . S
C82 C81 1.357 . S
C82 H101 0.950 . S
Zn83 N77 2.020 . S
Zn83 O86 2.025 . S
Zn83 O91 2.024 . S
Zn83 O93 2.039 . S
Zn83 O95 2.034 . S
O84 C68 1.251 . S
O84 Zn75 2.039 . S
C85 O90 1.246 . S
C85 O91 1.249 . S
O86 C68 1.254 . S
O86 Zn83 2.025 . S
H87 C79 0.952 . S
H88 C70 0.952 . S
H89 C78 0.948 . S
O90 Zn75 2.034 . S
O90 C85 1.246 . S
O91 Zn83 2.024 . S
O91 C85 1.249 . S
H92 C74 0.948 . S
O93 Zn83 2.039 . S
O93 C97 1.251 . S
O94 Zn75 2.025 . S
O94 C97 1.254 . S
O95 C76 1.246 . S
O95 Zn83 2.034 . S
O96 Zn75 2.024 . S
O96 C76 1.249 . S
C97 O93 1.251 . S
C97 O94 1.254 . S
H98 C71 0.949 . S
H99 C73 0.950 . S
H100 C80 0.949 . S
H101 C82 0.950 . S
C102 O118 1.251 . S
C102 O120 1.254 . S
N103 C104 1.333 . S
N103 C108 1.307 . S
N103 Zn109 2.020 . S
C104 N103 1.333 . S
C104 C105 1.379 . S
C104 H122 0.952 . S
C105 C104 1.379 . S
C105 C106 1.390 . S
C105 H132 0.949 . S
C106 C105 1.390 . S
C106 C107 1.357 . S
C107 C106 1.357 . S
C107 C108 1.370 . S
C107 H133 0.950 . S
C108 N103 1.307 . S
C108 C107 1.370 . S
C108 H126 0.948 . S
Zn109 N103 2.020 . S
Zn109 O118 2.039 . S
Zn109 O124 2.034 . S
Zn109 O128 2.025 . S
Zn109 O130 2.024 . S
C110 O129 1.246 . S
C110 O130 1.249 . S
N111 C112 1.307 . S
N111 C113 1.333 . S
N111 Zn117 2.020 . S
C112 N111 1.307 . S
C112 C116 1.370 . S
C112 H123 0.948 . S
C113 N111 1.333 . S
C113 C114 1.379 . S
C113 H121 0.952 . S
C114 C113 1.379 . S
C114 C115 1.390 . S
C114 H134 0.949 . S
C115 C114 1.390 . S
C115 C116 1.357 . S
C116 C112 1.370 . S
C116 C115 1.357 . S
C116 H135 0.950 . S
Zn117 N111 2.020 . S
Zn117 O120 2.025 . S
Zn117 O125 2.024 . S
Zn117 O127 2.039 . S
Zn117 O129 2.034 . S
O118 C102 1.251 . S
O118 Zn109 2.039 . S
C119 O124 1.246 . S
C119 O125 1.249 . S
O120 C102 1.254 . S
O120 Zn117 2.025 . S
H121 C113 0.952 . S
H122 C104 0.952 . S
H123 C112 0.948 . S
O124 Zn109 2.034 . S
O124 C119 1.246 . S
O125 Zn117 2.024 . S
O125 C119 1.249 . S
H126 C108 0.948 . S
O127 Zn117 2.039 . S
O127 C131 1.251 . S
O128 Zn109 2.025 . S
O128 C131 1.254 . S
O129 C110 1.246 . S
O129 Zn117 2.034 . S
O130 Zn109 2.024 . S
O130 C110 1.249 . S
C131 O127 1.251 . S
C131 O128 1.254 . S
H132 C105 0.949 . S
H133 C107 0.950 . S
H134 C114 0.949 . S
H135 C116 0.950 . S
C136 O152 1.251 . S
C136 O154 1.254 . S
N137 C138 1.333 . S
N137 C142 1.307 . S
N137 Zn143 2.020 . S
C138 N137 1.333 . S
C138 C139 1.379 . S
C138 H156 0.952 . S
C139 C138 1.379 . S
C139 C140 1.390 . S
C139 H166 0.949 . S
C140 C139 1.390 . S
C140 C141 1.357 . S
C141 C140 1.357 . S
C141 C142 1.370 . S
C141 H167 0.950 . S
C142 N137 1.307 . S
C142 C141 1.370 . S
C142 H160 0.948 . S
Zn143 N137 2.020 . S
Zn143 O152 2.039 . S
Zn143 O158 2.034 . S
Zn143 O162 2.025 . S
Zn143 O164 2.024 . S
C144 O163 1.246 . S
C144 O164 1.249 . S
N145 C146 1.307 . S
N145 C147 1.333 . S
N145 Zn151 2.020 . S
C146 N145 1.307 . S
C146 C150 1.370 . S
C146 H157 0.948 . S
C147 N145 1.333 . S
C147 C148 1.379 . S
C147 H155 0.952 . S
C148 C147 1.379 . S
C148 C149 1.390 . S
C148 H168 0.949 . S
C149 C148 1.390 . S
C149 C150 1.357 . S
C150 C146 1.370 . S
C150 C149 1.357 . S
C150 H169 0.950 . S
Zn151 N145 2.020 . S
Zn151 O154 2.025 . S
Zn151 O159 2.024 . S
Zn151 O161 2.039 . S
Zn151 O163 2.034 . S
O152 C136 1.251 . S
O152 Zn143 2.039 . S
C153 O158 1.246 . S
C153 O159 1.249 . S
O154 C136 1.254 . S
O154 Zn151 2.025 . S
H155 C147 0.952 . S
H156 C138 0.952 . S
H157 C146 0.948 . S
O158 Zn143 2.034 . S
O158 C153 1.246 . S
O159 Zn151 2.024 . S
O159 C153 1.249 . S
H160 C142 0.948 . S
O161 Zn151 2.039 . S
O161 C165 1.251 . S
O162 Zn143 2.025 . S
O162 C165 1.254 . S
O163 C144 1.246 . S
O163 Zn151 2.034 . S
O164 Zn143 2.024 . S
O164 C144 1.249 . S
C165 O161 1.251 . S
C165 O162 1.254 . S
H166 C139 0.949 . S
H167 C141 0.950 . S
H168 C148 0.949 . S
H169 C150 0.950 . S
C170 O186 1.251 . S
C170 O188 1.254 . S
N171 C172 1.333 . S
N171 C176 1.307 . S
N171 Zn177 2.020 . S
C172 N171 1.333 . S
C172 C173 1.379 . S
C172 H190 0.952 . S
C173 C172 1.379 . S
C173 C174 1.390 . S
C173 H200 0.949 . S
C174 C173 1.390 . S
C174 C175 1.357 . S
C175 C174 1.357 . S
C175 C176 1.370 . S
C175 H201 0.950 . S
C176 N171 1.307 . S
C176 C175 1.370 . S
C176 H194 0.948 . S
Zn177 N171 2.020 . S
Zn177 O186 2.039 . S
Zn177 O192 2.034 . S
Zn177 O196 2.025 . S
Zn177 O198 2.024 . S
C178 O197 1.246 . S
C178 O198 1.249 . S
N179 C180 1.307 . S
N179 C181 1.333 . S
N179 Zn185 2.020 . S
C180 N179 1.307 . S
C180 C184 1.370 . S
C180 H191 0.948 . S
C181 N179 1.333 . S
C181 C182 1.379 . S
C181 H189 0.952 . S
C182 C181 1.379 . S
C182 C183 1.390 . S
C182 H202 0.949 . S
C183 C182 1.390 . S
C183 C184 1.357 . S
C184 C180 1.370 . S
C184 C183 1.357 . S
C184 H203 0.950 . S
Zn185 N179 2.020 . S
Zn185 O188 2.025 . S
Zn185 O193 2.024 . S
Zn185 O195 2.039 . S
Zn185 O197 2.034 . S
O186 C170 1.251 . S
O186 Zn177 2.039 . S
C187 O192 1.246 . S
C187 O193 1.249 . S
O188 C170 1.254 . S
O188 Zn185 2.025 . S
H189 C181 0.952 . S
H190 C172 0.952 . S
H191 C180 0.948 . S
O192 Zn177 2.034 . S
O192 C187 1.246 . S
O193 Zn185 2.024 . S
O193 C187 1.249 . S
H194 C176 0.948 . S
O195 Zn185 2.039 . S
O195 C199 1.251 . S
O196 Zn177 2.025 . S
O196 C199 1.254 . S
O197 C178 1.246 . S
O197 Zn185 2.034 . S
O198 Zn177 2.024 . S
O198 C178 1.249 . S
C199 O195 1.251 . S
C199 O196 1.254 . S
H200 C173 0.949 . S
H201 C175 0.950 . S
H202 C182 0.949 . S
H203 C184 0.950 . S
C204 O220 1.251 . S
C204 O222 1.254 . S
N205 C206 1.333 . S
N205 C210 1.307 . S
N205 Zn211 2.020 . S
C206 N205 1.333 . S
C206 C207 1.379 . S
C206 H224 0.952 . S
C207 C206 1.379 . S
C207 C208 1.390 . S
C207 H234 0.949 . S
C208 C207 1.390 . S
C208 C209 1.357 . S
C209 C208 1.357 . S
C209 C210 1.370 . S
C209 H235 0.950 . S
C210 N205 1.307 . S
C210 C209 1.370 . S
C210 H228 0.948 . S
Zn211 N205 2.020 . S
Zn211 O220 2.039 . S
Zn211 O226 2.034 . S
Zn211 O230 2.025 . S
Zn211 O232 2.024 . S
C212 O231 1.246 . S
C212 O232 1.249 . S
N213 C214 1.307 . S
N213 C215 1.333 . S
N213 Zn219 2.020 . S
C214 N213 1.307 . S
C214 C218 1.370 . S
C214 H225 0.948 . S
C215 N213 1.333 . S
C215 C216 1.379 . S
C215 H223 0.952 . S
C216 C215 1.379 . S
C216 C217 1.390 . S
C216 H236 0.949 . S
C217 C216 1.390 . S
C217 C218 1.357 . S
C218 C214 1.370 . S
C218 C217 1.357 . S
C218 H237 0.950 . S
Zn219 N213 2.020 . S
Zn219 O222 2.025 . S
Zn219 O227 2.024 . S
Zn219 O229 2.039 . S
Zn219 O231 2.034 . S
O220 C204 1.251 . S
O220 Zn211 2.039 . S
C221 O226 1.246 . S
C221 O227 1.249 . S
O222 C204 1.254 . S
O222 Zn219 2.025 . S
H223 C215 0.952 . S
H224 C206 0.952 . S
H225 C214 0.948 . S
O226 Zn211 2.034 . S
O226 C221 1.246 . S
O227 Zn219 2.024 . S
O227 C221 1.249 . S
H228 C210 0.948 . S
O229 Zn219 2.039 . S
O229 C233 1.251 . S
O230 Zn211 2.025 . S
O230 C233 1.254 . S
O231 C212 1.246 . S
O231 Zn219 2.034 . S
O232 Zn211 2.024 . S
O232 C212 1.249 . S
C233 O229 1.251 . S
C233 O230 1.254 . S
H234 C207 0.949 . S
H235 C209 0.950 . S
H236 C216 0.949 . S
H237 C218 0.950 . S
C238 O254 1.251 . S
C238 O256 1.254 . S
N239 C240 1.333 . S
N239 C244 1.307 . S
N239 Zn245 2.020 . S
C240 N239 1.333 . S
C240 C241 1.379 . S
C240 H258 0.952 . S
C241 C240 1.379 . S
C241 C242 1.390 . S
C241 H268 0.949 . S
C242 C241 1.390 . S
C242 C243 1.357 . S
C243 C242 1.357 . S
C243 C244 1.370 . S
C243 H269 0.950 . S
C244 N239 1.307 . S
C244 C243 1.370 . S
C244 H262 0.948 . S
Zn245 N239 2.020 . S
Zn245 O254 2.039 . S
Zn245 O260 2.034 . S
Zn245 O264 2.025 . S
Zn245 O266 2.024 . S
C246 O265 1.246 . S
C246 O266 1.249 . S
N247 C248 1.307 . S
N247 C249 1.333 . S
N247 Zn253 2.020 . S
C248 N247 1.307 . S
C248 C252 1.370 . S
C248 H259 0.948 . S
C249 N247 1.333 . S
C249 C250 1.379 . S
C249 H257 0.952 . S
C250 C249 1.379 . S
C250 C251 1.390 . S
C250 H270 0.949 . S
C251 C250 1.390 . S
C251 C252 1.357 . S
C252 C248 1.370 . S
C252 C251 1.357 . S
C252 H271 0.950 . S
Zn253 N247 2.020 . S
Zn253 O256 2.025 . S
Zn253 O261 2.024 . S
Zn253 O263 2.039 . S
Zn253 O265 2.034 . S
O254 C238 1.251 . S
O254 Zn245 2.039 . S
C255 O260 1.246 . S
C255 O261 1.249 . S
O256 C238 1.254 . S
O256 Zn253 2.025 . S
H257 C249 0.952 . S
H258 C240 0.952 . S
H259 C248 0.948 . S
O260 Zn245 2.034 . S
O260 C255 1.246 . S
O261 Zn253 2.024 . S
O261 C255 1.249 . S
H262 C244 0.948 . S
O263 Zn253 2.039 . S
O263 C267 1.251 . S
O264 Zn245 2.025 . S
O264 C267 1.254 . S
O265 C246 1.246 . S
O265 Zn253 2.034 . S
O266 Zn245 2.024 . S
O266 C246 1.249 . S
C267 O263 1.251 . S
C267 O264 1.254 . S
H268 C241 0.949 . S
H269 C243 0.950 . S
H270 C250 0.949 . S
H271 C252 0.950 . S
Co272 O275 2.042 . S
Co272 O282 2.264 . S
Co272 O301 2.286 . S
Co272 O302 2.069 . S
Co272 O304 2.015 1_455 S
Co273 O275 2.122 . S
Co273 O281 2.073 . S
Co273 O282 2.327 . S
Co273 O283 1.976 1_455 S
Co274 O275 2.082 1_545 S
Co274 O277 2.092 1_455 S
Co274 O284 2.109 1_445 S
Co274 O285 2.148 . S
Co274 O289 2.114 . S
Co274 O303 2.139 1_445 S
O275 Co272 2.042 . S
O275 Co273 2.122 . S
O275 Co274 2.082 1_565 S
O275 H276 0.980 . S
H276 O275 0.980 . S
O277 Co274 2.092 1_655 S
O277 Co278 2.042 . S
O277 Co279 2.122 . S
O277 H280 0.980 . S
Co278 O277 2.042 . S
Co278 O286 2.286 . S
Co278 O287 2.069 . S
Co278 O288 2.015 1_655 S
Co278 O291 2.264 . S
Co279 O277 2.122 . S
Co279 O290 1.976 1_655 S
Co279 O291 2.327 . S
Co279 O292 2.073 . S
H280 O277 0.980 . S
O281 Co273 2.073 . S
O281 C296 1.245 . S
O282 Co272 2.264 . S
O282 Co273 2.327 . S
O282 C296 1.257 . S
O283 Co273 1.976 1_655 S
O283 C295 1.251 . S
O284 Co274 2.109 1_665 S
O284 C295 1.274 . S
O285 Co274 2.148 . S
O285 C298 1.246 . S
O286 Co278 2.286 . S
O286 C297 1.259 . S
O287 Co278 2.069 . S
O287 C297 1.289 . S
O288 Co278 2.015 1_455 S
O288 C298 1.257 . S
O289 Co274 2.114 . S
O289 C299 1.274 . S
O290 Co279 1.976 1_455 S
O290 C299 1.251 . S
O291 Co278 2.264 . S
O291 Co279 2.327 . S
O291 C300 1.257 . S
O292 Co279 2.073 . S
O292 C300 1.245 . S
C293 O301 1.259 . S
C293 O302 1.289 . S
C294 O303 1.246 . S
C294 O304 1.257 . S
C295 O283 1.251 . S
C295 O284 1.274 . S
C296 O281 1.245 . S
C296 O282 1.257 . S
C297 O286 1.259 . S
C297 O287 1.289 . S
C298 O285 1.246 . S
C298 O288 1.257 . S
C299 O289 1.274 . S
C299 O290 1.251 . S
C300 O291 1.257 . S
C300 O292 1.245 . S
O301 Co272 2.286 . S
O301 C293 1.259 . S
O302 Co272 2.069 . S
O302 C293 1.289 . S
O303 Co274 2.139 1_665 S
O303 C294 1.246 . S
O304 Co272 2.015 1_655 S
O304 C294 1.257 . S
Co305 O308 2.042 1_556 S
Co305 O315 2.264 1_556 S
Co305 O334 2.286 . S
Co305 O335 2.069 . S
Co305 O337 2.015 . S
Co306 O308 2.122 . S
Co306 O314 2.073 . S
Co306 O315 2.327 . S
Co306 O316 1.976 . S
Co307 O308 2.082 1_545 S
Co307 O310 2.092 1_554 S
Co307 O317 2.109 1_545 S
Co307 O318 2.148 . S
Co307 O322 2.114 1_554 S
Co307 O336 2.139 1_544 S
O308 Co305 2.042 1_554 S
O308 Co306 2.122 . S
O308 Co307 2.082 1_565 S
O308 H309 0.980 . S
H309 O308 0.980 . S
O310 Co307 2.092 1_556 S
O310 Co311 2.042 1_556 S
O310 Co312 2.122 . S
O310 H313 0.980 . S
Co311 O310 2.042 1_554 S
Co311 O319 2.286 . S
Co311 O320 2.069 . S
Co311 O321 2.015 . S
Co311 O324 2.264 1_554 S
Co312 O310 2.122 . S
Co312 O323 1.976 . S
Co312 O324 2.327 . S
Co312 O325 2.073 . S
H313 O310 0.980 . S
O314 Co306 2.073 . S
O314 C329 1.245 . S
O315 Co305 2.264 1_554 S
O315 Co306 2.327 . S
O315 C329 1.257 . S
O316 Co306 1.976 . S
O316 C328 1.251 . S
O317 Co307 2.109 1_565 S
O317 C328 1.274 . S
O318 Co307 2.148 . S
O318 C331 1.246 . S
O319 Co311 2.286 . S
O319 C330 1.259 . S
O320 Co311 2.069 . S
O320 C330 1.289 . S
O321 Co311 2.015 . S
O321 C331 1.257 . S
O322 Co307 2.114 1_556 S
O322 C332 1.274 . S
O323 Co312 1.976 . S
O323 C332 1.251 . S
O324 Co311 2.264 1_556 S
O324 Co312 2.327 . S
O324 C333 1.257 . S
O325 Co312 2.073 . S
O325 C333 1.245 . S
C326 O334 1.259 . S
C326 O335 1.289 . S
C327 O336 1.246 . S
C327 O337 1.257 . S
C328 O316 1.251 . S
C328 O317 1.274 . S
C329 O314 1.245 . S
C329 O315 1.257 . S
C330 O319 1.259 . S
C330 O320 1.289 . S
C331 O318 1.246 . S
C331 O321 1.257 . S
C332 O322 1.274 . S
C332 O323 1.251 . S
C333 O324 1.257 . S
C333 O325 1.245 . S
O334 Co305 2.286 . S
O334 C326 1.259 . S
O335 Co305 2.069 . S
O335 C326 1.289 . S
O336 Co307 2.139 1_566 S
O336 C327 1.246 . S
O337 Co305 2.015 . S
O337 C327 1.257 . S
Co338 O341 2.042 1_556 S
Co338 O348 2.264 1_556 S
Co338 O367 2.286 . S
Co338 O368 2.069 . S
Co338 O370 2.015 1_455 S
Co339 O341 2.122 . S
Co339 O347 2.073 . S
Co339 O348 2.327 . S
Co339 O349 1.976 1_455 S
Co340 O341 2.087 . S
Co340 O343 2.087 1_454 S
Co340 O350 2.111 1_455 S
Co340 O351 2.143 . S
Co340 O355 2.111 1_554 S
Co340 O369 2.143 1_454 S
O341 Co338 2.042 1_554 S
O341 Co339 2.122 . S
O341 Co340 2.087 . S
O341 H342 0.980 . S
H342 O341 0.980 . S
O343 Co340 2.087 1_656 S
O343 Co344 2.042 1_556 S
O343 Co345 2.122 . S
O343 H346 0.980 . S
Co344 O343 2.042 1_554 S
Co344 O352 2.286 . S
Co344 O353 2.069 . S
Co344 O354 2.015 1_655 S
Co344 O357 2.264 1_554 S
Co345 O343 2.122 . S
Co345 O356 1.976 1_655 S
Co345 O357 2.327 . S
Co345 O358 2.073 . S
H346 O343 0.980 . S
O347 Co339 2.073 . S
O347 C362 1.245 . S
O348 Co338 2.264 1_554 S
O348 Co339 2.327 . S
O348 C362 1.257 . S
O349 Co339 1.976 1_655 S
O349 C361 1.251 . S
O350 Co340 2.111 1_655 S
O350 C361 1.274 . S
O351 Co340 2.143 . S
O351 C364 1.246 . S
O352 Co344 2.286 . S
O352 C363 1.259 . S
O353 Co344 2.069 . S
O353 C363 1.289 . S
O354 Co344 2.015 1_455 S
O354 C364 1.257 . S
O355 Co340 2.111 1_556 S
O355 C365 1.274 . S
O356 Co345 1.976 1_455 S
O356 C365 1.251 . S
O357 Co344 2.264 1_556 S
O357 Co345 2.327 . S
O357 C366 1.257 . S
O358 Co345 2.073 . S
O358 C366 1.245 . S
C359 O367 1.259 . S
C359 O368 1.289 . S
C360 O369 1.246 . S
C360 O370 1.257 . S
C361 O349 1.251 . S
C361 O350 1.274 . S
C362 O347 1.245 . S
C362 O348 1.257 . S
C363 O352 1.259 . S
C363 O353 1.289 . S
C364 O351 1.246 . S
C364 O354 1.257 . S
C365 O355 1.274 . S
C365 O356 1.251 . S
C366 O357 1.257 . S
C366 O358 1.245 . S
O367 Co338 2.286 . S
O367 C359 1.259 . S
O368 Co338 2.069 . S
O368 C359 1.289 . S
O369 Co340 2.143 1_656 S
O369 C360 1.246 . S
O370 Co338 2.015 1_655 S
O370 C360 1.257 . S
Co371 O374 2.042 1_556 S
Co371 O381 2.264 1_556 S
Co371 O400 2.286 . S
Co371 O401 2.069 . S
Co371 O403 2.015 . S
Co372 O374 2.122 . S
Co372 O380 2.073 . S
Co372 O381 2.327 . S
Co372 O382 1.976 . S
Co373 O374 2.087 . S
Co373 O376 2.087 1_554 S
Co373 O383 2.111 . S
Co373 O384 2.143 . S
Co373 O388 2.111 1_554 S
Co373 O402 2.143 1_554 S
O374 Co371 2.042 1_554 S
O374 Co372 2.122 . S
O374 Co373 2.087 . S
O374 H375 0.980 . S
H375 O374 0.980 . S
O376 Co373 2.087 1_556 S
O376 Co377 2.042 1_556 S
O376 Co378 2.122 . S
O376 H379 0.980 . S
Co377 O376 2.042 1_554 S
Co377 O385 2.286 . S
Co377 O386 2.069 . S
Co377 O387 2.015 . S
Co377 O390 2.264 1_554 S
Co378 O376 2.122 . S
Co378 O389 1.976 . S
Co378 O390 2.327 . S
Co378 O391 2.073 . S
H379 O376 0.980 . S
O380 Co372 2.073 . S
O380 C395 1.245 . S
O381 Co371 2.264 1_554 S
O381 Co372 2.327 . S
O381 C395 1.257 . S
O382 Co372 1.976 . S
O382 C394 1.251 . S
O383 Co373 2.111 . S
O383 C394 1.274 . S
O384 Co373 2.143 . S
O384 C397 1.246 . S
O385 Co377 2.286 . S
O385 C396 1.259 . S
O386 Co377 2.069 . S
O386 C396 1.289 . S
O387 Co377 2.015 . S
O387 C397 1.257 . S
O388 Co373 2.111 1_556 S
O388 C398 1.274 . S
O389 Co378 1.976 . S
O389 C398 1.251 . S
O390 Co377 2.264 1_556 S
O390 Co378 2.327 . S
O390 C399 1.257 . S
O391 Co378 2.073 . S
O391 C399 1.245 . S
C392 O400 1.259 . S
C392 O401 1.289 . S
C393 O402 1.246 . S
C393 O403 1.257 . S
C394 O382 1.251 . S
C394 O383 1.274 . S
C395 O380 1.245 . S
C395 O381 1.257 . S
C396 O385 1.259 . S
C396 O386 1.289 . S
C397 O384 1.246 . S
C397 O387 1.257 . S
C398 O388 1.274 . S
C398 O389 1.251 . S
C399 O390 1.257 . S
C399 O391 1.245 . S
O400 Co371 2.286 . S
O400 C392 1.259 . S
O401 Co371 2.069 . S
O401 C392 1.289 . S
O402 Co373 2.143 1_556 S
O402 C393 1.246 . S
O403 Co371 2.015 . S
O403 C393 1.257 . S
Co404 O407 2.042 . S
Co404 O414 2.264 . S
Co404 O433 2.286 . S
Co404 O434 2.069 . S
Co404 O436 2.015 . S
Co405 O407 2.122 . S
Co405 O413 2.073 . S
Co405 O414 2.327 . S
Co405 O415 1.976 . S
Co406 O407 2.087 . S
Co406 O409 2.087 1_455 S
Co406 O416 2.111 . S
Co406 O417 2.143 1_455 S
Co406 O421 2.111 1_455 S
Co406 O435 2.143 . S
O407 Co404 2.042 . S
O407 Co405 2.122 . S
O407 Co406 2.087 . S
O407 H408 0.980 . S
H408 O407 0.980 . S
O409 Co406 2.087 1_655 S
O409 Co410 2.042 . S
O409 Co411 2.122 . S
O409 H412 0.980 . S
Co410 O409 2.042 . S
Co410 O418 2.286 . S
Co410 O419 2.069 . S
Co410 O420 2.015 . S
Co410 O423 2.264 . S
Co411 O409 2.122 . S
Co411 O422 1.976 . S
Co411 O423 2.327 . S
Co411 O424 2.073 . S
H412 O409 0.980 . S
O413 Co405 2.073 . S
O413 C428 1.245 . S
O414 Co404 2.264 . S
O414 Co405 2.327 . S
O414 C428 1.257 . S
O415 Co405 1.976 . S
O415 C427 1.251 . S
O416 Co406 2.111 . S
O416 C427 1.274 . S
O417 Co406 2.143 1_655 S
O417 C430 1.246 . S
O418 Co410 2.286 . S
O418 C429 1.259 . S
O419 Co410 2.069 . S
O419 C429 1.289 . S
O420 Co410 2.015 . S
O420 C430 1.257 . S
O421 Co406 2.111 1_655 S
O421 C431 1.274 . S
O422 Co411 1.976 . S
O422 C431 1.251 . S
O423 Co410 2.264 . S
O423 Co411 2.327 . S
O423 C432 1.257 . S
O424 Co411 2.073 . S
O424 C432 1.245 . S
C425 O433 1.259 . S
C425 O434 1.289 . S
C426 O435 1.246 . S
C426 O436 1.257 . S
C427 O415 1.251 . S
C427 O416 1.274 . S
C428 O413 1.245 . S
C428 O414 1.257 . S
C429 O418 1.259 . S
C429 O419 1.289 . S
C430 O417 1.246 . S
C430 O420 1.257 . S
C431 O421 1.274 . S
C431 O422 1.251 . S
C432 O423 1.257 . S
C432 O424 1.245 . S
O433 Co404 2.286 . S
O433 C425 1.259 . S
O434 Co404 2.069 . S
O434 C425 1.289 . S
O435 Co406 2.143 . S
O435 C426 1.246 . S
O436 Co404 2.015 . S
O436 C426 1.257 . S
Co437 O440 2.042 . S
Co437 O447 2.264 . S
Co437 O466 2.286 . S
Co437 O467 2.069 . S
Co437 O469 2.015 1_565 S
Co438 O440 2.122 . S
Co438 O446 2.073 . S
Co438 O447 2.327 . S
Co438 O448 1.976 1_565 S
Co439 O440 2.082 1_545 S
Co439 O442 2.092 . S
Co439 O449 2.116 . S
Co439 O450 2.140 1_545 S
Co439 O454 2.107 1_545 S
Co439 O468 2.147 . S
O440 Co437 2.042 . S
O440 Co438 2.122 . S
O440 Co439 2.082 1_565 S
O440 H441 0.980 . S
H441 O440 0.980 . S
O442 Co439 2.092 . S
O442 Co443 2.042 . S
O442 Co444 2.122 . S
O442 H445 0.980 . S
Co443 O442 2.042 . S
Co443 O451 2.286 . S
Co443 O452 2.069 . S
Co443 O453 2.015 1_545 S
Co443 O456 2.264 . S
Co444 O442 2.122 . S
Co444 O455 1.976 1_545 S
Co444 O456 2.327 . S
Co444 O457 2.073 . S
H445 O442 0.980 . S
O446 Co438 2.073 . S
O446 C461 1.245 . S
O447 Co437 2.264 . S
O447 Co438 2.327 . S
O447 C461 1.257 . S
O448 Co438 1.976 1_545 S
O448 C460 1.251 . S
O449 Co439 2.116 . S
O449 C460 1.274 . S
O450 Co439 2.140 1_565 S
O450 C463 1.246 . S
O451 Co443 2.286 . S
O451 C462 1.259 . S
O452 Co443 2.069 . S
O452 C462 1.289 . S
O453 Co443 2.015 1_565 S
O453 C463 1.257 . S
O454 Co439 2.107 1_565 S
O454 C464 1.274 . S
O455 Co444 1.976 1_565 S
O455 C464 1.251 . S
O456 Co443 2.264 . S
O456 Co444 2.327 . S
O456 C465 1.257 . S
O457 Co444 2.073 . S
O457 C465 1.245 . S
C458 O466 1.259 . S
C458 O467 1.289 . S
C459 O468 1.246 . S
C459 O469 1.257 . S
C460 O448 1.251 . S
C460 O449 1.274 . S
C461 O446 1.245 . S
C461 O447 1.257 . S
C462 O451 1.259 . S
C462 O452 1.289 . S
C463 O450 1.246 . S
C463 O453 1.257 . S
C464 O454 1.274 . S
C464 O455 1.251 . S
C465 O456 1.257 . S
C465 O457 1.245 . S
O466 Co437 2.286 . S
O466 C458 1.259 . S
O467 Co437 2.069 . S
O467 C458 1.289 . S
O468 Co439 2.147 . S
O468 C459 1.246 . S
O469 Co437 2.015 1_545 S
O469 C459 1.257 . S
H470 C478 0.929 . S
H471 C480 0.930 . S
H472 C482 0.930 . S
H473 C485 0.929 . S
H474 C488 0.930 . S
H475 C490 0.960 . S
H476 C490 0.960 . S
H477 C490 0.960 . S
C478 H470 0.929 . S
C478 C479 1.377 . S
C478 C480 1.384 . S
C479 C478 1.377 . S
C479 C485 1.390 . S
C480 H471 0.930 . S
C480 C478 1.384 . S
C480 C481 1.372 . S
C481 C480 1.372 . S
C481 C482 1.400 . S
C481 C486 1.490 . S
C482 H472 0.930 . S
C482 C481 1.400 . S
C482 C485 1.386 . S
H483 C499 0.930 . S
H484 C500 0.931 . S
C485 H473 0.929 . S
C485 C479 1.390 . S
C485 C482 1.386 . S
C486 C481 1.490 . S
C486 C488 1.395 . S
C486 C489 1.403 . S
H487 C493 0.930 . S
C488 H474 0.930 . S
C488 C486 1.395 . S
C488 C491 1.403 . S
C489 C486 1.403 . S
C489 C490 1.524 . S
C489 C493 1.400 . S
C490 H475 0.960 . S
C490 H476 0.960 . S
C490 H477 0.960 . S
C490 C489 1.524 . S
C491 C488 1.403 . S
C491 C492 1.392 . S
C491 C495 1.495 . S
C492 C491 1.392 . S
C492 C493 1.385 . S
C492 C494 1.478 . S
C493 H487 0.930 . S
C493 C489 1.400 . S
C493 C492 1.385 . S
C494 C492 1.478 . S
C494 C496 1.381 . S
C494 C500 1.383 . S
C495 C491 1.495 . S
C495 H501 0.959 . S
C495 H502 0.961 . S
C495 H503 0.960 . S
C496 C494 1.381 . S
C496 C497 1.394 . S
C496 H504 0.930 . S
C497 C496 1.394 . S
C497 C498 1.383 . S
C497 H505 0.929 . S
C498 C497 1.383 . S
C498 C499 1.377 . S
C499 H483 0.930 . S
C499 C498 1.377 . S
C499 C500 1.379 . S
C500 H484 0.931 . S
C500 C494 1.383 . S
C500 C499 1.379 . S
H501 C495 0.959 . S
H502 C495 0.961 . S
H503 C495 0.960 . S
H504 C496 0.930 . S
H505 C497 0.929 . S
H506 C514 0.929 . S
H507 C516 0.930 . S
H508 C518 0.930 . S
H509 C521 0.929 . S
H510 C524 0.930 . S
H511 C526 0.960 . S
H512 C526 0.960 . S
H513 C526 0.960 . S
C514 H506 0.929 . S
C514 C515 1.377 . S
C514 C516 1.384 . S
C515 C514 1.377 . S
C515 C521 1.390 . S
C516 H507 0.930 . S
C516 C514 1.384 . S
C516 C517 1.372 . S
C517 C516 1.372 . S
C517 C518 1.400 . S
C517 C522 1.490 . S
C518 H508 0.930 . S
C518 C517 1.400 . S
C518 C521 1.386 . S
H519 C535 0.930 . S
H520 C536 0.931 . S
C521 H509 0.929 . S
C521 C515 1.390 . S
C521 C518 1.386 . S
C522 C517 1.490 . S
C522 C524 1.395 . S
C522 C525 1.403 . S
H523 C529 0.930 . S
C524 H510 0.930 . S
C524 C522 1.395 . S
C524 C527 1.403 . S
C525 C522 1.403 . S
C525 C526 1.524 . S
C525 C529 1.400 . S
C526 H511 0.960 . S
C526 H512 0.960 . S
C526 H513 0.960 . S
C526 C525 1.524 . S
C527 C524 1.403 . S
C527 C528 1.392 . S
C527 C531 1.495 . S
C528 C527 1.392 . S
C528 C529 1.385 . S
C528 C530 1.478 . S
C529 H523 0.930 . S
C529 C525 1.400 . S
C529 C528 1.385 . S
C530 C528 1.478 . S
C530 C532 1.381 . S
C530 C536 1.383 . S
C531 C527 1.495 . S
C531 H537 0.959 . S
C531 H538 0.961 . S
C531 H539 0.960 . S
C532 C530 1.381 . S
C532 C533 1.394 . S
C532 H540 0.930 . S
C533 C532 1.394 . S
C533 C534 1.383 . S
C533 H541 0.929 . S
C534 C533 1.383 . S
C534 C535 1.377 . S
C535 H519 0.930 . S
C535 C534 1.377 . S
C535 C536 1.379 . S
C536 H520 0.931 . S
C536 C530 1.383 . S
C536 C535 1.379 . S
H537 C531 0.959 . S
H538 C531 0.961 . S
H539 C531 0.960 . S
H540 C532 0.930 . S
H541 C533 0.929 . S
H542 C550 0.929 . S
H543 C552 0.930 . S
H544 C554 0.930 . S
H545 C557 0.929 . S
H546 C560 0.930 . S
H547 C562 0.960 . S
H548 C562 0.960 . S
H549 C562 0.960 . S
C550 H542 0.929 . S
C550 C551 1.377 . S
C550 C552 1.384 . S
C551 C550 1.377 . S
C551 C557 1.390 . S
C552 H543 0.930 . S
C552 C550 1.384 . S
C552 C553 1.372 . S
C553 C552 1.372 . S
C553 C554 1.400 . S
C553 C558 1.490 . S
C554 H544 0.930 . S
C554 C553 1.400 . S
C554 C557 1.386 . S
H555 C571 0.930 . S
H556 C572 0.931 . S
C557 H545 0.929 . S
C557 C551 1.390 . S
C557 C554 1.386 . S
C558 C553 1.490 . S
C558 C560 1.395 . S
C558 C561 1.403 . S
H559 C565 0.930 . S
C560 H546 0.930 . S
C560 C558 1.395 . S
C560 C563 1.403 . S
C561 C558 1.403 . S
C561 C562 1.524 . S
C561 C565 1.400 . S
C562 H547 0.960 . S
C562 H548 0.960 . S
C562 H549 0.960 . S
C562 C561 1.524 . S
C563 C560 1.403 . S
C563 C564 1.392 . S
C563 C567 1.495 . S
C564 C563 1.392 . S
C564 C565 1.385 . S
C564 C566 1.478 . S
C565 H559 0.930 . S
C565 C561 1.400 . S
C565 C564 1.385 . S
C566 C564 1.478 . S
C566 C568 1.381 . S
C566 C572 1.383 . S
C567 C563 1.495 . S
C567 H573 0.959 . S
C567 H574 0.961 . S
C567 H575 0.960 . S
C568 C566 1.381 . S
C568 C569 1.394 . S
C568 H576 0.930 . S
C569 C568 1.394 . S
C569 C570 1.383 . S
C569 H577 0.929 . S
C570 C569 1.383 . S
C570 C571 1.377 . S
C571 H555 0.930 . S
C571 C570 1.377 . S
C571 C572 1.379 . S
C572 H556 0.931 . S
C572 C566 1.383 . S
C572 C571 1.379 . S
H573 C567 0.959 . S
H574 C567 0.961 . S
H575 C567 0.960 . S
H576 C568 0.930 . S
H577 C569 0.929 . S
H578 C586 0.929 . S
H579 C588 0.930 . S
H580 C590 0.930 . S
H581 C593 0.929 . S
H582 C596 0.930 . S
H583 C598 0.960 . S
H584 C598 0.960 . S
H585 C598 0.960 . S
C586 H578 0.929 . S
C586 C587 1.377 . S
C586 C588 1.384 . S
C587 C586 1.377 . S
C587 C593 1.390 . S
C588 H579 0.930 . S
C588 C586 1.384 . S
C588 C589 1.372 . S
C589 C588 1.372 . S
C589 C590 1.400 . S
C589 C594 1.490 . S
C590 H580 0.930 . S
C590 C589 1.400 . S
C590 C593 1.386 . S
H591 C607 0.930 . S
H592 C608 0.931 . S
C593 H581 0.929 . S
C593 C587 1.390 . S
C593 C590 1.386 . S
C594 C589 1.490 . S
C594 C596 1.395 . S
C594 C597 1.403 . S
H595 C601 0.930 . S
C596 H582 0.930 . S
C596 C594 1.395 . S
C596 C599 1.403 . S
C597 C594 1.403 . S
C597 C598 1.524 . S
C597 C601 1.400 . S
C598 H583 0.960 . S
C598 H584 0.960 . S
C598 H585 0.960 . S
C598 C597 1.524 . S
C599 C596 1.403 . S
C599 C600 1.392 . S
C599 C603 1.495 . S
C600 C599 1.392 . S
C600 C601 1.385 . S
C600 C602 1.478 . S
C601 H595 0.930 . S
C601 C597 1.400 . S
C601 C600 1.385 . S
C602 C600 1.478 . S
C602 C604 1.381 . S
C602 C608 1.383 . S
C603 C599 1.495 . S
C603 H609 0.959 . S
C603 H610 0.961 . S
C603 H611 0.960 . S
C604 C602 1.381 . S
C604 C605 1.394 . S
C604 H612 0.930 . S
C605 C604 1.394 . S
C605 C606 1.383 . S
C605 H613 0.929 . S
C606 C605 1.383 . S
C606 C607 1.377 . S
C607 H591 0.930 . S
C607 C606 1.377 . S
C607 C608 1.379 . S
C608 H592 0.931 . S
C608 C602 1.383 . S
C608 C607 1.379 . S
H609 C603 0.959 . S
H610 C603 0.961 . S
H611 C603 0.960 . S
H612 C604 0.930 . S
H613 C605 0.929 . S
H614 C622 0.929 . S
H615 C624 0.930 . S
H616 C626 0.930 . S
H617 C629 0.929 . S
H618 C632 0.930 . S
H619 C634 0.960 . S
H620 C634 0.960 . S
H621 C634 0.960 . S
C622 H614 0.929 . S
C622 C623 1.377 . S
C622 C624 1.384 . S
C623 C622 1.377 . S
C623 C629 1.390 . S
C624 H615 0.930 . S
C624 C622 1.384 . S
C624 C625 1.372 . S
C625 C624 1.372 . S
C625 C626 1.400 . S
C625 C630 1.490 . S
C626 H616 0.930 . S
C626 C625 1.400 . S
C626 C629 1.386 . S
H627 C643 0.930 . S
H628 C644 0.931 . S
C629 H617 0.929 . S
C629 C623 1.390 . S
C629 C626 1.386 . S
C630 C625 1.490 . S
C630 C632 1.395 . S
C630 C633 1.403 . S
H631 C637 0.930 . S
C632 H618 0.930 . S
C632 C630 1.395 . S
C632 C635 1.403 . S
C633 C630 1.403 . S
C633 C634 1.524 . S
C633 C637 1.400 . S
C634 H619 0.960 . S
C634 H620 0.960 . S
C634 H621 0.960 . S
C634 C633 1.524 . S
C635 C632 1.403 . S
C635 C636 1.392 . S
C635 C639 1.495 . S
C636 C635 1.392 . S
C636 C637 1.385 . S
C636 C638 1.478 . S
C637 H631 0.930 . S
C637 C633 1.400 . S
C637 C636 1.385 . S
C638 C636 1.478 . S
C638 C640 1.381 . S
C638 C644 1.383 . S
C639 C635 1.495 . S
C639 H645 0.959 . S
C639 H646 0.961 . S
C639 H647 0.960 . S
C640 C638 1.381 . S
C640 C641 1.394 . S
C640 H648 0.930 . S
C641 C640 1.394 . S
C641 C642 1.383 . S
C641 H649 0.929 . S
C642 C641 1.383 . S
C642 C643 1.377 . S
C643 H627 0.930 . S
C643 C642 1.377 . S
C643 C644 1.379 . S
C644 H628 0.931 . S
C644 C638 1.383 . S
C644 C643 1.379 . S
H645 C639 0.959 . S
H646 C639 0.961 . S
H647 C639 0.960 . S
H648 C640 0.930 . S
H649 C641 0.929 . S
H650 C658 0.929 . S
H651 C660 0.930 . S
H652 C662 0.930 . S
H653 C665 0.929 . S
H654 C668 0.930 . S
H655 C670 0.960 . S
H656 C670 0.960 . S
H657 C670 0.960 . S
C658 H650 0.929 . S
C658 C659 1.377 . S
C658 C660 1.384 . S
C659 C658 1.377 . S
C659 C665 1.390 . S
C660 H651 0.930 . S
C660 C658 1.384 . S
C660 C661 1.372 . S
C661 C660 1.372 . S
C661 C662 1.400 . S
C661 C666 1.490 . S
C662 H652 0.930 . S
C662 C661 1.400 . S
C662 C665 1.386 . S
H663 C679 0.930 . S
H664 C680 0.931 . S
C665 H653 0.929 . S
C665 C659 1.390 . S
C665 C662 1.386 . S
C666 C661 1.490 . S
C666 C668 1.395 . S
C666 C669 1.403 . S
H667 C673 0.930 . S
C668 H654 0.930 . S
C668 C666 1.395 . S
C668 C671 1.403 . S
C669 C666 1.403 . S
C669 C670 1.524 . S
C669 C673 1.400 . S
C670 H655 0.960 . S
C670 H656 0.960 . S
C670 H657 0.960 . S
C670 C669 1.524 . S
C671 C668 1.403 . S
C671 C672 1.392 . S
C671 C675 1.495 . S
C672 C671 1.392 . S
C672 C673 1.385 . S
C672 C674 1.478 . S
C673 H667 0.930 . S
C673 C669 1.400 . S
C673 C672 1.385 . S
C674 C672 1.478 . S
C674 C676 1.381 . S
C674 C680 1.383 . S
C675 C671 1.495 . S
C675 H681 0.959 . S
C675 H682 0.961 . S
C675 H683 0.960 . S
C676 C674 1.381 . S
C676 C677 1.394 . S
C676 H684 0.930 . S
C677 C676 1.394 . S
C677 C678 1.383 . S
C677 H685 0.929 . S
C678 C677 1.383 . S
C678 C679 1.377 . S
C679 H663 0.930 . S
C679 C678 1.377 . S
C679 C680 1.379 . S
C680 H664 0.931 . S
C680 C674 1.383 . S
C680 C679 1.379 . S
H681 C675 0.959 . S
H682 C675 0.961 . S
H683 C675 0.960 . S
H684 C676 0.930 . S
H685 C677 0.929 . S
H686 C694 0.929 . S
H687 C696 0.930 . S
H688 C698 0.930 . S
H689 C701 0.929 . S
H690 C704 0.930 . S
H691 C706 0.960 . S
H692 C706 0.960 . S
H693 C706 0.960 . S
C694 H686 0.929 . S
C694 C695 1.377 . S
C694 C696 1.384 . S
C695 C694 1.377 . S
C695 C701 1.390 . S
C696 H687 0.930 . S
C696 C694 1.384 . S
C696 C697 1.372 . S
C697 C696 1.372 . S
C697 C698 1.400 . S
C697 C702 1.490 . S
C698 H688 0.930 . S
C698 C697 1.400 . S
C698 C701 1.386 . S
H699 C715 0.930 . S
H700 C716 0.931 . S
C701 H689 0.929 . S
C701 C695 1.390 . S
C701 C698 1.386 . S
C702 C697 1.490 . S
C702 C704 1.395 . S
C702 C705 1.403 . S
H703 C709 0.930 . S
C704 H690 0.930 . S
C704 C702 1.395 . S
C704 C707 1.403 . S
C705 C702 1.403 . S
C705 C706 1.524 . S
C705 C709 1.400 . S
C706 H691 0.960 . S
C706 H692 0.960 . S
C706 H693 0.960 . S
C706 C705 1.524 . S
C707 C704 1.403 . S
C707 C708 1.392 . S
C707 C711 1.495 . S
C708 C707 1.392 . S
C708 C709 1.385 . S
C708 C710 1.478 . S
C709 H703 0.930 . S
C709 C705 1.400 . S
C709 C708 1.385 . S
C710 C708 1.478 . S
C710 C712 1.381 . S
C710 C716 1.383 . S
C711 C707 1.495 . S
C711 H717 0.959 . S
C711 H718 0.961 . S
C711 H719 0.960 . S
C712 C710 1.381 . S
C712 C713 1.394 . S
C712 H720 0.930 . S
C713 C712 1.394 . S
C713 C714 1.383 . S
C713 H721 0.929 . S
C714 C713 1.383 . S
C714 C715 1.377 . S
C715 H699 0.930 . S
C715 C714 1.377 . S
C715 C716 1.379 . S
C716 H700 0.931 . S
C716 C710 1.383 . S
C716 C715 1.379 . S
H717 C711 0.959 . S
H718 C711 0.961 . S
H719 C711 0.960 . S
H720 C712 0.930 . S
H721 C713 0.929 . S
H722 C730 0.929 . S
H723 C732 0.930 . S
H724 C734 0.930 . S
H725 C737 0.929 . S
H726 C740 0.930 . S
H727 C742 0.960 . S
H728 C742 0.960 . S
H729 C742 0.960 . S
C730 H722 0.929 . S
C730 C731 1.377 . S
C730 C732 1.384 . S
C731 C730 1.377 . S
C731 C737 1.390 . S
C732 H723 0.930 . S
C732 C730 1.384 . S
C732 C733 1.372 . S
C733 C732 1.372 . S
C733 C734 1.400 . S
C733 C738 1.490 . S
C734 H724 0.930 . S
C734 C733 1.400 . S
C734 C737 1.386 . S
H735 C751 0.930 . S
H736 C752 0.931 . S
C737 H725 0.929 . S
C737 C731 1.390 . S
C737 C734 1.386 . S
C738 C733 1.490 . S
C738 C740 1.395 . S
C738 C741 1.403 . S
H739 C745 0.930 . S
C740 H726 0.930 . S
C740 C738 1.395 . S
C740 C743 1.403 . S
C741 C738 1.403 . S
C741 C742 1.524 . S
C741 C745 1.400 . S
C742 H727 0.960 . S
C742 H728 0.960 . S
C742 H729 0.960 . S
C742 C741 1.524 . S
C743 C740 1.403 . S
C743 C744 1.392 . S
C743 C747 1.495 . S
C744 C743 1.392 . S
C744 C745 1.385 . S
C744 C746 1.478 . S
C745 H739 0.930 . S
C745 C741 1.400 . S
C745 C744 1.385 . S
C746 C744 1.478 . S
C746 C748 1.381 . S
C746 C752 1.383 . S
C747 C743 1.495 . S
C747 H753 0.959 . S
C747 H754 0.961 . S
C747 H755 0.960 . S
C748 C746 1.381 . S
C748 C749 1.394 . S
C748 H756 0.930 . S
C749 C748 1.394 . S
C749 C750 1.383 . S
C749 H757 0.929 . S
C750 C749 1.383 . S
C750 C751 1.377 . S
C751 H735 0.930 . S
C751 C750 1.377 . S
C751 C752 1.379 . S
C752 H736 0.931 . S
C752 C746 1.383 . S
C752 C751 1.379 . S
H753 C747 0.959 . S
H754 C747 0.961 . S
H755 C747 0.960 . S
H756 C748 0.930 . S
H757 C749 0.929 . S
H758 C766 0.929 . S
H759 C768 0.930 . S
H760 C770 0.930 . S
H761 C773 0.929 . S
H762 C776 0.930 . S
H763 C778 0.960 . S
H764 C778 0.960 . S
H765 C778 0.960 . S
C766 H758 0.929 . S
C766 C767 1.377 . S
C766 C768 1.384 . S
C767 C766 1.377 . S
C767 C773 1.390 . S
C768 H759 0.930 . S
C768 C766 1.384 . S
C768 C769 1.372 . S
C769 C768 1.372 . S
C769 C770 1.400 . S
C769 C774 1.490 . S
C770 H760 0.930 . S
C770 C769 1.400 . S
C770 C773 1.386 . S
H771 C787 0.930 . S
H772 C788 0.931 . S
C773 H761 0.929 . S
C773 C767 1.390 . S
C773 C770 1.386 . S
C774 C769 1.490 . S
C774 C776 1.395 . S
C774 C777 1.403 . S
H775 C781 0.930 . S
C776 H762 0.930 . S
C776 C774 1.395 . S
C776 C779 1.403 . S
C777 C774 1.403 . S
C777 C778 1.524 . S
C777 C781 1.400 . S
C778 H763 0.960 . S
C778 H764 0.960 . S
C778 H765 0.960 . S
C778 C777 1.524 . S
C779 C776 1.403 . S
C779 C780 1.392 . S
C779 C783 1.495 . S
C780 C779 1.392 . S
C780 C781 1.385 . S
C780 C782 1.478 . S
C781 H775 0.930 . S
C781 C777 1.400 . S
C781 C780 1.385 . S
C782 C780 1.478 . S
C782 C784 1.381 . S
C782 C788 1.383 . S
C783 C779 1.495 . S
C783 H789 0.959 . S
C783 H790 0.961 . S
C783 H791 0.960 . S
C784 C782 1.381 . S
C784 C785 1.394 . S
C784 H792 0.930 . S
C785 C784 1.394 . S
C785 C786 1.383 . S
C785 H793 0.929 . S
C786 C785 1.383 . S
C786 C787 1.377 . S
C787 H771 0.930 . S
C787 C786 1.377 . S
C787 C788 1.379 . S
C788 H772 0.931 . S
C788 C782 1.383 . S
C788 C787 1.379 . S
H789 C783 0.959 . S
H790 C783 0.961 . S
H791 C783 0.960 . S
H792 C784 0.930 . S
H793 C785 0.929 . S
H794 C802 0.929 . S
H795 C804 0.930 . S
H796 C806 0.930 . S
H797 C809 0.929 . S
H798 C812 0.930 . S
H799 C814 0.960 . S
H800 C814 0.960 . S
H801 C814 0.960 . S
C802 H794 0.929 . S
C802 C803 1.377 . S
C802 C804 1.384 . S
C803 C802 1.377 . S
C803 C809 1.390 . S
C804 H795 0.930 . S
C804 C802 1.384 . S
C804 C805 1.372 . S
C805 C804 1.372 . S
C805 C806 1.400 . S
C805 C810 1.490 . S
C806 H796 0.930 . S
C806 C805 1.400 . S
C806 C809 1.386 . S
H807 C823 0.930 . S
H808 C824 0.931 . S
C809 H797 0.929 . S
C809 C803 1.390 . S
C809 C806 1.386 . S
C810 C805 1.490 . S
C810 C812 1.395 . S
C810 C813 1.403 . S
H811 C817 0.930 . S
C812 H798 0.930 . S
C812 C810 1.395 . S
C812 C815 1.403 . S
C813 C810 1.403 . S
C813 C814 1.524 . S
C813 C817 1.400 . S
C814 H799 0.960 . S
C814 H800 0.960 . S
C814 H801 0.960 . S
C814 C813 1.524 . S
C815 C812 1.403 . S
C815 C816 1.392 . S
C815 C819 1.495 . S
C816 C815 1.392 . S
C816 C817 1.385 . S
C816 C818 1.478 . S
C817 H811 0.930 . S
C817 C813 1.400 . S
C817 C816 1.385 . S
C818 C816 1.478 . S
C818 C820 1.381 . S
C818 C824 1.383 . S
C819 C815 1.495 . S
C819 H825 0.959 . S
C819 H826 0.961 . S
C819 H827 0.960 . S
C820 C818 1.381 . S
C820 C821 1.394 . S
C820 H828 0.930 . S
C821 C820 1.394 . S
C821 C822 1.383 . S
C821 H829 0.929 . S
C822 C821 1.383 . S
C822 C823 1.377 . S
C823 H807 0.930 . S
C823 C822 1.377 . S
C823 C824 1.379 . S
C824 H808 0.931 . S
C824 C818 1.383 . S
C824 C823 1.379 . S
H825 C819 0.959 . S
H826 C819 0.961 . S
H827 C819 0.960 . S
H828 C820 0.930 . S
H829 C821 0.929 . S
H830 C838 0.929 . S
H831 C840 0.930 . S
H832 C842 0.930 . S
H833 C845 0.929 . S
H834 C848 0.930 . S
H835 C850 0.960 . S
H836 C850 0.960 . S
H837 C850 0.960 . S
C838 H830 0.929 . S
C838 C839 1.377 . S
C838 C840 1.384 . S
C839 C838 1.377 . S
C839 C845 1.390 . S
C840 H831 0.930 . S
C840 C838 1.384 . S
C840 C841 1.372 . S
C841 C840 1.372 . S
C841 C842 1.400 . S
C841 C846 1.490 . S
C842 H832 0.930 . S
C842 C841 1.400 . S
C842 C845 1.386 . S
H843 C859 0.930 . S
H844 C860 0.931 . S
C845 H833 0.929 . S
C845 C839 1.390 . S
C845 C842 1.386 . S
C846 C841 1.490 . S
C846 C848 1.395 . S
C846 C849 1.403 . S
H847 C853 0.930 . S
C848 H834 0.930 . S
C848 C846 1.395 . S
C848 C851 1.403 . S
C849 C846 1.403 . S
C849 C850 1.524 . S
C849 C853 1.400 . S
C850 H835 0.960 . S
C850 H836 0.960 . S
C850 H837 0.960 . S
C850 C849 1.524 . S
C851 C848 1.403 . S
C851 C852 1.392 . S
C851 C855 1.495 . S
C852 C851 1.392 . S
C852 C853 1.385 . S
C852 C854 1.478 . S
C853 H847 0.930 . S
C853 C849 1.400 . S
C853 C852 1.385 . S
C854 C852 1.478 . S
C854 C856 1.381 . S
C854 C860 1.383 . S
C855 C851 1.495 . S
C855 H861 0.959 . S
C855 H862 0.961 . S
C855 H863 0.960 . S
C856 C854 1.381 . S
C856 C857 1.394 . S
C856 H864 0.930 . S
C857 C856 1.394 . S
C857 C858 1.383 . S
C857 H865 0.929 . S
C858 C857 1.383 . S
C858 C859 1.377 . S
C859 H843 0.930 . S
C859 C858 1.377 . S
C859 C860 1.379 . S
C860 H844 0.931 . S
C860 C854 1.383 . S
C860 C859 1.379 . S
H861 C855 0.959 . S
H862 C855 0.961 . S
H863 C855 0.960 . S
H864 C856 0.930 . S
H865 C857 0.929 . S
H866 C874 0.929 . S
H867 C876 0.930 . S
H868 C878 0.930 . S
H869 C881 0.929 . S
H870 C884 0.930 . S
H871 C886 0.960 . S
H872 C886 0.960 . S
H873 C886 0.960 . S
C874 H866 0.929 . S
C874 C875 1.377 . S
C874 C876 1.384 . S
C875 C874 1.377 . S
C875 C881 1.390 . S
C876 H867 0.930 . S
C876 C874 1.384 . S
C876 C877 1.372 . S
C877 C876 1.372 . S
C877 C878 1.400 . S
C877 C882 1.490 . S
C878 H868 0.930 . S
C878 C877 1.400 . S
C878 C881 1.386 . S
H879 C895 0.930 . S
H880 C896 0.931 . S
C881 H869 0.929 . S
C881 C875 1.390 . S
C881 C878 1.386 . S
C882 C877 1.490 . S
C882 C884 1.395 . S
C882 C885 1.403 . S
H883 C889 0.930 . S
C884 H870 0.930 . S
C884 C882 1.395 . S
C884 C887 1.403 . S
C885 C882 1.403 . S
C885 C886 1.524 . S
C885 C889 1.400 . S
C886 H871 0.960 . S
C886 H872 0.960 . S
C886 H873 0.960 . S
C886 C885 1.524 . S
C887 C884 1.403 . S
C887 C888 1.392 . S
C887 C891 1.495 . S
C888 C887 1.392 . S
C888 C889 1.385 . S
C888 C890 1.478 . S
C889 H883 0.930 . S
C889 C885 1.400 . S
C889 C888 1.385 . S
C890 C888 1.478 . S
C890 C892 1.381 . S
C890 C896 1.383 . S
C891 C887 1.495 . S
C891 H897 0.959 . S
C891 H898 0.961 . S
C891 H899 0.960 . S
C892 C890 1.381 . S
C892 C893 1.394 . S
C892 H900 0.930 . S
C893 C892 1.394 . S
C893 C894 1.383 . S
C893 H901 0.929 . S
C894 C893 1.383 . S
C894 C895 1.377 . S
C895 H879 0.930 . S
C895 C894 1.377 . S
C895 C896 1.379 . S
C896 H880 0.931 . S
C896 C890 1.383 . S
C896 C895 1.379 . S
H897 C891 0.959 . S
H898 C891 0.961 . S
H899 C891 0.960 . S
H900 C892 0.930 . S
H901 C893 0.929 . S
H902 C910 0.929 . S
H903 C912 0.930 . S
H904 C914 0.930 . S
H905 C917 0.929 . S
H906 C920 0.930 . S
H907 C922 0.960 . S
H908 C922 0.960 . S
H909 C922 0.960 . S
C910 H902 0.929 . S
C910 C911 1.377 . S
C910 C912 1.384 . S
C911 C910 1.377 . S
C911 C917 1.390 . S
C912 H903 0.930 . S
C912 C910 1.384 . S
C912 C913 1.372 . S
C913 C912 1.372 . S
C913 C914 1.400 . S
C913 C918 1.490 . S
C914 H904 0.930 . S
C914 C913 1.400 . S
C914 C917 1.386 . S
H915 C931 0.930 . S
H916 C932 0.931 . S
C917 H905 0.929 . S
C917 C911 1.390 . S
C917 C914 1.386 . S
C918 C913 1.490 . S
C918 C920 1.395 . S
C918 C921 1.403 . S
H919 C925 0.930 . S
C920 H906 0.930 . S
C920 C918 1.395 . S
C920 C923 1.403 . S
C921 C918 1.403 . S
C921 C922 1.524 . S
C921 C925 1.400 . S
C922 H907 0.960 . S
C922 H908 0.960 . S
C922 H909 0.960 . S
C922 C921 1.524 . S
C923 C920 1.403 . S
C923 C924 1.392 . S
C923 C927 1.495 . S
C924 C923 1.392 . S
C924 C925 1.385 . S
C924 C926 1.478 . S
C925 H919 0.930 . S
C925 C921 1.400 . S
C925 C924 1.385 . S
C926 C924 1.478 . S
C926 C928 1.381 . S
C926 C932 1.383 . S
C927 C923 1.495 . S
C927 H933 0.959 . S
C927 H934 0.961 . S
C927 H935 0.960 . S
C928 C926 1.381 . S
C928 C929 1.394 . S
C928 H936 0.930 . S
C929 C928 1.394 . S
C929 C930 1.383 . S
C929 H937 0.929 . S
C930 C929 1.383 . S
C930 C931 1.377 . S
C931 H915 0.930 . S
C931 C930 1.377 . S
C931 C932 1.379 . S
C932 H916 0.931 . S
C932 C926 1.383 . S
C932 C931 1.379 . S
H933 C927 0.959 . S
H934 C927 0.961 . S
H935 C927 0.960 . S
H936 C928 0.930 . S
H937 C929 0.929 . S
H938 C946 0.929 . S
H939 C948 0.930 . S
H940 C950 0.930 . S
H941 C953 0.929 . S
H942 C956 0.930 . S
H943 C958 0.960 . S
H944 C958 0.960 . S
H945 C958 0.960 . S
C946 H938 0.929 . S
C946 C947 1.377 . S
C946 C948 1.384 . S
C947 C946 1.377 . S
C947 C953 1.390 . S
C948 H939 0.930 . S
C948 C946 1.384 . S
C948 C949 1.372 . S
C949 C948 1.372 . S
C949 C950 1.400 . S
C949 C954 1.490 . S
C950 H940 0.930 . S
C950 C949 1.400 . S
C950 C953 1.386 . S
H951 C967 0.930 . S
H952 C968 0.931 . S
C953 H941 0.929 . S
C953 C947 1.390 . S
C953 C950 1.386 . S
C954 C949 1.490 . S
C954 C956 1.395 . S
C954 C957 1.403 . S
H955 C961 0.930 . S
C956 H942 0.930 . S
C956 C954 1.395 . S
C956 C959 1.403 . S
C957 C954 1.403 . S
C957 C958 1.524 . S
C957 C961 1.400 . S
C958 H943 0.960 . S
C958 H944 0.960 . S
C958 H945 0.960 . S
C958 C957 1.524 . S
C959 C956 1.403 . S
C959 C960 1.392 . S
C959 C963 1.495 . S
C960 C959 1.392 . S
C960 C961 1.385 . S
C960 C962 1.478 . S
C961 H955 0.930 . S
C961 C957 1.400 . S
C961 C960 1.385 . S
C962 C960 1.478 . S
C962 C964 1.381 . S
C962 C968 1.383 . S
C963 C959 1.495 . S
C963 H969 0.959 . S
C963 H970 0.961 . S
C963 H971 0.960 . S
C964 C962 1.381 . S
C964 C965 1.394 . S
C964 H972 0.930 . S
C965 C964 1.394 . S
C965 C966 1.383 . S
C965 H973 0.929 . S
C966 C965 1.383 . S
C966 C967 1.377 . S
C967 H951 0.930 . S
C967 C966 1.377 . S
C967 C968 1.379 . S
C968 H952 0.931 . S
C968 C962 1.383 . S
C968 C967 1.379 . S
H969 C963 0.959 . S
H970 C963 0.961 . S
H971 C963 0.960 . S
H972 C964 0.930 . S
H973 C965 0.929 . S
H974 C982 0.929 . S
H975 C984 0.930 . S
H976 C986 0.930 . S
H977 C989 0.929 . S
H978 C992 0.930 . S
H979 C994 0.960 . S
H980 C994 0.960 . S
H981 C994 0.960 . S
C982 H974 0.929 . S
C982 C983 1.377 . S
C982 C984 1.384 . S
C983 C982 1.377 . S
C983 C989 1.390 . S
C984 H975 0.930 . S
C984 C982 1.384 . S
C984 C985 1.372 . S
C985 C984 1.372 . S
C985 C986 1.400 . S
C985 C990 1.490 . S
C986 H976 0.930 . S
C986 C985 1.400 . S
C986 C989 1.386 . S
H987 C1003 0.930 . S
H988 C1004 0.931 . S
C989 H977 0.929 . S
C989 C983 1.390 . S
C989 C986 1.386 . S
C990 C985 1.490 . S
C990 C992 1.395 . S
C990 C993 1.403 . S
H991 C997 0.930 . S
C992 H978 0.930 . S
C992 C990 1.395 . S
C992 C995 1.403 . S
C993 C990 1.403 . S
C993 C994 1.524 . S
C993 C997 1.400 . S
C994 H979 0.960 . S
C994 H980 0.960 . S
C994 H981 0.960 . S
C994 C993 1.524 . S
C995 C992 1.403 . S
C995 C996 1.392 . S
C995 C999 1.495 . S
C996 C995 1.392 . S
C996 C997 1.385 . S
C996 C998 1.478 . S
C997 H991 0.930 . S
C997 C993 1.400 . S
C997 C996 1.385 . S
C998 C996 1.478 . S
C998 C1000 1.381 . S
C998 C1004 1.383 . S
C999 C995 1.495 . S
C999 H1005 0.959 . S
C999 H1006 0.961 . S
C999 H1007 0.960 . S
C1000 C998 1.381 . S
C1000 C1001 1.394 . S
C1000 H1008 0.930 . S
C1001 C1000 1.394 . S
C1001 C1002 1.383 . S
C1001 H1009 0.929 . S
C1002 C1001 1.383 . S
C1002 C1003 1.377 . S
C1003 H987 0.930 . S
C1003 C1002 1.377 . S
C1003 C1004 1.379 . S
C1004 H988 0.931 . S
C1004 C998 1.383 . S
C1004 C1003 1.379 . S
H1005 C999 0.959 . S
H1006 C999 0.961 . S
H1007 C999 0.960 . S
H1008 C1000 0.930 . S
H1009 C1001 0.929 . S
H1010 C1018 0.929 . S
H1011 C1020 0.930 . S
H1012 C1022 0.930 . S
H1013 C1025 0.929 . S
H1014 C1028 0.930 . S
H1015 C1030 0.960 . S
H1016 C1030 0.960 . S
H1017 C1030 0.960 . S
C1018 H1010 0.929 . S
C1018 C1019 1.377 . S
C1018 C1020 1.384 . S
C1019 C1018 1.377 . S
C1019 C1025 1.390 . S
C1020 H1011 0.930 . S
C1020 C1018 1.384 . S
C1020 C1021 1.372 . S
C1021 C1020 1.372 . S
C1021 C1022 1.400 . S
C1021 C1026 1.490 . S
C1022 H1012 0.930 . S
C1022 C1021 1.400 . S
C1022 C1025 1.386 . S
H1023 C1039 0.930 . S
H1024 C1040 0.931 . S
C1025 H1013 0.929 . S
C1025 C1019 1.390 . S
C1025 C1022 1.386 . S
C1026 C1021 1.490 . S
C1026 C1028 1.395 . S
C1026 C1029 1.403 . S
H1027 C1033 0.930 . S
C1028 H1014 0.930 . S
C1028 C1026 1.395 . S
C1028 C1031 1.403 . S
C1029 C1026 1.403 . S
C1029 C1030 1.524 . S
C1029 C1033 1.400 . S
C1030 H1015 0.960 . S
C1030 H1016 0.960 . S
C1030 H1017 0.960 . S
C1030 C1029 1.524 . S
C1031 C1028 1.403 . S
C1031 C1032 1.392 . S
C1031 C1035 1.495 . S
C1032 C1031 1.392 . S
C1032 C1033 1.385 . S
C1032 C1034 1.478 . S
C1033 H1027 0.930 . S
C1033 C1029 1.400 . S
C1033 C1032 1.385 . S
C1034 C1032 1.478 . S
C1034 C1036 1.381 . S
C1034 C1040 1.383 . S
C1035 C1031 1.495 . S
C1035 H1041 0.959 . S
C1035 H1042 0.961 . S
C1035 H1043 0.960 . S
C1036 C1034 1.381 . S
C1036 C1037 1.394 . S
C1036 H1044 0.930 . S
C1037 C1036 1.394 . S
C1037 C1038 1.383 . S
C1037 H1045 0.929 . S
C1038 C1037 1.383 . S
C1038 C1039 1.377 . S
C1039 H1023 0.930 . S
C1039 C1038 1.377 . S
C1039 C1040 1.379 . S
C1040 H1024 0.931 . S
C1040 C1034 1.383 . S
C1040 C1039 1.379 . S
H1041 C1035 0.959 . S
H1042 C1035 0.961 . S
H1043 C1035 0.960 . S
H1044 C1036 0.930 . S
H1045 C1037 0.929 . S
H1046 C1054 0.929 . S
H1047 C1056 0.930 . S
H1048 C1058 0.930 . S
H1049 C1061 0.929 . S
H1050 C1064 0.930 . S
H1051 C1066 0.960 . S
H1052 C1066 0.960 . S
H1053 C1066 0.960 . S
C1054 H1046 0.929 . S
C1054 C1055 1.377 . S
C1054 C1056 1.384 . S
C1055 C1054 1.377 . S
C1055 C1061 1.390 . S
C1056 H1047 0.930 . S
C1056 C1054 1.384 . S
C1056 C1057 1.372 . S
C1057 C1056 1.372 . S
C1057 C1058 1.400 . S
C1057 C1062 1.490 . S
C1058 H1048 0.930 . S
C1058 C1057 1.400 . S
C1058 C1061 1.386 . S
H1059 C1075 0.930 . S
H1060 C1076 0.931 . S
C1061 H1049 0.929 . S
C1061 C1055 1.390 . S
C1061 C1058 1.386 . S
C1062 C1057 1.490 . S
C1062 C1064 1.395 . S
C1062 C1065 1.403 . S
H1063 C1069 0.930 . S
C1064 H1050 0.930 . S
C1064 C1062 1.395 . S
C1064 C1067 1.403 . S
C1065 C1062 1.403 . S
C1065 C1066 1.524 . S
C1065 C1069 1.400 . S
C1066 H1051 0.960 . S
C1066 H1052 0.960 . S
C1066 H1053 0.960 . S
C1066 C1065 1.524 . S
C1067 C1064 1.403 . S
C1067 C1068 1.392 . S
C1067 C1071 1.495 . S
C1068 C1067 1.392 . S
C1068 C1069 1.385 . S
C1068 C1070 1.478 . S
C1069 H1063 0.930 . S
C1069 C1065 1.400 . S
C1069 C1068 1.385 . S
C1070 C1068 1.478 . S
C1070 C1072 1.381 . S
C1070 C1076 1.383 . S
C1071 C1067 1.495 . S
C1071 H1077 0.959 . S
C1071 H1078 0.961 . S
C1071 H1079 0.960 . S
C1072 C1070 1.381 . S
C1072 C1073 1.394 . S
C1072 H1080 0.930 . S
C1073 C1072 1.394 . S
C1073 C1074 1.383 . S
C1073 H1081 0.929 . S
C1074 C1073 1.383 . S
C1074 C1075 1.377 . S
C1075 H1059 0.930 . S
C1075 C1074 1.377 . S
C1075 C1076 1.379 . S
C1076 H1060 0.931 . S
C1076 C1070 1.383 . S
C1076 C1075 1.379 . S
H1077 C1071 0.959 . S
H1078 C1071 0.961 . S
H1079 C1071 0.960 . S
H1080 C1072 0.930 . S
H1081 C1073 0.929 . S
H1082 C1090 0.929 . S
H1083 C1092 0.930 . S
H1084 C1094 0.930 . S
H1085 C1097 0.929 . S
H1086 C1100 0.930 . S
H1087 C1102 0.960 . S
H1088 C1102 0.960 . S
H1089 C1102 0.960 . S
C1090 H1082 0.929 . S
C1090 C1091 1.377 . S
C1090 C1092 1.384 . S
C1091 C1090 1.377 . S
C1091 C1097 1.390 . S
C1092 H1083 0.930 . S
C1092 C1090 1.384 . S
C1092 C1093 1.372 . S
C1093 C1092 1.372 . S
C1093 C1094 1.400 . S
C1093 C1098 1.490 . S
C1094 H1084 0.930 . S
C1094 C1093 1.400 . S
C1094 C1097 1.386 . S
H1095 C1111 0.930 . S
H1096 C1112 0.931 . S
C1097 H1085 0.929 . S
C1097 C1091 1.390 . S
C1097 C1094 1.386 . S
C1098 C1093 1.490 . S
C1098 C1100 1.395 . S
C1098 C1101 1.403 . S
H1099 C1105 0.930 . S
C1100 H1086 0.930 . S
C1100 C1098 1.395 . S
C1100 C1103 1.403 . S
C1101 C1098 1.403 . S
C1101 C1102 1.524 . S
C1101 C1105 1.400 . S
C1102 H1087 0.960 . S
C1102 H1088 0.960 . S
C1102 H1089 0.960 . S
C1102 C1101 1.524 . S
C1103 C1100 1.403 . S
C1103 C1104 1.392 . S
C1103 C1107 1.495 . S
C1104 C1103 1.392 . S
C1104 C1105 1.385 . S
C1104 C1106 1.478 . S
C1105 H1099 0.930 . S
C1105 C1101 1.400 . S
C1105 C1104 1.385 . S
C1106 C1104 1.478 . S
C1106 C1108 1.381 . S
C1106 C1112 1.383 . S
C1107 C1103 1.495 . S
C1107 H1113 0.959 . S
C1107 H1114 0.961 . S
C1107 H1115 0.960 . S
C1108 C1106 1.381 . S
C1108 C1109 1.394 . S
C1108 H1116 0.930 . S
C1109 C1108 1.394 . S
C1109 C1110 1.383 . S
C1109 H1117 0.929 . S
C1110 C1109 1.383 . S
C1110 C1111 1.377 . S
C1111 H1095 0.930 . S
C1111 C1110 1.377 . S
C1111 C1112 1.379 . S
C1112 H1096 0.931 . S
C1112 C1106 1.383 . S
C1112 C1111 1.379 . S
H1113 C1107 0.959 . S
H1114 C1107 0.961 . S
H1115 C1107 0.960 . S
H1116 C1108 0.930 . S
H1117 C1109 0.929 . S
H1118 C1126 0.929 . S
H1119 C1128 0.930 . S
H1120 C1130 0.930 . S
H1121 C1133 0.929 . S
H1122 C1136 0.930 . S
H1123 C1138 0.960 . S
H1124 C1138 0.960 . S
H1125 C1138 0.960 . S
C1126 H1118 0.929 . S
C1126 C1127 1.377 . S
C1126 C1128 1.384 . S
C1127 C1126 1.377 . S
C1127 C1133 1.390 . S
C1128 H1119 0.930 . S
C1128 C1126 1.384 . S
C1128 C1129 1.372 . S
C1129 C1128 1.372 . S
C1129 C1130 1.400 . S
C1129 C1134 1.490 . S
C1130 H1120 0.930 . S
C1130 C1129 1.400 . S
C1130 C1133 1.386 . S
H1131 C1147 0.930 . S
H1132 C1148 0.931 . S
C1133 H1121 0.929 . S
C1133 C1127 1.390 . S
C1133 C1130 1.386 . S
C1134 C1129 1.490 . S
C1134 C1136 1.395 . S
C1134 C1137 1.403 . S
H1135 C1141 0.930 . S
C1136 H1122 0.930 . S
C1136 C1134 1.395 . S
C1136 C1139 1.403 . S
C1137 C1134 1.403 . S
C1137 C1138 1.524 . S
C1137 C1141 1.400 . S
C1138 H1123 0.960 . S
C1138 H1124 0.960 . S
C1138 H1125 0.960 . S
C1138 C1137 1.524 . S
C1139 C1136 1.403 . S
C1139 C1140 1.392 . S
C1139 C1143 1.495 . S
C1140 C1139 1.392 . S
C1140 C1141 1.385 . S
C1140 C1142 1.478 . S
C1141 H1135 0.930 . S
C1141 C1137 1.400 . S
C1141 C1140 1.385 . S
C1142 C1140 1.478 . S
C1142 C1144 1.381 . S
C1142 C1148 1.383 . S
C1143 C1139 1.495 . S
C1143 H1149 0.959 . S
C1143 H1150 0.961 . S
C1143 H1151 0.960 . S
C1144 C1142 1.381 . S
C1144 C1145 1.394 . S
C1144 H1152 0.930 . S
C1145 C1144 1.394 . S
C1145 C1146 1.383 . S
C1145 H1153 0.929 . S
C1146 C1145 1.383 . S
C1146 C1147 1.377 . S
C1147 H1131 0.930 . S
C1147 C1146 1.377 . S
C1147 C1148 1.379 . S
C1148 H1132 0.931 . S
C1148 C1142 1.383 . S
C1148 C1147 1.379 . S
H1149 C1143 0.959 . S
H1150 C1143 0.961 . S
H1151 C1143 0.960 . S
H1152 C1144 0.930 . S
H1153 C1145 0.929 . S
H1154 C1162 0.929 . S
H1155 C1164 0.930 . S
H1156 C1166 0.930 . S
H1157 C1169 0.929 . S
H1158 C1172 0.930 . S
H1159 C1174 0.960 . S
H1160 C1174 0.960 . S
H1161 C1174 0.960 . S
C1162 H1154 0.929 . S
C1162 C1163 1.377 . S
C1162 C1164 1.384 . S
C1163 C1162 1.377 . S
C1163 C1169 1.390 . S
C1164 H1155 0.930 . S
C1164 C1162 1.384 . S
C1164 C1165 1.372 . S
C1165 C1164 1.372 . S
C1165 C1166 1.400 . S
C1165 C1170 1.490 . S
C1166 H1156 0.930 . S
C1166 C1165 1.400 . S
C1166 C1169 1.386 . S
H1167 C1183 0.930 1_554 S
H1168 C1184 0.931 . S
C1169 H1157 0.929 . S
C1169 C1163 1.390 . S
C1169 C1166 1.386 . S
C1170 C1165 1.490 . S
C1170 C1172 1.395 . S
C1170 C1173 1.403 . S
H1171 C1177 0.930 . S
C1172 H1158 0.930 . S
C1172 C1170 1.395 . S
C1172 C1175 1.403 . S
C1173 C1170 1.403 . S
C1173 C1174 1.524 . S
C1173 C1177 1.400 . S
C1174 H1159 0.960 . S
C1174 H1160 0.960 . S
C1174 H1161 0.960 . S
C1174 C1173 1.524 . S
C1175 C1172 1.403 . S
C1175 C1176 1.392 . S
C1175 C1179 1.495 . S
C1176 C1175 1.392 . S
C1176 C1177 1.385 . S
C1176 C1178 1.478 . S
C1177 H1171 0.930 . S
C1177 C1173 1.400 . S
C1177 C1176 1.385 . S
C1178 C1176 1.478 . S
C1178 C1180 1.381 . S
C1178 C1184 1.383 . S
C1179 C1175 1.495 . S
C1179 H1185 0.959 . S
C1179 H1186 0.961 . S
C1179 H1187 0.960 . S
C1180 C1178 1.381 . S
C1180 C1181 1.394 . S
C1180 H1188 0.930 . S
C1181 C1180 1.394 . S
C1181 C1182 1.383 . S
C1181 H1189 0.929 . S
C1182 C1181 1.383 . S
C1182 C1183 1.377 . S
C1183 H1167 0.930 1_556 S
C1183 C1182 1.377 . S
C1183 C1184 1.379 . S
C1184 H1168 0.931 . S
C1184 C1178 1.383 . S
C1184 C1183 1.379 . S
H1185 C1179 0.959 . S
H1186 C1179 0.961 . S
H1187 C1179 0.960 . S
H1188 C1180 0.930 . S
H1189 C1181 0.929 . S
H1190 C1198 0.929 . S
H1191 C1200 0.930 . S
H1192 C1202 0.930 . S
H1193 C1205 0.929 . S
H1194 C1208 0.930 . S
H1195 C1210 0.960 . S
H1196 C1210 0.960 . S
H1197 C1210 0.960 . S
C1198 H1190 0.929 . S
C1198 C1199 1.377 . S
C1198 C1200 1.384 . S
C1199 C1198 1.377 . S
C1199 C1205 1.390 . S
C1200 H1191 0.930 . S
C1200 C1198 1.384 . S
C1200 C1201 1.372 . S
C1201 C1200 1.372 . S
C1201 C1202 1.400 . S
C1201 C1206 1.490 . S
C1202 H1192 0.930 . S
C1202 C1201 1.400 . S
C1202 C1205 1.386 . S
H1203 C1219 0.930 . S
H1204 C1220 0.931 . S
C1205 H1193 0.929 . S
C1205 C1199 1.390 . S
C1205 C1202 1.386 . S
C1206 C1201 1.490 . S
C1206 C1208 1.395 . S
C1206 C1209 1.403 . S
H1207 C1213 0.930 . S
C1208 H1194 0.930 . S
C1208 C1206 1.395 . S
C1208 C1211 1.403 . S
C1209 C1206 1.403 . S
C1209 C1210 1.524 . S
C1209 C1213 1.400 . S
C1210 H1195 0.960 . S
C1210 H1196 0.960 . S
C1210 H1197 0.960 . S
C1210 C1209 1.524 . S
C1211 C1208 1.403 . S
C1211 C1212 1.392 . S
C1211 C1215 1.495 . S
C1212 C1211 1.392 . S
C1212 C1213 1.385 . S
C1212 C1214 1.478 . S
C1213 H1207 0.930 . S
C1213 C1209 1.400 . S
C1213 C1212 1.385 . S
C1214 C1212 1.478 . S
C1214 C1216 1.381 . S
C1214 C1220 1.383 . S
C1215 C1211 1.495 . S
C1215 H1221 0.959 . S
C1215 H1222 0.961 . S
C1215 H1223 0.960 . S
C1216 C1214 1.381 . S
C1216 C1217 1.394 . S
C1216 H1224 0.930 . S
C1217 C1216 1.394 . S
C1217 C1218 1.383 . S
C1217 H1225 0.929 . S
C1218 C1217 1.383 . S
C1218 C1219 1.377 . S
C1219 H1203 0.930 . S
C1219 C1218 1.377 . S
C1219 C1220 1.379 . S
C1220 H1204 0.931 . S
C1220 C1214 1.383 . S
C1220 C1219 1.379 . S
H1221 C1215 0.959 . S
H1222 C1215 0.961 . S
H1223 C1215 0.960 . S
H1224 C1216 0.930 . S
H1225 C1217 0.929 . S
H1226 C1234 0.929 . S
H1227 C1236 0.930 . S
H1228 C1238 0.930 . S
H1229 C1241 0.929 . S
H1230 C1244 0.930 . S
H1231 C1246 0.960 . S
H1232 C1246 0.960 . S
H1233 C1246 0.960 . S
C1234 H1226 0.929 . S
C1234 C1235 1.377 . S
C1234 C1236 1.384 . S
C1235 C1234 1.377 . S
C1235 C1241 1.390 . S
C1236 H1227 0.930 . S
C1236 C1234 1.384 . S
C1236 C1237 1.372 . S
C1237 C1236 1.372 . S
C1237 C1238 1.400 . S
C1237 C1242 1.490 . S
C1238 H1228 0.930 . S
C1238 C1237 1.400 . S
C1238 C1241 1.386 . S
H1239 C1255 0.930 . S
H1240 C1256 0.931 . S
C1241 H1229 0.929 . S
C1241 C1235 1.390 . S
C1241 C1238 1.386 . S
C1242 C1237 1.490 . S
C1242 C1244 1.395 . S
C1242 C1245 1.403 . S
H1243 C1249 0.930 . S
C1244 H1230 0.930 . S
C1244 C1242 1.395 . S
C1244 C1247 1.403 . S
C1245 C1242 1.403 . S
C1245 C1246 1.524 . S
C1245 C1249 1.400 . S
C1246 H1231 0.960 . S
C1246 H1232 0.960 . S
C1246 H1233 0.960 . S
C1246 C1245 1.524 . S
C1247 C1244 1.403 . S
C1247 C1248 1.392 . S
C1247 C1251 1.495 . S
C1248 C1247 1.392 . S
C1248 C1249 1.385 . S
C1248 C1250 1.478 . S
C1249 H1243 0.930 . S
C1249 C1245 1.400 . S
C1249 C1248 1.385 . S
C1250 C1248 1.478 . S
C1250 C1252 1.381 . S
C1250 C1256 1.383 . S
C1251 C1247 1.495 . S
C1251 H1257 0.959 . S
C1251 H1258 0.961 . S
C1251 H1259 0.960 . S
C1252 C1250 1.381 . S
C1252 C1253 1.394 . S
C1252 H1260 0.930 . S
C1253 C1252 1.394 . S
C1253 C1254 1.383 . S
C1253 H1261 0.929 . S
C1254 C1253 1.383 . S
C1254 C1255 1.377 . S
C1255 H1239 0.930 . S
C1255 C1254 1.377 . S
C1255 C1256 1.379 . S
C1256 H1240 0.931 . S
C1256 C1250 1.383 . S
C1256 C1255 1.379 . S
H1257 C1251 0.959 . S
H1258 C1251 0.961 . S
H1259 C1251 0.960 . S
H1260 C1252 0.930 . S
H1261 C1253 0.929 . S
H1262 C1270 0.929 . S
H1263 C1272 0.930 . S
H1264 C1274 0.930 . S
H1265 C1277 0.929 . S
H1266 C1280 0.930 . S
H1267 C1282 0.960 . S
H1268 C1282 0.960 . S
H1269 C1282 0.960 . S
C1270 H1262 0.929 . S
C1270 C1271 1.377 . S
C1270 C1272 1.384 . S
C1271 C1270 1.377 . S
C1271 C1277 1.390 . S
C1272 H1263 0.930 . S
C1272 C1270 1.384 . S
C1272 C1273 1.372 . S
C1273 C1272 1.372 . S
C1273 C1274 1.400 . S
C1273 C1278 1.490 . S
C1274 H1264 0.930 . S
C1274 C1273 1.400 . S
C1274 C1277 1.386 . S
H1275 C1291 0.930 . S
H1276 C1292 0.931 . S
C1277 H1265 0.929 . S
C1277 C1271 1.390 . S
C1277 C1274 1.386 . S
C1278 C1273 1.490 . S
C1278 C1280 1.395 . S
C1278 C1281 1.403 . S
H1279 C1285 0.930 . S
C1280 H1266 0.930 . S
C1280 C1278 1.395 . S
C1280 C1283 1.403 . S
C1281 C1278 1.403 . S
C1281 C1282 1.524 . S
C1281 C1285 1.400 . S
C1282 H1267 0.960 . S
C1282 H1268 0.960 . S
C1282 H1269 0.960 . S
C1282 C1281 1.524 . S
C1283 C1280 1.403 . S
C1283 C1284 1.392 . S
C1283 C1287 1.495 . S
C1284 C1283 1.392 . S
C1284 C1285 1.385 . S
C1284 C1286 1.478 . S
C1285 H1279 0.930 . S
C1285 C1281 1.400 . S
C1285 C1284 1.385 . S
C1286 C1284 1.478 . S
C1286 C1288 1.381 . S
C1286 C1292 1.383 . S
C1287 C1283 1.495 . S
C1287 H1293 0.959 . S
C1287 H1294 0.961 . S
C1287 H1295 0.960 . S
C1288 C1286 1.381 . S
C1288 C1289 1.394 . S
C1288 H1296 0.930 . S
C1289 C1288 1.394 . S
C1289 C1290 1.383 . S
C1289 H1297 0.929 . S
C1290 C1289 1.383 . S
C1290 C1291 1.377 . S
C1291 H1275 0.930 . S
C1291 C1290 1.377 . S
C1291 C1292 1.379 . S
C1292 H1276 0.931 . S
C1292 C1286 1.383 . S
C1292 C1291 1.379 . S
H1293 C1287 0.959 . S
H1294 C1287 0.961 . S
H1295 C1287 0.960 . S
H1296 C1288 0.930 . S
H1297 C1289 0.929 . S
H1298 C1306 0.929 . S
H1299 C1308 0.930 . S
H1300 C1310 0.930 . S
H1301 C1313 0.929 . S
H1302 C1316 0.930 . S
H1303 C1318 0.960 . S
H1304 C1318 0.960 . S
H1305 C1318 0.960 . S
C1306 H1298 0.929 . S
C1306 C1307 1.377 . S
C1306 C1308 1.384 . S
C1307 C1306 1.377 . S
C1307 C1313 1.390 . S
C1308 H1299 0.930 . S
C1308 C1306 1.384 . S
C1308 C1309 1.372 . S
C1309 C1308 1.372 . S
C1309 C1310 1.400 . S
C1309 C1314 1.490 . S
C1310 H1300 0.930 . S
C1310 C1309 1.400 . S
C1310 C1313 1.386 . S
H1311 C1327 0.930 . S
H1312 C1328 0.931 . S
C1313 H1301 0.929 . S
C1313 C1307 1.390 . S
C1313 C1310 1.386 . S
C1314 C1309 1.490 . S
C1314 C1316 1.395 . S
C1314 C1317 1.403 . S
H1315 C1321 0.930 . S
C1316 H1302 0.930 . S
C1316 C1314 1.395 . S
C1316 C1319 1.403 . S
C1317 C1314 1.403 . S
C1317 C1318 1.524 . S
C1317 C1321 1.400 . S
C1318 H1303 0.960 . S
C1318 H1304 0.960 . S
C1318 H1305 0.960 . S
C1318 C1317 1.524 . S
C1319 C1316 1.403 . S
C1319 C1320 1.392 . S
C1319 C1323 1.495 . S
C1320 C1319 1.392 . S
C1320 C1321 1.385 . S
C1320 C1322 1.478 . S
C1321 H1315 0.930 . S
C1321 C1317 1.400 . S
C1321 C1320 1.385 . S
C1322 C1320 1.478 . S
C1322 C1324 1.381 . S
C1322 C1328 1.383 . S
C1323 C1319 1.495 . S
C1323 H1329 0.959 . S
C1323 H1330 0.961 . S
C1323 H1331 0.960 . S
C1324 C1322 1.381 . S
C1324 C1325 1.394 . S
C1324 H1332 0.930 . S
C1325 C1324 1.394 . S
C1325 C1326 1.383 . S
C1325 H1333 0.929 . S
C1326 C1325 1.383 . S
C1326 C1327 1.377 . S
C1327 H1311 0.930 . S
C1327 C1326 1.377 . S
C1327 C1328 1.379 . S
C1328 H1312 0.931 . S
C1328 C1322 1.383 . S
C1328 C1327 1.379 . S
H1329 C1323 0.959 . S
H1330 C1323 0.961 . S
H1331 C1323 0.960 . S
H1332 C1324 0.930 . S
H1333 C1325 0.929 . S
H1334 C1342 0.929 . S
H1335 C1344 0.930 . S
H1336 C1346 0.930 . S
H1337 C1349 0.929 . S
H1338 C1352 0.930 . S
H1339 C1354 0.960 . S
H1340 C1354 0.960 . S
H1341 C1354 0.960 . S
C1342 H1334 0.929 . S
C1342 C1343 1.377 . S
C1342 C1344 1.384 . S
C1343 C1342 1.377 . S
C1343 C1349 1.390 . S
C1344 H1335 0.930 . S
C1344 C1342 1.384 . S
C1344 C1345 1.372 . S
C1345 C1344 1.372 . S
C1345 C1346 1.400 . S
C1345 C1350 1.490 . S
C1346 H1336 0.930 . S
C1346 C1345 1.400 . S
C1346 C1349 1.386 . S
H1347 C1363 0.930 . S
H1348 C1364 0.931 . S
C1349 H1337 0.929 . S
C1349 C1343 1.390 . S
C1349 C1346 1.386 . S
C1350 C1345 1.490 . S
C1350 C1352 1.395 . S
C1350 C1353 1.403 . S
H1351 C1357 0.930 . S
C1352 H1338 0.930 . S
C1352 C1350 1.395 . S
C1352 C1355 1.403 . S
C1353 C1350 1.403 . S
C1353 C1354 1.524 . S
C1353 C1357 1.400 . S
C1354 H1339 0.960 . S
C1354 H1340 0.960 . S
C1354 H1341 0.960 . S
C1354 C1353 1.524 . S
C1355 C1352 1.403 . S
C1355 C1356 1.392 . S
C1355 C1359 1.495 . S
C1356 C1355 1.392 . S
C1356 C1357 1.385 . S
C1356 C1358 1.478 . S
C1357 H1351 0.930 . S
C1357 C1353 1.400 . S
C1357 C1356 1.385 . S
C1358 C1356 1.478 . S
C1358 C1360 1.381 . S
C1358 C1364 1.383 . S
C1359 C1355 1.495 . S
C1359 H1365 0.959 . S
C1359 H1366 0.961 . S
C1359 H1367 0.960 . S
C1360 C1358 1.381 . S
C1360 C1361 1.394 . S
C1360 H1368 0.930 . S
C1361 C1360 1.394 . S
C1361 C1362 1.383 . S
C1361 H1369 0.929 . S
C1362 C1361 1.383 . S
C1362 C1363 1.377 . S
C1363 H1347 0.930 . S
C1363 C1362 1.377 . S
C1363 C1364 1.379 . S
C1364 H1348 0.931 . S
C1364 C1358 1.383 . S
C1364 C1363 1.379 . S
H1365 C1359 0.959 . S
H1366 C1359 0.961 . S
H1367 C1359 0.960 . S
H1368 C1360 0.930 . S
H1369 C1361 0.929 . S
H1370 C1378 0.929 . S
H1371 C1380 0.930 . S
H1372 C1382 0.930 . S
H1373 C1385 0.929 . S
H1374 C1388 0.930 . S
H1375 C1390 0.960 . S
H1376 C1390 0.960 . S
H1377 C1390 0.960 . S
C1378 H1370 0.929 . S
C1378 C1379 1.377 . S
C1378 C1380 1.384 . S
C1379 C1378 1.377 . S
C1379 C1385 1.390 . S
C1380 H1371 0.930 . S
C1380 C1378 1.384 . S
C1380 C1381 1.372 . S
C1381 C1380 1.372 . S
C1381 C1382 1.400 . S
C1381 C1386 1.490 . S
C1382 H1372 0.930 . S
C1382 C1381 1.400 . S
C1382 C1385 1.386 . S
H1383 C1399 0.930 . S
H1384 C1400 0.931 . S
C1385 H1373 0.929 . S
C1385 C1379 1.390 . S
C1385 C1382 1.386 . S
C1386 C1381 1.490 . S
C1386 C1388 1.395 . S
C1386 C1389 1.403 . S
H1387 C1393 0.930 . S
C1388 H1374 0.930 . S
C1388 C1386 1.395 . S
C1388 C1391 1.403 . S
C1389 C1386 1.403 . S
C1389 C1390 1.524 . S
C1389 C1393 1.400 . S
C1390 H1375 0.960 . S
C1390 H1376 0.960 . S
C1390 H1377 0.960 . S
C1390 C1389 1.524 . S
C1391 C1388 1.403 . S
C1391 C1392 1.392 . S
C1391 C1395 1.495 . S
C1392 C1391 1.392 . S
C1392 C1393 1.385 . S
C1392 C1394 1.478 . S
C1393 H1387 0.930 . S
C1393 C1389 1.400 . S
C1393 C1392 1.385 . S
C1394 C1392 1.478 . S
C1394 C1396 1.381 . S
C1394 C1400 1.383 . S
C1395 C1391 1.495 . S
C1395 H1401 0.959 . S
C1395 H1402 0.961 . S
C1395 H1403 0.960 . S
C1396 C1394 1.381 . S
C1396 C1397 1.394 . S
C1396 H1404 0.930 . S
C1397 C1396 1.394 . S
C1397 C1398 1.383 . S
C1397 H1405 0.929 . S
C1398 C1397 1.383 . S
C1398 C1399 1.377 . S
C1399 H1383 0.930 . S
C1399 C1398 1.377 . S
C1399 C1400 1.379 . S
C1400 H1384 0.931 . S
C1400 C1394 1.383 . S
C1400 C1399 1.379 . S
H1401 C1395 0.959 . S
H1402 C1395 0.961 . S
H1403 C1395 0.960 . S
H1404 C1396 0.930 . S
H1405 C1397 0.929 . S
H1406 C1414 0.929 . S
H1407 C1416 0.930 . S
H1408 C1418 0.930 . S
H1409 C1421 0.929 . S
H1410 C1424 0.930 . S
H1411 C1426 0.960 . S
H1412 C1426 0.960 . S
H1413 C1426 0.960 . S
C1414 H1406 0.929 . S
C1414 C1415 1.377 . S
C1414 C1416 1.384 . S
C1415 C1414 1.377 . S
C1415 C1421 1.390 . S
C1416 H1407 0.930 . S
C1416 C1414 1.384 . S
C1416 C1417 1.372 . S
C1417 C1416 1.372 . S
C1417 C1418 1.400 . S
C1417 C1422 1.490 . S
C1418 H1408 0.930 . S
C1418 C1417 1.400 . S
C1418 C1421 1.386 . S
H1419 C1435 0.930 . S
H1420 C1436 0.931 . S
C1421 H1409 0.929 . S
C1421 C1415 1.390 . S
C1421 C1418 1.386 . S
C1422 C1417 1.490 . S
C1422 C1424 1.395 . S
C1422 C1425 1.403 . S
H1423 C1429 0.930 . S
C1424 H1410 0.930 . S
C1424 C1422 1.395 . S
C1424 C1427 1.403 . S
C1425 C1422 1.403 . S
C1425 C1426 1.524 . S
C1425 C1429 1.400 . S
C1426 H1411 0.960 . S
C1426 H1412 0.960 . S
C1426 H1413 0.960 . S
C1426 C1425 1.524 . S
C1427 C1424 1.403 . S
C1427 C1428 1.392 . S
C1427 C1431 1.495 . S
C1428 C1427 1.392 . S
C1428 C1429 1.385 . S
C1428 C1430 1.478 . S
C1429 H1423 0.930 . S
C1429 C1425 1.400 . S
C1429 C1428 1.385 . S
C1430 C1428 1.478 . S
C1430 C1432 1.381 . S
C1430 C1436 1.383 . S
C1431 C1427 1.495 . S
C1431 H1437 0.959 . S
C1431 H1438 0.961 . S
C1431 H1439 0.960 . S
C1432 C1430 1.381 . S
C1432 C1433 1.394 . S
C1432 H1440 0.930 . S
C1433 C1432 1.394 . S
C1433 C1434 1.383 . S
C1433 H1441 0.929 . S
C1434 C1433 1.383 . S
C1434 C1435 1.377 . S
C1435 H1419 0.930 . S
C1435 C1434 1.377 . S
C1435 C1436 1.379 . S
C1436 H1420 0.931 . S
C1436 C1430 1.383 . S
C1436 C1435 1.379 . S
H1437 C1431 0.959 . S
H1438 C1431 0.961 . S
H1439 C1431 0.960 . S
H1440 C1432 0.930 . S
H1441 C1433 0.929 . S
H1442 C1450 0.929 . S
H1443 C1452 0.930 . S
H1444 C1454 0.930 . S
H1445 C1457 0.929 . S
H1446 C1460 0.930 . S
H1447 C1462 0.960 . S
H1448 C1462 0.960 . S
H1449 C1462 0.960 . S
C1450 H1442 0.929 . S
C1450 C1451 1.377 . S
C1450 C1452 1.384 . S
C1451 C1450 1.377 . S
C1451 C1457 1.390 . S
C1452 H1443 0.930 . S
C1452 C1450 1.384 . S
C1452 C1453 1.372 . S
C1453 C1452 1.372 . S
C1453 C1454 1.400 . S
C1453 C1458 1.490 . S
C1454 H1444 0.930 . S
C1454 C1453 1.400 . S
C1454 C1457 1.386 . S
H1455 C1471 0.930 . S
H1456 C1472 0.931 . S
C1457 H1445 0.929 . S
C1457 C1451 1.390 . S
C1457 C1454 1.386 . S
C1458 C1453 1.490 . S
C1458 C1460 1.395 . S
C1458 C1461 1.403 . S
H1459 C1465 0.930 . S
C1460 H1446 0.930 . S
C1460 C1458 1.395 . S
C1460 C1463 1.403 . S
C1461 C1458 1.403 . S
C1461 C1462 1.524 . S
C1461 C1465 1.400 . S
C1462 H1447 0.960 . S
C1462 H1448 0.960 . S
C1462 H1449 0.960 . S
C1462 C1461 1.524 . S
C1463 C1460 1.403 . S
C1463 C1464 1.392 . S
C1463 C1467 1.495 . S
C1464 C1463 1.392 . S
C1464 C1465 1.385 . S
C1464 C1466 1.478 . S
C1465 H1459 0.930 . S
C1465 C1461 1.400 . S
C1465 C1464 1.385 . S
C1466 C1464 1.478 . S
C1466 C1468 1.381 . S
C1466 C1472 1.383 . S
C1467 C1463 1.495 . S
C1467 H1473 0.959 . S
C1467 H1474 0.961 . S
C1467 H1475 0.960 . S
C1468 C1466 1.381 . S
C1468 C1469 1.394 . S
C1468 H1476 0.930 . S
C1469 C1468 1.394 . S
C1469 C1470 1.383 . S
C1469 H1477 0.929 . S
C1470 C1469 1.383 . S
C1470 C1471 1.377 . S
C1471 H1455 0.930 . S
C1471 C1470 1.377 . S
C1471 C1472 1.379 . S
C1472 H1456 0.931 . S
C1472 C1466 1.383 . S
C1472 C1471 1.379 . S
H1473 C1467 0.959 . S
H1474 C1467 0.961 . S
H1475 C1467 0.960 . S
H1476 C1468 0.930 . S
H1477 C1469 0.929 . S
H1478 C1486 0.929 . S
H1479 C1488 0.930 . S
H1480 C1490 0.930 . S
H1481 C1493 0.929 . S
H1482 C1496 0.930 . S
H1483 C1498 0.960 . S
H1484 C1498 0.960 . S
H1485 C1498 0.960 . S
C1486 H1478 0.929 . S
C1486 C1487 1.377 . S
C1486 C1488 1.384 . S
C1487 C1486 1.377 . S
C1487 C1493 1.390 . S
C1488 H1479 0.930 . S
C1488 C1486 1.384 . S
C1488 C1489 1.372 . S
C1489 C1488 1.372 . S
C1489 C1490 1.400 . S
C1489 C1494 1.490 . S
C1490 H1480 0.930 . S
C1490 C1489 1.400 . S
C1490 C1493 1.386 . S
H1491 C1507 0.930 . S
H1492 C1508 0.931 . S
C1493 H1481 0.929 . S
C1493 C1487 1.390 . S
C1493 C1490 1.386 . S
C1494 C1489 1.490 . S
C1494 C1496 1.395 . S
C1494 C1497 1.403 . S
H1495 C1501 0.930 . S
C1496 H1482 0.930 . S
C1496 C1494 1.395 . S
C1496 C1499 1.403 . S
C1497 C1494 1.403 . S
C1497 C1498 1.524 . S
C1497 C1501 1.400 . S
C1498 H1483 0.960 . S
C1498 H1484 0.960 . S
C1498 H1485 0.960 . S
C1498 C1497 1.524 . S
C1499 C1496 1.403 . S
C1499 C1500 1.392 . S
C1499 C1503 1.495 . S
C1500 C1499 1.392 . S
C1500 C1501 1.385 . S
C1500 C1502 1.478 . S
C1501 H1495 0.930 . S
C1501 C1497 1.400 . S
C1501 C1500 1.385 . S
C1502 C1500 1.478 . S
C1502 C1504 1.381 . S
C1502 C1508 1.383 . S
C1503 C1499 1.495 . S
C1503 H1509 0.959 . S
C1503 H1510 0.961 . S
C1503 H1511 0.960 . S
C1504 C1502 1.381 . S
C1504 C1505 1.394 . S
C1504 H1512 0.930 . S
C1505 C1504 1.394 . S
C1505 C1506 1.383 . S
C1505 H1513 0.929 . S
C1506 C1505 1.383 . S
C1506 C1507 1.377 . S
C1507 H1491 0.930 . S
C1507 C1506 1.377 . S
C1507 C1508 1.379 . S
C1508 H1492 0.931 . S
C1508 C1502 1.383 . S
C1508 C1507 1.379 . S
H1509 C1503 0.959 . S
H1510 C1503 0.961 . S
H1511 C1503 0.960 . S
H1512 C1504 0.930 . S
H1513 C1505 0.929 . S
H1514 C1522 0.929 . S
H1515 C1524 0.930 . S
H1516 C1526 0.930 . S
H1517 C1529 0.929 . S
H1518 C1532 0.930 . S
H1519 C1534 0.960 . S
H1520 C1534 0.960 . S
H1521 C1534 0.960 . S
C1522 H1514 0.929 . S
C1522 C1523 1.377 . S
C1522 C1524 1.384 . S
C1523 C1522 1.377 . S
C1523 C1529 1.390 . S
C1524 H1515 0.930 . S
C1524 C1522 1.384 . S
C1524 C1525 1.372 . S
C1525 C1524 1.372 . S
C1525 C1526 1.400 . S
C1525 C1530 1.490 . S
C1526 H1516 0.930 . S
C1526 C1525 1.400 . S
C1526 C1529 1.386 . S
H1527 C1543 0.930 . S
H1528 C1544 0.931 . S
C1529 H1517 0.929 . S
C1529 C1523 1.390 . S
C1529 C1526 1.386 . S
C1530 C1525 1.490 . S
C1530 C1532 1.395 . S
C1530 C1533 1.403 . S
H1531 C1537 0.930 . S
C1532 H1518 0.930 . S
C1532 C1530 1.395 . S
C1532 C1535 1.403 . S
C1533 C1530 1.403 . S
C1533 C1534 1.524 . S
C1533 C1537 1.400 . S
C1534 H1519 0.960 . S
C1534 H1520 0.960 . S
C1534 H1521 0.960 . S
C1534 C1533 1.524 . S
C1535 C1532 1.403 . S
C1535 C1536 1.392 . S
C1535 C1539 1.495 . S
C1536 C1535 1.392 . S
C1536 C1537 1.385 . S
C1536 C1538 1.478 . S
C1537 H1531 0.930 . S
C1537 C1533 1.400 . S
C1537 C1536 1.385 . S
C1538 C1536 1.478 . S
C1538 C1540 1.381 . S
C1538 C1544 1.383 . S
C1539 C1535 1.495 . S
C1539 H1545 0.959 . S
C1539 H1546 0.961 . S
C1539 H1547 0.960 . S
C1540 C1538 1.381 . S
C1540 C1541 1.394 . S
C1540 H1548 0.930 . S
C1541 C1540 1.394 . S
C1541 C1542 1.383 . S
C1541 H1549 0.929 . S
C1542 C1541 1.383 . S
C1542 C1543 1.377 . S
C1543 H1527 0.930 . S
C1543 C1542 1.377 . S
C1543 C1544 1.379 . S
C1544 H1528 0.931 . S
C1544 C1538 1.383 . S
C1544 C1543 1.379 . S
H1545 C1539 0.959 . S
H1546 C1539 0.961 . S
H1547 C1539 0.960 . S
H1548 C1540 0.930 . S
H1549 C1541 0.929 . S
H1550 C1558 0.929 . S
H1551 C1560 0.930 . S
H1552 C1562 0.930 . S
H1553 C1565 0.929 . S
H1554 C1568 0.930 . S
H1555 C1570 0.960 . S
H1556 C1570 0.960 . S
H1557 C1570 0.960 . S
C1558 H1550 0.929 . S
C1558 C1559 1.377 . S
C1558 C1560 1.384 . S
C1559 C1558 1.377 . S
C1559 C1565 1.390 . S
C1560 H1551 0.930 . S
C1560 C1558 1.384 . S
C1560 C1561 1.372 . S
C1561 C1560 1.372 . S
C1561 C1562 1.400 . S
C1561 C1566 1.490 . S
C1562 H1552 0.930 . S
C1562 C1561 1.400 . S
C1562 C1565 1.386 . S
H1563 C1579 0.930 . S
H1564 C1580 0.931 . S
C1565 H1553 0.929 . S
C1565 C1559 1.390 . S
C1565 C1562 1.386 . S
C1566 C1561 1.490 . S
C1566 C1568 1.395 . S
C1566 C1569 1.403 . S
H1567 C1573 0.930 . S
C1568 H1554 0.930 . S
C1568 C1566 1.395 . S
C1568 C1571 1.403 . S
C1569 C1566 1.403 . S
C1569 C1570 1.524 . S
C1569 C1573 1.400 . S
C1570 H1555 0.960 . S
C1570 H1556 0.960 . S
C1570 H1557 0.960 . S
C1570 C1569 1.524 . S
C1571 C1568 1.403 . S
C1571 C1572 1.392 . S
C1571 C1575 1.495 . S
C1572 C1571 1.392 . S
C1572 C1573 1.385 . S
C1572 C1574 1.478 . S
C1573 H1567 0.930 . S
C1573 C1569 1.400 . S
C1573 C1572 1.385 . S
C1574 C1572 1.478 . S
C1574 C1576 1.381 . S
C1574 C1580 1.383 . S
C1575 C1571 1.495 . S
C1575 H1581 0.959 . S
C1575 H1582 0.961 . S
C1575 H1583 0.960 . S
C1576 C1574 1.381 . S
C1576 C1577 1.394 . S
C1576 H1584 0.930 . S
C1577 C1576 1.394 . S
C1577 C1578 1.383 . S
C1577 H1585 0.929 . S
C1578 C1577 1.383 . S
C1578 C1579 1.377 . S
C1579 H1563 0.930 . S
C1579 C1578 1.377 . S
C1579 C1580 1.379 . S
C1580 H1564 0.931 . S
C1580 C1574 1.383 . S
C1580 C1579 1.379 . S
H1581 C1575 0.959 . S
H1582 C1575 0.961 . S
H1583 C1575 0.960 . S
H1584 C1576 0.930 . S
H1585 C1577 0.929 . S
H1586 C1594 0.929 . S
H1587 C1596 0.930 . S
H1588 C1598 0.930 . S
H1589 C1601 0.929 . S
H1590 C1604 0.930 . S
H1591 C1606 0.960 . S
H1592 C1606 0.960 . S
H1593 C1606 0.960 . S
C1594 H1586 0.929 . S
C1594 C1595 1.377 . S
C1594 C1596 1.384 . S
C1595 C1594 1.377 . S
C1595 C1601 1.390 . S
C1596 H1587 0.930 . S
C1596 C1594 1.384 . S
C1596 C1597 1.372 . S
C1597 C1596 1.372 . S
C1597 C1598 1.400 . S
C1597 C1602 1.490 . S
C1598 H1588 0.930 . S
C1598 C1597 1.400 . S
C1598 C1601 1.386 . S
H1599 C1615 0.930 . S
H1600 C1616 0.931 . S
C1601 H1589 0.929 . S
C1601 C1595 1.390 . S
C1601 C1598 1.386 . S
C1602 C1597 1.490 . S
C1602 C1604 1.395 . S
C1602 C1605 1.403 . S
H1603 C1609 0.930 . S
C1604 H1590 0.930 . S
C1604 C1602 1.395 . S
C1604 C1607 1.403 . S
C1605 C1602 1.403 . S
C1605 C1606 1.524 . S
C1605 C1609 1.400 . S
C1606 H1591 0.960 . S
C1606 H1592 0.960 . S
C1606 H1593 0.960 . S
C1606 C1605 1.524 . S
C1607 C1604 1.403 . S
C1607 C1608 1.392 . S
C1607 C1611 1.495 . S
C1608 C1607 1.392 . S
C1608 C1609 1.385 . S
C1608 C1610 1.478 . S
C1609 H1603 0.930 . S
C1609 C1605 1.400 . S
C1609 C1608 1.385 . S
C1610 C1608 1.478 . S
C1610 C1612 1.381 . S
C1610 C1616 1.383 . S
C1611 C1607 1.495 . S
C1611 H1617 0.959 . S
C1611 H1618 0.961 . S
C1611 H1619 0.960 . S
C1612 C1610 1.381 . S
C1612 C1613 1.394 . S
C1612 H1620 0.930 . S
C1613 C1612 1.394 . S
C1613 C1614 1.383 . S
C1613 H1621 0.929 1_554 S
C1614 C1613 1.383 . S
C1614 C1615 1.377 . S
C1615 H1599 0.930 . S
C1615 C1614 1.377 . S
C1615 C1616 1.379 . S
C1616 H1600 0.931 . S
C1616 C1610 1.383 . S
C1616 C1615 1.379 . S
H1617 C1611 0.959 . S
H1618 C1611 0.961 . S
H1619 C1611 0.960 . S
H1620 C1612 0.930 . S
H1621 C1613 0.929 1_556 S
H1622 C1630 0.929 . S
H1623 C1632 0.930 . S
H1624 C1634 0.930 . S
H1625 C1637 0.929 . S
H1626 C1640 0.930 . S
H1627 C1642 0.960 . S
H1628 C1642 0.960 . S
H1629 C1642 0.960 . S
C1630 H1622 0.929 . S
C1630 C1631 1.377 . S
C1630 C1632 1.384 . S
C1631 C1630 1.377 . S
C1631 C1637 1.390 . S
C1632 H1623 0.930 . S
C1632 C1630 1.384 . S
C1632 C1633 1.372 . S
C1633 C1632 1.372 . S
C1633 C1634 1.400 . S
C1633 C1638 1.490 . S
C1634 H1624 0.930 . S
C1634 C1633 1.400 . S
C1634 C1637 1.386 . S
H1635 C1651 0.930 . S
H1636 C1652 0.931 . S
C1637 H1625 0.929 . S
C1637 C1631 1.390 . S
C1637 C1634 1.386 . S
C1638 C1633 1.490 . S
C1638 C1640 1.395 . S
C1638 C1641 1.403 . S
H1639 C1645 0.930 . S
C1640 H1626 0.930 . S
C1640 C1638 1.395 . S
C1640 C1643 1.403 . S
C1641 C1638 1.403 . S
C1641 C1642 1.524 . S
C1641 C1645 1.400 . S
C1642 H1627 0.960 . S
C1642 H1628 0.960 . S
C1642 H1629 0.960 . S
C1642 C1641 1.524 . S
C1643 C1640 1.403 . S
C1643 C1644 1.392 . S
C1643 C1647 1.495 . S
C1644 C1643 1.392 . S
C1644 C1645 1.385 . S
C1644 C1646 1.478 . S
C1645 H1639 0.930 . S
C1645 C1641 1.400 . S
C1645 C1644 1.385 . S
C1646 C1644 1.478 . S
C1646 C1648 1.381 . S
C1646 C1652 1.383 . S
C1647 C1643 1.495 . S
C1647 H1653 0.959 . S
C1647 H1654 0.961 . S
C1647 H1655 0.960 . S
C1648 C1646 1.381 . S
C1648 C1649 1.394 . S
C1648 H1656 0.930 . S
C1649 C1648 1.394 . S
C1649 C1650 1.383 . S
C1649 H1657 0.929 . S
C1650 C1649 1.383 . S
C1650 C1651 1.377 . S
C1651 H1635 0.930 . S
C1651 C1650 1.377 . S
C1651 C1652 1.379 . S
C1652 H1636 0.931 . S
C1652 C1646 1.383 . S
C1652 C1651 1.379 . S
H1653 C1647 0.959 . S
H1654 C1647 0.961 . S
H1655 C1647 0.960 . S
H1656 C1648 0.930 . S
H1657 C1649 0.929 . S
H1658 C1666 0.929 . S
H1659 C1668 0.930 . S
H1660 C1670 0.930 . S
H1661 C1673 0.929 . S
H1662 C1676 0.930 . S
H1663 C1678 0.960 . S
H1664 C1678 0.960 . S
H1665 C1678 0.960 . S
C1666 H1658 0.929 . S
C1666 C1667 1.377 . S
C1666 C1668 1.384 . S
C1667 C1666 1.377 . S
C1667 C1673 1.390 . S
C1668 H1659 0.930 . S
C1668 C1666 1.384 . S
C1668 C1669 1.372 . S
C1669 C1668 1.372 . S
C1669 C1670 1.400 . S
C1669 C1674 1.490 . S
C1670 H1660 0.930 . S
C1670 C1669 1.400 . S
C1670 C1673 1.386 . S
H1671 C1687 0.930 . S
H1672 C1688 0.931 . S
C1673 H1661 0.929 . S
C1673 C1667 1.390 . S
C1673 C1670 1.386 . S
C1674 C1669 1.490 . S
C1674 C1676 1.395 . S
C1674 C1677 1.403 . S
H1675 C1681 0.930 . S
C1676 H1662 0.930 . S
C1676 C1674 1.395 . S
C1676 C1679 1.403 . S
C1677 C1674 1.403 . S
C1677 C1678 1.524 . S
C1677 C1681 1.400 . S
C1678 H1663 0.960 . S
C1678 H1664 0.960 . S
C1678 H1665 0.960 . S
C1678 C1677 1.524 . S
C1679 C1676 1.403 . S
C1679 C1680 1.392 . S
C1679 C1683 1.495 . S
C1680 C1679 1.392 . S
C1680 C1681 1.385 . S
C1680 C1682 1.478 . S
C1681 H1675 0.930 . S
C1681 C1677 1.400 . S
C1681 C1680 1.385 . S
C1682 C1680 1.478 . S
C1682 C1684 1.381 . S
C1682 C1688 1.383 . S
C1683 C1679 1.495 . S
C1683 H1689 0.959 . S
C1683 H1690 0.961 . S
C1683 H1691 0.960 . S
C1684 C1682 1.381 . S
C1684 C1685 1.394 . S
C1684 H1692 0.930 . S
C1685 C1684 1.394 . S
C1685 C1686 1.383 . S
C1685 H1693 0.929 . S
C1686 C1685 1.383 . S
C1686 C1687 1.377 . S
C1687 H1671 0.930 . S
C1687 C1686 1.377 . S
C1687 C1688 1.379 . S
C1688 H1672 0.931 . S
C1688 C1682 1.383 . S
C1688 C1687 1.379 . S
H1689 C1683 0.959 . S
H1690 C1683 0.961 . S
H1691 C1683 0.960 . S
H1692 C1684 0.930 . S
H1693 C1685 0.929 . S
H1694 C1702 0.929 . S
H1695 C1704 0.930 . S
H1696 C1706 0.930 . S
H1697 C1709 0.929 . S
H1698 C1712 0.930 . S
H1699 C1714 0.960 . S
H1700 C1714 0.960 . S
H1701 C1714 0.960 . S
C1702 H1694 0.929 . S
C1702 C1703 1.377 . S
C1702 C1704 1.384 . S
C1703 C1702 1.377 . S
C1703 C1709 1.390 . S
C1704 H1695 0.930 . S
C1704 C1702 1.384 . S
C1704 C1705 1.372 . S
C1705 C1704 1.372 . S
C1705 C1706 1.400 . S
C1705 C1710 1.490 . S
C1706 H1696 0.930 . S
C1706 C1705 1.400 . S
C1706 C1709 1.386 . S
H1707 C1723 0.930 . S
H1708 C1724 0.931 . S
C1709 H1697 0.929 . S
C1709 C1703 1.390 . S
C1709 C1706 1.386 . S
C1710 C1705 1.490 . S
C1710 C1712 1.395 . S
C1710 C1713 1.403 . S
H1711 C1717 0.930 . S
C1712 H1698 0.930 . S
C1712 C1710 1.395 . S
C1712 C1715 1.403 . S
C1713 C1710 1.403 . S
C1713 C1714 1.524 . S
C1713 C1717 1.400 . S
C1714 H1699 0.960 . S
C1714 H1700 0.960 . S
C1714 H1701 0.960 . S
C1714 C1713 1.524 . S
C1715 C1712 1.403 . S
C1715 C1716 1.392 . S
C1715 C1719 1.495 . S
C1716 C1715 1.392 . S
C1716 C1717 1.385 . S
C1716 C1718 1.478 . S
C1717 H1711 0.930 . S
C1717 C1713 1.400 . S
C1717 C1716 1.385 . S
C1718 C1716 1.478 . S
C1718 C1720 1.381 . S
C1718 C1724 1.383 . S
C1719 C1715 1.495 . S
C1719 H1725 0.959 . S
C1719 H1726 0.961 . S
C1719 H1727 0.960 . S
C1720 C1718 1.381 . S
C1720 C1721 1.394 . S
C1720 H1728 0.930 . S
C1721 C1720 1.394 . S
C1721 C1722 1.383 . S
C1721 H1729 0.929 . S
C1722 C1721 1.383 . S
C1722 C1723 1.377 . S
C1723 H1707 0.930 . S
C1723 C1722 1.377 . S
C1723 C1724 1.379 . S
C1724 H1708 0.931 . S
C1724 C1718 1.383 . S
C1724 C1723 1.379 . S
H1725 C1719 0.959 . S
H1726 C1719 0.961 . S
H1727 C1719 0.960 . S
H1728 C1720 0.930 . S
H1729 C1721 0.929 . S
H1730 C1738 0.929 . S
H1731 C1740 0.930 . S
H1732 C1742 0.930 . S
H1733 C1745 0.929 . S
H1734 C1748 0.930 . S
H1735 C1750 0.960 . S
H1736 C1750 0.960 . S
H1737 C1750 0.960 . S
C1738 H1730 0.929 . S
C1738 C1739 1.377 . S
C1738 C1740 1.384 . S
C1739 C1738 1.377 . S
C1739 C1745 1.390 . S
C1740 H1731 0.930 . S
C1740 C1738 1.384 . S
C1740 C1741 1.372 . S
C1741 C1740 1.372 . S
C1741 C1742 1.400 . S
C1741 C1746 1.490 . S
C1742 H1732 0.930 . S
C1742 C1741 1.400 . S
C1742 C1745 1.386 . S
H1743 C1759 0.930 . S
H1744 C1760 0.931 . S
C1745 H1733 0.929 . S
C1745 C1739 1.390 . S
C1745 C1742 1.386 . S
C1746 C1741 1.490 . S
C1746 C1748 1.395 . S
C1746 C1749 1.403 . S
H1747 C1753 0.930 . S
C1748 H1734 0.930 . S
C1748 C1746 1.395 . S
C1748 C1751 1.403 . S
C1749 C1746 1.403 . S
C1749 C1750 1.524 . S
C1749 C1753 1.400 . S
C1750 H1735 0.960 . S
C1750 H1736 0.960 . S
C1750 H1737 0.960 . S
C1750 C1749 1.524 . S
C1751 C1748 1.403 . S
C1751 C1752 1.392 . S
C1751 C1755 1.495 . S
C1752 C1751 1.392 . S
C1752 C1753 1.385 . S
C1752 C1754 1.478 . S
C1753 H1747 0.930 . S
C1753 C1749 1.400 . S
C1753 C1752 1.385 . S
C1754 C1752 1.478 . S
C1754 C1756 1.381 . S
C1754 C1760 1.383 . S
C1755 C1751 1.495 . S
C1755 H1761 0.959 . S
C1755 H1762 0.961 . S
C1755 H1763 0.960 . S
C1756 C1754 1.381 . S
C1756 C1757 1.394 . S
C1756 H1764 0.930 . S
C1757 C1756 1.394 . S
C1757 C1758 1.383 . S
C1757 H1765 0.929 . S
C1758 C1757 1.383 . S
C1758 C1759 1.377 . S
C1759 H1743 0.930 . S
C1759 C1758 1.377 . S
C1759 C1760 1.379 . S
C1760 H1744 0.931 . S
C1760 C1754 1.383 . S
C1760 C1759 1.379 . S
H1761 C1755 0.959 . S
H1762 C1755 0.961 . S
H1763 C1755 0.960 . S
H1764 C1756 0.930 . S
H1765 C1757 0.929 . S
H1766 C1774 0.929 . S
H1767 C1776 0.930 . S
H1768 C1778 0.930 . S
H1769 C1781 0.929 . S
H1770 C1784 0.930 . S
H1771 C1786 0.960 . S
H1772 C1786 0.960 . S
H1773 C1786 0.960 . S
C1774 H1766 0.929 . S
C1774 C1775 1.377 . S
C1774 C1776 1.384 . S
C1775 C1774 1.377 . S
C1775 C1781 1.390 . S
C1776 H1767 0.930 . S
C1776 C1774 1.384 . S
C1776 C1777 1.372 . S
C1777 C1776 1.372 . S
C1777 C1778 1.400 . S
C1777 C1782 1.490 . S
C1778 H1768 0.930 . S
C1778 C1777 1.400 . S
C1778 C1781 1.386 . S
H1779 C1795 0.930 . S
H1780 C1796 0.931 . S
C1781 H1769 0.929 . S
C1781 C1775 1.390 . S
C1781 C1778 1.386 . S
C1782 C1777 1.490 . S
C1782 C1784 1.395 . S
C1782 C1785 1.403 . S
H1783 C1789 0.930 . S
C1784 H1770 0.930 . S
C1784 C1782 1.395 . S
C1784 C1787 1.403 . S
C1785 C1782 1.403 . S
C1785 C1786 1.524 . S
C1785 C1789 1.400 . S
C1786 H1771 0.960 . S
C1786 H1772 0.960 . S
C1786 H1773 0.960 . S
C1786 C1785 1.524 . S
C1787 C1784 1.403 . S
C1787 C1788 1.392 . S
C1787 C1791 1.495 . S
C1788 C1787 1.392 . S
C1788 C1789 1.385 . S
C1788 C1790 1.478 . S
C1789 H1783 0.930 . S
C1789 C1785 1.400 . S
C1789 C1788 1.385 . S
C1790 C1788 1.478 . S
C1790 C1792 1.381 . S
C1790 C1796 1.383 . S
C1791 C1787 1.495 . S
C1791 H1797 0.959 . S
C1791 H1798 0.961 . S
C1791 H1799 0.960 . S
C1792 C1790 1.381 . S
C1792 C1793 1.394 . S
C1792 H1800 0.930 . S
C1793 C1792 1.394 . S
C1793 C1794 1.383 . S
C1793 H1801 0.929 . S
C1794 C1793 1.383 . S
C1794 C1795 1.377 . S
C1795 H1779 0.930 . S
C1795 C1794 1.377 . S
C1795 C1796 1.379 . S
C1796 H1780 0.931 . S
C1796 C1790 1.383 . S
C1796 C1795 1.379 . S
H1797 C1791 0.959 . S
H1798 C1791 0.961 . S
H1799 C1791 0.960 . S
H1800 C1792 0.930 . S
H1801 C1793 0.929 . S
H1802 C1810 0.929 . S
H1803 C1812 0.930 . S
H1804 C1814 0.930 . S
H1805 C1817 0.929 . S
H1806 C1820 0.930 . S
H1807 C1822 0.960 . S
H1808 C1822 0.960 . S
H1809 C1822 0.960 . S
C1810 H1802 0.929 . S
C1810 C1811 1.377 . S
C1810 C1812 1.384 . S
C1811 C1810 1.377 . S
C1811 C1817 1.390 . S
C1812 H1803 0.930 . S
C1812 C1810 1.384 . S
C1812 C1813 1.372 . S
C1813 C1812 1.372 . S
C1813 C1814 1.400 . S
C1813 C1818 1.490 . S
C1814 H1804 0.930 . S
C1814 C1813 1.400 . S
C1814 C1817 1.386 . S
H1815 C1831 0.930 . S
H1816 C1832 0.931 . S
C1817 H1805 0.929 . S
C1817 C1811 1.390 . S
C1817 C1814 1.386 . S
C1818 C1813 1.490 . S
C1818 C1820 1.395 . S
C1818 C1821 1.403 . S
H1819 C1825 0.930 . S
C1820 H1806 0.930 . S
C1820 C1818 1.395 . S
C1820 C1823 1.403 . S
C1821 C1818 1.403 . S
C1821 C1822 1.524 . S
C1821 C1825 1.400 . S
C1822 H1807 0.960 . S
C1822 H1808 0.960 . S
C1822 H1809 0.960 . S
C1822 C1821 1.524 . S
C1823 C1820 1.403 . S
C1823 C1824 1.392 . S
C1823 C1827 1.495 . S
C1824 C1823 1.392 . S
C1824 C1825 1.385 . S
C1824 C1826 1.478 . S
C1825 H1819 0.930 . S
C1825 C1821 1.400 . S
C1825 C1824 1.385 . S
C1826 C1824 1.478 . S
C1826 C1828 1.381 . S
C1826 C1832 1.383 . S
C1827 C1823 1.495 . S
C1827 H1833 0.959 . S
C1827 H1834 0.961 . S
C1827 H1835 0.960 . S
C1828 C1826 1.381 . S
C1828 C1829 1.394 . S
C1828 H1836 0.930 . S
C1829 C1828 1.394 . S
C1829 C1830 1.383 . S
C1829 H1837 0.929 . S
C1830 C1829 1.383 . S
C1830 C1831 1.377 . S
C1831 H1815 0.930 . S
C1831 C1830 1.377 . S
C1831 C1832 1.379 . S
C1832 H1816 0.931 . S
C1832 C1826 1.383 . S
C1832 C1831 1.379 . S
H1833 C1827 0.959 . S
H1834 C1827 0.961 . S
H1835 C1827 0.960 . S
H1836 C1828 0.930 . S
H1837 C1829 0.929 . S
H1838 C1846 0.929 . S
H1839 C1848 0.930 . S
H1840 C1850 0.930 . S
H1841 C1853 0.929 . S
H1842 C1856 0.930 . S
H1843 C1858 0.960 . S
H1844 C1858 0.960 . S
H1845 C1858 0.960 . S
C1846 H1838 0.929 . S
C1846 C1847 1.377 . S
C1846 C1848 1.384 . S
C1847 C1846 1.377 . S
C1847 C1853 1.390 . S
C1848 H1839 0.930 . S
C1848 C1846 1.384 . S
C1848 C1849 1.372 . S
C1849 C1848 1.372 . S
C1849 C1850 1.400 . S
C1849 C1854 1.490 . S
C1850 H1840 0.930 . S
C1850 C1849 1.400 . S
C1850 C1853 1.386 . S
H1851 C1867 0.930 . S
H1852 C1868 0.931 . S
C1853 H1841 0.929 . S
C1853 C1847 1.390 . S
C1853 C1850 1.386 . S
C1854 C1849 1.490 . S
C1854 C1856 1.395 . S
C1854 C1857 1.403 . S
H1855 C1861 0.930 . S
C1856 H1842 0.930 . S
C1856 C1854 1.395 . S
C1856 C1859 1.403 . S
C1857 C1854 1.403 . S
C1857 C1858 1.524 . S
C1857 C1861 1.400 . S
C1858 H1843 0.960 . S
C1858 H1844 0.960 . S
C1858 H1845 0.960 . S
C1858 C1857 1.524 . S
C1859 C1856 1.403 . S
C1859 C1860 1.392 . S
C1859 C1863 1.495 . S
C1860 C1859 1.392 . S
C1860 C1861 1.385 . S
C1860 C1862 1.478 . S
C1861 H1855 0.930 . S
C1861 C1857 1.400 . S
C1861 C1860 1.385 . S
C1862 C1860 1.478 . S
C1862 C1864 1.381 . S
C1862 C1868 1.383 . S
C1863 C1859 1.495 . S
C1863 H1869 0.959 . S
C1863 H1870 0.961 . S
C1863 H1871 0.960 . S
C1864 C1862 1.381 . S
C1864 C1865 1.394 . S
C1864 H1872 0.930 . S
C1865 C1864 1.394 . S
C1865 C1866 1.383 . S
C1865 H1873 0.929 . S
C1866 C1865 1.383 . S
C1866 C1867 1.377 . S
C1867 H1851 0.930 . S
C1867 C1866 1.377 . S
C1867 C1868 1.379 . S
C1868 H1852 0.931 . S
C1868 C1862 1.383 . S
C1868 C1867 1.379 . S
H1869 C1863 0.959 . S
H1870 C1863 0.961 . S
H1871 C1863 0.960 . S
H1872 C1864 0.930 . S
H1873 C1865 0.929 . S
H1874 C1882 0.929 . S
H1875 C1884 0.930 . S
H1876 C1886 0.930 . S
H1877 C1889 0.929 . S
H1878 C1892 0.930 . S
H1879 C1894 0.960 . S
H1880 C1894 0.960 . S
H1881 C1894 0.960 . S
C1882 H1874 0.929 . S
C1882 C1883 1.377 . S
C1882 C1884 1.384 . S
C1883 C1882 1.377 . S
C1883 C1889 1.390 . S
C1884 H1875 0.930 . S
C1884 C1882 1.384 . S
C1884 C1885 1.372 . S
C1885 C1884 1.372 . S
C1885 C1886 1.400 . S
C1885 C1890 1.490 . S
C1886 H1876 0.930 . S
C1886 C1885 1.400 . S
C1886 C1889 1.386 . S
H1887 C1903 0.930 . S
H1888 C1904 0.931 . S
C1889 H1877 0.929 . S
C1889 C1883 1.390 . S
C1889 C1886 1.386 . S
C1890 C1885 1.490 . S
C1890 C1892 1.395 . S
C1890 C1893 1.403 . S
H1891 C1897 0.930 . S
C1892 H1878 0.930 . S
C1892 C1890 1.395 . S
C1892 C1895 1.403 . S
C1893 C1890 1.403 . S
C1893 C1894 1.524 . S
C1893 C1897 1.400 . S
C1894 H1879 0.960 . S
C1894 H1880 0.960 . S
C1894 H1881 0.960 . S
C1894 C1893 1.524 . S
C1895 C1892 1.403 . S
C1895 C1896 1.392 . S
C1895 C1899 1.495 . S
C1896 C1895 1.392 . S
C1896 C1897 1.385 . S
C1896 C1898 1.478 . S
C1897 H1891 0.930 . S
C1897 C1893 1.400 . S
C1897 C1896 1.385 . S
C1898 C1896 1.478 . S
C1898 C1900 1.381 . S
C1898 C1904 1.383 . S
C1899 C1895 1.495 . S
C1899 H1905 0.959 . S
C1899 H1906 0.961 . S
C1899 H1907 0.960 . S
C1900 C1898 1.381 . S
C1900 C1901 1.394 . S
C1900 H1908 0.930 . S
C1901 C1900 1.394 . S
C1901 C1902 1.383 . S
C1901 H1909 0.929 . S
C1902 C1901 1.383 . S
C1902 C1903 1.377 . S
C1903 H1887 0.930 . S
C1903 C1902 1.377 . S
C1903 C1904 1.379 . S
C1904 H1888 0.931 . S
C1904 C1898 1.383 . S
C1904 C1903 1.379 . S
H1905 C1899 0.959 . S
H1906 C1899 0.961 . S
H1907 C1899 0.960 . S
H1908 C1900 0.930 . S
H1909 C1901 0.929 . S
H1910 C1918 0.929 . S
H1911 C1920 0.930 . S
H1912 C1922 0.930 . S
H1913 C1925 0.929 . S
H1914 C1928 0.930 . S
H1915 C1930 0.960 . S
H1916 C1930 0.960 . S
H1917 C1930 0.960 . S
C1918 H1910 0.929 . S
C1918 C1919 1.377 . S
C1918 C1920 1.384 . S
C1919 C1918 1.377 . S
C1919 C1925 1.390 . S
C1920 H1911 0.930 . S
C1920 C1918 1.384 . S
C1920 C1921 1.372 . S
C1921 C1920 1.372 . S
C1921 C1922 1.400 . S
C1921 C1926 1.490 . S
C1922 H1912 0.930 . S
C1922 C1921 1.400 . S
C1922 C1925 1.386 . S
H1923 C1939 0.930 . S
H1924 C1940 0.931 . S
C1925 H1913 0.929 . S
C1925 C1919 1.390 . S
C1925 C1922 1.386 . S
C1926 C1921 1.490 . S
C1926 C1928 1.395 . S
C1926 C1929 1.403 . S
H1927 C1933 0.930 . S
C1928 H1914 0.930 . S
C1928 C1926 1.395 . S
C1928 C1931 1.403 . S
C1929 C1926 1.403 . S
C1929 C1930 1.524 . S
C1929 C1933 1.400 . S
C1930 H1915 0.960 . S
C1930 H1916 0.960 . S
C1930 H1917 0.960 . S
C1930 C1929 1.524 . S
C1931 C1928 1.403 . S
C1931 C1932 1.392 . S
C1931 C1935 1.495 . S
C1932 C1931 1.392 . S
C1932 C1933 1.385 . S
C1932 C1934 1.478 . S
C1933 H1927 0.930 . S
C1933 C1929 1.400 . S
C1933 C1932 1.385 . S
C1934 C1932 1.478 . S
C1934 C1936 1.381 . S
C1934 C1940 1.383 . S
C1935 C1931 1.495 . S
C1935 H1941 0.959 . S
C1935 H1942 0.961 . S
C1935 H1943 0.960 . S
C1936 C1934 1.381 . S
C1936 C1937 1.394 . S
C1936 H1944 0.930 . S
C1937 C1936 1.394 . S
C1937 C1938 1.383 . S
C1937 H1945 0.929 . S
C1938 C1937 1.383 . S
C1938 C1939 1.377 . S
C1939 H1923 0.930 . S
C1939 C1938 1.377 . S
C1939 C1940 1.379 . S
C1940 H1924 0.931 . S
C1940 C1934 1.383 . S
C1940 C1939 1.379 . S
H1941 C1935 0.959 . S
H1942 C1935 0.961 . S
H1943 C1935 0.960 . S
H1944 C1936 0.930 . S
H1945 C1937 0.929 . S
H1946 C1954 0.929 . S
H1947 C1956 0.930 . S
H1948 C1958 0.930 . S
H1949 C1961 0.929 . S
H1950 C1964 0.930 . S
H1951 C1966 0.960 . S
H1952 C1966 0.960 . S
H1953 C1966 0.960 . S
C1954 H1946 0.929 . S
C1954 C1955 1.377 . S
C1954 C1956 1.384 . S
C1955 C1954 1.377 . S
C1955 C1961 1.390 . S
C1956 H1947 0.930 . S
C1956 C1954 1.384 . S
C1956 C1957 1.372 . S
C1957 C1956 1.372 . S
C1957 C1958 1.400 . S
C1957 C1962 1.490 . S
C1958 H1948 0.930 . S
C1958 C1957 1.400 . S
C1958 C1961 1.386 . S
H1959 C1975 0.930 . S
H1960 C1976 0.931 . S
C1961 H1949 0.929 . S
C1961 C1955 1.390 . S
C1961 C1958 1.386 . S
C1962 C1957 1.490 . S
C1962 C1964 1.395 . S
C1962 C1965 1.403 . S
H1963 C1969 0.930 . S
C1964 H1950 0.930 . S
C1964 C1962 1.395 . S
C1964 C1967 1.403 . S
C1965 C1962 1.403 . S
C1965 C1966 1.524 . S
C1965 C1969 1.400 . S
C1966 H1951 0.960 . S
C1966 H1952 0.960 . S
C1966 H1953 0.960 . S
C1966 C1965 1.524 . S
C1967 C1964 1.403 . S
C1967 C1968 1.392 . S
C1967 C1971 1.495 . S
C1968 C1967 1.392 . S
C1968 C1969 1.385 . S
C1968 C1970 1.478 . S
C1969 H1963 0.930 . S
C1969 C1965 1.400 . S
C1969 C1968 1.385 . S
C1970 C1968 1.478 . S
C1970 C1972 1.381 . S
C1970 C1976 1.383 . S
C1971 C1967 1.495 . S
C1971 H1977 0.959 . S
C1971 H1978 0.961 . S
C1971 H1979 0.960 . S
C1972 C1970 1.381 . S
C1972 C1973 1.394 . S
C1972 H1980 0.930 . S
C1973 C1972 1.394 . S
C1973 C1974 1.383 . S
C1973 H1981 0.929 . S
C1974 C1973 1.383 . S
C1974 C1975 1.377 . S
C1975 H1959 0.930 . S
C1975 C1974 1.377 . S
C1975 C1976 1.379 . S
C1976 H1960 0.931 . S
C1976 C1970 1.383 . S
C1976 C1975 1.379 . S
H1977 C1971 0.959 . S
H1978 C1971 0.961 . S
H1979 C1971 0.960 . S
H1980 C1972 0.930 . S
H1981 C1973 0.929 . S
H1982 C1990 0.929 . S
H1983 C1992 0.930 . S
H1984 C1994 0.930 . S
H1985 C1997 0.929 . S
H1986 C2000 0.930 . S
H1987 C2002 0.960 . S
H1988 C2002 0.960 . S
H1989 C2002 0.960 . S
C1990 H1982 0.929 . S
C1990 C1991 1.377 . S
C1990 C1992 1.384 . S
C1991 C1990 1.377 . S
C1991 C1997 1.390 . S
C1992 H1983 0.930 . S
C1992 C1990 1.384 . S
C1992 C1993 1.372 . S
C1993 C1992 1.372 . S
C1993 C1994 1.400 . S
C1993 C1998 1.490 . S
C1994 H1984 0.930 . S
C1994 C1993 1.400 . S
C1994 C1997 1.386 . S
H1995 C2011 0.930 . S
H1996 C2012 0.931 . S
C1997 H1985 0.929 . S
C1997 C1991 1.390 . S
C1997 C1994 1.386 . S
C1998 C1993 1.490 . S
C1998 C2000 1.395 . S
C1998 C2001 1.403 . S
H1999 C2005 0.930 . S
C2000 H1986 0.930 . S
C2000 C1998 1.395 . S
C2000 C2003 1.403 . S
C2001 C1998 1.403 . S
C2001 C2002 1.524 . S
C2001 C2005 1.400 . S
C2002 H1987 0.960 . S
C2002 H1988 0.960 . S
C2002 H1989 0.960 . S
C2002 C2001 1.524 . S
C2003 C2000 1.403 . S
C2003 C2004 1.392 . S
C2003 C2007 1.495 . S
C2004 C2003 1.392 . S
C2004 C2005 1.385 . S
C2004 C2006 1.478 . S
C2005 H1999 0.930 . S
C2005 C2001 1.400 . S
C2005 C2004 1.385 . S
C2006 C2004 1.478 . S
C2006 C2008 1.381 . S
C2006 C2012 1.383 . S
C2007 C2003 1.495 . S
C2007 H2013 0.959 . S
C2007 H2014 0.961 . S
C2007 H2015 0.960 . S
C2008 C2006 1.381 . S
C2008 C2009 1.394 . S
C2008 H2016 0.930 . S
C2009 C2008 1.394 . S
C2009 C2010 1.383 . S
C2009 H2017 0.929 . S
C2010 C2009 1.383 . S
C2010 C2011 1.377 . S
C2011 H1995 0.930 . S
C2011 C2010 1.377 . S
C2011 C2012 1.379 . S
C2012 H1996 0.931 . S
C2012 C2006 1.383 . S
C2012 C2011 1.379 . S
H2013 C2007 0.959 . S
H2014 C2007 0.961 . S
H2015 C2007 0.960 . S
H2016 C2008 0.930 . S
H2017 C2009 0.929 . S
H2018 C2026 0.929 . S
H2019 C2028 0.930 . S
H2020 C2030 0.930 . S
H2021 C2033 0.929 . S
H2022 C2036 0.930 . S
H2023 C2038 0.960 . S
H2024 C2038 0.960 . S
H2025 C2038 0.960 . S
C2026 H2018 0.929 . S
C2026 C2027 1.377 . S
C2026 C2028 1.384 . S
C2027 C2026 1.377 . S
C2027 C2033 1.390 . S
C2028 H2019 0.930 . S
C2028 C2026 1.384 . S
C2028 C2029 1.372 . S
C2029 C2028 1.372 . S
C2029 C2030 1.400 . S
C2029 C2034 1.490 . S
C2030 H2020 0.930 . S
C2030 C2029 1.400 . S
C2030 C2033 1.386 . S
H2031 C2047 0.930 . S
H2032 C2048 0.931 . S
C2033 H2021 0.929 . S
C2033 C2027 1.390 . S
C2033 C2030 1.386 . S
C2034 C2029 1.490 . S
C2034 C2036 1.395 . S
C2034 C2037 1.403 . S
H2035 C2041 0.930 . S
C2036 H2022 0.930 . S
C2036 C2034 1.395 . S
C2036 C2039 1.403 . S
C2037 C2034 1.403 . S
C2037 C2038 1.524 . S
C2037 C2041 1.400 . S
C2038 H2023 0.960 . S
C2038 H2024 0.960 . S
C2038 H2025 0.960 . S
C2038 C2037 1.524 . S
C2039 C2036 1.403 . S
C2039 C2040 1.392 . S
C2039 C2043 1.495 . S
C2040 C2039 1.392 . S
C2040 C2041 1.385 . S
C2040 C2042 1.478 . S
C2041 H2035 0.930 . S
C2041 C2037 1.400 . S
C2041 C2040 1.385 . S
C2042 C2040 1.478 . S
C2042 C2044 1.381 . S
C2042 C2048 1.383 . S
C2043 C2039 1.495 . S
C2043 H2049 0.959 . S
C2043 H2050 0.961 . S
C2043 H2051 0.960 . S
C2044 C2042 1.381 . S
C2044 C2045 1.394 . S
C2044 H2052 0.930 . S
C2045 C2044 1.394 . S
C2045 C2046 1.383 . S
C2045 H2053 0.929 . S
C2046 C2045 1.383 . S
C2046 C2047 1.377 . S
C2047 H2031 0.930 . S
C2047 C2046 1.377 . S
C2047 C2048 1.379 . S
C2048 H2032 0.931 . S
C2048 C2042 1.383 . S
C2048 C2047 1.379 . S
H2049 C2043 0.959 . S
H2050 C2043 0.961 . S
H2051 C2043 0.960 . S
H2052 C2044 0.930 . S
H2053 C2045 0.929 . S
H2054 C2062 0.929 . S
H2055 C2064 0.930 . S
H2056 C2066 0.930 . S
H2057 C2069 0.929 . S
H2058 C2072 0.930 . S
H2059 C2074 0.960 . S
H2060 C2074 0.960 . S
H2061 C2074 0.960 . S
C2062 H2054 0.929 . S
C2062 C2063 1.377 . S
C2062 C2064 1.384 . S
C2063 C2062 1.377 . S
C2063 C2069 1.390 . S
C2064 H2055 0.930 . S
C2064 C2062 1.384 . S
C2064 C2065 1.372 . S
C2065 C2064 1.372 . S
C2065 C2066 1.400 . S
C2065 C2070 1.490 . S
C2066 H2056 0.930 . S
C2066 C2065 1.400 . S
C2066 C2069 1.386 . S
H2067 C2083 0.930 . S
H2068 C2084 0.931 . S
C2069 H2057 0.929 . S
C2069 C2063 1.390 . S
C2069 C2066 1.386 . S
C2070 C2065 1.490 . S
C2070 C2072 1.395 . S
C2070 C2073 1.403 . S
H2071 C2077 0.930 . S
C2072 H2058 0.930 . S
C2072 C2070 1.395 . S
C2072 C2075 1.403 . S
C2073 C2070 1.403 . S
C2073 C2074 1.524 . S
C2073 C2077 1.400 . S
C2074 H2059 0.960 . S
C2074 H2060 0.960 . S
C2074 H2061 0.960 . S
C2074 C2073 1.524 . S
C2075 C2072 1.403 . S
C2075 C2076 1.392 . S
C2075 C2079 1.495 . S
C2076 C2075 1.392 . S
C2076 C2077 1.385 . S
C2076 C2078 1.478 . S
C2077 H2071 0.930 . S
C2077 C2073 1.400 . S
C2077 C2076 1.385 . S
C2078 C2076 1.478 . S
C2078 C2080 1.381 . S
C2078 C2084 1.383 . S
C2079 C2075 1.495 . S
C2079 H2085 0.959 . S
C2079 H2086 0.961 . S
C2079 H2087 0.960 . S
C2080 C2078 1.381 . S
C2080 C2081 1.394 . S
C2080 H2088 0.930 . S
C2081 C2080 1.394 . S
C2081 C2082 1.383 . S
C2081 H2089 0.929 . S
C2082 C2081 1.383 . S
C2082 C2083 1.377 . S
C2083 H2067 0.930 . S
C2083 C2082 1.377 . S
C2083 C2084 1.379 . S
C2084 H2068 0.931 . S
C2084 C2078 1.383 . S
C2084 C2083 1.379 . S
H2085 C2079 0.959 . S
H2086 C2079 0.961 . S
H2087 C2079 0.960 . S
H2088 C2080 0.930 . S
H2089 C2081 0.929 . S
H2090 C2098 0.929 . S
H2091 C2100 0.930 . S
H2092 C2102 0.930 . S
H2093 C2105 0.929 . S
H2094 C2108 0.930 . S
H2095 C2110 0.960 . S
H2096 C2110 0.960 . S
H2097 C2110 0.960 . S
C2098 H2090 0.929 . S
C2098 C2099 1.377 . S
C2098 C2100 1.384 . S
C2099 C2098 1.377 . S
C2099 C2105 1.390 . S
C2100 H2091 0.930 . S
C2100 C2098 1.384 . S
C2100 C2101 1.372 . S
C2101 C2100 1.372 . S
C2101 C2102 1.400 . S
C2101 C2106 1.490 . S
C2102 H2092 0.930 . S
C2102 C2101 1.400 . S
C2102 C2105 1.386 . S
H2103 C2119 0.930 . S
H2104 C2120 0.931 . S
C2105 H2093 0.929 . S
C2105 C2099 1.390 . S
C2105 C2102 1.386 . S
C2106 C2101 1.490 . S
C2106 C2108 1.395 . S
C2106 C2109 1.403 . S
H2107 C2113 0.930 . S
C2108 H2094 0.930 . S
C2108 C2106 1.395 . S
C2108 C2111 1.403 . S
C2109 C2106 1.403 . S
C2109 C2110 1.524 . S
C2109 C2113 1.400 . S
C2110 H2095 0.960 . S
C2110 H2096 0.960 . S
C2110 H2097 0.960 . S
C2110 C2109 1.524 . S
C2111 C2108 1.403 . S
C2111 C2112 1.392 . S
C2111 C2115 1.495 . S
C2112 C2111 1.392 . S
C2112 C2113 1.385 . S
C2112 C2114 1.478 . S
C2113 H2107 0.930 . S
C2113 C2109 1.400 . S
C2113 C2112 1.385 . S
C2114 C2112 1.478 . S
C2114 C2116 1.381 . S
C2114 C2120 1.383 . S
C2115 C2111 1.495 . S
C2115 H2121 0.959 . S
C2115 H2122 0.961 . S
C2115 H2123 0.960 . S
C2116 C2114 1.381 . S
C2116 C2117 1.394 . S
C2116 H2124 0.930 . S
C2117 C2116 1.394 . S
C2117 C2118 1.383 . S
C2117 H2125 0.929 . S
C2118 C2117 1.383 . S
C2118 C2119 1.377 . S
C2119 H2103 0.930 . S
C2119 C2118 1.377 . S
C2119 C2120 1.379 . S
C2120 H2104 0.931 . S
C2120 C2114 1.383 . S
C2120 C2119 1.379 . S
H2121 C2115 0.959 . S
H2122 C2115 0.961 . S
H2123 C2115 0.960 . S
H2124 C2116 0.930 . S
H2125 C2117 0.929 . S
H2126 C2134 0.929 . S
H2127 C2136 0.930 . S
H2128 C2138 0.930 . S
H2129 C2141 0.929 . S
H2130 C2144 0.930 . S
H2131 C2146 0.960 . S
H2132 C2146 0.960 . S
H2133 C2146 0.960 . S
C2134 H2126 0.929 . S
C2134 C2135 1.377 . S
C2134 C2136 1.384 . S
C2135 C2134 1.377 . S
C2135 C2141 1.390 . S
C2136 H2127 0.930 . S
C2136 C2134 1.384 . S
C2136 C2137 1.372 . S
C2137 C2136 1.372 . S
C2137 C2138 1.400 . S
C2137 C2142 1.490 . S
C2138 H2128 0.930 . S
C2138 C2137 1.400 . S
C2138 C2141 1.386 . S
H2139 C2155 0.930 . S
H2140 C2156 0.931 . S
C2141 H2129 0.929 . S
C2141 C2135 1.390 . S
C2141 C2138 1.386 . S
C2142 C2137 1.490 . S
C2142 C2144 1.395 . S
C2142 C2145 1.403 . S
H2143 C2149 0.930 . S
C2144 H2130 0.930 . S
C2144 C2142 1.395 . S
C2144 C2147 1.403 . S
C2145 C2142 1.403 . S
C2145 C2146 1.524 . S
C2145 C2149 1.400 . S
C2146 H2131 0.960 . S
C2146 H2132 0.960 . S
C2146 H2133 0.960 . S
C2146 C2145 1.524 . S
C2147 C2144 1.403 . S
C2147 C2148 1.392 . S
C2147 C2151 1.495 . S
C2148 C2147 1.392 . S
C2148 C2149 1.385 . S
C2148 C2150 1.478 . S
C2149 H2143 0.930 . S
C2149 C2145 1.400 . S
C2149 C2148 1.385 . S
C2150 C2148 1.478 . S
C2150 C2152 1.381 . S
C2150 C2156 1.383 . S
C2151 C2147 1.495 . S
C2151 H2157 0.959 . S
C2151 H2158 0.961 . S
C2151 H2159 0.960 . S
C2152 C2150 1.381 . S
C2152 C2153 1.394 . S
C2152 H2160 0.930 . S
C2153 C2152 1.394 . S
C2153 C2154 1.383 . S
C2153 H2161 0.929 . S
C2154 C2153 1.383 . S
C2154 C2155 1.377 . S
C2155 H2139 0.930 . S
C2155 C2154 1.377 . S
C2155 C2156 1.379 . S
C2156 H2140 0.931 . S
C2156 C2150 1.383 . S
C2156 C2155 1.379 . S
H2157 C2151 0.959 . S
H2158 C2151 0.961 . S
H2159 C2151 0.960 . S
H2160 C2152 0.930 . S
H2161 C2153 0.929 . S
H2162 C2170 0.929 . S
H2163 C2172 0.930 . S
H2164 C2174 0.930 . S
H2165 C2177 0.929 . S
H2166 C2180 0.930 . S
H2167 C2182 0.960 . S
H2168 C2182 0.960 . S
H2169 C2182 0.960 . S
C2170 H2162 0.929 . S
C2170 C2171 1.377 . S
C2170 C2172 1.384 . S
C2171 C2170 1.377 . S
C2171 C2177 1.390 . S
C2172 H2163 0.930 . S
C2172 C2170 1.384 . S
C2172 C2173 1.372 . S
C2173 C2172 1.372 . S
C2173 C2174 1.400 . S
C2173 C2178 1.490 . S
C2174 H2164 0.930 . S
C2174 C2173 1.400 . S
C2174 C2177 1.386 . S
H2175 C2191 0.930 . S
H2176 C2192 0.931 . S
C2177 H2165 0.929 . S
C2177 C2171 1.390 . S
C2177 C2174 1.386 . S
C2178 C2173 1.490 . S
C2178 C2180 1.395 . S
C2178 C2181 1.403 . S
H2179 C2185 0.930 . S
C2180 H2166 0.930 . S
C2180 C2178 1.395 . S
C2180 C2183 1.403 . S
C2181 C2178 1.403 . S
C2181 C2182 1.524 . S
C2181 C2185 1.400 . S
C2182 H2167 0.960 . S
C2182 H2168 0.960 . S
C2182 H2169 0.960 . S
C2182 C2181 1.524 . S
C2183 C2180 1.403 . S
C2183 C2184 1.392 . S
C2183 C2187 1.495 . S
C2184 C2183 1.392 . S
C2184 C2185 1.385 . S
C2184 C2186 1.478 . S
C2185 H2179 0.930 . S
C2185 C2181 1.400 . S
C2185 C2184 1.385 . S
C2186 C2184 1.478 . S
C2186 C2188 1.381 . S
C2186 C2192 1.383 . S
C2187 C2183 1.495 . S
C2187 H2193 0.959 . S
C2187 H2194 0.961 . S
C2187 H2195 0.960 . S
C2188 C2186 1.381 . S
C2188 C2189 1.394 . S
C2188 H2196 0.930 . S
C2189 C2188 1.394 . S
C2189 C2190 1.383 . S
C2189 H2197 0.929 . S
C2190 C2189 1.383 . S
C2190 C2191 1.377 . S
C2191 H2175 0.930 . S
C2191 C2190 1.377 . S
C2191 C2192 1.379 . S
C2192 H2176 0.931 . S
C2192 C2186 1.383 . S
C2192 C2191 1.379 . S
H2193 C2187 0.959 . S
H2194 C2187 0.961 . S
H2195 C2187 0.960 . S
H2196 C2188 0.930 . S
H2197 C2189 0.929 . S
C498 C299 0.653 . S
C479 C4 0.163 . S
C534 C300 1.842 . S
C515 C63 1.942 . S
C570 C294 0.946 . S
C551 C72 0.938 . S
C587 C102 1.098 . S
C606 C293 1.114 . S
C623 C136 1.941 . S
C642 C296 1.837 . S
C678 C298 0.954 . S
C659 C183 0.928 . S
C695 C233 1.104 . S
C714 C297 1.118 . S
C731 C251 0.174 . S
C750 C295 0.527 . S
C786 C330 1.546 . S
C767 C29 1.548 . S
C803 C42 2.049 . S
C822 C361 1.949 . S
C858 C329 1.458 . S
C839 C97 1.480 . S
C894 C364 0.965 . S
C875 C115 1.004 . S
C911 C149 1.168 . S
C930 C327 1.136 . S
C966 C359 1.538 . S
C947 C187 1.561 . S
C983 C212 1.774 . S
C1002 C332 1.706 . S
C1019 C255 1.475 . S
C1038 C366 1.393 . S
C1055 C8 1.473 . S
C1074 C362 1.419 . S
C1091 C153 2.052 . S
C1110 C365 1.950 . S
C1146 C333 1.425 . S
C1127 C170 1.481 . S
C1182 C360 1.049 . S
C1163 C208 1.014 . S
C1199 C238 1.555 . S
C1218 C326 1.551 . S
C1235 C76 1.565 . S
C1254 C363 1.542 . S
C1290 C328 1.707 . S
C1271 C119 1.769 . S
C1307 C38 1.160 . S
C1326 C331 1.134 . S
C1343 C242 0.158 . S
C1362 C398 0.533 . S
C1379 C165 1.292 . S
C1398 C399 1.255 . S
C1434 C393 0.882 . S
C1415 C174 0.926 . S
C1470 C392 1.732 . S
C1451 C204 1.744 . S
C1487 C34 1.289 . S
C1506 C395 1.167 . S
C1542 C397 0.872 . S
C1523 C81 0.925 . S
C1559 C131 1.740 . S
C1578 C396 1.703 . S
C1595 C13 0.140 . S
C1614 C394 0.642 . S
C1631 C267 1.704 . S
C1650 C432 1.613 . S
C1686 C464 1.762 . S
C1667 C144 1.776 . S
C1703 C199 1.333 . S
C1722 C425 1.330 . S
C1739 C217 1.204 . S
C1758 C459 1.187 . S
C1794 C430 1.021 . S
C1775 C47 0.996 . S
C1811 C85 1.800 . S
C1830 C461 1.748 . S
C1866 C427 1.994 . S
C1847 C110 2.051 . S
C1902 C462 1.348 . S
C1883 C17 1.341 . S
C1938 C458 1.335 . S
C1919 C246 1.343 . S
C1955 C51 1.781 . S
C1974 C460 1.733 . S
C1991 C68 1.331 . S
C2010 C429 1.330 . S
C2046 C463 1.225 . S
C2027 C106 1.203 . S
C2063 C0 1.701 . S
C2082 C428 1.650 . S
C2099 C178 1.798 . S
C2118 C465 1.743 . S
C2154 C431 1.979 . S
C2135 C221 2.055 . S
C2190 C426 0.996 . S
C2171 C140 0.992 . S
