# Generated by pormake.
# Topology tph, (6,8)-cn, num edge types: 1
# Building blocks:
#     Node 0, Type 0, BuildingBlock: MIDCAF_clean_sbu_0, # of connection points: 6
#     Node 1, Type 0, BuildingBlock: MIDCAF_clean_sbu_0, # of connection points: 6
#     Node 2, Type 0, BuildingBlock: MIDCAF_clean_sbu_0, # of connection points: 6
#     Node 3, Type 0, BuildingBlock: MIDCAF_clean_sbu_0, # of connection points: 6
#     Node 4, Type 0, BuildingBlock: MIDCAF_clean_sbu_0, # of connection points: 6
#     Node 5, Type 0, BuildingBlock: MIDCAF_clean_sbu_0, # of connection points: 6
#     Node 6, Type 0, BuildingBlock: MIDCAF_clean_sbu_0, # of connection points: 6
#     Node 7, Type 0, BuildingBlock: MIDCAF_clean_sbu_0, # of connection points: 6
#     Node 8, Type 0, BuildingBlock: MIDCAF_clean_sbu_0, # of connection points: 6
#     Node 9, Type 0, BuildingBlock: MIDCAF_clean_sbu_0, # of connection points: 6
#     Node 10, Type 0, BuildingBlock: MIDCAF_clean_sbu_0, # of connection points: 6
#     Node 11, Type 0, BuildingBlock: MIDCAF_clean_sbu_0, # of connection points: 6
#     Node 12, Type 0, BuildingBlock: MIDCAF_clean_sbu_0, # of connection points: 6
#     Node 13, Type 0, BuildingBlock: MIDCAF_clean_sbu_0, # of connection points: 6
#     Node 14, Type 0, BuildingBlock: MIDCAF_clean_sbu_0, # of connection points: 6
#     Node 15, Type 0, BuildingBlock: MIDCAF_clean_sbu_0, # of connection points: 6
#     Node 16, Type 1, BuildingBlock: TAGTUT_clean_sbu_3, # of connection points: 8
#     Node 17, Type 1, BuildingBlock: TAGTUT_clean_sbu_3, # of connection points: 8
#     Node 18, Type 1, BuildingBlock: TAGTUT_clean_sbu_3, # of connection points: 8
#     Node 19, Type 1, BuildingBlock: TAGTUT_clean_sbu_3, # of connection points: 8
#     Node 20, Type 1, BuildingBlock: TAGTUT_clean_sbu_3, # of connection points: 8
#     Node 21, Type 1, BuildingBlock: TAGTUT_clean_sbu_3, # of connection points: 8
#     Node 22, Type 1, BuildingBlock: TAGTUT_clean_sbu_3, # of connection points: 8
#     Node 23, Type 1, BuildingBlock: TAGTUT_clean_sbu_3, # of connection points: 8
#     Node 24, Type 1, BuildingBlock: TAGTUT_clean_sbu_3, # of connection points: 8
#     Node 25, Type 1, BuildingBlock: TAGTUT_clean_sbu_3, # of connection points: 8
#     Node 26, Type 1, BuildingBlock: TAGTUT_clean_sbu_3, # of connection points: 8
#     Node 27, Type 1, BuildingBlock: TAGTUT_clean_sbu_3, # of connection points: 8
#     Edge 28, Type (0, 1), BuildingBlock: OJICUG_clean_linker_0, # of connection points: 2
#     Edge 29, Type (0, 1), BuildingBlock: OJICUG_clean_linker_0, # of connection points: 2
#     Edge 30, Type (0, 1), BuildingBlock: OJICUG_clean_linker_0, # of connection points: 2
#     Edge 31, Type (0, 1), BuildingBlock: OJICUG_clean_linker_0, # of connection points: 2
#     Edge 32, Type (0, 1), BuildingBlock: OJICUG_clean_linker_0, # of connection points: 2
#     Edge 33, Type (0, 1), BuildingBlock: OJICUG_clean_linker_0, # of connection points: 2
#     Edge 34, Type (0, 1), BuildingBlock: OJICUG_clean_linker_0, # of connection points: 2
#     Edge 35, Type (0, 1), BuildingBlock: OJICUG_clean_linker_0, # of connection points: 2
#     Edge 36, Type (0, 1), BuildingBlock: OJICUG_clean_linker_0, # of connection points: 2
#     Edge 37, Type (0, 1), BuildingBlock: OJICUG_clean_linker_0, # of connection points: 2
#     Edge 38, Type (0, 1), BuildingBlock: OJICUG_clean_linker_0, # of connection points: 2
#     Edge 39, Type (0, 1), BuildingBlock: OJICUG_clean_linker_0, # of connection points: 2
#     Edge 40, Type (0, 1), BuildingBlock: OJICUG_clean_linker_0, # of connection points: 2
#     Edge 41, Type (0, 1), BuildingBlock: OJICUG_clean_linker_0, # of connection points: 2
#     Edge 42, Type (0, 1), BuildingBlock: OJICUG_clean_linker_0, # of connection points: 2
#     Edge 43, Type (0, 1), BuildingBlock: OJICUG_clean_linker_0, # of connection points: 2
#     Edge 44, Type (0, 1), BuildingBlock: OJICUG_clean_linker_0, # of connection points: 2
#     Edge 45, Type (0, 1), BuildingBlock: OJICUG_clean_linker_0, # of connection points: 2
#     Edge 46, Type (0, 1), BuildingBlock: OJICUG_clean_linker_0, # of connection points: 2
#     Edge 47, Type (0, 1), BuildingBlock: OJICUG_clean_linker_0, # of connection points: 2
#     Edge 48, Type (0, 1), BuildingBlock: OJICUG_clean_linker_0, # of connection points: 2
#     Edge 49, Type (0, 1), BuildingBlock: OJICUG_clean_linker_0, # of connection points: 2
#     Edge 50, Type (0, 1), BuildingBlock: OJICUG_clean_linker_0, # of connection points: 2
#     Edge 51, Type (0, 1), BuildingBlock: OJICUG_clean_linker_0, # of connection points: 2
#     Edge 52, Type (0, 1), BuildingBlock: OJICUG_clean_linker_0, # of connection points: 2
#     Edge 53, Type (0, 1), BuildingBlock: OJICUG_clean_linker_0, # of connection points: 2
#     Edge 54, Type (0, 1), BuildingBlock: OJICUG_clean_linker_0, # of connection points: 2
#     Edge 55, Type (0, 1), BuildingBlock: OJICUG_clean_linker_0, # of connection points: 2
#     Edge 56, Type (0, 1), BuildingBlock: OJICUG_clean_linker_0, # of connection points: 2
#     Edge 57, Type (0, 1), BuildingBlock: OJICUG_clean_linker_0, # of connection points: 2
#     Edge 58, Type (0, 1), BuildingBlock: OJICUG_clean_linker_0, # of connection points: 2
#     Edge 59, Type (0, 1), BuildingBlock: OJICUG_clean_linker_0, # of connection points: 2
#     Edge 60, Type (0, 1), BuildingBlock: OJICUG_clean_linker_0, # of connection points: 2
#     Edge 61, Type (0, 1), BuildingBlock: OJICUG_clean_linker_0, # of connection points: 2
#     Edge 62, Type (0, 1), BuildingBlock: OJICUG_clean_linker_0, # of connection points: 2
#     Edge 63, Type (0, 1), BuildingBlock: OJICUG_clean_linker_0, # of connection points: 2
#     Edge 64, Type (0, 1), BuildingBlock: OJICUG_clean_linker_0, # of connection points: 2
#     Edge 65, Type (0, 1), BuildingBlock: OJICUG_clean_linker_0, # of connection points: 2
#     Edge 66, Type (0, 1), BuildingBlock: OJICUG_clean_linker_0, # of connection points: 2
#     Edge 67, Type (0, 1), BuildingBlock: OJICUG_clean_linker_0, # of connection points: 2
#     Edge 68, Type (0, 1), BuildingBlock: OJICUG_clean_linker_0, # of connection points: 2
#     Edge 69, Type (0, 1), BuildingBlock: OJICUG_clean_linker_0, # of connection points: 2
#     Edge 70, Type (0, 1), BuildingBlock: OJICUG_clean_linker_0, # of connection points: 2
#     Edge 71, Type (0, 1), BuildingBlock: OJICUG_clean_linker_0, # of connection points: 2
#     Edge 72, Type (0, 1), BuildingBlock: OJICUG_clean_linker_0, # of connection points: 2
#     Edge 73, Type (0, 1), BuildingBlock: OJICUG_clean_linker_0, # of connection points: 2
#     Edge 74, Type (0, 1), BuildingBlock: OJICUG_clean_linker_0, # of connection points: 2
#     Edge 75, Type (0, 1), BuildingBlock: OJICUG_clean_linker_0, # of connection points: 2
#     Edge 76, Type (0, 1), BuildingBlock: OJICUG_clean_linker_0, # of connection points: 2
#     Edge 77, Type (0, 1), BuildingBlock: OJICUG_clean_linker_0, # of connection points: 2
#     Edge 78, Type (0, 1), BuildingBlock: OJICUG_clean_linker_0, # of connection points: 2
#     Edge 79, Type (0, 1), BuildingBlock: OJICUG_clean_linker_0, # of connection points: 2
#     Edge 80, Type (0, 1), BuildingBlock: OJICUG_clean_linker_0, # of connection points: 2
#     Edge 81, Type (0, 1), BuildingBlock: OJICUG_clean_linker_0, # of connection points: 2
#     Edge 82, Type (0, 1), BuildingBlock: OJICUG_clean_linker_0, # of connection points: 2
#     Edge 83, Type (0, 1), BuildingBlock: OJICUG_clean_linker_0, # of connection points: 2
#     Edge 84, Type (0, 1), BuildingBlock: OJICUG_clean_linker_0, # of connection points: 2
#     Edge 85, Type (0, 1), BuildingBlock: OJICUG_clean_linker_0, # of connection points: 2
#     Edge 86, Type (0, 1), BuildingBlock: OJICUG_clean_linker_0, # of connection points: 2
#     Edge 87, Type (0, 1), BuildingBlock: OJICUG_clean_linker_0, # of connection points: 2
#     Edge 88, Type (0, 1), BuildingBlock: OJICUG_clean_linker_0, # of connection points: 2
#     Edge 89, Type (0, 1), BuildingBlock: OJICUG_clean_linker_0, # of connection points: 2
#     Edge 90, Type (0, 1), BuildingBlock: OJICUG_clean_linker_0, # of connection points: 2
#     Edge 91, Type (0, 1), BuildingBlock: OJICUG_clean_linker_0, # of connection points: 2
#     Edge 92, Type (0, 1), BuildingBlock: OJICUG_clean_linker_0, # of connection points: 2
#     Edge 93, Type (0, 1), BuildingBlock: OJICUG_clean_linker_0, # of connection points: 2
#     Edge 94, Type (0, 1), BuildingBlock: OJICUG_clean_linker_0, # of connection points: 2
#     Edge 95, Type (0, 1), BuildingBlock: OJICUG_clean_linker_0, # of connection points: 2
#     Edge 96, Type (0, 1), BuildingBlock: OJICUG_clean_linker_0, # of connection points: 2
#     Edge 97, Type (0, 1), BuildingBlock: OJICUG_clean_linker_0, # of connection points: 2
#     Edge 98, Type (0, 1), BuildingBlock: OJICUG_clean_linker_0, # of connection points: 2
#     Edge 99, Type (0, 1), BuildingBlock: OJICUG_clean_linker_0, # of connection points: 2
#     Edge 100, Type (0, 1), BuildingBlock: OJICUG_clean_linker_0, # of connection points: 2
#     Edge 101, Type (0, 1), BuildingBlock: OJICUG_clean_linker_0, # of connection points: 2
#     Edge 102, Type (0, 1), BuildingBlock: OJICUG_clean_linker_0, # of connection points: 2
#     Edge 103, Type (0, 1), BuildingBlock: OJICUG_clean_linker_0, # of connection points: 2
#     Edge 104, Type (0, 1), BuildingBlock: OJICUG_clean_linker_0, # of connection points: 2
#     Edge 105, Type (0, 1), BuildingBlock: OJICUG_clean_linker_0, # of connection points: 2
#     Edge 106, Type (0, 1), BuildingBlock: OJICUG_clean_linker_0, # of connection points: 2
#     Edge 107, Type (0, 1), BuildingBlock: OJICUG_clean_linker_0, # of connection points: 2
#     Edge 108, Type (0, 1), BuildingBlock: OJICUG_clean_linker_0, # of connection points: 2
#     Edge 109, Type (0, 1), BuildingBlock: OJICUG_clean_linker_0, # of connection points: 2
#     Edge 110, Type (0, 1), BuildingBlock: OJICUG_clean_linker_0, # of connection points: 2
#     Edge 111, Type (0, 1), BuildingBlock: OJICUG_clean_linker_0, # of connection points: 2
#     Edge 112, Type (0, 1), BuildingBlock: OJICUG_clean_linker_0, # of connection points: 2
#     Edge 113, Type (0, 1), BuildingBlock: OJICUG_clean_linker_0, # of connection points: 2
#     Edge 114, Type (0, 1), BuildingBlock: OJICUG_clean_linker_0, # of connection points: 2
#     Edge 115, Type (0, 1), BuildingBlock: OJICUG_clean_linker_0, # of connection points: 2
#     Edge 116, Type (0, 1), BuildingBlock: OJICUG_clean_linker_0, # of connection points: 2
#     Edge 117, Type (0, 1), BuildingBlock: OJICUG_clean_linker_0, # of connection points: 2
#     Edge 118, Type (0, 1), BuildingBlock: OJICUG_clean_linker_0, # of connection points: 2
#     Edge 119, Type (0, 1), BuildingBlock: OJICUG_clean_linker_0, # of connection points: 2
#     Edge 120, Type (0, 1), BuildingBlock: OJICUG_clean_linker_0, # of connection points: 2
#     Edge 121, Type (0, 1), BuildingBlock: OJICUG_clean_linker_0, # of connection points: 2
#     Edge 122, Type (0, 1), BuildingBlock: OJICUG_clean_linker_0, # of connection points: 2
#     Edge 123, Type (0, 1), BuildingBlock: OJICUG_clean_linker_0, # of connection points: 2
# Relax obj value: 0.147
# Max RMSD: 0.254
# Mean RMSD: 0.164
data_MOF--net-tph--node1-MIDCAF_clean_sbu_0--node2-TAGTUT_clean_sbu_3--edge1-OJICUG_clean_linker_0
_symmetry_space_group_name_H-M    P1
_symmetry_Int_Tables_number       1
_symmetry_cell_setting            triclinic
loop_
_symmetry_equiv_pos_as_xyz
'x, y, z'
_cell_length_a     35.361741
_cell_length_b     35.241017
_cell_length_c     35.262041
_cell_angle_alpha  89.613402
_cell_angle_beta   89.834611
_cell_angle_gamma 89.91872
loop_
_atom_site_label
_atom_site_type_symbol
_atom_site_fract_x
_atom_site_fract_y
_atom_site_fract_z
_atom_type_partial_charge
Zn0 Zn 0.22963 0.23084 0.21361 0.0
Zn1 Zn 0.12595 0.16757 0.1559 0.0
Zn2 Zn 0.17656 0.19657 0.18416 0.0
C3 C 0.10553 0.16173 0.22653 0.0
C4 C 0.1221 0.23233 0.12124 0.0
O5 O 0.23001 0.17497 0.15852 0.0
O6 O 0.27254 0.20081 0.19611 0.0
C7 C 0.19056 0.20123 0.27379 0.0
O8 O 0.14175 0.16582 0.22764 0.0
O9 O 0.08808 0.17095 0.1968 0.0
O10 O 0.11554 0.19876 0.11133 0.0
O11 O 0.1419 0.23867 0.15118 0.0
O12 O 0.21557 0.22586 0.26717 0.0
O13 O 0.17339 0.18519 0.246 0.0
O14 O 0.16978 0.2578 0.17268 0.0
O15 O 0.22432 0.28146 0.19138 0.0
C16 C 0.1922 0.28631 0.17676 0.0
O17 O 0.19978 0.15305 0.14633 0.0
O18 O 0.14884 0.11734 0.14656 0.0
C19 C 0.26458 0.17933 0.1689 0.0
C20 C 0.1834 0.12148 0.13868 0.0
Zn21 Zn 0.39489 0.62418 0.10891 0.0
Zn22 Zn 0.46508 0.51295 0.02572 0.0
Zn23 Zn 0.43315 0.56218 0.06193 0.0
C24 C 0.43932 0.47708 0.09081 0.0
C25 C 0.52059 0.5659 0.03466 0.0
O26 O 0.38332 0.58891 0.03615 0.0
O27 O 0.35469 0.58782 0.09065 0.0
C28 C 0.41637 0.56407 0.14987 0.0
O29 O 0.42761 0.51082 0.09809 0.0
O30 O 0.45759 0.47053 0.06084 0.0
O31 O 0.51668 0.53372 0.01972 0.0
O32 O 0.49234 0.58153 0.05158 0.0
O33 O 0.42699 0.59832 0.1486 0.0
O34 O 0.41553 0.54485 0.11881 0.0
O35 O 0.47113 0.60867 0.07317 0.0
O36 O 0.42487 0.64824 0.0656 0.0
C37 C 0.45852 0.64273 0.07588 0.0
O38 O 0.39731 0.55841 0.0109 0.0
O39 O 0.42947 0.51261 0.98309 0.0
C40 C 0.35491 0.59907 0.05665 0.0
C41 C 0.4013 0.5346 0.98379 0.0
Zn42 Zn 0.75949 0.28721 0.20691 0.0
Zn43 Zn 0.83519 0.34382 0.12483 0.0
Zn44 Zn 0.79889 0.31228 0.16404 0.0
C45 C 0.88014 0.34244 0.18152 0.0
C46 C 0.82239 0.28096 0.0872 0.0
O47 O 0.73872 0.3268 0.14766 0.0
O48 O 0.71428 0.27739 0.17712 0.0
C49 C 0.79272 0.3417 0.24572 0.0
O50 O 0.84606 0.34086 0.19445 0.0
O51 O 0.88596 0.33377 0.14728 0.0
O52 O 0.81776 0.31564 0.0793 0.0
O53 O 0.82256 0.271 0.12244 0.0
O54 O 0.75898 0.33064 0.24277 0.0
O55 O 0.81684 0.33224 0.22008 0.0
O56 O 0.81016 0.25116 0.15775 0.0
O57 O 0.79114 0.24201 0.21663 0.0
C58 C 0.80725 0.22955 0.18719 0.0
O59 O 0.76188 0.3566 0.14006 0.0
O60 O 0.81188 0.39323 0.13862 0.0
C61 C 0.71069 0.30411 0.15356 0.0
C62 C 0.7764 0.3901 0.13912 0.0
Zn63 Zn 0.53213 0.95987 0.02727 0.0
Zn64 Zn 0.60588 0.89658 0.11226 0.0
Zn65 Zn 0.56954 0.92883 0.07078 0.0
C66 C 0.55896 0.84807 0.10722 0.0
C67 C 0.58431 0.95093 0.15457 0.0
O68 O 0.60182 0.93099 0.0158 0.0
O69 O 0.5715 0.9803 0.99242 0.0
C70 C 0.49573 0.89336 0.03765 0.0
O71 O 0.54194 0.879 0.09748 0.0
O72 O 0.59278 0.84386 0.09647 0.0
O73 O 0.58177 0.91562 0.15966 0.0
O74 O 0.58328 0.96377 0.12028 0.0
O75 O 0.5017 0.91567 0.01014 0.0
O76 O 0.51659 0.89579 0.06731 0.0
O77 O 0.56077 0.98599 0.09302 0.0
O78 O 0.50785 0.99686 0.06222 0.0
C79 C 0.53128 0.00647 0.0873 0.0
O80 O 0.62322 0.91116 0.04564 0.0
O81 O 0.65656 0.91654 0.09765 0.0
C82 C 0.59899 0.95756 0.99067 0.0
C83 C 0.6555 0.90997 0.06254 0.0
Zn84 Zn 0.13777 0.85552 0.34934 0.0
Zn85 Zn 0.19696 0.76614 0.28106 0.0
Zn86 Zn 0.16602 0.81458 0.30966 0.0
C87 C 0.24674 0.79113 0.33283 0.0
C88 C 0.13687 0.73082 0.30528 0.0
O89 O 0.12629 0.84237 0.27048 0.0
O90 O 0.09015 0.84862 0.32083 0.0
C91 C 0.20236 0.88981 0.33958 0.0
O92 O 0.22572 0.82014 0.32554 0.0
O93 O 0.23649 0.75883 0.32149 0.0
O94 O 0.15545 0.72896 0.27488 0.0
O95 O 0.14186 0.7593 0.32723 0.0
O96 O 0.16871 0.90166 0.33996 0.0
O97 O 0.20854 0.85428 0.33412 0.0
O98 O 0.13421 0.78475 0.35446 0.0
O99 O 0.14095 0.8277 0.39896 0.0
C100 C 0.13135 0.7946 0.38943 0.0
O101 O 0.15712 0.82535 0.24839 0.0
O102 O 0.20944 0.79439 0.23457 0.0
C103 C 0.09336 0.84772 0.2852 0.0
C104 C 0.18267 0.81576 0.22414 0.0
Zn105 Zn 0.02476 0.53336 0.96333 0.0
Zn106 Zn 0.13101 0.61092 0.88213 0.0
Zn107 Zn 0.07026 0.56702 0.92865 0.0
C108 C 0.15399 0.57456 0.94535 0.0
C109 C 0.07288 0.65123 0.90335 0.0
O110 O 0.06084 0.51623 0.89433 0.0
O111 O 0.00795 0.49905 0.92249 0.0
C112 C 0.08161 0.53505 0.01305 0.0
O113 O 0.12093 0.57516 0.96056 0.0
O114 O 0.15619 0.56705 0.91045 0.0
O115 O 0.10656 0.65018 0.91537 0.0
O116 O 0.05178 0.62227 0.91023 0.0
O117 O 0.05283 0.51468 0.00761 0.0
O118 O 0.09331 0.55755 0.98662 0.0
O119 O 0.02072 0.60591 0.93092 0.0
O120 O 0.99093 0.57514 0.97652 0.0
C121 C 0.99384 0.60397 0.95546 0.0
O122 O 0.09073 0.5398 0.87643 0.0
O123 O 0.09375 0.59238 0.8433 0.0
C124 C 0.03119 0.49536 0.89555 0.0
C125 C 0.09846 0.55696 0.84492 0.0
Zn126 Zn 0.78095 0.7141 0.27784 0.0
Zn127 Zn 0.83793 0.63326 0.3561 0.0
Zn128 Zn 0.80932 0.67555 0.32124 0.0
C129 C 0.829 0.69003 0.40366 0.0
C130 C 0.77516 0.59792 0.33515 0.0
O131 O 0.82952 0.65639 0.26457 0.0
O132 O 0.77839 0.677 0.23573 0.0
C133 C 0.83238 0.75932 0.31378 0.0
O134 O 0.83309 0.70585 0.37083 0.0
O135 O 0.82013 0.65535 0.40486 0.0
O136 O 0.80988 0.58978 0.33336 0.0
O137 O 0.76578 0.63314 0.33838 0.0
O138 O 0.8217 0.75388 0.28007 0.0
O139 O 0.82527 0.73372 0.33904 0.0
O140 O 0.74721 0.66749 0.33027 0.0
O141 O 0.73241 0.72269 0.30478 0.0
C142 C 0.72268 0.6939 0.32395 0.0
O143 O 0.85802 0.64937 0.28879 0.0
O144 O 0.89154 0.64228 0.3405 0.0
C145 C 0.80721 0.65597 0.23575 0.0
C146 C 0.89032 0.64332 0.30477 0.0
Zn147 Zn 0.97403 0.97646 0.9853 0.0
Zn148 Zn 0.85958 0.86385 0.86841 0.0
Zn149 Zn 0.93329 0.9389 0.94643 0.0
C150 C 0.86782 0.88879 0.9547 0.0
C151 C 0.94366 0.86979 0.90138 0.0
O152 O 0.93237 0.99569 0.91809 0.0
O153 O 0.96521 0.02632 0.96139 0.0
C154 C 0.91891 0.94954 0.03477 0.0
O155 O 0.88782 0.9084 0.97764 0.0
O156 O 0.8748 0.89313 0.91952 0.0
O157 O 0.90982 0.88129 0.89638 0.0
O158 O 0.96477 0.89076 0.92184 0.0
O159 O 0.95033 0.96644 0.03492 0.0
O160 O 0.90557 0.93664 0.00341 0.0
O161 O 0.99019 0.91177 0.94286 0.0
O162 O 0.02372 0.95323 0.97514 0.0
C163 C 0.02214 0.92326 0.95591 0.0
O164 O 0.90463 0.97168 0.89976 0.0
O165 O 0.88814 0.91453 0.88497 0.0
C166 C 0.94754 0.02649 0.93037 0.0
C167 C 0.88543 0.95002 0.87797 0.0
Zn168 Zn 0.39468 0.38245 0.401 0.0
Zn169 Zn 0.47378 0.45415 0.4682 0.0
Zn170 Zn 0.43272 0.41843 0.43515 0.0
C171 C 0.52223 0.40949 0.43411 0.0
C172 C 0.43177 0.425 0.52291 0.0
O173 O 0.40469 0.44983 0.38908 0.0
O174 O 0.40696 0.40263 0.3494 0.0
C175 C 0.44828 0.33438 0.41092 0.0
O176 O 0.49018 0.39243 0.43133 0.0
O177 O 0.52284 0.4438 0.44384 0.0
O178 O 0.46644 0.43257 0.51945 0.0
O179 O 0.41182 0.42001 0.49302 0.0
O180 O 0.41303 0.33096 0.41495 0.0
O181 O 0.46297 0.36768 0.4143 0.0
O182 O 0.38503 0.39645 0.47045 0.0
O183 O 0.34535 0.39777 0.42298 0.0
C184 C 0.35114 0.39208 0.4578 0.0
O185 O 0.43225 0.4767 0.40906 0.0
O186 O 0.45298 0.50542 0.46001 0.0
C187 C 0.39544 0.43567 0.35686 0.0
C188 C 0.4399 0.50758 0.42688 0.0
Zn189 Zn 0.3386 0.84206 0.6337 0.0
Zn190 Zn 0.26297 0.78822 0.71959 0.0
Zn191 Zn 0.30088 0.81337 0.67378 0.0
C192 C 0.30952 0.73041 0.69775 0.0
C193 C 0.29482 0.84264 0.75821 0.0
O194 O 0.2655 0.85651 0.64432 0.0
O195 O 0.3157 0.89286 0.64182 0.0
C196 C 0.32705 0.7781 0.5981 0.0
O197 O 0.31228 0.75275 0.66887 0.0
O198 O 0.2937 0.7419 0.72775 0.0
O199 O 0.26168 0.82966 0.7573 0.0
O200 O 0.31771 0.83502 0.7308 0.0
O201 O 0.32417 0.81243 0.58817 0.0
O202 O 0.3253 0.76999 0.63382 0.0
O203 O 0.3465 0.84203 0.70482 0.0
O204 O 0.38773 0.83177 0.6594 0.0
C205 C 0.38103 0.84153 0.69315 0.0
O206 O 0.24203 0.82704 0.65608 0.0
O207 O 0.21819 0.77976 0.68953 0.0
C208 C 0.28025 0.88969 0.64003 0.0
C209 C 0.21452 0.80437 0.66381 0.0
Zn210 Zn 0.04704 0.47396 0.53564 0.0
Zn211 Zn 0.12629 0.34315 0.55642 0.0
Zn212 Zn 0.07318 0.42149 0.56846 0.0
C213 C 0.10871 0.38695 0.63688 0.0
C214 C 0.16519 0.40042 0.54066 0.0
O215 O 0.10561 0.43406 0.51723 0.0
O216 O 0.08966 0.49266 0.50363 0.0
C217 C -0.00314 0.41425 0.52661 0.0
O218 O 0.09173 0.41685 0.62456 0.0
O219 O 0.12039 0.36113 0.61414 0.0
O220 O 0.17176 0.36677 0.53017 0.0
O221 O 0.13118 0.40846 0.55107 0.0
O222 O 0.00608 0.44468 0.50987 0.0
O223 O 0.017 0.40186 0.55401 0.0
O224 O 0.07136 0.46224 0.61528 0.0
O225 O 0.03488 0.50129 0.58271 0.0
C226 C 0.05101 0.49236 0.61341 0.0
O227 O 0.04147 0.36759 0.57124 0.0
O228 O 0.07788 0.34756 0.52628 0.0
C229 C 0.10985 0.46396 0.49682 0.0
C230 C 0.0526 0.33994 0.55052 0.0
Zn231 Zn 0.95284 0.0041 0.51479 0.0
Zn232 Zn 0.92988 0.09984 0.6691 0.0
Zn233 Zn 0.93364 0.04773 0.56971 0.0
C234 C 0.98988 0.08884 0.61879 0.0
C235 C 0.91256 0.0268 0.64682 0.0
O236 O 0.89084 0.06823 0.53081 0.0
O237 O 0.91016 0.02758 0.4872 0.0
C238 C 0.0148 0.0477 0.52701 0.0
O239 O 0.98165 0.08321 0.58406 0.0
O240 O 0.97261 0.06895 0.64332 0.0
O241 O 0.94183 0.0448 0.65682 0.0
O242 O 0.91452 0.01077 0.61459 0.0
O243 O 0.00607 0.02073 0.50539 0.0
O244 O 0.99089 0.0602 0.55134 0.0
O245 O 0.92746 0.98661 0.58723 0.0
O246 O 0.9443 0.95354 0.53683 0.0
C247 C 0.93317 0.95444 0.57082 0.0
O248 O 0.89392 0.09528 0.57121 0.0
O249 O 0.89527 0.1249 0.62819 0.0
C250 C 0.88743 0.05306 0.49807 0.0
C251 C 0.88355 0.12212 0.59397 0.0
Zn252 Zn 0.73157 0.726 0.71521 0.0
Zn253 Zn 0.63569 0.65576 0.65396 0.0
Zn254 Zn 0.68199 0.69002 0.68383 0.0
C255 C 0.63173 0.62437 0.72108 0.0
C256 C 0.60975 0.72538 0.64565 0.0
O257 O 0.73608 0.66688 0.6623 0.0
O258 O 0.77553 0.69542 0.7012 0.0
C259 C 0.69238 0.69415 0.77391 0.0
O260 O 0.64806 0.65661 0.72629 0.0
O261 O 0.62913 0.61155 0.68797 0.0
O262 O 0.59454 0.69408 0.65398 0.0
O263 O 0.64519 0.73005 0.65259 0.0
O264 O 0.71554 0.72078 0.76837 0.0
O265 O 0.67715 0.67754 0.74535 0.0
O266 O 0.67337 0.75281 0.67378 0.0
O267 O 0.7272 0.77695 0.69347 0.0
C268 C 0.6949 0.78186 0.67924 0.0
O269 O 0.708 0.65152 0.64012 0.0
O270 O 0.65809 0.64405 0.604 0.0
C271 C 0.76962 0.67168 0.67537 0.0
C272 C 0.69295 0.63892 0.60936 0.0
Zn273 Zn 0.70084 0.26745 0.77582 0.0
Zn274 Zn 0.64416 0.38166 0.81483 0.0
Zn275 Zn 0.66873 0.31991 0.80003 0.0
C276 C 0.61047 0.32599 0.86341 0.0
C277 C 0.71419 0.39223 0.83437 0.0
O278 O 0.66812 0.32665 0.73839 0.0
O279 O 0.71728 0.29019 0.72694 0.0
C280 C 0.63411 0.23939 0.80132 0.0
O281 O 0.62657 0.30301 0.84041 0.0
O282 O 0.61679 0.36125 0.86068 0.0
O283 O 0.68859 0.41372 0.82181 0.0
O284 O 0.71075 0.35597 0.83116 0.0
O285 O 0.65609 0.23419 0.77365 0.0
O286 O 0.638 0.26926 0.82171 0.0
O287 O 0.72884 0.3212 0.81768 0.0
O288 O 0.74022 0.25988 0.81591 0.0
C289 C 0.75064 0.29281 0.82506 0.0
O290 O 0.63401 0.34238 0.75132 0.0
O291 O 0.60994 0.39524 0.77441 0.0
C292 C 0.6938 0.31471 0.71552 0.0
C293 C 0.6106 0.37045 0.74894 0.0
Zn294 Zn 0.61098 0.11095 0.37105 0.0
Zn295 Zn 0.51125 0.03824 0.4592 0.0
Zn296 Zn 0.5563 0.06875 0.42265 0.0
C297 C 0.4806 0.10821 0.44676 0.0
C298 C 0.56896 0.04359 0.50878 0.0
O299 O 0.58067 0.03285 0.37807 0.0
O300 O 0.57562 0.07953 0.33862 0.0
C301 C 0.55284 0.14996 0.38358 0.0
O302 O 0.50543 0.10657 0.42009 0.0
O303 O 0.47913 0.08196 0.47108 0.0
O304 O 0.54107 0.02196 0.50347 0.0
O305 O 0.57955 0.06634 0.48196 0.0
O306 O 0.58531 0.15405 0.39772 0.0
O307 O 0.53447 0.11956 0.39254 0.0
O308 O 0.60606 0.08564 0.45388 0.0
O309 O 0.64534 0.08054 0.40565 0.0
C310 C 0.63997 0.08673 0.44049 0.0
O311 O 0.54894 0.01181 0.3967 0.0
O312 O 0.49313 0.00043 0.42171 0.0
C313 C 0.59001 0.04764 0.34599 0.0
C314 C 0.51871 0.99165 0.39832 0.0
Zn315 Zn 0.34735 0.14128 0.86263 0.0
Zn316 Zn 0.2861 0.20726 0.77662 0.0
Zn317 Zn 0.31284 0.17416 0.82236 0.0
C318 C 0.23085 0.19824 0.82905 0.0
C319 C 0.34293 0.25129 0.80105 0.0
O320 O 0.3588 0.14588 0.78987 0.0
O321 O 0.3976 0.1515 0.83787 0.0
C322 C 0.28379 0.09986 0.8478 0.0
O323 O 0.25135 0.16839 0.83422 0.0
O324 O 0.2441 0.22508 0.80915 0.0
O325 O 0.33232 0.23992 0.76888 0.0
O326 O 0.33199 0.23278 0.83072 0.0
O327 O 0.31913 0.09461 0.84779 0.0
O328 O 0.27124 0.13414 0.84619 0.0
O329 O 0.33416 0.21472 0.8663 0.0
O330 O 0.33134 0.16953 0.9091 0.0
C331 C 0.33295 0.20453 0.90148 0.0
O332 O 0.32904 0.14901 0.76613 0.0
O333 O 0.27413 0.16463 0.742 0.0
C334 C 0.39281 0.14543 0.80294 0.0
C335 C 0.30352 0.14448 0.74052 0.0
C336 C 0.07825 0.22457 0.88384 0.0
C337 C 0.03015 0.27931 0.00788 0.0
C338 C 0.91832 0.24786 0.96979 0.0
Mg339 Mg 0.04332 0.22157 0.80339 0.0
Mg340 Mg 0.97459 0.27504 0.76923 0.0
O341 O 0.99046 0.24226 0.80817 0.0
Mg342 Mg 0.99473 0.2587 0.86268 0.0
O343 O 0.00292 0.27021 0.91745 0.0
Mg344 Mg 0.00526 0.21751 0.9398 0.0
Mg345 Mg 0.97635 0.30711 0.94404 0.0
C346 C 0.91027 0.28799 0.83232 0.0
O347 O 0.00659 0.32166 0.84924 0.0
O348 O 0.02765 0.20179 0.74496 0.0
O349 O 0.98139 0.35078 0.90051 0.0
O350 O 0.06669 0.27772 0.77444 0.0
O351 O 0.97992 0.23605 0.72075 0.0
O352 O 0.01798 0.31663 0.76341 0.0
O353 O 0.98347 0.19789 0.88027 0.0
O354 O 0.01498 0.16845 0.83371 0.0
C355 C 0.99316 0.16741 0.86315 0.0
C356 C 0.00485 0.20958 0.71797 0.0
O357 O 0.93093 0.27459 0.85938 0.0
O358 O 0.02906 0.24602 0.9933 0.0
O359 O 0.92218 0.29193 0.79793 0.0
O360 O 0.94436 0.22279 0.96618 0.0
O361 O 0.01265 0.30795 0.99373 0.0
O362 O 0.92309 0.28209 0.95878 0.0
O363 O 0.05636 0.24308 0.86172 0.0
O364 O 0.06619 0.2121 0.91575 0.0
C365 C 0.05342 0.3099 0.76328 0.0
C366 C -0.00392 0.35152 0.8671 0.0
C367 C 0.5698 0.70807 0.38083 0.0
C368 C 0.52848 0.76041 0.51535 0.0
C369 C 0.41669 0.73409 0.47914 0.0
Mg370 Mg 0.52439 0.70697 0.30295 0.0
Mg371 Mg 0.46047 0.77071 0.28337 0.0
O372 O 0.47434 0.73152 0.31615 0.0
Mg373 Mg 0.48633 0.74615 0.37013 0.0
O374 O 0.5012 0.7557 0.424 0.0
Mg375 Mg 0.50164 0.70227 0.44458 0.0
Mg376 Mg 0.47491 0.79123 0.4527 0.0
C377 C 0.40288 0.78408 0.35106 0.0
O378 O 0.49962 0.81035 0.35809 0.0
O379 O 0.49909 0.69069 0.24599 0.0
O380 O 0.48004 0.83761 0.41273 0.0
O381 O 0.54578 0.75896 0.26725 0.0
O382 O 0.45884 0.73813 0.23122 0.0
O383 O 0.50725 0.80725 0.27765 0.0
O384 O 0.47392 0.68445 0.38689 0.0
O385 O 0.49837 0.65587 0.33583 0.0
C386 C 0.48052 0.65429 0.36764 0.0
C387 C 0.47702 0.70776 0.2226 0.0
O388 O 0.42364 0.76581 0.37506 0.0
O389 O 0.52891 0.72805 0.49863 0.0
O390 O 0.41305 0.79061 0.31661 0.0
O391 O 0.44263 0.70883 0.47573 0.0
O392 O 0.50959 0.78896 0.50307 0.0
O393 O 0.42102 0.76759 0.46603 0.0
O394 O 0.5466 0.72713 0.36038 0.0
O395 O 0.56032 0.69666 0.41418 0.0
C396 C 0.53526 0.79306 0.26016 0.0
C397 C 0.49239 0.83971 0.37851 0.0
C398 C 0.96766 0.81432 0.64465 0.0
C399 C 0.98208 0.76565 0.78745 0.0
C400 C 0.05597 0.69295 0.74651 0.0
Mg401 Mg 0.99072 0.77312 0.56769 0.0
Mg402 Mg 0.99073 0.67917 0.55593 0.0
O403 O 0.00334 0.72027 0.58645 0.0
Mg404 Mg 0.99158 0.72582 0.64138 0.0
O405 O 0.98075 0.73785 0.69618 0.0
Mg406 Mg 0.02589 0.77249 0.70461 0.0
Mg407 Mg 0.9758 0.69764 0.73043 0.0
C408 C 0.01736 0.63546 0.63176 0.0
O409 O 0.93527 0.6938 0.64017 0.0
O410 O 0.02257 0.75721 0.51428 0.0
O411 O 0.93139 0.6685 0.69907 0.0
O412 O 0.93494 0.75331 0.53927 0.0
O413 O 0.02919 0.6937 0.51004 0.0
O414 O 0.93353 0.68987 0.53751 0.0
O415 O 0.04793 0.7565 0.64588 0.0
O416 O 0.04658 0.79173 0.59305 0.0
C417 C 0.06265 0.78132 0.62369 0.0
C418 C 0.03624 0.72755 0.49854 0.0
O419 O 0.01804 0.66576 0.65198 0.0
O420 O 0.00129 0.78412 0.76265 0.0
O421 O 0.00564 0.63491 0.59725 0.0
O422 O 0.06128 0.72775 0.73773 0.0
O423 O 0.96844 0.73242 0.78138 0.0
O424 O 0.03089 0.67395 0.72936 0.0
O425 O 0.96459 0.78294 0.62681 0.0
O426 O 0.98828 0.81686 0.67441 0.0
C427 C 0.91856 0.72222 0.53054 0.0
C428 C 0.91915 0.67218 0.66487 0.0
C429 C 0.85235 0.98783 0.17752 0.0
C430 C 0.70928 0.99072 0.23753 0.0
C431 C 0.75029 0.05171 0.31356 0.0
Mg432 Mg 0.93019 0.01458 0.21969 0.0
Mg433 Mg 0.94365 -0.00012 0.31209 0.0
O434 O 0.91195 0.01766 0.2737 0.0
Mg435 Mg 0.85799 0.00133 0.268 0.0
O436 O 0.80356 0.98769 0.25693 0.0
Mg437 Mg 0.79033 0.03636 0.22874 0.0
Mg438 Mg 0.77215 0.97589 0.29836 0.0
C439 C 0.86978 0.02471 0.35857 0.0
O440 O 0.86335 0.9392 0.29361 0.0
O441 O 0.98376 0.04721 0.23985 0.0
O442 O 0.80559 0.92835 0.31929 0.0
O443 O 0.96147 0.95812 0.23124 0.0
O444 O 0.99039 0.03837 0.30286 0.0
O445 O 0.96024 0.94404 0.29322 0.0
O446 O 0.84794 0.06003 0.24305 0.0
O447 O 0.89953 0.07107 0.20851 0.0
C448 C 0.86685 0.0812 0.22025 0.0
C449 C 0.001 0.05311 0.27134 0.0
O450 O 0.84805 0.02275 0.3295 0.0
O451 O 0.7326 0.01106 0.21835 0.0
O452 O 0.90471 0.01442 0.35804 0.0
O453 O 0.75903 0.0636 0.28027 0.0
O454 O 0.71847 0.9735 0.26841 0.0
O455 O 0.77072 0.0266 0.32941 0.0
O456 O 0.87242 0.98379 0.20759 0.0
O457 O 0.82048 0.00555 0.17841 0.0
C458 C 0.96882 0.93576 0.25895 0.0
C459 C 0.83992 0.91817 0.31263 0.0
C460 C 0.20329 0.86576 0.07003 0.0
C461 C 0.24022 0.00213 0.04661 0.0
C462 C 0.24329 0.97335 0.92811 0.0
Mg463 Mg 0.21699 0.78994 0.02465 0.0
Mg464 Mg 0.28903 0.77716 0.96668 0.0
O465 O 0.24634 0.80627 0.97794 0.0
Mg466 Mg 0.25389 0.86085 0.99295 0.0
O467 O 0.25501 0.91496 0.01004 0.0
Mg468 Mg 0.20029 0.92877 0.00212 0.0
Mg469 Mg 0.29139 0.95104 0.99736 0.0
C470 C 0.30165 0.84871 0.91271 0.0
O471 O 0.31593 0.85478 0.01433 0.0
O472 O 0.20957 0.73313 0.99681 0.0
O473 O 0.33959 0.91439 0.00937 0.0
O474 O 0.26888 0.75913 0.05166 0.0
O475 O 0.26104 0.72224 0.96057 0.0
O476 O 0.31945 0.7746 0.01796 0.0
O477 O 0.19413 0.87112 0.9723 0.0
O478 O 0.16602 0.81847 0.99382 0.0
C479 C 0.16464 0.85035 0.97595 0.0
C480 C 0.2299 0.71138 0.97609 0.0
O481 O 0.28041 0.86997 0.93345 0.0
O482 O 0.21225 0.98211 0.03549 0.0
O483 O 0.30984 0.81421 0.92168 0.0
O484 O 0.21381 0.96251 0.94638 0.0
O485 O 0.27438 0.99557 0.03632 0.0
O486 O 0.27667 0.96807 0.94089 0.0
O487 O 0.22823 0.84793 0.05059 0.0
O488 O 0.18897 0.89691 0.05797 0.0
C489 C 0.30394 0.75453 0.04367 0.0
C490 C 0.34321 0.87878 0.01672 0.0
C491 C 0.13251 0.43304 0.19843 0.0
C492 C -0.00425 0.43726 0.24153 0.0
C493 C 0.01498 0.55855 0.25541 0.0
Mg494 Mg 0.20523 0.48239 0.2156 0.0
Mg495 Mg 0.21383 0.53901 0.28848 0.0
O496 O 0.18486 0.52591 0.24628 0.0
Mg497 Mg 0.1322 0.50485 0.25377 0.0
O498 O 0.08032 0.48197 0.25554 0.0
Mg499 Mg 0.06312 0.49346 0.20252 0.0
Mg500 Mg 0.04481 0.48591 0.29442 0.0
C501 C 0.13615 0.58151 0.30622 0.0
O502 O 0.14256 0.48137 0.31491 0.0
O503 O 0.25935 0.5154 0.20879 0.0
O504 O 0.08398 0.47528 0.34045 0.0
O505 O 0.23843 0.45583 0.26626 0.0
O506 O 0.26731 0.55287 0.25966 0.0
O507 O 0.22579 0.48833 0.31851 0.0
O508 O 0.11864 0.52777 0.1943 0.0
O509 O 0.17387 0.51212 0.16693 0.0
C510 C 0.14035 0.52605 0.16489 0.0
C511 C 0.27929 0.53815 0.22857 0.0
O512 O 0.11732 0.56026 0.2836 0.0
O513 O 0.01301 0.4534 0.21379 0.0
O514 O 0.17163 0.57678 0.313 0.0
O515 O 0.02593 0.54561 0.22315 0.0
O516 O 0.00347 0.44437 0.27622 0.0
O517 O 0.02207 0.54132 0.28654 0.0
O518 O 0.14955 0.45101 0.22489 0.0
O519 O 0.09974 0.44295 0.18651 0.0
C520 C 0.24419 0.4625 0.30145 0.0
C521 C 0.12019 0.47358 0.34274 0.0
C522 C 0.66671 0.63539 0.01101 0.0
C523 C 0.73129 0.7774 0.02511 0.0
C524 C 0.80754 0.73909 0.95894 0.0
Mg525 Mg 0.71063 0.5597 0.98285 0.0
Mg526 Mg 0.80141 0.54563 0.00087 0.0
O527 O 0.76455 0.57782 0.98069 0.0
Mg528 Mg 0.75753 0.63007 0.00139 0.0
O529 O 0.74611 0.68285 0.01986 0.0
Mg530 Mg 0.72021 0.70179 0.97214 0.0
Mg531 Mg 0.78928 0.71083 0.03218 0.0
C532 C 0.84896 0.62069 0.98564 0.0
O533 O 0.78147 0.6178 0.06225 0.0
O534 O 0.73225 0.50723 0.94978 0.0
O535 O 0.81103 0.67305 0.07511 0.0
O536 O 0.71929 0.52637 0.03866 0.0
O537 O 0.79457 0.49951 0.96116 0.0
O538 O 0.78008 0.52887 0.05538 0.0
O539 O 0.73498 0.64594 0.94345 0.0
O540 O 0.70242 0.59408 0.92807 0.0
C541 C 0.71343 0.62793 0.92063 0.0
C542 C 0.76377 0.48964 0.94496 0.0
O543 O 0.81933 0.64166 0.98441 0.0
O544 O 0.71058 0.75702 0.00339 0.0
O545 O 0.8482 0.58521 0.99424 0.0
O546 O 0.77263 0.73559 0.95021 0.0
O547 O 0.7621 0.76533 0.04018 0.0
O548 O 0.82223 0.71662 0.98288 0.0
O549 O 0.6967 0.61525 0.01525 0.0
O550 O 0.66835 0.66928 0.99727 0.0
C551 C 0.74584 0.51951 0.06221 0.0
C552 C 0.803 0.63842 0.08327 0.0
C553 C 0.1565 0.12432 0.50927 0.0
C554 C 0.15057 0.2354 0.55928 0.0
C555 C 0.25849 0.27015 0.50964 0.0
Mg556 Mg 0.20811 0.06162 0.47649 0.0
Mg557 Mg 0.29933 0.05163 0.49031 0.0
O558 O 0.25997 0.08439 0.47727 0.0
Mg559 Mg 0.24782 0.13349 0.50375 0.0
O560 O 0.22935 0.18245 0.52573 0.0
Mg561 Mg 0.19607 0.20335 0.48497 0.0
Mg562 Mg 0.23191 0.21021 0.57017 0.0
C563 C 0.34007 0.1327 0.48349 0.0
O564 O 0.27048 0.1155 0.56424 0.0
O565 O 0.23195 0.01691 0.43632 0.0
O566 O 0.26463 0.16815 0.60069 0.0
O567 O 0.22 0.02164 0.52808 0.0
O568 O 0.29442 0.00962 0.44525 0.0
O569 O 0.28117 0.02728 0.54306 0.0
O570 O 0.22552 0.15725 0.44737 0.0
O571 O 0.19841 0.10344 0.42729 0.0
C572 C 0.20673 0.1386 0.42248 0.0
C573 C 0.26366 0.0014 0.42808 0.0
O574 O 0.30971 0.15249 0.48837 0.0
O575 O 0.1609 0.23944 0.52476 0.0
O576 O 0.3412 0.0963 0.48603 0.0
O577 O 0.24052 0.25256 0.48314 0.0
O578 O 0.1727 0.22132 0.58428 0.0
O579 O 0.25818 0.25916 0.5444 0.0
O580 O 0.18876 0.10916 0.51516 0.0
O581 O 0.15336 0.15807 0.49665 0.0
C582 C 0.248 0.01464 0.54999 0.0
C583 C 0.27601 0.13399 0.59522 0.0
C584 C 0.37004 0.58009 0.71519 0.0
C585 C 0.50761 0.54477 0.76888 0.0
C586 C 0.47787 0.43341 0.73248 0.0
Mg587 Mg 0.2988 0.52678 0.69976 0.0
Mg588 Mg 0.28165 0.44198 0.73457 0.0
O589 O 0.31493 0.48143 0.73033 0.0
Mg590 Mg 0.36639 0.49453 0.74856 0.0
O591 O 0.41856 0.51274 0.7617 0.0
Mg592 Mg 0.43941 0.51814 0.70899 0.0
Mg593 Mg 0.44827 0.48395 0.79502 0.0
C594 C 0.35391 0.40311 0.773 0.0
O595 O 0.35114 0.50494 0.81127 0.0
O596 O 0.25576 0.49459 0.66413 0.0
O597 O 0.40562 0.48642 0.83991 0.0
O598 O 0.2516 0.53357 0.7459 0.0
O599 O 0.26822 0.43344 0.67585 0.0
O600 O 0.2377 0.473 0.76217 0.0
O601 O 0.38714 0.48553 0.68863 0.0
O602 O 0.34047 0.50984 0.65417 0.0
C603 C 0.37174 0.49205 0.65668 0.0
C604 C 0.25534 0.45977 0.65439 0.0
O605 O 0.3767 0.43085 0.76612 0.0
O606 O 0.49027 0.54771 0.73701 0.0
O607 O 0.31862 0.4037 0.76474 0.0
O608 O 0.47296 0.4625 0.7114 0.0
O609 O 0.49728 0.52168 0.79524 0.0
O610 O 0.46495 0.43234 0.76634 0.0
O611 O 0.3497 0.55464 0.7313 0.0
O612 O 0.40449 0.5735 0.70589 0.0
C613 C 0.23111 0.50871 0.76354 0.0
C614 C 0.37104 0.49796 0.84102 0.0
C615 C 0.71564 0.37418 0.56433 0.0
C616 C 0.74478 0.51408 0.52216 0.0
C617 C 0.73329 0.47229 0.41045 0.0
Mg618 Mg 0.72458 0.29565 0.52312 0.0
Mg619 Mg 0.78765 0.27768 0.45688 0.0
O620 O 0.7496 0.30989 0.47364 0.0
Mg621 Mg 0.75716 0.36592 0.48319 0.0
O622 O 0.75808 0.4216 0.49628 0.0
Mg623 Mg 0.70235 0.43369 0.49349 0.0
Mg624 Mg 0.79002 0.45652 0.4734 0.0
C625 C 0.79738 0.34871 0.4005 0.0
O626 O 0.82114 0.36321 0.49766 0.0
O627 O 0.71285 0.23755 0.49979 0.0
O628 O 0.8401 0.42198 0.47904 0.0
O629 O 0.77983 0.26632 0.54692 0.0
O630 O 0.75516 0.22475 0.45398 0.0
O631 O 0.82505 0.26959 0.5028 0.0
O632 O 0.69552 0.37352 0.46821 0.0
O633 O 0.67072 0.32146 0.4947 0.0
C634 C 0.6672 0.35184 0.47466 0.0
C635 C 0.72718 0.21509 0.47535 0.0
O636 O 0.77774 0.37124 0.42143 0.0
O637 O 0.71595 0.49225 0.51889 0.0
O638 O 0.80528 0.31426 0.41003 0.0
O639 O 0.70698 0.46381 0.43407 0.0
O640 O 0.7774 0.50573 0.50854 0.0
O641 O 0.76802 0.46649 0.41811 0.0
O642 O 0.7382 0.35585 0.54284 0.0
O643 O 0.69936 0.40475 0.55291 0.0
C644 C 0.81337 0.25849 0.53521 0.0
C645 C 0.84701 0.38791 0.49025 0.0
C646 C 0.63351 0.02337 0.65828 0.0
C647 C 0.76726 0.05868 0.70343 0.0
C648 C 0.74978 0.9891 0.79573 0.0
Mg649 Mg 0.5612 0.98961 0.70212 0.0
Mg650 Mg 0.54592 0.99001 0.79455 0.0
O651 O 0.58028 0.983 0.75528 0.0
Mg652 Mg 0.63007 0.0091 0.74975 0.0
O653 O 0.68001 0.0327 0.73738 0.0
Mg654 Mg 0.70349 0.98925 0.70973 0.0
Mg655 Mg 0.7103 0.06045 0.76988 0.0
C656 C 0.62207 0.98238 0.8415 0.0
O657 O 0.6114 0.06757 0.77527 0.0
O658 O 0.51351 0.94885 0.71874 0.0
O659 O 0.6661 0.09486 0.79417 0.0
O660 O 0.52275 0.04209 0.71952 0.0
O661 O 0.50485 0.94668 0.78187 0.0
O662 O 0.52299 0.04418 0.78308 0.0
O663 O 0.6513 0.95287 0.72516 0.0
O664 O 0.60035 0.93923 0.68987 0.0
C665 C 0.63382 0.93131 0.70157 0.0
C666 C 0.49712 0.93547 0.74837 0.0
O667 O 0.64377 0.99013 0.81294 0.0
O668 O 0.7511 0.02801 0.69346 0.0
O669 O 0.58587 0.98278 0.83974 0.0
O670 O 0.7416 0.97349 0.76373 0.0
O671 O 0.75623 0.07801 0.73213 0.0
O672 O 0.73483 0.02024 0.80594 0.0
O673 O 0.6135 0.02633 0.68876 0.0
O674 O 0.66747 0.0105 0.6594 0.0
C675 C 0.51375 0.05811 0.75097 0.0
C676 C 0.62984 0.0939 0.79241 0.0
C677 C 0.46237 0.33299 0.15342 0.0
C678 C 0.48839 0.25477 0.28301 0.0
C679 C 0.55314 0.1937 0.22486 0.0
Mg680 Mg 0.47732 0.3069 0.067 0.0
Mg681 Mg 0.47656 0.21726 0.039 0.0
O682 O 0.4906 0.25194 0.07539 0.0
Mg683 Mg 0.48261 0.24669 0.13124 0.0
O684 O 0.47676 0.24721 0.1884 0.0
Mg685 Mg 0.52415 0.27859 0.19874 0.0
Mg686 Mg 0.47413 0.20048 0.21431 0.0
C687 C 0.50553 0.16068 0.10324 0.0
O688 O 0.42568 0.21513 0.1287 0.0
O689 O 0.50286 0.30171 0.00771 0.0
O690 O 0.42752 0.17787 0.18114 0.0
O691 O 0.41856 0.2912 0.03852 0.0
O692 O 0.50853 0.24027 0.99192 0.0
O693 O 0.41859 0.22838 0.02902 0.0
O694 O 0.53949 0.27478 0.13615 0.0
O695 O 0.53703 0.31919 0.09073 0.0
C696 C 0.55466 0.30205 0.11749 0.0
C697 C 0.51374 0.27564 0.98495 0.0
O698 O 0.50788 0.18646 0.12865 0.0
O699 O 0.50579 0.27759 0.2605 0.0
O700 O 0.49257 0.16655 0.06976 0.0
O701 O 0.56277 0.22782 0.2171 0.0
O702 O 0.47261 0.22402 0.27163 0.0
O703 O 0.52855 0.17814 0.20405 0.0
O704 O 0.45665 0.30587 0.12997 0.0
O705 O 0.48511 0.32889 0.18154 0.0
C706 C 0.40254 0.2607 0.02678 0.0
C707 C 0.4122 0.18823 0.14964 0.0
C708 C 0.12402 0.34319 0.69093 0.0
C709 C 0.10595 0.37641 0.67772 0.0
H710 H 0.1219 0.29601 0.72944 0.0
C711 C 0.07783 0.39286 0.70059 0.0
H712 H 0.14631 0.33009 0.67441 0.0
C713 C 0.06379 0.37319 0.73227 0.0
C714 C 0.07773 0.33686 0.74169 0.0
H715 H 0.06361 0.41867 0.69172 0.0
H716 H 0.03941 0.38469 0.74695 0.0
C717 C 0.11005 0.32359 0.72267 0.0
C718 C 0.60868 0.76067 0.58473 0.0
C719 C 0.58964 0.74942 0.61798 0.0
H720 H 0.60363 0.7722 0.52507 0.0
C721 C 0.54988 0.75016 0.61866 0.0
H722 H 0.63929 0.75993 0.58333 0.0
C723 C 0.52961 0.75738 0.58545 0.0
C724 C 0.5489 0.76376 0.55125 0.0
H725 H 0.53458 0.74137 0.6439 0.0
H726 H 0.49908 0.75466 0.58581 0.0
C727 C 0.58838 0.76723 0.55133 0.0
C728 C 0.03237 0.12673 0.65732 0.0
C729 C 0.00292 0.12612 0.63111 0.0
H730 H 0.05669 0.15423 0.70465 0.0
C731 C 0.97889 0.15778 0.62779 0.0
H732 H 0.05122 0.1026 0.66026 0.0
C733 C 0.98056 0.1869 0.65466 0.0
C734 C 0.00713 0.18492 0.68416 0.0
H735 H 0.95646 0.1581 0.60703 0.0
H736 H 0.95955 0.20928 0.65386 0.0
C737 C 0.03483 0.1561 0.68326 0.0
C738 C 0.3281 0.75788 0.53097 0.0
C739 C 0.33982 0.75119 0.56855 0.0
H740 H 0.34353 0.75681 0.4722 0.0
C741 C 0.37158 0.72801 0.57477 0.0
H742 H 0.30363 0.77556 0.5253 0.0
C743 C 0.39427 0.71668 0.54405 0.0
C744 C 0.38562 0.72884 0.50693 0.0
H745 H 0.38165 0.72286 0.60327 0.0
H746 H 0.42105 0.70293 0.54994 0.0
C747 C 0.35093 0.7471 0.50046 0.0
C748 C 0.09628 0.68743 0.84606 0.0
C749 C 0.06648 0.6693 0.86577 0.0
H750 H 0.11673 0.7085 0.79236 0.0
C751 C 0.03298 0.6613 0.84613 0.0
H752 H 0.12249 0.69417 0.86031 0.0
C753 C 0.03063 0.66766 0.80729 0.0
C754 C 0.06109 0.68368 0.78707 0.0
H755 H 0.0092 0.64794 0.8603 0.0
H756 H 0.00455 0.66018 0.79316 0.0
C757 C 0.09342 0.69488 0.80705 0.0
C758 C 0.86624 0.73901 0.43944 0.0
C759 C 0.84197 0.70751 0.43956 0.0
H760 H 0.90925 0.76918 0.46957 0.0
C761 C 0.83645 0.68741 0.47388 0.0
H762 H 0.87095 0.75519 0.41364 0.0
C763 C 0.85887 0.6948 0.50549 0.0
C764 C 0.88638 0.72329 0.50389 0.0
H765 H 0.81733 0.66344 0.4753 0.0
H766 H 0.85675 0.67631 0.53008 0.0
C767 C 0.88811 0.74702 0.47158 0.0
C768 C 0.931 0.80833 0.87014 0.0
C769 C 0.95716 0.83625 0.88104 0.0
H770 H 0.91873 0.76303 0.8318 0.0
C771 C 0.99395 0.83532 0.86646 0.0
H772 H 0.90259 0.80815 0.88175 0.0
C773 C 0.00295 0.80984 0.8377 0.0
C774 C 0.97544 0.7847 0.82378 0.0
H775 H 0.0146 0.85639 0.87468 0.0
H776 H 0.03069 0.81146 0.82466 0.0
C777 C 0.94019 0.78244 0.84178 0.0
C778 C 0.08435 0.74429 0.40551 0.0
C779 C 0.11295 0.76941 0.4171 0.0
H780 H 0.03694 0.71027 0.42312 0.0
C781 C 0.12012 0.77411 0.45579 0.0
H782 H 0.07803 0.74062 0.37575 0.0
C783 C 0.0969 0.75668 0.48252 0.0
C784 C 0.06618 0.7345 0.47092 0.0
H785 H 0.14218 0.79305 0.46536 0.0
H786 H 0.10121 0.76283 0.51229 0.0
C787 C 0.06089 0.72688 0.43243 0.0
C788 C 0.64453 0.06778 0.30542 0.0
C789 C 0.62982 0.04262 0.33297 0.0
H790 H 0.69353 0.09199 0.27931 0.0
C791 C 0.65515 0.01908 0.35287 0.0
H792 H 0.62594 0.08609 0.28913 0.0
C793 C 0.69427 0.02318 0.3478 0.0
C794 C 0.70901 0.05015 0.32195 0.0
H795 H 0.64495 -0.00073 0.37416 0.0
H796 H 0.71292 0.0051 0.36424 0.0
C797 C 0.68347 0.07177 0.30028 0.0
C798 C 0.27406 0.03055 0.84512 0.0
C799 C 0.26 0.06631 0.85588 0.0
H800 H 0.27941 0.97186 0.86016 0.0
C801 C 0.23083 0.06801 0.88285 0.0
H802 H 0.29624 0.02838 0.82396 0.0
C803 C 0.22041 0.03513 0.90298 0.0
C804 C 0.23951 0.00066 0.89654 0.0
H805 H 0.21961 0.09511 0.89178 0.0
H806 H 0.2013 0.03787 0.92689 0.0
C807 C 0.26433 -0.00195 0.86568 0.0
C808 C 0.34599 0.42901 0.30669 0.0
C809 C 0.35867 0.44677 0.33996 0.0
H810 H 0.2997 0.41845 0.26925 0.0
C811 C 0.33259 0.46784 0.3614 0.0
H812 H 0.36516 0.41198 0.28984 0.0
C813 C 0.29473 0.47032 0.35042 0.0
C814 C 0.28192 0.45251 0.31718 0.0
H815 H 0.34096 0.4812 0.38764 0.0
H816 H 0.27571 0.48707 0.36769 0.0
C817 C 0.30816 0.43187 0.29542 0.0
C818 C 0.75635 0.44552 0.84978 0.0
C819 C 0.74229 0.40949 0.85947 0.0
H820 H 0.77475 0.49946 0.87028 0.0
C821 C 0.74433 0.39703 0.89734 0.0
H822 H 0.75468 0.4558 0.82079 0.0
C823 C 0.75509 0.42236 0.92579 0.0
C824 C 0.76474 0.45982 0.91626 0.0
H825 H 0.73307 0.36957 0.90552 0.0
H826 H 0.75258 0.41378 0.95525 0.0
C827 C 0.7675 0.47056 0.87805 0.0
C828 C 0.61103 0.95438 0.21926 0.0
C829 C 0.60349 0.97257 0.18437 0.0
H830 H 0.65178 0.94484 0.2631 0.0
C831 C 0.62549 0.00386 0.17357 0.0
H832 H 0.59373 0.93087 0.22899 0.0
C833 C 0.65888 0.01147 0.19279 0.0
C834 C 0.67027 0.98823 0.22332 0.0
H835 H 0.61991 0.01914 0.14745 0.0
H836 H 0.67714 0.03361 0.18172 0.0
C837 C 0.6446 0.96187 0.23846 0.0
C838 C 0.18882 0.05358 0.12323 0.0
C839 C 0.20351 0.09034 0.11982 0.0
H840 H 0.18966 0.99686 0.10296 0.0
C841 C 0.23449 0.09703 0.09556 0.0
H842 H 0.16542 0.04745 0.14222 0.0
C843 C 0.24863 0.06766 0.0729 0.0
C844 C 0.23163 0.03171 0.07438 0.0
H845 H 0.24618 0.12525 0.09241 0.0
H846 H 0.27105 0.0736 0.05273 0.0
C847 C 0.20269 0.02462 0.10074 0.0
C848 C 0.3736 0.58222 0.2036 0.0
C849 C 0.38888 0.55379 0.17991 0.0
H850 H 0.3261 0.59996 0.23739 0.0
C851 C 0.37124 0.51827 0.17897 0.0
H852 H 0.3868 0.60986 0.2055 0.0
C853 C 0.33654 0.51298 0.19687 0.0
C854 C 0.31886 0.54296 0.21631 0.0
H855 H 0.38255 0.49553 0.16183 0.0
H856 H 0.32259 0.48582 0.19377 0.0
C857 C 0.33869 0.57683 0.22167 0.0
C858 C 0.7257 0.42539 0.10514 0.0
C859 C 0.75428 0.42482 0.13256 0.0
H860 H 0.69944 0.45802 0.06111 0.0
C861 C 0.76975 0.45932 0.14495 0.0
H862 H 0.71327 0.39918 0.09529 0.0
C863 C 0.76253 0.49276 0.12502 0.0
C864 C 0.73915 0.49204 0.09306 0.0
H865 H 0.79134 0.45957 0.16671 0.0
H866 H 0.77869 0.51793 0.13174 0.0
C867 C 0.71792 0.45916 0.08552 0.0
C868 C 0.3534 0.66169 0.0221 0.0
C869 C 0.33853 0.63741 0.0501 0.0
H870 H 0.3562 0.71795 -0.00036 0.0
C871 C 0.31268 0.65241 0.07661 0.0
H872 H 0.37342 0.6513 0.0013 0.0
C873 C 0.30296 0.69088 0.07595 0.0
C874 C 0.31892 0.71546 0.04883 0.0
H875 H 0.30064 0.63454 0.09865 0.0
H876 H 0.28269 0.70133 0.09649 0.0
C877 C 0.34417 0.70027 0.02182 0.0
C878 C 0.33338 0.34708 0.51018 0.0
C879 C 0.32285 0.3688 0.47838 0.0
H880 H 0.32129 0.29828 0.54477 0.0
C881 C 0.28824 0.36074 0.46039 0.0
H882 H 0.35975 0.35253 0.5247 0.0
C883 C 0.26714 0.32894 0.47086 0.0
C884 C 0.27947 0.30522 0.50035 0.0
H885 H 0.27891 0.37724 0.43612 0.0
H886 H 0.24167 0.32239 0.45521 0.0
C887 C 0.31166 0.31566 0.52124 0.0
C888 C 0.57206 0.39989 0.69938 0.0
C889 C 0.57734 0.36936 0.72441 0.0
H890 H 0.53477 0.444 0.68133 0.0
C891 C 0.54536 0.35201 0.74077 0.0
H892 H 0.59623 0.41374 0.6864 0.0
C893 C 0.51041 0.37064 0.74 0.0
C894 C 0.50691 0.40549 0.72087 0.0
H895 H 0.54878 0.32822 0.76013 0.0
H896 H 0.48762 0.3601 0.75776 0.0
C897 C 0.53677 0.41763 0.69718 0.0
C898 C 0.70347 0.11695 0.44019 0.0
C899 C 0.66882 0.11036 0.45905 0.0
H900 H 0.74868 0.15603 0.42956 0.0
C901 C 0.65814 0.13446 0.48863 0.0
H902 H 0.71299 0.09832 0.41775 0.0
C903 C 0.67854 0.16755 0.49519 0.0
C904 C 0.71004 0.17701 0.47241 0.0
H905 H 0.63204 0.1299 0.50415 0.0
H906 H 0.668 0.18684 0.51655 0.0
C907 C 0.72371 0.15028 0.44651 0.0
C908 C 0.96014 0.6362 0.30117 0.0
C909 C 0.9248 0.63213 0.28349 0.0
H910 H 0.01704 0.61623 0.30541 0.0
C911 C 0.92266 0.61091 0.24993 0.0
H912 H 0.96284 0.65273 0.32682 0.0
C913 C 0.95434 0.59041 0.2371 0.0
C914 C 0.98826 0.59078 0.2579 0.0
H915 H 0.89579 0.60706 0.23585 0.0
H916 H 0.95098 0.57112 0.21357 0.0
C917 C 0.99141 0.61557 0.28869 0.0
C918 C 0.05489 0.27235 0.53876 0.0
C919 C 0.0534 0.30098 0.56605 0.0
H920 H 0.08889 0.22835 0.51524 0.0
C921 C 0.07299 0.29498 0.60027 0.0
H922 H 0.03855 0.27497 0.51291 0.0
C923 C 0.1038 0.26972 0.60093 0.0
C924 C 0.11189 0.2483 0.5685 0.0
H925 H 0.06924 0.31442 0.62357 0.0
H926 H 0.12342 0.27048 0.62444 0.0
C927 C 0.08448 0.24627 0.53972 0.0
C928 C 0.57514 0.62586 0.76179 0.0
C929 C 0.60775 0.60637 0.75008 0.0
H930 H 0.51647 0.62081 0.77674 0.0
C931 C 0.60942 0.56679 0.7546 0.0
H932 H 0.573 0.6563 0.75782 0.0
C933 C 0.57737 0.54659 0.76621 0.0
C934 C 0.5432 0.56578 0.77259 0.0
H935 H 0.63409 0.55119 0.74512 0.0
H936 H 0.57812 0.51584 0.76579 0.0
C937 C 0.54274 0.60558 0.77231 0.0
C938 C 0.40406 0.88446 0.74442 0.0
C939 C 0.41182 0.85817 0.71555 0.0
H940 H 0.42589 0.92994 0.77821 0.0
C941 C 0.44929 0.85305 0.70339 0.0
H942 H 0.37539 0.8892 0.7541 0.0
C943 C 0.47772 0.8767 0.71655 0.0
C944 C 0.46929 0.90538 0.74258 0.0
H945 H 0.45622 0.83265 0.68157 0.0
H946 H 0.50591 0.87403 0.70468 0.0
C947 C 0.43283 0.90788 0.75809 0.0
C948 C 0.52304 0.84828 0.16844 0.0
C949 C 0.5488 0.83018 0.1441 0.0
H950 H 0.50048 0.85273 0.22438 0.0
C951 C 0.57109 0.80038 0.15882 0.0
H952 H 0.50581 0.87172 0.15845 0.0
C953 C 0.5684 0.78968 0.19704 0.0
C954 C 0.5434 0.80855 0.22165 0.0
H955 H 0.59158 0.78607 0.14103 0.0
H956 H 0.58567 0.76634 0.20718 0.0
C957 C 0.52073 0.83797 0.2067 0.0
C958 C 0.11876 0.27067 0.06312 0.0
C959 C 0.10393 0.26244 0.09911 0.0
H960 H 0.10588 0.2835 0.00514 0.0
C961 C 0.06568 0.27031 0.10668 0.0
H962 H 0.14796 0.26399 0.05654 0.0
C963 C 0.04147 0.28113 0.0772 0.0
C964 C 0.05556 0.28434 0.04015 0.0
H965 H 0.05359 0.26328 0.13411 0.0
H966 H 0.01132 0.28268 0.08255 0.0
C967 C 0.09463 0.28152 0.03371 0.0
C968 C 0.45028 0.69743 0.11943 0.0
C969 C 0.4709 0.66488 0.10907 0.0
H970 H 0.43499 0.73571 0.16365 0.0
C971 C 0.49687 0.6494 0.13498 0.0
H972 H 0.43041 0.71045 0.09993 0.0
C973 C 0.4989 0.66348 0.1718 0.0
C974 C 0.47552 0.69371 0.18324 0.0
H975 H 0.51355 0.62463 0.12785 0.0
H976 H 0.51808 0.64987 0.19156 0.0
C977 C 0.4524 0.71156 0.15619 0.0
C978 C 0.82678 0.2668 0.01862 0.0
C979 C 0.83651 0.25667 0.05606 0.0
H980 H 0.8456 0.27154 0.96098 0.0
C981 C 0.86785 0.23283 0.06185 0.0
H982 H 0.80251 0.28484 0.01322 0.0
C983 C 0.89233 0.22462 0.03153 0.0
C984 C 0.88583 0.24052 0.99535 0.0
H985 H 0.87616 0.2247 0.09031 0.0
H986 H 0.91873 0.21018 0.03757 0.0
C987 C 0.85146 0.25921 0.9886 0.0
C988 C 0.57163 0.19472 0.3312 0.0
C989 C 0.54771 0.16557 0.34456 0.0
H990 H 0.59295 0.22575 0.28327 0.0
C991 C 0.52469 0.14675 0.31825 0.0
H992 H 0.5898 0.20986 0.3506 0.0
C993 C 0.52745 0.15498 0.27948 0.0
C994 C 0.55236 0.18323 0.26592 0.0
H995 H 0.50599 0.12409 0.32728 0.0
H996 H 0.50982 0.13918 0.26014 0.0
C997 C 0.57393 0.20342 0.29246 0.0
C998 C 0.32611 0.21991 0.96994 0.0
C999 C 0.33861 0.23102 0.93356 0.0
H1000 H 0.33589 0.22257 0.02971 0.0
C1001 C 0.36304 0.26226 0.93039 0.0
H1002 H 0.30674 0.19631 0.97332 0.0
C1003 C 0.37905 0.27808 0.96314 0.0
C1004 C 0.37121 0.26245 -0.00078 0.0
H1005 H 0.37322 0.27145 0.90284 0.0
H1006 H 0.40166 0.29857 0.95971 0.0
C1007 C 0.34234 0.23537 0.00244 0.0
C1008 C 0.44845 0.27102 0.38031 0.0
C1009 C 0.4683 0.30422 0.39009 0.0
H1010 H 0.43888 0.22919 0.33758 0.0
C1011 C 0.50146 0.31333 0.37021 0.0
H1012 H 0.42335 0.26252 0.39587 0.0
C1013 C 0.51018 0.29429 0.33684 0.0
C1014 C 0.48599 0.26584 0.32317 0.0
H1015 H 0.518 0.33803 0.37754 0.0
H1016 H 0.53393 0.30426 0.32006 0.0
C1017 C 0.4571 0.25203 0.34674 0.0
C1018 C 0.56221 0.33836 0.91311 0.0
C1019 C 0.58397 0.31215 0.89266 0.0
H1020 H 0.52246 0.34732 0.95758 0.0
C1021 C 0.58017 0.27324 0.90071 0.0
H1022 H 0.56397 0.36851 0.90722 0.0
C1023 C 0.55612 0.26093 0.92979 0.0
C1024 C 0.53555 0.2874 0.95121 0.0
H1025 H 0.59642 0.2524 0.88528 0.0
H1026 H 0.5546 0.23087 0.93623 0.0
C1027 C 0.53824 0.32614 0.94196 0.0
C1028 C 0.14412 0.56441 0.79129 0.0
C1029 C 0.12846 0.54136 0.82017 0.0
H1030 H 0.1895 0.57293 0.75183 0.0
C1031 C 0.14626 0.50687 0.82919 0.0
H1032 H 0.1311 0.59117 0.78344 0.0
C1033 C 0.17983 0.49654 0.81101 0.0
C1034 C 0.19649 0.52063 0.78368 0.0
H1035 H 0.13525 0.48861 0.85141 0.0
H1036 H 0.19317 0.46999 0.81897 0.0
C1037 C 0.17797 0.55436 0.77356 0.0
C1038 C 0.72119 0.56812 0.37014 0.0
C1039 C 0.74862 0.56608 0.34138 0.0
H1040 H 0.69286 0.53766 0.41463 0.0
C1041 C 0.75875 0.53022 0.32722 0.0
H1042 H 0.71281 0.59531 0.38154 0.0
C1043 C 0.74773 0.49724 0.34637 0.0
C1044 C 0.72595 0.49971 0.37955 0.0
H1045 H 0.77941 0.52783 0.30459 0.0
H1046 H 0.76052 0.4705 0.33834 0.0
C1047 C 0.70967 0.53491 0.38904 0.0
C1048 C 0.84141 0.94005 0.82393 0.0
C1049 C 0.85359 0.96287 0.85422 0.0
H1050 H 0.79885 0.92973 0.78191 0.0
C1051 C 0.83062 0.99281 0.86612 0.0
H1052 H 0.85841 0.91621 0.81471 0.0
C1053 C 0.79589 -0.0005 0.8485 0.0
C1054 C 0.78353 0.97693 0.81787 0.0
H1055 H 0.83869 0.01005 0.89011 0.0
H1056 H 0.779 0.02299 0.8587 0.0
C1057 C 0.80694 0.94721 0.80568 0.0
C1058 C 0.22935 0.95415 0.34133 0.0
C1059 C 0.23195 0.91596 0.35247 0.0
H1060 H 0.23877 0.01182 0.357 0.0
C1061 C 0.25484 0.90605 0.38354 0.0
H1062 H 0.21186 0.9624 0.31746 0.0
C1063 C 0.27032 0.93455 0.40634 0.0
C1064 C 0.26299 0.97286 0.39794 0.0
H1065 H 0.25686 0.87677 0.39286 0.0
H1066 H 0.28403 0.92664 0.43268 0.0
C1067 C 0.24471 0.9824 0.36395 0.0
C1068 C 0.22935 0.40365 0.56813 0.0
C1069 C 0.19623 0.42272 0.55681 0.0
H1070 H 0.2734 0.39995 0.60947 0.0
C1071 C 0.1882 0.45856 0.57206 0.0
H1072 H 0.23681 0.3763 0.55638 0.0
C1073 C 0.20929 0.47208 0.60242 0.0
C1074 C 0.23839 0.44974 0.61786 0.0
H1075 H 0.1632 0.47414 0.56343 0.0
H1076 H 0.20067 0.4983 0.6158 0.0
C1077 C 0.24991 0.41676 0.59901 0.0
C1078 C 0.69717 0.60537 0.54772 0.0
C1079 C 0.7135 0.61352 0.58306 0.0
H1080 H 0.69452 0.56712 0.50094 0.0
C1081 C 0.74492 0.59208 0.59512 0.0
H1082 H 0.67317 0.62151 0.53737 0.0
C1083 C 0.75756 0.56106 0.57369 0.0
C1084 C 0.73856 0.55102 0.54033 0.0
H1085 H 0.75777 0.59728 0.62239 0.0
H1086 H 0.78013 0.54333 0.58462 0.0
C1087 C 0.70931 0.57423 0.52682 0.0
C1088 C 0.87146 0.05523 0.69674 0.0
C1089 C 0.87569 0.04158 0.65958 0.0
H1090 H 0.83288 0.074 0.73964 0.0
C1091 C 0.84463 0.04269 0.63492 0.0
H1092 H 0.89515 0.055 0.71617 0.0
C1093 C 0.80942 0.05463 0.64803 0.0
C1094 C 0.80447 0.06489 0.68617 0.0
H1095 H 0.84718 0.03322 0.60587 0.0
H1096 H 0.78526 0.0524 0.62933 0.0
C1097 C 0.83611 0.06706 0.70991 0.0
C1098 C 0.23222 0.92066 0.59808 0.0
C1099 C 0.25895 0.92338 0.62728 0.0
H1100 H 0.20712 0.94881 0.55017 0.0
C1101 C 0.27345 0.95923 0.63665 0.0
H1102 H 0.22071 0.89332 0.59031 0.0
C1103 C 0.26632 0.99058 0.61351 0.0
C1104 C 0.24394 0.98674 0.58106 0.0
H1105 H 0.29377 0.96214 0.6594 0.0
H1106 H 0.28112 0.01688 0.619 0.0
C1107 C 0.22462 0.95239 0.57505 0.0
C1108 C 0.83961 0.17757 0.60211 0.0
C1109 C 0.86327 0.15556 0.57868 0.0
H1110 H 0.80529 0.22775 0.60707 0.0
C1111 C 0.87239 0.16922 0.54243 0.0
H1112 H 0.83274 0.16798 0.63056 0.0
C1113 C 0.85833 0.20408 0.52981 0.0
C1114 C 0.83382 0.22588 0.55266 0.0
H1115 H 0.89139 0.15351 0.52415 0.0
H1116 H 0.86577 0.2132 0.50136 0.0
C1117 C 0.8245 0.21209 0.58899 0.0
C1118 C 0.86834 0.82439 0.98204 0.0
C1119 C 0.84787 0.85392 0.96501 0.0
H1120 H 0.87309 0.76463 0.99145 0.0
C1121 C 0.81462 0.84543 0.94513 0.0
H1122 H 0.89502 0.83005 0.99593 0.0
C1123 C 0.80248 0.80798 0.94146 0.0
C1124 C 0.82347 0.77802 0.9575 0.0
H1125 H 0.79923 0.86769 0.93044 0.0
H1126 H 0.77664 0.80259 0.926 0.0
C1127 C 0.85641 0.7868 0.97817 0.0
C1128 C 0.0241 0.84788 0.27959 0.0
C1129 C 0.05924 0.85812 0.26362 0.0
H1130 H 0.9672 0.86538 0.29115 0.0
C1131 C 0.06054 0.88769 0.2369 0.0
H1132 H 0.02232 0.8248 0.3 0.0
C1133 C 0.02849 0.91048 0.23117 0.0
C1134 C 0.99535 0.90411 0.25261 0.0
H1135 H 0.08722 0.89625 0.22436 0.0
H1136 H 0.03125 0.93577 0.21375 0.0
C1137 C 0.99254 0.87115 0.27475 0.0
C1138 C 0.21206 0.61389 0.93647 0.0
C1139 C 0.18197 0.60179 0.95998 0.0
H1140 H 0.25051 0.65892 0.92255 0.0
C1141 C 0.17367 0.62242 0.99281 0.0
H1142 H 0.21982 0.59811 0.91135 0.0
C1143 C 0.19096 0.65723 -0.00116 0.0
C1144 C 0.21714 0.67186 0.97242 0.0
H1145 H 0.15137 0.61356 0.01201 0.0
H1146 H 0.18221 0.67359 0.02325 0.0
C1147 C 0.22945 0.64887 0.94258 0.0
C1148 C 0.46218 0.13892 0.79394 0.0
C1149 C 0.42555 0.13269 0.78002 0.0
H1150 H 0.51938 0.1199 0.79496 0.0
C1151 C 0.42091 0.1088 0.74855 0.0
H1152 H 0.46683 0.1576 0.81776 0.0
C1153 C 0.45172 0.0878 0.73462 0.0
C1154 C 0.48722 0.0904 0.75225 0.0
H1155 H 0.39302 0.10348 0.73719 0.0
H1156 H 0.44671 0.0665 0.71321 0.0
C1157 C 0.49257 0.11777 0.78043 0.0
C1158 C 0.67999 0.86954 0.01105 0.0
C1159 C 0.68607 0.88689 0.04615 0.0
H1160 H 0.68904 0.82037 0.97738 0.0
C1161 C 0.71455 0.87246 0.07015 0.0
H1162 H 0.65912 0.88049 0.99146 0.0
C1163 C 0.73132 0.83748 0.0624 0.0
C1164 C 0.72001 0.81709 0.03042 0.0
H1165 H 0.72066 0.88576 0.09706 0.0
H1166 H 0.75061 0.82516 0.08288 0.0
C1167 C 0.69655 0.83465 0.00341 0.0
C1168 C 0.09593 0.09962 0.25803 0.0
C1169 C 0.08472 0.13769 0.25359 0.0
H1170 H 0.07735 0.04209 0.26678 0.0
C1171 C 0.04743 0.14801 0.26265 0.0
H1172 H 0.12429 0.09085 0.25028 0.0
C1173 C 0.02072 0.12023 0.27154 0.0
C1174 C 0.03097 0.08183 0.27166 0.0
H1175 H 0.03802 0.17705 0.25879 0.0
H1176 H 0.99142 0.1285 0.27535 0.0
C1177 C 0.06903 0.07169 0.26681 0.0
C1178 C 0.94805 0.35895 0.18849 0.0
C1179 C 0.91109 0.36028 0.20314 0.0
H1180 H 0.00363 0.3826 0.18932 0.0
C1181 C 0.90353 0.38361 0.23453 0.0
H1182 H 0.95496 0.34106 0.16457 0.0
C1183 C 0.93186 0.40714 0.24917 0.0
C1184 C 0.96774 0.40801 0.23207 0.0
H1185 H 0.87525 0.38568 0.24609 0.0
H1186 H 0.92499 0.42643 0.27198 0.0
C1187 C 0.97593 0.38281 0.20256 0.0
C1188 C 0.16856 0.2306 0.82705 0.0
C1189 C 0.19159 0.20243 0.84355 0.0
H1190 H 0.11596 0.25981 0.82715 0.0
C1191 C 0.17697 0.18087 0.87391 0.0
H1192 H 0.17862 0.24787 0.80358 0.0
C1193 C 0.14011 0.18786 0.88758 0.0
C1194 C 0.11736 0.21625 0.87078 0.0
H1195 H 0.19415 0.1593 0.88746 0.0
H1196 H 0.12944 0.17106 0.9111 0.0
C1197 C 0.13222 0.23739 0.84043 0.0
C1198 C 0.43774 0.57797 0.43092 0.0
C1199 C 0.44109 0.54535 0.40831 0.0
H1200 H 0.44772 0.63758 0.43615 0.0
C1201 C 0.4544 0.54935 0.37098 0.0
H1202 H 0.42776 0.57571 0.45993 0.0
C1203 C 0.4667 0.58485 0.35756 0.0
C1204 C 0.46557 0.61708 0.38109 0.0
H1205 H 0.45785 0.52469 0.35313 0.0
H1206 H 0.47812 0.58676 0.32909 0.0
C1207 C 0.44965 0.6134 0.41745 0.0
C1208 C 0.80864 0.27031 0.85855 0.0
C1209 C 0.79024 0.29834 0.83684 0.0
H1210 H 0.8617 0.24596 0.87533 0.0
C1211 C 0.81182 0.32715 0.81969 0.0
H1212 H 0.79255 0.24779 0.87204 0.0
C1213 C 0.85134 0.32534 0.82045 0.0
C1214 C 0.86978 0.29546 0.83948 0.0
H1215 H 0.79832 0.34896 0.80264 0.0
H1216 H 0.86746 0.34604 0.80433 0.0
C1217 C 0.84816 0.26925 0.8604 0.0
C1218 C 0.47764 0.94278 0.36943 0.0
C1219 C 0.51436 0.95574 0.37731 0.0
H1220 H 0.44194 0.89445 0.36188 0.0
C1221 C 0.54491 0.93055 0.37324 0.0
H1222 H 0.4536 0.96172 0.37193 0.0
C1223 C 0.53811 0.89181 0.36711 0.0
C1224 C 0.50082 0.87823 0.36473 0.0
H1225 H 0.57347 0.9398 0.3792 0.0
H1226 H 0.56155 0.87206 0.36897 0.0
C1227 C 0.47093 0.90432 0.36326 0.0
C1228 C 0.15322 0.83384 0.6447 0.0
C1229 C 0.17908 0.80366 0.64272 0.0
H1230 H 0.09463 0.8502 0.64017 0.0
C1231 C 0.16691 0.768 0.63025 0.0
H1232 H 0.16207 0.86133 0.65495 0.0
C1233 C 0.12891 0.76139 0.62341 0.0
C1234 C 0.10256 0.79052 0.62822 0.0
H1235 H 0.18645 0.7443 0.62885 0.0
H1236 H 0.11989 0.73309 0.61568 0.0
C1237 C 0.11485 0.8273 0.63706 0.0
C1238 C 0.01318 0.53259 0.65483 0.0
C1239 C 0.04956 0.52163 0.64294 0.0
H1240 H 0.97401 0.57881 0.66018 0.0
C1241 C 0.07798 0.54947 0.64128 0.0
H1242 H 0.99064 0.5118 0.65609 0.0
C1243 C 0.06834 0.58808 0.64314 0.0
C1244 C 0.03042 0.59897 0.64781 0.0
H1245 H 0.10619 0.54194 0.63185 0.0
H1246 H 0.08959 0.60911 0.63608 0.0
C1247 C 0.00349 0.57108 0.65663 0.0
C1248 C 0.82038 0.67035 0.62823 0.0
C1249 C 0.80276 0.65288 0.65939 0.0
H1250 H 0.87277 0.69007 0.60513 0.0
C1251 C 0.82439 0.6306 0.68425 0.0
H1252 H 0.80405 0.68761 0.60868 0.0
C1253 C 0.86373 0.63226 0.68265 0.0
C1254 C 0.88151 0.65635 0.65617 0.0
H1255 H 0.81115 0.61672 0.70839 0.0
H1256 H 0.87977 0.61864 0.70506 0.0
C1257 C 0.85983 0.67212 0.62657 0.0
C1258 C 0.92852 0.88405 0.5731 0.0
C1259 C 0.93254 0.91853 0.59244 0.0
H1260 H 0.93585 0.82391 0.57461 0.0
C1261 C 0.94276 0.91791 0.63085 0.0
H1262 H 0.92034 0.88374 0.54351 0.0
C1263 C 0.95237 0.88363 0.64851 0.0
C1264 C 0.95148 0.84942 0.62814 0.0
H1265 H 0.94618 0.94405 0.64643 0.0
H1266 H 0.96222 0.88421 0.67756 0.0
C1267 C 0.93762 0.84977 0.59087 0.0
C1268 C 0.85599 0.17895 0.17423 0.0
C1269 C 0.82051 0.18985 0.18835 0.0
H1270 H 0.89892 0.13575 0.17353 0.0
C1271 C 0.79921 0.16358 0.20955 0.0
H1272 H 0.8731 0.19887 0.15819 0.0
C1273 C 0.81382 0.128 0.21857 0.0
C1274 C 0.85022 0.11757 0.20669 0.0
H1275 H 0.77162 0.17118 0.22064 0.0
H1276 H 0.79695 0.1093 0.23612 0.0
C1277 C 0.87081 0.14299 0.18341 0.0
C1278 C 0.43484 0.87649 0.0685 0.0
C1279 C 0.45967 0.87242 0.03765 0.0
H1280 H 0.37679 0.88165 0.08571 0.0
C1281 C 0.44535 0.85951 0.00288 0.0
H1282 H 0.44511 0.88678 0.09547 0.0
C1283 C 0.40637 0.85614 0.99748 0.0
C1284 C 0.38135 0.86574 0.02675 0.0
H1285 H 0.46395 0.85629 0.97863 0.0
H1286 H 0.39579 0.85035 0.96928 0.0
C1287 C 0.39574 0.8737 0.0629 0.0
C1288 C 0.20295 0.35588 0.17922 0.0
C1289 C 0.17862 0.32542 0.17122 0.0
H1290 H 0.20721 0.41418 0.19478 0.0
C1291 C 0.14005 0.33262 0.1654 0.0
H1292 H 0.23298 0.35139 0.18336 0.0
C1293 C 0.1255 0.36883 0.17117 0.0
C1294 C 0.14921 0.39806 0.18369 0.0
H1295 H 0.12046 0.30992 0.15967 0.0
H1296 H 0.09521 0.37301 0.16899 0.0
C1297 C 0.18826 0.39186 0.18594 0.0
C1298 C 0.5906 0.5622 0.02948 0.0
C1299 C 0.55786 0.58465 0.03212 0.0
H1300 H 0.65034 0.56049 0.02155 0.0
C1301 C 0.56123 0.62429 0.02977 0.0
H1302 H 0.58889 0.53155 0.03151 0.0
C1303 C 0.59666 0.64099 0.02317 0.0
C1304 C 0.62933 0.61833 0.01966 0.0
H1305 H 0.53641 0.64223 0.03162 0.0
H1306 H 0.5984 0.67157 0.02052 0.0
C1307 C 0.6259 0.57883 0.02375 0.0
C1308 C 0.86963 0.81701 0.29681 0.0
C1309 C 0.84635 0.79779 0.32309 0.0
H1310 H 0.88716 0.87068 0.27378 0.0
C1311 C 0.82859 0.8188 0.35173 0.0
H1312 H 0.8836 0.80146 0.27436 0.0
C1313 C 0.82991 0.85862 0.35086 0.0
C1314 C 0.84962 0.87803 0.32181 0.0
H1315 H 0.81028 0.80482 0.37215 0.0
H1316 H 0.81284 0.87422 0.37102 0.0
C1317 C 0.87167 0.85675 0.29646 0.0
C1318 C 0.09079 0.92072 0.94356 0.0
C1319 C 0.05714 0.90123 0.95142 0.0
H1320 H 0.15097 0.91963 0.9441 0.0
C1321 C 0.05872 0.86294 0.96248 0.0
H1322 H 0.09016 0.9503 0.93494 0.0
C1323 C 0.09382 0.84547 0.9689 0.0
C1324 C 0.12763 0.86603 0.96383 0.0
H1325 H 0.033 0.84752 0.96898 0.0
H1326 H 0.09437 0.81658 0.97955 0.0
C1327 C 0.12564 0.90319 0.94923 0.0
C1328 C 0.13415 0.67682 0.34906 0.0
C1329 C 0.11803 0.69634 0.31837 0.0
H1330 H 0.15245 0.62257 0.3695 0.0
C1331 C 0.09565 0.67663 0.29238 0.0
H1332 H 0.15129 0.69173 0.36958 0.0
C1333 C 0.0959 0.63712 0.29253 0.0
C1334 C 0.11921 0.61755 0.31824 0.0
H1335 H 0.08271 0.69145 0.26871 0.0
H1336 H 0.08282 0.62256 0.26901 0.0
C1337 C 0.13506 0.63726 0.34882 0.0
C1338 C 0.93591 0.63018 0.92777 0.0
C1339 C 0.96251 0.63114 0.95715 0.0
H1340 H 0.87692 0.62624 0.91445 0.0
C1341 C 0.95075 0.64231 0.99354 0.0
H1342 H 0.94431 0.62135 0.89959 0.0
C1343 C 0.91228 0.64441 0.00221 0.0
C1344 C 0.88554 0.6365 0.97422 0.0
H1345 H 0.97089 0.6431 0.01664 0.0
H1346 H 0.90364 0.64742 0.03155 0.0
C1347 C 0.89733 0.63253 0.93639 0.0
C1348 C 0.16616 0.8616 0.17138 0.0
C1349 C 0.18171 0.82707 0.18375 0.0
H1350 H 0.16086 0.90123 0.12521 0.0
C1351 C 0.20025 0.80372 0.15733 0.0
H1352 H 0.1517 0.88005 0.19115 0.0
C1353 C 0.20554 0.81559 0.12004 0.0
C1354 C 0.19241 0.85119 0.10801 0.0
H1355 H 0.21194 0.77652 0.16581 0.0
H1356 H 0.22115 0.79731 0.10104 0.0
C1357 C 0.17154 0.87364 0.1337 0.0
C1358 C 0.17294 0.15148 0.32151 0.0
C1359 C 0.18577 0.18825 0.31337 0.0
H1360 H 0.16943 0.10686 0.36262 0.0
C1361 C 0.20025 0.2105 0.34298 0.0
H1362 H 0.16181 0.13365 0.29932 0.0
C1363 C 0.20511 0.19512 0.37918 0.0
C1364 C 0.19549 0.15718 0.3865 0.0
H1365 H 0.20994 0.23921 0.33766 0.0
H1366 H 0.21818 0.21238 0.4008 0.0
C1367 C 0.17773 0.13607 0.35779 0.0
C1368 C 0.37068 0.55878 0.9252 0.0
C1369 C 0.37377 0.53042 0.95304 0.0
H1370 H 0.36521 0.56999 0.86565 0.0
C1371 C 0.36215 0.49329 0.94455 0.0
H1372 H 0.37985 0.58747 0.93106 0.0
C1373 C 0.3545 0.48314 0.90721 0.0
C1374 C 0.35753 0.51028 0.87826 0.0
H1375 H 0.36439 0.47097 0.96574 0.0
H1376 H 0.35123 0.45338 0.90043 0.0
C1377 C 0.36232 0.54869 0.88778 0.0
C1378 C 0.77916 0.38117 0.30171 0.0
C1379 C 0.8044 0.35753 0.28211 0.0
H1380 H 0.75786 0.39781 0.35587 0.0
C1381 C 0.83426 0.34023 0.30173 0.0
H1382 H 0.75605 0.39497 0.28689 0.0
C1383 C 0.83494 0.34127 0.34126 0.0
C1384 C 0.80605 0.36006 0.36122 0.0
H1385 H 0.85407 0.32193 0.28709 0.0
H1386 H 0.85566 0.32417 0.35619 0.0
C1387 C 0.7802 0.38276 0.34119 0.0
C1388 C 0.14122 0.49652 0.4424 0.0
C1389 C 0.12986 0.4625 0.46007 0.0
H1390 H 0.14869 0.52616 0.38964 0.0
C1391 C 0.12727 0.42942 0.4382 0.0
H1392 H 0.14353 0.5224 0.45866 0.0
C1393 C 0.12942 0.43182 0.39864 0.0
C1394 C 0.13557 0.46698 0.3808 0.0
H1395 H 0.1185 0.40283 0.45106 0.0
H1396 H 0.1222 0.40715 0.38199 0.0
C1397 C 0.14432 0.49867 0.40291 0.0
C1398 C 0.33619 0.13549 0.67934 0.0
C1399 C 0.30943 0.12242 0.70572 0.0
H1400 H 0.3466 0.14804 0.62072 0.0
C1401 C 0.27927 0.09992 0.69296 0.0
H1402 H 0.35946 0.15318 0.68844 0.0
C1403 C 0.27205 0.09668 0.65413 0.0
C1404 C 0.29481 0.11617 0.62792 0.0
H1405 H 0.25818 0.08965 0.71287 0.0
H1406 H 0.24556 0.08419 0.64521 0.0
C1407 C 0.32878 0.13252 0.64047 0.0
C1408 C 0.3762 0.44622 0.56033 0.0
C1409 C 0.41377 0.43337 0.55944 0.0
H1410 H 0.33381 0.47612 0.59146 0.0
C1411 C 0.43655 0.43768 0.59169 0.0
H1412 H 0.35802 0.44345 0.53583 0.0
C1413 C 0.42299 0.4571 0.62314 0.0
C1414 C 0.38639 0.47241 0.62304 0.0
H1415 H 0.46567 0.42804 0.59177 0.0
H1416 H 0.44159 0.46106 0.64701 0.0
C1417 C 0.36268 0.4658 0.59181 0.0
C1418 C 0.62534 0.04568 0.55255 0.0
C1419 C 0.58619 0.04331 0.54707 0.0
H1420 H 0.67109 0.04063 0.59214 0.0
C1421 C 0.56262 0.03722 0.57884 0.0
H1422 H 0.64413 0.05027 0.52864 0.0
C1423 C 0.57778 0.03232 0.61511 0.0
C1424 C 0.61703 0.03249 0.62049 0.0
H1425 H 0.53222 0.03557 0.57551 0.0
H1426 H 0.55875 0.02702 0.63865 0.0
C1427 C 0.64066 0.03988 0.58889 0.0
C1428 C 0.65486 0.70959 0.31547 0.0
C1429 C 0.68296 0.69172 0.33729 0.0
H1430 H 0.5978 0.72837 0.31176 0.0
C1431 C 0.673 0.67621 0.37276 0.0
H1432 H 0.66155 0.72165 0.28791 0.0
C1433 C 0.63589 0.68032 0.38679 0.0
C1434 C 0.6082 0.69979 0.36542 0.0
H1435 H 0.69423 0.66274 0.39037 0.0
H1436 H 0.62925 0.66934 0.41478 0.0
C1437 C 0.61811 0.71345 0.32923 0.0
C1438 C 0.94242 0.09618 0.92612 0.0
C1439 C 0.94955 0.06173 0.90777 0.0
H1440 H 0.95056 0.15604 0.92669 0.0
C1441 C 0.96875 0.06222 0.87282 0.0
H1442 H 0.92837 0.09647 0.95348 0.0
C1443 C 0.98264 0.09653 0.85773 0.0
C1444 C 0.9773 0.13084 0.87731 0.0
H1445 H 0.9755 0.03586 0.85867 0.0
H1446 H -0.00146 0.09598 0.83144 0.0
C1447 C 0.95583 0.13027 0.91099 0.0
C1448 C 0.30115 0.76488 0.36931 0.0
C1449 C 0.28468 0.79535 0.34936 0.0
H1450 H 0.35265 0.73836 0.38738 0.0
C1451 C 0.30707 0.82669 0.33938 0.0
H1452 H 0.28427 0.7406 0.37772 0.0
C1453 C 0.3462 0.82512 0.34438 0.0
C1454 C 0.36319 0.79259 0.36018 0.0
H1455 H 0.295 0.85058 0.32413 0.0
H1456 H 0.36348 0.84777 0.33273 0.0
C1457 C 0.34021 0.76375 0.37517 0.0
C1458 C 0.98743 0.4545 0.86029 0.0
C1459 C 0.02494 0.46404 0.86905 0.0
H1460 H 0.94848 0.40919 0.85113 0.0
C1461 C 0.05382 0.43759 0.86233 0.0
H1462 H 0.96477 0.47475 0.86475 0.0
C1463 C 0.04441 0.4 0.85389 0.0
C1464 C 0.00623 0.38912 0.85255 0.0
H1465 H 0.08292 0.44437 0.8689 0.0
H1466 H 0.06654 0.37868 0.85431 0.0
C1467 C 0.97808 0.41707 0.85222 0.0
C1468 C 0.65632 0.27403 0.12339 0.0
C1469 C 0.67391 0.30775 0.13462 0.0
H1470 H 0.60468 0.24622 0.10969 0.0
C1471 C 0.65278 0.34157 0.13551 0.0
H1472 H 0.67205 0.24761 0.12247 0.0
C1473 C 0.61371 0.34076 0.12799 0.0
C1474 C 0.59589 0.30605 0.12018 0.0
H1475 H 0.66573 0.36776 0.14473 0.0
H1476 H 0.59719 0.36652 0.1306 0.0
C1477 C 0.61775 0.27314 0.1165 0.0
C1478 C 0.55741 0.06862 0.10722 0.0
C1479 C 0.5266 0.0436 0.10521 0.0
H1480 H 0.57464 0.12705 0.10855 0.0
C1481 C 0.48991 0.05724 0.11179 0.0
H1482 H 0.58586 0.05873 0.10156 0.0
C1483 C 0.48362 0.09598 0.11586 0.0
C1484 C 0.51394 0.1214 0.11333 0.0
H1485 H 0.46579 0.03837 0.11039 0.0
H1486 H 0.45478 0.10635 0.11742 0.0
C1487 C 0.55105 0.1076 0.11106 0.0
C1488 C 0.32049 0.13902 0.16697 0.0
C1489 C 0.29639 0.16392 0.14752 0.0
H1490 H 0.37755 0.12683 0.18237 0.0
C1491 C 0.3113 0.18717 0.11871 0.0
H1492 H 0.30942 0.12068 0.18915 0.0
C1493 C 0.35043 0.19168 0.11547 0.0
C1494 C 0.37455 0.17246 0.14075 0.0
H1495 H 0.29304 0.20652 0.10326 0.0
H1496 H 0.36119 0.2137 0.09681 0.0
C1497 C 0.35955 0.1432 0.16356 0.0
C1498 C 0.41477 0.41273 0.10019 0.0
C1499 C 0.43254 0.44451 0.11593 0.0
H1500 H 0.41012 0.3523 0.09984 0.0
C1501 C 0.45424 0.44006 0.14882 0.0
H1502 H 0.39823 0.4156 0.07449 0.0
C1503 C 0.46157 0.40363 0.16318 0.0
C1504 C 0.44748 0.37135 0.14452 0.0
H1505 H 0.46869 0.46417 0.16098 0.0
H1506 H 0.48078 0.40072 0.18689 0.0
C1507 C 0.42211 0.37644 0.11436 0.0
C1508 C 0.30252 0.663 0.71612 0.0
C1509 C 0.32339 0.69114 0.69707 0.0
H1510 H 0.30059 0.60588 0.73633 0.0
C1511 C 0.35872 0.68202 0.68152 0.0
H1512 H 0.2751 0.66945 0.72832 0.0
C1513 C 0.37368 0.64552 0.68646 0.0
C1514 C 0.3533 0.61767 0.70682 0.0
H1515 H 0.37556 0.70356 0.66747 0.0
H1516 H 0.40158 0.63947 0.67528 0.0
C1517 C 0.31716 0.6266 0.72073 0.0
C1518 C 0.94986 0.39854 0.47751 0.0
C1519 C 0.96199 0.39491 0.51517 0.0
H1520 H 0.90291 0.39707 0.43967 0.0
C1521 C 0.93786 0.37823 0.54226 0.0
H1522 H 0.96829 0.41057 0.45597 0.0
C1523 C 0.9002 0.37041 0.53283 0.0
C1524 C 0.88697 0.37898 0.49627 0.0
H1525 H 0.94685 0.37492 0.57144 0.0
H1526 H 0.88067 0.36181 0.55499 0.0
C1527 C 0.91263 0.39046 0.4681 0.0
C1528 C 0.64232 0.82914 0.66957 0.0
C1529 C 0.68063 0.82147 0.67639 0.0
H1530 H 0.59758 0.86993 0.67186 0.0
C1531 C 0.70437 0.85174 0.6871 0.0
H1532 H 0.62317 0.80673 0.66164 0.0
C1533 C 0.68957 0.88784 0.69403 0.0
C1534 C 0.65082 0.89481 0.68959 0.0
H1535 H 0.73419 0.84711 0.69239 0.0
H1536 H 0.70828 0.90991 0.70404 0.0
C1537 C 0.62763 0.86548 0.67579 0.0
C1538 C 0.05492 0.10479 0.53195 0.0
C1539 C 0.0518 0.06609 0.52368 0.0
H1540 H 0.09078 0.15324 0.53381 0.0
C1541 C 0.08396 0.04573 0.51211 0.0
H1542 H 0.03052 0.12124 0.54061 0.0
C1543 C 0.11886 0.06408 0.50871 0.0
C1544 C 0.1215 0.1031 0.51589 0.0
H1545 H 0.08212 0.01574 0.50583 0.0
H1546 H 0.14327 0.04807 0.49944 0.0
C1547 C 0.08936 0.12315 0.52784 0.0
C1548 C 0.38224 0.30248 0.77239 0.0
C1549 C 0.36045 0.28917 0.8032 0.0
H1550 H 0.39891 0.35097 0.73932 0.0
C1551 C 0.3474 0.31518 0.83017 0.0
H1552 H 0.39281 0.28286 0.75132 0.0
C1553 C 0.35073 0.35413 0.82308 0.0
C1554 C 0.3677 0.36732 0.78939 0.0
H1555 H 0.33038 0.30573 0.854 0.0
H1556 H 0.33607 0.37373 0.84159 0.0
C1557 C 0.38604 0.34144 0.76563 0.0
C1558 C 0.59142 0.40844 0.42426 0.0
C1559 C 0.55844 0.38886 0.43461 0.0
H1560 H 0.65135 0.41211 0.42864 0.0
C1561 C 0.56159 0.35422 0.4543 0.0
H1562 H 0.58971 0.43525 0.4091 0.0
C1563 C 0.5971 0.3413 0.46651 0.0
C1564 C 0.62986 0.36274 0.45889 0.0
H1565 H 0.53649 0.33881 0.46297 0.0
H1566 H 0.59863 0.31552 0.48332 0.0
C1567 C 0.62671 0.39546 0.43608 0.0
C1568 C 0.58982 0.18963 0.78309 0.0
C1569 C 0.61037 0.20703 0.8123 0.0
H1570 H 0.57981 0.13766 0.75366 0.0
C1571 C 0.62304 0.18468 0.84272 0.0
H1572 H 0.5796 0.20645 0.75938 0.0
C1573 C 0.62328 0.14518 0.83939 0.0
C1574 C 0.61031 0.12812 0.80593 0.0
H1575 H 0.63898 0.19739 0.86556 0.0
H1576 H 0.63873 0.12859 0.8602 0.0
C1577 C 0.59012 0.15014 0.77966 0.0
C1578 C 0.42256 0.13774 0.42101 0.0
C1579 C 0.4506 0.13716 0.44899 0.0
H1580 H 0.36291 0.13883 0.41073 0.0
C1581 C 0.44168 0.15095 0.48534 0.0
H1582 H 0.42862 0.1271 0.39288 0.0
C1583 C 0.404 0.15714 0.49577 0.0
C1584 C 0.37513 0.15042 0.46963 0.0
H1585 H 0.46296 0.15083 0.50741 0.0
H1586 H 0.3973 0.16144 0.52544 0.0
C1587 C 0.38484 0.14441 0.43137 0.0
C1588 C 0.67749 0.36217 0.66448 0.0
C1589 C 0.69677 0.32926 0.67631 0.0
H1590 H 0.66822 0.40246 0.61956 0.0
C1591 C 0.72085 0.31081 0.65067 0.0
H1592 H 0.65908 0.37724 0.68374 0.0
C1593 C 0.72627 0.32527 0.61435 0.0
C1594 C 0.70772 0.35855 0.60252 0.0
H1595 H 0.73607 0.28532 0.65876 0.0
H1596 H 0.74568 0.31053 0.59582 0.0
C1597 C 0.68291 0.37673 0.62781 0.0
C1598 C 0.70079 0.7015 0.84339 0.0
C1599 C 0.68855 0.67916 0.81291 0.0
H1600 H 0.7186 0.70287 0.90108 0.0
C1601 C 0.67982 0.64084 0.81951 0.0
H1602 H 0.70751 0.73123 0.83928 0.0
C1603 C 0.686 0.62455 0.85524 0.0
C1604 C 0.7014 0.64624 0.88479 0.0
H1605 H 0.671 0.62275 0.79655 0.0
H1606 H 0.68082 0.59447 0.85898 0.0
C1607 C 0.70737 0.68518 0.87886 0.0
C1608 C 0.87371 0.08924 0.44162 0.0
C1609 C 0.85946 0.06462 0.4696 0.0
H1610 H 0.88988 0.0941 0.38315 0.0
C1611 C 0.835 0.03534 0.45806 0.0
H1612 H 0.89199 0.11252 0.44957 0.0
C1613 C 0.83431 0.02413 0.41996 0.0
C1614 C 0.85633 0.04371 0.3932 0.0
H1615 H 0.82292 0.01631 0.4791 0.0
H1616 H 0.8206 -0.00224 0.41249 0.0
C1617 C 0.87325 0.07814 0.40359 0.0
C1618 C 0.33771 0.84102 0.81337 0.0
C1619 C 0.30775 0.85872 0.79421 0.0
H1620 H 0.35966 0.82434 0.86748 0.0
C1621 C 0.28316 0.88258 0.81437 0.0
H1622 H 0.35699 0.82246 0.79834 0.0
C1623 C 0.28487 0.88404 0.85388 0.0
C1624 C 0.31066 0.86091 0.87356 0.0
H1625 H 0.25991 0.89661 0.80001 0.0
H1626 H 0.26287 0.89928 0.8689 0.0
C1627 C 0.33902 0.8419 0.85297 0.0
C1628 C 0.63468 0.99608 0.94366 0.0
C1629 C 0.62349 0.95998 0.95674 0.0
H1630 H 0.64539 0.0314 0.89509 0.0
C1631 C 0.62503 0.92931 0.93163 0.0
H1632 H 0.63344 0.02025 0.96246 0.0
C1633 C 0.63191 0.93579 0.89295 0.0
C1634 C 0.63753 0.97289 0.87908 0.0
H1635 H 0.61579 0.9014 0.94073 0.0
H1636 H 0.62767 0.91264 0.87334 0.0
C1637 C 0.64185 0.00246 0.90508 0.0
C1638 C 0.84667 0.64627 0.17856 0.0
C1639 C 0.81569 0.63517 0.20077 0.0
H1640 H 0.86739 0.65472 0.12205 0.0
C1641 C 0.78658 0.61388 0.18414 0.0
H1642 H 0.86927 0.66291 0.19076 0.0
C1643 C 0.78558 0.60882 0.14486 0.0
C1644 C 0.81328 0.62587 0.12191 0.0
H1645 H 0.76236 0.6051 0.20091 0.0
H1646 H 0.76056 0.59641 0.13237 0.0
C1647 C 0.84545 0.64167 0.13921 0.0
C1648 C 0.86062 0.96374 0.07251 0.0
C1649 C 0.89755 0.94921 0.07079 0.0
H1650 H 0.81739 0.98807 0.10766 0.0
C1651 C 0.91764 0.94371 0.1047 0.0
H1652 H 0.84482 0.9689 0.0467 0.0
C1653 C 0.90231 0.95489 0.13938 0.0
C1654 C 0.86658 0.97231 0.14102 0.0
H1655 H 0.94632 0.93282 0.10411 0.0
H1656 H 0.9193 0.95141 0.16466 0.0
C1657 C 0.84528 0.97533 0.10737 0.0
C1658 C 0.13622 0.53984 0.0582 0.0
C1659 C 0.09739 0.53617 0.05164 0.0
H1660 H 0.18039 0.5395 0.09963 0.0
C1661 C 0.07253 0.53322 0.08275 0.0
H1662 H 0.15585 0.54245 0.03469 0.0
C1663 C 0.08625 0.53248 0.11976 0.0
C1664 C 0.12525 0.53366 0.12647 0.0
H1665 H 0.04227 0.53119 0.07843 0.0
H1666 H 0.0663 0.52946 0.14288 0.0
C1667 C 0.1501 0.53818 0.09534 0.0
loop_
_geom_bond_atom_site_label_1
_geom_bond_atom_site_label_2
_geom_bond_distance
_geom_bond_site_symmetry_2
_ccdc_geom_bond_type
Zn0 O6 1.920 . S
Zn0 O12 1.898 . S
Zn0 O15 1.905 . S
Zn1 O9 1.905 . S
Zn1 O10 1.898 . S
Zn1 O18 1.920 . S
Zn2 O5 2.080 . S
Zn2 O8 2.114 . S
Zn2 O11 2.120 . S
Zn2 O13 2.120 . S
Zn2 O14 2.114 . S
Zn2 O17 2.080 . S
C3 O8 1.166 . S
C3 O9 1.182 . S
C4 O10 1.167 . S
C4 O11 1.299 . S
O5 Zn2 2.080 . S
O5 C19 1.305 . S
O6 Zn0 1.920 . S
O6 C19 1.234 . S
C7 O12 1.167 . S
C7 O13 1.299 . S
O8 Zn2 2.114 . S
O8 C3 1.166 . S
O9 Zn1 1.905 . S
O9 C3 1.182 . S
O10 Zn1 1.898 . S
O10 C4 1.167 . S
O11 Zn2 2.120 . S
O11 C4 1.299 . S
O12 Zn0 1.898 . S
O12 C7 1.167 . S
O13 Zn2 2.120 . S
O13 C7 1.299 . S
O14 Zn2 2.114 . S
O14 C16 1.166 . S
O15 Zn0 1.905 . S
O15 C16 1.182 . S
C16 O14 1.166 . S
C16 O15 1.182 . S
O17 Zn2 2.080 . S
O17 C20 1.305 . S
O18 Zn1 1.920 . S
O18 C20 1.234 . S
C19 O5 1.305 . S
C19 O6 1.234 . S
C20 O17 1.305 . S
C20 O18 1.234 . S
Zn21 O27 1.920 . S
Zn21 O33 1.898 . S
Zn21 O36 1.905 . S
Zn22 O30 1.905 . S
Zn22 O31 1.898 . S
Zn22 O39 1.920 1_554 S
Zn23 O26 2.080 . S
Zn23 O29 2.114 . S
Zn23 O32 2.120 . S
Zn23 O34 2.120 . S
Zn23 O35 2.114 . S
Zn23 O38 2.080 . S
C24 O29 1.166 . S
C24 O30 1.182 . S
C25 O31 1.167 . S
C25 O32 1.299 . S
O26 Zn23 2.080 . S
O26 C40 1.305 . S
O27 Zn21 1.920 . S
O27 C40 1.234 . S
C28 O33 1.167 . S
C28 O34 1.299 . S
O29 Zn23 2.114 . S
O29 C24 1.166 . S
O30 Zn22 1.905 . S
O30 C24 1.182 . S
O31 Zn22 1.898 . S
O31 C25 1.167 . S
O32 Zn23 2.120 . S
O32 C25 1.299 . S
O33 Zn21 1.898 . S
O33 C28 1.167 . S
O34 Zn23 2.120 . S
O34 C28 1.299 . S
O35 Zn23 2.114 . S
O35 C37 1.166 . S
O36 Zn21 1.905 . S
O36 C37 1.182 . S
C37 O35 1.166 . S
C37 O36 1.182 . S
O38 Zn23 2.080 . S
O38 C41 1.305 1_554 S
O39 Zn22 1.920 1_556 S
O39 C41 1.234 . S
C40 O26 1.305 . S
C40 O27 1.234 . S
C41 O38 1.305 1_556 S
C41 O39 1.234 . S
Zn42 O48 1.920 . S
Zn42 O54 1.898 . S
Zn42 O57 1.905 . S
Zn43 O51 1.905 . S
Zn43 O52 1.898 . S
Zn43 O60 1.920 . S
Zn44 O47 2.080 . S
Zn44 O50 2.114 . S
Zn44 O53 2.120 . S
Zn44 O55 2.120 . S
Zn44 O56 2.114 . S
Zn44 O59 2.080 . S
C45 O50 1.166 . S
C45 O51 1.182 . S
C46 O52 1.167 . S
C46 O53 1.299 . S
O47 Zn44 2.080 . S
O47 C61 1.305 . S
O48 Zn42 1.920 . S
O48 C61 1.234 . S
C49 O54 1.167 . S
C49 O55 1.299 . S
O50 Zn44 2.114 . S
O50 C45 1.166 . S
O51 Zn43 1.905 . S
O51 C45 1.182 . S
O52 Zn43 1.898 . S
O52 C46 1.167 . S
O53 Zn44 2.120 . S
O53 C46 1.299 . S
O54 Zn42 1.898 . S
O54 C49 1.167 . S
O55 Zn44 2.120 . S
O55 C49 1.299 . S
O56 Zn44 2.114 . S
O56 C58 1.166 . S
O57 Zn42 1.905 . S
O57 C58 1.182 . S
C58 O56 1.166 . S
C58 O57 1.182 . S
O59 Zn44 2.080 . S
O59 C62 1.305 . S
O60 Zn43 1.920 . S
O60 C62 1.234 . S
C61 O47 1.305 . S
C61 O48 1.234 . S
C62 O59 1.305 . S
C62 O60 1.234 . S
Zn63 O69 1.920 1_554 S
Zn63 O75 1.898 . S
Zn63 O78 1.905 1_565 S
Zn64 O72 1.905 . S
Zn64 O73 1.898 . S
Zn64 O81 1.920 . S
Zn65 O68 2.080 . S
Zn65 O71 2.114 . S
Zn65 O74 2.120 . S
Zn65 O76 2.120 . S
Zn65 O77 2.114 . S
Zn65 O80 2.080 . S
C66 O71 1.166 . S
C66 O72 1.182 . S
C67 O73 1.167 . S
C67 O74 1.299 . S
O68 Zn65 2.080 . S
O68 C82 1.305 1_554 S
O69 Zn63 1.920 1_556 S
O69 C82 1.234 . S
C70 O75 1.167 . S
C70 O76 1.299 . S
O71 Zn65 2.114 . S
O71 C66 1.166 . S
O72 Zn64 1.905 . S
O72 C66 1.182 . S
O73 Zn64 1.898 . S
O73 C67 1.167 . S
O74 Zn65 2.120 . S
O74 C67 1.299 . S
O75 Zn63 1.898 . S
O75 C70 1.167 . S
O76 Zn65 2.120 . S
O76 C70 1.299 . S
O77 Zn65 2.114 . S
O77 C79 1.166 1_565 S
O78 Zn63 1.905 1_545 S
O78 C79 1.182 . S
C79 O77 1.166 1_545 S
C79 O78 1.182 . S
O80 Zn65 2.080 . S
O80 C83 1.305 . S
O81 Zn64 1.920 . S
O81 C83 1.234 . S
C82 O68 1.305 1_556 S
C82 O69 1.234 . S
C83 O80 1.305 . S
C83 O81 1.234 . S
Zn84 O90 1.920 . S
Zn84 O96 1.898 . S
Zn84 O99 1.905 . S
Zn85 O93 1.905 . S
Zn85 O94 1.898 . S
Zn85 O102 1.920 . S
Zn86 O89 2.080 . S
Zn86 O92 2.114 . S
Zn86 O95 2.120 . S
Zn86 O97 2.120 . S
Zn86 O98 2.114 . S
Zn86 O101 2.080 . S
C87 O92 1.166 . S
C87 O93 1.182 . S
C88 O94 1.167 . S
C88 O95 1.299 . S
O89 Zn86 2.080 . S
O89 C103 1.305 . S
O90 Zn84 1.920 . S
O90 C103 1.234 . S
C91 O96 1.167 . S
C91 O97 1.299 . S
O92 Zn86 2.114 . S
O92 C87 1.166 . S
O93 Zn85 1.905 . S
O93 C87 1.182 . S
O94 Zn85 1.898 . S
O94 C88 1.167 . S
O95 Zn86 2.120 . S
O95 C88 1.299 . S
O96 Zn84 1.898 . S
O96 C91 1.167 . S
O97 Zn86 2.120 . S
O97 C91 1.299 . S
O98 Zn86 2.114 . S
O98 C100 1.166 . S
O99 Zn84 1.905 . S
O99 C100 1.182 . S
C100 O98 1.166 . S
C100 O99 1.182 . S
O101 Zn86 2.080 . S
O101 C104 1.305 . S
O102 Zn85 1.920 . S
O102 C104 1.234 . S
C103 O89 1.305 . S
C103 O90 1.234 . S
C104 O101 1.305 . S
C104 O102 1.234 . S
Zn105 O111 1.920 . S
Zn105 O117 1.898 1_556 S
Zn105 O120 1.905 1_455 S
Zn106 O114 1.905 . S
Zn106 O115 1.898 . S
Zn106 O123 1.920 . S
Zn107 O110 2.080 . S
Zn107 O113 2.114 . S
Zn107 O116 2.120 . S
Zn107 O118 2.120 . S
Zn107 O119 2.114 . S
Zn107 O122 2.080 . S
C108 O113 1.166 . S
C108 O114 1.182 . S
C109 O115 1.167 . S
C109 O116 1.299 . S
O110 Zn107 2.080 . S
O110 C124 1.305 . S
O111 Zn105 1.920 . S
O111 C124 1.234 . S
C112 O117 1.167 . S
C112 O118 1.299 1_554 S
O113 Zn107 2.114 . S
O113 C108 1.166 . S
O114 Zn106 1.905 . S
O114 C108 1.182 . S
O115 Zn106 1.898 . S
O115 C109 1.167 . S
O116 Zn107 2.120 . S
O116 C109 1.299 . S
O117 Zn105 1.898 1_554 S
O117 C112 1.167 . S
O118 Zn107 2.120 . S
O118 C112 1.299 1_556 S
O119 Zn107 2.114 . S
O119 C121 1.146 1_455 S
O120 Zn105 1.905 1_655 S
O120 C121 1.191 . S
C121 O119 1.146 1_655 S
C121 O120 1.191 . S
O122 Zn107 2.080 . S
O122 C125 1.305 . S
O123 Zn106 1.920 . S
O123 C125 1.234 . S
C124 O110 1.305 . S
C124 O111 1.234 . S
C125 O122 1.305 . S
C125 O123 1.234 . S
Zn126 O132 1.920 . S
Zn126 O138 1.898 . S
Zn126 O141 1.905 . S
Zn127 O135 1.905 . S
Zn127 O136 1.898 . S
Zn127 O144 1.920 . S
Zn128 O131 2.080 . S
Zn128 O134 2.114 . S
Zn128 O137 2.120 . S
Zn128 O139 2.120 . S
Zn128 O140 2.114 . S
Zn128 O143 2.080 . S
C129 O134 1.166 . S
C129 O135 1.182 . S
C130 O136 1.167 . S
C130 O137 1.299 . S
O131 Zn128 2.080 . S
O131 C145 1.305 . S
O132 Zn126 1.920 . S
O132 C145 1.234 . S
C133 O138 1.167 . S
C133 O139 1.299 . S
O134 Zn128 2.114 . S
O134 C129 1.166 . S
O135 Zn127 1.905 . S
O135 C129 1.182 . S
O136 Zn127 1.898 . S
O136 C130 1.167 . S
O137 Zn128 2.120 . S
O137 C130 1.299 . S
O138 Zn126 1.898 . S
O138 C133 1.167 . S
O139 Zn128 2.120 . S
O139 C133 1.299 . S
O140 Zn128 2.114 . S
O140 C142 1.166 . S
O141 Zn126 1.905 . S
O141 C142 1.182 . S
C142 O140 1.166 . S
C142 O141 1.182 . S
O143 Zn128 2.080 . S
O143 C146 1.305 . S
O144 Zn127 1.920 . S
O144 C146 1.234 . S
C145 O131 1.305 . S
C145 O132 1.234 . S
C146 O143 1.305 . S
C146 O144 1.234 . S
Zn147 O153 1.920 1_565 S
Zn147 O159 1.898 1_556 S
Zn147 O162 1.905 1_655 S
Zn148 O156 1.905 . S
Zn148 O157 1.898 . S
Zn148 O165 1.920 . S
Zn149 O152 2.080 . S
Zn149 O155 2.114 . S
Zn149 O158 2.120 . S
Zn149 O160 2.120 . S
Zn149 O161 2.114 . S
Zn149 O164 2.080 . S
C150 O155 1.166 . S
C150 O156 1.182 . S
C151 O157 1.167 . S
C151 O158 1.299 . S
O152 Zn149 2.080 . S
O152 C166 1.305 1_565 S
O153 Zn147 1.920 1_545 S
O153 C166 1.234 . S
C154 O159 1.167 . S
C154 O160 1.299 1_554 S
O155 Zn149 2.114 . S
O155 C150 1.166 . S
O156 Zn148 1.905 . S
O156 C150 1.182 . S
O157 Zn148 1.898 . S
O157 C151 1.167 . S
O158 Zn149 2.120 . S
O158 C151 1.299 . S
O159 Zn147 1.898 1_554 S
O159 C154 1.167 . S
O160 Zn149 2.120 . S
O160 C154 1.299 1_556 S
O161 Zn149 2.114 . S
O161 C163 1.158 1_655 S
O162 Zn147 1.905 1_455 S
O162 C163 1.186 . S
C163 O161 1.158 1_455 S
C163 O162 1.186 . S
O164 Zn149 2.080 . S
O164 C167 1.305 . S
O165 Zn148 1.920 . S
O165 C167 1.234 . S
C166 O152 1.305 1_545 S
C166 O153 1.234 . S
C167 O164 1.305 . S
C167 O165 1.234 . S
Zn168 O174 1.920 . S
Zn168 O180 1.898 . S
Zn168 O183 1.905 . S
Zn169 O177 1.905 . S
Zn169 O178 1.898 . S
Zn169 O186 1.920 . S
Zn170 O173 2.080 . S
Zn170 O176 2.114 . S
Zn170 O179 2.120 . S
Zn170 O181 2.120 . S
Zn170 O182 2.114 . S
Zn170 O185 2.080 . S
C171 O176 1.166 . S
C171 O177 1.182 . S
C172 O178 1.167 . S
C172 O179 1.299 . S
O173 Zn170 2.080 . S
O173 C187 1.305 . S
O174 Zn168 1.920 . S
O174 C187 1.234 . S
C175 O180 1.167 . S
C175 O181 1.299 . S
O176 Zn170 2.114 . S
O176 C171 1.166 . S
O177 Zn169 1.905 . S
O177 C171 1.182 . S
O178 Zn169 1.898 . S
O178 C172 1.167 . S
O179 Zn170 2.120 . S
O179 C172 1.299 . S
O180 Zn168 1.898 . S
O180 C175 1.167 . S
O181 Zn170 2.120 . S
O181 C175 1.299 . S
O182 Zn170 2.114 . S
O182 C184 1.166 . S
O183 Zn168 1.905 . S
O183 C184 1.182 . S
C184 O182 1.166 . S
C184 O183 1.182 . S
O185 Zn170 2.080 . S
O185 C188 1.305 . S
O186 Zn169 1.920 . S
O186 C188 1.234 . S
C187 O173 1.305 . S
C187 O174 1.234 . S
C188 O185 1.305 . S
C188 O186 1.234 . S
Zn189 O195 1.920 . S
Zn189 O201 1.898 . S
Zn189 O204 1.905 . S
Zn190 O198 1.905 . S
Zn190 O199 1.898 . S
Zn190 O207 1.920 . S
Zn191 O194 2.080 . S
Zn191 O197 2.114 . S
Zn191 O200 2.120 . S
Zn191 O202 2.120 . S
Zn191 O203 2.114 . S
Zn191 O206 2.080 . S
C192 O197 1.166 . S
C192 O198 1.182 . S
C193 O199 1.167 . S
C193 O200 1.299 . S
O194 Zn191 2.080 . S
O194 C208 1.305 . S
O195 Zn189 1.920 . S
O195 C208 1.234 . S
C196 O201 1.167 . S
C196 O202 1.299 . S
O197 Zn191 2.114 . S
O197 C192 1.166 . S
O198 Zn190 1.905 . S
O198 C192 1.182 . S
O199 Zn190 1.898 . S
O199 C193 1.167 . S
O200 Zn191 2.120 . S
O200 C193 1.299 . S
O201 Zn189 1.898 . S
O201 C196 1.167 . S
O202 Zn191 2.120 . S
O202 C196 1.299 . S
O203 Zn191 2.114 . S
O203 C205 1.166 . S
O204 Zn189 1.905 . S
O204 C205 1.182 . S
C205 O203 1.166 . S
C205 O204 1.182 . S
O206 Zn191 2.080 . S
O206 C209 1.305 . S
O207 Zn190 1.920 . S
O207 C209 1.234 . S
C208 O194 1.305 . S
C208 O195 1.234 . S
C209 O206 1.305 . S
C209 O207 1.234 . S
Zn210 O216 1.920 . S
Zn210 O222 1.898 1_455 S
Zn210 O225 1.905 . S
Zn211 O219 1.905 . S
Zn211 O220 1.898 . S
Zn211 O228 1.920 . S
Zn212 O215 2.080 . S
Zn212 O218 2.114 . S
Zn212 O221 2.120 . S
Zn212 O223 2.120 . S
Zn212 O224 2.114 . S
Zn212 O227 2.080 . S
C213 O218 1.166 . S
C213 O219 1.182 . S
C214 O220 1.167 . S
C214 O221 1.299 . S
O215 Zn212 2.080 . S
O215 C229 1.305 . S
O216 Zn210 1.920 . S
O216 C229 1.234 . S
C217 O222 1.167 . S
C217 O223 1.299 1_655 S
O218 Zn212 2.114 . S
O218 C213 1.166 . S
O219 Zn211 1.905 . S
O219 C213 1.182 . S
O220 Zn211 1.898 . S
O220 C214 1.167 . S
O221 Zn212 2.120 . S
O221 C214 1.299 . S
O222 Zn210 1.898 1_655 S
O222 C217 1.167 . S
O223 Zn212 2.120 . S
O223 C217 1.299 1_455 S
O224 Zn212 2.114 . S
O224 C226 1.166 . S
O225 Zn210 1.905 . S
O225 C226 1.182 . S
C226 O224 1.166 . S
C226 O225 1.182 . S
O227 Zn212 2.080 . S
O227 C230 1.305 . S
O228 Zn211 1.920 . S
O228 C230 1.234 . S
C229 O215 1.305 . S
C229 O216 1.234 . S
C230 O227 1.305 . S
C230 O228 1.234 . S
Zn231 O237 1.920 . S
Zn231 O243 1.898 1_655 S
Zn231 O246 1.905 1_545 S
Zn232 O240 1.905 . S
Zn232 O241 1.898 . S
Zn232 O249 1.920 . S
Zn233 O236 2.080 . S
Zn233 O239 2.114 . S
Zn233 O242 2.120 . S
Zn233 O244 2.120 . S
Zn233 O245 2.114 . S
Zn233 O248 2.080 . S
C234 O239 1.166 . S
C234 O240 1.182 . S
C235 O241 1.167 . S
C235 O242 1.299 . S
O236 Zn233 2.080 . S
O236 C250 1.305 . S
O237 Zn231 1.920 . S
O237 C250 1.234 . S
C238 O243 1.167 . S
C238 O244 1.299 1_455 S
O239 Zn233 2.114 . S
O239 C234 1.166 . S
O240 Zn232 1.905 . S
O240 C234 1.182 . S
O241 Zn232 1.898 . S
O241 C235 1.167 . S
O242 Zn233 2.120 . S
O242 C235 1.299 . S
O243 Zn231 1.898 1_455 S
O243 C238 1.167 . S
O244 Zn233 2.120 . S
O244 C238 1.299 1_655 S
O245 Zn233 2.114 . S
O245 C247 1.166 1_545 S
O246 Zn231 1.905 1_565 S
O246 C247 1.182 . S
C247 O245 1.166 1_565 S
C247 O246 1.182 . S
O248 Zn233 2.080 . S
O248 C251 1.305 . S
O249 Zn232 1.920 . S
O249 C251 1.234 . S
C250 O236 1.305 . S
C250 O237 1.234 . S
C251 O248 1.305 . S
C251 O249 1.234 . S
Zn252 O258 1.920 . S
Zn252 O264 1.898 . S
Zn252 O267 1.905 . S
Zn253 O261 1.905 . S
Zn253 O262 1.898 . S
Zn253 O270 1.920 . S
Zn254 O257 2.080 . S
Zn254 O260 2.114 . S
Zn254 O263 2.120 . S
Zn254 O265 2.120 . S
Zn254 O266 2.114 . S
Zn254 O269 2.080 . S
C255 O260 1.166 . S
C255 O261 1.182 . S
C256 O262 1.167 . S
C256 O263 1.299 . S
O257 Zn254 2.080 . S
O257 C271 1.305 . S
O258 Zn252 1.920 . S
O258 C271 1.234 . S
C259 O264 1.167 . S
C259 O265 1.299 . S
O260 Zn254 2.114 . S
O260 C255 1.166 . S
O261 Zn253 1.905 . S
O261 C255 1.182 . S
O262 Zn253 1.898 . S
O262 C256 1.167 . S
O263 Zn254 2.120 . S
O263 C256 1.299 . S
O264 Zn252 1.898 . S
O264 C259 1.167 . S
O265 Zn254 2.120 . S
O265 C259 1.299 . S
O266 Zn254 2.114 . S
O266 C268 1.166 . S
O267 Zn252 1.905 . S
O267 C268 1.182 . S
C268 O266 1.166 . S
C268 O267 1.182 . S
O269 Zn254 2.080 . S
O269 C272 1.305 . S
O270 Zn253 1.920 . S
O270 C272 1.234 . S
C271 O257 1.305 . S
C271 O258 1.234 . S
C272 O269 1.305 . S
C272 O270 1.234 . S
Zn273 O279 1.920 . S
Zn273 O285 1.898 . S
Zn273 O288 1.905 . S
Zn274 O282 1.905 . S
Zn274 O283 1.898 . S
Zn274 O291 1.920 . S
Zn275 O278 2.080 . S
Zn275 O281 2.114 . S
Zn275 O284 2.120 . S
Zn275 O286 2.120 . S
Zn275 O287 2.114 . S
Zn275 O290 2.080 . S
C276 O281 1.166 . S
C276 O282 1.182 . S
C277 O283 1.167 . S
C277 O284 1.299 . S
O278 Zn275 2.080 . S
O278 C292 1.305 . S
O279 Zn273 1.920 . S
O279 C292 1.234 . S
C280 O285 1.167 . S
C280 O286 1.299 . S
O281 Zn275 2.114 . S
O281 C276 1.166 . S
O282 Zn274 1.905 . S
O282 C276 1.182 . S
O283 Zn274 1.898 . S
O283 C277 1.167 . S
O284 Zn275 2.120 . S
O284 C277 1.299 . S
O285 Zn273 1.898 . S
O285 C280 1.167 . S
O286 Zn275 2.120 . S
O286 C280 1.299 . S
O287 Zn275 2.114 . S
O287 C289 1.166 . S
O288 Zn273 1.905 . S
O288 C289 1.182 . S
C289 O287 1.166 . S
C289 O288 1.182 . S
O290 Zn275 2.080 . S
O290 C293 1.305 . S
O291 Zn274 1.920 . S
O291 C293 1.234 . S
C292 O278 1.305 . S
C292 O279 1.234 . S
C293 O290 1.305 . S
C293 O291 1.234 . S
Zn294 O300 1.920 . S
Zn294 O306 1.898 . S
Zn294 O309 1.905 . S
Zn295 O303 1.905 . S
Zn295 O304 1.898 . S
Zn295 O312 1.920 1_545 S
Zn296 O299 2.080 . S
Zn296 O302 2.114 . S
Zn296 O305 2.120 . S
Zn296 O307 2.120 . S
Zn296 O308 2.114 . S
Zn296 O311 2.080 . S
C297 O302 1.166 . S
C297 O303 1.182 . S
C298 O304 1.167 . S
C298 O305 1.299 . S
O299 Zn296 2.080 . S
O299 C313 1.305 . S
O300 Zn294 1.920 . S
O300 C313 1.234 . S
C301 O306 1.167 . S
C301 O307 1.299 . S
O302 Zn296 2.114 . S
O302 C297 1.166 . S
O303 Zn295 1.905 . S
O303 C297 1.182 . S
O304 Zn295 1.898 . S
O304 C298 1.167 . S
O305 Zn296 2.120 . S
O305 C298 1.299 . S
O306 Zn294 1.898 . S
O306 C301 1.167 . S
O307 Zn296 2.120 . S
O307 C301 1.299 . S
O308 Zn296 2.114 . S
O308 C310 1.166 . S
O309 Zn294 1.905 . S
O309 C310 1.182 . S
C310 O308 1.166 . S
C310 O309 1.182 . S
O311 Zn296 2.080 . S
O311 C314 1.305 1_545 S
O312 Zn295 1.920 1_565 S
O312 C314 1.234 . S
C313 O299 1.305 . S
C313 O300 1.234 . S
C314 O311 1.305 1_565 S
C314 O312 1.234 . S
Zn315 O321 1.920 . S
Zn315 O327 1.898 . S
Zn315 O330 1.905 . S
Zn316 O324 1.905 . S
Zn316 O325 1.898 . S
Zn316 O333 1.920 . S
Zn317 O320 2.080 . S
Zn317 O323 2.114 . S
Zn317 O326 2.120 . S
Zn317 O328 2.120 . S
Zn317 O329 2.114 . S
Zn317 O332 2.080 . S
C318 O323 1.166 . S
C318 O324 1.182 . S
C319 O325 1.167 . S
C319 O326 1.299 . S
O320 Zn317 2.080 . S
O320 C334 1.305 . S
O321 Zn315 1.920 . S
O321 C334 1.234 . S
C322 O327 1.167 . S
C322 O328 1.299 . S
O323 Zn317 2.114 . S
O323 C318 1.166 . S
O324 Zn316 1.905 . S
O324 C318 1.182 . S
O325 Zn316 1.898 . S
O325 C319 1.167 . S
O326 Zn317 2.120 . S
O326 C319 1.299 . S
O327 Zn315 1.898 . S
O327 C322 1.167 . S
O328 Zn317 2.120 . S
O328 C322 1.299 . S
O329 Zn317 2.114 . S
O329 C331 1.166 . S
O330 Zn315 1.905 . S
O330 C331 1.182 . S
C331 O329 1.166 . S
C331 O330 1.182 . S
O332 Zn317 2.080 . S
O332 C335 1.305 . S
O333 Zn316 1.920 . S
O333 C335 1.234 . S
C334 O320 1.305 . S
C334 O321 1.234 . S
C335 O332 1.305 . S
C335 O333 1.234 . S
C336 O363 1.312 . S
C336 O364 1.208 . S
C337 O358 1.331 1_554 S
C337 O361 1.244 1_554 S
C338 O360 1.264 . S
C338 O362 1.273 . S
Mg339 O341 1.936 1_455 S
Mg339 O348 2.081 1_455 S
Mg339 O350 2.023 . S
Mg339 O354 2.038 . S
Mg339 O363 2.291 . S
Mg340 O341 1.963 . S
Mg340 O351 1.942 . S
Mg340 O352 1.955 1_655 S
Mg340 O359 1.986 . S
O341 Mg339 1.936 1_655 S
O341 Mg340 1.963 . S
O341 Mg342 1.915 . S
Mg342 O341 1.915 . S
Mg342 O343 1.915 1_655 S
Mg342 O347 2.013 1_655 S
Mg342 O353 2.114 . S
Mg342 O357 2.013 . S
Mg342 O363 2.114 1_655 S
O343 Mg342 1.915 1_455 S
O343 Mg344 1.936 . S
O343 Mg345 1.963 1_455 S
Mg344 O343 1.936 . S
Mg344 O353 2.291 1_455 S
Mg344 O358 2.081 . S
Mg344 O360 2.023 1_455 S
Mg344 O364 2.031 . S
Mg345 O343 1.963 1_655 S
Mg345 O349 1.986 1_655 S
Mg345 O361 1.942 1_655 S
Mg345 O362 1.955 . S
C346 O357 1.191 . S
C346 O359 1.307 . S
O347 Mg342 2.013 1_455 S
O347 C366 1.191 . S
O348 Mg339 2.081 1_655 S
O348 C356 1.331 . S
O349 Mg345 1.986 1_455 S
O349 C366 1.307 . S
O350 Mg339 2.023 . S
O350 C365 1.264 . S
O351 Mg340 1.942 . S
O351 C356 1.244 . S
O352 Mg340 1.955 1_455 S
O352 C365 1.273 . S
O353 Mg342 2.114 . S
O353 Mg344 2.291 1_655 S
O353 C355 1.312 . S
O354 Mg339 2.038 . S
O354 C355 1.202 1_455 S
C355 O353 1.312 . S
C355 O354 1.202 1_655 S
C356 O348 1.331 . S
C356 O351 1.244 . S
O357 Mg342 2.013 . S
O357 C346 1.191 . S
O358 C337 1.331 1_556 S
O358 Mg344 2.081 . S
O359 Mg340 1.986 . S
O359 C346 1.307 . S
O360 C338 1.264 . S
O360 Mg344 2.023 1_655 S
O361 C337 1.244 1_556 S
O361 Mg345 1.942 1_455 S
O362 C338 1.273 . S
O362 Mg345 1.955 . S
O363 C336 1.312 . S
O363 Mg339 2.291 . S
O363 Mg342 2.114 1_455 S
O364 C336 1.208 . S
O364 Mg344 2.031 . S
C365 O350 1.264 . S
C365 O352 1.273 . S
C366 O347 1.191 . S
C366 O349 1.307 . S
C367 O394 1.312 . S
C367 O395 1.208 . S
C368 O389 1.331 . S
C368 O392 1.244 . S
C369 O391 1.264 . S
C369 O393 1.273 . S
Mg370 O372 1.936 . S
Mg370 O379 2.081 . S
Mg370 O381 2.023 . S
Mg370 O385 2.031 . S
Mg370 O394 2.291 . S
Mg371 O372 1.963 . S
Mg371 O382 1.942 . S
Mg371 O383 1.955 . S
Mg371 O390 1.986 . S
O372 Mg370 1.936 . S
O372 Mg371 1.963 . S
O372 Mg373 1.915 . S
Mg373 O372 1.915 . S
Mg373 O374 1.915 . S
Mg373 O378 2.013 . S
Mg373 O384 2.114 . S
Mg373 O388 2.013 . S
Mg373 O394 2.114 . S
O374 Mg373 1.915 . S
O374 Mg375 1.936 . S
O374 Mg376 1.963 . S
Mg375 O374 1.936 . S
Mg375 O384 2.291 . S
Mg375 O389 2.081 . S
Mg375 O391 2.023 . S
Mg375 O395 2.031 . S
Mg376 O374 1.963 . S
Mg376 O380 1.986 . S
Mg376 O392 1.942 . S
Mg376 O393 1.955 . S
C377 O388 1.191 . S
C377 O390 1.307 . S
O378 Mg373 2.013 . S
O378 C397 1.191 . S
O379 Mg370 2.081 . S
O379 C387 1.331 . S
O380 Mg376 1.986 . S
O380 C397 1.307 . S
O381 Mg370 2.023 . S
O381 C396 1.264 . S
O382 Mg371 1.942 . S
O382 C387 1.244 . S
O383 Mg371 1.955 . S
O383 C396 1.273 . S
O384 Mg373 2.114 . S
O384 Mg375 2.291 . S
O384 C386 1.312 . S
O385 Mg370 2.031 . S
O385 C386 1.208 . S
C386 O384 1.312 . S
C386 O385 1.208 . S
C387 O379 1.331 . S
C387 O382 1.244 . S
O388 Mg373 2.013 . S
O388 C377 1.191 . S
O389 C368 1.331 . S
O389 Mg375 2.081 . S
O390 Mg371 1.986 . S
O390 C377 1.307 . S
O391 C369 1.264 . S
O391 Mg375 2.023 . S
O392 C368 1.244 . S
O392 Mg376 1.942 . S
O393 C369 1.273 . S
O393 Mg376 1.955 . S
O394 C367 1.312 . S
O394 Mg370 2.291 . S
O394 Mg373 2.114 . S
O395 C367 1.208 . S
O395 Mg375 2.031 . S
C396 O381 1.264 . S
C396 O383 1.273 . S
C397 O378 1.191 . S
C397 O380 1.307 . S
C398 O425 1.312 . S
C398 O426 1.202 1_655 S
C399 O420 1.331 . S
C399 O423 1.244 . S
C400 O422 1.264 . S
C400 O424 1.273 . S
Mg401 O403 1.936 . S
Mg401 O410 2.081 . S
Mg401 O412 2.023 1_455 S
Mg401 O416 2.031 . S
Mg401 O425 2.291 1_455 S
Mg402 O403 1.963 1_655 S
Mg402 O413 1.942 1_655 S
Mg402 O414 1.955 . S
Mg402 O421 1.986 1_655 S
O403 Mg401 1.936 . S
O403 Mg402 1.963 1_455 S
O403 Mg404 1.915 1_455 S
Mg404 O403 1.915 1_655 S
Mg404 O405 1.915 . S
Mg404 O409 2.013 . S
Mg404 O415 2.114 1_655 S
Mg404 O419 2.013 1_655 S
Mg404 O425 2.114 . S
O405 Mg404 1.915 . S
O405 Mg406 1.936 1_655 S
O405 Mg407 1.963 . S
Mg406 O405 1.936 1_455 S
Mg406 O415 2.291 . S
Mg406 O420 2.081 1_455 S
Mg406 O422 2.023 . S
Mg406 O426 2.037 . S
Mg407 O405 1.963 . S
Mg407 O411 1.986 . S
Mg407 O423 1.942 . S
Mg407 O424 1.955 1_655 S
C408 O419 1.191 . S
C408 O421 1.307 . S
O409 Mg404 2.013 . S
O409 C428 1.191 . S
O410 Mg401 2.081 . S
O410 C418 1.331 . S
O411 Mg407 1.986 . S
O411 C428 1.307 . S
O412 Mg401 2.023 1_655 S
O412 C427 1.264 . S
O413 Mg402 1.942 1_455 S
O413 C418 1.244 . S
O414 Mg402 1.955 . S
O414 C427 1.273 . S
O415 Mg404 2.114 1_455 S
O415 Mg406 2.291 . S
O415 C417 1.312 . S
O416 Mg401 2.031 . S
O416 C417 1.208 . S
C417 O415 1.312 . S
C417 O416 1.208 . S
C418 O410 1.331 . S
C418 O413 1.244 . S
O419 Mg404 2.013 1_455 S
O419 C408 1.191 . S
O420 C399 1.331 . S
O420 Mg406 2.081 1_655 S
O421 Mg402 1.986 1_455 S
O421 C408 1.307 . S
O422 C400 1.264 . S
O422 Mg406 2.023 . S
O423 C399 1.244 . S
O423 Mg407 1.942 . S
O424 C400 1.273 . S
O424 Mg407 1.955 1_455 S
O425 C398 1.312 . S
O425 Mg401 2.291 1_655 S
O425 Mg404 2.114 . S
O426 C398 1.202 1_455 S
O426 Mg406 2.037 . S
C427 O412 1.264 . S
C427 O414 1.273 . S
C428 O409 1.191 . S
C428 O411 1.307 . S
C429 O456 1.312 . S
C429 O457 1.199 1_565 S
C430 O451 1.331 . S
C430 O454 1.244 . S
C431 O453 1.264 . S
C431 O455 1.273 . S
Mg432 O434 1.936 . S
Mg432 O441 2.081 . S
Mg432 O443 2.023 1_545 S
Mg432 O447 2.031 . S
Mg432 O456 2.291 1_545 S
Mg433 O434 1.963 1_565 S
Mg433 O444 1.942 1_565 S
Mg433 O445 1.955 . S
Mg433 O452 1.986 1_565 S
O434 Mg432 1.936 . S
O434 Mg433 1.963 1_545 S
O434 Mg435 1.915 1_545 S
Mg435 O434 1.915 1_565 S
Mg435 O436 1.915 . S
Mg435 O440 2.013 . S
Mg435 O446 2.114 1_565 S
Mg435 O450 2.013 1_565 S
Mg435 O456 2.114 . S
O436 Mg435 1.915 . S
O436 Mg437 1.936 1_565 S
O436 Mg438 1.963 . S
Mg437 O436 1.936 1_545 S
Mg437 O446 2.291 . S
Mg437 O451 2.081 1_545 S
Mg437 O453 2.023 . S
Mg437 O457 2.041 . S
Mg438 O436 1.963 . S
Mg438 O442 1.986 . S
Mg438 O454 1.942 . S
Mg438 O455 1.955 1_565 S
C439 O450 1.191 . S
C439 O452 1.307 . S
O440 Mg435 2.013 . S
O440 C459 1.191 . S
O441 Mg432 2.081 . S
O441 C449 1.331 1_655 S
O442 Mg438 1.986 . S
O442 C459 1.307 . S
O443 Mg432 2.023 1_565 S
O443 C458 1.264 . S
O444 Mg433 1.942 1_545 S
O444 C449 1.244 1_655 S
O445 Mg433 1.955 . S
O445 C458 1.273 . S
O446 Mg435 2.114 1_545 S
O446 Mg437 2.291 . S
O446 C448 1.312 . S
O447 Mg432 2.031 . S
O447 C448 1.208 . S
C448 O446 1.312 . S
C448 O447 1.208 . S
C449 O441 1.331 1_455 S
C449 O444 1.244 1_455 S
O450 Mg435 2.013 1_545 S
O450 C439 1.191 . S
O451 C430 1.331 . S
O451 Mg437 2.081 1_565 S
O452 Mg433 1.986 1_545 S
O452 C439 1.307 . S
O453 C431 1.264 . S
O453 Mg437 2.023 . S
O454 C430 1.244 . S
O454 Mg438 1.942 . S
O455 C431 1.273 . S
O455 Mg438 1.955 1_545 S
O456 C429 1.312 . S
O456 Mg432 2.291 1_565 S
O456 Mg435 2.114 . S
O457 C429 1.199 1_545 S
O457 Mg437 2.041 . S
C458 O443 1.264 . S
C458 O445 1.273 . S
C459 O440 1.191 . S
C459 O442 1.307 . S
C460 O487 1.312 . S
C460 O488 1.208 . S
C461 O482 1.331 1_545 S
C461 O485 1.244 1_545 S
C462 O484 1.264 . S
C462 O486 1.273 . S
Mg463 O465 1.936 1_554 S
Mg463 O472 2.081 1_554 S
Mg463 O474 2.023 . S
Mg463 O478 2.035 . S
Mg463 O487 2.291 . S
Mg464 O465 1.963 . S
Mg464 O475 1.942 . S
Mg464 O476 1.955 1_556 S
Mg464 O483 1.986 . S
O465 Mg463 1.936 1_556 S
O465 Mg464 1.963 . S
O465 Mg466 1.915 . S
Mg466 O465 1.915 . S
Mg466 O467 1.915 1_556 S
Mg466 O471 2.013 1_556 S
Mg466 O477 2.114 . S
Mg466 O481 2.013 . S
Mg466 O487 2.114 1_556 S
O467 Mg466 1.915 1_554 S
O467 Mg468 1.936 . S
O467 Mg469 1.963 1_554 S
Mg468 O467 1.936 . S
Mg468 O477 2.291 1_554 S
Mg468 O482 2.081 . S
Mg468 O484 2.023 1_554 S
Mg468 O488 2.031 . S
Mg469 O467 1.963 1_556 S
Mg469 O473 1.986 1_556 S
Mg469 O485 1.942 1_556 S
Mg469 O486 1.955 . S
C470 O481 1.191 . S
C470 O483 1.307 . S
O471 Mg466 2.013 1_554 S
O471 C490 1.191 . S
O472 Mg463 2.081 1_556 S
O472 C480 1.331 . S
O473 Mg469 1.986 1_554 S
O473 C490 1.307 . S
O474 Mg463 2.023 . S
O474 C489 1.264 . S
O475 Mg464 1.942 . S
O475 C480 1.244 . S
O476 Mg464 1.955 1_554 S
O476 C489 1.273 . S
O477 Mg466 2.114 . S
O477 Mg468 2.291 1_556 S
O477 C479 1.312 . S
O478 Mg463 2.035 . S
O478 C479 1.204 1_554 S
C479 O477 1.312 . S
C479 O478 1.204 1_556 S
C480 O472 1.331 . S
C480 O475 1.244 . S
O481 Mg466 2.013 . S
O481 C470 1.191 . S
O482 C461 1.331 1_565 S
O482 Mg468 2.081 . S
O483 Mg464 1.986 . S
O483 C470 1.307 . S
O484 C462 1.264 . S
O484 Mg468 2.023 1_556 S
O485 C461 1.244 1_565 S
O485 Mg469 1.942 1_554 S
O486 C462 1.273 . S
O486 Mg469 1.955 . S
O487 C460 1.312 . S
O487 Mg463 2.291 . S
O487 Mg466 2.114 1_554 S
O488 C460 1.208 . S
O488 Mg468 2.031 . S
C489 O474 1.264 . S
C489 O476 1.273 . S
C490 O471 1.191 . S
C490 O473 1.307 . S
C491 O518 1.312 . S
C491 O519 1.208 . S
C492 O513 1.331 1_655 S
C492 O516 1.244 1_655 S
C493 O515 1.264 . S
C493 O517 1.273 . S
Mg494 O496 1.936 . S
Mg494 O503 2.081 . S
Mg494 O505 2.023 . S
Mg494 O509 2.031 . S
Mg494 O518 2.291 . S
Mg495 O496 1.963 . S
Mg495 O506 1.942 . S
Mg495 O507 1.955 . S
Mg495 O514 1.986 . S
O496 Mg494 1.936 . S
O496 Mg495 1.963 . S
O496 Mg497 1.915 . S
Mg497 O496 1.915 . S
Mg497 O498 1.915 . S
Mg497 O502 2.013 . S
Mg497 O508 2.114 . S
Mg497 O512 2.013 . S
Mg497 O518 2.114 . S
O498 Mg497 1.915 . S
O498 Mg499 1.936 . S
O498 Mg500 1.963 . S
Mg499 O498 1.936 . S
Mg499 O508 2.291 . S
Mg499 O513 2.081 . S
Mg499 O515 2.023 . S
Mg499 O519 2.031 . S
Mg500 O498 1.963 . S
Mg500 O504 1.986 . S
Mg500 O516 1.942 . S
Mg500 O517 1.955 . S
C501 O512 1.191 . S
C501 O514 1.307 . S
O502 Mg497 2.013 . S
O502 C521 1.191 . S
O503 Mg494 2.081 . S
O503 C511 1.331 . S
O504 Mg500 1.986 . S
O504 C521 1.307 . S
O505 Mg494 2.023 . S
O505 C520 1.264 . S
O506 Mg495 1.942 . S
O506 C511 1.244 . S
O507 Mg495 1.955 . S
O507 C520 1.273 . S
O508 Mg497 2.114 . S
O508 Mg499 2.291 . S
O508 C510 1.312 . S
O509 Mg494 2.031 . S
O509 C510 1.208 . S
C510 O508 1.312 . S
C510 O509 1.208 . S
C511 O503 1.331 . S
C511 O506 1.244 . S
O512 Mg497 2.013 . S
O512 C501 1.191 . S
O513 C492 1.331 1_455 S
O513 Mg499 2.081 . S
O514 Mg495 1.986 . S
O514 C501 1.307 . S
O515 C493 1.264 . S
O515 Mg499 2.023 . S
O516 C492 1.244 1_455 S
O516 Mg500 1.942 . S
O517 C493 1.273 . S
O517 Mg500 1.955 . S
O518 C491 1.312 . S
O518 Mg494 2.291 . S
O518 Mg497 2.114 . S
O519 C491 1.208 . S
O519 Mg499 2.031 . S
C520 O505 1.264 . S
C520 O507 1.273 . S
C521 O502 1.191 . S
C521 O504 1.307 . S
C522 O549 1.312 . S
C522 O550 1.208 . S
C523 O544 1.331 . S
C523 O547 1.244 . S
C524 O546 1.264 . S
C524 O548 1.273 . S
Mg525 O527 1.936 . S
Mg525 O534 2.081 . S
Mg525 O536 2.023 1_556 S
Mg525 O540 2.031 . S
Mg525 O549 2.291 1_556 S
Mg526 O527 1.963 1_554 S
Mg526 O537 1.942 1_554 S
Mg526 O538 1.955 . S
Mg526 O545 1.986 1_554 S
O527 Mg525 1.936 . S
O527 Mg526 1.963 1_556 S
O527 Mg528 1.915 1_556 S
Mg528 O527 1.915 1_554 S
Mg528 O529 1.915 . S
Mg528 O533 2.013 . S
Mg528 O539 2.114 1_554 S
Mg528 O543 2.013 1_554 S
Mg528 O549 2.114 . S
O529 Mg528 1.915 . S
O529 Mg530 1.936 1_554 S
O529 Mg531 1.963 . S
Mg530 O529 1.936 1_556 S
Mg530 O539 2.291 . S
Mg530 O544 2.081 1_556 S
Mg530 O546 2.023 . S
Mg530 O550 2.031 1_556 S
Mg531 O529 1.963 . S
Mg531 O535 1.986 . S
Mg531 O547 1.942 . S
Mg531 O548 1.955 1_554 S
C532 O543 1.191 . S
C532 O545 1.307 . S
O533 Mg528 2.013 . S
O533 C552 1.191 . S
O534 Mg525 2.081 . S
O534 C542 1.331 . S
O535 Mg531 1.986 . S
O535 C552 1.307 . S
O536 Mg525 2.023 1_554 S
O536 C551 1.264 . S
O537 Mg526 1.942 1_556 S
O537 C542 1.244 . S
O538 Mg526 1.955 . S
O538 C551 1.273 . S
O539 Mg528 2.114 1_556 S
O539 Mg530 2.291 . S
O539 C541 1.312 . S
O540 Mg525 2.031 . S
O540 C541 1.208 . S
C541 O539 1.312 . S
C541 O540 1.208 . S
C542 O534 1.331 . S
C542 O537 1.244 . S
O543 Mg528 2.013 1_556 S
O543 C532 1.191 . S
O544 C523 1.331 . S
O544 Mg530 2.081 1_554 S
O545 Mg526 1.986 1_556 S
O545 C532 1.307 . S
O546 C524 1.264 . S
O546 Mg530 2.023 . S
O547 C523 1.244 . S
O547 Mg531 1.942 . S
O548 C524 1.273 . S
O548 Mg531 1.955 1_556 S
O549 C522 1.312 . S
O549 Mg525 2.291 1_554 S
O549 Mg528 2.114 . S
O550 C522 1.208 . S
O550 Mg530 2.031 1_554 S
C551 O536 1.264 . S
C551 O538 1.273 . S
C552 O533 1.191 . S
C552 O535 1.307 . S
C553 O580 1.312 . S
C553 O581 1.208 . S
C554 O575 1.331 . S
C554 O578 1.244 . S
C555 O577 1.264 . S
C555 O579 1.273 . S
Mg556 O558 1.936 . S
Mg556 O565 2.081 . S
Mg556 O567 2.023 . S
Mg556 O571 2.031 . S
Mg556 O580 2.291 . S
Mg557 O558 1.963 . S
Mg557 O568 1.942 . S
Mg557 O569 1.955 . S
Mg557 O576 1.986 . S
O558 Mg556 1.936 . S
O558 Mg557 1.963 . S
O558 Mg559 1.915 . S
Mg559 O558 1.915 . S
Mg559 O560 1.915 . S
Mg559 O564 2.013 . S
Mg559 O570 2.114 . S
Mg559 O574 2.013 . S
Mg559 O580 2.114 . S
O560 Mg559 1.915 . S
O560 Mg561 1.936 . S
O560 Mg562 1.963 . S
Mg561 O560 1.936 . S
Mg561 O570 2.291 . S
Mg561 O575 2.081 . S
Mg561 O577 2.023 . S
Mg561 O581 2.031 . S
Mg562 O560 1.963 . S
Mg562 O566 1.986 . S
Mg562 O578 1.942 . S
Mg562 O579 1.955 . S
C563 O574 1.191 . S
C563 O576 1.307 . S
O564 Mg559 2.013 . S
O564 C583 1.191 . S
O565 Mg556 2.081 . S
O565 C573 1.331 1_545 S
O566 Mg562 1.986 . S
O566 C583 1.307 . S
O567 Mg556 2.023 . S
O567 C582 1.264 . S
O568 Mg557 1.942 . S
O568 C573 1.244 1_545 S
O569 Mg557 1.955 . S
O569 C582 1.273 . S
O570 Mg559 2.114 . S
O570 Mg561 2.291 . S
O570 C572 1.312 . S
O571 Mg556 2.031 . S
O571 C572 1.208 . S
C572 O570 1.312 . S
C572 O571 1.208 . S
C573 O565 1.331 1_565 S
C573 O568 1.244 1_565 S
O574 Mg559 2.013 . S
O574 C563 1.191 . S
O575 C554 1.331 . S
O575 Mg561 2.081 . S
O576 Mg557 1.986 . S
O576 C563 1.307 . S
O577 C555 1.264 . S
O577 Mg561 2.023 . S
O578 C554 1.244 . S
O578 Mg562 1.942 . S
O579 C555 1.273 . S
O579 Mg562 1.955 . S
O580 C553 1.312 . S
O580 Mg556 2.291 . S
O580 Mg559 2.114 . S
O581 C553 1.208 . S
O581 Mg561 2.031 . S
C582 O567 1.264 . S
C582 O569 1.273 . S
C583 O564 1.191 . S
C583 O566 1.307 . S
C584 O611 1.312 . S
C584 O612 1.208 . S
C585 O606 1.331 . S
C585 O609 1.244 . S
C586 O608 1.264 . S
C586 O610 1.273 . S
Mg587 O589 1.936 . S
Mg587 O596 2.081 . S
Mg587 O598 2.023 . S
Mg587 O602 2.031 . S
Mg587 O611 2.291 . S
Mg588 O589 1.963 . S
Mg588 O599 1.942 . S
Mg588 O600 1.955 . S
Mg588 O607 1.986 . S
O589 Mg587 1.936 . S
O589 Mg588 1.963 . S
O589 Mg590 1.915 . S
Mg590 O589 1.915 . S
Mg590 O591 1.915 . S
Mg590 O595 2.013 . S
Mg590 O601 2.114 . S
Mg590 O605 2.013 . S
Mg590 O611 2.114 . S
O591 Mg590 1.915 . S
O591 Mg592 1.936 . S
O591 Mg593 1.963 . S
Mg592 O591 1.936 . S
Mg592 O601 2.291 . S
Mg592 O606 2.081 . S
Mg592 O608 2.023 . S
Mg592 O612 2.031 . S
Mg593 O591 1.963 . S
Mg593 O597 1.986 . S
Mg593 O609 1.942 . S
Mg593 O610 1.955 . S
C594 O605 1.191 . S
C594 O607 1.307 . S
O595 Mg590 2.013 . S
O595 C614 1.191 . S
O596 Mg587 2.081 . S
O596 C604 1.331 . S
O597 Mg593 1.986 . S
O597 C614 1.307 . S
O598 Mg587 2.023 . S
O598 C613 1.264 . S
O599 Mg588 1.942 . S
O599 C604 1.244 . S
O600 Mg588 1.955 . S
O600 C613 1.273 . S
O601 Mg590 2.114 . S
O601 Mg592 2.291 . S
O601 C603 1.312 . S
O602 Mg587 2.031 . S
O602 C603 1.208 . S
C603 O601 1.312 . S
C603 O602 1.208 . S
C604 O596 1.331 . S
C604 O599 1.244 . S
O605 Mg590 2.013 . S
O605 C594 1.191 . S
O606 C585 1.331 . S
O606 Mg592 2.081 . S
O607 Mg588 1.986 . S
O607 C594 1.307 . S
O608 C586 1.264 . S
O608 Mg592 2.023 . S
O609 C585 1.244 . S
O609 Mg593 1.942 . S
O610 C586 1.273 . S
O610 Mg593 1.955 . S
O611 C584 1.312 . S
O611 Mg587 2.291 . S
O611 Mg590 2.114 . S
O612 C584 1.208 . S
O612 Mg592 2.031 . S
C613 O598 1.264 . S
C613 O600 1.273 . S
C614 O595 1.191 . S
C614 O597 1.307 . S
C615 O642 1.312 . S
C615 O643 1.208 . S
C616 O637 1.331 . S
C616 O640 1.244 . S
C617 O639 1.264 . S
C617 O641 1.273 . S
Mg618 O620 1.936 . S
Mg618 O627 2.081 . S
Mg618 O629 2.023 . S
Mg618 O633 2.031 . S
Mg618 O642 2.291 . S
Mg619 O620 1.963 . S
Mg619 O630 1.942 . S
Mg619 O631 1.955 . S
Mg619 O638 1.986 . S
O620 Mg618 1.936 . S
O620 Mg619 1.963 . S
O620 Mg621 1.915 . S
Mg621 O620 1.915 . S
Mg621 O622 1.915 . S
Mg621 O626 2.013 . S
Mg621 O632 2.114 . S
Mg621 O636 2.013 . S
Mg621 O642 2.114 . S
O622 Mg621 1.915 . S
O622 Mg623 1.936 . S
O622 Mg624 1.963 . S
Mg623 O622 1.936 . S
Mg623 O632 2.291 . S
Mg623 O637 2.081 . S
Mg623 O639 2.023 . S
Mg623 O643 2.031 . S
Mg624 O622 1.963 . S
Mg624 O628 1.986 . S
Mg624 O640 1.942 . S
Mg624 O641 1.955 . S
C625 O636 1.191 . S
C625 O638 1.307 . S
O626 Mg621 2.013 . S
O626 C645 1.191 . S
O627 Mg618 2.081 . S
O627 C635 1.331 . S
O628 Mg624 1.986 . S
O628 C645 1.307 . S
O629 Mg618 2.023 . S
O629 C644 1.264 . S
O630 Mg619 1.942 . S
O630 C635 1.244 . S
O631 Mg619 1.955 . S
O631 C644 1.273 . S
O632 Mg621 2.114 . S
O632 Mg623 2.291 . S
O632 C634 1.312 . S
O633 Mg618 2.031 . S
O633 C634 1.208 . S
C634 O632 1.312 . S
C634 O633 1.208 . S
C635 O627 1.331 . S
C635 O630 1.244 . S
O636 Mg621 2.013 . S
O636 C625 1.191 . S
O637 C616 1.331 . S
O637 Mg623 2.081 . S
O638 Mg619 1.986 . S
O638 C625 1.307 . S
O639 C617 1.264 . S
O639 Mg623 2.023 . S
O640 C616 1.244 . S
O640 Mg624 1.942 . S
O641 C617 1.273 . S
O641 Mg624 1.955 . S
O642 C615 1.312 . S
O642 Mg618 2.291 . S
O642 Mg621 2.114 . S
O643 C615 1.208 . S
O643 Mg623 2.031 . S
C644 O629 1.264 . S
C644 O631 1.273 . S
C645 O626 1.191 . S
C645 O628 1.307 . S
C646 O673 1.312 . S
C646 O674 1.208 . S
C647 O668 1.331 . S
C647 O671 1.244 . S
C648 O670 1.264 . S
C648 O672 1.273 . S
Mg649 O651 1.936 . S
Mg649 O658 2.081 . S
Mg649 O660 2.023 1_565 S
Mg649 O664 2.031 . S
Mg649 O673 2.291 1_565 S
Mg650 O651 1.963 1_545 S
Mg650 O661 1.942 1_545 S
Mg650 O662 1.955 . S
Mg650 O669 1.986 1_545 S
O651 Mg649 1.936 . S
O651 Mg650 1.963 1_565 S
O651 Mg652 1.915 1_565 S
Mg652 O651 1.915 1_545 S
Mg652 O653 1.915 . S
Mg652 O657 2.013 . S
Mg652 O663 2.114 1_545 S
Mg652 O667 2.013 1_545 S
Mg652 O673 2.114 . S
O653 Mg652 1.915 . S
O653 Mg654 1.936 1_545 S
O653 Mg655 1.963 . S
Mg654 O653 1.936 1_565 S
Mg654 O663 2.291 . S
Mg654 O668 2.081 1_565 S
Mg654 O670 2.023 . S
Mg654 O674 2.031 1_565 S
Mg655 O653 1.963 . S
Mg655 O659 1.986 . S
Mg655 O671 1.942 . S
Mg655 O672 1.955 1_545 S
C656 O667 1.191 . S
C656 O669 1.307 . S
O657 Mg652 2.013 . S
O657 C676 1.191 . S
O658 Mg649 2.081 . S
O658 C666 1.331 . S
O659 Mg655 1.986 . S
O659 C676 1.307 . S
O660 Mg649 2.023 1_545 S
O660 C675 1.264 . S
O661 Mg650 1.942 1_565 S
O661 C666 1.244 . S
O662 Mg650 1.955 . S
O662 C675 1.273 . S
O663 Mg652 2.114 1_565 S
O663 Mg654 2.291 . S
O663 C665 1.312 . S
O664 Mg649 2.031 . S
O664 C665 1.208 . S
C665 O663 1.312 . S
C665 O664 1.208 . S
C666 O658 1.331 . S
C666 O661 1.244 . S
O667 Mg652 2.013 1_565 S
O667 C656 1.191 . S
O668 C647 1.331 . S
O668 Mg654 2.081 1_545 S
O669 Mg650 1.986 1_565 S
O669 C656 1.307 . S
O670 C648 1.264 . S
O670 Mg654 2.023 . S
O671 C647 1.244 . S
O671 Mg655 1.942 . S
O672 C648 1.273 . S
O672 Mg655 1.955 1_565 S
O673 C646 1.312 . S
O673 Mg649 2.291 1_545 S
O673 Mg652 2.114 . S
O674 C646 1.208 . S
O674 Mg654 2.031 1_545 S
C675 O660 1.264 . S
C675 O662 1.273 . S
C676 O657 1.191 . S
C676 O659 1.307 . S
C677 O704 1.312 . S
C677 O705 1.208 . S
C678 O699 1.331 . S
C678 O702 1.244 . S
C679 O701 1.264 . S
C679 O703 1.273 . S
Mg680 O682 1.936 . S
Mg680 O689 2.081 . S
Mg680 O691 2.023 . S
Mg680 O695 2.031 . S
Mg680 O704 2.291 . S
Mg681 O682 1.963 . S
Mg681 O692 1.942 . S
Mg681 O693 1.955 . S
Mg681 O700 1.986 . S
O682 Mg680 1.936 . S
O682 Mg681 1.963 . S
O682 Mg683 1.915 . S
Mg683 O682 1.915 . S
Mg683 O684 1.915 . S
Mg683 O688 2.013 . S
Mg683 O694 2.114 . S
Mg683 O698 2.013 . S
Mg683 O704 2.114 . S
O684 Mg683 1.915 . S
O684 Mg685 1.936 . S
O684 Mg686 1.963 . S
Mg685 O684 1.936 . S
Mg685 O694 2.291 . S
Mg685 O699 2.081 . S
Mg685 O701 2.023 . S
Mg685 O705 2.031 . S
Mg686 O684 1.963 . S
Mg686 O690 1.986 . S
Mg686 O702 1.942 . S
Mg686 O703 1.955 . S
C687 O698 1.191 . S
C687 O700 1.307 . S
O688 Mg683 2.013 . S
O688 C707 1.191 . S
O689 Mg680 2.081 . S
O689 C697 1.331 1_554 S
O690 Mg686 1.986 . S
O690 C707 1.307 . S
O691 Mg680 2.023 . S
O691 C706 1.264 . S
O692 Mg681 1.942 . S
O692 C697 1.244 1_554 S
O693 Mg681 1.955 . S
O693 C706 1.273 . S
O694 Mg683 2.114 . S
O694 Mg685 2.291 . S
O694 C696 1.312 . S
O695 Mg680 2.031 . S
O695 C696 1.208 . S
C696 O694 1.312 . S
C696 O695 1.208 . S
C697 O689 1.331 1_556 S
C697 O692 1.244 1_556 S
O698 Mg683 2.013 . S
O698 C687 1.191 . S
O699 C678 1.331 . S
O699 Mg685 2.081 . S
O700 Mg681 1.986 . S
O700 C687 1.307 . S
O701 C679 1.264 . S
O701 Mg685 2.023 . S
O702 C678 1.244 . S
O702 Mg686 1.942 . S
O703 C679 1.273 . S
O703 Mg686 1.955 . S
O704 C677 1.312 . S
O704 Mg680 2.291 . S
O704 Mg683 2.114 . S
O705 C677 1.208 . S
O705 Mg685 2.031 . S
C706 O691 1.264 . S
C706 O693 1.273 . S
C707 O688 1.191 . S
C707 O690 1.307 . S
C708 C709 1.387 . S
C708 H712 0.950 1_455 S
C708 C717 1.390 . S
C709 C708 1.387 . S
C709 C711 1.387 . S
H710 C717 0.950 . S
C711 C709 1.387 . S
C711 C713 1.390 . S
C711 H715 0.950 . S
H712 C708 0.950 1_655 S
C713 C711 1.390 . S
C713 C714 1.387 . S
C713 H716 0.950 . S
C714 C713 1.387 . S
C714 C717 1.387 . S
H715 C711 0.950 . S
H716 C713 0.950 . S
C717 C708 1.390 . S
C717 H710 0.950 . S
C717 C714 1.387 . S
C718 C719 1.387 . S
C718 H722 0.950 . S
C718 C727 1.390 . S
C719 C718 1.387 . S
C719 C721 1.387 . S
H720 C727 0.950 . S
C721 C719 1.387 . S
C721 C723 1.390 . S
C721 H725 0.950 . S
H722 C718 0.950 . S
C723 C721 1.390 . S
C723 C724 1.387 . S
C723 H726 0.950 . S
C724 C723 1.387 . S
C724 C727 1.387 . S
H725 C721 0.950 . S
H726 C723 0.950 . S
C727 C718 1.390 . S
C727 H720 0.950 . S
C727 C724 1.387 . S
C728 C729 1.387 . S
C728 H732 0.950 . S
C728 C737 1.390 . S
C729 C728 1.387 . S
C729 C731 1.387 . S
H730 C737 0.950 . S
C731 C729 1.387 . S
C731 C733 1.390 . S
C731 H735 0.950 . S
H732 C728 0.950 . S
C733 C731 1.390 . S
C733 C734 1.387 . S
C733 H736 0.950 . S
C734 C733 1.387 . S
C734 C737 1.387 . S
H735 C731 0.950 . S
H736 C733 0.950 . S
C737 C728 1.390 . S
C737 H730 0.950 . S
C737 C734 1.387 . S
C738 C739 1.387 . S
C738 H742 0.950 . S
C738 C747 1.390 . S
C739 C738 1.387 . S
C739 C741 1.387 . S
H740 C747 0.950 . S
C741 C739 1.387 . S
C741 C743 1.390 . S
C741 H745 0.950 . S
H742 C738 0.950 . S
C743 C741 1.390 . S
C743 C744 1.387 . S
C743 H746 0.950 . S
C744 C743 1.387 . S
C744 C747 1.387 . S
H745 C741 0.950 . S
H746 C743 0.950 . S
C747 C738 1.390 . S
C747 H740 0.950 . S
C747 C744 1.387 . S
C748 C749 1.387 . S
C748 H752 0.950 . S
C748 C757 1.390 . S
C749 C748 1.387 . S
C749 C751 1.387 . S
H750 C757 0.950 . S
C751 C749 1.387 . S
C751 C753 1.390 . S
C751 H755 0.950 1_455 S
H752 C748 0.950 . S
C753 C751 1.390 . S
C753 C754 1.387 . S
C753 H756 0.950 1_455 S
C754 C753 1.387 . S
C754 C757 1.387 . S
H755 C751 0.950 1_655 S
H756 C753 0.950 1_655 S
C757 C748 1.390 . S
C757 H750 0.950 . S
C757 C754 1.387 . S
C758 C759 1.387 . S
C758 H762 0.950 . S
C758 C767 1.390 . S
C759 C758 1.387 . S
C759 C761 1.387 . S
H760 C767 0.950 . S
C761 C759 1.387 . S
C761 C763 1.390 . S
C761 H765 0.950 . S
H762 C758 0.950 . S
C763 C761 1.390 . S
C763 C764 1.387 . S
C763 H766 0.950 . S
C764 C763 1.387 . S
C764 C767 1.387 . S
H765 C761 0.950 . S
H766 C763 0.950 . S
C767 C758 1.390 . S
C767 H760 0.950 . S
C767 C764 1.387 . S
C768 C769 1.387 . S
C768 H772 0.950 . S
C768 C777 1.390 . S
C769 C768 1.387 . S
C769 C771 1.387 . S
H770 C777 0.950 . S
C771 C769 1.387 . S
C771 C773 1.390 . S
C771 H775 0.950 . S
H772 C768 0.950 . S
C773 C771 1.390 . S
C773 C774 1.387 . S
C773 H776 0.950 . S
C774 C773 1.387 . S
C774 C777 1.387 . S
H775 C771 0.950 . S
H776 C773 0.950 . S
C777 C768 1.390 . S
C777 H770 0.950 . S
C777 C774 1.387 . S
C778 C779 1.387 . S
C778 H782 0.950 . S
C778 C787 1.390 . S
C779 C778 1.387 . S
C779 C781 1.387 . S
H780 C787 0.950 . S
C781 C779 1.387 . S
C781 C783 1.390 . S
C781 H785 0.950 . S
H782 C778 0.950 . S
C783 C781 1.390 . S
C783 C784 1.387 . S
C783 H786 0.950 . S
C784 C783 1.387 . S
C784 C787 1.387 . S
H785 C781 0.950 . S
H786 C783 0.950 . S
C787 C778 1.390 . S
C787 H780 0.950 . S
C787 C784 1.387 . S
C788 C789 1.387 . S
C788 H792 0.950 . S
C788 C797 1.390 . S
C789 C788 1.387 . S
C789 C791 1.387 . S
H790 C797 0.950 . S
C791 C789 1.387 . S
C791 C793 1.390 . S
C791 H795 0.950 1_545 S
H792 C788 0.950 . S
C793 C791 1.390 . S
C793 C794 1.387 . S
C793 H796 0.950 1_545 S
C794 C793 1.387 . S
C794 C797 1.387 . S
H795 C791 0.950 1_565 S
H796 C793 0.950 1_565 S
C797 C788 1.390 . S
C797 H790 0.950 . S
C797 C794 1.387 . S
C798 C799 1.387 . S
C798 H802 0.950 . S
C798 C807 1.390 . S
C799 C798 1.387 . S
C799 C801 1.387 . S
H800 C807 0.950 . S
C801 C799 1.387 . S
C801 C803 1.390 . S
C801 H805 0.950 . S
H802 C798 0.950 . S
C803 C801 1.390 . S
C803 C804 1.387 . S
C803 H806 0.950 . S
C804 C803 1.387 . S
C804 C807 1.387 . S
H805 C801 0.950 . S
H806 C803 0.950 . S
C807 C798 1.390 . S
C807 H800 0.950 . S
C807 C804 1.387 . S
C808 C809 1.387 . S
C808 H812 0.950 . S
C808 C817 1.390 . S
C809 C808 1.387 . S
C809 C811 1.387 . S
H810 C817 0.950 . S
C811 C809 1.387 . S
C811 C813 1.390 . S
C811 H815 0.950 . S
H812 C808 0.950 . S
C813 C811 1.390 . S
C813 C814 1.387 . S
C813 H816 0.950 . S
C814 C813 1.387 . S
C814 C817 1.387 . S
H815 C811 0.950 . S
H816 C813 0.950 . S
C817 C808 1.390 . S
C817 H810 0.950 . S
C817 C814 1.387 . S
C818 C819 1.387 . S
C818 H822 0.950 . S
C818 C827 1.390 . S
C819 C818 1.387 . S
C819 C821 1.387 . S
H820 C827 0.950 . S
C821 C819 1.387 . S
C821 C823 1.390 . S
C821 H825 0.950 . S
H822 C818 0.950 . S
C823 C821 1.390 . S
C823 C824 1.387 . S
C823 H826 0.950 . S
C824 C823 1.387 . S
C824 C827 1.387 . S
H825 C821 0.950 . S
H826 C823 0.950 . S
C827 C818 1.390 . S
C827 H820 0.950 . S
C827 C824 1.387 . S
C828 C829 1.387 . S
C828 H832 0.950 . S
C828 C837 1.390 . S
C829 C828 1.387 . S
C829 C831 1.387 . S
H830 C837 0.950 . S
C831 C829 1.387 . S
C831 C833 1.390 . S
C831 H835 0.950 1_565 S
H832 C828 0.950 . S
C833 C831 1.390 . S
C833 C834 1.387 . S
C833 H836 0.950 . S
C834 C833 1.387 . S
C834 C837 1.387 . S
H835 C831 0.950 1_545 S
H836 C833 0.950 . S
C837 C828 1.390 . S
C837 H830 0.950 . S
C837 C834 1.387 . S
C838 C839 1.387 . S
C838 H842 0.950 . S
C838 C847 1.390 . S
C839 C838 1.387 . S
C839 C841 1.387 . S
H840 C847 0.950 . S
C841 C839 1.387 . S
C841 C843 1.390 . S
C841 H845 0.950 . S
H842 C838 0.950 . S
C843 C841 1.390 . S
C843 C844 1.387 . S
C843 H846 0.950 . S
C844 C843 1.387 . S
C844 C847 1.387 . S
H845 C841 0.950 . S
H846 C843 0.950 . S
C847 C838 1.390 . S
C847 H840 0.950 . S
C847 C844 1.387 . S
C848 C849 1.387 . S
C848 H852 0.950 . S
C848 C857 1.390 . S
C849 C848 1.387 . S
C849 C851 1.387 . S
H850 C857 0.950 . S
C851 C849 1.387 . S
C851 C853 1.390 . S
C851 H855 0.950 . S
H852 C848 0.950 . S
C853 C851 1.390 . S
C853 C854 1.387 . S
C853 H856 0.950 . S
C854 C853 1.387 . S
C854 C857 1.387 . S
H855 C851 0.950 . S
H856 C853 0.950 . S
C857 C848 1.390 . S
C857 H850 0.950 . S
C857 C854 1.387 . S
C858 C859 1.387 . S
C858 H862 0.950 . S
C858 C867 1.390 . S
C859 C858 1.387 . S
C859 C861 1.387 . S
H860 C867 0.950 . S
C861 C859 1.387 . S
C861 C863 1.390 . S
C861 H865 0.950 . S
H862 C858 0.950 . S
C863 C861 1.390 . S
C863 C864 1.387 . S
C863 H866 0.950 . S
C864 C863 1.387 . S
C864 C867 1.387 . S
H865 C861 0.950 . S
H866 C863 0.950 . S
C867 C858 1.390 . S
C867 H860 0.950 . S
C867 C864 1.387 . S
C868 C869 1.387 . S
C868 H872 0.950 1_554 S
C868 C877 1.390 . S
C869 C868 1.387 . S
C869 C871 1.387 . S
H870 C877 0.950 1_556 S
C871 C869 1.387 . S
C871 C873 1.390 . S
C871 H875 0.950 . S
H872 C868 0.950 1_556 S
C873 C871 1.390 . S
C873 C874 1.387 . S
C873 H876 0.950 . S
C874 C873 1.387 . S
C874 C877 1.387 . S
H875 C871 0.950 . S
H876 C873 0.950 . S
C877 C868 1.390 . S
C877 H870 0.950 1_554 S
C877 C874 1.387 . S
C878 C879 1.387 . S
C878 H882 0.950 . S
C878 C887 1.390 . S
C879 C878 1.387 . S
C879 C881 1.387 . S
H880 C887 0.950 . S
C881 C879 1.387 . S
C881 C883 1.390 . S
C881 H885 0.950 . S
H882 C878 0.950 . S
C883 C881 1.390 . S
C883 C884 1.387 . S
C883 H886 0.950 . S
C884 C883 1.387 . S
C884 C887 1.387 . S
H885 C881 0.950 . S
H886 C883 0.950 . S
C887 C878 1.390 . S
C887 H880 0.950 . S
C887 C884 1.387 . S
C888 C889 1.387 . S
C888 H892 0.950 . S
C888 C897 1.390 . S
C889 C888 1.387 . S
C889 C891 1.387 . S
H890 C897 0.950 . S
C891 C889 1.387 . S
C891 C893 1.390 . S
C891 H895 0.950 . S
H892 C888 0.950 . S
C893 C891 1.390 . S
C893 C894 1.387 . S
C893 H896 0.950 . S
C894 C893 1.387 . S
C894 C897 1.387 . S
H895 C891 0.950 . S
H896 C893 0.950 . S
C897 C888 1.390 . S
C897 H890 0.950 . S
C897 C894 1.387 . S
C898 C899 1.387 . S
C898 H902 0.950 . S
C898 C907 1.390 . S
C899 C898 1.387 . S
C899 C901 1.387 . S
H900 C907 0.950 . S
C901 C899 1.387 . S
C901 C903 1.390 . S
C901 H905 0.950 . S
H902 C898 0.950 . S
C903 C901 1.390 . S
C903 C904 1.387 . S
C903 H906 0.950 . S
C904 C903 1.387 . S
C904 C907 1.387 . S
H905 C901 0.950 . S
H906 C903 0.950 . S
C907 C898 1.390 . S
C907 H900 0.950 . S
C907 C904 1.387 . S
C908 C909 1.387 . S
C908 H912 0.950 . S
C908 C917 1.390 . S
C909 C908 1.387 . S
C909 C911 1.387 . S
H910 C917 0.950 . S
C911 C909 1.387 . S
C911 C913 1.390 . S
C911 H915 0.950 . S
H912 C908 0.950 . S
C913 C911 1.390 . S
C913 C914 1.387 . S
C913 H916 0.950 . S
C914 C913 1.387 . S
C914 C917 1.387 . S
H915 C911 0.950 . S
H916 C913 0.950 . S
C917 C908 1.390 . S
C917 H910 0.950 . S
C917 C914 1.387 . S
C918 C919 1.387 . S
C918 H922 0.950 . S
C918 C927 1.390 . S
C919 C918 1.387 . S
C919 C921 1.387 . S
H920 C927 0.950 . S
C921 C919 1.387 . S
C921 C923 1.390 . S
C921 H925 0.950 . S
H922 C918 0.950 . S
C923 C921 1.390 . S
C923 C924 1.387 . S
C923 H926 0.950 . S
C924 C923 1.387 . S
C924 C927 1.387 . S
H925 C921 0.950 . S
H926 C923 0.950 . S
C927 C918 1.390 . S
C927 H920 0.950 . S
C927 C924 1.387 . S
C928 C929 1.387 . S
C928 H932 0.950 . S
C928 C937 1.390 . S
C929 C928 1.387 . S
C929 C931 1.387 . S
H930 C937 0.950 . S
C931 C929 1.387 . S
C931 C933 1.390 . S
C931 H935 0.950 . S
H932 C928 0.950 . S
C933 C931 1.390 . S
C933 C934 1.387 . S
C933 H936 0.950 . S
C934 C933 1.387 . S
C934 C937 1.387 . S
H935 C931 0.950 . S
H936 C933 0.950 . S
C937 C928 1.390 . S
C937 H930 0.950 . S
C937 C934 1.387 . S
C938 C939 1.387 . S
C938 H942 0.950 . S
C938 C947 1.390 . S
C939 C938 1.387 . S
C939 C941 1.387 . S
H940 C947 0.950 . S
C941 C939 1.387 . S
C941 C943 1.390 . S
C941 H945 0.950 . S
H942 C938 0.950 . S
C943 C941 1.390 . S
C943 C944 1.387 . S
C943 H946 0.950 . S
C944 C943 1.387 . S
C944 C947 1.387 . S
H945 C941 0.950 . S
H946 C943 0.950 . S
C947 C938 1.390 . S
C947 H940 0.950 . S
C947 C944 1.387 . S
C948 C949 1.387 . S
C948 H952 0.950 . S
C948 C957 1.390 . S
C949 C948 1.387 . S
C949 C951 1.387 . S
H950 C957 0.950 . S
C951 C949 1.387 . S
C951 C953 1.390 . S
C951 H955 0.950 . S
H952 C948 0.950 . S
C953 C951 1.390 . S
C953 C954 1.387 . S
C953 H956 0.950 . S
C954 C953 1.387 . S
C954 C957 1.387 . S
H955 C951 0.950 . S
H956 C953 0.950 . S
C957 C948 1.390 . S
C957 H950 0.950 . S
C957 C954 1.387 . S
C958 C959 1.387 . S
C958 H962 0.950 . S
C958 C967 1.390 . S
C959 C958 1.387 . S
C959 C961 1.387 . S
H960 C967 0.950 . S
C961 C959 1.387 . S
C961 C963 1.390 . S
C961 H965 0.950 . S
H962 C958 0.950 . S
C963 C961 1.390 . S
C963 C964 1.387 . S
C963 H966 0.950 . S
C964 C963 1.387 . S
C964 C967 1.387 . S
H965 C961 0.950 . S
H966 C963 0.950 . S
C967 C958 1.390 . S
C967 H960 0.950 . S
C967 C964 1.387 . S
C968 C969 1.387 . S
C968 H972 0.950 . S
C968 C977 1.390 . S
C969 C968 1.387 . S
C969 C971 1.387 . S
H970 C977 0.950 . S
C971 C969 1.387 . S
C971 C973 1.390 . S
C971 H975 0.950 . S
H972 C968 0.950 . S
C973 C971 1.390 . S
C973 C974 1.387 . S
C973 H976 0.950 . S
C974 C973 1.387 . S
C974 C977 1.387 . S
H975 C971 0.950 . S
H976 C973 0.950 . S
C977 C968 1.390 . S
C977 H970 0.950 . S
C977 C974 1.387 . S
C978 C979 1.387 . S
C978 H982 0.950 . S
C978 C987 1.390 . S
C979 C978 1.387 . S
C979 C981 1.387 . S
H980 C987 0.950 . S
C981 C979 1.387 . S
C981 C983 1.390 . S
C981 H985 0.950 . S
H982 C978 0.950 . S
C983 C981 1.390 . S
C983 C984 1.387 . S
C983 H986 0.950 . S
C984 C983 1.387 . S
C984 C987 1.387 . S
H985 C981 0.950 . S
H986 C983 0.950 . S
C987 C978 1.390 . S
C987 H980 0.950 . S
C987 C984 1.387 . S
C988 C989 1.387 . S
C988 H992 0.950 . S
C988 C997 1.390 . S
C989 C988 1.387 . S
C989 C991 1.387 . S
H990 C997 0.950 . S
C991 C989 1.387 . S
C991 C993 1.390 . S
C991 H995 0.950 . S
H992 C988 0.950 . S
C993 C991 1.390 . S
C993 C994 1.387 . S
C993 H996 0.950 . S
C994 C993 1.387 . S
C994 C997 1.387 . S
H995 C991 0.950 . S
H996 C993 0.950 . S
C997 C988 1.390 . S
C997 H990 0.950 . S
C997 C994 1.387 . S
C998 C999 1.387 . S
C998 H1002 0.950 . S
C998 C1007 1.390 . S
C999 C998 1.387 . S
C999 C1001 1.387 . S
H1000 C1007 0.950 1_554 S
C1001 C999 1.387 . S
C1001 C1003 1.390 . S
C1001 H1005 0.950 . S
H1002 C998 0.950 . S
C1003 C1001 1.390 . S
C1003 C1004 1.387 . S
C1003 H1006 0.950 . S
C1004 C1003 1.387 . S
C1004 C1007 1.387 . S
H1005 C1001 0.950 . S
H1006 C1003 0.950 . S
C1007 C998 1.390 . S
C1007 H1000 0.950 1_556 S
C1007 C1004 1.387 . S
C1008 C1009 1.387 . S
C1008 H1012 0.950 . S
C1008 C1017 1.390 . S
C1009 C1008 1.387 . S
C1009 C1011 1.387 . S
H1010 C1017 0.950 . S
C1011 C1009 1.387 . S
C1011 C1013 1.390 . S
C1011 H1015 0.950 . S
H1012 C1008 0.950 . S
C1013 C1011 1.390 . S
C1013 C1014 1.387 . S
C1013 H1016 0.950 . S
C1014 C1013 1.387 . S
C1014 C1017 1.387 . S
H1015 C1011 0.950 . S
H1016 C1013 0.950 . S
C1017 C1008 1.390 . S
C1017 H1010 0.950 . S
C1017 C1014 1.387 . S
C1018 C1019 1.387 . S
C1018 H1022 0.950 . S
C1018 C1027 1.390 . S
C1019 C1018 1.387 . S
C1019 C1021 1.387 . S
H1020 C1027 0.950 . S
C1021 C1019 1.387 . S
C1021 C1023 1.390 . S
C1021 H1025 0.950 . S
H1022 C1018 0.950 . S
C1023 C1021 1.390 . S
C1023 C1024 1.387 . S
C1023 H1026 0.950 . S
C1024 C1023 1.387 . S
C1024 C1027 1.387 . S
H1025 C1021 0.950 . S
H1026 C1023 0.950 . S
C1027 C1018 1.390 . S
C1027 H1020 0.950 . S
C1027 C1024 1.387 . S
C1028 C1029 1.387 . S
C1028 H1032 0.950 . S
C1028 C1037 1.390 . S
C1029 C1028 1.387 . S
C1029 C1031 1.387 . S
H1030 C1037 0.950 . S
C1031 C1029 1.387 . S
C1031 C1033 1.390 . S
C1031 H1035 0.950 . S
H1032 C1028 0.950 . S
C1033 C1031 1.390 . S
C1033 C1034 1.387 . S
C1033 H1036 0.950 . S
C1034 C1033 1.387 . S
C1034 C1037 1.387 . S
H1035 C1031 0.950 . S
H1036 C1033 0.950 . S
C1037 C1028 1.390 . S
C1037 H1030 0.950 . S
C1037 C1034 1.387 . S
C1038 C1039 1.387 . S
C1038 H1042 0.950 . S
C1038 C1047 1.390 . S
C1039 C1038 1.387 . S
C1039 C1041 1.387 . S
H1040 C1047 0.950 . S
C1041 C1039 1.387 . S
C1041 C1043 1.390 . S
C1041 H1045 0.950 . S
H1042 C1038 0.950 . S
C1043 C1041 1.390 . S
C1043 C1044 1.387 . S
C1043 H1046 0.950 . S
C1044 C1043 1.387 . S
C1044 C1047 1.387 . S
H1045 C1041 0.950 . S
H1046 C1043 0.950 . S
C1047 C1038 1.390 . S
C1047 H1040 0.950 . S
C1047 C1044 1.387 . S
C1048 C1049 1.387 . S
C1048 H1052 0.950 . S
C1048 C1057 1.390 . S
C1049 C1048 1.387 . S
C1049 C1051 1.387 . S
H1050 C1057 0.950 . S
C1051 C1049 1.387 . S
C1051 C1053 1.390 . S
C1051 H1055 0.950 1_565 S
H1052 C1048 0.950 . S
C1053 C1051 1.390 . S
C1053 C1054 1.387 . S
C1053 H1056 0.950 1_565 S
C1054 C1053 1.387 . S
C1054 C1057 1.387 . S
H1055 C1051 0.950 1_545 S
H1056 C1053 0.950 1_545 S
C1057 C1048 1.390 . S
C1057 H1050 0.950 . S
C1057 C1054 1.387 . S
C1058 C1059 1.387 . S
C1058 H1062 0.950 . S
C1058 C1067 1.390 . S
C1059 C1058 1.387 . S
C1059 C1061 1.387 . S
H1060 C1067 0.950 . S
C1061 C1059 1.387 . S
C1061 C1063 1.390 . S
C1061 H1065 0.950 . S
H1062 C1058 0.950 . S
C1063 C1061 1.390 . S
C1063 C1064 1.387 . S
C1063 H1066 0.950 . S
C1064 C1063 1.387 . S
C1064 C1067 1.387 . S
H1065 C1061 0.950 . S
H1066 C1063 0.950 . S
C1067 C1058 1.390 . S
C1067 H1060 0.950 . S
C1067 C1064 1.387 . S
C1068 C1069 1.387 . S
C1068 H1072 0.950 . S
C1068 C1077 1.390 . S
C1069 C1068 1.387 . S
C1069 C1071 1.387 . S
H1070 C1077 0.950 . S
C1071 C1069 1.387 . S
C1071 C1073 1.390 . S
C1071 H1075 0.950 . S
H1072 C1068 0.950 . S
C1073 C1071 1.390 . S
C1073 C1074 1.387 . S
C1073 H1076 0.950 . S
C1074 C1073 1.387 . S
C1074 C1077 1.387 . S
H1075 C1071 0.950 . S
H1076 C1073 0.950 . S
C1077 C1068 1.390 . S
C1077 H1070 0.950 . S
C1077 C1074 1.387 . S
C1078 C1079 1.387 . S
C1078 H1082 0.950 . S
C1078 C1087 1.390 . S
C1079 C1078 1.387 . S
C1079 C1081 1.387 . S
H1080 C1087 0.950 . S
C1081 C1079 1.387 . S
C1081 C1083 1.390 . S
C1081 H1085 0.950 . S
H1082 C1078 0.950 . S
C1083 C1081 1.390 . S
C1083 C1084 1.387 . S
C1083 H1086 0.950 . S
C1084 C1083 1.387 . S
C1084 C1087 1.387 . S
H1085 C1081 0.950 . S
H1086 C1083 0.950 . S
C1087 C1078 1.390 . S
C1087 H1080 0.950 . S
C1087 C1084 1.387 . S
C1088 C1089 1.387 . S
C1088 H1092 0.950 1_545 S
C1088 C1097 1.390 . S
C1089 C1088 1.387 . S
C1089 C1091 1.387 . S
H1090 C1097 0.950 . S
C1091 C1089 1.387 . S
C1091 C1093 1.390 . S
C1091 H1095 0.950 . S
H1092 C1088 0.950 1_565 S
C1093 C1091 1.390 . S
C1093 C1094 1.387 . S
C1093 H1096 0.950 . S
C1094 C1093 1.387 . S
C1094 C1097 1.387 . S
H1095 C1091 0.950 . S
H1096 C1093 0.950 . S
C1097 C1088 1.390 . S
C1097 H1090 0.950 . S
C1097 C1094 1.387 . S
C1098 C1099 1.387 . S
C1098 H1102 0.950 . S
C1098 C1107 1.390 . S
C1099 C1098 1.387 . S
C1099 C1101 1.387 . S
H1100 C1107 0.950 . S
C1101 C1099 1.387 . S
C1101 C1103 1.390 . S
C1101 H1105 0.950 . S
H1102 C1098 0.950 . S
C1103 C1101 1.390 . S
C1103 C1104 1.387 . S
C1103 H1106 0.950 . S
C1104 C1103 1.387 . S
C1104 C1107 1.387 . S
H1105 C1101 0.950 . S
H1106 C1103 0.950 . S
C1107 C1098 1.390 . S
C1107 H1100 0.950 . S
C1107 C1104 1.387 . S
C1108 C1109 1.387 . S
C1108 H1112 0.950 . S
C1108 C1117 1.390 . S
C1109 C1108 1.387 . S
C1109 C1111 1.387 . S
H1110 C1117 0.950 . S
C1111 C1109 1.387 . S
C1111 C1113 1.390 . S
C1111 H1115 0.950 . S
H1112 C1108 0.950 . S
C1113 C1111 1.390 . S
C1113 C1114 1.387 . S
C1113 H1116 0.950 . S
C1114 C1113 1.387 . S
C1114 C1117 1.387 . S
H1115 C1111 0.950 . S
H1116 C1113 0.950 . S
C1117 C1108 1.390 . S
C1117 H1110 0.950 . S
C1117 C1114 1.387 . S
C1118 C1119 1.387 . S
C1118 H1122 0.950 1_556 S
C1118 C1127 1.390 . S
C1119 C1118 1.387 . S
C1119 C1121 1.387 . S
H1120 C1127 0.950 1_554 S
C1121 C1119 1.387 . S
C1121 C1123 1.390 . S
C1121 H1125 0.950 . S
H1122 C1118 0.950 1_554 S
C1123 C1121 1.390 . S
C1123 C1124 1.387 . S
C1123 H1126 0.950 . S
C1124 C1123 1.387 . S
C1124 C1127 1.387 . S
H1125 C1121 0.950 . S
H1126 C1123 0.950 . S
C1127 C1118 1.390 . S
C1127 H1120 0.950 1_556 S
C1127 C1124 1.387 . S
C1128 C1129 1.387 . S
C1128 H1132 0.950 . S
C1128 C1137 1.390 . S
C1129 C1128 1.387 . S
C1129 C1131 1.387 . S
H1130 C1137 0.950 . S
C1131 C1129 1.387 . S
C1131 C1133 1.390 . S
C1131 H1135 0.950 . S
H1132 C1128 0.950 . S
C1133 C1131 1.390 . S
C1133 C1134 1.387 . S
C1133 H1136 0.950 . S
C1134 C1133 1.387 . S
C1134 C1137 1.387 . S
H1135 C1131 0.950 . S
H1136 C1133 0.950 . S
C1137 C1128 1.390 . S
C1137 H1130 0.950 . S
C1137 C1134 1.387 . S
C1138 C1139 1.387 . S
C1138 H1142 0.950 . S
C1138 C1147 1.390 . S
C1139 C1138 1.387 . S
C1139 C1141 1.387 . S
H1140 C1147 0.950 . S
C1141 C1139 1.387 . S
C1141 C1143 1.390 . S
C1141 H1145 0.950 1_556 S
H1142 C1138 0.950 . S
C1143 C1141 1.390 . S
C1143 C1144 1.387 . S
C1143 H1146 0.950 . S
C1144 C1143 1.387 . S
C1144 C1147 1.387 . S
H1145 C1141 0.950 1_554 S
H1146 C1143 0.950 . S
C1147 C1138 1.390 . S
C1147 H1140 0.950 . S
C1147 C1144 1.387 . S
C1148 C1149 1.387 . S
C1148 H1152 0.950 . S
C1148 C1157 1.390 . S
C1149 C1148 1.387 . S
C1149 C1151 1.387 . S
H1150 C1157 0.950 . S
C1151 C1149 1.387 . S
C1151 C1153 1.390 . S
C1151 H1155 0.950 . S
H1152 C1148 0.950 . S
C1153 C1151 1.390 . S
C1153 C1154 1.387 . S
C1153 H1156 0.950 . S
C1154 C1153 1.387 . S
C1154 C1157 1.387 . S
H1155 C1151 0.950 . S
H1156 C1153 0.950 . S
C1157 C1148 1.390 . S
C1157 H1150 0.950 . S
C1157 C1154 1.387 . S
C1158 C1159 1.387 . S
C1158 H1162 0.950 1_554 S
C1158 C1167 1.390 . S
C1159 C1158 1.387 . S
C1159 C1161 1.387 . S
H1160 C1167 0.950 . S
C1161 C1159 1.387 . S
C1161 C1163 1.390 . S
C1161 H1165 0.950 . S
H1162 C1158 0.950 1_556 S
C1163 C1161 1.390 . S
C1163 C1164 1.387 . S
C1163 H1166 0.950 . S
C1164 C1163 1.387 . S
C1164 C1167 1.387 . S
H1165 C1161 0.950 . S
H1166 C1163 0.950 . S
C1167 C1158 1.390 . S
C1167 H1160 0.950 . S
C1167 C1164 1.387 . S
C1168 C1169 1.387 . S
C1168 H1172 0.950 . S
C1168 C1177 1.390 . S
C1169 C1168 1.387 . S
C1169 C1171 1.387 . S
H1170 C1177 0.950 . S
C1171 C1169 1.387 . S
C1171 C1173 1.390 . S
C1171 H1175 0.950 . S
H1172 C1168 0.950 . S
C1173 C1171 1.390 . S
C1173 C1174 1.387 . S
C1173 H1176 0.950 . S
C1174 C1173 1.387 . S
C1174 C1177 1.387 . S
H1175 C1171 0.950 . S
H1176 C1173 0.950 . S
C1177 C1168 1.390 . S
C1177 H1170 0.950 . S
C1177 C1174 1.387 . S
C1178 C1179 1.387 . S
C1178 H1182 0.950 . S
C1178 C1187 1.390 . S
C1179 C1178 1.387 . S
C1179 C1181 1.387 . S
H1180 C1187 0.950 . S
C1181 C1179 1.387 . S
C1181 C1183 1.390 . S
C1181 H1185 0.950 . S
H1182 C1178 0.950 . S
C1183 C1181 1.390 . S
C1183 C1184 1.387 . S
C1183 H1186 0.950 . S
C1184 C1183 1.387 . S
C1184 C1187 1.387 . S
H1185 C1181 0.950 . S
H1186 C1183 0.950 . S
C1187 C1178 1.390 . S
C1187 H1180 0.950 . S
C1187 C1184 1.387 . S
C1188 C1189 1.387 . S
C1188 H1192 0.950 . S
C1188 C1197 1.390 . S
C1189 C1188 1.387 . S
C1189 C1191 1.387 . S
H1190 C1197 0.950 . S
C1191 C1189 1.387 . S
C1191 C1193 1.390 . S
C1191 H1195 0.950 . S
H1192 C1188 0.950 . S
C1193 C1191 1.390 . S
C1193 C1194 1.387 . S
C1193 H1196 0.950 . S
C1194 C1193 1.387 . S
C1194 C1197 1.387 . S
H1195 C1191 0.950 . S
H1196 C1193 0.950 . S
C1197 C1188 1.390 . S
C1197 H1190 0.950 . S
C1197 C1194 1.387 . S
C1198 C1199 1.387 . S
C1198 H1202 0.950 . S
C1198 C1207 1.390 . S
C1199 C1198 1.387 . S
C1199 C1201 1.387 . S
H1200 C1207 0.950 . S
C1201 C1199 1.387 . S
C1201 C1203 1.390 . S
C1201 H1205 0.950 . S
H1202 C1198 0.950 . S
C1203 C1201 1.390 . S
C1203 C1204 1.387 . S
C1203 H1206 0.950 . S
C1204 C1203 1.387 . S
C1204 C1207 1.387 . S
H1205 C1201 0.950 . S
H1206 C1203 0.950 . S
C1207 C1198 1.390 . S
C1207 H1200 0.950 . S
C1207 C1204 1.387 . S
C1208 C1209 1.387 . S
C1208 H1212 0.950 . S
C1208 C1217 1.390 . S
C1209 C1208 1.387 . S
C1209 C1211 1.387 . S
H1210 C1217 0.950 . S
C1211 C1209 1.387 . S
C1211 C1213 1.390 . S
C1211 H1215 0.950 . S
H1212 C1208 0.950 . S
C1213 C1211 1.390 . S
C1213 C1214 1.387 . S
C1213 H1216 0.950 . S
C1214 C1213 1.387 . S
C1214 C1217 1.387 . S
H1215 C1211 0.950 . S
H1216 C1213 0.950 . S
C1217 C1208 1.390 . S
C1217 H1210 0.950 . S
C1217 C1214 1.387 . S
C1218 C1219 1.387 . S
C1218 H1222 0.950 . S
C1218 C1227 1.390 . S
C1219 C1218 1.387 . S
C1219 C1221 1.387 . S
H1220 C1227 0.950 . S
C1221 C1219 1.387 . S
C1221 C1223 1.390 . S
C1221 H1225 0.950 . S
H1222 C1218 0.950 . S
C1223 C1221 1.390 . S
C1223 C1224 1.387 . S
C1223 H1226 0.950 . S
C1224 C1223 1.387 . S
C1224 C1227 1.387 . S
H1225 C1221 0.950 . S
H1226 C1223 0.950 . S
C1227 C1218 1.390 . S
C1227 H1220 0.950 . S
C1227 C1224 1.387 . S
C1228 C1229 1.387 . S
C1228 H1232 0.950 . S
C1228 C1237 1.390 . S
C1229 C1228 1.387 . S
C1229 C1231 1.387 . S
H1230 C1237 0.950 . S
C1231 C1229 1.387 . S
C1231 C1233 1.390 . S
C1231 H1235 0.950 . S
H1232 C1228 0.950 . S
C1233 C1231 1.390 . S
C1233 C1234 1.387 . S
C1233 H1236 0.950 . S
C1234 C1233 1.387 . S
C1234 C1237 1.387 . S
H1235 C1231 0.950 . S
H1236 C1233 0.950 . S
C1237 C1228 1.390 . S
C1237 H1230 0.950 . S
C1237 C1234 1.387 . S
C1238 C1239 1.387 . S
C1238 H1242 0.950 . S
C1238 C1247 1.390 . S
C1239 C1238 1.387 . S
C1239 C1241 1.387 . S
H1240 C1247 0.950 . S
C1241 C1239 1.387 . S
C1241 C1243 1.390 . S
C1241 H1245 0.950 . S
H1242 C1238 0.950 . S
C1243 C1241 1.390 . S
C1243 C1244 1.387 . S
C1243 H1246 0.950 . S
C1244 C1243 1.387 . S
C1244 C1247 1.387 . S
H1245 C1241 0.950 . S
H1246 C1243 0.950 . S
C1247 C1238 1.390 . S
C1247 H1240 0.950 . S
C1247 C1244 1.387 . S
C1248 C1249 1.387 . S
C1248 H1252 0.950 . S
C1248 C1257 1.390 . S
C1249 C1248 1.387 . S
C1249 C1251 1.387 . S
H1250 C1257 0.950 . S
C1251 C1249 1.387 . S
C1251 C1253 1.390 . S
C1251 H1255 0.950 . S
H1252 C1248 0.950 . S
C1253 C1251 1.390 . S
C1253 C1254 1.387 . S
C1253 H1256 0.950 . S
C1254 C1253 1.387 . S
C1254 C1257 1.387 . S
H1255 C1251 0.950 . S
H1256 C1253 0.950 . S
C1257 C1248 1.390 . S
C1257 H1250 0.950 . S
C1257 C1254 1.387 . S
C1258 C1259 1.387 . S
C1258 H1262 0.950 . S
C1258 C1267 1.390 . S
C1259 C1258 1.387 . S
C1259 C1261 1.387 . S
H1260 C1267 0.950 . S
C1261 C1259 1.387 . S
C1261 C1263 1.390 . S
C1261 H1265 0.950 . S
H1262 C1258 0.950 . S
C1263 C1261 1.390 . S
C1263 C1264 1.387 . S
C1263 H1266 0.950 . S
C1264 C1263 1.387 . S
C1264 C1267 1.387 . S
H1265 C1261 0.950 . S
H1266 C1263 0.950 . S
C1267 C1258 1.390 . S
C1267 H1260 0.950 . S
C1267 C1264 1.387 . S
C1268 C1269 1.387 . S
C1268 H1272 0.950 . S
C1268 C1277 1.390 . S
C1269 C1268 1.387 . S
C1269 C1271 1.387 . S
H1270 C1277 0.950 . S
C1271 C1269 1.387 . S
C1271 C1273 1.390 . S
C1271 H1275 0.950 . S
H1272 C1268 0.950 . S
C1273 C1271 1.390 . S
C1273 C1274 1.387 . S
C1273 H1276 0.950 . S
C1274 C1273 1.387 . S
C1274 C1277 1.387 . S
H1275 C1271 0.950 . S
H1276 C1273 0.950 . S
C1277 C1268 1.390 . S
C1277 H1270 0.950 . S
C1277 C1274 1.387 . S
C1278 C1279 1.387 . S
C1278 H1282 0.950 . S
C1278 C1287 1.390 . S
C1279 C1278 1.387 . S
C1279 C1281 1.387 . S
H1280 C1287 0.950 . S
C1281 C1279 1.387 . S
C1281 C1283 1.390 . S
C1281 H1285 0.950 . S
H1282 C1278 0.950 . S
C1283 C1281 1.390 . S
C1283 C1284 1.387 . S
C1283 H1286 0.950 . S
C1284 C1283 1.387 . S
C1284 C1287 1.387 . S
H1285 C1281 0.950 . S
H1286 C1283 0.950 . S
C1287 C1278 1.390 . S
C1287 H1280 0.950 . S
C1287 C1284 1.387 . S
C1288 C1289 1.387 . S
C1288 H1292 0.950 . S
C1288 C1297 1.390 . S
C1289 C1288 1.387 . S
C1289 C1291 1.387 . S
H1290 C1297 0.950 . S
C1291 C1289 1.387 . S
C1291 C1293 1.390 . S
C1291 H1295 0.950 . S
H1292 C1288 0.950 . S
C1293 C1291 1.390 . S
C1293 C1294 1.387 . S
C1293 H1296 0.950 . S
C1294 C1293 1.387 . S
C1294 C1297 1.387 . S
H1295 C1291 0.950 . S
H1296 C1293 0.950 . S
C1297 C1288 1.390 . S
C1297 H1290 0.950 . S
C1297 C1294 1.387 . S
C1298 C1299 1.387 . S
C1298 H1302 0.950 . S
C1298 C1307 1.390 . S
C1299 C1298 1.387 . S
C1299 C1301 1.387 . S
H1300 C1307 0.950 . S
C1301 C1299 1.387 . S
C1301 C1303 1.390 . S
C1301 H1305 0.950 . S
H1302 C1298 0.950 . S
C1303 C1301 1.390 . S
C1303 C1304 1.387 . S
C1303 H1306 0.950 . S
C1304 C1303 1.387 . S
C1304 C1307 1.387 . S
H1305 C1301 0.950 . S
H1306 C1303 0.950 . S
C1307 C1298 1.390 . S
C1307 H1300 0.950 . S
C1307 C1304 1.387 . S
C1308 C1309 1.387 . S
C1308 H1312 0.950 . S
C1308 C1317 1.390 . S
C1309 C1308 1.387 . S
C1309 C1311 1.387 . S
H1310 C1317 0.950 . S
C1311 C1309 1.387 . S
C1311 C1313 1.390 . S
C1311 H1315 0.950 . S
H1312 C1308 0.950 . S
C1313 C1311 1.390 . S
C1313 C1314 1.387 . S
C1313 H1316 0.950 . S
C1314 C1313 1.387 . S
C1314 C1317 1.387 . S
H1315 C1311 0.950 . S
H1316 C1313 0.950 . S
C1317 C1308 1.390 . S
C1317 H1310 0.950 . S
C1317 C1314 1.387 . S
C1318 C1319 1.387 . S
C1318 H1322 0.950 . S
C1318 C1327 1.390 . S
C1319 C1318 1.387 . S
C1319 C1321 1.387 . S
H1320 C1327 0.950 1_554 S
C1321 C1319 1.387 . S
C1321 C1323 1.390 . S
C1321 H1325 0.950 . S
H1322 C1318 0.950 . S
C1323 C1321 1.390 . S
C1323 C1324 1.387 . S
C1323 H1326 0.950 . S
C1324 C1323 1.387 . S
C1324 C1327 1.387 . S
H1325 C1321 0.950 . S
H1326 C1323 0.950 . S
C1327 C1318 1.390 . S
C1327 H1320 0.950 1_556 S
C1327 C1324 1.387 . S
C1328 C1329 1.387 . S
C1328 H1332 0.950 . S
C1328 C1337 1.390 . S
C1329 C1328 1.387 . S
C1329 C1331 1.387 . S
H1330 C1337 0.950 . S
C1331 C1329 1.387 . S
C1331 C1333 1.390 . S
C1331 H1335 0.950 . S
H1332 C1328 0.950 . S
C1333 C1331 1.390 . S
C1333 C1334 1.387 . S
C1333 H1336 0.950 . S
C1334 C1333 1.387 . S
C1334 C1337 1.387 . S
H1335 C1331 0.950 . S
H1336 C1333 0.950 . S
C1337 C1328 1.390 . S
C1337 H1330 0.950 . S
C1337 C1334 1.387 . S
C1338 C1339 1.387 . S
C1338 H1342 0.950 . S
C1338 C1347 1.390 . S
C1339 C1338 1.387 . S
C1339 C1341 1.387 . S
H1340 C1347 0.950 . S
C1341 C1339 1.387 . S
C1341 C1343 1.390 . S
C1341 H1345 0.950 . S
H1342 C1338 0.950 . S
C1343 C1341 1.390 . S
C1343 C1344 1.387 . S
C1343 H1346 0.950 . S
C1344 C1343 1.387 . S
C1344 C1347 1.387 . S
H1345 C1341 0.950 . S
H1346 C1343 0.950 . S
C1347 C1338 1.390 . S
C1347 H1340 0.950 . S
C1347 C1344 1.387 . S
C1348 C1349 1.387 . S
C1348 H1352 0.950 . S
C1348 C1357 1.390 . S
C1349 C1348 1.387 . S
C1349 C1351 1.387 . S
H1350 C1357 0.950 . S
C1351 C1349 1.387 . S
C1351 C1353 1.390 . S
C1351 H1355 0.950 . S
H1352 C1348 0.950 . S
C1353 C1351 1.390 . S
C1353 C1354 1.387 . S
C1353 H1356 0.950 . S
C1354 C1353 1.387 . S
C1354 C1357 1.387 . S
H1355 C1351 0.950 . S
H1356 C1353 0.950 . S
C1357 C1348 1.390 . S
C1357 H1350 0.950 . S
C1357 C1354 1.387 . S
C1358 C1359 1.387 . S
C1358 H1362 0.950 . S
C1358 C1367 1.390 . S
C1359 C1358 1.387 . S
C1359 C1361 1.387 . S
H1360 C1367 0.950 . S
C1361 C1359 1.387 . S
C1361 C1363 1.390 . S
C1361 H1365 0.950 . S
H1362 C1358 0.950 . S
C1363 C1361 1.390 . S
C1363 C1364 1.387 . S
C1363 H1366 0.950 . S
C1364 C1363 1.387 . S
C1364 C1367 1.387 . S
H1365 C1361 0.950 . S
H1366 C1363 0.950 . S
C1367 C1358 1.390 . S
C1367 H1360 0.950 . S
C1367 C1364 1.387 . S
C1368 C1369 1.387 . S
C1368 H1372 0.950 . S
C1368 C1377 1.390 . S
C1369 C1368 1.387 . S
C1369 C1371 1.387 . S
H1370 C1377 0.950 . S
C1371 C1369 1.387 . S
C1371 C1373 1.390 . S
C1371 H1375 0.950 . S
H1372 C1368 0.950 . S
C1373 C1371 1.390 . S
C1373 C1374 1.387 . S
C1373 H1376 0.950 . S
C1374 C1373 1.387 . S
C1374 C1377 1.387 . S
H1375 C1371 0.950 . S
H1376 C1373 0.950 . S
C1377 C1368 1.390 . S
C1377 H1370 0.950 . S
C1377 C1374 1.387 . S
C1378 C1379 1.387 . S
C1378 H1382 0.950 . S
C1378 C1387 1.390 . S
C1379 C1378 1.387 . S
C1379 C1381 1.387 . S
H1380 C1387 0.950 . S
C1381 C1379 1.387 . S
C1381 C1383 1.390 . S
C1381 H1385 0.950 . S
H1382 C1378 0.950 . S
C1383 C1381 1.390 . S
C1383 C1384 1.387 . S
C1383 H1386 0.950 . S
C1384 C1383 1.387 . S
C1384 C1387 1.387 . S
H1385 C1381 0.950 . S
H1386 C1383 0.950 . S
C1387 C1378 1.390 . S
C1387 H1380 0.950 . S
C1387 C1384 1.387 . S
C1388 C1389 1.387 . S
C1388 H1392 0.950 . S
C1388 C1397 1.390 . S
C1389 C1388 1.387 . S
C1389 C1391 1.387 . S
H1390 C1397 0.950 . S
C1391 C1389 1.387 . S
C1391 C1393 1.390 . S
C1391 H1395 0.950 . S
H1392 C1388 0.950 . S
C1393 C1391 1.390 . S
C1393 C1394 1.387 . S
C1393 H1396 0.950 . S
C1394 C1393 1.387 . S
C1394 C1397 1.387 . S
H1395 C1391 0.950 . S
H1396 C1393 0.950 . S
C1397 C1388 1.390 . S
C1397 H1390 0.950 . S
C1397 C1394 1.387 . S
C1398 C1399 1.387 . S
C1398 H1402 0.950 . S
C1398 C1407 1.390 . S
C1399 C1398 1.387 . S
C1399 C1401 1.387 . S
H1400 C1407 0.950 . S
C1401 C1399 1.387 . S
C1401 C1403 1.390 . S
C1401 H1405 0.950 . S
H1402 C1398 0.950 . S
C1403 C1401 1.390 . S
C1403 C1404 1.387 . S
C1403 H1406 0.950 . S
C1404 C1403 1.387 . S
C1404 C1407 1.387 . S
H1405 C1401 0.950 . S
H1406 C1403 0.950 . S
C1407 C1398 1.390 . S
C1407 H1400 0.950 . S
C1407 C1404 1.387 . S
C1408 C1409 1.387 . S
C1408 H1412 0.950 . S
C1408 C1417 1.390 . S
C1409 C1408 1.387 . S
C1409 C1411 1.387 . S
H1410 C1417 0.950 . S
C1411 C1409 1.387 . S
C1411 C1413 1.390 . S
C1411 H1415 0.950 . S
H1412 C1408 0.950 . S
C1413 C1411 1.390 . S
C1413 C1414 1.387 . S
C1413 H1416 0.950 . S
C1414 C1413 1.387 . S
C1414 C1417 1.387 . S
H1415 C1411 0.950 . S
H1416 C1413 0.950 . S
C1417 C1408 1.390 . S
C1417 H1410 0.950 . S
C1417 C1414 1.387 . S
C1418 C1419 1.387 . S
C1418 H1422 0.950 . S
C1418 C1427 1.390 . S
C1419 C1418 1.387 . S
C1419 C1421 1.387 . S
H1420 C1427 0.950 1_565 S
C1421 C1419 1.387 . S
C1421 C1423 1.390 . S
C1421 H1425 0.950 . S
H1422 C1418 0.950 . S
C1423 C1421 1.390 . S
C1423 C1424 1.387 . S
C1423 H1426 0.950 . S
C1424 C1423 1.387 . S
C1424 C1427 1.387 . S
H1425 C1421 0.950 . S
H1426 C1423 0.950 . S
C1427 C1418 1.390 . S
C1427 H1420 0.950 1_545 S
C1427 C1424 1.387 . S
C1428 C1429 1.387 . S
C1428 H1432 0.950 . S
C1428 C1437 1.390 . S
C1429 C1428 1.387 . S
C1429 C1431 1.387 . S
H1430 C1437 0.950 . S
C1431 C1429 1.387 . S
C1431 C1433 1.390 . S
C1431 H1435 0.950 . S
H1432 C1428 0.950 . S
C1433 C1431 1.390 . S
C1433 C1434 1.387 . S
C1433 H1436 0.950 . S
C1434 C1433 1.387 . S
C1434 C1437 1.387 . S
H1435 C1431 0.950 . S
H1436 C1433 0.950 . S
C1437 C1428 1.390 . S
C1437 H1430 0.950 . S
C1437 C1434 1.387 . S
C1438 C1439 1.387 . S
C1438 H1442 0.950 . S
C1438 C1447 1.390 . S
C1439 C1438 1.387 . S
C1439 C1441 1.387 . S
H1440 C1447 0.950 . S
C1441 C1439 1.387 . S
C1441 C1443 1.390 . S
C1441 H1445 0.950 . S
H1442 C1438 0.950 . S
C1443 C1441 1.390 . S
C1443 C1444 1.387 . S
C1443 H1446 0.950 . S
C1444 C1443 1.387 . S
C1444 C1447 1.387 . S
H1445 C1441 0.950 . S
H1446 C1443 0.950 . S
C1447 C1438 1.390 . S
C1447 H1440 0.950 . S
C1447 C1444 1.387 . S
C1448 C1449 1.387 . S
C1448 H1452 0.950 . S
C1448 C1457 1.390 . S
C1449 C1448 1.387 . S
C1449 C1451 1.387 . S
H1450 C1457 0.950 . S
C1451 C1449 1.387 . S
C1451 C1453 1.390 . S
C1451 H1455 0.950 . S
H1452 C1448 0.950 . S
C1453 C1451 1.390 . S
C1453 C1454 1.387 . S
C1453 H1456 0.950 . S
C1454 C1453 1.387 . S
C1454 C1457 1.387 . S
H1455 C1451 0.950 . S
H1456 C1453 0.950 . S
C1457 C1448 1.390 . S
C1457 H1450 0.950 . S
C1457 C1454 1.387 . S
C1458 C1459 1.387 . S
C1458 H1462 0.950 . S
C1458 C1467 1.390 . S
C1459 C1458 1.387 . S
C1459 C1461 1.387 . S
H1460 C1467 0.950 . S
C1461 C1459 1.387 . S
C1461 C1463 1.390 . S
C1461 H1465 0.950 . S
H1462 C1458 0.950 . S
C1463 C1461 1.390 . S
C1463 C1464 1.387 . S
C1463 H1466 0.950 . S
C1464 C1463 1.387 . S
C1464 C1467 1.387 . S
H1465 C1461 0.950 . S
H1466 C1463 0.950 . S
C1467 C1458 1.390 . S
C1467 H1460 0.950 . S
C1467 C1464 1.387 . S
C1468 C1469 1.387 . S
C1468 H1472 0.950 . S
C1468 C1477 1.390 . S
C1469 C1468 1.387 . S
C1469 C1471 1.387 . S
H1470 C1477 0.950 . S
C1471 C1469 1.387 . S
C1471 C1473 1.390 . S
C1471 H1475 0.950 . S
H1472 C1468 0.950 . S
C1473 C1471 1.390 . S
C1473 C1474 1.387 . S
C1473 H1476 0.950 . S
C1474 C1473 1.387 . S
C1474 C1477 1.387 . S
H1475 C1471 0.950 . S
H1476 C1473 0.950 . S
C1477 C1468 1.390 . S
C1477 H1470 0.950 . S
C1477 C1474 1.387 . S
C1478 C1479 1.387 . S
C1478 H1482 0.950 . S
C1478 C1487 1.390 . S
C1479 C1478 1.387 . S
C1479 C1481 1.387 . S
H1480 C1487 0.950 . S
C1481 C1479 1.387 . S
C1481 C1483 1.390 . S
C1481 H1485 0.950 . S
H1482 C1478 0.950 . S
C1483 C1481 1.390 . S
C1483 C1484 1.387 . S
C1483 H1486 0.950 . S
C1484 C1483 1.387 . S
C1484 C1487 1.387 . S
H1485 C1481 0.950 . S
H1486 C1483 0.950 . S
C1487 C1478 1.390 . S
C1487 H1480 0.950 . S
C1487 C1484 1.387 . S
C1488 C1489 1.387 . S
C1488 H1492 0.950 . S
C1488 C1497 1.390 . S
C1489 C1488 1.387 . S
C1489 C1491 1.387 . S
H1490 C1497 0.950 . S
C1491 C1489 1.387 . S
C1491 C1493 1.390 . S
C1491 H1495 0.950 . S
H1492 C1488 0.950 . S
C1493 C1491 1.390 . S
C1493 C1494 1.387 . S
C1493 H1496 0.950 . S
C1494 C1493 1.387 . S
C1494 C1497 1.387 . S
H1495 C1491 0.950 . S
H1496 C1493 0.950 . S
C1497 C1488 1.390 . S
C1497 H1490 0.950 . S
C1497 C1494 1.387 . S
C1498 C1499 1.387 . S
C1498 H1502 0.950 . S
C1498 C1507 1.390 . S
C1499 C1498 1.387 . S
C1499 C1501 1.387 . S
H1500 C1507 0.950 . S
C1501 C1499 1.387 . S
C1501 C1503 1.390 . S
C1501 H1505 0.950 . S
H1502 C1498 0.950 . S
C1503 C1501 1.390 . S
C1503 C1504 1.387 . S
C1503 H1506 0.950 . S
C1504 C1503 1.387 . S
C1504 C1507 1.387 . S
H1505 C1501 0.950 . S
H1506 C1503 0.950 . S
C1507 C1498 1.390 . S
C1507 H1500 0.950 . S
C1507 C1504 1.387 . S
C1508 C1509 1.387 . S
C1508 H1512 0.950 . S
C1508 C1517 1.390 . S
C1509 C1508 1.387 . S
C1509 C1511 1.387 . S
H1510 C1517 0.950 . S
C1511 C1509 1.387 . S
C1511 C1513 1.390 . S
C1511 H1515 0.950 . S
H1512 C1508 0.950 . S
C1513 C1511 1.390 . S
C1513 C1514 1.387 . S
C1513 H1516 0.950 . S
C1514 C1513 1.387 . S
C1514 C1517 1.387 . S
H1515 C1511 0.950 . S
H1516 C1513 0.950 . S
C1517 C1508 1.390 . S
C1517 H1510 0.950 . S
C1517 C1514 1.387 . S
C1518 C1519 1.387 . S
C1518 H1522 0.950 . S
C1518 C1527 1.390 . S
C1519 C1518 1.387 . S
C1519 C1521 1.387 . S
H1520 C1527 0.950 . S
C1521 C1519 1.387 . S
C1521 C1523 1.390 . S
C1521 H1525 0.950 . S
H1522 C1518 0.950 . S
C1523 C1521 1.390 . S
C1523 C1524 1.387 . S
C1523 H1526 0.950 . S
C1524 C1523 1.387 . S
C1524 C1527 1.387 . S
H1525 C1521 0.950 . S
H1526 C1523 0.950 . S
C1527 C1518 1.390 . S
C1527 H1520 0.950 . S
C1527 C1524 1.387 . S
C1528 C1529 1.387 . S
C1528 H1532 0.950 . S
C1528 C1537 1.390 . S
C1529 C1528 1.387 . S
C1529 C1531 1.387 . S
H1530 C1537 0.950 . S
C1531 C1529 1.387 . S
C1531 C1533 1.390 . S
C1531 H1535 0.950 . S
H1532 C1528 0.950 . S
C1533 C1531 1.390 . S
C1533 C1534 1.387 . S
C1533 H1536 0.950 . S
C1534 C1533 1.387 . S
C1534 C1537 1.387 . S
H1535 C1531 0.950 . S
H1536 C1533 0.950 . S
C1537 C1528 1.390 . S
C1537 H1530 0.950 . S
C1537 C1534 1.387 . S
C1538 C1539 1.387 . S
C1538 H1542 0.950 . S
C1538 C1547 1.390 . S
C1539 C1538 1.387 . S
C1539 C1541 1.387 . S
H1540 C1547 0.950 . S
C1541 C1539 1.387 . S
C1541 C1543 1.390 . S
C1541 H1545 0.950 . S
H1542 C1538 0.950 . S
C1543 C1541 1.390 . S
C1543 C1544 1.387 . S
C1543 H1546 0.950 . S
C1544 C1543 1.387 . S
C1544 C1547 1.387 . S
H1545 C1541 0.950 . S
H1546 C1543 0.950 . S
C1547 C1538 1.390 . S
C1547 H1540 0.950 . S
C1547 C1544 1.387 . S
C1548 C1549 1.387 . S
C1548 H1552 0.950 . S
C1548 C1557 1.390 . S
C1549 C1548 1.387 . S
C1549 C1551 1.387 . S
H1550 C1557 0.950 . S
C1551 C1549 1.387 . S
C1551 C1553 1.390 . S
C1551 H1555 0.950 . S
H1552 C1548 0.950 . S
C1553 C1551 1.390 . S
C1553 C1554 1.387 . S
C1553 H1556 0.950 . S
C1554 C1553 1.387 . S
C1554 C1557 1.387 . S
H1555 C1551 0.950 . S
H1556 C1553 0.950 . S
C1557 C1548 1.390 . S
C1557 H1550 0.950 . S
C1557 C1554 1.387 . S
C1558 C1559 1.387 . S
C1558 H1562 0.950 . S
C1558 C1567 1.390 . S
C1559 C1558 1.387 . S
C1559 C1561 1.387 . S
H1560 C1567 0.950 . S
C1561 C1559 1.387 . S
C1561 C1563 1.390 . S
C1561 H1565 0.950 . S
H1562 C1558 0.950 . S
C1563 C1561 1.390 . S
C1563 C1564 1.387 . S
C1563 H1566 0.950 . S
C1564 C1563 1.387 . S
C1564 C1567 1.387 . S
H1565 C1561 0.950 . S
H1566 C1563 0.950 . S
C1567 C1558 1.390 . S
C1567 H1560 0.950 . S
C1567 C1564 1.387 . S
C1568 C1569 1.387 . S
C1568 H1572 0.950 . S
C1568 C1577 1.390 . S
C1569 C1568 1.387 . S
C1569 C1571 1.387 . S
H1570 C1577 0.950 . S
C1571 C1569 1.387 . S
C1571 C1573 1.390 . S
C1571 H1575 0.950 . S
H1572 C1568 0.950 . S
C1573 C1571 1.390 . S
C1573 C1574 1.387 . S
C1573 H1576 0.950 . S
C1574 C1573 1.387 . S
C1574 C1577 1.387 . S
H1575 C1571 0.950 . S
H1576 C1573 0.950 . S
C1577 C1568 1.390 . S
C1577 H1570 0.950 . S
C1577 C1574 1.387 . S
C1578 C1579 1.387 . S
C1578 H1582 0.950 . S
C1578 C1587 1.390 . S
C1579 C1578 1.387 . S
C1579 C1581 1.387 . S
H1580 C1587 0.950 . S
C1581 C1579 1.387 . S
C1581 C1583 1.390 . S
C1581 H1585 0.950 . S
H1582 C1578 0.950 . S
C1583 C1581 1.390 . S
C1583 C1584 1.387 . S
C1583 H1586 0.950 . S
C1584 C1583 1.387 . S
C1584 C1587 1.387 . S
H1585 C1581 0.950 . S
H1586 C1583 0.950 . S
C1587 C1578 1.390 . S
C1587 H1580 0.950 . S
C1587 C1584 1.387 . S
C1588 C1589 1.387 . S
C1588 H1592 0.950 . S
C1588 C1597 1.390 . S
C1589 C1588 1.387 . S
C1589 C1591 1.387 . S
H1590 C1597 0.950 . S
C1591 C1589 1.387 . S
C1591 C1593 1.390 . S
C1591 H1595 0.950 . S
H1592 C1588 0.950 . S
C1593 C1591 1.390 . S
C1593 C1594 1.387 . S
C1593 H1596 0.950 . S
C1594 C1593 1.387 . S
C1594 C1597 1.387 . S
H1595 C1591 0.950 . S
H1596 C1593 0.950 . S
C1597 C1588 1.390 . S
C1597 H1590 0.950 . S
C1597 C1594 1.387 . S
C1598 C1599 1.387 . S
C1598 H1602 0.950 . S
C1598 C1607 1.390 . S
C1599 C1598 1.387 . S
C1599 C1601 1.387 . S
H1600 C1607 0.950 . S
C1601 C1599 1.387 . S
C1601 C1603 1.390 . S
C1601 H1605 0.950 . S
H1602 C1598 0.950 . S
C1603 C1601 1.390 . S
C1603 C1604 1.387 . S
C1603 H1606 0.950 . S
C1604 C1603 1.387 . S
C1604 C1607 1.387 . S
H1605 C1601 0.950 . S
H1606 C1603 0.950 . S
C1607 C1598 1.390 . S
C1607 H1600 0.950 . S
C1607 C1604 1.387 . S
C1608 C1609 1.387 . S
C1608 H1612 0.950 . S
C1608 C1617 1.390 . S
C1609 C1608 1.387 . S
C1609 C1611 1.387 . S
H1610 C1617 0.950 . S
C1611 C1609 1.387 . S
C1611 C1613 1.390 . S
C1611 H1615 0.950 . S
H1612 C1608 0.950 . S
C1613 C1611 1.390 . S
C1613 C1614 1.387 . S
C1613 H1616 0.950 . S
C1614 C1613 1.387 . S
C1614 C1617 1.387 . S
H1615 C1611 0.950 . S
H1616 C1613 0.950 . S
C1617 C1608 1.390 . S
C1617 H1610 0.950 . S
C1617 C1614 1.387 . S
C1618 C1619 1.387 . S
C1618 H1622 0.950 . S
C1618 C1627 1.390 . S
C1619 C1618 1.387 . S
C1619 C1621 1.387 . S
H1620 C1627 0.950 . S
C1621 C1619 1.387 . S
C1621 C1623 1.390 . S
C1621 H1625 0.950 . S
H1622 C1618 0.950 . S
C1623 C1621 1.390 . S
C1623 C1624 1.387 . S
C1623 H1626 0.950 . S
C1624 C1623 1.387 . S
C1624 C1627 1.387 . S
H1625 C1621 0.950 . S
H1626 C1623 0.950 . S
C1627 C1618 1.390 . S
C1627 H1620 0.950 . S
C1627 C1624 1.387 . S
C1628 C1629 1.387 . S
C1628 H1632 0.948 . S
C1628 C1637 1.390 . S
C1629 C1628 1.387 . S
C1629 C1631 1.387 . S
H1630 C1637 0.950 1_545 S
C1631 C1629 1.387 . S
C1631 C1633 1.390 . S
C1631 H1635 0.950 . S
H1632 C1628 0.948 . S
C1633 C1631 1.390 . S
C1633 C1634 1.387 . S
C1633 H1636 0.950 . S
C1634 C1633 1.387 . S
C1634 C1637 1.387 . S
H1635 C1631 0.950 . S
H1636 C1633 0.950 . S
C1637 C1628 1.390 . S
C1637 H1630 0.950 1_565 S
C1637 C1634 1.387 . S
C1638 C1639 1.387 . S
C1638 H1642 0.950 . S
C1638 C1647 1.390 . S
C1639 C1638 1.387 . S
C1639 C1641 1.387 . S
H1640 C1647 0.950 . S
C1641 C1639 1.387 . S
C1641 C1643 1.390 . S
C1641 H1645 0.950 . S
H1642 C1638 0.950 . S
C1643 C1641 1.390 . S
C1643 C1644 1.387 . S
C1643 H1646 0.950 . S
C1644 C1643 1.387 . S
C1644 C1647 1.387 . S
H1645 C1641 0.950 . S
H1646 C1643 0.950 . S
C1647 C1638 1.390 . S
C1647 H1640 0.950 . S
C1647 C1644 1.387 . S
C1648 C1649 1.387 . S
C1648 H1652 0.950 . S
C1648 C1657 1.390 . S
C1649 C1648 1.387 . S
C1649 C1651 1.387 . S
H1650 C1657 0.950 1_545 S
C1651 C1649 1.387 . S
C1651 C1653 1.390 . S
C1651 H1655 0.950 . S
H1652 C1648 0.950 . S
C1653 C1651 1.390 . S
C1653 C1654 1.387 . S
C1653 H1656 0.950 . S
C1654 C1653 1.387 . S
C1654 C1657 1.387 . S
H1655 C1651 0.950 . S
H1656 C1653 0.950 . S
C1657 C1648 1.390 . S
C1657 H1650 0.950 1_565 S
C1657 C1654 1.387 . S
C1658 C1659 1.387 . S
C1658 H1662 0.950 . S
C1658 C1667 1.390 . S
C1659 C1658 1.387 . S
C1659 C1661 1.387 . S
H1660 C1667 0.950 . S
C1661 C1659 1.387 . S
C1661 C1663 1.390 . S
C1661 H1665 0.950 . S
H1662 C1658 0.950 . S
C1663 C1661 1.390 . S
C1663 C1664 1.387 . S
C1663 H1666 0.950 . S
C1664 C1663 1.387 . S
C1664 C1667 1.387 . S
H1665 C1661 0.950 . S
H1666 C1663 0.950 . S
C1667 C1658 1.390 . S
C1667 H1660 0.950 . S
C1667 C1664 1.387 . S
C714 C365 1.277 . S
C709 C213 1.133 . S
C724 C368 1.482 . S
C719 C256 1.489 . S
C734 C356 1.179 . S
C729 C234 1.024 . S
C739 C196 1.640 . S
C744 C369 1.614 . S
C754 C400 1.260 . S
C749 C109 1.108 . S
C759 C129 1.717 . S
C764 C427 1.659 . S
C774 C399 1.164 . S
C769 C151 1.009 . S
C779 C100 1.566 . S
C784 C418 1.529 . S
C789 C313 1.102 . S
C794 C431 1.251 . S
C799 C322 1.615 . S
C804 C462 1.566 1_545 S
C814 C520 1.267 . S
C809 C187 1.112 . S
C824 C542 1.537 . S
C819 C277 1.573 . S
C834 C430 1.140 . S
C829 C67 0.986 . S
C844 C461 1.531 . S
C839 C20 1.539 . S
C849 C28 0.994 . S
C854 C511 1.156 . S
C859 C62 1.582 . S
C864 C551 1.568 . S
C869 C40 1.120 . S
C874 C489 1.274 . S
C884 C555 1.290 . S
C879 C184 1.144 . S
C889 C293 1.601 . S
C894 C586 1.599 . S
C904 C635 1.159 . S
C899 C310 1.015 . S
C909 C146 1.664 . S
C914 C493 1.612 1_655 S
C924 C554 1.150 . S
C919 C230 0.998 . S
C934 C585 1.519 . S
C929 C255 1.533 . S
C944 C666 1.544 . S
C939 C205 1.606 . S
C949 C66 1.134 . S
C954 C396 1.277 . S
C959 C4 1.489 . S
C964 C337 1.483 . S
C974 C387 1.183 . S
C969 C37 1.031 . S
C979 C46 1.639 . S
C984 C338 1.615 1_554 S
C989 C301 1.109 . S
C994 C679 1.261 . S
C999 C331 1.719 . S
C1004 C706 1.656 1_556 S
C1014 C678 1.160 . S
C1009 C175 1.001 . S
C1019 C276 1.566 . S
C1024 C697 1.530 . S
C1029 C125 1.103 . S
C1034 C613 1.252 . S
C1044 C617 1.568 . S
C1039 C130 1.612 . S
C1054 C648 1.267 . S
C1049 C167 1.113 . S
C1064 C573 1.536 . S
C1059 C91 1.575 . S
C1074 C604 1.140 . S
C1069 C214 0.987 . S
C1079 C272 1.539 . S
C1084 C616 1.533 . S
C1089 C235 0.998 . S
C1094 C647 1.156 . S
C1104 C582 1.568 1_565 S
C1099 C208 1.582 . S
C1109 C251 1.118 . S
C1114 C644 1.275 . S
C1124 C524 1.290 . S
C1119 C150 1.144 . S
C1129 C103 1.601 . S
C1134 C458 1.598 1_455 S
C1139 C108 1.016 . S
C1144 C480 1.161 . S
C1149 C334 1.665 . S
C1154 C675 1.609 . S
C1159 C83 0.998 . S
C1164 C523 1.149 . S
C1169 C3 1.533 . S
C1174 C449 1.520 . S
C1184 C492 1.544 . S
C1179 C45 1.606 . S
C1194 C336 1.562 . S
C1189 C318 1.489 . S
C1204 C386 1.826 . S
C1199 C188 1.648 . S
C1214 C346 1.397 . S
C1209 C289 1.442 . S
C1224 C397 1.707 . S
C1219 C314 1.560 . S
C1234 C417 1.479 . S
C1229 C209 1.407 . S
C1239 C226 1.598 . S
C1244 C408 1.720 . S
C1249 C271 1.362 . S
C1254 C428 1.321 . S
C1259 C247 1.685 . S
C1264 C398 1.836 . S
C1274 C448 1.517 . S
C1269 C58 1.450 . S
C1284 C490 1.684 . S
C1279 C70 1.536 . S
C1289 C16 1.445 . S
C1294 C491 1.504 . S
C1304 C522 1.797 . S
C1299 C25 1.631 . S
C1309 C133 1.411 . S
C1314 C459 1.385 . S
C1324 C479 1.860 . S
C1319 C163 1.716 . S
C1334 C501 1.375 . S
C1329 C88 1.403 . S
C1339 C121 1.629 . S
C1344 C532 1.748 . S
C1354 C460 1.437 . S
C1349 C104 1.366 . S
C1359 C7 1.391 . S
C1364 C572 1.458 . S
C1369 C41 1.554 . S
C1374 C614 1.694 . S
C1379 C49 1.457 . S
C1384 C625 1.420 . S
C1394 C521 1.724 . S
C1389 C229 1.592 . S
C1404 C583 1.408 . S
C1399 C335 1.439 . S
C1409 C172 1.621 . S
C1414 C603 1.808 . S
C1424 C646 1.835 . S
C1419 C298 1.662 . S
C1434 C367 1.562 . S
C1429 C142 1.492 . S
C1439 C166 1.648 . S
C1444 C355 1.825 . S
C1449 C87 1.442 . S
C1454 C377 1.397 . S
C1459 C124 1.560 . S
C1464 C366 1.707 . S
C1474 C696 1.479 . S
C1469 C61 1.409 . S
C1484 C687 1.720 . S
C1479 C79 1.600 . S
C1489 C19 1.359 . S
C1494 C707 1.325 . S
C1499 C24 1.686 . S
C1504 C677 1.837 . S
C1509 C192 1.452 . S
C1514 C584 1.517 . S
C1524 C645 1.685 . S
C1519 C217 1.536 . S
C1534 C665 1.505 . S
C1529 C268 1.445 . S
C1539 C238 1.630 . S
C1544 C553 1.799 . S
C1554 C594 1.385 . S
C1549 C319 1.411 . S
C1559 C171 1.710 . S
C1564 C634 1.861 . S
C1574 C676 1.371 . S
C1569 C280 1.403 . S
C1579 C297 1.612 . S
C1584 C563 1.747 . S
C1589 C292 1.370 . S
C1594 C615 1.438 . S
C1599 C259 1.389 . S
C1604 C541 1.457 . S
C1614 C439 1.694 . S
C1609 C250 1.554 . S
C1619 C193 1.456 . S
C1624 C470 1.428 . S
C1629 C82 1.593 . S
C1634 C656 1.725 . S
C1639 C145 1.438 . S
C1644 C552 1.409 . S
C1654 C429 1.807 . S
C1649 C154 1.620 . S
C1659 C112 1.665 . S
C1664 C510 1.836 . S
