# Generated by pormake.
# Topology nia, (6,6)-cn, num edge types: 1
# Building blocks:
#     Node 0, Type 0, BuildingBlock: BETDIP_clean_sbu_0, # of connection points: 6
#     Node 1, Type 0, BuildingBlock: BETDIP_clean_sbu_0, # of connection points: 6
#     Node 2, Type 1, BuildingBlock: MIDCAF_clean_sbu_0, # of connection points: 6
#     Node 3, Type 1, BuildingBlock: MIDCAF_clean_sbu_0, # of connection points: 6
#     Edge 4, Type (0, 1), BuildingBlock: TEMPAE_clean_linker_10, # of connection points: 2
#     Edge 5, Type (0, 1), BuildingBlock: TEMPAE_clean_linker_10, # of connection points: 2
#     Edge 6, Type (0, 1), BuildingBlock: TEMPAE_clean_linker_10, # of connection points: 2
#     Edge 7, Type (0, 1), BuildingBlock: TEMPAE_clean_linker_10, # of connection points: 2
#     Edge 8, Type (0, 1), BuildingBlock: TEMPAE_clean_linker_10, # of connection points: 2
#     Edge 9, Type (0, 1), BuildingBlock: TEMPAE_clean_linker_10, # of connection points: 2
#     Edge 10, Type (0, 1), BuildingBlock: TEMPAE_clean_linker_10, # of connection points: 2
#     Edge 11, Type (0, 1), BuildingBlock: TEMPAE_clean_linker_10, # of connection points: 2
#     Edge 12, Type (0, 1), BuildingBlock: TEMPAE_clean_linker_10, # of connection points: 2
#     Edge 13, Type (0, 1), BuildingBlock: TEMPAE_clean_linker_10, # of connection points: 2
#     Edge 14, Type (0, 1), BuildingBlock: TEMPAE_clean_linker_10, # of connection points: 2
#     Edge 15, Type (0, 1), BuildingBlock: TEMPAE_clean_linker_10, # of connection points: 2
# Relax obj value: 0.306
# Max RMSD: 0.270
# Mean RMSD: 0.242
data_MOF--net-nia--node1-BETDIP_clean_sbu_0--node2-MIDCAF_clean_sbu_0--edge1-TEMPAE_clean_linker_10
_symmetry_space_group_name_H-M    P1
_symmetry_Int_Tables_number       1
_symmetry_cell_setting            triclinic
loop_
_symmetry_equiv_pos_as_xyz
'x, y, z'
_cell_length_a     28.295001
_cell_length_b     25.402374
_cell_length_c     34.554036
_cell_angle_alpha  102.11882
_cell_angle_beta   71.110984
_cell_angle_gamma 128.87231
loop_
_atom_site_label
_atom_site_type_symbol
_atom_site_fract_x
_atom_site_fract_y
_atom_site_fract_z
_atom_type_partial_charge
Tb0 Tb 0.99914 0.06889 1.00589 0.0
Tb1 Tb 0.03816 0.98612 0.02232 0.0
C2 C 0.9409 0.10982 0.99957 0.0
C3 C 0.92901 0.13167 0.96998 0.0
C4 C 0.911 0.17395 0.98414 0.0
C5 C 0.89753 0.19498 0.95783 0.0
C6 C 0.90088 0.1734 0.91674 0.0
C7 C 0.91985 0.13157 0.90228 0.0
C8 C 0.93383 0.11076 0.92878 0.0
C9 C 0.11747 0.1156 0.97211 0.0
C10 C 0.05425 0.10585 0.08051 0.0
C11 C 0.10235 0.9494 0.02212 0.0
C12 C 0.11831 0.93265 0.05181 0.0
C13 C 0.14071 0.89436 0.03855 0.0
C14 C 0.15795 0.87895 0.06553 0.0
C15 C 0.15343 0.90184 0.10641 0.0
C16 C 0.12984 0.93939 0.11987 0.0
C17 C 0.11244 0.95475 0.09273 0.0
C18 C 0.92628 0.94759 0.07185 0.0
C19 C 0.97601 0.94298 0.94796 0.0
O20 O 0.99765 0.15008 1.005 0.0
O21 O 0.91678 0.04579 0.99935 0.0
O22 O 0.06994 0.05461 0.97672 0.0
O23 O 0.09873 0.153 0.98315 0.0
O24 O 0.01066 0.09847 0.06814 0.0
O25 O 0.07941 0.07456 0.06206 0.0
O26 O 0.04387 0.90701 0.01959 0.0
O27 O 0.12526 0.01298 0.02105 0.0
O28 O 0.96231 0.99096 0.04419 0.0
O29 O 0.95484 0.92366 0.07337 0.0
O30 O 1.0035 0.93411 0.96795 0.0
O31 O 0.96972 0.99213 0.95725 0.0
H32 H 0.90681 0.19036 0.01586 0.0
H33 H 0.88424 0.22816 0.96978 0.0
H34 H 0.92253 0.11385 0.87084 0.0
H35 H 0.94755 0.07788 0.91732 0.0
H36 H 0.14516 0.87653 1.00716 0.0
H37 H 0.17457 0.84868 0.05434 0.0
H38 H 0.12596 0.95793 0.1511 0.0
H39 H 0.095 0.98429 0.10353 0.0
Tb40 Tb 0.06875 0.07136 0.55068 0.0
Tb41 Tb 0.99754 0.01724 0.4814 0.0
C42 C 0.10912 0.0819 0.60844 0.0
C43 C 0.12489 0.04706 0.62478 0.0
C44 C 0.09437 0.02293 0.66499 0.0
C45 C 0.11776 1.0039 0.68446 0.0
C46 C 0.17307 0.01041 0.66429 0.0
C47 C 0.19897 0.02697 0.62246 0.0
C48 C 0.17503 0.04502 0.60286 0.0
C49 C 0.11131 0.15944 0.49583 0.0
C50 C 0.09665 0.99322 0.47271 0.0
C51 C 0.97279 0.01672 0.41809 0.0
C52 C 0.91862 0.99821 0.40713 0.0
C53 C 0.92334 1.00533 0.36669 0.0
C54 C 0.87184 0.9888 0.35614 0.0
C55 C 0.81546 0.96545 0.38612 0.0
C56 C 0.81132 0.95893 0.42673 0.0
C57 C 0.86265 0.97527 0.43718 0.0
C58 C 0.93867 0.92507 0.5394 0.0
C59 C 0.9647 0.09003 0.56087 0.0
O60 O 0.04942 0.05005 0.61159 0.0
O61 O 0.14583 0.11398 0.57363 0.0
O62 O 0.08845 0.09805 0.48995 0.0
O63 O 0.11574 0.17529 0.53339 0.0
O64 O 0.09645 1.00955 0.51193 0.0
O65 O 0.06864 1.00225 0.4536 0.0
O66 O 0.99542 0.06869 0.44314 0.0
O67 O 0.96833 0.96646 0.42821 0.0
O68 O 0.98706 0.98496 0.53643 0.0
O69 O 0.9178 0.9147 0.50801 0.0
O70 O 0.96112 0.06889 0.52265 0.0
O71 O 0.99844 0.08845 0.57918 0.0
H72 H 0.05483 0.02289 0.68226 0.0
H73 H 0.09565 0.9896 0.71633 0.0
H74 H 0.24159 0.03271 0.60576 0.0
H75 H 0.19882 0.06215 0.57152 0.0
H76 H 0.96676 0.02362 0.34336 0.0
H77 H 0.876 0.9943 0.3247 0.0
H78 H 0.76795 0.93981 0.45025 0.0
H79 H 0.85873 0.96984 0.46859 0.0
Zn80 Zn 0.36405 0.68113 0.20519 0.0
Zn81 Zn 0.25747 0.64185 0.39059 0.0
Zn82 Zn 0.33341 0.66888 0.2829 0.0
C83 C 0.38144 0.71684 0.3682 0.0
C84 C 0.24055 0.52517 0.33549 0.0
O85 O 0.29662 0.71466 0.26597 0.0
O86 O 0.33608 0.73224 0.19932 0.0
C87 C 0.4763 0.74134 0.22201 0.0
O88 O 0.36293 0.69844 0.33573 0.0
O89 O 0.34172 0.6976 0.40248 0.0
O90 O 0.22722 0.54962 0.36936 0.0
O91 O 0.27715 0.56118 0.30259 0.0
O92 O 0.45403 0.72444 0.19156 0.0
O93 O 0.43949 0.72721 0.25843 0.0
O94 O 0.28201 0.56366 0.25974 0.0
O95 O 0.30755 0.58371 0.19418 0.0
C96 C 0.27693 0.54218 0.22302 0.0
O97 O 0.28702 0.71918 0.30932 0.0
O98 O 0.23403 0.69218 0.37516 0.0
C99 C 0.30317 0.73643 0.2327 0.0
C100 C 0.25171 0.72279 0.34304 0.0
Zn101 Zn 0.69093 0.40379 0.82444 0.0
Zn102 Zn 0.70929 0.37269 0.66924 0.0
Zn103 Zn 0.70105 0.39215 0.74834 0.0
C104 C 0.76962 0.51123 0.68138 0.0
C105 C 0.58158 0.29358 0.71052 0.0
O106 O 0.75076 0.35929 0.76296 0.0
O107 O 0.75088 0.39015 0.8277 0.0
C108 C 0.74622 0.53124 0.79649 0.0
O109 O 0.75258 0.49366 0.71886 0.0
O110 O 0.75678 0.467 0.65332 0.0
O111 O 0.61717 0.31018 0.67481 0.0
O112 O 0.60462 0.31946 0.74194 0.0
O113 O 0.71941 0.49765 0.82883 0.0
O114 O 0.74839 0.50195 0.76133 0.0
O115 O 0.59808 0.33313 0.78448 0.0
O116 O 0.60053 0.33413 0.84783 0.0
C117 C 0.56908 0.315 0.82232 0.0
O118 O 0.7499 0.34385 0.72168 0.0
O119 O 0.755 0.33321 0.65543 0.0
C120 C 0.76756 0.3659 0.7953 0.0
C121 C 0.76625 0.3251 0.68526 0.0
C122 C 0.22797 0.8898 0.1199 0.0
C123 C 0.1737 0.88634 0.13437 0.0
C124 C 0.24476 0.86884 0.14401 0.0
C125 C 0.20692 0.8446 0.18399 0.0
C126 C 0.15394 0.84442 0.1997 0.0
C127 C 0.1378 0.86505 0.17464 0.0
C128 C 0.30144 0.86953 0.12583 0.0
C129 C 0.11198 0.81934 0.24204 0.0
C130 C 0.21795 0.71804 0.21273 0.0
C131 C 0.26768 0.75981 0.23149 0.0
C132 C 0.19364 0.74386 0.20034 0.0
C133 C 0.22005 0.81324 0.20683 0.0
C134 C 0.26621 0.85398 0.22943 0.0
C135 C 0.29037 0.82694 0.24096 0.0
C136 C 0.14356 0.69829 0.17711 0.0
C137 C 0.29365 0.92735 0.23855 0.0
H138 H 0.25684 0.90773 0.08919 0.0
H139 H 0.09565 0.86195 0.18614 0.0
H140 H 0.33432 0.89877 0.14585 0.0
H141 H 0.28654 0.81708 0.12373 0.0
H142 H 0.32703 0.89189 0.09479 0.0
H143 H 0.09611 0.85096 0.25642 0.0
H144 H 0.06954 0.76693 0.23973 0.0
H145 H 0.13532 0.81922 0.26229 0.0
H146 H 0.20091 0.66614 0.20528 0.0
H147 H 0.32959 0.85939 0.25491 0.0
H148 H 0.16345 0.71473 0.14479 0.0
H149 H 0.10441 0.70201 0.19034 0.0
H150 H 0.12443 0.64452 0.17757 0.0
H151 H 0.33011 0.95798 0.21124 0.0
H152 H 0.31585 0.94651 0.26452 0.0
H153 H 0.25707 0.93492 0.24582 0.0
C154 C 0.21973 0.05661 0.72411 0.0
C155 C 0.21225 0.01747 0.68805 0.0
C156 C 0.27345 0.0887 0.73797 0.0
C157 C 0.3206 0.08158 0.71522 0.0
C158 C 0.3078 0.03238 0.68359 0.0
C159 C 0.25349 1.00069 0.67025 0.0
C160 C 0.28369 0.13837 0.77291 0.0
C161 C 0.35524 0.02003 0.66033 0.0
C162 C 0.48551 0.24437 0.68946 0.0
C163 C 0.51362 0.24258 0.71526 0.0
C164 C 0.42241 0.19282 0.69007 0.0
C165 C 0.38682 0.13708 0.71653 0.0
C166 C 0.41483 0.1356 0.74325 0.0
C167 C 0.47807 0.18878 0.74243 0.0
C168 C 0.39422 0.19756 0.66171 0.0
C169 C 0.37974 0.07699 0.77132 0.0
H170 H 0.18795 0.06942 0.7388 0.0
H171 H 0.24668 0.96813 0.6434 0.0
H172 H 0.31531 0.1449 0.78887 0.0
H173 H 0.3054 0.18801 0.76063 0.0
H174 H 0.23852 0.12201 0.79535 0.0
H175 H 0.33354 0.97133 0.64315 0.0
H176 H 0.39275 0.06146 0.63813 0.0
H177 H 0.37746 0.0198 0.68146 0.0
H178 H 0.51326 0.2861 0.66845 0.0
H179 H 0.50036 0.18683 0.76182 0.0
H180 H 0.35209 0.19439 0.6795 0.0
H181 H 0.3791 0.1546 0.63964 0.0
H182 H 0.42776 0.24539 0.64417 0.0
H183 H 0.32841 0.0506 0.78004 0.0
H184 H 0.39685 0.09407 0.79951 0.0
H185 H 0.3884 0.03998 0.75537 0.0
C186 C 0.14305 0.19349 0.11197 0.0
C187 C 0.07919 0.1548 0.11358 0.0
C188 C 0.17042 0.2491 0.13831 0.0
C189 C 0.13251 0.26493 0.16765 0.0
C190 C 0.0668 0.22121 0.17241 0.0
C191 C 0.04099 0.16738 0.14467 0.0
C192 C 0.24076 0.29479 0.13187 0.0
C193 C 0.02446 0.2343 0.20482 0.0
C194 C 0.22087 0.41888 0.23426 0.0
C195 C 0.23431 0.46967 0.21289 0.0
C196 C 0.184 0.35073 0.22182 0.0
C197 C 0.1629 0.33398 0.18596 0.0
C198 C 0.17562 0.38522 0.16474 0.0
C199 C 0.21022 0.45198 0.17883 0.0
C200 C 0.17012 0.29772 0.24621 0.0
C201 C 0.15527 0.37029 0.12589 0.0
H202 H 0.17262 0.18357 0.08806 0.0
H203 H 0.99127 0.13644 0.14652 0.0
H204 H 0.26121 0.34348 0.11889 0.0
H205 H 0.25313 0.30629 0.16142 0.0
H206 H 0.26275 0.27207 0.11069 0.0
H207 H 0.97462 0.18872 0.21047 0.0
H208 H 0.03894 0.25053 0.23396 0.0
H209 H 0.028 0.27566 0.19483 0.0
H210 H 0.2415 0.43255 0.25936 0.0
H211 H 0.22007 0.49099 0.16225 0.0
H212 H 0.20637 0.28951 0.23299 0.0
H213 H 0.12365 0.24875 0.24555 0.0
H214 H 0.17121 0.31411 0.27856 0.0
H215 H 0.17581 0.34788 0.10252 0.0
H216 H 0.16983 0.41628 0.11285 0.0
H217 H 0.10353 0.33294 0.13191 0.0
C218 C 0.93708 0.14666 0.62314 0.0
C219 C 0.93172 0.11987 0.58353 0.0
C220 C 0.90972 0.17902 0.6438 0.0
C221 C 0.8763 0.18523 0.62447 0.0
C222 C 0.86952 0.15702 0.58486 0.0
C223 C 0.89721 0.12475 0.56493 0.0
C224 C 0.91821 0.20827 0.68587 0.0
C225 C 0.83419 0.16225 0.56306 0.0
C226 C 0.76187 0.22393 0.68497 0.0
C227 C 0.79737 0.29276 0.67699 0.0
C228 C 0.78762 0.1887 0.66932 0.0
C229 C 0.8502 0.22315 0.6449 0.0
C230 C 0.88678 0.29335 0.63805 0.0
C231 C 0.85972 0.32713 0.6539 0.0
C232 C 0.74701 0.11396 0.67726 0.0
C233 C 0.95358 0.33212 0.61227 0.0
H234 H 0.96364 0.14347 0.63792 0.0
H235 H 0.89259 0.10433 0.53438 0.0
H236 H 0.95152 0.26424 0.68411 0.0
H237 H 0.87309 0.19474 0.70684 0.0
H238 H 0.93681 0.19047 0.69916 0.0
H239 H 0.83092 0.1353 0.53309 0.0
H240 H 0.78602 0.14095 0.58228 0.0
H241 H 0.85799 0.2162 0.55782 0.0
H242 H 0.71307 0.19697 0.70185 0.0
H243 H 0.88661 0.38003 0.64695 0.0
H244 H 0.77103 0.10273 0.69009 0.0
H245 H 0.73925 0.08536 0.64804 0.0
H246 H 0.70065 0.09539 0.69873 0.0
H247 H 0.98124 0.32461 0.62383 0.0
H248 H 0.97696 0.38718 0.612 0.0
H249 H 0.95426 0.31269 0.58033 0.0
C250 C 0.82445 0.93099 0.08594 0.0
C251 C 0.8647 0.92799 0.09902 0.0
C252 C 0.76313 0.90474 0.11021 0.0
C253 C 0.74195 0.8762 0.14899 0.0
C254 C 0.78402 0.87649 0.16295 0.0
C255 C 0.84428 0.90145 0.13769 0.0
C256 C 0.72006 0.90488 0.09356 0.0
C257 C 0.76553 0.85031 0.20462 0.0
C258 C 0.58869 0.84219 0.21963 0.0
C259 C 0.5444 0.77309 0.21263 0.0
C260 C 0.65347 0.8762 0.20047 0.0
C261 C 0.67437 0.84056 0.17295 0.0
C262 C 0.62973 0.77034 0.16675 0.0
C263 C 0.56582 0.73778 0.18661 0.0
C264 C 0.69936 0.95062 0.20881 0.0
C265 C 0.64903 0.73005 0.13742 0.0
H266 H 0.83976 0.95085 0.05593 0.0
H267 H 0.87555 0.89982 0.14817 0.0
H268 H 0.67999 0.85202 0.08884 0.0
H269 H 0.70042 0.92902 0.11587 0.0
H270 H 0.74435 0.93199 0.06403 0.0
H271 H 0.80123 0.84821 0.20954 0.0
H272 H 0.75988 0.88439 0.22815 0.0
H273 H 0.71997 0.79904 0.20914 0.0
H274 H 0.57225 0.8704 0.23803 0.0
H275 H 0.5317 0.68484 0.18002 0.0
H276 H 0.73096 0.97874 0.17985 0.0
H277 H 0.72921 0.95765 0.22674 0.0
H278 H 0.67537 0.97323 0.22625 0.0
H279 H 0.67009 0.75114 0.10619 0.0
H280 H 0.60887 0.67576 0.13623 0.0
H281 H 0.68527 0.73388 0.14652 0.0
C282 C 0.85505 0.81124 0.57146 0.0
C283 C 0.91513 0.87281 0.56825 0.0
C284 C 0.83342 0.7584 0.59563 0.0
C285 C 0.87302 0.76678 0.61699 0.0
C286 C 0.93334 0.8297 0.61465 0.0
C287 C 0.95354 0.88189 0.59038 0.0
C288 C 0.76909 0.69232 0.59671 0.0
C289 C 0.97727 0.84156 0.63692 0.0
C290 C 0.79226 0.62643 0.69346 0.0
C291 C 0.80375 0.58208 0.66905 0.0
C292 C 0.81768 0.68902 0.67797 0.0
C293 C 0.85408 0.70679 0.63688 0.0
C294 C 0.86828 0.66359 0.61307 0.0
C295 C 0.84326 0.60235 0.62941 0.0
C296 C 0.80335 0.7347 0.70493 0.0
C297 C 0.90777 0.68054 0.56946 0.0
H298 H 0.82523 0.8038 0.55431 0.0
H299 H 1.0005 0.92868 0.58732 0.0
H300 H 0.77374 0.65224 0.58133 0.0
H301 H 0.74183 0.6765 0.62881 0.0
H302 H 0.74219 0.6956 0.58123 0.0
H303 H 0.96019 0.84721 0.67015 0.0
H304 H 0.97863 0.79799 0.63289 0.0
H305 H 0.02582 0.88787 0.62624 0.0
H306 H 0.76103 0.61089 0.72381 0.0
H307 H 0.853 0.56882 0.61037 0.0
H308 H 0.77043 0.73445 0.69397 0.0
H309 H 0.84681 0.78751 0.70325 0.0
H310 H 0.78192 0.71851 0.73739 0.0
H311 H 0.88319 0.6812 0.55042 0.0
H312 H 0.91753 0.64361 0.55582 0.0
H313 H 0.95313 0.73168 0.56811 0.0
C314 C 0.13241 0.951 0.40648 0.0
C315 C 0.12847 0.96306 0.44862 0.0
C316 C 0.15732 0.9175 0.38334 0.0
C317 C 0.1787 0.89501 0.40268 0.0
C318 C 0.17736 0.90942 0.44483 0.0
C319 C 0.15226 0.94332 0.46733 0.0
C320 C 0.15723 0.90293 0.33871 0.0
C321 C 0.2001 0.88657 0.46655 0.0
C322 C 0.16921 0.73834 0.36438 0.0
C323 C 0.23237 0.76589 0.34684 0.0
C324 C 0.15081 0.78 0.38082 0.0
C325 C 0.19692 0.85107 0.37998 0.0
C326 C 0.26033 0.87926 0.35955 0.0
C327 C 0.27745 0.83614 0.34332 0.0
C328 C 0.08253 0.74774 0.40154 0.0
C329 C 0.31051 0.95478 0.35715 0.0
H330 H 0.11462 0.96631 0.39144 0.0
H331 H 0.14966 0.95257 0.49978 0.0
H332 H 0.19988 0.90776 0.32017 0.0
H333 H 0.11596 0.85019 0.33542 0.0
H334 H 0.15409 0.93714 0.32609 0.0
H335 H 0.20024 0.90598 0.49851 0.0
H336 H 0.16934 0.83049 0.46717 0.0
H337 H 0.24827 0.90383 0.44979 0.0
H338 H 0.1346 0.68392 0.36753 0.0
H339 H 0.3265 0.85738 0.33056 0.0
H340 H 0.06595 0.76924 0.38961 0.0
H341 H 0.07683 0.75878 0.43486 0.0
H342 H 0.05214 0.69201 0.397 0.0
H343 H 0.29568 0.97937 0.3464 0.0
H344 H 0.35592 0.9686 0.33629 0.0
H345 H 0.31776 0.97538 0.38809 0.0
C346 C 0.19326 0.09804 0.92137 0.0
C347 C 0.18225 0.14038 0.949 0.0
C348 C 0.25414 0.12236 0.89756 0.0
C349 C 0.30601 0.19052 0.90226 0.0
C350 C 0.29499 0.23265 0.93134 0.0
C351 C 0.23328 0.20754 0.9536 0.0
C352 C 0.26132 0.07357 0.86795 0.0
C353 C 0.34842 0.3041 0.9396 0.0
C354 C 0.46879 0.23311 0.87162 0.0
C355 C 0.4997 0.27543 0.83783 0.0
C356 C 0.4057 0.20402 0.89198 0.0
C357 C 0.37192 0.21732 0.87844 0.0
C358 C 0.4025 0.25871 0.8435 0.0
C359 C 0.46578 0.28673 0.82346 0.0
C360 C 0.37612 0.16145 0.92925 0.0
C361 C 0.37062 0.27759 0.82831 0.0
H362 H 0.154 0.046 0.91761 0.0
H363 H 0.22503 0.24032 0.97522 0.0
H364 H 0.30942 0.09744 0.84819 0.0
H365 H 0.24833 0.03231 0.88535 0.0
H366 H 0.22822 0.04964 0.84827 0.0
H367 H 0.33332 0.32594 0.96767 0.0
H368 H 0.38705 0.30579 0.94301 0.0
H369 H 0.36744 0.33658 0.91345 0.0
H370 H 0.49477 0.22428 0.883 0.0
H371 H 0.48956 0.3204 0.79788 0.0
H372 H 0.33719 0.10875 0.9232 0.0
H373 H 0.35601 0.18106 0.95565 0.0
H374 H 0.41019 0.16056 0.93786 0.0
H375 H 0.31874 0.24078 0.83746 0.0
H376 H 0.38663 0.28224 0.79448 0.0
H377 H 0.38424 0.32789 0.84101 0.0
C378 C 0.14816 0.27132 0.47679 0.0
C379 C 0.13075 0.20639 0.46492 0.0
C380 C 0.16605 0.31658 0.44825 0.0
C381 C 0.16602 0.29627 0.40673 0.0
C382 C 0.14874 0.23074 0.3945 0.0
C383 C 0.13212 0.18688 0.42367 0.0
C384 C 0.18458 0.38613 0.4627 0.0
C385 C 0.14733 0.20682 0.35076 0.0
C386 C 0.15665 0.40511 0.35431 0.0
C387 C 0.22026 0.45631 0.33804 0.0
C388 C 0.13756 0.34861 0.37327 0.0
C389 C 0.18342 0.34408 0.37678 0.0
C390 C 0.24726 0.39238 0.35681 0.0
C391 C 0.26493 0.44797 0.33752 0.0
C392 C 0.06888 0.29769 0.39321 0.0
C393 C 0.29774 0.38955 0.35964 0.0
H394 H 0.1475 0.28675 0.50857 0.0
H395 H 0.11978 0.13708 0.41421 0.0
H396 H 0.2325 0.42541 0.44492 0.0
H397 H 0.15214 0.39306 0.45743 0.0
H398 H 0.1837 0.39465 0.49572 0.0
H399 H 0.13145 0.15387 0.34637 0.0
H400 H 0.11541 0.21014 0.34121 0.0
H401 H 0.19473 0.24006 0.33019 0.0
H402 H 0.12222 0.41213 0.35528 0.0
H403 H 0.31429 0.48829 0.32575 0.0
H404 H 0.06028 0.30697 0.42674 0.0
H405 H 0.05465 0.24547 0.38797 0.0
H406 H 0.03871 0.30127 0.38156 0.0
H407 H 0.30558 0.40552 0.39081 0.0
H408 H 0.34287 0.42342 0.33715 0.0
H409 H 0.28324 0.33723 0.35455 0.0
C410 C 0.83057 0.19338 0.90509 0.0
C411 C 0.88338 0.19418 0.88989 0.0
C412 C 0.8165 0.2194 0.88235 0.0
C413 C 0.8558 0.24642 0.84307 0.0
C414 C 0.90757 0.2445 0.82667 0.0
C415 C 0.92079 0.21843 0.85032 0.0
C416 C 0.7611 0.22082 0.9013 0.0
C417 C 0.95143 0.27319 0.78526 0.0
C418 C 0.77917 0.27404 0.7856 0.0
C419 C 0.80168 0.3407 0.7971 0.0
C420 C 0.80036 0.24385 0.79742 0.0
C421 C 0.84469 0.28134 0.82141 0.0
C422 C 0.87135 0.35045 0.82998 0.0
C423 C 0.84914 0.37912 0.81798 0.0
C424 C 0.77147 0.17035 0.78725 0.0
C425 C 0.91958 0.39263 0.85475 0.0
H426 H 0.80073 0.1735 0.93534 0.0
H427 H 0.96191 0.2196 0.8384 0.0
H428 H 0.77779 0.27403 0.90572 0.0
H429 H 0.72938 0.19599 0.88061 0.0
H430 H 0.73367 0.19517 0.93137 0.0
H431 H 0.96901 0.24337 0.77006 0.0
H432 H 0.9289 0.27454 0.76493 0.0
H433 H 0.99262 0.32566 0.78928 0.0
H434 H 0.74127 0.2438 0.77051 0.0
H435 H 0.86641 0.43072 0.82696 0.0
H436 H 0.73812 0.13959 0.81512 0.0
H437 H 0.80812 0.16253 0.7767 0.0
H438 H 0.74552 0.15148 0.76342 0.0
H439 H 0.89752 0.37391 0.88665 0.0
H440 H 0.93991 0.44696 0.8555 0.0
H441 H 0.95815 0.38791 0.84195 0.0
C442 C 0.74024 0.89927 0.34217 0.0
C443 C 0.75944 0.9438 0.37518 0.0
C444 C 0.68089 0.86766 0.33652 0.0
C445 C 0.641 0.88207 0.36422 0.0
C446 C 0.6621 0.93093 0.39558 0.0
C447 C 0.7214 0.96145 0.40064 0.0
C448 C 0.6592 0.81563 0.30274 0.0
C449 C 0.62012 0.94657 0.42601 0.0
C450 C 0.49021 0.81609 0.34189 0.0
C451 C 0.4477 0.75807 0.36594 0.0
C452 C 0.55376 0.85797 0.34139 0.0
C453 C 0.57449 0.83923 0.36414 0.0
C454 C 0.53154 0.77944 0.38757 0.0
C455 C 0.46811 0.73992 0.38869 0.0
C456 C 0.59841 0.92287 0.31761 0.0
C457 C 0.55258 0.75741 0.41153 0.0
H458 H 0.7698 0.88574 0.32246 0.0
H459 H 0.73689 0.99678 0.42575 0.0
H460 H 0.61312 0.76755 0.31495 0.0
H461 H 0.65292 0.83432 0.27994 0.0
H462 H 0.69298 0.80436 0.28715 0.0
H463 H 0.6467 0.99287 0.44431 0.0
H464 H 0.59559 0.95316 0.41035 0.0
H465 H 0.58367 0.90352 0.4473 0.0
H466 H 0.47337 0.82974 0.3247 0.0
H467 H 0.43446 0.6944 0.40695 0.0
H468 H 0.63685 0.92329 0.29516 0.0
H469 H 0.62032 0.96658 0.33854 0.0
H470 H 0.57475 0.9301 0.30145 0.0
H471 H 0.58799 0.7512 0.39068 0.0
H472 H 0.51304 0.70893 0.42767 0.0
H473 H 0.57521 0.79682 0.43446 0.0
C474 C 0.93127 0.90734 0.88677 0.0
C475 C 0.95167 0.89552 0.91375 0.0
C476 C 0.90348 0.85915 0.85663 0.0
C477 C 0.8943 0.79707 0.85429 0.0
C478 C 0.91796 0.78673 0.87999 0.0
C479 C 0.94666 0.83613 0.90904 0.0
C480 C 0.88148 0.87363 0.82875 0.0
C481 C 0.90933 0.72138 0.87878 0.0
C482 C 0.75124 0.62716 0.83536 0.0
C483 C 0.77791 0.6047 0.80133 0.0
C484 C 0.78738 0.69323 0.85039 0.0
C485 C 0.85172 0.73831 0.83048 0.0
C486 C 0.87632 0.7189 0.79256 0.0
C487 C 0.83925 0.65158 0.77861 0.0
C488 C 0.7585 0.71162 0.8905 0.0
C489 C 0.94341 0.76694 0.76885 0.0
H490 H 0.93591 0.95362 0.88958 0.0
H491 H 0.96268 0.82655 0.92937 0.0
H492 H 0.8844 0.84923 0.7983 0.0
H493 H 0.83182 0.85352 0.84254 0.0
H494 H 0.9095 0.9289 0.82456 0.0
H495 H 0.93299 0.72262 0.89947 0.0
H496 H 0.85857 0.67884 0.88799 0.0
H497 H 0.92828 0.71067 0.84724 0.0
H498 H 0.70334 0.5911 0.85253 0.0
H499 H 0.85992 0.63456 0.75203 0.0
H500 H 0.77058 0.76195 0.88866 0.0
H501 H 0.77753 0.71431 0.91496 0.0
H502 H 0.7066 0.674 0.89953 0.0
H503 H 0.9591 0.81978 0.77207 0.0
H504 H 0.9495 0.75293 0.73587 0.0
H505 H 0.97413 0.76485 0.78086 0.0
loop_
_geom_bond_atom_site_label_1
_geom_bond_atom_site_label_2
_geom_bond_distance
_geom_bond_site_symmetry_2
_ccdc_geom_bond_type
Tb0 C2 2.809 . S
Tb0 O20 2.484 . S
Tb0 O21 2.440 1_655 S
Tb0 O22 2.658 1_655 S
Tb0 O23 2.409 1_655 S
Tb0 O24 2.378 1_656 S
Tb0 O28 2.325 1_546 S
Tb0 O31 2.341 1_545 S
Tb1 C11 2.809 . S
Tb1 O22 2.325 1_564 S
Tb1 O25 2.341 1_565 S
Tb1 O26 2.484 . S
Tb1 O27 2.440 . S
Tb1 O28 2.658 1_455 S
Tb1 O29 2.409 1_455 S
Tb1 O30 2.378 1_455 S
C2 Tb0 2.809 . S
C2 C3 1.514 . S
C2 O20 1.248 . S
C2 O21 1.266 1_655 S
C3 C2 1.514 . S
C3 C4 1.359 . S
C3 C8 1.348 1_655 S
C4 C3 1.359 . S
C4 C5 1.380 . S
C4 H32 0.929 . S
C5 C4 1.380 . S
C5 C6 1.347 . S
C5 H33 0.931 . S
C6 C5 1.347 . S
C6 C7 1.369 . S
C7 C6 1.369 . S
C7 C8 1.408 1_655 S
C7 H34 0.930 1_655 S
C8 C3 1.348 1_455 S
C8 C7 1.408 1_455 S
C8 H35 0.930 . S
C9 O22 1.281 . S
C9 O23 1.254 . S
C10 O24 1.236 . S
C10 O25 1.266 . S
C11 Tb1 2.809 . S
C11 C12 1.514 . S
C11 O26 1.248 . S
C11 O27 1.266 . S
C12 C11 1.514 . S
C12 C13 1.359 . S
C12 C17 1.348 . S
C13 C12 1.359 . S
C13 C14 1.380 . S
C13 H36 0.929 . S
C14 C13 1.380 . S
C14 C15 1.347 . S
C14 H37 0.931 . S
C15 C14 1.347 . S
C15 C16 1.369 . S
C16 C15 1.369 . S
C16 C17 1.408 . S
C16 H38 0.930 1_455 S
C17 C12 1.348 . S
C17 C16 1.408 . S
C17 H39 0.930 1_455 S
C18 O28 1.281 . S
C18 O29 1.254 . S
C19 O30 1.236 1_556 S
C19 O31 1.266 . S
O20 Tb0 2.484 . S
O20 C2 1.248 . S
O21 Tb0 2.440 1_455 S
O21 C2 1.266 1_455 S
O22 Tb0 2.658 1_455 S
O22 Tb1 2.325 1_546 S
O22 C9 1.281 . S
O23 Tb0 2.409 1_455 S
O23 C9 1.254 . S
O24 Tb0 2.378 1_454 S
O24 C10 1.236 . S
O25 Tb1 2.341 1_545 S
O25 C10 1.266 . S
O26 Tb1 2.484 . S
O26 C11 1.248 . S
O27 Tb1 2.440 . S
O27 C11 1.266 . S
O28 Tb0 2.325 1_564 S
O28 Tb1 2.658 1_655 S
O28 C18 1.281 . S
O29 Tb1 2.409 1_655 S
O29 C18 1.254 . S
O30 Tb1 2.378 1_655 S
O30 C19 1.236 1_554 S
O31 Tb0 2.341 1_565 S
O31 C19 1.266 . S
H32 C4 0.929 . S
H33 C5 0.931 . S
H34 C7 0.930 1_455 S
H35 C8 0.930 . S
H36 C13 0.929 . S
H37 C14 0.931 . S
H38 C16 0.930 1_655 S
H39 C17 0.930 1_655 S
Tb40 C42 2.809 . S
Tb40 O60 2.484 . S
Tb40 O61 2.440 . S
Tb40 O62 2.658 . S
Tb40 O63 2.409 . S
Tb40 O64 2.378 . S
Tb40 O68 2.325 1_445 S
Tb40 O71 2.341 1_455 S
Tb41 C51 2.809 . S
Tb41 O62 2.325 1_665 S
Tb41 O65 2.341 1_655 S
Tb41 O66 2.484 . S
Tb41 O67 2.440 . S
Tb41 O68 2.658 . S
Tb41 O69 2.409 . S
Tb41 O70 2.378 . S
C42 Tb40 2.809 . S
C42 C43 1.514 . S
C42 O60 1.248 . S
C42 O61 1.266 . S
C43 C42 1.514 . S
C43 C44 1.359 . S
C43 C48 1.348 . S
C44 C43 1.359 . S
C44 C45 1.380 . S
C44 H72 0.929 . S
C45 C44 1.380 . S
C45 C46 1.347 . S
C45 H73 0.931 . S
C46 C45 1.347 . S
C46 C47 1.369 . S
C47 C46 1.369 . S
C47 C48 1.408 . S
C47 H74 0.930 . S
C48 C43 1.348 . S
C48 C47 1.408 . S
C48 H75 0.930 . S
C49 O62 1.281 . S
C49 O63 1.254 . S
C50 O64 1.236 1_565 S
C50 O65 1.266 . S
C51 Tb41 2.809 . S
C51 C52 1.514 . S
C51 O66 1.248 . S
C51 O67 1.266 . S
C52 C51 1.514 . S
C52 C53 1.359 . S
C52 C57 1.348 . S
C53 C52 1.359 . S
C53 C54 1.380 . S
C53 H76 0.929 1_565 S
C54 C53 1.380 . S
C54 C55 1.347 . S
C54 H77 0.931 . S
C55 C54 1.347 . S
C55 C56 1.369 . S
C56 C55 1.369 . S
C56 C57 1.408 . S
C56 H78 0.930 . S
C57 C52 1.348 . S
C57 C56 1.408 . S
C57 H79 0.930 . S
C58 O68 1.281 . S
C58 O69 1.254 . S
C59 O70 1.236 1_545 S
C59 O71 1.266 . S
O60 Tb40 2.484 . S
O60 C42 1.248 . S
O61 Tb40 2.440 . S
O61 C42 1.266 . S
O62 Tb40 2.658 . S
O62 Tb41 2.325 1_445 S
O62 C49 1.281 . S
O63 Tb40 2.409 . S
O63 C49 1.254 . S
O64 Tb40 2.378 . S
O64 C50 1.236 1_545 S
O65 Tb41 2.341 1_455 S
O65 C50 1.266 . S
O66 Tb41 2.484 . S
O66 C51 1.248 . S
O67 Tb41 2.440 . S
O67 C51 1.266 . S
O68 Tb40 2.325 1_665 S
O68 Tb41 2.658 . S
O68 C58 1.281 . S
O69 Tb41 2.409 . S
O69 C58 1.254 . S
O70 Tb41 2.378 . S
O70 C59 1.236 1_565 S
O71 Tb40 2.341 1_655 S
O71 C59 1.266 . S
H72 C44 0.929 . S
H73 C45 0.931 . S
H74 C47 0.930 . S
H75 C48 0.930 . S
H76 C53 0.929 1_545 S
H77 C54 0.931 . S
H78 C56 0.930 . S
H79 C57 0.930 . S
Zn80 O86 1.920 . S
Zn80 O92 1.898 . S
Zn80 O95 1.905 . S
Zn81 O89 1.905 . S
Zn81 O90 1.898 . S
Zn81 O98 1.920 . S
Zn82 O85 2.080 . S
Zn82 O88 2.114 . S
Zn82 O91 2.120 . S
Zn82 O93 2.120 . S
Zn82 O94 2.114 . S
Zn82 O97 2.080 . S
C83 O88 1.166 . S
C83 O89 1.182 . S
C84 O90 1.167 . S
C84 O91 1.299 . S
O85 Zn82 2.080 . S
O85 C99 1.305 . S
O86 Zn80 1.920 . S
O86 C99 1.234 . S
C87 O92 1.167 . S
C87 O93 1.299 . S
O88 Zn82 2.114 . S
O88 C83 1.166 . S
O89 Zn81 1.905 . S
O89 C83 1.182 . S
O90 Zn81 1.898 . S
O90 C84 1.167 . S
O91 Zn82 2.120 . S
O91 C84 1.299 . S
O92 Zn80 1.898 . S
O92 C87 1.167 . S
O93 Zn82 2.120 . S
O93 C87 1.299 . S
O94 Zn82 2.114 . S
O94 C96 1.166 . S
O95 Zn80 1.905 . S
O95 C96 1.182 . S
C96 O94 1.166 . S
C96 O95 1.182 . S
O97 Zn82 2.080 . S
O97 C100 1.305 . S
O98 Zn81 1.920 . S
O98 C100 1.234 . S
C99 O85 1.305 . S
C99 O86 1.234 . S
C100 O97 1.305 . S
C100 O98 1.234 . S
Zn101 O107 1.920 . S
Zn101 O113 1.898 . S
Zn101 O116 1.905 . S
Zn102 O110 1.905 . S
Zn102 O111 1.898 . S
Zn102 O119 1.920 . S
Zn103 O106 2.080 . S
Zn103 O109 2.114 . S
Zn103 O112 2.120 . S
Zn103 O114 2.120 . S
Zn103 O115 2.114 . S
Zn103 O118 2.080 . S
C104 O109 1.166 . S
C104 O110 1.182 . S
C105 O111 1.167 . S
C105 O112 1.299 . S
O106 Zn103 2.080 . S
O106 C120 1.305 . S
O107 Zn101 1.920 . S
O107 C120 1.234 . S
C108 O113 1.167 . S
C108 O114 1.299 . S
O109 Zn103 2.114 . S
O109 C104 1.166 . S
O110 Zn102 1.905 . S
O110 C104 1.182 . S
O111 Zn102 1.898 . S
O111 C105 1.167 . S
O112 Zn103 2.120 . S
O112 C105 1.299 . S
O113 Zn101 1.898 . S
O113 C108 1.167 . S
O114 Zn103 2.120 . S
O114 C108 1.299 . S
O115 Zn103 2.114 . S
O115 C117 1.166 . S
O116 Zn101 1.905 . S
O116 C117 1.182 . S
C117 O115 1.166 . S
C117 O116 1.182 . S
O118 Zn103 2.080 . S
O118 C121 1.305 . S
O119 Zn102 1.920 . S
O119 C121 1.234 . S
C120 O106 1.305 . S
C120 O107 1.234 . S
C121 O118 1.305 . S
C121 O119 1.234 . S
C122 C123 1.391 . S
C122 C124 1.394 . S
C122 H138 0.931 . S
C123 C122 1.391 . S
C123 C127 1.376 . S
C124 C122 1.394 . S
C124 C125 1.369 . S
C124 C128 1.531 . S
C125 C124 1.369 . S
C125 C126 1.410 . S
C125 C133 1.503 . S
C126 C125 1.410 . S
C126 C127 1.392 . S
C126 C129 1.511 . S
C127 C123 1.376 . S
C127 C126 1.392 . S
C127 H139 0.929 . S
C128 C124 1.531 . S
C128 H140 0.960 . S
C128 H141 0.962 . S
C128 H142 0.960 . S
C129 C126 1.511 . S
C129 H143 0.961 . S
C129 H144 0.961 . S
C129 H145 0.961 . S
C130 C131 1.370 . S
C130 C132 1.363 . S
C130 H146 0.931 . S
C131 C130 1.370 . S
C131 C135 1.408 . S
C132 C130 1.363 . S
C132 C133 1.370 . S
C132 C136 1.524 . S
C133 C125 1.503 . S
C133 C132 1.370 . S
C133 C134 1.403 . S
C134 C133 1.403 . S
C134 C135 1.404 . S
C134 C137 1.539 . S
C135 C131 1.408 . S
C135 C134 1.404 . S
C135 H147 0.930 . S
C136 C132 1.524 . S
C136 H148 0.956 . S
C136 H149 0.961 . S
C136 H150 0.961 . S
C137 C134 1.539 . S
C137 H151 0.958 . S
C137 H152 0.961 . S
C137 H153 0.960 . S
H138 C122 0.931 . S
H139 C127 0.929 . S
H140 C128 0.960 . S
H141 C128 0.962 . S
H142 C128 0.960 . S
H143 C129 0.961 . S
H144 C129 0.961 . S
H145 C129 0.961 . S
H146 C130 0.931 . S
H147 C135 0.930 . S
H148 C136 0.956 . S
H149 C136 0.961 . S
H150 C136 0.961 . S
H151 C137 0.958 . S
H152 C137 0.961 . S
H153 C137 0.960 . S
C154 C155 1.391 . S
C154 C156 1.394 . S
C154 H170 0.931 . S
C155 C154 1.391 . S
C155 C159 1.376 . S
C156 C154 1.394 . S
C156 C157 1.369 . S
C156 C160 1.531 . S
C157 C156 1.369 . S
C157 C158 1.410 . S
C157 C165 1.503 . S
C158 C157 1.410 . S
C158 C159 1.392 . S
C158 C161 1.511 . S
C159 C155 1.376 . S
C159 C158 1.392 . S
C159 H171 0.929 . S
C160 C156 1.531 . S
C160 H172 0.960 . S
C160 H173 0.962 . S
C160 H174 0.960 . S
C161 C158 1.511 . S
C161 H175 0.961 . S
C161 H176 0.961 . S
C161 H177 0.961 . S
C162 C163 1.370 . S
C162 C164 1.363 . S
C162 H178 0.931 . S
C163 C162 1.370 . S
C163 C167 1.408 . S
C164 C162 1.363 . S
C164 C165 1.370 . S
C164 C168 1.524 . S
C165 C157 1.503 . S
C165 C164 1.370 . S
C165 C166 1.403 . S
C166 C165 1.403 . S
C166 C167 1.404 . S
C166 C169 1.539 . S
C167 C163 1.408 . S
C167 C166 1.404 . S
C167 H179 0.930 . S
C168 C164 1.524 . S
C168 H180 0.956 . S
C168 H181 0.961 . S
C168 H182 0.961 . S
C169 C166 1.539 . S
C169 H183 0.958 . S
C169 H184 0.961 . S
C169 H185 0.960 . S
H170 C154 0.931 . S
H171 C159 0.929 . S
H172 C160 0.960 . S
H173 C160 0.962 . S
H174 C160 0.960 . S
H175 C161 0.961 . S
H176 C161 0.961 . S
H177 C161 0.961 . S
H178 C162 0.931 . S
H179 C167 0.930 . S
H180 C168 0.956 . S
H181 C168 0.961 . S
H182 C168 0.961 . S
H183 C169 0.958 . S
H184 C169 0.961 . S
H185 C169 0.960 . S
C186 C187 1.391 . S
C186 C188 1.394 . S
C186 H202 0.931 . S
C187 C186 1.391 . S
C187 C191 1.376 . S
C188 C186 1.394 . S
C188 C189 1.369 . S
C188 C192 1.531 . S
C189 C188 1.369 . S
C189 C190 1.410 . S
C189 C197 1.503 . S
C190 C189 1.410 . S
C190 C191 1.392 . S
C190 C193 1.511 . S
C191 C187 1.376 . S
C191 C190 1.392 . S
C191 H203 0.929 1_455 S
C192 C188 1.531 . S
C192 H204 0.960 . S
C192 H205 0.962 . S
C192 H206 0.960 . S
C193 C190 1.511 . S
C193 H207 0.961 . S
C193 H208 0.961 . S
C193 H209 0.961 . S
C194 C195 1.370 . S
C194 C196 1.363 . S
C194 H210 0.931 . S
C195 C194 1.370 . S
C195 C199 1.408 . S
C196 C194 1.363 . S
C196 C197 1.370 . S
C196 C200 1.524 . S
C197 C189 1.503 . S
C197 C196 1.370 . S
C197 C198 1.403 . S
C198 C197 1.403 . S
C198 C199 1.404 . S
C198 C201 1.539 . S
C199 C195 1.408 . S
C199 C198 1.404 . S
C199 H211 0.930 . S
C200 C196 1.524 . S
C200 H212 0.956 . S
C200 H213 0.961 . S
C200 H214 0.961 . S
C201 C198 1.539 . S
C201 H215 0.958 . S
C201 H216 0.961 . S
C201 H217 0.960 . S
H202 C186 0.931 . S
H203 C191 0.929 1_655 S
H204 C192 0.960 . S
H205 C192 0.962 . S
H206 C192 0.960 . S
H207 C193 0.961 . S
H208 C193 0.961 . S
H209 C193 0.961 . S
H210 C194 0.931 . S
H211 C199 0.930 . S
H212 C200 0.956 . S
H213 C200 0.961 . S
H214 C200 0.961 . S
H215 C201 0.958 . S
H216 C201 0.961 . S
H217 C201 0.960 . S
C218 C219 1.391 . S
C218 C220 1.394 . S
C218 H234 0.931 . S
C219 C218 1.391 . S
C219 C223 1.376 . S
C220 C218 1.394 . S
C220 C221 1.369 . S
C220 C224 1.531 . S
C221 C220 1.369 . S
C221 C222 1.410 . S
C221 C229 1.503 . S
C222 C221 1.410 . S
C222 C223 1.392 . S
C222 C225 1.511 . S
C223 C219 1.376 . S
C223 C222 1.392 . S
C223 H235 0.929 . S
C224 C220 1.531 . S
C224 H236 0.960 . S
C224 H237 0.962 . S
C224 H238 0.960 1_655 S
C225 C222 1.511 . S
C225 H239 0.961 . S
C225 H240 0.961 . S
C225 H241 0.961 . S
C226 C227 1.370 . S
C226 C228 1.363 . S
C226 H242 0.931 . S
C227 C226 1.370 . S
C227 C231 1.408 . S
C228 C226 1.363 . S
C228 C229 1.370 . S
C228 C232 1.524 . S
C229 C221 1.503 . S
C229 C228 1.370 . S
C229 C230 1.403 . S
C230 C229 1.403 . S
C230 C231 1.404 . S
C230 C233 1.539 . S
C231 C227 1.408 . S
C231 C230 1.404 . S
C231 H243 0.930 . S
C232 C228 1.524 . S
C232 H244 0.956 . S
C232 H245 0.961 . S
C232 H246 0.961 . S
C233 C230 1.539 . S
C233 H247 0.958 . S
C233 H248 0.961 . S
C233 H249 0.960 . S
H234 C218 0.931 . S
H235 C223 0.929 . S
H236 C224 0.960 . S
H237 C224 0.962 . S
H238 C224 0.960 1_455 S
H239 C225 0.961 . S
H240 C225 0.961 . S
H241 C225 0.961 . S
H242 C226 0.931 . S
H243 C231 0.930 . S
H244 C232 0.956 . S
H245 C232 0.961 . S
H246 C232 0.961 . S
H247 C233 0.958 . S
H248 C233 0.961 . S
H249 C233 0.960 . S
C250 C251 1.391 . S
C250 C252 1.394 . S
C250 H266 0.931 . S
C251 C250 1.391 . S
C251 C255 1.376 . S
C252 C250 1.394 . S
C252 C253 1.369 . S
C252 C256 1.531 . S
C253 C252 1.369 . S
C253 C254 1.410 . S
C253 C261 1.503 . S
C254 C253 1.410 . S
C254 C255 1.392 . S
C254 C257 1.511 . S
C255 C251 1.376 . S
C255 C254 1.392 . S
C255 H267 0.929 . S
C256 C252 1.531 . S
C256 H268 0.960 . S
C256 H269 0.962 . S
C256 H270 0.960 . S
C257 C254 1.511 . S
C257 H271 0.961 . S
C257 H272 0.961 . S
C257 H273 0.961 . S
C258 C259 1.370 . S
C258 C260 1.363 . S
C258 H274 0.931 . S
C259 C258 1.370 . S
C259 C263 1.408 . S
C260 C258 1.363 . S
C260 C261 1.370 . S
C260 C264 1.524 . S
C261 C253 1.503 . S
C261 C260 1.370 . S
C261 C262 1.403 . S
C262 C261 1.403 . S
C262 C263 1.404 . S
C262 C265 1.539 . S
C263 C259 1.408 . S
C263 C262 1.404 . S
C263 H275 0.930 . S
C264 C260 1.524 . S
C264 H276 0.956 . S
C264 H277 0.961 . S
C264 H278 0.961 . S
C265 C262 1.539 . S
C265 H279 0.958 . S
C265 H280 0.961 . S
C265 H281 0.960 . S
H266 C250 0.931 . S
H267 C255 0.929 . S
H268 C256 0.960 . S
H269 C256 0.962 . S
H270 C256 0.960 . S
H271 C257 0.961 . S
H272 C257 0.961 . S
H273 C257 0.961 . S
H274 C258 0.931 . S
H275 C263 0.930 . S
H276 C264 0.956 . S
H277 C264 0.961 . S
H278 C264 0.961 . S
H279 C265 0.958 . S
H280 C265 0.961 . S
H281 C265 0.960 . S
C282 C283 1.391 . S
C282 C284 1.394 . S
C282 H298 0.931 . S
C283 C282 1.391 . S
C283 C287 1.376 . S
C284 C282 1.394 . S
C284 C285 1.369 . S
C284 C288 1.531 . S
C285 C284 1.369 . S
C285 C286 1.410 . S
C285 C293 1.503 . S
C286 C285 1.410 . S
C286 C287 1.392 . S
C286 C289 1.511 . S
C287 C283 1.376 . S
C287 C286 1.392 . S
C287 H299 0.929 1_655 S
C288 C284 1.531 . S
C288 H300 0.960 . S
C288 H301 0.962 . S
C288 H302 0.960 . S
C289 C286 1.511 . S
C289 H303 0.961 1_655 S
C289 H304 0.961 . S
C289 H305 0.961 . S
C290 C291 1.370 . S
C290 C292 1.363 . S
C290 H306 0.931 . S
C291 C290 1.370 . S
C291 C295 1.408 . S
C292 C290 1.363 . S
C292 C293 1.370 . S
C292 C296 1.524 . S
C293 C285 1.503 . S
C293 C292 1.370 . S
C293 C294 1.403 . S
C294 C293 1.403 . S
C294 C295 1.404 . S
C294 C297 1.539 . S
C295 C291 1.408 . S
C295 C294 1.404 . S
C295 H307 0.930 . S
C296 C292 1.524 . S
C296 H308 0.956 . S
C296 H309 0.961 . S
C296 H310 0.961 . S
C297 C294 1.539 . S
C297 H311 0.958 . S
C297 H312 0.961 . S
C297 H313 0.960 . S
H298 C282 0.931 . S
H299 C287 0.929 1_455 S
H300 C288 0.960 . S
H301 C288 0.962 . S
H302 C288 0.960 . S
H303 C289 0.961 1_455 S
H304 C289 0.961 . S
H305 C289 0.961 . S
H306 C290 0.931 . S
H307 C295 0.930 . S
H308 C296 0.956 . S
H309 C296 0.961 . S
H310 C296 0.961 . S
H311 C297 0.958 . S
H312 C297 0.961 . S
H313 C297 0.960 . S
C314 C315 1.391 . S
C314 C316 1.394 . S
C314 H330 0.931 . S
C315 C314 1.391 . S
C315 C319 1.376 . S
C316 C314 1.394 . S
C316 C317 1.369 . S
C316 C320 1.531 . S
C317 C316 1.369 . S
C317 C318 1.410 . S
C317 C325 1.503 . S
C318 C317 1.410 . S
C318 C319 1.392 . S
C318 C321 1.511 . S
C319 C315 1.376 . S
C319 C318 1.392 . S
C319 H331 0.929 . S
C320 C316 1.531 . S
C320 H332 0.960 . S
C320 H333 0.962 . S
C320 H334 0.960 . S
C321 C318 1.511 . S
C321 H335 0.961 . S
C321 H336 0.961 . S
C321 H337 0.961 . S
C322 C323 1.370 . S
C322 C324 1.363 . S
C322 H338 0.931 . S
C323 C322 1.370 . S
C323 C327 1.408 . S
C324 C322 1.363 . S
C324 C325 1.370 . S
C324 C328 1.524 . S
C325 C317 1.503 . S
C325 C324 1.370 . S
C325 C326 1.403 . S
C326 C325 1.403 . S
C326 C327 1.404 . S
C326 C329 1.539 . S
C327 C323 1.408 . S
C327 C326 1.404 . S
C327 H339 0.930 . S
C328 C324 1.524 . S
C328 H340 0.956 . S
C328 H341 0.961 . S
C328 H342 0.961 . S
C329 C326 1.539 . S
C329 H343 0.958 . S
C329 H344 0.961 . S
C329 H345 0.960 . S
H330 C314 0.931 . S
H331 C319 0.929 . S
H332 C320 0.960 . S
H333 C320 0.962 . S
H334 C320 0.960 . S
H335 C321 0.961 . S
H336 C321 0.961 . S
H337 C321 0.961 . S
H338 C322 0.931 . S
H339 C327 0.930 . S
H340 C328 0.956 . S
H341 C328 0.961 . S
H342 C328 0.961 . S
H343 C329 0.958 . S
H344 C329 0.961 . S
H345 C329 0.960 . S
C346 C347 1.391 . S
C346 C348 1.394 . S
C346 H362 0.931 . S
C347 C346 1.391 . S
C347 C351 1.376 . S
C348 C346 1.394 . S
C348 C349 1.369 . S
C348 C352 1.531 . S
C349 C348 1.369 . S
C349 C350 1.410 . S
C349 C357 1.503 . S
C350 C349 1.410 . S
C350 C351 1.392 . S
C350 C353 1.511 . S
C351 C347 1.376 . S
C351 C350 1.392 . S
C351 H363 0.929 . S
C352 C348 1.531 . S
C352 H364 0.960 . S
C352 H365 0.962 . S
C352 H366 0.960 . S
C353 C350 1.511 . S
C353 H367 0.961 . S
C353 H368 0.961 . S
C353 H369 0.961 . S
C354 C355 1.370 . S
C354 C356 1.363 . S
C354 H370 0.931 . S
C355 C354 1.370 . S
C355 C359 1.408 . S
C356 C354 1.363 . S
C356 C357 1.370 . S
C356 C360 1.524 . S
C357 C349 1.503 . S
C357 C356 1.370 . S
C357 C358 1.403 . S
C358 C357 1.403 . S
C358 C359 1.404 . S
C358 C361 1.539 . S
C359 C355 1.408 . S
C359 C358 1.404 . S
C359 H371 0.930 . S
C360 C356 1.524 . S
C360 H372 0.956 . S
C360 H373 0.961 . S
C360 H374 0.961 . S
C361 C358 1.539 . S
C361 H375 0.958 . S
C361 H376 0.961 . S
C361 H377 0.960 . S
H362 C346 0.931 . S
H363 C351 0.929 . S
H364 C352 0.960 . S
H365 C352 0.962 . S
H366 C352 0.960 . S
H367 C353 0.961 . S
H368 C353 0.961 . S
H369 C353 0.961 . S
H370 C354 0.931 . S
H371 C359 0.930 . S
H372 C360 0.956 . S
H373 C360 0.961 . S
H374 C360 0.961 . S
H375 C361 0.958 . S
H376 C361 0.961 . S
H377 C361 0.960 . S
C378 C379 1.391 . S
C378 C380 1.394 . S
C378 H394 0.931 . S
C379 C378 1.391 . S
C379 C383 1.376 . S
C380 C378 1.394 . S
C380 C381 1.369 . S
C380 C384 1.531 . S
C381 C380 1.369 . S
C381 C382 1.410 . S
C381 C389 1.503 . S
C382 C381 1.410 . S
C382 C383 1.392 . S
C382 C385 1.511 . S
C383 C379 1.376 . S
C383 C382 1.392 . S
C383 H395 0.929 . S
C384 C380 1.531 . S
C384 H396 0.960 . S
C384 H397 0.962 . S
C384 H398 0.960 1_455 S
C385 C382 1.511 . S
C385 H399 0.961 . S
C385 H400 0.961 . S
C385 H401 0.961 . S
C386 C387 1.370 . S
C386 C388 1.363 . S
C386 H402 0.931 . S
C387 C386 1.370 . S
C387 C391 1.408 . S
C388 C386 1.363 . S
C388 C389 1.370 . S
C388 C392 1.524 . S
C389 C381 1.503 . S
C389 C388 1.370 . S
C389 C390 1.403 . S
C390 C389 1.403 . S
C390 C391 1.404 . S
C390 C393 1.539 . S
C391 C387 1.408 . S
C391 C390 1.404 . S
C391 H403 0.930 . S
C392 C388 1.524 . S
C392 H404 0.956 . S
C392 H405 0.961 . S
C392 H406 0.961 . S
C393 C390 1.539 . S
C393 H407 0.958 . S
C393 H408 0.961 . S
C393 H409 0.960 . S
H394 C378 0.931 . S
H395 C383 0.929 . S
H396 C384 0.960 . S
H397 C384 0.962 . S
H398 C384 0.960 1_655 S
H399 C385 0.961 . S
H400 C385 0.961 . S
H401 C385 0.961 . S
H402 C386 0.931 . S
H403 C391 0.930 . S
H404 C392 0.956 . S
H405 C392 0.961 . S
H406 C392 0.961 . S
H407 C393 0.958 . S
H408 C393 0.961 . S
H409 C393 0.960 . S
C410 C411 1.391 . S
C410 C412 1.394 . S
C410 H426 0.931 . S
C411 C410 1.391 . S
C411 C415 1.376 . S
C412 C410 1.394 . S
C412 C413 1.369 . S
C412 C416 1.531 . S
C413 C412 1.369 . S
C413 C414 1.410 . S
C413 C421 1.503 . S
C414 C413 1.410 . S
C414 C415 1.392 . S
C414 C417 1.511 . S
C415 C411 1.376 . S
C415 C414 1.392 . S
C415 H427 0.929 . S
C416 C412 1.531 . S
C416 H428 0.960 . S
C416 H429 0.962 . S
C416 H430 0.960 . S
C417 C414 1.511 . S
C417 H431 0.961 . S
C417 H432 0.961 . S
C417 H433 0.961 . S
C418 C419 1.370 . S
C418 C420 1.363 . S
C418 H434 0.931 . S
C419 C418 1.370 . S
C419 C423 1.408 . S
C420 C418 1.363 . S
C420 C421 1.370 . S
C420 C424 1.524 . S
C421 C413 1.503 . S
C421 C420 1.370 . S
C421 C422 1.403 . S
C422 C421 1.403 . S
C422 C423 1.404 . S
C422 C425 1.539 . S
C423 C419 1.408 . S
C423 C422 1.404 . S
C423 H435 0.930 . S
C424 C420 1.524 . S
C424 H436 0.956 . S
C424 H437 0.961 . S
C424 H438 0.961 . S
C425 C422 1.539 . S
C425 H439 0.958 . S
C425 H440 0.961 . S
C425 H441 0.960 . S
H426 C410 0.931 . S
H427 C415 0.929 . S
H428 C416 0.960 . S
H429 C416 0.962 . S
H430 C416 0.960 . S
H431 C417 0.961 . S
H432 C417 0.961 . S
H433 C417 0.961 . S
H434 C418 0.931 . S
H435 C423 0.930 . S
H436 C424 0.956 . S
H437 C424 0.961 . S
H438 C424 0.961 . S
H439 C425 0.958 . S
H440 C425 0.961 . S
H441 C425 0.960 . S
C442 C443 1.391 . S
C442 C444 1.394 . S
C442 H458 0.931 . S
C443 C442 1.391 . S
C443 C447 1.376 . S
C444 C442 1.394 . S
C444 C445 1.369 . S
C444 C448 1.531 . S
C445 C444 1.369 . S
C445 C446 1.410 . S
C445 C453 1.503 . S
C446 C445 1.410 . S
C446 C447 1.392 . S
C446 C449 1.511 . S
C447 C443 1.376 . S
C447 C446 1.392 . S
C447 H459 0.929 . S
C448 C444 1.531 . S
C448 H460 0.960 . S
C448 H461 0.962 . S
C448 H462 0.960 . S
C449 C446 1.511 . S
C449 H463 0.961 . S
C449 H464 0.961 . S
C449 H465 0.961 . S
C450 C451 1.370 . S
C450 C452 1.363 . S
C450 H466 0.931 . S
C451 C450 1.370 . S
C451 C455 1.408 . S
C452 C450 1.363 . S
C452 C453 1.370 . S
C452 C456 1.524 . S
C453 C445 1.503 . S
C453 C452 1.370 . S
C453 C454 1.403 . S
C454 C453 1.403 . S
C454 C455 1.404 . S
C454 C457 1.539 . S
C455 C451 1.408 . S
C455 C454 1.404 . S
C455 H467 0.930 . S
C456 C452 1.524 . S
C456 H468 0.956 . S
C456 H469 0.961 . S
C456 H470 0.961 . S
C457 C454 1.539 . S
C457 H471 0.958 . S
C457 H472 0.961 . S
C457 H473 0.960 . S
H458 C442 0.931 . S
H459 C447 0.929 . S
H460 C448 0.960 . S
H461 C448 0.962 . S
H462 C448 0.960 . S
H463 C449 0.961 . S
H464 C449 0.961 . S
H465 C449 0.961 . S
H466 C450 0.931 . S
H467 C455 0.930 . S
H468 C456 0.956 . S
H469 C456 0.961 . S
H470 C456 0.961 . S
H471 C457 0.958 . S
H472 C457 0.961 . S
H473 C457 0.960 . S
C474 C475 1.391 . S
C474 C476 1.394 . S
C474 H490 0.931 . S
C475 C474 1.391 . S
C475 C479 1.376 . S
C476 C474 1.394 . S
C476 C477 1.369 . S
C476 C480 1.531 . S
C477 C476 1.369 . S
C477 C478 1.410 . S
C477 C485 1.503 . S
C478 C477 1.410 . S
C478 C479 1.392 . S
C478 C481 1.511 1_655 S
C479 C475 1.376 . S
C479 C478 1.392 . S
C479 H491 0.929 1_655 S
C480 C476 1.531 . S
C480 H492 0.960 . S
C480 H493 0.962 . S
C480 H494 0.960 . S
C481 C478 1.511 1_455 S
C481 H495 0.961 . S
C481 H496 0.961 1_455 S
C481 H497 0.961 . S
C482 C483 1.370 . S
C482 C484 1.363 . S
C482 H498 0.931 . S
C483 C482 1.370 . S
C483 C487 1.408 . S
C484 C482 1.363 . S
C484 C485 1.370 . S
C484 C488 1.524 . S
C485 C477 1.503 . S
C485 C484 1.370 . S
C485 C486 1.403 . S
C486 C485 1.403 . S
C486 C487 1.404 . S
C486 C489 1.539 . S
C487 C483 1.408 . S
C487 C486 1.404 . S
C487 H499 0.930 . S
C488 C484 1.524 . S
C488 H500 0.956 . S
C488 H501 0.961 . S
C488 H502 0.961 . S
C489 C486 1.539 . S
C489 H503 0.958 . S
C489 H504 0.961 . S
C489 H505 0.960 . S
H490 C474 0.931 . S
H491 C479 0.929 1_455 S
H492 C480 0.960 . S
H493 C480 0.962 . S
H494 C480 0.960 . S
H495 C481 0.961 . S
H496 C481 0.961 1_655 S
H497 C481 0.961 . S
H498 C482 0.931 . S
H499 C487 0.930 . S
H500 C488 0.956 . S
H501 C488 0.961 . S
H502 C488 0.961 . S
H503 C489 0.958 . S
H504 C489 0.961 . S
H505 C489 0.960 . S
C123 C15 1.250 . S
C131 C99 1.215 . S
C155 C46 0.988 . S
C163 C105 0.941 . S
C187 C10 1.355 . S
C195 C96 1.225 . S
C219 C59 2.103 . S
C227 C121 1.983 . S
C251 C18 2.064 . S
C259 C87 1.955 . S
C291 C104 1.821 . S
C283 C58 1.893 . S
C315 C50 1.868 . S
C323 C100 1.779 . S
C355 C117 2.141 . S
C347 C9 2.176 . S
C387 C84 2.064 . S
C379 C49 2.219 . S
C419 C120 1.264 . S
C411 C6 1.449 . S
C451 C83 0.943 . S
C443 C55 0.986 . S
C483 C108 1.050 . S
C475 C19 1.078 . S
